# Generated by pormake.
# Topology pbz, (3)-cn, num edge types: 1
# Building blocks:
#     Node 0, Type 0, BuildingBlock: WUSLED_clean_sbu_0, # of connection points: 3
#     Node 1, Type 0, BuildingBlock: WUSLED_clean_sbu_0, # of connection points: 3
#     Node 2, Type 0, BuildingBlock: WUSLED_clean_sbu_0, # of connection points: 3
#     Node 3, Type 0, BuildingBlock: WUSLED_clean_sbu_0, # of connection points: 3
#     Node 4, Type 0, BuildingBlock: WUSLED_clean_sbu_0, # of connection points: 3
#     Node 5, Type 0, BuildingBlock: WUSLED_clean_sbu_0, # of connection points: 3
#     Node 6, Type 0, BuildingBlock: WUSLED_clean_sbu_0, # of connection points: 3
#     Node 7, Type 0, BuildingBlock: WUSLED_clean_sbu_0, # of connection points: 3
#     Node 8, Type 0, BuildingBlock: WUSLED_clean_sbu_0, # of connection points: 3
#     Node 9, Type 0, BuildingBlock: WUSLED_clean_sbu_0, # of connection points: 3
#     Node 10, Type 0, BuildingBlock: WUSLED_clean_sbu_0, # of connection points: 3
#     Node 11, Type 0, BuildingBlock: WUSLED_clean_sbu_0, # of connection points: 3
#     Node 12, Type 0, BuildingBlock: WUSLED_clean_sbu_0, # of connection points: 3
#     Node 13, Type 0, BuildingBlock: WUSLED_clean_sbu_0, # of connection points: 3
#     Node 14, Type 0, BuildingBlock: WUSLED_clean_sbu_0, # of connection points: 3
#     Node 15, Type 0, BuildingBlock: WUSLED_clean_sbu_0, # of connection points: 3
#     Node 16, Type 0, BuildingBlock: WUSLED_clean_sbu_0, # of connection points: 3
#     Node 17, Type 0, BuildingBlock: WUSLED_clean_sbu_0, # of connection points: 3
#     Node 18, Type 0, BuildingBlock: WUSLED_clean_sbu_0, # of connection points: 3
#     Node 19, Type 0, BuildingBlock: WUSLED_clean_sbu_0, # of connection points: 3
#     Node 20, Type 0, BuildingBlock: WUSLED_clean_sbu_0, # of connection points: 3
#     Node 21, Type 0, BuildingBlock: WUSLED_clean_sbu_0, # of connection points: 3
#     Node 22, Type 0, BuildingBlock: WUSLED_clean_sbu_0, # of connection points: 3
#     Node 23, Type 0, BuildingBlock: WUSLED_clean_sbu_0, # of connection points: 3
#     Edge 24, Type (0, 0), BuildingBlock: MIFKUJ_clean_linker_0, # of connection points: 2
#     Edge 25, Type (0, 0), BuildingBlock: MIFKUJ_clean_linker_0, # of connection points: 2
#     Edge 26, Type (0, 0), BuildingBlock: MIFKUJ_clean_linker_0, # of connection points: 2
#     Edge 27, Type (0, 0), BuildingBlock: MIFKUJ_clean_linker_0, # of connection points: 2
#     Edge 28, Type (0, 0), BuildingBlock: MIFKUJ_clean_linker_0, # of connection points: 2
#     Edge 29, Type (0, 0), BuildingBlock: MIFKUJ_clean_linker_0, # of connection points: 2
#     Edge 30, Type (0, 0), BuildingBlock: MIFKUJ_clean_linker_0, # of connection points: 2
#     Edge 31, Type (0, 0), BuildingBlock: MIFKUJ_clean_linker_0, # of connection points: 2
#     Edge 32, Type (0, 0), BuildingBlock: MIFKUJ_clean_linker_0, # of connection points: 2
#     Edge 33, Type (0, 0), BuildingBlock: MIFKUJ_clean_linker_0, # of connection points: 2
#     Edge 34, Type (0, 0), BuildingBlock: MIFKUJ_clean_linker_0, # of connection points: 2
#     Edge 35, Type (0, 0), BuildingBlock: MIFKUJ_clean_linker_0, # of connection points: 2
#     Edge 36, Type (0, 0), BuildingBlock: MIFKUJ_clean_linker_0, # of connection points: 2
#     Edge 37, Type (0, 0), BuildingBlock: MIFKUJ_clean_linker_0, # of connection points: 2
#     Edge 38, Type (0, 0), BuildingBlock: MIFKUJ_clean_linker_0, # of connection points: 2
#     Edge 39, Type (0, 0), BuildingBlock: MIFKUJ_clean_linker_0, # of connection points: 2
#     Edge 40, Type (0, 0), BuildingBlock: MIFKUJ_clean_linker_0, # of connection points: 2
#     Edge 41, Type (0, 0), BuildingBlock: MIFKUJ_clean_linker_0, # of connection points: 2
#     Edge 42, Type (0, 0), BuildingBlock: MIFKUJ_clean_linker_0, # of connection points: 2
#     Edge 43, Type (0, 0), BuildingBlock: MIFKUJ_clean_linker_0, # of connection points: 2
#     Edge 44, Type (0, 0), BuildingBlock: MIFKUJ_clean_linker_0, # of connection points: 2
#     Edge 45, Type (0, 0), BuildingBlock: MIFKUJ_clean_linker_0, # of connection points: 2
#     Edge 46, Type (0, 0), BuildingBlock: MIFKUJ_clean_linker_0, # of connection points: 2
#     Edge 47, Type (0, 0), BuildingBlock: MIFKUJ_clean_linker_0, # of connection points: 2
#     Edge 48, Type (0, 0), BuildingBlock: MIFKUJ_clean_linker_0, # of connection points: 2
#     Edge 49, Type (0, 0), BuildingBlock: MIFKUJ_clean_linker_0, # of connection points: 2
#     Edge 50, Type (0, 0), BuildingBlock: MIFKUJ_clean_linker_0, # of connection points: 2
#     Edge 51, Type (0, 0), BuildingBlock: MIFKUJ_clean_linker_0, # of connection points: 2
#     Edge 52, Type (0, 0), BuildingBlock: MIFKUJ_clean_linker_0, # of connection points: 2
#     Edge 53, Type (0, 0), BuildingBlock: MIFKUJ_clean_linker_0, # of connection points: 2
#     Edge 54, Type (0, 0), BuildingBlock: MIFKUJ_clean_linker_0, # of connection points: 2
#     Edge 55, Type (0, 0), BuildingBlock: MIFKUJ_clean_linker_0, # of connection points: 2
#     Edge 56, Type (0, 0), BuildingBlock: MIFKUJ_clean_linker_0, # of connection points: 2
#     Edge 57, Type (0, 0), BuildingBlock: MIFKUJ_clean_linker_0, # of connection points: 2
#     Edge 58, Type (0, 0), BuildingBlock: MIFKUJ_clean_linker_0, # of connection points: 2
#     Edge 59, Type (0, 0), BuildingBlock: MIFKUJ_clean_linker_0, # of connection points: 2
# Relax obj value: 0.000
# Max RMSD: 0.013
# Mean RMSD: 0.009
data_MOF--net-pbz--node1-WUSLED_clean_sbu_0--edge1-MIFKUJ_clean_linker_0
_symmetry_space_group_name_H-M    P1
_symmetry_Int_Tables_number       1
_symmetry_cell_setting            triclinic
loop_
_symmetry_equiv_pos_as_xyz
'x, y, z'
_cell_length_a     117.54634
_cell_length_b     117.63392
_cell_length_c     117.74048
_cell_angle_alpha  89.38827
_cell_angle_beta   90.095105
_cell_angle_gamma 89.9554
loop_
_atom_site_label
_atom_site_type_symbol
_atom_site_fract_x
_atom_site_fract_y
_atom_site_fract_z
_atom_type_partial_charge
C0 C 1.00442 0.20851 0.70721 0.0
C1 C 0.01528 0.21245 0.71027 0.0
C2 C 1.00708 0.22379 0.72556 0.0
C3 C 0.01659 0.22002 0.71934 0.0
C4 C 0.99627 0.21966 0.72252 0.0
C5 C 0.99497 0.21214 0.71347 0.0
U6 U 1.01138 0.18363 0.68664 0.0
O7 O 0.9994 0.17158 0.67875 0.0
O8 O 1.0094 0.18321 0.66804 0.0
C9 C 1.00138 0.17543 0.66842 0.0
C10 C 1.0025 0.20116 0.69721 0.0
C11 C 0.99133 0.17716 0.66096 0.0
C12 C 0.97867 0.1892 0.64959 0.0
C13 C 0.98763 0.18801 0.65745 0.0
C14 C 0.97684 0.16874 0.64885 0.0
C15 C 0.97326 0.17955 0.64505 0.0
C16 C 0.98575 0.16757 0.65667 0.0
C17 C 0.03806 0.16452 0.69158 0.0
C18 C 0.04203 0.14436 0.68875 0.0
C19 C 0.05758 0.15778 0.68953 0.0
C20 C 0.0498 0.16665 0.69109 0.0
C21 C 0.05383 0.14647 0.68846 0.0
C22 C 0.03423 0.15327 0.69028 0.0
C23 C 0.03019 0.17402 0.69426 0.0
O24 O 1.00969 0.20214 0.68871 0.0
O25 O 0.99952 0.19058 0.69933 0.0
O26 O 0.01998 0.17131 0.69795 0.0
O27 O 0.03014 0.18274 0.68718 0.0
H28 H 0.02273 0.20978 0.7056 0.0
H29 H 0.02506 0.2229 0.72151 0.0
H30 H 0.98872 0.22247 0.72694 0.0
H31 H 0.9865 0.2093 0.71122 0.0
H32 H 0.97621 0.19766 0.64683 0.0
H33 H 0.99179 0.19557 0.6606 0.0
H34 H 0.97277 0.16112 0.64574 0.0
H35 H 0.98844 0.15911 0.65924 0.0
H36 H 0.0388 0.1358 0.68782 0.0
H37 H 0.06658 0.15975 0.68951 0.0
H38 H 0.053 0.17521 0.69218 0.0
H39 H 0.02524 0.15132 0.6906 0.0
C40 C 0.8197 0.50998 0.20559 0.0
C41 C 0.82262 0.51703 0.2147 0.0
C42 C 0.80416 0.51341 0.22367 0.0
C43 C 0.81493 0.51871 0.22367 0.0
C44 C 0.80133 0.50642 0.21446 0.0
C45 C 0.80899 0.50475 0.20555 0.0
U46 U 0.84607 0.51575 0.18629 0.0
O47 O 0.85805 0.5032 0.17921 0.0
O48 O 0.84742 0.51356 0.16779 0.0
C49 C 0.85475 0.50515 0.16869 0.0
C50 C 0.82764 0.5076 0.19616 0.0
C51 C 0.85278 0.49504 0.16149 0.0
C52 C 0.8408 0.48353 0.14915 0.0
C53 C 0.84208 0.49259 0.15673 0.0
C54 C 0.8608 0.47907 0.15115 0.0
C55 C 0.85017 0.47669 0.14617 0.0
C56 C 0.86207 0.48812 0.15868 0.0
C57 C 0.86557 0.54205 0.19137 0.0
C58 C 0.88597 0.5458 0.19019 0.0
C59 C 0.87263 0.56138 0.1885 0.0
C60 C 0.86357 0.55374 0.18979 0.0
C61 C 0.88397 0.55755 0.18881 0.0
C62 C 0.87689 0.53814 0.19145 0.0
C63 C 0.85578 0.5344 0.19381 0.0
O64 O 0.82736 0.51467 0.18745 0.0
O65 O 0.83802 0.50448 0.19898 0.0
O66 O 0.85806 0.52418 0.19785 0.0
O67 O 0.84742 0.53447 0.18637 0.0
H68 H 0.83084 0.52117 0.2149 0.0
H69 H 0.81738 0.52424 0.23055 0.0
H70 H 0.79325 0.50201 0.21421 0.0
H71 H 0.80658 0.49922 0.19865 0.0
H72 H 0.83246 0.48189 0.1456 0.0
H73 H 0.83474 0.49776 0.15873 0.0
H74 H 0.86825 0.47414 0.14898 0.0
H75 H 0.87043 0.48988 0.16214 0.0
H76 H 0.89458 0.54251 0.19033 0.0
H77 H 0.87072 0.57035 0.18761 0.0
H78 H 0.85495 0.55702 0.18983 0.0
H79 H 0.87875 0.52919 0.19266 0.0
C80 C 0.49041 0.37604 0.6804 0.0
C81 C 0.47926 0.3721 0.68227 0.0
C82 C 0.47218 0.39164 0.68329 0.0
C83 C 0.47026 0.37982 0.68368 0.0
C84 C 0.4834 0.39551 0.68167 0.0
C85 C 0.49237 0.38782 0.68023 0.0
U86 U 0.50975 0.3495 0.68547 0.0
O87 O 0.51682 0.33777 0.67277 0.0
O88 O 0.52829 0.34798 0.68327 0.0
C89 C 0.52738 0.34082 0.6748 0.0
C90 C 0.49998 0.36823 0.67778 0.0
C91 C 0.53479 0.34278 0.66476 0.0
C92 C 0.54753 0.35461 0.65334 0.0
C93 C 0.53972 0.35341 0.6623 0.0
C94 C 0.54539 0.33468 0.64901 0.0
C95 C 0.55061 0.34521 0.64668 0.0
C96 C 0.53761 0.33349 0.65794 0.0
C97 C 0.50384 0.32908 0.71112 0.0
C98 C 0.51591 0.31752 0.7236 0.0
C99 C 0.49597 0.31289 0.72156 0.0
C100 C 0.49461 0.32204 0.71396 0.0
C101 C 0.50661 0.31055 0.72658 0.0
C102 C 0.51455 0.32668 0.71594 0.0
C103 C 0.50177 0.33924 0.7038 0.0
O104 O 0.50867 0.36825 0.68482 0.0
O105 O 0.49734 0.358 0.67422 0.0
O106 O 0.49784 0.33737 0.69353 0.0
O107 O 0.50936 0.34745 0.70408 0.0
H108 H 0.47746 0.36308 0.68246 0.0
H109 H 0.46177 0.3765 0.68505 0.0
H110 H 0.48523 0.40453 0.68116 0.0
H111 H 0.50085 0.39109 0.6787 0.0
H112 H 0.55142 0.36284 0.65187 0.0
H113 H 0.53773 0.36074 0.66743 0.0
H114 H 0.54735 0.32729 0.64396 0.0
H115 H 0.53395 0.3252 0.65965 0.0
H116 H 0.52425 0.31592 0.72718 0.0
H117 H 0.48857 0.30786 0.72375 0.0
H118 H 0.48624 0.32376 0.71047 0.0
H119 H 0.52184 0.33195 0.71394 0.0
C120 C 0.67509 0.03475 0.15864 0.0
C121 C 0.6755 0.04604 0.16247 0.0
C122 C 0.67731 0.05316 0.14294 0.0
C123 C 0.67661 0.05513 0.15471 0.0
C124 C 0.67718 0.04183 0.1392 0.0
C125 C 0.67605 0.03277 0.14694 0.0
U126 U 0.68092 0.01505 0.1849 0.0
O127 O 0.66856 1.00705 0.19655 0.0
O128 O 0.67957 0.99638 0.18608 0.0
C129 C 0.67118 0.99668 0.19343 0.0
C130 C 0.67278 0.02498 0.16643 0.0
C131 C 0.6616 0.9888 0.19144 0.0
C132 C 0.64392 0.98345 0.18206 0.0
C133 C 0.65293 0.99116 0.18355 0.0
C134 C 0.6522 0.97097 0.19631 0.0
C135 C 0.64344 0.97321 0.18842 0.0
C136 C 0.66115 0.97865 0.19778 0.0
C137 C 0.70681 0.02088 0.20476 0.0
C138 C 0.71058 0.02011 0.22516 0.0
C139 C 0.72608 0.01777 0.21191 0.0
C140 C 0.71845 0.01902 0.20282 0.0
C141 C 0.72229 0.01844 0.22322 0.0
C142 C 0.70293 0.02132 0.21605 0.0
C143 C 0.69917 0.02326 0.19491 0.0
O144 O 0.68006 0.0165 0.1662 0.0
O145 O 0.66921 0.02729 0.17674 0.0
O146 O 0.68878 0.02676 0.19709 0.0
O147 O 0.6996 0.01606 0.18646 0.0
H148 H 0.67473 0.04789 0.17142 0.0
H149 H 0.67658 0.06372 0.15792 0.0
H150 H 0.6779 0.03992 0.13025 0.0
H151 H 0.67572 0.02418 0.14374 0.0
H152 H 0.6374 0.98543 0.17584 0.0
H153 H 0.65312 0.99894 0.17855 0.0
H154 H 0.65207 0.96333 0.20152 0.0
H155 H 0.66772 0.97668 0.20396 0.0
H156 H 0.70732 0.02053 0.23374 0.0
H157 H 0.73503 0.01665 0.21005 0.0
H158 H 0.72172 0.01878 0.19423 0.0
H159 H 0.69403 0.02277 0.21788 0.0
C160 C 1.00585 0.32253 0.8339 0.0
C161 C 1.00755 0.32643 0.82268 0.0
C162 C 1.00801 0.30686 0.8158 0.0
C163 C 1.00863 0.31867 0.81374 0.0
C164 C 1.00659 0.30304 0.82709 0.0
C165 C 1.0055 0.31077 0.83598 0.0
U166 U 0.01197 0.34879 0.85296 0.0
O167 O 0.99974 0.36048 0.86088 0.0
O168 O 1.01084 0.3499 0.87163 0.0
C169 C 1.00235 0.35717 0.87127 0.0
C170 C 1.00366 0.33038 0.84346 0.0
C171 C 0.99278 0.35499 0.87921 0.0
C172 C 0.97311 0.34972 0.88327 0.0
C173 C 0.98214 0.351 0.87554 0.0
C174 C 0.98529 0.35621 0.89846 0.0
C175 C 0.97455 0.35237 0.89485 0.0
C176 C 0.99427 0.3575 0.89074 0.0
C177 C 0.03807 0.36814 0.84608 0.0
C178 C 0.04358 0.38566 0.85551 0.0
C179 C 0.05572 0.37775 0.84101 0.0
C180 C 0.04803 0.36879 0.83959 0.0
C181 C 0.05364 0.38632 0.84901 0.0
C182 C 0.03588 0.37663 0.85408 0.0
C183 C 0.03022 0.35851 0.84422 0.0
O184 O 1.01099 0.33009 0.8519 0.0
O185 O 1.00017 0.34073 0.84093 0.0
O186 O 0.01979 0.36105 0.84103 0.0
O187 O 0.03063 0.35017 0.85172 0.0
H188 H 1.00783 0.33545 0.82078 0.0
H189 H 1.00963 0.32196 0.80518 0.0
H190 H 1.00628 0.29404 0.82907 0.0
H191 H 1.0042 0.30753 0.84453 0.0
H192 H 0.96502 0.34662 0.88018 0.0
H193 H 0.98076 0.34898 0.86669 0.0
H194 H 0.98672 0.3585 0.90722 0.0
H195 H 1.00236 0.36066 0.89378 0.0
H196 H 0.04173 0.39203 0.86182 0.0
H197 H 0.06322 0.37803 0.8357 0.0
H198 H 0.04987 0.36235 0.83333 0.0
H199 H 0.02824 0.37628 0.85921 0.0
C200 C 0.67513 0.49838 0.38008 0.0
C201 C 0.67656 0.48719 0.37622 0.0
C202 C 0.67705 0.47996 0.39579 0.0
C203 C 0.67753 0.47809 0.38399 0.0
C204 C 0.67589 0.49122 0.39958 0.0
C205 C 0.67492 0.50028 0.39183 0.0
U206 U 0.68154 0.51795 0.35388 0.0
O207 O 0.66942 0.52616 0.34209 0.0
O208 O 0.68043 0.53666 0.35276 0.0
C209 C 0.67198 0.53647 0.34544 0.0
C210 C 0.67305 0.50813 0.37221 0.0
C211 C 0.66236 0.54431 0.34767 0.0
C212 C 0.64278 0.54811 0.35335 0.0
C213 C 0.65187 0.54048 0.35194 0.0
C214 C 0.65461 0.5635 0.34642 0.0
C215 C 0.64402 0.55974 0.35056 0.0
C216 C 0.66364 0.55588 0.34499 0.0
C217 C 0.70775 0.5114 0.33473 0.0
C218 C 0.7125 0.51966 0.31626 0.0
C219 C 0.72611 0.50758 0.32601 0.0
C220 C 0.71846 0.50615 0.335 0.0
C221 C 0.72327 0.51434 0.31648 0.0
C222 C 0.70482 0.51822 0.32531 0.0
C223 C 0.69984 0.50934 0.34431 0.0
O224 O 0.68042 0.51652 0.37255 0.0
O225 O 0.66963 0.50582 0.36184 0.0
O226 O 0.68943 0.50622 0.34172 0.0
O227 O 0.70022 0.51666 0.35266 0.0
H228 H 0.67673 0.48544 0.36721 0.0
H229 H 0.67832 0.46956 0.38074 0.0
H230 H 0.67571 0.49305 0.40857 0.0
H231 H 0.67381 0.50881 0.39504 0.0
H232 H 0.63481 0.54491 0.35668 0.0
H233 H 0.65066 0.53159 0.35411 0.0
H234 H 0.65588 0.57232 0.34401 0.0
H235 H 0.67163 0.55903 0.34162 0.0
H236 H 0.71004 0.52502 0.30913 0.0
H237 H 0.7342 0.50317 0.32645 0.0
H238 H 0.72088 0.5008 0.34216 0.0
H239 H 0.69661 0.52239 0.32493 0.0
C240 C 0.49173 0.15594 0.85924 0.0
C241 C 0.48158 0.15947 0.85394 0.0
C242 C 0.47359 0.14034 0.85609 0.0
C243 C 0.4726 0.15175 0.8524 0.0
C244 C 0.48386 0.13687 0.86124 0.0
C245 C 0.49279 0.14457 0.86278 0.0
U246 U 0.51031 0.18282 0.8537 0.0
O247 O 0.51738 0.1947 0.86627 0.0
O248 O 0.52885 0.18473 0.85559 0.0
C249 C 0.52795 0.19177 0.86415 0.0
C250 C 0.50113 0.16393 0.86168 0.0
C251 C 0.53545 0.1897 0.87415 0.0
C252 C 0.54909 0.1781 0.88481 0.0
C253 C 0.5413 0.17937 0.87583 0.0
C254 C 0.54514 0.19731 0.89075 0.0
C255 C 0.5512 0.18709 0.89234 0.0
C256 C 0.5374 0.19859 0.88176 0.0
C257 C 0.50328 0.20265 0.8278 0.0
C258 C 0.51517 0.21666 0.81805 0.0
C259 C 0.49501 0.21582 0.81399 0.0
C260 C 0.49382 0.2069 0.82186 0.0
C261 C 0.50571 0.22074 0.81184 0.0
C262 C 0.51398 0.20767 0.82594 0.0
C263 C 0.5017 0.19266 0.8354 0.0
O264 O 0.50966 0.16407 0.85448 0.0
O265 O 0.49825 0.17413 0.86513 0.0
O266 O 0.49803 0.19468 0.84573 0.0
O267 O 0.50956 0.18471 0.83509 0.0
H268 H 0.48056 0.1682 0.8511 0.0
H269 H 0.46489 0.15472 0.84828 0.0
H270 H 0.48492 0.12824 0.86435 0.0
H271 H 0.5005 0.14166 0.86695 0.0
H272 H 0.55348 0.17005 0.88584 0.0
H273 H 0.53999 0.17233 0.87012 0.0
H274 H 0.54662 0.20448 0.89625 0.0
H275 H 0.5331 0.20668 0.88061 0.0
H276 H 0.52356 0.22019 0.81659 0.0
H277 H 0.48749 0.21886 0.80958 0.0
H278 H 0.48549 0.20319 0.82318 0.0
H279 H 0.52141 0.20454 0.83043 0.0
C280 C 0.82157 0.02492 0.33193 0.0
C281 C 0.81886 0.01402 0.32795 0.0
C282 C 0.80595 0.02223 0.31373 0.0
C283 C 0.81114 0.01269 0.31893 0.0
C284 C 0.80896 0.03311 0.31758 0.0
C285 C 0.81664 0.03442 0.32656 0.0
U286 U 0.84674 0.01806 0.35256 0.0
O287 O 0.85812 0.03009 0.36118 0.0
O288 O 0.8469 0.01905 0.37127 0.0
C289 C 0.85419 0.02753 0.37134 0.0
C290 C 0.82889 0.02671 0.34201 0.0
C291 C 0.85163 0.03709 0.37911 0.0
C292 C 0.85015 0.05736 0.38317 0.0
C293 C 0.8514 0.04849 0.37536 0.0
C294 C 0.84903 0.04361 0.39853 0.0
C295 C 0.84913 0.05505 0.3949 0.0
C296 C 0.8503 0.03477 0.39075 0.0
C297 C 0.86666 0.9921 0.34706 0.0
C298 C 0.88695 0.98823 0.34937 0.0
C299 C 0.8736 0.97262 0.34893 0.0
C300 C 0.86461 0.98035 0.3476 0.0
C301 C 0.88492 0.97642 0.34971 0.0
C302 C 0.87794 0.99598 0.34807 0.0
C303 C 0.85701 0.99993 0.34451 0.0
O304 O 0.82818 0.01914 0.35027 0.0
O305 O 0.83936 0.03014 0.34008 0.0
O306 O 0.85949 1.01038 0.3413 0.0
O307 O 0.84822 0.99939 0.35138 0.0
H308 H 0.82254 1.00654 0.33195 0.0
H309 H 0.809 1.00418 0.31625 0.0
H310 H 0.80534 0.04067 0.31367 0.0
H311 H 0.81861 0.04291 0.32946 0.0
H312 H 0.85036 0.06605 0.38003 0.0
H313 H 0.85246 0.05059 0.36645 0.0
H314 H 0.84806 0.04145 0.40744 0.0
H315 H 0.85047 0.02608 0.3939 0.0
H316 H 0.89553 0.9915 0.35008 0.0
H317 H 0.87168 0.96361 0.34899 0.0
H318 H 0.85604 0.9771 0.34671 0.0
H319 H 0.87983 1.00499 0.34767 0.0
C320 C 0.17212 0.65698 0.99814 0.0
C321 C 0.18271 0.65188 0.99594 0.0
C322 C 0.1745 0.64122 0.98016 0.0
C323 C 0.18388 0.6441 0.98703 0.0
C324 C 0.16402 0.64661 0.98224 0.0
C325 C 0.16285 0.65435 0.99112 0.0
U326 U 0.17868 0.68207 0.01869 0.0
O327 O 0.16644 0.69384 0.02652 0.0
O328 O 0.17671 0.68246 0.03729 0.0
C329 C 0.16839 0.68995 0.03686 0.0
C330 C 0.17017 0.66435 1.00812 0.0
C331 C 0.15828 0.68787 0.04419 0.0
C332 C 0.14826 0.67697 0.05885 0.0
C333 C 0.15723 0.67805 0.05105 0.0
C334 C 0.14105 0.69535 0.05292 0.0
C335 C 0.14015 0.6857 0.06004 0.0
C336 C 0.15 0.69643 0.04515 0.0
C337 C 0.20491 0.70183 0.01373 0.0
C338 C 0.20917 0.72216 0.01358 0.0
C339 C 0.224 0.70864 0.01821 0.0
C340 C 0.21627 0.69969 0.01681 0.0
C341 C 0.22061 0.72 0.01647 0.0
C342 C 0.20142 0.7132 0.01222 0.0
C343 C 0.19724 0.69212 1.01109 0.0
O344 O 0.17741 0.66352 0.01662 0.0
O345 O 0.16695 0.67487 1.00599 0.0
O346 O 0.18696 0.69454 1.00735 0.0
O347 O 0.19741 0.6834 0.01817 0.0
H348 H 0.19002 0.6537 1.00123 0.0
H349 H 0.19207 0.64009 0.98576 0.0
H350 H 0.15665 0.64481 0.97703 0.0
H351 H 0.1546 0.65814 0.99263 0.0
H352 H 0.14793 0.66946 0.06424 0.0
H353 H 0.1635 0.67131 0.05061 0.0
H354 H 0.13488 0.70217 0.05342 0.0
H355 H 0.1506 0.70413 0.04005 0.0
H356 H 0.2062 0.7308 0.01231 0.0
H357 H 0.23275 0.7066 0.0203 0.0
H358 H 0.21928 0.69103 0.01787 0.0
H359 H 0.19276 0.71521 1.00977 0.0
C360 C 0.15278 0.8569 0.49941 0.0
C361 C 0.15692 0.85451 0.48849 0.0
C362 C 0.13751 0.85393 0.48094 0.0
C363 C 0.14937 0.85306 0.47935 0.0
C364 C 0.13344 0.85614 0.49194 0.0
C365 C 0.14098 0.85761 0.50103 0.0
U366 U 0.17882 0.85152 0.51936 0.0
O367 O 0.19018 0.86406 0.52727 0.0
O368 O 0.17956 0.85305 0.53802 0.0
C369 C 0.18664 0.86169 0.53762 0.0
C370 C 0.16044 0.85938 0.50912 0.0
C371 C 0.18409 0.87138 0.54522 0.0
C372 C 0.1819 0.89169 0.54876 0.0
C373 C 0.18331 0.88266 0.54117 0.0
C374 C 0.18179 0.87834 0.56453 0.0
C375 C 0.18121 0.88966 0.56056 0.0
C376 C 0.18323 0.86935 0.55696 0.0
C377 C 0.19888 0.82554 0.51419 0.0
C378 C 0.21918 0.82108 0.51355 0.0
C379 C 0.20568 0.80636 0.51853 0.0
C380 C 0.19676 0.81419 0.51737 0.0
C381 C 0.21702 0.80963 0.51646 0.0
C382 C 0.21023 0.82892 0.5124 0.0
C383 C 0.18911 0.83325 0.51166 0.0
O384 O 0.16012 0.8522 0.51774 0.0
O385 O 0.17078 0.86294 0.50675 0.0
O386 O 0.19138 0.84361 0.50803 0.0
O387 O 0.18049 0.83286 0.51876 0.0
H388 H 0.16599 0.8539 0.48697 0.0
H389 H 0.15282 0.85125 0.47105 0.0
H390 H 0.12441 0.85704 0.4935 0.0
H391 H 0.13756 0.85953 0.50933 0.0
H392 H 0.18136 0.90027 0.54537 0.0
H393 H 0.18396 0.88454 0.53217 0.0
H394 H 0.18147 0.87642 0.57354 0.0
H395 H 0.18393 0.86077 0.56033 0.0
H396 H 0.22777 0.8239 0.51177 0.0
H397 H 0.20366 0.79769 0.52097 0.0
H398 H 0.18812 0.81127 0.51871 0.0
H399 H 0.21221 0.83756 0.50981 0.0
C400 C 0.32532 0.70961 0.51192 0.0
C401 C 0.32438 0.71602 0.52191 0.0
C402 C 0.30707 0.72521 0.51478 0.0
C403 C 0.31537 0.72372 0.52331 0.0
C404 C 0.30793 0.71862 0.5049 0.0
C405 C 0.31694 0.71097 0.50349 0.0
U406 U 0.34595 0.68418 0.5178 0.0
O407 O 0.35364 0.6725 0.50543 0.0
O408 O 0.36455 0.68348 0.51573 0.0
C409 C 0.36403 0.67614 0.50739 0.0
C410 C 0.33532 0.70223 0.50961 0.0
C411 C 0.37138 0.67825 0.4973 0.0
C412 C 0.38536 0.68961 0.48686 0.0
C413 C 0.37754 0.68841 0.49581 0.0
C414 C 0.3808 0.67065 0.48056 0.0
C415 C 0.38723 0.68067 0.47921 0.0
C416 C 0.37302 0.66946 0.48949 0.0
C417 C 0.34087 0.66424 0.54407 0.0
C418 C 0.34169 0.64383 0.54805 0.0
C419 C 0.34388 0.65715 0.5634 0.0
C420 C 0.34266 0.66622 0.55568 0.0
C421 C 0.34326 0.64582 0.55973 0.0
C422 C 0.34052 0.65292 0.54031 0.0
C423 C 0.33835 0.67404 0.53636 0.0
O424 O 0.34401 0.70279 0.51665 0.0
O425 O 0.33317 0.69182 0.50627 0.0
O426 O 0.3346 0.67176 0.52611 0.0
O427 O 0.34555 0.68259 0.53651 0.0
H428 H 0.3307 0.71522 0.52858 0.0
H429 H 0.31492 0.72853 0.53109 0.0
H430 H 0.30183 0.71963 0.49806 0.0
H431 H 0.31751 0.70628 0.49564 0.0
H432 H 0.3902 0.69741 0.48618 0.0
H433 H 0.37655 0.69535 0.50171 0.0
H434 H 0.38183 0.66365 0.47475 0.0
H435 H 0.36844 0.66152 0.49045 0.0
H436 H 0.34132 0.63523 0.54488 0.0
H437 H 0.34492 0.65904 0.57232 0.0
H438 H 0.34283 0.67483 0.55885 0.0
H439 H 0.33912 0.65106 0.53143 0.0
C440 C 0.32564 0.82304 0.02554 0.0
C441 C 0.32212 0.81945 0.01474 0.0
C442 C 0.30748 0.8073 0.02329 0.0
C443 C 0.31312 0.81167 0.01362 0.0
C444 C 0.31087 0.81119 0.03404 0.0
C445 C 0.31983 0.81894 0.03514 0.0
U446 U 0.34611 0.84819 0.01822 0.0
O447 O 0.35477 0.85977 0.02999 0.0
O448 O 0.36487 0.84845 0.01928 0.0
C449 C 0.36495 0.85585 0.02757 0.0
C450 C 0.33573 0.83041 0.02722 0.0
C451 C 0.37275 0.8534 0.03724 0.0
C452 C 0.37654 0.85072 0.05749 0.0
C453 C 0.36882 0.85205 0.04845 0.0
C454 C 0.39223 0.8518 0.04426 0.0
C455 C 0.38837 0.85067 0.05553 0.0
C456 C 0.38453 0.85317 0.03526 0.0
C457 C 0.34004 0.86769 0.99191 0.0
C458 C 0.34636 0.88704 0.98773 0.0
C459 C 0.33814 0.87567 0.97281 0.0
C460 C 0.33673 0.86664 0.98052 0.0
C461 C 0.34291 0.88605 0.9763 0.0
C462 C 0.34496 0.87795 0.99545 0.0
C463 C 0.3377 0.85815 0.99989 0.0
O464 O 0.34396 0.82965 0.01971 0.0
O465 O 0.33378 0.8409 0.03043 0.0
O466 O 0.33468 0.86081 1.01027 0.0
O467 O 0.34471 0.84945 0.99955 0.0
H468 H 0.32646 0.82247 1.00718 0.0
H469 H 0.31081 0.80883 1.00521 0.0
H470 H 0.30662 0.80821 0.04166 0.0
H471 H 0.32237 0.82158 0.04356 0.0
H472 H 0.37323 0.84973 0.06602 0.0
H473 H 0.35979 0.85218 0.05027 0.0
H474 H 0.40125 0.85197 0.0424 0.0
H475 H 0.3878 0.85429 0.02672 0.0
H476 H 0.35018 0.89483 0.99071 0.0
H477 H 0.33521 0.87461 0.96417 0.0
H478 H 0.33285 0.85884 0.9776 0.0
H479 H 0.34761 0.87898 1.00419 0.0
C480 C 1.00878 0.83149 0.32462 0.0
C481 C 1.00885 0.82014 0.32855 0.0
C482 C 1.01108 0.81323 0.30914 0.0
C483 C 1.01002 0.81113 0.32091 0.0
C484 C 1.01132 0.82461 0.30532 0.0
C485 C 1.01014 0.83359 0.31294 0.0
U486 U 0.01424 0.85139 0.35043 0.0
O487 O 0.01264 0.87007 0.351 0.0
O488 O 1.00176 0.85936 0.3618 0.0
C489 C 1.00408 0.86972 0.35817 0.0
C490 C 1.00631 0.84121 0.33223 0.0
C491 C 0.99433 0.87743 0.35569 0.0
C492 C 0.97399 0.88113 0.35352 0.0
C493 C 0.98308 0.87345 0.35483 0.0
C494 C 0.98724 0.89684 0.35368 0.0
C495 C 0.97594 0.89295 0.35303 0.0
C496 C 0.99629 0.88919 0.35501 0.0
C497 C 0.04034 0.84597 0.37029 0.0
C498 C 0.04384 0.84983 0.39032 0.0
C499 C 0.05971 0.8467 0.37768 0.0
C500 C 0.05214 0.84523 0.36863 0.0
C501 C 0.05569 0.84892 0.38869 0.0
C502 C 0.03625 0.84839 0.38122 0.0
C503 C 0.03265 0.8435 0.36061 0.0
O504 O 1.0028 0.83887 0.3426 0.0
O505 O 0.01342 0.84982 0.33179 0.0
O506 O 0.03295 0.85066 0.35198 0.0
O507 O 0.0223 0.83997 0.36303 0.0
H508 H 1.00776 0.8182 0.3375 0.0
H509 H 1.00971 0.8025 0.32418 0.0
H510 H 0.01232 0.8266 0.29638 0.0
H511 H 1.01006 0.84222 0.30965 0.0
H512 H 0.96543 0.87779 0.35292 0.0
H513 H 0.98126 0.86444 0.35533 0.0
H514 H 0.9891 0.90586 0.35351 0.0
H515 H 1.00485 0.8925 0.35578 0.0
H516 H 0.04042 0.85166 0.39864 0.0
H517 H 0.06874 0.84577 0.3761 0.0
H518 H 0.05552 0.84328 0.36031 0.0
H519 H 0.02719 0.84903 0.38277 0.0
C520 C 0.15066 0.49683 0.85977 0.0
C521 C 0.15286 0.48827 0.85184 0.0
C522 C 0.13492 0.47881 0.85672 0.0
C523 C 0.14507 0.47934 0.85034 0.0
C524 C 0.13282 0.48747 0.86461 0.0
C525 C 0.14058 0.49635 0.8661 0.0
U526 U 0.17696 0.51599 0.85314 0.0
O527 O 0.17847 0.53451 0.85513 0.0
O528 O 0.1893 0.52312 0.86531 0.0
C529 C 0.186 0.53365 0.86337 0.0
C530 C 0.15871 0.50625 0.86185 0.0
C531 C 0.18431 0.54093 0.87346 0.0
C532 C 0.17275 0.55361 0.88499 0.0
C533 C 0.17375 0.54592 0.876 0.0
C534 C 0.19276 0.55126 0.88922 0.0
C535 C 0.18228 0.55652 0.89163 0.0
C536 C 0.19375 0.5436 0.88024 0.0
C537 C 0.19566 0.51061 0.82637 0.0
C538 C 0.21588 0.51303 0.82227 0.0
C539 C 0.20236 0.51197 0.80681 0.0
C540 C 0.19348 0.5108 0.81465 0.0
C541 C 0.21373 0.51293 0.81048 0.0
C542 C 0.20696 0.51186 0.83012 0.0
C543 C 0.1861 0.50828 0.83431 0.0
O544 O 0.16915 0.5034 0.86471 0.0
O545 O 0.15829 0.5149 0.85471 0.0
O546 O 0.17779 0.51575 0.83441 0.0
O547 O 0.18869 0.50433 0.84449 0.0
H548 H 0.16059 0.48849 0.84684 0.0
H549 H 0.14695 0.47291 0.8441 0.0
H550 H 0.12525 0.4873 0.86983 0.0
H551 H 0.13874 0.50283 0.87231 0.0
H552 H 0.16456 0.55754 0.88651 0.0
H553 H 0.16631 0.54406 0.87091 0.0
H554 H 0.20024 0.55308 0.89425 0.0
H555 H 0.20199 0.5399 0.87847 0.0
H556 H 0.22451 0.51366 0.82544 0.0
H557 H 0.2003 0.51209 0.79784 0.0
H558 H 0.18486 0.50984 0.81151 0.0
H559 H 0.20894 0.51172 0.83911 0.0
C560 C 0.53344 0.6571 0.35864 0.0
C561 C 0.54396 0.66081 0.35431 0.0
C562 C 0.55163 0.64148 0.35574 0.0
C563 C 0.55296 0.65308 0.35289 0.0
C564 C 0.541 0.63782 0.35989 0.0
C565 C 0.53205 0.64554 0.36132 0.0
U566 U 0.51465 0.68385 0.35291 0.0
O567 O 0.49611 0.68567 0.35476 0.0
O568 O 0.50753 0.69581 0.36537 0.0
C569 C 0.49697 0.69281 0.36325 0.0
C570 C 0.52398 0.66507 0.36103 0.0
C571 C 0.48946 0.69086 0.37324 0.0
C572 C 0.47549 0.6796 0.38378 0.0
C573 C 0.48334 0.6807 0.37485 0.0
C574 C 0.47991 0.69867 0.38981 0.0
C575 C 0.47354 0.68864 0.3913 0.0
C576 C 0.48773 0.69977 0.3809 0.0
C577 C 0.52147 0.70353 0.32689 0.0
C578 C 0.50944 0.71759 0.31734 0.0
C579 C 0.5295 0.71658 0.31286 0.0
C580 C 0.53081 0.70767 0.32072 0.0
C581 C 0.51878 0.7216 0.31093 0.0
C582 C 0.51077 0.70863 0.32523 0.0
C583 C 0.52317 0.6936 0.33455 0.0
O584 O 0.52679 0.6753 0.36443 0.0
O585 O 0.51542 0.6651 0.35384 0.0
O586 O 0.51536 0.6856 0.33429 0.0
O587 O 0.52684 0.69572 0.34486 0.0
H588 H 0.54526 0.66968 0.35214 0.0
H589 H 0.56096 0.65619 0.34954 0.0
H590 H 0.53966 0.62903 0.36234 0.0
H591 H 0.52405 0.64248 0.36475 0.0
H592 H 0.4707 0.67177 0.38456 0.0
H593 H 0.48443 0.67367 0.36908 0.0
H594 H 0.47884 0.70575 0.39552 0.0
H595 H 0.49229 0.70771 0.37985 0.0
H596 H 0.50105 0.72119 0.31605 0.0
H597 H 0.53693 0.71955 0.30828 0.0
H598 H 0.53915 0.70389 0.32188 0.0
H599 H 0.50343 0.70557 0.32989 0.0
C600 C 0.31711 1.01138 0.83395 0.0
C601 C 0.32079 0.01618 0.82361 0.0
C602 C 0.30162 0.01445 0.81562 0.0
C603 C 0.31313 0.01768 0.81454 0.0
C604 C 0.298 1.00977 0.82607 0.0
C605 C 0.30565 1.00826 0.83509 0.0
U606 U 0.34337 0.01746 0.85318 0.0
O607 O 0.3446 0.01601 0.87184 0.0
O608 O 0.35523 1.00522 0.86111 0.0
C609 C 0.35197 1.00763 0.87149 0.0
C610 C 0.32498 1.00908 0.84356 0.0
C611 C 0.34991 0.99792 0.87934 0.0
C612 C 0.34376 0.97848 0.88337 0.0
C613 C 0.34505 0.98766 0.87572 0.0
C614 C 0.35201 0.98976 0.89834 0.0
C615 C 0.34726 0.9794 0.89479 0.0
C616 C 0.35331 0.99887 0.89071 0.0
C617 C 0.36253 0.04379 0.84688 0.0
C618 C 0.38174 0.0478 0.85361 0.0
C619 C 0.37064 0.06273 0.84465 0.0
C620 C 0.36161 0.05513 0.8432 0.0
C621 C 0.38087 0.05919 0.84984 0.0
C622 C 0.37265 0.04018 0.85217 0.0
C623 C 0.35291 0.03596 0.84472 0.0
O624 O 0.33537 1.00582 0.84101 0.0
O625 O 0.32467 0.01629 0.85199 0.0
O626 O 0.34452 0.03617 0.85208 0.0
O627 O 0.35548 0.02563 0.8414 0.0
H628 H 0.32959 0.0187 0.82252 0.0
H629 H 0.3162 0.02143 0.80669 0.0
H630 H 0.28929 1.007 0.82721 0.0
H631 H 0.30262 1.00447 0.84295 0.0
H632 H 0.33996 0.9707 0.88034 0.0
H633 H 0.34233 0.98671 0.86699 0.0
H634 H 0.35499 0.99076 0.90698 0.0
H635 H 0.35715 1.00667 0.89369 0.0
H636 H 0.38941 0.04478 0.85775 0.0
H637 H 0.36967 0.07135 0.84147 0.0
H638 H 0.35391 0.0581 0.83905 0.0
H639 H 0.37355 0.03147 0.85512 0.0
C640 C 1.00703 0.70373 0.21181 0.0
C641 C 0.01761 0.70577 0.21703 0.0
C642 C 1.00982 0.72226 0.22688 0.0
C643 C 0.01897 0.71492 0.22448 0.0
C644 C 0.99932 0.72028 0.22147 0.0
C645 C 0.99796 0.71114 0.21407 0.0
U646 U 0.01275 0.68302 0.18674 0.0
O647 O 1.00026 0.67464 0.17569 0.0
O648 O 1.01138 0.66429 0.18664 0.0
C649 C 1.00271 0.66439 0.17956 0.0
C650 C 1.00489 0.69355 0.20475 0.0
C651 C 0.99303 0.6567 0.18231 0.0
C652 C 0.97267 0.65284 0.18375 0.0
C653 C 0.98169 0.66055 0.18237 0.0
C654 C 0.98613 0.63734 0.18534 0.0
C655 C 0.97476 0.6411 0.18513 0.0
C656 C 0.99513 0.64504 0.18392 0.0
C657 C 0.03779 0.68897 0.1657 0.0
C658 C 0.05228 0.67789 0.15589 0.0
C659 C 0.04643 0.69612 0.14821 0.0
C660 C 0.03874 0.69737 0.15719 0.0
C661 C 0.05346 0.68646 0.14752 0.0
C662 C 0.04456 0.67913 0.16489 0.0
C663 C 0.0305 0.69123 0.17576 0.0
O664 O 1.00101 0.6954 0.19441 0.0
O665 O 0.01236 0.68523 0.20529 0.0
O666 O 0.03132 0.6842 0.18449 0.0
O667 O 0.02 0.69452 0.17372 0.0
H668 H 0.02478 0.70022 0.21549 0.0
H669 H 0.02721 0.71624 0.22838 0.0
H670 H 0.99202 0.7256 0.22321 0.0
H671 H 0.98968 0.7097 0.21029 0.0
H672 H 0.96404 0.65607 0.18369 0.0
H673 H 0.97975 0.66947 0.18113 0.0
H674 H 0.9881 0.62838 0.18623 0.0
H675 H 1.00376 0.6418 0.18377 0.0
H676 H 0.0576 0.67038 0.15572 0.0
H677 H 0.04692 0.70282 0.14185 0.0
H678 H 0.03369 0.70506 0.15761 0.0
H679 H 0.04411 0.67252 0.17133 0.0
C680 C 0.31791 0.5227 0.70671 0.0
C681 C 0.31378 0.51183 0.70962 0.0
C682 C 0.30254 0.51979 0.72513 0.0
C683 C 0.30617 0.5104 0.71871 0.0
C684 C 0.30691 0.53059 0.72231 0.0
C685 C 0.31448 0.53201 0.71323 0.0
U686 U 0.34274 0.5163 0.68573 0.0
O687 O 0.34274 0.51793 0.66703 0.0
O688 O 0.35421 0.52845 0.67719 0.0
C689 C 0.35015 0.52629 0.66702 0.0
C690 C 0.3251 0.52478 0.69655 0.0
C691 C 0.3477 0.53615 0.65937 0.0
C692 C 0.34695 0.55657 0.65546 0.0
C693 C 0.34813 0.54745 0.66317 0.0
C694 C 0.34462 0.54332 0.64008 0.0
C695 C 0.3453 0.55464 0.64378 0.0
C696 C 0.34584 0.53422 0.64776 0.0
C697 C 0.36248 0.49004 0.69081 0.0
C698 C 0.38264 0.48632 0.6875 0.0
C699 C 0.36952 0.47059 0.68941 0.0
C700 C 0.36054 0.47826 0.69091 0.0
C701 C 0.38073 0.47449 0.68781 0.0
C702 C 0.37362 0.494 0.68897 0.0
C703 C 0.3529 0.49781 0.69351 0.0
O704 O 0.33563 0.52806 0.69839 0.0
O705 O 0.32422 0.51752 0.68817 0.0
O706 O 0.34406 0.49758 0.68667 0.0
O707 O 0.3555 0.50813 0.69683 0.0
H708 H 0.31628 0.50448 0.70476 0.0
H709 H 0.30311 0.50193 0.72071 0.0
H710 H 0.30423 0.53805 0.7269 0.0
H711 H 0.31746 0.54049 0.71111 0.0
H712 H 0.34737 0.56516 0.65867 0.0
H713 H 0.34958 0.54926 0.67205 0.0
H714 H 0.34352 0.54146 0.63116 0.0
H715 H 0.34561 0.52562 0.64456 0.0
H716 H 0.39112 0.48965 0.68615 0.0
H717 H 0.36771 0.46157 0.68986 0.0
H718 H 0.35207 0.47496 0.69242 0.0
H719 H 0.37541 0.50303 0.68884 0.0
C720 C 0.53253 0.87654 0.17808 0.0
C721 C 0.54122 0.87417 0.18596 0.0
C722 C 0.55075 0.89207 0.181 0.0
C723 C 0.55027 0.88186 0.18739 0.0
C724 C 0.54198 0.89432 0.17313 0.0
C725 C 0.53301 0.88666 0.17171 0.0
U726 U 0.5131 0.85042 0.18482 0.0
O727 O 0.4944 0.84948 0.18336 0.0
O728 O 0.50513 0.83869 0.17271 0.0
C729 C 0.49476 0.8422 0.17497 0.0
C730 C 0.52291 0.86869 0.17615 0.0
C731 C 0.48704 0.8445 0.1652 0.0
C732 C 0.48341 0.84696 0.14489 0.0
C733 C 0.49106 0.84573 0.154 0.0
C734 C 0.46762 0.84599 0.15801 0.0
C735 C 0.47156 0.84703 0.14676 0.0
C736 C 0.47525 0.84473 0.16708 0.0
C737 C 0.51875 0.83087 0.21117 0.0
C738 C 0.51625 0.81059 0.21504 0.0
C739 C 0.51693 0.82379 0.23064 0.0
C740 C 0.51832 0.83282 0.22291 0.0
C741 C 0.51599 0.81252 0.22684 0.0
C742 C 0.51759 0.81966 0.2073 0.0
C743 C 0.52119 0.84058 0.20335 0.0
O744 O 0.52547 0.85828 0.17309 0.0
O745 O 0.51453 0.86908 0.1835 0.0
O746 O 0.51399 0.84913 0.20352 0.0
O747 O 0.52474 0.83817 0.19306 0.0
H748 H 0.54101 0.86641 0.19098 0.0
H749 H 0.55679 0.87987 0.1936 0.0
H750 H 0.54213 0.90194 0.1679 0.0
H751 H 0.52642 0.88863 0.16554 0.0
H752 H 0.48678 0.84787 0.13638 0.0
H753 H 0.5001 0.84559 0.15226 0.0
H754 H 0.45858 0.84584 0.1598 0.0
H755 H 0.47191 0.84368 0.1756 0.0
H756 H 0.51541 0.80206 0.21178 0.0
H757 H 0.51694 0.82563 0.23963 0.0
H758 H 0.51929 0.84135 0.22615 0.0
H759 H 0.51788 0.81785 0.1983 0.0
C760 C 0.17218 0.99724 0.65982 0.0
C761 C 0.18295 0.99466 0.65533 0.0
C762 C 0.17488 0.97899 0.64443 0.0
C763 C 0.18428 0.98565 0.64771 0.0
C764 C 0.16418 0.9815 0.64913 0.0
C765 C 0.16285 0.99051 0.6567 0.0
U766 U 0.17881 0.0174 0.68505 0.0
O767 O 0.17773 0.03613 0.68549 0.0
O768 O 0.16678 0.02579 0.69658 0.0
C769 C 0.16927 0.03605 0.69279 0.0
C770 C 0.1702 1.00728 0.66712 0.0
C771 C 0.15963 0.04389 0.69033 0.0
C772 C 0.13936 0.04775 0.68774 0.0
C773 C 0.14838 0.04 0.68908 0.0
C774 C 0.15269 0.06338 0.6886 0.0
C775 C 0.14138 0.05957 0.68757 0.0
C776 C 0.16166 0.05564 0.68998 0.0
C777 C 0.20486 1.01062 0.70459 0.0
C778 C 0.21119 0.0211 0.7212 0.0
C779 C 0.22174 1.00461 0.71506 0.0
C780 C 0.21404 1.00315 0.70612 0.0
C781 C 0.22048 0.01362 0.72273 0.0
C782 C 0.20346 0.01962 0.7122 0.0
C783 C 0.19698 1.00868 0.69501 0.0
O784 O 0.16672 1.00521 0.67754 0.0
O785 O 0.17766 0.01559 0.66649 0.0
O786 O 0.19746 0.01599 0.6865 0.0
O787 O 0.18652 1.00571 0.69763 0.0
H788 H 0.19031 0.99969 0.65758 0.0
H789 H 0.19268 0.9839 0.64439 0.0
H790 H 0.15671 0.97669 0.64672 0.0
H791 H 0.15444 0.99237 0.65995 0.0
H792 H 0.13081 0.04448 0.68683 0.0
H793 H 0.14651 0.03098 0.68931 0.0
H794 H 0.1546 0.07238 0.68868 0.0
H795 H 0.17022 0.05888 0.69102 0.0
H796 H 0.20998 0.02819 0.72687 0.0
H797 H 0.22862 0.99854 0.71604 0.0
H798 H 0.21525 0.9961 0.70039 0.0
H799 H 0.19643 0.0255 0.71117 0.0
C800 C 0.81944 0.33128 0.02564 0.0
C801 C 0.82316 0.32045 0.02231 0.0
C802 C 0.80367 0.31316 0.02326 0.0
C803 C 0.81535 0.31149 0.02112 0.0
C804 C 0.8 0.32411 0.02631 0.0
C805 C 0.80779 0.33302 0.02749 0.0
U806 U 0.84571 0.35077 0.01967 0.0
O807 O 0.84703 0.36928 0.02191 0.0
O808 O 0.85788 0.35785 0.03204 0.0
C809 C 0.85449 0.36837 0.03021 0.0
C810 C 0.82745 0.34073 0.02798 0.0
C811 C 0.85261 0.37548 0.0404 0.0
C812 C 0.84067 0.38755 0.05221 0.0
C813 C 0.8419 0.38009 0.04305 0.0
C814 C 0.86075 0.38573 0.05637 0.0
C815 C 0.85011 0.39056 0.05895 0.0
C816 C 0.86197 0.37832 0.04722 0.0
C817 C 0.86452 0.34558 0.99288 0.0
C818 C 0.8842 0.35084 0.98886 0.0
C819 C 0.87196 0.34463 0.9736 0.0
C820 C 0.863 0.34326 0.98131 0.0
C821 C 0.88273 0.34836 0.97725 0.0
C822 C 0.87518 0.34948 0.99659 0.0
C823 C 0.85498 0.34326 1.00081 0.0
O824 O 0.83788 0.338 0.031 0.0
O825 O 0.82702 0.34956 0.02105 0.0
O826 O 0.84669 0.35075 1.00094 0.0
O827 O 0.85762 0.33933 1.01097 0.0
H828 H 0.83211 0.31884 0.02084 0.0
H829 H 0.81853 0.30318 0.01883 0.0
H830 H 0.79108 0.32581 0.02781 0.0
H831 H 0.80469 0.34128 0.03006 0.0
H832 H 0.83232 0.39098 0.05401 0.0
H833 H 0.8345 0.37806 0.03797 0.0
H834 H 0.86825 0.38793 0.06122 0.0
H835 H 0.87033 0.37497 0.04531 0.0
H836 H 0.8923 0.35386 0.99198 0.0
H837 H 0.8705 0.34245 0.96481 0.0
H838 H 0.85488 0.34017 0.97825 0.0
H839 H 0.87658 0.35135 1.00547 0.0
C840 C 0.81859 0.20297 0.51424 0.0
C841 C 0.82235 0.21433 0.51395 0.0
C842 C 0.80295 0.22117 0.5171 0.0
C843 C 0.81462 0.22331 0.51536 0.0
C844 C 0.79928 0.20978 0.51759 0.0
C845 C 0.80699 0.20083 0.51614 0.0
U846 U 0.84515 0.18363 0.51916 0.0
O847 O 0.84638 0.16496 0.5179 0.0
O848 O 0.8564 0.17585 0.50647 0.0
C849 C 0.8532 0.16543 0.50907 0.0
C850 C 0.82629 0.19328 0.51169 0.0
C851 C 0.85064 0.1576 0.49954 0.0
C852 C 0.84939 0.15347 0.47928 0.0
C853 C 0.85057 0.1613 0.48813 0.0
C854 C 0.84805 0.13814 0.49305 0.0
C855 C 0.84831 0.14174 0.48161 0.0
C856 C 0.84924 0.14595 0.50187 0.0
C857 C 0.86588 0.19054 0.54417 0.0
C858 C 0.87856 0.17851 0.55552 0.0
C859 C 0.88051 0.19897 0.55611 0.0
C860 C 0.87155 0.20013 0.54834 0.0
C861 C 0.88405 0.18816 0.55996 0.0
C862 C 0.86955 0.17969 0.54773 0.0
C863 C 0.85576 0.19227 0.53681 0.0
O864 O 0.83644 0.19569 0.50765 0.0
O865 O 0.82641 0.18481 0.51907 0.0
O866 O 0.84754 0.18474 0.53766 0.0
O867 O 0.85763 0.19564 0.5263 0.0
H868 H 0.83123 0.2163 0.51248 0.0
H869 H 0.81779 0.23195 0.51507 0.0
H870 H 0.79037 0.20777 0.51875 0.0
H871 H 0.80382 0.19218 0.51626 0.0
H872 H 0.84973 0.15658 0.4706 0.0
H873 H 0.8517 0.17021 0.486 0.0
H874 H 0.84703 0.12923 0.49522 0.0
H875 H 0.84932 0.14283 0.51056 0.0
H876 H 0.88099 0.17006 0.55833 0.0
H877 H 0.88464 0.20658 0.55914 0.0
H878 H 0.86888 0.20859 0.54573 0.0
H879 H 0.86531 0.17214 0.54466 0.0
C880 C 0.65217 0.3562 0.54025 0.0
C881 C 0.64735 0.34554 0.54284 0.0
C882 C 0.63626 0.35383 0.55827 0.0
C883 C 0.6395 0.34438 0.55176 0.0
C884 C 0.64135 0.3644 0.5558 0.0
C885 C 0.64917 0.36556 0.5469 0.0
U886 U 0.67786 0.3496 0.52039 0.0
O887 O 0.67862 0.35064 0.50167 0.0
O888 O 0.68945 0.36169 0.51196 0.0
C889 C 0.68588 0.35913 0.50171 0.0
C890 C 0.65965 0.35807 0.53023 0.0
C891 C 0.68354 0.36873 0.49373 0.0
C892 C 0.68084 0.38894 0.48961 0.0
C893 C 0.68195 0.37994 0.49747 0.0
C894 C 0.68261 0.37568 0.47416 0.0
C895 C 0.68132 0.38696 0.47783 0.0
C896 C 0.68373 0.36671 0.482 0.0
C897 C 0.6979 0.32405 0.52759 0.0
C898 C 0.711 0.31373 0.51538 0.0
C899 C 0.7118 0.31094 0.53576 0.0
C900 C 0.70292 0.31874 0.53707 0.0
C901 C 0.71589 0.30819 0.52489 0.0
C902 C 0.70207 0.32157 0.51672 0.0
C903 C 0.68804 0.33167 0.5294 0.0
O904 O 0.67002 0.36169 0.53229 0.0
O905 O 0.65923 0.3505 0.5221 0.0
O906 O 0.67961 0.33101 0.52209 0.0
O907 O 0.69035 0.34216 0.53237 0.0
H908 H 0.64947 0.33816 0.53785 0.0
H909 H 0.63571 0.33612 0.55333 0.0
H910 H 0.63927 0.37184 0.56073 0.0
H911 H 0.65274 0.37387 0.54508 0.0
H912 H 0.67995 0.3975 0.49279 0.0
H913 H 0.6818 0.38179 0.50646 0.0
H914 H 0.6828 0.37375 0.46519 0.0
H915 H 0.68496 0.35816 0.47888 0.0
H916 H 0.71387 0.3118 0.50688 0.0
H917 H 0.71546 0.30705 0.5433 0.0
H918 H 0.69987 0.32054 0.54555 0.0
H919 H 0.69834 0.32556 0.50926 0.0
C920 C 0.6536 0.1783 0.99841 0.0
C921 C 0.64772 0.18863 0.99683 0.0
C922 C 0.63783 0.18106 0.98024 0.0
C923 C 0.63993 0.18998 0.98786 0.0
C924 C 0.64392 0.17084 0.98173 0.0
C925 C 0.65166 0.16948 0.9907 0.0
U926 U 0.67936 0.184 0.01857 0.0
O927 O 0.68003 0.18267 0.03729 0.0
O928 O 0.69067 0.17153 0.02691 0.0
C929 C 0.6871 0.17401 0.03718 0.0
C930 C 0.66101 0.17611 1.00847 0.0
C931 C 0.68455 0.16436 0.04504 0.0
C932 C 0.68281 0.14403 0.04915 0.0
C933 C 0.68405 0.15304 0.04132 0.0
C934 C 0.68228 0.15748 0.06453 0.0
C935 C 0.68208 0.14611 0.0609 0.0
C936 C 0.68353 0.16645 0.05671 0.0
C937 C 0.69997 0.20917 0.01189 0.0
C938 C 0.71297 0.21933 0.02437 0.0
C939 C 0.7145 0.22172 1.00399 0.0
C940 C 0.70542 0.21417 1.00251 0.0
C941 C 0.71837 0.22449 0.01494 0.0
C942 C 0.70388 0.21174 0.02286 0.0
C943 C 0.68995 0.20181 1.00989 0.0
O944 O 0.67131 0.17227 1.00645 0.0
O945 O 0.66071 0.18353 0.01674 0.0
O946 O 0.6815 0.20256 0.01715 0.0
O947 O 0.69204 0.19132 1.00678 0.0
H948 H 0.64898 0.1956 1.00263 0.0
H949 H 0.63552 0.19802 0.98692 0.0
H950 H 0.64245 0.16371 0.97616 0.0
H951 H 0.65596 0.16138 0.99178 0.0
H952 H 0.68279 0.13541 0.04601 0.0
H953 H 0.68486 0.15109 0.03238 0.0
H954 H 0.68154 0.15947 0.07345 0.0
H955 H 0.68394 0.17507 0.05984 0.0
H956 H 0.71579 0.22113 0.03292 0.0
H957 H 0.71827 0.22562 0.99653 0.0
H958 H 0.70252 0.21239 0.99397 0.0
H959 H 0.69983 0.20797 0.03025 0.0
H960 H 0.02154 0.30745 0.79666 0.0
H961 H 0.02235 0.29363 0.78127 0.0
H962 H 0.9965 0.27353 0.7979 0.0
H963 H 0.9956 0.28728 0.81323 0.0
H964 H 0.01302 0.26011 0.79061 0.0
H965 H 0.99079 0.29056 0.77421 0.0
H966 H 0.98685 0.31033 0.76824 0.0
H967 H 0.01601 0.30993 0.74634 0.0
H968 H 0.02022 0.29019 0.7523 0.0
H969 H 0.9957 0.22416 0.74594 0.0
H970 H 0.99688 0.23831 0.7609 0.0
H971 H 0.02258 0.25643 0.74191 0.0
H972 H 0.02114 0.24248 0.72668 0.0
H973 H 1.0075 0.27103 0.75017 0.0
H974 H 0.02926 0.24033 0.76584 0.0
H975 H 0.03327 0.22056 0.77175 0.0
H976 H 1.00522 0.22143 0.79504 0.0
H977 H 1.00094 0.24117 0.78915 0.0
C978 C 0.01595 0.30015 0.797 0.0
C979 C 1.00852 0.29852 0.80626 0.0
C980 C 0.01643 0.29222 0.78818 0.0
C981 C 1.00943 0.28252 0.78833 0.0
C982 C 1.00204 0.28088 0.79757 0.0
C983 C 1.00156 0.28877 0.80638 0.0
C984 C 1.00982 0.274 0.77898 0.0
C985 C 0.01168 0.2625 0.78179 0.0
C986 C 1.00841 0.27708 0.76738 0.0
C987 C 1.00589 0.28894 0.7638 0.0
C988 C 0.99642 0.29472 0.76819 0.0
C989 C 0.99412 0.30591 0.7648 0.0
C990 C 1.00119 0.31139 0.75694 0.0
C991 C 1.01056 0.30568 0.75244 0.0
C992 C 0.0129 0.29449 0.75582 0.0
C993 C 1.00158 0.23117 0.74488 0.0
C994 C 1.00831 0.23213 0.73503 0.0
C995 C 1.00233 0.23922 0.75353 0.0
C996 C 1.00992 0.24843 0.75265 0.0
C997 C 0.01668 0.24941 0.74285 0.0
C998 C 0.01593 0.24135 0.73418 0.0
C999 C 1.01056 0.25712 0.76183 0.0
C1000 C 1.0089 0.26864 0.75899 0.0
C1001 C 0.01217 0.25407 0.7734 0.0
C1002 C 0.01472 0.2422 0.77697 0.0
C1003 C 0.02389 0.23628 0.77215 0.0
C1004 C 0.02623 0.22508 0.77551 0.0
C1005 C 0.01949 0.21973 0.78374 0.0
C1006 C 1.01042 0.22558 0.78865 0.0
C1007 C 1.00805 0.23678 0.78531 0.0
H1008 H 0.02131 0.21107 0.78634 0.0
H1009 H 0.9994 0.32006 0.75432 0.0
H1010 H 0.74654 0.51658 0.31744 0.0
H1011 H 0.76003 0.51738 0.30172 0.0
H1012 H 0.73226 0.51613 0.27779 0.0
H1013 H 0.7187 0.51486 0.29352 0.0
H1014 H 0.7485 0.50209 0.27145 0.0
H1015 H 0.74761 0.541 0.2828 0.0
H1016 H 0.74882 0.55702 0.29607 0.0
H1017 H 0.78345 0.54823 0.30384 0.0
H1018 H 0.78239 0.53205 0.29072 0.0
H1019 H 0.78092 0.51573 0.22251 0.0
H1020 H 0.76735 0.51683 0.23813 0.0
H1021 H 0.79497 0.51584 0.26225 0.0
H1022 H 0.80864 0.51458 0.24663 0.0
H1023 H 0.77877 0.53131 0.26836 0.0
H1024 H 0.77939 0.49218 0.25722 0.0
H1025 H 0.77814 0.4763 0.24377 0.0
H1026 H 0.74381 0.48577 0.23548 0.0
H1027 H 0.74491 0.50181 0.24877 0.0
C1028 C 0.74326 0.51642 0.30884 0.0
C1029 C 0.73147 0.51561 0.30681 0.0
C1030 C 0.75102 0.51702 0.29983 0.0
C1031 C 0.74721 0.51694 0.28851 0.0
C1032 C 0.73544 0.51623 0.28643 0.0
C1033 C 0.72767 0.51562 0.29545 0.0
C1034 C 0.75551 0.51721 0.27887 0.0
C1035 C 0.75499 0.5086 0.2707 0.0
C1036 C 0.76421 0.52552 0.27797 0.0
C1037 C 0.76488 0.53524 0.28586 0.0
C1038 C 0.75545 0.54243 0.2874 0.0
C1039 C 0.75612 0.55155 0.29489 0.0
C1040 C 0.76619 0.55362 0.30082 0.0
C1041 C 0.77564 0.5466 0.29925 0.0
C1042 C 0.77502 0.53746 0.29179 0.0
C1043 C 0.78414 0.51567 0.23113 0.0
C1044 C 0.79592 0.51493 0.23326 0.0
C1045 C 0.77635 0.51634 0.24008 0.0
C1046 C 0.78009 0.51625 0.25142 0.0
C1047 C 0.79185 0.51591 0.25359 0.0
C1048 C 0.79967 0.51523 0.24462 0.0
C1049 C 0.77171 0.51622 0.26096 0.0
C1050 C 0.77224 0.52484 0.26911 0.0
C1051 C 0.76299 0.50795 0.26185 0.0
C1052 C 0.76227 0.49826 0.25391 0.0
C1053 C 0.77161 0.49093 0.25247 0.0
C1054 C 0.77092 0.48189 0.24488 0.0
C1055 C 0.76091 0.48005 0.23875 0.0
C1056 C 0.75156 0.48722 0.24022 0.0
C1057 C 0.75221 0.49628 0.24779 0.0
H1058 H 0.7604 0.47305 0.23289 0.0
H1059 H 0.76669 0.56069 0.30661 0.0
H1060 H 0.49697 0.28929 0.72606 0.0
H1061 H 0.49785 0.27431 0.74056 0.0
H1062 H 0.5199 0.29514 0.76092 0.0
H1063 H 0.51902 0.31023 0.74645 0.0
H1064 H 0.52689 0.27315 0.76141 0.0
H1065 H 0.49171 0.29283 0.76719 0.0
H1066 H 0.4732 0.30104 0.7616 0.0
H1067 H 0.46123 0.26798 0.75212 0.0
H1068 H 0.47975 0.2596 0.75749 0.0
H1069 H 0.5187 0.24025 0.8126 0.0
H1070 H 0.51995 0.25548 0.79828 0.0
H1071 H 0.49673 0.23722 0.77674 0.0
H1072 H 0.49544 0.22204 0.79096 0.0
H1073 H 0.49065 0.25866 0.77748 0.0
H1074 H 0.52595 0.23899 0.77136 0.0
H1075 H 0.54453 0.2308 0.77677 0.0
H1076 H 0.55627 0.26373 0.78691 0.0
H1077 H 0.5377 0.2721 0.7817 0.0
C1078 C 0.50198 0.29073 0.73363 0.0
C1079 C 0.50783 0.30106 0.73509 0.0
C1080 C 0.50249 0.28213 0.74193 0.0
C1081 C 0.50879 0.28363 0.75196 0.0
C1082 C 0.51496 0.29376 0.75328 0.0
C1083 C 0.51447 0.30238 0.74496 0.0
C1084 C 0.50865 0.27476 0.76116 0.0
C1085 C 0.51897 0.27009 0.76503 0.0
C1086 C 0.49833 0.2706 0.7658 0.0
C1087 C 0.48715 0.2756 0.76265 0.0
C1088 C 0.48516 0.28732 0.76384 0.0
C1089 C 0.47467 0.292 0.76072 0.0
C1090 C 0.46606 0.28504 0.75648 0.0
C1091 C 0.46792 0.27337 0.75539 0.0
C1092 C 0.47841 0.26864 0.75848 0.0
C1093 C 0.51396 0.23942 0.80476 0.0
C1094 C 0.50692 0.22991 0.803 0.0
C1095 C 0.51468 0.24815 0.79656 0.0
C1096 C 0.50848 0.24752 0.78635 0.0
C1097 C 0.50155 0.23798 0.78454 0.0
C1098 C 0.5008 0.2293 0.79273 0.0
C1099 C 0.50889 0.25689 0.77764 0.0
C1100 C 0.49858 0.2617 0.77388 0.0
C1101 C 0.51923 0.26116 0.77312 0.0
C1102 C 0.5304 0.25615 0.77626 0.0
C1103 C 0.53246 0.24447 0.77483 0.0
C1104 C 0.543 0.2398 0.77785 0.0
C1105 C 0.55156 0.24673 0.78221 0.0
C1106 C 0.54962 0.25836 0.78355 0.0
C1107 C 0.5391 0.26308 0.78056 0.0
H1108 H 0.55972 0.2431 0.78454 0.0
H1109 H 0.45793 0.28868 0.75407 0.0
H1110 H 0.80586 1.00718 0.29592 0.0
H1111 H 0.79162 1.00537 0.28083 0.0
H1112 H 0.77219 0.03264 0.29544 0.0
H1113 H 0.78616 0.03426 0.3107 0.0
H1114 H 0.75838 0.01591 0.28913 0.0
H1115 H 0.78916 0.03673 0.27174 0.0
H1116 H 0.80901 0.04 0.26581 0.0
H1117 H 0.80817 1.00969 0.24583 0.0
H1118 H 0.78834 1.00615 0.25176 0.0
H1119 H 0.72264 0.03112 0.24268 0.0
H1120 H 0.73659 0.03057 0.25808 0.0
H1121 H 0.75481 1.00385 0.2411 0.0
H1122 H 0.74088 1.00437 0.22564 0.0
H1123 H 0.76936 0.01912 0.24857 0.0
H1124 H 0.73837 0.99865 0.26519 0.0
H1125 H 0.71853 0.99526 0.27108 0.0
H1126 H 0.71975 0.02454 0.29251 0.0
H1127 H 0.73956 0.02821 0.28663 0.0
C1128 C 0.79851 0.01273 0.29598 0.0
C1129 C 0.79725 0.02093 0.30452 0.0
C1130 C 0.79041 0.01175 0.28727 0.0
C1131 C 0.78086 0.01897 0.28687 0.0
C1132 C 0.77948 0.027 0.2955 0.0
C1133 C 0.78756 0.02799 0.30418 0.0
C1134 C 0.7723 0.01823 0.27748 0.0
C1135 C 0.76078 0.01673 0.28026 0.0
C1136 C 0.77541 0.01899 0.26587 0.0
C1137 C 0.78731 0.02111 0.26229 0.0
C1138 C 0.79324 0.03071 0.26615 0.0
C1139 C 0.80448 0.03262 0.26278 0.0
C1140 C 0.80986 0.02504 0.25548 0.0
C1141 C 0.80399 0.01554 0.25151 0.0
C1142 C 0.79276 0.01359 0.25486 0.0
C1143 C 0.72951 0.025 0.24228 0.0
C1144 C 0.73057 0.01776 0.23289 0.0
C1145 C 0.73752 0.0247 0.25112 0.0
C1146 C 0.74674 0.01708 0.25087 0.0
C1147 C 0.74781 1.00983 0.24152 0.0
C1148 C 0.73983 1.01015 0.23265 0.0
C1149 C 0.7554 0.01689 0.26021 0.0
C1150 C 0.76696 0.01822 0.25742 0.0
C1151 C 0.75232 0.01595 0.27182 0.0
C1152 C 0.74042 0.01376 0.27538 0.0
C1153 C 0.73438 1.00442 0.27109 0.0
C1154 C 0.72314 1.00244 0.27444 0.0
C1155 C 0.71787 1.0097 0.28214 0.0
C1156 C 0.72384 0.01894 0.28653 0.0
C1157 C 0.73507 0.02096 0.2832 0.0
H1158 H 0.70917 1.00815 0.28473 0.0
H1159 H 0.81856 0.02654 0.25287 0.0
H1160 H 0.23783 0.72259 0.03209 0.0
H1161 H 0.25205 0.73772 0.03299 0.0
H1162 H 0.23674 0.75418 1.00385 0.0
H1163 H 0.22267 0.73891 1.00271 0.0
H1164 H 0.25946 0.75388 1.00182 0.0
H1165 H 0.23307 0.76459 0.03073 0.0
H1166 H 0.22129 0.76195 0.04786 0.0
H1167 H 0.25124 0.75519 0.06774 0.0
H1168 H 0.2632 0.75763 0.05069 0.0
H1169 H 0.29035 0.80597 1.00731 0.0
H1170 H 0.27534 0.79163 1.00591 0.0
H1171 H 0.28879 0.77436 0.03551 0.0
H1172 H 0.30379 0.78862 0.03695 0.0
H1173 H 0.26644 0.77558 0.03703 0.0
H1174 H 0.29277 0.76427 1.00809 0.0
H1175 H 0.30462 0.76677 0.99098 0.0
H1176 H 0.27484 0.77455 0.97119 0.0
H1177 H 0.26283 0.77224 0.98823 0.0
C1178 C 0.2375 0.7294 0.02584 0.0
C1179 C 0.22905 0.7295 0.01734 0.0
C1180 C 0.24559 0.73812 0.02642 0.0
C1181 C 0.24544 0.7472 0.01856 0.0
C1182 C 0.23705 0.74731 1.01005 0.0
C1183 C 0.22892 0.73861 1.00947 0.0
C1184 C 0.25415 0.75645 0.0191 0.0
C1185 C 0.26086 0.75874 1.00947 0.0
C1186 C 0.2562 0.76267 0.02914 0.0
C1187 C 0.24902 0.76119 0.0394 0.0
C1188 C 0.23714 0.76245 0.03873 0.0
C1189 C 0.23043 0.761 0.04843 0.0
C1190 C 0.23551 0.75837 0.05887 0.0
C1191 C 0.24732 0.75721 0.05964 0.0
C1192 C 0.25407 0.75863 0.04996 0.0
C1193 C 0.29019 0.79907 0.01347 0.0
C1194 C 0.29831 0.79851 0.02226 0.0
C1195 C 0.28157 0.79085 0.01266 0.0
C1196 C 0.28093 0.78181 0.02055 0.0
C1197 C 0.28902 0.78126 0.02933 0.0
C1198 C 0.2976 0.78947 0.03016 0.0
C1199 C 0.27182 0.77297 0.01978 0.0
C1200 C 0.26502 0.77075 0.02936 0.0
C1201 C 0.26971 0.76681 1.00971 0.0
C1202 C 0.27692 0.76821 0.99946 0.0
C1203 C 0.28876 0.76661 1.00011 0.0
C1204 C 0.2955 0.76797 0.99042 0.0
C1205 C 0.29049 0.77085 0.98001 0.0
C1206 C 0.27872 0.77234 0.97926 0.0
C1207 C 0.27193 0.771 0.98893 0.0
H1208 H 0.29572 0.7719 0.97252 0.0
H1209 H 0.2303 0.75726 0.06637 0.0
H1210 H 0.28459 0.72318 0.50863 0.0
H1211 H 0.26964 0.73758 0.5095 0.0
H1212 H 0.29328 0.76114 0.52442 0.0
H1213 H 0.30832 0.74676 0.52357 0.0
H1214 H 0.27304 0.7626 0.53472 0.0
H1215 H 0.28594 0.76298 0.49615 0.0
H1216 H 0.29077 0.75472 0.47761 0.0
H1217 H 0.25627 0.74351 0.4735 0.0
H1218 H 0.25126 0.75157 0.4921 0.0
H1219 H 0.23887 0.81214 0.52465 0.0
H1220 H 0.25425 0.79809 0.52487 0.0
H1221 H 0.23187 0.7735 0.50969 0.0
H1222 H 0.21661 0.78757 0.50908 0.0
H1223 H 0.25194 0.773 0.49959 0.0
H1224 H 0.23912 0.77249 0.53834 0.0
H1225 H 0.23437 0.78077 0.55689 0.0
H1226 H 0.26879 0.79237 0.56062 0.0
H1227 H 0.27371 0.78429 0.54201 0.0
C1228 C 0.28665 0.73143 0.51206 0.0
C1229 C 0.29773 0.73379 0.51595 0.0
C1230 C 0.27806 0.73968 0.51256 0.0
C1231 C 0.28033 0.75055 0.51686 0.0
C1232 C 0.29129 0.75284 0.52105 0.0
C1233 C 0.29989 0.74457 0.52059 0.0
C1234 C 0.27134 0.75956 0.51679 0.0
C1235 C 0.26854 0.76497 0.527 0.0
C1236 C 0.26528 0.76258 0.50678 0.0
C1237 C 0.26825 0.75779 0.49557 0.0
C1238 C 0.2794 0.75868 0.49133 0.0
C1239 C 0.28217 0.75405 0.4808 0.0
C1240 C 0.27384 0.74857 0.47439 0.0
C1241 C 0.26271 0.74775 0.47848 0.0
C1242 C 0.2599 0.75235 0.48901 0.0
C1243 C 0.23723 0.80377 0.52129 0.0
C1244 C 0.22643 0.80102 0.5169 0.0
C1245 C 0.24602 0.79568 0.52153 0.0
C1246 C 0.24423 0.78464 0.51742 0.0
C1247 C 0.23349 0.78192 0.51296 0.0
C1248 C 0.22471 0.78997 0.51272 0.0
C1249 C 0.25355 0.77596 0.51754 0.0
C1250 C 0.25644 0.77063 0.50731 0.0
C1251 C 0.25969 0.77304 0.52753 0.0
C1252 C 0.25675 0.77789 0.53872 0.0
C1253 C 0.24565 0.77689 0.54307 0.0
C1254 C 0.24294 0.78153 0.55361 0.0
C1255 C 0.25127 0.78712 0.55992 0.0
C1256 C 0.26234 0.78806 0.55572 0.0
C1257 C 0.2651 0.78344 0.54518 0.0
H1258 H 0.24915 0.79071 0.56807 0.0
H1259 H 0.276 0.74499 0.46625 0.0
H1260 H 0.0222 0.79263 0.31121 0.0
H1261 H 0.02259 0.777 0.29763 0.0
H1262 H 1.00159 0.79657 0.27458 0.0
H1263 H 1.00084 0.81201 0.28823 0.0
H1264 H 0.99416 0.7754 0.2757 0.0
H1265 H 0.03071 0.79305 0.27044 0.0
H1266 H 0.04946 0.80026 0.27642 0.0
H1267 H 0.05894 0.76685 0.28805 0.0
H1268 H 0.04019 0.75946 0.28227 0.0
H1269 H 1.00096 0.74386 0.22547 0.0
H1270 H 1.00185 0.75888 0.2396 0.0
H1271 H 0.02229 0.73733 0.26134 0.0
H1272 H 0.02139 0.7222 0.24724 0.0
H1273 H 0.0302 0.75883 0.26152 0.0
H1274 H 0.9939 0.74109 0.26648 0.0
H1275 H 0.97521 0.73377 0.26048 0.0
H1276 H 0.96524 0.76728 0.24961 0.0
H1277 H 0.98395 0.77478 0.25539 0.0
C1278 C 0.0176 0.79359 0.30329 0.0
C1279 C 1.01155 0.80366 0.30084 0.0
C1280 C 0.01792 0.78467 0.29546 0.0
C1281 C 0.01223 0.78562 0.28497 0.0
C1282 C 1.0061 0.79561 0.28256 0.0
C1283 C 1.00578 0.80451 0.29036 0.0
C1284 C 0.01245 0.77617 0.27655 0.0
C1285 C 1.00206 0.7719 0.27251 0.0
C1286 C 0.02272 0.77131 0.27257 0.0
C1287 C 0.034 0.77573 0.27603 0.0
C1288 C 0.03676 0.78726 0.27436 0.0
C1289 C 0.0474 0.79138 0.27769 0.0
C1290 C 0.05537 0.78403 0.28264 0.0
C1291 C 0.05275 0.77254 0.28423 0.0
C1292 C 0.04212 0.76838 0.28092 0.0
C1293 C 1.00561 0.74226 0.23327 0.0
C1294 C 1.01102 0.73173 0.23521 0.0
C1295 C 1.00613 0.7509 0.24136 0.0
C1296 C 0.01198 0.74922 0.25166 0.0
C1297 C 0.0177 0.73886 0.25349 0.0
C1298 C 0.01721 0.73021 0.24538 0.0
C1299 C 0.01192 0.75819 0.26058 0.0
C1300 C 0.02231 0.76234 0.26474 0.0
C1301 C 1.00165 0.76294 0.26469 0.0
C1302 C 0.99037 0.75847 0.26127 0.0
C1303 C 0.98776 0.74688 0.26273 0.0
C1304 C 0.97715 0.7427 0.25938 0.0
C1305 C 0.96905 0.75005 0.25464 0.0
C1306 C 0.97153 0.7616 0.25327 0.0
C1307 C 0.98212 0.76582 0.25659 0.0
H1308 H 0.96084 0.7468 0.25206 0.0
H1309 H 0.0636 0.78723 0.28522 0.0
H1310 H 0.28358 0.50608 0.72566 0.0
H1311 H 0.2691 0.50464 0.74048 0.0
H1312 H 0.28721 0.52929 0.76042 0.0
H1313 H 0.30194 0.53049 0.7458 0.0
H1314 H 0.27933 0.51266 0.77387 0.0
H1315 H 0.26351 0.53669 0.74475 0.0
H1316 H 0.25768 0.54199 0.72528 0.0
H1317 H 0.23475 0.5136 0.72448 0.0
H1318 H 0.24057 0.50804 0.7439 0.0
H1319 H 0.23327 0.52588 0.81122 0.0
H1320 H 0.24866 0.52681 0.79725 0.0
H1321 H 0.23117 0.50233 0.77658 0.0
H1322 H 0.21583 0.5013 0.79049 0.0
H1323 H 0.23889 0.5192 0.76363 0.0
H1324 H 0.2548 0.49519 0.79286 0.0
H1325 H 0.26066 0.49004 0.81236 0.0
H1326 H 0.28338 0.51859 0.81303 0.0
H1327 H 0.27754 0.52401 0.79357 0.0
C1328 C 0.2846 0.51108 0.73326 0.0
C1329 C 0.29395 0.51846 0.73446 0.0
C1330 C 0.27622 0.51034 0.7417 0.0
C1331 C 0.27692 0.517 0.75153 0.0
C1332 C 0.28641 0.52411 0.75291 0.0
C1333 C 0.29479 0.52486 0.74447 0.0
C1334 C 0.26769 0.51668 0.76027 0.0
C1335 C 0.27051 0.51423 0.77164 0.0
C1336 C 0.25611 0.51854 0.7574 0.0
C1337 C 0.25256 0.52188 0.74574 0.0
C1338 C 0.25729 0.53153 0.74039 0.0
C1339 C 0.25397 0.53458 0.72937 0.0
C1340 C 0.24587 0.52812 0.72363 0.0
C1341 C 0.24104 0.51859 0.72893 0.0
C1342 C 0.24434 0.51549 0.73995 0.0
C1343 C 0.23274 0.52061 0.80376 0.0
C1344 C 0.22324 0.51353 0.80202 0.0
C1345 C 0.24156 0.52116 0.79575 0.0
C1346 C 0.24117 0.51457 0.78585 0.0
C1347 C 0.23169 0.50754 0.78409 0.0
C1348 C 0.22288 0.507 0.79207 0.0
C1349 C 0.25051 0.5151 0.77723 0.0
C1350 C 0.24771 0.51761 0.76587 0.0
C1351 C 0.26209 0.51333 0.78012 0.0
C1352 C 0.26564 0.51007 0.7918 0.0
C1353 C 0.26098 0.50042 0.7972 0.0
C1354 C 0.26431 0.49744 0.80824 0.0
C1355 C 0.27237 0.504 0.81394 0.0
C1356 C 0.27713 0.51353 0.8086 0.0
C1357 C 0.27382 0.51655 0.79757 0.0
H1358 H 0.27494 0.50168 0.82249 0.0
H1359 H 0.24331 0.5305 0.7151 0.0
H1360 H 0.52638 0.7916 0.22602 0.0
H1361 H 0.52561 0.77616 0.24005 0.0
H1362 H 0.50299 0.79604 0.26072 0.0
H1363 H 0.50373 0.81153 0.24671 0.0
H1364 H 0.51886 0.78671 0.27366 0.0
H1365 H 0.49353 0.77284 0.24517 0.0
H1366 H 0.48747 0.76751 0.22589 0.0
H1367 H 0.51419 0.74266 0.22448 0.0
H1368 H 0.52051 0.74795 0.2437 0.0
H1369 H 0.50574 0.74107 0.31195 0.0
H1370 H 0.50402 0.75626 0.29765 0.0
H1371 H 0.52721 0.73837 0.27582 0.0
H1372 H 0.52868 0.72302 0.28987 0.0
H1373 H 0.51 0.74683 0.26367 0.0
H1374 H 0.53577 0.76136 0.29182 0.0
H1375 H 0.54182 0.76673 0.3111 0.0
H1376 H 0.51406 0.79037 0.31311 0.0
H1377 H 0.50776 0.78503 0.29388 0.0
C1378 C 0.5211 0.79264 0.23346 0.0
C1379 C 0.5151 0.80285 0.23518 0.0
C1380 C 0.52067 0.78379 0.24151 0.0
C1381 C 0.51415 0.78484 0.25145 0.0
C1382 C 0.50811 0.79499 0.25317 0.0
C1383 C 0.50856 0.80387 0.24514 0.0
C1384 C 0.51388 0.7755 0.26019 0.0
C1385 C 0.51673 0.77803 0.27149 0.0
C1386 C 0.51134 0.76408 0.2574 0.0
C1387 C 0.50756 0.76087 0.24584 0.0
C1388 C 0.49817 0.7663 0.24071 0.0
C1389 C 0.49468 0.76328 0.2298 0.0
C1390 C 0.50046 0.75477 0.22395 0.0
C1391 C 0.50973 0.74925 0.22901 0.0
C1392 C 0.51326 0.75226 0.23992 0.0
C1393 C 0.51038 0.7403 0.30406 0.0
C1394 C 0.51743 0.73082 0.30215 0.0
C1395 C 0.50948 0.74906 0.29592 0.0
C1396 C 0.51561 0.74858 0.28568 0.0
C1397 C 0.52243 0.73901 0.28365 0.0
C1398 C 0.52334 0.73027 0.29177 0.0
C1399 C 0.51505 0.75804 0.2771 0.0
C1400 C 0.51206 0.75553 0.26584 0.0
C1401 C 0.51745 0.76948 0.27992 0.0
C1402 C 0.52123 0.77271 0.29147 0.0
C1403 C 0.53091 0.76764 0.29641 0.0
C1404 C 0.53439 0.77069 0.30732 0.0
C1405 C 0.52831 0.77886 0.31334 0.0
C1406 C 0.51875 0.78402 0.30844 0.0
C1407 C 0.51522 0.781 0.29754 0.0
H1408 H 0.53102 0.78121 0.32178 0.0
H1409 H 0.49774 0.75244 0.2155 0.0
H1410 H 0.30537 1.01059 0.79291 0.0
H1411 H 0.29168 0.01172 0.77727 0.0
H1412 H 0.26553 0.02208 0.80063 0.0
H1413 H 0.27918 0.02104 0.81629 0.0
H1414 H 0.25761 1.00604 0.78701 0.0
H1415 H 0.27789 0.04102 0.78161 0.0
H1416 H 0.29479 0.05317 0.77904 0.0
H1417 H 0.30325 0.0355 0.74846 0.0
H1418 H 0.28647 0.02313 0.75093 0.0
H1419 H 0.21632 0.01995 0.74482 0.0
H1420 H 0.22994 0.02141 0.76049 0.0
H1421 H 0.25712 0.01164 0.73805 0.0
H1422 H 0.24366 1.0106 0.72229 0.0
H1423 H 0.26427 0.02798 0.75145 0.0
H1424 H 0.24464 0.99257 0.75715 0.0
H1425 H 0.22794 0.98013 0.75967 0.0
H1426 H 0.2185 0.99833 0.78965 0.0
H1427 H 0.23507 1.01098 0.78721 0.0
C1428 C 0.29676 0.01328 0.79472 0.0
C1429 C 0.29342 0.0157 0.80592 0.0
C1430 C 0.2889 0.01391 0.78574 0.0
C1431 C 0.27754 0.01706 0.78771 0.0
C1432 C 0.27421 0.01958 0.79886 0.0
C1433 C 0.28205 0.01894 0.80783 0.0
C1434 C 0.26903 0.01741 0.77824 0.0
C1435 C 0.259 1.01099 0.77932 0.0
C1436 C 0.2709 0.02364 0.76803 0.0
C1437 C 0.28098 0.03108 0.76652 0.0
C1438 C 0.2834 0.03966 0.77438 0.0
C1439 C 0.29295 0.0466 0.77294 0.0
C1440 C 0.3001 0.04509 0.76361 0.0
C1441 C 0.29771 0.03665 0.75569 0.0
C1442 C 0.28817 0.02968 0.7571 0.0
C1443 C 0.22521 0.01826 0.74317 0.0
C1444 C 0.22882 0.01506 0.73226 0.0
C1445 C 0.233 0.01898 0.75219 0.0
C1446 C 0.24458 0.01644 0.75055 0.0
C1447 C 0.24825 0.01357 0.7396 0.0
C1448 C 0.24049 0.01288 0.73059 0.0
C1449 C 0.25287 0.01659 0.76022 0.0
C1450 C 0.26286 0.02308 0.75917 0.0
C1451 C 0.25099 1.0104 0.77044 0.0
C1452 C 0.24102 1.0028 0.77193 0.0
C1453 C 0.23895 0.99398 0.76423 0.0
C1454 C 0.22952 0.98688 0.76565 0.0
C1455 C 0.22214 0.98846 0.7748 0.0
C1456 C 0.22421 0.99713 0.78255 0.0
C1457 C 0.23362 1.00426 0.78116 0.0
H1458 H 0.21485 0.98295 0.77589 0.0
H1459 H 0.30749 0.05047 0.7625 0.0
H1460 H 0.73777 0.22714 1.00212 0.0
H1461 H 0.75246 0.24169 1.0038 0.0
H1462 H 0.7353 0.25546 0.03292 0.0
H1463 H 0.72032 0.24117 0.03105 0.0
H1464 H 0.74153 0.27215 0.01902 0.0
H1465 H 0.76034 0.23969 0.03533 0.0
H1466 H 0.76742 0.21996 0.03605 0.0
H1467 H 0.78813 0.22642 1.00668 0.0
H1468 H 0.78105 0.24616 1.0057 0.0
H1469 H 0.78567 0.30857 0.03741 0.0
H1470 H 0.77174 0.29327 0.03611 0.0
H1471 H 0.78879 0.28043 1.00649 0.0
H1472 H 0.80279 0.2958 1.0077 0.0
H1473 H 0.78276 0.26322 0.02051 0.0
H1474 H 0.76388 0.29561 1.00415 0.0
H1475 H 0.75684 0.31535 1.00343 0.0
H1476 H 0.73622 0.30896 0.03288 0.0
H1477 H 0.74326 0.28921 0.03387 0.0
C1478 C 0.73707 0.23328 1.00887 0.0
C1479 C 0.72779 0.23294 0.01644 0.0
C1480 C 0.74558 0.24155 1.0099 0.0
C1481 C 0.74511 0.24966 0.01856 0.0
C1482 C 0.73591 0.2493 0.02618 0.0
C1483 C 0.72738 0.24104 0.02516 0.0
C1484 C 0.75399 0.25873 0.01946 0.0
C1485 C 0.75053 0.27016 0.01952 0.0
C1486 C 0.7658 0.25623 0.0198 0.0
C1487 C 0.77008 0.24437 0.02038 0.0
C1488 C 0.76633 0.23688 0.02897 0.0
C1489 C 0.77036 0.22569 0.02944 0.0
C1490 C 0.7782 0.22193 0.0214 0.0
C1491 C 0.78205 0.22934 0.0129 0.0
C1492 C 0.77804 0.24053 0.01238 0.0
C1493 C 0.78643 0.30258 0.03053 0.0
C1494 C 0.79533 0.30355 0.02258 0.0
C1495 C 0.77844 0.29379 0.02982 0.0
C1496 C 0.77906 0.28575 0.0211 0.0
C1497 C 0.78808 0.28651 0.0133 0.0
C1498 C 0.79611 0.29532 0.01401 0.0
C1499 C 0.77027 0.27661 0.02012 0.0
C1500 C 0.77375 0.26518 0.02002 0.0
C1501 C 0.75847 0.2791 0.01975 0.0
C1502 C 0.75419 0.29096 0.01915 0.0
C1503 C 0.75791 0.29844 1.01052 0.0
C1504 C 0.75391 0.30963 1.01006 0.0
C1505 C 0.74611 0.31342 0.01812 0.0
C1506 C 0.74227 0.30602 0.02665 0.0
C1507 C 0.74626 0.29482 0.02716 0.0
H1508 H 0.74302 0.32208 0.01775 0.0
H1509 H 0.78131 0.21327 0.02178 0.0
H1510 H 0.71839 0.28804 0.53657 0.0
H1511 H 0.7336 0.27403 0.53502 0.0
H1512 H 0.74939 0.29423 0.50866 0.0
H1513 H 0.73415 0.30837 0.51019 0.0
H1514 H 0.74993 0.27211 0.50329 0.0
H1515 H 0.76004 0.29379 0.5359 0.0
H1516 H 0.75704 0.30281 0.55446 0.0
H1517 H 0.75069 0.27013 0.56975 0.0
H1518 H 0.7535 0.26092 0.55124 0.0
H1519 H 0.80221 0.24128 0.50497 0.0
H1520 H 0.78809 0.25651 0.50616 0.0
H1521 H 0.77037 0.23784 0.5324 0.0
H1522 H 0.78463 0.22272 0.53149 0.0
H1523 H 0.77152 0.25995 0.53758 0.0
H1524 H 0.76076 0.23842 0.50477 0.0
H1525 H 0.76377 0.22944 0.48618 0.0
H1526 H 0.77149 0.262 0.47127 0.0
H1527 H 0.76867 0.27115 0.48982 0.0
C1528 C 0.72514 0.2896 0.5305 0.0
C1529 C 0.72506 0.29945 0.5236 0.0
C1530 C 0.73386 0.28154 0.52961 0.0
C1531 C 0.7428 0.28313 0.52185 0.0
C1532 C 0.74262 0.2928 0.51474 0.0
C1533 C 0.73387 0.30088 0.51561 0.0
C1534 C 0.75229 0.27467 0.52122 0.0
C1535 C 0.75477 0.2696 0.51076 0.0
C1536 C 0.75851 0.27118 0.53099 0.0
C1537 C 0.75688 0.27668 0.54215 0.0
C1538 C 0.75792 0.28853 0.5432 0.0
C1539 C 0.75627 0.29368 0.55372 0.0
C1540 C 0.75365 0.28705 0.56328 0.0
C1541 C 0.75271 0.27525 0.56234 0.0
C1542 C 0.75434 0.27007 0.55184 0.0
C1543 C 0.7954 0.24046 0.5111 0.0
C1544 C 0.79457 0.23071 0.5181 0.0
C1545 C 0.78724 0.24914 0.51169 0.0
C1546 C 0.77804 0.24829 0.51926 0.0
C1547 C 0.77734 0.2387 0.52644 0.0
C1548 C 0.78547 0.23 0.52585 0.0
C1549 C 0.76908 0.25732 0.51967 0.0
C1550 C 0.76672 0.26251 0.5301 0.0
C1551 C 0.76298 0.26093 0.50988 0.0
C1552 C 0.76462 0.25545 0.49871 0.0
C1553 C 0.76319 0.24365 0.49755 0.0
C1554 C 0.76484 0.23854 0.48702 0.0
C1555 C 0.76785 0.24514 0.47756 0.0
C1556 C 0.76917 0.25689 0.47861 0.0
C1557 C 0.76754 0.26205 0.48913 0.0
H1558 H 0.76913 0.24117 0.46941 0.0
H1559 H 0.75237 0.29105 0.57141 0.0
H1560 H 0.12033 0.05853 0.69772 0.0
H1561 H 0.10508 0.07267 0.69701 0.0
H1562 H 0.12539 0.0938 0.67482 0.0
H1563 H 0.14066 0.07969 0.67547 0.0
H1564 H 0.11641 0.10628 0.69103 0.0
H1565 H 0.10191 0.07861 0.66513 0.0
H1566 H 0.09605 0.05954 0.65892 0.0
H1567 H 0.07095 0.05815 0.68535 0.0
H1568 H 0.07677 0.07717 0.69182 0.0
H1569 H 0.07356 0.14607 0.67596 0.0
H1570 H 0.08782 0.13097 0.67511 0.0
H1571 H 0.06753 0.11019 0.69764 0.0
H1572 H 0.05321 0.12526 0.69852 0.0
H1573 H 0.07636 0.09743 0.68117 0.0
H1574 H 0.09103 0.12485 0.70725 0.0
H1575 H 0.09684 0.14391 0.71355 0.0
H1576 H 0.12165 0.14566 0.68687 0.0
H1577 H 0.11588 0.12666 0.68031 0.0
C1578 C 0.1215 0.06609 0.69254 0.0
C1579 C 0.13178 0.06792 0.68666 0.0
C1580 C 0.11275 0.07421 0.69215 0.0
C1581 C 0.11399 0.08432 0.68579 0.0
C1582 C 0.1242 0.08611 0.67983 0.0
C1583 C 0.13296 0.07802 0.68024 0.0
C1584 C 0.10486 0.09319 0.68564 0.0
C1585 C 0.10769 0.10436 0.6887 0.0
C1586 C 0.09338 0.0907 0.6829 0.0
C1587 C 0.08985 0.07927 0.67903 0.0
C1588 C 0.0952 0.0742 0.66967 0.0
C1589 C 0.09188 0.06341 0.6661 0.0
C1590 C 0.08316 0.05762 0.67176 0.0
C1591 C 0.07772 0.06263 0.68099 0.0
C1592 C 0.08102 0.07343 0.6846 0.0
C1593 C 0.07213 0.13831 0.68078 0.0
C1594 C 0.06223 0.13696 0.68739 0.0
C1595 C 0.08031 0.12966 0.68028 0.0
C1596 C 0.07889 0.11946 0.68646 0.0
C1597 C 0.06887 0.11795 0.69279 0.0
C1598 C 0.06065 0.12659 0.69327 0.0
C1599 C 0.08794 0.11051 0.6865 0.0
C1600 C 0.08509 0.09934 0.68346 0.0
C1601 C 0.09941 0.11298 0.68927 0.0
C1602 C 0.10295 0.12438 0.69323 0.0
C1603 C 0.09767 0.12933 0.70268 0.0
C1604 C 0.10096 0.14012 0.7063 0.0
C1605 C 0.10959 0.14601 0.70059 0.0
C1606 C 0.11496 0.1411 0.69127 0.0
C1607 C 0.11169 0.13032 0.6876 0.0
H1608 H 0.11213 0.15436 0.70341 0.0
H1609 H 0.08059 0.04926 0.66898 0.0
H1610 H 0.97307 0.62215 0.19892 0.0
H1611 H 0.9578 0.60806 0.19954 0.0
H1612 H 0.93943 0.62692 0.17381 0.0
H1613 H 0.95466 0.64106 0.17315 0.0
H1614 H 0.92515 0.61969 0.18978 0.0
H1615 H 0.95455 0.6024 0.16761 0.0
H1616 H 0.974 0.5957 0.1636 0.0
H1617 H 0.97246 0.57303 0.19238 0.0
H1618 H 0.95305 0.57971 0.19666 0.0
H1619 H 0.88583 0.57647 0.17501 0.0
H1620 H 0.90115 0.5905 0.17446 0.0
H1621 H 0.91934 0.57157 0.20027 0.0
H1622 H 0.90404 0.55749 0.20087 0.0
H1623 H 0.93373 0.57881 0.18433 0.0
H1624 H 0.90429 0.59609 0.20646 0.0
H1625 H 0.88484 0.60282 0.21046 0.0
H1626 H 0.88645 0.62554 0.18171 0.0
H1627 H 0.90586 0.61883 0.17745 0.0
C1628 C 0.96581 0.62329 0.19334 0.0
C1629 C 0.96517 0.63275 0.18594 0.0
C1630 C 0.95706 0.6152 0.19371 0.0
C1631 C 0.94749 0.61628 0.18659 0.0
C1632 C 0.9467 0.62585 0.17938 0.0
C1633 C 0.95542 0.63397 0.17904 0.0
C1634 C 0.93835 0.60743 0.18662 0.0
C1635 C 0.92702 0.61078 0.18843 0.0
C1636 C 0.94075 0.59573 0.18512 0.0
C1637 C 0.95239 0.59163 0.18251 0.0
C1638 C 0.95839 0.59604 0.17313 0.0
C1639 C 0.9694 0.59224 0.1708 0.0
C1640 C 0.97448 0.58397 0.17775 0.0
C1641 C 0.96853 0.57945 0.18702 0.0
C1642 C 0.95752 0.58323 0.18939 0.0
C1643 C 0.89305 0.5753 0.18062 0.0
C1644 C 0.89362 0.56584 0.18804 0.0
C1645 C 0.90184 0.58336 0.18029 0.0
C1646 C 0.91137 0.58224 0.18745 0.0
C1647 C 0.91209 0.57266 0.19466 0.0
C1648 C 0.90333 0.56458 0.19497 0.0
C1649 C 0.92052 0.59107 0.18748 0.0
C1650 C 0.93185 0.58773 0.18567 0.0
C1651 C 0.91812 0.60278 0.18898 0.0
C1652 C 0.90649 0.60688 0.19157 0.0
C1653 C 0.90047 0.60247 0.20094 0.0
C1654 C 0.88946 0.60628 0.20326 0.0
C1655 C 0.8844 0.61458 0.19633 0.0
C1656 C 0.89037 0.6191 0.18707 0.0
C1657 C 0.90138 0.6153 0.1847 0.0
H1658 H 0.87588 0.61752 0.19814 0.0
H1659 H 0.98301 0.58104 0.17594 0.0
H1660 H 0.45074 0.39018 0.67402 0.0
H1661 H 0.4353 0.40409 0.6749 0.0
H1662 H 0.45636 0.426 0.69517 0.0
H1663 H 0.47173 0.41198 0.69462 0.0
H1664 H 0.4351 0.42558 0.70331 0.0
H1665 H 0.45212 0.43116 0.66668 0.0
H1666 H 0.45907 0.42541 0.64784 0.0
H1667 H 0.42543 0.41466 0.63864 0.0
H1668 H 0.41831 0.4202 0.65749 0.0
H1669 H 0.40218 0.47594 0.69708 0.0
H1670 H 0.41763 0.46205 0.69615 0.0
H1671 H 0.39659 0.44019 0.67581 0.0
H1672 H 0.38121 0.4542 0.6764 0.0
H1673 H 0.41784 0.44058 0.6677 0.0
H1674 H 0.4008 0.43497 0.70431 0.0
H1675 H 0.39383 0.44071 0.72315 0.0
H1676 H 0.42746 0.45148 0.73239 0.0
H1677 H 0.43461 0.44596 0.71354 0.0
C1678 C 0.45206 0.39788 0.6788 0.0
C1679 C 0.46255 0.39994 0.68421 0.0
C1680 C 0.44324 0.40591 0.67919 0.0
C1681 C 0.44468 0.41622 0.68496 0.0
C1682 C 0.45503 0.41816 0.69061 0.0
C1683 C 0.46386 0.41016 0.6902 0.0
C1684 C 0.43546 0.425 0.68504 0.0
C1685 C 0.43144 0.42896 0.69551 0.0
C1686 C 0.43046 0.42928 0.6749 0.0
C1687 C 0.43471 0.42599 0.66354 0.0
C1688 C 0.44622 0.42749 0.66067 0.0
C1689 C 0.45019 0.42428 0.64998 0.0
C1690 C 0.4427 0.41965 0.64206 0.0
C1691 C 0.43122 0.41824 0.64479 0.0
C1692 C 0.42721 0.42142 0.65547 0.0
C1693 C 0.40086 0.46826 0.69227 0.0
C1694 C 0.39038 0.46621 0.68685 0.0
C1695 C 0.40969 0.46024 0.69185 0.0
C1696 C 0.40826 0.44995 0.68605 0.0
C1697 C 0.39792 0.44801 0.68039 0.0
C1698 C 0.38908 0.45601 0.68082 0.0
C1699 C 0.41747 0.44117 0.68597 0.0
C1700 C 0.4215 0.4372 0.6755 0.0
C1701 C 0.42247 0.43688 0.69612 0.0
C1702 C 0.41821 0.44016 0.70747 0.0
C1703 C 0.4067 0.43865 0.71033 0.0
C1704 C 0.40272 0.44184 0.72101 0.0
C1705 C 0.41019 0.44648 0.72895 0.0
C1706 C 0.42168 0.4479 0.72623 0.0
C1707 C 0.4257 0.44473 0.71555 0.0
H1708 H 0.4071 0.44895 0.73722 0.0
H1709 H 0.44579 0.41717 0.63379 0.0
H1710 H 0.62063 0.97765 0.18516 0.0
H1711 H 0.60502 0.96398 0.18369 0.0
H1712 H 0.62886 0.93631 0.1874 0.0
H1713 H 0.64453 0.94988 0.18844 0.0
H1714 H 0.61366 0.93127 0.1717 0.0
H1715 H 0.61192 0.94541 0.20977 0.0
H1716 H 0.61074 0.96011 0.22449 0.0
H1717 H 0.57867 0.9714 0.21096 0.0
H1718 H 0.57973 0.95685 0.19605 0.0
H1719 H 0.57357 0.88759 0.18422 0.0
H1720 H 0.58921 0.90123 0.18566 0.0
H1721 H 0.56541 0.92895 0.18195 0.0
H1722 H 0.54972 0.91541 0.18094 0.0
H1723 H 0.5806 0.93396 0.19766 0.0
H1724 H 0.58236 0.9198 0.15958 0.0
H1725 H 0.58355 0.9051 0.14485 0.0
H1726 H 0.61562 0.89384 0.1584 0.0
H1727 H 0.61454 0.90838 0.17332 0.0
C1728 C 0.62259 0.96866 0.18551 0.0
C1729 C 0.63388 0.96492 0.18701 0.0
C1730 C 0.61362 0.96083 0.1848 0.0
C1731 C 0.61569 0.94907 0.18563 0.0
C1732 C 0.62698 0.94531 0.18681 0.0
C1733 C 0.63595 0.95312 0.18751 0.0
C1734 C 0.60614 0.94066 0.18537 0.0
C1735 C 0.60651 0.93179 0.17748 0.0
C1736 C 0.59665 0.9414 0.19274 0.0
C1737 C 0.59596 0.95011 0.20173 0.0
C1738 C 0.60466 0.95108 0.20988 0.0
C1739 C 0.604 0.95938 0.21827 0.0
C1740 C 0.59465 0.9667 0.21864 0.0
C1741 C 0.58592 0.96573 0.21065 0.0
C1742 C 0.58654 0.95745 0.20224 0.0
C1743 C 0.57163 0.89659 0.18386 0.0
C1744 C 0.56034 0.90035 0.18237 0.0
C1745 C 0.58062 0.9044 0.18455 0.0
C1746 C 0.57856 0.91617 0.18372 0.0
C1747 C 0.56728 0.91994 0.18254 0.0
C1748 C 0.5583 0.91215 0.18186 0.0
C1749 C 0.58812 0.92456 0.18398 0.0
C1750 C 0.58776 0.93343 0.19188 0.0
C1751 C 0.59762 0.92382 0.17662 0.0
C1752 C 0.59831 0.9151 0.16763 0.0
C1753 C 0.58962 0.91413 0.15947 0.0
C1754 C 0.59029 0.90584 0.15108 0.0
C1755 C 0.59964 0.89852 0.15071 0.0
C1756 C 0.60837 0.8995 0.15871 0.0
C1757 C 0.60774 0.90777 0.16713 0.0
H1758 H 0.60014 0.89211 0.14421 0.0
H1759 H 0.59416 0.97312 0.22514 0.0
H1760 H 0.077 0.38531 0.84869 0.0
H1761 H 0.09056 0.40094 0.84995 0.0
H1762 H 0.0629 0.42463 0.85408 0.0
H1763 H 0.04921 0.40903 0.85243 0.0
H1764 H 0.07806 0.43295 0.83935 0.0
H1765 H 0.08014 0.41637 0.87665 0.0
H1766 H 0.08258 0.40096 0.89081 0.0
H1767 H 0.11632 0.39464 0.87846 0.0
H1768 H 0.11403 0.40992 0.86411 0.0
H1769 H 0.11156 0.47989 0.8569 0.0
H1770 H 0.09796 0.46429 0.8557 0.0
H1771 H 0.12557 0.4405 0.85182 0.0
H1772 H 0.13929 0.45606 0.85346 0.0
H1773 H 0.11041 0.43224 0.86645 0.0
H1774 H 0.10834 0.44876 0.82913 0.0
H1775 H 0.10594 0.46414 0.81493 0.0
H1776 H 0.07221 0.47055 0.82727 0.0
H1777 H 0.07446 0.4553 0.84164 0.0
C1778 C 0.07375 0.39384 0.8498 0.0
C1779 C 0.06195 0.39586 0.85042 0.0
C1780 C 0.08156 0.40279 0.85065 0.0
C1781 C 0.07781 0.41401 0.85223 0.0
C1782 C 0.06604 0.41607 0.85289 0.0
C1783 C 0.05821 0.40711 0.85205 0.0
C1784 C 0.08615 0.42359 0.85294 0.0
C1785 C 0.08503 0.43286 0.8454 0.0
C1786 C 0.09547 0.4234 0.86061 0.0
C1787 C 0.09687 0.41422 0.86924 0.0
C1788 C 0.08805 0.41163 0.87689 0.0
C1789 C 0.08941 0.40293 0.88496 0.0
C1790 C 0.09958 0.3968 0.88551 0.0
C1791 C 0.10843 0.39938 0.87801 0.0
C1792 C 0.10712 0.40807 0.86992 0.0
C1793 C 0.11478 0.47135 0.85586 0.0
C1794 C 0.12658 0.46929 0.85531 0.0
C1795 C 0.10696 0.46241 0.85505 0.0
C1796 C 0.11068 0.45117 0.85354 0.0
C1797 C 0.12244 0.44908 0.85295 0.0
C1798 C 0.1303 0.45802 0.85378 0.0
C1799 C 0.10232 0.44161 0.85285 0.0
C1800 C 0.10344 0.43233 0.8604 0.0
C1801 C 0.093 0.44179 0.84518 0.0
C1802 C 0.09162 0.45096 0.83653 0.0
C1803 C 0.10045 0.45351 0.82887 0.0
C1804 C 0.0991 0.46219 0.82078 0.0
C1805 C 0.08894 0.46834 0.82022 0.0
C1806 C 0.08008 0.4658 0.82772 0.0
C1807 C 0.08138 0.45712 0.83584 0.0
H1808 H 0.08792 0.47506 0.81395 0.0
H1809 H 0.10062 0.39007 0.89177 0.0
H1810 H 0.55093 0.61937 0.3484 0.0
H1811 H 0.56648 0.60561 0.34763 0.0
H1812 H 0.58983 0.63099 0.3598 0.0
H1813 H 0.57428 0.64481 0.36064 0.0
H1814 H 0.5994 0.61905 0.3431 0.0
H1815 H 0.57945 0.60991 0.37747 0.0
H1816 H 0.5627 0.60516 0.38917 0.0
H1817 H 0.55736 0.57486 0.36987 0.0
H1818 H 0.57399 0.57951 0.35794 0.0
H1819 H 0.6446 0.58178 0.35807 0.0
H1820 H 0.62899 0.59546 0.35891 0.0
H1821 H 0.60576 0.57006 0.34658 0.0
H1822 H 0.62137 0.55631 0.34566 0.0
H1823 H 0.59612 0.58199 0.36335 0.0
H1824 H 0.61611 0.59117 0.32898 0.0
H1825 H 0.6329 0.59593 0.31734 0.0
H1826 H 0.63818 0.6262 0.33671 0.0
H1827 H 0.62151 0.62153 0.34858 0.0
C1828 C 0.55935 0.62204 0.35098 0.0
C1829 C 0.56128 0.63323 0.35467 0.0
C1830 C 0.56826 0.61413 0.35053 0.0
C1831 C 0.57934 0.61716 0.35382 0.0
C1832 C 0.58137 0.6284 0.35722 0.0
C1833 C 0.57246 0.63633 0.35766 0.0
C1834 C 0.58877 0.6086 0.35381 0.0
C1835 C 0.59872 0.61101 0.34766 0.0
C1836 C 0.58786 0.59798 0.35954 0.0
C1837 C 0.5779 0.59512 0.36674 0.0
C1838 C 0.57465 0.60227 0.37567 0.0
C1839 C 0.56519 0.5996 0.38235 0.0
C1840 C 0.55895 0.58973 0.38025 0.0
C1841 C 0.56219 0.58251 0.37148 0.0
C1842 C 0.57164 0.58515 0.36476 0.0
C1843 C 0.63619 0.57909 0.35547 0.0
C1844 C 0.63431 0.56792 0.3517 0.0
C1845 C 0.62725 0.58695 0.35597 0.0
C1846 C 0.61618 0.58389 0.35263 0.0
C1847 C 0.6142 0.57266 0.34918 0.0
C1848 C 0.62315 0.56478 0.3487 0.0
C1849 C 0.60674 0.59244 0.35264 0.0
C1850 C 0.59678 0.59002 0.35879 0.0
C1851 C 0.60765 0.60306 0.34691 0.0
C1852 C 0.61762 0.60594 0.33974 0.0
C1853 C 0.6209 0.5988 0.33081 0.0
C1854 C 0.63039 0.60148 0.32416 0.0
C1855 C 0.63662 0.61135 0.3263 0.0
C1856 C 0.63335 0.61856 0.33507 0.0
C1857 C 0.62388 0.6159 0.34176 0.0
H1858 H 0.64396 0.61341 0.32115 0.0
H1859 H 0.55162 0.58767 0.38543 0.0
H1860 H 0.47455 0.11773 0.85045 0.0
H1861 H 0.45894 0.10408 0.84949 0.0
H1862 H 0.43504 0.13058 0.85766 0.0
H1863 H 0.45068 0.14422 0.85904 0.0
H1864 H 0.43043 0.11192 0.86971 0.0
H1865 H 0.43753 0.11993 0.83036 0.0
H1866 H 0.44906 0.12181 0.81297 0.0
H1867 H 0.45785 0.08642 0.81509 0.0
H1868 H 0.44649 0.08435 0.83259 0.0
H1869 H 0.38003 0.08181 0.85543 0.0
H1870 H 0.39571 0.09536 0.85642 0.0
H1871 H 0.41948 0.06872 0.84835 0.0
H1872 H 0.40376 0.05516 0.84695 0.0
H1873 H 0.4242 0.08739 0.83627 0.0
H1874 H 0.41703 0.07938 0.8756 0.0
H1875 H 0.40547 0.07752 0.89298 0.0
H1876 H 0.39679 0.11294 0.89087 0.0
H1877 H 0.40817 0.11499 0.87339 0.0
C1878 C 0.46599 0.12067 0.8521 0.0
C1879 C 0.46393 0.13212 0.85484 0.0
C1880 C 0.45703 0.11285 0.85143 0.0
C1881 C 0.44574 0.11627 0.85338 0.0
C1882 C 0.44365 0.1277 0.85608 0.0
C1883 C 0.45261 0.13553 0.85676 0.0
C1884 C 0.43619 0.10789 0.85288 0.0
C1885 C 0.42898 0.10668 0.86232 0.0
C1886 C 0.43441 0.1008 0.84337 0.0
C1887 C 0.44125 0.10201 0.83285 0.0
C1888 C 0.442 0.11257 0.82717 0.0
C1889 C 0.44849 0.11366 0.81728 0.0
C1890 C 0.45421 0.10425 0.81294 0.0
C1891 C 0.45343 0.09371 0.81847 0.0
C1892 C 0.44696 0.09256 0.82837 0.0
C1893 C 0.38858 0.07881 0.85381 0.0
C1894 C 0.39057 0.06734 0.85109 0.0
C1895 C 0.39758 0.08658 0.85449 0.0
C1896 C 0.40885 0.08309 0.85257 0.0
C1897 C 0.41089 0.07165 0.8499 0.0
C1898 C 0.40188 0.06386 0.84921 0.0
C1899 C 0.41844 0.09143 0.8531 0.0
C1900 C 0.42566 0.09263 0.84366 0.0
C1901 C 0.42022 0.09851 0.86261 0.0
C1902 C 0.41337 0.09731 0.87312 0.0
C1903 C 0.41258 0.08675 0.87879 0.0
C1904 C 0.40608 0.08567 0.88867 0.0
C1905 C 0.40038 0.0951 0.89301 0.0
C1906 C 0.40119 0.10564 0.88749 0.0
C1907 C 0.40768 0.10677 0.8776 0.0
H1908 H 0.39535 0.09424 0.90066 0.0
H1909 H 0.45923 0.10511 0.80528 0.0
H1910 H 0.90577 0.97741 0.33917 0.0
H1911 H 0.92113 0.96339 0.33986 0.0
H1912 H 0.90118 0.94227 0.36237 0.0
H1913 H 0.88592 0.95642 0.362 0.0
H1914 H 0.92291 0.94269 0.36924 0.0
H1915 H 0.90361 0.93631 0.33393 0.0
H1916 H 0.89559 0.94164 0.31526 0.0
H1917 H 0.92871 0.95179 0.30365 0.0
H1918 H 0.93691 0.94666 0.32232 0.0
H1919 H 0.95512 0.89193 0.36366 0.0
H1920 H 0.93971 0.90589 0.36295 0.0
H1921 H 0.95947 0.92694 0.3402 0.0
H1922 H 0.97478 0.91284 0.34057 0.0
H1923 H 0.93782 0.92654 0.33346 0.0
H1924 H 0.95713 0.93301 0.3687 0.0
H1925 H 0.96521 0.92776 0.38737 0.0
H1926 H 0.93215 0.91756 0.39909 0.0
H1927 H 0.92389 0.92261 0.38043 0.0
C1928 C 0.90469 0.96987 0.34439 0.0
C1929 C 0.89454 0.96807 0.35049 0.0
C1930 C 0.91345 0.96177 0.34468 0.0
C1931 C 0.91229 0.95164 0.35103 0.0
C1932 C 0.90229 0.94996 0.35735 0.0
C1933 C 0.89352 0.95804 0.35706 0.0
C1934 C 0.92142 0.94278 0.35101 0.0
C1935 C 0.92605 0.93906 0.36141 0.0
C1936 C 0.92575 0.93817 0.34081 0.0
C1937 C 0.92085 0.9412 0.32956 0.0
C1938 C 0.90917 0.93976 0.32742 0.0
C1939 C 0.90459 0.94273 0.31684 0.0
C1940 C 0.91163 0.94708 0.30828 0.0
C1941 C 0.92326 0.94843 0.31029 0.0
C1942 C 0.92789 0.94549 0.32087 0.0
C1943 C 0.95615 0.89945 0.35838 0.0
C1944 C 0.96627 0.90124 0.35222 0.0
C1945 C 0.94736 0.90751 0.35808 0.0
C1946 C 0.94846 0.9176 0.35166 0.0
C1947 C 0.95841 0.91928 0.34527 0.0
C1948 C 0.96721 0.91123 0.34557 0.0
C1949 C 0.9393 0.92645 0.35169 0.0
C1950 C 0.93467 0.93017 0.34128 0.0
C1951 C 0.93498 0.93107 0.36189 0.0
C1952 C 0.93991 0.92808 0.37313 0.0
C1953 C 0.9516 0.92957 0.37523 0.0
C1954 C 0.95621 0.92664 0.38582 0.0
C1955 C 0.94921 0.9223 0.3944 0.0
C1956 C 0.93757 0.92091 0.39243 0.0
C1957 C 0.93291 0.92381 0.38185 0.0
H1958 H 0.95279 0.92004 0.40259 0.0
H1959 H 0.90806 0.94938 0.30009 0.0
H1960 H 0.6668 0.05497 0.12213 0.0
H1961 H 0.66777 0.0706 0.10837 0.0
H1962 H 0.68979 0.08911 0.1309 0.0
H1963 H 0.68895 0.07342 0.14471 0.0
H1964 H 0.67386 0.10295 0.12196 0.0
H1965 H 0.70029 0.07585 0.10722 0.0
H1966 H 0.70672 0.05708 0.10068 0.0
H1967 H 0.68138 0.05768 0.07437 0.0
H1968 H 0.67469 0.07641 0.08085 0.0
H1969 H 0.69251 0.14442 0.08176 0.0
H1970 H 0.6915 0.12885 0.09558 0.0
H1971 H 0.66947 0.11027 0.07313 0.0
H1972 H 0.67035 0.12589 0.05924 0.0
H1973 H 0.68544 0.09648 0.08205 0.0
H1974 H 0.65901 0.12359 0.09681 0.0
H1975 H 0.65262 0.14238 0.10335 0.0
H1976 H 0.678 0.14176 0.12962 0.0
H1977 H 0.68465 0.12302 0.12314 0.0
C1978 C 0.67198 0.06228 0.12413 0.0
C1979 C 0.67788 0.06283 0.13455 0.0
C1980 C 0.6725 0.07126 0.11624 0.0
C1981 C 0.67898 0.08102 0.11848 0.0
C1982 C 0.68474 0.08169 0.12893 0.0
C1983 C 0.68422 0.0727 0.13685 0.0
C1984 C 0.67966 0.09053 0.10997 0.0
C1985 C 0.67655 0.10155 0.11328 0.0
C1986 C 0.6829 0.08873 0.09854 0.0
C1987 C 0.68692 0.07748 0.09459 0.0
C1988 C 0.69603 0.07194 0.10009 0.0
C1989 C 0.69973 0.06132 0.09639 0.0
C1990 C 0.69444 0.05617 0.08713 0.0
C1991 C 0.68546 0.06167 0.08155 0.0
C1992 C 0.68171 0.07229 0.08523 0.0
C1993 C 0.68731 0.1371 0.07978 0.0
C1994 C 0.68144 0.13651 0.06936 0.0
C1995 C 0.68677 0.12816 0.08772 0.0
C1996 C 0.6803 0.1184 0.08551 0.0
C1997 C 0.67453 0.1177 0.07506 0.0
C1998 C 0.67507 0.12665 0.0671 0.0
C1999 C 0.67964 0.1089 0.09403 0.0
C2000 C 0.68275 0.09788 0.09073 0.0
C2001 C 0.6764 0.11071 0.10547 0.0
C2002 C 0.6724 0.12195 0.10941 0.0
C2003 C 0.66329 0.1275 0.10393 0.0
C2004 C 0.65961 0.13814 0.10763 0.0
C2005 C 0.66492 0.14328 0.11688 0.0
C2006 C 0.6739 0.13778 0.12245 0.0
C2007 C 0.67763 0.12714 0.11877 0.0
H2008 H 0.66205 0.15151 0.11974 0.0
H2009 H 0.69732 0.04795 0.08427 0.0
H2010 H 0.96992 0.16642 0.6262 0.0
H2011 H 0.95485 0.16791 0.61198 0.0
H2012 H 0.94091 0.19687 0.62929 0.0
H2013 H 0.95581 0.19521 0.6438 0.0
H2014 H 0.92424 0.18261 0.62303 0.0
H2015 H 0.95613 0.20001 0.60454 0.0
H2016 H 0.97586 0.20133 0.59757 0.0
H2017 H 0.97044 0.17224 0.57653 0.0
H2018 H 0.95072 0.17065 0.58349 0.0
H2019 H 0.88749 0.20137 0.57873 0.0
H2020 H 0.90259 0.19988 0.59293 0.0
H2021 H 0.91638 0.17081 0.5757 0.0
H2022 H 0.90145 0.17246 0.56122 0.0
H2023 H 0.93313 0.18512 0.58191 0.0
H2024 H 0.90122 0.16773 0.60041 0.0
H2025 H 0.88149 0.16645 0.60737 0.0
H2026 H 0.88693 0.19556 0.62838 0.0
H2027 H 0.90667 0.19711 0.62143 0.0
C2028 C 0.9636 0.17306 0.62708 0.0
C2029 C 0.96411 0.18067 0.63622 0.0
C2030 C 0.95504 0.17398 0.61884 0.0
C2031 C 0.94677 0.18258 0.61944 0.0
C2032 C 0.94719 0.19017 0.62859 0.0
C2033 C 0.95579 0.18927 0.63684 0.0
C2034 C 0.93764 0.18356 0.61062 0.0
C2035 C 0.9262 0.18333 0.61405 0.0
C2036 C 0.94013 0.1842 0.59885 0.0
C2037 C 0.95198 0.18515 0.59462 0.0
C2038 C 0.95917 0.19384 0.5985 0.0
C2039 C 0.97035 0.19465 0.59454 0.0
C2040 C 0.97441 0.18685 0.58664 0.0
C2041 C 0.96729 0.17826 0.58266 0.0
C2042 C 0.95611 0.17741 0.5866 0.0
C2043 C 0.89378 0.1947 0.57787 0.0
C2044 C 0.89322 0.18705 0.56876 0.0
C2045 C 0.90236 0.19379 0.58609 0.0
C2046 C 0.9106 0.18515 0.5855 0.0
C2047 C 0.91013 0.17753 0.57639 0.0
C2048 C 0.90151 0.17843 0.56815 0.0
C2049 C 0.91973 0.18417 0.59432 0.0
C2050 C 0.93117 0.1844 0.59089 0.0
C2051 C 0.91724 0.18352 0.60609 0.0
C2052 C 0.90539 0.1826 0.61032 0.0
C2053 C 0.89819 0.17391 0.60645 0.0
C2054 C 0.887 0.17313 0.6104 0.0
C2055 C 0.88295 0.18093 0.61829 0.0
C2056 C 0.89008 0.18953 0.62226 0.0
C2057 C 0.90127 0.19035 0.61833 0.0
H2058 H 0.87429 0.18031 0.62134 0.0
H2059 H 0.98307 0.18749 0.58358 0.0
H2060 H 0.86009 0.45552 0.14668 0.0
H2061 H 0.85922 0.44075 0.13227 0.0
H2062 H 0.83682 0.46176 0.11198 0.0
H2063 H 0.83768 0.47662 0.12637 0.0
H2064 H 0.82988 0.43999 0.11164 0.0
H2065 H 0.8652 0.45944 0.1056 0.0
H2066 H 0.88385 0.46732 0.11101 0.0
H2067 H 0.89556 0.43393 0.12042 0.0
H2068 H 0.87692 0.42587 0.11521 0.0
H2069 H 0.83743 0.41023 0.05944 0.0
H2070 H 0.83647 0.42434 0.07452 0.0
H2071 H 0.85944 0.4041 0.09496 0.0
H2072 H 0.86041 0.38996 0.07994 0.0
H2073 H 0.86587 0.42562 0.09516 0.0
H2074 H 0.83048 0.40613 0.10096 0.0
H2075 H 0.81179 0.39836 0.09552 0.0
H2076 H 0.80019 0.43186 0.0864 0.0
H2077 H 0.81886 0.43981 0.09165 0.0
C2078 C 0.85501 0.45705 0.13914 0.0
C2079 C 0.84903 0.46735 0.13769 0.0
C2080 C 0.8545 0.44856 0.13089 0.0
C2081 C 0.84809 0.45017 0.12091 0.0
C2082 C 0.84183 0.46029 0.11958 0.0
C2083 C 0.84231 0.46878 0.12786 0.0
C2084 C 0.84814 0.44142 0.11177 0.0
C2085 C 0.83775 0.43695 0.10794 0.0
C2086 C 0.85839 0.43726 0.10704 0.0
C2087 C 0.86963 0.44207 0.11012 0.0
C2088 C 0.87173 0.45379 0.1089 0.0
C2089 C 0.8823 0.45829 0.11192 0.0
C2090 C 0.89087 0.45114 0.11608 0.0
C2091 C 0.8889 0.43947 0.11721 0.0
C2092 C 0.87834 0.43493 0.11422 0.0
C2093 C 0.84214 0.40867 0.06721 0.0
C2094 C 0.84901 0.39891 0.06842 0.0
C2095 C 0.8416 0.41678 0.07585 0.0
C2096 C 0.84782 0.4153 0.08597 0.0
C2097 C 0.85458 0.40551 0.08724 0.0
C2098 C 0.85515 0.39742 0.07861 0.0
C2099 C 0.84762 0.4241 0.09507 0.0
C2100 C 0.85799 0.42862 0.09887 0.0
C2101 C 0.83735 0.42831 0.09975 0.0
C2102 C 0.82611 0.42355 0.09659 0.0
C2103 C 0.82397 0.41183 0.09771 0.0
C2104 C 0.81338 0.40739 0.09467 0.0
C2105 C 0.80482 0.41461 0.09058 0.0
C2106 C 0.80683 0.42628 0.08955 0.0
C2107 C 0.81742 0.43075 0.09256 0.0
H2108 H 0.79662 0.41116 0.08824 0.0
H2109 H 0.89906 0.45463 0.11842 0.0
H2110 H 0.56738 0.32995 0.64124 0.0
H2111 H 0.58165 0.33144 0.62627 0.0
H2112 H 0.56853 0.36438 0.61659 0.0
H2113 H 0.55393 0.36279 0.63136 0.0
H2114 H 0.57288 0.35187 0.59809 0.0
H2115 H 0.59337 0.36162 0.63184 0.0
H2116 H 0.60028 0.35894 0.65147 0.0
H2117 H 0.61719 0.32814 0.6419 0.0
H2118 H 0.61025 0.33055 0.62223 0.0
H2119 H 0.61934 0.36901 0.56356 0.0
H2120 H 0.60505 0.36752 0.5785 0.0
H2121 H 0.61841 0.33474 0.58845 0.0
H2122 H 0.63304 0.33635 0.57373 0.0
H2123 H 0.61393 0.34715 0.60682 0.0
H2124 H 0.59347 0.33734 0.57312 0.0
H2125 H 0.58652 0.3399 0.55348 0.0
H2126 H 0.56951 0.37069 0.56295 0.0
H2127 H 0.57649 0.36839 0.58261 0.0
C2128 C 0.56742 0.33748 0.63587 0.0
C2129 C 0.55943 0.34624 0.63754 0.0
C2130 C 0.5757 0.33837 0.62737 0.0
C2131 C 0.5763 0.34809 0.62034 0.0
C2132 C 0.56829 0.35681 0.62191 0.0
C2133 C 0.55999 0.35593 0.63043 0.0
C2134 C 0.58523 0.34907 0.61135 0.0
C2135 C 0.58186 0.35101 0.60004 0.0
C2136 C 0.59697 0.34766 0.61378 0.0
C2137 C 0.6012 0.34621 0.62559 0.0
C2138 C 0.59849 0.35423 0.63394 0.0
C2139 C 0.60243 0.35277 0.64507 0.0
C2140 C 0.60915 0.34336 0.64794 0.0
C2141 C 0.61197 0.33541 0.63967 0.0
C2142 C 0.60805 0.33683 0.62853 0.0
C2143 C 0.61936 0.36151 0.56898 0.0
C2144 C 0.62742 0.35281 0.56739 0.0
C2145 C 0.61106 0.36062 0.57747 0.0
C2146 C 0.61051 0.35095 0.58456 0.0
C2147 C 0.6186 0.34227 0.58308 0.0
C2148 C 0.62692 0.34316 0.57458 0.0
C2149 C 0.60158 0.34996 0.59356 0.0
C2150 C 0.60494 0.34802 0.60487 0.0
C2151 C 0.58984 0.35136 0.59112 0.0
C2152 C 0.58559 0.35275 0.57931 0.0
C2153 C 0.58832 0.3447 0.57099 0.0
C2154 C 0.58436 0.3461 0.55986 0.0
C2155 C 0.5776 0.35547 0.55696 0.0
C2156 C 0.57476 0.36344 0.5652 0.0
C2157 C 0.5787 0.36209 0.57634 0.0
H2158 H 0.57455 0.35654 0.54834 0.0
H2159 H 0.61218 0.34224 0.65656 0.0
H2160 H 0.69022 0.46057 0.39508 0.0
H2161 H 0.69084 0.44482 0.40882 0.0
H2162 H 0.66556 0.46157 0.42922 0.0
H2163 H 0.66484 0.47728 0.41552 0.0
H2164 H 0.68202 0.4534 0.44246 0.0
H2165 H 0.65897 0.43853 0.41242 0.0
H2166 H 0.65432 0.43338 0.3927 0.0
H2167 H 0.68304 0.41082 0.39191 0.0
H2168 H 0.68795 0.41595 0.41158 0.0
H2169 H 0.668 0.40626 0.47842 0.0
H2170 H 0.66732 0.42195 0.46462 0.0
H2171 H 0.69267 0.40522 0.44429 0.0
H2172 H 0.69346 0.38957 0.45806 0.0
H2173 H 0.67618 0.41337 0.43101 0.0
H2174 H 0.69923 0.42824 0.46106 0.0
H2175 H 0.70387 0.43338 0.48078 0.0
H2176 H 0.67515 0.45594 0.48156 0.0
H2177 H 0.67024 0.45082 0.46189 0.0
C2178 C 0.6847 0.46087 0.40243 0.0
C2179 C 0.67749 0.47026 0.40414 0.0
C2180 C 0.68508 0.45184 0.41031 0.0
C2181 C 0.67817 0.45191 0.42006 0.0
C2182 C 0.67101 0.46129 0.42182 0.0
C2183 C 0.67064 0.47032 0.41396 0.0
C2184 C 0.67845 0.44229 0.42848 0.0
C2185 C 0.68059 0.44467 0.43996 0.0
C2186 C 0.67684 0.43083 0.42525 0.0
C2187 C 0.6739 0.42772 0.41343 0.0
C2188 C 0.66435 0.43254 0.40801 0.0
C2189 C 0.66166 0.42961 0.39685 0.0
C2190 C 0.6684 0.4218 0.39105 0.0
C2191 C 0.67783 0.41688 0.39641 0.0
C2192 C 0.68057 0.41979 0.40757 0.0
C2193 C 0.67352 0.40595 0.47107 0.0
C2194 C 0.68078 0.39659 0.4694 0.0
C2195 C 0.67311 0.41494 0.46315 0.0
C2196 C 0.68002 0.41487 0.45341 0.0
C2197 C 0.68722 0.4055 0.45169 0.0
C2198 C 0.68762 0.39651 0.45958 0.0
C2199 C 0.67975 0.42448 0.44499 0.0
C2200 C 0.67761 0.4221 0.43351 0.0
C2201 C 0.68136 0.43595 0.44822 0.0
C2202 C 0.6843 0.43906 0.46004 0.0
C2203 C 0.69385 0.43423 0.46547 0.0
C2204 C 0.69654 0.43715 0.47663 0.0
C2205 C 0.68979 0.44496 0.48243 0.0
C2206 C 0.68036 0.44988 0.47706 0.0
C2207 C 0.67762 0.44698 0.4659 0.0
H2208 H 0.69189 0.44721 0.49107 0.0
H2209 H 0.6663 0.41955 0.38241 0.0
H2210 H 0.54998 0.19488 0.91425 0.0
H2211 H 0.56457 0.19389 0.92905 0.0
H2212 H 0.58677 0.17588 0.90633 0.0
H2213 H 0.57221 0.17684 0.89148 0.0
H2214 H 0.58781 0.16657 0.92698 0.0
H2215 H 0.59034 0.20457 0.91197 0.0
H2216 H 0.58305 0.22348 0.90635 0.0
H2217 H 0.57295 0.22969 0.94076 0.0
H2218 H 0.58004 0.21074 0.94656 0.0
H2219 H 0.63899 0.17341 0.95827 0.0
H2220 H 0.62436 0.17445 0.94353 0.0
H2221 H 0.60221 0.19233 0.96641 0.0
H2222 H 0.61682 0.19131 0.98122 0.0
H2223 H 0.6011 0.20172 0.94574 0.0
H2224 H 0.59859 0.16374 0.96075 0.0
H2225 H 0.60586 0.14483 0.96638 0.0
H2226 H 0.61591 0.13857 0.93196 0.0
H2227 H 0.60884 0.15751 0.92616 0.0
C2228 C 0.55799 0.19075 0.91236 0.0
C2229 C 0.5599 0.186 0.9016 0.0
C2230 C 0.56634 0.19019 0.92086 0.0
C2231 C 0.57689 0.18497 0.9188 0.0
C2232 C 0.57873 0.17997 0.90816 0.0
C2233 C 0.57036 0.18049 0.89967 0.0
C2234 C 0.58602 0.18476 0.92768 0.0
C2235 C 0.59081 0.17428 0.93096 0.0
C2236 C 0.58982 0.19477 0.93312 0.0
C2237 C 0.58562 0.2062 0.92967 0.0
C2238 C 0.58649 0.20994 0.91832 0.0
C2239 C 0.58241 0.22067 0.91511 0.0
C2240 C 0.57751 0.22777 0.92319 0.0
C2241 C 0.57673 0.22417 0.93451 0.0
C2242 C 0.58079 0.21344 0.93777 0.0
C2243 C 0.63099 0.17752 0.96021 0.0
C2244 C 0.62911 0.18221 0.971 0.0
C2245 C 0.62261 0.17811 0.95175 0.0
C2246 C 0.61206 0.18331 0.95387 0.0
C2247 C 0.61025 0.18826 0.96453 0.0
C2248 C 0.61865 0.1877 0.973 0.0
C2249 C 0.6029 0.18352 0.94502 0.0
C2250 C 0.5981 0.194 0.94175 0.0
C2251 C 0.5991 0.17351 0.93959 0.0
C2252 C 0.60328 0.16209 0.94304 0.0
C2253 C 0.60242 0.15836 0.9544 0.0
C2254 C 0.6065 0.14763 0.95762 0.0
C2255 C 0.61137 0.14051 0.94954 0.0
C2256 C 0.61215 0.1441 0.93822 0.0
C2257 C 0.6081 0.15482 0.93495 0.0
H2258 H 0.61452 0.13221 0.95205 0.0
H2259 H 0.57435 0.23607 0.92069 0.0
H2260 H 0.8585 0.12076 0.48089 0.0
H2261 H 0.85804 0.10691 0.46564 0.0
H2262 H 0.83716 0.12957 0.44549 0.0
H2263 H 0.83726 0.14339 0.46094 0.0
H2264 H 0.82957 0.10802 0.44389 0.0
H2265 H 0.86551 0.12645 0.43978 0.0
H2266 H 0.88415 0.13376 0.44596 0.0
H2267 H 0.89479 0.09992 0.45498 0.0
H2268 H 0.87615 0.09242 0.449 0.0
H2269 H 0.83781 0.07558 0.39321 0.0
H2270 H 0.83731 0.09095 0.40709 0.0
H2271 H 0.85855 0.07117 0.42973 0.0
H2272 H 0.85942 0.056 0.4158 0.0
H2273 H 0.86575 0.09246 0.42898 0.0
H2274 H 0.82933 0.07425 0.43386 0.0
H2275 H 0.81064 0.06707 0.42766 0.0
H2276 H 0.80093 0.10071 0.41694 0.0
H2277 H 0.81963 0.10807 0.42295 0.0
C2278 C 0.85368 0.12279 0.47329 0.0
C2279 C 0.84791 0.13325 0.47221 0.0
C2280 C 0.85353 0.11488 0.46449 0.0
C2281 C 0.8477 0.11722 0.4543 0.0
C2282 C 0.84177 0.12756 0.45323 0.0
C2283 C 0.84192 0.13551 0.46205 0.0
C2284 C 0.84785 0.10885 0.44482 0.0
C2285 C 0.83749 0.10476 0.44051 0.0
C2286 C 0.85815 0.10441 0.44047 0.0
C2287 C 0.86939 0.10888 0.44403 0.0
C2288 C 0.8718 0.12057 0.44316 0.0
C2289 C 0.88237 0.12475 0.44661 0.0
C2290 C 0.89064 0.11731 0.45088 0.0
C2291 C 0.88837 0.10567 0.45168 0.0
C2292 C 0.87781 0.10145 0.44825 0.0
C2293 C 0.84244 0.07452 0.40111 0.0
C2294 C 0.8486 0.06446 0.40337 0.0
C2295 C 0.84205 0.08329 0.4091 0.0
C2296 C 0.84778 0.08221 0.41956 0.0
C2297 C 0.85401 0.07223 0.42177 0.0
C2298 C 0.85441 0.06349 0.41381 0.0
C2299 C 0.84748 0.09147 0.42818 0.0
C2300 C 0.85782 0.09575 0.43232 0.0
C2301 C 0.83716 0.09609 0.43234 0.0
C2302 C 0.82592 0.09168 0.42874 0.0
C2303 C 0.82324 0.0801 0.4301 0.0
C2304 C 0.81264 0.076 0.42663 0.0
C2305 C 0.80461 0.08342 0.42188 0.0
C2306 C 0.80716 0.09497 0.42061 0.0
C2307 C 0.81776 0.09911 0.42405 0.0
H2308 H 0.79641 0.08024 0.4192 0.0
H2309 H 0.89882 0.12056 0.45355 0.0
H2310 H 0.95195 0.35771 0.8915 0.0
H2311 H 0.93644 0.35686 0.90531 0.0
H2312 H 0.95973 0.34439 0.93088 0.0
H2313 H 0.97519 0.34481 0.91704 0.0
H2314 H 0.94019 0.33318 0.93235 0.0
H2315 H 0.95082 0.37255 0.9299 0.0
H2316 H 0.95466 0.39082 0.92019 0.0
H2317 H 0.92022 0.39196 0.90801 0.0
H2318 H 0.91622 0.3736 0.91752 0.0
H2319 H 0.90532 0.34293 0.98053 0.0
H2320 H 0.92081 0.3438 0.96671 0.0
H2321 H 0.89753 0.35652 0.94124 0.0
H2322 H 0.8821 0.3561 0.95511 0.0
H2323 H 0.91705 0.3676 0.93969 0.0
H2324 H 0.90637 0.32828 0.9421 0.0
H2325 H 0.90249 0.30999 0.95176 0.0
H2326 H 0.93692 0.30873 0.96395 0.0
H2327 H 0.94097 0.3271 0.95448 0.0
C2328 C 0.95377 0.35463 0.90002 0.0
C2329 C 0.9649 0.3514 0.90312 0.0
C2330 C 0.94488 0.35428 0.90796 0.0
C2331 C 0.9469 0.35074 0.91924 0.0
C2332 C 0.95792 0.34722 0.92228 0.0
C2333 C 0.9668 0.34756 0.91435 0.0
C2334 C 0.93758 0.35079 0.9279 0.0
C2335 C 0.93524 0.34076 0.93405 0.0
C2336 C 0.93089 0.36058 0.93001 0.0
C2337 C 0.93326 0.37165 0.92433 0.0
C2338 C 0.94409 0.37665 0.92508 0.0
C2339 C 0.94629 0.38703 0.91962 0.0
C2340 C 0.9377 0.39253 0.91346 0.0
C2341 C 0.92687 0.38768 0.91277 0.0
C2342 C 0.92463 0.37729 0.9182 0.0
C2343 C 0.9035 0.34607 0.97204 0.0
C2344 C 0.89238 0.34937 0.96897 0.0
C2345 C 0.91237 0.34644 0.96408 0.0
C2346 C 0.91035 0.35004 0.95282 0.0
C2347 C 0.89934 0.35364 0.94982 0.0
C2348 C 0.89047 0.35329 0.95777 0.0
C2349 C 0.91966 0.34999 0.94415 0.0
C2350 C 0.922 0.36002 0.938 0.0
C2351 C 0.92634 0.34019 0.94203 0.0
C2352 C 0.92394 0.32912 0.94768 0.0
C2353 C 0.91309 0.32414 0.94691 0.0
C2354 C 0.91086 0.31376 0.95233 0.0
C2355 C 0.91944 0.30822 0.95849 0.0
C2356 C 0.93028 0.31304 0.95919 0.0
C2357 C 0.93255 0.32343 0.95379 0.0
H2358 H 0.9177 0.30018 0.96268 0.0
H2359 H 0.93942 0.40056 0.90924 0.0
H2360 H 0.12761 0.66703 0.06691 0.0
H2361 H 0.11303 0.66606 0.08174 0.0
H2362 H 0.11736 0.70184 0.08802 0.0
H2363 H 0.13215 0.7028 0.07354 0.0
H2364 H 0.11627 0.69049 0.10753 0.0
H2365 H 0.09426 0.69118 0.07294 0.0
H2366 H 0.08835 0.68447 0.05406 0.0
H2367 H 0.07917 0.65209 0.0685 0.0
H2368 H 0.08518 0.65856 0.08745 0.0
H2369 H 0.06702 0.70342 0.13884 0.0
H2370 H 0.08144 0.70215 0.12406 0.0
H2371 H 0.07478 0.66629 0.12084 0.0
H2372 H 0.05999 0.66757 0.13544 0.0
H2373 H 0.0773 0.67613 0.10016 0.0
H2374 H 0.09839 0.67563 0.13485 0.0
H2375 H 0.10424 0.68225 0.15378 0.0
H2376 H 0.11525 0.714 0.13924 0.0
H2377 H 0.10932 0.70764 0.12023 0.0
C2378 C 0.12551 0.67469 0.07149 0.0
C2379 C 0.13106 0.68501 0.06893 0.0
C2380 C 0.11708 0.67414 0.07991 0.0
C2381 C 0.11396 0.68391 0.08596 0.0
C2382 C 0.11955 0.69418 0.08348 0.0
C2383 C 0.12796 0.69474 0.07508 0.0
C2384 C 0.10501 0.68348 0.09498 0.0
C2385 C 0.10771 0.68746 0.10586 0.0
C2386 C 0.09391 0.67921 0.09297 0.0
C2387 C 0.09029 0.67531 0.08159 0.0
C2388 C 0.09107 0.6826 0.07207 0.0
C2389 C 0.08769 0.67884 0.06136 0.0
C2390 C 0.08342 0.66785 0.06008 0.0
C2391 C 0.0825 0.6606 0.06951 0.0
C2392 C 0.08588 0.66431 0.08024 0.0
C2393 C 0.06848 0.69527 0.13492 0.0
C2394 C 0.06227 0.6856 0.13838 0.0
C2395 C 0.07686 0.69453 0.12652 0.0
C2396 C 0.07935 0.68409 0.12139 0.0
C2397 C 0.07307 0.67444 0.12468 0.0
C2398 C 0.06467 0.67517 0.13311 0.0
C2399 C 0.08852 0.68332 0.11265 0.0
C2400 C 0.08587 0.6791 0.10184 0.0
C2401 C 0.09969 0.68735 0.11472 0.0
C2402 C 0.10332 0.69119 0.12613 0.0
C2403 C 0.10198 0.68406 0.1357 0.0
C2404 C 0.10532 0.68776 0.14644 0.0
C2405 C 0.11009 0.69855 0.14772 0.0
C2406 C 0.11155 0.70565 0.13824 0.0
C2407 C 0.10821 0.702 0.12748 0.0
H2408 H 0.11267 0.7014 0.15604 0.0
H2409 H 0.0808 0.66496 0.05178 0.0
H2410 H 0.07651 0.85956 0.38895 0.0
H2411 H 0.09028 0.86035 0.40448 0.0
H2412 H 0.06727 0.84153 0.42607 0.0
H2413 H 0.05344 0.84067 0.41054 0.0
H2414 H 0.07696 0.85844 0.43765 0.0
H2415 H 0.09036 0.82868 0.41356 0.0
H2416 H 0.09636 0.82016 0.39548 0.0
H2417 H 0.12359 0.84433 0.39269 0.0
H2418 H 0.11765 0.85311 0.41068 0.0
H2419 H 0.11672 0.84325 0.48061 0.0
H2420 H 0.10298 0.84247 0.46504 0.0
H2421 H 0.12603 0.86134 0.44353 0.0
H2422 H 0.13982 0.8622 0.4591 0.0
H2423 H 0.11634 0.84443 0.43191 0.0
H2424 H 0.10295 0.87418 0.456 0.0
H2425 H 0.09695 0.88271 0.47407 0.0
H2426 H 0.0697 0.85856 0.47685 0.0
H2427 H 0.07564 0.84978 0.45887 0.0
C2428 C 0.07437 0.85553 0.39697 0.0
C2429 C 0.06385 0.84998 0.39842 0.0
C2430 C 0.08228 0.85599 0.40588 0.0
C2431 C 0.07993 0.85084 0.41644 0.0
C2432 C 0.06932 0.84556 0.41802 0.0
C2433 C 0.06138 0.84512 0.40912 0.0
C2434 C 0.08857 0.85087 0.42579 0.0
C2435 C 0.08552 0.85523 0.43642 0.0
C2436 C 0.09985 0.84692 0.42418 0.0
C2437 C 0.10349 0.84162 0.41341 0.0
C2438 C 0.09758 0.83223 0.40905 0.0
C2439 C 0.10098 0.82735 0.39882 0.0
C2440 C 0.11033 0.83172 0.39293 0.0
C2441 C 0.11633 0.84097 0.39726 0.0
C2442 C 0.11296 0.84589 0.40747 0.0
C2443 C 0.11887 0.8473 0.4726 0.0
C2444 C 0.12939 0.85287 0.47119 0.0
C2445 C 0.11098 0.84684 0.46368 0.0
C2446 C 0.11335 0.85201 0.45312 0.0
C2447 C 0.12397 0.8573 0.45158 0.0
C2448 C 0.13188 0.85774 0.4605 0.0
C2449 C 0.10473 0.85199 0.44377 0.0
C2450 C 0.10778 0.84764 0.43313 0.0
C2451 C 0.09345 0.85594 0.44537 0.0
C2452 C 0.0898 0.86126 0.45614 0.0
C2453 C 0.09572 0.87064 0.4605 0.0
C2454 C 0.09233 0.87553 0.47072 0.0
C2455 C 0.08297 0.87117 0.47662 0.0
C2456 C 0.07696 0.86192 0.47228 0.0
C2457 C 0.08033 0.85699 0.46207 0.0
H2458 H 0.08035 0.87496 0.48453 0.0
H2459 H 0.11295 0.82793 0.38501 0.0
H2460 H 0.19223 0.63766 0.96531 0.0
H2461 H 0.19368 0.62328 0.95049 0.0
H2462 H 0.16038 0.6107 0.95938 0.0
H2463 H 0.15904 0.62476 0.97442 0.0
H2464 H 0.17442 0.5934 0.95599 0.0
H2465 H 0.16486 0.62762 0.93555 0.0
H2466 H 0.16708 0.64763 0.92949 0.0
H2467 H 0.20006 0.6401 0.91583 0.0
H2468 H 0.19809 0.62007 0.92196 0.0
H2469 H 0.16478 0.55993 0.90681 0.0
H2470 H 0.16348 0.57425 0.92167 0.0
H2471 H 0.19664 0.58695 0.91243 0.0
H2472 H 0.19782 0.57297 0.8973 0.0
H2473 H 0.18274 0.60419 0.91603 0.0
H2474 H 0.19228 0.56994 0.93642 0.0
H2475 H 0.19006 0.54994 0.9425 0.0
H2476 H 0.15714 0.55751 0.95626 0.0
H2477 H 0.1591 0.57754 0.95012 0.0
C2478 C 0.18525 0.63178 0.96418 0.0
C2479 C 0.17548 0.63247 0.97106 0.0
C2480 C 0.18604 0.62361 0.95561 0.0
C2481 C 0.17707 0.61595 0.95367 0.0
C2482 C 0.1674 0.61651 0.96063 0.0
C2483 C 0.1666 0.62466 0.96919 0.0
C2484 C 0.17775 0.60732 0.94445 0.0
C2485 C 0.1761 0.59579 0.94723 0.0
C2486 C 0.18018 0.61034 0.93302 0.0
C2487 C 0.18138 0.62237 0.92932 0.0
C2488 C 0.17262 0.63025 0.93134 0.0
C2489 C 0.17383 0.64159 0.92788 0.0
C2490 C 0.18372 0.64514 0.92231 0.0
C2491 C 0.19241 0.63734 0.92017 0.0
C2492 C 0.19125 0.626 0.92362 0.0
C2493 C 0.17177 0.56582 0.90786 0.0
C2494 C 0.18144 0.5652 0.90084 0.0
C2495 C 0.17106 0.57395 0.91647 0.0
C2496 C 0.18003 0.58163 0.91833 0.0
C2497 C 0.18962 0.58112 0.91124 0.0
C2498 C 0.19033 0.57301 0.90264 0.0
C2499 C 0.17942 0.59026 0.92756 0.0
C2500 C 0.18107 0.60179 0.92479 0.0
C2501 C 0.17699 0.58724 0.939 0.0
C2502 C 0.17579 0.57521 0.9427 0.0
C2503 C 0.18453 0.56732 0.94066 0.0
C2504 C 0.18332 0.55598 0.94414 0.0
C2505 C 0.17345 0.55245 0.94974 0.0
C2506 C 0.16477 0.56026 0.95191 0.0
C2507 C 0.16593 0.5716 0.94844 0.0
H2508 H 0.17253 0.54367 0.95242 0.0
H2509 H 0.18464 0.65392 0.91963 0.0
H2510 H 0.39274 0.6993 0.4659 0.0
H2511 H 0.40737 0.70073 0.4512 0.0
H2512 H 0.41626 0.66555 0.45687 0.0
H2513 H 0.40196 0.66417 0.47184 0.0
H2514 H 0.43498 0.67788 0.45476 0.0
H2515 H 0.40025 0.67442 0.43356 0.0
H2516 H 0.3807 0.67949 0.42778 0.0
H2517 H 0.39202 0.71271 0.41744 0.0
H2518 H 0.41162 0.70789 0.4233 0.0
H2519 H 0.4681 0.67011 0.40479 0.0
H2520 H 0.4535 0.66877 0.41952 0.0
H2521 H 0.44452 0.70388 0.41356 0.0
H2522 H 0.45877 0.70516 0.39855 0.0
H2523 H 0.42585 0.69165 0.41584 0.0
H2524 H 0.46057 0.69514 0.437 0.0
H2525 H 0.48012 0.69014 0.44281 0.0
H2526 H 0.46886 0.65694 0.4533 0.0
H2527 H 0.44926 0.66169 0.4474 0.0
C2528 C 0.39785 0.69188 0.4641 0.0
C2529 C 0.39607 0.6816 0.47007 0.0
C2530 C 0.40617 0.69268 0.45558 0.0
C2531 C 0.41287 0.6832 0.45277 0.0
C2532 C 0.41119 0.67298 0.45881 0.0
C2533 C 0.4029 0.67218 0.46732 0.0
C2534 C 0.42169 0.68393 0.44363 0.0
C2535 C 0.43294 0.68075 0.44621 0.0
C2536 C 0.41915 0.68792 0.43251 0.0
C2537 C 0.40738 0.69083 0.42897 0.0
C2538 C 0.39855 0.68284 0.43014 0.0
C2539 C 0.38747 0.68566 0.42683 0.0
C2540 C 0.38511 0.69642 0.42228 0.0
C2541 C 0.39385 0.70438 0.42099 0.0
C2542 C 0.40495 0.70161 0.42429 0.0
C2543 C 0.46297 0.67753 0.40653 0.0
C2544 C 0.46472 0.68777 0.40046 0.0
C2545 C 0.45468 0.67679 0.41507 0.0
C2546 C 0.44796 0.68627 0.41781 0.0
C2547 C 0.4496 0.69645 0.41168 0.0
C2548 C 0.45786 0.6972 0.40315 0.0
C2549 C 0.43915 0.68559 0.42697 0.0
C2550 C 0.4279 0.68878 0.42439 0.0
C2551 C 0.44169 0.68162 0.43809 0.0
C2552 C 0.45347 0.67874 0.44165 0.0
C2553 C 0.46228 0.68674 0.44046 0.0
C2554 C 0.47337 0.68396 0.44378 0.0
C2555 C 0.47574 0.67322 0.44839 0.0
C2556 C 0.46701 0.66525 0.44971 0.0
C2557 C 0.45591 0.66799 0.44639 0.0
H2558 H 0.48432 0.67108 0.45097 0.0
H2559 H 0.37653 0.69859 0.41972 0.0
H2560 H 0.3411 0.97989 0.91729 0.0
H2561 H 0.34047 0.96412 0.93093 0.0
H2562 H 0.35028 0.94086 0.90464 0.0
H2563 H 0.35101 0.95664 0.89092 0.0
H2564 H 0.33381 0.93173 0.9177 0.0
H2565 H 0.36956 0.95005 0.92443 0.0
H2566 H 0.38226 0.96621 0.92838 0.0
H2567 H 0.36511 0.97188 0.95998 0.0
H2568 H 0.35219 0.95585 0.95615 0.0
H2569 H 0.34907 0.88545 0.95379 0.0
H2570 H 0.34974 0.90116 0.94009 0.0
H2571 H 0.33995 0.92454 0.96629 0.0
H2572 H 0.33919 0.90882 0.98006 0.0
H2573 H 0.35645 0.93358 0.95324 0.0
H2574 H 0.32068 0.9153 0.94651 0.0
H2575 H 0.30796 0.89915 0.94258 0.0
H2576 H 0.32514 0.89341 0.91099 0.0
H2577 H 0.33807 0.90944 0.91481 0.0
C2578 C 0.3432 0.97144 0.91439 0.0
C2579 C 0.34621 0.96961 0.90297 0.0
C2580 C 0.34282 0.9624 0.92222 0.0
C2581 C 0.3455 0.95128 0.9189 0.0
C2582 C 0.34819 0.94935 0.90745 0.0
C2583 C 0.34856 0.9584 0.89958 0.0
C2584 C 0.34562 0.94172 0.92738 0.0
C2585 C 0.33889 0.93208 0.92539 0.0
C2586 C 0.35204 0.94222 0.93758 0.0
C2587 C 0.35984 0.95182 0.93995 0.0
C2588 C 0.36844 0.9548 0.93218 0.0
C2589 C 0.37569 0.96393 0.93441 0.0
C2590 C 0.37448 0.97009 0.94441 0.0
C2591 C 0.36603 0.96711 0.95223 0.0
C2592 C 0.35875 0.958 0.95004 0.0
C2593 C 0.34699 0.89391 0.95666 0.0
C2594 C 0.34398 0.8958 0.96807 0.0
C2595 C 0.34739 0.90292 0.94879 0.0
C2596 C 0.34472 0.91406 0.95207 0.0
C2597 C 0.34203 0.91604 0.96351 0.0
C2598 C 0.34164 0.90702 0.97141 0.0
C2599 C 0.34464 0.92359 0.94356 0.0
C2600 C 0.35138 0.93323 0.94555 0.0
C2601 C 0.33822 0.92309 0.93336 0.0
C2602 C 0.33041 0.9135 0.931 0.0
C2603 C 0.3218 0.91054 0.93876 0.0
C2604 C 0.31454 0.90142 0.93655 0.0
C2605 C 0.31576 0.89524 0.92655 0.0
C2606 C 0.32421 0.89819 0.91874 0.0
C2607 C 0.3315 0.9073 0.92092 0.0
H2608 H 0.31013 0.88817 0.92486 0.0
H2609 H 0.38009 0.97716 0.94612 0.0
H2610 H 0.45153 0.85907 0.14564 0.0
H2611 H 0.43757 0.85958 0.13023 0.0
H2612 H 0.45882 0.83743 0.11046 0.0
H2613 H 0.47283 0.83685 0.12586 0.0
H2614 H 0.45016 0.8539 0.09725 0.0
H2615 H 0.43503 0.82743 0.12454 0.0
H2616 H 0.42874 0.82096 0.1435 0.0
H2617 H 0.40343 0.84729 0.144 0.0
H2618 H 0.40968 0.85402 0.1251 0.0
H2619 H 0.40843 0.83864 0.05645 0.0
H2620 H 0.42246 0.83802 0.0718 0.0
H2621 H 0.40131 0.86005 0.09182 0.0
H2622 H 0.38723 0.86072 0.07649 0.0
H2623 H 0.40996 0.84354 0.10488 0.0
H2624 H 0.42514 0.87005 0.07761 0.0
H2625 H 0.43145 0.87653 0.05866 0.0
H2626 H 0.45668 0.85013 0.05813 0.0
H2627 H 0.45041 0.84338 0.07702 0.0
C2628 C 0.45323 0.85425 0.13805 0.0
C2629 C 0.46331 0.84785 0.13707 0.0
C2630 C 0.44522 0.85456 0.12922 0.0
C2631 C 0.44701 0.8484 0.11921 0.0
C2632 C 0.4572 0.84225 0.11808 0.0
C2633 C 0.46524 0.84196 0.1269 0.0
C2634 C 0.43824 0.84829 0.10999 0.0
C2635 C 0.44141 0.85148 0.0989 0.0
C2636 C 0.42673 0.84538 0.11212 0.0
C2637 C 0.42289 0.8413 0.12345 0.0
C2638 C 0.42817 0.83189 0.12873 0.0
C2639 C 0.42461 0.82817 0.13946 0.0
C2640 C 0.41571 0.83373 0.14497 0.0
C2641 C 0.41033 0.843 0.13973 0.0
C2642 C 0.41387 0.84677 0.129 0.0
C2643 C 0.40677 0.84341 0.06409 0.0
C2644 C 0.39669 0.84979 0.06516 0.0
C2645 C 0.41482 0.84304 0.07288 0.0
C2646 C 0.41307 0.84913 0.08294 0.0
C2647 C 0.4029 0.85528 0.08416 0.0
C2648 C 0.39481 0.85562 0.07538 0.0
C2649 C 0.42188 0.84916 0.09214 0.0
C2650 C 0.41871 0.84595 0.10323 0.0
C2651 C 0.43339 0.85206 0.09001 0.0
C2652 C 0.43723 0.85614 0.07868 0.0
C2653 C 0.43198 0.86557 0.07342 0.0
C2654 C 0.43555 0.8693 0.06269 0.0
C2655 C 0.44444 0.86373 0.05718 0.0
C2656 C 0.44979 0.85443 0.0624 0.0
C2657 C 0.44623 0.85065 0.07312 0.0
H2658 H 0.44719 0.86662 0.04888 0.0
H2659 H 0.41297 0.83084 0.15328 0.0
H2660 H 0.18787 0.97882 0.625 0.0
H2661 H 0.18927 0.96386 0.6108 0.0
H2662 H 0.16585 0.94318 0.63014 0.0
H2663 H 0.16468 0.95796 0.64454 0.0
H2664 H 0.18284 0.93041 0.62237 0.0
H2665 H 0.15735 0.95811 0.60617 0.0
H2666 H 0.15136 0.97721 0.59974 0.0
H2667 H 0.17904 0.9783 0.57599 0.0
H2668 H 0.18529 0.95925 0.5824 0.0
H2669 H 0.16827 0.89066 0.57996 0.0
H2670 H 0.16749 0.90587 0.59391 0.0
H2671 H 0.19104 0.92568 0.57385 0.0
H2672 H 0.1919 0.91047 0.55985 0.0
H2673 H 0.17443 0.939 0.58187 0.0
H2674 H 0.19975 0.91116 0.59787 0.0
H2675 H 0.20564 0.89201 0.60425 0.0
H2676 H 0.17826 0.89118 0.62834 0.0
H2677 H 0.1721 0.91028 0.622 0.0
C2678 C 0.18312 0.97104 0.62632 0.0
C2679 C 0.17612 0.96966 0.63594 0.0
C2680 C 0.18384 0.96252 0.61811 0.0
C2681 C 0.17753 0.95241 0.61927 0.0
C2682 C 0.17076 0.9509 0.62899 0.0
C2683 C 0.17003 0.95942 0.63719 0.0
C2684 C 0.17793 0.94345 0.61035 0.0
C2685 C 0.18086 0.93228 0.61354 0.0
C2686 C 0.17562 0.94587 0.59875 0.0
C2687 C 0.17186 0.9573 0.59485 0.0
C2688 C 0.16221 0.96246 0.59964 0.0
C2689 C 0.15876 0.97327 0.59599 0.0
C2690 C 0.16484 0.97898 0.58748 0.0
C2691 C 0.17435 0.97387 0.58259 0.0
C2692 C 0.17785 0.96306 0.58622 0.0
C2693 C 0.17334 0.89822 0.57852 0.0
C2694 C 0.18022 0.89926 0.56878 0.0
C2695 C 0.17288 0.90694 0.58653 0.0
C2696 C 0.17935 0.91689 0.58507 0.0
C2697 C 0.18597 0.9181 0.57521 0.0
C2698 C 0.18642 0.90939 0.56717 0.0
C2699 C 0.17929 0.92596 0.5939 0.0
C2700 C 0.17643 0.93714 0.59069 0.0
C2701 C 0.18167 0.92355 0.60549 0.0
C2702 C 0.1854 0.91211 0.60939 0.0
C2703 C 0.19493 0.90687 0.60448 0.0
C2704 C 0.19833 0.89602 0.60809 0.0
C2705 C 0.19231 0.89037 0.61668 0.0
C2706 C 0.18291 0.89557 0.62169 0.0
C2707 C 0.17947 0.9064 0.61809 0.0
H2708 H 0.19495 0.88198 0.61946 0.0
H2709 H 0.16215 0.98735 0.58466 0.0
H2710 H 0.35795 0.57429 0.64336 0.0
H2711 H 0.35747 0.5897 0.62928 0.0
H2712 H 0.33093 0.57235 0.61103 0.0
H2713 H 0.33136 0.55691 0.6251 0.0
H2714 H 0.34648 0.58 0.59658 0.0
H2715 H 0.32552 0.59626 0.62732 0.0
H2716 H 0.32211 0.60215 0.64706 0.0
H2717 H 0.35114 0.62424 0.6455 0.0
H2718 H 0.35482 0.61836 0.62579 0.0
H2719 H 0.33061 0.62617 0.56016 0.0
H2720 H 0.33106 0.61079 0.57427 0.0
H2721 H 0.35754 0.62817 0.59256 0.0
H2722 H 0.35714 0.64361 0.57848 0.0
H2723 H 0.34202 0.6205 0.60699 0.0
H2724 H 0.36298 0.60424 0.57623 0.0
H2725 H 0.36636 0.59836 0.55648 0.0
H2726 H 0.33731 0.57629 0.55806 0.0
H2727 H 0.33366 0.58216 0.57778 0.0
C2728 C 0.35188 0.57381 0.63645 0.0
C2729 C 0.34467 0.56432 0.63543 0.0
C2730 C 0.35163 0.58265 0.62837 0.0
C2731 C 0.34409 0.58229 0.61909 0.0
C2732 C 0.33686 0.57285 0.61806 0.0
C2733 C 0.33713 0.56399 0.62612 0.0
C2734 C 0.3439 0.59163 0.61035 0.0
C2735 C 0.34534 0.58884 0.59886 0.0
C2736 C 0.3427 0.60323 0.61327 0.0
C2737 C 0.34051 0.60678 0.62512 0.0
C2738 C 0.33123 0.6023 0.63122 0.0
C2739 C 0.32924 0.60565 0.6424 0.0
C2740 C 0.33642 0.61354 0.64754 0.0
C2741 C 0.34559 0.61812 0.64151 0.0
C2742 C 0.34763 0.61478 0.63033 0.0
C2743 C 0.33666 0.62667 0.56709 0.0
C2744 C 0.34386 0.63616 0.56812 0.0
C2745 C 0.33689 0.61784 0.57519 0.0
C2746 C 0.34441 0.61821 0.58448 0.0
C2747 C 0.35163 0.62767 0.58552 0.0
C2748 C 0.35138 0.63651 0.57744 0.0
C2749 C 0.3446 0.60888 0.59322 0.0
C2750 C 0.34316 0.61166 0.60471 0.0
C2751 C 0.3458 0.59728 0.5903 0.0
C2752 C 0.34798 0.59372 0.57845 0.0
C2753 C 0.35726 0.5982 0.57234 0.0
C2754 C 0.35923 0.59486 0.56115 0.0
C2755 C 0.35204 0.58698 0.55601 0.0
C2756 C 0.34287 0.5824 0.56205 0.0
C2757 C 0.34085 0.58573 0.57323 0.0
H2758 H 0.35358 0.5844 0.54735 0.0
H2759 H 0.33486 0.61613 0.6562 0.0
loop_
_geom_bond_atom_site_label_1
_geom_bond_atom_site_label_2
_geom_bond_distance
_geom_bond_site_symmetry_2
_ccdc_geom_bond_type
C0 C1 1.262 . S
C0 C5 1.480 1_455 S
C0 C10 1.465 1_455 S
C1 C0 1.262 . S
C1 C3 1.339 . S
C1 H28 0.931 . S
C2 C3 1.395 . S
C2 C4 1.320 1_455 S
C3 C1 1.339 . S
C3 C2 1.395 . S
C3 H29 0.929 . S
C4 C2 1.320 1_655 S
C4 C5 1.405 . S
C4 H30 0.930 . S
C5 C0 1.480 1_655 S
C5 C4 1.405 . S
C5 H31 0.931 . S
U6 O7 2.454 . S
U6 O8 2.458 . S
U6 C9 2.984 . S
U6 C10 2.847 . S
U6 C23 2.882 1_655 S
U6 O24 2.441 . S
U6 O25 2.420 1_655 S
U6 O26 2.455 1_655 S
U6 O27 2.449 1_655 S
O7 U6 2.454 . S
O7 C9 1.353 . S
O8 U6 2.458 . S
O8 C9 1.286 . S
C9 U6 2.984 . S
C9 O7 1.353 . S
C9 O8 1.286 . S
C9 C11 1.363 . S
C10 C0 1.465 1_655 S
C10 U6 2.847 . S
C10 O24 1.249 . S
C10 O25 1.202 1_655 S
C11 C9 1.363 . S
C11 C13 1.408 . S
C11 C16 1.342 . S
C12 C13 1.310 . S
C12 C15 1.461 . S
C12 H32 0.932 . S
C13 C11 1.408 . S
C13 C12 1.310 . S
C13 H33 0.930 . S
C14 C15 1.474 . S
C14 C16 1.285 . S
C14 H34 0.929 . S
C15 C12 1.461 . S
C15 C14 1.474 . S
C16 C11 1.342 . S
C16 C14 1.285 . S
C16 H35 0.930 . S
C17 C20 1.424 . S
C17 C22 1.245 . S
C17 C23 1.428 . S
C18 C21 1.260 . S
C18 C22 1.477 . S
C18 H36 0.932 . S
C19 C20 1.384 . S
C19 C21 1.479 . S
C19 H37 0.929 . S
C20 C17 1.424 . S
C20 C19 1.384 . S
C20 H38 0.928 . S
C21 C18 1.260 . S
C21 C19 1.479 . S
C22 C17 1.245 . S
C22 C18 1.477 . S
C22 H39 0.932 . S
C23 U6 2.882 1_455 S
C23 C17 1.428 . S
C23 O26 1.301 . S
C23 O27 1.282 . S
O24 U6 2.441 . S
O24 C10 1.249 . S
O25 U6 2.420 1_455 S
O25 C10 1.202 1_455 S
O26 U6 2.455 1_455 S
O26 C23 1.301 . S
O27 U6 2.449 1_455 S
O27 C23 1.282 . S
H28 C1 0.931 . S
H29 C3 0.929 . S
H30 C4 0.930 . S
H31 C5 0.931 . S
H32 C12 0.932 . S
H33 C13 0.930 . S
H34 C14 0.929 . S
H35 C16 0.930 . S
H36 C18 0.932 . S
H37 C19 0.929 . S
H38 C20 0.928 . S
H39 C22 0.932 . S
C40 C41 1.264 . S
C40 C45 1.479 . S
C40 C50 1.465 . S
C41 C40 1.264 . S
C41 C43 1.339 . S
C41 H68 0.931 . S
C42 C43 1.395 . S
C42 C44 1.320 . S
C43 C41 1.339 . S
C43 C42 1.395 . S
C43 H69 0.929 . S
C44 C42 1.320 . S
C44 C45 1.405 . S
C44 H70 0.930 . S
C45 C40 1.479 . S
C45 C44 1.405 . S
C45 H71 0.931 . S
U46 O47 2.454 . S
U46 O48 2.458 . S
U46 C49 2.984 . S
U46 C50 2.847 . S
U46 C63 2.882 . S
U46 O64 2.441 . S
U46 O65 2.420 . S
U46 O66 2.455 . S
U46 O67 2.449 . S
O47 U46 2.454 . S
O47 C49 1.353 . S
O48 U46 2.458 . S
O48 C49 1.286 . S
C49 U46 2.984 . S
C49 O47 1.353 . S
C49 O48 1.286 . S
C49 C51 1.363 . S
C50 C40 1.465 . S
C50 U46 2.847 . S
C50 O64 1.249 . S
C50 O65 1.202 . S
C51 C49 1.363 . S
C51 C53 1.408 . S
C51 C56 1.342 . S
C52 C53 1.310 . S
C52 C55 1.461 . S
C52 H72 0.932 . S
C53 C51 1.408 . S
C53 C52 1.310 . S
C53 H73 0.930 . S
C54 C55 1.474 . S
C54 C56 1.285 . S
C54 H74 0.929 . S
C55 C52 1.461 . S
C55 C54 1.474 . S
C56 C51 1.342 . S
C56 C54 1.285 . S
C56 H75 0.930 . S
C57 C60 1.424 . S
C57 C62 1.245 . S
C57 C63 1.428 . S
C58 C61 1.260 . S
C58 C62 1.477 . S
C58 H76 0.932 . S
C59 C60 1.384 . S
C59 C61 1.479 . S
C59 H77 0.929 . S
C60 C57 1.424 . S
C60 C59 1.384 . S
C60 H78 0.928 . S
C61 C58 1.260 . S
C61 C59 1.479 . S
C62 C57 1.245 . S
C62 C58 1.477 . S
C62 H79 0.932 . S
C63 U46 2.882 . S
C63 C57 1.428 . S
C63 O66 1.301 . S
C63 O67 1.282 . S
O64 U46 2.441 . S
O64 C50 1.249 . S
O65 U46 2.420 . S
O65 C50 1.202 . S
O66 U46 2.455 . S
O66 C63 1.301 . S
O67 U46 2.449 . S
O67 C63 1.282 . S
H68 C41 0.931 . S
H69 C43 0.929 . S
H70 C44 0.930 . S
H71 C45 0.931 . S
H72 C52 0.932 . S
H73 C53 0.930 . S
H74 C54 0.929 . S
H75 C56 0.930 . S
H76 C58 0.932 . S
H77 C59 0.929 . S
H78 C60 0.928 . S
H79 C62 0.932 . S
C80 C81 1.264 . S
C80 C85 1.479 . S
C80 C90 1.465 . S
C81 C80 1.264 . S
C81 C83 1.339 . S
C81 H108 0.931 . S
C82 C83 1.395 . S
C82 C84 1.320 . S
C83 C81 1.339 . S
C83 C82 1.395 . S
C83 H109 0.929 . S
C84 C82 1.320 . S
C84 C85 1.405 . S
C84 H110 0.930 . S
C85 C80 1.479 . S
C85 C84 1.405 . S
C85 H111 0.931 . S
U86 O87 2.454 . S
U86 O88 2.458 . S
U86 C89 2.984 . S
U86 C90 2.847 . S
U86 C103 2.882 . S
U86 O104 2.441 . S
U86 O105 2.420 . S
U86 O106 2.455 . S
U86 O107 2.449 . S
O87 U86 2.454 . S
O87 C89 1.353 . S
O88 U86 2.458 . S
O88 C89 1.286 . S
C89 U86 2.984 . S
C89 O87 1.353 . S
C89 O88 1.286 . S
C89 C91 1.363 . S
C90 C80 1.465 . S
C90 U86 2.847 . S
C90 O104 1.249 . S
C90 O105 1.202 . S
C91 C89 1.363 . S
C91 C93 1.408 . S
C91 C96 1.342 . S
C92 C93 1.310 . S
C92 C95 1.461 . S
C92 H112 0.932 . S
C93 C91 1.408 . S
C93 C92 1.310 . S
C93 H113 0.930 . S
C94 C95 1.474 . S
C94 C96 1.285 . S
C94 H114 0.929 . S
C95 C92 1.461 . S
C95 C94 1.474 . S
C96 C91 1.342 . S
C96 C94 1.285 . S
C96 H115 0.930 . S
C97 C100 1.424 . S
C97 C102 1.245 . S
C97 C103 1.428 . S
C98 C101 1.260 . S
C98 C102 1.477 . S
C98 H116 0.932 . S
C99 C100 1.384 . S
C99 C101 1.479 . S
C99 H117 0.929 . S
C100 C97 1.424 . S
C100 C99 1.384 . S
C100 H118 0.928 . S
C101 C98 1.260 . S
C101 C99 1.479 . S
C102 C97 1.245 . S
C102 C98 1.477 . S
C102 H119 0.932 . S
C103 U86 2.882 . S
C103 C97 1.428 . S
C103 O106 1.301 . S
C103 O107 1.282 . S
O104 U86 2.441 . S
O104 C90 1.249 . S
O105 U86 2.420 . S
O105 C90 1.202 . S
O106 U86 2.455 . S
O106 C103 1.301 . S
O107 U86 2.449 . S
O107 C103 1.282 . S
H108 C81 0.931 . S
H109 C83 0.929 . S
H110 C84 0.930 . S
H111 C85 0.931 . S
H112 C92 0.932 . S
H113 C93 0.930 . S
H114 C94 0.929 . S
H115 C96 0.930 . S
H116 C98 0.932 . S
H117 C99 0.929 . S
H118 C100 0.928 . S
H119 C102 0.932 . S
C120 C121 1.264 . S
C120 C125 1.479 . S
C120 C130 1.465 . S
C121 C120 1.264 . S
C121 C123 1.339 . S
C121 H148 0.931 . S
C122 C123 1.395 . S
C122 C124 1.320 . S
C123 C121 1.339 . S
C123 C122 1.395 . S
C123 H149 0.929 . S
C124 C122 1.320 . S
C124 C125 1.405 . S
C124 H150 0.930 . S
C125 C120 1.479 . S
C125 C124 1.405 . S
C125 H151 0.931 . S
U126 O127 2.454 1_545 S
U126 O128 2.458 1_545 S
U126 C129 2.984 1_545 S
U126 C130 2.847 . S
U126 C143 2.882 . S
U126 O144 2.441 . S
U126 O145 2.420 . S
U126 O146 2.455 1_545 S
U126 O147 2.449 . S
O127 U126 2.454 1_565 S
O127 C129 1.353 . S
O128 U126 2.458 1_565 S
O128 C129 1.286 . S
C129 U126 2.984 1_565 S
C129 O127 1.353 . S
C129 O128 1.286 . S
C129 C131 1.363 . S
C130 C120 1.465 . S
C130 U126 2.847 . S
C130 O144 1.249 . S
C130 O145 1.202 . S
C131 C129 1.363 . S
C131 C133 1.408 . S
C131 C136 1.342 . S
C132 C133 1.310 . S
C132 C135 1.461 . S
C132 H152 0.932 . S
C133 C131 1.408 . S
C133 C132 1.310 . S
C133 H153 0.930 . S
C134 C135 1.474 . S
C134 C136 1.285 . S
C134 H154 0.929 . S
C135 C132 1.461 . S
C135 C134 1.474 . S
C136 C131 1.342 . S
C136 C134 1.285 . S
C136 H155 0.930 . S
C137 C140 1.424 . S
C137 C142 1.245 1_545 S
C137 C143 1.428 . S
C138 C141 1.260 1_565 S
C138 C142 1.477 . S
C138 H156 0.932 . S
C139 C140 1.384 . S
C139 C141 1.479 . S
C139 H157 0.929 . S
C140 C137 1.424 . S
C140 C139 1.384 . S
C140 H158 0.928 . S
C141 C138 1.260 1_545 S
C141 C139 1.479 . S
C142 C137 1.245 1_565 S
C142 C138 1.477 . S
C142 H159 0.932 . S
C143 U126 2.882 . S
C143 C137 1.428 . S
C143 O146 1.301 1_545 S
C143 O147 1.282 . S
O144 U126 2.441 . S
O144 C130 1.249 . S
O145 U126 2.420 . S
O145 C130 1.202 . S
O146 U126 2.455 1_565 S
O146 C143 1.301 1_565 S
O147 U126 2.449 . S
O147 C143 1.282 . S
H148 C121 0.931 . S
H149 C123 0.929 . S
H150 C124 0.930 . S
H151 C125 0.931 . S
H152 C132 0.932 . S
H153 C133 0.930 . S
H154 C134 0.929 . S
H155 C136 0.930 . S
H156 C138 0.932 . S
H157 C139 0.929 . S
H158 C140 0.928 . S
H159 C142 0.932 . S
C160 C161 1.268 . S
C160 C165 1.475 1_455 S
C160 C170 1.464 1_455 S
C161 C160 1.268 . S
C161 C163 1.339 . S
C161 H188 0.931 . S
C162 C163 1.395 . S
C162 C164 1.320 1_455 S
C163 C161 1.339 . S
C163 C162 1.395 . S
C163 H189 0.929 . S
C164 C162 1.320 1_655 S
C164 C165 1.405 . S
C164 H190 0.930 . S
C165 C160 1.475 1_655 S
C165 C164 1.405 . S
C165 H191 0.931 . S
U166 O167 2.454 . S
U166 O168 2.458 . S
U166 C169 2.984 . S
U166 C170 2.847 . S
U166 C183 2.882 1_655 S
U166 O184 2.441 . S
U166 O185 2.420 1_655 S
U166 O186 2.455 1_655 S
U166 O187 2.449 1_655 S
O167 U166 2.454 . S
O167 C169 1.353 . S
O168 U166 2.458 . S
O168 C169 1.286 . S
C169 U166 2.984 . S
C169 O167 1.353 . S
C169 O168 1.286 . S
C169 C171 1.363 . S
C170 C160 1.464 1_655 S
C170 U166 2.847 . S
C170 O184 1.249 . S
C170 O185 1.202 1_655 S
C171 C169 1.363 . S
C171 C173 1.408 . S
C171 C176 1.342 . S
C172 C173 1.310 . S
C172 C175 1.461 . S
C172 H192 0.932 . S
C173 C171 1.408 . S
C173 C172 1.310 . S
C173 H193 0.930 . S
C174 C175 1.474 . S
C174 C176 1.285 . S
C174 H194 0.929 . S
C175 C172 1.461 . S
C175 C174 1.474 . S
C176 C171 1.342 . S
C176 C174 1.285 . S
C176 H195 0.930 . S
C177 C180 1.424 . S
C177 C182 1.245 . S
C177 C183 1.428 . S
C178 C181 1.260 . S
C178 C182 1.477 . S
C178 H196 0.932 . S
C179 C180 1.384 . S
C179 C181 1.479 . S
C179 H197 0.929 . S
C180 C177 1.424 . S
C180 C179 1.384 . S
C180 H198 0.928 . S
C181 C178 1.260 . S
C181 C179 1.479 . S
C182 C177 1.245 . S
C182 C178 1.477 . S
C182 H199 0.932 . S
C183 U166 2.882 1_455 S
C183 C177 1.428 . S
C183 O186 1.301 . S
C183 O187 1.282 . S
O184 U166 2.441 . S
O184 C170 1.249 . S
O185 U166 2.420 1_455 S
O185 C170 1.202 1_455 S
O186 U166 2.455 1_455 S
O186 C183 1.301 . S
O187 U166 2.449 1_455 S
O187 C183 1.282 . S
H188 C161 0.931 . S
H189 C163 0.929 . S
H190 C164 0.930 . S
H191 C165 0.931 . S
H192 C172 0.932 . S
H193 C173 0.930 . S
H194 C174 0.929 . S
H195 C176 0.930 . S
H196 C178 0.932 . S
H197 C179 0.929 . S
H198 C180 0.928 . S
H199 C182 0.932 . S
C200 C201 1.264 . S
C200 C205 1.479 . S
C200 C210 1.465 . S
C201 C200 1.264 . S
C201 C203 1.339 . S
C201 H228 0.931 . S
C202 C203 1.395 . S
C202 C204 1.320 . S
C203 C201 1.339 . S
C203 C202 1.395 . S
C203 H229 0.929 . S
C204 C202 1.320 . S
C204 C205 1.405 . S
C204 H230 0.930 . S
C205 C200 1.479 . S
C205 C204 1.405 . S
C205 H231 0.931 . S
U206 O207 2.454 . S
U206 O208 2.458 . S
U206 C209 2.984 . S
U206 C210 2.847 . S
U206 C223 2.882 . S
U206 O224 2.441 . S
U206 O225 2.420 . S
U206 O226 2.455 . S
U206 O227 2.449 . S
O207 U206 2.454 . S
O207 C209 1.353 . S
O208 U206 2.458 . S
O208 C209 1.286 . S
C209 U206 2.984 . S
C209 O207 1.353 . S
C209 O208 1.286 . S
C209 C211 1.363 . S
C210 C200 1.465 . S
C210 U206 2.847 . S
C210 O224 1.249 . S
C210 O225 1.202 . S
C211 C209 1.363 . S
C211 C213 1.408 . S
C211 C216 1.342 . S
C212 C213 1.310 . S
C212 C215 1.461 . S
C212 H232 0.932 . S
C213 C211 1.408 . S
C213 C212 1.310 . S
C213 H233 0.930 . S
C214 C215 1.474 . S
C214 C216 1.285 . S
C214 H234 0.929 . S
C215 C212 1.461 . S
C215 C214 1.474 . S
C216 C211 1.342 . S
C216 C214 1.285 . S
C216 H235 0.930 . S
C217 C220 1.424 . S
C217 C222 1.245 . S
C217 C223 1.428 . S
C218 C221 1.260 . S
C218 C222 1.477 . S
C218 H236 0.932 . S
C219 C220 1.384 . S
C219 C221 1.479 . S
C219 H237 0.929 . S
C220 C217 1.424 . S
C220 C219 1.384 . S
C220 H238 0.928 . S
C221 C218 1.260 . S
C221 C219 1.479 . S
C222 C217 1.245 . S
C222 C218 1.477 . S
C222 H239 0.932 . S
C223 U206 2.882 . S
C223 C217 1.428 . S
C223 O226 1.301 . S
C223 O227 1.282 . S
O224 U206 2.441 . S
O224 C210 1.249 . S
O225 U206 2.420 . S
O225 C210 1.202 . S
O226 U206 2.455 . S
O226 C223 1.301 . S
O227 U206 2.449 . S
O227 C223 1.282 . S
H228 C201 0.931 . S
H229 C203 0.929 . S
H230 C204 0.930 . S
H231 C205 0.931 . S
H232 C212 0.932 . S
H233 C213 0.930 . S
H234 C214 0.929 . S
H235 C216 0.930 . S
H236 C218 0.932 . S
H237 C219 0.929 . S
H238 C220 0.928 . S
H239 C222 0.932 . S
C240 C241 1.264 . S
C240 C245 1.479 . S
C240 C250 1.465 . S
C241 C240 1.264 . S
C241 C243 1.339 . S
C241 H268 0.931 . S
C242 C243 1.395 . S
C242 C244 1.320 . S
C243 C241 1.339 . S
C243 C242 1.395 . S
C243 H269 0.929 . S
C244 C242 1.320 . S
C244 C245 1.405 . S
C244 H270 0.930 . S
C245 C240 1.479 . S
C245 C244 1.405 . S
C245 H271 0.931 . S
U246 O247 2.454 . S
U246 O248 2.458 . S
U246 C249 2.984 . S
U246 C250 2.847 . S
U246 C263 2.882 . S
U246 O264 2.441 . S
U246 O265 2.420 . S
U246 O266 2.455 . S
U246 O267 2.449 . S
O247 U246 2.454 . S
O247 C249 1.353 . S
O248 U246 2.458 . S
O248 C249 1.286 . S
C249 U246 2.984 . S
C249 O247 1.353 . S
C249 O248 1.286 . S
C249 C251 1.363 . S
C250 C240 1.465 . S
C250 U246 2.847 . S
C250 O264 1.249 . S
C250 O265 1.202 . S
C251 C249 1.363 . S
C251 C253 1.408 . S
C251 C256 1.342 . S
C252 C253 1.310 . S
C252 C255 1.461 . S
C252 H272 0.932 . S
C253 C251 1.408 . S
C253 C252 1.310 . S
C253 H273 0.930 . S
C254 C255 1.474 . S
C254 C256 1.285 . S
C254 H274 0.929 . S
C255 C252 1.461 . S
C255 C254 1.474 . S
C256 C251 1.342 . S
C256 C254 1.285 . S
C256 H275 0.930 . S
C257 C260 1.424 . S
C257 C262 1.245 . S
C257 C263 1.428 . S
C258 C261 1.260 . S
C258 C262 1.477 . S
C258 H276 0.932 . S
C259 C260 1.384 . S
C259 C261 1.479 . S
C259 H277 0.929 . S
C260 C257 1.424 . S
C260 C259 1.384 . S
C260 H278 0.928 . S
C261 C258 1.260 . S
C261 C259 1.479 . S
C262 C257 1.245 . S
C262 C258 1.477 . S
C262 H279 0.932 . S
C263 U246 2.882 . S
C263 C257 1.428 . S
C263 O266 1.301 . S
C263 O267 1.282 . S
O264 U246 2.441 . S
O264 C250 1.249 . S
O265 U246 2.420 . S
O265 C250 1.202 . S
O266 U246 2.455 . S
O266 C263 1.301 . S
O267 U246 2.449 . S
O267 C263 1.282 . S
H268 C241 0.931 . S
H269 C243 0.929 . S
H270 C244 0.930 . S
H271 C245 0.931 . S
H272 C252 0.932 . S
H273 C253 0.930 . S
H274 C254 0.929 . S
H275 C256 0.930 . S
H276 C258 0.932 . S
H277 C259 0.929 . S
H278 C260 0.928 . S
H279 C262 0.932 . S
C280 C281 1.264 . S
C280 C285 1.479 . S
C280 C290 1.465 . S
C281 C280 1.264 . S
C281 C283 1.339 . S
C281 H308 0.947 . S
C282 C283 1.395 . S
C282 C284 1.320 . S
C283 C281 1.339 . S
C283 C282 1.395 . S
C283 H309 0.929 1_545 S
C284 C282 1.320 . S
C284 C285 1.405 . S
C284 H310 0.930 . S
C285 C280 1.479 . S
C285 C284 1.405 . S
C285 H311 0.931 . S
U286 O287 2.454 . S
U286 O288 2.458 . S
U286 C289 2.984 . S
U286 C290 2.847 . S
U286 C303 2.882 1_545 S
U286 O304 2.441 . S
U286 O305 2.420 . S
U286 O306 2.455 . S
U286 O307 2.397 1_545 S
O287 U286 2.454 . S
O287 C289 1.353 . S
O288 U286 2.458 . S
O288 C289 1.286 . S
C289 U286 2.984 . S
C289 O287 1.353 . S
C289 O288 1.286 . S
C289 C291 1.363 . S
C290 C280 1.465 . S
C290 U286 2.847 . S
C290 O304 1.249 . S
C290 O305 1.202 . S
C291 C289 1.363 . S
C291 C293 1.408 . S
C291 C296 1.342 . S
C292 C293 1.310 . S
C292 C295 1.461 . S
C292 H312 0.932 . S
C293 C291 1.408 . S
C293 C292 1.310 . S
C293 H313 0.930 . S
C294 C295 1.474 . S
C294 C296 1.285 . S
C294 H314 0.929 . S
C295 C292 1.461 . S
C295 C294 1.474 . S
C296 C291 1.342 . S
C296 C294 1.285 . S
C296 H315 0.930 . S
C297 C300 1.424 . S
C297 C302 1.245 . S
C297 C303 1.428 . S
C298 C301 1.260 . S
C298 C302 1.477 . S
C298 H316 0.932 . S
C299 C300 1.384 . S
C299 C301 1.479 . S
C299 H317 0.929 . S
C300 C297 1.424 . S
C300 C299 1.384 . S
C300 H318 0.928 . S
C301 C298 1.260 . S
C301 C299 1.479 . S
C302 C297 1.245 . S
C302 C298 1.477 . S
C302 H319 0.932 . S
C303 U286 2.882 1_565 S
C303 C297 1.428 . S
C303 O306 1.301 1_565 S
C303 O307 1.294 . S
O304 U286 2.441 . S
O304 C290 1.249 . S
O305 U286 2.420 . S
O305 C290 1.202 . S
O306 U286 2.455 . S
O306 C303 1.301 1_545 S
O307 U286 2.397 1_565 S
O307 C303 1.294 . S
H308 C281 0.947 . S
H309 C283 0.929 1_565 S
H310 C284 0.930 . S
H311 C285 0.931 . S
H312 C292 0.932 . S
H313 C293 0.930 . S
H314 C294 0.929 . S
H315 C296 0.930 . S
H316 C298 0.932 . S
H317 C299 0.929 . S
H318 C300 0.928 . S
H319 C302 0.932 . S
C320 C321 1.264 . S
C320 C325 1.479 . S
C320 C330 1.465 . S
C321 C320 1.264 . S
C321 C323 1.339 . S
C321 H348 0.931 . S
C322 C323 1.395 . S
C322 C324 1.320 . S
C323 C321 1.339 . S
C323 C322 1.395 . S
C323 H349 0.929 . S
C324 C322 1.320 . S
C324 C325 1.405 . S
C324 H350 0.930 . S
C325 C320 1.479 . S
C325 C324 1.405 . S
C325 H351 0.931 . S
U326 O327 2.505 . S
U326 O328 2.537 . S
U326 C329 3.056 . S
U326 C330 2.785 1_554 S
U326 C343 2.880 1_554 S
U326 O344 2.405 1_554 S
U326 O345 2.343 1_554 S
U326 O346 2.485 . S
U326 O347 2.411 1_554 S
O327 U326 2.505 . S
O327 C329 1.353 . S
O328 U326 2.537 . S
O328 C329 1.286 . S
C329 U326 3.056 . S
C329 O327 1.353 . S
C329 O328 1.286 . S
C329 C331 1.363 . S
C330 C320 1.465 . S
C330 U326 2.785 1_556 S
C330 O344 1.249 . S
C330 O345 1.202 . S
C331 C329 1.363 . S
C331 C333 1.408 . S
C331 C336 1.342 . S
C332 C333 1.310 . S
C332 C335 1.461 . S
C332 H352 0.932 . S
C333 C331 1.408 . S
C333 C332 1.310 . S
C333 H353 0.930 . S
C334 C335 1.474 . S
C334 C336 1.285 . S
C334 H354 0.929 . S
C335 C332 1.461 . S
C335 C334 1.474 . S
C336 C331 1.342 . S
C336 C334 1.285 . S
C336 H355 0.930 . S
C337 C340 1.401 1_554 S
C337 C342 1.272 . S
C337 C343 1.425 1_554 S
C338 C341 1.260 . S
C338 C342 1.477 . S
C338 H356 0.932 . S
C339 C340 1.384 . S
C339 C341 1.479 1_556 S
C339 H357 0.929 . S
C340 C337 1.401 1_556 S
C340 C339 1.384 . S
C340 H358 0.928 . S
C341 C338 1.260 . S
C341 C339 1.479 1_554 S
C342 C337 1.272 . S
C342 C338 1.477 . S
C342 H359 0.932 . S
C343 U326 2.880 1_556 S
C343 C337 1.425 1_556 S
C343 O346 1.281 1_556 S
C343 O347 1.304 . S
O344 U326 2.405 1_556 S
O344 C330 1.249 . S
O345 U326 2.343 1_556 S
O345 C330 1.202 . S
O346 U326 2.485 . S
O346 C343 1.281 1_554 S
O347 U326 2.411 1_556 S
O347 C343 1.304 . S
H348 C321 0.931 . S
H349 C323 0.929 . S
H350 C324 0.930 . S
H351 C325 0.931 . S
H352 C332 0.932 . S
H353 C333 0.930 . S
H354 C334 0.929 . S
H355 C336 0.930 . S
H356 C338 0.932 . S
H357 C339 0.929 . S
H358 C340 0.928 . S
H359 C342 0.932 . S
C360 C361 1.264 . S
C360 C365 1.479 . S
C360 C370 1.465 . S
C361 C360 1.264 . S
C361 C363 1.339 . S
C361 H388 0.931 . S
C362 C363 1.395 . S
C362 C364 1.320 . S
C363 C361 1.339 . S
C363 C362 1.395 . S
C363 H389 0.929 . S
C364 C362 1.320 . S
C364 C365 1.405 . S
C364 H390 0.930 . S
C365 C360 1.479 . S
C365 C364 1.405 . S
C365 H391 0.931 . S
U366 O367 2.454 . S
U366 O368 2.458 . S
U366 C369 2.984 . S
U366 C370 2.847 . S
U366 C383 2.882 . S
U366 O384 2.441 . S
U366 O385 2.420 . S
U366 O386 2.455 . S
U366 O387 2.449 . S
O367 U366 2.454 . S
O367 C369 1.353 . S
O368 U366 2.458 . S
O368 C369 1.286 . S
C369 U366 2.984 . S
C369 O367 1.353 . S
C369 O368 1.286 . S
C369 C371 1.363 . S
C370 C360 1.465 . S
C370 U366 2.847 . S
C370 O384 1.249 . S
C370 O385 1.202 . S
C371 C369 1.363 . S
C371 C373 1.408 . S
C371 C376 1.342 . S
C372 C373 1.310 . S
C372 C375 1.461 . S
C372 H392 0.932 . S
C373 C371 1.408 . S
C373 C372 1.310 . S
C373 H393 0.930 . S
C374 C375 1.474 . S
C374 C376 1.285 . S
C374 H394 0.929 . S
C375 C372 1.461 . S
C375 C374 1.474 . S
C376 C371 1.342 . S
C376 C374 1.285 . S
C376 H395 0.930 . S
C377 C380 1.424 . S
C377 C382 1.245 . S
C377 C383 1.428 . S
C378 C381 1.260 . S
C378 C382 1.477 . S
C378 H396 0.932 . S
C379 C380 1.384 . S
C379 C381 1.479 . S
C379 H397 0.929 . S
C380 C377 1.424 . S
C380 C379 1.384 . S
C380 H398 0.928 . S
C381 C378 1.260 . S
C381 C379 1.479 . S
C382 C377 1.245 . S
C382 C378 1.477 . S
C382 H399 0.932 . S
C383 U366 2.882 . S
C383 C377 1.428 . S
C383 O386 1.301 . S
C383 O387 1.282 . S
O384 U366 2.441 . S
O384 C370 1.249 . S
O385 U366 2.420 . S
O385 C370 1.202 . S
O386 U366 2.455 . S
O386 C383 1.301 . S
O387 U366 2.449 . S
O387 C383 1.282 . S
H388 C361 0.931 . S
H389 C363 0.929 . S
H390 C364 0.930 . S
H391 C365 0.931 . S
H392 C372 0.932 . S
H393 C373 0.930 . S
H394 C374 0.929 . S
H395 C376 0.930 . S
H396 C378 0.932 . S
H397 C379 0.929 . S
H398 C380 0.928 . S
H399 C382 0.932 . S
C400 C401 1.264 . S
C400 C405 1.479 . S
C400 C410 1.465 . S
C401 C400 1.264 . S
C401 C403 1.339 . S
C401 H428 0.931 . S
C402 C403 1.395 . S
C402 C404 1.320 . S
C403 C401 1.339 . S
C403 C402 1.395 . S
C403 H429 0.929 . S
C404 C402 1.320 . S
C404 C405 1.405 . S
C404 H430 0.930 . S
C405 C400 1.479 . S
C405 C404 1.405 . S
C405 H431 0.931 . S
U406 O407 2.454 . S
U406 O408 2.458 . S
U406 C409 2.984 . S
U406 C410 2.847 . S
U406 C423 2.882 . S
U406 O424 2.441 . S
U406 O425 2.420 . S
U406 O426 2.455 . S
U406 O427 2.449 . S
O407 U406 2.454 . S
O407 C409 1.353 . S
O408 U406 2.458 . S
O408 C409 1.286 . S
C409 U406 2.984 . S
C409 O407 1.353 . S
C409 O408 1.286 . S
C409 C411 1.363 . S
C410 C400 1.465 . S
C410 U406 2.847 . S
C410 O424 1.249 . S
C410 O425 1.202 . S
C411 C409 1.363 . S
C411 C413 1.408 . S
C411 C416 1.342 . S
C412 C413 1.310 . S
C412 C415 1.461 . S
C412 H432 0.932 . S
C413 C411 1.408 . S
C413 C412 1.310 . S
C413 H433 0.930 . S
C414 C415 1.474 . S
C414 C416 1.285 . S
C414 H434 0.929 . S
C415 C412 1.461 . S
C415 C414 1.474 . S
C416 C411 1.342 . S
C416 C414 1.285 . S
C416 H435 0.930 . S
C417 C420 1.424 . S
C417 C422 1.245 . S
C417 C423 1.428 . S
C418 C421 1.260 . S
C418 C422 1.477 . S
C418 H436 0.932 . S
C419 C420 1.384 . S
C419 C421 1.479 . S
C419 H437 0.929 . S
C420 C417 1.424 . S
C420 C419 1.384 . S
C420 H438 0.928 . S
C421 C418 1.260 . S
C421 C419 1.479 . S
C422 C417 1.245 . S
C422 C418 1.477 . S
C422 H439 0.932 . S
C423 U406 2.882 . S
C423 C417 1.428 . S
C423 O426 1.301 . S
C423 O427 1.282 . S
O424 U406 2.441 . S
O424 C410 1.249 . S
O425 U406 2.420 . S
O425 C410 1.202 . S
O426 U406 2.455 . S
O426 C423 1.301 . S
O427 U406 2.449 . S
O427 C423 1.282 . S
H428 C401 0.931 . S
H429 C403 0.929 . S
H430 C404 0.930 . S
H431 C405 0.931 . S
H432 C412 0.932 . S
H433 C413 0.930 . S
H434 C414 0.929 . S
H435 C416 0.930 . S
H436 C418 0.932 . S
H437 C419 0.929 . S
H438 C420 0.928 . S
H439 C422 0.932 . S
C440 C441 1.251 1_554 S
C440 C445 1.479 . S
C440 C450 1.465 . S
C441 C440 1.251 1_556 S
C441 C443 1.341 . S
C441 H468 0.942 . S
C442 C443 1.395 1_554 S
C442 C444 1.320 . S
C443 C441 1.341 . S
C443 C442 1.395 1_556 S
C443 H469 0.929 . S
C444 C442 1.320 . S
C444 C445 1.405 . S
C444 H470 0.930 . S
C445 C440 1.479 . S
C445 C444 1.405 . S
C445 H471 0.931 . S
U446 O447 2.454 . S
U446 O448 2.458 . S
U446 C449 2.984 . S
U446 C450 2.847 . S
U446 C463 2.882 1_554 S
U446 O464 2.441 . S
U446 O465 2.420 . S
U446 O466 2.451 . S
U446 O467 2.449 1_554 S
O447 U446 2.454 . S
O447 C449 1.353 . S
O448 U446 2.458 . S
O448 C449 1.286 . S
C449 U446 2.984 . S
C449 O447 1.353 . S
C449 O448 1.286 . S
C449 C451 1.363 . S
C450 C440 1.465 . S
C450 U446 2.847 . S
C450 O464 1.249 . S
C450 O465 1.202 . S
C451 C449 1.363 . S
C451 C453 1.408 . S
C451 C456 1.342 . S
C452 C453 1.310 . S
C452 C455 1.461 . S
C452 H472 0.932 . S
C453 C451 1.408 . S
C453 C452 1.310 . S
C453 H473 0.930 . S
C454 C455 1.474 . S
C454 C456 1.285 . S
C454 H474 0.929 . S
C455 C452 1.461 . S
C455 C454 1.474 . S
C456 C451 1.342 . S
C456 C454 1.285 . S
C456 H475 0.930 . S
C457 C460 1.424 . S
C457 C462 1.245 . S
C457 C463 1.428 . S
C458 C461 1.260 . S
C458 C462 1.477 . S
C458 H476 0.932 . S
C459 C460 1.384 . S
C459 C461 1.479 . S
C459 H477 0.929 . S
C460 C457 1.424 . S
C460 C459 1.384 . S
C460 H478 0.928 . S
C461 C458 1.260 . S
C461 C459 1.479 . S
C462 C457 1.245 . S
C462 C458 1.477 . S
C462 H479 0.932 . S
C463 U446 2.882 1_556 S
C463 C457 1.428 . S
C463 O466 1.309 1_556 S
C463 O467 1.282 . S
O464 U446 2.441 . S
O464 C450 1.249 . S
O465 U446 2.420 . S
O465 C450 1.202 . S
O466 U446 2.451 . S
O466 C463 1.309 1_554 S
O467 U446 2.449 1_556 S
O467 C463 1.282 . S
H468 C441 0.942 . S
H469 C443 0.929 . S
H470 C444 0.930 . S
H471 C445 0.931 . S
H472 C452 0.932 . S
H473 C453 0.930 . S
H474 C454 0.929 . S
H475 C456 0.930 . S
H476 C458 0.932 . S
H477 C459 0.929 . S
H478 C460 0.928 . S
H479 C462 0.932 . S
C480 C481 1.264 . S
C480 C485 1.479 . S
C480 C490 1.465 . S
C481 C480 1.264 . S
C481 C483 1.339 . S
C481 H508 0.931 . S
C482 C483 1.395 . S
C482 C484 1.320 . S
C483 C481 1.339 . S
C483 C482 1.395 . S
C483 H509 0.929 . S
C484 C482 1.320 . S
C484 C485 1.405 . S
C484 H510 0.930 1_455 S
C485 C480 1.479 . S
C485 C484 1.405 . S
C485 H511 0.931 1_455 S
U486 O487 2.454 1_455 S
U486 O488 2.430 1_455 S
U486 C489 2.984 1_455 S
U486 C490 2.847 . S
U486 C503 2.882 . S
U486 O504 2.441 . S
U486 O505 2.420 . S
U486 O506 2.455 . S
U486 O507 2.449 . S
O487 U486 2.454 1_655 S
O487 C489 1.353 . S
O488 U486 2.430 1_655 S
O488 C489 1.327 . S
C489 U486 2.984 1_655 S
C489 O487 1.353 . S
C489 O488 1.327 . S
C489 C491 1.363 . S
C490 C480 1.465 . S
C490 U486 2.847 . S
C490 O504 1.249 . S
C490 O505 1.202 . S
C491 C489 1.363 . S
C491 C493 1.408 . S
C491 C496 1.342 . S
C492 C493 1.310 . S
C492 C495 1.461 . S
C492 H512 0.932 . S
C493 C491 1.408 . S
C493 C492 1.310 . S
C493 H513 0.930 . S
C494 C495 1.474 . S
C494 C496 1.285 . S
C494 H514 0.929 . S
C495 C492 1.461 . S
C495 C494 1.474 . S
C496 C491 1.342 . S
C496 C494 1.285 . S
C496 H515 0.930 . S
C497 C500 1.424 . S
C497 C502 1.245 . S
C497 C503 1.428 . S
C498 C501 1.260 . S
C498 C502 1.477 . S
C498 H516 0.932 . S
C499 C500 1.384 . S
C499 C501 1.479 . S
C499 H517 0.929 . S
C500 C497 1.424 . S
C500 C499 1.384 . S
C500 H518 0.928 . S
C501 C498 1.260 . S
C501 C499 1.479 . S
C502 C497 1.245 . S
C502 C498 1.477 . S
C502 H519 0.932 . S
C503 U486 2.882 . S
C503 C497 1.428 . S
C503 O506 1.301 . S
C503 O507 1.282 . S
O504 U486 2.441 . S
O504 C490 1.249 . S
O505 U486 2.420 . S
O505 C490 1.202 . S
O506 U486 2.455 . S
O506 C503 1.301 . S
O507 U486 2.449 . S
O507 C503 1.282 . S
H508 C481 0.931 . S
H509 C483 0.929 . S
H510 C484 0.930 1_655 S
H511 C485 0.931 1_655 S
H512 C492 0.932 . S
H513 C493 0.930 . S
H514 C494 0.929 . S
H515 C496 0.930 . S
H516 C498 0.932 . S
H517 C499 0.929 . S
H518 C500 0.928 . S
H519 C502 0.932 . S
C520 C521 1.264 . S
C520 C525 1.479 . S
C520 C530 1.465 . S
C521 C520 1.264 . S
C521 C523 1.339 . S
C521 H548 0.931 . S
C522 C523 1.395 . S
C522 C524 1.320 . S
C523 C521 1.339 . S
C523 C522 1.395 . S
C523 H549 0.929 . S
C524 C522 1.320 . S
C524 C525 1.405 . S
C524 H550 0.930 . S
C525 C520 1.479 . S
C525 C524 1.405 . S
C525 H551 0.931 . S
U526 O527 2.454 . S
U526 O528 2.458 . S
U526 C529 2.984 . S
U526 C530 2.847 . S
U526 C543 2.882 . S
U526 O544 2.441 . S
U526 O545 2.420 . S
U526 O546 2.455 . S
U526 O547 2.449 . S
O527 U526 2.454 . S
O527 C529 1.353 . S
O528 U526 2.458 . S
O528 C529 1.286 . S
C529 U526 2.984 . S
C529 O527 1.353 . S
C529 O528 1.286 . S
C529 C531 1.363 . S
C530 C520 1.465 . S
C530 U526 2.847 . S
C530 O544 1.249 . S
C530 O545 1.202 . S
C531 C529 1.363 . S
C531 C533 1.408 . S
C531 C536 1.342 . S
C532 C533 1.310 . S
C532 C535 1.461 . S
C532 H552 0.932 . S
C533 C531 1.408 . S
C533 C532 1.310 . S
C533 H553 0.930 . S
C534 C535 1.474 . S
C534 C536 1.285 . S
C534 H554 0.929 . S
C535 C532 1.461 . S
C535 C534 1.474 . S
C536 C531 1.342 . S
C536 C534 1.285 . S
C536 H555 0.930 . S
C537 C540 1.424 . S
C537 C542 1.245 . S
C537 C543 1.428 . S
C538 C541 1.260 . S
C538 C542 1.477 . S
C538 H556 0.932 . S
C539 C540 1.384 . S
C539 C541 1.479 . S
C539 H557 0.929 . S
C540 C537 1.424 . S
C540 C539 1.384 . S
C540 H558 0.928 . S
C541 C538 1.260 . S
C541 C539 1.479 . S
C542 C537 1.245 . S
C542 C538 1.477 . S
C542 H559 0.932 . S
C543 U526 2.882 . S
C543 C537 1.428 . S
C543 O546 1.301 . S
C543 O547 1.282 . S
O544 U526 2.441 . S
O544 C530 1.249 . S
O545 U526 2.420 . S
O545 C530 1.202 . S
O546 U526 2.455 . S
O546 C543 1.301 . S
O547 U526 2.449 . S
O547 C543 1.282 . S
H548 C521 0.931 . S
H549 C523 0.929 . S
H550 C524 0.930 . S
H551 C525 0.931 . S
H552 C532 0.932 . S
H553 C533 0.930 . S
H554 C534 0.929 . S
H555 C536 0.930 . S
H556 C538 0.932 . S
H557 C539 0.929 . S
H558 C540 0.928 . S
H559 C542 0.932 . S
C560 C561 1.264 . S
C560 C565 1.479 . S
C560 C570 1.465 . S
C561 C560 1.264 . S
C561 C563 1.339 . S
C561 H588 0.931 . S
C562 C563 1.395 . S
C562 C564 1.320 . S
C563 C561 1.339 . S
C563 C562 1.395 . S
C563 H589 0.929 . S
C564 C562 1.320 . S
C564 C565 1.405 . S
C564 H590 0.930 . S
C565 C560 1.479 . S
C565 C564 1.405 . S
C565 H591 0.931 . S
U566 O567 2.454 . S
U566 O568 2.458 . S
U566 C569 2.984 . S
U566 C570 2.847 . S
U566 C583 2.882 . S
U566 O584 2.441 . S
U566 O585 2.420 . S
U566 O586 2.455 . S
U566 O587 2.449 . S
O567 U566 2.454 . S
O567 C569 1.353 . S
O568 U566 2.458 . S
O568 C569 1.286 . S
C569 U566 2.984 . S
C569 O567 1.353 . S
C569 O568 1.286 . S
C569 C571 1.363 . S
C570 C560 1.465 . S
C570 U566 2.847 . S
C570 O584 1.249 . S
C570 O585 1.202 . S
C571 C569 1.363 . S
C571 C573 1.408 . S
C571 C576 1.342 . S
C572 C573 1.310 . S
C572 C575 1.461 . S
C572 H592 0.932 . S
C573 C571 1.408 . S
C573 C572 1.310 . S
C573 H593 0.930 . S
C574 C575 1.474 . S
C574 C576 1.285 . S
C574 H594 0.929 . S
C575 C572 1.461 . S
C575 C574 1.474 . S
C576 C571 1.342 . S
C576 C574 1.285 . S
C576 H595 0.930 . S
C577 C580 1.424 . S
C577 C582 1.245 . S
C577 C583 1.428 . S
C578 C581 1.260 . S
C578 C582 1.477 . S
C578 H596 0.932 . S
C579 C580 1.384 . S
C579 C581 1.479 . S
C579 H597 0.929 . S
C580 C577 1.424 . S
C580 C579 1.384 . S
C580 H598 0.928 . S
C581 C578 1.260 . S
C581 C579 1.479 . S
C582 C577 1.245 . S
C582 C578 1.477 . S
C582 H599 0.932 . S
C583 U566 2.882 . S
C583 C577 1.428 . S
C583 O586 1.301 . S
C583 O587 1.282 . S
O584 U566 2.441 . S
O584 C570 1.249 . S
O585 U566 2.420 . S
O585 C570 1.202 . S
O586 U566 2.455 . S
O586 C583 1.301 . S
O587 U566 2.449 . S
O587 C583 1.282 . S
H588 C561 0.931 . S
H589 C563 0.929 . S
H590 C564 0.930 . S
H591 C565 0.931 . S
H592 C572 0.932 . S
H593 C573 0.930 . S
H594 C574 0.929 . S
H595 C576 0.930 . S
H596 C578 0.932 . S
H597 C579 0.929 . S
H598 C580 0.928 . S
H599 C582 0.932 . S
C600 C601 1.264 . S
C600 C605 1.479 1_545 S
C600 C610 1.465 . S
C601 C600 1.264 . S
C601 C603 1.339 . S
C601 H628 0.931 . S
C602 C603 1.395 . S
C602 C604 1.320 1_545 S
C603 C601 1.339 . S
C603 C602 1.395 . S
C603 H629 0.929 . S
C604 C602 1.320 1_565 S
C604 C605 1.405 . S
C604 H630 0.930 . S
C605 C600 1.479 1_565 S
C605 C604 1.405 . S
C605 H631 0.931 . S
U606 O607 2.454 1_545 S
U606 O608 2.458 1_545 S
U606 C609 2.984 1_545 S
U606 C610 2.847 . S
U606 C623 2.882 . S
U606 O624 2.441 1_545 S
U606 O625 2.420 . S
U606 O626 2.455 . S
U606 O627 2.449 . S
O607 U606 2.454 1_565 S
O607 C609 1.353 . S
O608 U606 2.458 1_565 S
O608 C609 1.286 . S
C609 U606 2.984 1_565 S
C609 O607 1.353 . S
C609 O608 1.286 . S
C609 C611 1.363 . S
C610 C600 1.465 . S
C610 U606 2.847 . S
C610 O624 1.249 1_545 S
C610 O625 1.202 . S
C611 C609 1.363 . S
C611 C613 1.408 . S
C611 C616 1.342 . S
C612 C613 1.310 . S
C612 C615 1.461 . S
C612 H632 0.932 . S
C613 C611 1.408 . S
C613 C612 1.310 . S
C613 H633 0.930 . S
C614 C615 1.474 . S
C614 C616 1.285 . S
C614 H634 0.929 . S
C615 C612 1.461 . S
C615 C614 1.474 . S
C616 C611 1.342 . S
C616 C614 1.285 . S
C616 H635 0.930 . S
C617 C620 1.424 . S
C617 C622 1.245 . S
C617 C623 1.428 . S
C618 C621 1.260 . S
C618 C622 1.477 . S
C618 H636 0.932 . S
C619 C620 1.384 . S
C619 C621 1.479 . S
C619 H637 0.929 . S
C620 C617 1.424 . S
C620 C619 1.384 . S
C620 H638 0.928 . S
C621 C618 1.260 . S
C621 C619 1.479 . S
C622 C617 1.245 . S
C622 C618 1.477 . S
C622 H639 0.932 . S
C623 U606 2.882 . S
C623 C617 1.428 . S
C623 O626 1.301 . S
C623 O627 1.282 . S
O624 U606 2.441 1_565 S
O624 C610 1.249 1_565 S
O625 U606 2.420 . S
O625 C610 1.202 . S
O626 U606 2.455 . S
O626 C623 1.301 . S
O627 U606 2.449 . S
O627 C623 1.282 . S
H628 C601 0.931 . S
H629 C603 0.929 . S
H630 C604 0.930 . S
H631 C605 0.931 . S
H632 C612 0.932 . S
H633 C613 0.930 . S
H634 C614 0.929 . S
H635 C616 0.930 . S
H636 C618 0.932 . S
H637 C619 0.929 . S
H638 C620 0.928 . S
H639 C622 0.932 . S
C640 C641 1.264 . S
C640 C645 1.479 . S
C640 C650 1.465 . S
C641 C640 1.264 . S
C641 C643 1.339 . S
C641 H668 0.931 . S
C642 C643 1.395 . S
C642 C644 1.320 . S
C643 C641 1.339 . S
C643 C642 1.395 . S
C643 H669 0.929 . S
C644 C642 1.320 . S
C644 C645 1.405 . S
C644 H670 0.930 1_455 S
C645 C640 1.479 . S
C645 C644 1.405 . S
C645 H671 0.931 1_455 S
U646 O647 2.454 1_455 S
U646 O648 2.423 1_455 S
U646 C649 2.984 1_455 S
U646 C650 2.847 . S
U646 C663 2.882 . S
U646 O664 2.441 . S
U646 O665 2.420 . S
U646 O666 2.455 . S
U646 O667 2.449 . S
O647 U646 2.454 1_655 S
O647 C649 1.353 . S
O648 U646 2.423 1_655 S
O648 C649 1.337 . S
C649 U646 2.984 1_655 S
C649 O647 1.353 . S
C649 O648 1.337 . S
C649 C651 1.363 . S
C650 C640 1.465 . S
C650 U646 2.847 . S
C650 O664 1.249 . S
C650 O665 1.202 . S
C651 C649 1.363 . S
C651 C653 1.408 . S
C651 C656 1.342 . S
C652 C653 1.310 . S
C652 C655 1.461 . S
C652 H672 0.932 . S
C653 C651 1.408 . S
C653 C652 1.310 . S
C653 H673 0.930 . S
C654 C655 1.474 . S
C654 C656 1.285 . S
C654 H674 0.929 . S
C655 C652 1.461 . S
C655 C654 1.474 . S
C656 C651 1.342 . S
C656 C654 1.285 . S
C656 H675 0.930 . S
C657 C660 1.424 . S
C657 C662 1.245 . S
C657 C663 1.428 . S
C658 C661 1.260 . S
C658 C662 1.477 . S
C658 H676 0.932 . S
C659 C660 1.384 . S
C659 C661 1.479 . S
C659 H677 0.929 . S
C660 C657 1.424 . S
C660 C659 1.384 . S
C660 H678 0.928 . S
C661 C658 1.260 . S
C661 C659 1.479 . S
C662 C657 1.245 . S
C662 C658 1.477 . S
C662 H679 0.932 . S
C663 U646 2.882 . S
C663 C657 1.428 . S
C663 O666 1.301 . S
C663 O667 1.282 . S
O664 U646 2.441 . S
O664 C650 1.249 . S
O665 U646 2.420 . S
O665 C650 1.202 . S
O666 U646 2.455 . S
O666 C663 1.301 . S
O667 U646 2.449 . S
O667 C663 1.282 . S
H668 C641 0.931 . S
H669 C643 0.929 . S
H670 C644 0.930 1_655 S
H671 C645 0.931 1_655 S
H672 C652 0.932 . S
H673 C653 0.930 . S
H674 C654 0.929 . S
H675 C656 0.930 . S
H676 C658 0.932 . S
H677 C659 0.929 . S
H678 C660 0.928 . S
H679 C662 0.932 . S
C680 C681 1.264 . S
C680 C685 1.479 . S
C680 C690 1.465 . S
C681 C680 1.264 . S
C681 C683 1.339 . S
C681 H708 0.931 . S
C682 C683 1.395 . S
C682 C684 1.320 . S
C683 C681 1.339 . S
C683 C682 1.395 . S
C683 H709 0.929 . S
C684 C682 1.320 . S
C684 C685 1.405 . S
C684 H710 0.930 . S
C685 C680 1.479 . S
C685 C684 1.405 . S
C685 H711 0.931 . S
U686 O687 2.454 . S
U686 O688 2.458 . S
U686 C689 2.984 . S
U686 C690 2.847 . S
U686 C703 2.882 . S
U686 O704 2.441 . S
U686 O705 2.420 . S
U686 O706 2.455 . S
U686 O707 2.449 . S
O687 U686 2.454 . S
O687 C689 1.353 . S
O688 U686 2.458 . S
O688 C689 1.286 . S
C689 U686 2.984 . S
C689 O687 1.353 . S
C689 O688 1.286 . S
C689 C691 1.363 . S
C690 C680 1.465 . S
C690 U686 2.847 . S
C690 O704 1.249 . S
C690 O705 1.202 . S
C691 C689 1.363 . S
C691 C693 1.408 . S
C691 C696 1.342 . S
C692 C693 1.310 . S
C692 C695 1.461 . S
C692 H712 0.932 . S
C693 C691 1.408 . S
C693 C692 1.310 . S
C693 H713 0.930 . S
C694 C695 1.474 . S
C694 C696 1.285 . S
C694 H714 0.929 . S
C695 C692 1.461 . S
C695 C694 1.474 . S
C696 C691 1.342 . S
C696 C694 1.285 . S
C696 H715 0.930 . S
C697 C700 1.424 . S
C697 C702 1.245 . S
C697 C703 1.428 . S
C698 C701 1.260 . S
C698 C702 1.477 . S
C698 H716 0.932 . S
C699 C700 1.384 . S
C699 C701 1.479 . S
C699 H717 0.929 . S
C700 C697 1.424 . S
C700 C699 1.384 . S
C700 H718 0.928 . S
C701 C698 1.260 . S
C701 C699 1.479 . S
C702 C697 1.245 . S
C702 C698 1.477 . S
C702 H719 0.932 . S
C703 U686 2.882 . S
C703 C697 1.428 . S
C703 O706 1.301 . S
C703 O707 1.282 . S
O704 U686 2.441 . S
O704 C690 1.249 . S
O705 U686 2.420 . S
O705 C690 1.202 . S
O706 U686 2.455 . S
O706 C703 1.301 . S
O707 U686 2.449 . S
O707 C703 1.282 . S
H708 C681 0.931 . S
H709 C683 0.929 . S
H710 C684 0.930 . S
H711 C685 0.931 . S
H712 C692 0.932 . S
H713 C693 0.930 . S
H714 C694 0.929 . S
H715 C696 0.930 . S
H716 C698 0.932 . S
H717 C699 0.929 . S
H718 C700 0.928 . S
H719 C702 0.932 . S
C720 C721 1.264 . S
C720 C725 1.479 . S
C720 C730 1.465 . S
C721 C720 1.264 . S
C721 C723 1.339 . S
C721 H748 0.931 . S
C722 C723 1.395 . S
C722 C724 1.320 . S
C723 C721 1.339 . S
C723 C722 1.395 . S
C723 H749 0.929 . S
C724 C722 1.320 . S
C724 C725 1.405 . S
C724 H750 0.930 . S
C725 C720 1.479 . S
C725 C724 1.405 . S
C725 H751 0.931 . S
U726 O727 2.454 . S
U726 O728 2.458 . S
U726 C729 2.984 . S
U726 C730 2.847 . S
U726 C743 2.882 . S
U726 O744 2.441 . S
U726 O745 2.420 . S
U726 O746 2.455 . S
U726 O747 2.449 . S
O727 U726 2.454 . S
O727 C729 1.353 . S
O728 U726 2.458 . S
O728 C729 1.286 . S
C729 U726 2.984 . S
C729 O727 1.353 . S
C729 O728 1.286 . S
C729 C731 1.363 . S
C730 C720 1.465 . S
C730 U726 2.847 . S
C730 O744 1.249 . S
C730 O745 1.202 . S
C731 C729 1.363 . S
C731 C733 1.408 . S
C731 C736 1.342 . S
C732 C733 1.310 . S
C732 C735 1.461 . S
C732 H752 0.932 . S
C733 C731 1.408 . S
C733 C732 1.310 . S
C733 H753 0.930 . S
C734 C735 1.474 . S
C734 C736 1.285 . S
C734 H754 0.929 . S
C735 C732 1.461 . S
C735 C734 1.474 . S
C736 C731 1.342 . S
C736 C734 1.285 . S
C736 H755 0.930 . S
C737 C740 1.424 . S
C737 C742 1.245 . S
C737 C743 1.428 . S
C738 C741 1.260 . S
C738 C742 1.477 . S
C738 H756 0.932 . S
C739 C740 1.384 . S
C739 C741 1.479 . S
C739 H757 0.929 . S
C740 C737 1.424 . S
C740 C739 1.384 . S
C740 H758 0.928 . S
C741 C738 1.260 . S
C741 C739 1.479 . S
C742 C737 1.245 . S
C742 C738 1.477 . S
C742 H759 0.932 . S
C743 U726 2.882 . S
C743 C737 1.428 . S
C743 O746 1.301 . S
C743 O747 1.282 . S
O744 U726 2.441 . S
O744 C730 1.249 . S
O745 U726 2.420 . S
O745 C730 1.202 . S
O746 U726 2.455 . S
O746 C743 1.301 . S
O747 U726 2.449 . S
O747 C743 1.282 . S
H748 C721 0.931 . S
H749 C723 0.929 . S
H750 C724 0.930 . S
H751 C725 0.931 . S
H752 C732 0.932 . S
H753 C733 0.930 . S
H754 C734 0.929 . S
H755 C736 0.930 . S
H756 C738 0.932 . S
H757 C739 0.929 . S
H758 C740 0.928 . S
H759 C742 0.932 . S
C760 C761 1.264 . S
C760 C765 1.479 . S
C760 C770 1.465 . S
C761 C760 1.264 . S
C761 C763 1.339 . S
C761 H788 0.931 . S
C762 C763 1.395 . S
C762 C764 1.320 . S
C763 C761 1.339 . S
C763 C762 1.395 . S
C763 H789 0.929 . S
C764 C762 1.320 . S
C764 C765 1.405 . S
C764 H790 0.930 . S
C765 C760 1.479 . S
C765 C764 1.405 . S
C765 H791 0.931 . S
U766 O767 2.454 . S
U766 O768 2.458 . S
U766 C769 2.984 . S
U766 C770 2.847 1_545 S
U766 C783 2.882 . S
U766 O784 2.441 . S
U766 O785 2.362 1_545 S
U766 O786 2.455 . S
U766 O787 2.449 . S
O767 U766 2.454 . S
O767 C769 1.353 . S
O768 U766 2.458 . S
O768 C769 1.286 . S
C769 U766 2.984 . S
C769 O767 1.353 . S
C769 O768 1.286 . S
C769 C771 1.363 . S
C770 C760 1.465 . S
C770 U766 2.847 1_565 S
C770 O784 1.249 1_565 S
C770 O785 1.217 . S
C771 C769 1.363 . S
C771 C773 1.408 . S
C771 C776 1.342 . S
C772 C773 1.310 . S
C772 C775 1.461 . S
C772 H792 0.932 . S
C773 C771 1.408 . S
C773 C772 1.310 . S
C773 H793 0.930 . S
C774 C775 1.474 . S
C774 C776 1.285 . S
C774 H794 0.929 . S
C775 C772 1.461 . S
C775 C774 1.474 . S
C776 C771 1.342 . S
C776 C774 1.285 . S
C776 H795 0.930 . S
C777 C780 1.424 . S
C777 C782 1.245 . S
C777 C783 1.428 . S
C778 C781 1.260 . S
C778 C782 1.477 . S
C778 H796 0.932 . S
C779 C780 1.384 . S
C779 C781 1.479 . S
C779 H797 0.929 1_545 S
C780 C777 1.424 . S
C780 C779 1.384 . S
C780 H798 0.928 1_545 S
C781 C778 1.260 . S
C781 C779 1.479 . S
C782 C777 1.245 . S
C782 C778 1.477 . S
C782 H799 0.932 . S
C783 U766 2.882 . S
C783 C777 1.428 . S
C783 O786 1.301 . S
C783 O787 1.282 . S
O784 U766 2.441 . S
O784 C770 1.249 1_545 S
O785 U766 2.362 1_565 S
O785 C770 1.217 . S
O786 U766 2.455 . S
O786 C783 1.301 . S
O787 U766 2.449 . S
O787 C783 1.282 . S
H788 C761 0.931 . S
H789 C763 0.929 . S
H790 C764 0.930 . S
H791 C765 0.931 . S
H792 C772 0.932 . S
H793 C773 0.930 . S
H794 C774 0.929 . S
H795 C776 0.930 . S
H796 C778 0.932 . S
H797 C779 0.929 1_565 S
H798 C780 0.928 1_565 S
H799 C782 0.932 . S
C800 C801 1.308 . S
C800 C805 1.436 1_556 S
C800 C810 1.464 . S
C801 C800 1.308 . S
C801 C803 1.339 . S
C801 H828 0.931 . S
C802 C803 1.342 1_554 S
C802 C804 1.374 . S
C803 C801 1.339 . S
C803 C802 1.342 1_556 S
C803 H829 0.929 . S
C804 C802 1.374 . S
C804 C805 1.405 . S
C804 H830 0.930 . S
C805 C800 1.436 1_554 S
C805 C804 1.405 . S
C805 H831 0.931 . S
U806 O807 2.464 . S
U806 O808 2.464 . S
U806 C809 2.993 . S
U806 C810 2.847 1_554 S
U806 C823 2.874 1_554 S
U806 O824 2.445 . S
U806 O825 2.416 1_554 S
U806 O826 2.450 1_554 S
U806 O827 2.439 1_554 S
O807 U806 2.464 . S
O807 C809 1.353 . S
O808 U806 2.464 . S
O808 C809 1.286 . S
C809 U806 2.993 . S
C809 O807 1.353 . S
C809 O808 1.286 . S
C809 C811 1.363 . S
C810 C800 1.464 . S
C810 U806 2.847 1_556 S
C810 O824 1.238 1_556 S
C810 O825 1.213 . S
C811 C809 1.363 . S
C811 C813 1.408 . S
C811 C816 1.342 . S
C812 C813 1.310 . S
C812 C815 1.461 . S
C812 H832 0.932 . S
C813 C811 1.408 . S
C813 C812 1.310 . S
C813 H833 0.930 . S
C814 C815 1.474 . S
C814 C816 1.285 . S
C814 H834 0.929 . S
C815 C812 1.461 . S
C815 C814 1.474 . S
C816 C811 1.342 . S
C816 C814 1.285 . S
C816 H835 0.930 . S
C817 C820 1.424 . S
C817 C822 1.245 . S
C817 C823 1.428 . S
C818 C821 1.260 . S
C818 C822 1.477 . S
C818 H836 0.932 . S
C819 C820 1.384 . S
C819 C821 1.479 . S
C819 H837 0.929 . S
C820 C817 1.424 . S
C820 C819 1.384 . S
C820 H838 0.928 . S
C821 C818 1.260 . S
C821 C819 1.479 . S
C822 C817 1.245 . S
C822 C818 1.477 . S
C822 H839 0.932 . S
C823 U806 2.874 1_556 S
C823 C817 1.428 . S
C823 O826 1.301 . S
C823 O827 1.282 . S
O824 U806 2.445 . S
O824 C810 1.238 1_554 S
O825 U806 2.416 1_556 S
O825 C810 1.213 . S
O826 U806 2.450 1_556 S
O826 C823 1.301 . S
O827 U806 2.439 1_556 S
O827 C823 1.282 . S
H828 C801 0.931 . S
H829 C803 0.929 . S
H830 C804 0.930 . S
H831 C805 0.931 . S
H832 C812 0.932 . S
H833 C813 0.930 . S
H834 C814 0.929 . S
H835 C816 0.930 . S
H836 C818 0.932 . S
H837 C819 0.929 . S
H838 C820 0.928 . S
H839 C822 0.932 . S
C840 C841 1.264 . S
C840 C845 1.479 . S
C840 C850 1.465 . S
C841 C840 1.264 . S
C841 C843 1.339 . S
C841 H868 0.931 . S
C842 C843 1.395 . S
C842 C844 1.320 . S
C843 C841 1.339 . S
C843 C842 1.395 . S
C843 H869 0.929 . S
C844 C842 1.320 . S
C844 C845 1.405 . S
C844 H870 0.930 . S
C845 C840 1.479 . S
C845 C844 1.405 . S
C845 H871 0.931 . S
U846 O847 2.454 . S
U846 O848 2.458 . S
U846 C849 2.984 . S
U846 C850 2.847 . S
U846 C863 2.882 . S
U846 O864 2.441 . S
U846 O865 2.420 . S
U846 O866 2.455 . S
U846 O867 2.449 . S
O847 U846 2.454 . S
O847 C849 1.353 . S
O848 U846 2.458 . S
O848 C849 1.286 . S
C849 U846 2.984 . S
C849 O847 1.353 . S
C849 O848 1.286 . S
C849 C851 1.363 . S
C850 C840 1.465 . S
C850 U846 2.847 . S
C850 O864 1.249 . S
C850 O865 1.202 . S
C851 C849 1.363 . S
C851 C853 1.408 . S
C851 C856 1.342 . S
C852 C853 1.310 . S
C852 C855 1.461 . S
C852 H872 0.932 . S
C853 C851 1.408 . S
C853 C852 1.310 . S
C853 H873 0.930 . S
C854 C855 1.474 . S
C854 C856 1.285 . S
C854 H874 0.929 . S
C855 C852 1.461 . S
C855 C854 1.474 . S
C856 C851 1.342 . S
C856 C854 1.285 . S
C856 H875 0.930 . S
C857 C860 1.424 . S
C857 C862 1.245 . S
C857 C863 1.428 . S
C858 C861 1.260 . S
C858 C862 1.477 . S
C858 H876 0.932 . S
C859 C860 1.384 . S
C859 C861 1.479 . S
C859 H877 0.929 . S
C860 C857 1.424 . S
C860 C859 1.384 . S
C860 H878 0.928 . S
C861 C858 1.260 . S
C861 C859 1.479 . S
C862 C857 1.245 . S
C862 C858 1.477 . S
C862 H879 0.932 . S
C863 U846 2.882 . S
C863 C857 1.428 . S
C863 O866 1.301 . S
C863 O867 1.282 . S
O864 U846 2.441 . S
O864 C850 1.249 . S
O865 U846 2.420 . S
O865 C850 1.202 . S
O866 U846 2.455 . S
O866 C863 1.301 . S
O867 U846 2.449 . S
O867 C863 1.282 . S
H868 C841 0.931 . S
H869 C843 0.929 . S
H870 C844 0.930 . S
H871 C845 0.931 . S
H872 C852 0.932 . S
H873 C853 0.930 . S
H874 C854 0.929 . S
H875 C856 0.930 . S
H876 C858 0.932 . S
H877 C859 0.929 . S
H878 C860 0.928 . S
H879 C862 0.932 . S
C880 C881 1.264 . S
C880 C885 1.479 . S
C880 C890 1.465 . S
C881 C880 1.264 . S
C881 C883 1.339 . S
C881 H908 0.931 . S
C882 C883 1.395 . S
C882 C884 1.320 . S
C883 C881 1.339 . S
C883 C882 1.395 . S
C883 H909 0.929 . S
C884 C882 1.320 . S
C884 C885 1.405 . S
C884 H910 0.930 . S
C885 C880 1.479 . S
C885 C884 1.405 . S
C885 H911 0.931 . S
U886 O887 2.454 . S
U886 O888 2.458 . S
U886 C889 2.984 . S
U886 C890 2.847 . S
U886 C903 2.882 . S
U886 O904 2.441 . S
U886 O905 2.420 . S
U886 O906 2.455 . S
U886 O907 2.449 . S
O887 U886 2.454 . S
O887 C889 1.353 . S
O888 U886 2.458 . S
O888 C889 1.286 . S
C889 U886 2.984 . S
C889 O887 1.353 . S
C889 O888 1.286 . S
C889 C891 1.363 . S
C890 C880 1.465 . S
C890 U886 2.847 . S
C890 O904 1.249 . S
C890 O905 1.202 . S
C891 C889 1.363 . S
C891 C893 1.408 . S
C891 C896 1.342 . S
C892 C893 1.310 . S
C892 C895 1.461 . S
C892 H912 0.932 . S
C893 C891 1.408 . S
C893 C892 1.310 . S
C893 H913 0.930 . S
C894 C895 1.474 . S
C894 C896 1.285 . S
C894 H914 0.929 . S
C895 C892 1.461 . S
C895 C894 1.474 . S
C896 C891 1.342 . S
C896 C894 1.285 . S
C896 H915 0.930 . S
C897 C900 1.424 . S
C897 C902 1.245 . S
C897 C903 1.428 . S
C898 C901 1.260 . S
C898 C902 1.477 . S
C898 H916 0.932 . S
C899 C900 1.384 . S
C899 C901 1.479 . S
C899 H917 0.929 . S
C900 C897 1.424 . S
C900 C899 1.384 . S
C900 H918 0.928 . S
C901 C898 1.260 . S
C901 C899 1.479 . S
C902 C897 1.245 . S
C902 C898 1.477 . S
C902 H919 0.932 . S
C903 U886 2.882 . S
C903 C897 1.428 . S
C903 O906 1.301 . S
C903 O907 1.282 . S
O904 U886 2.441 . S
O904 C890 1.249 . S
O905 U886 2.420 . S
O905 C890 1.202 . S
O906 U886 2.455 . S
O906 C903 1.301 . S
O907 U886 2.449 . S
O907 C903 1.282 . S
H908 C881 0.931 . S
H909 C883 0.929 . S
H910 C884 0.930 . S
H911 C885 0.931 . S
H912 C892 0.932 . S
H913 C893 0.930 . S
H914 C894 0.929 . S
H915 C896 0.930 . S
H916 C898 0.932 . S
H917 C899 0.929 . S
H918 C900 0.928 . S
H919 C902 0.932 . S
C920 C921 1.264 . S
C920 C925 1.479 . S
C920 C930 1.465 . S
C921 C920 1.264 . S
C921 C923 1.339 . S
C921 H948 0.931 . S
C922 C923 1.395 . S
C922 C924 1.320 . S
C923 C921 1.339 . S
C923 C922 1.395 . S
C923 H949 0.929 . S
C924 C922 1.320 . S
C924 C925 1.405 . S
C924 H950 0.930 . S
C925 C920 1.479 . S
C925 C924 1.405 . S
C925 H951 0.931 . S
U926 O927 2.454 . S
U926 O928 2.458 . S
U926 C929 2.984 . S
U926 C930 2.847 1_554 S
U926 C943 2.882 . S
U926 O944 2.441 1_554 S
U926 O945 2.420 1_554 S
U926 O946 2.455 . S
U926 O947 2.449 . S
O927 U926 2.454 . S
O927 C929 1.353 . S
O928 U926 2.458 . S
O928 C929 1.286 . S
C929 U926 2.984 . S
C929 O927 1.353 . S
C929 O928 1.286 . S
C929 C931 1.363 . S
C930 C920 1.465 . S
C930 U926 2.847 1_556 S
C930 O944 1.249 . S
C930 O945 1.202 . S
C931 C929 1.363 . S
C931 C933 1.408 . S
C931 C936 1.342 . S
C932 C933 1.310 . S
C932 C935 1.461 . S
C932 H952 0.932 . S
C933 C931 1.408 . S
C933 C932 1.310 . S
C933 H953 0.930 . S
C934 C935 1.474 . S
C934 C936 1.285 . S
C934 H954 0.929 . S
C935 C932 1.461 . S
C935 C934 1.474 . S
C936 C931 1.342 . S
C936 C934 1.285 . S
C936 H955 0.930 . S
C937 C940 1.424 1_554 S
C937 C942 1.245 . S
C937 C943 1.428 . S
C938 C941 1.260 . S
C938 C942 1.477 . S
C938 H956 0.932 . S
C939 C940 1.384 . S
C939 C941 1.479 1_556 S
C939 H957 0.929 . S
C940 C937 1.424 1_556 S
C940 C939 1.384 . S
C940 H958 0.928 . S
C941 C938 1.260 . S
C941 C939 1.479 1_554 S
C942 C937 1.245 . S
C942 C938 1.477 . S
C942 H959 0.932 . S
C943 U926 2.882 . S
C943 C937 1.428 . S
C943 O946 1.301 . S
C943 O947 1.282 . S
O944 U926 2.441 1_556 S
O944 C930 1.249 . S
O945 U926 2.420 1_556 S
O945 C930 1.202 . S
O946 U926 2.455 . S
O946 C943 1.301 . S
O947 U926 2.449 . S
O947 C943 1.282 . S
H948 C921 0.931 . S
H949 C923 0.929 . S
H950 C924 0.930 . S
H951 C925 0.931 . S
H952 C932 0.932 . S
H953 C933 0.930 . S
H954 C934 0.929 . S
H955 C936 0.930 . S
H956 C938 0.932 . S
H957 C939 0.929 . S
H958 C940 0.928 . S
H959 C942 0.932 . S
H960 C978 0.951 . S
H961 C980 0.951 . S
H962 C982 0.950 . S
H963 C983 0.950 . S
H964 C985 0.981 . S
H965 C988 0.950 1_655 S
H966 C989 0.950 . S
H967 C991 0.950 . S
H968 C992 0.950 . S
H969 C993 0.951 . S
H970 C995 0.951 . S
H971 C997 0.950 . S
H972 C998 0.950 . S
H973 C1000 0.950 . S
H974 C1003 0.950 . S
H975 C1004 0.934 1_455 S
H976 C1006 0.950 . S
H977 C1007 0.950 . S
C978 H960 0.951 . S
C978 C979 1.366 . S
C978 C980 1.388 . S
C979 C978 1.366 . S
C979 C983 1.385 1_455 S
C980 H961 0.951 . S
C980 C978 1.388 . S
C980 C981 1.366 . S
C981 C980 1.366 . S
C981 C982 1.414 1_455 S
C981 C984 1.499 . S
C982 H962 0.950 . S
C982 C981 1.414 1_655 S
C982 C983 1.374 . S
C983 H963 0.950 . S
C983 C979 1.385 1_655 S
C983 C982 1.374 . S
C984 C981 1.499 . S
C984 C985 1.349 1_455 S
C984 C986 1.389 . S
C985 H964 0.981 . S
C985 C984 1.349 1_655 S
C985 C1001 1.375 . S
C986 C984 1.389 . S
C986 C987 1.524 . S
C986 C1000 1.377 . S
C987 C986 1.524 . S
C987 C988 1.397 . S
C987 C992 1.363 . S
C988 H965 0.950 1_455 S
C988 C987 1.397 . S
C988 C989 1.334 . S
C989 H966 0.950 . S
C989 C988 1.334 . S
C989 C990 1.287 . S
C990 C989 1.287 . S
C990 C991 1.524 . S
C990 H1009 0.913 . S
C991 H967 0.950 . S
C991 C990 1.524 . S
C991 C992 1.415 . S
C992 H968 0.950 . S
C992 C987 1.363 . S
C992 C991 1.415 . S
C993 H969 0.951 . S
C993 C994 1.366 1_655 S
C993 C995 1.388 . S
C994 C993 1.366 1_455 S
C994 C998 1.385 . S
C995 H970 0.951 . S
C995 C993 1.388 . S
C995 C996 1.366 1_655 S
C996 C995 1.366 1_455 S
C996 C997 1.414 . S
C996 C999 1.499 . S
C997 H971 0.950 . S
C997 C996 1.414 . S
C997 C998 1.374 . S
C998 H972 0.950 . S
C998 C994 1.385 . S
C998 C997 1.374 . S
C999 C996 1.499 . S
C999 C1000 1.373 . S
C999 C1001 1.390 1_455 S
C1000 H973 0.950 . S
C1000 C986 1.377 . S
C1000 C999 1.373 . S
C1001 C985 1.375 . S
C1001 C999 1.390 1_655 S
C1001 C1002 1.524 . S
C1002 C1001 1.524 . S
C1002 C1003 1.397 1_655 S
C1002 C1007 1.363 . S
C1003 H974 0.950 . S
C1003 C1002 1.397 1_455 S
C1003 C1004 1.327 1_455 S
C1004 H975 0.934 1_655 S
C1004 C1003 1.327 1_655 S
C1004 C1005 1.311 . S
C1005 C1004 1.311 . S
C1005 C1006 1.524 . S
C1005 H1008 0.999 . S
C1006 H976 0.950 . S
C1006 C1005 1.524 . S
C1006 C1007 1.415 . S
C1007 H977 0.950 . S
C1007 C1002 1.363 . S
C1007 C1006 1.415 . S
H1008 C1005 0.999 . S
H1009 C990 0.913 . S
H1010 C1028 0.951 . S
H1011 C1030 0.951 . S
H1012 C1032 0.950 . S
H1013 C1033 0.950 . S
H1014 C1035 0.950 . S
H1015 C1038 0.950 . S
H1016 C1039 0.950 . S
H1017 C1041 0.950 . S
H1018 C1042 0.950 . S
H1019 C1043 0.951 . S
H1020 C1045 0.951 . S
H1021 C1047 0.950 . S
H1022 C1048 0.950 . S
H1023 C1050 0.950 . S
H1024 C1053 0.950 . S
H1025 C1054 0.950 . S
H1026 C1056 0.950 . S
H1027 C1057 0.950 . S
C1028 H1010 0.951 . S
C1028 C1029 1.366 . S
C1028 C1030 1.388 . S
C1029 C1028 1.366 . S
C1029 C1033 1.385 . S
C1030 H1011 0.951 . S
C1030 C1028 1.388 . S
C1030 C1031 1.366 . S
C1031 C1030 1.366 . S
C1031 C1032 1.414 . S
C1031 C1034 1.499 . S
C1032 H1012 0.950 . S
C1032 C1031 1.414 . S
C1032 C1033 1.374 . S
C1033 H1013 0.950 . S
C1033 C1029 1.385 . S
C1033 C1032 1.374 . S
C1034 C1031 1.499 . S
C1034 C1035 1.373 . S
C1034 C1036 1.389 . S
C1035 H1014 0.950 . S
C1035 C1034 1.373 . S
C1035 C1051 1.377 . S
C1036 C1034 1.389 . S
C1036 C1037 1.524 . S
C1036 C1050 1.377 . S
C1037 C1036 1.524 . S
C1037 C1038 1.397 . S
C1037 C1042 1.363 . S
C1038 H1015 0.950 . S
C1038 C1037 1.397 . S
C1038 C1039 1.334 . S
C1039 H1016 0.950 . S
C1039 C1038 1.334 . S
C1039 C1040 1.287 . S
C1040 C1039 1.287 . S
C1040 C1041 1.524 . S
C1040 H1059 0.913 . S
C1041 H1017 0.950 . S
C1041 C1040 1.524 . S
C1041 C1042 1.415 . S
C1042 H1018 0.950 . S
C1042 C1037 1.363 . S
C1042 C1041 1.415 . S
C1043 H1019 0.951 . S
C1043 C1044 1.366 . S
C1043 C1045 1.388 . S
C1044 C1043 1.366 . S
C1044 C1048 1.385 . S
C1045 H1020 0.951 . S
C1045 C1043 1.388 . S
C1045 C1046 1.366 . S
C1046 C1045 1.366 . S
C1046 C1047 1.414 . S
C1046 C1049 1.499 . S
C1047 H1021 0.950 . S
C1047 C1046 1.414 . S
C1047 C1048 1.374 . S
C1048 H1022 0.950 . S
C1048 C1044 1.385 . S
C1048 C1047 1.374 . S
C1049 C1046 1.499 . S
C1049 C1050 1.373 . S
C1049 C1051 1.389 . S
C1050 H1023 0.950 . S
C1050 C1036 1.377 . S
C1050 C1049 1.373 . S
C1051 C1035 1.377 . S
C1051 C1049 1.389 . S
C1051 C1052 1.524 . S
C1052 C1051 1.524 . S
C1052 C1053 1.397 . S
C1052 C1057 1.363 . S
C1053 H1024 0.950 . S
C1053 C1052 1.397 . S
C1053 C1054 1.334 . S
C1054 H1025 0.950 . S
C1054 C1053 1.334 . S
C1054 C1055 1.287 . S
C1055 C1054 1.287 . S
C1055 C1056 1.524 . S
C1055 H1058 0.999 . S
C1056 H1026 0.950 . S
C1056 C1055 1.524 . S
C1056 C1057 1.415 . S
C1057 H1027 0.950 . S
C1057 C1052 1.363 . S
C1057 C1056 1.415 . S
H1058 C1055 0.999 . S
H1059 C1040 0.913 . S
H1060 C1078 0.951 . S
H1061 C1080 0.951 . S
H1062 C1082 0.950 . S
H1063 C1083 0.950 . S
H1064 C1085 0.950 . S
H1065 C1088 0.950 . S
H1066 C1089 0.950 . S
H1067 C1091 0.950 . S
H1068 C1092 0.950 . S
H1069 C1093 0.951 . S
H1070 C1095 0.951 . S
H1071 C1097 0.950 . S
H1072 C1098 0.950 . S
H1073 C1100 0.950 . S
H1074 C1103 0.950 . S
H1075 C1104 0.950 . S
H1076 C1106 0.950 . S
H1077 C1107 0.950 . S
C1078 H1060 0.951 . S
C1078 C1079 1.366 . S
C1078 C1080 1.388 . S
C1079 C1078 1.366 . S
C1079 C1083 1.385 . S
C1080 H1061 0.951 . S
C1080 C1078 1.388 . S
C1080 C1081 1.366 . S
C1081 C1080 1.366 . S
C1081 C1082 1.414 . S
C1081 C1084 1.499 . S
C1082 H1062 0.950 . S
C1082 C1081 1.414 . S
C1082 C1083 1.374 . S
C1083 H1063 0.950 . S
C1083 C1079 1.385 . S
C1083 C1082 1.374 . S
C1084 C1081 1.499 . S
C1084 C1085 1.373 . S
C1084 C1086 1.389 . S
C1085 H1064 0.950 . S
C1085 C1084 1.373 . S
C1085 C1101 1.377 . S
C1086 C1084 1.389 . S
C1086 C1087 1.524 . S
C1086 C1100 1.377 . S
C1087 C1086 1.524 . S
C1087 C1088 1.397 . S
C1087 C1092 1.363 . S
C1088 H1065 0.950 . S
C1088 C1087 1.397 . S
C1088 C1089 1.334 . S
C1089 H1066 0.950 . S
C1089 C1088 1.334 . S
C1089 C1090 1.287 . S
C1090 C1089 1.287 . S
C1090 C1091 1.524 . S
C1090 H1109 0.913 . S
C1091 H1067 0.950 . S
C1091 C1090 1.524 . S
C1091 C1092 1.415 . S
C1092 H1068 0.950 . S
C1092 C1087 1.363 . S
C1092 C1091 1.415 . S
C1093 H1069 0.951 . S
C1093 C1094 1.366 . S
C1093 C1095 1.388 . S
C1094 C1093 1.366 . S
C1094 C1098 1.385 . S
C1095 H1070 0.951 . S
C1095 C1093 1.388 . S
C1095 C1096 1.366 . S
C1096 C1095 1.366 . S
C1096 C1097 1.414 . S
C1096 C1099 1.499 . S
C1097 H1071 0.950 . S
C1097 C1096 1.414 . S
C1097 C1098 1.374 . S
C1098 H1072 0.950 . S
C1098 C1094 1.385 . S
C1098 C1097 1.374 . S
C1099 C1096 1.499 . S
C1099 C1100 1.373 . S
C1099 C1101 1.389 . S
C1100 H1073 0.950 . S
C1100 C1086 1.377 . S
C1100 C1099 1.373 . S
C1101 C1085 1.377 . S
C1101 C1099 1.389 . S
C1101 C1102 1.524 . S
C1102 C1101 1.524 . S
C1102 C1103 1.397 . S
C1102 C1107 1.363 . S
C1103 H1074 0.950 . S
C1103 C1102 1.397 . S
C1103 C1104 1.334 . S
C1104 H1075 0.950 . S
C1104 C1103 1.334 . S
C1104 C1105 1.287 . S
C1105 C1104 1.287 . S
C1105 C1106 1.524 . S
C1105 H1108 0.999 . S
C1106 H1076 0.950 . S
C1106 C1105 1.524 . S
C1106 C1107 1.415 . S
C1107 H1077 0.950 . S
C1107 C1102 1.363 . S
C1107 C1106 1.415 . S
H1108 C1105 0.999 . S
H1109 C1090 0.913 . S
H1110 C1128 0.963 . S
H1111 C1130 0.948 1_565 S
H1112 C1132 0.950 . S
H1113 C1133 0.950 . S
H1114 C1135 0.939 1_565 S
H1115 C1138 0.950 . S
H1116 C1139 0.950 . S
H1117 C1141 0.950 . S
H1118 C1142 0.950 . S
H1119 C1143 0.951 . S
H1120 C1145 0.951 . S
H1121 C1147 0.950 . S
H1122 C1148 0.950 . S
H1123 C1150 0.950 . S
H1124 C1153 0.950 . S
H1125 C1154 0.950 . S
H1126 C1156 0.950 . S
H1127 C1157 0.950 1_545 S
C1128 H1110 0.963 . S
C1128 C1129 1.366 . S
C1128 C1130 1.388 . S
C1129 C1128 1.366 . S
C1129 C1133 1.385 . S
C1130 H1111 0.948 1_545 S
C1130 C1128 1.388 . S
C1130 C1131 1.366 . S
C1131 C1130 1.366 . S
C1131 C1132 1.414 . S
C1131 C1134 1.499 . S
C1132 H1112 0.950 . S
C1132 C1131 1.414 . S
C1132 C1133 1.374 . S
C1133 H1113 0.950 . S
C1133 C1129 1.385 . S
C1133 C1132 1.374 . S
C1134 C1131 1.499 . S
C1134 C1135 1.390 . S
C1134 C1136 1.389 . S
C1135 H1114 0.939 1_545 S
C1135 C1134 1.390 . S
C1135 C1151 1.366 1_545 S
C1136 C1134 1.389 . S
C1136 C1137 1.524 . S
C1136 C1150 1.377 . S
C1137 C1136 1.524 . S
C1137 C1138 1.397 . S
C1137 C1142 1.363 . S
C1138 H1115 0.950 . S
C1138 C1137 1.397 . S
C1138 C1139 1.334 . S
C1139 H1116 0.950 . S
C1139 C1138 1.334 . S
C1139 C1140 1.287 . S
C1140 C1139 1.287 . S
C1140 C1141 1.524 . S
C1140 H1159 0.913 . S
C1141 H1117 0.950 . S
C1141 C1140 1.524 . S
C1141 C1142 1.415 . S
C1142 H1118 0.950 . S
C1142 C1137 1.363 . S
C1142 C1141 1.415 . S
C1143 H1119 0.951 . S
C1143 C1144 1.366 . S
C1143 C1145 1.388 . S
C1144 C1143 1.366 . S
C1144 C1148 1.385 1_545 S
C1145 H1120 0.951 . S
C1145 C1143 1.388 . S
C1145 C1146 1.366 . S
C1146 C1145 1.366 . S
C1146 C1147 1.414 1_545 S
C1146 C1149 1.499 . S
C1147 H1121 0.950 . S
C1147 C1146 1.414 1_565 S
C1147 C1148 1.374 . S
C1148 H1122 0.950 . S
C1148 C1144 1.385 1_565 S
C1148 C1147 1.374 . S
C1149 C1146 1.499 . S
C1149 C1150 1.373 . S
C1149 C1151 1.359 1_545 S
C1150 H1123 0.950 . S
C1150 C1136 1.377 . S
C1150 C1149 1.373 . S
C1151 C1135 1.366 1_565 S
C1151 C1149 1.359 1_565 S
C1151 C1152 1.581 . S
C1152 C1151 1.581 . S
C1152 C1153 1.397 . S
C1152 C1157 1.363 . S
C1153 H1124 0.950 . S
C1153 C1152 1.397 . S
C1153 C1154 1.334 . S
C1154 H1125 0.950 . S
C1154 C1153 1.334 . S
C1154 C1155 1.287 . S
C1155 C1154 1.287 . S
C1155 C1156 1.524 . S
C1155 H1158 0.999 . S
C1156 H1126 0.950 . S
C1156 C1155 1.524 . S
C1156 C1157 1.415 . S
C1157 H1127 0.950 1_565 S
C1157 C1152 1.363 . S
C1157 C1156 1.415 . S
H1158 C1155 0.999 . S
H1159 C1140 0.913 . S
H1160 C1178 0.951 . S
H1161 C1180 0.951 . S
H1162 C1182 0.950 . S
H1163 C1183 0.950 . S
H1164 C1185 0.950 . S
H1165 C1188 0.950 . S
H1166 C1189 0.950 . S
H1167 C1191 0.950 . S
H1168 C1192 0.950 . S
H1169 C1193 0.951 . S
H1170 C1195 0.951 . S
H1171 C1197 0.950 . S
H1172 C1198 0.950 . S
H1173 C1200 0.950 . S
H1174 C1203 0.950 . S
H1175 C1204 0.950 . S
H1176 C1206 0.950 . S
H1177 C1207 0.950 . S
C1178 H1160 0.951 . S
C1178 C1179 1.366 . S
C1178 C1180 1.388 . S
C1179 C1178 1.366 . S
C1179 C1183 1.385 1_554 S
C1180 H1161 0.951 . S
C1180 C1178 1.388 . S
C1180 C1181 1.366 . S
C1181 C1180 1.366 . S
C1181 C1182 1.414 1_554 S
C1181 C1184 1.499 . S
C1182 H1162 0.950 . S
C1182 C1181 1.414 1_556 S
C1182 C1183 1.374 . S
C1183 H1163 0.950 . S
C1183 C1179 1.385 1_556 S
C1183 C1182 1.374 . S
C1184 C1181 1.499 . S
C1184 C1185 1.373 1_554 S
C1184 C1186 1.389 . S
C1185 H1164 0.950 . S
C1185 C1184 1.373 1_556 S
C1185 C1201 1.377 . S
C1186 C1184 1.389 . S
C1186 C1187 1.524 . S
C1186 C1200 1.377 . S
C1187 C1186 1.524 . S
C1187 C1188 1.397 . S
C1187 C1192 1.363 . S
C1188 H1165 0.950 . S
C1188 C1187 1.397 . S
C1188 C1189 1.334 . S
C1189 H1166 0.950 . S
C1189 C1188 1.334 . S
C1189 C1190 1.287 . S
C1190 C1189 1.287 . S
C1190 C1191 1.524 . S
C1190 H1209 0.913 . S
C1191 H1167 0.950 . S
C1191 C1190 1.524 . S
C1191 C1192 1.415 . S
C1192 H1168 0.950 . S
C1192 C1187 1.363 . S
C1192 C1191 1.415 . S
C1193 H1169 0.951 . S
C1193 C1194 1.366 1_556 S
C1193 C1195 1.388 . S
C1194 C1193 1.366 1_554 S
C1194 C1198 1.385 . S
C1195 H1170 0.951 . S
C1195 C1193 1.388 . S
C1195 C1196 1.366 1_556 S
C1196 C1195 1.366 1_554 S
C1196 C1197 1.414 . S
C1196 C1199 1.499 . S
C1197 H1171 0.950 . S
C1197 C1196 1.414 . S
C1197 C1198 1.374 . S
C1198 H1172 0.950 . S
C1198 C1194 1.385 . S
C1198 C1197 1.374 . S
C1199 C1196 1.499 . S
C1199 C1200 1.373 . S
C1199 C1201 1.389 1_554 S
C1200 H1173 0.950 . S
C1200 C1186 1.377 . S
C1200 C1199 1.373 . S
C1201 C1185 1.377 . S
C1201 C1199 1.389 1_556 S
C1201 C1202 1.524 . S
C1202 C1201 1.524 . S
C1202 C1203 1.397 . S
C1202 C1207 1.363 . S
C1203 H1174 0.950 . S
C1203 C1202 1.397 . S
C1203 C1204 1.334 . S
C1204 H1175 0.950 . S
C1204 C1203 1.334 . S
C1204 C1205 1.287 . S
C1205 C1204 1.287 . S
C1205 C1206 1.524 . S
C1205 H1208 0.999 . S
C1206 H1176 0.950 . S
C1206 C1205 1.524 . S
C1206 C1207 1.415 . S
C1207 H1177 0.950 . S
C1207 C1202 1.363 . S
C1207 C1206 1.415 . S
H1208 C1205 0.999 . S
H1209 C1190 0.913 . S
H1210 C1228 0.951 . S
H1211 C1230 0.951 . S
H1212 C1232 0.950 . S
H1213 C1233 0.950 . S
H1214 C1235 0.950 . S
H1215 C1238 0.950 . S
H1216 C1239 0.950 . S
H1217 C1241 0.950 . S
H1218 C1242 0.950 . S
H1219 C1243 0.951 . S
H1220 C1245 0.951 . S
H1221 C1247 0.950 . S
H1222 C1248 0.950 . S
H1223 C1250 0.950 . S
H1224 C1253 0.950 . S
H1225 C1254 0.950 . S
H1226 C1256 0.950 . S
H1227 C1257 0.950 . S
C1228 H1210 0.951 . S
C1228 C1229 1.366 . S
C1228 C1230 1.388 . S
C1229 C1228 1.366 . S
C1229 C1233 1.385 . S
C1230 H1211 0.951 . S
C1230 C1228 1.388 . S
C1230 C1231 1.366 . S
C1231 C1230 1.366 . S
C1231 C1232 1.414 . S
C1231 C1234 1.499 . S
C1232 H1212 0.950 . S
C1232 C1231 1.414 . S
C1232 C1233 1.374 . S
C1233 H1213 0.950 . S
C1233 C1229 1.385 . S
C1233 C1232 1.374 . S
C1234 C1231 1.499 . S
C1234 C1235 1.373 . S
C1234 C1236 1.389 . S
C1235 H1214 0.950 . S
C1235 C1234 1.373 . S
C1235 C1251 1.377 . S
C1236 C1234 1.389 . S
C1236 C1237 1.524 . S
C1236 C1250 1.377 . S
C1237 C1236 1.524 . S
C1237 C1238 1.397 . S
C1237 C1242 1.363 . S
C1238 H1215 0.950 . S
C1238 C1237 1.397 . S
C1238 C1239 1.334 . S
C1239 H1216 0.950 . S
C1239 C1238 1.334 . S
C1239 C1240 1.287 . S
C1240 C1239 1.287 . S
C1240 C1241 1.524 . S
C1240 H1259 0.913 . S
C1241 H1217 0.950 . S
C1241 C1240 1.524 . S
C1241 C1242 1.415 . S
C1242 H1218 0.950 . S
C1242 C1237 1.363 . S
C1242 C1241 1.415 . S
C1243 H1219 0.951 . S
C1243 C1244 1.366 . S
C1243 C1245 1.388 . S
C1244 C1243 1.366 . S
C1244 C1248 1.385 . S
C1245 H1220 0.951 . S
C1245 C1243 1.388 . S
C1245 C1246 1.366 . S
C1246 C1245 1.366 . S
C1246 C1247 1.414 . S
C1246 C1249 1.499 . S
C1247 H1221 0.950 . S
C1247 C1246 1.414 . S
C1247 C1248 1.374 . S
C1248 H1222 0.950 . S
C1248 C1244 1.385 . S
C1248 C1247 1.374 . S
C1249 C1246 1.499 . S
C1249 C1250 1.373 . S
C1249 C1251 1.389 . S
C1250 H1223 0.950 . S
C1250 C1236 1.377 . S
C1250 C1249 1.373 . S
C1251 C1235 1.377 . S
C1251 C1249 1.389 . S
C1251 C1252 1.524 . S
C1252 C1251 1.524 . S
C1252 C1253 1.397 . S
C1252 C1257 1.363 . S
C1253 H1224 0.950 . S
C1253 C1252 1.397 . S
C1253 C1254 1.334 . S
C1254 H1225 0.950 . S
C1254 C1253 1.334 . S
C1254 C1255 1.287 . S
C1255 C1254 1.287 . S
C1255 C1256 1.524 . S
C1255 H1258 0.999 . S
C1256 H1226 0.950 . S
C1256 C1255 1.524 . S
C1256 C1257 1.415 . S
C1257 H1227 0.950 . S
C1257 C1252 1.363 . S
C1257 C1256 1.415 . S
H1258 C1255 0.999 . S
H1259 C1240 0.913 . S
H1260 C1278 0.951 . S
H1261 C1280 0.951 . S
H1262 C1282 0.954 1_655 S
H1263 C1283 0.949 1_655 S
H1264 C1285 0.922 1_655 S
H1265 C1288 0.950 . S
H1266 C1289 0.950 . S
H1267 C1291 0.950 . S
H1268 C1292 0.950 . S
H1269 C1293 0.936 1_655 S
H1270 C1295 0.944 1_655 S
H1271 C1297 0.950 . S
H1272 C1298 0.950 . S
H1273 C1300 0.950 . S
H1274 C1303 0.950 1_455 S
H1275 C1304 0.950 . S
H1276 C1306 0.950 . S
H1277 C1307 0.950 . S
C1278 H1260 0.951 . S
C1278 C1279 1.366 . S
C1278 C1280 1.388 . S
C1279 C1278 1.366 . S
C1279 C1283 1.385 . S
C1280 H1261 0.951 . S
C1280 C1278 1.388 . S
C1280 C1281 1.366 . S
C1281 C1280 1.366 . S
C1281 C1282 1.410 . S
C1281 C1284 1.499 . S
C1282 H1262 0.954 1_455 S
C1282 C1281 1.410 . S
C1282 C1283 1.374 . S
C1283 H1263 0.949 1_455 S
C1283 C1279 1.385 . S
C1283 C1282 1.374 . S
C1284 C1281 1.499 . S
C1284 C1285 1.402 . S
C1284 C1286 1.389 . S
C1285 H1264 0.922 1_455 S
C1285 C1284 1.402 . S
C1285 C1301 1.376 . S
C1286 C1284 1.389 . S
C1286 C1287 1.524 . S
C1286 C1300 1.377 . S
C1287 C1286 1.524 . S
C1287 C1288 1.397 . S
C1287 C1292 1.363 . S
C1288 H1265 0.950 . S
C1288 C1287 1.397 . S
C1288 C1289 1.334 . S
C1289 H1266 0.950 . S
C1289 C1288 1.334 . S
C1289 C1290 1.287 . S
C1290 C1289 1.287 . S
C1290 C1291 1.524 . S
C1290 H1309 0.913 . S
C1291 H1267 0.950 . S
C1291 C1290 1.524 . S
C1291 C1292 1.415 . S
C1292 H1268 0.950 . S
C1292 C1287 1.363 . S
C1292 C1291 1.415 . S
C1293 H1269 0.936 1_455 S
C1293 C1294 1.380 . S
C1293 C1295 1.388 . S
C1294 C1293 1.380 . S
C1294 C1298 1.385 . S
C1295 H1270 0.944 1_455 S
C1295 C1293 1.388 . S
C1295 C1296 1.372 . S
C1296 C1295 1.372 . S
C1296 C1297 1.414 . S
C1296 C1299 1.499 . S
C1297 H1271 0.950 . S
C1297 C1296 1.414 . S
C1297 C1298 1.374 . S
C1298 H1272 0.950 . S
C1298 C1294 1.385 . S
C1298 C1297 1.374 . S
C1299 C1296 1.499 . S
C1299 C1300 1.373 . S
C1299 C1301 1.429 . S
C1300 H1273 0.950 . S
C1300 C1286 1.377 . S
C1300 C1299 1.373 . S
C1301 C1285 1.376 . S
C1301 C1299 1.429 . S
C1301 C1302 1.485 1_455 S
C1302 C1301 1.485 1_655 S
C1302 C1303 1.397 . S
C1302 C1307 1.363 . S
C1303 H1274 0.950 1_655 S
C1303 C1302 1.397 . S
C1303 C1304 1.334 . S
C1304 H1275 0.950 . S
C1304 C1303 1.334 . S
C1304 C1305 1.287 . S
C1305 C1304 1.287 . S
C1305 C1306 1.524 . S
C1305 H1308 0.999 . S
C1306 H1276 0.950 . S
C1306 C1305 1.524 . S
C1306 C1307 1.415 . S
C1307 H1277 0.950 . S
C1307 C1302 1.363 . S
C1307 C1306 1.415 . S
H1308 C1305 0.999 . S
H1309 C1290 0.913 . S
H1310 C1328 0.951 . S
H1311 C1330 0.951 . S
H1312 C1332 0.950 . S
H1313 C1333 0.950 . S
H1314 C1335 0.950 . S
H1315 C1338 0.950 . S
H1316 C1339 0.950 . S
H1317 C1341 0.950 . S
H1318 C1342 0.950 . S
H1319 C1343 0.951 . S
H1320 C1345 0.951 . S
H1321 C1347 0.950 . S
H1322 C1348 0.950 . S
H1323 C1350 0.950 . S
H1324 C1353 0.950 . S
H1325 C1354 0.950 . S
H1326 C1356 0.950 . S
H1327 C1357 0.950 . S
C1328 H1310 0.951 . S
C1328 C1329 1.366 . S
C1328 C1330 1.388 . S
C1329 C1328 1.366 . S
C1329 C1333 1.385 . S
C1330 H1311 0.951 . S
C1330 C1328 1.388 . S
C1330 C1331 1.366 . S
C1331 C1330 1.366 . S
C1331 C1332 1.414 . S
C1331 C1334 1.499 . S
C1332 H1312 0.950 . S
C1332 C1331 1.414 . S
C1332 C1333 1.374 . S
C1333 H1313 0.950 . S
C1333 C1329 1.385 . S
C1333 C1332 1.374 . S
C1334 C1331 1.499 . S
C1334 C1335 1.373 . S
C1334 C1336 1.389 . S
C1335 H1314 0.950 . S
C1335 C1334 1.373 . S
C1335 C1351 1.377 . S
C1336 C1334 1.389 . S
C1336 C1337 1.524 . S
C1336 C1350 1.377 . S
C1337 C1336 1.524 . S
C1337 C1338 1.397 . S
C1337 C1342 1.363 . S
C1338 H1315 0.950 . S
C1338 C1337 1.397 . S
C1338 C1339 1.334 . S
C1339 H1316 0.950 . S
C1339 C1338 1.334 . S
C1339 C1340 1.287 . S
C1340 C1339 1.287 . S
C1340 C1341 1.524 . S
C1340 H1359 0.913 . S
C1341 H1317 0.950 . S
C1341 C1340 1.524 . S
C1341 C1342 1.415 . S
C1342 H1318 0.950 . S
C1342 C1337 1.363 . S
C1342 C1341 1.415 . S
C1343 H1319 0.951 . S
C1343 C1344 1.366 . S
C1343 C1345 1.388 . S
C1344 C1343 1.366 . S
C1344 C1348 1.385 . S
C1345 H1320 0.951 . S
C1345 C1343 1.388 . S
C1345 C1346 1.366 . S
C1346 C1345 1.366 . S
C1346 C1347 1.414 . S
C1346 C1349 1.499 . S
C1347 H1321 0.950 . S
C1347 C1346 1.414 . S
C1347 C1348 1.374 . S
C1348 H1322 0.950 . S
C1348 C1344 1.385 . S
C1348 C1347 1.374 . S
C1349 C1346 1.499 . S
C1349 C1350 1.373 . S
C1349 C1351 1.389 . S
C1350 H1323 0.950 . S
C1350 C1336 1.377 . S
C1350 C1349 1.373 . S
C1351 C1335 1.377 . S
C1351 C1349 1.389 . S
C1351 C1352 1.524 . S
C1352 C1351 1.524 . S
C1352 C1353 1.397 . S
C1352 C1357 1.363 . S
C1353 H1324 0.950 . S
C1353 C1352 1.397 . S
C1353 C1354 1.334 . S
C1354 H1325 0.950 . S
C1354 C1353 1.334 . S
C1354 C1355 1.287 . S
C1355 C1354 1.287 . S
C1355 C1356 1.524 . S
C1355 H1358 0.999 . S
C1356 H1326 0.950 . S
C1356 C1355 1.524 . S
C1356 C1357 1.415 . S
C1357 H1327 0.950 . S
C1357 C1352 1.363 . S
C1357 C1356 1.415 . S
H1358 C1355 0.999 . S
H1359 C1340 0.913 . S
H1360 C1378 0.951 . S
H1361 C1380 0.951 . S
H1362 C1382 0.950 . S
H1363 C1383 0.950 . S
H1364 C1385 0.950 . S
H1365 C1388 0.950 . S
H1366 C1389 0.950 . S
H1367 C1391 0.950 . S
H1368 C1392 0.950 . S
H1369 C1393 0.951 . S
H1370 C1395 0.951 . S
H1371 C1397 0.950 . S
H1372 C1398 0.950 . S
H1373 C1400 0.950 . S
H1374 C1403 0.950 . S
H1375 C1404 0.950 . S
H1376 C1406 0.950 . S
H1377 C1407 0.950 . S
C1378 H1360 0.951 . S
C1378 C1379 1.366 . S
C1378 C1380 1.388 . S
C1379 C1378 1.366 . S
C1379 C1383 1.385 . S
C1380 H1361 0.951 . S
C1380 C1378 1.388 . S
C1380 C1381 1.366 . S
C1381 C1380 1.366 . S
C1381 C1382 1.414 . S
C1381 C1384 1.499 . S
C1382 H1362 0.950 . S
C1382 C1381 1.414 . S
C1382 C1383 1.374 . S
C1383 H1363 0.950 . S
C1383 C1379 1.385 . S
C1383 C1382 1.374 . S
C1384 C1381 1.499 . S
C1384 C1385 1.373 . S
C1384 C1386 1.389 . S
C1385 H1364 0.950 . S
C1385 C1384 1.373 . S
C1385 C1401 1.377 . S
C1386 C1384 1.389 . S
C1386 C1387 1.524 . S
C1386 C1400 1.377 . S
C1387 C1386 1.524 . S
C1387 C1388 1.397 . S
C1387 C1392 1.363 . S
C1388 H1365 0.950 . S
C1388 C1387 1.397 . S
C1388 C1389 1.334 . S
C1389 H1366 0.950 . S
C1389 C1388 1.334 . S
C1389 C1390 1.287 . S
C1390 C1389 1.287 . S
C1390 C1391 1.524 . S
C1390 H1409 0.913 . S
C1391 H1367 0.950 . S
C1391 C1390 1.524 . S
C1391 C1392 1.415 . S
C1392 H1368 0.950 . S
C1392 C1387 1.363 . S
C1392 C1391 1.415 . S
C1393 H1369 0.951 . S
C1393 C1394 1.366 . S
C1393 C1395 1.388 . S
C1394 C1393 1.366 . S
C1394 C1398 1.385 . S
C1395 H1370 0.951 . S
C1395 C1393 1.388 . S
C1395 C1396 1.366 . S
C1396 C1395 1.366 . S
C1396 C1397 1.414 . S
C1396 C1399 1.499 . S
C1397 H1371 0.950 . S
C1397 C1396 1.414 . S
C1397 C1398 1.374 . S
C1398 H1372 0.950 . S
C1398 C1394 1.385 . S
C1398 C1397 1.374 . S
C1399 C1396 1.499 . S
C1399 C1400 1.373 . S
C1399 C1401 1.389 . S
C1400 H1373 0.950 . S
C1400 C1386 1.377 . S
C1400 C1399 1.373 . S
C1401 C1385 1.377 . S
C1401 C1399 1.389 . S
C1401 C1402 1.524 . S
C1402 C1401 1.524 . S
C1402 C1403 1.397 . S
C1402 C1407 1.363 . S
C1403 H1374 0.950 . S
C1403 C1402 1.397 . S
C1403 C1404 1.334 . S
C1404 H1375 0.950 . S
C1404 C1403 1.334 . S
C1404 C1405 1.287 . S
C1405 C1404 1.287 . S
C1405 C1406 1.524 . S
C1405 H1408 0.999 . S
C1406 H1376 0.950 . S
C1406 C1405 1.524 . S
C1406 C1407 1.415 . S
C1407 H1377 0.950 . S
C1407 C1402 1.363 . S
C1407 C1406 1.415 . S
H1408 C1405 0.999 . S
H1409 C1390 0.913 . S
H1410 C1428 0.951 . S
H1411 C1430 0.951 . S
H1412 C1432 0.950 . S
H1413 C1433 0.950 . S
H1414 C1435 0.950 1_565 S
H1415 C1438 0.950 . S
H1416 C1439 0.950 . S
H1417 C1441 0.950 . S
H1418 C1442 0.950 . S
H1419 C1443 0.951 . S
H1420 C1445 0.951 . S
H1421 C1447 0.950 . S
H1422 C1448 0.950 . S
H1423 C1450 0.950 . S
H1424 C1453 0.950 . S
H1425 C1454 0.950 . S
H1426 C1456 0.950 . S
H1427 C1457 0.996 . S
C1428 H1410 0.951 . S
C1428 C1429 1.366 . S
C1428 C1430 1.388 . S
C1429 C1428 1.366 . S
C1429 C1433 1.385 . S
C1430 H1411 0.951 . S
C1430 C1428 1.388 . S
C1430 C1431 1.366 . S
C1431 C1430 1.366 . S
C1431 C1432 1.414 . S
C1431 C1434 1.499 . S
C1432 H1412 0.950 . S
C1432 C1431 1.414 . S
C1432 C1433 1.374 . S
C1433 H1413 0.950 . S
C1433 C1429 1.385 . S
C1433 C1432 1.374 . S
C1434 C1431 1.499 . S
C1434 C1435 1.373 . S
C1434 C1436 1.389 . S
C1435 H1414 0.950 1_545 S
C1435 C1434 1.373 . S
C1435 C1451 1.377 . S
C1436 C1434 1.389 . S
C1436 C1437 1.524 . S
C1436 C1450 1.377 . S
C1437 C1436 1.524 . S
C1437 C1438 1.397 . S
C1437 C1442 1.363 . S
C1438 H1415 0.950 . S
C1438 C1437 1.397 . S
C1438 C1439 1.334 . S
C1439 H1416 0.950 . S
C1439 C1438 1.334 . S
C1439 C1440 1.287 . S
C1440 C1439 1.287 . S
C1440 C1441 1.524 . S
C1440 H1459 0.913 . S
C1441 H1417 0.950 . S
C1441 C1440 1.524 . S
C1441 C1442 1.415 . S
C1442 H1418 0.950 . S
C1442 C1437 1.363 . S
C1442 C1441 1.415 . S
C1443 H1419 0.951 . S
C1443 C1444 1.366 . S
C1443 C1445 1.388 . S
C1444 C1443 1.366 . S
C1444 C1448 1.385 . S
C1445 H1420 0.951 . S
C1445 C1443 1.388 . S
C1445 C1446 1.366 . S
C1446 C1445 1.366 . S
C1446 C1447 1.414 . S
C1446 C1449 1.499 . S
C1447 H1421 0.950 . S
C1447 C1446 1.414 . S
C1447 C1448 1.374 . S
C1448 H1422 0.950 . S
C1448 C1444 1.385 . S
C1448 C1447 1.374 . S
C1449 C1446 1.499 . S
C1449 C1450 1.373 . S
C1449 C1451 1.389 . S
C1450 H1423 0.950 . S
C1450 C1436 1.377 . S
C1450 C1449 1.373 . S
C1451 C1435 1.377 . S
C1451 C1449 1.389 . S
C1451 C1452 1.524 1_545 S
C1452 C1451 1.524 1_565 S
C1452 C1453 1.397 . S
C1452 C1457 1.363 . S
C1453 H1424 0.950 . S
C1453 C1452 1.397 . S
C1453 C1454 1.334 . S
C1454 H1425 0.950 . S
C1454 C1453 1.334 . S
C1454 C1455 1.287 . S
C1455 C1454 1.287 . S
C1455 C1456 1.524 . S
C1455 H1458 0.999 . S
C1456 H1426 0.950 . S
C1456 C1455 1.524 . S
C1456 C1457 1.415 . S
C1457 H1427 0.996 . S
C1457 C1452 1.363 . S
C1457 C1456 1.415 . S
H1458 C1455 0.999 . S
H1459 C1440 0.913 . S
H1460 C1478 0.951 . S
H1461 C1480 0.951 . S
H1462 C1482 0.950 . S
H1463 C1483 0.950 . S
H1464 C1485 0.950 . S
H1465 C1488 0.950 1_554 S
H1466 C1489 0.950 . S
H1467 C1491 0.950 . S
H1468 C1492 0.950 . S
H1469 C1493 0.951 . S
H1470 C1495 0.951 . S
H1471 C1497 0.950 . S
H1472 C1498 0.950 . S
H1473 C1500 0.950 . S
H1474 C1503 0.950 1_556 S
H1475 C1504 0.950 . S
H1476 C1506 0.950 . S
H1477 C1507 0.950 . S
C1478 H1460 0.951 . S
C1478 C1479 1.366 1_556 S
C1478 C1480 1.388 . S
C1479 C1478 1.366 1_554 S
C1479 C1483 1.385 . S
C1480 H1461 0.951 . S
C1480 C1478 1.388 . S
C1480 C1481 1.366 1_556 S
C1481 C1480 1.366 1_554 S
C1481 C1482 1.414 . S
C1481 C1484 1.499 . S
C1482 H1462 0.950 . S
C1482 C1481 1.414 . S
C1482 C1483 1.374 . S
C1483 H1463 0.950 . S
C1483 C1479 1.385 . S
C1483 C1482 1.374 . S
C1484 C1481 1.499 . S
C1484 C1485 1.373 . S
C1484 C1486 1.389 1_554 S
C1485 H1464 0.950 . S
C1485 C1484 1.373 . S
C1485 C1501 1.377 . S
C1486 C1484 1.389 1_556 S
C1486 C1487 1.524 . S
C1486 C1500 1.377 . S
C1487 C1486 1.524 . S
C1487 C1488 1.397 . S
C1487 C1492 1.363 . S
C1488 H1465 0.950 1_556 S
C1488 C1487 1.397 . S
C1488 C1489 1.334 . S
C1489 H1466 0.950 . S
C1489 C1488 1.334 . S
C1489 C1490 1.287 . S
C1490 C1489 1.287 . S
C1490 C1491 1.524 . S
C1490 H1509 0.913 . S
C1491 H1467 0.950 . S
C1491 C1490 1.524 . S
C1491 C1492 1.415 . S
C1492 H1468 0.950 . S
C1492 C1487 1.363 . S
C1492 C1491 1.415 . S
C1493 H1469 0.951 . S
C1493 C1494 1.432 . S
C1493 C1495 1.388 . S
C1494 C1493 1.432 . S
C1494 C1498 1.319 1_554 S
C1495 H1470 0.951 . S
C1495 C1493 1.388 . S
C1495 C1496 1.366 . S
C1496 C1495 1.366 . S
C1496 C1497 1.414 1_554 S
C1496 C1499 1.504 . S
C1497 H1471 0.950 . S
C1497 C1496 1.414 1_556 S
C1497 C1498 1.374 . S
C1498 H1472 0.950 . S
C1498 C1494 1.319 1_556 S
C1498 C1497 1.374 . S
C1499 C1496 1.504 . S
C1499 C1500 1.327 1_554 S
C1499 C1501 1.444 . S
C1500 H1473 0.950 . S
C1500 C1486 1.377 . S
C1500 C1499 1.327 1_556 S
C1501 C1485 1.377 . S
C1501 C1499 1.444 . S
C1501 C1502 1.524 . S
C1502 C1501 1.524 . S
C1502 C1503 1.397 . S
C1502 C1507 1.363 . S
C1503 H1474 0.950 1_554 S
C1503 C1502 1.397 . S
C1503 C1504 1.334 . S
C1504 H1475 0.950 . S
C1504 C1503 1.334 . S
C1504 C1505 1.287 . S
C1505 C1504 1.287 . S
C1505 C1506 1.524 . S
C1505 H1508 0.999 . S
C1506 H1476 0.950 . S
C1506 C1505 1.524 . S
C1506 C1507 1.415 . S
C1507 H1477 0.950 . S
C1507 C1502 1.363 . S
C1507 C1506 1.415 . S
H1508 C1505 0.999 . S
H1509 C1490 0.913 . S
H1510 C1528 0.951 . S
H1511 C1530 0.951 . S
H1512 C1532 0.950 . S
H1513 C1533 0.950 . S
H1514 C1535 0.950 . S
H1515 C1538 0.950 . S
H1516 C1539 0.950 . S
H1517 C1541 0.950 . S
H1518 C1542 0.950 . S
H1519 C1543 0.951 . S
H1520 C1545 0.951 . S
H1521 C1547 0.950 . S
H1522 C1548 0.950 . S
H1523 C1550 0.950 . S
H1524 C1553 0.950 . S
H1525 C1554 0.950 . S
H1526 C1556 0.950 . S
H1527 C1557 0.950 . S
C1528 H1510 0.951 . S
C1528 C1529 1.366 . S
C1528 C1530 1.388 . S
C1529 C1528 1.366 . S
C1529 C1533 1.385 . S
C1530 H1511 0.951 . S
C1530 C1528 1.388 . S
C1530 C1531 1.366 . S
C1531 C1530 1.366 . S
C1531 C1532 1.414 . S
C1531 C1534 1.499 . S
C1532 H1512 0.950 . S
C1532 C1531 1.414 . S
C1532 C1533 1.374 . S
C1533 H1513 0.950 . S
C1533 C1529 1.385 . S
C1533 C1532 1.374 . S
C1534 C1531 1.499 . S
C1534 C1535 1.373 . S
C1534 C1536 1.389 . S
C1535 H1514 0.950 . S
C1535 C1534 1.373 . S
C1535 C1551 1.377 . S
C1536 C1534 1.389 . S
C1536 C1537 1.524 . S
C1536 C1550 1.377 . S
C1537 C1536 1.524 . S
C1537 C1538 1.397 . S
C1537 C1542 1.363 . S
C1538 H1515 0.950 . S
C1538 C1537 1.397 . S
C1538 C1539 1.334 . S
C1539 H1516 0.950 . S
C1539 C1538 1.334 . S
C1539 C1540 1.287 . S
C1540 C1539 1.287 . S
C1540 C1541 1.524 . S
C1540 H1559 0.913 . S
C1541 H1517 0.950 . S
C1541 C1540 1.524 . S
C1541 C1542 1.415 . S
C1542 H1518 0.950 . S
C1542 C1537 1.363 . S
C1542 C1541 1.415 . S
C1543 H1519 0.951 . S
C1543 C1544 1.366 . S
C1543 C1545 1.388 . S
C1544 C1543 1.366 . S
C1544 C1548 1.385 . S
C1545 H1520 0.951 . S
C1545 C1543 1.388 . S
C1545 C1546 1.366 . S
C1546 C1545 1.366 . S
C1546 C1547 1.414 . S
C1546 C1549 1.499 . S
C1547 H1521 0.950 . S
C1547 C1546 1.414 . S
C1547 C1548 1.374 . S
C1548 H1522 0.950 . S
C1548 C1544 1.385 . S
C1548 C1547 1.374 . S
C1549 C1546 1.499 . S
C1549 C1550 1.373 . S
C1549 C1551 1.389 . S
C1550 H1523 0.950 . S
C1550 C1536 1.377 . S
C1550 C1549 1.373 . S
C1551 C1535 1.377 . S
C1551 C1549 1.389 . S
C1551 C1552 1.524 . S
C1552 C1551 1.524 . S
C1552 C1553 1.397 . S
C1552 C1557 1.363 . S
C1553 H1524 0.950 . S
C1553 C1552 1.397 . S
C1553 C1554 1.334 . S
C1554 H1525 0.950 . S
C1554 C1553 1.334 . S
C1554 C1555 1.287 . S
C1555 C1554 1.287 . S
C1555 C1556 1.524 . S
C1555 H1558 0.999 . S
C1556 H1526 0.950 . S
C1556 C1555 1.524 . S
C1556 C1557 1.415 . S
C1557 H1527 0.950 . S
C1557 C1552 1.363 . S
C1557 C1556 1.415 . S
H1558 C1555 0.999 . S
H1559 C1540 0.913 . S
H1560 C1578 0.951 . S
H1561 C1580 0.951 . S
H1562 C1582 0.950 . S
H1563 C1583 0.950 . S
H1564 C1585 0.950 . S
H1565 C1588 0.950 . S
H1566 C1589 0.950 . S
H1567 C1591 0.950 . S
H1568 C1592 0.950 . S
H1569 C1593 0.951 . S
H1570 C1595 0.951 . S
H1571 C1597 0.950 . S
H1572 C1598 0.950 . S
H1573 C1600 0.950 . S
H1574 C1603 0.950 . S
H1575 C1604 0.950 . S
H1576 C1606 0.950 . S
H1577 C1607 0.950 . S
C1578 H1560 0.951 . S
C1578 C1579 1.366 . S
C1578 C1580 1.388 . S
C1579 C1578 1.366 . S
C1579 C1583 1.385 . S
C1580 H1561 0.951 . S
C1580 C1578 1.388 . S
C1580 C1581 1.366 . S
C1581 C1580 1.366 . S
C1581 C1582 1.414 . S
C1581 C1584 1.499 . S
C1582 H1562 0.950 . S
C1582 C1581 1.414 . S
C1582 C1583 1.374 . S
C1583 H1563 0.950 . S
C1583 C1579 1.385 . S
C1583 C1582 1.374 . S
C1584 C1581 1.499 . S
C1584 C1585 1.373 . S
C1584 C1586 1.389 . S
C1585 H1564 0.950 . S
C1585 C1584 1.373 . S
C1585 C1601 1.377 . S
C1586 C1584 1.389 . S
C1586 C1587 1.524 . S
C1586 C1600 1.377 . S
C1587 C1586 1.524 . S
C1587 C1588 1.397 . S
C1587 C1592 1.363 . S
C1588 H1565 0.950 . S
C1588 C1587 1.397 . S
C1588 C1589 1.334 . S
C1589 H1566 0.950 . S
C1589 C1588 1.334 . S
C1589 C1590 1.287 . S
C1590 C1589 1.287 . S
C1590 C1591 1.524 . S
C1590 H1609 0.913 . S
C1591 H1567 0.950 . S
C1591 C1590 1.524 . S
C1591 C1592 1.415 . S
C1592 H1568 0.950 . S
C1592 C1587 1.363 . S
C1592 C1591 1.415 . S
C1593 H1569 0.951 . S
C1593 C1594 1.366 . S
C1593 C1595 1.388 . S
C1594 C1593 1.366 . S
C1594 C1598 1.385 . S
C1595 H1570 0.951 . S
C1595 C1593 1.388 . S
C1595 C1596 1.366 . S
C1596 C1595 1.366 . S
C1596 C1597 1.414 . S
C1596 C1599 1.499 . S
C1597 H1571 0.950 . S
C1597 C1596 1.414 . S
C1597 C1598 1.374 . S
C1598 H1572 0.950 . S
C1598 C1594 1.385 . S
C1598 C1597 1.374 . S
C1599 C1596 1.499 . S
C1599 C1600 1.373 . S
C1599 C1601 1.389 . S
C1600 H1573 0.950 . S
C1600 C1586 1.377 . S
C1600 C1599 1.373 . S
C1601 C1585 1.377 . S
C1601 C1599 1.389 . S
C1601 C1602 1.524 . S
C1602 C1601 1.524 . S
C1602 C1603 1.397 . S
C1602 C1607 1.363 . S
C1603 H1574 0.950 . S
C1603 C1602 1.397 . S
C1603 C1604 1.334 . S
C1604 H1575 0.950 . S
C1604 C1603 1.334 . S
C1604 C1605 1.287 . S
C1605 C1604 1.287 . S
C1605 C1606 1.524 . S
C1605 H1608 0.999 . S
C1606 H1576 0.950 . S
C1606 C1605 1.524 . S
C1606 C1607 1.415 . S
C1607 H1577 0.950 . S
C1607 C1602 1.363 . S
C1607 C1606 1.415 . S
H1608 C1605 0.999 . S
H1609 C1590 0.913 . S
H1610 C1628 0.951 . S
H1611 C1630 0.951 . S
H1612 C1632 0.950 . S
H1613 C1633 0.950 . S
H1614 C1635 0.950 . S
H1615 C1638 0.950 . S
H1616 C1639 0.950 . S
H1617 C1641 0.950 . S
H1618 C1642 0.950 . S
H1619 C1643 0.951 . S
H1620 C1645 0.951 . S
H1621 C1647 0.950 . S
H1622 C1648 0.950 . S
H1623 C1650 0.950 . S
H1624 C1653 0.950 . S
H1625 C1654 0.950 . S
H1626 C1656 0.950 . S
H1627 C1657 0.950 . S
C1628 H1610 0.951 . S
C1628 C1629 1.366 . S
C1628 C1630 1.388 . S
C1629 C1628 1.366 . S
C1629 C1633 1.385 . S
C1630 H1611 0.951 . S
C1630 C1628 1.388 . S
C1630 C1631 1.366 . S
C1631 C1630 1.366 . S
C1631 C1632 1.414 . S
C1631 C1634 1.499 . S
C1632 H1612 0.950 . S
C1632 C1631 1.414 . S
C1632 C1633 1.374 . S
C1633 H1613 0.950 . S
C1633 C1629 1.385 . S
C1633 C1632 1.374 . S
C1634 C1631 1.499 . S
C1634 C1635 1.373 . S
C1634 C1636 1.389 . S
C1635 H1614 0.950 . S
C1635 C1634 1.373 . S
C1635 C1651 1.377 . S
C1636 C1634 1.389 . S
C1636 C1637 1.524 . S
C1636 C1650 1.377 . S
C1637 C1636 1.524 . S
C1637 C1638 1.397 . S
C1637 C1642 1.363 . S
C1638 H1615 0.950 . S
C1638 C1637 1.397 . S
C1638 C1639 1.334 . S
C1639 H1616 0.950 . S
C1639 C1638 1.334 . S
C1639 C1640 1.287 . S
C1640 C1639 1.287 . S
C1640 C1641 1.524 . S
C1640 H1659 0.913 . S
C1641 H1617 0.950 . S
C1641 C1640 1.524 . S
C1641 C1642 1.415 . S
C1642 H1618 0.950 . S
C1642 C1637 1.363 . S
C1642 C1641 1.415 . S
C1643 H1619 0.951 . S
C1643 C1644 1.366 . S
C1643 C1645 1.388 . S
C1644 C1643 1.366 . S
C1644 C1648 1.385 . S
C1645 H1620 0.951 . S
C1645 C1643 1.388 . S
C1645 C1646 1.366 . S
C1646 C1645 1.366 . S
C1646 C1647 1.414 . S
C1646 C1649 1.499 . S
C1647 H1621 0.950 . S
C1647 C1646 1.414 . S
C1647 C1648 1.374 . S
C1648 H1622 0.950 . S
C1648 C1644 1.385 . S
C1648 C1647 1.374 . S
C1649 C1646 1.499 . S
C1649 C1650 1.373 . S
C1649 C1651 1.389 . S
C1650 H1623 0.950 . S
C1650 C1636 1.377 . S
C1650 C1649 1.373 . S
C1651 C1635 1.377 . S
C1651 C1649 1.389 . S
C1651 C1652 1.524 . S
C1652 C1651 1.524 . S
C1652 C1653 1.397 . S
C1652 C1657 1.363 . S
C1653 H1624 0.950 . S
C1653 C1652 1.397 . S
C1653 C1654 1.334 . S
C1654 H1625 0.950 . S
C1654 C1653 1.334 . S
C1654 C1655 1.287 . S
C1655 C1654 1.287 . S
C1655 C1656 1.524 . S
C1655 H1658 0.999 . S
C1656 H1626 0.950 . S
C1656 C1655 1.524 . S
C1656 C1657 1.415 . S
C1657 H1627 0.950 . S
C1657 C1652 1.363 . S
C1657 C1656 1.415 . S
H1658 C1655 0.999 . S
H1659 C1640 0.913 . S
H1660 C1678 0.951 . S
H1661 C1680 0.951 . S
H1662 C1682 0.950 . S
H1663 C1683 0.950 . S
H1664 C1685 0.950 . S
H1665 C1688 0.950 . S
H1666 C1689 0.950 . S
H1667 C1691 0.950 . S
H1668 C1692 0.950 . S
H1669 C1693 0.951 . S
H1670 C1695 0.951 . S
H1671 C1697 0.950 . S
H1672 C1698 0.950 . S
H1673 C1700 0.950 . S
H1674 C1703 0.950 . S
H1675 C1704 0.950 . S
H1676 C1706 0.950 . S
H1677 C1707 0.950 . S
C1678 H1660 0.951 . S
C1678 C1679 1.366 . S
C1678 C1680 1.388 . S
C1679 C1678 1.366 . S
C1679 C1683 1.385 . S
C1680 H1661 0.951 . S
C1680 C1678 1.388 . S
C1680 C1681 1.366 . S
C1681 C1680 1.366 . S
C1681 C1682 1.414 . S
C1681 C1684 1.499 . S
C1682 H1662 0.950 . S
C1682 C1681 1.414 . S
C1682 C1683 1.374 . S
C1683 H1663 0.950 . S
C1683 C1679 1.385 . S
C1683 C1682 1.374 . S
C1684 C1681 1.499 . S
C1684 C1685 1.373 . S
C1684 C1686 1.389 . S
C1685 H1664 0.950 . S
C1685 C1684 1.373 . S
C1685 C1701 1.377 . S
C1686 C1684 1.389 . S
C1686 C1687 1.524 . S
C1686 C1700 1.377 . S
C1687 C1686 1.524 . S
C1687 C1688 1.397 . S
C1687 C1692 1.363 . S
C1688 H1665 0.950 . S
C1688 C1687 1.397 . S
C1688 C1689 1.334 . S
C1689 H1666 0.950 . S
C1689 C1688 1.334 . S
C1689 C1690 1.287 . S
C1690 C1689 1.287 . S
C1690 C1691 1.524 . S
C1690 H1709 0.913 . S
C1691 H1667 0.950 . S
C1691 C1690 1.524 . S
C1691 C1692 1.415 . S
C1692 H1668 0.950 . S
C1692 C1687 1.363 . S
C1692 C1691 1.415 . S
C1693 H1669 0.951 . S
C1693 C1694 1.366 . S
C1693 C1695 1.388 . S
C1694 C1693 1.366 . S
C1694 C1698 1.385 . S
C1695 H1670 0.951 . S
C1695 C1693 1.388 . S
C1695 C1696 1.366 . S
C1696 C1695 1.366 . S
C1696 C1697 1.414 . S
C1696 C1699 1.499 . S
C1697 H1671 0.950 . S
C1697 C1696 1.414 . S
C1697 C1698 1.374 . S
C1698 H1672 0.950 . S
C1698 C1694 1.385 . S
C1698 C1697 1.374 . S
C1699 C1696 1.499 . S
C1699 C1700 1.373 . S
C1699 C1701 1.389 . S
C1700 H1673 0.950 . S
C1700 C1686 1.377 . S
C1700 C1699 1.373 . S
C1701 C1685 1.377 . S
C1701 C1699 1.389 . S
C1701 C1702 1.524 . S
C1702 C1701 1.524 . S
C1702 C1703 1.397 . S
C1702 C1707 1.363 . S
C1703 H1674 0.950 . S
C1703 C1702 1.397 . S
C1703 C1704 1.334 . S
C1704 H1675 0.950 . S
C1704 C1703 1.334 . S
C1704 C1705 1.287 . S
C1705 C1704 1.287 . S
C1705 C1706 1.524 . S
C1705 H1708 0.999 . S
C1706 H1676 0.950 . S
C1706 C1705 1.524 . S
C1706 C1707 1.415 . S
C1707 H1677 0.950 . S
C1707 C1702 1.363 . S
C1707 C1706 1.415 . S
H1708 C1705 0.999 . S
H1709 C1690 0.913 . S
H1710 C1728 0.951 . S
H1711 C1730 0.951 . S
H1712 C1732 0.950 . S
H1713 C1733 0.950 . S
H1714 C1735 0.950 . S
H1715 C1738 0.950 . S
H1716 C1739 0.950 . S
H1717 C1741 0.950 . S
H1718 C1742 0.950 . S
H1719 C1743 0.951 . S
H1720 C1745 0.951 . S
H1721 C1747 0.950 . S
H1722 C1748 0.950 . S
H1723 C1750 0.950 . S
H1724 C1753 0.950 . S
H1725 C1754 0.950 . S
H1726 C1756 0.950 . S
H1727 C1757 0.950 . S
C1728 H1710 0.951 . S
C1728 C1729 1.366 . S
C1728 C1730 1.388 . S
C1729 C1728 1.366 . S
C1729 C1733 1.385 . S
C1730 H1711 0.951 . S
C1730 C1728 1.388 . S
C1730 C1731 1.366 . S
C1731 C1730 1.366 . S
C1731 C1732 1.414 . S
C1731 C1734 1.499 . S
C1732 H1712 0.950 . S
C1732 C1731 1.414 . S
C1732 C1733 1.374 . S
C1733 H1713 0.950 . S
C1733 C1729 1.385 . S
C1733 C1732 1.374 . S
C1734 C1731 1.499 . S
C1734 C1735 1.373 . S
C1734 C1736 1.389 . S
C1735 H1714 0.950 . S
C1735 C1734 1.373 . S
C1735 C1751 1.377 . S
C1736 C1734 1.389 . S
C1736 C1737 1.524 . S
C1736 C1750 1.377 . S
C1737 C1736 1.524 . S
C1737 C1738 1.397 . S
C1737 C1742 1.363 . S
C1738 H1715 0.950 . S
C1738 C1737 1.397 . S
C1738 C1739 1.334 . S
C1739 H1716 0.950 . S
C1739 C1738 1.334 . S
C1739 C1740 1.287 . S
C1740 C1739 1.287 . S
C1740 C1741 1.524 . S
C1740 H1759 0.913 . S
C1741 H1717 0.950 . S
C1741 C1740 1.524 . S
C1741 C1742 1.415 . S
C1742 H1718 0.950 . S
C1742 C1737 1.363 . S
C1742 C1741 1.415 . S
C1743 H1719 0.951 . S
C1743 C1744 1.366 . S
C1743 C1745 1.388 . S
C1744 C1743 1.366 . S
C1744 C1748 1.385 . S
C1745 H1720 0.951 . S
C1745 C1743 1.388 . S
C1745 C1746 1.366 . S
C1746 C1745 1.366 . S
C1746 C1747 1.414 . S
C1746 C1749 1.499 . S
C1747 H1721 0.950 . S
C1747 C1746 1.414 . S
C1747 C1748 1.374 . S
C1748 H1722 0.950 . S
C1748 C1744 1.385 . S
C1748 C1747 1.374 . S
C1749 C1746 1.499 . S
C1749 C1750 1.373 . S
C1749 C1751 1.389 . S
C1750 H1723 0.950 . S
C1750 C1736 1.377 . S
C1750 C1749 1.373 . S
C1751 C1735 1.377 . S
C1751 C1749 1.389 . S
C1751 C1752 1.524 . S
C1752 C1751 1.524 . S
C1752 C1753 1.397 . S
C1752 C1757 1.363 . S
C1753 H1724 0.950 . S
C1753 C1752 1.397 . S
C1753 C1754 1.334 . S
C1754 H1725 0.950 . S
C1754 C1753 1.334 . S
C1754 C1755 1.287 . S
C1755 C1754 1.287 . S
C1755 C1756 1.524 . S
C1755 H1758 0.999 . S
C1756 H1726 0.950 . S
C1756 C1755 1.524 . S
C1756 C1757 1.415 . S
C1757 H1727 0.950 . S
C1757 C1752 1.363 . S
C1757 C1756 1.415 . S
H1758 C1755 0.999 . S
H1759 C1740 0.913 . S
H1760 C1778 0.951 . S
H1761 C1780 0.951 . S
H1762 C1782 0.950 . S
H1763 C1783 0.950 . S
H1764 C1785 0.950 . S
H1765 C1788 0.950 . S
H1766 C1789 0.950 . S
H1767 C1791 0.950 . S
H1768 C1792 0.950 . S
H1769 C1793 0.951 . S
H1770 C1795 0.951 . S
H1771 C1797 0.950 . S
H1772 C1798 0.950 . S
H1773 C1800 0.950 . S
H1774 C1803 0.950 . S
H1775 C1804 0.950 . S
H1776 C1806 0.950 . S
H1777 C1807 0.950 . S
C1778 H1760 0.951 . S
C1778 C1779 1.366 . S
C1778 C1780 1.388 . S
C1779 C1778 1.366 . S
C1779 C1783 1.385 . S
C1780 H1761 0.951 . S
C1780 C1778 1.388 . S
C1780 C1781 1.366 . S
C1781 C1780 1.366 . S
C1781 C1782 1.414 . S
C1781 C1784 1.499 . S
C1782 H1762 0.950 . S
C1782 C1781 1.414 . S
C1782 C1783 1.374 . S
C1783 H1763 0.950 . S
C1783 C1779 1.385 . S
C1783 C1782 1.374 . S
C1784 C1781 1.499 . S
C1784 C1785 1.373 . S
C1784 C1786 1.389 . S
C1785 H1764 0.950 . S
C1785 C1784 1.373 . S
C1785 C1801 1.377 . S
C1786 C1784 1.389 . S
C1786 C1787 1.524 . S
C1786 C1800 1.377 . S
C1787 C1786 1.524 . S
C1787 C1788 1.397 . S
C1787 C1792 1.363 . S
C1788 H1765 0.950 . S
C1788 C1787 1.397 . S
C1788 C1789 1.334 . S
C1789 H1766 0.950 . S
C1789 C1788 1.334 . S
C1789 C1790 1.287 . S
C1790 C1789 1.287 . S
C1790 C1791 1.524 . S
C1790 H1809 0.913 . S
C1791 H1767 0.950 . S
C1791 C1790 1.524 . S
C1791 C1792 1.415 . S
C1792 H1768 0.950 . S
C1792 C1787 1.363 . S
C1792 C1791 1.415 . S
C1793 H1769 0.951 . S
C1793 C1794 1.366 . S
C1793 C1795 1.388 . S
C1794 C1793 1.366 . S
C1794 C1798 1.385 . S
C1795 H1770 0.951 . S
C1795 C1793 1.388 . S
C1795 C1796 1.366 . S
C1796 C1795 1.366 . S
C1796 C1797 1.414 . S
C1796 C1799 1.499 . S
C1797 H1771 0.950 . S
C1797 C1796 1.414 . S
C1797 C1798 1.374 . S
C1798 H1772 0.950 . S
C1798 C1794 1.385 . S
C1798 C1797 1.374 . S
C1799 C1796 1.499 . S
C1799 C1800 1.373 . S
C1799 C1801 1.389 . S
C1800 H1773 0.950 . S
C1800 C1786 1.377 . S
C1800 C1799 1.373 . S
C1801 C1785 1.377 . S
C1801 C1799 1.389 . S
C1801 C1802 1.524 . S
C1802 C1801 1.524 . S
C1802 C1803 1.397 . S
C1802 C1807 1.363 . S
C1803 H1774 0.950 . S
C1803 C1802 1.397 . S
C1803 C1804 1.334 . S
C1804 H1775 0.950 . S
C1804 C1803 1.334 . S
C1804 C1805 1.287 . S
C1805 C1804 1.287 . S
C1805 C1806 1.524 . S
C1805 H1808 0.999 . S
C1806 H1776 0.950 . S
C1806 C1805 1.524 . S
C1806 C1807 1.415 . S
C1807 H1777 0.950 . S
C1807 C1802 1.363 . S
C1807 C1806 1.415 . S
H1808 C1805 0.999 . S
H1809 C1790 0.913 . S
H1810 C1828 0.951 . S
H1811 C1830 0.951 . S
H1812 C1832 0.950 . S
H1813 C1833 0.950 . S
H1814 C1835 0.950 . S
H1815 C1838 0.950 . S
H1816 C1839 0.950 . S
H1817 C1841 0.950 . S
H1818 C1842 0.950 . S
H1819 C1843 0.951 . S
H1820 C1845 0.951 . S
H1821 C1847 0.950 . S
H1822 C1848 0.950 . S
H1823 C1850 0.950 . S
H1824 C1853 0.950 . S
H1825 C1854 0.950 . S
H1826 C1856 0.950 . S
H1827 C1857 0.950 . S
C1828 H1810 0.951 . S
C1828 C1829 1.366 . S
C1828 C1830 1.388 . S
C1829 C1828 1.366 . S
C1829 C1833 1.385 . S
C1830 H1811 0.951 . S
C1830 C1828 1.388 . S
C1830 C1831 1.366 . S
C1831 C1830 1.366 . S
C1831 C1832 1.414 . S
C1831 C1834 1.499 . S
C1832 H1812 0.950 . S
C1832 C1831 1.414 . S
C1832 C1833 1.374 . S
C1833 H1813 0.950 . S
C1833 C1829 1.385 . S
C1833 C1832 1.374 . S
C1834 C1831 1.499 . S
C1834 C1835 1.373 . S
C1834 C1836 1.389 . S
C1835 H1814 0.950 . S
C1835 C1834 1.373 . S
C1835 C1851 1.377 . S
C1836 C1834 1.389 . S
C1836 C1837 1.524 . S
C1836 C1850 1.377 . S
C1837 C1836 1.524 . S
C1837 C1838 1.397 . S
C1837 C1842 1.363 . S
C1838 H1815 0.950 . S
C1838 C1837 1.397 . S
C1838 C1839 1.334 . S
C1839 H1816 0.950 . S
C1839 C1838 1.334 . S
C1839 C1840 1.287 . S
C1840 C1839 1.287 . S
C1840 C1841 1.524 . S
C1840 H1859 0.913 . S
C1841 H1817 0.950 . S
C1841 C1840 1.524 . S
C1841 C1842 1.415 . S
C1842 H1818 0.950 . S
C1842 C1837 1.363 . S
C1842 C1841 1.415 . S
C1843 H1819 0.951 . S
C1843 C1844 1.366 . S
C1843 C1845 1.388 . S
C1844 C1843 1.366 . S
C1844 C1848 1.385 . S
C1845 H1820 0.951 . S
C1845 C1843 1.388 . S
C1845 C1846 1.366 . S
C1846 C1845 1.366 . S
C1846 C1847 1.414 . S
C1846 C1849 1.499 . S
C1847 H1821 0.950 . S
C1847 C1846 1.414 . S
C1847 C1848 1.374 . S
C1848 H1822 0.950 . S
C1848 C1844 1.385 . S
C1848 C1847 1.374 . S
C1849 C1846 1.499 . S
C1849 C1850 1.373 . S
C1849 C1851 1.389 . S
C1850 H1823 0.950 . S
C1850 C1836 1.377 . S
C1850 C1849 1.373 . S
C1851 C1835 1.377 . S
C1851 C1849 1.389 . S
C1851 C1852 1.524 . S
C1852 C1851 1.524 . S
C1852 C1853 1.397 . S
C1852 C1857 1.363 . S
C1853 H1824 0.950 . S
C1853 C1852 1.397 . S
C1853 C1854 1.334 . S
C1854 H1825 0.950 . S
C1854 C1853 1.334 . S
C1854 C1855 1.287 . S
C1855 C1854 1.287 . S
C1855 C1856 1.524 . S
C1855 H1858 0.999 . S
C1856 H1826 0.950 . S
C1856 C1855 1.524 . S
C1856 C1857 1.415 . S
C1857 H1827 0.950 . S
C1857 C1852 1.363 . S
C1857 C1856 1.415 . S
H1858 C1855 0.999 . S
H1859 C1840 0.913 . S
H1860 C1878 0.951 . S
H1861 C1880 0.951 . S
H1862 C1882 0.950 . S
H1863 C1883 0.950 . S
H1864 C1885 0.950 . S
H1865 C1888 0.950 . S
H1866 C1889 0.950 . S
H1867 C1891 0.950 . S
H1868 C1892 0.950 . S
H1869 C1893 0.951 . S
H1870 C1895 0.951 . S
H1871 C1897 0.950 . S
H1872 C1898 0.950 . S
H1873 C1900 0.950 . S
H1874 C1903 0.950 . S
H1875 C1904 0.950 . S
H1876 C1906 0.950 . S
H1877 C1907 0.950 . S
C1878 H1860 0.951 . S
C1878 C1879 1.366 . S
C1878 C1880 1.388 . S
C1879 C1878 1.366 . S
C1879 C1883 1.385 . S
C1880 H1861 0.951 . S
C1880 C1878 1.388 . S
C1880 C1881 1.366 . S
C1881 C1880 1.366 . S
C1881 C1882 1.414 . S
C1881 C1884 1.499 . S
C1882 H1862 0.950 . S
C1882 C1881 1.414 . S
C1882 C1883 1.374 . S
C1883 H1863 0.950 . S
C1883 C1879 1.385 . S
C1883 C1882 1.374 . S
C1884 C1881 1.499 . S
C1884 C1885 1.373 . S
C1884 C1886 1.389 . S
C1885 H1864 0.950 . S
C1885 C1884 1.373 . S
C1885 C1901 1.377 . S
C1886 C1884 1.389 . S
C1886 C1887 1.524 . S
C1886 C1900 1.377 . S
C1887 C1886 1.524 . S
C1887 C1888 1.397 . S
C1887 C1892 1.363 . S
C1888 H1865 0.950 . S
C1888 C1887 1.397 . S
C1888 C1889 1.334 . S
C1889 H1866 0.950 . S
C1889 C1888 1.334 . S
C1889 C1890 1.287 . S
C1890 C1889 1.287 . S
C1890 C1891 1.524 . S
C1890 H1909 0.913 . S
C1891 H1867 0.950 . S
C1891 C1890 1.524 . S
C1891 C1892 1.415 . S
C1892 H1868 0.950 . S
C1892 C1887 1.363 . S
C1892 C1891 1.415 . S
C1893 H1869 0.951 . S
C1893 C1894 1.366 . S
C1893 C1895 1.388 . S
C1894 C1893 1.366 . S
C1894 C1898 1.385 . S
C1895 H1870 0.951 . S
C1895 C1893 1.388 . S
C1895 C1896 1.366 . S
C1896 C1895 1.366 . S
C1896 C1897 1.414 . S
C1896 C1899 1.499 . S
C1897 H1871 0.950 . S
C1897 C1896 1.414 . S
C1897 C1898 1.374 . S
C1898 H1872 0.950 . S
C1898 C1894 1.385 . S
C1898 C1897 1.374 . S
C1899 C1896 1.499 . S
C1899 C1900 1.373 . S
C1899 C1901 1.389 . S
C1900 H1873 0.950 . S
C1900 C1886 1.377 . S
C1900 C1899 1.373 . S
C1901 C1885 1.377 . S
C1901 C1899 1.389 . S
C1901 C1902 1.524 . S
C1902 C1901 1.524 . S
C1902 C1903 1.397 . S
C1902 C1907 1.363 . S
C1903 H1874 0.950 . S
C1903 C1902 1.397 . S
C1903 C1904 1.334 . S
C1904 H1875 0.950 . S
C1904 C1903 1.334 . S
C1904 C1905 1.287 . S
C1905 C1904 1.287 . S
C1905 C1906 1.524 . S
C1905 H1908 0.999 . S
C1906 H1876 0.950 . S
C1906 C1905 1.524 . S
C1906 C1907 1.415 . S
C1907 H1877 0.950 . S
C1907 C1902 1.363 . S
C1907 C1906 1.415 . S
H1908 C1905 0.999 . S
H1909 C1890 0.913 . S
H1910 C1928 0.951 . S
H1911 C1930 0.951 . S
H1912 C1932 0.950 . S
H1913 C1933 0.950 . S
H1914 C1935 0.950 . S
H1915 C1938 0.950 . S
H1916 C1939 0.950 . S
H1917 C1941 0.950 . S
H1918 C1942 0.950 . S
H1919 C1943 0.951 . S
H1920 C1945 0.951 . S
H1921 C1947 0.950 . S
H1922 C1948 0.950 . S
H1923 C1950 0.950 . S
H1924 C1953 0.950 . S
H1925 C1954 0.950 . S
H1926 C1956 0.950 . S
H1927 C1957 0.950 . S
C1928 H1910 0.951 . S
C1928 C1929 1.366 . S
C1928 C1930 1.388 . S
C1929 C1928 1.366 . S
C1929 C1933 1.385 . S
C1930 H1911 0.951 . S
C1930 C1928 1.388 . S
C1930 C1931 1.366 . S
C1931 C1930 1.366 . S
C1931 C1932 1.414 . S
C1931 C1934 1.499 . S
C1932 H1912 0.950 . S
C1932 C1931 1.414 . S
C1932 C1933 1.374 . S
C1933 H1913 0.950 . S
C1933 C1929 1.385 . S
C1933 C1932 1.374 . S
C1934 C1931 1.499 . S
C1934 C1935 1.373 . S
C1934 C1936 1.389 . S
C1935 H1914 0.950 . S
C1935 C1934 1.373 . S
C1935 C1951 1.377 . S
C1936 C1934 1.389 . S
C1936 C1937 1.524 . S
C1936 C1950 1.377 . S
C1937 C1936 1.524 . S
C1937 C1938 1.397 . S
C1937 C1942 1.363 . S
C1938 H1915 0.950 . S
C1938 C1937 1.397 . S
C1938 C1939 1.334 . S
C1939 H1916 0.950 . S
C1939 C1938 1.334 . S
C1939 C1940 1.287 . S
C1940 C1939 1.287 . S
C1940 C1941 1.524 . S
C1940 H1959 0.913 . S
C1941 H1917 0.950 . S
C1941 C1940 1.524 . S
C1941 C1942 1.415 . S
C1942 H1918 0.950 . S
C1942 C1937 1.363 . S
C1942 C1941 1.415 . S
C1943 H1919 0.951 . S
C1943 C1944 1.366 . S
C1943 C1945 1.388 . S
C1944 C1943 1.366 . S
C1944 C1948 1.385 . S
C1945 H1920 0.951 . S
C1945 C1943 1.388 . S
C1945 C1946 1.366 . S
C1946 C1945 1.366 . S
C1946 C1947 1.414 . S
C1946 C1949 1.499 . S
C1947 H1921 0.950 . S
C1947 C1946 1.414 . S
C1947 C1948 1.374 . S
C1948 H1922 0.950 . S
C1948 C1944 1.385 . S
C1948 C1947 1.374 . S
C1949 C1946 1.499 . S
C1949 C1950 1.373 . S
C1949 C1951 1.389 . S
C1950 H1923 0.950 . S
C1950 C1936 1.377 . S
C1950 C1949 1.373 . S
C1951 C1935 1.377 . S
C1951 C1949 1.389 . S
C1951 C1952 1.524 . S
C1952 C1951 1.524 . S
C1952 C1953 1.397 . S
C1952 C1957 1.363 . S
C1953 H1924 0.950 . S
C1953 C1952 1.397 . S
C1953 C1954 1.334 . S
C1954 H1925 0.950 . S
C1954 C1953 1.334 . S
C1954 C1955 1.287 . S
C1955 C1954 1.287 . S
C1955 C1956 1.524 . S
C1955 H1958 0.999 . S
C1956 H1926 0.950 . S
C1956 C1955 1.524 . S
C1956 C1957 1.415 . S
C1957 H1927 0.950 . S
C1957 C1952 1.363 . S
C1957 C1956 1.415 . S
H1958 C1955 0.999 . S
H1959 C1940 0.913 . S
H1960 C1978 0.951 . S
H1961 C1980 0.951 . S
H1962 C1982 0.950 . S
H1963 C1983 0.950 . S
H1964 C1985 0.950 . S
H1965 C1988 0.950 . S
H1966 C1989 0.950 . S
H1967 C1991 0.950 . S
H1968 C1992 0.950 . S
H1969 C1993 0.951 . S
H1970 C1995 0.951 . S
H1971 C1997 0.950 . S
H1972 C1998 0.950 . S
H1973 C2000 0.950 . S
H1974 C2003 0.950 . S
H1975 C2004 0.950 . S
H1976 C2006 0.950 . S
H1977 C2007 0.950 . S
C1978 H1960 0.951 . S
C1978 C1979 1.366 . S
C1978 C1980 1.388 . S
C1979 C1978 1.366 . S
C1979 C1983 1.385 . S
C1980 H1961 0.951 . S
C1980 C1978 1.388 . S
C1980 C1981 1.366 . S
C1981 C1980 1.366 . S
C1981 C1982 1.414 . S
C1981 C1984 1.499 . S
C1982 H1962 0.950 . S
C1982 C1981 1.414 . S
C1982 C1983 1.374 . S
C1983 H1963 0.950 . S
C1983 C1979 1.385 . S
C1983 C1982 1.374 . S
C1984 C1981 1.499 . S
C1984 C1985 1.373 . S
C1984 C1986 1.389 . S
C1985 H1964 0.950 . S
C1985 C1984 1.373 . S
C1985 C2001 1.377 . S
C1986 C1984 1.389 . S
C1986 C1987 1.524 . S
C1986 C2000 1.377 . S
C1987 C1986 1.524 . S
C1987 C1988 1.397 . S
C1987 C1992 1.363 . S
C1988 H1965 0.950 . S
C1988 C1987 1.397 . S
C1988 C1989 1.334 . S
C1989 H1966 0.950 . S
C1989 C1988 1.334 . S
C1989 C1990 1.287 . S
C1990 C1989 1.287 . S
C1990 C1991 1.524 . S
C1990 H2009 0.913 . S
C1991 H1967 0.950 . S
C1991 C1990 1.524 . S
C1991 C1992 1.415 . S
C1992 H1968 0.950 . S
C1992 C1987 1.363 . S
C1992 C1991 1.415 . S
C1993 H1969 0.951 . S
C1993 C1994 1.366 . S
C1993 C1995 1.388 . S
C1994 C1993 1.366 . S
C1994 C1998 1.385 . S
C1995 H1970 0.951 . S
C1995 C1993 1.388 . S
C1995 C1996 1.366 . S
C1996 C1995 1.366 . S
C1996 C1997 1.414 . S
C1996 C1999 1.499 . S
C1997 H1971 0.950 . S
C1997 C1996 1.414 . S
C1997 C1998 1.374 . S
C1998 H1972 0.950 . S
C1998 C1994 1.385 . S
C1998 C1997 1.374 . S
C1999 C1996 1.499 . S
C1999 C2000 1.373 . S
C1999 C2001 1.389 . S
C2000 H1973 0.950 . S
C2000 C1986 1.377 . S
C2000 C1999 1.373 . S
C2001 C1985 1.377 . S
C2001 C1999 1.389 . S
C2001 C2002 1.524 . S
C2002 C2001 1.524 . S
C2002 C2003 1.397 . S
C2002 C2007 1.363 . S
C2003 H1974 0.950 . S
C2003 C2002 1.397 . S
C2003 C2004 1.334 . S
C2004 H1975 0.950 . S
C2004 C2003 1.334 . S
C2004 C2005 1.287 . S
C2005 C2004 1.287 . S
C2005 C2006 1.524 . S
C2005 H2008 0.999 . S
C2006 H1976 0.950 . S
C2006 C2005 1.524 . S
C2006 C2007 1.415 . S
C2007 H1977 0.950 . S
C2007 C2002 1.363 . S
C2007 C2006 1.415 . S
H2008 C2005 0.999 . S
H2009 C1990 0.913 . S
H2010 C2028 0.951 . S
H2011 C2030 0.951 . S
H2012 C2032 0.950 . S
H2013 C2033 0.950 . S
H2014 C2035 0.950 . S
H2015 C2038 0.950 . S
H2016 C2039 0.950 . S
H2017 C2041 0.950 . S
H2018 C2042 0.950 . S
H2019 C2043 0.951 . S
H2020 C2045 0.951 . S
H2021 C2047 0.950 . S
H2022 C2048 0.950 . S
H2023 C2050 0.950 . S
H2024 C2053 0.950 . S
H2025 C2054 0.950 . S
H2026 C2056 0.950 . S
H2027 C2057 0.950 . S
C2028 H2010 0.951 . S
C2028 C2029 1.366 . S
C2028 C2030 1.388 . S
C2029 C2028 1.366 . S
C2029 C2033 1.385 . S
C2030 H2011 0.951 . S
C2030 C2028 1.388 . S
C2030 C2031 1.366 . S
C2031 C2030 1.366 . S
C2031 C2032 1.414 . S
C2031 C2034 1.499 . S
C2032 H2012 0.950 . S
C2032 C2031 1.414 . S
C2032 C2033 1.374 . S
C2033 H2013 0.950 . S
C2033 C2029 1.385 . S
C2033 C2032 1.374 . S
C2034 C2031 1.499 . S
C2034 C2035 1.373 . S
C2034 C2036 1.389 . S
C2035 H2014 0.950 . S
C2035 C2034 1.373 . S
C2035 C2051 1.377 . S
C2036 C2034 1.389 . S
C2036 C2037 1.524 . S
C2036 C2050 1.377 . S
C2037 C2036 1.524 . S
C2037 C2038 1.397 . S
C2037 C2042 1.363 . S
C2038 H2015 0.950 . S
C2038 C2037 1.397 . S
C2038 C2039 1.334 . S
C2039 H2016 0.950 . S
C2039 C2038 1.334 . S
C2039 C2040 1.287 . S
C2040 C2039 1.287 . S
C2040 C2041 1.524 . S
C2040 H2059 0.913 . S
C2041 H2017 0.950 . S
C2041 C2040 1.524 . S
C2041 C2042 1.415 . S
C2042 H2018 0.950 . S
C2042 C2037 1.363 . S
C2042 C2041 1.415 . S
C2043 H2019 0.951 . S
C2043 C2044 1.366 . S
C2043 C2045 1.388 . S
C2044 C2043 1.366 . S
C2044 C2048 1.385 . S
C2045 H2020 0.951 . S
C2045 C2043 1.388 . S
C2045 C2046 1.366 . S
C2046 C2045 1.366 . S
C2046 C2047 1.414 . S
C2046 C2049 1.499 . S
C2047 H2021 0.950 . S
C2047 C2046 1.414 . S
C2047 C2048 1.374 . S
C2048 H2022 0.950 . S
C2048 C2044 1.385 . S
C2048 C2047 1.374 . S
C2049 C2046 1.499 . S
C2049 C2050 1.373 . S
C2049 C2051 1.389 . S
C2050 H2023 0.950 . S
C2050 C2036 1.377 . S
C2050 C2049 1.373 . S
C2051 C2035 1.377 . S
C2051 C2049 1.389 . S
C2051 C2052 1.524 . S
C2052 C2051 1.524 . S
C2052 C2053 1.397 . S
C2052 C2057 1.363 . S
C2053 H2024 0.950 . S
C2053 C2052 1.397 . S
C2053 C2054 1.334 . S
C2054 H2025 0.950 . S
C2054 C2053 1.334 . S
C2054 C2055 1.287 . S
C2055 C2054 1.287 . S
C2055 C2056 1.524 . S
C2055 H2058 0.999 . S
C2056 H2026 0.950 . S
C2056 C2055 1.524 . S
C2056 C2057 1.415 . S
C2057 H2027 0.950 . S
C2057 C2052 1.363 . S
C2057 C2056 1.415 . S
H2058 C2055 0.999 . S
H2059 C2040 0.913 . S
H2060 C2078 0.951 . S
H2061 C2080 0.951 . S
H2062 C2082 0.950 . S
H2063 C2083 0.950 . S
H2064 C2085 0.950 . S
H2065 C2088 0.950 . S
H2066 C2089 0.950 . S
H2067 C2091 0.950 . S
H2068 C2092 0.950 . S
H2069 C2093 0.951 . S
H2070 C2095 0.951 . S
H2071 C2097 0.950 . S
H2072 C2098 0.950 . S
H2073 C2100 0.950 . S
H2074 C2103 0.950 . S
H2075 C2104 0.950 . S
H2076 C2106 0.950 . S
H2077 C2107 0.950 . S
C2078 H2060 0.951 . S
C2078 C2079 1.366 . S
C2078 C2080 1.388 . S
C2079 C2078 1.366 . S
C2079 C2083 1.385 . S
C2080 H2061 0.951 . S
C2080 C2078 1.388 . S
C2080 C2081 1.366 . S
C2081 C2080 1.366 . S
C2081 C2082 1.414 . S
C2081 C2084 1.499 . S
C2082 H2062 0.950 . S
C2082 C2081 1.414 . S
C2082 C2083 1.374 . S
C2083 H2063 0.950 . S
C2083 C2079 1.385 . S
C2083 C2082 1.374 . S
C2084 C2081 1.499 . S
C2084 C2085 1.373 . S
C2084 C2086 1.389 . S
C2085 H2064 0.950 . S
C2085 C2084 1.373 . S
C2085 C2101 1.377 . S
C2086 C2084 1.389 . S
C2086 C2087 1.524 . S
C2086 C2100 1.377 . S
C2087 C2086 1.524 . S
C2087 C2088 1.397 . S
C2087 C2092 1.363 . S
C2088 H2065 0.950 . S
C2088 C2087 1.397 . S
C2088 C2089 1.334 . S
C2089 H2066 0.950 . S
C2089 C2088 1.334 . S
C2089 C2090 1.287 . S
C2090 C2089 1.287 . S
C2090 C2091 1.524 . S
C2090 H2109 0.913 . S
C2091 H2067 0.950 . S
C2091 C2090 1.524 . S
C2091 C2092 1.415 . S
C2092 H2068 0.950 . S
C2092 C2087 1.363 . S
C2092 C2091 1.415 . S
C2093 H2069 0.951 . S
C2093 C2094 1.366 . S
C2093 C2095 1.388 . S
C2094 C2093 1.366 . S
C2094 C2098 1.385 . S
C2095 H2070 0.951 . S
C2095 C2093 1.388 . S
C2095 C2096 1.366 . S
C2096 C2095 1.366 . S
C2096 C2097 1.414 . S
C2096 C2099 1.499 . S
C2097 H2071 0.950 . S
C2097 C2096 1.414 . S
C2097 C2098 1.374 . S
C2098 H2072 0.950 . S
C2098 C2094 1.385 . S
C2098 C2097 1.374 . S
C2099 C2096 1.499 . S
C2099 C2100 1.373 . S
C2099 C2101 1.389 . S
C2100 H2073 0.950 . S
C2100 C2086 1.377 . S
C2100 C2099 1.373 . S
C2101 C2085 1.377 . S
C2101 C2099 1.389 . S
C2101 C2102 1.524 . S
C2102 C2101 1.524 . S
C2102 C2103 1.397 . S
C2102 C2107 1.363 . S
C2103 H2074 0.950 . S
C2103 C2102 1.397 . S
C2103 C2104 1.334 . S
C2104 H2075 0.950 . S
C2104 C2103 1.334 . S
C2104 C2105 1.287 . S
C2105 C2104 1.287 . S
C2105 C2106 1.524 . S
C2105 H2108 0.999 . S
C2106 H2076 0.950 . S
C2106 C2105 1.524 . S
C2106 C2107 1.415 . S
C2107 H2077 0.950 . S
C2107 C2102 1.363 . S
C2107 C2106 1.415 . S
H2108 C2105 0.999 . S
H2109 C2090 0.913 . S
H2110 C2128 0.951 . S
H2111 C2130 0.951 . S
H2112 C2132 0.950 . S
H2113 C2133 0.950 . S
H2114 C2135 0.950 . S
H2115 C2138 0.950 . S
H2116 C2139 0.950 . S
H2117 C2141 0.950 . S
H2118 C2142 0.950 . S
H2119 C2143 0.951 . S
H2120 C2145 0.951 . S
H2121 C2147 0.950 . S
H2122 C2148 0.950 . S
H2123 C2150 0.950 . S
H2124 C2153 0.950 . S
H2125 C2154 0.950 . S
H2126 C2156 0.950 . S
H2127 C2157 0.950 . S
C2128 H2110 0.951 . S
C2128 C2129 1.366 . S
C2128 C2130 1.388 . S
C2129 C2128 1.366 . S
C2129 C2133 1.385 . S
C2130 H2111 0.951 . S
C2130 C2128 1.388 . S
C2130 C2131 1.366 . S
C2131 C2130 1.366 . S
C2131 C2132 1.414 . S
C2131 C2134 1.499 . S
C2132 H2112 0.950 . S
C2132 C2131 1.414 . S
C2132 C2133 1.374 . S
C2133 H2113 0.950 . S
C2133 C2129 1.385 . S
C2133 C2132 1.374 . S
C2134 C2131 1.499 . S
C2134 C2135 1.373 . S
C2134 C2136 1.389 . S
C2135 H2114 0.950 . S
C2135 C2134 1.373 . S
C2135 C2151 1.377 . S
C2136 C2134 1.389 . S
C2136 C2137 1.524 . S
C2136 C2150 1.377 . S
C2137 C2136 1.524 . S
C2137 C2138 1.397 . S
C2137 C2142 1.363 . S
C2138 H2115 0.950 . S
C2138 C2137 1.397 . S
C2138 C2139 1.334 . S
C2139 H2116 0.950 . S
C2139 C2138 1.334 . S
C2139 C2140 1.287 . S
C2140 C2139 1.287 . S
C2140 C2141 1.524 . S
C2140 H2159 0.913 . S
C2141 H2117 0.950 . S
C2141 C2140 1.524 . S
C2141 C2142 1.415 . S
C2142 H2118 0.950 . S
C2142 C2137 1.363 . S
C2142 C2141 1.415 . S
C2143 H2119 0.951 . S
C2143 C2144 1.366 . S
C2143 C2145 1.388 . S
C2144 C2143 1.366 . S
C2144 C2148 1.385 . S
C2145 H2120 0.951 . S
C2145 C2143 1.388 . S
C2145 C2146 1.366 . S
C2146 C2145 1.366 . S
C2146 C2147 1.414 . S
C2146 C2149 1.499 . S
C2147 H2121 0.950 . S
C2147 C2146 1.414 . S
C2147 C2148 1.374 . S
C2148 H2122 0.950 . S
C2148 C2144 1.385 . S
C2148 C2147 1.374 . S
C2149 C2146 1.499 . S
C2149 C2150 1.373 . S
C2149 C2151 1.389 . S
C2150 H2123 0.950 . S
C2150 C2136 1.377 . S
C2150 C2149 1.373 . S
C2151 C2135 1.377 . S
C2151 C2149 1.389 . S
C2151 C2152 1.524 . S
C2152 C2151 1.524 . S
C2152 C2153 1.397 . S
C2152 C2157 1.363 . S
C2153 H2124 0.950 . S
C2153 C2152 1.397 . S
C2153 C2154 1.334 . S
C2154 H2125 0.950 . S
C2154 C2153 1.334 . S
C2154 C2155 1.287 . S
C2155 C2154 1.287 . S
C2155 C2156 1.524 . S
C2155 H2158 0.999 . S
C2156 H2126 0.950 . S
C2156 C2155 1.524 . S
C2156 C2157 1.415 . S
C2157 H2127 0.950 . S
C2157 C2152 1.363 . S
C2157 C2156 1.415 . S
H2158 C2155 0.999 . S
H2159 C2140 0.913 . S
H2160 C2178 0.951 . S
H2161 C2180 0.951 . S
H2162 C2182 0.950 . S
H2163 C2183 0.950 . S
H2164 C2185 0.950 . S
H2165 C2188 0.950 . S
H2166 C2189 0.950 . S
H2167 C2191 0.950 . S
H2168 C2192 0.950 . S
H2169 C2193 0.951 . S
H2170 C2195 0.951 . S
H2171 C2197 0.950 . S
H2172 C2198 0.950 . S
H2173 C2200 0.950 . S
H2174 C2203 0.950 . S
H2175 C2204 0.950 . S
H2176 C2206 0.950 . S
H2177 C2207 0.950 . S
C2178 H2160 0.951 . S
C2178 C2179 1.366 . S
C2178 C2180 1.388 . S
C2179 C2178 1.366 . S
C2179 C2183 1.385 . S
C2180 H2161 0.951 . S
C2180 C2178 1.388 . S
C2180 C2181 1.366 . S
C2181 C2180 1.366 . S
C2181 C2182 1.414 . S
C2181 C2184 1.499 . S
C2182 H2162 0.950 . S
C2182 C2181 1.414 . S
C2182 C2183 1.374 . S
C2183 H2163 0.950 . S
C2183 C2179 1.385 . S
C2183 C2182 1.374 . S
C2184 C2181 1.499 . S
C2184 C2185 1.373 . S
C2184 C2186 1.389 . S
C2185 H2164 0.950 . S
C2185 C2184 1.373 . S
C2185 C2201 1.377 . S
C2186 C2184 1.389 . S
C2186 C2187 1.524 . S
C2186 C2200 1.377 . S
C2187 C2186 1.524 . S
C2187 C2188 1.397 . S
C2187 C2192 1.363 . S
C2188 H2165 0.950 . S
C2188 C2187 1.397 . S
C2188 C2189 1.334 . S
C2189 H2166 0.950 . S
C2189 C2188 1.334 . S
C2189 C2190 1.287 . S
C2190 C2189 1.287 . S
C2190 C2191 1.524 . S
C2190 H2209 0.913 . S
C2191 H2167 0.950 . S
C2191 C2190 1.524 . S
C2191 C2192 1.415 . S
C2192 H2168 0.950 . S
C2192 C2187 1.363 . S
C2192 C2191 1.415 . S
C2193 H2169 0.951 . S
C2193 C2194 1.366 . S
C2193 C2195 1.388 . S
C2194 C2193 1.366 . S
C2194 C2198 1.385 . S
C2195 H2170 0.951 . S
C2195 C2193 1.388 . S
C2195 C2196 1.366 . S
C2196 C2195 1.366 . S
C2196 C2197 1.414 . S
C2196 C2199 1.499 . S
C2197 H2171 0.950 . S
C2197 C2196 1.414 . S
C2197 C2198 1.374 . S
C2198 H2172 0.950 . S
C2198 C2194 1.385 . S
C2198 C2197 1.374 . S
C2199 C2196 1.499 . S
C2199 C2200 1.373 . S
C2199 C2201 1.389 . S
C2200 H2173 0.950 . S
C2200 C2186 1.377 . S
C2200 C2199 1.373 . S
C2201 C2185 1.377 . S
C2201 C2199 1.389 . S
C2201 C2202 1.524 . S
C2202 C2201 1.524 . S
C2202 C2203 1.397 . S
C2202 C2207 1.363 . S
C2203 H2174 0.950 . S
C2203 C2202 1.397 . S
C2203 C2204 1.334 . S
C2204 H2175 0.950 . S
C2204 C2203 1.334 . S
C2204 C2205 1.287 . S
C2205 C2204 1.287 . S
C2205 C2206 1.524 . S
C2205 H2208 0.999 . S
C2206 H2176 0.950 . S
C2206 C2205 1.524 . S
C2206 C2207 1.415 . S
C2207 H2177 0.950 . S
C2207 C2202 1.363 . S
C2207 C2206 1.415 . S
H2208 C2205 0.999 . S
H2209 C2190 0.913 . S
H2210 C2228 0.951 . S
H2211 C2230 0.951 . S
H2212 C2232 0.950 . S
H2213 C2233 0.950 . S
H2214 C2235 0.950 . S
H2215 C2238 0.950 . S
H2216 C2239 0.950 . S
H2217 C2241 0.950 . S
H2218 C2242 0.950 . S
H2219 C2243 0.951 . S
H2220 C2245 0.951 . S
H2221 C2247 0.950 . S
H2222 C2248 0.950 . S
H2223 C2250 0.950 . S
H2224 C2253 0.950 . S
H2225 C2254 0.950 . S
H2226 C2256 0.950 . S
H2227 C2257 0.950 . S
C2228 H2210 0.951 . S
C2228 C2229 1.366 . S
C2228 C2230 1.388 . S
C2229 C2228 1.366 . S
C2229 C2233 1.385 . S
C2230 H2211 0.951 . S
C2230 C2228 1.388 . S
C2230 C2231 1.366 . S
C2231 C2230 1.366 . S
C2231 C2232 1.414 . S
C2231 C2234 1.499 . S
C2232 H2212 0.950 . S
C2232 C2231 1.414 . S
C2232 C2233 1.374 . S
C2233 H2213 0.950 . S
C2233 C2229 1.385 . S
C2233 C2232 1.374 . S
C2234 C2231 1.499 . S
C2234 C2235 1.373 . S
C2234 C2236 1.389 . S
C2235 H2214 0.950 . S
C2235 C2234 1.373 . S
C2235 C2251 1.377 . S
C2236 C2234 1.389 . S
C2236 C2237 1.524 . S
C2236 C2250 1.377 . S
C2237 C2236 1.524 . S
C2237 C2238 1.397 . S
C2237 C2242 1.363 . S
C2238 H2215 0.950 . S
C2238 C2237 1.397 . S
C2238 C2239 1.334 . S
C2239 H2216 0.950 . S
C2239 C2238 1.334 . S
C2239 C2240 1.287 . S
C2240 C2239 1.287 . S
C2240 C2241 1.524 . S
C2240 H2259 0.913 . S
C2241 H2217 0.950 . S
C2241 C2240 1.524 . S
C2241 C2242 1.415 . S
C2242 H2218 0.950 . S
C2242 C2237 1.363 . S
C2242 C2241 1.415 . S
C2243 H2219 0.951 . S
C2243 C2244 1.366 . S
C2243 C2245 1.388 . S
C2244 C2243 1.366 . S
C2244 C2248 1.385 . S
C2245 H2220 0.951 . S
C2245 C2243 1.388 . S
C2245 C2246 1.366 . S
C2246 C2245 1.366 . S
C2246 C2247 1.414 . S
C2246 C2249 1.499 . S
C2247 H2221 0.950 . S
C2247 C2246 1.414 . S
C2247 C2248 1.374 . S
C2248 H2222 0.950 . S
C2248 C2244 1.385 . S
C2248 C2247 1.374 . S
C2249 C2246 1.499 . S
C2249 C2250 1.373 . S
C2249 C2251 1.389 . S
C2250 H2223 0.950 . S
C2250 C2236 1.377 . S
C2250 C2249 1.373 . S
C2251 C2235 1.377 . S
C2251 C2249 1.389 . S
C2251 C2252 1.524 . S
C2252 C2251 1.524 . S
C2252 C2253 1.397 . S
C2252 C2257 1.363 . S
C2253 H2224 0.950 . S
C2253 C2252 1.397 . S
C2253 C2254 1.334 . S
C2254 H2225 0.950 . S
C2254 C2253 1.334 . S
C2254 C2255 1.287 . S
C2255 C2254 1.287 . S
C2255 C2256 1.524 . S
C2255 H2258 0.999 . S
C2256 H2226 0.950 . S
C2256 C2255 1.524 . S
C2256 C2257 1.415 . S
C2257 H2227 0.950 . S
C2257 C2252 1.363 . S
C2257 C2256 1.415 . S
H2258 C2255 0.999 . S
H2259 C2240 0.913 . S
H2260 C2278 0.951 . S
H2261 C2280 0.951 . S
H2262 C2282 0.950 . S
H2263 C2283 0.950 . S
H2264 C2285 0.950 . S
H2265 C2288 0.950 . S
H2266 C2289 0.950 . S
H2267 C2291 0.950 . S
H2268 C2292 0.950 . S
H2269 C2293 0.951 . S
H2270 C2295 0.951 . S
H2271 C2297 0.950 . S
H2272 C2298 0.950 . S
H2273 C2300 0.950 . S
H2274 C2303 0.950 . S
H2275 C2304 0.950 . S
H2276 C2306 0.950 . S
H2277 C2307 0.950 . S
C2278 H2260 0.951 . S
C2278 C2279 1.366 . S
C2278 C2280 1.388 . S
C2279 C2278 1.366 . S
C2279 C2283 1.385 . S
C2280 H2261 0.951 . S
C2280 C2278 1.388 . S
C2280 C2281 1.366 . S
C2281 C2280 1.366 . S
C2281 C2282 1.414 . S
C2281 C2284 1.499 . S
C2282 H2262 0.950 . S
C2282 C2281 1.414 . S
C2282 C2283 1.374 . S
C2283 H2263 0.950 . S
C2283 C2279 1.385 . S
C2283 C2282 1.374 . S
C2284 C2281 1.499 . S
C2284 C2285 1.373 . S
C2284 C2286 1.389 . S
C2285 H2264 0.950 . S
C2285 C2284 1.373 . S
C2285 C2301 1.377 . S
C2286 C2284 1.389 . S
C2286 C2287 1.524 . S
C2286 C2300 1.377 . S
C2287 C2286 1.524 . S
C2287 C2288 1.397 . S
C2287 C2292 1.363 . S
C2288 H2265 0.950 . S
C2288 C2287 1.397 . S
C2288 C2289 1.334 . S
C2289 H2266 0.950 . S
C2289 C2288 1.334 . S
C2289 C2290 1.287 . S
C2290 C2289 1.287 . S
C2290 C2291 1.524 . S
C2290 H2309 0.913 . S
C2291 H2267 0.950 . S
C2291 C2290 1.524 . S
C2291 C2292 1.415 . S
C2292 H2268 0.950 . S
C2292 C2287 1.363 . S
C2292 C2291 1.415 . S
C2293 H2269 0.951 . S
C2293 C2294 1.366 . S
C2293 C2295 1.388 . S
C2294 C2293 1.366 . S
C2294 C2298 1.385 . S
C2295 H2270 0.951 . S
C2295 C2293 1.388 . S
C2295 C2296 1.366 . S
C2296 C2295 1.366 . S
C2296 C2297 1.414 . S
C2296 C2299 1.499 . S
C2297 H2271 0.950 . S
C2297 C2296 1.414 . S
C2297 C2298 1.374 . S
C2298 H2272 0.950 . S
C2298 C2294 1.385 . S
C2298 C2297 1.374 . S
C2299 C2296 1.499 . S
C2299 C2300 1.373 . S
C2299 C2301 1.389 . S
C2300 H2273 0.950 . S
C2300 C2286 1.377 . S
C2300 C2299 1.373 . S
C2301 C2285 1.377 . S
C2301 C2299 1.389 . S
C2301 C2302 1.524 . S
C2302 C2301 1.524 . S
C2302 C2303 1.397 . S
C2302 C2307 1.363 . S
C2303 H2274 0.950 . S
C2303 C2302 1.397 . S
C2303 C2304 1.334 . S
C2304 H2275 0.950 . S
C2304 C2303 1.334 . S
C2304 C2305 1.287 . S
C2305 C2304 1.287 . S
C2305 C2306 1.524 . S
C2305 H2308 0.999 . S
C2306 H2276 0.950 . S
C2306 C2305 1.524 . S
C2306 C2307 1.415 . S
C2307 H2277 0.950 . S
C2307 C2302 1.363 . S
C2307 C2306 1.415 . S
H2308 C2305 0.999 . S
H2309 C2290 0.913 . S
H2310 C2328 0.951 . S
H2311 C2330 0.951 . S
H2312 C2332 0.950 . S
H2313 C2333 0.950 . S
H2314 C2335 0.950 . S
H2315 C2338 0.950 . S
H2316 C2339 0.950 . S
H2317 C2341 0.950 . S
H2318 C2342 0.950 . S
H2319 C2343 0.951 . S
H2320 C2345 0.951 . S
H2321 C2347 0.950 . S
H2322 C2348 0.950 . S
H2323 C2350 0.950 . S
H2324 C2353 0.950 . S
H2325 C2354 0.950 . S
H2326 C2356 0.950 . S
H2327 C2357 0.950 . S
C2328 H2310 0.951 . S
C2328 C2329 1.366 . S
C2328 C2330 1.388 . S
C2329 C2328 1.366 . S
C2329 C2333 1.385 . S
C2330 H2311 0.951 . S
C2330 C2328 1.388 . S
C2330 C2331 1.366 . S
C2331 C2330 1.366 . S
C2331 C2332 1.414 . S
C2331 C2334 1.499 . S
C2332 H2312 0.950 . S
C2332 C2331 1.414 . S
C2332 C2333 1.374 . S
C2333 H2313 0.950 . S
C2333 C2329 1.385 . S
C2333 C2332 1.374 . S
C2334 C2331 1.499 . S
C2334 C2335 1.373 . S
C2334 C2336 1.389 . S
C2335 H2314 0.950 . S
C2335 C2334 1.373 . S
C2335 C2351 1.377 . S
C2336 C2334 1.389 . S
C2336 C2337 1.524 . S
C2336 C2350 1.377 . S
C2337 C2336 1.524 . S
C2337 C2338 1.397 . S
C2337 C2342 1.363 . S
C2338 H2315 0.950 . S
C2338 C2337 1.397 . S
C2338 C2339 1.334 . S
C2339 H2316 0.950 . S
C2339 C2338 1.334 . S
C2339 C2340 1.287 . S
C2340 C2339 1.287 . S
C2340 C2341 1.524 . S
C2340 H2359 0.913 . S
C2341 H2317 0.950 . S
C2341 C2340 1.524 . S
C2341 C2342 1.415 . S
C2342 H2318 0.950 . S
C2342 C2337 1.363 . S
C2342 C2341 1.415 . S
C2343 H2319 0.951 . S
C2343 C2344 1.366 . S
C2343 C2345 1.388 . S
C2344 C2343 1.366 . S
C2344 C2348 1.385 . S
C2345 H2320 0.951 . S
C2345 C2343 1.388 . S
C2345 C2346 1.366 . S
C2346 C2345 1.366 . S
C2346 C2347 1.414 . S
C2346 C2349 1.499 . S
C2347 H2321 0.950 . S
C2347 C2346 1.414 . S
C2347 C2348 1.374 . S
C2348 H2322 0.950 . S
C2348 C2344 1.385 . S
C2348 C2347 1.374 . S
C2349 C2346 1.499 . S
C2349 C2350 1.373 . S
C2349 C2351 1.389 . S
C2350 H2323 0.950 . S
C2350 C2336 1.377 . S
C2350 C2349 1.373 . S
C2351 C2335 1.377 . S
C2351 C2349 1.389 . S
C2351 C2352 1.524 . S
C2352 C2351 1.524 . S
C2352 C2353 1.397 . S
C2352 C2357 1.363 . S
C2353 H2324 0.950 . S
C2353 C2352 1.397 . S
C2353 C2354 1.334 . S
C2354 H2325 0.950 . S
C2354 C2353 1.334 . S
C2354 C2355 1.287 . S
C2355 C2354 1.287 . S
C2355 C2356 1.524 . S
C2355 H2358 0.999 . S
C2356 H2326 0.950 . S
C2356 C2355 1.524 . S
C2356 C2357 1.415 . S
C2357 H2327 0.950 . S
C2357 C2352 1.363 . S
C2357 C2356 1.415 . S
H2358 C2355 0.999 . S
H2359 C2340 0.913 . S
H2360 C2378 0.951 . S
H2361 C2380 0.951 . S
H2362 C2382 0.950 . S
H2363 C2383 0.950 . S
H2364 C2385 0.950 . S
H2365 C2388 0.950 . S
H2366 C2389 0.950 . S
H2367 C2391 0.950 . S
H2368 C2392 0.950 . S
H2369 C2393 0.951 . S
H2370 C2395 0.951 . S
H2371 C2397 0.950 . S
H2372 C2398 0.950 . S
H2373 C2400 0.950 . S
H2374 C2403 0.950 . S
H2375 C2404 0.950 . S
H2376 C2406 0.950 . S
H2377 C2407 0.950 . S
C2378 H2360 0.951 . S
C2378 C2379 1.366 . S
C2378 C2380 1.388 . S
C2379 C2378 1.366 . S
C2379 C2383 1.385 . S
C2380 H2361 0.951 . S
C2380 C2378 1.388 . S
C2380 C2381 1.366 . S
C2381 C2380 1.366 . S
C2381 C2382 1.414 . S
C2381 C2384 1.499 . S
C2382 H2362 0.950 . S
C2382 C2381 1.414 . S
C2382 C2383 1.374 . S
C2383 H2363 0.950 . S
C2383 C2379 1.385 . S
C2383 C2382 1.374 . S
C2384 C2381 1.499 . S
C2384 C2385 1.373 . S
C2384 C2386 1.389 . S
C2385 H2364 0.950 . S
C2385 C2384 1.373 . S
C2385 C2401 1.377 . S
C2386 C2384 1.389 . S
C2386 C2387 1.524 . S
C2386 C2400 1.377 . S
C2387 C2386 1.524 . S
C2387 C2388 1.397 . S
C2387 C2392 1.363 . S
C2388 H2365 0.950 . S
C2388 C2387 1.397 . S
C2388 C2389 1.334 . S
C2389 H2366 0.950 . S
C2389 C2388 1.334 . S
C2389 C2390 1.287 . S
C2390 C2389 1.287 . S
C2390 C2391 1.524 . S
C2390 H2409 0.913 . S
C2391 H2367 0.950 . S
C2391 C2390 1.524 . S
C2391 C2392 1.415 . S
C2392 H2368 0.950 . S
C2392 C2387 1.363 . S
C2392 C2391 1.415 . S
C2393 H2369 0.951 . S
C2393 C2394 1.366 . S
C2393 C2395 1.388 . S
C2394 C2393 1.366 . S
C2394 C2398 1.385 . S
C2395 H2370 0.951 . S
C2395 C2393 1.388 . S
C2395 C2396 1.366 . S
C2396 C2395 1.366 . S
C2396 C2397 1.414 . S
C2396 C2399 1.499 . S
C2397 H2371 0.950 . S
C2397 C2396 1.414 . S
C2397 C2398 1.374 . S
C2398 H2372 0.950 . S
C2398 C2394 1.385 . S
C2398 C2397 1.374 . S
C2399 C2396 1.499 . S
C2399 C2400 1.373 . S
C2399 C2401 1.389 . S
C2400 H2373 0.950 . S
C2400 C2386 1.377 . S
C2400 C2399 1.373 . S
C2401 C2385 1.377 . S
C2401 C2399 1.389 . S
C2401 C2402 1.524 . S
C2402 C2401 1.524 . S
C2402 C2403 1.397 . S
C2402 C2407 1.363 . S
C2403 H2374 0.950 . S
C2403 C2402 1.397 . S
C2403 C2404 1.334 . S
C2404 H2375 0.950 . S
C2404 C2403 1.334 . S
C2404 C2405 1.287 . S
C2405 C2404 1.287 . S
C2405 C2406 1.524 . S
C2405 H2408 0.999 . S
C2406 H2376 0.950 . S
C2406 C2405 1.524 . S
C2406 C2407 1.415 . S
C2407 H2377 0.950 . S
C2407 C2402 1.363 . S
C2407 C2406 1.415 . S
H2408 C2405 0.999 . S
H2409 C2390 0.913 . S
H2410 C2428 0.951 . S
H2411 C2430 0.951 . S
H2412 C2432 0.950 . S
H2413 C2433 0.950 . S
H2414 C2435 0.950 . S
H2415 C2438 0.950 . S
H2416 C2439 0.950 . S
H2417 C2441 0.950 . S
H2418 C2442 0.950 . S
H2419 C2443 0.951 . S
H2420 C2445 0.951 . S
H2421 C2447 0.950 . S
H2422 C2448 0.950 . S
H2423 C2450 0.950 . S
H2424 C2453 0.950 . S
H2425 C2454 0.950 . S
H2426 C2456 0.950 . S
H2427 C2457 0.950 . S
C2428 H2410 0.951 . S
C2428 C2429 1.366 . S
C2428 C2430 1.388 . S
C2429 C2428 1.366 . S
C2429 C2433 1.385 . S
C2430 H2411 0.951 . S
C2430 C2428 1.388 . S
C2430 C2431 1.366 . S
C2431 C2430 1.366 . S
C2431 C2432 1.414 . S
C2431 C2434 1.499 . S
C2432 H2412 0.950 . S
C2432 C2431 1.414 . S
C2432 C2433 1.374 . S
C2433 H2413 0.950 . S
C2433 C2429 1.385 . S
C2433 C2432 1.374 . S
C2434 C2431 1.499 . S
C2434 C2435 1.373 . S
C2434 C2436 1.389 . S
C2435 H2414 0.950 . S
C2435 C2434 1.373 . S
C2435 C2451 1.377 . S
C2436 C2434 1.389 . S
C2436 C2437 1.524 . S
C2436 C2450 1.377 . S
C2437 C2436 1.524 . S
C2437 C2438 1.397 . S
C2437 C2442 1.363 . S
C2438 H2415 0.950 . S
C2438 C2437 1.397 . S
C2438 C2439 1.334 . S
C2439 H2416 0.950 . S
C2439 C2438 1.334 . S
C2439 C2440 1.287 . S
C2440 C2439 1.287 . S
C2440 C2441 1.524 . S
C2440 H2459 0.913 . S
C2441 H2417 0.950 . S
C2441 C2440 1.524 . S
C2441 C2442 1.415 . S
C2442 H2418 0.950 . S
C2442 C2437 1.363 . S
C2442 C2441 1.415 . S
C2443 H2419 0.951 . S
C2443 C2444 1.366 . S
C2443 C2445 1.388 . S
C2444 C2443 1.366 . S
C2444 C2448 1.385 . S
C2445 H2420 0.951 . S
C2445 C2443 1.388 . S
C2445 C2446 1.366 . S
C2446 C2445 1.366 . S
C2446 C2447 1.414 . S
C2446 C2449 1.499 . S
C2447 H2421 0.950 . S
C2447 C2446 1.414 . S
C2447 C2448 1.374 . S
C2448 H2422 0.950 . S
C2448 C2444 1.385 . S
C2448 C2447 1.374 . S
C2449 C2446 1.499 . S
C2449 C2450 1.373 . S
C2449 C2451 1.389 . S
C2450 H2423 0.950 . S
C2450 C2436 1.377 . S
C2450 C2449 1.373 . S
C2451 C2435 1.377 . S
C2451 C2449 1.389 . S
C2451 C2452 1.524 . S
C2452 C2451 1.524 . S
C2452 C2453 1.397 . S
C2452 C2457 1.363 . S
C2453 H2424 0.950 . S
C2453 C2452 1.397 . S
C2453 C2454 1.334 . S
C2454 H2425 0.950 . S
C2454 C2453 1.334 . S
C2454 C2455 1.287 . S
C2455 C2454 1.287 . S
C2455 C2456 1.524 . S
C2455 H2458 0.999 . S
C2456 H2426 0.950 . S
C2456 C2455 1.524 . S
C2456 C2457 1.415 . S
C2457 H2427 0.950 . S
C2457 C2452 1.363 . S
C2457 C2456 1.415 . S
H2458 C2455 0.999 . S
H2459 C2440 0.913 . S
H2460 C2478 0.951 . S
H2461 C2480 0.951 . S
H2462 C2482 0.950 . S
H2463 C2483 0.950 . S
H2464 C2485 0.950 . S
H2465 C2488 0.950 . S
H2466 C2489 0.950 . S
H2467 C2491 0.950 . S
H2468 C2492 0.950 . S
H2469 C2493 0.951 . S
H2470 C2495 0.951 . S
H2471 C2497 0.950 . S
H2472 C2498 0.950 . S
H2473 C2500 0.950 . S
H2474 C2503 0.950 . S
H2475 C2504 0.950 . S
H2476 C2506 0.950 . S
H2477 C2507 0.950 . S
C2478 H2460 0.951 . S
C2478 C2479 1.366 . S
C2478 C2480 1.388 . S
C2479 C2478 1.366 . S
C2479 C2483 1.385 . S
C2480 H2461 0.951 . S
C2480 C2478 1.388 . S
C2480 C2481 1.366 . S
C2481 C2480 1.366 . S
C2481 C2482 1.414 . S
C2481 C2484 1.499 . S
C2482 H2462 0.950 . S
C2482 C2481 1.414 . S
C2482 C2483 1.374 . S
C2483 H2463 0.950 . S
C2483 C2479 1.385 . S
C2483 C2482 1.374 . S
C2484 C2481 1.499 . S
C2484 C2485 1.373 . S
C2484 C2486 1.389 . S
C2485 H2464 0.950 . S
C2485 C2484 1.373 . S
C2485 C2501 1.377 . S
C2486 C2484 1.389 . S
C2486 C2487 1.524 . S
C2486 C2500 1.377 . S
C2487 C2486 1.524 . S
C2487 C2488 1.397 . S
C2487 C2492 1.363 . S
C2488 H2465 0.950 . S
C2488 C2487 1.397 . S
C2488 C2489 1.334 . S
C2489 H2466 0.950 . S
C2489 C2488 1.334 . S
C2489 C2490 1.287 . S
C2490 C2489 1.287 . S
C2490 C2491 1.524 . S
C2490 H2509 0.913 . S
C2491 H2467 0.950 . S
C2491 C2490 1.524 . S
C2491 C2492 1.415 . S
C2492 H2468 0.950 . S
C2492 C2487 1.363 . S
C2492 C2491 1.415 . S
C2493 H2469 0.951 . S
C2493 C2494 1.366 . S
C2493 C2495 1.388 . S
C2494 C2493 1.366 . S
C2494 C2498 1.385 . S
C2495 H2470 0.951 . S
C2495 C2493 1.388 . S
C2495 C2496 1.366 . S
C2496 C2495 1.366 . S
C2496 C2497 1.414 . S
C2496 C2499 1.499 . S
C2497 H2471 0.950 . S
C2497 C2496 1.414 . S
C2497 C2498 1.374 . S
C2498 H2472 0.950 . S
C2498 C2494 1.385 . S
C2498 C2497 1.374 . S
C2499 C2496 1.499 . S
C2499 C2500 1.373 . S
C2499 C2501 1.389 . S
C2500 H2473 0.950 . S
C2500 C2486 1.377 . S
C2500 C2499 1.373 . S
C2501 C2485 1.377 . S
C2501 C2499 1.389 . S
C2501 C2502 1.524 . S
C2502 C2501 1.524 . S
C2502 C2503 1.397 . S
C2502 C2507 1.363 . S
C2503 H2474 0.950 . S
C2503 C2502 1.397 . S
C2503 C2504 1.334 . S
C2504 H2475 0.950 . S
C2504 C2503 1.334 . S
C2504 C2505 1.287 . S
C2505 C2504 1.287 . S
C2505 C2506 1.524 . S
C2505 H2508 0.999 . S
C2506 H2476 0.950 . S
C2506 C2505 1.524 . S
C2506 C2507 1.415 . S
C2507 H2477 0.950 . S
C2507 C2502 1.363 . S
C2507 C2506 1.415 . S
H2508 C2505 0.999 . S
H2509 C2490 0.913 . S
H2510 C2528 0.951 . S
H2511 C2530 0.951 . S
H2512 C2532 0.950 . S
H2513 C2533 0.950 . S
H2514 C2535 0.950 . S
H2515 C2538 0.950 . S
H2516 C2539 0.950 . S
H2517 C2541 0.950 . S
H2518 C2542 0.950 . S
H2519 C2543 0.951 . S
H2520 C2545 0.951 . S
H2521 C2547 0.950 . S
H2522 C2548 0.950 . S
H2523 C2550 0.950 . S
H2524 C2553 0.950 . S
H2525 C2554 0.950 . S
H2526 C2556 0.950 . S
H2527 C2557 0.950 . S
C2528 H2510 0.951 . S
C2528 C2529 1.366 . S
C2528 C2530 1.388 . S
C2529 C2528 1.366 . S
C2529 C2533 1.385 . S
C2530 H2511 0.951 . S
C2530 C2528 1.388 . S
C2530 C2531 1.366 . S
C2531 C2530 1.366 . S
C2531 C2532 1.414 . S
C2531 C2534 1.499 . S
C2532 H2512 0.950 . S
C2532 C2531 1.414 . S
C2532 C2533 1.374 . S
C2533 H2513 0.950 . S
C2533 C2529 1.385 . S
C2533 C2532 1.374 . S
C2534 C2531 1.499 . S
C2534 C2535 1.373 . S
C2534 C2536 1.389 . S
C2535 H2514 0.950 . S
C2535 C2534 1.373 . S
C2535 C2551 1.377 . S
C2536 C2534 1.389 . S
C2536 C2537 1.524 . S
C2536 C2550 1.377 . S
C2537 C2536 1.524 . S
C2537 C2538 1.397 . S
C2537 C2542 1.363 . S
C2538 H2515 0.950 . S
C2538 C2537 1.397 . S
C2538 C2539 1.334 . S
C2539 H2516 0.950 . S
C2539 C2538 1.334 . S
C2539 C2540 1.287 . S
C2540 C2539 1.287 . S
C2540 C2541 1.524 . S
C2540 H2559 0.913 . S
C2541 H2517 0.950 . S
C2541 C2540 1.524 . S
C2541 C2542 1.415 . S
C2542 H2518 0.950 . S
C2542 C2537 1.363 . S
C2542 C2541 1.415 . S
C2543 H2519 0.951 . S
C2543 C2544 1.366 . S
C2543 C2545 1.388 . S
C2544 C2543 1.366 . S
C2544 C2548 1.385 . S
C2545 H2520 0.951 . S
C2545 C2543 1.388 . S
C2545 C2546 1.366 . S
C2546 C2545 1.366 . S
C2546 C2547 1.414 . S
C2546 C2549 1.499 . S
C2547 H2521 0.950 . S
C2547 C2546 1.414 . S
C2547 C2548 1.374 . S
C2548 H2522 0.950 . S
C2548 C2544 1.385 . S
C2548 C2547 1.374 . S
C2549 C2546 1.499 . S
C2549 C2550 1.373 . S
C2549 C2551 1.389 . S
C2550 H2523 0.950 . S
C2550 C2536 1.377 . S
C2550 C2549 1.373 . S
C2551 C2535 1.377 . S
C2551 C2549 1.389 . S
C2551 C2552 1.524 . S
C2552 C2551 1.524 . S
C2552 C2553 1.397 . S
C2552 C2557 1.363 . S
C2553 H2524 0.950 . S
C2553 C2552 1.397 . S
C2553 C2554 1.334 . S
C2554 H2525 0.950 . S
C2554 C2553 1.334 . S
C2554 C2555 1.287 . S
C2555 C2554 1.287 . S
C2555 C2556 1.524 . S
C2555 H2558 0.999 . S
C2556 H2526 0.950 . S
C2556 C2555 1.524 . S
C2556 C2557 1.415 . S
C2557 H2527 0.950 . S
C2557 C2552 1.363 . S
C2557 C2556 1.415 . S
H2558 C2555 0.999 . S
H2559 C2540 0.913 . S
H2560 C2578 0.951 . S
H2561 C2580 0.951 . S
H2562 C2582 0.950 . S
H2563 C2583 0.950 . S
H2564 C2585 0.950 . S
H2565 C2588 0.950 . S
H2566 C2589 0.950 . S
H2567 C2591 0.950 . S
H2568 C2592 0.950 . S
H2569 C2593 0.951 . S
H2570 C2595 0.951 . S
H2571 C2597 0.950 . S
H2572 C2598 0.950 . S
H2573 C2600 0.950 . S
H2574 C2603 0.950 . S
H2575 C2604 0.950 . S
H2576 C2606 0.950 . S
H2577 C2607 0.950 . S
C2578 H2560 0.951 . S
C2578 C2579 1.366 . S
C2578 C2580 1.388 . S
C2579 C2578 1.366 . S
C2579 C2583 1.385 . S
C2580 H2561 0.951 . S
C2580 C2578 1.388 . S
C2580 C2581 1.366 . S
C2581 C2580 1.366 . S
C2581 C2582 1.414 . S
C2581 C2584 1.499 . S
C2582 H2562 0.950 . S
C2582 C2581 1.414 . S
C2582 C2583 1.374 . S
C2583 H2563 0.950 . S
C2583 C2579 1.385 . S
C2583 C2582 1.374 . S
C2584 C2581 1.499 . S
C2584 C2585 1.373 . S
C2584 C2586 1.389 . S
C2585 H2564 0.950 . S
C2585 C2584 1.373 . S
C2585 C2601 1.377 . S
C2586 C2584 1.389 . S
C2586 C2587 1.524 . S
C2586 C2600 1.377 . S
C2587 C2586 1.524 . S
C2587 C2588 1.397 . S
C2587 C2592 1.363 . S
C2588 H2565 0.950 . S
C2588 C2587 1.397 . S
C2588 C2589 1.334 . S
C2589 H2566 0.950 . S
C2589 C2588 1.334 . S
C2589 C2590 1.287 . S
C2590 C2589 1.287 . S
C2590 C2591 1.524 . S
C2590 H2609 0.913 . S
C2591 H2567 0.950 . S
C2591 C2590 1.524 . S
C2591 C2592 1.415 . S
C2592 H2568 0.950 . S
C2592 C2587 1.363 . S
C2592 C2591 1.415 . S
C2593 H2569 0.951 . S
C2593 C2594 1.366 . S
C2593 C2595 1.388 . S
C2594 C2593 1.366 . S
C2594 C2598 1.385 . S
C2595 H2570 0.951 . S
C2595 C2593 1.388 . S
C2595 C2596 1.366 . S
C2596 C2595 1.366 . S
C2596 C2597 1.414 . S
C2596 C2599 1.499 . S
C2597 H2571 0.950 . S
C2597 C2596 1.414 . S
C2597 C2598 1.374 . S
C2598 H2572 0.950 . S
C2598 C2594 1.385 . S
C2598 C2597 1.374 . S
C2599 C2596 1.499 . S
C2599 C2600 1.373 . S
C2599 C2601 1.389 . S
C2600 H2573 0.950 . S
C2600 C2586 1.377 . S
C2600 C2599 1.373 . S
C2601 C2585 1.377 . S
C2601 C2599 1.389 . S
C2601 C2602 1.524 . S
C2602 C2601 1.524 . S
C2602 C2603 1.397 . S
C2602 C2607 1.363 . S
C2603 H2574 0.950 . S
C2603 C2602 1.397 . S
C2603 C2604 1.334 . S
C2604 H2575 0.950 . S
C2604 C2603 1.334 . S
C2604 C2605 1.287 . S
C2605 C2604 1.287 . S
C2605 C2606 1.524 . S
C2605 H2608 0.999 . S
C2606 H2576 0.950 . S
C2606 C2605 1.524 . S
C2606 C2607 1.415 . S
C2607 H2577 0.950 . S
C2607 C2602 1.363 . S
C2607 C2606 1.415 . S
H2608 C2605 0.999 . S
H2609 C2590 0.913 . S
H2610 C2628 0.951 . S
H2611 C2630 0.951 . S
H2612 C2632 0.950 . S
H2613 C2633 0.950 . S
H2614 C2635 0.950 . S
H2615 C2638 0.950 . S
H2616 C2639 0.950 . S
H2617 C2641 0.950 . S
H2618 C2642 0.950 . S
H2619 C2643 0.951 . S
H2620 C2645 0.951 . S
H2621 C2647 0.950 . S
H2622 C2648 0.950 . S
H2623 C2650 0.950 . S
H2624 C2653 0.950 . S
H2625 C2654 0.950 . S
H2626 C2656 0.950 . S
H2627 C2657 0.950 . S
C2628 H2610 0.951 . S
C2628 C2629 1.366 . S
C2628 C2630 1.388 . S
C2629 C2628 1.366 . S
C2629 C2633 1.385 . S
C2630 H2611 0.951 . S
C2630 C2628 1.388 . S
C2630 C2631 1.366 . S
C2631 C2630 1.366 . S
C2631 C2632 1.414 . S
C2631 C2634 1.499 . S
C2632 H2612 0.950 . S
C2632 C2631 1.414 . S
C2632 C2633 1.374 . S
C2633 H2613 0.950 . S
C2633 C2629 1.385 . S
C2633 C2632 1.374 . S
C2634 C2631 1.499 . S
C2634 C2635 1.373 . S
C2634 C2636 1.389 . S
C2635 H2614 0.950 . S
C2635 C2634 1.373 . S
C2635 C2651 1.377 . S
C2636 C2634 1.389 . S
C2636 C2637 1.524 . S
C2636 C2650 1.377 . S
C2637 C2636 1.524 . S
C2637 C2638 1.397 . S
C2637 C2642 1.363 . S
C2638 H2615 0.950 . S
C2638 C2637 1.397 . S
C2638 C2639 1.334 . S
C2639 H2616 0.950 . S
C2639 C2638 1.334 . S
C2639 C2640 1.287 . S
C2640 C2639 1.287 . S
C2640 C2641 1.524 . S
C2640 H2659 0.913 . S
C2641 H2617 0.950 . S
C2641 C2640 1.524 . S
C2641 C2642 1.415 . S
C2642 H2618 0.950 . S
C2642 C2637 1.363 . S
C2642 C2641 1.415 . S
C2643 H2619 0.951 . S
C2643 C2644 1.366 . S
C2643 C2645 1.388 . S
C2644 C2643 1.366 . S
C2644 C2648 1.385 . S
C2645 H2620 0.951 . S
C2645 C2643 1.388 . S
C2645 C2646 1.366 . S
C2646 C2645 1.366 . S
C2646 C2647 1.414 . S
C2646 C2649 1.499 . S
C2647 H2621 0.950 . S
C2647 C2646 1.414 . S
C2647 C2648 1.374 . S
C2648 H2622 0.950 . S
C2648 C2644 1.385 . S
C2648 C2647 1.374 . S
C2649 C2646 1.499 . S
C2649 C2650 1.373 . S
C2649 C2651 1.389 . S
C2650 H2623 0.950 . S
C2650 C2636 1.377 . S
C2650 C2649 1.373 . S
C2651 C2635 1.377 . S
C2651 C2649 1.389 . S
C2651 C2652 1.524 . S
C2652 C2651 1.524 . S
C2652 C2653 1.397 . S
C2652 C2657 1.363 . S
C2653 H2624 0.950 . S
C2653 C2652 1.397 . S
C2653 C2654 1.334 . S
C2654 H2625 0.950 . S
C2654 C2653 1.334 . S
C2654 C2655 1.287 . S
C2655 C2654 1.287 . S
C2655 C2656 1.524 . S
C2655 H2658 0.999 . S
C2656 H2626 0.950 . S
C2656 C2655 1.524 . S
C2656 C2657 1.415 . S
C2657 H2627 0.950 . S
C2657 C2652 1.363 . S
C2657 C2656 1.415 . S
H2658 C2655 0.999 . S
H2659 C2640 0.913 . S
H2660 C2678 0.951 . S
H2661 C2680 0.951 . S
H2662 C2682 0.950 . S
H2663 C2683 0.950 . S
H2664 C2685 0.950 . S
H2665 C2688 0.950 . S
H2666 C2689 0.950 . S
H2667 C2691 0.950 . S
H2668 C2692 0.950 . S
H2669 C2693 0.951 . S
H2670 C2695 0.951 . S
H2671 C2697 0.950 . S
H2672 C2698 0.950 . S
H2673 C2700 0.950 . S
H2674 C2703 0.950 . S
H2675 C2704 0.950 . S
H2676 C2706 0.950 . S
H2677 C2707 0.950 . S
C2678 H2660 0.951 . S
C2678 C2679 1.366 . S
C2678 C2680 1.388 . S
C2679 C2678 1.366 . S
C2679 C2683 1.385 . S
C2680 H2661 0.951 . S
C2680 C2678 1.388 . S
C2680 C2681 1.366 . S
C2681 C2680 1.366 . S
C2681 C2682 1.414 . S
C2681 C2684 1.499 . S
C2682 H2662 0.950 . S
C2682 C2681 1.414 . S
C2682 C2683 1.374 . S
C2683 H2663 0.950 . S
C2683 C2679 1.385 . S
C2683 C2682 1.374 . S
C2684 C2681 1.499 . S
C2684 C2685 1.373 . S
C2684 C2686 1.389 . S
C2685 H2664 0.950 . S
C2685 C2684 1.373 . S
C2685 C2701 1.377 . S
C2686 C2684 1.389 . S
C2686 C2687 1.524 . S
C2686 C2700 1.377 . S
C2687 C2686 1.524 . S
C2687 C2688 1.397 . S
C2687 C2692 1.363 . S
C2688 H2665 0.950 . S
C2688 C2687 1.397 . S
C2688 C2689 1.334 . S
C2689 H2666 0.950 . S
C2689 C2688 1.334 . S
C2689 C2690 1.287 . S
C2690 C2689 1.287 . S
C2690 C2691 1.524 . S
C2690 H2709 0.913 . S
C2691 H2667 0.950 . S
C2691 C2690 1.524 . S
C2691 C2692 1.415 . S
C2692 H2668 0.950 . S
C2692 C2687 1.363 . S
C2692 C2691 1.415 . S
C2693 H2669 0.951 . S
C2693 C2694 1.366 . S
C2693 C2695 1.388 . S
C2694 C2693 1.366 . S
C2694 C2698 1.385 . S
C2695 H2670 0.951 . S
C2695 C2693 1.388 . S
C2695 C2696 1.366 . S
C2696 C2695 1.366 . S
C2696 C2697 1.414 . S
C2696 C2699 1.499 . S
C2697 H2671 0.950 . S
C2697 C2696 1.414 . S
C2697 C2698 1.374 . S
C2698 H2672 0.950 . S
C2698 C2694 1.385 . S
C2698 C2697 1.374 . S
C2699 C2696 1.499 . S
C2699 C2700 1.373 . S
C2699 C2701 1.389 . S
C2700 H2673 0.950 . S
C2700 C2686 1.377 . S
C2700 C2699 1.373 . S
C2701 C2685 1.377 . S
C2701 C2699 1.389 . S
C2701 C2702 1.524 . S
C2702 C2701 1.524 . S
C2702 C2703 1.397 . S
C2702 C2707 1.363 . S
C2703 H2674 0.950 . S
C2703 C2702 1.397 . S
C2703 C2704 1.334 . S
C2704 H2675 0.950 . S
C2704 C2703 1.334 . S
C2704 C2705 1.287 . S
C2705 C2704 1.287 . S
C2705 C2706 1.524 . S
C2705 H2708 0.999 . S
C2706 H2676 0.950 . S
C2706 C2705 1.524 . S
C2706 C2707 1.415 . S
C2707 H2677 0.950 . S
C2707 C2702 1.363 . S
C2707 C2706 1.415 . S
H2708 C2705 0.999 . S
H2709 C2690 0.913 . S
H2710 C2728 0.951 . S
H2711 C2730 0.951 . S
H2712 C2732 0.950 . S
H2713 C2733 0.950 . S
H2714 C2735 0.950 . S
H2715 C2738 0.950 . S
H2716 C2739 0.950 . S
H2717 C2741 0.950 . S
H2718 C2742 0.950 . S
H2719 C2743 0.951 . S
H2720 C2745 0.951 . S
H2721 C2747 0.950 . S
H2722 C2748 0.950 . S
H2723 C2750 0.950 . S
H2724 C2753 0.950 . S
H2725 C2754 0.950 . S
H2726 C2756 0.950 . S
H2727 C2757 0.950 . S
C2728 H2710 0.951 . S
C2728 C2729 1.366 . S
C2728 C2730 1.388 . S
C2729 C2728 1.366 . S
C2729 C2733 1.385 . S
C2730 H2711 0.951 . S
C2730 C2728 1.388 . S
C2730 C2731 1.366 . S
C2731 C2730 1.366 . S
C2731 C2732 1.414 . S
C2731 C2734 1.499 . S
C2732 H2712 0.950 . S
C2732 C2731 1.414 . S
C2732 C2733 1.374 . S
C2733 H2713 0.950 . S
C2733 C2729 1.385 . S
C2733 C2732 1.374 . S
C2734 C2731 1.499 . S
C2734 C2735 1.373 . S
C2734 C2736 1.389 . S
C2735 H2714 0.950 . S
C2735 C2734 1.373 . S
C2735 C2751 1.377 . S
C2736 C2734 1.389 . S
C2736 C2737 1.524 . S
C2736 C2750 1.377 . S
C2737 C2736 1.524 . S
C2737 C2738 1.397 . S
C2737 C2742 1.363 . S
C2738 H2715 0.950 . S
C2738 C2737 1.397 . S
C2738 C2739 1.334 . S
C2739 H2716 0.950 . S
C2739 C2738 1.334 . S
C2739 C2740 1.287 . S
C2740 C2739 1.287 . S
C2740 C2741 1.524 . S
C2740 H2759 0.913 . S
C2741 H2717 0.950 . S
C2741 C2740 1.524 . S
C2741 C2742 1.415 . S
C2742 H2718 0.950 . S
C2742 C2737 1.363 . S
C2742 C2741 1.415 . S
C2743 H2719 0.951 . S
C2743 C2744 1.366 . S
C2743 C2745 1.388 . S
C2744 C2743 1.366 . S
C2744 C2748 1.385 . S
C2745 H2720 0.951 . S
C2745 C2743 1.388 . S
C2745 C2746 1.366 . S
C2746 C2745 1.366 . S
C2746 C2747 1.414 . S
C2746 C2749 1.499 . S
C2747 H2721 0.950 . S
C2747 C2746 1.414 . S
C2747 C2748 1.374 . S
C2748 H2722 0.950 . S
C2748 C2744 1.385 . S
C2748 C2747 1.374 . S
C2749 C2746 1.499 . S
C2749 C2750 1.373 . S
C2749 C2751 1.389 . S
C2750 H2723 0.950 . S
C2750 C2736 1.377 . S
C2750 C2749 1.373 . S
C2751 C2735 1.377 . S
C2751 C2749 1.389 . S
C2751 C2752 1.524 . S
C2752 C2751 1.524 . S
C2752 C2753 1.397 . S
C2752 C2757 1.363 . S
C2753 H2724 0.950 . S
C2753 C2752 1.397 . S
C2753 C2754 1.334 . S
C2754 H2725 0.950 . S
C2754 C2753 1.334 . S
C2754 C2755 1.287 . S
C2755 C2754 1.287 . S
C2755 C2756 1.524 . S
C2755 H2758 0.999 . S
C2756 H2726 0.950 . S
C2756 C2755 1.524 . S
C2756 C2757 1.415 . S
C2757 H2727 0.950 . S
C2757 C2752 1.363 . S
C2757 C2756 1.415 . S
H2758 C2755 0.999 . S
H2759 C2740 0.913 . S
C979 C162 1.482 . S
C994 C2 1.482 . S
C1029 C221 1.459 . S
C1044 C42 1.465 . S
C1079 C101 1.487 . S
C1094 C261 1.488 . S
C1129 C282 1.467 . S
C1144 C141 1.461 . S
C1179 C341 1.489 . S
C1194 C442 1.478 . S
C1229 C402 1.479 . S
C1244 C381 1.471 . S
C1279 C482 1.503 . S
C1294 C642 1.503 . S
C1329 C682 1.480 . S
C1344 C541 1.473 . S
C1379 C741 1.449 . S
C1394 C581 1.448 . S
C1429 C602 1.471 . S
C1444 C781 1.476 . S
C1479 C941 1.483 . S
C1494 C802 1.493 . S
C1529 C901 1.481 . S
C1544 C842 1.491 . S
C1579 C775 1.505 . S
C1594 C21 1.489 . S
C1629 C655 1.525 . S
C1644 C61 1.514 . S
C1679 C82 1.537 . S
C1694 C701 1.536 . S
C1729 C135 1.498 . S
C1744 C722 1.487 . S
C1779 C181 1.494 . S
C1794 C522 1.494 . S
C1829 C562 1.484 . S
C1844 C215 1.497 . S
C1879 C242 1.544 . S
C1894 C621 1.537 . S
C1929 C301 1.519 . S
C1944 C495 1.530 . S
C1979 C122 1.476 . S
C1994 C935 1.493 . S
C2029 C15 1.545 . S
C2044 C861 1.545 . S
C2079 C55 1.550 . S
C2094 C815 1.549 . S
C2129 C95 1.518 . S
C2144 C882 1.500 . S
C2179 C202 1.474 . S
C2194 C895 1.490 . S
C2229 C255 1.526 . S
C2244 C922 1.506 . S
C2279 C855 1.550 . S
C2294 C295 1.551 . S
C2329 C175 1.549 . S
C2344 C821 1.548 . S
C2379 C335 1.524 . S
C2394 C661 1.521 . S
C2429 C501 1.523 . S
C2444 C362 1.503 . S
C2479 C322 1.505 . S
C2494 C535 1.509 . S
C2529 C415 1.523 . S
C2544 C575 1.522 . S
C2579 C615 1.546 . S
C2594 C461 1.531 . S
C2629 C735 1.523 . S
C2644 C455 1.522 . S
C2679 C762 1.499 . S
C2694 C375 1.505 . S
C2729 C695 1.547 . S
C2744 C421 1.535 . S
