# Generated by pormake.
# Topology vbj, (5)-cn, num edge types: 1
# Building blocks:
#     Node 0, Type 0, BuildingBlock: XOMCOT_clean_sbu_0, # of connection points: 5
#     Node 1, Type 0, BuildingBlock: XOMCOT_clean_sbu_0, # of connection points: 5
#     Node 2, Type 0, BuildingBlock: XOMCOT_clean_sbu_0, # of connection points: 5
#     Node 3, Type 0, BuildingBlock: XOMCOT_clean_sbu_0, # of connection points: 5
#     Node 4, Type 0, BuildingBlock: XOMCOT_clean_sbu_0, # of connection points: 5
#     Node 5, Type 0, BuildingBlock: XOMCOT_clean_sbu_0, # of connection points: 5
#     Node 6, Type 0, BuildingBlock: XOMCOT_clean_sbu_0, # of connection points: 5
#     Node 7, Type 0, BuildingBlock: XOMCOT_clean_sbu_0, # of connection points: 5
#     Node 8, Type 0, BuildingBlock: XOMCOT_clean_sbu_0, # of connection points: 5
#     Node 9, Type 0, BuildingBlock: XOMCOT_clean_sbu_0, # of connection points: 5
#     Node 10, Type 0, BuildingBlock: XOMCOT_clean_sbu_0, # of connection points: 5
#     Node 11, Type 0, BuildingBlock: XOMCOT_clean_sbu_0, # of connection points: 5
#     Node 12, Type 0, BuildingBlock: XOMCOT_clean_sbu_0, # of connection points: 5
#     Node 13, Type 0, BuildingBlock: XOMCOT_clean_sbu_0, # of connection points: 5
#     Node 14, Type 0, BuildingBlock: XOMCOT_clean_sbu_0, # of connection points: 5
#     Node 15, Type 0, BuildingBlock: XOMCOT_clean_sbu_0, # of connection points: 5
#     Edge 16, Type (0, 0), BuildingBlock: TEMPAE_clean_linker_10, # of connection points: 2
#     Edge 17, Type (0, 0), BuildingBlock: TEMPAE_clean_linker_10, # of connection points: 2
#     Edge 18, Type (0, 0), BuildingBlock: TEMPAE_clean_linker_10, # of connection points: 2
#     Edge 19, Type (0, 0), BuildingBlock: TEMPAE_clean_linker_10, # of connection points: 2
#     Edge 20, Type (0, 0), BuildingBlock: TEMPAE_clean_linker_10, # of connection points: 2
#     Edge 21, Type (0, 0), BuildingBlock: TEMPAE_clean_linker_10, # of connection points: 2
#     Edge 22, Type (0, 0), BuildingBlock: TEMPAE_clean_linker_10, # of connection points: 2
#     Edge 23, Type (0, 0), BuildingBlock: TEMPAE_clean_linker_10, # of connection points: 2
#     Edge 24, Type (0, 0), BuildingBlock: TEMPAE_clean_linker_10, # of connection points: 2
#     Edge 25, Type (0, 0), BuildingBlock: TEMPAE_clean_linker_10, # of connection points: 2
#     Edge 26, Type (0, 0), BuildingBlock: TEMPAE_clean_linker_10, # of connection points: 2
#     Edge 27, Type (0, 0), BuildingBlock: TEMPAE_clean_linker_10, # of connection points: 2
#     Edge 28, Type (0, 0), BuildingBlock: TEMPAE_clean_linker_10, # of connection points: 2
#     Edge 29, Type (0, 0), BuildingBlock: TEMPAE_clean_linker_10, # of connection points: 2
#     Edge 30, Type (0, 0), BuildingBlock: TEMPAE_clean_linker_10, # of connection points: 2
#     Edge 31, Type (0, 0), BuildingBlock: TEMPAE_clean_linker_10, # of connection points: 2
#     Edge 32, Type (0, 0), BuildingBlock: TEMPAE_clean_linker_10, # of connection points: 2
#     Edge 33, Type (0, 0), BuildingBlock: TEMPAE_clean_linker_10, # of connection points: 2
#     Edge 34, Type (0, 0), BuildingBlock: TEMPAE_clean_linker_10, # of connection points: 2
#     Edge 35, Type (0, 0), BuildingBlock: TEMPAE_clean_linker_10, # of connection points: 2
#     Edge 36, Type (0, 0), BuildingBlock: TEMPAE_clean_linker_10, # of connection points: 2
#     Edge 37, Type (0, 0), BuildingBlock: TEMPAE_clean_linker_10, # of connection points: 2
#     Edge 38, Type (0, 0), BuildingBlock: TEMPAE_clean_linker_10, # of connection points: 2
#     Edge 39, Type (0, 0), BuildingBlock: TEMPAE_clean_linker_10, # of connection points: 2
#     Edge 40, Type (0, 0), BuildingBlock: TEMPAE_clean_linker_10, # of connection points: 2
#     Edge 41, Type (0, 0), BuildingBlock: TEMPAE_clean_linker_10, # of connection points: 2
#     Edge 42, Type (0, 0), BuildingBlock: TEMPAE_clean_linker_10, # of connection points: 2
#     Edge 43, Type (0, 0), BuildingBlock: TEMPAE_clean_linker_10, # of connection points: 2
#     Edge 44, Type (0, 0), BuildingBlock: TEMPAE_clean_linker_10, # of connection points: 2
#     Edge 45, Type (0, 0), BuildingBlock: TEMPAE_clean_linker_10, # of connection points: 2
#     Edge 46, Type (0, 0), BuildingBlock: TEMPAE_clean_linker_10, # of connection points: 2
#     Edge 47, Type (0, 0), BuildingBlock: TEMPAE_clean_linker_10, # of connection points: 2
#     Edge 48, Type (0, 0), BuildingBlock: TEMPAE_clean_linker_10, # of connection points: 2
#     Edge 49, Type (0, 0), BuildingBlock: TEMPAE_clean_linker_10, # of connection points: 2
#     Edge 50, Type (0, 0), BuildingBlock: TEMPAE_clean_linker_10, # of connection points: 2
#     Edge 51, Type (0, 0), BuildingBlock: TEMPAE_clean_linker_10, # of connection points: 2
#     Edge 52, Type (0, 0), BuildingBlock: TEMPAE_clean_linker_10, # of connection points: 2
#     Edge 53, Type (0, 0), BuildingBlock: TEMPAE_clean_linker_10, # of connection points: 2
#     Edge 54, Type (0, 0), BuildingBlock: TEMPAE_clean_linker_10, # of connection points: 2
#     Edge 55, Type (0, 0), BuildingBlock: TEMPAE_clean_linker_10, # of connection points: 2
# Relax obj value: 0.090
# Max RMSD: 0.164
# Mean RMSD: 0.158
data_MOF--net-vbj--node1-XOMCOT_clean_sbu_0--edge1-TEMPAE_clean_linker_10
_symmetry_space_group_name_H-M    P1
_symmetry_Int_Tables_number       1
_symmetry_cell_setting            triclinic
loop_
_symmetry_equiv_pos_as_xyz
'x, y, z'
_cell_length_a     25.305832
_cell_length_b     66.247193
_cell_length_c     51.362954
_cell_angle_alpha  89.188874
_cell_angle_beta   90.505454
_cell_angle_gamma 90.104044
loop_
_atom_site_label
_atom_site_type_symbol
_atom_site_fract_x
_atom_site_fract_y
_atom_site_fract_z
_atom_type_partial_charge
Co0 Co 0.09277 0.13128 0.0711 0.0
C1 C 0.13575 0.08926 0.06724 0.0
C2 C 0.08815 0.09762 0.03425 0.0
C3 C 0.10919 0.07884 0.03006 0.0
N4 N 0.10337 0.10403 0.05795 0.0
N5 N 0.13958 0.07349 0.05079 0.0
H6 H 0.15918 0.09059 0.08467 0.0
H7 H 0.06502 0.10637 0.02037 0.0
C8 C 0.98481 0.11859 0.05271 0.0
O9 O 0.99167 0.10114 0.06474 0.0
N10 N 0.08398 0.15843 0.08368 0.0
C11 C 0.1055 0.16555 0.10577 0.0
C12 C 0.09324 0.18565 0.10768 0.0
C13 C 0.05914 0.17433 0.07226 0.0
N14 N 0.06395 0.19124 0.08667 0.0
C15 C 0.10411 0.11308 0.1216 0.0
C16 C 0.00448 0.12207 0.13954 0.0
C17 C 0.04213 0.11412 0.15705 0.0
C18 C 0.09207 0.10925 0.14761 0.0
C19 C 0.01829 0.12578 0.11351 0.0
N20 N 0.06759 0.12112 0.10468 0.0
H21 H 0.14442 0.11102 0.11581 0.0
H22 H 0.99037 0.13368 0.1011 0.0
H23 H 0.1293 0.15679 0.11936 0.0
H24 H 0.03809 0.1735 0.05388 0.0
O25 O 0.16729 0.13294 0.07921 0.0
O26 O 0.13044 0.14173 0.04141 0.0
O27 O 0.01961 0.13248 0.05488 0.0
C28 C 0.17305 0.13987 0.05561 0.0
H29 H 0.10344 0.0702 0.01257 0.0
H30 H 0.10616 0.19548 0.12313 0.0
H31 H 0.96586 0.12659 0.14624 0.0
H32 H 0.12255 0.10334 0.16054 0.0
Co33 Co 0.4269 0.89404 0.07133 0.0
C34 C 0.38465 0.93631 0.07171 0.0
C35 C 0.43065 0.93043 0.03788 0.0
C36 C 0.40953 0.94947 0.03534 0.0
N37 N 0.41678 0.92232 0.06111 0.0
N38 N 0.38036 0.95311 0.05654 0.0
H39 H 0.36234 0.93397 0.0893 0.0
H40 H 0.4522 0.92262 0.023 0.0
C41 C 0.53308 0.90764 0.05312 0.0
O42 O 0.52741 0.92384 0.0673 0.0
N43 N 0.43479 0.86588 0.08095 0.0
C44 C 0.41352 0.8572 0.10229 0.0
C45 C 0.42187 0.83675 0.10148 0.0
C46 C 0.45609 0.8506 0.06739 0.0
N47 N 0.44841 0.83258 0.07956 0.0
C48 C 0.42479 0.90811 0.12389 0.0
C49 C 0.52677 0.89702 0.13714 0.0
C50 C 0.49349 0.90385 0.15691 0.0
C51 C 0.44181 0.90956 0.14975 0.0
C52 C 0.50747 0.89505 0.11174 0.0
N53 N 0.45739 0.90102 0.10509 0.0
H54 H 0.38395 0.9113 0.11951 0.0
H55 H 0.53235 0.88768 0.09786 0.0
H56 H 0.39229 0.86516 0.11715 0.0
H57 H 0.4752 0.85252 0.04874 0.0
O58 O 0.35318 0.89252 0.08075 0.0
O59 O 0.38527 0.88652 0.04156 0.0
O60 O 0.49808 0.8937 0.05371 0.0
C61 C 0.34437 0.88772 0.05663 0.0
H62 H 0.41235 0.95933 0.01842 0.0
H63 H 0.40945 0.82574 0.11598 0.0
H64 H 0.5671 0.89252 0.14119 0.0
H65 H 0.41335 0.91412 0.1641 0.0
Co66 Co 0.58012 0.89739 0.44273 0.0
C67 C 0.55293 0.85274 0.44022 0.0
C68 C 0.60613 0.86049 0.47124 0.0
C69 C 0.59751 0.84005 0.47234 0.0
N70 N 0.57905 0.86854 0.45089 0.0
N71 N 0.56411 0.83514 0.45287 0.0
H72 H 0.52663 0.85381 0.42364 0.0
H73 H 0.63072 0.86902 0.48447 0.0
C74 C 0.69311 0.88431 0.43867 0.0
O75 O 0.67876 0.86919 0.4239 0.0
N76 N 0.5827 0.92618 0.43566 0.0
C77 C 0.54775 0.93728 0.42169 0.0
C78 C 0.56605 0.9569 0.42009 0.0
C79 C 0.62167 0.93914 0.44235 0.0
N80 N 0.61269 0.95802 0.43298 0.0
C81 C 0.53554 0.88711 0.3934 0.0
C82 C 0.6197 0.89926 0.36312 0.0
C83 C 0.57275 0.89322 0.35058 0.0
C84 C 0.53037 0.88711 0.36635 0.0
C85 C 0.62255 0.89967 0.39033 0.0
N86 N 0.58139 0.89301 0.40525 0.0
H87 H 0.50129 0.88331 0.40482 0.0
H88 H 0.65717 0.90625 0.39918 0.0
H89 H 0.51209 0.93142 0.41281 0.0
H90 H 0.65599 0.93485 0.45383 0.0
O91 O 0.50458 0.89869 0.44738 0.0
O92 O 0.56392 0.90267 0.47882 0.0
O93 O 0.65918 0.8971 0.44634 0.0
C94 C 0.51439 0.90197 0.47184 0.0
H95 H 0.61387 0.82961 0.48666 0.0
H96 H 0.54721 0.96923 0.40955 0.0
H97 H 0.65381 0.90418 0.35217 0.0
H98 H 0.49231 0.8832 0.35808 0.0
Co99 Co 0.90014 0.13696 0.43192 0.0
C100 C 0.85389 0.09582 0.43492 0.0
C101 C 0.90558 0.10171 0.4673 0.0
C102 C 0.8826 0.08304 0.47101 0.0
N103 N 0.88766 0.10971 0.44466 0.0
N104 N 0.84991 0.07935 0.45071 0.0
H105 H 0.83074 0.09815 0.41732 0.0
H106 H 0.932 0.10921 0.48072 0.0
C107 C 0.01473 0.14631 0.44608 0.0
O108 O 0.02165 0.15664 0.42434 0.0
N109 N 0.91135 0.16447 0.41919 0.0
C110 C 0.90065 0.17159 0.39498 0.0
C111 C 0.91222 0.19182 0.39379 0.0
C112 C 0.92762 0.18082 0.43268 0.0
N113 N 0.92951 0.19766 0.41739 0.0
C114 C 0.88922 0.12422 0.37936 0.0
C115 C 0.9938 0.11582 0.36949 0.0
C116 C 0.9576 0.11664 0.34867 0.0
C117 C 0.90443 0.11997 0.35409 0.0
C118 C 0.97673 0.12028 0.39475 0.0
N119 N 0.9256 0.12597 0.39904 0.0
H120 H 0.84807 0.12735 0.38245 0.0
H121 H 0.00502 0.11934 0.41045 0.0
H122 H 0.88432 0.163 0.37918 0.0
H123 H 0.93887 0.1803 0.45306 0.0
O124 O 0.82602 0.13949 0.42304 0.0
O125 O 0.8613 0.14724 0.46115 0.0
O126 O 0.97165 0.13667 0.45006 0.0
C127 C 0.81927 0.14586 0.44653 0.0
H128 H 0.8889 0.07308 0.48763 0.0
H129 H 0.90723 0.20159 0.37687 0.0
H130 H 0.03509 0.11256 0.36616 0.0
H131 H 0.87488 0.11998 0.33869 0.0
Co132 Co 0.89982 0.89643 0.88131 0.0
C133 C 0.93065 0.8535 0.88052 0.0
C134 C 0.84681 0.85693 0.88493 0.0
C135 C 0.85853 0.83662 0.88507 0.0
N136 N 0.89212 0.86744 0.88231 0.0
N137 N 0.91116 0.83456 0.8822 0.0
H138 H 0.97214 0.85716 0.87849 0.0
H139 H 0.80796 0.86352 0.8866 0.0
C140 C 0.83181 0.90913 0.92479 0.0
O141 O 0.87187 0.92045 0.93205 0.0
N142 N 0.9057 0.92583 0.87913 0.0
C143 C 0.94647 0.93723 0.87046 0.0
C144 C 0.9304 0.95704 0.86807 0.0
C145 C 0.86475 0.93886 0.88027 0.0
N146 N 0.87898 0.95801 0.87443 0.0
C147 C 0.99392 0.90296 0.91145 0.0
C148 C 0.96289 0.88169 0.95545 0.0
C149 C 0.01187 0.89156 0.95547 0.0
C150 C 0.02756 0.902 0.93295 0.0
C151 C 0.93016 0.88316 0.93343 0.0
N152 N 0.94484 0.89452 0.9122 0.0
H153 H 0.00834 0.90995 0.89395 0.0
H154 H 0.89276 0.87526 0.93354 0.0
H155 H 0.98437 0.93163 0.86439 0.0
H156 H 0.82438 0.9343 0.88379 0.0
O157 O 0.95426 0.89376 0.85592 0.0
O158 O 0.86893 0.89724 0.84643 0.0
O159 O 0.83442 0.89897 0.90377 0.0
C160 C 0.91738 0.89507 0.83833 0.0
H161 H 0.83051 0.82432 0.88678 0.0
H162 H 0.9544 0.96961 0.86149 0.0
H163 H 0.94998 0.87301 0.97226 0.0
H164 H 0.06634 0.90888 0.93164 0.0
Co165 Co 0.6103 0.1391 0.88028 0.0
C166 C 0.57508 0.18171 0.88113 0.0
C167 C 0.65943 0.17904 0.87825 0.0
C168 C 0.64646 0.1992 0.87771 0.0
N169 N 0.61474 0.16815 0.88047 0.0
N170 N 0.59345 0.20086 0.87949 0.0
H171 H 0.53373 0.1776 0.88221 0.0
H172 H 0.69867 0.17273 0.8768 0.0
C173 C 0.68292 0.12695 0.92329 0.0
O174 O 0.6443 0.11497 0.93074 0.0
N175 N 0.60801 0.10964 0.8788 0.0
C176 C 0.56771 0.09752 0.87136 0.0
C177 C 0.586 0.07808 0.86904 0.0
C178 C 0.65073 0.09739 0.8793 0.0
N179 N 0.63825 0.07803 0.87419 0.0
C180 C 0.5192 0.13101 0.91139 0.0
C181 C 0.55067 0.15267 0.95448 0.0
C182 C 0.50235 0.14234 0.95494 0.0
C183 C 0.4865 0.13166 0.93291 0.0
C184 C 0.58259 0.15146 0.93246 0.0
N185 N 0.56767 0.13998 0.91165 0.0
H186 H 0.50425 0.12398 0.89418 0.0
H187 H 0.6193 0.15982 0.9321 0.0
H188 H 0.52839 0.10239 0.86604 0.0
H189 H 0.69083 0.10268 0.88194 0.0
O190 O 0.55306 0.14068 0.85559 0.0
O191 O 0.63762 0.1394 0.84476 0.0
O192 O 0.67804 0.13753 0.90223 0.0
C193 C 0.58806 0.14027 0.8374 0.0
H194 H 0.67401 0.21167 0.87622 0.0
H195 H 0.56279 0.0651 0.86335 0.0
H196 H 0.56354 0.16157 0.97089 0.0
H197 H 0.44813 0.12441 0.93194 0.0
Co198 Co 0.3854 0.15428 0.61844 0.0
C199 C 0.41332 0.19882 0.6202 0.0
C200 C 0.33733 0.19164 0.63582 0.0
C201 C 0.34571 0.21205 0.63827 0.0
N202 N 0.37942 0.18326 0.62423 0.0
N203 N 0.39351 0.21656 0.62839 0.0
H204 H 0.45225 0.19751 0.61228 0.0
H205 H 0.3027 0.18338 0.6421 0.0
C206 C 0.2954 0.16739 0.58417 0.0
O207 O 0.32265 0.18387 0.57916 0.0
N208 N 0.38891 0.12546 0.61381 0.0
C209 C 0.42983 0.11432 0.60558 0.0
C210 C 0.41417 0.09436 0.60493 0.0
C211 C 0.34944 0.11225 0.61843 0.0
N212 N 0.36371 0.09313 0.61312 0.0
C213 C 0.47207 0.16537 0.58622 0.0
C214 C 0.43218 0.15102 0.5398 0.0
C215 C 0.48276 0.15959 0.54043 0.0
C216 C 0.50252 0.16686 0.56394 0.0
C217 C 0.40216 0.15037 0.5626 0.0
N218 N 0.42158 0.15813 0.58535 0.0
H219 H 0.49047 0.16927 0.60446 0.0
H220 H 0.36474 0.14255 0.56216 0.0
H221 H 0.46817 0.12028 0.60034 0.0
H222 H 0.31078 0.11662 0.62521 0.0
O223 O 0.44712 0.15295 0.64047 0.0
O224 O 0.36536 0.14974 0.65483 0.0
O225 O 0.31363 0.15416 0.60032 0.0
C226 C 0.416 0.14999 0.65998 0.0
H227 H 0.31852 0.22274 0.64656 0.0
H228 H 0.43823 0.0817 0.59921 0.0
H229 H 0.41675 0.14439 0.52214 0.0
H230 H 0.54261 0.17256 0.56544 0.0
Co231 Co 0.10921 0.90878 0.61932 0.0
C232 C 0.07523 0.86596 0.62031 0.0
C233 C 0.15982 0.86875 0.62027 0.0
C234 C 0.14695 0.84854 0.6204 0.0
N235 N 0.11486 0.87964 0.61991 0.0
N236 N 0.0939 0.84688 0.62056 0.0
H237 H 0.0337 0.86984 0.62019 0.0
H238 H 0.1993 0.87498 0.62066 0.0
C239 C 0.19557 0.92138 0.58372 0.0
O240 O 0.16081 0.93344 0.57245 0.0
N241 N 0.10494 0.93829 0.62001 0.0
C242 C 0.06184 0.95021 0.62182 0.0
C243 C 0.07767 0.97007 0.62321 0.0
C244 C 0.14627 0.95116 0.62248 0.0
N245 N 0.13083 0.97062 0.62347 0.0
C246 C 0.0273 0.91473 0.58095 0.0
C247 C 0.0729 0.89209 0.54234 0.0
C248 C 0.0229 0.90047 0.53809 0.0
C249 C 1.00025 0.91202 0.55757 0.0
C250 C 0.09932 0.89562 0.5659 0.0
N251 N 0.07689 0.90717 0.58477 0.0
H252 H 0.00658 0.92176 0.59648 0.0
H253 H 0.13696 0.88835 0.56934 0.0
H254 H 0.02156 0.94509 0.62353 0.0
H255 H 0.18711 0.94644 0.62349 0.0
O256 O 0.04571 0.90667 0.63934 0.0
O257 O 0.12636 0.90907 0.65633 0.0
O258 O 0.18236 0.91062 0.60356 0.0
C259 C 0.07555 0.90716 0.65997 0.0
H260 H 0.17437 0.83601 0.62095 0.0
H261 H 0.05205 0.98306 0.62474 0.0
H262 H 0.0906 0.88246 0.52796 0.0
H263 H 0.96047 0.91787 0.55532 0.0
Co264 Co 0.60126 0.63096 0.07753 0.0
C265 C 0.63526 0.58836 0.08045 0.0
C266 C 0.57626 0.59307 0.05074 0.0
C267 C 0.59477 0.57361 0.04909 0.0
N268 N 0.60161 0.60232 0.07041 0.0
N269 N 0.63232 0.5707 0.0676 0.0
H270 H 0.664 0.59155 0.09557 0.0
H271 H 0.54873 0.60027 0.03739 0.0
C272 C 0.48635 0.64276 0.06613 0.0
O273 O 0.4838 0.65443 0.08654 0.0
N274 N 0.60301 0.65993 0.08461 0.0
C275 C 0.63549 0.66868 0.10213 0.0
C276 C 0.62832 0.68913 0.10141 0.0
C277 C 0.57823 0.67568 0.07248 0.0
N278 N 0.59167 0.69364 0.08308 0.0
C279 C 0.61086 0.62716 0.13273 0.0
C280 C 0.50861 0.61535 0.14338 0.0
C281 C 0.54307 0.61974 0.16409 0.0
C282 C 0.59513 0.62508 0.15847 0.0
C283 C 0.52601 0.6179 0.11763 0.0
N284 N 0.57573 0.62504 0.11262 0.0
H285 H 0.65174 0.63055 0.12919 0.0
H286 H 0.49945 0.61407 0.10193 0.0
H287 H 0.66441 0.66102 0.11416 0.0
H288 H 0.55094 0.67411 0.05633 0.0
O289 O 0.67628 0.62974 0.08446 0.0
O290 O 0.63975 0.6359 0.04582 0.0
O291 O 0.52811 0.63271 0.06147 0.0
C292 C 0.68245 0.63343 0.05979 0.0
H293 H 0.58291 0.56274 0.03463 0.0
H294 H 0.64948 0.69989 0.11326 0.0
H295 H 0.46846 0.61046 0.14703 0.0
H296 H 0.62365 0.62765 0.17395 0.0
Co297 Co 0.91545 0.39311 0.07926 0.0
C298 C 0.88004 0.43532 0.08436 0.0
C299 C 0.94305 0.43312 0.0569 0.0
C300 C 0.9245 0.45267 0.05654 0.0
N301 N 0.91507 0.42222 0.07434 0.0
N302 N 0.88448 0.454 0.07363 0.0
H303 H 0.85039 0.43107 0.09846 0.0
H304 H 0.97275 0.42716 0.04413 0.0
C305 C 0.02816 0.38199 0.06358 0.0
O306 O 0.03557 0.3701 0.08398 0.0
N307 N 0.91407 0.36382 0.08421 0.0
C308 C 0.88401 0.35387 0.10181 0.0
C309 C 0.88941 0.33349 0.09857 0.0
C310 C 0.93633 0.34906 0.06993 0.0
N311 N 0.92241 0.33043 0.07864 0.0
C312 C 0.91526 0.39354 0.13478 0.0
C313 C 0.02098 0.40192 0.14274 0.0
C314 C 0.98986 0.39653 0.1643 0.0
C315 C 0.93571 0.39337 0.16001 0.0
C316 C 0.99831 0.40242 0.11769 0.0
N317 N 0.94708 0.39653 0.11378 0.0
H318 H 0.8735 0.39106 0.13232 0.0
H319 H 0.02235 0.40736 0.1016 0.0
H320 H 0.85832 0.36077 0.11573 0.0
H321 H 0.96103 0.35173 0.05316 0.0
O322 O 0.84136 0.39397 0.08843 0.0
O323 O 0.87201 0.39043 0.04852 0.0
O324 O 0.98521 0.39186 0.06061 0.0
C325 C 0.83149 0.39195 0.06374 0.0
H326 H 0.93719 0.46462 0.04341 0.0
H327 H 0.87098 0.32176 0.11027 0.0
H328 H 0.06259 0.40533 0.145 0.0
H329 H 0.90895 0.39063 0.17602 0.0
Co330 Co 0.07033 0.39973 0.44788 0.0
C331 C 0.0427 0.35576 0.44602 0.0
C332 C 0.09969 0.36291 0.47575 0.0
C333 C 0.09075 0.34246 0.47648 0.0
N334 N 0.06995 0.37124 0.45662 0.0
N335 N 0.05508 0.3379 0.45777 0.0
H336 H 0.01529 0.35746 0.42985 0.0
H337 H 0.12618 0.37119 0.48834 0.0
C338 C 0.18604 0.40868 0.43846 0.0
O339 O 0.17436 0.42 0.41799 0.0
N340 N 0.07244 0.42865 0.44021 0.0
C341 C 0.04787 0.43933 0.42109 0.0
C342 C 0.06722 0.45879 0.42092 0.0
C343 C 0.10446 0.44213 0.45215 0.0
N344 N 0.10306 0.46046 0.44033 0.0
C345 C 0.02362 0.39567 0.39739 0.0
C346 C 0.11302 0.38472 0.37071 0.0
C347 C 0.06719 0.38983 0.35643 0.0
C348 C 0.02134 0.39412 0.37043 0.0
C349 C 0.11301 0.38589 0.39799 0.0
N350 N 0.07008 0.39325 0.41075 0.0
H351 H 0.98798 0.39981 0.40731 0.0
H352 H 0.14794 0.38118 0.40854 0.0
H353 H 0.01884 0.43359 0.40764 0.0
H354 H 0.13117 0.4382 0.46799 0.0
O355 O 0.995 0.40095 0.4532 0.0
O356 O 0.05508 0.40581 0.48398 0.0
O357 O 0.14976 0.39934 0.45094 0.0
C358 C 0.00534 0.40482 0.47742 0.0
H359 H 0.10879 0.33178 0.48998 0.0
H360 H 0.05677 0.47066 0.40714 0.0
H361 H 0.14902 0.38043 0.36104 0.0
H362 H 0.98385 0.39676 0.36065 0.0
Co363 Co 0.40332 0.63399 0.44006 0.0
C364 C 0.35458 0.59327 0.44701 0.0
C365 C 0.41887 0.59713 0.47374 0.0
C366 C 0.39628 0.57846 0.47835 0.0
N367 N 0.39402 0.60626 0.45336 0.0
N368 N 0.35571 0.57617 0.46157 0.0
H369 H 0.32397 0.59644 0.43275 0.0
H370 H 0.44916 0.60382 0.48575 0.0
C371 C 0.51518 0.62591 0.45948 0.0
O372 O 0.51882 0.60997 0.44467 0.0
N373 N 0.41055 0.66148 0.42707 0.0
C374 C 0.39341 0.66813 0.40358 0.0
C375 C 0.40629 0.6882 0.40075 0.0
C376 C 0.433 0.67771 0.43847 0.0
N377 N 0.43118 0.69424 0.42263 0.0
C378 C 0.40437 0.61286 0.39208 0.0
C379 C 0.49646 0.62964 0.37295 0.0
C380 C 0.46411 0.61834 0.35628 0.0
C381 C 0.41838 0.60947 0.36636 0.0
C382 C 0.48074 0.63279 0.39868 0.0
N383 N 0.43486 0.62454 0.40795 0.0
H384 H 0.36665 0.60735 0.3984 0.0
H385 H 0.50355 0.64302 0.41053 0.0
H386 H 0.37328 0.65892 0.38936 0.0
H387 H 0.45099 0.67735 0.45767 0.0
O388 O 0.33027 0.63434 0.42886 0.0
O389 O 0.35978 0.64327 0.46788 0.0
O390 O 0.47334 0.63668 0.45894 0.0
C391 C 0.31984 0.64065 0.45213 0.0
H392 H 0.40694 0.56787 0.49376 0.0
H393 H 0.39753 0.69769 0.38394 0.0
H394 H 0.53166 0.63707 0.3657 0.0
H395 H 0.39218 0.60074 0.35407 0.0
Co396 Co 0.38996 0.39463 0.8894 0.0
C397 C 0.41868 0.3503 0.88687 0.0
C398 C 0.34138 0.35716 0.872 0.0
C399 C 0.35013 0.33683 0.86921 0.0
N400 N 0.38408 0.36568 0.88335 0.0
N401 N 0.39873 0.33254 0.87863 0.0
H402 H 0.45809 0.35177 0.89452 0.0
H403 H 0.30609 0.36528 0.86614 0.0
C404 C 0.30616 0.37982 0.92475 0.0
O405 O 0.33721 0.36426 0.92921 0.0
N406 N 0.39384 0.42345 0.89416 0.0
C407 C 0.43779 0.43489 0.89559 0.0
C408 C 0.42304 0.45492 0.89605 0.0
C409 C 0.35304 0.43654 0.89392 0.0
N410 N 0.3698 0.45587 0.89505 0.0
C411 C 0.48018 0.38395 0.92042 0.0
C412 C 0.44335 0.398 0.96727 0.0
C413 C 0.49369 0.38939 0.96626 0.0
C414 C 0.5121 0.38238 0.94249 0.0
C415 C 0.41201 0.39879 0.9447 0.0
N416 N 0.42968 0.39099 0.9218 0.0
H417 H 0.49719 0.38013 0.90198 0.0
H418 H 0.37456 0.40652 0.94548 0.0
H419 H 0.47773 0.4291 0.8956 0.0
H420 H 0.31207 0.43207 0.89186 0.0
O421 O 0.44899 0.39584 0.86623 0.0
O422 O 0.36558 0.39937 0.85358 0.0
O423 O 0.32037 0.39387 0.90885 0.0
C424 C 0.41545 0.39855 0.84735 0.0
H425 H 0.32268 0.32604 0.86103 0.0
H426 H 0.44937 0.4678 0.89681 0.0
H427 H 0.42889 0.40439 0.98515 0.0
H428 H 0.552 0.37667 0.94071 0.0
Co429 Co 0.12523 0.64238 0.88557 0.0
C430 C 0.09314 0.68617 0.88217 0.0
C431 C 0.17673 0.68222 0.88593 0.0
C432 C 0.16636 0.70256 0.88439 0.0
N433 N 0.1307 0.67183 0.8858 0.0
N434 N 0.11379 0.70497 0.88203 0.0
H435 H 0.05185 0.68322 0.87871 0.0
H436 H 0.2156 0.67549 0.88666 0.0
C437 C 0.19981 0.65018 0.92901 0.0
O438 O 0.16412 0.66308 0.93684 0.0
N439 N 0.12197 0.61322 0.88425 0.0
C440 C 0.07883 0.60173 0.88001 0.0
C441 C 0.09397 0.58174 0.87985 0.0
C442 C 0.16262 0.60015 0.88675 0.0
N443 N 0.14656 0.58082 0.88421 0.0
C444 C 0.03443 0.65092 0.91639 0.0
C445 C 0.0619 0.62718 0.95903 0.0
C446 C 0.01531 0.6385 0.95957 0.0
C447 C 1.00139 0.65026 0.93781 0.0
C448 C 0.09445 0.62858 0.93721 0.0
N449 N 0.08185 0.64121 0.91673 0.0
H450 H 0.0202 0.65841 0.8991 0.0
H451 H 0.12962 0.61938 0.93671 0.0
H452 H 0.03917 0.60747 0.87725 0.0
H453 H 0.20326 0.60465 0.88994 0.0
O454 O 0.06835 0.64441 0.8608 0.0
O455 O 0.15288 0.64307 0.85005 0.0
O456 O 0.19255 0.6405 0.90776 0.0
C457 C 0.10342 0.64459 0.84266 0.0
H458 H 0.19525 0.71463 0.88433 0.0
H459 H 0.06824 0.56885 0.87711 0.0
H460 H 0.07281 0.6173 0.97517 0.0
H461 H 0.96398 0.65819 0.93688 0.0
Co462 Co 0.89334 0.65245 0.62472 0.0
C463 C 0.923 0.6966 0.62753 0.0
C464 C 0.83987 0.69137 0.63092 0.0
C465 C 0.84875 0.71181 0.63216 0.0
N466 N 0.88607 0.68178 0.62674 0.0
N467 N 0.901 0.71502 0.63004 0.0
H468 H 0.96505 0.6943 0.62707 0.0
H469 H 0.80199 0.68398 0.63304 0.0
C470 C 0.80633 0.66146 0.58734 0.0
O471 O 0.83729 0.67613 0.57909 0.0
N472 N 0.8982 0.62341 0.62408 0.0
C473 C 0.94036 0.61189 0.61858 0.0
C474 C 0.92501 0.59188 0.61956 0.0
C475 C 0.85827 0.61042 0.62872 0.0
N476 N 0.87343 0.59104 0.62602 0.0
C477 C 0.97475 0.66343 0.58869 0.0
C478 C 0.93713 0.6414 0.54713 0.0
C479 C 0.98403 0.6524 0.54445 0.0
C480 C 1.00275 0.66351 0.56554 0.0
C481 C 0.90957 0.64214 0.57058 0.0
N482 N 0.92749 0.65367 0.59079 0.0
H483 H 0.99327 0.67006 0.60535 0.0
H484 H 0.87488 0.63276 0.5728 0.0
H485 H 0.97918 0.61765 0.61384 0.0
H486 H 0.81857 0.61511 0.63339 0.0
O487 O 0.95625 0.65364 0.64576 0.0
O488 O 0.87559 0.65064 0.66171 0.0
O489 O 0.82092 0.65059 0.60703 0.0
C490 C 0.92646 0.65211 0.66604 0.0
H491 H 0.81932 0.72341 0.6349 0.0
H492 H 0.94988 0.57897 0.61592 0.0
H493 H 0.92273 0.63195 0.53156 0.0
H494 H 0.04061 0.67116 0.56471 0.0
Co495 Co 0.60198 0.41105 0.62637 0.0
C496 C 0.56752 0.36829 0.62376 0.0
C497 C 0.65159 0.37123 0.62855 0.0
C498 C 0.6389 0.35103 0.62871 0.0
N499 N 0.60692 0.382 0.62541 0.0
N500 N 0.58603 0.34917 0.62582 0.0
H501 H 0.52616 0.37227 0.62202 0.0
H502 H 0.69061 0.3776 0.63115 0.0
C503 C 0.68815 0.42526 0.59093 0.0
O504 O 0.65478 0.43878 0.5816 0.0
N505 N 0.59885 0.44043 0.62827 0.0
C506 C 0.55749 0.45313 0.62516 0.0
C507 C 0.57524 0.4727 0.6272 0.0
C508 C 0.64047 0.45257 0.63365 0.0
N509 N 0.62754 0.47232 0.63229 0.0
C510 C 0.51281 0.41586 0.59258 0.0
C511 C 0.55941 0.40383 0.54695 0.0
C512 C 0.50756 0.41127 0.54613 0.0
C513 C 0.48393 0.4167 0.56951 0.0
C514 C 0.5872 0.40334 0.57072 0.0
N515 N 0.56495 0.41072 0.59286 0.0
H516 H 0.49247 0.4191 0.61034 0.0
H517 H 0.62632 0.39687 0.57124 0.0
H518 H 0.51698 0.44891 0.62186 0.0
H519 H 0.68012 0.44704 0.63724 0.0
O520 O 0.54122 0.40866 0.64838 0.0
O521 O 0.62372 0.4104 0.66294 0.0
O522 O 0.67366 0.41299 0.60902 0.0
C523 C 0.57346 0.40875 0.66808 0.0
H524 H 0.66657 0.33868 0.63092 0.0
H525 H 0.55146 0.4862 0.62502 0.0
H526 H 0.57828 0.39855 0.52948 0.0
H527 H 0.44281 0.4212 0.57009 0.0
C528 C 0.44041 0.12601 0.98604 0.0
C529 C 0.46602 0.14354 0.97722 0.0
C530 C 0.39729 0.12711 1.00278 0.0
C531 C 0.37974 0.14624 0.01102 0.0
C532 C 0.40861 0.16383 1.0042 0.0
C533 C 0.45155 0.16228 0.98722 0.0
C534 C 0.36781 0.10795 0.00974 0.0
C535 C 0.39171 0.18443 0.0131 0.0
C536 C 0.2315 0.14793 0.01821 0.0
C537 C 0.22578 0.14417 0.04492 0.0
C538 C 0.28167 0.14967 0.00715 0.0
C539 C 0.32714 0.14784 0.02329 0.0
C540 C 0.32158 0.1453 0.05051 0.0
C541 C 0.2708 0.14333 0.06102 0.0
C542 C 0.28597 0.15231 0.97797 0.0
C543 C 0.36914 0.14368 0.06835 0.0
H544 H 0.45232 0.11147 0.97863 0.0
H545 H 0.47138 0.17586 0.98042 0.0
H546 H 0.36022 0.10713 0.03096 0.0
H547 H 0.32889 0.10793 0.9996 0.0
H548 H 0.38977 0.09421 1.00408 0.0
H549 H 0.42358 0.19582 0.01053 0.0
H550 H 0.35677 0.18944 1.00154 0.0
H551 H 0.38006 0.18393 0.03387 0.0
H552 H 0.19679 0.14867 0.00571 0.0
H553 H 0.26649 0.14063 0.08176 0.0
H554 H 0.3041 0.13864 0.96958 0.0
H555 H 0.31199 0.1653 0.97316 0.0
H556 H 0.2469 0.1548 0.96844 0.0
H557 H 0.38823 0.12878 0.06588 0.0
H558 H 0.35826 0.14518 0.08914 0.0
H559 H 0.39882 0.15543 0.06337 0.0
C560 C 0.07647 0.90738 0.98578 0.0
C561 C 0.04873 0.89015 0.97791 0.0
C562 C 0.11946 0.90583 1.00299 0.0
C563 C 0.13476 0.88657 0.01262 0.0
C564 C 0.10373 0.86939 0.00676 0.0
C565 C 0.06096 0.87138 0.98933 0.0
C566 C 0.15127 0.92456 0.00892 0.0
C567 C 0.11825 0.84869 0.01712 0.0
C568 C 0.28273 0.88152 0.01969 0.0
C569 C 0.29036 0.88507 0.04627 0.0
C570 C 0.23193 0.88111 0.00878 0.0
C571 C 0.18763 0.88416 0.0249 0.0
C572 C 0.19485 0.8867 0.052 0.0
C573 C 0.24634 0.88724 0.06239 0.0
C574 C 0.2259 0.8784 0.97973 0.0
C575 C 0.1485 0.88972 0.06981 0.0
H576 H 0.06623 0.92197 0.97735 0.0
H577 H 0.03946 0.85804 0.98332 0.0
H578 H 0.15994 0.92545 0.03007 0.0
H579 H 0.18968 0.92388 0.9987 0.0
H580 H 0.13052 0.93858 1.00259 0.0
H581 H 0.08509 0.83781 0.015 0.0
H582 H 0.15255 0.84291 0.00621 0.0
H583 H 0.12999 0.84935 0.03796 0.0
H584 H 0.31661 0.87973 0.00717 0.0
H585 H 0.25208 0.88989 0.083 0.0
H586 H 0.20908 0.89233 0.97074 0.0
H587 H 0.19809 0.86586 0.9756 0.0
H588 H 0.26414 0.87514 0.97021 0.0
H589 H 0.13218 0.9051 0.06667 0.0
H590 H 0.15997 0.88803 0.09066 0.0
H591 H 0.11647 0.87879 0.06541 0.0
C592 C 0.75738 0.89534 0.47229 0.0
C593 C 0.74791 0.88591 0.44846 0.0
C594 C 0.80831 0.89637 0.48295 0.0
C595 C 0.85128 0.88824 0.4691 0.0
C596 C 0.84231 0.87915 0.44466 0.0
C597 C 0.7904 0.87781 0.43476 0.0
C598 C 0.81584 0.90583 0.50935 0.0
C599 C 0.88743 0.8709 0.42904 0.0
C600 C 0.97697 0.91004 0.49681 0.0
C601 C 0.99031 0.89519 0.51533 0.0
C602 C 0.93502 0.90699 0.47925 0.0
C603 C 0.90494 0.88897 0.48103 0.0
C604 C 0.92123 0.87331 0.49836 0.0
C605 C 0.96416 0.87658 0.51523 0.0
C606 C 0.91982 0.92384 0.46058 0.0
C607 C 0.88982 0.85402 0.50127 0.0
H608 H 0.72456 0.90147 0.48305 0.0
H609 H 0.78312 0.87063 0.41623 0.0
H610 H 0.83463 0.89485 0.52305 0.0
H611 H 0.84256 0.91907 0.50774 0.0
H612 H 0.77796 0.91088 0.51785 0.0
H613 H 0.87417 0.86527 0.40979 0.0
H614 H 0.91773 0.88281 0.42594 0.0
H615 H 0.90683 0.85835 0.43995 0.0
H616 H 0.99725 0.92447 0.49712 0.0
H617 H 0.97434 0.86526 0.52988 0.0
H618 H 0.88567 0.93219 0.46846 0.0
H619 H 0.9077 0.91775 0.44141 0.0
H620 H 0.95282 0.9347 0.45765 0.0
H621 H 0.85278 0.85721 0.51187 0.0
H622 H 0.9121 0.84223 0.51232 0.0
H623 H 0.87855 0.84798 0.48198 0.0
C624 C 0.75805 0.15151 0.48338 0.0
C625 C 0.76599 0.14992 0.45656 0.0
C626 C 0.7071 0.15366 0.49341 0.0
C627 C 0.66316 0.15457 0.47614 0.0
C628 C 0.67108 0.1536 0.44897 0.0
C629 C 0.72248 0.15111 0.43949 0.0
C630 C 0.70021 0.15448 0.52258 0.0
C631 C 0.62528 0.1549 0.42999 0.0
C632 C 0.53594 0.13987 0.50946 0.0
C633 C 0.5188 0.15867 0.51811 0.0
C634 C 0.58116 0.13836 0.49402 0.0
C635 C 0.6091 0.15612 0.48691 0.0
C636 C 0.58875 0.17525 0.49351 0.0
C637 C 0.54402 0.17628 0.50932 0.0
C638 C 0.60177 0.11767 0.48751 0.0
C639 C 0.6167 0.19455 0.48581 0.0
H640 H 0.79155 0.15049 0.49663 0.0
H641 H 0.72855 0.14996 0.41869 0.0
H642 H 0.68028 0.16873 0.52787 0.0
H643 H 0.67465 0.14183 0.52921 0.0
H644 H 0.73847 0.15355 0.53329 0.0
H645 H 0.63846 0.15514 0.40942 0.0
H646 H 0.59858 0.14178 0.43294 0.0
H647 H 0.6018 0.1687 0.43354 0.0
H648 H 0.51667 0.12626 0.51659 0.0
H649 H 0.5306 0.1908 0.51615 0.0
H650 H 0.63747 0.11439 0.49955 0.0
H651 H 0.61359 0.11707 0.4668 0.0
H652 H 0.57205 0.10565 0.49132 0.0
H653 H 0.65276 0.19633 0.49801 0.0
H654 H 0.59126 0.208 0.48847 0.0
H655 H 0.62932 0.19408 0.46519 0.0
C656 C 0.73491 0.90467 0.93318 0.0
C657 C 0.78668 0.90681 0.94259 0.0
C658 C 0.69204 0.90381 0.95047 0.0
C659 C 0.70162 0.9045 0.9777 0.0
C660 C 0.75416 0.90578 0.98719 0.0
C661 C 0.7959 0.90721 0.96952 0.0
C662 C 0.63651 0.9029 0.9396 0.0
C663 C 0.7663 0.90604 0.01604 0.0
C664 C 0.59848 0.92446 0.02397 0.0
C665 C 0.57666 0.90661 0.03419 0.0
C666 C 0.63785 0.92394 1.00493 0.0
C667 C 0.65694 0.90509 0.99639 0.0
C668 C 0.63529 0.88699 0.00678 0.0
C669 C 0.59483 0.88797 0.02532 0.0
C670 C 0.65911 0.94359 0.99398 0.0
C671 C 0.65552 0.86662 0.9987 0.0
H672 H 0.72785 0.9044 0.91234 0.0
H673 H 0.83608 0.90855 0.97684 0.0
H674 H 0.61492 0.88988 0.94818 0.0
H675 H 0.61477 0.91676 0.94495 0.0
H676 H 0.63582 0.9016 0.91806 0.0
H677 H 0.80942 0.90536 0.02021 0.0
H678 H 0.75037 0.92002 0.0246 0.0
H679 H 0.74685 0.89307 0.02598 0.0
H680 H 0.58392 0.93891 0.03044 0.0
H681 H 0.57795 0.87414 0.03318 0.0
H682 H 0.65626 0.94367 0.9724 0.0
H683 H 0.70151 0.94519 0.99922 0.0
H684 H 0.63754 0.9569 1.00135 0.0
H685 H 0.65176 0.86502 0.9773 0.0
H686 H 0.63395 0.85397 0.0083 0.0
H687 H 0.69814 0.8653 1.0037 0.0
C688 C 0.78079 0.12983 0.93177 0.0
C689 C 0.72893 0.12913 0.94102 0.0
C690 C 0.82413 0.12933 0.94926 0.0
C691 C 0.81511 0.12862 0.97652 0.0
C692 C 0.76262 0.12898 0.98578 0.0
C693 C 0.72033 0.12897 0.96795 0.0
C694 C 0.87943 0.12863 0.93859 0.0
C695 C 0.75097 0.12873 0.01458 0.0
C696 C 0.91458 0.10445 0.02346 0.0
C697 C 0.94038 0.12132 0.03385 0.0
C698 C 0.875 0.10664 1.00425 0.0
C699 C 0.85991 0.1262 0.9955 0.0
C700 C 0.88554 0.14331 0.00606 0.0
C701 C 0.92578 0.14066 0.02491 0.0
C702 C 0.84924 0.08796 0.99331 0.0
C703 C 0.86995 0.16443 0.99771 0.0
H704 H 0.78744 0.1298 0.91095 0.0
H705 H 0.68016 0.12865 0.97514 0.0
H706 H 0.90429 0.14053 0.94752 0.0
H707 H 0.89773 0.11387 0.94371 0.0
H708 H 0.88003 0.13064 0.91709 0.0
H709 H 0.70827 0.13087 0.01856 0.0
H710 H 0.76356 0.1141 0.02335 0.0
H711 H 0.77364 0.1408 0.02448 0.0
H712 H 0.92609 0.08944 0.02994 0.0
H713 H 0.9456 0.15378 0.03278 0.0
H714 H 0.85207 0.08812 0.97176 0.0
H715 H 0.80663 0.08775 0.9982 0.0
H716 H 0.8676 0.07384 1.00099 0.0
H717 H 0.8738 0.16625 0.97632 0.0
H718 H 0.89445 0.17614 0.00734 0.0
H719 H 0.82787 0.16709 1.00248 0.0
C720 C 0.04113 0.14388 0.49316 0.0
C721 C 0.05561 0.14685 0.46705 0.0
C722 C 0.07807 0.14614 0.51356 0.0
C723 C 0.13125 0.15099 0.50775 0.0
C724 C 0.14652 0.15325 0.48136 0.0
C725 C 0.10841 0.15145 0.46137 0.0
C726 C 0.05967 0.14411 0.54136 0.0
C727 C 0.20303 0.15793 0.47424 0.0
C728 C 0.21877 0.17851 0.55654 0.0
C729 C 0.24911 0.16274 0.56733 0.0
C730 C 0.179 0.17476 0.53793 0.0
C731 C 0.17029 0.15481 0.52923 0.0
C732 C 0.2001 0.13875 0.54047 0.0
C733 C 0.23866 0.14288 0.55964 0.0
C734 C 0.14715 0.19227 0.52711 0.0
C735 C 0.19298 0.11734 0.53142 0.0
H736 H 1.00029 0.14053 0.49777 0.0
H737 H 0.11996 0.15368 0.44126 0.0
H738 H 0.08403 0.13282 0.55214 0.0
H739 H 0.06476 0.15875 0.55133 0.0
H740 H 0.01751 0.13953 0.54262 0.0
H741 H 0.20945 0.15751 0.45288 0.0
H742 H 0.21393 0.17315 0.48123 0.0
H743 H 0.23012 0.14695 0.48391 0.0
H744 H 0.22664 0.19388 0.56244 0.0
H745 H 0.26246 0.13066 0.56765 0.0
H746 H 0.10427 0.18896 0.5286 0.0
H747 H 0.15607 0.19457 0.50617 0.0
H748 H 0.15569 0.20655 0.53744 0.0
H749 H 0.15092 0.11275 0.53281 0.0
H750 H 0.21739 0.10644 0.54291 0.0
H751 H 0.20419 0.11637 0.51063 0.0
C752 C 0.26816 0.93486 0.55598 0.0
C753 C 0.24836 0.91931 0.57194 0.0
C754 C 0.31502 0.93239 0.54201 0.0
C755 C 0.34231 0.91378 0.54367 0.0
C756 C 0.32371 0.89831 0.56061 0.0
C757 C 0.27708 0.90133 0.57472 0.0
C758 C 0.33394 0.9494 0.52454 0.0
C759 C 0.3514 0.87819 0.56275 0.0
C760 C 0.41894 0.90001 0.48328 0.0
C761 C 0.47105 0.90452 0.49066 0.0
C762 C 0.377 0.9025 0.5006 0.0
C763 C 0.38725 0.90994 0.52587 0.0
C764 C 0.43985 0.91438 0.53354 0.0
C765 C 0.48124 0.9115 0.51587 0.0
C766 C 0.32155 0.8974 0.49172 0.0
C767 C 0.45224 0.92253 0.5602 0.0
H768 H 0.24636 0.94888 0.55399 0.0
H769 H 0.26179 0.88922 0.58691 0.0
H770 H 0.37654 0.9524 0.52806 0.0
H771 H 0.32934 0.94503 0.50387 0.0
H772 H 0.31156 0.96358 0.52754 0.0
H773 H 0.33492 0.86848 0.57852 0.0
H774 H 0.34728 0.87012 0.54405 0.0
H775 H 0.39426 0.88037 0.56645 0.0
H776 H 0.41082 0.89446 0.4639 0.0
H777 H 0.52146 0.91502 0.52167 0.0
H778 H 0.29676 0.91119 0.49158 0.0
H779 H 0.30334 0.88643 0.5055 0.0
H780 H 0.32058 0.89088 0.47191 0.0
H781 H 0.43235 0.9373 0.5626 0.0
H782 H 0.49535 0.9246 0.56348 0.0
H783 H 0.43674 0.91217 0.57548 0.0
C784 C 0.78065 0.63232 0.06403 0.0
C785 C 0.73541 0.63405 0.04817 0.0
C786 C 0.83129 0.63245 0.05317 0.0
C787 C 0.83652 0.63426 0.02586 0.0
C788 C 0.79094 0.63596 0.00978 0.0
C789 C 0.74089 0.6359 0.02116 0.0
C790 C 0.87909 0.63076 0.07086 0.0
C791 C 0.79504 0.63787 0.98051 0.0
C792 C 0.95737 0.65455 0.99202 0.0
C793 C 0.978 0.63693 0.98136 0.0
C794 C 0.91343 0.65376 0.00833 0.0
C795 C 0.88947 0.63488 0.01381 0.0
C796 C 0.91272 0.61689 1.00476 0.0
C797 C 0.95707 0.61813 0.98863 0.0
C798 C 0.89023 0.67324 0.01794 0.0
C799 C 0.88825 0.59648 0.01026 0.0
H800 H 0.77654 0.63087 0.08496 0.0
H801 H 0.706 0.63715 0.00885 0.0
H802 H 0.90304 0.61745 0.06554 0.0
H803 H 0.90459 0.64428 0.06837 0.0
H804 H 0.86816 0.6293 0.0917 0.0
H805 H 0.75569 0.63864 0.97079 0.0
H806 H 0.81759 0.65169 0.97523 0.0
H807 H 0.81691 0.6248 0.97274 0.0
H808 H 0.97402 0.66907 0.98645 0.0
H809 H 0.97296 0.60453 0.98021 0.0
H810 H 0.88032 0.67192 0.03889 0.0
H811 H 0.85304 0.67656 0.00712 0.0
H812 H 0.91764 0.6862 0.01516 0.0
H813 H 0.87778 0.5949 0.03112 0.0
H814 H 0.91505 0.58393 0.00508 0.0
H815 H 0.85117 0.595 0.99874 0.0
C816 C 0.73366 0.39088 0.07013 0.0
C817 C 0.77702 0.3919 0.05334 0.0
C818 C 0.68175 0.39068 0.06024 0.0
C819 C 0.67333 0.39173 0.03299 0.0
C820 C 0.71704 0.39311 0.01602 0.0
C821 C 0.76835 0.39307 0.02641 0.0
C822 C 0.63605 0.38904 0.07884 0.0
C823 C 0.70969 0.39446 0.98681 0.0
C824 C 0.55502 0.37157 0.9967 0.0
C825 C 0.53017 0.38951 0.98877 0.0
C826 C 0.59914 0.37193 0.01333 0.0
C827 C 0.61922 0.39072 0.02173 0.0
C828 C 0.59152 0.40875 0.01551 0.0
C829 C 0.54693 0.4079 0.99913 0.0
C830 C 0.62698 0.35235 0.01991 0.0
C831 C 0.61179 0.42908 0.02401 0.0
H832 H 0.74028 0.39 0.091 0.0
H833 H 0.80174 0.39403 0.01337 0.0
H834 H 0.60823 0.40176 0.07552 0.0
H835 H 0.61378 0.3749 0.07523 0.0
H836 H 0.64924 0.38906 0.09953 0.0
H837 H 0.74779 0.39622 0.97643 0.0
H838 H 0.68978 0.38062 0.97972 0.0
H839 H 0.68398 0.40747 0.98156 0.0
H840 H 0.54173 0.35737 0.98866 0.0
H841 H 0.52779 0.42177 0.99276 0.0
H842 H 0.63871 0.35178 0.04077 0.0
H843 H 0.66357 0.35128 0.00826 0.0
H844 H 0.60184 0.33901 0.01563 0.0
H845 H 0.62469 0.42856 0.0447 0.0
H846 H 0.58144 0.44106 0.02146 0.0
H847 H 0.64669 0.43331 0.01217 0.0
C848 C 0.28344 0.41524 0.43391 0.0
C849 C 0.24102 0.40752 0.4484 0.0
C850 C 0.33497 0.41547 0.44442 0.0
C851 C 0.34374 0.40828 0.47019 0.0
C852 C 0.30129 0.39986 0.4845 0.0
C853 C 0.25071 0.39941 0.47335 0.0
C854 C 0.37939 0.42407 0.42828 0.0
C855 C 0.30862 0.39223 0.51218 0.0
C856 C 0.47146 0.39577 0.50536 0.0
C857 C 0.47579 0.41243 0.52177 0.0
C858 C 0.43168 0.39507 0.4861 0.0
C859 C 0.39535 0.41126 0.48364 0.0
C860 C 0.40333 0.42895 0.49828 0.0
C861 C 0.44374 0.42935 0.51704 0.0
C862 C 0.42567 0.3763 0.47006 0.0
C863 C 0.36583 0.44664 0.49619 0.0
H864 H 0.27634 0.42137 0.41452 0.0
H865 H 0.21826 0.39338 0.48471 0.0
H866 H 0.38705 0.43988 0.43405 0.0
H867 H 0.41642 0.41541 0.43148 0.0
H868 H 0.3694 0.4241 0.40717 0.0
H869 H 0.27181 0.38562 0.52032 0.0
H870 H 0.33998 0.38057 0.51311 0.0
H871 H 0.3214 0.40483 0.5248 0.0
H872 H 0.49646 0.38271 0.50878 0.0
H873 H 0.44798 0.44246 0.52931 0.0
H874 H 0.41453 0.38022 0.44966 0.0
H875 H 0.39368 0.36674 0.47828 0.0
H876 H 0.46263 0.36727 0.47004 0.0
H877 H 0.35852 0.45088 0.47553 0.0
H878 H 0.3811 0.46009 0.50655 0.0
H879 H 0.32725 0.44232 0.50478 0.0
C880 C 0.25517 0.64667 0.48726 0.0
C881 C 0.26506 0.64332 0.46091 0.0
C882 C 0.20344 0.64795 0.49644 0.0
C883 C 0.1605 0.64607 0.47875 0.0
C884 C 0.17014 0.64309 0.452 0.0
C885 C 0.22249 0.64161 0.44338 0.0
C886 C 0.1948 0.65101 0.5252 0.0
C887 C 0.12528 0.64128 0.43261 0.0
C888 C 0.03764 0.63124 0.51519 0.0
C889 C 0.01814 0.65029 0.52154 0.0
C890 C 0.0816 0.62942 0.49897 0.0
C891 C 0.10586 0.6471 0.48882 0.0
C892 C 0.08243 0.66617 0.49281 0.0
C893 C 0.03898 0.66756 0.50938 0.0
C894 C 0.10542 0.6088 0.49518 0.0
C895 C 0.10641 0.68532 0.48184 0.0
H896 H 0.28792 0.64791 0.50089 0.0
H897 H 0.23004 0.63901 0.42296 0.0
H898 H 0.17217 0.66509 0.52824 0.0
H899 H 0.17116 0.63833 0.53336 0.0
H900 H 0.23253 0.65198 0.53634 0.0
H901 H 0.13953 0.64022 0.41228 0.0
H902 H 0.10144 0.62764 0.43719 0.0
H903 H 0.0986 0.65448 0.43394 0.0
H904 H 0.0216 0.6179 0.52475 0.0
H905 H 0.02348 0.68228 0.51423 0.0
H906 H 0.14091 0.60715 0.50788 0.0
H907 H 0.11828 0.60689 0.47478 0.0
H908 H 0.07722 0.59651 0.50024 0.0
H909 H 0.14184 0.68938 0.49354 0.0
H910 H 0.07822 0.69815 0.48232 0.0
H911 H 0.1193 0.68319 0.46148 0.0
C912 C 0.24689 0.40069 0.95232 0.0
C913 C 0.25938 0.38204 0.94144 0.0
C914 C 0.20859 0.40202 0.97194 0.0
C915 C 0.18139 0.38437 0.98028 0.0
C916 C 0.19199 0.36574 0.96823 0.0
C917 C 0.23139 0.36476 0.94926 0.0
C918 C 0.19914 0.4221 0.98461 0.0
C919 C 0.16277 0.34668 0.97587 0.0
C920 C 0.12158 0.37924 0.04789 0.0
C921 C 0.06821 0.38337 0.04274 0.0
C922 C 0.15923 0.38033 0.02791 0.0
C923 C 0.14282 0.38509 1.00206 0.0
C924 C 0.08896 0.38931 0.99682 0.0
C925 C 0.05249 0.38864 0.01725 0.0
C926 C 0.21651 0.37616 0.0344 0.0
C927 C 0.0695 0.39387 0.96949 0.0
H928 H 0.26909 0.41401 0.94655 0.0
H929 H 0.24106 0.35033 0.94081 0.0
H930 H 0.15641 0.4258 0.98429 0.0
H931 H 0.2118 0.42121 0.00533 0.0
H932 H 0.2211 0.43458 0.97487 0.0
H933 H 0.17265 0.33382 0.96316 0.0
H934 H 0.17281 0.34242 0.99628 0.0
H935 H 0.11947 0.34925 0.97489 0.0
H936 H 0.13397 0.37531 0.06757 0.0
H937 H 0.01119 0.39171 0.01307 0.0
H938 H 0.24172 0.38866 0.02697 0.0
H939 H 0.22935 0.36217 0.02469 0.0
H940 H 0.2235 0.37434 0.05568 0.0
H941 H 0.0917 0.40678 0.96099 0.0
H942 H 0.02665 0.39748 0.96881 0.0
H943 H 0.07664 0.38065 0.95697 0.0
C944 C 0.23133 0.6397 0.97284 0.0
C945 C 0.24351 0.64525 0.94716 0.0
C946 C 0.27093 0.63788 0.992 0.0
C947 C 0.32399 0.64231 0.98553 0.0
C948 C 0.33671 0.64743 0.95937 0.0
C949 C 0.29623 0.64864 0.94037 0.0
C950 C 0.25563 0.63186 0.01939 0.0
C951 C 0.39264 0.65256 0.95175 0.0
C952 C 0.41238 0.65964 0.04152 0.0
C953 C 0.4426 0.64233 0.04675 0.0
C954 C 0.37437 0.65995 0.02134 0.0
C955 C 0.3655 0.64237 0.00643 0.0
C956 C 0.39514 0.62472 0.01208 0.0
C957 C 0.43366 0.62498 0.03197 0.0
C958 C 0.34421 0.67919 0.01572 0.0
C959 C 0.38603 0.60551 0.9972 0.0
H960 H 0.19037 0.63717 0.97805 0.0
H961 H 0.30538 0.65327 0.92058 0.0
H962 H 0.2807 0.61919 0.02654 0.0
H963 H 0.2623 0.64472 0.03262 0.0
H964 H 0.2135 0.62723 0.02069 0.0
H965 H 0.39646 0.65532 0.93046 0.0
H966 H 0.40574 0.6663 0.96212 0.0
H967 H 0.41979 0.64017 0.95767 0.0
H968 H 0.41968 0.67317 0.05264 0.0
H969 H 0.45667 0.61152 0.03607 0.0
H970 H 0.30134 0.67661 0.01865 0.0
H971 H 0.34954 0.68386 0.99507 0.0
H972 H 0.35717 0.69176 0.02838 0.0
H973 H 0.34427 0.60063 0.99917 0.0
H974 H 0.41207 0.59303 1.00412 0.0
H975 H 0.39321 0.60822 0.97616 0.0
C976 C 0.60684 0.62127 0.47803 0.0
C977 C 0.55673 0.6302 0.47933 0.0
C978 C 0.64612 0.62532 0.49686 0.0
C979 C 0.63479 0.63836 0.51775 0.0
C980 C 0.58383 0.64699 0.5195 0.0
C981 C 0.54569 0.64297 0.50021 0.0
C982 C 0.70021 0.6161 0.49399 0.0
C983 C 0.56981 0.66078 0.54155 0.0
C984 C 0.7287 0.63889 0.57657 0.0
C985 C 0.75966 0.65599 0.57104 0.0
C986 C 0.68747 0.63301 0.5596 0.0
C987 C 0.6774 0.64438 0.53646 0.0
C988 C 0.70815 0.66176 0.53102 0.0
C989 C 0.74843 0.66739 0.54838 0.0
C990 C 0.65505 0.61455 0.56627 0.0
C991 C 0.69918 0.67427 0.50654 0.0
H992 H 0.61572 0.61138 0.46203 0.0
H993 H 0.50692 0.64977 0.50162 0.0
H994 H 0.72992 0.62822 0.49092 0.0
H995 H 0.71161 0.6078 0.51209 0.0
H996 H 0.70204 0.60556 0.4774 0.0
H997 H 0.52731 0.66496 0.54129 0.0
H998 H 0.57934 0.6534 0.56054 0.0
H999 H 0.59366 0.67481 0.54024 0.0
H1000 H 0.73713 0.62993 0.59393 0.0
H1001 H 0.77195 0.68064 0.54379 0.0
H1002 H 0.6596 0.60307 0.55094 0.0
H1003 H 0.61253 0.61856 0.56691 0.0
H1004 H 0.66678 0.60767 0.58531 0.0
H1005 H 0.70404 0.66472 0.48915 0.0
H1006 H 0.72692 0.68724 0.50503 0.0
H1007 H 0.65819 0.68017 0.50604 0.0
C1008 C 0.97273 0.41452 0.52161 0.0
C1009 C 0.96221 0.4077 0.49635 0.0
C1010 C 0.93146 0.41759 0.53933 0.0
C1011 C 0.87859 0.41357 0.53165 0.0
C1012 C 0.86799 0.4064 0.50629 0.0
C1013 C 0.90981 0.40364 0.48896 0.0
C1014 C 0.94429 0.4254 0.56611 0.0
C1015 C 0.81229 0.40178 0.49734 0.0
C1016 C 0.76833 0.40478 0.58048 0.0
C1017 C 0.7403 0.42299 0.57839 0.0
C1018 C 0.81471 0.40175 0.56616 0.0
C1019 C 0.83381 0.41738 0.54962 0.0
C1020 C 0.80712 0.43615 0.54853 0.0
C1021 C 0.76056 0.43867 0.56277 0.0
C1022 C 0.84177 0.38147 0.56775 0.0
C1023 C 0.82648 0.45331 0.53144 0.0
H1024 H 0.01313 0.41769 0.52743 0.0
H1025 H 0.90134 0.39826 0.46953 0.0
H1026 H 0.92467 0.44017 0.56888 0.0
H1027 H 0.92879 0.41488 0.58122 0.0
H1028 H 0.98747 0.42733 0.56931 0.0
H1029 H 0.81091 0.39564 0.47733 0.0
H1030 H 0.79374 0.39067 0.51081 0.0
H1031 H 0.78804 0.41571 0.49767 0.0
H1032 H 0.75286 0.39257 0.59245 0.0
H1033 H 0.73942 0.45287 0.56128 0.0
H1034 H 0.88466 0.38341 0.57161 0.0
H1035 H 0.83759 0.37376 0.5488 0.0
H1036 H 0.82488 0.37156 0.5832 0.0
H1037 H 0.86916 0.45609 0.53501 0.0
H1038 H 0.8045 0.46753 0.53478 0.0
H1039 H 0.82174 0.44924 0.51067 0.0
C1040 C 0.19738 0.05074 0.07764 0.0
C1041 C 0.17254 0.05559 0.05372 0.0
C1042 C 0.23089 0.03387 0.08038 0.0
C1043 C 0.23934 0.02119 0.05886 0.0
C1044 C 0.21349 0.02559 0.03491 0.0
C1045 C 0.18092 0.04271 0.03258 0.0
C1046 C 0.25804 0.02982 0.10621 0.0
C1047 C 0.22089 1.01236 0.01151 0.0
C1048 C 0.36421 0.98968 0.05291 0.0
C1049 C 0.34639 0.97032 0.05989 0.0
C1050 C 0.3304 1.00647 0.05359 0.0
C1051 C 0.27694 1.0038 0.06088 0.0
C1052 C 0.25899 0.98431 0.0685 0.0
C1053 C 0.29411 0.96783 0.06816 0.0
C1054 C 0.35159 0.02698 0.04577 0.0
C1055 C 0.20214 0.98069 0.07591 0.0
H1056 H 0.19097 0.06011 0.09437 0.0
H1057 H 0.16275 0.04601 0.0139 0.0
H1058 H 0.24838 1.01439 0.11337 0.0
H1059 H 0.30153 0.03054 0.10375 0.0
H1060 H 0.24653 0.04082 0.12126 0.0
H1061 H 0.19553 1.01709 0.99475 0.0
H1062 H 0.26275 1.01291 0.0053 0.0
H1063 H 0.21162 0.99642 0.01662 0.0
H1064 H 0.40471 0.9916 0.04665 0.0
H1065 H 0.28008 0.95283 0.07321 0.0
H1066 H 0.34263 0.03817 0.06098 0.0
H1067 H 0.33196 0.03221 0.02751 0.0
H1068 H 0.39496 0.02679 0.04263 0.0
H1069 H 0.19022 0.99125 0.09134 0.0
H1070 H 0.19521 0.96497 0.08291 0.0
H1071 H 0.17615 0.98365 0.05877 0.0
C1072 C 0.70179 0.97327 0.4373 0.0
C1073 C 0.64673 0.97551 0.43525 0.0
C1074 C 0.73537 0.99016 0.43918 0.0
C1075 C 0.7135 1.00984 0.43922 0.0
C1076 C 0.65796 1.0122 0.43719 0.0
C1077 C 0.62536 0.99505 0.43512 0.0
C1078 C 0.79433 0.98693 0.44111 0.0
C1079 C 0.63289 0.03286 0.43749 0.0
C1080 C 0.79524 0.05192 0.46963 0.0
C1081 C 0.81538 0.06208 0.44767 0.0
C1082 C 0.76197 0.03502 0.46713 0.0
C1083 C 0.74858 0.02792 0.44205 0.0
C1084 C 0.76866 0.03812 0.41977 0.0
C1085 C 0.80155 0.05512 0.42285 0.0
C1086 C 0.74098 0.02481 0.49141 0.0
C1087 C 0.75574 0.03096 0.39268 0.0
H1088 H 0.71878 0.95829 0.43702 0.0
H1089 H 0.58292 0.99693 0.43383 0.0
H1090 H 0.81435 0.99509 0.42496 0.0
H1091 H 0.80974 0.99321 0.4596 0.0
H1092 H 0.80519 0.9707 0.44037 0.0
H1093 H 0.58918 0.03217 0.43547 0.0
H1094 H 0.64293 0.04049 0.45599 0.0
H1095 H 0.64875 0.04237 0.4214 0.0
H1096 H 0.80489 0.05736 0.48887 0.0
H1097 H 0.81725 0.06277 0.40581 0.0
H1098 H 0.75375 1.0088 0.49216 0.0
H1099 H 0.69714 0.02487 0.49099 0.0
H1100 H 0.75473 0.03228 0.50947 0.0
H1101 H 0.76916 1.01515 0.39047 0.0
H1102 H 0.77458 0.04048 0.37737 0.0
H1103 H 0.71234 0.03111 0.38945 0.0
C1104 C 0.66359 0.04464 0.85746 0.0
C1105 C 0.67387 0.06107 0.87369 0.0
C1106 C 0.69758 0.02792 0.85714 0.0
C1107 C 0.74288 0.02757 0.87352 0.0
C1108 C 0.75365 0.04414 0.88986 0.0
C1109 C 0.71906 0.06069 0.88972 0.0
C1110 C 0.68492 1.01059 0.83934 0.0
C1111 C 0.80135 0.0443 0.90774 0.0
C1112 C 0.8021 0.97647 0.89112 0.0
C1113 C 0.84527 0.97555 0.87422 0.0
C1114 C 0.76865 0.99334 0.89118 0.0
C1115 C 0.7785 1.00971 0.87388 0.0
C1116 C 0.82211 1.00893 0.85683 0.0
C1117 C 0.85504 0.99188 0.85724 0.0
C1118 C 0.72277 0.99363 0.90978 0.0
C1119 C 0.83373 0.02605 0.83801 0.0
H1120 H 0.62919 0.04494 0.84478 0.0
H1121 H 0.72685 0.07319 0.90256 0.0
H1122 H 0.71841 1.00799 0.82601 0.0
H1123 H 0.67936 0.99653 0.85099 0.0
H1124 H 0.64865 1.01334 0.82749 0.0
H1125 H 0.80458 0.0585 0.9189 0.0
H1126 H 0.79918 0.03141 0.92172 0.0
H1127 H 0.83793 0.0424 0.89629 0.0
H1128 H 0.79483 0.96406 0.90458 0.0
H1129 H 0.88792 0.99118 0.84395 0.0
H1130 H 0.68509 0.9952 0.89874 0.0
H1131 H 0.72616 1.00687 0.92269 0.0
H1132 H 0.72073 0.97972 0.92209 0.0
H1133 H 0.79951 0.02844 0.82468 0.0
H1134 H 0.86939 0.02318 0.82617 0.0
H1135 H 0.83975 0.04027 0.84882 0.0
C1136 C 0.14808 1.0059 0.61006 0.0
C1137 C 0.16418 0.98831 0.62338 0.0
C1138 C 0.18103 0.02296 0.60864 0.0
C1139 C 0.23108 0.02255 0.62118 0.0
C1140 C 0.24724 1.00494 0.63503 0.0
C1141 C 0.21377 0.98798 0.63578 0.0
C1142 C 0.16261 0.0413 0.59333 0.0
C1143 C 0.29991 1.00401 0.64903 0.0
C1144 C 0.33627 0.05955 0.59765 0.0
C1145 C 0.33147 0.07523 0.61551 0.0
C1146 C 0.30399 0.04229 0.5993 0.0
C1147 C 0.2666 0.04052 0.61958 0.0
C1148 C 0.26229 0.05616 0.63796 0.0
C1149 C 0.29446 0.07339 0.63556 0.0
C1150 C 0.30924 0.02612 0.57906 0.0
C1151 C 0.22361 0.05472 0.66012 0.0
H1152 H 0.11015 1.00612 0.60012 0.0
H1153 H 0.22616 0.97449 0.64631 0.0
H1154 H 0.16163 0.05464 0.60612 0.0
H1155 H 0.19085 0.04474 0.57746 0.0
H1156 H 0.12267 0.03917 0.58463 0.0
H1157 H 0.30596 0.98941 0.65954 0.0
H1158 H 0.33239 1.00613 0.63489 0.0
H1159 H 0.3029 1.01643 0.66323 0.0
H1160 H 0.36443 0.06102 0.58197 0.0
H1161 H 0.29114 0.08537 0.6496 0.0
H1162 H 0.27111 0.02425 0.56852 0.0
H1163 H 0.31866 1.01142 0.5886 0.0
H1164 H 0.34048 0.0297 0.56465 0.0
H1165 H 0.18266 0.05392 0.65232 0.0
H1166 H 0.22654 0.06782 0.67334 0.0
H1167 H 0.23071 0.04068 0.67165 0.0
C1168 C 0.79547 0.46771 0.08239 0.0
C1169 C 0.84893 0.47089 0.07644 0.0
C1170 C 0.7595 0.48385 0.08286 0.0
C1171 C 0.77729 0.50372 0.07726 0.0
C1172 C 0.83149 0.50712 0.07203 0.0
C1173 C 0.86656 0.49069 0.07168 0.0
C1174 C 0.70205 0.47953 0.08839 0.0
C1175 C 0.85217 0.52805 0.06601 0.0
C1176 C 0.67891 0.54157 0.04883 0.0
C1177 C 0.66732 0.55353 0.07039 0.0
C1178 C 0.71421 0.52528 0.0509 0.0
C1179 C 0.73875 0.52073 0.07515 0.0
C1180 C 0.72699 0.53261 0.09708 0.0
C1181 C 0.69153 0.54888 0.09443 0.0
C1182 C 0.72583 0.51311 0.02697 0.0
C1183 C 0.75209 0.52818 0.1233 0.0
H1184 H 0.78117 0.45248 0.08571 0.0
H1185 H 0.90784 0.49331 0.06738 0.0
H1186 H 0.6877 0.48944 0.10405 0.0
H1187 H 0.67789 0.48287 0.07072 0.0
H1188 H 0.69524 0.46354 0.0943 0.0
H1189 H 0.89581 0.52833 0.06386 0.0
H1190 H 0.83391 0.53382 0.04765 0.0
H1191 H 0.8411 0.53856 0.08166 0.0
H1192 H 0.66136 0.5452 0.03006 0.0
H1193 H 0.68251 0.55791 0.11122 0.0
H1194 H 0.71666 0.49695 0.03068 0.0
H1195 H 0.7685 0.51415 0.02236 0.0
H1196 H 0.70273 0.51835 0.00967 0.0
H1197 H 0.743 0.51246 0.12953 0.0
H1198 H 0.73822 0.53862 0.13853 0.0
H1199 H 0.79569 0.52945 0.1219 0.0
C1200 C 0.26471 0.56303 0.45754 0.0
C1201 C 0.31904 0.5595 0.46047 0.0
C1202 C 0.22859 0.54692 0.45595 0.0
C1203 C 0.2474 0.52677 0.45653 0.0
C1204 C 0.30233 0.52314 0.45964 0.0
C1205 C 0.33737 0.53956 0.46194 0.0
C1206 C 0.17034 0.5515 0.45341 0.0
C1207 C 0.32428 0.50195 0.45975 0.0
C1208 C 0.15238 0.483 0.4699 0.0
C1209 C 0.13862 0.47717 0.44461 0.0
C1210 C 0.18718 0.49928 0.47414 0.0
C1211 C 0.20994 0.50956 0.45257 0.0
C1212 C 0.1968 0.50343 0.427 0.0
C1213 C 0.16087 0.4875 0.42335 0.0
C1214 C 0.19916 0.50561 0.50168 0.0
C1215 C 0.22116 0.51354 0.40345 0.0
H1216 H 0.25048 0.57845 0.45678 0.0
H1217 H 0.37942 0.53687 0.46406 0.0
H1218 H 0.15551 0.54659 0.43412 0.0
H1219 H 0.14793 0.54296 0.46844 0.0
H1220 H 0.1618 0.56784 0.45545 0.0
H1221 H 0.36779 0.50167 0.46279 0.0
H1222 H 0.30556 0.49271 0.47531 0.0
H1223 H 0.31489 0.49466 0.44094 0.0
H1224 H 0.1351 0.47503 0.48631 0.0
H1225 H 0.15104 0.48276 0.40379 0.0
H1226 H 0.18882 0.52175 0.50408 0.0
H1227 H 0.24207 0.50411 0.50582 0.0
H1228 H 0.17713 0.49646 0.51628 0.0
H1229 H 0.21037 0.52976 0.40276 0.0
H1230 H 0.20816 0.50653 0.38493 0.0
H1231 H 0.26489 0.51269 0.40482 0.0
C1232 C 0.35397 0.49065 0.8791 0.0
C1233 C 0.33773 0.47383 0.89385 0.0
C1234 C 0.32273 0.50814 0.87734 0.0
C1235 C 0.27464 0.50903 0.8912 0.0
C1236 C 0.25842 0.49215 0.90643 0.0
C1237 C 0.28984 0.47465 0.90729 0.0
C1238 C 0.34087 0.52557 0.86038 0.0
C1239 C 0.20809 0.49261 0.92196 0.0
C1240 C 0.2195 0.56135 0.90448 0.0
C1241 C 0.17868 0.56289 0.88594 0.0
C1242 C 0.25044 0.54379 0.90672 0.0
C1243 C 0.24119 0.52757 0.88956 0.0
C1244 C 0.20034 0.52917 0.87059 0.0
C1245 C 0.16919 0.54671 0.86924 0.0
C1246 C 0.29276 0.54254 0.92759 0.0
C1247 C 0.18997 0.51247 0.85151 0.0
H1248 H 0.39067 0.48992 0.86846 0.0
H1249 H 0.27755 0.4617 0.91886 0.0
H1250 H 0.31031 0.52909 0.84537 0.0
H1251 H 0.34616 0.53927 0.87229 0.0
H1252 H 0.37869 0.52233 0.85046 0.0
H1253 H 0.20193 0.47849 0.93348 0.0
H1254 H 0.209 0.50554 0.93546 0.0
H1255 H 0.17367 0.49485 0.90872 0.0
H1256 H 0.22643 0.57377 0.9176 0.0
H1257 H 0.13797 0.54798 0.85474 0.0
H1258 H 0.33205 0.54066 0.91855 0.0
H1259 H 0.2859 0.52911 0.94028 0.0
H1260 H 0.29384 0.55619 0.9399 0.0
H1261 H 0.22624 0.50944 0.84023 0.0
H1262 H 0.15735 0.51621 0.83766 0.0
H1263 H 0.17969 0.49832 0.86212 0.0
C1264 C 0.84864 0.5566 0.61262 0.0
C1265 C 0.84051 0.57333 0.62851 0.0
C1266 C 0.81504 0.53971 0.61391 0.0
C1267 C 0.77268 0.53943 0.63177 0.0
C1268 C 0.76513 0.55607 0.64832 0.0
C1269 C 0.7989 0.57286 0.64637 0.0
C1270 C 0.82399 0.52239 0.59567 0.0
C1271 C 0.7209 0.55627 0.66786 0.0
C1272 C 0.65337 0.50641 0.61716 0.0
C1273 C 0.66316 0.48934 0.63293 0.0
C1274 C 0.68874 0.52275 0.61656 0.0
C1275 C 0.73488 0.52214 0.63235 0.0
C1276 C 0.74475 0.50505 0.64854 0.0
C1277 C 0.70895 0.48879 0.6485 0.0
C1278 C 0.67707 0.54056 0.59874 0.0
C1279 C 0.79312 0.50395 0.66591 0.0
H1280 H 0.88036 0.55699 0.5986 0.0
H1281 H 0.79293 0.58564 0.65893 0.0
H1282 H 0.82842 0.50806 0.6069 0.0
H1283 H 0.78915 0.52065 0.58262 0.0
H1284 H 0.85965 0.52465 0.5835 0.0
H1285 H 0.72212 0.56987 0.68025 0.0
H1286 H 0.68222 0.55585 0.65755 0.0
H1287 H 0.72309 0.54263 0.68062 0.0
H1288 H 0.61859 0.50677 0.60472 0.0
H1289 H 0.71647 0.47569 0.66083 0.0
H1290 H 0.70981 0.54269 0.58473 0.0
H1291 H 0.67436 0.55456 0.61023 0.0
H1292 H 0.6396 0.53864 0.58761 0.0
H1293 H 0.82935 0.50491 0.65395 0.0
H1294 H 0.79456 0.48978 0.67772 0.0
H1295 H 0.79379 0.51697 0.67927 0.0
C1296 C 0.9077 0.29425 0.07127 0.0
C1297 C 0.94163 0.311 0.07075 0.0
C1298 C 0.92729 0.27455 0.06924 0.0
C1299 C 0.98238 0.27146 0.06691 0.0
C1300 C 0.0164 0.28841 0.0643 0.0
C1301 C 0.99552 0.30803 0.06613 0.0
C1302 C 0.88937 0.25701 0.07171 0.0
C1303 C 0.07534 0.28584 0.06177 0.0
C1304 C 0.03446 0.22457 0.10179 0.0
C1305 C 0.04304 0.21122 0.08128 0.0
C1306 C 0.01579 0.24422 0.0972 0.0
C1307 C 0.00463 0.25082 0.0714 0.0
C1308 C 0.01271 0.23745 0.05052 0.0
C1309 C 0.03188 0.2178 0.05569 0.0
C1310 C 0.0075 0.25789 0.12013 0.0
C1311 C 1.00099 0.24388 0.02278 0.0
H1312 H 0.86589 0.29658 0.07448 0.0
H1313 H 0.02184 0.32095 0.06584 0.0
H1314 H 0.89786 0.24544 0.05693 0.0
H1315 H 0.8943 0.24975 0.09118 0.0
H1316 H 0.84755 0.26186 0.06946 0.0
H1317 H 0.09511 0.30014 0.05579 0.0
H1318 H 0.0922 0.28084 0.08081 0.0
H1319 H 0.08456 0.27404 0.0474 0.0
H1320 H 0.04174 0.21961 0.12166 0.0
H1321 H 0.03874 0.20772 0.03967 0.0
H1322 H 0.96514 0.262 0.12144 0.0
H1323 H 0.0302 0.2721 0.11743 0.0
H1324 H 0.01991 0.25071 0.13888 0.0
H1325 H 0.9587 0.24805 0.02069 0.0
H1326 H 0.00992 0.23181 0.00869 0.0
H1327 H 0.02452 0.25748 0.01763 0.0
C1328 C 0.43253 0.79601 0.07695 0.0
C1329 C 0.4649 0.81276 0.07172 0.0
C1330 C 0.45102 0.77625 0.07381 0.0
C1331 C 0.50352 0.7731 0.0655 0.0
C1332 C 0.53504 0.78998 0.05826 0.0
C1333 C 0.51521 0.80965 0.06135 0.0
C1334 C 0.41569 0.75879 0.08147 0.0
C1335 C 0.59117 0.78733 0.0493 0.0
C1336 C 0.57068 0.728 0.09761 0.0
C1337 C 0.56982 0.7135 0.07792 0.0
C1338 C 0.55043 0.74744 0.09346 0.0
C1339 C 0.52787 0.7527 0.06901 0.0
C1340 C 0.52647 0.73821 0.04894 0.0
C1341 C 0.54742 0.71874 0.05364 0.0
C1342 C 0.55239 0.76227 0.11557 0.0
C1343 C 0.5025 0.74323 0.02266 0.0
H1344 H 0.39321 0.7984 0.08448 0.0
H1345 H 0.54027 0.82258 0.05729 0.0
H1346 H 0.41759 0.74665 0.06687 0.0
H1347 H 0.42942 0.75231 0.10038 0.0
H1348 H 0.37386 0.76353 0.08354 0.0
H1349 H 0.60719 0.8014 0.04033 0.0
H1350 H 0.61655 0.78312 0.06625 0.0
H1351 H 0.59375 0.77497 0.03503 0.0
H1352 H 0.58641 0.72407 0.11667 0.0
H1353 H 0.54666 0.70771 0.03828 0.0
H1354 H 0.51166 0.76642 0.12123 0.0
H1355 H 0.57274 0.77633 0.10927 0.0
H1356 H 0.57325 0.75607 0.13304 0.0
H1357 H 0.46004 0.74692 0.02484 0.0
H1358 H 0.50608 0.73057 0.00883 0.0
H1359 H 0.52202 0.75677 0.01417 0.0
C1360 C 0.49268 0.81184 0.43927 0.0
C1361 C 0.545 0.81507 0.44738 0.0
C1362 C 0.47308 0.79214 0.43562 0.0
C1363 C 0.50691 0.77531 0.43972 0.0
C1364 C 0.56008 0.77858 0.44739 0.0
C1365 C 0.57828 0.79836 0.4513 0.0
C1366 C 0.416 0.78932 0.42772 0.0
C1367 C 0.59787 0.76117 0.45143 0.0
C1368 C 0.44947 0.7227 0.45219 0.0
C1369 C 0.45161 0.71425 0.42735 0.0
C1370 C 0.4666 0.74265 0.45646 0.0
C1371 C 0.48724 0.75429 0.43548 0.0
C1372 C 0.49033 0.74566 0.41049 0.0
C1373 C 0.47221 0.72585 0.40672 0.0
C1374 C 0.46213 0.75134 0.48335 0.0
C1375 C 0.51307 0.75731 0.38771 0.0
H1376 H 0.46672 0.82469 0.43651 0.0
H1377 H 0.61893 0.80081 0.45725 0.0
H1378 H 0.41357 0.78136 0.40889 0.0
H1379 H 0.39554 0.77973 0.4424 0.0
H1380 H 0.39461 0.80389 0.42572 0.0
H1381 H 0.63815 0.76629 0.45708 0.0
H1382 H 0.5829 0.75082 0.46685 0.0
H1383 H 0.60066 0.75235 0.4333 0.0
H1384 H 0.43312 0.71388 0.46811 0.0
H1385 H 0.47466 0.7193 0.38756 0.0
H1386 H 0.43771 0.76524 0.48254 0.0
H1387 H 0.50181 0.7557 0.49072 0.0
H1388 H 0.44417 0.74051 0.49743 0.0
H1389 H 0.49002 0.77132 0.38413 0.0
H1390 H 0.51301 0.74839 0.36956 0.0
H1391 H 0.5543 0.76191 0.39221 0.0
C1392 C 0.0685 0.30104 0.45607 0.0
C1393 C 0.03589 0.31791 0.4518 0.0
C1394 C 0.05045 0.28139 0.45125 0.0
C1395 C 0.99825 0.27839 0.44195 0.0
C1396 C 0.965 0.29534 0.43755 0.0
C1397 C 0.98431 0.31491 0.44239 0.0
C1398 C 0.08755 0.26382 0.45582 0.0
C1399 C 0.90904 0.29279 0.42775 0.0
C1400 C 0.97087 0.23011 0.40498 0.0
C1401 C 0.94729 0.21771 0.42401 0.0
C1402 C 0.98711 0.24987 0.41052 0.0
C1403 C 0.97954 0.25758 0.43576 0.0
C1404 C 0.95593 0.24515 0.45516 0.0
C1405 C 0.94035 0.22531 0.44909 0.0
C1406 C 0.01287 0.26242 0.38937 0.0
C1407 C 0.94703 0.25284 0.48228 0.0
H1408 H 0.10868 0.30323 0.46291 0.0
H1409 H 0.95877 0.32784 0.43929 0.0
H1410 H 0.06989 0.25286 0.46976 0.0
H1411 H 0.09382 0.25577 0.43731 0.0
H1412 H 0.1266 0.26867 0.46358 0.0
H1413 H 0.88771 0.3074 0.42607 0.0
H1414 H 0.90919 0.28562 0.40835 0.0
H1415 H 0.88688 0.2826 0.44108 0.0
H1416 H 0.9773 0.22425 0.3857 0.0
H1417 H 0.92181 0.21589 0.4638 0.0
H1418 H 0.05346 0.26672 0.3955 0.0
H1419 H 0.9904 0.2766 0.38605 0.0
H1420 H 0.01521 0.25429 0.37064 0.0
H1421 H 0.9854 0.25692 0.49141 0.0
H1422 H 0.92701 0.2415 0.49495 0.0
H1423 H 0.92263 0.26673 0.48138 0.0
C1424 C 0.926 0.79954 0.8972 0.0
C1425 C 0.94032 0.81596 0.88126 0.0
C1426 C 0.95435 0.78137 0.89676 0.0
C1427 C 0.99743 0.77944 0.87955 0.0
C1428 C 0.01154 0.79589 0.8631 0.0
C1429 C 0.98313 0.81404 0.86437 0.0
C1430 C 0.93875 0.76435 0.91501 0.0
C1431 C 0.05657 0.7943 0.84415 0.0
C1432 C 0.10181 0.74003 0.89591 0.0
C1433 C 0.08555 0.72379 0.88058 0.0
C1434 C 0.07358 0.75824 0.8957 0.0
C1435 C 0.02854 0.76039 0.87935 0.0
C1436 C 0.01259 0.74416 0.86337 0.0
C1437 C 0.041 0.72596 0.8644 0.0
C1438 C 0.09128 0.775 0.91341 0.0
C1439 C 0.96543 0.74601 0.8453 0.0
H1440 H 0.89323 0.80112 0.91045 0.0
H1441 H 0.99376 0.82667 0.85182 0.0
H1442 H 0.92872 0.75068 0.90374 0.0
H1443 H 0.97252 0.76038 0.92802 0.0
H1444 H 0.90436 0.76829 0.92722 0.0
H1445 H 0.06108 0.80818 0.83197 0.0
H1446 H 0.09413 0.79155 0.8549 0.0
H1447 H 0.05004 0.78127 0.83117 0.0
H1448 H 0.13588 0.73824 0.90865 0.0
H1449 H 0.0288 0.71346 0.85234 0.0
H1450 H 0.05919 0.77868 0.92713 0.0
H1451 H 0.09963 0.78888 0.90181 0.0
H1452 H 0.12726 0.77094 0.92485 0.0
H1453 H 0.92909 0.74841 0.85677 0.0
H1454 H 0.95983 0.73238 0.83322 0.0
H1455 H 0.97016 0.75934 0.8322 0.0
C1456 C 0.58189 0.23642 0.86569 0.0
C1457 C 0.56325 0.21932 0.8792 0.0
C1458 C 0.55384 0.25466 0.86567 0.0
C1459 C 0.50593 0.2559 0.87957 0.0
C1460 C 0.4866 0.23867 0.89309 0.0
C1461 C 0.51543 0.22055 0.89268 0.0
C1462 C 0.57561 0.27263 0.85083 0.0
C1463 C 0.43581 0.23943 0.90823 0.0
C1464 C 0.46215 0.30849 0.89867 0.0
C1465 C 0.42451 0.31311 0.87929 0.0
C1466 C 0.48821 0.28979 0.89929 0.0
C1467 C 0.47646 0.27534 0.88002 0.0
C1468 C 0.43805 0.2798 0.86058 0.0
C1469 C 0.41252 0.29861 0.86047 0.0
C1470 C 0.52874 0.28557 0.92042 0.0
C1471 C 0.42466 0.26485 0.83959 0.0
H1472 H 0.61833 0.23548 0.85488 0.0
H1473 H 0.50112 0.20746 0.90336 0.0
H1474 H 0.5463 0.27797 0.8361 0.0
H1475 H 0.58297 0.28528 0.86433 0.0
H1476 H 0.61308 0.2691 0.84077 0.0
H1477 H 0.42589 0.22466 0.91749 0.0
H1478 H 0.43904 0.25094 0.92365 0.0
H1479 H 0.40269 0.24403 0.89516 0.0
H1480 H 0.47099 0.31946 0.91353 0.0
H1481 H 0.38395 0.30213 0.84527 0.0
H1482 H 0.56804 0.28316 0.91159 0.0
H1483 H 0.5183 0.27153 0.93124 0.0
H1484 H 0.53202 0.29812 0.93448 0.0
H1485 H 0.46017 0.26188 0.82773 0.0
H1486 H 0.3925 0.27033 0.82645 0.0
H1487 H 0.41236 0.25025 0.8485 0.0
C1488 C 0.4071 0.25081 0.64587 0.0
C1489 C 0.41875 0.23614 0.62734 0.0
C1490 C 0.43216 0.26976 0.6454 0.0
C1491 C 0.46982 0.2742 0.62591 0.0
C1492 C 0.48121 0.25958 0.60691 0.0
C1493 C 0.45559 0.24075 0.60786 0.0
C1494 C 0.41912 0.28488 0.66611 0.0
C1495 C 0.521 0.26373 0.58575 0.0
C1496 C 0.50794 0.32907 0.61255 0.0
C1497 C 0.55606 0.33059 0.62616 0.0
C1498 C 0.4793 0.31084 0.61231 0.0
C1499 C 0.49912 0.29376 0.62611 0.0
C1500 C 0.54734 0.29528 0.64012 0.0
C1501 C 0.57513 0.31363 0.63997 0.0
C1502 C 0.4281 0.3098 0.59708 0.0
C1503 C 0.56971 0.27749 0.65526 0.0
H1504 H 0.37919 0.24733 0.66115 0.0
H1505 H 0.46419 0.22966 0.59321 0.0
H1506 H 0.45488 0.28803 0.67804 0.0
H1507 H 0.40654 0.29937 0.65695 0.0
H1508 H 0.38728 0.27945 0.67923 0.0
H1509 H 0.52396 0.25108 0.57188 0.0
H1510 H 0.51007 0.27765 0.57473 0.0
H1511 H 0.56056 0.26634 0.59458 0.0
H1512 H 0.49319 0.34203 0.60167 0.0
H1513 H 0.6117 0.31474 0.65095 0.0
H1514 H 0.3954 0.3052 0.61015 0.0
H1515 H 0.43105 0.29817 0.58183 0.0
H1516 H 0.41776 0.32447 0.58762 0.0
H1517 H 0.54092 0.27223 0.67005 0.0
H1518 H 0.6075 0.2812 0.66529 0.0
H1519 H 0.5767 0.26474 0.64196 0.0
C1520 C 0.97439 0.73714 0.64357 0.0
C1521 C 0.92743 0.73425 0.6295 0.0
C1522 C 1.00055 0.75588 0.64298 0.0
C1523 C 0.98001 0.77185 0.62729 0.0
C1524 C 0.93271 0.76889 0.61289 0.0
C1525 C 0.90661 0.75021 0.61448 0.0
C1526 C 0.0501 0.75858 0.65914 0.0
C1527 C 0.91033 0.7853 0.59533 0.0
C1528 C 0.02279 0.82608 0.63944 0.0
C1529 C 0.064 0.82844 0.62164 0.0
C1530 C 0.99549 0.80765 0.64177 0.0
C1531 C 0.00877 0.79146 0.62531 0.0
C1532 C 0.04958 0.79402 0.60684 0.0
C1533 C 0.07725 0.81238 0.60553 0.0
C1534 C 0.95323 0.80538 0.66217 0.0
C1535 C 0.0639 0.77739 0.58839 0.0
H1536 H 0.9901 0.7248 0.65534 0.0
H1537 H 0.87057 0.74782 0.60339 0.0
H1538 H 0.08422 0.76161 0.64625 0.0
H1539 H 0.04587 0.77182 0.67195 0.0
H1540 H 0.05916 0.74507 0.67144 0.0
H1541 H 0.87334 0.78053 0.58534 0.0
H1542 H 0.90194 0.79899 0.60676 0.0
H1543 H 0.93979 0.78961 0.58036 0.0
H1544 H 0.01314 0.83849 0.65207 0.0
H1545 H 0.10896 0.81436 0.59168 0.0
H1546 H 0.96326 0.79266 0.6756 0.0
H1547 H 0.9148 0.8017 0.65281 0.0
H1548 H 0.94839 0.81928 0.67376 0.0
H1549 H 0.07816 0.76398 0.59954 0.0
H1550 H 0.09507 0.7821 0.57446 0.0
H1551 H 0.02841 0.77265 0.57718 0.0
C1552 C 0.06853 0.12079 0.20315 0.0
C1553 C 0.0317 0.11283 0.18545 0.0
C1554 C 0.05909 0.12043 0.23002 0.0
C1555 C 0.01183 0.11171 0.23954 0.0
C1556 C 0.97495 0.10325 0.22182 0.0
C1557 C 0.9851 0.10408 0.19494 0.0
C1558 C 0.09891 0.13 0.24814 0.0
C1559 C 0.92435 0.09365 0.23124 0.0
C1560 C 0.00375 0.09912 0.31215 0.0
C1561 C 0.97436 0.11546 0.32114 0.0
C1562 C 0.01602 0.09755 0.28555 0.0
C1563 C 0.99924 0.11288 0.26778 0.0
C1564 C 0.97071 0.12964 0.277 0.0
C1565 C 0.95839 0.13065 0.30349 0.0
C1566 C 0.04613 0.07939 0.27639 0.0
C1567 C 0.95298 0.14652 0.25888 0.0
H1568 H 0.10427 0.12785 0.19588 0.0
H1569 H 0.95674 0.09781 0.18132 0.0
H1570 H 0.08073 0.14313 0.2578 0.0
H1571 H 0.11089 0.11911 0.26369 0.0
H1572 H 0.13487 0.13525 0.23778 0.0
H1573 H 0.90173 0.08643 0.21523 0.0
H1574 H 0.93313 0.08208 0.2465 0.0
H1575 H 0.89898 0.10525 0.24018 0.0
H1576 H 0.01583 0.08733 0.32578 0.0
H1577 H 0.93613 0.14341 0.3105 0.0
H1578 H 0.08318 0.08426 0.26676 0.0
H1579 H 0.02224 0.07119 0.2617 0.0
H1580 H 0.05626 0.06878 0.29262 0.0
H1581 H 0.9876 0.1532 0.24881 0.0
H1582 H 0.93209 0.15869 0.26928 0.0
H1583 H 0.92611 0.14049 0.24367 0.0
C1584 C 0.54856 0.88945 0.1941 0.0
C1585 C 0.51091 0.90355 0.18494 0.0
C1586 C 0.56325 0.88831 0.22051 0.0
C1587 C 0.53797 0.90085 0.23862 0.0
C1588 C 0.50029 0.91518 0.2297 0.0
C1589 C 0.48823 0.91668 0.20299 0.0
C1590 C 0.60511 0.87335 0.22908 0.0
C1591 C 0.47133 0.92847 0.24848 0.0
C1592 C 0.531 0.88155 0.30855 0.0
C1593 C 0.5665 0.8944 0.32152 0.0
C1594 C 0.52096 0.88366 0.28173 0.0
C1595 C 0.54899 0.89832 0.26704 0.0
C1596 C 0.58675 0.91069 0.27959 0.0
C1597 C 0.59418 0.90891 0.30668 0.0
C1598 C 0.47938 0.87047 0.26923 0.0
C1599 C 0.61901 0.92596 0.26444 0.0
H1600 H 0.5659 0.87882 0.18088 0.0
H1601 H 0.46034 0.92806 0.19641 0.0
H1602 H 0.63487 0.88077 0.24177 0.0
H1603 H 0.58681 0.86097 0.24065 0.0
H1604 H 0.62575 0.86662 0.2123 0.0
H1605 H 0.44256 0.93865 0.23847 0.0
H1606 H 0.44975 0.91895 0.26283 0.0
H1607 H 0.49983 0.93782 0.25955 0.0
H1608 H 0.51042 0.86983 0.31933 0.0
H1609 H 0.62103 0.91927 0.31615 0.0
H1610 H 0.49751 0.86095 0.25416 0.0
H1611 H 0.44909 0.88004 0.25935 0.0
H1612 H 0.45934 0.86045 0.28359 0.0
H1613 H 0.63768 0.9187 0.2475 0.0
H1614 H 0.65046 0.93294 0.27658 0.0
H1615 H 0.59295 0.93812 0.25672 0.0
C1616 C 0.91335 0.90956 0.79322 0.0
C1617 C 0.93203 0.89478 0.81069 0.0
C1618 C 0.93544 0.91164 0.76826 0.0
C1619 C 0.97607 0.8983 0.76057 0.0
C1620 C 0.99288 0.88269 0.77782 0.0
C1621 C 0.97124 0.88134 0.8028 0.0
C1622 C 0.91708 0.92866 0.75058 0.0
C1623 C 0.0348 0.86775 0.77017 0.0
C1624 C 0.00495 0.89349 0.6885 0.0
C1625 C 0.05173 0.90471 0.68596 0.0
C1626 C 0.98013 0.89118 0.71266 0.0
C1627 C 1.00182 0.90079 0.73473 0.0
C1628 C 0.04899 0.91226 0.73226 0.0
C1629 C 0.07388 0.91384 0.7079 0.0
C1630 C 0.93102 0.87827 0.71459 0.0
C1631 C 0.07287 0.92298 0.75528 0.0
H1632 H 0.88375 0.92017 0.79959 0.0
H1633 H 0.98571 0.86995 0.81646 0.0
H1634 H 0.95055 0.93909 0.74665 0.0
H1635 H 0.9037 0.92267 0.73158 0.0
H1636 H 0.88427 0.9374 0.75916 0.0
H1637 H 0.04033 0.85558 0.78504 0.0
H1638 H 0.0242 0.86075 0.75132 0.0
H1639 H 0.07306 0.87566 0.76748 0.0
H1640 H 0.98804 0.88623 0.67156 0.0
H1641 H 0.10984 0.92262 0.70589 0.0
H1642 H 0.89741 0.88744 0.72144 0.0
H1643 H 0.93735 0.86593 0.72911 0.0
H1644 H 0.91987 0.87147 0.69566 0.0
H1645 H 0.04319 0.93318 0.76388 0.0
H1646 H 0.10828 0.932 0.74989 0.0
H1647 H 0.08441 0.91183 0.77059 0.0
C1648 C 0.53123 0.12573 0.80303 0.0
C1649 C 0.5701 0.13978 0.81003 0.0
C1650 C 0.50642 0.12659 0.7785 0.0
C1651 C 0.51951 0.14234 0.76078 0.0
C1652 C 0.55942 0.15646 0.76766 0.0
C1653 C 0.58475 0.15486 0.79217 0.0
C1654 C 0.46545 0.11086 0.77177 0.0
C1655 C 0.57388 0.17367 0.74952 0.0
C1656 C 0.48693 0.13637 0.68886 0.0
C1657 C 0.43894 0.1468 0.6863 0.0
C1658 C 0.513 0.13454 0.713 0.0
C1659 C 0.49146 0.14391 0.73509 0.0
C1660 C 0.44274 0.15442 0.73265 0.0
C1661 C 0.41659 0.15549 0.7083 0.0
C1662 C 0.56374 0.12261 0.71483 0.0
C1663 C 0.41895 0.16495 0.75561 0.0
H1664 H 0.51961 0.11417 0.81701 0.0
H1665 H 0.61394 0.16599 0.79788 0.0
H1666 H 0.42624 0.1181 0.76921 0.0
H1667 H 0.47537 0.10367 0.75305 0.0
H1668 H 0.46226 0.09889 0.78706 0.0
H1669 H 0.60581 0.1833 0.75766 0.0
H1670 H 0.58696 0.16776 0.73055 0.0
H1671 H 0.53858 0.18321 0.74563 0.0
H1672 H 0.5042 0.12959 0.67183 0.0
H1673 H 0.37989 0.1638 0.70624 0.0
H1674 H 0.56018 0.11053 0.7299 0.0
H1675 H 0.59674 0.13259 0.72085 0.0
H1676 H 0.57411 0.11557 0.69605 0.0
H1677 H 0.41084 0.15386 0.77146 0.0
H1678 H 0.38156 0.17285 0.75041 0.0
H1679 H 0.44746 0.17613 0.76342 0.0
C1680 C 0.43408 0.62248 0.31011 0.0
C1681 C 0.47448 0.61749 0.32793 0.0
C1682 C 0.44277 0.62225 0.28319 0.0
C1683 C 0.49296 0.61663 0.2738 0.0
C1684 C 0.53375 0.61128 0.2917 0.0
C1685 C 0.52418 0.61198 0.31861 0.0
C1686 C 0.39863 0.62852 0.26483 0.0
C1687 C 0.58761 0.60499 0.28241 0.0
C1688 C 0.50415 0.60163 0.20267 0.0
C1689 C 0.52596 0.61915 0.19159 0.0
C1690 C 0.49321 0.60052 0.22948 0.0
C1691 C 0.50355 0.61747 0.24532 0.0
C1692 C 0.52404 0.63539 0.23394 0.0
C1693 C 0.53534 0.63594 0.20728 0.0
C1694 C 0.47183 0.58111 0.24097 0.0
C1695 C 0.53458 0.65394 0.24997 0.0
H1696 H 0.39581 0.62704 0.3173 0.0
H1697 H 0.55533 0.60804 0.33237 0.0
H1698 H 0.41064 0.64214 0.25352 0.0
H1699 H 0.39054 0.6164 0.25066 0.0
H1700 H 0.36148 0.63193 0.27526 0.0
H1701 H 0.61402 0.60016 0.29872 0.0
H1702 H 0.5837 0.59237 0.26854 0.0
H1703 H 0.60662 0.61774 0.27183 0.0
H1704 H 0.49738 0.58859 0.19055 0.0
H1705 H 0.55196 0.64954 0.19862 0.0
H1706 H 0.43377 0.58395 0.25081 0.0
H1707 H 0.49976 0.57514 0.25596 0.0
H1708 H 0.46548 0.56938 0.22601 0.0
H1709 H 0.49803 0.65854 0.26006 0.0
H1710 H 0.54882 0.66688 0.23795 0.0
H1711 H 0.56472 0.6505 0.2652 0.0
C1712 C 0.09669 0.37826 0.31201 0.0
C1713 C 0.06635 0.3912 0.32733 0.0
C1714 C 0.09329 0.37907 0.28462 0.0
C1715 C 0.05765 0.39271 0.2723 0.0
C1716 C 0.02836 0.40623 0.28758 0.0
C1717 C 0.03389 0.40558 0.31473 0.0
C1718 C 0.12661 0.36489 0.26894 0.0
C1719 C 0.98926 0.42083 0.27535 0.0
C1720 C 0.05361 0.40662 0.20015 0.0
C1721 C 0.01244 0.39419 0.19118 0.0
C1722 C 0.07152 0.40534 0.22616 0.0
C1723 C 0.04672 0.39175 0.24377 0.0
C1724 C 0.00684 0.3786 0.23457 0.0
C1725 C 0.99103 0.37972 0.20839 0.0
C1726 C 0.11549 0.41912 0.23501 0.0
C1727 C 0.97866 0.36409 0.25269 0.0
H1728 H 0.12203 0.3671 0.32133 0.0
H1729 H 0.01186 0.41626 0.32613 0.0
H1730 H 0.1013 0.3528 0.26082 0.0
H1731 H 0.14492 0.37306 0.25229 0.0
H1732 H 0.15833 0.35772 0.28094 0.0
H1733 H 0.97016 0.43057 0.28996 0.0
H1734 H 0.00921 0.43067 0.26081 0.0
H1735 H 0.95795 0.41233 0.2649 0.0
H1736 H 0.07072 0.41783 0.18719 0.0
H1737 H 0.96072 0.36946 0.20155 0.0
H1738 H 0.14423 0.41073 0.2475 0.0
H1739 H 0.09889 0.43143 0.24683 0.0
H1740 H 0.13684 0.42604 0.21831 0.0
H1741 H 0.00756 0.35425 0.26307 0.0
H1742 H 0.94987 0.35436 0.24226 0.0
H1743 H 0.95712 0.37269 0.26765 0.0
C1744 C 0.41395 0.41317 0.80197 0.0
C1745 C 0.43469 0.39948 0.82033 0.0
C1746 C 0.43692 0.41527 0.77717 0.0
C1747 C 0.48044 0.40292 0.77049 0.0
C1748 C 0.50014 0.38861 0.78881 0.0
C1749 C 0.47756 0.3873 0.81359 0.0
C1750 C 0.41549 0.43097 0.75833 0.0
C1751 C 0.54513 0.37466 0.78227 0.0
C1752 C 0.50773 0.39456 0.69885 0.0
C1753 C 0.55248 0.40665 0.6947 0.0
C1754 C 0.4842 0.39312 0.72342 0.0
C1755 C 0.5049 0.40456 0.74422 0.0
C1756 C 0.55008 0.4169 0.7401 0.0
C1757 C 0.57392 0.41755 0.71542 0.0
C1758 C 0.43742 0.37921 0.72714 0.0
C1759 C 0.57268 0.42962 0.76166 0.0
H1760 H 0.38121 0.42275 0.80733 0.0
H1761 H 0.49342 0.3766 0.8278 0.0
H1762 H 0.44743 0.44164 0.75273 0.0
H1763 H 0.40139 0.42366 0.74026 0.0
H1764 H 0.38235 0.43967 0.76667 0.0
H1765 H 0.55436 0.36382 0.79838 0.0
H1766 H 0.53518 0.36599 0.76455 0.0
H1767 H 0.5812 0.38359 0.77795 0.0
H1768 H 0.49129 0.38606 0.6828 0.0
H1769 H 0.6081 0.4271 0.71208 0.0
H1770 H 0.40249 0.38797 0.73328 0.0
H1771 H 0.44617 0.36799 0.74283 0.0
H1772 H 0.42697 0.37098 0.7091 0.0
H1773 H 0.54159 0.43966 0.76934 0.0
H1774 H 0.60646 0.43906 0.75502 0.0
H1775 H 0.5863 0.41979 0.77803 0.0
C1776 C 0.09869 0.63365 0.79613 0.0
C1777 C 0.08567 0.64744 0.81542 0.0
C1778 C 0.07291 0.63429 0.77166 0.0
C1779 C 0.03415 0.64932 0.76634 0.0
C1780 C 0.02285 0.6638 0.78551 0.0
C1781 C 0.04818 0.66249 0.80988 0.0
C1782 C 0.08564 0.61845 0.75186 0.0
C1783 C 0.98311 0.68042 0.78054 0.0
C1784 C 0.99997 0.66193 0.6957 0.0
C1785 C 0.95111 0.65219 0.69233 0.0
C1786 C 0.0271 0.6612 0.71964 0.0
C1787 C 0.00551 0.6501 0.74074 0.0
C1788 C 0.95594 0.6403 0.73753 0.0
C1789 C 0.92897 0.64165 0.7134 0.0
C1790 C 0.07892 0.67237 0.72233 0.0
C1791 C 0.93185 0.62812 0.75947 0.0
H1792 H 0.12683 0.62176 0.80065 0.0
H1793 H 0.03788 0.67308 0.82493 0.0
H1794 H 0.0496 0.60953 0.7474 0.0
H1795 H 0.09853 0.62573 0.7334 0.0
H1796 H 0.11715 0.60798 0.75881 0.0
H1797 H 0.98126 0.69118 0.79691 0.0
H1798 H 0.99321 0.68894 0.7625 0.0
H1799 H 0.94326 0.67381 0.77757 0.0
H1800 H 0.01713 0.67022 0.67949 0.0
H1801 H 0.89152 0.63395 0.71078 0.0
H1802 H 0.11105 0.66161 0.72738 0.0
H1803 H 0.07654 0.68334 0.7384 0.0
H1804 H 0.0898 0.68066 0.70419 0.0
H1805 H 0.95974 0.61614 0.76602 0.0
H1806 H 0.89388 0.62096 0.75368 0.0
H1807 H 0.9247 0.63795 0.77637 0.0
loop_
_geom_bond_atom_site_label_1
_geom_bond_atom_site_label_2
_geom_bond_distance
_geom_bond_site_symmetry_2
_ccdc_geom_bond_type
Co0 N4 2.148 . S
Co0 N10 2.128 . S
Co0 N20 2.194 . S
Co0 O25 2.351 . S
Co0 O26 2.155 . S
Co0 O27 2.096 . S
C1 N4 1.301 . S
C1 N5 1.328 . S
C1 H6 0.930 . S
C2 C3 1.333 . S
C2 N4 1.317 . S
C2 H7 0.930 . S
C3 C2 1.333 . S
C3 N5 1.350 . S
C3 H29 0.931 . S
N4 Co0 2.148 . S
N4 C1 1.301 . S
N4 C2 1.317 . S
N5 C1 1.328 . S
N5 C3 1.350 . S
H6 C1 0.930 . S
H7 C2 0.930 . S
C8 O9 1.224 . S
C8 O27 1.247 1_655 S
O9 C8 1.224 . S
N10 Co0 2.128 . S
N10 C11 1.355 . S
N10 C13 1.311 . S
C11 N10 1.355 . S
C11 C12 1.363 . S
C11 H23 0.929 . S
C12 C11 1.363 . S
C12 N14 1.375 . S
C12 H30 0.931 . S
C13 N10 1.311 . S
C13 N14 1.347 . S
C13 H24 0.929 . S
N14 C12 1.375 . S
N14 C13 1.347 . S
C15 C18 1.365 . S
C15 N20 1.328 . S
C15 H21 0.929 . S
C16 C17 1.362 . S
C16 C19 1.378 . S
C16 H31 0.929 1_455 S
C17 C16 1.362 . S
C17 C18 1.366 . S
C18 C15 1.365 . S
C18 C17 1.366 . S
C18 H32 0.930 . S
C19 C16 1.378 . S
C19 N20 1.315 . S
C19 H22 0.930 1_455 S
N20 Co0 2.194 . S
N20 C15 1.328 . S
N20 C19 1.315 . S
H21 C15 0.929 . S
H22 C19 0.930 1_655 S
H23 C11 0.929 . S
H24 C13 0.929 . S
O25 Co0 2.351 . S
O25 C28 1.244 . S
O26 Co0 2.155 . S
O26 C28 1.240 . S
O27 Co0 2.096 . S
O27 C8 1.247 1_455 S
C28 O25 1.244 . S
C28 O26 1.240 . S
H29 C3 0.931 . S
H30 C12 0.931 . S
H31 C16 0.929 1_655 S
H32 C18 0.930 . S
Co33 N37 2.148 . S
Co33 N43 2.128 . S
Co33 N53 2.194 . S
Co33 O58 2.351 . S
Co33 O59 2.155 . S
Co33 O60 2.096 . S
C34 N37 1.301 . S
C34 N38 1.328 . S
C34 H39 0.930 . S
C35 C36 1.333 . S
C35 N37 1.317 . S
C35 H40 0.930 . S
C36 C35 1.333 . S
C36 N38 1.350 . S
C36 H62 0.931 . S
N37 Co33 2.148 . S
N37 C34 1.301 . S
N37 C35 1.317 . S
N38 C34 1.328 . S
N38 C36 1.350 . S
H39 C34 0.930 . S
H40 C35 0.930 . S
C41 O42 1.224 . S
C41 O60 1.247 . S
O42 C41 1.224 . S
N43 Co33 2.128 . S
N43 C44 1.355 . S
N43 C46 1.311 . S
C44 N43 1.355 . S
C44 C45 1.363 . S
C44 H56 0.929 . S
C45 C44 1.363 . S
C45 N47 1.375 . S
C45 H63 0.931 . S
C46 N43 1.311 . S
C46 N47 1.347 . S
C46 H57 0.929 . S
N47 C45 1.375 . S
N47 C46 1.347 . S
C48 C51 1.365 . S
C48 N53 1.328 . S
C48 H54 0.929 . S
C49 C50 1.362 . S
C49 C52 1.378 . S
C49 H64 0.929 . S
C50 C49 1.362 . S
C50 C51 1.366 . S
C51 C48 1.365 . S
C51 C50 1.366 . S
C51 H65 0.930 . S
C52 C49 1.378 . S
C52 N53 1.315 . S
C52 H55 0.930 . S
N53 Co33 2.194 . S
N53 C48 1.328 . S
N53 C52 1.315 . S
H54 C48 0.929 . S
H55 C52 0.930 . S
H56 C44 0.929 . S
H57 C46 0.929 . S
O58 Co33 2.351 . S
O58 C61 1.244 . S
O59 Co33 2.155 . S
O59 C61 1.240 . S
O60 Co33 2.096 . S
O60 C41 1.247 . S
C61 O58 1.244 . S
C61 O59 1.240 . S
H62 C36 0.931 . S
H63 C45 0.931 . S
H64 C49 0.929 . S
H65 C51 0.930 . S
Co66 N70 2.148 . S
Co66 N76 2.128 . S
Co66 N86 2.194 . S
Co66 O91 2.351 . S
Co66 O92 2.155 . S
Co66 O93 2.096 . S
C67 N70 1.301 . S
C67 N71 1.328 . S
C67 H72 0.930 . S
C68 C69 1.333 . S
C68 N70 1.317 . S
C68 H73 0.930 . S
C69 C68 1.333 . S
C69 N71 1.350 . S
C69 H95 0.931 . S
N70 Co66 2.148 . S
N70 C67 1.301 . S
N70 C68 1.317 . S
N71 C67 1.328 . S
N71 C69 1.350 . S
H72 C67 0.930 . S
H73 C68 0.930 . S
C74 O75 1.224 . S
C74 O93 1.247 . S
O75 C74 1.224 . S
N76 Co66 2.128 . S
N76 C77 1.355 . S
N76 C79 1.311 . S
C77 N76 1.355 . S
C77 C78 1.363 . S
C77 H89 0.929 . S
C78 C77 1.363 . S
C78 N80 1.375 . S
C78 H96 0.931 . S
C79 N76 1.311 . S
C79 N80 1.347 . S
C79 H90 0.929 . S
N80 C78 1.375 . S
N80 C79 1.347 . S
C81 C84 1.365 . S
C81 N86 1.328 . S
C81 H87 0.929 . S
C82 C83 1.362 . S
C82 C85 1.378 . S
C82 H97 0.929 . S
C83 C82 1.362 . S
C83 C84 1.366 . S
C84 C81 1.365 . S
C84 C83 1.366 . S
C84 H98 0.930 . S
C85 C82 1.378 . S
C85 N86 1.315 . S
C85 H88 0.930 . S
N86 Co66 2.194 . S
N86 C81 1.328 . S
N86 C85 1.315 . S
H87 C81 0.929 . S
H88 C85 0.930 . S
H89 C77 0.929 . S
H90 C79 0.929 . S
O91 Co66 2.351 . S
O91 C94 1.244 . S
O92 Co66 2.155 . S
O92 C94 1.240 . S
O93 Co66 2.096 . S
O93 C74 1.247 . S
C94 O91 1.244 . S
C94 O92 1.240 . S
H95 C69 0.931 . S
H96 C78 0.931 . S
H97 C82 0.929 . S
H98 C84 0.930 . S
Co99 N103 2.148 . S
Co99 N109 2.128 . S
Co99 N119 2.194 . S
Co99 O124 2.351 . S
Co99 O125 2.155 . S
Co99 O126 2.096 . S
C100 N103 1.301 . S
C100 N104 1.328 . S
C100 H105 0.930 . S
C101 C102 1.333 . S
C101 N103 1.317 . S
C101 H106 0.930 . S
C102 C101 1.333 . S
C102 N104 1.350 . S
C102 H128 0.931 . S
N103 Co99 2.148 . S
N103 C100 1.301 . S
N103 C101 1.317 . S
N104 C100 1.328 . S
N104 C102 1.350 . S
H105 C100 0.930 . S
H106 C101 0.930 . S
C107 O108 1.224 . S
C107 O126 1.247 1_455 S
O108 C107 1.224 . S
N109 Co99 2.128 . S
N109 C110 1.355 . S
N109 C112 1.311 . S
C110 N109 1.355 . S
C110 C111 1.363 . S
C110 H122 0.929 . S
C111 C110 1.363 . S
C111 N113 1.375 . S
C111 H129 0.931 . S
C112 N109 1.311 . S
C112 N113 1.347 . S
C112 H123 0.929 . S
N113 C111 1.375 . S
N113 C112 1.347 . S
C114 C117 1.365 . S
C114 N119 1.328 . S
C114 H120 0.929 . S
C115 C116 1.362 . S
C115 C118 1.378 . S
C115 H130 0.929 1_655 S
C116 C115 1.362 . S
C116 C117 1.366 . S
C117 C114 1.365 . S
C117 C116 1.366 . S
C117 H131 0.930 . S
C118 C115 1.378 . S
C118 N119 1.315 . S
C118 H121 0.930 1_655 S
N119 Co99 2.194 . S
N119 C114 1.328 . S
N119 C118 1.315 . S
H120 C114 0.929 . S
H121 C118 0.930 1_455 S
H122 C110 0.929 . S
H123 C112 0.929 . S
O124 Co99 2.351 . S
O124 C127 1.244 . S
O125 Co99 2.155 . S
O125 C127 1.240 . S
O126 Co99 2.096 . S
O126 C107 1.247 1_655 S
C127 O124 1.244 . S
C127 O125 1.240 . S
H128 C102 0.931 . S
H129 C111 0.931 . S
H130 C115 0.929 1_455 S
H131 C117 0.930 . S
Co132 N136 2.148 . S
Co132 N142 2.128 . S
Co132 N152 2.194 . S
Co132 O157 2.351 . S
Co132 O158 2.155 . S
Co132 O159 2.096 . S
C133 N136 1.301 . S
C133 N137 1.328 . S
C133 H138 0.930 . S
C134 C135 1.333 . S
C134 N136 1.317 . S
C134 H139 0.930 . S
C135 C134 1.333 . S
C135 N137 1.350 . S
C135 H161 0.931 . S
N136 Co132 2.148 . S
N136 C133 1.301 . S
N136 C134 1.317 . S
N137 C133 1.328 . S
N137 C135 1.350 . S
H138 C133 0.930 . S
H139 C134 0.930 . S
C140 O141 1.224 . S
C140 O159 1.247 . S
O141 C140 1.224 . S
N142 Co132 2.128 . S
N142 C143 1.355 . S
N142 C145 1.311 . S
C143 N142 1.355 . S
C143 C144 1.363 . S
C143 H155 0.929 . S
C144 C143 1.363 . S
C144 N146 1.375 . S
C144 H162 0.931 . S
C145 N142 1.311 . S
C145 N146 1.347 . S
C145 H156 0.929 . S
N146 C144 1.375 . S
N146 C145 1.347 . S
C147 C150 1.365 . S
C147 N152 1.328 1_455 S
C147 H153 0.929 . S
C148 C149 1.362 . S
C148 C151 1.378 1_455 S
C148 H163 0.929 . S
C149 C148 1.362 . S
C149 C150 1.366 . S
C150 C147 1.365 . S
C150 C149 1.366 . S
C150 H164 0.930 . S
C151 C148 1.378 1_655 S
C151 N152 1.315 . S
C151 H154 0.930 . S
N152 Co132 2.194 . S
N152 C147 1.328 1_655 S
N152 C151 1.315 . S
H153 C147 0.929 . S
H154 C151 0.930 . S
H155 C143 0.929 . S
H156 C145 0.929 . S
O157 Co132 2.351 . S
O157 C160 1.244 . S
O158 Co132 2.155 . S
O158 C160 1.240 . S
O159 Co132 2.096 . S
O159 C140 1.247 . S
C160 O157 1.244 . S
C160 O158 1.240 . S
H161 C135 0.931 . S
H162 C144 0.931 . S
H163 C148 0.929 . S
H164 C150 0.930 . S
Co165 N169 2.148 . S
Co165 N175 2.128 . S
Co165 N185 2.194 . S
Co165 O190 2.351 . S
Co165 O191 2.155 . S
Co165 O192 2.096 . S
C166 N169 1.301 . S
C166 N170 1.328 . S
C166 H171 0.930 . S
C167 C168 1.333 . S
C167 N169 1.317 . S
C167 H172 0.930 . S
C168 C167 1.333 . S
C168 N170 1.350 . S
C168 H194 0.931 . S
N169 Co165 2.148 . S
N169 C166 1.301 . S
N169 C167 1.317 . S
N170 C166 1.328 . S
N170 C168 1.350 . S
H171 C166 0.930 . S
H172 C167 0.930 . S
C173 O174 1.224 . S
C173 O192 1.247 . S
O174 C173 1.224 . S
N175 Co165 2.128 . S
N175 C176 1.355 . S
N175 C178 1.311 . S
C176 N175 1.355 . S
C176 C177 1.363 . S
C176 H188 0.929 . S
C177 C176 1.363 . S
C177 N179 1.375 . S
C177 H195 0.931 . S
C178 N175 1.311 . S
C178 N179 1.347 . S
C178 H189 0.929 . S
N179 C177 1.375 . S
N179 C178 1.347 . S
C180 C183 1.365 . S
C180 N185 1.328 . S
C180 H186 0.929 . S
C181 C182 1.362 . S
C181 C184 1.378 . S
C181 H196 0.929 . S
C182 C181 1.362 . S
C182 C183 1.366 . S
C183 C180 1.365 . S
C183 C182 1.366 . S
C183 H197 0.930 . S
C184 C181 1.378 . S
C184 N185 1.315 . S
C184 H187 0.930 . S
N185 Co165 2.194 . S
N185 C180 1.328 . S
N185 C184 1.315 . S
H186 C180 0.929 . S
H187 C184 0.930 . S
H188 C176 0.929 . S
H189 C178 0.929 . S
O190 Co165 2.351 . S
O190 C193 1.244 . S
O191 Co165 2.155 . S
O191 C193 1.240 . S
O192 Co165 2.096 . S
O192 C173 1.247 . S
C193 O190 1.244 . S
C193 O191 1.240 . S
H194 C168 0.931 . S
H195 C177 0.931 . S
H196 C181 0.929 . S
H197 C183 0.930 . S
Co198 N202 2.148 . S
Co198 N208 2.128 . S
Co198 N218 2.194 . S
Co198 O223 2.351 . S
Co198 O224 2.155 . S
Co198 O225 2.096 . S
C199 N202 1.301 . S
C199 N203 1.328 . S
C199 H204 0.930 . S
C200 C201 1.333 . S
C200 N202 1.317 . S
C200 H205 0.930 . S
C201 C200 1.333 . S
C201 N203 1.350 . S
C201 H227 0.931 . S
N202 Co198 2.148 . S
N202 C199 1.301 . S
N202 C200 1.317 . S
N203 C199 1.328 . S
N203 C201 1.350 . S
H204 C199 0.930 . S
H205 C200 0.930 . S
C206 O207 1.224 . S
C206 O225 1.247 . S
O207 C206 1.224 . S
N208 Co198 2.128 . S
N208 C209 1.355 . S
N208 C211 1.311 . S
C209 N208 1.355 . S
C209 C210 1.363 . S
C209 H221 0.929 . S
C210 C209 1.363 . S
C210 N212 1.375 . S
C210 H228 0.931 . S
C211 N208 1.311 . S
C211 N212 1.347 . S
C211 H222 0.929 . S
N212 C210 1.375 . S
N212 C211 1.347 . S
C213 C216 1.365 . S
C213 N218 1.328 . S
C213 H219 0.929 . S
C214 C215 1.362 . S
C214 C217 1.378 . S
C214 H229 0.929 . S
C215 C214 1.362 . S
C215 C216 1.366 . S
C216 C213 1.365 . S
C216 C215 1.366 . S
C216 H230 0.930 . S
C217 C214 1.378 . S
C217 N218 1.315 . S
C217 H220 0.930 . S
N218 Co198 2.194 . S
N218 C213 1.328 . S
N218 C217 1.315 . S
H219 C213 0.929 . S
H220 C217 0.930 . S
H221 C209 0.929 . S
H222 C211 0.929 . S
O223 Co198 2.351 . S
O223 C226 1.244 . S
O224 Co198 2.155 . S
O224 C226 1.240 . S
O225 Co198 2.096 . S
O225 C206 1.247 . S
C226 O223 1.244 . S
C226 O224 1.240 . S
H227 C201 0.931 . S
H228 C210 0.931 . S
H229 C214 0.929 . S
H230 C216 0.930 . S
Co231 N235 2.148 . S
Co231 N241 2.128 . S
Co231 N251 2.194 . S
Co231 O256 2.351 . S
Co231 O257 2.155 . S
Co231 O258 2.096 . S
C232 N235 1.301 . S
C232 N236 1.328 . S
C232 H237 0.930 . S
C233 C234 1.333 . S
C233 N235 1.317 . S
C233 H238 0.930 . S
C234 C233 1.333 . S
C234 N236 1.350 . S
C234 H260 0.931 . S
N235 Co231 2.148 . S
N235 C232 1.301 . S
N235 C233 1.317 . S
N236 C232 1.328 . S
N236 C234 1.350 . S
H237 C232 0.930 . S
H238 C233 0.930 . S
C239 O240 1.224 . S
C239 O258 1.247 . S
O240 C239 1.224 . S
N241 Co231 2.128 . S
N241 C242 1.355 . S
N241 C244 1.311 . S
C242 N241 1.355 . S
C242 C243 1.363 . S
C242 H254 0.929 . S
C243 C242 1.363 . S
C243 N245 1.375 . S
C243 H261 0.931 . S
C244 N241 1.311 . S
C244 N245 1.347 . S
C244 H255 0.929 . S
N245 C243 1.375 . S
N245 C244 1.347 . S
C246 C249 1.365 . S
C246 N251 1.328 1_655 S
C246 H252 0.929 . S
C247 C248 1.362 . S
C247 C250 1.378 1_655 S
C247 H262 0.929 . S
C248 C247 1.362 . S
C248 C249 1.366 . S
C249 C246 1.365 . S
C249 C248 1.366 . S
C249 H263 0.930 . S
C250 C247 1.378 1_455 S
C250 N251 1.315 . S
C250 H253 0.930 . S
N251 Co231 2.194 . S
N251 C246 1.328 1_455 S
N251 C250 1.315 . S
H252 C246 0.929 . S
H253 C250 0.930 . S
H254 C242 0.929 . S
H255 C244 0.929 . S
O256 Co231 2.351 . S
O256 C259 1.244 . S
O257 Co231 2.155 . S
O257 C259 1.240 . S
O258 Co231 2.096 . S
O258 C239 1.247 . S
C259 O256 1.244 . S
C259 O257 1.240 . S
H260 C234 0.931 . S
H261 C243 0.931 . S
H262 C247 0.929 . S
H263 C249 0.930 . S
Co264 N268 2.148 . S
Co264 N274 2.128 . S
Co264 N284 2.194 . S
Co264 O289 2.351 . S
Co264 O290 2.155 . S
Co264 O291 2.096 . S
C265 N268 1.301 . S
C265 N269 1.328 . S
C265 H270 0.930 . S
C266 C267 1.333 . S
C266 N268 1.317 . S
C266 H271 0.930 . S
C267 C266 1.333 . S
C267 N269 1.350 . S
C267 H293 0.931 . S
N268 Co264 2.148 . S
N268 C265 1.301 . S
N268 C266 1.317 . S
N269 C265 1.328 . S
N269 C267 1.350 . S
H270 C265 0.930 . S
H271 C266 0.930 . S
C272 O273 1.224 . S
C272 O291 1.247 . S
O273 C272 1.224 . S
N274 Co264 2.128 . S
N274 C275 1.355 . S
N274 C277 1.311 . S
C275 N274 1.355 . S
C275 C276 1.363 . S
C275 H287 0.929 . S
C276 C275 1.363 . S
C276 N278 1.375 . S
C276 H294 0.931 . S
C277 N274 1.311 . S
C277 N278 1.347 . S
C277 H288 0.929 . S
N278 C276 1.375 . S
N278 C277 1.347 . S
C279 C282 1.365 . S
C279 N284 1.328 . S
C279 H285 0.929 . S
C280 C281 1.362 . S
C280 C283 1.378 . S
C280 H295 0.929 . S
C281 C280 1.362 . S
C281 C282 1.366 . S
C282 C279 1.365 . S
C282 C281 1.366 . S
C282 H296 0.930 . S
C283 C280 1.378 . S
C283 N284 1.315 . S
C283 H286 0.930 . S
N284 Co264 2.194 . S
N284 C279 1.328 . S
N284 C283 1.315 . S
H285 C279 0.929 . S
H286 C283 0.930 . S
H287 C275 0.929 . S
H288 C277 0.929 . S
O289 Co264 2.351 . S
O289 C292 1.244 . S
O290 Co264 2.155 . S
O290 C292 1.240 . S
O291 Co264 2.096 . S
O291 C272 1.247 . S
C292 O289 1.244 . S
C292 O290 1.240 . S
H293 C267 0.931 . S
H294 C276 0.931 . S
H295 C280 0.929 . S
H296 C282 0.930 . S
Co297 N301 2.148 . S
Co297 N307 2.128 . S
Co297 N317 2.194 . S
Co297 O322 2.351 . S
Co297 O323 2.155 . S
Co297 O324 2.096 . S
C298 N301 1.301 . S
C298 N302 1.328 . S
C298 H303 0.930 . S
C299 C300 1.333 . S
C299 N301 1.317 . S
C299 H304 0.930 . S
C300 C299 1.333 . S
C300 N302 1.350 . S
C300 H326 0.931 . S
N301 Co297 2.148 . S
N301 C298 1.301 . S
N301 C299 1.317 . S
N302 C298 1.328 . S
N302 C300 1.350 . S
H303 C298 0.930 . S
H304 C299 0.930 . S
C305 O306 1.224 . S
C305 O324 1.247 1_455 S
O306 C305 1.224 . S
N307 Co297 2.128 . S
N307 C308 1.355 . S
N307 C310 1.311 . S
C308 N307 1.355 . S
C308 C309 1.363 . S
C308 H320 0.929 . S
C309 C308 1.363 . S
C309 N311 1.375 . S
C309 H327 0.931 . S
C310 N307 1.311 . S
C310 N311 1.347 . S
C310 H321 0.929 . S
N311 C309 1.375 . S
N311 C310 1.347 . S
C312 C315 1.365 . S
C312 N317 1.328 . S
C312 H318 0.929 . S
C313 C314 1.362 . S
C313 C316 1.378 . S
C313 H328 0.929 1_655 S
C314 C313 1.362 . S
C314 C315 1.366 . S
C315 C312 1.365 . S
C315 C314 1.366 . S
C315 H329 0.930 . S
C316 C313 1.378 . S
C316 N317 1.315 . S
C316 H319 0.930 1_655 S
N317 Co297 2.194 . S
N317 C312 1.328 . S
N317 C316 1.315 . S
H318 C312 0.929 . S
H319 C316 0.930 1_455 S
H320 C308 0.929 . S
H321 C310 0.929 . S
O322 Co297 2.351 . S
O322 C325 1.244 . S
O323 Co297 2.155 . S
O323 C325 1.240 . S
O324 Co297 2.096 . S
O324 C305 1.247 1_655 S
C325 O322 1.244 . S
C325 O323 1.240 . S
H326 C300 0.931 . S
H327 C309 0.931 . S
H328 C313 0.929 1_455 S
H329 C315 0.930 . S
Co330 N334 2.148 . S
Co330 N340 2.128 . S
Co330 N350 2.194 . S
Co330 O355 2.351 1_455 S
Co330 O356 2.155 . S
Co330 O357 2.096 . S
C331 N334 1.301 . S
C331 N335 1.328 . S
C331 H336 0.930 1_455 S
C332 C333 1.333 . S
C332 N334 1.317 . S
C332 H337 0.930 . S
C333 C332 1.333 . S
C333 N335 1.350 . S
C333 H359 0.931 . S
N334 Co330 2.148 . S
N334 C331 1.301 . S
N334 C332 1.317 . S
N335 C331 1.328 . S
N335 C333 1.350 . S
H336 C331 0.930 1_655 S
H337 C332 0.930 . S
C338 O339 1.224 . S
C338 O357 1.247 . S
O339 C338 1.224 . S
N340 Co330 2.128 . S
N340 C341 1.355 . S
N340 C343 1.311 . S
C341 N340 1.355 . S
C341 C342 1.363 . S
C341 H353 0.929 . S
C342 C341 1.363 . S
C342 N344 1.375 . S
C342 H360 0.931 . S
C343 N340 1.311 . S
C343 N344 1.347 . S
C343 H354 0.929 . S
N344 C342 1.375 . S
N344 C343 1.347 . S
C345 C348 1.365 . S
C345 N350 1.328 . S
C345 H351 0.929 1_455 S
C346 C347 1.362 . S
C346 C349 1.378 . S
C346 H361 0.929 . S
C347 C346 1.362 . S
C347 C348 1.366 . S
C348 C345 1.365 . S
C348 C347 1.366 . S
C348 H362 0.930 1_455 S
C349 C346 1.378 . S
C349 N350 1.315 . S
C349 H352 0.930 . S
N350 Co330 2.194 . S
N350 C345 1.328 . S
N350 C349 1.315 . S
H351 C345 0.929 1_655 S
H352 C349 0.930 . S
H353 C341 0.929 . S
H354 C343 0.929 . S
O355 Co330 2.351 1_655 S
O355 C358 1.244 . S
O356 Co330 2.155 . S
O356 C358 1.240 1_455 S
O357 Co330 2.096 . S
O357 C338 1.247 . S
C358 O355 1.244 . S
C358 O356 1.240 1_655 S
H359 C333 0.931 . S
H360 C342 0.931 . S
H361 C346 0.929 . S
H362 C348 0.930 1_655 S
Co363 N367 2.148 . S
Co363 N373 2.128 . S
Co363 N383 2.194 . S
Co363 O388 2.351 . S
Co363 O389 2.155 . S
Co363 O390 2.096 . S
C364 N367 1.301 . S
C364 N368 1.328 . S
C364 H369 0.930 . S
C365 C366 1.333 . S
C365 N367 1.317 . S
C365 H370 0.930 . S
C366 C365 1.333 . S
C366 N368 1.350 . S
C366 H392 0.931 . S
N367 Co363 2.148 . S
N367 C364 1.301 . S
N367 C365 1.317 . S
N368 C364 1.328 . S
N368 C366 1.350 . S
H369 C364 0.930 . S
H370 C365 0.930 . S
C371 O372 1.224 . S
C371 O390 1.247 . S
O372 C371 1.224 . S
N373 Co363 2.128 . S
N373 C374 1.355 . S
N373 C376 1.311 . S
C374 N373 1.355 . S
C374 C375 1.363 . S
C374 H386 0.929 . S
C375 C374 1.363 . S
C375 N377 1.375 . S
C375 H393 0.931 . S
C376 N373 1.311 . S
C376 N377 1.347 . S
C376 H387 0.929 . S
N377 C375 1.375 . S
N377 C376 1.347 . S
C378 C381 1.365 . S
C378 N383 1.328 . S
C378 H384 0.929 . S
C379 C380 1.362 . S
C379 C382 1.378 . S
C379 H394 0.929 . S
C380 C379 1.362 . S
C380 C381 1.366 . S
C381 C378 1.365 . S
C381 C380 1.366 . S
C381 H395 0.930 . S
C382 C379 1.378 . S
C382 N383 1.315 . S
C382 H385 0.930 . S
N383 Co363 2.194 . S
N383 C378 1.328 . S
N383 C382 1.315 . S
H384 C378 0.929 . S
H385 C382 0.930 . S
H386 C374 0.929 . S
H387 C376 0.929 . S
O388 Co363 2.351 . S
O388 C391 1.244 . S
O389 Co363 2.155 . S
O389 C391 1.240 . S
O390 Co363 2.096 . S
O390 C371 1.247 . S
C391 O388 1.244 . S
C391 O389 1.240 . S
H392 C366 0.931 . S
H393 C375 0.931 . S
H394 C379 0.929 . S
H395 C381 0.930 . S
Co396 N400 2.148 . S
Co396 N406 2.128 . S
Co396 N416 2.194 . S
Co396 O421 2.351 . S
Co396 O422 2.155 . S
Co396 O423 2.096 . S
C397 N400 1.301 . S
C397 N401 1.328 . S
C397 H402 0.930 . S
C398 C399 1.333 . S
C398 N400 1.317 . S
C398 H403 0.930 . S
C399 C398 1.333 . S
C399 N401 1.350 . S
C399 H425 0.931 . S
N400 Co396 2.148 . S
N400 C397 1.301 . S
N400 C398 1.317 . S
N401 C397 1.328 . S
N401 C399 1.350 . S
H402 C397 0.930 . S
H403 C398 0.930 . S
C404 O405 1.224 . S
C404 O423 1.247 . S
O405 C404 1.224 . S
N406 Co396 2.128 . S
N406 C407 1.355 . S
N406 C409 1.311 . S
C407 N406 1.355 . S
C407 C408 1.363 . S
C407 H419 0.929 . S
C408 C407 1.363 . S
C408 N410 1.375 . S
C408 H426 0.931 . S
C409 N406 1.311 . S
C409 N410 1.347 . S
C409 H420 0.929 . S
N410 C408 1.375 . S
N410 C409 1.347 . S
C411 C414 1.365 . S
C411 N416 1.328 . S
C411 H417 0.929 . S
C412 C413 1.362 . S
C412 C415 1.378 . S
C412 H427 0.929 . S
C413 C412 1.362 . S
C413 C414 1.366 . S
C414 C411 1.365 . S
C414 C413 1.366 . S
C414 H428 0.930 . S
C415 C412 1.378 . S
C415 N416 1.315 . S
C415 H418 0.930 . S
N416 Co396 2.194 . S
N416 C411 1.328 . S
N416 C415 1.315 . S
H417 C411 0.929 . S
H418 C415 0.930 . S
H419 C407 0.929 . S
H420 C409 0.929 . S
O421 Co396 2.351 . S
O421 C424 1.244 . S
O422 Co396 2.155 . S
O422 C424 1.240 . S
O423 Co396 2.096 . S
O423 C404 1.247 . S
C424 O421 1.244 . S
C424 O422 1.240 . S
H425 C399 0.931 . S
H426 C408 0.931 . S
H427 C412 0.929 . S
H428 C414 0.930 . S
Co429 N433 2.148 . S
Co429 N439 2.128 . S
Co429 N449 2.194 . S
Co429 O454 2.351 . S
Co429 O455 2.155 . S
Co429 O456 2.096 . S
C430 N433 1.301 . S
C430 N434 1.328 . S
C430 H435 0.930 . S
C431 C432 1.333 . S
C431 N433 1.317 . S
C431 H436 0.930 . S
C432 C431 1.333 . S
C432 N434 1.350 . S
C432 H458 0.931 . S
N433 Co429 2.148 . S
N433 C430 1.301 . S
N433 C431 1.317 . S
N434 C430 1.328 . S
N434 C432 1.350 . S
H435 C430 0.930 . S
H436 C431 0.930 . S
C437 O438 1.224 . S
C437 O456 1.247 . S
O438 C437 1.224 . S
N439 Co429 2.128 . S
N439 C440 1.355 . S
N439 C442 1.311 . S
C440 N439 1.355 . S
C440 C441 1.363 . S
C440 H452 0.929 . S
C441 C440 1.363 . S
C441 N443 1.375 . S
C441 H459 0.931 . S
C442 N439 1.311 . S
C442 N443 1.347 . S
C442 H453 0.929 . S
N443 C441 1.375 . S
N443 C442 1.347 . S
C444 C447 1.365 . S
C444 N449 1.328 1_655 S
C444 H450 0.929 . S
C445 C446 1.362 . S
C445 C448 1.378 1_655 S
C445 H460 0.929 . S
C446 C445 1.362 . S
C446 C447 1.366 . S
C447 C444 1.365 . S
C447 C446 1.366 . S
C447 H461 0.930 . S
C448 C445 1.378 1_455 S
C448 N449 1.315 . S
C448 H451 0.930 . S
N449 Co429 2.194 . S
N449 C444 1.328 1_455 S
N449 C448 1.315 . S
H450 C444 0.929 . S
H451 C448 0.930 . S
H452 C440 0.929 . S
H453 C442 0.929 . S
O454 Co429 2.351 . S
O454 C457 1.244 . S
O455 Co429 2.155 . S
O455 C457 1.240 . S
O456 Co429 2.096 . S
O456 C437 1.247 . S
C457 O454 1.244 . S
C457 O455 1.240 . S
H458 C432 0.931 . S
H459 C441 0.931 . S
H460 C445 0.929 . S
H461 C447 0.930 . S
Co462 N466 2.148 . S
Co462 N472 2.128 . S
Co462 N482 2.194 . S
Co462 O487 2.351 . S
Co462 O488 2.155 . S
Co462 O489 2.096 . S
C463 N466 1.301 . S
C463 N467 1.328 . S
C463 H468 0.930 . S
C464 C465 1.333 . S
C464 N466 1.317 . S
C464 H469 0.930 . S
C465 C464 1.333 . S
C465 N467 1.350 . S
C465 H491 0.931 . S
N466 Co462 2.148 . S
N466 C463 1.301 . S
N466 C464 1.317 . S
N467 C463 1.328 . S
N467 C465 1.350 . S
H468 C463 0.930 . S
H469 C464 0.930 . S
C470 O471 1.224 . S
C470 O489 1.247 . S
O471 C470 1.224 . S
N472 Co462 2.128 . S
N472 C473 1.355 . S
N472 C475 1.311 . S
C473 N472 1.355 . S
C473 C474 1.363 . S
C473 H485 0.929 . S
C474 C473 1.363 . S
C474 N476 1.375 . S
C474 H492 0.931 . S
C475 N472 1.311 . S
C475 N476 1.347 . S
C475 H486 0.929 . S
N476 C474 1.375 . S
N476 C475 1.347 . S
C477 C480 1.365 . S
C477 N482 1.328 1_455 S
C477 H483 0.929 . S
C478 C479 1.362 . S
C478 C481 1.378 1_455 S
C478 H493 0.929 . S
C479 C478 1.362 . S
C479 C480 1.366 . S
C480 C477 1.365 . S
C480 C479 1.366 . S
C480 H494 0.930 . S
C481 C478 1.378 1_655 S
C481 N482 1.315 . S
C481 H484 0.930 . S
N482 Co462 2.194 . S
N482 C477 1.328 1_655 S
N482 C481 1.315 . S
H483 C477 0.929 . S
H484 C481 0.930 . S
H485 C473 0.929 . S
H486 C475 0.929 . S
O487 Co462 2.351 . S
O487 C490 1.244 . S
O488 Co462 2.155 . S
O488 C490 1.240 . S
O489 Co462 2.096 . S
O489 C470 1.247 . S
C490 O487 1.244 . S
C490 O488 1.240 . S
H491 C465 0.931 . S
H492 C474 0.931 . S
H493 C478 0.929 . S
H494 C480 0.930 . S
Co495 N499 2.148 . S
Co495 N505 2.128 . S
Co495 N515 2.194 . S
Co495 O520 2.351 . S
Co495 O521 2.155 . S
Co495 O522 2.096 . S
C496 N499 1.301 . S
C496 N500 1.328 . S
C496 H501 0.930 . S
C497 C498 1.333 . S
C497 N499 1.317 . S
C497 H502 0.930 . S
C498 C497 1.333 . S
C498 N500 1.350 . S
C498 H524 0.931 . S
N499 Co495 2.148 . S
N499 C496 1.301 . S
N499 C497 1.317 . S
N500 C496 1.328 . S
N500 C498 1.350 . S
H501 C496 0.930 . S
H502 C497 0.930 . S
C503 O504 1.224 . S
C503 O522 1.247 . S
O504 C503 1.224 . S
N505 Co495 2.128 . S
N505 C506 1.355 . S
N505 C508 1.311 . S
C506 N505 1.355 . S
C506 C507 1.363 . S
C506 H518 0.929 . S
C507 C506 1.363 . S
C507 N509 1.375 . S
C507 H525 0.931 . S
C508 N505 1.311 . S
C508 N509 1.347 . S
C508 H519 0.929 . S
N509 C507 1.375 . S
N509 C508 1.347 . S
C510 C513 1.365 . S
C510 N515 1.328 . S
C510 H516 0.929 . S
C511 C512 1.362 . S
C511 C514 1.378 . S
C511 H526 0.929 . S
C512 C511 1.362 . S
C512 C513 1.366 . S
C513 C510 1.365 . S
C513 C512 1.366 . S
C513 H527 0.930 . S
C514 C511 1.378 . S
C514 N515 1.315 . S
C514 H517 0.930 . S
N515 Co495 2.194 . S
N515 C510 1.328 . S
N515 C514 1.315 . S
H516 C510 0.929 . S
H517 C514 0.930 . S
H518 C506 0.929 . S
H519 C508 0.929 . S
O520 Co495 2.351 . S
O520 C523 1.244 . S
O521 Co495 2.155 . S
O521 C523 1.240 . S
O522 Co495 2.096 . S
O522 C503 1.247 . S
C523 O520 1.244 . S
C523 O521 1.240 . S
H524 C498 0.931 . S
H525 C507 0.931 . S
H526 C511 0.929 . S
H527 C513 0.930 . S
C528 C529 1.391 . S
C528 C530 1.394 . S
C528 H544 0.931 . S
C529 C528 1.391 . S
C529 C533 1.376 . S
C530 C528 1.394 . S
C530 C531 1.369 . S
C530 C534 1.531 1_556 S
C531 C530 1.369 . S
C531 C532 1.410 . S
C531 C539 1.503 1_556 S
C532 C531 1.410 . S
C532 C533 1.392 . S
C532 C535 1.511 . S
C533 C529 1.376 . S
C533 C532 1.392 . S
C533 H545 0.929 . S
C534 C530 1.531 1_554 S
C534 H546 0.960 . S
C534 H547 0.962 . S
C534 H548 0.960 . S
C535 C532 1.511 . S
C535 H549 0.961 . S
C535 H550 0.961 . S
C535 H551 0.961 . S
C536 C537 1.370 . S
C536 C538 1.363 . S
C536 H552 0.931 . S
C537 C536 1.370 . S
C537 C541 1.408 . S
C538 C536 1.363 . S
C538 C539 1.370 . S
C538 C542 1.524 1_554 S
C539 C531 1.503 1_554 S
C539 C538 1.370 . S
C539 C540 1.403 . S
C540 C539 1.403 . S
C540 C541 1.404 . S
C540 C543 1.539 . S
C541 C537 1.408 . S
C541 C540 1.404 . S
C541 H553 0.930 . S
C542 C538 1.524 1_556 S
C542 H554 0.956 . S
C542 H555 0.961 . S
C542 H556 0.961 . S
C543 C540 1.539 . S
C543 H557 0.958 . S
C543 H558 0.961 . S
C543 H559 0.960 . S
H544 C528 0.931 . S
H545 C533 0.929 . S
H546 C534 0.960 . S
H547 C534 0.962 . S
H548 C534 0.960 . S
H549 C535 0.961 . S
H550 C535 0.961 . S
H551 C535 0.961 . S
H552 C536 0.931 . S
H553 C541 0.930 . S
H554 C542 0.956 . S
H555 C542 0.961 . S
H556 C542 0.961 . S
H557 C543 0.958 . S
H558 C543 0.961 . S
H559 C543 0.960 . S
C560 C561 1.391 . S
C560 C562 1.394 . S
C560 H576 0.931 . S
C561 C560 1.391 . S
C561 C565 1.376 . S
C562 C560 1.394 . S
C562 C563 1.369 . S
C562 C566 1.531 . S
C563 C562 1.369 . S
C563 C564 1.410 . S
C563 C571 1.503 1_556 S
C564 C563 1.410 . S
C564 C565 1.392 . S
C564 C567 1.511 1_556 S
C565 C561 1.376 . S
C565 C564 1.392 . S
C565 H577 0.929 . S
C566 C562 1.531 . S
C566 H578 0.960 . S
C566 H579 0.962 . S
C566 H580 0.960 . S
C567 C564 1.511 1_554 S
C567 H581 0.961 . S
C567 H582 0.961 . S
C567 H583 0.961 . S
C568 C569 1.370 . S
C568 C570 1.362 1_554 S
C568 H584 0.931 . S
C569 C568 1.370 . S
C569 C573 1.408 . S
C570 C568 1.362 1_556 S
C570 C571 1.370 1_556 S
C570 C574 1.526 . S
C571 C563 1.503 1_554 S
C571 C570 1.370 1_554 S
C571 C572 1.403 . S
C572 C571 1.403 . S
C572 C573 1.404 . S
C572 C575 1.539 . S
C573 C569 1.408 . S
C573 C572 1.404 . S
C573 H585 0.930 . S
C574 C570 1.526 . S
C574 H586 0.956 . S
C574 H587 0.961 . S
C574 H588 0.961 . S
C575 C572 1.539 . S
C575 H589 0.958 . S
C575 H590 0.961 . S
C575 H591 0.960 . S
H576 C560 0.931 . S
H577 C565 0.929 . S
H578 C566 0.960 . S
H579 C566 0.962 . S
H580 C566 0.960 . S
H581 C567 0.961 . S
H582 C567 0.961 . S
H583 C567 0.961 . S
H584 C568 0.931 . S
H585 C573 0.930 . S
H586 C574 0.956 . S
H587 C574 0.961 . S
H588 C574 0.961 . S
H589 C575 0.958 . S
H590 C575 0.961 . S
H591 C575 0.960 . S
C592 C593 1.391 . S
C592 C594 1.394 . S
C592 H608 0.931 . S
C593 C592 1.391 . S
C593 C597 1.376 . S
C594 C592 1.394 . S
C594 C595 1.369 . S
C594 C598 1.531 . S
C595 C594 1.369 . S
C595 C596 1.410 . S
C595 C603 1.503 . S
C596 C595 1.410 . S
C596 C597 1.392 . S
C596 C599 1.511 . S
C597 C593 1.376 . S
C597 C596 1.392 . S
C597 H609 0.929 . S
C598 C594 1.531 . S
C598 H610 0.960 . S
C598 H611 0.962 . S
C598 H612 0.960 . S
C599 C596 1.511 . S
C599 H613 0.961 . S
C599 H614 0.961 . S
C599 H615 0.961 . S
C600 C601 1.370 . S
C600 C602 1.363 . S
C600 H616 0.931 . S
C601 C600 1.370 . S
C601 C605 1.408 . S
C602 C600 1.363 . S
C602 C603 1.370 . S
C602 C606 1.524 . S
C603 C595 1.503 . S
C603 C602 1.370 . S
C603 C604 1.403 . S
C604 C603 1.403 . S
C604 C605 1.404 . S
C604 C607 1.539 . S
C605 C601 1.408 . S
C605 C604 1.404 . S
C605 H617 0.930 . S
C606 C602 1.524 . S
C606 H618 0.956 . S
C606 H619 0.961 . S
C606 H620 0.961 . S
C607 C604 1.539 . S
C607 H621 0.958 . S
C607 H622 0.961 . S
C607 H623 0.960 . S
H608 C592 0.931 . S
H609 C597 0.929 . S
H610 C598 0.960 . S
H611 C598 0.962 . S
H612 C598 0.960 . S
H613 C599 0.961 . S
H614 C599 0.961 . S
H615 C599 0.961 . S
H616 C600 0.931 . S
H617 C605 0.930 . S
H618 C606 0.956 . S
H619 C606 0.961 . S
H620 C606 0.961 . S
H621 C607 0.958 . S
H622 C607 0.961 . S
H623 C607 0.960 . S
C624 C625 1.391 . S
C624 C626 1.394 . S
C624 H640 0.931 . S
C625 C624 1.391 . S
C625 C629 1.376 . S
C626 C624 1.394 . S
C626 C627 1.369 . S
C626 C630 1.531 . S
C627 C626 1.369 . S
C627 C628 1.410 . S
C627 C635 1.503 . S
C628 C627 1.410 . S
C628 C629 1.392 . S
C628 C631 1.511 . S
C629 C625 1.376 . S
C629 C628 1.392 . S
C629 H641 0.929 . S
C630 C626 1.531 . S
C630 H642 0.960 . S
C630 H643 0.962 . S
C630 H644 0.960 . S
C631 C628 1.511 . S
C631 H645 0.961 . S
C631 H646 0.961 . S
C631 H647 0.961 . S
C632 C633 1.370 . S
C632 C634 1.363 . S
C632 H648 0.931 . S
C633 C632 1.370 . S
C633 C637 1.408 . S
C634 C632 1.363 . S
C634 C635 1.370 . S
C634 C638 1.524 . S
C635 C627 1.503 . S
C635 C634 1.370 . S
C635 C636 1.403 . S
C636 C635 1.403 . S
C636 C637 1.404 . S
C636 C639 1.539 . S
C637 C633 1.408 . S
C637 C636 1.404 . S
C637 H649 0.930 . S
C638 C634 1.524 . S
C638 H650 0.956 . S
C638 H651 0.961 . S
C638 H652 0.961 . S
C639 C636 1.539 . S
C639 H653 0.958 . S
C639 H654 0.961 . S
C639 H655 0.960 . S
H640 C624 0.931 . S
H641 C629 0.929 . S
H642 C630 0.960 . S
H643 C630 0.962 . S
H644 C630 0.960 . S
H645 C631 0.961 . S
H646 C631 0.961 . S
H647 C631 0.961 . S
H648 C632 0.931 . S
H649 C637 0.930 . S
H650 C638 0.956 . S
H651 C638 0.961 . S
H652 C638 0.961 . S
H653 C639 0.958 . S
H654 C639 0.961 . S
H655 C639 0.960 . S
C656 C657 1.391 . S
C656 C658 1.394 . S
C656 H672 0.931 . S
C657 C656 1.391 . S
C657 C661 1.376 . S
C658 C656 1.394 . S
C658 C659 1.369 . S
C658 C662 1.531 . S
C659 C658 1.369 . S
C659 C660 1.410 . S
C659 C667 1.503 . S
C660 C659 1.410 . S
C660 C661 1.392 . S
C660 C663 1.511 1_556 S
C661 C657 1.376 . S
C661 C660 1.392 . S
C661 H673 0.929 . S
C662 C658 1.531 . S
C662 H674 0.960 . S
C662 H675 0.962 . S
C662 H676 0.960 . S
C663 C660 1.511 1_554 S
C663 H677 0.961 . S
C663 H678 0.961 . S
C663 H679 0.961 . S
C664 C665 1.370 . S
C664 C666 1.363 1_554 S
C664 H680 0.931 . S
C665 C664 1.370 . S
C665 C669 1.408 . S
C666 C664 1.363 1_556 S
C666 C667 1.370 . S
C666 C670 1.524 . S
C667 C659 1.503 . S
C667 C666 1.370 . S
C667 C668 1.403 1_556 S
C668 C667 1.403 1_554 S
C668 C669 1.404 . S
C668 C671 1.539 . S
C669 C665 1.408 . S
C669 C668 1.404 . S
C669 H681 0.930 . S
C670 C666 1.524 . S
C670 H682 0.956 . S
C670 H683 0.961 . S
C670 H684 0.961 . S
C671 C668 1.539 . S
C671 H685 0.958 1_554 S
C671 H686 0.961 . S
C671 H687 0.960 . S
H672 C656 0.931 . S
H673 C661 0.929 . S
H674 C662 0.960 . S
H675 C662 0.962 . S
H676 C662 0.960 . S
H677 C663 0.961 . S
H678 C663 0.961 . S
H679 C663 0.961 . S
H680 C664 0.931 . S
H681 C669 0.930 . S
H682 C670 0.956 . S
H683 C670 0.961 . S
H684 C670 0.961 . S
H685 C671 0.958 1_556 S
H686 C671 0.961 . S
H687 C671 0.960 . S
C688 C689 1.391 . S
C688 C690 1.394 . S
C688 H704 0.931 . S
C689 C688 1.391 . S
C689 C693 1.376 . S
C690 C688 1.394 . S
C690 C691 1.369 . S
C690 C694 1.531 . S
C691 C690 1.369 . S
C691 C692 1.410 . S
C691 C699 1.503 . S
C692 C691 1.410 . S
C692 C693 1.392 . S
C692 C695 1.511 . S
C693 C689 1.376 . S
C693 C692 1.392 . S
C693 H705 0.929 . S
C694 C690 1.531 . S
C694 H706 0.960 . S
C694 H707 0.962 . S
C694 H708 0.960 . S
C695 C692 1.511 . S
C695 H709 0.961 . S
C695 H710 0.961 1_556 S
C695 H711 0.961 . S
C696 C697 1.370 . S
C696 C698 1.363 . S
C696 H712 0.931 . S
C697 C696 1.370 . S
C697 C701 1.408 . S
C698 C696 1.363 . S
C698 C699 1.370 1_554 S
C698 C702 1.524 . S
C699 C691 1.503 . S
C699 C698 1.370 1_556 S
C699 C700 1.403 . S
C700 C699 1.403 . S
C700 C701 1.404 1_556 S
C700 C703 1.539 . S
C701 C697 1.408 . S
C701 C700 1.404 1_554 S
C701 H713 0.930 . S
C702 C698 1.524 . S
C702 H714 0.956 1_554 S
C702 H715 0.961 . S
C702 H716 0.961 . S
C703 C700 1.539 . S
C703 H717 0.958 . S
C703 H718 0.961 . S
C703 H719 0.960 . S
H704 C688 0.931 . S
H705 C693 0.929 . S
H706 C694 0.960 . S
H707 C694 0.962 . S
H708 C694 0.960 . S
H709 C695 0.961 . S
H710 C695 0.961 1_554 S
H711 C695 0.961 . S
H712 C696 0.931 . S
H713 C701 0.930 . S
H714 C702 0.956 1_556 S
H715 C702 0.961 . S
H716 C702 0.961 . S
H717 C703 0.958 . S
H718 C703 0.961 . S
H719 C703 0.960 . S
C720 C721 1.391 . S
C720 C722 1.394 . S
C720 H736 0.931 . S
C721 C720 1.391 . S
C721 C725 1.376 . S
C722 C720 1.394 . S
C722 C723 1.369 . S
C722 C726 1.531 . S
C723 C722 1.369 . S
C723 C724 1.410 . S
C723 C731 1.503 . S
C724 C723 1.410 . S
C724 C725 1.392 . S
C724 C727 1.511 . S
C725 C721 1.376 . S
C725 C724 1.392 . S
C725 H737 0.929 . S
C726 C722 1.531 . S
C726 H738 0.960 . S
C726 H739 0.962 . S
C726 H740 0.960 . S
C727 C724 1.511 . S
C727 H741 0.961 . S
C727 H742 0.961 . S
C727 H743 0.961 . S
C728 C729 1.370 . S
C728 C730 1.363 . S
C728 H744 0.931 . S
C729 C728 1.370 . S
C729 C733 1.408 . S
C730 C728 1.363 . S
C730 C731 1.370 . S
C730 C734 1.524 . S
C731 C723 1.503 . S
C731 C730 1.370 . S
C731 C732 1.403 . S
C732 C731 1.403 . S
C732 C733 1.404 . S
C732 C735 1.539 . S
C733 C729 1.408 . S
C733 C732 1.404 . S
C733 H745 0.930 . S
C734 C730 1.524 . S
C734 H746 0.956 . S
C734 H747 0.961 . S
C734 H748 0.961 . S
C735 C732 1.539 . S
C735 H749 0.958 . S
C735 H750 0.961 . S
C735 H751 0.960 . S
H736 C720 0.931 . S
H737 C725 0.929 . S
H738 C726 0.960 . S
H739 C726 0.962 . S
H740 C726 0.960 . S
H741 C727 0.961 . S
H742 C727 0.961 . S
H743 C727 0.961 . S
H744 C728 0.931 . S
H745 C733 0.930 . S
H746 C734 0.956 . S
H747 C734 0.961 . S
H748 C734 0.961 . S
H749 C735 0.958 . S
H750 C735 0.961 . S
H751 C735 0.960 . S
C752 C753 1.391 . S
C752 C754 1.394 . S
C752 H768 0.931 . S
C753 C752 1.391 . S
C753 C757 1.376 . S
C754 C752 1.394 . S
C754 C755 1.369 . S
C754 C758 1.531 . S
C755 C754 1.369 . S
C755 C756 1.410 . S
C755 C763 1.503 . S
C756 C755 1.410 . S
C756 C757 1.392 . S
C756 C759 1.511 . S
C757 C753 1.376 . S
C757 C756 1.392 . S
C757 H769 0.929 . S
C758 C754 1.531 . S
C758 H770 0.960 . S
C758 H771 0.962 . S
C758 H772 0.960 . S
C759 C756 1.511 . S
C759 H773 0.961 . S
C759 H774 0.961 . S
C759 H775 0.961 . S
C760 C761 1.370 . S
C760 C762 1.363 . S
C760 H776 0.931 . S
C761 C760 1.370 . S
C761 C765 1.408 . S
C762 C760 1.363 . S
C762 C763 1.370 . S
C762 C766 1.524 . S
C763 C755 1.503 . S
C763 C762 1.370 . S
C763 C764 1.403 . S
C764 C763 1.403 . S
C764 C765 1.404 . S
C764 C767 1.539 . S
C765 C761 1.408 . S
C765 C764 1.404 . S
C765 H777 0.930 . S
C766 C762 1.524 . S
C766 H778 0.956 . S
C766 H779 0.961 . S
C766 H780 0.961 . S
C767 C764 1.539 . S
C767 H781 0.958 . S
C767 H782 0.961 . S
C767 H783 0.960 . S
H768 C752 0.931 . S
H769 C757 0.929 . S
H770 C758 0.960 . S
H771 C758 0.962 . S
H772 C758 0.960 . S
H773 C759 0.961 . S
H774 C759 0.961 . S
H775 C759 0.961 . S
H776 C760 0.931 . S
H777 C765 0.930 . S
H778 C766 0.956 . S
H779 C766 0.961 . S
H780 C766 0.961 . S
H781 C767 0.958 . S
H782 C767 0.961 . S
H783 C767 0.960 . S
C784 C785 1.391 . S
C784 C786 1.394 . S
C784 H800 0.931 . S
C785 C784 1.391 . S
C785 C789 1.376 . S
C786 C784 1.394 . S
C786 C787 1.369 . S
C786 C790 1.531 . S
C787 C786 1.369 . S
C787 C788 1.410 1_554 S
C787 C795 1.503 1_554 S
C788 C787 1.410 1_556 S
C788 C789 1.392 1_556 S
C788 C791 1.511 . S
C789 C785 1.376 . S
C789 C788 1.392 1_554 S
C789 H801 0.929 . S
C790 C786 1.531 . S
C790 H802 0.960 . S
C790 H803 0.962 . S
C790 H804 0.960 . S
C791 C788 1.511 . S
C791 H805 0.961 . S
C791 H806 0.961 . S
C791 H807 0.961 . S
C792 C793 1.370 . S
C792 C794 1.363 . S
C792 H808 0.931 . S
C793 C792 1.370 . S
C793 C797 1.408 . S
C794 C792 1.363 . S
C794 C795 1.370 . S
C794 C798 1.524 . S
C795 C787 1.503 1_556 S
C795 C794 1.370 . S
C795 C796 1.403 . S
C796 C795 1.403 . S
C796 C797 1.404 . S
C796 C799 1.539 . S
C797 C793 1.408 . S
C797 C796 1.404 . S
C797 H809 0.930 . S
C798 C794 1.524 . S
C798 H810 0.956 1_556 S
C798 H811 0.961 . S
C798 H812 0.961 . S
C799 C796 1.539 . S
C799 H813 0.958 1_556 S
C799 H814 0.961 . S
C799 H815 0.960 . S
H800 C784 0.931 . S
H801 C789 0.929 . S
H802 C790 0.960 . S
H803 C790 0.962 . S
H804 C790 0.960 . S
H805 C791 0.961 . S
H806 C791 0.961 . S
H807 C791 0.961 . S
H808 C792 0.931 . S
H809 C797 0.930 . S
H810 C798 0.956 1_554 S
H811 C798 0.961 . S
H812 C798 0.961 . S
H813 C799 0.958 1_554 S
H814 C799 0.961 . S
H815 C799 0.960 . S
C816 C817 1.391 . S
C816 C818 1.394 . S
C816 H832 0.931 . S
C817 C816 1.391 . S
C817 C821 1.376 . S
C818 C816 1.394 . S
C818 C819 1.369 . S
C818 C822 1.531 . S
C819 C818 1.369 . S
C819 C820 1.410 1_554 S
C819 C827 1.503 1_554 S
C820 C819 1.410 1_556 S
C820 C821 1.392 1_556 S
C820 C823 1.511 . S
C821 C817 1.376 . S
C821 C820 1.392 1_554 S
C821 H833 0.929 . S
C822 C818 1.531 . S
C822 H834 0.960 . S
C822 H835 0.962 . S
C822 H836 0.960 . S
C823 C820 1.511 . S
C823 H837 0.961 . S
C823 H838 0.961 . S
C823 H839 0.961 . S
C824 C825 1.370 . S
C824 C826 1.363 . S
C824 H840 0.931 . S
C825 C824 1.370 . S
C825 C829 1.408 . S
C826 C824 1.363 . S
C826 C827 1.370 . S
C826 C830 1.524 1_556 S
C827 C819 1.503 1_556 S
C827 C826 1.370 . S
C827 C828 1.403 . S
C828 C827 1.403 . S
C828 C829 1.404 . S
C828 C831 1.539 . S
C829 C825 1.408 . S
C829 C828 1.404 . S
C829 H841 0.930 . S
C830 C826 1.524 1_554 S
C830 H842 0.956 . S
C830 H843 0.961 . S
C830 H844 0.967 . S
C831 C828 1.539 . S
C831 H845 0.958 . S
C831 H846 0.961 . S
C831 H847 0.960 . S
H832 C816 0.931 . S
H833 C821 0.929 . S
H834 C822 0.960 . S
H835 C822 0.962 . S
H836 C822 0.960 . S
H837 C823 0.961 . S
H838 C823 0.961 . S
H839 C823 0.961 . S
H840 C824 0.931 . S
H841 C829 0.930 . S
H842 C830 0.956 . S
H843 C830 0.961 . S
H844 C830 0.967 . S
H845 C831 0.958 . S
H846 C831 0.961 . S
H847 C831 0.960 . S
C848 C849 1.391 . S
C848 C850 1.394 . S
C848 H864 0.931 . S
C849 C848 1.391 . S
C849 C853 1.376 . S
C850 C848 1.394 . S
C850 C851 1.369 . S
C850 C854 1.531 . S
C851 C850 1.369 . S
C851 C852 1.410 . S
C851 C859 1.503 . S
C852 C851 1.410 . S
C852 C853 1.392 . S
C852 C855 1.511 . S
C853 C849 1.376 . S
C853 C852 1.392 . S
C853 H865 0.929 . S
C854 C850 1.531 . S
C854 H866 0.960 . S
C854 H867 0.962 . S
C854 H868 0.960 . S
C855 C852 1.511 . S
C855 H869 0.961 . S
C855 H870 0.961 . S
C855 H871 0.961 . S
C856 C857 1.370 . S
C856 C858 1.363 . S
C856 H872 0.931 . S
C857 C856 1.370 . S
C857 C861 1.408 . S
C858 C856 1.363 . S
C858 C859 1.370 . S
C858 C862 1.524 . S
C859 C851 1.503 . S
C859 C858 1.370 . S
C859 C860 1.403 . S
C860 C859 1.403 . S
C860 C861 1.404 . S
C860 C863 1.539 . S
C861 C857 1.408 . S
C861 C860 1.404 . S
C861 H873 0.930 . S
C862 C858 1.524 . S
C862 H874 0.956 . S
C862 H875 0.961 . S
C862 H876 0.961 . S
C863 C860 1.539 . S
C863 H877 0.958 . S
C863 H878 0.961 . S
C863 H879 0.960 . S
H864 C848 0.931 . S
H865 C853 0.929 . S
H866 C854 0.960 . S
H867 C854 0.962 . S
H868 C854 0.960 . S
H869 C855 0.961 . S
H870 C855 0.961 . S
H871 C855 0.961 . S
H872 C856 0.931 . S
H873 C861 0.930 . S
H874 C862 0.956 . S
H875 C862 0.961 . S
H876 C862 0.961 . S
H877 C863 0.958 . S
H878 C863 0.961 . S
H879 C863 0.960 . S
C880 C881 1.391 . S
C880 C882 1.394 . S
C880 H896 0.931 . S
C881 C880 1.391 . S
C881 C885 1.376 . S
C882 C880 1.394 . S
C882 C883 1.369 . S
C882 C886 1.531 . S
C883 C882 1.369 . S
C883 C884 1.410 . S
C883 C891 1.503 . S
C884 C883 1.410 . S
C884 C885 1.392 . S
C884 C887 1.511 . S
C885 C881 1.376 . S
C885 C884 1.392 . S
C885 H897 0.929 . S
C886 C882 1.531 . S
C886 H898 0.960 . S
C886 H899 0.962 . S
C886 H900 0.960 . S
C887 C884 1.511 . S
C887 H901 0.961 . S
C887 H902 0.961 . S
C887 H903 0.961 . S
C888 C889 1.370 . S
C888 C890 1.363 . S
C888 H904 0.931 . S
C889 C888 1.370 . S
C889 C893 1.408 . S
C890 C888 1.363 . S
C890 C891 1.370 . S
C890 C894 1.524 . S
C891 C883 1.503 . S
C891 C890 1.370 . S
C891 C892 1.403 . S
C892 C891 1.403 . S
C892 C893 1.404 . S
C892 C895 1.539 . S
C893 C889 1.408 . S
C893 C892 1.404 . S
C893 H905 0.930 . S
C894 C890 1.524 . S
C894 H906 0.956 . S
C894 H907 0.961 . S
C894 H908 0.961 . S
C895 C892 1.539 . S
C895 H909 0.958 . S
C895 H910 0.961 . S
C895 H911 0.960 . S
H896 C880 0.931 . S
H897 C885 0.929 . S
H898 C886 0.960 . S
H899 C886 0.962 . S
H900 C886 0.960 . S
H901 C887 0.961 . S
H902 C887 0.961 . S
H903 C887 0.961 . S
H904 C888 0.931 . S
H905 C893 0.930 . S
H906 C894 0.956 . S
H907 C894 0.961 . S
H908 C894 0.961 . S
H909 C895 0.958 . S
H910 C895 0.961 . S
H911 C895 0.960 . S
C912 C913 1.391 . S
C912 C914 1.394 . S
C912 H928 0.931 . S
C913 C912 1.391 . S
C913 C917 1.376 . S
C914 C912 1.394 . S
C914 C915 1.369 . S
C914 C918 1.531 . S
C915 C914 1.369 . S
C915 C916 1.410 . S
C915 C923 1.503 . S
C916 C915 1.410 . S
C916 C917 1.392 . S
C916 C919 1.511 . S
C917 C913 1.376 . S
C917 C916 1.392 . S
C917 H929 0.929 . S
C918 C914 1.531 . S
C918 H930 0.960 . S
C918 H931 0.952 1_556 S
C918 H932 0.960 . S
C919 C916 1.511 . S
C919 H933 0.961 . S
C919 H934 0.961 . S
C919 H935 0.961 . S
C920 C921 1.370 . S
C920 C922 1.363 . S
C920 H936 0.931 . S
C921 C920 1.370 . S
C921 C925 1.441 . S
C922 C920 1.363 . S
C922 C923 1.370 1_554 S
C922 C926 1.524 . S
C923 C915 1.503 . S
C923 C922 1.370 1_556 S
C923 C924 1.403 . S
C924 C923 1.403 . S
C924 C925 1.377 1_556 S
C924 C927 1.539 . S
C925 C921 1.441 . S
C925 C924 1.377 1_554 S
C925 H937 0.924 1_554 S
C926 C922 1.524 . S
C926 H938 0.956 . S
C926 H939 0.961 . S
C926 H940 0.961 . S
C927 C924 1.539 . S
C927 H941 0.958 . S
C927 H942 0.961 . S
C927 H943 0.960 . S
H928 C912 0.931 . S
H929 C917 0.929 . S
H930 C918 0.960 . S
H931 C918 0.952 1_554 S
H932 C918 0.960 . S
H933 C919 0.961 . S
H934 C919 0.961 . S
H935 C919 0.961 . S
H936 C920 0.931 . S
H937 C925 0.924 1_556 S
H938 C926 0.956 . S
H939 C926 0.961 . S
H940 C926 0.961 . S
H941 C927 0.958 . S
H942 C927 0.961 . S
H943 C927 0.960 . S
C944 C945 1.391 . S
C944 C946 1.394 . S
C944 H960 0.931 . S
C945 C944 1.391 . S
C945 C949 1.376 . S
C946 C944 1.394 . S
C946 C947 1.369 . S
C946 C950 1.502 1_556 S
C947 C946 1.369 . S
C947 C948 1.410 . S
C947 C955 1.503 . S
C948 C947 1.410 . S
C948 C949 1.392 . S
C948 C951 1.511 . S
C949 C945 1.376 . S
C949 C948 1.392 . S
C949 H961 0.929 . S
C950 C946 1.502 1_554 S
C950 H962 0.970 . S
C950 H963 0.985 . S
C950 H964 0.958 1_554 S
C951 C948 1.511 . S
C951 H965 0.961 . S
C951 H966 0.961 . S
C951 H967 0.961 . S
C952 C953 1.370 . S
C952 C954 1.363 . S
C952 H968 0.931 . S
C953 C952 1.370 . S
C953 C957 1.408 . S
C954 C952 1.363 . S
C954 C955 1.370 1_554 S
C954 C958 1.524 . S
C955 C947 1.503 . S
C955 C954 1.370 1_556 S
C955 C956 1.403 . S
C956 C955 1.403 . S
C956 C957 1.404 1_556 S
C956 C959 1.539 . S
C957 C953 1.408 . S
C957 C956 1.404 1_554 S
C957 H969 0.930 . S
C958 C954 1.524 . S
C958 H970 0.956 . S
C958 H971 0.961 1_554 S
C958 H972 0.961 . S
C959 C956 1.539 . S
C959 H973 0.958 . S
C959 H974 0.961 . S
C959 H975 0.960 . S
H960 C944 0.931 . S
H961 C949 0.929 . S
H962 C950 0.970 . S
H963 C950 0.985 . S
H964 C950 0.958 1_556 S
H965 C951 0.961 . S
H966 C951 0.961 . S
H967 C951 0.961 . S
H968 C952 0.931 . S
H969 C957 0.930 . S
H970 C958 0.956 . S
H971 C958 0.961 1_556 S
H972 C958 0.961 . S
H973 C959 0.958 . S
H974 C959 0.961 . S
H975 C959 0.960 . S
C976 C977 1.391 . S
C976 C978 1.394 . S
C976 H992 0.931 . S
C977 C976 1.391 . S
C977 C981 1.376 . S
C978 C976 1.394 . S
C978 C979 1.369 . S
C978 C982 1.531 . S
C979 C978 1.369 . S
C979 C980 1.410 . S
C979 C987 1.503 . S
C980 C979 1.410 . S
C980 C981 1.392 . S
C980 C983 1.511 . S
C981 C977 1.376 . S
C981 C980 1.392 . S
C981 H993 0.929 . S
C982 C978 1.531 . S
C982 H994 0.960 . S
C982 H995 0.962 . S
C982 H996 0.960 . S
C983 C980 1.511 . S
C983 H997 0.961 . S
C983 H998 0.961 . S
C983 H999 0.961 . S
C984 C985 1.370 . S
C984 C986 1.363 . S
C984 H1000 0.931 . S
C985 C984 1.370 . S
C985 C989 1.408 . S
C986 C984 1.363 . S
C986 C987 1.370 . S
C986 C990 1.524 . S
C987 C979 1.503 . S
C987 C986 1.370 . S
C987 C988 1.403 . S
C988 C987 1.403 . S
C988 C989 1.404 . S
C988 C991 1.539 . S
C989 C985 1.408 . S
C989 C988 1.404 . S
C989 H1001 0.930 . S
C990 C986 1.524 . S
C990 H1002 0.956 . S
C990 H1003 0.961 . S
C990 H1004 0.961 . S
C991 C988 1.539 . S
C991 H1005 0.958 . S
C991 H1006 0.961 . S
C991 H1007 0.960 . S
H992 C976 0.931 . S
H993 C981 0.929 . S
H994 C982 0.960 . S
H995 C982 0.962 . S
H996 C982 0.960 . S
H997 C983 0.961 . S
H998 C983 0.961 . S
H999 C983 0.961 . S
H1000 C984 0.931 . S
H1001 C989 0.930 . S
H1002 C990 0.956 . S
H1003 C990 0.961 . S
H1004 C990 0.961 . S
H1005 C991 0.958 . S
H1006 C991 0.961 . S
H1007 C991 0.960 . S
C1008 C1009 1.391 . S
C1008 C1010 1.394 . S
C1008 H1024 0.931 . S
C1009 C1008 1.391 . S
C1009 C1013 1.376 . S
C1010 C1008 1.394 . S
C1010 C1011 1.369 . S
C1010 C1014 1.531 . S
C1011 C1010 1.369 . S
C1011 C1012 1.410 . S
C1011 C1019 1.503 . S
C1012 C1011 1.410 . S
C1012 C1013 1.392 . S
C1012 C1015 1.511 . S
C1013 C1009 1.376 . S
C1013 C1012 1.392 . S
C1013 H1025 0.929 . S
C1014 C1010 1.531 . S
C1014 H1026 0.960 . S
C1014 H1027 0.962 . S
C1014 H1028 0.960 . S
C1015 C1012 1.511 . S
C1015 H1029 0.961 . S
C1015 H1030 0.961 . S
C1015 H1031 0.961 . S
C1016 C1017 1.370 . S
C1016 C1018 1.363 . S
C1016 H1032 0.931 . S
C1017 C1016 1.370 . S
C1017 C1021 1.408 . S
C1018 C1016 1.363 . S
C1018 C1019 1.370 . S
C1018 C1022 1.524 . S
C1019 C1011 1.503 . S
C1019 C1018 1.370 . S
C1019 C1020 1.403 . S
C1020 C1019 1.403 . S
C1020 C1021 1.404 . S
C1020 C1023 1.539 . S
C1021 C1017 1.408 . S
C1021 C1020 1.404 . S
C1021 H1033 0.930 . S
C1022 C1018 1.524 . S
C1022 H1034 0.956 . S
C1022 H1035 0.961 . S
C1022 H1036 0.961 . S
C1023 C1020 1.539 . S
C1023 H1037 0.958 . S
C1023 H1038 0.961 . S
C1023 H1039 0.960 . S
H1024 C1008 0.931 . S
H1025 C1013 0.929 . S
H1026 C1014 0.960 . S
H1027 C1014 0.962 . S
H1028 C1014 0.960 . S
H1029 C1015 0.961 . S
H1030 C1015 0.961 . S
H1031 C1015 0.961 . S
H1032 C1016 0.931 . S
H1033 C1021 0.930 . S
H1034 C1022 0.956 . S
H1035 C1022 0.961 . S
H1036 C1022 0.961 . S
H1037 C1023 0.958 . S
H1038 C1023 0.961 . S
H1039 C1023 0.960 . S
C1040 C1041 1.391 . S
C1040 C1042 1.394 . S
C1040 H1056 0.931 . S
C1041 C1040 1.391 . S
C1041 C1045 1.376 . S
C1042 C1040 1.394 . S
C1042 C1043 1.369 . S
C1042 C1046 1.531 1_545 S
C1043 C1042 1.369 . S
C1043 C1044 1.410 . S
C1043 C1051 1.503 1_545 S
C1044 C1043 1.410 . S
C1044 C1045 1.392 . S
C1044 C1047 1.511 . S
C1045 C1041 1.376 . S
C1045 C1044 1.392 . S
C1045 H1057 0.929 . S
C1046 C1042 1.531 1_565 S
C1046 H1058 0.960 . S
C1046 H1059 0.962 . S
C1046 H1060 0.960 . S
C1047 C1044 1.511 . S
C1047 H1061 0.961 . S
C1047 H1062 0.961 . S
C1047 H1063 0.961 . S
C1048 C1049 1.370 . S
C1048 C1050 1.363 . S
C1048 H1064 0.931 . S
C1049 C1048 1.370 . S
C1049 C1053 1.408 . S
C1050 C1048 1.363 . S
C1050 C1051 1.370 . S
C1050 C1054 1.524 1_565 S
C1051 C1043 1.503 1_565 S
C1051 C1050 1.370 . S
C1051 C1052 1.403 . S
C1052 C1051 1.403 . S
C1052 C1053 1.404 . S
C1052 C1055 1.539 . S
C1053 C1049 1.408 . S
C1053 C1052 1.404 . S
C1053 H1065 0.930 . S
C1054 C1050 1.524 1_545 S
C1054 H1066 0.956 . S
C1054 H1067 0.961 . S
C1054 H1068 0.961 . S
C1055 C1052 1.539 . S
C1055 H1069 0.958 . S
C1055 H1070 0.961 . S
C1055 H1071 0.960 . S
H1056 C1040 0.931 . S
H1057 C1045 0.929 . S
H1058 C1046 0.960 . S
H1059 C1046 0.962 . S
H1060 C1046 0.960 . S
H1061 C1047 0.961 . S
H1062 C1047 0.961 . S
H1063 C1047 0.961 . S
H1064 C1048 0.931 . S
H1065 C1053 0.930 . S
H1066 C1054 0.956 . S
H1067 C1054 0.961 . S
H1068 C1054 0.961 . S
H1069 C1055 0.958 . S
H1070 C1055 0.961 . S
H1071 C1055 0.960 . S
C1072 C1073 1.391 . S
C1072 C1074 1.394 . S
C1072 H1088 0.931 . S
C1073 C1072 1.391 . S
C1073 C1077 1.376 . S
C1074 C1072 1.394 . S
C1074 C1075 1.369 . S
C1074 C1078 1.531 . S
C1075 C1074 1.369 . S
C1075 C1076 1.410 . S
C1075 C1083 1.503 1_565 S
C1076 C1075 1.410 . S
C1076 C1077 1.392 . S
C1076 C1079 1.511 1_565 S
C1077 C1073 1.376 . S
C1077 C1076 1.392 . S
C1077 H1089 0.929 . S
C1078 C1074 1.531 . S
C1078 H1090 0.960 . S
C1078 H1091 0.962 . S
C1078 H1092 0.960 . S
C1079 C1076 1.511 1_545 S
C1079 H1093 0.961 . S
C1079 H1094 0.961 . S
C1079 H1095 0.961 . S
C1080 C1081 1.370 . S
C1080 C1082 1.363 . S
C1080 H1096 0.931 . S
C1081 C1080 1.370 . S
C1081 C1085 1.408 . S
C1082 C1080 1.363 . S
C1082 C1083 1.370 . S
C1082 C1086 1.524 1_545 S
C1083 C1075 1.503 1_545 S
C1083 C1082 1.370 . S
C1083 C1084 1.403 . S
C1084 C1083 1.403 . S
C1084 C1085 1.404 . S
C1084 C1087 1.539 . S
C1085 C1081 1.408 . S
C1085 C1084 1.404 . S
C1085 H1097 0.930 . S
C1086 C1082 1.524 1_565 S
C1086 H1098 0.956 . S
C1086 H1099 0.961 . S
C1086 H1100 0.961 . S
C1087 C1084 1.539 . S
C1087 H1101 0.958 . S
C1087 H1102 0.961 . S
C1087 H1103 0.960 . S
H1088 C1072 0.931 . S
H1089 C1077 0.929 . S
H1090 C1078 0.960 . S
H1091 C1078 0.962 . S
H1092 C1078 0.960 . S
H1093 C1079 0.961 . S
H1094 C1079 0.961 . S
H1095 C1079 0.961 . S
H1096 C1080 0.931 . S
H1097 C1085 0.930 . S
H1098 C1086 0.956 . S
H1099 C1086 0.961 . S
H1100 C1086 0.961 . S
H1101 C1087 0.958 . S
H1102 C1087 0.961 . S
H1103 C1087 0.960 . S
C1104 C1105 1.391 . S
C1104 C1106 1.394 . S
C1104 H1120 0.931 . S
C1105 C1104 1.391 . S
C1105 C1109 1.376 . S
C1106 C1104 1.394 . S
C1106 C1107 1.369 . S
C1106 C1110 1.531 1_545 S
C1107 C1106 1.369 . S
C1107 C1108 1.410 . S
C1107 C1115 1.503 1_545 S
C1108 C1107 1.410 . S
C1108 C1109 1.392 . S
C1108 C1111 1.511 . S
C1109 C1105 1.376 . S
C1109 C1108 1.392 . S
C1109 H1121 0.929 . S
C1110 C1106 1.531 1_565 S
C1110 H1122 0.960 . S
C1110 H1123 0.962 . S
C1110 H1124 0.960 . S
C1111 C1108 1.511 . S
C1111 H1125 0.961 . S
C1111 H1126 0.961 . S
C1111 H1127 0.961 . S
C1112 C1113 1.370 . S
C1112 C1114 1.363 . S
C1112 H1128 0.931 . S
C1113 C1112 1.370 . S
C1113 C1117 1.408 . S
C1114 C1112 1.363 . S
C1114 C1115 1.370 . S
C1114 C1118 1.524 . S
C1115 C1107 1.503 1_565 S
C1115 C1114 1.370 . S
C1115 C1116 1.403 . S
C1116 C1115 1.403 . S
C1116 C1117 1.404 . S
C1116 C1119 1.539 . S
C1117 C1113 1.408 . S
C1117 C1116 1.404 . S
C1117 H1129 0.930 . S
C1118 C1114 1.524 . S
C1118 H1130 0.956 . S
C1118 H1131 0.961 1_565 S
C1118 H1132 0.961 . S
C1119 C1116 1.539 . S
C1119 H1133 0.958 . S
C1119 H1134 0.961 . S
C1119 H1135 0.960 1_565 S
H1120 C1104 0.931 . S
H1121 C1109 0.929 . S
H1122 C1110 0.960 . S
H1123 C1110 0.962 . S
H1124 C1110 0.960 . S
H1125 C1111 0.961 . S
H1126 C1111 0.961 . S
H1127 C1111 0.961 . S
H1128 C1112 0.931 . S
H1129 C1117 0.930 . S
H1130 C1118 0.956 . S
H1131 C1118 0.961 1_545 S
H1132 C1118 0.961 . S
H1133 C1119 0.958 . S
H1134 C1119 0.961 . S
H1135 C1119 0.960 1_545 S
C1136 C1137 1.391 . S
C1136 C1138 1.394 . S
C1136 H1152 0.931 . S
C1137 C1136 1.391 . S
C1137 C1141 1.376 . S
C1138 C1136 1.394 . S
C1138 C1139 1.369 . S
C1138 C1142 1.531 1_565 S
C1139 C1138 1.369 . S
C1139 C1140 1.410 . S
C1139 C1147 1.503 1_565 S
C1140 C1139 1.410 . S
C1140 C1141 1.392 . S
C1140 C1143 1.511 . S
C1141 C1137 1.376 . S
C1141 C1140 1.392 . S
C1141 H1153 0.929 . S
C1142 C1138 1.531 1_545 S
C1142 H1154 0.960 . S
C1142 H1155 0.962 . S
C1142 H1156 0.960 . S
C1143 C1140 1.511 . S
C1143 H1157 0.961 . S
C1143 H1158 0.961 . S
C1143 H1159 0.961 . S
C1144 C1145 1.370 . S
C1144 C1146 1.363 . S
C1144 H1160 0.931 . S
C1145 C1144 1.370 . S
C1145 C1149 1.408 . S
C1146 C1144 1.363 . S
C1146 C1147 1.370 . S
C1146 C1150 1.524 . S
C1147 C1139 1.503 1_545 S
C1147 C1146 1.370 . S
C1147 C1148 1.403 . S
C1148 C1147 1.403 . S
C1148 C1149 1.404 . S
C1148 C1151 1.539 . S
C1149 C1145 1.408 . S
C1149 C1148 1.404 . S
C1149 H1161 0.930 . S
C1150 C1146 1.524 . S
C1150 H1162 0.956 . S
C1150 H1163 0.961 1_545 S
C1150 H1164 0.961 . S
C1151 C1148 1.539 . S
C1151 H1165 0.958 . S
C1151 H1166 0.961 . S
C1151 H1167 0.960 . S
H1152 C1136 0.931 . S
H1153 C1141 0.929 . S
H1154 C1142 0.960 . S
H1155 C1142 0.962 . S
H1156 C1142 0.960 . S
H1157 C1143 0.961 . S
H1158 C1143 0.961 . S
H1159 C1143 0.961 . S
H1160 C1144 0.931 . S
H1161 C1149 0.930 . S
H1162 C1150 0.956 . S
H1163 C1150 0.961 1_565 S
H1164 C1150 0.961 . S
H1165 C1151 0.958 . S
H1166 C1151 0.961 . S
H1167 C1151 0.960 . S
C1168 C1169 1.391 . S
C1168 C1170 1.394 . S
C1168 H1184 0.931 . S
C1169 C1168 1.391 . S
C1169 C1173 1.376 . S
C1170 C1168 1.394 . S
C1170 C1171 1.369 . S
C1170 C1174 1.531 . S
C1171 C1170 1.369 . S
C1171 C1172 1.410 . S
C1171 C1179 1.503 . S
C1172 C1171 1.410 . S
C1172 C1173 1.392 . S
C1172 C1175 1.511 . S
C1173 C1169 1.376 . S
C1173 C1172 1.392 . S
C1173 H1185 0.929 . S
C1174 C1170 1.531 . S
C1174 H1186 0.960 . S
C1174 H1187 0.962 . S
C1174 H1188 0.960 . S
C1175 C1172 1.511 . S
C1175 H1189 0.961 . S
C1175 H1190 0.961 . S
C1175 H1191 0.961 . S
C1176 C1177 1.370 . S
C1176 C1178 1.363 . S
C1176 H1192 0.931 . S
C1177 C1176 1.370 . S
C1177 C1181 1.408 . S
C1178 C1176 1.363 . S
C1178 C1179 1.370 . S
C1178 C1182 1.524 . S
C1179 C1171 1.503 . S
C1179 C1178 1.370 . S
C1179 C1180 1.403 . S
C1180 C1179 1.403 . S
C1180 C1181 1.404 . S
C1180 C1183 1.539 . S
C1181 C1177 1.408 . S
C1181 C1180 1.404 . S
C1181 H1193 0.930 . S
C1182 C1178 1.524 . S
C1182 H1194 0.956 . S
C1182 H1195 0.961 . S
C1182 H1196 0.961 . S
C1183 C1180 1.539 . S
C1183 H1197 0.958 . S
C1183 H1198 0.961 . S
C1183 H1199 0.960 . S
H1184 C1168 0.931 . S
H1185 C1173 0.929 . S
H1186 C1174 0.960 . S
H1187 C1174 0.962 . S
H1188 C1174 0.960 . S
H1189 C1175 0.961 . S
H1190 C1175 0.961 . S
H1191 C1175 0.961 . S
H1192 C1176 0.931 . S
H1193 C1181 0.930 . S
H1194 C1182 0.956 . S
H1195 C1182 0.961 . S
H1196 C1182 0.961 . S
H1197 C1183 0.958 . S
H1198 C1183 0.961 . S
H1199 C1183 0.960 . S
C1200 C1201 1.391 . S
C1200 C1202 1.394 . S
C1200 H1216 0.931 . S
C1201 C1200 1.391 . S
C1201 C1205 1.376 . S
C1202 C1200 1.394 . S
C1202 C1203 1.369 . S
C1202 C1206 1.531 . S
C1203 C1202 1.369 . S
C1203 C1204 1.410 . S
C1203 C1211 1.503 . S
C1204 C1203 1.410 . S
C1204 C1205 1.392 . S
C1204 C1207 1.511 . S
C1205 C1201 1.376 . S
C1205 C1204 1.392 . S
C1205 H1217 0.929 . S
C1206 C1202 1.531 . S
C1206 H1218 0.960 . S
C1206 H1219 0.962 . S
C1206 H1220 0.960 . S
C1207 C1204 1.511 . S
C1207 H1221 0.961 . S
C1207 H1222 0.961 . S
C1207 H1223 0.961 . S
C1208 C1209 1.370 . S
C1208 C1210 1.363 . S
C1208 H1224 0.931 . S
C1209 C1208 1.370 . S
C1209 C1213 1.408 . S
C1210 C1208 1.363 . S
C1210 C1211 1.370 . S
C1210 C1214 1.524 . S
C1211 C1203 1.503 . S
C1211 C1210 1.370 . S
C1211 C1212 1.403 . S
C1212 C1211 1.403 . S
C1212 C1213 1.404 . S
C1212 C1215 1.539 . S
C1213 C1209 1.408 . S
C1213 C1212 1.404 . S
C1213 H1225 0.930 . S
C1214 C1210 1.524 . S
C1214 H1226 0.956 . S
C1214 H1227 0.961 . S
C1214 H1228 0.961 . S
C1215 C1212 1.539 . S
C1215 H1229 0.958 . S
C1215 H1230 0.961 . S
C1215 H1231 0.960 . S
H1216 C1200 0.931 . S
H1217 C1205 0.929 . S
H1218 C1206 0.960 . S
H1219 C1206 0.962 . S
H1220 C1206 0.960 . S
H1221 C1207 0.961 . S
H1222 C1207 0.961 . S
H1223 C1207 0.961 . S
H1224 C1208 0.931 . S
H1225 C1213 0.930 . S
H1226 C1214 0.956 . S
H1227 C1214 0.961 . S
H1228 C1214 0.961 . S
H1229 C1215 0.958 . S
H1230 C1215 0.961 . S
H1231 C1215 0.960 . S
C1232 C1233 1.391 . S
C1232 C1234 1.394 . S
C1232 H1248 0.931 . S
C1233 C1232 1.391 . S
C1233 C1237 1.376 . S
C1234 C1232 1.394 . S
C1234 C1235 1.369 . S
C1234 C1238 1.531 . S
C1235 C1234 1.369 . S
C1235 C1236 1.410 . S
C1235 C1243 1.503 . S
C1236 C1235 1.410 . S
C1236 C1237 1.392 . S
C1236 C1239 1.511 . S
C1237 C1233 1.376 . S
C1237 C1236 1.392 . S
C1237 H1249 0.929 . S
C1238 C1234 1.531 . S
C1238 H1250 0.960 . S
C1238 H1251 0.962 . S
C1238 H1252 0.960 . S
C1239 C1236 1.511 . S
C1239 H1253 0.961 . S
C1239 H1254 0.961 . S
C1239 H1255 0.961 . S
C1240 C1241 1.370 . S
C1240 C1242 1.363 . S
C1240 H1256 0.931 . S
C1241 C1240 1.370 . S
C1241 C1245 1.408 . S
C1242 C1240 1.363 . S
C1242 C1243 1.370 . S
C1242 C1246 1.524 . S
C1243 C1235 1.503 . S
C1243 C1242 1.370 . S
C1243 C1244 1.403 . S
C1244 C1243 1.403 . S
C1244 C1245 1.404 . S
C1244 C1247 1.539 . S
C1245 C1241 1.408 . S
C1245 C1244 1.404 . S
C1245 H1257 0.930 . S
C1246 C1242 1.524 . S
C1246 H1258 0.956 . S
C1246 H1259 0.961 . S
C1246 H1260 0.961 . S
C1247 C1244 1.539 . S
C1247 H1261 0.958 . S
C1247 H1262 0.961 . S
C1247 H1263 0.960 . S
H1248 C1232 0.931 . S
H1249 C1237 0.929 . S
H1250 C1238 0.960 . S
H1251 C1238 0.962 . S
H1252 C1238 0.960 . S
H1253 C1239 0.961 . S
H1254 C1239 0.961 . S
H1255 C1239 0.961 . S
H1256 C1240 0.931 . S
H1257 C1245 0.930 . S
H1258 C1246 0.956 . S
H1259 C1246 0.961 . S
H1260 C1246 0.961 . S
H1261 C1247 0.958 . S
H1262 C1247 0.961 . S
H1263 C1247 0.960 . S
C1264 C1265 1.391 . S
C1264 C1266 1.394 . S
C1264 H1280 0.931 . S
C1265 C1264 1.391 . S
C1265 C1269 1.376 . S
C1266 C1264 1.394 . S
C1266 C1267 1.369 . S
C1266 C1270 1.531 . S
C1267 C1266 1.369 . S
C1267 C1268 1.410 . S
C1267 C1275 1.503 . S
C1268 C1267 1.410 . S
C1268 C1269 1.392 . S
C1268 C1271 1.511 . S
C1269 C1265 1.376 . S
C1269 C1268 1.392 . S
C1269 H1281 0.929 . S
C1270 C1266 1.531 . S
C1270 H1282 0.960 . S
C1270 H1283 0.962 . S
C1270 H1284 0.960 . S
C1271 C1268 1.511 . S
C1271 H1285 0.961 . S
C1271 H1286 0.961 . S
C1271 H1287 0.961 . S
C1272 C1273 1.370 . S
C1272 C1274 1.363 . S
C1272 H1288 0.931 . S
C1273 C1272 1.370 . S
C1273 C1277 1.408 . S
C1274 C1272 1.363 . S
C1274 C1275 1.370 . S
C1274 C1278 1.524 . S
C1275 C1267 1.503 . S
C1275 C1274 1.370 . S
C1275 C1276 1.403 . S
C1276 C1275 1.403 . S
C1276 C1277 1.404 . S
C1276 C1279 1.539 . S
C1277 C1273 1.408 . S
C1277 C1276 1.404 . S
C1277 H1289 0.930 . S
C1278 C1274 1.524 . S
C1278 H1290 0.956 . S
C1278 H1291 0.961 . S
C1278 H1292 0.961 . S
C1279 C1276 1.539 . S
C1279 H1293 0.958 . S
C1279 H1294 0.961 . S
C1279 H1295 0.960 . S
H1280 C1264 0.931 . S
H1281 C1269 0.929 . S
H1282 C1270 0.960 . S
H1283 C1270 0.962 . S
H1284 C1270 0.960 . S
H1285 C1271 0.961 . S
H1286 C1271 0.961 . S
H1287 C1271 0.961 . S
H1288 C1272 0.931 . S
H1289 C1277 0.930 . S
H1290 C1278 0.956 . S
H1291 C1278 0.961 . S
H1292 C1278 0.961 . S
H1293 C1279 0.958 . S
H1294 C1279 0.961 . S
H1295 C1279 0.960 . S
C1296 C1297 1.391 . S
C1296 C1298 1.394 . S
C1296 H1312 0.931 . S
C1297 C1296 1.391 . S
C1297 C1301 1.376 1_655 S
C1298 C1296 1.394 . S
C1298 C1299 1.369 1_655 S
C1298 C1302 1.531 . S
C1299 C1298 1.369 1_455 S
C1299 C1300 1.410 . S
C1299 C1307 1.503 . S
C1300 C1299 1.410 . S
C1300 C1301 1.392 . S
C1300 C1303 1.511 . S
C1301 C1297 1.376 1_455 S
C1301 C1300 1.392 . S
C1301 H1313 0.929 . S
C1302 C1298 1.531 . S
C1302 H1314 0.960 . S
C1302 H1315 0.962 . S
C1302 H1316 0.960 . S
C1303 C1300 1.511 . S
C1303 H1317 0.961 . S
C1303 H1318 0.961 . S
C1303 H1319 0.961 . S
C1304 C1305 1.370 1_655 S
C1304 C1306 1.363 . S
C1304 H1320 0.931 . S
C1305 C1304 1.370 1_455 S
C1305 C1309 1.408 . S
C1306 C1304 1.363 . S
C1306 C1307 1.370 1_655 S
C1306 C1310 1.524 . S
C1307 C1299 1.503 . S
C1307 C1306 1.370 1_455 S
C1307 C1308 1.403 . S
C1308 C1307 1.403 . S
C1308 C1309 1.404 . S
C1308 C1311 1.539 . S
C1309 C1305 1.408 . S
C1309 C1308 1.404 . S
C1309 H1321 0.930 . S
C1310 C1306 1.524 . S
C1310 H1322 0.956 . S
C1310 H1323 0.961 . S
C1310 H1324 0.961 . S
C1311 C1308 1.539 . S
C1311 H1325 0.958 . S
C1311 H1326 0.961 . S
C1311 H1327 0.960 . S
H1312 C1296 0.931 . S
H1313 C1301 0.929 . S
H1314 C1302 0.960 . S
H1315 C1302 0.962 . S
H1316 C1302 0.960 . S
H1317 C1303 0.961 . S
H1318 C1303 0.961 . S
H1319 C1303 0.961 . S
H1320 C1304 0.931 . S
H1321 C1309 0.930 . S
H1322 C1310 0.956 . S
H1323 C1310 0.961 . S
H1324 C1310 0.961 . S
H1325 C1311 0.958 . S
H1326 C1311 0.961 . S
H1327 C1311 0.960 . S
C1328 C1329 1.391 . S
C1328 C1330 1.394 . S
C1328 H1344 0.931 . S
C1329 C1328 1.391 . S
C1329 C1333 1.376 . S
C1330 C1328 1.394 . S
C1330 C1331 1.369 . S
C1330 C1334 1.531 . S
C1331 C1330 1.369 . S
C1331 C1332 1.410 . S
C1331 C1339 1.503 . S
C1332 C1331 1.410 . S
C1332 C1333 1.392 . S
C1332 C1335 1.511 . S
C1333 C1329 1.376 . S
C1333 C1332 1.392 . S
C1333 H1345 0.929 . S
C1334 C1330 1.531 . S
C1334 H1346 0.960 . S
C1334 H1347 0.962 . S
C1334 H1348 0.960 . S
C1335 C1332 1.511 . S
C1335 H1349 0.961 . S
C1335 H1350 0.961 . S
C1335 H1351 0.961 . S
C1336 C1337 1.370 . S
C1336 C1338 1.363 . S
C1336 H1352 0.931 . S
C1337 C1336 1.370 . S
C1337 C1341 1.408 . S
C1338 C1336 1.363 . S
C1338 C1339 1.370 . S
C1338 C1342 1.524 . S
C1339 C1331 1.503 . S
C1339 C1338 1.370 . S
C1339 C1340 1.403 . S
C1340 C1339 1.403 . S
C1340 C1341 1.404 . S
C1340 C1343 1.539 . S
C1341 C1337 1.408 . S
C1341 C1340 1.404 . S
C1341 H1353 0.930 . S
C1342 C1338 1.524 . S
C1342 H1354 0.956 . S
C1342 H1355 0.961 . S
C1342 H1356 0.961 . S
C1343 C1340 1.539 . S
C1343 H1357 0.934 1_554 S
C1343 H1358 0.961 . S
C1343 H1359 0.960 . S
H1344 C1328 0.931 . S
H1345 C1333 0.929 . S
H1346 C1334 0.960 . S
H1347 C1334 0.962 . S
H1348 C1334 0.960 . S
H1349 C1335 0.961 . S
H1350 C1335 0.961 . S
H1351 C1335 0.961 . S
H1352 C1336 0.931 . S
H1353 C1341 0.930 . S
H1354 C1342 0.956 . S
H1355 C1342 0.961 . S
H1356 C1342 0.961 . S
H1357 C1343 0.934 1_556 S
H1358 C1343 0.961 . S
H1359 C1343 0.960 . S
C1360 C1361 1.391 . S
C1360 C1362 1.394 . S
C1360 H1376 0.931 . S
C1361 C1360 1.391 . S
C1361 C1365 1.376 . S
C1362 C1360 1.394 . S
C1362 C1363 1.369 . S
C1362 C1366 1.531 . S
C1363 C1362 1.369 . S
C1363 C1364 1.410 . S
C1363 C1371 1.503 . S
C1364 C1363 1.410 . S
C1364 C1365 1.392 . S
C1364 C1367 1.511 . S
C1365 C1361 1.376 . S
C1365 C1364 1.392 . S
C1365 H1377 0.929 . S
C1366 C1362 1.531 . S
C1366 H1378 0.960 . S
C1366 H1379 0.962 . S
C1366 H1380 0.960 . S
C1367 C1364 1.511 . S
C1367 H1381 0.961 . S
C1367 H1382 0.961 . S
C1367 H1383 0.961 . S
C1368 C1369 1.370 . S
C1368 C1370 1.363 . S
C1368 H1384 0.931 . S
C1369 C1368 1.370 . S
C1369 C1373 1.408 . S
C1370 C1368 1.363 . S
C1370 C1371 1.370 . S
C1370 C1374 1.524 . S
C1371 C1363 1.503 . S
C1371 C1370 1.370 . S
C1371 C1372 1.403 . S
C1372 C1371 1.403 . S
C1372 C1373 1.404 . S
C1372 C1375 1.539 . S
C1373 C1369 1.408 . S
C1373 C1372 1.404 . S
C1373 H1385 0.930 . S
C1374 C1370 1.524 . S
C1374 H1386 0.956 . S
C1374 H1387 0.961 . S
C1374 H1388 0.961 . S
C1375 C1372 1.539 . S
C1375 H1389 0.958 . S
C1375 H1390 0.961 . S
C1375 H1391 0.960 . S
H1376 C1360 0.931 . S
H1377 C1365 0.929 . S
H1378 C1366 0.960 . S
H1379 C1366 0.962 . S
H1380 C1366 0.960 . S
H1381 C1367 0.961 . S
H1382 C1367 0.961 . S
H1383 C1367 0.961 . S
H1384 C1368 0.931 . S
H1385 C1373 0.930 . S
H1386 C1374 0.956 . S
H1387 C1374 0.961 . S
H1388 C1374 0.961 . S
H1389 C1375 0.958 . S
H1390 C1375 0.961 . S
H1391 C1375 0.960 . S
C1392 C1393 1.391 . S
C1392 C1394 1.394 . S
C1392 H1408 0.931 . S
C1393 C1392 1.391 . S
C1393 C1397 1.376 1_455 S
C1394 C1392 1.394 . S
C1394 C1395 1.355 1_455 S
C1394 C1398 1.531 . S
C1395 C1394 1.355 1_655 S
C1395 C1396 1.423 . S
C1395 C1403 1.504 . S
C1396 C1395 1.423 . S
C1396 C1397 1.392 . S
C1396 C1399 1.511 . S
C1397 C1393 1.376 1_655 S
C1397 C1396 1.392 . S
C1397 H1409 0.929 . S
C1398 C1394 1.531 . S
C1398 H1410 0.960 . S
C1398 H1411 0.962 . S
C1398 H1412 0.960 . S
C1399 C1396 1.511 . S
C1399 H1413 0.961 . S
C1399 H1414 0.961 . S
C1399 H1415 0.961 . S
C1400 C1401 1.370 1_455 S
C1400 C1402 1.363 . S
C1400 H1416 0.931 . S
C1401 C1400 1.370 1_655 S
C1401 C1405 1.408 . S
C1402 C1400 1.363 . S
C1402 C1403 1.370 1_455 S
C1402 C1406 1.524 . S
C1403 C1395 1.504 . S
C1403 C1402 1.370 1_655 S
C1403 C1404 1.403 . S
C1404 C1403 1.403 . S
C1404 C1405 1.404 . S
C1404 C1407 1.539 . S
C1405 C1401 1.408 . S
C1405 C1404 1.404 . S
C1405 H1417 0.930 . S
C1406 C1402 1.524 . S
C1406 H1418 0.956 . S
C1406 H1419 0.961 1_455 S
C1406 H1420 0.961 . S
C1407 C1404 1.539 . S
C1407 H1421 0.958 . S
C1407 H1422 0.961 . S
C1407 H1423 0.960 . S
H1408 C1392 0.931 . S
H1409 C1397 0.929 . S
H1410 C1398 0.960 . S
H1411 C1398 0.962 . S
H1412 C1398 0.960 . S
H1413 C1399 0.961 . S
H1414 C1399 0.961 . S
H1415 C1399 0.961 . S
H1416 C1400 0.931 . S
H1417 C1405 0.930 . S
H1418 C1406 0.956 . S
H1419 C1406 0.961 1_655 S
H1420 C1406 0.961 . S
H1421 C1407 0.958 . S
H1422 C1407 0.961 . S
H1423 C1407 0.960 . S
C1424 C1425 1.391 . S
C1424 C1426 1.394 . S
C1424 H1440 0.931 . S
C1425 C1424 1.391 . S
C1425 C1429 1.376 . S
C1426 C1424 1.394 . S
C1426 C1427 1.369 . S
C1426 C1430 1.531 . S
C1427 C1426 1.369 . S
C1427 C1428 1.410 . S
C1427 C1435 1.508 . S
C1428 C1427 1.410 . S
C1428 C1429 1.392 . S
C1428 C1431 1.511 1_655 S
C1429 C1425 1.376 . S
C1429 C1428 1.392 . S
C1429 H1441 0.929 . S
C1430 C1426 1.531 . S
C1430 H1442 0.960 . S
C1430 H1443 0.962 . S
C1430 H1444 0.960 . S
C1431 C1428 1.511 1_455 S
C1431 H1445 0.961 . S
C1431 H1446 0.961 . S
C1431 H1447 0.970 . S
C1432 C1433 1.370 . S
C1432 C1434 1.363 . S
C1432 H1448 0.931 . S
C1433 C1432 1.370 . S
C1433 C1437 1.408 1_455 S
C1434 C1432 1.363 . S
C1434 C1435 1.356 1_455 S
C1434 C1438 1.524 . S
C1435 C1427 1.508 . S
C1435 C1434 1.356 1_655 S
C1435 C1436 1.412 . S
C1436 C1435 1.412 . S
C1436 C1437 1.404 . S
C1436 C1439 1.539 . S
C1437 C1433 1.408 1_655 S
C1437 C1436 1.404 . S
C1437 H1449 0.930 . S
C1438 C1434 1.524 . S
C1438 H1450 0.956 . S
C1438 H1451 0.961 . S
C1438 H1452 0.961 . S
C1439 C1436 1.539 . S
C1439 H1453 0.958 . S
C1439 H1454 0.961 . S
C1439 H1455 0.960 . S
H1440 C1424 0.931 . S
H1441 C1429 0.929 . S
H1442 C1430 0.960 . S
H1443 C1430 0.962 . S
H1444 C1430 0.960 . S
H1445 C1431 0.961 . S
H1446 C1431 0.961 . S
H1447 C1431 0.970 . S
H1448 C1432 0.931 . S
H1449 C1437 0.930 . S
H1450 C1438 0.956 . S
H1451 C1438 0.961 . S
H1452 C1438 0.961 . S
H1453 C1439 0.958 . S
H1454 C1439 0.961 . S
H1455 C1439 0.960 . S
C1456 C1457 1.391 . S
C1456 C1458 1.394 . S
C1456 H1472 0.931 . S
C1457 C1456 1.391 . S
C1457 C1461 1.376 . S
C1458 C1456 1.394 . S
C1458 C1459 1.369 . S
C1458 C1462 1.531 . S
C1459 C1458 1.369 . S
C1459 C1460 1.410 . S
C1459 C1467 1.503 . S
C1460 C1459 1.410 . S
C1460 C1461 1.392 . S
C1460 C1463 1.511 . S
C1461 C1457 1.376 . S
C1461 C1460 1.392 . S
C1461 H1473 0.929 . S
C1462 C1458 1.531 . S
C1462 H1474 0.960 . S
C1462 H1475 0.962 . S
C1462 H1476 0.960 . S
C1463 C1460 1.511 . S
C1463 H1477 0.961 . S
C1463 H1478 0.961 . S
C1463 H1479 0.961 . S
C1464 C1465 1.370 . S
C1464 C1466 1.363 . S
C1464 H1480 0.931 . S
C1465 C1464 1.370 . S
C1465 C1469 1.408 . S
C1466 C1464 1.363 . S
C1466 C1467 1.370 . S
C1466 C1470 1.524 . S
C1467 C1459 1.503 . S
C1467 C1466 1.370 . S
C1467 C1468 1.403 . S
C1468 C1467 1.403 . S
C1468 C1469 1.404 . S
C1468 C1471 1.539 . S
C1469 C1465 1.408 . S
C1469 C1468 1.404 . S
C1469 H1481 0.930 . S
C1470 C1466 1.524 . S
C1470 H1482 0.956 . S
C1470 H1483 0.961 . S
C1470 H1484 0.961 . S
C1471 C1468 1.539 . S
C1471 H1485 0.958 . S
C1471 H1486 0.961 . S
C1471 H1487 0.960 . S
H1472 C1456 0.931 . S
H1473 C1461 0.929 . S
H1474 C1462 0.960 . S
H1475 C1462 0.962 . S
H1476 C1462 0.960 . S
H1477 C1463 0.961 . S
H1478 C1463 0.961 . S
H1479 C1463 0.961 . S
H1480 C1464 0.931 . S
H1481 C1469 0.930 . S
H1482 C1470 0.956 . S
H1483 C1470 0.961 . S
H1484 C1470 0.961 . S
H1485 C1471 0.958 . S
H1486 C1471 0.961 . S
H1487 C1471 0.960 . S
C1488 C1489 1.391 . S
C1488 C1490 1.394 . S
C1488 H1504 0.931 . S
C1489 C1488 1.391 . S
C1489 C1493 1.376 . S
C1490 C1488 1.394 . S
C1490 C1491 1.369 . S
C1490 C1494 1.531 . S
C1491 C1490 1.369 . S
C1491 C1492 1.410 . S
C1491 C1499 1.503 . S
C1492 C1491 1.410 . S
C1492 C1493 1.392 . S
C1492 C1495 1.511 . S
C1493 C1489 1.376 . S
C1493 C1492 1.392 . S
C1493 H1505 0.929 . S
C1494 C1490 1.531 . S
C1494 H1506 0.960 . S
C1494 H1507 0.962 . S
C1494 H1508 0.960 . S
C1495 C1492 1.511 . S
C1495 H1509 0.961 . S
C1495 H1510 0.961 . S
C1495 H1511 0.961 . S
C1496 C1497 1.370 . S
C1496 C1498 1.363 . S
C1496 H1512 0.931 . S
C1497 C1496 1.370 . S
C1497 C1501 1.408 . S
C1498 C1496 1.363 . S
C1498 C1499 1.370 . S
C1498 C1502 1.524 . S
C1499 C1491 1.503 . S
C1499 C1498 1.370 . S
C1499 C1500 1.403 . S
C1500 C1499 1.403 . S
C1500 C1501 1.404 . S
C1500 C1503 1.539 . S
C1501 C1497 1.408 . S
C1501 C1500 1.404 . S
C1501 H1513 0.930 . S
C1502 C1498 1.524 . S
C1502 H1514 0.956 . S
C1502 H1515 0.961 . S
C1502 H1516 0.961 . S
C1503 C1500 1.539 . S
C1503 H1517 0.958 . S
C1503 H1518 0.961 . S
C1503 H1519 0.960 . S
H1504 C1488 0.931 . S
H1505 C1493 0.929 . S
H1506 C1494 0.960 . S
H1507 C1494 0.962 . S
H1508 C1494 0.960 . S
H1509 C1495 0.961 . S
H1510 C1495 0.961 . S
H1511 C1495 0.961 . S
H1512 C1496 0.931 . S
H1513 C1501 0.930 . S
H1514 C1502 0.956 . S
H1515 C1502 0.961 . S
H1516 C1502 0.961 . S
H1517 C1503 0.958 . S
H1518 C1503 0.961 . S
H1519 C1503 0.960 . S
C1520 C1521 1.391 1_455 S
C1520 C1522 1.394 . S
C1520 H1536 0.931 . S
C1521 C1520 1.391 1_655 S
C1521 C1525 1.376 . S
C1522 C1520 1.394 . S
C1522 C1523 1.369 1_455 S
C1522 C1526 1.531 . S
C1523 C1522 1.369 1_655 S
C1523 C1524 1.410 . S
C1523 C1531 1.503 1_655 S
C1524 C1523 1.410 . S
C1524 C1525 1.392 . S
C1524 C1527 1.511 . S
C1525 C1521 1.376 . S
C1525 C1524 1.392 . S
C1525 H1537 0.929 . S
C1526 C1522 1.531 . S
C1526 H1538 0.960 . S
C1526 H1539 0.962 . S
C1526 H1540 0.960 . S
C1527 C1524 1.511 . S
C1527 H1541 0.961 . S
C1527 H1542 0.961 . S
C1527 H1543 0.961 . S
C1528 C1529 1.370 . S
C1528 C1530 1.363 . S
C1528 H1544 0.931 . S
C1529 C1528 1.370 . S
C1529 C1533 1.408 . S
C1530 C1528 1.363 . S
C1530 C1531 1.370 . S
C1530 C1534 1.524 1_455 S
C1531 C1523 1.503 1_455 S
C1531 C1530 1.370 . S
C1531 C1532 1.403 . S
C1532 C1531 1.403 . S
C1532 C1533 1.404 . S
C1532 C1535 1.539 . S
C1533 C1529 1.408 . S
C1533 C1532 1.404 . S
C1533 H1545 0.930 . S
C1534 C1530 1.524 1_655 S
C1534 H1546 0.956 1_655 S
C1534 H1547 0.961 . S
C1534 H1548 0.961 . S
C1535 C1532 1.539 . S
C1535 H1549 0.958 . S
C1535 H1550 0.961 . S
C1535 H1551 0.960 1_455 S
H1536 C1520 0.931 . S
H1537 C1525 0.929 . S
H1538 C1526 0.960 . S
H1539 C1526 0.962 . S
H1540 C1526 0.960 . S
H1541 C1527 0.961 . S
H1542 C1527 0.961 . S
H1543 C1527 0.961 . S
H1544 C1528 0.931 . S
H1545 C1533 0.930 . S
H1546 C1534 0.956 1_455 S
H1547 C1534 0.961 . S
H1548 C1534 0.961 . S
H1549 C1535 0.958 . S
H1550 C1535 0.961 . S
H1551 C1535 0.960 1_655 S
C1552 C1553 1.391 . S
C1552 C1554 1.394 . S
C1552 H1568 0.931 . S
C1553 C1552 1.391 . S
C1553 C1557 1.376 1_455 S
C1554 C1552 1.394 . S
C1554 C1555 1.369 . S
C1554 C1558 1.531 . S
C1555 C1554 1.369 . S
C1555 C1556 1.410 1_455 S
C1555 C1563 1.503 1_455 S
C1556 C1555 1.410 1_655 S
C1556 C1557 1.392 . S
C1556 C1559 1.511 . S
C1557 C1553 1.376 1_655 S
C1557 C1556 1.392 . S
C1557 H1569 0.929 . S
C1558 C1554 1.531 . S
C1558 H1570 0.960 . S
C1558 H1571 0.962 . S
C1558 H1572 0.960 . S
C1559 C1556 1.511 . S
C1559 H1573 0.961 . S
C1559 H1574 0.961 . S
C1559 H1575 0.961 . S
C1560 C1561 1.370 . S
C1560 C1562 1.363 1_655 S
C1560 H1576 0.937 . S
C1561 C1560 1.370 . S
C1561 C1565 1.408 . S
C1562 C1560 1.363 1_455 S
C1562 C1563 1.370 1_455 S
C1562 C1566 1.524 . S
C1563 C1555 1.503 1_655 S
C1563 C1562 1.370 1_655 S
C1563 C1564 1.403 . S
C1564 C1563 1.403 . S
C1564 C1565 1.404 . S
C1564 C1567 1.539 . S
C1565 C1561 1.408 . S
C1565 C1564 1.404 . S
C1565 H1577 0.930 . S
C1566 C1562 1.524 . S
C1566 H1578 0.956 . S
C1566 H1579 0.961 . S
C1566 H1580 0.961 . S
C1567 C1564 1.539 . S
C1567 H1581 0.958 . S
C1567 H1582 0.961 . S
C1567 H1583 0.960 . S
H1568 C1552 0.931 . S
H1569 C1557 0.929 . S
H1570 C1558 0.960 . S
H1571 C1558 0.962 . S
H1572 C1558 0.960 . S
H1573 C1559 0.961 . S
H1574 C1559 0.961 . S
H1575 C1559 0.961 . S
H1576 C1560 0.937 . S
H1577 C1565 0.930 . S
H1578 C1566 0.956 . S
H1579 C1566 0.961 . S
H1580 C1566 0.961 . S
H1581 C1567 0.958 . S
H1582 C1567 0.961 . S
H1583 C1567 0.960 . S
C1584 C1585 1.391 . S
C1584 C1586 1.394 . S
C1584 H1600 0.931 . S
C1585 C1584 1.391 . S
C1585 C1589 1.376 . S
C1586 C1584 1.394 . S
C1586 C1587 1.369 . S
C1586 C1590 1.531 . S
C1587 C1586 1.369 . S
C1587 C1588 1.410 . S
C1587 C1595 1.503 . S
C1588 C1587 1.410 . S
C1588 C1589 1.392 . S
C1588 C1591 1.511 . S
C1589 C1585 1.376 . S
C1589 C1588 1.392 . S
C1589 H1601 0.929 . S
C1590 C1586 1.531 . S
C1590 H1602 0.960 . S
C1590 H1603 0.962 . S
C1590 H1604 0.960 . S
C1591 C1588 1.511 . S
C1591 H1605 0.961 . S
C1591 H1606 0.961 . S
C1591 H1607 0.961 . S
C1592 C1593 1.370 . S
C1592 C1594 1.363 . S
C1592 H1608 0.931 . S
C1593 C1592 1.370 . S
C1593 C1597 1.408 . S
C1594 C1592 1.363 . S
C1594 C1595 1.370 . S
C1594 C1598 1.524 . S
C1595 C1587 1.503 . S
C1595 C1594 1.370 . S
C1595 C1596 1.403 . S
C1596 C1595 1.403 . S
C1596 C1597 1.404 . S
C1596 C1599 1.539 . S
C1597 C1593 1.408 . S
C1597 C1596 1.404 . S
C1597 H1609 0.930 . S
C1598 C1594 1.524 . S
C1598 H1610 0.956 . S
C1598 H1611 0.961 . S
C1598 H1612 0.961 . S
C1599 C1596 1.539 . S
C1599 H1613 0.958 . S
C1599 H1614 0.961 . S
C1599 H1615 0.960 . S
H1600 C1584 0.931 . S
H1601 C1589 0.929 . S
H1602 C1590 0.960 . S
H1603 C1590 0.962 . S
H1604 C1590 0.960 . S
H1605 C1591 0.961 . S
H1606 C1591 0.961 . S
H1607 C1591 0.961 . S
H1608 C1592 0.931 . S
H1609 C1597 0.930 . S
H1610 C1598 0.956 . S
H1611 C1598 0.961 . S
H1612 C1598 0.961 . S
H1613 C1599 0.958 . S
H1614 C1599 0.961 . S
H1615 C1599 0.960 . S
C1616 C1617 1.391 . S
C1616 C1618 1.394 . S
C1616 H1632 0.931 . S
C1617 C1616 1.391 . S
C1617 C1621 1.376 . S
C1618 C1616 1.394 . S
C1618 C1619 1.369 . S
C1618 C1622 1.531 . S
C1619 C1618 1.369 . S
C1619 C1620 1.410 1_655 S
C1619 C1627 1.503 1_655 S
C1620 C1619 1.410 1_455 S
C1620 C1621 1.392 1_455 S
C1620 C1623 1.511 . S
C1621 C1617 1.376 . S
C1621 C1620 1.392 1_655 S
C1621 H1633 0.929 . S
C1622 C1618 1.531 . S
C1622 H1634 0.959 1_655 S
C1622 H1635 0.962 . S
C1622 H1636 0.960 . S
C1623 C1620 1.511 . S
C1623 H1637 0.961 . S
C1623 H1638 0.961 . S
C1623 H1639 0.961 . S
C1624 C1625 1.370 . S
C1624 C1626 1.363 1_455 S
C1624 H1640 0.931 1_455 S
C1625 C1624 1.370 . S
C1625 C1629 1.408 . S
C1626 C1624 1.363 1_655 S
C1626 C1627 1.370 1_655 S
C1626 C1630 1.524 . S
C1627 C1619 1.503 1_455 S
C1627 C1626 1.370 1_455 S
C1627 C1628 1.403 . S
C1628 C1627 1.403 . S
C1628 C1629 1.404 . S
C1628 C1631 1.539 . S
C1629 C1625 1.408 . S
C1629 C1628 1.404 . S
C1629 H1641 0.930 . S
C1630 C1626 1.524 . S
C1630 H1642 0.956 . S
C1630 H1643 0.961 . S
C1630 H1644 0.961 . S
C1631 C1628 1.539 . S
C1631 H1645 0.958 . S
C1631 H1646 0.961 . S
C1631 H1647 0.960 . S
H1632 C1616 0.931 . S
H1633 C1621 0.929 . S
H1634 C1622 0.959 1_455 S
H1635 C1622 0.962 . S
H1636 C1622 0.960 . S
H1637 C1623 0.961 . S
H1638 C1623 0.961 . S
H1639 C1623 0.961 . S
H1640 C1624 0.931 1_655 S
H1641 C1629 0.930 . S
H1642 C1630 0.956 . S
H1643 C1630 0.961 . S
H1644 C1630 0.961 . S
H1645 C1631 0.958 . S
H1646 C1631 0.961 . S
H1647 C1631 0.960 . S
C1648 C1649 1.391 . S
C1648 C1650 1.394 . S
C1648 H1664 0.931 . S
C1649 C1648 1.391 . S
C1649 C1653 1.376 . S
C1650 C1648 1.394 . S
C1650 C1651 1.369 . S
C1650 C1654 1.531 . S
C1651 C1650 1.369 . S
C1651 C1652 1.410 . S
C1651 C1659 1.503 . S
C1652 C1651 1.410 . S
C1652 C1653 1.392 . S
C1652 C1655 1.511 . S
C1653 C1649 1.376 . S
C1653 C1652 1.392 . S
C1653 H1665 0.929 . S
C1654 C1650 1.531 . S
C1654 H1666 0.960 . S
C1654 H1667 0.962 . S
C1654 H1668 0.960 . S
C1655 C1652 1.511 . S
C1655 H1669 0.961 . S
C1655 H1670 0.961 . S
C1655 H1671 0.961 . S
C1656 C1657 1.370 . S
C1656 C1658 1.363 . S
C1656 H1672 0.931 . S
C1657 C1656 1.370 . S
C1657 C1661 1.408 . S
C1658 C1656 1.363 . S
C1658 C1659 1.370 . S
C1658 C1662 1.524 . S
C1659 C1651 1.503 . S
C1659 C1658 1.370 . S
C1659 C1660 1.403 . S
C1660 C1659 1.403 . S
C1660 C1661 1.404 . S
C1660 C1663 1.539 . S
C1661 C1657 1.408 . S
C1661 C1660 1.404 . S
C1661 H1673 0.930 . S
C1662 C1658 1.524 . S
C1662 H1674 0.956 . S
C1662 H1675 0.961 . S
C1662 H1676 0.961 . S
C1663 C1660 1.539 . S
C1663 H1677 0.958 . S
C1663 H1678 0.961 . S
C1663 H1679 0.960 . S
H1664 C1648 0.931 . S
H1665 C1653 0.929 . S
H1666 C1654 0.960 . S
H1667 C1654 0.962 . S
H1668 C1654 0.960 . S
H1669 C1655 0.961 . S
H1670 C1655 0.961 . S
H1671 C1655 0.961 . S
H1672 C1656 0.931 . S
H1673 C1661 0.930 . S
H1674 C1662 0.956 . S
H1675 C1662 0.961 . S
H1676 C1662 0.961 . S
H1677 C1663 0.958 . S
H1678 C1663 0.961 . S
H1679 C1663 0.960 . S
C1680 C1681 1.391 . S
C1680 C1682 1.394 . S
C1680 H1696 0.931 . S
C1681 C1680 1.391 . S
C1681 C1685 1.376 . S
C1682 C1680 1.394 . S
C1682 C1683 1.369 . S
C1682 C1686 1.531 . S
C1683 C1682 1.369 . S
C1683 C1684 1.410 . S
C1683 C1691 1.503 . S
C1684 C1683 1.410 . S
C1684 C1685 1.392 . S
C1684 C1687 1.511 . S
C1685 C1681 1.376 . S
C1685 C1684 1.392 . S
C1685 H1697 0.929 . S
C1686 C1682 1.531 . S
C1686 H1698 0.960 . S
C1686 H1699 0.962 . S
C1686 H1700 0.960 . S
C1687 C1684 1.511 . S
C1687 H1701 0.961 . S
C1687 H1702 0.961 . S
C1687 H1703 0.961 . S
C1688 C1689 1.370 . S
C1688 C1690 1.363 . S
C1688 H1704 0.931 . S
C1689 C1688 1.370 . S
C1689 C1693 1.408 . S
C1690 C1688 1.363 . S
C1690 C1691 1.370 . S
C1690 C1694 1.524 . S
C1691 C1683 1.503 . S
C1691 C1690 1.370 . S
C1691 C1692 1.403 . S
C1692 C1691 1.403 . S
C1692 C1693 1.404 . S
C1692 C1695 1.539 . S
C1693 C1689 1.408 . S
C1693 C1692 1.404 . S
C1693 H1705 0.930 . S
C1694 C1690 1.524 . S
C1694 H1706 0.956 . S
C1694 H1707 0.961 . S
C1694 H1708 0.961 . S
C1695 C1692 1.539 . S
C1695 H1709 0.958 . S
C1695 H1710 0.961 . S
C1695 H1711 0.960 . S
H1696 C1680 0.931 . S
H1697 C1685 0.929 . S
H1698 C1686 0.960 . S
H1699 C1686 0.962 . S
H1700 C1686 0.960 . S
H1701 C1687 0.961 . S
H1702 C1687 0.961 . S
H1703 C1687 0.961 . S
H1704 C1688 0.931 . S
H1705 C1693 0.930 . S
H1706 C1694 0.956 . S
H1707 C1694 0.961 . S
H1708 C1694 0.961 . S
H1709 C1695 0.958 . S
H1710 C1695 0.961 . S
H1711 C1695 0.960 . S
C1712 C1713 1.391 . S
C1712 C1714 1.394 . S
C1712 H1728 0.931 . S
C1713 C1712 1.391 . S
C1713 C1717 1.376 1_455 S
C1714 C1712 1.394 . S
C1714 C1715 1.369 . S
C1714 C1718 1.531 . S
C1715 C1714 1.369 . S
C1715 C1716 1.410 1_455 S
C1715 C1723 1.503 1_455 S
C1716 C1715 1.410 1_655 S
C1716 C1717 1.392 . S
C1716 C1719 1.511 . S
C1717 C1713 1.376 1_655 S
C1717 C1716 1.392 . S
C1717 H1729 0.929 . S
C1718 C1714 1.531 . S
C1718 H1730 0.960 . S
C1718 H1731 0.962 . S
C1718 H1732 0.960 . S
C1719 C1716 1.511 . S
C1719 H1733 0.961 . S
C1719 H1734 0.961 . S
C1719 H1735 0.961 . S
C1720 C1721 1.370 . S
C1720 C1722 1.363 1_655 S
C1720 H1736 0.931 1_655 S
C1721 C1720 1.370 . S
C1721 C1725 1.408 . S
C1722 C1720 1.363 1_455 S
C1722 C1723 1.370 1_455 S
C1722 C1726 1.524 . S
C1723 C1715 1.503 1_655 S
C1723 C1722 1.370 1_655 S
C1723 C1724 1.403 . S
C1724 C1723 1.403 . S
C1724 C1725 1.404 . S
C1724 C1727 1.539 . S
C1725 C1721 1.408 . S
C1725 C1724 1.404 . S
C1725 H1737 0.930 . S
C1726 C1722 1.524 . S
C1726 H1738 0.956 . S
C1726 H1739 0.961 . S
C1726 H1740 0.961 . S
C1727 C1724 1.539 . S
C1727 H1741 0.958 . S
C1727 H1742 0.961 . S
C1727 H1743 0.960 . S
H1728 C1712 0.931 . S
H1729 C1717 0.929 . S
H1730 C1718 0.960 . S
H1731 C1718 0.962 . S
H1732 C1718 0.960 . S
H1733 C1719 0.961 . S
H1734 C1719 0.961 . S
H1735 C1719 0.961 . S
H1736 C1720 0.931 1_455 S
H1737 C1725 0.930 . S
H1738 C1726 0.956 . S
H1739 C1726 0.961 . S
H1740 C1726 0.961 . S
H1741 C1727 0.958 . S
H1742 C1727 0.961 . S
H1743 C1727 0.960 . S
C1744 C1745 1.391 . S
C1744 C1746 1.394 . S
C1744 H1760 0.931 . S
C1745 C1744 1.391 . S
C1745 C1749 1.376 . S
C1746 C1744 1.394 . S
C1746 C1747 1.369 . S
C1746 C1750 1.531 . S
C1747 C1746 1.369 . S
C1747 C1748 1.410 . S
C1747 C1755 1.503 . S
C1748 C1747 1.410 . S
C1748 C1749 1.392 . S
C1748 C1751 1.511 . S
C1749 C1745 1.376 . S
C1749 C1748 1.392 . S
C1749 H1761 0.929 . S
C1750 C1746 1.531 . S
C1750 H1762 0.960 . S
C1750 H1763 0.962 . S
C1750 H1764 0.960 . S
C1751 C1748 1.511 . S
C1751 H1765 0.961 . S
C1751 H1766 0.961 . S
C1751 H1767 0.961 . S
C1752 C1753 1.370 . S
C1752 C1754 1.363 . S
C1752 H1768 0.931 . S
C1753 C1752 1.370 . S
C1753 C1757 1.408 . S
C1754 C1752 1.363 . S
C1754 C1755 1.370 . S
C1754 C1758 1.524 . S
C1755 C1747 1.503 . S
C1755 C1754 1.370 . S
C1755 C1756 1.403 . S
C1756 C1755 1.403 . S
C1756 C1757 1.404 . S
C1756 C1759 1.539 . S
C1757 C1753 1.408 . S
C1757 C1756 1.404 . S
C1757 H1769 0.930 . S
C1758 C1754 1.524 . S
C1758 H1770 0.956 . S
C1758 H1771 0.961 . S
C1758 H1772 0.961 . S
C1759 C1756 1.539 . S
C1759 H1773 0.958 . S
C1759 H1774 0.961 . S
C1759 H1775 0.960 . S
H1760 C1744 0.931 . S
H1761 C1749 0.929 . S
H1762 C1750 0.960 . S
H1763 C1750 0.962 . S
H1764 C1750 0.960 . S
H1765 C1751 0.961 . S
H1766 C1751 0.961 . S
H1767 C1751 0.961 . S
H1768 C1752 0.931 . S
H1769 C1757 0.930 . S
H1770 C1758 0.956 . S
H1771 C1758 0.961 . S
H1772 C1758 0.961 . S
H1773 C1759 0.958 . S
H1774 C1759 0.961 . S
H1775 C1759 0.960 . S
C1776 C1777 1.391 . S
C1776 C1778 1.394 . S
C1776 H1792 0.931 . S
C1777 C1776 1.391 . S
C1777 C1781 1.376 . S
C1778 C1776 1.394 . S
C1778 C1779 1.369 . S
C1778 C1782 1.531 . S
C1779 C1778 1.369 . S
C1779 C1780 1.410 1_455 S
C1779 C1787 1.503 1_455 S
C1780 C1779 1.410 1_655 S
C1780 C1781 1.392 1_655 S
C1780 C1783 1.511 . S
C1781 C1777 1.376 . S
C1781 C1780 1.392 1_455 S
C1781 H1793 0.929 1_455 S
C1782 C1778 1.531 . S
C1782 H1794 0.960 . S
C1782 H1795 0.962 . S
C1782 H1796 0.960 . S
C1783 C1780 1.511 . S
C1783 H1797 0.961 . S
C1783 H1798 0.961 . S
C1783 H1799 0.961 . S
C1784 C1785 1.370 . S
C1784 C1786 1.363 . S
C1784 H1800 0.931 . S
C1785 C1784 1.370 . S
C1785 C1789 1.408 . S
C1786 C1784 1.363 . S
C1786 C1787 1.370 . S
C1786 C1790 1.524 1_655 S
C1787 C1779 1.503 1_655 S
C1787 C1786 1.370 . S
C1787 C1788 1.403 . S
C1788 C1787 1.403 . S
C1788 C1789 1.404 . S
C1788 C1791 1.539 . S
C1789 C1785 1.408 . S
C1789 C1788 1.404 . S
C1789 H1801 0.930 . S
C1790 C1786 1.524 1_455 S
C1790 H1802 0.956 . S
C1790 H1803 0.961 . S
C1790 H1804 0.961 . S
C1791 C1788 1.539 . S
C1791 H1805 0.958 . S
C1791 H1806 0.961 . S
C1791 H1807 0.960 . S
H1792 C1776 0.931 . S
H1793 C1781 0.929 1_655 S
H1794 C1782 0.960 . S
H1795 C1782 0.962 . S
H1796 C1782 0.960 . S
H1797 C1783 0.961 . S
H1798 C1783 0.961 . S
H1799 C1783 0.961 . S
H1800 C1784 0.931 . S
H1801 C1789 0.930 . S
H1802 C1790 0.956 . S
H1803 C1790 0.961 . S
H1804 C1790 0.961 . S
H1805 C1791 0.958 . S
H1806 C1791 0.961 . S
H1807 C1791 0.960 . S
C529 C182 0.818 . S
C537 C28 0.865 . S
C561 C149 0.875 . S
C569 C61 0.866 . S
C593 C74 0.902 . S
C601 C248 0.869 . S
C625 C127 0.892 . S
C633 C215 0.855 . S
C657 C140 1.305 . S
C665 C41 1.318 . S
C689 C173 1.329 . S
C697 C8 1.319 . S
C721 C107 1.319 . S
C729 C206 1.287 . S
C753 C239 1.310 . S
C761 C94 1.296 . S
C785 C292 0.841 . S
C793 C446 0.870 . S
C817 C325 0.831 . S
C825 C413 0.869 . S
C849 C338 0.871 . S
C857 C512 0.889 . S
C881 C391 0.876 . S
C889 C479 0.848 . S
C913 C404 1.312 . S
C921 C305 1.320 . S
C945 C437 1.303 . S
C953 C272 1.326 . S
C977 C371 1.293 . S
C985 C470 1.304 . S
C1009 C358 1.291 . S
C1017 C503 1.294 . S
C1041 N5 1.723 . S
C1049 N38 1.724 . S
C1073 N80 1.744 . S
C1081 N104 1.746 . S
C1105 N179 1.725 . S
C1113 N146 1.736 . S
C1137 N245 1.705 . S
C1145 N212 1.718 . S
C1169 N302 1.736 . S
C1177 N269 1.731 . S
C1201 N368 1.751 . S
C1209 N344 1.745 . S
C1233 N410 1.726 . S
C1241 N443 1.736 . S
C1265 N476 1.710 . S
C1273 N509 1.717 . S
C1297 N311 1.758 . S
C1305 N14 1.727 . S
C1329 N47 1.752 . S
C1337 N278 1.731 . S
C1361 N71 1.733 . S
C1369 N377 1.740 . S
C1393 N335 1.740 . S
C1401 N113 1.737 . S
C1425 N137 1.339 . S
C1433 N434 1.366 . S
C1457 N170 1.372 . S
C1465 N401 1.357 . S
C1489 N203 1.413 . S
C1497 N500 1.403 . S
C1521 N467 1.384 . S
C1529 N236 1.392 . S
C1553 C17 1.518 . S
C1561 C116 1.527 . S
C1585 C50 1.512 . S
C1593 C83 1.525 . S
C1617 C160 1.541 . S
C1625 C259 1.567 . S
C1649 C193 1.554 . S
C1657 C226 1.568 . S
C1681 C380 1.517 . S
C1689 C281 1.528 . S
C1713 C347 1.500 . S
C1721 C314 1.532 . S
C1745 C424 1.548 . S
C1753 C523 1.560 . S
C1777 C457 1.545 . S
C1785 C490 1.563 . S
