# Generated by pormake.
# Topology umh, (4)-cn, num edge types: 1
# Building blocks:
#     Node 0, Type 0, BuildingBlock: GALJAG_clean_sbu_0, # of connection points: 4
#     Node 1, Type 0, BuildingBlock: GALJAG_clean_sbu_0, # of connection points: 4
#     Node 2, Type 0, BuildingBlock: GALJAG_clean_sbu_0, # of connection points: 4
#     Node 3, Type 0, BuildingBlock: GALJAG_clean_sbu_0, # of connection points: 4
#     Node 4, Type 0, BuildingBlock: GALJAG_clean_sbu_0, # of connection points: 4
#     Node 5, Type 0, BuildingBlock: GALJAG_clean_sbu_0, # of connection points: 4
#     Node 6, Type 0, BuildingBlock: GALJAG_clean_sbu_0, # of connection points: 4
#     Node 7, Type 0, BuildingBlock: GALJAG_clean_sbu_0, # of connection points: 4
#     Node 8, Type 0, BuildingBlock: GALJAG_clean_sbu_0, # of connection points: 4
#     Node 9, Type 0, BuildingBlock: GALJAG_clean_sbu_0, # of connection points: 4
#     Node 10, Type 0, BuildingBlock: GALJAG_clean_sbu_0, # of connection points: 4
#     Node 11, Type 0, BuildingBlock: GALJAG_clean_sbu_0, # of connection points: 4
#     Node 12, Type 0, BuildingBlock: GALJAG_clean_sbu_0, # of connection points: 4
#     Node 13, Type 0, BuildingBlock: GALJAG_clean_sbu_0, # of connection points: 4
#     Node 14, Type 0, BuildingBlock: GALJAG_clean_sbu_0, # of connection points: 4
#     Node 15, Type 0, BuildingBlock: GALJAG_clean_sbu_0, # of connection points: 4
#     Edge 16, Type (0, 0), BuildingBlock: CIFDUS_clean_linker_0, # of connection points: 2
#     Edge 17, Type (0, 0), BuildingBlock: CIFDUS_clean_linker_0, # of connection points: 2
#     Edge 18, Type (0, 0), BuildingBlock: CIFDUS_clean_linker_0, # of connection points: 2
#     Edge 19, Type (0, 0), BuildingBlock: CIFDUS_clean_linker_0, # of connection points: 2
#     Edge 20, Type (0, 0), BuildingBlock: CIFDUS_clean_linker_0, # of connection points: 2
#     Edge 21, Type (0, 0), BuildingBlock: CIFDUS_clean_linker_0, # of connection points: 2
#     Edge 22, Type (0, 0), BuildingBlock: CIFDUS_clean_linker_0, # of connection points: 2
#     Edge 23, Type (0, 0), BuildingBlock: CIFDUS_clean_linker_0, # of connection points: 2
#     Edge 24, Type (0, 0), BuildingBlock: CIFDUS_clean_linker_0, # of connection points: 2
#     Edge 25, Type (0, 0), BuildingBlock: CIFDUS_clean_linker_0, # of connection points: 2
#     Edge 26, Type (0, 0), BuildingBlock: CIFDUS_clean_linker_0, # of connection points: 2
#     Edge 27, Type (0, 0), BuildingBlock: CIFDUS_clean_linker_0, # of connection points: 2
#     Edge 28, Type (0, 0), BuildingBlock: CIFDUS_clean_linker_0, # of connection points: 2
#     Edge 29, Type (0, 0), BuildingBlock: CIFDUS_clean_linker_0, # of connection points: 2
#     Edge 30, Type (0, 0), BuildingBlock: CIFDUS_clean_linker_0, # of connection points: 2
#     Edge 31, Type (0, 0), BuildingBlock: CIFDUS_clean_linker_0, # of connection points: 2
#     Edge 32, Type (0, 0), BuildingBlock: CIFDUS_clean_linker_0, # of connection points: 2
#     Edge 33, Type (0, 0), BuildingBlock: CIFDUS_clean_linker_0, # of connection points: 2
#     Edge 34, Type (0, 0), BuildingBlock: CIFDUS_clean_linker_0, # of connection points: 2
#     Edge 35, Type (0, 0), BuildingBlock: CIFDUS_clean_linker_0, # of connection points: 2
#     Edge 36, Type (0, 0), BuildingBlock: CIFDUS_clean_linker_0, # of connection points: 2
#     Edge 37, Type (0, 0), BuildingBlock: CIFDUS_clean_linker_0, # of connection points: 2
#     Edge 38, Type (0, 0), BuildingBlock: CIFDUS_clean_linker_0, # of connection points: 2
#     Edge 39, Type (0, 0), BuildingBlock: CIFDUS_clean_linker_0, # of connection points: 2
#     Edge 40, Type (0, 0), BuildingBlock: CIFDUS_clean_linker_0, # of connection points: 2
#     Edge 41, Type (0, 0), BuildingBlock: CIFDUS_clean_linker_0, # of connection points: 2
#     Edge 42, Type (0, 0), BuildingBlock: CIFDUS_clean_linker_0, # of connection points: 2
#     Edge 43, Type (0, 0), BuildingBlock: CIFDUS_clean_linker_0, # of connection points: 2
#     Edge 44, Type (0, 0), BuildingBlock: CIFDUS_clean_linker_0, # of connection points: 2
#     Edge 45, Type (0, 0), BuildingBlock: CIFDUS_clean_linker_0, # of connection points: 2
#     Edge 46, Type (0, 0), BuildingBlock: CIFDUS_clean_linker_0, # of connection points: 2
#     Edge 47, Type (0, 0), BuildingBlock: CIFDUS_clean_linker_0, # of connection points: 2
# Relax obj value: 0.114
# Max RMSD: 0.279
# Mean RMSD: 0.279
data_MOF--net-umh--node1-GALJAG_clean_sbu_0--edge1-CIFDUS_clean_linker_0
_symmetry_space_group_name_H-M    P1
_symmetry_Int_Tables_number       1
_symmetry_cell_setting            triclinic
loop_
_symmetry_equiv_pos_as_xyz
'x, y, z'
_cell_length_a     35.953697
_cell_length_b     36.026721
_cell_length_c     46.392978
_cell_angle_alpha  90.322468
_cell_angle_beta   90.188546
_cell_angle_gamma 89.822231
loop_
_atom_site_label
_atom_site_type_symbol
_atom_site_fract_x
_atom_site_fract_y
_atom_site_fract_z
_atom_type_partial_charge
In0 In 0.28992 0.0709 0.13418 0.0
O1 O 0.27597 0.06426 0.08619 0.0
O2 O 0.31633 0.10445 0.09876 0.0
C3 C 0.23658 0.03792 0.16497 0.0
C4 C 0.34728 0.02398 0.13946 0.0
C5 C 0.27223 0.13599 0.15819 0.0
O6 O 0.23037 0.05015 0.13987 0.0
O7 O 0.27 0.03988 0.17326 0.0
O8 O 0.30476 0.12272 0.16095 0.0
O9 O 0.2503 0.1171 0.14288 0.0
C10 C 0.29875 0.089 0.07844 0.0
O11 O 0.34775 0.05588 0.15116 0.0
O12 O 0.31784 0.01612 0.12577 0.0
In13 In 0.39516 0.33374 0.64268 0.0
O14 O 0.40186 0.3947 0.65701 0.0
O15 O 0.44502 0.36778 0.6329 0.0
C16 C 0.33028 0.30143 0.65517 0.0
C17 C 0.38546 0.33425 0.58545 0.0
C18 C 0.433 0.29762 0.68355 0.0
O19 O 0.33449 0.33631 0.658 0.0
O20 O 0.35853 0.28392 0.64633 0.0
O21 O 0.4337 0.28712 0.65738 0.0
O22 O 0.41425 0.32671 0.68851 0.0
C23 C 0.43369 0.39701 0.64529 0.0
O24 O 0.4102 0.31419 0.59727 0.0
O25 O 0.3659 0.35342 0.60259 0.0
In26 In 0.15217 0.39363 0.14725 0.0
O27 O 0.09378 0.41155 0.16085 0.0
O28 O 0.12999 0.45114 0.14126 0.0
C29 C 0.17007 0.32548 0.16381 0.0
C30 C 0.14528 0.3794 0.09047 0.0
C31 C 0.20107 0.41875 0.18632 0.0
O32 O 0.13745 0.3381 0.16797 0.0
O33 O 0.19198 0.34666 0.15054 0.0
O34 O 0.20834 0.41869 0.15952 0.0
O35 O 0.16831 0.40913 0.19266 0.0
C36 C 0.09838 0.44443 0.15189 0.0
O37 O 0.17008 0.40121 0.10019 0.0
O38 O 0.1246 0.36521 0.10937 0.0
In39 In 0.06374 0.18598 0.62797 0.0
O40 O 0.0525 0.20452 0.58112 0.0
O41 O 0.0996 0.17005 0.59072 0.0
C42 C 0.02521 0.21643 0.67126 0.0
C43 C 0.02831 0.12086 0.62725 0.0
C44 C 0.12576 0.2208 0.64462 0.0
O45 O 0.02405 0.23018 0.64605 0.0
O46 O 0.0443 0.18709 0.67374 0.0
O47 O 0.12261 0.18574 0.64676 0.0
O48 O 0.09777 0.23744 0.63425 0.0
C49 C 0.08115 0.18747 0.57185 0.0
O50 O 0.05999 0.1243 0.63921 0.0
O51 O 0.01544 0.15001 0.61572 0.0
In52 In 0.37772 0.33902 0.35616 0.0
O53 O 0.43748 0.35381 0.34239 0.0
O54 O 0.40062 0.39603 0.35805 0.0
C55 C 0.36004 0.26782 0.34698 0.0
C56 C 0.3868 0.33502 0.41337 0.0
C57 C 0.32762 0.36988 0.32025 0.0
O58 O 0.38537 0.28315 0.33229 0.0
O59 O 0.34463 0.28823 0.36557 0.0
O60 O 0.32255 0.36894 0.34727 0.0
O61 O 0.35742 0.35488 0.31168 0.0
C62 C 0.43244 0.3879 0.34845 0.0
O63 O 0.35908 0.35134 0.40206 0.0
O64 O 0.40983 0.32121 0.39571 0.0
In65 In 0.06432 0.31662 0.87544 0.0
O66 O 0.05878 0.29774 0.9219 0.0
O67 O 0.09758 0.34119 0.91193 0.0
C68 C 0.02913 0.28898 0.82966 0.0
C69 C 0.018 0.37342 0.88067 0.0
C70 C 0.12553 0.28001 0.86098 0.0
O71 O 0.02623 0.27409 0.85442 0.0
O72 O 0.04888 0.31808 0.82861 0.0
O73 O 0.12291 0.31499 0.85717 0.0
O74 O 0.09752 0.26454 0.87224 0.0
C75 C 0.08284 0.32096 0.93106 0.0
O76 O 0.0495 0.37752 0.86852 0.0
O77 O 0.01068 0.34095 0.88943 0.0
In78 In 0.13647 0.09939 0.36287 0.0
O79 O 0.14155 0.11825 0.40857 0.0
O80 O 0.10099 0.14656 0.38282 0.0
C81 C 0.13412 0.0842 0.30656 0.0
C82 C 0.09301 0.04277 0.37684 0.0
C83 C 0.20709 0.12114 0.35969 0.0
O84 O 0.14779 0.06252 0.3252 0.0
O85 O 0.12029 0.11427 0.31648 0.0
O86 O 0.18063 0.13848 0.34767 0.0
O87 O 0.19796 0.09258 0.37395 0.0
C88 C 0.11638 0.14273 0.40738 0.0
O89 O 0.08061 0.07267 0.36624 0.0
O90 O 0.12798 0.0415 0.38087 0.0
In91 In 0.38964 0.15894 0.86866 0.0
O92 O 0.40241 0.0991 0.85472 0.0
O93 O 0.44109 0.12906 0.88144 0.0
C94 C 0.327 0.19271 0.85274 0.0
C95 C 0.3702 0.15234 0.92386 0.0
C96 C 0.42935 0.1961 0.83013 0.0
O97 O 0.33139 0.15798 0.84861 0.0
O98 O 0.35395 0.2093 0.86466 0.0
O99 O 0.4283 0.20616 0.85645 0.0
O100 O 0.41136 0.16692 0.82396 0.0
C101 C 0.43328 0.0992 0.86826 0.0
O102 O 0.39492 0.17535 0.91604 0.0
O103 O 0.35569 0.13332 0.90377 0.0
In104 In 0.66446 0.91642 0.88193 0.0
O105 O 0.60381 0.92934 0.87094 0.0
O106 O 0.63782 0.97051 0.89206 0.0
C107 C 0.69846 0.85248 0.87075 0.0
C108 C 0.65904 0.90395 0.93826 0.0
C109 C 0.69786 0.94746 0.83723 0.0
O110 O 0.66368 0.85638 0.86609 0.0
O111 O 0.71494 0.88053 0.88117 0.0
O112 O 0.71089 0.95087 0.86266 0.0
O113 O 0.66751 0.92984 0.83501 0.0
C114 C 0.60624 0.96177 0.8819 0.0
O115 O 0.68217 0.92732 0.92835 0.0
O116 O 0.63949 0.88707 0.91959 0.0
In117 In 0.59518 0.63233 0.36373 0.0
O118 O 0.58103 0.65382 0.40888 0.0
O119 O 0.62192 0.61096 0.40437 0.0
C120 C 0.56007 0.66843 0.32156 0.0
C121 C 0.55337 0.57174 0.35851 0.0
C122 C 0.66106 0.66193 0.35124 0.0
O123 O 0.55845 0.67959 0.34756 0.0
O124 O 0.57885 0.63916 0.31735 0.0
O125 O 0.65564 0.6272 0.34869 0.0
O126 O 0.63344 0.68064 0.3598 0.0
C127 C 0.60413 0.63229 0.42112 0.0
O128 O 0.58722 0.57128 0.3507 0.0
O129 O 0.54203 0.60196 0.36939 0.0
In130 In 0.81377 0.58377 0.88217 0.0
O131 O 0.79441 0.57022 0.92768 0.0
O132 O 0.836 0.61201 0.92198 0.0
C133 C 0.77954 0.54841 0.83901 0.0
C134 C 0.87546 0.54282 0.87982 0.0
C135 C 0.78062 0.64804 0.86989 0.0
O136 O 0.76762 0.54646 0.86474 0.0
O137 O 0.80891 0.56716 0.8357 0.0
O138 O 0.81555 0.64395 0.86672 0.0
O139 O 0.7635 0.62005 0.87929 0.0
C140 C 0.81618 0.59372 0.93931 0.0
O141 O 0.87483 0.57544 0.86944 0.0
O142 O 0.84535 0.53196 0.89098 0.0
In143 In 0.89898 0.82364 0.38302 0.0
O144 O 0.90833 0.80696 0.43005 0.0
O145 O 0.86467 0.84526 0.41955 0.0
C146 C 0.93789 0.78923 0.34206 0.0
C147 C 0.9382 0.88598 0.38247 0.0
C148 C 0.83604 0.79239 0.36478 0.0
O149 O 0.936 0.77605 0.3674 0.0
O150 O 0.92156 0.81997 0.33832 0.0
O151 O 0.84163 0.82701 0.36193 0.0
O152 O 0.86186 0.77449 0.37704 0.0
C153 C 0.88201 0.82772 0.43893 0.0
O154 O 0.9058 0.88435 0.37147 0.0
O155 O 0.95016 0.85623 0.39363 0.0
In156 In 0.65799 0.58733 0.64281 0.0
O157 O 0.6808 0.57694 0.59774 0.0
O158 O 0.63613 0.6159 0.60314 0.0
C159 C 0.69155 0.55102 0.68558 0.0
C160 C 0.59926 0.54257 0.6395 0.0
C161 C 0.68784 0.65222 0.65848 0.0
O162 O 0.70466 0.55091 0.66016 0.0
O163 O 0.66118 0.56844 0.6888 0.0
O164 O 0.65293 0.64686 0.66041 0.0
O165 O 0.70644 0.62531 0.64845 0.0
C166 C 0.6579 0.5992 0.58599 0.0
O167 O 0.59654 0.57413 0.65186 0.0
O168 O 0.63116 0.53445 0.62986 0.0
In169 In 0.87813 0.63823 0.1604 0.0
O170 O 0.8896 0.57675 0.16818 0.0
O171 O 0.93235 0.61181 0.15072 0.0
C172 C 0.81521 0.67405 0.17184 0.0
C173 C 0.86676 0.63732 0.10367 0.0
C174 C 0.91111 0.66324 0.2079 0.0
O175 O 0.81758 0.63891 0.1745 0.0
O176 O 0.84452 0.69025 0.16361 0.0
O177 O 0.91679 0.67837 0.18354 0.0
O178 O 0.88892 0.63593 0.20779 0.0
C179 C 0.92296 0.57981 0.15925 0.0
O180 O 0.8895 0.65996 0.11535 0.0
O181 O 0.85014 0.61572 0.12081 0.0
In182 In 0.86191 0.8849 0.66248 0.0
O183 O 0.84505 0.88568 0.61561 0.0
O184 O 0.89165 0.85164 0.62872 0.0
C185 C 0.83306 0.91928 0.70773 0.0
C186 C 0.91466 0.93546 0.65671 0.0
C187 C 0.8251 0.82307 0.67392 0.0
O188 O 0.8188 0.92254 0.68266 0.0
O189 O 0.86198 0.899 0.70948 0.0
O190 O 0.85978 0.82598 0.67961 0.0
O191 O 0.80974 0.85154 0.66303 0.0
C192 C 0.8707 0.86291 0.60842 0.0
O193 O 0.92108 0.90525 0.67016 0.0
O194 O 0.88192 0.93939 0.64675 0.0
In195 In 0.58203 0.84811 0.15416 0.0
O196 O 0.57488 0.82885 0.10783 0.0
O197 O 0.61156 0.8745 0.117 0.0
C198 C 0.5506 0.81435 0.19844 0.0
C199 C 0.53191 0.90222 0.15389 0.0
C200 C 0.64615 0.81546 0.16694 0.0
O201 O 0.54752 0.80166 0.17285 0.0
O202 O 0.56855 0.84446 0.20111 0.0
O203 O 0.64171 0.85024 0.17114 0.0
O204 O 0.61861 0.79844 0.15616 0.0
C205 C 0.59727 0.8531 0.09823 0.0
O206 O 0.56423 0.90763 0.16452 0.0
O207 O 0.52608 0.8701 0.14355 0.0
H208 H 0.31772 0.10558 0.94409 0.0
H209 H 0.39862 0.18662 0.97185 0.0
H210 H 0.38244 0.17503 0.02221 0.0
H211 H 0.34692 0.14028 0.0582 0.0
H212 H 0.2666 0.05872 0.03035 0.0
H213 H 0.28089 0.07226 0.97998 0.0
C214 C 0.33175 0.12084 0.96114 0.0
C215 C 0.35946 0.14683 0.95427 0.0
C216 C 0.32245 0.11389 0.98995 0.0
C217 C 0.37725 0.16644 0.97659 0.0
C218 C 0.36804 0.15979 1.00536 0.0
C219 C 0.33238 0.12558 0.04111 0.0
C220 C 0.3058 0.09843 0.04798 0.0
C221 C 0.34092 0.13334 0.01227 0.0
C222 C 0.28719 0.07969 0.02561 0.0
C223 C 0.29539 0.08738 0.99684 0.0
H224 H 0.34213 0.36257 0.45554 0.0
H225 H 0.44254 0.29906 0.44185 0.0
H226 H 0.45058 0.29218 0.49383 0.0
H227 H 0.42934 0.30466 0.54337 0.0
H228 H 0.32941 0.36903 0.55681 0.0
H229 H 0.32089 0.37492 0.50487 0.0
C230 C 0.36578 0.34725 0.46394 0.0
C231 C 0.39169 0.33141 0.44488 0.0
C232 C 0.37029 0.34345 0.49386 0.0
C233 C 0.42219 0.31161 0.45608 0.0
C234 C 0.42681 0.3076 0.48582 0.0
C235 C 0.40563 0.3198 0.53489 0.0
C236 C 0.38007 0.33633 0.5539 0.0
C237 C 0.40105 0.32341 0.50493 0.0
C238 C 0.34956 0.35606 0.54263 0.0
C239 C 0.34464 0.35949 0.51292 0.0
H240 H 0.13454 0.36698 0.95471 0.0
H241 H 0.05179 0.2856 0.97702 0.0
H242 H 0.06463 0.29597 0.02822 0.0
H243 H 0.09776 0.32961 0.06659 0.0
H244 H 0.18061 0.41094 0.04451 0.0
H245 H 0.16939 0.39906 0.99319 0.0
C246 C 0.11943 0.35136 0.97076 0.0
C247 C 0.09213 0.32561 0.96203 0.0
C248 C 0.12689 0.35756 1.00017 0.0
C249 C 0.07291 0.30555 0.98312 0.0
C250 C 0.08019 0.31154 0.01241 0.0
C251 C 0.11347 0.34469 0.05057 0.0
C252 C 0.13988 0.37129 0.05937 0.0
C253 C 0.10686 0.33771 0.02117 0.0
C254 C 0.16012 0.39039 0.03832 0.0
C255 C 0.15367 0.38362 1.00898 0.0
H256 H 0.03925 0.19638 0.52231 0.0
H257 H 0.15102 0.17714 0.5532 0.0
H258 H 0.1725 0.16694 0.50422 0.0
H259 H 0.15876 0.15603 0.4537 0.0
H260 H 0.04763 0.17207 0.42106 0.0
H261 H 0.02678 0.1917 0.46928 0.0
C262 C 0.06836 0.19063 0.51814 0.0
C263 C 0.09341 0.18703 0.54141 0.0
C264 C 0.08061 0.184 0.48962 0.0
C265 C 0.13107 0.17952 0.53574 0.0
C266 C 0.14345 0.17372 0.50771 0.0
C267 C 0.13007 0.16446 0.45699 0.0
C268 C 0.1047 0.16232 0.434 0.0
C269 C 0.11832 0.17473 0.48466 0.0
C270 C 0.06772 0.17365 0.43846 0.0
C271 C 0.05576 0.18451 0.4661 0.0
H272 H 0.64684 0.90004 0.07389 0.0
H273 H 0.56732 0.8144 0.05306 0.0
H274 H 0.58048 0.82192 1.00176 0.0
H275 H 0.61323 0.85391 0.96292 0.0
H276 H 0.69272 0.93965 0.98352 0.0
H277 H 0.68105 0.93083 0.03499 0.0
C278 C 0.63243 0.88295 0.05813 0.0
C279 C 0.606 0.85679 0.06725 0.0
C280 C 0.64014 0.88744 0.02871 0.0
C281 C 0.58772 0.83475 0.04659 0.0
C282 C 0.59523 0.83906 0.01727 0.0
C283 C 0.62815 0.8706 0.97866 0.0
C284 C 0.65374 0.8975 0.96942 0.0
C285 C 0.62119 0.86547 1.0081 0.0
C286 C 0.6729 0.91877 0.99008 0.0
C287 C 0.66617 0.91379 0.01949 0.0
H288 H 0.60932 0.64312 0.55694 0.0
H289 H 0.69889 0.56476 0.54413 0.0
H290 H 0.69037 0.56871 0.49193 0.0
H291 H 0.65612 0.5927 0.45015 0.0
H292 H 0.56634 0.67083 0.4628 0.0
H293 H 0.57627 0.66864 0.51499 0.0
C294 C 0.62717 0.62709 0.54273 0.0
C295 C 0.65469 0.60363 0.5544 0.0
C296 C 0.62191 0.62929 0.51278 0.0
C297 C 0.67755 0.58304 0.5357 0.0
C298 C 0.67261 0.58521 0.50586 0.0
C299 C 0.63872 0.60931 0.46431 0.0
C300 C 0.61038 0.63176 0.45264 0.0
C301 C 0.64463 0.60793 0.4942 0.0
C302 C 0.58826 0.65327 0.47126 0.0
C303 C 0.59395 0.65202 0.50108 0.0
H304 H 0.86084 0.64223 0.96775 0.0
H305 H 0.77932 0.55655 0.98171 0.0
H306 H 0.78725 0.56332 0.03387 0.0
H307 H 0.8186 0.59228 0.07529 0.0
H308 H 0.90046 0.67765 0.06138 0.0
H309 H 0.89105 0.67234 0.00926 0.0
C310 C 0.84467 0.62512 0.9822 0.0
C311 C 0.81957 0.59883 0.97087 0.0
C312 C 0.84951 0.62905 0.0121 0.0
C313 C 0.79881 0.57695 0.98987 0.0
C314 C 0.80338 0.58078 0.01968 0.0
C315 C 0.83433 0.60983 0.06087 0.0
C316 C 0.86031 0.63526 0.07219 0.0
C317 C 0.82885 0.60653 0.031 0.0
C318 C 0.88035 0.65784 0.05322 0.0
C319 C 0.875 0.65479 0.02343 0.0
H320 H 0.9208 0.80375 0.48606 0.0
H321 H 0.82296 0.86533 0.46071 0.0
H322 H 0.81016 0.88072 0.51086 0.0
H323 H 0.82826 0.87954 0.56175 0.0
H324 H 0.92617 0.81854 0.58762 0.0
H325 H 0.93732 0.80011 0.53763 0.0
C326 C 0.8965 0.82018 0.4916 0.0
C327 C 0.87302 0.83349 0.46968 0.0
C328 C 0.88941 0.82932 0.52059 0.0
C329 C 0.84163 0.85485 0.47715 0.0
C330 C 0.83427 0.86376 0.50585 0.0
C331 C 0.85196 0.86211 0.55646 0.0
C332 C 0.87645 0.85067 0.57831 0.0
C333 C 0.85826 0.85165 0.5277 0.0
C334 C 0.90693 0.82787 0.57115 0.0
C335 C 0.91336 0.8173 0.54256 0.0
H336 H 0.24036 0.30413 0.17415 0.0
H337 H 0.12752 0.26381 0.17253 0.0
H338 H 0.15038 0.19983 0.17628 0.0
H339 H 0.2024 0.15615 0.17111 0.0
H340 H 0.3152 0.19655 0.17045 0.0
H341 H 0.29245 0.2602 0.17719 0.0
C342 C 0.22077 0.28131 0.1751 0.0
C343 C 0.18242 0.28825 0.17234 0.0
C344 C 0.23415 0.2449 0.17666 0.0
C345 C 0.15716 0.25885 0.17434 0.0
C346 C 0.17025 0.22239 0.17632 0.0
C347 C 0.22201 0.17888 0.17305 0.0
C348 C 0.26029 0.17213 0.16964 0.0
C349 C 0.20867 0.21516 0.17613 0.0
C350 C 0.28561 0.20136 0.17283 0.0
C351 C 0.27258 0.23766 0.17643 0.0
H352 H 0.26048 0.33118 0.65696 0.0
H353 H 0.32048 0.22761 0.66267 0.0
H354 H 0.26215 0.1933 0.66283 0.0
H355 H 0.19432 0.19221 0.65638 0.0
H356 H 0.13436 0.29557 0.64848 0.0
H357 H 0.19205 0.33027 0.65437 0.0
C358 C 0.26067 0.30117 0.65877 0.0
C359 C 0.29467 0.28197 0.65958 0.0
C360 C 0.22695 0.28145 0.65815 0.0
C361 C 0.29459 0.24304 0.66177 0.0
C362 C 0.26125 0.22334 0.66182 0.0
C363 C 0.19386 0.22231 0.65638 0.0
C364 C 0.16021 0.24123 0.65173 0.0
C365 C 0.22729 0.24216 0.65923 0.0
C366 C 0.16001 0.28029 0.65176 0.0
C367 C 0.193 0.30021 0.65511 0.0
H368 H 0.3487 0.2137 0.38537 0.0
H369 H 0.33451 0.24139 0.29584 0.0
H370 H 0.28747 0.19274 0.29056 0.0
H371 H 0.2418 0.15222 0.31443 0.0
H372 H 0.25678 0.12384 0.40384 0.0
H373 H 0.31264 0.16248 0.40628 0.0
C374 C 0.33644 0.20783 0.36444 0.0
C375 C 0.34473 0.23087 0.34102 0.0
C376 C 0.30909 0.18035 0.36181 0.0
C377 C 0.32873 0.22354 0.31399 0.0
C378 C 0.30145 0.19616 0.31114 0.0
C379 C 0.25802 0.15374 0.33417 0.0
C380 C 0.24514 0.13594 0.35908 0.0
C381 C 0.29004 0.17588 0.33531 0.0
C382 C 0.26632 0.13748 0.38448 0.0
C383 C 0.29806 0.15973 0.3859 0.0
H384 H 0.25684 0.16493 0.85046 0.0
H385 H 0.31952 0.26613 0.84228 0.0
H386 H 0.26208 0.30235 0.84095 0.0
H387 H 0.19445 0.30591 0.84785 0.0
H388 H 0.13204 0.20494 0.85895 0.0
H389 H 0.18858 0.16814 0.85325 0.0
C390 C 0.25776 0.1948 0.84772 0.0
C391 C 0.2922 0.21289 0.84662 0.0
C392 C 0.22463 0.21562 0.84793 0.0
C393 C 0.29319 0.25166 0.84337 0.0
C394 C 0.2604 0.27241 0.8427 0.0
C395 C 0.19321 0.27586 0.84859 0.0
C396 C 0.15926 0.25824 0.85414 0.0
C397 C 0.226 0.25482 0.8459 0.0
C398 C 0.15799 0.21923 0.85503 0.0
C399 C 0.1903 0.1981 0.85175 0.0
H400 H 0.66997 0.78325 0.86272 0.0
H401 H 0.77325 0.84358 0.8678 0.0
H402 H 0.80834 0.78567 0.86495 0.0
H403 H 0.8097 0.71744 0.86546 0.0
H404 H 0.70631 0.65708 0.86283 0.0
H405 H 0.67145 0.71511 0.85997 0.0
C406 C 0.70013 0.78366 0.86279 0.0
C407 C 0.71895 0.81751 0.86572 0.0
C408 C 0.72021 0.75016 0.86177 0.0
C409 C 0.75809 0.81774 0.86586 0.0
C410 C 0.77823 0.78465 0.86422 0.0
C411 C 0.7796 0.71707 0.86381 0.0
C412 C 0.76061 0.68316 0.86458 0.0
C413 C 0.7596 0.75062 0.86285 0.0
C414 C 0.72156 0.68297 0.86255 0.0
C415 C 0.70156 0.71612 0.86093 0.0
H416 H 0.67365 0.73493 0.34392 0.0
H417 H 0.72984 0.62925 0.3499 0.0
H418 H 0.79001 0.66093 0.35192 0.0
H419 H 0.82544 0.71874 0.35763 0.0
H420 H 0.76899 0.82436 0.35217 0.0
H421 H 0.70979 0.79252 0.34405 0.0
C422 C 0.69913 0.71879 0.34527 0.0
C423 C 0.69743 0.67987 0.34719 0.0
C424 C 0.73334 0.73718 0.34678 0.0
C425 C 0.73054 0.65924 0.34847 0.0
C426 C 0.76485 0.67735 0.34981 0.0
C427 C 0.80021 0.73479 0.35437 0.0
C428 C 0.80133 0.7738 0.35597 0.0
C429 C 0.76641 0.71632 0.3499 0.0
C430 C 0.76869 0.79431 0.35119 0.0
C431 C 0.73488 0.77612 0.34666 0.0
H432 H 0.7502 0.81441 0.67254 0.0
H433 H 0.85285 0.7533 0.68235 0.0
H434 H 0.8185 0.69482 0.68066 0.0
H435 H 0.76026 0.66128 0.67178 0.0
H436 H 0.65735 0.7219 0.66238 0.0
H437 H 0.69084 0.78062 0.66881 0.0
C438 C 0.76501 0.78829 0.67465 0.0
C439 C 0.80409 0.78812 0.67723 0.0
C440 C 0.74508 0.75483 0.67355 0.0
C441 C 0.82284 0.75415 0.6803 0.0
C442 C 0.80322 0.72072 0.67919 0.0
C443 C 0.74509 0.68736 0.67142 0.0
C444 C 0.70648 0.68741 0.66622 0.0
C445 C 0.7645 0.72077 0.67509 0.0
C446 C 0.68706 0.72124 0.66628 0.0
C447 C 0.70625 0.75475 0.66982 0.0
H448 H 0.80749 0.74864 0.17624 0.0
H449 H 0.74479 0.64668 0.1769 0.0
H450 H 0.68666 0.68216 0.17782 0.0
H451 H 0.65404 0.74175 0.17405 0.0
H452 H 0.71632 0.8439 0.1734 0.0
H453 H 0.77459 0.80865 0.1772 0.0
C454 C 0.7811 0.73418 0.17686 0.0
C455 C 0.78034 0.69509 0.17613 0.0
C456 C 0.7479 0.75475 0.17725 0.0
C457 C 0.74604 0.67672 0.17735 0.0
C458 C 0.71285 0.69699 0.17776 0.0
C459 C 0.68038 0.75634 0.17498 0.0
C460 C 0.68105 0.79531 0.17304 0.0
C461 C 0.7135 0.73594 0.17702 0.0
C462 C 0.7152 0.81392 0.17478 0.0
C463 C 0.74844 0.79376 0.17681 0.0
H464 H 0.16015 0.02083 0.28291 0.0
H465 H 0.12016 0.12999 0.26053 0.0
H466 H 0.14155 0.1207 0.21088 0.0
H467 H 0.18163 0.08608 0.17693 0.0
H468 H 0.22855 0.98105 0.20236 0.0
H469 H 0.19361 0.98348 0.2475 0.0
C470 C 0.15537 0.04236 0.26705 0.0
C471 C 0.13909 0.07629 0.27547 0.0
C472 C 0.16905 0.03737 0.23906 0.0
C473 C 0.13279 0.10372 0.25461 0.0
C474 C 0.14518 0.09845 0.22627 0.0
C475 C 0.18284 0.06307 0.19189 0.0
C476 C 0.20702 0.0331 0.18634 0.0
C477 C 0.16469 0.06599 0.2186 0.0
C478 C 0.20957 0.00398 0.20614 0.0
C479 C 0.18999 0.00565 0.23204 0.0
H480 H 0.44646 0.31963 0.73842 0.0
H481 H 0.44999 0.22383 0.6823 0.0
H482 H 0.45611 0.18316 0.72405 0.0
H483 H 0.4482 0.17469 0.77619 0.0
H484 H 0.44322 0.27043 0.8323 0.0
H485 H 0.45074 0.31138 0.7909 0.0
C486 C 0.44956 0.28991 0.73533 0.0
C487 C 0.44705 0.27461 0.70744 0.0
C488 C 0.45238 0.26672 0.75943 0.0
C489 C 0.45166 0.23619 0.7036 0.0
C490 C 0.45485 0.21292 0.72748 0.0
C491 C 0.44979 0.2045 0.77941 0.0
C492 C 0.44447 0.21964 0.8071 0.0
C493 C 0.45339 0.22781 0.75548 0.0
C494 C 0.4471 0.25818 0.81114 0.0
C495 C 0.45107 0.28161 0.78745 0.0
H496 H 0.19135 0.41988 0.24426 0.0
H497 H 0.2764 0.4209 0.17886 0.0
H498 H 0.32384 0.40832 0.21539 0.0
H499 H 0.33983 0.3891 0.26471 0.0
H500 H 0.25477 0.38745 0.33005 0.0
H501 H 0.20858 0.40817 0.29471 0.0
C502 C 0.22038 0.41822 0.23808 0.0
C503 C 0.23028 0.42099 0.20882 0.0
C504 C 0.24738 0.41014 0.2591 0.0
C505 C 0.26802 0.41893 0.2012 0.0
C506 C 0.29513 0.41135 0.22206 0.0
C507 C 0.31123 0.39361 0.27127 0.0
C508 C 0.30054 0.38617 0.29982 0.0
C509 C 0.28491 0.40555 0.25086 0.0
C510 C 0.26359 0.39273 0.30815 0.0
C511 C 0.23719 0.40454 0.28795 0.0
H512 H 0.00742 0.18593 0.72242 0.0
H513 H 0.01471 0.29093 0.6787 0.0
H514 H 0.01115 0.32373 0.72496 0.0
H515 H 0.01734 0.32157 0.77787 0.0
H516 H 0.01053 0.21638 0.82145 0.0
H517 H 0.00199 0.18457 0.77522 0.0
C518 C 0.00714 0.21604 0.72299 0.0
C519 C 0.01182 0.23603 0.69729 0.0
C520 C 0.00577 0.23458 0.74966 0.0
C521 C 0.01107 0.27498 0.6982 0.0
C522 C 0.00945 0.2937 0.72469 0.0
C523 C 0.01312 0.29177 0.77726 0.0
C524 C 0.0152 0.27122 0.80294 0.0
C525 C 0.00856 0.27368 0.75058 0.0
C526 C 0.00918 0.23276 0.80196 0.0
C527 C 0.00454 0.21454 0.77551 0.0
H528 H 0.77269 0.94992 0.83202 0.0
H529 H 0.6707 0.96335 0.78405 0.0
H530 H 0.70519 0.96172 0.73876 0.0
H531 H 0.76266 0.94586 0.71298 0.0
H532 H 0.86365 0.92663 0.76115 0.0
H533 H 0.83152 0.94145 0.80606 0.0
C534 C 0.75825 0.95373 0.81167 0.0
C535 C 0.71931 0.95665 0.81125 0.0
C536 C 0.77806 0.95095 0.78571 0.0
C537 C 0.70074 0.96099 0.78479 0.0
C538 C 0.7204 0.95979 0.75891 0.0
C539 C 0.77779 0.94574 0.73325 0.0
C540 C 0.81529 0.93473 0.73383 0.0
C541 C 0.75883 0.9531 0.75909 0.0
C542 C 0.8346 0.93462 0.76022 0.0
C543 C 0.81625 0.94306 0.78591 0.0
H544 H 0.54479 0.74219 0.32026 0.0
H545 H 0.54416 0.64299 0.2678 0.0
H546 H 0.53386 0.68004 0.2246 0.0
H547 H 0.53583 0.74079 0.20116 0.0
H548 H 0.54203 0.84012 0.25324 0.0
H549 H 0.53862 0.80309 0.29707 0.0
C550 C 0.54135 0.7287 0.29945 0.0
C551 C 0.5456 0.69007 0.29709 0.0
C552 C 0.53688 0.75029 0.27456 0.0
C553 C 0.54134 0.67282 0.27004 0.0
C554 C 0.53557 0.69397 0.24533 0.0
C555 C 0.53537 0.75435 0.22209 0.0
C556 C 0.53957 0.793 0.22403 0.0
C557 C 0.53491 0.7328 0.24719 0.0
C558 C 0.53914 0.81029 0.25126 0.0
C559 C 0.53735 0.78914 0.27634 0.0
H560 H 0.80598 0.53387 0.78571 0.0
H561 H 0.70505 0.53483 0.83568 0.0
H562 H 0.66808 0.52973 0.79147 0.0
H563 H 0.66472 0.53621 0.73874 0.0
H564 H 0.7658 0.5361 0.68888 0.0
H565 H 0.80255 0.52897 0.73293 0.0
C566 C 0.77591 0.53201 0.78692 0.0
C567 C 0.75815 0.53534 0.81378 0.0
C568 C 0.75493 0.52968 0.76144 0.0
C569 C 0.71929 0.5324 0.81521 0.0
C570 C 0.69816 0.52982 0.78992 0.0
C571 C 0.69476 0.53372 0.73749 0.0
C572 C 0.71263 0.53734 0.71073 0.0
C573 C 0.71568 0.53014 0.76292 0.0
C574 C 0.75145 0.53356 0.70927 0.0
C575 C 0.77248 0.52975 0.73447 0.0
H576 H 0.93545 0.71478 0.3353 0.0
H577 H 0.96564 0.81577 0.292 0.0
H578 H 0.96597 0.78322 0.24567 0.0
H579 H 0.94563 0.72942 0.21695 0.0
H580 H 0.9103 0.63 0.26029 0.0
H581 H 0.92422 0.65826 0.30694 0.0
C582 C 0.94354 0.72922 0.31585 0.0
C583 C 0.95034 0.76752 0.31691 0.0
C584 C 0.94176 0.71078 0.28914 0.0
C585 C 0.96024 0.78619 0.29157 0.0
C586 C 0.96006 0.76769 0.26506 0.0
C587 C 0.94182 0.71369 0.23658 0.0
C588 C 0.92632 0.678 0.23523 0.0
C589 C 0.94892 0.7305 0.26343 0.0
C590 C 0.92165 0.65781 0.26081 0.0
C591 C 0.92962 0.67393 0.28752 0.0
H592 H 0.41656 0.0351 0.16277 0.0
H593 H 0.34847 0.95355 0.11915 0.0
H594 H 0.39974 0.90949 0.1197 0.0
H595 H 0.46328 0.89391 0.13202 0.0
H596 H 0.53324 0.97368 0.17554 0.0
H597 H 0.48185 0.01882 0.17546 0.0
C598 C 0.41303 0.00763 0.1535 0.0
C599 C 0.37873 -0.00239 0.14096 0.0
C600 C 0.44288 0.98223 0.15375 0.0
C601 C 0.37453 0.962 0.12893 0.0
C602 C 0.40385 0.93674 0.12919 0.0
C603 C 0.46748 0.92117 0.14151 0.0
C604 C 0.50202 0.93046 0.15375 0.0
C605 C 0.43806 0.94659 0.14144 0.0
C606 C 0.50688 0.96591 0.16593 0.0
C607 C 0.4775 -0.00835 0.16592 0.0
H608 H 0.53238 0.53971 0.66854 0.0
H609 H 0.59658 0.48613 0.60154 0.0
H610 H 0.54965 0.43846 0.59634 0.0
H611 H 0.49311 0.40946 0.61239 0.0
H612 H 0.42746 0.45954 0.67984 0.0
H613 H 0.47184 0.51131 0.68307 0.0
C614 C 0.53574 0.51777 0.65267 0.0
C615 C 0.56814 0.51628 0.63568 0.0
C616 C 0.50853 0.48975 0.64992 0.0
C617 C 0.57219 0.48772 0.61515 0.0
C618 C 0.54532 0.4604 0.61208 0.0
C619 C 0.48827 0.43175 0.62777 0.0
C620 C 0.45733 0.43051 0.64606 0.0
C621 C 0.51385 0.46076 0.62966 0.0
C622 C 0.45121 0.45989 0.66555 0.0
C623 C 0.47665 0.48936 0.66746 0.0
H624 H 0.02572 0.43725 0.16869 0.0
H625 H 0.10548 0.5163 0.13666 0.0
H626 H 0.05797 0.56431 0.1358 0.0
H627 H -0.0055 0.58404 0.1436 0.0
H628 H 0.9131 0.50714 0.17588 0.0
H629 H 0.96056 0.45792 0.17705 0.0
C630 C 0.03261 0.46504 0.16167 0.0
C631 C 0.06908 0.47318 0.15275 0.0
C632 C 0.00495 0.49278 0.16111 0.0
C633 C 0.07766 0.50925 0.14361 0.0
C634 C 0.05051 0.53678 0.14306 0.0
C635 C 0.98693 0.55651 0.15085 0.0
C636 C 0.95033 0.54918 0.15956 0.0
C637 C 0.01415 0.5288 0.15163 0.0
C638 C 0.94113 0.51339 0.16898 0.0
C639 C 0.96825 0.48533 0.16971 0.0
H640 H 0.90964 -0.00638 0.62093 0.0
H641 H 0.98255 0.94355 0.68372 0.0
H642 H 0.02594 -0.0043 0.67901 0.0
H643 H 0.04096 0.05771 0.65877 0.0
H644 H 0.96614 0.1063 0.59639 0.0
H645 H 0.92585 0.05241 0.59912 0.0
C646 C 0.93509 -0.00605 0.63356 0.0
C647 C 0.94271 0.96498 0.65285 0.0
C648 C 0.95955 0.02385 0.63082 0.0
C649 C 0.97603 0.96562 0.66876 0.0
C650 C 0.00076 -0.00454 0.66611 0.0
C651 C 0.01604 0.05622 0.6456 0.0
C652 C 0.00645 0.08613 0.62756 0.0
C653 C -0.00746 0.02505 0.64746 0.0
C654 C 0.97406 0.08385 0.61061 0.0
C655 C 0.95093 0.05303 0.61214 0.0
H656 H 0.56941 0.49811 0.34758 0.0
H657 H 0.47881 0.57569 0.35975 0.0
H658 H 0.43409 0.52586 0.35523 0.0
H659 H 0.42026 0.46084 0.35058 0.0
H660 H 0.50834 0.38045 0.34018 0.0
H661 H 0.55454 0.43079 0.34081 0.0
C662 C 0.53987 0.50393 0.34907 0.0
C663 C 0.52748 0.54048 0.35433 0.0
C664 C 0.5139 0.47477 0.34679 0.0
C665 C 0.48915 0.54777 0.35613 0.0
C666 C 0.46345 0.51932 0.35345 0.0
C667 C 0.44957 0.45415 0.34834 0.0
C668 C 0.46096 0.41704 0.34564 0.0
C669 C 0.47552 0.4828 0.34924 0.0
C670 C 0.49895 0.40893 0.34232 0.0
C671 C 0.5253 0.43767 0.34283 0.0
H672 H 0.01797 0.44324 0.85686 0.0
H673 H 0.95686 0.37158 0.91402 0.0
H674 H 0.90913 0.41865 0.91986 0.0
H675 H 0.88293 0.47817 0.90733 0.0
H676 H 0.94098 0.55125 0.84968 0.0
H677 H -0.00805 0.50583 0.84567 0.0
C678 C -0.00569 0.43818 0.87071 0.0
C679 C -0.00915 0.40382 0.88478 0.0
C680 C 0.96641 0.46549 0.87386 0.0
C681 C 0.96008 0.39759 0.9027 0.0
C682 C 0.93272 0.42452 0.90613 0.0
C683 C 0.90676 0.48438 0.89392 0.0
C684 C 0.90808 0.51783 0.87864 0.0
C685 C 0.93535 0.45824 0.89154 0.0
C686 C 0.93935 0.52558 0.86164 0.0
C687 C 0.96837 0.49958 0.85928 0.0
H688 H 0.0095 0.89275 0.40039 0.0
H689 H 0.91896 0.95444 0.36218 0.0
H690 H 0.95873 0.00917 0.35862 0.0
H691 H 0.01969 0.03836 0.36451 0.0
H692 H 0.11087 0.97611 0.4012 0.0
H693 H 0.07011 0.92249 0.4074 0.0
C694 C -0.00162 0.91824 0.39142 0.0
C695 C 0.9614 0.9196 0.38147 0.0
C696 C 0.02147 0.94932 0.38915 0.0
C697 C 0.94738 0.95274 0.3699 0.0
C698 C 0.97008 0.98398 0.36786 0.0
C699 C 0.03062 0.01314 0.37406 0.0
C700 C 0.06823 0.0111 0.38235 0.0
C701 C 0.00724 0.98242 0.37715 0.0
C702 C 0.08202 0.97828 0.39462 0.0
C703 C 0.05876 0.94766 0.39812 0.0
H704 H 0.53921 0.95947 0.85309 0.0
H705 H 0.60316 0.02378 0.91444 0.0
H706 H 0.55441 0.07034 0.91645 0.0
H707 H 0.49558 0.09443 0.89975 0.0
H708 H 0.43024 0.03328 0.83762 0.0
H709 H 0.4774 0.98367 0.83711 0.0
C710 C 0.54221 0.98358 0.86698 0.0
C711 C 0.57489 -0.01173 0.88342 0.0
C712 C 0.51397 0.01083 0.86786 0.0
C713 C 0.57849 0.01963 0.90134 0.0
C714 C 0.5506 0.04632 0.90258 0.0
C715 C 0.49143 0.07024 0.88609 0.0
C716 C 0.45961 0.06762 0.86861 0.0
C717 C 0.51855 0.04243 0.88572 0.0
C718 C 0.4546 0.03592 0.85126 0.0
C719 C 0.48158 0.00765 0.85093 0.0
loop_
_geom_bond_atom_site_label_1
_geom_bond_atom_site_label_2
_geom_bond_distance
_geom_bond_site_symmetry_2
_ccdc_geom_bond_type
In0 O1 2.294 . S
In0 O2 2.326 . S
In0 O6 2.266 . S
In0 O7 2.326 . S
In0 O8 2.266 . S
In0 O9 2.326 . S
In0 O11 2.294 . S
In0 O12 2.326 . S
O1 In0 2.294 . S
O1 C10 1.240 . S
O2 In0 2.326 . S
O2 C10 1.252 . S
C3 O6 1.252 . S
C3 O7 1.260 . S
C4 O11 1.240 . S
C4 O12 1.252 . S
C5 O8 1.252 . S
C5 O9 1.260 . S
O6 In0 2.266 . S
O6 C3 1.252 . S
O7 In0 2.326 . S
O7 C3 1.260 . S
O8 In0 2.266 . S
O8 C5 1.252 . S
O9 In0 2.326 . S
O9 C5 1.260 . S
C10 O1 1.240 . S
C10 O2 1.252 . S
O11 In0 2.294 . S
O11 C4 1.240 . S
O12 In0 2.326 . S
O12 C4 1.252 . S
In13 O14 2.294 . S
In13 O15 2.326 . S
In13 O19 2.266 . S
In13 O20 2.326 . S
In13 O21 2.266 . S
In13 O22 2.326 . S
In13 O24 2.294 . S
In13 O25 2.326 . S
O14 In13 2.294 . S
O14 C23 1.240 . S
O15 In13 2.326 . S
O15 C23 1.252 . S
C16 O19 1.252 . S
C16 O20 1.260 . S
C17 O24 1.240 . S
C17 O25 1.252 . S
C18 O21 1.252 . S
C18 O22 1.260 . S
O19 In13 2.266 . S
O19 C16 1.252 . S
O20 In13 2.326 . S
O20 C16 1.260 . S
O21 In13 2.266 . S
O21 C18 1.252 . S
O22 In13 2.326 . S
O22 C18 1.260 . S
C23 O14 1.240 . S
C23 O15 1.252 . S
O24 In13 2.294 . S
O24 C17 1.240 . S
O25 In13 2.326 . S
O25 C17 1.252 . S
In26 O27 2.294 . S
In26 O28 2.326 . S
In26 O32 2.266 . S
In26 O33 2.326 . S
In26 O34 2.266 . S
In26 O35 2.326 . S
In26 O37 2.294 . S
In26 O38 2.326 . S
O27 In26 2.294 . S
O27 C36 1.240 . S
O28 In26 2.326 . S
O28 C36 1.252 . S
C29 O32 1.252 . S
C29 O33 1.260 . S
C30 O37 1.240 . S
C30 O38 1.252 . S
C31 O34 1.252 . S
C31 O35 1.260 . S
O32 In26 2.266 . S
O32 C29 1.252 . S
O33 In26 2.326 . S
O33 C29 1.260 . S
O34 In26 2.266 . S
O34 C31 1.252 . S
O35 In26 2.326 . S
O35 C31 1.260 . S
C36 O27 1.240 . S
C36 O28 1.252 . S
O37 In26 2.294 . S
O37 C30 1.240 . S
O38 In26 2.326 . S
O38 C30 1.252 . S
In39 O40 2.294 . S
In39 O41 2.326 . S
In39 O45 2.266 . S
In39 O46 2.326 . S
In39 O47 2.266 . S
In39 O48 2.326 . S
In39 O50 2.294 . S
In39 O51 2.326 . S
O40 In39 2.294 . S
O40 C49 1.240 . S
O41 In39 2.326 . S
O41 C49 1.252 . S
C42 O45 1.252 . S
C42 O46 1.260 . S
C43 O50 1.240 . S
C43 O51 1.252 . S
C44 O47 1.252 . S
C44 O48 1.260 . S
O45 In39 2.266 . S
O45 C42 1.252 . S
O46 In39 2.326 . S
O46 C42 1.260 . S
O47 In39 2.266 . S
O47 C44 1.252 . S
O48 In39 2.326 . S
O48 C44 1.260 . S
C49 O40 1.240 . S
C49 O41 1.252 . S
O50 In39 2.294 . S
O50 C43 1.240 . S
O51 In39 2.326 . S
O51 C43 1.252 . S
In52 O53 2.294 . S
In52 O54 2.326 . S
In52 O58 2.266 . S
In52 O59 2.326 . S
In52 O60 2.266 . S
In52 O61 2.326 . S
In52 O63 2.294 . S
In52 O64 2.326 . S
O53 In52 2.294 . S
O53 C62 1.240 . S
O54 In52 2.326 . S
O54 C62 1.252 . S
C55 O58 1.252 . S
C55 O59 1.260 . S
C56 O63 1.240 . S
C56 O64 1.252 . S
C57 O60 1.252 . S
C57 O61 1.260 . S
O58 In52 2.266 . S
O58 C55 1.252 . S
O59 In52 2.326 . S
O59 C55 1.260 . S
O60 In52 2.266 . S
O60 C57 1.252 . S
O61 In52 2.326 . S
O61 C57 1.260 . S
C62 O53 1.240 . S
C62 O54 1.252 . S
O63 In52 2.294 . S
O63 C56 1.240 . S
O64 In52 2.326 . S
O64 C56 1.252 . S
In65 O66 2.294 . S
In65 O67 2.326 . S
In65 O71 2.266 . S
In65 O72 2.326 . S
In65 O73 2.266 . S
In65 O74 2.326 . S
In65 O76 2.294 . S
In65 O77 2.326 . S
O66 In65 2.294 . S
O66 C75 1.240 . S
O67 In65 2.326 . S
O67 C75 1.252 . S
C68 O71 1.252 . S
C68 O72 1.260 . S
C69 O76 1.240 . S
C69 O77 1.252 . S
C70 O73 1.252 . S
C70 O74 1.260 . S
O71 In65 2.266 . S
O71 C68 1.252 . S
O72 In65 2.326 . S
O72 C68 1.260 . S
O73 In65 2.266 . S
O73 C70 1.252 . S
O74 In65 2.326 . S
O74 C70 1.260 . S
C75 O66 1.240 . S
C75 O67 1.252 . S
O76 In65 2.294 . S
O76 C69 1.240 . S
O77 In65 2.326 . S
O77 C69 1.252 . S
In78 O79 2.294 . S
In78 O80 2.326 . S
In78 O84 2.266 . S
In78 O85 2.326 . S
In78 O86 2.266 . S
In78 O87 2.326 . S
In78 O89 2.294 . S
In78 O90 2.326 . S
O79 In78 2.294 . S
O79 C88 1.240 . S
O80 In78 2.326 . S
O80 C88 1.252 . S
C81 O84 1.252 . S
C81 O85 1.260 . S
C82 O89 1.240 . S
C82 O90 1.252 . S
C83 O86 1.252 . S
C83 O87 1.260 . S
O84 In78 2.266 . S
O84 C81 1.252 . S
O85 In78 2.326 . S
O85 C81 1.260 . S
O86 In78 2.266 . S
O86 C83 1.252 . S
O87 In78 2.326 . S
O87 C83 1.260 . S
C88 O79 1.240 . S
C88 O80 1.252 . S
O89 In78 2.294 . S
O89 C82 1.240 . S
O90 In78 2.326 . S
O90 C82 1.252 . S
In91 O92 2.294 . S
In91 O93 2.326 . S
In91 O97 2.266 . S
In91 O98 2.326 . S
In91 O99 2.266 . S
In91 O100 2.326 . S
In91 O102 2.294 . S
In91 O103 2.326 . S
O92 In91 2.294 . S
O92 C101 1.240 . S
O93 In91 2.326 . S
O93 C101 1.252 . S
C94 O97 1.252 . S
C94 O98 1.260 . S
C95 O102 1.240 . S
C95 O103 1.252 . S
C96 O99 1.252 . S
C96 O100 1.260 . S
O97 In91 2.266 . S
O97 C94 1.252 . S
O98 In91 2.326 . S
O98 C94 1.260 . S
O99 In91 2.266 . S
O99 C96 1.252 . S
O100 In91 2.326 . S
O100 C96 1.260 . S
C101 O92 1.240 . S
C101 O93 1.252 . S
O102 In91 2.294 . S
O102 C95 1.240 . S
O103 In91 2.326 . S
O103 C95 1.252 . S
In104 O105 2.294 . S
In104 O106 2.326 . S
In104 O110 2.266 . S
In104 O111 2.326 . S
In104 O112 2.266 . S
In104 O113 2.326 . S
In104 O115 2.294 . S
In104 O116 2.326 . S
O105 In104 2.294 . S
O105 C114 1.240 . S
O106 In104 2.326 . S
O106 C114 1.252 . S
C107 O110 1.252 . S
C107 O111 1.260 . S
C108 O115 1.240 . S
C108 O116 1.252 . S
C109 O112 1.252 . S
C109 O113 1.260 . S
O110 In104 2.266 . S
O110 C107 1.252 . S
O111 In104 2.326 . S
O111 C107 1.260 . S
O112 In104 2.266 . S
O112 C109 1.252 . S
O113 In104 2.326 . S
O113 C109 1.260 . S
C114 O105 1.240 . S
C114 O106 1.252 . S
O115 In104 2.294 . S
O115 C108 1.240 . S
O116 In104 2.326 . S
O116 C108 1.252 . S
In117 O118 2.294 . S
In117 O119 2.326 . S
In117 O123 2.266 . S
In117 O124 2.326 . S
In117 O125 2.266 . S
In117 O126 2.326 . S
In117 O128 2.294 . S
In117 O129 2.326 . S
O118 In117 2.294 . S
O118 C127 1.240 . S
O119 In117 2.326 . S
O119 C127 1.252 . S
C120 O123 1.252 . S
C120 O124 1.260 . S
C121 O128 1.240 . S
C121 O129 1.252 . S
C122 O125 1.252 . S
C122 O126 1.260 . S
O123 In117 2.266 . S
O123 C120 1.252 . S
O124 In117 2.326 . S
O124 C120 1.260 . S
O125 In117 2.266 . S
O125 C122 1.252 . S
O126 In117 2.326 . S
O126 C122 1.260 . S
C127 O118 1.240 . S
C127 O119 1.252 . S
O128 In117 2.294 . S
O128 C121 1.240 . S
O129 In117 2.326 . S
O129 C121 1.252 . S
In130 O131 2.294 . S
In130 O132 2.326 . S
In130 O136 2.266 . S
In130 O137 2.326 . S
In130 O138 2.266 . S
In130 O139 2.326 . S
In130 O141 2.294 . S
In130 O142 2.326 . S
O131 In130 2.294 . S
O131 C140 1.240 . S
O132 In130 2.326 . S
O132 C140 1.252 . S
C133 O136 1.252 . S
C133 O137 1.260 . S
C134 O141 1.240 . S
C134 O142 1.252 . S
C135 O138 1.252 . S
C135 O139 1.260 . S
O136 In130 2.266 . S
O136 C133 1.252 . S
O137 In130 2.326 . S
O137 C133 1.260 . S
O138 In130 2.266 . S
O138 C135 1.252 . S
O139 In130 2.326 . S
O139 C135 1.260 . S
C140 O131 1.240 . S
C140 O132 1.252 . S
O141 In130 2.294 . S
O141 C134 1.240 . S
O142 In130 2.326 . S
O142 C134 1.252 . S
In143 O144 2.294 . S
In143 O145 2.326 . S
In143 O149 2.266 . S
In143 O150 2.326 . S
In143 O151 2.266 . S
In143 O152 2.326 . S
In143 O154 2.294 . S
In143 O155 2.326 . S
O144 In143 2.294 . S
O144 C153 1.240 . S
O145 In143 2.326 . S
O145 C153 1.252 . S
C146 O149 1.252 . S
C146 O150 1.260 . S
C147 O154 1.240 . S
C147 O155 1.252 . S
C148 O151 1.252 . S
C148 O152 1.260 . S
O149 In143 2.266 . S
O149 C146 1.252 . S
O150 In143 2.326 . S
O150 C146 1.260 . S
O151 In143 2.266 . S
O151 C148 1.252 . S
O152 In143 2.326 . S
O152 C148 1.260 . S
C153 O144 1.240 . S
C153 O145 1.252 . S
O154 In143 2.294 . S
O154 C147 1.240 . S
O155 In143 2.326 . S
O155 C147 1.252 . S
In156 O157 2.294 . S
In156 O158 2.326 . S
In156 O162 2.266 . S
In156 O163 2.326 . S
In156 O164 2.266 . S
In156 O165 2.326 . S
In156 O167 2.294 . S
In156 O168 2.326 . S
O157 In156 2.294 . S
O157 C166 1.240 . S
O158 In156 2.326 . S
O158 C166 1.252 . S
C159 O162 1.252 . S
C159 O163 1.260 . S
C160 O167 1.240 . S
C160 O168 1.252 . S
C161 O164 1.252 . S
C161 O165 1.260 . S
O162 In156 2.266 . S
O162 C159 1.252 . S
O163 In156 2.326 . S
O163 C159 1.260 . S
O164 In156 2.266 . S
O164 C161 1.252 . S
O165 In156 2.326 . S
O165 C161 1.260 . S
C166 O157 1.240 . S
C166 O158 1.252 . S
O167 In156 2.294 . S
O167 C160 1.240 . S
O168 In156 2.326 . S
O168 C160 1.252 . S
In169 O170 2.294 . S
In169 O171 2.326 . S
In169 O175 2.266 . S
In169 O176 2.326 . S
In169 O177 2.266 . S
In169 O178 2.326 . S
In169 O180 2.294 . S
In169 O181 2.326 . S
O170 In169 2.294 . S
O170 C179 1.240 . S
O171 In169 2.326 . S
O171 C179 1.252 . S
C172 O175 1.252 . S
C172 O176 1.260 . S
C173 O180 1.240 . S
C173 O181 1.252 . S
C174 O177 1.252 . S
C174 O178 1.260 . S
O175 In169 2.266 . S
O175 C172 1.252 . S
O176 In169 2.326 . S
O176 C172 1.260 . S
O177 In169 2.266 . S
O177 C174 1.252 . S
O178 In169 2.326 . S
O178 C174 1.260 . S
C179 O170 1.240 . S
C179 O171 1.252 . S
O180 In169 2.294 . S
O180 C173 1.240 . S
O181 In169 2.326 . S
O181 C173 1.252 . S
In182 O183 2.294 . S
In182 O184 2.326 . S
In182 O188 2.266 . S
In182 O189 2.326 . S
In182 O190 2.266 . S
In182 O191 2.326 . S
In182 O193 2.294 . S
In182 O194 2.326 . S
O183 In182 2.294 . S
O183 C192 1.240 . S
O184 In182 2.326 . S
O184 C192 1.252 . S
C185 O188 1.252 . S
C185 O189 1.260 . S
C186 O193 1.240 . S
C186 O194 1.252 . S
C187 O190 1.252 . S
C187 O191 1.260 . S
O188 In182 2.266 . S
O188 C185 1.252 . S
O189 In182 2.326 . S
O189 C185 1.260 . S
O190 In182 2.266 . S
O190 C187 1.252 . S
O191 In182 2.326 . S
O191 C187 1.260 . S
C192 O183 1.240 . S
C192 O184 1.252 . S
O193 In182 2.294 . S
O193 C186 1.240 . S
O194 In182 2.326 . S
O194 C186 1.252 . S
In195 O196 2.294 . S
In195 O197 2.326 . S
In195 O201 2.266 . S
In195 O202 2.326 . S
In195 O203 2.266 . S
In195 O204 2.326 . S
In195 O206 2.294 . S
In195 O207 2.326 . S
O196 In195 2.294 . S
O196 C205 1.240 . S
O197 In195 2.326 . S
O197 C205 1.252 . S
C198 O201 1.252 . S
C198 O202 1.260 . S
C199 O206 1.240 . S
C199 O207 1.252 . S
C200 O203 1.252 . S
C200 O204 1.260 . S
O201 In195 2.266 . S
O201 C198 1.252 . S
O202 In195 2.326 . S
O202 C198 1.260 . S
O203 In195 2.266 . S
O203 C200 1.252 . S
O204 In195 2.326 . S
O204 C200 1.260 . S
C205 O196 1.240 . S
C205 O197 1.252 . S
O206 In195 2.294 . S
O206 C199 1.240 . S
O207 In195 2.326 . S
O207 C199 1.252 . S
H208 C214 0.930 . S
H209 C217 0.930 . S
H210 C218 0.930 . S
H211 C219 0.930 . S
H212 C222 0.930 . S
H213 C223 0.930 . S
C214 H208 0.930 . S
C214 C215 1.355 . S
C214 C216 1.415 . S
C215 C214 1.355 . S
C215 C217 1.419 . S
C216 C214 1.415 . S
C216 C221 1.425 1_556 S
C216 C223 1.409 . S
C217 H209 0.930 . S
C217 C215 1.419 . S
C217 C218 1.362 1_556 S
C218 H210 0.930 . S
C218 C217 1.362 1_554 S
C218 C221 1.409 . S
C219 H211 0.930 . S
C219 C220 1.355 . S
C219 C221 1.415 . S
C220 C219 1.355 . S
C220 C222 1.419 . S
C221 C216 1.425 1_554 S
C221 C218 1.409 . S
C221 C219 1.415 . S
C222 H212 0.930 . S
C222 C220 1.419 . S
C222 C223 1.362 1_554 S
C223 H213 0.930 . S
C223 C216 1.409 . S
C223 C222 1.362 1_556 S
H224 C230 0.930 . S
H225 C233 0.930 . S
H226 C234 0.930 . S
H227 C235 0.930 . S
H228 C238 0.930 . S
H229 C239 0.930 . S
C230 H224 0.930 . S
C230 C231 1.355 . S
C230 C232 1.415 . S
C231 C230 1.355 . S
C231 C233 1.419 . S
C232 C230 1.415 . S
C232 C237 1.425 . S
C232 C239 1.409 . S
C233 H225 0.930 . S
C233 C231 1.419 . S
C233 C234 1.362 . S
C234 H226 0.930 . S
C234 C233 1.362 . S
C234 C237 1.409 . S
C235 H227 0.930 . S
C235 C236 1.355 . S
C235 C237 1.415 . S
C236 C235 1.355 . S
C236 C238 1.419 . S
C237 C232 1.425 . S
C237 C234 1.409 . S
C237 C235 1.415 . S
C238 H228 0.930 . S
C238 C236 1.419 . S
C238 C239 1.362 . S
C239 H229 0.930 . S
C239 C232 1.409 . S
C239 C238 1.362 . S
H240 C246 0.930 . S
H241 C249 0.930 . S
H242 C250 0.930 1_554 S
H243 C251 0.930 . S
H244 C254 0.930 . S
H245 C255 0.930 1_556 S
C246 H240 0.930 . S
C246 C247 1.355 . S
C246 C248 1.415 . S
C247 C246 1.355 . S
C247 C249 1.419 . S
C248 C246 1.415 . S
C248 C253 1.425 1_556 S
C248 C255 1.409 1_556 S
C249 H241 0.930 . S
C249 C247 1.419 . S
C249 C250 1.362 . S
C250 H242 0.930 1_556 S
C250 C249 1.362 . S
C250 C253 1.409 1_556 S
C251 H243 0.930 . S
C251 C252 1.355 . S
C251 C253 1.415 . S
C252 C251 1.355 . S
C252 C254 1.419 . S
C253 C248 1.425 1_554 S
C253 C250 1.409 1_554 S
C253 C251 1.415 . S
C254 H244 0.930 . S
C254 C252 1.419 . S
C254 C255 1.362 . S
C255 H245 0.930 1_554 S
C255 C248 1.409 1_554 S
C255 C254 1.362 . S
H256 C262 0.930 . S
H257 C265 0.930 . S
H258 C266 0.930 . S
H259 C267 0.930 . S
H260 C270 0.930 . S
H261 C271 0.930 . S
C262 H256 0.930 . S
C262 C263 1.355 . S
C262 C264 1.415 . S
C263 C262 1.355 . S
C263 C265 1.419 . S
C264 C262 1.415 . S
C264 C269 1.425 . S
C264 C271 1.409 . S
C265 H257 0.930 . S
C265 C263 1.419 . S
C265 C266 1.362 . S
C266 H258 0.930 . S
C266 C265 1.362 . S
C266 C269 1.409 . S
C267 H259 0.930 . S
C267 C268 1.355 . S
C267 C269 1.415 . S
C268 C267 1.355 . S
C268 C270 1.419 . S
C269 C264 1.425 . S
C269 C266 1.409 . S
C269 C267 1.415 . S
C270 H260 0.930 . S
C270 C268 1.419 . S
C270 C271 1.362 . S
C271 H261 0.930 . S
C271 C264 1.409 . S
C271 C270 1.362 . S
H272 C278 0.930 . S
H273 C281 0.930 . S
H274 C282 0.930 . S
H275 C283 0.930 . S
H276 C286 0.930 . S
H277 C287 0.930 . S
C278 H272 0.930 . S
C278 C279 1.355 . S
C278 C280 1.415 . S
C279 C278 1.355 . S
C279 C281 1.419 . S
C280 C278 1.415 . S
C280 C285 1.425 1_554 S
C280 C287 1.409 1_554 S
C281 H273 0.930 . S
C281 C279 1.419 . S
C281 C282 1.362 . S
C282 H274 0.930 . S
C282 C281 1.362 . S
C282 C285 1.409 1_554 S
C283 H275 0.930 . S
C283 C284 1.355 . S
C283 C285 1.415 . S
C284 C283 1.355 . S
C284 C286 1.419 . S
C285 C280 1.425 1_556 S
C285 C282 1.409 1_556 S
C285 C283 1.415 . S
C286 H276 0.930 . S
C286 C284 1.419 . S
C286 C287 1.362 . S
C287 H277 0.930 . S
C287 C280 1.409 1_556 S
C287 C286 1.362 . S
H288 C294 0.930 . S
H289 C297 0.930 . S
H290 C298 0.930 . S
H291 C299 0.930 . S
H292 C302 0.930 . S
H293 C303 0.930 . S
C294 H288 0.930 . S
C294 C295 1.355 . S
C294 C296 1.415 . S
C295 C294 1.355 . S
C295 C297 1.419 . S
C296 C294 1.415 . S
C296 C301 1.425 . S
C296 C303 1.409 . S
C297 H289 0.930 . S
C297 C295 1.419 . S
C297 C298 1.362 . S
C298 H290 0.930 . S
C298 C297 1.362 . S
C298 C301 1.409 . S
C299 H291 0.930 . S
C299 C300 1.355 . S
C299 C301 1.415 . S
C300 C299 1.355 . S
C300 C302 1.419 . S
C301 C296 1.425 . S
C301 C298 1.409 . S
C301 C299 1.415 . S
C302 H292 0.930 . S
C302 C300 1.419 . S
C302 C303 1.362 . S
C303 H293 0.930 . S
C303 C296 1.409 . S
C303 C302 1.362 . S
H304 C310 0.930 . S
H305 C313 0.930 . S
H306 C314 0.930 . S
H307 C315 0.930 . S
H308 C318 0.930 . S
H309 C319 0.930 . S
C310 H304 0.930 . S
C310 C311 1.355 . S
C310 C312 1.415 . S
C311 C310 1.355 . S
C311 C313 1.419 . S
C312 C310 1.415 . S
C312 C317 1.425 1_556 S
C312 C319 1.409 . S
C313 H305 0.930 . S
C313 C311 1.419 . S
C313 C314 1.362 1_556 S
C314 H306 0.930 . S
C314 C313 1.362 1_554 S
C314 C317 1.409 . S
C315 H307 0.930 . S
C315 C316 1.355 . S
C315 C317 1.415 . S
C316 C315 1.355 . S
C316 C318 1.419 . S
C317 C312 1.425 1_554 S
C317 C314 1.409 . S
C317 C315 1.415 . S
C318 H308 0.930 . S
C318 C316 1.419 . S
C318 C319 1.362 1_554 S
C319 H309 0.930 . S
C319 C312 1.409 . S
C319 C318 1.362 1_556 S
H320 C326 0.930 . S
H321 C329 0.930 . S
H322 C330 0.930 . S
H323 C331 0.930 . S
H324 C334 0.930 . S
H325 C335 0.930 . S
C326 H320 0.930 . S
C326 C327 1.355 . S
C326 C328 1.415 . S
C327 C326 1.355 . S
C327 C329 1.419 . S
C328 C326 1.415 . S
C328 C333 1.425 . S
C328 C335 1.409 . S
C329 H321 0.930 . S
C329 C327 1.419 . S
C329 C330 1.362 . S
C330 H322 0.930 . S
C330 C329 1.362 . S
C330 C333 1.409 . S
C331 H323 0.930 . S
C331 C332 1.355 . S
C331 C333 1.415 . S
C332 C331 1.355 . S
C332 C334 1.419 . S
C333 C328 1.425 . S
C333 C330 1.409 . S
C333 C331 1.415 . S
C334 H324 0.930 . S
C334 C332 1.419 . S
C334 C335 1.362 . S
C335 H325 0.930 . S
C335 C328 1.409 . S
C335 C334 1.362 . S
H336 C342 0.930 . S
H337 C345 0.930 . S
H338 C346 0.930 . S
H339 C347 0.930 . S
H340 C350 0.930 . S
H341 C351 0.930 . S
C342 H336 0.930 . S
C342 C343 1.355 . S
C342 C344 1.415 . S
C343 C342 1.355 . S
C343 C345 1.419 . S
C344 C342 1.415 . S
C344 C349 1.425 . S
C344 C351 1.409 . S
C345 H337 0.930 . S
C345 C343 1.419 . S
C345 C346 1.362 . S
C346 H338 0.930 . S
C346 C345 1.362 . S
C346 C349 1.409 . S
C347 H339 0.930 . S
C347 C348 1.355 . S
C347 C349 1.415 . S
C348 C347 1.355 . S
C348 C350 1.419 . S
C349 C344 1.425 . S
C349 C346 1.409 . S
C349 C347 1.415 . S
C350 H340 0.930 . S
C350 C348 1.419 . S
C350 C351 1.362 . S
C351 H341 0.930 . S
C351 C344 1.409 . S
C351 C350 1.362 . S
H352 C358 0.930 . S
H353 C361 0.930 . S
H354 C362 0.930 . S
H355 C363 0.930 . S
H356 C366 0.930 . S
H357 C367 0.930 . S
C358 H352 0.930 . S
C358 C359 1.355 . S
C358 C360 1.415 . S
C359 C358 1.355 . S
C359 C361 1.419 . S
C360 C358 1.415 . S
C360 C365 1.425 . S
C360 C367 1.409 . S
C361 H353 0.930 . S
C361 C359 1.419 . S
C361 C362 1.362 . S
C362 H354 0.930 . S
C362 C361 1.362 . S
C362 C365 1.409 . S
C363 H355 0.930 . S
C363 C364 1.355 . S
C363 C365 1.415 . S
C364 C363 1.355 . S
C364 C366 1.419 . S
C365 C360 1.425 . S
C365 C362 1.409 . S
C365 C363 1.415 . S
C366 H356 0.930 . S
C366 C364 1.419 . S
C366 C367 1.362 . S
C367 H357 0.930 . S
C367 C360 1.409 . S
C367 C366 1.362 . S
H368 C374 0.930 . S
H369 C377 0.930 . S
H370 C378 0.930 . S
H371 C379 0.930 . S
H372 C382 0.930 . S
H373 C383 0.930 . S
C374 H368 0.930 . S
C374 C375 1.355 . S
C374 C376 1.415 . S
C375 C374 1.355 . S
C375 C377 1.419 . S
C376 C374 1.415 . S
C376 C381 1.425 . S
C376 C383 1.409 . S
C377 H369 0.930 . S
C377 C375 1.419 . S
C377 C378 1.362 . S
C378 H370 0.930 . S
C378 C377 1.362 . S
C378 C381 1.409 . S
C379 H371 0.930 . S
C379 C380 1.355 . S
C379 C381 1.415 . S
C380 C379 1.355 . S
C380 C382 1.419 . S
C381 C376 1.425 . S
C381 C378 1.409 . S
C381 C379 1.415 . S
C382 H372 0.930 . S
C382 C380 1.419 . S
C382 C383 1.362 . S
C383 H373 0.930 . S
C383 C376 1.409 . S
C383 C382 1.362 . S
H384 C390 0.930 . S
H385 C393 0.930 . S
H386 C394 0.930 . S
H387 C395 0.930 . S
H388 C398 0.930 . S
H389 C399 0.930 . S
C390 H384 0.930 . S
C390 C391 1.355 . S
C390 C392 1.415 . S
C391 C390 1.355 . S
C391 C393 1.419 . S
C392 C390 1.415 . S
C392 C397 1.425 . S
C392 C399 1.409 . S
C393 H385 0.930 . S
C393 C391 1.419 . S
C393 C394 1.362 . S
C394 H386 0.930 . S
C394 C393 1.362 . S
C394 C397 1.409 . S
C395 H387 0.930 . S
C395 C396 1.355 . S
C395 C397 1.415 . S
C396 C395 1.355 . S
C396 C398 1.419 . S
C397 C392 1.425 . S
C397 C394 1.409 . S
C397 C395 1.415 . S
C398 H388 0.930 . S
C398 C396 1.419 . S
C398 C399 1.362 . S
C399 H389 0.930 . S
C399 C392 1.409 . S
C399 C398 1.362 . S
H400 C406 0.930 . S
H401 C409 0.930 . S
H402 C410 0.930 . S
H403 C411 0.930 . S
H404 C414 0.930 . S
H405 C415 0.930 . S
C406 H400 0.930 . S
C406 C407 1.355 . S
C406 C408 1.415 . S
C407 C406 1.355 . S
C407 C409 1.419 . S
C408 C406 1.415 . S
C408 C413 1.425 . S
C408 C415 1.409 . S
C409 H401 0.930 . S
C409 C407 1.419 . S
C409 C410 1.362 . S
C410 H402 0.930 . S
C410 C409 1.362 . S
C410 C413 1.409 . S
C411 H403 0.930 . S
C411 C412 1.355 . S
C411 C413 1.415 . S
C412 C411 1.355 . S
C412 C414 1.419 . S
C413 C408 1.425 . S
C413 C410 1.409 . S
C413 C411 1.415 . S
C414 H404 0.930 . S
C414 C412 1.419 . S
C414 C415 1.362 . S
C415 H405 0.930 . S
C415 C408 1.409 . S
C415 C414 1.362 . S
H416 C422 0.930 . S
H417 C425 0.930 . S
H418 C426 0.930 . S
H419 C427 0.930 . S
H420 C430 0.930 . S
H421 C431 0.930 . S
C422 H416 0.930 . S
C422 C423 1.355 . S
C422 C424 1.415 . S
C423 C422 1.355 . S
C423 C425 1.419 . S
C424 C422 1.415 . S
C424 C429 1.425 . S
C424 C431 1.409 . S
C425 H417 0.930 . S
C425 C423 1.419 . S
C425 C426 1.362 . S
C426 H418 0.930 . S
C426 C425 1.362 . S
C426 C429 1.409 . S
C427 H419 0.930 . S
C427 C428 1.355 . S
C427 C429 1.415 . S
C428 C427 1.355 . S
C428 C430 1.419 . S
C429 C424 1.425 . S
C429 C426 1.409 . S
C429 C427 1.415 . S
C430 H420 0.930 . S
C430 C428 1.419 . S
C430 C431 1.362 . S
C431 H421 0.930 . S
C431 C424 1.409 . S
C431 C430 1.362 . S
H432 C438 0.930 . S
H433 C441 0.930 . S
H434 C442 0.930 . S
H435 C443 0.930 . S
H436 C446 0.930 . S
H437 C447 0.930 . S
C438 H432 0.930 . S
C438 C439 1.355 . S
C438 C440 1.415 . S
C439 C438 1.355 . S
C439 C441 1.419 . S
C440 C438 1.415 . S
C440 C445 1.425 . S
C440 C447 1.409 . S
C441 H433 0.930 . S
C441 C439 1.419 . S
C441 C442 1.362 . S
C442 H434 0.930 . S
C442 C441 1.362 . S
C442 C445 1.409 . S
C443 H435 0.930 . S
C443 C444 1.355 . S
C443 C445 1.415 . S
C444 C443 1.355 . S
C444 C446 1.419 . S
C445 C440 1.425 . S
C445 C442 1.409 . S
C445 C443 1.415 . S
C446 H436 0.930 . S
C446 C444 1.419 . S
C446 C447 1.362 . S
C447 H437 0.930 . S
C447 C440 1.409 . S
C447 C446 1.362 . S
H448 C454 0.930 . S
H449 C457 0.930 . S
H450 C458 0.930 . S
H451 C459 0.930 . S
H452 C462 0.930 . S
H453 C463 0.930 . S
C454 H448 0.930 . S
C454 C455 1.355 . S
C454 C456 1.415 . S
C455 C454 1.355 . S
C455 C457 1.419 . S
C456 C454 1.415 . S
C456 C461 1.425 . S
C456 C463 1.409 . S
C457 H449 0.930 . S
C457 C455 1.419 . S
C457 C458 1.362 . S
C458 H450 0.930 . S
C458 C457 1.362 . S
C458 C461 1.409 . S
C459 H451 0.930 . S
C459 C460 1.355 . S
C459 C461 1.415 . S
C460 C459 1.355 . S
C460 C462 1.419 . S
C461 C456 1.425 . S
C461 C458 1.409 . S
C461 C459 1.415 . S
C462 H452 0.930 . S
C462 C460 1.419 . S
C462 C463 1.362 . S
C463 H453 0.930 . S
C463 C456 1.409 . S
C463 C462 1.362 . S
H464 C470 0.930 . S
H465 C473 0.930 . S
H466 C474 0.930 . S
H467 C475 0.930 . S
H468 C478 0.930 . S
H469 C479 0.930 . S
C470 H464 0.930 . S
C470 C471 1.355 . S
C470 C472 1.415 . S
C471 C470 1.355 . S
C471 C473 1.419 . S
C472 C470 1.415 . S
C472 C477 1.425 . S
C472 C479 1.409 . S
C473 H465 0.930 . S
C473 C471 1.419 . S
C473 C474 1.362 . S
C474 H466 0.930 . S
C474 C473 1.362 . S
C474 C477 1.409 . S
C475 H467 0.930 . S
C475 C476 1.355 . S
C475 C477 1.415 . S
C476 C475 1.355 . S
C476 C478 1.419 . S
C477 C472 1.425 . S
C477 C474 1.409 . S
C477 C475 1.415 . S
C478 H468 0.930 . S
C478 C476 1.419 . S
C478 C479 1.362 . S
C479 H469 0.930 . S
C479 C472 1.409 . S
C479 C478 1.362 . S
H480 C486 0.930 . S
H481 C489 0.930 . S
H482 C490 0.930 . S
H483 C491 0.930 . S
H484 C494 0.930 . S
H485 C495 0.930 . S
C486 H480 0.930 . S
C486 C487 1.355 . S
C486 C488 1.415 . S
C487 C486 1.355 . S
C487 C489 1.419 . S
C488 C486 1.415 . S
C488 C493 1.425 . S
C488 C495 1.409 . S
C489 H481 0.930 . S
C489 C487 1.419 . S
C489 C490 1.362 . S
C490 H482 0.930 . S
C490 C489 1.362 . S
C490 C493 1.409 . S
C491 H483 0.930 . S
C491 C492 1.355 . S
C491 C493 1.415 . S
C492 C491 1.355 . S
C492 C494 1.419 . S
C493 C488 1.425 . S
C493 C490 1.409 . S
C493 C491 1.415 . S
C494 H484 0.930 . S
C494 C492 1.419 . S
C494 C495 1.362 . S
C495 H485 0.930 . S
C495 C488 1.409 . S
C495 C494 1.362 . S
H496 C502 0.930 . S
H497 C505 0.930 . S
H498 C506 0.930 . S
H499 C507 0.930 . S
H500 C510 0.930 . S
H501 C511 0.930 . S
C502 H496 0.930 . S
C502 C503 1.355 . S
C502 C504 1.415 . S
C503 C502 1.355 . S
C503 C505 1.419 . S
C504 C502 1.415 . S
C504 C509 1.425 . S
C504 C511 1.409 . S
C505 H497 0.930 . S
C505 C503 1.419 . S
C505 C506 1.362 . S
C506 H498 0.930 . S
C506 C505 1.362 . S
C506 C509 1.409 . S
C507 H499 0.930 . S
C507 C508 1.355 . S
C507 C509 1.415 . S
C508 C507 1.355 . S
C508 C510 1.419 . S
C509 C504 1.425 . S
C509 C506 1.409 . S
C509 C507 1.415 . S
C510 H500 0.930 . S
C510 C508 1.419 . S
C510 C511 1.362 . S
C511 H501 0.930 . S
C511 C504 1.409 . S
C511 C510 1.362 . S
H512 C518 0.930 . S
H513 C521 0.930 . S
H514 C522 0.930 . S
H515 C523 0.930 . S
H516 C526 0.930 . S
H517 C527 0.930 . S
C518 H512 0.930 . S
C518 C519 1.355 . S
C518 C520 1.415 . S
C519 C518 1.355 . S
C519 C521 1.419 . S
C520 C518 1.415 . S
C520 C525 1.425 . S
C520 C527 1.409 . S
C521 H513 0.930 . S
C521 C519 1.419 . S
C521 C522 1.362 . S
C522 H514 0.930 . S
C522 C521 1.362 . S
C522 C525 1.409 . S
C523 H515 0.930 . S
C523 C524 1.355 . S
C523 C525 1.415 . S
C524 C523 1.355 . S
C524 C526 1.419 . S
C525 C520 1.425 . S
C525 C522 1.409 . S
C525 C523 1.415 . S
C526 H516 0.930 . S
C526 C524 1.419 . S
C526 C527 1.362 . S
C527 H517 0.930 . S
C527 C520 1.409 . S
C527 C526 1.362 . S
H528 C534 0.930 . S
H529 C537 0.930 . S
H530 C538 0.930 . S
H531 C539 0.930 . S
H532 C542 0.930 . S
H533 C543 0.930 . S
C534 H528 0.930 . S
C534 C535 1.355 . S
C534 C536 1.415 . S
C535 C534 1.355 . S
C535 C537 1.419 . S
C536 C534 1.415 . S
C536 C541 1.425 . S
C536 C543 1.409 . S
C537 H529 0.930 . S
C537 C535 1.419 . S
C537 C538 1.362 . S
C538 H530 0.930 . S
C538 C537 1.362 . S
C538 C541 1.409 . S
C539 H531 0.930 . S
C539 C540 1.355 . S
C539 C541 1.415 . S
C540 C539 1.355 . S
C540 C542 1.419 . S
C541 C536 1.425 . S
C541 C538 1.409 . S
C541 C539 1.415 . S
C542 H532 0.930 . S
C542 C540 1.419 . S
C542 C543 1.362 . S
C543 H533 0.930 . S
C543 C536 1.409 . S
C543 C542 1.362 . S
H544 C550 0.930 . S
H545 C553 0.930 . S
H546 C554 0.930 . S
H547 C555 0.930 . S
H548 C558 0.930 . S
H549 C559 0.930 . S
C550 H544 0.930 . S
C550 C551 1.355 . S
C550 C552 1.415 . S
C551 C550 1.355 . S
C551 C553 1.419 . S
C552 C550 1.415 . S
C552 C557 1.425 . S
C552 C559 1.409 . S
C553 H545 0.930 . S
C553 C551 1.419 . S
C553 C554 1.362 . S
C554 H546 0.930 . S
C554 C553 1.362 . S
C554 C557 1.409 . S
C555 H547 0.930 . S
C555 C556 1.355 . S
C555 C557 1.415 . S
C556 C555 1.355 . S
C556 C558 1.419 . S
C557 C552 1.425 . S
C557 C554 1.409 . S
C557 C555 1.415 . S
C558 H548 0.930 . S
C558 C556 1.419 . S
C558 C559 1.362 . S
C559 H549 0.930 . S
C559 C552 1.409 . S
C559 C558 1.362 . S
H560 C566 0.930 . S
H561 C569 0.930 . S
H562 C570 0.930 . S
H563 C571 0.930 . S
H564 C574 0.930 . S
H565 C575 0.930 . S
C566 H560 0.930 . S
C566 C567 1.355 . S
C566 C568 1.415 . S
C567 C566 1.355 . S
C567 C569 1.419 . S
C568 C566 1.415 . S
C568 C573 1.425 . S
C568 C575 1.409 . S
C569 H561 0.930 . S
C569 C567 1.419 . S
C569 C570 1.362 . S
C570 H562 0.930 . S
C570 C569 1.362 . S
C570 C573 1.409 . S
C571 H563 0.930 . S
C571 C572 1.355 . S
C571 C573 1.415 . S
C572 C571 1.355 . S
C572 C574 1.419 . S
C573 C568 1.425 . S
C573 C570 1.409 . S
C573 C571 1.415 . S
C574 H564 0.930 . S
C574 C572 1.419 . S
C574 C575 1.362 . S
C575 H565 0.930 . S
C575 C568 1.409 . S
C575 C574 1.362 . S
H576 C582 0.930 . S
H577 C585 0.930 . S
H578 C586 0.930 . S
H579 C587 0.930 . S
H580 C590 0.930 . S
H581 C591 0.930 . S
C582 H576 0.930 . S
C582 C583 1.355 . S
C582 C584 1.415 . S
C583 C582 1.355 . S
C583 C585 1.419 . S
C584 C582 1.415 . S
C584 C589 1.425 . S
C584 C591 1.409 . S
C585 H577 0.930 . S
C585 C583 1.419 . S
C585 C586 1.362 . S
C586 H578 0.930 . S
C586 C585 1.362 . S
C586 C589 1.409 . S
C587 H579 0.930 . S
C587 C588 1.355 . S
C587 C589 1.415 . S
C588 C587 1.355 . S
C588 C590 1.419 . S
C589 C584 1.425 . S
C589 C586 1.409 . S
C589 C587 1.415 . S
C590 H580 0.930 . S
C590 C588 1.419 . S
C590 C591 1.362 . S
C591 H581 0.930 . S
C591 C584 1.409 . S
C591 C590 1.362 . S
H592 C598 0.930 . S
H593 C601 0.930 . S
H594 C602 0.930 . S
H595 C603 0.930 . S
H596 C606 0.930 . S
H597 C607 0.930 1_545 S
C598 H592 0.930 . S
C598 C599 1.355 . S
C598 C600 1.415 . S
C599 C598 1.355 . S
C599 C601 1.419 . S
C600 C598 1.415 . S
C600 C605 1.425 1_545 S
C600 C607 1.409 1_545 S
C601 H593 0.930 . S
C601 C599 1.419 . S
C601 C602 1.362 1_545 S
C602 H594 0.930 . S
C602 C601 1.362 1_565 S
C602 C605 1.409 . S
C603 H595 0.930 . S
C603 C604 1.355 . S
C603 C605 1.415 . S
C604 C603 1.355 . S
C604 C606 1.419 . S
C605 C600 1.425 1_565 S
C605 C602 1.409 . S
C605 C603 1.415 . S
C606 H596 0.930 . S
C606 C604 1.419 . S
C606 C607 1.362 . S
C607 H597 0.930 1_565 S
C607 C600 1.409 1_565 S
C607 C606 1.362 . S
H608 C614 0.930 . S
H609 C617 0.930 . S
H610 C618 0.930 . S
H611 C619 0.930 . S
H612 C622 0.930 . S
H613 C623 0.930 . S
C614 H608 0.930 . S
C614 C615 1.355 . S
C614 C616 1.415 . S
C615 C614 1.355 . S
C615 C617 1.419 . S
C616 C614 1.415 . S
C616 C621 1.425 . S
C616 C623 1.409 . S
C617 H609 0.930 . S
C617 C615 1.419 . S
C617 C618 1.362 . S
C618 H610 0.930 . S
C618 C617 1.362 . S
C618 C621 1.409 . S
C619 H611 0.930 . S
C619 C620 1.355 . S
C619 C621 1.415 . S
C620 C619 1.355 . S
C620 C622 1.419 . S
C621 C616 1.425 . S
C621 C618 1.409 . S
C621 C619 1.415 . S
C622 H612 0.930 . S
C622 C620 1.419 . S
C622 C623 1.362 . S
C623 H613 0.930 . S
C623 C616 1.409 . S
C623 C622 1.362 . S
H624 C630 0.930 . S
H625 C633 0.930 . S
H626 C634 0.930 . S
H627 C635 0.930 1_455 S
H628 C638 0.930 . S
H629 C639 0.930 . S
C630 H624 0.930 . S
C630 C631 1.355 . S
C630 C632 1.415 . S
C631 C630 1.355 . S
C631 C633 1.419 . S
C632 C630 1.415 . S
C632 C637 1.425 . S
C632 C639 1.409 1_455 S
C633 H625 0.930 . S
C633 C631 1.419 . S
C633 C634 1.362 . S
C634 H626 0.930 . S
C634 C633 1.362 . S
C634 C637 1.409 . S
C635 H627 0.930 1_655 S
C635 C636 1.355 . S
C635 C637 1.415 1_655 S
C636 C635 1.355 . S
C636 C638 1.419 . S
C637 C632 1.425 . S
C637 C634 1.409 . S
C637 C635 1.415 1_455 S
C638 H628 0.930 . S
C638 C636 1.419 . S
C638 C639 1.362 . S
C639 H629 0.930 . S
C639 C632 1.409 1_655 S
C639 C638 1.362 . S
H640 C646 0.930 . S
H641 C649 0.930 . S
H642 C650 0.930 . S
H643 C651 0.930 . S
H644 C654 0.930 . S
H645 C655 0.930 . S
C646 H640 0.930 . S
C646 C647 1.355 . S
C646 C648 1.415 1_565 S
C647 C646 1.355 . S
C647 C649 1.419 . S
C648 C646 1.415 1_545 S
C648 C653 1.425 . S
C648 C655 1.409 1_655 S
C649 H641 0.930 . S
C649 C647 1.419 . S
C649 C650 1.362 1_565 S
C650 H642 0.930 . S
C650 C649 1.362 1_545 S
C650 C653 1.409 . S
C651 H643 0.930 . S
C651 C652 1.355 . S
C651 C653 1.415 1_455 S
C652 C651 1.355 . S
C652 C654 1.419 . S
C653 C648 1.425 . S
C653 C650 1.409 . S
C653 C651 1.415 1_655 S
C654 H644 0.930 . S
C654 C652 1.419 . S
C654 C655 1.362 . S
C655 H645 0.930 . S
C655 C648 1.409 1_455 S
C655 C654 1.362 . S
H656 C662 0.930 . S
H657 C665 0.930 . S
H658 C666 0.930 . S
H659 C667 0.930 . S
H660 C670 0.930 . S
H661 C671 0.930 . S
C662 H656 0.930 . S
C662 C663 1.355 . S
C662 C664 1.415 . S
C663 C662 1.355 . S
C663 C665 1.419 . S
C664 C662 1.415 . S
C664 C669 1.425 . S
C664 C671 1.409 . S
C665 H657 0.930 . S
C665 C663 1.419 . S
C665 C666 1.362 . S
C666 H658 0.930 . S
C666 C665 1.362 . S
C666 C669 1.409 . S
C667 H659 0.930 . S
C667 C668 1.355 . S
C667 C669 1.415 . S
C668 C667 1.355 . S
C668 C670 1.419 . S
C669 C664 1.425 . S
C669 C666 1.409 . S
C669 C667 1.415 . S
C670 H660 0.930 . S
C670 C668 1.419 . S
C670 C671 1.362 . S
C671 H661 0.930 . S
C671 C664 1.409 . S
C671 C670 1.362 . S
H672 C678 0.930 . S
H673 C681 0.931 . S
H674 C682 0.930 . S
H675 C683 0.930 . S
H676 C686 0.930 . S
H677 C687 0.930 . S
C678 H672 0.930 . S
C678 C679 1.355 . S
C678 C680 1.415 . S
C679 C678 1.355 . S
C679 C681 1.408 1_455 S
C680 C678 1.415 . S
C680 C685 1.425 1_455 S
C680 C687 1.409 . S
C681 H673 0.931 . S
C681 C679 1.408 1_655 S
C681 C682 1.373 . S
C682 H674 0.930 . S
C682 C681 1.373 . S
C682 C685 1.409 . S
C683 H675 0.930 . S
C683 C684 1.355 . S
C683 C685 1.415 . S
C684 C683 1.355 . S
C684 C686 1.419 . S
C685 C680 1.425 1_655 S
C685 C682 1.409 . S
C685 C683 1.415 . S
C686 H676 0.930 . S
C686 C684 1.419 . S
C686 C687 1.362 1_655 S
C687 H677 0.930 . S
C687 C680 1.409 . S
C687 C686 1.362 1_455 S
H688 C694 0.930 1_455 S
H689 C697 0.930 . S
H690 C698 0.930 . S
H691 C699 0.930 . S
H692 C702 0.932 . S
H693 C703 0.930 . S
C694 H688 0.930 1_655 S
C694 C695 1.355 . S
C694 C696 1.415 1_655 S
C695 C694 1.355 . S
C695 C697 1.419 . S
C696 C694 1.415 1_455 S
C696 C701 1.425 1_565 S
C696 C703 1.409 . S
C697 H689 0.930 . S
C697 C695 1.419 . S
C697 C698 1.362 1_565 S
C698 H690 0.930 . S
C698 C697 1.362 1_545 S
C698 C701 1.409 1_655 S
C699 H691 0.930 . S
C699 C700 1.355 . S
C699 C701 1.415 . S
C700 C699 1.355 . S
C700 C702 1.394 1_545 S
C701 C696 1.425 1_545 S
C701 C698 1.409 1_455 S
C701 C699 1.415 . S
C702 H692 0.932 . S
C702 C700 1.394 1_565 S
C702 C703 1.386 . S
C703 H693 0.930 . S
C703 C696 1.409 . S
C703 C702 1.386 . S
H704 C710 0.930 . S
H705 C713 0.929 1_545 S
H706 C714 0.930 . S
H707 C715 0.930 . S
H708 C718 0.930 . S
H709 C719 0.930 . S
C710 H704 0.930 . S
C710 C711 1.355 . S
C710 C712 1.415 . S
C711 C710 1.355 . S
C711 C713 1.436 . S
C712 C710 1.415 . S
C712 C717 1.425 1_565 S
C712 C719 1.409 . S
C713 H705 0.929 1_565 S
C713 C711 1.436 . S
C713 C714 1.346 1_565 S
C714 H706 0.930 . S
C714 C713 1.346 1_545 S
C714 C717 1.409 . S
C715 H707 0.930 . S
C715 C716 1.355 . S
C715 C717 1.415 . S
C716 C715 1.355 . S
C716 C718 1.419 . S
C717 C712 1.425 1_545 S
C717 C714 1.409 . S
C717 C715 1.415 . S
C718 H708 0.930 . S
C718 C716 1.419 . S
C718 C719 1.362 1_545 S
C719 H709 0.930 . S
C719 C712 1.409 . S
C719 C718 1.362 1_565 S
C215 C95 1.582 . S
C220 C10 1.583 . S
C231 C56 1.540 . S
C236 C17 1.531 . S
C247 C75 1.557 . S
C252 C30 1.566 . S
C263 C49 1.510 . S
C268 C88 1.512 . S
C279 C205 1.547 . S
C284 C108 1.558 . S
C295 C166 1.544 . S
C300 C127 1.554 . S
C311 C140 1.583 . S
C316 C173 1.579 . S
C327 C153 1.510 . S
C332 C192 1.510 . S
C343 C29 1.309 . S
C348 C5 1.314 . S
C359 C16 1.271 . S
C364 C44 1.246 . S
C375 C55 1.229 . S
C380 C83 1.217 . S
C391 C94 1.225 . S
C396 C70 1.216 . S
C407 C107 1.218 . S
C412 C135 1.231 . S
C423 C122 1.251 . S
C428 C148 1.276 . S
C439 C187 1.255 . S
C444 C161 1.232 . S
C455 C172 1.312 . S
C460 C200 1.299 . S
C471 C81 1.369 . S
C476 C3 1.411 . S
C487 C18 1.401 . S
C492 C96 1.420 . S
C503 C31 1.411 . S
C508 C57 1.368 . S
C519 C42 1.402 . S
C524 C68 1.362 . S
C535 C109 1.397 . S
C540 C185 1.360 . S
C551 C120 1.403 . S
C556 C198 1.362 . S
C567 C133 1.388 . S
C572 C159 1.421 . S
C583 C146 1.363 . S
C588 C174 1.371 . S
C599 C4 1.309 . S
C604 C199 1.345 . S
C615 C160 1.309 . S
C620 C23 1.345 . S
C631 C36 1.307 . S
C636 C179 1.347 . S
C647 C186 1.341 . S
C652 C43 1.313 . S
C663 C121 1.328 . S
C668 C62 1.326 . S
C679 C69 1.309 . S
C684 C134 1.345 . S
C695 C147 1.339 . S
C700 C82 1.315 . S
C711 C114 1.310 . S
C716 C101 1.344 . S
