# Generated by pormake.
# Topology oob, (7)-cn, num edge types: 1
# Building blocks:
#     Node 0, Type 0, BuildingBlock: HICVOG_clean_sbu_0, # of connection points: 7
#     Node 1, Type 0, BuildingBlock: HICVOG_clean_sbu_0, # of connection points: 7
#     Node 2, Type 0, BuildingBlock: HICVOG_clean_sbu_0, # of connection points: 7
#     Node 3, Type 0, BuildingBlock: HICVOG_clean_sbu_0, # of connection points: 7
#     Edge 4, Type (0, 0), BuildingBlock: TEMPAE_clean_linker_10, # of connection points: 2
#     Edge 5, Type (0, 0), BuildingBlock: TEMPAE_clean_linker_10, # of connection points: 2
#     Edge 6, Type (0, 0), BuildingBlock: TEMPAE_clean_linker_10, # of connection points: 2
#     Edge 7, Type (0, 0), BuildingBlock: TEMPAE_clean_linker_10, # of connection points: 2
#     Edge 8, Type (0, 0), BuildingBlock: TEMPAE_clean_linker_10, # of connection points: 2
#     Edge 9, Type (0, 0), BuildingBlock: TEMPAE_clean_linker_10, # of connection points: 2
#     Edge 10, Type (0, 0), BuildingBlock: TEMPAE_clean_linker_10, # of connection points: 2
#     Edge 11, Type (0, 0), BuildingBlock: TEMPAE_clean_linker_10, # of connection points: 2
#     Edge 12, Type (0, 0), BuildingBlock: TEMPAE_clean_linker_10, # of connection points: 2
#     Edge 13, Type (0, 0), BuildingBlock: TEMPAE_clean_linker_10, # of connection points: 2
#     Edge 14, Type (0, 0), BuildingBlock: TEMPAE_clean_linker_10, # of connection points: 2
#     Edge 15, Type (0, 0), BuildingBlock: TEMPAE_clean_linker_10, # of connection points: 2
#     Edge 16, Type (0, 0), BuildingBlock: TEMPAE_clean_linker_10, # of connection points: 2
#     Edge 17, Type (0, 0), BuildingBlock: TEMPAE_clean_linker_10, # of connection points: 2
# Relax obj value: 0.265
# Max RMSD: 0.256
# Mean RMSD: 0.256
data_MOF--net-oob--node1-HICVOG_clean_sbu_0--edge1-TEMPAE_clean_linker_10
_symmetry_space_group_name_H-M    P1
_symmetry_Int_Tables_number       1
_symmetry_cell_setting            triclinic
loop_
_symmetry_equiv_pos_as_xyz
'x, y, z'
_cell_length_a     17.690944
_cell_length_b     40.571112
_cell_length_c     27.481971
_cell_angle_alpha  90.416188
_cell_angle_beta   106.50878
_cell_angle_gamma 90.144259
loop_
_atom_site_label
_atom_site_type_symbol
_atom_site_fract_x
_atom_site_fract_y
_atom_site_fract_z
_atom_type_partial_charge
Zn0 Zn 0.24061 0.04531 0.80945 0.0
C1 C 0.16311 1.00474 0.91909 0.0
N2 N 0.21901 0.02412 0.949 0.0
C3 C 0.25445 0.03659 0.91602 0.0
N4 N 0.22235 0.02508 0.86835 0.0
N5 N 0.1642 1.00502 0.87029 0.0
C6 C 0.95094 0.99362 0.79974 0.0
O7 O 0.98037 0.0162 0.7762 0.0
O8 O 0.35645 0.04309 0.81344 0.0
Zn9 Zn 0.10941 0.97251 0.82106 0.0
N10 N 0.20599 0.09029 0.81266 0.0
C11 C 0.10612 0.12308 0.83084 0.0
C12 C 0.13725 0.09241 0.82527 0.0
C13 C 0.24492 0.11786 0.80461 0.0
N14 N 0.14436 0.15053 0.82277 0.0
C15 C 0.21294 0.14918 0.80954 0.0
O16 O 0.10462 0.98248 0.7482 0.0
C17 C 0.12896 1.00316 0.72133 0.0
O18 O 0.17675 0.02631 0.74143 0.0
H19 H 0.10693 0.07027 0.83115 0.0
H20 H 0.29867 0.11519 0.79368 0.0
C21 C 0.12976 0.90058 0.8238 0.0
C22 C 0.16881 0.87154 0.8449 0.0
C23 C 0.26882 0.90379 0.90097 0.0
C24 C 0.23084 0.93237 0.87972 0.0
N25 N 0.16123 0.93044 0.84241 0.0
N26 N 0.23701 0.87417 0.8832 0.0
H27 H 0.07487 0.89948 0.79371 0.0
C28 C 0.381 0.01725 0.79638 0.0
O29 O 0.33028 0.99368 0.77655 0.0
O30 O 0.99587 0.97079 0.82293 0.0
H31 H 0.25684 0.95593 0.89353 0.0
H32 H 0.05168 0.12514 0.84117 0.0
H33 H 0.32348 0.90508 0.93118 0.0
Zn34 Zn 0.7713 0.04427 0.25239 0.0
C35 C 0.85128 1.00527 0.14215 0.0
N36 N 0.79648 0.02469 0.11242 0.0
C37 C 0.75798 0.03596 0.14468 0.0
N38 N 0.78791 0.02396 0.1921 0.0
N39 N 0.84725 1.00459 0.19032 0.0
C40 C 0.05479 0.99694 0.24211 0.0
O41 O 0.01925 0.02481 0.24596 0.0
O42 O 0.6579 0.04023 0.25325 0.0
Zn43 Zn 0.9028 0.97261 0.23935 0.0
N44 N 0.80267 0.08977 0.2484 0.0
C45 C 0.89839 0.12342 0.22687 0.0
C46 C 0.86926 0.09251 0.23337 0.0
C47 C 0.76403 0.11703 0.25799 0.0
N48 N 0.86051 0.15054 0.23653 0.0
C49 C 0.79415 0.14861 0.25221 0.0
O50 O 0.91058 0.98332 0.31219 0.0
C51 C 0.88712 1.00404 0.33962 0.0
O52 O 0.83832 0.02667 0.32008 0.0
H53 H 0.8994 0.07068 0.22623 0.0
H54 H 0.71203 0.11398 0.27078 0.0
C55 C 0.88109 0.901 0.23855 0.0
C56 C 0.84187 0.87156 0.21829 0.0
C57 C 0.74231 0.9026 0.16111 0.0
C58 C 0.7806 0.93162 0.18145 0.0
N59 N 0.85002 0.93043 0.21894 0.0
N60 N 0.77378 0.87336 0.17984 0.0
H61 H 0.93588 0.90052 0.26874 0.0
C62 C 0.62621 0.01176 0.24874 0.0
O63 O 0.66653 0.98607 0.24104 0.0
O64 O 0.01615 0.97007 0.23753 0.0
H65 H 0.75522 0.9549 0.16666 0.0
H66 H 0.95104 0.12592 0.2146 0.0
H67 H 0.68777 0.90326 0.13076 0.0
Zn68 Zn 0.75036 0.54442 0.30903 0.0
C69 C 0.66782 0.50839 0.41959 0.0
N70 N 0.72267 0.52858 0.44864 0.0
C71 C 0.75962 0.53977 0.41563 0.0
N72 N 0.72939 0.52669 0.36874 0.0
N73 N 0.67103 0.50691 0.37122 0.0
C74 C 0.46028 0.4918 0.30252 0.0
O75 O 0.4881 0.51439 0.2781 0.0
O76 O 0.86655 0.54107 0.31489 0.0
Zn77 Zn 0.61963 0.47279 0.32381 0.0
N78 N 0.71652 0.58967 0.30854 0.0
C79 C 0.61206 0.62329 0.31848 0.0
C80 C 0.6442 0.59237 0.31617 0.0
C81 C 0.75838 0.61686 0.30257 0.0
N82 N 0.65313 0.65037 0.31234 0.0
C83 C 0.7255 0.6484 0.30422 0.0
O84 O 0.61319 0.48137 0.25005 0.0
C85 C 0.63809 0.50123 0.22228 0.0
O86 O 0.6868 0.52427 0.24154 0.0
H87 H 0.61189 0.57047 0.32065 0.0
H88 H 0.8152 0.61376 0.29574 0.0
C89 C 0.64782 0.40152 0.3292 0.0
C90 C 0.68961 0.37325 0.35124 0.0
C91 C 0.78459 0.40741 0.40776 0.0
C92 C 0.74389 0.43522 0.38558 0.0
N93 N 0.67555 0.43194 0.34745 0.0
N94 N 0.75661 0.37722 0.39019 0.0
H95 H 0.5937 0.39942 0.29862 0.0
C96 C 0.89113 0.51442 0.30018 0.0
O97 O 0.84019 0.49073 0.28138 0.0
O98 O 0.5067 0.46962 0.32631 0.0
H99 H 0.7668 0.45925 0.39929 0.0
H100 H 0.5547 0.62581 0.32478 0.0
H101 H 0.83833 0.40976 0.43855 0.0
Zn102 Zn 0.26934 0.54303 0.75546 0.0
C103 C 0.35741 0.51034 0.64494 0.0
N104 N 0.3054 0.53131 0.61642 0.0
C105 C 0.26351 0.54067 0.64781 0.0
N106 N 0.2891 0.52604 0.6938 0.0
N107 N 0.34861 0.50683 0.69171 0.0
C108 C 0.55329 0.49417 0.73993 0.0
O109 O 0.52116 0.52231 0.74689 0.0
O110 O 0.15593 0.53685 0.75556 0.0
Zn111 Zn 0.39996 0.47259 0.73816 0.0
N112 N 0.29901 0.58904 0.75602 0.0
C113 C 0.40082 0.62376 0.74453 0.0
C114 C 0.37049 0.59253 0.74737 0.0
C115 C 0.2563 0.61581 0.76263 0.0
N116 N 0.35898 0.6504 0.75128 0.0
C117 C 0.28751 0.64773 0.76055 0.0
O118 O 0.41138 0.48175 0.81223 0.0
C119 C 0.38781 0.50175 0.84064 0.0
O120 O 0.33779 0.52417 0.82205 0.0
H121 H 0.40351 0.57101 0.74242 0.0
H122 H 0.20019 0.61214 0.77023 0.0
C123 C 0.3665 0.40169 0.73423 0.0
C124 C 0.32284 0.37343 0.7127 0.0
C125 C 0.23036 0.40735 0.65539 0.0
C126 C 0.27313 0.43518 0.67691 0.0
N127 N 0.34102 0.43197 0.71527 0.0
N128 N 0.25617 0.37726 0.67362 0.0
H129 H 0.42042 0.39965 0.7649 0.0
C130 C 0.12457 0.50832 0.74765 0.0
O131 O 0.165 0.4836 0.73685 0.0
O132 O 0.51206 0.46793 0.73427 0.0
H133 H 0.25243 0.45913 0.66235 0.0
H134 H 0.45743 0.62688 0.73733 0.0
H135 H 0.1769 0.40961 0.62445 0.0
C136 C 0.81673 0.01827 0.76896 0.0
C137 C 0.86772 0.99588 0.8007 0.0
C138 C 0.73816 0.02149 0.76975 0.0
C139 C 0.70993 1.00225 0.80371 0.0
C140 C 0.76112 0.97968 0.83607 0.0
C141 C 0.83922 0.97649 0.83378 0.0
C142 C 0.68514 0.04537 0.7339 0.0
C143 C 0.73367 0.95919 0.8735 0.0
C144 C 0.52321 0.03373 0.83079 0.0
C145 C 0.4654 0.01331 0.79917 0.0
C146 C 0.60344 0.02965 0.8341 0.0
C147 C 0.62607 1.00521 0.80397 0.0
C148 C 0.56785 0.98463 0.77188 0.0
C149 C 0.48843 0.98871 0.77028 0.0
C150 C 0.66395 0.05152 0.86976 0.0
C151 C 0.58926 0.9587 0.73841 0.0
H152 H 0.83805 0.03323 0.74307 0.0
H153 H 0.87839 0.95928 0.85866 0.0
H154 H 0.63335 0.03206 0.70916 0.0
H155 H 0.66252 0.06412 0.75574 0.0
H156 H 0.71596 0.05827 0.70945 0.0
H157 H 0.7157 0.97562 0.90066 0.0
H158 H 0.68123 0.94433 0.85344 0.0
H159 H 0.78023 0.94231 0.89525 0.0
H160 H 0.50589 0.05265 0.85349 0.0
H161 H 0.4441 0.97291 0.74558 0.0
H162 H 0.69687 0.06587 0.84816 0.0
H163 H 0.70747 0.03617 0.8973 0.0
H164 H 0.63685 0.069 0.89116 0.0
H165 H 0.61722 0.97057 0.71157 0.0
H166 H 0.53713 0.94436 0.71619 0.0
H167 H 0.63287 0.94137 0.76178 0.0
C168 C 0.49398 0.98537 0.21548 0.0
C169 C 0.54335 1.00782 0.24882 0.0
C170 C 0.41355 0.98303 0.21246 0.0
C171 C 0.38342 1.00174 0.24642 0.0
C172 C 0.43434 0.02316 0.28211 0.0
C173 C 0.51321 0.02668 0.28182 0.0
C174 C 0.36038 0.96152 0.17175 0.0
C175 C 0.40558 0.04232 0.32064 0.0
C176 C 0.16622 0.02276 0.21759 0.0
C177 C 0.13803 0.99725 0.24182 0.0
C178 C 0.24513 0.02362 0.21677 0.0
C179 C 0.29832 0.99962 0.24387 0.0
C180 C 0.27044 0.97422 0.26956 0.0
C181 C 0.18999 0.97281 0.26701 0.0
C182 C 0.27136 0.04999 0.18648 0.0
C183 C 0.32595 0.94919 0.30105 0.0
H184 H 0.51754 0.97073 0.19004 0.0
H185 H 0.55185 0.04367 0.30818 0.0
H186 H 0.33248 0.94213 0.18914 0.0
H187 H 0.31214 0.97659 0.14746 0.0
H188 H 0.39265 0.94947 0.14723 0.0
H189 H 0.4544 0.05521 0.34894 0.0
H190 H 0.36186 0.06095 0.3012 0.0
H191 H 0.37557 0.02552 0.341 0.0
H192 H 0.12611 0.04182 0.19857 0.0
H193 H 0.16829 0.95336 0.28642 0.0
H194 H 0.29646 0.03832 0.15789 0.0
H195 H 0.31849 0.06541 0.21165 0.0
H196 H 0.22219 0.06633 0.16654 0.0
H197 H 0.35453 0.93476 0.27682 0.0
H198 H 0.2954 0.93181 0.32028 0.0
H199 H 0.37351 0.96201 0.33031 0.0
C200 C 0.35027 0.47411 0.33779 0.0
C201 C 0.37726 0.49349 0.304 0.0
C202 C 0.27234 0.47682 0.34059 0.0
C203 C 0.2199 0.49896 0.30815 0.0
C204 C 0.24664 0.5182 0.27352 0.0
C205 C 0.32499 0.5154 0.27214 0.0
C206 C 0.2464 0.45632 0.37862 0.0
C207 C 0.19228 0.54165 0.23761 0.0
C208 C 0.99872 0.48497 0.2756 0.0
C209 C 0.97564 0.50993 0.30388 0.0
C210 C 0.07817 0.48076 0.27739 0.0
C211 C 0.13631 0.50156 0.30907 0.0
C212 C 0.11369 0.52616 0.33898 0.0
C213 C 0.03345 0.53036 0.33547 0.0
C214 C 0.09961 0.45462 0.24426 0.0
C215 C 0.17415 0.54824 0.37425 0.0
H216 H 0.39047 0.4573 0.36281 0.0
H217 H 0.34516 0.53035 0.24573 0.0
H218 H 0.22849 0.47274 0.40582 0.0
H219 H 0.19424 0.44113 0.35911 0.0
H220 H 0.29378 0.43975 0.40027 0.0
H221 H 0.22201 0.55455 0.21257 0.0
H222 H 0.14057 0.52798 0.21347 0.0
H223 H 0.16967 0.5604 0.25945 0.0
H224 H 0.95435 0.46914 0.25101 0.0
H225 H 0.01605 0.54949 0.35779 0.0
H226 H 0.14443 0.43776 0.2677 0.0
H227 H 0.12609 0.46639 0.2166 0.0
H228 H 0.04773 0.43978 0.22297 0.0
H229 H 0.21931 0.53309 0.40099 0.0
H230 H 0.14728 0.56518 0.39654 0.0
H231 H 0.20508 0.56318 0.35211 0.0
C232 C 0.68431 0.46663 0.7557 0.0
C233 C 0.63548 0.49357 0.73727 0.0
C234 C 0.76431 0.46719 0.7569 0.0
C235 C 0.79492 0.49469 0.73704 0.0
C236 C 0.74458 0.5212 0.7161 0.0
C237 C 0.6661 0.52071 0.7178 0.0
C238 C 0.81672 0.439 0.78123 0.0
C239 C 0.7738 0.55019 0.69222 0.0
C240 C 0.01174 0.51826 0.78306 0.0
C241 C 0.04127 0.50366 0.746 0.0
C242 C 0.93233 0.51426 0.78171 0.0
C243 C 0.88046 0.49676 0.74077 0.0
C244 C 0.91006 0.48232 0.70284 0.0
C245 C 0.9908 0.48509 0.70683 0.0
C246 C 0.90389 0.52893 0.82399 0.0
C247 C 0.85605 0.46523 0.657 0.0
H248 H 0.66079 0.44576 0.77118 0.0
H249 H 0.62839 0.54156 0.70352 0.0
H250 H 0.84529 0.42796 0.75395 0.0
H251 H 0.86444 0.44835 0.81409 0.0
H252 H 0.78372 0.41937 0.79461 0.0
H253 H 0.72624 0.56811 0.67566 0.0
H254 H 0.82155 0.56325 0.72091 0.0
H255 H 0.79898 0.54139 0.66182 0.0
H256 H 0.05121 0.53232 0.81362 0.0
H257 H 0.01383 0.47405 0.67795 0.0
H258 H 0.8722 0.50995 0.83967 0.0
H259 H 0.86167 0.54909 0.80903 0.0
H260 H 0.95308 0.53902 0.85535 0.0
H261 H 0.82135 0.44563 0.6688 0.0
H262 H 0.88886 0.45413 0.63203 0.0
H263 H 0.81337 0.48329 0.63454 0.0
C264 C 0.03327 0.98021 0.64238 0.0
C265 C 0.09628 1.00158 0.66507 0.0
C266 C 0.99834 0.97989 0.5896 0.0
C267 C 0.02725 1.00129 0.55845 0.0
C268 C 0.09163 0.02251 0.58092 0.0
C269 C 0.12516 0.02248 0.63387 0.0
C270 C 0.92966 0.95697 0.56723 0.0
C271 C 0.12466 0.04551 0.54904 0.0
C272 C 0.98258 0.98083 0.41761 0.0
C273 C 0.9208 1.00263 0.3958 0.0
C274 C 0.01755 0.98011 0.47035 0.0
C275 C 0.98997 1.00154 0.50238 0.0
C276 C 0.92704 0.02331 0.48079 0.0
C277 C 0.89341 0.02367 0.42784 0.0
C278 C 0.0847 0.95664 0.49175 0.0
C279 C 0.89552 0.04638 0.51365 0.0
H280 H 0.01005 0.96406 0.66597 0.0
H281 H 0.17379 0.03906 0.65085 0.0
H282 H 0.877 0.97147 0.54732 0.0
H283 H 0.94346 0.94038 0.53866 0.0
H284 H 0.91461 0.94164 0.59653 0.0
H285 H 0.1759 0.05998 0.57214 0.0
H286 H 0.1434 0.03124 0.51991 0.0
H287 H 0.07835 0.0629 0.52865 0.0
H288 H 1.00459 0.96452 0.39339 0.0
H289 H 0.84575 0.04058 0.41156 0.0
H290 H 0.06962 0.93993 0.51941 0.0
H291 H 0.13821 0.97067 0.51249 0.0
H292 H 0.09901 0.94144 0.46178 0.0
H293 H 0.87559 0.03211 0.54206 0.0
H294 H 0.84541 0.06137 0.49115 0.0
H295 H 0.94301 0.0633 0.53491 0.0
C296 C 0.48448 0.47786 0.91784 0.0
C297 C 0.42273 0.49986 0.89682 0.0
C298 C 0.52074 0.47687 0.9705 0.0
C299 C 0.49463 0.49824 1.00332 0.0
C300 C 0.43162 0.52015 0.98251 0.0
C301 C 0.39665 0.52075 0.92966 0.0
C302 C 0.58779 0.4532 0.99097 0.0
C303 C 0.40157 0.54321 1.01611 0.0
C304 C 0.54163 0.47751 0.14401 0.0
C305 C 0.60478 0.49899 0.16597 0.0
C306 C 0.50576 0.47681 0.09127 0.0
C307 C 0.53373 0.49796 0.05934 0.0
C308 C 0.59845 0.51921 0.08107 0.0
C309 C 0.63297 0.51953 0.13398 0.0
C310 C 0.43686 0.45384 0.06979 0.0
C311 C 0.63058 0.54198 0.04844 0.0
H312 H 0.50549 0.46163 0.89306 0.0
H313 H 0.34906 0.53783 0.91406 0.0
H314 H 0.64198 0.4671 1.01089 0.0
H315 H 0.57371 0.43663 1.01916 0.0
H316 H 0.60047 0.43787 0.96058 0.0
H317 H 0.35101 0.55822 0.99425 0.0
H318 H 0.38282 0.52894 0.04499 0.0
H319 H 0.44956 0.56011 0.03678 0.0
H320 H 0.51894 0.46159 0.16816 0.0
H321 H 0.68168 0.53621 0.15031 0.0
H322 H 0.44942 0.43736 0.04069 0.0
H323 H 0.38372 0.46833 0.05074 0.0
H324 H 0.42323 0.43843 0.09949 0.0
H325 H 0.64778 0.52758 1.01882 0.0
H326 H 0.68263 0.55627 0.07089 0.0
H327 H 0.58422 0.55953 1.02864 0.0
C328 C 0.33411 0.08068 0.9689 0.0
C329 C 0.32928 0.05462 0.93439 0.0
C330 C 0.4062 0.08913 1.00408 0.0
C331 C 0.47417 0.07056 1.00506 0.0
C332 C 0.47101 0.04682 0.96634 0.0
C333 C 0.39826 0.03909 0.93143 0.0
C334 C 0.40725 0.1151 0.04381 0.0
C335 C 0.54224 0.02647 0.96591 0.0
C336 C 0.68181 0.08002 0.09138 0.0
C337 C 0.68383 0.05408 0.12521 0.0
C338 C 0.61154 0.08831 0.05457 0.0
C339 C 0.54223 0.07005 0.05169 0.0
C340 C 0.54231 0.04642 0.08946 0.0
C341 C 0.61347 0.03851 0.12552 0.0
C342 C 0.61384 0.11402 1.01566 0.0
C343 C 0.46928 0.02655 0.08783 0.0
H344 H 0.28032 0.09236 0.97154 0.0
H345 H 0.39406 0.01813 0.90611 0.0
H346 H 0.40071 0.10304 0.07851 0.0
H347 H 0.46383 0.12894 0.05435 0.0
H348 H 0.35793 0.13276 0.03044 0.0
H349 H 0.53133 0.01046 0.93164 0.0
H350 H 0.59337 0.04276 0.96765 0.0
H351 H 0.55857 0.01044 0.99983 0.0
H352 H 0.73667 0.09166 0.0905 0.0
H353 H 0.61548 0.01731 0.14944 0.0
H354 H 0.55785 0.12801 1.00399 0.0
H355 H 0.6221 0.10171 0.98136 0.0
H356 H 0.66353 0.13159 0.03035 0.0
H357 H 0.41854 0.0431 0.08532 0.0
H358 H 0.47753 0.01086 0.12165 0.0
H359 H 0.45391 0.01033 0.0537 0.0
C360 C 0.18694 0.58354 0.59166 0.0
C361 C 0.18921 0.55874 0.62741 0.0
C362 C 0.1165 0.59108 0.55445 0.0
C363 C 0.04689 0.57352 0.5534 0.0
C364 C 0.04708 0.55169 0.59355 0.0
C365 C 0.11866 0.54416 0.62946 0.0
C366 C 0.11878 0.61512 0.51327 0.0
C367 C 0.97437 0.53307 0.59633 0.0
C368 C 0.84036 0.58417 0.46707 0.0
C369 C 0.83537 0.55717 0.4342 0.0
C370 C 0.91184 0.59242 0.5031 0.0
C371 C 0.97908 0.57278 0.50656 0.0
C372 C 0.97602 0.54773 0.46972 0.0
C373 C 0.90395 0.54027 0.43386 0.0
C374 C 0.91254 0.6192 0.54156 0.0
C375 C 0.04634 0.52611 0.47205 0.0
H376 H 0.24176 0.59463 0.58956 0.0
H377 H 0.12033 0.52382 0.65474 0.0
H378 H 0.12393 0.60128 0.47939 0.0
H379 H 0.06386 0.62981 0.5017 0.0
H380 H 0.17006 0.63215 0.52566 0.0
H381 H 0.96772 0.53565 0.63512 0.0
H382 H 0.91908 0.54161 0.56913 0.0
H383 H 0.98179 0.50643 0.58938 0.0
H384 H 0.78677 0.5968 0.46791 0.0
H385 H 0.89953 0.51862 0.40983 0.0
H386 H 0.96842 0.63351 0.55059 0.0
H387 H 0.90817 0.60776 0.57724 0.0
H388 H 0.8622 0.63634 0.52794 0.0
H389 H 0.09916 0.54146 0.47422 0.0
H390 H 0.03605 0.50933 0.43866 0.0
H391 H 0.05948 0.51084 0.50678 0.0
C392 C 0.9756 1.00799 0.12053 0.0
C393 C 0.91057 0.98918 0.1227 0.0
C394 C 0.01837 0.99988 0.08653 0.0
C395 C 0.9943 0.97243 0.05345 0.0
C396 C 0.93268 0.95168 0.05859 0.0
C397 C 0.8907 0.96057 0.09302 0.0
C398 C 0.08435 0.02259 0.08264 0.0
C399 C 0.90601 0.92205 1.02454 0.0
C400 C 0.03232 0.99743 0.93182 0.0
C401 C 0.10902 0.98584 0.93969 0.0
C402 C 0.98906 0.98942 0.96561 0.0
C403 C 0.02458 0.96979 1.00851 0.0
C404 C 0.09858 0.95503 1.01319 0.0
C405 C 0.14042 0.9635 0.97872 0.0
C406 C 0.9106 1.00601 0.95963 0.0
C407 C 0.13782 0.93367 0.05787 0.0
H408 H 0.98856 0.03079 0.14218 0.0
H409 H 0.83858 0.94667 0.09367 0.0
H410 H 0.07376 0.03162 0.04328 0.0
H411 H 0.09074 0.04445 0.10799 0.0
H412 H 0.14086 1.00894 0.09265 0.0
H413 H 0.87383 0.9041 0.04177 0.0
H414 H 0.86553 0.93016 0.98792 0.0
H415 H 0.95672 0.90949 1.01633 0.0
H416 H 0.0096 0.01567 0.90275 0.0
H417 H 0.20055 0.95503 0.98507 0.0
H418 H 0.91672 0.02496 0.98985 0.0
H419 H 0.86608 0.98779 0.96377 0.0
H420 H 0.8884 0.01834 0.92236 0.0
H421 H 0.16706 0.94961 0.09088 0.0
H422 H 0.18343 0.91763 0.04945 0.0
H423 H 0.09397 0.918 0.06889 0.0
C424 C 0.48019 0.51433 0.62166 0.0
C425 C 0.41718 0.49474 0.62534 0.0
C426 C 0.52338 0.50609 0.58798 0.0
C427 C 0.50123 0.47791 0.55626 0.0
C428 C 0.4415 0.45656 0.56276 0.0
C429 C 0.39952 0.46541 0.59724 0.0
C430 C 0.58746 0.5294 0.58279 0.0
C431 C 0.41651 0.42624 0.53005 0.0
C432 C 0.53751 0.50082 0.43307 0.0
C433 C 0.61461 0.48965 0.44119 0.0
C434 C 0.49499 0.49334 0.46753 0.0
C435 C 0.53169 0.4748 0.51142 0.0
C436 C 0.60633 0.46048 0.51667 0.0
C437 C 0.64731 0.46829 0.48142 0.0
C438 C 0.41554 0.50923 0.46072 0.0
C439 C 0.6467 0.44028 0.56252 0.0
H440 H 0.49168 0.53755 0.64233 0.0
H441 H 0.34888 0.45089 0.59897 0.0
H442 H 0.64387 0.51594 0.58902 0.0
H443 H 0.57209 0.53968 0.54392 0.0
H444 H 0.59671 0.55034 0.6101 0.0
H445 H 0.38753 0.40794 0.54883 0.0
H446 H 0.37353 0.43337 0.49378 0.0
H447 H 0.46743 0.41443 0.52098 0.0
H448 H 0.51371 0.51832 0.40304 0.0
H449 H 0.70776 0.4602 0.48798 0.0
H450 H 0.42073 0.52903 0.48958 0.0
H451 H 0.3724 0.49087 0.46642 0.0
H452 H 0.39217 0.52034 0.42259 0.0
H453 H 0.66903 0.45683 0.59589 0.0
H454 H 0.69733 0.42627 0.55667 0.0
H455 H 0.6045 0.42278 0.57166 0.0
C456 C 0.32902 0.18434 0.80327 0.0
C457 C 0.24825 0.18078 0.79892 0.0
C458 C 0.36015 0.21477 0.7933 0.0
C459 C 0.30945 0.24218 0.77885 0.0
C460 C 0.22838 0.23878 0.77516 0.0
C461 C 0.19905 0.2083 0.7851 0.0
C462 C 0.44693 0.21756 0.7978 0.0
C463 C 0.17185 0.26727 0.75978 0.0
C464 C 0.36122 0.3329 0.78385 0.0
C465 C 0.34361 0.33969 0.73191 0.0
C466 C 0.35864 0.30034 0.8007 0.0
C467 C 0.33831 0.27424 0.76467 0.0
C468 C 0.32926 0.28077 0.71281 0.0
C469 C 0.33146 0.31344 0.69706 0.0
C470 C 0.36924 0.29446 0.85637 0.0
C471 C 0.30855 0.25376 0.6731 0.0
H472 H 0.36825 0.16363 0.81502 0.0
H473 H 0.13658 0.206 0.7813 0.0
H474 H 0.4551 0.2236 0.76031 0.0
H475 H 0.47377 0.23796 0.82421 0.0
H476 H 0.47916 0.19443 0.81158 0.0
H477 H 0.11111 0.26083 0.76051 0.0
H478 H 0.19265 0.28863 0.7856 0.0
H479 H 0.16947 0.27523 0.72084 0.0
H480 H 0.37024 0.35312 0.81093 0.0
H481 H 0.31862 0.31864 0.65688 0.0
H482 H 0.40221 0.27137 0.86891 0.0
H483 H 0.31047 0.29183 0.86295 0.0
H484 H 0.40082 0.31526 0.88019 0.0
H485 H 0.34415 0.23139 0.6863 0.0
H486 H 0.31784 0.26168 0.6366 0.0
H487 H 0.24556 0.24689 0.66602 0.0
C488 C 0.64796 0.33177 0.28048 0.0
C489 C 0.66698 0.33932 0.33241 0.0
C490 C 0.64941 0.29896 0.26381 0.0
C491 C 0.67015 0.27336 0.30001 0.0
C492 C 0.68039 0.28066 0.35192 0.0
C493 C 0.67916 0.31357 0.36749 0.0
C494 C 0.63743 0.29226 0.20806 0.0
C495 C 0.70169 0.25422 0.39184 0.0
C496 C 0.67899 0.1831 0.26118 0.0
C497 C 0.75938 0.17994 0.26436 0.0
C498 C 0.64814 0.21347 0.27183 0.0
C499 C 0.69879 0.24119 0.2858 0.0
C500 C 0.77958 0.23811 0.28865 0.0
C501 C 0.80861 0.2077 0.27803 0.0
C502 C 0.56166 0.21592 0.26824 0.0
C503 C 0.8361 0.26692 0.30359 0.0
H504 H 0.63888 0.35159 0.2532 0.0
H505 H 0.69304 0.31934 0.40767 0.0
H506 H 0.69575 0.28955 0.20087 0.0
H507 H 0.60416 0.26898 0.19602 0.0
H508 H 0.60553 0.31271 0.18428 0.0
H509 H 0.69285 0.26262 0.42839 0.0
H510 H 0.66615 0.23158 0.37901 0.0
H511 H 0.76468 0.24762 0.39866 0.0
H512 H 0.63984 0.16213 0.24965 0.0
H513 H 0.87084 0.20566 0.281 0.0
H514 H 0.53375 0.23532 0.24082 0.0
H515 H 0.55434 0.22327 0.3056 0.0
H516 H 0.5298 0.19228 0.25613 0.0
H517 H 0.81496 0.2879 0.27767 0.0
H518 H 0.89671 0.26061 0.30258 0.0
H519 H 0.83897 0.27538 0.34256 0.0
C520 C 0.86648 0.81267 0.20445 0.0
C521 C 0.86824 0.83864 0.23861 0.0
C522 C 0.8654 0.77979 0.21955 0.0
C523 C 0.86418 0.77285 0.26973 0.0
C524 C 0.87531 0.7989 0.30581 0.0
C525 C 0.87747 0.83166 0.28979 0.0
C526 C 0.85544 0.75284 0.18003 0.0
C527 C 0.87496 0.79264 0.35978 0.0
C528 C 0.71634 0.70684 0.2767 0.0
C529 C 0.76413 0.67958 0.29546 0.0
C530 C 0.74868 0.73717 0.26908 0.0
C531 C 0.83149 0.74065 0.2802 0.0
C532 C 0.88066 0.71336 0.29909 0.0
C533 C 0.84641 0.6831 0.30671 0.0
C534 C 0.69362 0.76548 0.24859 0.0
C535 C 0.96916 0.71621 0.31153 0.0
H536 H 0.85987 0.81813 0.16488 0.0
H537 H 0.87842 0.85175 0.3162 0.0
H538 H 0.88991 0.73071 0.1962 0.0
H539 H 0.79239 0.74549 0.16662 0.0
H540 H 0.87404 0.76115 0.14673 0.0
H541 H 0.90111 0.81363 0.38524 0.0
H542 H 0.81322 0.7892 0.36091 0.0
H543 H 0.90781 0.76987 0.37455 0.0
H544 H 0.65278 0.70449 0.26747 0.0
H545 H 0.88423 0.66253 0.32225 0.0
H546 H 0.7004 0.77336 0.21148 0.0
H547 H 0.70856 0.78694 0.27488 0.0
H548 H 0.63077 0.7589 0.24327 0.0
H549 H 0.98623 0.72606 0.27858 0.0
H550 H 0.99882 0.69215 0.3223 0.0
H551 H 0.99128 0.73386 0.34346 0.0
C552 C 0.29544 0.70662 0.78727 0.0
C553 C 0.2483 0.67867 0.76988 0.0
C554 C 0.26261 0.73683 0.79491 0.0
C555 C 0.17994 0.73952 0.78533 0.0
C556 C 0.13142 0.71152 0.768 0.0
C557 C 0.16613 0.68137 0.76025 0.0
C558 C 0.31708 0.76591 0.81369 0.0
C559 C 0.04307 0.7135 0.75729 0.0
C560 C 0.14646 0.81276 0.8606 0.0
C561 C 0.1424 0.83811 0.82561 0.0
C562 C 0.1479 0.77961 0.84618 0.0
C563 C 0.14687 0.77172 0.79573 0.0
C564 C 0.13326 0.79704 0.75895 0.0
C565 C 0.13099 0.83009 0.77436 0.0
C566 C 0.16074 0.75349 0.88651 0.0
C567 C 0.13104 0.78975 0.70467 0.0
H568 H 0.35893 0.70493 0.79533 0.0
H569 H 0.12872 0.66025 0.74585 0.0
H570 H 0.30021 0.78675 0.78691 0.0
H571 H 0.31183 0.77447 0.85103 0.0
H572 H 0.37984 0.75987 0.81799 0.0
H573 H 0.01408 0.68905 0.7475 0.0
H574 H 0.02749 0.72372 0.79071 0.0
H575 H 0.01886 0.73048 0.72523 0.0
H576 H 0.15471 0.81898 0.90023 0.0
H577 H 0.12823 0.84966 0.74725 0.0
H578 H 0.22413 0.74684 0.89894 0.0
H579 H 0.12669 0.73081 0.8715 0.0
H580 H 0.14363 0.7623 0.92026 0.0
H581 H 0.19222 0.78669 0.70228 0.0
H582 H 0.1031 0.81009 0.67902 0.0
H583 H 0.09857 0.7665 0.69105 0.0
loop_
_geom_bond_atom_site_label_1
_geom_bond_atom_site_label_2
_geom_bond_distance
_geom_bond_site_symmetry_2
_ccdc_geom_bond_type
Zn0 N4 2.020 . S
Zn0 O8 2.019 . S
Zn0 N10 2.119 . S
Zn0 O18 1.975 . S
C1 N2 1.337 . S
C1 N5 1.336 . S
N2 C1 1.337 . S
N2 C3 1.331 1_565 S
C3 N2 1.331 1_545 S
C3 N4 1.336 . S
N4 Zn0 2.020 . S
N4 C3 1.336 . S
N4 N5 1.354 1_545 S
N5 C1 1.336 . S
N5 N4 1.354 1_565 S
N5 Zn9 2.020 . S
C6 O7 1.244 1_565 S
C6 O30 1.257 . S
O7 C6 1.244 1_545 S
O8 Zn0 2.019 . S
O8 C28 1.257 . S
Zn9 N5 2.020 . S
Zn9 O16 1.975 . S
Zn9 N25 2.119 . S
Zn9 O30 2.019 1_455 S
N10 Zn0 2.119 . S
N10 C12 1.334 . S
N10 C13 1.328 . S
C11 C12 1.391 . S
C11 N14 1.329 . S
C11 H32 0.930 . S
C12 N10 1.334 . S
C12 C11 1.391 . S
C12 H19 0.930 . S
C13 N10 1.328 . S
C13 C15 1.392 . S
C13 H20 0.930 . S
N14 C11 1.329 . S
N14 C15 1.331 . S
C15 C13 1.392 . S
C15 N14 1.331 . S
O16 Zn9 1.975 . S
O16 C17 1.250 1_565 S
C17 O16 1.250 1_545 S
C17 O18 1.254 . S
O18 Zn0 1.975 . S
O18 C17 1.254 . S
H19 C12 0.930 . S
H20 C13 0.930 . S
C21 C22 1.392 . S
C21 N25 1.328 . S
C21 H27 0.930 . S
C22 C21 1.392 . S
C22 N26 1.331 . S
C23 C24 1.391 . S
C23 N26 1.329 . S
C23 H33 0.930 . S
C24 C23 1.391 . S
C24 N25 1.334 . S
C24 H31 0.930 . S
N25 Zn9 2.119 . S
N25 C21 1.328 . S
N25 C24 1.334 . S
N26 C22 1.331 . S
N26 C23 1.329 . S
H27 C21 0.930 . S
C28 O8 1.257 . S
C28 O29 1.244 1_545 S
O29 C28 1.244 1_565 S
O30 C6 1.257 . S
O30 Zn9 2.019 1_655 S
H31 C24 0.930 . S
H32 C11 0.930 . S
H33 C23 0.930 . S
Zn34 N38 2.020 . S
Zn34 O42 2.019 . S
Zn34 N44 2.119 . S
Zn34 O52 1.975 . S
C35 N36 1.337 . S
C35 N39 1.336 . S
N36 C35 1.337 . S
N36 C37 1.331 1_565 S
C37 N36 1.331 1_545 S
C37 N38 1.336 . S
N38 Zn34 2.020 . S
N38 C37 1.336 . S
N38 N39 1.354 1_545 S
N39 C35 1.336 . S
N39 N38 1.354 1_565 S
N39 Zn43 2.020 . S
C40 O41 1.244 1_565 S
C40 O64 1.257 . S
O41 C40 1.244 1_545 S
O42 Zn34 2.019 . S
O42 C62 1.257 . S
Zn43 N39 2.020 . S
Zn43 O50 1.975 . S
Zn43 N59 2.119 . S
Zn43 O64 2.019 1_655 S
N44 Zn34 2.119 . S
N44 C46 1.334 . S
N44 C47 1.328 . S
C45 C46 1.391 . S
C45 N48 1.329 . S
C45 H66 0.930 . S
C46 N44 1.334 . S
C46 C45 1.391 . S
C46 H53 0.930 . S
C47 N44 1.328 . S
C47 C49 1.392 . S
C47 H54 0.930 . S
N48 C45 1.329 . S
N48 C49 1.331 . S
C49 C47 1.392 . S
C49 N48 1.331 . S
O50 Zn43 1.975 . S
O50 C51 1.250 1_565 S
C51 O50 1.250 1_545 S
C51 O52 1.254 . S
O52 Zn34 1.975 . S
O52 C51 1.254 . S
H53 C46 0.930 . S
H54 C47 0.930 . S
C55 C56 1.392 . S
C55 N59 1.328 . S
C55 H61 0.930 . S
C56 C55 1.392 . S
C56 N60 1.331 . S
C57 C58 1.391 . S
C57 N60 1.329 . S
C57 H67 0.930 . S
C58 C57 1.391 . S
C58 N59 1.334 . S
C58 H65 0.930 . S
N59 Zn43 2.119 . S
N59 C55 1.328 . S
N59 C58 1.334 . S
N60 C56 1.331 . S
N60 C57 1.329 . S
H61 C55 0.930 . S
C62 O42 1.257 . S
C62 O63 1.244 1_545 S
O63 C62 1.244 1_565 S
O64 C40 1.257 . S
O64 Zn43 2.019 1_455 S
H65 C58 0.930 . S
H66 C45 0.930 . S
H67 C57 0.930 . S
Zn68 N72 2.020 . S
Zn68 O76 2.019 . S
Zn68 N78 2.119 . S
Zn68 O86 1.975 . S
C69 N70 1.334 . S
C69 N73 1.336 . S
N70 C69 1.334 . S
N70 C71 1.334 . S
C71 N70 1.334 . S
C71 N72 1.336 . S
N72 Zn68 2.020 . S
N72 C71 1.336 . S
N72 N73 1.354 . S
N73 C69 1.336 . S
N73 N72 1.354 . S
N73 Zn77 2.020 . S
C74 O75 1.244 . S
C74 O98 1.257 . S
O75 C74 1.244 . S
O76 Zn68 2.019 . S
O76 C96 1.257 . S
Zn77 N73 2.020 . S
Zn77 O84 1.975 . S
Zn77 N93 2.119 . S
Zn77 O98 2.019 . S
N78 Zn68 2.119 . S
N78 C80 1.334 . S
N78 C81 1.328 . S
C79 C80 1.391 . S
C79 N82 1.329 . S
C79 H100 0.930 . S
C80 N78 1.334 . S
C80 C79 1.391 . S
C80 H87 0.930 . S
C81 N78 1.328 . S
C81 C83 1.392 . S
C81 H88 0.930 . S
N82 C79 1.329 . S
N82 C83 1.331 . S
C83 C81 1.392 . S
C83 N82 1.331 . S
O84 Zn77 1.975 . S
O84 C85 1.252 . S
C85 O84 1.252 . S
C85 O86 1.252 . S
O86 Zn68 1.975 . S
O86 C85 1.252 . S
H87 C80 0.930 . S
H88 C81 0.930 . S
C89 C90 1.392 . S
C89 N93 1.328 . S
C89 H95 0.930 . S
C90 C89 1.392 . S
C90 N94 1.331 . S
C91 C92 1.391 . S
C91 N94 1.329 . S
C91 H101 0.930 . S
C92 C91 1.391 . S
C92 N93 1.334 . S
C92 H99 0.930 . S
N93 Zn77 2.119 . S
N93 C89 1.328 . S
N93 C92 1.334 . S
N94 C90 1.331 . S
N94 C91 1.329 . S
H95 C89 0.930 . S
C96 O76 1.257 . S
C96 O97 1.244 . S
O97 C96 1.244 . S
O98 C74 1.257 . S
O98 Zn77 2.019 . S
H99 C92 0.930 . S
H100 C79 0.930 . S
H101 C91 0.930 . S
Zn102 N106 2.020 . S
Zn102 O110 2.019 . S
Zn102 N112 2.119 . S
Zn102 O120 1.975 . S
C103 N104 1.334 . S
C103 N107 1.336 . S
N104 C103 1.334 . S
N104 C105 1.334 . S
C105 N104 1.334 . S
C105 N106 1.336 . S
N106 Zn102 2.020 . S
N106 C105 1.336 . S
N106 N107 1.354 . S
N107 C103 1.336 . S
N107 N106 1.354 . S
N107 Zn111 2.020 . S
C108 O109 1.244 . S
C108 O132 1.257 . S
O109 C108 1.244 . S
O110 Zn102 2.019 . S
O110 C130 1.257 . S
Zn111 N107 2.020 . S
Zn111 O118 1.975 . S
Zn111 N127 2.119 . S
Zn111 O132 2.019 . S
N112 Zn102 2.119 . S
N112 C114 1.334 . S
N112 C115 1.328 . S
C113 C114 1.391 . S
C113 N116 1.329 . S
C113 H134 0.930 . S
C114 N112 1.334 . S
C114 C113 1.391 . S
C114 H121 0.930 . S
C115 N112 1.328 . S
C115 C117 1.392 . S
C115 H122 0.930 . S
N116 C113 1.329 . S
N116 C117 1.331 . S
C117 C115 1.392 . S
C117 N116 1.331 . S
O118 Zn111 1.975 . S
O118 C119 1.252 . S
C119 O118 1.252 . S
C119 O120 1.252 . S
O120 Zn102 1.975 . S
O120 C119 1.252 . S
H121 C114 0.930 . S
H122 C115 0.930 . S
C123 C124 1.392 . S
C123 N127 1.328 . S
C123 H129 0.930 . S
C124 C123 1.392 . S
C124 N128 1.331 . S
C125 C126 1.391 . S
C125 N128 1.329 . S
C125 H135 0.930 . S
C126 C125 1.391 . S
C126 N127 1.334 . S
C126 H133 0.930 . S
N127 Zn111 2.119 . S
N127 C123 1.328 . S
N127 C126 1.334 . S
N128 C124 1.331 . S
N128 C125 1.329 . S
H129 C123 0.930 . S
C130 O110 1.257 . S
C130 O131 1.244 . S
O131 C130 1.244 . S
O132 C108 1.257 . S
O132 Zn111 2.019 . S
H133 C126 0.930 . S
H134 C113 0.930 . S
H135 C125 0.930 . S
C136 C137 1.391 . S
C136 C138 1.394 . S
C136 H152 0.931 . S
C137 C136 1.391 . S
C137 C141 1.376 . S
C138 C136 1.394 . S
C138 C139 1.369 . S
C138 C142 1.531 . S
C139 C138 1.369 . S
C139 C140 1.410 . S
C139 C147 1.503 . S
C140 C139 1.410 . S
C140 C141 1.392 . S
C140 C143 1.511 . S
C141 C137 1.376 . S
C141 C140 1.392 . S
C141 H153 0.929 . S
C142 C138 1.531 . S
C142 H154 0.960 . S
C142 H155 0.962 1_565 S
C142 H156 0.960 . S
C143 C140 1.511 . S
C143 H157 0.961 . S
C143 H158 0.961 . S
C143 H159 0.961 . S
C144 C145 1.370 . S
C144 C146 1.363 . S
C144 H160 0.931 . S
C145 C144 1.370 . S
C145 C149 1.408 1_545 S
C146 C144 1.363 . S
C146 C147 1.370 1_545 S
C146 C150 1.524 . S
C147 C139 1.503 . S
C147 C146 1.370 1_565 S
C147 C148 1.403 . S
C148 C147 1.403 . S
C148 C149 1.404 . S
C148 C151 1.539 . S
C149 C145 1.408 1_565 S
C149 C148 1.404 . S
C149 H161 0.930 . S
C150 C146 1.524 . S
C150 H162 0.956 . S
C150 H163 0.961 . S
C150 H164 0.961 . S
C151 C148 1.539 . S
C151 H165 0.958 . S
C151 H166 0.961 . S
C151 H167 0.960 . S
H152 C136 0.931 . S
H153 C141 0.929 . S
H154 C142 0.960 . S
H155 C142 0.962 1_545 S
H156 C142 0.960 . S
H157 C143 0.961 . S
H158 C143 0.961 . S
H159 C143 0.961 . S
H160 C144 0.931 . S
H161 C149 0.930 . S
H162 C150 0.956 . S
H163 C150 0.961 . S
H164 C150 0.961 . S
H165 C151 0.958 . S
H166 C151 0.961 . S
H167 C151 0.960 . S
C168 C169 1.391 1_565 S
C168 C170 1.394 . S
C168 H184 0.931 . S
C169 C168 1.391 1_545 S
C169 C173 1.376 . S
C170 C168 1.394 . S
C170 C171 1.369 1_565 S
C170 C174 1.531 . S
C171 C170 1.369 1_545 S
C171 C172 1.409 . S
C171 C179 1.503 1_545 S
C172 C171 1.409 . S
C172 C173 1.392 . S
C172 C175 1.511 . S
C173 C169 1.376 . S
C173 C172 1.392 . S
C173 H185 0.929 . S
C174 C170 1.531 . S
C174 H186 0.960 . S
C174 H187 0.962 . S
C174 H188 0.960 . S
C175 C172 1.511 . S
C175 H189 0.961 . S
C175 H190 0.961 . S
C175 H191 0.961 . S
C176 C177 1.370 . S
C176 C178 1.363 1_565 S
C176 H192 0.931 1_565 S
C177 C176 1.370 . S
C177 C181 1.408 . S
C178 C176 1.363 1_545 S
C178 C179 1.370 1_545 S
C178 C182 1.524 . S
C179 C171 1.503 1_565 S
C179 C178 1.370 1_565 S
C179 C180 1.403 . S
C180 C179 1.403 . S
C180 C181 1.404 . S
C180 C183 1.539 . S
C181 C177 1.408 . S
C181 C180 1.404 . S
C181 H193 0.930 . S
C182 C178 1.524 . S
C182 H194 0.956 . S
C182 H195 0.961 . S
C182 H196 0.961 . S
C183 C180 1.539 . S
C183 H197 0.958 . S
C183 H198 0.961 . S
C183 H199 0.960 . S
H184 C168 0.931 . S
H185 C173 0.929 . S
H186 C174 0.960 . S
H187 C174 0.962 . S
H188 C174 0.960 . S
H189 C175 0.961 . S
H190 C175 0.961 . S
H191 C175 0.961 . S
H192 C176 0.931 1_545 S
H193 C181 0.930 . S
H194 C182 0.956 . S
H195 C182 0.961 . S
H196 C182 0.961 . S
H197 C183 0.958 . S
H198 C183 0.961 . S
H199 C183 0.960 . S
C200 C201 1.391 . S
C200 C202 1.394 . S
C200 H216 0.931 . S
C201 C200 1.391 . S
C201 C205 1.376 . S
C202 C200 1.394 . S
C202 C203 1.369 . S
C202 C206 1.531 . S
C203 C202 1.369 . S
C203 C204 1.410 . S
C203 C211 1.503 . S
C204 C203 1.410 . S
C204 C205 1.392 . S
C204 C207 1.511 . S
C205 C201 1.376 . S
C205 C204 1.392 . S
C205 H217 0.929 . S
C206 C202 1.531 . S
C206 H218 0.960 . S
C206 H219 0.962 . S
C206 H220 0.960 . S
C207 C204 1.511 . S
C207 H221 0.961 . S
C207 H222 0.961 . S
C207 H223 0.961 . S
C208 C209 1.370 1_455 S
C208 C210 1.363 . S
C208 H224 0.931 1_455 S
C209 C208 1.370 1_655 S
C209 C213 1.408 1_655 S
C210 C208 1.363 . S
C210 C211 1.370 . S
C210 C214 1.524 . S
C211 C203 1.503 . S
C211 C210 1.370 . S
C211 C212 1.403 . S
C212 C211 1.403 . S
C212 C213 1.404 . S
C212 C215 1.539 . S
C213 C209 1.408 1_455 S
C213 C212 1.404 . S
C213 H225 0.930 . S
C214 C210 1.524 . S
C214 H226 0.956 . S
C214 H227 0.961 . S
C214 H228 0.961 . S
C215 C212 1.539 . S
C215 H229 0.958 . S
C215 H230 0.961 . S
C215 H231 0.960 . S
H216 C200 0.931 . S
H217 C205 0.929 . S
H218 C206 0.960 . S
H219 C206 0.962 . S
H220 C206 0.960 . S
H221 C207 0.961 . S
H222 C207 0.961 . S
H223 C207 0.961 . S
H224 C208 0.931 1_655 S
H225 C213 0.930 . S
H226 C214 0.956 . S
H227 C214 0.961 . S
H228 C214 0.961 . S
H229 C215 0.958 . S
H230 C215 0.961 . S
H231 C215 0.960 . S
C232 C233 1.391 . S
C232 C234 1.394 . S
C232 H248 0.931 . S
C233 C232 1.391 . S
C233 C237 1.376 . S
C234 C232 1.394 . S
C234 C235 1.369 . S
C234 C238 1.531 . S
C235 C234 1.369 . S
C235 C236 1.410 . S
C235 C243 1.503 . S
C236 C235 1.410 . S
C236 C237 1.392 . S
C236 C239 1.511 . S
C237 C233 1.376 . S
C237 C236 1.392 . S
C237 H249 0.929 . S
C238 C234 1.531 . S
C238 H250 0.960 . S
C238 H251 0.962 . S
C238 H252 0.960 . S
C239 C236 1.511 . S
C239 H253 0.961 . S
C239 H254 0.961 . S
C239 H255 0.961 . S
C240 C241 1.370 1_655 S
C240 C242 1.363 . S
C240 H256 0.931 1_655 S
C241 C240 1.370 1_455 S
C241 C245 1.408 1_455 S
C242 C240 1.363 . S
C242 C243 1.370 . S
C242 C246 1.524 . S
C243 C235 1.503 . S
C243 C242 1.370 . S
C243 C244 1.403 . S
C244 C243 1.403 . S
C244 C245 1.404 . S
C244 C247 1.539 . S
C245 C241 1.408 1_655 S
C245 C244 1.404 . S
C245 H257 0.930 1_655 S
C246 C242 1.524 . S
C246 H258 0.956 . S
C246 H259 0.961 . S
C246 H260 0.961 . S
C247 C244 1.539 . S
C247 H261 0.958 . S
C247 H262 0.961 . S
C247 H263 0.960 . S
H248 C232 0.931 . S
H249 C237 0.929 . S
H250 C238 0.960 . S
H251 C238 0.962 . S
H252 C238 0.960 . S
H253 C239 0.961 . S
H254 C239 0.961 . S
H255 C239 0.961 . S
H256 C240 0.931 1_455 S
H257 C245 0.930 1_455 S
H258 C246 0.956 . S
H259 C246 0.961 . S
H260 C246 0.961 . S
H261 C247 0.958 . S
H262 C247 0.961 . S
H263 C247 0.960 . S
C264 C265 1.391 . S
C264 C266 1.394 . S
C264 H280 0.931 . S
C265 C264 1.391 . S
C265 C269 1.376 1_565 S
C266 C264 1.394 . S
C266 C267 1.369 . S
C266 C270 1.531 . S
C267 C266 1.369 . S
C267 C268 1.410 1_465 S
C267 C275 1.503 1_455 S
C268 C267 1.410 1_645 S
C268 C269 1.392 1_655 S
C268 C271 1.511 . S
C269 C265 1.376 1_545 S
C269 C268 1.392 1_455 S
C269 H281 0.929 . S
C270 C266 1.531 . S
C270 H282 0.960 . S
C270 H283 0.962 . S
C270 H284 0.960 . S
C271 C268 1.511 . S
C271 H285 0.961 . S
C271 H286 0.961 . S
C271 H287 0.961 . S
C272 C273 1.370 1_545 S
C272 C274 1.365 . S
C272 H288 0.931 . S
C273 C272 1.370 1_565 S
C273 C277 1.408 . S
C274 C272 1.365 . S
C274 C275 1.374 1_545 S
C274 C278 1.519 1_655 S
C275 C267 1.503 1_655 S
C275 C274 1.374 1_565 S
C275 C276 1.403 . S
C276 C275 1.403 . S
C276 C277 1.404 . S
C276 C279 1.539 . S
C277 C273 1.408 . S
C277 C276 1.404 . S
C277 H289 0.930 . S
C278 C274 1.519 1_455 S
C278 H290 0.956 . S
C278 H291 0.961 . S
C278 H292 0.961 . S
C279 C276 1.539 . S
C279 H293 0.958 . S
C279 H294 0.961 . S
C279 H295 0.960 . S
H280 C264 0.931 . S
H281 C269 0.929 . S
H282 C270 0.960 . S
H283 C270 0.962 . S
H284 C270 0.960 . S
H285 C271 0.961 . S
H286 C271 0.961 . S
H287 C271 0.961 . S
H288 C272 0.931 . S
H289 C277 0.930 . S
H290 C278 0.956 . S
H291 C278 0.961 . S
H292 C278 0.961 . S
H293 C279 0.958 . S
H294 C279 0.961 . S
H295 C279 0.960 . S
C296 C297 1.391 . S
C296 C298 1.394 . S
C296 H312 0.931 . S
C297 C296 1.391 . S
C297 C301 1.376 . S
C298 C296 1.394 . S
C298 C299 1.369 . S
C298 C302 1.531 . S
C299 C298 1.369 . S
C299 C300 1.410 . S
C299 C307 1.503 1_556 S
C300 C299 1.410 . S
C300 C301 1.392 . S
C300 C303 1.511 . S
C301 C297 1.376 . S
C301 C300 1.392 . S
C301 H313 0.929 . S
C302 C298 1.531 . S
C302 H314 0.960 . S
C302 H315 0.962 . S
C302 H316 0.960 . S
C303 C300 1.511 . S
C303 H317 0.961 . S
C303 H318 0.961 1_556 S
C303 H319 0.961 1_556 S
C304 C305 1.370 . S
C304 C306 1.363 . S
C304 H320 0.931 . S
C305 C304 1.370 . S
C305 C309 1.408 . S
C306 C304 1.363 . S
C306 C307 1.370 . S
C306 C310 1.524 . S
C307 C299 1.503 1_554 S
C307 C306 1.370 . S
C307 C308 1.403 . S
C308 C307 1.403 . S
C308 C309 1.404 . S
C308 C311 1.539 . S
C309 C305 1.408 . S
C309 C308 1.404 . S
C309 H321 0.930 . S
C310 C306 1.524 . S
C310 H322 0.956 1_554 S
C310 H323 0.961 1_554 S
C310 H324 0.961 . S
C311 C308 1.539 . S
C311 H325 0.958 . S
C311 H326 0.961 . S
C311 H327 0.960 . S
H312 C296 0.931 . S
H313 C301 0.929 . S
H314 C302 0.960 . S
H315 C302 0.962 . S
H316 C302 0.960 . S
H317 C303 0.961 . S
H318 C303 0.961 1_554 S
H319 C303 0.961 1_554 S
H320 C304 0.931 . S
H321 C309 0.930 . S
H322 C310 0.956 1_556 S
H323 C310 0.961 1_556 S
H324 C310 0.961 . S
H325 C311 0.958 . S
H326 C311 0.961 . S
H327 C311 0.960 . S
C328 C329 1.391 . S
C328 C330 1.394 . S
C328 H344 0.931 . S
C329 C328 1.391 . S
C329 C333 1.376 1_545 S
C330 C328 1.394 . S
C330 C331 1.369 . S
C330 C334 1.531 1_556 S
C331 C330 1.369 . S
C331 C332 1.410 1_545 S
C331 C339 1.503 1_556 S
C332 C331 1.410 1_565 S
C332 C333 1.392 . S
C332 C335 1.511 . S
C333 C329 1.376 1_565 S
C333 C332 1.392 . S
C333 H345 0.929 . S
C334 C330 1.531 1_554 S
C334 H346 0.960 . S
C334 H347 0.962 1_554 S
C334 H348 0.960 . S
C335 C332 1.511 . S
C335 H349 0.961 . S
C335 H350 0.961 . S
C335 H351 0.961 . S
C336 C337 1.370 . S
C336 C338 1.363 . S
C336 H352 0.931 . S
C337 C336 1.370 . S
C337 C341 1.408 . S
C338 C336 1.363 . S
C338 C339 1.370 . S
C338 C342 1.524 1_554 S
C339 C331 1.503 1_554 S
C339 C338 1.370 . S
C339 C340 1.403 . S
C340 C339 1.403 . S
C340 C341 1.404 . S
C340 C343 1.539 1_545 S
C341 C337 1.408 . S
C341 C340 1.404 . S
C341 H353 0.942 . S
C342 C338 1.524 1_556 S
C342 H354 0.956 . S
C342 H355 0.961 . S
C342 H356 0.961 . S
C343 C340 1.539 1_565 S
C343 H357 0.958 1_565 S
C343 H358 0.961 . S
C343 H359 0.960 . S
H344 C328 0.931 . S
H345 C333 0.929 . S
H346 C334 0.960 . S
H347 C334 0.962 1_556 S
H348 C334 0.960 . S
H349 C335 0.961 . S
H350 C335 0.961 . S
H351 C335 0.961 . S
H352 C336 0.931 . S
H353 C341 0.942 . S
H354 C342 0.956 . S
H355 C342 0.961 . S
H356 C342 0.961 . S
H357 C343 0.958 1_545 S
H358 C343 0.961 . S
H359 C343 0.960 . S
C360 C361 1.391 . S
C360 C362 1.394 . S
C360 H376 0.931 . S
C361 C360 1.391 . S
C361 C365 1.376 . S
C362 C360 1.394 . S
C362 C363 1.369 . S
C362 C366 1.531 . S
C363 C362 1.369 . S
C363 C364 1.410 . S
C363 C371 1.503 1_455 S
C364 C363 1.410 . S
C364 C365 1.392 . S
C364 C367 1.511 1_455 S
C365 C361 1.376 . S
C365 C364 1.392 . S
C365 H377 0.929 . S
C366 C362 1.531 . S
C366 H378 0.960 . S
C366 H379 0.962 . S
C366 H380 0.960 . S
C367 C364 1.511 1_655 S
C367 H381 0.961 . S
C367 H382 0.961 . S
C367 H383 0.961 . S
C368 C369 1.370 . S
C368 C370 1.363 . S
C368 H384 0.931 . S
C369 C368 1.370 . S
C369 C373 1.408 . S
C370 C368 1.363 . S
C370 C371 1.370 . S
C370 C374 1.524 . S
C371 C363 1.503 1_655 S
C371 C370 1.370 . S
C371 C372 1.403 . S
C372 C371 1.403 . S
C372 C373 1.404 . S
C372 C375 1.539 1_655 S
C373 C369 1.408 . S
C373 C372 1.404 . S
C373 H385 0.930 . S
C374 C370 1.524 . S
C374 H386 0.956 . S
C374 H387 0.961 . S
C374 H388 0.961 . S
C375 C372 1.539 1_455 S
C375 H389 0.958 . S
C375 H390 0.961 1_455 S
C375 H391 0.960 . S
H376 C360 0.931 . S
H377 C365 0.929 . S
H378 C366 0.960 . S
H379 C366 0.962 . S
H380 C366 0.960 . S
H381 C367 0.961 . S
H382 C367 0.961 . S
H383 C367 0.961 . S
H384 C368 0.931 . S
H385 C373 0.930 . S
H386 C374 0.956 . S
H387 C374 0.961 . S
H388 C374 0.961 . S
H389 C375 0.958 . S
H390 C375 0.961 1_655 S
H391 C375 0.960 . S
C392 C393 1.391 . S
C392 C394 1.394 1_655 S
C392 H408 0.931 . S
C393 C392 1.391 . S
C393 C397 1.376 . S
C394 C392 1.394 1_455 S
C394 C395 1.369 1_455 S
C394 C398 1.531 . S
C395 C394 1.369 1_655 S
C395 C396 1.410 . S
C395 C403 1.503 1_654 S
C396 C395 1.410 . S
C396 C397 1.392 . S
C396 C399 1.511 1_554 S
C397 C393 1.376 . S
C397 C396 1.392 . S
C397 H409 0.929 . S
C398 C394 1.531 . S
C398 H410 0.960 . S
C398 H411 0.962 . S
C398 H412 0.960 . S
C399 C396 1.511 1_556 S
C399 H413 0.961 1_565 S
C399 H414 0.961 1_565 S
C399 H415 0.961 . S
C400 C401 1.370 1_545 S
C400 C402 1.363 . S
C400 H416 0.931 . S
C401 C400 1.370 1_565 S
C401 C405 1.408 . S
C402 C400 1.363 . S
C402 C403 1.366 1_545 S
C402 C406 1.528 1_556 S
C403 C395 1.503 1_456 S
C403 C402 1.366 1_565 S
C403 C404 1.403 . S
C404 C403 1.403 . S
C404 C405 1.404 . S
C404 C407 1.539 1_455 S
C405 C401 1.408 . S
C405 C404 1.404 . S
C405 H417 0.930 . S
C406 C402 1.528 1_554 S
C406 H418 0.956 . S
C406 H419 0.961 . S
C406 H420 0.961 . S
C407 C404 1.539 1_655 S
C407 H421 0.958 . S
C407 H422 0.961 . S
C407 H423 0.960 . S
H408 C392 0.931 . S
H409 C397 0.929 . S
H410 C398 0.960 . S
H411 C398 0.962 . S
H412 C398 0.960 . S
H413 C399 0.961 1_545 S
H414 C399 0.961 1_545 S
H415 C399 0.961 . S
H416 C400 0.931 . S
H417 C405 0.930 . S
H418 C406 0.956 . S
H419 C406 0.961 . S
H420 C406 0.961 . S
H421 C407 0.958 . S
H422 C407 0.961 . S
H423 C407 0.960 . S
C424 C425 1.391 . S
C424 C426 1.394 . S
C424 H440 0.931 . S
C425 C424 1.391 . S
C425 C429 1.376 . S
C426 C424 1.394 . S
C426 C427 1.369 . S
C426 C430 1.531 . S
C427 C426 1.369 . S
C427 C428 1.410 . S
C427 C435 1.503 . S
C428 C427 1.410 . S
C428 C429 1.392 . S
C428 C431 1.511 . S
C429 C425 1.376 . S
C429 C428 1.392 . S
C429 H441 0.929 . S
C430 C426 1.531 . S
C430 H442 0.960 . S
C430 H443 0.962 . S
C430 H444 0.960 . S
C431 C428 1.511 . S
C431 H445 0.961 . S
C431 H446 0.961 . S
C431 H447 0.961 . S
C432 C433 1.370 . S
C432 C434 1.363 . S
C432 H448 0.931 . S
C433 C432 1.370 . S
C433 C437 1.408 . S
C434 C432 1.363 . S
C434 C435 1.370 . S
C434 C438 1.524 . S
C435 C427 1.503 . S
C435 C434 1.370 . S
C435 C436 1.403 . S
C436 C435 1.403 . S
C436 C437 1.404 . S
C436 C439 1.539 . S
C437 C433 1.408 . S
C437 C436 1.404 . S
C437 H449 0.930 . S
C438 C434 1.524 . S
C438 H450 0.956 . S
C438 H451 0.961 . S
C438 H452 0.961 . S
C439 C436 1.539 . S
C439 H453 0.958 . S
C439 H454 0.961 . S
C439 H455 0.960 . S
H440 C424 0.931 . S
H441 C429 0.929 . S
H442 C430 0.960 . S
H443 C430 0.962 . S
H444 C430 0.960 . S
H445 C431 0.961 . S
H446 C431 0.961 . S
H447 C431 0.961 . S
H448 C432 0.931 . S
H449 C437 0.930 . S
H450 C438 0.956 . S
H451 C438 0.961 . S
H452 C438 0.961 . S
H453 C439 0.958 . S
H454 C439 0.961 . S
H455 C439 0.960 . S
C456 C457 1.391 . S
C456 C458 1.394 . S
C456 H472 0.931 . S
C457 C456 1.391 . S
C457 C461 1.376 . S
C458 C456 1.394 . S
C458 C459 1.369 . S
C458 C462 1.531 . S
C459 C458 1.369 . S
C459 C460 1.410 . S
C459 C467 1.503 . S
C460 C459 1.410 . S
C460 C461 1.392 . S
C460 C463 1.511 . S
C461 C457 1.376 . S
C461 C460 1.392 . S
C461 H473 0.929 . S
C462 C458 1.531 . S
C462 H474 0.960 . S
C462 H475 0.962 . S
C462 H476 0.960 . S
C463 C460 1.511 . S
C463 H477 0.961 . S
C463 H478 0.961 . S
C463 H479 0.961 . S
C464 C465 1.370 . S
C464 C466 1.363 . S
C464 H480 0.931 . S
C465 C464 1.370 . S
C465 C469 1.408 . S
C466 C464 1.363 . S
C466 C467 1.370 . S
C466 C470 1.524 . S
C467 C459 1.503 . S
C467 C466 1.370 . S
C467 C468 1.403 . S
C468 C467 1.403 . S
C468 C469 1.404 . S
C468 C471 1.539 . S
C469 C465 1.408 . S
C469 C468 1.404 . S
C469 H481 0.930 . S
C470 C466 1.524 . S
C470 H482 0.956 . S
C470 H483 0.961 . S
C470 H484 0.961 . S
C471 C468 1.539 . S
C471 H485 0.958 . S
C471 H486 0.961 . S
C471 H487 0.960 . S
H472 C456 0.931 . S
H473 C461 0.929 . S
H474 C462 0.960 . S
H475 C462 0.962 . S
H476 C462 0.960 . S
H477 C463 0.961 . S
H478 C463 0.961 . S
H479 C463 0.961 . S
H480 C464 0.931 . S
H481 C469 0.930 . S
H482 C470 0.956 . S
H483 C470 0.961 . S
H484 C470 0.961 . S
H485 C471 0.958 . S
H486 C471 0.961 . S
H487 C471 0.960 . S
C488 C489 1.391 . S
C488 C490 1.394 . S
C488 H504 0.931 . S
C489 C488 1.391 . S
C489 C493 1.376 . S
C490 C488 1.394 . S
C490 C491 1.369 . S
C490 C494 1.531 . S
C491 C490 1.369 . S
C491 C492 1.410 . S
C491 C499 1.503 . S
C492 C491 1.410 . S
C492 C493 1.392 . S
C492 C495 1.511 . S
C493 C489 1.376 . S
C493 C492 1.392 . S
C493 H505 0.929 . S
C494 C490 1.531 . S
C494 H506 0.960 . S
C494 H507 0.962 . S
C494 H508 0.960 . S
C495 C492 1.511 . S
C495 H509 0.961 . S
C495 H510 0.961 . S
C495 H511 0.961 . S
C496 C497 1.370 . S
C496 C498 1.363 . S
C496 H512 0.931 . S
C497 C496 1.370 . S
C497 C501 1.408 . S
C498 C496 1.363 . S
C498 C499 1.370 . S
C498 C502 1.524 . S
C499 C491 1.503 . S
C499 C498 1.370 . S
C499 C500 1.403 . S
C500 C499 1.403 . S
C500 C501 1.404 . S
C500 C503 1.539 . S
C501 C497 1.408 . S
C501 C500 1.404 . S
C501 H513 0.930 . S
C502 C498 1.524 . S
C502 H514 0.956 . S
C502 H515 0.961 . S
C502 H516 0.961 . S
C503 C500 1.539 . S
C503 H517 0.958 . S
C503 H518 0.961 . S
C503 H519 0.960 . S
H504 C488 0.931 . S
H505 C493 0.929 . S
H506 C494 0.960 . S
H507 C494 0.962 . S
H508 C494 0.960 . S
H509 C495 0.961 . S
H510 C495 0.961 . S
H511 C495 0.961 . S
H512 C496 0.931 . S
H513 C501 0.930 . S
H514 C502 0.956 . S
H515 C502 0.961 . S
H516 C502 0.961 . S
H517 C503 0.958 . S
H518 C503 0.961 . S
H519 C503 0.960 . S
C520 C521 1.391 . S
C520 C522 1.394 . S
C520 H536 0.931 1_655 S
C521 C520 1.391 . S
C521 C525 1.376 . S
C522 C520 1.394 . S
C522 C523 1.369 . S
C522 C526 1.531 1_655 S
C523 C522 1.369 . S
C523 C524 1.410 . S
C523 C531 1.503 . S
C524 C523 1.410 . S
C524 C525 1.392 . S
C524 C527 1.511 . S
C525 C521 1.376 . S
C525 C524 1.392 . S
C525 H537 0.929 . S
C526 C522 1.531 1_455 S
C526 H538 0.960 1_455 S
C526 H539 0.962 1_455 S
C526 H540 0.960 . S
C527 C524 1.511 . S
C527 H541 0.961 . S
C527 H542 0.961 . S
C527 H543 0.961 . S
C528 C529 1.370 . S
C528 C530 1.363 . S
C528 H544 0.931 . S
C529 C528 1.370 . S
C529 C533 1.408 . S
C530 C528 1.363 . S
C530 C531 1.370 . S
C530 C534 1.524 . S
C531 C523 1.503 . S
C531 C530 1.370 . S
C531 C532 1.403 . S
C532 C531 1.403 . S
C532 C533 1.404 . S
C532 C535 1.539 . S
C533 C529 1.408 . S
C533 C532 1.404 . S
C533 H545 0.930 . S
C534 C530 1.524 . S
C534 H546 0.956 . S
C534 H547 0.961 . S
C534 H548 0.961 . S
C535 C532 1.539 . S
C535 H549 0.958 . S
C535 H550 0.961 . S
C535 H551 0.960 . S
H536 C520 0.931 1_455 S
H537 C525 0.929 . S
H538 C526 0.960 1_655 S
H539 C526 0.962 1_655 S
H540 C526 0.960 . S
H541 C527 0.961 . S
H542 C527 0.961 . S
H543 C527 0.961 . S
H544 C528 0.931 . S
H545 C533 0.930 . S
H546 C534 0.956 . S
H547 C534 0.961 . S
H548 C534 0.961 . S
H549 C535 0.958 . S
H550 C535 0.961 . S
H551 C535 0.960 . S
C552 C553 1.391 . S
C552 C554 1.394 . S
C552 H568 0.931 . S
C553 C552 1.391 . S
C553 C557 1.376 . S
C554 C552 1.394 . S
C554 C555 1.369 . S
C554 C558 1.531 . S
C555 C554 1.369 . S
C555 C556 1.410 . S
C555 C563 1.503 . S
C556 C555 1.410 . S
C556 C557 1.392 . S
C556 C559 1.511 . S
C557 C553 1.376 . S
C557 C556 1.392 . S
C557 H569 0.929 . S
C558 C554 1.531 . S
C558 H570 0.960 . S
C558 H571 0.962 . S
C558 H572 0.960 . S
C559 C556 1.511 . S
C559 H573 0.960 1_455 S
C559 H574 0.961 . S
C559 H575 0.961 1_455 S
C560 C561 1.370 . S
C560 C562 1.363 . S
C560 H576 0.931 . S
C561 C560 1.370 . S
C561 C565 1.408 . S
C562 C560 1.363 . S
C562 C563 1.370 . S
C562 C566 1.524 . S
C563 C555 1.503 . S
C563 C562 1.370 . S
C563 C564 1.403 . S
C564 C563 1.403 . S
C564 C565 1.404 . S
C564 C567 1.539 . S
C565 C561 1.408 . S
C565 C564 1.404 . S
C565 H577 0.930 . S
C566 C562 1.524 . S
C566 H578 0.956 . S
C566 H579 0.961 . S
C566 H580 0.961 . S
C567 C564 1.539 . S
C567 H581 0.958 . S
C567 H582 0.961 . S
C567 H583 0.960 . S
H568 C552 0.931 . S
H569 C557 0.929 . S
H570 C558 0.960 . S
H571 C558 0.962 . S
H572 C558 0.960 . S
H573 C559 0.960 1_655 S
H574 C559 0.961 . S
H575 C559 0.961 1_655 S
H576 C560 0.931 . S
H577 C565 0.930 . S
H578 C566 0.956 . S
H579 C566 0.961 . S
H580 C566 0.961 . S
H581 C567 0.958 . S
H582 C567 0.961 . S
H583 C567 0.960 . S
C137 C6 1.124 . S
C145 C28 1.103 . S
C169 C62 1.110 . S
C177 C40 1.115 . S
C201 C74 1.093 . S
C209 C96 1.111 . S
C233 C108 1.113 . S
C241 C130 1.103 . S
C265 C17 1.913 1_565 S
C273 C51 1.931 1_565 S
C297 C119 1.926 . S
C305 C85 1.925 . S
C329 C3 1.172 . S
C337 C37 1.229 . S
C361 C105 1.170 . S
C369 C71 1.218 . S
C393 C35 1.993 . S
C401 C1 1.996 . S
C425 C103 1.996 . S
C433 C69 1.979 . S
C457 C15 1.852 . S
C465 C124 1.674 . S
C489 C90 1.644 . S
C497 C49 1.857 . S
C521 C56 1.689 . S
C529 C83 1.864 . S
C553 C117 1.862 . S
C561 C22 1.693 . S
