# Generated by pormake.
# Topology ukg, (4)-cn, num edge types: 1
# Building blocks:
#     Node 0, Type 0, BuildingBlock: KUFVIS_clean_sbu_0, # of connection points: 4
#     Node 1, Type 0, BuildingBlock: KUFVIS_clean_sbu_0, # of connection points: 4
#     Node 2, Type 0, BuildingBlock: KUFVIS_clean_sbu_0, # of connection points: 4
#     Node 3, Type 0, BuildingBlock: KUFVIS_clean_sbu_0, # of connection points: 4
#     Node 4, Type 0, BuildingBlock: KUFVIS_clean_sbu_0, # of connection points: 4
#     Node 5, Type 0, BuildingBlock: KUFVIS_clean_sbu_0, # of connection points: 4
#     Node 6, Type 0, BuildingBlock: KUFVIS_clean_sbu_0, # of connection points: 4
#     Node 7, Type 0, BuildingBlock: KUFVIS_clean_sbu_0, # of connection points: 4
#     Edge 8, Type (0, 0), BuildingBlock: MIFKUJ_clean_linker_0, # of connection points: 2
#     Edge 9, Type (0, 0), BuildingBlock: MIFKUJ_clean_linker_0, # of connection points: 2
#     Edge 10, Type (0, 0), BuildingBlock: MIFKUJ_clean_linker_0, # of connection points: 2
#     Edge 11, Type (0, 0), BuildingBlock: MIFKUJ_clean_linker_0, # of connection points: 2
#     Edge 12, Type (0, 0), BuildingBlock: MIFKUJ_clean_linker_0, # of connection points: 2
#     Edge 13, Type (0, 0), BuildingBlock: MIFKUJ_clean_linker_0, # of connection points: 2
#     Edge 14, Type (0, 0), BuildingBlock: MIFKUJ_clean_linker_0, # of connection points: 2
#     Edge 15, Type (0, 0), BuildingBlock: MIFKUJ_clean_linker_0, # of connection points: 2
#     Edge 16, Type (0, 0), BuildingBlock: MIFKUJ_clean_linker_0, # of connection points: 2
#     Edge 17, Type (0, 0), BuildingBlock: MIFKUJ_clean_linker_0, # of connection points: 2
#     Edge 18, Type (0, 0), BuildingBlock: MIFKUJ_clean_linker_0, # of connection points: 2
#     Edge 19, Type (0, 0), BuildingBlock: MIFKUJ_clean_linker_0, # of connection points: 2
#     Edge 20, Type (0, 0), BuildingBlock: MIFKUJ_clean_linker_0, # of connection points: 2
#     Edge 21, Type (0, 0), BuildingBlock: MIFKUJ_clean_linker_0, # of connection points: 2
#     Edge 22, Type (0, 0), BuildingBlock: MIFKUJ_clean_linker_0, # of connection points: 2
#     Edge 23, Type (0, 0), BuildingBlock: MIFKUJ_clean_linker_0, # of connection points: 2
# Relax obj value: 0.156
# Max RMSD: 0.244
# Mean RMSD: 0.244
data_MOF--net-ukg--node1-KUFVIS_clean_sbu_0--edge1-MIFKUJ_clean_linker_0
_symmetry_space_group_name_H-M    P1
_symmetry_Int_Tables_number       1
_symmetry_cell_setting            triclinic
loop_
_symmetry_equiv_pos_as_xyz
'x, y, z'
_cell_length_a     39.465928
_cell_length_b     39.436671
_cell_length_c     46.782434
_cell_angle_alpha  90.014317
_cell_angle_beta   89.985212
_cell_angle_gamma 89.995959
loop_
_atom_site_label
_atom_site_type_symbol
_atom_site_fract_x
_atom_site_fract_y
_atom_site_fract_z
_atom_type_partial_charge
Mn0 Mn 0.00381 0.67891 0.15337 0.0
Mn1 Mn 0.00225 0.72245 0.09135 0.0
C2 C 0.9957 0.73666 0.15428 0.0
C3 C 0.97554 0.64582 0.18694 0.0
C4 C 0.06718 0.70061 0.12048 0.0
O5 O -0.00039 0.64191 0.12355 0.0
O6 O 0.99597 0.67313 0.08352 0.0
C7 C 0.93019 0.71035 0.07711 0.0
N8 N 0.95609 0.73232 0.08231 0.0
C9 C 0.91966 0.78045 0.07506 0.0
C10 C 0.89263 0.75836 0.06944 0.0
C11 C 0.89791 0.72315 0.07055 0.0
C12 C 0.95123 0.76622 0.08156 0.0
H13 H 0.93413 0.68327 0.078 0.0
C14 C 0.99619 0.64459 0.0966 0.0
O15 O 0.00826 0.64418 0.18414 0.0
O16 O 0.95944 0.66634 0.17008 0.0
N17 N 0.00781 0.7704 0.09511 0.0
C18 C 0.03648 0.78821 0.10129 0.0
C19 C 0.03547 0.82379 0.10126 0.0
C20 C 0.0052 0.84064 0.09444 0.0
C21 C 0.97616 0.82177 0.08771 0.0
C22 C 0.97871 0.78638 0.08803 0.0
H23 H 0.05989 0.77538 0.10635 0.0
O24 O 0.00497 0.72048 0.1771 0.0
O25 O 0.98955 0.71819 0.13173 0.0
O26 O 0.05336 0.68657 0.14216 0.0
O27 O 0.05051 0.71399 0.09993 0.0
C28 C 0.9448 0.83664 0.08069 0.0
C29 C 0.91651 0.81603 0.07457 0.0
H30 H 0.8677 0.76815 0.06435 0.0
H31 H 0.87715 0.70593 0.06635 0.0
H32 H 0.05801 0.83819 0.10638 0.0
H33 H 0.00465 0.86805 0.09428 0.0
H34 H 0.94214 0.86388 0.07987 0.0
H35 H 0.89247 0.82781 0.06946 0.0
Mn36 Mn 0.31955 0.51515 0.65022 0.0
Mn37 Mn 0.26808 0.51081 0.59281 0.0
C38 C 0.26246 0.50727 0.65664 0.0
C39 C 0.35528 0.48805 0.68241 0.0
C40 C 0.29356 0.57707 0.61741 0.0
O41 O 0.35237 0.50852 0.61744 0.0
O42 O 0.31621 0.50476 0.58043 0.0
C43 C 0.27906 0.43827 0.57945 0.0
N44 N 0.25763 0.46414 0.58617 0.0
C45 C 0.20965 0.42649 0.58647 0.0
C46 C 0.23117 0.39948 0.57934 0.0
C47 C 0.26603 0.40541 0.57583 0.0
C48 C 0.22405 0.45872 0.58959 0.0
H49 H 0.30591 0.44265 0.57698 0.0
C50 C 0.34625 0.50482 0.59089 0.0
O51 O 0.35792 0.52046 0.67783 0.0
O52 O 0.33295 0.47156 0.66764 0.0
N53 N 0.22092 0.51598 0.6013 0.0
C54 C 0.20374 0.54462 0.60881 0.0
C55 C 0.16865 0.54291 0.61362 0.0
C56 C 0.15157 0.51189 0.61043 0.0
C57 C 0.16968 0.48292 0.60213 0.0
C58 C 0.20456 0.48623 0.59736 0.0
H59 H 0.21676 0.56849 0.61144 0.0
O60 O 0.28121 0.51834 0.6774 0.0
O61 O 0.27799 0.49994 0.63283 0.0
O62 O 0.31108 0.56421 0.63766 0.0
O63 O 0.27698 0.55947 0.59918 0.0
C64 C 0.1546 0.45077 0.59886 0.0
C65 C 0.17457 0.42257 0.59106 0.0
H66 H 0.22125 0.37406 0.57671 0.0
H67 H 0.28283 0.38467 0.57048 0.0
H68 H 0.15484 0.5654 0.61995 0.0
H69 H 0.12458 0.51059 0.61447 0.0
H70 H 0.12771 0.44739 0.60256 0.0
H71 H 0.16274 0.39793 0.58887 0.0
Mn72 Mn 0.48011 0.82087 0.1452 0.0
Mn73 Mn 0.48539 0.77242 0.08597 0.0
C74 C 0.49507 0.76478 0.14915 0.0
C75 C 0.50592 0.8585 0.17658 0.0
C76 C 0.41889 0.79006 0.11488 0.0
O77 O 0.47978 0.85548 0.11316 0.0
O78 O 0.48677 0.82135 0.07505 0.0
C79 C 0.55569 0.78997 0.06962 0.0
N80 N 0.5322 0.76619 0.0769 0.0
C81 C 0.57368 0.72157 0.0742 0.0
C82 C 0.59825 0.74556 0.06646 0.0
C83 C 0.58921 0.7799 0.06418 0.0
C84 C 0.54063 0.73307 0.07917 0.0
H85 H 0.54892 0.81644 0.06809 0.0
C86 C 0.48363 0.8508 0.08639 0.0
O87 O 0.47309 0.85677 0.17482 0.0
O88 O 0.52339 0.8392 0.1597 0.0
N89 N 0.48471 0.72467 0.09326 0.0
C90 C 0.45813 0.70482 0.1014 0.0
C91 C 0.46306 0.66981 0.10503 0.0
C92 C 0.49514 0.65556 0.10006 0.0
C93 C 0.52193 0.67639 0.09115 0.0
C94 C 0.51542 0.71104 0.08759 0.0
H95 H 0.43345 0.71565 0.10538 0.0
O96 O 0.48415 0.78137 0.17121 0.0
O97 O 0.49827 0.78197 0.12553 0.0
O98 O 0.43148 0.80706 0.13557 0.0
O99 O 0.43661 0.77695 0.09481 0.0
C100 C 0.55493 0.66421 0.08603 0.0
C101 C 0.5808 0.68678 0.07759 0.0
H102 H 0.62418 0.73792 0.06242 0.0
H103 H 0.60807 0.79859 0.05837 0.0
H104 H 0.44223 0.65389 0.11183 0.0
H105 H 0.49894 0.62861 0.10321 0.0
H106 H 0.56077 0.63756 0.08875 0.0
H107 H 0.60614 0.67716 0.07395 0.0
Mn108 Mn 0.18248 0.99371 0.64087 0.0
Mn109 Mn 0.22507 0.9922 0.57829 0.0
C110 C 0.24017 0.00175 0.64086 0.0
C111 C 0.15132 0.02355 0.67473 0.0
C112 C 0.20403 0.92872 0.60996 0.0
O113 O 0.14496 0.99741 0.61156 0.0
O114 O 0.17546 0.99724 0.57101 0.0
C115 C 0.21141 0.06308 0.56094 0.0
N116 N 0.23392 0.03783 0.56676 0.0
C117 C 0.28117 0.07417 0.55594 0.0
C118 C 0.25849 0.10049 0.54963 0.0
C119 C 0.22346 0.09493 0.5522 0.0
C120 C 0.26766 0.04291 0.56441 0.0
H121 H 0.18447 0.05895 0.56299 0.0
C122 C 0.14718 -0.00145 0.58444 0.0
O123 O 0.14844 0.99084 0.67242 0.0
O124 O 0.17127 0.03878 0.65687 0.0
N125 N 0.2732 0.98774 0.58145 0.0
C126 C 0.29171 0.96025 0.5897 0.0
C127 C 0.32725 0.96194 0.58907 0.0
C128 C 0.34333 0.99168 0.57963 0.0
C129 C 0.32377 0.01951 0.57103 0.0
C130 C 0.28846 0.01628 0.57194 0.0
H131 H 0.27945 0.93731 0.5969 0.0
O132 O 0.22435 0.99283 0.66396 0.0
O133 O 0.22143 0.00715 0.61829 0.0
O134 O 0.18939 0.94354 0.63088 0.0
O135 O 0.21775 0.94444 0.58905 0.0
C136 C 0.33793 0.05055 0.56211 0.0
C137 C 0.31665 0.07788 0.55462 0.0
H138 H 0.2677 0.12515 0.54301 0.0
H139 H 0.2058 0.11517 0.5475 0.0
H140 H 0.34221 0.94038 0.5958 0.0
H141 H 0.37071 0.99295 0.57909 0.0
H142 H 0.36517 0.05381 0.56129 0.0
H143 H 0.32784 0.10175 0.54814 0.0
Mn144 Mn 0.98568 0.31921 0.85898 0.0
Mn145 Mn 0.98749 0.26857 0.9169 0.0
C146 C 0.99575 0.26226 0.85355 0.0
C147 C 0.01503 0.35544 0.82852 0.0
C148 C 0.92235 0.29262 0.88908 0.0
O149 O 0.98869 0.35248 0.89177 0.0
O150 O 0.99259 0.31688 0.92921 0.0
C151 C 0.05899 0.28004 0.93331 0.0
N152 N 0.03373 0.25843 0.92548 0.0
C153 C 0.07177 0.21075 0.92636 0.0
C154 C 0.09813 0.23246 0.93466 0.0
C155 C 0.0917 0.26726 0.93814 0.0
C156 C 0.03963 0.2249 0.92208 0.0
H157 H 0.05424 0.30686 0.93574 0.0
C158 C 0.99185 0.3468 0.91844 0.0
O159 O 0.98218 0.35701 0.83052 0.0
O160 O 0.03036 0.33362 0.84462 0.0
N161 N 0.98311 0.22133 0.90823 0.0
C162 C 0.95512 0.20395 0.89947 0.0
C163 C 0.95742 0.1689 0.89453 0.0
C164 C 0.98837 0.15207 0.89882 0.0
C165 C 0.01667 0.17039 0.9083 0.0
C166 C 0.01277 0.20521 0.91316 0.0
H167 H 0.9313 0.21677 0.89596 0.0
O168 O 0.98588 0.2804 0.83201 0.0
O169 O 0.00063 0.27837 0.8775 0.0
O170 O 0.93601 0.30957 0.86883 0.0
O171 O 0.93927 0.27714 0.90843 0.0
C172 C 0.04872 0.15555 0.91271 0.0
C173 C 0.07625 0.17572 0.92172 0.0
H174 H 0.12345 0.22273 0.93821 0.0
H175 H 0.11196 0.2842 0.94438 0.0
H176 H 0.93549 0.15495 0.88721 0.0
H177 H 0.99014 0.1251 0.89467 0.0
H178 H 0.05255 0.12871 0.90901 0.0
H179 H 0.10084 0.16408 0.9248 0.0
Mn180 Mn 0.67633 0.48495 0.35382 0.0
Mn181 Mn 0.71901 0.48351 0.41617 0.0
C182 C 0.7345 0.48939 0.35367 0.0
C183 C 0.64739 0.51556 0.31908 0.0
C184 C 0.69401 0.42008 0.38654 0.0
O185 O 0.63909 0.49217 0.38309 0.0
O186 O 0.66987 0.49156 0.42349 0.0
C187 C 0.70944 0.55576 0.43133 0.0
N188 N 0.73047 0.52913 0.42594 0.0
C189 C 0.77979 0.56356 0.43429 0.0
C190 C 0.75867 0.59131 0.44011 0.0
C191 C 0.72333 0.5874 0.43854 0.0
C192 C 0.76448 0.53267 0.42717 0.0
H193 H 0.68227 0.55289 0.4301 0.0
C194 C 0.64159 0.49404 0.41019 0.0
O195 O 0.64221 0.48321 0.3222 0.0
O196 O 0.66818 0.53001 0.33669 0.0
N197 N 0.76674 0.47623 0.41275 0.0
C198 C 0.78355 0.44714 0.40593 0.0
C199 C 0.81911 0.44688 0.4061 0.0
C200 C 0.83698 0.47634 0.41368 0.0
C201 C 0.81911 0.50583 0.42098 0.0
C202 C 0.78368 0.50457 0.42043 0.0
H203 H 0.76992 0.42437 0.40024 0.0
O204 O 0.71822 0.48048 0.33081 0.0
O205 O 0.71601 0.49685 0.37592 0.0
O206 O 0.68007 0.43487 0.36526 0.0
O207 O 0.70887 0.4358 0.40689 0.0
C208 C 0.83502 0.53644 0.42874 0.0
C209 C 0.81542 0.56535 0.43518 0.0
H210 H 0.7693 0.61575 0.44569 0.0
H211 H 0.70686 0.60873 0.44289 0.0
H212 H 0.83273 0.42401 0.40048 0.0
H213 H 0.86439 0.47595 0.41389 0.0
H214 H 0.8623 0.53804 0.42989 0.0
H215 H 0.82801 0.58882 0.44083 0.0
Mn216 Mn 0.51362 0.17048 0.84272 0.0
Mn217 Mn 0.50464 0.22067 0.90063 0.0
C218 C 0.50401 0.2275 0.83675 0.0
C219 C 0.48885 0.13397 0.8098 0.0
C220 C 0.57287 0.1973 0.87816 0.0
O221 O 0.50705 0.13685 0.87493 0.0
O222 O 0.49814 0.17223 0.9119 0.0
C223 C 0.43146 0.20888 0.91025 0.0
N224 N 0.45756 0.23066 0.90522 0.0
C225 C 0.41963 0.27843 0.90387 0.0
C226 C 0.39237 0.25653 0.90926 0.0
C227 C 0.39832 0.22161 0.91244 0.0
C228 C 0.45211 0.2643 0.90206 0.0
H229 H 0.43588 0.18198 0.91244 0.0
C230 C 0.50038 0.14238 0.90117 0.0
O231 O 0.52132 0.13313 0.81449 0.0
O232 O 0.4711 0.15533 0.82458 0.0
N233 N 0.51001 0.26813 0.89324 0.0
C234 C 0.53904 0.2858 0.88795 0.0
C235 C 0.53745 0.32107 0.88409 0.0
C236 C 0.50613 0.33785 0.88593 0.0
C237 C 0.47673 0.31924 0.89205 0.0
C238 C 0.47994 0.28419 0.89604 0.0
H239 H 0.56318 0.27306 0.88638 0.0
O240 O 0.5162 0.20948 0.81598 0.0
O241 O 0.49637 0.21126 0.86013 0.0
O242 O 0.56172 0.18056 0.85673 0.0
O243 O 0.55368 0.21232 0.89623 0.0
C244 C 0.44431 0.33404 0.89397 0.0
C245 C 0.41577 0.31363 0.89982 0.0
H246 H 0.36675 0.26622 0.91082 0.0
H247 H 0.37739 0.20453 0.91645 0.0
H248 H 0.56027 0.33526 0.87951 0.0
H249 H 0.50494 0.365 0.88258 0.0
H250 H 0.44101 0.36104 0.89076 0.0
H251 H 0.39095 0.32526 0.90102 0.0
Mn252 Mn 0.81154 0.00596 0.35593 0.0
Mn253 Mn 0.76439 0.00304 0.41602 0.0
C254 C 0.75467 0.99461 0.35267 0.0
C255 C 0.84719 0.97838 0.32382 0.0
C256 C 0.78456 0.06868 0.38695 0.0
O257 O 0.84673 0.00391 0.38729 0.0
O258 O 0.81351 -0.00049 0.42615 0.0
C259 C 0.77923 0.93198 0.43205 0.0
N260 N 0.75633 0.95657 0.42539 0.0
C261 C 0.70989 0.91742 0.43002 0.0
C262 C 0.73295 0.89174 0.43716 0.0
C263 C 0.76777 0.89905 0.43815 0.0
C264 C 0.72277 0.94981 0.42436 0.0
H265 H 0.80604 0.93742 0.43261 0.0
C266 C 0.84272 0.00085 0.41416 0.0
O267 O 0.8476 0.01123 0.32625 0.0
O268 O 0.82681 0.96187 0.34048 0.0
N269 N 0.71655 0.00588 0.40979 0.0
C270 C 0.69776 0.0332 0.40158 0.0
C271 C 0.66248 0.0299 0.39887 0.0
C272 C 0.64686 -0.0013 0.40488 0.0
C273 C 0.66665 0.97114 0.4138 0.0
C274 C 0.70168 0.976 0.41633 0.0
H275 H 0.70963 0.05721 0.39682 0.0
O276 O 0.77157 0.00475 0.33049 0.0
O277 O 0.772 0.98988 0.37609 0.0
O278 O 0.80083 0.05535 0.36616 0.0
O279 O 0.77079 0.05153 0.40704 0.0
C280 C 0.65309 0.93885 0.41974 0.0
C281 C 0.67469 0.91201 0.42782 0.0
H282 H 0.72424 0.86625 0.4417 0.0
H283 H 0.78575 0.87931 0.44348 0.0
H284 H 0.64737 0.05131 0.39201 0.0
H285 H 0.61968 0.99616 0.40247 0.0
H286 H 0.62611 0.9343 0.41785 0.0
H287 H 0.664 0.88721 0.43204 0.0
H288 H 0.98681 0.41396 0.90439 0.0
H289 H 0.98832 0.46269 0.93628 0.0
H290 H 0.00342 0.39637 0.00846 0.0
H291 H 0.00136 0.34709 0.97667 0.0
H292 H 0.95676 0.44377 0.02024 0.0
H293 H 0.06881 0.4434 0.98168 0.0
H294 H 0.11228 0.44169 0.94385 0.0
H295 H 0.07361 0.53445 0.90859 0.0
H296 H 0.02957 0.53648 0.94599 0.0
H297 H 0.00065 0.57878 0.11527 0.0
H298 H -0.00016 0.52719 0.08645 0.0
H299 H 0.98469 0.58695 0.01031 0.0
H300 H 0.986 0.63876 0.03883 0.0
H301 H 0.03349 0.54113 0.00242 0.0
H302 H 0.92015 0.54008 0.04082 0.0
H303 H 0.87646 0.54061 0.07853 0.0
H304 H 0.91843 0.44982 0.11472 0.0
H305 H 0.96267 0.44899 0.07745 0.0
C306 C 0.99064 0.40957 0.92702 0.0
C307 C 0.99404 0.37647 0.9379 0.0
C308 C 0.99161 0.43758 0.94523 0.0
C309 C 0.9964 0.43325 0.97473 0.0
C310 C -0.00024 0.4003 0.98575 0.0
C311 C -0.00133 0.37217 0.96752 0.0
C312 C 0.99717 0.46319 0.99398 0.0
C313 C 0.97392 0.46484 0.01665 0.0
C314 C 0.01911 0.49095 0.98896 0.0
C315 C 0.0457 0.48993 0.96651 0.0
C316 C 0.06941 0.46331 0.96574 0.0
C317 C 0.09418 0.4623 0.94439 0.0
C318 C 0.09565 0.48791 0.92379 0.0
C319 C 0.07241 0.51462 0.92454 0.0
C320 C 0.04756 0.51573 0.94583 0.0
C321 C 0.99689 0.58103 0.09241 0.0
C322 C 0.99349 0.61305 0.0794 0.0
C323 C 0.99631 0.55142 0.07597 0.0
C324 C 0.99199 0.55316 0.04623 0.0
C325 C 0.98813 0.585 0.03323 0.0
C326 C 0.9888 0.61462 0.04961 0.0
C327 C 0.99275 0.52195 0.02846 0.0
C328 C 0.01639 0.52003 0.00609 0.0
C329 C 0.97127 0.49391 0.03387 0.0
C330 C 0.94492 0.49466 0.05649 0.0
C331 C 0.92027 0.52041 0.05698 0.0
C332 C 0.89536 0.52073 0.07824 0.0
C333 C 0.8947 0.49527 0.099 0.0
C334 C 0.91899 0.46951 0.09861 0.0
C335 C 0.94397 0.4691 0.07742 0.0
H336 H 0.87528 0.49539 0.11531 0.0
H337 H 0.11485 0.48708 0.90727 0.0
H338 H 0.41382 0.50582 0.60428 0.0
H339 H 0.46189 0.50488 0.57159 0.0
H340 H 0.39379 0.49672 0.49985 0.0
H341 H 0.34529 0.49729 0.53245 0.0
H342 H 0.44834 0.45486 0.49401 0.0
H343 H 0.42928 0.57181 0.51516 0.0
H344 H 0.42021 0.62168 0.54603 0.0
H345 H 0.51787 0.60669 0.58444 0.0
H346 H 0.52734 0.55643 0.55406 0.0
H347 H 0.57568 0.49416 0.3913 0.0
H348 H 0.52411 0.49728 0.42012 0.0
H349 H 0.58438 0.50557 0.49668 0.0
H350 H 0.63607 0.50287 0.46812 0.0
H351 H 0.53141 0.54924 0.49755 0.0
H352 H 0.54889 0.43052 0.47758 0.0
H353 H 0.55756 0.38076 0.44649 0.0
H354 H 0.46219 0.39966 0.40529 0.0
H355 H 0.45318 0.44985 0.43589 0.0
C356 C 0.40891 0.50363 0.58158 0.0
C357 C 0.37553 0.5019 0.57105 0.0
C358 C 0.4365 0.50326 0.56289 0.0
C359 C 0.43142 0.50131 0.53324 0.0
C360 C 0.39827 0.49842 0.52265 0.0
C361 C 0.37057 0.49882 0.54135 0.0
C362 C 0.4608 0.50277 0.51343 0.0
C363 C 0.46622 0.47575 0.49445 0.0
C364 C 0.48439 0.52981 0.51429 0.0
C365 C 0.47889 0.56016 0.53249 0.0
C366 C 0.44872 0.57899 0.53033 0.0
C367 C 0.44352 0.60736 0.54772 0.0
C368 C 0.46841 0.6173 0.56723 0.0
C369 C 0.4986 0.59894 0.56933 0.0
C370 C 0.50391 0.57053 0.55201 0.0
C371 C 0.57805 0.49687 0.41425 0.0
C372 C 0.61015 0.49802 0.42736 0.0
C373 C 0.54849 0.4985 0.43071 0.0
C374 C 0.55038 0.5012 0.46059 0.0
C375 C 0.58231 0.50339 0.47365 0.0
C376 C 0.61187 0.50173 0.45725 0.0
C377 C 0.5192 0.50112 0.4784 0.0
C378 C 0.51343 0.52845 0.49699 0.0
C379 C 0.49524 0.47442 0.4771 0.0
C380 C 0.50054 0.44415 0.45881 0.0
C381 C 0.52989 0.42422 0.46174 0.0
C382 C 0.53485 0.39591 0.44423 0.0
C383 C 0.51049 0.38711 0.42387 0.0
C384 C 0.48107 0.40654 0.42104 0.0
C385 C 0.47601 0.43491 0.43846 0.0
H386 H 0.51437 0.36518 0.41034 0.0
H387 H 0.46434 0.63927 0.58067 0.0
H388 H 0.47863 0.91784 0.10158 0.0
H389 H 0.47998 0.96729 0.07025 0.0
H390 H 0.49162 0.902 0.99692 0.0
H391 H 0.49085 0.85234 0.02808 0.0
H392 H 0.53434 0.9545 0.99417 0.0
H393 H 0.41555 0.93964 0.01231 0.0
H394 H 0.36451 0.93283 0.04217 0.0
H395 H 0.38253 0.02999 0.08072 0.0
H396 H 0.43398 0.03718 0.05136 0.0
H397 H 0.50059 0.07508 0.88657 0.0
H398 H 0.49602 0.02624 0.91827 0.0
H399 H 0.48575 0.09295 0.99082 0.0
H400 H 0.48977 0.14216 0.95921 0.0
H401 H 0.44222 0.04016 0.99434 0.0
H402 H 0.56105 0.05488 0.97634 0.0
H403 H 0.61208 0.06173 0.94647 0.0
H404 H 0.59393 0.96469 0.90773 0.0
H405 H 0.5425 0.95748 0.93711 0.0
C406 C 0.48145 0.91389 0.07879 0.0
C407 C 0.4845 0.88097 0.0674 0.0
C408 C 0.48206 0.94225 0.06088 0.0
C409 C 0.48547 0.93835 0.03119 0.0
C410 C 0.48888 0.90562 0.01977 0.0
C411 C 0.48834 0.87722 0.03765 0.0
C412 C 0.486 0.96841 0.01206 0.0
C413 C 0.51396 0.97297 0.99393 0.0
C414 C 0.45982 0.99298 0.01225 0.0
C415 C 0.42881 0.98879 0.02983 0.0
C416 C 0.40878 0.95944 0.02731 0.0
C417 C 0.37975 0.95553 0.04412 0.0
C418 C 0.37033 0.98092 0.06339 0.0
C419 C 0.38988 0.01032 0.06582 0.0
C420 C 0.41897 0.01434 0.04908 0.0
C421 C 0.49724 0.0795 0.90925 0.0
C422 C 0.49586 0.11268 0.92031 0.0
C423 C 0.49474 0.05147 0.92737 0.0
C424 C 0.49111 0.05593 0.95698 0.0
C425 C 0.48868 0.08892 0.96804 0.0
C426 C 0.49108 0.11704 0.94992 0.0
C427 C 0.49048 0.02613 0.97639 0.0
C428 C 0.46256 0.02166 0.99459 0.0
C429 C 0.5167 0.00162 0.97629 0.0
C430 C 0.54775 0.00579 0.95874 0.0
C431 C 0.5678 0.03512 0.96131 0.0
C432 C 0.59682 0.03905 0.94448 0.0
C433 C 0.60619 0.0137 0.92516 0.0
C434 C 0.58662 0.98432 0.92268 0.0
C435 C 0.55755 0.98029 0.93943 0.0
H436 H 0.62867 0.01679 0.91216 0.0
H437 H 0.34785 0.97785 0.07638 0.0
H438 H 0.90884 0.00786 0.39745 0.0
H439 H 0.95936 0.00712 0.4273 0.0
H440 H 0.89765 0.9895 0.50193 0.0
H441 H 0.84663 0.9908 0.47223 0.0
H442 H 0.94439 0.03694 0.51245 0.0
H443 H 0.94495 0.92543 0.47162 0.0
H444 H 0.94362 0.88236 0.4334 0.0
H445 H 0.03367 0.92485 0.39641 0.0
H446 H 0.03532 0.96847 0.4342 0.0
H447 H 0.08185 0.99291 0.60382 0.0
H448 H 0.02979 0.99365 0.57572 0.0
H449 H 0.08799 0.01002 0.49889 0.0
H450 H 0.14032 0.00864 0.52673 0.0
H451 H 0.04212 0.96221 0.49054 0.0
H452 H 0.04119 0.07424 0.53086 0.0
H453 H 0.04339 0.11658 0.56961 0.0
H454 H 0.95442 0.07309 0.60766 0.0
H455 H 0.95194 0.03019 0.56933 0.0
C456 C 0.90586 0.00366 0.42019 0.0
C457 C 0.87352 -0.00067 0.43238 0.0
C458 C 0.93489 0.00311 0.43724 0.0
C459 C 0.93238 0.99784 0.46683 0.0
C460 C 0.9002 0.99357 0.47913 0.0
C461 C 0.87106 0.99423 0.46209 0.0
C462 C 0.96336 0.99749 0.4849 0.0
C463 C 0.96556 0.02023 0.50793 0.0
C464 C 0.99134 0.97628 0.47862 0.0
C465 C 0.9901 0.95037 0.45563 0.0
C466 C 0.96429 0.92579 0.45519 0.0
C467 C 0.96352 0.90124 0.43364 0.0
C468 C 0.98855 0.9009 0.41251 0.0
C469 C 0.01432 0.92516 0.41281 0.0
C470 C 0.01521 0.94977 0.4343 0.0
C471 C 0.08366 0.99691 0.58096 0.0
C472 C 0.11539 0.00068 0.56757 0.0
C473 C 0.05378 0.99745 0.56493 0.0
C474 C 0.0549 0.00223 0.53521 0.0
C475 C 0.08648 0.00628 0.52179 0.0
C476 C 0.1164 0.00554 0.53778 0.0
C477 C 0.02329 0.00185 0.51793 0.0
C478 C 0.02094 0.97892 0.49508 0.0
C479 C 0.99523 0.02291 0.52438 0.0
C480 C 0.99658 0.04879 0.54737 0.0
C481 C 0.02224 0.07354 0.54761 0.0
C482 C 0.02351 0.09767 0.56948 0.0
C483 C -0.00089 0.09747 0.59113 0.0
C484 C 0.97333 0.07319 0.5909 0.0
C485 C 0.97196 0.04898 0.56909 0.0
H486 H 0.00015 0.11617 0.60804 0.0
H487 H 0.98809 0.88175 0.396 0.0
H488 H 0.10808 0.70874 0.07392 0.0
H489 H 0.16883 0.7213 0.07373 0.0
H490 H 0.17083 0.71486 0.16572 0.0
H491 H 0.11019 0.70166 0.16614 0.0
H492 H 0.19826 0.77708 0.14 0.0
H493 H 0.20698 0.6554 0.13423 0.0
H494 H 0.19448 0.59905 0.11399 0.0
H495 H 0.23582 0.63004 0.0332 0.0
H496 H 0.24812 0.68679 0.05286 0.0
H497 H 0.37536 0.79325 0.16022 0.0
H498 H 0.31581 0.77677 0.16122 0.0
H499 H 0.3194 0.75522 0.0708 0.0
H500 H 0.37936 0.77047 0.06987 0.0
H501 H 0.28844 0.70634 0.09634 0.0
H502 H 0.2787 0.82703 0.09919 0.0
H503 H 0.28971 0.88503 0.11655 0.0
H504 H 0.24859 0.85892 0.19863 0.0
H505 H 0.23775 0.80059 0.18188 0.0
C506 C 0.12156 0.70949 0.09408 0.0
C507 C 0.10441 0.70418 0.12005 0.0
C508 C 0.1562 0.71662 0.09392 0.0
C509 C 0.17411 0.71901 0.11971 0.0
C510 C 0.15729 0.71306 0.14562 0.0
C511 C 0.12276 0.70533 0.14579 0.0
C512 C 0.20998 0.72957 0.11963 0.0
C513 C 0.21817 0.76148 0.13088 0.0
C514 C 0.23546 0.70959 0.10678 0.0
C515 C 0.22815 0.67546 0.09494 0.0
C516 C 0.21311 0.65032 0.11207 0.0
C517 C 0.20612 0.61828 0.10072 0.0
C518 C 0.21426 0.611 0.0723 0.0
C519 C 0.22948 0.63573 0.0552 0.0
C520 C 0.2365 0.66783 0.06644 0.0
C521 C 0.36338 0.78542 0.14047 0.0
C522 C 0.38206 0.78326 0.11494 0.0
C523 C 0.32927 0.77605 0.14106 0.0
C524 C 0.31297 0.76508 0.11602 0.0
C525 C 0.33144 0.76351 0.09041 0.0
C526 C 0.36568 0.77238 0.08988 0.0
C527 C 0.27702 0.75408 0.11673 0.0
C528 C 0.2687 0.72207 0.10554 0.0
C529 C 0.25127 0.77427 0.1292 0.0
C530 C 0.25773 0.80934 0.13936 0.0
C531 C 0.27226 0.83357 0.12101 0.0
C532 C 0.27842 0.86652 0.13073 0.0
C533 C 0.26994 0.87563 0.1587 0.0
C534 C 0.25519 0.85182 0.17698 0.0
C535 C 0.249 0.81882 0.16738 0.0
H536 H 0.27473 0.90115 0.16618 0.0
H537 H 0.20884 0.58617 0.06356 0.0
H538 H 0.27575 0.61565 0.57138 0.0
H539 H 0.26228 0.67619 0.57099 0.0
H540 H 0.28733 0.68292 0.66052 0.0
H541 H 0.30133 0.62242 0.66107 0.0
H542 H 0.22144 0.70925 0.6444 0.0
H543 H 0.33896 0.71765 0.61783 0.0
H544 H 0.38938 0.70346 0.58908 0.0
H545 H 0.33962 0.73968 0.5134 0.0
H546 H 0.28867 0.75357 0.54163 0.0
H547 H 0.20762 0.88838 0.65721 0.0
H548 H 0.22326 0.82851 0.65894 0.0
H549 H 0.22554 0.8252 0.5667 0.0
H550 H 0.21146 0.88548 0.56495 0.0
H551 H 0.27892 0.79651 0.58542 0.0
H552 H 0.16135 0.78616 0.60899 0.0
H553 H 0.10848 0.79795 0.63527 0.0
H554 H 0.15447 0.76334 0.71315 0.0
H555 H 0.20779 0.75175 0.6874 0.0
C556 C 0.27889 0.63011 0.59089 0.0
C557 C 0.28963 0.61429 0.61625 0.0
C558 C 0.2712 0.66465 0.59061 0.0
C559 C 0.27379 0.68385 0.61574 0.0
C560 C 0.2852 0.6684 0.64094 0.0
C561 C 0.29341 0.63393 0.64114 0.0
C562 C 0.26295 0.7197 0.6159 0.0
C563 C 0.23423 0.72857 0.63189 0.0
C564 C 0.2791 0.74436 0.59879 0.0
C565 C 0.30987 0.73636 0.58182 0.0
C566 C 0.33866 0.72232 0.59502 0.0
C567 C 0.36736 0.71438 0.57882 0.0
C568 C 0.36768 0.72059 0.54942 0.0
C569 C 0.33933 0.73485 0.53617 0.0
C570 C 0.31054 0.74279 0.55227 0.0
C571 C 0.21083 0.8747 0.63731 0.0
C572 C 0.20825 0.89155 0.61094 0.0
C573 C 0.21974 0.84044 0.6383 0.0
C574 C 0.22535 0.82216 0.61293 0.0
C575 C 0.22153 0.83874 0.58657 0.0
C576 C 0.21329 0.87314 0.58558 0.0
C577 C 0.23702 0.78636 0.61382 0.0
C578 C 0.26598 0.77739 0.59802 0.0
C579 C 0.22071 0.76144 0.63075 0.0
C580 C 0.18868 0.76841 0.64631 0.0
C581 C 0.16028 0.78132 0.63176 0.0
C582 C 0.13021 0.78791 0.64656 0.0
C583 C 0.12815 0.78149 0.67588 0.0
C584 C 0.15612 0.76836 0.69045 0.0
C585 C 0.18626 0.76174 0.67576 0.0
H586 H 0.10484 0.78661 0.68729 0.0
H587 H 0.38992 0.7144 0.53692 0.0
H588 H 0.60638 0.23364 0.91913 0.0
H589 H 0.66613 0.24896 0.91981 0.0
H590 H 0.68335 0.18869 0.84429 0.0
H591 H 0.62338 0.17302 0.8433 0.0
H592 H 0.73537 0.18324 0.88475 0.0
H593 H 0.67272 0.26904 0.83565 0.0
H594 H 0.62603 0.31001 0.82983 0.0
H595 H 0.66111 0.36554 0.90302 0.0
H596 H 0.7076 0.32447 0.90966 0.0
H597 H 0.87693 0.31078 0.84733 0.0
H598 H 0.81706 0.29499 0.84454 0.0
H599 H 0.82373 0.24804 0.92759 0.0
H600 H 0.88341 0.2633 0.93056 0.0
H601 H 0.76009 0.30642 0.87724 0.0
H602 H 0.78196 0.17241 0.9246 0.0
H603 H 0.82832 0.13077 0.92896 0.0
H604 H 0.87537 0.17116 0.85353 0.0
H605 H 0.82893 0.21254 0.84835 0.0
C606 C 0.62283 0.22316 0.90283 0.0
C607 C 0.6099 0.20239 0.88092 0.0
C608 C 0.65699 0.23207 0.90325 0.0
C609 C 0.6789 0.2204 0.88182 0.0
C610 C 0.66669 0.19805 0.86092 0.0
C611 C 0.6324 0.18919 0.86039 0.0
C612 C 0.71404 0.2332 0.88045 0.0
C613 C 0.74084 0.21012 0.88307 0.0
C614 C 0.72099 0.26827 0.87762 0.0
C615 C 0.69352 0.29351 0.87328 0.0
C616 C 0.67036 0.28986 0.85062 0.0
C617 C 0.64392 0.3131 0.84717 0.0
C618 C 0.64059 0.34034 0.86606 0.0
C619 C 0.66372 0.34442 0.88841 0.0
C620 C 0.69013 0.32117 0.89202 0.0
C621 C 0.86556 0.29758 0.86522 0.0
C622 C 0.88514 0.28793 0.88901 0.0
C623 C 0.83134 0.2886 0.86357 0.0
C624 C 0.81626 0.2698 0.88561 0.0
C625 C 0.83514 0.26201 0.91012 0.0
C626 C 0.86926 0.27086 0.91178 0.0
C627 C 0.78142 0.25654 0.88244 0.0
C628 C 0.75466 0.27952 0.87884 0.0
C629 C 0.77454 0.22132 0.88391 0.0
C630 C 0.80207 0.19578 0.88625 0.0
C631 C 0.80206 0.17224 0.90882 0.0
C632 C 0.82836 0.1487 0.91144 0.0
C633 C 0.85479 0.14837 0.89157 0.0
C634 C 0.8549 0.17148 0.86894 0.0
C635 C 0.82858 0.19498 0.86615 0.0
H636 H 0.87514 0.13014 0.89367 0.0
H637 H 0.62014 0.35833 0.86334 0.0
H638 H 0.69432 0.37777 0.34037 0.0
H639 H 0.7081 0.31742 0.34 0.0
H640 H 0.71258 0.31756 0.43221 0.0
H641 H 0.70025 0.37824 0.43259 0.0
H642 H 0.76567 0.28846 0.413 0.0
H643 H 0.64753 0.27704 0.39233 0.0
H644 H 0.59388 0.28773 0.36687 0.0
H645 H 0.63751 0.24973 0.28911 0.0
H646 H 0.6916 0.23923 0.31402 0.0
H647 H 0.76748 0.10894 0.43218 0.0
H648 H 0.75189 0.1689 0.43106 0.0
H649 H 0.77163 0.172 0.34044 0.0
H650 H 0.78762 0.11198 0.34134 0.0
H651 H 0.70691 0.19869 0.35771 0.0
H652 H 0.82529 0.20946 0.38086 0.0
H653 H 0.87713 0.19733 0.40843 0.0
H654 H 0.8297 0.23517 0.48464 0.0
H655 H 0.77737 0.24708 0.4576 0.0
C656 C 0.69751 0.36476 0.36058 0.0
C657 C 0.69625 0.38271 0.38651 0.0
C658 C 0.70536 0.3302 0.36035 0.0
C659 C 0.71125 0.31281 0.3861 0.0
C660 C 0.70836 0.33044 0.41207 0.0
C661 C 0.70115 0.36507 0.41227 0.0
C662 C 0.72289 0.27698 0.38595 0.0
C663 C 0.75242 0.26879 0.40126 0.0
C664 C 0.70622 0.25137 0.37004 0.0
C665 C 0.67373 0.25767 0.35499 0.0
C666 C 0.64578 0.27122 0.36975 0.0
C667 C 0.61527 0.2772 0.35542 0.0
C668 C 0.61232 0.2695 0.32638 0.0
C669 C 0.63985 0.25572 0.31161 0.0
C670 C 0.67043 0.24972 0.32582 0.0
C671 C 0.76892 0.12245 0.41205 0.0
C672 C 0.77885 0.10573 0.38685 0.0
C673 C 0.76002 0.15668 0.41148 0.0
C674 C 0.76061 0.17474 0.38567 0.0
C675 C 0.77101 0.15838 0.36054 0.0
C676 C 0.78038 0.1242 0.36116 0.0
C677 C 0.74928 0.21045 0.38491 0.0
C678 C 0.71995 0.21853 0.36942 0.0
C679 C 0.76579 0.23587 0.40098 0.0
C680 C 0.7973 0.22886 0.41725 0.0
C681 C 0.8258 0.21493 0.40355 0.0
C682 C 0.8553 0.20815 0.41907 0.0
C683 C 0.85668 0.2154 0.44828 0.0
C684 C 0.82858 0.22953 0.46202 0.0
C685 C 0.79901 0.23633 0.4466 0.0
H686 H 0.87954 0.21013 0.46026 0.0
H687 H 0.58868 0.27414 0.31533 0.0
H688 H 0.7827 0.44817 0.33232 0.0
H689 H 0.8373 0.4661 0.3127 0.0
H690 H 0.82164 0.56643 0.34692 0.0
H691 H 0.7667 0.54859 0.36614 0.0
H692 H 0.83098 0.5147 0.27175 0.0
H693 H 0.89959 0.60493 0.35119 0.0
H694 H 0.92136 0.60599 0.40062 0.0
H695 H 0.92325 0.49717 0.40214 0.0
H696 H 0.90089 0.49544 0.35292 0.0
H697 H 0.90814 0.64791 0.19887 0.0
H698 H 0.87702 0.61432 0.2338 0.0
H699 H 0.96949 0.56401 0.25862 0.0
H700 H 0.00116 0.59816 0.2238 0.0
H701 H 0.9305 0.58055 0.30503 0.0
H702 H 0.91491 0.52363 0.21572 0.0
H703 H 0.90117 0.51996 0.1644 0.0
H704 H 0.79996 0.55445 0.18147 0.0
H705 H 0.81326 0.55886 0.23285 0.0
C706 C 0.79169 0.4736 0.33672 0.0
C707 C 0.77086 0.4969 0.35103 0.0
C708 C 0.82286 0.48381 0.32556 0.0
C709 C 0.83354 0.51759 0.32831 0.0
C710 C 0.81416 0.54011 0.3449 0.0
C711 C 0.78281 0.52991 0.35596 0.0
C712 C 0.85957 0.53111 0.30852 0.0
C713 C 0.85295 0.52877 0.27908 0.0
C714 C 0.88833 0.54923 0.31797 0.0
C715 C 0.89842 0.55009 0.34845 0.0
C716 C 0.90434 0.58123 0.36219 0.0
C717 C 0.91681 0.58195 0.39015 0.0
C718 C 0.92384 0.55167 0.40445 0.0
C719 C 0.91777 0.5206 0.39102 0.0
C720 C 0.90487 0.51973 0.3632 0.0
C721 C 0.92195 0.62974 0.21173 0.0
C722 C 0.95709 0.62549 0.20843 0.0
C723 C 0.90409 0.61051 0.23167 0.0
C724 C 0.92087 0.58634 0.24851 0.0
C725 C 0.95608 0.58247 0.24575 0.0
C726 C 0.97408 0.60187 0.2258 0.0
C727 C 0.9012 0.56488 0.26853 0.0
C728 C 0.90879 0.566 0.29782 0.0
C729 C 0.8735 0.54517 0.25897 0.0
C730 C 0.86516 0.54175 0.22814 0.0
C731 C 0.88977 0.53057 0.20852 0.0
C732 C 0.88206 0.52836 0.17941 0.0
C733 C 0.84973 0.53703 0.16968 0.0
C734 C 0.825 0.54776 0.18905 0.0
C735 C 0.8326 0.55007 0.21817 0.0
H736 H 0.8438 0.53546 0.14714 0.0
H737 H 0.93376 0.55226 0.42601 0.0
H738 H 0.33587 0.43332 0.71282 0.0
H739 H 0.36884 0.40137 0.74776 0.0
H740 H 0.45294 0.46983 0.73629 0.0
H741 H 0.41936 0.50289 0.70163 0.0
H742 H 0.46404 0.39429 0.72814 0.0
H743 H 0.42331 0.47504 0.79588 0.0
H744 H 0.38021 0.51062 0.81945 0.0
H745 H 0.32604 0.42149 0.8457 0.0
H746 H 0.3685 0.38535 0.82189 0.0
H747 H 0.5449 0.27855 0.8195 0.0
H748 H 0.52737 0.3345 0.80212 0.0
H749 H 0.42303 0.30935 0.82018 0.0
H750 H 0.44089 0.25408 0.83871 0.0
H751 H 0.43228 0.37427 0.82941 0.0
H752 H 0.45965 0.29613 0.75325 0.0
H753 H 0.49646 0.25674 0.72653 0.0
H754 H 0.5687 0.33656 0.71287 0.0
H755 H 0.53242 0.37634 0.73983 0.0
C756 C 0.36128 0.44181 0.71792 0.0
C757 C 0.37524 0.47039 0.70444 0.0
C758 C 0.37995 0.42369 0.73801 0.0
C759 C 0.41314 0.43344 0.74468 0.0
C760 C 0.4272 0.46219 0.73151 0.0
C761 C 0.4081 0.48094 0.7118 0.0
C762 C 0.43355 0.41131 0.76345 0.0
C763 C 0.45796 0.39058 0.75055 0.0
C764 C 0.42455 0.40585 0.79234 0.0
C765 C 0.39904 0.42747 0.80692 0.0
C766 C 0.40207 0.46301 0.80647 0.0
C767 C 0.37777 0.48329 0.81992 0.0
C768 C 0.35037 0.46833 0.83402 0.0
C769 C 0.34727 0.43305 0.83477 0.0
C770 C 0.37149 0.41265 0.82133 0.0
C771 C 0.51836 0.28553 0.82042 0.0
C772 C 0.49423 0.26265 0.83097 0.0
C773 C 0.50834 0.31732 0.81039 0.0
C774 C 0.47382 0.32596 0.80943 0.0
C775 C 0.44981 0.30337 0.82083 0.0
C776 C 0.45994 0.27185 0.8314 0.0
C777 C 0.46223 0.35664 0.79388 0.0
C778 C 0.43929 0.37872 0.8073 0.0
C779 C 0.47183 0.36283 0.76514 0.0
C780 C 0.49357 0.33905 0.74883 0.0
C781 C 0.48349 0.3052 0.7447 0.0
C782 C 0.50424 0.28282 0.7295 0.0
C783 C 0.53496 0.29411 0.71809 0.0
C784 C 0.54494 0.32784 0.72178 0.0
C785 C 0.5243 0.35031 0.73701 0.0
H786 H 0.551 0.27675 0.70633 0.0
H787 H 0.33158 0.48407 0.84441 0.0
H788 H 0.48455 0.87422 0.23061 0.0
H789 H 0.51902 0.8992 0.2689 0.0
H790 H 0.60083 0.9146 0.20896 0.0
H791 H 0.56719 0.88828 0.17134 0.0
H792 H 0.62435 0.88478 0.2526 0.0
H793 H 0.55089 0.98096 0.2387 0.0
H794 H 0.49623 0.01111 0.23609 0.0
H795 H 0.47518 0.98476 0.32336 0.0
H796 H 0.52957 0.95408 0.32637 0.0
H797 H 0.70468 0.03104 0.32852 0.0
H798 H 0.65221 0.00866 0.30828 0.0
H799 H 0.67352 0.91097 0.34582 0.0
H800 H 0.72715 0.933 0.36458 0.0
H801 H 0.59427 0.97773 0.31941 0.0
H802 H 0.66091 0.85107 0.296 0.0
H803 H 0.71881 0.82748 0.2936 0.0
H804 H 0.75799 0.92554 0.27124 0.0
H805 H 0.70029 0.94953 0.27307 0.0
C806 C 0.50964 0.88366 0.22561 0.0
C807 C 0.52336 0.87929 0.19815 0.0
C808 C 0.52933 0.89789 0.24747 0.0
C809 C 0.56266 0.90866 0.24189 0.0
C810 C 0.5754 0.9061 0.21394 0.0
C811 C 0.5561 0.89126 0.19239 0.0
C812 C 0.5855 0.92027 0.26518 0.0
C813 C 0.61755 0.905 0.26726 0.0
C814 C 0.57681 0.94657 0.28446 0.0
C815 C 0.54408 0.96487 0.28264 0.0
C816 C 0.53446 0.98134 0.25725 0.0
C817 C 0.50356 -0.00142 0.25571 0.0
C818 C 0.48219 -0.00025 0.27951 0.0
C819 C 0.49172 0.98376 0.30492 0.0
C820 C 0.52259 0.96646 0.30656 0.0
C821 C 0.6975 0.0051 0.33319 0.0
C822 C 0.71946 0.98384 0.34847 0.0
C823 C 0.66745 0.99237 0.32178 0.0
C824 C 0.65916 0.958 0.32516 0.0
C825 C 0.67961 0.93749 0.34269 0.0
C826 C 0.71003 0.95013 0.35369 0.0
C827 C 0.63317 0.94278 0.30616 0.0
C828 C 0.60061 0.95712 0.30501 0.0
C829 C 0.64171 0.91646 0.28686 0.0
C830 C 0.67639 0.90212 0.28507 0.0
C831 C 0.6819 0.86752 0.29048 0.0
C832 C 0.71466 0.8541 0.28922 0.0
C833 C 0.74208 0.87503 0.28239 0.0
C834 C 0.73676 0.90938 0.27661 0.0
C835 C 0.70404 0.92289 0.27775 0.0
H836 H 0.76743 0.86461 0.2815 0.0
H837 H 0.45829 0.01312 0.27828 0.0
H838 H 0.05972 0.23985 0.86143 0.0
H839 H 0.08501 0.18978 0.83887 0.0
H840 H 0.98666 0.15936 0.80804 0.0
H841 H 0.96141 0.20983 0.83014 0.0
H842 H 0.0433 0.10323 0.82632 0.0
H843 H 0.01459 0.20096 0.76383 0.0
H844 H 0.01482 0.2627 0.75518 0.0
H845 H 0.12301 0.26466 0.76477 0.0
H846 H 0.12327 0.20297 0.77395 0.0
H847 H 0.09071 0.00995 0.70101 0.0
H848 H 0.06245 0.04432 0.7377 0.0
H849 H 0.14739 0.11344 0.73787 0.0
H850 H 0.17426 0.08056 0.70011 0.0
H851 H 0.09561 0.14864 0.73773 0.0
H852 H 0.12819 0.05209 0.79378 0.0
H853 H 0.13164 0.99162 0.80688 0.0
H854 H 0.02326 0.98701 0.81401 0.0
H855 H 0.01914 0.04738 0.8006 0.0
C856 C 0.04336 0.22159 0.85098 0.0
C857 C 0.00863 0.2281 0.84785 0.0
C858 C 0.05778 0.19309 0.83812 0.0
C859 C 0.0376 0.17097 0.82194 0.0
C860 C 0.00247 0.17596 0.8208 0.0
C861 C 0.98814 0.20476 0.83326 0.0
C862 C 0.05378 0.14774 0.80136 0.0
C863 C 0.05457 0.11284 0.80679 0.0
C864 C 0.06895 0.16069 0.77631 0.0
C865 C 0.06891 0.19749 0.76981 0.0
C866 C 0.03838 0.21462 0.76425 0.0
C867 C 0.03842 0.24959 0.75925 0.0
C868 C 0.0689 0.26762 0.7595 0.0
C869 C 0.09941 0.25068 0.76462 0.0
C870 C 0.09948 0.21572 0.7697 0.0
C871 C 0.1032 0.03249 0.70901 0.0
C872 C 0.13445 0.04283 0.69765 0.0
C873 C 0.08723 0.05197 0.73015 0.0
C874 C 0.10289 0.08141 0.74091 0.0
C875 C 0.13456 0.09108 0.72989 0.0
C876 C 0.14995 0.07225 0.70829 0.0
C877 C 0.08589 0.10338 0.76248 0.0
C878 C 0.08464 0.13845 0.75718 0.0
C879 C 0.07094 0.09045 0.78786 0.0
C880 C 0.07335 0.05416 0.79589 0.0
C881 C 0.10508 0.03811 0.79793 0.0
C882 C 0.10716 0.00387 0.80544 0.0
C883 C 0.07768 0.98546 0.81119 0.0
C884 C 0.04607 0.00129 0.80951 0.0
C885 C 0.04385 0.03552 0.80197 0.0
H886 H 0.07935 0.95895 0.81701 0.0
H887 H 0.06889 0.2947 0.75567 0.0
H888 H 0.99168 0.4017 0.78897 0.0
H889 H 0.02584 0.43381 0.75426 0.0
H890 H 0.11659 0.38705 0.78728 0.0
H891 H 0.08316 0.35564 0.82182 0.0
H892 H 0.12578 0.45286 0.78056 0.0
H893 H 0.07997 0.35957 0.72605 0.0
H894 H 0.03404 0.32456 0.70592 0.0
H895 H 0.99585 0.41088 0.66015 0.0
H896 H 0.04133 0.44652 0.68038 0.0
H897 H 0.23446 0.4449 0.65074 0.0
H898 H 0.1818 0.42517 0.673 0.0
H899 H 0.16102 0.52691 0.70204 0.0
H900 H 0.21368 0.54657 0.6798 0.0
H901 H 0.11141 0.43951 0.67573 0.0
H902 H 0.1474 0.52053 0.77348 0.0
H903 H 0.19774 0.54849 0.79416 0.0
H904 H 0.26235 0.47474 0.75422 0.0
H905 H 0.21239 0.4461 0.73373 0.0
C906 C 0.01893 0.39854 0.78887 0.0
C907 C 0.03472 0.37623 0.80817 0.0
C908 C 0.03836 0.41673 0.76899 0.0
C909 C 0.07375 0.41272 0.76818 0.0
C910 C 0.08938 0.39071 0.78763 0.0
C911 C 0.07014 0.37268 0.80736 0.0
C912 C 0.09514 0.431 0.74718 0.0
C913 C 0.12226 0.45033 0.75765 0.0
C914 C 0.09094 0.42723 0.71729 0.0
C915 C 0.06377 0.4058 0.705 0.0
C916 C 0.06161 0.37114 0.71188 0.0
C917 C 0.03569 0.35117 0.70042 0.0
C918 C 0.01197 0.36551 0.68183 0.0
C919 C 0.01419 0.39983 0.6746 0.0
C920 C 0.04003 0.41992 0.68605 0.0
C921 C 0.2178 0.46322 0.66076 0.0
C922 C 0.22752 0.49731 0.66314 0.0
C923 C 0.18779 0.45197 0.67348 0.0
C924 C 0.16767 0.47457 0.68928 0.0
C925 C 0.17623 0.50911 0.68992 0.0
C926 C 0.20623 0.52029 0.6773 0.0
C927 C 0.1419 0.46114 0.70926 0.0
C928 C 0.1142 0.44275 0.69864 0.0
C929 C 0.14604 0.46479 0.73916 0.0
C930 C 0.1762 0.48152 0.75177 0.0
C931 C 0.17235 0.51028 0.76919 0.0
C932 C 0.20081 0.52622 0.78089 0.0
C933 C 0.23323 0.51348 0.77541 0.0
C934 C 0.23725 0.48467 0.75835 0.0
C935 C 0.20887 0.4686 0.74668 0.0
H936 H 0.25522 0.52588 0.78445 0.0
H937 H 0.99192 0.35002 0.67297 0.0
H938 H 0.58529 0.50688 0.29371 0.0
H939 H 0.55954 0.54322 0.25704 0.0
H940 H 0.65102 0.60328 0.25393 0.0
H941 H 0.6756 0.56856 0.2916 0.0
H942 H 0.60289 0.64343 0.25656 0.0
H943 H 0.623 0.54553 0.19841 0.0
H944 H 0.62016 0.48529 0.18446 0.0
H945 H 0.51156 0.49086 0.18134 0.0
H946 H 0.51373 0.55104 0.19564 0.0
H947 H 0.55988 0.74496 0.1404 0.0
H948 H 0.58669 0.69391 0.16006 0.0
H949 H 0.48946 0.65892 0.19004 0.0
H950 H 0.46273 0.71016 0.17073 0.0
H951 H 0.54069 0.60497 0.17025 0.0
H952 H 0.52402 0.70286 0.23376 0.0
H953 H 0.52942 0.76393 0.24426 0.0
H954 H 0.63732 0.7574 0.23378 0.0
H955 H 0.63242 0.69637 0.22265 0.0
C956 C 0.59979 0.52778 0.28498 0.0
C957 C 0.6322 0.53524 0.29561 0.0
C958 C 0.58524 0.54837 0.26387 0.0
C959 C 0.60338 0.57598 0.25244 0.0
C960 C 0.6363 0.58242 0.26247 0.0
C961 C 0.65036 0.56255 0.28402 0.0
C962 C 0.5876 0.59985 0.23169 0.0
C963 C 0.58989 0.63475 0.23748 0.0
C964 C 0.56993 0.5889 0.20693 0.0
C965 C 0.56853 0.55271 0.19838 0.0
C966 C 0.5985 0.53384 0.19498 0.0
C967 C 0.59701 0.49972 0.18696 0.0
C968 C 0.5657 0.48424 0.18209 0.0
C969 C 0.5358 0.50287 0.18516 0.0
C970 C 0.53715 0.537 0.19319 0.0
C971 C 0.54414 0.7256 0.15008 0.0
C972 C 0.50926 0.73089 0.15364 0.0
C973 C 0.55941 0.69656 0.1613 0.0
C974 C 0.53996 0.67273 0.1764 0.0
C975 C 0.50474 0.67683 0.17812 0.0
C976 C 0.48957 0.70608 0.16726 0.0
C977 C 0.55677 0.64783 0.1952 0.0
C978 C 0.55425 0.61311 0.18922 0.0
C979 C 0.5748 0.65877 0.21959 0.0
C980 C 0.57782 0.69519 0.22709 0.0
C981 C 0.54885 0.71452 0.2335 0.0
C982 C 0.55183 0.74911 0.23957 0.0
C983 C 0.58369 0.76456 0.23961 0.0
C984 C 0.61265 0.74541 0.23369 0.0
C985 C 0.6098 0.71083 0.2275 0.0
H986 H 0.58594 0.79135 0.2443 0.0
H987 H 0.5646 0.45782 0.17588 0.0
H988 H 0.51716 0.10751 0.76101 0.0
H989 H 0.48633 0.08297 0.7202 0.0
H990 H 0.39293 0.08988 0.76779 0.0
H991 H 0.42315 0.11502 0.8079 0.0
H992 H 0.44451 0.02874 0.70929 0.0
H993 H 0.33319 0.12381 0.72897 0.0
H994 H 0.32594 0.18217 0.7469 0.0
H995 H 0.42874 0.20546 0.72413 0.0
H996 H 0.43646 0.14743 0.70562 0.0
H997 H 0.2882 0.96598 0.6682 0.0
H998 H 0.34284 0.98662 0.68427 0.0
H999 H 0.32876 0.0781 0.63475 0.0
H1000 H 0.27176 0.0591 0.62218 0.0
H1001 H 0.34496 0.09742 0.68042 0.0
H1002 H 0.40099 0.0145 0.62547 0.0
H1003 H 0.4136 0.95877 0.60385 0.0
H1004 H 0.42882 0.916 0.68718 0.0
H1005 H 0.41634 0.97131 0.70934 0.0
C1006 C 0.49015 0.10314 0.76284 0.0
C1007 C 0.47239 0.11355 0.78738 0.0
C1008 C 0.47261 0.08921 0.73955 0.0
C1009 C 0.43725 0.08545 0.74074 0.0
C1010 C 0.4201 0.09338 0.76615 0.0
C1011 C 0.43741 0.10763 0.7891 0.0
C1012 C 0.4173 0.07542 0.71527 0.0
C1013 C 0.42289 0.04372 0.70258 0.0
C1014 C 0.39025 0.09588 0.70554 0.0
C1015 C 0.38543 0.13116 0.71599 0.0
C1016 C 0.35417 0.14145 0.72755 0.0
C1017 C 0.35 0.17447 0.73788 0.0
C1018 C 0.37688 0.19749 0.73669 0.0
C1019 C 0.40796 0.18758 0.72509 0.0
C1020 C 0.41225 0.15462 0.71469 0.0
C1021 C 0.29727 0.99009 0.66015 0.0
C1022 C 0.27628 0.0105 0.64317 0.0
C1023 C 0.32892 0.00177 0.669 0.0
C1024 C 0.34077 0.03384 0.66042 0.0
C1025 C 0.32052 0.05327 0.64178 0.0
C1026 C 0.28815 0.04216 0.63401 0.0
C1027 C 0.37055 0.04933 0.67517 0.0
C1028 C 0.36696 0.08238 0.68606 0.0
C1029 C 0.4001 0.03054 0.68226 0.0
C1030 C 0.40764 0.99712 0.66906 0.0
C1031 C 0.40686 0.99317 0.63919 0.0
C1032 C 0.41402 0.96167 0.62684 0.0
C1033 C 0.42185 0.93388 0.64413 0.0
C1034 C 0.42275 0.93756 0.67381 0.0
C1035 C 0.4158 0.96902 0.68627 0.0
H1036 H 0.4273 0.90952 0.63451 0.0
H1037 H 0.37361 0.22301 0.74475 0.0
H1038 H 0.93609 0.76912 0.1437 0.0
H1039 H 0.91983 0.82473 0.16276 0.0
H1040 H 0.02211 0.84028 0.19242 0.0
H1041 H 0.03833 0.78492 0.17323 0.0
H1042 H 0.97607 0.83428 0.2353 0.0
H1043 H 0.99032 0.90521 0.15328 0.0
H1044 H 0.98507 0.92751 0.10419 0.0
H1045 H 0.87664 0.92327 0.11054 0.0
H1046 H 0.88124 0.90171 0.15991 0.0
H1047 H 0.89437 0.00454 0.28663 0.0
H1048 H 0.92779 0.97317 0.25103 0.0
H1049 H 0.87887 0.8802 0.27664 0.0
H1050 H 0.8461 0.91094 0.31226 0.0
H1051 H 0.90886 0.93415 0.20481 0.0
H1052 H 0.93389 0.81642 0.27532 0.0
H1053 H 0.94097 0.80226 0.32629 0.0
H1054 H 0.97669 0.90315 0.34319 0.0
H1055 H 0.97031 0.91777 0.29222 0.0
C1056 C 0.95542 0.78528 0.1529 0.0
C1057 C 0.98853 0.77312 0.15672 0.0
C1058 C 0.94616 0.81706 0.16378 0.0
C1059 C 0.96978 0.83665 0.17904 0.0
C1060 C 0.00356 0.8257 0.18056 0.0
C1061 C 0.01278 0.79407 0.1697 0.0
C1062 C 0.95765 0.86292 0.19927 0.0
C1063 C 0.96175 0.85636 0.22856 0.0
C1064 C 0.9391 0.89176 0.19058 0.0
C1065 C 0.93614 0.90164 0.16017 0.0
C1066 C 0.96537 0.90868 0.14408 0.0
C1067 C 0.96251 0.92154 0.11633 0.0
C1068 C 0.93055 0.92687 0.10429 0.0
C1069 C 0.90137 0.91924 0.11993 0.0
C1070 C 0.90409 0.90689 0.14784 0.0
C1071 C 0.89093 0.97739 0.28471 0.0
C1072 C 0.86788 0.96016 0.30244 0.0
C1073 C 0.90989 0.95957 0.26431 0.0
C1074 C 0.90611 0.92432 0.26148 0.0
C1075 C 0.88265 0.90729 0.27882 0.0
C1076 C 0.8639 0.92495 0.29919 0.0
C1077 C 0.92661 0.90484 0.24063 0.0
C1078 C 0.92377 0.91242 0.21141 0.0
C1079 C 0.94662 0.87695 0.24934 0.0
C1080 C 0.95143 0.86823 0.27995 0.0
C1081 C 0.94349 0.83552 0.28986 0.0
C1082 C 0.94733 0.82742 0.31876 0.0
C1083 C 0.95919 0.8518 0.33797 0.0
C1084 C 0.96741 0.8843 0.3283 0.0
C1085 C 0.96367 0.89252 0.2994 0.0
H1086 H 0.962 0.84542 0.36033 0.0
H1087 H 0.92841 0.93673 0.08278 0.0
loop_
_geom_bond_atom_site_label_1
_geom_bond_atom_site_label_2
_geom_bond_distance
_geom_bond_site_symmetry_2
_ccdc_geom_bond_type
Mn0 O5 2.095 . S
Mn0 O15 2.162 . S
Mn0 O16 2.297 1_455 S
Mn0 O24 2.385 . S
Mn0 O25 2.209 . S
Mn0 O26 2.094 . S
Mn1 O6 2.121 . S
Mn1 N8 2.257 . S
Mn1 N17 2.282 . S
Mn1 O25 2.215 . S
Mn1 O27 2.117 . S
C2 O24 1.234 1_655 S
C2 O25 1.283 1_655 S
C3 O15 1.281 1_655 S
C3 O16 1.236 . S
C4 O26 1.240 . S
C4 O27 1.264 . S
O5 Mn0 2.095 . S
O5 C14 1.250 . S
O6 Mn1 2.121 . S
O6 C14 1.258 . S
C7 N8 1.326 1_655 S
C7 C11 1.460 . S
C7 H13 0.929 . S
N8 Mn1 2.257 . S
N8 C7 1.326 1_455 S
N8 C12 1.362 . S
C9 C10 1.258 . S
C9 C12 1.431 1_655 S
C9 C29 1.449 . S
C10 C9 1.258 . S
C10 C11 1.477 . S
C10 H30 0.931 . S
C11 C7 1.460 . S
C11 C10 1.477 . S
C11 H31 0.930 . S
C12 N8 1.362 . S
C12 C9 1.431 1_455 S
C12 C22 1.476 . S
H13 C7 0.929 . S
C14 O5 1.250 . S
C14 O6 1.258 . S
O15 Mn0 2.162 . S
O15 C3 1.281 1_455 S
O16 Mn0 2.297 1_655 S
O16 C3 1.236 . S
N17 Mn1 2.282 . S
N17 C18 1.328 . S
N17 C22 1.318 . S
C18 N17 1.328 . S
C18 C19 1.457 . S
C18 H23 0.929 . S
C19 C18 1.457 . S
C19 C20 1.291 . S
C19 H32 0.931 . S
C20 C19 1.291 . S
C20 C21 1.373 . S
C20 H33 0.929 . S
C21 C20 1.373 . S
C21 C22 1.396 . S
C21 C28 1.403 . S
C22 C12 1.476 . S
C22 N17 1.318 . S
C22 C21 1.396 . S
H23 C18 0.929 . S
O24 Mn0 2.385 . S
O24 C2 1.234 1_455 S
O25 Mn0 2.209 . S
O25 Mn1 2.215 . S
O25 C2 1.283 1_455 S
O26 Mn0 2.094 . S
O26 C4 1.240 . S
O27 Mn1 2.117 . S
O27 C4 1.264 . S
C28 C21 1.403 . S
C28 C29 1.399 1_455 S
C28 H34 0.929 . S
C29 C9 1.449 . S
C29 C28 1.399 1_655 S
C29 H35 0.930 . S
H30 C10 0.931 . S
H31 C11 0.930 . S
H32 C19 0.931 . S
H33 C20 0.929 . S
H34 C28 0.929 . S
H35 C29 0.930 . S
Mn36 O41 2.095 . S
Mn36 O51 2.162 . S
Mn36 O52 2.297 . S
Mn36 O60 2.385 . S
Mn36 O61 2.209 . S
Mn36 O62 2.094 . S
Mn37 O42 2.121 . S
Mn37 N44 2.257 . S
Mn37 N53 2.282 . S
Mn37 O61 2.215 . S
Mn37 O63 2.117 . S
C38 O60 1.234 . S
C38 O61 1.283 . S
C39 O51 1.281 . S
C39 O52 1.236 . S
C40 O62 1.240 . S
C40 O63 1.264 . S
O41 Mn36 2.095 . S
O41 C50 1.250 . S
O42 Mn37 2.121 . S
O42 C50 1.258 . S
C43 N44 1.326 . S
C43 C47 1.460 . S
C43 H49 0.929 . S
N44 Mn37 2.257 . S
N44 C43 1.326 . S
N44 C48 1.362 . S
C45 C46 1.258 . S
C45 C48 1.431 . S
C45 C65 1.449 . S
C46 C45 1.258 . S
C46 C47 1.477 . S
C46 H66 0.931 . S
C47 C43 1.460 . S
C47 C46 1.477 . S
C47 H67 0.930 . S
C48 N44 1.362 . S
C48 C45 1.431 . S
C48 C58 1.476 . S
H49 C43 0.929 . S
C50 O41 1.250 . S
C50 O42 1.258 . S
O51 Mn36 2.162 . S
O51 C39 1.281 . S
O52 Mn36 2.297 . S
O52 C39 1.236 . S
N53 Mn37 2.282 . S
N53 C54 1.328 . S
N53 C58 1.318 . S
C54 N53 1.328 . S
C54 C55 1.457 . S
C54 H59 0.929 . S
C55 C54 1.457 . S
C55 C56 1.291 . S
C55 H68 0.931 . S
C56 C55 1.291 . S
C56 C57 1.373 . S
C56 H69 0.929 . S
C57 C56 1.373 . S
C57 C58 1.396 . S
C57 C64 1.403 . S
C58 C48 1.476 . S
C58 N53 1.318 . S
C58 C57 1.396 . S
H59 C54 0.929 . S
O60 Mn36 2.385 . S
O60 C38 1.234 . S
O61 Mn36 2.209 . S
O61 Mn37 2.215 . S
O61 C38 1.283 . S
O62 Mn36 2.094 . S
O62 C40 1.240 . S
O63 Mn37 2.117 . S
O63 C40 1.264 . S
C64 C57 1.403 . S
C64 C65 1.399 . S
C64 H70 0.929 . S
C65 C45 1.449 . S
C65 C64 1.399 . S
C65 H71 0.930 . S
H66 C46 0.931 . S
H67 C47 0.930 . S
H68 C55 0.931 . S
H69 C56 0.929 . S
H70 C64 0.929 . S
H71 C65 0.930 . S
Mn72 O77 2.095 . S
Mn72 O87 2.162 . S
Mn72 O88 2.297 . S
Mn72 O96 2.385 . S
Mn72 O97 2.209 . S
Mn72 O98 2.094 . S
Mn73 O78 2.121 . S
Mn73 N80 2.257 . S
Mn73 N89 2.282 . S
Mn73 O97 2.215 . S
Mn73 O99 2.117 . S
C74 O96 1.234 . S
C74 O97 1.283 . S
C75 O87 1.281 . S
C75 O88 1.236 . S
C76 O98 1.240 . S
C76 O99 1.264 . S
O77 Mn72 2.095 . S
O77 C86 1.250 . S
O78 Mn73 2.121 . S
O78 C86 1.258 . S
C79 N80 1.326 . S
C79 C83 1.460 . S
C79 H85 0.929 . S
N80 Mn73 2.257 . S
N80 C79 1.326 . S
N80 C84 1.362 . S
C81 C82 1.258 . S
C81 C84 1.431 . S
C81 C101 1.449 . S
C82 C81 1.258 . S
C82 C83 1.477 . S
C82 H102 0.931 . S
C83 C79 1.460 . S
C83 C82 1.477 . S
C83 H103 0.930 . S
C84 N80 1.362 . S
C84 C81 1.431 . S
C84 C94 1.476 . S
H85 C79 0.929 . S
C86 O77 1.250 . S
C86 O78 1.258 . S
O87 Mn72 2.162 . S
O87 C75 1.281 . S
O88 Mn72 2.297 . S
O88 C75 1.236 . S
N89 Mn73 2.282 . S
N89 C90 1.328 . S
N89 C94 1.318 . S
C90 N89 1.328 . S
C90 C91 1.457 . S
C90 H95 0.929 . S
C91 C90 1.457 . S
C91 C92 1.291 . S
C91 H104 0.931 . S
C92 C91 1.291 . S
C92 C93 1.373 . S
C92 H105 0.929 . S
C93 C92 1.373 . S
C93 C94 1.396 . S
C93 C100 1.403 . S
C94 C84 1.476 . S
C94 N89 1.318 . S
C94 C93 1.396 . S
H95 C90 0.929 . S
O96 Mn72 2.385 . S
O96 C74 1.234 . S
O97 Mn72 2.209 . S
O97 Mn73 2.215 . S
O97 C74 1.283 . S
O98 Mn72 2.094 . S
O98 C76 1.240 . S
O99 Mn73 2.117 . S
O99 C76 1.264 . S
C100 C93 1.403 . S
C100 C101 1.399 . S
C100 H106 0.929 . S
C101 C81 1.449 . S
C101 C100 1.399 . S
C101 H107 0.930 . S
H102 C82 0.931 . S
H103 C83 0.930 . S
H104 C91 0.931 . S
H105 C92 0.929 . S
H106 C100 0.929 . S
H107 C101 0.930 . S
Mn108 O113 2.095 . S
Mn108 O123 2.162 . S
Mn108 O124 2.297 1_565 S
Mn108 O132 2.385 . S
Mn108 O133 2.209 . S
Mn108 O134 2.094 . S
Mn109 O114 2.121 . S
Mn109 N116 2.257 . S
Mn109 N125 2.282 . S
Mn109 O133 2.215 . S
Mn109 O135 2.117 . S
C110 O132 1.234 1_545 S
C110 O133 1.283 1_545 S
C111 O123 1.281 1_545 S
C111 O124 1.236 . S
C112 O134 1.240 . S
C112 O135 1.264 . S
O113 Mn108 2.095 . S
O113 C122 1.250 . S
O114 Mn109 2.121 . S
O114 C122 1.258 . S
C115 N116 1.326 1_545 S
C115 C119 1.460 . S
C115 H121 0.929 . S
N116 Mn109 2.257 . S
N116 C115 1.326 1_565 S
N116 C120 1.362 . S
C117 C118 1.258 . S
C117 C120 1.431 1_545 S
C117 C137 1.449 . S
C118 C117 1.258 . S
C118 C119 1.477 . S
C118 H138 0.931 . S
C119 C115 1.460 . S
C119 C118 1.477 . S
C119 H139 0.930 . S
C120 N116 1.362 . S
C120 C117 1.431 1_565 S
C120 C130 1.476 . S
H121 C115 0.929 . S
C122 O113 1.250 . S
C122 O114 1.258 . S
O123 Mn108 2.162 . S
O123 C111 1.281 1_565 S
O124 Mn108 2.297 1_545 S
O124 C111 1.236 . S
N125 Mn109 2.282 . S
N125 C126 1.328 . S
N125 C130 1.318 . S
C126 N125 1.328 . S
C126 C127 1.457 . S
C126 H131 0.929 . S
C127 C126 1.457 . S
C127 C128 1.291 . S
C127 H140 0.931 . S
C128 C127 1.291 . S
C128 C129 1.373 . S
C128 H141 0.929 . S
C129 C128 1.373 . S
C129 C130 1.396 . S
C129 C136 1.403 . S
C130 C120 1.476 . S
C130 N125 1.318 . S
C130 C129 1.396 . S
H131 C126 0.929 . S
O132 Mn108 2.385 . S
O132 C110 1.234 1_565 S
O133 Mn108 2.209 . S
O133 Mn109 2.215 . S
O133 C110 1.283 1_565 S
O134 Mn108 2.094 . S
O134 C112 1.240 . S
O135 Mn109 2.117 . S
O135 C112 1.264 . S
C136 C129 1.403 . S
C136 C137 1.399 1_565 S
C136 H142 0.929 . S
C137 C117 1.449 . S
C137 C136 1.399 1_545 S
C137 H143 0.930 . S
H138 C118 0.931 . S
H139 C119 0.930 . S
H140 C127 0.931 . S
H141 C128 0.929 . S
H142 C136 0.929 . S
H143 C137 0.930 . S
Mn144 O149 2.095 . S
Mn144 O159 2.162 . S
Mn144 O160 2.297 1_655 S
Mn144 O168 2.385 . S
Mn144 O169 2.209 . S
Mn144 O170 2.094 . S
Mn145 O150 2.121 . S
Mn145 N152 2.257 . S
Mn145 N161 2.282 . S
Mn145 O169 2.215 . S
Mn145 O171 2.117 . S
C146 O168 1.234 1_455 S
C146 O169 1.283 1_455 S
C147 O159 1.281 1_455 S
C147 O160 1.236 . S
C148 O170 1.240 . S
C148 O171 1.264 . S
O149 Mn144 2.095 . S
O149 C158 1.250 . S
O150 Mn145 2.121 . S
O150 C158 1.258 . S
C151 N152 1.326 1_455 S
C151 C155 1.460 . S
C151 H157 0.929 . S
N152 Mn145 2.257 . S
N152 C151 1.326 1_655 S
N152 C156 1.362 . S
C153 C154 1.258 . S
C153 C156 1.431 1_455 S
C153 C173 1.449 . S
C154 C153 1.258 . S
C154 C155 1.477 . S
C154 H174 0.931 . S
C155 C151 1.460 . S
C155 C154 1.477 . S
C155 H175 0.930 . S
C156 N152 1.362 . S
C156 C153 1.431 1_655 S
C156 C166 1.476 . S
H157 C151 0.929 . S
C158 O149 1.250 . S
C158 O150 1.258 . S
O159 Mn144 2.162 . S
O159 C147 1.281 1_655 S
O160 Mn144 2.297 1_455 S
O160 C147 1.236 . S
N161 Mn145 2.282 . S
N161 C162 1.328 . S
N161 C166 1.318 . S
C162 N161 1.328 . S
C162 C163 1.457 . S
C162 H167 0.929 . S
C163 C162 1.457 . S
C163 C164 1.291 . S
C163 H176 0.931 . S
C164 C163 1.291 . S
C164 C165 1.373 . S
C164 H177 0.929 . S
C165 C164 1.373 . S
C165 C166 1.396 . S
C165 C172 1.403 . S
C166 C156 1.476 . S
C166 N161 1.318 . S
C166 C165 1.396 . S
H167 C162 0.929 . S
O168 Mn144 2.385 . S
O168 C146 1.234 1_655 S
O169 Mn144 2.209 . S
O169 Mn145 2.215 . S
O169 C146 1.283 1_655 S
O170 Mn144 2.094 . S
O170 C148 1.240 . S
O171 Mn145 2.117 . S
O171 C148 1.264 . S
C172 C165 1.403 . S
C172 C173 1.399 1_655 S
C172 H178 0.929 . S
C173 C153 1.449 . S
C173 C172 1.399 1_455 S
C173 H179 0.930 . S
H174 C154 0.931 . S
H175 C155 0.930 . S
H176 C163 0.931 . S
H177 C164 0.929 . S
H178 C172 0.929 . S
H179 C173 0.930 . S
Mn180 O185 2.095 . S
Mn180 O195 2.162 . S
Mn180 O196 2.297 . S
Mn180 O204 2.385 . S
Mn180 O205 2.209 . S
Mn180 O206 2.094 . S
Mn181 O186 2.121 . S
Mn181 N188 2.257 . S
Mn181 N197 2.282 . S
Mn181 O205 2.215 . S
Mn181 O207 2.117 . S
C182 O204 1.234 . S
C182 O205 1.283 . S
C183 O195 1.281 . S
C183 O196 1.236 . S
C184 O206 1.240 . S
C184 O207 1.264 . S
O185 Mn180 2.095 . S
O185 C194 1.250 . S
O186 Mn181 2.121 . S
O186 C194 1.258 . S
C187 N188 1.326 . S
C187 C191 1.460 . S
C187 H193 0.929 . S
N188 Mn181 2.257 . S
N188 C187 1.326 . S
N188 C192 1.362 . S
C189 C190 1.258 . S
C189 C192 1.431 . S
C189 C209 1.449 . S
C190 C189 1.258 . S
C190 C191 1.477 . S
C190 H210 0.931 . S
C191 C187 1.460 . S
C191 C190 1.477 . S
C191 H211 0.930 . S
C192 N188 1.362 . S
C192 C189 1.431 . S
C192 C202 1.476 . S
H193 C187 0.929 . S
C194 O185 1.250 . S
C194 O186 1.258 . S
O195 Mn180 2.162 . S
O195 C183 1.281 . S
O196 Mn180 2.297 . S
O196 C183 1.236 . S
N197 Mn181 2.282 . S
N197 C198 1.328 . S
N197 C202 1.318 . S
C198 N197 1.328 . S
C198 C199 1.457 . S
C198 H203 0.929 . S
C199 C198 1.457 . S
C199 C200 1.291 . S
C199 H212 0.931 . S
C200 C199 1.291 . S
C200 C201 1.373 . S
C200 H213 0.929 . S
C201 C200 1.373 . S
C201 C202 1.396 . S
C201 C208 1.403 . S
C202 C192 1.476 . S
C202 N197 1.318 . S
C202 C201 1.396 . S
H203 C198 0.929 . S
O204 Mn180 2.385 . S
O204 C182 1.234 . S
O205 Mn180 2.209 . S
O205 Mn181 2.215 . S
O205 C182 1.283 . S
O206 Mn180 2.094 . S
O206 C184 1.240 . S
O207 Mn181 2.117 . S
O207 C184 1.264 . S
C208 C201 1.403 . S
C208 C209 1.399 . S
C208 H214 0.929 . S
C209 C189 1.449 . S
C209 C208 1.399 . S
C209 H215 0.930 . S
H210 C190 0.931 . S
H211 C191 0.930 . S
H212 C199 0.931 . S
H213 C200 0.929 . S
H214 C208 0.929 . S
H215 C209 0.930 . S
Mn216 O221 2.095 . S
Mn216 O231 2.162 . S
Mn216 O232 2.297 . S
Mn216 O240 2.385 . S
Mn216 O241 2.209 . S
Mn216 O242 2.094 . S
Mn217 O222 2.121 . S
Mn217 N224 2.257 . S
Mn217 N233 2.282 . S
Mn217 O241 2.215 . S
Mn217 O243 2.117 . S
C218 O240 1.234 . S
C218 O241 1.283 . S
C219 O231 1.281 . S
C219 O232 1.236 . S
C220 O242 1.240 . S
C220 O243 1.264 . S
O221 Mn216 2.095 . S
O221 C230 1.250 . S
O222 Mn217 2.121 . S
O222 C230 1.258 . S
C223 N224 1.326 . S
C223 C227 1.460 . S
C223 H229 0.929 . S
N224 Mn217 2.257 . S
N224 C223 1.326 . S
N224 C228 1.362 . S
C225 C226 1.258 . S
C225 C228 1.431 . S
C225 C245 1.449 . S
C226 C225 1.258 . S
C226 C227 1.477 . S
C226 H246 0.931 . S
C227 C223 1.460 . S
C227 C226 1.477 . S
C227 H247 0.930 . S
C228 N224 1.362 . S
C228 C225 1.431 . S
C228 C238 1.476 . S
H229 C223 0.929 . S
C230 O221 1.250 . S
C230 O222 1.258 . S
O231 Mn216 2.162 . S
O231 C219 1.281 . S
O232 Mn216 2.297 . S
O232 C219 1.236 . S
N233 Mn217 2.282 . S
N233 C234 1.328 . S
N233 C238 1.318 . S
C234 N233 1.328 . S
C234 C235 1.457 . S
C234 H239 0.929 . S
C235 C234 1.457 . S
C235 C236 1.291 . S
C235 H248 0.931 . S
C236 C235 1.291 . S
C236 C237 1.373 . S
C236 H249 0.929 . S
C237 C236 1.373 . S
C237 C238 1.396 . S
C237 C244 1.403 . S
C238 C228 1.476 . S
C238 N233 1.318 . S
C238 C237 1.396 . S
H239 C234 0.929 . S
O240 Mn216 2.385 . S
O240 C218 1.234 . S
O241 Mn216 2.209 . S
O241 Mn217 2.215 . S
O241 C218 1.283 . S
O242 Mn216 2.094 . S
O242 C220 1.240 . S
O243 Mn217 2.117 . S
O243 C220 1.264 . S
C244 C237 1.403 . S
C244 C245 1.399 . S
C244 H250 0.929 . S
C245 C225 1.449 . S
C245 C244 1.399 . S
C245 H251 0.930 . S
H246 C226 0.931 . S
H247 C227 0.930 . S
H248 C235 0.931 . S
H249 C236 0.929 . S
H250 C244 0.929 . S
H251 C245 0.930 . S
Mn252 O257 2.095 . S
Mn252 O267 2.162 . S
Mn252 O268 2.297 1_545 S
Mn252 O276 2.385 . S
Mn252 O277 2.209 . S
Mn252 O278 2.094 . S
Mn253 O258 2.121 . S
Mn253 N260 2.257 . S
Mn253 N269 2.282 . S
Mn253 O277 2.215 . S
Mn253 O279 2.117 . S
C254 O276 1.234 1_565 S
C254 O277 1.283 1_565 S
C255 O267 1.281 1_565 S
C255 O268 1.236 . S
C256 O278 1.240 . S
C256 O279 1.264 . S
O257 Mn252 2.095 . S
O257 C266 1.250 . S
O258 Mn253 2.121 . S
O258 C266 1.258 . S
C259 N260 1.326 1_565 S
C259 C263 1.460 . S
C259 H265 0.929 . S
N260 Mn253 2.257 . S
N260 C259 1.326 1_545 S
N260 C264 1.362 . S
C261 C262 1.258 . S
C261 C264 1.431 1_565 S
C261 C281 1.449 . S
C262 C261 1.258 . S
C262 C263 1.477 . S
C262 H282 0.931 . S
C263 C259 1.460 . S
C263 C262 1.477 . S
C263 H283 0.930 . S
C264 N260 1.362 . S
C264 C261 1.431 1_545 S
C264 C274 1.476 . S
H265 C259 0.929 . S
C266 O257 1.250 . S
C266 O258 1.258 . S
O267 Mn252 2.162 . S
O267 C255 1.281 1_545 S
O268 Mn252 2.297 1_565 S
O268 C255 1.236 . S
N269 Mn253 2.282 . S
N269 C270 1.328 . S
N269 C274 1.318 . S
C270 N269 1.328 . S
C270 C271 1.457 . S
C270 H275 0.929 . S
C271 C270 1.457 . S
C271 C272 1.291 . S
C271 H284 0.931 . S
C272 C271 1.291 . S
C272 C273 1.373 . S
C272 H285 0.929 . S
C273 C272 1.373 . S
C273 C274 1.396 . S
C273 C280 1.403 . S
C274 C264 1.476 . S
C274 N269 1.318 . S
C274 C273 1.396 . S
H275 C270 0.929 . S
O276 Mn252 2.385 . S
O276 C254 1.234 1_545 S
O277 Mn252 2.209 . S
O277 Mn253 2.215 . S
O277 C254 1.283 1_545 S
O278 Mn252 2.094 . S
O278 C256 1.240 . S
O279 Mn253 2.117 . S
O279 C256 1.264 . S
C280 C273 1.403 . S
C280 C281 1.399 1_545 S
C280 H286 0.929 . S
C281 C261 1.449 . S
C281 C280 1.399 1_565 S
C281 H287 0.930 . S
H282 C262 0.931 . S
H283 C263 0.930 . S
H284 C271 0.931 . S
H285 C272 0.929 . S
H286 C280 0.929 . S
H287 C281 0.930 . S
H288 C306 0.951 . S
H289 C308 0.951 . S
H290 C310 0.949 1_455 S
H291 C311 0.950 . S
H292 C313 0.950 . S
H293 C316 0.950 . S
H294 C317 0.950 . S
H295 C319 0.950 . S
H296 C320 0.950 . S
H297 C321 0.951 . S
H298 C323 0.951 . S
H299 C325 0.949 1_655 S
H300 C326 0.950 . S
H301 C328 0.950 . S
H302 C331 0.950 . S
H303 C332 0.950 . S
H304 C334 0.950 . S
H305 C335 0.950 . S
C306 H288 0.951 . S
C306 C307 1.366 . S
C306 C308 1.388 . S
C307 C306 1.366 . S
C307 C311 1.385 . S
C308 H289 0.951 . S
C308 C306 1.388 . S
C308 C309 1.366 . S
C309 C308 1.366 . S
C309 C310 1.414 . S
C309 C312 1.499 . S
C310 H290 0.949 1_655 S
C310 C309 1.414 . S
C310 C311 1.374 . S
C311 H291 0.950 . S
C311 C307 1.385 . S
C311 C310 1.374 . S
C312 C309 1.499 . S
C312 C313 1.373 1_556 S
C312 C314 1.389 1_655 S
C313 H292 0.950 . S
C313 C312 1.373 1_554 S
C313 C329 1.377 . S
C314 C312 1.389 1_455 S
C314 C315 1.524 . S
C314 C328 1.377 . S
C315 C314 1.524 . S
C315 C316 1.397 . S
C315 C320 1.363 . S
C316 H293 0.950 . S
C316 C315 1.397 . S
C316 C317 1.334 . S
C317 H294 0.950 . S
C317 C316 1.334 . S
C317 C318 1.287 . S
C318 C317 1.287 . S
C318 C319 1.524 . S
C318 H337 0.913 . S
C319 H295 0.950 . S
C319 C318 1.524 . S
C319 C320 1.415 . S
C320 H296 0.950 . S
C320 C315 1.363 . S
C320 C319 1.415 . S
C321 H297 0.951 . S
C321 C322 1.366 . S
C321 C323 1.388 . S
C322 C321 1.366 . S
C322 C326 1.385 . S
C323 H298 0.951 . S
C323 C321 1.388 . S
C323 C324 1.366 . S
C324 C323 1.366 . S
C324 C325 1.414 . S
C324 C327 1.499 . S
C325 H299 0.949 1_455 S
C325 C324 1.414 . S
C325 C326 1.374 . S
C326 H300 0.950 . S
C326 C322 1.385 . S
C326 C325 1.374 . S
C327 C324 1.499 . S
C327 C328 1.373 1_554 S
C327 C329 1.389 1_455 S
C328 H301 0.950 . S
C328 C314 1.377 . S
C328 C327 1.373 1_556 S
C329 C313 1.377 . S
C329 C327 1.389 1_655 S
C329 C330 1.524 . S
C330 C329 1.524 . S
C330 C331 1.397 . S
C330 C335 1.363 . S
C331 H302 0.950 . S
C331 C330 1.397 . S
C331 C332 1.334 . S
C332 H303 0.950 . S
C332 C331 1.334 . S
C332 C333 1.287 . S
C333 C332 1.287 . S
C333 C334 1.524 . S
C333 H336 0.999 . S
C334 H304 0.950 . S
C334 C333 1.524 . S
C334 C335 1.415 . S
C335 H305 0.950 . S
C335 C330 1.363 . S
C335 C334 1.415 . S
H336 C333 0.999 . S
H337 C318 0.913 . S
H338 C356 0.951 . S
H339 C358 0.951 . S
H340 C360 0.950 . S
H341 C361 0.950 . S
H342 C363 0.950 . S
H343 C366 0.950 . S
H344 C367 0.950 . S
H345 C369 0.950 . S
H346 C370 0.950 . S
H347 C371 0.951 . S
H348 C373 0.951 . S
H349 C375 0.950 . S
H350 C376 0.950 . S
H351 C378 0.950 . S
H352 C381 0.950 . S
H353 C382 0.950 . S
H354 C384 0.950 . S
H355 C385 0.950 . S
C356 H338 0.951 . S
C356 C357 1.366 . S
C356 C358 1.388 . S
C357 C356 1.366 . S
C357 C361 1.385 . S
C358 H339 0.951 . S
C358 C356 1.388 . S
C358 C359 1.366 . S
C359 C358 1.366 . S
C359 C360 1.414 . S
C359 C362 1.499 . S
C360 H340 0.950 . S
C360 C359 1.414 . S
C360 C361 1.374 . S
C361 H341 0.950 . S
C361 C357 1.385 . S
C361 C360 1.374 . S
C362 C359 1.499 . S
C362 C363 1.373 . S
C362 C364 1.389 . S
C363 H342 0.950 . S
C363 C362 1.373 . S
C363 C379 1.377 . S
C364 C362 1.389 . S
C364 C365 1.524 . S
C364 C378 1.377 . S
C365 C364 1.524 . S
C365 C366 1.397 . S
C365 C370 1.363 . S
C366 H343 0.950 . S
C366 C365 1.397 . S
C366 C367 1.334 . S
C367 H344 0.950 . S
C367 C366 1.334 . S
C367 C368 1.287 . S
C368 C367 1.287 . S
C368 C369 1.524 . S
C368 H387 0.913 . S
C369 H345 0.950 . S
C369 C368 1.524 . S
C369 C370 1.415 . S
C370 H346 0.950 . S
C370 C365 1.363 . S
C370 C369 1.415 . S
C371 H347 0.951 . S
C371 C372 1.366 . S
C371 C373 1.388 . S
C372 C371 1.366 . S
C372 C376 1.385 . S
C373 H348 0.951 . S
C373 C371 1.388 . S
C373 C374 1.366 . S
C374 C373 1.366 . S
C374 C375 1.414 . S
C374 C377 1.499 . S
C375 H349 0.950 . S
C375 C374 1.414 . S
C375 C376 1.374 . S
C376 H350 0.950 . S
C376 C372 1.385 . S
C376 C375 1.374 . S
C377 C374 1.499 . S
C377 C378 1.373 . S
C377 C379 1.389 . S
C378 H351 0.950 . S
C378 C364 1.377 . S
C378 C377 1.373 . S
C379 C363 1.377 . S
C379 C377 1.389 . S
C379 C380 1.524 . S
C380 C379 1.524 . S
C380 C381 1.397 . S
C380 C385 1.363 . S
C381 H352 0.950 . S
C381 C380 1.397 . S
C381 C382 1.334 . S
C382 H353 0.950 . S
C382 C381 1.334 . S
C382 C383 1.287 . S
C383 C382 1.287 . S
C383 C384 1.524 . S
C383 H386 0.999 . S
C384 H354 0.950 . S
C384 C383 1.524 . S
C384 C385 1.415 . S
C385 H355 0.950 . S
C385 C380 1.363 . S
C385 C384 1.415 . S
H386 C383 0.999 . S
H387 C368 0.913 . S
H388 C406 0.951 . S
H389 C408 0.951 . S
H390 C410 0.950 . S
H391 C411 0.950 . S
H392 C413 0.950 . S
H393 C416 0.950 1_565 S
H394 C417 0.950 . S
H395 C419 0.950 . S
H396 C420 0.950 . S
H397 C421 0.951 . S
H398 C423 0.951 . S
H399 C425 0.950 . S
H400 C426 0.950 . S
H401 C428 0.950 . S
H402 C431 0.950 1_545 S
H403 C432 0.950 . S
H404 C434 0.950 . S
H405 C435 0.950 . S
C406 H388 0.951 . S
C406 C407 1.366 . S
C406 C408 1.388 . S
C407 C406 1.366 . S
C407 C411 1.385 . S
C408 H389 0.951 . S
C408 C406 1.388 . S
C408 C409 1.366 . S
C409 C408 1.366 . S
C409 C410 1.414 . S
C409 C412 1.499 . S
C410 H390 0.950 . S
C410 C409 1.414 . S
C410 C411 1.374 . S
C411 H391 0.950 . S
C411 C407 1.385 . S
C411 C410 1.374 . S
C412 C409 1.499 . S
C412 C413 1.373 1_554 S
C412 C414 1.389 1_565 S
C413 H392 0.950 . S
C413 C412 1.373 1_556 S
C413 C429 1.377 . S
C414 C412 1.389 1_545 S
C414 C415 1.524 . S
C414 C428 1.377 . S
C415 C414 1.524 . S
C415 C416 1.397 . S
C415 C420 1.363 . S
C416 H393 0.950 1_545 S
C416 C415 1.397 . S
C416 C417 1.334 . S
C417 H394 0.950 . S
C417 C416 1.334 . S
C417 C418 1.287 . S
C418 C417 1.287 . S
C418 C419 1.524 . S
C418 H437 0.913 . S
C419 H395 0.950 . S
C419 C418 1.524 . S
C419 C420 1.415 . S
C420 H396 0.950 . S
C420 C415 1.363 . S
C420 C419 1.415 . S
C421 H397 0.951 . S
C421 C422 1.366 . S
C421 C423 1.388 . S
C422 C421 1.366 . S
C422 C426 1.385 . S
C423 H398 0.951 . S
C423 C421 1.388 . S
C423 C424 1.366 . S
C424 C423 1.366 . S
C424 C425 1.414 . S
C424 C427 1.499 . S
C425 H399 0.950 . S
C425 C424 1.414 . S
C425 C426 1.374 . S
C426 H400 0.950 . S
C426 C422 1.385 . S
C426 C425 1.374 . S
C427 C424 1.499 . S
C427 C428 1.373 1_556 S
C427 C429 1.389 1_545 S
C428 H401 0.950 . S
C428 C414 1.377 . S
C428 C427 1.373 1_554 S
C429 C413 1.377 . S
C429 C427 1.389 1_565 S
C429 C430 1.524 . S
C430 C429 1.524 . S
C430 C431 1.397 . S
C430 C435 1.363 . S
C431 H402 0.950 1_565 S
C431 C430 1.397 . S
C431 C432 1.334 . S
C432 H403 0.950 . S
C432 C431 1.334 . S
C432 C433 1.287 . S
C433 C432 1.287 . S
C433 C434 1.524 . S
C433 H436 0.999 . S
C434 H404 0.950 . S
C434 C433 1.524 . S
C434 C435 1.415 . S
C435 H405 0.950 . S
C435 C430 1.363 . S
C435 C434 1.415 . S
H436 C433 0.999 . S
H437 C418 0.913 . S
H438 C456 0.951 . S
H439 C458 0.951 . S
H440 C460 0.950 . S
H441 C461 0.950 . S
H442 C463 0.950 . S
H443 C466 0.950 1_565 S
H444 C467 0.950 . S
H445 C469 0.950 . S
H446 C470 0.950 . S
H447 C471 0.951 . S
H448 C473 0.951 . S
H449 C475 0.950 . S
H450 C476 0.950 . S
H451 C478 0.950 . S
H452 C481 0.950 1_545 S
H453 C482 0.950 . S
H454 C484 0.950 . S
H455 C485 0.950 . S
C456 H438 0.951 . S
C456 C457 1.366 . S
C456 C458 1.388 . S
C457 C456 1.366 . S
C457 C461 1.385 1_545 S
C458 H439 0.951 . S
C458 C456 1.388 . S
C458 C459 1.366 . S
C459 C458 1.366 . S
C459 C460 1.414 1_545 S
C459 C462 1.499 . S
C460 H440 0.950 . S
C460 C459 1.414 1_565 S
C460 C461 1.374 . S
C461 H441 0.950 . S
C461 C457 1.385 1_565 S
C461 C460 1.374 . S
C462 C459 1.499 . S
C462 C463 1.373 1_545 S
C462 C464 1.389 1_655 S
C463 H442 0.950 . S
C463 C462 1.373 1_565 S
C463 C479 1.377 . S
C464 C462 1.389 1_455 S
C464 C465 1.524 . S
C464 C478 1.377 . S
C465 C464 1.524 . S
C465 C466 1.397 . S
C465 C470 1.363 . S
C466 H443 0.950 1_545 S
C466 C465 1.397 . S
C466 C467 1.334 . S
C467 H444 0.950 . S
C467 C466 1.334 . S
C467 C468 1.287 . S
C468 C467 1.287 . S
C468 C469 1.524 . S
C468 H487 0.913 . S
C469 H445 0.950 . S
C469 C468 1.524 . S
C469 C470 1.415 . S
C470 H446 0.950 . S
C470 C465 1.363 . S
C470 C469 1.415 . S
C471 H447 0.951 . S
C471 C472 1.366 . S
C471 C473 1.388 . S
C472 C471 1.366 . S
C472 C476 1.385 1_565 S
C473 H448 0.951 . S
C473 C471 1.388 . S
C473 C474 1.366 . S
C474 C473 1.366 . S
C474 C475 1.414 1_565 S
C474 C477 1.499 . S
C475 H449 0.950 . S
C475 C474 1.414 1_545 S
C475 C476 1.374 . S
C476 H450 0.950 . S
C476 C472 1.385 1_545 S
C476 C475 1.374 . S
C477 C474 1.499 . S
C477 C478 1.373 1_565 S
C477 C479 1.389 1_455 S
C478 H451 0.950 . S
C478 C464 1.377 . S
C478 C477 1.373 1_545 S
C479 C463 1.377 . S
C479 C477 1.389 1_655 S
C479 C480 1.524 . S
C480 C479 1.524 . S
C480 C481 1.397 . S
C480 C485 1.363 . S
C481 H452 0.950 1_565 S
C481 C480 1.397 . S
C481 C482 1.334 . S
C482 H453 0.950 . S
C482 C481 1.334 . S
C482 C483 1.287 . S
C483 C482 1.287 . S
C483 C484 1.524 . S
C483 H486 0.999 . S
C484 H454 0.950 . S
C484 C483 1.524 . S
C484 C485 1.415 . S
C485 H455 0.950 . S
C485 C480 1.363 . S
C485 C484 1.415 . S
H486 C483 0.999 . S
H487 C468 0.913 . S
H488 C506 0.951 . S
H489 C508 0.951 . S
H490 C510 0.950 . S
H491 C511 0.950 . S
H492 C513 0.950 . S
H493 C516 0.950 . S
H494 C517 0.950 . S
H495 C519 0.950 . S
H496 C520 0.950 . S
H497 C521 0.951 . S
H498 C523 0.951 . S
H499 C525 0.950 . S
H500 C526 0.950 . S
H501 C528 0.950 . S
H502 C531 0.950 . S
H503 C532 0.950 . S
H504 C534 0.950 . S
H505 C535 0.950 . S
C506 H488 0.951 . S
C506 C507 1.366 . S
C506 C508 1.388 . S
C507 C506 1.366 . S
C507 C511 1.385 . S
C508 H489 0.951 . S
C508 C506 1.388 . S
C508 C509 1.366 . S
C509 C508 1.366 . S
C509 C510 1.414 . S
C509 C512 1.499 . S
C510 H490 0.950 . S
C510 C509 1.414 . S
C510 C511 1.374 . S
C511 H491 0.950 . S
C511 C507 1.385 . S
C511 C510 1.374 . S
C512 C509 1.499 . S
C512 C513 1.373 . S
C512 C514 1.389 . S
C513 H492 0.950 . S
C513 C512 1.373 . S
C513 C529 1.377 . S
C514 C512 1.389 . S
C514 C515 1.524 . S
C514 C528 1.377 . S
C515 C514 1.524 . S
C515 C516 1.397 . S
C515 C520 1.363 . S
C516 H493 0.950 . S
C516 C515 1.397 . S
C516 C517 1.334 . S
C517 H494 0.950 . S
C517 C516 1.334 . S
C517 C518 1.287 . S
C518 C517 1.287 . S
C518 C519 1.524 . S
C518 H537 0.913 . S
C519 H495 0.950 . S
C519 C518 1.524 . S
C519 C520 1.415 . S
C520 H496 0.950 . S
C520 C515 1.363 . S
C520 C519 1.415 . S
C521 H497 0.951 . S
C521 C522 1.366 . S
C521 C523 1.388 . S
C522 C521 1.366 . S
C522 C526 1.385 . S
C523 H498 0.951 . S
C523 C521 1.388 . S
C523 C524 1.366 . S
C524 C523 1.366 . S
C524 C525 1.414 . S
C524 C527 1.499 . S
C525 H499 0.950 . S
C525 C524 1.414 . S
C525 C526 1.374 . S
C526 H500 0.950 . S
C526 C522 1.385 . S
C526 C525 1.374 . S
C527 C524 1.499 . S
C527 C528 1.373 . S
C527 C529 1.389 . S
C528 H501 0.950 . S
C528 C514 1.377 . S
C528 C527 1.373 . S
C529 C513 1.377 . S
C529 C527 1.389 . S
C529 C530 1.524 . S
C530 C529 1.524 . S
C530 C531 1.397 . S
C530 C535 1.363 . S
C531 H502 0.950 . S
C531 C530 1.397 . S
C531 C532 1.334 . S
C532 H503 0.950 . S
C532 C531 1.334 . S
C532 C533 1.287 . S
C533 C532 1.287 . S
C533 C534 1.524 . S
C533 H536 0.999 . S
C534 H504 0.950 . S
C534 C533 1.524 . S
C534 C535 1.415 . S
C535 H505 0.950 . S
C535 C530 1.363 . S
C535 C534 1.415 . S
H536 C533 0.999 . S
H537 C518 0.913 . S
H538 C556 0.951 . S
H539 C558 0.951 . S
H540 C560 0.950 . S
H541 C561 0.950 . S
H542 C563 0.950 . S
H543 C566 0.950 . S
H544 C567 0.950 . S
H545 C569 0.950 . S
H546 C570 0.950 . S
H547 C571 0.951 . S
H548 C573 0.951 . S
H549 C575 0.950 . S
H550 C576 0.950 . S
H551 C578 0.950 . S
H552 C581 0.950 . S
H553 C582 0.950 . S
H554 C584 0.950 . S
H555 C585 0.950 . S
C556 H538 0.951 . S
C556 C557 1.366 . S
C556 C558 1.388 . S
C557 C556 1.366 . S
C557 C561 1.385 . S
C558 H539 0.951 . S
C558 C556 1.388 . S
C558 C559 1.366 . S
C559 C558 1.366 . S
C559 C560 1.414 . S
C559 C562 1.499 . S
C560 H540 0.950 . S
C560 C559 1.414 . S
C560 C561 1.374 . S
C561 H541 0.950 . S
C561 C557 1.385 . S
C561 C560 1.374 . S
C562 C559 1.499 . S
C562 C563 1.373 . S
C562 C564 1.389 . S
C563 H542 0.950 . S
C563 C562 1.373 . S
C563 C579 1.377 . S
C564 C562 1.389 . S
C564 C565 1.524 . S
C564 C578 1.377 . S
C565 C564 1.524 . S
C565 C566 1.397 . S
C565 C570 1.363 . S
C566 H543 0.950 . S
C566 C565 1.397 . S
C566 C567 1.334 . S
C567 H544 0.950 . S
C567 C566 1.334 . S
C567 C568 1.287 . S
C568 C567 1.287 . S
C568 C569 1.524 . S
C568 H587 0.913 . S
C569 H545 0.950 . S
C569 C568 1.524 . S
C569 C570 1.415 . S
C570 H546 0.950 . S
C570 C565 1.363 . S
C570 C569 1.415 . S
C571 H547 0.951 . S
C571 C572 1.366 . S
C571 C573 1.388 . S
C572 C571 1.366 . S
C572 C576 1.385 . S
C573 H548 0.951 . S
C573 C571 1.388 . S
C573 C574 1.366 . S
C574 C573 1.366 . S
C574 C575 1.414 . S
C574 C577 1.499 . S
C575 H549 0.950 . S
C575 C574 1.414 . S
C575 C576 1.374 . S
C576 H550 0.950 . S
C576 C572 1.385 . S
C576 C575 1.374 . S
C577 C574 1.499 . S
C577 C578 1.373 . S
C577 C579 1.389 . S
C578 H551 0.950 . S
C578 C564 1.377 . S
C578 C577 1.373 . S
C579 C563 1.377 . S
C579 C577 1.389 . S
C579 C580 1.524 . S
C580 C579 1.524 . S
C580 C581 1.397 . S
C580 C585 1.363 . S
C581 H552 0.950 . S
C581 C580 1.397 . S
C581 C582 1.334 . S
C582 H553 0.950 . S
C582 C581 1.334 . S
C582 C583 1.287 . S
C583 C582 1.287 . S
C583 C584 1.524 . S
C583 H586 0.999 . S
C584 H554 0.950 . S
C584 C583 1.524 . S
C584 C585 1.415 . S
C585 H555 0.950 . S
C585 C580 1.363 . S
C585 C584 1.415 . S
H586 C583 0.999 . S
H587 C568 0.913 . S
H588 C606 0.951 . S
H589 C608 0.951 . S
H590 C610 0.950 . S
H591 C611 0.950 . S
H592 C613 0.950 . S
H593 C616 0.950 . S
H594 C617 0.950 . S
H595 C619 0.950 . S
H596 C620 0.950 . S
H597 C621 0.951 . S
H598 C623 0.951 . S
H599 C625 0.950 . S
H600 C626 0.950 . S
H601 C628 0.950 . S
H602 C631 0.950 . S
H603 C632 0.950 . S
H604 C634 0.950 . S
H605 C635 0.950 . S
C606 H588 0.951 . S
C606 C607 1.366 . S
C606 C608 1.388 . S
C607 C606 1.366 . S
C607 C611 1.385 . S
C608 H589 0.951 . S
C608 C606 1.388 . S
C608 C609 1.366 . S
C609 C608 1.366 . S
C609 C610 1.414 . S
C609 C612 1.499 . S
C610 H590 0.950 . S
C610 C609 1.414 . S
C610 C611 1.374 . S
C611 H591 0.950 . S
C611 C607 1.385 . S
C611 C610 1.374 . S
C612 C609 1.499 . S
C612 C613 1.373 . S
C612 C614 1.389 . S
C613 H592 0.950 . S
C613 C612 1.373 . S
C613 C629 1.377 . S
C614 C612 1.389 . S
C614 C615 1.524 . S
C614 C628 1.377 . S
C615 C614 1.524 . S
C615 C616 1.397 . S
C615 C620 1.363 . S
C616 H593 0.950 . S
C616 C615 1.397 . S
C616 C617 1.334 . S
C617 H594 0.950 . S
C617 C616 1.334 . S
C617 C618 1.287 . S
C618 C617 1.287 . S
C618 C619 1.524 . S
C618 H637 0.913 . S
C619 H595 0.950 . S
C619 C618 1.524 . S
C619 C620 1.415 . S
C620 H596 0.950 . S
C620 C615 1.363 . S
C620 C619 1.415 . S
C621 H597 0.951 . S
C621 C622 1.366 . S
C621 C623 1.388 . S
C622 C621 1.366 . S
C622 C626 1.385 . S
C623 H598 0.951 . S
C623 C621 1.388 . S
C623 C624 1.366 . S
C624 C623 1.366 . S
C624 C625 1.414 . S
C624 C627 1.499 . S
C625 H599 0.950 . S
C625 C624 1.414 . S
C625 C626 1.374 . S
C626 H600 0.950 . S
C626 C622 1.385 . S
C626 C625 1.374 . S
C627 C624 1.499 . S
C627 C628 1.373 . S
C627 C629 1.389 . S
C628 H601 0.950 . S
C628 C614 1.377 . S
C628 C627 1.373 . S
C629 C613 1.377 . S
C629 C627 1.389 . S
C629 C630 1.524 . S
C630 C629 1.524 . S
C630 C631 1.397 . S
C630 C635 1.363 . S
C631 H602 0.950 . S
C631 C630 1.397 . S
C631 C632 1.334 . S
C632 H603 0.950 . S
C632 C631 1.334 . S
C632 C633 1.287 . S
C633 C632 1.287 . S
C633 C634 1.524 . S
C633 H636 0.999 . S
C634 H604 0.950 . S
C634 C633 1.524 . S
C634 C635 1.415 . S
C635 H605 0.950 . S
C635 C630 1.363 . S
C635 C634 1.415 . S
H636 C633 0.999 . S
H637 C618 0.913 . S
H638 C656 0.951 . S
H639 C658 0.951 . S
H640 C660 0.950 . S
H641 C661 0.950 . S
H642 C663 0.950 . S
H643 C666 0.950 . S
H644 C667 0.950 . S
H645 C669 0.950 . S
H646 C670 0.950 . S
H647 C671 0.951 . S
H648 C673 0.951 . S
H649 C675 0.950 . S
H650 C676 0.950 . S
H651 C678 0.950 . S
H652 C681 0.950 . S
H653 C682 0.950 . S
H654 C684 0.950 . S
H655 C685 0.950 . S
C656 H638 0.951 . S
C656 C657 1.366 . S
C656 C658 1.388 . S
C657 C656 1.366 . S
C657 C661 1.385 . S
C658 H639 0.951 . S
C658 C656 1.388 . S
C658 C659 1.366 . S
C659 C658 1.366 . S
C659 C660 1.414 . S
C659 C662 1.499 . S
C660 H640 0.950 . S
C660 C659 1.414 . S
C660 C661 1.374 . S
C661 H641 0.950 . S
C661 C657 1.385 . S
C661 C660 1.374 . S
C662 C659 1.499 . S
C662 C663 1.373 . S
C662 C664 1.389 . S
C663 H642 0.950 . S
C663 C662 1.373 . S
C663 C679 1.377 . S
C664 C662 1.389 . S
C664 C665 1.524 . S
C664 C678 1.377 . S
C665 C664 1.524 . S
C665 C666 1.397 . S
C665 C670 1.363 . S
C666 H643 0.950 . S
C666 C665 1.397 . S
C666 C667 1.334 . S
C667 H644 0.950 . S
C667 C666 1.334 . S
C667 C668 1.287 . S
C668 C667 1.287 . S
C668 C669 1.524 . S
C668 H687 0.913 . S
C669 H645 0.950 . S
C669 C668 1.524 . S
C669 C670 1.415 . S
C670 H646 0.950 . S
C670 C665 1.363 . S
C670 C669 1.415 . S
C671 H647 0.951 . S
C671 C672 1.366 . S
C671 C673 1.388 . S
C672 C671 1.366 . S
C672 C676 1.385 . S
C673 H648 0.951 . S
C673 C671 1.388 . S
C673 C674 1.366 . S
C674 C673 1.366 . S
C674 C675 1.414 . S
C674 C677 1.499 . S
C675 H649 0.950 . S
C675 C674 1.414 . S
C675 C676 1.374 . S
C676 H650 0.950 . S
C676 C672 1.385 . S
C676 C675 1.374 . S
C677 C674 1.499 . S
C677 C678 1.373 . S
C677 C679 1.389 . S
C678 H651 0.950 . S
C678 C664 1.377 . S
C678 C677 1.373 . S
C679 C663 1.377 . S
C679 C677 1.389 . S
C679 C680 1.524 . S
C680 C679 1.524 . S
C680 C681 1.397 . S
C680 C685 1.363 . S
C681 H652 0.950 . S
C681 C680 1.397 . S
C681 C682 1.334 . S
C682 H653 0.950 . S
C682 C681 1.334 . S
C682 C683 1.287 . S
C683 C682 1.287 . S
C683 C684 1.524 . S
C683 H686 0.999 . S
C684 H654 0.950 . S
C684 C683 1.524 . S
C684 C685 1.415 . S
C685 H655 0.950 . S
C685 C680 1.363 . S
C685 C684 1.415 . S
H686 C683 0.999 . S
H687 C668 0.913 . S
H688 C706 0.951 . S
H689 C708 0.951 . S
H690 C710 0.950 . S
H691 C711 0.950 . S
H692 C713 0.950 . S
H693 C716 0.950 . S
H694 C717 0.950 . S
H695 C719 0.950 . S
H696 C720 0.950 . S
H697 C721 0.951 . S
H698 C723 0.951 . S
H699 C725 0.950 . S
H700 C726 0.950 . S
H701 C728 0.950 . S
H702 C731 0.950 . S
H703 C732 0.950 . S
H704 C734 0.950 . S
H705 C735 0.950 . S
C706 H688 0.951 . S
C706 C707 1.366 . S
C706 C708 1.388 . S
C707 C706 1.366 . S
C707 C711 1.385 . S
C708 H689 0.951 . S
C708 C706 1.388 . S
C708 C709 1.366 . S
C709 C708 1.366 . S
C709 C710 1.414 . S
C709 C712 1.499 . S
C710 H690 0.950 . S
C710 C709 1.414 . S
C710 C711 1.374 . S
C711 H691 0.950 . S
C711 C707 1.385 . S
C711 C710 1.374 . S
C712 C709 1.499 . S
C712 C713 1.373 . S
C712 C714 1.389 . S
C713 H692 0.950 . S
C713 C712 1.373 . S
C713 C729 1.377 . S
C714 C712 1.389 . S
C714 C715 1.524 . S
C714 C728 1.377 . S
C715 C714 1.524 . S
C715 C716 1.397 . S
C715 C720 1.363 . S
C716 H693 0.950 . S
C716 C715 1.397 . S
C716 C717 1.334 . S
C717 H694 0.950 . S
C717 C716 1.334 . S
C717 C718 1.287 . S
C718 C717 1.287 . S
C718 C719 1.524 . S
C718 H737 0.913 . S
C719 H695 0.950 . S
C719 C718 1.524 . S
C719 C720 1.415 . S
C720 H696 0.950 . S
C720 C715 1.363 . S
C720 C719 1.415 . S
C721 H697 0.951 . S
C721 C722 1.366 . S
C721 C723 1.388 . S
C722 C721 1.366 . S
C722 C726 1.385 . S
C723 H698 0.951 . S
C723 C721 1.388 . S
C723 C724 1.366 . S
C724 C723 1.366 . S
C724 C725 1.414 . S
C724 C727 1.499 . S
C725 H699 0.950 . S
C725 C724 1.414 . S
C725 C726 1.374 . S
C726 H700 0.950 . S
C726 C722 1.385 . S
C726 C725 1.374 . S
C727 C724 1.499 . S
C727 C728 1.373 . S
C727 C729 1.389 . S
C728 H701 0.950 . S
C728 C714 1.377 . S
C728 C727 1.373 . S
C729 C713 1.377 . S
C729 C727 1.389 . S
C729 C730 1.524 . S
C730 C729 1.524 . S
C730 C731 1.397 . S
C730 C735 1.363 . S
C731 H702 0.950 . S
C731 C730 1.397 . S
C731 C732 1.334 . S
C732 H703 0.950 . S
C732 C731 1.334 . S
C732 C733 1.287 . S
C733 C732 1.287 . S
C733 C734 1.524 . S
C733 H736 0.999 . S
C734 H704 0.950 . S
C734 C733 1.524 . S
C734 C735 1.415 . S
C735 H705 0.950 . S
C735 C730 1.363 . S
C735 C734 1.415 . S
H736 C733 0.999 . S
H737 C718 0.913 . S
H738 C756 0.951 . S
H739 C758 0.951 . S
H740 C760 0.950 . S
H741 C761 0.950 . S
H742 C763 0.950 . S
H743 C766 0.950 . S
H744 C767 0.950 . S
H745 C769 0.950 . S
H746 C770 0.950 . S
H747 C771 0.951 . S
H748 C773 0.951 . S
H749 C775 0.950 . S
H750 C776 0.950 . S
H751 C778 0.950 . S
H752 C781 0.950 . S
H753 C782 0.950 . S
H754 C784 0.950 . S
H755 C785 0.950 . S
C756 H738 0.951 . S
C756 C757 1.366 . S
C756 C758 1.388 . S
C757 C756 1.366 . S
C757 C761 1.385 . S
C758 H739 0.951 . S
C758 C756 1.388 . S
C758 C759 1.366 . S
C759 C758 1.366 . S
C759 C760 1.414 . S
C759 C762 1.499 . S
C760 H740 0.950 . S
C760 C759 1.414 . S
C760 C761 1.374 . S
C761 H741 0.950 . S
C761 C757 1.385 . S
C761 C760 1.374 . S
C762 C759 1.499 . S
C762 C763 1.373 . S
C762 C764 1.389 . S
C763 H742 0.950 . S
C763 C762 1.373 . S
C763 C779 1.377 . S
C764 C762 1.389 . S
C764 C765 1.524 . S
C764 C778 1.377 . S
C765 C764 1.524 . S
C765 C766 1.397 . S
C765 C770 1.363 . S
C766 H743 0.950 . S
C766 C765 1.397 . S
C766 C767 1.334 . S
C767 H744 0.950 . S
C767 C766 1.334 . S
C767 C768 1.287 . S
C768 C767 1.287 . S
C768 C769 1.524 . S
C768 H787 0.913 . S
C769 H745 0.950 . S
C769 C768 1.524 . S
C769 C770 1.415 . S
C770 H746 0.950 . S
C770 C765 1.363 . S
C770 C769 1.415 . S
C771 H747 0.951 . S
C771 C772 1.366 . S
C771 C773 1.388 . S
C772 C771 1.366 . S
C772 C776 1.385 . S
C773 H748 0.951 . S
C773 C771 1.388 . S
C773 C774 1.366 . S
C774 C773 1.366 . S
C774 C775 1.414 . S
C774 C777 1.499 . S
C775 H749 0.950 . S
C775 C774 1.414 . S
C775 C776 1.374 . S
C776 H750 0.950 . S
C776 C772 1.385 . S
C776 C775 1.374 . S
C777 C774 1.499 . S
C777 C778 1.373 . S
C777 C779 1.389 . S
C778 H751 0.950 . S
C778 C764 1.377 . S
C778 C777 1.373 . S
C779 C763 1.377 . S
C779 C777 1.389 . S
C779 C780 1.524 . S
C780 C779 1.524 . S
C780 C781 1.397 . S
C780 C785 1.363 . S
C781 H752 0.950 . S
C781 C780 1.397 . S
C781 C782 1.334 . S
C782 H753 0.950 . S
C782 C781 1.334 . S
C782 C783 1.287 . S
C783 C782 1.287 . S
C783 C784 1.524 . S
C783 H786 0.999 . S
C784 H754 0.950 . S
C784 C783 1.524 . S
C784 C785 1.415 . S
C785 H755 0.950 . S
C785 C780 1.363 . S
C785 C784 1.415 . S
H786 C783 0.999 . S
H787 C768 0.913 . S
H788 C806 0.951 . S
H789 C808 0.951 . S
H790 C810 0.950 . S
H791 C811 0.950 . S
H792 C813 0.950 . S
H793 C816 0.951 . S
H794 C817 0.950 . S
H795 C819 0.950 . S
H796 C820 0.950 . S
H797 C821 0.951 . S
H798 C823 0.951 . S
H799 C825 0.950 . S
H800 C826 0.950 . S
H801 C828 0.950 . S
H802 C831 0.950 . S
H803 C832 0.950 . S
H804 C834 0.950 . S
H805 C835 0.950 . S
C806 H788 0.951 . S
C806 C807 1.366 . S
C806 C808 1.388 . S
C807 C806 1.366 . S
C807 C811 1.385 . S
C808 H789 0.951 . S
C808 C806 1.388 . S
C808 C809 1.366 . S
C809 C808 1.366 . S
C809 C810 1.414 . S
C809 C812 1.499 . S
C810 H790 0.950 . S
C810 C809 1.414 . S
C810 C811 1.374 . S
C811 H791 0.950 . S
C811 C807 1.385 . S
C811 C810 1.374 . S
C812 C809 1.499 . S
C812 C813 1.373 . S
C812 C814 1.389 . S
C813 H792 0.950 . S
C813 C812 1.373 . S
C813 C829 1.377 . S
C814 C812 1.389 . S
C814 C815 1.524 . S
C814 C828 1.377 . S
C815 C814 1.524 . S
C815 C816 1.400 . S
C815 C820 1.363 . S
C816 H793 0.951 . S
C816 C815 1.400 . S
C816 C817 1.329 1_565 S
C817 H794 0.950 . S
C817 C816 1.329 1_545 S
C817 C818 1.287 . S
C818 C817 1.287 . S
C818 C819 1.524 . S
C818 H837 0.913 . S
C819 H795 0.950 . S
C819 C818 1.524 . S
C819 C820 1.415 1_545 S
C820 H796 0.950 . S
C820 C815 1.363 . S
C820 C819 1.415 1_565 S
C821 H797 0.951 . S
C821 C822 1.366 . S
C821 C823 1.388 . S
C822 C821 1.366 . S
C822 C826 1.385 . S
C823 H798 0.951 . S
C823 C821 1.388 . S
C823 C824 1.366 . S
C824 C823 1.366 . S
C824 C825 1.414 . S
C824 C827 1.499 . S
C825 H799 0.950 . S
C825 C824 1.414 . S
C825 C826 1.374 . S
C826 H800 0.950 . S
C826 C822 1.385 . S
C826 C825 1.374 . S
C827 C824 1.499 . S
C827 C828 1.373 . S
C827 C829 1.389 . S
C828 H801 0.950 . S
C828 C814 1.377 . S
C828 C827 1.373 . S
C829 C813 1.377 . S
C829 C827 1.389 . S
C829 C830 1.524 . S
C830 C829 1.524 . S
C830 C831 1.397 . S
C830 C835 1.363 . S
C831 H802 0.950 . S
C831 C830 1.397 . S
C831 C832 1.334 . S
C832 H803 0.950 . S
C832 C831 1.334 . S
C832 C833 1.287 . S
C833 C832 1.287 . S
C833 C834 1.524 . S
C833 H836 0.999 . S
C834 H804 0.950 . S
C834 C833 1.524 . S
C834 C835 1.415 . S
C835 H805 0.950 . S
C835 C830 1.363 . S
C835 C834 1.415 . S
H836 C833 0.999 . S
H837 C818 0.913 . S
H838 C856 0.951 . S
H839 C858 0.951 . S
H840 C860 0.950 1_655 S
H841 C861 0.950 . S
H842 C863 0.950 . S
H843 C866 0.950 . S
H844 C867 0.950 . S
H845 C869 0.950 . S
H846 C870 0.950 . S
H847 C871 0.951 . S
H848 C873 0.951 . S
H849 C875 0.950 . S
H850 C876 0.950 . S
H851 C878 0.950 . S
H852 C881 0.950 . S
H853 C882 0.950 . S
H854 C884 0.950 . S
H855 C885 0.950 . S
C856 H838 0.951 . S
C856 C857 1.366 . S
C856 C858 1.388 . S
C857 C856 1.366 . S
C857 C861 1.385 1_455 S
C858 H839 0.951 . S
C858 C856 1.388 . S
C858 C859 1.366 . S
C859 C858 1.366 . S
C859 C860 1.414 . S
C859 C862 1.499 . S
C860 H840 0.950 1_455 S
C860 C859 1.414 . S
C860 C861 1.374 1_455 S
C861 H841 0.950 . S
C861 C857 1.385 1_655 S
C861 C860 1.374 1_655 S
C862 C859 1.499 . S
C862 C863 1.373 . S
C862 C864 1.389 . S
C863 H842 0.950 . S
C863 C862 1.373 . S
C863 C879 1.377 . S
C864 C862 1.389 . S
C864 C865 1.524 . S
C864 C878 1.377 . S
C865 C864 1.524 . S
C865 C866 1.397 . S
C865 C870 1.363 . S
C866 H843 0.950 . S
C866 C865 1.397 . S
C866 C867 1.334 . S
C867 H844 0.950 . S
C867 C866 1.334 . S
C867 C868 1.287 . S
C868 C867 1.287 . S
C868 C869 1.524 . S
C868 H887 0.913 . S
C869 H845 0.950 . S
C869 C868 1.524 . S
C869 C870 1.415 . S
C870 H846 0.950 . S
C870 C865 1.363 . S
C870 C869 1.415 . S
C871 H847 0.951 . S
C871 C872 1.366 . S
C871 C873 1.388 . S
C872 C871 1.366 . S
C872 C876 1.385 . S
C873 H848 0.951 . S
C873 C871 1.388 . S
C873 C874 1.366 . S
C874 C873 1.366 . S
C874 C875 1.414 . S
C874 C877 1.499 . S
C875 H849 0.950 . S
C875 C874 1.414 . S
C875 C876 1.374 . S
C876 H850 0.950 . S
C876 C872 1.385 . S
C876 C875 1.374 . S
C877 C874 1.499 . S
C877 C878 1.373 . S
C877 C879 1.389 . S
C878 H851 0.950 . S
C878 C864 1.377 . S
C878 C877 1.373 . S
C879 C863 1.377 . S
C879 C877 1.389 . S
C879 C880 1.524 . S
C880 C879 1.524 . S
C880 C881 1.397 . S
C880 C885 1.363 1_455 S
C881 H852 0.950 . S
C881 C880 1.397 . S
C881 C882 1.333 . S
C882 H853 0.950 . S
C882 C881 1.333 . S
C882 C883 1.289 1_455 S
C883 C882 1.289 1_655 S
C883 C884 1.524 . S
C883 H886 0.999 . S
C884 H854 0.950 . S
C884 C883 1.524 . S
C884 C885 1.415 . S
C885 H855 0.950 . S
C885 C880 1.363 1_655 S
C885 C884 1.415 . S
H886 C883 0.999 . S
H887 C868 0.913 . S
H888 C906 0.951 . S
H889 C908 0.951 . S
H890 C910 0.950 . S
H891 C911 0.950 . S
H892 C913 0.950 . S
H893 C916 0.950 . S
H894 C917 0.950 . S
H895 C919 0.950 . S
H896 C920 0.950 . S
H897 C921 0.951 . S
H898 C923 0.951 . S
H899 C925 0.950 . S
H900 C926 0.950 . S
H901 C928 0.950 . S
H902 C931 0.950 . S
H903 C932 0.950 . S
H904 C934 0.950 . S
H905 C935 0.950 . S
C906 H888 0.951 . S
C906 C907 1.366 . S
C906 C908 1.388 . S
C907 C906 1.366 . S
C907 C911 1.385 . S
C908 H889 0.951 . S
C908 C906 1.388 . S
C908 C909 1.366 . S
C909 C908 1.366 . S
C909 C910 1.414 . S
C909 C912 1.499 . S
C910 H890 0.950 . S
C910 C909 1.414 . S
C910 C911 1.374 . S
C911 H891 0.950 . S
C911 C907 1.385 . S
C911 C910 1.374 . S
C912 C909 1.499 . S
C912 C913 1.373 . S
C912 C914 1.389 . S
C913 H892 0.950 . S
C913 C912 1.373 . S
C913 C929 1.377 . S
C914 C912 1.389 . S
C914 C915 1.524 . S
C914 C928 1.377 . S
C915 C914 1.524 . S
C915 C916 1.397 . S
C915 C920 1.363 . S
C916 H893 0.950 . S
C916 C915 1.397 . S
C916 C917 1.334 . S
C917 H894 0.950 . S
C917 C916 1.334 . S
C917 C918 1.287 . S
C918 C917 1.287 . S
C918 C919 1.524 . S
C918 H937 0.913 . S
C919 H895 0.950 . S
C919 C918 1.524 . S
C919 C920 1.415 . S
C920 H896 0.950 . S
C920 C915 1.363 . S
C920 C919 1.415 . S
C921 H897 0.951 . S
C921 C922 1.366 . S
C921 C923 1.388 . S
C922 C921 1.366 . S
C922 C926 1.385 . S
C923 H898 0.951 . S
C923 C921 1.388 . S
C923 C924 1.366 . S
C924 C923 1.366 . S
C924 C925 1.414 . S
C924 C927 1.499 . S
C925 H899 0.950 . S
C925 C924 1.414 . S
C925 C926 1.374 . S
C926 H900 0.950 . S
C926 C922 1.385 . S
C926 C925 1.374 . S
C927 C924 1.499 . S
C927 C928 1.373 . S
C927 C929 1.389 . S
C928 H901 0.950 . S
C928 C914 1.377 . S
C928 C927 1.373 . S
C929 C913 1.377 . S
C929 C927 1.389 . S
C929 C930 1.524 . S
C930 C929 1.524 . S
C930 C931 1.397 . S
C930 C935 1.363 . S
C931 H902 0.950 . S
C931 C930 1.397 . S
C931 C932 1.334 . S
C932 H903 0.950 . S
C932 C931 1.334 . S
C932 C933 1.287 . S
C933 C932 1.287 . S
C933 C934 1.524 . S
C933 H936 0.999 . S
C934 H904 0.950 . S
C934 C933 1.524 . S
C934 C935 1.415 . S
C935 H905 0.950 . S
C935 C930 1.363 . S
C935 C934 1.415 . S
H936 C933 0.999 . S
H937 C918 0.913 . S
H938 C956 0.951 . S
H939 C958 0.951 . S
H940 C960 0.950 . S
H941 C961 0.950 . S
H942 C963 0.950 . S
H943 C966 0.950 . S
H944 C967 0.950 . S
H945 C969 0.950 . S
H946 C970 0.950 . S
H947 C971 0.951 . S
H948 C973 0.951 . S
H949 C975 0.950 . S
H950 C976 0.950 . S
H951 C978 0.950 . S
H952 C981 0.950 . S
H953 C982 0.950 . S
H954 C984 0.950 . S
H955 C985 0.950 . S
C956 H938 0.951 . S
C956 C957 1.366 . S
C956 C958 1.388 . S
C957 C956 1.366 . S
C957 C961 1.385 . S
C958 H939 0.951 . S
C958 C956 1.388 . S
C958 C959 1.366 . S
C959 C958 1.366 . S
C959 C960 1.414 . S
C959 C962 1.499 . S
C960 H940 0.950 . S
C960 C959 1.414 . S
C960 C961 1.374 . S
C961 H941 0.950 . S
C961 C957 1.385 . S
C961 C960 1.374 . S
C962 C959 1.499 . S
C962 C963 1.373 . S
C962 C964 1.389 . S
C963 H942 0.950 . S
C963 C962 1.373 . S
C963 C979 1.377 . S
C964 C962 1.389 . S
C964 C965 1.524 . S
C964 C978 1.377 . S
C965 C964 1.524 . S
C965 C966 1.397 . S
C965 C970 1.363 . S
C966 H943 0.950 . S
C966 C965 1.397 . S
C966 C967 1.334 . S
C967 H944 0.950 . S
C967 C966 1.334 . S
C967 C968 1.287 . S
C968 C967 1.287 . S
C968 C969 1.524 . S
C968 H987 0.913 . S
C969 H945 0.950 . S
C969 C968 1.524 . S
C969 C970 1.415 . S
C970 H946 0.950 . S
C970 C965 1.363 . S
C970 C969 1.415 . S
C971 H947 0.951 . S
C971 C972 1.366 . S
C971 C973 1.388 . S
C972 C971 1.366 . S
C972 C976 1.385 . S
C973 H948 0.951 . S
C973 C971 1.388 . S
C973 C974 1.366 . S
C974 C973 1.366 . S
C974 C975 1.414 . S
C974 C977 1.499 . S
C975 H949 0.950 . S
C975 C974 1.414 . S
C975 C976 1.374 . S
C976 H950 0.950 . S
C976 C972 1.385 . S
C976 C975 1.374 . S
C977 C974 1.499 . S
C977 C978 1.373 . S
C977 C979 1.389 . S
C978 H951 0.950 . S
C978 C964 1.377 . S
C978 C977 1.373 . S
C979 C963 1.377 . S
C979 C977 1.389 . S
C979 C980 1.524 . S
C980 C979 1.524 . S
C980 C981 1.397 . S
C980 C985 1.363 . S
C981 H952 0.950 . S
C981 C980 1.397 . S
C981 C982 1.334 . S
C982 H953 0.950 . S
C982 C981 1.334 . S
C982 C983 1.287 . S
C983 C982 1.287 . S
C983 C984 1.524 . S
C983 H986 0.999 . S
C984 H954 0.950 . S
C984 C983 1.524 . S
C984 C985 1.415 . S
C985 H955 0.950 . S
C985 C980 1.363 . S
C985 C984 1.415 . S
H986 C983 0.999 . S
H987 C968 0.913 . S
H988 C1006 0.951 . S
H989 C1008 0.951 . S
H990 C1010 0.950 . S
H991 C1011 0.950 . S
H992 C1013 0.950 . S
H993 C1016 0.950 . S
H994 C1017 0.950 . S
H995 C1019 0.950 . S
H996 C1020 0.950 . S
H997 C1021 0.951 . S
H998 C1023 0.951 . S
H999 C1025 0.950 . S
H1000 C1026 0.950 . S
H1001 C1028 0.950 . S
H1002 C1031 0.950 . S
H1003 C1032 0.950 . S
H1004 C1034 0.950 . S
H1005 C1035 0.950 1_545 S
C1006 H988 0.951 . S
C1006 C1007 1.366 . S
C1006 C1008 1.388 . S
C1007 C1006 1.366 . S
C1007 C1011 1.385 . S
C1008 H989 0.951 . S
C1008 C1006 1.388 . S
C1008 C1009 1.366 . S
C1009 C1008 1.366 . S
C1009 C1010 1.414 . S
C1009 C1012 1.499 . S
C1010 H990 0.950 . S
C1010 C1009 1.414 . S
C1010 C1011 1.374 . S
C1011 H991 0.950 . S
C1011 C1007 1.385 . S
C1011 C1010 1.374 . S
C1012 C1009 1.499 . S
C1012 C1013 1.373 . S
C1012 C1014 1.389 . S
C1013 H992 0.950 . S
C1013 C1012 1.373 . S
C1013 C1029 1.377 . S
C1014 C1012 1.389 . S
C1014 C1015 1.524 . S
C1014 C1028 1.377 . S
C1015 C1014 1.524 . S
C1015 C1016 1.397 . S
C1015 C1020 1.363 . S
C1016 H993 0.950 . S
C1016 C1015 1.397 . S
C1016 C1017 1.334 . S
C1017 H994 0.950 . S
C1017 C1016 1.334 . S
C1017 C1018 1.287 . S
C1018 C1017 1.287 . S
C1018 C1019 1.524 . S
C1018 H1037 0.913 . S
C1019 H995 0.950 . S
C1019 C1018 1.524 . S
C1019 C1020 1.415 . S
C1020 H996 0.950 . S
C1020 C1015 1.363 . S
C1020 C1019 1.415 . S
C1021 H997 0.951 . S
C1021 C1022 1.366 . S
C1021 C1023 1.388 . S
C1022 C1021 1.366 . S
C1022 C1026 1.385 . S
C1023 H998 0.951 . S
C1023 C1021 1.388 . S
C1023 C1024 1.366 . S
C1024 C1023 1.366 . S
C1024 C1025 1.414 . S
C1024 C1027 1.499 . S
C1025 H999 0.950 . S
C1025 C1024 1.414 . S
C1025 C1026 1.374 . S
C1026 H1000 0.950 . S
C1026 C1022 1.385 . S
C1026 C1025 1.374 . S
C1027 C1024 1.499 . S
C1027 C1028 1.373 . S
C1027 C1029 1.389 . S
C1028 H1001 0.950 . S
C1028 C1014 1.377 . S
C1028 C1027 1.373 . S
C1029 C1013 1.377 . S
C1029 C1027 1.389 . S
C1029 C1030 1.498 1_545 S
C1030 C1029 1.498 1_565 S
C1030 C1031 1.424 . S
C1030 C1035 1.363 . S
C1031 H1002 0.950 . S
C1031 C1030 1.424 . S
C1031 C1032 1.334 . S
C1032 H1003 0.950 . S
C1032 C1031 1.334 . S
C1032 C1033 1.287 . S
C1033 C1032 1.287 . S
C1033 C1034 1.524 . S
C1033 H1036 0.999 . S
C1034 H1004 0.950 . S
C1034 C1033 1.524 . S
C1034 C1035 1.415 . S
C1035 H1005 0.950 1_565 S
C1035 C1030 1.363 . S
C1035 C1034 1.415 . S
H1036 C1033 0.999 . S
H1037 C1018 0.913 . S
H1038 C1056 0.951 . S
H1039 C1058 0.951 . S
H1040 C1060 0.950 1_455 S
H1041 C1061 0.950 . S
H1042 C1063 0.950 . S
H1043 C1066 0.950 1_455 S
H1044 C1067 0.950 1_455 S
H1045 C1069 0.950 . S
H1046 C1070 0.950 . S
H1047 C1071 0.951 . S
H1048 C1073 0.951 . S
H1049 C1075 0.950 . S
H1050 C1076 0.950 . S
H1051 C1078 0.950 . S
H1052 C1081 0.950 . S
H1053 C1082 0.950 . S
H1054 C1084 0.950 . S
H1055 C1085 0.950 . S
C1056 H1038 0.951 . S
C1056 C1057 1.366 . S
C1056 C1058 1.388 . S
C1057 C1056 1.366 . S
C1057 C1061 1.385 1_655 S
C1058 H1039 0.951 . S
C1058 C1056 1.388 . S
C1058 C1059 1.366 . S
C1059 C1058 1.366 . S
C1059 C1060 1.414 . S
C1059 C1062 1.499 . S
C1060 H1040 0.950 1_655 S
C1060 C1059 1.414 . S
C1060 C1061 1.374 1_655 S
C1061 H1041 0.950 . S
C1061 C1057 1.385 1_455 S
C1061 C1060 1.374 1_455 S
C1062 C1059 1.499 . S
C1062 C1063 1.373 . S
C1062 C1064 1.389 . S
C1063 H1042 0.950 . S
C1063 C1062 1.373 . S
C1063 C1079 1.377 . S
C1064 C1062 1.389 . S
C1064 C1065 1.524 . S
C1064 C1078 1.377 . S
C1065 C1064 1.524 . S
C1065 C1066 1.397 . S
C1065 C1070 1.363 . S
C1066 H1043 0.950 1_655 S
C1066 C1065 1.397 . S
C1066 C1067 1.334 . S
C1067 H1044 0.950 1_655 S
C1067 C1066 1.334 . S
C1067 C1068 1.287 . S
C1068 C1067 1.287 . S
C1068 C1069 1.524 . S
C1068 H1087 0.913 . S
C1069 H1045 0.950 . S
C1069 C1068 1.524 . S
C1069 C1070 1.415 . S
C1070 H1046 0.950 . S
C1070 C1065 1.363 . S
C1070 C1069 1.415 . S
C1071 H1047 0.951 . S
C1071 C1072 1.366 . S
C1071 C1073 1.388 . S
C1072 C1071 1.366 . S
C1072 C1076 1.385 . S
C1073 H1048 0.951 . S
C1073 C1071 1.388 . S
C1073 C1074 1.366 . S
C1074 C1073 1.366 . S
C1074 C1075 1.414 . S
C1074 C1077 1.499 . S
C1075 H1049 0.950 . S
C1075 C1074 1.414 . S
C1075 C1076 1.374 . S
C1076 H1050 0.950 . S
C1076 C1072 1.385 . S
C1076 C1075 1.374 . S
C1077 C1074 1.499 . S
C1077 C1078 1.373 . S
C1077 C1079 1.389 . S
C1078 H1051 0.950 . S
C1078 C1064 1.377 . S
C1078 C1077 1.373 . S
C1079 C1063 1.377 . S
C1079 C1077 1.389 . S
C1079 C1080 1.524 . S
C1080 C1079 1.524 . S
C1080 C1081 1.397 . S
C1080 C1085 1.363 . S
C1081 H1052 0.950 . S
C1081 C1080 1.397 . S
C1081 C1082 1.334 . S
C1082 H1053 0.950 . S
C1082 C1081 1.334 . S
C1082 C1083 1.287 . S
C1083 C1082 1.287 . S
C1083 C1084 1.524 . S
C1083 H1086 0.999 . S
C1084 H1054 0.950 . S
C1084 C1083 1.524 . S
C1084 C1085 1.415 . S
C1085 H1055 0.950 . S
C1085 C1080 1.363 . S
C1085 C1084 1.415 . S
H1086 C1083 0.999 . S
H1087 C1068 0.913 . S
C307 C158 1.586 . S
C322 C14 1.586 . S
C357 C50 1.587 . S
C372 C194 1.587 . S
C407 C86 1.587 . S
C422 C230 1.587 . S
C457 C266 1.586 . S
C472 C122 1.586 . S
C507 C4 1.335 . S
C522 C76 1.335 . S
C557 C40 1.335 . S
C572 C112 1.335 . S
C607 C220 1.336 . S
C622 C148 1.336 . S
C657 C184 1.335 . S
C672 C256 1.336 . S
C707 C182 0.762 . S
C722 C3 0.765 . S
C757 C39 0.764 . S
C772 C218 0.764 . S
C807 C75 0.764 . S
C822 C254 0.763 . S
C857 C146 0.764 . S
C872 C111 0.764 . S
C907 C147 0.764 . S
C922 C38 0.764 . S
C957 C183 0.764 . S
C972 C74 0.764 . S
C1007 C219 0.765 . S
C1022 C110 0.764 . S
C1057 C2 0.762 . S
C1072 C255 0.765 . S
