# Generated by pormake.
# Topology smq, (6)-cn, num edge types: 1
# Building blocks:
#     Node 0, Type 0, BuildingBlock: MAKGUD_clean_sbu_1, # of connection points: 6
#     Node 1, Type 0, BuildingBlock: MAKGUD_clean_sbu_1, # of connection points: 6
#     Node 2, Type 0, BuildingBlock: MAKGUD_clean_sbu_1, # of connection points: 6
#     Node 3, Type 0, BuildingBlock: MAKGUD_clean_sbu_1, # of connection points: 6
#     Node 4, Type 0, BuildingBlock: MAKGUD_clean_sbu_1, # of connection points: 6
#     Node 5, Type 0, BuildingBlock: MAKGUD_clean_sbu_1, # of connection points: 6
#     Node 6, Type 0, BuildingBlock: MAKGUD_clean_sbu_1, # of connection points: 6
#     Node 7, Type 0, BuildingBlock: MAKGUD_clean_sbu_1, # of connection points: 6
#     Node 8, Type 0, BuildingBlock: MAKGUD_clean_sbu_1, # of connection points: 6
#     Node 9, Type 0, BuildingBlock: MAKGUD_clean_sbu_1, # of connection points: 6
#     Node 10, Type 0, BuildingBlock: MAKGUD_clean_sbu_1, # of connection points: 6
#     Node 11, Type 0, BuildingBlock: MAKGUD_clean_sbu_1, # of connection points: 6
#     Node 12, Type 0, BuildingBlock: MAKGUD_clean_sbu_1, # of connection points: 6
#     Node 13, Type 0, BuildingBlock: MAKGUD_clean_sbu_1, # of connection points: 6
#     Node 14, Type 0, BuildingBlock: MAKGUD_clean_sbu_1, # of connection points: 6
#     Node 15, Type 0, BuildingBlock: MAKGUD_clean_sbu_1, # of connection points: 6
#     Node 16, Type 0, BuildingBlock: MAKGUD_clean_sbu_1, # of connection points: 6
#     Node 17, Type 0, BuildingBlock: MAKGUD_clean_sbu_1, # of connection points: 6
#     Node 18, Type 0, BuildingBlock: MAKGUD_clean_sbu_1, # of connection points: 6
#     Node 19, Type 0, BuildingBlock: MAKGUD_clean_sbu_1, # of connection points: 6
#     Node 20, Type 0, BuildingBlock: MAKGUD_clean_sbu_1, # of connection points: 6
#     Node 21, Type 0, BuildingBlock: MAKGUD_clean_sbu_1, # of connection points: 6
#     Node 22, Type 0, BuildingBlock: MAKGUD_clean_sbu_1, # of connection points: 6
#     Node 23, Type 0, BuildingBlock: MAKGUD_clean_sbu_1, # of connection points: 6
#     Edge 24, Type (0, 0), BuildingBlock: KIFKEQ_clean_linker_1, # of connection points: 2
#     Edge 25, Type (0, 0), BuildingBlock: KIFKEQ_clean_linker_1, # of connection points: 2
#     Edge 26, Type (0, 0), BuildingBlock: KIFKEQ_clean_linker_1, # of connection points: 2
#     Edge 27, Type (0, 0), BuildingBlock: KIFKEQ_clean_linker_1, # of connection points: 2
#     Edge 28, Type (0, 0), BuildingBlock: KIFKEQ_clean_linker_1, # of connection points: 2
#     Edge 29, Type (0, 0), BuildingBlock: KIFKEQ_clean_linker_1, # of connection points: 2
#     Edge 30, Type (0, 0), BuildingBlock: KIFKEQ_clean_linker_1, # of connection points: 2
#     Edge 31, Type (0, 0), BuildingBlock: KIFKEQ_clean_linker_1, # of connection points: 2
#     Edge 32, Type (0, 0), BuildingBlock: KIFKEQ_clean_linker_1, # of connection points: 2
#     Edge 33, Type (0, 0), BuildingBlock: KIFKEQ_clean_linker_1, # of connection points: 2
#     Edge 34, Type (0, 0), BuildingBlock: KIFKEQ_clean_linker_1, # of connection points: 2
#     Edge 35, Type (0, 0), BuildingBlock: KIFKEQ_clean_linker_1, # of connection points: 2
#     Edge 36, Type (0, 0), BuildingBlock: KIFKEQ_clean_linker_1, # of connection points: 2
#     Edge 37, Type (0, 0), BuildingBlock: KIFKEQ_clean_linker_1, # of connection points: 2
#     Edge 38, Type (0, 0), BuildingBlock: KIFKEQ_clean_linker_1, # of connection points: 2
#     Edge 39, Type (0, 0), BuildingBlock: KIFKEQ_clean_linker_1, # of connection points: 2
#     Edge 40, Type (0, 0), BuildingBlock: KIFKEQ_clean_linker_1, # of connection points: 2
#     Edge 41, Type (0, 0), BuildingBlock: KIFKEQ_clean_linker_1, # of connection points: 2
#     Edge 42, Type (0, 0), BuildingBlock: KIFKEQ_clean_linker_1, # of connection points: 2
#     Edge 43, Type (0, 0), BuildingBlock: KIFKEQ_clean_linker_1, # of connection points: 2
#     Edge 44, Type (0, 0), BuildingBlock: KIFKEQ_clean_linker_1, # of connection points: 2
#     Edge 45, Type (0, 0), BuildingBlock: KIFKEQ_clean_linker_1, # of connection points: 2
#     Edge 46, Type (0, 0), BuildingBlock: KIFKEQ_clean_linker_1, # of connection points: 2
#     Edge 47, Type (0, 0), BuildingBlock: KIFKEQ_clean_linker_1, # of connection points: 2
#     Edge 48, Type (0, 0), BuildingBlock: KIFKEQ_clean_linker_1, # of connection points: 2
#     Edge 49, Type (0, 0), BuildingBlock: KIFKEQ_clean_linker_1, # of connection points: 2
#     Edge 50, Type (0, 0), BuildingBlock: KIFKEQ_clean_linker_1, # of connection points: 2
#     Edge 51, Type (0, 0), BuildingBlock: KIFKEQ_clean_linker_1, # of connection points: 2
#     Edge 52, Type (0, 0), BuildingBlock: KIFKEQ_clean_linker_1, # of connection points: 2
#     Edge 53, Type (0, 0), BuildingBlock: KIFKEQ_clean_linker_1, # of connection points: 2
#     Edge 54, Type (0, 0), BuildingBlock: KIFKEQ_clean_linker_1, # of connection points: 2
#     Edge 55, Type (0, 0), BuildingBlock: KIFKEQ_clean_linker_1, # of connection points: 2
#     Edge 56, Type (0, 0), BuildingBlock: KIFKEQ_clean_linker_1, # of connection points: 2
#     Edge 57, Type (0, 0), BuildingBlock: KIFKEQ_clean_linker_1, # of connection points: 2
#     Edge 58, Type (0, 0), BuildingBlock: KIFKEQ_clean_linker_1, # of connection points: 2
#     Edge 59, Type (0, 0), BuildingBlock: KIFKEQ_clean_linker_1, # of connection points: 2
#     Edge 60, Type (0, 0), BuildingBlock: KIFKEQ_clean_linker_1, # of connection points: 2
#     Edge 61, Type (0, 0), BuildingBlock: KIFKEQ_clean_linker_1, # of connection points: 2
#     Edge 62, Type (0, 0), BuildingBlock: KIFKEQ_clean_linker_1, # of connection points: 2
#     Edge 63, Type (0, 0), BuildingBlock: KIFKEQ_clean_linker_1, # of connection points: 2
#     Edge 64, Type (0, 0), BuildingBlock: KIFKEQ_clean_linker_1, # of connection points: 2
#     Edge 65, Type (0, 0), BuildingBlock: KIFKEQ_clean_linker_1, # of connection points: 2
#     Edge 66, Type (0, 0), BuildingBlock: KIFKEQ_clean_linker_1, # of connection points: 2
#     Edge 67, Type (0, 0), BuildingBlock: KIFKEQ_clean_linker_1, # of connection points: 2
#     Edge 68, Type (0, 0), BuildingBlock: KIFKEQ_clean_linker_1, # of connection points: 2
#     Edge 69, Type (0, 0), BuildingBlock: KIFKEQ_clean_linker_1, # of connection points: 2
#     Edge 70, Type (0, 0), BuildingBlock: KIFKEQ_clean_linker_1, # of connection points: 2
#     Edge 71, Type (0, 0), BuildingBlock: KIFKEQ_clean_linker_1, # of connection points: 2
#     Edge 72, Type (0, 0), BuildingBlock: KIFKEQ_clean_linker_1, # of connection points: 2
#     Edge 73, Type (0, 0), BuildingBlock: KIFKEQ_clean_linker_1, # of connection points: 2
#     Edge 74, Type (0, 0), BuildingBlock: KIFKEQ_clean_linker_1, # of connection points: 2
#     Edge 75, Type (0, 0), BuildingBlock: KIFKEQ_clean_linker_1, # of connection points: 2
#     Edge 76, Type (0, 0), BuildingBlock: KIFKEQ_clean_linker_1, # of connection points: 2
#     Edge 77, Type (0, 0), BuildingBlock: KIFKEQ_clean_linker_1, # of connection points: 2
#     Edge 78, Type (0, 0), BuildingBlock: KIFKEQ_clean_linker_1, # of connection points: 2
#     Edge 79, Type (0, 0), BuildingBlock: KIFKEQ_clean_linker_1, # of connection points: 2
#     Edge 80, Type (0, 0), BuildingBlock: KIFKEQ_clean_linker_1, # of connection points: 2
#     Edge 81, Type (0, 0), BuildingBlock: KIFKEQ_clean_linker_1, # of connection points: 2
#     Edge 82, Type (0, 0), BuildingBlock: KIFKEQ_clean_linker_1, # of connection points: 2
#     Edge 83, Type (0, 0), BuildingBlock: KIFKEQ_clean_linker_1, # of connection points: 2
#     Edge 84, Type (0, 0), BuildingBlock: KIFKEQ_clean_linker_1, # of connection points: 2
#     Edge 85, Type (0, 0), BuildingBlock: KIFKEQ_clean_linker_1, # of connection points: 2
#     Edge 86, Type (0, 0), BuildingBlock: KIFKEQ_clean_linker_1, # of connection points: 2
#     Edge 87, Type (0, 0), BuildingBlock: KIFKEQ_clean_linker_1, # of connection points: 2
#     Edge 88, Type (0, 0), BuildingBlock: KIFKEQ_clean_linker_1, # of connection points: 2
#     Edge 89, Type (0, 0), BuildingBlock: KIFKEQ_clean_linker_1, # of connection points: 2
#     Edge 90, Type (0, 0), BuildingBlock: KIFKEQ_clean_linker_1, # of connection points: 2
#     Edge 91, Type (0, 0), BuildingBlock: KIFKEQ_clean_linker_1, # of connection points: 2
#     Edge 92, Type (0, 0), BuildingBlock: KIFKEQ_clean_linker_1, # of connection points: 2
#     Edge 93, Type (0, 0), BuildingBlock: KIFKEQ_clean_linker_1, # of connection points: 2
#     Edge 94, Type (0, 0), BuildingBlock: KIFKEQ_clean_linker_1, # of connection points: 2
#     Edge 95, Type (0, 0), BuildingBlock: KIFKEQ_clean_linker_1, # of connection points: 2
# Relax obj value: 0.230
# Max RMSD: 0.218
# Mean RMSD: 0.218
data_MOF--net-smq--node1-MAKGUD_clean_sbu_1--edge1-KIFKEQ_clean_linker_1
_symmetry_space_group_name_H-M    P1
_symmetry_Int_Tables_number       1
_symmetry_cell_setting            triclinic
loop_
_symmetry_equiv_pos_as_xyz
'x, y, z'
_cell_length_a     46.964578
_cell_length_b     46.909604
_cell_length_c     46.926506
_cell_angle_alpha  90.001307
_cell_angle_beta   90.06611
_cell_angle_gamma 89.984037
loop_
_atom_site_label
_atom_site_type_symbol
_atom_site_fract_x
_atom_site_fract_y
_atom_site_fract_z
_atom_type_partial_charge
O0 O 1.03198 0.32904 0.27019 0.0
Tb1 Tb 1.04561 0.32733 0.31402 0.0
C2 C 1.02766 0.30962 0.37432 0.0
O3 O 0.08824 0.28351 0.29908 0.0
Tb4 Tb 0.07883 0.27636 0.34451 0.0
C5 C 0.1184 0.29494 0.37953 0.0
O6 O 0.08996 0.33083 0.30323 0.0
O7 O 0.09727 0.23396 0.33709 0.0
C8 C 0.12369 0.23473 0.32715 0.0
O9 O 0.13534 0.25984 0.32299 0.0
O10 O 1.03413 0.33212 0.35857 0.0
O11 O 1.03825 0.28397 0.3679 0.0
O12 O 1.0258 0.28574 0.314 0.0
C13 C 0.09921 0.30786 0.29062 0.0
C14 C 1.01807 0.35286 0.27202 0.0
O15 O 0.10777 0.31003 0.35867 0.0
O16 O 0.10641 0.27005 0.38068 0.0
C17 C 0.99782 0.28607 0.31488 0.0
O18 O 0.98477 0.31067 0.31189 0.0
O19 O 1.01922 0.36262 0.29813 0.0
O20 O 0.31747 0.53071 0.77172 0.0
Tb21 Tb 0.31853 0.54528 0.81519 0.0
C22 C 0.33518 0.5302 0.87652 0.0
O23 O 0.36226 0.58847 0.79971 0.0
Tb24 Tb 0.36888 0.5803 0.84548 0.0
C25 C 0.35019 0.62092 0.87919 0.0
O26 O 0.31493 0.58942 0.80317 0.0
O27 O 0.41131 0.59856 0.83816 0.0
C28 C 0.41062 0.6247 0.82743 0.0
O29 O 0.38557 0.63616 0.82246 0.0
O30 O 0.31293 0.53617 0.86022 0.0
O31 O 0.36093 0.54038 0.86995 0.0
O32 O 0.35934 0.52392 0.81659 0.0
C33 C 0.33785 0.59883 0.7907 0.0
C34 C 0.29359 0.51693 0.77351 0.0
O35 O 0.3352 0.60975 0.85853 0.0
O36 O 0.37499 0.60886 0.88088 0.0
C37 C 0.35758 0.4966 0.82264 0.0
O38 O 0.33217 0.48496 0.82406 0.0
O39 O 0.28339 0.51868 0.79942 0.0
O40 O 0.1137 0.81729 0.27222 0.0
Tb41 Tb 0.09882 0.81801 0.31556 0.0
C42 C 0.11323 0.83448 0.3771 0.0
O43 O 1.05545 0.86155 0.29969 0.0
Tb44 Tb 1.0633 0.86814 0.34553 0.0
C45 C 1.02227 0.84958 0.37874 0.0
O46 O 1.05486 0.81414 0.30307 0.0
O47 O 1.04529 0.9107 0.33808 0.0
C48 C 1.01927 0.91014 0.32707 0.0
O49 O 1.00781 0.88512 0.3219 0.0
O50 O 0.10763 0.81224 0.36065 0.0
O51 O 0.10293 0.86021 0.37047 0.0
O52 O 0.11985 0.85901 0.31726 0.0
C53 C 1.04536 0.83705 0.29056 0.0
C54 C 0.12764 0.79347 0.27402 0.0
O55 O 1.03361 0.83453 0.35824 0.0
O56 O 1.03441 0.87434 0.38059 0.0
C57 C 0.14709 0.85739 0.32363 0.0
O58 O 0.15885 0.83201 0.32526 0.0
O59 O 0.12578 0.7831 0.29987 0.0
O60 O 0.83225 0.61376 0.77115 0.0
Tb61 Tb 0.82671 0.59889 0.81438 0.0
C62 C 0.80815 0.61548 0.87466 0.0
O63 O 0.78254 0.55642 0.7981 0.0
Tb64 Tb 0.77512 0.56513 0.84364 0.0
C65 C 0.79373 0.52526 0.87832 0.0
O66 O 0.82992 0.55478 0.8022 0.0
O67 O 0.73287 0.54653 0.83597 0.0
C68 C 0.73376 0.52024 0.82561 0.0
O69 O 0.75889 0.50883 0.82107 0.0
O70 O 0.83079 0.60843 0.85945 0.0
O71 O 0.78248 0.60556 0.86746 0.0
O72 O 0.78537 0.61913 0.81355 0.0
C73 C 0.80694 0.54569 0.78948 0.0
C74 C 0.85549 0.62799 0.77563 0.0
O75 O 0.80886 0.53618 0.85767 0.0
O76 O 0.7688 0.53712 0.87944 0.0
C77 C 0.78582 0.64711 0.81505 0.0
O78 O 0.81051 0.6601 0.81293 0.0
O79 O 0.86273 0.62621 0.80248 0.0
O80 O 1.03147 0.81627 0.8721 0.0
Tb81 Tb 1.04604 0.81719 0.82861 0.0
C82 C 1.02952 0.83479 0.76776 0.0
O83 O 0.08816 0.86054 0.84485 0.0
Tb84 Tb 0.08012 0.86756 0.79913 0.0
C85 C 0.12144 0.84838 0.76669 0.0
O86 O 0.09008 0.81328 0.84066 0.0
O87 O 0.09801 0.9102 0.80665 0.0
C88 C 0.12388 0.90988 0.81804 0.0
O89 O 0.13543 0.88498 0.8236 0.0
O90 O 1.0354 0.81233 0.78383 0.0
O91 O 1.04037 0.86035 0.77414 0.0
O92 O 1.02646 0.8589 0.82783 0.0
C93 C 0.09907 0.83621 0.8535 0.0
C94 C 1.01753 0.79247 0.87034 0.0
O95 O 0.10799 0.8328 0.78539 0.0
O96 O 0.11115 0.87402 0.76595 0.0
C97 C 0.99852 0.85864 0.8261 0.0
O98 O 0.98536 0.83405 0.82853 0.0
O99 O 1.01914 0.78227 0.84441 0.0
O100 O 0.82736 0.53271 0.37326 0.0
Tb101 Tb 0.82592 0.54652 0.32949 0.0
C102 C 0.80853 0.52901 0.26897 0.0
O103 O 0.78236 0.58915 0.34451 0.0
Tb104 Tb 0.77526 0.58003 0.29901 0.0
C105 C 0.79391 0.61986 0.26438 0.0
O106 O 0.82962 0.59085 0.3405 0.0
O107 O 0.73289 0.5984 0.30648 0.0
C108 C 0.73365 0.62476 0.31666 0.0
O109 O 0.75872 0.63641 0.32098 0.0
O110 O 0.83093 0.53535 0.2849 0.0
O111 O 0.78289 0.53956 0.27533 0.0
O112 O 0.78427 0.5269 0.32916 0.0
C113 C 0.80668 0.6001 0.35308 0.0
C114 C 0.85104 0.51859 0.37147 0.0
O115 O 0.80897 0.609 0.28513 0.0
O116 O 0.769 0.60796 0.26311 0.0
C117 C 0.78447 0.49891 0.32797 0.0
O118 O 0.80899 0.48571 0.33079 0.0
O119 O 0.8609 0.51977 0.34542 0.0
O120 O 0.11132 0.32898 0.87303 0.0
Tb121 Tb 0.09762 0.32771 0.82921 0.0
C122 C 0.11526 0.31015 0.76879 0.0
O123 O 1.05462 0.28431 0.84404 0.0
Tb124 Tb 1.06397 0.27715 0.7986 0.0
C125 C 1.02444 0.29576 0.76356 0.0
O126 O 1.05331 0.33165 0.84001 0.0
O127 O 1.04541 0.23484 0.80611 0.0
C128 C 1.019 0.23577 0.81604 0.0
O129 O 1.00744 0.26095 0.82009 0.0
O130 O 0.10903 0.33264 0.78467 0.0
O131 O 0.10453 0.28456 0.77515 0.0
O132 O 0.11713 0.28596 0.82896 0.0
C133 C 1.04385 0.30874 0.85255 0.0
C134 C 0.12546 0.35267 0.87135 0.0
O135 O 1.03509 0.31087 0.7844 0.0
O136 O 1.03638 0.27084 0.76246 0.0
C137 C 0.1451 0.28614 0.82793 0.0
O138 O 0.15829 0.31066 0.83091 0.0
O139 O 0.12434 0.36264 0.84531 0.0
O140 O 0.31626 0.61211 0.37341 0.0
Tb141 Tb 0.31735 0.59828 0.32964 0.0
C142 C 0.33475 0.61604 0.26919 0.0
O143 O 0.36085 0.55534 0.34451 0.0
Tb144 Tb 0.36783 0.56469 0.29904 0.0
C145 C 0.34906 0.52507 0.26418 0.0
O146 O 0.31357 0.55391 0.34049 0.0
O147 O 0.41009 0.54602 0.30648 0.0
C148 C 0.40914 0.51958 0.31643 0.0
O149 O 0.38398 0.50806 0.32054 0.0
O150 O 0.31234 0.60981 0.2851 0.0
O151 O 0.36033 0.60528 0.27551 0.0
O152 O 0.359 0.61791 0.32932 0.0
C153 C 0.33649 0.54449 0.35304 0.0
C154 C 0.29241 0.62597 0.37182 0.0
O155 O 0.33407 0.53579 0.28503 0.0
O156 O 0.37394 0.53701 0.26293 0.0
C157 C 0.35876 0.64591 0.32828 0.0
O158 O 0.33425 0.65907 0.33132 0.0
O159 O 0.28228 0.62469 0.34585 0.0
O160 O 0.27088 1.03087 0.33323 0.0
Tb161 Tb 0.31405 1.04583 0.32782 0.0
C162 C 0.37433 1.02933 0.30921 0.0
O163 O 0.29758 0.08823 0.28379 0.0
Tb164 Tb 0.34307 0.07958 0.27624 0.0
C165 C 0.37766 0.11963 0.29455 0.0
O166 O 0.30178 0.08991 0.33119 0.0
O167 O 0.33521 0.09805 0.23394 0.0
C168 C 0.32478 0.12431 0.23482 0.0
O169 O 0.3203 0.13575 0.25997 0.0
O170 O 0.35909 1.03621 0.33188 0.0
O171 O 0.36708 1.03928 0.28354 0.0
O172 O 0.31319 1.02593 0.28628 0.0
C173 C 0.28902 0.09899 0.30821 0.0
C174 C 0.27534 1.01659 0.35647 0.0
O175 O 0.35714 0.1087 0.30983 0.0
O176 O 0.37871 0.10768 0.26964 0.0
C177 C 0.31473 0.99795 0.28646 0.0
O178 O 0.3127 0.9847 0.31103 0.0
O179 O 0.30214 1.01837 0.36376 0.0
O180 O 0.61231 0.77264 0.82836 0.0
Tb181 Tb 0.59769 0.81614 0.82757 0.0
C182 C 0.61396 0.87697 0.80986 0.0
O183 O 0.55551 0.79978 0.78432 0.0
Tb184 Tb 0.56334 0.84552 0.77726 0.0
C185 C 0.522 0.87793 0.79651 0.0
O186 O 0.5537 0.80404 0.83155 0.0
O187 O 0.54535 0.83791 0.73467 0.0
C188 C 0.51952 0.82646 0.73504 0.0
O189 O 0.50806 0.82092 0.75996 0.0
O190 O 0.60812 0.86097 0.83237 0.0
O191 O 0.60305 0.87055 0.78434 0.0
O192 O 0.61742 0.81704 0.78597 0.0
C193 C 0.54471 0.79113 0.80866 0.0
C194 C 0.62642 0.77437 0.85207 0.0
O195 O 0.53559 0.85929 0.81209 0.0
O196 O 0.53214 0.87862 0.77084 0.0
C197 C 0.64535 0.81888 0.78646 0.0
O198 O 0.65837 0.8164 0.81113 0.0
O199 O 0.62482 0.80028 0.86234 0.0
O200 O 0.8718 0.11275 0.32761 0.0
Tb201 Tb 0.82839 0.09798 0.32693 0.0
C202 C 0.76754 0.11413 0.3093 0.0
O203 O 0.84463 1.05557 0.28399 0.0
Tb204 Tb 0.79891 1.06333 0.27699 0.0
C205 C 0.76665 1.02214 0.29681 0.0
O206 O 0.84058 1.05398 0.33124 0.0
O207 O 0.8065 1.045 0.23457 0.0
C208 C 0.81793 1.01914 0.2352 0.0
O209 O 0.82336 1.00783 0.26024 0.0
O210 O 0.78362 0.10839 0.33178 0.0
O211 O 0.77389 0.10313 0.28381 0.0
O212 O 0.82744 0.11733 0.28512 0.0
C213 C 0.85336 1.04485 0.30836 0.0
C214 C 0.87005 0.12696 0.35126 0.0
O215 O 0.78527 1.03595 0.31219 0.0
O216 O 0.7659 1.03197 0.271 0.0
C217 C 0.82543 0.14528 0.2853 0.0
O218 O 0.82761 0.15854 0.30988 0.0
O219 O 0.8442 0.12533 0.36154 0.0
O220 O 0.53045 0.37247 0.83275 0.0
Tb221 Tb 0.54542 0.32927 0.82711 0.0
C222 C 0.52881 0.269 0.80829 0.0
O223 O 0.58763 0.34573 0.78292 0.0
Tb224 Tb 0.57905 0.30016 0.77545 0.0
C225 C 0.61894 0.26551 0.79403 0.0
O226 O 0.58944 0.34163 0.83032 0.0
O227 O 0.59763 0.30791 0.73323 0.0
C228 C 0.62387 0.3183 0.73422 0.0
O229 O 0.63524 0.32277 0.75943 0.0
O230 O 0.53582 0.28417 0.83101 0.0
O231 O 0.53871 0.27628 0.78264 0.0
O232 O 0.52534 0.33025 0.78565 0.0
C233 C 0.59842 0.35437 0.80732 0.0
C234 C 0.51629 0.36793 0.85602 0.0
O235 O 0.60805 0.28618 0.80918 0.0
O236 O 0.60704 0.26435 0.7691 0.0
C237 C 0.4974 0.32873 0.78592 0.0
O238 O 0.48428 0.33071 0.81056 0.0
O239 O 0.51814 0.34107 0.8632 0.0
O240 O 0.27085 0.11284 0.81566 0.0
Tb241 Tb 0.31431 0.09817 0.81635 0.0
C242 C 0.37516 0.11473 0.83369 0.0
O243 O 0.29834 1.056 0.85959 0.0
Tb244 Tb 0.34404 1.06402 0.86652 0.0
C245 C 0.37649 1.02269 0.84729 0.0
O246 O 0.30233 1.05409 0.81234 0.0
O247 O 0.33654 1.046 0.90911 0.0
C248 C 0.32522 1.02008 0.90871 0.0
O249 O 0.31976 1.00856 0.88378 0.0
O250 O 0.35899 0.10886 0.8113 0.0
O251 O 0.36897 0.10381 0.85926 0.0
O252 O 0.31529 0.11763 0.85811 0.0
C253 C 0.28962 1.04506 0.8353 0.0
C254 C 0.27249 0.12686 0.7919 0.0
O255 O 0.35776 1.03616 0.83173 0.0
O256 O 0.37723 1.03293 0.87294 0.0
C257 C 0.31702 0.1456 0.85794 0.0
O258 O 0.31449 0.15887 0.8334 0.0
O259 O 0.29833 0.12521 0.78158 0.0
O260 O 0.61069 0.87842 0.37434 0.0
Tb261 Tb 0.5799 0.84499 0.36772 0.0
C262 C 0.59898 0.79074 0.33622 0.0
O263 O 0.53519 0.86014 0.31236 0.0
Tb264 Tb 0.54582 0.81537 0.31722 0.0
C265 C 0.51747 0.77361 0.29228 0.0
O266 O 0.54001 0.86979 0.36041 0.0
O267 O 0.52602 0.81607 0.35879 0.0
C268 C 0.49807 0.8177 0.35832 0.0
O269 O 0.48507 0.81521 0.33363 0.0
O270 O 0.58811 0.79931 0.36056 0.0
O271 O 0.58991 0.8036 0.31333 0.0
O272 O 0.59794 0.8372 0.41029 0.0
C273 C 0.52919 0.87614 0.33481 0.0
C274 C 0.62101 0.87782 0.34874 0.0
O275 O 0.51899 0.7996 0.28221 0.0
O276 O 0.53144 0.77179 0.31607 0.0
C277 C 0.6239 0.82602 0.40985 0.0
O278 O 0.63546 0.82088 0.38489 0.0
O279 O 0.60774 0.85901 0.33309 0.0
O280 O 0.87318 1.03302 0.81572 0.0
Tb281 Tb 0.82952 1.04712 0.81671 0.0
C282 C 0.76899 1.02989 0.83412 0.0
O283 O 0.84462 0.09021 0.85992 0.0
Tb284 Tb 0.79917 0.08108 0.86706 0.0
C285 C 0.76439 0.12094 0.84864 0.0
O286 O 0.84064 0.09141 0.81259 0.0
O287 O 0.80692 0.09947 0.90939 0.0
C288 C 0.81704 0.12584 0.90851 0.0
O289 O 0.8211 0.13746 0.88337 0.0
O290 O 0.78495 1.0359 0.81168 0.0
O291 O 0.77541 1.04065 0.85969 0.0
O292 O 0.82912 1.02778 0.85853 0.0
C293 C 0.85317 0.10092 0.83549 0.0
C294 C 0.87148 1.01887 0.79203 0.0
O295 O 0.78504 0.11013 0.83343 0.0
O296 O 0.76332 0.10897 0.87354 0.0
C297 C 0.82777 0.99979 0.85846 0.0
O298 O 0.83041 0.98649 0.83396 0.0
O299 O 0.84553 1.02022 0.7819 0.0
O300 O 0.61086 0.37311 0.31589 0.0
Tb301 Tb 0.59691 0.32937 0.31681 0.0
C302 C 0.61419 0.2687 0.33402 0.0
O303 O 0.55397 0.34432 0.36011 0.0
Tb304 Tb 0.56311 0.29879 0.36715 0.0
C305 C 0.52326 0.26407 0.34866 0.0
O306 O 0.55266 0.34047 0.31278 0.0
O307 O 0.54479 0.30635 0.40953 0.0
C308 C 0.51843 0.31648 0.4087 0.0
O309 O 0.50679 0.3207 0.38358 0.0
O310 O 0.60811 0.28476 0.31163 0.0
O311 O 0.60349 0.27502 0.35962 0.0
O312 O 0.6163 0.32878 0.35862 0.0
C313 C 0.54323 0.35297 0.33571 0.0
C314 C 0.62502 0.3715 0.29224 0.0
O315 O 0.53398 0.28484 0.33353 0.0
O316 O 0.53532 0.26284 0.37352 0.0
C317 C 0.64426 0.3275 0.35854 0.0
O318 O 0.65753 0.33037 0.33407 0.0
O319 O 0.62378 0.34553 0.28208 0.0
O320 O 0.32707 0.27062 1.03226 0.0
Tb321 Tb 0.32598 0.3143 1.04645 0.0
C322 C 0.30882 0.37499 1.02912 0.0
O323 O 0.2824 0.29929 0.08914 0.0
Tb324 Tb 0.27549 0.34485 0.08006 0.0
C325 C 0.29402 0.37947 0.11999 0.0
O326 O 0.3297 0.30305 0.09073 0.0
O327 O 0.23314 0.33738 0.09842 0.0
C328 C 0.23393 0.32721 0.12478 0.0
O329 O 0.25902 0.32289 0.13641 0.0
O330 O 0.33116 0.35893 1.03534 0.0
O331 O 0.28318 0.36868 1.03969 0.0
O332 O 0.28432 0.3149 1.02681 0.0
C333 C 0.30671 0.29059 0.10002 0.0
C334 C 0.35086 0.27232 1.01834 0.0
O335 O 0.30913 0.35873 0.10918 0.0
O336 O 0.26916 0.38073 0.10797 0.0
C337 C 0.28453 0.31619 0.99883 0.0
O338 O 0.30903 0.3133 0.98566 0.0
O339 O 0.36097 0.29828 1.01982 0.0
O340 O 0.32795 0.87412 0.11155 0.0
Tb341 Tb 0.3267 0.83041 0.09752 0.0
C342 C 0.30935 0.76984 0.11489 0.0
O343 O 0.283 0.84561 1.05487 0.0
Tb344 Tb 0.27605 0.80003 1.06387 0.0
C345 C 0.29467 0.76564 1.02379 0.0
O346 O 0.33029 0.84167 1.05324 0.0
O347 O 0.23359 0.8074 1.04562 0.0
C348 C 0.2342 0.81771 1.01931 0.0
O349 O 0.25921 0.82227 1.00765 0.0
O350 O 0.33176 0.78576 0.1086 0.0
O351 O 0.28373 0.77622 0.10426 0.0
O352 O 0.28521 0.82991 0.11742 0.0
C353 C 0.30731 0.85424 1.04399 0.0
C354 C 0.35165 0.87235 0.12565 0.0
O355 O 0.3097 0.78637 1.03472 0.0
O356 O 0.26984 0.76422 1.0358 0.0
C357 C 0.28571 0.82864 0.1454 0.0
O358 O 0.31036 0.83149 0.15836 0.0
O359 O 0.36167 0.84634 0.1243 0.0
O360 O 0.77113 0.82772 0.61393 0.0
Tb361 Tb 0.81438 0.82654 0.59889 0.0
C362 C 0.87573 0.80965 0.61351 0.0
O363 O 0.79829 0.78264 0.55602 0.0
Tb364 Tb 0.84409 0.776 0.5637 0.0
C365 C 0.87736 0.79448 0.52267 0.0
O366 O 0.80185 0.83002 0.55488 0.0
O367 O 0.83651 0.73351 0.54558 0.0
C368 C 0.82549 0.73421 0.51957 0.0
O369 O 0.82039 0.75928 0.50818 0.0
O370 O 0.85948 0.83198 0.60769 0.0
O371 O 0.86896 0.7839 0.60338 0.0
O372 O 0.81578 0.78571 0.62028 0.0
C373 C 0.78923 0.80705 0.54566 0.0
C374 C 0.77311 0.85172 0.62751 0.0
O375 O 0.85689 0.80957 0.534 0.0
O376 O 0.87914 0.76971 0.53483 0.0
C377 C 0.82211 0.78746 0.64754 0.0
O378 O 0.82384 0.8129 0.65915 0.0
O379 O 0.79898 0.86192 0.62543 0.0
O380 O 0.8169 0.27103 0.11094 0.0
Tb381 Tb 0.81768 0.31484 0.09711 0.0
C382 C 0.83466 0.37544 0.11479 0.0
O383 O 0.861 0.30046 1.05396 0.0
Tb384 Tb 0.86786 0.34596 1.06338 0.0
C385 C 0.84907 0.38089 1.02382 0.0
O386 O 0.81369 0.30415 1.05274 0.0
O387 O 0.91015 0.33858 1.04485 0.0
C388 C 0.90925 0.32867 1.0184 0.0
O389 O 0.88412 0.32461 1.00678 0.0
O390 O 0.81236 0.35934 0.10859 0.0
O391 O 0.86027 0.36934 0.10401 0.0
O392 O 0.85944 0.31549 0.11655 0.0
C393 C 0.83663 0.2918 1.0432 0.0
C394 C 0.79313 0.27249 0.12491 0.0
O395 O 0.83411 0.35995 1.03443 0.0
O396 O 0.87394 0.38216 1.03582 0.0
C397 C 0.85934 0.31656 0.14454 0.0
O398 O 0.83492 0.31337 0.15778 0.0
O399 O 0.78285 0.2984 0.12365 0.0
O400 O 0.26304 0.37442 0.53584 0.0
Tb401 Tb 0.299 0.36793 0.56361 0.0
C402 C 0.35288 0.33624 0.54357 0.0
O403 O 0.28474 0.31237 0.60847 0.0
Tb404 Tb 0.32932 0.31719 0.59726 0.0
C405 C 0.37124 0.29216 0.62534 0.0
O406 O 0.27542 0.3605 0.60412 0.0
O407 O 0.32909 0.35883 0.61699 0.0
C408 C 0.32794 0.35847 0.64497 0.0
O409 O 0.33076 0.33384 0.65801 0.0
O410 O 0.34441 0.36065 0.55441 0.0
O411 O 0.34029 0.31333 0.55295 0.0
O412 O 0.3067 0.41025 0.54513 0.0
C413 C 0.26896 0.33489 0.61477 0.0
C414 C 0.26407 0.34949 0.52391 0.0
O415 O 0.34521 0.28224 0.62411 0.0
O416 O 0.37304 0.3158 0.61112 0.0
C417 C 0.31674 0.40935 0.51874 0.0
O418 O 0.32078 0.38419 0.50714 0.0
O419 O 0.28477 0.33427 0.53467 0.0
O420 O 0.81706 0.87401 1.03245 0.0
Tb421 Tb 0.81796 0.83017 1.04614 0.0
C422 C 0.83491 0.76952 1.02859 0.0
O423 O 0.86135 0.84474 0.08924 0.0
Tb424 Tb 0.86837 0.79925 0.07988 0.0
C425 C 0.84963 0.76446 0.11953 0.0
O426 O 0.81407 0.84088 0.09051 0.0
O427 O 0.9107 0.80673 0.09849 0.0
C428 C 0.90986 0.81671 0.12493 0.0
O429 O 0.88474 0.8208 0.13653 0.0
O430 O 0.81262 0.78565 1.03478 0.0
O431 O 0.86056 0.77565 1.03933 0.0
O432 O 0.85958 0.82947 1.02651 0.0
C433 C 0.83699 0.85331 0.10004 0.0
C434 C 0.79333 0.87254 1.01835 0.0
O435 O 0.83464 0.78534 0.1088 0.0
O436 O 0.87451 0.76316 0.1076 0.0
C437 C 0.85925 0.82838 0.99852 0.0
O438 O 0.83471 0.83153 0.98542 0.0
O439 O 0.78313 0.84659 1.01948 0.0
O440 O 0.76954 0.3162 0.53217 0.0
Tb441 Tb 0.8133 0.31763 0.54598 0.0
C442 C 0.87362 0.33518 0.52805 0.0
O443 O 0.79845 0.36128 0.58871 0.0
Tb444 Tb 0.84384 0.36843 0.57928 0.0
C445 C 0.87887 0.35007 0.61894 0.0
O446 O 0.80249 0.31395 0.59035 0.0
O447 O 0.83626 0.41085 0.59764 0.0
C448 C 0.82632 0.41008 0.62407 0.0
O449 O 0.82229 0.38497 0.6358 0.0
O450 O 0.85779 0.31272 0.53443 0.0
O451 O 0.86729 0.36082 0.53871 0.0
O452 O 0.81341 0.35938 0.52647 0.0
C453 C 0.78997 0.33693 0.59967 0.0
C454 C 0.7713 0.29241 0.51819 0.0
O455 O 0.85812 0.33485 0.6083 0.0
O456 O 0.8799 0.37495 0.60691 0.0
C457 C 0.81432 0.35928 0.49848 0.0
O458 O 0.81126 0.3348 0.48521 0.0
O459 O 0.79733 0.2825 0.51943 0.0
O460 O 0.26649 0.77081 0.61294 0.0
Tb461 Tb 0.29932 0.77689 0.58146 0.0
C462 C 0.35377 0.80828 0.59987 0.0
O463 O 0.28374 0.83189 0.53651 0.0
Tb464 Tb 0.32857 0.82702 0.54684 0.0
C465 C 0.37017 0.85133 0.51785 0.0
O466 O 0.27403 0.7839 0.54181 0.0
O467 O 0.3275 0.78529 0.52733 0.0
C468 C 0.32541 0.7856 0.49939 0.0
O469 O 0.32765 0.81023 0.48624 0.0
O470 O 0.34506 0.78392 0.58911 0.0
O471 O 0.34091 0.83119 0.59081 0.0
O472 O 0.30703 0.73439 0.59968 0.0
C473 C 0.26762 0.80942 0.53085 0.0
C474 C 0.26727 0.7966 0.62285 0.0
O475 O 0.34437 0.86177 0.5197 0.0
O476 O 0.37189 0.82755 0.53185 0.0
C477 C 0.31858 0.73492 0.6255 0.0
O478 O 0.32409 0.75992 0.63685 0.0
O479 O 0.28579 0.81202 0.609 0.0
H480 H 0.11823 0.26422 0.25683 0.0
H481 H 0.11889 0.35599 0.26366 0.0
H482 H 0.14571 0.26728 0.21289 0.0
H483 H 0.147 0.35907 0.22001 0.0
H484 H 0.184 0.35816 0.13026 0.0
H485 H 0.14839 0.35276 0.16836 0.0
H486 H 0.19303 0.27828 0.19909 0.0
H487 H 0.22771 0.28349 0.16123 0.0
C488 C 0.12428 0.28508 0.24901 0.0
C489 C 0.11642 0.30983 0.26396 0.0
C490 C 0.14013 0.28686 0.22375 0.0
C491 C 0.14871 0.31346 0.21269 0.0
C492 C 0.14049 0.33824 0.2275 0.0
C493 C 0.12461 0.33645 0.25279 0.0
C494 C 0.18551 0.34017 0.14464 0.0
C495 C 0.20854 0.32117 0.14265 0.0
C496 C 0.16541 0.33728 0.16677 0.0
C497 C 0.16784 0.31517 0.18711 0.0
C498 C 0.19007 0.29537 0.18386 0.0
C499 C 0.21009 0.29839 0.16207 0.0
H500 H 0.38143 0.6179 0.75688 0.0
H501 H 0.28979 0.61862 0.76378 0.0
H502 H 0.37829 0.64571 0.71308 0.0
H503 H 0.28662 0.6471 0.72034 0.0
H504 H 0.28709 0.68525 0.63109 0.0
H505 H 0.29249 0.64927 0.66891 0.0
H506 H 0.36758 0.69298 0.69934 0.0
H507 H 0.36244 0.72796 0.6617 0.0
C508 C 0.36058 0.62403 0.74909 0.0
C509 C 0.33589 0.61608 0.76403 0.0
C510 C 0.35875 0.64008 0.72393 0.0
C511 C 0.33216 0.64881 0.71295 0.0
C512 C 0.30744 0.64049 0.72774 0.0
C513 C 0.30929 0.62438 0.75291 0.0
C514 C 0.3052 0.68649 0.64535 0.0
C515 C 0.32439 0.70936 0.64332 0.0
C516 C 0.3081 0.66617 0.66733 0.0
C517 C 0.33039 0.66821 0.68751 0.0
C518 C 0.35034 0.69029 0.68423 0.0
C519 C 0.34734 0.71051 0.66258 0.0
H520 H 0.9155 0.86007 0.16195 0.0
H521 H 0.96043 0.7866 0.12997 0.0
H522 H 0.95038 0.86559 0.19965 0.0
H523 H 0.99625 0.79234 0.16792 0.0
H524 H 1.02678 0.78885 0.26296 0.0
H525 H 0.99842 0.7856 0.21944 0.0
H526 H 0.99753 0.87747 0.21336 0.0
H527 H 1.0253 0.88067 0.2572 0.0
C528 C 0.9334 0.84549 0.16255 0.0
C529 C 0.93523 0.82295 0.14286 0.0
C530 C 0.95355 0.84871 0.18424 0.0
C531 C 0.97622 0.82936 0.18717 0.0
C532 C 0.97889 0.80749 0.1666 0.0
C533 C 0.95866 0.8044 0.14455 0.0
C534 C 1.02056 0.80838 0.25234 0.0
C535 C 1.02821 0.83505 0.26381 0.0
C536 C 1.00451 0.8065 0.22712 0.0
C537 C 0.99558 0.83124 0.21264 0.0
C538 C 1.00365 0.8579 0.22396 0.0
C539 C 1.01968 0.85977 0.24916 0.0
H540 H 0.85499 0.52626 0.76231 0.0
H541 H 0.76329 0.52623 0.75592 0.0
H542 H 0.85803 0.49791 0.71877 0.0
H543 H 0.7663 0.49848 0.71209 0.0
H544 H 0.78291 0.41611 0.66082 0.0
H545 H 0.77765 0.45103 0.69854 0.0
H546 H 0.85137 0.49621 0.66711 0.0
H547 H 0.85682 0.46038 0.62914 0.0
C548 C 0.83545 0.52035 0.75155 0.0
C549 C 0.80887 0.52842 0.76283 0.0
C550 C 0.83722 0.50432 0.72633 0.0
C551 C 0.81244 0.49582 0.71168 0.0
C552 C 0.78588 0.50428 0.72283 0.0
C553 C 0.78412 0.5203 0.74801 0.0
C554 C 0.79763 0.43389 0.66148 0.0
C555 C 0.82021 0.43553 0.64189 0.0
C556 C 0.79458 0.45405 0.68318 0.0
C557 C 0.81416 0.47651 0.6862 0.0
C558 C 0.83606 0.47901 0.6657 0.0
C559 C 0.83898 0.45878 0.64366 0.0
H560 H 0.11743 0.8799 0.8876 0.0
H561 H 0.11909 0.78817 0.88042 0.0
H562 H 0.14497 0.87696 0.93157 0.0
H563 H 0.14726 0.78522 0.92412 0.0
H564 H 0.18457 0.78628 1.01386 0.0
H565 H 0.14875 0.79142 0.97583 0.0
H566 H 0.1925 0.86639 0.94519 0.0
H567 H 0.2274 0.86144 0.98297 0.0
C568 C 0.1237 0.85907 0.89536 0.0
C569 C 0.11612 0.8343 0.88029 0.0
C570 C 0.13959 0.85736 0.92064 0.0
C571 C 0.14848 0.83082 0.9316 0.0
C572 C 0.1405 0.80601 0.9167 0.0
C573 C 0.12458 0.80772 0.89139 0.0
C574 C 0.18584 0.80432 0.99951 0.0
C575 C 0.20868 0.82354 1.0015 0.0
C576 C 0.16562 0.80706 0.97743 0.0
C577 C 0.16774 0.82924 0.95713 0.0
C578 C 0.18978 0.84924 0.96039 0.0
C579 C 0.20992 0.84637 0.98213 0.0
H580 H 0.7631 0.61829 0.38728 0.0
H581 H 0.85469 0.62022 0.37988 0.0
H582 H 0.76612 0.64547 0.43145 0.0
H583 H 0.85773 0.6481 0.42373 0.0
H584 H 0.85714 0.68476 0.51355 0.0
H585 H 0.8519 0.64918 0.47532 0.0
H586 H 0.77644 0.69278 0.44559 0.0
H587 H 0.78146 0.72738 0.48361 0.0
C588 C 0.78391 0.62456 0.39502 0.0
C589 C 0.80862 0.61714 0.37985 0.0
C590 C 0.78567 0.64025 0.42041 0.0
C591 C 0.8122 0.64912 0.43136 0.0
C592 C 0.83695 0.64134 0.41633 0.0
C593 C 0.83518 0.6256 0.39093 0.0
C594 C 0.83898 0.68603 0.49937 0.0
C595 C 0.81965 0.70876 0.50167 0.0
C596 C 0.83617 0.66596 0.47717 0.0
C597 C 0.81384 0.66813 0.45705 0.0
C598 C 0.79372 0.69003 0.46064 0.0
C599 C 0.79664 0.71 0.48251 0.0
H600 H 1.02459 0.35696 0.87966 0.0
H601 H 1.02445 0.26517 0.88617 0.0
H602 H 0.9965 0.36016 0.92332 0.0
H603 H 0.99698 0.26833 0.93011 0.0
H604 H 0.91506 0.28512 0.9817 0.0
H605 H 0.94972 0.27976 0.94384 0.0
H606 H 0.99505 0.35362 0.97498 0.0
H607 H 0.95947 0.35918 1.0131 0.0
C608 C 1.0187 0.33744 0.89047 0.0
C609 C 1.02666 0.31078 0.8792 0.0
C610 C 1.00283 0.33929 0.91576 0.0
C611 C 0.99439 0.31453 0.93047 0.0
C612 C 1.00273 0.2879 0.91932 0.0
C613 C 1.01858 0.28605 0.89407 0.0
C614 C 0.93282 0.29985 0.98094 0.0
C615 C 0.93458 0.3225 1.00049 0.0
C616 C 0.95282 0.29674 0.95916 0.0
C617 C 0.97525 0.31633 0.95603 0.0
C618 C 0.97787 0.33831 0.97648 0.0
C619 C 0.95779 0.34129 0.99861 0.0
H620 H 0.28839 0.52524 0.38021 0.0
H621 H 0.3801 0.5249 0.38657 0.0
H622 H 0.28528 0.49699 0.42382 0.0
H623 H 0.37702 0.49725 0.43046 0.0
H624 H 0.36016 0.41509 0.48196 0.0
H625 H 0.36551 0.44988 0.44414 0.0
H626 H 0.29197 0.49545 0.47547 0.0
H627 H 0.28641 0.45975 0.51354 0.0
C628 C 0.30792 0.51927 0.39097 0.0
C629 C 0.33452 0.52722 0.37968 0.0
C630 C 0.30611 0.50331 0.41623 0.0
C631 C 0.33087 0.49476 0.43089 0.0
C632 C 0.35745 0.50309 0.41971 0.0
C633 C 0.35925 0.51904 0.39449 0.0
C634 C 0.34549 0.43293 0.48125 0.0
C635 C 0.32292 0.43472 0.50084 0.0
C636 C 0.3486 0.45301 0.45949 0.0
C637 C 0.3291 0.47554 0.45643 0.0
C638 C 0.30721 0.47819 0.47692 0.0
C639 C 0.30423 0.45804 0.49902 0.0
H640 H 0.26194 0.11858 0.3563 0.0
H641 H 0.25544 0.11835 0.26453 0.0
H642 H 0.21845 0.147 0.3593 0.0
H643 H 0.21168 0.14616 0.2675 0.0
H644 H 0.1605 0.22857 0.28379 0.0
H645 H 0.19822 0.19366 0.27871 0.0
H646 H 0.1668 0.14874 0.35265 0.0
H647 H 0.12882 0.18457 0.35792 0.0
C648 C 0.25117 0.12445 0.33674 0.0
C649 C 0.2624 0.11629 0.31015 0.0
C650 C 0.22598 0.14052 0.33848 0.0
C651 C 0.21132 0.14896 0.31367 0.0
C652 C 0.22242 0.14041 0.28711 0.0
C653 C 0.24757 0.12436 0.28537 0.0
C654 C 0.16116 0.21085 0.29861 0.0
C655 C 0.14156 0.20928 0.32119 0.0
C656 C 0.18287 0.1907 0.29565 0.0
C657 C 0.18587 0.1683 0.31533 0.0
C658 C 0.16539 0.16588 0.33726 0.0
C659 C 0.14334 0.18611 0.34007 0.0
H660 H 0.5267 0.75669 0.7651 0.0
H661 H 0.52472 0.76438 0.85674 0.0
H662 H 0.49949 0.71256 0.76816 0.0
H663 H 0.49684 0.72053 0.85982 0.0
H664 H 0.46003 0.63065 0.85916 0.0
H665 H 0.49563 0.66883 0.85399 0.0
H666 H 0.4521 0.69868 0.7785 0.0
H667 H 0.41745 0.66073 0.78347 0.0
C668 C 0.52043 0.74901 0.78593 0.0
C669 C 0.52782 0.76427 0.81065 0.0
C670 C 0.50472 0.72364 0.78771 0.0
C671 C 0.49581 0.71278 0.81427 0.0
C672 C 0.50361 0.72787 0.83903 0.0
C673 C 0.51936 0.75326 0.83724 0.0
C674 C 0.45877 0.64485 0.84101 0.0
C675 C 0.43605 0.64259 0.82165 0.0
C676 C 0.47886 0.66702 0.83824 0.0
C677 C 0.47673 0.68715 0.81591 0.0
C678 C 0.45483 0.68362 0.79577 0.0
C679 C 0.43483 0.66178 0.79866 0.0
H680 H 1.0135 0.95955 0.35887 0.0
H681 H 0.98331 0.91723 0.28308 0.0
H682 H 0.97547 0.99534 0.3537 0.0
H683 H 0.94551 0.95205 0.27813 0.0
H684 H 0.88767 1.02682 0.2648 0.0
H685 H 0.93171 0.9995 0.26785 0.0
H686 H 0.92388 0.99675 0.35951 0.0
H687 H 0.88013 1.02476 0.35645 0.0
C688 C 0.9993 0.95839 0.3407 0.0
C689 C 1.00148 0.93568 0.32131 0.0
C690 C 0.97722 0.97859 0.33794 0.0
C691 C 0.95711 0.97658 0.31558 0.0
C692 C 0.96056 0.95469 0.29542 0.0
C693 C 0.98231 0.93458 0.2983 0.0
C694 C 0.89537 1.0205 0.28564 0.0
C695 C 0.88018 1.02791 0.31035 0.0
C696 C 0.92068 1.00473 0.28741 0.0
C697 C 0.93155 0.99575 0.31396 0.0
C698 C 0.91653 1.00357 0.33872 0.0
C699 C 0.8912 1.0194 0.33694 0.0
H700 H 0.6838 0.51502 0.85655 0.0
H701 H 0.72761 0.48311 0.78242 0.0
H702 H 0.64812 0.47688 0.85146 0.0
H703 H 0.69283 0.44523 0.77752 0.0
H704 H 0.61764 0.38786 0.76355 0.0
H705 H 0.64539 0.43168 0.76641 0.0
H706 H 0.64644 0.42519 0.85822 0.0
H707 H 0.61808 0.38163 0.85533 0.0
C708 C 0.68534 0.5004 0.83875 0.0
C709 C 0.70842 0.50216 0.81981 0.0
C710 C 0.66519 0.47826 0.83604 0.0
C711 C 0.66759 0.45768 0.81416 0.0
C712 C 0.6899 0.46066 0.79444 0.0
C713 C 0.70997 0.48245 0.79728 0.0
C714 C 0.62368 0.3958 0.78438 0.0
C715 C 0.61569 0.38103 0.80919 0.0
C716 C 0.6397 0.42098 0.78604 0.0
C717 C 0.6483 0.43218 0.81258 0.0
C718 C 0.63993 0.41758 0.83742 0.0
C719 C 0.62389 0.39235 0.83575 0.0
H720 H 0.26302 1.02425 0.78742 0.0
H721 H 0.25525 1.0275 0.87901 0.0
H722 H 0.21935 0.99611 0.78461 0.0
H723 H 0.21127 1.00008 0.87622 0.0
H724 H 0.15956 0.91776 0.86213 0.0
H725 H 0.19736 0.95262 0.86667 0.0
H726 H 0.16783 0.99459 0.79017 0.0
H727 H 0.12984 0.95874 0.78542 0.0
C728 C 0.25192 1.01912 0.80697 0.0
C729 C 0.26285 1.02801 0.83347 0.0
C730 C 0.22663 1.00321 0.80533 0.0
C731 C 0.21155 0.99571 0.83016 0.0
C732 C 0.22234 1.00505 0.85661 0.0
C733 C 0.24762 1.02089 0.85824 0.0
C734 C 0.16065 0.93485 0.84662 0.0
C735 C 0.1416 0.93555 0.82349 0.0
C736 C 0.1824 0.95498 0.84925 0.0
C737 C 0.18599 0.9765 0.82872 0.0
C738 C 0.166 0.97812 0.80623 0.0
C739 C 0.14392 0.95789 0.8037 0.0
H740 H 0.61767 0.75663 0.37978 0.0
H741 H 0.61862 0.76383 0.28808 0.0
H742 H 0.64511 0.71261 0.37665 0.0
H743 H 0.64667 0.72009 0.28492 0.0
H744 H 0.68373 0.63027 0.28566 0.0
H745 H 0.64803 0.66836 0.29111 0.0
H746 H 0.69255 0.69893 0.36571 0.0
H747 H 0.72733 0.6611 0.36046 0.0
C748 C 0.62376 0.74886 0.35892 0.0
C749 C 0.61601 0.76395 0.33421 0.0
C750 C 0.63959 0.72356 0.35709 0.0
C751 C 0.64825 0.71259 0.3305 0.0
C752 C 0.6401 0.72752 0.30575 0.0
C753 C 0.62425 0.75285 0.30759 0.0
C754 C 0.6852 0.64462 0.30369 0.0
C755 C 0.70822 0.64259 0.32271 0.0
C756 C 0.66505 0.66673 0.30661 0.0
C757 C 0.66742 0.68702 0.32876 0.0
C758 C 0.68964 0.68373 0.34858 0.0
C759 C 0.70972 0.66197 0.34553 0.0
H760 H 0.88034 0.12016 0.78733 0.0
H761 H 0.88672 0.1204 0.87911 0.0
H762 H 0.92396 0.14834 0.78424 0.0
H763 H 0.93061 0.14795 0.87605 0.0
H764 H 0.98217 0.22999 0.85941 0.0
H765 H 0.9443 0.19529 0.86463 0.0
H766 H 0.97559 0.14986 0.79093 0.0
H767 H 1.01372 0.18548 0.78551 0.0
C768 C 0.89111 0.12609 0.80687 0.0
C769 C 0.87982 0.11813 0.83349 0.0
C770 C 0.91637 0.14201 0.80508 0.0
C771 C 0.93104 0.15051 0.82986 0.0
C772 C 0.91986 0.14216 0.85646 0.0
C773 C 0.89464 0.12626 0.85824 0.0
C774 C 0.98144 0.2122 0.84468 0.0
C775 C 1.00104 0.21043 0.82212 0.0
C776 C 0.95965 0.19217 0.84771 0.0
C777 C 0.95657 0.1697 0.82813 0.0
C778 C 0.97706 0.16707 0.80624 0.0
C779 C 0.99919 0.18718 0.80334 0.0
H780 H 0.52406 0.3866 0.37937 0.0
H781 H 0.52395 0.3803 0.28759 0.0
H782 H 0.49674 0.4307 0.37636 0.0
H783 H 0.49599 0.42411 0.28455 0.0
H784 H 0.45923 0.51409 0.28579 0.0
H785 H 0.4947 0.47577 0.29119 0.0
H786 H 0.44952 0.4447 0.36508 0.0
H787 H 0.41498 0.48276 0.35989 0.0
C788 C 0.51817 0.39458 0.35852 0.0
C789 C 0.52613 0.37972 0.33375 0.0
C790 C 0.5024 0.41992 0.35676 0.0
C791 C 0.49403 0.43118 0.33018 0.0
C792 C 0.50235 0.41647 0.30538 0.0
C793 C 0.51815 0.39109 0.30714 0.0
C794 C 0.45757 0.49957 0.30366 0.0
C795 C 0.43443 0.50153 0.3225 0.0
C796 C 0.47759 0.47733 0.30654 0.0
C797 C 0.47497 0.45684 0.32848 0.0
C798 C 0.45262 0.46005 0.34813 0.0
C799 C 0.43269 0.48195 0.34511 0.0
H800 H 0.2629 0.25712 0.11904 0.0
H801 H 0.35461 0.2632 0.11968 0.0
H802 H 0.26565 0.21313 0.14658 0.0
H803 H 0.35739 0.2195 0.14784 0.0
H804 H 0.35572 0.12963 0.18488 0.0
H805 H 0.35064 0.16786 0.14926 0.0
H806 H 0.27662 0.19926 0.19396 0.0
H807 H 0.28149 0.16128 0.22865 0.0
C808 C 0.28368 0.24912 0.12509 0.0
C809 C 0.30851 0.26388 0.11722 0.0
C810 C 0.28529 0.22384 0.14098 0.0
C811 C 0.31178 0.21255 0.14957 0.0
C812 C 0.33664 0.22716 0.14133 0.0
C813 C 0.33502 0.25248 0.12541 0.0
C814 C 0.3379 0.14421 0.18641 0.0
C815 C 0.31893 0.14236 0.20946 0.0
C816 C 0.33519 0.1664 0.16631 0.0
C817 C 0.31331 0.18696 0.16874 0.0
C818 C 0.29354 0.18387 0.191 0.0
C819 C 0.29638 0.16202 0.21103 0.0
H820 H 0.35522 0.88082 1.02342 0.0
H821 H 0.26366 0.88852 1.02586 0.0
H822 H 0.35813 0.92447 0.99522 0.0
H823 H 0.26656 0.93251 0.99838 0.0
H824 H 0.28113 0.9844 0.91627 0.0
H825 H 0.2764 0.94654 0.95107 0.0
H826 H 0.35256 0.976 0.99359 0.0
H827 H 0.35752 1.01405 0.95779 0.0
C828 C 0.33569 0.8919 1.01809 0.0
C829 C 0.30918 0.88095 1.02679 0.0
C830 C 0.33739 0.91719 1.00215 0.0
C831 C 0.31262 0.93227 0.99441 0.0
C832 C 0.28614 0.92144 1.00354 0.0
C833 C 0.28444 0.89616 1.01941 0.0
C834 C 0.29654 0.98328 0.93346 0.0
C835 C 0.31964 1.00233 0.93433 0.0
C836 C 0.29378 0.9615 0.95356 0.0
C837 C 0.31416 0.95786 0.97522 0.0
C838 C 0.33663 0.97786 0.97701 0.0
C839 C 0.33927 0.99997 0.95681 0.0
H840 H 0.65993 0.78206 0.41692 0.0
H841 H 0.62947 0.85758 0.45948 0.0
H842 H 0.69757 0.77698 0.45191 0.0
H843 H 0.66731 0.85226 0.49546 0.0
H844 H 0.76224 0.85511 0.52587 0.0
H845 H 0.71872 0.85818 0.49752 0.0
H846 H 0.71143 0.7664 0.49918 0.0
H847 H 0.7553 0.76337 0.52686 0.0
C848 C 0.66083 0.7972 0.43436 0.0
C849 C 0.64161 0.82017 0.43547 0.0
C850 C 0.68249 0.79424 0.45457 0.0
C851 C 0.68583 0.81427 0.4766 0.0
C852 C 0.66568 0.83659 0.4786 0.0
C853 C 0.64368 0.83944 0.45829 0.0
C854 C 0.75134 0.83557 0.5202 0.0
C855 C 0.76248 0.80897 0.52853 0.0
C856 C 0.72613 0.83735 0.50417 0.0
C857 C 0.71131 0.81257 0.49595 0.0
C858 C 0.7223 0.78599 0.50472 0.0
C859 C 0.74751 0.78422 0.52071 0.0
H860 H 0.8803 0.25832 1.02382 0.0
H861 H 0.78858 0.26448 1.02394 0.0
H862 H 0.8773 0.21429 0.99636 0.0
H863 H 0.78555 0.22075 0.99585 0.0
H864 H 0.78672 0.13102 0.95883 0.0
H865 H 0.79228 0.16913 0.99449 0.0
H866 H 0.86587 0.20045 0.94906 0.0
H867 H 0.86053 0.16258 0.91432 0.0
C868 C 0.85947 0.25033 1.01795 0.0
C869 C 0.83471 0.26511 1.02601 0.0
C870 C 0.85772 0.22502 1.00211 0.0
C871 C 0.83115 0.21376 0.99377 0.0
C872 C 0.80637 0.2284 1.00219 0.0
C873 C 0.80813 0.25373 1.01805 0.0
C874 C 0.80456 0.14554 0.95714 0.0
C875 C 0.82325 0.14372 0.93388 0.0
C876 C 0.80754 0.16766 0.97728 0.0
C877 C 0.82943 0.18817 0.97463 0.0
C878 C 0.84896 0.18509 0.95217 0.0
C879 C 0.84585 0.1633 0.93212 0.0
H880 H 0.38661 0.3798 0.52441 0.0
H881 H 0.37983 0.28803 0.52406 0.0
H882 H 0.4305 0.37665 0.4969 0.0
H883 H 0.42343 0.28485 0.49591 0.0
H884 H 0.5131 0.28573 0.4588 0.0
H885 H 0.47507 0.29123 0.49448 0.0
H886 H 0.44415 0.36545 0.44953 0.0
H887 H 0.48194 0.36016 0.41478 0.0
C888 C 0.39444 0.35892 0.51843 0.0
C889 C 0.37951 0.3342 0.52638 0.0
C890 C 0.41966 0.35709 0.50255 0.0
C891 C 0.43072 0.33046 0.49405 0.0
C892 C 0.41594 0.30571 0.50237 0.0
C893 C 0.39069 0.30755 0.51827 0.0
C894 C 0.49869 0.30369 0.45723 0.0
C895 C 0.5006 0.32259 0.4341 0.0
C896 C 0.4766 0.30664 0.47737 0.0
C897 C 0.45624 0.3287 0.47487 0.0
C898 C 0.45941 0.3484 0.45254 0.0
C899 C 0.48115 0.34533 0.43248 0.0
H900 H 0.78892 0.87994 0.12015 0.0
H901 H 0.88052 0.88739 0.11877 0.0
H902 H 0.78577 0.92355 0.14838 0.0
H903 H 0.87739 0.93134 0.1463 0.0
H904 H 0.86191 0.98315 0.22829 0.0
H905 H 0.86695 0.94528 0.19356 0.0
H906 H 0.7915 0.9751 0.15001 0.0
H907 H 0.78621 1.01317 0.18574 0.0
C908 C 0.80841 0.89095 0.12573 0.0
C909 C 0.835 0.87996 0.11731 0.0
C910 C 0.80658 0.91622 0.14168 0.0
C911 C 0.83129 0.93121 0.14971 0.0
C912 C 0.85786 0.92034 0.1409 0.0
C913 C 0.85968 0.89508 0.125 0.0
C914 C 0.84672 0.9821 0.21091 0.0
C915 C 0.8237 1.00125 0.20973 0.0
C916 C 0.84966 0.96031 0.19085 0.0
C917 C 0.82957 0.95679 0.1689 0.0
C918 C 0.80721 0.97688 0.16681 0.0
C919 C 0.80437 0.99899 0.18698 0.0
H920 H 0.66077 0.36167 0.72829 0.0
H921 H 0.62933 0.2874 0.68422 0.0
H922 H 0.69874 0.36666 0.6937 0.0
H923 H 0.66756 0.2926 0.6487 0.0
H924 H 0.76282 0.28887 0.61925 0.0
H925 H 0.71918 0.28593 0.64739 0.0
H926 H 0.71253 0.37776 0.64633 0.0
H927 H 0.75643 0.38067 0.61882 0.0
C928 C 0.66155 0.3468 0.71062 0.0
C929 C 0.64195 0.3242 0.70894 0.0
C930 C 0.68339 0.3497 0.69066 0.0
C931 C 0.68653 0.32996 0.66834 0.0
C932 C 0.66605 0.30803 0.66579 0.0
C933 C 0.64386 0.30526 0.68584 0.0
C934 C 0.75205 0.30845 0.62503 0.0
C935 C 0.76334 0.33503 0.6169 0.0
C936 C 0.72678 0.30674 0.64093 0.0
C937 C 0.7121 0.33158 0.64921 0.0
C938 C 0.72328 0.35814 0.6407 0.0
C939 C 0.74852 0.35983 0.62483 0.0
H940 H 0.38024 0.85634 0.62041 0.0
H941 H 0.38831 0.76471 0.61762 0.0
H942 H 0.42392 0.85936 0.64857 0.0
H943 H 0.4323 0.76772 0.64506 0.0
H944 H 0.48391 0.78231 0.72737 0.0
H945 H 0.44612 0.77756 0.6925 0.0
H946 H 0.47547 0.85388 0.65018 0.0
H947 H 0.51346 0.85886 0.68604 0.0
C948 C 0.39142 0.83682 0.62564 0.0
C949 C 0.38056 0.81025 0.61688 0.0
C950 C 0.41671 0.83859 0.64155 0.0
C951 C 0.43187 0.81382 0.6492 0.0
C952 C 0.42116 0.78729 0.63997 0.0
C953 C 0.39588 0.78553 0.62412 0.0
C954 C 0.48278 0.79775 0.71021 0.0
C955 C 0.50178 0.8209 0.70941 0.0
C956 C 0.46104 0.79498 0.69007 0.0
C957 C 0.45741 0.8154 0.66844 0.0
C958 C 0.47734 0.83791 0.66673 0.0
C959 C 0.49941 0.84057 0.68697 0.0
H960 H 0.90952 0.80664 1.01907 0.0
H961 H 0.86431 0.82568 0.94108 0.0
H962 H 0.94849 0.78612 0.99127 0.0
H963 H 0.9032 0.80606 0.91352 0.0
H964 H 0.96768 0.76275 0.86511 0.0
H965 H 0.92896 0.76358 0.90003 0.0
H966 H 0.98475 0.80494 0.96062 0.0
H967 H 1.02318 0.80326 0.92623 0.0
C968 C 0.908 0.80662 0.99604 0.0
C969 C 0.88399 0.81798 0.98224 0.0
C970 C 0.93018 0.79469 0.98014 0.0
C971 C 0.92879 0.79406 0.95017 0.0
C972 C 0.90467 0.8054 0.93655 0.0
C973 C 0.88255 0.81715 0.95237 0.0
C974 C 0.97187 0.77074 0.88636 0.0
C975 C 0.99807 0.78338 0.89297 0.0
C976 C 0.94969 0.77158 0.90623 0.0
C977 C 0.95358 0.78511 0.93279 0.0
C978 C 0.98094 0.79443 0.94043 0.0
C979 C 1.00297 0.79356 0.92066 0.0
H980 H 0.83575 0.40951 0.51946 0.0
H981 H 0.81713 0.36483 0.44107 0.0
H982 H 0.8564 0.44871 0.49205 0.0
H983 H 0.83685 0.40398 0.41388 0.0
H984 H 0.84009 0.52402 0.42736 0.0
H985 H 0.838 0.48532 0.4615 0.0
H986 H 0.87946 0.42968 0.40091 0.0
H987 H 0.88067 0.46866 0.36622 0.0
C988 C 0.83587 0.40815 0.49642 0.0
C989 C 0.82463 0.3842 0.4824 0.0
C990 C 0.84788 0.43047 0.48074 0.0
C991 C 0.84867 0.4293 0.45078 0.0
C992 C 0.83739 0.40528 0.43692 0.0
C993 C 0.82557 0.38301 0.45253 0.0
C994 C 0.84972 0.50379 0.42174 0.0
C995 C 0.86002 0.49901 0.3941 0.0
C996 C 0.84862 0.48159 0.44137 0.0
C997 C 0.85784 0.4542 0.43363 0.0
C998 C 0.87152 0.45043 0.40717 0.0
C999 C 0.87258 0.47277 0.38744 0.0
H1000 H 0.17516 0.38264 0.86639 0.0
H1001 H 0.12005 0.34128 0.92717 0.0
H1002 H 0.21402 0.38155 0.90122 0.0
H1003 H 0.15864 0.33932 0.96145 0.0
H1004 H 0.2342 0.33735 1.01971 0.0
H1005 H 0.19497 0.3579 0.99222 0.0
H1006 H 0.24003 0.33907 0.91416 0.0
H1007 H 0.27919 0.31943 0.94143 0.0
C1008 C 0.17108 0.37439 0.88756 0.0
C1009 C 0.14495 0.36159 0.89407 0.0
C1010 C 0.19334 0.3734 0.90737 0.0
C1011 C 0.18962 0.35956 0.93378 0.0
C1012 C 0.16233 0.35007 0.94137 0.0
C1013 C 0.14019 0.3511 0.92166 0.0
C1014 C 0.23562 0.33762 0.99668 0.0
C1015 C 0.25965 0.32657 0.98271 0.0
C1016 C 0.21328 0.34956 0.98096 0.0
C1017 C 0.21453 0.35052 0.951 0.0
C1018 C 0.23866 0.33948 0.9372 0.0
C1019 C 0.26093 0.32771 0.95285 0.0
H1020 H 0.30473 0.62086 0.4275 0.0
H1021 H 0.26076 0.67475 0.3673 0.0
H1022 H 0.30555 0.65936 0.46192 0.0
H1023 H 0.26069 0.71349 0.40229 0.0
H1024 H 0.32113 0.78055 0.44206 0.0
H1025 H 0.30227 0.74095 0.41491 0.0
H1026 H 0.28597 0.69492 0.49303 0.0
H1027 H 0.30571 0.73468 0.52041 0.0
C1028 C 0.29414 0.64068 0.42214 0.0
C1029 C 0.28321 0.64519 0.39466 0.0
C1030 C 0.29448 0.66276 0.44195 0.0
C1031 C 0.28387 0.68974 0.43456 0.0
C1032 C 0.26968 0.69308 0.40828 0.0
C1033 C 0.26938 0.67088 0.38837 0.0
C1034 C 0.31354 0.76201 0.45353 0.0
C1035 C 0.31522 0.76058 0.48336 0.0
C1036 C 0.30222 0.73946 0.43795 0.0
C1037 C 0.29218 0.7149 0.45179 0.0
C1038 C 0.29356 0.71355 0.48173 0.0
C1039 C 0.30505 0.73619 0.49739 0.0
H1040 H 0.90944 0.33823 0.12363 0.0
H1041 H 0.86482 0.31955 0.20194 0.0
H1042 H 0.94857 0.35895 0.15113 0.0
H1043 H 0.90387 0.33938 0.2292 0.0
H1044 H 1.02367 0.34215 0.21608 0.0
H1045 H 0.98512 0.34041 0.18175 0.0
H1046 H 0.92957 0.382 0.24229 0.0
H1047 H 0.96839 0.38287 0.27716 0.0
C1048 C 0.90808 0.33837 0.14667 0.0
C1049 C 0.88418 0.32705 0.16064 0.0
C1050 C 0.93036 0.35042 0.16239 0.0
C1051 C 0.92917 0.35122 0.19235 0.0
C1052 C 0.90518 0.33991 0.20616 0.0
C1053 C 0.88297 0.32804 0.19051 0.0
C1054 C 1.0035 0.3519 0.22165 0.0
C1055 C 0.99868 0.36211 0.24933 0.0
C1056 C 0.98138 0.351 0.20191 0.0
C1057 C 0.95405 0.36033 0.20958 0.0
C1058 C 0.95028 0.37397 0.23608 0.0
C1059 C 0.97253 0.37484 0.25592 0.0
H1060 H 0.30439 0.5226 0.71765 0.0
H1061 H 0.26326 0.46739 0.77852 0.0
H1062 H 0.30562 0.48422 0.68313 0.0
H1063 H 0.2636 0.42871 0.74344 0.0
H1064 H 0.32505 0.36342 0.70241 0.0
H1065 H 0.30572 0.40247 0.73 0.0
H1066 H 0.28656 0.4482 0.65232 0.0
H1067 H 0.3068 0.40906 0.62448 0.0
C1068 C 0.29447 0.50249 0.72314 0.0
C1069 C 0.28425 0.49762 0.7508 0.0
C1070 C 0.29506 0.48047 0.70329 0.0
C1071 C 0.28542 0.45318 0.71081 0.0
C1072 C 0.27185 0.44939 0.73733 0.0
C1073 C 0.27129 0.47154 0.75729 0.0
C1074 C 0.31676 0.3818 0.69114 0.0
C1075 C 0.31773 0.3833 0.66128 0.0
C1076 C 0.30516 0.40401 0.70698 0.0
C1077 C 0.29414 0.4283 0.69338 0.0
C1078 C 0.29489 0.42976 0.66343 0.0
C1079 C 0.30667 0.40747 0.64751 0.0
H1080 H 0.23525 0.80721 0.12504 0.0
H1081 H 0.28093 0.8258 0.20285 0.0
H1082 H 0.19633 0.78681 0.15297 0.0
H1083 H 0.24207 0.80634 0.23056 0.0
H1084 H 0.17741 0.76355 0.2792 0.0
H1085 H 0.21606 0.76415 0.24419 0.0
H1086 H 0.16032 0.80575 0.18369 0.0
H1087 H 0.12197 0.80428 0.21815 0.0
C1088 C 0.23689 0.80712 0.14806 0.0
C1089 C 0.26101 0.81832 0.16177 0.0
C1090 C 0.21473 0.79526 0.16404 0.0
C1091 C 0.21625 0.79457 0.19399 0.0
C1092 C 0.24049 0.80573 0.20754 0.0
C1093 C 0.26259 0.8174 0.19163 0.0
C1094 C 0.17321 0.77155 0.25795 0.0
C1095 C 0.14706 0.78432 0.25139 0.0
C1096 C 0.19535 0.77225 0.23803 0.0
C1097 C 0.19146 0.78577 0.21146 0.0
C1098 C 0.16414 0.79523 0.20388 0.0
C1099 C 0.14214 0.7945 0.2237 0.0
H1100 H 0.87141 0.68243 0.78636 0.0
H1101 H 0.86001 0.62124 0.71878 0.0
H1102 H 0.86939 0.72103 0.75191 0.0
H1103 H 0.8599 0.65957 0.68373 0.0
H1104 H 0.80679 0.73151 0.64284 0.0
H1105 H 0.82437 0.69178 0.67142 0.0
H1106 H 0.88363 0.74854 0.71364 0.0
H1107 H 0.86448 0.78826 0.68653 0.0
C1108 C 0.8701 0.67723 0.7639 0.0
C1109 C 0.86569 0.64908 0.75509 0.0
C1110 C 0.86881 0.69936 0.74401 0.0
C1111 C 0.86365 0.69353 0.71496 0.0
C1112 C 0.86285 0.66494 0.70598 0.0
C1113 C 0.86344 0.64293 0.72594 0.0
C1114 C 0.82357 0.73529 0.65825 0.0
C1115 C 0.83376 0.76289 0.66306 0.0
C1116 C 0.83401 0.71252 0.67441 0.0
C1117 C 0.85541 0.71689 0.69513 0.0
C1118 C 0.86668 0.74441 0.69854 0.0
C1119 C 0.8557 0.76719 0.68297 0.0
H1120 H 0.86647 0.96955 0.76132 0.0
H1121 H 0.92719 1.02375 0.80411 0.0
H1122 H 0.90114 0.93054 0.76181 0.0
H1123 H 0.96131 0.985 0.80547 0.0
H1124 H 1.01947 0.90936 0.80588 0.0
H1125 H 0.99206 0.94907 0.78609 0.0
H1126 H 0.914 0.90354 0.80368 0.0
H1127 H 0.94119 0.86395 0.82258 0.0
C1128 C 0.88758 0.97341 0.76979 0.0
C1129 C 0.89412 0.99931 0.78312 0.0
C1130 C 0.90731 0.95106 0.77042 0.0
C1131 C 0.93366 0.95446 0.78444 0.0
C1132 C 0.94127 0.98156 0.79456 0.0
C1133 C 0.92165 1.00378 0.79389 0.0
C1134 C 0.99645 0.90795 0.80551 0.0
C1135 C 0.98246 0.88368 0.81601 0.0
C1136 C 0.98078 0.93056 0.79399 0.0
C1137 C 0.95085 0.92932 0.79294 0.0
C1138 C 0.93702 0.90492 0.80338 0.0
C1139 C 0.95262 0.88239 0.81472 0.0
H1140 H 0.61982 0.42727 0.30406 0.0
H1141 H 0.67463 0.36655 0.26212 0.0
H1142 H 0.65844 0.46149 0.30593 0.0
H1143 H 0.71351 0.40131 0.26314 0.0
H1144 H 0.77916 0.44148 0.3248 0.0
H1145 H 0.73986 0.41421 0.30549 0.0
H1146 H 0.69456 0.4923 0.28699 0.0
H1147 H 0.73395 0.5198 0.30718 0.0
C1148 C 0.6399 0.42176 0.29412 0.0
C1149 C 0.64456 0.39421 0.28345 0.0
C1150 C 0.66205 0.44143 0.29509 0.0
C1151 C 0.68927 0.43384 0.28538 0.0
C1152 C 0.69289 0.40747 0.27144 0.0
C1153 C 0.67061 0.38769 0.2705 0.0
C1154 C 0.76083 0.4529 0.31666 0.0
C1155 C 0.75953 0.48278 0.31779 0.0
C1156 C 0.73846 0.43725 0.30509 0.0
C1157 C 0.71423 0.45107 0.29424 0.0
C1158 C 0.71296 0.48103 0.29518 0.0
C1159 C 0.73539 0.49676 0.30693 0.0
H1160 H 0.21673 0.12154 0.80321 0.0
H1161 H 0.27761 0.17668 0.76203 0.0
H1162 H 0.18251 0.16018 0.80503 0.0
H1163 H 0.24285 0.21561 0.76301 0.0
H1164 H 0.20247 0.2808 0.825 0.0
H1165 H 0.22977 0.24164 0.80546 0.0
H1166 H 0.15184 0.19652 0.78621 0.0
H1167 H 0.1243 0.23575 0.80665 0.0
C1168 C 0.22228 0.14171 0.79341 0.0
C1169 C 0.24986 0.14645 0.78298 0.0
C1170 C 0.2026 0.16387 0.79435 0.0
C1171 C 0.21024 0.19119 0.78486 0.0
C1172 C 0.23667 0.19491 0.77113 0.0
C1173 C 0.25644 0.17261 0.77021 0.0
C1174 C 0.19109 0.26253 0.81665 0.0
C1175 C 0.16124 0.26123 0.81764 0.0
C1176 C 0.20676 0.24026 0.80494 0.0
C1177 C 0.193 0.21612 0.79381 0.0
C1178 C 0.16307 0.21484 0.79462 0.0
C1179 C 0.14732 0.23719 0.8065 0.0
H1180 H 0.40898 0.62518 0.30673 0.0
H1181 H 0.36403 0.70336 0.32549 0.0
H1182 H 0.44803 0.65282 0.28617 0.0
H1183 H 0.40302 0.73078 0.30586 0.0
H1184 H 0.46762 0.77893 0.26253 0.0
H1185 H 0.42878 0.74411 0.26342 0.0
H1186 H 0.48444 0.68339 0.3048 0.0
H1187 H 0.52299 0.71767 0.30303 0.0
C1188 C 0.40753 0.64822 0.30665 0.0
C1189 C 0.38356 0.66212 0.31793 0.0
C1190 C 0.42977 0.66404 0.2947 0.0
C1191 C 0.42848 0.69401 0.29398 0.0
C1192 C 0.40441 0.70774 0.30526 0.0
C1193 C 0.38224 0.692 0.31703 0.0
C1194 C 0.47176 0.75767 0.27053 0.0
C1195 C 0.49796 0.751 0.28316 0.0
C1196 C 0.44951 0.73786 0.27141 0.0
C1197 C 0.45332 0.7113 0.28498 0.0
C1198 C 0.48067 0.70359 0.29427 0.0
C1199 C 0.50278 0.7233 0.29335 0.0
H1200 H 0.86469 0.17716 0.38046 0.0
H1201 H 0.92587 0.12159 0.34026 0.0
H1202 H 0.89939 0.21611 0.37921 0.0
H1203 H 0.96002 0.16024 0.33815 0.0
H1204 H 1.01832 0.23567 0.33638 0.0
H1205 H 0.99056 0.19662 0.35679 0.0
H1206 H 0.91286 0.24186 0.33678 0.0
H1207 H 0.94041 0.2809 0.31731 0.0
C1208 C 0.88591 0.17301 0.37244 0.0
C1209 C 0.89259 0.1467 0.36004 0.0
C1210 C 0.90565 0.19533 0.37135 0.0
C1211 C 0.93216 0.19146 0.35781 0.0
C1212 C 0.93987 0.16404 0.34867 0.0
C1213 C 0.92023 0.14187 0.34979 0.0
C1214 C 0.99531 0.23718 0.33635 0.0
C1215 C 0.98153 0.26123 0.32505 0.0
C1216 C 0.97943 0.21493 0.34822 0.0
C1217 C 0.94949 0.21629 0.3488 0.0
C1218 C 0.93587 0.24042 0.33746 0.0
C1219 C 0.95168 0.26262 0.3258 0.0
H1220 H 0.46186 0.35726 0.87168 0.0
H1221 H 0.52323 0.42473 0.8611 0.0
H1222 H 0.42342 0.39187 0.86977 0.0
H1223 H 0.48506 0.45992 0.86111 0.0
H1224 H 0.41358 0.50134 0.80779 0.0
H1225 H 0.4531 0.47259 0.82549 0.0
H1226 H 0.39597 0.43013 0.88409 0.0
H1227 H 0.35646 0.45739 0.86479 0.0
C1228 C 0.46712 0.37973 0.87058 0.0
C1229 C 0.49528 0.38847 0.86635 0.0
C1230 C 0.44509 0.3997 0.86935 0.0
C1231 C 0.45103 0.42877 0.86445 0.0
C1232 C 0.47961 0.43767 0.86386 0.0
C1233 C 0.50152 0.41762 0.86438 0.0
C1234 C 0.40967 0.48584 0.82445 0.0
C1235 C 0.38203 0.481 0.8344 0.0
C1236 C 0.43232 0.46958 0.83496 0.0
C1237 C 0.42779 0.44874 0.8562 0.0
C1238 C 0.40022 0.44532 0.86725 0.0
C1239 C 0.37756 0.46097 0.85619 0.0
H1240 H 0.21857 1.02357 0.36095 0.0
H1241 H 0.28587 0.96216 0.37259 0.0
H1242 H 0.1834 0.98539 0.36108 0.0
H1243 H 0.25129 0.92369 0.37083 0.0
H1244 H 0.18583 0.85669 0.36621 0.0
H1245 H 0.21295 0.89642 0.38528 0.0
H1246 H 0.17094 0.95305 0.3257 0.0
H1247 H 0.14235 0.91332 0.30821 0.0
C1248 C 0.22565 1.00186 0.36448 0.0
C1249 C 0.25475 0.9956 0.36673 0.0
C1250 C 0.20561 0.97994 0.36404 0.0
C1251 C 0.21447 0.95132 0.36499 0.0
C1252 C 0.24348 0.94539 0.37013 0.0
C1253 C 0.26344 0.96744 0.37127 0.0
C1254 C 0.18231 0.87774 0.35736 0.0
C1255 C 0.16248 0.882 0.33535 0.0
C1256 C 0.19788 0.90053 0.36829 0.0
C1257 C 0.19455 0.92801 0.35688 0.0
C1258 C 0.17387 0.93234 0.33543 0.0
C1259 C 0.1577 0.90957 0.32505 0.0
H1260 H 0.6766 0.7798 0.88125 0.0
H1261 H 0.62114 0.7185 0.84098 0.0
H1262 H 0.71563 0.7452 0.87968 0.0
H1263 H 0.65986 0.68447 0.83849 0.0
H1264 H 0.78053 0.70457 0.81786 0.0
H1265 H 0.74142 0.73196 0.8374 0.0
H1266 H 0.69629 0.65394 0.85647 0.0
H1267 H 0.73535 0.62638 0.83589 0.0
C1268 C 0.6725 0.75856 0.87314 0.0
C1269 C 0.64619 0.75183 0.86081 0.0
C1270 C 0.69487 0.73889 0.87185 0.0
C1271 C 0.69105 0.7124 0.85816 0.0
C1272 C 0.66364 0.70461 0.84911 0.0
C1273 C 0.64142 0.72418 0.85046 0.0
C1274 C 0.76224 0.69321 0.82614 0.0
C1275 C 0.7609 0.66333 0.82509 0.0
C1276 C 0.74 0.70892 0.83785 0.0
C1277 C 0.71589 0.69516 0.84897 0.0
C1278 C 0.71457 0.66519 0.84805 0.0
C1279 C 0.73683 0.64942 0.8361 0.0
H1280 H 0.80765 1.02089 0.90917 0.0
H1281 H 0.82425 0.94241 0.86387 0.0
H1282 H 0.78784 0.99354 0.94886 0.0
H1283 H 0.80527 0.9153 0.90342 0.0
H1284 H 0.76247 0.86795 0.96908 0.0
H1285 H 0.76312 0.90278 0.93022 0.0
H1286 H 0.80719 0.96252 0.98483 0.0
H1287 H 0.8057 0.92823 1.02345 0.0
C1288 C 0.80724 0.99785 0.90777 0.0
C1289 C 0.81773 0.98378 0.88353 0.0
C1290 C 0.79571 0.98221 0.93037 0.0
C1291 C 0.79458 0.95225 0.92914 0.0
C1292 C 0.80502 0.93835 0.90479 0.0
C1293 C 0.8164 0.95391 0.88228 0.0
C1294 C 0.77107 0.88901 0.97302 0.0
C1295 C 0.78448 0.89536 0.99892 0.0
C1296 C 0.77179 0.90882 0.95074 0.0
C1297 C 0.78597 0.93508 0.95423 0.0
C1298 C 0.79617 0.94255 0.98134 0.0
C1299 C 0.79541 0.92283 1.00348 0.0
H1300 H 0.80619 0.21691 0.12021 0.0
H1301 H 0.76119 0.27684 0.17346 0.0
H1302 H 0.80695 0.18258 0.1588 0.0
H1303 H 0.7611 0.24194 0.21227 0.0
H1304 H 0.82104 0.20261 0.28009 0.0
H1305 H 0.80255 0.22963 0.24022 0.0
H1306 H 0.78697 0.15135 0.19414 0.0
H1307 H 0.80629 0.12408 0.23421 0.0
C1308 C 0.79539 0.22223 0.1399 0.0
C1309 C 0.78415 0.24962 0.14421 0.0
C1310 C 0.7957 0.20247 0.16202 0.0
C1311 C 0.78475 0.20981 0.18885 0.0
C1312 C 0.77033 0.23599 0.19198 0.0
C1313 C 0.77005 0.25584 0.16974 0.0
C1314 C 0.81368 0.19108 0.26149 0.0
C1315 C 0.81544 0.16123 0.26015 0.0
C1316 C 0.80258 0.20658 0.23877 0.0
C1317 C 0.79286 0.19265 0.21413 0.0
C1318 C 0.79432 0.1627 0.21285 0.0
C1319 C 0.80557 0.14712 0.23567 0.0
H1320 H 0.51845 0.30829 0.73539 0.0
H1321 H 0.44003 0.3258 0.78021 0.0
H1322 H 0.49123 0.28791 0.69594 0.0
H1323 H 0.41297 0.30644 0.74072 0.0
H1324 H 0.36576 0.26267 0.67532 0.0
H1325 H 0.40011 0.2642 0.71458 0.0
H1326 H 0.46084 0.30596 0.65938 0.0
H1327 H 0.42706 0.30348 0.62039 0.0
C1328 C 0.49543 0.30801 0.73671 0.0
C1329 C 0.48136 0.31881 0.7608 0.0
C1330 C 0.47985 0.29617 0.71422 0.0
C1331 C 0.44992 0.29515 0.71533 0.0
C1332 C 0.43599 0.30607 0.73946 0.0
C1333 C 0.45152 0.31768 0.76192 0.0
C1334 C 0.38695 0.27089 0.67138 0.0
C1335 C 0.39374 0.28339 0.64515 0.0
C1336 C 0.40648 0.27217 0.69389 0.0
C1337 C 0.43288 0.28601 0.69031 0.0
C1338 C 0.44076 0.29522 0.66298 0.0
C1339 C 0.42133 0.29388 0.6406 0.0
H1340 H 0.34023 0.92823 0.12081 0.0
H1341 H 0.38119 0.86676 0.17562 0.0
H1342 H 0.33769 0.96191 0.15987 0.0
H1343 H 0.37958 0.90101 0.21496 0.0
H1344 H 0.31785 0.94055 0.28058 0.0
H1345 H 0.33731 0.91367 0.24106 0.0
H1346 H 0.35565 0.99225 0.19655 0.0
H1347 H 0.33516 1.01929 0.23604 0.0
C1348 C 0.34985 0.92245 0.14101 0.0
C1349 C 0.3604 0.89483 0.14551 0.0
C1350 C 0.34848 0.94182 0.16343 0.0
C1351 C 0.35771 0.93386 0.19075 0.0
C1352 C 0.37161 0.90744 0.19427 0.0
C1353 C 0.37292 0.88797 0.17172 0.0
C1354 C 0.32595 0.95215 0.26234 0.0
C1355 C 0.32473 0.98203 0.26131 0.0
C1356 C 0.33762 0.93673 0.23986 0.0
C1357 C 0.34852 0.9508 0.2158 0.0
C1358 C 0.34741 0.98076 0.21478 0.0
C1359 C 0.33551 0.99624 0.23729 0.0
H1360 H 0.71724 0.84096 0.62221 0.0
H1361 H 0.77846 0.8827 0.67667 0.0
H1362 H 0.68292 0.84036 0.66069 0.0
H1363 H 0.74357 0.88301 0.71543 0.0
H1364 H 0.7027 0.82231 0.78157 0.0
H1365 H 0.73012 0.84142 0.74234 0.0
H1366 H 0.65233 0.85976 0.6965 0.0
H1367 H 0.62468 0.8397 0.73582 0.0
C1368 C 0.72286 0.85114 0.64218 0.0
C1369 C 0.75056 0.86134 0.64682 0.0
C1370 C 0.70311 0.85092 0.66425 0.0
C1371 C 0.71078 0.86092 0.69138 0.0
C1372 C 0.73735 0.87448 0.6949 0.0
C1373 C 0.7572 0.87466 0.67269 0.0
C1374 C 0.69137 0.83039 0.76313 0.0
C1375 C 0.66154 0.82918 0.76163 0.0
C1376 C 0.70712 0.84186 0.74081 0.0
C1377 C 0.69344 0.85255 0.71641 0.0
C1378 C 0.66351 0.85166 0.715 0.0
C1379 C 0.64769 0.83998 0.73739 0.0
H1380 H 0.38171 0.27743 0.96918 0.0
H1381 H 0.33895 0.21652 1.02312 0.0
H1382 H 0.38137 0.2428 0.93014 0.0
H1383 H 0.33775 0.18243 0.98432 0.0
H1384 H 0.33733 0.12444 0.90857 0.0
H1385 H 0.35715 0.15173 0.94834 0.0
H1386 H 0.33954 0.23004 0.90304 0.0
H1387 H 0.32061 0.20298 0.8634 0.0
C1388 C 0.37328 0.25628 0.97298 0.0
C1389 C 0.35991 0.24968 0.99881 0.0
C1390 C 0.37274 0.23657 0.95061 0.0
C1391 C 0.35877 0.21018 0.95391 0.0
C1392 C 0.34862 0.2025 0.98096 0.0
C1393 C 0.34921 0.22211 1.0032 0.0
C1394 C 0.33771 0.14748 0.90722 0.0
C1395 C 0.32718 0.16159 0.883 0.0
C1396 C 0.34924 0.16309 0.92986 0.0
C1397 C 0.3503 0.19306 0.92872 0.0
C1398 C 0.33984 0.20699 0.90436 0.0
C1399 C 0.32849 0.19146 0.88179 0.0
H1400 H 0.42591 0.83971 0.52289 0.0
H1401 H 0.36495 0.88168 0.46829 0.0
H1402 H 0.46012 0.83845 0.48429 0.0
H1403 H 0.39971 0.88129 0.42941 0.0
H1404 H 0.44069 0.82072 0.36324 0.0
H1405 H 0.41314 0.83952 0.40257 0.0
H1406 H 0.49082 0.858 0.44852 0.0
H1407 H 0.51859 0.8383 0.40909 0.0
C1408 C 0.42032 0.84977 0.50285 0.0
C1409 C 0.39273 0.86031 0.49825 0.0
C1410 C 0.44 0.84917 0.48072 0.0
C1411 C 0.43238 0.8591 0.45355 0.0
C1412 C 0.4059 0.87284 0.44998 0.0
C1413 C 0.38613 0.87342 0.47226 0.0
C1414 C 0.45196 0.82876 0.38172 0.0
C1415 C 0.4818 0.82773 0.38321 0.0
C1416 C 0.43614 0.84004 0.40411 0.0
C1417 C 0.44976 0.85069 0.42855 0.0
C1418 C 0.47969 0.84992 0.42998 0.0
C1419 C 0.49558 0.83846 0.40752 0.0
H1420 H 0.7016 0.32429 0.36408 0.0
H1421 H 0.62324 0.30653 0.40892 0.0
H1422 H 0.72873 0.3049 0.40346 0.0
H1423 H 0.65062 0.28626 0.44841 0.0
H1424 H 0.71549 0.30378 0.52341 0.0
H1425 H 0.68128 0.30527 0.48472 0.0
H1426 H 0.74161 0.26256 0.42981 0.0
H1427 H 0.77636 0.26193 0.46875 0.0
C1428 C 0.69013 0.3161 0.38235 0.0
C1429 C 0.66029 0.31722 0.38353 0.0
C1430 C 0.70571 0.30447 0.40475 0.0
C1431 C 0.69186 0.29357 0.42892 0.0
C1432 C 0.66192 0.29449 0.43007 0.0
C1433 C 0.64627 0.30628 0.40758 0.0
C1434 C 0.72104 0.29376 0.50335 0.0
C1435 C 0.74863 0.28327 0.49873 0.0
C1436 C 0.70137 0.29451 0.48117 0.0
C1437 C 0.70901 0.28475 0.45396 0.0
C1438 C 0.73542 0.27091 0.45041 0.0
C1439 C 0.75519 0.27019 0.47273 0.0
H1440 H 0.26343 0.29919 0.49454 0.0
H1441 H 0.22257 0.38151 0.50067 0.0
H1442 H 0.23087 0.28618 0.45578 0.0
H1443 H 0.18999 0.36849 0.46268 0.0
H1444 H 0.14837 0.34484 0.37935 0.0
H1445 H 0.18747 0.35778 0.41151 0.0
H1446 H 0.17953 0.27628 0.45381 0.0
H1447 H 0.14119 0.26332 0.42162 0.0
C1448 C 0.24752 0.3144 0.48756 0.0
C1449 C 0.2452 0.34115 0.50059 0.0
C1450 C 0.22898 0.30705 0.46548 0.0
C1451 C 0.20802 0.32641 0.45626 0.0
C1452 C 0.20624 0.35335 0.46902 0.0
C1453 C 0.22467 0.36065 0.49098 0.0
C1454 C 0.15517 0.3298 0.3955 0.0
C1455 C 0.14177 0.30329 0.39831 0.0
C1456 C 0.17746 0.33711 0.4138 0.0
C1457 C 0.18651 0.31794 0.43503 0.0
C1458 C 0.17333 0.29125 0.43735 0.0
C1459 C 0.15117 0.28399 0.41914 0.0
H1460 H 0.34451 0.76635 0.99382 0.0
H1461 H 0.26318 0.7238 1.00038 0.0
H1462 H 0.35764 0.73453 0.95452 0.0
H1463 H 0.27635 0.69193 0.96188 0.0
H1464 H 0.29993 0.65035 0.87882 0.0
H1465 H 0.28662 0.68959 0.91068 0.0
H1466 H 0.36862 0.68352 0.95224 0.0
H1467 H 0.38193 0.6451 0.92035 0.0
C1468 C 0.32954 0.75023 0.98682 0.0
C1469 C 0.30305 0.7472 1.00015 0.0
C1470 C 0.33696 0.73212 0.96442 0.0
C1471 C 0.31793 0.71085 0.95518 0.0
C1472 C 0.29121 0.70841 0.96821 0.0
C1473 C 0.28385 0.72643 0.99048 0.0
C1474 C 0.31502 0.65764 0.8947 0.0
C1475 C 0.34174 0.64468 0.89745 0.0
C1476 C 0.3075 0.68 0.91284 0.0
C1477 C 0.32667 0.68957 0.93384 0.0
C1478 C 0.35362 0.67693 0.93596 0.0
C1479 C 0.36108 0.6547 0.91793 0.0
H1480 H 0.99795 0.88132 0.41979 0.0
H1481 H 0.99223 0.79966 0.37755 0.0
H1482 H 0.95907 0.8682 0.45107 0.0
H1483 H 0.9525 0.78656 0.40878 0.0
H1484 H 0.91824 0.76258 0.49833 0.0
H1485 H 0.94982 0.77572 0.45968 0.0
H1486 H 0.90811 0.85768 0.45333 0.0
H1487 H 0.87659 0.84455 0.49283 0.0
C1488 C 0.98814 0.86059 0.41707 0.0
C1489 C 0.99819 0.84127 0.3966 0.0
C1490 C 0.96563 0.85325 0.43475 0.0
C1491 C 0.95273 0.82643 0.43227 0.0
C1492 C 0.96229 0.80732 0.41122 0.0
C1493 C 0.98494 0.81472 0.39345 0.0
C1494 C 0.91571 0.78337 0.4886 0.0
C1495 C 0.89533 0.80278 0.49866 0.0
C1496 C 0.93356 0.79073 0.46623 0.0
C1497 C 0.93134 0.81765 0.45347 0.0
C1498 C 0.91036 0.83684 0.46301 0.0
C1499 C 0.89241 0.82942 0.48553 0.0
H1500 H 0.84413 0.49612 0.87893 0.0
H1501 H 0.76185 0.50168 0.91968 0.0
H1502 H 0.85735 0.45736 0.91141 0.0
H1503 H 0.77508 0.4637 0.95218 0.0
H1504 H 0.79921 0.38048 0.99377 0.0
H1505 H 0.78609 0.4126 0.95468 0.0
H1506 H 0.86725 0.45535 0.96279 0.0
H1507 H 0.8804 0.42319 1.00111 0.0
C1508 C 0.82897 0.48902 0.89479 0.0
C1509 C 0.80218 0.50189 0.8971 0.0
C1510 C 0.83645 0.46693 0.91329 0.0
C1511 C 0.81716 0.45755 0.93422 0.0
C1512 C 0.79016 0.47016 0.93598 0.0
C1513 C 0.78275 0.49212 0.91758 0.0
C1514 C 0.81414 0.39671 0.987 0.0
C1515 C 0.84061 0.39965 1.00044 0.0
C1516 C 0.80673 0.415 0.96472 0.0
C1517 C 0.82575 0.43635 0.95572 0.0
C1518 C 0.8524 0.43879 0.96894 0.0
C1519 C 0.85976 0.4206 0.9911 0.0
H1520 H 0.25204 0.76382 0.66705 0.0
H1521 H 0.24511 0.84914 0.63344 0.0
H1522 H 0.22053 0.77627 0.70616 0.0
H1523 H 0.21178 0.86138 0.6714 0.0
H1524 H 0.16445 0.8822 0.75039 0.0
H1525 H 0.2041 0.87011 0.71945 0.0
H1526 H 0.17216 0.78373 0.71295 0.0
H1527 H 0.13363 0.79568 0.74572 0.0
C1528 C 0.24362 0.7853 0.66816 0.0
C1529 C 0.25059 0.80558 0.6474 0.0
C1530 C 0.22541 0.79238 0.69038 0.0
C1531 C 0.2132 0.81966 0.69174 0.0
C1532 C 0.22107 0.84025 0.6713 0.0
C1533 C 0.23997 0.83333 0.64945 0.0
C1534 C 0.16626 0.86054 0.74255 0.0
C1535 C 0.14613 0.83981 0.75001 0.0
C1536 C 0.1888 0.85366 0.72468 0.0
C1537 C 0.19116 0.82608 0.71332 0.0
C1538 C 0.1713 0.8051 0.72161 0.0
C1539 C 0.14912 0.81186 0.74017 0.0
H1540 H 0.76223 0.64336 0.22272 0.0
H1541 H 0.84417 0.64917 0.26431 0.0
H1542 H 0.77554 0.68147 0.19043 0.0
H1543 H 0.85746 0.68806 0.23205 0.0
H1544 H 0.88101 0.72233 0.14256 0.0
H1545 H 0.86773 0.69013 0.18077 0.0
H1546 H 0.78637 0.73265 0.18819 0.0
H1547 H 0.79962 0.76481 0.14921 0.0
C1548 C 0.78307 0.653 0.22505 0.0
C1549 C 0.80238 0.64327 0.24569 0.0
C1550 C 0.79052 0.67504 0.20678 0.0
C1551 C 0.81744 0.68775 0.20885 0.0
C1552 C 0.83662 0.6784 0.22994 0.0
C1553 C 0.8291 0.65625 0.24831 0.0
C1554 C 0.8603 0.72486 0.15241 0.0
C1555 C 0.84113 0.74574 0.14289 0.0
C1556 C 0.85287 0.70665 0.17449 0.0
C1557 C 0.82612 0.70901 0.18747 0.0
C1558 C 0.80709 0.73031 0.17832 0.0
C1559 C 0.81458 0.74862 0.15612 0.0
H1560 H 0.92051 0.38208 0.64194 0.0
H1561 H 0.87942 0.29993 0.64857 0.0
H1562 H 0.95306 0.36916 0.68 0.0
H1563 H 0.91195 0.28704 0.68739 0.0
H1564 H 1.00156 0.26404 0.72161 0.0
H1565 H 0.96328 0.27699 0.68936 0.0
H1566 H 0.95557 0.35872 0.73126 0.0
H1567 H 0.99462 0.34579 0.7635 0.0
C1568 C 0.91835 0.36128 0.65175 0.0
C1569 C 0.89776 0.34179 0.64227 0.0
C1570 C 0.93678 0.35405 0.67375 0.0
C1571 C 0.93492 0.32719 0.68667 0.0
C1572 C 0.9139 0.30784 0.67756 0.0
C1573 C 0.89537 0.31513 0.65545 0.0
C1574 C 0.99165 0.28476 0.724 0.0
C1575 C 1.00109 0.30412 0.74474 0.0
C1576 C 0.96952 0.29201 0.70575 0.0
C1577 C 0.95642 0.31876 0.70793 0.0
C1578 C 0.96552 0.338 0.72907 0.0
C1579 C 0.98777 0.33069 0.74742 0.0
H1580 H 0.38047 0.50209 0.22212 0.0
H1581 H 0.29919 0.49509 0.26461 0.0
H1582 H 0.36739 0.46362 0.19013 0.0
H1583 H 0.28613 0.45586 0.23266 0.0
H1584 H 0.26212 0.42091 0.14345 0.0
H1585 H 0.27525 0.45334 0.18152 0.0
H1586 H 0.3574 0.41223 0.18825 0.0
H1587 H 0.34428 0.37982 0.1494 0.0
C1588 C 0.35982 0.49212 0.2247 0.0
C1589 C 0.34063 0.50161 0.24552 0.0
C1590 C 0.3525 0.46988 0.20661 0.0
C1591 C 0.32584 0.45671 0.20903 0.0
C1592 C 0.30678 0.46585 0.23028 0.0
C1593 C 0.31415 0.48822 0.24846 0.0
C1594 C 0.28297 0.41872 0.15312 0.0
C1595 C 0.3024 0.39818 0.14342 0.0
C1596 C 0.29032 0.43707 0.17513 0.0
C1597 C 0.31726 0.4352 0.18786 0.0
C1598 C 0.33654 0.41419 0.17858 0.0
C1599 C 0.32912 0.39574 0.15645 0.0
H1600 H 0.37828 0.1491 0.3448 0.0
H1601 H 0.4188 0.14315 0.26237 0.0
H1602 H 0.41066 0.18803 0.35769 0.0
H1603 H 0.45121 0.18128 0.27528 0.0
H1604 H 0.49306 0.2644 0.29885 0.0
H1605 H 0.45382 0.23239 0.28602 0.0
H1606 H 0.46196 0.19007 0.36748 0.0
H1607 H 0.50041 0.22212 0.38034 0.0
C1608 C 0.39407 0.15616 0.32953 0.0
C1609 C 0.39636 0.14311 0.3028 0.0
C1610 C 0.41251 0.17834 0.33682 0.0
C1611 C 0.43335 0.18764 0.3174 0.0
C1612 C 0.43507 0.17489 0.29046 0.0
C1613 C 0.41673 0.15283 0.28323 0.0
C1614 C 0.48626 0.24829 0.31391 0.0
C1615 C 0.49976 0.24543 0.34038 0.0
C1616 C 0.4639 0.23007 0.30667 0.0
C1617 C 0.45487 0.20886 0.32585 0.0
C1618 C 0.46813 0.20652 0.35251 0.0
C1619 C 0.49037 0.22464 0.3597 0.0
H1620 H 0.39244 0.97925 0.88082 0.0
H1621 H 0.39816 1.01115 0.79478 0.0
H1622 H 0.4239 0.93993 0.8688 0.0
H1623 H 0.43144 0.97297 0.78294 0.0
H1624 H 0.47842 0.89351 0.76303 0.0
H1625 H 0.43893 0.92473 0.77506 0.0
H1626 H 0.47213 0.93279 0.86085 0.0
H1627 H 0.51049 0.89974 0.849 0.0
C1628 C 0.40061 0.97773 0.85927 0.0
C1629 C 0.3933 0.99807 0.83866 0.0
C1630 C 0.41878 0.95539 0.85244 0.0
C1631 C 0.43061 0.95346 0.82505 0.0
C1632 C 0.42244 0.9735 0.80416 0.0
C1633 C 0.40357 0.99548 0.81086 0.0
C1634 C 0.4769 0.90174 0.78456 0.0
C1635 C 0.49734 0.89464 0.80515 0.0
C1636 C 0.45446 0.91978 0.7914 0.0
C1637 C 0.45253 0.93168 0.81877 0.0
C1638 C 0.47267 0.92373 0.83964 0.0
C1639 C 0.49475 0.90499 0.83294 0.0
H1640 H 0.75137 0.97779 0.26421 0.0
H1641 H 0.74431 1.01187 0.3493 0.0
H1642 H 0.71977 0.93875 0.27674 0.0
H1643 H 0.71088 0.97398 0.36161 0.0
H1644 H 0.66373 0.89479 0.38268 0.0
H1645 H 0.70319 0.926 0.37061 0.0
H1646 H 0.67147 0.93179 0.28409 0.0
H1647 H 0.63315 0.89875 0.29604 0.0
C1648 C 0.74288 0.9768 0.28566 0.0
C1649 C 0.74986 0.99767 0.30585 0.0
C1650 C 0.72463 0.95463 0.29278 0.0
C1651 C 0.71237 0.95341 0.32002 0.0
C1652 C 0.72021 0.97397 0.34052 0.0
C1653 C 0.73917 0.99577 0.33355 0.0
C1654 C 0.66554 0.90255 0.361 0.0
C1655 C 0.64555 0.89477 0.34022 0.0
C1656 C 0.68798 0.92057 0.35413 0.0
C1657 C 0.69035 0.93179 0.32651 0.0
C1658 C 0.6706 0.92325 0.3055 0.0
C1659 C 0.64854 0.90452 0.31226 0.0
H1660 H 0.76402 0.1506 0.79851 0.0
H1661 H 0.72283 0.14412 0.88055 0.0
H1662 H 0.73164 0.18952 0.78555 0.0
H1663 H 0.69041 0.18225 0.86756 0.0
H1664 H 0.6487 0.26554 0.84412 0.0
H1665 H 0.68782 0.23343 0.85712 0.0
H1666 H 0.68046 0.19163 0.77531 0.0
H1667 H 0.64213 0.22379 0.76229 0.0
C1668 C 0.74808 0.15753 0.81367 0.0
C1669 C 0.74562 0.14436 0.84032 0.0
C1670 C 0.72964 0.17971 0.80634 0.0
C1671 C 0.70862 0.18887 0.82563 0.0
C1672 C 0.7067 0.17596 0.85249 0.0
C1673 C 0.72504 0.15392 0.85976 0.0
C1674 C 0.65565 0.24953 0.82902 0.0
C1675 C 0.64241 0.24684 0.80241 0.0
C1676 C 0.67794 0.23124 0.83636 0.0
C1677 C 0.68715 0.21015 0.81713 0.0
C1678 C 0.67414 0.20799 0.79033 0.0
C1679 C 0.65199 0.22618 0.78304 0.0
H1680 H 0.9149 0.76977 0.6326 0.0
H1681 H 0.89071 0.85783 0.64335 0.0
H1682 H 0.95259 0.77592 0.668 0.0
H1683 H 0.92745 0.86378 0.67932 0.0
H1684 H 1.01065 0.87477 0.72851 0.0
H1685 H 0.97542 0.86867 0.69061 0.0
H1686 H 0.96352 0.78097 0.71602 0.0
H1687 H 0.99933 0.78684 0.7529 0.0
C1688 C 0.91757 0.79048 0.64244 0.0
C1689 C 0.89963 0.81327 0.63471 0.0
C1690 C 0.93916 0.79402 0.6631 0.0
C1691 C 0.94352 0.82046 0.67696 0.0
C1692 C 0.92552 0.84321 0.66906 0.0
C1693 C 0.90411 0.83971 0.64834 0.0
C1694 C 1.00069 0.85412 0.72587 0.0
C1695 C 1.00823 0.83133 0.74391 0.0
C1696 C 0.98014 0.8506 0.70415 0.0
C1697 C 0.96619 0.82421 0.6998 0.0
C1698 C 0.97386 0.8015 0.71794 0.0
C1699 C 0.99448 0.80496 0.73945 0.0
H1700 H 0.87429 0.41476 0.13404 0.0
H1701 H 0.78665 0.38963 0.14508 0.0
H1702 H 0.86788 0.4524 0.16946 0.0
H1703 H 0.78047 0.42627 0.1811 0.0
H1704 H 0.8567 0.49916 0.2543 0.0
H1705 H 0.86287 0.46329 0.21752 0.0
H1706 H 0.7751 0.47428 0.19214 0.0
H1707 H 0.76871 0.50956 0.22992 0.0
C1708 C 0.85364 0.41717 0.144 0.0
C1709 C 0.83102 0.39901 0.13633 0.0
C1710 C 0.84995 0.43874 0.16466 0.0
C1711 C 0.82354 0.44282 0.17857 0.0
C1712 C 0.80099 0.42455 0.17078 0.0
C1713 C 0.80464 0.40318 0.15006 0.0
C1714 C 0.83862 0.49407 0.24089 0.0
C1715 C 0.81215 0.50757 0.24531 0.0
C1716 C 0.84226 0.47343 0.21944 0.0
C1717 C 0.81962 0.4655 0.20134 0.0
C1718 C 0.79312 0.4792 0.20567 0.0
C1719 C 0.78943 0.49977 0.22732 0.0
H1720 H 0.13432 0.27017 0.72975 0.0
H1721 H 0.14564 0.35807 0.75424 0.0
H1722 H 0.16963 0.27623 0.69204 0.0
H1723 H 0.18156 0.36392 0.71753 0.0
H1724 H 0.25419 0.28688 0.6449 0.0
H1725 H 0.21756 0.28105 0.68092 0.0
H1726 H 0.19258 0.36895 0.66954 0.0
H1727 H 0.23021 0.375 0.63413 0.0
C1728 C 0.14432 0.2908 0.72719 0.0
C1729 C 0.13675 0.3136 0.74519 0.0
C1730 C 0.16492 0.2943 0.70557 0.0
C1731 C 0.17889 0.32068 0.70128 0.0
C1732 C 0.1712 0.3434 0.7194 0.0
C1733 C 0.15053 0.33995 0.74082 0.0
C1734 C 0.24089 0.30505 0.64994 0.0
C1735 C 0.24538 0.33146 0.63628 0.0
C1736 C 0.21953 0.30161 0.67066 0.0
C1737 C 0.20158 0.3244 0.67853 0.0
C1738 C 0.20598 0.35083 0.66468 0.0
C1739 C 0.22755 0.35432 0.64403 0.0
H1740 H 0.37458 0.63516 0.23007 0.0
H1741 H 0.28682 0.64643 0.25465 0.0
H1742 H 0.36838 0.67049 0.1923 0.0
H1743 H 0.28084 0.68237 0.21788 0.0
H1744 H 0.35746 0.75508 0.14492 0.0
H1745 H 0.36346 0.71845 0.181 0.0
H1746 H 0.27565 0.69337 0.16989 0.0
H1747 H 0.26943 0.73099 0.13442 0.0
C1748 C 0.35395 0.64516 0.22752 0.0
C1749 C 0.33124 0.63756 0.24556 0.0
C1750 C 0.35037 0.66576 0.20586 0.0
C1751 C 0.32399 0.67972 0.20158 0.0
C1752 C 0.30135 0.67202 0.21974 0.0
C1753 C 0.30488 0.65134 0.24119 0.0
C1754 C 0.33934 0.74176 0.15003 0.0
C1755 C 0.31291 0.74622 0.13643 0.0
C1756 C 0.34288 0.72039 0.17079 0.0
C1757 C 0.32017 0.70242 0.17876 0.0
C1758 C 0.29372 0.70679 0.16496 0.0
C1759 C 0.29013 0.72836 0.14427 0.0
H1760 H 0.91265 0.37505 0.50875 0.0
H1761 H 0.88811 0.28713 0.4978 0.0
H1762 H 0.95031 0.36879 0.47341 0.0
H1763 H 0.92477 0.28108 0.46185 0.0
H1764 H 1.00806 0.26964 0.41312 0.0
H1765 H 0.97264 0.27588 0.45071 0.0
H1766 H 0.96157 0.36377 0.42552 0.0
H1767 H 0.9976 0.35774 0.38894 0.0
C1768 C 0.91518 0.35437 0.49881 0.0
C1769 C 0.89718 0.33163 0.50651 0.0
C1770 C 0.93677 0.35075 0.4782 0.0
C1771 C 0.94104 0.32431 0.46432 0.0
C1772 C 0.92292 0.30164 0.47213 0.0
C1773 C 0.90153 0.30521 0.49282 0.0
C1774 C 0.99822 0.29035 0.41572 0.0
C1775 C 1.00607 0.31315 0.39785 0.0
C1776 C 0.97756 0.29396 0.43727 0.0
C1777 C 0.96379 0.32045 0.44162 0.0
C1778 C 0.97176 0.34317 0.42362 0.0
C1779 C 0.99249 0.33961 0.40227 0.0
H1780 H 0.35692 0.38963 0.99915 0.0
H1781 H 0.26918 0.41446 1.01015 0.0
H1782 H 0.36314 0.42673 0.96359 0.0
H1783 H 0.27562 0.45253 0.97522 0.0
H1784 H 0.37484 0.51062 0.91571 0.0
H1785 H 0.36845 0.47487 0.95304 0.0
H1786 H 0.28076 0.46409 0.92735 0.0
H1787 H 0.28695 0.50037 0.89099 0.0
C1788 C 0.33892 0.40321 0.99426 0.0
C1789 C 0.31249 0.39881 1.00785 0.0
C1790 C 0.34258 0.42484 0.97381 0.0
C1791 C 0.32002 0.44317 0.96614 0.0
C1792 C 0.29357 0.43885 0.97992 0.0
C1793 C 0.28986 0.41702 1.0003 0.0
C1794 C 0.35412 0.50082 0.91819 0.0
C1795 C 0.33144 0.50879 0.90021 0.0
C1796 C 0.35044 0.47996 0.93956 0.0
C1797 C 0.32396 0.46615 0.94367 0.0
C1798 C 0.30134 0.47429 0.92562 0.0
C1799 C 0.30499 0.4952 0.90442 0.0
H1800 H 0.22847 0.76933 0.51198 0.0
H1801 H 0.25246 0.85738 0.5008 0.0
H1802 H 0.19051 0.77538 0.47679 0.0
H1803 H 0.21552 0.8632 0.46505 0.0
H1804 H 0.14318 0.78634 0.392 0.0
H1805 H 0.17912 0.78037 0.42877 0.0
H1806 H 0.16749 0.86811 0.45419 0.0
H1807 H 0.13211 0.87427 0.41648 0.0
C1808 C 0.22573 0.79 0.50206 0.0
C1809 C 0.24369 0.81283 0.50962 0.0
C1810 C 0.20397 0.79349 0.48154 0.0
C1811 C 0.19948 0.8199 0.46764 0.0
C1812 C 0.21753 0.84266 0.47535 0.0
C1813 C 0.23909 0.83922 0.49593 0.0
C1814 C 0.1481 0.80443 0.40546 0.0
C1815 C 0.13439 0.83083 0.40105 0.0
C1816 C 0.1688 0.80092 0.4269 0.0
C1817 C 0.17662 0.82363 0.44498 0.0
C1818 C 0.16267 0.85004 0.4407 0.0
C1819 C 0.14201 0.85358 0.4191 0.0
H1820 H 0.85665 0.64425 0.89032 0.0
H1821 H 0.76796 0.63619 0.91269 0.0
H1822 H 0.86293 0.68022 0.92695 0.0
H1823 H 0.77443 0.67155 0.95041 0.0
H1824 H 0.87411 0.72943 1.01001 0.0
H1825 H 0.86746 0.69169 0.97473 0.0
H1826 H 0.78062 0.71925 0.96179 0.0
H1827 H 0.78702 0.75596 0.9977 0.0
C1828 C 0.83843 0.64986 0.90328 0.0
C1829 C 0.81174 0.63697 0.89832 0.0
C1830 C 0.84213 0.67057 0.92466 0.0
C1831 C 0.81933 0.67919 0.94221 0.0
C1832 C 0.7926 0.66611 0.93734 0.0
C1833 C 0.78885 0.64548 0.91572 0.0
C1834 C 0.85354 0.72732 0.99978 0.0
C1835 C 0.83114 0.7459 1.00708 0.0
C1836 C 0.8497 0.70568 0.9792 0.0
C1837 C 0.82338 0.70195 0.96494 0.0
C1838 C 0.80106 0.72066 0.97236 0.0
C1839 C 0.80484 0.74208 0.99303 0.0
H1840 H 0.63335 0.91559 0.76958 0.0
H1841 H 0.64396 0.89209 0.85784 0.0
H1842 H 0.66898 0.95312 0.77547 0.0
H1843 H 0.68015 0.92858 0.8635 0.0
H1844 H 0.75421 0.99938 0.78631 0.0
H1845 H 0.71709 0.96377 0.78054 0.0
H1846 H 0.69158 0.97653 0.86803 0.0
H1847 H 0.72965 1.0115 0.87403 0.0
C1848 C 0.64323 0.91836 0.79026 0.0
C1849 C 0.63539 0.90067 0.8132 0.0
C1850 C 0.66401 0.93985 0.79365 0.0
C1851 C 0.67788 0.94433 0.82007 0.0
C1852 C 0.66989 0.92656 0.84294 0.0
C1853 C 0.64905 0.90527 0.8396 0.0
C1854 C 0.74069 0.99472 0.8044 0.0
C1855 C 0.74517 1.00861 0.83069 0.0
C1856 C 0.71905 0.97425 0.80099 0.0
C1857 C 0.70082 0.96688 0.82369 0.0
C1858 C 0.7052 0.98099 0.84999 0.0
C1859 C 0.72703 1.00138 0.85345 0.0
H1860 H 0.64433 0.25392 0.28604 0.0
H1861 H 0.633 0.2294 0.37389 0.0
H1862 H 0.68002 0.2169 0.28012 0.0
H1863 H 0.66806 0.19142 0.36776 0.0
H1864 H 0.72857 0.13325 0.26915 0.0
H1865 H 0.69091 0.16874 0.27513 0.0
H1866 H 0.716 0.18029 0.36297 0.0
H1867 H 0.75262 0.14425 0.35722 0.0
C1868 C 0.64918 0.24043 0.30413 0.0
C1869 C 0.63548 0.2449 0.3305 0.0
C1870 C 0.6697 0.21884 0.30064 0.0
C1871 C 0.67732 0.20066 0.32334 0.0
C1872 C 0.6634 0.20502 0.34972 0.0
C1873 C 0.64296 0.22679 0.35325 0.0
C1874 C 0.7259 0.14319 0.2898 0.0
C1875 C 0.74378 0.1355 0.31267 0.0
C1876 C 0.70433 0.16388 0.29325 0.0
C1877 C 0.69996 0.17781 0.31964 0.0
C1878 C 0.71793 0.16997 0.34243 0.0
C1879 C 0.73929 0.14923 0.33904 0.0
H1880 H 0.41509 0.1331 0.87323 0.0
H1881 H 0.38908 0.14562 0.78594 0.0
H1882 H 0.45278 0.16845 0.86695 0.0
H1883 H 0.42572 0.18158 0.77991 0.0
H1884 H 0.50851 0.23092 0.76789 0.0
H1885 H 0.47335 0.19303 0.77406 0.0
H1886 H 0.46413 0.21634 0.86264 0.0
H1887 H 0.49992 0.25317 0.85665 0.0
C1888 C 0.41732 0.14337 0.85269 0.0
C1889 C 0.39889 0.13611 0.83013 0.0
C1890 C 0.43892 0.16399 0.84906 0.0
C1891 C 0.44276 0.17834 0.8228 0.0
C1892 C 0.42423 0.17094 0.80032 0.0
C1893 C 0.40284 0.15024 0.80388 0.0
C1894 C 0.49914 0.22783 0.78874 0.0
C1895 C 0.50744 0.24525 0.81173 0.0
C1896 C 0.47862 0.20611 0.79231 0.0
C1897 C 0.46544 0.20115 0.81897 0.0
C1898 C 0.47386 0.2187 0.84189 0.0
C1899 C 0.49446 0.2402 0.83836 0.0
H1900 H 0.51038 0.91575 0.37449 0.0
H1901 H 0.4985 0.89025 0.28696 0.0
H1902 H 0.47488 0.95335 0.36818 0.0
H1903 H 0.4624 0.92676 0.28091 0.0
H1904 H 0.41268 1.00942 0.26896 0.0
H1905 H 0.45071 0.97439 0.27522 0.0
H1906 H 0.42703 0.96454 0.36361 0.0
H1907 H 0.39006 1.00021 0.35754 0.0
C1908 C 0.50023 0.91807 0.35388 0.0
C1909 C 0.50771 0.89981 0.33127 0.0
C1910 C 0.47952 0.93962 0.35025 0.0
C1911 C 0.46531 0.94356 0.32391 0.0
C1912 C 0.47292 0.92519 0.30137 0.0
C1913 C 0.49371 0.90388 0.30495 0.0
C1914 C 0.41572 0.99994 0.28979 0.0
C1915 C 0.39815 1.00802 0.3127 0.0
C1916 C 0.43752 0.9795 0.29341 0.0
C1917 C 0.44241 0.96617 0.32004 0.0
C1918 C 0.42472 0.97439 0.34288 0.0
C1919 C 0.40314 0.99492 0.33931 0.0
loop_
_geom_bond_atom_site_label_1
_geom_bond_atom_site_label_2
_geom_bond_distance
_geom_bond_site_symmetry_2
_ccdc_geom_bond_type
O0 Tb1 2.506 . S
O0 C14 1.265 . S
Tb1 O0 2.506 . S
Tb1 O6 2.312 1_655 S
Tb1 O10 2.271 . S
Tb1 O12 2.338 . S
Tb1 O19 2.441 . S
C2 O10 1.252 . S
C2 O11 1.253 . S
O3 Tb4 2.271 . S
O3 C13 1.252 . S
Tb4 O3 2.271 . S
Tb4 O7 2.338 . S
Tb4 O11 2.312 1_455 S
Tb4 O15 2.441 . S
Tb4 O16 2.506 . S
C5 O15 1.244 . S
C5 O16 1.265 . S
O6 Tb1 2.312 1_455 S
O6 C13 1.253 . S
O7 Tb4 2.338 . S
O7 C8 1.258 . S
C8 O7 1.258 . S
C8 O9 1.251 . S
O9 C8 1.251 . S
O10 Tb1 2.271 . S
O10 C2 1.252 . S
O11 C2 1.253 . S
O11 Tb4 2.312 1_655 S
O12 Tb1 2.338 . S
O12 C17 1.258 . S
C13 O3 1.252 . S
C13 O6 1.253 . S
C14 O0 1.265 . S
C14 O19 1.244 . S
O15 Tb4 2.441 . S
O15 C5 1.244 . S
O16 Tb4 2.506 . S
O16 C5 1.265 . S
C17 O12 1.258 . S
C17 O18 1.251 . S
O18 C17 1.251 . S
O19 Tb1 2.441 . S
O19 C14 1.244 . S
O20 Tb21 2.506 . S
O20 C34 1.265 . S
Tb21 O20 2.506 . S
Tb21 O26 2.312 . S
Tb21 O30 2.271 . S
Tb21 O32 2.338 . S
Tb21 O39 2.441 . S
C22 O30 1.252 . S
C22 O31 1.253 . S
O23 Tb24 2.271 . S
O23 C33 1.252 . S
Tb24 O23 2.271 . S
Tb24 O27 2.338 . S
Tb24 O31 2.312 . S
Tb24 O35 2.441 . S
Tb24 O36 2.506 . S
C25 O35 1.244 . S
C25 O36 1.265 . S
O26 Tb21 2.312 . S
O26 C33 1.253 . S
O27 Tb24 2.338 . S
O27 C28 1.258 . S
C28 O27 1.258 . S
C28 O29 1.251 . S
O29 C28 1.251 . S
O30 Tb21 2.271 . S
O30 C22 1.252 . S
O31 C22 1.253 . S
O31 Tb24 2.312 . S
O32 Tb21 2.338 . S
O32 C37 1.258 . S
C33 O23 1.252 . S
C33 O26 1.253 . S
C34 O20 1.265 . S
C34 O39 1.244 . S
O35 Tb24 2.441 . S
O35 C25 1.244 . S
O36 Tb24 2.506 . S
O36 C25 1.265 . S
C37 O32 1.258 . S
C37 O38 1.251 . S
O38 C37 1.251 . S
O39 Tb21 2.441 . S
O39 C34 1.244 . S
O40 Tb41 2.506 . S
O40 C54 1.265 . S
Tb41 O40 2.506 . S
Tb41 O46 2.312 1_455 S
Tb41 O50 2.271 . S
Tb41 O52 2.338 . S
Tb41 O59 2.441 . S
C42 O50 1.252 . S
C42 O51 1.253 . S
O43 Tb44 2.271 . S
O43 C53 1.252 . S
Tb44 O43 2.271 . S
Tb44 O47 2.338 . S
Tb44 O51 2.312 1_655 S
Tb44 O55 2.441 . S
Tb44 O56 2.506 . S
C45 O55 1.244 . S
C45 O56 1.265 . S
O46 Tb41 2.312 1_655 S
O46 C53 1.253 . S
O47 Tb44 2.338 . S
O47 C48 1.258 . S
C48 O47 1.258 . S
C48 O49 1.251 . S
O49 C48 1.251 . S
O50 Tb41 2.271 . S
O50 C42 1.252 . S
O51 C42 1.253 . S
O51 Tb44 2.312 1_455 S
O52 Tb41 2.338 . S
O52 C57 1.258 . S
C53 O43 1.252 . S
C53 O46 1.253 . S
C54 O40 1.265 . S
C54 O59 1.244 . S
O55 Tb44 2.441 . S
O55 C45 1.244 . S
O56 Tb44 2.506 . S
O56 C45 1.265 . S
C57 O52 1.258 . S
C57 O58 1.251 . S
O58 C57 1.251 . S
O59 Tb41 2.441 . S
O59 C54 1.244 . S
O60 Tb61 2.506 . S
O60 C74 1.265 . S
Tb61 O60 2.506 . S
Tb61 O66 2.312 . S
Tb61 O70 2.271 . S
Tb61 O72 2.338 . S
Tb61 O79 2.441 . S
C62 O70 1.252 . S
C62 O71 1.253 . S
O63 Tb64 2.271 . S
O63 C73 1.252 . S
Tb64 O63 2.271 . S
Tb64 O67 2.338 . S
Tb64 O71 2.312 . S
Tb64 O75 2.441 . S
Tb64 O76 2.506 . S
C65 O75 1.244 . S
C65 O76 1.265 . S
O66 Tb61 2.312 . S
O66 C73 1.253 . S
O67 Tb64 2.338 . S
O67 C68 1.258 . S
C68 O67 1.258 . S
C68 O69 1.251 . S
O69 C68 1.251 . S
O70 Tb61 2.271 . S
O70 C62 1.252 . S
O71 C62 1.253 . S
O71 Tb64 2.312 . S
O72 Tb61 2.338 . S
O72 C77 1.258 . S
C73 O63 1.252 . S
C73 O66 1.253 . S
C74 O60 1.265 . S
C74 O79 1.244 . S
O75 Tb64 2.441 . S
O75 C65 1.244 . S
O76 Tb64 2.506 . S
O76 C65 1.265 . S
C77 O72 1.258 . S
C77 O78 1.251 . S
O78 C77 1.251 . S
O79 Tb61 2.441 . S
O79 C74 1.244 . S
O80 Tb81 2.506 . S
O80 C94 1.265 . S
Tb81 O80 2.506 . S
Tb81 O86 2.312 1_655 S
Tb81 O90 2.271 . S
Tb81 O92 2.338 . S
Tb81 O99 2.441 . S
C82 O90 1.252 . S
C82 O91 1.253 . S
O83 Tb84 2.271 . S
O83 C93 1.252 . S
Tb84 O83 2.271 . S
Tb84 O87 2.338 . S
Tb84 O91 2.312 1_455 S
Tb84 O95 2.441 . S
Tb84 O96 2.506 . S
C85 O95 1.244 . S
C85 O96 1.265 . S
O86 Tb81 2.312 1_455 S
O86 C93 1.253 . S
O87 Tb84 2.338 . S
O87 C88 1.258 . S
C88 O87 1.258 . S
C88 O89 1.251 . S
O89 C88 1.251 . S
O90 Tb81 2.271 . S
O90 C82 1.252 . S
O91 C82 1.253 . S
O91 Tb84 2.312 1_655 S
O92 Tb81 2.338 . S
O92 C97 1.258 . S
C93 O83 1.252 . S
C93 O86 1.253 . S
C94 O80 1.265 . S
C94 O99 1.244 . S
O95 Tb84 2.441 . S
O95 C85 1.244 . S
O96 Tb84 2.506 . S
O96 C85 1.265 . S
C97 O92 1.258 . S
C97 O98 1.251 . S
O98 C97 1.251 . S
O99 Tb81 2.441 . S
O99 C94 1.244 . S
O100 Tb101 2.506 . S
O100 C114 1.265 . S
Tb101 O100 2.506 . S
Tb101 O106 2.312 . S
Tb101 O110 2.271 . S
Tb101 O112 2.338 . S
Tb101 O119 2.441 . S
C102 O110 1.252 . S
C102 O111 1.253 . S
O103 Tb104 2.271 . S
O103 C113 1.252 . S
Tb104 O103 2.271 . S
Tb104 O107 2.338 . S
Tb104 O111 2.312 . S
Tb104 O115 2.441 . S
Tb104 O116 2.506 . S
C105 O115 1.244 . S
C105 O116 1.265 . S
O106 Tb101 2.312 . S
O106 C113 1.253 . S
O107 Tb104 2.338 . S
O107 C108 1.258 . S
C108 O107 1.258 . S
C108 O109 1.251 . S
O109 C108 1.251 . S
O110 Tb101 2.271 . S
O110 C102 1.252 . S
O111 C102 1.253 . S
O111 Tb104 2.312 . S
O112 Tb101 2.338 . S
O112 C117 1.258 . S
C113 O103 1.252 . S
C113 O106 1.253 . S
C114 O100 1.265 . S
C114 O119 1.244 . S
O115 Tb104 2.441 . S
O115 C105 1.244 . S
O116 Tb104 2.506 . S
O116 C105 1.265 . S
C117 O112 1.258 . S
C117 O118 1.251 . S
O118 C117 1.251 . S
O119 Tb101 2.441 . S
O119 C114 1.244 . S
O120 Tb121 2.506 . S
O120 C134 1.265 . S
Tb121 O120 2.506 . S
Tb121 O126 2.312 1_455 S
Tb121 O130 2.271 . S
Tb121 O132 2.338 . S
Tb121 O139 2.441 . S
C122 O130 1.252 . S
C122 O131 1.253 . S
O123 Tb124 2.271 . S
O123 C133 1.252 . S
Tb124 O123 2.271 . S
Tb124 O127 2.338 . S
Tb124 O131 2.312 1_655 S
Tb124 O135 2.441 . S
Tb124 O136 2.506 . S
C125 O135 1.244 . S
C125 O136 1.265 . S
O126 Tb121 2.312 1_655 S
O126 C133 1.253 . S
O127 Tb124 2.338 . S
O127 C128 1.258 . S
C128 O127 1.258 . S
C128 O129 1.251 . S
O129 C128 1.251 . S
O130 Tb121 2.271 . S
O130 C122 1.252 . S
O131 C122 1.253 . S
O131 Tb124 2.312 1_455 S
O132 Tb121 2.338 . S
O132 C137 1.258 . S
C133 O123 1.252 . S
C133 O126 1.253 . S
C134 O120 1.265 . S
C134 O139 1.244 . S
O135 Tb124 2.441 . S
O135 C125 1.244 . S
O136 Tb124 2.506 . S
O136 C125 1.265 . S
C137 O132 1.258 . S
C137 O138 1.251 . S
O138 C137 1.251 . S
O139 Tb121 2.441 . S
O139 C134 1.244 . S
O140 Tb141 2.506 . S
O140 C154 1.265 . S
Tb141 O140 2.506 . S
Tb141 O146 2.312 . S
Tb141 O150 2.271 . S
Tb141 O152 2.338 . S
Tb141 O159 2.441 . S
C142 O150 1.252 . S
C142 O151 1.253 . S
O143 Tb144 2.271 . S
O143 C153 1.252 . S
Tb144 O143 2.271 . S
Tb144 O147 2.338 . S
Tb144 O151 2.312 . S
Tb144 O155 2.441 . S
Tb144 O156 2.506 . S
C145 O155 1.244 . S
C145 O156 1.265 . S
O146 Tb141 2.312 . S
O146 C153 1.253 . S
O147 Tb144 2.338 . S
O147 C148 1.258 . S
C148 O147 1.258 . S
C148 O149 1.251 . S
O149 C148 1.251 . S
O150 Tb141 2.271 . S
O150 C142 1.252 . S
O151 C142 1.253 . S
O151 Tb144 2.312 . S
O152 Tb141 2.338 . S
O152 C157 1.258 . S
C153 O143 1.252 . S
C153 O146 1.253 . S
C154 O140 1.265 . S
C154 O159 1.244 . S
O155 Tb144 2.441 . S
O155 C145 1.244 . S
O156 Tb144 2.506 . S
O156 C145 1.265 . S
C157 O152 1.258 . S
C157 O158 1.251 . S
O158 C157 1.251 . S
O159 Tb141 2.441 . S
O159 C154 1.244 . S
O160 Tb161 2.506 . S
O160 C174 1.265 . S
Tb161 O160 2.506 . S
Tb161 O166 2.312 1_565 S
Tb161 O170 2.271 . S
Tb161 O172 2.338 . S
Tb161 O179 2.441 . S
C162 O170 1.252 . S
C162 O171 1.253 . S
O163 Tb164 2.271 . S
O163 C173 1.252 . S
Tb164 O163 2.271 . S
Tb164 O167 2.338 . S
Tb164 O171 2.312 1_545 S
Tb164 O175 2.441 . S
Tb164 O176 2.506 . S
C165 O175 1.244 . S
C165 O176 1.265 . S
O166 Tb161 2.312 1_545 S
O166 C173 1.253 . S
O167 Tb164 2.338 . S
O167 C168 1.258 . S
C168 O167 1.258 . S
C168 O169 1.251 . S
O169 C168 1.251 . S
O170 Tb161 2.271 . S
O170 C162 1.252 . S
O171 C162 1.253 . S
O171 Tb164 2.312 1_565 S
O172 Tb161 2.338 . S
O172 C177 1.258 . S
C173 O163 1.252 . S
C173 O166 1.253 . S
C174 O160 1.265 . S
C174 O179 1.244 . S
O175 Tb164 2.441 . S
O175 C165 1.244 . S
O176 Tb164 2.506 . S
O176 C165 1.265 . S
C177 O172 1.258 . S
C177 O178 1.251 . S
O178 C177 1.251 . S
O179 Tb161 2.441 . S
O179 C174 1.244 . S
O180 Tb181 2.506 . S
O180 C194 1.265 . S
Tb181 O180 2.506 . S
Tb181 O186 2.312 . S
Tb181 O190 2.271 . S
Tb181 O192 2.338 . S
Tb181 O199 2.441 . S
C182 O190 1.252 . S
C182 O191 1.253 . S
O183 Tb184 2.271 . S
O183 C193 1.252 . S
Tb184 O183 2.271 . S
Tb184 O187 2.338 . S
Tb184 O191 2.312 . S
Tb184 O195 2.441 . S
Tb184 O196 2.506 . S
C185 O195 1.244 . S
C185 O196 1.265 . S
O186 Tb181 2.312 . S
O186 C193 1.253 . S
O187 Tb184 2.338 . S
O187 C188 1.258 . S
C188 O187 1.258 . S
C188 O189 1.251 . S
O189 C188 1.251 . S
O190 Tb181 2.271 . S
O190 C182 1.252 . S
O191 C182 1.253 . S
O191 Tb184 2.312 . S
O192 Tb181 2.338 . S
O192 C197 1.258 . S
C193 O183 1.252 . S
C193 O186 1.253 . S
C194 O180 1.265 . S
C194 O199 1.244 . S
O195 Tb184 2.441 . S
O195 C185 1.244 . S
O196 Tb184 2.506 . S
O196 C185 1.265 . S
C197 O192 1.258 . S
C197 O198 1.251 . S
O198 C197 1.251 . S
O199 Tb181 2.441 . S
O199 C194 1.244 . S
O200 Tb201 2.506 . S
O200 C214 1.265 . S
Tb201 O200 2.506 . S
Tb201 O206 2.312 1_545 S
Tb201 O210 2.271 . S
Tb201 O212 2.338 . S
Tb201 O219 2.441 . S
C202 O210 1.252 . S
C202 O211 1.253 . S
O203 Tb204 2.271 . S
O203 C213 1.252 . S
Tb204 O203 2.271 . S
Tb204 O207 2.338 . S
Tb204 O211 2.312 1_565 S
Tb204 O215 2.441 . S
Tb204 O216 2.506 . S
C205 O215 1.244 . S
C205 O216 1.265 . S
O206 Tb201 2.312 1_565 S
O206 C213 1.253 . S
O207 Tb204 2.338 . S
O207 C208 1.258 . S
C208 O207 1.258 . S
C208 O209 1.251 . S
O209 C208 1.251 . S
O210 Tb201 2.271 . S
O210 C202 1.252 . S
O211 C202 1.253 . S
O211 Tb204 2.312 1_545 S
O212 Tb201 2.338 . S
O212 C217 1.258 . S
C213 O203 1.252 . S
C213 O206 1.253 . S
C214 O200 1.265 . S
C214 O219 1.244 . S
O215 Tb204 2.441 . S
O215 C205 1.244 . S
O216 Tb204 2.506 . S
O216 C205 1.265 . S
C217 O212 1.258 . S
C217 O218 1.251 . S
O218 C217 1.251 . S
O219 Tb201 2.441 . S
O219 C214 1.244 . S
O220 Tb221 2.506 . S
O220 C234 1.265 . S
Tb221 O220 2.506 . S
Tb221 O226 2.312 . S
Tb221 O230 2.271 . S
Tb221 O232 2.338 . S
Tb221 O239 2.441 . S
C222 O230 1.252 . S
C222 O231 1.253 . S
O223 Tb224 2.271 . S
O223 C233 1.252 . S
Tb224 O223 2.271 . S
Tb224 O227 2.338 . S
Tb224 O231 2.312 . S
Tb224 O235 2.441 . S
Tb224 O236 2.506 . S
C225 O235 1.244 . S
C225 O236 1.265 . S
O226 Tb221 2.312 . S
O226 C233 1.253 . S
O227 Tb224 2.338 . S
O227 C228 1.258 . S
C228 O227 1.258 . S
C228 O229 1.251 . S
O229 C228 1.251 . S
O230 Tb221 2.271 . S
O230 C222 1.252 . S
O231 C222 1.253 . S
O231 Tb224 2.312 . S
O232 Tb221 2.338 . S
O232 C237 1.258 . S
C233 O223 1.252 . S
C233 O226 1.253 . S
C234 O220 1.265 . S
C234 O239 1.244 . S
O235 Tb224 2.441 . S
O235 C225 1.244 . S
O236 Tb224 2.506 . S
O236 C225 1.265 . S
C237 O232 1.258 . S
C237 O238 1.251 . S
O238 C237 1.251 . S
O239 Tb221 2.441 . S
O239 C234 1.244 . S
O240 Tb241 2.506 . S
O240 C254 1.265 . S
Tb241 O240 2.506 . S
Tb241 O246 2.312 1_545 S
Tb241 O250 2.271 . S
Tb241 O252 2.338 . S
Tb241 O259 2.441 . S
C242 O250 1.252 . S
C242 O251 1.253 . S
O243 Tb244 2.271 . S
O243 C253 1.252 . S
Tb244 O243 2.271 . S
Tb244 O247 2.338 . S
Tb244 O251 2.312 1_565 S
Tb244 O255 2.441 . S
Tb244 O256 2.506 . S
C245 O255 1.244 . S
C245 O256 1.265 . S
O246 Tb241 2.312 1_565 S
O246 C253 1.253 . S
O247 Tb244 2.338 . S
O247 C248 1.258 . S
C248 O247 1.258 . S
C248 O249 1.251 . S
O249 C248 1.251 . S
O250 Tb241 2.271 . S
O250 C242 1.252 . S
O251 C242 1.253 . S
O251 Tb244 2.312 1_545 S
O252 Tb241 2.338 . S
O252 C257 1.258 . S
C253 O243 1.252 . S
C253 O246 1.253 . S
C254 O240 1.265 . S
C254 O259 1.244 . S
O255 Tb244 2.441 . S
O255 C245 1.244 . S
O256 Tb244 2.506 . S
O256 C245 1.265 . S
C257 O252 1.258 . S
C257 O258 1.251 . S
O258 C257 1.251 . S
O259 Tb241 2.441 . S
O259 C254 1.244 . S
O260 Tb261 2.506 . S
O260 C274 1.265 . S
Tb261 O260 2.506 . S
Tb261 O266 2.312 . S
Tb261 O270 2.271 . S
Tb261 O272 2.338 . S
Tb261 O279 2.441 . S
C262 O270 1.252 . S
C262 O271 1.253 . S
O263 Tb264 2.271 . S
O263 C273 1.252 . S
Tb264 O263 2.271 . S
Tb264 O267 2.338 . S
Tb264 O271 2.312 . S
Tb264 O275 2.441 . S
Tb264 O276 2.506 . S
C265 O275 1.244 . S
C265 O276 1.265 . S
O266 Tb261 2.312 . S
O266 C273 1.253 . S
O267 Tb264 2.338 . S
O267 C268 1.258 . S
C268 O267 1.258 . S
C268 O269 1.251 . S
O269 C268 1.251 . S
O270 Tb261 2.271 . S
O270 C262 1.252 . S
O271 C262 1.253 . S
O271 Tb264 2.312 . S
O272 Tb261 2.338 . S
O272 C277 1.258 . S
C273 O263 1.252 . S
C273 O266 1.253 . S
C274 O260 1.265 . S
C274 O279 1.244 . S
O275 Tb264 2.441 . S
O275 C265 1.244 . S
O276 Tb264 2.506 . S
O276 C265 1.265 . S
C277 O272 1.258 . S
C277 O278 1.251 . S
O278 C277 1.251 . S
O279 Tb261 2.441 . S
O279 C274 1.244 . S
O280 Tb281 2.506 . S
O280 C294 1.265 . S
Tb281 O280 2.506 . S
Tb281 O286 2.312 1_565 S
Tb281 O290 2.271 . S
Tb281 O292 2.338 . S
Tb281 O299 2.441 . S
C282 O290 1.252 . S
C282 O291 1.253 . S
O283 Tb284 2.271 . S
O283 C293 1.252 . S
Tb284 O283 2.271 . S
Tb284 O287 2.338 . S
Tb284 O291 2.312 1_545 S
Tb284 O295 2.441 . S
Tb284 O296 2.506 . S
C285 O295 1.244 . S
C285 O296 1.265 . S
O286 Tb281 2.312 1_545 S
O286 C293 1.253 . S
O287 Tb284 2.338 . S
O287 C288 1.258 . S
C288 O287 1.258 . S
C288 O289 1.251 . S
O289 C288 1.251 . S
O290 Tb281 2.271 . S
O290 C282 1.252 . S
O291 C282 1.253 . S
O291 Tb284 2.312 1_565 S
O292 Tb281 2.338 . S
O292 C297 1.258 . S
C293 O283 1.252 . S
C293 O286 1.253 . S
C294 O280 1.265 . S
C294 O299 1.244 . S
O295 Tb284 2.441 . S
O295 C285 1.244 . S
O296 Tb284 2.506 . S
O296 C285 1.265 . S
C297 O292 1.258 . S
C297 O298 1.251 . S
O298 C297 1.251 . S
O299 Tb281 2.441 . S
O299 C294 1.244 . S
O300 Tb301 2.506 . S
O300 C314 1.265 . S
Tb301 O300 2.506 . S
Tb301 O306 2.312 . S
Tb301 O310 2.271 . S
Tb301 O312 2.338 . S
Tb301 O319 2.441 . S
C302 O310 1.252 . S
C302 O311 1.253 . S
O303 Tb304 2.271 . S
O303 C313 1.252 . S
Tb304 O303 2.271 . S
Tb304 O307 2.338 . S
Tb304 O311 2.312 . S
Tb304 O315 2.441 . S
Tb304 O316 2.506 . S
C305 O315 1.244 . S
C305 O316 1.265 . S
O306 Tb301 2.312 . S
O306 C313 1.253 . S
O307 Tb304 2.338 . S
O307 C308 1.258 . S
C308 O307 1.258 . S
C308 O309 1.251 . S
O309 C308 1.251 . S
O310 Tb301 2.271 . S
O310 C302 1.252 . S
O311 C302 1.253 . S
O311 Tb304 2.312 . S
O312 Tb301 2.338 . S
O312 C317 1.258 . S
C313 O303 1.252 . S
C313 O306 1.253 . S
C314 O300 1.265 . S
C314 O319 1.244 . S
O315 Tb304 2.441 . S
O315 C305 1.244 . S
O316 Tb304 2.506 . S
O316 C305 1.265 . S
C317 O312 1.258 . S
C317 O318 1.251 . S
O318 C317 1.251 . S
O319 Tb301 2.441 . S
O319 C314 1.244 . S
O320 Tb321 2.506 . S
O320 C334 1.265 . S
Tb321 O320 2.506 . S
Tb321 O326 2.312 1_556 S
Tb321 O330 2.271 . S
Tb321 O332 2.338 . S
Tb321 O339 2.441 . S
C322 O330 1.252 . S
C322 O331 1.253 . S
O323 Tb324 2.271 . S
O323 C333 1.252 . S
Tb324 O323 2.271 . S
Tb324 O327 2.338 . S
Tb324 O331 2.312 1_554 S
Tb324 O335 2.441 . S
Tb324 O336 2.506 . S
C325 O335 1.244 . S
C325 O336 1.265 . S
O326 Tb321 2.312 1_554 S
O326 C333 1.253 . S
O327 Tb324 2.338 . S
O327 C328 1.258 . S
C328 O327 1.258 . S
C328 O329 1.251 . S
O329 C328 1.251 . S
O330 Tb321 2.271 . S
O330 C322 1.252 . S
O331 C322 1.253 . S
O331 Tb324 2.312 1_556 S
O332 Tb321 2.338 . S
O332 C337 1.258 . S
C333 O323 1.252 . S
C333 O326 1.253 . S
C334 O320 1.265 . S
C334 O339 1.244 . S
O335 Tb324 2.441 . S
O335 C325 1.244 . S
O336 Tb324 2.506 . S
O336 C325 1.265 . S
C337 O332 1.258 . S
C337 O338 1.251 . S
O338 C337 1.251 . S
O339 Tb321 2.441 . S
O339 C334 1.244 . S
O340 Tb341 2.506 . S
O340 C354 1.265 . S
Tb341 O340 2.506 . S
Tb341 O346 2.312 1_554 S
Tb341 O350 2.271 . S
Tb341 O352 2.338 . S
Tb341 O359 2.441 . S
C342 O350 1.252 . S
C342 O351 1.253 . S
O343 Tb344 2.271 . S
O343 C353 1.252 . S
Tb344 O343 2.271 . S
Tb344 O347 2.338 . S
Tb344 O351 2.312 1_556 S
Tb344 O355 2.441 . S
Tb344 O356 2.506 . S
C345 O355 1.244 . S
C345 O356 1.265 . S
O346 Tb341 2.312 1_556 S
O346 C353 1.253 . S
O347 Tb344 2.338 . S
O347 C348 1.258 . S
C348 O347 1.258 . S
C348 O349 1.251 . S
O349 C348 1.251 . S
O350 Tb341 2.271 . S
O350 C342 1.252 . S
O351 C342 1.253 . S
O351 Tb344 2.312 1_554 S
O352 Tb341 2.338 . S
O352 C357 1.258 . S
C353 O343 1.252 . S
C353 O346 1.253 . S
C354 O340 1.265 . S
C354 O359 1.244 . S
O355 Tb344 2.441 . S
O355 C345 1.244 . S
O356 Tb344 2.506 . S
O356 C345 1.265 . S
C357 O352 1.258 . S
C357 O358 1.251 . S
O358 C357 1.251 . S
O359 Tb341 2.441 . S
O359 C354 1.244 . S
O360 Tb361 2.506 . S
O360 C374 1.265 . S
Tb361 O360 2.506 . S
Tb361 O366 2.312 . S
Tb361 O370 2.271 . S
Tb361 O372 2.338 . S
Tb361 O379 2.441 . S
C362 O370 1.252 . S
C362 O371 1.253 . S
O363 Tb364 2.271 . S
O363 C373 1.252 . S
Tb364 O363 2.271 . S
Tb364 O367 2.338 . S
Tb364 O371 2.312 . S
Tb364 O375 2.441 . S
Tb364 O376 2.506 . S
C365 O375 1.244 . S
C365 O376 1.265 . S
O366 Tb361 2.312 . S
O366 C373 1.253 . S
O367 Tb364 2.338 . S
O367 C368 1.258 . S
C368 O367 1.258 . S
C368 O369 1.251 . S
O369 C368 1.251 . S
O370 Tb361 2.271 . S
O370 C362 1.252 . S
O371 C362 1.253 . S
O371 Tb364 2.312 . S
O372 Tb361 2.338 . S
O372 C377 1.258 . S
C373 O363 1.252 . S
C373 O366 1.253 . S
C374 O360 1.265 . S
C374 O379 1.244 . S
O375 Tb364 2.441 . S
O375 C365 1.244 . S
O376 Tb364 2.506 . S
O376 C365 1.265 . S
C377 O372 1.258 . S
C377 O378 1.251 . S
O378 C377 1.251 . S
O379 Tb361 2.441 . S
O379 C374 1.244 . S
O380 Tb381 2.506 . S
O380 C394 1.265 . S
Tb381 O380 2.506 . S
Tb381 O386 2.312 1_554 S
Tb381 O390 2.271 . S
Tb381 O392 2.338 . S
Tb381 O399 2.441 . S
C382 O390 1.252 . S
C382 O391 1.253 . S
O383 Tb384 2.271 . S
O383 C393 1.252 . S
Tb384 O383 2.271 . S
Tb384 O387 2.338 . S
Tb384 O391 2.312 1_556 S
Tb384 O395 2.441 . S
Tb384 O396 2.506 . S
C385 O395 1.244 . S
C385 O396 1.265 . S
O386 Tb381 2.312 1_556 S
O386 C393 1.253 . S
O387 Tb384 2.338 . S
O387 C388 1.258 . S
C388 O387 1.258 . S
C388 O389 1.251 . S
O389 C388 1.251 . S
O390 Tb381 2.271 . S
O390 C382 1.252 . S
O391 C382 1.253 . S
O391 Tb384 2.312 1_554 S
O392 Tb381 2.338 . S
O392 C397 1.258 . S
C393 O383 1.252 . S
C393 O386 1.253 . S
C394 O380 1.265 . S
C394 O399 1.244 . S
O395 Tb384 2.441 . S
O395 C385 1.244 . S
O396 Tb384 2.506 . S
O396 C385 1.265 . S
C397 O392 1.258 . S
C397 O398 1.251 . S
O398 C397 1.251 . S
O399 Tb381 2.441 . S
O399 C394 1.244 . S
O400 Tb401 2.506 . S
O400 C414 1.265 . S
Tb401 O400 2.506 . S
Tb401 O406 2.312 . S
Tb401 O410 2.271 . S
Tb401 O412 2.338 . S
Tb401 O419 2.441 . S
C402 O410 1.252 . S
C402 O411 1.253 . S
O403 Tb404 2.271 . S
O403 C413 1.252 . S
Tb404 O403 2.271 . S
Tb404 O407 2.338 . S
Tb404 O411 2.312 . S
Tb404 O415 2.441 . S
Tb404 O416 2.506 . S
C405 O415 1.244 . S
C405 O416 1.265 . S
O406 Tb401 2.312 . S
O406 C413 1.253 . S
O407 Tb404 2.338 . S
O407 C408 1.258 . S
C408 O407 1.258 . S
C408 O409 1.251 . S
O409 C408 1.251 . S
O410 Tb401 2.271 . S
O410 C402 1.252 . S
O411 C402 1.253 . S
O411 Tb404 2.312 . S
O412 Tb401 2.338 . S
O412 C417 1.258 . S
C413 O403 1.252 . S
C413 O406 1.253 . S
C414 O400 1.265 . S
C414 O419 1.244 . S
O415 Tb404 2.441 . S
O415 C405 1.244 . S
O416 Tb404 2.506 . S
O416 C405 1.265 . S
C417 O412 1.258 . S
C417 O418 1.251 . S
O418 C417 1.251 . S
O419 Tb401 2.441 . S
O419 C414 1.244 . S
O420 Tb421 2.506 . S
O420 C434 1.265 . S
Tb421 O420 2.506 . S
Tb421 O426 2.312 1_556 S
Tb421 O430 2.271 . S
Tb421 O432 2.338 . S
Tb421 O439 2.441 . S
C422 O430 1.252 . S
C422 O431 1.253 . S
O423 Tb424 2.271 . S
O423 C433 1.252 . S
Tb424 O423 2.271 . S
Tb424 O427 2.338 . S
Tb424 O431 2.312 1_554 S
Tb424 O435 2.441 . S
Tb424 O436 2.506 . S
C425 O435 1.244 . S
C425 O436 1.265 . S
O426 Tb421 2.312 1_554 S
O426 C433 1.253 . S
O427 Tb424 2.338 . S
O427 C428 1.258 . S
C428 O427 1.258 . S
C428 O429 1.251 . S
O429 C428 1.251 . S
O430 Tb421 2.271 . S
O430 C422 1.252 . S
O431 C422 1.253 . S
O431 Tb424 2.312 1_556 S
O432 Tb421 2.338 . S
O432 C437 1.258 . S
C433 O423 1.252 . S
C433 O426 1.253 . S
C434 O420 1.265 . S
C434 O439 1.244 . S
O435 Tb424 2.441 . S
O435 C425 1.244 . S
O436 Tb424 2.506 . S
O436 C425 1.265 . S
C437 O432 1.258 . S
C437 O438 1.251 . S
O438 C437 1.251 . S
O439 Tb421 2.441 . S
O439 C434 1.244 . S
O440 Tb441 2.506 . S
O440 C454 1.265 . S
Tb441 O440 2.506 . S
Tb441 O446 2.312 . S
Tb441 O450 2.271 . S
Tb441 O452 2.338 . S
Tb441 O459 2.441 . S
C442 O450 1.252 . S
C442 O451 1.253 . S
O443 Tb444 2.271 . S
O443 C453 1.252 . S
Tb444 O443 2.271 . S
Tb444 O447 2.338 . S
Tb444 O451 2.312 . S
Tb444 O455 2.441 . S
Tb444 O456 2.506 . S
C445 O455 1.244 . S
C445 O456 1.265 . S
O446 Tb441 2.312 . S
O446 C453 1.253 . S
O447 Tb444 2.338 . S
O447 C448 1.258 . S
C448 O447 1.258 . S
C448 O449 1.251 . S
O449 C448 1.251 . S
O450 Tb441 2.271 . S
O450 C442 1.252 . S
O451 C442 1.253 . S
O451 Tb444 2.312 . S
O452 Tb441 2.338 . S
O452 C457 1.258 . S
C453 O443 1.252 . S
C453 O446 1.253 . S
C454 O440 1.265 . S
C454 O459 1.244 . S
O455 Tb444 2.441 . S
O455 C445 1.244 . S
O456 Tb444 2.506 . S
O456 C445 1.265 . S
C457 O452 1.258 . S
C457 O458 1.251 . S
O458 C457 1.251 . S
O459 Tb441 2.441 . S
O459 C454 1.244 . S
O460 Tb461 2.506 . S
O460 C474 1.265 . S
Tb461 O460 2.506 . S
Tb461 O466 2.312 . S
Tb461 O470 2.271 . S
Tb461 O472 2.338 . S
Tb461 O479 2.441 . S
C462 O470 1.252 . S
C462 O471 1.253 . S
O463 Tb464 2.271 . S
O463 C473 1.252 . S
Tb464 O463 2.271 . S
Tb464 O467 2.338 . S
Tb464 O471 2.312 . S
Tb464 O475 2.441 . S
Tb464 O476 2.506 . S
C465 O475 1.244 . S
C465 O476 1.265 . S
O466 Tb461 2.312 . S
O466 C473 1.253 . S
O467 Tb464 2.338 . S
O467 C468 1.258 . S
C468 O467 1.258 . S
C468 O469 1.251 . S
O469 C468 1.251 . S
O470 Tb461 2.271 . S
O470 C462 1.252 . S
O471 C462 1.253 . S
O471 Tb464 2.312 . S
O472 Tb461 2.338 . S
O472 C477 1.258 . S
C473 O463 1.252 . S
C473 O466 1.253 . S
C474 O460 1.265 . S
C474 O479 1.244 . S
O475 Tb464 2.441 . S
O475 C465 1.244 . S
O476 Tb464 2.506 . S
O476 C465 1.265 . S
C477 O472 1.258 . S
C477 O478 1.251 . S
O478 C477 1.251 . S
O479 Tb461 2.441 . S
O479 C474 1.244 . S
H480 C488 0.950 . S
H481 C493 0.950 . S
H482 C490 0.950 . S
H483 C492 0.950 . S
H484 C494 0.950 . S
H485 C496 0.950 . S
H486 C498 0.950 . S
H487 C499 0.950 . S
C488 H480 0.950 . S
C488 C489 1.386 . S
C488 C490 1.391 . S
C489 C488 1.386 . S
C489 C493 1.393 . S
C490 H482 0.950 . S
C490 C488 1.391 . S
C490 C491 1.400 . S
C491 C490 1.400 . S
C491 C492 1.398 . S
C491 C497 1.491 . S
C492 H483 0.950 . S
C492 C491 1.398 . S
C492 C493 1.391 . S
C493 H481 0.950 . S
C493 C489 1.393 . S
C493 C492 1.391 . S
C494 H484 0.950 . S
C494 C495 1.386 . S
C494 C496 1.391 . S
C495 C494 1.386 . S
C495 C499 1.393 . S
C496 H485 0.950 . S
C496 C494 1.391 . S
C496 C497 1.400 . S
C497 C491 1.491 . S
C497 C496 1.400 . S
C497 C498 1.398 . S
C498 H486 0.950 . S
C498 C497 1.398 . S
C498 C499 1.391 . S
C499 H487 0.950 . S
C499 C495 1.393 . S
C499 C498 1.391 . S
H500 C508 0.950 . S
H501 C513 0.950 . S
H502 C510 0.950 . S
H503 C512 0.950 . S
H504 C514 0.950 . S
H505 C516 0.950 . S
H506 C518 0.950 . S
H507 C519 0.950 . S
C508 H500 0.950 . S
C508 C509 1.386 . S
C508 C510 1.391 . S
C509 C508 1.386 . S
C509 C513 1.393 . S
C510 H502 0.950 . S
C510 C508 1.391 . S
C510 C511 1.400 . S
C511 C510 1.400 . S
C511 C512 1.398 . S
C511 C517 1.491 . S
C512 H503 0.950 . S
C512 C511 1.398 . S
C512 C513 1.391 . S
C513 H501 0.950 . S
C513 C509 1.393 . S
C513 C512 1.391 . S
C514 H504 0.950 . S
C514 C515 1.386 . S
C514 C516 1.391 . S
C515 C514 1.386 . S
C515 C519 1.393 . S
C516 H505 0.950 . S
C516 C514 1.391 . S
C516 C517 1.400 . S
C517 C511 1.491 . S
C517 C516 1.400 . S
C517 C518 1.398 . S
C518 H506 0.950 . S
C518 C517 1.398 . S
C518 C519 1.391 . S
C519 H507 0.950 . S
C519 C515 1.393 . S
C519 C518 1.391 . S
H520 C528 0.950 . S
H521 C533 0.950 . S
H522 C530 0.950 . S
H523 C532 0.950 . S
H524 C534 0.950 . S
H525 C536 0.950 . S
H526 C538 0.950 . S
H527 C539 0.950 . S
C528 H520 0.950 . S
C528 C529 1.386 . S
C528 C530 1.391 . S
C529 C528 1.386 . S
C529 C533 1.393 . S
C530 H522 0.950 . S
C530 C528 1.391 . S
C530 C531 1.400 . S
C531 C530 1.400 . S
C531 C532 1.398 . S
C531 C537 1.491 . S
C532 H523 0.950 . S
C532 C531 1.398 . S
C532 C533 1.391 . S
C533 H521 0.950 . S
C533 C529 1.393 . S
C533 C532 1.391 . S
C534 H524 0.950 . S
C534 C535 1.386 . S
C534 C536 1.391 . S
C535 C534 1.386 . S
C535 C539 1.393 . S
C536 H525 0.950 . S
C536 C534 1.391 . S
C536 C537 1.400 . S
C537 C531 1.491 . S
C537 C536 1.400 . S
C537 C538 1.398 . S
C538 H526 0.950 . S
C538 C537 1.398 . S
C538 C539 1.391 . S
C539 H527 0.950 . S
C539 C535 1.393 . S
C539 C538 1.391 . S
H540 C548 0.950 . S
H541 C553 0.950 . S
H542 C550 0.950 . S
H543 C552 0.950 . S
H544 C554 0.950 . S
H545 C556 0.950 . S
H546 C558 0.950 . S
H547 C559 0.950 . S
C548 H540 0.950 . S
C548 C549 1.386 . S
C548 C550 1.391 . S
C549 C548 1.386 . S
C549 C553 1.393 . S
C550 H542 0.950 . S
C550 C548 1.391 . S
C550 C551 1.400 . S
C551 C550 1.400 . S
C551 C552 1.398 . S
C551 C557 1.491 . S
C552 H543 0.950 . S
C552 C551 1.398 . S
C552 C553 1.391 . S
C553 H541 0.950 . S
C553 C549 1.393 . S
C553 C552 1.391 . S
C554 H544 0.950 . S
C554 C555 1.386 . S
C554 C556 1.391 . S
C555 C554 1.386 . S
C555 C559 1.393 . S
C556 H545 0.950 . S
C556 C554 1.391 . S
C556 C557 1.400 . S
C557 C551 1.491 . S
C557 C556 1.400 . S
C557 C558 1.398 . S
C558 H546 0.950 . S
C558 C557 1.398 . S
C558 C559 1.391 . S
C559 H547 0.950 . S
C559 C555 1.393 . S
C559 C558 1.391 . S
H560 C568 0.950 . S
H561 C573 0.950 . S
H562 C570 0.950 . S
H563 C572 0.950 . S
H564 C574 0.950 . S
H565 C576 0.950 . S
H566 C578 0.950 . S
H567 C579 0.950 . S
C568 H560 0.950 . S
C568 C569 1.386 . S
C568 C570 1.391 . S
C569 C568 1.386 . S
C569 C573 1.393 . S
C570 H562 0.950 . S
C570 C568 1.391 . S
C570 C571 1.400 . S
C571 C570 1.400 . S
C571 C572 1.398 . S
C571 C577 1.491 . S
C572 H563 0.950 . S
C572 C571 1.398 . S
C572 C573 1.391 . S
C573 H561 0.950 . S
C573 C569 1.393 . S
C573 C572 1.391 . S
C574 H564 0.950 . S
C574 C575 1.386 . S
C574 C576 1.391 . S
C575 C574 1.386 . S
C575 C579 1.393 . S
C576 H565 0.950 . S
C576 C574 1.391 . S
C576 C577 1.400 . S
C577 C571 1.491 . S
C577 C576 1.400 . S
C577 C578 1.398 . S
C578 H566 0.950 . S
C578 C577 1.398 . S
C578 C579 1.391 . S
C579 H567 0.950 . S
C579 C575 1.393 . S
C579 C578 1.391 . S
H580 C588 0.950 . S
H581 C593 0.950 . S
H582 C590 0.950 . S
H583 C592 0.950 . S
H584 C594 0.950 . S
H585 C596 0.950 . S
H586 C598 0.950 . S
H587 C599 0.950 . S
C588 H580 0.950 . S
C588 C589 1.386 . S
C588 C590 1.391 . S
C589 C588 1.386 . S
C589 C593 1.393 . S
C590 H582 0.950 . S
C590 C588 1.391 . S
C590 C591 1.400 . S
C591 C590 1.400 . S
C591 C592 1.398 . S
C591 C597 1.491 . S
C592 H583 0.950 . S
C592 C591 1.398 . S
C592 C593 1.391 . S
C593 H581 0.950 . S
C593 C589 1.393 . S
C593 C592 1.391 . S
C594 H584 0.950 . S
C594 C595 1.386 . S
C594 C596 1.391 . S
C595 C594 1.386 . S
C595 C599 1.393 . S
C596 H585 0.950 . S
C596 C594 1.391 . S
C596 C597 1.400 . S
C597 C591 1.491 . S
C597 C596 1.400 . S
C597 C598 1.398 . S
C598 H586 0.950 . S
C598 C597 1.398 . S
C598 C599 1.391 . S
C599 H587 0.950 . S
C599 C595 1.393 . S
C599 C598 1.391 . S
H600 C608 0.950 . S
H601 C613 0.950 . S
H602 C610 0.950 . S
H603 C612 0.950 . S
H604 C614 0.950 . S
H605 C616 0.950 . S
H606 C618 0.950 . S
H607 C619 0.950 . S
C608 H600 0.950 . S
C608 C609 1.386 . S
C608 C610 1.391 . S
C609 C608 1.386 . S
C609 C613 1.393 . S
C610 H602 0.950 . S
C610 C608 1.391 . S
C610 C611 1.400 . S
C611 C610 1.400 . S
C611 C612 1.398 . S
C611 C617 1.491 . S
C612 H603 0.950 . S
C612 C611 1.398 . S
C612 C613 1.391 . S
C613 H601 0.950 . S
C613 C609 1.393 . S
C613 C612 1.391 . S
C614 H604 0.950 . S
C614 C615 1.386 . S
C614 C616 1.391 . S
C615 C614 1.386 . S
C615 C619 1.393 . S
C616 H605 0.950 . S
C616 C614 1.391 . S
C616 C617 1.400 . S
C617 C611 1.491 . S
C617 C616 1.400 . S
C617 C618 1.398 . S
C618 H606 0.950 . S
C618 C617 1.398 . S
C618 C619 1.391 . S
C619 H607 0.950 . S
C619 C615 1.393 . S
C619 C618 1.391 . S
H620 C628 0.950 . S
H621 C633 0.950 . S
H622 C630 0.950 . S
H623 C632 0.950 . S
H624 C634 0.950 . S
H625 C636 0.950 . S
H626 C638 0.950 . S
H627 C639 0.950 . S
C628 H620 0.950 . S
C628 C629 1.386 . S
C628 C630 1.391 . S
C629 C628 1.386 . S
C629 C633 1.393 . S
C630 H622 0.950 . S
C630 C628 1.391 . S
C630 C631 1.400 . S
C631 C630 1.400 . S
C631 C632 1.398 . S
C631 C637 1.491 . S
C632 H623 0.950 . S
C632 C631 1.398 . S
C632 C633 1.391 . S
C633 H621 0.950 . S
C633 C629 1.393 . S
C633 C632 1.391 . S
C634 H624 0.950 . S
C634 C635 1.386 . S
C634 C636 1.391 . S
C635 C634 1.386 . S
C635 C639 1.393 . S
C636 H625 0.950 . S
C636 C634 1.391 . S
C636 C637 1.400 . S
C637 C631 1.491 . S
C637 C636 1.400 . S
C637 C638 1.398 . S
C638 H626 0.950 . S
C638 C637 1.398 . S
C638 C639 1.391 . S
C639 H627 0.950 . S
C639 C635 1.393 . S
C639 C638 1.391 . S
H640 C648 0.950 . S
H641 C653 0.950 . S
H642 C650 0.950 . S
H643 C652 0.950 . S
H644 C654 0.950 . S
H645 C656 0.950 . S
H646 C658 0.950 . S
H647 C659 0.950 . S
C648 H640 0.950 . S
C648 C649 1.386 . S
C648 C650 1.391 . S
C649 C648 1.386 . S
C649 C653 1.393 . S
C650 H642 0.950 . S
C650 C648 1.391 . S
C650 C651 1.400 . S
C651 C650 1.400 . S
C651 C652 1.398 . S
C651 C657 1.491 . S
C652 H643 0.950 . S
C652 C651 1.398 . S
C652 C653 1.391 . S
C653 H641 0.950 . S
C653 C649 1.393 . S
C653 C652 1.391 . S
C654 H644 0.950 . S
C654 C655 1.386 . S
C654 C656 1.391 . S
C655 C654 1.386 . S
C655 C659 1.393 . S
C656 H645 0.950 . S
C656 C654 1.391 . S
C656 C657 1.400 . S
C657 C651 1.491 . S
C657 C656 1.400 . S
C657 C658 1.398 . S
C658 H646 0.950 . S
C658 C657 1.398 . S
C658 C659 1.391 . S
C659 H647 0.950 . S
C659 C655 1.393 . S
C659 C658 1.391 . S
H660 C668 0.950 . S
H661 C673 0.950 . S
H662 C670 0.950 . S
H663 C672 0.950 . S
H664 C674 0.950 . S
H665 C676 0.950 . S
H666 C678 0.950 . S
H667 C679 0.950 . S
C668 H660 0.950 . S
C668 C669 1.386 . S
C668 C670 1.391 . S
C669 C668 1.386 . S
C669 C673 1.393 . S
C670 H662 0.950 . S
C670 C668 1.391 . S
C670 C671 1.400 . S
C671 C670 1.400 . S
C671 C672 1.398 . S
C671 C677 1.491 . S
C672 H663 0.950 . S
C672 C671 1.398 . S
C672 C673 1.391 . S
C673 H661 0.950 . S
C673 C669 1.393 . S
C673 C672 1.391 . S
C674 H664 0.950 . S
C674 C675 1.386 . S
C674 C676 1.391 . S
C675 C674 1.386 . S
C675 C679 1.393 . S
C676 H665 0.950 . S
C676 C674 1.391 . S
C676 C677 1.400 . S
C677 C671 1.491 . S
C677 C676 1.400 . S
C677 C678 1.398 . S
C678 H666 0.950 . S
C678 C677 1.398 . S
C678 C679 1.391 . S
C679 H667 0.950 . S
C679 C675 1.393 . S
C679 C678 1.391 . S
H680 C688 0.950 . S
H681 C693 0.950 . S
H682 C690 0.950 . S
H683 C692 0.950 . S
H684 C694 0.950 . S
H685 C696 0.950 . S
H686 C698 0.950 . S
H687 C699 0.950 . S
C688 H680 0.950 . S
C688 C689 1.386 . S
C688 C690 1.391 . S
C689 C688 1.386 . S
C689 C693 1.393 . S
C690 H682 0.950 . S
C690 C688 1.391 . S
C690 C691 1.400 . S
C691 C690 1.400 . S
C691 C692 1.398 . S
C691 C697 1.491 . S
C692 H683 0.950 . S
C692 C691 1.398 . S
C692 C693 1.391 . S
C693 H681 0.950 . S
C693 C689 1.393 . S
C693 C692 1.391 . S
C694 H684 0.950 . S
C694 C695 1.386 . S
C694 C696 1.391 . S
C695 C694 1.386 . S
C695 C699 1.393 . S
C696 H685 0.950 . S
C696 C694 1.391 . S
C696 C697 1.400 . S
C697 C691 1.491 . S
C697 C696 1.400 . S
C697 C698 1.398 . S
C698 H686 0.950 . S
C698 C697 1.398 . S
C698 C699 1.391 . S
C699 H687 0.950 . S
C699 C695 1.393 . S
C699 C698 1.391 . S
H700 C708 0.950 . S
H701 C713 0.950 . S
H702 C710 0.950 . S
H703 C712 0.950 . S
H704 C714 0.950 . S
H705 C716 0.950 . S
H706 C718 0.950 . S
H707 C719 0.950 . S
C708 H700 0.950 . S
C708 C709 1.386 . S
C708 C710 1.391 . S
C709 C708 1.386 . S
C709 C713 1.393 . S
C710 H702 0.950 . S
C710 C708 1.391 . S
C710 C711 1.400 . S
C711 C710 1.400 . S
C711 C712 1.398 . S
C711 C717 1.491 . S
C712 H703 0.950 . S
C712 C711 1.398 . S
C712 C713 1.391 . S
C713 H701 0.950 . S
C713 C709 1.393 . S
C713 C712 1.391 . S
C714 H704 0.950 . S
C714 C715 1.386 . S
C714 C716 1.391 . S
C715 C714 1.386 . S
C715 C719 1.393 . S
C716 H705 0.950 . S
C716 C714 1.391 . S
C716 C717 1.400 . S
C717 C711 1.491 . S
C717 C716 1.400 . S
C717 C718 1.398 . S
C718 H706 0.950 . S
C718 C717 1.398 . S
C718 C719 1.391 . S
C719 H707 0.950 . S
C719 C715 1.393 . S
C719 C718 1.391 . S
H720 C728 0.950 . S
H721 C733 0.950 . S
H722 C730 0.950 . S
H723 C732 0.950 . S
H724 C734 0.950 . S
H725 C736 0.950 . S
H726 C738 0.950 . S
H727 C739 0.950 . S
C728 H720 0.950 . S
C728 C729 1.386 . S
C728 C730 1.391 . S
C729 C728 1.386 . S
C729 C733 1.393 . S
C730 H722 0.950 . S
C730 C728 1.391 . S
C730 C731 1.400 . S
C731 C730 1.400 . S
C731 C732 1.398 . S
C731 C737 1.491 . S
C732 H723 0.950 . S
C732 C731 1.398 . S
C732 C733 1.391 . S
C733 H721 0.950 . S
C733 C729 1.393 . S
C733 C732 1.391 . S
C734 H724 0.950 . S
C734 C735 1.386 . S
C734 C736 1.391 . S
C735 C734 1.386 . S
C735 C739 1.393 . S
C736 H725 0.950 . S
C736 C734 1.391 . S
C736 C737 1.400 . S
C737 C731 1.491 . S
C737 C736 1.400 . S
C737 C738 1.398 . S
C738 H726 0.950 . S
C738 C737 1.398 . S
C738 C739 1.391 . S
C739 H727 0.950 . S
C739 C735 1.393 . S
C739 C738 1.391 . S
H740 C748 0.950 . S
H741 C753 0.950 . S
H742 C750 0.950 . S
H743 C752 0.950 . S
H744 C754 0.950 . S
H745 C756 0.950 . S
H746 C758 0.950 . S
H747 C759 0.950 . S
C748 H740 0.950 . S
C748 C749 1.386 . S
C748 C750 1.391 . S
C749 C748 1.386 . S
C749 C753 1.393 . S
C750 H742 0.950 . S
C750 C748 1.391 . S
C750 C751 1.400 . S
C751 C750 1.400 . S
C751 C752 1.398 . S
C751 C757 1.491 . S
C752 H743 0.950 . S
C752 C751 1.398 . S
C752 C753 1.391 . S
C753 H741 0.950 . S
C753 C749 1.393 . S
C753 C752 1.391 . S
C754 H744 0.950 . S
C754 C755 1.386 . S
C754 C756 1.391 . S
C755 C754 1.386 . S
C755 C759 1.393 . S
C756 H745 0.950 . S
C756 C754 1.391 . S
C756 C757 1.400 . S
C757 C751 1.491 . S
C757 C756 1.400 . S
C757 C758 1.398 . S
C758 H746 0.950 . S
C758 C757 1.398 . S
C758 C759 1.391 . S
C759 H747 0.950 . S
C759 C755 1.393 . S
C759 C758 1.391 . S
H760 C768 0.950 . S
H761 C773 0.950 . S
H762 C770 0.950 . S
H763 C772 0.950 . S
H764 C774 0.950 . S
H765 C776 0.950 . S
H766 C778 0.950 . S
H767 C779 0.950 . S
C768 H760 0.950 . S
C768 C769 1.386 . S
C768 C770 1.391 . S
C769 C768 1.386 . S
C769 C773 1.393 . S
C770 H762 0.950 . S
C770 C768 1.391 . S
C770 C771 1.400 . S
C771 C770 1.400 . S
C771 C772 1.398 . S
C771 C777 1.491 . S
C772 H763 0.950 . S
C772 C771 1.398 . S
C772 C773 1.391 . S
C773 H761 0.950 . S
C773 C769 1.393 . S
C773 C772 1.391 . S
C774 H764 0.950 . S
C774 C775 1.386 . S
C774 C776 1.391 . S
C775 C774 1.386 . S
C775 C779 1.393 . S
C776 H765 0.950 . S
C776 C774 1.391 . S
C776 C777 1.400 . S
C777 C771 1.491 . S
C777 C776 1.400 . S
C777 C778 1.398 . S
C778 H766 0.950 . S
C778 C777 1.398 . S
C778 C779 1.391 . S
C779 H767 0.950 . S
C779 C775 1.393 . S
C779 C778 1.391 . S
H780 C788 0.950 . S
H781 C793 0.950 . S
H782 C790 0.950 . S
H783 C792 0.950 . S
H784 C794 0.950 . S
H785 C796 0.950 . S
H786 C798 0.950 . S
H787 C799 0.950 . S
C788 H780 0.950 . S
C788 C789 1.386 . S
C788 C790 1.391 . S
C789 C788 1.386 . S
C789 C793 1.393 . S
C790 H782 0.950 . S
C790 C788 1.391 . S
C790 C791 1.400 . S
C791 C790 1.400 . S
C791 C792 1.398 . S
C791 C797 1.491 . S
C792 H783 0.950 . S
C792 C791 1.398 . S
C792 C793 1.391 . S
C793 H781 0.950 . S
C793 C789 1.393 . S
C793 C792 1.391 . S
C794 H784 0.950 . S
C794 C795 1.386 . S
C794 C796 1.391 . S
C795 C794 1.386 . S
C795 C799 1.393 . S
C796 H785 0.950 . S
C796 C794 1.391 . S
C796 C797 1.400 . S
C797 C791 1.491 . S
C797 C796 1.400 . S
C797 C798 1.398 . S
C798 H786 0.950 . S
C798 C797 1.398 . S
C798 C799 1.391 . S
C799 H787 0.950 . S
C799 C795 1.393 . S
C799 C798 1.391 . S
H800 C808 0.950 . S
H801 C813 0.950 . S
H802 C810 0.950 . S
H803 C812 0.950 . S
H804 C814 0.950 . S
H805 C816 0.950 . S
H806 C818 0.950 . S
H807 C819 0.950 . S
C808 H800 0.950 . S
C808 C809 1.386 . S
C808 C810 1.391 . S
C809 C808 1.386 . S
C809 C813 1.393 . S
C810 H802 0.950 . S
C810 C808 1.391 . S
C810 C811 1.400 . S
C811 C810 1.400 . S
C811 C812 1.398 . S
C811 C817 1.491 . S
C812 H803 0.950 . S
C812 C811 1.398 . S
C812 C813 1.391 . S
C813 H801 0.950 . S
C813 C809 1.393 . S
C813 C812 1.391 . S
C814 H804 0.950 . S
C814 C815 1.386 . S
C814 C816 1.391 . S
C815 C814 1.386 . S
C815 C819 1.393 . S
C816 H805 0.950 . S
C816 C814 1.391 . S
C816 C817 1.400 . S
C817 C811 1.491 . S
C817 C816 1.400 . S
C817 C818 1.398 . S
C818 H806 0.950 . S
C818 C817 1.398 . S
C818 C819 1.391 . S
C819 H807 0.950 . S
C819 C815 1.393 . S
C819 C818 1.391 . S
H820 C828 0.950 . S
H821 C833 0.950 . S
H822 C830 0.950 . S
H823 C832 0.950 . S
H824 C834 0.950 . S
H825 C836 0.950 . S
H826 C838 0.950 . S
H827 C839 0.950 . S
C828 H820 0.950 . S
C828 C829 1.386 . S
C828 C830 1.391 . S
C829 C828 1.386 . S
C829 C833 1.393 . S
C830 H822 0.950 . S
C830 C828 1.391 . S
C830 C831 1.400 . S
C831 C830 1.400 . S
C831 C832 1.398 . S
C831 C837 1.491 . S
C832 H823 0.950 . S
C832 C831 1.398 . S
C832 C833 1.391 . S
C833 H821 0.950 . S
C833 C829 1.393 . S
C833 C832 1.391 . S
C834 H824 0.950 . S
C834 C835 1.386 . S
C834 C836 1.391 . S
C835 C834 1.386 . S
C835 C839 1.393 . S
C836 H825 0.950 . S
C836 C834 1.391 . S
C836 C837 1.400 . S
C837 C831 1.491 . S
C837 C836 1.400 . S
C837 C838 1.398 . S
C838 H826 0.950 . S
C838 C837 1.398 . S
C838 C839 1.391 . S
C839 H827 0.950 . S
C839 C835 1.393 . S
C839 C838 1.391 . S
H840 C848 0.950 . S
H841 C853 0.950 . S
H842 C850 0.950 . S
H843 C852 0.950 . S
H844 C854 0.950 . S
H845 C856 0.950 . S
H846 C858 0.950 . S
H847 C859 0.950 . S
C848 H840 0.950 . S
C848 C849 1.386 . S
C848 C850 1.391 . S
C849 C848 1.386 . S
C849 C853 1.393 . S
C850 H842 0.950 . S
C850 C848 1.391 . S
C850 C851 1.400 . S
C851 C850 1.400 . S
C851 C852 1.398 . S
C851 C857 1.491 . S
C852 H843 0.950 . S
C852 C851 1.398 . S
C852 C853 1.391 . S
C853 H841 0.950 . S
C853 C849 1.393 . S
C853 C852 1.391 . S
C854 H844 0.950 . S
C854 C855 1.386 . S
C854 C856 1.391 . S
C855 C854 1.386 . S
C855 C859 1.393 . S
C856 H845 0.950 . S
C856 C854 1.391 . S
C856 C857 1.400 . S
C857 C851 1.491 . S
C857 C856 1.400 . S
C857 C858 1.398 . S
C858 H846 0.950 . S
C858 C857 1.398 . S
C858 C859 1.391 . S
C859 H847 0.950 . S
C859 C855 1.393 . S
C859 C858 1.391 . S
H860 C868 0.950 . S
H861 C873 0.950 . S
H862 C870 0.950 . S
H863 C872 0.950 . S
H864 C874 0.950 . S
H865 C876 0.950 . S
H866 C878 0.950 . S
H867 C879 0.950 . S
C868 H860 0.950 . S
C868 C869 1.386 . S
C868 C870 1.391 . S
C869 C868 1.386 . S
C869 C873 1.393 . S
C870 H862 0.950 . S
C870 C868 1.391 . S
C870 C871 1.400 . S
C871 C870 1.400 . S
C871 C872 1.398 . S
C871 C877 1.491 . S
C872 H863 0.950 . S
C872 C871 1.398 . S
C872 C873 1.391 . S
C873 H861 0.950 . S
C873 C869 1.393 . S
C873 C872 1.391 . S
C874 H864 0.950 . S
C874 C875 1.386 . S
C874 C876 1.391 . S
C875 C874 1.386 . S
C875 C879 1.393 . S
C876 H865 0.950 . S
C876 C874 1.391 . S
C876 C877 1.400 . S
C877 C871 1.491 . S
C877 C876 1.400 . S
C877 C878 1.398 . S
C878 H866 0.950 . S
C878 C877 1.398 . S
C878 C879 1.391 . S
C879 H867 0.950 . S
C879 C875 1.393 . S
C879 C878 1.391 . S
H880 C888 0.950 . S
H881 C893 0.950 . S
H882 C890 0.950 . S
H883 C892 0.950 . S
H884 C894 0.950 . S
H885 C896 0.950 . S
H886 C898 0.950 . S
H887 C899 0.950 . S
C888 H880 0.950 . S
C888 C889 1.386 . S
C888 C890 1.391 . S
C889 C888 1.386 . S
C889 C893 1.393 . S
C890 H882 0.950 . S
C890 C888 1.391 . S
C890 C891 1.400 . S
C891 C890 1.400 . S
C891 C892 1.398 . S
C891 C897 1.491 . S
C892 H883 0.950 . S
C892 C891 1.398 . S
C892 C893 1.391 . S
C893 H881 0.950 . S
C893 C889 1.393 . S
C893 C892 1.391 . S
C894 H884 0.950 . S
C894 C895 1.386 . S
C894 C896 1.391 . S
C895 C894 1.386 . S
C895 C899 1.393 . S
C896 H885 0.950 . S
C896 C894 1.391 . S
C896 C897 1.400 . S
C897 C891 1.491 . S
C897 C896 1.400 . S
C897 C898 1.398 . S
C898 H886 0.950 . S
C898 C897 1.398 . S
C898 C899 1.391 . S
C899 H887 0.950 . S
C899 C895 1.393 . S
C899 C898 1.391 . S
H900 C908 0.950 . S
H901 C913 0.950 . S
H902 C910 0.950 . S
H903 C912 0.950 . S
H904 C914 0.950 . S
H905 C916 0.950 . S
H906 C918 0.950 . S
H907 C919 0.950 . S
C908 H900 0.950 . S
C908 C909 1.386 . S
C908 C910 1.391 . S
C909 C908 1.386 . S
C909 C913 1.393 . S
C910 H902 0.950 . S
C910 C908 1.391 . S
C910 C911 1.400 . S
C911 C910 1.400 . S
C911 C912 1.398 . S
C911 C917 1.491 . S
C912 H903 0.950 . S
C912 C911 1.398 . S
C912 C913 1.391 . S
C913 H901 0.950 . S
C913 C909 1.393 . S
C913 C912 1.391 . S
C914 H904 0.950 . S
C914 C915 1.386 . S
C914 C916 1.391 . S
C915 C914 1.386 . S
C915 C919 1.393 . S
C916 H905 0.950 . S
C916 C914 1.391 . S
C916 C917 1.400 . S
C917 C911 1.491 . S
C917 C916 1.400 . S
C917 C918 1.398 . S
C918 H906 0.950 . S
C918 C917 1.398 . S
C918 C919 1.391 . S
C919 H907 0.950 . S
C919 C915 1.393 . S
C919 C918 1.391 . S
H920 C928 0.950 . S
H921 C933 0.950 . S
H922 C930 0.950 . S
H923 C932 0.950 . S
H924 C934 0.950 . S
H925 C936 0.950 . S
H926 C938 0.950 . S
H927 C939 0.950 . S
C928 H920 0.950 . S
C928 C929 1.386 . S
C928 C930 1.391 . S
C929 C928 1.386 . S
C929 C933 1.393 . S
C930 H922 0.950 . S
C930 C928 1.391 . S
C930 C931 1.400 . S
C931 C930 1.400 . S
C931 C932 1.398 . S
C931 C937 1.491 . S
C932 H923 0.950 . S
C932 C931 1.398 . S
C932 C933 1.391 . S
C933 H921 0.950 . S
C933 C929 1.393 . S
C933 C932 1.391 . S
C934 H924 0.950 . S
C934 C935 1.386 . S
C934 C936 1.391 . S
C935 C934 1.386 . S
C935 C939 1.393 . S
C936 H925 0.950 . S
C936 C934 1.391 . S
C936 C937 1.400 . S
C937 C931 1.491 . S
C937 C936 1.400 . S
C937 C938 1.398 . S
C938 H926 0.950 . S
C938 C937 1.398 . S
C938 C939 1.391 . S
C939 H927 0.950 . S
C939 C935 1.393 . S
C939 C938 1.391 . S
H940 C948 0.950 . S
H941 C953 0.950 . S
H942 C950 0.950 . S
H943 C952 0.950 . S
H944 C954 0.950 . S
H945 C956 0.950 . S
H946 C958 0.950 . S
H947 C959 0.950 . S
C948 H940 0.950 . S
C948 C949 1.386 . S
C948 C950 1.391 . S
C949 C948 1.386 . S
C949 C953 1.393 . S
C950 H942 0.950 . S
C950 C948 1.391 . S
C950 C951 1.400 . S
C951 C950 1.400 . S
C951 C952 1.398 . S
C951 C957 1.491 . S
C952 H943 0.950 . S
C952 C951 1.398 . S
C952 C953 1.391 . S
C953 H941 0.950 . S
C953 C949 1.393 . S
C953 C952 1.391 . S
C954 H944 0.950 . S
C954 C955 1.386 . S
C954 C956 1.391 . S
C955 C954 1.386 . S
C955 C959 1.393 . S
C956 H945 0.950 . S
C956 C954 1.391 . S
C956 C957 1.400 . S
C957 C951 1.491 . S
C957 C956 1.400 . S
C957 C958 1.398 . S
C958 H946 0.950 . S
C958 C957 1.398 . S
C958 C959 1.391 . S
C959 H947 0.950 . S
C959 C955 1.393 . S
C959 C958 1.391 . S
H960 C968 0.950 . S
H961 C973 0.950 . S
H962 C970 0.950 . S
H963 C972 0.950 . S
H964 C974 0.950 . S
H965 C976 0.950 . S
H966 C978 0.950 . S
H967 C979 0.950 . S
C968 H960 0.950 . S
C968 C969 1.386 . S
C968 C970 1.391 . S
C969 C968 1.386 . S
C969 C973 1.393 . S
C970 H962 0.950 . S
C970 C968 1.391 . S
C970 C971 1.400 . S
C971 C970 1.400 . S
C971 C972 1.398 . S
C971 C977 1.491 . S
C972 H963 0.950 . S
C972 C971 1.398 . S
C972 C973 1.391 . S
C973 H961 0.950 . S
C973 C969 1.393 . S
C973 C972 1.391 . S
C974 H964 0.950 . S
C974 C975 1.386 . S
C974 C976 1.391 . S
C975 C974 1.386 . S
C975 C979 1.393 . S
C976 H965 0.950 . S
C976 C974 1.391 . S
C976 C977 1.400 . S
C977 C971 1.491 . S
C977 C976 1.400 . S
C977 C978 1.398 . S
C978 H966 0.950 . S
C978 C977 1.398 . S
C978 C979 1.391 . S
C979 H967 0.950 . S
C979 C975 1.393 . S
C979 C978 1.391 . S
H980 C988 0.950 . S
H981 C993 0.950 . S
H982 C990 0.950 . S
H983 C992 0.950 . S
H984 C994 0.950 . S
H985 C996 0.950 . S
H986 C998 0.950 . S
H987 C999 0.950 . S
C988 H980 0.950 . S
C988 C989 1.386 . S
C988 C990 1.391 . S
C989 C988 1.386 . S
C989 C993 1.393 . S
C990 H982 0.950 . S
C990 C988 1.391 . S
C990 C991 1.400 . S
C991 C990 1.400 . S
C991 C992 1.398 . S
C991 C997 1.491 . S
C992 H983 0.950 . S
C992 C991 1.398 . S
C992 C993 1.391 . S
C993 H981 0.950 . S
C993 C989 1.393 . S
C993 C992 1.391 . S
C994 H984 0.950 . S
C994 C995 1.386 . S
C994 C996 1.391 . S
C995 C994 1.386 . S
C995 C999 1.393 . S
C996 H985 0.950 . S
C996 C994 1.391 . S
C996 C997 1.400 . S
C997 C991 1.491 . S
C997 C996 1.400 . S
C997 C998 1.398 . S
C998 H986 0.950 . S
C998 C997 1.398 . S
C998 C999 1.391 . S
C999 H987 0.950 . S
C999 C995 1.393 . S
C999 C998 1.391 . S
H1000 C1008 0.950 . S
H1001 C1013 0.950 . S
H1002 C1010 0.950 . S
H1003 C1012 0.950 . S
H1004 C1014 0.950 . S
H1005 C1016 0.950 . S
H1006 C1018 0.950 . S
H1007 C1019 0.950 . S
C1008 H1000 0.950 . S
C1008 C1009 1.386 . S
C1008 C1010 1.391 . S
C1009 C1008 1.386 . S
C1009 C1013 1.393 . S
C1010 H1002 0.950 . S
C1010 C1008 1.391 . S
C1010 C1011 1.400 . S
C1011 C1010 1.400 . S
C1011 C1012 1.398 . S
C1011 C1017 1.491 . S
C1012 H1003 0.950 . S
C1012 C1011 1.398 . S
C1012 C1013 1.391 . S
C1013 H1001 0.950 . S
C1013 C1009 1.393 . S
C1013 C1012 1.391 . S
C1014 H1004 0.950 . S
C1014 C1015 1.386 . S
C1014 C1016 1.391 . S
C1015 C1014 1.386 . S
C1015 C1019 1.393 . S
C1016 H1005 0.950 . S
C1016 C1014 1.391 . S
C1016 C1017 1.400 . S
C1017 C1011 1.491 . S
C1017 C1016 1.400 . S
C1017 C1018 1.398 . S
C1018 H1006 0.950 . S
C1018 C1017 1.398 . S
C1018 C1019 1.391 . S
C1019 H1007 0.950 . S
C1019 C1015 1.393 . S
C1019 C1018 1.391 . S
H1020 C1028 0.950 . S
H1021 C1033 0.950 . S
H1022 C1030 0.950 . S
H1023 C1032 0.950 . S
H1024 C1034 0.950 . S
H1025 C1036 0.950 . S
H1026 C1038 0.950 . S
H1027 C1039 0.950 . S
C1028 H1020 0.950 . S
C1028 C1029 1.386 . S
C1028 C1030 1.391 . S
C1029 C1028 1.386 . S
C1029 C1033 1.393 . S
C1030 H1022 0.950 . S
C1030 C1028 1.391 . S
C1030 C1031 1.400 . S
C1031 C1030 1.400 . S
C1031 C1032 1.398 . S
C1031 C1037 1.491 . S
C1032 H1023 0.950 . S
C1032 C1031 1.398 . S
C1032 C1033 1.391 . S
C1033 H1021 0.950 . S
C1033 C1029 1.393 . S
C1033 C1032 1.391 . S
C1034 H1024 0.950 . S
C1034 C1035 1.386 . S
C1034 C1036 1.391 . S
C1035 C1034 1.386 . S
C1035 C1039 1.393 . S
C1036 H1025 0.950 . S
C1036 C1034 1.391 . S
C1036 C1037 1.400 . S
C1037 C1031 1.491 . S
C1037 C1036 1.400 . S
C1037 C1038 1.398 . S
C1038 H1026 0.950 . S
C1038 C1037 1.398 . S
C1038 C1039 1.391 . S
C1039 H1027 0.950 . S
C1039 C1035 1.393 . S
C1039 C1038 1.391 . S
H1040 C1048 0.950 . S
H1041 C1053 0.950 . S
H1042 C1050 0.950 . S
H1043 C1052 0.950 . S
H1044 C1054 0.950 . S
H1045 C1056 0.950 . S
H1046 C1058 0.950 . S
H1047 C1059 0.950 . S
C1048 H1040 0.950 . S
C1048 C1049 1.386 . S
C1048 C1050 1.391 . S
C1049 C1048 1.386 . S
C1049 C1053 1.393 . S
C1050 H1042 0.950 . S
C1050 C1048 1.391 . S
C1050 C1051 1.400 . S
C1051 C1050 1.400 . S
C1051 C1052 1.398 . S
C1051 C1057 1.491 . S
C1052 H1043 0.950 . S
C1052 C1051 1.398 . S
C1052 C1053 1.391 . S
C1053 H1041 0.950 . S
C1053 C1049 1.393 . S
C1053 C1052 1.391 . S
C1054 H1044 0.950 . S
C1054 C1055 1.386 . S
C1054 C1056 1.391 . S
C1055 C1054 1.386 . S
C1055 C1059 1.393 . S
C1056 H1045 0.950 . S
C1056 C1054 1.391 . S
C1056 C1057 1.400 . S
C1057 C1051 1.491 . S
C1057 C1056 1.400 . S
C1057 C1058 1.398 . S
C1058 H1046 0.950 . S
C1058 C1057 1.398 . S
C1058 C1059 1.391 . S
C1059 H1047 0.950 . S
C1059 C1055 1.393 . S
C1059 C1058 1.391 . S
H1060 C1068 0.950 . S
H1061 C1073 0.950 . S
H1062 C1070 0.950 . S
H1063 C1072 0.950 . S
H1064 C1074 0.950 . S
H1065 C1076 0.950 . S
H1066 C1078 0.950 . S
H1067 C1079 0.950 . S
C1068 H1060 0.950 . S
C1068 C1069 1.386 . S
C1068 C1070 1.391 . S
C1069 C1068 1.386 . S
C1069 C1073 1.393 . S
C1070 H1062 0.950 . S
C1070 C1068 1.391 . S
C1070 C1071 1.400 . S
C1071 C1070 1.400 . S
C1071 C1072 1.398 . S
C1071 C1077 1.491 . S
C1072 H1063 0.950 . S
C1072 C1071 1.398 . S
C1072 C1073 1.391 . S
C1073 H1061 0.950 . S
C1073 C1069 1.393 . S
C1073 C1072 1.391 . S
C1074 H1064 0.950 . S
C1074 C1075 1.386 . S
C1074 C1076 1.391 . S
C1075 C1074 1.386 . S
C1075 C1079 1.393 . S
C1076 H1065 0.950 . S
C1076 C1074 1.391 . S
C1076 C1077 1.400 . S
C1077 C1071 1.491 . S
C1077 C1076 1.400 . S
C1077 C1078 1.398 . S
C1078 H1066 0.950 . S
C1078 C1077 1.398 . S
C1078 C1079 1.391 . S
C1079 H1067 0.950 . S
C1079 C1075 1.393 . S
C1079 C1078 1.391 . S
H1080 C1088 0.950 . S
H1081 C1093 0.950 . S
H1082 C1090 0.950 . S
H1083 C1092 0.950 . S
H1084 C1094 0.950 . S
H1085 C1096 0.950 . S
H1086 C1098 0.950 . S
H1087 C1099 0.950 . S
C1088 H1080 0.950 . S
C1088 C1089 1.386 . S
C1088 C1090 1.391 . S
C1089 C1088 1.386 . S
C1089 C1093 1.393 . S
C1090 H1082 0.950 . S
C1090 C1088 1.391 . S
C1090 C1091 1.400 . S
C1091 C1090 1.400 . S
C1091 C1092 1.398 . S
C1091 C1097 1.491 . S
C1092 H1083 0.950 . S
C1092 C1091 1.398 . S
C1092 C1093 1.391 . S
C1093 H1081 0.950 . S
C1093 C1089 1.393 . S
C1093 C1092 1.391 . S
C1094 H1084 0.950 . S
C1094 C1095 1.386 . S
C1094 C1096 1.391 . S
C1095 C1094 1.386 . S
C1095 C1099 1.393 . S
C1096 H1085 0.950 . S
C1096 C1094 1.391 . S
C1096 C1097 1.400 . S
C1097 C1091 1.491 . S
C1097 C1096 1.400 . S
C1097 C1098 1.398 . S
C1098 H1086 0.950 . S
C1098 C1097 1.398 . S
C1098 C1099 1.391 . S
C1099 H1087 0.950 . S
C1099 C1095 1.393 . S
C1099 C1098 1.391 . S
H1100 C1108 0.950 . S
H1101 C1113 0.950 . S
H1102 C1110 0.950 . S
H1103 C1112 0.950 . S
H1104 C1114 0.950 . S
H1105 C1116 0.950 . S
H1106 C1118 0.950 . S
H1107 C1119 0.950 . S
C1108 H1100 0.950 . S
C1108 C1109 1.386 . S
C1108 C1110 1.391 . S
C1109 C1108 1.386 . S
C1109 C1113 1.393 . S
C1110 H1102 0.950 . S
C1110 C1108 1.391 . S
C1110 C1111 1.400 . S
C1111 C1110 1.400 . S
C1111 C1112 1.398 . S
C1111 C1117 1.491 . S
C1112 H1103 0.950 . S
C1112 C1111 1.398 . S
C1112 C1113 1.391 . S
C1113 H1101 0.950 . S
C1113 C1109 1.393 . S
C1113 C1112 1.391 . S
C1114 H1104 0.950 . S
C1114 C1115 1.386 . S
C1114 C1116 1.391 . S
C1115 C1114 1.386 . S
C1115 C1119 1.393 . S
C1116 H1105 0.950 . S
C1116 C1114 1.391 . S
C1116 C1117 1.400 . S
C1117 C1111 1.491 . S
C1117 C1116 1.400 . S
C1117 C1118 1.398 . S
C1118 H1106 0.950 . S
C1118 C1117 1.398 . S
C1118 C1119 1.391 . S
C1119 H1107 0.950 . S
C1119 C1115 1.393 . S
C1119 C1118 1.391 . S
H1120 C1128 0.950 . S
H1121 C1133 0.950 . S
H1122 C1130 0.950 . S
H1123 C1132 0.950 . S
H1124 C1134 0.950 . S
H1125 C1136 0.950 . S
H1126 C1138 0.950 . S
H1127 C1139 0.950 . S
C1128 H1120 0.950 . S
C1128 C1129 1.386 . S
C1128 C1130 1.391 . S
C1129 C1128 1.386 . S
C1129 C1133 1.393 . S
C1130 H1122 0.950 . S
C1130 C1128 1.391 . S
C1130 C1131 1.400 . S
C1131 C1130 1.400 . S
C1131 C1132 1.398 . S
C1131 C1137 1.491 . S
C1132 H1123 0.950 . S
C1132 C1131 1.398 . S
C1132 C1133 1.391 . S
C1133 H1121 0.950 . S
C1133 C1129 1.393 . S
C1133 C1132 1.391 . S
C1134 H1124 0.950 . S
C1134 C1135 1.386 . S
C1134 C1136 1.391 . S
C1135 C1134 1.386 . S
C1135 C1139 1.393 . S
C1136 H1125 0.950 . S
C1136 C1134 1.391 . S
C1136 C1137 1.400 . S
C1137 C1131 1.491 . S
C1137 C1136 1.400 . S
C1137 C1138 1.398 . S
C1138 H1126 0.950 . S
C1138 C1137 1.398 . S
C1138 C1139 1.391 . S
C1139 H1127 0.950 . S
C1139 C1135 1.393 . S
C1139 C1138 1.391 . S
H1140 C1148 0.950 . S
H1141 C1153 0.950 . S
H1142 C1150 0.950 . S
H1143 C1152 0.950 . S
H1144 C1154 0.950 . S
H1145 C1156 0.950 . S
H1146 C1158 0.950 . S
H1147 C1159 0.950 . S
C1148 H1140 0.950 . S
C1148 C1149 1.386 . S
C1148 C1150 1.391 . S
C1149 C1148 1.386 . S
C1149 C1153 1.393 . S
C1150 H1142 0.950 . S
C1150 C1148 1.391 . S
C1150 C1151 1.400 . S
C1151 C1150 1.400 . S
C1151 C1152 1.398 . S
C1151 C1157 1.491 . S
C1152 H1143 0.950 . S
C1152 C1151 1.398 . S
C1152 C1153 1.391 . S
C1153 H1141 0.950 . S
C1153 C1149 1.393 . S
C1153 C1152 1.391 . S
C1154 H1144 0.950 . S
C1154 C1155 1.386 . S
C1154 C1156 1.391 . S
C1155 C1154 1.386 . S
C1155 C1159 1.393 . S
C1156 H1145 0.950 . S
C1156 C1154 1.391 . S
C1156 C1157 1.400 . S
C1157 C1151 1.491 . S
C1157 C1156 1.400 . S
C1157 C1158 1.398 . S
C1158 H1146 0.950 . S
C1158 C1157 1.398 . S
C1158 C1159 1.391 . S
C1159 H1147 0.950 . S
C1159 C1155 1.393 . S
C1159 C1158 1.391 . S
H1160 C1168 0.950 . S
H1161 C1173 0.950 . S
H1162 C1170 0.950 . S
H1163 C1172 0.950 . S
H1164 C1174 0.950 . S
H1165 C1176 0.950 . S
H1166 C1178 0.950 . S
H1167 C1179 0.950 . S
C1168 H1160 0.950 . S
C1168 C1169 1.386 . S
C1168 C1170 1.391 . S
C1169 C1168 1.386 . S
C1169 C1173 1.393 . S
C1170 H1162 0.950 . S
C1170 C1168 1.391 . S
C1170 C1171 1.400 . S
C1171 C1170 1.400 . S
C1171 C1172 1.398 . S
C1171 C1177 1.491 . S
C1172 H1163 0.950 . S
C1172 C1171 1.398 . S
C1172 C1173 1.391 . S
C1173 H1161 0.950 . S
C1173 C1169 1.393 . S
C1173 C1172 1.391 . S
C1174 H1164 0.950 . S
C1174 C1175 1.386 . S
C1174 C1176 1.391 . S
C1175 C1174 1.386 . S
C1175 C1179 1.393 . S
C1176 H1165 0.950 . S
C1176 C1174 1.391 . S
C1176 C1177 1.400 . S
C1177 C1171 1.491 . S
C1177 C1176 1.400 . S
C1177 C1178 1.398 . S
C1178 H1166 0.950 . S
C1178 C1177 1.398 . S
C1178 C1179 1.391 . S
C1179 H1167 0.950 . S
C1179 C1175 1.393 . S
C1179 C1178 1.391 . S
H1180 C1188 0.950 . S
H1181 C1193 0.950 . S
H1182 C1190 0.950 . S
H1183 C1192 0.950 . S
H1184 C1194 0.950 . S
H1185 C1196 0.950 . S
H1186 C1198 0.950 . S
H1187 C1199 0.950 . S
C1188 H1180 0.950 . S
C1188 C1189 1.386 . S
C1188 C1190 1.391 . S
C1189 C1188 1.386 . S
C1189 C1193 1.393 . S
C1190 H1182 0.950 . S
C1190 C1188 1.391 . S
C1190 C1191 1.400 . S
C1191 C1190 1.400 . S
C1191 C1192 1.398 . S
C1191 C1197 1.491 . S
C1192 H1183 0.950 . S
C1192 C1191 1.398 . S
C1192 C1193 1.391 . S
C1193 H1181 0.950 . S
C1193 C1189 1.393 . S
C1193 C1192 1.391 . S
C1194 H1184 0.950 . S
C1194 C1195 1.386 . S
C1194 C1196 1.391 . S
C1195 C1194 1.386 . S
C1195 C1199 1.393 . S
C1196 H1185 0.950 . S
C1196 C1194 1.391 . S
C1196 C1197 1.400 . S
C1197 C1191 1.491 . S
C1197 C1196 1.400 . S
C1197 C1198 1.398 . S
C1198 H1186 0.950 . S
C1198 C1197 1.398 . S
C1198 C1199 1.391 . S
C1199 H1187 0.950 . S
C1199 C1195 1.393 . S
C1199 C1198 1.391 . S
H1200 C1208 0.950 . S
H1201 C1213 0.950 . S
H1202 C1210 0.950 . S
H1203 C1212 0.950 . S
H1204 C1214 0.950 . S
H1205 C1216 0.950 . S
H1206 C1218 0.950 . S
H1207 C1219 0.950 . S
C1208 H1200 0.950 . S
C1208 C1209 1.386 . S
C1208 C1210 1.391 . S
C1209 C1208 1.386 . S
C1209 C1213 1.393 . S
C1210 H1202 0.950 . S
C1210 C1208 1.391 . S
C1210 C1211 1.400 . S
C1211 C1210 1.400 . S
C1211 C1212 1.398 . S
C1211 C1217 1.491 . S
C1212 H1203 0.950 . S
C1212 C1211 1.398 . S
C1212 C1213 1.391 . S
C1213 H1201 0.950 . S
C1213 C1209 1.393 . S
C1213 C1212 1.391 . S
C1214 H1204 0.950 . S
C1214 C1215 1.386 . S
C1214 C1216 1.391 . S
C1215 C1214 1.386 . S
C1215 C1219 1.393 . S
C1216 H1205 0.950 . S
C1216 C1214 1.391 . S
C1216 C1217 1.400 . S
C1217 C1211 1.491 . S
C1217 C1216 1.400 . S
C1217 C1218 1.398 . S
C1218 H1206 0.950 . S
C1218 C1217 1.398 . S
C1218 C1219 1.391 . S
C1219 H1207 0.950 . S
C1219 C1215 1.393 . S
C1219 C1218 1.391 . S
H1220 C1228 0.950 . S
H1221 C1233 0.950 . S
H1222 C1230 0.950 . S
H1223 C1232 0.950 . S
H1224 C1234 0.950 . S
H1225 C1236 0.950 . S
H1226 C1238 0.950 . S
H1227 C1239 0.950 . S
C1228 H1220 0.950 . S
C1228 C1229 1.386 . S
C1228 C1230 1.391 . S
C1229 C1228 1.386 . S
C1229 C1233 1.393 . S
C1230 H1222 0.950 . S
C1230 C1228 1.391 . S
C1230 C1231 1.400 . S
C1231 C1230 1.400 . S
C1231 C1232 1.398 . S
C1231 C1237 1.491 . S
C1232 H1223 0.950 . S
C1232 C1231 1.398 . S
C1232 C1233 1.391 . S
C1233 H1221 0.950 . S
C1233 C1229 1.393 . S
C1233 C1232 1.391 . S
C1234 H1224 0.950 . S
C1234 C1235 1.386 . S
C1234 C1236 1.391 . S
C1235 C1234 1.386 . S
C1235 C1239 1.393 . S
C1236 H1225 0.950 . S
C1236 C1234 1.391 . S
C1236 C1237 1.400 . S
C1237 C1231 1.491 . S
C1237 C1236 1.400 . S
C1237 C1238 1.398 . S
C1238 H1226 0.950 . S
C1238 C1237 1.398 . S
C1238 C1239 1.391 . S
C1239 H1227 0.950 . S
C1239 C1235 1.393 . S
C1239 C1238 1.391 . S
H1240 C1248 0.950 . S
H1241 C1253 0.950 . S
H1242 C1250 0.950 . S
H1243 C1252 0.950 . S
H1244 C1254 0.950 . S
H1245 C1256 0.950 . S
H1246 C1258 0.950 . S
H1247 C1259 0.950 . S
C1248 H1240 0.950 . S
C1248 C1249 1.386 . S
C1248 C1250 1.391 . S
C1249 C1248 1.386 . S
C1249 C1253 1.393 . S
C1250 H1242 0.950 . S
C1250 C1248 1.391 . S
C1250 C1251 1.400 . S
C1251 C1250 1.400 . S
C1251 C1252 1.398 . S
C1251 C1257 1.491 . S
C1252 H1243 0.950 . S
C1252 C1251 1.398 . S
C1252 C1253 1.391 . S
C1253 H1241 0.950 . S
C1253 C1249 1.393 . S
C1253 C1252 1.391 . S
C1254 H1244 0.950 . S
C1254 C1255 1.386 . S
C1254 C1256 1.391 . S
C1255 C1254 1.386 . S
C1255 C1259 1.393 . S
C1256 H1245 0.950 . S
C1256 C1254 1.391 . S
C1256 C1257 1.400 . S
C1257 C1251 1.491 . S
C1257 C1256 1.400 . S
C1257 C1258 1.398 . S
C1258 H1246 0.950 . S
C1258 C1257 1.398 . S
C1258 C1259 1.391 . S
C1259 H1247 0.950 . S
C1259 C1255 1.393 . S
C1259 C1258 1.391 . S
H1260 C1268 0.950 . S
H1261 C1273 0.950 . S
H1262 C1270 0.950 . S
H1263 C1272 0.950 . S
H1264 C1274 0.950 . S
H1265 C1276 0.950 . S
H1266 C1278 0.950 . S
H1267 C1279 0.950 . S
C1268 H1260 0.950 . S
C1268 C1269 1.386 . S
C1268 C1270 1.391 . S
C1269 C1268 1.386 . S
C1269 C1273 1.393 . S
C1270 H1262 0.950 . S
C1270 C1268 1.391 . S
C1270 C1271 1.400 . S
C1271 C1270 1.400 . S
C1271 C1272 1.398 . S
C1271 C1277 1.491 . S
C1272 H1263 0.950 . S
C1272 C1271 1.398 . S
C1272 C1273 1.391 . S
C1273 H1261 0.950 . S
C1273 C1269 1.393 . S
C1273 C1272 1.391 . S
C1274 H1264 0.950 . S
C1274 C1275 1.386 . S
C1274 C1276 1.391 . S
C1275 C1274 1.386 . S
C1275 C1279 1.393 . S
C1276 H1265 0.950 . S
C1276 C1274 1.391 . S
C1276 C1277 1.400 . S
C1277 C1271 1.491 . S
C1277 C1276 1.400 . S
C1277 C1278 1.398 . S
C1278 H1266 0.950 . S
C1278 C1277 1.398 . S
C1278 C1279 1.391 . S
C1279 H1267 0.950 . S
C1279 C1275 1.393 . S
C1279 C1278 1.391 . S
H1280 C1288 0.950 . S
H1281 C1293 0.950 . S
H1282 C1290 0.950 . S
H1283 C1292 0.950 . S
H1284 C1294 0.950 . S
H1285 C1296 0.950 . S
H1286 C1298 0.950 . S
H1287 C1299 0.950 . S
C1288 H1280 0.950 . S
C1288 C1289 1.386 . S
C1288 C1290 1.391 . S
C1289 C1288 1.386 . S
C1289 C1293 1.393 . S
C1290 H1282 0.950 . S
C1290 C1288 1.391 . S
C1290 C1291 1.400 . S
C1291 C1290 1.400 . S
C1291 C1292 1.398 . S
C1291 C1297 1.491 . S
C1292 H1283 0.950 . S
C1292 C1291 1.398 . S
C1292 C1293 1.391 . S
C1293 H1281 0.950 . S
C1293 C1289 1.393 . S
C1293 C1292 1.391 . S
C1294 H1284 0.950 . S
C1294 C1295 1.386 . S
C1294 C1296 1.391 . S
C1295 C1294 1.386 . S
C1295 C1299 1.393 . S
C1296 H1285 0.950 . S
C1296 C1294 1.391 . S
C1296 C1297 1.400 . S
C1297 C1291 1.491 . S
C1297 C1296 1.400 . S
C1297 C1298 1.398 . S
C1298 H1286 0.950 . S
C1298 C1297 1.398 . S
C1298 C1299 1.391 . S
C1299 H1287 0.950 . S
C1299 C1295 1.393 . S
C1299 C1298 1.391 . S
H1300 C1308 0.950 . S
H1301 C1313 0.950 . S
H1302 C1310 0.950 . S
H1303 C1312 0.950 . S
H1304 C1314 0.950 . S
H1305 C1316 0.950 . S
H1306 C1318 0.950 . S
H1307 C1319 0.950 . S
C1308 H1300 0.950 . S
C1308 C1309 1.386 . S
C1308 C1310 1.391 . S
C1309 C1308 1.386 . S
C1309 C1313 1.393 . S
C1310 H1302 0.950 . S
C1310 C1308 1.391 . S
C1310 C1311 1.400 . S
C1311 C1310 1.400 . S
C1311 C1312 1.398 . S
C1311 C1317 1.491 . S
C1312 H1303 0.950 . S
C1312 C1311 1.398 . S
C1312 C1313 1.391 . S
C1313 H1301 0.950 . S
C1313 C1309 1.393 . S
C1313 C1312 1.391 . S
C1314 H1304 0.950 . S
C1314 C1315 1.386 . S
C1314 C1316 1.391 . S
C1315 C1314 1.386 . S
C1315 C1319 1.393 . S
C1316 H1305 0.950 . S
C1316 C1314 1.391 . S
C1316 C1317 1.400 . S
C1317 C1311 1.491 . S
C1317 C1316 1.400 . S
C1317 C1318 1.398 . S
C1318 H1306 0.950 . S
C1318 C1317 1.398 . S
C1318 C1319 1.391 . S
C1319 H1307 0.950 . S
C1319 C1315 1.393 . S
C1319 C1318 1.391 . S
H1320 C1328 0.950 . S
H1321 C1333 0.950 . S
H1322 C1330 0.950 . S
H1323 C1332 0.950 . S
H1324 C1334 0.950 . S
H1325 C1336 0.950 . S
H1326 C1338 0.950 . S
H1327 C1339 0.950 . S
C1328 H1320 0.950 . S
C1328 C1329 1.386 . S
C1328 C1330 1.391 . S
C1329 C1328 1.386 . S
C1329 C1333 1.393 . S
C1330 H1322 0.950 . S
C1330 C1328 1.391 . S
C1330 C1331 1.400 . S
C1331 C1330 1.400 . S
C1331 C1332 1.398 . S
C1331 C1337 1.491 . S
C1332 H1323 0.950 . S
C1332 C1331 1.398 . S
C1332 C1333 1.391 . S
C1333 H1321 0.950 . S
C1333 C1329 1.393 . S
C1333 C1332 1.391 . S
C1334 H1324 0.950 . S
C1334 C1335 1.386 . S
C1334 C1336 1.391 . S
C1335 C1334 1.386 . S
C1335 C1339 1.393 . S
C1336 H1325 0.950 . S
C1336 C1334 1.391 . S
C1336 C1337 1.400 . S
C1337 C1331 1.491 . S
C1337 C1336 1.400 . S
C1337 C1338 1.398 . S
C1338 H1326 0.950 . S
C1338 C1337 1.398 . S
C1338 C1339 1.391 . S
C1339 H1327 0.950 . S
C1339 C1335 1.393 . S
C1339 C1338 1.391 . S
H1340 C1348 0.950 . S
H1341 C1353 0.950 . S
H1342 C1350 0.950 . S
H1343 C1352 0.950 . S
H1344 C1354 0.950 . S
H1345 C1356 0.950 . S
H1346 C1358 0.950 . S
H1347 C1359 0.950 . S
C1348 H1340 0.950 . S
C1348 C1349 1.386 . S
C1348 C1350 1.391 . S
C1349 C1348 1.386 . S
C1349 C1353 1.393 . S
C1350 H1342 0.950 . S
C1350 C1348 1.391 . S
C1350 C1351 1.400 . S
C1351 C1350 1.400 . S
C1351 C1352 1.398 . S
C1351 C1357 1.491 . S
C1352 H1343 0.950 . S
C1352 C1351 1.398 . S
C1352 C1353 1.391 . S
C1353 H1341 0.950 . S
C1353 C1349 1.393 . S
C1353 C1352 1.391 . S
C1354 H1344 0.950 . S
C1354 C1355 1.386 . S
C1354 C1356 1.391 . S
C1355 C1354 1.386 . S
C1355 C1359 1.393 . S
C1356 H1345 0.950 . S
C1356 C1354 1.391 . S
C1356 C1357 1.400 . S
C1357 C1351 1.491 . S
C1357 C1356 1.400 . S
C1357 C1358 1.398 . S
C1358 H1346 0.950 . S
C1358 C1357 1.398 . S
C1358 C1359 1.391 . S
C1359 H1347 0.950 . S
C1359 C1355 1.393 . S
C1359 C1358 1.391 . S
H1360 C1368 0.950 . S
H1361 C1373 0.950 . S
H1362 C1370 0.950 . S
H1363 C1372 0.950 . S
H1364 C1374 0.950 . S
H1365 C1376 0.950 . S
H1366 C1378 0.950 . S
H1367 C1379 0.950 . S
C1368 H1360 0.950 . S
C1368 C1369 1.386 . S
C1368 C1370 1.391 . S
C1369 C1368 1.386 . S
C1369 C1373 1.393 . S
C1370 H1362 0.950 . S
C1370 C1368 1.391 . S
C1370 C1371 1.400 . S
C1371 C1370 1.400 . S
C1371 C1372 1.398 . S
C1371 C1377 1.491 . S
C1372 H1363 0.950 . S
C1372 C1371 1.398 . S
C1372 C1373 1.391 . S
C1373 H1361 0.950 . S
C1373 C1369 1.393 . S
C1373 C1372 1.391 . S
C1374 H1364 0.950 . S
C1374 C1375 1.386 . S
C1374 C1376 1.391 . S
C1375 C1374 1.386 . S
C1375 C1379 1.393 . S
C1376 H1365 0.950 . S
C1376 C1374 1.391 . S
C1376 C1377 1.400 . S
C1377 C1371 1.491 . S
C1377 C1376 1.400 . S
C1377 C1378 1.398 . S
C1378 H1366 0.950 . S
C1378 C1377 1.398 . S
C1378 C1379 1.391 . S
C1379 H1367 0.950 . S
C1379 C1375 1.393 . S
C1379 C1378 1.391 . S
H1380 C1388 0.950 . S
H1381 C1393 0.950 . S
H1382 C1390 0.950 . S
H1383 C1392 0.950 . S
H1384 C1394 0.950 . S
H1385 C1396 0.950 . S
H1386 C1398 0.950 . S
H1387 C1399 0.950 . S
C1388 H1380 0.950 . S
C1388 C1389 1.386 . S
C1388 C1390 1.391 . S
C1389 C1388 1.386 . S
C1389 C1393 1.393 . S
C1390 H1382 0.950 . S
C1390 C1388 1.391 . S
C1390 C1391 1.400 . S
C1391 C1390 1.400 . S
C1391 C1392 1.398 . S
C1391 C1397 1.491 . S
C1392 H1383 0.950 . S
C1392 C1391 1.398 . S
C1392 C1393 1.391 . S
C1393 H1381 0.950 . S
C1393 C1389 1.393 . S
C1393 C1392 1.391 . S
C1394 H1384 0.950 . S
C1394 C1395 1.386 . S
C1394 C1396 1.391 . S
C1395 C1394 1.386 . S
C1395 C1399 1.393 . S
C1396 H1385 0.950 . S
C1396 C1394 1.391 . S
C1396 C1397 1.400 . S
C1397 C1391 1.491 . S
C1397 C1396 1.400 . S
C1397 C1398 1.398 . S
C1398 H1386 0.950 . S
C1398 C1397 1.398 . S
C1398 C1399 1.391 . S
C1399 H1387 0.950 . S
C1399 C1395 1.393 . S
C1399 C1398 1.391 . S
H1400 C1408 0.950 . S
H1401 C1413 0.950 . S
H1402 C1410 0.950 . S
H1403 C1412 0.950 . S
H1404 C1414 0.950 . S
H1405 C1416 0.950 . S
H1406 C1418 0.950 . S
H1407 C1419 0.950 . S
C1408 H1400 0.950 . S
C1408 C1409 1.386 . S
C1408 C1410 1.391 . S
C1409 C1408 1.386 . S
C1409 C1413 1.393 . S
C1410 H1402 0.950 . S
C1410 C1408 1.391 . S
C1410 C1411 1.400 . S
C1411 C1410 1.400 . S
C1411 C1412 1.398 . S
C1411 C1417 1.491 . S
C1412 H1403 0.950 . S
C1412 C1411 1.398 . S
C1412 C1413 1.391 . S
C1413 H1401 0.950 . S
C1413 C1409 1.393 . S
C1413 C1412 1.391 . S
C1414 H1404 0.950 . S
C1414 C1415 1.386 . S
C1414 C1416 1.391 . S
C1415 C1414 1.386 . S
C1415 C1419 1.393 . S
C1416 H1405 0.950 . S
C1416 C1414 1.391 . S
C1416 C1417 1.400 . S
C1417 C1411 1.491 . S
C1417 C1416 1.400 . S
C1417 C1418 1.398 . S
C1418 H1406 0.950 . S
C1418 C1417 1.398 . S
C1418 C1419 1.391 . S
C1419 H1407 0.950 . S
C1419 C1415 1.393 . S
C1419 C1418 1.391 . S
H1420 C1428 0.950 . S
H1421 C1433 0.950 . S
H1422 C1430 0.950 . S
H1423 C1432 0.950 . S
H1424 C1434 0.950 . S
H1425 C1436 0.950 . S
H1426 C1438 0.950 . S
H1427 C1439 0.950 . S
C1428 H1420 0.950 . S
C1428 C1429 1.386 . S
C1428 C1430 1.391 . S
C1429 C1428 1.386 . S
C1429 C1433 1.393 . S
C1430 H1422 0.950 . S
C1430 C1428 1.391 . S
C1430 C1431 1.400 . S
C1431 C1430 1.400 . S
C1431 C1432 1.398 . S
C1431 C1437 1.491 . S
C1432 H1423 0.950 . S
C1432 C1431 1.398 . S
C1432 C1433 1.391 . S
C1433 H1421 0.950 . S
C1433 C1429 1.393 . S
C1433 C1432 1.391 . S
C1434 H1424 0.950 . S
C1434 C1435 1.386 . S
C1434 C1436 1.391 . S
C1435 C1434 1.386 . S
C1435 C1439 1.393 . S
C1436 H1425 0.950 . S
C1436 C1434 1.391 . S
C1436 C1437 1.400 . S
C1437 C1431 1.491 . S
C1437 C1436 1.400 . S
C1437 C1438 1.398 . S
C1438 H1426 0.950 . S
C1438 C1437 1.398 . S
C1438 C1439 1.391 . S
C1439 H1427 0.950 . S
C1439 C1435 1.393 . S
C1439 C1438 1.391 . S
H1440 C1448 0.950 . S
H1441 C1453 0.950 . S
H1442 C1450 0.950 . S
H1443 C1452 0.950 . S
H1444 C1454 0.950 . S
H1445 C1456 0.950 . S
H1446 C1458 0.950 . S
H1447 C1459 0.950 . S
C1448 H1440 0.950 . S
C1448 C1449 1.386 . S
C1448 C1450 1.391 . S
C1449 C1448 1.386 . S
C1449 C1453 1.393 . S
C1450 H1442 0.950 . S
C1450 C1448 1.391 . S
C1450 C1451 1.400 . S
C1451 C1450 1.400 . S
C1451 C1452 1.398 . S
C1451 C1457 1.491 . S
C1452 H1443 0.950 . S
C1452 C1451 1.398 . S
C1452 C1453 1.391 . S
C1453 H1441 0.950 . S
C1453 C1449 1.393 . S
C1453 C1452 1.391 . S
C1454 H1444 0.950 . S
C1454 C1455 1.386 . S
C1454 C1456 1.391 . S
C1455 C1454 1.386 . S
C1455 C1459 1.393 . S
C1456 H1445 0.950 . S
C1456 C1454 1.391 . S
C1456 C1457 1.400 . S
C1457 C1451 1.491 . S
C1457 C1456 1.400 . S
C1457 C1458 1.398 . S
C1458 H1446 0.950 . S
C1458 C1457 1.398 . S
C1458 C1459 1.391 . S
C1459 H1447 0.950 . S
C1459 C1455 1.393 . S
C1459 C1458 1.391 . S
H1460 C1468 0.950 . S
H1461 C1473 0.950 . S
H1462 C1470 0.950 . S
H1463 C1472 0.950 . S
H1464 C1474 0.950 . S
H1465 C1476 0.950 . S
H1466 C1478 0.950 . S
H1467 C1479 0.950 . S
C1468 H1460 0.950 . S
C1468 C1469 1.386 . S
C1468 C1470 1.391 . S
C1469 C1468 1.386 . S
C1469 C1473 1.393 . S
C1470 H1462 0.950 . S
C1470 C1468 1.391 . S
C1470 C1471 1.400 . S
C1471 C1470 1.400 . S
C1471 C1472 1.398 . S
C1471 C1477 1.491 . S
C1472 H1463 0.950 . S
C1472 C1471 1.398 . S
C1472 C1473 1.391 . S
C1473 H1461 0.950 . S
C1473 C1469 1.393 . S
C1473 C1472 1.391 . S
C1474 H1464 0.950 . S
C1474 C1475 1.386 . S
C1474 C1476 1.391 . S
C1475 C1474 1.386 . S
C1475 C1479 1.393 . S
C1476 H1465 0.950 . S
C1476 C1474 1.391 . S
C1476 C1477 1.400 . S
C1477 C1471 1.491 . S
C1477 C1476 1.400 . S
C1477 C1478 1.398 . S
C1478 H1466 0.950 . S
C1478 C1477 1.398 . S
C1478 C1479 1.391 . S
C1479 H1467 0.950 . S
C1479 C1475 1.393 . S
C1479 C1478 1.391 . S
H1480 C1488 0.950 . S
H1481 C1493 0.950 . S
H1482 C1490 0.950 . S
H1483 C1492 0.950 . S
H1484 C1494 0.950 . S
H1485 C1496 0.950 . S
H1486 C1498 0.950 . S
H1487 C1499 0.950 . S
C1488 H1480 0.950 . S
C1488 C1489 1.386 . S
C1488 C1490 1.391 . S
C1489 C1488 1.386 . S
C1489 C1493 1.393 . S
C1490 H1482 0.950 . S
C1490 C1488 1.391 . S
C1490 C1491 1.400 . S
C1491 C1490 1.400 . S
C1491 C1492 1.398 . S
C1491 C1497 1.491 . S
C1492 H1483 0.950 . S
C1492 C1491 1.398 . S
C1492 C1493 1.391 . S
C1493 H1481 0.950 . S
C1493 C1489 1.393 . S
C1493 C1492 1.391 . S
C1494 H1484 0.950 . S
C1494 C1495 1.386 . S
C1494 C1496 1.391 . S
C1495 C1494 1.386 . S
C1495 C1499 1.393 . S
C1496 H1485 0.950 . S
C1496 C1494 1.391 . S
C1496 C1497 1.400 . S
C1497 C1491 1.491 . S
C1497 C1496 1.400 . S
C1497 C1498 1.398 . S
C1498 H1486 0.950 . S
C1498 C1497 1.398 . S
C1498 C1499 1.391 . S
C1499 H1487 0.950 . S
C1499 C1495 1.393 . S
C1499 C1498 1.391 . S
H1500 C1508 0.950 . S
H1501 C1513 0.950 . S
H1502 C1510 0.950 . S
H1503 C1512 0.950 . S
H1504 C1514 0.950 . S
H1505 C1516 0.950 . S
H1506 C1518 0.950 . S
H1507 C1519 0.950 . S
C1508 H1500 0.950 . S
C1508 C1509 1.386 . S
C1508 C1510 1.391 . S
C1509 C1508 1.386 . S
C1509 C1513 1.393 . S
C1510 H1502 0.950 . S
C1510 C1508 1.391 . S
C1510 C1511 1.400 . S
C1511 C1510 1.400 . S
C1511 C1512 1.398 . S
C1511 C1517 1.491 . S
C1512 H1503 0.950 . S
C1512 C1511 1.398 . S
C1512 C1513 1.391 . S
C1513 H1501 0.950 . S
C1513 C1509 1.393 . S
C1513 C1512 1.391 . S
C1514 H1504 0.950 . S
C1514 C1515 1.386 . S
C1514 C1516 1.391 . S
C1515 C1514 1.386 . S
C1515 C1519 1.393 . S
C1516 H1505 0.950 . S
C1516 C1514 1.391 . S
C1516 C1517 1.400 . S
C1517 C1511 1.491 . S
C1517 C1516 1.400 . S
C1517 C1518 1.398 . S
C1518 H1506 0.950 . S
C1518 C1517 1.398 . S
C1518 C1519 1.391 . S
C1519 H1507 0.950 . S
C1519 C1515 1.393 . S
C1519 C1518 1.391 . S
H1520 C1528 0.950 . S
H1521 C1533 0.950 . S
H1522 C1530 0.950 . S
H1523 C1532 0.950 . S
H1524 C1534 0.950 . S
H1525 C1536 0.950 . S
H1526 C1538 0.950 . S
H1527 C1539 0.950 . S
C1528 H1520 0.950 . S
C1528 C1529 1.386 . S
C1528 C1530 1.391 . S
C1529 C1528 1.386 . S
C1529 C1533 1.393 . S
C1530 H1522 0.950 . S
C1530 C1528 1.391 . S
C1530 C1531 1.400 . S
C1531 C1530 1.400 . S
C1531 C1532 1.398 . S
C1531 C1537 1.491 . S
C1532 H1523 0.950 . S
C1532 C1531 1.398 . S
C1532 C1533 1.391 . S
C1533 H1521 0.950 . S
C1533 C1529 1.393 . S
C1533 C1532 1.391 . S
C1534 H1524 0.950 . S
C1534 C1535 1.386 . S
C1534 C1536 1.391 . S
C1535 C1534 1.386 . S
C1535 C1539 1.393 . S
C1536 H1525 0.950 . S
C1536 C1534 1.391 . S
C1536 C1537 1.400 . S
C1537 C1531 1.491 . S
C1537 C1536 1.400 . S
C1537 C1538 1.398 . S
C1538 H1526 0.950 . S
C1538 C1537 1.398 . S
C1538 C1539 1.391 . S
C1539 H1527 0.950 . S
C1539 C1535 1.393 . S
C1539 C1538 1.391 . S
H1540 C1548 0.950 . S
H1541 C1553 0.950 . S
H1542 C1550 0.950 . S
H1543 C1552 0.950 . S
H1544 C1554 0.950 . S
H1545 C1556 0.950 . S
H1546 C1558 0.950 . S
H1547 C1559 0.950 . S
C1548 H1540 0.950 . S
C1548 C1549 1.386 . S
C1548 C1550 1.391 . S
C1549 C1548 1.386 . S
C1549 C1553 1.393 . S
C1550 H1542 0.950 . S
C1550 C1548 1.391 . S
C1550 C1551 1.400 . S
C1551 C1550 1.400 . S
C1551 C1552 1.398 . S
C1551 C1557 1.491 . S
C1552 H1543 0.950 . S
C1552 C1551 1.398 . S
C1552 C1553 1.391 . S
C1553 H1541 0.950 . S
C1553 C1549 1.393 . S
C1553 C1552 1.391 . S
C1554 H1544 0.950 . S
C1554 C1555 1.386 . S
C1554 C1556 1.391 . S
C1555 C1554 1.386 . S
C1555 C1559 1.393 . S
C1556 H1545 0.950 . S
C1556 C1554 1.391 . S
C1556 C1557 1.400 . S
C1557 C1551 1.491 . S
C1557 C1556 1.400 . S
C1557 C1558 1.398 . S
C1558 H1546 0.950 . S
C1558 C1557 1.398 . S
C1558 C1559 1.391 . S
C1559 H1547 0.950 . S
C1559 C1555 1.393 . S
C1559 C1558 1.391 . S
H1560 C1568 0.950 . S
H1561 C1573 0.950 . S
H1562 C1570 0.950 . S
H1563 C1572 0.950 . S
H1564 C1574 0.950 . S
H1565 C1576 0.950 . S
H1566 C1578 0.950 . S
H1567 C1579 0.950 . S
C1568 H1560 0.950 . S
C1568 C1569 1.386 . S
C1568 C1570 1.391 . S
C1569 C1568 1.386 . S
C1569 C1573 1.393 . S
C1570 H1562 0.950 . S
C1570 C1568 1.391 . S
C1570 C1571 1.400 . S
C1571 C1570 1.400 . S
C1571 C1572 1.398 . S
C1571 C1577 1.491 . S
C1572 H1563 0.950 . S
C1572 C1571 1.398 . S
C1572 C1573 1.391 . S
C1573 H1561 0.950 . S
C1573 C1569 1.393 . S
C1573 C1572 1.391 . S
C1574 H1564 0.950 . S
C1574 C1575 1.386 . S
C1574 C1576 1.391 . S
C1575 C1574 1.386 . S
C1575 C1579 1.393 . S
C1576 H1565 0.950 . S
C1576 C1574 1.391 . S
C1576 C1577 1.400 . S
C1577 C1571 1.491 . S
C1577 C1576 1.400 . S
C1577 C1578 1.398 . S
C1578 H1566 0.950 . S
C1578 C1577 1.398 . S
C1578 C1579 1.391 . S
C1579 H1567 0.950 . S
C1579 C1575 1.393 . S
C1579 C1578 1.391 . S
H1580 C1588 0.950 . S
H1581 C1593 0.950 . S
H1582 C1590 0.950 . S
H1583 C1592 0.950 . S
H1584 C1594 0.950 . S
H1585 C1596 0.950 . S
H1586 C1598 0.950 . S
H1587 C1599 0.950 . S
C1588 H1580 0.950 . S
C1588 C1589 1.386 . S
C1588 C1590 1.391 . S
C1589 C1588 1.386 . S
C1589 C1593 1.393 . S
C1590 H1582 0.950 . S
C1590 C1588 1.391 . S
C1590 C1591 1.400 . S
C1591 C1590 1.400 . S
C1591 C1592 1.398 . S
C1591 C1597 1.491 . S
C1592 H1583 0.950 . S
C1592 C1591 1.398 . S
C1592 C1593 1.391 . S
C1593 H1581 0.950 . S
C1593 C1589 1.393 . S
C1593 C1592 1.391 . S
C1594 H1584 0.950 . S
C1594 C1595 1.386 . S
C1594 C1596 1.391 . S
C1595 C1594 1.386 . S
C1595 C1599 1.393 . S
C1596 H1585 0.950 . S
C1596 C1594 1.391 . S
C1596 C1597 1.400 . S
C1597 C1591 1.491 . S
C1597 C1596 1.400 . S
C1597 C1598 1.398 . S
C1598 H1586 0.950 . S
C1598 C1597 1.398 . S
C1598 C1599 1.391 . S
C1599 H1587 0.950 . S
C1599 C1595 1.393 . S
C1599 C1598 1.391 . S
H1600 C1608 0.950 . S
H1601 C1613 0.950 . S
H1602 C1610 0.950 . S
H1603 C1612 0.950 . S
H1604 C1614 0.950 . S
H1605 C1616 0.950 . S
H1606 C1618 0.950 . S
H1607 C1619 0.950 . S
C1608 H1600 0.950 . S
C1608 C1609 1.386 . S
C1608 C1610 1.391 . S
C1609 C1608 1.386 . S
C1609 C1613 1.393 . S
C1610 H1602 0.950 . S
C1610 C1608 1.391 . S
C1610 C1611 1.400 . S
C1611 C1610 1.400 . S
C1611 C1612 1.398 . S
C1611 C1617 1.491 . S
C1612 H1603 0.950 . S
C1612 C1611 1.398 . S
C1612 C1613 1.391 . S
C1613 H1601 0.950 . S
C1613 C1609 1.393 . S
C1613 C1612 1.391 . S
C1614 H1604 0.950 . S
C1614 C1615 1.386 . S
C1614 C1616 1.391 . S
C1615 C1614 1.386 . S
C1615 C1619 1.393 . S
C1616 H1605 0.950 . S
C1616 C1614 1.391 . S
C1616 C1617 1.400 . S
C1617 C1611 1.491 . S
C1617 C1616 1.400 . S
C1617 C1618 1.398 . S
C1618 H1606 0.950 . S
C1618 C1617 1.398 . S
C1618 C1619 1.391 . S
C1619 H1607 0.950 . S
C1619 C1615 1.393 . S
C1619 C1618 1.391 . S
H1620 C1628 0.950 . S
H1621 C1633 0.950 . S
H1622 C1630 0.950 . S
H1623 C1632 0.950 . S
H1624 C1634 0.950 . S
H1625 C1636 0.950 . S
H1626 C1638 0.950 . S
H1627 C1639 0.950 . S
C1628 H1620 0.950 . S
C1628 C1629 1.386 . S
C1628 C1630 1.391 . S
C1629 C1628 1.386 . S
C1629 C1633 1.393 . S
C1630 H1622 0.950 . S
C1630 C1628 1.391 . S
C1630 C1631 1.400 . S
C1631 C1630 1.400 . S
C1631 C1632 1.398 . S
C1631 C1637 1.491 . S
C1632 H1623 0.950 . S
C1632 C1631 1.398 . S
C1632 C1633 1.391 . S
C1633 H1621 0.950 . S
C1633 C1629 1.393 . S
C1633 C1632 1.391 . S
C1634 H1624 0.950 . S
C1634 C1635 1.386 . S
C1634 C1636 1.391 . S
C1635 C1634 1.386 . S
C1635 C1639 1.393 . S
C1636 H1625 0.950 . S
C1636 C1634 1.391 . S
C1636 C1637 1.400 . S
C1637 C1631 1.491 . S
C1637 C1636 1.400 . S
C1637 C1638 1.398 . S
C1638 H1626 0.950 . S
C1638 C1637 1.398 . S
C1638 C1639 1.391 . S
C1639 H1627 0.950 . S
C1639 C1635 1.393 . S
C1639 C1638 1.391 . S
H1640 C1648 0.950 . S
H1641 C1653 0.950 . S
H1642 C1650 0.950 . S
H1643 C1652 0.950 . S
H1644 C1654 0.950 . S
H1645 C1656 0.950 . S
H1646 C1658 0.950 . S
H1647 C1659 0.950 . S
C1648 H1640 0.950 . S
C1648 C1649 1.386 . S
C1648 C1650 1.391 . S
C1649 C1648 1.386 . S
C1649 C1653 1.393 . S
C1650 H1642 0.950 . S
C1650 C1648 1.391 . S
C1650 C1651 1.400 . S
C1651 C1650 1.400 . S
C1651 C1652 1.398 . S
C1651 C1657 1.491 . S
C1652 H1643 0.950 . S
C1652 C1651 1.398 . S
C1652 C1653 1.391 . S
C1653 H1641 0.950 . S
C1653 C1649 1.393 . S
C1653 C1652 1.391 . S
C1654 H1644 0.950 . S
C1654 C1655 1.386 . S
C1654 C1656 1.391 . S
C1655 C1654 1.386 . S
C1655 C1659 1.393 . S
C1656 H1645 0.950 . S
C1656 C1654 1.391 . S
C1656 C1657 1.400 . S
C1657 C1651 1.491 . S
C1657 C1656 1.400 . S
C1657 C1658 1.398 . S
C1658 H1646 0.950 . S
C1658 C1657 1.398 . S
C1658 C1659 1.391 . S
C1659 H1647 0.950 . S
C1659 C1655 1.393 . S
C1659 C1658 1.391 . S
H1660 C1668 0.950 . S
H1661 C1673 0.950 . S
H1662 C1670 0.950 . S
H1663 C1672 0.950 . S
H1664 C1674 0.950 . S
H1665 C1676 0.950 . S
H1666 C1678 0.950 . S
H1667 C1679 0.950 . S
C1668 H1660 0.950 . S
C1668 C1669 1.386 . S
C1668 C1670 1.391 . S
C1669 C1668 1.386 . S
C1669 C1673 1.393 . S
C1670 H1662 0.950 . S
C1670 C1668 1.391 . S
C1670 C1671 1.400 . S
C1671 C1670 1.400 . S
C1671 C1672 1.398 . S
C1671 C1677 1.491 . S
C1672 H1663 0.950 . S
C1672 C1671 1.398 . S
C1672 C1673 1.391 . S
C1673 H1661 0.950 . S
C1673 C1669 1.393 . S
C1673 C1672 1.391 . S
C1674 H1664 0.950 . S
C1674 C1675 1.386 . S
C1674 C1676 1.391 . S
C1675 C1674 1.386 . S
C1675 C1679 1.393 . S
C1676 H1665 0.950 . S
C1676 C1674 1.391 . S
C1676 C1677 1.400 . S
C1677 C1671 1.491 . S
C1677 C1676 1.400 . S
C1677 C1678 1.398 . S
C1678 H1666 0.950 . S
C1678 C1677 1.398 . S
C1678 C1679 1.391 . S
C1679 H1667 0.950 . S
C1679 C1675 1.393 . S
C1679 C1678 1.391 . S
H1680 C1688 0.950 . S
H1681 C1693 0.950 . S
H1682 C1690 0.950 . S
H1683 C1692 0.950 . S
H1684 C1694 0.950 . S
H1685 C1696 0.950 . S
H1686 C1698 0.950 . S
H1687 C1699 0.950 . S
C1688 H1680 0.950 . S
C1688 C1689 1.386 . S
C1688 C1690 1.391 . S
C1689 C1688 1.386 . S
C1689 C1693 1.393 . S
C1690 H1682 0.950 . S
C1690 C1688 1.391 . S
C1690 C1691 1.400 . S
C1691 C1690 1.400 . S
C1691 C1692 1.398 . S
C1691 C1697 1.491 . S
C1692 H1683 0.950 . S
C1692 C1691 1.398 . S
C1692 C1693 1.391 . S
C1693 H1681 0.950 . S
C1693 C1689 1.393 . S
C1693 C1692 1.391 . S
C1694 H1684 0.950 . S
C1694 C1695 1.386 . S
C1694 C1696 1.391 . S
C1695 C1694 1.386 . S
C1695 C1699 1.393 . S
C1696 H1685 0.950 . S
C1696 C1694 1.391 . S
C1696 C1697 1.400 . S
C1697 C1691 1.491 . S
C1697 C1696 1.400 . S
C1697 C1698 1.398 . S
C1698 H1686 0.950 . S
C1698 C1697 1.398 . S
C1698 C1699 1.391 . S
C1699 H1687 0.950 . S
C1699 C1695 1.393 . S
C1699 C1698 1.391 . S
H1700 C1708 0.950 . S
H1701 C1713 0.950 . S
H1702 C1710 0.950 . S
H1703 C1712 0.950 . S
H1704 C1714 0.950 . S
H1705 C1716 0.950 . S
H1706 C1718 0.950 . S
H1707 C1719 0.950 . S
C1708 H1700 0.950 . S
C1708 C1709 1.386 . S
C1708 C1710 1.391 . S
C1709 C1708 1.386 . S
C1709 C1713 1.393 . S
C1710 H1702 0.950 . S
C1710 C1708 1.391 . S
C1710 C1711 1.400 . S
C1711 C1710 1.400 . S
C1711 C1712 1.398 . S
C1711 C1717 1.491 . S
C1712 H1703 0.950 . S
C1712 C1711 1.398 . S
C1712 C1713 1.391 . S
C1713 H1701 0.950 . S
C1713 C1709 1.393 . S
C1713 C1712 1.391 . S
C1714 H1704 0.950 . S
C1714 C1715 1.386 . S
C1714 C1716 1.391 . S
C1715 C1714 1.386 . S
C1715 C1719 1.393 . S
C1716 H1705 0.950 . S
C1716 C1714 1.391 . S
C1716 C1717 1.400 . S
C1717 C1711 1.491 . S
C1717 C1716 1.400 . S
C1717 C1718 1.398 . S
C1718 H1706 0.950 . S
C1718 C1717 1.398 . S
C1718 C1719 1.391 . S
C1719 H1707 0.950 . S
C1719 C1715 1.393 . S
C1719 C1718 1.391 . S
H1720 C1728 0.950 . S
H1721 C1733 0.950 . S
H1722 C1730 0.950 . S
H1723 C1732 0.950 . S
H1724 C1734 0.950 . S
H1725 C1736 0.950 . S
H1726 C1738 0.950 . S
H1727 C1739 0.950 . S
C1728 H1720 0.950 . S
C1728 C1729 1.386 . S
C1728 C1730 1.391 . S
C1729 C1728 1.386 . S
C1729 C1733 1.393 . S
C1730 H1722 0.950 . S
C1730 C1728 1.391 . S
C1730 C1731 1.400 . S
C1731 C1730 1.400 . S
C1731 C1732 1.398 . S
C1731 C1737 1.491 . S
C1732 H1723 0.950 . S
C1732 C1731 1.398 . S
C1732 C1733 1.391 . S
C1733 H1721 0.950 . S
C1733 C1729 1.393 . S
C1733 C1732 1.391 . S
C1734 H1724 0.950 . S
C1734 C1735 1.386 . S
C1734 C1736 1.391 . S
C1735 C1734 1.386 . S
C1735 C1739 1.393 . S
C1736 H1725 0.950 . S
C1736 C1734 1.391 . S
C1736 C1737 1.400 . S
C1737 C1731 1.491 . S
C1737 C1736 1.400 . S
C1737 C1738 1.398 . S
C1738 H1726 0.950 . S
C1738 C1737 1.398 . S
C1738 C1739 1.391 . S
C1739 H1727 0.950 . S
C1739 C1735 1.393 . S
C1739 C1738 1.391 . S
H1740 C1748 0.950 . S
H1741 C1753 0.950 . S
H1742 C1750 0.950 . S
H1743 C1752 0.950 . S
H1744 C1754 0.950 . S
H1745 C1756 0.950 . S
H1746 C1758 0.950 . S
H1747 C1759 0.950 . S
C1748 H1740 0.950 . S
C1748 C1749 1.386 . S
C1748 C1750 1.391 . S
C1749 C1748 1.386 . S
C1749 C1753 1.393 . S
C1750 H1742 0.950 . S
C1750 C1748 1.391 . S
C1750 C1751 1.400 . S
C1751 C1750 1.400 . S
C1751 C1752 1.398 . S
C1751 C1757 1.491 . S
C1752 H1743 0.950 . S
C1752 C1751 1.398 . S
C1752 C1753 1.391 . S
C1753 H1741 0.950 . S
C1753 C1749 1.393 . S
C1753 C1752 1.391 . S
C1754 H1744 0.950 . S
C1754 C1755 1.386 . S
C1754 C1756 1.391 . S
C1755 C1754 1.386 . S
C1755 C1759 1.393 . S
C1756 H1745 0.950 . S
C1756 C1754 1.391 . S
C1756 C1757 1.400 . S
C1757 C1751 1.491 . S
C1757 C1756 1.400 . S
C1757 C1758 1.398 . S
C1758 H1746 0.950 . S
C1758 C1757 1.398 . S
C1758 C1759 1.391 . S
C1759 H1747 0.950 . S
C1759 C1755 1.393 . S
C1759 C1758 1.391 . S
H1760 C1768 0.950 . S
H1761 C1773 0.950 . S
H1762 C1770 0.950 . S
H1763 C1772 0.950 . S
H1764 C1774 0.950 . S
H1765 C1776 0.950 . S
H1766 C1778 0.950 . S
H1767 C1779 0.950 . S
C1768 H1760 0.950 . S
C1768 C1769 1.386 . S
C1768 C1770 1.391 . S
C1769 C1768 1.386 . S
C1769 C1773 1.393 . S
C1770 H1762 0.950 . S
C1770 C1768 1.391 . S
C1770 C1771 1.400 . S
C1771 C1770 1.400 . S
C1771 C1772 1.398 . S
C1771 C1777 1.491 . S
C1772 H1763 0.950 . S
C1772 C1771 1.398 . S
C1772 C1773 1.391 . S
C1773 H1761 0.950 . S
C1773 C1769 1.393 . S
C1773 C1772 1.391 . S
C1774 H1764 0.950 . S
C1774 C1775 1.386 . S
C1774 C1776 1.391 . S
C1775 C1774 1.386 . S
C1775 C1779 1.393 . S
C1776 H1765 0.950 . S
C1776 C1774 1.391 . S
C1776 C1777 1.400 . S
C1777 C1771 1.491 . S
C1777 C1776 1.400 . S
C1777 C1778 1.398 . S
C1778 H1766 0.950 . S
C1778 C1777 1.398 . S
C1778 C1779 1.391 . S
C1779 H1767 0.950 . S
C1779 C1775 1.393 . S
C1779 C1778 1.391 . S
H1780 C1788 0.950 . S
H1781 C1793 0.950 . S
H1782 C1790 0.950 . S
H1783 C1792 0.950 . S
H1784 C1794 0.950 . S
H1785 C1796 0.950 . S
H1786 C1798 0.950 . S
H1787 C1799 0.950 . S
C1788 H1780 0.950 . S
C1788 C1789 1.386 . S
C1788 C1790 1.391 . S
C1789 C1788 1.386 . S
C1789 C1793 1.393 . S
C1790 H1782 0.950 . S
C1790 C1788 1.391 . S
C1790 C1791 1.400 . S
C1791 C1790 1.400 . S
C1791 C1792 1.398 . S
C1791 C1797 1.491 . S
C1792 H1783 0.950 . S
C1792 C1791 1.398 . S
C1792 C1793 1.391 . S
C1793 H1781 0.950 . S
C1793 C1789 1.393 . S
C1793 C1792 1.391 . S
C1794 H1784 0.950 . S
C1794 C1795 1.386 . S
C1794 C1796 1.391 . S
C1795 C1794 1.386 . S
C1795 C1799 1.393 . S
C1796 H1785 0.950 . S
C1796 C1794 1.391 . S
C1796 C1797 1.400 . S
C1797 C1791 1.491 . S
C1797 C1796 1.400 . S
C1797 C1798 1.398 . S
C1798 H1786 0.950 . S
C1798 C1797 1.398 . S
C1798 C1799 1.391 . S
C1799 H1787 0.950 . S
C1799 C1795 1.393 . S
C1799 C1798 1.391 . S
H1800 C1808 0.950 . S
H1801 C1813 0.950 . S
H1802 C1810 0.950 . S
H1803 C1812 0.950 . S
H1804 C1814 0.950 . S
H1805 C1816 0.950 . S
H1806 C1818 0.950 . S
H1807 C1819 0.950 . S
C1808 H1800 0.950 . S
C1808 C1809 1.386 . S
C1808 C1810 1.391 . S
C1809 C1808 1.386 . S
C1809 C1813 1.393 . S
C1810 H1802 0.950 . S
C1810 C1808 1.391 . S
C1810 C1811 1.400 . S
C1811 C1810 1.400 . S
C1811 C1812 1.398 . S
C1811 C1817 1.491 . S
C1812 H1803 0.950 . S
C1812 C1811 1.398 . S
C1812 C1813 1.391 . S
C1813 H1801 0.950 . S
C1813 C1809 1.393 . S
C1813 C1812 1.391 . S
C1814 H1804 0.950 . S
C1814 C1815 1.386 . S
C1814 C1816 1.391 . S
C1815 C1814 1.386 . S
C1815 C1819 1.393 . S
C1816 H1805 0.950 . S
C1816 C1814 1.391 . S
C1816 C1817 1.400 . S
C1817 C1811 1.491 . S
C1817 C1816 1.400 . S
C1817 C1818 1.398 . S
C1818 H1806 0.950 . S
C1818 C1817 1.398 . S
C1818 C1819 1.391 . S
C1819 H1807 0.950 . S
C1819 C1815 1.393 . S
C1819 C1818 1.391 . S
H1820 C1828 0.950 . S
H1821 C1833 0.950 . S
H1822 C1830 0.950 . S
H1823 C1832 0.950 . S
H1824 C1834 0.950 . S
H1825 C1836 0.950 . S
H1826 C1838 0.950 . S
H1827 C1839 0.950 . S
C1828 H1820 0.950 . S
C1828 C1829 1.386 . S
C1828 C1830 1.391 . S
C1829 C1828 1.386 . S
C1829 C1833 1.393 . S
C1830 H1822 0.950 . S
C1830 C1828 1.391 . S
C1830 C1831 1.400 . S
C1831 C1830 1.400 . S
C1831 C1832 1.398 . S
C1831 C1837 1.491 . S
C1832 H1823 0.950 . S
C1832 C1831 1.398 . S
C1832 C1833 1.391 . S
C1833 H1821 0.950 . S
C1833 C1829 1.393 . S
C1833 C1832 1.391 . S
C1834 H1824 0.950 . S
C1834 C1835 1.386 . S
C1834 C1836 1.391 . S
C1835 C1834 1.386 . S
C1835 C1839 1.393 . S
C1836 H1825 0.950 . S
C1836 C1834 1.391 . S
C1836 C1837 1.400 . S
C1837 C1831 1.491 . S
C1837 C1836 1.400 . S
C1837 C1838 1.398 . S
C1838 H1826 0.950 . S
C1838 C1837 1.398 . S
C1838 C1839 1.391 . S
C1839 H1827 0.950 . S
C1839 C1835 1.393 . S
C1839 C1838 1.391 . S
H1840 C1848 0.950 . S
H1841 C1853 0.950 . S
H1842 C1850 0.950 . S
H1843 C1852 0.950 . S
H1844 C1854 0.950 . S
H1845 C1856 0.950 . S
H1846 C1858 0.950 . S
H1847 C1859 0.950 . S
C1848 H1840 0.950 . S
C1848 C1849 1.386 . S
C1848 C1850 1.391 . S
C1849 C1848 1.386 . S
C1849 C1853 1.393 . S
C1850 H1842 0.950 . S
C1850 C1848 1.391 . S
C1850 C1851 1.400 . S
C1851 C1850 1.400 . S
C1851 C1852 1.398 . S
C1851 C1857 1.491 . S
C1852 H1843 0.950 . S
C1852 C1851 1.398 . S
C1852 C1853 1.391 . S
C1853 H1841 0.950 . S
C1853 C1849 1.393 . S
C1853 C1852 1.391 . S
C1854 H1844 0.950 . S
C1854 C1855 1.386 . S
C1854 C1856 1.391 . S
C1855 C1854 1.386 . S
C1855 C1859 1.393 . S
C1856 H1845 0.950 . S
C1856 C1854 1.391 . S
C1856 C1857 1.400 . S
C1857 C1851 1.491 . S
C1857 C1856 1.400 . S
C1857 C1858 1.398 . S
C1858 H1846 0.950 . S
C1858 C1857 1.398 . S
C1858 C1859 1.391 . S
C1859 H1847 0.950 . S
C1859 C1855 1.393 . S
C1859 C1858 1.391 . S
H1860 C1868 0.950 . S
H1861 C1873 0.950 . S
H1862 C1870 0.950 . S
H1863 C1872 0.950 . S
H1864 C1874 0.950 . S
H1865 C1876 0.950 . S
H1866 C1878 0.950 . S
H1867 C1879 0.950 . S
C1868 H1860 0.950 . S
C1868 C1869 1.386 . S
C1868 C1870 1.391 . S
C1869 C1868 1.386 . S
C1869 C1873 1.393 . S
C1870 H1862 0.950 . S
C1870 C1868 1.391 . S
C1870 C1871 1.400 . S
C1871 C1870 1.400 . S
C1871 C1872 1.398 . S
C1871 C1877 1.491 . S
C1872 H1863 0.950 . S
C1872 C1871 1.398 . S
C1872 C1873 1.391 . S
C1873 H1861 0.950 . S
C1873 C1869 1.393 . S
C1873 C1872 1.391 . S
C1874 H1864 0.950 . S
C1874 C1875 1.386 . S
C1874 C1876 1.391 . S
C1875 C1874 1.386 . S
C1875 C1879 1.393 . S
C1876 H1865 0.950 . S
C1876 C1874 1.391 . S
C1876 C1877 1.400 . S
C1877 C1871 1.491 . S
C1877 C1876 1.400 . S
C1877 C1878 1.398 . S
C1878 H1866 0.950 . S
C1878 C1877 1.398 . S
C1878 C1879 1.391 . S
C1879 H1867 0.950 . S
C1879 C1875 1.393 . S
C1879 C1878 1.391 . S
H1880 C1888 0.950 . S
H1881 C1893 0.950 . S
H1882 C1890 0.950 . S
H1883 C1892 0.950 . S
H1884 C1894 0.950 . S
H1885 C1896 0.950 . S
H1886 C1898 0.950 . S
H1887 C1899 0.950 . S
C1888 H1880 0.950 . S
C1888 C1889 1.386 . S
C1888 C1890 1.391 . S
C1889 C1888 1.386 . S
C1889 C1893 1.393 . S
C1890 H1882 0.950 . S
C1890 C1888 1.391 . S
C1890 C1891 1.400 . S
C1891 C1890 1.400 . S
C1891 C1892 1.398 . S
C1891 C1897 1.491 . S
C1892 H1883 0.950 . S
C1892 C1891 1.398 . S
C1892 C1893 1.391 . S
C1893 H1881 0.950 . S
C1893 C1889 1.393 . S
C1893 C1892 1.391 . S
C1894 H1884 0.950 . S
C1894 C1895 1.386 . S
C1894 C1896 1.391 . S
C1895 C1894 1.386 . S
C1895 C1899 1.393 . S
C1896 H1885 0.950 . S
C1896 C1894 1.391 . S
C1896 C1897 1.400 . S
C1897 C1891 1.491 . S
C1897 C1896 1.400 . S
C1897 C1898 1.398 . S
C1898 H1886 0.950 . S
C1898 C1897 1.398 . S
C1898 C1899 1.391 . S
C1899 H1887 0.950 . S
C1899 C1895 1.393 . S
C1899 C1898 1.391 . S
H1900 C1908 0.950 . S
H1901 C1913 0.950 . S
H1902 C1910 0.950 . S
H1903 C1912 0.950 . S
H1904 C1914 0.950 . S
H1905 C1916 0.950 . S
H1906 C1918 0.950 . S
H1907 C1919 0.950 . S
C1908 H1900 0.950 . S
C1908 C1909 1.386 . S
C1908 C1910 1.391 . S
C1909 C1908 1.386 . S
C1909 C1913 1.393 . S
C1910 H1902 0.950 . S
C1910 C1908 1.391 . S
C1910 C1911 1.400 . S
C1911 C1910 1.400 . S
C1911 C1912 1.398 . S
C1911 C1917 1.491 . S
C1912 H1903 0.950 . S
C1912 C1911 1.398 . S
C1912 C1913 1.391 . S
C1913 H1901 0.950 . S
C1913 C1909 1.393 . S
C1913 C1912 1.391 . S
C1914 H1904 0.950 . S
C1914 C1915 1.386 . S
C1914 C1916 1.391 . S
C1915 C1914 1.386 . S
C1915 C1919 1.393 . S
C1916 H1905 0.950 . S
C1916 C1914 1.391 . S
C1916 C1917 1.400 . S
C1917 C1911 1.491 . S
C1917 C1916 1.400 . S
C1917 C1918 1.398 . S
C1918 H1906 0.950 . S
C1918 C1917 1.398 . S
C1918 C1919 1.391 . S
C1919 H1907 0.950 . S
C1919 C1915 1.393 . S
C1919 C1918 1.391 . S
C489 C13 2.855 . S
C495 C328 2.700 . S
C509 C33 2.855 . S
C515 C477 2.700 . S
C529 C428 2.689 . S
C535 C53 2.859 . S
C549 C73 2.852 . S
C555 C448 2.697 . S
C569 C93 2.853 . S
C575 C348 2.703 . S
C589 C113 2.854 . S
C595 C368 2.703 . S
C609 C133 2.853 . S
C615 C388 2.689 . S
C629 C153 2.856 . S
C635 C417 2.683 . S
C649 C173 2.851 . S
C655 C8 2.696 . S
C669 C193 2.857 . S
C675 C28 2.698 . S
C689 C48 2.702 . S
C695 C213 2.852 . S
C709 C68 2.700 . S
C715 C233 2.852 . S
C729 C253 2.852 . S
C735 C88 2.695 . S
C749 C262 2.858 . S
C755 C108 2.689 . S
C769 C293 2.856 . S
C775 C128 2.684 . S
C789 C313 2.858 . S
C795 C148 2.684 . S
C809 C333 2.853 . S
C815 C168 2.702 . S
C829 C353 2.857 . S
C835 C248 2.683 . S
C849 C277 2.684 . S
C855 C373 2.858 . S
C869 C393 2.859 . S
C875 C288 2.688 . S
C889 C402 2.855 . S
C895 C308 2.701 . S
C909 C433 2.852 . S
C915 C208 2.695 . S
C929 C228 2.685 . S
C935 C453 2.858 . S
C949 C462 2.854 . S
C955 C188 2.686 . S
C969 C437 1.504 . S
C975 C94 1.526 . S
C989 C457 1.531 . S
C995 C114 1.498 . S
C1009 C134 1.504 . S
C1015 C337 1.534 . S
C1029 C154 1.529 . S
C1035 C468 1.504 . S
C1049 C397 1.527 . S
C1055 C14 1.500 . S
C1069 C34 1.523 . S
C1075 C408 1.505 . S
C1089 C357 1.504 . S
C1095 C54 1.527 . S
C1109 C74 1.509 . S
C1115 C377 1.530 . S
C1129 C294 1.499 . S
C1135 C97 1.535 . S
C1149 C314 1.525 . S
C1155 C117 1.505 . S
C1169 C254 1.529 . S
C1175 C137 1.504 . S
C1189 C157 1.508 . S
C1195 C265 1.519 . S
C1209 C214 1.498 . S
C1215 C17 1.535 . S
C1229 C234 1.522 . S
C1235 C37 1.519 . S
C1249 C174 1.515 . S
C1255 C57 1.511 . S
C1269 C194 1.501 . S
C1275 C77 1.525 . S
C1289 C297 1.511 . S
C1295 C434 1.515 . S
C1309 C394 1.530 . S
C1315 C217 1.506 . S
C1329 C237 1.510 . S
C1335 C405 1.516 . S
C1349 C354 1.526 . S
C1355 C177 1.504 . S
C1369 C374 1.520 . S
C1375 C197 1.507 . S
C1389 C334 1.498 . S
C1395 C257 1.534 . S
C1409 C465 1.527 . S
C1415 C268 1.504 . S
C1429 C317 1.535 . S
C1435 C454 1.498 . S
C1449 C414 0.647 . S
C1455 C5 0.646 . S
C1469 C345 0.641 . S
C1475 C25 0.653 . S
C1489 C45 0.654 . S
C1495 C365 0.640 . S
C1509 C65 0.673 . S
C1515 C385 0.712 . S
C1529 C474 0.712 . S
C1535 C85 0.672 . S
C1549 C105 0.711 . S
C1555 C425 0.685 . S
C1569 C445 0.700 . S
C1575 C125 0.704 . S
C1589 C145 0.708 . S
C1595 C325 0.694 . S
C1609 C165 0.669 . S
C1615 C305 0.711 . S
C1629 C245 0.686 . S
C1635 C185 0.637 . S
C1649 C205 0.704 . S
C1655 C274 0.651 . S
C1669 C285 0.648 . S
C1675 C225 0.644 . S
C1689 C362 3.321 . S
C1695 C82 3.325 . S
C1709 C382 3.323 . S
C1715 C102 3.320 . S
C1729 C122 3.322 . S
C1735 C413 3.320 . S
C1749 C142 3.323 . S
C1755 C342 3.320 . S
C1769 C442 3.320 . S
C1775 C2 3.324 . S
C1789 C322 3.322 . S
C1795 C22 3.325 . S
C1809 C473 3.323 . S
C1815 C42 3.320 . S
C1829 C62 3.326 . S
C1835 C422 3.324 . S
C1849 C182 3.323 . S
C1855 C282 3.321 . S
C1869 C302 3.323 . S
C1875 C202 3.325 . S
C1889 C242 3.320 . S
C1895 C222 3.324 . S
C1909 C273 3.321 . S
C1915 C162 3.325 . S
