# Generated by pormake.
# Topology cdl, (4)-cn, num edge types: 1
# Building blocks:
#     Node 0, Type 0, BuildingBlock: NAWXER_clean_sbu_0, # of connection points: 4
#     Node 1, Type 0, BuildingBlock: NAWXER_clean_sbu_0, # of connection points: 4
#     Node 2, Type 0, BuildingBlock: NAWXER_clean_sbu_0, # of connection points: 4
#     Node 3, Type 0, BuildingBlock: NAWXER_clean_sbu_0, # of connection points: 4
#     Edge 4, Type (0, 0), BuildingBlock: UVAHIK_clean_linker_0, # of connection points: 2
#     Edge 5, Type (0, 0), BuildingBlock: UVAHIK_clean_linker_0, # of connection points: 2
#     Edge 6, Type (0, 0), BuildingBlock: UVAHIK_clean_linker_0, # of connection points: 2
#     Edge 7, Type (0, 0), BuildingBlock: UVAHIK_clean_linker_0, # of connection points: 2
#     Edge 8, Type (0, 0), BuildingBlock: UVAHIK_clean_linker_0, # of connection points: 2
#     Edge 9, Type (0, 0), BuildingBlock: UVAHIK_clean_linker_0, # of connection points: 2
#     Edge 10, Type (0, 0), BuildingBlock: UVAHIK_clean_linker_0, # of connection points: 2
#     Edge 11, Type (0, 0), BuildingBlock: UVAHIK_clean_linker_0, # of connection points: 2
# Relax obj value: 0.000
# Max RMSD: 0.003
# Mean RMSD: 0.003
data_MOF--net-cdl--node1-NAWXER_clean_sbu_0--edge1-UVAHIK_clean_linker_0
_symmetry_space_group_name_H-M    P1
_symmetry_Int_Tables_number       1
_symmetry_cell_setting            triclinic
loop_
_symmetry_equiv_pos_as_xyz
'x, y, z'
_cell_length_a     19.22542
_cell_length_b     19.224075
_cell_length_c     76.723383
_cell_angle_alpha  97.021153
_cell_angle_beta   97.021247
_cell_angle_gamma 88.656035
loop_
_atom_site_label
_atom_site_type_symbol
_atom_site_fract_x
_atom_site_fract_y
_atom_site_fract_z
_atom_type_partial_charge
C0 C 0.14037 0.22774 0.13125 0.0
C1 C 0.13989 0.9735 0.13046 0.0
O2 O 0.19308 0.18685 0.13283 0.0
Zn3 Zn 0.14123 0.10079 0.13125 0.0
O4 O 0.0784 0.20246 0.12951 0.0
Zn5 Zn 0.02996 0.1021 0.12814 0.0
O6 O 0.9797 0.11218 0.14861 0.0
O7 O 0.09447 0.11257 0.1555 0.0
O8 O 0.07796 1.00017 0.12883 0.0
O9 O 0.19268 0.01347 0.13229 0.0
O10 O 0.09129 0.09037 0.10435 0.0
O11 O 0.97675 0.09389 0.10494 0.0
C12 C 0.03274 0.1161 0.1603 0.0
C13 C 0.02891 0.08871 0.09614 0.0
C14 C 0.1676 0.97249 0.62491 0.0
C15 C 0.91178 0.9741 0.62032 0.0
O16 O 0.12709 0.91992 0.62185 0.0
Zn17 Zn 0.03978 0.97196 0.62233 0.0
O18 O 0.14131 0.03444 0.6272 0.0
Zn19 Zn 0.03947 0.08326 0.62734 0.0
O20 O 0.04312 0.12975 0.65123 0.0
O21 O 0.04358 0.01436 0.6497 0.0
O22 O 0.93807 0.03571 0.62359 0.0
O23 O 0.95221 0.92125 0.61825 0.0
O24 O 0.03775 0.02595 0.59939 0.0
O25 O 0.03586 0.13967 0.60799 0.0
C26 C 0.0443 0.07473 0.65893 0.0
C27 C 0.0367 0.08923 0.59565 0.0
C28 C 0.1618 0.22566 0.88646 0.0
C29 C 0.16347 0.96984 0.88185 0.0
O30 O 0.21464 0.18524 0.88856 0.0
Zn31 Zn 0.16397 0.09766 0.88444 0.0
O32 O 0.10021 0.19936 0.88315 0.0
Zn33 Zn 0.05268 0.09794 0.87936 0.0
O34 O 0.99608 0.10149 0.89868 0.0
O35 O 0.10974 0.0996 0.90734 0.0
O36 O 0.10153 0.9961 0.87953 0.0
O37 O 0.21602 0.01037 0.88495 0.0
O38 O 0.12182 0.09387 0.85706 0.0
O39 O 0.00642 0.09428 0.85545 0.0
C40 C 0.0464 0.10062 0.91104 0.0
C41 C 0.06152 0.09314 0.84779 0.0
C42 C 0.16352 0.99542 0.37612 0.0
C43 C 0.90928 0.99492 0.37534 0.0
O44 O 0.12355 0.94262 0.37427 0.0
Zn45 Zn 0.03622 0.99407 0.37534 0.0
O46 O 0.13685 0.05735 0.37777 0.0
Zn47 Zn 0.03495 0.10535 0.37848 0.0
O48 O 0.04318 0.15842 0.4017 0.0
O49 O 0.04666 0.04386 0.40225 0.0
O50 O 0.93457 0.0569 0.3771 0.0
O51 O 0.95015 0.94221 0.37374 0.0
O52 O 0.02441 0.041 0.35111 0.0
O53 O 0.02484 0.15575 0.35804 0.0
C54 C 0.04834 0.10621 0.41048 0.0
C55 C 0.02087 0.10278 0.34633 0.0
C56 C 0.08976 0.34684 0.12796 0.0
C57 C 0.14916 0.30391 0.13093 0.0
C58 C 0.09678 0.4183 0.12713 0.0
C59 C 0.21453 0.56755 0.14065 0.0
H60 H 0.0927 0.65134 0.10463 0.0
C61 C 0.21547 0.86525 0.13251 0.0
C62 C 0.14869 0.89654 0.12998 0.0
C63 C 0.22257 0.79228 0.1319 0.0
C64 C 0.12687 0.62883 0.11482 0.0
H65 H 0.26275 0.30285 0.13561 0.0
H66 H 0.27498 0.42862 0.13419 0.0
H67 H 0.09282 0.52487 0.10492 0.0
H68 H 0.03708 0.87558 0.12493 0.0
H69 H 0.04949 0.74934 0.12396 0.0
H70 H 0.2475 0.67216 0.15071 0.0
C71 C 0.22297 0.40645 0.13253 0.0
C72 C 0.12694 0.55638 0.11498 0.0
C73 C 0.21595 0.33448 0.13328 0.0
C74 C 0.08936 0.85339 0.12687 0.0
C75 C 0.09646 0.78082 0.12619 0.0
C76 C 0.21443 0.64035 0.14048 0.0
C77 C 0.16337 0.44892 0.12928 0.0
C78 C 0.16948 0.52504 0.12814 0.0
C79 C 0.16305 0.74931 0.12861 0.0
C80 C 0.16931 0.67184 0.12781 0.0
H81 H 0.03746 0.32527 0.12616 0.0
H82 H 0.04978 0.44979 0.12494 0.0
H83 H 0.24768 0.54491 0.15099 0.0
H84 H 0.26222 0.89703 0.13495 0.0
H85 H 0.27458 0.76944 0.13375 0.0
C86 C 0.27551 0.89741 0.62151 0.0
C87 C 0.24461 0.96362 0.62546 0.0
C88 C 0.3483 0.89061 0.62155 0.0
C89 C 0.51377 0.98411 0.63855 0.0
H90 H 0.59105 0.87156 0.59989 0.0
C91 C 0.79268 0.02495 0.62355 0.0
C92 C 0.83516 0.96566 0.61998 0.0
C93 C 0.72127 0.01794 0.62446 0.0
C94 C 0.57026 0.90244 0.61089 0.0
H95 H 0.26619 0.07447 0.63263 0.0
H96 H 0.39199 0.06269 0.63257 0.0
H97 H 0.46464 0.87088 0.60153 0.0
H98 H 0.83521 0.85239 0.61406 0.0
H99 H 0.70947 0.84022 0.61556 0.0
H100 H 0.61874 0.01693 0.64771 0.0
C101 C 0.36045 0.0158 0.62967 0.0
C102 C 0.49795 0.90198 0.61185 0.0
C103 C 0.28806 0.0226 0.62958 0.0
C104 C 0.80396 0.8991 0.61686 0.0
C105 C 0.73202 0.89212 0.61768 0.0
C106 C 0.5857 0.98472 0.63756 0.0
C107 C 0.39156 0.94984 0.62565 0.0
C108 C 0.46877 0.94406 0.62549 0.0
C109 C 0.69022 0.95148 0.62177 0.0
C110 C 0.61461 0.94513 0.62352 0.0
H111 H 0.24349 0.85093 0.61826 0.0
H112 H 0.37075 0.83902 0.61851 0.0
H113 H 0.49323 0.01584 0.64946 0.0
H114 H 0.8147 0.07709 0.62593 0.0
H115 H 0.69022 0.06479 0.6273 0.0
C116 C 0.11098 0.34475 0.88319 0.0
C117 C 0.17025 0.30229 0.88682 0.0
C118 C 0.11803 0.41617 0.88229 0.0
C119 C 0.2334 0.56722 0.89594 0.0
H120 H 0.12047 0.64415 0.85727 0.0
C121 C 0.23856 0.86196 0.8853 0.0
C122 C 0.17237 0.89283 0.8813 0.0
C123 C 0.24536 0.78917 0.88527 0.0
C124 C 0.15207 0.62364 0.86821 0.0
H125 H 0.28348 0.30226 0.89281 0.0
H126 H 0.29569 0.428 0.89132 0.0
H127 H 0.11936 0.51864 0.85903 0.0
H128 H 0.06157 0.87119 0.87405 0.0
H129 H 0.07338 0.74538 0.87412 0.0
H130 H 0.26485 0.67286 0.90531 0.0
C131 C 0.2438 0.40545 0.88916 0.0
C132 C 0.15144 0.55171 0.86921 0.0
C133 C 0.23679 0.3335 0.88998 0.0
C134 C 0.11343 0.84934 0.87714 0.0
C135 C 0.12024 0.77695 0.87706 0.0
C136 C 0.23387 0.63953 0.89497 0.0
C137 C 0.18447 0.44723 0.88502 0.0
C138 C 0.19086 0.52284 0.88328 0.0
C139 C 0.18618 0.74588 0.88112 0.0
C140 C 0.19196 0.66867 0.88129 0.0
H141 H 0.05885 0.32272 0.88078 0.0
H142 H 0.07119 0.4472 0.87941 0.0
H143 H 0.26414 0.54645 0.90696 0.0
H144 H 0.285 0.89401 0.88859 0.0
H145 H 0.29694 0.76674 0.88835 0.0
C146 C 0.28362 0.04596 0.3797 0.0
C147 C 0.24047 0.98662 0.37658 0.0
C148 C 0.35619 0.03886 0.38038 0.0
C149 C 0.49665 0.92093 0.36606 0.0
H150 H 0.61213 0.04243 0.40165 0.0
C151 C 0.80252 0.91935 0.37328 0.0
C152 C 0.8331 0.98614 0.37565 0.0
C153 C 0.73055 0.91234 0.37402 0.0
C154 C 0.58062 0.00834 0.39158 0.0
H155 H 0.23998 0.87309 0.37159 0.0
H156 H 0.36756 0.86074 0.37277 0.0
H157 H 0.48566 0.04255 0.40194 0.0
H158 H 0.81178 0.09784 0.38045 0.0
H159 H 0.68726 0.08554 0.38166 0.0
H160 H 0.5921 0.8877 0.35556 0.0
C161 C 0.34473 0.91275 0.37464 0.0
C162 C 0.50818 0.00842 0.39174 0.0
C163 C 0.27177 0.91985 0.37403 0.0
C164 C 0.7902 0.04554 0.37863 0.0
C165 C 0.71874 0.03853 0.37945 0.0
C166 C 0.56945 0.92082 0.3659 0.0
C167 C 0.3877 0.97227 0.37794 0.0
C168 C 0.46516 0.96602 0.37875 0.0
C169 C 0.68809 0.97194 0.37729 0.0
C170 C 0.61196 0.96583 0.37842 0.0
H171 H 0.26144 0.09823 0.38167 0.0
H172 H 0.38766 0.08584 0.38262 0.0
H173 H 0.46485 0.88789 0.35582 0.0
H174 H 0.83414 0.87255 0.37094 0.0
H175 H 0.70837 0.86033 0.37234 0.0
C176 C 0.96511 0.10213 0.93452 0.0
C177 C 0.03332 0.09731 0.92956 0.0
C178 C 0.95395 0.09604 0.952 0.0
C179 C 0.03675 0.02301 0.99174 0.0
H180 H 0.92687 0.16026 0.01824 0.0
C181 C 0.07709 0.06889 0.06716 0.0
C182 C 0.01889 0.08183 0.07656 0.0
C183 C 0.06921 0.06434 0.04876 0.0
C184 C 0.95665 0.12077 0.01093 0.0
H185 H 0.14318 0.08311 0.93913 0.0
H186 H 0.12364 0.07251 0.96933 0.0
H187 H 0.93006 0.16507 0.98659 0.0
H188 H 0.90645 0.09966 0.07393 0.0
H189 H 0.89276 0.09177 0.04156 0.0
H190 H 0.06467 0.97948 0.01599 0.0
C191 C 0.07873 0.08031 0.95975 0.0
C192 C 0.95852 0.12359 0.99283 0.0
C193 C 0.08991 0.08696 0.94244 0.0
C194 C 0.95233 0.08957 0.06707 0.0
C195 C 0.94449 0.08539 0.04856 0.0
C196 C 0.03475 0.02008 0.00974 0.0
C197 C 0.0107 0.08416 0.96471 0.0
C198 C 1.00034 0.07598 0.9832 0.0
C199 C 1.00298 0.07272 0.03923 0.0
C200 C 0.99645 0.07017 0.01966 0.0
H201 H 0.92041 0.11013 0.92491 0.0
H202 H 0.90095 0.09923 0.95548 0.0
H203 H 0.06821 0.98468 0.98456 0.0
H204 H 0.12914 0.06273 0.07401 0.0
H205 H 0.11554 0.05573 0.04201 0.0
C206 C 0.06791 0.05786 0.43944 0.0
C207 C 0.05519 0.11614 0.43006 0.0
C208 C 0.07244 0.06566 0.45784 0.0
C209 C 0.0164 0.17841 0.4957 0.0
H210 H 0.15208 0.06636 0.52205 0.0
C211 C 0.03526 0.17031 0.57212 0.0
C212 C 0.03994 0.10214 0.57712 0.0
C213 C 0.04129 0.1813 0.55463 0.0
C214 C 0.11385 0.09795 0.51488 0.0
H215 H 0.03774 0.22864 0.43272 0.0
H216 H 0.04561 0.24221 0.46509 0.0
H217 H 0.15722 0.06979 0.49061 0.0
H218 H 0.05379 0.99218 0.56758 0.0
H219 H 0.06427 0.01143 0.53736 0.0
H220 H 0.97227 0.20525 0.52006 0.0
C221 C 0.05181 0.19047 0.45807 0.0
C222 C 0.11675 0.09989 0.49687 0.0
C223 C 0.04765 0.1827 0.43957 0.0
C224 C 0.05006 0.04542 0.56425 0.0
C225 C 0.05664 0.05644 0.54692 0.0
C226 C 0.01361 0.1766 0.51381 0.0
C227 C 0.06427 0.13191 0.46739 0.0
C228 C 0.06682 0.13839 0.48696 0.0
C229 C 0.05294 0.12442 0.54193 0.0
C230 C 0.06107 0.13461 0.52343 0.0
H231 H 0.07391 0.0058 0.43258 0.0
H232 H 0.08087 0.01928 0.46458 0.0
H233 H 0.97702 0.20835 0.4884 0.0
H234 H 0.02743 0.2151 0.58172 0.0
H235 H 0.03822 0.23428 0.55113 0.0
C236 C 0.01318 0.17818 0.32157 0.0
C237 C 0.01311 0.11137 0.32726 0.0
C238 C 0.00785 0.18535 0.30351 0.0
C239 C 0.95511 0.08991 0.259 0.0
H240 H 0.08197 0.2171 0.24355 0.0
C241 C 0.95755 0.12359 0.1851 0.0
C242 C 0.02429 0.12378 0.17938 0.0
C243 C 0.95052 0.12879 0.20316 0.0
C244 C 0.04624 0.1813 0.24765 0.0
H245 H 0.00642 0.9998 0.31839 0.0
H246 H 0.99782 0.01235 0.28707 0.0
H247 H 0.07953 0.21253 0.27509 0.0
H248 H 0.13588 0.13055 0.1882 0.0
H249 H 0.12358 0.13892 0.21953 0.0
H250 H 0.92369 0.05681 0.23157 0.0
C251 C 1.00111 0.05927 0.2965 0.0
C252 C 0.04428 0.17925 0.26573 0.0
C253 C 0.0066 0.05209 0.3145 0.0
C254 C 0.08364 0.13028 0.19212 0.0
C255 C 0.0766 0.13564 0.21012 0.0
C256 C 0.95699 0.09204 0.24092 0.0
C257 C 1.00204 0.12591 0.29078 0.0
C258 C 0.99957 0.13265 0.27162 0.0
C259 C 0.01004 0.13458 0.21587 0.0
C260 C 1.00346 0.13688 0.23504 0.0
H261 H 0.01795 0.22491 0.33105 0.0
H262 H 0.00812 0.23746 0.29952 0.0
H263 H 0.91941 0.05407 0.26311 0.0
H264 H 0.91076 0.11883 0.17564 0.0
H265 H 0.89846 0.12843 0.20718 0.0
C266 C 0.04831 0.01749 0.68659 0.0
C267 C 0.04529 0.07918 0.67838 0.0
C268 C 0.04852 0.02058 0.70485 0.0
C269 C 1.00254 0.13362 0.74419 0.0
H270 H 0.12897 0.00923 0.76929 0.0
C271 C 0.99235 0.09505 0.81779 0.0
C272 C 0.05726 0.09215 0.82835 0.0
C273 C 0.98946 0.09496 0.79945 0.0
C274 C 0.09362 0.04461 0.76251 0.0
H275 H 0.03976 0.19266 0.68298 0.0
H276 H 0.04066 0.19802 0.71504 0.0
H277 H 0.12819 0.00823 0.73752 0.0
H278 H 0.17001 0.08733 0.82789 0.0
H279 H 0.16484 0.08745 0.79611 0.0
H280 H 0.96878 0.17062 0.76934 0.0
C281 C 0.04226 0.14724 0.70723 0.0
C282 C 0.09268 0.04354 0.74427 0.0
C283 C 0.04223 0.14417 0.68889 0.0
C284 C 0.11905 0.08926 0.82018 0.0
C285 C 0.11614 0.08899 0.80192 0.0
C286 C 1.00332 0.13453 0.76249 0.0
C287 C 0.0457 0.0854 0.71541 0.0
C288 C 0.04711 0.08793 0.73488 0.0
C289 C 0.05139 0.09164 0.79132 0.0
C290 C 0.04905 0.09013 0.77185 0.0
H291 H 0.05036 0.96647 0.67891 0.0
H292 H 0.05016 0.97194 0.71069 0.0
H293 H 0.96641 0.16801 0.73731 0.0
H294 H 0.94379 0.09742 0.82367 0.0
H295 H 0.93874 0.09643 0.79162 0.0
loop_
_geom_bond_atom_site_label_1
_geom_bond_atom_site_label_2
_geom_bond_distance
_geom_bond_site_symmetry_2
_ccdc_geom_bond_type
C0 O2 1.247 . S
C0 O4 1.258 . S
C1 O8 1.247 . S
C1 O9 1.258 . S
O2 C0 1.247 . S
O2 Zn3 2.028 . S
Zn3 O2 2.028 . S
Zn3 O7 2.035 . S
Zn3 O9 2.035 1_545 S
Zn3 O10 2.028 . S
O4 C0 1.258 . S
O4 Zn5 2.035 1_455 S
Zn5 O4 2.035 1_655 S
Zn5 O6 2.028 1_655 S
Zn5 O8 2.028 1_645 S
Zn5 O11 2.035 1_655 S
O6 Zn5 2.028 1_455 S
O6 C12 1.247 . S
O7 Zn3 2.035 . S
O7 C12 1.258 . S
O8 C1 1.247 . S
O8 Zn5 2.028 1_465 S
O9 C1 1.258 . S
O9 Zn3 2.035 1_565 S
O10 Zn3 2.028 . S
O10 C13 1.247 . S
O11 Zn5 2.035 1_455 S
O11 C13 1.258 . S
C12 O6 1.247 . S
C12 O7 1.258 . S
C13 O10 1.247 . S
C13 O11 1.258 . S
C14 O16 1.247 . S
C14 O18 1.258 . S
C15 O22 1.247 . S
C15 O23 1.258 . S
O16 C14 1.247 . S
O16 Zn17 2.028 1_545 S
Zn17 O16 2.028 1_565 S
Zn17 O21 2.035 1_565 S
Zn17 O23 2.035 1_465 S
Zn17 O24 2.028 1_565 S
O18 C14 1.258 . S
O18 Zn19 2.035 . S
Zn19 O18 2.035 . S
Zn19 O20 2.028 . S
Zn19 O22 2.028 1_455 S
Zn19 O25 2.035 . S
O20 Zn19 2.028 . S
O20 C26 1.247 . S
O21 Zn17 2.035 1_545 S
O21 C26 1.258 . S
O22 C15 1.247 . S
O22 Zn19 2.028 1_655 S
O23 C15 1.258 . S
O23 Zn17 2.035 1_645 S
O24 Zn17 2.028 1_545 S
O24 C27 1.247 . S
O25 Zn19 2.035 . S
O25 C27 1.258 . S
C26 O20 1.247 . S
C26 O21 1.258 . S
C27 O24 1.247 . S
C27 O25 1.258 . S
C28 O30 1.247 . S
C28 O32 1.264 . S
C29 O36 1.252 . S
C29 O37 1.258 . S
O30 C28 1.247 . S
O30 Zn31 2.028 . S
Zn31 O30 2.028 . S
Zn31 O35 2.035 . S
Zn31 O37 2.035 1_545 S
Zn31 O38 2.028 . S
O32 C28 1.264 . S
O32 Zn33 2.034 1_455 S
Zn33 O32 2.034 1_655 S
Zn33 O34 2.027 1_655 S
Zn33 O36 2.027 1_645 S
Zn33 O39 2.035 1_655 S
O34 Zn33 2.027 1_455 S
O34 C40 1.258 . S
O35 Zn31 2.035 . S
O35 C40 1.258 . S
O36 C29 1.252 . S
O36 Zn33 2.027 1_465 S
O37 C29 1.258 . S
O37 Zn31 2.035 1_565 S
O38 Zn31 2.028 . S
O38 C41 1.247 . S
O39 Zn33 2.035 1_455 S
O39 C41 1.258 . S
C40 O34 1.258 . S
C40 O35 1.258 . S
C41 O38 1.247 . S
C41 O39 1.258 . S
C42 O44 1.253 . S
C42 O46 1.258 . S
C43 O50 1.247 . S
C43 O51 1.263 . S
O44 C42 1.253 . S
O44 Zn45 2.027 1_545 S
Zn45 O44 2.027 1_565 S
Zn45 O49 2.035 1_565 S
Zn45 O51 2.034 1_465 S
Zn45 O52 2.028 1_565 S
O46 C42 1.258 . S
O46 Zn47 2.035 . S
Zn47 O46 2.035 . S
Zn47 O48 2.028 . S
Zn47 O50 2.028 1_455 S
Zn47 O53 2.035 . S
O48 Zn47 2.028 . S
O48 C54 1.247 . S
O49 Zn45 2.035 1_545 S
O49 C54 1.269 . S
O50 C43 1.247 . S
O50 Zn47 2.028 1_655 S
O51 C43 1.263 . S
O51 Zn45 2.034 1_645 S
O52 Zn45 2.028 1_545 S
O52 C55 1.246 . S
O53 Zn47 2.035 . S
O53 C55 1.258 . S
C54 O48 1.247 . S
C54 O49 1.269 . S
C55 O52 1.246 . S
C55 O53 1.258 . S
C56 C57 1.349 . S
C56 C58 1.327 . S
C56 H81 0.950 . S
C57 C56 1.349 . S
C57 C73 1.349 . S
C58 C56 1.327 . S
C58 C77 1.429 . S
C58 H82 0.950 . S
C59 C76 1.574 . S
C59 C78 1.368 . S
C59 H83 0.949 . S
H60 C64 0.949 . S
C61 C62 1.349 . S
C61 C63 1.327 . S
C61 H84 0.950 . S
C62 C61 1.349 . S
C62 C74 1.349 . S
C63 C61 1.327 . S
C63 C79 1.429 . S
C63 H85 0.950 . S
C64 H60 0.949 . S
C64 C72 1.574 . S
C64 C80 1.368 . S
H65 C73 0.950 . S
H66 C71 0.950 . S
H67 C72 0.949 . S
H68 C74 0.950 . S
H69 C75 0.950 . S
H70 C76 0.949 . S
C71 H66 0.950 . S
C71 C73 1.327 . S
C71 C77 1.429 . S
C72 C64 1.574 . S
C72 H67 0.949 . S
C72 C78 1.368 . S
C73 C57 1.349 . S
C73 H65 0.950 . S
C73 C71 1.327 . S
C74 C62 1.349 . S
C74 H68 0.950 . S
C74 C75 1.327 . S
C75 H69 0.950 . S
C75 C74 1.327 . S
C75 C79 1.429 . S
C76 C59 1.574 . S
C76 H70 0.949 . S
C76 C80 1.368 . S
C77 C58 1.429 . S
C77 C71 1.429 . S
C77 C78 1.523 . S
C78 C59 1.368 . S
C78 C72 1.368 . S
C78 C77 1.523 . S
C79 C63 1.429 . S
C79 C75 1.429 . S
C79 C80 1.523 . S
C80 C64 1.368 . S
C80 C76 1.368 . S
C80 C79 1.523 . S
H81 C56 0.950 . S
H82 C58 0.950 . S
H83 C59 0.949 . S
H84 C61 0.950 . S
H85 C63 0.950 . S
C86 C87 1.349 . S
C86 C88 1.327 . S
C86 H111 0.950 1_545 S
C87 C86 1.349 . S
C87 C103 1.349 . S
C88 C86 1.327 . S
C88 C107 1.429 . S
C88 H112 0.950 1_545 S
C89 C106 1.574 . S
C89 C108 1.368 . S
C89 H113 0.949 . S
H90 C94 0.949 1_565 S
C91 C92 1.349 . S
C91 C93 1.327 . S
C91 H114 0.950 . S
C92 C91 1.349 . S
C92 C104 1.349 . S
C93 C91 1.327 . S
C93 C109 1.429 . S
C93 H115 0.950 . S
C94 H90 0.949 1_545 S
C94 C102 1.574 . S
C94 C110 1.368 . S
H95 C103 0.950 . S
H96 C101 0.950 . S
H97 C102 0.949 1_565 S
H98 C104 0.950 1_565 S
H99 C105 0.950 1_565 S
H100 C106 0.949 . S
C101 H96 0.950 . S
C101 C103 1.327 . S
C101 C107 1.429 . S
C102 C94 1.574 . S
C102 H97 0.949 1_545 S
C102 C108 1.368 . S
C103 C87 1.349 . S
C103 H95 0.950 . S
C103 C101 1.327 . S
C104 C92 1.349 . S
C104 H98 0.950 1_545 S
C104 C105 1.327 . S
C105 H99 0.950 1_545 S
C105 C104 1.327 . S
C105 C109 1.429 . S
C106 C89 1.574 . S
C106 H100 0.949 . S
C106 C110 1.368 . S
C107 C88 1.429 . S
C107 C101 1.429 . S
C107 C108 1.523 . S
C108 C89 1.368 . S
C108 C102 1.368 . S
C108 C107 1.523 . S
C109 C93 1.429 . S
C109 C105 1.429 . S
C109 C110 1.523 . S
C110 C94 1.368 . S
C110 C106 1.368 . S
C110 C109 1.523 . S
H111 C86 0.950 1_565 S
H112 C88 0.950 1_565 S
H113 C89 0.949 . S
H114 C91 0.950 . S
H115 C93 0.950 . S
C116 C117 1.349 . S
C116 C118 1.327 . S
C116 H141 0.950 . S
C117 C116 1.349 . S
C117 C133 1.349 . S
C118 C116 1.327 . S
C118 C137 1.429 . S
C118 H142 0.950 . S
C119 C136 1.574 . S
C119 C138 1.368 . S
C119 H143 0.949 . S
H120 C124 0.949 . S
C121 C122 1.349 . S
C121 C123 1.327 . S
C121 H144 0.950 . S
C122 C121 1.349 . S
C122 C134 1.349 . S
C123 C121 1.327 . S
C123 C139 1.429 . S
C123 H145 0.950 . S
C124 H120 0.949 . S
C124 C132 1.574 . S
C124 C140 1.368 . S
H125 C133 0.950 . S
H126 C131 0.950 . S
H127 C132 0.949 . S
H128 C134 0.950 . S
H129 C135 0.950 . S
H130 C136 0.949 . S
C131 H126 0.950 . S
C131 C133 1.327 . S
C131 C137 1.429 . S
C132 C124 1.574 . S
C132 H127 0.949 . S
C132 C138 1.368 . S
C133 C117 1.349 . S
C133 H125 0.950 . S
C133 C131 1.327 . S
C134 C122 1.349 . S
C134 H128 0.950 . S
C134 C135 1.327 . S
C135 H129 0.950 . S
C135 C134 1.327 . S
C135 C139 1.429 . S
C136 C119 1.574 . S
C136 H130 0.949 . S
C136 C140 1.368 . S
C137 C118 1.429 . S
C137 C131 1.429 . S
C137 C138 1.523 . S
C138 C119 1.368 . S
C138 C132 1.368 . S
C138 C137 1.523 . S
C139 C123 1.429 . S
C139 C135 1.429 . S
C139 C140 1.523 . S
C140 C124 1.368 . S
C140 C136 1.368 . S
C140 C139 1.523 . S
H141 C116 0.950 . S
H142 C118 0.950 . S
H143 C119 0.949 . S
H144 C121 0.950 . S
H145 C123 0.950 . S
C146 C147 1.349 . S
C146 C148 1.327 . S
C146 H171 0.950 . S
C147 C146 1.349 . S
C147 C163 1.349 . S
C148 C146 1.327 . S
C148 C167 1.429 . S
C148 H172 0.950 . S
C149 C166 1.574 . S
C149 C168 1.368 . S
C149 H173 0.949 1_545 S
H150 C154 0.949 . S
C151 C152 1.349 . S
C151 C153 1.327 . S
C151 H174 0.950 1_545 S
C152 C151 1.349 . S
C152 C164 1.349 . S
C153 C151 1.327 . S
C153 C169 1.429 . S
C153 H175 0.950 1_545 S
C154 H150 0.949 . S
C154 C162 1.574 . S
C154 C170 1.368 . S
H155 C163 0.950 1_565 S
H156 C161 0.950 1_565 S
H157 C162 0.949 . S
H158 C164 0.950 . S
H159 C165 0.950 . S
H160 C166 0.949 1_565 S
C161 H156 0.950 1_545 S
C161 C163 1.327 . S
C161 C167 1.429 . S
C162 C154 1.574 . S
C162 H157 0.949 . S
C162 C168 1.368 . S
C163 C147 1.349 . S
C163 H155 0.950 1_545 S
C163 C161 1.327 . S
C164 C152 1.349 . S
C164 H158 0.950 . S
C164 C165 1.327 . S
C165 H159 0.950 . S
C165 C164 1.327 . S
C165 C169 1.429 . S
C166 C149 1.574 . S
C166 H160 0.949 1_545 S
C166 C170 1.368 . S
C167 C148 1.429 . S
C167 C161 1.429 . S
C167 C168 1.523 . S
C168 C149 1.368 . S
C168 C162 1.368 . S
C168 C167 1.523 . S
C169 C153 1.429 . S
C169 C165 1.429 . S
C169 C170 1.523 . S
C170 C154 1.368 . S
C170 C166 1.368 . S
C170 C169 1.523 . S
H171 C146 0.950 . S
H172 C148 0.950 . S
H173 C149 0.949 1_565 S
H174 C151 0.950 1_565 S
H175 C153 0.950 1_565 S
C176 C177 1.349 . S
C176 C178 1.327 . S
C176 H201 0.952 . S
C177 C176 1.349 . S
C177 C193 1.349 . S
C178 C176 1.327 . S
C178 C197 1.429 . S
C178 H202 0.952 . S
C179 C196 1.574 1_556 S
C179 C198 1.368 . S
C179 H203 0.949 1_545 S
H180 C184 0.949 . S
C181 C182 1.349 . S
C181 C183 1.327 . S
C181 H204 0.950 1_545 S
C182 C181 1.349 . S
C182 C194 1.349 . S
C183 C181 1.327 . S
C183 C199 1.429 . S
C183 H205 0.950 1_545 S
C184 H180 0.949 . S
C184 C192 1.574 1_554 S
C184 C200 1.368 . S
H185 C193 0.950 1_565 S
H186 C191 0.950 1_565 S
H187 C192 0.949 . S
H188 C194 0.950 . S
H189 C195 0.950 . S
H190 C196 0.949 1_565 S
C191 H186 0.950 1_545 S
C191 C193 1.327 . S
C191 C197 1.429 . S
C192 C184 1.574 1_556 S
C192 H187 0.949 . S
C192 C198 1.368 . S
C193 C177 1.349 . S
C193 H185 0.950 1_545 S
C193 C191 1.327 . S
C194 C182 1.349 . S
C194 H188 0.950 . S
C194 C195 1.327 . S
C195 H189 0.950 . S
C195 C194 1.327 . S
C195 C199 1.429 . S
C196 C179 1.574 1_554 S
C196 H190 0.949 1_545 S
C196 C200 1.368 . S
C197 C178 1.429 . S
C197 C191 1.429 . S
C197 C198 1.523 . S
C198 C179 1.368 . S
C198 C192 1.368 . S
C198 C197 1.523 . S
C199 C183 1.429 . S
C199 C195 1.429 . S
C199 C200 1.523 . S
C200 C184 1.368 . S
C200 C196 1.368 . S
C200 C199 1.523 . S
H201 C176 0.952 . S
H202 C178 0.952 . S
H203 C179 0.949 1_565 S
H204 C181 0.950 1_565 S
H205 C183 0.950 1_565 S
C206 C207 1.349 . S
C206 C208 1.327 . S
C206 H231 0.950 1_545 S
C207 C206 1.349 . S
C207 C223 1.349 . S
C208 C206 1.327 . S
C208 C227 1.429 . S
C208 H232 0.950 1_545 S
C209 C226 1.574 . S
C209 C228 1.368 . S
C209 H233 0.949 . S
H210 C214 0.949 1_565 S
C211 C212 1.349 . S
C211 C213 1.327 . S
C211 H234 0.950 . S
C212 C211 1.349 . S
C212 C224 1.349 . S
C213 C211 1.327 . S
C213 C229 1.429 . S
C213 H235 0.950 . S
C214 H210 0.949 1_545 S
C214 C222 1.574 . S
C214 C230 1.368 . S
H215 C223 0.950 . S
H216 C221 0.950 . S
H217 C222 0.949 1_565 S
H218 C224 0.950 1_565 S
H219 C225 0.950 1_565 S
H220 C226 0.949 . S
C221 H216 0.950 . S
C221 C223 1.327 . S
C221 C227 1.429 . S
C222 C214 1.574 . S
C222 H217 0.949 1_545 S
C222 C228 1.368 . S
C223 C207 1.349 . S
C223 H215 0.950 . S
C223 C221 1.327 . S
C224 C212 1.349 . S
C224 H218 0.950 1_545 S
C224 C225 1.327 . S
C225 H219 0.950 1_545 S
C225 C224 1.327 . S
C225 C229 1.429 . S
C226 C209 1.574 . S
C226 H220 0.949 . S
C226 C230 1.368 . S
C227 C208 1.429 . S
C227 C221 1.429 . S
C227 C228 1.523 . S
C228 C209 1.368 . S
C228 C222 1.368 . S
C228 C227 1.523 . S
C229 C213 1.429 . S
C229 C225 1.429 . S
C229 C230 1.523 . S
C230 C214 1.368 . S
C230 C226 1.368 . S
C230 C229 1.523 . S
H231 C206 0.950 1_565 S
H232 C208 0.950 1_565 S
H233 C209 0.949 . S
H234 C211 0.950 . S
H235 C213 0.950 . S
C236 C237 1.349 . S
C236 C238 1.327 . S
C236 H261 0.950 . S
C237 C236 1.349 . S
C237 C253 1.349 . S
C238 C236 1.327 . S
C238 C257 1.429 . S
C238 H262 0.950 . S
C239 C256 1.574 . S
C239 C258 1.368 . S
C239 H263 0.949 1_545 S
H240 C244 0.949 . S
C241 C242 1.349 . S
C241 C243 1.327 . S
C241 H264 0.950 1_545 S
C242 C241 1.349 . S
C242 C254 1.349 . S
C243 C241 1.327 . S
C243 C259 1.429 . S
C243 H265 0.950 1_545 S
C244 H240 0.949 . S
C244 C252 1.574 . S
C244 C260 1.368 . S
H245 C253 0.950 1_565 S
H246 C251 0.950 1_565 S
H247 C252 0.949 . S
H248 C254 0.950 . S
H249 C255 0.950 . S
H250 C256 0.949 1_565 S
C251 H246 0.950 1_545 S
C251 C253 1.327 . S
C251 C257 1.429 . S
C252 C244 1.574 . S
C252 H247 0.949 . S
C252 C258 1.368 . S
C253 C237 1.349 . S
C253 H245 0.950 1_545 S
C253 C251 1.327 . S
C254 C242 1.349 . S
C254 H248 0.950 . S
C254 C255 1.327 . S
C255 H249 0.950 . S
C255 C254 1.327 . S
C255 C259 1.429 . S
C256 C239 1.574 . S
C256 H250 0.949 1_545 S
C256 C260 1.368 . S
C257 C238 1.429 . S
C257 C251 1.429 . S
C257 C258 1.523 . S
C258 C239 1.368 . S
C258 C252 1.368 . S
C258 C257 1.523 . S
C259 C243 1.429 . S
C259 C255 1.429 . S
C259 C260 1.523 . S
C260 C244 1.368 . S
C260 C256 1.368 . S
C260 C259 1.523 . S
H261 C236 0.950 . S
H262 C238 0.950 . S
H263 C239 0.949 1_565 S
H264 C241 0.950 1_565 S
H265 C243 0.950 1_565 S
C266 C267 1.349 . S
C266 C268 1.327 . S
C266 H291 0.950 1_545 S
C267 C266 1.349 . S
C267 C283 1.349 . S
C268 C266 1.327 . S
C268 C287 1.429 . S
C268 H292 0.950 1_545 S
C269 C286 1.574 . S
C269 C288 1.368 . S
C269 H293 0.949 1_455 S
H270 C274 0.949 1_565 S
C271 C272 1.349 . S
C271 C273 1.327 . S
C271 H294 0.950 1_455 S
C272 C271 1.349 . S
C272 C284 1.349 . S
C273 C271 1.327 . S
C273 C289 1.429 . S
C273 H295 0.950 1_455 S
C274 H270 0.949 1_545 S
C274 C282 1.574 . S
C274 C290 1.368 . S
H275 C283 0.946 1_655 S
H276 C281 0.950 1_655 S
H277 C282 0.949 1_565 S
H278 C284 0.950 1_565 S
H279 C285 0.950 1_565 S
H280 C286 0.949 1_655 S
C281 H276 0.950 1_455 S
C281 C283 1.327 . S
C281 C287 1.429 . S
C282 C274 1.574 . S
C282 H277 0.949 1_545 S
C282 C288 1.368 . S
C283 C267 1.349 . S
C283 H275 0.946 1_455 S
C283 C281 1.327 . S
C284 C272 1.349 . S
C284 H278 0.950 1_545 S
C284 C285 1.327 . S
C285 H279 0.950 1_545 S
C285 C284 1.327 . S
C285 C289 1.429 . S
C286 C269 1.574 . S
C286 H280 0.949 1_455 S
C286 C290 1.368 . S
C287 C268 1.429 . S
C287 C281 1.429 . S
C287 C288 1.523 . S
C288 C269 1.368 . S
C288 C282 1.368 . S
C288 C287 1.523 . S
C289 C273 1.429 . S
C289 C285 1.429 . S
C289 C290 1.523 . S
C290 C274 1.368 . S
C290 C286 1.368 . S
C290 C289 1.523 . S
H291 C266 0.950 1_565 S
H292 C268 0.950 1_565 S
H293 C269 0.949 1_655 S
H294 C271 0.950 1_655 S
H295 C273 0.950 1_655 S
C57 C0 1.498 . S
C62 C1 1.498 . S
C87 C14 1.498 . S
C92 C15 1.498 . S
C117 C28 1.498 . S
C122 C29 1.498 . S
C147 C42 1.498 . S
C152 C43 1.498 . S
C177 C40 1.499 . S
C182 C13 1.499 . S
C207 C54 1.499 . S
C212 C27 1.499 . S
C237 C55 1.499 . S
C242 C12 1.499 . S
C267 C26 1.499 . S
C272 C41 1.499 . S
