# Generated by pormake.
# Topology lcy-e, (6)-cn, num edge types: 1
# Building blocks:
#     Node 0, Type 0, BuildingBlock: BETFAJ_clean_sbu_0, # of connection points: 6
#     Node 1, Type 0, BuildingBlock: BETFAJ_clean_sbu_0, # of connection points: 6
#     Node 2, Type 0, BuildingBlock: BETFAJ_clean_sbu_0, # of connection points: 6
#     Node 3, Type 0, BuildingBlock: BETFAJ_clean_sbu_0, # of connection points: 6
#     Node 4, Type 0, BuildingBlock: BETFAJ_clean_sbu_0, # of connection points: 6
#     Node 5, Type 0, BuildingBlock: BETFAJ_clean_sbu_0, # of connection points: 6
#     Node 6, Type 0, BuildingBlock: BETFAJ_clean_sbu_0, # of connection points: 6
#     Node 7, Type 0, BuildingBlock: BETFAJ_clean_sbu_0, # of connection points: 6
#     Node 8, Type 0, BuildingBlock: BETFAJ_clean_sbu_0, # of connection points: 6
#     Node 9, Type 0, BuildingBlock: BETFAJ_clean_sbu_0, # of connection points: 6
#     Node 10, Type 0, BuildingBlock: BETFAJ_clean_sbu_0, # of connection points: 6
#     Node 11, Type 0, BuildingBlock: BETFAJ_clean_sbu_0, # of connection points: 6
#     Edge 12, Type (0, 0), BuildingBlock: OJICUG_clean_linker_0, # of connection points: 2
#     Edge 13, Type (0, 0), BuildingBlock: OJICUG_clean_linker_0, # of connection points: 2
#     Edge 14, Type (0, 0), BuildingBlock: OJICUG_clean_linker_0, # of connection points: 2
#     Edge 15, Type (0, 0), BuildingBlock: OJICUG_clean_linker_0, # of connection points: 2
#     Edge 16, Type (0, 0), BuildingBlock: OJICUG_clean_linker_0, # of connection points: 2
#     Edge 17, Type (0, 0), BuildingBlock: OJICUG_clean_linker_0, # of connection points: 2
#     Edge 18, Type (0, 0), BuildingBlock: OJICUG_clean_linker_0, # of connection points: 2
#     Edge 19, Type (0, 0), BuildingBlock: OJICUG_clean_linker_0, # of connection points: 2
#     Edge 20, Type (0, 0), BuildingBlock: OJICUG_clean_linker_0, # of connection points: 2
#     Edge 21, Type (0, 0), BuildingBlock: OJICUG_clean_linker_0, # of connection points: 2
#     Edge 22, Type (0, 0), BuildingBlock: OJICUG_clean_linker_0, # of connection points: 2
#     Edge 23, Type (0, 0), BuildingBlock: OJICUG_clean_linker_0, # of connection points: 2
#     Edge 24, Type (0, 0), BuildingBlock: OJICUG_clean_linker_0, # of connection points: 2
#     Edge 25, Type (0, 0), BuildingBlock: OJICUG_clean_linker_0, # of connection points: 2
#     Edge 26, Type (0, 0), BuildingBlock: OJICUG_clean_linker_0, # of connection points: 2
#     Edge 27, Type (0, 0), BuildingBlock: OJICUG_clean_linker_0, # of connection points: 2
#     Edge 28, Type (0, 0), BuildingBlock: OJICUG_clean_linker_0, # of connection points: 2
#     Edge 29, Type (0, 0), BuildingBlock: OJICUG_clean_linker_0, # of connection points: 2
#     Edge 30, Type (0, 0), BuildingBlock: OJICUG_clean_linker_0, # of connection points: 2
#     Edge 31, Type (0, 0), BuildingBlock: OJICUG_clean_linker_0, # of connection points: 2
#     Edge 32, Type (0, 0), BuildingBlock: OJICUG_clean_linker_0, # of connection points: 2
#     Edge 33, Type (0, 0), BuildingBlock: OJICUG_clean_linker_0, # of connection points: 2
#     Edge 34, Type (0, 0), BuildingBlock: OJICUG_clean_linker_0, # of connection points: 2
#     Edge 35, Type (0, 0), BuildingBlock: OJICUG_clean_linker_0, # of connection points: 2
#     Edge 36, Type (0, 0), BuildingBlock: OJICUG_clean_linker_0, # of connection points: 2
#     Edge 37, Type (0, 0), BuildingBlock: OJICUG_clean_linker_0, # of connection points: 2
#     Edge 38, Type (0, 0), BuildingBlock: OJICUG_clean_linker_0, # of connection points: 2
#     Edge 39, Type (0, 0), BuildingBlock: OJICUG_clean_linker_0, # of connection points: 2
#     Edge 40, Type (0, 0), BuildingBlock: OJICUG_clean_linker_0, # of connection points: 2
#     Edge 41, Type (0, 0), BuildingBlock: OJICUG_clean_linker_0, # of connection points: 2
#     Edge 42, Type (0, 0), BuildingBlock: OJICUG_clean_linker_0, # of connection points: 2
#     Edge 43, Type (0, 0), BuildingBlock: OJICUG_clean_linker_0, # of connection points: 2
#     Edge 44, Type (0, 0), BuildingBlock: OJICUG_clean_linker_0, # of connection points: 2
#     Edge 45, Type (0, 0), BuildingBlock: OJICUG_clean_linker_0, # of connection points: 2
#     Edge 46, Type (0, 0), BuildingBlock: OJICUG_clean_linker_0, # of connection points: 2
#     Edge 47, Type (0, 0), BuildingBlock: OJICUG_clean_linker_0, # of connection points: 2
# Relax obj value: 0.203
# Max RMSD: 0.321
# Mean RMSD: 0.298
data_MOF--net-lcy-e--node1-BETFAJ_clean_sbu_0--edge1-OJICUG_clean_linker_0
_symmetry_space_group_name_H-M    P1
_symmetry_Int_Tables_number       1
_symmetry_cell_setting            triclinic
loop_
_symmetry_equiv_pos_as_xyz
'x, y, z'
_cell_length_a     35.289987
_cell_length_b     32.994319
_cell_length_c     35.451347
_cell_angle_alpha  89.558385
_cell_angle_beta   90.800603
_cell_angle_gamma 88.102951
loop_
_atom_site_label
_atom_site_type_symbol
_atom_site_fract_x
_atom_site_fract_y
_atom_site_fract_z
_atom_type_partial_charge
Sm0 Sm 0.14442 0.2974 0.48598 0.0
Sm1 Sm 0.16291 0.22782 0.53792 0.0
C2 C 0.1311 0.36451 0.4454 0.0
C3 C 0.14528 0.37795 0.40858 0.0
C4 C 0.17746 0.35885 0.39285 0.0
C5 C 0.19017 0.37063 0.35732 0.0
C6 C 0.17084 0.4017 0.33668 0.0
C7 C 0.13866 0.42086 0.35272 0.0
C8 C 0.126 0.40903 0.38829 0.0
C9 C 0.10263 0.22941 0.47282 0.0
C10 C 0.20942 0.23366 0.45875 0.0
C11 C 0.17384 0.15614 0.57142 0.0
C12 C 0.15335 0.12586 0.59299 0.0
C13 C 0.11452 0.13094 0.60043 0.0
C14 C 0.09596 0.10169 0.6216 0.0
C15 C 0.11606 0.06709 0.63571 0.0
C16 C 0.15482 0.06206 0.62746 0.0
C17 C 0.17324 0.09117 0.60639 0.0
C18 C 0.20397 0.29639 0.5525 0.0
C19 C 0.10455 0.29109 0.56916 0.0
O20 O 0.15601 0.36179 0.47291 0.0
O21 O 0.10904 0.33357 0.44455 0.0
O22 O 0.10954 0.24413 0.50477 0.0
O23 O 0.11895 0.2498 0.4466 0.0
O24 O 0.19735 0.27184 0.45565 0.0
O25 O 0.1961 0.20974 0.48499 0.0
O26 O 0.16429 0.16059 0.53581 0.0
O27 O 0.18 0.19054 0.58815 0.0
O28 O 0.19672 0.28254 0.52027 0.0
O29 O 0.19197 0.2721 0.57834 0.0
O30 O 0.10886 0.25175 0.56493 0.0
O31 O 0.12014 0.31617 0.54486 0.0
H32 H 0.19265 0.33458 0.40794 0.0
H33 H 0.21475 0.35492 0.34576 0.0
H34 H 0.12342 0.44532 0.33794 0.0
H35 H 0.10108 0.42409 0.3999 0.0
H36 H 0.09872 0.1576 0.59015 0.0
H37 H 0.06617 0.10659 0.62765 0.0
H38 H 0.17101 0.03547 0.63727 0.0
H39 H 0.20316 0.08665 0.60065 0.0
Sm40 Sm 0.988 0.87717 0.75159 0.0
Sm41 Sm 0.05213 0.88837 0.80671 0.0
C42 C 0.92537 0.87248 0.70987 0.0
C43 C 0.91345 0.8872 0.67161 0.0
C44 C 0.88933 0.92183 0.66756 0.0
C45 C 0.87768 0.93595 0.63174 0.0
C46 C 0.88957 0.91557 0.59906 0.0
C47 C 0.91417 0.88129 0.6031 0.0
C48 C 0.92598 0.86729 0.6389 0.0
C49 C 0.05305 0.8329 0.73453 0.0
C50 C 0.04785 0.94486 0.72921 0.0
C51 C 0.11842 0.89512 0.84215 0.0
C52 C 0.14987 0.87362 0.86278 0.0
C53 C 0.16509 0.83594 0.85097 0.0
C54 C 0.19781 0.81885 0.8686 0.0
C55 C 0.21601 0.83931 0.89812 0.0
C56 C 0.19975 0.87627 0.9106 0.0
C57 C 0.16714 0.89319 0.89311 0.0
C58 C 0.98551 0.9332 0.82088 0.0
C59 C 0.99298 0.82747 0.83331 0.0
O60 O 0.93023 0.90029 0.73532 0.0
O61 O 0.95116 0.84311 0.71226 0.0
O62 O 0.03963 0.83621 0.76736 0.0
O63 O 0.03243 0.85362 0.71023 0.0
O64 O 1.01314 0.93267 0.72272 0.0
O65 O 0.06872 0.92966 0.75739 0.0
O66 O 0.11487 0.88834 0.80599 0.0
O67 O 0.0859 0.90019 0.85904 0.0
O68 O 1.00118 0.92813 0.78962 0.0
O69 O 1.00697 0.91648 0.84709 0.0
O70 O 0.02987 0.83005 0.83028 0.0
O71 O 0.97 0.84644 0.8084 0.0
H72 H 0.87907 0.93781 0.69218 0.0
H73 H 0.85822 0.96198 0.62973 0.0
H74 H 0.924 0.86499 0.57851 0.0
H75 H 0.94469 0.84064 0.64086 0.0
H76 H 0.1523 0.82023 0.82754 0.0
H77 H 0.20958 0.79037 0.8583 0.0
H78 H 0.21249 0.89244 0.93376 0.0
H79 H 0.15594 0.92224 0.9027 0.0
Sm80 Sm 0.3895 0.76657 0.04725 0.0
Sm81 Sm 0.40307 0.70263 0.98791 0.0
C82 C 0.38301 0.81226 0.10857 0.0
C83 C 0.39521 0.85191 0.12211 0.0
C84 C 0.41942 0.87557 0.10061 0.0
C85 C 0.43615 0.90959 0.11646 0.0
C86 C 0.42904 0.92044 0.15412 0.0
C87 C 0.40386 0.89711 0.17504 0.0
C88 C 0.38718 0.86325 0.15918 0.0
C89 C 0.35078 0.78289 0.98032 0.0
C90 C 0.4553 0.78382 0.98751 0.0
C91 C 0.41345 0.66269 0.9238 0.0
C92 C 0.39523 0.65168 0.88752 0.0
C93 C 0.36453 0.62564 0.88565 0.0
C94 C 0.35025 0.61323 0.8506 0.0
C95 C 0.36645 0.62644 0.81672 0.0
C96 C 0.39639 0.65345 0.8188 0.0
C97 C 0.41062 0.66579 0.85372 0.0
C98 C 0.44136 0.68755 0.05628 0.0
C99 C 0.34088 0.68158 0.04415 0.0
O100 O 0.41068 0.78606 0.10294 0.0
O101 O 0.35674 0.81148 0.0822 0.0
O102 O 0.35409 0.74833 0.99598 0.0
O103 O 0.36872 0.80958 0.99976 0.0
O104 O 0.4432 0.79267 0.0216 0.0
O105 O 0.44048 0.75429 0.96796 0.0
O106 O 0.42108 0.70084 0.92825 0.0
O107 O 0.4028 0.64523 0.95503 0.0
O108 O 0.43663 0.72112 0.03958 0.0
O109 O 0.42902 0.65914 0.03473 0.0
O110 O 0.34556 0.68299 1.00754 0.0
O111 O 0.35805 0.708 0.06605 0.0
H112 H 0.42639 0.86693 0.07205 0.0
H113 H 0.45498 0.92705 0.09936 0.0
H114 H 0.39814 0.90399 0.20427 0.0
H115 H 0.36919 0.84491 0.17645 0.0
H116 H 0.3521 0.61413 0.91119 0.0
H117 H 0.32744 0.59206 0.85011 0.0
H118 H 0.40923 0.66469 0.79338 0.0
H119 H 0.43434 0.68582 0.8543 0.0
Sm120 Sm 0.5697 0.1159 0.24754 0.0
Sm121 Sm 0.5078 0.10899 0.307 0.0
C122 C 0.6297 0.11441 0.20284 0.0
C123 C 0.63825 0.10404 0.16318 0.0
C124 C 0.61462 0.07882 0.14215 0.0
C125 C 0.62542 0.06509 0.10632 0.0
C126 C 0.65999 0.07645 0.09064 0.0
C127 C 0.68311 0.10238 0.11165 0.0
C128 C 0.67237 0.11592 0.14745 0.0
C129 C 0.50282 0.15839 0.23027 0.0
C130 C 0.50574 0.04861 0.23333 0.0
C131 C 0.44365 0.10715 0.34489 0.0
C132 C 0.41204 0.132 0.36033 0.0
C133 C 0.39163 0.16125 0.33839 0.0
C134 C 0.35871 0.18037 0.35249 0.0
C135 C 0.34563 0.17032 0.38857 0.0
C136 C 0.36724 0.14248 0.41094 0.0
C137 C 0.39999 0.12351 0.39693 0.0
C138 C 0.57599 0.06891 0.32604 0.0
C139 C 0.56684 0.17318 0.32424 0.0
O140 O 0.62002 0.08393 0.22391 0.0
O141 O 0.60947 0.14761 0.20936 0.0
O142 O 0.51855 0.15652 0.26242 0.0
O143 O 0.52296 0.13847 0.20589 0.0
O144 O 0.53983 0.06013 0.22395 0.0
O145 O 0.48764 0.06464 0.26211 0.0
O146 O 0.44547 0.10383 0.30819 0.0
O147 O 0.47693 0.10887 0.36146 0.0
O148 O 0.56077 0.07096 0.29359 0.0
O149 O 0.55241 0.0836 0.35051 0.0
O150 O 0.52991 0.17084 0.32073 0.0
O151 O 0.58944 0.15142 0.30176 0.0
H152 H 0.58821 0.06898 0.15381 0.0
H153 H 0.60672 0.04554 0.09093 0.0
H154 H 0.7102 0.11133 0.10093 0.0
H155 H 0.69131 0.13482 0.16332 0.0
H156 H 0.40041 0.16843 0.31002 0.0
H157 H 0.34269 0.2017 0.33462 0.0
H158 H 0.35841 0.13473 0.43916 0.0
H159 H 0.4153 0.10116 0.41436 0.0
Sm160 Sm 0.64819 0.22198 0.55936 0.0
Sm161 Sm 0.65763 0.29346 0.50921 0.0
C162 C 0.64424 0.15393 0.59922 0.0
C163 C 0.66025 0.14054 0.63633 0.0
C164 C 0.69831 0.14705 0.64619 0.0
C165 C 0.71309 0.13402 0.68127 0.0
C166 C 0.6901 0.11456 0.70749 0.0
C167 C 0.65175 0.10913 0.69795 0.0
C168 C 0.63704 0.1219 0.66272 0.0
C169 C 0.60109 0.28765 0.57621 0.0
C170 C 0.70847 0.28698 0.58731 0.0
C171 C 0.66253 0.36697 0.47946 0.0
C172 C 0.6415 0.39935 0.45857 0.0
C173 C 0.61656 0.39105 0.42862 0.0
C174 C 0.59952 0.42293 0.4075 0.0
C175 C 0.60722 0.46348 0.41603 0.0
C176 C 0.63096 0.47147 0.44707 0.0
C177 C 0.64795 0.4397 0.46806 0.0
C178 C 0.70528 0.22698 0.49426 0.0
C179 C 0.60693 0.22785 0.47426 0.0
O180 O 0.66818 0.15863 0.57183 0.0
O181 O 0.61804 0.18278 0.59987 0.0
O182 O 0.60718 0.27459 0.54333 0.0
O183 O 0.62137 0.26714 0.60092 0.0
O184 O 0.70014 0.24833 0.58939 0.0
O185 O 0.6914 0.31118 0.56225 0.0
O186 O 0.65248 0.36046 0.51427 0.0
O187 O 0.67178 0.33374 0.46138 0.0
O188 O 0.69747 0.24109 0.52606 0.0
O189 O 0.68954 0.25005 0.46826 0.0
O190 O 0.60751 0.26736 0.47844 0.0
O191 O 0.62378 0.20334 0.49988 0.0
H192 H 0.71678 0.16199 0.6267 0.0
H193 H 0.74265 0.13895 0.6878 0.0
H194 H 0.63337 0.09377 0.71721 0.0
H195 H 0.60755 0.11684 0.65592 0.0
H196 H 0.61102 0.36005 0.42098 0.0
H197 H 0.58159 0.41578 0.38358 0.0
H198 H 0.637 0.50235 0.4547 0.0
H199 H 0.6669 0.44667 0.49126 0.0
Sm200 Sm 1.00343 0.37448 0.73433 0.0
Sm201 Sm 0.05965 0.35469 0.79507 0.0
C202 C 0.96107 0.38819 0.67317 0.0
C203 C 0.92294 0.37435 0.66202 0.0
C204 C 0.91859 0.33605 0.64562 0.0
C205 C 0.8825 0.32193 0.63744 0.0
C206 C 0.84983 0.34576 0.6453 0.0
C207 C 0.85422 0.38427 0.66127 0.0
C208 C 0.89032 0.39844 0.66941 0.0
C209 C 0.98598 0.41088 0.80191 0.0
C210 C 0.98338 0.30042 0.78881 0.0
C211 C 0.09758 0.33824 0.85855 0.0
C212 C 0.11207 0.35937 0.89174 0.0
C213 C 0.09312 0.39395 0.90603 0.0
C214 C 0.10623 0.41198 0.93912 0.0
C215 C 0.13846 0.39566 0.95829 0.0
C216 C 0.15784 0.36171 0.94311 0.0
C217 C 0.14467 0.34369 0.91021 0.0
C218 C 0.07595 0.31995 0.72597 0.0
C219 C 0.08115 0.42603 0.74454 0.0
O220 O 0.98839 0.36046 0.67495 0.0
O221 O 0.96256 0.41374 0.70114 0.0
O222 O 1.01871 0.40853 0.78799 0.0
O223 O 0.96159 0.39325 0.78041 0.0
O224 O 0.97669 0.31579 0.75486 0.0
O225 O 1.01073 0.31394 0.81044 0.0
O226 O 0.06073 0.33666 0.85524 0.0
O227 O 0.11428 0.34494 0.82653 0.0
O228 O 0.04415 0.32178 0.74146 0.0
O229 O 0.10136 0.33441 0.74836 0.0
O230 O 0.07769 0.41793 0.78058 0.0
O231 O 0.0583 0.40893 0.71971 0.0
H232 H 0.94307 0.31674 0.6393 0.0
H233 H 0.88026 0.29252 0.62437 0.0
H234 H 0.8297 0.40337 0.66787 0.0
H235 H 0.89263 0.4281 0.68196 0.0
H236 H 0.0679 0.40659 0.89199 0.0
H237 H 0.09067 0.43804 0.95012 0.0
H238 H 0.1833 0.349 0.95666 0.0
H239 H 0.15975 0.31719 0.8994 0.0
Sm240 Sm 0.89433 0.7847 0.06184 0.0
Sm241 Sm 0.8949 0.70425 1.00821 0.0
C242 C 0.87484 0.85144 0.09868 0.0
C243 C 0.87308 0.86428 0.13829 0.0
C244 C 0.87256 0.90563 0.14686 0.0
C245 C 0.86592 0.91848 0.18374 0.0
C246 C 0.85939 0.89014 0.21265 0.0
C247 C 0.8611 0.84859 0.20415 0.0
C248 C 0.86809 0.83575 0.16731 0.0
C249 C 0.9509 0.72954 0.08474 0.0
C250 C 0.84313 0.70655 0.0854 0.0
C251 C 0.90204 0.62918 0.98309 0.0
C252 C 0.91348 0.59961 0.95421 0.0
C253 C 0.94432 0.6056 0.93047 0.0
C254 C 0.95644 0.57485 0.90588 0.0
C255 C 0.93799 0.5376 0.9048 0.0
C256 C 0.90691 0.53216 0.92852 0.0
C257 C 0.89478 0.56286 0.95284 0.0
C258 C 0.84999 0.77058 0.98463 0.0
C259 C 0.94158 0.77914 0.98062 0.0
O260 O 0.85088 0.82367 0.08927 0.0
O261 O 0.9085 0.84565 0.08394 0.0
O262 O 0.92736 0.72619 0.05812 0.0
O263 O 0.94425 0.76379 0.10144 0.0
O264 O 0.8527 0.7441 0.09305 0.0
O265 O 0.85674 0.68596 0.05655 0.0
O266 O 0.92887 0.64731 1.00176 0.0
O267 O 0.87124 0.65187 0.97739 0.0
O268 O 0.85637 0.7586 1.01803 0.0
O269 O 0.86483 0.74432 0.96122 0.0
O270 O 0.94316 0.73924 0.9838 0.0
O271 O 0.92144 0.80291 1.0039 0.0
H272 H 0.87605 0.92805 0.1248 0.0
H273 H 0.86439 0.95072 0.18931 0.0
H274 H 0.85658 0.82607 0.22588 0.0
H275 H 0.86839 0.80361 0.16123 0.0
H276 H 0.95926 0.63374 0.93128 0.0
H277 H 0.98014 0.5803 0.88765 0.0
H278 H 0.89238 0.50377 0.92901 0.0
H279 H 0.87125 0.55748 0.97135 0.0
Sm280 Sm 0.54851 0.61754 0.2349 0.0
Sm281 Sm 0.48446 0.6349 0.28889 0.0
C282 C 0.5986 0.60512 0.18097 0.0
C283 C 0.63805 0.61725 0.17507 0.0
C284 C 0.64774 0.65815 0.17784 0.0
C285 C 0.68405 0.67018 0.16878 0.0
C286 C 0.71188 0.64157 0.15726 0.0
C287 C 0.70268 0.60029 0.15659 0.0
C288 C 0.66605 0.58833 0.16512 0.0
C289 C 0.56018 0.58527 0.30618 0.0
C290 C 0.55754 0.69458 0.28953 0.0
C291 C 0.44052 0.6452 0.34824 0.0
C292 C 0.4237 0.62251 0.37947 0.0
C293 C 0.44389 0.59115 0.39891 0.0
C294 C 0.42836 0.57298 0.43082 0.0
C295 C 0.3925 0.58601 0.44378 0.0
C296 C 0.37186 0.61614 0.42311 0.0
C297 C 0.38735 0.63421 0.39139 0.0
C298 C 0.4712 0.66601 0.21699 0.0
C299 C 0.47327 0.56249 0.2366 0.0
O300 O 0.57306 0.63463 0.18038 0.0
O301 O 0.59278 0.57816 0.20736 0.0
O302 O 0.52946 0.58464 0.28767 0.0
O303 O 0.58585 0.60337 0.28717 0.0
O304 O 0.57003 0.67721 0.25851 0.0
O305 O 0.5273 0.68204 0.30697 0.0
O306 O 0.4773 0.64916 0.34932 0.0
O307 O 0.42707 0.63918 0.31423 0.0
O308 O 0.50252 0.6658 0.23463 0.0
O309 O 0.44464 0.6542 0.23899 0.0
O310 O 0.47448 0.5698 0.27287 0.0
O311 O 0.49665 0.58123 0.21394 0.0
H312 H 0.62693 0.68125 0.18589 0.0
H313 H 0.68963 0.70224 0.16924 0.0
H314 H 0.72353 0.5772 0.14872 0.0
H315 H 0.65939 0.55658 0.16321 0.0
H316 H 0.47199 0.58145 0.39004 0.0
H317 H 0.44496 0.5499 0.44613 0.0
H318 H 0.34384 0.62626 0.43185 0.0
H319 H 0.37122 0.65812 0.37666 0.0
Sm320 Sm 0.24076 0.52834 0.14744 0.0
Sm321 Sm 0.28956 0.4533 0.13858 0.0
C322 C 0.2047 0.59982 0.15099 0.0
C323 C 0.16566 0.61473 0.14093 0.0
C324 C 0.15765 0.63225 0.10527 0.0
C325 C 0.12082 0.64596 0.09555 0.0
C326 C 0.09118 0.64279 0.12139 0.0
C327 C 0.09914 0.62497 0.15692 0.0
C328 C 0.13591 0.61119 0.1666 0.0
C329 C 0.22061 0.46534 0.19371 0.0
C330 C 0.21017 0.46236 0.08945 0.0
C331 C 0.32141 0.37946 0.13398 0.0
C332 C 0.34845 0.34981 0.1522 0.0
C333 C 0.34098 0.33135 0.18713 0.0
C334 C 0.36522 0.30026 0.2016 0.0
C335 C 0.39722 0.28687 0.18133 0.0
C336 C 0.40511 0.30631 0.147 0.0
C337 C 0.38097 0.33724 0.13259 0.0
C338 C 0.30805 0.51891 0.09333 0.0
C339 C 0.32364 0.51744 0.19143 0.0
O340 O 0.22657 0.58927 0.12304 0.0
O341 O 0.20854 0.57507 0.1799 0.0
O342 O 0.25429 0.47552 0.18783 0.0
O343 O 0.19674 0.48779 0.17397 0.0
O344 O 0.20855 0.50128 0.09753 0.0
O345 O 0.23568 0.43746 0.10543 0.0
O346 O 0.28888 0.38706 0.15018 0.0
O347 O 0.33535 0.41145 0.11802 0.0
O348 O 0.27541 0.50646 0.09935 0.0
O349 O 0.33299 0.49515 0.11038 0.0
O350 O 0.3184 0.47828 0.19024 0.0
O351 O 0.30016 0.54317 0.17302 0.0
H352 H 0.17993 0.63565 0.08488 0.0
H353 H 0.11579 0.66015 0.06821 0.0
H354 H 0.0769 0.62185 0.17739 0.0
H355 H 0.14097 0.59785 0.1943 0.0
H356 H 0.31601 0.34021 0.20287 0.0
H357 H 0.35822 0.28584 0.22803 0.0
H358 H 0.4299 0.29739 0.13099 0.0
H359 H 0.38734 0.35077 0.10556 0.0
Sm360 Sm 0.74397 0.95173 0.8805 0.0
Sm361 Sm 0.80018 0.01162 0.90307 0.0
C362 C 0.69523 0.89213 0.87818 0.0
C363 C 0.65819 0.88228 0.89476 0.0
C364 C 0.65381 0.87808 0.934 0.0
C365 C 0.61937 0.86591 0.94891 0.0
C366 C 0.5884 0.85776 0.92499 0.0
C367 C 0.59255 0.8634 0.88583 0.0
C368 C 0.62704 0.87529 0.87094 0.0
C369 C 0.74014 0.01757 0.8337 0.0
C370 C 0.72563 0.01521 0.9518 0.0
C371 C 0.85289 0.06679 0.90828 0.0
C372 C 0.87076 0.09785 0.88506 0.0
C373 C 0.84925 0.12478 0.86168 0.0
C374 C 0.86674 0.15653 0.84293 0.0
C375 C 0.90593 0.16177 0.84733 0.0
C376 C 0.9275 0.13339 0.86917 0.0
C377 C 0.91005 0.10186 0.88791 0.0
C378 C 0.80749 0.93558 0.93887 0.0
C379 C 0.82342 0.95751 0.83567 0.0
O380 O 0.72459 0.89238 0.90106 0.0
O381 O 0.69536 0.92128 0.85297 0.0
O382 O 0.74415 0.02017 0.86942 0.0
O383 O 0.7372 0.98044 0.82256 0.0
O384 O 0.71827 0.98003 0.93581 0.0
O385 O 0.75407 0.03651 0.94058 0.0
O386 O 0.81755 0.07358 0.91749 0.0
O387 O 0.86055 0.02894 0.90002 0.0
O388 O 0.80116 0.9433 0.90506 0.0
O389 O 0.81197 0.96937 0.95667 0.0
O390 O 0.81698 0.99596 0.84278 0.0
O391 O 0.80085 0.93094 0.85158 0.0
H392 H 0.6772 0.88335 0.95325 0.0
H393 H 0.61752 0.86155 0.97912 0.0
H394 H 0.56921 0.85822 0.86651 0.0
H395 H 0.62954 0.87843 0.84064 0.0
H396 H 0.81885 0.12202 0.85874 0.0
H397 H 0.8494 0.17791 0.82635 0.0
H398 H 0.95787 0.13609 0.87247 0.0
H399 H 0.92718 0.08118 0.90548 0.0
Sm400 Sm 0.743 0.97589 0.41688 0.0
Sm401 Sm 0.80563 0.04274 0.40507 0.0
C402 C 0.68032 0.93524 0.40618 0.0
C403 C 0.66851 0.89584 0.39129 0.0
C404 C 0.6773 0.88414 0.35424 0.0
C405 C 0.66164 0.8497 0.33853 0.0
C406 C 0.63712 0.8259 0.35957 0.0
C407 C 0.63006 0.8365 0.39733 0.0
C408 C 0.64537 0.87128 0.4129 0.0
C409 C 0.80241 0.95838 0.46598 0.0
C410 C 0.80789 0.95969 0.35267 0.0
C411 C 0.86861 0.08347 0.39665 0.0
C412 C 0.90369 0.0987 0.41417 0.0
C413 C 0.93883 0.08574 0.39965 0.0
C414 C 0.97237 0.10315 0.41188 0.0
C415 C 0.97161 0.13411 0.43891 0.0
C416 C 0.93656 0.14596 0.45463 0.0
C417 C 0.90288 0.12854 0.44228 0.0
C418 C 0.73593 0.05572 0.3683 0.0
C419 C 0.74768 0.05942 0.46792 0.0
O420 O 0.69394 0.96028 0.38155 0.0
O421 O 0.69818 0.93574 0.43881 0.0
O422 O 0.80061 0.98788 0.44286 0.0
O423 O 0.77302 0.93608 0.46208 0.0
O424 O 0.77866 0.94483 0.37063 0.0
O425 O 0.82189 0.99536 0.36065 0.0
O426 O 0.86681 0.04435 0.39149 0.0
O427 O 0.83586 0.10087 0.40489 0.0
O428 O 0.75406 0.02286 0.37368 0.0
O429 O 0.75656 0.08524 0.37975 0.0
O430 O 0.78461 0.05596 0.46399 0.0
O431 O 0.72499 0.03462 0.44969 0.0
H432 H 0.69522 0.90234 0.33679 0.0
H433 H 0.66753 0.84283 0.30934 0.0
H434 H 0.61206 0.81835 0.41473 0.0
H435 H 0.63828 0.87959 0.44152 0.0
H436 H 0.94027 0.06293 0.37784 0.0
H437 H 0.99888 0.09288 0.39958 0.0
H438 H 0.93492 0.16995 0.47528 0.0
H439 H 0.87621 0.13931 0.45391 0.0
Sm440 Sm 0.30577 0.46898 0.6506 0.0
Sm441 Sm 0.24734 0.5356 0.62838 0.0
C442 C 0.3481 0.40204 0.66095 0.0
C443 C 0.38674 0.38759 0.65031 0.0
C444 C 0.3906 0.35477 0.62549 0.0
C445 C 0.42625 0.34201 0.61259 0.0
C446 C 0.45911 0.36148 0.62449 0.0
C447 C 0.45541 0.3939 0.64993 0.0
C448 C 0.41955 0.40701 0.66255 0.0
C449 C 0.32165 0.54392 0.68071 0.0
C450 C 0.32223 0.52777 0.57973 0.0
C451 C 0.19854 0.59801 0.62039 0.0
C452 C 0.1775 0.62943 0.64174 0.0
C453 C 0.19029 0.64297 0.67707 0.0
C454 C 0.17149 0.67568 0.69481 0.0
C455 C 0.13986 0.69545 0.67731 0.0
C456 C 0.12653 0.68064 0.64261 0.0
C457 C 0.14516 0.64805 0.62506 0.0
C458 C 0.24149 0.46085 0.59215 0.0
C459 C 0.22662 0.48039 0.69859 0.0
O460 O 0.32426 0.40757 0.63262 0.0
O461 O 0.34455 0.4301 0.68689 0.0
O462 O 0.28921 0.52919 0.67784 0.0
O463 O 0.34678 0.51909 0.66646 0.0
O464 O 0.32433 0.4895 0.59109 0.0
O465 O 0.29957 0.55415 0.59652 0.0
O466 O 0.23539 0.60118 0.61883 0.0
O467 O 0.18794 0.5605 0.62373 0.0
O468 O 0.2482 0.4681 0.62579 0.0
O469 O 0.23586 0.49508 0.57427 0.0
O470 O 0.22469 0.51791 0.68584 0.0
O471 O 0.25337 0.45423 0.68709 0.0
H472 H 0.36582 0.3392 0.61564 0.0
H473 H 0.42813 0.3165 0.59358 0.0
H474 H 0.48019 0.40957 0.65956 0.0
H475 H 0.41755 0.4326 0.68146 0.0
H476 H 0.21526 0.62892 0.69045 0.0
H477 H 0.18246 0.68636 0.72149 0.0
H478 H 0.1018 0.69459 0.62872 0.0
H479 H 0.13477 0.63798 0.59791 0.0
C480 C 0.22068 0.3495 0.59844 0.0
C481 C 0.21673 0.33797 0.56071 0.0
H482 H 0.2315 0.39643 0.63734 0.0
C483 C 0.22282 0.36707 0.53223 0.0
H484 H 0.21661 0.32796 0.62113 0.0
C485 C 0.23051 0.40756 0.54161 0.0
C486 C 0.23339 0.41901 0.57963 0.0
H487 H 0.2213 0.35866 0.50284 0.0
H488 H 0.23443 0.42961 0.51935 0.0
C489 C 0.22909 0.38914 0.60771 0.0
C490 C 0.88274 0.96438 0.79845 0.0
C491 C 0.86356 0.94611 0.82828 0.0
H492 H 0.93645 0.97458 0.77266 0.0
C493 C 0.88504 0.92527 0.85644 0.0
H494 H 0.86706 0.98208 0.77723 0.0
C495 C 0.92472 0.92308 0.855 0.0
C496 C 0.94385 0.93998 0.82453 0.0
H497 H 0.87133 0.91249 0.88072 0.0
H498 H 0.94045 0.90786 0.8777 0.0
C499 C 0.92244 0.96079 0.79628 0.0
C500 C 0.296 0.62394 0.04821 0.0
C501 C 0.32938 0.64234 0.06026 0.0
H502 H 0.26255 0.57056 0.05001 0.0
C503 C 0.35568 0.61958 0.08256 0.0
H504 H 0.27574 0.6404 0.03013 0.0
C505 C 0.34937 0.57908 0.09175 0.0
C506 C 0.31563 0.5609 0.08073 0.0
H507 H 0.38216 0.63242 0.09137 0.0
H508 H 0.37095 0.56198 0.10766 0.0
C509 C 0.28877 0.58386 0.05911 0.0
C510 C 0.62862 0.04519 0.36932 0.0
C511 C 0.61723 0.06299 0.33483 0.0
H512 H 0.67397 0.02914 0.40698 0.0
C513 C 0.64523 0.07966 0.31206 0.0
H514 H 0.60777 0.03308 0.38812 0.0
C515 C 0.68366 0.07792 0.32312 0.0
C516 C 0.69504 0.05925 0.35725 0.0
H517 H 0.63747 0.09604 0.28676 0.0
H518 H 0.70446 0.09118 0.30499 0.0
C519 C 0.6669 0.04323 0.38027 0.0
C520 C 0.70311 0.16384 0.45627 0.0
C521 C 0.71623 0.18383 0.48838 0.0
H522 H 0.69967 0.10799 0.42667 0.0
C523 C 0.73766 0.16155 0.51567 0.0
H524 H 0.68708 0.18033 0.43454 0.0
C525 C 0.74667 0.12023 0.5102 0.0
C526 C 0.7327 0.10013 0.47834 0.0
H527 H 0.74809 0.17629 0.54079 0.0
H528 H 0.7649 0.10412 0.53051 0.0
C529 C 0.71018 0.12227 0.45191 0.0
C530 C 0.14139 0.46171 0.75878 0.0
C531 C 0.1168 0.44414 0.73225 0.0
H532 H 0.19613 0.48683 0.76904 0.0
C533 C 0.12928 0.43849 0.69521 0.0
H534 H 0.13261 0.46651 0.7876 0.0
C535 C 0.166 0.44837 0.68534 0.0
C536 C 0.19072 0.46493 0.71202 0.0
H537 H 0.11115 0.42527 0.67405 0.0
H538 H 0.17484 0.44386 0.65649 0.0
C539 C 0.17792 0.4726 0.74854 0.0
C540 C 0.83171 0.88515 0.9881 0.0
C541 C 0.81623 0.89346 0.95225 0.0
H542 H 0.85609 0.84007 0.02506 0.0
C543 C 0.81094 0.86078 0.9274 0.0
H544 H 0.83692 0.90953 1.00759 0.0
C545 C 0.82115 0.82086 0.93805 0.0
C546 C 0.83688 0.81254 0.97386 0.0
H547 H 0.7994 0.86602 0.89928 0.0
H548 H 0.81718 0.79661 0.91811 0.0
C549 C 0.84207 0.84516 0.99851 0.0
C550 C 0.42027 0.51462 0.23906 0.0
C551 C 0.43711 0.54781 0.22187 0.0
H552 H 0.37085 0.47884 0.24284 0.0
C553 C 0.41548 0.57238 0.19658 0.0
H554 H 0.43602 0.49603 0.25958 0.0
C555 C 0.37747 0.56448 0.18925 0.0
C556 C 0.36096 0.53042 0.20524 0.0
H557 H 0.42737 0.59883 0.18374 0.0
H558 H 0.3613 0.58459 0.1704 0.0
C559 C 0.38279 0.50544 0.23015 0.0
C560 C 0.60219 0.16372 0.38558 0.0
C561 C 0.58085 0.18918 0.36069 0.0
H562 H 0.62419 0.15408 0.4418 0.0
C563 C 0.56608 0.22618 0.37435 0.0
H564 H 0.61286 0.13443 0.3764 0.0
C565 C 0.57356 0.23809 0.41155 0.0
C566 C 0.59472 0.21252 0.43664 0.0
H567 H 0.54843 0.24581 0.35626 0.0
H568 H 0.56263 0.26741 0.4207 0.0
C569 C 0.60826 0.1748 0.42331 0.0
C570 C 0.11612 0.32968 0.62785 0.0
C571 C 0.09231 0.30502 0.60667 0.0
H572 H 0.13094 0.35163 0.68265 0.0
C573 C 0.06205 0.28652 0.6247 0.0
H574 H 0.14018 0.34346 0.61489 0.0
C575 C 0.05606 0.29216 0.66334 0.0
C576 C 0.08118 0.315 0.6849 0.0
H577 H 0.0438 0.26663 0.60911 0.0
H578 H 0.03267 0.27742 0.67664 0.0
C579 C 0.11109 0.33393 0.66673 0.0
C580 C 0.94172 0.82305 0.88187 0.0
C581 C 0.97849 0.81232 0.86989 0.0
H582 H 0.90232 0.82393 0.92745 0.0
C583 C 1.0034 0.79191 0.8956 0.0
H584 H 0.92156 0.83811 0.86275 0.0
C585 C 0.99197 0.7829 0.9323 0.0
C586 C 0.95587 0.79529 0.9447 0.0
H587 H 0.03193 0.78301 0.88746 0.0
H588 H 1.01133 0.76598 0.95101 0.0
C589 C 0.93083 0.81545 0.91913 0.0
C590 C 0.48812 0.65301 0.14901 0.0
C591 C 0.46539 0.673 0.17586 0.0
H592 H 0.49852 0.64194 0.09016 0.0
C593 C 0.43378 0.69607 0.16307 0.0
H594 H 0.51032 0.63191 0.15791 0.0
C595 C 0.42609 0.70053 0.12445 0.0
C596 C 0.4498 0.6824 0.09737 0.0
H597 H 0.41463 0.71029 0.18302 0.0
H598 H 0.40068 0.71716 0.1163 0.0
C599 C 0.48057 0.65779 0.11015 0.0
C600 C 0.15788 0.42438 0.26969 0.0
C601 C 0.18417 0.41434 0.29872 0.0
H602 H 0.14891 0.4476 0.21362 0.0
C603 C 0.22311 0.41764 0.29145 0.0
H604 H 0.12778 0.42132 0.27392 0.0
C605 C 0.23527 0.43234 0.25659 0.0
C606 C 0.20875 0.44411 0.22834 0.0
H607 H 0.24416 0.41034 0.31318 0.0
H608 H 0.26532 0.43594 0.25233 0.0
C609 C 0.17003 0.43908 0.23496 0.0
C610 C 0.85985 0.89746 0.53725 0.0
C611 C 0.8733 0.9275 0.56137 0.0
H612 H 0.82734 0.88413 0.48786 0.0
C613 C 0.8679 0.96855 0.55049 0.0
H614 H 0.86309 0.86565 0.5448 0.0
C615 C 0.84767 0.97919 0.5172 0.0
C616 C 0.83207 0.94892 0.49477 0.0
H617 H 0.87822 0.99241 0.56834 0.0
H618 H 0.84205 0.01092 0.51049 0.0
C619 C 0.8393 0.90807 0.50457 0.0
C620 C 0.3046 0.58443 0.73811 0.0
C621 C 0.33196 0.5711 0.7121 0.0
H622 H 0.2939 0.61247 0.7915 0.0
C623 C 0.37016 0.57946 0.71916 0.0
H624 H 0.27489 0.57851 0.73345 0.0
C625 C 0.38106 0.59867 0.75244 0.0
C626 C 0.35402 0.61003 0.77956 0.0
H627 H 0.39192 0.56954 0.69971 0.0
H628 H 0.41098 0.60285 0.75768 0.0
C629 C 0.31553 0.60352 0.77156 0.0
C630 C 0.66774 0.0205 0.04205 0.0
C631 C 0.67259 0.0611 0.05296 0.0
H632 H 0.68037 0.97389 1.00139 0.0
C633 C 0.69147 0.08677 0.02822 0.0
H634 H 0.65343 0.99975 0.06041 0.0
C635 C 0.70687 0.07199 0.99473 0.0
C636 C 0.70382 0.03101 0.98464 0.0
H637 H 0.69497 0.11839 0.03501 0.0
H638 H 0.72208 0.09272 0.9771 0.0
C639 C 0.68317 1.00561 1.0082 0.0
C640 C 0.74113 0.07406 0.74206 0.0
C641 C 0.70672 0.09669 0.74309 0.0
H642 H 0.77887 0.03164 0.77078 0.0
C643 C 0.68695 0.0986 0.77737 0.0
H644 H 0.75692 0.07153 0.71615 0.0
C645 C 0.7001 0.0762 0.80909 0.0
C646 C 0.73297 0.05128 0.80681 0.0
H647 H 0.6605 0.11604 0.77916 0.0
H648 H 0.68305 0.07587 0.83426 0.0
C649 C 0.75385 0.05133 0.77342 0.0
C650 C 0.18278 0.40424 0.05546 0.0
C651 C 0.18624 0.44633 0.05891 0.0
H652 H 0.16418 0.35542 0.02146 0.0
C653 C 0.17038 0.47209 0.03072 0.0
H654 H 0.19427 0.38361 0.07695 0.0
C655 C 0.15353 0.45581 0.99847 0.0
C656 C 0.15214 0.41354 0.99407 0.0
H657 H 0.17275 0.50466 0.03259 0.0
H658 H 0.14327 0.47623 0.97627 0.0
C659 C 0.16579 0.38806 0.0235 0.0
C660 C 0.80585 0.90441 0.30413 0.0
C661 C 0.8239 0.93785 0.31978 0.0
H662 H 0.80288 0.86314 0.25782 0.0
C663 C 0.85584 0.95283 0.30159 0.0
H664 H 0.78117 0.89213 0.31732 0.0
C665 C 0.86815 0.93633 0.2676 0.0
C666 C 0.84901 0.90428 0.25096 0.0
H667 H 0.87079 0.97826 0.31296 0.0
H668 H 0.89227 0.94925 0.2539 0.0
C669 C 0.81834 0.88775 0.27006 0.0
C670 C 0.34309 0.58347 0.53775 0.0
C671 C 0.34344 0.54182 0.5465 0.0
H672 H 0.35865 0.62978 0.49916 0.0
C673 C 0.36217 0.51455 0.52216 0.0
H674 H 0.32942 0.60551 0.556 0.0
C675 C 0.37896 0.5287 0.48905 0.0
C676 C 0.37714 0.5703 0.47974 0.0
H677 H 0.36296 0.48229 0.52811 0.0
H678 H 0.39229 0.50703 0.47021 0.0
C679 C 0.3597 0.59747 0.50493 0.0
C680 C 0.25099 0.176 0.43739 0.0
C681 C 0.24142 0.21769 0.43591 0.0
H682 H 0.29081 0.12861 0.42328 0.0
C683 C 0.26486 0.24359 0.41572 0.0
H684 H 0.2334 0.15501 0.45223 0.0
C685 C 0.29825 0.22825 0.39914 0.0
C686 C 0.30874 0.18683 0.40262 0.0
H687 H 0.25828 0.27586 0.41406 0.0
H688 H 0.3166 0.24901 0.385 0.0
C689 C 0.28412 0.16082 0.42099 0.0
C690 C 0.06082 0.02334 0.65141 0.0
C691 C 0.09742 0.03673 0.65991 0.0
H692 H 1.01637 0.98355 0.66639 0.0
C693 C 0.11678 0.02036 0.69169 0.0
H694 H 0.04523 0.03522 0.62699 0.0
C695 C 0.10047 0.99083 0.71398 0.0
C696 C 0.0642 0.97681 0.70528 0.0
H697 H 0.14465 0.03054 0.69955 0.0
H698 H 0.11654 0.97899 0.73812 0.0
C699 C 0.04438 0.9936 0.67386 0.0
C700 C 0.2577 0.78188 0.92501 0.0
C701 C 0.2523 0.82321 0.9155 0.0
H702 H 0.29335 0.73643 0.95285 0.0
C703 C 0.28148 0.84982 0.92404 0.0
H704 H 0.23582 0.76057 0.91881 0.0
C705 C 0.31427 0.83604 0.94333 0.0
C706 C 0.31881 0.79528 0.95469 0.0
H707 H 0.27873 0.88162 0.91632 0.0
H708 H 0.33558 0.85772 0.95044 0.0
C709 C 0.29065 0.76805 0.94449 0.0
C710 C 0.50565 0.99309 0.18457 0.0
C711 C 0.48636 0.01698 0.2113 0.0
H712 H 0.50295 0.94356 0.14586 0.0
C713 C 0.44775 0.01022 0.21741 0.0
H714 H 0.53534 0.99754 0.17908 0.0
C715 C 0.42911 0.97984 0.1981 0.0
C716 C 0.44852 0.95497 0.17224 0.0
H717 H 0.43171 0.02839 0.23732 0.0
H718 H 0.39936 0.97578 0.2036 0.0
C719 C 0.48695 0.96232 0.16532 0.0
C720 C 0.80264 0.29018 0.63971 0.0
C721 C 0.81152 0.33124 0.63517 0.0
H722 H 0.7627 0.24391 0.62881 0.0
C723 C 0.78412 0.35808 0.61887 0.0
H724 H 0.82283 0.26883 0.65282 0.0
C725 C 0.74961 0.34394 0.60562 0.0
C726 C 0.74159 0.30253 0.60814 0.0
H727 H 0.78998 0.38979 0.61464 0.0
H728 H 0.7299 0.36534 0.59184 0.0
C729 C 0.76799 0.27597 0.62636 0.0
C730 C 1.00126 0.46498 0.84862 0.0
C731 C 0.97435 0.44145 0.83012 0.0
H732 H 1.01101 0.51355 0.88701 0.0
C733 C 0.93569 0.4492 0.83684 0.0
H734 H 0.03128 0.45964 0.84396 0.0
C735 C 0.92405 0.48039 0.86088 0.0
C736 C 0.9508 0.50442 0.87915 0.0
H737 H 0.91425 0.43175 0.82282 0.0
H738 H 0.89394 0.48615 0.8645 0.0
C739 C 0.98961 0.49613 0.87294 0.0
C740 C 0.79732 0.65133 0.09463 0.0
C741 C 0.81308 0.68739 0.10755 0.0
H742 H 0.75307 0.60935 0.0993 0.0
C743 C 0.7976 0.70614 0.13956 0.0
H744 H 0.80835 0.63593 0.07003 0.0
C745 C 0.76599 0.69011 0.1571 0.0
C746 C 0.74884 0.65533 0.1427 0.0
H747 H 0.80924 0.73373 0.15047 0.0
H748 H 0.75447 0.70559 0.18142 0.0
C749 C 0.76556 0.63572 0.11174 0.0
C750 C 0.55613 0.49805 0.37581 0.0
C751 C 0.59321 0.49714 0.39093 0.0
H752 H 0.51615 0.52741 0.33754 0.0
C753 C 0.61792 0.52764 0.38027 0.0
H754 H 0.53632 0.47525 0.38384 0.0
C755 C 0.60642 0.55735 0.35398 0.0
C756 C 0.56995 0.5573 0.33773 0.0
H757 H 0.6468 0.5276 0.39106 0.0
H758 H 0.62658 0.5796 0.34542 0.0
C759 C 0.54452 0.52803 0.34955 0.0
C760 C 0.4325 0.24793 0.23334 0.0
C761 C 0.42192 0.25212 0.19503 0.0
H762 H 0.46634 0.21474 0.27473 0.0
C763 C 0.43596 0.22323 0.16932 0.0
H764 H 0.42222 0.26962 0.25388 0.0
C765 C 0.46116 0.19204 0.18121 0.0
C766 C 0.47298 0.18887 0.2191 0.0
H767 H 0.42769 0.22487 0.1398 0.0
H768 H 0.47202 0.17089 0.16045 0.0
C769 C 0.45783 0.21658 0.24527 0.0
C770 C 0.96834 0.25228 0.8405 0.0
C771 C 0.9614 0.2663 0.8034 0.0
H772 H 0.95607 0.20906 0.88324 0.0
C773 C 0.93476 0.24645 0.78086 0.0
H774 H 0.98832 0.26696 0.85893 0.0
C775 C 0.9162 0.21266 0.79501 0.0
C776 C 0.92416 0.19814 0.83182 0.0
H777 H 0.92875 0.25654 0.75218 0.0
H778 H 0.89631 0.19739 0.77694 0.0
C779 C 0.95001 0.21877 0.85446 0.0
C780 C 0.0359 0.65704 0.07651 0.0
C781 C 0.05286 0.66085 0.1125 0.0
H782 H 0.98961 0.67545 0.0394 0.0
C783 C 0.03393 0.68433 0.1397 0.0
H784 H 0.04971 0.63893 0.05502 0.0
C785 C 0.99982 0.7049 0.13077 0.0
C786 C 0.98352 0.70225 0.09457 0.0
H787 H 0.04632 0.68837 0.16749 0.0
H788 H 0.98672 0.72399 0.152 0.0
C789 C 1.00133 0.67745 0.06767 0.0
C790 C 0.5794 0.78446 0.35062 0.0
C791 C 0.61723 0.79177 0.34155 0.0
H792 H 0.53106 0.74847 0.34128 0.0
C793 C 0.63511 0.7672 0.31426 0.0
H794 H 0.56428 0.80331 0.37068 0.0
C795 C 0.61561 0.73609 0.29664 0.0
C796 C 0.57799 0.72863 0.30626 0.0
H797 H 0.66434 0.77164 0.30679 0.0
H798 H 0.63023 0.71745 0.27605 0.0
C799 C 0.56015 0.75318 0.33341 0.0
C800 C 0.53696 0.31944 0.56101 0.0
C801 C 0.56671 0.31156 0.58705 0.0
H802 H 0.4796 0.34148 0.55244 0.0
C803 C 0.5619 0.32335 0.62476 0.0
H804 H 0.53984 0.31075 0.53176 0.0
C805 C 0.52752 0.34104 0.63659 0.0
C806 C 0.49701 0.34699 0.61104 0.0
H807 H 0.58438 0.31773 0.64546 0.0
H808 H 0.5243 0.34841 0.66612 0.0
C809 C 0.50239 0.33675 0.57294 0.0
C810 C 0.11085 0.7654 0.67028 0.0
C811 C 0.12132 0.73236 0.69387 0.0
H812 H 0.08183 0.82302 0.6649 0.0
C813 C 0.11251 0.73455 0.73246 0.0
H814 H 0.118 0.76522 0.64066 0.0
C815 C 0.09173 0.76813 0.74654 0.0
C816 C 0.07961 0.80003 0.72224 0.0
H817 H 0.12029 0.70963 0.75138 0.0
H818 H 0.08393 0.76838 0.77598 0.0
C819 C 0.09032 0.79871 0.68426 0.0
C820 C 0.50164 0.79348 0.9356 0.0
C821 C 0.48768 0.80529 0.97098 0.0
H822 H 0.54417 0.79983 0.89398 0.0
C823 C 0.50622 0.83594 0.99065 0.0
H824 H 0.48833 0.76988 0.91957 0.0
C825 C 0.53841 0.85365 0.97556 0.0
C826 C 0.55282 0.84109 0.94047 0.0
H827 H 0.49622 0.84586 1.01793 0.0
H828 H 0.55204 0.87711 0.99146 0.0
C829 C 0.53372 0.81097 0.92067 0.0
C830 C 1.01522 0.16701 0.48586 0.0
C831 C 1.00684 0.15581 0.44852 0.0
H832 H 0.05259 0.1984 0.52301 0.0
C833 C 0.0317 0.16695 0.41981 0.0
H834 H 0.99689 0.15855 0.50866 0.0
C835 C 0.06346 0.18971 0.428 0.0
C836 C 0.07126 0.2018 0.4651 0.0
H837 H 0.02594 0.15927 0.39069 0.0
H838 H 0.08144 0.19868 0.40507 0.0
C839 C 0.04724 0.18959 0.4941 0.0
loop_
_geom_bond_atom_site_label_1
_geom_bond_atom_site_label_2
_geom_bond_distance
_geom_bond_site_symmetry_2
_ccdc_geom_bond_type
Sm0 C2 2.846 . S
Sm0 O20 2.543 . S
Sm0 O21 2.450 . S
Sm0 O22 2.681 . S
Sm0 O23 2.464 . S
Sm0 O24 2.396 . S
Sm0 O28 2.386 . S
Sm0 O31 2.408 . S
Sm1 C11 2.846 . S
Sm1 O22 2.386 . S
Sm1 O25 2.408 . S
Sm1 O26 2.543 . S
Sm1 O27 2.450 . S
Sm1 O28 2.681 . S
Sm1 O29 2.464 . S
Sm1 O30 2.396 . S
C2 Sm0 2.846 . S
C2 C3 1.506 . S
C2 O20 1.261 . S
C2 O21 1.242 . S
C3 C2 1.506 . S
C3 C4 1.358 . S
C3 C8 1.382 . S
C4 C3 1.358 . S
C4 C5 1.385 . S
C4 H32 0.930 . S
C5 C4 1.385 . S
C5 C6 1.395 . S
C5 H33 0.929 . S
C6 C5 1.395 . S
C6 C7 1.335 . S
C7 C6 1.335 . S
C7 C8 1.398 . S
C7 H34 0.930 . S
C8 C3 1.382 . S
C8 C7 1.398 . S
C8 H35 0.929 . S
C9 O22 1.271 . S
C9 O23 1.251 . S
C10 O24 1.252 . S
C10 O25 1.272 . S
C11 Sm1 2.846 . S
C11 C12 1.506 . S
C11 O26 1.261 . S
C11 O27 1.242 . S
C12 C11 1.506 . S
C12 C13 1.358 . S
C12 C17 1.382 . S
C13 C12 1.358 . S
C13 C14 1.385 . S
C13 H36 0.930 . S
C14 C13 1.385 . S
C14 C15 1.395 . S
C14 H37 0.929 . S
C15 C14 1.395 . S
C15 C16 1.335 . S
C16 C15 1.335 . S
C16 C17 1.398 . S
C16 H38 0.930 . S
C17 C12 1.382 . S
C17 C16 1.398 . S
C17 H39 0.929 . S
C18 O28 1.271 . S
C18 O29 1.251 . S
C19 O30 1.252 . S
C19 O31 1.272 . S
O20 Sm0 2.543 . S
O20 C2 1.261 . S
O21 Sm0 2.450 . S
O21 C2 1.242 . S
O22 Sm0 2.681 . S
O22 Sm1 2.386 . S
O22 C9 1.271 . S
O23 Sm0 2.464 . S
O23 C9 1.251 . S
O24 Sm0 2.396 . S
O24 C10 1.252 . S
O25 Sm1 2.408 . S
O25 C10 1.272 . S
O26 Sm1 2.543 . S
O26 C11 1.261 . S
O27 Sm1 2.450 . S
O27 C11 1.242 . S
O28 Sm0 2.386 . S
O28 Sm1 2.681 . S
O28 C18 1.271 . S
O29 Sm1 2.464 . S
O29 C18 1.251 . S
O30 Sm1 2.396 . S
O30 C19 1.252 . S
O31 Sm0 2.408 . S
O31 C19 1.272 . S
H32 C4 0.930 . S
H33 C5 0.929 . S
H34 C7 0.930 . S
H35 C8 0.929 . S
H36 C13 0.930 . S
H37 C14 0.929 . S
H38 C16 0.930 . S
H39 C17 0.929 . S
Sm40 C42 2.846 . S
Sm40 O60 2.543 . S
Sm40 O61 2.450 . S
Sm40 O62 2.681 1_655 S
Sm40 O63 2.464 1_655 S
Sm40 O64 2.396 1_655 S
Sm40 O68 2.386 . S
Sm40 O71 2.408 . S
Sm41 C51 2.846 . S
Sm41 O62 2.386 . S
Sm41 O65 2.408 . S
Sm41 O66 2.543 . S
Sm41 O67 2.450 . S
Sm41 O68 2.681 1_455 S
Sm41 O69 2.464 1_455 S
Sm41 O70 2.378 1_455 S
C42 Sm40 2.846 . S
C42 C43 1.506 . S
C42 O60 1.261 . S
C42 O61 1.242 . S
C43 C42 1.506 . S
C43 C44 1.358 . S
C43 C48 1.382 . S
C44 C43 1.358 . S
C44 C45 1.385 . S
C44 H72 0.930 . S
C45 C44 1.385 . S
C45 C46 1.395 . S
C45 H73 0.929 . S
C46 C45 1.395 . S
C46 C47 1.335 . S
C47 C46 1.335 . S
C47 C48 1.398 . S
C47 H74 0.930 . S
C48 C43 1.382 . S
C48 C47 1.398 . S
C48 H75 0.929 . S
C49 O62 1.271 . S
C49 O63 1.251 . S
C50 O64 1.252 . S
C50 O65 1.272 . S
C51 Sm41 2.846 . S
C51 C52 1.506 . S
C51 O66 1.261 . S
C51 O67 1.242 . S
C52 C51 1.506 . S
C52 C53 1.358 . S
C52 C57 1.382 . S
C53 C52 1.358 . S
C53 C54 1.385 . S
C53 H76 0.930 . S
C54 C53 1.385 . S
C54 C55 1.395 . S
C54 H77 0.929 . S
C55 C54 1.395 . S
C55 C56 1.335 . S
C56 C55 1.335 . S
C56 C57 1.398 . S
C56 H78 0.930 . S
C57 C52 1.382 . S
C57 C56 1.398 . S
C57 H79 0.929 . S
C58 O68 1.271 . S
C58 O69 1.251 . S
C59 O70 1.267 . S
C59 O71 1.272 . S
O60 Sm40 2.543 . S
O60 C42 1.261 . S
O61 Sm40 2.450 . S
O61 C42 1.242 . S
O62 Sm40 2.681 1_455 S
O62 Sm41 2.386 . S
O62 C49 1.271 . S
O63 Sm40 2.464 1_455 S
O63 C49 1.251 . S
O64 Sm40 2.396 1_455 S
O64 C50 1.252 . S
O65 Sm41 2.408 . S
O65 C50 1.272 . S
O66 Sm41 2.543 . S
O66 C51 1.261 . S
O67 Sm41 2.450 . S
O67 C51 1.242 . S
O68 Sm40 2.386 . S
O68 Sm41 2.681 1_655 S
O68 C58 1.271 . S
O69 Sm41 2.464 1_655 S
O69 C58 1.251 . S
O70 Sm41 2.378 1_655 S
O70 C59 1.267 . S
O71 Sm40 2.408 . S
O71 C59 1.272 . S
H72 C44 0.930 . S
H73 C45 0.929 . S
H74 C47 0.930 . S
H75 C48 0.929 . S
H76 C53 0.930 . S
H77 C54 0.929 . S
H78 C56 0.930 . S
H79 C57 0.929 . S
Sm80 C82 2.846 . S
Sm80 O100 2.543 . S
Sm80 O101 2.450 . S
Sm80 O102 2.681 1_554 S
Sm80 O103 2.464 1_554 S
Sm80 O104 2.396 1_554 S
Sm80 O108 2.386 . S
Sm80 O111 2.408 . S
Sm81 C91 2.846 . S
Sm81 O102 2.386 . S
Sm81 O105 2.408 . S
Sm81 O106 2.543 . S
Sm81 O107 2.450 . S
Sm81 O108 2.681 1_556 S
Sm81 O109 2.464 1_556 S
Sm81 O110 2.377 1_556 S
C82 Sm80 2.846 . S
C82 C83 1.506 . S
C82 O100 1.261 . S
C82 O101 1.242 . S
C83 C82 1.506 . S
C83 C84 1.358 . S
C83 C88 1.382 . S
C84 C83 1.358 . S
C84 C85 1.385 . S
C84 H112 0.930 . S
C85 C84 1.385 . S
C85 C86 1.395 . S
C85 H113 0.929 . S
C86 C85 1.395 . S
C86 C87 1.335 . S
C87 C86 1.335 . S
C87 C88 1.398 . S
C87 H114 0.930 . S
C88 C83 1.382 . S
C88 C87 1.398 . S
C88 H115 0.929 . S
C89 O102 1.271 . S
C89 O103 1.251 . S
C90 O104 1.252 . S
C90 O105 1.272 . S
C91 Sm81 2.846 . S
C91 C92 1.506 . S
C91 O106 1.261 . S
C91 O107 1.242 . S
C92 C91 1.506 . S
C92 C93 1.358 . S
C92 C97 1.382 . S
C93 C92 1.358 . S
C93 C94 1.385 . S
C93 H116 0.930 . S
C94 C93 1.385 . S
C94 C95 1.395 . S
C94 H117 0.929 . S
C95 C94 1.395 . S
C95 C96 1.335 . S
C96 C95 1.335 . S
C96 C97 1.398 . S
C96 H118 0.930 . S
C97 C92 1.382 . S
C97 C96 1.398 . S
C97 H119 0.929 . S
C98 O108 1.271 . S
C98 O109 1.251 . S
C99 O110 1.268 . S
C99 O111 1.272 . S
O100 Sm80 2.543 . S
O100 C82 1.261 . S
O101 Sm80 2.450 . S
O101 C82 1.242 . S
O102 Sm80 2.681 1_556 S
O102 Sm81 2.386 . S
O102 C89 1.271 . S
O103 Sm80 2.464 1_556 S
O103 C89 1.251 . S
O104 Sm80 2.396 1_556 S
O104 C90 1.252 . S
O105 Sm81 2.408 . S
O105 C90 1.272 . S
O106 Sm81 2.543 . S
O106 C91 1.261 . S
O107 Sm81 2.450 . S
O107 C91 1.242 . S
O108 Sm80 2.386 . S
O108 Sm81 2.681 1_554 S
O108 C98 1.271 . S
O109 Sm81 2.464 1_554 S
O109 C98 1.251 . S
O110 Sm81 2.377 1_554 S
O110 C99 1.268 . S
O111 Sm80 2.408 . S
O111 C99 1.272 . S
H112 C84 0.930 . S
H113 C85 0.929 . S
H114 C87 0.930 . S
H115 C88 0.929 . S
H116 C93 0.930 . S
H117 C94 0.929 . S
H118 C96 0.930 . S
H119 C97 0.929 . S
Sm120 C122 2.846 . S
Sm120 O140 2.543 . S
Sm120 O141 2.450 . S
Sm120 O142 2.681 . S
Sm120 O143 2.464 . S
Sm120 O144 2.396 . S
Sm120 O148 2.386 . S
Sm120 O151 2.408 . S
Sm121 C131 2.846 . S
Sm121 O142 2.386 . S
Sm121 O145 2.408 . S
Sm121 O146 2.543 . S
Sm121 O147 2.450 . S
Sm121 O148 2.681 . S
Sm121 O149 2.464 . S
Sm121 O150 2.396 . S
C122 Sm120 2.846 . S
C122 C123 1.506 . S
C122 O140 1.261 . S
C122 O141 1.242 . S
C123 C122 1.506 . S
C123 C124 1.358 . S
C123 C128 1.382 . S
C124 C123 1.358 . S
C124 C125 1.385 . S
C124 H152 0.930 . S
C125 C124 1.385 . S
C125 C126 1.395 . S
C125 H153 0.929 . S
C126 C125 1.395 . S
C126 C127 1.335 . S
C127 C126 1.335 . S
C127 C128 1.398 . S
C127 H154 0.930 . S
C128 C123 1.382 . S
C128 C127 1.398 . S
C128 H155 0.929 . S
C129 O142 1.271 . S
C129 O143 1.251 . S
C130 O144 1.252 . S
C130 O145 1.272 . S
C131 Sm121 2.846 . S
C131 C132 1.506 . S
C131 O146 1.261 . S
C131 O147 1.242 . S
C132 C131 1.506 . S
C132 C133 1.358 . S
C132 C137 1.382 . S
C133 C132 1.358 . S
C133 C134 1.385 . S
C133 H156 0.930 . S
C134 C133 1.385 . S
C134 C135 1.395 . S
C134 H157 0.929 . S
C135 C134 1.395 . S
C135 C136 1.335 . S
C136 C135 1.335 . S
C136 C137 1.398 . S
C136 H158 0.930 . S
C137 C132 1.382 . S
C137 C136 1.398 . S
C137 H159 0.929 . S
C138 O148 1.271 . S
C138 O149 1.251 . S
C139 O150 1.252 . S
C139 O151 1.272 . S
O140 Sm120 2.543 . S
O140 C122 1.261 . S
O141 Sm120 2.450 . S
O141 C122 1.242 . S
O142 Sm120 2.681 . S
O142 Sm121 2.386 . S
O142 C129 1.271 . S
O143 Sm120 2.464 . S
O143 C129 1.251 . S
O144 Sm120 2.396 . S
O144 C130 1.252 . S
O145 Sm121 2.408 . S
O145 C130 1.272 . S
O146 Sm121 2.543 . S
O146 C131 1.261 . S
O147 Sm121 2.450 . S
O147 C131 1.242 . S
O148 Sm120 2.386 . S
O148 Sm121 2.681 . S
O148 C138 1.271 . S
O149 Sm121 2.464 . S
O149 C138 1.251 . S
O150 Sm121 2.396 . S
O150 C139 1.252 . S
O151 Sm120 2.408 . S
O151 C139 1.272 . S
H152 C124 0.930 . S
H153 C125 0.929 . S
H154 C127 0.930 . S
H155 C128 0.929 . S
H156 C133 0.930 . S
H157 C134 0.929 . S
H158 C136 0.930 . S
H159 C137 0.929 . S
Sm160 C162 2.846 . S
Sm160 O180 2.543 . S
Sm160 O181 2.450 . S
Sm160 O182 2.681 . S
Sm160 O183 2.464 . S
Sm160 O184 2.396 . S
Sm160 O188 2.386 . S
Sm160 O191 2.408 . S
Sm161 C171 2.846 . S
Sm161 O182 2.386 . S
Sm161 O185 2.408 . S
Sm161 O186 2.543 . S
Sm161 O187 2.450 . S
Sm161 O188 2.681 . S
Sm161 O189 2.464 . S
Sm161 O190 2.396 . S
C162 Sm160 2.846 . S
C162 C163 1.506 . S
C162 O180 1.261 . S
C162 O181 1.242 . S
C163 C162 1.506 . S
C163 C164 1.358 . S
C163 C168 1.382 . S
C164 C163 1.358 . S
C164 C165 1.385 . S
C164 H192 0.930 . S
C165 C164 1.385 . S
C165 C166 1.395 . S
C165 H193 0.929 . S
C166 C165 1.395 . S
C166 C167 1.335 . S
C167 C166 1.335 . S
C167 C168 1.398 . S
C167 H194 0.930 . S
C168 C163 1.382 . S
C168 C167 1.398 . S
C168 H195 0.929 . S
C169 O182 1.271 . S
C169 O183 1.251 . S
C170 O184 1.252 . S
C170 O185 1.272 . S
C171 Sm161 2.846 . S
C171 C172 1.506 . S
C171 O186 1.261 . S
C171 O187 1.242 . S
C172 C171 1.506 . S
C172 C173 1.358 . S
C172 C177 1.382 . S
C173 C172 1.358 . S
C173 C174 1.385 . S
C173 H196 0.930 . S
C174 C173 1.385 . S
C174 C175 1.395 . S
C174 H197 0.929 . S
C175 C174 1.395 . S
C175 C176 1.335 . S
C176 C175 1.335 . S
C176 C177 1.398 . S
C176 H198 0.930 . S
C177 C172 1.382 . S
C177 C176 1.398 . S
C177 H199 0.929 . S
C178 O188 1.271 . S
C178 O189 1.251 . S
C179 O190 1.252 . S
C179 O191 1.272 . S
O180 Sm160 2.543 . S
O180 C162 1.261 . S
O181 Sm160 2.450 . S
O181 C162 1.242 . S
O182 Sm160 2.681 . S
O182 Sm161 2.386 . S
O182 C169 1.271 . S
O183 Sm160 2.464 . S
O183 C169 1.251 . S
O184 Sm160 2.396 . S
O184 C170 1.252 . S
O185 Sm161 2.408 . S
O185 C170 1.272 . S
O186 Sm161 2.543 . S
O186 C171 1.261 . S
O187 Sm161 2.450 . S
O187 C171 1.242 . S
O188 Sm160 2.386 . S
O188 Sm161 2.681 . S
O188 C178 1.271 . S
O189 Sm161 2.464 . S
O189 C178 1.251 . S
O190 Sm161 2.396 . S
O190 C179 1.252 . S
O191 Sm160 2.408 . S
O191 C179 1.272 . S
H192 C164 0.930 . S
H193 C165 0.929 . S
H194 C167 0.930 . S
H195 C168 0.929 . S
H196 C173 0.930 . S
H197 C174 0.929 . S
H198 C176 0.930 . S
H199 C177 0.929 . S
Sm200 C202 2.846 . S
Sm200 O220 2.543 . S
Sm200 O221 2.450 . S
Sm200 O222 2.681 . S
Sm200 O223 2.464 . S
Sm200 O224 2.396 . S
Sm200 O228 2.386 1_655 S
Sm200 O231 2.408 1_655 S
Sm201 C211 2.846 . S
Sm201 O222 2.386 1_455 S
Sm201 O225 2.408 1_455 S
Sm201 O226 2.543 . S
Sm201 O227 2.450 . S
Sm201 O228 2.681 . S
Sm201 O229 2.464 . S
Sm201 O230 2.396 . S
C202 Sm200 2.846 . S
C202 C203 1.506 . S
C202 O220 1.261 . S
C202 O221 1.242 . S
C203 C202 1.506 . S
C203 C204 1.358 . S
C203 C208 1.382 . S
C204 C203 1.358 . S
C204 C205 1.385 . S
C204 H232 0.930 . S
C205 C204 1.385 . S
C205 C206 1.395 . S
C205 H233 0.929 . S
C206 C205 1.395 . S
C206 C207 1.335 . S
C207 C206 1.335 . S
C207 C208 1.398 . S
C207 H234 0.930 . S
C208 C203 1.382 . S
C208 C207 1.398 . S
C208 H235 0.929 . S
C209 O222 1.271 . S
C209 O223 1.251 . S
C210 O224 1.252 . S
C210 O225 1.272 . S
C211 Sm201 2.846 . S
C211 C212 1.506 . S
C211 O226 1.261 . S
C211 O227 1.242 . S
C212 C211 1.506 . S
C212 C213 1.358 . S
C212 C217 1.382 . S
C213 C212 1.358 . S
C213 C214 1.385 . S
C213 H236 0.930 . S
C214 C213 1.385 . S
C214 C215 1.395 . S
C214 H237 0.929 . S
C215 C214 1.395 . S
C215 C216 1.335 . S
C216 C215 1.335 . S
C216 C217 1.398 . S
C216 H238 0.930 . S
C217 C212 1.382 . S
C217 C216 1.398 . S
C217 H239 0.929 . S
C218 O228 1.271 . S
C218 O229 1.251 . S
C219 O230 1.252 . S
C219 O231 1.272 . S
O220 Sm200 2.543 . S
O220 C202 1.261 . S
O221 Sm200 2.450 . S
O221 C202 1.242 . S
O222 Sm200 2.681 . S
O222 Sm201 2.386 1_655 S
O222 C209 1.271 . S
O223 Sm200 2.464 . S
O223 C209 1.251 . S
O224 Sm200 2.396 . S
O224 C210 1.252 . S
O225 Sm201 2.408 1_655 S
O225 C210 1.272 . S
O226 Sm201 2.543 . S
O226 C211 1.261 . S
O227 Sm201 2.450 . S
O227 C211 1.242 . S
O228 Sm200 2.386 1_455 S
O228 Sm201 2.681 . S
O228 C218 1.271 . S
O229 Sm201 2.464 . S
O229 C218 1.251 . S
O230 Sm201 2.396 . S
O230 C219 1.252 . S
O231 Sm200 2.408 1_455 S
O231 C219 1.272 . S
H232 C204 0.930 . S
H233 C205 0.929 . S
H234 C207 0.930 . S
H235 C208 0.929 . S
H236 C213 0.930 . S
H237 C214 0.929 . S
H238 C216 0.930 . S
H239 C217 0.929 . S
Sm240 C242 2.846 . S
Sm240 O260 2.543 . S
Sm240 O261 2.450 . S
Sm240 O262 2.681 . S
Sm240 O263 2.464 . S
Sm240 O264 2.396 . S
Sm240 O268 2.386 1_554 S
Sm240 O271 2.408 1_554 S
Sm241 C251 2.846 . S
Sm241 O262 2.386 1_556 S
Sm241 O265 2.408 1_556 S
Sm241 O266 2.543 . S
Sm241 O267 2.450 . S
Sm241 O268 2.681 . S
Sm241 O269 2.464 . S
Sm241 O270 2.396 . S
C242 Sm240 2.846 . S
C242 C243 1.506 . S
C242 O260 1.261 . S
C242 O261 1.242 . S
C243 C242 1.506 . S
C243 C244 1.358 . S
C243 C248 1.382 . S
C244 C243 1.358 . S
C244 C245 1.385 . S
C244 H272 0.930 . S
C245 C244 1.385 . S
C245 C246 1.395 . S
C245 H273 0.929 . S
C246 C245 1.395 . S
C246 C247 1.335 . S
C247 C246 1.335 . S
C247 C248 1.398 . S
C247 H274 0.930 . S
C248 C243 1.382 . S
C248 C247 1.398 . S
C248 H275 0.929 . S
C249 O262 1.271 . S
C249 O263 1.251 . S
C250 O264 1.252 . S
C250 O265 1.272 . S
C251 Sm241 2.846 . S
C251 C252 1.506 . S
C251 O266 1.261 . S
C251 O267 1.242 . S
C252 C251 1.506 . S
C252 C253 1.358 . S
C252 C257 1.382 . S
C253 C252 1.358 . S
C253 C254 1.385 . S
C253 H276 0.930 . S
C254 C253 1.385 . S
C254 C255 1.395 . S
C254 H277 0.929 . S
C255 C254 1.395 . S
C255 C256 1.335 . S
C256 C255 1.335 . S
C256 C257 1.398 . S
C256 H278 0.930 . S
C257 C252 1.382 . S
C257 C256 1.398 . S
C257 H279 0.929 . S
C258 O268 1.271 . S
C258 O269 1.251 . S
C259 O270 1.252 . S
C259 O271 1.272 . S
O260 Sm240 2.543 . S
O260 C242 1.261 . S
O261 Sm240 2.450 . S
O261 C242 1.242 . S
O262 Sm240 2.681 . S
O262 Sm241 2.386 1_554 S
O262 C249 1.271 . S
O263 Sm240 2.464 . S
O263 C249 1.251 . S
O264 Sm240 2.396 . S
O264 C250 1.252 . S
O265 Sm241 2.408 1_554 S
O265 C250 1.272 . S
O266 Sm241 2.543 . S
O266 C251 1.261 . S
O267 Sm241 2.450 . S
O267 C251 1.242 . S
O268 Sm240 2.386 1_556 S
O268 Sm241 2.681 . S
O268 C258 1.271 . S
O269 Sm241 2.464 . S
O269 C258 1.251 . S
O270 Sm241 2.396 . S
O270 C259 1.252 . S
O271 Sm240 2.408 1_556 S
O271 C259 1.272 . S
H272 C244 0.930 . S
H273 C245 0.929 . S
H274 C247 0.930 . S
H275 C248 0.929 . S
H276 C253 0.930 . S
H277 C254 0.929 . S
H278 C256 0.930 . S
H279 C257 0.929 . S
Sm280 C282 2.846 . S
Sm280 O300 2.543 . S
Sm280 O301 2.450 . S
Sm280 O302 2.681 . S
Sm280 O303 2.464 . S
Sm280 O304 2.396 . S
Sm280 O308 2.386 . S
Sm280 O311 2.408 . S
Sm281 C291 2.846 . S
Sm281 O302 2.386 . S
Sm281 O305 2.408 . S
Sm281 O306 2.543 . S
Sm281 O307 2.450 . S
Sm281 O308 2.681 . S
Sm281 O309 2.464 . S
Sm281 O310 2.396 . S
C282 Sm280 2.846 . S
C282 C283 1.506 . S
C282 O300 1.261 . S
C282 O301 1.242 . S
C283 C282 1.506 . S
C283 C284 1.358 . S
C283 C288 1.382 . S
C284 C283 1.358 . S
C284 C285 1.385 . S
C284 H312 0.930 . S
C285 C284 1.385 . S
C285 C286 1.395 . S
C285 H313 0.929 . S
C286 C285 1.395 . S
C286 C287 1.335 . S
C287 C286 1.335 . S
C287 C288 1.398 . S
C287 H314 0.930 . S
C288 C283 1.382 . S
C288 C287 1.398 . S
C288 H315 0.929 . S
C289 O302 1.271 . S
C289 O303 1.251 . S
C290 O304 1.252 . S
C290 O305 1.272 . S
C291 Sm281 2.846 . S
C291 C292 1.506 . S
C291 O306 1.261 . S
C291 O307 1.242 . S
C292 C291 1.506 . S
C292 C293 1.358 . S
C292 C297 1.382 . S
C293 C292 1.358 . S
C293 C294 1.385 . S
C293 H316 0.930 . S
C294 C293 1.385 . S
C294 C295 1.395 . S
C294 H317 0.929 . S
C295 C294 1.395 . S
C295 C296 1.335 . S
C296 C295 1.335 . S
C296 C297 1.398 . S
C296 H318 0.930 . S
C297 C292 1.382 . S
C297 C296 1.398 . S
C297 H319 0.929 . S
C298 O308 1.271 . S
C298 O309 1.251 . S
C299 O310 1.252 . S
C299 O311 1.272 . S
O300 Sm280 2.543 . S
O300 C282 1.261 . S
O301 Sm280 2.450 . S
O301 C282 1.242 . S
O302 Sm280 2.681 . S
O302 Sm281 2.386 . S
O302 C289 1.271 . S
O303 Sm280 2.464 . S
O303 C289 1.251 . S
O304 Sm280 2.396 . S
O304 C290 1.252 . S
O305 Sm281 2.408 . S
O305 C290 1.272 . S
O306 Sm281 2.543 . S
O306 C291 1.261 . S
O307 Sm281 2.450 . S
O307 C291 1.242 . S
O308 Sm280 2.386 . S
O308 Sm281 2.681 . S
O308 C298 1.271 . S
O309 Sm281 2.464 . S
O309 C298 1.251 . S
O310 Sm281 2.396 . S
O310 C299 1.252 . S
O311 Sm280 2.408 . S
O311 C299 1.272 . S
H312 C284 0.930 . S
H313 C285 0.929 . S
H314 C287 0.930 . S
H315 C288 0.929 . S
H316 C293 0.930 . S
H317 C294 0.929 . S
H318 C296 0.930 . S
H319 C297 0.929 . S
Sm320 C322 2.846 . S
Sm320 O340 2.543 . S
Sm320 O341 2.450 . S
Sm320 O342 2.681 . S
Sm320 O343 2.464 . S
Sm320 O344 2.396 . S
Sm320 O348 2.386 . S
Sm320 O351 2.408 . S
Sm321 C331 2.846 . S
Sm321 O342 2.386 . S
Sm321 O345 2.408 . S
Sm321 O346 2.543 . S
Sm321 O347 2.450 . S
Sm321 O348 2.681 . S
Sm321 O349 2.464 . S
Sm321 O350 2.396 . S
C322 Sm320 2.846 . S
C322 C323 1.506 . S
C322 O340 1.261 . S
C322 O341 1.242 . S
C323 C322 1.506 . S
C323 C324 1.358 . S
C323 C328 1.382 . S
C324 C323 1.358 . S
C324 C325 1.385 . S
C324 H352 0.930 . S
C325 C324 1.385 . S
C325 C326 1.395 . S
C325 H353 0.929 . S
C326 C325 1.395 . S
C326 C327 1.335 . S
C327 C326 1.335 . S
C327 C328 1.398 . S
C327 H354 0.930 . S
C328 C323 1.382 . S
C328 C327 1.398 . S
C328 H355 0.929 . S
C329 O342 1.271 . S
C329 O343 1.251 . S
C330 O344 1.252 . S
C330 O345 1.272 . S
C331 Sm321 2.846 . S
C331 C332 1.506 . S
C331 O346 1.261 . S
C331 O347 1.242 . S
C332 C331 1.506 . S
C332 C333 1.358 . S
C332 C337 1.382 . S
C333 C332 1.358 . S
C333 C334 1.385 . S
C333 H356 0.930 . S
C334 C333 1.385 . S
C334 C335 1.395 . S
C334 H357 0.929 . S
C335 C334 1.395 . S
C335 C336 1.335 . S
C336 C335 1.335 . S
C336 C337 1.398 . S
C336 H358 0.930 . S
C337 C332 1.382 . S
C337 C336 1.398 . S
C337 H359 0.929 . S
C338 O348 1.271 . S
C338 O349 1.251 . S
C339 O350 1.252 . S
C339 O351 1.272 . S
O340 Sm320 2.543 . S
O340 C322 1.261 . S
O341 Sm320 2.450 . S
O341 C322 1.242 . S
O342 Sm320 2.681 . S
O342 Sm321 2.386 . S
O342 C329 1.271 . S
O343 Sm320 2.464 . S
O343 C329 1.251 . S
O344 Sm320 2.396 . S
O344 C330 1.252 . S
O345 Sm321 2.408 . S
O345 C330 1.272 . S
O346 Sm321 2.543 . S
O346 C331 1.261 . S
O347 Sm321 2.450 . S
O347 C331 1.242 . S
O348 Sm320 2.386 . S
O348 Sm321 2.681 . S
O348 C338 1.271 . S
O349 Sm321 2.464 . S
O349 C338 1.251 . S
O350 Sm321 2.396 . S
O350 C339 1.252 . S
O351 Sm320 2.408 . S
O351 C339 1.272 . S
H352 C324 0.930 . S
H353 C325 0.929 . S
H354 C327 0.930 . S
H355 C328 0.929 . S
H356 C333 0.930 . S
H357 C334 0.929 . S
H358 C336 0.930 . S
H359 C337 0.929 . S
Sm360 C362 2.846 . S
Sm360 O380 2.543 . S
Sm360 O381 2.450 . S
Sm360 O382 2.681 1_565 S
Sm360 O383 2.464 1_565 S
Sm360 O384 2.396 1_565 S
Sm360 O388 2.386 . S
Sm360 O391 2.408 . S
Sm361 C371 2.846 . S
Sm361 O382 2.386 . S
Sm361 O385 2.408 . S
Sm361 O386 2.543 . S
Sm361 O387 2.450 . S
Sm361 O388 2.681 1_545 S
Sm361 O389 2.464 1_545 S
Sm361 O390 2.396 1_545 S
C362 Sm360 2.846 . S
C362 C363 1.506 . S
C362 O380 1.261 . S
C362 O381 1.242 . S
C363 C362 1.506 . S
C363 C364 1.358 . S
C363 C368 1.382 . S
C364 C363 1.358 . S
C364 C365 1.385 . S
C364 H392 0.930 . S
C365 C364 1.385 . S
C365 C366 1.395 . S
C365 H393 0.929 . S
C366 C365 1.395 . S
C366 C367 1.335 . S
C367 C366 1.335 . S
C367 C368 1.398 . S
C367 H394 0.930 . S
C368 C363 1.382 . S
C368 C367 1.398 . S
C368 H395 0.929 . S
C369 O382 1.271 . S
C369 O383 1.251 . S
C370 O384 1.252 . S
C370 O385 1.272 . S
C371 Sm361 2.846 . S
C371 C372 1.506 . S
C371 O386 1.261 . S
C371 O387 1.242 . S
C372 C371 1.506 . S
C372 C373 1.358 . S
C372 C377 1.382 . S
C373 C372 1.358 . S
C373 C374 1.385 . S
C373 H396 0.930 . S
C374 C373 1.385 . S
C374 C375 1.395 . S
C374 H397 0.929 . S
C375 C374 1.395 . S
C375 C376 1.335 . S
C376 C375 1.335 . S
C376 C377 1.398 . S
C376 H398 0.930 . S
C377 C372 1.382 . S
C377 C376 1.398 . S
C377 H399 0.929 . S
C378 O388 1.271 . S
C378 O389 1.251 . S
C379 O390 1.252 . S
C379 O391 1.272 . S
O380 Sm360 2.543 . S
O380 C362 1.261 . S
O381 Sm360 2.450 . S
O381 C362 1.242 . S
O382 Sm360 2.681 1_545 S
O382 Sm361 2.386 . S
O382 C369 1.271 . S
O383 Sm360 2.464 1_545 S
O383 C369 1.251 . S
O384 Sm360 2.396 1_545 S
O384 C370 1.252 . S
O385 Sm361 2.408 . S
O385 C370 1.272 . S
O386 Sm361 2.543 . S
O386 C371 1.261 . S
O387 Sm361 2.450 . S
O387 C371 1.242 . S
O388 Sm360 2.386 . S
O388 Sm361 2.681 1_565 S
O388 C378 1.271 . S
O389 Sm361 2.464 1_565 S
O389 C378 1.251 . S
O390 Sm361 2.396 1_565 S
O390 C379 1.252 . S
O391 Sm360 2.408 . S
O391 C379 1.272 . S
H392 C364 0.930 . S
H393 C365 0.929 . S
H394 C367 0.930 . S
H395 C368 0.929 . S
H396 C373 0.930 . S
H397 C374 0.929 . S
H398 C376 0.930 . S
H399 C377 0.929 . S
Sm400 C402 2.846 . S
Sm400 O420 2.543 . S
Sm400 O421 2.450 . S
Sm400 O422 2.681 . S
Sm400 O423 2.464 . S
Sm400 O424 2.396 . S
Sm400 O428 2.386 1_565 S
Sm400 O431 2.408 1_565 S
Sm401 C411 2.846 . S
Sm401 O422 2.386 1_545 S
Sm401 O425 2.408 1_545 S
Sm401 O426 2.543 . S
Sm401 O427 2.450 . S
Sm401 O428 2.681 . S
Sm401 O429 2.464 . S
Sm401 O430 2.396 . S
C402 Sm400 2.846 . S
C402 C403 1.506 . S
C402 O420 1.261 . S
C402 O421 1.242 . S
C403 C402 1.506 . S
C403 C404 1.358 . S
C403 C408 1.382 . S
C404 C403 1.358 . S
C404 C405 1.385 . S
C404 H432 0.930 . S
C405 C404 1.385 . S
C405 C406 1.395 . S
C405 H433 0.929 . S
C406 C405 1.395 . S
C406 C407 1.335 . S
C407 C406 1.335 . S
C407 C408 1.398 . S
C407 H434 0.930 . S
C408 C403 1.382 . S
C408 C407 1.398 . S
C408 H435 0.929 . S
C409 O422 1.271 . S
C409 O423 1.251 . S
C410 O424 1.252 . S
C410 O425 1.272 . S
C411 Sm401 2.846 . S
C411 C412 1.506 . S
C411 O426 1.261 . S
C411 O427 1.242 . S
C412 C411 1.506 . S
C412 C413 1.358 . S
C412 C417 1.382 . S
C413 C412 1.358 . S
C413 C414 1.385 . S
C413 H436 0.930 . S
C414 C413 1.385 . S
C414 C415 1.395 . S
C414 H437 0.929 . S
C415 C414 1.395 . S
C415 C416 1.335 . S
C416 C415 1.335 . S
C416 C417 1.398 . S
C416 H438 0.930 . S
C417 C412 1.382 . S
C417 C416 1.398 . S
C417 H439 0.929 . S
C418 O428 1.271 . S
C418 O429 1.251 . S
C419 O430 1.252 . S
C419 O431 1.272 . S
O420 Sm400 2.543 . S
O420 C402 1.261 . S
O421 Sm400 2.450 . S
O421 C402 1.242 . S
O422 Sm400 2.681 . S
O422 Sm401 2.386 1_565 S
O422 C409 1.271 . S
O423 Sm400 2.464 . S
O423 C409 1.251 . S
O424 Sm400 2.396 . S
O424 C410 1.252 . S
O425 Sm401 2.408 1_565 S
O425 C410 1.272 . S
O426 Sm401 2.543 . S
O426 C411 1.261 . S
O427 Sm401 2.450 . S
O427 C411 1.242 . S
O428 Sm400 2.386 1_545 S
O428 Sm401 2.681 . S
O428 C418 1.271 . S
O429 Sm401 2.464 . S
O429 C418 1.251 . S
O430 Sm401 2.396 . S
O430 C419 1.252 . S
O431 Sm400 2.408 1_545 S
O431 C419 1.272 . S
H432 C404 0.930 . S
H433 C405 0.929 . S
H434 C407 0.930 . S
H435 C408 0.929 . S
H436 C413 0.930 . S
H437 C414 0.929 . S
H438 C416 0.930 . S
H439 C417 0.929 . S
Sm440 C442 2.846 . S
Sm440 O460 2.543 . S
Sm440 O461 2.450 . S
Sm440 O462 2.681 . S
Sm440 O463 2.464 . S
Sm440 O464 2.396 . S
Sm440 O468 2.386 . S
Sm440 O471 2.408 . S
Sm441 C451 2.846 . S
Sm441 O462 2.386 . S
Sm441 O465 2.408 . S
Sm441 O466 2.543 . S
Sm441 O467 2.450 . S
Sm441 O468 2.681 . S
Sm441 O469 2.464 . S
Sm441 O470 2.396 . S
C442 Sm440 2.846 . S
C442 C443 1.506 . S
C442 O460 1.261 . S
C442 O461 1.242 . S
C443 C442 1.506 . S
C443 C444 1.358 . S
C443 C448 1.382 . S
C444 C443 1.358 . S
C444 C445 1.385 . S
C444 H472 0.930 . S
C445 C444 1.385 . S
C445 C446 1.395 . S
C445 H473 0.929 . S
C446 C445 1.395 . S
C446 C447 1.335 . S
C447 C446 1.335 . S
C447 C448 1.398 . S
C447 H474 0.930 . S
C448 C443 1.382 . S
C448 C447 1.398 . S
C448 H475 0.929 . S
C449 O462 1.271 . S
C449 O463 1.251 . S
C450 O464 1.252 . S
C450 O465 1.272 . S
C451 Sm441 2.846 . S
C451 C452 1.506 . S
C451 O466 1.261 . S
C451 O467 1.242 . S
C452 C451 1.506 . S
C452 C453 1.358 . S
C452 C457 1.382 . S
C453 C452 1.358 . S
C453 C454 1.385 . S
C453 H476 0.930 . S
C454 C453 1.385 . S
C454 C455 1.395 . S
C454 H477 0.929 . S
C455 C454 1.395 . S
C455 C456 1.335 . S
C456 C455 1.335 . S
C456 C457 1.398 . S
C456 H478 0.930 . S
C457 C452 1.382 . S
C457 C456 1.398 . S
C457 H479 0.929 . S
C458 O468 1.271 . S
C458 O469 1.251 . S
C459 O470 1.252 . S
C459 O471 1.272 . S
O460 Sm440 2.543 . S
O460 C442 1.261 . S
O461 Sm440 2.450 . S
O461 C442 1.242 . S
O462 Sm440 2.681 . S
O462 Sm441 2.386 . S
O462 C449 1.271 . S
O463 Sm440 2.464 . S
O463 C449 1.251 . S
O464 Sm440 2.396 . S
O464 C450 1.252 . S
O465 Sm441 2.408 . S
O465 C450 1.272 . S
O466 Sm441 2.543 . S
O466 C451 1.261 . S
O467 Sm441 2.450 . S
O467 C451 1.242 . S
O468 Sm440 2.386 . S
O468 Sm441 2.681 . S
O468 C458 1.271 . S
O469 Sm441 2.464 . S
O469 C458 1.251 . S
O470 Sm441 2.396 . S
O470 C459 1.252 . S
O471 Sm440 2.408 . S
O471 C459 1.272 . S
H472 C444 0.930 . S
H473 C445 0.929 . S
H474 C447 0.930 . S
H475 C448 0.929 . S
H476 C453 0.930 . S
H477 C454 0.929 . S
H478 C456 0.930 . S
H479 C457 0.929 . S
C480 C481 1.387 . S
C480 H484 0.950 . S
C480 C489 1.390 . S
C481 C480 1.387 . S
C481 C483 1.387 . S
H482 C489 0.950 . S
C483 C481 1.387 . S
C483 C485 1.390 . S
C483 H487 0.950 . S
H484 C480 0.950 . S
C485 C483 1.390 . S
C485 C486 1.387 . S
C485 H488 0.950 . S
C486 C485 1.387 . S
C486 C489 1.387 . S
H487 C483 0.950 . S
H488 C485 0.950 . S
C489 C480 1.390 . S
C489 H482 0.950 . S
C489 C486 1.387 . S
C490 C491 1.387 . S
C490 H494 0.950 1_565 S
C490 C499 1.390 . S
C491 C490 1.387 . S
C491 C493 1.387 . S
H492 C499 0.950 . S
C493 C491 1.387 . S
C493 C495 1.390 . S
C493 H497 0.950 . S
H494 C490 0.950 1_545 S
C495 C493 1.390 . S
C495 C496 1.387 . S
C495 H498 0.950 . S
C496 C495 1.387 . S
C496 C499 1.387 . S
H497 C493 0.950 . S
H498 C495 0.950 . S
C499 C490 1.390 . S
C499 H492 0.950 . S
C499 C496 1.387 . S
C500 C501 1.387 . S
C500 H504 0.950 . S
C500 C509 1.390 . S
C501 C500 1.387 . S
C501 C503 1.387 . S
H502 C509 0.950 . S
C503 C501 1.387 . S
C503 C505 1.390 . S
C503 H507 0.950 . S
H504 C500 0.950 . S
C505 C503 1.390 . S
C505 C506 1.387 . S
C505 H508 0.950 . S
C506 C505 1.387 . S
C506 C509 1.387 . S
H507 C503 0.950 . S
H508 C505 0.950 . S
C509 C500 1.390 . S
C509 H502 0.950 . S
C509 C506 1.387 . S
C510 C511 1.387 . S
C510 H514 0.950 . S
C510 C519 1.390 . S
C511 C510 1.387 . S
C511 C513 1.387 . S
H512 C519 0.950 . S
C513 C511 1.387 . S
C513 C515 1.390 . S
C513 H517 0.950 . S
H514 C510 0.950 . S
C515 C513 1.390 . S
C515 C516 1.387 . S
C515 H518 0.950 . S
C516 C515 1.387 . S
C516 C519 1.387 . S
H517 C513 0.950 . S
H518 C515 0.950 . S
C519 C510 1.390 . S
C519 H512 0.950 . S
C519 C516 1.387 . S
C520 C521 1.387 . S
C520 H524 0.950 . S
C520 C529 1.390 . S
C521 C520 1.387 . S
C521 C523 1.387 . S
H522 C529 0.950 . S
C523 C521 1.387 . S
C523 C525 1.390 . S
C523 H527 0.950 . S
H524 C520 0.950 . S
C525 C523 1.390 . S
C525 C526 1.387 . S
C525 H528 0.950 . S
C526 C525 1.387 . S
C526 C529 1.387 . S
H527 C523 0.950 . S
H528 C525 0.950 . S
C529 C520 1.390 . S
C529 H522 0.950 . S
C529 C526 1.387 . S
C530 C531 1.387 . S
C530 H534 0.950 . S
C530 C539 1.390 . S
C531 C530 1.387 . S
C531 C533 1.387 . S
H532 C539 0.950 . S
C533 C531 1.387 . S
C533 C535 1.390 . S
C533 H537 0.950 . S
H534 C530 0.950 . S
C535 C533 1.390 . S
C535 C536 1.387 . S
C535 H538 0.950 . S
C536 C535 1.387 . S
C536 C539 1.387 . S
H537 C533 0.950 . S
H538 C535 0.950 . S
C539 C530 1.390 . S
C539 H532 0.950 . S
C539 C536 1.387 . S
C540 C541 1.387 . S
C540 H544 0.950 1_556 S
C540 C549 1.390 . S
C541 C540 1.387 . S
C541 C543 1.387 . S
H542 C549 0.950 1_554 S
C543 C541 1.387 . S
C543 C545 1.390 . S
C543 H547 0.950 . S
H544 C540 0.950 1_554 S
C545 C543 1.390 . S
C545 C546 1.387 . S
C545 H548 0.950 . S
C546 C545 1.387 . S
C546 C549 1.387 . S
H547 C543 0.950 . S
H548 C545 0.950 . S
C549 C540 1.390 . S
C549 H542 0.950 1_556 S
C549 C546 1.387 . S
C550 C551 1.387 . S
C550 H554 0.950 . S
C550 C559 1.390 . S
C551 C550 1.387 . S
C551 C553 1.387 . S
H552 C559 0.950 . S
C553 C551 1.387 . S
C553 C555 1.390 . S
C553 H557 0.950 . S
H554 C550 0.950 . S
C555 C553 1.390 . S
C555 C556 1.387 . S
C555 H558 0.950 . S
C556 C555 1.387 . S
C556 C559 1.387 . S
H557 C553 0.950 . S
H558 C555 0.950 . S
C559 C550 1.390 . S
C559 H552 0.950 . S
C559 C556 1.387 . S
C560 C561 1.387 . S
C560 H564 0.950 . S
C560 C569 1.390 . S
C561 C560 1.387 . S
C561 C563 1.387 . S
H562 C569 0.950 . S
C563 C561 1.387 . S
C563 C565 1.390 . S
C563 H567 0.950 . S
H564 C560 0.950 . S
C565 C563 1.390 . S
C565 C566 1.387 . S
C565 H568 0.950 . S
C566 C565 1.387 . S
C566 C569 1.387 . S
H567 C563 0.950 . S
H568 C565 0.950 . S
C569 C560 1.390 . S
C569 H562 0.950 . S
C569 C566 1.387 . S
C570 C571 1.387 . S
C570 H574 0.950 . S
C570 C579 1.390 . S
C571 C570 1.387 . S
C571 C573 1.387 . S
H572 C579 0.950 . S
C573 C571 1.387 . S
C573 C575 1.390 . S
C573 H577 0.950 . S
H574 C570 0.950 . S
C575 C573 1.390 . S
C575 C576 1.387 . S
C575 H578 0.950 . S
C576 C575 1.387 . S
C576 C579 1.387 . S
H577 C573 0.950 . S
H578 C575 0.950 . S
C579 C570 1.390 . S
C579 H572 0.950 . S
C579 C576 1.387 . S
C580 C581 1.387 . S
C580 H584 0.950 . S
C580 C589 1.390 . S
C581 C580 1.387 . S
C581 C583 1.387 . S
H582 C589 0.950 . S
C583 C581 1.387 . S
C583 C585 1.390 . S
C583 H587 0.950 . S
H584 C580 0.950 . S
C585 C583 1.390 . S
C585 C586 1.387 . S
C585 H588 0.950 . S
C586 C585 1.387 . S
C586 C589 1.387 . S
H587 C583 0.950 . S
H588 C585 0.950 . S
C589 C580 1.390 . S
C589 H582 0.950 . S
C589 C586 1.387 . S
C590 C591 1.387 . S
C590 H594 0.950 . S
C590 C599 1.390 . S
C591 C590 1.387 . S
C591 C593 1.387 . S
H592 C599 0.950 . S
C593 C591 1.387 . S
C593 C595 1.390 . S
C593 H597 0.950 . S
H594 C590 0.950 . S
C595 C593 1.390 . S
C595 C596 1.387 . S
C595 H598 0.950 . S
C596 C595 1.387 . S
C596 C599 1.387 . S
H597 C593 0.950 . S
H598 C595 0.950 . S
C599 C590 1.390 . S
C599 H592 0.950 . S
C599 C596 1.387 . S
C600 C601 1.387 . S
C600 H604 0.950 . S
C600 C609 1.390 . S
C601 C600 1.387 . S
C601 C603 1.387 . S
H602 C609 0.950 . S
C603 C601 1.387 . S
C603 C605 1.390 . S
C603 H607 0.950 . S
H604 C600 0.950 . S
C605 C603 1.390 . S
C605 C606 1.387 . S
C605 H608 0.950 . S
C606 C605 1.387 . S
C606 C609 1.387 . S
H607 C603 0.950 . S
H608 C605 0.950 . S
C609 C600 1.390 . S
C609 H602 0.950 . S
C609 C606 1.387 . S
C610 C611 1.387 . S
C610 H614 0.950 . S
C610 C619 1.390 . S
C611 C610 1.387 . S
C611 C613 1.387 . S
H612 C619 0.950 . S
C613 C611 1.387 . S
C613 C615 1.390 . S
C613 H617 0.950 . S
H614 C610 0.950 . S
C615 C613 1.390 . S
C615 C616 1.387 . S
C615 H618 0.950 1_565 S
C616 C615 1.387 . S
C616 C619 1.387 . S
H617 C613 0.950 . S
H618 C615 0.950 1_545 S
C619 C610 1.390 . S
C619 H612 0.950 . S
C619 C616 1.387 . S
C620 C621 1.387 . S
C620 H624 0.950 . S
C620 C629 1.390 . S
C621 C620 1.387 . S
C621 C623 1.387 . S
H622 C629 0.950 . S
C623 C621 1.387 . S
C623 C625 1.390 . S
C623 H627 0.950 . S
H624 C620 0.950 . S
C625 C623 1.390 . S
C625 C626 1.387 . S
C625 H628 0.950 . S
C626 C625 1.387 . S
C626 C629 1.387 . S
H627 C623 0.950 . S
H628 C625 0.950 . S
C629 C620 1.390 . S
C629 H622 0.950 . S
C629 C626 1.387 . S
C630 C631 1.387 . S
C630 H634 0.950 . S
C630 C639 1.390 1_554 S
C631 C630 1.387 . S
C631 C633 1.387 1_554 S
H632 C639 0.950 1_565 S
C633 C631 1.387 1_556 S
C633 C635 1.390 . S
C633 H637 0.950 . S
H634 C630 0.950 . S
C635 C633 1.390 . S
C635 C636 1.387 . S
C635 H638 0.950 . S
C636 C635 1.387 . S
C636 C639 1.387 . S
H637 C633 0.950 . S
H638 C635 0.950 . S
C639 C630 1.390 1_556 S
C639 H632 0.950 1_545 S
C639 C636 1.387 . S
C640 C641 1.387 . S
C640 H644 0.950 . S
C640 C649 1.390 . S
C641 C640 1.387 . S
C641 C643 1.387 . S
H642 C649 0.950 . S
C643 C641 1.387 . S
C643 C645 1.390 . S
C643 H647 0.950 . S
H644 C640 0.950 . S
C645 C643 1.390 . S
C645 C646 1.387 . S
C645 H648 0.950 . S
C646 C645 1.387 . S
C646 C649 1.387 . S
H647 C643 0.950 . S
H648 C645 0.950 . S
C649 C640 1.390 . S
C649 H642 0.950 . S
C649 C646 1.387 . S
C650 C651 1.387 1_556 S
C650 H654 0.950 1_556 S
C650 C659 1.390 . S
C651 C650 1.387 1_554 S
C651 C653 1.387 1_554 S
H652 C659 0.950 . S
C653 C651 1.387 1_556 S
C653 C655 1.390 . S
C653 H657 0.950 . S
H654 C650 0.950 1_554 S
C655 C653 1.390 . S
C655 C656 1.387 . S
C655 H658 0.950 . S
C656 C655 1.387 . S
C656 C659 1.387 . S
H657 C653 0.950 . S
H658 C655 0.950 . S
C659 C650 1.390 . S
C659 H652 0.950 . S
C659 C656 1.387 . S
C660 C661 1.387 . S
C660 H664 0.950 . S
C660 C669 1.390 . S
C661 C660 1.387 . S
C661 C663 1.387 . S
H662 C669 0.950 . S
C663 C661 1.387 . S
C663 C665 1.390 . S
C663 H667 0.950 . S
H664 C660 0.950 . S
C665 C663 1.390 . S
C665 C666 1.387 . S
C665 H668 0.950 . S
C666 C665 1.387 . S
C666 C669 1.387 . S
H667 C663 0.950 . S
H668 C665 0.950 . S
C669 C660 1.390 . S
C669 H662 0.950 . S
C669 C666 1.387 . S
C670 C671 1.387 . S
C670 H674 0.950 . S
C670 C679 1.390 . S
C671 C670 1.387 . S
C671 C673 1.387 . S
H672 C679 0.950 . S
C673 C671 1.387 . S
C673 C675 1.390 . S
C673 H677 0.950 . S
H674 C670 0.950 . S
C675 C673 1.390 . S
C675 C676 1.387 . S
C675 H678 0.950 . S
C676 C675 1.387 . S
C676 C679 1.387 . S
H677 C673 0.950 . S
H678 C675 0.950 . S
C679 C670 1.390 . S
C679 H672 0.950 . S
C679 C676 1.387 . S
C680 C681 1.387 . S
C680 H684 0.950 . S
C680 C689 1.390 . S
C681 C680 1.387 . S
C681 C683 1.387 . S
H682 C689 0.950 . S
C683 C681 1.387 . S
C683 C685 1.390 . S
C683 H687 0.950 . S
H684 C680 0.950 . S
C685 C683 1.390 . S
C685 C686 1.387 . S
C685 H688 0.950 . S
C686 C685 1.387 . S
C686 C689 1.387 . S
H687 C683 0.950 . S
H688 C685 0.950 . S
C689 C680 1.390 . S
C689 H682 0.950 . S
C689 C686 1.387 . S
C690 C691 1.387 . S
C690 H694 0.950 . S
C690 C699 1.390 . S
C691 C690 1.387 . S
C691 C693 1.387 . S
H692 C699 0.955 . S
C693 C691 1.387 . S
C693 C695 1.390 . S
C693 H697 0.950 . S
H694 C690 0.950 . S
C695 C693 1.390 . S
C695 C696 1.387 1_545 S
C695 H698 0.950 1_545 S
C696 C695 1.387 1_565 S
C696 C699 1.387 1_565 S
H697 C693 0.950 . S
H698 C695 0.950 1_565 S
C699 C690 1.390 . S
C699 H692 0.955 . S
C699 C696 1.387 1_545 S
C700 C701 1.387 . S
C700 H704 0.950 1_556 S
C700 C709 1.390 . S
C701 C700 1.387 . S
C701 C703 1.387 . S
H702 C709 0.950 1_554 S
C703 C701 1.387 . S
C703 C705 1.390 . S
C703 H707 0.950 . S
H704 C700 0.950 1_554 S
C705 C703 1.390 . S
C705 C706 1.387 . S
C705 H708 0.950 . S
C706 C705 1.387 . S
C706 C709 1.387 . S
H707 C703 0.950 . S
H708 C705 0.950 . S
C709 C700 1.390 . S
C709 H702 0.950 1_556 S
C709 C706 1.387 . S
C710 C711 1.387 . S
C710 H714 0.951 . S
C710 C719 1.390 1_545 S
C711 C710 1.387 . S
C711 C713 1.387 . S
H712 C719 0.950 . S
C713 C711 1.387 . S
C713 C715 1.390 . S
C713 H717 0.950 . S
H714 C710 0.951 . S
C715 C713 1.390 . S
C715 C716 1.387 1_545 S
C715 H718 0.950 . S
C716 C715 1.387 1_565 S
C716 C719 1.387 . S
H717 C713 0.950 . S
H718 C715 0.950 . S
C719 C710 1.390 1_565 S
C719 H712 0.950 . S
C719 C716 1.387 . S
C720 C721 1.387 . S
C720 H724 0.950 . S
C720 C729 1.390 . S
C721 C720 1.387 . S
C721 C723 1.387 . S
H722 C729 0.950 . S
C723 C721 1.387 . S
C723 C725 1.390 . S
C723 H727 0.950 . S
H724 C720 0.950 . S
C725 C723 1.390 . S
C725 C726 1.387 . S
C725 H728 0.950 . S
C726 C725 1.387 . S
C726 C729 1.387 . S
H727 C723 0.950 . S
H728 C725 0.950 . S
C729 C720 1.390 . S
C729 H722 0.950 . S
C729 C726 1.387 . S
C730 C731 1.387 . S
C730 H734 0.950 . S
C730 C739 1.390 . S
C731 C730 1.387 . S
C731 C733 1.387 . S
H732 C739 0.950 . S
C733 C731 1.387 . S
C733 C735 1.390 . S
C733 H737 0.950 . S
H734 C730 0.950 . S
C735 C733 1.390 . S
C735 C736 1.387 . S
C735 H738 0.950 . S
C736 C735 1.387 . S
C736 C739 1.387 . S
H737 C733 0.950 . S
H738 C735 0.950 . S
C739 C730 1.390 . S
C739 H732 0.950 . S
C739 C736 1.387 . S
C740 C741 1.387 . S
C740 H744 0.950 . S
C740 C749 1.390 . S
C741 C740 1.387 . S
C741 C743 1.387 . S
H742 C749 0.950 . S
C743 C741 1.387 . S
C743 C745 1.390 . S
C743 H747 0.950 . S
H744 C740 0.950 . S
C745 C743 1.390 . S
C745 C746 1.387 . S
C745 H748 0.950 . S
C746 C745 1.387 . S
C746 C749 1.387 . S
H747 C743 0.950 . S
H748 C745 0.950 . S
C749 C740 1.390 . S
C749 H742 0.950 . S
C749 C746 1.387 . S
C750 C751 1.387 . S
C750 H754 0.950 . S
C750 C759 1.390 . S
C751 C750 1.387 . S
C751 C753 1.387 . S
H752 C759 0.950 . S
C753 C751 1.387 . S
C753 C755 1.390 . S
C753 H757 0.950 . S
H754 C750 0.950 . S
C755 C753 1.390 . S
C755 C756 1.387 . S
C755 H758 0.950 . S
C756 C755 1.387 . S
C756 C759 1.387 . S
H757 C753 0.950 . S
H758 C755 0.950 . S
C759 C750 1.390 . S
C759 H752 0.950 . S
C759 C756 1.387 . S
C760 C761 1.387 . S
C760 H764 0.950 . S
C760 C769 1.390 . S
C761 C760 1.387 . S
C761 C763 1.387 . S
H762 C769 0.950 . S
C763 C761 1.387 . S
C763 C765 1.390 . S
C763 H767 0.950 . S
H764 C760 0.950 . S
C765 C763 1.390 . S
C765 C766 1.387 . S
C765 H768 0.950 . S
C766 C765 1.387 . S
C766 C769 1.387 . S
H767 C763 0.950 . S
H768 C765 0.950 . S
C769 C760 1.390 . S
C769 H762 0.950 . S
C769 C766 1.387 . S
C770 C771 1.387 . S
C770 H774 0.950 . S
C770 C779 1.390 . S
C771 C770 1.387 . S
C771 C773 1.387 . S
H772 C779 0.950 . S
C773 C771 1.387 . S
C773 C775 1.390 . S
C773 H777 0.950 . S
H774 C770 0.950 . S
C775 C773 1.390 . S
C775 C776 1.387 . S
C775 H778 0.950 . S
C776 C775 1.387 . S
C776 C779 1.387 . S
H777 C773 0.950 . S
H778 C775 0.950 . S
C779 C770 1.390 . S
C779 H772 0.950 . S
C779 C776 1.387 . S
C780 C781 1.387 . S
C780 H784 0.950 . S
C780 C789 1.390 1_455 S
C781 C780 1.387 . S
C781 C783 1.387 . S
H782 C789 0.950 1_556 S
C783 C781 1.387 . S
C783 C785 1.390 1_455 S
C783 H787 0.950 . S
H784 C780 0.950 . S
C785 C783 1.390 1_655 S
C785 C786 1.387 . S
C785 H788 0.950 . S
C786 C785 1.387 . S
C786 C789 1.387 . S
H787 C783 0.950 . S
H788 C785 0.950 . S
C789 C780 1.390 1_655 S
C789 H782 0.950 1_554 S
C789 C786 1.387 . S
C790 C791 1.387 . S
C790 H794 0.950 . S
C790 C799 1.390 . S
C791 C790 1.387 . S
C791 C793 1.387 . S
H792 C799 0.950 . S
C793 C791 1.387 . S
C793 C795 1.390 . S
C793 H797 0.950 . S
H794 C790 0.950 . S
C795 C793 1.390 . S
C795 C796 1.387 . S
C795 H798 0.950 . S
C796 C795 1.387 . S
C796 C799 1.387 . S
H797 C793 0.950 . S
H798 C795 0.950 . S
C799 C790 1.390 . S
C799 H792 0.950 . S
C799 C796 1.387 . S
C800 C801 1.387 . S
C800 H804 0.950 . S
C800 C809 1.390 . S
C801 C800 1.387 . S
C801 C803 1.387 . S
H802 C809 0.950 . S
C803 C801 1.387 . S
C803 C805 1.390 . S
C803 H807 0.950 . S
H804 C800 0.950 . S
C805 C803 1.390 . S
C805 C806 1.387 . S
C805 H808 0.950 . S
C806 C805 1.387 . S
C806 C809 1.387 . S
H807 C803 0.950 . S
H808 C805 0.950 . S
C809 C800 1.390 . S
C809 H802 0.950 . S
C809 C806 1.387 . S
C810 C811 1.387 . S
C810 H814 0.950 . S
C810 C819 1.390 . S
C811 C810 1.387 . S
C811 C813 1.387 . S
H812 C819 0.950 . S
C813 C811 1.387 . S
C813 C815 1.390 . S
C813 H817 0.950 . S
H814 C810 0.950 . S
C815 C813 1.390 . S
C815 C816 1.387 . S
C815 H818 0.950 . S
C816 C815 1.387 . S
C816 C819 1.387 . S
H817 C813 0.950 . S
H818 C815 0.950 . S
C819 C810 1.390 . S
C819 H812 0.950 . S
C819 C816 1.387 . S
C820 C821 1.387 . S
C820 H824 0.950 . S
C820 C829 1.390 . S
C821 C820 1.387 . S
C821 C823 1.387 . S
H822 C829 0.950 . S
C823 C821 1.387 . S
C823 C825 1.390 . S
C823 H827 0.950 1_556 S
H824 C820 0.950 . S
C825 C823 1.390 . S
C825 C826 1.387 . S
C825 H828 0.950 . S
C826 C825 1.387 . S
C826 C829 1.387 . S
H827 C823 0.950 1_554 S
H828 C825 0.950 . S
C829 C820 1.390 . S
C829 H822 0.950 . S
C829 C826 1.387 . S
C830 C831 1.387 . S
C830 H834 0.950 . S
C830 C839 1.390 . S
C831 C830 1.387 . S
C831 C833 1.387 . S
H832 C839 0.950 1_455 S
C833 C831 1.387 . S
C833 C835 1.390 . S
C833 H837 0.950 . S
H834 C830 0.950 . S
C835 C833 1.390 . S
C835 C836 1.387 1_655 S
C835 H838 0.950 1_655 S
C836 C835 1.387 1_455 S
C836 C839 1.387 1_455 S
H837 C833 0.950 . S
H838 C835 0.950 1_455 S
C839 C830 1.390 . S
C839 H832 0.950 1_655 S
C839 C836 1.387 1_655 S
C481 C18 1.328 . S
C486 C458 1.325 . S
C491 C379 1.836 . S
C496 C58 1.979 . S
C501 C99 1.451 . S
C506 C338 1.551 . S
C511 C138 2.256 . S
C516 C418 2.239 . S
C521 C178 1.849 . S
C526 C419 1.759 . S
C531 C219 1.522 . S
C536 C459 1.568 . S
C541 C378 2.127 . S
C546 C258 2.130 . S
C551 C299 1.680 . S
C556 C339 1.766 . S
C561 C139 1.747 . S
C566 C179 1.799 . S
C571 C19 1.729 . S
C576 C218 1.865 . S
C581 C59 1.642 . S
C586 C259 1.656 . S
C591 C298 2.060 . S
C596 C98 2.059 . S
C601 C6 1.719 . S
C606 C329 1.564 . S
C611 C46 1.780 . S
C616 C409 1.672 . S
C621 C449 2.171 . S
C626 C95 2.205 . S
C631 C126 1.544 . S
C636 C370 1.505 . S
C641 C166 1.308 . S
C646 C369 1.228 . S
C651 C330 2.253 . S
C656 C215 2.108 . S
C661 C410 1.367 . S
C666 C246 1.379 . S
C671 C450 2.742 . S
C676 C295 2.596 . S
C681 C10 2.842 . S
C686 C135 2.697 . S
C691 C15 2.147 . S
C696 C50 2.268 . S
C701 C55 2.440 . S
C706 C89 2.401 . S
C711 C130 1.682 . S
C716 C86 1.726 . S
C721 C206 1.525 . S
C726 C170 1.489 . S
C731 C209 1.557 . S
C736 C255 1.623 . S
C741 C250 1.541 . S
C746 C286 1.575 . S
C751 C175 1.217 . S
C756 C289 1.171 . S
C761 C335 1.231 . S
C766 C129 1.165 . S
C771 C210 1.870 . S
C776 C375 1.780 . S
C781 C326 1.484 . S
C786 C249 1.390 . S
C791 C406 1.713 . S
C796 C290 1.683 . S
C801 C169 1.364 . S
C806 C446 1.475 . S
C811 C455 1.918 . S
C816 C49 1.850 . S
C821 C90 1.580 . S
C826 C366 1.612 . S
C831 C415 1.981 . S
C836 C9 1.945 . S
