# Generated by pormake.
# Topology dft, (4)-cn, num edge types: 1
# Building blocks:
#     Node 0, Type 0, BuildingBlock: AZAVOO_clean_sbu_0, # of connection points: 4
#     Node 1, Type 0, BuildingBlock: AZAVOO_clean_sbu_0, # of connection points: 4
#     Node 2, Type 0, BuildingBlock: AZAVOO_clean_sbu_0, # of connection points: 4
#     Node 3, Type 0, BuildingBlock: AZAVOO_clean_sbu_0, # of connection points: 4
#     Node 4, Type 0, BuildingBlock: AZAVOO_clean_sbu_0, # of connection points: 4
#     Node 5, Type 0, BuildingBlock: AZAVOO_clean_sbu_0, # of connection points: 4
#     Node 6, Type 0, BuildingBlock: AZAVOO_clean_sbu_0, # of connection points: 4
#     Node 7, Type 0, BuildingBlock: AZAVOO_clean_sbu_0, # of connection points: 4
#     Edge 8, Type (0, 0), BuildingBlock: ZUJKAS_clean_linker_0, # of connection points: 2
#     Edge 9, Type (0, 0), BuildingBlock: ZUJKAS_clean_linker_0, # of connection points: 2
#     Edge 10, Type (0, 0), BuildingBlock: ZUJKAS_clean_linker_0, # of connection points: 2
#     Edge 11, Type (0, 0), BuildingBlock: ZUJKAS_clean_linker_0, # of connection points: 2
#     Edge 12, Type (0, 0), BuildingBlock: ZUJKAS_clean_linker_0, # of connection points: 2
#     Edge 13, Type (0, 0), BuildingBlock: ZUJKAS_clean_linker_0, # of connection points: 2
#     Edge 14, Type (0, 0), BuildingBlock: ZUJKAS_clean_linker_0, # of connection points: 2
#     Edge 15, Type (0, 0), BuildingBlock: ZUJKAS_clean_linker_0, # of connection points: 2
#     Edge 16, Type (0, 0), BuildingBlock: ZUJKAS_clean_linker_0, # of connection points: 2
#     Edge 17, Type (0, 0), BuildingBlock: ZUJKAS_clean_linker_0, # of connection points: 2
#     Edge 18, Type (0, 0), BuildingBlock: ZUJKAS_clean_linker_0, # of connection points: 2
#     Edge 19, Type (0, 0), BuildingBlock: ZUJKAS_clean_linker_0, # of connection points: 2
#     Edge 20, Type (0, 0), BuildingBlock: ZUJKAS_clean_linker_0, # of connection points: 2
#     Edge 21, Type (0, 0), BuildingBlock: ZUJKAS_clean_linker_0, # of connection points: 2
#     Edge 22, Type (0, 0), BuildingBlock: ZUJKAS_clean_linker_0, # of connection points: 2
#     Edge 23, Type (0, 0), BuildingBlock: ZUJKAS_clean_linker_0, # of connection points: 2
# Relax obj value: 0.185
# Max RMSD: 0.167
# Mean RMSD: 0.161
data_MOF--net-dft--node1-AZAVOO_clean_sbu_0--edge1-ZUJKAS_clean_linker_0
_symmetry_space_group_name_H-M    P1
_symmetry_Int_Tables_number       1
_symmetry_cell_setting            triclinic
loop_
_symmetry_equiv_pos_as_xyz
'x, y, z'
_cell_length_a     44.703058
_cell_length_b     44.748537
_cell_length_c     48.690792
_cell_angle_alpha  90.133562
_cell_angle_beta   89.832343
_cell_angle_gamma 90.034839
loop_
_atom_site_label
_atom_site_type_symbol
_atom_site_fract_x
_atom_site_fract_y
_atom_site_fract_z
_atom_type_partial_charge
Mg0 Mg 0.28861 0.00829 0.24186 0.0
O1 O 0.28578 0.00739 0.19466 0.0
O2 O 0.23766 0.00812 0.18248 0.0
Mg3 Mg 0.20978 0.01188 0.22159 0.0
C4 C 0.26541 0.00725 0.17632 0.0
C5 C 0.35481 -0.00377 0.22699 0.0
O6 O 0.34194 0.97196 0.21743 0.0
O7 O 0.2789 0.05838 0.24174 0.0
O8 O 0.23074 0.05795 0.2291 0.0
O9 O 0.28311 0.95852 0.24416 0.0
O10 O 0.24565 0.99056 0.24522 0.0
C11 C 0.25457 0.07185 0.23591 0.0
C12 C 0.25456 0.96324 0.24515 0.0
O13 O 0.33874 0.01613 0.23843 0.0
Mg14 Mg 0.01923 0.31221 0.64589 0.0
O15 O 0.05748 0.2844 0.66437 0.0
O16 O 0.10057 0.30249 0.64796 0.0
Mg17 Mg 0.09009 0.34089 0.61888 0.0
C18 C 0.08605 0.28424 0.66307 0.0
C19 C 0.95888 0.29144 0.67008 0.0
O20 O 0.95071 0.30208 0.64612 0.0
O21 O 0.03102 0.35035 0.67475 0.0
O22 O 0.07372 0.36757 0.65665 0.0
O23 O 0.01605 0.28199 0.60963 0.0
O24 O 0.04542 0.32164 0.61144 0.0
C25 C 0.05297 0.36859 0.67477 0.0
C26 C 0.03615 0.29857 0.598 0.0
O27 O 0.98632 0.29269 0.67678 0.0
Mg28 Mg 0.73547 0.06132 0.21137 0.0
O29 O 0.73803 0.06968 0.16495 0.0
O30 O 0.78547 0.08005 0.15398 0.0
Mg31 Mg 0.81328 0.07791 0.19316 0.0
C32 C 0.75817 0.07607 0.14725 0.0
C33 C 0.67156 0.04526 0.22791 0.0
O34 O 0.6829 0.05591 0.25079 0.0
O35 O 0.75601 0.01526 0.20431 0.0
O36 O 0.80339 0.02759 0.19448 0.0
O37 O 0.73003 0.11028 0.22043 0.0
O38 O 0.77334 0.0868 0.21801 0.0
C39 C 0.78288 0.00806 0.19816 0.0
C40 C 0.75894 0.11134 0.22162 0.0
O41 O 0.68814 0.04371 0.20672 0.0
Mg42 Mg 0.03757 0.71553 0.69529 0.0
O43 O 0.99405 0.73729 0.71083 0.0
O44 O 0.95586 0.71193 0.6926 0.0
Mg45 Mg 0.97442 0.67575 0.66425 0.0
C46 C 0.96601 0.73273 0.70795 0.0
C47 C 0.08414 0.73051 0.74304 0.0
O48 O 0.08864 0.70151 0.74343 0.0
O49 O 0.03051 0.67557 0.72362 0.0
O50 O 0.99407 0.65136 0.70145 0.0
O51 O 0.03878 0.74534 0.65871 0.0
O52 O 0.016 0.70155 0.65954 0.0
C53 C 0.01298 0.6532 0.72102 0.0
C54 C 0.02264 0.72552 0.64624 0.0
O55 O 0.0646 0.74137 0.72698 0.0
Mg56 Mg 0.29272 0.02966 0.82461 0.0
O57 O 0.29162 0.03825 0.87128 0.0
O58 O 0.24381 0.04345 0.8839 0.0
Mg59 Mg 0.21439 0.03722 0.84624 0.0
C60 C 0.27163 0.04278 0.88963 0.0
C61 C 0.35671 0.01975 0.80421 0.0
O62 O 0.3417 0.02493 0.78154 0.0
O63 O 0.27795 0.9813 0.83173 0.0
O64 O 0.23007 0.9884 0.84398 0.0
O65 O 0.29185 0.07857 0.81484 0.0
O66 O 0.25152 0.05063 0.81943 0.0
C67 C 0.25235 0.9713 0.83905 0.0
C68 C 0.26297 0.07647 0.8146 0.0
O69 O 0.34249 0.01872 0.82684 0.0
Mg70 Mg 0.05239 0.32493 0.25994 0.0
O71 O 0.0031 0.31349 0.2662 0.0
O72 O 0.98408 0.33834 0.30204 0.0
Mg73 Mg 0.02248 0.36716 0.31849 0.0
C74 C 0.98128 0.31999 0.28209 0.0
C75 C 0.06463 0.28319 0.20725 0.0
O76 O 0.05759 0.27263 0.18291 0.0
O77 O 0.03864 0.36933 0.24152 0.0
O78 O 0.02104 0.39367 0.27822 0.0
O79 O 0.06568 0.28864 0.28951 0.0
O80 O 0.05533 0.33518 0.30151 0.0
C81 C 0.02693 0.39239 0.25255 0.0
C82 C 0.06151 0.30824 0.30873 0.0
O83 O 0.04907 0.30422 0.21736 0.0
Mg84 Mg 0.74347 0.01343 0.79816 0.0
O85 O 0.74657 0.01426 0.84518 0.0
O86 O 0.79437 0.00876 0.8573 0.0
Mg87 Mg 0.82219 0.00543 0.81809 0.0
C88 C 0.76685 0.0123 0.86349 0.0
C89 C 0.67745 0.02276 0.78129 0.0
O90 O 0.68906 0.01216 0.75844 0.0
O91 O 0.76115 0.06159 0.79646 0.0
O92 O 0.80896 0.05358 0.80794 0.0
O93 O 0.74136 0.96328 0.79746 0.0
O94 O 0.78322 0.98923 0.79516 0.0
C95 C 0.78771 0.07106 0.80096 0.0
C96 C 0.77028 0.96359 0.79599 0.0
O97 O 0.69458 0.02759 0.80161 0.0
Mg98 Mg 0.96821 0.71143 0.3043 0.0
O99 O 0.01147 0.73894 0.29985 0.0
O100 O 0.04757 0.71436 0.32212 0.0
Mg101 Mg 0.02749 0.67259 0.34147 0.0
C102 C 0.03868 0.73629 0.30754 0.0
C103 C 0.91755 0.73623 0.26894 0.0
O104 O 0.90334 0.71734 0.28498 0.0
O105 O 0.98628 0.67832 0.27308 0.0
O106 O 0.02059 0.65421 0.2978 0.0
O107 O 0.956 0.73575 0.3425 0.0
O108 O 0.98364 0.69481 0.34163 0.0
C109 C 0.00621 0.65813 0.27544 0.0
C110 C 0.97216 0.71652 0.35559 0.0
O111 O 0.94579 0.73844 0.27096 0.0
H112 H 0.23025 0.99476 0.13202 0.0
H113 H 0.24287 0.0005 0.0835 0.0
H114 H 0.33219 0.02793 0.1052 0.0
H115 H 0.31989 0.02199 0.15405 0.0
H116 H 0.2975 0.0678 0.0679 0.0
H117 H 0.30124 0.9494 0.03381 0.0
H118 H 0.26969 0.95888 0.0551 0.0
H119 H 0.30677 0.96053 0.06916 0.0
C120 C 0.25272 0.00165 0.12654 0.0
C121 C 0.27405 0.00796 0.14693 0.0
C122 C 0.25991 0.00479 0.09879 0.0
C123 C 0.28849 0.01443 0.09084 0.0
C124 C 0.31006 0.02029 0.11101 0.0
H125 H 0.32369 0.0233 0.91324 0.0
H126 H 0.33434 0.01912 0.96247 0.0
C127 C 0.303 0.0168 0.13885 0.0
C128 C 0.29479 0.02024 0.0615 0.0
H129 H 0.29517 0.98624 0.99872 0.0
C130 C 0.2976 0.04997 0.05276 0.0
C131 C 0.29515 -0.00308 0.0419 0.0
C132 C 0.29332 0.96458 0.05039 0.0
C133 C 0.29887 0.05708 0.02471 0.0
C134 C 0.2972 0.03386 0.00505 0.0
C135 C 0.29632 0.00402 0.01386 0.0
C136 C 0.29302 0.04001 0.97545 0.0
C137 C 0.30111 0.08941 0.01627 0.0
C138 C 0.26646 0.05346 0.96654 0.0
C139 C 0.26019 0.05565 0.93855 0.0
C140 C 0.28044 0.04449 0.91889 0.0
C141 C 0.30772 0.03228 0.92785 0.0
C142 C 0.31381 0.02978 0.95594 0.0
H143 H 0.31059 0.10345 0.03296 0.0
H144 H 0.31521 0.09191 0.99759 0.0
H145 H 0.27841 0.09794 0.01152 0.0
H146 H 0.24992 0.06108 0.98127 0.0
H147 H 0.23902 0.06522 0.93235 0.0
H148 H 0.01033 0.2617 0.56033 0.0
H149 H 0.02281 0.25689 0.51178 0.0
H150 H 0.09839 0.31565 0.523 0.0
H151 H 0.08508 0.3217 0.57136 0.0
H152 H 0.06747 0.33412 0.48257 0.0
H153 H 0.08213 0.21304 0.46657 0.0
H154 H 0.04662 0.22019 0.48238 0.0
H155 H 0.08058 0.22942 0.50045 0.0
C156 C 0.02999 0.27312 0.55261 0.0
C157 C 0.04665 0.29218 0.56973 0.0
C158 C 0.03729 0.27012 0.5248 0.0
C159 C 0.06188 0.2855 0.51365 0.0
C160 C 0.07938 0.30345 0.53107 0.0
H161 H 0.1022 0.27359 0.33583 0.0
H162 H 0.10562 0.26621 0.38589 0.0
C163 C 0.07175 0.3069 0.55877 0.0
C164 C 0.0669 0.28594 0.48342 0.0
H165 H 0.06877 0.24178 0.42601 0.0
C166 C 0.06832 0.31384 0.47034 0.0
C167 C 0.0685 0.25959 0.46726 0.0
C168 C 0.06972 0.22892 0.47998 0.0
C169 C 0.06973 0.31617 0.44169 0.0
C170 C 0.06864 0.2899 0.42547 0.0
C171 C 0.06894 0.26193 0.43845 0.0
C172 C 0.06551 0.29144 0.39518 0.0
C173 C 0.07208 0.34688 0.42907 0.0
C174 C 0.04121 0.30684 0.38381 0.0
C175 C 0.03946 0.3113 0.35555 0.0
C176 C 0.06168 0.29999 0.338 0.0
C177 C 0.08491 0.28268 0.34906 0.0
C178 C 0.08689 0.27853 0.37756 0.0
H179 H 0.08254 0.36305 0.44349 0.0
H180 H 0.08541 0.34643 0.4098 0.0
H181 H 0.04931 0.35519 0.42426 0.0
H182 H 0.02387 0.31606 0.39692 0.0
H183 H 0.02075 0.32376 0.34749 0.0
H184 H 0.8012 0.00077 0.90856 0.0
H185 H 0.78952 0.01191 0.95651 0.0
H186 H 0.70267 0.04468 0.93292 0.0
H187 H 0.71407 0.03353 0.88471 0.0
H188 H 0.73834 0.08459 0.96682 0.0
H189 H 0.72972 0.97034 0.01012 0.0
H190 H 0.76225 0.97628 0.98906 0.0
H191 H 0.72569 0.97797 0.97388 0.0
C192 C 0.77945 0.00998 0.91353 0.0
C193 C 0.75859 0.01628 0.89277 0.0
C194 C 0.77277 0.0162 0.94098 0.0
C195 C 0.74516 0.02888 0.94821 0.0
C196 C 0.72403 0.03473 0.92769 0.0
H197 H 0.70706 0.0545 0.12337 0.0
H198 H 0.69823 0.04607 0.07438 0.0
C199 C 0.73058 0.02826 0.9002 0.0
C200 C 0.73946 0.03779 0.97702 0.0
H201 H 0.73725 0.01021 0.04223 0.0
C202 C 0.73758 0.06835 0.98332 0.0
C203 C 0.73817 0.01653 0.9984 0.0
C204 C 0.73878 0.98341 0.99259 0.0
C205 C 0.73615 0.07828 0.01066 0.0
C206 C 0.73679 0.05706 0.03211 0.0
C207 C 0.73694 0.02645 0.02572 0.0
C208 C 0.73995 0.06599 0.06124 0.0
C209 C 0.73459 0.11137 0.01642 0.0
C210 C 0.76612 0.08042 0.06999 0.0
C211 C 0.77133 0.08514 0.09792 0.0
C212 C 0.75045 0.07549 0.11767 0.0
C213 C 0.72356 0.06233 0.10873 0.0
C214 C 0.71849 0.0574 0.08075 0.0
H215 H 0.72566 0.12386 0.99854 0.0
H216 H 0.72034 0.11608 0.03464 0.0
H217 H 0.75744 0.11985 0.02071 0.0
H218 H 0.78319 0.08679 0.05528 0.0
H219 H 0.79225 0.09536 0.10406 0.0
H220 H 0.93791 0.7467 0.39258 0.0
H221 H 0.94555 0.75111 0.44208 0.0
H222 H 0.02695 0.6998 0.43507 0.0
H223 H 0.01863 0.69419 0.38585 0.0
H224 H 0.99573 0.68048 0.47611 0.0
H225 H 0.00042 0.8037 0.48435 0.0
H226 H 0.96613 0.79132 0.4691 0.0
H227 H 0.00112 0.78458 0.45171 0.0
C228 C 0.95755 0.73653 0.40159 0.0
C229 C 0.97767 0.72006 0.3853 0.0
C230 C 0.96202 0.73929 0.42986 0.0
C231 C 0.98716 0.72633 0.44228 0.0
C232 C 0.00742 0.71009 0.42596 0.0
H233 H 0.04912 0.76119 0.60808 0.0
H234 H 0.0396 0.76208 0.55866 0.0
C235 C 0.00263 0.70683 0.39778 0.0
C236 C 0.99158 0.72827 0.47244 0.0
H237 H 0.99484 0.77692 0.5265 0.0
C238 C 0.99574 0.70161 0.48708 0.0
C239 C 0.99202 0.75585 0.48675 0.0
C240 C 0.99001 0.78548 0.47211 0.0
C241 C 8e-05 0.70169 0.51557 0.0
C242 C 0.99896 0.72914 0.53008 0.0
C243 C 0.99516 0.75585 0.51544 0.0
C244 C 0.00282 0.7306 0.56031 0.0
C245 C 0.00669 0.67238 0.52961 0.0
C246 C 0.98462 0.71352 0.57782 0.0
C247 C 0.99039 0.71255 0.60598 0.0
C248 C 0.01393 0.72932 0.61724 0.0
C249 C 0.03082 0.74801 0.59997 0.0
C250 C 0.02542 0.74851 0.57173 0.0
H251 H 0.01576 0.65559 0.51495 0.0
H252 H 0.02304 0.67533 0.54653 0.0
H253 H 0.98567 0.66318 0.53834 0.0
H254 H 0.96636 0.70036 0.56962 0.0
H255 H 0.97667 0.69834 0.61877 0.0
H256 H 0.38807 0.04507 0.24154 0.0
H257 H 0.44243 0.05074 0.23886 0.0
H258 H 0.45012 0.96187 0.20519 0.0
H259 H 0.39578 0.95588 0.20785 0.0
H260 H 0.4896 0.97457 0.2497 0.0
H261 H 0.49398 0.06147 0.16857 0.0
H262 H 0.46924 0.0699 0.1967 0.0
H263 H 0.46128 0.03866 0.17465 0.0
C264 C 0.40129 0.02677 0.23344 0.0
C265 C 0.3876 4e-05 0.22486 0.0
C266 C 0.43231 0.03012 0.23179 0.0
C267 C 0.45017 0.00685 0.22152 0.0
C268 C 0.43664 0.98013 0.21303 0.0
H269 H 0.64024 0.02506 0.18328 0.0
H270 H 0.58684 0.01308 0.18101 0.0
C271 C 0.4056 0.97679 0.21455 0.0
C272 C 0.48307 0.01007 0.22055 0.0
H273 H 0.5392 0.05202 0.19272 0.0
C274 C 0.50051 0.99134 0.23711 0.0
C275 C 0.49716 0.03171 0.20383 0.0
C276 C 0.47953 0.05144 0.18471 0.0
C277 C 0.53174 0.99432 0.23803 0.0
C278 C 0.54572 0.01683 0.22221 0.0
C279 C 0.52835 0.03492 0.20499 0.0
C280 C 0.57825 0.02265 0.22389 0.0
C281 C 0.54948 0.97334 0.2559 0.0
C282 C 0.591 0.03209 0.24872 0.0
C283 C 0.62142 0.03894 0.2501 0.0
C284 C 0.63965 0.03664 0.2266 0.0
C285 C 0.62683 0.02699 0.20176 0.0
C286 C 0.59635 0.02017 0.20041 0.0
H287 H 0.53676 0.95262 0.26057 0.0
H288 H 0.57097 0.96711 0.24592 0.0
H289 H 0.55463 0.98461 0.27566 0.0
H290 H 0.57728 0.03471 0.26694 0.0
H291 H 0.63054 0.04644 0.26951 0.0
H292 H 0.10192 0.3978 0.69465 0.0
H293 H 0.10252 0.44273 0.72328 0.0
H294 H 0.00611 0.44027 0.72821 0.0
H295 H 0.00558 0.39457 0.70088 0.0
H296 H 0.08151 0.4916 0.70583 0.0
H297 H 0.02275 0.47015 0.80313 0.0
H298 H 0.03579 0.44012 0.78134 0.0
H299 H 0.99994 0.45742 0.7753 0.0
C300 C 0.08093 0.40643 0.70251 0.0
C301 C 0.05367 0.39289 0.69533 0.0
C302 C 0.0813 0.43202 0.71898 0.0
C303 C 0.0544 0.44487 0.72821 0.0
C304 C 0.02726 0.43044 0.72216 0.0
H305 H 0.97488 0.60631 0.72821 0.0
H306 H 0.98925 0.55588 0.74132 0.0
C307 C 0.02693 0.40445 0.7062 0.0
C308 C 0.05421 0.47582 0.73934 0.0
H309 H 0.01813 0.52146 0.785 0.0
C310 C 0.0685 0.498 0.72374 0.0
C311 C 0.03727 0.48432 0.76271 0.0
C312 C 0.02338 0.4616 0.78169 0.0
C313 C 0.06418 0.52839 0.72927 0.0
C314 C 0.04524 0.53693 0.75127 0.0
C315 C 0.03263 0.51484 0.76815 0.0
C316 C 0.0342 0.56801 0.75332 0.0
C317 C 0.0779 0.55108 0.71002 0.0
C318 C 0.05399 0.59189 0.75779 0.0
C319 C 0.04589 0.62089 0.75009 0.0
C320 C 0.01791 0.62616 0.73784 0.0
C321 C 0.99682 0.60285 0.73705 0.0
C322 C 0.00493 0.57399 0.74472 0.0
H323 H 0.08919 0.54046 0.69214 0.0
H324 H 0.06049 0.56655 0.70221 0.0
H325 H 0.09477 0.56453 0.72126 0.0
H326 H 0.07658 0.5877 0.76479 0.0
H327 H 0.06255 0.63843 0.75125 0.0
H328 H 0.64517 0.03343 0.82826 0.0
H329 H 0.59071 0.03251 0.83364 0.0
H330 H 0.58088 0.01789 0.74656 0.0
H331 H 0.63522 0.01808 0.74107 0.0
H332 H 0.54561 0.06627 0.81158 0.0
H333 H 0.5343 0.94826 0.77829 0.0
H334 H 0.57001 0.96493 0.78624 0.0
H335 H 0.55286 0.97125 0.75337 0.0
C336 C 0.63142 0.03021 0.81021 0.0
C337 C 0.64456 0.02551 0.78426 0.0
C338 C 0.6003 0.02964 0.81334 0.0
C339 C 0.58176 0.02439 0.79061 0.0
C340 C 0.59477 0.02111 0.76451 0.0
H341 H 0.39268 0.01713 0.75891 0.0
H342 H 0.44732 0.01772 0.75727 0.0
C343 C 0.62586 0.02146 0.76138 0.0
C344 C 0.54884 0.02211 0.79418 0.0
H345 H 0.48911 0.97609 0.78265 0.0
C346 C 0.53327 0.04647 0.80548 0.0
C347 C 0.53279 -0.00385 0.78636 0.0
C348 C 0.54836 0.96855 0.77565 0.0
C349 C 0.50198 0.04594 0.80834 0.0
C350 C 0.48595 0.02027 0.79993 0.0
C351 C 0.50152 -0.00424 0.789 0.0
C352 C 0.45288 0.01884 0.80136 0.0
C353 C 0.48618 0.07313 0.81961 0.0
C354 C 0.43794 0.01861 0.82675 0.0
C355 C 0.40664 0.01809 0.82779 0.0
C356 C 0.3898 0.01787 0.80342 0.0
C357 C 0.40494 0.0174 0.77806 0.0
C358 C 0.43617 0.01774 0.77706 0.0
H359 H 0.50113 0.09295 0.82049 0.0
H360 H 0.46639 0.07867 0.80687 0.0
H361 H 0.47816 0.06834 0.84074 0.0
H362 H 0.4505 0.01901 0.84574 0.0
H363 H 0.39567 0.01845 0.84765 0.0
H364 H 0.9943 0.44105 0.26724 0.0
H365 H 0.98724 0.48673 0.24172 0.0
H366 H 0.03657 0.44994 0.17323 0.0
H367 H 0.04435 0.40364 0.19923 0.0
H368 H 0.0581 0.5026 0.1863 0.0
H369 H 0.93742 0.5179 0.18065 0.0
H370 H 0.94459 0.50537 0.21486 0.0
H371 H 0.95371 0.4814 0.18608 0.0
C372 C 0.00331 0.44231 0.2466 0.0
C373 C 0.02016 0.41877 0.23542 0.0
C374 C 0.99877 0.46838 0.23174 0.0
C375 C 0.01068 0.47158 0.20519 0.0
C376 C 0.02675 0.44777 0.19349 0.0
H377 H 0.97787 0.65571 0.22532 0.0
H378 H 0.98224 0.61611 0.19074 0.0
C379 C 0.03127 0.42142 0.20843 0.0
C380 C 0.01027 0.50164 0.19252 0.0
H381 H 0.9662 0.56302 0.19895 0.0
C382 C 0.03782 0.5158 0.18778 0.0
C383 C 0.98387 0.51901 0.19263 0.0
C384 C 0.95326 0.5049 0.19348 0.0
C385 C 0.0401 0.54703 0.18893 0.0
C386 C 0.01446 0.56394 0.19602 0.0
C387 C 0.98626 0.55012 0.19486 0.0
C388 C 0.01702 0.59199 0.21219 0.0
C389 C 0.07039 0.56128 0.18523 0.0
C390 C 0.03558 0.59214 0.23543 0.0
C391 C 0.0332 0.61462 0.25507 0.0
C392 C 0.01179 0.63734 0.25228 0.0
C393 C 0.99444 0.63836 0.22821 0.0
C394 C 0.997 0.61581 0.20834 0.0
H395 H 0.08211 0.55105 0.1674 0.0
H396 H 0.0687 0.58578 0.18195 0.0
H397 H 0.0843 0.55694 0.20364 0.0
H398 H 0.05047 0.57364 0.23962 0.0
H399 H 0.04708 0.61316 0.27322 0.0
H400 H 0.08075 0.22514 0.20811 0.0
H401 H 0.12548 0.20346 0.22865 0.0
H402 H 0.15117 0.29003 0.25977 0.0
H403 H 0.10571 0.31193 0.23954 0.0
H404 H 0.1947 0.25476 0.22279 0.0
H405 H 0.15216 0.19179 0.31241 0.0
H406 H 0.12778 0.18986 0.28316 0.0
H407 H 0.1343 0.22529 0.29964 0.0
C408 C 0.09562 0.23946 0.21977 0.0
C409 C 0.08983 0.2701 0.22238 0.0
C410 C 0.12103 0.22706 0.23161 0.0
C411 C 0.14136 0.24514 0.24593 0.0
C412 C 0.13547 0.27573 0.24907 0.0
H413 H 0.27184 0.10681 0.27908 0.0
H414 H 0.25563 0.1586 0.28762 0.0
C415 C 0.10958 0.28813 0.2376 0.0
C416 C 0.17003 0.23181 0.25445 0.0
H417 H 0.19391 0.1694 0.28755 0.0
C418 C 0.19516 0.23686 0.23777 0.0
C419 C 0.17077 0.2089 0.27429 0.0
C420 C 0.14489 0.20378 0.29362 0.0
C421 C 0.2193 0.21685 0.23783 0.0
C422 C 0.21793 0.1913 0.25479 0.0
C423 C 0.19483 0.18881 0.27426 0.0
C424 C 0.23478 0.16384 0.24787 0.0
C425 C 0.24477 0.2217 0.21799 0.0
C426 C 0.22901 0.15 0.22252 0.0
C427 C 0.23767 0.12054 0.21789 0.0
C428 C 0.25262 0.10451 0.23836 0.0
C429 C 0.26065 0.11899 0.26289 0.0
C430 C 0.25139 0.14846 0.26778 0.0
H431 H 0.24883 0.24594 0.21479 0.0
H432 H 0.26569 0.21108 0.22539 0.0
H433 H 0.23888 0.21178 0.1978 0.0
H434 H 0.21561 0.16112 0.20711 0.0
H435 H 0.2311 0.1097 0.19892 0.0
H436 H 0.96751 0.26955 0.72188 0.0
H437 H 0.93271 0.23949 0.74912 0.0
H438 H 0.86608 0.2477 0.68575 0.0
H439 H 0.90048 0.27828 0.65856 0.0
H440 H 0.84224 0.25099 0.74009 0.0
H441 H 0.9168 0.15304 0.72487 0.0
H442 H 0.93487 0.18478 0.74016 0.0
H443 H 0.92105 0.18714 0.70558 0.0
C444 C 0.94534 0.26526 0.71385 0.0
C445 C 0.93692 0.27593 0.68786 0.0
C446 C 0.92551 0.24806 0.72943 0.0
C447 C 0.89705 0.24095 0.7192 0.0
C448 C 0.88799 0.25286 0.69395 0.0
H449 H 0.76349 0.10868 0.76263 0.0
H450 H 0.78655 0.15473 0.74527 0.0
C451 C 0.90775 0.27023 0.67841 0.0
C452 C 0.87776 0.21917 0.73375 0.0
H453 H 0.87555 0.14651 0.75455 0.0
C454 C 0.84945 0.22813 0.74331 0.0
C455 C 0.88711 0.18928 0.73755 0.0
C456 C 0.91647 0.17782 0.72629 0.0
C457 C 0.83054 0.20804 0.75725 0.0
C458 C 0.84022 0.17835 0.76143 0.0
C459 C 0.86836 0.16943 0.75159 0.0
C460 C 0.82181 0.15558 0.77564 0.0
C461 C 0.80065 0.21871 0.76778 0.0
C462 C 0.8334 0.14144 0.79896 0.0
C463 C 0.82052 0.11513 0.80866 0.0
C464 C 0.79574 0.10246 0.79527 0.0
C465 C 0.78245 0.11807 0.77345 0.0
C466 C 0.79558 0.1444 0.76355 0.0
H467 H 0.79917 0.24349 0.76805 0.0
H468 H 0.78271 0.21 0.75423 0.0
H469 H 0.79642 0.21017 0.78884 0.0
H470 H 0.85362 0.14972 0.80857 0.0
H471 H 0.83109 0.1037 0.82566 0.0
H472 H 0.85703 0.74474 0.26766 0.0
H473 H 0.83034 0.78635 0.24661 0.0
H474 H 0.91293 0.81823 0.21122 0.0
H475 H 0.93994 0.77701 0.23263 0.0
H476 H 0.88499 0.85917 0.24433 0.0
H477 H 0.80374 0.81192 0.16999 0.0
H478 H 0.80264 0.79482 0.20332 0.0
H479 H 0.83559 0.7911 0.18234 0.0
C480 C 0.86942 0.76017 0.25484 0.0
C481 C 0.90067 0.75782 0.25211 0.0
C482 C 0.85406 0.78383 0.24263 0.0
C483 C 0.86963 0.80525 0.22721 0.0
C484 C 0.90051 0.80184 0.22299 0.0
H485 H 0.83221 0.98443 0.1735 0.0
H486 H 0.85085 0.9334 0.17723 0.0
C487 C 0.91591 0.77832 0.23529 0.0
C488 C 0.85482 0.83346 0.21922 0.0
H489 H 0.79677 0.86311 0.18282 0.0
C490 C 0.86591 0.86003 0.23064 0.0
C491 C 0.82964 0.83442 0.20171 0.0
C492 C 0.81731 0.80657 0.18842 0.0
C493 C 0.85239 0.88756 0.22527 0.0
C494 C 0.82736 0.88862 0.20764 0.0
C495 C 0.81605 0.8621 0.19626 0.0
C496 C 0.81315 0.91743 0.20093 0.0
C497 C 0.86469 0.91529 0.23893 0.0
C498 C 0.78507 0.92484 0.21193 0.0
C499 C 0.77421 0.95407 0.20976 0.0
C500 C 0.79146 0.9762 0.1967 0.0
C501 C 0.81861 0.96803 0.1841 0.0
C502 C 0.82928 0.93888 0.18611 0.0
H503 H 0.87955 0.9098 0.25646 0.0
H504 H 0.87795 0.92821 0.22373 0.0
H505 H 0.84629 0.92982 0.2465 0.0
H506 H 0.77235 0.90846 0.22344 0.0
H507 H 0.75317 0.95966 0.21957 0.0
H508 H 0.08985 0.7906 0.73677 0.0
H509 H 0.12367 0.82424 0.76069 0.0
H510 H 0.15577 0.75099 0.80996 0.0
H511 H 0.12257 0.71666 0.78511 0.0
H512 H 0.12596 0.83969 0.81258 0.0
H513 H 0.23363 0.78596 0.78367 0.0
H514 H 0.19857 0.77559 0.76807 0.0
H515 H 0.20786 0.76229 0.8018 0.0
C516 C 0.10405 0.78153 0.75269 0.0
C517 C 0.10358 0.75091 0.75898 0.0
C518 C 0.12344 0.80084 0.76636 0.0
C519 C 0.14262 0.79012 0.78687 0.0
C520 C 0.14175 0.75965 0.79374 0.0
H521 H 0.22374 0.93819 0.87772 0.0
H522 H 0.2016 0.88865 0.87086 0.0
C523 C 0.12257 0.74013 0.7797 0.0
C524 C 0.16286 0.81146 0.80105 0.0
H525 H 0.23638 0.82918 0.8113 0.0
C526 C 0.15011 0.83728 0.81251 0.0
C527 C 0.19438 0.80832 0.80079 0.0
C528 C 0.20953 0.7817 0.78773 0.0
C529 C 0.16785 0.86074 0.8224 0.0
C530 C 0.19943 0.85771 0.82215 0.0
C531 C 0.21222 0.83132 0.81176 0.0
C532 C 0.21929 0.88306 0.82972 0.0
C533 C 0.15243 0.88924 0.83128 0.0
C534 C 0.23914 0.89487 0.81009 0.0
C535 C 0.25282 0.92257 0.8145 0.0
C536 C 0.24638 0.93899 0.83837 0.0
C537 C 0.22883 0.92593 0.85907 0.0
C538 C 0.21593 0.89783 0.85502 0.0
H539 H 0.12905 0.89041 0.82367 0.0
H540 H 0.15161 0.89024 0.85403 0.0
H541 H 0.16464 0.9092 0.82366 0.0
H542 H 0.24232 0.88377 0.7905 0.0
H543 H 0.26613 0.93233 0.79818 0.0
H544 H 0.83102 0.95842 0.7933 0.0
H545 H 0.86028 0.91349 0.78494 0.0
H546 H 0.77967 0.86059 0.78498 0.0
H547 H 0.74989 0.90575 0.7937 0.0
H548 H 0.86311 0.85571 0.81439 0.0
H549 H 0.81981 0.84878 0.70731 0.0
H550 H 0.81663 0.8824 0.72768 0.0
H551 H 0.79286 0.85103 0.73477 0.0
C552 C 0.81941 0.93726 0.79216 0.0
C553 C 0.78805 0.93574 0.79421 0.0
C554 C 0.83624 0.91156 0.78732 0.0
C555 C 0.8221 0.88385 0.78414 0.0
C556 C 0.79093 0.8819 0.7872 0.0
H557 H 0.90553 0.72513 0.71302 0.0
H558 H 0.86953 0.75878 0.73471 0.0
C559 C 0.77399 0.90768 0.79225 0.0
C560 C 0.84011 0.85768 0.77567 0.0
H561 H 0.85721 0.81484 0.71977 0.0
C562 C 0.86164 0.84645 0.79383 0.0
C563 C 0.83808 0.84578 0.74883 0.0
C564 C 0.81577 0.8576 0.72834 0.0
C565 C 0.88156 0.82383 0.78569 0.0
C566 C 0.88035 0.81277 0.75846 0.0
C567 C 0.85816 0.82338 0.74061 0.0
C568 C 0.90262 0.79122 0.7475 0.0
C569 C 0.90366 0.81202 0.80635 0.0
C570 C 0.93325 0.79824 0.74747 0.0
C571 C 0.95398 0.77895 0.73521 0.0
C572 C 0.9444 0.75246 0.72235 0.0
C573 C 0.91371 0.74539 0.72264 0.0
C574 C 0.89307 0.76457 0.73507 0.0
H575 H 0.89548 0.8153 0.82771 0.0
H576 H 0.90815 0.78788 0.80304 0.0
H577 H 0.92506 0.82439 0.80422 0.0
H578 H 0.94108 0.81906 0.75626 0.0
H579 H 0.97739 0.7852 0.73521 0.0
H580 H 0.19361 0.96704 0.24485 0.0
H581 H 0.15759 0.92711 0.2519 0.0
H582 H 0.22948 0.8633 0.2582 0.0
H583 H 0.26599 0.90328 0.25 0.0
H584 H 0.18091 0.84149 0.22882 0.0
H585 H 0.14366 0.89169 0.32735 0.0
H586 H 0.14039 0.91689 0.29893 0.0
H587 H 0.17677 0.90415 0.30947 0.0
C588 C 0.20191 0.94453 0.24721 0.0
C589 C 0.23276 0.93842 0.24688 0.0
C590 C 0.18121 0.92172 0.25156 0.0
C591 C 0.19089 0.89241 0.25626 0.0
C592 C 0.22158 0.88588 0.25483 0.0
H593 H 0.09955 0.7327 0.31111 0.0
H594 H 0.13642 0.76996 0.29694 0.0
C595 C 0.24239 0.90872 0.25016 0.0
C596 C 0.16892 0.86893 0.26354 0.0
H597 H 0.11407 0.85175 0.30989 0.0
C598 C 0.16642 0.84362 0.24662 0.0
C599 C 0.15015 0.87172 0.2869 0.0
C600 C 0.15303 0.89742 0.30686 0.0
C601 C 0.14511 0.82133 0.25213 0.0
C602 C 0.126 0.82454 0.27509 0.0
C603 C 0.12862 0.84966 0.29211 0.0
C604 C 0.10364 0.80161 0.28236 0.0
C605 C 0.14281 0.79465 0.23327 0.0
C606 C 0.07303 0.80734 0.27901 0.0
C607 C 0.05181 0.78607 0.287 0.0
C608 C 0.06093 0.75891 0.29884 0.0
C609 C 0.09171 0.7534 0.30218 0.0
C610 C 0.11285 0.77455 0.29395 0.0
H611 H 0.15619 0.79758 0.21421 0.0
H612 H 0.15104 0.77449 0.24412 0.0
H613 H 0.1191 0.79058 0.22762 0.0
H614 H 0.0656 0.82829 0.27026 0.0
H615 H 0.02831 0.79104 0.28418 0.0
H616 H 0.06418 0.23957 0.69614 0.0
H617 H 0.09272 0.20647 0.72631 0.0
H618 H 0.17478 0.24843 0.70012 0.0
H619 H 0.14668 0.28157 0.67001 0.0
H620 H 0.14045 0.16655 0.70992 0.0
H621 H 0.17793 0.25179 0.7855 0.0
H622 H 0.1468 0.25782 0.76258 0.0
H623 H 0.18451 0.26111 0.7501 0.0
C624 C 0.08829 0.24179 0.69678 0.0
C625 C 0.1031 0.2633 0.68064 0.0
C626 C 0.10453 0.2229 0.71407 0.0
C627 C 0.13576 0.22542 0.71576 0.0
C628 C 0.15062 0.24656 0.69949 0.0
H629 H 0.28043 0.13022 0.79314 0.0
H630 H 0.24833 0.16759 0.77137 0.0
C631 C 0.13449 0.26532 0.68212 0.0
C632 C 0.15305 0.20514 0.73363 0.0
H633 H 0.20053 0.20381 0.78846 0.0
C634 C 0.15337 0.17459 0.72726 0.0
C635 C 0.17001 0.21585 0.75607 0.0
C636 C 0.16971 0.2484 0.7642 0.0
C637 C 0.17088 0.15448 0.7423 0.0
C638 C 0.18791 0.16515 0.76477 0.0
C639 C 0.18738 0.19571 0.7713 0.0
C640 C 0.20694 0.14486 0.7812 0.0
C641 C 0.17176 0.12215 0.73336 0.0
C642 C 0.19421 0.1205 0.79501 0.0
C643 C 0.21245 0.09904 0.80725 0.0
C644 C 0.24378 0.1018 0.80628 0.0
C645 C 0.25639 0.12742 0.79422 0.0
C646 C 0.23809 0.14877 0.78173 0.0
H647 H 0.16384 0.11927 0.71191 0.0
H648 H 0.19476 0.11296 0.73489 0.0
H649 H 0.15691 0.10882 0.74692 0.0
H650 H 0.17017 0.11747 0.79543 0.0
H651 H 0.20193 0.07974 0.81646 0.0
H652 H 0.96631 0.28302 0.23966 0.0
H653 H 0.91866 0.2584 0.23144 0.0
H654 H 0.88155 0.30011 0.30383 0.0
H655 H 0.92958 0.32482 0.31253 0.0
H656 H 0.87208 0.23976 0.30222 0.0
H657 H 0.83902 0.28897 0.20302 0.0
H658 H 0.87686 0.27575 0.20178 0.0
H659 H 0.86706 0.30576 0.22484 0.0
C660 C 0.94803 0.28726 0.25378 0.0
C661 C 0.95185 0.30589 0.27681 0.0
C662 C 0.92064 0.27341 0.24883 0.0
C663 C 0.89636 0.27798 0.26665 0.0
C664 C 0.89993 0.29665 0.28962 0.0
H665 H 0.73662 0.1685 0.22614 0.0
H666 H 0.76452 0.21379 0.23928 0.0
C667 C 0.9274 0.31064 0.29459 0.0
C668 C 0.86851 0.26065 0.26253 0.0
H669 H 0.81981 0.23891 0.21242 0.0
C670 C 0.86009 0.24015 0.28288 0.0
C671 C 0.85255 0.26146 0.23748 0.0
C672 C 0.85915 0.28443 0.21568 0.0
C673 C 0.83798 0.21863 0.27784 0.0
C674 C 0.82427 0.2175 0.25175 0.0
C675 C 0.83069 0.23965 0.2323 0.0
C676 C 0.80697 0.19103 0.24306 0.0
C677 C 0.8306 0.19622 0.29994 0.0
C678 C 0.82185 0.16367 0.24022 0.0
C679 C 0.80622 0.13809 0.23261 0.0
C680 C 0.7753 0.1393 0.2276 0.0
C681 C 0.76043 0.16691 0.22986 0.0
C682 C 0.77626 0.19272 0.23739 0.0
H683 H 0.83601 0.20505 0.32069 0.0
H684 H 0.80655 0.18997 0.29937 0.0
H685 H 0.84404 0.17569 0.29655 0.0
H686 H 0.84565 0.16207 0.24413 0.0
H687 H 0.81839 0.11723 0.23128 0.0
loop_
_geom_bond_atom_site_label_1
_geom_bond_atom_site_label_2
_geom_bond_distance
_geom_bond_site_symmetry_2
_ccdc_geom_bond_type
Mg0 O1 2.028 . S
Mg0 O7 1.986 . S
Mg0 O9 2.114 1_545 S
Mg0 O10 2.251 1_545 S
Mg0 O13 2.010 . S
O1 Mg0 2.028 . S
O1 C4 1.250 . S
O2 Mg3 2.028 . S
O2 C4 1.248 . S
Mg3 O2 2.028 . S
Mg3 O8 2.032 . S
Mg3 O10 2.079 1_545 S
C4 O1 1.250 . S
C4 O2 1.248 . S
C5 O6 1.264 . S
C5 O13 1.249 . S
O6 C5 1.264 . S
O7 Mg0 1.986 . S
O7 C11 1.246 . S
O8 Mg3 2.032 . S
O8 C11 1.259 . S
O9 Mg0 2.114 1_565 S
O9 C12 1.252 . S
O10 Mg0 2.251 1_565 S
O10 Mg3 2.079 1_565 S
O10 C12 1.273 . S
C11 O7 1.246 . S
C11 O8 1.259 . S
C12 O9 1.252 . S
C12 O10 1.273 . S
O13 Mg0 2.010 . S
O13 C5 1.249 . S
Mg14 O15 2.028 1_655 S
Mg14 O21 1.986 1_655 S
Mg14 O23 2.114 . S
Mg14 O24 2.251 1_655 S
Mg14 O27 2.010 . S
O15 Mg14 2.028 1_455 S
O15 C18 1.250 . S
O16 Mg17 2.028 . S
O16 C18 1.248 . S
Mg17 O16 2.028 . S
Mg17 O22 2.032 . S
Mg17 O24 2.079 . S
C18 O15 1.250 . S
C18 O16 1.248 . S
C19 O20 1.264 . S
C19 O27 1.249 . S
O20 C19 1.264 . S
O21 Mg14 1.986 1_455 S
O21 C25 1.246 . S
O22 Mg17 2.032 . S
O22 C25 1.259 . S
O23 Mg14 2.114 . S
O23 C26 1.234 1_655 S
O24 Mg14 2.251 1_455 S
O24 Mg17 2.079 . S
O24 C26 1.273 . S
C25 O21 1.246 . S
C25 O22 1.259 . S
C26 O23 1.234 1_455 S
C26 O24 1.273 . S
O27 Mg14 2.010 . S
O27 C19 1.249 . S
Mg28 O29 2.028 . S
Mg28 O35 1.986 1_545 S
Mg28 O37 2.114 . S
Mg28 O38 2.251 . S
Mg28 O41 2.010 . S
O29 Mg28 2.028 . S
O29 C32 1.250 . S
O30 Mg31 2.028 . S
O30 C32 1.248 . S
Mg31 O30 2.028 . S
Mg31 O36 2.032 1_545 S
Mg31 O38 2.079 . S
C32 O29 1.250 . S
C32 O30 1.248 . S
C33 O34 1.264 . S
C33 O41 1.249 . S
O34 C33 1.264 . S
O35 Mg28 1.986 1_565 S
O35 C39 1.246 . S
O36 Mg31 2.032 1_565 S
O36 C39 1.259 . S
O37 Mg28 2.114 . S
O37 C40 1.252 . S
O38 Mg28 2.251 . S
O38 Mg31 2.079 . S
O38 C40 1.273 . S
C39 O35 1.246 . S
C39 O36 1.259 . S
C40 O37 1.252 . S
C40 O38 1.273 . S
O41 Mg28 2.010 . S
O41 C33 1.249 . S
Mg42 O43 2.028 . S
Mg42 O49 1.986 . S
Mg42 O51 2.114 . S
Mg42 O52 2.251 . S
Mg42 O55 2.010 . S
O43 Mg42 2.028 . S
O43 C46 1.250 1_455 S
O44 Mg45 2.028 . S
O44 C46 1.248 . S
Mg45 O44 2.028 . S
Mg45 O50 2.032 . S
Mg45 O52 2.079 1_655 S
C46 O43 1.250 1_655 S
C46 O44 1.248 . S
C47 O48 1.264 . S
C47 O55 1.249 . S
O48 C47 1.264 . S
O49 Mg42 1.986 . S
O49 C53 1.246 . S
O50 Mg45 2.032 . S
O50 C53 1.259 1_655 S
O51 Mg42 2.114 . S
O51 C54 1.252 . S
O52 Mg42 2.251 . S
O52 Mg45 2.079 1_455 S
O52 C54 1.273 . S
C53 O49 1.246 . S
C53 O50 1.259 1_455 S
C54 O51 1.252 . S
C54 O52 1.273 . S
O55 Mg42 2.010 . S
O55 C47 1.249 . S
Mg56 O57 2.028 . S
Mg56 O63 1.986 1_545 S
Mg56 O65 2.114 . S
Mg56 O66 2.251 . S
Mg56 O69 2.010 . S
O57 Mg56 2.028 . S
O57 C60 1.250 . S
O58 Mg59 2.028 . S
O58 C60 1.248 . S
Mg59 O58 2.028 . S
Mg59 O64 2.032 1_545 S
Mg59 O66 2.079 . S
C60 O57 1.250 . S
C60 O58 1.248 . S
C61 O62 1.264 . S
C61 O69 1.249 . S
O62 C61 1.264 . S
O63 Mg56 1.986 1_565 S
O63 C67 1.246 . S
O64 Mg59 2.032 1_565 S
O64 C67 1.259 . S
O65 Mg56 2.114 . S
O65 C68 1.252 . S
O66 Mg56 2.251 . S
O66 Mg59 2.079 . S
O66 C68 1.273 . S
C67 O63 1.246 . S
C67 O64 1.259 . S
C68 O65 1.252 . S
C68 O66 1.273 . S
O69 Mg56 2.010 . S
O69 C61 1.249 . S
Mg70 O71 2.028 . S
Mg70 O77 1.986 . S
Mg70 O79 2.114 . S
Mg70 O80 2.251 . S
Mg70 O83 2.010 . S
O71 Mg70 2.028 . S
O71 C74 1.250 1_455 S
O72 Mg73 2.028 . S
O72 C74 1.248 . S
Mg73 O72 2.028 . S
Mg73 O78 2.032 . S
Mg73 O80 2.079 1_655 S
C74 O71 1.250 1_655 S
C74 O72 1.248 . S
C75 O76 1.264 . S
C75 O83 1.249 . S
O76 C75 1.264 . S
O77 Mg70 1.986 . S
O77 C81 1.246 . S
O78 Mg73 2.032 . S
O78 C81 1.259 1_655 S
O79 Mg70 2.114 . S
O79 C82 1.252 . S
O80 Mg70 2.251 . S
O80 Mg73 2.079 1_455 S
O80 C82 1.273 . S
C81 O77 1.246 . S
C81 O78 1.259 1_455 S
C82 O79 1.252 . S
C82 O80 1.273 . S
O83 Mg70 2.010 . S
O83 C75 1.249 . S
Mg84 O85 2.028 . S
Mg84 O91 1.986 . S
Mg84 O93 2.114 1_545 S
Mg84 O94 2.251 1_545 S
Mg84 O97 2.010 . S
O85 Mg84 2.028 . S
O85 C88 1.250 . S
O86 Mg87 2.028 . S
O86 C88 1.248 . S
Mg87 O86 2.028 . S
Mg87 O92 2.032 . S
Mg87 O94 2.079 1_545 S
C88 O85 1.250 . S
C88 O86 1.248 . S
C89 O90 1.264 . S
C89 O97 1.249 . S
O90 C89 1.264 . S
O91 Mg84 1.986 . S
O91 C95 1.246 . S
O92 Mg87 2.032 . S
O92 C95 1.259 . S
O93 Mg84 2.114 1_565 S
O93 C96 1.252 . S
O94 Mg84 2.251 1_565 S
O94 Mg87 2.079 1_565 S
O94 C96 1.273 . S
C95 O91 1.246 . S
C95 O92 1.259 . S
C96 O93 1.252 . S
C96 O94 1.273 . S
O97 Mg84 2.010 . S
O97 C89 1.249 . S
Mg98 O99 2.028 1_655 S
Mg98 O105 1.986 1_655 S
Mg98 O107 2.114 . S
Mg98 O108 2.251 1_655 S
Mg98 O111 2.010 . S
O99 Mg98 2.028 1_455 S
O99 C102 1.250 . S
O100 Mg101 2.028 . S
O100 C102 1.248 . S
Mg101 O100 2.028 . S
Mg101 O106 2.032 . S
Mg101 O108 2.079 . S
C102 O99 1.250 . S
C102 O100 1.248 . S
C103 O104 1.264 . S
C103 O111 1.249 . S
O104 C103 1.264 . S
O105 Mg98 1.986 1_455 S
O105 C109 1.246 . S
O106 Mg101 2.032 . S
O106 C109 1.259 . S
O107 Mg98 2.114 . S
O107 C110 1.235 1_655 S
O108 Mg98 2.251 1_455 S
O108 Mg101 2.079 . S
O108 C110 1.273 . S
C109 O105 1.246 . S
C109 O106 1.259 . S
C110 O107 1.235 1_455 S
C110 O108 1.273 . S
O111 Mg98 2.010 . S
O111 C103 1.249 . S
H112 C120 0.929 . S
H113 C122 0.930 . S
H114 C124 0.930 . S
H115 C127 0.929 . S
H116 C130 0.930 . S
H117 C132 0.960 . S
H118 C132 0.960 . S
H119 C132 0.960 . S
C120 H112 0.929 . S
C120 C121 1.377 . S
C120 C122 1.384 . S
C121 C120 1.377 . S
C121 C127 1.390 . S
C122 H113 0.930 . S
C122 C120 1.384 . S
C122 C123 1.372 . S
C123 C122 1.372 . S
C123 C124 1.400 . S
C123 C128 1.490 . S
C124 H114 0.930 . S
C124 C123 1.400 . S
C124 C127 1.386 . S
H125 C141 0.930 . S
H126 C142 0.931 . S
C127 H115 0.929 . S
C127 C121 1.390 . S
C127 C124 1.386 . S
C128 C123 1.490 . S
C128 C130 1.395 . S
C128 C131 1.403 . S
H129 C135 0.930 1_565 S
C130 H116 0.930 . S
C130 C128 1.395 . S
C130 C133 1.403 1_554 S
C131 C128 1.403 . S
C131 C132 1.524 1_545 S
C131 C135 1.400 1_554 S
C132 H117 0.960 . S
C132 H118 0.960 . S
C132 H119 0.960 . S
C132 C131 1.524 1_565 S
C133 C130 1.403 1_556 S
C133 C134 1.392 . S
C133 C137 1.495 . S
C134 C133 1.392 . S
C134 C135 1.385 . S
C134 C136 1.478 . S
C135 H129 0.930 1_545 S
C135 C131 1.400 1_556 S
C135 C134 1.385 . S
C136 C134 1.478 . S
C136 C138 1.381 . S
C136 C142 1.383 . S
C137 C133 1.495 . S
C137 H143 0.959 . S
C137 H144 0.961 . S
C137 H145 0.960 . S
C138 C136 1.381 . S
C138 C139 1.394 . S
C138 H146 0.930 . S
C139 C138 1.394 . S
C139 C140 1.383 . S
C139 H147 0.929 . S
C140 C139 1.383 . S
C140 C141 1.377 . S
C141 H125 0.930 . S
C141 C140 1.377 . S
C141 C142 1.379 . S
C142 H126 0.931 . S
C142 C136 1.383 . S
C142 C141 1.379 . S
H143 C137 0.959 . S
H144 C137 0.961 . S
H145 C137 0.960 . S
H146 C138 0.930 . S
H147 C139 0.929 . S
H148 C156 0.929 . S
H149 C158 0.930 . S
H150 C160 0.930 . S
H151 C163 0.929 . S
H152 C166 0.930 . S
H153 C168 0.960 . S
H154 C168 0.960 1_655 S
H155 C168 0.960 . S
C156 H148 0.929 . S
C156 C157 1.377 1_655 S
C156 C158 1.384 . S
C157 C156 1.377 1_455 S
C157 C163 1.390 . S
C158 H149 0.930 . S
C158 C156 1.384 . S
C158 C159 1.372 1_655 S
C159 C158 1.372 1_455 S
C159 C160 1.400 . S
C159 C164 1.490 . S
C160 H150 0.930 . S
C160 C159 1.400 . S
C160 C163 1.386 . S
H161 C177 0.930 . S
H162 C178 0.931 . S
C163 H151 0.929 . S
C163 C157 1.390 . S
C163 C160 1.386 . S
C164 C159 1.490 . S
C164 C166 1.395 . S
C164 C167 1.403 . S
H165 C171 0.930 . S
C166 H152 0.930 . S
C166 C164 1.395 . S
C166 C169 1.403 . S
C167 C164 1.403 . S
C167 C168 1.524 . S
C167 C171 1.400 . S
C168 H153 0.960 . S
C168 H154 0.960 1_455 S
C168 H155 0.960 . S
C168 C167 1.524 . S
C169 C166 1.403 . S
C169 C170 1.392 . S
C169 C173 1.495 . S
C170 C169 1.392 . S
C170 C171 1.385 . S
C170 C172 1.478 . S
C171 H165 0.930 . S
C171 C167 1.400 . S
C171 C170 1.385 . S
C172 C170 1.478 . S
C172 C174 1.381 1_455 S
C172 C178 1.383 . S
C173 C169 1.495 . S
C173 H179 0.959 . S
C173 H180 0.961 . S
C173 H181 0.960 . S
C174 C172 1.381 1_655 S
C174 C175 1.394 . S
C174 H182 0.930 . S
C175 C174 1.394 . S
C175 C176 1.383 1_655 S
C175 H183 0.929 . S
C176 C175 1.383 1_455 S
C176 C177 1.377 . S
C177 H161 0.930 . S
C177 C176 1.377 . S
C177 C178 1.379 . S
C178 H162 0.931 . S
C178 C172 1.383 . S
C178 C177 1.379 . S
H179 C173 0.959 . S
H180 C173 0.961 . S
H181 C173 0.960 . S
H182 C174 0.930 . S
H183 C175 0.929 . S
H184 C192 0.929 . S
H185 C194 0.930 . S
H186 C196 0.930 1_565 S
H187 C199 0.929 1_565 S
H188 C202 0.930 . S
H189 C204 0.960 . S
H190 C204 0.960 . S
H191 C204 0.960 . S
C192 H184 0.929 . S
C192 C193 1.377 . S
C192 C194 1.384 . S
C193 C192 1.377 . S
C193 C199 1.390 . S
C194 H185 0.930 . S
C194 C192 1.384 . S
C194 C195 1.372 . S
C195 C194 1.372 . S
C195 C196 1.400 . S
C195 C200 1.490 . S
C196 H186 0.930 1_545 S
C196 C195 1.400 . S
C196 C199 1.386 . S
H197 C213 0.930 . S
H198 C214 0.931 . S
C199 H187 0.929 1_545 S
C199 C193 1.390 . S
C199 C196 1.386 . S
C200 C195 1.490 . S
C200 C202 1.395 . S
C200 C203 1.403 . S
H201 C207 0.930 1_565 S
C202 H188 0.930 . S
C202 C200 1.395 . S
C202 C205 1.403 1_556 S
C203 C200 1.403 . S
C203 C204 1.524 1_545 S
C203 C207 1.400 1_556 S
C204 H189 0.960 . S
C204 H190 0.960 . S
C204 H191 0.960 . S
C204 C203 1.524 1_565 S
C205 C202 1.403 1_554 S
C205 C206 1.392 . S
C205 C209 1.495 . S
C206 C205 1.392 . S
C206 C207 1.385 . S
C206 C208 1.478 . S
C207 H201 0.930 1_545 S
C207 C203 1.400 1_554 S
C207 C206 1.385 . S
C208 C206 1.478 . S
C208 C210 1.381 . S
C208 C214 1.383 . S
C209 C205 1.495 . S
C209 H215 0.959 . S
C209 H216 0.961 . S
C209 H217 0.960 . S
C210 C208 1.381 . S
C210 C211 1.394 . S
C210 H218 0.930 . S
C211 C210 1.394 . S
C211 C212 1.383 . S
C211 H219 0.929 . S
C212 C211 1.383 . S
C212 C213 1.377 . S
C213 H197 0.930 . S
C213 C212 1.377 . S
C213 C214 1.379 . S
C214 H198 0.931 . S
C214 C208 1.383 . S
C214 C213 1.379 . S
H215 C209 0.959 . S
H216 C209 0.961 . S
H217 C209 0.960 . S
H218 C210 0.930 . S
H219 C211 0.929 . S
H220 C228 0.929 . S
H221 C230 0.930 . S
H222 C232 0.930 . S
H223 C235 0.929 . S
H224 C238 0.930 . S
H225 C240 0.960 . S
H226 C240 0.960 . S
H227 C240 0.960 . S
C228 H220 0.929 . S
C228 C229 1.377 1_655 S
C228 C230 1.384 . S
C229 C228 1.377 1_455 S
C229 C235 1.390 . S
C230 H221 0.930 . S
C230 C228 1.384 . S
C230 C231 1.372 1_655 S
C231 C230 1.372 1_455 S
C231 C232 1.400 . S
C231 C236 1.490 . S
C232 H222 0.930 . S
C232 C231 1.400 . S
C232 C235 1.386 . S
H233 C249 0.930 . S
H234 C250 0.931 . S
C235 H223 0.929 . S
C235 C229 1.390 . S
C235 C232 1.386 . S
C236 C231 1.490 . S
C236 C238 1.395 1_455 S
C236 C239 1.403 . S
H237 C243 0.930 . S
C238 H224 0.930 . S
C238 C236 1.395 1_655 S
C238 C241 1.403 . S
C239 C236 1.403 . S
C239 C240 1.524 . S
C239 C243 1.400 . S
C240 H225 0.960 . S
C240 H226 0.960 . S
C240 H227 0.960 . S
C240 C239 1.524 . S
C241 C238 1.403 . S
C241 C242 1.392 1_655 S
C241 C245 1.495 . S
C242 C241 1.392 1_455 S
C242 C243 1.385 . S
C242 C244 1.478 . S
C243 H237 0.930 . S
C243 C239 1.400 . S
C243 C242 1.385 . S
C244 C242 1.478 . S
C244 C246 1.381 1_455 S
C244 C250 1.383 . S
C245 C241 1.495 . S
C245 H251 0.959 . S
C245 H252 0.961 . S
C245 H253 0.960 . S
C246 C244 1.381 1_655 S
C246 C247 1.394 . S
C246 H254 0.930 . S
C247 C246 1.394 . S
C247 C248 1.383 1_655 S
C247 H255 0.929 . S
C248 C247 1.383 1_455 S
C248 C249 1.377 . S
C249 H233 0.930 . S
C249 C248 1.377 . S
C249 C250 1.379 . S
C250 H234 0.931 . S
C250 C244 1.383 . S
C250 C249 1.379 . S
H251 C245 0.959 . S
H252 C245 0.961 . S
H253 C245 0.960 . S
H254 C246 0.930 . S
H255 C247 0.929 . S
H256 C264 0.929 . S
H257 C266 0.930 . S
H258 C268 0.930 . S
H259 C271 0.929 . S
H260 C274 0.930 . S
H261 C276 0.960 . S
H262 C276 0.960 . S
H263 C276 0.957 . S
C264 H256 0.929 . S
C264 C265 1.377 . S
C264 C266 1.384 . S
C265 C264 1.377 . S
C265 C271 1.390 1_545 S
C266 H257 0.930 . S
C266 C264 1.384 . S
C266 C267 1.372 . S
C267 C266 1.372 . S
C267 C268 1.400 1_545 S
C267 C272 1.490 . S
C268 H258 0.930 . S
C268 C267 1.400 1_565 S
C268 C271 1.386 . S
H269 C285 0.930 1_565 S
H270 C286 0.931 1_565 S
C271 H259 0.929 . S
C271 C265 1.390 1_565 S
C271 C268 1.386 . S
C272 C267 1.490 . S
C272 C274 1.395 . S
C272 C275 1.403 . S
H273 C279 0.930 . S
C274 H260 0.930 . S
C274 C272 1.395 . S
C274 C277 1.403 . S
C275 C272 1.403 . S
C275 C276 1.524 . S
C275 C279 1.400 . S
C276 H261 0.960 . S
C276 H262 0.960 . S
C276 H263 0.957 . S
C276 C275 1.524 . S
C277 C274 1.403 . S
C277 C278 1.392 . S
C277 C281 1.495 . S
C278 C277 1.392 . S
C278 C279 1.385 . S
C278 C280 1.478 . S
C279 H273 0.930 . S
C279 C275 1.400 . S
C279 C278 1.385 . S
C280 C278 1.478 . S
C280 C282 1.381 . S
C280 C286 1.383 . S
C281 C277 1.495 . S
C281 H287 0.959 . S
C281 H288 0.961 . S
C281 H289 0.960 . S
C282 C280 1.381 . S
C282 C283 1.394 . S
C282 H290 0.930 . S
C283 C282 1.394 . S
C283 C284 1.383 . S
C283 H291 0.929 . S
C284 C283 1.383 . S
C284 C285 1.377 . S
C285 H269 0.930 1_545 S
C285 C284 1.377 . S
C285 C286 1.379 . S
C286 H270 0.931 1_545 S
C286 C280 1.383 . S
C286 C285 1.379 . S
H287 C281 0.959 . S
H288 C281 0.961 . S
H289 C281 0.960 . S
H290 C282 0.930 . S
H291 C283 0.929 . S
H292 C300 0.929 . S
H293 C302 0.930 . S
H294 C304 0.930 . S
H295 C307 0.929 . S
H296 C310 0.930 . S
H297 C312 0.960 . S
H298 C312 0.960 1_455 S
H299 C312 0.960 . S
C300 H292 0.929 . S
C300 C301 1.377 . S
C300 C302 1.384 . S
C301 C300 1.377 . S
C301 C307 1.390 1_455 S
C302 H293 0.930 . S
C302 C300 1.384 . S
C302 C303 1.372 . S
C303 C302 1.372 . S
C303 C304 1.400 1_455 S
C303 C308 1.490 . S
C304 H294 0.930 . S
C304 C303 1.400 1_655 S
C304 C307 1.386 . S
H305 C321 0.930 . S
H306 C322 0.931 . S
C307 H295 0.929 . S
C307 C301 1.390 1_655 S
C307 C304 1.386 . S
C308 C303 1.490 . S
C308 C310 1.395 . S
C308 C311 1.403 . S
H309 C315 0.930 1_655 S
C310 H296 0.930 . S
C310 C308 1.395 . S
C310 C313 1.403 . S
C311 C308 1.403 . S
C311 C312 1.524 1_455 S
C311 C315 1.400 . S
C312 H297 0.960 . S
C312 H298 0.960 1_655 S
C312 H299 0.960 . S
C312 C311 1.524 1_655 S
C313 C310 1.403 . S
C313 C314 1.392 . S
C313 C317 1.495 . S
C314 C313 1.392 . S
C314 C315 1.385 . S
C314 C316 1.478 . S
C315 H309 0.930 1_455 S
C315 C311 1.400 . S
C315 C314 1.385 . S
C316 C314 1.478 . S
C316 C318 1.381 . S
C316 C322 1.383 1_455 S
C317 C313 1.495 . S
C317 H323 0.959 . S
C317 H324 0.961 . S
C317 H325 0.960 . S
C318 C316 1.381 . S
C318 C319 1.394 . S
C318 H326 0.930 . S
C319 C318 1.394 . S
C319 C320 1.383 . S
C319 H327 0.929 . S
C320 C319 1.383 . S
C320 C321 1.377 1_455 S
C321 H305 0.930 . S
C321 C320 1.377 1_655 S
C321 C322 1.379 . S
C322 H306 0.931 . S
C322 C316 1.383 1_655 S
C322 C321 1.379 . S
H323 C317 0.959 . S
H324 C317 0.961 . S
H325 C317 0.960 . S
H326 C318 0.930 . S
H327 C319 0.929 . S
H328 C336 0.929 . S
H329 C338 0.930 . S
H330 C340 0.930 . S
H331 C343 0.929 . S
H332 C346 0.930 . S
H333 C348 0.960 . S
H334 C348 0.960 . S
H335 C348 0.960 . S
C336 H328 0.929 . S
C336 C337 1.377 . S
C336 C338 1.384 . S
C337 C336 1.377 . S
C337 C343 1.390 . S
C338 H329 0.930 . S
C338 C336 1.384 . S
C338 C339 1.372 . S
C339 C338 1.372 . S
C339 C340 1.400 . S
C339 C344 1.490 . S
C340 H330 0.930 . S
C340 C339 1.400 . S
C340 C343 1.386 . S
H341 C357 0.930 . S
H342 C358 0.931 . S
C343 H331 0.929 . S
C343 C337 1.390 . S
C343 C340 1.386 . S
C344 C339 1.490 . S
C344 C346 1.395 . S
C344 C347 1.403 . S
H345 C351 0.930 . S
C346 H332 0.930 . S
C346 C344 1.395 . S
C346 C349 1.403 . S
C347 C344 1.403 . S
C347 C348 1.524 1_545 S
C347 C351 1.400 . S
C348 H333 0.960 . S
C348 H334 0.960 . S
C348 H335 0.960 . S
C348 C347 1.524 1_565 S
C349 C346 1.403 . S
C349 C350 1.392 . S
C349 C353 1.495 . S
C350 C349 1.392 . S
C350 C351 1.385 . S
C350 C352 1.478 . S
C351 H345 0.930 . S
C351 C347 1.400 . S
C351 C350 1.385 . S
C352 C350 1.478 . S
C352 C354 1.381 . S
C352 C358 1.383 . S
C353 C349 1.495 . S
C353 H359 0.959 . S
C353 H360 0.961 . S
C353 H361 0.960 . S
C354 C352 1.381 . S
C354 C355 1.394 . S
C354 H362 0.930 . S
C355 C354 1.394 . S
C355 C356 1.383 . S
C355 H363 0.929 . S
C356 C355 1.383 . S
C356 C357 1.377 . S
C357 H341 0.930 . S
C357 C356 1.377 . S
C357 C358 1.379 . S
C358 H342 0.931 . S
C358 C352 1.383 . S
C358 C357 1.379 . S
H359 C353 0.959 . S
H360 C353 0.961 . S
H361 C353 0.960 . S
H362 C354 0.930 . S
H363 C355 0.929 . S
H364 C372 0.929 . S
H365 C374 0.930 . S
H366 C376 0.930 1_655 S
H367 C379 0.929 1_655 S
H368 C382 0.930 . S
H369 C384 0.960 . S
H370 C384 0.960 . S
H371 C384 0.960 . S
C372 H364 0.929 . S
C372 C373 1.377 . S
C372 C374 1.384 . S
C373 C372 1.377 . S
C373 C379 1.390 . S
C374 H365 0.930 . S
C374 C372 1.384 . S
C374 C375 1.372 . S
C375 C374 1.372 . S
C375 C376 1.400 . S
C375 C380 1.490 . S
C376 H366 0.930 1_455 S
C376 C375 1.400 . S
C376 C379 1.386 . S
H377 C393 0.930 . S
H378 C394 0.931 . S
C379 H367 0.929 1_455 S
C379 C373 1.390 . S
C379 C376 1.386 . S
C380 C375 1.490 . S
C380 C382 1.395 . S
C380 C383 1.403 1_455 S
H381 C387 0.930 . S
C382 H368 0.930 . S
C382 C380 1.395 . S
C382 C385 1.403 . S
C383 C380 1.403 1_655 S
C383 C384 1.524 . S
C383 C387 1.400 . S
C384 H369 0.960 . S
C384 H370 0.960 . S
C384 H371 0.960 . S
C384 C383 1.524 . S
C385 C382 1.403 . S
C385 C386 1.392 . S
C385 C389 1.495 . S
C386 C385 1.392 . S
C386 C387 1.385 1_455 S
C386 C388 1.478 . S
C387 H381 0.930 . S
C387 C383 1.400 . S
C387 C386 1.385 1_655 S
C388 C386 1.478 . S
C388 C390 1.381 . S
C388 C394 1.383 . S
C389 C385 1.495 . S
C389 H395 0.959 . S
C389 H396 0.961 . S
C389 H397 0.960 . S
C390 C388 1.381 . S
C390 C391 1.394 . S
C390 H398 0.930 . S
C391 C390 1.394 . S
C391 C392 1.383 . S
C391 H399 0.929 . S
C392 C391 1.383 . S
C392 C393 1.377 . S
C393 H377 0.930 . S
C393 C392 1.377 . S
C393 C394 1.379 . S
C394 H378 0.931 . S
C394 C388 1.383 . S
C394 C393 1.379 . S
H395 C389 0.959 . S
H396 C389 0.961 . S
H397 C389 0.960 . S
H398 C390 0.930 . S
H399 C391 0.929 . S
H400 C408 0.929 . S
H401 C410 0.930 . S
H402 C412 0.930 . S
H403 C415 0.929 . S
H404 C418 0.930 . S
H405 C420 0.960 . S
H406 C420 0.960 . S
H407 C420 0.960 . S
C408 H400 0.929 . S
C408 C409 1.377 . S
C408 C410 1.384 . S
C409 C408 1.377 . S
C409 C415 1.390 . S
C410 H401 0.930 . S
C410 C408 1.384 . S
C410 C411 1.372 . S
C411 C410 1.372 . S
C411 C412 1.400 . S
C411 C416 1.490 . S
C412 H402 0.930 . S
C412 C411 1.400 . S
C412 C415 1.386 . S
H413 C429 0.930 . S
H414 C430 0.931 . S
C415 H403 0.929 . S
C415 C409 1.390 . S
C415 C412 1.386 . S
C416 C411 1.490 . S
C416 C418 1.395 . S
C416 C419 1.403 . S
H417 C423 0.930 . S
C418 H404 0.930 . S
C418 C416 1.395 . S
C418 C421 1.403 . S
C419 C416 1.403 . S
C419 C420 1.524 . S
C419 C423 1.400 . S
C420 H405 0.960 . S
C420 H406 0.960 . S
C420 H407 0.960 . S
C420 C419 1.524 . S
C421 C418 1.403 . S
C421 C422 1.392 . S
C421 C425 1.495 . S
C422 C421 1.392 . S
C422 C423 1.385 . S
C422 C424 1.478 . S
C423 H417 0.930 . S
C423 C419 1.400 . S
C423 C422 1.385 . S
C424 C422 1.478 . S
C424 C426 1.381 . S
C424 C430 1.383 . S
C425 C421 1.495 . S
C425 H431 0.959 . S
C425 H432 0.961 . S
C425 H433 0.960 . S
C426 C424 1.381 . S
C426 C427 1.394 . S
C426 H434 0.930 . S
C427 C426 1.394 . S
C427 C428 1.383 . S
C427 H435 0.929 . S
C428 C427 1.383 . S
C428 C429 1.377 . S
C429 H413 0.930 . S
C429 C428 1.377 . S
C429 C430 1.379 . S
C430 H414 0.931 . S
C430 C424 1.383 . S
C430 C429 1.379 . S
H431 C425 0.959 . S
H432 C425 0.961 . S
H433 C425 0.960 . S
H434 C426 0.930 . S
H435 C427 0.929 . S
H436 C444 0.929 . S
H437 C446 0.930 . S
H438 C448 0.930 . S
H439 C451 0.929 . S
H440 C454 0.930 . S
H441 C456 0.960 . S
H442 C456 0.960 . S
H443 C456 0.960 . S
C444 H436 0.929 . S
C444 C445 1.377 . S
C444 C446 1.384 . S
C445 C444 1.377 . S
C445 C451 1.390 . S
C446 H437 0.930 . S
C446 C444 1.384 . S
C446 C447 1.372 . S
C447 C446 1.372 . S
C447 C448 1.400 . S
C447 C452 1.490 . S
C448 H438 0.930 . S
C448 C447 1.400 . S
C448 C451 1.386 . S
H449 C465 0.930 . S
H450 C466 0.931 . S
C451 H439 0.929 . S
C451 C445 1.390 . S
C451 C448 1.386 . S
C452 C447 1.490 . S
C452 C454 1.395 . S
C452 C455 1.403 . S
H453 C459 0.930 . S
C454 H440 0.930 . S
C454 C452 1.395 . S
C454 C457 1.403 . S
C455 C452 1.403 . S
C455 C456 1.524 . S
C455 C459 1.400 . S
C456 H441 0.960 . S
C456 H442 0.960 . S
C456 H443 0.960 . S
C456 C455 1.524 . S
C457 C454 1.403 . S
C457 C458 1.392 . S
C457 C461 1.495 . S
C458 C457 1.392 . S
C458 C459 1.385 . S
C458 C460 1.478 . S
C459 H453 0.930 . S
C459 C455 1.400 . S
C459 C458 1.385 . S
C460 C458 1.478 . S
C460 C462 1.381 . S
C460 C466 1.383 . S
C461 C457 1.495 . S
C461 H467 0.959 . S
C461 H468 0.961 . S
C461 H469 0.960 . S
C462 C460 1.381 . S
C462 C463 1.394 . S
C462 H470 0.930 . S
C463 C462 1.394 . S
C463 C464 1.383 . S
C463 H471 0.929 . S
C464 C463 1.383 . S
C464 C465 1.377 . S
C465 H449 0.930 . S
C465 C464 1.377 . S
C465 C466 1.379 . S
C466 H450 0.931 . S
C466 C460 1.383 . S
C466 C465 1.379 . S
H467 C461 0.959 . S
H468 C461 0.961 . S
H469 C461 0.960 . S
H470 C462 0.930 . S
H471 C463 0.929 . S
H472 C480 0.929 . S
H473 C482 0.930 . S
H474 C484 0.930 . S
H475 C487 0.929 . S
H476 C490 0.930 . S
H477 C492 0.960 . S
H478 C492 0.960 . S
H479 C492 0.960 . S
C480 H472 0.929 . S
C480 C481 1.377 . S
C480 C482 1.384 . S
C481 C480 1.377 . S
C481 C487 1.390 . S
C482 H473 0.930 . S
C482 C480 1.384 . S
C482 C483 1.372 . S
C483 C482 1.372 . S
C483 C484 1.400 . S
C483 C488 1.490 . S
C484 H474 0.930 . S
C484 C483 1.400 . S
C484 C487 1.386 . S
H485 C501 0.930 . S
H486 C502 0.931 . S
C487 H475 0.929 . S
C487 C481 1.390 . S
C487 C484 1.386 . S
C488 C483 1.490 . S
C488 C490 1.395 . S
C488 C491 1.403 . S
H489 C495 0.930 . S
C490 H476 0.930 . S
C490 C488 1.395 . S
C490 C493 1.403 . S
C491 C488 1.403 . S
C491 C492 1.524 . S
C491 C495 1.400 . S
C492 H477 0.960 . S
C492 H478 0.960 . S
C492 H479 0.960 . S
C492 C491 1.524 . S
C493 C490 1.403 . S
C493 C494 1.392 . S
C493 C497 1.495 . S
C494 C493 1.392 . S
C494 C495 1.385 . S
C494 C496 1.478 . S
C495 H489 0.930 . S
C495 C491 1.400 . S
C495 C494 1.385 . S
C496 C494 1.478 . S
C496 C498 1.381 . S
C496 C502 1.383 . S
C497 C493 1.495 . S
C497 H503 0.959 . S
C497 H504 0.961 . S
C497 H505 0.960 . S
C498 C496 1.381 . S
C498 C499 1.394 . S
C498 H506 0.930 . S
C499 C498 1.394 . S
C499 C500 1.383 . S
C499 H507 0.929 . S
C500 C499 1.383 . S
C500 C501 1.377 . S
C501 H485 0.930 . S
C501 C500 1.377 . S
C501 C502 1.379 . S
C502 H486 0.931 . S
C502 C496 1.383 . S
C502 C501 1.379 . S
H503 C497 0.959 . S
H504 C497 0.961 . S
H505 C497 0.960 . S
H506 C498 0.930 . S
H507 C499 0.929 . S
H508 C516 0.929 . S
H509 C518 0.930 . S
H510 C520 0.930 . S
H511 C523 0.929 . S
H512 C526 0.930 . S
H513 C528 0.960 . S
H514 C528 0.960 . S
H515 C528 0.960 . S
C516 H508 0.929 . S
C516 C517 1.377 . S
C516 C518 1.384 . S
C517 C516 1.377 . S
C517 C523 1.390 . S
C518 H509 0.930 . S
C518 C516 1.384 . S
C518 C519 1.372 . S
C519 C518 1.372 . S
C519 C520 1.400 . S
C519 C524 1.490 . S
C520 H510 0.930 . S
C520 C519 1.400 . S
C520 C523 1.386 . S
H521 C537 0.930 . S
H522 C538 0.931 . S
C523 H511 0.929 . S
C523 C517 1.390 . S
C523 C520 1.386 . S
C524 C519 1.490 . S
C524 C526 1.395 . S
C524 C527 1.403 . S
H525 C531 0.930 . S
C526 H512 0.930 . S
C526 C524 1.395 . S
C526 C529 1.403 . S
C527 C524 1.403 . S
C527 C528 1.524 . S
C527 C531 1.400 . S
C528 H513 0.960 . S
C528 H514 0.960 . S
C528 H515 0.960 . S
C528 C527 1.524 . S
C529 C526 1.403 . S
C529 C530 1.392 . S
C529 C533 1.495 . S
C530 C529 1.392 . S
C530 C531 1.385 . S
C530 C532 1.478 . S
C531 H525 0.930 . S
C531 C527 1.400 . S
C531 C530 1.385 . S
C532 C530 1.478 . S
C532 C534 1.381 . S
C532 C538 1.383 . S
C533 C529 1.495 . S
C533 H539 0.959 . S
C533 H540 0.961 . S
C533 H541 0.960 . S
C534 C532 1.381 . S
C534 C535 1.394 . S
C534 H542 0.930 . S
C535 C534 1.394 . S
C535 C536 1.383 . S
C535 H543 0.929 . S
C536 C535 1.383 . S
C536 C537 1.377 . S
C537 H521 0.930 . S
C537 C536 1.377 . S
C537 C538 1.379 . S
C538 H522 0.931 . S
C538 C532 1.383 . S
C538 C537 1.379 . S
H539 C533 0.959 . S
H540 C533 0.961 . S
H541 C533 0.960 . S
H542 C534 0.930 . S
H543 C535 0.929 . S
H544 C552 0.929 . S
H545 C554 0.930 . S
H546 C556 0.930 . S
H547 C559 0.929 . S
H548 C562 0.930 . S
H549 C564 0.960 . S
H550 C564 0.960 . S
H551 C564 0.960 . S
C552 H544 0.929 . S
C552 C553 1.377 . S
C552 C554 1.384 . S
C553 C552 1.377 . S
C553 C559 1.390 . S
C554 H545 0.930 . S
C554 C552 1.384 . S
C554 C555 1.372 . S
C555 C554 1.372 . S
C555 C556 1.400 . S
C555 C560 1.490 . S
C556 H546 0.930 . S
C556 C555 1.400 . S
C556 C559 1.386 . S
H557 C573 0.930 . S
H558 C574 0.931 . S
C559 H547 0.929 . S
C559 C553 1.390 . S
C559 C556 1.386 . S
C560 C555 1.490 . S
C560 C562 1.395 . S
C560 C563 1.403 . S
H561 C567 0.930 . S
C562 H548 0.930 . S
C562 C560 1.395 . S
C562 C565 1.403 . S
C563 C560 1.403 . S
C563 C564 1.524 . S
C563 C567 1.400 . S
C564 H549 0.960 . S
C564 H550 0.960 . S
C564 H551 0.960 . S
C564 C563 1.524 . S
C565 C562 1.403 . S
C565 C566 1.392 . S
C565 C569 1.495 . S
C566 C565 1.392 . S
C566 C567 1.385 . S
C566 C568 1.478 . S
C567 H561 0.930 . S
C567 C563 1.400 . S
C567 C566 1.385 . S
C568 C566 1.478 . S
C568 C570 1.381 . S
C568 C574 1.383 . S
C569 C565 1.495 . S
C569 H575 0.959 . S
C569 H576 0.961 . S
C569 H577 0.960 . S
C570 C568 1.381 . S
C570 C571 1.394 . S
C570 H578 0.930 . S
C571 C570 1.394 . S
C571 C572 1.383 . S
C571 H579 0.929 . S
C572 C571 1.383 . S
C572 C573 1.377 . S
C573 H557 0.930 . S
C573 C572 1.377 . S
C573 C574 1.379 . S
C574 H558 0.931 . S
C574 C568 1.383 . S
C574 C573 1.379 . S
H575 C569 0.959 . S
H576 C569 0.961 . S
H577 C569 0.960 . S
H578 C570 0.930 . S
H579 C571 0.929 . S
H580 C588 0.929 . S
H581 C590 0.930 . S
H582 C592 0.930 . S
H583 C595 0.929 . S
H584 C598 0.930 . S
H585 C600 0.960 . S
H586 C600 0.960 . S
H587 C600 0.960 . S
C588 H580 0.929 . S
C588 C589 1.377 . S
C588 C590 1.384 . S
C589 C588 1.377 . S
C589 C595 1.390 . S
C590 H581 0.930 . S
C590 C588 1.384 . S
C590 C591 1.372 . S
C591 C590 1.372 . S
C591 C592 1.400 . S
C591 C596 1.490 . S
C592 H582 0.930 . S
C592 C591 1.400 . S
C592 C595 1.386 . S
H593 C609 0.930 . S
H594 C610 0.931 . S
C595 H583 0.929 . S
C595 C589 1.390 . S
C595 C592 1.386 . S
C596 C591 1.490 . S
C596 C598 1.395 . S
C596 C599 1.403 . S
H597 C603 0.930 . S
C598 H584 0.930 . S
C598 C596 1.395 . S
C598 C601 1.403 . S
C599 C596 1.403 . S
C599 C600 1.524 . S
C599 C603 1.400 . S
C600 H585 0.960 . S
C600 H586 0.960 . S
C600 H587 0.960 . S
C600 C599 1.524 . S
C601 C598 1.403 . S
C601 C602 1.392 . S
C601 C605 1.495 . S
C602 C601 1.392 . S
C602 C603 1.385 . S
C602 C604 1.478 . S
C603 H597 0.930 . S
C603 C599 1.400 . S
C603 C602 1.385 . S
C604 C602 1.478 . S
C604 C606 1.381 . S
C604 C610 1.383 . S
C605 C601 1.495 . S
C605 H611 0.959 . S
C605 H612 0.961 . S
C605 H613 0.960 . S
C606 C604 1.381 . S
C606 C607 1.394 . S
C606 H614 0.930 . S
C607 C606 1.394 . S
C607 C608 1.383 . S
C607 H615 0.929 . S
C608 C607 1.383 . S
C608 C609 1.377 . S
C609 H593 0.930 . S
C609 C608 1.377 . S
C609 C610 1.379 . S
C610 H594 0.931 . S
C610 C604 1.383 . S
C610 C609 1.379 . S
H611 C605 0.959 . S
H612 C605 0.961 . S
H613 C605 0.960 . S
H614 C606 0.930 . S
H615 C607 0.929 . S
H616 C624 0.929 . S
H617 C626 0.930 . S
H618 C628 0.930 . S
H619 C631 0.929 . S
H620 C634 0.930 . S
H621 C636 0.960 . S
H622 C636 0.960 . S
H623 C636 0.960 . S
C624 H616 0.929 . S
C624 C625 1.377 . S
C624 C626 1.384 . S
C625 C624 1.377 . S
C625 C631 1.390 . S
C626 H617 0.930 . S
C626 C624 1.384 . S
C626 C627 1.372 . S
C627 C626 1.372 . S
C627 C628 1.400 . S
C627 C632 1.490 . S
C628 H618 0.930 . S
C628 C627 1.400 . S
C628 C631 1.386 . S
H629 C645 0.930 . S
H630 C646 0.931 . S
C631 H619 0.929 . S
C631 C625 1.390 . S
C631 C628 1.386 . S
C632 C627 1.490 . S
C632 C634 1.395 . S
C632 C635 1.403 . S
H633 C639 0.930 . S
C634 H620 0.930 . S
C634 C632 1.395 . S
C634 C637 1.403 . S
C635 C632 1.403 . S
C635 C636 1.524 . S
C635 C639 1.400 . S
C636 H621 0.960 . S
C636 H622 0.960 . S
C636 H623 0.960 . S
C636 C635 1.524 . S
C637 C634 1.403 . S
C637 C638 1.392 . S
C637 C641 1.495 . S
C638 C637 1.392 . S
C638 C639 1.385 . S
C638 C640 1.478 . S
C639 H633 0.930 . S
C639 C635 1.400 . S
C639 C638 1.385 . S
C640 C638 1.478 . S
C640 C642 1.381 . S
C640 C646 1.383 . S
C641 C637 1.495 . S
C641 H647 0.959 . S
C641 H648 0.961 . S
C641 H649 0.960 . S
C642 C640 1.381 . S
C642 C643 1.394 . S
C642 H650 0.930 . S
C643 C642 1.394 . S
C643 C644 1.383 . S
C643 H651 0.929 . S
C644 C643 1.383 . S
C644 C645 1.377 . S
C645 H629 0.930 . S
C645 C644 1.377 . S
C645 C646 1.379 . S
C646 H630 0.931 . S
C646 C640 1.383 . S
C646 C645 1.379 . S
H647 C641 0.959 . S
H648 C641 0.961 . S
H649 C641 0.960 . S
H650 C642 0.930 . S
H651 C643 0.929 . S
H652 C660 0.929 . S
H653 C662 0.930 . S
H654 C664 0.930 . S
H655 C667 0.929 . S
H656 C670 0.930 . S
H657 C672 0.960 . S
H658 C672 0.960 . S
H659 C672 0.960 . S
C660 H652 0.929 . S
C660 C661 1.377 . S
C660 C662 1.384 . S
C661 C660 1.377 . S
C661 C667 1.390 . S
C662 H653 0.930 . S
C662 C660 1.384 . S
C662 C663 1.372 . S
C663 C662 1.372 . S
C663 C664 1.400 . S
C663 C668 1.490 . S
C664 H654 0.930 . S
C664 C663 1.400 . S
C664 C667 1.386 . S
H665 C681 0.930 . S
H666 C682 0.931 . S
C667 H655 0.929 . S
C667 C661 1.390 . S
C667 C664 1.386 . S
C668 C663 1.490 . S
C668 C670 1.395 . S
C668 C671 1.403 . S
H669 C675 0.930 . S
C670 H656 0.930 . S
C670 C668 1.395 . S
C670 C673 1.403 . S
C671 C668 1.403 . S
C671 C672 1.524 . S
C671 C675 1.400 . S
C672 H657 0.960 . S
C672 H658 0.960 . S
C672 H659 0.960 . S
C672 C671 1.524 . S
C673 C670 1.403 . S
C673 C674 1.392 . S
C673 C677 1.495 . S
C674 C673 1.392 . S
C674 C675 1.385 . S
C674 C676 1.478 . S
C675 H669 0.930 . S
C675 C671 1.400 . S
C675 C674 1.385 . S
C676 C674 1.478 . S
C676 C678 1.381 . S
C676 C682 1.383 . S
C677 C673 1.495 . S
C677 H683 0.959 . S
C677 H684 0.961 . S
C677 H685 0.960 . S
C678 C676 1.381 . S
C678 C679 1.394 . S
C678 H686 0.930 . S
C679 C678 1.394 . S
C679 C680 1.383 . S
C679 H687 0.929 . S
C680 C679 1.383 . S
C680 C681 1.377 . S
C681 H665 0.930 . S
C681 C680 1.377 . S
C681 C682 1.379 . S
C682 H666 0.931 . S
C682 C676 1.383 . S
C682 C681 1.379 . S
H683 C677 0.959 . S
H684 C677 0.961 . S
H685 C677 0.960 . S
H686 C678 0.930 . S
H687 C679 0.929 . S
C121 C4 1.503 . S
C140 C60 1.504 . S
C157 C26 1.604 . S
C176 C82 1.599 . S
C193 C88 1.502 . S
C212 C32 1.511 . S
C229 C110 1.605 . S
C248 C54 1.603 . S
C265 C5 0.901 . S
C284 C33 0.825 . S
C301 C25 0.793 . S
C320 C53 0.762 . S
C337 C89 0.898 . S
C356 C61 0.938 . S
C373 C81 0.778 . S
C392 C109 0.766 . S
C409 C75 0.926 . S
C428 C11 0.995 . S
C445 C19 0.925 . S
C464 C95 1.021 . S
C481 C103 0.899 . S
C500 C39 0.944 . S
C517 C47 0.902 . S
C536 C67 0.941 . S
C553 C96 1.393 . S
C572 C46 1.398 . S
C589 C12 1.392 . S
C608 C102 1.372 . S
C625 C18 1.385 . S
C644 C68 1.379 . S
C661 C74 1.386 . S
C680 C40 1.383 . S
