# Generated by pormake.
# Topology fne, (5)-cn, num edge types: 1
# Building blocks:
#     Node 0, Type 0, BuildingBlock: BEQFEK_clean_sbu_0, # of connection points: 5
#     Node 1, Type 0, BuildingBlock: BEQFEK_clean_sbu_0, # of connection points: 5
#     Node 2, Type 0, BuildingBlock: BEQFEK_clean_sbu_0, # of connection points: 5
#     Node 3, Type 0, BuildingBlock: BEQFEK_clean_sbu_0, # of connection points: 5
#     Node 4, Type 0, BuildingBlock: BEQFEK_clean_sbu_0, # of connection points: 5
#     Node 5, Type 0, BuildingBlock: BEQFEK_clean_sbu_0, # of connection points: 5
#     Edge 6, Type (0, 0), BuildingBlock: EZIPEK_clean_linker_0, # of connection points: 2
#     Edge 7, Type (0, 0), BuildingBlock: EZIPEK_clean_linker_0, # of connection points: 2
#     Edge 8, Type (0, 0), BuildingBlock: EZIPEK_clean_linker_0, # of connection points: 2
#     Edge 9, Type (0, 0), BuildingBlock: EZIPEK_clean_linker_0, # of connection points: 2
#     Edge 10, Type (0, 0), BuildingBlock: EZIPEK_clean_linker_0, # of connection points: 2
#     Edge 11, Type (0, 0), BuildingBlock: EZIPEK_clean_linker_0, # of connection points: 2
#     Edge 12, Type (0, 0), BuildingBlock: EZIPEK_clean_linker_0, # of connection points: 2
#     Edge 13, Type (0, 0), BuildingBlock: EZIPEK_clean_linker_0, # of connection points: 2
#     Edge 14, Type (0, 0), BuildingBlock: EZIPEK_clean_linker_0, # of connection points: 2
#     Edge 15, Type (0, 0), BuildingBlock: EZIPEK_clean_linker_0, # of connection points: 2
#     Edge 16, Type (0, 0), BuildingBlock: EZIPEK_clean_linker_0, # of connection points: 2
#     Edge 17, Type (0, 0), BuildingBlock: EZIPEK_clean_linker_0, # of connection points: 2
#     Edge 18, Type (0, 0), BuildingBlock: EZIPEK_clean_linker_0, # of connection points: 2
#     Edge 19, Type (0, 0), BuildingBlock: EZIPEK_clean_linker_0, # of connection points: 2
#     Edge 20, Type (0, 0), BuildingBlock: EZIPEK_clean_linker_0, # of connection points: 2
# Relax obj value: 0.248
# Max RMSD: 0.191
# Mean RMSD: 0.191
data_MOF--net-fne--node1-BEQFEK_clean_sbu_0--edge1-EZIPEK_clean_linker_0
_symmetry_space_group_name_H-M    P1
_symmetry_Int_Tables_number       1
_symmetry_cell_setting            triclinic
loop_
_symmetry_equiv_pos_as_xyz
'x, y, z'
_cell_length_a     32.633085
_cell_length_b     32.667515
_cell_length_c     14.787698
_cell_angle_alpha  89.983787
_cell_angle_beta   89.885472
_cell_angle_gamma 120.03452
loop_
_atom_site_label
_atom_site_type_symbol
_atom_site_fract_x
_atom_site_fract_y
_atom_site_fract_z
_atom_type_partial_charge
Co0 Co 0.52374 0.21998 0.91196 0.0
Co1 Co 0.4816 0.17427 0.0988 0.0
C2 C 0.57753 0.19292 0.02813 0.0
O3 O 0.57669 0.21432 0.9572 0.0
O4 O 0.54327 0.17547 0.08423 0.0
C5 C 0.54858 0.2204 0.7369 0.0
O6 O 0.56767 0.1976 0.77496 0.0
C7 C 0.49941 0.18599 0.29053 0.0
C8 C 0.42846 0.14452 0.35211 0.0
C9 C 0.47586 0.17433 0.37255 0.0
N10 N 0.46749 0.16473 0.22436 0.0
N11 N 0.4251 0.1398 0.26143 0.0
C12 C 0.55148 0.21676 0.27452 0.0
H13 H 0.56675 0.19403 0.25777 0.0
H14 H 0.55765 0.2405 0.21604 0.0
H15 H 0.56999 0.238 0.33495 0.0
C16 C 0.51537 0.29921 0.99331 0.0
N17 N 0.50893 0.2551 0.99248 0.0
N18 N 0.48599 0.23275 0.06616 0.0
C19 C 0.4742 0.26071 0.11268 0.0
C20 C 0.49358 0.30403 0.07 0.0
C21 C 0.54295 0.33626 0.92402 0.0
H22 H 0.56518 0.32633 0.88311 0.0
H23 H 0.56542 0.37092 0.95734 0.0
H24 H 0.51792 0.33994 0.87868 0.0
O25 O 0.46763 0.15662 0.89539 0.0
O26 O 0.43302 0.12255 0.02504 0.0
H27 H 0.41382 0.20909 0.18641 0.0
H28 H 0.42855 0.26958 0.20695 0.0
C29 C 0.44326 0.24592 0.19467 0.0
H30 H 0.46428 0.24746 0.25393 0.0
H31 H 0.39388 0.12028 0.22485 0.0
O32 O 0.53415 0.24244 0.78652 0.0
C33 C 0.43492 0.12233 0.9391 0.0
Co34 Co 0.48365 0.54358 0.24327 0.0
Co35 Co 0.49561 0.50653 0.43067 0.0
C36 C 0.56968 0.59973 0.34814 0.0
O37 O 0.54471 0.59683 0.28014 0.0
O38 O 0.55512 0.56732 0.40771 0.0
C39 C 0.50092 0.56346 0.06645 0.0
O40 O 0.53931 0.5656 0.09957 0.0
C41 C 0.50243 0.52645 0.62061 0.0
C42 C 0.49131 0.46106 0.68675 0.0
C43 C 0.498 0.50575 0.70405 0.0
N44 N 0.49782 0.49545 0.5563 0.0
N45 N 0.49173 0.45651 0.59603 0.0
C46 C 0.50858 0.57432 0.60234 0.0
H47 H 0.49886 0.57706 0.53174 0.0
H48 H 0.48683 0.58175 0.65014 0.0
H49 H 0.54621 0.60152 0.61293 0.0
C50 C 0.39902 0.53607 0.33666 0.0
N51 N 0.43722 0.53051 0.33229 0.0
N52 N 0.44051 0.51121 0.40814 0.0
C53 C 0.40314 0.50177 0.46107 0.0
C54 C 0.37643 0.5181 0.41878 0.0
C55 C 0.38506 0.55856 0.26425 0.0
H56 H 0.41709 0.58939 0.23548 0.0
H57 H 0.36026 0.56968 0.29072 0.0
H58 H 0.36739 0.53262 0.20898 0.0
O59 O 0.48969 0.48697 0.22313 0.0
O60 O 0.4949 0.45642 0.35405 0.0
H61 H 0.35318 0.45663 0.56182 0.0
H62 H 0.40761 0.50353 0.60515 0.0
C63 C 0.39202 0.47695 0.55041 0.0
H64 H 0.40608 0.45238 0.55346 0.0
H65 H 0.48655 0.42647 0.56138 0.0
O66 O 0.468 0.55633 0.12143 0.0
C67 C 0.4931 0.4556 0.26791 0.0
Co68 Co 0.12438 0.50375 0.58573 0.0
Co69 Co 0.17089 0.5145 0.7757 0.0
C70 C 0.15364 0.5894 0.68901 0.0
O71 O 0.13224 0.56477 0.62029 0.0
O72 O 0.1703 0.5743 0.7499 0.0
C73 C 0.09791 0.517 0.41067 0.0
O74 O 0.09817 0.5539 0.44655 0.0
C75 C 0.15568 0.52547 0.96442 0.0
C76 C 0.1924 0.49392 0.03637 0.0
C77 C 0.16251 0.5122 0.04938 0.0
N78 N 0.17908 0.5142 0.90346 0.0
N79 N 0.20156 0.49595 0.94697 0.0
C80 C 0.126 0.54704 0.94068 0.0
H81 H 0.1495 0.58409 0.91848 0.0
H82 H 0.10227 0.5274 0.88346 0.0
H83 H 0.10477 0.5472 -0.00079 0.0
C84 C 0.04509 0.42021 0.67868 0.0
N85 N 0.08931 0.45771 0.67379 0.0
N86 N 0.11224 0.45957 0.74813 0.0
C87 C 0.08469 0.42139 0.79916 0.0
C88 C 0.04091 0.39622 0.75878 0.0
C89 C 0.00778 0.40783 0.60866 0.0
H90 H 0.00674 0.38009 0.56383 0.0
H91 H 0.0159 0.4393 0.56706 0.0
H92 H 0.9725 0.3934 0.64113 0.0
O93 O 0.1878 0.51021 0.5718 0.0
O94 O 0.22215 0.51463 0.70409 0.0
H95 H 0.13806 0.414 0.86893 0.0
H96 H 0.07819 0.36766 0.89288 0.0
C97 C 0.10119 0.40609 0.8799 0.0
H98 H 0.10026 0.4253 0.94026 0.0
H99 H 0.22149 0.4831 0.91541 0.0
O100 O 0.09966 0.48665 0.46168 0.0
C101 C 0.22221 0.51355 0.61789 0.0
Co102 Co 0.80142 0.14829 0.92846 0.0
Co103 Co 0.83665 0.19335 0.11986 0.0
C104 C 0.74379 0.17523 0.03715 0.0
O105 O 0.74786 0.15545 0.96643 0.0
O106 O 0.77539 0.1915 0.0984 0.0
C107 C 0.7651 0.12711 0.75085 0.0
O108 O 0.72863 0.12866 0.78455 0.0
C109 C 0.81846 0.1807 0.31224 0.0
C110 C 0.88544 0.23472 0.37406 0.0
C111 C 0.84055 0.19777 0.39423 0.0
N112 N 0.84889 0.20579 0.24582 0.0
N113 N 0.88885 0.23833 0.28307 0.0
C114 C 0.76927 0.1406 0.2973 0.0
H115 H 0.76501 0.12697 0.22721 0.0
H116 H 0.76079 0.1117 0.3464 0.0
H117 H 0.74389 0.15335 0.30859 0.0
C118 C 0.80832 0.06972 0.01434 0.0
N119 N 0.81381 0.11344 0.01447 0.0
N120 N 0.83185 0.13397 0.09248 0.0
C121 C 0.84033 0.10459 0.14258 0.0
C122 C 0.82492 0.06288 0.0959 0.0
C123 C 0.78701 0.03531 0.93834 0.0
H124 H 0.81413 0.04465 0.88473 0.0
H125 H 0.75711 0.03778 0.90862 0.0
H126 H 0.77479 -0.00135 0.96157 0.0
O127 O 0.85764 0.21112 0.91263 0.0
O128 O 0.88734 0.24427 0.04545 0.0
H129 H 0.88739 0.15347 0.24195 0.0
H130 H 0.88124 0.09546 0.24642 0.0
C131 C 0.86222 0.11517 0.23433 0.0
H132 H 0.83361 0.10318 0.28537 0.0
H133 H 0.91865 0.26242 0.24649 0.0
O134 O 0.79409 0.12424 0.80398 0.0
C135 C 0.88875 0.24498 0.95932 0.0
Co136 Co 0.84068 0.82405 0.24325 0.0
Co137 Co 0.82965 0.85616 0.43657 0.0
C138 C 0.7555 0.76468 0.34923 0.0
O139 O 0.77972 0.76988 0.27838 0.0
O140 O 0.77054 0.79525 0.4123 0.0
C141 C 0.82886 0.78461 0.0673 0.0
O142 O 0.79467 0.74547 0.10287 0.0
C143 C 0.82353 0.83503 0.62718 0.0
C144 C 0.83614 0.90086 0.6936 0.0
C145 C 0.82838 0.8558 0.71055 0.0
N146 N 0.82876 0.86637 0.56299 0.0
N147 N 0.83591 0.90562 0.60295 0.0
C148 C 0.81524 0.78642 0.60884 0.0
H149 H 0.82499 0.78347 0.53821 0.0
H150 H 0.83585 0.77761 0.65675 0.0
H151 H 0.77716 0.76048 0.61928 0.0
C152 C 0.92617 0.83032 0.32797 0.0
N153 N 0.88771 0.83549 0.32904 0.0
N154 N 0.8848 0.85248 0.40802 0.0
C155 C 0.92261 0.86065 0.45795 0.0
C156 C 0.94936 0.84609 0.41 0.0
C157 C 0.93962 0.80994 0.25072 0.0
H158 H 0.95606 0.8371 0.19684 0.0
H159 H 0.90745 0.77939 0.22195 0.0
H160 H 0.96525 0.79892 0.27225 0.0
O161 O 0.83349 0.88014 0.23072 0.0
O162 O 0.82871 0.90723 0.36576 0.0
H163 H 0.92014 0.90649 0.55943 0.0
H164 H 0.97229 0.90071 0.56288 0.0
C165 C 0.93354 0.8816 0.55057 0.0
H166 H 0.91693 0.85261 0.6008 0.0
H167 H 0.8416 0.9359 0.56845 0.0
O168 O 0.85763 0.81765 0.11859 0.0
C169 C 0.82976 0.91 0.27979 0.0
Co170 Co 0.20277 0.85946 0.5711 0.0
Co171 Co 0.1557 0.84943 0.76012 0.0
C172 C 0.17459 0.77488 0.68053 0.0
O173 O 0.19549 0.79886 0.61055 0.0
O174 O 0.15741 0.79013 0.74009 0.0
C175 C 0.20637 0.84075 0.39477 0.0
O176 O 0.17056 0.80211 0.42853 0.0
C177 C 0.1691 0.8431 0.94978 0.0
C178 C 0.11605 0.85603 0.01645 0.0
C179 C 0.15325 0.848 0.0333 0.0
N180 N 0.14314 0.84854 0.88576 0.0
N181 N 0.11106 0.85582 0.92577 0.0
C182 C 0.20984 0.83536 0.93108 0.0
H183 H 0.22378 0.84701 0.86171 0.0
H184 H 0.23849 0.85453 0.98122 0.0
H185 H 0.19756 0.79707 0.93721 0.0
C186 C 0.28073 0.94494 0.6592 0.0
N187 N 0.23687 0.90681 0.65754 0.0
N188 N 0.21523 0.90424 0.73439 0.0
C189 C 0.24396 0.94192 0.78552 0.0
C190 C 0.28648 0.96821 0.74072 0.0
C191 C 0.31634 0.95799 0.58509 0.0
H192 H 0.30561 0.97197 0.52695 0.0
H193 H 0.31684 0.92597 0.56164 0.0
H194 H 0.35218 0.98529 0.6077 0.0
O195 O 0.13984 0.85307 0.5518 0.0
O196 O 0.10537 0.84866 0.6842 0.0
H197 H 0.19322 0.9403 0.88072 0.0
H198 H 0.25127 0.99215 0.88761 0.0
C199 C 0.23168 0.95338 0.87597 0.0
H200 H 0.24239 0.93692 0.92956 0.0
H201 H 0.08661 0.86173 0.89134 0.0
O202 O 0.23091 0.87438 0.449 0.0
C203 C 0.10541 0.84972 0.59802 0.0
C204 C 0.61498 0.14233 0.04108 0.0
C205 C 0.6193 0.18774 0.04426 0.0
C206 C 0.70564 0.22528 0.04756 0.0
C207 C 0.70129 0.17982 0.04743 0.0
N208 N 0.65264 0.0955 0.06661 0.0
N209 N 0.66706 0.27128 0.0731 0.0
C210 C 0.65613 0.13842 0.05132 0.0
C211 C 0.6642 0.2289 0.05472 0.0
N212 N 0.5721 0.10322 0.02344 0.0
N213 N 0.749 0.26485 0.03588 0.0
H214 H 0.63721 0.27493 0.07987 0.0
H215 H 0.69852 0.30166 0.09029 0.0
H216 H 0.78031 0.26384 0.02955 0.0
H217 H 0.75355 0.29839 0.02503 0.0
H218 H 0.56793 0.07006 0.00984 0.0
H219 H 0.54102 0.10446 0.01528 0.0
H220 H 0.62065 0.06468 0.07918 0.0
H221 H 0.68217 0.09151 0.07546 0.0
C222 C 0.70349 0.677 0.3586 0.0
C223 C 0.70804 0.72248 0.35713 0.0
C224 C 0.62196 0.68677 0.36763 0.0
C225 C 0.6173 0.64154 0.35688 0.0
N226 N 0.653 0.59327 0.33044 0.0
N227 N 0.67187 0.77128 0.34794 0.0
C228 C 0.65789 0.63643 0.34982 0.0
C229 C 0.66736 0.72764 0.35899 0.0
N230 N 0.74264 0.6726 0.37074 0.0
N231 N 0.58313 0.69057 0.38827 0.0
H232 H 0.70446 0.80216 0.34034 0.0
H233 H 0.64316 0.77646 0.33853 0.0
H234 H 0.54933 0.66124 0.39596 0.0
H235 H 0.5851 0.72234 0.40613 0.0
H236 H 0.74096 0.6403 0.38171 0.0
H237 H 0.7766 0.70164 0.3784 0.0
H238 H 0.68141 0.58849 0.31438 0.0
H239 H 0.62022 0.56264 0.32292 0.0
C240 C 0.20534 0.67756 0.69261 0.0
C241 C 0.1595 0.63701 0.69738 0.0
C242 C 0.12334 0.6869 0.69192 0.0
C243 C 0.16921 0.72757 0.69175 0.0
N244 N 0.25338 0.76233 0.71297 0.0
N245 N 0.07572 0.60301 0.72306 0.0
C246 C 0.21013 0.72312 0.69856 0.0
C247 C 0.11871 0.64168 0.70374 0.0
N248 N 0.24407 0.67268 0.67791 0.0
N249 N 0.08437 0.69118 0.67613 0.0
H250 H 0.07121 0.56938 0.73326 0.0
H251 H 0.04555 0.60505 0.73762 0.0
H252 H 0.08618 0.72361 0.66587 0.0
H253 H 0.05069 0.66236 0.6654 0.0
H254 H 0.27759 0.70103 0.66351 0.0
H255 H 0.24212 0.63993 0.6727 0.0
H256 H 0.28375 0.76075 0.7277 0.0
H257 H 0.25806 0.79625 0.71879 0.0
C258 C 0.49109 0.1506 0.52368 0.0
C259 C 0.49661 0.18707 0.46443 0.0
C260 C 0.54242 0.24618 0.58036 0.0
C261 C 0.53175 0.20924 0.6426 0.0
N262 N 0.48489 0.12568 0.67869 0.0
N263 N 0.52074 0.26942 0.44162 0.0
C264 C 0.50309 0.16122 0.61588 0.0
C265 C 0.52046 0.23492 0.49409 0.0
N266 N 0.47574 0.10599 0.49165 0.0
N267 N 0.57444 0.29187 0.60264 0.0
H268 H 0.50532 0.26273 0.37804 0.0
H269 H 0.53287 0.30381 0.46412 0.0
H270 H 0.59142 0.30136 0.66517 0.0
H271 H 0.58735 0.31967 0.55639 0.0
H272 H 0.47567 0.07939 0.53074 0.0
H273 H 0.46797 0.09688 0.42372 0.0
H274 H 0.4595 0.09096 0.66304 0.0
H275 H 0.49083 0.13134 0.74781 0.0
C276 C 0.45273 0.50795 0.84014 0.0
C277 C 0.49648 0.5259 0.79301 0.0
C278 C 0.53669 0.584 0.91299 0.0
C279 C 0.49505 0.56104 0.96617 0.0
N280 N 0.40974 0.51752 0.96491 0.0
N281 N 0.58068 0.58008 0.78448 0.0
C282 C 0.4517 0.52779 0.92535 0.0
C283 C 0.5385 0.5644 0.82848 0.0
N284 N 0.41245 0.47122 0.80443 0.0
N285 N 0.57397 0.62544 0.94325 0.0
H286 H 0.58372 0.56607 0.72314 0.0
H287 H 0.61329 0.60444 0.81181 0.0
H288 H 0.57209 0.64119 0.00341 0.0
H289 H 0.60418 0.6466 0.90506 0.0
H290 H 0.38083 0.45241 0.84001 0.0
H291 H 0.4111 0.4575 0.74021 0.0
H292 H 0.37675 0.49573 0.93612 0.0
H293 H 0.40776 0.53604 0.02039 0.0
C294 C 0.17612 0.55052 0.20132 0.0
C295 C 0.14395 0.5175 0.13794 0.0
C296 C 0.08053 0.48611 0.25221 0.0
C297 C 0.11259 0.51906 0.31536 0.0
N298 N 0.19002 0.5846 0.35176 0.0
N299 N 0.06363 0.46015 0.09654 0.0
C300 C 0.16008 0.5521 0.29016 0.0
C301 C 0.09552 0.48724 0.16136 0.0
N302 N 0.22233 0.57973 0.17658 0.0
N303 N 0.03611 0.45281 0.28005 0.0
H304 H 0.07294 0.45982 0.02953 0.0
H305 H 0.02719 0.44113 0.10665 0.0
H306 H 0.02326 0.45241 0.34491 0.0
H307 H 0.01284 0.42388 0.24125 0.0
H308 H 0.24944 0.60049 0.22121 0.0
H309 H 0.23435 0.5826 0.1102 0.0
H310 H 0.22302 0.61323 0.33588 0.0
H311 H 0.18159 0.58427 0.41984 0.0
C312 C 0.79662 0.11835 0.60171 0.0
C313 C 0.78111 0.14344 0.65701 0.0
C314 C 0.80049 0.20166 0.53577 0.0
C315 C 0.82083 0.17955 0.4852 0.0
N316 N 0.84781 0.12312 0.47857 0.0
N317 N 0.78156 0.2169 0.68508 0.0
C318 C 0.82158 0.13957 0.52047 0.0
C319 C 0.78631 0.18718 0.62639 0.0
N320 N 0.78685 0.074 0.62603 0.0
N321 N 0.7947 0.23652 0.49756 0.0
H322 H 0.77526 0.21024 0.75405 0.0
H323 H 0.78961 0.25102 0.66744 0.0
H324 H 0.80575 0.24895 0.43193 0.0
H325 H 0.77533 0.25015 0.5284 0.0
H326 H 0.79339 0.05231 0.58395 0.0
H327 H 0.76805 0.05715 0.68459 0.0
H328 H 0.85303 0.09662 0.50554 0.0
H329 H 0.86866 0.13961 0.42191 0.0
C330 C 0.87031 0.84078 0.83704 0.0
C331 C 0.82775 0.83508 0.79982 0.0
C332 C 0.78497 0.79522 0.93764 0.0
C333 C 0.82659 0.7968 0.97161 0.0
N334 N 0.90615 0.81264 0.94566 0.0
N335 N 0.74272 0.79827 0.80579 0.0
C336 C 0.86844 0.81691 0.91857 0.0
C337 C 0.78442 0.8092 0.84703 0.0
N338 N 0.91271 0.87039 0.79648 0.0
N339 N 0.74732 0.78432 0.99329 0.0
H340 H 0.74099 0.80926 0.74036 0.0
H341 H 0.70975 0.77496 0.83375 0.0
H342 H 0.74672 0.77708 0.06197 0.0
H343 H 0.71849 0.78766 0.97359 0.0
H344 H 0.94527 0.87942 0.82521 0.0
H345 H 0.91551 0.88962 0.7383 0.0
H346 H 0.93599 0.82269 0.90556 0.0
H347 H 0.90558 0.79475 0.00456 0.0
C348 C 0.18921 0.80506 0.24108 0.0
C349 C 0.20989 0.84658 0.29438 0.0
C350 C 0.20217 0.89116 0.16892 0.0
C351 C 0.17421 0.8479 0.12201 0.0
N352 N 0.14008 0.76321 0.11273 0.0
N353 N 0.25701 0.9316 0.29177 0.0
C354 C 0.16825 0.80479 0.15696 0.0
C355 C 0.22278 0.89066 0.25341 0.0
N356 N 0.19132 0.76651 0.2705 0.0
N357 N 0.20813 0.93251 0.13369 0.0
H358 H 0.27742 0.93184 0.346 0.0
H359 H 0.27019 0.96486 0.26264 0.0
H360 H 0.19574 0.93479 0.07006 0.0
H361 H 0.22291 0.96417 0.16938 0.0
H362 H 0.18061 0.73613 0.23207 0.0
H363 H 0.209 0.76735 0.3299 0.0
H364 H 0.13011 0.73009 0.1398 0.0
H365 H 0.12347 0.76136 0.05146 0.0
C366 C 0.53363 0.3728 0.17557 0.0
C367 C 0.49777 0.34737 0.11053 0.0
C368 C 0.45694 0.38976 0.15511 0.0
C369 C 0.49421 0.41727 0.21655 0.0
N370 N 0.57285 0.44198 0.27141 0.0
N371 N 0.43067 0.33727 0.02539 0.0
C372 C 0.53395 0.41075 0.2231 0.0
C373 C 0.46125 0.35789 0.09589 0.0
N374 N 0.56668 0.35987 0.19364 0.0
N375 N 0.41633 0.39225 0.15675 0.0
H376 H 0.43283 0.3134 0.98151 0.0
H377 H 0.40615 0.347 0.00542 0.0
H378 H 0.41094 0.41376 0.20159 0.0
H379 H 0.38615 0.36972 0.11998 0.0
H380 H 0.5897 0.37281 0.24844 0.0
H381 H 0.56931 0.334 0.15696 0.0
H382 H 0.60479 0.44204 0.27039 0.0
H383 H 0.57477 0.47057 0.30645 0.0
C384 C 0.28995 0.48231 0.44894 0.0
C385 C 0.33649 0.52055 0.46073 0.0
C386 C 0.30798 0.5561 0.57243 0.0
C387 C 0.26236 0.51525 0.56782 0.0
N388 N 0.2112 0.43612 0.51237 0.0
N389 N 0.39172 0.59188 0.53884 0.0
C390 C 0.25359 0.4775 0.50851 0.0
C391 C 0.34606 0.55698 0.52387 0.0
N392 N 0.28061 0.45064 0.38066 0.0
N393 N 0.31452 0.59481 0.61997 0.0
H394 H 0.42029 0.59536 0.5009 0.0
H395 H 0.40166 0.61579 0.59214 0.0
H396 H 0.28757 0.59559 0.65655 0.0
H397 H 0.34558 0.62746 0.61745 0.0
H398 H 0.24656 0.42469 0.36251 0.0
H399 H 0.30674 0.45297 0.33669 0.0
H400 H 0.20434 0.40565 0.47755 0.0
H401 H 0.18417 0.43066 0.55714 0.0
C402 C 0.93536 0.33101 0.91652 0.0
C403 C 0.92819 0.28456 0.9099 0.0
C404 C 0.98758 0.31021 0.78877 0.0
C405 C -0.00181 0.35735 0.80213 0.0
N406 N 0.98661 0.41443 0.88502 0.0
N407 N 0.95299 0.23131 0.8515 0.0
C408 C 0.9733 0.36829 0.86781 0.0
C409 C 0.95568 0.27445 0.84884 0.0
N410 N 0.90472 0.33917 0.96596 0.0
N411 N 0.00809 0.29972 0.71862 0.0
H412 H 0.9314 0.20472 0.897 0.0
H413 H 0.97547 0.22338 0.81509 0.0
H414 H 0.03216 0.3254 0.67427 0.0
H415 H -0.00182 0.26532 0.69951 0.0
H416 H 0.90499 0.37118 0.96512 0.0
H417 H 0.87636 0.3128 0.00231 0.0
H418 H 0.97413 0.42496 0.94001 0.0
H419 H 0.01236 0.44264 0.84736 0.0
C420 C 0.86117 0.01229 0.11959 0.0
C421 C 0.82241 0.01963 0.13312 0.0
C422 C 0.78663 0.95316 0.23973 0.0
C423 C 0.82789 0.94918 0.23356 0.0
N424 N 0.90763 0.97927 0.17863 0.0
N425 N 0.75001 0.0007 0.21098 0.0
C426 C 0.86597 0.97976 0.17599 0.0
C427 C 0.78553 0.99099 0.19448 0.0
N428 N 0.89333 0.03648 0.05273 0.0
N429 N 0.7478 0.9197 0.28561 0.0
H430 H 0.74641 0.02624 0.17519 0.0
H431 H 0.72562 0.98529 0.26341 0.0
H432 H 0.74725 0.89156 0.31994 0.0
H433 H 0.71492 0.91764 0.28394 0.0
H434 H 0.91975 0.02929 0.03317 0.0
H435 H 0.89103 0.06105 0.01111 0.0
H436 H 0.93829 0.00389 0.14527 0.0
H437 H 0.91307 0.95694 0.22114 0.0
C438 C 0.07331 0.88572 0.49015 0.0
C439 C 0.06511 0.84774 0.54847 0.0
C440 C 0.98108 0.80589 0.50791 0.0
C441 C 0.98985 0.84295 0.44683 0.0
N442 N 0.04471 0.91338 0.3663 0.0
N443 N 0.0138 0.76772 0.59972 0.0
C444 C 0.03624 0.88125 0.43335 0.0
C445 C 0.01967 0.80667 0.55384 0.0
N446 N 0.11581 0.92701 0.49261 0.0
N447 N 0.93565 0.77052 0.52355 0.0
H448 H 0.0412 0.76688 0.6342 0.0
H449 H 0.98283 0.73499 0.5977 0.0
H450 H 0.90676 0.76705 0.48701 0.0
H451 H 0.92622 0.74606 0.57587 0.0
H452 H 0.12236 0.95765 0.45874 0.0
H453 H 0.14346 0.93222 0.5352 0.0
H454 H 0.07851 0.93945 0.34675 0.0
H455 H 0.01802 0.91134 0.32453 0.0
C456 C 0.33867 0.05478 0.76553 0.0
C457 C 0.32958 0.00819 0.78021 0.0
C458 C 0.39294 0.03697 0.89311 0.0
C459 C 0.39787 0.08254 0.8866 0.0
N460 N 0.37181 0.13416 0.82507 0.0
N461 N 0.34525 0.95324 0.86052 0.0
C462 C 0.37005 0.09142 0.82443 0.0
C463 C 0.35611 -0.00118 0.84448 0.0
N464 N 0.31714 0.06383 0.69536 0.0
N465 N 0.42456 0.03057 0.94292 0.0
H466 H 0.32056 0.92468 0.82228 0.0
H467 H 0.35886 0.94337 0.91455 0.0
H468 H 0.45196 0.05767 0.97962 0.0
H469 H 0.42609 -0.00051 0.94226 0.0
H470 H 0.32584 0.09778 0.67519 0.0
H471 H 0.29344 0.03745 0.65193 0.0
H472 H 0.3489 0.14118 0.78811 0.0
H473 H 0.39335 0.16154 0.86894 0.0
loop_
_geom_bond_atom_site_label_1
_geom_bond_atom_site_label_2
_geom_bond_distance
_geom_bond_site_symmetry_2
_ccdc_geom_bond_type
Co0 O3 1.970 . S
Co0 N17 1.989 . S
Co0 O25 1.967 . S
Co0 O32 1.920 . S
Co1 O4 1.966 . S
Co1 N10 2.022 . S
Co1 N18 1.993 . S
Co1 O26 1.941 . S
C2 O3 1.258 1_554 S
C2 O4 1.263 . S
O3 Co0 1.970 . S
O3 C2 1.258 1_556 S
O4 Co1 1.966 . S
O4 C2 1.263 . S
C5 O6 1.235 . S
C5 O32 1.289 . S
O6 C5 1.235 . S
C7 C9 1.400 . S
C7 N10 1.351 . S
C7 C12 1.501 . S
C8 C9 1.387 . S
C8 N11 1.341 . S
C9 C7 1.400 . S
C9 C8 1.387 . S
N10 Co1 2.022 . S
N10 C7 1.351 . S
N10 N11 1.365 . S
N11 C8 1.341 . S
N11 N10 1.365 . S
N11 H31 0.862 . S
C12 C7 1.501 . S
C12 H13 0.961 . S
C12 H14 0.961 . S
C12 H15 0.960 . S
H13 C12 0.961 . S
H14 C12 0.961 . S
H15 C12 0.960 . S
C16 N17 1.342 . S
C16 C20 1.401 1_556 S
C16 C21 1.499 . S
N17 Co0 1.989 . S
N17 C16 1.342 . S
N17 N18 1.388 1_556 S
N18 Co1 1.993 . S
N18 N17 1.388 1_554 S
N18 C19 1.346 . S
C19 N18 1.346 . S
C19 C20 1.396 . S
C19 C29 1.510 . S
C20 C16 1.401 1_554 S
C20 C19 1.396 . S
C21 C16 1.499 . S
C21 H22 0.959 . S
C21 H23 0.960 . S
C21 H24 0.961 . S
H22 C21 0.959 . S
H23 C21 0.960 . S
H24 C21 0.961 . S
O25 Co0 1.967 . S
O25 C33 1.258 . S
O26 Co1 1.941 . S
O26 C33 1.266 1_554 S
H27 C29 0.959 . S
H28 C29 0.961 . S
C29 C19 1.510 . S
C29 H27 0.959 . S
C29 H28 0.961 . S
C29 H30 0.960 . S
H30 C29 0.960 . S
H31 N11 0.862 . S
O32 Co0 1.920 . S
O32 C5 1.289 . S
C33 O25 1.258 . S
C33 O26 1.266 1_556 S
Co34 O37 1.970 . S
Co34 N51 1.989 . S
Co34 O59 1.967 . S
Co34 O66 1.920 . S
Co35 O38 1.966 . S
Co35 N44 2.022 . S
Co35 N52 1.993 . S
Co35 O60 1.941 . S
C36 O37 1.258 . S
C36 O38 1.263 . S
O37 Co34 1.970 . S
O37 C36 1.258 . S
O38 Co35 1.966 . S
O38 C36 1.263 . S
C39 O40 1.235 . S
C39 O66 1.289 . S
O40 C39 1.235 . S
C41 C43 1.400 . S
C41 N44 1.351 . S
C41 C46 1.501 . S
C42 C43 1.387 . S
C42 N45 1.341 . S
C43 C41 1.400 . S
C43 C42 1.387 . S
N44 Co35 2.022 . S
N44 C41 1.351 . S
N44 N45 1.365 . S
N45 C42 1.341 . S
N45 N44 1.365 . S
N45 H65 0.862 . S
C46 C41 1.501 . S
C46 H47 0.961 . S
C46 H48 0.961 . S
C46 H49 0.960 . S
H47 C46 0.961 . S
H48 C46 0.961 . S
H49 C46 0.960 . S
C50 N51 1.342 . S
C50 C54 1.401 . S
C50 C55 1.499 . S
N51 Co34 1.989 . S
N51 C50 1.342 . S
N51 N52 1.388 . S
N52 Co35 1.993 . S
N52 N51 1.388 . S
N52 C53 1.346 . S
C53 N52 1.346 . S
C53 C54 1.396 . S
C53 C63 1.510 . S
C54 C50 1.401 . S
C54 C53 1.396 . S
C55 C50 1.499 . S
C55 H56 0.959 . S
C55 H57 0.960 . S
C55 H58 0.961 . S
H56 C55 0.959 . S
H57 C55 0.960 . S
H58 C55 0.961 . S
O59 Co34 1.967 . S
O59 C67 1.258 . S
O60 Co35 1.941 . S
O60 C67 1.266 . S
H61 C63 0.959 . S
H62 C63 0.961 . S
C63 C53 1.510 . S
C63 H61 0.959 . S
C63 H62 0.961 . S
C63 H64 0.960 . S
H64 C63 0.960 . S
H65 N45 0.862 . S
O66 Co34 1.920 . S
O66 C39 1.289 . S
C67 O59 1.258 . S
C67 O60 1.266 . S
Co68 O71 1.970 . S
Co68 N85 1.989 . S
Co68 O93 1.967 . S
Co68 O100 1.920 . S
Co69 O72 1.966 . S
Co69 N78 2.022 . S
Co69 N86 1.993 . S
Co69 O94 1.941 . S
C70 O71 1.258 . S
C70 O72 1.263 . S
O71 Co68 1.970 . S
O71 C70 1.258 . S
O72 Co69 1.966 . S
O72 C70 1.263 . S
C73 O74 1.235 . S
C73 O100 1.289 . S
O74 C73 1.235 . S
C75 C77 1.400 1_556 S
C75 N78 1.351 . S
C75 C80 1.501 . S
C76 C77 1.387 . S
C76 N79 1.341 1_554 S
C77 C75 1.400 1_554 S
C77 C76 1.387 . S
N78 Co69 2.022 . S
N78 C75 1.351 . S
N78 N79 1.365 . S
N79 C76 1.341 1_556 S
N79 N78 1.365 . S
N79 H99 0.862 . S
C80 C75 1.501 . S
C80 H81 0.961 . S
C80 H82 0.961 . S
C80 H83 0.960 . S
H81 C80 0.961 . S
H82 C80 0.961 . S
H83 C80 0.960 . S
C84 N85 1.342 . S
C84 C88 1.401 . S
C84 C89 1.499 . S
N85 Co68 1.989 . S
N85 C84 1.342 . S
N85 N86 1.388 . S
N86 Co69 1.993 . S
N86 N85 1.388 . S
N86 C87 1.346 . S
C87 N86 1.346 . S
C87 C88 1.396 . S
C87 C97 1.510 . S
C88 C84 1.401 . S
C88 C87 1.396 . S
C89 C84 1.499 . S
C89 H90 0.959 . S
C89 H91 0.960 1_455 S
C89 H92 0.961 . S
H90 C89 0.959 . S
H91 C89 0.960 1_655 S
H92 C89 0.961 . S
O93 Co68 1.967 . S
O93 C101 1.258 . S
O94 Co69 1.941 . S
O94 C101 1.266 . S
H95 C97 0.959 . S
H96 C97 0.961 . S
C97 C87 1.510 . S
C97 H95 0.959 . S
C97 H96 0.961 . S
C97 H98 0.960 . S
H98 C97 0.960 . S
H99 N79 0.862 . S
O100 Co68 1.920 . S
O100 C73 1.289 . S
C101 O93 1.258 . S
C101 O94 1.266 . S
Co102 O105 1.970 . S
Co102 N119 1.989 . S
Co102 O127 1.967 . S
Co102 O134 1.920 . S
Co103 O106 1.966 . S
Co103 N112 2.022 . S
Co103 N120 1.993 . S
Co103 O128 1.941 . S
C104 O105 1.258 1_554 S
C104 O106 1.263 . S
O105 Co102 1.970 . S
O105 C104 1.258 1_556 S
O106 Co103 1.966 . S
O106 C104 1.263 . S
C107 O108 1.235 . S
C107 O134 1.289 . S
O108 C107 1.235 . S
C109 C111 1.400 . S
C109 N112 1.351 . S
C109 C114 1.501 . S
C110 C111 1.387 . S
C110 N113 1.341 . S
C111 C109 1.400 . S
C111 C110 1.387 . S
N112 Co103 2.022 . S
N112 C109 1.351 . S
N112 N113 1.365 . S
N113 C110 1.341 . S
N113 N112 1.365 . S
N113 H133 0.862 . S
C114 C109 1.501 . S
C114 H115 0.961 . S
C114 H116 0.961 . S
C114 H117 0.960 . S
H115 C114 0.961 . S
H116 C114 0.961 . S
H117 C114 0.960 . S
C118 N119 1.342 . S
C118 C122 1.401 1_556 S
C118 C123 1.499 . S
N119 Co102 1.989 . S
N119 C118 1.342 . S
N119 N120 1.388 1_556 S
N120 Co103 1.993 . S
N120 N119 1.388 1_554 S
N120 C121 1.346 . S
C121 N120 1.346 . S
C121 C122 1.396 . S
C121 C131 1.510 . S
C122 C118 1.401 1_554 S
C122 C121 1.396 . S
C123 C118 1.499 . S
C123 H124 0.959 . S
C123 H125 0.960 1_545 S
C123 H126 0.961 . S
H124 C123 0.959 . S
H125 C123 0.960 1_565 S
H126 C123 0.961 . S
O127 Co102 1.967 . S
O127 C135 1.258 . S
O128 Co103 1.941 . S
O128 C135 1.266 1_554 S
H129 C131 0.959 . S
H130 C131 0.961 . S
C131 C121 1.510 . S
C131 H129 0.959 . S
C131 H130 0.961 . S
C131 H132 0.960 . S
H132 C131 0.960 . S
H133 N113 0.862 . S
O134 Co102 1.920 . S
O134 C107 1.289 . S
C135 O127 1.258 . S
C135 O128 1.266 1_556 S
Co136 O139 1.970 . S
Co136 N153 1.989 . S
Co136 O161 1.967 . S
Co136 O168 1.920 . S
Co137 O140 1.966 . S
Co137 N146 2.022 . S
Co137 N154 1.993 . S
Co137 O162 1.941 . S
C138 O139 1.258 . S
C138 O140 1.263 . S
O139 Co136 1.970 . S
O139 C138 1.258 . S
O140 Co137 1.966 . S
O140 C138 1.263 . S
C141 O142 1.235 . S
C141 O168 1.289 . S
O142 C141 1.235 . S
C143 C145 1.400 . S
C143 N146 1.351 . S
C143 C148 1.501 . S
C144 C145 1.387 . S
C144 N147 1.341 . S
C145 C143 1.400 . S
C145 C144 1.387 . S
N146 Co137 2.022 . S
N146 C143 1.351 . S
N146 N147 1.365 . S
N147 C144 1.341 . S
N147 N146 1.365 . S
N147 H167 0.862 . S
C148 C143 1.501 . S
C148 H149 0.961 . S
C148 H150 0.961 . S
C148 H151 0.960 . S
H149 C148 0.961 . S
H150 C148 0.961 . S
H151 C148 0.960 . S
C152 N153 1.342 . S
C152 C156 1.401 . S
C152 C157 1.499 . S
N153 Co136 1.989 . S
N153 C152 1.342 . S
N153 N154 1.388 . S
N154 Co137 1.993 . S
N154 N153 1.388 . S
N154 C155 1.346 . S
C155 N154 1.346 . S
C155 C156 1.396 . S
C155 C165 1.510 . S
C156 C152 1.401 . S
C156 C155 1.396 . S
C157 C152 1.499 . S
C157 H158 0.959 . S
C157 H159 0.960 . S
C157 H160 0.953 1_655 S
H158 C157 0.959 . S
H159 C157 0.960 . S
H160 C157 0.953 1_455 S
O161 Co136 1.967 . S
O161 C169 1.258 . S
O162 Co137 1.941 . S
O162 C169 1.266 . S
H163 C165 0.959 . S
H164 C165 0.961 . S
C165 C155 1.510 . S
C165 H163 0.959 . S
C165 H164 0.961 . S
C165 H166 0.960 . S
H166 C165 0.960 . S
H167 N147 0.862 . S
O168 Co136 1.920 . S
O168 C141 1.289 . S
C169 O161 1.258 . S
C169 O162 1.266 . S
Co170 O173 1.970 . S
Co170 N187 1.989 . S
Co170 O195 1.967 . S
Co170 O202 1.920 . S
Co171 O174 1.966 . S
Co171 N180 2.022 . S
Co171 N188 1.993 . S
Co171 O196 1.941 . S
C172 O173 1.258 . S
C172 O174 1.263 . S
O173 Co170 1.970 . S
O173 C172 1.258 . S
O174 Co171 1.966 . S
O174 C172 1.263 . S
C175 O176 1.235 . S
C175 O202 1.289 . S
O176 C175 1.235 . S
C177 C179 1.400 1_556 S
C177 N180 1.351 . S
C177 C182 1.501 . S
C178 C179 1.387 . S
C178 N181 1.341 1_554 S
C179 C177 1.400 1_554 S
C179 C178 1.387 . S
N180 Co171 2.022 . S
N180 C177 1.351 . S
N180 N181 1.365 . S
N181 C178 1.341 1_556 S
N181 N180 1.365 . S
N181 H201 0.862 . S
C182 C177 1.501 . S
C182 H183 0.961 . S
C182 H184 0.961 . S
C182 H185 0.960 . S
H183 C182 0.961 . S
H184 C182 0.961 . S
H185 C182 0.960 . S
C186 N187 1.342 . S
C186 C190 1.401 . S
C186 C191 1.499 . S
N187 Co170 1.989 . S
N187 C186 1.342 . S
N187 N188 1.388 . S
N188 Co171 1.993 . S
N188 N187 1.388 . S
N188 C189 1.346 . S
C189 N188 1.346 . S
C189 C190 1.396 . S
C189 C199 1.510 . S
C190 C186 1.401 . S
C190 C189 1.396 . S
C191 C186 1.499 . S
C191 H192 0.959 . S
C191 H193 0.954 . S
C191 H194 0.961 1_565 S
H192 C191 0.959 . S
H193 C191 0.954 . S
H194 C191 0.961 1_545 S
O195 Co170 1.967 . S
O195 C203 1.258 . S
O196 Co171 1.941 . S
O196 C203 1.266 . S
H197 C199 0.959 . S
H198 C199 0.961 . S
C199 C189 1.510 . S
C199 H197 0.959 . S
C199 H198 0.961 . S
C199 H200 0.960 . S
H200 C199 0.960 . S
H201 N181 0.862 . S
O202 Co170 1.920 . S
O202 C175 1.289 . S
C203 O195 1.258 . S
C203 O196 1.266 . S
C204 C205 1.363 1_556 S
C204 C210 1.379 . S
C204 N212 1.356 . S
C205 C204 1.363 1_554 S
C205 C211 1.363 . S
C206 C207 1.363 . S
C206 C211 1.379 . S
C206 N213 1.356 . S
C207 C206 1.363 . S
C207 C210 1.363 1_554 S
N208 C210 1.356 . S
N208 H220 0.984 . S
N208 H221 0.985 . S
N209 C211 1.356 . S
N209 H214 0.984 . S
N209 H215 0.985 . S
C210 C204 1.379 . S
C210 C207 1.363 1_556 S
C210 N208 1.356 . S
C211 C205 1.363 . S
C211 C206 1.379 . S
C211 N209 1.356 . S
N212 C204 1.356 . S
N212 H218 0.984 . S
N212 H219 0.984 . S
N213 C206 1.356 . S
N213 H216 0.984 . S
N213 H217 0.985 . S
H214 N209 0.984 . S
H215 N209 0.985 . S
H216 N213 0.984 . S
H217 N213 0.985 . S
H218 N212 0.984 . S
H219 N212 0.984 . S
H220 N208 0.984 . S
H221 N208 0.985 . S
C222 C223 1.363 . S
C222 C228 1.379 . S
C222 N230 1.356 . S
C223 C222 1.363 . S
C223 C229 1.363 . S
C224 C225 1.363 . S
C224 C229 1.379 . S
C224 N231 1.356 . S
C225 C224 1.363 . S
C225 C228 1.363 . S
N226 C228 1.356 . S
N226 H238 0.984 . S
N226 H239 0.985 . S
N227 C229 1.356 . S
N227 H232 0.984 . S
N227 H233 0.985 . S
C228 C222 1.379 . S
C228 C225 1.363 . S
C228 N226 1.356 . S
C229 C223 1.363 . S
C229 C224 1.379 . S
C229 N227 1.356 . S
N230 C222 1.356 . S
N230 H236 0.984 . S
N230 H237 0.984 . S
N231 C224 1.356 . S
N231 H234 0.984 . S
N231 H235 0.985 . S
H232 N227 0.984 . S
H233 N227 0.985 . S
H234 N231 0.984 . S
H235 N231 0.985 . S
H236 N230 0.984 . S
H237 N230 0.984 . S
H238 N226 0.984 . S
H239 N226 0.985 . S
C240 C241 1.363 . S
C240 C246 1.379 . S
C240 N248 1.356 . S
C241 C240 1.363 . S
C241 C247 1.363 . S
C242 C243 1.363 . S
C242 C247 1.379 . S
C242 N249 1.356 . S
C243 C242 1.363 . S
C243 C246 1.363 . S
N244 C246 1.356 . S
N244 H256 0.984 . S
N244 H257 0.985 . S
N245 C247 1.356 . S
N245 H250 0.984 . S
N245 H251 0.985 . S
C246 C240 1.379 . S
C246 C243 1.363 . S
C246 N244 1.356 . S
C247 C241 1.363 . S
C247 C242 1.379 . S
C247 N245 1.356 . S
N248 C240 1.356 . S
N248 H254 0.984 . S
N248 H255 0.984 . S
N249 C242 1.356 . S
N249 H252 0.984 . S
N249 H253 0.985 . S
H250 N245 0.984 . S
H251 N245 0.985 . S
H252 N249 0.984 . S
H253 N249 0.985 . S
H254 N248 0.984 . S
H255 N248 0.984 . S
H256 N244 0.984 . S
H257 N244 0.985 . S
C258 C259 1.363 . S
C258 C264 1.379 . S
C258 N266 1.356 . S
C259 C258 1.363 . S
C259 C265 1.363 . S
C260 C261 1.363 . S
C260 C265 1.379 . S
C260 N267 1.356 . S
C261 C260 1.363 . S
C261 C264 1.363 . S
N262 C264 1.356 . S
N262 H274 0.984 . S
N262 H275 0.985 . S
N263 C265 1.356 . S
N263 H268 0.984 . S
N263 H269 0.985 . S
C264 C258 1.379 . S
C264 C261 1.363 . S
C264 N262 1.356 . S
C265 C259 1.363 . S
C265 C260 1.379 . S
C265 N263 1.356 . S
N266 C258 1.356 . S
N266 H272 0.984 . S
N266 H273 0.984 . S
N267 C260 1.356 . S
N267 H270 0.984 . S
N267 H271 0.985 . S
H268 N263 0.984 . S
H269 N263 0.985 . S
H270 N267 0.984 . S
H271 N267 0.985 . S
H272 N266 0.984 . S
H273 N266 0.984 . S
H274 N262 0.984 . S
H275 N262 0.985 . S
C276 C277 1.363 . S
C276 C282 1.379 . S
C276 N284 1.356 . S
C277 C276 1.363 . S
C277 C283 1.363 . S
C278 C279 1.363 . S
C278 C283 1.379 . S
C278 N285 1.356 1_556 S
C279 C278 1.363 . S
C279 C282 1.363 . S
N280 C282 1.356 . S
N280 H292 0.984 . S
N280 H293 0.985 1_556 S
N281 C283 1.356 . S
N281 H286 0.984 . S
N281 H287 0.985 . S
C282 C276 1.379 . S
C282 C279 1.363 . S
C282 N280 1.356 . S
C283 C277 1.363 . S
C283 C278 1.379 . S
C283 N281 1.356 . S
N284 C276 1.356 . S
N284 H290 0.984 . S
N284 H291 0.984 . S
N285 C278 1.356 1_554 S
N285 H288 0.984 . S
N285 H289 0.985 . S
H286 N281 0.984 . S
H287 N281 0.985 . S
H288 N285 0.984 . S
H289 N285 0.985 . S
H290 N284 0.984 . S
H291 N284 0.984 . S
H292 N280 0.984 . S
H293 N280 0.985 1_554 S
C294 C295 1.363 . S
C294 C300 1.379 . S
C294 N302 1.356 . S
C295 C294 1.363 . S
C295 C301 1.363 . S
C296 C297 1.363 . S
C296 C301 1.379 . S
C296 N303 1.356 . S
C297 C296 1.363 . S
C297 C300 1.363 . S
N298 C300 1.356 . S
N298 H310 0.984 . S
N298 H311 0.985 . S
N299 C301 1.356 . S
N299 H304 0.984 . S
N299 H305 0.985 . S
C300 C294 1.379 . S
C300 C297 1.363 . S
C300 N298 1.356 . S
C301 C295 1.363 . S
C301 C296 1.379 . S
C301 N299 1.356 . S
N302 C294 1.356 . S
N302 H308 0.984 . S
N302 H309 0.984 . S
N303 C296 1.356 . S
N303 H306 0.984 1_455 S
N303 H307 0.985 1_455 S
H304 N299 0.984 . S
H305 N299 0.985 . S
H306 N303 0.984 1_655 S
H307 N303 0.985 1_655 S
H308 N302 0.984 . S
H309 N302 0.984 . S
H310 N298 0.984 . S
H311 N298 0.985 . S
C312 C313 1.363 . S
C312 C318 1.379 . S
C312 N320 1.356 . S
C313 C312 1.363 . S
C313 C319 1.363 . S
C314 C315 1.363 . S
C314 C319 1.379 . S
C314 N321 1.356 . S
C315 C314 1.363 . S
C315 C318 1.363 . S
N316 C318 1.356 . S
N316 H328 0.984 . S
N316 H329 0.985 . S
N317 C319 1.356 . S
N317 H322 0.984 . S
N317 H323 0.985 . S
C318 C312 1.379 . S
C318 C315 1.363 . S
C318 N316 1.356 . S
C319 C313 1.363 . S
C319 C314 1.379 . S
C319 N317 1.356 . S
N320 C312 1.356 . S
N320 H326 0.984 1_545 S
N320 H327 0.984 . S
N321 C314 1.356 . S
N321 H324 0.984 . S
N321 H325 0.985 . S
H322 N317 0.984 . S
H323 N317 0.985 . S
H324 N321 0.984 . S
H325 N321 0.985 . S
H326 N320 0.984 1_565 S
H327 N320 0.984 . S
H328 N316 0.984 . S
H329 N316 0.985 . S
C330 C331 1.363 . S
C330 C336 1.379 . S
C330 N338 1.356 . S
C331 C330 1.363 . S
C331 C337 1.363 . S
C332 C333 1.363 . S
C332 C337 1.379 . S
C332 N339 1.356 1_556 S
C333 C332 1.363 . S
C333 C336 1.363 . S
N334 C336 1.356 . S
N334 H346 0.984 . S
N334 H347 0.985 1_556 S
N335 C337 1.356 . S
N335 H340 0.984 . S
N335 H341 0.985 . S
C336 C330 1.379 . S
C336 C333 1.363 . S
C336 N334 1.356 . S
C337 C331 1.363 . S
C337 C332 1.379 . S
C337 N335 1.356 . S
N338 C330 1.356 . S
N338 H344 0.984 . S
N338 H345 0.984 . S
N339 C332 1.356 1_554 S
N339 H342 0.984 . S
N339 H343 0.985 . S
H340 N335 0.984 . S
H341 N335 0.985 . S
H342 N339 0.984 . S
H343 N339 0.985 . S
H344 N338 0.984 . S
H345 N338 0.984 . S
H346 N334 0.984 . S
H347 N334 0.985 1_554 S
C348 C349 1.363 . S
C348 C354 1.379 . S
C348 N356 1.356 . S
C349 C348 1.363 . S
C349 C355 1.363 . S
C350 C351 1.363 . S
C350 C355 1.379 . S
C350 N357 1.356 . S
C351 C350 1.363 . S
C351 C354 1.363 . S
N352 C354 1.356 . S
N352 H364 0.984 . S
N352 H365 0.985 . S
N353 C355 1.356 . S
N353 H358 0.984 . S
N353 H359 0.985 . S
C354 C348 1.379 . S
C354 C351 1.363 . S
C354 N352 1.356 . S
C355 C349 1.363 . S
C355 C350 1.379 . S
C355 N353 1.356 . S
N356 C348 1.356 . S
N356 H362 0.984 . S
N356 H363 0.984 . S
N357 C350 1.356 . S
N357 H360 0.984 . S
N357 H361 0.985 . S
H358 N353 0.984 . S
H359 N353 0.985 . S
H360 N357 0.984 . S
H361 N357 0.985 . S
H362 N356 0.984 . S
H363 N356 0.984 . S
H364 N352 0.984 . S
H365 N352 0.985 . S
C366 C367 1.363 . S
C366 C372 1.379 . S
C366 N374 1.356 . S
C367 C366 1.363 . S
C367 C373 1.363 . S
C368 C369 1.363 . S
C368 C373 1.379 . S
C368 N375 1.356 . S
C369 C368 1.363 . S
C369 C372 1.363 . S
N370 C372 1.356 . S
N370 H382 0.984 . S
N370 H383 0.985 . S
N371 C373 1.356 . S
N371 H376 0.984 . S
N371 H377 0.985 . S
C372 C366 1.379 . S
C372 C369 1.363 . S
C372 N370 1.356 . S
C373 C367 1.363 . S
C373 C368 1.379 . S
C373 N371 1.356 . S
N374 C366 1.356 . S
N374 H380 0.984 . S
N374 H381 0.984 . S
N375 C368 1.356 . S
N375 H378 0.984 . S
N375 H379 0.985 . S
H376 N371 0.984 . S
H377 N371 0.985 . S
H378 N375 0.984 . S
H379 N375 0.985 . S
H380 N374 0.984 . S
H381 N374 0.984 . S
H382 N370 0.984 . S
H383 N370 0.985 . S
C384 C385 1.363 . S
C384 C390 1.379 . S
C384 N392 1.356 . S
C385 C384 1.363 . S
C385 C391 1.363 . S
C386 C387 1.363 . S
C386 C391 1.379 . S
C386 N393 1.356 . S
C387 C386 1.363 . S
C387 C390 1.363 . S
N388 C390 1.356 . S
N388 H400 0.984 . S
N388 H401 0.985 . S
N389 C391 1.356 . S
N389 H394 0.984 . S
N389 H395 0.985 . S
C390 C384 1.379 . S
C390 C387 1.363 . S
C390 N388 1.356 . S
C391 C385 1.363 . S
C391 C386 1.379 . S
C391 N389 1.356 . S
N392 C384 1.356 . S
N392 H398 0.984 . S
N392 H399 0.984 . S
N393 C386 1.356 . S
N393 H396 0.984 . S
N393 H397 0.985 . S
H394 N389 0.984 . S
H395 N389 0.985 . S
H396 N393 0.984 . S
H397 N393 0.985 . S
H398 N392 0.984 . S
H399 N392 0.984 . S
H400 N388 0.984 . S
H401 N388 0.985 . S
C402 C403 1.363 . S
C402 C408 1.379 . S
C402 N410 1.356 . S
C403 C402 1.363 . S
C403 C409 1.363 . S
C404 C405 1.363 . S
C404 C409 1.379 . S
C404 N411 1.356 1_655 S
C405 C404 1.363 . S
C405 C408 1.363 . S
N406 C408 1.356 . S
N406 H418 0.984 . S
N406 H419 0.985 . S
N407 C409 1.356 . S
N407 H412 0.984 . S
N407 H413 0.985 . S
C408 C402 1.379 . S
C408 C405 1.363 . S
C408 N406 1.356 . S
C409 C403 1.363 . S
C409 C404 1.379 . S
C409 N407 1.356 . S
N410 C402 1.356 . S
N410 H416 0.984 . S
N410 H417 0.984 . S
N411 C404 1.356 1_455 S
N411 H414 0.984 . S
N411 H415 0.985 . S
H412 N407 0.984 . S
H413 N407 0.985 . S
H414 N411 0.984 . S
H415 N411 0.985 . S
H416 N410 0.984 . S
H417 N410 0.984 . S
H418 N406 0.984 . S
H419 N406 0.985 . S
C420 C421 1.363 1_545 S
C420 C426 1.379 1_545 S
C420 N428 1.356 . S
C421 C420 1.363 1_565 S
C421 C427 1.363 . S
C422 C423 1.363 . S
C422 C427 1.379 . S
C422 N429 1.356 . S
C423 C422 1.363 . S
C423 C426 1.363 . S
N424 C426 1.356 . S
N424 H436 0.984 1_565 S
N424 H437 0.985 . S
N425 C427 1.356 . S
N425 H430 0.984 1_554 S
N425 H431 0.985 1_554 S
C426 C420 1.379 1_565 S
C426 C423 1.363 . S
C426 N424 1.356 . S
C427 C421 1.363 . S
C427 C422 1.379 . S
C427 N425 1.356 . S
N428 C420 1.356 . S
N428 H434 0.984 . S
N428 H435 0.984 . S
N429 C422 1.356 . S
N429 H432 0.984 . S
N429 H433 0.985 . S
H430 N425 0.984 1_556 S
H431 N425 0.985 1_556 S
H432 N429 0.984 . S
H433 N429 0.985 . S
H434 N428 0.984 . S
H435 N428 0.984 . S
H436 N424 0.984 1_545 S
H437 N424 0.985 . S
C438 C439 1.363 . S
C438 C444 1.379 . S
C438 N446 1.356 . S
C439 C438 1.363 . S
C439 C445 1.363 . S
C440 C441 1.363 . S
C440 C445 1.379 . S
C440 N447 1.356 . S
C441 C440 1.363 . S
C441 C444 1.363 . S
N442 C444 1.356 . S
N442 H454 0.984 . S
N442 H455 0.985 . S
N443 C445 1.356 . S
N443 H448 0.984 . S
N443 H449 0.985 . S
C444 C438 1.379 . S
C444 C441 1.363 . S
C444 N442 1.356 . S
C445 C439 1.363 . S
C445 C440 1.379 . S
C445 N443 1.356 . S
N446 C438 1.356 . S
N446 H452 0.984 . S
N446 H453 0.984 . S
N447 C440 1.356 . S
N447 H450 0.984 1_455 S
N447 H451 0.985 . S
H448 N443 0.984 . S
H449 N443 0.985 . S
H450 N447 0.984 1_655 S
H451 N447 0.985 . S
H452 N446 0.984 . S
H453 N446 0.984 . S
H454 N442 0.984 . S
H455 N442 0.985 . S
C456 C457 1.363 . S
C456 C462 1.379 . S
C456 N464 1.356 1_545 S
C457 C456 1.363 . S
C457 C463 1.363 . S
C458 C459 1.363 . S
C458 C463 1.379 . S
C458 N465 1.356 . S
C459 C458 1.363 . S
C459 C462 1.363 . S
N460 C462 1.356 1_554 S
N460 H472 0.984 . S
N460 H473 0.985 . S
N461 C463 1.356 . S
N461 H466 0.984 . S
N461 H467 0.985 . S
C462 C456 1.379 . S
C462 C459 1.363 . S
C462 N460 1.356 1_556 S
C463 C457 1.363 . S
C463 C458 1.379 . S
C463 N461 1.356 . S
N464 C456 1.356 1_565 S
N464 H470 0.984 . S
N464 H471 0.984 . S
N465 C458 1.356 . S
N465 H468 0.984 . S
N465 H469 0.985 . S
H466 N461 0.984 . S
H467 N461 0.985 . S
H468 N465 0.984 . S
H469 N465 0.985 . S
H470 N464 0.984 . S
H471 N464 0.984 . S
H472 N460 0.984 . S
H473 N460 0.985 . S
C205 C2 1.593 . S
C207 C104 1.593 . S
C223 C138 1.593 . S
C225 C36 1.593 . S
C241 C70 1.593 . S
C243 C172 1.593 . S
C259 C9 1.282 . S
C261 C5 1.279 . S
C277 C43 1.282 . S
C279 C39 1.279 1_556 S
C295 C77 1.282 . S
C297 C73 1.279 . S
C313 C107 1.279 . S
C315 C111 1.282 . S
C331 C145 1.282 . S
C333 C141 1.279 1_556 S
C349 C175 1.279 . S
C351 C179 1.282 . S
C367 C20 1.649 . S
C369 C67 1.675 . S
C385 C54 1.648 . S
C387 C101 1.675 . S
C403 C135 1.675 . S
C405 C88 1.649 1_655 S
C421 C122 1.648 1_565 S
C423 C169 1.675 . S
C439 C203 1.675 . S
C441 C156 1.649 1_455 S
C457 C190 1.648 1_545 S
C459 C33 1.675 . S
