# Generated by pormake.
# Topology tfs, (6)-cn, num edge types: 1
# Building blocks:
#     Node 0, Type 0, BuildingBlock: BETDAH_clean_sbu_0, # of connection points: 6
#     Node 1, Type 0, BuildingBlock: BETDAH_clean_sbu_0, # of connection points: 6
#     Node 2, Type 0, BuildingBlock: BETDAH_clean_sbu_0, # of connection points: 6
#     Node 3, Type 0, BuildingBlock: BETDAH_clean_sbu_0, # of connection points: 6
#     Node 4, Type 0, BuildingBlock: BETDAH_clean_sbu_0, # of connection points: 6
#     Node 5, Type 0, BuildingBlock: BETDAH_clean_sbu_0, # of connection points: 6
#     Edge 6, Type (0, 0), BuildingBlock: XUDNAN_clean_linker_2, # of connection points: 2
#     Edge 7, Type (0, 0), BuildingBlock: XUDNAN_clean_linker_2, # of connection points: 2
#     Edge 8, Type (0, 0), BuildingBlock: XUDNAN_clean_linker_2, # of connection points: 2
#     Edge 9, Type (0, 0), BuildingBlock: XUDNAN_clean_linker_2, # of connection points: 2
#     Edge 10, Type (0, 0), BuildingBlock: XUDNAN_clean_linker_2, # of connection points: 2
#     Edge 11, Type (0, 0), BuildingBlock: XUDNAN_clean_linker_2, # of connection points: 2
#     Edge 12, Type (0, 0), BuildingBlock: XUDNAN_clean_linker_2, # of connection points: 2
#     Edge 13, Type (0, 0), BuildingBlock: XUDNAN_clean_linker_2, # of connection points: 2
#     Edge 14, Type (0, 0), BuildingBlock: XUDNAN_clean_linker_2, # of connection points: 2
#     Edge 15, Type (0, 0), BuildingBlock: XUDNAN_clean_linker_2, # of connection points: 2
#     Edge 16, Type (0, 0), BuildingBlock: XUDNAN_clean_linker_2, # of connection points: 2
#     Edge 17, Type (0, 0), BuildingBlock: XUDNAN_clean_linker_2, # of connection points: 2
#     Edge 18, Type (0, 0), BuildingBlock: XUDNAN_clean_linker_2, # of connection points: 2
#     Edge 19, Type (0, 0), BuildingBlock: XUDNAN_clean_linker_2, # of connection points: 2
#     Edge 20, Type (0, 0), BuildingBlock: XUDNAN_clean_linker_2, # of connection points: 2
#     Edge 21, Type (0, 0), BuildingBlock: XUDNAN_clean_linker_2, # of connection points: 2
#     Edge 22, Type (0, 0), BuildingBlock: XUDNAN_clean_linker_2, # of connection points: 2
#     Edge 23, Type (0, 0), BuildingBlock: XUDNAN_clean_linker_2, # of connection points: 2
# Relax obj value: 0.555
# Max RMSD: 0.463
# Mean RMSD: 0.362
data_MOF--net-tfs--node1-BETDAH_clean_sbu_0--edge1-XUDNAN_clean_linker_2
_symmetry_space_group_name_H-M    P1
_symmetry_Int_Tables_number       1
_symmetry_cell_setting            triclinic
loop_
_symmetry_equiv_pos_as_xyz
'x, y, z'
_cell_length_a     53.708952
_cell_length_b     50.651171
_cell_length_c     12.738159
_cell_angle_alpha  98.881389
_cell_angle_beta   92.196954
_cell_angle_gamma 127.19126
loop_
_atom_site_label
_atom_site_type_symbol
_atom_site_fract_x
_atom_site_fract_y
_atom_site_fract_z
_atom_type_partial_charge
Ho0 Ho 0.3212 0.46195 0.5436 0.0
Ho1 Ho 0.30586 0.50694 0.46399 0.0
C2 C 0.24911 0.43651 0.51014 0.0
C3 C 0.33138 0.42572 0.63079 0.0
C4 C 0.34771 0.41124 0.59851 0.0
C5 C 0.33675 0.37973 0.61919 0.0
C6 C 0.34955 0.36381 0.57752 0.0
C7 C 0.37358 0.37911 0.51398 0.0
C8 C 0.38519 0.4113 0.49674 0.0
C9 C 0.37228 0.42706 0.53787 0.0
C10 C 0.30916 0.45168 0.33057 0.0
C11 C 0.37569 0.52783 0.46266 0.0
C12 C 0.29716 0.5462 0.39192 0.0
C13 C 0.29377 0.57155 0.44912 0.0
C14 C 0.31998 0.60268 0.51454 0.0
C15 C 0.31617 0.62524 0.5748 0.0
C16 C 0.2861 0.61735 0.57141 0.0
C17 C 0.26001 0.58655 0.5043 0.0
C18 C 0.26382 0.564 0.44367 0.0
C19 C 0.31622 0.51449 0.67928 0.0
O20 O 0.27052 0.4381 0.57337 0.0
O21 O 0.25776 0.45718 0.44337 0.0
O22 O 0.30528 0.41276 0.56616 0.0
O23 O 0.34903 0.45888 0.66129 0.0
O24 O 0.32886 0.44878 0.37795 0.0
O25 O 0.2959 0.45809 0.39659 0.0
O26 O 0.35316 0.52753 0.4149 0.0
O27 O 0.3699 0.50708 0.5268 0.0
O28 O 0.32501 0.55341 0.41057 0.0
O29 O 0.27405 0.51428 0.38959 0.0
O30 O 0.29805 0.51911 0.63092 0.0
O31 O 0.33016 0.50986 0.61169 0.0
H32 H 0.31758 0.36691 0.66485 0.0
H33 H 0.33976 0.33896 0.59178 0.0
H34 H 0.40407 0.42425 0.45018 0.0
H35 H 0.38101 0.45126 0.52 0.0
H36 H 0.34344 0.60945 0.5211 0.0
H37 H 0.33677 0.64854 0.62621 0.0
H38 H 0.23659 0.57988 0.49826 0.0
H39 H 0.2432 0.54035 0.39368 0.0
Ho40 Ho 0.87476 0.19259 0.48523 0.0
Ho41 Ho 0.80847 0.16505 0.36095 0.0
C42 C 0.81185 0.11669 0.47831 0.0
C43 C 0.92575 0.21745 0.61702 0.0
C44 C 0.95929 0.23467 0.60434 0.0
C45 C 0.98379 0.26402 0.68057 0.0
C46 C 1.01537 0.28275 0.66333 0.0
C47 C 1.02304 0.27252 0.56915 0.0
C48 C 0.99853 0.24223 0.4955 0.0
C49 C 0.96707 0.22367 0.51249 0.0
C50 C 0.86403 0.16419 0.27455 0.0
C51 C 0.87365 0.23387 0.3227 0.0
C52 C 0.75935 0.14958 0.24071 0.0
C53 C 0.73487 0.15397 0.25876 0.0
C54 C 0.71886 0.15516 0.17212 0.0
C55 C 0.69657 0.16077 0.18894 0.0
C56 C 0.68982 0.16533 0.29299 0.0
C57 C 0.70615 0.16431 0.3796 0.0
C58 C 0.7284 0.15873 0.36269 0.0
C59 C 0.82234 0.19452 0.57395 0.0
O60 O 0.83774 0.14483 0.54073 0.0
O61 O 0.79908 0.1173 0.38835 0.0
O62 O 0.91526 0.23442 0.60413 0.0
O63 O 0.90516 0.18518 0.56974 0.0
O64 O 0.89163 0.18488 0.33514 0.0
O65 O 0.84314 0.15574 0.33385 0.0
O66 O 0.84385 0.20719 0.28504 0.0
O67 O 0.88983 0.23667 0.41051 0.0
O68 O 0.75889 0.12808 0.28777 0.0
O69 O 0.78806 0.17766 0.24803 0.0
O70 O 0.79401 0.17069 0.52224 0.0
O71 O 0.84098 0.20316 0.50698 0.0
H72 H 0.97835 0.27309 0.75182 0.0
H73 H 0.03352 0.30603 0.72132 0.0
H74 H 1.00357 0.23321 0.423 0.0
H75 H 0.94875 0.20119 0.45212 0.0
H76 H 0.72369 0.15184 0.09133 0.0
H77 H 0.68433 0.16106 0.12015 0.0
H78 H 0.70209 0.16829 0.46111 0.0
H79 H 0.74072 0.15839 0.4311 0.0
Ho80 Ho 0.6584 0.8021 0.44638 0.0
Ho81 Ho 0.61987 0.81814 0.57713 0.0
C82 C 0.69066 0.87966 0.54301 0.0
C83 C 0.68158 0.78252 0.3102 0.0
C84 C 0.69007 0.75999 0.31107 0.0
C85 C 0.70649 0.75737 0.23259 0.0
C86 C 0.72043 0.74178 0.24586 0.0
C87 C 0.71838 0.72911 0.33853 0.0
C88 C 0.7002 0.72994 0.41343 0.0
C89 C 0.68609 0.74522 0.39968 0.0
C90 C 0.66317 0.80213 0.65777 0.0
C91 C 0.58425 0.74105 0.46548 0.0
C92 C 0.60298 0.83907 0.73494 0.0
C93 C 0.58441 0.82768 0.82249 0.0
C94 C 0.55152 0.80175 0.80121 0.0
C95 C 0.53353 0.79708 0.88282 0.0
C96 C 0.54818 0.81845 -0.01352 0.0
C97 C 0.58143 0.84119 0.01054 0.0
C98 C 0.59937 0.84612 0.92867 0.0
C99 C 0.61423 0.81748 0.36598 0.0
O100 O 0.68711 0.85847 0.45734 0.0
O101 O 0.66963 0.86858 0.6091 0.0
O102 O 0.65135 0.76833 0.30045 0.0
O103 O 0.69889 0.8103 0.38604 0.0
O104 O 0.68691 0.81353 0.60659 0.0
O105 O 0.63898 0.79093 0.59416 0.0
O106 O 0.58541 0.7618 0.54619 0.0
O107 O 0.60809 0.75137 0.41035 0.0
O108 O 0.58761 0.82669 0.6358 0.0
O109 O 0.62914 0.84246 0.74394 0.0
O110 O 0.59199 0.8109 0.42098 0.0
O111 O 0.63839 0.82792 0.42775 0.0
H112 H 0.70996 0.76894 0.16425 0.0
H113 H 0.73446 0.74158 0.18733 0.0
H114 H 0.69804 0.72005 0.48497 0.0
H115 H 0.67359 0.74722 0.4613 0.0
H116 H 0.53942 0.78677 0.72022 0.0
H117 H 0.50795 0.77936 0.86116 0.0
H118 H 0.59335 0.85771 0.0899 0.0
H119 H 0.62478 0.86613 0.94686 0.0
Ho120 Ho 0.89369 0.56004 0.23088 0.0
Ho121 Ho 0.91378 0.51918 0.09941 0.0
C122 C 0.95882 0.57307 0.31608 0.0
C123 C 0.87903 0.58972 0.36809 0.0
C124 C 0.86281 0.60484 0.37007 0.0
C125 C 0.85339 0.61072 0.466 0.0
C126 C 0.83916 0.6264 0.47224 0.0
C127 C 0.83442 0.63695 0.38279 0.0
C128 C 0.84332 0.63034 0.28561 0.0
C129 C 0.85739 0.61433 0.27925 0.0
C130 C 0.91845 0.57987 0.05159 0.0
C131 C 0.84739 0.50403 0.01921 0.0
C132 C 0.93303 0.49318 0.96891 0.0
C133 C 0.94458 0.47413 -0.01344 0.0
C134 C 0.94815 0.45684 0.89935 0.0
C135 C 0.9535 0.43381 0.91521 0.0
C136 C 0.95444 0.42708 0.01816 0.0
C137 C 0.95345 0.44676 0.10637 0.0
C138 C 0.94886 0.47024 0.09067 0.0
C139 C 0.88963 0.49731 0.27808 0.0
O140 O 0.93542 0.57368 0.34015 0.0
O141 O 0.95779 0.55734 0.22102 0.0
O142 O 0.86121 0.55666 0.33363 0.0
O143 O 0.90601 0.60593 0.33192 0.0
O144 O 0.89711 0.58206 0.08515 0.0
O145 O 0.92664 0.56987 0.11941 0.0
O146 O 0.8708 0.50381 -0.00861 0.0
O147 O 0.84918 0.52052 0.11425 0.0
O148 O 0.95125 0.52507 0.02023 0.0
O149 O 0.90314 0.47758 0.97681 0.0
O150 O 0.90654 0.49079 0.22852 0.0
O151 O 0.88222 0.51001 0.21817 0.0
H152 H 0.85735 0.60358 0.53686 0.0
H153 H 0.83196 0.63036 0.54756 0.0
H154 H 0.84017 0.63831 0.21543 0.0
H155 H 0.8645 0.60987 0.20431 0.0
H156 H 0.94534 0.45995 0.81854 0.0
H157 H 0.95511 0.41993 0.84576 0.0
H158 H 0.95378 0.44241 0.18677 0.0
H159 H 0.9468 0.48392 0.15931 0.0
Ho160 Ho 0.26005 0.84766 0.97339 0.0
Ho161 Ho 0.32247 0.88234 0.88063 0.0
C162 C 0.28852 0.91661 0.90733 0.0
C163 C 0.21478 0.81742 0.0827 0.0
C164 C 0.18461 0.78258 0.05388 0.0
C165 C 0.18414 0.75419 0.03437 0.0
C166 C 0.15742 0.72292 0.97387 0.0
C167 C 0.13105 0.71975 0.92974 0.0
C168 C 0.13047 0.74732 0.96019 0.0
C169 C 0.15678 0.77818 0.02299 0.0
C170 C 0.25291 0.8339 0.75797 0.0
C171 C 0.29087 0.80786 0.9167 0.0
C172 C 0.37243 0.91065 0.79498 0.0
C173 C 0.39685 0.9064 0.81852 0.0
C174 C 0.39054 0.87523 0.77567 0.0
C175 C 0.40616 0.86539 0.82686 0.0
C176 C 0.42853 0.88657 0.92123 0.0
C177 C 0.43759 0.91933 0.95649 0.0
C178 C 0.422 0.92926 0.9051 0.0
C179 C 0.32704 0.88972 0.09659 0.0
O180 O 0.27523 0.9002 -0.01592 0.0
O181 O 0.30336 0.90945 0.84314 0.0
O182 O 0.2408 0.82072 0.10144 0.0
O183 O 0.21746 0.83719 0.02127 0.0
O184 O 0.233 0.83514 0.80813 0.0
O185 O 0.27321 0.83756 0.82291 0.0
O186 O 0.31184 0.83212 0.86951 0.0
O187 O 0.27029 0.80948 0.96678 0.0
O188 O 0.3696 0.92726 0.87708 0.0
O189 O 0.34482 0.88327 0.74198 0.0
O190 O 0.3445 0.8855 0.0409 0.0
O191 O 0.30934 0.89108 0.03503 0.0
H192 H 0.2051 0.75662 0.0588 0.0
H193 H 0.15831 0.70193 0.95621 0.0
H194 H 0.11094 0.7464 0.92838 0.0
H195 H 0.15645 0.79961 0.03796 0.0
H196 H 0.37171 0.85714 0.70802 0.0
H197 H 0.39974 0.84056 0.7951 0.0
H198 H 0.4552 0.93644 0.02792 0.0
H199 H 0.42767 0.95361 0.93938 0.0
Ho200 Ho 0.47515 0.20894 0.34718 0.0
Ho201 Ho 0.52803 0.27073 0.26434 0.0
C202 C 0.46222 0.25956 0.30531 0.0
C203 C 0.44352 0.16178 0.45254 0.0
C204 C 0.42202 0.1494 0.53183 0.0
C205 C 0.39289 0.14361 0.51825 0.0
C206 C 0.37072 0.12612 0.58496 0.0
C207 C 0.37713 0.11368 0.66491 0.0
C208 C 0.40739 0.12198 0.68288 0.0
C209 C 0.42954 0.13968 0.61717 0.0
C210 C 0.4735 0.1998 0.1332 0.0
C211 C 0.5436 0.22324 0.32219 0.0
C212 C 0.55799 0.31488 0.14759 0.0
C213 C 0.58418 0.3291 0.08483 0.0
C214 C 0.58022 0.31242 0.97908 0.0
C215 C 0.60464 0.32789 0.91812 0.0
C216 C 0.63329 0.36036 0.96183 0.0
C217 C 0.63719 0.37666 0.06801 0.0
C218 C 0.61286 0.36136 0.12827 0.0
C219 C 0.53185 0.27925 0.47953 0.0
O220 O 0.45616 0.23813 0.36671 0.0
O221 O 0.48569 0.27109 0.2483 0.0
O222 O 0.43229 0.16021 0.35671 0.0
O223 O 0.47279 0.18904 0.48802 0.0
O224 O 0.44797 0.18673 0.17555 0.0
O225 O 0.49733 0.21584 0.20462 0.0
O226 O 0.55118 0.24585 0.26366 0.0
O227 O 0.51755 0.20876 0.36721 0.0
O228 O 0.56562 0.32205 0.25264 0.0
O229 O 0.53233 0.28366 0.10898 0.0
O230 O 0.55661 0.29258 0.43212 0.0
O231 O 0.50736 0.26383 0.4106 0.0
H232 H 0.38674 0.15132 0.45368 0.0
H233 H 0.34799 0.12091 0.57037 0.0
H234 H 0.41334 0.11265 0.74222 0.0
H235 H 0.45196 0.14406 0.62925 0.0
H236 H 0.55822 0.28766 0.94303 0.0
H237 H 0.60098 0.31468 0.83669 0.0
H238 H 0.65927 0.40125 0.10552 0.0
H239 H 0.61649 0.375 0.20896 0.0
H240 H 0.43341 0.26628 0.46986 0.0
H241 H 0.45499 0.28857 0.15543 0.0
H242 H 0.43244 0.31919 0.17162 0.0
H243 H 0.35925 0.25584 0.45105 0.0
H244 H 0.36743 0.27649 0.5904 0.0
H245 H 0.38251 0.2536 0.54984 0.0
H246 H 0.43941 0.30746 0.63414 0.0
H247 H 0.4246 0.3306 0.6744 0.0
H248 H 0.45528 0.34653 0.59215 0.0
H249 H 0.40991 0.34958 0.22507 0.0
H250 H 0.3893 0.37807 0.31173 0.0
H251 H 0.38462 0.33876 0.59641 0.0
C252 C 0.43272 0.27694 0.40338 0.0
C253 C 0.44565 0.27471 0.3107 0.0
C254 C 0.44509 0.28982 0.22683 0.0
C255 C 0.43231 0.30724 0.2353 0.0
C256 C 0.42035 0.30958 0.32854 0.0
C257 C 0.42041 0.29485 0.41116 0.0
C258 C 0.40787 0.30293 0.50547 0.0
C259 C 0.37745 0.27027 0.52532 0.0
C260 C 0.43331 0.32308 0.60755 0.0
C261 C 0.40099 0.32473 0.46327 0.0
C262 C 0.40816 0.328 0.36077 0.0
C263 C 0.40426 0.34724 0.30541 0.0
C264 C 0.3928 0.36364 0.35599 0.0
C265 C 0.38554 0.3611 0.4617 0.0
C266 C 0.38961 0.3411 0.51539 0.0
H267 H 0.21481 0.40455 0.66917 0.0
H268 H 0.20527 0.40654 0.33096 0.0
H269 H 0.1476 0.36372 0.31052 0.0
H270 H 0.1493 0.31302 0.63819 0.0
H271 H 0.13587 0.31895 0.76069 0.0
H272 H 0.17713 0.34823 0.74921 0.0
H273 H 0.17519 0.39842 0.79653 0.0
H274 H 0.13391 0.36935 0.80782 0.0
H275 H 0.14615 0.39773 0.71748 0.0
H276 H 0.09156 0.32328 0.3246 0.0
H277 H 0.03867 0.28666 0.37352 0.0
H278 H 0.08148 0.3094 0.7039 0.0
C279 C 0.20052 0.39552 0.59076 0.0
C280 C 0.21464 0.40891 0.50156 0.0
C281 C 0.1951 0.39685 0.40058 0.0
C282 C 0.16223 0.37239 0.38788 0.0
C283 C 0.14892 0.36015 0.47706 0.0
C284 C 0.16722 0.37115 0.57673 0.0
C285 C 0.14613 0.35464 0.65976 0.0
C286 C 0.15249 0.33238 0.7046 0.0
C287 C 0.15062 0.38165 0.75078 0.0
C288 C 0.11334 0.33305 0.59088 0.0
C289 C 0.1158 0.33659 0.48565 0.0
C290 C 0.08924 0.31994 0.40648 0.0
C291 C 0.05922 0.29895 0.43508 0.0
C292 C 0.05568 0.29458 0.5422 0.0
C293 C 0.08329 0.3121 0.62128 0.0
H294 H 0.77216 0.05258 0.34734 0.0
H295 H 0.82047 0.10652 0.67611 0.0
H296 H 0.79598 0.05168 0.72889 0.0
H297 H 0.69995 0.98098 0.4039 0.0
H298 H 0.69587 0.95058 0.29512 0.0
H299 H 0.71652 0.994 0.28435 0.0
H300 H 0.7659 0.99827 0.24849 0.0
H301 H 0.74534 0.95485 0.25948 0.0
H302 H 0.78311 0.98825 0.34358 0.0
H303 H 0.76226 0.99059 0.74808 0.0
H304 H 0.72645 0.92802 0.72804 0.0
H305 H 0.70634 0.91452 0.38292 0.0
C306 C 0.77747 0.05284 0.43055 0.0
C307 C 0.7976 0.08377 0.50853 0.0
C308 C 0.8046 0.08306 0.61583 0.0
C309 C 0.79091 0.05207 0.64634 0.0
C310 C 0.77097 0.02202 0.56778 0.0
C311 C 0.76474 0.02217 0.46164 0.0
C312 C 0.74342 0.98638 0.39213 0.0
C313 C 0.71209 0.97747 0.3409 0.0
C314 C 0.76047 0.98168 0.30583 0.0
C315 C 0.73816 0.96606 0.47612 0.0
C316 C 0.7539 0.98705 0.57724 0.0
C317 C 0.75039 0.97394 0.66898 0.0
C318 C 0.73009 0.93848 0.657 0.0
C319 C 0.71426 0.91666 0.55388 0.0
C320 C 0.71878 0.93068 0.46234 0.0
H321 H 0.79145 0.63069 0.23368 0.0
H322 H 0.84725 0.68549 0.5544 0.0
H323 H 0.82318 0.71425 0.57694 0.0
H324 H 0.79775 0.70148 0.16366 0.0
H325 H 0.75798 0.67464 0.08904 0.0
H326 H 0.77965 0.65822 0.09733 0.0
H327 H 0.73405 0.60875 0.17303 0.0
H328 H 0.71233 0.62512 0.16564 0.0
H329 H 0.7212 0.6182 0.29179 0.0
H330 H 0.79201 0.73536 0.5689 0.0
H331 H 0.75767 0.75064 0.52573 0.0
H332 H 0.72361 0.68464 0.20724 0.0
C333 C 0.79891 0.64904 0.3081 0.0
C334 C 0.82096 0.65545 0.39283 0.0
C335 C 0.82986 0.6795 0.48929 0.0
C336 C 0.81649 0.69618 0.50268 0.0
C337 C 0.7945 0.68886 0.41848 0.0
C338 C 0.78597 0.66619 0.3226 0.0
C339 C 0.7618 0.66315 0.24494 0.0
C340 C 0.7751 0.67509 0.1427 0.0
C341 C 0.73049 0.62663 0.21726 0.0
C342 C 0.75797 0.68747 0.31272 0.0
C343 C 0.77697 0.70184 0.41271 0.0
C344 C 0.7771 0.72441 0.49077 0.0
C345 C 0.75737 0.73272 0.46582 0.0
C346 C 0.73794 0.71865 0.36351 0.0
C347 C 0.73835 0.69582 0.28588 0.0
H348 H 0.06811 0.69199 0.87865 0.0
H349 H 0.1384 0.68118 0.77577 0.0
H350 H 0.10033 0.6388 0.61423 0.0
H351 H 0.99962 0.60825 0.77547 0.0
H352 H 0.97535 0.61865 0.72407 0.0
H353 H 1.00613 0.64659 0.83982 0.0
H354 H 0.03431 0.69754 0.75057 0.0
H355 H 1.00304 0.67181 0.63564 0.0
H356 H 0.04371 0.6932 0.6178 0.0
H357 H 0.0564 0.60194 0.45313 0.0
H358 H 1.0098 0.57276 0.31008 0.0
H359 H 0.97074 0.61158 0.51459 0.0
C360 C 0.07576 0.68087 0.82285 0.0
C361 C 0.1065 0.69019 0.84153 0.0
C362 C 0.11485 0.67411 0.76609 0.0
C363 C 0.09349 0.65022 0.67277 0.0
C364 C 0.06403 0.64301 0.65494 0.0
C365 C 0.0553 0.65805 0.72772 0.0
C366 C 1.02343 0.64825 0.68624 0.0
C367 C 0.99963 0.62928 0.76078 0.0
C368 C 0.02632 0.67957 0.67169 0.0
C369 C 1.0154 0.62506 0.57891 0.0
C370 C 0.03909 0.62235 0.56195 0.0
C371 C 0.03756 0.60363 0.46587 0.0
C372 C 1.01109 0.58729 0.38496 0.0
C373 C 0.98665 0.58994 0.40091 0.0
C374 C 0.9889 0.60889 0.49968 0.0
H375 H 0.329 0.98271 0.01047 0.0
H376 H 0.24763 0.91128 0.7591 0.0
H377 H 0.25402 0.95882 0.69869 0.0
H378 H 0.31996 0.05446 0.05197 0.0
H379 H 0.36241 0.0862 0.07046 0.0
H380 H 0.34536 0.04747 0.11648 0.0
H381 H 0.3783 0.03596 0.00385 0.0
H382 H 0.39516 0.07426 0.95723 0.0
H383 H 0.37482 0.03428 0.86112 0.0
H384 H 0.27694 1.01128 0.63672 0.0
H385 H 0.31482 0.06314 0.57409 0.0
H386 H 0.38136 0.10356 0.86927 0.0
C387 C 0.31156 0.97738 0.94695 0.0
C388 C 0.28726 0.94373 0.89119 0.0
C389 C 0.26576 0.93708 0.80434 0.0
C390 C 0.26922 0.96393 0.7699 0.0
C391 C 0.29428 0.99717 0.82358 0.0
C392 C 0.31493 1.00404 0.91139 0.0
C393 C 0.34324 0.04146 0.94177 0.0
C394 C 0.34269 0.0584 0.0517 0.0
C395 C 0.37469 0.04676 0.94077 0.0
C396 C 0.33677 0.05389 0.85157 0.0
C397 C 0.3079 0.02823 0.78652 0.0
C398 C 0.29907 0.03196 0.68895 0.0
C399 C 0.32085 0.06181 0.65413 0.0
C400 C 0.35131 0.08765 0.7165 0.0
C401 C 0.35838 0.0843 0.81941 0.0
H402 H 0.33007 0.79765 0.82221 0.0
H403 H 0.24311 0.74544 0.95723 0.0
H404 H 0.23354 0.69085 0.89182 0.0
H405 H 0.2998 0.73679 0.58391 0.0
H406 H 0.33563 0.7415 0.57358 0.0
H407 H 0.33782 0.77672 0.6435 0.0
H408 H 0.36936 0.78133 0.81131 0.0
H409 H 0.36703 0.74567 0.74577 0.0
H410 H 0.35301 0.74537 0.87232 0.0
H411 H 0.23132 0.64104 0.7952 0.0
H412 H 0.23782 0.60148 0.68506 0.0
H413 H 0.32518 0.68713 0.6088 0.0
C414 C 0.30929 0.77493 0.84043 0.0
C415 C 0.28737 0.77596 0.89544 0.0
C416 C 0.26042 0.74544 0.91632 0.0
C417 C 0.25473 0.71427 0.87896 0.0
C418 C 0.27628 0.7141 0.82133 0.0
C419 C 0.3032 0.74378 0.80328 0.0
C420 C 0.32163 0.73679 0.73319 0.0
C421 C 0.32382 0.74864 0.62729 0.0
C422 C 0.3547 0.75324 0.79444 0.0
C423 C 0.30076 0.69846 0.7133 0.0
C424 C 0.27477 0.68574 0.76501 0.0
C425 C 0.25173 0.65085 0.75514 0.0
C426 C 0.25549 0.62853 0.69155 0.0
C427 C 0.28206 0.6411 0.63818 0.0
C428 C 0.30488 0.67662 0.64976 0.0
H429 H 0.59342 0.23785 0.2169 0.0
H430 H 0.53906 0.18353 0.45536 0.0
H431 H 0.57041 0.16331 0.47326 0.0
H432 H 0.60027 0.17484 0.08682 0.0
H433 H 0.64025 0.20516 0.06425 0.0
H434 H 0.6141 0.21627 0.07119 0.0
H435 H 0.65491 0.26912 0.22331 0.0
H436 H 0.68125 0.25827 0.21656 0.0
H437 H 0.66917 0.2639 0.34275 0.0
H438 H 0.60675 0.14782 0.46364 0.0
H439 H 0.64618 0.1388 0.42901 0.0
H440 H 0.67808 0.20349 0.19851 0.0
C441 C 0.58822 0.22186 0.27334 0.0
C442 C 0.56359 0.21227 0.3345 0.0
C443 C 0.55758 0.19116 0.40705 0.0
C444 C 0.57533 0.17953 0.41801 0.0
C445 C 0.59914 0.18915 0.35596 0.0
C446 C 0.60572 0.20989 0.28521 0.0
C447 C 0.6325 0.21613 0.22751 0.0
C448 C 0.62109 0.20227 0.10519 0.0
C449 C 0.66116 0.25411 0.25416 0.0
C450 C 0.63981 0.19554 0.27666 0.0
C451 C 0.62028 0.18026 0.35066 0.0
C452 C 0.62232 0.15986 0.40637 0.0
C453 C 0.645 0.15505 0.38652 0.0
C454 C 0.66557 0.17057 0.31156 0.0
C455 C 0.66267 0.191 0.25571 0.0
H456 H 0.52325 0.71695 0.45702 0.0
H457 H 0.58125 0.6842 0.42536 0.0
H458 H 0.53363 0.62458 0.4142 0.0
H459 H 0.47372 0.66371 0.61963 0.0
H460 H 0.43824 0.65513 0.55598 0.0
H461 H 0.47639 0.69434 0.55459 0.0
H462 H 0.46445 0.68134 0.34604 0.0
H463 H 0.42607 0.6422 0.34682 0.0
H464 H 0.45305 0.6416 0.26861 0.0
H465 H 0.47979 0.56947 0.43122 0.0
H466 H 0.42426 0.52348 0.44891 0.0
H467 H 0.40186 0.59263 0.45184 0.0
C468 C 0.52578 0.69708 0.44565 0.0
C469 C 0.55578 0.70498 0.44186 0.0
C470 C 0.55833 0.67848 0.42721 0.0
C471 C 0.53146 0.64465 0.42151 0.0
C472 C 0.50221 0.6378 0.42804 0.0
C473 C 0.49921 0.66329 0.43714 0.0
C474 C 0.46542 0.6497 0.44287 0.0
C475 C 0.46334 0.66673 0.5496 0.0
C476 C 0.45142 0.65396 0.34525 0.0
C477 C 0.44984 0.61267 0.43828 0.0
C478 C 0.47136 0.60617 0.4309 0.0
C479 C 0.46265 0.57417 0.43448 0.0
C480 C 0.43116 0.54826 0.44499 0.0
C481 C 0.40873 0.55439 0.44963 0.0
C482 C 0.41831 0.58698 0.4456 0.0
H483 H 0.97753 0.41722 0.19444 0.0
H484 H 0.92073 0.36577 0.87394 0.0
H485 H 0.90242 0.31134 0.91061 0.0
H486 H 0.9927 0.35306 0.22243 0.0
H487 H 0.98854 0.35686 0.36255 0.0
H488 H 1.00517 0.39302 0.30212 0.0
H489 H 0.96307 0.39884 0.36425 0.0
H490 H 0.94589 0.36244 0.42278 0.0
H491 H 0.9216 0.36316 0.32346 0.0
H492 H 0.87749 0.2637 -0.00547 0.0
H493 H 0.85423 0.22364 0.11205 0.0
H494 H 0.92687 0.30196 0.38165 0.0
C495 C 0.96202 0.39463 0.13073 0.0
C496 C 0.95069 0.39616 0.03111 0.0
C497 C 0.93049 0.36587 0.95002 0.0
C498 C 0.91966 0.33453 0.97039 0.0
C499 C 0.92934 0.33372 0.07189 0.0
C500 C 0.95067 0.36292 0.15028 0.0
C501 C 0.95373 0.35437 0.25704 0.0
C502 C 0.98702 0.36495 0.28783 0.0
C503 C 0.94557 0.37067 0.34711 0.0
C504 C 0.92896 0.31596 0.22805 0.0
C505 C 0.91559 0.30482 0.12026 0.0
C506 C 0.88887 0.27164 0.07731 0.0
C507 C 0.87567 0.24905 0.14536 0.0
C508 C 0.88938 0.25921 0.2552 0.0
C509 C 0.91663 0.29315 0.29706 0.0
H510 H 0.49011 0.92001 0.00988 0.0
H511 H 0.39598 0.8245 0.97289 0.0
H512 H 0.41855 0.79971 0.04773 0.0
H513 H 0.52607 0.89079 0.91874 0.0
H514 H 0.56315 0.91968 0.01098 0.0
H515 H 0.53898 0.93209 -0.01274 0.0
H516 H 0.53843 0.94353 0.19252 0.0
H517 H 0.56238 0.93039 0.21624 0.0
H518 H 0.52504 0.91026 0.26414 0.0
H519 H 0.45093 0.78126 0.07304 0.0
H520 H 0.48951 0.77098 0.03738 0.0
H521 H 0.56318 0.87914 0.07497 0.0
C522 C 0.47425 0.89438 0.02221 0.0
C523 C 0.44151 0.87389 0.98371 0.0
C524 C 0.42133 0.84025 -0.00096 0.0
C525 C 0.43389 0.82622 0.04367 0.0
C526 C 0.46661 0.8465 0.07568 0.0
C527 C 0.4865 0.88017 0.06756 0.0
C528 C 0.52091 0.89483 0.08967 0.0
C529 C 0.53822 0.91016 -0.00394 0.0
C530 C 0.53767 0.92132 0.19706 0.0
C531 C 0.51712 0.86311 0.09809 0.0
C532 C 0.48571 0.83579 0.09469 0.0
C533 C 0.47572 0.80261 0.07973 0.0
C534 C 0.49777 0.79692 0.05947 0.0
C535 C 0.5293 0.82428 0.05351 0.0
C536 C 0.53947 0.85785 0.08204 0.0
H537 H 0.804 0.51488 0.00164 0.0
H538 H 0.82198 0.44457 0.87479 0.0
H539 H 0.7657 0.40168 0.79211 0.0
H540 H 0.74164 0.46484 0.09453 0.0
H541 H 0.71878 0.47847 0.06035 0.0
H542 H 0.76099 0.50716 0.07322 0.0
H543 H 0.75644 0.51523 0.8795 0.0
H544 H 0.71381 0.48659 0.86607 0.0
H545 H 0.73325 0.47866 0.76848 0.0
H546 H 0.70779 0.36204 0.78289 0.0
H547 H 0.65516 0.33141 0.83776 0.0
H548 H 0.67278 0.42718 0.95483 0.0
C549 C 0.79622 0.49097 0.95198 0.0
C550 C 0.81696 0.48274 0.94511 0.0
C551 C 0.80634 0.45134 0.88042 0.0
C552 C 0.7744 0.42687 0.83281 0.0
C553 C 0.75376 0.4347 0.84803 0.0
C554 C 0.76451 0.46654 0.90314 0.0
C555 C 0.73724 0.467 0.92429 0.0
C556 C 0.73983 0.48008 0.04517 0.0
C557 C 0.73506 0.48812 0.85543 0.0
C558 C 0.70975 0.42959 0.8857 0.0
C559 C 0.71951 0.41148 0.83825 0.0
C560 C 0.69954 0.37598 0.81561 0.0
C561 C 0.66959 0.3587 0.84711 0.0
C562 C 0.66009 0.37704 0.90122 0.0
C563 C 0.67961 0.41264 0.91378 0.0
H564 H 0.34591 0.46176 0.18155 0.0
H565 H 0.25108 0.42406 0.22657 0.0
H566 H 0.23884 0.42422 0.03907 0.0
H567 H 0.3608 0.5216 0.07722 0.0
H568 H 0.38387 0.52174 0.97788 0.0
H569 H 0.38205 0.50497 0.09372 0.0
H570 H 0.35952 0.44553 0.9764 0.0
H571 H 0.3658 0.46468 0.86276 0.0
H572 H 0.32734 0.42573 0.86618 0.0
H573 H 0.24292 0.44728 0.88507 0.0
H574 H 0.25993 0.48289 0.75176 0.0
H575 H 0.35293 0.50799 0.804 0.0
C576 C 0.32211 0.45173 0.14892 0.0
C577 C 0.29939 0.443 0.21576 0.0
C578 C 0.26867 0.43096 0.17463 0.0
C579 C 0.26148 0.43068 0.06831 0.0
C580 C 0.28542 0.44269 0.00608 0.0
C581 C 0.31502 0.45236 0.04384 0.0
C582 C 0.33869 0.47148 0.97175 0.0
C583 C 0.36802 0.50702 0.03393 0.0
C584 C 0.34833 0.45056 0.91566 0.0
C585 C 0.31862 0.47389 0.89396 0.0
C586 C 0.28782 0.45647 0.91374 0.0
C587 C 0.26649 0.45985 0.86534 0.0
C588 C 0.27659 0.48077 0.79212 0.0
C589 C 0.30761 0.49771 0.76848 0.0
C590 C 0.32889 0.49449 0.82016 0.0
H591 H 0.80956 0.13422 0.12672 0.0
H592 H 0.91231 0.19647 0.16524 0.0
H593 H 0.91135 0.21213 -0.00595 0.0
H594 H 0.79859 0.10336 0.83356 0.0
H595 H 0.76594 0.10346 0.79519 0.0
H596 H 0.77083 0.09471 0.92313 0.0
H597 H 0.77226 0.14195 0.0293 0.0
H598 H 0.76582 0.15217 0.90721 0.0
H599 H 0.79939 0.18474 0.0101 0.0
H600 H 0.90105 0.23409 0.85453 0.0
H601 H 0.88035 0.24144 0.69414 0.0
H602 H 0.78495 0.15518 0.71218 0.0
C603 C 0.83162 0.1501 0.09685 0.0
C604 C 0.86101 0.16476 0.16013 0.0
C605 C 0.88952 0.18538 0.11887 0.0
C606 C 0.88934 0.19458 0.02181 0.0
C607 C 0.86037 0.18176 0.96481 0.0
C608 C 0.83186 0.15862 -0.00301 0.0
C609 C 0.80426 0.14831 0.91652 0.0
C610 C 0.78367 0.11022 0.86367 0.0
C611 C 0.78431 0.1574 0.96907 0.0
C612 C 0.82211 0.17041 0.83765 0.0
C613 C 0.85444 0.19046 0.87046 0.0
C614 C 0.87595 0.21686 0.82253 0.0
C615 C 0.86418 0.22081 0.73186 0.0
C616 C 0.83184 0.1971 0.68654 0.0
C617 C 0.81014 0.17274 0.74307 0.0
H618 H 0.58631 0.76845 0.18369 0.0
H619 H 0.64987 0.87737 0.30794 0.0
H620 H 0.67303 0.88545 0.14077 0.0
H621 H 0.64027 0.76306 0.06814 0.0
H622 H 0.61324 0.73049 0.95061 0.0
H623 H 0.59858 0.73329 0.07326 0.0
H624 H 0.55904 0.73827 0.97306 0.0
H625 H 0.57281 0.73412 0.84944 0.0
H626 H 0.57357 0.77009 0.89474 0.0
H627 H 0.6948 0.88059 0.97424 0.0
H628 H 0.70388 0.86434 0.79426 0.0
H629 H 0.62427 0.75902 0.77639 0.0
C630 C 0.60367 0.794 0.17238 0.0
C631 C 0.61607 0.82239 0.25645 0.0
C632 C 0.63988 0.85551 0.24238 0.0
C633 C 0.6535 0.86024 0.14888 0.0
C634 C 0.64252 0.8315 0.07041 0.0
C635 C 0.61731 0.79912 0.07911 0.0
C636 C 0.61069 0.77246 -0.01523 0.0
C637 C 0.61601 0.74843 0.02149 0.0
C638 C 0.57704 0.75257 0.92172 0.0
C639 C 0.63581 0.79496 0.9213 0.0
C640 C 0.65454 0.82883 0.97339 0.0
C641 C 0.68013 0.85418 0.93194 0.0
C642 C 0.6855 0.84475 0.83106 0.0
C643 C 0.66492 0.81052 0.7736 0.0
C644 C 0.64045 0.7853 0.82032 0.0
H645 H 0.87776 0.56469 0.87214 0.0
H646 H 0.96359 0.57856 0.97545 0.0
H647 H 0.96023 0.55118 0.79237 0.0
H648 H 0.83936 0.4851 0.68284 0.0
H649 H 0.82235 0.49422 0.5836 0.0
H650 H 0.82987 0.5133 0.72435 0.0
H651 H 0.86514 0.57406 0.68555 0.0
H652 H 0.85533 0.55399 0.54508 0.0
H653 H 0.89636 0.58545 0.60789 0.0
H654 H 0.9491 0.52416 0.60432 0.0
H655 H 0.93344 0.50228 0.40939 0.0
H656 H 0.85732 0.51024 0.41502 0.0
C657 C 0.89649 0.56315 0.8549 0.0
C658 C 0.92069 0.57303 0.93771 0.0
C659 C 0.94448 0.57021 0.91309 0.0
C660 C 0.9428 0.55482 0.80966 0.0
C661 C 0.91834 0.54451 0.73028 0.0
C662 C 0.89595 0.54904 0.75033 0.0
C663 C 0.87242 0.53574 0.64872 0.0
C664 C 0.83903 0.50528 0.66062 0.0
C665 C 0.87239 0.56406 0.62016 0.0
C666 C 0.88622 0.52469 0.56775 0.0
C667 C 0.91213 0.52916 0.61834 0.0
C668 C 0.92893 0.52059 0.56327 0.0
C669 C 0.91967 0.50803 0.45232 0.0
C670 C 0.89444 0.5051 0.39677 0.0
C671 C 0.87699 0.51281 0.45547 0.0
H672 H 0.29942 0.90528 0.23873 0.0
H673 H 0.33191 0.84509 0.17008 0.0
H674 H 0.30688 0.81648 0.31727 0.0
H675 H 0.31422 0.91888 0.52518 0.0
H676 H 0.28024 0.91714 0.54474 0.0
H677 H 0.29925 0.93108 0.43012 0.0
H678 H 0.24515 0.88396 0.30197 0.0
H679 H 0.22684 0.87092 0.41885 0.0
H680 H 0.22364 0.84041 0.31354 0.0
H681 H 0.28039 0.79607 0.47132 0.0
H682 H 0.26234 0.79215 0.64704 0.0
H683 H 0.24652 0.86519 0.61703 0.0
C684 C 0.30147 0.88631 0.25591 0.0
C685 C 0.31748 0.87725 0.1944 0.0
C686 C 0.31995 0.85248 0.21785 0.0
C687 C 0.30537 0.83575 0.29969 0.0
C688 C 0.28874 0.84439 0.35664 0.0
C689 C 0.28731 0.8696 0.3377 0.0
C690 C 0.27027 0.87603 0.41667 0.0
C691 C 0.29231 0.91295 0.48313 0.0
C692 C 0.23967 0.86731 0.3592 0.0
C693 C 0.26296 0.85097 0.4847 0.0
C694 C 0.2732 0.83244 0.44676 0.0
C695 C 0.27178 0.8099 0.50097 0.0
C696 C 0.26134 0.80768 0.59999 0.0
C697 C 0.25258 0.82791 0.6428 0.0
C698 C 0.25199 0.84863 0.58297 0.0
H699 H 0.45252 0.22076 -0.00578 0.0
H700 H 0.50466 0.18177 0.02631 0.0
H701 H 0.52592 0.19869 0.86023 0.0
H702 H 0.43495 0.20074 0.69566 0.0
H703 H 0.44214 0.24012 0.69119 0.0
H704 H 0.427 0.22058 0.80373 0.0
H705 H 0.47364 0.27544 0.93652 0.0
H706 H 0.48879 0.29543 0.825 0.0
H707 H 0.51372 0.29377 0.91763 0.0
H708 H 0.54911 0.22889 0.71446 0.0
H709 H 0.56328 0.25902 0.56532 0.0
H710 H 0.49503 0.27693 0.62207 0.0
C711 C 0.46692 0.21411 0.96226 0.0
C712 C 0.47637 0.19916 0.01995 0.0
C713 C 0.49668 0.19245 0.98053 0.0
C714 C 0.50911 0.20229 0.8873 0.0
C715 C 0.50101 0.21893 0.8354 0.0
C716 C 0.47987 0.2242 0.86965 0.0
C717 C 0.47738 0.24527 0.80421 0.0
C718 C 0.44335 0.22551 0.74508 0.0
C719 C 0.48908 0.27948 0.87515 0.0
C720 C 0.50002 0.25045 0.72733 0.0
C721 C 0.51405 0.23588 0.74883 0.0
C722 C 0.53777 0.23973 0.69476 0.0
C723 C 0.54607 0.25733 0.61174 0.0
C724 C 0.53011 0.27 0.58325 0.0
C725 C 0.50743 0.26728 0.64313 0.0
loop_
_geom_bond_atom_site_label_1
_geom_bond_atom_site_label_2
_geom_bond_distance
_geom_bond_site_symmetry_2
_ccdc_geom_bond_type
Ho0 C3 2.811 . S
Ho0 O20 2.322 . S
Ho0 O22 2.378 . S
Ho0 O23 2.524 . S
Ho0 O24 2.381 . S
Ho0 O25 2.669 . S
Ho0 O27 2.346 . S
Ho0 O31 2.305 1_556 S
Ho1 C12 2.811 . S
Ho1 O21 2.346 . S
Ho1 O25 2.305 . S
Ho1 O26 2.322 1_556 S
Ho1 O28 2.378 1_556 S
Ho1 O29 2.524 . S
Ho1 O30 2.381 1_556 S
Ho1 O31 2.669 1_556 S
C2 O20 1.259 . S
C2 O21 1.268 . S
C3 Ho0 2.811 . S
C3 C4 1.488 . S
C3 O22 1.215 . S
C3 O23 1.289 . S
C4 C3 1.488 . S
C4 C5 1.348 . S
C4 C9 1.413 . S
C5 C4 1.348 . S
C5 C6 1.442 . S
C5 H32 0.930 . S
C6 C5 1.442 . S
C6 C7 1.381 . S
C6 H33 0.931 . S
C7 C6 1.381 . S
C7 C8 1.321 . S
C8 C7 1.321 . S
C8 C9 1.403 . S
C8 H34 0.934 . S
C9 C4 1.413 . S
C9 C8 1.403 . S
C9 H35 0.930 . S
C10 O24 1.275 . S
C10 O25 1.256 . S
C11 O26 1.259 . S
C11 O27 1.268 1_554 S
C12 Ho1 2.811 . S
C12 C13 1.488 1_556 S
C12 O28 1.215 1_556 S
C12 O29 1.289 . S
C13 C12 1.488 1_554 S
C13 C14 1.348 1_554 S
C13 C18 1.413 . S
C14 C13 1.348 1_556 S
C14 C15 1.442 . S
C14 H36 0.930 . S
C15 C14 1.442 . S
C15 C16 1.381 1_556 S
C15 H37 0.931 . S
C16 C15 1.381 1_554 S
C16 C17 1.321 . S
C17 C16 1.321 . S
C17 C18 1.403 . S
C17 H38 0.934 . S
C18 C13 1.413 . S
C18 C17 1.403 . S
C18 H39 0.930 . S
C19 O30 1.275 . S
C19 O31 1.256 . S
O20 Ho0 2.322 . S
O20 C2 1.259 . S
O21 Ho1 2.346 . S
O21 C2 1.268 . S
O22 Ho0 2.378 . S
O22 C3 1.215 . S
O23 Ho0 2.524 . S
O23 C3 1.289 . S
O24 Ho0 2.381 . S
O24 C10 1.275 . S
O25 Ho0 2.669 . S
O25 Ho1 2.305 . S
O25 C10 1.256 . S
O26 Ho1 2.322 1_554 S
O26 C11 1.259 . S
O27 Ho0 2.346 . S
O27 C11 1.268 1_556 S
O28 Ho1 2.378 1_554 S
O28 C12 1.215 1_554 S
O29 Ho1 2.524 . S
O29 C12 1.289 . S
O30 Ho1 2.381 1_554 S
O30 C19 1.275 . S
O31 Ho0 2.305 1_554 S
O31 Ho1 2.669 1_554 S
O31 C19 1.256 . S
H32 C5 0.930 . S
H33 C6 0.931 . S
H34 C8 0.934 . S
H35 C9 0.930 . S
H36 C14 0.930 . S
H37 C15 0.931 . S
H38 C17 0.934 . S
H39 C18 0.930 . S
Ho40 C43 2.811 . S
Ho40 O60 2.322 . S
Ho40 O62 2.378 . S
Ho40 O63 2.524 . S
Ho40 O64 2.381 1_554 S
Ho40 O65 2.669 1_554 S
Ho40 O67 2.346 . S
Ho40 O71 2.305 . S
Ho41 C52 2.811 1_554 S
Ho41 O61 2.346 . S
Ho41 O65 2.305 1_554 S
Ho41 O66 2.322 . S
Ho41 O68 2.378 . S
Ho41 O69 2.524 1_554 S
Ho41 O70 2.381 . S
Ho41 O71 2.669 . S
C42 O60 1.259 . S
C42 O61 1.268 . S
C43 Ho40 2.811 . S
C43 C44 1.488 . S
C43 O62 1.215 . S
C43 O63 1.289 . S
C44 C43 1.488 . S
C44 C45 1.348 . S
C44 C49 1.413 . S
C45 C44 1.348 . S
C45 C46 1.442 . S
C45 H72 0.930 . S
C46 C45 1.442 . S
C46 C47 1.381 . S
C46 H73 0.931 . S
C47 C46 1.381 . S
C47 C48 1.321 . S
C48 C47 1.321 . S
C48 C49 1.403 . S
C48 H74 0.934 . S
C49 C44 1.413 . S
C49 C48 1.403 . S
C49 H75 0.930 . S
C50 O64 1.275 . S
C50 O65 1.256 . S
C51 O66 1.259 . S
C51 O67 1.268 . S
C52 Ho41 2.811 1_556 S
C52 C53 1.488 . S
C52 O68 1.215 1_556 S
C52 O69 1.289 . S
C53 C52 1.488 . S
C53 C54 1.348 . S
C53 C58 1.412 . S
C54 C53 1.348 . S
C54 C55 1.442 . S
C54 H76 0.930 . S
C55 C54 1.442 . S
C55 C56 1.381 . S
C55 H77 0.931 . S
C56 C55 1.381 . S
C56 C57 1.321 . S
C57 C56 1.321 . S
C57 C58 1.403 . S
C57 H78 0.934 1_556 S
C58 C53 1.412 . S
C58 C57 1.403 . S
C58 H79 0.931 1_556 S
C59 O70 1.275 . S
C59 O71 1.256 . S
O60 Ho40 2.322 . S
O60 C42 1.259 . S
O61 Ho41 2.346 . S
O61 C42 1.268 . S
O62 Ho40 2.378 . S
O62 C43 1.215 . S
O63 Ho40 2.524 . S
O63 C43 1.289 . S
O64 Ho40 2.381 1_556 S
O64 C50 1.275 . S
O65 Ho40 2.669 1_556 S
O65 Ho41 2.305 1_556 S
O65 C50 1.256 . S
O66 Ho41 2.322 . S
O66 C51 1.259 . S
O67 Ho40 2.346 . S
O67 C51 1.268 . S
O68 Ho41 2.378 . S
O68 C52 1.215 1_554 S
O69 Ho41 2.524 1_556 S
O69 C52 1.289 . S
O70 Ho41 2.381 . S
O70 C59 1.275 . S
O71 Ho40 2.305 . S
O71 Ho41 2.669 . S
O71 C59 1.256 . S
H72 C45 0.930 . S
H73 C46 0.931 . S
H74 C48 0.934 . S
H75 C49 0.930 . S
H76 C54 0.930 . S
H77 C55 0.931 . S
H78 C57 0.934 1_554 S
H79 C58 0.931 1_554 S
Ho80 C83 2.811 . S
Ho80 O100 2.322 1_556 S
Ho80 O102 2.378 1_556 S
Ho80 O103 2.524 . S
Ho80 O104 2.381 1_556 S
Ho80 O105 2.669 1_556 S
Ho80 O107 2.346 1_556 S
Ho80 O111 2.305 . S
Ho81 C92 2.811 . S
Ho81 O101 2.346 1_554 S
Ho81 O105 2.305 . S
Ho81 O106 2.322 1_554 S
Ho81 O108 2.378 1_554 S
Ho81 O109 2.524 . S
Ho81 O110 2.381 1_554 S
Ho81 O111 2.669 1_554 S
C82 O100 1.259 1_556 S
C82 O101 1.268 . S
C83 Ho80 2.811 . S
C83 C84 1.488 . S
C83 O102 1.215 1_556 S
C83 O103 1.289 . S
C84 C83 1.488 . S
C84 C85 1.348 . S
C84 C89 1.413 . S
C85 C84 1.348 . S
C85 C86 1.442 . S
C85 H112 0.930 . S
C86 C85 1.442 . S
C86 C87 1.381 . S
C86 H113 0.931 . S
C87 C86 1.381 . S
C87 C88 1.321 . S
C88 C87 1.321 . S
C88 C89 1.403 . S
C88 H114 0.934 . S
C89 C84 1.413 . S
C89 C88 1.403 . S
C89 H115 0.930 1_556 S
C90 O104 1.275 . S
C90 O105 1.256 . S
C91 O106 1.259 1_554 S
C91 O107 1.268 . S
C92 Ho81 2.811 . S
C92 C93 1.488 . S
C92 O108 1.215 1_554 S
C92 O109 1.289 . S
C93 C92 1.488 . S
C93 C94 1.348 . S
C93 C98 1.413 . S
C94 C93 1.348 . S
C94 C95 1.442 . S
C94 H116 0.930 . S
C95 C94 1.442 . S
C95 C96 1.381 . S
C95 H117 0.931 . S
C96 C95 1.381 . S
C96 C97 1.321 . S
C97 C96 1.321 . S
C97 C98 1.403 . S
C97 H118 0.934 . S
C98 C93 1.413 . S
C98 C97 1.403 . S
C98 H119 0.930 1_554 S
C99 O110 1.275 . S
C99 O111 1.256 . S
O100 Ho80 2.322 1_554 S
O100 C82 1.259 1_554 S
O101 Ho81 2.346 1_556 S
O101 C82 1.268 . S
O102 Ho80 2.378 1_554 S
O102 C83 1.215 1_554 S
O103 Ho80 2.524 . S
O103 C83 1.289 . S
O104 Ho80 2.381 1_554 S
O104 C90 1.275 . S
O105 Ho80 2.669 1_554 S
O105 Ho81 2.305 . S
O105 C90 1.256 . S
O106 Ho81 2.322 1_556 S
O106 C91 1.259 1_556 S
O107 Ho80 2.346 1_554 S
O107 C91 1.268 . S
O108 Ho81 2.378 1_556 S
O108 C92 1.215 1_556 S
O109 Ho81 2.524 . S
O109 C92 1.289 . S
O110 Ho81 2.381 1_556 S
O110 C99 1.275 . S
O111 Ho80 2.305 . S
O111 Ho81 2.669 1_556 S
O111 C99 1.256 . S
H112 C85 0.930 . S
H113 C86 0.931 . S
H114 C88 0.934 . S
H115 C89 0.930 1_554 S
H116 C94 0.930 . S
H117 C95 0.931 . S
H118 C97 0.934 . S
H119 C98 0.930 1_556 S
Ho120 C123 2.811 . S
Ho120 O140 2.322 . S
Ho120 O142 2.378 1_554 S
Ho120 O143 2.524 . S
Ho120 O144 2.381 1_554 S
Ho120 O145 2.669 1_554 S
Ho120 O147 2.346 1_554 S
Ho120 O151 2.305 . S
Ho121 C132 2.811 . S
Ho121 O141 2.346 1_556 S
Ho121 O145 2.305 . S
Ho121 O146 2.322 . S
Ho121 O148 2.378 1_556 S
Ho121 O149 2.524 . S
Ho121 O150 2.381 1_556 S
Ho121 O151 2.669 1_556 S
C122 O140 1.259 . S
C122 O141 1.268 . S
C123 Ho120 2.811 . S
C123 C124 1.488 . S
C123 O142 1.215 1_554 S
C123 O143 1.289 . S
C124 C123 1.488 . S
C124 C125 1.348 . S
C124 C129 1.413 . S
C125 C124 1.348 . S
C125 C126 1.442 . S
C125 H152 0.930 . S
C126 C125 1.442 . S
C126 C127 1.381 . S
C126 H153 0.931 . S
C127 C126 1.381 . S
C127 C128 1.321 . S
C128 C127 1.321 . S
C128 C129 1.403 . S
C128 H154 0.934 . S
C129 C124 1.413 . S
C129 C128 1.403 . S
C129 H155 0.930 1_554 S
C130 O144 1.275 . S
C130 O145 1.256 . S
C131 O146 1.259 . S
C131 O147 1.268 . S
C132 Ho121 2.811 . S
C132 C133 1.488 . S
C132 O148 1.215 1_556 S
C132 O149 1.289 . S
C133 C132 1.488 . S
C133 C134 1.348 . S
C133 C138 1.413 . S
C134 C133 1.348 . S
C134 C135 1.442 . S
C134 H156 0.930 . S
C135 C134 1.442 . S
C135 C136 1.381 . S
C135 H157 0.931 . S
C136 C135 1.381 . S
C136 C137 1.321 . S
C137 C136 1.321 . S
C137 C138 1.403 . S
C137 H158 0.934 . S
C138 C133 1.413 . S
C138 C137 1.403 . S
C138 H159 0.930 1_556 S
C139 O150 1.275 . S
C139 O151 1.256 . S
O140 Ho120 2.322 . S
O140 C122 1.259 . S
O141 Ho121 2.346 1_554 S
O141 C122 1.268 . S
O142 Ho120 2.378 1_556 S
O142 C123 1.215 1_556 S
O143 Ho120 2.524 . S
O143 C123 1.289 . S
O144 Ho120 2.381 1_556 S
O144 C130 1.275 . S
O145 Ho120 2.669 1_556 S
O145 Ho121 2.305 . S
O145 C130 1.256 . S
O146 Ho121 2.322 . S
O146 C131 1.259 . S
O147 Ho120 2.346 1_556 S
O147 C131 1.268 . S
O148 Ho121 2.378 1_554 S
O148 C132 1.215 1_554 S
O149 Ho121 2.524 . S
O149 C132 1.289 . S
O150 Ho121 2.381 1_554 S
O150 C139 1.275 . S
O151 Ho120 2.305 . S
O151 Ho121 2.669 1_554 S
O151 C139 1.256 . S
H152 C125 0.930 . S
H153 C126 0.931 . S
H154 C128 0.934 . S
H155 C129 0.930 1_556 S
H156 C134 0.930 . S
H157 C135 0.931 . S
H158 C137 0.934 . S
H159 C138 0.930 1_554 S
Ho160 C163 2.811 . S
Ho160 O180 2.322 . S
Ho160 O182 2.378 . S
Ho160 O183 2.524 1_556 S
Ho160 O184 2.381 . S
Ho160 O185 2.669 . S
Ho160 O187 2.346 . S
Ho160 O191 2.305 1_556 S
Ho161 C172 2.811 . S
Ho161 O181 2.346 . S
Ho161 O185 2.305 1_554 S
Ho161 O186 2.322 . S
Ho161 O188 2.378 . S
Ho161 O189 2.524 1_554 S
Ho161 O190 2.381 . S
Ho161 O191 2.669 . S
C162 O180 1.259 . S
C162 O181 1.268 1_556 S
C163 Ho160 2.811 . S
C163 C164 1.488 . S
C163 O182 1.215 . S
C163 O183 1.289 1_556 S
C164 C163 1.488 . S
C164 C165 1.348 . S
C164 C169 1.413 . S
C165 C164 1.348 . S
C165 C166 1.442 . S
C165 H192 0.930 1_556 S
C166 C165 1.442 . S
C166 C167 1.381 . S
C166 H193 0.931 1_556 S
C167 C166 1.381 . S
C167 C168 1.321 . S
C168 C167 1.321 . S
C168 C169 1.403 . S
C168 H194 0.934 . S
C169 C164 1.413 . S
C169 C168 1.403 . S
C169 H195 0.930 . S
C170 O184 1.275 . S
C170 O185 1.256 . S
C171 O186 1.259 . S
C171 O187 1.268 1_554 S
C172 Ho161 2.811 . S
C172 C173 1.488 . S
C172 O188 1.215 . S
C172 O189 1.289 1_554 S
C173 C172 1.488 . S
C173 C174 1.348 . S
C173 C178 1.413 . S
C174 C173 1.348 . S
C174 C175 1.442 . S
C174 H196 0.930 1_554 S
C175 C174 1.442 . S
C175 C176 1.381 . S
C175 H197 0.931 1_554 S
C176 C175 1.381 . S
C176 C177 1.321 . S
C177 C176 1.321 . S
C177 C178 1.403 . S
C177 H198 0.934 . S
C178 C173 1.413 . S
C178 C177 1.403 . S
C178 H199 0.930 . S
C179 O190 1.275 . S
C179 O191 1.256 . S
O180 Ho160 2.322 . S
O180 C162 1.259 . S
O181 Ho161 2.346 . S
O181 C162 1.268 1_554 S
O182 Ho160 2.378 . S
O182 C163 1.215 . S
O183 Ho160 2.524 1_554 S
O183 C163 1.289 1_554 S
O184 Ho160 2.381 . S
O184 C170 1.275 . S
O185 Ho160 2.669 . S
O185 Ho161 2.305 1_556 S
O185 C170 1.256 . S
O186 Ho161 2.322 . S
O186 C171 1.259 . S
O187 Ho160 2.346 . S
O187 C171 1.268 1_556 S
O188 Ho161 2.378 . S
O188 C172 1.215 . S
O189 Ho161 2.524 1_556 S
O189 C172 1.289 1_556 S
O190 Ho161 2.381 . S
O190 C179 1.275 . S
O191 Ho160 2.305 1_554 S
O191 Ho161 2.669 . S
O191 C179 1.256 . S
H192 C165 0.930 1_554 S
H193 C166 0.931 1_554 S
H194 C168 0.934 . S
H195 C169 0.930 . S
H196 C174 0.930 1_556 S
H197 C175 0.931 1_556 S
H198 C177 0.934 . S
H199 C178 0.930 . S
Ho200 C203 2.811 1_556 S
Ho200 O220 2.322 . S
Ho200 O222 2.378 . S
Ho200 O223 2.524 1_556 S
Ho200 O224 2.381 . S
Ho200 O225 2.669 . S
Ho200 O227 2.346 . S
Ho200 O231 2.305 1_556 S
Ho201 C212 2.811 1_554 S
Ho201 O221 2.346 . S
Ho201 O225 2.305 1_554 S
Ho201 O226 2.322 . S
Ho201 O228 2.378 . S
Ho201 O229 2.524 1_554 S
Ho201 O230 2.381 . S
Ho201 O231 2.669 . S
C202 O220 1.259 1_554 S
C202 O221 1.268 . S
C203 Ho200 2.811 1_554 S
C203 C204 1.488 . S
C203 O222 1.215 1_554 S
C203 O223 1.289 . S
C204 C203 1.488 . S
C204 C205 1.348 . S
C204 C209 1.413 1_544 S
C205 C204 1.348 . S
C205 C206 1.442 1_545 S
C205 H232 0.930 . S
C206 C205 1.442 1_565 S
C206 C207 1.381 . S
C206 H233 0.931 1_565 S
C207 C206 1.381 . S
C207 C208 1.321 1_554 S
C208 C207 1.321 1_556 S
C208 C209 1.403 . S
C208 H234 0.934 . S
C209 C204 1.413 1_566 S
C209 C208 1.403 . S
C209 H235 0.930 . S
C210 O224 1.275 . S
C210 O225 1.256 . S
C211 O226 1.259 1_556 S
C211 O227 1.268 . S
C212 Ho201 2.811 1_556 S
C212 C213 1.488 . S
C212 O228 1.215 1_556 S
C212 O229 1.289 . S
C213 C212 1.488 . S
C213 C214 1.348 . S
C213 C218 1.413 1_556 S
C214 C213 1.348 . S
C214 C215 1.442 . S
C214 H236 0.930 . S
C215 C214 1.442 . S
C215 C216 1.381 . S
C215 H237 0.931 . S
C216 C215 1.381 . S
C216 C217 1.321 1_556 S
C217 C216 1.321 1_554 S
C217 C218 1.403 . S
C217 H238 0.934 . S
C218 C213 1.413 1_554 S
C218 C217 1.403 . S
C218 H239 0.930 . S
C219 O230 1.275 . S
C219 O231 1.256 . S
O220 Ho200 2.322 . S
O220 C202 1.259 1_556 S
O221 Ho201 2.346 . S
O221 C202 1.268 . S
O222 Ho200 2.378 . S
O222 C203 1.215 1_556 S
O223 Ho200 2.524 1_554 S
O223 C203 1.289 . S
O224 Ho200 2.381 . S
O224 C210 1.275 . S
O225 Ho200 2.669 . S
O225 Ho201 2.305 1_556 S
O225 C210 1.256 . S
O226 Ho201 2.322 . S
O226 C211 1.259 1_554 S
O227 Ho200 2.346 . S
O227 C211 1.268 . S
O228 Ho201 2.378 . S
O228 C212 1.215 1_554 S
O229 Ho201 2.524 1_556 S
O229 C212 1.289 . S
O230 Ho201 2.381 . S
O230 C219 1.275 . S
O231 Ho200 2.305 1_554 S
O231 Ho201 2.669 . S
O231 C219 1.256 . S
H232 C205 0.930 . S
H233 C206 0.931 1_545 S
H234 C208 0.934 . S
H235 C209 0.930 . S
H236 C214 0.930 . S
H237 C215 0.931 . S
H238 C217 0.934 . S
H239 C218 0.930 . S
H240 C252 0.930 . S
H241 C254 0.930 . S
H242 C255 0.930 . S
H243 C259 0.959 . S
H244 C259 0.959 . S
H245 C259 0.961 . S
H246 C260 0.960 . S
H247 C260 0.961 . S
H248 C260 0.959 . S
H249 C263 0.929 . S
H250 C264 0.931 . S
H251 C266 0.930 . S
C252 H240 0.930 . S
C252 C253 1.399 . S
C252 C257 1.399 . S
C253 C252 1.399 . S
C253 C254 1.376 . S
C254 H241 0.930 . S
C254 C253 1.376 . S
C254 C255 1.388 . S
C255 H242 0.930 . S
C255 C254 1.388 . S
C255 C256 1.390 . S
C256 C255 1.390 . S
C256 C257 1.394 . S
C256 C262 1.465 . S
C257 C252 1.399 . S
C257 C256 1.394 . S
C257 C258 1.516 . S
C258 C257 1.516 . S
C258 C259 1.502 . S
C258 C260 1.561 . S
C258 C261 1.526 . S
C259 H243 0.959 . S
C259 H244 0.959 . S
C259 H245 0.961 . S
C259 C258 1.502 . S
C260 H246 0.960 . S
C260 H247 0.961 . S
C260 H248 0.959 . S
C260 C258 1.561 . S
C261 C258 1.526 . S
C261 C262 1.396 . S
C261 C266 1.390 . S
C262 C256 1.465 . S
C262 C261 1.396 . S
C262 C263 1.399 . S
C263 H249 0.929 . S
C263 C262 1.399 . S
C263 C264 1.385 . S
C264 H250 0.931 . S
C264 C263 1.385 . S
C264 C265 1.389 . S
C265 C264 1.389 . S
C265 C266 1.387 . S
C266 H251 0.930 . S
C266 C261 1.390 . S
C266 C265 1.387 . S
H267 C279 0.930 . S
H268 C281 0.930 . S
H269 C282 0.930 . S
H270 C286 0.959 . S
H271 C286 0.959 . S
H272 C286 0.961 . S
H273 C287 0.960 . S
H274 C287 0.961 . S
H275 C287 0.959 . S
H276 C290 0.929 . S
H277 C291 0.931 . S
H278 C293 0.930 . S
C279 H267 0.930 . S
C279 C280 1.399 . S
C279 C284 1.399 . S
C280 C279 1.399 . S
C280 C281 1.376 . S
C281 H268 0.930 . S
C281 C280 1.376 . S
C281 C282 1.388 . S
C282 H269 0.930 . S
C282 C281 1.388 . S
C282 C283 1.390 . S
C283 C282 1.390 . S
C283 C284 1.394 . S
C283 C289 1.465 . S
C284 C279 1.399 . S
C284 C283 1.394 . S
C284 C285 1.516 . S
C285 C284 1.516 . S
C285 C286 1.502 . S
C285 C287 1.561 . S
C285 C288 1.526 . S
C286 H270 0.959 . S
C286 H271 0.959 . S
C286 H272 0.961 . S
C286 C285 1.502 . S
C287 H273 0.960 . S
C287 H274 0.961 . S
C287 H275 0.959 . S
C287 C285 1.561 . S
C288 C285 1.526 . S
C288 C289 1.396 . S
C288 C293 1.390 . S
C289 C283 1.465 . S
C289 C288 1.396 . S
C289 C290 1.399 . S
C290 H276 0.929 . S
C290 C289 1.399 . S
C290 C291 1.385 . S
C291 H277 0.931 . S
C291 C290 1.385 . S
C291 C292 1.389 . S
C292 C291 1.389 . S
C292 C293 1.387 . S
C293 H278 0.930 . S
C293 C288 1.390 . S
C293 C292 1.387 . S
H294 C306 0.930 . S
H295 C308 0.930 . S
H296 C309 0.930 . S
H297 C313 0.959 . S
H298 C313 0.959 . S
H299 C313 0.961 . S
H300 C314 0.960 . S
H301 C314 0.961 . S
H302 C314 0.959 . S
H303 C317 0.929 . S
H304 C318 0.931 . S
H305 C320 0.930 . S
C306 H294 0.930 . S
C306 C307 1.399 . S
C306 C311 1.399 . S
C307 C306 1.399 . S
C307 C308 1.376 . S
C308 H295 0.930 . S
C308 C307 1.376 . S
C308 C309 1.388 . S
C309 H296 0.930 . S
C309 C308 1.388 . S
C309 C310 1.390 . S
C310 C309 1.390 . S
C310 C311 1.394 . S
C310 C316 1.465 . S
C311 C306 1.399 . S
C311 C310 1.394 . S
C311 C312 1.516 1_545 S
C312 C311 1.516 1_565 S
C312 C313 1.502 . S
C312 C314 1.561 1_565 S
C312 C315 1.526 . S
C313 H297 0.959 . S
C313 H298 0.959 . S
C313 H299 0.961 . S
C313 C312 1.502 . S
C314 H300 0.960 . S
C314 H301 0.961 . S
C314 H302 0.959 . S
C314 C312 1.561 1_545 S
C315 C312 1.526 . S
C315 C316 1.396 1_565 S
C315 C320 1.390 . S
C316 C310 1.465 . S
C316 C315 1.396 1_545 S
C316 C317 1.399 . S
C317 H303 0.929 . S
C317 C316 1.399 . S
C317 C318 1.385 1_545 S
C318 H304 0.931 . S
C318 C317 1.385 1_565 S
C318 C319 1.389 . S
C319 C318 1.389 . S
C319 C320 1.387 . S
C320 H305 0.930 . S
C320 C315 1.390 . S
C320 C319 1.387 . S
H321 C333 0.930 . S
H322 C335 0.930 . S
H323 C336 0.930 . S
H324 C340 0.959 . S
H325 C340 0.959 . S
H326 C340 0.961 . S
H327 C341 0.960 . S
H328 C341 0.961 . S
H329 C341 0.959 . S
H330 C344 0.929 . S
H331 C345 0.931 . S
H332 C347 0.930 . S
C333 H321 0.930 . S
C333 C334 1.399 . S
C333 C338 1.399 . S
C334 C333 1.399 . S
C334 C335 1.376 . S
C335 H322 0.930 . S
C335 C334 1.376 . S
C335 C336 1.388 . S
C336 H323 0.930 . S
C336 C335 1.388 . S
C336 C337 1.390 . S
C337 C336 1.390 . S
C337 C338 1.394 . S
C337 C343 1.465 . S
C338 C333 1.399 . S
C338 C337 1.394 . S
C338 C339 1.516 . S
C339 C338 1.516 . S
C339 C340 1.502 . S
C339 C341 1.561 . S
C339 C342 1.526 . S
C340 H324 0.959 . S
C340 H325 0.959 . S
C340 H326 0.961 . S
C340 C339 1.502 . S
C341 H327 0.960 . S
C341 H328 0.961 . S
C341 H329 0.959 . S
C341 C339 1.561 . S
C342 C339 1.526 . S
C342 C343 1.396 . S
C342 C347 1.390 . S
C343 C337 1.465 . S
C343 C342 1.396 . S
C343 C344 1.399 . S
C344 H330 0.929 . S
C344 C343 1.399 . S
C344 C345 1.385 . S
C345 H331 0.931 . S
C345 C344 1.385 . S
C345 C346 1.389 . S
C346 C345 1.389 . S
C346 C347 1.387 . S
C347 H332 0.930 . S
C347 C342 1.390 . S
C347 C346 1.387 . S
H348 C360 0.930 . S
H349 C362 0.930 . S
H350 C363 0.930 . S
H351 C367 0.959 . S
H352 C367 0.959 . S
H353 C367 0.961 . S
H354 C368 0.960 . S
H355 C368 0.961 . S
H356 C368 0.959 . S
H357 C371 0.929 . S
H358 C372 0.931 . S
H359 C374 0.930 . S
C360 H348 0.930 . S
C360 C361 1.399 . S
C360 C365 1.399 . S
C361 C360 1.399 . S
C361 C362 1.376 . S
C362 H349 0.930 . S
C362 C361 1.376 . S
C362 C363 1.388 . S
C363 H350 0.930 . S
C363 C362 1.388 . S
C363 C364 1.390 1_455 S
C364 C363 1.390 1_655 S
C364 C365 1.394 1_655 S
C364 C370 1.465 . S
C365 C360 1.399 . S
C365 C364 1.394 1_455 S
C365 C366 1.516 1_455 S
C366 C365 1.516 1_655 S
C366 C367 1.502 . S
C366 C368 1.561 1_655 S
C366 C369 1.526 . S
C367 H351 0.959 . S
C367 H352 0.959 . S
C367 H353 0.961 . S
C367 C366 1.502 . S
C368 H354 0.960 . S
C368 H355 0.961 . S
C368 H356 0.959 . S
C368 C366 1.561 1_455 S
C369 C366 1.526 . S
C369 C370 1.396 . S
C369 C374 1.390 . S
C370 C364 1.465 . S
C370 C369 1.396 . S
C370 C371 1.399 . S
C371 H357 0.929 . S
C371 C370 1.399 . S
C371 C372 1.385 . S
C372 H358 0.931 . S
C372 C371 1.385 . S
C372 C373 1.389 . S
C373 C372 1.389 . S
C373 C374 1.387 . S
C374 H359 0.930 . S
C374 C369 1.390 . S
C374 C373 1.387 . S
H375 C387 0.930 . S
H376 C389 0.930 . S
H377 C390 0.930 . S
H378 C394 0.959 . S
H379 C394 0.959 . S
H380 C394 0.961 . S
H381 C395 0.960 . S
H382 C395 0.961 . S
H383 C395 0.959 . S
H384 C398 0.929 . S
H385 C399 0.931 . S
H386 C401 0.930 . S
C387 H375 0.930 . S
C387 C388 1.399 . S
C387 C392 1.399 . S
C388 C387 1.399 . S
C388 C389 1.376 . S
C389 H376 0.930 . S
C389 C388 1.376 . S
C389 C390 1.388 . S
C390 H377 0.930 . S
C390 C389 1.388 . S
C390 C391 1.390 . S
C391 C390 1.390 . S
C391 C392 1.394 . S
C391 C397 1.465 . S
C392 C387 1.399 . S
C392 C391 1.394 . S
C392 C393 1.516 . S
C393 C392 1.516 . S
C393 C394 1.502 . S
C393 C395 1.561 1_565 S
C393 C396 1.526 . S
C394 H378 0.959 . S
C394 H379 0.959 . S
C394 H380 0.961 . S
C394 C393 1.502 . S
C395 H381 0.960 . S
C395 H382 0.961 . S
C395 H383 0.959 . S
C395 C393 1.561 1_545 S
C396 C393 1.526 . S
C396 C397 1.396 . S
C396 C401 1.390 . S
C397 C391 1.465 . S
C397 C396 1.396 . S
C397 C398 1.399 . S
C398 H384 0.929 . S
C398 C397 1.399 . S
C398 C399 1.385 . S
C399 H385 0.931 . S
C399 C398 1.385 . S
C399 C400 1.389 . S
C400 C399 1.389 . S
C400 C401 1.387 . S
C401 H386 0.930 . S
C401 C396 1.390 . S
C401 C400 1.387 . S
H402 C414 0.930 . S
H403 C416 0.930 . S
H404 C417 0.930 . S
H405 C421 0.959 . S
H406 C421 0.959 . S
H407 C421 0.961 . S
H408 C422 0.960 . S
H409 C422 0.961 . S
H410 C422 0.959 . S
H411 C425 0.929 . S
H412 C426 0.931 . S
H413 C428 0.930 . S
C414 H402 0.930 . S
C414 C415 1.399 1_556 S
C414 C419 1.399 . S
C415 C414 1.399 1_554 S
C415 C416 1.376 . S
C416 H403 0.930 . S
C416 C415 1.376 . S
C416 C417 1.388 . S
C417 H404 0.930 . S
C417 C416 1.388 . S
C417 C418 1.390 . S
C418 C417 1.390 . S
C418 C419 1.394 1_554 S
C418 C424 1.465 . S
C419 C414 1.399 . S
C419 C418 1.394 1_556 S
C419 C420 1.516 . S
C420 C419 1.516 . S
C420 C421 1.502 . S
C420 C422 1.561 . S
C420 C423 1.526 1_556 S
C421 H405 0.959 . S
C421 H406 0.959 . S
C421 H407 0.961 . S
C421 C420 1.502 . S
C422 H408 0.960 . S
C422 H409 0.961 . S
C422 H410 0.959 . S
C422 C420 1.561 . S
C423 C420 1.526 1_554 S
C423 C424 1.396 . S
C423 C428 1.390 1_554 S
C424 C418 1.465 . S
C424 C423 1.396 . S
C424 C425 1.399 . S
C425 H411 0.929 . S
C425 C424 1.399 . S
C425 C426 1.385 . S
C426 H412 0.931 . S
C426 C425 1.385 . S
C426 C427 1.389 . S
C427 C426 1.389 . S
C427 C428 1.387 1_554 S
C428 H413 0.930 . S
C428 C423 1.390 1_556 S
C428 C427 1.387 1_556 S
H429 C441 0.930 . S
H430 C443 0.930 . S
H431 C444 0.930 . S
H432 C448 0.959 . S
H433 C448 0.959 . S
H434 C448 0.961 . S
H435 C449 0.960 . S
H436 C449 0.961 . S
H437 C449 0.959 . S
H438 C452 0.929 . S
H439 C453 0.931 . S
H440 C455 0.930 . S
C441 H429 0.930 . S
C441 C442 1.399 . S
C441 C446 1.399 . S
C442 C441 1.399 . S
C442 C443 1.376 . S
C443 H430 0.930 . S
C443 C442 1.376 . S
C443 C444 1.388 . S
C444 H431 0.930 . S
C444 C443 1.388 . S
C444 C445 1.390 . S
C445 C444 1.390 . S
C445 C446 1.394 . S
C445 C451 1.465 . S
C446 C441 1.399 . S
C446 C445 1.394 . S
C446 C447 1.516 . S
C447 C446 1.516 . S
C447 C448 1.502 . S
C447 C449 1.561 1_556 S
C447 C450 1.526 . S
C448 H432 0.959 . S
C448 H433 0.959 . S
C448 H434 0.961 . S
C448 C447 1.502 . S
C449 H435 0.960 . S
C449 H436 0.961 . S
C449 H437 0.959 . S
C449 C447 1.561 1_554 S
C450 C447 1.526 . S
C450 C451 1.396 . S
C450 C455 1.390 . S
C451 C445 1.465 . S
C451 C450 1.396 . S
C451 C452 1.399 . S
C452 H438 0.929 . S
C452 C451 1.399 . S
C452 C453 1.385 . S
C453 H439 0.931 . S
C453 C452 1.385 . S
C453 C454 1.389 . S
C454 C453 1.389 . S
C454 C455 1.387 . S
C455 H440 0.930 . S
C455 C450 1.390 . S
C455 C454 1.387 . S
H456 C468 0.930 . S
H457 C470 0.930 . S
H458 C471 0.930 . S
H459 C475 0.959 . S
H460 C475 0.959 . S
H461 C475 0.961 . S
H462 C476 0.960 . S
H463 C476 0.961 . S
H464 C476 0.959 . S
H465 C479 0.929 . S
H466 C480 0.931 . S
H467 C482 0.930 . S
C468 H456 0.930 . S
C468 C469 1.399 . S
C468 C473 1.399 . S
C469 C468 1.399 . S
C469 C470 1.376 1_554 S
C470 H457 0.930 . S
C470 C469 1.376 1_556 S
C470 C471 1.388 . S
C471 H458 0.930 . S
C471 C470 1.388 . S
C471 C472 1.390 . S
C472 C471 1.390 . S
C472 C473 1.394 1_556 S
C472 C478 1.465 . S
C473 C468 1.399 . S
C473 C472 1.394 1_554 S
C473 C474 1.516 . S
C474 C473 1.516 . S
C474 C475 1.502 . S
C474 C476 1.561 . S
C474 C477 1.526 . S
C475 H459 0.959 . S
C475 H460 0.959 . S
C475 H461 0.961 . S
C475 C474 1.502 . S
C476 H462 0.960 . S
C476 H463 0.961 . S
C476 H464 0.959 . S
C476 C474 1.561 . S
C477 C474 1.526 . S
C477 C478 1.396 1_554 S
C477 C482 1.390 . S
C478 C472 1.465 . S
C478 C477 1.396 1_556 S
C478 C479 1.399 . S
C479 H465 0.929 . S
C479 C478 1.399 . S
C479 C480 1.385 . S
C480 H466 0.931 . S
C480 C479 1.385 . S
C480 C481 1.389 1_556 S
C481 C480 1.389 1_554 S
C481 C482 1.387 . S
C482 H467 0.930 . S
C482 C477 1.390 . S
C482 C481 1.387 . S
H483 C495 0.930 . S
H484 C497 0.930 . S
H485 C498 0.930 . S
H486 C502 0.959 1_556 S
H487 C502 0.959 . S
H488 C502 0.961 . S
H489 C503 0.960 . S
H490 C503 0.961 . S
H491 C503 0.959 . S
H492 C506 0.929 . S
H493 C507 0.931 . S
H494 C509 0.930 . S
C495 H483 0.930 . S
C495 C496 1.399 . S
C495 C500 1.399 . S
C496 C495 1.399 . S
C496 C497 1.376 . S
C497 H484 0.930 . S
C497 C496 1.376 . S
C497 C498 1.388 . S
C498 H485 0.930 . S
C498 C497 1.388 . S
C498 C499 1.390 . S
C499 C498 1.390 . S
C499 C500 1.394 . S
C499 C505 1.465 . S
C500 C495 1.399 . S
C500 C499 1.394 . S
C500 C501 1.516 1_556 S
C501 C500 1.516 1_554 S
C501 C502 1.502 . S
C501 C503 1.561 . S
C501 C504 1.526 1_554 S
C502 H486 0.959 1_554 S
C502 H487 0.959 . S
C502 H488 0.961 . S
C502 C501 1.502 . S
C503 H489 0.960 . S
C503 H490 0.961 . S
C503 H491 0.959 . S
C503 C501 1.561 . S
C504 C501 1.526 1_556 S
C504 C505 1.396 . S
C504 C509 1.390 1_556 S
C505 C499 1.465 . S
C505 C504 1.396 . S
C505 C506 1.399 . S
C506 H492 0.929 . S
C506 C505 1.399 . S
C506 C507 1.385 . S
C507 H493 0.931 . S
C507 C506 1.385 . S
C507 C508 1.389 . S
C508 C507 1.389 . S
C508 C509 1.387 1_556 S
C509 H494 0.930 . S
C509 C504 1.390 1_554 S
C509 C508 1.387 1_554 S
H510 C522 0.930 . S
H511 C524 0.930 . S
H512 C525 0.930 . S
H513 C529 0.959 . S
H514 C529 0.959 . S
H515 C529 0.961 . S
H516 C530 0.960 . S
H517 C530 0.961 . S
H518 C530 0.959 . S
H519 C533 0.929 . S
H520 C534 0.931 . S
H521 C536 0.930 . S
C522 H510 0.930 . S
C522 C523 1.399 . S
C522 C527 1.399 . S
C523 C522 1.399 . S
C523 C524 1.376 . S
C524 H511 0.930 . S
C524 C523 1.376 . S
C524 C525 1.388 . S
C525 H512 0.930 . S
C525 C524 1.388 . S
C525 C526 1.390 . S
C526 C525 1.390 . S
C526 C527 1.394 . S
C526 C532 1.465 . S
C527 C522 1.399 . S
C527 C526 1.394 . S
C527 C528 1.516 . S
C528 C527 1.516 . S
C528 C529 1.502 . S
C528 C530 1.561 . S
C528 C531 1.526 . S
C529 H513 0.959 . S
C529 H514 0.959 . S
C529 H515 0.961 . S
C529 C528 1.502 . S
C530 H516 0.960 . S
C530 H517 0.961 . S
C530 H518 0.959 . S
C530 C528 1.561 . S
C531 C528 1.526 . S
C531 C532 1.396 . S
C531 C536 1.390 . S
C532 C526 1.465 . S
C532 C531 1.396 . S
C532 C533 1.399 . S
C533 H519 0.929 . S
C533 C532 1.399 . S
C533 C534 1.385 . S
C534 H520 0.931 . S
C534 C533 1.385 . S
C534 C535 1.389 . S
C535 C534 1.389 . S
C535 C536 1.387 . S
C536 H521 0.930 . S
C536 C531 1.390 . S
C536 C535 1.387 . S
H537 C549 0.930 . S
H538 C551 0.930 . S
H539 C552 0.930 . S
H540 C556 0.959 . S
H541 C556 0.959 . S
H542 C556 0.961 . S
H543 C557 0.960 . S
H544 C557 0.961 . S
H545 C557 0.959 . S
H546 C560 0.929 . S
H547 C561 0.931 . S
H548 C563 0.930 . S
C549 H537 0.930 . S
C549 C550 1.399 . S
C549 C554 1.399 . S
C550 C549 1.399 . S
C550 C551 1.376 1_556 S
C551 H538 0.930 . S
C551 C550 1.376 1_554 S
C551 C552 1.388 . S
C552 H539 0.930 . S
C552 C551 1.388 . S
C552 C553 1.390 1_554 S
C553 C552 1.390 1_556 S
C553 C554 1.394 . S
C553 C559 1.465 . S
C554 C549 1.399 . S
C554 C553 1.394 . S
C554 C555 1.516 . S
C555 C554 1.516 . S
C555 C556 1.502 . S
C555 C557 1.561 . S
C555 C558 1.526 . S
C556 H540 0.959 . S
C556 H541 0.959 . S
C556 H542 0.961 . S
C556 C555 1.502 . S
C557 H543 0.960 . S
C557 H544 0.961 . S
C557 H545 0.959 . S
C557 C555 1.561 . S
C558 C555 1.526 . S
C558 C559 1.396 . S
C558 C563 1.390 . S
C559 C553 1.465 . S
C559 C558 1.396 . S
C559 C560 1.399 1_556 S
C560 H546 0.929 . S
C560 C559 1.399 1_554 S
C560 C561 1.385 . S
C561 H547 0.931 . S
C561 C560 1.385 . S
C561 C562 1.389 1_554 S
C562 C561 1.389 1_556 S
C562 C563 1.387 . S
C563 H548 0.930 . S
C563 C558 1.390 . S
C563 C562 1.387 . S
H564 C576 0.930 . S
H565 C578 0.930 . S
H566 C579 0.930 . S
H567 C583 0.959 . S
H568 C583 0.959 . S
H569 C583 0.961 . S
H570 C584 0.960 . S
H571 C584 0.961 . S
H572 C584 0.959 . S
H573 C587 0.929 . S
H574 C588 0.931 . S
H575 C590 0.930 . S
C576 H564 0.930 . S
C576 C577 1.399 . S
C576 C581 1.399 . S
C577 C576 1.399 . S
C577 C578 1.376 . S
C578 H565 0.930 . S
C578 C577 1.376 . S
C578 C579 1.388 . S
C579 H566 0.930 . S
C579 C578 1.388 . S
C579 C580 1.390 . S
C580 C579 1.390 . S
C580 C581 1.394 . S
C580 C586 1.465 . S
C581 C576 1.399 . S
C581 C580 1.394 . S
C581 C582 1.516 . S
C582 C581 1.516 . S
C582 C583 1.502 . S
C582 C584 1.561 . S
C582 C585 1.526 . S
C583 H567 0.959 . S
C583 H568 0.959 . S
C583 H569 0.961 . S
C583 C582 1.502 . S
C584 H570 0.960 . S
C584 H571 0.961 . S
C584 H572 0.959 . S
C584 C582 1.561 . S
C585 C582 1.526 . S
C585 C586 1.396 . S
C585 C590 1.390 . S
C586 C580 1.465 . S
C586 C585 1.396 . S
C586 C587 1.399 . S
C587 H573 0.929 . S
C587 C586 1.399 . S
C587 C588 1.385 . S
C588 H574 0.931 . S
C588 C587 1.385 . S
C588 C589 1.389 . S
C589 C588 1.389 . S
C589 C590 1.387 . S
C590 H575 0.930 . S
C590 C585 1.390 . S
C590 C589 1.387 . S
H591 C603 0.930 . S
H592 C605 0.930 . S
H593 C606 0.930 . S
H594 C610 0.959 . S
H595 C610 0.959 . S
H596 C610 0.961 . S
H597 C611 0.960 . S
H598 C611 0.961 . S
H599 C611 0.959 . S
H600 C614 0.929 . S
H601 C615 0.931 . S
H602 C617 0.930 . S
C603 H591 0.930 . S
C603 C604 1.399 . S
C603 C608 1.399 . S
C604 C603 1.399 . S
C604 C605 1.376 . S
C605 H592 0.930 . S
C605 C604 1.376 . S
C605 C606 1.388 . S
C606 H593 0.930 . S
C606 C605 1.388 . S
C606 C607 1.390 . S
C607 C606 1.390 . S
C607 C608 1.394 . S
C607 C613 1.465 . S
C608 C603 1.399 . S
C608 C607 1.394 . S
C608 C609 1.516 . S
C609 C608 1.516 . S
C609 C610 1.502 . S
C609 C611 1.561 . S
C609 C612 1.526 . S
C610 H594 0.959 . S
C610 H595 0.959 . S
C610 H596 0.961 . S
C610 C609 1.502 . S
C611 H597 0.960 . S
C611 H598 0.961 . S
C611 H599 0.959 . S
C611 C609 1.561 . S
C612 C609 1.526 . S
C612 C613 1.396 . S
C612 C617 1.390 . S
C613 C607 1.465 . S
C613 C612 1.396 . S
C613 C614 1.399 . S
C614 H600 0.929 . S
C614 C613 1.399 . S
C614 C615 1.385 . S
C615 H601 0.931 . S
C615 C614 1.385 . S
C615 C616 1.389 . S
C616 C615 1.389 . S
C616 C617 1.387 . S
C617 H602 0.930 . S
C617 C612 1.390 . S
C617 C616 1.387 . S
H618 C630 0.930 . S
H619 C632 0.930 . S
H620 C633 0.930 . S
H621 C637 0.959 . S
H622 C637 0.959 . S
H623 C637 0.961 . S
H624 C638 0.960 . S
H625 C638 0.961 . S
H626 C638 0.959 . S
H627 C641 0.929 . S
H628 C642 0.931 . S
H629 C644 0.930 . S
C630 H618 0.930 . S
C630 C631 1.399 . S
C630 C635 1.399 . S
C631 C630 1.399 . S
C631 C632 1.376 . S
C632 H619 0.930 . S
C632 C631 1.376 . S
C632 C633 1.388 . S
C633 H620 0.930 . S
C633 C632 1.388 . S
C633 C634 1.390 . S
C634 C633 1.390 . S
C634 C635 1.394 . S
C634 C640 1.465 . S
C635 C630 1.399 . S
C635 C634 1.394 . S
C635 C636 1.516 . S
C636 C635 1.516 . S
C636 C637 1.502 . S
C636 C638 1.561 . S
C636 C639 1.526 . S
C637 H621 0.959 . S
C637 H622 0.959 . S
C637 H623 0.961 . S
C637 C636 1.502 . S
C638 H624 0.960 . S
C638 H625 0.961 . S
C638 H626 0.959 . S
C638 C636 1.561 . S
C639 C636 1.526 . S
C639 C640 1.396 . S
C639 C644 1.390 . S
C640 C634 1.465 . S
C640 C639 1.396 . S
C640 C641 1.399 . S
C641 H627 0.929 . S
C641 C640 1.399 . S
C641 C642 1.385 . S
C642 H628 0.931 . S
C642 C641 1.385 . S
C642 C643 1.389 . S
C643 C642 1.389 . S
C643 C644 1.387 . S
C644 H629 0.930 . S
C644 C639 1.390 . S
C644 C643 1.387 . S
H645 C657 0.930 . S
H646 C659 0.930 . S
H647 C660 0.930 . S
H648 C664 0.959 . S
H649 C664 0.959 . S
H650 C664 0.961 . S
H651 C665 0.960 . S
H652 C665 0.961 . S
H653 C665 0.959 . S
H654 C668 0.929 . S
H655 C669 0.931 . S
H656 C671 0.930 . S
C657 H645 0.930 . S
C657 C658 1.399 . S
C657 C662 1.399 . S
C658 C657 1.399 . S
C658 C659 1.376 . S
C659 H646 0.930 . S
C659 C658 1.376 . S
C659 C660 1.388 . S
C660 H647 0.930 . S
C660 C659 1.388 . S
C660 C661 1.390 . S
C661 C660 1.390 . S
C661 C662 1.394 . S
C661 C667 1.465 . S
C662 C657 1.399 . S
C662 C661 1.394 . S
C662 C663 1.516 . S
C663 C662 1.516 . S
C663 C664 1.502 . S
C663 C665 1.561 . S
C663 C666 1.526 . S
C664 H648 0.959 . S
C664 H649 0.959 . S
C664 H650 0.961 . S
C664 C663 1.502 . S
C665 H651 0.960 . S
C665 H652 0.961 . S
C665 H653 0.959 . S
C665 C663 1.561 . S
C666 C663 1.526 . S
C666 C667 1.396 . S
C666 C671 1.390 . S
C667 C661 1.465 . S
C667 C666 1.396 . S
C667 C668 1.399 . S
C668 H654 0.929 . S
C668 C667 1.399 . S
C668 C669 1.385 . S
C669 H655 0.931 . S
C669 C668 1.385 . S
C669 C670 1.389 . S
C670 C669 1.389 . S
C670 C671 1.387 . S
C671 H656 0.930 . S
C671 C666 1.390 . S
C671 C670 1.387 . S
H672 C684 0.930 . S
H673 C686 0.930 . S
H674 C687 0.930 . S
H675 C691 0.959 . S
H676 C691 0.959 . S
H677 C691 0.961 . S
H678 C692 0.960 . S
H679 C692 0.961 . S
H680 C692 0.959 . S
H681 C695 0.929 . S
H682 C696 0.931 . S
H683 C698 0.930 . S
C684 H672 0.930 . S
C684 C685 1.399 . S
C684 C689 1.399 . S
C685 C684 1.399 . S
C685 C686 1.376 . S
C686 H673 0.930 . S
C686 C685 1.376 . S
C686 C687 1.388 . S
C687 H674 0.930 . S
C687 C686 1.388 . S
C687 C688 1.390 . S
C688 C687 1.390 . S
C688 C689 1.394 . S
C688 C694 1.465 . S
C689 C684 1.399 . S
C689 C688 1.394 . S
C689 C690 1.516 . S
C690 C689 1.516 . S
C690 C691 1.502 . S
C690 C692 1.561 . S
C690 C693 1.526 . S
C691 H675 0.959 . S
C691 H676 0.959 . S
C691 H677 0.961 . S
C691 C690 1.502 . S
C692 H678 0.960 . S
C692 H679 0.961 . S
C692 H680 0.959 . S
C692 C690 1.561 . S
C693 C690 1.526 . S
C693 C694 1.396 . S
C693 C698 1.390 . S
C694 C688 1.465 . S
C694 C693 1.396 . S
C694 C695 1.399 . S
C695 H681 0.929 . S
C695 C694 1.399 . S
C695 C696 1.385 . S
C696 H682 0.931 . S
C696 C695 1.385 . S
C696 C697 1.389 . S
C697 C696 1.389 . S
C697 C698 1.387 . S
C698 H683 0.930 . S
C698 C693 1.390 . S
C698 C697 1.387 . S
H699 C711 0.930 . S
H700 C713 0.930 . S
H701 C714 0.930 . S
H702 C718 0.959 . S
H703 C718 0.959 . S
H704 C718 0.961 . S
H705 C719 0.960 . S
H706 C719 0.961 . S
H707 C719 0.959 . S
H708 C722 0.929 . S
H709 C723 0.931 . S
H710 C725 0.930 . S
C711 H699 0.930 . S
C711 C712 1.399 . S
C711 C716 1.399 . S
C712 C711 1.399 . S
C712 C713 1.376 . S
C713 H700 0.930 . S
C713 C712 1.376 . S
C713 C714 1.388 . S
C714 H701 0.930 . S
C714 C713 1.388 . S
C714 C715 1.390 . S
C715 C714 1.390 . S
C715 C716 1.394 . S
C715 C721 1.465 . S
C716 C711 1.399 . S
C716 C715 1.394 . S
C716 C717 1.516 . S
C717 C716 1.516 . S
C717 C718 1.502 . S
C717 C719 1.561 . S
C717 C720 1.526 . S
C718 H702 0.959 . S
C718 H703 0.959 . S
C718 H704 0.961 . S
C718 C717 1.502 . S
C719 H705 0.960 . S
C719 H706 0.961 . S
C719 H707 0.959 . S
C719 C717 1.561 . S
C720 C717 1.526 . S
C720 C721 1.396 . S
C720 C725 1.390 . S
C721 C715 1.465 . S
C721 C720 1.396 . S
C721 C722 1.399 . S
C722 H708 0.929 . S
C722 C721 1.399 . S
C722 C723 1.385 . S
C723 H709 0.931 . S
C723 C722 1.385 . S
C723 C724 1.389 . S
C724 C723 1.389 . S
C724 C725 1.387 . S
C725 H710 0.930 . S
C725 C720 1.390 . S
C725 C724 1.387 . S
C253 C202 3.705 . S
C265 C7 3.600 . S
C280 C2 3.547 . S
C292 C47 3.335 1_455 S
C307 C42 3.037 . S
C319 C82 3.028 . S
C334 C127 2.352 . S
C346 C87 2.255 . S
C361 C167 2.796 . S
C373 C122 3.234 . S
C388 C162 2.554 . S
C400 C207 2.531 . S
C415 C171 2.462 . S
C427 C16 2.425 . S
C442 C211 3.201 . S
C454 C56 3.195 . S
C469 C91 3.690 . S
C481 C11 3.723 . S
C496 C136 2.016 . S
C508 C51 2.096 1_556 S
C523 C176 0.832 . S
C535 C96 0.847 . S
C550 C131 1.188 . S
C562 C216 1.236 . S
C577 C10 0.624 . S
C589 C19 0.358 . S
C604 C50 0.415 . S
C616 C59 0.622 . S
C631 C99 0.433 . S
C643 C90 0.630 . S
C658 C130 0.484 . S
C670 C139 0.263 . S
C685 C179 0.507 . S
C697 C170 0.709 . S
C712 C210 0.384 . S
C724 C219 0.517 . S
