# Generated by pormake.
# Topology wjp, (5)-cn, num edge types: 1
# Building blocks:
#     Node 0, Type 0, BuildingBlock: BEQFEK_clean_sbu_0, # of connection points: 5
#     Node 1, Type 0, BuildingBlock: BEQFEK_clean_sbu_0, # of connection points: 5
#     Node 2, Type 0, BuildingBlock: BEQFEK_clean_sbu_0, # of connection points: 5
#     Node 3, Type 0, BuildingBlock: BEQFEK_clean_sbu_0, # of connection points: 5
#     Node 4, Type 0, BuildingBlock: BEQFEK_clean_sbu_0, # of connection points: 5
#     Node 5, Type 0, BuildingBlock: BEQFEK_clean_sbu_0, # of connection points: 5
#     Node 6, Type 0, BuildingBlock: BEQFEK_clean_sbu_0, # of connection points: 5
#     Node 7, Type 0, BuildingBlock: BEQFEK_clean_sbu_0, # of connection points: 5
#     Node 8, Type 0, BuildingBlock: BEQFEK_clean_sbu_0, # of connection points: 5
#     Node 9, Type 0, BuildingBlock: BEQFEK_clean_sbu_0, # of connection points: 5
#     Node 10, Type 0, BuildingBlock: BEQFEK_clean_sbu_0, # of connection points: 5
#     Node 11, Type 0, BuildingBlock: BEQFEK_clean_sbu_0, # of connection points: 5
#     Edge 12, Type (0, 0), BuildingBlock: OJICUG_clean_linker_0, # of connection points: 2
#     Edge 13, Type (0, 0), BuildingBlock: OJICUG_clean_linker_0, # of connection points: 2
#     Edge 14, Type (0, 0), BuildingBlock: OJICUG_clean_linker_0, # of connection points: 2
#     Edge 15, Type (0, 0), BuildingBlock: OJICUG_clean_linker_0, # of connection points: 2
#     Edge 16, Type (0, 0), BuildingBlock: OJICUG_clean_linker_0, # of connection points: 2
#     Edge 17, Type (0, 0), BuildingBlock: OJICUG_clean_linker_0, # of connection points: 2
#     Edge 18, Type (0, 0), BuildingBlock: OJICUG_clean_linker_0, # of connection points: 2
#     Edge 19, Type (0, 0), BuildingBlock: OJICUG_clean_linker_0, # of connection points: 2
#     Edge 20, Type (0, 0), BuildingBlock: OJICUG_clean_linker_0, # of connection points: 2
#     Edge 21, Type (0, 0), BuildingBlock: OJICUG_clean_linker_0, # of connection points: 2
#     Edge 22, Type (0, 0), BuildingBlock: OJICUG_clean_linker_0, # of connection points: 2
#     Edge 23, Type (0, 0), BuildingBlock: OJICUG_clean_linker_0, # of connection points: 2
#     Edge 24, Type (0, 0), BuildingBlock: OJICUG_clean_linker_0, # of connection points: 2
#     Edge 25, Type (0, 0), BuildingBlock: OJICUG_clean_linker_0, # of connection points: 2
#     Edge 26, Type (0, 0), BuildingBlock: OJICUG_clean_linker_0, # of connection points: 2
#     Edge 27, Type (0, 0), BuildingBlock: OJICUG_clean_linker_0, # of connection points: 2
#     Edge 28, Type (0, 0), BuildingBlock: OJICUG_clean_linker_0, # of connection points: 2
#     Edge 29, Type (0, 0), BuildingBlock: OJICUG_clean_linker_0, # of connection points: 2
#     Edge 30, Type (0, 0), BuildingBlock: OJICUG_clean_linker_0, # of connection points: 2
#     Edge 31, Type (0, 0), BuildingBlock: OJICUG_clean_linker_0, # of connection points: 2
#     Edge 32, Type (0, 0), BuildingBlock: OJICUG_clean_linker_0, # of connection points: 2
#     Edge 33, Type (0, 0), BuildingBlock: OJICUG_clean_linker_0, # of connection points: 2
#     Edge 34, Type (0, 0), BuildingBlock: OJICUG_clean_linker_0, # of connection points: 2
#     Edge 35, Type (0, 0), BuildingBlock: OJICUG_clean_linker_0, # of connection points: 2
#     Edge 36, Type (0, 0), BuildingBlock: OJICUG_clean_linker_0, # of connection points: 2
#     Edge 37, Type (0, 0), BuildingBlock: OJICUG_clean_linker_0, # of connection points: 2
#     Edge 38, Type (0, 0), BuildingBlock: OJICUG_clean_linker_0, # of connection points: 2
#     Edge 39, Type (0, 0), BuildingBlock: OJICUG_clean_linker_0, # of connection points: 2
#     Edge 40, Type (0, 0), BuildingBlock: OJICUG_clean_linker_0, # of connection points: 2
#     Edge 41, Type (0, 0), BuildingBlock: OJICUG_clean_linker_0, # of connection points: 2
# Relax obj value: 0.485
# Max RMSD: 0.252
# Mean RMSD: 0.252
data_MOF--net-wjp--node1-BEQFEK_clean_sbu_0--edge1-OJICUG_clean_linker_0
_symmetry_space_group_name_H-M    P1
_symmetry_Int_Tables_number       1
_symmetry_cell_setting            triclinic
loop_
_symmetry_equiv_pos_as_xyz
'x, y, z'
_cell_length_a     32.917424
_cell_length_b     32.907536
_cell_length_c     42.622126
_cell_angle_alpha  90.072531
_cell_angle_beta   89.868555
_cell_angle_gamma 119.99175
loop_
_atom_site_label
_atom_site_type_symbol
_atom_site_fract_x
_atom_site_fract_y
_atom_site_fract_z
_atom_type_partial_charge
Co0 Co 0.23884 0.18019 0.52225 0.0
Co1 Co 0.32595 0.2754 0.50852 0.0
C2 C 0.33331 0.21912 0.55749 0.0
O3 O 0.29031 0.19113 0.55152 0.0
O4 O 0.35662 0.25752 0.54244 0.0
C5 C 0.21644 0.09084 0.52342 0.0
O6 O 0.26191 0.1139 0.5184 0.0
C7 C 0.41454 0.35784 0.48496 0.0
C8 C 0.38391 0.38187 0.44826 0.0
C9 C 0.42607 0.39033 0.46089 0.0
N10 N 0.36748 0.33121 0.48624 0.0
N11 N 0.34959 0.34608 0.46437 0.0
C12 C 0.44742 0.34961 0.5045 0.0
H13 H 0.4321 0.31162 0.50932 0.0
H14 H 0.48187 0.36323 0.49264 0.0
H15 H 0.45287 0.36798 0.52727 0.0
C16 C 0.24952 0.16165 0.45636 0.0
N17 N 0.26073 0.19112 0.48089 0.0
N18 N 0.30279 0.22726 0.47676 0.0
C19 C 0.32134 0.21989 0.45043 0.0
C20 C 0.28794 0.17797 0.43656 0.0
C21 C 0.20427 0.11628 0.45304 0.0
H22 H 0.17744 0.11455 0.46958 0.0
H23 H 0.21041 0.08645 0.45694 0.0
H24 H 0.19067 0.1129 0.42882 0.0
O25 O 0.21071 0.21738 0.53284 0.0
O26 O 0.27463 0.28732 0.5276 0.0
H27 H 0.37469 0.2831 0.4296 0.0
H28 H 0.38135 0.23275 0.42228 0.0
C29 C 0.37098 0.25056 0.44006 0.0
H30 H 0.39468 0.26069 0.46062 0.0
H31 H 0.31376 0.33069 0.4598 0.0
O32 O 0.19494 0.1136 0.52672 0.0
C33 C 0.23115 0.26173 0.53481 0.0
Co34 Co 0.05071 0.24369 0.69529 0.0
Co35 Co 0.04398 0.33049 0.67927 0.0
C36 C 0.10105 0.33658 0.73232 0.0
O37 O 0.08579 0.2934 0.72687 0.0
O38 O 0.08964 0.3608 0.71492 0.0
C39 C 0.11759 0.22203 0.70213 0.0
O40 O 0.14053 0.26791 0.6992 0.0
C41 C 0.05044 0.41876 0.65513 0.0
C42 C -0.00214 0.38791 0.61714 0.0
C43 C 0.03034 0.43011 0.63047 0.0
N44 N 0.03072 0.37176 0.65607 0.0
N45 N -0.00081 0.35372 0.63344 0.0
C46 C 0.09013 0.45177 0.67565 0.0
H47 H 0.11302 0.43695 0.68115 0.0
H48 H 0.1111 0.48653 0.66423 0.0
H49 H 0.07567 0.45645 0.69803 0.0
C50 C 0.08754 0.25594 0.63078 0.0
N51 N 0.06771 0.26709 0.65444 0.0
N52 N 0.07178 0.30814 0.64901 0.0
C53 C 0.09753 0.32604 0.62253 0.0
C54 C 0.10811 0.29325 0.61004 0.0
C55 C 0.08961 0.21156 0.62875 0.0
H56 H 0.06305 0.18413 0.64428 0.0
H57 H 0.12529 0.21891 0.63518 0.0
H58 H 0.08297 0.19814 0.60433 0.0
O59 O 0.98415 0.21428 0.70139 0.0
O60 O 0.97931 0.27879 0.69606 0.0
H61 H 0.08405 0.37484 0.59849 0.0
H62 H 0.14289 0.3853 0.59332 0.0
C63 C 0.11374 0.37436 0.61039 0.0
H64 H 0.1251 0.39955 0.63021 0.0
H65 H 0.97945 0.3179 0.62857 0.0
O66 O 0.07308 0.20021 0.70205 0.0
C67 C 0.96037 0.23491 0.70225 0.0
Co68 Co 0.79776 0.05712 0.85912 0.0
Co69 Co 0.70325 0.04818 0.84348 0.0
C70 C 0.75604 0.11021 0.89402 0.0
O71 O 0.78397 0.09484 0.88896 0.0
O72 O 0.71934 0.09681 0.87734 0.0
C73 C 0.88711 0.12333 0.86703 0.0
O74 O 0.86616 0.14786 0.86227 0.0
C75 C 0.61771 0.04763 0.81792 0.0
C76 C 0.59299 0.98539 0.78728 0.0
C77 C 0.58278 0.01958 0.7966 0.0
N78 N 0.64714 0.03052 0.82079 0.0
N79 N 0.63208 -0.00647 0.8023 0.0
C80 C 0.622 0.08842 0.83616 0.0
H81 H 0.64222 0.09345 0.85799 0.0
H82 H 0.64087 0.12065 0.82171 0.0
H83 H 0.58679 0.08311 0.842 0.0
C84 C 0.8208 0.09097 0.79421 0.0
N85 N 0.79009 0.0712 0.81796 0.0
N86 N 0.7524 0.07393 0.81236 0.0
C87 C 0.75932 0.09853 0.7855 0.0
C88 C 0.80295 0.10989 0.77304 0.0
C89 C 0.86849 0.09574 0.79301 0.0
H90 H 0.87004 0.06933 0.80828 0.0
H91 H 0.89516 0.13162 0.80051 0.0
H92 H 0.8772 0.09085 0.76866 0.0
O93 O 0.76139 0.99121 0.86732 0.0
O94 O 0.69167 0.98546 0.86288 0.0
H95 H 0.69488 0.08264 0.76358 0.0
H96 H 0.74301 0.14052 0.75467 0.0
C97 C 0.72638 0.11361 0.77333 0.0
H98 H 0.71469 0.12758 0.79292 0.0
H99 H 0.64872 0.97377 0.79994 0.0
O100 O 0.86323 0.07892 0.86634 0.0
C101 C 0.71716 0.9673 0.86938 0.0
Co102 Co 0.73609 0.80364 0.02904 0.0
Co103 Co 0.65148 0.70916 1.0101 0.0
C104 C 0.64163 0.75648 0.06431 0.0
O105 O 0.68484 0.78569 0.05996 0.0
O106 O 0.61898 0.72171 0.04586 0.0
C107 C 0.759 0.89286 0.04083 0.0
O108 O 0.71299 0.87101 0.03978 0.0
C109 C 0.56698 0.62358 0.98394 0.0
C110 C 0.60388 0.60664 0.94729 0.0
C111 C 0.5599 0.59213 0.95978 0.0
N112 N 0.61316 0.65521 0.9853 0.0
N113 N 0.63472 0.64476 0.96326 0.0
C114 C 0.53126 0.62253 1.00616 0.0
H115 H 0.54808 0.6401 0.02851 0.0
H116 H 0.51489 0.64161 0.99549 0.0
H117 H 0.50337 0.58586 1.01087 0.0
C118 C 0.72334 0.83129 0.96556 0.0
N119 N 0.71311 0.79911 0.98824 0.0
N120 N 0.67368 0.76089 0.98139 0.0
C121 C 0.65602 0.76868 0.95488 0.0
C122 C 0.6872 0.81356 0.94393 0.0
C123 C 0.76548 0.87952 0.96533 0.0
H124 H 0.79416 0.8807 0.97957 0.0
H125 H 0.75556 0.90485 0.97466 0.0
H126 H 0.77834 0.89042 0.941 0.0
O127 O 0.76672 0.76716 0.03354 0.0
O128 O 0.70375 0.69721 0.02635 0.0
H129 H 0.61183 0.70725 0.92834 0.0
H130 H 0.59695 0.75289 0.92504 0.0
C131 C 0.60912 0.73498 0.9414 0.0
H132 H 0.5832 0.7179 0.96059 0.0
H133 H 0.67079 0.6639 0.95914 0.0
O134 O 0.77968 0.86931 0.03766 0.0
C135 C 0.7473 0.72283 0.03298 0.0
Co136 Co 0.9335 0.75287 0.17528 0.0
Co137 Co 0.9362 0.66155 0.17114 0.0
C138 C 0.8692 0.66302 0.21402 0.0
O139 O 0.88594 0.7051 0.20443 0.0
O140 O 0.88565 0.63746 0.20412 0.0
C141 C 0.87533 0.78747 0.16592 0.0
O142 O 0.84727 0.74256 0.16044 0.0
C143 C 0.92712 0.56945 0.15186 0.0
C144 C 0.98723 0.59774 0.11894 0.0
C145 C 0.94998 0.55642 0.13002 0.0
N146 N 0.94984 0.61667 0.15323 0.0
N147 N 0.98591 0.63307 0.13374 0.0
C148 C 0.88232 0.53794 0.16871 0.0
H149 H 0.86411 0.55735 0.17538 0.0
H150 H 0.85909 0.50727 0.15387 0.0
H151 H 0.89042 0.52479 0.19041 0.0
C152 C 0.91032 0.73596 0.1089 0.0
N153 N 0.92669 0.72694 0.13531 0.0
N154 N 0.91545 0.68278 0.13573 0.0
C155 C 0.88743 0.6611 0.11082 0.0
C156 C 0.88298 0.6942 0.09294 0.0
C157 C 0.91714 0.78311 0.10027 0.0
H158 H 0.942 0.81071 0.11644 0.0
H159 H 0.88288 0.78196 0.10004 0.0
H160 H 0.93174 0.79231 0.07618 0.0
O161 O -0.00323 0.77822 0.19002 0.0
O162 O -0.00072 0.71219 0.19021 0.0
H163 H 0.88777 0.59803 0.09987 0.0
H164 H 0.83595 0.59849 0.08669 0.0
C165 C 0.862 0.60917 0.10592 0.0
H166 H 0.84429 0.59125 0.12803 0.0
H167 H 0.00865 0.66871 0.12961 0.0
O168 O 0.91756 0.80206 0.17367 0.0
C169 C 0.0186 0.75635 0.19537 0.0
Co170 Co 0.17727 0.92776 0.35898 0.0
Co171 Co 0.27225 0.93799 0.34206 0.0
C172 C 0.21995 0.87495 0.39268 0.0
O173 O 0.1913 0.88958 0.38819 0.0
O174 O 0.25677 0.88952 0.37586 0.0
C175 C 0.08797 0.86047 0.36422 0.0
O176 O 0.11028 0.83714 0.35988 0.0
C177 C 0.35721 0.93757 0.31631 0.0
C178 C 0.38139 -0.00171 0.28434 0.0
C179 C 0.39165 0.96446 0.29433 0.0
N180 N 0.32793 0.95491 0.31887 0.0
N181 N 0.34265 0.99099 0.29959 0.0
C182 C 0.35333 0.89774 0.33545 0.0
H183 H 0.33461 0.89461 0.35776 0.0
H184 H 0.3331 0.86463 0.32206 0.0
H185 H 0.3886 0.90275 0.34051 0.0
C186 C 0.1546 0.89559 0.29356 0.0
N187 N 0.18518 0.91467 0.31741 0.0
N188 N 0.22277 0.91185 0.31143 0.0
C189 C 0.21575 0.88764 0.28436 0.0
C190 C 0.17223 0.87673 0.27213 0.0
C191 C 0.10771 0.89255 0.2919 0.0
H192 H 0.10601 0.91804 0.30808 0.0
H193 H 0.0798 0.85632 0.29766 0.0
H194 H 0.10105 0.90007 0.26769 0.0
O195 O 0.21353 -0.00621 0.3675 0.0
O196 O 0.28371 0.00109 0.36085 0.0
H197 H 0.27954 0.90379 0.26117 0.0
H198 H 0.2316 0.84545 0.25328 0.0
C199 C 0.24869 0.87285 0.2716 0.0
H200 H 0.26144 0.85962 0.29096 0.0
H201 H 0.32601 0.01069 0.29685 0.0
O202 O 0.11127 0.90491 0.36563 0.0
C203 C 0.25784 0.01854 0.36823 0.0
Co204 Co 0.80082 0.74255 0.35684 0.0
Co205 Co 0.70708 0.65437 0.37068 0.0
C206 C 0.75712 0.65333 0.31567 0.0
O207 O 0.7849 0.69589 0.32287 0.0
O208 O 0.72212 0.62686 0.33308 0.0
C209 C 0.88922 0.76423 0.3483 0.0
O210 O 0.86611 0.71815 0.34924 0.0
C211 C 0.62359 0.56559 0.39357 0.0
C212 C 0.60409 0.59576 0.43332 0.0
C213 C 0.59272 0.55388 0.41874 0.0
N214 N 0.65213 0.61246 0.39358 0.0
N215 N 0.63992 0.63007 0.41728 0.0
C216 C 0.62847 0.53282 0.3716 0.0
H217 H 0.66569 0.54753 0.3646 0.0
H218 H 0.61523 0.49783 0.38256 0.0
H219 H 0.60767 0.52859 0.35015 0.0
C220 C 0.82475 0.72506 0.41991 0.0
N221 N 0.79412 0.71559 0.39636 0.0
N222 N 0.75703 0.67424 0.40075 0.0
C223 C 0.7644 0.65455 0.42643 0.0
C224 C 0.80757 0.68643 0.4395 0.0
C225 C 0.87127 0.76915 0.42279 0.0
H226 H 0.87218 0.79777 0.4086 0.0
H227 H 0.89948 0.76221 0.41513 0.0
H228 H 0.87825 0.78068 0.44761 0.0
O229 O 0.7644 0.77284 0.35341 0.0
O230 O 0.69519 0.70753 0.35566 0.0
H231 H 0.7024 0.60487 0.45043 0.0
H232 H 0.75014 0.59301 0.45307 0.0
C233 C 0.73191 0.60558 0.43733 0.0
H234 H 0.71718 0.58185 0.41683 0.0
H235 H 0.65711 0.66566 0.42303 0.0
O236 O 0.86669 0.78611 0.35035 0.0
C237 C 0.7201 0.75196 0.3514 0.0
Co238 Co 0.05274 0.80147 0.52008 0.0
Co239 Co 0.04609 0.70807 0.53764 0.0
C240 C 0.10727 0.76032 0.48631 0.0
O241 O 0.09138 0.78798 0.4907 0.0
O242 O 0.09425 0.72416 0.50351 0.0
C243 C 0.11826 0.8911 0.51285 0.0
O244 O 0.14235 0.86966 0.51743 0.0
C245 C 0.05208 0.62647 0.56267 0.0
C246 C -0.00012 0.6058 0.60096 0.0
C247 C 0.03196 0.59547 0.58761 0.0
N248 N 0.03274 0.65408 0.56159 0.0
N249 N 0.00147 0.64125 0.58442 0.0
C250 C 0.09137 0.63238 0.54194 0.0
H251 H 0.11563 0.67016 0.53729 0.0
H252 H 0.11102 0.61668 0.5527 0.0
H253 H 0.0767 0.61487 0.51915 0.0
C254 C 0.08603 0.82643 0.58511 0.0
N255 N 0.06712 0.79515 0.56158 0.0
N256 N 0.07137 0.75843 0.56769 0.0
C257 C 0.09634 0.76676 0.5945 0.0
C258 C 0.10613 0.8101 0.60651 0.0
C259 C 0.08847 0.8731 0.58608 0.0
H260 H 0.06211 0.87358 0.57021 0.0
H261 H 0.12426 0.90102 0.57937 0.0
H262 H 0.08179 0.88089 0.61025 0.0
O263 O 0.98675 0.76284 0.51208 0.0
O264 O 0.98215 0.69382 0.51905 0.0
H265 H 0.08386 0.70558 0.61962 0.0
H266 H 0.14252 0.75446 0.62392 0.0
C267 C 0.11318 0.73545 0.60716 0.0
H268 H 0.1245 0.72112 0.58759 0.0
H269 H 0.982 0.65767 0.5892 0.0
O270 O 0.0738 0.86719 0.5126 0.0
C271 C 0.96334 0.7184 0.51154 0.0
Co272 Co 0.24014 0.0572 0.68892 0.0
Co273 Co 0.32533 0.04752 0.70481 0.0
C274 C 0.33485 0.10909 0.65383 0.0
O275 O 0.2917 0.09445 0.65895 0.0
O276 O 0.35779 0.09532 0.67056 0.0
C277 C 0.21858 0.12468 0.68389 0.0
O278 O 0.26433 0.14781 0.68754 0.0
C279 C 0.41025 0.04697 0.73045 0.0
C280 C 0.37283 0.98536 0.7616 0.0
C281 C 0.41719 0.01929 0.75206 0.0
N282 N 0.36373 0.02991 0.72764 0.0
N283 N 0.34185 -0.00671 0.74643 0.0
C284 C 0.44668 0.08737 0.7119 0.0
H285 H 0.43141 0.09195 0.68996 0.0
H286 H 0.46008 0.1199 0.72605 0.0
H287 H 0.47654 0.08192 0.70624 0.0
C288 C 0.25046 0.0898 0.75424 0.0
N289 N 0.26181 0.07072 0.73023 0.0
N290 N 0.30249 0.07399 0.73572 0.0
C291 C 0.32001 0.09852 0.76263 0.0
C292 C 0.28733 0.10916 0.77529 0.0
C293 C 0.20644 0.09252 0.75628 0.0
H294 H 0.17927 0.06703 0.74016 0.0
H295 H 0.21449 0.12872 0.75073 0.0
H296 H 0.19233 0.08471 0.78054 0.0
O297 O 0.21008 0.99123 0.68064 0.0
O298 O 0.27354 0.98468 0.68597 0.0
H299 H 0.36838 0.08284 0.78504 0.0
H300 H 0.37832 0.14097 0.79331 0.0
C301 C 0.36799 0.11368 0.77489 0.0
H302 H 0.39366 0.12717 0.7553 0.0
H303 H 0.30546 0.97368 0.74892 0.0
O304 O 0.19719 0.08023 0.6827 0.0
C305 C 0.23003 0.96688 0.67915 0.0
Co306 Co 0.17582 0.24063 0.86649 0.0
Co307 Co 0.27087 0.32829 0.87584 0.0
C308 C 0.21124 0.33372 0.82927 0.0
O309 O 0.18421 0.29106 0.83678 0.0
O310 O 0.25101 0.35805 0.84252 0.0
C311 C 0.08701 0.21927 0.86823 0.0
O312 O 0.11043 0.26453 0.87402 0.0
C313 C 0.35694 0.4153 0.89892 0.0
C314 C 0.3907 0.38005 0.92255 0.0
C315 C 0.39606 0.42374 0.91648 0.0
N316 N 0.32986 0.36855 0.89503 0.0
N317 N 0.35034 0.34798 0.90935 0.0
C318 C 0.34636 0.45074 0.88515 0.0
H319 H 0.32112 0.43527 0.86553 0.0
H320 H 0.33057 0.46252 0.9035 0.0
H321 H 0.37912 0.48184 0.8768 0.0
C322 C 0.16184 0.25399 0.93242 0.0
N323 N 0.1902 0.26402 0.90737 0.0
N324 N 0.22545 0.30698 0.9096 0.0
C325 C 0.21827 0.32721 0.93512 0.0
C326 C 0.1775 0.29408 0.9505 0.0
C327 C 0.1174 0.20829 0.93738 0.0
H328 H 0.11526 0.18101 0.9211 0.0
H329 H 0.08668 0.21326 0.93434 0.0
H330 H 0.11618 0.19602 0.96177 0.0
O331 O 0.21098 0.211 0.85452 0.0
O332 O 0.28046 0.27579 0.85616 0.0
H333 H 0.28347 0.38637 0.94853 0.0
H334 H 0.23249 0.38784 0.96302 0.0
C335 C 0.24728 0.37817 0.94282 0.0
H336 H 0.24931 0.39923 0.92195 0.0
H337 H 0.33651 0.31172 0.91019 0.0
O338 O 0.10924 0.19741 0.86409 0.0
C339 C 0.25496 0.23185 0.85041 0.0
Co340 Co 0.92475 0.18105 0.02432 0.0
Co341 Co 0.93216 0.27575 0.03958 0.0
C342 C 0.87059 0.2213 0.98894 0.0
O343 O 0.88542 0.19304 0.99455 0.0
O344 O 0.88503 0.25898 1.00479 0.0
C345 C 0.85805 0.09141 1.02193 0.0
O346 O 0.83519 0.1143 0.02574 0.0
C347 C 0.92596 0.35841 0.06279 0.0
C348 C 0.97329 0.37667 0.10367 0.0
C349 C 0.94348 0.38835 0.08849 0.0
N350 N 0.94446 0.33003 0.06308 0.0
N351 N 0.97288 0.34146 0.08745 0.0
C352 C 0.88959 0.35415 0.03998 0.0
H353 H 0.86407 0.3166 0.0356 0.0
H354 H 0.87082 0.37206 0.04875 0.0
H355 H 0.90689 0.37019 1.01735 0.0
C356 C 0.89253 0.15996 0.08975 0.0
N357 N 0.91154 0.19015 0.06564 0.0
N358 N 0.9056 0.22622 0.07014 0.0
C359 C 0.87891 0.21812 0.09616 0.0
C360 C 0.87002 0.17584 0.10954 0.0
C361 C 0.89279 0.11476 0.093 0.0
H362 H 0.91834 0.11344 0.07669 0.0
H363 H 0.857 0.08483 0.08878 0.0
H364 H 0.90253 0.11119 0.11732 0.0
O365 O -0.00916 0.21907 1.01556 0.0
O366 O -0.00317 0.28882 1.02239 0.0
H367 H 0.88684 0.27816 0.12065 0.0
H368 H 0.82819 0.22865 0.12172 0.0
C369 C 0.85972 0.24853 0.10674 0.0
H370 H 0.85097 0.26321 0.08611 0.0
H371 H -0.00899 0.32415 0.09354 0.0
O372 O 0.90241 0.11446 1.01928 0.0
C373 C 0.01504 0.26352 1.01514 0.0
Co374 Co 0.7394 0.92876 0.19178 0.0
Co375 Co 0.65248 0.93641 0.20744 0.0
C376 C 0.64416 0.86853 0.15996 0.0
O377 O 0.68754 0.88406 0.1649 0.0
O378 O 0.62171 0.88531 0.17446 0.0
C379 C 0.79617 0.9052 0.15777 0.0
O380 O 0.77052 0.90584 0.13442 0.0
C381 C 0.56559 0.93519 0.23159 0.0
C382 C 0.60143 -0.00401 0.26359 0.0
C383 C 0.55763 0.96255 0.25296 0.0
N384 N 0.6122 0.95203 0.22993 0.0
N385 N 0.6331 0.98812 0.24924 0.0
C386 C 0.53016 0.89551 0.21211 0.0
H387 H 0.5467 0.89151 0.19052 0.0
H388 H 0.51581 0.86255 0.22587 0.0
H389 H 0.50075 0.90133 0.20582 0.0
C390 C 0.72825 0.89388 0.25568 0.0
N391 N 0.71835 0.91566 0.23285 0.0
N392 N 0.67868 0.91437 0.23912 0.0
C393 C 0.66123 0.89029 0.26617 0.0
C394 C 0.69238 0.87691 0.27767 0.0
C395 C 0.76695 0.88256 0.25356 0.0
H396 H 0.79995 0.91431 0.24635 0.0
H397 H 0.75794 0.85519 0.23538 0.0
H398 H 0.77251 0.86947 0.27619 0.0
O399 O 0.76387 -0.00624 0.18136 0.0
O400 O 0.70024 -0.00051 0.18744 0.0
H401 H 0.61366 0.90721 0.28872 0.0
H402 H 0.60302 0.84899 0.29742 0.0
C403 C 0.61351 0.87596 0.27878 0.0
H404 H 0.58755 0.86227 0.25942 0.0
H405 H 0.66933 0.00761 0.2525 0.0
O406 O 0.78982 0.91596 0.18517 0.0
C407 C 0.74341 0.01754 0.17986 0.0
C408 C 0.52191 0.47628 0.40729 0.0
C409 C 0.55443 0.50768 0.42898 0.0
H410 H 0.45525 0.41411 0.40068 0.0
C411 C 0.54675 0.49751 0.4612 0.0
H412 H 0.5266 0.48378 0.38239 0.0
C413 C 0.50629 0.4575 0.47166 0.0
C414 C 0.4725 0.4275 0.45005 0.0
H415 H 0.5713 0.52144 0.47837 0.0
H416 H 0.50018 0.45164 0.49665 0.0
C417 C 0.48102 0.43672 0.41777 0.0
C418 C 0.03992 0.4852 0.58741 0.0
C419 C 0.03918 0.47635 0.61972 0.0
H420 H 0.03905 0.53064 0.5518 0.0
C421 C 0.04101 0.50943 0.64127 0.0
H422 H 0.03825 0.45994 0.57037 0.0
C423 C 0.041 0.54956 0.63063 0.0
C424 C 0.04001 0.55755 0.59833 0.0
H425 H 0.03957 0.50297 0.66626 0.0
H426 H 0.04015 0.57358 0.64767 0.0
C427 C 0.04074 0.52572 0.57678 0.0
C428 C 0.50231 0.0639 0.76834 0.0
C429 C 0.46085 0.02124 0.76265 0.0
H430 H 0.574 0.09718 0.78359 0.0
C431 C 0.4599 0.97894 0.76894 0.0
H432 H 0.50375 0.09706 0.76438 0.0
C433 C 0.49948 0.97902 0.78031 0.0
C434 C 0.54097 0.02141 0.78611 0.0
H435 H 0.42845 0.94549 0.76487 0.0
H436 H 0.49745 0.94563 0.78473 0.0
C437 C 0.54219 0.06398 0.77999 0.0
C438 C 0.52031 0.5111 0.93877 0.0
C439 C 0.51677 0.54961 0.94936 0.0
H440 H 0.48516 0.44183 0.91994 0.0
C441 C 0.473 0.54736 0.94815 0.0
H442 H 0.55354 0.51175 0.93931 0.0
C443 C 0.43343 0.50692 0.93681 0.0
C444 C 0.43724 0.46835 0.92648 0.0
H445 H 0.46941 0.57691 0.95547 0.0
H446 H 0.39991 0.50556 0.93682 0.0
C447 C 0.48107 0.47097 0.92767 0.0
C448 C 0.92988 0.43325 0.13028 0.0
C449 C 0.9355 0.42676 0.09828 0.0
H450 H 0.92886 0.47938 0.16549 0.0
C451 C 0.94009 0.46073 0.07656 0.0
H452 H 0.92656 0.40751 0.14746 0.0
C453 C 0.9421 0.50197 0.08692 0.0
C454 C 0.93864 0.50944 0.11906 0.0
H455 H 0.94529 0.45689 0.05186 0.0
H456 H 0.94827 0.52893 0.06992 0.0
C457 C 0.9309 0.4741 0.14058 0.0
C458 C 0.47187 0.91876 0.26774 0.0
C459 C 0.51368 0.96114 0.26217 0.0
H460 H 0.39985 0.88624 0.28242 0.0
C461 C 0.51474 0.00374 0.26753 0.0
H462 H 0.47034 0.88542 0.26434 0.0
C463 C 0.47503 0.00421 0.27814 0.0
C464 C 0.43332 0.96211 0.28411 0.0
H465 H 0.54647 0.03697 0.26348 0.0
H466 H 0.47719 0.03779 0.28199 0.0
C467 C 0.43187 0.91924 0.27868 0.0
C468 C 0.19166 0.96758 0.51246 0.0
C469 C 0.14253 0.94229 0.51349 0.0
H470 H 0.25352 0.03446 0.5153 0.0
C471 C 0.11748 0.96609 0.5176 0.0
H472 H 0.21181 0.95004 0.50926 0.0
C473 C 0.14146 0.01463 0.52126 0.0
C474 C 0.19067 0.03975 0.52072 0.0
H475 H 0.07951 0.9472 0.51867 0.0
H476 H 0.12153 0.03238 0.52451 0.0
C477 C 0.21553 0.0159 0.51608 0.0
C478 C 0.11864 0.1476 0.69523 0.0
C479 C 0.14302 0.19647 0.69911 0.0
H480 H 0.12368 0.08635 0.68664 0.0
C481 C 0.19212 0.22151 0.69731 0.0
H482 H 0.08069 0.12758 0.69623 0.0
C483 C 0.21657 0.19812 0.69144 0.0
C484 C 0.1923 0.14931 0.68743 0.0
H485 H 0.21177 0.25929 0.70009 0.0
H486 H 0.25451 0.21833 0.69029 0.0
C487 C 0.14316 0.12414 0.68936 0.0
C488 C 0.01041 0.1452 0.86633 0.0
C489 C 0.0359 0.19424 0.86884 0.0
H490 H 0.94263 0.08393 0.86411 0.0
C491 C 0.01221 0.2195 0.87216 0.0
H492 H 0.028 0.12497 0.86398 0.0
C493 C 0.9636 0.19613 0.8723 0.0
C494 C 0.93807 0.1472 0.8692 0.0
H495 H 0.03113 0.25738 0.87431 0.0
H496 H 0.94611 0.21648 0.8745 0.0
C497 C 0.96169 0.12176 0.8666 0.0
C498 C 0.83395 0.96774 0.03255 0.0
C499 C 0.78553 0.94406 0.03861 0.0
H500 H 0.89507 0.03336 1.02188 0.0
C501 C 0.76146 0.96915 0.03927 0.0
H502 H 0.85327 0.94907 0.03173 0.0
C503 C 0.78509 0.01694 0.03319 0.0
C504 C 0.83331 0.04057 0.02657 0.0
H505 H 0.72409 0.95178 0.04386 0.0
H506 H 0.76544 0.03529 0.03375 0.0
C507 C 0.85772 0.01576 0.02654 0.0
C508 C 0.80479 0.84029 0.13612 0.0
C509 C 0.82265 0.88082 0.15465 0.0
H510 H 0.80706 0.77781 0.12592 0.0
C511 C 0.8608 0.89278 0.17461 0.0
H512 H 0.77501 0.83027 0.12081 0.0
C513 C 0.87937 0.86318 0.17728 0.0
C514 C 0.85913 0.82082 0.16062 0.0
H515 H 0.8748 0.92391 0.18917 0.0
H516 H 0.90786 0.87221 0.19359 0.0
C517 C 0.82258 0.81005 0.1394 0.0
C518 C 0.0131 0.86142 0.36071 0.0
C519 C 0.03697 0.83608 0.36135 0.0
H520 H 0.94717 0.8584 0.35545 0.0
C521 C 0.01218 0.78737 0.35678 0.0
H522 H 0.03157 0.89912 0.36392 0.0
C523 C 0.96421 0.76426 0.35156 0.0
C524 C 0.94026 0.78948 0.35098 0.0
H525 H 0.02981 0.76702 0.35696 0.0
H526 H 0.94592 0.72657 0.3483 0.0
C527 C 0.96498 0.83824 0.35552 0.0
C528 C 0.25588 0.093 0.3702 0.0
C529 C 0.27784 0.06759 0.37927 0.0
H530 H 0.24364 0.14969 0.38072 0.0
C531 C 0.31157 0.08571 0.40326 0.0
H532 H 0.22972 0.07984 0.35178 0.0
C533 C 0.31928 0.1258 0.42003 0.0
C534 C 0.2938 0.14844 0.41271 0.0
H535 H 0.32855 0.06653 0.41098 0.0
H536 H 0.34182 0.13646 0.44046 0.0
C537 C 0.26397 0.13313 0.38663 0.0
C538 C 0.15509 0.25998 0.54064 0.0
C539 C 0.20319 0.2819 0.54781 0.0
H540 H 0.08726 0.24789 0.55441 0.0
C541 C 0.22089 0.3157 0.57182 0.0
H542 H 0.14043 0.23377 0.52226 0.0
C543 C 0.19009 0.32358 0.5904 0.0
C544 C 0.14145 0.29823 0.58487 0.0
H545 H 0.25764 0.33267 0.57811 0.0
H546 H 0.20375 0.34633 0.61068 0.0
C547 C 0.12461 0.26818 0.55891 0.0
C548 C 0.84561 0.12799 0.72235 0.0
C549 C 0.8312 0.14392 0.74823 0.0
H550 H 0.89793 0.14506 0.68698 0.0
C551 C 0.85409 0.19236 0.75453 0.0
H552 H 0.82892 0.09078 0.71732 0.0
C553 C 0.89376 0.22377 0.73703 0.0
C554 C 0.91121 0.20685 0.71334 0.0
H555 H 0.84408 0.20529 0.7748 0.0
H556 H 0.9133 0.26024 0.7441 0.0
C557 C 0.88529 0.15909 0.70514 0.0
C558 C 0.71918 0.89312 0.87455 0.0
C559 C 0.69708 0.91909 0.88201 0.0
H560 H 0.732 0.83784 0.88814 0.0
C561 C 0.66345 0.90289 0.90616 0.0
H562 H 0.7453 0.90483 0.85607 0.0
C563 C 0.65601 0.86439 0.92463 0.0
C564 C 0.68161 0.84141 0.91885 0.0
H565 H 0.64638 0.92255 0.91266 0.0
H566 H 0.63345 0.85525 0.94505 0.0
C567 C 0.71144 0.85462 0.89275 0.0
C568 C 0.76391 0.67081 0.0671 0.0
C569 C 0.77664 0.70228 0.04186 0.0
H570 H 0.78851 0.64308 0.1033 0.0
C571 C 0.82228 0.72212 0.02954 0.0
H572 H 0.72918 0.65564 0.07731 0.0
C573 C 0.8558 0.71416 0.0439 0.0
C574 C 0.84466 0.68702 0.07127 0.0
H575 H 0.83299 0.74661 1.01013 0.0
H576 H 0.89157 0.73272 0.03529 0.0
C577 C 0.79784 0.66347 0.08186 0.0
C578 C 0.0808 0.76517 0.23372 0.0
C579 C 0.06602 0.78367 0.20947 0.0
H580 H 0.1276 0.78104 0.27286 0.0
C581 C 0.0935 0.83172 0.20227 0.0
H582 H 0.06014 0.72843 0.23998 0.0
C583 C 0.13217 0.86144 0.2207 0.0
C584 C 0.14418 0.84385 0.24678 0.0
H585 H 0.08316 0.847 0.18362 0.0
H586 H 0.15019 0.89885 0.21619 0.0
C587 C 0.11951 0.7952 0.25242 0.0
C588 C 0.89913 0.66423 0.475 0.0
C589 C 0.91458 0.69676 0.49977 0.0
H590 H 0.85145 0.63479 0.43615 0.0
C591 C 0.88721 0.71681 0.50851 0.0
H592 H 0.91992 0.64882 0.4675 0.0
C593 C 0.84792 0.70828 0.49096 0.0
C594 C 0.83548 0.67994 0.46414 0.0
H595 H 0.89842 0.74212 0.52746 0.0
H596 H 0.83002 0.72748 0.49657 0.0
C597 C 0.8599 0.65611 0.45713 0.0
C598 C 0.12274 0.8538 0.65669 0.0
C599 C 0.13945 0.83922 0.63133 0.0
H600 H 0.13899 0.90567 0.69219 0.0
C601 C 0.18808 0.86162 0.62587 0.0
H602 H 0.08539 0.83735 0.66113 0.0
C603 C 0.2191 0.90087 0.6438 0.0
C604 C 0.2016 0.91836 0.66708 0.0
H605 H 0.20162 0.85139 0.60604 0.0
H606 H 0.25592 0.91995 0.6375 0.0
C607 C 0.15346 0.89304 0.67432 0.0
C608 C 0.25328 0.15574 0.84437 0.0
C609 C 0.27481 0.20379 0.83701 0.0
H610 H 0.24202 0.08808 0.83096 0.0
C611 C 0.30882 0.22167 0.81309 0.0
H612 H 0.22707 0.14095 0.86276 0.0
C613 C 0.31728 0.19104 0.79478 0.0
C614 C 0.29235 0.14242 0.80049 0.0
H615 H 0.32563 0.25841 0.80673 0.0
H616 H 0.34011 0.20479 0.77452 0.0
C617 C 0.26208 0.12544 0.82637 0.0
C618 C 0.08259 0.31667 0.98001 0.0
C619 C 0.06462 0.28438 1.0049 0.0
H620 H 0.13404 0.3458 0.94308 0.0
C621 C 0.09091 0.26422 1.01571 0.0
H622 H 0.06272 0.33217 0.97091 0.0
C623 C 0.13187 0.2726 1.00023 0.0
C624 C 0.14717 0.30082 0.97331 0.0
H625 H 0.07784 0.23912 0.03481 0.0
H626 H 0.14915 0.25351 1.00755 0.0
C627 C 0.12351 0.32462 0.96418 0.0
C628 C 0.81877 0.09279 0.17697 0.0
C629 C 0.77144 0.0662 0.16799 0.0
H630 H 0.88709 0.15001 0.16587 0.0
C631 C 0.75514 0.08272 0.14344 0.0
H632 H 0.83229 0.08083 0.1958 0.0
C633 C 0.78686 0.12247 0.12615 0.0
C634 C 0.83498 0.14633 0.1335 0.0
H635 H 0.71901 0.06257 0.13578 0.0
H636 H 0.77456 0.13197 0.10539 0.0
C637 C 0.85015 0.13252 0.15998 0.0
C638 C 0.72202 0.82821 0.34737 0.0
C639 C 0.69961 0.78019 0.33976 0.0
H640 H 0.73621 0.89672 0.33362 0.0
C641 C 0.66614 0.76324 0.31559 0.0
H642 H 0.74804 0.84227 0.36585 0.0
C643 C 0.65946 0.7947 0.29707 0.0
C644 C 0.68574 0.84322 0.30282 0.0
H645 H 0.64886 0.72657 0.30894 0.0
H646 H 0.63713 0.78163 0.27658 0.0
C647 C 0.71519 0.85942 0.32904 0.0
C648 C 0.35537 0.16068 0.57399 0.0
C649 C 0.35523 0.20255 0.58058 0.0
H650 H 0.35078 0.098 0.59276 0.0
C651 C 0.36139 0.21842 0.61168 0.0
H652 H 0.34967 0.14722 0.55022 0.0
C653 C 0.36238 0.19026 0.63604 0.0
C654 C 0.35717 0.14588 0.62966 0.0
H655 H 0.36008 0.24981 0.61748 0.0
H656 H 0.36172 0.20073 0.66007 0.0
C657 C 0.35628 0.13253 0.59832 0.0
C658 C 0.1207 0.35159 0.78871 0.0
C659 C 0.13627 0.35746 0.75754 0.0
H660 H 0.13379 0.34109 0.83636 0.0
C661 C 0.18213 0.3664 0.7515 0.0
H662 H 0.08509 0.34317 0.79394 0.0
C663 C 0.21007 0.36478 0.77582 0.0
C664 C 0.19235 0.35399 0.8065 0.0
H665 H 0.19436 0.36946 0.72752 0.0
H666 H 0.24316 0.36692 0.77007 0.0
C667 C 0.14852 0.34998 0.81294 0.0
C668 C 0.75941 0.13593 0.94916 0.0
C669 C 0.77173 0.14794 0.91765 0.0
H670 H 0.7814 0.15181 0.99709 0.0
C671 C 0.81176 0.19142 0.91067 0.0
H672 H 0.72972 0.10207 0.9552 0.0
C673 C 0.84177 0.21976 0.93464 0.0
C674 C 0.83198 0.20514 0.96598 0.0
H675 H 0.82276 0.20085 0.88651 0.0
H676 H 0.87498 0.25021 0.92841 0.0
C677 C 0.78925 0.16437 0.97312 0.0
C678 C 0.62421 0.75921 0.12045 0.0
C679 C 0.61864 0.76891 0.08927 0.0
H680 H 0.63489 0.78329 0.16803 0.0
C681 C 0.60883 0.80524 0.08324 0.0
H682 H 0.63328 0.73251 0.12568 0.0
C683 C 0.61017 0.8348 0.10753 0.0
C684 C 0.62124 0.82828 0.13818 0.0
H685 H 0.60593 0.81439 0.05926 0.0
H686 H 0.60812 0.86577 0.1017 0.0
C687 C 0.62536 0.78855 0.14468 0.0
C688 C 0.82971 0.62212 0.26453 0.0
C689 C 0.82988 0.64541 0.23688 0.0
H690 H 0.8043 0.605 0.31198 0.0
C691 C 0.79628 0.65961 0.2335 0.0
H692 H 0.8555 0.61125 0.26789 0.0
C693 C 0.7665 0.65514 0.25832 0.0
C694 C 0.76965 0.6365 0.28716 0.0
H695 H 0.79545 0.67752 0.2124 0.0
H696 H 0.74445 0.67077 0.25602 0.0
C697 C 0.80001 0.61807 0.28964 0.0
C698 C 0.21798 0.84643 0.44696 0.0
C699 C 0.20477 0.83619 0.41543 0.0
H700 H 0.19715 0.82784 0.49489 0.0
C701 C 0.16475 0.793 0.408 0.0
H702 H 0.24774 0.88 0.45338 0.0
C703 C 0.13538 0.76333 0.43175 0.0
C704 C 0.14588 0.7762 0.46332 0.0
H705 H 0.15319 0.78485 0.38386 0.0
H706 H 0.10195 0.73334 0.42536 0.0
C707 C 0.18885 0.8165 0.47071 0.0
loop_
_geom_bond_atom_site_label_1
_geom_bond_atom_site_label_2
_geom_bond_distance
_geom_bond_site_symmetry_2
_ccdc_geom_bond_type
Co0 O3 1.970 . S
Co0 N17 1.989 . S
Co0 O25 1.967 . S
Co0 O32 1.920 . S
Co1 O4 1.966 . S
Co1 N10 2.022 . S
Co1 N18 1.993 . S
Co1 O26 1.941 . S
C2 O3 1.258 . S
C2 O4 1.263 . S
O3 Co0 1.970 . S
O3 C2 1.258 . S
O4 Co1 1.966 . S
O4 C2 1.263 . S
C5 O6 1.235 . S
C5 O32 1.289 . S
O6 C5 1.235 . S
C7 C9 1.400 . S
C7 N10 1.351 . S
C7 C12 1.501 . S
C8 C9 1.387 . S
C8 N11 1.341 . S
C9 C7 1.400 . S
C9 C8 1.387 . S
N10 Co1 2.022 . S
N10 C7 1.351 . S
N10 N11 1.365 . S
N11 C8 1.341 . S
N11 N10 1.365 . S
N11 H31 0.862 . S
C12 C7 1.501 . S
C12 H13 0.961 . S
C12 H14 0.961 . S
C12 H15 0.960 . S
H13 C12 0.961 . S
H14 C12 0.961 . S
H15 C12 0.960 . S
C16 N17 1.342 . S
C16 C20 1.401 . S
C16 C21 1.499 . S
N17 Co0 1.989 . S
N17 C16 1.342 . S
N17 N18 1.388 . S
N18 Co1 1.993 . S
N18 N17 1.388 . S
N18 C19 1.346 . S
C19 N18 1.346 . S
C19 C20 1.396 . S
C19 C29 1.510 . S
C20 C16 1.401 . S
C20 C19 1.396 . S
C21 C16 1.499 . S
C21 H22 0.959 . S
C21 H23 0.960 . S
C21 H24 0.961 . S
H22 C21 0.959 . S
H23 C21 0.960 . S
H24 C21 0.961 . S
O25 Co0 1.967 . S
O25 C33 1.258 . S
O26 Co1 1.941 . S
O26 C33 1.266 . S
H27 C29 0.959 . S
H28 C29 0.961 . S
C29 C19 1.510 . S
C29 H27 0.959 . S
C29 H28 0.961 . S
C29 H30 0.960 . S
H30 C29 0.960 . S
H31 N11 0.862 . S
O32 Co0 1.920 . S
O32 C5 1.289 . S
C33 O25 1.258 . S
C33 O26 1.266 . S
Co34 O37 1.970 . S
Co34 N51 1.989 . S
Co34 O59 1.967 . S
Co34 O66 1.920 . S
Co35 O38 1.966 . S
Co35 N44 2.022 . S
Co35 N52 1.993 . S
Co35 O60 1.941 1_455 S
C36 O37 1.258 . S
C36 O38 1.263 . S
O37 Co34 1.970 . S
O37 C36 1.258 . S
O38 Co35 1.966 . S
O38 C36 1.263 . S
C39 O40 1.235 . S
C39 O66 1.289 . S
O40 C39 1.235 . S
C41 C43 1.400 . S
C41 N44 1.351 . S
C41 C46 1.501 . S
C42 C43 1.387 . S
C42 N45 1.341 . S
C43 C41 1.400 . S
C43 C42 1.387 . S
N44 Co35 2.022 . S
N44 C41 1.351 . S
N44 N45 1.365 . S
N45 C42 1.341 . S
N45 N44 1.365 . S
N45 H65 0.862 . S
C46 C41 1.501 . S
C46 H47 0.961 . S
C46 H48 0.961 . S
C46 H49 0.960 . S
H47 C46 0.961 . S
H48 C46 0.961 . S
H49 C46 0.960 . S
C50 N51 1.342 . S
C50 C54 1.401 . S
C50 C55 1.499 . S
N51 Co34 1.989 . S
N51 C50 1.342 . S
N51 N52 1.388 . S
N52 Co35 1.993 . S
N52 N51 1.388 . S
N52 C53 1.346 . S
C53 N52 1.346 . S
C53 C54 1.396 . S
C53 C63 1.510 . S
C54 C50 1.401 . S
C54 C53 1.396 . S
C55 C50 1.499 . S
C55 H56 0.959 . S
C55 H57 0.960 . S
C55 H58 0.961 . S
H56 C55 0.959 . S
H57 C55 0.960 . S
H58 C55 0.961 . S
O59 Co34 1.967 . S
O59 C67 1.258 1_455 S
O60 Co35 1.941 1_655 S
O60 C67 1.266 . S
H61 C63 0.959 . S
H62 C63 0.961 . S
C63 C53 1.510 . S
C63 H61 0.959 . S
C63 H62 0.961 . S
C63 H64 0.960 . S
H64 C63 0.960 . S
H65 N45 0.862 . S
O66 Co34 1.920 . S
O66 C39 1.289 . S
C67 O59 1.258 1_655 S
C67 O60 1.266 . S
Co68 O71 1.970 . S
Co68 N85 1.989 . S
Co68 O93 1.967 . S
Co68 O100 1.920 . S
Co69 O72 1.966 . S
Co69 N78 2.022 . S
Co69 N86 1.993 . S
Co69 O94 1.941 1_545 S
C70 O71 1.258 . S
C70 O72 1.263 . S
O71 Co68 1.970 . S
O71 C70 1.258 . S
O72 Co69 1.966 . S
O72 C70 1.263 . S
C73 O74 1.235 . S
C73 O100 1.289 . S
O74 C73 1.235 . S
C75 C77 1.400 . S
C75 N78 1.351 . S
C75 C80 1.501 . S
C76 C77 1.387 . S
C76 N79 1.341 . S
C77 C75 1.400 . S
C77 C76 1.387 . S
N78 Co69 2.022 . S
N78 C75 1.351 . S
N78 N79 1.365 . S
N79 C76 1.341 . S
N79 N78 1.365 . S
N79 H99 0.862 . S
C80 C75 1.501 . S
C80 H81 0.961 . S
C80 H82 0.961 . S
C80 H83 0.960 . S
H81 C80 0.961 . S
H82 C80 0.961 . S
H83 C80 0.960 . S
C84 N85 1.342 . S
C84 C88 1.401 . S
C84 C89 1.499 . S
N85 Co68 1.989 . S
N85 C84 1.342 . S
N85 N86 1.388 . S
N86 Co69 1.993 . S
N86 N85 1.388 . S
N86 C87 1.346 . S
C87 N86 1.346 . S
C87 C88 1.396 . S
C87 C97 1.510 . S
C88 C84 1.401 . S
C88 C87 1.396 . S
C89 C84 1.499 . S
C89 H90 0.959 . S
C89 H91 0.960 . S
C89 H92 0.961 . S
H90 C89 0.959 . S
H91 C89 0.960 . S
H92 C89 0.961 . S
O93 Co68 1.967 . S
O93 C101 1.258 1_545 S
O94 Co69 1.941 1_565 S
O94 C101 1.266 . S
H95 C97 0.959 . S
H96 C97 0.961 . S
C97 C87 1.510 . S
C97 H95 0.959 . S
C97 H96 0.961 . S
C97 H98 0.960 . S
H98 C97 0.960 . S
H99 N79 0.862 . S
O100 Co68 1.920 . S
O100 C73 1.289 . S
C101 O93 1.258 1_565 S
C101 O94 1.266 . S
Co102 O105 1.970 1_556 S
Co102 N119 1.989 . S
Co102 O127 1.967 . S
Co102 O134 1.920 . S
Co103 O106 1.932 1_556 S
Co103 N112 2.022 . S
Co103 N120 1.993 . S
Co103 O128 1.941 . S
C104 O105 1.258 . S
C104 O106 1.287 . S
O105 Co102 1.970 1_554 S
O105 C104 1.258 . S
O106 Co103 1.932 1_554 S
O106 C104 1.287 . S
C107 O108 1.235 . S
C107 O134 1.289 . S
O108 C107 1.235 . S
C109 C111 1.400 . S
C109 N112 1.351 . S
C109 C114 1.501 . S
C110 C111 1.387 . S
C110 N113 1.341 . S
C111 C109 1.400 . S
C111 C110 1.387 . S
N112 Co103 2.022 . S
N112 C109 1.351 . S
N112 N113 1.365 . S
N113 C110 1.341 . S
N113 N112 1.365 . S
N113 H133 0.862 . S
C114 C109 1.501 . S
C114 H115 0.961 . S
C114 H116 0.961 . S
C114 H117 0.960 . S
H115 C114 0.961 . S
H116 C114 0.961 . S
H117 C114 0.960 . S
C118 N119 1.342 . S
C118 C122 1.401 . S
C118 C123 1.499 . S
N119 Co102 1.989 . S
N119 C118 1.342 . S
N119 N120 1.388 . S
N120 Co103 1.993 . S
N120 N119 1.388 . S
N120 C121 1.346 . S
C121 N120 1.346 . S
C121 C122 1.396 . S
C121 C131 1.510 . S
C122 C118 1.401 . S
C122 C121 1.396 . S
C123 C118 1.499 . S
C123 H124 0.959 . S
C123 H125 0.960 . S
C123 H126 0.961 . S
H124 C123 0.959 . S
H125 C123 0.960 . S
H126 C123 0.961 . S
O127 Co102 1.967 . S
O127 C135 1.258 . S
O128 Co103 1.941 . S
O128 C135 1.266 . S
H129 C131 0.959 . S
H130 C131 0.961 . S
C131 C121 1.510 . S
C131 H129 0.959 . S
C131 H130 0.961 . S
C131 H132 0.960 . S
H132 C131 0.960 . S
H133 N113 0.862 . S
O134 Co102 1.920 . S
O134 C107 1.289 . S
C135 O127 1.258 . S
C135 O128 1.266 . S
Co136 O139 1.970 . S
Co136 N153 1.989 . S
Co136 O161 1.967 . S
Co136 O168 1.920 . S
Co137 O140 1.966 . S
Co137 N146 2.022 . S
Co137 N154 1.993 . S
Co137 O162 1.941 1_655 S
C138 O139 1.258 . S
C138 O140 1.263 . S
O139 Co136 1.970 . S
O139 C138 1.258 . S
O140 Co137 1.966 . S
O140 C138 1.263 . S
C141 O142 1.235 . S
C141 O168 1.289 . S
O142 C141 1.235 . S
C143 C145 1.400 . S
C143 N146 1.351 . S
C143 C148 1.501 . S
C144 C145 1.387 . S
C144 N147 1.341 . S
C145 C143 1.400 . S
C145 C144 1.387 . S
N146 Co137 2.022 . S
N146 C143 1.351 . S
N146 N147 1.365 . S
N147 C144 1.341 . S
N147 N146 1.365 . S
N147 H167 0.862 . S
C148 C143 1.501 . S
C148 H149 0.961 . S
C148 H150 0.961 . S
C148 H151 0.960 . S
H149 C148 0.961 . S
H150 C148 0.961 . S
H151 C148 0.960 . S
C152 N153 1.342 . S
C152 C156 1.401 . S
C152 C157 1.499 . S
N153 Co136 1.989 . S
N153 C152 1.342 . S
N153 N154 1.388 . S
N154 Co137 1.993 . S
N154 N153 1.388 . S
N154 C155 1.346 . S
C155 N154 1.346 . S
C155 C156 1.396 . S
C155 C165 1.510 . S
C156 C152 1.401 . S
C156 C155 1.396 . S
C157 C152 1.499 . S
C157 H158 0.959 . S
C157 H159 0.960 . S
C157 H160 0.961 . S
H158 C157 0.959 . S
H159 C157 0.960 . S
H160 C157 0.961 . S
O161 Co136 1.967 . S
O161 C169 1.258 1_655 S
O162 Co137 1.941 1_455 S
O162 C169 1.266 . S
H163 C165 0.959 . S
H164 C165 0.961 . S
C165 C155 1.510 . S
C165 H163 0.959 . S
C165 H164 0.961 . S
C165 H166 0.960 . S
H166 C165 0.960 . S
H167 N147 0.862 . S
O168 Co136 1.920 . S
O168 C141 1.289 . S
C169 O161 1.258 1_455 S
C169 O162 1.266 . S
Co170 O173 1.970 . S
Co170 N187 1.989 . S
Co170 O195 1.967 . S
Co170 O202 1.920 . S
Co171 O174 1.966 . S
Co171 N180 2.022 . S
Co171 N188 1.993 . S
Co171 O196 1.941 1_565 S
C172 O173 1.258 . S
C172 O174 1.263 . S
O173 Co170 1.970 . S
O173 C172 1.258 . S
O174 Co171 1.966 . S
O174 C172 1.263 . S
C175 O176 1.235 . S
C175 O202 1.289 . S
O176 C175 1.235 . S
C177 C179 1.400 . S
C177 N180 1.351 . S
C177 C182 1.501 . S
C178 C179 1.387 . S
C178 N181 1.341 . S
C179 C177 1.400 . S
C179 C178 1.387 . S
N180 Co171 2.022 . S
N180 C177 1.351 . S
N180 N181 1.365 . S
N181 C178 1.341 . S
N181 N180 1.365 . S
N181 H201 0.862 . S
C182 C177 1.501 . S
C182 H183 0.961 . S
C182 H184 0.961 . S
C182 H185 0.960 . S
H183 C182 0.961 . S
H184 C182 0.961 . S
H185 C182 0.960 . S
C186 N187 1.342 . S
C186 C190 1.401 . S
C186 C191 1.499 . S
N187 Co170 1.989 . S
N187 C186 1.342 . S
N187 N188 1.388 . S
N188 Co171 1.993 . S
N188 N187 1.388 . S
N188 C189 1.346 . S
C189 N188 1.346 . S
C189 C190 1.396 . S
C189 C199 1.510 . S
C190 C186 1.401 . S
C190 C189 1.396 . S
C191 C186 1.499 . S
C191 H192 0.959 . S
C191 H193 0.960 . S
C191 H194 0.961 . S
H192 C191 0.959 . S
H193 C191 0.960 . S
H194 C191 0.961 . S
O195 Co170 1.967 . S
O195 C203 1.258 1_565 S
O196 Co171 1.941 1_545 S
O196 C203 1.266 . S
H197 C199 0.959 . S
H198 C199 0.961 . S
C199 C189 1.510 . S
C199 H197 0.959 . S
C199 H198 0.961 . S
C199 H200 0.960 . S
H200 C199 0.960 . S
H201 N181 0.862 . S
O202 Co170 1.920 . S
O202 C175 1.289 . S
C203 O195 1.258 1_545 S
C203 O196 1.266 . S
Co204 O207 1.970 . S
Co204 N221 1.989 . S
Co204 O229 1.967 . S
Co204 O236 1.920 . S
Co205 O208 1.966 . S
Co205 N214 2.022 . S
Co205 N222 1.993 . S
Co205 O230 1.941 . S
C206 O207 1.258 . S
C206 O208 1.263 . S
O207 Co204 1.970 . S
O207 C206 1.258 . S
O208 Co205 1.966 . S
O208 C206 1.263 . S
C209 O210 1.235 . S
C209 O236 1.289 . S
O210 C209 1.235 . S
C211 C213 1.400 . S
C211 N214 1.351 . S
C211 C216 1.501 . S
C212 C213 1.387 . S
C212 N215 1.341 . S
C213 C211 1.400 . S
C213 C212 1.387 . S
N214 Co205 2.022 . S
N214 C211 1.351 . S
N214 N215 1.365 . S
N215 C212 1.341 . S
N215 N214 1.365 . S
N215 H235 0.862 . S
C216 C211 1.501 . S
C216 H217 0.961 . S
C216 H218 0.961 . S
C216 H219 0.960 . S
H217 C216 0.961 . S
H218 C216 0.961 . S
H219 C216 0.960 . S
C220 N221 1.342 . S
C220 C224 1.401 . S
C220 C225 1.499 . S
N221 Co204 1.989 . S
N221 C220 1.342 . S
N221 N222 1.388 . S
N222 Co205 1.993 . S
N222 N221 1.388 . S
N222 C223 1.346 . S
C223 N222 1.346 . S
C223 C224 1.396 . S
C223 C233 1.510 . S
C224 C220 1.401 . S
C224 C223 1.396 . S
C225 C220 1.499 . S
C225 H226 0.959 . S
C225 H227 0.960 . S
C225 H228 0.961 . S
H226 C225 0.959 . S
H227 C225 0.960 . S
H228 C225 0.961 . S
O229 Co204 1.967 . S
O229 C237 1.258 . S
O230 Co205 1.941 . S
O230 C237 1.266 . S
H231 C233 0.959 . S
H232 C233 0.961 . S
C233 C223 1.510 . S
C233 H231 0.959 . S
C233 H232 0.961 . S
C233 H234 0.960 . S
H234 C233 0.960 . S
H235 N215 0.862 . S
O236 Co204 1.920 . S
O236 C209 1.289 . S
C237 O229 1.258 . S
C237 O230 1.266 . S
Co238 O241 1.970 . S
Co238 N255 1.989 . S
Co238 O263 1.967 . S
Co238 O270 1.920 . S
Co239 O242 1.966 . S
Co239 N248 2.022 . S
Co239 N256 1.993 . S
Co239 O264 1.941 1_455 S
C240 O241 1.258 . S
C240 O242 1.263 . S
O241 Co238 1.970 . S
O241 C240 1.258 . S
O242 Co239 1.966 . S
O242 C240 1.263 . S
C243 O244 1.235 . S
C243 O270 1.289 . S
O244 C243 1.235 . S
C245 C247 1.400 . S
C245 N248 1.351 . S
C245 C250 1.501 . S
C246 C247 1.387 . S
C246 N249 1.341 . S
C247 C245 1.400 . S
C247 C246 1.387 . S
N248 Co239 2.022 . S
N248 C245 1.351 . S
N248 N249 1.365 . S
N249 C246 1.341 . S
N249 N248 1.365 . S
N249 H269 0.862 . S
C250 C245 1.501 . S
C250 H251 0.961 . S
C250 H252 0.961 . S
C250 H253 0.960 . S
H251 C250 0.961 . S
H252 C250 0.961 . S
H253 C250 0.960 . S
C254 N255 1.342 . S
C254 C258 1.401 . S
C254 C259 1.499 . S
N255 Co238 1.989 . S
N255 C254 1.342 . S
N255 N256 1.388 . S
N256 Co239 1.993 . S
N256 N255 1.388 . S
N256 C257 1.346 . S
C257 N256 1.346 . S
C257 C258 1.396 . S
C257 C267 1.510 . S
C258 C254 1.401 . S
C258 C257 1.396 . S
C259 C254 1.499 . S
C259 H260 0.959 . S
C259 H261 0.960 . S
C259 H262 0.961 . S
H260 C259 0.959 . S
H261 C259 0.960 . S
H262 C259 0.961 . S
O263 Co238 1.967 . S
O263 C271 1.258 1_455 S
O264 Co239 1.941 1_655 S
O264 C271 1.266 . S
H265 C267 0.959 . S
H266 C267 0.961 . S
C267 C257 1.510 . S
C267 H265 0.959 . S
C267 H266 0.961 . S
C267 H268 0.960 . S
H268 C267 0.960 . S
H269 N249 0.862 . S
O270 Co238 1.920 . S
O270 C243 1.289 . S
C271 O263 1.258 1_655 S
C271 O264 1.266 . S
Co272 O275 1.970 . S
Co272 N289 1.989 . S
Co272 O297 1.967 . S
Co272 O304 1.920 . S
Co273 O276 1.966 . S
Co273 N282 2.022 . S
Co273 N290 1.993 . S
Co273 O298 1.941 1_545 S
C274 O275 1.258 . S
C274 O276 1.263 . S
O275 Co272 1.970 . S
O275 C274 1.258 . S
O276 Co273 1.966 . S
O276 C274 1.263 . S
C277 O278 1.235 . S
C277 O304 1.289 . S
O278 C277 1.235 . S
C279 C281 1.400 . S
C279 N282 1.351 . S
C279 C284 1.501 . S
C280 C281 1.387 . S
C280 N283 1.341 . S
C281 C279 1.400 . S
C281 C280 1.387 . S
N282 Co273 2.022 . S
N282 C279 1.351 . S
N282 N283 1.365 . S
N283 C280 1.341 . S
N283 N282 1.365 . S
N283 H303 0.862 . S
C284 C279 1.501 . S
C284 H285 0.961 . S
C284 H286 0.961 . S
C284 H287 0.960 . S
H285 C284 0.961 . S
H286 C284 0.961 . S
H287 C284 0.960 . S
C288 N289 1.342 . S
C288 C292 1.401 . S
C288 C293 1.499 . S
N289 Co272 1.989 . S
N289 C288 1.342 . S
N289 N290 1.388 . S
N290 Co273 1.993 . S
N290 N289 1.388 . S
N290 C291 1.346 . S
C291 N290 1.346 . S
C291 C292 1.396 . S
C291 C301 1.510 . S
C292 C288 1.401 . S
C292 C291 1.396 . S
C293 C288 1.499 . S
C293 H294 0.959 . S
C293 H295 0.960 . S
C293 H296 0.961 . S
H294 C293 0.959 . S
H295 C293 0.960 . S
H296 C293 0.961 . S
O297 Co272 1.967 . S
O297 C305 1.258 1_545 S
O298 Co273 1.941 1_565 S
O298 C305 1.266 . S
H299 C301 0.959 . S
H300 C301 0.961 . S
C301 C291 1.510 . S
C301 H299 0.959 . S
C301 H300 0.961 . S
C301 H302 0.960 . S
H302 C301 0.960 . S
H303 N283 0.862 . S
O304 Co272 1.920 . S
O304 C277 1.289 . S
C305 O297 1.258 1_565 S
C305 O298 1.266 . S
Co306 O309 1.970 . S
Co306 N323 1.989 . S
Co306 O331 1.967 . S
Co306 O338 1.920 . S
Co307 O310 1.966 . S
Co307 N316 2.022 . S
Co307 N324 1.993 . S
Co307 O332 1.941 . S
C308 O309 1.258 . S
C308 O310 1.263 . S
O309 Co306 1.970 . S
O309 C308 1.258 . S
O310 Co307 1.966 . S
O310 C308 1.263 . S
C311 O312 1.235 . S
C311 O338 1.289 . S
O312 C311 1.235 . S
C313 C315 1.400 . S
C313 N316 1.351 . S
C313 C318 1.501 . S
C314 C315 1.387 . S
C314 N317 1.341 . S
C315 C313 1.400 . S
C315 C314 1.387 . S
N316 Co307 2.022 . S
N316 C313 1.351 . S
N316 N317 1.365 . S
N317 C314 1.341 . S
N317 N316 1.365 . S
N317 H337 0.862 . S
C318 C313 1.501 . S
C318 H319 0.961 . S
C318 H320 0.961 . S
C318 H321 0.960 . S
H319 C318 0.961 . S
H320 C318 0.961 . S
H321 C318 0.960 . S
C322 N323 1.342 . S
C322 C326 1.401 . S
C322 C327 1.499 . S
N323 Co306 1.989 . S
N323 C322 1.342 . S
N323 N324 1.388 . S
N324 Co307 1.993 . S
N324 N323 1.388 . S
N324 C325 1.346 . S
C325 N324 1.346 . S
C325 C326 1.396 . S
C325 C335 1.510 . S
C326 C322 1.401 . S
C326 C325 1.396 . S
C327 C322 1.499 . S
C327 H328 0.959 . S
C327 H329 0.960 . S
C327 H330 0.961 . S
H328 C327 0.959 . S
H329 C327 0.960 . S
H330 C327 0.961 . S
O331 Co306 1.967 . S
O331 C339 1.258 . S
O332 Co307 1.941 . S
O332 C339 1.266 . S
H333 C335 0.959 . S
H334 C335 0.961 . S
C335 C325 1.510 . S
C335 H333 0.959 . S
C335 H334 0.961 . S
C335 H336 0.960 . S
H336 C335 0.960 . S
H337 N317 0.862 . S
O338 Co306 1.920 . S
O338 C311 1.289 . S
C339 O331 1.258 . S
C339 O332 1.266 . S
Co340 O343 1.970 1_554 S
Co340 N357 1.989 . S
Co340 O365 1.967 . S
Co340 O372 1.920 . S
Co341 O344 1.932 1_554 S
Co341 N350 2.022 . S
Co341 N358 1.993 . S
Co341 O366 1.941 1_655 S
C342 O343 1.258 . S
C342 O344 1.287 . S
O343 Co340 1.970 1_556 S
O343 C342 1.258 . S
O344 Co341 1.932 1_556 S
O344 C342 1.287 . S
C345 O346 1.235 . S
C345 O372 1.289 . S
O346 C345 1.235 . S
C347 C349 1.400 . S
C347 N350 1.351 . S
C347 C352 1.501 . S
C348 C349 1.387 . S
C348 N351 1.341 . S
C349 C347 1.400 . S
C349 C348 1.387 . S
N350 Co341 2.022 . S
N350 C347 1.351 . S
N350 N351 1.365 . S
N351 C348 1.341 . S
N351 N350 1.365 . S
N351 H371 0.862 . S
C352 C347 1.501 . S
C352 H353 0.961 . S
C352 H354 0.961 . S
C352 H355 0.960 . S
H353 C352 0.961 . S
H354 C352 0.961 . S
H355 C352 0.960 . S
C356 N357 1.342 . S
C356 C360 1.401 . S
C356 C361 1.499 . S
N357 Co340 1.989 . S
N357 C356 1.342 . S
N357 N358 1.388 . S
N358 Co341 1.993 . S
N358 N357 1.388 . S
N358 C359 1.346 . S
C359 N358 1.346 . S
C359 C360 1.396 . S
C359 C369 1.510 . S
C360 C356 1.401 . S
C360 C359 1.396 . S
C361 C356 1.499 . S
C361 H362 0.959 . S
C361 H363 0.960 . S
C361 H364 0.961 . S
H362 C361 0.959 . S
H363 C361 0.960 . S
H364 C361 0.961 . S
O365 Co340 1.967 . S
O365 C373 1.258 1_655 S
O366 Co341 1.941 1_455 S
O366 C373 1.266 . S
H367 C369 0.959 . S
H368 C369 0.961 . S
C369 C359 1.510 . S
C369 H367 0.959 . S
C369 H368 0.961 . S
C369 H370 0.960 . S
H370 C369 0.960 . S
H371 N351 0.862 . S
O372 Co340 1.920 . S
O372 C345 1.289 . S
C373 O365 1.258 1_455 S
C373 O366 1.266 . S
Co374 O377 1.970 . S
Co374 N391 1.989 . S
Co374 O399 1.967 . S
Co374 O406 1.920 . S
Co375 O378 1.966 . S
Co375 N384 2.022 . S
Co375 N392 1.993 . S
Co375 O400 1.941 1_565 S
C376 O377 1.258 . S
C376 O378 1.263 . S
O377 Co374 1.970 . S
O377 C376 1.258 . S
O378 Co375 1.966 . S
O378 C376 1.263 . S
C379 O380 1.235 . S
C379 O406 1.289 . S
O380 C379 1.235 . S
C381 C383 1.400 . S
C381 N384 1.351 . S
C381 C386 1.501 . S
C382 C383 1.387 . S
C382 N385 1.341 . S
C383 C381 1.400 . S
C383 C382 1.387 . S
N384 Co375 2.022 . S
N384 C381 1.351 . S
N384 N385 1.365 . S
N385 C382 1.341 . S
N385 N384 1.365 . S
N385 H405 0.862 . S
C386 C381 1.501 . S
C386 H387 0.961 . S
C386 H388 0.961 . S
C386 H389 0.960 . S
H387 C386 0.961 . S
H388 C386 0.961 . S
H389 C386 0.960 . S
C390 N391 1.342 . S
C390 C394 1.401 . S
C390 C395 1.499 . S
N391 Co374 1.989 . S
N391 C390 1.342 . S
N391 N392 1.388 . S
N392 Co375 1.993 . S
N392 N391 1.388 . S
N392 C393 1.346 . S
C393 N392 1.346 . S
C393 C394 1.396 . S
C393 C403 1.510 . S
C394 C390 1.401 . S
C394 C393 1.396 . S
C395 C390 1.499 . S
C395 H396 0.959 . S
C395 H397 0.960 . S
C395 H398 0.961 . S
H396 C395 0.959 . S
H397 C395 0.960 . S
H398 C395 0.961 . S
O399 Co374 1.967 . S
O399 C407 1.258 1_565 S
O400 Co375 1.941 1_545 S
O400 C407 1.266 . S
H401 C403 0.959 . S
H402 C403 0.961 . S
C403 C393 1.510 . S
C403 H401 0.959 . S
C403 H402 0.961 . S
C403 H404 0.960 . S
H404 C403 0.960 . S
H405 N385 0.862 . S
O406 Co374 1.920 . S
O406 C379 1.289 . S
C407 O399 1.258 1_545 S
C407 O400 1.266 . S
C408 C409 1.387 . S
C408 H412 0.950 . S
C408 C417 1.390 . S
C409 C408 1.387 . S
C409 C411 1.387 . S
H410 C417 0.950 . S
C411 C409 1.387 . S
C411 C413 1.390 . S
C411 H415 0.950 . S
H412 C408 0.950 . S
C413 C411 1.390 . S
C413 C414 1.387 . S
C413 H416 0.950 . S
C414 C413 1.387 . S
C414 C417 1.387 . S
H415 C411 0.950 . S
H416 C413 0.950 . S
C417 C408 1.390 . S
C417 H410 0.950 . S
C417 C414 1.387 . S
C418 C419 1.387 . S
C418 H422 0.950 . S
C418 C427 1.390 . S
C419 C418 1.387 . S
C419 C421 1.387 . S
H420 C427 0.950 . S
C421 C419 1.387 . S
C421 C423 1.390 . S
C421 H425 0.950 . S
H422 C418 0.950 . S
C423 C421 1.390 . S
C423 C424 1.387 . S
C423 H426 0.950 . S
C424 C423 1.387 . S
C424 C427 1.387 . S
H425 C421 0.950 . S
H426 C423 0.950 . S
C427 C418 1.390 . S
C427 H420 0.950 . S
C427 C424 1.387 . S
C428 C429 1.387 . S
C428 H432 0.950 . S
C428 C437 1.390 . S
C429 C428 1.387 . S
C429 C431 1.387 . S
H430 C437 0.950 . S
C431 C429 1.387 . S
C431 C433 1.390 . S
C431 H435 0.950 . S
H432 C428 0.950 . S
C433 C431 1.390 . S
C433 C434 1.387 . S
C433 H436 0.950 . S
C434 C433 1.387 . S
C434 C437 1.387 . S
H435 C431 0.950 . S
H436 C433 0.950 . S
C437 C428 1.390 . S
C437 H430 0.950 . S
C437 C434 1.387 . S
C438 C439 1.387 . S
C438 H442 0.950 . S
C438 C447 1.390 . S
C439 C438 1.387 . S
C439 C441 1.387 . S
H440 C447 0.950 . S
C441 C439 1.387 . S
C441 C443 1.390 . S
C441 H445 0.950 . S
H442 C438 0.950 . S
C443 C441 1.390 . S
C443 C444 1.387 . S
C443 H446 0.950 . S
C444 C443 1.387 . S
C444 C447 1.387 . S
H445 C441 0.950 . S
H446 C443 0.950 . S
C447 C438 1.390 . S
C447 H440 0.950 . S
C447 C444 1.387 . S
C448 C449 1.387 . S
C448 H452 0.950 . S
C448 C457 1.390 . S
C449 C448 1.387 . S
C449 C451 1.387 . S
H450 C457 0.950 . S
C451 C449 1.387 . S
C451 C453 1.390 . S
C451 H455 0.950 . S
H452 C448 0.950 . S
C453 C451 1.390 . S
C453 C454 1.387 . S
C453 H456 0.950 . S
C454 C453 1.387 . S
C454 C457 1.387 . S
H455 C451 0.950 . S
H456 C453 0.950 . S
C457 C448 1.390 . S
C457 H450 0.950 . S
C457 C454 1.387 . S
C458 C459 1.387 . S
C458 H462 0.950 . S
C458 C467 1.390 . S
C459 C458 1.387 . S
C459 C461 1.387 . S
H460 C467 0.950 . S
C461 C459 1.387 . S
C461 C463 1.390 . S
C461 H465 0.950 . S
H462 C458 0.950 . S
C463 C461 1.390 . S
C463 C464 1.387 . S
C463 H466 0.950 . S
C464 C463 1.387 . S
C464 C467 1.387 . S
H465 C461 0.950 . S
H466 C463 0.950 . S
C467 C458 1.390 . S
C467 H460 0.950 . S
C467 C464 1.387 . S
C468 C469 1.387 . S
C468 H472 0.950 . S
C468 C477 1.390 1_565 S
C469 C468 1.387 . S
C469 C471 1.387 . S
H470 C477 0.950 . S
C471 C469 1.387 . S
C471 C473 1.390 1_565 S
C471 H475 0.950 . S
H472 C468 0.950 . S
C473 C471 1.390 1_545 S
C473 C474 1.387 . S
C473 H476 0.950 . S
C474 C473 1.387 . S
C474 C477 1.387 . S
H475 C471 0.950 . S
H476 C473 0.950 . S
C477 C468 1.390 1_545 S
C477 H470 0.950 . S
C477 C474 1.387 . S
C478 C479 1.387 . S
C478 H482 0.950 . S
C478 C487 1.390 . S
C479 C478 1.387 . S
C479 C481 1.387 . S
H480 C487 0.950 . S
C481 C479 1.387 . S
C481 C483 1.390 . S
C481 H485 0.950 . S
H482 C478 0.950 . S
C483 C481 1.390 . S
C483 C484 1.387 . S
C483 H486 0.950 . S
C484 C483 1.387 . S
C484 C487 1.387 . S
H485 C481 0.950 . S
H486 C483 0.950 . S
C487 C478 1.390 . S
C487 H480 0.950 . S
C487 C484 1.387 . S
C488 C489 1.387 . S
C488 H492 0.950 . S
C488 C497 1.390 1_455 S
C489 C488 1.387 . S
C489 C491 1.387 . S
H490 C497 0.950 . S
C491 C489 1.387 . S
C491 C493 1.390 1_455 S
C491 H495 0.950 . S
H492 C488 0.950 . S
C493 C491 1.390 1_655 S
C493 C494 1.387 . S
C493 H496 0.950 . S
C494 C493 1.387 . S
C494 C497 1.387 . S
H495 C491 0.950 . S
H496 C493 0.950 . S
C497 C488 1.390 1_655 S
C497 H490 0.950 . S
C497 C494 1.387 . S
C498 C499 1.387 . S
C498 H502 0.950 . S
C498 C507 1.390 1_566 S
C499 C498 1.387 . S
C499 C501 1.387 . S
H500 C507 0.950 . S
C501 C499 1.387 . S
C501 C503 1.390 1_566 S
C501 H505 0.950 . S
H502 C498 0.950 . S
C503 C501 1.390 1_544 S
C503 C504 1.387 . S
C503 H506 0.950 . S
C504 C503 1.387 . S
C504 C507 1.387 . S
H505 C501 0.950 . S
H506 C503 0.950 . S
C507 C498 1.390 1_544 S
C507 H500 0.950 . S
C507 C504 1.387 . S
C508 C509 1.387 . S
C508 H512 0.950 . S
C508 C517 1.390 . S
C509 C508 1.387 . S
C509 C511 1.387 . S
H510 C517 0.950 . S
C511 C509 1.387 . S
C511 C513 1.390 . S
C511 H515 0.950 . S
H512 C508 0.950 . S
C513 C511 1.390 . S
C513 C514 1.387 . S
C513 H516 0.950 . S
C514 C513 1.387 . S
C514 C517 1.387 . S
H515 C511 0.950 . S
H516 C513 0.950 . S
C517 C508 1.390 . S
C517 H510 0.950 . S
C517 C514 1.387 . S
C518 C519 1.387 . S
C518 H522 0.950 . S
C518 C527 1.390 1_455 S
C519 C518 1.387 . S
C519 C521 1.387 . S
H520 C527 0.950 . S
C521 C519 1.387 . S
C521 C523 1.390 1_455 S
C521 H525 0.950 . S
H522 C518 0.950 . S
C523 C521 1.390 1_655 S
C523 C524 1.387 . S
C523 H526 0.950 . S
C524 C523 1.387 . S
C524 C527 1.387 . S
H525 C521 0.950 . S
H526 C523 0.950 . S
C527 C518 1.390 1_655 S
C527 H520 0.950 . S
C527 C524 1.387 . S
C528 C529 1.387 . S
C528 H532 0.950 . S
C528 C537 1.390 . S
C529 C528 1.387 . S
C529 C531 1.387 . S
H530 C537 0.950 . S
C531 C529 1.387 . S
C531 C533 1.390 . S
C531 H535 0.950 . S
H532 C528 0.950 . S
C533 C531 1.390 . S
C533 C534 1.387 . S
C533 H536 0.950 . S
C534 C533 1.387 . S
C534 C537 1.387 . S
H535 C531 0.950 . S
H536 C533 0.950 . S
C537 C528 1.390 . S
C537 H530 0.950 . S
C537 C534 1.387 . S
C538 C539 1.387 . S
C538 H542 0.950 . S
C538 C547 1.390 . S
C539 C538 1.387 . S
C539 C541 1.387 . S
H540 C547 0.950 . S
C541 C539 1.387 . S
C541 C543 1.390 . S
C541 H545 0.950 . S
H542 C538 0.950 . S
C543 C541 1.390 . S
C543 C544 1.387 . S
C543 H546 0.950 . S
C544 C543 1.387 . S
C544 C547 1.387 . S
H545 C541 0.950 . S
H546 C543 0.950 . S
C547 C538 1.390 . S
C547 H540 0.950 . S
C547 C544 1.387 . S
C548 C549 1.387 . S
C548 H552 0.950 . S
C548 C557 1.390 . S
C549 C548 1.387 . S
C549 C551 1.387 . S
H550 C557 0.950 . S
C551 C549 1.387 . S
C551 C553 1.390 . S
C551 H555 0.950 . S
H552 C548 0.950 . S
C553 C551 1.390 . S
C553 C554 1.387 . S
C553 H556 0.950 . S
C554 C553 1.387 . S
C554 C557 1.387 . S
H555 C551 0.950 . S
H556 C553 0.950 . S
C557 C548 1.390 . S
C557 H550 0.950 . S
C557 C554 1.387 . S
C558 C559 1.387 . S
C558 H562 0.950 . S
C558 C567 1.390 . S
C559 C558 1.387 . S
C559 C561 1.387 . S
H560 C567 0.950 . S
C561 C559 1.387 . S
C561 C563 1.390 . S
C561 H565 0.950 . S
H562 C558 0.950 . S
C563 C561 1.390 . S
C563 C564 1.387 . S
C563 H566 0.950 . S
C564 C563 1.387 . S
C564 C567 1.387 . S
H565 C561 0.950 . S
H566 C563 0.950 . S
C567 C558 1.390 . S
C567 H560 0.950 . S
C567 C564 1.387 . S
C568 C569 1.387 1_554 S
C568 H572 0.950 . S
C568 C577 1.390 . S
C569 C568 1.387 1_556 S
C569 C571 1.387 . S
H570 C577 0.950 . S
C571 C569 1.387 . S
C571 C573 1.390 1_556 S
C571 H575 0.950 . S
H572 C568 0.950 . S
C573 C571 1.390 1_554 S
C573 C574 1.387 . S
C573 H576 0.950 1_554 S
C574 C573 1.387 . S
C574 C577 1.387 . S
H575 C571 0.950 . S
H576 C573 0.950 1_556 S
C577 C568 1.390 . S
C577 H570 0.950 . S
C577 C574 1.387 . S
C578 C579 1.387 . S
C578 H582 0.950 . S
C578 C587 1.390 . S
C579 C578 1.387 . S
C579 C581 1.387 . S
H580 C587 0.950 . S
C581 C579 1.387 . S
C581 C583 1.390 . S
C581 H585 0.950 . S
H582 C578 0.950 . S
C583 C581 1.390 . S
C583 C584 1.387 . S
C583 H586 0.950 . S
C584 C583 1.387 . S
C584 C587 1.387 . S
H585 C581 0.950 . S
H586 C583 0.950 . S
C587 C578 1.390 . S
C587 H580 0.950 . S
C587 C584 1.387 . S
C588 C589 1.387 . S
C588 H592 0.950 . S
C588 C597 1.390 . S
C589 C588 1.387 . S
C589 C591 1.387 . S
H590 C597 0.950 . S
C591 C589 1.387 . S
C591 C593 1.390 . S
C591 H595 0.950 . S
H592 C588 0.950 . S
C593 C591 1.390 . S
C593 C594 1.387 . S
C593 H596 0.950 . S
C594 C593 1.387 . S
C594 C597 1.387 . S
H595 C591 0.950 . S
H596 C593 0.950 . S
C597 C588 1.390 . S
C597 H590 0.950 . S
C597 C594 1.387 . S
C598 C599 1.387 . S
C598 H602 0.950 . S
C598 C607 1.390 . S
C599 C598 1.387 . S
C599 C601 1.387 . S
H600 C607 0.950 . S
C601 C599 1.387 . S
C601 C603 1.390 . S
C601 H605 0.950 . S
H602 C598 0.950 . S
C603 C601 1.390 . S
C603 C604 1.387 . S
C603 H606 0.950 . S
C604 C603 1.387 . S
C604 C607 1.387 . S
H605 C601 0.950 . S
H606 C603 0.950 . S
C607 C598 1.390 . S
C607 H600 0.950 . S
C607 C604 1.387 . S
C608 C609 1.387 . S
C608 H612 0.950 . S
C608 C617 1.390 . S
C609 C608 1.387 . S
C609 C611 1.387 . S
H610 C617 0.950 . S
C611 C609 1.387 . S
C611 C613 1.390 . S
C611 H615 0.950 . S
H612 C608 0.950 . S
C613 C611 1.390 . S
C613 C614 1.387 . S
C613 H616 0.950 . S
C614 C613 1.387 . S
C614 C617 1.387 . S
H615 C611 0.950 . S
H616 C613 0.950 . S
C617 C608 1.390 . S
C617 H610 0.950 . S
C617 C614 1.387 . S
C618 C619 1.365 1_556 S
C618 H622 0.950 . S
C618 C627 1.390 . S
C619 C618 1.365 1_554 S
C619 C621 1.393 . S
H620 C627 0.950 . S
C621 C619 1.393 . S
C621 C623 1.390 1_554 S
C621 H625 0.950 . S
H622 C618 0.950 . S
C623 C621 1.390 1_556 S
C623 C624 1.387 . S
C623 H626 0.950 . S
C624 C623 1.387 . S
C624 C627 1.387 . S
H625 C621 0.950 . S
H626 C623 0.950 . S
C627 C618 1.390 . S
C627 H620 0.950 . S
C627 C624 1.387 . S
C628 C629 1.387 . S
C628 H632 0.950 . S
C628 C637 1.390 . S
C629 C628 1.387 . S
C629 C631 1.387 . S
H630 C637 0.950 . S
C631 C629 1.387 . S
C631 C633 1.390 . S
C631 H635 0.950 . S
H632 C628 0.950 . S
C633 C631 1.390 . S
C633 C634 1.387 . S
C633 H636 0.950 . S
C634 C633 1.387 . S
C634 C637 1.387 . S
H635 C631 0.950 . S
H636 C633 0.950 . S
C637 C628 1.390 . S
C637 H630 0.950 . S
C637 C634 1.387 . S
C638 C639 1.387 . S
C638 H642 0.950 . S
C638 C647 1.390 . S
C639 C638 1.387 . S
C639 C641 1.387 . S
H640 C647 0.950 . S
C641 C639 1.387 . S
C641 C643 1.390 . S
C641 H645 0.950 . S
H642 C638 0.950 . S
C643 C641 1.390 . S
C643 C644 1.387 . S
C643 H646 0.950 . S
C644 C643 1.387 . S
C644 C647 1.387 . S
H645 C641 0.950 . S
H646 C643 0.950 . S
C647 C638 1.390 . S
C647 H640 0.950 . S
C647 C644 1.387 . S
C648 C649 1.387 . S
C648 H652 0.950 . S
C648 C657 1.390 . S
C649 C648 1.387 . S
C649 C651 1.387 . S
H650 C657 0.950 . S
C651 C649 1.387 . S
C651 C653 1.390 . S
C651 H655 0.950 . S
H652 C648 0.950 . S
C653 C651 1.390 . S
C653 C654 1.387 . S
C653 H656 0.950 . S
C654 C653 1.387 . S
C654 C657 1.387 . S
H655 C651 0.950 . S
H656 C653 0.950 . S
C657 C648 1.390 . S
C657 H650 0.950 . S
C657 C654 1.387 . S
C658 C659 1.387 . S
C658 H662 0.950 . S
C658 C667 1.390 . S
C659 C658 1.387 . S
C659 C661 1.387 . S
H660 C667 0.950 . S
C661 C659 1.387 . S
C661 C663 1.390 . S
C661 H665 0.950 . S
H662 C658 0.950 . S
C663 C661 1.390 . S
C663 C664 1.387 . S
C663 H666 0.950 . S
C664 C663 1.387 . S
C664 C667 1.387 . S
H665 C661 0.950 . S
H666 C663 0.950 . S
C667 C658 1.390 . S
C667 H660 0.950 . S
C667 C664 1.387 . S
C668 C669 1.387 . S
C668 H672 0.950 . S
C668 C677 1.390 . S
C669 C668 1.387 . S
C669 C671 1.387 . S
H670 C677 0.950 . S
C671 C669 1.387 . S
C671 C673 1.390 . S
C671 H675 0.950 . S
H672 C668 0.950 . S
C673 C671 1.390 . S
C673 C674 1.387 . S
C673 H676 0.950 . S
C674 C673 1.387 . S
C674 C677 1.387 . S
H675 C671 0.950 . S
H676 C673 0.950 . S
C677 C668 1.390 . S
C677 H670 0.950 . S
C677 C674 1.387 . S
C678 C679 1.387 . S
C678 H682 0.950 . S
C678 C687 1.390 . S
C679 C678 1.387 . S
C679 C681 1.387 . S
H680 C687 0.950 . S
C681 C679 1.387 . S
C681 C683 1.390 . S
C681 H685 0.950 . S
H682 C678 0.950 . S
C683 C681 1.390 . S
C683 C684 1.387 . S
C683 H686 0.950 . S
C684 C683 1.387 . S
C684 C687 1.387 . S
H685 C681 0.950 . S
H686 C683 0.950 . S
C687 C678 1.390 . S
C687 H680 0.950 . S
C687 C684 1.387 . S
C688 C689 1.387 . S
C688 H692 0.950 . S
C688 C697 1.390 . S
C689 C688 1.387 . S
C689 C691 1.387 . S
H690 C697 0.950 . S
C691 C689 1.387 . S
C691 C693 1.390 . S
C691 H695 0.950 . S
H692 C688 0.950 . S
C693 C691 1.390 . S
C693 C694 1.387 . S
C693 H696 0.950 . S
C694 C693 1.387 . S
C694 C697 1.387 . S
H695 C691 0.950 . S
H696 C693 0.950 . S
C697 C688 1.390 . S
C697 H690 0.950 . S
C697 C694 1.387 . S
C698 C699 1.387 . S
C698 H702 0.950 . S
C698 C707 1.390 . S
C699 C698 1.387 . S
C699 C701 1.387 . S
H700 C707 0.950 . S
C701 C699 1.387 . S
C701 C703 1.390 . S
C701 H705 0.950 . S
H702 C698 0.950 . S
C703 C701 1.390 . S
C703 C704 1.387 . S
C703 H706 0.950 . S
C704 C703 1.387 . S
C704 C707 1.387 . S
H705 C701 0.950 . S
H706 C703 0.950 . S
C707 C698 1.390 . S
C707 H700 0.950 . S
C707 C704 1.387 . S
C409 C213 1.426 . S
C414 C9 1.429 . S
C419 C43 1.429 . S
C424 C247 1.426 . S
C429 C281 1.428 . S
C434 C77 1.428 . S
C439 C111 1.428 . S
C444 C315 1.427 . S
C449 C349 1.429 . S
C454 C145 1.426 . S
C459 C383 1.428 . S
C464 C179 1.428 . S
C469 C243 0.512 . S
C474 C5 0.512 . S
C479 C39 0.515 . S
C484 C277 0.507 . S
C489 C311 0.514 . S
C494 C73 0.507 . S
C499 C107 0.511 . S
C504 C345 0.511 . S
C509 C379 0.509 . S
C514 C141 0.515 . S
C519 C175 0.508 . S
C524 C209 0.513 . S
C529 C203 1.571 . S
C534 C20 1.461 . S
C539 C33 1.571 . S
C544 C54 1.461 . S
C549 C88 1.461 . S
C554 C67 1.571 . S
C559 C101 1.571 . S
C564 C122 1.461 . S
C569 C135 1.571 . S
C574 C156 1.462 . S
C579 C169 1.570 . S
C584 C190 1.465 . S
C589 C271 1.570 . S
C594 C224 1.464 . S
C599 C258 1.461 . S
C604 C305 1.571 . S
C609 C339 1.571 . S
C614 C292 1.462 . S
C619 C373 1.584 . S
C624 C326 1.465 . S
C629 C407 1.571 . S
C634 C360 1.461 . S
C639 C237 1.571 . S
C644 C394 1.461 . S
C649 C2 1.993 . S
C654 C274 1.993 . S
C659 C36 1.993 . S
C664 C308 1.993 . S
C669 C70 1.993 . S
C674 C342 1.991 . S
C679 C104 1.993 . S
C684 C376 1.991 . S
C689 C138 1.992 . S
C694 C206 1.992 . S
C699 C172 1.993 . S
C704 C240 1.991 . S
