# Generated by pormake.
# Topology svx, (7)-cn, num edge types: 1
# Building blocks:
#     Node 0, Type 0, BuildingBlock: NUHQUE_clean_sbu_2, # of connection points: 7
#     Node 1, Type 0, BuildingBlock: NUHQUE_clean_sbu_2, # of connection points: 7
#     Node 2, Type 0, BuildingBlock: NUHQUE_clean_sbu_2, # of connection points: 7
#     Node 3, Type 0, BuildingBlock: NUHQUE_clean_sbu_2, # of connection points: 7
#     Node 4, Type 0, BuildingBlock: NUHQUE_clean_sbu_2, # of connection points: 7
#     Node 5, Type 0, BuildingBlock: NUHQUE_clean_sbu_2, # of connection points: 7
#     Node 6, Type 0, BuildingBlock: NUHQUE_clean_sbu_2, # of connection points: 7
#     Node 7, Type 0, BuildingBlock: NUHQUE_clean_sbu_2, # of connection points: 7
#     Node 8, Type 0, BuildingBlock: NUHQUE_clean_sbu_2, # of connection points: 7
#     Node 9, Type 0, BuildingBlock: NUHQUE_clean_sbu_2, # of connection points: 7
#     Node 10, Type 0, BuildingBlock: NUHQUE_clean_sbu_2, # of connection points: 7
#     Node 11, Type 0, BuildingBlock: NUHQUE_clean_sbu_2, # of connection points: 7
#     Node 12, Type 0, BuildingBlock: NUHQUE_clean_sbu_2, # of connection points: 7
#     Node 13, Type 0, BuildingBlock: NUHQUE_clean_sbu_2, # of connection points: 7
#     Node 14, Type 0, BuildingBlock: NUHQUE_clean_sbu_2, # of connection points: 7
#     Node 15, Type 0, BuildingBlock: NUHQUE_clean_sbu_2, # of connection points: 7
#     Node 16, Type 0, BuildingBlock: NUHQUE_clean_sbu_2, # of connection points: 7
#     Node 17, Type 0, BuildingBlock: NUHQUE_clean_sbu_2, # of connection points: 7
#     Node 18, Type 0, BuildingBlock: NUHQUE_clean_sbu_2, # of connection points: 7
#     Node 19, Type 0, BuildingBlock: NUHQUE_clean_sbu_2, # of connection points: 7
#     Node 20, Type 0, BuildingBlock: NUHQUE_clean_sbu_2, # of connection points: 7
#     Node 21, Type 0, BuildingBlock: NUHQUE_clean_sbu_2, # of connection points: 7
#     Node 22, Type 0, BuildingBlock: NUHQUE_clean_sbu_2, # of connection points: 7
#     Node 23, Type 0, BuildingBlock: NUHQUE_clean_sbu_2, # of connection points: 7
#     Node 24, Type 0, BuildingBlock: NUHQUE_clean_sbu_2, # of connection points: 7
#     Node 25, Type 0, BuildingBlock: NUHQUE_clean_sbu_2, # of connection points: 7
#     Node 26, Type 0, BuildingBlock: NUHQUE_clean_sbu_2, # of connection points: 7
#     Node 27, Type 0, BuildingBlock: NUHQUE_clean_sbu_2, # of connection points: 7
#     Node 28, Type 0, BuildingBlock: NUHQUE_clean_sbu_2, # of connection points: 7
#     Node 29, Type 0, BuildingBlock: NUHQUE_clean_sbu_2, # of connection points: 7
#     Node 30, Type 0, BuildingBlock: NUHQUE_clean_sbu_2, # of connection points: 7
#     Node 31, Type 0, BuildingBlock: NUHQUE_clean_sbu_2, # of connection points: 7
#     Node 32, Type 0, BuildingBlock: NUHQUE_clean_sbu_2, # of connection points: 7
#     Node 33, Type 0, BuildingBlock: NUHQUE_clean_sbu_2, # of connection points: 7
#     Node 34, Type 0, BuildingBlock: NUHQUE_clean_sbu_2, # of connection points: 7
#     Node 35, Type 0, BuildingBlock: NUHQUE_clean_sbu_2, # of connection points: 7
#     Node 36, Type 0, BuildingBlock: NUHQUE_clean_sbu_2, # of connection points: 7
#     Node 37, Type 0, BuildingBlock: NUHQUE_clean_sbu_2, # of connection points: 7
#     Node 38, Type 0, BuildingBlock: NUHQUE_clean_sbu_2, # of connection points: 7
#     Node 39, Type 0, BuildingBlock: NUHQUE_clean_sbu_2, # of connection points: 7
#     Node 40, Type 0, BuildingBlock: NUHQUE_clean_sbu_2, # of connection points: 7
#     Node 41, Type 0, BuildingBlock: NUHQUE_clean_sbu_2, # of connection points: 7
#     Node 42, Type 0, BuildingBlock: NUHQUE_clean_sbu_2, # of connection points: 7
#     Node 43, Type 0, BuildingBlock: NUHQUE_clean_sbu_2, # of connection points: 7
#     Node 44, Type 0, BuildingBlock: NUHQUE_clean_sbu_2, # of connection points: 7
#     Node 45, Type 0, BuildingBlock: NUHQUE_clean_sbu_2, # of connection points: 7
#     Node 46, Type 0, BuildingBlock: NUHQUE_clean_sbu_2, # of connection points: 7
#     Node 47, Type 0, BuildingBlock: NUHQUE_clean_sbu_2, # of connection points: 7
#     Edge 48, Type (0, 0), None
#     Edge 49, Type (0, 0), None
#     Edge 50, Type (0, 0), None
#     Edge 51, Type (0, 0), None
#     Edge 52, Type (0, 0), None
#     Edge 53, Type (0, 0), None
#     Edge 54, Type (0, 0), None
#     Edge 55, Type (0, 0), None
#     Edge 56, Type (0, 0), None
#     Edge 57, Type (0, 0), None
#     Edge 58, Type (0, 0), None
#     Edge 59, Type (0, 0), None
#     Edge 60, Type (0, 0), None
#     Edge 61, Type (0, 0), None
#     Edge 62, Type (0, 0), None
#     Edge 63, Type (0, 0), None
#     Edge 64, Type (0, 0), None
#     Edge 65, Type (0, 0), None
#     Edge 66, Type (0, 0), None
#     Edge 67, Type (0, 0), None
#     Edge 68, Type (0, 0), None
#     Edge 69, Type (0, 0), None
#     Edge 70, Type (0, 0), None
#     Edge 71, Type (0, 0), None
#     Edge 72, Type (0, 0), None
#     Edge 73, Type (0, 0), None
#     Edge 74, Type (0, 0), None
#     Edge 75, Type (0, 0), None
#     Edge 76, Type (0, 0), None
#     Edge 77, Type (0, 0), None
#     Edge 78, Type (0, 0), None
#     Edge 79, Type (0, 0), None
#     Edge 80, Type (0, 0), None
#     Edge 81, Type (0, 0), None
#     Edge 82, Type (0, 0), None
#     Edge 83, Type (0, 0), None
#     Edge 84, Type (0, 0), None
#     Edge 85, Type (0, 0), None
#     Edge 86, Type (0, 0), None
#     Edge 87, Type (0, 0), None
#     Edge 88, Type (0, 0), None
#     Edge 89, Type (0, 0), None
#     Edge 90, Type (0, 0), None
#     Edge 91, Type (0, 0), None
#     Edge 92, Type (0, 0), None
#     Edge 93, Type (0, 0), None
#     Edge 94, Type (0, 0), None
#     Edge 95, Type (0, 0), None
#     Edge 96, Type (0, 0), None
#     Edge 97, Type (0, 0), None
#     Edge 98, Type (0, 0), None
#     Edge 99, Type (0, 0), None
#     Edge 100, Type (0, 0), None
#     Edge 101, Type (0, 0), None
#     Edge 102, Type (0, 0), None
#     Edge 103, Type (0, 0), None
#     Edge 104, Type (0, 0), None
#     Edge 105, Type (0, 0), None
#     Edge 106, Type (0, 0), None
#     Edge 107, Type (0, 0), None
#     Edge 108, Type (0, 0), None
#     Edge 109, Type (0, 0), None
#     Edge 110, Type (0, 0), None
#     Edge 111, Type (0, 0), None
#     Edge 112, Type (0, 0), None
#     Edge 113, Type (0, 0), None
#     Edge 114, Type (0, 0), None
#     Edge 115, Type (0, 0), None
#     Edge 116, Type (0, 0), None
#     Edge 117, Type (0, 0), None
#     Edge 118, Type (0, 0), None
#     Edge 119, Type (0, 0), None
#     Edge 120, Type (0, 0), None
#     Edge 121, Type (0, 0), None
#     Edge 122, Type (0, 0), None
#     Edge 123, Type (0, 0), None
#     Edge 124, Type (0, 0), None
#     Edge 125, Type (0, 0), None
#     Edge 126, Type (0, 0), None
#     Edge 127, Type (0, 0), None
#     Edge 128, Type (0, 0), None
#     Edge 129, Type (0, 0), None
#     Edge 130, Type (0, 0), None
#     Edge 131, Type (0, 0), None
#     Edge 132, Type (0, 0), None
#     Edge 133, Type (0, 0), None
#     Edge 134, Type (0, 0), None
#     Edge 135, Type (0, 0), None
#     Edge 136, Type (0, 0), None
#     Edge 137, Type (0, 0), None
#     Edge 138, Type (0, 0), None
#     Edge 139, Type (0, 0), None
#     Edge 140, Type (0, 0), None
#     Edge 141, Type (0, 0), None
#     Edge 142, Type (0, 0), None
#     Edge 143, Type (0, 0), None
#     Edge 144, Type (0, 0), None
#     Edge 145, Type (0, 0), None
#     Edge 146, Type (0, 0), None
#     Edge 147, Type (0, 0), None
#     Edge 148, Type (0, 0), None
#     Edge 149, Type (0, 0), None
#     Edge 150, Type (0, 0), None
#     Edge 151, Type (0, 0), None
#     Edge 152, Type (0, 0), None
#     Edge 153, Type (0, 0), None
#     Edge 154, Type (0, 0), None
#     Edge 155, Type (0, 0), None
#     Edge 156, Type (0, 0), None
#     Edge 157, Type (0, 0), None
#     Edge 158, Type (0, 0), None
#     Edge 159, Type (0, 0), None
#     Edge 160, Type (0, 0), None
#     Edge 161, Type (0, 0), None
#     Edge 162, Type (0, 0), None
#     Edge 163, Type (0, 0), None
#     Edge 164, Type (0, 0), None
#     Edge 165, Type (0, 0), None
#     Edge 166, Type (0, 0), None
#     Edge 167, Type (0, 0), None
#     Edge 168, Type (0, 0), None
#     Edge 169, Type (0, 0), None
#     Edge 170, Type (0, 0), None
#     Edge 171, Type (0, 0), None
#     Edge 172, Type (0, 0), None
#     Edge 173, Type (0, 0), None
#     Edge 174, Type (0, 0), None
#     Edge 175, Type (0, 0), None
#     Edge 176, Type (0, 0), None
#     Edge 177, Type (0, 0), None
#     Edge 178, Type (0, 0), None
#     Edge 179, Type (0, 0), None
#     Edge 180, Type (0, 0), None
#     Edge 181, Type (0, 0), None
#     Edge 182, Type (0, 0), None
#     Edge 183, Type (0, 0), None
#     Edge 184, Type (0, 0), None
#     Edge 185, Type (0, 0), None
#     Edge 186, Type (0, 0), None
#     Edge 187, Type (0, 0), None
#     Edge 188, Type (0, 0), None
#     Edge 189, Type (0, 0), None
#     Edge 190, Type (0, 0), None
#     Edge 191, Type (0, 0), None
#     Edge 192, Type (0, 0), None
#     Edge 193, Type (0, 0), None
#     Edge 194, Type (0, 0), None
#     Edge 195, Type (0, 0), None
#     Edge 196, Type (0, 0), None
#     Edge 197, Type (0, 0), None
#     Edge 198, Type (0, 0), None
#     Edge 199, Type (0, 0), None
#     Edge 200, Type (0, 0), None
#     Edge 201, Type (0, 0), None
#     Edge 202, Type (0, 0), None
#     Edge 203, Type (0, 0), None
#     Edge 204, Type (0, 0), None
#     Edge 205, Type (0, 0), None
#     Edge 206, Type (0, 0), None
#     Edge 207, Type (0, 0), None
#     Edge 208, Type (0, 0), None
#     Edge 209, Type (0, 0), None
#     Edge 210, Type (0, 0), None
#     Edge 211, Type (0, 0), None
#     Edge 212, Type (0, 0), None
#     Edge 213, Type (0, 0), None
#     Edge 214, Type (0, 0), None
#     Edge 215, Type (0, 0), None
# Relax obj value: 0.378
# Max RMSD: 0.247
# Mean RMSD: 0.247
data_MOF--net-svx--node1-NUHQUE_clean_sbu_2--edge1-none
_symmetry_space_group_name_H-M    P1
_symmetry_Int_Tables_number       1
_symmetry_cell_setting            triclinic
loop_
_symmetry_equiv_pos_as_xyz
'x, y, z'
_cell_length_a     31.986323
_cell_length_b     31.986761
_cell_length_c     31.98596
_cell_angle_alpha  89.998263
_cell_angle_beta   90.000868
_cell_angle_gamma 89.999494
loop_
_atom_site_label
_atom_site_type_symbol
_atom_site_fract_x
_atom_site_fract_y
_atom_site_fract_z
_atom_type_partial_charge
O0 O 0.20616 0.35769 0.44018 0.0
Tb1 Tb 0.17927 0.40691 0.40344 0.0
Eu2 Eu 0.18153 0.44793 0.31873 0.0
C3 C 0.21556 0.36265 0.47977 0.0
O4 O 0.22456 0.39983 0.49466 0.0
C5 C 0.12126 0.3665 0.33449 0.0
O6 O 0.18969 0.49774 0.26748 0.0
C7 C 0.25055 0.40533 0.31842 0.0
C8 C 0.21863 0.52723 0.27306 0.0
O9 O 0.23892 0.5284 0.30869 0.0
C10 C 0.22102 0.48896 0.39875 0.0
C11 C 0.28958 0.41079 0.34246 0.0
C12 C 0.29359 0.3921 0.38229 0.0
C13 C 0.33059 0.39728 0.40586 0.0
C14 C 0.35766 0.42888 0.39094 0.0
C15 C 0.36288 0.42944 0.34715 0.0
C16 C 0.32485 0.43026 0.32475 0.0
O17 O 0.14875 0.35892 0.36428 0.0
O18 O 0.12271 0.40376 0.31508 0.0
O19 O 0.14978 0.42094 0.46203 0.0
O20 O 0.12526 0.44944 0.40692 0.0
C21 C 0.12278 0.44724 0.44751 0.0
O22 O 0.19052 0.49528 0.37167 0.0
O23 O 0.23138 0.45028 0.40596 0.0
O24 O 0.24183 0.43304 0.28956 0.0
O25 O 0.21794 0.3952 0.34057 0.0
H26 H 0.26937 0.3711 0.39278 0.0
H27 H 0.38329 0.43902 0.41046 0.0
H28 H 0.32432 0.43909 0.29208 0.0
O29 O 0.6077 0.74802 1.01402 0.0
Tb30 Tb 0.65693 0.7749 1.05075 0.0
Eu31 Eu 0.69795 0.77265 0.13546 0.0
C32 C 0.61266 0.73861 0.97443 0.0
O33 O 0.64984 0.72961 0.95954 0.0
C34 C 0.61652 0.83292 0.1197 0.0
O35 O 0.74777 0.76448 0.18671 0.0
C36 C 0.65535 0.70363 0.13577 0.0
C37 C 0.77726 0.73555 0.18112 0.0
O38 O 0.77842 0.71526 0.1455 0.0
C39 C 0.73899 0.73316 1.05544 0.0
C40 C 0.66081 0.66461 0.11173 0.0
C41 C 0.64212 0.6606 1.0719 0.0
C42 C 0.64731 0.6236 1.04833 0.0
C43 C 0.67891 0.59654 1.06325 0.0
C44 C 0.67947 0.59131 0.10704 0.0
C45 C 0.68029 0.62934 0.12944 0.0
O46 O 0.60895 0.80543 1.08991 0.0
O47 O 0.65378 0.83147 0.1391 0.0
O48 O 0.67096 0.80438 0.99215 0.0
O49 O 0.69946 0.82891 1.04726 0.0
C50 C 0.69726 0.83139 1.00667 0.0
O51 O 0.7453 0.76366 1.08252 0.0
O52 O 0.7003 0.7228 1.04824 0.0
O53 O 0.68306 0.71235 0.16463 0.0
O54 O 0.64522 0.73624 0.11362 0.0
H55 H 0.62111 0.68481 1.06141 0.0
H56 H 0.68906 0.57091 1.04373 0.0
H57 H 0.68911 0.62987 0.16211 0.0
O58 O 0.998 0.34647 0.44017 0.0
Tb59 Tb 1.02489 0.29724 0.40344 0.0
Eu60 Eu 1.02265 0.25622 0.31872 0.0
C61 C 0.98859 0.34151 0.47976 0.0
O62 O 0.9796 0.30433 0.49465 0.0
C63 C 1.08291 0.33764 0.33449 0.0
O64 O 1.01449 0.20641 0.26747 0.0
C65 C 0.95363 0.29882 0.31841 0.0
C66 C 0.98556 0.17691 0.27306 0.0
O67 O 0.96527 0.17574 0.30869 0.0
C68 C 0.98316 0.21518 0.39874 0.0
C69 C 0.9146 0.29336 0.34245 0.0
C70 C 0.91059 0.31205 0.38228 0.0
C71 C 0.87359 0.30687 0.40585 0.0
C72 C 0.84653 0.27526 0.39093 0.0
C73 C 0.8413 0.2747 0.34714 0.0
C74 C 0.87934 0.27388 0.32475 0.0
O75 O 1.05543 0.34522 0.36429 0.0
O76 O 1.08147 0.30039 0.31507 0.0
O77 O 1.05437 0.28321 0.46204 0.0
O78 O 1.0789 0.25472 0.40693 0.0
C79 C 1.08137 0.25691 0.44752 0.0
O80 O 1.01366 0.20887 0.37167 0.0
O81 O 0.97279 0.25386 0.40595 0.0
O82 O 0.96235 0.27111 0.28955 0.0
O83 O 0.98624 0.30895 0.34056 0.0
H84 H 0.9348 0.33306 0.39276 0.0
H85 H 0.8209 0.26511 0.41045 0.0
H86 H 0.87987 0.26505 0.29208 0.0
O87 O 0.59648 0.95616 1.014 0.0
Tb88 Tb 0.54726 0.92928 1.05074 0.0
Eu89 Eu 0.50623 0.93153 0.13546 0.0
C90 C 0.59152 0.96556 0.9744 0.0
O91 O 0.55434 0.97456 0.95951 0.0
C92 C 0.58767 0.87127 0.11969 0.0
O93 O 0.45642 0.93969 0.18671 0.0
C94 C 0.54884 1.00054 0.13576 0.0
C95 C 0.42692 0.96862 0.18112 0.0
O96 O 0.42575 0.9889 0.1455 0.0
C97 C 0.4652 0.97101 1.05544 0.0
C98 C 0.54337 1.03957 0.11172 0.0
C99 C 0.56206 1.04358 1.07189 0.0
C100 C 0.55689 1.08058 1.04832 0.0
C101 C 0.52529 0.10765 1.06324 0.0
C102 C 0.52473 0.11287 0.10703 0.0
C103 C 0.5239 1.07484 0.12943 0.0
O104 O 0.59524 0.89875 1.08989 0.0
O105 O 0.55041 0.87271 0.13911 0.0
O106 O 0.53322 0.8998 0.99214 0.0
O107 O 0.50473 0.87527 1.04725 0.0
C108 C 0.50692 0.87279 1.00666 0.0
O109 O 0.45889 0.94051 1.08252 0.0
O110 O 0.50388 0.98137 1.04823 0.0
O111 O 0.52112 0.99183 0.16463 0.0
O112 O 0.55897 0.96794 0.11362 0.0
H113 H 0.58306 1.01937 1.0614 0.0
H114 H 0.51514 0.13328 1.04372 0.0
H115 H 0.51507 1.07431 0.1621 0.0
O116 O 0.20617 0.84646 0.26402 0.0
Tb117 Tb 0.17928 0.79723 0.30076 0.0
Eu118 Eu 0.18154 0.75621 0.38547 0.0
C119 C 0.21558 0.8415 0.22443 0.0
O120 O 0.22457 0.80432 0.20954 0.0
C121 C 0.12128 0.83765 0.36971 0.0
O122 O 0.1897 0.70642 0.43674 0.0
C123 C 0.25056 0.79881 0.38578 0.0
C124 C 0.21862 0.67692 0.43116 0.0
O125 O 0.2389 0.67573 0.39554 0.0
C126 C 0.22103 0.71517 0.30545 0.0
C127 C 0.28958 0.79335 0.36173 0.0
C128 C 0.29359 0.81205 0.3219 0.0
C129 C 0.33058 0.80687 0.29833 0.0
C130 C 0.35765 0.77526 0.31324 0.0
C131 C 0.36288 0.77469 0.35703 0.0
C132 C 0.32485 0.77386 0.37942 0.0
O133 O 0.14877 0.84522 0.33992 0.0
O134 O 0.12272 0.80038 0.38911 0.0
O135 O 0.1498 0.78322 0.24216 0.0
O136 O 0.12528 0.75471 0.29727 0.0
C137 C 0.1228 0.75691 0.25668 0.0
O138 O 0.19053 0.70886 0.33253 0.0
O139 O 0.23139 0.75386 0.29824 0.0
O140 O 0.24184 0.77109 0.41464 0.0
O141 O 0.21794 0.80894 0.36364 0.0
H142 H 0.26938 0.83306 0.31143 0.0
H143 H 0.38328 0.76512 0.29372 0.0
H144 H 0.32432 0.76502 0.41209 0.0
O145 O 1.0965 0.74799 0.19018 0.0
Tb146 Tb 1.04728 0.77489 0.15343 0.0
Eu147 Eu 1.00624 0.77261 1.06872 0.0
C148 C 1.09153 0.73853 0.22976 0.0
O149 O 1.05434 0.72967 0.24471 0.0
C150 C 1.08767 0.83288 1.08446 0.0
O151 O 0.95644 0.76444 1.01745 0.0
C152 C 1.04884 0.70359 1.06843 0.0
C153 C 0.92695 0.73551 1.02304 0.0
O154 O 0.92576 0.71524 1.05867 0.0
C155 C 0.96521 0.73314 0.14876 0.0
C156 C 1.04337 0.66457 1.09247 0.0
C157 C 1.06206 0.66056 0.13231 0.0
C158 C 1.05689 0.62356 0.15587 0.0
C159 C 1.02529 0.59649 0.14096 0.0
C160 C 1.02472 0.59127 1.09717 0.0
C161 C 1.0239 0.6293 1.07477 0.0
O162 O 1.09525 0.80539 0.11425 0.0
O163 O 1.0504 0.83143 1.06506 0.0
O164 O 1.03331 0.80442 0.21202 0.0
O165 O 1.00473 0.82888 0.15692 0.0
C166 C 1.00697 0.83139 0.19751 0.0
O167 O 0.95889 0.76362 0.12166 0.0
O168 O 1.0039 0.72279 0.15598 0.0
O169 O 1.02113 0.71231 1.03956 0.0
O170 O 1.05897 0.7362 1.09057 0.0
H171 H 1.08307 0.68477 0.14279 0.0
H172 H 1.01515 0.57086 0.16048 0.0
H173 H 1.01506 0.62983 1.0421 0.0
O174 O 0.99802 0.85768 0.264 0.0
Tb175 Tb 1.02492 0.90689 0.30074 0.0
Eu176 Eu 1.02266 0.94792 0.38547 0.0
C177 C 0.98857 0.86264 0.22442 0.0
O178 O 0.97969 0.89982 0.20947 0.0
C179 C 1.08293 0.8665 0.3697 0.0
O180 O 1.0145 0.99772 0.43673 0.0
C181 C 0.95365 0.90531 0.38577 0.0
C182 C 0.98557 1.02721 0.43115 0.0
O183 O 0.96528 1.02839 0.39552 0.0
C184 C 0.98318 0.98896 0.30544 0.0
C185 C 0.91462 0.91078 0.36173 0.0
C186 C 0.91061 0.89209 0.3219 0.0
C187 C 0.87361 0.89728 0.29833 0.0
C188 C 0.84655 0.92888 0.31324 0.0
C189 C 0.84132 0.92945 0.35703 0.0
C190 C 0.87935 0.93026 0.37943 0.0
O191 O 1.05545 0.85892 0.3399 0.0
O192 O 1.08148 0.90375 0.38912 0.0
O193 O 1.05442 0.9209 0.24214 0.0
O194 O 1.07892 0.94944 0.29724 0.0
C195 C 1.08141 0.94722 0.25666 0.0
O196 O 1.01367 0.99527 0.33253 0.0
O197 O 0.97282 0.95028 0.29823 0.0
O198 O 0.96237 0.93302 0.41463 0.0
O199 O 0.98626 0.89519 0.36362 0.0
H200 H 0.93482 0.87108 0.31141 0.0
H201 H 0.82092 0.93903 0.29372 0.0
H202 H 0.87988 0.93909 0.4121 0.0
O203 O 0.10768 0.95618 0.19016 0.0
Tb204 Tb 0.15687 0.92924 0.15342 0.0
Eu205 Eu 0.19795 0.9315 1.06871 0.0
C206 C 0.11266 0.96562 0.22974 0.0
O207 O 0.14986 0.97446 0.24468 0.0
C208 C 0.11651 0.87124 1.08446 0.0
O209 O 0.24775 0.93966 1.01746 0.0
C210 C 0.15535 1.00052 1.0684 0.0
C211 C 0.27725 0.96859 1.02304 0.0
O212 O 0.27842 0.98887 1.05867 0.0
C213 C 0.23896 0.97097 0.14876 0.0
C214 C 0.16081 1.03954 1.09244 0.0
C215 C 0.14212 1.04355 0.13227 0.0
C216 C 0.1473 1.08054 0.15585 0.0
C217 C 0.17891 0.1076 0.14094 0.0
C218 C 0.17948 0.11284 1.09715 0.0
C219 C 0.1803 1.07481 1.07475 0.0
O220 O 0.10891 0.89873 0.11423 0.0
O221 O 0.15378 0.87268 1.06506 0.0
O222 O 0.17076 0.89966 0.21201 0.0
O223 O 0.19946 0.87527 0.15693 0.0
C224 C 0.19712 0.8727 0.1975 0.0
O225 O 0.24528 0.94049 0.12167 0.0
O226 O 0.20027 0.98132 0.15598 0.0
O227 O 0.18306 0.9918 1.03954 0.0
O228 O 0.14521 0.96791 1.09054 0.0
H229 H 0.1211 1.01935 0.14275 0.0
H230 H 0.18906 0.13323 0.16046 0.0
H231 H 0.18914 1.07428 1.04208 0.0
O232 O 0.44018 0.20612 0.35769 0.0
Tb233 Tb 0.40344 0.17925 0.40693 0.0
Eu234 Eu 0.31871 0.18153 0.44793 0.0
C235 C 0.47977 0.21554 0.36265 0.0
O236 O 0.49465 0.22455 0.39982 0.0
C237 C 0.33448 0.12125 0.36651 0.0
O238 O 0.26744 0.1897 0.49772 0.0
C239 C 0.31843 0.25054 0.40531 0.0
C240 C 0.27302 0.21864 0.52722 0.0
O241 O 0.30865 0.23891 0.5284 0.0
C242 C 0.39872 0.22101 0.48898 0.0
C243 C 0.34247 0.28957 0.41079 0.0
C244 C 0.38231 0.29357 0.39212 0.0
C245 C 0.40588 0.33058 0.3973 0.0
C246 C 0.39096 0.35766 0.42888 0.0
C247 C 0.34717 0.36284 0.42945 0.0
C248 C 0.32475 0.32483 0.43025 0.0
O249 O 0.36428 0.14873 0.35894 0.0
O250 O 0.31506 0.12271 0.40377 0.0
O251 O 0.46204 0.14978 0.42097 0.0
O252 O 0.40693 0.12525 0.44946 0.0
C253 C 0.44752 0.12278 0.44727 0.0
O254 O 0.37164 0.19052 0.49529 0.0
O255 O 0.40594 0.23136 0.4503 0.0
O256 O 0.28955 0.24182 0.43301 0.0
O257 O 0.34058 0.21793 0.3952 0.0
H258 H 0.39281 0.26936 0.37113 0.0
H259 H 0.41046 0.3833 0.43902 0.0
H260 H 0.29208 0.32431 0.43907 0.0
O261 O 0.45615 0.51397 1.09648 0.0
Tb262 Tb 0.42927 0.55071 1.04726 0.0
Eu263 Eu 0.43155 0.63544 1.00625 0.0
C264 C 0.46556 0.47438 1.09152 0.0
O265 O 0.47456 0.45949 1.05434 0.0
C266 C 0.37127 0.61967 1.08768 0.0
O267 O 0.43972 0.68671 0.95645 0.0
C268 C 0.50056 0.63572 1.04886 0.0
C269 C 0.46865 0.68113 0.92696 0.0
O270 O 0.48894 0.64551 0.92577 0.0
C271 C 0.47104 0.55543 0.96521 0.0
C272 C 0.53959 0.6117 1.04339 0.0
C273 C 0.54361 0.57185 1.06205 0.0
C274 C 0.58062 0.54829 1.05688 0.0
C275 C 0.6077 0.56323 1.0253 0.0
C276 C 0.61288 0.60702 1.02474 0.0
C277 C 0.57486 0.62943 1.02394 0.0
O278 O 0.39876 0.58987 1.09524 0.0
O279 O 0.37273 0.63908 1.05041 0.0
O280 O 0.39979 0.49211 1.03322 0.0
O281 O 0.37527 0.54722 1.00472 0.0
C282 C 0.3728 0.50663 1.00691 0.0
O283 O 0.44054 0.58251 0.95889 0.0
O284 O 0.48138 0.54821 1.00389 0.0
O285 O 0.49184 0.66461 1.02117 0.0
O286 O 0.46795 0.61357 1.05897 0.0
H287 H 0.51939 0.56134 1.08303 0.0
H288 H 0.63335 0.54373 1.01516 0.0
H289 H 0.57433 0.6621 1.01513 0.0
O290 O 0.76398 0.49803 0.3577 0.0
Tb291 Tb 0.80071 0.5249 0.40694 0.0
Eu292 Eu 0.88544 0.52262 0.44795 0.0
C293 C 0.72439 0.48861 0.36265 0.0
O294 O 0.70949 0.47961 0.39983 0.0
C295 C 0.86967 0.5829 0.36652 0.0
O296 O 0.93671 0.51445 0.49774 0.0
C297 C 0.88572 0.45361 0.40533 0.0
C298 C 0.93113 0.48552 0.52724 0.0
O299 O 0.8955 0.46524 0.52842 0.0
C300 C 0.80542 0.48314 0.48899 0.0
C301 C 0.86169 0.41458 0.4108 0.0
C302 C 0.82184 0.41057 0.39214 0.0
C303 C 0.79829 0.37356 0.3973 0.0
C304 C 0.81322 0.34647 0.42888 0.0
C305 C 0.85701 0.3413 0.42944 0.0
C306 C 0.87942 0.37931 0.43025 0.0
O307 O 0.83987 0.55542 0.35895 0.0
O308 O 0.88908 0.58144 0.40378 0.0
O309 O 0.74211 0.55437 0.42097 0.0
O310 O 0.79722 0.57891 0.44946 0.0
C311 C 0.75663 0.58137 0.44727 0.0
O312 O 0.83251 0.51363 0.49531 0.0
O313 O 0.7982 0.47279 0.45031 0.0
O314 O 0.9146 0.46233 0.43303 0.0
O315 O 0.86357 0.48622 0.39522 0.0
H316 H 0.81133 0.43479 0.37115 0.0
H317 H 0.79372 0.32082 0.43901 0.0
H318 H 0.9121 0.37984 0.43906 0.0
O319 O 0.74804 0.19017 1.09649 0.0
Tb320 Tb 0.77491 0.15343 1.04726 0.0
Eu321 Eu 0.77263 1.0687 1.00625 0.0
C322 C 0.73862 0.22976 1.09153 0.0
O323 O 0.72962 0.24465 1.05436 0.0
C324 C 0.83292 1.08448 1.08768 0.0
O325 O 0.76446 1.01743 0.95646 0.0
C326 C 0.70363 1.06843 1.04887 0.0
C327 C 0.73553 1.02302 0.92697 0.0
O328 O 0.71525 1.05864 0.92579 0.0
C329 C 0.73315 0.14871 0.96521 0.0
C330 C 0.6646 1.09246 1.0434 0.0
C331 C 0.66059 0.13231 1.06206 0.0
C332 C 0.62359 0.15587 1.05689 0.0
C333 C 0.5965 0.14095 1.0253 0.0
C334 C 0.59132 1.09716 1.02474 0.0
C335 C 0.62933 1.07474 1.02393 0.0
O336 O 0.80544 0.11428 1.09524 0.0
O337 O 0.83146 1.06506 1.05042 0.0
O338 O 0.80438 0.21204 1.03322 0.0
O339 O 0.82892 0.15693 1.00473 0.0
C340 C 0.83139 0.19752 1.00692 0.0
O341 O 0.76365 0.12163 0.95889 0.0
O342 O 0.7228 0.15594 1.00389 0.0
O343 O 0.71234 1.03955 1.02117 0.0
O344 O 0.73624 1.09057 1.05898 0.0
H345 H 0.68481 0.1428 1.08306 0.0
H346 H 0.57086 0.16046 1.01516 0.0
H347 H 0.62986 1.04207 1.01511 0.0
O348 O 0.4402 0.99802 0.34649 0.0
Tb349 Tb 0.40346 1.0249 0.29726 0.0
Eu350 Eu 0.31871 1.02262 0.25624 0.0
C351 C 0.47979 0.98862 0.34153 0.0
O352 O 0.49468 0.97962 0.30435 0.0
C353 C 0.33449 1.0829 0.33766 0.0
O354 O 0.26746 1.01444 0.20644 0.0
C355 C 0.31844 0.95361 0.29886 0.0
C356 C 0.27304 0.98549 0.17696 0.0
O357 O 0.30865 0.96519 0.1758 0.0
C358 C 0.39874 0.98315 0.21521 0.0
C359 C 0.34247 0.91458 0.29339 0.0
C360 C 0.38232 0.91057 0.31205 0.0
C361 C 0.40588 0.87356 0.30688 0.0
C362 C 0.39095 0.84648 0.2753 0.0
C363 C 0.34716 0.8413 0.27474 0.0
C364 C 0.32474 0.87931 0.27394 0.0
O365 O 0.3643 1.05543 0.34524 0.0
O366 O 0.31506 1.08144 0.30041 0.0
O367 O 0.46206 1.05438 0.28323 0.0
O368 O 0.40695 1.0789 0.25471 0.0
C369 C 0.44753 1.08138 0.25692 0.0
O370 O 0.37164 1.01363 0.20888 0.0
O371 O 0.40597 0.9728 0.25389 0.0
O372 O 0.28955 0.96233 0.27117 0.0
O373 O 0.34059 0.98622 0.30897 0.0
H374 H 0.39283 0.93479 0.33304 0.0
H375 H 0.41045 0.82083 0.26516 0.0
H376 H 0.29207 0.87984 0.26513 0.0
O377 O 0.24803 0.51397 0.10769 0.0
Tb378 Tb 0.27491 0.5507 0.15692 0.0
Eu379 Eu 0.27265 0.63543 0.19795 0.0
C380 C 0.23862 0.47438 0.11264 0.0
O381 O 0.22962 0.45948 0.14982 0.0
C382 C 0.33292 0.61966 0.11652 0.0
O383 O 0.26448 0.68668 0.24776 0.0
C384 C 0.20364 0.63572 0.15533 0.0
C385 C 0.23554 0.6811 0.27725 0.0
O386 O 0.21523 0.64548 0.27841 0.0
C387 C 0.23317 0.55541 0.23898 0.0
C388 C 0.16461 0.61169 0.1608 0.0
C389 C 0.1606 0.57184 0.14213 0.0
C390 C 0.1236 0.54827 0.1473 0.0
C391 C 1.09652 0.56319 0.17889 0.0
C392 C 1.09133 0.60698 0.17946 0.0
C393 C 0.12934 0.6294 0.18026 0.0
O394 O 0.30544 0.58986 0.10894 0.0
O395 O 0.33147 0.63908 0.15378 0.0
O396 O 0.30439 0.4921 0.17095 0.0
O397 O 0.32891 0.5472 0.19946 0.0
C398 C 0.33139 0.50661 0.19726 0.0
O399 O 0.26365 0.5825 0.2453 0.0
O400 O 0.22281 0.54819 0.2003 0.0
O401 O 0.21235 0.6646 0.18303 0.0
O402 O 0.23625 0.61357 0.14522 0.0
H403 H 0.18481 0.56135 0.12113 0.0
H404 H 1.07087 0.54369 0.18903 0.0
H405 H 0.12986 0.66207 0.18908 0.0
O406 O 0.76397 0.70615 0.34649 0.0
Tb407 Tb 0.80071 0.67926 0.29727 0.0
Eu408 Eu 0.88545 0.68153 0.25625 0.0
C409 C 0.72438 0.71555 0.34152 0.0
O410 O 0.70949 0.72455 0.30434 0.0
C411 C 0.86967 0.62125 0.33767 0.0
O412 O 0.93671 0.68969 0.20644 0.0
C413 C 0.88574 0.75053 0.29886 0.0
C414 C 0.93113 0.71863 0.17696 0.0
O415 O 0.89552 0.73893 0.17579 0.0
C416 C 0.80543 0.72101 0.21521 0.0
C417 C 0.86171 0.78957 0.29339 0.0
C418 C 0.82187 0.79358 0.31205 0.0
C419 C 0.79831 0.83059 0.30688 0.0
C420 C 0.81324 0.85767 0.27529 0.0
C421 C 0.85703 0.86285 0.27473 0.0
C422 C 0.87944 0.82483 0.27393 0.0
O423 O 0.83987 0.64873 0.34525 0.0
O424 O 0.88909 0.6227 0.30042 0.0
O425 O 0.74211 0.64978 0.28323 0.0
O426 O 0.79722 0.62527 0.25472 0.0
C427 C 0.75664 0.62279 0.25692 0.0
O428 O 0.83252 0.69053 0.20889 0.0
O429 O 0.79821 0.73137 0.25389 0.0
O430 O 0.91462 0.74181 0.27117 0.0
O431 O 0.86359 0.71793 0.30897 0.0
H432 H 0.81136 0.76937 0.33304 0.0
H433 H 0.79374 0.88332 0.26515 0.0
H434 H 0.91212 0.8243 0.26512 0.0
O435 O 0.95616 0.19018 0.1077 0.0
Tb436 Tb 0.92927 0.15345 0.15692 0.0
Eu437 Eu 0.93155 1.06871 0.19795 0.0
C438 C 0.96557 0.22978 0.11266 0.0
O439 O 0.97456 0.24466 0.14983 0.0
C440 C 0.87127 1.08448 0.11653 0.0
O441 O 0.93972 1.01746 0.24776 0.0
C442 C 1.00055 1.06843 0.15533 0.0
C443 C 0.96867 1.02303 0.27724 0.0
O444 O 0.98897 1.05865 0.2784 0.0
C445 C 0.97102 0.14873 0.23898 0.0
C446 C 1.03959 1.09245 0.1608 0.0
C447 C 1.0436 0.1323 0.14214 0.0
C448 C 1.08062 0.15585 0.14731 0.0
C449 C 0.1077 0.14092 0.17888 0.0
C450 C 0.11287 1.09712 0.17944 0.0
C451 C 1.07486 1.07472 0.18025 0.0
O452 O 0.89874 0.11429 0.10895 0.0
O453 O 0.87272 1.06506 0.15378 0.0
O454 O 0.89979 0.21205 0.17094 0.0
O455 O 0.87528 0.15694 0.19947 0.0
C456 C 0.8728 0.19753 0.19726 0.0
O457 O 0.94054 0.12164 0.2453 0.0
O458 O 0.98138 0.15595 0.2003 0.0
O459 O 0.99184 1.03954 0.18302 0.0
O460 O 0.96795 1.09058 0.14522 0.0
H461 H 1.01938 0.14281 0.12115 0.0
H462 H 0.13335 0.16041 0.18902 0.0
H463 H 1.07433 1.04204 0.18906 0.0
O464 O 0.35766 0.44011 0.2062 0.0
Tb465 Tb 0.40685 0.40337 0.17926 0.0
Eu466 Eu 0.44794 0.31868 0.18155 0.0
C467 C 0.36265 0.4797 0.21565 0.0
O468 O 0.39984 0.49463 0.22448 0.0
C469 C 0.3665 0.33439 0.12126 0.0
O470 O 0.49775 0.26742 0.18971 0.0
C471 C 0.40533 0.31837 0.25056 0.0
C472 C 0.52725 0.27301 0.21864 0.0
O473 O 0.52842 0.30864 0.23891 0.0
C474 C 0.48894 0.39873 0.22101 0.0
C475 C 0.41079 0.34242 0.28958 0.0
C476 C 0.3921 0.38225 0.29359 0.0
C477 C 0.3973 0.40582 0.33058 0.0
C478 C 0.42889 0.39094 0.35767 0.0
C479 C 0.42948 0.34715 0.36286 0.0
C480 C 0.43028 0.32472 0.32485 0.0
O481 O 0.3589 0.36416 0.14877 0.0
O482 O 0.40378 0.31502 0.12271 0.0
O483 O 0.42072 0.46195 0.14966 0.0
O484 O 0.44945 0.40688 0.1253 0.0
C485 C 0.44709 0.44745 0.12272 0.0
O486 O 0.49527 0.37163 0.19054 0.0
O487 O 0.45025 0.40595 0.23135 0.0
O488 O 0.43304 0.28951 0.24185 0.0
O489 O 0.3952 0.34051 0.21795 0.0
H490 H 0.37107 0.39273 0.26939 0.0
H491 H 0.43902 0.41046 0.3833 0.0
H492 H 0.43912 0.29205 0.32434 0.0
O493 O 0.35768 0.76399 0.49803 0.0
Tb494 Tb 0.40691 0.80074 0.5249 0.0
Eu495 Eu 0.44792 0.88547 0.52263 0.0
C496 C 0.36264 0.7244 0.48862 0.0
O497 O 0.39982 0.70951 0.47962 0.0
C498 C 0.36649 0.86969 0.5829 0.0
O499 O 0.49772 0.93673 0.51447 0.0
C500 C 0.40531 0.88576 0.45362 0.0
C501 C 0.52722 0.93115 0.48554 0.0
O502 O 0.5284 0.89553 0.46526 0.0
C503 C 0.48896 0.80545 0.48314 0.0
C504 C 0.41078 0.86172 0.41459 0.0
C505 C 0.39209 0.82188 0.41059 0.0
C506 C 0.39729 0.79832 0.37359 0.0
C507 C 0.42888 0.8132 0.34651 0.0
C508 C 0.42947 0.85699 0.34132 0.0
C509 C 0.43027 0.87941 0.37933 0.0
O510 O 0.35892 0.83989 0.55542 0.0
O511 O 0.40375 0.8891 0.58145 0.0
O512 O 0.42096 0.74214 0.55438 0.0
O513 O 0.44944 0.79725 0.57891 0.0
C514 C 0.44725 0.75666 0.58138 0.0
O515 O 0.49528 0.83253 0.51363 0.0
O516 O 0.45028 0.79824 0.47279 0.0
O517 O 0.43302 0.91463 0.46233 0.0
O518 O 0.39519 0.86361 0.48623 0.0
H519 H 0.37107 0.8114 0.43479 0.0
H520 H 0.43901 0.79368 0.32087 0.0
H521 H 0.43911 0.91208 0.37985 0.0
O522 O 1.01401 0.59646 0.95617 0.0
Tb523 Tb 1.05075 0.54724 0.92928 0.0
Eu524 Eu 0.13548 0.50622 0.93155 0.0
C525 C 0.97442 0.5915 0.96558 0.0
O526 O 0.95954 0.55432 0.97457 0.0
C527 C 0.11971 0.58765 0.87127 0.0
O528 O 0.18674 0.45642 0.93971 0.0
C529 C 0.13577 0.54883 1.00056 0.0
C530 C 0.18116 0.42692 0.96864 0.0
O531 O 0.14553 0.42574 0.98892 0.0
C532 C 1.05546 0.46518 0.97103 0.0
C533 C 0.11174 0.54336 1.03959 0.0
C534 C 1.0719 0.56205 1.0436 0.0
C535 C 1.04834 0.55685 1.0806 0.0
C536 C 1.06323 0.52526 0.10768 0.0
C537 C 0.10702 0.52468 0.11287 0.0
C538 C 0.12945 0.52388 1.07486 0.0
O539 O 1.08991 0.59522 0.89876 0.0
O540 O 0.13911 0.55039 0.87272 0.0
O541 O 0.99215 0.53321 0.8998 0.0
O542 O 1.04726 0.50471 0.87528 0.0
C543 C 1.00667 0.50691 0.8728 0.0
O544 O 1.08254 0.45887 0.94054 0.0
O545 O 1.04825 0.50386 0.98139 0.0
O546 O 0.16464 0.52112 0.99184 0.0
O547 O 0.11363 0.55895 0.96795 0.0
H548 H 1.06141 0.58306 1.01939 0.0
H549 H 1.04372 0.51513 0.13332 0.0
H550 H 0.16212 0.51505 1.07433 0.0
O551 O 0.8465 0.94014 0.49804 0.0
Tb552 Tb 0.79726 0.9034 0.5249 0.0
Eu553 Eu 0.75623 0.81868 0.52262 0.0
C554 C 0.84155 0.97973 0.48862 0.0
O555 O 0.80437 0.99463 0.47963 0.0
C556 C 0.83765 0.83443 0.58291 0.0
O557 O 0.70643 0.76742 0.51446 0.0
C558 C 0.79885 0.81839 0.45362 0.0
C559 C 0.67694 0.77301 0.48552 0.0
O560 O 0.67576 0.80864 0.46524 0.0
C561 C 0.71521 0.89871 0.48315 0.0
C562 C 0.79339 0.84244 0.41459 0.0
C563 C 0.81209 0.88227 0.41059 0.0
C564 C 0.8069 0.90583 0.37359 0.0
C565 C 0.77531 0.89096 0.3465 0.0
C566 C 0.77472 0.84717 0.34131 0.0
C567 C 0.77391 0.82474 0.37932 0.0
O568 O 0.84523 0.86423 0.55543 0.0
O569 O 0.80039 0.81503 0.58146 0.0
O570 O 0.78325 0.962 0.55439 0.0
O571 O 0.75473 0.9069 0.57891 0.0
C572 C 0.75694 0.94748 0.58139 0.0
O573 O 0.70889 0.87162 0.51364 0.0
O574 O 0.75389 0.90592 0.4728 0.0
O575 O 0.77114 0.78953 0.46233 0.0
O576 O 0.80897 0.84053 0.48623 0.0
H577 H 0.8331 0.89275 0.4348 0.0
H578 H 0.76519 0.91048 0.32086 0.0
H579 H 0.76507 0.79207 0.37984 0.0
O580 O 0.69013 0.60765 0.45621 0.0
Tb581 Tb 0.65338 0.65683 0.42926 0.0
Eu582 Eu 0.56869 0.69794 0.43153 0.0
C583 C 0.72971 0.61264 0.46565 0.0
O584 O 0.74464 0.64984 0.47447 0.0
C585 C 0.58439 0.61649 0.37126 0.0
O586 O 0.51745 0.74777 0.43968 0.0
C587 C 0.56838 0.65535 0.50055 0.0
C588 C 0.52304 0.77725 0.46862 0.0
O589 O 0.55866 0.77842 0.48892 0.0
C590 C 0.64876 0.73893 0.47098 0.0
C591 C 0.59243 0.66081 0.53958 0.0
C592 C 0.63226 0.64211 0.54358 0.0
C593 C 0.65584 0.6473 0.58057 0.0
C594 C 0.64093 0.6789 0.60763 0.0
C595 C 0.59714 0.67947 0.61287 0.0
C596 C 0.57474 0.6803 0.57485 0.0
O597 O 0.61416 0.60888 0.39877 0.0
O598 O 0.56504 0.65378 0.3727 0.0
O599 O 0.71195 0.67068 0.39964 0.0
O600 O 0.65688 0.69943 0.3753 0.0
C601 C 0.69745 0.69707 0.37271 0.0
O602 O 0.62164 0.74527 0.44052 0.0
O603 O 0.65597 0.70024 0.48133 0.0
O604 O 0.53952 0.68307 0.49183 0.0
O605 O 0.59051 0.6452 0.46794 0.0
H606 H 0.64272 0.62109 0.51937 0.0
H607 H 0.66046 0.68905 0.63326 0.0
H608 H 0.54207 0.68914 0.57432 0.0
O609 O 0.34648 0.764 0.70616 0.0
Tb610 Tb 0.29725 0.80073 0.67928 0.0
Eu611 Eu 0.25622 0.88546 0.68153 0.0
C612 C 0.34153 0.72441 0.71557 0.0
O613 O 0.30435 0.70952 0.72458 0.0
C614 C 0.33764 0.86968 0.62126 0.0
O615 O 0.2064 0.9367 0.68969 0.0
C616 C 0.29883 0.88576 0.75054 0.0
C617 C 0.17691 0.93111 0.71863 0.0
O618 O 0.17575 0.89549 0.73892 0.0
C619 C 0.21519 0.80544 0.72103 0.0
C620 C 0.29337 0.86172 0.78957 0.0
C621 C 0.31206 0.82189 0.79358 0.0
C622 C 0.30688 0.79832 0.83057 0.0
C623 C 0.27527 0.81323 0.85763 0.0
C624 C 0.2747 0.85702 0.86286 0.0
C625 C 0.27388 0.87941 0.82483 0.0
O626 O 0.34522 0.83988 0.64873 0.0
O627 O 0.30039 0.8891 0.62271 0.0
O628 O 0.28321 0.74212 0.64981 0.0
O629 O 0.25471 0.79723 0.62527 0.0
C630 C 0.25691 0.75664 0.6228 0.0
O631 O 0.20887 0.83251 0.69052 0.0
O632 O 0.25387 0.79823 0.73138 0.0
O633 O 0.27112 0.91462 0.74182 0.0
O634 O 0.30896 0.86361 0.71793 0.0
H635 H 0.33308 0.81141 0.76937 0.0
H636 H 0.26513 0.79371 0.88326 0.0
H637 H 0.26505 0.91208 0.8243 0.0
O638 O 1.01401 0.60768 0.74802 0.0
Tb639 Tb 1.05074 0.6569 0.77491 0.0
Eu640 Eu 0.13546 0.69793 0.77265 0.0
C641 C 0.97442 0.61264 0.73861 0.0
O642 O 0.95953 0.64982 0.72961 0.0
C643 C 0.1197 0.6165 0.83292 0.0
O644 O 0.1867 0.74775 0.76449 0.0
C645 C 0.13576 0.65533 0.70364 0.0
C646 C 0.18112 0.77723 0.73554 0.0
O647 O 0.1455 0.77839 0.71524 0.0
C648 C 1.05544 0.73896 0.73316 0.0
C649 C 0.11172 0.66079 0.66461 0.0
C650 C 1.07189 0.6421 0.6606 0.0
C651 C 1.04832 0.64728 0.6236 0.0
C652 C 1.06323 0.67889 0.59654 0.0
C653 C 0.10703 0.67945 0.59131 0.0
C654 C 0.12942 0.68027 0.62934 0.0
O655 O 1.0899 0.60892 0.80544 0.0
O656 O 0.13911 0.65376 0.83147 0.0
O657 O 0.99214 0.67093 0.80439 0.0
O658 O 1.04725 0.69943 0.82891 0.0
C659 C 1.00666 0.69723 0.83139 0.0
O660 O 1.08252 0.74528 0.76366 0.0
O661 O 1.04823 0.70028 0.7228 0.0
O662 O 0.16463 0.68304 0.71235 0.0
O663 O 0.11362 0.6452 0.73625 0.0
H664 H 1.06141 0.62109 0.68481 0.0
H665 H 1.04371 0.68904 0.57091 0.0
H666 H 0.16209 0.68911 0.62987 0.0
O667 O 0.19013 1.09648 0.74803 0.0
Tb668 Tb 0.1534 1.04726 0.77491 0.0
Eu669 Eu 1.06869 1.0062 0.77264 0.0
C670 C 0.22972 1.09152 0.73861 0.0
O671 O 0.24461 1.05435 0.72963 0.0
C672 C 1.08443 1.08763 0.83292 0.0
O673 O 1.01743 0.9564 0.76448 0.0
C674 C 1.06839 1.04881 0.70363 0.0
C675 C 1.02302 0.92691 0.73556 0.0
O676 O 1.05864 0.92572 0.71528 0.0
C677 C 0.14873 0.96519 0.73317 0.0
C678 C 1.09244 1.04335 0.66461 0.0
C679 C 0.13227 1.06205 0.66061 0.0
C680 C 0.15585 1.05687 0.62362 0.0
C681 C 0.14096 1.02526 0.59655 0.0
C682 C 1.09717 1.02468 0.59131 0.0
C683 C 1.07476 1.02385 0.62934 0.0
O684 O 0.11422 1.09522 0.80543 0.0
O685 O 1.06504 1.05036 0.83147 0.0
O686 O 0.212 1.03326 0.80441 0.0
O687 O 0.1569 1.00471 0.8289 0.0
C688 C 0.19748 1.00694 0.8314 0.0
O689 O 0.12163 0.95886 0.76365 0.0
O690 O 0.15594 1.00387 0.72281 0.0
O691 O 1.03953 1.02109 0.71234 0.0
O692 O 1.09052 1.05895 0.73624 0.0
H693 H 0.14274 1.08307 0.68481 0.0
H694 H 0.16049 1.01511 0.57093 0.0
H695 H 1.04209 1.01501 0.62986 0.0
O696 O 0.70621 0.85766 0.94017 0.0
Tb697 Tb 0.67926 0.90684 0.90342 0.0
Eu698 Eu 0.68154 0.94794 0.81872 0.0
C699 C 0.71565 0.86264 0.97975 0.0
O700 O 0.72447 0.89985 0.99468 0.0
C701 C 0.62127 0.8665 0.83443 0.0
O702 O 0.6897 0.99775 0.76747 0.0
C703 C 0.75056 0.90534 0.81842 0.0
C704 C 0.71863 1.02724 0.77306 0.0
O705 O 0.73891 1.02842 0.80868 0.0
C706 C 0.72099 0.98893 0.89879 0.0
C707 C 0.78959 0.91081 0.84246 0.0
C708 C 0.79359 0.89211 0.88229 0.0
C709 C 0.83059 0.89729 0.90586 0.0
C710 C 0.85766 0.92889 0.89095 0.0
C711 C 0.86289 0.92946 0.84716 0.0
C712 C 0.82486 0.93029 0.82476 0.0
O713 O 0.64878 0.85889 0.8642 0.0
O714 O 0.62271 0.90378 0.81507 0.0
O715 O 0.64965 0.9207 0.96199 0.0
O716 O 0.62531 0.94944 0.90691 0.0
C717 C 0.62271 0.94708 0.94748 0.0
O718 O 0.69053 0.99527 0.87167 0.0
O719 O 0.73134 0.95025 0.90601 0.0
O720 O 0.74184 0.93306 0.78956 0.0
O721 O 0.71795 0.8952 0.84056 0.0
H722 H 0.76938 0.8711 0.89277 0.0
H723 H 0.88329 0.93903 0.91047 0.0
H724 H 0.82433 0.93912 0.7921 0.0
O725 O 0.10765 0.24796 0.51402 0.0
Tb726 Tb 0.15684 0.27491 0.55076 0.0
Eu727 Eu 0.19793 0.27262 0.63546 0.0
C728 C 0.11264 0.23852 0.47444 0.0
O729 O 0.14984 0.22971 0.4595 0.0
C730 C 0.11649 0.33289 0.61975 0.0
O731 O 0.24774 0.26446 0.68671 0.0
C732 C 0.15533 0.2036 0.63576 0.0
C733 C 0.27723 0.23553 0.68113 0.0
O734 O 0.27841 0.21524 0.64551 0.0
C735 C 0.23893 0.23318 0.55539 0.0
C736 C 0.16081 0.16457 0.61173 0.0
C737 C 0.14215 0.16056 0.57188 0.0
C738 C 0.14733 0.12355 0.54832 0.0
C739 C 0.17891 1.09647 0.56325 0.0
C740 C 0.17946 1.09129 0.60705 0.0
C741 C 0.18026 0.1293 0.62946 0.0
O742 O 0.10888 0.30539 0.58998 0.0
O743 O 0.15378 0.33145 0.63911 0.0
O744 O 0.17069 0.30453 0.49219 0.0
O745 O 0.19944 0.32886 0.54727 0.0
C746 C 0.19708 0.33146 0.5067 0.0
O747 O 0.24527 0.26363 0.58251 0.0
O748 O 0.20025 0.22283 0.54817 0.0
O749 O 0.18303 0.21233 0.66463 0.0
O750 O 0.1452 0.23621 0.61361 0.0
H751 H 0.12116 0.18477 0.56137 0.0
H752 H 0.18905 1.07082 0.54375 0.0
H753 H 0.18907 0.12983 0.66213 0.0
O754 O 0.49797 0.84651 0.94017 0.0
Tb755 Tb 0.52492 0.79732 0.90343 0.0
Eu756 Eu 0.52263 0.75623 0.81871 0.0
C757 C 0.48853 0.84153 0.97975 0.0
O758 O 0.47971 0.80433 0.99469 0.0
C759 C 0.58291 0.83766 0.83444 0.0
O760 O 0.51447 0.70644 0.76745 0.0
C761 C 0.45362 0.79884 0.81843 0.0
C762 C 0.48554 0.67694 0.77304 0.0
O763 O 0.46527 0.67575 0.80867 0.0
C764 C 0.48319 0.71523 0.89878 0.0
C765 C 0.41459 0.79336 0.84246 0.0
C766 C 0.41058 0.81203 0.88231 0.0
C767 C 0.37357 0.80686 0.90587 0.0
C768 C 0.34649 0.77528 0.89094 0.0
C769 C 0.34131 0.77472 0.84715 0.0
C770 C 0.37932 0.77391 0.82474 0.0
O771 O 0.55541 0.84527 0.86422 0.0
O772 O 0.58146 0.80039 0.81506 0.0
O773 O 0.55452 0.78345 0.96201 0.0
O774 O 0.57887 0.75473 0.90693 0.0
C775 C 0.58146 0.75708 0.9475 0.0
O776 O 0.51365 0.70889 0.87166 0.0
O777 O 0.47284 0.75391 0.90601 0.0
O778 O 0.46234 0.77114 0.78955 0.0
O779 O 0.48623 0.80896 0.84057 0.0
H780 H 0.43479 0.83303 0.8928 0.0
H781 H 0.32084 0.76514 0.91045 0.0
H782 H 0.37985 0.76509 0.79206 0.0
O783 O 1.0965 0.45619 0.51401 0.0
Tb784 Tb 1.04731 0.42925 0.55075 0.0
Eu785 Eu 1.00623 0.43154 0.63547 0.0
C786 C 1.09152 0.46563 0.47442 0.0
O787 O 1.05432 0.47445 0.45948 0.0
C788 C 1.08766 0.37126 0.61974 0.0
O789 O 0.95643 0.43971 0.68673 0.0
C790 C 1.04884 0.50055 0.63575 0.0
C791 C 0.92693 0.46863 0.68115 0.0
O792 O 0.92575 0.48891 0.64552 0.0
C793 C 0.96522 0.47098 0.55541 0.0
C794 C 1.04336 0.53957 0.61172 0.0
C795 C 1.06203 0.54358 0.57187 0.0
C796 C 1.05687 0.58059 0.54831 0.0
C797 C 1.02529 0.60768 0.56323 0.0
C798 C 1.02472 0.61286 0.60702 0.0
C799 C 1.02391 0.57484 0.62944 0.0
O800 O 1.09527 0.39875 0.58996 0.0
O801 O 1.05039 0.37271 0.63913 0.0
O802 O 1.03344 0.39965 0.49218 0.0
O803 O 1.00471 0.37529 0.54726 0.0
C804 C 1.00706 0.37271 0.50668 0.0
O805 O 0.95888 0.44052 0.58253 0.0
O806 O 1.0039 0.48133 0.54818 0.0
O807 O 1.02114 0.49183 0.66463 0.0
O808 O 1.05896 0.46794 0.61361 0.0
H809 H 1.08303 0.51937 0.56137 0.0
H810 H 1.01515 0.63333 0.54373 0.0
H811 H 1.0151 0.57432 0.66211 0.0
O812 O 0.70617 0.34647 0.76402 0.0
Tb813 Tb 0.67928 0.29725 0.80075 0.0
Eu814 Eu 0.68154 0.25621 0.88546 0.0
C815 C 0.71557 0.34151 0.72443 0.0
O816 O 0.72456 0.30434 0.70954 0.0
C817 C 0.62128 0.33765 0.86971 0.0
O818 O 0.6897 0.2064 0.93671 0.0
C819 C 0.75056 0.29881 0.88577 0.0
C820 C 0.71864 0.17691 0.93112 0.0
O821 O 0.73893 0.17574 0.89551 0.0
C822 C 0.72102 0.21519 0.80544 0.0
C823 C 0.78959 0.29335 0.86173 0.0
C824 C 0.79359 0.31204 0.82189 0.0
C825 C 0.83059 0.30686 0.79832 0.0
C826 C 0.85765 0.27526 0.81323 0.0
C827 C 0.86288 0.2747 0.85703 0.0
C828 C 0.82486 0.27387 0.87942 0.0
O829 O 0.64877 0.34523 0.83992 0.0
O830 O 0.62272 0.30038 0.88911 0.0
O831 O 0.64978 0.28324 0.74216 0.0
O832 O 0.62527 0.25472 0.79726 0.0
C833 C 0.62279 0.25693 0.75667 0.0
O834 O 0.69053 0.20887 0.83252 0.0
O835 O 0.73138 0.25387 0.79823 0.0
O836 O 0.74184 0.27109 0.91463 0.0
O837 O 0.71795 0.30895 0.86363 0.0
H838 H 0.76938 0.33305 0.81141 0.0
H839 H 0.88328 0.26512 0.79371 0.0
H840 H 0.82433 0.26504 0.91209 0.0
O841 O 0.59648 0.24802 0.69018 0.0
Tb842 Tb 0.54726 0.27491 0.65343 0.0
Eu843 Eu 0.50621 0.27263 0.56872 0.0
C844 C 0.59152 0.23855 0.72976 0.0
O845 O 0.55434 0.22968 0.7447 0.0
C846 C 0.58764 0.33291 0.58446 0.0
O847 O 0.4564 0.26447 0.51748 0.0
C848 C 0.54883 0.20362 0.56842 0.0
C849 C 0.42691 0.23553 0.52306 0.0
O850 O 0.42575 0.21523 0.55868 0.0
C851 C 0.4652 0.23315 0.64876 0.0
C852 C 0.54337 0.16459 0.59246 0.0
C853 C 0.56206 0.16059 0.6323 0.0
C854 C 0.55689 0.12359 0.65587 0.0
C855 C 0.52529 1.09652 0.64096 0.0
C856 C 0.52473 1.09129 0.59716 0.0
C857 C 0.5239 0.12932 0.57476 0.0
O858 O 0.59523 0.30542 0.61425 0.0
O859 O 0.55037 0.33146 0.56507 0.0
O860 O 0.53328 0.30442 0.71203 0.0
O861 O 0.50471 0.3289 0.65693 0.0
C862 C 0.50695 0.3314 0.69751 0.0
O863 O 0.45887 0.26364 0.62167 0.0
O864 O 0.50388 0.2228 0.65597 0.0
O865 O 0.52111 0.21234 0.53956 0.0
O866 O 0.55895 0.23623 0.59056 0.0
H867 H 0.58307 0.18481 0.64278 0.0
H868 H 0.51515 1.07089 0.66048 0.0
H869 H 0.51507 0.12985 0.54209 0.0
O870 O 0.49801 0.35769 0.764 0.0
Tb871 Tb 0.52492 0.4069 0.80075 0.0
Eu872 Eu 0.52266 0.44793 0.88547 0.0
C873 C 0.48855 0.36266 0.72442 0.0
O874 O 0.47968 0.39984 0.70948 0.0
C875 C 0.58292 0.3665 0.86971 0.0
O876 O 0.51449 0.49775 0.93671 0.0
C877 C 0.45364 0.40532 0.88577 0.0
C878 C 0.48555 0.52723 0.93113 0.0
O879 O 0.46525 0.52839 0.89551 0.0
C880 C 0.48317 0.48896 0.80545 0.0
C881 C 0.41462 0.41079 0.86173 0.0
C882 C 0.41061 0.3921 0.8219 0.0
C883 C 0.37361 0.39729 0.79833 0.0
C884 C 0.34655 0.42889 0.81324 0.0
C885 C 0.34132 0.42945 0.85703 0.0
C886 C 0.37935 0.43027 0.87943 0.0
O887 O 0.55544 0.35892 0.83991 0.0
O888 O 0.58148 0.40376 0.88912 0.0
O889 O 0.55442 0.42091 0.74215 0.0
O890 O 0.57891 0.44945 0.79726 0.0
C891 C 0.5814 0.44723 0.75667 0.0
O892 O 0.51367 0.49528 0.83253 0.0
O893 O 0.47282 0.45028 0.79823 0.0
O894 O 0.46236 0.43303 0.91464 0.0
O895 O 0.48625 0.3952 0.86363 0.0
H896 H 0.43481 0.37109 0.81142 0.0
H897 H 0.32092 0.43904 0.79372 0.0
H898 H 0.37988 0.43909 0.9121 0.0
O899 O 0.60767 0.4562 0.69018 0.0
Tb900 Tb 0.65685 0.42925 0.65344 0.0
Eu901 Eu 0.69792 0.43154 0.56873 0.0
C902 C 0.61265 0.46564 0.72976 0.0
O903 O 0.64985 0.47447 0.7447 0.0
C904 C 0.61648 0.37127 0.58446 0.0
O905 O 0.74773 0.43969 0.51749 0.0
C906 C 0.65532 0.50055 0.56844 0.0
C907 C 0.77722 0.46863 0.52307 0.0
O908 O 0.77839 0.48893 0.55869 0.0
C909 C 0.73894 0.47099 0.64877 0.0
C910 C 0.6608 0.53958 0.59247 0.0
C911 C 0.64214 0.5436 0.63232 0.0
C912 C 0.64731 0.58061 0.65587 0.0
C913 C 0.67889 0.60769 0.64094 0.0
C914 C 0.67944 0.61287 0.59715 0.0
C915 C 0.68024 0.57485 0.57473 0.0
O916 O 0.60888 0.39876 0.61425 0.0
O917 O 0.65375 0.37271 0.56507 0.0
O918 O 0.67074 0.39966 0.71202 0.0
O919 O 0.69944 0.37529 0.65693 0.0
C920 C 0.6971 0.37272 0.69751 0.0
O921 O 0.74526 0.44052 0.62167 0.0
O922 O 0.70026 0.48134 0.656 0.0
O923 O 0.68301 0.49183 0.53956 0.0
O924 O 0.64519 0.46795 0.59059 0.0
H925 H 0.62114 0.51938 0.64282 0.0
H926 H 0.68903 0.63334 0.66044 0.0
H927 H 0.68905 0.57432 0.54206 0.0
O928 O 0.94016 0.70617 0.85767 0.0
Tb929 Tb 0.90342 0.67923 0.90686 0.0
Eu930 Eu 0.81872 0.68153 0.94794 0.0
C931 C 0.97974 0.71562 0.86265 0.0
O932 O 0.99468 0.72444 0.89985 0.0
C933 C 0.83443 0.62125 0.86651 0.0
O934 O 0.76748 0.6897 0.99776 0.0
C935 C 0.81843 0.75055 0.90534 0.0
C936 C 0.77306 0.71864 1.02724 0.0
O937 O 0.80868 0.73894 1.0284 0.0
C938 C 0.89878 0.72097 0.98895 0.0
C939 C 0.84247 0.78957 0.91081 0.0
C940 C 0.88231 0.79358 0.89215 0.0
C941 C 0.90588 0.83058 0.89731 0.0
C942 C 0.89096 0.85767 0.92889 0.0
C943 C 0.84717 0.86285 0.92946 0.0
C944 C 0.82475 0.82484 0.93026 0.0
O945 O 0.8642 0.64875 0.85891 0.0
O946 O 0.81506 0.6227 0.90379 0.0
O947 O 0.962 0.64963 0.92072 0.0
O948 O 0.90692 0.62528 0.94946 0.0
C949 C 0.94749 0.62269 0.9471 0.0
O950 O 0.87166 0.69051 0.99529 0.0
O951 O 0.90601 0.73131 0.95027 0.0
O952 O 0.78955 0.74183 0.93304 0.0
O953 O 0.84057 0.71794 0.89522 0.0
H954 H 0.89281 0.76936 0.87115 0.0
H955 H 0.91046 0.88331 0.93903 0.0
H956 H 0.79207 0.82432 0.93908 0.0
O957 O 0.95622 1.01399 0.59653 0.0
Tb958 Tb 0.92929 1.05073 0.54732 0.0
Eu959 Eu 0.93157 0.13544 0.50625 0.0
C960 C 0.9656 0.97439 0.59155 0.0
O961 O 0.97456 0.95951 0.55437 0.0
C962 C 0.8713 0.1197 0.58769 0.0
O963 O 0.93971 0.18668 0.45643 0.0
C964 C 1.00058 0.13574 0.54885 0.0
C965 C 0.96865 0.1811 0.42694 0.0
O966 O 0.98896 0.14549 0.42578 0.0
C967 C 0.97103 1.05539 0.46524 0.0
C968 C 1.03961 0.1117 0.54339 0.0
C969 C 1.04361 1.07186 0.56208 0.0
C970 C 1.08061 1.0483 0.55689 0.0
C971 C 0.10771 1.06319 0.5253 0.0
C972 C 0.11289 0.10698 0.52472 0.0
C973 C 1.07488 0.1294 0.52391 0.0
O974 O 0.8988 1.08993 0.59528 0.0
O975 O 0.87274 0.13908 0.55041 0.0
O976 O 0.89973 0.99215 0.53341 0.0
O977 O 0.87532 1.04723 0.50475 0.0
C978 C 0.87276 1.00666 0.50707 0.0
O979 O 0.94056 1.08249 0.4589 0.0
O980 O 0.98138 1.04817 0.50392 0.0
O981 O 0.99186 0.1646 0.52114 0.0
O982 O 0.96797 0.1136 0.55898 0.0
H983 H 1.01941 1.06138 0.58309 0.0
H984 H 0.13335 1.04367 0.51519 0.0
H985 H 1.07436 0.16207 0.51508 0.0
O986 O 0.26398 0.99801 0.85768 0.0
Tb987 Tb 0.30073 1.02489 0.9069 0.0
Eu988 Eu 0.38545 1.02262 0.94794 0.0
C989 C 0.2244 0.98855 0.86265 0.0
O990 O 0.20947 0.97967 0.89984 0.0
C991 C 0.3697 1.0829 0.86652 0.0
O992 O 0.4367 1.01446 0.99775 0.0
C993 C 0.38575 0.95361 0.90532 0.0
C994 C 0.43112 0.98552 1.02724 0.0
O995 O 0.39551 0.96521 1.02839 0.0
C996 C 0.30542 0.98314 0.98896 0.0
C997 C 0.36172 0.91458 0.91078 0.0
C998 C 0.32188 0.91058 0.89209 0.0
C999 C 0.29832 0.87358 0.89728 0.0
C1000 C 0.31321 0.84649 0.92887 0.0
C1001 C 0.357 0.8413 0.92945 0.0
C1002 C 0.37942 0.87931 0.93025 0.0
O1003 O 0.33991 1.05541 0.85893 0.0
O1004 O 0.38909 1.08145 0.90379 0.0
O1005 O 0.24214 1.05442 0.92089 0.0
O1006 O 0.29725 1.07887 0.94946 0.0
C1007 C 0.25666 1.08138 0.94723 0.0
O1008 O 0.33252 1.01361 0.99529 0.0
O1009 O 0.2982 0.97279 0.95027 0.0
O1010 O 0.41462 0.96233 0.93303 0.0
O1011 O 0.3636 0.98622 0.8952 0.0
H1012 H 0.31139 0.93479 0.87108 0.0
H1013 H 0.29369 0.82085 0.939 0.0
H1014 H 0.41209 0.87983 0.93908 0.0
O1015 O 0.24797 0.69014 0.59653 0.0
Tb1016 Tb 0.27491 0.6534 0.54734 0.0
Eu1017 Eu 0.27263 0.56869 0.50626 0.0
C1018 C 0.23852 0.72972 0.59154 0.0
O1019 O 0.22969 0.74466 0.55434 0.0
C1020 C 0.33291 0.58442 0.58769 0.0
O1021 O 0.26447 0.51745 0.45644 0.0
C1022 C 0.20361 0.56839 0.54887 0.0
C1023 C 0.23553 0.52304 0.42695 0.0
O1024 O 0.21522 0.55865 0.42579 0.0
C1025 C 0.23317 0.64875 0.46526 0.0
C1026 C 0.16459 0.59243 0.5434 0.0
C1027 C 0.16058 0.63227 0.56209 0.0
C1028 C 0.12359 0.65583 0.55689 0.0
C1029 C 1.0965 0.64095 0.5253 0.0
C1030 C 1.09131 0.59716 0.52472 0.0
C1031 C 0.12932 0.57473 0.52392 0.0
O1032 O 0.3054 0.61418 0.5953 0.0
O1033 O 0.33146 0.56505 0.55041 0.0
O1034 O 0.30451 0.71198 0.53347 0.0
O1035 O 0.32886 0.6569 0.50474 0.0
C1036 C 0.33145 0.69747 0.5071 0.0
O1037 O 0.26363 0.62164 0.45892 0.0
O1038 O 0.22282 0.65597 0.50394 0.0
O1039 O 0.21233 0.53953 0.52116 0.0
O1040 O 0.23622 0.59053 0.55899 0.0
H1041 H 0.18479 0.64275 0.58311 0.0
H1042 H 1.07086 0.66047 0.51517 0.0
H1043 H 0.12984 0.54206 0.51509 0.0
O1044 O 0.94017 0.49796 0.84652 0.0
Tb1045 Tb 0.90343 0.52491 0.79733 0.0
Eu1046 Eu 0.8187 0.52261 0.75625 0.0
C1047 C 0.97976 0.48852 0.84154 0.0
O1048 O 0.99469 0.4797 0.80434 0.0
C1049 C 0.83444 0.58289 0.83768 0.0
O1050 O 0.76745 0.51445 0.70645 0.0
C1051 C 0.81843 0.4536 0.79886 0.0
C1052 C 0.77302 0.48551 0.67696 0.0
O1053 O 0.80865 0.46522 0.67579 0.0
C1054 C 0.89877 0.48317 0.71524 0.0
C1055 C 0.84246 0.41457 0.79338 0.0
C1056 C 0.88231 0.41057 0.81204 0.0
C1057 C 0.90588 0.37356 0.80687 0.0
C1058 C 0.89095 0.34648 0.77529 0.0
C1059 C 0.84716 0.34129 0.77472 0.0
C1060 C 0.82474 0.37931 0.77392 0.0
O1061 O 0.86422 0.5554 0.84529 0.0
O1062 O 0.81505 0.58144 0.80041 0.0
O1063 O 0.962 0.5545 0.78346 0.0
O1064 O 0.90692 0.57886 0.75473 0.0
C1065 C 0.94749 0.58144 0.75708 0.0
O1066 O 0.87164 0.51363 0.7089 0.0
O1067 O 0.906 0.47283 0.75392 0.0
O1068 O 0.78955 0.46232 0.77116 0.0
O1069 O 0.84057 0.48621 0.80898 0.0
H1070 H 0.89281 0.43478 0.83304 0.0
H1071 H 0.91046 0.32083 0.76515 0.0
H1072 H 0.79207 0.37983 0.76511 0.0
O1073 O 0.74803 1.01397 0.60769 0.0
Tb1074 Tb 0.77493 1.05072 0.6569 0.0
Eu1075 Eu 0.77265 0.13545 0.69794 0.0
C1076 C 0.73857 0.9744 0.61266 0.0
O1077 O 0.7297 0.95945 0.64984 0.0
C1078 C 0.83294 0.11969 0.61653 0.0
O1079 O 0.76448 0.18669 0.74775 0.0
C1080 C 0.70365 0.13573 0.65532 0.0
C1081 C 0.73553 0.18111 0.77723 0.0
O1082 O 0.71522 0.1455 0.77839 0.0
C1083 C 0.73318 1.05541 0.73897 0.0
C1084 C 0.66461 0.1117 0.6608 0.0
C1085 C 0.6606 1.07186 0.64214 0.0
C1086 C 0.62359 1.0483 0.64731 0.0
C1087 C 0.59651 1.06323 0.6789 0.0
C1088 C 0.59133 0.10702 0.67945 0.0
C1089 C 0.62934 0.12943 0.68025 0.0
O1090 O 0.80546 1.08989 0.60894 0.0
O1091 O 0.83148 0.1391 0.65379 0.0
O1092 O 0.80445 0.99213 0.67089 0.0
O1093 O 0.82891 1.04722 0.69947 0.0
C1094 C 0.83141 1.00664 0.69724 0.0
O1095 O 0.76365 1.08251 0.7453 0.0
O1096 O 0.72283 1.04819 0.70029 0.0
O1097 O 0.71236 0.16462 0.68301 0.0
O1098 O 0.73625 0.11358 0.64521 0.0
H1099 H 0.68482 1.06135 0.62114 0.0
H1100 H 0.57087 1.04373 0.68904 0.0
H1101 H 0.62987 0.16211 0.68906 0.0
O1102 O 0.26399 0.2062 0.84651 0.0
Tb1103 Tb 0.30073 0.17926 0.79731 0.0
Eu1104 Eu 0.38545 0.18153 0.75625 0.0
C1105 C 0.2244 0.21558 0.84154 0.0
O1106 O 0.20951 0.22454 0.80435 0.0
C1107 C 0.3697 0.12126 0.83768 0.0
O1108 O 0.4367 0.18969 0.70644 0.0
C1109 C 0.38574 0.25055 0.79885 0.0
C1110 C 0.43112 0.21864 0.67695 0.0
O1111 O 0.3955 0.23893 0.67579 0.0
C1112 C 0.3054 0.22099 0.71522 0.0
C1113 C 0.36171 0.28958 0.79337 0.0
C1114 C 0.32186 0.29359 0.81203 0.0
C1115 C 0.29831 0.3306 0.80686 0.0
C1116 C 0.31324 0.35769 0.77529 0.0
C1117 C 0.35703 0.36286 0.77473 0.0
C1118 C 0.37944 0.32485 0.77392 0.0
O1119 O 0.33992 0.14875 0.84527 0.0
O1120 O 0.3891 0.12271 0.80041 0.0
O1121 O 0.24214 0.14971 0.78339 0.0
O1122 O 0.29722 0.12529 0.75474 0.0
C1123 C 0.25665 0.12274 0.75706 0.0
O1124 O 0.33251 0.19052 0.70889 0.0
O1125 O 0.29818 0.23134 0.7539 0.0
O1126 O 0.41462 0.24182 0.77115 0.0
O1127 O 0.36359 0.21794 0.80897 0.0
H1128 H 0.31136 0.26938 0.83303 0.0
H1129 H 0.29374 0.38334 0.76515 0.0
H1130 H 0.41212 0.32432 0.76511 0.0
O1131 O 0.45621 0.69017 0.60767 0.0
Tb1132 Tb 0.42927 0.65342 0.65686 0.0
Eu1133 Eu 0.43156 0.5687 0.69795 0.0
C1134 C 0.46564 0.72975 0.61264 0.0
O1135 O 0.47447 0.74469 0.64984 0.0
C1136 C 0.37127 0.58443 0.61652 0.0
O1137 O 0.43972 0.51746 0.74776 0.0
C1138 C 0.50057 0.56841 0.65534 0.0
C1139 C 0.46866 0.52304 0.77725 0.0
O1140 O 0.48895 0.55866 0.77841 0.0
C1141 C 0.471 0.64877 0.73895 0.0
C1142 C 0.53959 0.59246 0.6608 0.0
C1143 C 0.54359 0.63229 0.64211 0.0
C1144 C 0.58059 0.65585 0.64729 0.0
C1145 C 0.60768 0.64097 0.67888 0.0
C1146 C 0.61287 0.59718 0.67947 0.0
C1147 C 0.57486 0.57475 0.68027 0.0
O1148 O 0.39877 0.61421 0.60891 0.0
O1149 O 0.37272 0.56504 0.6538 0.0
O1150 O 0.39967 0.71199 0.67073 0.0
O1151 O 0.37531 0.65692 0.69945 0.0
C1152 C 0.37273 0.69749 0.6971 0.0
O1153 O 0.44054 0.62165 0.74529 0.0
O1154 O 0.48135 0.65599 0.70026 0.0
O1155 O 0.49185 0.53954 0.68305 0.0
O1156 O 0.46795 0.59055 0.64521 0.0
H1157 H 0.51938 0.64277 0.62109 0.0
H1158 H 0.63332 0.66049 0.689 0.0
H1159 H 0.57435 0.54209 0.68911 0.0
O1160 O 0.85767 0.94014 0.70623 0.0
Tb1161 Tb 0.90685 0.9034 0.67927 0.0
Eu1162 Eu 0.94792 0.81868 0.68155 0.0
C1163 C 0.86265 0.97973 0.71566 0.0
O1164 O 0.89985 0.99466 0.7245 0.0
C1165 C 0.86649 0.83443 0.62127 0.0
O1166 O 0.99774 0.76745 0.68971 0.0
C1167 C 0.90531 0.81839 0.75057 0.0
C1168 C 1.02723 0.77303 0.71866 0.0
O1169 O 1.02838 0.80865 0.73896 0.0
C1170 C 0.98893 0.89874 0.72101 0.0
C1171 C 0.91078 0.84243 0.78959 0.0
C1172 C 0.89209 0.88226 0.7936 0.0
C1173 C 0.8973 0.90583 0.8306 0.0
C1174 C 0.92889 0.89094 0.85768 0.0
C1175 C 0.92947 0.84715 0.86287 0.0
C1176 C 0.93027 0.82472 0.82486 0.0
O1177 O 0.85889 0.86421 0.64877 0.0
O1178 O 0.90376 0.81504 0.62272 0.0
O1179 O 0.92074 0.96198 0.64969 0.0
O1180 O 0.94945 0.9069 0.62532 0.0
C1181 C 0.94711 0.94747 0.62274 0.0
O1182 O 0.99526 0.87163 0.69055 0.0
O1183 O 0.95025 0.90596 0.73136 0.0
O1184 O 0.93302 0.78952 0.74185 0.0
O1185 O 0.89519 0.84053 0.71796 0.0
H1186 H 0.87107 0.89274 0.7694 0.0
H1187 H 0.93902 0.91046 0.88331 0.0
H1188 H 0.9391 0.79206 0.82434 0.0
O1189 O 0.85766 0.26402 0.99797 0.0
Tb1190 Tb 0.90685 0.30076 1.02491 0.0
Eu1191 Eu 0.94794 0.38545 1.02263 0.0
C1192 C 0.86265 0.22443 0.98853 0.0
O1193 O 0.89985 0.2095 0.97971 0.0
C1194 C 0.8665 0.36975 1.0829 0.0
O1195 O 0.99776 0.43669 1.01448 0.0
C1196 C 0.90534 0.38576 0.95361 0.0
C1197 C 1.02726 0.4311 0.98554 0.0
O1198 O 1.02842 0.39549 0.96524 0.0
C1199 C 0.98894 0.30539 0.98317 0.0
C1200 C 0.9108 0.36172 0.91458 0.0
C1201 C 0.89211 0.32188 0.91058 0.0
C1202 C 0.8973 0.29832 0.87358 0.0
C1203 C 0.92889 0.3132 0.8465 0.0
C1204 C 0.92948 0.35699 0.8413 0.0
C1205 C 0.93028 0.37942 0.87931 0.0
O1206 O 0.85889 0.33998 1.0554 0.0
O1207 O 0.90378 0.38911 1.08146 0.0
O1208 O 0.92072 0.24219 1.05452 0.0
O1209 O 0.94944 0.29727 1.07887 0.0
C1210 C 0.94709 0.2567 1.08146 0.0
O1211 O 0.99527 0.3325 1.01364 0.0
O1212 O 0.95025 0.29818 0.97283 0.0
O1213 O 0.93306 0.41462 0.96233 0.0
O1214 O 0.8952 0.36362 0.98622 0.0
H1215 H 0.87109 0.31141 0.93478 0.0
H1216 H 0.93902 0.29368 0.82086 0.0
H1217 H 0.93912 0.41209 0.87983 0.0
O1218 O 0.51402 1.09651 0.45623 0.0
Tb1219 Tb 0.55078 1.04733 0.42928 0.0
Eu1220 Eu 0.63547 1.00623 0.43156 0.0
C1221 C 0.47444 1.09152 0.46566 0.0
O1222 O 0.45951 1.05432 0.47448 0.0
C1223 C 0.61976 1.08767 0.37128 0.0
O1224 O 0.68671 0.95641 0.4397 0.0
C1225 C 0.63578 1.04883 0.50057 0.0
C1226 C 0.68113 0.92691 0.46864 0.0
O1227 O 0.64551 0.92575 0.48893 0.0
C1228 C 0.5554 0.96524 0.47101 0.0
C1229 C 0.61174 1.04337 0.5396 0.0
C1230 C 0.5719 1.06206 0.5436 0.0
C1231 C 0.54834 1.05687 0.58061 0.0
C1232 C 0.56323 1.02528 0.6077 0.0
C1233 C 0.60702 1.0247 0.61288 0.0
C1234 C 0.62944 1.02389 0.57487 0.0
O1235 O 0.59 1.09528 0.39879 0.0
O1236 O 0.63912 1.05038 0.37272 0.0
O1237 O 0.49221 1.03348 0.39965 0.0
O1238 O 0.54728 1.00473 0.37533 0.0
C1239 C 0.50671 1.0071 0.37272 0.0
O1240 O 0.58251 0.9589 0.44055 0.0
O1241 O 0.54818 1.00392 0.48136 0.0
O1242 O 0.66464 1.02111 0.49185 0.0
O1243 O 0.61364 1.05896 0.46796 0.0
H1244 H 0.56142 1.08308 0.5194 0.0
H1245 H 0.54371 1.01516 0.63334 0.0
H1246 H 0.66211 1.01505 0.57435 0.0
O1247 O 0.34652 0.44014 0.99796 0.0
Tb1248 Tb 0.29733 0.40339 1.0249 0.0
Eu1249 Eu 0.25624 0.31867 1.02262 0.0
C1250 C 0.34154 0.47972 0.98852 0.0
O1251 O 0.30434 0.49465 0.97969 0.0
C1252 C 0.33767 0.3344 1.0829 0.0
O1253 O 0.20643 0.26741 1.01446 0.0
C1254 C 0.29885 0.31838 0.9536 0.0
C1255 C 0.17692 0.273 0.98554 0.0
O1256 O 0.17573 0.30863 0.96527 0.0
C1257 C 0.21524 0.39874 0.98317 0.0
C1258 C 0.29339 0.34243 0.91458 0.0
C1259 C 0.31209 0.38226 0.91058 0.0
C1260 C 0.3069 0.40583 0.87359 0.0
C1261 C 0.2753 0.39096 0.8465 0.0
C1262 C 0.27471 0.34717 0.8413 0.0
C1263 C 0.2739 0.32474 0.87931 0.0
O1264 O 0.34528 0.36417 1.0554 0.0
O1265 O 0.3004 0.31502 1.08145 0.0
O1266 O 0.28346 0.46196 1.0545 0.0
O1267 O 0.25474 0.40688 1.07886 0.0
C1268 C 0.25709 0.44745 1.08144 0.0
O1269 O 0.2089 0.37162 1.01363 0.0
O1270 O 0.25393 0.40596 0.97282 0.0
O1271 O 0.27113 0.28952 0.96231 0.0
O1272 O 0.30898 0.34051 0.98622 0.0
H1273 H 0.33311 0.39273 0.93479 0.0
H1274 H 0.26518 0.41049 0.82086 0.0
H1275 H 0.26506 0.29207 0.87982 0.0
O1276 O 0.19017 0.10765 0.95621 0.0
Tb1277 Tb 0.15341 0.15683 0.92927 0.0
Eu1278 Eu 1.06869 0.1979 0.93155 0.0
C1279 C 0.22975 0.11263 0.96564 0.0
O1280 O 0.24468 0.14982 0.97448 0.0
C1281 C 1.08444 0.11647 0.87128 0.0
O1282 O 1.01743 0.2477 0.93971 0.0
C1283 C 1.06841 0.15529 1.00057 0.0
C1284 C 1.02301 0.27719 0.96865 0.0
O1285 O 1.05864 0.27837 0.98894 0.0
C1286 C 0.14875 0.23891 0.97101 0.0
C1287 C 1.09245 0.16076 1.03959 0.0
C1288 C 0.13229 0.14206 1.04359 0.0
C1289 C 0.15586 0.14725 1.08059 0.0
C1290 C 0.14098 0.17885 0.10767 0.0
C1291 C 1.09719 0.17944 0.11287 0.0
C1292 C 1.07476 0.18024 1.07486 0.0
O1293 O 0.11422 0.10887 0.89877 0.0
O1294 O 1.06504 0.15374 0.87273 0.0
O1295 O 0.21199 0.17073 0.89968 0.0
O1296 O 0.1569 0.19943 0.87531 0.0
C1297 C 0.19748 0.1971 0.87274 0.0
O1298 O 0.12163 0.24525 0.94054 0.0
O1299 O 0.15597 0.20023 0.98136 0.0
O1300 O 1.03954 0.183 0.99185 0.0
O1301 O 1.09054 0.14517 0.96795 0.0
H1302 H 0.14276 0.12104 1.01939 0.0
H1303 H 0.16051 0.18897 0.13331 0.0
H1304 H 1.04209 0.18909 1.07434 0.0
O1305 O 0.84651 0.26402 0.20621 0.0
Tb1306 Tb 0.79732 0.30076 0.17927 0.0
Eu1307 Eu 0.75624 0.38548 0.18155 0.0
C1308 C 0.84154 0.22444 0.21565 0.0
O1309 O 0.80434 0.20951 0.22449 0.0
C1310 C 0.83766 0.36974 0.12127 0.0
O1311 O 0.70643 0.43674 0.18971 0.0
C1312 C 0.79885 0.38578 0.25056 0.0
C1313 C 0.67693 0.43115 0.21864 0.0
O1314 O 0.67575 0.39552 0.23891 0.0
C1315 C 0.71523 0.30543 0.22102 0.0
C1316 C 0.79339 0.36173 0.28958 0.0
C1317 C 0.81209 0.3219 0.29358 0.0
C1318 C 0.80689 0.29833 0.33058 0.0
C1319 C 0.77529 0.3132 0.35766 0.0
C1320 C 0.7747 0.35699 0.36286 0.0
C1321 C 0.7739 0.37942 0.32485 0.0
O1322 O 0.84527 0.33996 0.14876 0.0
O1323 O 0.80039 0.38913 0.12272 0.0
O1324 O 0.78343 0.24218 0.14969 0.0
O1325 O 0.75473 0.29726 0.12531 0.0
C1326 C 0.75707 0.25669 0.12274 0.0
O1327 O 0.7089 0.33253 0.19054 0.0
O1328 O 0.75392 0.29821 0.23136 0.0
O1329 O 0.77114 0.41464 0.24185 0.0
O1330 O 0.80898 0.36364 0.21795 0.0
H1331 H 0.83311 0.31143 0.26938 0.0
H1332 H 0.76516 0.29367 0.3833 0.0
H1333 H 0.76506 0.41209 0.32434 0.0
O1334 O 0.51403 0.10765 0.24796 0.0
Tb1335 Tb 0.55077 0.15684 0.27491 0.0
Eu1336 Eu 0.63549 0.19793 0.27263 0.0
C1337 C 0.47445 0.11263 0.23852 0.0
O1338 O 0.45951 0.14983 0.22969 0.0
C1339 C 0.61976 0.1165 0.33292 0.0
O1340 O 0.68674 0.24774 0.26447 0.0
C1341 C 0.63579 0.15532 0.20362 0.0
C1342 C 0.68116 0.27723 0.23553 0.0
O1343 O 0.64553 0.2784 0.21524 0.0
C1344 C 0.55542 0.23893 0.23318 0.0
C1345 C 0.61175 0.16079 0.1646 0.0
C1346 C 0.57191 0.14209 0.16059 0.0
C1347 C 0.54835 0.14729 0.1236 0.0
C1348 C 0.56323 0.17889 1.09651 0.0
C1349 C 0.60702 0.17947 1.09132 0.0
C1350 C 0.62944 0.18027 0.12933 0.0
O1351 O 0.58998 0.10889 0.30542 0.0
O1352 O 0.63914 0.15378 0.33147 0.0
O1353 O 0.49219 0.1707 0.30451 0.0
O1354 O 0.54726 0.19943 0.32887 0.0
C1355 C 0.50669 0.19707 0.33145 0.0
O1356 O 0.58254 0.24527 0.26364 0.0
O1357 O 0.5482 0.20024 0.22283 0.0
O1358 O 0.66466 0.18303 0.21234 0.0
O1359 O 0.61365 0.1452 0.23624 0.0
H1360 H 0.56144 0.12107 0.18479 0.0
H1361 H 0.5437 0.18901 1.07088 0.0
H1362 H 0.66211 0.18911 0.12985 0.0
O1363 O 0.69014 0.59651 0.24796 0.0
Tb1364 Tb 0.65339 0.54733 0.27491 0.0
Eu1365 Eu 0.56868 0.50623 0.27262 0.0
C1366 C 0.72972 0.59153 0.23853 0.0
O1367 O 0.74466 0.55433 0.2297 0.0
C1368 C 0.5844 0.58766 0.3329 0.0
O1369 O 0.51743 0.45642 0.26446 0.0
C1370 C 0.56839 0.54884 0.20361 0.0
C1371 C 0.52301 0.42693 0.23553 0.0
O1372 O 0.55864 0.42575 0.21524 0.0
C1373 C 0.64875 0.46524 0.23317 0.0
C1374 C 0.59244 0.54338 0.16459 0.0
C1375 C 0.63227 0.56208 0.16059 0.0
C1376 C 0.65585 0.55689 0.1236 0.0
C1377 C 0.64098 0.52529 1.09651 0.0
C1378 C 0.59719 0.5247 1.09131 0.0
C1379 C 0.57476 0.52388 0.12932 0.0
O1380 O 0.61418 0.59528 0.3054 0.0
O1381 O 0.56502 0.55039 0.33145 0.0
O1382 O 0.71197 0.53346 0.30451 0.0
O1383 O 0.65689 0.50473 0.32886 0.0
C1384 C 0.69746 0.50709 0.33145 0.0
O1385 O 0.62163 0.4589 0.26363 0.0
O1386 O 0.65597 0.50392 0.22283 0.0
O1387 O 0.53953 0.52112 0.21232 0.0
O1388 O 0.59052 0.55897 0.23622 0.0
H1389 H 0.64274 0.58311 0.18479 0.0
H1390 H 0.66051 0.51517 1.07088 0.0
H1391 H 0.54209 0.51504 0.12983 0.0
loop_
_geom_bond_atom_site_label_1
_geom_bond_atom_site_label_2
_geom_bond_distance
_geom_bond_site_symmetry_2
_ccdc_geom_bond_type
O0 Tb1 2.292 . S
O0 C3 1.255 . S
Tb1 O0 2.292 . S
Tb1 O17 2.326 . S
Tb1 O19 2.500 . S
Tb1 O20 2.473 . S
Tb1 O23 2.324 . S
Eu2 O6 2.292 . S
Eu2 C7 2.852 . S
Eu2 O18 2.324 . S
Eu2 O22 2.326 . S
Eu2 O24 2.500 . S
Eu2 O25 2.473 . S
C3 O0 1.255 . S
C3 O4 1.247 . S
O4 C3 1.247 . S
C5 O17 1.242 . S
C5 O18 1.258 . S
O6 Eu2 2.292 . S
O6 C8 1.255 . S
C7 Eu2 2.852 . S
C7 C11 1.503 . S
C7 O24 1.273 . S
C7 O25 1.257 . S
C8 O6 1.255 . S
C8 O9 1.247 . S
O9 C8 1.247 . S
C10 O22 1.242 . S
C10 O23 1.258 . S
C11 C7 1.503 . S
C11 C12 1.379 . S
C11 C16 1.392 . S
C12 C11 1.379 . S
C12 C13 1.404 . S
C12 H26 0.929 . S
C13 C12 1.404 . S
C13 C14 1.389 . S
C14 C13 1.389 . S
C14 C15 1.399 . S
C14 H27 0.931 . S
C15 C14 1.399 . S
C15 C16 1.390 . S
C16 C11 1.392 . S
C16 C15 1.390 . S
C16 H28 0.929 . S
O17 Tb1 2.326 . S
O17 C5 1.242 . S
O18 Eu2 2.324 . S
O18 C5 1.258 . S
O19 Tb1 2.500 . S
O19 C21 1.273 . S
O20 Tb1 2.473 . S
O20 C21 1.257 . S
C21 O19 1.273 . S
C21 O20 1.257 . S
O22 Eu2 2.326 . S
O22 C10 1.242 . S
O23 Tb1 2.324 . S
O23 C10 1.258 . S
O24 Eu2 2.500 . S
O24 C7 1.273 . S
O25 Eu2 2.473 . S
O25 C7 1.257 . S
H26 C12 0.929 . S
H27 C14 0.931 . S
H28 C16 0.929 . S
O29 Tb30 2.292 . S
O29 C32 1.255 . S
Tb30 O29 2.292 . S
Tb30 O46 2.326 . S
Tb30 O48 2.500 . S
Tb30 O49 2.473 . S
Tb30 O52 2.324 . S
Eu31 O35 2.292 . S
Eu31 C36 2.852 . S
Eu31 O47 2.324 1_554 S
Eu31 O51 2.326 1_554 S
Eu31 O53 2.500 . S
Eu31 O54 2.473 1_554 S
C32 O29 1.255 . S
C32 O33 1.247 . S
O33 C32 1.247 . S
C34 O46 1.242 . S
C34 O47 1.258 . S
O35 Eu31 2.292 . S
O35 C37 1.255 . S
C36 Eu31 2.852 . S
C36 C40 1.503 . S
C36 O53 1.273 . S
C36 O54 1.257 1_554 S
C37 O35 1.255 . S
C37 O38 1.247 . S
O38 C37 1.247 . S
C39 O51 1.242 . S
C39 O52 1.258 . S
C40 C36 1.503 . S
C40 C41 1.379 1_554 S
C40 C45 1.392 . S
C41 C40 1.379 1_556 S
C41 C42 1.404 . S
C41 H55 0.929 . S
C42 C41 1.404 . S
C42 C43 1.379 1_556 S
C43 C42 1.379 1_554 S
C43 C44 1.409 . S
C43 H56 0.929 1_554 S
C44 C43 1.409 . S
C44 C45 1.390 . S
C45 C40 1.392 . S
C45 C44 1.390 . S
C45 H57 0.929 . S
O46 Tb30 2.326 . S
O46 C34 1.242 . S
O47 Eu31 2.324 1_556 S
O47 C34 1.258 . S
O48 Tb30 2.500 . S
O48 C50 1.273 . S
O49 Tb30 2.473 . S
O49 C50 1.257 . S
C50 O48 1.273 . S
C50 O49 1.257 . S
O51 Eu31 2.326 1_556 S
O51 C39 1.242 . S
O52 Tb30 2.324 . S
O52 C39 1.258 . S
O53 Eu31 2.500 . S
O53 C36 1.273 . S
O54 Eu31 2.473 1_556 S
O54 C36 1.257 1_556 S
H55 C41 0.929 . S
H56 C43 0.929 1_556 S
H57 C45 0.929 . S
O58 Tb59 2.292 . S
O58 C61 1.255 . S
Tb59 O58 2.292 . S
Tb59 O75 2.326 . S
Tb59 O77 2.500 . S
Tb59 O78 2.473 . S
Tb59 O81 2.324 . S
Eu60 O64 2.292 . S
Eu60 C65 2.852 . S
Eu60 O76 2.324 . S
Eu60 O80 2.326 . S
Eu60 O82 2.500 . S
Eu60 O83 2.473 . S
C61 O58 1.255 . S
C61 O62 1.247 . S
O62 C61 1.247 . S
C63 O75 1.242 . S
C63 O76 1.258 . S
O64 Eu60 2.292 . S
O64 C66 1.255 . S
C65 Eu60 2.852 . S
C65 C69 1.503 . S
C65 O82 1.273 . S
C65 O83 1.257 . S
C66 O64 1.255 . S
C66 O67 1.247 . S
O67 C66 1.247 . S
C68 O80 1.242 . S
C68 O81 1.258 . S
C69 C65 1.503 . S
C69 C70 1.379 . S
C69 C74 1.392 . S
C70 C69 1.379 . S
C70 C71 1.404 . S
C70 H84 0.929 . S
C71 C70 1.404 . S
C71 C72 1.389 . S
C72 C71 1.389 . S
C72 C73 1.399 . S
C72 H85 0.931 . S
C73 C72 1.399 . S
C73 C74 1.390 . S
C74 C69 1.392 . S
C74 C73 1.390 . S
C74 H86 0.929 . S
O75 Tb59 2.326 . S
O75 C63 1.242 . S
O76 Eu60 2.324 . S
O76 C63 1.258 . S
O77 Tb59 2.500 . S
O77 C79 1.273 . S
O78 Tb59 2.473 . S
O78 C79 1.257 . S
C79 O77 1.273 . S
C79 O78 1.257 . S
O80 Eu60 2.326 . S
O80 C68 1.242 . S
O81 Tb59 2.324 . S
O81 C68 1.258 . S
O82 Eu60 2.500 . S
O82 C65 1.273 . S
O83 Eu60 2.473 . S
O83 C65 1.257 . S
H84 C70 0.929 . S
H85 C72 0.931 . S
H86 C74 0.929 . S
O87 Tb88 2.292 . S
O87 C90 1.255 . S
Tb88 O87 2.292 . S
Tb88 O104 2.326 . S
Tb88 O106 2.500 . S
Tb88 O107 2.473 . S
Tb88 O110 2.324 . S
Eu89 O93 2.292 . S
Eu89 C94 2.852 . S
Eu89 O105 2.324 1_554 S
Eu89 O109 2.326 1_554 S
Eu89 O111 2.500 . S
Eu89 O112 2.473 1_554 S
C90 O87 1.255 . S
C90 O91 1.247 . S
O91 C90 1.247 . S
C92 O104 1.242 . S
C92 O105 1.258 . S
O93 Eu89 2.292 . S
O93 C95 1.255 . S
C94 Eu89 2.852 . S
C94 C98 1.503 . S
C94 O111 1.273 . S
C94 O112 1.257 1_554 S
C95 O93 1.255 . S
C95 O96 1.247 . S
O96 C95 1.247 . S
C97 O109 1.242 . S
C97 O110 1.258 . S
C98 C94 1.503 . S
C98 C99 1.379 1_554 S
C98 C103 1.392 . S
C99 C98 1.379 1_556 S
C99 C100 1.404 . S
C99 H113 0.929 . S
C100 C99 1.404 . S
C100 C101 1.379 1_566 S
C101 C100 1.379 1_544 S
C101 C102 1.409 1_545 S
C101 H114 0.929 1_554 S
C102 C101 1.409 1_565 S
C102 C103 1.390 . S
C103 C98 1.392 . S
C103 C102 1.390 . S
C103 H115 0.929 . S
O104 Tb88 2.326 . S
O104 C92 1.242 . S
O105 Eu89 2.324 1_556 S
O105 C92 1.258 . S
O106 Tb88 2.500 . S
O106 C108 1.273 . S
O107 Tb88 2.473 . S
O107 C108 1.257 . S
C108 O106 1.273 . S
C108 O107 1.257 . S
O109 Eu89 2.326 1_556 S
O109 C97 1.242 . S
O110 Tb88 2.324 . S
O110 C97 1.258 . S
O111 Eu89 2.500 . S
O111 C94 1.273 . S
O112 Eu89 2.473 1_556 S
O112 C94 1.257 1_556 S
H113 C99 0.929 . S
H114 C101 0.929 1_556 S
H115 C103 0.929 . S
O116 Tb117 2.292 . S
O116 C119 1.255 . S
Tb117 O116 2.292 . S
Tb117 O133 2.326 . S
Tb117 O135 2.500 . S
Tb117 O136 2.473 . S
Tb117 O139 2.324 . S
Eu118 O122 2.292 . S
Eu118 C123 2.852 . S
Eu118 O134 2.324 . S
Eu118 O138 2.326 . S
Eu118 O140 2.500 . S
Eu118 O141 2.473 . S
C119 O116 1.255 . S
C119 O120 1.247 . S
O120 C119 1.247 . S
C121 O133 1.242 . S
C121 O134 1.258 . S
O122 Eu118 2.292 . S
O122 C124 1.255 . S
C123 Eu118 2.852 . S
C123 C127 1.503 . S
C123 O140 1.273 . S
C123 O141 1.257 . S
C124 O122 1.255 . S
C124 O125 1.247 . S
O125 C124 1.247 . S
C126 O138 1.242 . S
C126 O139 1.258 . S
C127 C123 1.503 . S
C127 C128 1.379 . S
C127 C132 1.392 . S
C128 C127 1.379 . S
C128 C129 1.404 . S
C128 H142 0.929 . S
C129 C128 1.404 . S
C129 C130 1.389 . S
C130 C129 1.389 . S
C130 C131 1.399 . S
C130 H143 0.931 . S
C131 C130 1.399 . S
C131 C132 1.390 . S
C132 C127 1.392 . S
C132 C131 1.390 . S
C132 H144 0.929 . S
O133 Tb117 2.326 . S
O133 C121 1.242 . S
O134 Eu118 2.324 . S
O134 C121 1.258 . S
O135 Tb117 2.500 . S
O135 C137 1.273 . S
O136 Tb117 2.473 . S
O136 C137 1.257 . S
C137 O135 1.273 . S
C137 O136 1.257 . S
O138 Eu118 2.326 . S
O138 C126 1.242 . S
O139 Tb117 2.324 . S
O139 C126 1.258 . S
O140 Eu118 2.500 . S
O140 C123 1.273 . S
O141 Eu118 2.473 . S
O141 C123 1.257 . S
H142 C128 0.929 . S
H143 C130 0.931 . S
H144 C132 0.929 . S
O145 Tb146 2.292 . S
O145 C148 1.225 1_655 S
Tb146 O145 2.292 . S
Tb146 O162 2.326 . S
Tb146 O164 2.500 . S
Tb146 O165 2.473 . S
Tb146 O168 2.324 . S
Eu147 O151 2.292 . S
Eu147 C152 2.852 . S
Eu147 O163 2.324 1_556 S
Eu147 O167 2.326 1_556 S
Eu147 O169 2.500 . S
Eu147 O170 2.473 1_556 S
C148 O145 1.225 1_455 S
C148 O149 1.259 . S
O149 C148 1.259 . S
C150 O162 1.242 . S
C150 O163 1.258 . S
O151 Eu147 2.292 . S
O151 C153 1.255 . S
C152 Eu147 2.852 . S
C152 C156 1.503 . S
C152 O169 1.273 . S
C152 O170 1.257 1_556 S
C153 O151 1.255 . S
C153 O154 1.247 . S
O154 C153 1.247 . S
C155 O167 1.242 . S
C155 O168 1.258 . S
C156 C152 1.503 . S
C156 C157 1.379 1_556 S
C156 C161 1.392 . S
C157 C156 1.379 1_554 S
C157 C158 1.404 . S
C157 H171 0.929 . S
C158 C157 1.404 . S
C158 C159 1.379 1_554 S
C159 C158 1.379 1_556 S
C159 C160 1.409 . S
C159 H172 0.929 1_556 S
C160 C159 1.409 . S
C160 C161 1.390 . S
C161 C156 1.392 . S
C161 C160 1.390 . S
C161 H173 0.929 . S
O162 Tb146 2.326 . S
O162 C150 1.242 . S
O163 Eu147 2.324 1_554 S
O163 C150 1.258 . S
O164 Tb146 2.500 . S
O164 C166 1.273 . S
O165 Tb146 2.473 . S
O165 C166 1.257 . S
C166 O164 1.273 . S
C166 O165 1.257 . S
O167 Eu147 2.326 1_554 S
O167 C155 1.242 . S
O168 Tb146 2.324 . S
O168 C155 1.258 . S
O169 Eu147 2.500 . S
O169 C152 1.273 . S
O170 Eu147 2.473 1_554 S
O170 C152 1.257 1_554 S
H171 C157 0.929 . S
H172 C159 0.929 1_554 S
H173 C161 0.929 . S
O174 Tb175 2.292 . S
O174 C177 1.255 . S
Tb175 O174 2.292 . S
Tb175 O191 2.326 . S
Tb175 O193 2.500 . S
Tb175 O194 2.473 . S
Tb175 O197 2.324 . S
Eu176 O180 2.292 . S
Eu176 C181 2.852 . S
Eu176 O192 2.324 . S
Eu176 O196 2.326 . S
Eu176 O198 2.500 . S
Eu176 O199 2.473 . S
C177 O174 1.255 . S
C177 O178 1.247 . S
O178 C177 1.247 . S
C179 O191 1.242 . S
C179 O192 1.258 . S
O180 Eu176 2.292 . S
O180 C182 1.255 . S
C181 Eu176 2.852 . S
C181 C185 1.503 . S
C181 O198 1.273 . S
C181 O199 1.257 . S
C182 O180 1.255 . S
C182 O183 1.247 . S
O183 C182 1.247 . S
C184 O196 1.242 . S
C184 O197 1.258 . S
C185 C181 1.503 . S
C185 C186 1.379 . S
C185 C190 1.392 . S
C186 C185 1.379 . S
C186 C187 1.404 . S
C186 H200 0.929 . S
C187 C186 1.404 . S
C187 C188 1.389 . S
C188 C187 1.389 . S
C188 C189 1.399 . S
C188 H201 0.931 . S
C189 C188 1.399 . S
C189 C190 1.390 . S
C190 C185 1.392 . S
C190 C189 1.390 . S
C190 H202 0.929 . S
O191 Tb175 2.326 . S
O191 C179 1.242 . S
O192 Eu176 2.324 . S
O192 C179 1.258 . S
O193 Tb175 2.500 . S
O193 C195 1.273 . S
O194 Tb175 2.473 . S
O194 C195 1.257 . S
C195 O193 1.273 . S
C195 O194 1.257 . S
O196 Eu176 2.326 . S
O196 C184 1.242 . S
O197 Tb175 2.324 . S
O197 C184 1.258 . S
O198 Eu176 2.500 . S
O198 C181 1.273 . S
O199 Eu176 2.473 . S
O199 C181 1.257 . S
H200 C186 0.929 . S
H201 C188 0.931 . S
H202 C190 0.929 . S
O203 Tb204 2.292 . S
O203 C206 1.225 1_455 S
Tb204 O203 2.292 . S
Tb204 O220 2.326 . S
Tb204 O222 2.500 . S
Tb204 O223 2.473 . S
Tb204 O226 2.324 . S
Eu205 O209 2.292 . S
Eu205 C210 2.852 . S
Eu205 O221 2.324 1_556 S
Eu205 O225 2.326 1_556 S
Eu205 O227 2.500 . S
Eu205 O228 2.473 1_556 S
C206 O203 1.225 1_655 S
C206 O207 1.259 . S
O207 C206 1.259 . S
C208 O220 1.242 . S
C208 O221 1.258 . S
O209 Eu205 2.292 . S
O209 C211 1.255 . S
C210 Eu205 2.852 . S
C210 C214 1.503 . S
C210 O227 1.273 . S
C210 O228 1.257 1_556 S
C211 O209 1.255 . S
C211 O212 1.247 . S
O212 C211 1.247 . S
C213 O225 1.242 . S
C213 O226 1.258 . S
C214 C210 1.503 . S
C214 C215 1.379 1_556 S
C214 C219 1.392 . S
C215 C214 1.379 1_554 S
C215 C216 1.404 . S
C215 H229 0.929 . S
C216 C215 1.404 . S
C216 C217 1.379 1_564 S
C217 C216 1.379 1_546 S
C217 C218 1.409 1_545 S
C217 H230 0.929 1_556 S
C218 C217 1.409 1_565 S
C218 C219 1.390 . S
C219 C214 1.392 . S
C219 C218 1.390 . S
C219 H231 0.929 . S
O220 Tb204 2.326 . S
O220 C208 1.242 . S
O221 Eu205 2.324 1_554 S
O221 C208 1.258 . S
O222 Tb204 2.500 . S
O222 C224 1.273 . S
O223 Tb204 2.473 . S
O223 C224 1.257 . S
C224 O222 1.273 . S
C224 O223 1.257 . S
O225 Eu205 2.326 1_554 S
O225 C213 1.242 . S
O226 Tb204 2.324 . S
O226 C213 1.258 . S
O227 Eu205 2.500 . S
O227 C210 1.273 . S
O228 Eu205 2.473 1_554 S
O228 C210 1.257 1_554 S
H229 C215 0.929 . S
H230 C217 0.929 1_554 S
H231 C219 0.929 . S
O232 Tb233 2.292 . S
O232 C235 1.255 . S
Tb233 O232 2.292 . S
Tb233 O249 2.326 . S
Tb233 O251 2.500 . S
Tb233 O252 2.473 . S
Tb233 O255 2.324 . S
Eu234 O238 2.292 . S
Eu234 C239 2.852 . S
Eu234 O250 2.324 . S
Eu234 O254 2.326 . S
Eu234 O256 2.500 . S
Eu234 O257 2.473 . S
C235 O232 1.255 . S
C235 O236 1.247 . S
O236 C235 1.247 . S
C237 O249 1.242 . S
C237 O250 1.258 . S
O238 Eu234 2.292 . S
O238 C240 1.255 . S
C239 Eu234 2.852 . S
C239 C243 1.503 . S
C239 O256 1.273 . S
C239 O257 1.257 . S
C240 O238 1.255 . S
C240 O241 1.247 . S
O241 C240 1.247 . S
C242 O254 1.242 . S
C242 O255 1.258 . S
C243 C239 1.503 . S
C243 C244 1.379 . S
C243 C248 1.392 . S
C244 C243 1.379 . S
C244 C245 1.404 . S
C244 H258 0.929 . S
C245 C244 1.404 . S
C245 C246 1.389 . S
C246 C245 1.389 . S
C246 C247 1.399 . S
C246 H259 0.931 . S
C247 C246 1.399 . S
C247 C248 1.390 . S
C248 C243 1.392 . S
C248 C247 1.390 . S
C248 H260 0.929 . S
O249 Tb233 2.326 . S
O249 C237 1.242 . S
O250 Eu234 2.324 . S
O250 C237 1.258 . S
O251 Tb233 2.500 . S
O251 C253 1.273 . S
O252 Tb233 2.473 . S
O252 C253 1.257 . S
C253 O251 1.273 . S
C253 O252 1.257 . S
O254 Eu234 2.326 . S
O254 C242 1.242 . S
O255 Tb233 2.324 . S
O255 C242 1.258 . S
O256 Eu234 2.500 . S
O256 C239 1.273 . S
O257 Eu234 2.473 . S
O257 C239 1.257 . S
H258 C244 0.929 . S
H259 C246 0.931 . S
H260 C248 0.929 . S
O261 Tb262 2.292 . S
O261 C264 1.225 1_556 S
Tb262 O261 2.292 . S
Tb262 O278 2.326 . S
Tb262 O280 2.500 . S
Tb262 O281 2.473 . S
Tb262 O284 2.324 . S
Eu263 O267 2.292 . S
Eu263 C268 2.852 . S
Eu263 O279 2.324 . S
Eu263 O283 2.326 . S
Eu263 O285 2.500 . S
Eu263 O286 2.473 . S
C264 O261 1.225 1_554 S
C264 O265 1.259 . S
O265 C264 1.259 . S
C266 O278 1.242 . S
C266 O279 1.258 . S
O267 Eu263 2.292 . S
O267 C269 1.255 . S
C268 Eu263 2.852 . S
C268 C272 1.503 . S
C268 O285 1.273 . S
C268 O286 1.257 . S
C269 O267 1.255 . S
C269 O270 1.247 . S
O270 C269 1.247 . S
C271 O283 1.242 . S
C271 O284 1.258 . S
C272 C268 1.503 . S
C272 C273 1.379 . S
C272 C277 1.392 . S
C273 C272 1.379 . S
C273 C274 1.404 . S
C273 H287 0.929 . S
C274 C273 1.404 . S
C274 C275 1.389 . S
C275 C274 1.389 . S
C275 C276 1.399 . S
C275 H288 0.931 . S
C276 C275 1.399 . S
C276 C277 1.390 . S
C277 C272 1.392 . S
C277 C276 1.390 . S
C277 H289 0.929 . S
O278 Tb262 2.326 . S
O278 C266 1.242 . S
O279 Eu263 2.324 . S
O279 C266 1.258 . S
O280 Tb262 2.500 . S
O280 C282 1.273 . S
O281 Tb262 2.473 . S
O281 C282 1.257 . S
C282 O280 1.273 . S
C282 O281 1.257 . S
O283 Eu263 2.326 . S
O283 C271 1.242 . S
O284 Tb262 2.324 . S
O284 C271 1.258 . S
O285 Eu263 2.500 . S
O285 C268 1.273 . S
O286 Eu263 2.473 . S
O286 C268 1.257 . S
H287 C273 0.929 . S
H288 C275 0.931 . S
H289 C277 0.929 . S
O290 Tb291 2.292 . S
O290 C293 1.255 . S
Tb291 O290 2.292 . S
Tb291 O307 2.326 . S
Tb291 O309 2.500 . S
Tb291 O310 2.473 . S
Tb291 O313 2.324 . S
Eu292 O296 2.292 . S
Eu292 C297 2.852 . S
Eu292 O308 2.324 . S
Eu292 O312 2.326 . S
Eu292 O314 2.500 . S
Eu292 O315 2.473 . S
C293 O290 1.255 . S
C293 O294 1.247 . S
O294 C293 1.247 . S
C295 O307 1.242 . S
C295 O308 1.258 . S
O296 Eu292 2.292 . S
O296 C298 1.255 . S
C297 Eu292 2.852 . S
C297 C301 1.503 . S
C297 O314 1.273 . S
C297 O315 1.257 . S
C298 O296 1.255 . S
C298 O299 1.247 . S
O299 C298 1.247 . S
C300 O312 1.242 . S
C300 O313 1.258 . S
C301 C297 1.503 . S
C301 C302 1.379 . S
C301 C306 1.392 . S
C302 C301 1.379 . S
C302 C303 1.404 . S
C302 H316 0.929 . S
C303 C302 1.404 . S
C303 C304 1.389 . S
C304 C303 1.389 . S
C304 C305 1.399 . S
C304 H317 0.931 . S
C305 C304 1.399 . S
C305 C306 1.390 . S
C306 C301 1.392 . S
C306 C305 1.390 . S
C306 H318 0.929 . S
O307 Tb291 2.326 . S
O307 C295 1.242 . S
O308 Eu292 2.324 . S
O308 C295 1.258 . S
O309 Tb291 2.500 . S
O309 C311 1.273 . S
O310 Tb291 2.473 . S
O310 C311 1.257 . S
C311 O309 1.273 . S
C311 O310 1.257 . S
O312 Eu292 2.326 . S
O312 C300 1.242 . S
O313 Tb291 2.324 . S
O313 C300 1.258 . S
O314 Eu292 2.500 . S
O314 C297 1.273 . S
O315 Eu292 2.473 . S
O315 C297 1.257 . S
H316 C302 0.929 . S
H317 C304 0.931 . S
H318 C306 0.929 . S
O319 Tb320 2.292 . S
O319 C322 1.225 1_556 S
Tb320 O319 2.292 . S
Tb320 O336 2.326 . S
Tb320 O338 2.500 . S
Tb320 O339 2.473 . S
Tb320 O342 2.324 . S
Eu321 O325 2.292 . S
Eu321 C326 2.852 . S
Eu321 O337 2.324 1_565 S
Eu321 O341 2.326 1_565 S
Eu321 O343 2.500 . S
Eu321 O344 2.473 1_565 S
C322 O319 1.225 1_554 S
C322 O323 1.259 . S
O323 C322 1.259 . S
C324 O336 1.242 . S
C324 O337 1.258 . S
O325 Eu321 2.292 . S
O325 C327 1.255 . S
C326 Eu321 2.852 . S
C326 C330 1.503 . S
C326 O343 1.273 . S
C326 O344 1.257 1_565 S
C327 O325 1.255 . S
C327 O328 1.247 . S
O328 C327 1.247 . S
C329 O341 1.242 . S
C329 O342 1.258 . S
C330 C326 1.503 . S
C330 C331 1.379 1_565 S
C330 C335 1.392 . S
C331 C330 1.379 1_545 S
C331 C332 1.404 . S
C331 H345 0.929 . S
C332 C331 1.404 . S
C332 C333 1.379 1_545 S
C333 C332 1.379 1_565 S
C333 C334 1.409 . S
C333 H346 0.929 1_565 S
C334 C333 1.409 . S
C334 C335 1.390 . S
C335 C330 1.392 . S
C335 C334 1.390 . S
C335 H347 0.929 . S
O336 Tb320 2.326 . S
O336 C324 1.242 . S
O337 Eu321 2.324 1_545 S
O337 C324 1.258 . S
O338 Tb320 2.500 . S
O338 C340 1.273 . S
O339 Tb320 2.473 . S
O339 C340 1.257 . S
C340 O338 1.273 . S
C340 O339 1.257 . S
O341 Eu321 2.326 1_545 S
O341 C329 1.242 . S
O342 Tb320 2.324 . S
O342 C329 1.258 . S
O343 Eu321 2.500 . S
O343 C326 1.273 . S
O344 Eu321 2.473 1_545 S
O344 C326 1.257 1_545 S
H345 C331 0.929 . S
H346 C333 0.929 1_545 S
H347 C335 0.929 . S
O348 Tb349 2.292 . S
O348 C351 1.255 . S
Tb349 O348 2.292 . S
Tb349 O365 2.326 . S
Tb349 O367 2.500 . S
Tb349 O368 2.473 . S
Tb349 O371 2.324 . S
Eu350 O354 2.292 . S
Eu350 C355 2.852 . S
Eu350 O366 2.324 . S
Eu350 O370 2.326 . S
Eu350 O372 2.500 . S
Eu350 O373 2.473 . S
C351 O348 1.255 . S
C351 O352 1.247 . S
O352 C351 1.247 . S
C353 O365 1.242 . S
C353 O366 1.258 . S
O354 Eu350 2.292 . S
O354 C356 1.255 . S
C355 Eu350 2.852 . S
C355 C359 1.503 . S
C355 O372 1.273 . S
C355 O373 1.257 . S
C356 O354 1.255 . S
C356 O357 1.247 . S
O357 C356 1.247 . S
C358 O370 1.242 . S
C358 O371 1.258 . S
C359 C355 1.503 . S
C359 C360 1.379 . S
C359 C364 1.392 . S
C360 C359 1.379 . S
C360 C361 1.404 . S
C360 H374 0.929 . S
C361 C360 1.404 . S
C361 C362 1.389 . S
C362 C361 1.389 . S
C362 C363 1.399 . S
C362 H375 0.931 . S
C363 C362 1.399 . S
C363 C364 1.390 . S
C364 C359 1.392 . S
C364 C363 1.390 . S
C364 H376 0.929 . S
O365 Tb349 2.326 . S
O365 C353 1.242 . S
O366 Eu350 2.324 . S
O366 C353 1.258 . S
O367 Tb349 2.500 . S
O367 C369 1.273 . S
O368 Tb349 2.473 . S
O368 C369 1.257 . S
C369 O367 1.273 . S
C369 O368 1.257 . S
O370 Eu350 2.326 . S
O370 C358 1.242 . S
O371 Tb349 2.324 . S
O371 C358 1.258 . S
O372 Eu350 2.500 . S
O372 C355 1.273 . S
O373 Eu350 2.473 . S
O373 C355 1.257 . S
H374 C360 0.929 . S
H375 C362 0.931 . S
H376 C364 0.929 . S
O377 Tb378 2.292 . S
O377 C380 1.225 1_554 S
Tb378 O377 2.292 . S
Tb378 O394 2.326 . S
Tb378 O396 2.500 . S
Tb378 O397 2.473 . S
Tb378 O400 2.324 . S
Eu379 O383 2.292 . S
Eu379 C384 2.852 . S
Eu379 O395 2.324 . S
Eu379 O399 2.326 . S
Eu379 O401 2.500 . S
Eu379 O402 2.473 . S
C380 O377 1.225 1_556 S
C380 O381 1.259 . S
O381 C380 1.259 . S
C382 O394 1.242 . S
C382 O395 1.258 . S
O383 Eu379 2.292 . S
O383 C385 1.255 . S
C384 Eu379 2.852 . S
C384 C388 1.503 . S
C384 O401 1.273 . S
C384 O402 1.257 . S
C385 O383 1.255 . S
C385 O386 1.247 . S
O386 C385 1.247 . S
C387 O399 1.242 . S
C387 O400 1.258 . S
C388 C384 1.503 . S
C388 C389 1.379 . S
C388 C393 1.392 . S
C389 C388 1.379 . S
C389 C390 1.404 . S
C389 H403 0.929 . S
C390 C389 1.404 . S
C390 C391 1.389 1_455 S
C391 C390 1.389 1_655 S
C391 C392 1.399 1_655 S
C391 H404 0.931 . S
C392 C391 1.399 1_455 S
C392 C393 1.390 . S
C393 C388 1.392 . S
C393 C392 1.390 . S
C393 H405 0.929 . S
O394 Tb378 2.326 . S
O394 C382 1.242 . S
O395 Eu379 2.324 . S
O395 C382 1.258 . S
O396 Tb378 2.500 . S
O396 C398 1.273 . S
O397 Tb378 2.473 . S
O397 C398 1.257 . S
C398 O396 1.273 . S
C398 O397 1.257 . S
O399 Eu379 2.326 . S
O399 C387 1.242 . S
O400 Tb378 2.324 . S
O400 C387 1.258 . S
O401 Eu379 2.500 . S
O401 C384 1.273 . S
O402 Eu379 2.473 . S
O402 C384 1.257 . S
H403 C389 0.929 . S
H404 C391 0.931 . S
H405 C393 0.929 . S
O406 Tb407 2.292 . S
O406 C409 1.255 . S
Tb407 O406 2.292 . S
Tb407 O423 2.326 . S
Tb407 O425 2.500 . S
Tb407 O426 2.473 . S
Tb407 O429 2.324 . S
Eu408 O412 2.292 . S
Eu408 C413 2.852 . S
Eu408 O424 2.324 . S
Eu408 O428 2.326 . S
Eu408 O430 2.500 . S
Eu408 O431 2.473 . S
C409 O406 1.255 . S
C409 O410 1.247 . S
O410 C409 1.247 . S
C411 O423 1.242 . S
C411 O424 1.258 . S
O412 Eu408 2.292 . S
O412 C414 1.255 . S
C413 Eu408 2.852 . S
C413 C417 1.503 . S
C413 O430 1.273 . S
C413 O431 1.257 . S
C414 O412 1.255 . S
C414 O415 1.247 . S
O415 C414 1.247 . S
C416 O428 1.242 . S
C416 O429 1.258 . S
C417 C413 1.503 . S
C417 C418 1.379 . S
C417 C422 1.392 . S
C418 C417 1.379 . S
C418 C419 1.404 . S
C418 H432 0.929 . S
C419 C418 1.404 . S
C419 C420 1.389 . S
C420 C419 1.389 . S
C420 C421 1.399 . S
C420 H433 0.931 . S
C421 C420 1.399 . S
C421 C422 1.390 . S
C422 C417 1.392 . S
C422 C421 1.390 . S
C422 H434 0.929 . S
O423 Tb407 2.326 . S
O423 C411 1.242 . S
O424 Eu408 2.324 . S
O424 C411 1.258 . S
O425 Tb407 2.500 . S
O425 C427 1.273 . S
O426 Tb407 2.473 . S
O426 C427 1.257 . S
C427 O425 1.273 . S
C427 O426 1.257 . S
O428 Eu408 2.326 . S
O428 C416 1.242 . S
O429 Tb407 2.324 . S
O429 C416 1.258 . S
O430 Eu408 2.500 . S
O430 C413 1.273 . S
O431 Eu408 2.473 . S
O431 C413 1.257 . S
H432 C418 0.929 . S
H433 C420 0.931 . S
H434 C422 0.929 . S
O435 Tb436 2.292 . S
O435 C438 1.225 1_554 S
Tb436 O435 2.292 . S
Tb436 O452 2.326 . S
Tb436 O454 2.500 . S
Tb436 O455 2.473 . S
Tb436 O458 2.324 . S
Eu437 O441 2.292 . S
Eu437 C442 2.852 . S
Eu437 O453 2.324 1_565 S
Eu437 O457 2.326 1_565 S
Eu437 O459 2.500 . S
Eu437 O460 2.473 1_565 S
C438 O435 1.225 1_556 S
C438 O439 1.259 . S
O439 C438 1.259 . S
C440 O452 1.242 . S
C440 O453 1.258 . S
O441 Eu437 2.292 . S
O441 C443 1.255 . S
C442 Eu437 2.852 . S
C442 C446 1.503 . S
C442 O459 1.273 . S
C442 O460 1.257 1_565 S
C443 O441 1.255 . S
C443 O444 1.247 . S
O444 C443 1.247 . S
C445 O457 1.242 . S
C445 O458 1.258 . S
C446 C442 1.503 . S
C446 C447 1.379 1_565 S
C446 C451 1.392 . S
C447 C446 1.379 1_545 S
C447 C448 1.404 . S
C447 H461 0.929 . S
C448 C447 1.404 . S
C448 C449 1.379 1_645 S
C449 C448 1.379 1_465 S
C449 C450 1.409 1_455 S
C449 H462 0.929 1_565 S
C450 C449 1.409 1_655 S
C450 C451 1.390 . S
C451 C446 1.392 . S
C451 C450 1.390 . S
C451 H463 0.929 . S
O452 Tb436 2.326 . S
O452 C440 1.242 . S
O453 Eu437 2.324 1_545 S
O453 C440 1.258 . S
O454 Tb436 2.500 . S
O454 C456 1.273 . S
O455 Tb436 2.473 . S
O455 C456 1.257 . S
C456 O454 1.273 . S
C456 O455 1.257 . S
O457 Eu437 2.326 1_545 S
O457 C445 1.242 . S
O458 Tb436 2.324 . S
O458 C445 1.258 . S
O459 Eu437 2.500 . S
O459 C442 1.273 . S
O460 Eu437 2.473 1_545 S
O460 C442 1.257 1_545 S
H461 C447 0.929 . S
H462 C449 0.929 1_545 S
H463 C451 0.929 . S
O464 Tb465 2.292 . S
O464 C467 1.255 . S
Tb465 O464 2.292 . S
Tb465 O481 2.326 . S
Tb465 O483 2.500 . S
Tb465 O484 2.473 . S
Tb465 O487 2.324 . S
Eu466 O470 2.292 . S
Eu466 C471 2.852 . S
Eu466 O482 2.324 . S
Eu466 O486 2.326 . S
Eu466 O488 2.500 . S
Eu466 O489 2.473 . S
C467 O464 1.255 . S
C467 O468 1.247 . S
O468 C467 1.247 . S
C469 O481 1.242 . S
C469 O482 1.258 . S
O470 Eu466 2.292 . S
O470 C472 1.255 . S
C471 Eu466 2.852 . S
C471 C475 1.503 . S
C471 O488 1.273 . S
C471 O489 1.257 . S
C472 O470 1.255 . S
C472 O473 1.247 . S
O473 C472 1.247 . S
C474 O486 1.242 . S
C474 O487 1.258 . S
C475 C471 1.503 . S
C475 C476 1.379 . S
C475 C480 1.392 . S
C476 C475 1.379 . S
C476 C477 1.404 . S
C476 H490 0.929 . S
C477 C476 1.404 . S
C477 C478 1.389 . S
C478 C477 1.389 . S
C478 C479 1.399 . S
C478 H491 0.931 . S
C479 C478 1.399 . S
C479 C480 1.390 . S
C480 C475 1.392 . S
C480 C479 1.390 . S
C480 H492 0.929 . S
O481 Tb465 2.326 . S
O481 C469 1.242 . S
O482 Eu466 2.324 . S
O482 C469 1.258 . S
O483 Tb465 2.500 . S
O483 C485 1.273 . S
O484 Tb465 2.473 . S
O484 C485 1.257 . S
C485 O483 1.273 . S
C485 O484 1.257 . S
O486 Eu466 2.326 . S
O486 C474 1.242 . S
O487 Tb465 2.324 . S
O487 C474 1.258 . S
O488 Eu466 2.500 . S
O488 C471 1.273 . S
O489 Eu466 2.473 . S
O489 C471 1.257 . S
H490 C476 0.929 . S
H491 C478 0.931 . S
H492 C480 0.929 . S
O493 Tb494 2.292 . S
O493 C496 1.255 . S
Tb494 O493 2.292 . S
Tb494 O510 2.326 . S
Tb494 O512 2.500 . S
Tb494 O513 2.473 . S
Tb494 O516 2.324 . S
Eu495 O499 2.292 . S
Eu495 C500 2.852 . S
Eu495 O511 2.324 . S
Eu495 O515 2.326 . S
Eu495 O517 2.500 . S
Eu495 O518 2.473 . S
C496 O493 1.255 . S
C496 O497 1.247 . S
O497 C496 1.247 . S
C498 O510 1.242 . S
C498 O511 1.258 . S
O499 Eu495 2.292 . S
O499 C501 1.255 . S
C500 Eu495 2.852 . S
C500 C504 1.503 . S
C500 O517 1.273 . S
C500 O518 1.257 . S
C501 O499 1.255 . S
C501 O502 1.247 . S
O502 C501 1.247 . S
C503 O515 1.242 . S
C503 O516 1.258 . S
C504 C500 1.503 . S
C504 C505 1.379 . S
C504 C509 1.392 . S
C505 C504 1.379 . S
C505 C506 1.404 . S
C505 H519 0.929 . S
C506 C505 1.404 . S
C506 C507 1.389 . S
C507 C506 1.389 . S
C507 C508 1.399 . S
C507 H520 0.931 . S
C508 C507 1.399 . S
C508 C509 1.390 . S
C509 C504 1.392 . S
C509 C508 1.390 . S
C509 H521 0.929 . S
O510 Tb494 2.326 . S
O510 C498 1.242 . S
O511 Eu495 2.324 . S
O511 C498 1.258 . S
O512 Tb494 2.500 . S
O512 C514 1.273 . S
O513 Tb494 2.473 . S
O513 C514 1.257 . S
C514 O512 1.273 . S
C514 O513 1.257 . S
O515 Eu495 2.326 . S
O515 C503 1.242 . S
O516 Tb494 2.324 . S
O516 C503 1.258 . S
O517 Eu495 2.500 . S
O517 C500 1.273 . S
O518 Eu495 2.473 . S
O518 C500 1.257 . S
H519 C505 0.929 . S
H520 C507 0.931 . S
H521 C509 0.929 . S
O522 Tb523 2.292 . S
O522 C525 1.255 . S
Tb523 O522 2.292 . S
Tb523 O539 2.326 . S
Tb523 O541 2.500 . S
Tb523 O542 2.473 . S
Tb523 O545 2.324 . S
Eu524 O528 2.292 . S
Eu524 C529 2.852 . S
Eu524 O540 2.324 1_455 S
Eu524 O544 2.326 1_455 S
Eu524 O546 2.500 . S
Eu524 O547 2.473 1_455 S
C525 O522 1.255 . S
C525 O526 1.247 . S
O526 C525 1.247 . S
C527 O539 1.242 . S
C527 O540 1.258 . S
O528 Eu524 2.292 . S
O528 C530 1.255 . S
C529 Eu524 2.852 . S
C529 C533 1.503 . S
C529 O546 1.273 . S
C529 O547 1.257 1_455 S
C530 O528 1.255 . S
C530 O531 1.247 . S
O531 C530 1.247 . S
C532 O544 1.242 . S
C532 O545 1.258 . S
C533 C529 1.503 . S
C533 C534 1.379 1_455 S
C533 C538 1.392 . S
C534 C533 1.379 1_655 S
C534 C535 1.404 . S
C534 H548 0.929 . S
C535 C534 1.404 . S
C535 C536 1.379 1_656 S
C536 C535 1.379 1_454 S
C536 C537 1.409 1_554 S
C536 H549 0.929 1_455 S
C537 C536 1.409 1_556 S
C537 C538 1.390 . S
C538 C533 1.392 . S
C538 C537 1.390 . S
C538 H550 0.929 . S
O539 Tb523 2.326 . S
O539 C527 1.242 . S
O540 Eu524 2.324 1_655 S
O540 C527 1.258 . S
O541 Tb523 2.500 . S
O541 C543 1.273 . S
O542 Tb523 2.473 . S
O542 C543 1.257 . S
C543 O541 1.273 . S
C543 O542 1.257 . S
O544 Eu524 2.326 1_655 S
O544 C532 1.242 . S
O545 Tb523 2.324 . S
O545 C532 1.258 . S
O546 Eu524 2.500 . S
O546 C529 1.273 . S
O547 Eu524 2.473 1_655 S
O547 C529 1.257 1_655 S
H548 C534 0.929 . S
H549 C536 0.929 1_655 S
H550 C538 0.929 . S
O551 Tb552 2.292 . S
O551 C554 1.255 . S
Tb552 O551 2.292 . S
Tb552 O568 2.326 . S
Tb552 O570 2.500 . S
Tb552 O571 2.473 . S
Tb552 O574 2.324 . S
Eu553 O557 2.292 . S
Eu553 C558 2.852 . S
Eu553 O569 2.324 . S
Eu553 O573 2.326 . S
Eu553 O575 2.500 . S
Eu553 O576 2.473 . S
C554 O551 1.255 . S
C554 O555 1.247 . S
O555 C554 1.247 . S
C556 O568 1.242 . S
C556 O569 1.258 . S
O557 Eu553 2.292 . S
O557 C559 1.255 . S
C558 Eu553 2.852 . S
C558 C562 1.503 . S
C558 O575 1.273 . S
C558 O576 1.257 . S
C559 O557 1.255 . S
C559 O560 1.247 . S
O560 C559 1.247 . S
C561 O573 1.242 . S
C561 O574 1.258 . S
C562 C558 1.503 . S
C562 C563 1.379 . S
C562 C567 1.392 . S
C563 C562 1.379 . S
C563 C564 1.404 . S
C563 H577 0.929 . S
C564 C563 1.404 . S
C564 C565 1.389 . S
C565 C564 1.389 . S
C565 C566 1.399 . S
C565 H578 0.931 . S
C566 C565 1.399 . S
C566 C567 1.390 . S
C567 C562 1.392 . S
C567 C566 1.390 . S
C567 H579 0.929 . S
O568 Tb552 2.326 . S
O568 C556 1.242 . S
O569 Eu553 2.324 . S
O569 C556 1.258 . S
O570 Tb552 2.500 . S
O570 C572 1.273 . S
O571 Tb552 2.473 . S
O571 C572 1.257 . S
C572 O570 1.273 . S
C572 O571 1.257 . S
O573 Eu553 2.326 . S
O573 C561 1.242 . S
O574 Tb552 2.324 . S
O574 C561 1.258 . S
O575 Eu553 2.500 . S
O575 C558 1.273 . S
O576 Eu553 2.473 . S
O576 C558 1.257 . S
H577 C563 0.929 . S
H578 C565 0.931 . S
H579 C567 0.929 . S
O580 Tb581 2.292 . S
O580 C583 1.255 . S
Tb581 O580 2.292 . S
Tb581 O597 2.326 . S
Tb581 O599 2.500 . S
Tb581 O600 2.473 . S
Tb581 O603 2.324 . S
Eu582 O586 2.292 . S
Eu582 C587 2.852 . S
Eu582 O598 2.324 . S
Eu582 O602 2.326 . S
Eu582 O604 2.500 . S
Eu582 O605 2.473 . S
C583 O580 1.255 . S
C583 O584 1.247 . S
O584 C583 1.247 . S
C585 O597 1.242 . S
C585 O598 1.258 . S
O586 Eu582 2.292 . S
O586 C588 1.255 . S
C587 Eu582 2.852 . S
C587 C591 1.503 . S
C587 O604 1.273 . S
C587 O605 1.257 . S
C588 O586 1.255 . S
C588 O589 1.247 . S
O589 C588 1.247 . S
C590 O602 1.242 . S
C590 O603 1.258 . S
C591 C587 1.503 . S
C591 C592 1.379 . S
C591 C596 1.392 . S
C592 C591 1.379 . S
C592 C593 1.404 . S
C592 H606 0.929 . S
C593 C592 1.404 . S
C593 C594 1.389 . S
C594 C593 1.389 . S
C594 C595 1.399 . S
C594 H607 0.931 . S
C595 C594 1.399 . S
C595 C596 1.390 . S
C596 C591 1.392 . S
C596 C595 1.390 . S
C596 H608 0.929 . S
O597 Tb581 2.326 . S
O597 C585 1.242 . S
O598 Eu582 2.324 . S
O598 C585 1.258 . S
O599 Tb581 2.500 . S
O599 C601 1.273 . S
O600 Tb581 2.473 . S
O600 C601 1.257 . S
C601 O599 1.273 . S
C601 O600 1.257 . S
O602 Eu582 2.326 . S
O602 C590 1.242 . S
O603 Tb581 2.324 . S
O603 C590 1.258 . S
O604 Eu582 2.500 . S
O604 C587 1.273 . S
O605 Eu582 2.473 . S
O605 C587 1.257 . S
H606 C592 0.929 . S
H607 C594 0.931 . S
H608 C596 0.929 . S
O609 Tb610 2.292 . S
O609 C612 1.255 . S
Tb610 O609 2.292 . S
Tb610 O626 2.326 . S
Tb610 O628 2.500 . S
Tb610 O629 2.473 . S
Tb610 O632 2.324 . S
Eu611 O615 2.292 . S
Eu611 C616 2.852 . S
Eu611 O627 2.324 . S
Eu611 O631 2.326 . S
Eu611 O633 2.500 . S
Eu611 O634 2.473 . S
C612 O609 1.255 . S
C612 O613 1.247 . S
O613 C612 1.247 . S
C614 O626 1.242 . S
C614 O627 1.258 . S
O615 Eu611 2.292 . S
O615 C617 1.255 . S
C616 Eu611 2.852 . S
C616 C620 1.503 . S
C616 O633 1.273 . S
C616 O634 1.257 . S
C617 O615 1.255 . S
C617 O618 1.247 . S
O618 C617 1.247 . S
C619 O631 1.242 . S
C619 O632 1.258 . S
C620 C616 1.503 . S
C620 C621 1.379 . S
C620 C625 1.392 . S
C621 C620 1.379 . S
C621 C622 1.404 . S
C621 H635 0.929 . S
C622 C621 1.404 . S
C622 C623 1.389 . S
C623 C622 1.389 . S
C623 C624 1.399 . S
C623 H636 0.931 . S
C624 C623 1.399 . S
C624 C625 1.390 . S
C625 C620 1.392 . S
C625 C624 1.390 . S
C625 H637 0.929 . S
O626 Tb610 2.326 . S
O626 C614 1.242 . S
O627 Eu611 2.324 . S
O627 C614 1.258 . S
O628 Tb610 2.500 . S
O628 C630 1.273 . S
O629 Tb610 2.473 . S
O629 C630 1.257 . S
C630 O628 1.273 . S
C630 O629 1.257 . S
O631 Eu611 2.326 . S
O631 C619 1.242 . S
O632 Tb610 2.324 . S
O632 C619 1.258 . S
O633 Eu611 2.500 . S
O633 C616 1.273 . S
O634 Eu611 2.473 . S
O634 C616 1.257 . S
H635 C621 0.929 . S
H636 C623 0.931 . S
H637 C625 0.929 . S
O638 Tb639 2.292 . S
O638 C641 1.255 . S
Tb639 O638 2.292 . S
Tb639 O655 2.326 . S
Tb639 O657 2.500 . S
Tb639 O658 2.473 . S
Tb639 O661 2.324 . S
Eu640 O644 2.292 . S
Eu640 C645 2.852 . S
Eu640 O656 2.324 1_455 S
Eu640 O660 2.326 1_455 S
Eu640 O662 2.500 . S
Eu640 O663 2.473 1_455 S
C641 O638 1.255 . S
C641 O642 1.247 . S
O642 C641 1.247 . S
C643 O655 1.242 . S
C643 O656 1.258 . S
O644 Eu640 2.292 . S
O644 C646 1.255 . S
C645 Eu640 2.852 . S
C645 C649 1.503 . S
C645 O662 1.273 . S
C645 O663 1.257 1_455 S
C646 O644 1.255 . S
C646 O647 1.247 . S
O647 C646 1.247 . S
C648 O660 1.242 . S
C648 O661 1.258 . S
C649 C645 1.503 . S
C649 C650 1.379 1_455 S
C649 C654 1.392 . S
C650 C649 1.379 1_655 S
C650 C651 1.404 . S
C650 H664 0.929 . S
C651 C650 1.404 . S
C651 C652 1.379 1_655 S
C652 C651 1.379 1_455 S
C652 C653 1.409 . S
C652 H665 0.929 1_455 S
C653 C652 1.409 . S
C653 C654 1.390 . S
C654 C649 1.392 . S
C654 C653 1.390 . S
C654 H666 0.929 . S
O655 Tb639 2.326 . S
O655 C643 1.242 . S
O656 Eu640 2.324 1_655 S
O656 C643 1.258 . S
O657 Tb639 2.500 . S
O657 C659 1.273 . S
O658 Tb639 2.473 . S
O658 C659 1.257 . S
C659 O657 1.273 . S
C659 O658 1.257 . S
O660 Eu640 2.326 1_655 S
O660 C648 1.242 . S
O661 Tb639 2.324 . S
O661 C648 1.258 . S
O662 Eu640 2.500 . S
O662 C645 1.273 . S
O663 Eu640 2.473 1_655 S
O663 C645 1.257 1_655 S
H664 C650 0.929 . S
H665 C652 0.929 1_655 S
H666 C654 0.929 . S
O667 Tb668 2.292 . S
O667 C670 1.225 1_565 S
Tb668 O667 2.292 . S
Tb668 O684 2.326 . S
Tb668 O686 2.500 . S
Tb668 O687 2.473 . S
Tb668 O690 2.324 . S
Eu669 O673 2.292 . S
Eu669 C674 2.852 . S
Eu669 O685 2.324 1_655 S
Eu669 O689 2.326 1_655 S
Eu669 O691 2.500 . S
Eu669 O692 2.473 1_655 S
C670 O667 1.225 1_545 S
C670 O671 1.259 . S
O671 C670 1.259 . S
C672 O684 1.242 . S
C672 O685 1.258 . S
O673 Eu669 2.292 . S
O673 C675 1.255 . S
C674 Eu669 2.852 . S
C674 C678 1.503 . S
C674 O691 1.273 . S
C674 O692 1.257 1_655 S
C675 O673 1.255 . S
C675 O676 1.247 . S
O676 C675 1.247 . S
C677 O689 1.242 . S
C677 O690 1.258 . S
C678 C674 1.503 . S
C678 C679 1.379 1_655 S
C678 C683 1.392 . S
C679 C678 1.379 1_455 S
C679 C680 1.404 . S
C679 H693 0.929 . S
C680 C679 1.404 . S
C680 C681 1.379 1_455 S
C681 C680 1.379 1_655 S
C681 C682 1.409 . S
C681 H694 0.929 1_655 S
C682 C681 1.409 . S
C682 C683 1.390 . S
C683 C678 1.392 . S
C683 C682 1.390 . S
C683 H695 0.929 . S
O684 Tb668 2.326 . S
O684 C672 1.242 . S
O685 Eu669 2.324 1_455 S
O685 C672 1.258 . S
O686 Tb668 2.500 . S
O686 C688 1.273 . S
O687 Tb668 2.473 . S
O687 C688 1.257 . S
C688 O686 1.273 . S
C688 O687 1.257 . S
O689 Eu669 2.326 1_455 S
O689 C677 1.242 . S
O690 Tb668 2.324 . S
O690 C677 1.258 . S
O691 Eu669 2.500 . S
O691 C674 1.273 . S
O692 Eu669 2.473 1_455 S
O692 C674 1.257 1_455 S
H693 C679 0.929 . S
H694 C681 0.929 1_455 S
H695 C683 0.929 . S
O696 Tb697 2.292 . S
O696 C699 1.255 . S
Tb697 O696 2.292 . S
Tb697 O713 2.326 . S
Tb697 O715 2.500 . S
Tb697 O716 2.473 . S
Tb697 O719 2.324 . S
Eu698 O702 2.292 . S
Eu698 C703 2.852 . S
Eu698 O714 2.324 . S
Eu698 O718 2.326 . S
Eu698 O720 2.500 . S
Eu698 O721 2.473 . S
C699 O696 1.255 . S
C699 O700 1.247 . S
O700 C699 1.247 . S
C701 O713 1.242 . S
C701 O714 1.258 . S
O702 Eu698 2.292 . S
O702 C704 1.255 . S
C703 Eu698 2.852 . S
C703 C707 1.503 . S
C703 O720 1.273 . S
C703 O721 1.257 . S
C704 O702 1.255 . S
C704 O705 1.247 . S
O705 C704 1.247 . S
C706 O718 1.242 . S
C706 O719 1.258 . S
C707 C703 1.503 . S
C707 C708 1.379 . S
C707 C712 1.392 . S
C708 C707 1.379 . S
C708 C709 1.404 . S
C708 H722 0.929 . S
C709 C708 1.404 . S
C709 C710 1.389 . S
C710 C709 1.389 . S
C710 C711 1.399 . S
C710 H723 0.931 . S
C711 C710 1.399 . S
C711 C712 1.390 . S
C712 C707 1.392 . S
C712 C711 1.390 . S
C712 H724 0.929 . S
O713 Tb697 2.326 . S
O713 C701 1.242 . S
O714 Eu698 2.324 . S
O714 C701 1.258 . S
O715 Tb697 2.500 . S
O715 C717 1.273 . S
O716 Tb697 2.473 . S
O716 C717 1.257 . S
C717 O715 1.273 . S
C717 O716 1.257 . S
O718 Eu698 2.326 . S
O718 C706 1.242 . S
O719 Tb697 2.324 . S
O719 C706 1.258 . S
O720 Eu698 2.500 . S
O720 C703 1.273 . S
O721 Eu698 2.473 . S
O721 C703 1.257 . S
H722 C708 0.929 . S
H723 C710 0.931 . S
H724 C712 0.929 . S
O725 Tb726 2.292 . S
O725 C728 1.225 1_455 S
Tb726 O725 2.292 . S
Tb726 O742 2.326 . S
Tb726 O744 2.500 . S
Tb726 O745 2.473 . S
Tb726 O748 2.324 . S
Eu727 O731 2.292 . S
Eu727 C732 2.852 . S
Eu727 O743 2.324 . S
Eu727 O747 2.326 . S
Eu727 O749 2.500 . S
Eu727 O750 2.473 . S
C728 O725 1.225 1_655 S
C728 O729 1.259 . S
O729 C728 1.259 . S
C730 O742 1.242 . S
C730 O743 1.258 . S
O731 Eu727 2.292 . S
O731 C733 1.255 . S
C732 Eu727 2.852 . S
C732 C736 1.503 . S
C732 O749 1.273 . S
C732 O750 1.257 . S
C733 O731 1.255 . S
C733 O734 1.247 . S
O734 C733 1.247 . S
C735 O747 1.242 . S
C735 O748 1.258 . S
C736 C732 1.503 . S
C736 C737 1.379 . S
C736 C741 1.392 . S
C737 C736 1.379 . S
C737 C738 1.404 . S
C737 H751 0.929 . S
C738 C737 1.404 . S
C738 C739 1.389 1_545 S
C739 C738 1.389 1_565 S
C739 C740 1.399 1_565 S
C739 H752 0.931 . S
C740 C739 1.399 1_545 S
C740 C741 1.390 . S
C741 C736 1.392 . S
C741 C740 1.390 . S
C741 H753 0.929 . S
O742 Tb726 2.326 . S
O742 C730 1.242 . S
O743 Eu727 2.324 . S
O743 C730 1.258 . S
O744 Tb726 2.500 . S
O744 C746 1.273 . S
O745 Tb726 2.473 . S
O745 C746 1.257 . S
C746 O744 1.273 . S
C746 O745 1.257 . S
O747 Eu727 2.326 . S
O747 C735 1.242 . S
O748 Tb726 2.324 . S
O748 C735 1.258 . S
O749 Eu727 2.500 . S
O749 C732 1.273 . S
O750 Eu727 2.473 . S
O750 C732 1.257 . S
H751 C737 0.929 . S
H752 C739 0.931 . S
H753 C741 0.929 . S
O754 Tb755 2.292 . S
O754 C757 1.255 . S
Tb755 O754 2.292 . S
Tb755 O771 2.326 . S
Tb755 O773 2.500 . S
Tb755 O774 2.473 . S
Tb755 O777 2.324 . S
Eu756 O760 2.292 . S
Eu756 C761 2.852 . S
Eu756 O772 2.324 . S
Eu756 O776 2.326 . S
Eu756 O778 2.500 . S
Eu756 O779 2.473 . S
C757 O754 1.255 . S
C757 O758 1.247 . S
O758 C757 1.247 . S
C759 O771 1.242 . S
C759 O772 1.258 . S
O760 Eu756 2.292 . S
O760 C762 1.255 . S
C761 Eu756 2.852 . S
C761 C765 1.503 . S
C761 O778 1.273 . S
C761 O779 1.257 . S
C762 O760 1.255 . S
C762 O763 1.247 . S
O763 C762 1.247 . S
C764 O776 1.242 . S
C764 O777 1.258 . S
C765 C761 1.503 . S
C765 C766 1.379 . S
C765 C770 1.392 . S
C766 C765 1.379 . S
C766 C767 1.404 . S
C766 H780 0.929 . S
C767 C766 1.404 . S
C767 C768 1.389 . S
C768 C767 1.389 . S
C768 C769 1.399 . S
C768 H781 0.931 . S
C769 C768 1.399 . S
C769 C770 1.390 . S
C770 C765 1.392 . S
C770 C769 1.390 . S
C770 H782 0.929 . S
O771 Tb755 2.326 . S
O771 C759 1.242 . S
O772 Eu756 2.324 . S
O772 C759 1.258 . S
O773 Tb755 2.500 . S
O773 C775 1.273 . S
O774 Tb755 2.473 . S
O774 C775 1.257 . S
C775 O773 1.273 . S
C775 O774 1.257 . S
O776 Eu756 2.326 . S
O776 C764 1.242 . S
O777 Tb755 2.324 . S
O777 C764 1.258 . S
O778 Eu756 2.500 . S
O778 C761 1.273 . S
O779 Eu756 2.473 . S
O779 C761 1.257 . S
H780 C766 0.929 . S
H781 C768 0.931 . S
H782 C770 0.929 . S
O783 Tb784 2.292 . S
O783 C786 1.225 1_655 S
Tb784 O783 2.292 . S
Tb784 O800 2.326 . S
Tb784 O802 2.500 . S
Tb784 O803 2.473 . S
Tb784 O806 2.324 . S
Eu785 O789 2.292 . S
Eu785 C790 2.852 . S
Eu785 O801 2.324 . S
Eu785 O805 2.326 . S
Eu785 O807 2.500 . S
Eu785 O808 2.473 . S
C786 O783 1.225 1_455 S
C786 O787 1.259 . S
O787 C786 1.259 . S
C788 O800 1.242 . S
C788 O801 1.258 . S
O789 Eu785 2.292 . S
O789 C791 1.255 . S
C790 Eu785 2.852 . S
C790 C794 1.503 . S
C790 O807 1.273 . S
C790 O808 1.257 . S
C791 O789 1.255 . S
C791 O792 1.247 . S
O792 C791 1.247 . S
C793 O805 1.242 . S
C793 O806 1.258 . S
C794 C790 1.503 . S
C794 C795 1.379 . S
C794 C799 1.392 . S
C795 C794 1.379 . S
C795 C796 1.404 . S
C795 H809 0.929 . S
C796 C795 1.404 . S
C796 C797 1.389 . S
C797 C796 1.389 . S
C797 C798 1.399 . S
C797 H810 0.931 . S
C798 C797 1.399 . S
C798 C799 1.390 . S
C799 C794 1.392 . S
C799 C798 1.390 . S
C799 H811 0.929 . S
O800 Tb784 2.326 . S
O800 C788 1.242 . S
O801 Eu785 2.324 . S
O801 C788 1.258 . S
O802 Tb784 2.500 . S
O802 C804 1.273 . S
O803 Tb784 2.473 . S
O803 C804 1.257 . S
C804 O802 1.273 . S
C804 O803 1.257 . S
O805 Eu785 2.326 . S
O805 C793 1.242 . S
O806 Tb784 2.324 . S
O806 C793 1.258 . S
O807 Eu785 2.500 . S
O807 C790 1.273 . S
O808 Eu785 2.473 . S
O808 C790 1.257 . S
H809 C795 0.929 . S
H810 C797 0.931 . S
H811 C799 0.929 . S
O812 Tb813 2.292 . S
O812 C815 1.255 . S
Tb813 O812 2.292 . S
Tb813 O829 2.326 . S
Tb813 O831 2.500 . S
Tb813 O832 2.473 . S
Tb813 O835 2.324 . S
Eu814 O818 2.292 . S
Eu814 C819 2.852 . S
Eu814 O830 2.324 . S
Eu814 O834 2.326 . S
Eu814 O836 2.500 . S
Eu814 O837 2.473 . S
C815 O812 1.255 . S
C815 O816 1.247 . S
O816 C815 1.247 . S
C817 O829 1.242 . S
C817 O830 1.258 . S
O818 Eu814 2.292 . S
O818 C820 1.255 . S
C819 Eu814 2.852 . S
C819 C823 1.503 . S
C819 O836 1.273 . S
C819 O837 1.257 . S
C820 O818 1.255 . S
C820 O821 1.247 . S
O821 C820 1.247 . S
C822 O834 1.242 . S
C822 O835 1.258 . S
C823 C819 1.503 . S
C823 C824 1.379 . S
C823 C828 1.392 . S
C824 C823 1.379 . S
C824 C825 1.404 . S
C824 H838 0.929 . S
C825 C824 1.404 . S
C825 C826 1.389 . S
C826 C825 1.389 . S
C826 C827 1.399 . S
C826 H839 0.931 . S
C827 C826 1.399 . S
C827 C828 1.390 . S
C828 C823 1.392 . S
C828 C827 1.390 . S
C828 H840 0.929 . S
O829 Tb813 2.326 . S
O829 C817 1.242 . S
O830 Eu814 2.324 . S
O830 C817 1.258 . S
O831 Tb813 2.500 . S
O831 C833 1.273 . S
O832 Tb813 2.473 . S
O832 C833 1.257 . S
C833 O831 1.273 . S
C833 O832 1.257 . S
O834 Eu814 2.326 . S
O834 C822 1.242 . S
O835 Tb813 2.324 . S
O835 C822 1.258 . S
O836 Eu814 2.500 . S
O836 C819 1.273 . S
O837 Eu814 2.473 . S
O837 C819 1.257 . S
H838 C824 0.929 . S
H839 C826 0.931 . S
H840 C828 0.929 . S
O841 Tb842 2.292 . S
O841 C844 1.255 . S
Tb842 O841 2.292 . S
Tb842 O858 2.326 . S
Tb842 O860 2.500 . S
Tb842 O861 2.473 . S
Tb842 O864 2.324 . S
Eu843 O847 2.292 . S
Eu843 C848 2.852 . S
Eu843 O859 2.324 . S
Eu843 O863 2.326 . S
Eu843 O865 2.500 . S
Eu843 O866 2.473 . S
C844 O841 1.255 . S
C844 O845 1.247 . S
O845 C844 1.247 . S
C846 O858 1.242 . S
C846 O859 1.258 . S
O847 Eu843 2.292 . S
O847 C849 1.255 . S
C848 Eu843 2.852 . S
C848 C852 1.503 . S
C848 O865 1.273 . S
C848 O866 1.257 . S
C849 O847 1.255 . S
C849 O850 1.247 . S
O850 C849 1.247 . S
C851 O863 1.242 . S
C851 O864 1.258 . S
C852 C848 1.503 . S
C852 C853 1.379 . S
C852 C857 1.392 . S
C853 C852 1.379 . S
C853 C854 1.404 . S
C853 H867 0.929 . S
C854 C853 1.404 . S
C854 C855 1.389 1_545 S
C855 C854 1.389 1_565 S
C855 C856 1.399 1_565 S
C855 H868 0.931 . S
C856 C855 1.399 1_545 S
C856 C857 1.390 . S
C857 C852 1.392 . S
C857 C856 1.390 . S
C857 H869 0.929 . S
O858 Tb842 2.326 . S
O858 C846 1.242 . S
O859 Eu843 2.324 . S
O859 C846 1.258 . S
O860 Tb842 2.500 . S
O860 C862 1.273 . S
O861 Tb842 2.473 . S
O861 C862 1.257 . S
C862 O860 1.273 . S
C862 O861 1.257 . S
O863 Eu843 2.326 . S
O863 C851 1.242 . S
O864 Tb842 2.324 . S
O864 C851 1.258 . S
O865 Eu843 2.500 . S
O865 C848 1.273 . S
O866 Eu843 2.473 . S
O866 C848 1.257 . S
H867 C853 0.929 . S
H868 C855 0.931 . S
H869 C857 0.929 . S
O870 Tb871 2.292 . S
O870 C873 1.255 . S
Tb871 O870 2.292 . S
Tb871 O887 2.326 . S
Tb871 O889 2.500 . S
Tb871 O890 2.473 . S
Tb871 O893 2.324 . S
Eu872 O876 2.292 . S
Eu872 C877 2.852 . S
Eu872 O888 2.324 . S
Eu872 O892 2.326 . S
Eu872 O894 2.500 . S
Eu872 O895 2.473 . S
C873 O870 1.255 . S
C873 O874 1.247 . S
O874 C873 1.247 . S
C875 O887 1.242 . S
C875 O888 1.258 . S
O876 Eu872 2.292 . S
O876 C878 1.255 . S
C877 Eu872 2.852 . S
C877 C881 1.503 . S
C877 O894 1.273 . S
C877 O895 1.257 . S
C878 O876 1.255 . S
C878 O879 1.247 . S
O879 C878 1.247 . S
C880 O892 1.242 . S
C880 O893 1.258 . S
C881 C877 1.503 . S
C881 C882 1.379 . S
C881 C886 1.392 . S
C882 C881 1.379 . S
C882 C883 1.404 . S
C882 H896 0.929 . S
C883 C882 1.404 . S
C883 C884 1.389 . S
C884 C883 1.389 . S
C884 C885 1.399 . S
C884 H897 0.931 . S
C885 C884 1.399 . S
C885 C886 1.390 . S
C886 C881 1.392 . S
C886 C885 1.390 . S
C886 H898 0.929 . S
O887 Tb871 2.326 . S
O887 C875 1.242 . S
O888 Eu872 2.324 . S
O888 C875 1.258 . S
O889 Tb871 2.500 . S
O889 C891 1.273 . S
O890 Tb871 2.473 . S
O890 C891 1.257 . S
C891 O889 1.273 . S
C891 O890 1.257 . S
O892 Eu872 2.326 . S
O892 C880 1.242 . S
O893 Tb871 2.324 . S
O893 C880 1.258 . S
O894 Eu872 2.500 . S
O894 C877 1.273 . S
O895 Eu872 2.473 . S
O895 C877 1.257 . S
H896 C882 0.929 . S
H897 C884 0.931 . S
H898 C886 0.929 . S
O899 Tb900 2.292 . S
O899 C902 1.255 . S
Tb900 O899 2.292 . S
Tb900 O916 2.326 . S
Tb900 O918 2.500 . S
Tb900 O919 2.473 . S
Tb900 O922 2.324 . S
Eu901 O905 2.292 . S
Eu901 C906 2.852 . S
Eu901 O917 2.324 . S
Eu901 O921 2.326 . S
Eu901 O923 2.500 . S
Eu901 O924 2.473 . S
C902 O899 1.255 . S
C902 O903 1.247 . S
O903 C902 1.247 . S
C904 O916 1.242 . S
C904 O917 1.258 . S
O905 Eu901 2.292 . S
O905 C907 1.255 . S
C906 Eu901 2.852 . S
C906 C910 1.503 . S
C906 O923 1.273 . S
C906 O924 1.257 . S
C907 O905 1.255 . S
C907 O908 1.247 . S
O908 C907 1.247 . S
C909 O921 1.242 . S
C909 O922 1.258 . S
C910 C906 1.503 . S
C910 C911 1.379 . S
C910 C915 1.392 . S
C911 C910 1.379 . S
C911 C912 1.404 . S
C911 H925 0.929 . S
C912 C911 1.404 . S
C912 C913 1.389 . S
C913 C912 1.389 . S
C913 C914 1.399 . S
C913 H926 0.931 . S
C914 C913 1.399 . S
C914 C915 1.390 . S
C915 C910 1.392 . S
C915 C914 1.390 . S
C915 H927 0.929 . S
O916 Tb900 2.326 . S
O916 C904 1.242 . S
O917 Eu901 2.324 . S
O917 C904 1.258 . S
O918 Tb900 2.500 . S
O918 C920 1.273 . S
O919 Tb900 2.473 . S
O919 C920 1.257 . S
C920 O918 1.273 . S
C920 O919 1.257 . S
O921 Eu901 2.326 . S
O921 C909 1.242 . S
O922 Tb900 2.324 . S
O922 C909 1.258 . S
O923 Eu901 2.500 . S
O923 C906 1.273 . S
O924 Eu901 2.473 . S
O924 C906 1.257 . S
H925 C911 0.929 . S
H926 C913 0.931 . S
H927 C915 0.929 . S
O928 Tb929 2.292 . S
O928 C931 1.255 . S
Tb929 O928 2.292 . S
Tb929 O945 2.326 . S
Tb929 O947 2.500 . S
Tb929 O948 2.473 . S
Tb929 O951 2.324 . S
Eu930 O934 2.292 . S
Eu930 C935 2.852 . S
Eu930 O946 2.324 . S
Eu930 O950 2.326 . S
Eu930 O952 2.500 . S
Eu930 O953 2.473 . S
C931 O928 1.255 . S
C931 O932 1.247 . S
O932 C931 1.247 . S
C933 O945 1.242 . S
C933 O946 1.258 . S
O934 Eu930 2.292 . S
O934 C936 1.255 . S
C935 Eu930 2.852 . S
C935 C939 1.503 . S
C935 O952 1.273 . S
C935 O953 1.257 . S
C936 O934 1.255 . S
C936 O937 1.247 . S
O937 C936 1.247 . S
C938 O950 1.242 . S
C938 O951 1.258 . S
C939 C935 1.503 . S
C939 C940 1.379 . S
C939 C944 1.392 . S
C940 C939 1.379 . S
C940 C941 1.404 . S
C940 H954 0.929 . S
C941 C940 1.404 . S
C941 C942 1.389 . S
C942 C941 1.389 . S
C942 C943 1.399 . S
C942 H955 0.931 . S
C943 C942 1.399 . S
C943 C944 1.390 . S
C944 C939 1.392 . S
C944 C943 1.390 . S
C944 H956 0.929 . S
O945 Tb929 2.326 . S
O945 C933 1.242 . S
O946 Eu930 2.324 . S
O946 C933 1.258 . S
O947 Tb929 2.500 . S
O947 C949 1.273 . S
O948 Tb929 2.473 . S
O948 C949 1.257 . S
C949 O947 1.273 . S
C949 O948 1.257 . S
O950 Eu930 2.326 . S
O950 C938 1.242 . S
O951 Tb929 2.324 . S
O951 C938 1.258 . S
O952 Eu930 2.500 . S
O952 C935 1.273 . S
O953 Eu930 2.473 . S
O953 C935 1.257 . S
H954 C940 0.929 . S
H955 C942 0.931 . S
H956 C944 0.929 . S
O957 Tb958 2.292 . S
O957 C960 1.255 . S
Tb958 O957 2.292 . S
Tb958 O974 2.326 . S
Tb958 O976 2.500 . S
Tb958 O977 2.473 . S
Tb958 O980 2.324 . S
Eu959 O963 2.292 . S
Eu959 C964 2.852 . S
Eu959 O975 2.324 1_545 S
Eu959 O979 2.326 1_545 S
Eu959 O981 2.500 . S
Eu959 O982 2.473 1_545 S
C960 O957 1.255 . S
C960 O961 1.247 . S
O961 C960 1.247 . S
C962 O974 1.242 . S
C962 O975 1.258 . S
O963 Eu959 2.292 . S
O963 C965 1.255 . S
C964 Eu959 2.852 . S
C964 C968 1.503 . S
C964 O981 1.273 . S
C964 O982 1.257 1_545 S
C965 O963 1.255 . S
C965 O966 1.247 . S
O966 C965 1.247 . S
C967 O979 1.242 . S
C967 O980 1.258 . S
C968 C964 1.503 . S
C968 C969 1.379 1_545 S
C968 C973 1.392 . S
C969 C968 1.379 1_565 S
C969 C970 1.404 . S
C969 H983 0.929 . S
C970 C969 1.404 . S
C970 C971 1.379 1_665 S
C971 C970 1.379 1_445 S
C971 C972 1.409 1_455 S
C971 H984 0.929 1_545 S
C972 C971 1.409 1_655 S
C972 C973 1.390 . S
C973 C968 1.392 . S
C973 C972 1.390 . S
C973 H985 0.929 . S
O974 Tb958 2.326 . S
O974 C962 1.242 . S
O975 Eu959 2.324 1_565 S
O975 C962 1.258 . S
O976 Tb958 2.500 . S
O976 C978 1.273 . S
O977 Tb958 2.473 . S
O977 C978 1.257 . S
C978 O976 1.273 . S
C978 O977 1.257 . S
O979 Eu959 2.326 1_565 S
O979 C967 1.242 . S
O980 Tb958 2.324 . S
O980 C967 1.258 . S
O981 Eu959 2.500 . S
O981 C964 1.273 . S
O982 Eu959 2.473 1_565 S
O982 C964 1.257 1_565 S
H983 C969 0.929 . S
H984 C971 0.929 1_565 S
H985 C973 0.929 . S
O986 Tb987 2.292 . S
O986 C989 1.255 . S
Tb987 O986 2.292 . S
Tb987 O1003 2.326 . S
Tb987 O1005 2.500 . S
Tb987 O1006 2.473 . S
Tb987 O1009 2.324 . S
Eu988 O992 2.292 . S
Eu988 C993 2.852 . S
Eu988 O1004 2.324 . S
Eu988 O1008 2.326 . S
Eu988 O1010 2.500 . S
Eu988 O1011 2.473 . S
C989 O986 1.255 . S
C989 O990 1.247 . S
O990 C989 1.247 . S
C991 O1003 1.242 . S
C991 O1004 1.258 . S
O992 Eu988 2.292 . S
O992 C994 1.255 . S
C993 Eu988 2.852 . S
C993 C997 1.503 . S
C993 O1010 1.273 . S
C993 O1011 1.257 . S
C994 O992 1.255 . S
C994 O995 1.247 . S
O995 C994 1.247 . S
C996 O1008 1.242 . S
C996 O1009 1.258 . S
C997 C993 1.503 . S
C997 C998 1.379 . S
C997 C1002 1.392 . S
C998 C997 1.379 . S
C998 C999 1.404 . S
C998 H1012 0.929 . S
C999 C998 1.404 . S
C999 C1000 1.389 . S
C1000 C999 1.389 . S
C1000 C1001 1.399 . S
C1000 H1013 0.931 . S
C1001 C1000 1.399 . S
C1001 C1002 1.390 . S
C1002 C997 1.392 . S
C1002 C1001 1.390 . S
C1002 H1014 0.929 . S
O1003 Tb987 2.326 . S
O1003 C991 1.242 . S
O1004 Eu988 2.324 . S
O1004 C991 1.258 . S
O1005 Tb987 2.500 . S
O1005 C1007 1.273 . S
O1006 Tb987 2.473 . S
O1006 C1007 1.257 . S
C1007 O1005 1.273 . S
C1007 O1006 1.257 . S
O1008 Eu988 2.326 . S
O1008 C996 1.242 . S
O1009 Tb987 2.324 . S
O1009 C996 1.258 . S
O1010 Eu988 2.500 . S
O1010 C993 1.273 . S
O1011 Eu988 2.473 . S
O1011 C993 1.257 . S
H1012 C998 0.929 . S
H1013 C1000 0.931 . S
H1014 C1002 0.929 . S
O1015 Tb1016 2.292 . S
O1015 C1018 1.255 . S
Tb1016 O1015 2.292 . S
Tb1016 O1032 2.326 . S
Tb1016 O1034 2.500 . S
Tb1016 O1035 2.473 . S
Tb1016 O1038 2.324 . S
Eu1017 O1021 2.292 . S
Eu1017 C1022 2.852 . S
Eu1017 O1033 2.324 . S
Eu1017 O1037 2.326 . S
Eu1017 O1039 2.500 . S
Eu1017 O1040 2.473 . S
C1018 O1015 1.255 . S
C1018 O1019 1.247 . S
O1019 C1018 1.247 . S
C1020 O1032 1.242 . S
C1020 O1033 1.258 . S
O1021 Eu1017 2.292 . S
O1021 C1023 1.255 . S
C1022 Eu1017 2.852 . S
C1022 C1026 1.503 . S
C1022 O1039 1.273 . S
C1022 O1040 1.257 . S
C1023 O1021 1.255 . S
C1023 O1024 1.247 . S
O1024 C1023 1.247 . S
C1025 O1037 1.242 . S
C1025 O1038 1.258 . S
C1026 C1022 1.503 . S
C1026 C1027 1.379 . S
C1026 C1031 1.392 . S
C1027 C1026 1.379 . S
C1027 C1028 1.404 . S
C1027 H1041 0.929 . S
C1028 C1027 1.404 . S
C1028 C1029 1.389 1_455 S
C1029 C1028 1.389 1_655 S
C1029 C1030 1.399 1_655 S
C1029 H1042 0.931 . S
C1030 C1029 1.399 1_455 S
C1030 C1031 1.390 . S
C1031 C1026 1.392 . S
C1031 C1030 1.390 . S
C1031 H1043 0.929 . S
O1032 Tb1016 2.326 . S
O1032 C1020 1.242 . S
O1033 Eu1017 2.324 . S
O1033 C1020 1.258 . S
O1034 Tb1016 2.500 . S
O1034 C1036 1.273 . S
O1035 Tb1016 2.473 . S
O1035 C1036 1.257 . S
C1036 O1034 1.273 . S
C1036 O1035 1.257 . S
O1037 Eu1017 2.326 . S
O1037 C1025 1.242 . S
O1038 Tb1016 2.324 . S
O1038 C1025 1.258 . S
O1039 Eu1017 2.500 . S
O1039 C1022 1.273 . S
O1040 Eu1017 2.473 . S
O1040 C1022 1.257 . S
H1041 C1027 0.929 . S
H1042 C1029 0.931 . S
H1043 C1031 0.929 . S
O1044 Tb1045 2.292 . S
O1044 C1047 1.255 . S
Tb1045 O1044 2.292 . S
Tb1045 O1061 2.326 . S
Tb1045 O1063 2.500 . S
Tb1045 O1064 2.473 . S
Tb1045 O1067 2.324 . S
Eu1046 O1050 2.292 . S
Eu1046 C1051 2.852 . S
Eu1046 O1062 2.324 . S
Eu1046 O1066 2.326 . S
Eu1046 O1068 2.500 . S
Eu1046 O1069 2.473 . S
C1047 O1044 1.255 . S
C1047 O1048 1.247 . S
O1048 C1047 1.247 . S
C1049 O1061 1.242 . S
C1049 O1062 1.258 . S
O1050 Eu1046 2.292 . S
O1050 C1052 1.255 . S
C1051 Eu1046 2.852 . S
C1051 C1055 1.503 . S
C1051 O1068 1.273 . S
C1051 O1069 1.257 . S
C1052 O1050 1.255 . S
C1052 O1053 1.247 . S
O1053 C1052 1.247 . S
C1054 O1066 1.242 . S
C1054 O1067 1.258 . S
C1055 C1051 1.503 . S
C1055 C1056 1.379 . S
C1055 C1060 1.392 . S
C1056 C1055 1.379 . S
C1056 C1057 1.404 . S
C1056 H1070 0.929 . S
C1057 C1056 1.404 . S
C1057 C1058 1.389 . S
C1058 C1057 1.389 . S
C1058 C1059 1.399 . S
C1058 H1071 0.931 . S
C1059 C1058 1.399 . S
C1059 C1060 1.390 . S
C1060 C1055 1.392 . S
C1060 C1059 1.390 . S
C1060 H1072 0.929 . S
O1061 Tb1045 2.326 . S
O1061 C1049 1.242 . S
O1062 Eu1046 2.324 . S
O1062 C1049 1.258 . S
O1063 Tb1045 2.500 . S
O1063 C1065 1.273 . S
O1064 Tb1045 2.473 . S
O1064 C1065 1.257 . S
C1065 O1063 1.273 . S
C1065 O1064 1.257 . S
O1066 Eu1046 2.326 . S
O1066 C1054 1.242 . S
O1067 Tb1045 2.324 . S
O1067 C1054 1.258 . S
O1068 Eu1046 2.500 . S
O1068 C1051 1.273 . S
O1069 Eu1046 2.473 . S
O1069 C1051 1.257 . S
H1070 C1056 0.929 . S
H1071 C1058 0.931 . S
H1072 C1060 0.929 . S
O1073 Tb1074 2.292 . S
O1073 C1076 1.255 . S
Tb1074 O1073 2.292 . S
Tb1074 O1090 2.326 . S
Tb1074 O1092 2.500 . S
Tb1074 O1093 2.473 . S
Tb1074 O1096 2.324 . S
Eu1075 O1079 2.292 . S
Eu1075 C1080 2.852 . S
Eu1075 O1091 2.324 1_545 S
Eu1075 O1095 2.326 1_545 S
Eu1075 O1097 2.500 . S
Eu1075 O1098 2.473 1_545 S
C1076 O1073 1.255 . S
C1076 O1077 1.247 . S
O1077 C1076 1.247 . S
C1078 O1090 1.242 . S
C1078 O1091 1.258 . S
O1079 Eu1075 2.292 . S
O1079 C1081 1.255 . S
C1080 Eu1075 2.852 . S
C1080 C1084 1.503 . S
C1080 O1097 1.273 . S
C1080 O1098 1.257 1_545 S
C1081 O1079 1.255 . S
C1081 O1082 1.247 . S
O1082 C1081 1.247 . S
C1083 O1095 1.242 . S
C1083 O1096 1.258 . S
C1084 C1080 1.503 . S
C1084 C1085 1.379 1_545 S
C1084 C1089 1.392 . S
C1085 C1084 1.379 1_565 S
C1085 C1086 1.404 . S
C1085 H1099 0.929 . S
C1086 C1085 1.404 . S
C1086 C1087 1.379 1_565 S
C1087 C1086 1.379 1_545 S
C1087 C1088 1.409 . S
C1087 H1100 0.929 1_545 S
C1088 C1087 1.409 . S
C1088 C1089 1.390 . S
C1089 C1084 1.392 . S
C1089 C1088 1.390 . S
C1089 H1101 0.929 . S
O1090 Tb1074 2.326 . S
O1090 C1078 1.242 . S
O1091 Eu1075 2.324 1_565 S
O1091 C1078 1.258 . S
O1092 Tb1074 2.500 . S
O1092 C1094 1.273 . S
O1093 Tb1074 2.473 . S
O1093 C1094 1.257 . S
C1094 O1092 1.273 . S
C1094 O1093 1.257 . S
O1095 Eu1075 2.326 1_565 S
O1095 C1083 1.242 . S
O1096 Tb1074 2.324 . S
O1096 C1083 1.258 . S
O1097 Eu1075 2.500 . S
O1097 C1080 1.273 . S
O1098 Eu1075 2.473 1_565 S
O1098 C1080 1.257 1_565 S
H1099 C1085 0.929 . S
H1100 C1087 0.929 1_565 S
H1101 C1089 0.929 . S
O1102 Tb1103 2.292 . S
O1102 C1105 1.255 . S
Tb1103 O1102 2.292 . S
Tb1103 O1119 2.326 . S
Tb1103 O1121 2.500 . S
Tb1103 O1122 2.473 . S
Tb1103 O1125 2.324 . S
Eu1104 O1108 2.292 . S
Eu1104 C1109 2.852 . S
Eu1104 O1120 2.324 . S
Eu1104 O1124 2.326 . S
Eu1104 O1126 2.500 . S
Eu1104 O1127 2.473 . S
C1105 O1102 1.255 . S
C1105 O1106 1.247 . S
O1106 C1105 1.247 . S
C1107 O1119 1.242 . S
C1107 O1120 1.258 . S
O1108 Eu1104 2.292 . S
O1108 C1110 1.255 . S
C1109 Eu1104 2.852 . S
C1109 C1113 1.503 . S
C1109 O1126 1.273 . S
C1109 O1127 1.257 . S
C1110 O1108 1.255 . S
C1110 O1111 1.247 . S
O1111 C1110 1.247 . S
C1112 O1124 1.242 . S
C1112 O1125 1.258 . S
C1113 C1109 1.503 . S
C1113 C1114 1.379 . S
C1113 C1118 1.392 . S
C1114 C1113 1.379 . S
C1114 C1115 1.404 . S
C1114 H1128 0.929 . S
C1115 C1114 1.404 . S
C1115 C1116 1.389 . S
C1116 C1115 1.389 . S
C1116 C1117 1.399 . S
C1116 H1129 0.931 . S
C1117 C1116 1.399 . S
C1117 C1118 1.390 . S
C1118 C1113 1.392 . S
C1118 C1117 1.390 . S
C1118 H1130 0.929 . S
O1119 Tb1103 2.326 . S
O1119 C1107 1.242 . S
O1120 Eu1104 2.324 . S
O1120 C1107 1.258 . S
O1121 Tb1103 2.500 . S
O1121 C1123 1.273 . S
O1122 Tb1103 2.473 . S
O1122 C1123 1.257 . S
C1123 O1121 1.273 . S
C1123 O1122 1.257 . S
O1124 Eu1104 2.326 . S
O1124 C1112 1.242 . S
O1125 Tb1103 2.324 . S
O1125 C1112 1.258 . S
O1126 Eu1104 2.500 . S
O1126 C1109 1.273 . S
O1127 Eu1104 2.473 . S
O1127 C1109 1.257 . S
H1128 C1114 0.929 . S
H1129 C1116 0.931 . S
H1130 C1118 0.929 . S
O1131 Tb1132 2.292 . S
O1131 C1134 1.255 . S
Tb1132 O1131 2.292 . S
Tb1132 O1148 2.326 . S
Tb1132 O1150 2.500 . S
Tb1132 O1151 2.473 . S
Tb1132 O1154 2.324 . S
Eu1133 O1137 2.292 . S
Eu1133 C1138 2.852 . S
Eu1133 O1149 2.324 . S
Eu1133 O1153 2.326 . S
Eu1133 O1155 2.500 . S
Eu1133 O1156 2.473 . S
C1134 O1131 1.255 . S
C1134 O1135 1.247 . S
O1135 C1134 1.247 . S
C1136 O1148 1.242 . S
C1136 O1149 1.258 . S
O1137 Eu1133 2.292 . S
O1137 C1139 1.255 . S
C1138 Eu1133 2.852 . S
C1138 C1142 1.503 . S
C1138 O1155 1.273 . S
C1138 O1156 1.257 . S
C1139 O1137 1.255 . S
C1139 O1140 1.247 . S
O1140 C1139 1.247 . S
C1141 O1153 1.242 . S
C1141 O1154 1.258 . S
C1142 C1138 1.503 . S
C1142 C1143 1.379 . S
C1142 C1147 1.392 . S
C1143 C1142 1.379 . S
C1143 C1144 1.404 . S
C1143 H1157 0.929 . S
C1144 C1143 1.404 . S
C1144 C1145 1.389 . S
C1145 C1144 1.389 . S
C1145 C1146 1.399 . S
C1145 H1158 0.931 . S
C1146 C1145 1.399 . S
C1146 C1147 1.390 . S
C1147 C1142 1.392 . S
C1147 C1146 1.390 . S
C1147 H1159 0.929 . S
O1148 Tb1132 2.326 . S
O1148 C1136 1.242 . S
O1149 Eu1133 2.324 . S
O1149 C1136 1.258 . S
O1150 Tb1132 2.500 . S
O1150 C1152 1.273 . S
O1151 Tb1132 2.473 . S
O1151 C1152 1.257 . S
C1152 O1150 1.273 . S
C1152 O1151 1.257 . S
O1153 Eu1133 2.326 . S
O1153 C1141 1.242 . S
O1154 Tb1132 2.324 . S
O1154 C1141 1.258 . S
O1155 Eu1133 2.500 . S
O1155 C1138 1.273 . S
O1156 Eu1133 2.473 . S
O1156 C1138 1.257 . S
H1157 C1143 0.929 . S
H1158 C1145 0.931 . S
H1159 C1147 0.929 . S
O1160 Tb1161 2.292 . S
O1160 C1163 1.255 . S
Tb1161 O1160 2.292 . S
Tb1161 O1177 2.326 . S
Tb1161 O1179 2.500 . S
Tb1161 O1180 2.473 . S
Tb1161 O1183 2.324 . S
Eu1162 O1166 2.292 . S
Eu1162 C1167 2.852 . S
Eu1162 O1178 2.324 . S
Eu1162 O1182 2.326 . S
Eu1162 O1184 2.500 . S
Eu1162 O1185 2.473 . S
C1163 O1160 1.255 . S
C1163 O1164 1.247 . S
O1164 C1163 1.247 . S
C1165 O1177 1.242 . S
C1165 O1178 1.258 . S
O1166 Eu1162 2.292 . S
O1166 C1168 1.255 . S
C1167 Eu1162 2.852 . S
C1167 C1171 1.503 . S
C1167 O1184 1.273 . S
C1167 O1185 1.257 . S
C1168 O1166 1.255 . S
C1168 O1169 1.247 . S
O1169 C1168 1.247 . S
C1170 O1182 1.242 . S
C1170 O1183 1.258 . S
C1171 C1167 1.503 . S
C1171 C1172 1.379 . S
C1171 C1176 1.392 . S
C1172 C1171 1.379 . S
C1172 C1173 1.404 . S
C1172 H1186 0.929 . S
C1173 C1172 1.404 . S
C1173 C1174 1.389 . S
C1174 C1173 1.389 . S
C1174 C1175 1.399 . S
C1174 H1187 0.931 . S
C1175 C1174 1.399 . S
C1175 C1176 1.390 . S
C1176 C1171 1.392 . S
C1176 C1175 1.390 . S
C1176 H1188 0.929 . S
O1177 Tb1161 2.326 . S
O1177 C1165 1.242 . S
O1178 Eu1162 2.324 . S
O1178 C1165 1.258 . S
O1179 Tb1161 2.500 . S
O1179 C1181 1.273 . S
O1180 Tb1161 2.473 . S
O1180 C1181 1.257 . S
C1181 O1179 1.273 . S
C1181 O1180 1.257 . S
O1182 Eu1162 2.326 . S
O1182 C1170 1.242 . S
O1183 Tb1161 2.324 . S
O1183 C1170 1.258 . S
O1184 Eu1162 2.500 . S
O1184 C1167 1.273 . S
O1185 Eu1162 2.473 . S
O1185 C1167 1.257 . S
H1186 C1172 0.929 . S
H1187 C1174 0.931 . S
H1188 C1176 0.929 . S
O1189 Tb1190 2.292 . S
O1189 C1192 1.255 . S
Tb1190 O1189 2.292 . S
Tb1190 O1206 2.326 . S
Tb1190 O1208 2.500 . S
Tb1190 O1209 2.473 . S
Tb1190 O1212 2.324 . S
Eu1191 O1195 2.292 . S
Eu1191 C1196 2.852 . S
Eu1191 O1207 2.324 . S
Eu1191 O1211 2.326 . S
Eu1191 O1213 2.500 . S
Eu1191 O1214 2.473 . S
C1192 O1189 1.255 . S
C1192 O1193 1.247 . S
O1193 C1192 1.247 . S
C1194 O1206 1.242 . S
C1194 O1207 1.258 . S
O1195 Eu1191 2.292 . S
O1195 C1197 1.255 . S
C1196 Eu1191 2.852 . S
C1196 C1200 1.503 . S
C1196 O1213 1.273 . S
C1196 O1214 1.257 . S
C1197 O1195 1.255 . S
C1197 O1198 1.247 . S
O1198 C1197 1.247 . S
C1199 O1211 1.242 . S
C1199 O1212 1.258 . S
C1200 C1196 1.503 . S
C1200 C1201 1.379 . S
C1200 C1205 1.392 . S
C1201 C1200 1.379 . S
C1201 C1202 1.404 . S
C1201 H1215 0.929 . S
C1202 C1201 1.404 . S
C1202 C1203 1.389 . S
C1203 C1202 1.389 . S
C1203 C1204 1.399 . S
C1203 H1216 0.931 . S
C1204 C1203 1.399 . S
C1204 C1205 1.390 . S
C1205 C1200 1.392 . S
C1205 C1204 1.390 . S
C1205 H1217 0.929 . S
O1206 Tb1190 2.326 . S
O1206 C1194 1.242 . S
O1207 Eu1191 2.324 . S
O1207 C1194 1.258 . S
O1208 Tb1190 2.500 . S
O1208 C1210 1.273 . S
O1209 Tb1190 2.473 . S
O1209 C1210 1.257 . S
C1210 O1208 1.273 . S
C1210 O1209 1.257 . S
O1211 Eu1191 2.326 . S
O1211 C1199 1.242 . S
O1212 Tb1190 2.324 . S
O1212 C1199 1.258 . S
O1213 Eu1191 2.500 . S
O1213 C1196 1.273 . S
O1214 Eu1191 2.473 . S
O1214 C1196 1.257 . S
H1215 C1201 0.929 . S
H1216 C1203 0.931 . S
H1217 C1205 0.929 . S
O1218 Tb1219 2.292 . S
O1218 C1221 1.225 1_565 S
Tb1219 O1218 2.292 . S
Tb1219 O1235 2.326 . S
Tb1219 O1237 2.500 . S
Tb1219 O1238 2.473 . S
Tb1219 O1241 2.324 . S
Eu1220 O1224 2.292 . S
Eu1220 C1225 2.852 . S
Eu1220 O1236 2.324 . S
Eu1220 O1240 2.326 . S
Eu1220 O1242 2.500 . S
Eu1220 O1243 2.473 . S
C1221 O1218 1.225 1_545 S
C1221 O1222 1.259 . S
O1222 C1221 1.259 . S
C1223 O1235 1.242 . S
C1223 O1236 1.258 . S
O1224 Eu1220 2.292 . S
O1224 C1226 1.255 . S
C1225 Eu1220 2.852 . S
C1225 C1229 1.503 . S
C1225 O1242 1.273 . S
C1225 O1243 1.257 . S
C1226 O1224 1.255 . S
C1226 O1227 1.247 . S
O1227 C1226 1.247 . S
C1228 O1240 1.242 . S
C1228 O1241 1.258 . S
C1229 C1225 1.503 . S
C1229 C1230 1.379 . S
C1229 C1234 1.392 . S
C1230 C1229 1.379 . S
C1230 C1231 1.404 . S
C1230 H1244 0.929 . S
C1231 C1230 1.404 . S
C1231 C1232 1.389 . S
C1232 C1231 1.389 . S
C1232 C1233 1.399 . S
C1232 H1245 0.931 . S
C1233 C1232 1.399 . S
C1233 C1234 1.390 . S
C1234 C1229 1.392 . S
C1234 C1233 1.390 . S
C1234 H1246 0.929 . S
O1235 Tb1219 2.326 . S
O1235 C1223 1.242 . S
O1236 Eu1220 2.324 . S
O1236 C1223 1.258 . S
O1237 Tb1219 2.500 . S
O1237 C1239 1.273 . S
O1238 Tb1219 2.473 . S
O1238 C1239 1.257 . S
C1239 O1237 1.273 . S
C1239 O1238 1.257 . S
O1240 Eu1220 2.326 . S
O1240 C1228 1.242 . S
O1241 Tb1219 2.324 . S
O1241 C1228 1.258 . S
O1242 Eu1220 2.500 . S
O1242 C1225 1.273 . S
O1243 Eu1220 2.473 . S
O1243 C1225 1.257 . S
H1244 C1230 0.929 . S
H1245 C1232 0.931 . S
H1246 C1234 0.929 . S
O1247 Tb1248 2.292 . S
O1247 C1250 1.255 . S
Tb1248 O1247 2.292 . S
Tb1248 O1264 2.326 . S
Tb1248 O1266 2.500 . S
Tb1248 O1267 2.473 . S
Tb1248 O1270 2.324 . S
Eu1249 O1253 2.292 . S
Eu1249 C1254 2.852 . S
Eu1249 O1265 2.324 . S
Eu1249 O1269 2.326 . S
Eu1249 O1271 2.500 . S
Eu1249 O1272 2.473 . S
C1250 O1247 1.255 . S
C1250 O1251 1.247 . S
O1251 C1250 1.247 . S
C1252 O1264 1.242 . S
C1252 O1265 1.258 . S
O1253 Eu1249 2.292 . S
O1253 C1255 1.255 . S
C1254 Eu1249 2.852 . S
C1254 C1258 1.503 . S
C1254 O1271 1.273 . S
C1254 O1272 1.257 . S
C1255 O1253 1.255 . S
C1255 O1256 1.247 . S
O1256 C1255 1.247 . S
C1257 O1269 1.242 . S
C1257 O1270 1.258 . S
C1258 C1254 1.503 . S
C1258 C1259 1.379 . S
C1258 C1263 1.392 . S
C1259 C1258 1.379 . S
C1259 C1260 1.404 . S
C1259 H1273 0.929 . S
C1260 C1259 1.404 . S
C1260 C1261 1.389 . S
C1261 C1260 1.389 . S
C1261 C1262 1.399 . S
C1261 H1274 0.931 . S
C1262 C1261 1.399 . S
C1262 C1263 1.390 . S
C1263 C1258 1.392 . S
C1263 C1262 1.390 . S
C1263 H1275 0.929 . S
O1264 Tb1248 2.326 . S
O1264 C1252 1.242 . S
O1265 Eu1249 2.324 . S
O1265 C1252 1.258 . S
O1266 Tb1248 2.500 . S
O1266 C1268 1.273 . S
O1267 Tb1248 2.473 . S
O1267 C1268 1.257 . S
C1268 O1266 1.273 . S
C1268 O1267 1.257 . S
O1269 Eu1249 2.326 . S
O1269 C1257 1.242 . S
O1270 Tb1248 2.324 . S
O1270 C1257 1.258 . S
O1271 Eu1249 2.500 . S
O1271 C1254 1.273 . S
O1272 Eu1249 2.473 . S
O1272 C1254 1.257 . S
H1273 C1259 0.929 . S
H1274 C1261 0.931 . S
H1275 C1263 0.929 . S
O1276 Tb1277 2.292 . S
O1276 C1279 1.225 1_545 S
Tb1277 O1276 2.292 . S
Tb1277 O1293 2.326 . S
Tb1277 O1295 2.500 . S
Tb1277 O1296 2.473 . S
Tb1277 O1299 2.324 . S
Eu1278 O1282 2.292 . S
Eu1278 C1283 2.852 . S
Eu1278 O1294 2.324 1_655 S
Eu1278 O1298 2.326 1_655 S
Eu1278 O1300 2.500 . S
Eu1278 O1301 2.473 1_655 S
C1279 O1276 1.225 1_565 S
C1279 O1280 1.259 . S
O1280 C1279 1.259 . S
C1281 O1293 1.242 . S
C1281 O1294 1.258 . S
O1282 Eu1278 2.292 . S
O1282 C1284 1.255 . S
C1283 Eu1278 2.852 . S
C1283 C1287 1.503 . S
C1283 O1300 1.273 . S
C1283 O1301 1.257 1_655 S
C1284 O1282 1.255 . S
C1284 O1285 1.247 . S
O1285 C1284 1.247 . S
C1286 O1298 1.242 . S
C1286 O1299 1.258 . S
C1287 C1283 1.503 . S
C1287 C1288 1.379 1_655 S
C1287 C1292 1.392 . S
C1288 C1287 1.379 1_455 S
C1288 C1289 1.404 . S
C1288 H1302 0.929 . S
C1289 C1288 1.404 . S
C1289 C1290 1.379 1_456 S
C1290 C1289 1.379 1_654 S
C1290 C1291 1.409 1_554 S
C1290 H1303 0.929 1_655 S
C1291 C1290 1.409 1_556 S
C1291 C1292 1.390 . S
C1292 C1287 1.392 . S
C1292 C1291 1.390 . S
C1292 H1304 0.929 . S
O1293 Tb1277 2.326 . S
O1293 C1281 1.242 . S
O1294 Eu1278 2.324 1_455 S
O1294 C1281 1.258 . S
O1295 Tb1277 2.500 . S
O1295 C1297 1.273 . S
O1296 Tb1277 2.473 . S
O1296 C1297 1.257 . S
C1297 O1295 1.273 . S
C1297 O1296 1.257 . S
O1298 Eu1278 2.326 1_455 S
O1298 C1286 1.242 . S
O1299 Tb1277 2.324 . S
O1299 C1286 1.258 . S
O1300 Eu1278 2.500 . S
O1300 C1283 1.273 . S
O1301 Eu1278 2.473 1_455 S
O1301 C1283 1.257 1_455 S
H1302 C1288 0.929 . S
H1303 C1290 0.929 1_455 S
H1304 C1292 0.929 . S
O1305 Tb1306 2.292 . S
O1305 C1308 1.255 . S
Tb1306 O1305 2.292 . S
Tb1306 O1322 2.326 . S
Tb1306 O1324 2.500 . S
Tb1306 O1325 2.473 . S
Tb1306 O1328 2.324 . S
Eu1307 O1311 2.292 . S
Eu1307 C1312 2.852 . S
Eu1307 O1323 2.324 . S
Eu1307 O1327 2.326 . S
Eu1307 O1329 2.500 . S
Eu1307 O1330 2.473 . S
C1308 O1305 1.255 . S
C1308 O1309 1.247 . S
O1309 C1308 1.247 . S
C1310 O1322 1.242 . S
C1310 O1323 1.258 . S
O1311 Eu1307 2.292 . S
O1311 C1313 1.255 . S
C1312 Eu1307 2.852 . S
C1312 C1316 1.503 . S
C1312 O1329 1.273 . S
C1312 O1330 1.257 . S
C1313 O1311 1.255 . S
C1313 O1314 1.247 . S
O1314 C1313 1.247 . S
C1315 O1327 1.242 . S
C1315 O1328 1.258 . S
C1316 C1312 1.503 . S
C1316 C1317 1.379 . S
C1316 C1321 1.392 . S
C1317 C1316 1.379 . S
C1317 C1318 1.404 . S
C1317 H1331 0.929 . S
C1318 C1317 1.404 . S
C1318 C1319 1.389 . S
C1319 C1318 1.389 . S
C1319 C1320 1.399 . S
C1319 H1332 0.931 . S
C1320 C1319 1.399 . S
C1320 C1321 1.390 . S
C1321 C1316 1.392 . S
C1321 C1320 1.390 . S
C1321 H1333 0.929 . S
O1322 Tb1306 2.326 . S
O1322 C1310 1.242 . S
O1323 Eu1307 2.324 . S
O1323 C1310 1.258 . S
O1324 Tb1306 2.500 . S
O1324 C1326 1.273 . S
O1325 Tb1306 2.473 . S
O1325 C1326 1.257 . S
C1326 O1324 1.273 . S
C1326 O1325 1.257 . S
O1327 Eu1307 2.326 . S
O1327 C1315 1.242 . S
O1328 Tb1306 2.324 . S
O1328 C1315 1.258 . S
O1329 Eu1307 2.500 . S
O1329 C1312 1.273 . S
O1330 Eu1307 2.473 . S
O1330 C1312 1.257 . S
H1331 C1317 0.929 . S
H1332 C1319 0.931 . S
H1333 C1321 0.929 . S
O1334 Tb1335 2.292 . S
O1334 C1337 1.225 1_545 S
Tb1335 O1334 2.292 . S
Tb1335 O1351 2.326 . S
Tb1335 O1353 2.500 . S
Tb1335 O1354 2.473 . S
Tb1335 O1357 2.324 . S
Eu1336 O1340 2.292 . S
Eu1336 C1341 2.852 . S
Eu1336 O1352 2.324 . S
Eu1336 O1356 2.326 . S
Eu1336 O1358 2.500 . S
Eu1336 O1359 2.473 . S
C1337 O1334 1.225 1_565 S
C1337 O1338 1.259 . S
O1338 C1337 1.259 . S
C1339 O1351 1.242 . S
C1339 O1352 1.258 . S
O1340 Eu1336 2.292 . S
O1340 C1342 1.255 . S
C1341 Eu1336 2.852 . S
C1341 C1345 1.503 . S
C1341 O1358 1.273 . S
C1341 O1359 1.257 . S
C1342 O1340 1.255 . S
C1342 O1343 1.247 . S
O1343 C1342 1.247 . S
C1344 O1356 1.242 . S
C1344 O1357 1.258 . S
C1345 C1341 1.503 . S
C1345 C1346 1.379 . S
C1345 C1350 1.392 . S
C1346 C1345 1.379 . S
C1346 C1347 1.404 . S
C1346 H1360 0.929 . S
C1347 C1346 1.404 . S
C1347 C1348 1.389 1_554 S
C1348 C1347 1.389 1_556 S
C1348 C1349 1.399 1_556 S
C1348 H1361 0.931 . S
C1349 C1348 1.399 1_554 S
C1349 C1350 1.390 . S
C1350 C1345 1.392 . S
C1350 C1349 1.390 . S
C1350 H1362 0.929 . S
O1351 Tb1335 2.326 . S
O1351 C1339 1.242 . S
O1352 Eu1336 2.324 . S
O1352 C1339 1.258 . S
O1353 Tb1335 2.500 . S
O1353 C1355 1.273 . S
O1354 Tb1335 2.473 . S
O1354 C1355 1.257 . S
C1355 O1353 1.273 . S
C1355 O1354 1.257 . S
O1356 Eu1336 2.326 . S
O1356 C1344 1.242 . S
O1357 Tb1335 2.324 . S
O1357 C1344 1.258 . S
O1358 Eu1336 2.500 . S
O1358 C1341 1.273 . S
O1359 Eu1336 2.473 . S
O1359 C1341 1.257 . S
H1360 C1346 0.929 . S
H1361 C1348 0.931 . S
H1362 C1350 0.929 . S
O1363 Tb1364 2.292 . S
O1363 C1366 1.255 . S
Tb1364 O1363 2.292 . S
Tb1364 O1380 2.326 . S
Tb1364 O1382 2.500 . S
Tb1364 O1383 2.473 . S
Tb1364 O1386 2.324 . S
Eu1365 O1369 2.292 . S
Eu1365 C1370 2.852 . S
Eu1365 O1381 2.324 . S
Eu1365 O1385 2.326 . S
Eu1365 O1387 2.500 . S
Eu1365 O1388 2.473 . S
C1366 O1363 1.255 . S
C1366 O1367 1.247 . S
O1367 C1366 1.247 . S
C1368 O1380 1.242 . S
C1368 O1381 1.258 . S
O1369 Eu1365 2.292 . S
O1369 C1371 1.255 . S
C1370 Eu1365 2.852 . S
C1370 C1374 1.503 . S
C1370 O1387 1.273 . S
C1370 O1388 1.257 . S
C1371 O1369 1.255 . S
C1371 O1372 1.247 . S
O1372 C1371 1.247 . S
C1373 O1385 1.242 . S
C1373 O1386 1.258 . S
C1374 C1370 1.503 . S
C1374 C1375 1.379 . S
C1374 C1379 1.392 . S
C1375 C1374 1.379 . S
C1375 C1376 1.404 . S
C1375 H1389 0.929 . S
C1376 C1375 1.404 . S
C1376 C1377 1.389 1_554 S
C1377 C1376 1.389 1_556 S
C1377 C1378 1.399 1_556 S
C1377 H1390 0.931 . S
C1378 C1377 1.399 1_554 S
C1378 C1379 1.390 . S
C1379 C1374 1.392 . S
C1379 C1378 1.390 . S
C1379 H1391 0.929 . S
O1380 Tb1364 2.326 . S
O1380 C1368 1.242 . S
O1381 Eu1365 2.324 . S
O1381 C1368 1.258 . S
O1382 Tb1364 2.500 . S
O1382 C1384 1.273 . S
O1383 Tb1364 2.473 . S
O1383 C1384 1.257 . S
C1384 O1382 1.273 . S
C1384 O1383 1.257 . S
O1385 Eu1365 2.326 . S
O1385 C1373 1.242 . S
O1386 Tb1364 2.324 . S
O1386 C1373 1.258 . S
O1387 Eu1365 2.500 . S
O1387 C1370 1.273 . S
O1388 Eu1365 2.473 . S
O1388 C1370 1.257 . S
H1389 C1375 0.929 . S
H1390 C1377 0.931 . S
H1391 C1379 0.929 . S
C3 C746 1.517 . S
C775 C32 1.517 . S
C804 C61 1.517 . S
C90 C717 1.517 . S
C224 C119 1.517 . S
C148 C137 1.523 . S
C177 C166 1.517 . S
C195 C206 1.523 . S
C235 C1355 1.517 . S
C485 C264 1.523 . S
C293 C1384 1.517 . S
C322 C1326 1.523 . S
C351 C1239 1.517 . S
C1268 C380 1.523 . S
C601 C409 1.517 . S
C438 C1210 1.523 . S
C467 C398 1.517 . S
C496 C1036 1.517 . S
C525 C949 1.517 . S
C978 C554 1.517 . S
C311 C583 1.517 . S
C1152 C612 1.517 . S
C641 C1065 1.517 . S
C1123 C670 1.523 . S
C699 C50 1.517 . S
C79 C728 1.523 . S
C108 C757 1.517 . S
C786 C21 1.523 . S
C815 C920 1.517 . S
C833 C844 1.517 . S
C862 C873 1.517 . S
C891 C902 1.517 . S
C931 C659 1.517 . S
C960 C1181 1.517 . S
C688 C989 1.517 . S
C1018 C630 1.517 . S
C1047 C543 1.517 . S
C572 C1076 1.517 . S
C1297 C1105 1.517 . S
C514 C1134 1.517 . S
C1094 C1163 1.517 . S
C1192 C340 1.517 . S
C253 C1221 1.523 . S
C282 C1250 1.517 . S
C1007 C1279 1.523 . S
C456 C1308 1.517 . S
C369 C1337 1.523 . S
C1366 C427 1.517 . S
C63 C5 4.543 1_655 S
C92 C34 4.543 . S
C179 C121 4.543 1_655 S
C150 C208 4.543 1_655 S
C353 C237 4.543 1_565 S
C382 C266 4.543 1_554 S
C295 C411 4.543 . S
C324 C440 4.543 1_556 S
C469 C1252 4.543 1_554 S
C614 C498 4.543 . S
C643 C527 4.543 . S
C1165 C556 4.543 . S
C585 C1368 4.543 . S
C672 C1281 4.543 1_565 S
C701 C759 4.543 . S
C730 C788 4.543 1_455 S
C817 C875 4.543 . S
C904 C846 4.543 . S
C1049 C933 4.543 . S
C1078 C962 4.543 . S
C991 C1107 4.543 1_565 S
C1020 C1136 4.543 . S
C1194 C1310 4.543 1_556 S
C1223 C1339 4.543 1_565 S
C13 C247 1.536 . S
C276 C42 1.536 . S
C71 C305 1.536 . S
C100 C334 1.536 . S
C129 C363 1.536 . S
C392 C158 1.536 1_455 S
C187 C421 1.536 . S
C450 C216 1.536 1_655 S
C479 C245 1.536 . S
C274 C1378 1.536 1_556 S
C1320 C303 1.536 . S
C332 C1349 1.536 1_556 S
C361 C508 1.536 . S
C537 C390 1.536 1_556 S
C566 C419 1.536 . S
C1291 C448 1.536 1_556 S
C477 C15 1.536 . S
C131 C506 1.536 . S
C160 C535 1.536 . S
C564 C189 1.536 . S
C593 C914 1.536 . S
C622 C769 1.536 . S
C651 C798 1.536 . S
C740 C680 1.536 1_545 S
C943 C709 1.536 . S
C738 C972 1.536 1_455 S
C1001 C767 1.536 . S
C1030 C796 1.536 1_455 S
C825 C1059 1.536 . S
C1088 C854 1.536 . S
C883 C1117 1.536 . S
C912 C1146 1.536 . S
C941 C1175 1.536 . S
C682 C970 1.536 . S
C999 C624 1.536 . S
C1028 C653 1.536 . S
C1057 C1204 1.536 . S
C1233 C1086 1.536 . S
C1262 C1115 1.536 . S
C595 C1144 1.536 . S
C711 C1173 1.536 . S
C1202 C827 1.536 . S
C1231 C856 1.536 1_565 S
C885 C1260 1.536 . S
C1289 C218 1.536 1_545 S
C73 C1318 1.536 . S
C1347 C102 1.536 1_545 S
C1376 C44 1.536 . S
C8 C387 3.832 . S
C416 C37 3.832 . S
C445 C66 3.832 . S
C358 C95 3.832 . S
C1025 C124 3.832 . S
C153 C938 3.832 . S
C967 C182 3.832 . S
C996 C211 3.832 . S
C735 C240 3.832 . S
C764 C269 3.832 . S
C793 C298 3.832 . S
C706 C327 3.832 . S
C213 C356 3.832 . S
C126 C385 3.832 . S
C155 C414 3.832 . S
C443 C184 3.832 . S
C1344 C472 3.832 . S
C1228 C501 3.832 . S
C1257 C530 3.832 . S
C559 C590 3.832 . S
C503 C588 3.832 . S
C617 C677 3.832 . S
C646 C619 3.832 . S
C1170 C675 3.832 . S
C1083 C704 3.832 . S
C1112 C733 3.832 . S
C1141 C762 3.832 . S
C1054 C791 3.832 . S
C329 C820 3.832 . S
C242 C849 3.832 . S
C271 C878 3.832 . S
C300 C907 3.832 . S
C39 C936 3.832 . S
C965 C68 3.832 . S
C97 C994 3.832 . S
C1023 C10 3.832 . S
C1052 C909 3.832 . S
C822 C1081 3.832 . S
C851 C1110 3.832 . S
C880 C1139 3.832 . S
C1168 C648 3.832 . S
C1197 C532 3.832 . S
C1226 C561 3.832 . S
C1255 C1286 3.832 . S
C1199 C1284 3.832 . S
C1373 C1313 3.832 . S
C1342 C1315 3.832 . S
C1371 C474 3.832 . S
