# Generated by pormake.
# Topology uod, (4)-cn, num edge types: 1
# Building blocks:
#     Node 0, Type 0, BuildingBlock: QUQFOY_clean_sbu_1, # of connection points: 4
#     Node 1, Type 0, BuildingBlock: QUQFOY_clean_sbu_1, # of connection points: 4
#     Node 2, Type 0, BuildingBlock: QUQFOY_clean_sbu_1, # of connection points: 4
#     Node 3, Type 0, BuildingBlock: QUQFOY_clean_sbu_1, # of connection points: 4
#     Node 4, Type 0, BuildingBlock: QUQFOY_clean_sbu_1, # of connection points: 4
#     Node 5, Type 0, BuildingBlock: QUQFOY_clean_sbu_1, # of connection points: 4
#     Node 6, Type 0, BuildingBlock: QUQFOY_clean_sbu_1, # of connection points: 4
#     Node 7, Type 0, BuildingBlock: QUQFOY_clean_sbu_1, # of connection points: 4
#     Node 8, Type 0, BuildingBlock: QUQFOY_clean_sbu_1, # of connection points: 4
#     Node 9, Type 0, BuildingBlock: QUQFOY_clean_sbu_1, # of connection points: 4
#     Node 10, Type 0, BuildingBlock: QUQFOY_clean_sbu_1, # of connection points: 4
#     Node 11, Type 0, BuildingBlock: QUQFOY_clean_sbu_1, # of connection points: 4
#     Node 12, Type 0, BuildingBlock: QUQFOY_clean_sbu_1, # of connection points: 4
#     Node 13, Type 0, BuildingBlock: QUQFOY_clean_sbu_1, # of connection points: 4
#     Node 14, Type 0, BuildingBlock: QUQFOY_clean_sbu_1, # of connection points: 4
#     Node 15, Type 0, BuildingBlock: QUQFOY_clean_sbu_1, # of connection points: 4
#     Node 16, Type 0, BuildingBlock: QUQFOY_clean_sbu_1, # of connection points: 4
#     Node 17, Type 0, BuildingBlock: QUQFOY_clean_sbu_1, # of connection points: 4
#     Node 18, Type 0, BuildingBlock: QUQFOY_clean_sbu_1, # of connection points: 4
#     Node 19, Type 0, BuildingBlock: QUQFOY_clean_sbu_1, # of connection points: 4
#     Node 20, Type 0, BuildingBlock: QUQFOY_clean_sbu_1, # of connection points: 4
#     Node 21, Type 0, BuildingBlock: QUQFOY_clean_sbu_1, # of connection points: 4
#     Node 22, Type 0, BuildingBlock: QUQFOY_clean_sbu_1, # of connection points: 4
#     Node 23, Type 0, BuildingBlock: QUQFOY_clean_sbu_1, # of connection points: 4
#     Node 24, Type 0, BuildingBlock: QUQFOY_clean_sbu_1, # of connection points: 4
#     Node 25, Type 0, BuildingBlock: QUQFOY_clean_sbu_1, # of connection points: 4
#     Node 26, Type 0, BuildingBlock: QUQFOY_clean_sbu_1, # of connection points: 4
#     Node 27, Type 0, BuildingBlock: QUQFOY_clean_sbu_1, # of connection points: 4
#     Node 28, Type 0, BuildingBlock: QUQFOY_clean_sbu_1, # of connection points: 4
#     Node 29, Type 0, BuildingBlock: QUQFOY_clean_sbu_1, # of connection points: 4
#     Node 30, Type 0, BuildingBlock: QUQFOY_clean_sbu_1, # of connection points: 4
#     Node 31, Type 0, BuildingBlock: QUQFOY_clean_sbu_1, # of connection points: 4
#     Edge 32, Type (0, 0), BuildingBlock: AJUNOK_clean_linker_0, # of connection points: 2
#     Edge 33, Type (0, 0), BuildingBlock: AJUNOK_clean_linker_0, # of connection points: 2
#     Edge 34, Type (0, 0), BuildingBlock: AJUNOK_clean_linker_0, # of connection points: 2
#     Edge 35, Type (0, 0), BuildingBlock: AJUNOK_clean_linker_0, # of connection points: 2
#     Edge 36, Type (0, 0), BuildingBlock: AJUNOK_clean_linker_0, # of connection points: 2
#     Edge 37, Type (0, 0), BuildingBlock: AJUNOK_clean_linker_0, # of connection points: 2
#     Edge 38, Type (0, 0), BuildingBlock: AJUNOK_clean_linker_0, # of connection points: 2
#     Edge 39, Type (0, 0), BuildingBlock: AJUNOK_clean_linker_0, # of connection points: 2
#     Edge 40, Type (0, 0), BuildingBlock: AJUNOK_clean_linker_0, # of connection points: 2
#     Edge 41, Type (0, 0), BuildingBlock: AJUNOK_clean_linker_0, # of connection points: 2
#     Edge 42, Type (0, 0), BuildingBlock: AJUNOK_clean_linker_0, # of connection points: 2
#     Edge 43, Type (0, 0), BuildingBlock: AJUNOK_clean_linker_0, # of connection points: 2
#     Edge 44, Type (0, 0), BuildingBlock: AJUNOK_clean_linker_0, # of connection points: 2
#     Edge 45, Type (0, 0), BuildingBlock: AJUNOK_clean_linker_0, # of connection points: 2
#     Edge 46, Type (0, 0), BuildingBlock: AJUNOK_clean_linker_0, # of connection points: 2
#     Edge 47, Type (0, 0), BuildingBlock: AJUNOK_clean_linker_0, # of connection points: 2
#     Edge 48, Type (0, 0), BuildingBlock: AJUNOK_clean_linker_0, # of connection points: 2
#     Edge 49, Type (0, 0), BuildingBlock: AJUNOK_clean_linker_0, # of connection points: 2
#     Edge 50, Type (0, 0), BuildingBlock: AJUNOK_clean_linker_0, # of connection points: 2
#     Edge 51, Type (0, 0), BuildingBlock: AJUNOK_clean_linker_0, # of connection points: 2
#     Edge 52, Type (0, 0), BuildingBlock: AJUNOK_clean_linker_0, # of connection points: 2
#     Edge 53, Type (0, 0), BuildingBlock: AJUNOK_clean_linker_0, # of connection points: 2
#     Edge 54, Type (0, 0), BuildingBlock: AJUNOK_clean_linker_0, # of connection points: 2
#     Edge 55, Type (0, 0), BuildingBlock: AJUNOK_clean_linker_0, # of connection points: 2
#     Edge 56, Type (0, 0), BuildingBlock: AJUNOK_clean_linker_0, # of connection points: 2
#     Edge 57, Type (0, 0), BuildingBlock: AJUNOK_clean_linker_0, # of connection points: 2
#     Edge 58, Type (0, 0), BuildingBlock: AJUNOK_clean_linker_0, # of connection points: 2
#     Edge 59, Type (0, 0), BuildingBlock: AJUNOK_clean_linker_0, # of connection points: 2
#     Edge 60, Type (0, 0), BuildingBlock: AJUNOK_clean_linker_0, # of connection points: 2
#     Edge 61, Type (0, 0), BuildingBlock: AJUNOK_clean_linker_0, # of connection points: 2
#     Edge 62, Type (0, 0), BuildingBlock: AJUNOK_clean_linker_0, # of connection points: 2
#     Edge 63, Type (0, 0), BuildingBlock: AJUNOK_clean_linker_0, # of connection points: 2
#     Edge 64, Type (0, 0), BuildingBlock: AJUNOK_clean_linker_0, # of connection points: 2
#     Edge 65, Type (0, 0), BuildingBlock: AJUNOK_clean_linker_0, # of connection points: 2
#     Edge 66, Type (0, 0), BuildingBlock: AJUNOK_clean_linker_0, # of connection points: 2
#     Edge 67, Type (0, 0), BuildingBlock: AJUNOK_clean_linker_0, # of connection points: 2
#     Edge 68, Type (0, 0), BuildingBlock: AJUNOK_clean_linker_0, # of connection points: 2
#     Edge 69, Type (0, 0), BuildingBlock: AJUNOK_clean_linker_0, # of connection points: 2
#     Edge 70, Type (0, 0), BuildingBlock: AJUNOK_clean_linker_0, # of connection points: 2
#     Edge 71, Type (0, 0), BuildingBlock: AJUNOK_clean_linker_0, # of connection points: 2
#     Edge 72, Type (0, 0), BuildingBlock: AJUNOK_clean_linker_0, # of connection points: 2
#     Edge 73, Type (0, 0), BuildingBlock: AJUNOK_clean_linker_0, # of connection points: 2
#     Edge 74, Type (0, 0), BuildingBlock: AJUNOK_clean_linker_0, # of connection points: 2
#     Edge 75, Type (0, 0), BuildingBlock: AJUNOK_clean_linker_0, # of connection points: 2
#     Edge 76, Type (0, 0), BuildingBlock: AJUNOK_clean_linker_0, # of connection points: 2
#     Edge 77, Type (0, 0), BuildingBlock: AJUNOK_clean_linker_0, # of connection points: 2
#     Edge 78, Type (0, 0), BuildingBlock: AJUNOK_clean_linker_0, # of connection points: 2
#     Edge 79, Type (0, 0), BuildingBlock: AJUNOK_clean_linker_0, # of connection points: 2
#     Edge 80, Type (0, 0), BuildingBlock: AJUNOK_clean_linker_0, # of connection points: 2
#     Edge 81, Type (0, 0), BuildingBlock: AJUNOK_clean_linker_0, # of connection points: 2
#     Edge 82, Type (0, 0), BuildingBlock: AJUNOK_clean_linker_0, # of connection points: 2
#     Edge 83, Type (0, 0), BuildingBlock: AJUNOK_clean_linker_0, # of connection points: 2
#     Edge 84, Type (0, 0), BuildingBlock: AJUNOK_clean_linker_0, # of connection points: 2
#     Edge 85, Type (0, 0), BuildingBlock: AJUNOK_clean_linker_0, # of connection points: 2
#     Edge 86, Type (0, 0), BuildingBlock: AJUNOK_clean_linker_0, # of connection points: 2
#     Edge 87, Type (0, 0), BuildingBlock: AJUNOK_clean_linker_0, # of connection points: 2
#     Edge 88, Type (0, 0), BuildingBlock: AJUNOK_clean_linker_0, # of connection points: 2
#     Edge 89, Type (0, 0), BuildingBlock: AJUNOK_clean_linker_0, # of connection points: 2
#     Edge 90, Type (0, 0), BuildingBlock: AJUNOK_clean_linker_0, # of connection points: 2
#     Edge 91, Type (0, 0), BuildingBlock: AJUNOK_clean_linker_0, # of connection points: 2
#     Edge 92, Type (0, 0), BuildingBlock: AJUNOK_clean_linker_0, # of connection points: 2
#     Edge 93, Type (0, 0), BuildingBlock: AJUNOK_clean_linker_0, # of connection points: 2
#     Edge 94, Type (0, 0), BuildingBlock: AJUNOK_clean_linker_0, # of connection points: 2
#     Edge 95, Type (0, 0), BuildingBlock: AJUNOK_clean_linker_0, # of connection points: 2
# Relax obj value: 0.034
# Max RMSD: 0.079
# Mean RMSD: 0.079
data_MOF--net-uod--node1-QUQFOY_clean_sbu_1--edge1-AJUNOK_clean_linker_0
_symmetry_space_group_name_H-M    P1
_symmetry_Int_Tables_number       1
_symmetry_cell_setting            triclinic
loop_
_symmetry_equiv_pos_as_xyz
'x, y, z'
_cell_length_a     65.247291
_cell_length_b     20.982975
_cell_length_c     52.288914
_cell_angle_alpha  89.995339
_cell_angle_beta   89.983708
_cell_angle_gamma 90.022291
loop_
_atom_site_label
_atom_site_type_symbol
_atom_site_fract_x
_atom_site_fract_y
_atom_site_fract_z
_atom_type_partial_charge
O0 O 0.05929 0.51091 0.10263 0.0
Cd1 Cd 0.07132 0.44335 0.0796 0.0
Cd2 Cd 0.05921 0.37526 0.12153 0.0
O3 O 0.03961 0.45181 0.12736 0.0
O4 O 0.07117 0.49366 0.04706 0.0
O5 O 0.05018 0.41307 0.05423 0.0
C6 C 0.05491 0.4625 0.04062 0.0
C7 C 0.04913 0.26872 0.12678 0.0
C8 C 0.04456 0.50582 0.11825 0.0
C9 C 0.10479 0.40139 0.11347 0.0
O10 O 0.09005 0.39022 0.12876 0.0
O11 O 0.10098 0.41484 0.09009 0.0
O12 O 0.05154 0.30623 0.14607 0.0
O13 O 0.05127 0.29302 0.10421 0.0
O14 O 0.23862 0.77434 0.10258 0.0
Cd15 Cd 0.22723 0.84242 0.07929 0.0
Cd16 Cd 0.23633 0.90927 0.12314 0.0
O17 O 0.25529 0.83228 0.13092 0.0
O18 O 0.22938 0.79431 0.04626 0.0
O19 O 0.2492 0.8762 0.05577 0.0
C20 C 0.24556 0.82751 0.04127 0.0
C21 C 0.24646 1.01555 0.12926 0.0
C22 C 0.25162 0.77882 0.12045 0.0
C23 C 0.1915 0.88225 0.11063 0.0
O24 O 0.20512 0.89452 0.12735 0.0
O25 O 0.19688 0.86839 0.08777 0.0
O26 O 0.24269 0.97826 0.14829 0.0
O27 O 0.24557 0.99122 0.10656 0.0
O28 O 0.06392 0.75387 0.16051 0.0
Cd29 Cd 0.07364 0.82848 0.1816 0.0
Cd30 Cd 0.06063 0.88671 0.14042 0.0
O31 O 0.0411 0.8084 0.13866 0.0
O32 O 0.07174 0.78941 0.21639 0.0
O33 O 0.0502 0.86289 0.20228 0.0
C34 C 0.0545 0.81918 0.21894 0.0
C35 C 0.04987 0.99282 0.13842 0.0
C36 C 0.04754 0.75573 0.14757 0.0
C37 C 0.10622 0.87093 0.14707 0.0
O38 O 0.09133 0.87366 0.13137 0.0
O39 O 0.10251 0.86351 0.1709 0.0
O40 O 0.05073 0.95776 0.11815 0.0
O41 O 0.05394 0.96606 0.16012 0.0
O42 O 0.23136 0.52882 0.16496 0.0
Cd43 Cd 0.22263 0.45231 0.18557 0.0
Cd44 Cd 0.23485 0.39692 0.14368 0.0
O45 O 0.25396 0.47635 0.14198 0.0
O46 O 0.22513 0.4888 0.2207 0.0
O47 O 0.24669 0.41751 0.20486 0.0
C48 C 0.24256 0.4597 0.2222 0.0
C49 C 0.24595 0.2912 0.14152 0.0
C50 C 0.24748 0.52836 0.15149 0.0
C51 C 0.18948 0.40949 0.15197 0.0
O52 O 0.20392 0.40865 0.13558 0.0
O53 O 0.19382 0.4162 0.17565 0.0
O54 O 0.24482 0.32626 0.12126 0.0
O55 O 0.24201 0.31786 0.16327 0.0
O56 O 0.98416 0.51263 0.9124 0.0
Cd57 Cd 0.97448 0.58561 0.93431 0.0
Cd58 Cd 0.98588 0.646 0.89223 0.0
O59 O 1.00548 0.56826 0.88865 0.0
O60 O 0.97639 0.54296 0.96842 0.0
O61 O 0.99775 0.61853 0.95576 0.0
C62 C 0.99349 0.57302 0.97163 0.0
C63 C 0.99641 0.75238 0.88973 0.0
C64 C 0.99977 0.51532 0.89809 0.0
C65 C 0.94059 0.62766 0.90145 0.0
O66 O 0.95489 0.63243 0.88498 0.0
O67 O 0.94515 0.6186 0.92496 0.0
O68 O 0.99472 0.71752 0.86949 0.0
O69 O 0.9933 0.72531 0.91162 0.0
O70 O 0.81185 0.27531 0.91163 0.0
Cd71 Cd 0.82244 0.20248 0.93318 0.0
Cd72 Cd 0.80997 0.14108 0.8918 0.0
O73 O 0.79064 0.2192 0.88787 0.0
O74 O 0.82064 0.24311 0.96772 0.0
O75 O 0.79969 0.16679 0.95475 0.0
C76 C 0.80381 0.2116 0.971 0.0
C77 C 0.79933 0.03475 0.88911 0.0
C78 C 0.79644 0.27242 0.89697 0.0
C79 C 0.85555 0.16039 0.89905 0.0
O80 O 0.84073 0.15417 0.88344 0.0
O81 O 0.85175 0.17043 0.92271 0.0
O82 O 0.80085 0.07008 0.86898 0.0
O83 O 0.80262 0.06135 0.91104 0.0
O84 O 0.98614 0.26843 0.85202 0.0
Cd85 Cd 0.97533 0.19812 0.82943 0.0
Cd86 Cd 0.98589 0.13442 0.87274 0.0
O87 O 1.00536 0.21172 0.87807 0.0
O88 O 0.97594 0.24613 0.79636 0.0
O89 O 0.99737 0.16784 0.80524 0.0
C90 C 0.9926 0.21588 0.7909 0.0
C91 C 0.99628 0.02827 0.87801 0.0
C92 C 1.00058 0.26493 0.86811 0.0
C93 C 0.94073 0.15691 0.86199 0.0
O94 O 0.95476 0.14876 0.87859 0.0
O95 O 0.9456 0.16814 0.83874 0.0
O96 O 0.99351 0.06546 0.89734 0.0
O97 O 0.99427 0.0527 0.85543 0.0
O98 O 0.8115 0.51758 0.85243 0.0
Cd99 Cd 0.82264 0.58653 0.82947 0.0
Cd100 Cd 0.81 0.6529 0.87109 0.0
O101 O 0.79022 0.57586 0.87523 0.0
O102 O 0.82241 0.53695 0.79679 0.0
O103 O 0.80086 0.61565 0.80475 0.0
C104 C 0.80576 0.56679 0.79091 0.0
C105 C 0.79962 0.75908 0.87646 0.0
C106 C 0.79583 0.52206 0.86656 0.0
C107 C 0.85571 0.62948 0.86338 0.0
O108 O 0.84086 0.63825 0.87877 0.0
O109 O 0.85202 0.61765 0.83984 0.0
O110 O 0.80169 0.72113 0.89568 0.0
O111 O 0.80231 0.73542 0.85387 0.0
O112 O 0.06446 0.01963 0.59994 0.0
Cd113 Cd 0.07462 0.94828 0.57753 0.0
Cd114 Cd 0.0635 0.88565 0.62041 0.0
O115 O 0.04382 0.96314 0.6243 0.0
O116 O 0.07364 0.99495 0.54419 0.0
O117 O 0.05199 0.91797 0.55426 0.0
C118 C 0.05669 0.96538 0.53952 0.0
C119 C 0.0529 0.77968 0.62574 0.0
C120 C 0.04914 1.01628 0.61468 0.0
C121 C 0.10881 0.90674 0.61029 0.0
O122 O 0.09462 0.89998 0.6268 0.0
O123 O 0.10412 0.91687 0.58689 0.0
O124 O 0.05532 0.81727 0.64503 0.0
O125 O 0.05542 0.8036 0.60315 0.0
O126 O 0.23475 0.25692 0.59991 0.0
Cd127 Cd 0.22451 0.32986 0.57832 0.0
Cd128 Cd 0.23787 0.39108 0.61893 0.0
O129 O 0.25759 0.31319 0.62105 0.0
O130 O 0.22602 0.28857 0.54394 0.0
O131 O 0.24746 0.36388 0.55675 0.0
C132 C 0.24309 0.31888 0.54068 0.0
C133 C 0.24846 0.49752 0.62106 0.0
C134 C 0.25121 0.25991 0.61264 0.0
C135 C 0.19218 0.37282 0.61292 0.0
O136 O 0.20724 0.37751 0.62827 0.0
O137 O 0.19561 0.36386 0.58912 0.0
O138 O 0.24765 0.46225 0.64127 0.0
O139 O 0.24446 0.47084 0.59933 0.0
O140 O 0.06256 0.26339 0.6615 0.0
Cd141 Cd 0.07292 0.33531 0.68364 0.0
Cd142 Cd 0.06218 0.39735 0.64112 0.0
O143 O 0.04291 0.31953 0.63575 0.0
O144 O 0.07096 0.29203 0.71766 0.0
O145 O 0.05016 0.36957 0.70564 0.0
C146 C 0.05421 0.32353 0.72134 0.0
C147 C 0.05183 0.50391 0.63812 0.0
C148 C 0.04802 0.26637 0.64555 0.0
C149 C 0.10737 0.37655 0.65114 0.0
O150 O 0.09322 0.38379 0.63462 0.0
O151 O 0.10261 0.36587 0.67447 0.0
O152 O 0.05406 0.46893 0.61801 0.0
O153 O 0.05423 0.47685 0.66015 0.0
O154 O 0.23972 1.01539 0.65866 0.0
Cd155 Cd 0.22762 0.94768 0.68164 0.0
Cd156 Cd 0.23936 0.88007 0.63909 0.0
O157 O 0.25897 0.95671 0.63328 0.0
O158 O 0.22785 0.99783 0.71427 0.0
O159 O 0.24876 0.91718 0.70706 0.0
C160 C 0.24405 0.96648 0.72074 0.0
C161 C 0.24926 0.77343 0.6334 0.0
C162 C 0.25423 1.01054 0.64272 0.0
C163 C 0.19389 0.90639 0.64775 0.0
O164 O 0.2085 0.89548 0.63223 0.0
O165 O 0.19787 0.91922 0.67115 0.0
O166 O 0.24677 0.81134 0.61425 0.0
O167 O 0.24732 0.79736 0.65606 0.0
O168 O 0.98359 1.00725 0.41319 0.0
Cd169 Cd 0.97439 0.08206 0.43453 0.0
Cd170 Cd 0.98601 0.14023 0.39218 0.0
O171 O 1.0051 0.0611 0.38906 0.0
O172 O 0.97663 0.0424 0.46918 0.0
O173 O 0.99801 0.11626 0.45499 0.0
C174 C 0.99384 0.07237 0.47162 0.0
C175 C 0.99704 0.24604 0.38906 0.0
C176 C 0.99915 1.00867 0.39875 0.0
C177 C 0.94067 0.12522 0.40156 0.0
O178 O 0.95496 0.12832 0.38501 0.0
O179 O 0.94523 0.11665 0.4251 0.0
O180 O 0.99524 0.21049 0.36903 0.0
O181 O 0.99382 0.21988 0.4111 0.0
O182 O 0.81269 0.77676 0.41087 0.0
Cd183 Cd 0.82281 0.70229 0.43185 0.0
Cd184 Cd 0.81145 0.64421 0.38892 0.0
O185 O 0.79218 0.72263 0.38551 0.0
O186 O 0.82127 0.74219 0.46654 0.0
O187 O 0.79997 0.66699 0.45346 0.0
C188 C 0.80436 0.71118 0.46986 0.0
C189 C 0.80051 0.53863 0.38432 0.0
C190 C 0.79762 0.77504 0.39563 0.0
C191 C 0.85674 0.66108 0.39842 0.0
O192 O 0.84249 0.65697 0.38188 0.0
O193 O 0.85214 0.66981 0.42193 0.0
O194 O 0.80263 0.5757 0.36481 0.0
O195 O 0.80342 0.56303 0.40675 0.0
O196 O 0.98745 0.76356 0.35031 0.0
Cd197 Cd 0.97566 0.69542 0.32733 0.0
Cd198 Cd 0.9873 0.62781 0.36975 0.0
O199 O 1.00654 0.70512 0.37597 0.0
O200 O 0.97629 0.74455 0.29447 0.0
O201 O 0.99712 0.66415 0.30252 0.0
C202 C 0.99258 0.71301 0.2885 0.0
C203 C 0.99757 0.52151 0.37564 0.0
C204 C 1.00175 0.75895 0.36656 0.0
C205 C 0.9418 0.65393 0.36092 0.0
O206 O 0.95637 0.64242 0.37641 0.0
O207 O 0.94585 0.66734 0.33759 0.0
O208 O 0.9948 0.55944 0.39472 0.0
O209 O 0.99567 0.54522 0.35294 0.0
O210 O 0.81152 0.02118 0.3527 0.0
Cd211 Cd 0.82262 0.09013 0.32974 0.0
Cd212 Cd 0.81018 0.15596 0.37086 0.0
O213 O 0.79024 0.07953 0.37546 0.0
O214 O 0.82223 0.04053 0.29708 0.0
O215 O 0.80073 0.11926 0.30517 0.0
C216 C 0.80554 0.07028 0.29135 0.0
C217 C 0.79998 0.26272 0.37321 0.0
C218 C 0.79587 0.02569 0.36685 0.0
C219 C 0.85579 0.13225 0.36363 0.0
O220 O 0.84094 0.14112 0.37902 0.0
O221 O 0.85206 0.12068 0.34007 0.0
O222 O 0.80161 0.22798 0.39348 0.0
O223 O 0.80303 0.23545 0.35136 0.0
O224 O 0.56731 0.52648 0.59646 0.0
Cd225 Cd 0.57635 0.4516 0.57514 0.0
Cd226 Cd 0.56412 0.3943 0.61697 0.0
O227 O 0.54471 0.47292 0.61901 0.0
O228 O 0.57522 0.49311 0.54082 0.0
O229 O 0.55284 0.42058 0.55358 0.0
C230 C 0.55776 0.46519 0.53758 0.0
C231 C 0.55325 0.2883 0.61906 0.0
C232 C 0.55113 0.52529 0.60977 0.0
C233 C 0.60953 0.40896 0.60875 0.0
O234 O 0.59504 0.40697 0.62506 0.0
O235 O 0.60525 0.41623 0.58507 0.0
O236 O 0.55442 0.32321 0.63935 0.0
O237 O 0.55706 0.3152 0.59731 0.0
O238 O 0.73648 0.76138 0.60107 0.0
Cd239 Cd 0.72587 0.83276 0.57892 0.0
Cd240 Cd 0.73863 0.89551 0.6203 0.0
O241 O 0.75832 0.81805 0.62365 0.0
O242 O 0.72616 0.7867 0.54546 0.0
O243 O 0.74808 0.86329 0.55515 0.0
C244 C 0.74306 0.8162 0.54041 0.0
C245 C 0.74934 1.00176 0.62284 0.0
C246 C 0.75241 0.76475 0.61479 0.0
C247 C 0.693 0.87575 0.6131 0.0
O248 O 0.70783 0.88189 0.62873 0.0
O249 O 0.69676 0.86572 0.58944 0.0
O250 O 0.74786 0.96658 0.64301 0.0
O251 O 0.74585 0.97515 0.60096 0.0
O252 O 0.56078 0.77162 0.65774 0.0
Cd253 Cd 0.57235 0.83926 0.68115 0.0
Cd254 Cd 0.56272 0.90626 0.63713 0.0
O255 O 0.54365 0.82925 0.62975 0.0
O256 O 0.57171 0.78799 0.71349 0.0
O257 O 0.55089 0.86884 0.70637 0.0
C258 C 0.55547 0.81917 0.71988 0.0
C259 C 0.55262 1.01253 0.63113 0.0
C260 C 0.54752 0.77588 0.64017 0.0
C261 C 0.60765 0.88066 0.64933 0.0
O262 O 0.59391 0.89176 0.63263 0.0
O263 O 0.60243 0.86706 0.67228 0.0
O264 O 0.55618 0.97523 0.61205 0.0
O265 O 0.55366 0.98819 0.65382 0.0
O266 O 0.73864 0.51815 0.65996 0.0
Cd267 Cd 0.72731 0.44704 0.68187 0.0
Cd268 Cd 0.73987 0.38348 0.64011 0.0
O269 O 0.75919 0.46135 0.63553 0.0
O270 O 0.72842 0.49087 0.71583 0.0
O271 O 0.74925 0.41229 0.70501 0.0
C272 C 0.74493 0.45878 0.72038 0.0
C273 C 0.75037 0.27744 0.63502 0.0
C274 C 0.75372 0.51471 0.64479 0.0
C275 C 0.69418 0.40523 0.6476 0.0
O276 O 0.70907 0.39701 0.63224 0.0
O277 O 0.69784 0.41685 0.67117 0.0
O278 O 0.74833 0.31513 0.6157 0.0
O279 O 0.74771 0.30143 0.65756 0.0
O280 O 0.48469 0.50612 0.4124 0.0
Cd281 Cd 0.47485 0.58028 0.43361 0.0
Cd282 Cd 0.48833 0.6396 0.39275 0.0
O283 O 0.50768 0.56093 0.39087 0.0
O284 O 0.47706 0.54152 0.46838 0.0
O285 O 0.49827 0.61568 0.45391 0.0
C286 C 0.49423 0.57185 0.47064 0.0
C287 C 0.49918 0.7453 0.38825 0.0
C288 C 0.5011 0.50813 0.39952 0.0
C289 C 0.44254 0.62296 0.39913 0.0
O290 O 0.45764 0.6267 0.38379 0.0
O291 O 0.44594 0.61446 0.42297 0.0
O292 O 0.49797 0.70754 0.36883 0.0
O293 O 0.49552 0.72145 0.41061 0.0
O294 O 0.31045 0.25998 0.4095 0.0
Cd295 Cd 0.32162 0.19101 0.43258 0.0
Cd296 Cd 0.31188 0.12578 0.38863 0.0
O297 O 0.2928 0.20303 0.3818 0.0
O298 O 0.32095 0.24078 0.46527 0.0
O299 O 0.29984 0.1611 0.45732 0.0
C300 C 0.30452 0.20999 0.47124 0.0
C301 C 0.30155 0.01971 0.38281 0.0
C302 C 0.29694 0.25622 0.39222 0.0
C303 C 0.35683 0.14969 0.4007 0.0
O304 O 0.34309 0.13996 0.38387 0.0
O305 O 0.3516 0.16226 0.42373 0.0
O306 O 0.30499 0.05694 0.36366 0.0
O307 O 0.30287 0.04404 0.40547 0.0
O308 O 0.48795 0.26237 0.35423 0.0
Cd309 Cd 0.47616 0.19347 0.33157 0.0
Cd310 Cd 0.4879 0.12746 0.37369 0.0
O311 O 0.5074 0.20423 0.37952 0.0
O312 O 0.47625 0.24233 0.29867 0.0
O313 O 0.49747 0.16276 0.30647 0.0
C314 C 0.4926 0.21135 0.29247 0.0
C315 C 0.49846 0.02103 0.37647 0.0
C316 C 0.50255 0.2579 0.37005 0.0
C317 C 0.44245 0.15118 0.36533 0.0
O318 O 0.457 0.14135 0.38104 0.0
O319 O 0.44657 0.1638 0.34195 0.0
O320 O 0.49617 0.05576 0.39664 0.0
O321 O 0.49583 0.04812 0.3545 0.0
O322 O 0.31554 0.50554 0.34812 0.0
Cd323 Cd 0.32475 0.57987 0.32659 0.0
Cd324 Cd 0.31262 0.63806 0.36843 0.0
O325 O 0.29324 0.55947 0.371 0.0
O326 O 0.32357 0.5377 0.29241 0.0
O327 O 0.30137 0.61099 0.30488 0.0
C328 C 0.3062 0.56601 0.28902 0.0
C329 C 0.30177 0.74403 0.37071 0.0
C330 C 0.29952 0.50699 0.36174 0.0
C331 C 0.35803 0.62267 0.35996 0.0
O332 O 0.34356 0.6255 0.37628 0.0
O333 O 0.35373 0.61474 0.33633 0.0
O334 O 0.30313 0.70907 0.39097 0.0
O335 O 0.30536 0.71719 0.34889 0.0
O336 O 0.56321 1.01641 0.10127 0.0
Cd337 Cd 0.57404 0.94636 0.07867 0.0
Cd338 Cd 0.56081 0.88162 0.11937 0.0
O339 O 0.54087 0.95863 0.12263 0.0
O340 O 0.57371 0.99414 0.04557 0.0
O341 O 0.55191 0.91672 0.05459 0.0
C342 C 0.55685 0.96472 0.04027 0.0
C343 C 0.55054 0.77483 0.12176 0.0
C344 C 0.54699 1.01237 0.11442 0.0
C345 C 0.60654 0.90343 0.11322 0.0
O346 O 0.59145 0.89617 0.12839 0.0
O347 O 0.60316 0.91403 0.08951 0.0
O348 O 0.55163 0.81011 0.14194 0.0
O349 O 0.55411 0.80162 0.09993 0.0
O350 O 0.73638 0.26066 0.1027 0.0
Cd351 Cd 0.72509 0.33082 0.08034 0.0
Cd352 Cd 0.73709 0.39529 0.1222 0.0
O353 O 0.75665 0.31814 0.12721 0.0
O354 O 0.72562 0.2841 0.04697 0.0
O355 O 0.74692 0.36261 0.05621 0.0
C356 C 0.74219 0.315 0.04159 0.0
C357 C 0.74736 0.50208 0.12509 0.0
C358 C 0.75137 0.26456 0.11798 0.0
C359 C 0.69159 0.37214 0.11431 0.0
O360 O 0.70627 0.38084 0.12995 0.0
O361 O 0.69555 0.36087 0.09078 0.0
O362 O 0.74551 0.46686 0.14519 0.0
O363 O 0.74456 0.47523 0.1031 0.0
O364 O 0.5608 0.2588 0.16097 0.0
Cd365 Cd 0.57148 0.33028 0.18315 0.0
Cd366 Cd 0.56113 0.39296 0.13981 0.0
O367 O 0.5418 0.31522 0.13455 0.0
O368 O 0.56976 0.28616 0.21705 0.0
O369 O 0.54901 0.36438 0.20572 0.0
C370 C 0.55314 0.31795 0.22119 0.0
C371 C 0.5507 0.49899 0.13415 0.0
C372 C 0.54649 0.26212 0.14469 0.0
C373 C 0.60625 0.37137 0.15082 0.0
O374 O 0.59228 0.37906 0.13411 0.0
O375 O 0.60127 0.3603 0.17406 0.0
O376 O 0.55354 0.46142 0.11496 0.0
O377 O 0.55262 0.47497 0.15681 0.0
O378 O 0.73515 0.01792 0.16344 0.0
Cd379 Cd 0.72499 0.94581 0.18553 0.0
Cd380 Cd 0.73648 0.88385 0.143 0.0
O381 O 0.75605 0.96173 0.13931 0.0
O382 O 0.72672 0.98972 0.21942 0.0
O383 O 0.74783 0.91269 0.20766 0.0
C384 C 0.74361 0.95895 0.22319 0.0
C385 C 0.74703 0.77788 0.13766 0.0
C386 C 0.75058 1.01481 0.14884 0.0
C387 C 0.69108 0.90386 0.15252 0.0
O388 O 0.70544 0.89773 0.1362 0.0
O389 O 0.69554 0.91389 0.17599 0.0
O390 O 0.74482 0.81567 0.1184 0.0
O391 O 0.74442 0.80166 0.16025 0.0
O392 O 0.48767 1.01482 0.91046 0.0
Cd393 Cd 0.47688 0.0858 0.93278 0.0
Cd394 Cd 0.48693 0.14879 0.88917 0.0
O395 O 0.50618 0.07119 0.88347 0.0
O396 O 0.47871 0.04089 0.96653 0.0
O397 O 0.49926 0.11995 0.95555 0.0
C398 C 0.49525 0.07302 0.97082 0.0
C399 C 0.49734 0.25487 0.8835 0.0
C400 C 0.50169 0.01813 0.89379 0.0
C401 C 0.44187 0.12602 0.9005 0.0
O402 O 0.45577 0.13459 0.88375 0.0
O403 O 0.44694 0.1147 0.92369 0.0
O404 O 0.49434 0.21744 0.8643 0.0
O405 O 0.49557 0.23072 0.90616 0.0
O406 O 0.31412 0.77182 0.91139 0.0
Cd407 Cd 0.32467 0.70103 0.93386 0.0
Cd408 Cd 0.31122 0.63717 0.89337 0.0
O409 O 0.2914 0.71456 0.89047 0.0
O410 O 0.32432 0.74783 0.96714 0.0
O411 O 0.30233 0.6713 0.95761 0.0
C412 C 0.30733 0.71877 0.97217 0.0
C413 C 0.30081 0.53058 0.89112 0.0
C414 C 0.29773 0.76818 0.89855 0.0
C415 C 0.35699 0.65722 0.89931 0.0
O416 O 0.34186 0.651 0.88414 0.0
O417 O 0.35366 0.66759 0.92305 0.0
O418 O 0.30178 0.56583 0.87092 0.0
O419 O 0.30455 0.55736 0.91291 0.0
O420 O 0.48507 0.77051 0.84842 0.0
Cd421 Cd 0.47518 0.6975 0.82665 0.0
Cd422 Cd 0.48684 0.63702 0.86863 0.0
O423 O 0.50638 0.71496 0.87219 0.0
O424 O 0.47698 0.73985 0.79247 0.0
O425 O 0.49828 0.66411 0.80506 0.0
C426 C 0.49402 0.70953 0.78915 0.0
C427 C 0.49739 0.53065 0.87121 0.0
C428 C 0.50065 0.76789 0.86277 0.0
C429 C 0.44147 0.65568 0.85987 0.0
O430 O 0.45589 0.65055 0.87615 0.0
O431 O 0.44586 0.66489 0.83632 0.0
O432 O 0.49576 0.56569 0.89141 0.0
O433 O 0.49421 0.55754 0.84931 0.0
O434 O 0.31122 1.01377 0.85283 0.0
Cd435 Cd 0.32259 0.08425 0.83062 0.0
Cd436 Cd 0.31095 0.14849 0.87303 0.0
O437 O 0.29143 0.07124 0.87798 0.0
O438 O 0.32109 0.03981 0.79676 0.0
O439 O 0.30053 0.11898 0.80759 0.0
C440 C 0.30463 0.07216 0.79229 0.0
C441 C 0.30072 0.25476 0.87865 0.0
C442 C 0.29645 0.01775 0.86845 0.0
C443 C 0.35641 0.12481 0.86432 0.0
O444 O 0.34183 0.13371 0.88009 0.0
O445 O 0.35231 0.1136 0.84082 0.0
O446 O 0.30308 0.21679 0.89781 0.0
O447 O 0.30298 0.23105 0.85599 0.0
C448 C 0.03353 0.67862 0.1163 0.0
C449 C 0.03753 0.69486 0.14178 0.0
C450 C 0.0325 0.61449 0.10907 0.0
C451 C 0.03533 0.56547 0.12718 0.0
H452 H 0.03374 0.71484 0.10152 0.0
H453 H 0.03193 0.60326 0.08884 0.0
S454 S 0.04036 0.58493 0.19717 0.0
N455 N 0.03976 0.6584 0.18584 0.0
N456 N 0.03789 0.5376 0.1721 0.0
C457 C 0.03601 0.58146 0.15312 0.0
C458 C 0.03716 0.64663 0.16048 0.0
C459 C 0.26344 0.66894 0.11279 0.0
C460 C 0.25995 0.71876 0.13036 0.0
C461 C 0.26208 0.60513 0.12037 0.0
C462 C 0.25709 0.58992 0.14569 0.0
H463 H 0.26495 0.67929 0.09256 0.0
H464 H 0.26256 0.5683 0.10586 0.0
S465 S 0.25239 0.70218 0.20015 0.0
N466 N 0.25575 0.74845 0.17493 0.0
N467 N 0.25329 0.62826 0.18935 0.0
C468 C 0.25673 0.63896 0.16406 0.0
C469 C 0.25821 0.70382 0.15635 0.0
C470 C 1.01159 0.37446 0.85796 0.0
C471 C 1.00983 0.32536 0.87627 0.0
C472 C 1.01145 0.43855 0.86533 0.0
C473 C 1.00946 0.45472 0.89118 0.0
H474 H 1.01077 0.36345 0.83773 0.0
H475 H 1.01032 0.47489 0.85067 0.0
S476 S 1.01025 0.34446 0.94657 0.0
N477 N 1.01055 0.29721 0.92129 0.0
N478 N 1.01037 0.41799 0.93527 0.0
C479 C 1.01098 0.40629 0.90971 0.0
C480 C 1.01118 0.34112 0.9022 0.0
C481 C 0.7856 0.4463 0.90029 0.0
C482 C 0.78607 0.46225 0.8743 0.0
C483 C 0.78613 0.38229 0.90778 0.0
C484 C 0.78697 0.33304 0.88946 0.0
H485 H 0.7875 0.48286 0.91473 0.0
H486 H 0.78811 0.37154 0.9279 0.0
S487 S 0.78299 0.35128 0.81928 0.0
N488 N 0.78313 0.42493 0.83044 0.0
N489 N 0.78407 0.30434 0.84463 0.0
C490 C 0.7842 0.34844 0.86366 0.0
C491 C 0.78376 0.41352 0.85603 0.0
C492 C 0.03769 0.09223 0.64788 0.0
C493 C 0.03942 0.07658 0.62197 0.0
C494 C 0.03753 0.15616 0.65548 0.0
C495 C 0.03898 0.20567 0.6373 0.0
H496 H 0.03904 0.05555 0.66242 0.0
H497 H 0.03853 0.16677 0.6757 0.0
S498 S 0.03794 0.188 0.56694 0.0
N499 N 0.03803 0.11425 0.578 0.0
N500 N 0.0378 0.23471 0.59238 0.0
C501 C 0.03741 0.1904 0.61135 0.0
C502 C 0.03764 0.1254 0.6036 0.0
C503 C 0.266 0.11974 0.65178 0.0
C504 C 0.26338 0.07038 0.63376 0.0
C505 C 0.26507 0.18376 0.64435 0.0
C506 C 0.26141 0.19956 0.61875 0.0
H507 H 0.26634 0.10888 0.67205 0.0
H508 H 0.26465 0.22022 0.65902 0.0
S509 S 0.25925 0.08871 0.56362 0.0
N510 N 0.2614 0.04178 0.58886 0.0
N511 N 0.25972 0.16236 0.57476 0.0
C512 C 0.26202 0.151 0.6002 0.0
C513 C 0.26305 0.08594 0.60775 0.0
C514 C 1.01212 0.93279 0.36621 0.0
C515 C 1.00857 0.94745 0.39196 0.0
C516 C 1.01301 0.86915 0.35829 0.0
C517 C 1.01051 0.81893 0.37595 0.0
H518 H 1.01178 0.96996 0.35183 0.0
H519 H 1.01336 0.85925 0.33795 0.0
S520 S 1.00661 0.83386 0.44625 0.0
N521 N 1.00702 0.90804 0.43568 0.0
N522 N 1.00864 0.78819 0.42063 0.0
C523 C 1.01017 0.83327 0.40207 0.0
C524 C 1.00915 0.89795 0.41013 0.0
C525 C 0.78756 0.88461 0.4075 0.0
C526 C 0.78809 0.83614 0.38882 0.0
C527 C 0.78654 0.94887 0.40048 0.0
C528 C 0.78616 0.96588 0.37461 0.0
H529 H 0.7901 0.87314 0.42746 0.0
H530 H 0.78875 0.9849 0.41507 0.0
S531 S 0.78182 0.85715 0.31902 0.0
N532 N 0.78388 0.80919 0.34396 0.0
N533 N 0.78202 0.93031 0.33068 0.0
C534 C 0.78348 0.91784 0.35613 0.0
C535 C 0.78444 0.85247 0.36327 0.0
C536 C 0.53575 0.66619 0.64846 0.0
C537 C 0.53898 0.71569 0.63065 0.0
C538 C 0.5369 0.60223 0.64103 0.0
C539 C 0.54137 0.58656 0.61561 0.0
H540 H 0.53466 0.67689 0.6687 0.0
H541 H 0.53671 0.56565 0.65566 0.0
S542 S 0.54521 0.6978 0.5607 0.0
N543 N 0.54237 0.74456 0.58588 0.0
N544 N 0.54439 0.62409 0.57175 0.0
C545 C 0.54142 0.63527 0.59709 0.0
C546 C 0.54018 0.70029 0.60466 0.0
C547 C 0.76436 0.6884 0.64753 0.0
C548 C 0.76231 0.70448 0.62168 0.0
C549 C 0.76461 0.62432 0.65494 0.0
C550 C 0.76296 0.57516 0.63667 0.0
H551 H 0.76317 0.72478 0.66216 0.0
H552 H 0.76378 0.61331 0.67517 0.0
S553 S 0.76288 0.59405 0.56634 0.0
N554 N 0.76298 0.66761 0.5776 0.0
N555 N 0.76345 0.54691 0.59165 0.0
C556 C 0.76417 0.59088 0.61071 0.0
C557 C 0.76381 0.65601 0.60316 0.0
C558 C 0.51398 0.43086 0.36767 0.0
C559 C 0.5109 0.44725 0.39334 0.0
C560 C 0.5144 0.36671 0.36039 0.0
C561 C 0.51187 0.3178 0.37862 0.0
H562 H 0.5135 0.46712 0.35293 0.0
H563 H 0.51434 0.35552 0.34015 0.0
S564 S 0.50912 0.33742 0.44882 0.0
N565 N 0.50978 0.41087 0.43746 0.0
N566 N 0.51055 0.28999 0.42365 0.0
C567 C 0.51208 0.33376 0.40459 0.0
C568 C 0.51155 0.39897 0.412 0.0
C569 C 0.28625 0.43 0.39358 0.0
C570 C 0.28988 0.44579 0.36797 0.0
C571 C 0.2855 0.36601 0.40106 0.0
C572 C 0.28827 0.31661 0.38309 0.0
H573 H 0.28645 0.46656 0.40822 0.0
H574 H 0.28502 0.35528 0.42133 0.0
S575 S 0.29234 0.33473 0.3129 0.0
N576 N 0.29169 0.40841 0.32399 0.0
N577 N 0.29036 0.28787 0.33818 0.0
C578 C 0.28864 0.33206 0.35706 0.0
C579 C 0.28948 0.3971 0.34945 0.0
C580 C 0.53541 0.15246 0.15476 0.0
C581 C 0.53722 0.20166 0.13651 0.0
C582 C 0.53525 0.08842 0.1473 0.0
C583 C 0.537 0.07238 0.12142 0.0
H584 H 0.53639 0.16326 0.175 0.0
H585 H 0.53641 0.05191 0.16189 0.0
S586 S 0.53649 0.18308 0.06617 0.0
N587 N 0.53642 0.23015 0.09151 0.0
N588 N 0.53611 0.10949 0.07739 0.0
C589 C 0.53557 0.12102 0.10297 0.0
C590 C 0.53567 0.18614 0.11055 0.0
C591 C 0.76204 0.09086 0.11565 0.0
C592 C 0.76025 0.07525 0.14158 0.0
C593 C 0.7622 0.15479 0.10804 0.0
C594 C 0.7607 0.20431 0.12618 0.0
H595 H 0.76074 0.0542 0.10114 0.0
H596 H 0.76119 0.16538 0.08778 0.0
S597 S 0.76154 0.18679 0.19655 0.0
N598 N 0.7615 0.11301 0.18553 0.0
N599 N 0.76174 0.23345 0.17109 0.0
C600 C 0.76221 0.1891 0.15216 0.0
C601 C 0.76196 0.1241 0.15991 0.0
C602 C 0.51239 0.84413 0.89572 0.0
C603 C 0.51024 0.82857 0.86983 0.0
C604 C 0.51256 0.90804 0.90335 0.0
C605 C 0.51068 0.9576 0.88527 0.0
H606 H 0.51139 0.8074 0.91024 0.0
H607 H 0.51191 0.91852 0.92363 0.0
S608 S 0.51062 0.94021 0.81487 0.0
N609 N 0.51082 0.86642 0.82588 0.0
N610 N 0.51108 0.98683 0.84034 0.0
C611 C 0.51183 0.94246 0.85925 0.0
C612 C 0.51159 0.87748 0.85148 0.0
C613 C 0.28528 0.84435 0.86608 0.0
C614 C 0.28768 0.82833 0.89188 0.0
C615 C 0.28507 0.90841 0.85862 0.0
C616 C 0.28714 0.9576 0.87682 0.0
H617 H 0.28619 0.80788 0.85145 0.0
H618 H 0.28564 0.91931 0.83837 0.0
S619 S 0.2882 0.93899 0.94714 0.0
N620 N 0.28776 0.86539 0.93594 0.0
N621 N 0.28737 0.98605 0.92182 0.0
C622 C 0.28625 0.94202 0.90281 0.0
C623 C 0.28656 0.87691 0.91039 0.0
C624 C 1.00552 0.49052 1.00317 0.0
C625 C 1.00912 0.54831 0.99012 0.0
C626 C 1.02069 0.46171 0.01839 0.0
C627 C 0.04025 0.4892 0.02135 0.0
H628 H 0.99088 0.46656 1.00142 0.0
H629 H 1.01685 0.41794 0.02828 0.0
S630 S 0.05784 0.63994 0.991 0.0
N631 N 0.03401 0.63155 0.981 0.0
N632 N 0.0624 0.57786 0.00954 0.0
C633 C 0.04415 0.54681 0.00825 0.0
C634 C 0.02865 0.57621 0.99275 0.0
C635 C 0.27322 0.71645 0.99477 0.0
C636 C 0.29242 0.74579 0.99109 0.0
C637 C 0.25795 0.74456 0.01007 0.0
C638 C 0.26105 0.80361 0.0224 0.0
H639 H 0.2698 0.67146 0.98555 0.0
H640 H 0.24365 0.71904 0.01251 0.0
S641 S 0.30838 0.90164 0.01856 0.0
N642 N 0.31348 0.83848 1.00087 0.0
N643 N 0.28488 0.89096 0.02944 0.0
C644 C 0.28011 0.83385 0.01872 0.0
C645 C 0.29573 0.80507 1.00321 0.0
C646 C 0.04234 0.73913 0.25145 0.0
C647 C 0.03878 0.79577 0.2376 0.0
C648 C 0.02707 0.71127 0.26683 0.0
C649 C 1.00744 0.73862 0.26918 0.0
H650 H 0.05702 0.71527 0.25018 0.0
H651 H 0.03087 0.66836 0.27731 0.0
S652 S 0.98991 0.88657 0.23669 0.0
N653 N 1.01385 0.87782 0.22712 0.0
N654 N 0.98528 0.82592 0.25595 0.0
C655 C 1.00359 0.79512 0.25531 0.0
C656 C 1.01918 0.82353 0.23964 0.0
C657 C 0.25537 0.53909 0.25452 0.0
C658 C 0.25866 0.48274 0.24038 0.0
C659 C 0.27103 0.56704 0.26923 0.0
C660 C 0.29078 0.54015 0.27052 0.0
H661 H 0.24063 0.56274 0.25394 0.0
H662 H 0.26747 0.60983 0.27993 0.0
S663 S 0.30748 0.39203 0.23744 0.0
N664 N 0.2833 0.40073 0.22887 0.0
N665 N 0.31262 0.45284 0.25641 0.0
C666 C 0.2943 0.48366 0.2565 0.0
C667 C 0.27831 0.4551 0.24155 0.0
C668 C 0.79192 0.28982 1.00437 0.0
C669 C 0.78824 0.23397 0.99006 0.0
C670 C 0.77672 0.31705 0.02003 0.0
C671 C 0.75704 0.28987 0.02218 0.0
H672 H 0.80664 0.31355 1.00325 0.0
H673 H 0.7806 0.35941 0.03083 0.0
S674 S 0.73931 0.14338 0.98879 0.0
N675 N 0.76322 0.15245 0.97916 0.0
N676 N 0.73478 0.20322 0.00848 0.0
C677 C 0.75312 0.23397 0.00797 0.0
C678 C 0.76864 0.20614 0.99203 0.0
C679 C 0.02712 0.21514 0.76934 0.0
C680 C 1.00745 0.24214 0.77174 0.0
C681 C 0.04232 0.24332 0.75394 0.0
C682 C 0.03863 0.3 0.74017 0.0
H683 H 0.031 0.17216 0.77974 0.0
H684 H 0.05703 0.2197 0.7526 0.0
S685 S 0.98972 0.39058 0.73977 0.0
N686 N 0.98519 0.32956 0.75887 0.0
N687 N 1.01363 0.38212 0.73005 0.0
C688 C 1.01904 0.32768 0.7424 0.0
C689 C 1.00352 0.29887 0.75806 0.0
C690 C 0.75699 0.5417 0.75175 0.0
C691 C 0.76009 0.48225 0.73973 0.0
C692 C 0.77207 0.56961 0.76739 0.0
C693 C 0.79106 0.5396 0.77178 0.0
H694 H 0.74288 0.5678 0.74873 0.0
H695 H 0.76869 0.61503 0.77627 0.0
S696 S 0.80678 0.38214 0.74561 0.0
N697 N 0.7836 0.39361 0.73388 0.0
N698 N 0.81183 0.4456 0.76317 0.0
C699 C 0.79432 0.47978 0.76006 0.0
C700 C 0.77891 0.45128 0.74416 0.0
C701 C 1.00664 0.99072 0.50304 0.0
C702 C 1.00968 0.04896 0.49008 0.0
C703 C 1.02214 0.96288 0.51803 0.0
C704 C 0.04151 0.99179 0.52081 0.0
H705 H 0.99222 0.96552 0.50129 0.0
H706 H 1.01877 0.91852 0.52775 0.0
S707 S 0.05741 0.14543 0.49133 0.0
N708 N 0.03365 0.13496 0.48135 0.0
N709 N 0.06268 0.08312 0.50943 0.0
C710 C 0.04477 0.05021 0.50801 0.0
C711 C 0.02893 0.07863 0.49276 0.0
C712 C 0.27014 0.20913 0.49317 0.0
C713 C 0.28976 0.2364 0.49046 0.0
C714 C 0.25497 0.23758 0.50853 0.0
C715 C 0.25864 0.29481 0.52195 0.0
H716 H 0.26628 0.16575 0.48303 0.0
H717 H 0.2403 0.21375 0.51012 0.0
S718 S 0.30749 0.38582 0.5217 0.0
N719 N 0.312 0.32434 0.50283 0.0
N720 N 0.28362 0.37741 0.53157 0.0
C721 C 0.27821 0.32257 0.5195 0.0
C722 C 0.29369 0.29351 0.50388 0.0
C723 C 0.27793 0.96386 0.74387 0.0
C724 C 0.25859 0.99245 0.74035 0.0
C725 C 0.29292 0.9914 0.75977 0.0
C726 C 0.28936 0.04902 0.77297 0.0
H727 H 0.28171 0.92007 0.73397 0.0
H728 H 0.30736 0.96657 0.76196 0.0
S729 S 0.24133 0.14385 0.77043 0.0
N730 N 0.2368 0.0824 0.75155 0.0
N731 N 0.26484 0.13373 0.78132 0.0
C732 C 0.27011 0.07827 0.76962 0.0
C733 C 0.2548 0.05013 0.75344 0.0
C734 C 0.79242 0.7912 0.50245 0.0
C735 C 0.78898 0.73376 0.48909 0.0
C736 C 0.77726 0.81865 0.51809 0.0
C737 C 0.75787 0.79012 0.52117 0.0
H738 H 0.80687 0.81611 0.50051 0.0
H739 H 0.78092 0.86243 0.52807 0.0
S740 S 0.74106 0.63823 0.49105 0.0
N741 N 0.76465 0.64866 0.48044 0.0
N742 N 0.73628 0.69978 0.50977 0.0
C743 C 0.75424 0.73235 0.50806 0.0
C744 C 0.76972 0.70432 0.49214 0.0
C745 C 0.75628 0.04384 0.25331 0.0
C746 C 0.75916 0.98369 0.24177 0.0
C747 C 0.77161 0.07251 0.26833 0.0
C748 C 0.79064 0.0426 0.27256 0.0
H749 H 0.74214 0.06984 0.25039 0.0
H750 H 0.76837 0.11838 0.27693 0.0
S751 S 0.80598 0.88398 0.24717 0.0
N752 N 0.78259 0.89486 0.23596 0.0
N753 N 0.8113 0.94827 0.2641 0.0
C754 C 0.79374 0.98229 0.26118 0.0
C755 C 0.77807 0.95302 0.2459 0.0
C756 C 0.50704 0.49175 0.50272 0.0
C757 C 0.51026 0.54865 0.4889 0.0
C758 C 0.52267 0.46379 0.51747 0.0
C759 C 0.54235 0.49115 0.51907 0.0
H760 H 0.49236 0.46771 0.50187 0.0
H761 H 0.51917 0.42056 0.52792 0.0
S762 S 0.55887 0.64073 0.48689 0.0
N763 N 0.53477 0.63167 0.47806 0.0
N764 N 0.56404 0.57948 0.5056 0.0
C765 C 0.54581 0.54816 0.50536 0.0
C766 C 0.52983 0.57678 0.49041 0.0
C767 C 0.52122 0.8202 0.74211 0.0
C768 C 0.54074 0.7925 0.7391 0.0
C769 C 0.50605 0.79163 0.75742 0.0
C770 C 0.5096 0.73388 0.77052 0.0
H771 H 0.51743 0.86399 0.73222 0.0
H772 H 0.49145 0.81578 0.75923 0.0
S773 S 0.55818 0.64164 0.76944 0.0
N774 N 0.56278 0.7036 0.75085 0.0
N775 N 0.53438 0.65035 0.77955 0.0
C776 C 0.52908 0.70571 0.76779 0.0
C777 C 0.54458 0.73487 0.7522 0.0
C778 C 0.5267 0.20999 0.26992 0.0
C779 C 0.50711 0.23727 0.27284 0.0
C780 C 0.54166 0.23789 0.25408 0.0
C781 C 0.53782 0.29455 0.24036 0.0
H782 H 0.53071 0.16704 0.28026 0.0
H783 H 0.55633 0.21412 0.25239 0.0
S784 S 0.48898 0.38554 0.24112 0.0
N785 N 0.48472 0.32475 0.26044 0.0
N786 N 0.51271 0.37679 0.23079 0.0
C787 C 0.51829 0.32242 0.24308 0.0
C788 C 0.50301 0.29391 0.25919 0.0
C789 C 0.50757 0.99032 1.00215 0.0
C790 C 0.51068 0.04935 0.9898 0.0
C791 C 0.5228 0.9623 0.01753 0.0
C792 C 0.54197 0.99175 0.0213 0.0
H793 H 0.4933 0.96467 0.99963 0.0
H794 H 0.51939 0.91728 0.02672 0.0
S795 S 0.55789 0.14781 0.99395 0.0
N796 N 0.53446 0.1369 0.98291 0.0
N797 N 0.56298 0.08468 0.01167 0.0
C798 C 0.54528 0.05108 0.0092 0.0
C799 C 0.5297 0.07973 0.99358 0.0
C800 C 0.16339 0.40758 0.11636 0.0
C801 C 0.16775 0.40515 0.14282 0.0
C802 C 0.14317 0.40592 0.10701 0.0
C803 C 0.12628 0.40117 0.12366 0.0
H804 H 0.17573 0.41165 0.10258 0.0
H805 H 0.14079 0.40856 0.08655 0.0
S806 S 0.12915 0.39231 0.19473 0.0
N807 N 0.15328 0.39714 0.18551 0.0
N808 N 0.11546 0.39356 0.16821 0.0
C809 C 0.13043 0.39795 0.1502 0.0
C810 C 0.15104 0.40007 0.1597 0.0
C811 C 0.14418 0.88645 0.15391 0.0
C812 C 0.12774 0.87491 0.13715 0.0
C813 C 0.16449 0.88986 0.145 0.0
C814 C 0.16947 0.88129 0.11889 0.0
H815 H 0.14136 0.8931 0.17414 0.0
H816 H 0.17645 0.89864 0.15893 0.0
S817 S 0.13214 0.84871 0.06693 0.0
N818 N 0.11791 0.85448 0.09293 0.0
N819 N 0.15598 0.86038 0.07641 0.0
C820 C 0.15317 0.86972 0.10188 0.0
C821 C 0.13242 0.86669 0.11093 0.0
C822 C 0.89408 0.63122 0.8568 0.0
C823 C 0.87721 0.63082 0.87355 0.0
C824 C 0.91434 0.63117 0.86606 0.0
C825 C 0.91876 0.63014 0.89252 0.0
H826 H 0.89168 0.63154 0.83632 0.0
H827 H 0.92667 0.6312 0.85217 0.0
S828 S 0.88016 0.62846 0.94469 0.0
N829 N 0.86641 0.62944 0.91821 0.0
N830 N 0.90432 0.62891 0.93534 0.0
C831 C 0.90204 0.62989 0.90951 0.0
C832 C 0.88138 0.63036 0.90011 0.0
C833 C 0.91415 0.15341 0.89701 0.0
C834 C 0.9188 0.15587 0.87062 0.0
C835 C 0.89382 0.15469 0.90603 0.0
C836 C 0.8771 0.1579 0.8891 0.0
H837 H 0.92634 0.15123 0.91104 0.0
H838 H 0.89124 0.15315 0.92647 0.0
S839 S 0.88068 0.16482 0.81805 0.0
N840 N 0.90474 0.16143 0.82766 0.0
N841 N 0.86671 0.16337 0.84435 0.0
C842 C 0.8815 0.1598 0.8626 0.0
C843 C 0.90224 0.15893 0.85344 0.0
C844 C 0.15554 0.90228 0.65464 0.0
C845 C 0.17233 0.90575 0.63781 0.0
C846 C 0.13524 0.9017 0.6455 0.0
C847 C 0.13069 0.90522 0.61909 0.0
H848 H 0.15807 0.89967 0.67508 0.0
H849 H 0.12298 0.89903 0.65944 0.0
S850 S 0.16906 0.91685 0.56684 0.0
N851 N 0.18291 0.91373 0.5932 0.0
N852 N 0.14495 0.91305 0.57628 0.0
C853 C 0.14734 0.909 0.60204 0.0
C854 C 0.16803 0.90915 0.61132 0.0
C855 C 0.13368 0.38194 0.6159 0.0
C856 C 0.12923 0.37785 0.64231 0.0
C857 C 0.15391 0.3806 0.6066 0.0
C858 C 0.17076 0.37564 0.62326 0.0
H859 H 0.12138 0.38547 0.60204 0.0
H860 H 0.15631 0.38341 0.58615 0.0
S861 S 0.16777 0.36398 0.69423 0.0
N862 N 0.14363 0.36888 0.685 0.0
N863 N 0.18153 0.3668 0.66777 0.0
C864 C 0.16658 0.37217 0.64978 0.0
C865 C 0.14593 0.37314 0.65923 0.0
C866 C 0.89415 0.13088 0.35701 0.0
C867 C 0.87729 0.13275 0.37378 0.0
C868 C 0.91441 0.12943 0.36622 0.0
C869 C 0.91886 0.12923 0.39268 0.0
H870 H 0.89172 0.13034 0.33653 0.0
H871 H 0.9267 0.12765 0.35231 0.0
S872 S 0.88035 0.13395 0.44492 0.0
N873 N 0.86657 0.1348 0.41847 0.0
N874 N 0.90449 0.13162 0.43553 0.0
C875 C 0.90217 0.13142 0.4097 0.0
C876 C 0.88151 0.13332 0.40034 0.0
C877 C 0.90344 0.65612 0.354 0.0
C878 C 0.92022 0.65412 0.37087 0.0
C879 C 0.88313 0.65752 0.36313 0.0
C880 C 0.87859 0.65765 0.38958 0.0
H881 H 0.90596 0.65656 0.33354 0.0
H882 H 0.87088 0.65922 0.34917 0.0
S883 S 0.91691 0.6535 0.442 0.0
N884 N 0.93078 0.65254 0.41561 0.0
N885 N 0.89282 0.65563 0.43249 0.0
C886 C 0.89522 0.65567 0.40667 0.0
C887 C 0.91591 0.65377 0.39741 0.0
C888 C 0.63554 0.40836 0.64446 0.0
C889 C 0.63126 0.40552 0.61798 0.0
C890 C 0.65575 0.40772 0.65389 0.0
C891 C 0.6727 0.40369 0.63732 0.0
H892 H 0.62315 0.41202 0.65818 0.0
H893 H 0.65806 0.41072 0.67435 0.0
S894 S 0.67004 0.39347 0.56625 0.0
N895 N 0.64586 0.39747 0.57538 0.0
N896 N 0.68366 0.39578 0.59281 0.0
C897 C 0.66863 0.3999 0.61077 0.0
C898 C 0.64804 0.40096 0.60119 0.0
C899 C 0.63449 0.88516 0.61473 0.0
C900 C 0.62965 0.88109 0.64103 0.0
C901 C 0.65485 0.88353 0.6059 0.0
C902 C 0.67144 0.87841 0.62295 0.0
H903 H 0.62241 0.88889 0.60059 0.0
H904 H 0.65756 0.8864 0.58551 0.0
S905 S 0.66738 0.8666 0.69383 0.0
N906 N 0.64339 0.87179 0.68405 0.0
N907 N 0.68154 0.86927 0.66769 0.0
C908 C 0.66687 0.87484 0.64937 0.0
C909 C 0.64608 0.876 0.65833 0.0
C910 C 0.40413 0.62504 0.40522 0.0
C911 C 0.42115 0.62576 0.38868 0.0
C912 C 0.38396 0.6252 0.39571 0.0
C913 C 0.37976 0.62567 0.3692 0.0
H914 H 0.40636 0.62388 0.42573 0.0
H915 H 0.37152 0.624 0.40944 0.0
S916 S 0.41876 0.62913 0.31751 0.0
N917 N 0.4323 0.62831 0.34416 0.0
N918 N 0.39453 0.62817 0.32656 0.0
C919 C 0.39661 0.62713 0.35242 0.0
C920 C 0.41719 0.62731 0.36207 0.0
C921 C 0.40427 0.14726 0.35761 0.0
C922 C 0.42078 0.14967 0.37487 0.0
C923 C 0.38384 0.14642 0.36624 0.0
C924 C 0.37887 0.14867 0.39254 0.0
H925 H 0.4071 0.14579 0.33722 0.0
H926 H 0.37182 0.1447 0.35197 0.0
S927 S 0.41636 0.1563 0.44583 0.0
N928 N 0.43066 0.15464 0.4198 0.0
N929 N 0.3924 0.15362 0.43577 0.0
C930 C 0.39522 0.15125 0.41004 0.0
C931 C 0.41607 0.15156 0.40128 0.0
C932 C 0.66511 0.89917 0.11684 0.0
C933 C 0.6693 0.90177 0.14335 0.0
C934 C 0.64495 0.89946 0.10729 0.0
C935 C 0.62792 0.90178 0.12377 0.0
H936 H 0.67755 0.89762 0.10313 0.0
H937 H 0.64273 0.89787 0.08678 0.0
S938 S 0.63023 0.90879 0.19489 0.0
N939 N 0.65447 0.90658 0.18592 0.0
N940 N 0.61672 0.90666 0.16822 0.0
C941 C 0.63185 0.90381 0.15037 0.0
C942 C 0.65242 0.90395 0.16008 0.0
C943 C 0.65333 0.3762 0.1071 0.0
C944 C 0.66999 0.3732 0.12412 0.0
C945 C 0.63297 0.37646 0.116 0.0
C946 C 0.62821 0.3731 0.14235 0.0
H947 H 0.65599 0.37851 0.08668 0.0
H948 H 0.62083 0.37867 0.1019 0.0
S949 S 0.66617 0.36349 0.19509 0.0
N950 N 0.68024 0.36641 0.16888 0.0
N951 N 0.64213 0.36645 0.18536 0.0
C952 C 0.64472 0.37001 0.15961 0.0
C953 C 0.66549 0.3702 0.15058 0.0
C954 C 0.41505 0.13104 0.86578 0.0
C955 C 0.41988 0.12702 0.8921 0.0
C956 C 0.39466 0.13018 0.85694 0.0
C957 C 0.37805 0.1259 0.874 0.0
H958 H 0.42715 0.13432 0.85165 0.0
H959 H 0.39194 0.13317 0.83655 0.0
S960 S 0.38206 0.11354 0.94489 0.0
N961 N 0.40607 0.11801 0.9351 0.0
N962 N 0.36793 0.11684 0.91875 0.0
C963 C 0.38262 0.12205 0.90042 0.0
C964 C 0.40341 0.12247 0.90938 0.0
C965 C 0.41556 0.65279 0.89564 0.0
C966 C 0.41972 0.65371 0.86912 0.0
C967 C 0.3954 0.65353 0.90522 0.0
C968 C 0.37835 0.6547 0.88874 0.0
H969 H 0.42801 0.65231 0.90934 0.0
H970 H 0.3932 0.65334 0.92574 0.0
S971 S 0.38062 0.65656 0.81756 0.0
N972 N 0.40487 0.65529 0.82652 0.0
N973 N 0.36713 0.65623 0.84426 0.0
C974 C 0.38227 0.65487 0.86212 0.0
C975 C 0.40284 0.65452 0.85239 0.0
C976 C 0.04532 0.0916 0.11199 0.0
C977 C 0.04639 0.06283 0.13632 0.0
C978 C 0.04519 0.15813 0.10914 0.0
C979 C 0.04605 0.19891 0.13048 0.0
H980 H 0.04543 0.06263 0.09485 0.0
H981 H 0.04518 0.17758 0.08995 0.0
S982 S 0.04662 0.14795 0.19859 0.0
N983 N 0.04656 0.0806 0.18228 0.0
N984 N 0.04621 0.20531 0.17699 0.0
C985 C 0.04592 0.1708 0.15499 0.0
C986 C 0.04611 0.10296 0.15789 0.0
C987 C 0.25112 0.12628 0.11201 0.0
C988 C 0.24967 0.08522 0.13322 0.0
C989 C 0.25104 0.19278 0.11501 0.0
C990 C 0.24949 0.22122 0.13935 0.0
H991 H 0.25149 0.1071 0.09278 0.0
H992 H 0.25135 0.222 0.09794 0.0
S993 S 0.24783 0.13519 0.2014 0.0
N994 N 0.24856 0.07814 0.17969 0.0
N995 N 0.24836 0.20277 0.18526 0.0
C996 C 0.24926 0.18077 0.16084 0.0
C997 C 0.24936 0.11296 0.15779 0.0
C998 C 1.00011 0.85123 0.86313 0.0
C999 C 0.99972 0.82247 0.88749 0.0
C1000 C 1.00006 0.91775 0.86026 0.0
C1001 C 0.99964 0.95856 0.88162 0.0
H1002 H 0.99963 0.82224 0.84601 0.0
H1003 H 0.99953 0.93715 0.84108 0.0
S1004 S 1.00102 0.90771 0.94971 0.0
N1005 N 1.00076 0.84033 0.93344 0.0
N1006 N 1.00073 0.96505 0.92811 0.0
C1007 C 1.00047 0.9305 0.90612 0.0
C1008 C 1.0005 0.86265 0.90904 0.0
C1009 C 0.79576 0.93645 0.86218 0.0
C1010 C 0.79607 0.96469 0.88664 0.0
C1011 C 0.79588 0.86999 0.85909 0.0
C1012 C 0.79626 0.82873 0.8803 0.0
H1013 H 0.79627 0.9658 0.84515 0.0
H1014 H 0.79646 0.851 0.83984 0.0
S1015 S 0.79475 0.87813 0.94857 0.0
N1016 N 0.79498 0.94586 0.93252 0.0
N1017 N 0.79511 0.82125 0.92677 0.0
C1018 C 0.79536 0.85626 0.9049 0.0
C1019 C 0.79529 0.92405 0.90804 0.0
C1020 C 0.04911 0.66895 0.6082 0.0
C1021 C 0.04933 0.71007 0.62947 0.0
C1022 C 0.04881 0.60247 0.61123 0.0
C1023 C 0.04874 0.57406 0.63566 0.0
H1024 H 0.04998 0.68803 0.58899 0.0
H1025 H 0.04946 0.57322 0.59418 0.0
S1026 S 0.04679 0.66029 0.69763 0.0
N1027 N 0.04758 0.7173 0.6759 0.0
N1028 N 0.04708 0.59266 0.68153 0.0
C1029 C 0.04776 0.61459 0.65708 0.0
C1030 C 0.04804 0.68241 0.65401 0.0
C1031 C 0.25315 0.59599 0.64767 0.0
C1032 C 0.25186 0.56759 0.62329 0.0
C1033 C 0.2533 0.66249 0.65069 0.0
C1034 C 0.25223 0.70363 0.62947 0.0
H1035 H 0.25323 0.56675 0.66474 0.0
H1036 H 0.25351 0.68163 0.66992 0.0
S1037 S 0.25092 0.65374 0.56125 0.0
N1038 N 0.25118 0.58613 0.57738 0.0
N1039 N 0.25155 0.71076 0.58298 0.0
C1040 C 0.2521 0.6759 0.60488 0.0
C1041 C 0.25188 0.60809 0.60182 0.0
C1042 C 1.00132 0.41022 0.35861 0.0
C1043 C 1.00078 0.45185 0.37971 0.0
C1044 C 1.00122 0.34379 0.36189 0.0
C1045 C 1.00055 0.31597 0.38642 0.0
H1046 H 1.001 0.42891 0.3393 0.0
H1047 H 1.00083 0.31415 0.34494 0.0
S1048 S 1.00139 0.40357 0.44812 0.0
N1049 N 1.00142 0.46007 0.42616 0.0
N1050 N 1.00118 0.33559 0.43226 0.0
C1051 C 1.00121 0.35697 0.40772 0.0
C1052 C 1.00133 0.4247 0.40438 0.0
C1053 C 0.79691 0.36188 0.3997 0.0
C1054 C 0.79676 0.33282 0.37539 0.0
C1055 C 0.79703 0.42842 0.40242 0.0
C1056 C 0.79696 0.46894 0.38097 0.0
H1057 H 0.79779 0.33312 0.41686 0.0
H1058 H 0.79801 0.44806 0.42154 0.0
S1059 S 0.79397 0.41723 0.31307 0.0
N1060 N 0.79463 0.35006 0.32947 0.0
N1061 N 0.79477 0.47485 0.33453 0.0
C1062 C 0.79555 0.44059 0.35657 0.0
C1063 C 0.79548 0.3727 0.3538 0.0
C1064 C 0.54812 0.12322 0.64847 0.0
C1065 C 0.54947 0.08224 0.62722 0.0
C1066 C 0.54825 0.18973 0.64551 0.0
C1067 C 0.54975 0.21828 0.62118 0.0
H1068 H 0.54778 0.10396 0.66768 0.0
H1069 H 0.54799 0.21886 0.6626 0.0
S1070 S 0.55121 0.13252 0.55907 0.0
N1071 N 0.55048 0.07537 0.58074 0.0
N1072 N 0.55078 0.20002 0.57525 0.0
C1073 C 0.5499 0.17792 0.59966 0.0
C1074 C 0.54975 0.1101 0.60267 0.0
C1075 C 0.75367 0.16662 0.6526 0.0
C1076 C 0.75351 0.20767 0.63131 0.0
C1077 C 0.75341 0.10014 0.64961 0.0
C1078 C 0.75292 0.07167 0.6252 0.0
H1079 H 0.75318 0.18584 0.67181 0.0
H1080 H 0.75275 0.07099 0.66669 0.0
S1081 S 0.75474 0.1575 0.56313 0.0
N1082 N 0.7547 0.2146 0.58483 0.0
N1083 N 0.75413 0.08996 0.57929 0.0
C1084 C 0.75394 0.11204 0.60373 0.0
C1085 C 0.75426 0.17984 0.60676 0.0
C1086 C 0.50198 0.85591 0.40611 0.0
C1087 C 0.50246 0.81508 0.38476 0.0
C1088 C 0.50179 0.9224 0.40322 0.0
C1089 C 0.50199 0.95111 0.37885 0.0
H1090 H 0.50095 0.8365 0.42526 0.0
H1091 H 0.50063 0.95135 0.4203 0.0
S1092 S 0.50562 0.86593 0.31676 0.0
N1093 N 0.50499 0.8086 0.33836 0.0
N1094 N 0.50452 0.9333 0.33299 0.0
C1095 C 0.50365 0.91098 0.35737 0.0
C1096 C 0.50391 0.84314 0.36031 0.0
C1097 C 0.29722 0.84257 0.39728 0.0
C1098 C 0.29832 0.81404 0.37291 0.0
C1099 C 0.29719 0.90907 0.40024 0.0
C1100 C 0.29824 0.95005 0.37897 0.0
H1101 H 0.29721 0.81342 0.41437 0.0
H1102 H 0.29718 0.92831 0.41946 0.0
S1103 S 0.29882 0.89983 0.31078 0.0
N1104 N 0.2986 0.83231 0.32697 0.0
N1105 N 0.29849 0.95697 0.33247 0.0
C1106 C 0.2981 0.92222 0.35441 0.0
C1107 C 0.29815 0.85441 0.3514 0.0
C1108 C 0.54666 0.6098 0.15155 0.0
C1109 C 0.54739 0.56867 0.1303 0.0
C1110 C 0.54661 0.67628 0.14852 0.0
C1111 C 0.54732 0.70469 0.1241 0.0
H1112 H 0.54693 0.59068 0.17079 0.0
H1113 H 0.54683 0.70553 0.16558 0.0
S1114 S 0.54698 0.61851 0.06207 0.0
N1115 N 0.54699 0.56149 0.08382 0.0
N1116 N 0.54697 0.68613 0.07819 0.0
C1117 C 0.54689 0.66418 0.10264 0.0
C1118 C 0.5469 0.59637 0.10572 0.0
C1119 C 0.75063 0.60049 0.15203 0.0
C1120 C 0.75055 0.57219 0.12758 0.0
C1121 C 0.75053 0.66696 0.15511 0.0
C1122 C 0.7504 0.7082 0.13388 0.0
H1123 H 0.74994 0.57117 0.16906 0.0
H1124 H 0.74977 0.68597 0.17434 0.0
S1125 S 0.75259 0.65867 0.06566 0.0
N1126 N 0.75213 0.59097 0.08172 0.0
N1127 N 0.75204 0.71559 0.08744 0.0
C1128 C 0.75153 0.68061 0.10931 0.0
C1129 C 0.75158 0.6128 0.10618 0.0
C1130 C 0.50137 0.36563 0.90095 0.0
C1131 C 0.50068 0.32455 0.87968 0.0
C1132 C 0.5014 0.43213 0.89794 0.0
C1133 C 0.50072 0.46058 0.87353 0.0
H1134 H 0.50107 0.34647 0.92018 0.0
H1135 H 0.50113 0.46133 0.91502 0.0
S1136 S 0.50123 0.37454 0.81147 0.0
N1137 N 0.50119 0.31748 0.8332 0.0
N1138 N 0.50119 0.44213 0.82761 0.0
C1139 C 0.50123 0.42012 0.85206 0.0
C1140 C 0.50122 0.3523 0.85512 0.0
C1141 C 0.29648 0.36563 0.86138 0.0
C1142 C 0.29753 0.32446 0.88259 0.0
C1143 C 0.29646 0.43211 0.86444 0.0
C1144 C 0.29756 0.46046 0.88884 0.0
H1145 H 0.29642 0.34655 0.84213 0.0
H1146 H 0.2964 0.4614 0.84738 0.0
S1147 S 0.29837 0.37414 0.95084 0.0
N1148 N 0.29798 0.31719 0.92908 0.0
N1149 N 0.29804 0.4418 0.93475 0.0
C1150 C 0.29751 0.4199 0.91029 0.0
C1151 C 0.29747 0.3521 0.90719 0.0
loop_
_geom_bond_atom_site_label_1
_geom_bond_atom_site_label_2
_geom_bond_distance
_geom_bond_site_symmetry_2
_ccdc_geom_bond_type
O0 Cd1 2.223 . S
O0 C8 1.315 . S
Cd1 O0 2.223 . S
Cd1 O4 2.297 . S
Cd1 O5 2.439 . S
Cd1 O11 2.240 . S
Cd2 O3 2.240 . S
Cd2 O10 2.223 . S
Cd2 O12 2.297 . S
Cd2 O13 2.439 . S
O3 Cd2 2.240 . S
O3 C8 1.279 . S
O4 Cd1 2.297 . S
O4 C6 1.247 . S
O5 Cd1 2.439 . S
O5 C6 1.208 . S
C6 O4 1.247 . S
C6 O5 1.208 . S
C7 O12 1.247 . S
C7 O13 1.208 . S
C8 O0 1.315 . S
C8 O3 1.279 . S
C9 O10 1.315 . S
C9 O11 1.279 . S
O10 Cd2 2.223 . S
O10 C9 1.315 . S
O11 Cd1 2.240 . S
O11 C9 1.279 . S
O12 Cd2 2.297 . S
O12 C7 1.247 . S
O13 Cd2 2.439 . S
O13 C7 1.208 . S
O14 Cd15 2.223 . S
O14 C22 1.315 . S
Cd15 O14 2.223 . S
Cd15 O18 2.297 . S
Cd15 O19 2.439 . S
Cd15 O25 2.240 . S
Cd16 O17 2.240 . S
Cd16 O24 2.223 . S
Cd16 O26 2.297 . S
Cd16 O27 2.439 . S
O17 Cd16 2.240 . S
O17 C22 1.279 . S
O18 Cd15 2.297 . S
O18 C20 1.247 . S
O19 Cd15 2.439 . S
O19 C20 1.208 . S
C20 O18 1.247 . S
C20 O19 1.208 . S
C21 O26 1.247 . S
C21 O27 1.208 . S
C22 O14 1.315 . S
C22 O17 1.279 . S
C23 O24 1.315 . S
C23 O25 1.279 . S
O24 Cd16 2.223 . S
O24 C23 1.315 . S
O25 Cd15 2.240 . S
O25 C23 1.279 . S
O26 Cd16 2.297 . S
O26 C21 1.247 . S
O27 Cd16 2.439 . S
O27 C21 1.208 . S
O28 Cd29 2.223 . S
O28 C36 1.315 . S
Cd29 O28 2.223 . S
Cd29 O32 2.297 . S
Cd29 O33 2.439 . S
Cd29 O39 2.240 . S
Cd30 O31 2.240 . S
Cd30 O38 2.223 . S
Cd30 O40 2.297 . S
Cd30 O41 2.439 . S
O31 Cd30 2.240 . S
O31 C36 1.279 . S
O32 Cd29 2.297 . S
O32 C34 1.247 . S
O33 Cd29 2.439 . S
O33 C34 1.208 . S
C34 O32 1.247 . S
C34 O33 1.208 . S
C35 O40 1.247 . S
C35 O41 1.208 . S
C36 O28 1.315 . S
C36 O31 1.279 . S
C37 O38 1.315 . S
C37 O39 1.279 . S
O38 Cd30 2.223 . S
O38 C37 1.315 . S
O39 Cd29 2.240 . S
O39 C37 1.279 . S
O40 Cd30 2.297 . S
O40 C35 1.247 . S
O41 Cd30 2.439 . S
O41 C35 1.208 . S
O42 Cd43 2.223 . S
O42 C50 1.315 . S
Cd43 O42 2.223 . S
Cd43 O46 2.297 . S
Cd43 O47 2.439 . S
Cd43 O53 2.240 . S
Cd44 O45 2.240 . S
Cd44 O52 2.223 . S
Cd44 O54 2.297 . S
Cd44 O55 2.439 . S
O45 Cd44 2.240 . S
O45 C50 1.279 . S
O46 Cd43 2.297 . S
O46 C48 1.247 . S
O47 Cd43 2.439 . S
O47 C48 1.208 . S
C48 O46 1.247 . S
C48 O47 1.208 . S
C49 O54 1.247 . S
C49 O55 1.208 . S
C50 O42 1.315 . S
C50 O45 1.279 . S
C51 O52 1.315 . S
C51 O53 1.279 . S
O52 Cd44 2.223 . S
O52 C51 1.315 . S
O53 Cd43 2.240 . S
O53 C51 1.279 . S
O54 Cd44 2.297 . S
O54 C49 1.247 . S
O55 Cd44 2.439 . S
O55 C49 1.208 . S
O56 Cd57 2.223 . S
O56 C64 1.315 . S
Cd57 O56 2.223 . S
Cd57 O60 2.297 . S
Cd57 O61 2.439 . S
Cd57 O67 2.240 . S
Cd58 O59 2.240 . S
Cd58 O66 2.223 . S
Cd58 O68 2.297 . S
Cd58 O69 2.439 . S
O59 Cd58 2.240 . S
O59 C64 1.279 . S
O60 Cd57 2.297 . S
O60 C62 1.247 . S
O61 Cd57 2.439 . S
O61 C62 1.208 . S
C62 O60 1.247 . S
C62 O61 1.208 . S
C63 O68 1.247 . S
C63 O69 1.208 . S
C64 O56 1.315 . S
C64 O59 1.279 . S
C65 O66 1.315 . S
C65 O67 1.279 . S
O66 Cd58 2.223 . S
O66 C65 1.315 . S
O67 Cd57 2.240 . S
O67 C65 1.279 . S
O68 Cd58 2.297 . S
O68 C63 1.247 . S
O69 Cd58 2.439 . S
O69 C63 1.208 . S
O70 Cd71 2.223 . S
O70 C78 1.315 . S
Cd71 O70 2.223 . S
Cd71 O74 2.297 . S
Cd71 O75 2.439 . S
Cd71 O81 2.240 . S
Cd72 O73 2.240 . S
Cd72 O80 2.223 . S
Cd72 O82 2.297 . S
Cd72 O83 2.439 . S
O73 Cd72 2.240 . S
O73 C78 1.279 . S
O74 Cd71 2.297 . S
O74 C76 1.247 . S
O75 Cd71 2.439 . S
O75 C76 1.208 . S
C76 O74 1.247 . S
C76 O75 1.208 . S
C77 O82 1.247 . S
C77 O83 1.208 . S
C78 O70 1.315 . S
C78 O73 1.279 . S
C79 O80 1.315 . S
C79 O81 1.279 . S
O80 Cd72 2.223 . S
O80 C79 1.315 . S
O81 Cd71 2.240 . S
O81 C79 1.279 . S
O82 Cd72 2.297 . S
O82 C77 1.247 . S
O83 Cd72 2.439 . S
O83 C77 1.208 . S
O84 Cd85 2.223 . S
O84 C92 1.315 . S
Cd85 O84 2.223 . S
Cd85 O88 2.297 . S
Cd85 O89 2.439 . S
Cd85 O95 2.240 . S
Cd86 O87 2.240 . S
Cd86 O94 2.223 . S
Cd86 O96 2.297 . S
Cd86 O97 2.439 . S
O87 Cd86 2.240 . S
O87 C92 1.279 . S
O88 Cd85 2.297 . S
O88 C90 1.247 . S
O89 Cd85 2.439 . S
O89 C90 1.208 . S
C90 O88 1.247 . S
C90 O89 1.208 . S
C91 O96 1.247 . S
C91 O97 1.208 . S
C92 O84 1.315 . S
C92 O87 1.279 . S
C93 O94 1.315 . S
C93 O95 1.279 . S
O94 Cd86 2.223 . S
O94 C93 1.315 . S
O95 Cd85 2.240 . S
O95 C93 1.279 . S
O96 Cd86 2.297 . S
O96 C91 1.247 . S
O97 Cd86 2.439 . S
O97 C91 1.208 . S
O98 Cd99 2.223 . S
O98 C106 1.315 . S
Cd99 O98 2.223 . S
Cd99 O102 2.297 . S
Cd99 O103 2.439 . S
Cd99 O109 2.240 . S
Cd100 O101 2.240 . S
Cd100 O108 2.223 . S
Cd100 O110 2.297 . S
Cd100 O111 2.439 . S
O101 Cd100 2.240 . S
O101 C106 1.279 . S
O102 Cd99 2.297 . S
O102 C104 1.247 . S
O103 Cd99 2.439 . S
O103 C104 1.208 . S
C104 O102 1.247 . S
C104 O103 1.208 . S
C105 O110 1.247 . S
C105 O111 1.208 . S
C106 O98 1.315 . S
C106 O101 1.279 . S
C107 O108 1.315 . S
C107 O109 1.279 . S
O108 Cd100 2.223 . S
O108 C107 1.315 . S
O109 Cd99 2.240 . S
O109 C107 1.279 . S
O110 Cd100 2.297 . S
O110 C105 1.247 . S
O111 Cd100 2.439 . S
O111 C105 1.208 . S
O112 Cd113 2.223 1_545 S
O112 C120 1.315 . S
Cd113 O112 2.223 1_565 S
Cd113 O116 2.297 1_565 S
Cd113 O117 2.439 . S
Cd113 O123 2.240 . S
Cd114 O115 2.240 . S
Cd114 O122 2.223 . S
Cd114 O124 2.297 . S
Cd114 O125 2.439 . S
O115 Cd114 2.240 . S
O115 C120 1.279 1_565 S
O116 Cd113 2.297 1_545 S
O116 C118 1.247 1_545 S
O117 Cd113 2.439 . S
O117 C118 1.208 . S
C118 O116 1.247 1_565 S
C118 O117 1.208 . S
C119 O124 1.247 . S
C119 O125 1.208 . S
C120 O112 1.315 . S
C120 O115 1.279 1_545 S
C121 O122 1.315 . S
C121 O123 1.279 . S
O122 Cd114 2.223 . S
O122 C121 1.315 . S
O123 Cd113 2.240 . S
O123 C121 1.279 . S
O124 Cd114 2.297 . S
O124 C119 1.247 . S
O125 Cd114 2.439 . S
O125 C119 1.208 . S
O126 Cd127 2.223 . S
O126 C134 1.315 . S
Cd127 O126 2.223 . S
Cd127 O130 2.297 . S
Cd127 O131 2.439 . S
Cd127 O137 2.240 . S
Cd128 O129 2.240 . S
Cd128 O136 2.223 . S
Cd128 O138 2.297 . S
Cd128 O139 2.439 . S
O129 Cd128 2.240 . S
O129 C134 1.279 . S
O130 Cd127 2.297 . S
O130 C132 1.247 . S
O131 Cd127 2.439 . S
O131 C132 1.208 . S
C132 O130 1.247 . S
C132 O131 1.208 . S
C133 O138 1.247 . S
C133 O139 1.208 . S
C134 O126 1.315 . S
C134 O129 1.279 . S
C135 O136 1.315 . S
C135 O137 1.279 . S
O136 Cd128 2.223 . S
O136 C135 1.315 . S
O137 Cd127 2.240 . S
O137 C135 1.279 . S
O138 Cd128 2.297 . S
O138 C133 1.247 . S
O139 Cd128 2.439 . S
O139 C133 1.208 . S
O140 Cd141 2.223 . S
O140 C148 1.315 . S
Cd141 O140 2.223 . S
Cd141 O144 2.297 . S
Cd141 O145 2.439 . S
Cd141 O151 2.240 . S
Cd142 O143 2.240 . S
Cd142 O150 2.223 . S
Cd142 O152 2.297 . S
Cd142 O153 2.439 . S
O143 Cd142 2.240 . S
O143 C148 1.279 . S
O144 Cd141 2.297 . S
O144 C146 1.247 . S
O145 Cd141 2.439 . S
O145 C146 1.208 . S
C146 O144 1.247 . S
C146 O145 1.208 . S
C147 O152 1.247 . S
C147 O153 1.208 . S
C148 O140 1.315 . S
C148 O143 1.279 . S
C149 O150 1.315 . S
C149 O151 1.279 . S
O150 Cd142 2.223 . S
O150 C149 1.315 . S
O151 Cd141 2.240 . S
O151 C149 1.279 . S
O152 Cd142 2.297 . S
O152 C147 1.247 . S
O153 Cd142 2.439 . S
O153 C147 1.208 . S
O154 Cd155 2.223 1_545 S
O154 C162 1.315 . S
Cd155 O154 2.223 1_565 S
Cd155 O158 2.297 1_565 S
Cd155 O159 2.439 . S
Cd155 O165 2.240 . S
Cd156 O157 2.240 . S
Cd156 O164 2.223 . S
Cd156 O166 2.297 . S
Cd156 O167 2.439 . S
O157 Cd156 2.240 . S
O157 C162 1.279 1_565 S
O158 Cd155 2.297 1_545 S
O158 C160 1.247 1_545 S
O159 Cd155 2.439 . S
O159 C160 1.208 . S
C160 O158 1.247 1_565 S
C160 O159 1.208 . S
C161 O166 1.247 . S
C161 O167 1.208 . S
C162 O154 1.315 . S
C162 O157 1.279 1_545 S
C163 O164 1.315 . S
C163 O165 1.279 . S
O164 Cd156 2.223 . S
O164 C163 1.315 . S
O165 Cd155 2.240 . S
O165 C163 1.279 . S
O166 Cd156 2.297 . S
O166 C161 1.247 . S
O167 Cd156 2.439 . S
O167 C161 1.208 . S
O168 Cd169 2.223 1_565 S
O168 C176 1.315 . S
Cd169 O168 2.223 1_545 S
Cd169 O172 2.297 1_545 S
Cd169 O173 2.439 . S
Cd169 O179 2.240 . S
Cd170 O171 2.240 . S
Cd170 O178 2.223 . S
Cd170 O180 2.297 . S
Cd170 O181 2.439 . S
O171 Cd170 2.240 . S
O171 C176 1.279 1_545 S
O172 Cd169 2.297 1_565 S
O172 C174 1.247 1_565 S
O173 Cd169 2.439 . S
O173 C174 1.208 . S
C174 O172 1.247 1_545 S
C174 O173 1.208 . S
C175 O180 1.247 . S
C175 O181 1.208 . S
C176 O168 1.315 . S
C176 O171 1.279 1_565 S
C177 O178 1.315 . S
C177 O179 1.279 . S
O178 Cd170 2.223 . S
O178 C177 1.315 . S
O179 Cd169 2.240 . S
O179 C177 1.279 . S
O180 Cd170 2.297 . S
O180 C175 1.247 . S
O181 Cd170 2.439 . S
O181 C175 1.208 . S
O182 Cd183 2.223 . S
O182 C190 1.315 . S
Cd183 O182 2.223 . S
Cd183 O186 2.297 . S
Cd183 O187 2.439 . S
Cd183 O193 2.240 . S
Cd184 O185 2.240 . S
Cd184 O192 2.223 . S
Cd184 O194 2.297 . S
Cd184 O195 2.439 . S
O185 Cd184 2.240 . S
O185 C190 1.279 . S
O186 Cd183 2.297 . S
O186 C188 1.247 . S
O187 Cd183 2.439 . S
O187 C188 1.208 . S
C188 O186 1.247 . S
C188 O187 1.208 . S
C189 O194 1.247 . S
C189 O195 1.208 . S
C190 O182 1.315 . S
C190 O185 1.279 . S
C191 O192 1.315 . S
C191 O193 1.279 . S
O192 Cd184 2.223 . S
O192 C191 1.315 . S
O193 Cd183 2.240 . S
O193 C191 1.279 . S
O194 Cd184 2.297 . S
O194 C189 1.247 . S
O195 Cd184 2.439 . S
O195 C189 1.208 . S
O196 Cd197 2.223 . S
O196 C204 1.315 . S
Cd197 O196 2.223 . S
Cd197 O200 2.297 . S
Cd197 O201 2.439 . S
Cd197 O207 2.240 . S
Cd198 O199 2.240 . S
Cd198 O206 2.223 . S
Cd198 O208 2.297 . S
Cd198 O209 2.439 . S
O199 Cd198 2.240 . S
O199 C204 1.279 . S
O200 Cd197 2.297 . S
O200 C202 1.247 . S
O201 Cd197 2.439 . S
O201 C202 1.208 . S
C202 O200 1.247 . S
C202 O201 1.208 . S
C203 O208 1.247 . S
C203 O209 1.208 . S
C204 O196 1.315 . S
C204 O199 1.279 . S
C205 O206 1.315 . S
C205 O207 1.279 . S
O206 Cd198 2.223 . S
O206 C205 1.315 . S
O207 Cd197 2.240 . S
O207 C205 1.279 . S
O208 Cd198 2.297 . S
O208 C203 1.247 . S
O209 Cd198 2.439 . S
O209 C203 1.208 . S
O210 Cd211 2.223 1_565 S
O210 C218 1.315 . S
Cd211 O210 2.223 1_545 S
Cd211 O214 2.297 1_545 S
Cd211 O215 2.439 . S
Cd211 O221 2.240 . S
Cd212 O213 2.240 . S
Cd212 O220 2.223 . S
Cd212 O222 2.297 . S
Cd212 O223 2.439 . S
O213 Cd212 2.240 . S
O213 C218 1.279 1_545 S
O214 Cd211 2.297 1_565 S
O214 C216 1.247 1_565 S
O215 Cd211 2.439 . S
O215 C216 1.208 . S
C216 O214 1.247 1_545 S
C216 O215 1.208 . S
C217 O222 1.247 . S
C217 O223 1.208 . S
C218 O210 1.315 . S
C218 O213 1.279 1_565 S
C219 O220 1.315 . S
C219 O221 1.279 . S
O220 Cd212 2.223 . S
O220 C219 1.315 . S
O221 Cd211 2.240 . S
O221 C219 1.279 . S
O222 Cd212 2.297 . S
O222 C217 1.247 . S
O223 Cd212 2.439 . S
O223 C217 1.208 . S
O224 Cd225 2.223 . S
O224 C232 1.315 . S
Cd225 O224 2.223 . S
Cd225 O228 2.297 . S
Cd225 O229 2.439 . S
Cd225 O235 2.240 . S
Cd226 O227 2.240 . S
Cd226 O234 2.223 . S
Cd226 O236 2.297 . S
Cd226 O237 2.439 . S
O227 Cd226 2.240 . S
O227 C232 1.279 . S
O228 Cd225 2.297 . S
O228 C230 1.247 . S
O229 Cd225 2.439 . S
O229 C230 1.208 . S
C230 O228 1.247 . S
C230 O229 1.208 . S
C231 O236 1.247 . S
C231 O237 1.208 . S
C232 O224 1.315 . S
C232 O227 1.279 . S
C233 O234 1.315 . S
C233 O235 1.279 . S
O234 Cd226 2.223 . S
O234 C233 1.315 . S
O235 Cd225 2.240 . S
O235 C233 1.279 . S
O236 Cd226 2.297 . S
O236 C231 1.247 . S
O237 Cd226 2.439 . S
O237 C231 1.208 . S
O238 Cd239 2.223 . S
O238 C246 1.315 . S
Cd239 O238 2.223 . S
Cd239 O242 2.297 . S
Cd239 O243 2.439 . S
Cd239 O249 2.240 . S
Cd240 O241 2.240 . S
Cd240 O248 2.223 . S
Cd240 O250 2.297 . S
Cd240 O251 2.439 . S
O241 Cd240 2.240 . S
O241 C246 1.279 . S
O242 Cd239 2.297 . S
O242 C244 1.247 . S
O243 Cd239 2.439 . S
O243 C244 1.208 . S
C244 O242 1.247 . S
C244 O243 1.208 . S
C245 O250 1.247 . S
C245 O251 1.208 . S
C246 O238 1.315 . S
C246 O241 1.279 . S
C247 O248 1.315 . S
C247 O249 1.279 . S
O248 Cd240 2.223 . S
O248 C247 1.315 . S
O249 Cd239 2.240 . S
O249 C247 1.279 . S
O250 Cd240 2.297 . S
O250 C245 1.247 . S
O251 Cd240 2.439 . S
O251 C245 1.208 . S
O252 Cd253 2.223 . S
O252 C260 1.315 . S
Cd253 O252 2.223 . S
Cd253 O256 2.297 . S
Cd253 O257 2.439 . S
Cd253 O263 2.240 . S
Cd254 O255 2.240 . S
Cd254 O262 2.223 . S
Cd254 O264 2.297 . S
Cd254 O265 2.439 . S
O255 Cd254 2.240 . S
O255 C260 1.279 . S
O256 Cd253 2.297 . S
O256 C258 1.247 . S
O257 Cd253 2.439 . S
O257 C258 1.208 . S
C258 O256 1.247 . S
C258 O257 1.208 . S
C259 O264 1.247 . S
C259 O265 1.208 . S
C260 O252 1.315 . S
C260 O255 1.279 . S
C261 O262 1.315 . S
C261 O263 1.279 . S
O262 Cd254 2.223 . S
O262 C261 1.315 . S
O263 Cd253 2.240 . S
O263 C261 1.279 . S
O264 Cd254 2.297 . S
O264 C259 1.247 . S
O265 Cd254 2.439 . S
O265 C259 1.208 . S
O266 Cd267 2.223 . S
O266 C274 1.315 . S
Cd267 O266 2.223 . S
Cd267 O270 2.297 . S
Cd267 O271 2.439 . S
Cd267 O277 2.240 . S
Cd268 O269 2.240 . S
Cd268 O276 2.223 . S
Cd268 O278 2.297 . S
Cd268 O279 2.439 . S
O269 Cd268 2.240 . S
O269 C274 1.279 . S
O270 Cd267 2.297 . S
O270 C272 1.247 . S
O271 Cd267 2.439 . S
O271 C272 1.208 . S
C272 O270 1.247 . S
C272 O271 1.208 . S
C273 O278 1.247 . S
C273 O279 1.208 . S
C274 O266 1.315 . S
C274 O269 1.279 . S
C275 O276 1.315 . S
C275 O277 1.279 . S
O276 Cd268 2.223 . S
O276 C275 1.315 . S
O277 Cd267 2.240 . S
O277 C275 1.279 . S
O278 Cd268 2.297 . S
O278 C273 1.247 . S
O279 Cd268 2.439 . S
O279 C273 1.208 . S
O280 Cd281 2.223 . S
O280 C288 1.315 . S
Cd281 O280 2.223 . S
Cd281 O284 2.297 . S
Cd281 O285 2.439 . S
Cd281 O291 2.240 . S
Cd282 O283 2.240 . S
Cd282 O290 2.223 . S
Cd282 O292 2.297 . S
Cd282 O293 2.439 . S
O283 Cd282 2.240 . S
O283 C288 1.279 . S
O284 Cd281 2.297 . S
O284 C286 1.247 . S
O285 Cd281 2.439 . S
O285 C286 1.208 . S
C286 O284 1.247 . S
C286 O285 1.208 . S
C287 O292 1.247 . S
C287 O293 1.208 . S
C288 O280 1.315 . S
C288 O283 1.279 . S
C289 O290 1.315 . S
C289 O291 1.279 . S
O290 Cd282 2.223 . S
O290 C289 1.315 . S
O291 Cd281 2.240 . S
O291 C289 1.279 . S
O292 Cd282 2.297 . S
O292 C287 1.247 . S
O293 Cd282 2.439 . S
O293 C287 1.208 . S
O294 Cd295 2.223 . S
O294 C302 1.315 . S
Cd295 O294 2.223 . S
Cd295 O298 2.297 . S
Cd295 O299 2.439 . S
Cd295 O305 2.240 . S
Cd296 O297 2.240 . S
Cd296 O304 2.223 . S
Cd296 O306 2.297 . S
Cd296 O307 2.439 . S
O297 Cd296 2.240 . S
O297 C302 1.279 . S
O298 Cd295 2.297 . S
O298 C300 1.247 . S
O299 Cd295 2.439 . S
O299 C300 1.208 . S
C300 O298 1.247 . S
C300 O299 1.208 . S
C301 O306 1.247 . S
C301 O307 1.208 . S
C302 O294 1.315 . S
C302 O297 1.279 . S
C303 O304 1.315 . S
C303 O305 1.279 . S
O304 Cd296 2.223 . S
O304 C303 1.315 . S
O305 Cd295 2.240 . S
O305 C303 1.279 . S
O306 Cd296 2.297 . S
O306 C301 1.247 . S
O307 Cd296 2.439 . S
O307 C301 1.208 . S
O308 Cd309 2.223 . S
O308 C316 1.315 . S
Cd309 O308 2.223 . S
Cd309 O312 2.297 . S
Cd309 O313 2.439 . S
Cd309 O319 2.240 . S
Cd310 O311 2.240 . S
Cd310 O318 2.223 . S
Cd310 O320 2.297 . S
Cd310 O321 2.439 . S
O311 Cd310 2.240 . S
O311 C316 1.279 . S
O312 Cd309 2.297 . S
O312 C314 1.247 . S
O313 Cd309 2.439 . S
O313 C314 1.208 . S
C314 O312 1.247 . S
C314 O313 1.208 . S
C315 O320 1.247 . S
C315 O321 1.208 . S
C316 O308 1.315 . S
C316 O311 1.279 . S
C317 O318 1.315 . S
C317 O319 1.279 . S
O318 Cd310 2.223 . S
O318 C317 1.315 . S
O319 Cd309 2.240 . S
O319 C317 1.279 . S
O320 Cd310 2.297 . S
O320 C315 1.247 . S
O321 Cd310 2.439 . S
O321 C315 1.208 . S
O322 Cd323 2.223 . S
O322 C330 1.315 . S
Cd323 O322 2.223 . S
Cd323 O326 2.297 . S
Cd323 O327 2.439 . S
Cd323 O333 2.240 . S
Cd324 O325 2.240 . S
Cd324 O332 2.223 . S
Cd324 O334 2.297 . S
Cd324 O335 2.439 . S
O325 Cd324 2.240 . S
O325 C330 1.279 . S
O326 Cd323 2.297 . S
O326 C328 1.247 . S
O327 Cd323 2.439 . S
O327 C328 1.208 . S
C328 O326 1.247 . S
C328 O327 1.208 . S
C329 O334 1.247 . S
C329 O335 1.208 . S
C330 O322 1.315 . S
C330 O325 1.279 . S
C331 O332 1.315 . S
C331 O333 1.279 . S
O332 Cd324 2.223 . S
O332 C331 1.315 . S
O333 Cd323 2.240 . S
O333 C331 1.279 . S
O334 Cd324 2.297 . S
O334 C329 1.247 . S
O335 Cd324 2.439 . S
O335 C329 1.208 . S
O336 Cd337 2.223 1_545 S
O336 C344 1.315 . S
Cd337 O336 2.223 1_565 S
Cd337 O340 2.297 1_565 S
Cd337 O341 2.439 . S
Cd337 O347 2.240 . S
Cd338 O339 2.240 . S
Cd338 O346 2.223 . S
Cd338 O348 2.297 . S
Cd338 O349 2.439 . S
O339 Cd338 2.240 . S
O339 C344 1.279 1_565 S
O340 Cd337 2.297 1_545 S
O340 C342 1.247 1_545 S
O341 Cd337 2.439 . S
O341 C342 1.208 . S
C342 O340 1.247 1_565 S
C342 O341 1.208 . S
C343 O348 1.247 . S
C343 O349 1.208 . S
C344 O336 1.315 . S
C344 O339 1.279 1_545 S
C345 O346 1.315 . S
C345 O347 1.279 . S
O346 Cd338 2.223 . S
O346 C345 1.315 . S
O347 Cd337 2.240 . S
O347 C345 1.279 . S
O348 Cd338 2.297 . S
O348 C343 1.247 . S
O349 Cd338 2.439 . S
O349 C343 1.208 . S
O350 Cd351 2.223 . S
O350 C358 1.315 . S
Cd351 O350 2.223 . S
Cd351 O354 2.297 . S
Cd351 O355 2.439 . S
Cd351 O361 2.240 . S
Cd352 O353 2.240 . S
Cd352 O360 2.223 . S
Cd352 O362 2.297 . S
Cd352 O363 2.439 . S
O353 Cd352 2.240 . S
O353 C358 1.279 . S
O354 Cd351 2.297 . S
O354 C356 1.247 . S
O355 Cd351 2.439 . S
O355 C356 1.208 . S
C356 O354 1.247 . S
C356 O355 1.208 . S
C357 O362 1.247 . S
C357 O363 1.208 . S
C358 O350 1.315 . S
C358 O353 1.279 . S
C359 O360 1.315 . S
C359 O361 1.279 . S
O360 Cd352 2.223 . S
O360 C359 1.315 . S
O361 Cd351 2.240 . S
O361 C359 1.279 . S
O362 Cd352 2.297 . S
O362 C357 1.247 . S
O363 Cd352 2.439 . S
O363 C357 1.208 . S
O364 Cd365 2.223 . S
O364 C372 1.315 . S
Cd365 O364 2.223 . S
Cd365 O368 2.297 . S
Cd365 O369 2.439 . S
Cd365 O375 2.240 . S
Cd366 O367 2.240 . S
Cd366 O374 2.223 . S
Cd366 O376 2.297 . S
Cd366 O377 2.439 . S
O367 Cd366 2.240 . S
O367 C372 1.279 . S
O368 Cd365 2.297 . S
O368 C370 1.247 . S
O369 Cd365 2.439 . S
O369 C370 1.208 . S
C370 O368 1.247 . S
C370 O369 1.208 . S
C371 O376 1.247 . S
C371 O377 1.208 . S
C372 O364 1.315 . S
C372 O367 1.279 . S
C373 O374 1.315 . S
C373 O375 1.279 . S
O374 Cd366 2.223 . S
O374 C373 1.315 . S
O375 Cd365 2.240 . S
O375 C373 1.279 . S
O376 Cd366 2.297 . S
O376 C371 1.247 . S
O377 Cd366 2.439 . S
O377 C371 1.208 . S
O378 Cd379 2.223 1_545 S
O378 C386 1.315 . S
Cd379 O378 2.223 1_565 S
Cd379 O382 2.297 1_565 S
Cd379 O383 2.439 . S
Cd379 O389 2.240 . S
Cd380 O381 2.240 . S
Cd380 O388 2.223 . S
Cd380 O390 2.297 . S
Cd380 O391 2.439 . S
O381 Cd380 2.240 . S
O381 C386 1.279 1_565 S
O382 Cd379 2.297 1_545 S
O382 C384 1.247 1_545 S
O383 Cd379 2.439 . S
O383 C384 1.208 . S
C384 O382 1.247 1_565 S
C384 O383 1.208 . S
C385 O390 1.247 . S
C385 O391 1.208 . S
C386 O378 1.315 . S
C386 O381 1.279 1_545 S
C387 O388 1.315 . S
C387 O389 1.279 . S
O388 Cd380 2.223 . S
O388 C387 1.315 . S
O389 Cd379 2.240 . S
O389 C387 1.279 . S
O390 Cd380 2.297 . S
O390 C385 1.247 . S
O391 Cd380 2.439 . S
O391 C385 1.208 . S
O392 Cd393 2.223 1_565 S
O392 C400 1.315 . S
Cd393 O392 2.223 1_545 S
Cd393 O396 2.297 1_545 S
Cd393 O397 2.439 . S
Cd393 O403 2.240 . S
Cd394 O395 2.240 . S
Cd394 O402 2.223 . S
Cd394 O404 2.297 . S
Cd394 O405 2.439 . S
O395 Cd394 2.240 . S
O395 C400 1.279 1_545 S
O396 Cd393 2.297 1_565 S
O396 C398 1.247 1_565 S
O397 Cd393 2.439 . S
O397 C398 1.208 . S
C398 O396 1.247 1_545 S
C398 O397 1.208 . S
C399 O404 1.247 . S
C399 O405 1.208 . S
C400 O392 1.315 . S
C400 O395 1.279 1_565 S
C401 O402 1.315 . S
C401 O403 1.279 . S
O402 Cd394 2.223 . S
O402 C401 1.315 . S
O403 Cd393 2.240 . S
O403 C401 1.279 . S
O404 Cd394 2.297 . S
O404 C399 1.247 . S
O405 Cd394 2.439 . S
O405 C399 1.208 . S
O406 Cd407 2.223 . S
O406 C414 1.315 . S
Cd407 O406 2.223 . S
Cd407 O410 2.297 . S
Cd407 O411 2.439 . S
Cd407 O417 2.240 . S
Cd408 O409 2.240 . S
Cd408 O416 2.223 . S
Cd408 O418 2.297 . S
Cd408 O419 2.439 . S
O409 Cd408 2.240 . S
O409 C414 1.279 . S
O410 Cd407 2.297 . S
O410 C412 1.247 . S
O411 Cd407 2.439 . S
O411 C412 1.208 . S
C412 O410 1.247 . S
C412 O411 1.208 . S
C413 O418 1.247 . S
C413 O419 1.208 . S
C414 O406 1.315 . S
C414 O409 1.279 . S
C415 O416 1.315 . S
C415 O417 1.279 . S
O416 Cd408 2.223 . S
O416 C415 1.315 . S
O417 Cd407 2.240 . S
O417 C415 1.279 . S
O418 Cd408 2.297 . S
O418 C413 1.247 . S
O419 Cd408 2.439 . S
O419 C413 1.208 . S
O420 Cd421 2.223 . S
O420 C428 1.315 . S
Cd421 O420 2.223 . S
Cd421 O424 2.297 . S
Cd421 O425 2.439 . S
Cd421 O431 2.240 . S
Cd422 O423 2.240 . S
Cd422 O430 2.223 . S
Cd422 O432 2.297 . S
Cd422 O433 2.439 . S
O423 Cd422 2.240 . S
O423 C428 1.279 . S
O424 Cd421 2.297 . S
O424 C426 1.247 . S
O425 Cd421 2.439 . S
O425 C426 1.208 . S
C426 O424 1.247 . S
C426 O425 1.208 . S
C427 O432 1.247 . S
C427 O433 1.208 . S
C428 O420 1.315 . S
C428 O423 1.279 . S
C429 O430 1.315 . S
C429 O431 1.279 . S
O430 Cd422 2.223 . S
O430 C429 1.315 . S
O431 Cd421 2.240 . S
O431 C429 1.279 . S
O432 Cd422 2.297 . S
O432 C427 1.247 . S
O433 Cd422 2.439 . S
O433 C427 1.208 . S
O434 Cd435 2.223 1_565 S
O434 C442 1.315 . S
Cd435 O434 2.223 1_545 S
Cd435 O438 2.297 1_545 S
Cd435 O439 2.439 . S
Cd435 O445 2.240 . S
Cd436 O437 2.240 . S
Cd436 O444 2.223 . S
Cd436 O446 2.297 . S
Cd436 O447 2.439 . S
O437 Cd436 2.240 . S
O437 C442 1.279 1_545 S
O438 Cd435 2.297 1_565 S
O438 C440 1.247 1_565 S
O439 Cd435 2.439 . S
O439 C440 1.208 . S
C440 O438 1.247 1_545 S
C440 O439 1.208 . S
C441 O446 1.247 . S
C441 O447 1.208 . S
C442 O434 1.315 . S
C442 O437 1.279 1_565 S
C443 O444 1.315 . S
C443 O445 1.279 . S
O444 Cd436 2.223 . S
O444 C443 1.315 . S
O445 Cd435 2.240 . S
O445 C443 1.279 . S
O446 Cd436 2.297 . S
O446 C441 1.247 . S
O447 Cd436 2.439 . S
O447 C441 1.208 . S
C448 C449 1.369 . S
C448 C450 1.419 . S
C448 H452 0.930 . S
C449 C448 1.369 . S
C449 C458 1.429 . S
C450 C448 1.419 . S
C450 C451 1.363 . S
C450 H453 0.929 . S
C451 C450 1.363 . S
C451 C457 1.428 . S
H452 C448 0.930 . S
H453 C450 0.929 . S
S454 N455 1.613 . S
S454 N456 1.610 . S
N455 S454 1.613 . S
N455 C458 1.350 . S
N456 S454 1.610 . S
N456 C457 1.351 . S
C457 C451 1.428 . S
C457 N456 1.351 . S
C457 C458 1.434 . S
C458 C449 1.429 . S
C458 N455 1.350 . S
C458 C457 1.434 . S
C459 C460 1.369 . S
C459 C461 1.419 . S
C459 H463 0.930 . S
C460 C459 1.369 . S
C460 C469 1.429 . S
C461 C459 1.419 . S
C461 C462 1.363 . S
C461 H464 0.929 . S
C462 C461 1.363 . S
C462 C468 1.428 . S
H463 C459 0.930 . S
H464 C461 0.929 . S
S465 N466 1.613 . S
S465 N467 1.610 . S
N466 S465 1.613 . S
N466 C469 1.350 . S
N467 S465 1.610 . S
N467 C468 1.351 . S
C468 C462 1.428 . S
C468 N467 1.351 . S
C468 C469 1.434 . S
C469 C460 1.429 . S
C469 N466 1.350 . S
C469 C468 1.434 . S
C470 C471 1.369 . S
C470 C472 1.419 . S
C470 H474 0.930 . S
C471 C470 1.369 . S
C471 C480 1.429 . S
C472 C470 1.419 . S
C472 C473 1.363 . S
C472 H475 0.929 . S
C473 C472 1.363 . S
C473 C479 1.428 . S
H474 C470 0.930 . S
H475 C472 0.929 . S
S476 N477 1.613 . S
S476 N478 1.610 . S
N477 S476 1.613 . S
N477 C480 1.350 . S
N478 S476 1.610 . S
N478 C479 1.351 . S
C479 C473 1.428 . S
C479 N478 1.351 . S
C479 C480 1.434 . S
C480 C471 1.429 . S
C480 N477 1.350 . S
C480 C479 1.434 . S
C481 C482 1.369 . S
C481 C483 1.419 . S
C481 H485 0.930 . S
C482 C481 1.369 . S
C482 C491 1.429 . S
C483 C481 1.419 . S
C483 C484 1.363 . S
C483 H486 0.929 . S
C484 C483 1.363 . S
C484 C490 1.428 . S
H485 C481 0.930 . S
H486 C483 0.929 . S
S487 N488 1.613 . S
S487 N489 1.610 . S
N488 S487 1.613 . S
N488 C491 1.350 . S
N489 S487 1.610 . S
N489 C490 1.351 . S
C490 C484 1.428 . S
C490 N489 1.351 . S
C490 C491 1.434 . S
C491 C482 1.429 . S
C491 N488 1.350 . S
C491 C490 1.434 . S
C492 C493 1.369 . S
C492 C494 1.419 . S
C492 H496 0.930 . S
C493 C492 1.369 . S
C493 C502 1.429 . S
C494 C492 1.419 . S
C494 C495 1.363 . S
C494 H497 0.929 . S
C495 C494 1.363 . S
C495 C501 1.428 . S
H496 C492 0.930 . S
H497 C494 0.929 . S
S498 N499 1.613 . S
S498 N500 1.610 . S
N499 S498 1.613 . S
N499 C502 1.350 . S
N500 S498 1.610 . S
N500 C501 1.351 . S
C501 C495 1.428 . S
C501 N500 1.351 . S
C501 C502 1.434 . S
C502 C493 1.429 . S
C502 N499 1.350 . S
C502 C501 1.434 . S
C503 C504 1.369 . S
C503 C505 1.419 . S
C503 H507 0.930 . S
C504 C503 1.369 . S
C504 C513 1.429 . S
C505 C503 1.419 . S
C505 C506 1.363 . S
C505 H508 0.929 . S
C506 C505 1.363 . S
C506 C512 1.428 . S
H507 C503 0.930 . S
H508 C505 0.929 . S
S509 N510 1.613 . S
S509 N511 1.610 . S
N510 S509 1.613 . S
N510 C513 1.350 . S
N511 S509 1.610 . S
N511 C512 1.351 . S
C512 C506 1.428 . S
C512 N511 1.351 . S
C512 C513 1.434 . S
C513 C504 1.429 . S
C513 N510 1.350 . S
C513 C512 1.434 . S
C514 C515 1.369 . S
C514 C516 1.419 . S
C514 H518 0.930 . S
C515 C514 1.369 . S
C515 C524 1.429 . S
C516 C514 1.419 . S
C516 C517 1.363 . S
C516 H519 0.929 . S
C517 C516 1.363 . S
C517 C523 1.428 . S
H518 C514 0.930 . S
H519 C516 0.929 . S
S520 N521 1.613 . S
S520 N522 1.610 . S
N521 S520 1.613 . S
N521 C524 1.350 . S
N522 S520 1.610 . S
N522 C523 1.351 . S
C523 C517 1.428 . S
C523 N522 1.351 . S
C523 C524 1.434 . S
C524 C515 1.429 . S
C524 N521 1.350 . S
C524 C523 1.434 . S
C525 C526 1.369 . S
C525 C527 1.419 . S
C525 H529 0.930 . S
C526 C525 1.369 . S
C526 C535 1.429 . S
C527 C525 1.419 . S
C527 C528 1.363 . S
C527 H530 0.929 . S
C528 C527 1.363 . S
C528 C534 1.428 . S
H529 C525 0.930 . S
H530 C527 0.929 . S
S531 N532 1.613 . S
S531 N533 1.610 . S
N532 S531 1.613 . S
N532 C535 1.350 . S
N533 S531 1.610 . S
N533 C534 1.351 . S
C534 C528 1.428 . S
C534 N533 1.351 . S
C534 C535 1.434 . S
C535 C526 1.429 . S
C535 N532 1.350 . S
C535 C534 1.434 . S
C536 C537 1.369 . S
C536 C538 1.419 . S
C536 H540 0.930 . S
C537 C536 1.369 . S
C537 C546 1.429 . S
C538 C536 1.419 . S
C538 C539 1.363 . S
C538 H541 0.929 . S
C539 C538 1.363 . S
C539 C545 1.428 . S
H540 C536 0.930 . S
H541 C538 0.929 . S
S542 N543 1.613 . S
S542 N544 1.610 . S
N543 S542 1.613 . S
N543 C546 1.350 . S
N544 S542 1.610 . S
N544 C545 1.351 . S
C545 C539 1.428 . S
C545 N544 1.351 . S
C545 C546 1.434 . S
C546 C537 1.429 . S
C546 N543 1.350 . S
C546 C545 1.434 . S
C547 C548 1.369 . S
C547 C549 1.419 . S
C547 H551 0.930 . S
C548 C547 1.369 . S
C548 C557 1.429 . S
C549 C547 1.419 . S
C549 C550 1.363 . S
C549 H552 0.929 . S
C550 C549 1.363 . S
C550 C556 1.428 . S
H551 C547 0.930 . S
H552 C549 0.929 . S
S553 N554 1.613 . S
S553 N555 1.610 . S
N554 S553 1.613 . S
N554 C557 1.350 . S
N555 S553 1.610 . S
N555 C556 1.351 . S
C556 C550 1.428 . S
C556 N555 1.351 . S
C556 C557 1.434 . S
C557 C548 1.429 . S
C557 N554 1.350 . S
C557 C556 1.434 . S
C558 C559 1.369 . S
C558 C560 1.419 . S
C558 H562 0.930 . S
C559 C558 1.369 . S
C559 C568 1.429 . S
C560 C558 1.419 . S
C560 C561 1.363 . S
C560 H563 0.929 . S
C561 C560 1.363 . S
C561 C567 1.428 . S
H562 C558 0.930 . S
H563 C560 0.929 . S
S564 N565 1.613 . S
S564 N566 1.610 . S
N565 S564 1.613 . S
N565 C568 1.350 . S
N566 S564 1.610 . S
N566 C567 1.351 . S
C567 C561 1.428 . S
C567 N566 1.351 . S
C567 C568 1.434 . S
C568 C559 1.429 . S
C568 N565 1.350 . S
C568 C567 1.434 . S
C569 C570 1.369 . S
C569 C571 1.419 . S
C569 H573 0.930 . S
C570 C569 1.369 . S
C570 C579 1.429 . S
C571 C569 1.419 . S
C571 C572 1.363 . S
C571 H574 0.929 . S
C572 C571 1.363 . S
C572 C578 1.428 . S
H573 C569 0.930 . S
H574 C571 0.929 . S
S575 N576 1.613 . S
S575 N577 1.610 . S
N576 S575 1.613 . S
N576 C579 1.350 . S
N577 S575 1.610 . S
N577 C578 1.351 . S
C578 C572 1.428 . S
C578 N577 1.351 . S
C578 C579 1.434 . S
C579 C570 1.429 . S
C579 N576 1.350 . S
C579 C578 1.434 . S
C580 C581 1.369 . S
C580 C582 1.419 . S
C580 H584 0.930 . S
C581 C580 1.369 . S
C581 C590 1.429 . S
C582 C580 1.419 . S
C582 C583 1.363 . S
C582 H585 0.929 . S
C583 C582 1.363 . S
C583 C589 1.428 . S
H584 C580 0.930 . S
H585 C582 0.929 . S
S586 N587 1.613 . S
S586 N588 1.610 . S
N587 S586 1.613 . S
N587 C590 1.350 . S
N588 S586 1.610 . S
N588 C589 1.351 . S
C589 C583 1.428 . S
C589 N588 1.351 . S
C589 C590 1.434 . S
C590 C581 1.429 . S
C590 N587 1.350 . S
C590 C589 1.434 . S
C591 C592 1.369 . S
C591 C593 1.419 . S
C591 H595 0.930 . S
C592 C591 1.369 . S
C592 C601 1.429 . S
C593 C591 1.419 . S
C593 C594 1.363 . S
C593 H596 0.929 . S
C594 C593 1.363 . S
C594 C600 1.428 . S
H595 C591 0.930 . S
H596 C593 0.929 . S
S597 N598 1.613 . S
S597 N599 1.610 . S
N598 S597 1.613 . S
N598 C601 1.350 . S
N599 S597 1.610 . S
N599 C600 1.351 . S
C600 C594 1.428 . S
C600 N599 1.351 . S
C600 C601 1.434 . S
C601 C592 1.429 . S
C601 N598 1.350 . S
C601 C600 1.434 . S
C602 C603 1.369 . S
C602 C604 1.419 . S
C602 H606 0.930 . S
C603 C602 1.369 . S
C603 C612 1.429 . S
C604 C602 1.419 . S
C604 C605 1.363 . S
C604 H607 0.929 . S
C605 C604 1.363 . S
C605 C611 1.428 . S
H606 C602 0.930 . S
H607 C604 0.929 . S
S608 N609 1.613 . S
S608 N610 1.610 . S
N609 S608 1.613 . S
N609 C612 1.350 . S
N610 S608 1.610 . S
N610 C611 1.351 . S
C611 C605 1.428 . S
C611 N610 1.351 . S
C611 C612 1.434 . S
C612 C603 1.429 . S
C612 N609 1.350 . S
C612 C611 1.434 . S
C613 C614 1.369 . S
C613 C615 1.419 . S
C613 H617 0.930 . S
C614 C613 1.369 . S
C614 C623 1.429 . S
C615 C613 1.419 . S
C615 C616 1.363 . S
C615 H618 0.929 . S
C616 C615 1.363 . S
C616 C622 1.428 . S
H617 C613 0.930 . S
H618 C615 0.929 . S
S619 N620 1.613 . S
S619 N621 1.610 . S
N620 S619 1.613 . S
N620 C623 1.350 . S
N621 S619 1.610 . S
N621 C622 1.351 . S
C622 C616 1.428 . S
C622 N621 1.351 . S
C622 C623 1.434 . S
C623 C614 1.429 . S
C623 N620 1.350 . S
C623 C622 1.434 . S
C624 C625 1.369 1_554 S
C624 C626 1.419 . S
C624 H628 0.930 . S
C625 C624 1.369 1_556 S
C625 C634 1.429 1_655 S
C626 C624 1.419 . S
C626 C627 1.363 1_655 S
C626 H629 0.929 . S
C627 C626 1.363 1_455 S
C627 C633 1.428 1_554 S
H628 C624 0.930 . S
H629 C626 0.929 . S
S630 N631 1.613 . S
S630 N632 1.610 . S
N631 S630 1.613 . S
N631 C634 1.350 . S
N632 S630 1.610 . S
N632 C633 1.351 . S
C633 C627 1.428 1_556 S
C633 N632 1.351 . S
C633 C634 1.434 . S
C634 C625 1.429 1_455 S
C634 N631 1.350 . S
C634 C633 1.434 . S
C635 C636 1.369 1_554 S
C635 C637 1.419 . S
C635 H639 0.930 . S
C636 C635 1.369 1_556 S
C636 C645 1.429 . S
C637 C635 1.419 . S
C637 C638 1.363 . S
C637 H640 0.929 . S
C638 C637 1.363 . S
C638 C644 1.428 1_554 S
H639 C635 0.930 . S
H640 C637 0.929 . S
S641 N642 1.613 . S
S641 N643 1.610 . S
N642 S641 1.613 . S
N642 C645 1.350 . S
N643 S641 1.610 . S
N643 C644 1.351 . S
C644 C638 1.428 1_556 S
C644 N643 1.351 . S
C644 C645 1.434 . S
C645 C636 1.429 . S
C645 N642 1.350 . S
C645 C644 1.434 . S
C646 C647 1.369 . S
C646 C648 1.419 . S
C646 H650 0.930 . S
C647 C646 1.369 . S
C647 C656 1.429 1_455 S
C648 C646 1.419 . S
C648 C649 1.363 1_455 S
C648 H651 0.929 . S
C649 C648 1.363 1_655 S
C649 C655 1.428 . S
H650 C646 0.930 . S
H651 C648 0.929 . S
S652 N653 1.613 . S
S652 N654 1.610 . S
N653 S652 1.613 . S
N653 C656 1.350 . S
N654 S652 1.610 . S
N654 C655 1.351 . S
C655 C649 1.428 . S
C655 N654 1.351 . S
C655 C656 1.434 . S
C656 C647 1.429 1_655 S
C656 N653 1.350 . S
C656 C655 1.434 . S
C657 C658 1.369 . S
C657 C659 1.419 . S
C657 H661 0.930 . S
C658 C657 1.369 . S
C658 C667 1.429 . S
C659 C657 1.419 . S
C659 C660 1.363 . S
C659 H662 0.929 . S
C660 C659 1.363 . S
C660 C666 1.428 . S
H661 C657 0.930 . S
H662 C659 0.929 . S
S663 N664 1.613 . S
S663 N665 1.610 . S
N664 S663 1.613 . S
N664 C667 1.350 . S
N665 S663 1.610 . S
N665 C666 1.351 . S
C666 C660 1.428 . S
C666 N665 1.351 . S
C666 C667 1.434 . S
C667 C658 1.429 . S
C667 N664 1.350 . S
C667 C666 1.434 . S
C668 C669 1.369 . S
C668 C670 1.429 . S
C668 H672 0.930 . S
C669 C668 1.369 . S
C669 C678 1.394 1_556 S
C670 C668 1.429 . S
C670 C671 1.352 1_556 S
C670 H673 0.930 . S
C671 C670 1.352 1_554 S
C671 C677 1.428 . S
H672 C668 0.930 . S
H673 C670 0.930 . S
S674 N675 1.613 . S
S674 N676 1.610 . S
N675 S674 1.613 . S
N675 C678 1.356 . S
N676 S674 1.610 . S
N676 C677 1.351 . S
C677 C671 1.428 . S
C677 N676 1.351 . S
C677 C678 1.467 . S
C678 C669 1.394 1_554 S
C678 N675 1.356 . S
C678 C677 1.467 . S
C679 C680 1.369 . S
C679 C681 1.419 1_655 S
C679 H683 0.930 . S
C680 C679 1.369 . S
C680 C689 1.429 . S
C681 C679 1.419 1_455 S
C681 C682 1.363 . S
C681 H684 0.929 . S
C682 C681 1.363 . S
C682 C688 1.428 . S
H683 C679 0.930 . S
H684 C681 0.929 . S
S685 N686 1.613 . S
S685 N687 1.610 1_655 S
N686 S685 1.613 . S
N686 C689 1.350 . S
N687 S685 1.610 1_455 S
N687 C688 1.351 . S
C688 C682 1.428 . S
C688 N687 1.351 . S
C688 C689 1.434 1_455 S
C689 C680 1.429 . S
C689 N686 1.350 . S
C689 C688 1.434 1_655 S
C690 C691 1.369 . S
C690 C692 1.419 . S
C690 H694 0.930 . S
C691 C690 1.369 . S
C691 C700 1.429 . S
C692 C690 1.419 . S
C692 C693 1.363 . S
C692 H695 0.929 . S
C693 C692 1.363 . S
C693 C699 1.428 . S
H694 C690 0.930 . S
H695 C692 0.929 . S
S696 N697 1.613 . S
S696 N698 1.610 . S
N697 S696 1.613 . S
N697 C700 1.350 . S
N698 S696 1.610 . S
N698 C699 1.351 . S
C699 C693 1.428 . S
C699 N698 1.351 . S
C699 C700 1.434 . S
C700 C691 1.429 . S
C700 N697 1.350 . S
C700 C699 1.434 . S
C701 C702 1.369 . S
C701 C703 1.419 . S
C701 H705 0.930 . S
C702 C701 1.369 . S
C702 C711 1.429 1_645 S
C703 C701 1.419 . S
C703 C704 1.363 1_645 S
C703 H706 0.929 . S
C704 C703 1.363 1_465 S
C704 C710 1.428 . S
H705 C701 0.930 . S
H706 C703 0.929 . S
S707 N708 1.613 . S
S707 N709 1.610 . S
N708 S707 1.613 . S
N708 C711 1.350 . S
N709 S707 1.610 . S
N709 C710 1.351 . S
C710 C704 1.428 . S
C710 N709 1.351 . S
C710 C711 1.434 . S
C711 C702 1.429 1_465 S
C711 N708 1.350 . S
C711 C710 1.434 . S
C712 C713 1.369 . S
C712 C714 1.419 . S
C712 H716 0.930 . S
C713 C712 1.369 . S
C713 C722 1.429 . S
C714 C712 1.419 . S
C714 C715 1.363 . S
C714 H717 0.929 . S
C715 C714 1.363 . S
C715 C721 1.428 . S
H716 C712 0.930 . S
H717 C714 0.929 . S
S718 N719 1.613 . S
S718 N720 1.610 . S
N719 S718 1.613 . S
N719 C722 1.350 . S
N720 S718 1.610 . S
N720 C721 1.351 . S
C721 C715 1.428 . S
C721 N720 1.351 . S
C721 C722 1.434 . S
C722 C713 1.429 . S
C722 N719 1.350 . S
C722 C721 1.434 . S
C723 C724 1.369 . S
C723 C725 1.419 . S
C723 H727 0.930 . S
C724 C723 1.369 . S
C724 C733 1.429 1_565 S
C725 C723 1.419 . S
C725 C726 1.363 1_565 S
C725 H728 0.929 . S
C726 C725 1.363 1_545 S
C726 C732 1.428 . S
H727 C723 0.930 . S
H728 C725 0.929 . S
S729 N730 1.613 . S
S729 N731 1.610 . S
N730 S729 1.613 . S
N730 C733 1.350 . S
N731 S729 1.610 . S
N731 C732 1.351 . S
C732 C726 1.428 . S
C732 N731 1.351 . S
C732 C733 1.434 . S
C733 C724 1.429 1_545 S
C733 N730 1.350 . S
C733 C732 1.434 . S
C734 C735 1.369 . S
C734 C736 1.419 . S
C734 H738 0.930 . S
C735 C734 1.369 . S
C735 C744 1.429 . S
C736 C734 1.419 . S
C736 C737 1.363 . S
C736 H739 0.929 . S
C737 C736 1.363 . S
C737 C743 1.428 . S
H738 C734 0.930 . S
H739 C736 0.929 . S
S740 N741 1.613 . S
S740 N742 1.610 . S
N741 S740 1.613 . S
N741 C744 1.350 . S
N742 S740 1.610 . S
N742 C743 1.351 . S
C743 C737 1.428 . S
C743 N742 1.351 . S
C743 C744 1.434 . S
C744 C735 1.429 . S
C744 N741 1.350 . S
C744 C743 1.434 . S
C745 C746 1.369 1_545 S
C745 C747 1.419 . S
C745 H749 0.930 . S
C746 C745 1.369 1_565 S
C746 C755 1.429 . S
C747 C745 1.419 . S
C747 C748 1.363 . S
C747 H750 0.929 . S
C748 C747 1.363 . S
C748 C754 1.428 1_545 S
H749 C745 0.930 . S
H750 C747 0.929 . S
S751 N752 1.613 . S
S751 N753 1.610 . S
N752 S751 1.613 . S
N752 C755 1.350 . S
N753 S751 1.610 . S
N753 C754 1.351 . S
C754 C748 1.428 1_565 S
C754 N753 1.351 . S
C754 C755 1.434 . S
C755 C746 1.429 . S
C755 N752 1.350 . S
C755 C754 1.434 . S
C756 C757 1.369 . S
C756 C758 1.419 . S
C756 H760 0.930 . S
C757 C756 1.369 . S
C757 C766 1.429 . S
C758 C756 1.419 . S
C758 C759 1.363 . S
C758 H761 0.929 . S
C759 C758 1.363 . S
C759 C765 1.428 . S
H760 C756 0.930 . S
H761 C758 0.929 . S
S762 N763 1.613 . S
S762 N764 1.610 . S
N763 S762 1.613 . S
N763 C766 1.350 . S
N764 S762 1.610 . S
N764 C765 1.351 . S
C765 C759 1.428 . S
C765 N764 1.351 . S
C765 C766 1.434 . S
C766 C757 1.429 . S
C766 N763 1.350 . S
C766 C765 1.434 . S
C767 C768 1.369 . S
C767 C769 1.419 . S
C767 H771 0.930 . S
C768 C767 1.369 . S
C768 C777 1.429 . S
C769 C767 1.419 . S
C769 C770 1.363 . S
C769 H772 0.929 . S
C770 C769 1.363 . S
C770 C776 1.428 . S
H771 C767 0.930 . S
H772 C769 0.929 . S
S773 N774 1.613 . S
S773 N775 1.610 . S
N774 S773 1.613 . S
N774 C777 1.350 . S
N775 S773 1.610 . S
N775 C776 1.351 . S
C776 C770 1.428 . S
C776 N775 1.351 . S
C776 C777 1.434 . S
C777 C768 1.429 . S
C777 N774 1.350 . S
C777 C776 1.434 . S
C778 C779 1.369 . S
C778 C780 1.419 . S
C778 H782 0.930 . S
C779 C778 1.369 . S
C779 C788 1.429 . S
C780 C778 1.419 . S
C780 C781 1.363 . S
C780 H783 0.929 . S
C781 C780 1.363 . S
C781 C787 1.428 . S
H782 C778 0.930 . S
H783 C780 0.929 . S
S784 N785 1.613 . S
S784 N786 1.610 . S
N785 S784 1.613 . S
N785 C788 1.350 . S
N786 S784 1.610 . S
N786 C787 1.351 . S
C787 C781 1.428 . S
C787 N786 1.351 . S
C787 C788 1.434 . S
C788 C779 1.429 . S
C788 N785 1.350 . S
C788 C787 1.434 . S
C789 C790 1.369 1_565 S
C789 C791 1.419 1_556 S
C789 H793 0.930 . S
C790 C789 1.369 1_545 S
C790 C799 1.429 . S
C791 C789 1.419 1_554 S
C791 C792 1.363 . S
C791 H794 0.929 . S
C792 C791 1.363 . S
C792 C798 1.428 1_565 S
H793 C789 0.930 . S
H794 C791 0.929 . S
S795 N796 1.613 1_554 S
S795 N797 1.610 . S
N796 S795 1.613 1_556 S
N796 C799 1.350 . S
N797 S795 1.610 . S
N797 C798 1.351 . S
C798 C792 1.428 1_545 S
C798 N797 1.351 . S
C798 C799 1.434 1_554 S
C799 C790 1.429 . S
C799 N796 1.350 . S
C799 C798 1.434 1_556 S
C800 C801 1.369 . S
C800 C802 1.419 . S
C800 H804 0.930 . S
C801 C800 1.369 . S
C801 C810 1.429 . S
C802 C800 1.419 . S
C802 C803 1.363 . S
C802 H805 0.929 . S
C803 C802 1.363 . S
C803 C809 1.428 . S
H804 C800 0.930 . S
H805 C802 0.929 . S
S806 N807 1.613 . S
S806 N808 1.610 . S
N807 S806 1.613 . S
N807 C810 1.350 . S
N808 S806 1.610 . S
N808 C809 1.351 . S
C809 C803 1.428 . S
C809 N808 1.351 . S
C809 C810 1.434 . S
C810 C801 1.429 . S
C810 N807 1.350 . S
C810 C809 1.434 . S
C811 C812 1.369 . S
C811 C813 1.419 . S
C811 H815 0.930 . S
C812 C811 1.369 . S
C812 C821 1.429 . S
C813 C811 1.419 . S
C813 C814 1.363 . S
C813 H816 0.929 . S
C814 C813 1.363 . S
C814 C820 1.428 . S
H815 C811 0.930 . S
H816 C813 0.929 . S
S817 N818 1.613 . S
S817 N819 1.610 . S
N818 S817 1.613 . S
N818 C821 1.350 . S
N819 S817 1.610 . S
N819 C820 1.351 . S
C820 C814 1.428 . S
C820 N819 1.351 . S
C820 C821 1.434 . S
C821 C812 1.429 . S
C821 N818 1.350 . S
C821 C820 1.434 . S
C822 C823 1.369 . S
C822 C824 1.419 . S
C822 H826 0.930 . S
C823 C822 1.369 . S
C823 C832 1.429 . S
C824 C822 1.419 . S
C824 C825 1.363 . S
C824 H827 0.929 . S
C825 C824 1.363 . S
C825 C831 1.428 . S
H826 C822 0.930 . S
H827 C824 0.929 . S
S828 N829 1.613 . S
S828 N830 1.610 . S
N829 S828 1.613 . S
N829 C832 1.350 . S
N830 S828 1.610 . S
N830 C831 1.351 . S
C831 C825 1.428 . S
C831 N830 1.351 . S
C831 C832 1.434 . S
C832 C823 1.429 . S
C832 N829 1.350 . S
C832 C831 1.434 . S
C833 C834 1.369 . S
C833 C835 1.419 . S
C833 H837 0.930 . S
C834 C833 1.369 . S
C834 C843 1.429 . S
C835 C833 1.419 . S
C835 C836 1.363 . S
C835 H838 0.929 . S
C836 C835 1.363 . S
C836 C842 1.428 . S
H837 C833 0.930 . S
H838 C835 0.929 . S
S839 N840 1.613 . S
S839 N841 1.610 . S
N840 S839 1.613 . S
N840 C843 1.350 . S
N841 S839 1.610 . S
N841 C842 1.351 . S
C842 C836 1.428 . S
C842 N841 1.351 . S
C842 C843 1.434 . S
C843 C834 1.429 . S
C843 N840 1.350 . S
C843 C842 1.434 . S
C844 C845 1.369 . S
C844 C846 1.419 . S
C844 H848 0.930 . S
C845 C844 1.369 . S
C845 C854 1.429 . S
C846 C844 1.419 . S
C846 C847 1.363 . S
C846 H849 0.929 . S
C847 C846 1.363 . S
C847 C853 1.428 . S
H848 C844 0.930 . S
H849 C846 0.929 . S
S850 N851 1.613 . S
S850 N852 1.610 . S
N851 S850 1.613 . S
N851 C854 1.350 1_545 S
N852 S850 1.610 . S
N852 C853 1.351 1_545 S
C853 C847 1.428 . S
C853 N852 1.351 1_565 S
C853 C854 1.434 . S
C854 C845 1.429 . S
C854 N851 1.350 1_565 S
C854 C853 1.434 . S
C855 C856 1.369 . S
C855 C857 1.419 . S
C855 H859 0.930 . S
C856 C855 1.369 . S
C856 C865 1.429 . S
C857 C855 1.419 . S
C857 C858 1.363 . S
C857 H860 0.929 . S
C858 C857 1.363 . S
C858 C864 1.428 . S
H859 C855 0.930 . S
H860 C857 0.929 . S
S861 N862 1.613 . S
S861 N863 1.610 . S
N862 S861 1.613 . S
N862 C865 1.350 . S
N863 S861 1.610 . S
N863 C864 1.351 . S
C864 C858 1.428 . S
C864 N863 1.351 . S
C864 C865 1.434 . S
C865 C856 1.429 . S
C865 N862 1.350 . S
C865 C864 1.434 . S
C866 C867 1.369 . S
C866 C868 1.419 . S
C866 H870 0.930 . S
C867 C866 1.369 . S
C867 C876 1.429 . S
C868 C866 1.419 . S
C868 C869 1.363 . S
C868 H871 0.929 . S
C869 C868 1.363 . S
C869 C875 1.428 . S
H870 C866 0.930 . S
H871 C868 0.929 . S
S872 N873 1.613 1_565 S
S872 N874 1.610 1_565 S
N873 S872 1.613 1_545 S
N873 C876 1.350 . S
N874 S872 1.610 1_545 S
N874 C875 1.351 . S
C875 C869 1.428 . S
C875 N874 1.351 . S
C875 C876 1.434 . S
C876 C867 1.429 . S
C876 N873 1.350 . S
C876 C875 1.434 . S
C877 C878 1.369 . S
C877 C879 1.419 . S
C877 H881 0.930 . S
C878 C877 1.369 . S
C878 C887 1.429 . S
C879 C877 1.419 . S
C879 C880 1.363 . S
C879 H882 0.929 . S
C880 C879 1.363 . S
C880 C886 1.428 . S
H881 C877 0.930 . S
H882 C879 0.929 . S
S883 N884 1.613 . S
S883 N885 1.610 . S
N884 S883 1.613 . S
N884 C887 1.350 . S
N885 S883 1.610 . S
N885 C886 1.351 . S
C886 C880 1.428 . S
C886 N885 1.351 . S
C886 C887 1.434 . S
C887 C878 1.429 . S
C887 N884 1.350 . S
C887 C886 1.434 . S
C888 C889 1.369 . S
C888 C890 1.419 . S
C888 H892 0.930 . S
C889 C888 1.369 . S
C889 C898 1.429 . S
C890 C888 1.419 . S
C890 C891 1.363 . S
C890 H893 0.929 . S
C891 C890 1.363 . S
C891 C897 1.428 . S
H892 C888 0.930 . S
H893 C890 0.929 . S
S894 N895 1.613 . S
S894 N896 1.610 . S
N895 S894 1.613 . S
N895 C898 1.350 . S
N896 S894 1.610 . S
N896 C897 1.351 . S
C897 C891 1.428 . S
C897 N896 1.351 . S
C897 C898 1.434 . S
C898 C889 1.429 . S
C898 N895 1.350 . S
C898 C897 1.434 . S
C899 C900 1.369 . S
C899 C901 1.419 . S
C899 H903 0.930 . S
C900 C899 1.369 . S
C900 C909 1.429 . S
C901 C899 1.419 . S
C901 C902 1.363 . S
C901 H904 0.929 . S
C902 C901 1.363 . S
C902 C908 1.428 . S
H903 C899 0.930 . S
H904 C901 0.929 . S
S905 N906 1.613 . S
S905 N907 1.610 . S
N906 S905 1.613 . S
N906 C909 1.350 . S
N907 S905 1.610 . S
N907 C908 1.351 . S
C908 C902 1.428 . S
C908 N907 1.351 . S
C908 C909 1.434 . S
C909 C900 1.429 . S
C909 N906 1.350 . S
C909 C908 1.434 . S
C910 C911 1.369 . S
C910 C912 1.419 . S
C910 H914 0.930 . S
C911 C910 1.369 . S
C911 C920 1.429 . S
C912 C910 1.419 . S
C912 C913 1.363 . S
C912 H915 0.929 . S
C913 C912 1.363 . S
C913 C919 1.428 . S
H914 C910 0.930 . S
H915 C912 0.929 . S
S916 N917 1.613 . S
S916 N918 1.610 . S
N917 S916 1.613 . S
N917 C920 1.350 . S
N918 S916 1.610 . S
N918 C919 1.351 . S
C919 C913 1.428 . S
C919 N918 1.351 . S
C919 C920 1.434 . S
C920 C911 1.429 . S
C920 N917 1.350 . S
C920 C919 1.434 . S
C921 C922 1.369 . S
C921 C923 1.419 . S
C921 H925 0.930 . S
C922 C921 1.369 . S
C922 C931 1.429 . S
C923 C921 1.419 . S
C923 C924 1.363 . S
C923 H926 0.929 . S
C924 C923 1.363 . S
C924 C930 1.428 . S
H925 C921 0.930 . S
H926 C923 0.929 . S
S927 N928 1.613 . S
S927 N929 1.610 . S
N928 S927 1.613 . S
N928 C931 1.350 . S
N929 S927 1.610 . S
N929 C930 1.351 . S
C930 C924 1.428 . S
C930 N929 1.351 . S
C930 C931 1.434 . S
C931 C922 1.429 . S
C931 N928 1.350 . S
C931 C930 1.434 . S
C932 C933 1.369 . S
C932 C934 1.419 . S
C932 H936 0.930 . S
C933 C932 1.369 . S
C933 C942 1.429 . S
C934 C932 1.419 . S
C934 C935 1.363 . S
C934 H937 0.929 . S
C935 C934 1.363 . S
C935 C941 1.428 . S
H936 C932 0.930 . S
H937 C934 0.929 . S
S938 N939 1.613 . S
S938 N940 1.610 . S
N939 S938 1.613 . S
N939 C942 1.350 . S
N940 S938 1.610 . S
N940 C941 1.351 . S
C941 C935 1.428 . S
C941 N940 1.351 . S
C941 C942 1.434 . S
C942 C933 1.429 . S
C942 N939 1.350 . S
C942 C941 1.434 . S
C943 C944 1.369 . S
C943 C945 1.419 . S
C943 H947 0.930 . S
C944 C943 1.369 . S
C944 C953 1.429 . S
C945 C943 1.419 . S
C945 C946 1.363 . S
C945 H948 0.929 . S
C946 C945 1.363 . S
C946 C952 1.428 . S
H947 C943 0.930 . S
H948 C945 0.929 . S
S949 N950 1.613 . S
S949 N951 1.610 . S
N950 S949 1.613 . S
N950 C953 1.350 . S
N951 S949 1.610 . S
N951 C952 1.351 . S
C952 C946 1.428 . S
C952 N951 1.351 . S
C952 C953 1.434 . S
C953 C944 1.429 . S
C953 N950 1.350 . S
C953 C952 1.434 . S
C954 C955 1.369 . S
C954 C956 1.419 . S
C954 H958 0.930 . S
C955 C954 1.369 . S
C955 C964 1.429 . S
C956 C954 1.419 . S
C956 C957 1.363 . S
C956 H959 0.929 . S
C957 C956 1.363 . S
C957 C963 1.428 . S
H958 C954 0.930 . S
H959 C956 0.929 . S
S960 N961 1.613 . S
S960 N962 1.610 . S
N961 S960 1.613 . S
N961 C964 1.350 . S
N962 S960 1.610 . S
N962 C963 1.351 . S
C963 C957 1.428 . S
C963 N962 1.351 . S
C963 C964 1.434 . S
C964 C955 1.429 . S
C964 N961 1.350 . S
C964 C963 1.434 . S
C965 C966 1.369 . S
C965 C967 1.419 . S
C965 H969 0.930 . S
C966 C965 1.369 . S
C966 C975 1.429 . S
C967 C965 1.419 . S
C967 C968 1.363 . S
C967 H970 0.929 . S
C968 C967 1.363 . S
C968 C974 1.428 . S
H969 C965 0.930 . S
H970 C967 0.929 . S
S971 N972 1.613 . S
S971 N973 1.610 . S
N972 S971 1.613 . S
N972 C975 1.350 . S
N973 S971 1.610 . S
N973 C974 1.351 . S
C974 C968 1.428 . S
C974 N973 1.351 . S
C974 C975 1.434 . S
C975 C966 1.429 . S
C975 N972 1.350 . S
C975 C974 1.434 . S
C976 C977 1.369 . S
C976 C978 1.419 . S
C976 H980 0.930 . S
C977 C976 1.369 . S
C977 C986 1.429 . S
C978 C976 1.419 . S
C978 C979 1.363 . S
C978 H981 0.929 . S
C979 C978 1.363 . S
C979 C985 1.428 . S
H980 C976 0.930 . S
H981 C978 0.929 . S
S982 N983 1.613 . S
S982 N984 1.610 . S
N983 S982 1.613 . S
N983 C986 1.350 . S
N984 S982 1.610 . S
N984 C985 1.351 . S
C985 C979 1.428 . S
C985 N984 1.351 . S
C985 C986 1.434 . S
C986 C977 1.429 . S
C986 N983 1.350 . S
C986 C985 1.434 . S
C987 C988 1.369 . S
C987 C989 1.419 . S
C987 H991 0.930 . S
C988 C987 1.369 . S
C988 C997 1.429 . S
C989 C987 1.419 . S
C989 C990 1.363 . S
C989 H992 0.929 . S
C990 C989 1.363 . S
C990 C996 1.428 . S
H991 C987 0.930 . S
H992 C989 0.929 . S
S993 N994 1.613 . S
S993 N995 1.610 . S
N994 S993 1.613 . S
N994 C997 1.350 . S
N995 S993 1.610 . S
N995 C996 1.351 . S
C996 C990 1.428 . S
C996 N995 1.351 . S
C996 C997 1.434 . S
C997 C988 1.429 . S
C997 N994 1.350 . S
C997 C996 1.434 . S
C998 C999 1.369 . S
C998 C1000 1.419 . S
C998 H1002 0.930 . S
C999 C998 1.369 . S
C999 C1008 1.429 . S
C1000 C998 1.419 . S
C1000 C1001 1.363 . S
C1000 H1003 0.929 . S
C1001 C1000 1.363 . S
C1001 C1007 1.428 . S
H1002 C998 0.930 . S
H1003 C1000 0.929 . S
S1004 N1005 1.613 . S
S1004 N1006 1.610 . S
N1005 S1004 1.613 . S
N1005 C1008 1.350 . S
N1006 S1004 1.610 . S
N1006 C1007 1.351 . S
C1007 C1001 1.428 . S
C1007 N1006 1.351 . S
C1007 C1008 1.434 . S
C1008 C999 1.429 . S
C1008 N1005 1.350 . S
C1008 C1007 1.434 . S
C1009 C1010 1.369 . S
C1009 C1011 1.419 . S
C1009 H1013 0.930 . S
C1010 C1009 1.369 . S
C1010 C1019 1.429 . S
C1011 C1009 1.419 . S
C1011 C1012 1.363 . S
C1011 H1014 0.929 . S
C1012 C1011 1.363 . S
C1012 C1018 1.428 . S
H1013 C1009 0.930 . S
H1014 C1011 0.929 . S
S1015 N1016 1.613 . S
S1015 N1017 1.610 . S
N1016 S1015 1.613 . S
N1016 C1019 1.350 . S
N1017 S1015 1.610 . S
N1017 C1018 1.351 . S
C1018 C1012 1.428 . S
C1018 N1017 1.351 . S
C1018 C1019 1.434 . S
C1019 C1010 1.429 . S
C1019 N1016 1.350 . S
C1019 C1018 1.434 . S
C1020 C1021 1.369 . S
C1020 C1022 1.419 . S
C1020 H1024 0.930 . S
C1021 C1020 1.369 . S
C1021 C1030 1.429 . S
C1022 C1020 1.419 . S
C1022 C1023 1.363 . S
C1022 H1025 0.929 . S
C1023 C1022 1.363 . S
C1023 C1029 1.428 . S
H1024 C1020 0.930 . S
H1025 C1022 0.929 . S
S1026 N1027 1.613 . S
S1026 N1028 1.610 . S
N1027 S1026 1.613 . S
N1027 C1030 1.350 . S
N1028 S1026 1.610 . S
N1028 C1029 1.351 . S
C1029 C1023 1.428 . S
C1029 N1028 1.351 . S
C1029 C1030 1.434 . S
C1030 C1021 1.429 . S
C1030 N1027 1.350 . S
C1030 C1029 1.434 . S
C1031 C1032 1.369 . S
C1031 C1033 1.419 . S
C1031 H1035 0.930 . S
C1032 C1031 1.369 . S
C1032 C1041 1.429 . S
C1033 C1031 1.419 . S
C1033 C1034 1.363 . S
C1033 H1036 0.929 . S
C1034 C1033 1.363 . S
C1034 C1040 1.428 . S
H1035 C1031 0.930 . S
H1036 C1033 0.929 . S
S1037 N1038 1.613 . S
S1037 N1039 1.610 . S
N1038 S1037 1.613 . S
N1038 C1041 1.350 . S
N1039 S1037 1.610 . S
N1039 C1040 1.351 . S
C1040 C1034 1.428 . S
C1040 N1039 1.351 . S
C1040 C1041 1.434 . S
C1041 C1032 1.429 . S
C1041 N1038 1.350 . S
C1041 C1040 1.434 . S
C1042 C1043 1.369 . S
C1042 C1044 1.419 . S
C1042 H1046 0.930 . S
C1043 C1042 1.369 . S
C1043 C1052 1.429 . S
C1044 C1042 1.419 . S
C1044 C1045 1.363 . S
C1044 H1047 0.929 . S
C1045 C1044 1.363 . S
C1045 C1051 1.428 . S
H1046 C1042 0.930 . S
H1047 C1044 0.929 . S
S1048 N1049 1.613 1_455 S
S1048 N1050 1.610 1_455 S
N1049 S1048 1.613 1_655 S
N1049 C1052 1.350 . S
N1050 S1048 1.610 1_655 S
N1050 C1051 1.351 . S
C1051 C1045 1.428 . S
C1051 N1050 1.351 . S
C1051 C1052 1.434 . S
C1052 C1043 1.429 . S
C1052 N1049 1.350 . S
C1052 C1051 1.434 . S
C1053 C1054 1.369 . S
C1053 C1055 1.419 . S
C1053 H1057 0.930 . S
C1054 C1053 1.369 . S
C1054 C1063 1.429 . S
C1055 C1053 1.419 . S
C1055 C1056 1.363 . S
C1055 H1058 0.929 . S
C1056 C1055 1.363 . S
C1056 C1062 1.428 . S
H1057 C1053 0.930 . S
H1058 C1055 0.929 . S
S1059 N1060 1.613 . S
S1059 N1061 1.610 . S
N1060 S1059 1.613 . S
N1060 C1063 1.350 . S
N1061 S1059 1.610 . S
N1061 C1062 1.351 . S
C1062 C1056 1.428 . S
C1062 N1061 1.351 . S
C1062 C1063 1.434 . S
C1063 C1054 1.429 . S
C1063 N1060 1.350 . S
C1063 C1062 1.434 . S
C1064 C1065 1.369 . S
C1064 C1066 1.419 . S
C1064 H1068 0.930 . S
C1065 C1064 1.369 . S
C1065 C1074 1.429 . S
C1066 C1064 1.419 . S
C1066 C1067 1.363 . S
C1066 H1069 0.929 . S
C1067 C1066 1.363 . S
C1067 C1073 1.428 . S
H1068 C1064 0.930 . S
H1069 C1066 0.929 . S
S1070 N1071 1.613 . S
S1070 N1072 1.610 . S
N1071 S1070 1.613 . S
N1071 C1074 1.350 . S
N1072 S1070 1.610 . S
N1072 C1073 1.351 . S
C1073 C1067 1.428 . S
C1073 N1072 1.351 . S
C1073 C1074 1.434 . S
C1074 C1065 1.429 . S
C1074 N1071 1.350 . S
C1074 C1073 1.434 . S
C1075 C1076 1.369 . S
C1075 C1077 1.419 . S
C1075 H1079 0.930 . S
C1076 C1075 1.369 . S
C1076 C1085 1.429 . S
C1077 C1075 1.419 . S
C1077 C1078 1.363 . S
C1077 H1080 0.929 . S
C1078 C1077 1.363 . S
C1078 C1084 1.428 . S
H1079 C1075 0.930 . S
H1080 C1077 0.929 . S
S1081 N1082 1.613 . S
S1081 N1083 1.610 . S
N1082 S1081 1.613 . S
N1082 C1085 1.350 . S
N1083 S1081 1.610 . S
N1083 C1084 1.351 . S
C1084 C1078 1.428 . S
C1084 N1083 1.351 . S
C1084 C1085 1.434 . S
C1085 C1076 1.429 . S
C1085 N1082 1.350 . S
C1085 C1084 1.434 . S
C1086 C1087 1.369 . S
C1086 C1088 1.419 . S
C1086 H1090 0.930 . S
C1087 C1086 1.369 . S
C1087 C1096 1.429 . S
C1088 C1086 1.419 . S
C1088 C1089 1.363 . S
C1088 H1091 0.929 . S
C1089 C1088 1.363 . S
C1089 C1095 1.428 . S
H1090 C1086 0.930 . S
H1091 C1088 0.929 . S
S1092 N1093 1.613 . S
S1092 N1094 1.610 . S
N1093 S1092 1.613 . S
N1093 C1096 1.350 . S
N1094 S1092 1.610 . S
N1094 C1095 1.351 . S
C1095 C1089 1.428 . S
C1095 N1094 1.351 . S
C1095 C1096 1.434 . S
C1096 C1087 1.429 . S
C1096 N1093 1.350 . S
C1096 C1095 1.434 . S
C1097 C1098 1.369 . S
C1097 C1099 1.419 . S
C1097 H1101 0.930 . S
C1098 C1097 1.369 . S
C1098 C1107 1.429 . S
C1099 C1097 1.419 . S
C1099 C1100 1.363 . S
C1099 H1102 0.929 . S
C1100 C1099 1.363 . S
C1100 C1106 1.428 . S
H1101 C1097 0.930 . S
H1102 C1099 0.929 . S
S1103 N1104 1.613 . S
S1103 N1105 1.610 . S
N1104 S1103 1.613 . S
N1104 C1107 1.350 . S
N1105 S1103 1.610 . S
N1105 C1106 1.351 . S
C1106 C1100 1.428 . S
C1106 N1105 1.351 . S
C1106 C1107 1.434 . S
C1107 C1098 1.429 . S
C1107 N1104 1.350 . S
C1107 C1106 1.434 . S
C1108 C1109 1.369 . S
C1108 C1110 1.419 . S
C1108 H1112 0.930 . S
C1109 C1108 1.369 . S
C1109 C1118 1.429 . S
C1110 C1108 1.419 . S
C1110 C1111 1.363 . S
C1110 H1113 0.929 . S
C1111 C1110 1.363 . S
C1111 C1117 1.428 . S
H1112 C1108 0.930 . S
H1113 C1110 0.929 . S
S1114 N1115 1.613 . S
S1114 N1116 1.610 . S
N1115 S1114 1.613 . S
N1115 C1118 1.350 . S
N1116 S1114 1.610 . S
N1116 C1117 1.351 . S
C1117 C1111 1.428 . S
C1117 N1116 1.351 . S
C1117 C1118 1.434 . S
C1118 C1109 1.429 . S
C1118 N1115 1.350 . S
C1118 C1117 1.434 . S
C1119 C1120 1.369 . S
C1119 C1121 1.419 . S
C1119 H1123 0.930 . S
C1120 C1119 1.369 . S
C1120 C1129 1.429 . S
C1121 C1119 1.419 . S
C1121 C1122 1.363 . S
C1121 H1124 0.929 . S
C1122 C1121 1.363 . S
C1122 C1128 1.428 . S
H1123 C1119 0.930 . S
H1124 C1121 0.929 . S
S1125 N1126 1.613 . S
S1125 N1127 1.610 . S
N1126 S1125 1.613 . S
N1126 C1129 1.350 . S
N1127 S1125 1.610 . S
N1127 C1128 1.351 . S
C1128 C1122 1.428 . S
C1128 N1127 1.351 . S
C1128 C1129 1.434 . S
C1129 C1120 1.429 . S
C1129 N1126 1.350 . S
C1129 C1128 1.434 . S
C1130 C1131 1.369 . S
C1130 C1132 1.419 . S
C1130 H1134 0.930 . S
C1131 C1130 1.369 . S
C1131 C1140 1.429 . S
C1132 C1130 1.419 . S
C1132 C1133 1.363 . S
C1132 H1135 0.929 . S
C1133 C1132 1.363 . S
C1133 C1139 1.428 . S
H1134 C1130 0.930 . S
H1135 C1132 0.929 . S
S1136 N1137 1.613 . S
S1136 N1138 1.610 . S
N1137 S1136 1.613 . S
N1137 C1140 1.350 . S
N1138 S1136 1.610 . S
N1138 C1139 1.351 . S
C1139 C1133 1.428 . S
C1139 N1138 1.351 . S
C1139 C1140 1.434 . S
C1140 C1131 1.429 . S
C1140 N1137 1.350 . S
C1140 C1139 1.434 . S
C1141 C1142 1.369 . S
C1141 C1143 1.419 . S
C1141 H1145 0.930 . S
C1142 C1141 1.369 . S
C1142 C1151 1.429 . S
C1143 C1141 1.419 . S
C1143 C1144 1.363 . S
C1143 H1146 0.929 . S
C1144 C1143 1.363 . S
C1144 C1150 1.428 . S
H1145 C1141 0.930 . S
H1146 C1143 0.929 . S
S1147 N1148 1.613 . S
S1147 N1149 1.610 . S
N1148 S1147 1.613 . S
N1148 C1151 1.350 . S
N1149 S1147 1.610 . S
N1149 C1150 1.351 . S
C1150 C1144 1.428 . S
C1150 N1149 1.351 . S
C1150 C1151 1.434 . S
C1151 C1142 1.429 . S
C1151 N1148 1.350 . S
C1151 C1150 1.434 . S
C449 C36 1.012 . S
C451 C8 1.021 . S
C460 C22 1.020 . S
C462 C50 1.014 . S
C471 C92 1.026 . S
C473 C64 1.012 . S
C482 C106 1.022 . S
C484 C78 1.018 . S
C493 C120 1.010 . S
C495 C148 1.023 . S
C504 C162 1.026 . S
C506 C134 1.012 . S
C515 C176 1.013 . S
C517 C204 1.019 . S
C526 C190 1.026 . S
C528 C218 1.014 . S
C537 C260 1.021 . S
C539 C232 1.014 . S
C548 C246 1.010 . S
C550 C274 1.024 . S
C559 C288 1.014 . S
C561 C316 1.023 . S
C570 C330 1.010 . S
C572 C302 1.021 . S
C581 C372 1.026 . S
C583 C344 1.012 . S
C592 C386 1.011 . S
C594 C358 1.021 . S
C603 C428 1.011 . S
C605 C400 1.024 . S
C614 C414 1.010 . S
C616 C442 1.024 . S
C625 C62 1.471 . S
C627 C6 1.469 . S
C636 C412 1.467 . S
C638 C20 1.472 . S
C647 C34 1.474 . S
C649 C202 1.466 . S
C658 C48 1.471 . S
C660 C328 1.470 . S
C669 C76 1.474 . S
C671 C356 1.467 . S
C680 C90 1.466 . S
C682 C146 1.473 . S
C691 C272 1.473 . S
C693 C104 1.468 . S
C702 C174 1.469 . S
C704 C118 1.471 . S
C713 C300 1.466 . S
C715 C132 1.473 . S
C724 C160 1.466 . S
C726 C440 1.474 . S
C735 C188 1.469 . S
C737 C244 1.470 . S
C746 C384 1.474 . S
C748 C216 1.467 . S
C757 C286 1.467 . S
C759 C230 1.473 . S
C768 C258 1.466 . S
C770 C426 1.473 . S
C779 C314 1.467 . S
C781 C370 1.473 . S
C790 C398 1.475 . S
C792 C342 1.467 . S
C801 C51 1.469 . S
C803 C9 1.464 . S
C812 C37 1.470 . S
C814 C23 1.468 . S
C823 C107 1.464 . S
C825 C65 1.468 . S
C834 C93 1.470 . S
C836 C79 1.464 . S
C845 C163 1.468 . S
C847 C121 1.469 . S
C856 C149 1.470 . S
C858 C135 1.464 . S
C867 C219 1.465 . S
C869 C177 1.470 . S
C878 C205 1.463 . S
C880 C191 1.468 . S
C889 C233 1.467 . S
C891 C275 1.465 . S
C900 C261 1.465 . S
C902 C247 1.465 . S
C911 C289 1.464 . S
C913 C331 1.468 . S
C922 C317 1.465 . S
C924 C303 1.466 . S
C933 C387 1.469 . S
C935 C345 1.464 . S
C944 C359 1.465 . S
C946 C373 1.470 . S
C955 C401 1.471 . S
C957 C443 1.466 . S
C966 C429 1.468 . S
C968 C415 1.464 . S
C977 C35 1.512 1_545 S
C979 C7 1.508 . S
C988 C21 1.507 1_545 S
C990 C49 1.511 . S
C999 C63 1.511 . S
C1001 C91 1.508 1_565 S
C1010 C77 1.512 1_565 S
C1012 C105 1.510 . S
C1021 C119 1.508 . S
C1023 C147 1.509 . S
C1032 C133 1.511 . S
C1034 C161 1.508 . S
C1043 C203 1.511 . S
C1045 C175 1.511 . S
C1054 C217 1.511 . S
C1056 C189 1.508 . S
C1065 C259 1.508 1_545 S
C1067 C231 1.510 . S
C1076 C273 1.508 . S
C1078 C245 1.512 1_545 S
C1087 C287 1.509 . S
C1089 C315 1.512 1_565 S
C1098 C329 1.512 . S
C1100 C301 1.508 1_565 S
C1109 C371 1.508 . S
C1111 C343 1.512 . S
C1120 C357 1.512 . S
C1122 C385 1.508 . S
C1131 C399 1.508 . S
C1133 C427 1.512 . S
C1142 C441 1.507 . S
C1144 C413 1.510 . S
