# Generated by pormake.
# Topology zfk, (5)-cn, num edge types: 1
# Building blocks:
#     Node 0, Type 0, BuildingBlock: BEQFEK_clean_sbu_0, # of connection points: 5
#     Node 1, Type 0, BuildingBlock: BEQFEK_clean_sbu_0, # of connection points: 5
#     Node 2, Type 0, BuildingBlock: BEQFEK_clean_sbu_0, # of connection points: 5
#     Node 3, Type 0, BuildingBlock: BEQFEK_clean_sbu_0, # of connection points: 5
#     Node 4, Type 0, BuildingBlock: BEQFEK_clean_sbu_0, # of connection points: 5
#     Node 5, Type 0, BuildingBlock: BEQFEK_clean_sbu_0, # of connection points: 5
#     Node 6, Type 0, BuildingBlock: BEQFEK_clean_sbu_0, # of connection points: 5
#     Node 7, Type 0, BuildingBlock: BEQFEK_clean_sbu_0, # of connection points: 5
#     Node 8, Type 0, BuildingBlock: BEQFEK_clean_sbu_0, # of connection points: 5
#     Node 9, Type 0, BuildingBlock: BEQFEK_clean_sbu_0, # of connection points: 5
#     Node 10, Type 0, BuildingBlock: BEQFEK_clean_sbu_0, # of connection points: 5
#     Node 11, Type 0, BuildingBlock: BEQFEK_clean_sbu_0, # of connection points: 5
#     Node 12, Type 0, BuildingBlock: BEQFEK_clean_sbu_0, # of connection points: 5
#     Node 13, Type 0, BuildingBlock: BEQFEK_clean_sbu_0, # of connection points: 5
#     Node 14, Type 0, BuildingBlock: BEQFEK_clean_sbu_0, # of connection points: 5
#     Node 15, Type 0, BuildingBlock: BEQFEK_clean_sbu_0, # of connection points: 5
#     Edge 16, Type (0, 0), BuildingBlock: CIFDUS_clean_linker_0, # of connection points: 2
#     Edge 17, Type (0, 0), BuildingBlock: CIFDUS_clean_linker_0, # of connection points: 2
#     Edge 18, Type (0, 0), BuildingBlock: CIFDUS_clean_linker_0, # of connection points: 2
#     Edge 19, Type (0, 0), BuildingBlock: CIFDUS_clean_linker_0, # of connection points: 2
#     Edge 20, Type (0, 0), BuildingBlock: CIFDUS_clean_linker_0, # of connection points: 2
#     Edge 21, Type (0, 0), BuildingBlock: CIFDUS_clean_linker_0, # of connection points: 2
#     Edge 22, Type (0, 0), BuildingBlock: CIFDUS_clean_linker_0, # of connection points: 2
#     Edge 23, Type (0, 0), BuildingBlock: CIFDUS_clean_linker_0, # of connection points: 2
#     Edge 24, Type (0, 0), BuildingBlock: CIFDUS_clean_linker_0, # of connection points: 2
#     Edge 25, Type (0, 0), BuildingBlock: CIFDUS_clean_linker_0, # of connection points: 2
#     Edge 26, Type (0, 0), BuildingBlock: CIFDUS_clean_linker_0, # of connection points: 2
#     Edge 27, Type (0, 0), BuildingBlock: CIFDUS_clean_linker_0, # of connection points: 2
#     Edge 28, Type (0, 0), BuildingBlock: CIFDUS_clean_linker_0, # of connection points: 2
#     Edge 29, Type (0, 0), BuildingBlock: CIFDUS_clean_linker_0, # of connection points: 2
#     Edge 30, Type (0, 0), BuildingBlock: CIFDUS_clean_linker_0, # of connection points: 2
#     Edge 31, Type (0, 0), BuildingBlock: CIFDUS_clean_linker_0, # of connection points: 2
#     Edge 32, Type (0, 0), BuildingBlock: CIFDUS_clean_linker_0, # of connection points: 2
#     Edge 33, Type (0, 0), BuildingBlock: CIFDUS_clean_linker_0, # of connection points: 2
#     Edge 34, Type (0, 0), BuildingBlock: CIFDUS_clean_linker_0, # of connection points: 2
#     Edge 35, Type (0, 0), BuildingBlock: CIFDUS_clean_linker_0, # of connection points: 2
#     Edge 36, Type (0, 0), BuildingBlock: CIFDUS_clean_linker_0, # of connection points: 2
#     Edge 37, Type (0, 0), BuildingBlock: CIFDUS_clean_linker_0, # of connection points: 2
#     Edge 38, Type (0, 0), BuildingBlock: CIFDUS_clean_linker_0, # of connection points: 2
#     Edge 39, Type (0, 0), BuildingBlock: CIFDUS_clean_linker_0, # of connection points: 2
#     Edge 40, Type (0, 0), BuildingBlock: CIFDUS_clean_linker_0, # of connection points: 2
#     Edge 41, Type (0, 0), BuildingBlock: CIFDUS_clean_linker_0, # of connection points: 2
#     Edge 42, Type (0, 0), BuildingBlock: CIFDUS_clean_linker_0, # of connection points: 2
#     Edge 43, Type (0, 0), BuildingBlock: CIFDUS_clean_linker_0, # of connection points: 2
#     Edge 44, Type (0, 0), BuildingBlock: CIFDUS_clean_linker_0, # of connection points: 2
#     Edge 45, Type (0, 0), BuildingBlock: CIFDUS_clean_linker_0, # of connection points: 2
#     Edge 46, Type (0, 0), BuildingBlock: CIFDUS_clean_linker_0, # of connection points: 2
#     Edge 47, Type (0, 0), BuildingBlock: CIFDUS_clean_linker_0, # of connection points: 2
#     Edge 48, Type (0, 0), BuildingBlock: CIFDUS_clean_linker_0, # of connection points: 2
#     Edge 49, Type (0, 0), BuildingBlock: CIFDUS_clean_linker_0, # of connection points: 2
#     Edge 50, Type (0, 0), BuildingBlock: CIFDUS_clean_linker_0, # of connection points: 2
#     Edge 51, Type (0, 0), BuildingBlock: CIFDUS_clean_linker_0, # of connection points: 2
#     Edge 52, Type (0, 0), BuildingBlock: CIFDUS_clean_linker_0, # of connection points: 2
#     Edge 53, Type (0, 0), BuildingBlock: CIFDUS_clean_linker_0, # of connection points: 2
#     Edge 54, Type (0, 0), BuildingBlock: CIFDUS_clean_linker_0, # of connection points: 2
#     Edge 55, Type (0, 0), BuildingBlock: CIFDUS_clean_linker_0, # of connection points: 2
# Relax obj value: 0.161
# Max RMSD: 0.136
# Mean RMSD: 0.136
data_MOF--net-zfk--node1-BEQFEK_clean_sbu_0--edge1-CIFDUS_clean_linker_0
_symmetry_space_group_name_H-M    P1
_symmetry_Int_Tables_number       1
_symmetry_cell_setting            triclinic
loop_
_symmetry_equiv_pos_as_xyz
'x, y, z'
_cell_length_a     27.375034
_cell_length_b     27.298416
_cell_length_c     67.582548
_cell_angle_alpha  89.926342
_cell_angle_beta   90.131266
_cell_angle_gamma 90.13566
loop_
_atom_site_label
_atom_site_type_symbol
_atom_site_fract_x
_atom_site_fract_y
_atom_site_fract_z
_atom_type_partial_charge
Co0 Co 0.04634 0.32004 0.09566 0.0
Co1 Co 0.06398 0.30905 0.14184 0.0
C2 C 0.00789 0.23598 0.12245 0.0
O3 O 0.01823 0.25988 0.10685 0.0
O4 O 0.01882 0.25259 0.13952 0.0
C5 C 0.98616 0.29969 0.06186 0.0
O6 O 0.95891 0.27716 0.07501 0.0
C7 C 0.0705 0.31336 0.18632 0.0
C8 C 0.14099 0.35241 0.18915 0.0
C9 C 0.10272 0.33351 0.20014 0.0
N10 N 0.08901 0.32064 0.16806 0.0
N11 N 0.13137 0.34347 0.16999 0.0
C12 C 0.02128 0.29152 0.19015 0.0
H13 H 0.02573 0.25239 0.19421 0.0
H14 H -0.00184 0.29364 0.17666 0.0
H15 H 0.00312 0.31059 0.20262 0.0
C16 C 0.03357 0.42224 0.10775 0.0
N17 N 0.03621 0.37432 0.11205 0.0
N18 N 0.03831 0.36855 0.13135 0.0
C19 C 0.03377 0.41262 0.14006 0.0
C20 C 0.03193 0.44861 0.12544 0.0
C21 C 0.04055 0.44155 0.08719 0.0
H22 H 0.05944 0.41399 0.0779 0.0
H23 H 0.00432 0.44891 0.08044 0.0
H24 H 0.0622 0.47597 0.08732 0.0
O25 O 0.11549 0.30703 0.09436 0.0
O26 O 0.12264 0.28875 0.12632 0.0
H27 H 0.06652 0.42352 0.16851 0.0
H28 H 0.00784 0.4526 0.16547 0.0
C29 C 0.02957 0.41948 0.16196 0.0
H30 H 0.01156 0.38713 0.16869 0.0
H31 H 0.15314 0.3543 0.1581 0.0
O32 O 0.02238 0.32524 0.06778 0.0
C33 C 0.13992 0.29022 0.10881 0.0
Co34 Co 0.15962 0.02915 0.59328 0.0
Co35 Co 0.15627 0.04728 0.63932 0.0
C36 C 0.23925 -0.00155 0.62345 0.0
O37 O 0.22061 0.00663 0.60647 0.0
O38 O 0.21595 0.00734 0.63934 0.0
C39 C 0.19077 0.97465 0.55907 0.0
O40 O 0.21401 0.94743 0.57205 0.0
C41 C 0.14285 0.05377 0.68336 0.0
C42 C 0.09639 0.11984 0.6845 0.0
C43 C 0.11742 0.08419 0.69634 0.0
N44 N 0.13616 0.07053 0.66479 0.0
N45 N 0.10869 0.11019 0.66569 0.0
C46 C 0.17435 0.0108 0.6884 0.0
H47 H 0.2029 0.00571 0.677 0.0
H48 H 0.15148 0.97721 0.68882 0.0
H49 H 0.19189 0.01585 0.70308 0.0
C50 C 0.05777 -0.00274 0.60144 0.0
N51 N 0.10281 0.01087 0.60733 0.0
N52 N 0.10319 0.01546 0.6267 0.0
C53 C 0.0591 0.00292 0.63386 0.0
C54 C 0.02831 0.99203 0.61811 0.0
C55 C 0.04228 -0.00482 0.58021 0.0
H56 H 0.06674 0.0181 0.57095 0.0
H57 H 0.04463 0.95675 0.57497 0.0
H58 H 0.00402 0.00783 0.57845 0.0
O59 O 0.16554 0.10019 0.59255 0.0
O60 O 0.17522 0.1078 0.62499 0.0
H61 H 0.03735 0.03695 0.66093 0.0
H62 H 0.01634 0.97465 0.65818 0.0
C63 C 0.04732 5e-05 0.65545 0.0
H64 H 0.07966 0.987 0.66379 0.0
H65 H 0.09771 0.13036 0.65333 0.0
O66 O 0.16195 0.00787 0.56517 0.0
C67 C 0.17661 0.12565 0.60759 0.0
Co68 Co 0.49218 0.16632 0.09875 0.0
Co69 Co 0.46812 0.15897 0.14454 0.0
C70 C 0.50193 0.25239 0.12767 0.0
O71 O 0.5056 0.23152 0.11089 0.0
O72 O 0.48869 0.22881 0.14309 0.0
C73 C 0.54066 0.20341 0.06381 0.0
O74 O 0.56153 0.23375 0.07632 0.0
C75 C 0.45761 0.15262 0.1887 0.0
C76 C 0.40331 0.09262 0.19025 0.0
C77 C 0.43068 0.12404 0.2019 0.0
N78 N 0.4466 0.13822 0.17017 0.0
N79 N 0.41384 0.10268 0.17129 0.0
C80 C 0.49503 0.19083 0.19344 0.0
H81 H 0.47657 0.22671 0.19516 0.0
H82 H 0.52178 0.194 0.18118 0.0
H83 H 0.51419 0.1819 0.20748 0.0
C84 C 0.53172 0.06771 0.1082 0.0
N85 N 0.5175 0.11284 0.11384 0.0
N86 N 0.51274 0.11337 0.13324 0.0
C87 C 0.52664 0.06958 0.14055 0.0
C88 C 0.53761 0.03851 0.12496 0.0
C89 C 0.53225 0.05104 0.08714 0.0
H90 H 0.552 0.07828 0.07794 0.0
H91 H 0.54982 0.0146 0.08571 0.0
H92 H 0.49413 0.04883 0.08158 0.0
O93 O 0.4208 0.16106 0.09742 0.0
O94 O 0.40704 0.15608 0.12964 0.0
H95 H 0.4855 0.03765 0.16416 0.0
H96 H 0.54998 0.02764 0.16589 0.0
C97 C 0.52175 0.05486 0.1618 0.0
H98 H 0.52604 0.08717 0.17154 0.0
H99 H 0.39898 0.08482 0.15902 0.0
O100 O 0.51377 0.16902 0.0705 0.0
C101 C 0.39169 0.15708 0.11193 0.0
Co102 Co 0.31184 0.48036 0.60005 0.0
Co103 Co 0.31536 0.45968 0.64645 0.0
C104 C 0.22683 0.50115 0.62834 0.0
O105 O 0.24821 0.50114 0.61159 0.0
O106 O 0.24845 0.48701 0.6441 0.0
C107 C 0.2811 0.52801 0.56366 0.0
O108 O 0.25168 0.55252 0.57533 0.0
C109 C 0.32332 0.45245 0.69111 0.0
C110 C 0.37704 0.39226 0.69259 0.0
C111 C 0.35021 0.42365 0.70439 0.0
N112 N 0.33469 0.43868 0.67251 0.0
N113 N 0.36652 0.40249 0.67366 0.0
C114 C 0.28636 0.49098 0.69573 0.0
H115 H 0.26158 0.49669 0.68294 0.0
H116 H 0.30549 0.52605 0.69879 0.0
H117 H 0.26475 0.4805 0.70895 0.0
C118 C 0.41206 0.51659 0.60997 0.0
N119 N 0.36651 0.50285 0.61522 0.0
N120 N 0.36464 0.49934 0.63466 0.0
C121 C 0.40792 0.51334 0.64234 0.0
C122 C 0.43987 0.52362 0.62702 0.0
C123 C 0.42998 0.51709 0.5891 0.0
H124 H 0.40361 0.53711 0.5796 0.0
H125 H 0.46661 0.53442 0.58804 0.0
H126 H 0.43205 0.47886 0.5836 0.0
O127 O 0.30997 0.4084 0.60002 0.0
O128 O 0.31213 0.39711 0.63248 0.0
H129 H 0.4344 0.47295 0.66725 0.0
H130 H 0.45016 0.53669 0.66768 0.0
C131 C 0.42086 0.51027 0.66383 0.0
H132 H 0.38841 0.51839 0.67301 0.0
H133 H 0.38159 0.385 0.66139 0.0
O134 O 0.31243 0.49913 0.57133 0.0
C135 C 0.31009 0.38031 0.615 0.0
Co136 Co 0.02173 0.17233 0.91512 0.0
Co137 Co 0.0392 0.15546 0.86931 0.0
C138 C 0.00466 0.25009 0.88283 0.0
O139 O 0.00532 0.23289 0.90034 0.0
O140 O 0.01565 0.22369 0.86797 0.0
C141 C 0.0255 0.22526 0.94876 0.0
O142 O 0.05477 0.24702 0.93609 0.0
C143 C 0.04593 0.14387 0.82554 0.0
C144 C 0.0966 0.08104 0.82406 0.0
C145 C 0.07138 0.11412 0.81235 0.0
N146 N 0.0561 0.12895 0.84407 0.0
N147 N 0.08641 0.09145 0.84303 0.0
C148 C 0.01151 0.18473 0.82084 0.0
H149 H 0.03217 0.21974 0.82039 0.0
H150 H 0.98332 0.18766 0.83255 0.0
H151 H -0.00637 0.17882 0.80628 0.0
C152 C 0.97755 0.07303 0.91024 0.0
N153 N -0.00564 0.11581 0.90293 0.0
N154 N -0.00274 0.11238 0.88353 0.0
C155 C 0.9799 0.06853 0.8778 0.0
C156 C 0.9683 0.04114 0.89451 0.0
C157 C 0.97776 0.06085 0.93183 0.0
H158 H 0.00014 0.08774 0.9402 0.0
H159 H 0.93977 0.06205 0.93749 0.0
H160 H -0.00774 0.02339 0.93429 0.0
O161 O 0.09298 0.16739 0.91491 0.0
O162 O 0.10302 0.15932 0.88257 0.0
H163 H 0.00838 0.0369 0.85121 0.0
H164 H 0.94422 0.02621 0.85502 0.0
C165 C 0.97406 0.05354 0.85661 0.0
H166 H 0.96583 0.08605 0.84733 0.0
H167 H 0.10069 0.07332 0.85535 0.0
O168 O 0.00299 0.18665 0.94319 0.0
C169 C 0.12049 0.16356 0.89992 0.0
Co170 Co 0.34269 0.02448 0.42101 0.0
Co171 Co 0.35392 0.04587 0.3751 0.0
C172 C 0.26619 -0.00231 0.38991 0.0
O173 O 0.28343 0.00254 0.40728 0.0
O174 O 0.29064 0.0097 0.37462 0.0
C175 C 0.32424 0.96002 0.45462 0.0
O176 O 0.3247 0.92358 0.44196 0.0
C177 C 0.37019 0.05128 0.33108 0.0
C178 C 0.40944 0.12205 0.32976 0.0
C179 C 0.39263 0.08409 0.31798 0.0
N180 N 0.37453 0.06917 0.34958 0.0
N181 N 0.39769 0.11161 0.34856 0.0
C182 C 0.34335 0.005 0.32629 0.0
H183 H 0.31816 -0.00502 0.33846 0.0
H184 H 0.37005 0.97482 0.32452 0.0
H185 H 0.32239 0.00914 0.31231 0.0
C186 C 0.44483 0.99169 0.4152 0.0
N187 N 0.40091 0.00476 0.40793 0.0
N188 N 0.40492 0.01257 0.38875 0.0
C189 C 0.45145 0.00462 0.3832 0.0
C190 C 0.47864 0.99165 0.39983 0.0
C191 C 0.45472 0.98379 0.43674 0.0
H192 H 0.454 0.01962 0.44448 0.0
H193 H 0.42561 0.96051 0.44319 0.0
H194 H 0.49068 0.96605 0.43917 0.0
O195 O 0.33739 0.09606 0.42153 0.0
O196 O 0.34056 0.10704 0.38904 0.0
H197 H 0.47172 0.05885 0.36197 0.0
H198 H 0.50791 0.00483 0.36034 0.0
C199 C 0.47065 0.01839 0.36318 0.0
H200 H 0.44602 0.00366 0.35159 0.0
H201 H 0.40594 0.13339 0.36079 0.0
O202 O 0.33505 0.00303 0.44886 0.0
C203 C 0.33558 0.12372 0.40644 0.0
Co204 Co 0.46807 0.32448 0.92094 0.0
Co205 Co 0.44029 0.33877 0.87579 0.0
C206 C 0.49986 0.2564 0.88682 0.0
O207 O 0.49539 0.27027 0.90474 0.0
O208 O 0.48338 0.28213 0.87255 0.0
C209 C 0.53491 0.32393 0.95615 0.0
O210 O 0.56883 0.34656 0.94588 0.0
C211 C 0.4255 0.35424 0.83242 0.0
C212 C 0.35963 0.40091 0.83288 0.0
C213 C 0.39232 0.37853 0.8202 0.0
N214 N 0.41266 0.36197 0.85138 0.0
N215 N 0.3732 0.38976 0.85148 0.0
C216 C 0.46999 0.32631 0.82643 0.0
H217 H 0.46036 0.28697 0.82494 0.0
H218 H 0.49869 0.32967 0.83798 0.0
H219 H 0.48432 0.33982 0.81207 0.0
C220 C 0.4856 0.43175 0.91671 0.0
N221 N 0.47743 0.38684 0.90913 0.0
N222 N 0.4699 0.3909 0.88996 0.0
C223 C 0.47555 0.43795 0.88454 0.0
C224 C 0.48429 0.46588 0.90134 0.0
C225 C 0.48779 0.44205 0.93844 0.0
H226 H 0.47048 0.41184 0.9469 0.0
H227 H 0.52659 0.44509 0.94307 0.0
H228 H 0.46924 0.47709 0.94193 0.0
O229 O 0.39839 0.31053 0.92271 0.0
O230 O 0.38369 0.31223 0.8904 0.0
H231 H 0.43592 0.46412 0.85932 0.0
H232 H 0.49667 0.48888 0.86164 0.0
C233 C 0.47407 0.45539 0.86353 0.0
H234 H 0.4878 0.42639 0.85351 0.0
H235 H 0.3555 0.4012 0.86433 0.0
O236 O 0.49346 0.3153 0.94836 0.0
C237 C 0.37023 0.30346 0.90806 0.0
Co238 Co 0.17002 0.46207 0.41836 0.0
Co239 Co 0.15913 0.43502 0.37272 0.0
C240 C 0.24899 0.47868 0.38643 0.0
O241 O 0.23166 0.47785 0.40394 0.0
O242 O 0.223 0.46706 0.37149 0.0
C243 C 0.17536 0.52992 0.45326 0.0
O244 O 0.15972 0.56628 0.44221 0.0
C245 C 0.14949 0.41961 0.32872 0.0
C246 C 0.08785 0.36724 0.32829 0.0
C247 C 0.11931 0.39275 0.31597 0.0
N248 N 0.1355 0.4109 0.34754 0.0
N249 N 0.09899 0.37917 0.34707 0.0
C250 C 0.19305 0.45002 0.32336 0.0
H251 H 0.22048 0.44909 0.3354 0.0
H252 H 0.18143 0.48856 0.32116 0.0
H253 H 0.21029 0.43646 0.30958 0.0
C254 C 0.06929 0.4988 0.41038 0.0
N255 N 0.11318 0.48225 0.40438 0.0
N256 N 0.11159 0.47483 0.38513 0.0
C257 C 0.06792 0.48911 0.37813 0.0
C258 C 0.03888 0.50332 0.39389 0.0
C259 C 0.05492 0.50306 0.43165 0.0
H260 H 0.08046 0.48213 0.4412 0.0
H261 H 0.05614 0.54218 0.43606 0.0
H262 H 0.01713 0.48937 0.4339 0.0
O263 O 0.17041 0.39095 0.42078 0.0
O264 O 0.17293 0.37576 0.38853 0.0
H265 H 0.03931 0.45449 0.35211 0.0
H266 H 0.02692 0.51898 0.35367 0.0
C267 C 0.05473 0.49033 0.35661 0.0
H268 H 0.0877 0.49782 0.34757 0.0
H269 H 0.08137 0.36585 0.35966 0.0
O270 O 0.17885 0.48718 0.44594 0.0
C271 C 0.17587 0.36156 0.40645 0.0
Co272 Co 0.94557 0.66995 0.91936 0.0
Co273 Co 0.91852 0.65631 0.87387 0.0
C274 C 0.95735 0.74975 0.88762 0.0
O275 O 0.95741 0.73222 0.90509 0.0
O276 O 0.94614 0.72374 0.87259 0.0
C277 C 0.99006 0.71535 0.95364 0.0
O278 O 0.00442 0.74865 0.94085 0.0
C279 C 0.90481 0.63865 0.83003 0.0
C280 C 0.84609 0.58304 0.83179 0.0
C281 C 0.87565 0.60778 0.81856 0.0
N282 N 0.89319 0.63168 0.84921 0.0
N283 N 0.85754 0.59898 0.85 0.0
C284 C 0.94535 0.67111 0.8231 0.0
H285 H 0.97151 0.67827 0.83534 0.0
H286 H 0.96451 0.65424 0.81037 0.0
H287 H 0.92977 0.70657 0.81815 0.0
C288 C 0.98852 0.572 0.91205 0.0
N289 N 0.97021 0.61466 0.90535 0.0
N290 N 0.96128 0.61058 0.88626 0.0
C291 C 0.9748 0.56568 0.88012 0.0
C292 C 0.9913 0.53894 0.89637 0.0
C293 C -0.00203 0.56178 0.93347 0.0
H294 H 0.01845 0.59283 0.94008 0.0
H295 H 0.01902 0.52741 0.93547 0.0
H296 H 0.96257 0.55872 0.94135 0.0
O297 O 0.87465 0.66491 0.92172 0.0
O298 O 0.85866 0.66056 0.88962 0.0
H299 H 0.92587 0.53244 0.85938 0.0
H300 H 0.98836 0.5162 0.85551 0.0
C301 C 0.96391 0.5464 0.85983 0.0
H302 H 0.96856 0.57597 0.84879 0.0
H303 H 0.84187 0.5864 0.86312 0.0
O304 O 0.96877 0.67682 0.94733 0.0
C305 C 0.84452 0.66253 0.90748 0.0
Co306 Co 0.84284 0.95204 0.42425 0.0
Co307 Co 0.85446 0.91673 0.37962 0.0
C308 C 0.76715 0.96943 0.39112 0.0
O309 O 0.78329 0.97104 0.40884 0.0
O310 O 0.79274 0.95221 0.37703 0.0
C311 C 0.80237 0.00598 0.45727 0.0
O312 O 0.77288 0.02421 0.44382 0.0
C313 C 0.86374 0.89962 0.33626 0.0
C314 C 0.91738 0.83925 0.3359 0.0
C315 C 0.8892 0.86848 0.32363 0.0
N316 N 0.87629 0.88897 0.35504 0.0
N317 N 0.90824 0.85276 0.35467 0.0
C318 C 0.83029 0.94068 0.3307 0.0
H319 H 0.79208 0.92703 0.33067 0.0
H320 H 0.8331 0.97062 0.34174 0.0
H321 H 0.83916 0.95514 0.31578 0.0
C322 C 0.94564 0.98321 0.41639 0.0
N323 N 0.90173 0.9662 0.41046 0.0
N324 N 0.90419 0.95485 0.39156 0.0
C325 C 0.9487 0.96647 0.38463 0.0
C326 C 0.97715 0.98363 0.40018 0.0
C327 C 0.95825 0.99337 0.43755 0.0
H328 H 0.93325 0.97315 0.44755 0.0
H329 H 0.95419 0.03316 0.44041 0.0
H330 H -0.00344 0.98278 0.44079 0.0
O331 O 0.8364 0.88141 0.42797 0.0
O332 O 0.83675 0.8602 0.39627 0.0
H333 H 0.97573 0.92541 0.36004 0.0
H334 H -0.00739 0.98927 0.35974 0.0
C335 C 0.96287 0.96301 0.36329 0.0
H336 H 0.93088 0.97103 0.35374 0.0
H337 H 0.92397 0.83732 0.3673 0.0
O338 O 0.83772 0.97892 0.45179 0.0
C339 C 0.83146 0.8496 0.41447 0.0
Co340 Co 0.50069 0.83334 0.92252 0.0
Co341 Co 0.53135 0.83019 0.87709 0.0
C342 C 0.46647 0.75569 0.89333 0.0
O343 O 0.47215 0.77494 0.91029 0.0
O344 O 0.48235 0.77639 0.8777 0.0
C345 C 0.43468 0.82534 0.95648 0.0
O346 O 0.39884 0.82167 0.94362 0.0
C347 C 0.53464 0.85143 0.83352 0.0
C348 C 0.61375 0.84395 0.82803 0.0
C349 C 0.57012 0.85558 0.8187 0.0
N350 N 0.55677 0.83848 0.8506 0.0
N351 N 0.60397 0.83373 0.84707 0.0
C352 C 0.48131 0.86269 0.83211 0.0
H353 H 0.46596 0.86944 0.84705 0.0
H354 H 0.47515 0.89511 0.8225 0.0
H355 H 0.46192 0.83081 0.82559 0.0
C356 C 0.48816 0.93761 0.91281 0.0
N357 N 0.49421 0.89093 0.90698 0.0
N358 N 0.51026 0.89042 0.8886 0.0
C359 C 0.51683 0.93698 0.88245 0.0
C360 C 0.50263 0.96856 0.8975 0.0
C361 C 0.47231 0.95165 0.93319 0.0
H362 H 0.50419 0.94991 0.94334 0.0
H363 H 0.44445 0.92534 0.93862 0.0
H364 H 0.45699 0.98924 0.93339 0.0
O365 O 0.57012 0.81697 0.92486 0.0
O366 O 0.58582 0.80447 0.89297 0.0
H367 H 0.57645 0.92474 0.8625 0.0
H368 H 0.56161 0.98792 0.86558 0.0
C369 C 0.54582 0.95062 0.86445 0.0
H370 H 0.52186 0.94908 0.85123 0.0
H371 H 0.62982 0.82437 0.85779 0.0
O372 O 0.47767 0.83495 0.9505 0.0
C373 C 0.59799 0.80214 0.91114 0.0
Co374 Co 0.67471 0.50923 0.41787 0.0
Co375 Co 0.65825 0.54674 0.37349 0.0
C376 C 0.7497 0.4983 0.38506 0.0
O377 O 0.73363 0.49429 0.40259 0.0
O378 O 0.72385 0.51615 0.37114 0.0
C379 C 0.7268 0.49045 0.45183 0.0
O380 O 0.75705 0.51591 0.44078 0.0
C381 C 0.63698 0.55486 0.33001 0.0
C382 C 0.60299 0.62812 0.32916 0.0
C383 C 0.61508 0.58878 0.31719 0.0
N384 N 0.63659 0.57337 0.3485 0.0
N385 N 0.61668 0.61737 0.34775 0.0
C386 C 0.65936 0.5065 0.32505 0.0
H387 H 0.68442 0.49449 0.337 0.0
H388 H 0.63007 0.47856 0.3236 0.0
H389 H 0.67965 0.50888 0.31088 0.0
C390 C 0.57369 0.47439 0.41117 0.0
N391 N 0.61656 0.49115 0.40413 0.0
N392 N 0.61029 0.50609 0.38573 0.0
C393 C 0.56319 0.49966 0.38055 0.0
C394 C 0.53814 0.47956 0.39654 0.0
C395 C 0.56625 0.459 0.4322 0.0
H396 H 0.56523 0.49206 0.44173 0.0
H397 H 0.59745 0.43614 0.43714 0.0
H398 H 0.53165 0.43818 0.43394 0.0
O399 O 0.6764 0.58042 0.42159 0.0
O400 O 0.66726 0.60439 0.39036 0.0
H401 H 0.54652 0.56269 0.36312 0.0
H402 H 0.50172 0.51575 0.36072 0.0
C403 C 0.54126 0.52251 0.36241 0.0
H404 H 0.56012 0.5083 0.34913 0.0
H405 H 0.61177 0.63992 0.36004 0.0
O406 O 0.68451 0.48045 0.44492 0.0
C407 C 0.67354 0.61393 0.40859 0.0
Co408 Co 0.93731 0.81665 0.10031 0.0
Co409 Co 0.9434 0.80944 0.14709 0.0
C410 C 0.99219 0.73711 0.12451 0.0
O411 O 0.97383 0.75993 0.10988 0.0
O412 O 0.98834 0.75377 0.14209 0.0
C413 C 0.98826 0.82938 0.06245 0.0
O414 O 0.02496 0.84769 0.0726 0.0
C415 C 0.94669 0.81398 0.19203 0.0
C416 C 0.88104 0.85981 0.19611 0.0
C417 C 0.9177 0.83623 0.20653 0.0
N418 N 0.9277 0.82464 0.17409 0.0
N419 N 0.88845 0.85183 0.17679 0.0
C420 C 0.98987 0.78135 0.19498 0.0
H421 H -0.00426 0.75821 0.18172 0.0
H422 H 0.02294 0.80426 0.19725 0.0
H423 H 0.98464 0.75772 0.20818 0.0
C424 C 0.95449 0.92056 0.10987 0.0
N425 N 0.95351 0.8729 0.1148 0.0
N426 N 0.96148 0.86832 0.1339 0.0
C427 C 0.97046 0.91281 0.14163 0.0
C428 C 0.96511 0.94788 0.12681 0.0
C429 C 0.939 0.93893 0.08994 0.0
H430 H 0.91625 0.91104 0.0823 0.0
H431 H 0.97191 0.94583 0.08079 0.0
H432 H 0.91812 0.97356 0.09129 0.0
O433 O 0.86963 0.79888 0.10472 0.0
O434 O 0.87974 0.78579 0.13685 0.0
H435 H 0.95312 0.92766 0.17192 0.0
H436 H 0.01048 0.95305 0.16383 0.0
C437 C 0.98578 0.92088 0.16267 0.0
H438 H 0.00476 0.88795 0.16845 0.0
H439 H 0.86667 0.86518 0.16531 0.0
O440 O 0.94871 0.81845 0.07125 0.0
C441 C 0.85378 0.78344 0.12123 0.0
Co442 Co 0.66283 0.95797 0.59949 0.0
Co443 Co 0.64796 0.94648 0.64605 0.0
C444 C 0.73971 0.98338 0.6312 0.0
O445 O 0.72218 0.97659 0.61398 0.0
O446 O 0.7141 0.97687 0.64672 0.0
C447 C 0.67196 0.0178 0.56278 0.0
O448 O 0.6533 0.05519 0.57233 0.0
C449 C 0.6329 0.94399 0.69033 0.0
C450 C 0.577 0.88563 0.69186 0.0
C451 C 0.60472 0.91655 0.70365 0.0
N452 N 0.62208 0.92942 0.67175 0.0
N453 N 0.58864 0.89457 0.6729 0.0
C454 C 0.66808 0.98443 0.69485 0.0
H455 H 0.67112 0.0096 0.68199 0.0
H456 H 0.65623 0.00516 0.70811 0.0
H457 H 0.70468 0.96855 0.69774 0.0
C458 C 0.56228 -0.00443 0.60348 0.0
N459 N 0.60578 0.98351 0.61139 0.0
N460 N 0.60198 0.98287 0.63083 0.0
C461 C 0.55664 -0.00314 0.6359 0.0
C462 C 0.52939 0.00411 0.61877 0.0
C463 C 0.55055 0.99012 0.58195 0.0
H464 H 0.57831 0.96711 0.57451 0.0
H465 H 0.55037 0.02686 0.5749 0.0
H466 H 0.51388 0.97342 0.5799 0.0
O467 O 0.66103 0.88697 0.60068 0.0
O468 O 0.65632 0.88152 0.63342 0.0
H469 H 0.52627 0.96616 0.66234 0.0
H470 H 0.50915 0.02877 0.65776 0.0
C471 C 0.53954 0.00202 0.65682 0.0
H472 H 0.57017 0.01426 0.6664 0.0
H473 H 0.57399 0.87648 0.66064 0.0
O474 O 0.67558 0.97646 0.57134 0.0
C475 C 0.66005 0.86167 0.61645 0.0
Co476 Co 0.49098 0.66792 0.09904 0.0
Co477 Co 0.51567 0.66136 0.14496 0.0
C478 C 0.47891 0.75322 0.12845 0.0
O479 O 0.47672 0.73256 0.11156 0.0
O480 O 0.4917 0.72978 0.14397 0.0
C481 C 0.44069 0.70446 0.06419 0.0
O482 O 0.4176 0.7327 0.07679 0.0
C483 C 0.53097 0.65503 0.18908 0.0
C484 C 0.58502 0.59499 0.18976 0.0
C485 C 0.55932 0.62656 0.20185 0.0
N486 N 0.53961 0.64044 0.17036 0.0
N487 N 0.57225 0.60486 0.17098 0.0
C488 C 0.49472 0.69362 0.19443 0.0
H489 H 0.51378 0.72943 0.19553 0.0
H490 H 0.46623 0.69655 0.18278 0.0
H491 H 0.47759 0.68529 0.20893 0.0
C492 C 0.45332 0.56812 0.10848 0.0
N493 N 0.46749 0.6134 0.11409 0.0
N494 N 0.47291 0.61387 0.13347 0.0
C495 C 0.45963 0.56988 0.14081 0.0
C496 C 0.44816 0.5388 0.12524 0.0
C497 C 0.4515 0.55167 0.08741 0.0
H498 H 0.48934 0.54853 0.08169 0.0
H499 H 0.43222 0.57944 0.07831 0.0
H500 H 0.43288 0.51565 0.08603 0.0
O501 O 0.5624 0.66499 0.09738 0.0
O502 O 0.57591 0.66395 0.12963 0.0
H503 H 0.50128 0.53795 0.16431 0.0
H504 H 0.43679 0.52815 0.16627 0.0
C505 C 0.46509 0.55528 0.16206 0.0
H506 H 0.46142 0.58765 0.1718 0.0
H507 H 0.58563 0.58699 0.15848 0.0
O508 O 0.46905 0.67122 0.07079 0.0
C509 C 0.59161 0.6651 0.11198 0.0
Co510 Co 0.80335 0.50305 0.6023 0.0
Co511 Co 0.81072 0.53831 0.64723 0.0
C512 C 0.72569 0.48362 0.63489 0.0
O513 O 0.74436 0.48257 0.61764 0.0
O514 O 0.7486 0.50199 0.64958 0.0
C515 C 0.75571 0.46713 0.56841 0.0
O516 O 0.71859 0.47595 0.58012 0.0
C517 C 0.82594 0.56401 0.69027 0.0
C518 C 0.8693 0.63172 0.68631 0.0
C519 C 0.84973 0.60136 0.70068 0.0
N520 N 0.83197 0.57206 0.67073 0.0
N521 N 0.85777 0.61269 0.66859 0.0
C522 C 0.79626 0.52276 0.69853 0.0
H523 H 0.76946 0.50958 0.68741 0.0
H524 H 0.82088 0.49191 0.70233 0.0
H525 H 0.77688 0.53447 0.71213 0.0
C526 C 0.9071 0.47601 0.61149 0.0
N527 N 0.86201 0.49076 0.61685 0.0
N528 N 0.86265 0.5017 0.63585 0.0
C529 C 0.9074 0.4925 0.64326 0.0
C530 C 0.93734 0.47656 0.62808 0.0
C531 C 0.92168 0.46534 0.59064 0.0
H532 H 0.89265 0.44369 0.5832 0.0
H533 H 0.95686 0.44523 0.59013 0.0
H534 H 0.92571 0.50044 0.5825 0.0
O535 O 0.79447 0.57371 0.59795 0.0
O536 O 0.79217 0.59221 0.62982 0.0
H537 H 0.95582 0.48417 0.66849 0.0
H538 H 0.89274 0.49559 0.67437 0.0
C539 C 0.92271 0.50456 0.66398 0.0
H540 H 0.93097 0.54426 0.66496 0.0
H541 H 0.86767 0.62745 0.65492 0.0
O542 O 0.79895 0.47342 0.57508 0.0
C543 C 0.78695 0.6041 0.61179 0.0
H544 H 0.95968 0.2009 0.97791 0.0
H545 H 0.08118 0.2969 0.96501 0.0
H546 H 0.07683 0.33143 0.99802 0.0
H547 H 0.04184 0.33203 0.03119 0.0
H548 H 0.92043 0.23674 0.04479 0.0
H549 H 0.92094 0.20533 0.01097 0.0
C550 C 0.98509 0.2294 0.98235 0.0
C551 C 0.02089 0.24586 0.96897 0.0
C552 C 0.98234 0.24963 1.00151 0.0
C553 C 0.05326 0.28324 0.97493 0.0
C554 C 0.05085 0.30321 0.99386 0.0
C555 C 0.01501 0.30488 0.02672 0.0
C556 C 0.9814 0.28668 0.04061 0.0
C557 C 0.01589 0.28642 1.00734 0.0
C558 C 0.94685 0.25151 0.03446 0.0
C559 C 0.94727 0.23322 0.01511 0.0
H560 H 0.26116 0.02068 0.47247 0.0
H561 H 0.33651 0.88367 0.48046 0.0
H562 H 0.29941 0.87421 0.51334 0.0
H563 H 0.2479 0.90725 0.54024 0.0
H564 H 0.16889 0.04204 0.53063 0.0
H565 H 0.20427 0.04946 0.49775 0.0
C566 C 0.26963 0.98886 0.48148 0.0
C567 C 0.30229 0.95343 0.47436 0.0
C568 C 0.24709 0.98307 0.49994 0.0
C569 C 0.31187 0.91164 0.48582 0.0
C570 C 0.29059 0.90623 0.50455 0.0
C571 C 0.23794 0.9379 0.53085 0.0
C572 C 0.20609 0.97425 0.53803 0.0
C573 C 0.25836 0.94195 0.51182 0.0
C574 C 0.19327 0.01351 0.52557 0.0
C575 C 0.21377 0.01802 0.50678 0.0
H576 H 0.59323 0.27396 0.04451 0.0
H577 H 0.48628 0.15989 0.03476 0.0
H578 H 0.47571 0.18706 1.00065 0.0
H579 H 0.49251 0.24635 0.97426 0.0
H580 H 0.60111 0.35891 0.98317 0.0
H581 H 0.61525 0.32928 0.01697 0.0
C582 C 0.56806 0.25461 0.03486 0.0
C583 C 0.54029 0.21513 0.04233 0.0
C584 C 0.56197 0.27056 0.01519 0.0
C585 C 0.50812 0.19037 0.02951 0.0
C586 C 0.50179 0.20608 0.00999 0.0
C587 C 0.51929 0.26446 0.9836 0.0
C588 C 0.54519 0.30529 0.97634 0.0
C589 C 0.52771 0.24674 1.00282 0.0
C590 C 0.58051 0.32762 0.98846 0.0
C591 C 0.58857 0.31067 1.00777 0.0
H592 H 0.24319 0.47835 0.47375 0.0
H593 H 0.14589 0.60165 0.47886 0.0
H594 H 0.1722 0.61401 0.5132 0.0
H595 H 0.22026 0.58715 0.54222 0.0
H596 H 0.31988 0.46567 0.53628 0.0
H597 H 0.29584 0.45583 0.50175 0.0
C598 C 0.22766 0.50791 0.48239 0.0
C599 C 0.19206 0.5386 0.47387 0.0
C600 C 0.24364 0.51531 0.50194 0.0
C601 C 0.17312 0.57738 0.48511 0.0
C602 C 0.18818 0.58443 0.50474 0.0
C603 C 0.23715 0.55887 0.53332 0.0
C604 C 0.27163 0.52698 0.54197 0.0
C605 C 0.22312 0.55333 0.51337 0.0
C606 C 0.29331 0.49078 0.53011 0.0
C607 C 0.27935 0.48489 0.51035 0.0
H608 H 0.9471 0.75169 0.04406 0.0
H609 H 0.04594 0.87248 0.03434 0.0
H610 H 0.05739 0.84645 0.99992 0.0
H611 H 0.03722 0.79038 0.97241 0.0
H612 H 0.94165 0.66713 0.98313 0.0
H613 H 0.93178 0.6926 0.01745 0.0
C614 C 0.97091 0.77252 0.03436 0.0
C615 C -0.00504 0.8145 0.04158 0.0
C616 C 0.97831 0.75656 0.01485 0.0
C617 C 0.02672 0.84033 0.02903 0.0
C618 C 0.03333 0.82536 1.0094 0.0
C619 C 0.01465 0.76878 0.98231 0.0
C620 C 0.99 0.72701 0.9751 0.0
C621 C 0.00915 0.7836 1.00212 0.0
C622 C 0.96117 0.69933 0.98821 0.0
C623 C 0.95519 0.71407 1.00784 0.0
H624 H 0.73232 0.06309 0.47431 0.0
H625 H 0.84031 0.95301 0.488 0.0
H626 H 0.80915 0.94697 0.52169 0.0
H627 H 0.74818 0.96908 0.54672 0.0
H628 H 0.6425 0.08166 0.53392 0.0
H629 H 0.67557 0.09038 0.5004 0.0
C630 C 0.74948 0.03823 0.48473 0.0
C631 C 0.78846 0.00831 0.4785 0.0
C632 C 0.73132 0.03488 0.50417 0.0
C633 C 0.81036 0.97654 0.4923 0.0
C634 C 0.79232 0.97278 0.51158 0.0
C635 C 0.73233 -0.00452 0.53657 0.0
C636 C 0.69243 0.02415 0.54265 0.0
C637 C 0.75223 0.00101 0.51754 0.0
C638 C 0.67301 0.05898 0.52952 0.0
C639 C 0.69195 0.06397 0.51038 0.0
H640 H 0.49232 0.76235 0.97629 0.0
H641 H 0.36019 0.84646 0.98202 0.0
H642 H 0.34884 0.81489 0.01578 0.0
H643 H 0.37825 0.76463 0.04395 0.0
H644 H 0.50723 0.67579 0.03659 0.0
H645 H 0.5175 0.70711 1.00308 0.0
C646 C 0.46123 0.77402 0.98502 0.0
C647 C 0.42771 0.80753 0.97695 0.0
C648 C 0.45412 0.75435 1.00402 0.0
C649 C 0.38676 0.82119 0.98809 0.0
C650 C 0.38024 0.80301 1.00733 0.0
C651 C 0.40826 0.7517 0.03492 0.0
C652 C 0.44205 0.71805 0.04289 0.0
C653 C 0.41382 0.76964 0.01548 0.0
C654 C 0.48054 0.70146 0.03091 0.0
C655 C 0.48671 0.71967 0.01175 0.0
H656 H 0.66933 0.45666 0.4821 0.0
H657 H 0.81771 0.49691 0.46786 0.0
H658 H 0.84152 0.48747 0.50237 0.0
H659 H 0.81864 0.47638 0.53725 0.0
H660 H 0.66983 0.43848 0.55171 0.0
H661 H 0.64825 0.43768 0.5167 0.0
C662 C 0.70699 0.46262 0.48651 0.0
C663 C 0.74141 0.47809 0.47241 0.0
C664 C 0.7205 0.45781 0.50655 0.0
C665 C 0.79017 0.48556 0.47841 0.0
C666 C 0.80396 0.48016 0.49819 0.0
C667 C 0.78177 0.46696 0.53272 0.0
C668 C 0.7459 0.45799 0.54712 0.0
C669 C 0.7692 0.46756 0.5125 0.0
C670 C 0.69818 0.44598 0.54096 0.0
C671 C 0.68567 0.44563 0.5209 0.0
H672 H 0.96634 0.17296 0.14943 0.0
H673 H 0.01916 0.18204 0.08928 0.0
H674 H 0.01202 0.09429 0.08569 0.0
H675 H -0.00139 0.01431 0.10036 0.0
H676 H 0.93202 0.00364 0.15797 0.0
H677 H 0.93882 0.09207 0.16212 0.0
C678 C 0.9754 0.15573 0.13547 0.0
C679 C -0.00622 0.18416 0.11982 0.0
C680 C 0.97022 0.10474 0.13319 0.0
C681 C 0.00491 0.16132 0.10168 0.0
C682 C 0.00127 0.11088 0.09958 0.0
C683 C 0.98421 0.03116 0.11361 0.0
C684 C 0.96603 0.00196 0.12897 0.0
C685 C 0.98506 0.08217 0.11536 0.0
C686 C 0.94843 0.0248 0.14621 0.0
C687 C 0.95144 0.07562 0.14848 0.0
H688 H 0.3068 0.03895 0.60011 0.0
H689 H 0.28989 0.94053 0.6496 0.0
H690 H 0.37911 0.93228 0.65202 0.0
H691 H 0.4611 0.9541 0.64002 0.0
H692 H 0.477 0.061 0.59337 0.0
H693 H 0.38826 0.06424 0.58949 0.0
C694 C 0.32265 0.01507 0.61125 0.0
C695 C 0.29213 0.98946 0.62441 0.0
C696 C 0.37345 0.01239 0.61305 0.0
C697 C 0.31291 0.95998 0.63918 0.0
C698 C 0.36373 0.95551 0.64059 0.0
C699 C 0.44525 0.97914 0.62938 0.0
C700 C 0.47559 0.0078 0.61715 0.0
C701 C 0.39428 0.98199 0.62771 0.0
C702 C 0.45438 0.03845 0.60287 0.0
C703 C 0.40373 0.0404 0.60069 0.0
H704 H 0.51629 0.4785 0.10962 0.0
H705 H 0.38456 0.47848 0.14434 0.0
H706 H 0.39328 0.39039 0.15041 0.0
H707 H 0.43813 0.3132 0.14551 0.0
H708 H 0.56673 0.3121 0.10887 0.0
H709 H 0.5603 0.40087 0.10415 0.0
C710 C 0.4891 0.45889 0.1182 0.0
C711 C 0.4496 0.48461 0.12641 0.0
C712 C 0.49451 0.40835 0.12163 0.0
C713 C 0.41509 0.4592 0.13783 0.0
C714 C 0.42028 0.409 0.1414 0.0
C715 C 0.46539 0.33269 0.13691 0.0
C716 C 0.50358 0.30648 0.12795 0.0
C717 C 0.46009 0.38327 0.13352 0.0
C718 C 0.53762 0.33176 0.11622 0.0
C719 C 0.53361 0.38236 0.11334 0.0
H720 H 0.16011 0.44837 0.64855 0.0
H721 H 0.17416 0.56703 0.6068 0.0
H722 H 0.08535 0.56854 0.60223 0.0
H723 H 0.00365 0.53404 0.60944 0.0
H724 H 0.99073 0.41213 0.6496 0.0
H725 H 0.07918 0.41301 0.65519 0.0
C726 C 0.14355 0.47532 0.63882 0.0
C727 C 0.17339 0.5083 0.62836 0.0
C728 C 0.09282 0.47444 0.63562 0.0
C729 C 0.15172 0.54188 0.61526 0.0
C730 C 0.10106 0.54237 0.61249 0.0
C731 C 0.02052 0.50728 0.61915 0.0
C732 C 0.99115 0.4729 0.62906 0.0
C733 C 0.07132 0.50827 0.62234 0.0
C734 C 0.01297 0.43872 0.6418 0.0
C735 C 0.06335 0.43951 0.6451 0.0
H736 H 0.04331 0.47552 0.87358 0.0
H737 H 0.94029 0.48057 0.92171 0.0
H738 H 0.93346 0.39145 0.92126 0.0
H739 H 0.95475 0.31224 0.90644 0.0
H740 H 0.04845 0.30814 0.85524 0.0
H741 H 0.05775 0.3972 0.85652 0.0
C742 C 0.01862 0.45718 0.8837 0.0
C743 C -0.0077 0.4847 0.8976 0.0
C744 C 0.01193 0.40629 0.88235 0.0
C745 C 0.96185 0.46025 0.91113 0.0
C746 C 0.95717 0.40934 0.91064 0.0
C747 C 0.97639 0.331 0.89532 0.0
C748 C 0.00072 0.30374 0.88073 0.0
C749 C 0.98147 0.38209 0.89612 0.0
C750 C 0.02874 0.32839 0.86643 0.0
C751 C 0.03471 0.37921 0.86736 0.0
H752 H 0.04711 0.93129 0.38104 0.0
H753 H 0.02709 0.05679 0.41892 0.0
H754 H 0.11525 0.07106 0.41916 0.0
H755 H 0.19744 0.04797 0.40856 0.0
H756 H 0.21754 0.92843 0.36783 0.0
H757 H 0.12891 0.91263 0.36797 0.0
C758 C 0.06177 0.96254 0.38894 0.0
C759 C 0.03049 0.99308 0.39992 0.0
C760 C 0.11219 0.9716 0.38835 0.0
C761 C 0.05041 0.03234 0.41063 0.0
C762 C 0.10071 0.04075 0.41062 0.0
C763 C 0.18225 0.0185 0.39968 0.0
C764 C 0.21344 0.98886 0.38838 0.0
C765 C 0.1318 0.01055 0.39958 0.0
C766 C 0.19384 0.95142 0.37664 0.0
C767 C 0.14343 0.94241 0.37681 0.0
H768 H 0.54163 0.19288 0.91271 0.0
H769 H 0.48363 0.20243 0.85335 0.0
H770 H 0.47915 0.11331 0.85156 0.0
H771 H 0.48118 0.03359 0.86854 0.0
H772 H 0.54281 0.02372 0.92719 0.0
H773 H 0.55411 0.1124 0.92794 0.0
C774 C 0.52911 0.17551 0.89919 0.0
C775 C 0.51228 0.20442 0.88332 0.0
C776 C 0.52537 0.12433 0.89844 0.0
C777 C 0.49678 0.18121 0.86582 0.0
C778 C 0.4935 0.1302 0.86488 0.0
C779 C 0.49758 0.05087 0.88139 0.0
C780 C 0.5099 0.02233 0.89798 0.0
C781 C 0.50581 0.10159 0.88139 0.0
C782 C 0.53125 0.04505 0.91452 0.0
C783 C 0.53854 0.09567 0.91482 0.0
H784 H 0.47173 0.43884 0.37191 0.0
H785 H 0.48436 0.52084 0.42614 0.0
H786 H 0.39564 0.52982 0.42749 0.0
H787 H 0.31468 0.51714 0.41241 0.0
H788 H 0.30377 0.44405 0.35593 0.0
H789 H 0.39188 0.43183 0.35559 0.0
C790 C 0.4549 0.45868 0.384 0.0
C791 C 0.4844 0.47889 0.39893 0.0
C792 C 0.40439 0.46689 0.38388 0.0
C793 C 0.46237 0.50406 0.41466 0.0
C794 C 0.41172 0.51004 0.41524 0.0
C795 C 0.3317 0.49934 0.39986 0.0
C796 C 0.3026 0.48169 0.38421 0.0
C797 C 0.38247 0.49236 0.39973 0.0
C798 C 0.32523 0.45865 0.36805 0.0
C799 C 0.37559 0.45092 0.36798 0.0
H800 H 0.91571 0.8189 0.90993 0.0
H801 H 0.01336 0.7993 0.86064 0.0
H802 H 0.02644 0.88832 0.85891 0.0
H803 H 0.01229 0.97039 0.87248 0.0
H804 H 0.90638 0.99067 0.91893 0.0
H805 H 0.89543 0.90189 0.92128 0.0
C806 C 0.93983 0.83427 0.8988 0.0
C807 C 0.96415 0.80298 0.88557 0.0
C808 C 0.94588 0.88515 0.89758 0.0
C809 C -0.00548 0.82295 0.87097 0.0
C810 C 0.002 0.87364 0.87004 0.0
C811 C 0.98553 0.95579 0.88267 0.0
C812 C 0.95976 0.9874 0.89538 0.0
C813 C 0.97797 0.90499 0.88333 0.0
C814 C 0.92704 0.96724 0.90913 0.0
C815 C 0.92053 0.91653 0.91038 0.0
H816 H 0.70463 0.02357 0.41339 0.0
H817 H 0.71055 0.92889 0.36233 0.0
H818 H 0.62169 0.92365 0.36179 0.0
H819 H 0.54261 0.94085 0.37732 0.0
H820 H 0.5355 0.04352 0.42562 0.0
H821 H 0.62466 0.04829 0.4266 0.0
C822 C 0.68642 0.00258 0.40192 0.0
C823 C 0.71424 0.9766 0.38798 0.0
C824 C 0.63523 -0.00032 0.40166 0.0
C825 C 0.6901 0.9497 0.37314 0.0
C826 C 0.63926 0.94605 0.37298 0.0
C827 C 0.56063 0.96486 0.38784 0.0
C828 C 0.53261 0.99164 0.40139 0.0
C829 C 0.61157 0.96999 0.38743 0.0
C830 C 0.55633 0.02171 0.41529 0.0
C831 C 0.60725 0.0251 0.41564 0.0
H832 H 0.4253 0.53036 0.88184 0.0
H833 H 0.54341 0.52307 0.92417 0.0
H834 H 0.54394 0.61228 0.92661 0.0
H835 H 0.51392 0.69166 0.91559 0.0
H836 H 0.40432 0.70088 0.86986 0.0
H837 H 0.39812 0.6108 0.86931 0.0
C838 C 0.45192 0.54822 0.89127 0.0
C839 C 0.48458 0.52004 0.90273 0.0
C840 C 0.45342 0.59956 0.89192 0.0
C841 C 0.51754 0.54382 0.91542 0.0
C842 C 0.51808 0.5948 0.9167 0.0
C843 C 0.48805 0.67393 0.90571 0.0
C844 C 0.45861 0.70245 0.89312 0.0
C845 C 0.4864 0.62286 0.90495 0.0
C846 C 0.42663 0.67938 0.87985 0.0
C847 C 0.42332 0.62811 0.87954 0.0
H848 H 0.81549 0.55218 0.40394 0.0
H849 H 0.80157 0.4364 0.36102 0.0
H850 H 0.89107 0.42774 0.36014 0.0
H851 H 0.9718 0.45039 0.37329 0.0
H852 H 0.98553 0.57096 0.41417 0.0
H853 H 0.89659 0.57974 0.41472 0.0
C854 C 0.83229 0.52527 0.3943 0.0
C855 C 0.80269 0.49458 0.38266 0.0
C856 C 0.88314 0.52116 0.39376 0.0
C857 C 0.82412 0.46022 0.37004 0.0
C858 C 0.87501 0.45525 0.36965 0.0
C859 C 0.9556 0.4796 0.38185 0.0
C860 C 0.98527 0.51036 0.39354 0.0
C861 C 0.90475 0.48525 0.38161 0.0
C862 C 0.96341 0.54663 0.4052 0.0
C863 C 0.91269 0.55182 0.40541 0.0
H864 H 0.04321 0.67346 0.14871 0.0
H865 H 0.97032 0.68393 0.09197 0.0
H866 H 0.97388 0.59636 0.08805 0.0
H867 H 0.98912 0.51633 0.10199 0.0
H868 H 0.07803 0.50332 0.15449 0.0
H869 H 0.0743 0.59174 0.15934 0.0
C870 C 0.02912 0.65659 0.13534 0.0
C871 C 0.00579 0.6855 0.12093 0.0
C872 C 0.03247 0.60552 0.13269 0.0
C873 C 0.98827 0.663 0.1035 0.0
C874 C 0.98982 0.61259 0.10121 0.0
C875 C 0.00923 0.53254 0.11414 0.0
C876 C 0.03274 0.50266 0.12803 0.0
C877 C 0.01061 0.58347 0.11593 0.0
C878 C 0.05745 0.52491 0.144 0.0
C879 C 0.05624 0.57576 0.1466 0.0
H880 H 0.80609 0.93695 0.60954 0.0
H881 H 0.79209 0.04416 0.65596 0.0
H882 H 0.88118 0.0569 0.65573 0.0
H883 H 0.96176 0.03958 0.64099 0.0
H884 H 0.9749 0.9264 0.59679 0.0
H885 H 0.88643 0.91484 0.59698 0.0
C886 C 0.82256 0.96322 0.61961 0.0
C887 C 0.7929 0.99031 0.63253 0.0
C888 C 0.8732 0.96945 0.61959 0.0
C889 C 0.81446 0.02323 0.64584 0.0
C890 C 0.86517 0.03052 0.64564 0.0
C891 C 0.94545 0.01157 0.63174 0.0
C892 C 0.97487 0.98381 0.61887 0.0
C893 C 0.89478 0.00404 0.63244 0.0
C894 C 0.95298 0.94871 0.60657 0.0
C895 C 0.90251 0.94184 0.60679 0.0
H896 H 0.54424 0.81332 0.14578 0.0
H897 H 0.41375 0.81334 0.11002 0.0
H898 H 0.42154 0.90201 0.10503 0.0
H899 H 0.46742 0.97909 0.10996 0.0
H900 H 0.60124 0.97753 0.1436 0.0
H901 H 0.59099 0.88973 0.15003 0.0
C902 C 0.51684 0.83307 0.13734 0.0
C903 C 0.47767 0.80726 0.12874 0.0
C904 C 0.52302 0.88343 0.13373 0.0
C905 C 0.44352 0.83277 0.11714 0.0
C906 C 0.44834 0.88327 0.1141 0.0
C907 C 0.49473 0.95918 0.11837 0.0
C908 C 0.53529 0.98437 0.12617 0.0
C909 C 0.48844 0.90881 0.12202 0.0
C910 C 0.56995 0.95862 0.13738 0.0
C911 C 0.56387 0.90861 0.14117 0.0
H912 H 0.50321 0.45321 0.61564 0.0
H913 H 0.49577 0.59425 0.64393 0.0
H914 H 0.58309 0.59025 0.65184 0.0
H915 H 0.66165 0.54728 0.6501 0.0
H916 H 0.67092 0.40903 0.6197 0.0
H917 H 0.5825 0.41014 0.61375 0.0
C918 C 0.52111 0.4833 0.62324 0.0
C919 C 0.49364 0.52429 0.62901 0.0
C920 C 0.57115 0.48043 0.62786 0.0
C921 C 0.51662 0.56272 0.63918 0.0
C922 C 0.56629 0.56015 0.64387 0.0
C923 C 0.64395 0.51663 0.64277 0.0
C924 C 0.6723 0.47729 0.63591 0.0
C925 C 0.59381 0.51901 0.63843 0.0
C926 C 0.64945 0.43891 0.6256 0.0
C927 C 0.59912 0.43999 0.62193 0.0
H928 H 0.08808 0.31675 0.29328 0.0
H929 H 0.14512 0.46392 0.28883 0.0
H930 H 0.14512 0.45784 0.25292 0.0
H931 H 0.12953 0.41071 0.22262 0.0
H932 H 0.06799 0.26552 0.22668 0.0
H933 H 0.06769 0.27142 0.26282 0.0
C934 C 0.10057 0.34756 0.28448 0.0
C935 C 0.11869 0.38996 0.29394 0.0
C936 C 0.09893 0.34442 0.2637 0.0
C937 C 0.13364 0.42979 0.28219 0.0
C938 C 0.13282 0.42668 0.26155 0.0
C939 C 0.11584 0.38041 0.23142 0.0
C940 C 0.09848 0.33786 0.22195 0.0
C941 C 0.1159 0.38407 0.25216 0.0
C942 C 0.08063 0.29904 0.23354 0.0
C943 C 0.08094 0.30223 0.25423 0.0
H944 H 0.10323 0.15926 0.72166 0.0
H945 H 0.11299 0.00155 0.71983 0.0
H946 H 0.09911 -0.00248 0.75538 0.0
H947 H 0.08334 0.03869 0.78704 0.0
H948 H 0.07248 0.19628 0.78877 0.0
H949 H 0.08586 0.20028 0.75315 0.0
C950 C 0.10247 0.12396 0.72903 0.0
C951 C 0.11076 0.0809 0.71809 0.0
C952 C 0.09318 0.12182 0.74943 0.0
C953 C 0.10902 0.03547 0.72788 0.0
C954 C 0.10022 0.03306 0.74823 0.0
C955 C 0.08359 0.07391 0.77959 0.0
C956 C 0.07571 0.11702 0.79053 0.0
C957 C 0.09227 0.076 0.75914 0.0
C958 C 0.07655 0.16238 0.78069 0.0
C959 C 0.08499 0.16475 0.76032 0.0
H960 H 0.40626 0.1611 0.29337 0.0
H961 H 0.39718 0.00311 0.29328 0.0
H962 H 0.40836 0.00235 0.25761 0.0
H963 H 0.42086 0.04641 0.22629 0.0
H964 H 0.43375 0.20392 0.22652 0.0
H965 H 0.42278 0.20479 0.26239 0.0
C966 C 0.40669 0.12636 0.28561 0.0
C967 C 0.39901 0.08232 0.29612 0.0
C968 C 0.41483 0.12605 0.26512 0.0
C969 C 0.40042 0.03779 0.28571 0.0
C970 C 0.40775 0.03724 0.26525 0.0
C971 C 0.42159 0.08092 0.23423 0.0
C972 C 0.42877 0.12499 0.22378 0.0
C973 C 0.41481 0.08114 0.25481 0.0
C974 C 0.42962 0.16941 0.23423 0.0
C975 C 0.4227 0.16995 0.25472 0.0
H976 H 0.36383 0.4548 0.79725 0.0
H977 H 0.41037 0.30416 0.79407 0.0
H978 H 0.40013 0.30522 0.75821 0.0
H979 H 0.3767 0.34819 0.72791 0.0
H980 H 0.33332 0.50001 0.73066 0.0
H981 H 0.34202 0.49867 0.76652 0.0
C982 C 0.37194 0.42229 0.78867 0.0
C983 C 0.38889 0.37978 0.7983 0.0
C984 C 0.36555 0.42306 0.76801 0.0
C985 C 0.39892 0.33785 0.78702 0.0
C986 C 0.39241 0.33824 0.76651 0.0
C987 C 0.36899 0.38113 0.73629 0.0
C988 C 0.35298 0.42375 0.72642 0.0
C989 C 0.37565 0.38059 0.75688 0.0
C990 C 0.34363 0.46601 0.73766 0.0
C991 C 0.34942 0.46552 0.75826 0.0
H992 H 0.877 0.67539 0.78879 0.0
H993 H 0.87202 0.52007 0.80013 0.0
H994 H 0.86369 0.50368 0.76476 0.0
H995 H 0.85657 0.53351 0.73065 0.0
H996 H 0.85717 0.68907 0.71931 0.0
H997 H 0.86926 0.70528 0.75446 0.0
C998 C 0.87494 0.63802 0.78344 0.0
C999 C 0.87566 0.59899 0.79698 0.0
C1000 C 0.86889 0.62888 0.76307 0.0
C1001 C 0.87169 0.55071 0.78993 0.0
C1002 C 0.86679 0.54131 0.76972 0.0
C1003 C 0.85806 0.57096 0.73585 0.0
C1004 C 0.85473 0.60995 0.72231 0.0
C1005 C 0.86468 0.58012 0.75616 0.0
C1006 C 0.85921 0.65826 0.72939 0.0
C1007 C 0.86618 0.66764 0.74952 0.0
H1008 H 0.84418 0.85051 0.23239 0.0
H1009 H -0.0 0.82687 0.23044 0.0
H1010 H 0.00418 0.83341 0.26638 0.0
H1011 H 0.96382 0.84887 0.29848 0.0
H1012 H 0.80867 0.87592 0.29982 0.0
H1013 H 0.80434 0.86647 0.26397 0.0
C1014 C 0.87922 0.84663 0.23974 0.0
C1015 C 0.92152 0.83705 0.22854 0.0
C1016 C 0.8816 0.85206 0.26036 0.0
C1017 C 0.96645 0.83238 0.23849 0.0
C1018 C 0.96901 0.83692 0.25913 0.0
C1019 C 0.92911 0.85282 0.29088 0.0
C1020 C 0.88681 0.86427 0.30177 0.0
C1021 C 0.92686 0.84708 0.2702 0.0
C1022 C 0.84204 0.86885 0.29177 0.0
C1023 C 0.83944 0.86282 0.27128 0.0
H1024 H 0.64001 0.8978 0.79594 0.0
H1025 H 0.49201 0.8433 0.793 0.0
H1026 H 0.48875 0.86247 0.75785 0.0
H1027 H 0.52959 0.88944 0.72735 0.0
H1028 H 0.67999 0.93697 0.72982 0.0
H1029 H 0.68033 0.92622 0.76557 0.0
C1030 C 0.60681 0.89035 0.78768 0.0
C1031 C 0.56598 0.86989 0.79743 0.0
C1032 C 0.60562 0.90026 0.76725 0.0
C1033 C 0.5235 0.86045 0.78632 0.0
C1034 C 0.52181 0.87085 0.76603 0.0
C1035 C 0.5624 0.89797 0.7357 0.0
C1036 C 0.60438 0.91511 0.72573 0.0
C1037 C 0.56285 0.89017 0.7563 0.0
C1038 C 0.64652 0.92555 0.7369 0.0
C1039 C 0.647 0.91863 0.75744 0.0
H1040 H 0.57136 0.54941 0.22638 0.0
H1041 H 0.56093 0.70702 0.22623 0.0
H1042 H 0.5775 0.70862 0.2618 0.0
H1043 H 0.59842 0.66547 0.29255 0.0
H1044 H 0.60422 0.50732 0.29282 0.0
H1045 H 0.58756 0.50597 0.25758 0.0
C1046 C 0.57235 0.58412 0.23418 0.0
C1047 C 0.56431 0.628 0.2237 0.0
C1048 C 0.58224 0.58475 0.25458 0.0
C1049 C 0.56572 0.67265 0.23398 0.0
C1050 C 0.57583 0.6736 0.25429 0.0
C1051 C 0.5961 0.63054 0.28498 0.0
C1052 C 0.6047 0.58664 0.2955 0.0
C1053 C 0.58463 0.62988 0.26469 0.0
C1054 C 0.60058 0.54194 0.28529 0.0
C1055 C 0.59005 0.54103 0.26503 0.0
H1056 H 0.34806 0.21502 0.08485 0.0
H1057 H 0.31876 0.11709 0.13358 0.0
H1058 H 0.23602 0.14936 0.13635 0.0
H1059 H 0.17717 0.21309 0.12812 0.0
H1060 H 0.20607 0.3129 0.08 0.0
H1061 H 0.28456 0.27267 0.0739 0.0
C1062 C 0.32288 0.19958 0.09556 0.0
C1063 C 0.33917 0.16404 0.10906 0.0
C1064 C 0.27621 0.2198 0.09763 0.0
C1065 C 0.30668 0.14457 0.12307 0.0
C1066 C 0.25972 0.1634 0.12482 0.0
C1067 C 0.20078 0.22612 0.11634 0.0
C1068 C 0.18691 0.26659 0.10488 0.0
C1069 C 0.24509 0.20255 0.11281 0.0
C1070 C 0.21675 0.28222 0.08922 0.0
C1071 C 0.26132 0.2591 0.08567 0.0
H1072 H 0.25409 0.33692 0.58689 0.0
H1073 H 0.34094 0.30722 0.63891 0.0
H1074 H 0.30695 0.22478 0.64088 0.0
H1075 H 0.24666 0.16511 0.63009 0.0
H1076 H 0.15882 0.1928 0.57823 0.0
H1077 H 0.1987 0.27281 0.574 0.0
C1078 C 0.26655 0.31181 0.59827 0.0
C1079 C 0.2997 0.3279 0.61279 0.0
C1080 C 0.24568 0.26496 0.59968 0.0
C1081 C 0.3153 0.29543 0.62763 0.0
C1082 C 0.29558 0.24856 0.62887 0.0
C1083 C 0.23595 0.18882 0.61793 0.0
C1084 C 0.19903 0.17404 0.6048 0.0
C1085 C 0.25948 0.23377 0.61544 0.0
C1086 C 0.18666 0.20411 0.5887 0.0
C1087 C 0.2096 0.24954 0.58623 0.0
H1088 H 0.16558 0.21368 0.92939 0.0
H1089 H 0.19232 0.13855 0.87426 0.0
H1090 H 0.27349 0.17507 0.87243 0.0
H1091 H 0.33196 0.23567 0.88422 0.0
H1092 H 0.30685 0.31153 0.93917 0.0
H1093 H 0.22908 0.26767 0.94329 0.0
C1094 C 0.18973 0.2042 0.91728 0.0
C1095 C 0.17293 0.17398 0.90185 0.0
C1096 C 0.23575 0.2265 0.91601 0.0
C1097 C 0.20444 0.16207 0.88622 0.0
C1098 C 0.25061 0.18324 0.88507 0.0
C1099 C 0.3093 0.24273 0.89706 0.0
C1100 C 0.32392 0.27761 0.91109 0.0
C1101 C 0.26564 0.217 0.89943 0.0
C1102 C 0.29549 0.28533 0.92804 0.0
C1103 C 0.25136 0.26015 0.93042 0.0
H1104 H 0.25405 0.3297 0.38762 0.0
H1105 H 0.15513 0.29226 0.43482 0.0
H1106 H 0.20168 0.21678 0.4413 0.0
H1107 H 0.2675 0.15949 0.43153 0.0
H1108 H 0.36588 0.20029 0.38446 0.0
H1109 H 0.32351 0.27805 0.38037 0.0
C1110 C 0.24232 0.30465 0.39918 0.0
C1111 C 0.20044 0.315 0.41027 0.0
C1112 C 0.26983 0.26293 0.4031 0.0
C1113 C 0.18669 0.28386 0.42581 0.0
C1114 C 0.21348 0.2412 0.42958 0.0
C1115 C 0.28048 0.18622 0.42086 0.0
C1116 C 0.31953 0.17456 0.40827 0.0
C1117 C 0.25492 0.23021 0.41817 0.0
C1118 C 0.33583 0.20884 0.39427 0.0
C1119 C 0.31134 0.25291 0.39178 0.0
H1120 H 0.80417 0.72193 0.93484 0.0
H1121 H 0.7692 0.62313 0.88704 0.0
H1122 H 0.68644 0.65578 0.88542 0.0
H1123 H 0.62986 0.72109 0.89368 0.0
H1124 H 0.6641 0.82269 0.94048 0.0
H1125 H 0.74192 0.78041 0.94647 0.0
C1126 C 0.77778 0.70646 0.92459 0.0
C1127 C 0.79244 0.67065 0.91095 0.0
C1128 C 0.73101 0.72689 0.92317 0.0
C1129 C 0.75841 0.65097 0.89758 0.0
C1130 C 0.7114 0.6699 0.89652 0.0
C1131 C 0.6544 0.73383 0.90523 0.0
C1132 C 0.64262 0.7756 0.91622 0.0
C1133 C 0.69834 0.70948 0.90852 0.0
C1134 C 0.67335 0.79098 0.93164 0.0
C1135 C 0.71755 0.7668 0.93507 0.0
H1136 H 0.74463 0.64256 0.43375 0.0
H1137 H 0.63412 0.69678 0.39376 0.0
H1138 H 0.67273 0.77743 0.3937 0.0
H1139 H 0.74444 0.8273 0.40053 0.0
H1140 H 0.8577 0.77419 0.43928 0.0
H1141 H 0.81177 0.69743 0.44431 0.0
C1142 C 0.72814 0.67265 0.42565 0.0
C1143 C 0.68688 0.6642 0.41371 0.0
C1144 C 0.75185 0.71816 0.42497 0.0
C1145 C 0.66595 0.70288 0.40301 0.0
C1146 C 0.68825 0.74866 0.40281 0.0
C1147 C 0.75884 0.79883 0.41015 0.0
C1148 C 0.80461 0.80491 0.41908 0.0
C1149 C 0.73239 0.75577 0.41291 0.0
C1150 C 0.82275 0.76918 0.43201 0.0
C1151 C 0.79647 0.7257 0.4349 0.0
H1152 H 0.79256 0.76104 0.09067 0.0
H1153 H 0.80933 0.74732 0.15408 0.0
H1154 H 0.73349 0.70129 0.15594 0.0
H1155 H 0.66089 0.66936 0.14021 0.0
H1156 H 0.63911 0.68763 0.07731 0.0
H1157 H 0.71992 0.72553 0.07451 0.0
C1158 C 0.77949 0.7482 0.1049 0.0
C1159 C 0.80633 0.7581 0.12222 0.0
C1160 C 0.73559 0.72181 0.10593 0.0
C1161 C 0.78921 0.74065 0.14052 0.0
C1162 C 0.74601 0.714 0.14162 0.0
C1163 C 0.67388 0.681 0.12579 0.0
C1164 C 0.64375 0.67634 0.10904 0.0
C1165 C 0.71883 0.7048 0.12447 0.0
C1166 C 0.66158 0.69093 0.09045 0.0
C1167 C 0.70748 0.71313 0.08889 0.0
H1168 H 0.71014 0.81301 0.588 0.0
H1169 H 0.63363 0.79287 0.64327 0.0
H1170 H 0.66472 0.70954 0.64575 0.0
H1171 H 0.72013 0.64683 0.63433 0.0
H1172 H 0.79902 0.66505 0.57964 0.0
H1173 H 0.76031 0.74545 0.57471 0.0
C1174 C 0.69939 0.7899 0.60032 0.0
C1175 C 0.67008 0.80896 0.61555 0.0
C1176 C 0.71856 0.7425 0.60194 0.0
C1177 C 0.65652 0.77894 0.63149 0.0
C1178 C 0.67443 0.73151 0.63297 0.0
C1179 C 0.7291 0.66848 0.62134 0.0
C1180 C 0.76336 0.65116 0.60764 0.0
C1181 C 0.70681 0.71377 0.61868 0.0
C1182 C 0.77328 0.6784 0.59051 0.0
C1183 C 0.75113 0.72409 0.58771 0.0
loop_
_geom_bond_atom_site_label_1
_geom_bond_atom_site_label_2
_geom_bond_distance
_geom_bond_site_symmetry_2
_ccdc_geom_bond_type
Co0 O3 1.970 . S
Co0 N17 1.989 . S
Co0 O25 1.967 . S
Co0 O32 1.920 . S
Co1 O4 1.966 . S
Co1 N10 2.022 . S
Co1 N18 1.993 . S
Co1 O26 1.941 . S
C2 O3 1.258 . S
C2 O4 1.263 . S
O3 Co0 1.970 . S
O3 C2 1.258 . S
O4 Co1 1.966 . S
O4 C2 1.263 . S
C5 O6 1.235 1_455 S
C5 O32 1.289 . S
O6 C5 1.235 1_655 S
C7 C9 1.400 . S
C7 N10 1.351 . S
C7 C12 1.501 . S
C8 C9 1.387 . S
C8 N11 1.341 . S
C9 C7 1.400 . S
C9 C8 1.387 . S
N10 Co1 2.022 . S
N10 C7 1.351 . S
N10 N11 1.365 . S
N11 C8 1.341 . S
N11 N10 1.365 . S
N11 H31 0.862 . S
C12 C7 1.501 . S
C12 H13 0.961 . S
C12 H14 0.961 1_455 S
C12 H15 0.960 . S
H13 C12 0.961 . S
H14 C12 0.961 1_655 S
H15 C12 0.960 . S
C16 N17 1.342 . S
C16 C20 1.401 . S
C16 C21 1.499 . S
N17 Co0 1.989 . S
N17 C16 1.342 . S
N17 N18 1.388 . S
N18 Co1 1.993 . S
N18 N17 1.388 . S
N18 C19 1.346 . S
C19 N18 1.346 . S
C19 C20 1.396 . S
C19 C29 1.510 . S
C20 C16 1.401 . S
C20 C19 1.396 . S
C21 C16 1.499 . S
C21 H22 0.959 . S
C21 H23 0.960 1_455 S
C21 H24 0.961 . S
H22 C21 0.959 . S
H23 C21 0.960 1_655 S
H24 C21 0.961 . S
O25 Co0 1.967 . S
O25 C33 1.258 . S
O26 Co1 1.941 . S
O26 C33 1.266 . S
H27 C29 0.959 . S
H28 C29 0.961 1_655 S
C29 C19 1.510 . S
C29 H27 0.959 . S
C29 H28 0.961 1_455 S
C29 H30 0.960 . S
H30 C29 0.960 . S
H31 N11 0.862 . S
O32 Co0 1.920 . S
O32 C5 1.289 . S
C33 O25 1.258 . S
C33 O26 1.266 . S
Co34 O37 1.970 . S
Co34 N51 1.989 . S
Co34 O59 1.967 . S
Co34 O66 1.920 . S
Co35 O38 1.966 . S
Co35 N44 2.022 . S
Co35 N52 1.993 . S
Co35 O60 1.941 . S
C36 O37 1.258 . S
C36 O38 1.263 . S
O37 Co34 1.970 . S
O37 C36 1.258 . S
O38 Co35 1.966 . S
O38 C36 1.263 . S
C39 O40 1.235 1_545 S
C39 O66 1.289 . S
O40 C39 1.235 1_565 S
C41 C43 1.400 . S
C41 N44 1.351 . S
C41 C46 1.501 . S
C42 C43 1.387 . S
C42 N45 1.341 . S
C43 C41 1.400 . S
C43 C42 1.387 . S
N44 Co35 2.022 . S
N44 C41 1.351 . S
N44 N45 1.365 . S
N45 C42 1.341 . S
N45 N44 1.365 . S
N45 H65 0.862 . S
C46 C41 1.501 . S
C46 H47 0.961 . S
C46 H48 0.961 1_545 S
C46 H49 0.960 . S
H47 C46 0.961 . S
H48 C46 0.961 1_565 S
H49 C46 0.960 . S
C50 N51 1.342 . S
C50 C54 1.401 . S
C50 C55 1.499 . S
N51 Co34 1.989 . S
N51 C50 1.342 . S
N51 N52 1.388 . S
N52 Co35 1.993 . S
N52 N51 1.388 . S
N52 C53 1.346 . S
C53 N52 1.346 . S
C53 C54 1.396 . S
C53 C63 1.510 . S
C54 C50 1.401 . S
C54 C53 1.396 . S
C55 C50 1.499 . S
C55 H56 0.959 . S
C55 H57 0.960 1_545 S
C55 H58 0.961 . S
H56 C55 0.959 . S
H57 C55 0.960 1_565 S
H58 C55 0.961 . S
O59 Co34 1.967 . S
O59 C67 1.258 . S
O60 Co35 1.941 . S
O60 C67 1.266 . S
H61 C63 0.959 . S
H62 C63 0.961 1_565 S
C63 C53 1.510 . S
C63 H61 0.959 . S
C63 H62 0.961 1_545 S
C63 H64 0.960 . S
H64 C63 0.960 . S
H65 N45 0.862 . S
O66 Co34 1.920 . S
O66 C39 1.289 . S
C67 O59 1.258 . S
C67 O60 1.266 . S
Co68 O71 1.970 . S
Co68 N85 1.989 . S
Co68 O93 1.967 . S
Co68 O100 1.920 . S
Co69 O72 1.966 . S
Co69 N78 2.022 . S
Co69 N86 1.993 . S
Co69 O94 1.941 . S
C70 O71 1.258 . S
C70 O72 1.263 . S
O71 Co68 1.970 . S
O71 C70 1.258 . S
O72 Co69 1.966 . S
O72 C70 1.263 . S
C73 O74 1.235 . S
C73 O100 1.289 . S
O74 C73 1.235 . S
C75 C77 1.400 . S
C75 N78 1.351 . S
C75 C80 1.501 . S
C76 C77 1.387 . S
C76 N79 1.341 . S
C77 C75 1.400 . S
C77 C76 1.387 . S
N78 Co69 2.022 . S
N78 C75 1.351 . S
N78 N79 1.365 . S
N79 C76 1.341 . S
N79 N78 1.365 . S
N79 H99 0.862 . S
C80 C75 1.501 . S
C80 H81 0.961 . S
C80 H82 0.961 . S
C80 H83 0.960 . S
H81 C80 0.961 . S
H82 C80 0.961 . S
H83 C80 0.960 . S
C84 N85 1.342 . S
C84 C88 1.401 . S
C84 C89 1.499 . S
N85 Co68 1.989 . S
N85 C84 1.342 . S
N85 N86 1.388 . S
N86 Co69 1.993 . S
N86 N85 1.388 . S
N86 C87 1.346 . S
C87 N86 1.346 . S
C87 C88 1.396 . S
C87 C97 1.510 . S
C88 C84 1.401 . S
C88 C87 1.396 . S
C89 C84 1.499 . S
C89 H90 0.959 . S
C89 H91 0.960 . S
C89 H92 0.961 . S
H90 C89 0.959 . S
H91 C89 0.960 . S
H92 C89 0.961 . S
O93 Co68 1.967 . S
O93 C101 1.258 . S
O94 Co69 1.941 . S
O94 C101 1.266 . S
H95 C97 0.959 . S
H96 C97 0.961 . S
C97 C87 1.510 . S
C97 H95 0.959 . S
C97 H96 0.961 . S
C97 H98 0.960 . S
H98 C97 0.960 . S
H99 N79 0.862 . S
O100 Co68 1.920 . S
O100 C73 1.289 . S
C101 O93 1.258 . S
C101 O94 1.266 . S
Co102 O105 1.970 . S
Co102 N119 1.989 . S
Co102 O127 1.967 . S
Co102 O134 1.920 . S
Co103 O106 1.966 . S
Co103 N112 2.022 . S
Co103 N120 1.993 . S
Co103 O128 1.941 . S
C104 O105 1.258 . S
C104 O106 1.263 . S
O105 Co102 1.970 . S
O105 C104 1.258 . S
O106 Co103 1.966 . S
O106 C104 1.263 . S
C107 O108 1.235 . S
C107 O134 1.289 . S
O108 C107 1.235 . S
C109 C111 1.400 . S
C109 N112 1.351 . S
C109 C114 1.501 . S
C110 C111 1.387 . S
C110 N113 1.341 . S
C111 C109 1.400 . S
C111 C110 1.387 . S
N112 Co103 2.022 . S
N112 C109 1.351 . S
N112 N113 1.365 . S
N113 C110 1.341 . S
N113 N112 1.365 . S
N113 H133 0.862 . S
C114 C109 1.501 . S
C114 H115 0.961 . S
C114 H116 0.961 . S
C114 H117 0.960 . S
H115 C114 0.961 . S
H116 C114 0.961 . S
H117 C114 0.960 . S
C118 N119 1.342 . S
C118 C122 1.401 . S
C118 C123 1.499 . S
N119 Co102 1.989 . S
N119 C118 1.342 . S
N119 N120 1.388 . S
N120 Co103 1.993 . S
N120 N119 1.388 . S
N120 C121 1.346 . S
C121 N120 1.346 . S
C121 C122 1.396 . S
C121 C131 1.510 . S
C122 C118 1.401 . S
C122 C121 1.396 . S
C123 C118 1.499 . S
C123 H124 0.959 . S
C123 H125 0.960 . S
C123 H126 0.961 . S
H124 C123 0.959 . S
H125 C123 0.960 . S
H126 C123 0.961 . S
O127 Co102 1.967 . S
O127 C135 1.258 . S
O128 Co103 1.941 . S
O128 C135 1.266 . S
H129 C131 0.959 . S
H130 C131 0.961 . S
C131 C121 1.510 . S
C131 H129 0.959 . S
C131 H130 0.961 . S
C131 H132 0.960 . S
H132 C131 0.960 . S
H133 N113 0.862 . S
O134 Co102 1.920 . S
O134 C107 1.289 . S
C135 O127 1.258 . S
C135 O128 1.266 . S
Co136 O139 1.970 . S
Co136 N153 1.989 . S
Co136 O161 1.967 . S
Co136 O168 1.920 . S
Co137 O140 1.966 . S
Co137 N146 2.022 . S
Co137 N154 1.993 . S
Co137 O162 1.941 . S
C138 O139 1.258 . S
C138 O140 1.263 . S
O139 Co136 1.970 . S
O139 C138 1.258 . S
O140 Co137 1.966 . S
O140 C138 1.263 . S
C141 O142 1.235 1_455 S
C141 O168 1.289 . S
O142 C141 1.235 1_655 S
C143 C145 1.400 . S
C143 N146 1.351 . S
C143 C148 1.501 . S
C144 C145 1.387 . S
C144 N147 1.341 . S
C145 C143 1.400 . S
C145 C144 1.387 . S
N146 Co137 2.022 . S
N146 C143 1.351 . S
N146 N147 1.365 . S
N147 C144 1.341 . S
N147 N146 1.365 . S
N147 H167 0.862 . S
C148 C143 1.501 . S
C148 H149 0.961 . S
C148 H150 0.961 1_455 S
C148 H151 0.960 . S
H149 C148 0.961 . S
H150 C148 0.961 1_655 S
H151 C148 0.960 . S
C152 N153 1.342 . S
C152 C156 1.401 . S
C152 C157 1.499 . S
N153 Co136 1.989 . S
N153 C152 1.342 . S
N153 N154 1.388 . S
N154 Co137 1.993 . S
N154 N153 1.388 . S
N154 C155 1.346 . S
C155 N154 1.346 . S
C155 C156 1.396 . S
C155 C165 1.510 . S
C156 C152 1.401 . S
C156 C155 1.396 . S
C157 C152 1.499 . S
C157 H158 0.959 . S
C157 H159 0.960 1_455 S
C157 H160 0.961 . S
H158 C157 0.959 . S
H159 C157 0.960 1_655 S
H160 C157 0.961 . S
O161 Co136 1.967 . S
O161 C169 1.258 . S
O162 Co137 1.941 . S
O162 C169 1.266 . S
H163 C165 0.959 . S
H164 C165 0.961 1_655 S
C165 C155 1.510 . S
C165 H163 0.959 . S
C165 H164 0.961 1_455 S
C165 H166 0.960 . S
H166 C165 0.960 . S
H167 N147 0.862 . S
O168 Co136 1.920 . S
O168 C141 1.289 . S
C169 O161 1.258 . S
C169 O162 1.266 . S
Co170 O173 1.970 . S
Co170 N187 1.989 . S
Co170 O195 1.967 . S
Co170 O202 1.920 . S
Co171 O174 1.966 . S
Co171 N180 2.022 . S
Co171 N188 1.993 . S
Co171 O196 1.941 . S
C172 O173 1.258 . S
C172 O174 1.263 . S
O173 Co170 1.970 . S
O173 C172 1.258 . S
O174 Co171 1.966 . S
O174 C172 1.263 . S
C175 O176 1.235 1_545 S
C175 O202 1.289 . S
O176 C175 1.235 1_565 S
C177 C179 1.400 . S
C177 N180 1.351 . S
C177 C182 1.501 . S
C178 C179 1.387 . S
C178 N181 1.341 . S
C179 C177 1.400 . S
C179 C178 1.387 . S
N180 Co171 2.022 . S
N180 C177 1.351 . S
N180 N181 1.365 . S
N181 C178 1.341 . S
N181 N180 1.365 . S
N181 H201 0.862 . S
C182 C177 1.501 . S
C182 H183 0.961 . S
C182 H184 0.961 1_545 S
C182 H185 0.960 . S
H183 C182 0.961 . S
H184 C182 0.961 1_565 S
H185 C182 0.960 . S
C186 N187 1.342 . S
C186 C190 1.401 . S
C186 C191 1.499 . S
N187 Co170 1.989 . S
N187 C186 1.342 . S
N187 N188 1.388 . S
N188 Co171 1.993 . S
N188 N187 1.388 . S
N188 C189 1.346 . S
C189 N188 1.346 . S
C189 C190 1.396 . S
C189 C199 1.510 . S
C190 C186 1.401 . S
C190 C189 1.396 . S
C191 C186 1.499 . S
C191 H192 0.959 . S
C191 H193 0.960 1_545 S
C191 H194 0.961 . S
H192 C191 0.959 . S
H193 C191 0.960 1_565 S
H194 C191 0.961 . S
O195 Co170 1.967 . S
O195 C203 1.258 . S
O196 Co171 1.941 . S
O196 C203 1.266 . S
H197 C199 0.959 . S
H198 C199 0.961 1_565 S
C199 C189 1.510 . S
C199 H197 0.959 . S
C199 H198 0.961 1_545 S
C199 H200 0.960 . S
H200 C199 0.960 . S
H201 N181 0.862 . S
O202 Co170 1.920 . S
O202 C175 1.289 . S
C203 O195 1.258 . S
C203 O196 1.266 . S
Co204 O207 1.970 . S
Co204 N221 1.989 . S
Co204 O229 1.967 . S
Co204 O236 1.920 . S
Co205 O208 1.966 . S
Co205 N214 2.022 . S
Co205 N222 1.993 . S
Co205 O230 1.941 . S
C206 O207 1.258 . S
C206 O208 1.263 . S
O207 Co204 1.970 . S
O207 C206 1.258 . S
O208 Co205 1.966 . S
O208 C206 1.263 . S
C209 O210 1.235 . S
C209 O236 1.289 . S
O210 C209 1.235 . S
C211 C213 1.400 . S
C211 N214 1.351 . S
C211 C216 1.501 . S
C212 C213 1.387 . S
C212 N215 1.341 . S
C213 C211 1.400 . S
C213 C212 1.387 . S
N214 Co205 2.022 . S
N214 C211 1.351 . S
N214 N215 1.365 . S
N215 C212 1.341 . S
N215 N214 1.365 . S
N215 H235 0.862 . S
C216 C211 1.501 . S
C216 H217 0.961 . S
C216 H218 0.961 . S
C216 H219 0.960 . S
H217 C216 0.961 . S
H218 C216 0.961 . S
H219 C216 0.960 . S
C220 N221 1.342 . S
C220 C224 1.401 . S
C220 C225 1.499 . S
N221 Co204 1.989 . S
N221 C220 1.342 . S
N221 N222 1.388 . S
N222 Co205 1.993 . S
N222 N221 1.388 . S
N222 C223 1.346 . S
C223 N222 1.346 . S
C223 C224 1.396 . S
C223 C233 1.510 . S
C224 C220 1.401 . S
C224 C223 1.396 . S
C225 C220 1.499 . S
C225 H226 0.959 . S
C225 H227 0.960 . S
C225 H228 0.961 . S
H226 C225 0.959 . S
H227 C225 0.960 . S
H228 C225 0.961 . S
O229 Co204 1.967 . S
O229 C237 1.258 . S
O230 Co205 1.941 . S
O230 C237 1.266 . S
H231 C233 0.959 . S
H232 C233 0.961 . S
C233 C223 1.510 . S
C233 H231 0.959 . S
C233 H232 0.961 . S
C233 H234 0.960 . S
H234 C233 0.960 . S
H235 N215 0.862 . S
O236 Co204 1.920 . S
O236 C209 1.289 . S
C237 O229 1.258 . S
C237 O230 1.266 . S
Co238 O241 1.970 . S
Co238 N255 1.989 . S
Co238 O263 1.967 . S
Co238 O270 1.920 . S
Co239 O242 1.966 . S
Co239 N248 2.022 . S
Co239 N256 1.993 . S
Co239 O264 1.941 . S
C240 O241 1.258 . S
C240 O242 1.263 . S
O241 Co238 1.970 . S
O241 C240 1.258 . S
O242 Co239 1.966 . S
O242 C240 1.263 . S
C243 O244 1.235 . S
C243 O270 1.289 . S
O244 C243 1.235 . S
C245 C247 1.400 . S
C245 N248 1.351 . S
C245 C250 1.501 . S
C246 C247 1.387 . S
C246 N249 1.341 . S
C247 C245 1.400 . S
C247 C246 1.387 . S
N248 Co239 2.022 . S
N248 C245 1.351 . S
N248 N249 1.365 . S
N249 C246 1.341 . S
N249 N248 1.365 . S
N249 H269 0.862 . S
C250 C245 1.501 . S
C250 H251 0.961 . S
C250 H252 0.961 . S
C250 H253 0.960 . S
H251 C250 0.961 . S
H252 C250 0.961 . S
H253 C250 0.960 . S
C254 N255 1.342 . S
C254 C258 1.401 . S
C254 C259 1.499 . S
N255 Co238 1.989 . S
N255 C254 1.342 . S
N255 N256 1.388 . S
N256 Co239 1.993 . S
N256 N255 1.388 . S
N256 C257 1.346 . S
C257 N256 1.346 . S
C257 C258 1.396 . S
C257 C267 1.510 . S
C258 C254 1.401 . S
C258 C257 1.396 . S
C259 C254 1.499 . S
C259 H260 0.959 . S
C259 H261 0.960 . S
C259 H262 0.961 . S
H260 C259 0.959 . S
H261 C259 0.960 . S
H262 C259 0.961 . S
O263 Co238 1.967 . S
O263 C271 1.258 . S
O264 Co239 1.941 . S
O264 C271 1.266 . S
H265 C267 0.959 . S
H266 C267 0.961 . S
C267 C257 1.510 . S
C267 H265 0.959 . S
C267 H266 0.961 . S
C267 H268 0.960 . S
H268 C267 0.960 . S
H269 N249 0.862 . S
O270 Co238 1.920 . S
O270 C243 1.289 . S
C271 O263 1.258 . S
C271 O264 1.266 . S
Co272 O275 1.970 . S
Co272 N289 1.989 . S
Co272 O297 1.967 . S
Co272 O304 1.920 . S
Co273 O276 1.966 . S
Co273 N282 2.022 . S
Co273 N290 1.993 . S
Co273 O298 1.941 . S
C274 O275 1.258 . S
C274 O276 1.263 . S
O275 Co272 1.970 . S
O275 C274 1.258 . S
O276 Co273 1.966 . S
O276 C274 1.263 . S
C277 O278 1.235 1_655 S
C277 O304 1.289 . S
O278 C277 1.235 1_455 S
C279 C281 1.400 . S
C279 N282 1.351 . S
C279 C284 1.501 . S
C280 C281 1.387 . S
C280 N283 1.341 . S
C281 C279 1.400 . S
C281 C280 1.387 . S
N282 Co273 2.022 . S
N282 C279 1.351 . S
N282 N283 1.365 . S
N283 C280 1.341 . S
N283 N282 1.365 . S
N283 H303 0.862 . S
C284 C279 1.501 . S
C284 H285 0.961 . S
C284 H286 0.961 1_655 S
C284 H287 0.960 . S
H285 C284 0.961 . S
H286 C284 0.961 1_455 S
H287 C284 0.960 . S
C288 N289 1.342 . S
C288 C292 1.401 . S
C288 C293 1.499 . S
N289 Co272 1.989 . S
N289 C288 1.342 . S
N289 N290 1.388 . S
N290 Co273 1.993 . S
N290 N289 1.388 . S
N290 C291 1.346 . S
C291 N290 1.346 . S
C291 C292 1.396 . S
C291 C301 1.510 . S
C292 C288 1.401 . S
C292 C291 1.396 . S
C293 C288 1.499 . S
C293 H294 0.959 . S
C293 H295 0.960 1_655 S
C293 H296 0.961 . S
H294 C293 0.959 . S
H295 C293 0.960 1_455 S
H296 C293 0.961 . S
O297 Co272 1.967 . S
O297 C305 1.258 . S
O298 Co273 1.941 . S
O298 C305 1.266 . S
H299 C301 0.959 . S
H300 C301 0.961 1_455 S
C301 C291 1.510 . S
C301 H299 0.959 . S
C301 H300 0.961 1_655 S
C301 H302 0.960 . S
H302 C301 0.960 . S
H303 N283 0.862 . S
O304 Co272 1.920 . S
O304 C277 1.289 . S
C305 O297 1.258 . S
C305 O298 1.266 . S
Co306 O309 1.970 . S
Co306 N323 1.989 . S
Co306 O331 1.967 . S
Co306 O338 1.920 . S
Co307 O310 1.966 . S
Co307 N316 2.022 . S
Co307 N324 1.993 . S
Co307 O332 1.941 . S
C308 O309 1.258 . S
C308 O310 1.263 . S
O309 Co306 1.970 . S
O309 C308 1.258 . S
O310 Co307 1.966 . S
O310 C308 1.263 . S
C311 O312 1.235 1_565 S
C311 O338 1.289 . S
O312 C311 1.235 1_545 S
C313 C315 1.400 . S
C313 N316 1.351 . S
C313 C318 1.501 . S
C314 C315 1.387 . S
C314 N317 1.341 . S
C315 C313 1.400 . S
C315 C314 1.387 . S
N316 Co307 2.022 . S
N316 C313 1.351 . S
N316 N317 1.365 . S
N317 C314 1.341 . S
N317 N316 1.365 . S
N317 H337 0.862 . S
C318 C313 1.501 . S
C318 H319 0.961 . S
C318 H320 0.961 1_565 S
C318 H321 0.960 . S
H319 C318 0.961 . S
H320 C318 0.961 1_545 S
H321 C318 0.960 . S
C322 N323 1.342 . S
C322 C326 1.401 . S
C322 C327 1.499 . S
N323 Co306 1.989 . S
N323 C322 1.342 . S
N323 N324 1.388 . S
N324 Co307 1.993 . S
N324 N323 1.388 . S
N324 C325 1.346 . S
C325 N324 1.346 . S
C325 C326 1.396 . S
C325 C335 1.510 . S
C326 C322 1.401 . S
C326 C325 1.396 . S
C327 C322 1.499 . S
C327 H328 0.959 . S
C327 H329 0.960 1_565 S
C327 H330 0.961 . S
H328 C327 0.959 . S
H329 C327 0.960 1_545 S
H330 C327 0.961 . S
O331 Co306 1.967 . S
O331 C339 1.258 . S
O332 Co307 1.941 . S
O332 C339 1.266 . S
H333 C335 0.959 . S
H334 C335 0.961 1_545 S
C335 C325 1.510 . S
C335 H333 0.959 . S
C335 H334 0.961 1_565 S
C335 H336 0.960 . S
H336 C335 0.960 . S
H337 N317 0.862 . S
O338 Co306 1.920 . S
O338 C311 1.289 . S
C339 O331 1.258 . S
C339 O332 1.266 . S
Co340 O343 1.970 . S
Co340 N357 1.989 . S
Co340 O365 1.967 . S
Co340 O372 1.920 . S
Co341 O344 1.966 . S
Co341 N350 2.022 . S
Co341 N358 1.993 . S
Co341 O366 1.941 . S
C342 O343 1.258 . S
C342 O344 1.263 . S
O343 Co340 1.970 . S
O343 C342 1.258 . S
O344 Co341 1.966 . S
O344 C342 1.263 . S
C345 O346 1.235 . S
C345 O372 1.289 . S
O346 C345 1.235 . S
C347 C349 1.400 . S
C347 N350 1.351 . S
C347 C352 1.501 . S
C348 C349 1.387 . S
C348 N351 1.341 . S
C349 C347 1.400 . S
C349 C348 1.387 . S
N350 Co341 2.022 . S
N350 C347 1.351 . S
N350 N351 1.365 . S
N351 C348 1.341 . S
N351 N350 1.365 . S
N351 H371 0.862 . S
C352 C347 1.501 . S
C352 H353 0.961 . S
C352 H354 0.961 . S
C352 H355 0.960 . S
H353 C352 0.961 . S
H354 C352 0.961 . S
H355 C352 0.960 . S
C356 N357 1.342 . S
C356 C360 1.401 . S
C356 C361 1.499 . S
N357 Co340 1.989 . S
N357 C356 1.342 . S
N357 N358 1.388 . S
N358 Co341 1.993 . S
N358 N357 1.388 . S
N358 C359 1.346 . S
C359 N358 1.346 . S
C359 C360 1.396 . S
C359 C369 1.510 . S
C360 C356 1.401 . S
C360 C359 1.396 . S
C361 C356 1.499 . S
C361 H362 0.959 . S
C361 H363 0.960 . S
C361 H364 0.961 . S
H362 C361 0.959 . S
H363 C361 0.960 . S
H364 C361 0.961 . S
O365 Co340 1.967 . S
O365 C373 1.258 . S
O366 Co341 1.941 . S
O366 C373 1.266 . S
H367 C369 0.959 . S
H368 C369 0.961 . S
C369 C359 1.510 . S
C369 H367 0.959 . S
C369 H368 0.961 . S
C369 H370 0.960 . S
H370 C369 0.960 . S
H371 N351 0.862 . S
O372 Co340 1.920 . S
O372 C345 1.289 . S
C373 O365 1.258 . S
C373 O366 1.266 . S
Co374 O377 1.970 . S
Co374 N391 1.989 . S
Co374 O399 1.967 . S
Co374 O406 1.920 . S
Co375 O378 1.966 . S
Co375 N384 2.022 . S
Co375 N392 1.993 . S
Co375 O400 1.941 . S
C376 O377 1.258 . S
C376 O378 1.263 . S
O377 Co374 1.970 . S
O377 C376 1.258 . S
O378 Co375 1.966 . S
O378 C376 1.263 . S
C379 O380 1.235 . S
C379 O406 1.289 . S
O380 C379 1.235 . S
C381 C383 1.400 . S
C381 N384 1.351 . S
C381 C386 1.501 . S
C382 C383 1.387 . S
C382 N385 1.341 . S
C383 C381 1.400 . S
C383 C382 1.387 . S
N384 Co375 2.022 . S
N384 C381 1.351 . S
N384 N385 1.365 . S
N385 C382 1.341 . S
N385 N384 1.365 . S
N385 H405 0.862 . S
C386 C381 1.501 . S
C386 H387 0.961 . S
C386 H388 0.961 . S
C386 H389 0.960 . S
H387 C386 0.961 . S
H388 C386 0.961 . S
H389 C386 0.960 . S
C390 N391 1.342 . S
C390 C394 1.401 . S
C390 C395 1.499 . S
N391 Co374 1.989 . S
N391 C390 1.342 . S
N391 N392 1.388 . S
N392 Co375 1.993 . S
N392 N391 1.388 . S
N392 C393 1.346 . S
C393 N392 1.346 . S
C393 C394 1.396 . S
C393 C403 1.510 . S
C394 C390 1.401 . S
C394 C393 1.396 . S
C395 C390 1.499 . S
C395 H396 0.959 . S
C395 H397 0.960 . S
C395 H398 0.961 . S
H396 C395 0.959 . S
H397 C395 0.960 . S
H398 C395 0.961 . S
O399 Co374 1.967 . S
O399 C407 1.258 . S
O400 Co375 1.941 . S
O400 C407 1.266 . S
H401 C403 0.959 . S
H402 C403 0.961 . S
C403 C393 1.510 . S
C403 H401 0.959 . S
C403 H402 0.961 . S
C403 H404 0.960 . S
H404 C403 0.960 . S
H405 N385 0.862 . S
O406 Co374 1.920 . S
O406 C379 1.289 . S
C407 O399 1.258 . S
C407 O400 1.266 . S
Co408 O411 1.970 . S
Co408 N425 1.989 . S
Co408 O433 1.967 . S
Co408 O440 1.920 . S
Co409 O412 1.966 . S
Co409 N418 2.022 . S
Co409 N426 1.993 . S
Co409 O434 1.941 . S
C410 O411 1.258 . S
C410 O412 1.263 . S
O411 Co408 1.970 . S
O411 C410 1.258 . S
O412 Co409 1.966 . S
O412 C410 1.263 . S
C413 O414 1.235 1_655 S
C413 O440 1.289 . S
O414 C413 1.235 1_455 S
C415 C417 1.400 . S
C415 N418 1.351 . S
C415 C420 1.501 . S
C416 C417 1.387 . S
C416 N419 1.341 . S
C417 C415 1.400 . S
C417 C416 1.387 . S
N418 Co409 2.022 . S
N418 C415 1.351 . S
N418 N419 1.365 . S
N419 C416 1.341 . S
N419 N418 1.365 . S
N419 H439 0.862 . S
C420 C415 1.501 . S
C420 H421 0.961 . S
C420 H422 0.961 1_655 S
C420 H423 0.960 . S
H421 C420 0.961 . S
H422 C420 0.961 1_455 S
H423 C420 0.960 . S
C424 N425 1.342 . S
C424 C428 1.401 . S
C424 C429 1.499 . S
N425 Co408 1.989 . S
N425 C424 1.342 . S
N425 N426 1.388 . S
N426 Co409 1.993 . S
N426 N425 1.388 . S
N426 C427 1.346 . S
C427 N426 1.346 . S
C427 C428 1.396 . S
C427 C437 1.510 . S
C428 C424 1.401 . S
C428 C427 1.396 . S
C429 C424 1.499 . S
C429 H430 0.959 . S
C429 H431 0.960 1_655 S
C429 H432 0.961 . S
H430 C429 0.959 . S
H431 C429 0.960 1_455 S
H432 C429 0.961 . S
O433 Co408 1.967 . S
O433 C441 1.258 . S
O434 Co409 1.941 . S
O434 C441 1.266 . S
H435 C437 0.959 . S
H436 C437 0.961 1_455 S
C437 C427 1.510 . S
C437 H435 0.959 . S
C437 H436 0.961 1_655 S
C437 H438 0.960 . S
H438 C437 0.960 . S
H439 N419 0.862 . S
O440 Co408 1.920 . S
O440 C413 1.289 . S
C441 O433 1.258 . S
C441 O434 1.266 . S
Co442 O445 1.970 . S
Co442 N459 1.989 . S
Co442 O467 1.967 . S
Co442 O474 1.920 . S
Co443 O446 1.966 . S
Co443 N452 2.022 . S
Co443 N460 1.993 . S
Co443 O468 1.941 . S
C444 O445 1.258 . S
C444 O446 1.263 . S
O445 Co442 1.970 . S
O445 C444 1.258 . S
O446 Co443 1.966 . S
O446 C444 1.263 . S
C447 O448 1.235 1_565 S
C447 O474 1.289 . S
O448 C447 1.235 1_545 S
C449 C451 1.400 . S
C449 N452 1.351 . S
C449 C454 1.501 . S
C450 C451 1.387 . S
C450 N453 1.341 . S
C451 C449 1.400 . S
C451 C450 1.387 . S
N452 Co443 2.022 . S
N452 C449 1.351 . S
N452 N453 1.365 . S
N453 C450 1.341 . S
N453 N452 1.365 . S
N453 H473 0.862 . S
C454 C449 1.501 . S
C454 H455 0.961 . S
C454 H456 0.961 1_565 S
C454 H457 0.960 . S
H455 C454 0.961 . S
H456 C454 0.961 1_545 S
H457 C454 0.960 . S
C458 N459 1.342 . S
C458 C462 1.401 . S
C458 C463 1.499 . S
N459 Co442 1.989 . S
N459 C458 1.342 . S
N459 N460 1.388 . S
N460 Co443 1.993 . S
N460 N459 1.388 . S
N460 C461 1.346 . S
C461 N460 1.346 . S
C461 C462 1.396 . S
C461 C471 1.510 . S
C462 C458 1.401 . S
C462 C461 1.396 . S
C463 C458 1.499 . S
C463 H464 0.959 . S
C463 H465 0.960 1_565 S
C463 H466 0.961 . S
H464 C463 0.959 . S
H465 C463 0.960 1_545 S
H466 C463 0.961 . S
O467 Co442 1.967 . S
O467 C475 1.258 . S
O468 Co443 1.941 . S
O468 C475 1.266 . S
H469 C471 0.959 . S
H470 C471 0.961 1_545 S
C471 C461 1.510 . S
C471 H469 0.959 . S
C471 H470 0.961 1_565 S
C471 H472 0.960 . S
H472 C471 0.960 . S
H473 N453 0.862 . S
O474 Co442 1.920 . S
O474 C447 1.289 . S
C475 O467 1.258 . S
C475 O468 1.266 . S
Co476 O479 1.970 . S
Co476 N493 1.989 . S
Co476 O501 1.967 . S
Co476 O508 1.920 . S
Co477 O480 1.966 . S
Co477 N486 2.022 . S
Co477 N494 1.993 . S
Co477 O502 1.941 . S
C478 O479 1.258 . S
C478 O480 1.263 . S
O479 Co476 1.970 . S
O479 C478 1.258 . S
O480 Co477 1.966 . S
O480 C478 1.263 . S
C481 O482 1.235 . S
C481 O508 1.289 . S
O482 C481 1.235 . S
C483 C485 1.400 . S
C483 N486 1.351 . S
C483 C488 1.501 . S
C484 C485 1.387 . S
C484 N487 1.341 . S
C485 C483 1.400 . S
C485 C484 1.387 . S
N486 Co477 2.022 . S
N486 C483 1.351 . S
N486 N487 1.365 . S
N487 C484 1.341 . S
N487 N486 1.365 . S
N487 H507 0.862 . S
C488 C483 1.501 . S
C488 H489 0.961 . S
C488 H490 0.961 . S
C488 H491 0.960 . S
H489 C488 0.961 . S
H490 C488 0.961 . S
H491 C488 0.960 . S
C492 N493 1.342 . S
C492 C496 1.401 . S
C492 C497 1.499 . S
N493 Co476 1.989 . S
N493 C492 1.342 . S
N493 N494 1.388 . S
N494 Co477 1.993 . S
N494 N493 1.388 . S
N494 C495 1.346 . S
C495 N494 1.346 . S
C495 C496 1.396 . S
C495 C505 1.510 . S
C496 C492 1.401 . S
C496 C495 1.396 . S
C497 C492 1.499 . S
C497 H498 0.959 . S
C497 H499 0.960 . S
C497 H500 0.961 . S
H498 C497 0.959 . S
H499 C497 0.960 . S
H500 C497 0.961 . S
O501 Co476 1.967 . S
O501 C509 1.258 . S
O502 Co477 1.941 . S
O502 C509 1.266 . S
H503 C505 0.959 . S
H504 C505 0.961 . S
C505 C495 1.510 . S
C505 H503 0.959 . S
C505 H504 0.961 . S
C505 H506 0.960 . S
H506 C505 0.960 . S
H507 N487 0.862 . S
O508 Co476 1.920 . S
O508 C481 1.289 . S
C509 O501 1.258 . S
C509 O502 1.266 . S
Co510 O513 1.970 . S
Co510 N527 1.989 . S
Co510 O535 1.967 . S
Co510 O542 1.920 . S
Co511 O514 1.966 . S
Co511 N520 2.022 . S
Co511 N528 1.993 . S
Co511 O536 1.941 . S
C512 O513 1.258 . S
C512 O514 1.263 . S
O513 Co510 1.970 . S
O513 C512 1.258 . S
O514 Co511 1.966 . S
O514 C512 1.263 . S
C515 O516 1.235 . S
C515 O542 1.289 . S
O516 C515 1.235 . S
C517 C519 1.400 . S
C517 N520 1.351 . S
C517 C522 1.501 . S
C518 C519 1.387 . S
C518 N521 1.341 . S
C519 C517 1.400 . S
C519 C518 1.387 . S
N520 Co511 2.022 . S
N520 C517 1.351 . S
N520 N521 1.365 . S
N521 C518 1.341 . S
N521 N520 1.365 . S
N521 H541 0.862 . S
C522 C517 1.501 . S
C522 H523 0.961 . S
C522 H524 0.961 . S
C522 H525 0.960 . S
H523 C522 0.961 . S
H524 C522 0.961 . S
H525 C522 0.960 . S
C526 N527 1.342 . S
C526 C530 1.401 . S
C526 C531 1.499 . S
N527 Co510 1.989 . S
N527 C526 1.342 . S
N527 N528 1.388 . S
N528 Co511 1.993 . S
N528 N527 1.388 . S
N528 C529 1.346 . S
C529 N528 1.346 . S
C529 C530 1.396 . S
C529 C539 1.510 . S
C530 C526 1.401 . S
C530 C529 1.396 . S
C531 C526 1.499 . S
C531 H532 0.959 . S
C531 H533 0.960 . S
C531 H534 0.961 . S
H532 C531 0.959 . S
H533 C531 0.960 . S
H534 C531 0.961 . S
O535 Co510 1.967 . S
O535 C543 1.258 . S
O536 Co511 1.941 . S
O536 C543 1.266 . S
H537 C539 0.959 . S
H538 C539 0.961 . S
C539 C529 1.510 . S
C539 H537 0.959 . S
C539 H538 0.961 . S
C539 H540 0.960 . S
H540 C539 0.960 . S
H541 N521 0.862 . S
O542 Co510 1.920 . S
O542 C515 1.289 . S
C543 O535 1.258 . S
C543 O536 1.266 . S
H544 C550 0.930 . S
H545 C553 0.930 . S
H546 C554 0.930 . S
H547 C555 0.930 . S
H548 C558 0.930 . S
H549 C559 0.930 . S
C550 H544 0.930 . S
C550 C551 1.355 . S
C550 C552 1.378 1_556 S
C551 C550 1.355 . S
C551 C553 1.419 . S
C552 C550 1.378 1_554 S
C552 C557 1.422 1_554 S
C552 C559 1.450 . S
C553 H545 0.930 . S
C553 C551 1.419 . S
C553 C554 1.362 . S
C554 H546 0.930 . S
C554 C553 1.362 . S
C554 C557 1.450 . S
C555 H547 0.930 . S
C555 C556 1.355 . S
C555 C557 1.378 1_554 S
C556 C555 1.355 . S
C556 C558 1.419 . S
C557 C552 1.422 1_556 S
C557 C554 1.450 . S
C557 C555 1.378 1_556 S
C558 H548 0.930 . S
C558 C556 1.419 . S
C558 C559 1.362 . S
C559 H549 0.930 . S
C559 C552 1.450 . S
C559 C558 1.362 . S
H560 C566 0.930 . S
H561 C569 0.930 . S
H562 C570 0.930 . S
H563 C571 0.930 . S
H564 C574 0.930 . S
H565 C575 0.930 . S
C566 H560 0.930 . S
C566 C567 1.355 . S
C566 C568 1.415 . S
C567 C566 1.355 . S
C567 C569 1.419 1_545 S
C568 C566 1.415 . S
C568 C573 1.425 . S
C568 C575 1.409 . S
C569 H561 0.930 . S
C569 C567 1.419 1_565 S
C569 C570 1.362 . S
C570 H562 0.930 . S
C570 C569 1.362 . S
C570 C573 1.409 1_565 S
C571 H563 0.930 . S
C571 C572 1.355 1_565 S
C571 C573 1.415 1_565 S
C572 C571 1.355 1_545 S
C572 C574 1.419 . S
C573 C568 1.425 . S
C573 C570 1.409 1_545 S
C573 C571 1.415 1_545 S
C574 H564 0.930 . S
C574 C572 1.419 . S
C574 C575 1.362 . S
C575 H565 0.930 . S
C575 C568 1.409 . S
C575 C574 1.362 . S
H576 C582 0.930 . S
H577 C585 0.930 . S
H578 C586 0.930 . S
H579 C587 0.930 . S
H580 C590 0.930 . S
H581 C591 0.930 . S
C582 H576 0.930 . S
C582 C583 1.355 . S
C582 C584 1.459 . S
C583 C582 1.355 . S
C583 C585 1.419 . S
C584 C582 1.459 . S
C584 C589 1.421 1_554 S
C584 C591 1.369 1_554 S
C585 H577 0.930 . S
C585 C583 1.419 . S
C585 C586 1.362 . S
C586 H578 0.930 . S
C586 C585 1.362 . S
C586 C589 1.369 1_554 S
C587 H579 0.930 . S
C587 C588 1.355 . S
C587 C589 1.459 . S
C588 C587 1.355 . S
C588 C590 1.419 . S
C589 C584 1.421 1_556 S
C589 C586 1.369 1_556 S
C589 C587 1.459 . S
C590 H580 0.930 . S
C590 C588 1.419 . S
C590 C591 1.362 . S
C591 H581 0.930 . S
C591 C584 1.369 1_556 S
C591 C590 1.362 . S
H592 C598 0.930 . S
H593 C601 0.930 . S
H594 C602 0.930 . S
H595 C603 0.930 . S
H596 C606 0.930 . S
H597 C607 0.930 . S
C598 H592 0.930 . S
C598 C599 1.355 . S
C598 C600 1.415 . S
C599 C598 1.355 . S
C599 C601 1.419 . S
C600 C598 1.415 . S
C600 C605 1.425 . S
C600 C607 1.409 . S
C601 H593 0.930 . S
C601 C599 1.419 . S
C601 C602 1.362 . S
C602 H594 0.930 . S
C602 C601 1.362 . S
C602 C605 1.409 . S
C603 H595 0.930 . S
C603 C604 1.355 . S
C603 C605 1.415 . S
C604 C603 1.355 . S
C604 C606 1.419 . S
C605 C600 1.425 . S
C605 C602 1.409 . S
C605 C603 1.415 . S
C606 H596 0.930 . S
C606 C604 1.419 . S
C606 C607 1.362 . S
C607 H597 0.930 . S
C607 C600 1.409 . S
C607 C606 1.362 . S
H608 C614 0.930 . S
H609 C617 0.930 . S
H610 C618 0.930 . S
H611 C619 0.930 . S
H612 C622 0.930 . S
H613 C623 0.930 . S
C614 H608 0.930 . S
C614 C615 1.355 . S
C614 C616 1.415 . S
C615 C614 1.355 . S
C615 C617 1.419 1_655 S
C616 C614 1.415 . S
C616 C621 1.432 1_554 S
C616 C623 1.409 1_554 S
C617 H609 0.930 . S
C617 C615 1.419 1_455 S
C617 C618 1.362 . S
C618 H610 0.930 . S
C618 C617 1.362 . S
C618 C621 1.404 1_454 S
C619 H611 0.930 . S
C619 C620 1.355 1_455 S
C619 C621 1.413 1_455 S
C620 C619 1.355 1_655 S
C620 C622 1.419 . S
C621 C616 1.432 1_556 S
C621 C618 1.404 1_656 S
C621 C619 1.413 1_655 S
C622 H612 0.930 . S
C622 C620 1.419 . S
C622 C623 1.362 . S
C623 H613 0.930 . S
C623 C616 1.409 1_556 S
C623 C622 1.362 . S
H624 C630 0.930 1_545 S
H625 C633 0.930 . S
H626 C634 0.930 . S
H627 C635 0.930 . S
H628 C638 0.930 . S
H629 C639 0.930 . S
C630 H624 0.930 1_565 S
C630 C631 1.355 . S
C630 C632 1.415 . S
C631 C630 1.355 . S
C631 C633 1.419 . S
C632 C630 1.415 . S
C632 C637 1.425 . S
C632 C639 1.409 1_565 S
C633 H625 0.930 . S
C633 C631 1.419 . S
C633 C634 1.362 . S
C634 H626 0.930 . S
C634 C633 1.362 . S
C634 C637 1.409 . S
C635 H627 0.930 . S
C635 C636 1.355 . S
C635 C637 1.415 . S
C636 C635 1.355 . S
C636 C638 1.419 1_565 S
C637 C632 1.425 . S
C637 C634 1.409 . S
C637 C635 1.415 . S
C638 H628 0.930 . S
C638 C636 1.419 1_545 S
C638 C639 1.362 . S
C639 H629 0.930 . S
C639 C632 1.409 1_545 S
C639 C638 1.362 . S
H640 C646 0.930 . S
H641 C649 0.930 . S
H642 C650 0.911 1_554 S
H643 C651 0.930 . S
H644 C654 0.930 . S
H645 C655 0.911 1_556 S
C646 H640 0.930 . S
C646 C647 1.355 . S
C646 C648 1.415 . S
C647 C646 1.355 . S
C647 C649 1.419 . S
C648 C646 1.415 . S
C648 C653 1.425 1_556 S
C648 C655 1.398 1_556 S
C649 H641 0.930 . S
C649 C647 1.419 . S
C649 C650 1.392 . S
C650 H642 0.911 1_556 S
C650 C649 1.392 . S
C650 C653 1.398 1_556 S
C651 H643 0.930 . S
C651 C652 1.355 . S
C651 C653 1.415 . S
C652 C651 1.355 . S
C652 C654 1.419 . S
C653 C648 1.425 1_554 S
C653 C650 1.398 1_554 S
C653 C651 1.415 . S
C654 H644 0.930 . S
C654 C652 1.419 . S
C654 C655 1.392 . S
C655 H645 0.911 1_554 S
C655 C648 1.398 1_554 S
C655 C654 1.392 . S
H656 C662 0.930 . S
H657 C665 0.930 . S
H658 C666 0.930 . S
H659 C667 0.930 . S
H660 C670 0.930 . S
H661 C671 0.930 . S
C662 H656 0.930 . S
C662 C663 1.355 . S
C662 C664 1.415 . S
C663 C662 1.355 . S
C663 C665 1.419 . S
C664 C662 1.415 . S
C664 C669 1.425 . S
C664 C671 1.409 . S
C665 H657 0.930 . S
C665 C663 1.419 . S
C665 C666 1.362 . S
C666 H658 0.930 . S
C666 C665 1.362 . S
C666 C669 1.409 . S
C667 H659 0.930 . S
C667 C668 1.355 . S
C667 C669 1.415 . S
C668 C667 1.355 . S
C668 C670 1.419 . S
C669 C664 1.425 . S
C669 C666 1.409 . S
C669 C667 1.415 . S
C670 H660 0.930 . S
C670 C668 1.419 . S
C670 C671 1.362 . S
C671 H661 0.930 . S
C671 C664 1.409 . S
C671 C670 1.362 . S
H672 C678 0.930 . S
H673 C681 0.930 . S
H674 C682 0.930 . S
H675 C683 0.930 . S
H676 C686 0.930 1_565 S
H677 C687 0.930 . S
C678 H672 0.930 . S
C678 C679 1.355 . S
C678 C680 1.415 1_455 S
C679 C678 1.355 . S
C679 C681 1.419 . S
C680 C678 1.415 1_655 S
C680 C685 1.425 . S
C680 C687 1.409 . S
C681 H673 0.930 . S
C681 C679 1.419 . S
C681 C682 1.362 . S
C682 H674 0.930 . S
C682 C681 1.362 . S
C682 C685 1.409 1_455 S
C683 H675 0.930 . S
C683 C684 1.355 1_545 S
C683 C685 1.415 . S
C684 C683 1.355 1_565 S
C684 C686 1.419 1_565 S
C685 C680 1.425 . S
C685 C682 1.409 1_655 S
C685 C683 1.415 . S
C686 H676 0.930 1_545 S
C686 C684 1.419 1_545 S
C686 C687 1.362 . S
C687 H677 0.930 . S
C687 C680 1.409 . S
C687 C686 1.362 . S
H688 C694 0.930 . S
H689 C697 0.930 . S
H690 C698 0.930 . S
H691 C699 0.930 . S
H692 C702 0.930 . S
H693 C703 0.930 . S
C694 H688 0.930 . S
C694 C695 1.355 . S
C694 C696 1.415 . S
C695 C694 1.355 . S
C695 C697 1.419 1_545 S
C696 C694 1.415 . S
C696 C701 1.425 1_545 S
C696 C703 1.409 . S
C697 H689 0.930 . S
C697 C695 1.419 1_565 S
C697 C698 1.362 . S
C698 H690 0.930 . S
C698 C697 1.362 . S
C698 C701 1.409 . S
C699 H691 0.930 . S
C699 C700 1.355 . S
C699 C701 1.415 . S
C700 C699 1.355 . S
C700 C702 1.419 1_565 S
C701 C696 1.425 1_565 S
C701 C698 1.409 . S
C701 C699 1.415 . S
C702 H692 0.930 . S
C702 C700 1.419 1_545 S
C702 C703 1.362 . S
C703 H693 0.930 . S
C703 C696 1.409 . S
C703 C702 1.362 . S
H704 C710 0.930 . S
H705 C713 0.930 . S
H706 C714 0.930 . S
H707 C715 0.930 . S
H708 C718 0.930 . S
H709 C719 0.930 . S
C710 H704 0.930 . S
C710 C711 1.355 . S
C710 C712 1.415 . S
C711 C710 1.355 . S
C711 C713 1.419 . S
C712 C710 1.415 . S
C712 C717 1.425 . S
C712 C719 1.409 . S
C713 H705 0.930 . S
C713 C711 1.419 . S
C713 C714 1.362 . S
C714 H706 0.930 . S
C714 C713 1.362 . S
C714 C717 1.409 . S
C715 H707 0.930 . S
C715 C716 1.355 . S
C715 C717 1.415 . S
C716 C715 1.355 . S
C716 C718 1.419 . S
C717 C712 1.425 . S
C717 C714 1.409 . S
C717 C715 1.415 . S
C718 H708 0.930 . S
C718 C716 1.419 . S
C718 C719 1.362 . S
C719 H709 0.930 . S
C719 C712 1.409 . S
C719 C718 1.362 . S
H720 C726 0.930 . S
H721 C729 0.930 . S
H722 C730 0.930 . S
H723 C731 0.930 . S
H724 C734 0.930 1_655 S
H725 C735 0.930 . S
C726 H720 0.930 . S
C726 C727 1.355 . S
C726 C728 1.415 . S
C727 C726 1.355 . S
C727 C729 1.419 . S
C728 C726 1.415 . S
C728 C733 1.425 . S
C728 C735 1.409 . S
C729 H721 0.930 . S
C729 C727 1.419 . S
C729 C730 1.362 . S
C730 H722 0.930 . S
C730 C729 1.362 . S
C730 C733 1.409 . S
C731 H723 0.930 . S
C731 C732 1.344 1_455 S
C731 C733 1.415 . S
C732 C731 1.344 1_655 S
C732 C734 1.417 1_655 S
C733 C728 1.425 . S
C733 C730 1.409 . S
C733 C731 1.415 . S
C734 H724 0.930 1_455 S
C734 C732 1.417 1_455 S
C734 C735 1.362 . S
C735 H725 0.930 . S
C735 C728 1.409 . S
C735 C734 1.362 . S
H736 C742 0.930 . S
H737 C745 0.930 . S
H738 C746 0.930 . S
H739 C747 0.930 . S
H740 C750 0.930 . S
H741 C751 0.930 . S
C742 H736 0.930 . S
C742 C743 1.355 1_455 S
C742 C744 1.415 . S
C743 C742 1.355 1_655 S
C743 C745 1.419 . S
C744 C742 1.415 . S
C744 C749 1.425 1_455 S
C744 C751 1.409 . S
C745 H737 0.930 . S
C745 C743 1.419 . S
C745 C746 1.362 . S
C746 H738 0.930 . S
C746 C745 1.362 . S
C746 C749 1.409 . S
C747 H739 0.930 . S
C747 C748 1.355 1_655 S
C747 C749 1.415 . S
C748 C747 1.355 1_455 S
C748 C750 1.419 . S
C749 C744 1.425 1_655 S
C749 C746 1.409 . S
C749 C747 1.415 . S
C750 H740 0.930 . S
C750 C748 1.419 . S
C750 C751 1.362 . S
C751 H741 0.930 . S
C751 C744 1.409 . S
C751 C750 1.362 . S
H752 C758 0.930 . S
H753 C761 0.930 1_655 S
H754 C762 0.930 . S
H755 C763 0.930 . S
H756 C766 0.930 . S
H757 C767 0.930 . S
C758 H752 0.930 . S
C758 C759 1.359 . S
C758 C760 1.415 . S
C759 C758 1.359 . S
C759 C761 1.421 1_565 S
C760 C758 1.415 . S
C760 C765 1.425 1_565 S
C760 C767 1.409 . S
C761 H753 0.930 1_455 S
C761 C759 1.421 1_545 S
C761 C762 1.362 . S
C762 H754 0.930 . S
C762 C761 1.362 . S
C762 C765 1.409 . S
C763 H755 0.930 . S
C763 C764 1.355 . S
C763 C765 1.415 . S
C764 C763 1.355 . S
C764 C766 1.419 1_545 S
C765 C760 1.425 1_545 S
C765 C762 1.409 . S
C765 C763 1.415 . S
C766 H756 0.930 . S
C766 C764 1.419 1_565 S
C766 C767 1.362 . S
C767 H757 0.930 . S
C767 C760 1.409 . S
C767 C766 1.362 . S
H768 C774 0.930 . S
H769 C777 0.930 . S
H770 C778 0.930 . S
H771 C779 0.930 . S
H772 C782 0.930 . S
H773 C783 0.930 . S
C774 H768 0.930 . S
C774 C775 1.355 . S
C774 C776 1.415 . S
C775 C774 1.355 . S
C775 C777 1.419 . S
C776 C774 1.415 . S
C776 C781 1.425 . S
C776 C783 1.409 . S
C777 H769 0.930 . S
C777 C775 1.419 . S
C777 C778 1.362 . S
C778 H770 0.930 . S
C778 C777 1.362 . S
C778 C781 1.409 . S
C779 H771 0.930 . S
C779 C780 1.355 . S
C779 C781 1.415 . S
C780 C779 1.355 . S
C780 C782 1.419 . S
C781 C776 1.425 . S
C781 C778 1.409 . S
C781 C779 1.415 . S
C782 H772 0.930 . S
C782 C780 1.419 . S
C782 C783 1.362 . S
C783 H773 0.930 . S
C783 C776 1.409 . S
C783 C782 1.362 . S
H784 C790 0.930 . S
H785 C793 0.930 . S
H786 C794 0.930 . S
H787 C795 0.930 . S
H788 C798 0.930 . S
H789 C799 0.930 . S
C790 H784 0.930 . S
C790 C791 1.355 . S
C790 C792 1.415 . S
C791 C790 1.355 . S
C791 C793 1.419 . S
C792 C790 1.415 . S
C792 C797 1.425 . S
C792 C799 1.409 . S
C793 H785 0.930 . S
C793 C791 1.419 . S
C793 C794 1.362 . S
C794 H786 0.930 . S
C794 C793 1.362 . S
C794 C797 1.409 . S
C795 H787 0.930 . S
C795 C796 1.355 . S
C795 C797 1.415 . S
C796 C795 1.355 . S
C796 C798 1.419 . S
C797 C792 1.425 . S
C797 C794 1.409 . S
C797 C795 1.415 . S
C798 H788 0.930 . S
C798 C796 1.419 . S
C798 C799 1.362 . S
C799 H789 0.930 . S
C799 C792 1.409 . S
C799 C798 1.362 . S
H800 C806 0.930 . S
H801 C809 0.930 . S
H802 C810 0.930 . S
H803 C811 0.930 . S
H804 C814 0.930 1_545 S
H805 C815 0.930 . S
C806 H800 0.930 . S
C806 C807 1.355 . S
C806 C808 1.415 . S
C807 C806 1.355 . S
C807 C809 1.419 1_655 S
C808 C806 1.415 . S
C808 C813 1.425 1_655 S
C808 C815 1.409 . S
C809 H801 0.930 . S
C809 C807 1.419 1_455 S
C809 C810 1.362 . S
C810 H802 0.930 . S
C810 C809 1.362 . S
C810 C813 1.409 . S
C811 H803 0.930 . S
C811 C812 1.362 . S
C811 C813 1.415 . S
C812 C811 1.362 . S
C812 C814 1.423 1_455 S
C813 C808 1.425 1_455 S
C813 C810 1.409 . S
C813 C811 1.415 . S
C814 H804 0.930 1_565 S
C814 C812 1.423 1_655 S
C814 C815 1.362 . S
C815 H805 0.930 . S
C815 C808 1.409 . S
C815 C814 1.362 . S
H816 C822 0.930 . S
H817 C825 0.930 . S
H818 C826 0.930 . S
H819 C827 0.930 . S
H820 C830 0.930 . S
H821 C831 0.930 . S
C822 H816 0.930 . S
C822 C823 1.355 1_545 S
C822 C824 1.415 . S
C823 C822 1.355 1_565 S
C823 C825 1.419 . S
C824 C822 1.415 . S
C824 C829 1.425 1_545 S
C824 C831 1.409 . S
C825 H817 0.930 . S
C825 C823 1.419 . S
C825 C826 1.362 . S
C826 H818 0.930 . S
C826 C825 1.362 . S
C826 C829 1.409 . S
C827 H819 0.930 . S
C827 C828 1.355 1_565 S
C827 C829 1.415 . S
C828 C827 1.355 1_545 S
C828 C830 1.419 . S
C829 C824 1.425 1_565 S
C829 C826 1.409 . S
C829 C827 1.415 . S
C830 H820 0.930 . S
C830 C828 1.419 . S
C830 C831 1.362 . S
C831 H821 0.930 . S
C831 C824 1.409 . S
C831 C830 1.362 . S
H832 C838 0.930 . S
H833 C841 0.930 . S
H834 C842 0.930 . S
H835 C843 0.930 . S
H836 C846 0.930 . S
H837 C847 0.930 . S
C838 H832 0.930 . S
C838 C839 1.355 . S
C838 C840 1.415 . S
C839 C838 1.355 . S
C839 C841 1.419 . S
C840 C838 1.415 . S
C840 C845 1.425 . S
C840 C847 1.409 . S
C841 H833 0.930 . S
C841 C839 1.419 . S
C841 C842 1.362 . S
C842 H834 0.930 . S
C842 C841 1.362 . S
C842 C845 1.409 . S
C843 H835 0.930 . S
C843 C844 1.355 . S
C843 C845 1.415 . S
C844 C843 1.355 . S
C844 C846 1.419 . S
C845 C840 1.425 . S
C845 C842 1.409 . S
C845 C843 1.415 . S
C846 H836 0.930 . S
C846 C844 1.419 . S
C846 C847 1.362 . S
C847 H837 0.930 . S
C847 C840 1.409 . S
C847 C846 1.362 . S
H848 C854 0.930 . S
H849 C857 0.930 . S
H850 C858 0.930 . S
H851 C859 0.930 . S
H852 C862 0.930 1_455 S
H853 C863 0.930 . S
C854 H848 0.930 . S
C854 C855 1.355 . S
C854 C856 1.415 . S
C855 C854 1.355 . S
C855 C857 1.419 . S
C856 C854 1.415 . S
C856 C861 1.425 . S
C856 C863 1.409 . S
C857 H849 0.930 . S
C857 C855 1.419 . S
C857 C858 1.362 . S
C858 H850 0.930 . S
C858 C857 1.362 . S
C858 C861 1.409 . S
C859 H851 0.930 . S
C859 C860 1.361 . S
C859 C861 1.415 . S
C860 C859 1.361 . S
C860 C862 1.422 . S
C861 C856 1.425 . S
C861 C858 1.409 . S
C861 C859 1.415 . S
C862 H852 0.930 1_655 S
C862 C860 1.422 . S
C862 C863 1.362 . S
C863 H853 0.930 . S
C863 C856 1.409 . S
C863 C862 1.362 . S
H864 C870 0.930 1_455 S
H865 C873 0.930 . S
H866 C874 0.930 . S
H867 C875 0.929 1_655 S
H868 C878 0.930 . S
H869 C879 0.930 . S
C870 H864 0.930 1_655 S
C870 C871 1.355 . S
C870 C872 1.415 1_655 S
C871 C870 1.355 . S
C871 C873 1.419 . S
C872 C870 1.415 1_455 S
C872 C877 1.425 1_455 S
C872 C879 1.409 . S
C873 H865 0.930 . S
C873 C871 1.419 . S
C873 C874 1.362 . S
C874 H866 0.930 . S
C874 C873 1.362 . S
C874 C877 1.409 . S
C875 H867 0.929 1_455 S
C875 C876 1.355 . S
C875 C877 1.415 1_455 S
C876 C875 1.355 . S
C876 C878 1.419 . S
C877 C872 1.425 1_655 S
C877 C874 1.409 . S
C877 C875 1.415 1_655 S
C878 H868 0.930 . S
C878 C876 1.419 . S
C878 C879 1.362 . S
C879 H869 0.930 . S
C879 C872 1.409 . S
C879 C878 1.362 . S
H880 C886 0.930 . S
H881 C889 0.930 . S
H882 C890 0.930 . S
H883 C891 0.930 . S
H884 C894 0.930 1_455 S
H885 C895 0.930 . S
C886 H880 0.930 . S
C886 C887 1.355 . S
C886 C888 1.415 . S
C887 C886 1.355 . S
C887 C889 1.419 1_565 S
C888 C886 1.415 . S
C888 C893 1.425 1_565 S
C888 C895 1.409 . S
C889 H881 0.930 . S
C889 C887 1.419 1_545 S
C889 C890 1.362 . S
C890 H882 0.930 . S
C890 C889 1.362 . S
C890 C893 1.409 . S
C891 H883 0.930 . S
C891 C892 1.358 . S
C891 C893 1.415 . S
C892 C891 1.358 . S
C892 C894 1.420 1_545 S
C893 C888 1.425 1_545 S
C893 C890 1.409 . S
C893 C891 1.415 . S
C894 H884 0.930 1_655 S
C894 C892 1.420 1_565 S
C894 C895 1.362 . S
C895 H885 0.930 . S
C895 C888 1.409 . S
C895 C894 1.362 . S
H896 C902 0.930 . S
H897 C905 0.930 . S
H898 C906 0.930 . S
H899 C907 0.930 . S
H900 C910 0.930 1_545 S
H901 C911 0.930 . S
C902 H896 0.930 . S
C902 C903 1.355 . S
C902 C904 1.415 . S
C903 C902 1.355 . S
C903 C905 1.419 . S
C904 C902 1.415 . S
C904 C909 1.425 . S
C904 C911 1.409 . S
C905 H897 0.930 . S
C905 C903 1.419 . S
C905 C906 1.362 . S
C906 H898 0.930 . S
C906 C905 1.362 . S
C906 C909 1.409 . S
C907 H899 0.930 . S
C907 C908 1.340 1_565 S
C907 C909 1.415 . S
C908 C907 1.340 1_545 S
C908 C910 1.417 1_545 S
C909 C904 1.425 . S
C909 C906 1.409 . S
C909 C907 1.415 . S
C910 H900 0.930 1_565 S
C910 C908 1.417 1_565 S
C910 C911 1.362 . S
C911 H901 0.930 . S
C911 C904 1.409 . S
C911 C910 1.362 . S
H912 C918 0.930 . S
H913 C921 0.930 . S
H914 C922 0.930 . S
H915 C923 0.930 . S
H916 C926 0.930 . S
H917 C927 0.930 . S
C918 H912 0.930 . S
C918 C919 1.355 . S
C918 C920 1.415 . S
C919 C918 1.355 . S
C919 C921 1.419 . S
C920 C918 1.415 . S
C920 C925 1.425 . S
C920 C927 1.409 . S
C921 H913 0.930 . S
C921 C919 1.419 . S
C921 C922 1.362 . S
C922 H914 0.930 . S
C922 C921 1.362 . S
C922 C925 1.409 . S
C923 H915 0.930 . S
C923 C924 1.355 . S
C923 C925 1.415 . S
C924 C923 1.355 . S
C924 C926 1.419 . S
C925 C920 1.425 . S
C925 C922 1.409 . S
C925 C923 1.415 . S
C926 H916 0.930 . S
C926 C924 1.419 . S
C926 C927 1.362 . S
C927 H917 0.930 . S
C927 C920 1.409 . S
C927 C926 1.362 . S
H928 C934 0.930 . S
H929 C937 0.930 . S
H930 C938 0.930 . S
H931 C939 0.930 . S
H932 C942 0.930 . S
H933 C943 0.930 . S
C934 H928 0.930 . S
C934 C935 1.355 . S
C934 C936 1.415 . S
C935 C934 1.355 . S
C935 C937 1.419 . S
C936 C934 1.415 . S
C936 C941 1.425 . S
C936 C943 1.409 . S
C937 H929 0.930 . S
C937 C935 1.419 . S
C937 C938 1.362 . S
C938 H930 0.930 . S
C938 C937 1.362 . S
C938 C941 1.409 . S
C939 H931 0.930 . S
C939 C940 1.355 . S
C939 C941 1.415 . S
C940 C939 1.355 . S
C940 C942 1.419 . S
C941 C936 1.425 . S
C941 C938 1.409 . S
C941 C939 1.415 . S
C942 H932 0.930 . S
C942 C940 1.419 . S
C942 C943 1.362 . S
C943 H933 0.930 . S
C943 C936 1.409 . S
C943 C942 1.362 . S
H944 C950 0.930 . S
H945 C953 0.930 . S
H946 C954 0.930 . S
H947 C955 0.930 . S
H948 C958 0.930 . S
H949 C959 0.930 . S
C950 H944 0.930 . S
C950 C951 1.355 . S
C950 C952 1.415 . S
C951 C950 1.355 . S
C951 C953 1.419 . S
C952 C950 1.415 . S
C952 C957 1.425 . S
C952 C959 1.409 . S
C953 H945 0.930 . S
C953 C951 1.419 . S
C953 C954 1.362 . S
C954 H946 0.930 . S
C954 C953 1.362 . S
C954 C957 1.409 . S
C955 H947 0.930 . S
C955 C956 1.355 . S
C955 C957 1.415 . S
C956 C955 1.355 . S
C956 C958 1.419 . S
C957 C952 1.425 . S
C957 C954 1.409 . S
C957 C955 1.415 . S
C958 H948 0.930 . S
C958 C956 1.419 . S
C958 C959 1.362 . S
C959 H949 0.930 . S
C959 C952 1.409 . S
C959 C958 1.362 . S
H960 C966 0.930 . S
H961 C969 0.930 1_565 S
H962 C970 0.930 . S
H963 C971 0.930 . S
H964 C974 0.930 . S
H965 C975 0.930 . S
C966 H960 0.930 . S
C966 C967 1.355 . S
C966 C968 1.415 . S
C967 C966 1.355 . S
C967 C969 1.419 . S
C968 C966 1.415 . S
C968 C973 1.425 . S
C968 C975 1.409 . S
C969 H961 0.930 1_545 S
C969 C967 1.419 . S
C969 C970 1.362 . S
C970 H962 0.930 . S
C970 C969 1.362 . S
C970 C973 1.409 . S
C971 H963 0.930 . S
C971 C972 1.355 . S
C971 C973 1.415 . S
C972 C971 1.355 . S
C972 C974 1.419 . S
C973 C968 1.425 . S
C973 C970 1.409 . S
C973 C971 1.415 . S
C974 H964 0.930 . S
C974 C972 1.419 . S
C974 C975 1.362 . S
C975 H965 0.930 . S
C975 C968 1.409 . S
C975 C974 1.362 . S
H976 C982 0.930 . S
H977 C985 0.930 . S
H978 C986 0.930 . S
H979 C987 0.930 . S
H980 C990 0.930 . S
H981 C991 0.930 . S
C982 H976 0.930 . S
C982 C983 1.355 . S
C982 C984 1.415 . S
C983 C982 1.355 . S
C983 C985 1.419 . S
C984 C982 1.415 . S
C984 C989 1.425 . S
C984 C991 1.409 . S
C985 H977 0.930 . S
C985 C983 1.419 . S
C985 C986 1.362 . S
C986 H978 0.930 . S
C986 C985 1.362 . S
C986 C989 1.409 . S
C987 H979 0.930 . S
C987 C988 1.355 . S
C987 C989 1.415 . S
C988 C987 1.355 . S
C988 C990 1.419 . S
C989 C984 1.425 . S
C989 C986 1.409 . S
C989 C987 1.415 . S
C990 H980 0.930 . S
C990 C988 1.419 . S
C990 C991 1.362 . S
C991 H981 0.930 . S
C991 C984 1.409 . S
C991 C990 1.362 . S
H992 C998 0.930 . S
H993 C1001 0.930 . S
H994 C1002 0.930 . S
H995 C1003 0.930 . S
H996 C1006 0.930 . S
H997 C1007 0.930 . S
C998 H992 0.930 . S
C998 C999 1.355 . S
C998 C1000 1.415 . S
C999 C998 1.355 . S
C999 C1001 1.419 . S
C1000 C998 1.415 . S
C1000 C1005 1.425 . S
C1000 C1007 1.409 . S
C1001 H993 0.930 . S
C1001 C999 1.419 . S
C1001 C1002 1.362 . S
C1002 H994 0.930 . S
C1002 C1001 1.362 . S
C1002 C1005 1.409 . S
C1003 H995 0.930 . S
C1003 C1004 1.355 . S
C1003 C1005 1.415 . S
C1004 C1003 1.355 . S
C1004 C1006 1.419 . S
C1005 C1000 1.425 . S
C1005 C1002 1.409 . S
C1005 C1003 1.415 . S
C1006 H996 0.930 . S
C1006 C1004 1.419 . S
C1006 C1007 1.362 . S
C1007 H997 0.930 . S
C1007 C1000 1.409 . S
C1007 C1006 1.362 . S
H1008 C1014 0.930 . S
H1009 C1017 0.930 . S
H1010 C1018 0.930 . S
H1011 C1019 0.930 . S
H1012 C1022 0.930 . S
H1013 C1023 0.930 . S
C1014 H1008 0.930 . S
C1014 C1015 1.355 . S
C1014 C1016 1.415 . S
C1015 C1014 1.355 . S
C1015 C1017 1.419 . S
C1016 C1014 1.415 . S
C1016 C1021 1.425 . S
C1016 C1023 1.409 . S
C1017 H1009 0.930 . S
C1017 C1015 1.419 . S
C1017 C1018 1.362 . S
C1018 H1010 0.930 . S
C1018 C1017 1.362 . S
C1018 C1021 1.409 . S
C1019 H1011 0.930 . S
C1019 C1020 1.355 . S
C1019 C1021 1.415 . S
C1020 C1019 1.355 . S
C1020 C1022 1.419 . S
C1021 C1016 1.425 . S
C1021 C1018 1.409 . S
C1021 C1019 1.415 . S
C1022 H1012 0.930 . S
C1022 C1020 1.419 . S
C1022 C1023 1.362 . S
C1023 H1013 0.930 . S
C1023 C1016 1.409 . S
C1023 C1022 1.362 . S
H1024 C1030 0.930 . S
H1025 C1033 0.930 . S
H1026 C1034 0.930 . S
H1027 C1035 0.930 . S
H1028 C1038 0.930 . S
H1029 C1039 0.930 . S
C1030 H1024 0.930 . S
C1030 C1031 1.355 . S
C1030 C1032 1.415 . S
C1031 C1030 1.355 . S
C1031 C1033 1.419 . S
C1032 C1030 1.415 . S
C1032 C1037 1.425 . S
C1032 C1039 1.409 . S
C1033 H1025 0.930 . S
C1033 C1031 1.419 . S
C1033 C1034 1.362 . S
C1034 H1026 0.930 . S
C1034 C1033 1.362 . S
C1034 C1037 1.409 . S
C1035 H1027 0.930 . S
C1035 C1036 1.355 . S
C1035 C1037 1.415 . S
C1036 C1035 1.355 . S
C1036 C1038 1.419 . S
C1037 C1032 1.425 . S
C1037 C1034 1.409 . S
C1037 C1035 1.415 . S
C1038 H1028 0.930 . S
C1038 C1036 1.419 . S
C1038 C1039 1.362 . S
C1039 H1029 0.930 . S
C1039 C1032 1.409 . S
C1039 C1038 1.362 . S
H1040 C1046 0.930 . S
H1041 C1049 0.930 . S
H1042 C1050 0.930 . S
H1043 C1051 0.930 . S
H1044 C1054 0.930 . S
H1045 C1055 0.930 . S
C1046 H1040 0.930 . S
C1046 C1047 1.355 . S
C1046 C1048 1.415 . S
C1047 C1046 1.355 . S
C1047 C1049 1.419 . S
C1048 C1046 1.415 . S
C1048 C1053 1.425 . S
C1048 C1055 1.409 . S
C1049 H1041 0.930 . S
C1049 C1047 1.419 . S
C1049 C1050 1.362 . S
C1050 H1042 0.930 . S
C1050 C1049 1.362 . S
C1050 C1053 1.409 . S
C1051 H1043 0.930 . S
C1051 C1052 1.355 . S
C1051 C1053 1.415 . S
C1052 C1051 1.355 . S
C1052 C1054 1.419 . S
C1053 C1048 1.425 . S
C1053 C1050 1.409 . S
C1053 C1051 1.415 . S
C1054 H1044 0.930 . S
C1054 C1052 1.419 . S
C1054 C1055 1.362 . S
C1055 H1045 0.930 . S
C1055 C1048 1.409 . S
C1055 C1054 1.362 . S
H1056 C1062 0.930 . S
H1057 C1065 0.930 . S
H1058 C1066 0.930 . S
H1059 C1067 0.930 . S
H1060 C1070 0.930 . S
H1061 C1071 0.930 . S
C1062 H1056 0.930 . S
C1062 C1063 1.355 . S
C1062 C1064 1.415 . S
C1063 C1062 1.355 . S
C1063 C1065 1.419 . S
C1064 C1062 1.415 . S
C1064 C1069 1.425 . S
C1064 C1071 1.409 . S
C1065 H1057 0.930 . S
C1065 C1063 1.419 . S
C1065 C1066 1.362 . S
C1066 H1058 0.930 . S
C1066 C1065 1.362 . S
C1066 C1069 1.409 . S
C1067 H1059 0.930 . S
C1067 C1068 1.355 . S
C1067 C1069 1.415 . S
C1068 C1067 1.355 . S
C1068 C1070 1.419 . S
C1069 C1064 1.425 . S
C1069 C1066 1.409 . S
C1069 C1067 1.415 . S
C1070 H1060 0.930 . S
C1070 C1068 1.419 . S
C1070 C1071 1.362 . S
C1071 H1061 0.930 . S
C1071 C1064 1.409 . S
C1071 C1070 1.362 . S
H1072 C1078 0.930 . S
H1073 C1081 0.930 . S
H1074 C1082 0.930 . S
H1075 C1083 0.930 . S
H1076 C1086 0.930 . S
H1077 C1087 0.930 . S
C1078 H1072 0.930 . S
C1078 C1079 1.355 . S
C1078 C1080 1.415 . S
C1079 C1078 1.355 . S
C1079 C1081 1.419 . S
C1080 C1078 1.415 . S
C1080 C1085 1.425 . S
C1080 C1087 1.409 . S
C1081 H1073 0.930 . S
C1081 C1079 1.419 . S
C1081 C1082 1.362 . S
C1082 H1074 0.930 . S
C1082 C1081 1.362 . S
C1082 C1085 1.409 . S
C1083 H1075 0.930 . S
C1083 C1084 1.355 . S
C1083 C1085 1.415 . S
C1084 C1083 1.355 . S
C1084 C1086 1.419 . S
C1085 C1080 1.425 . S
C1085 C1082 1.409 . S
C1085 C1083 1.415 . S
C1086 H1076 0.930 . S
C1086 C1084 1.419 . S
C1086 C1087 1.362 . S
C1087 H1077 0.930 . S
C1087 C1080 1.409 . S
C1087 C1086 1.362 . S
H1088 C1094 0.930 . S
H1089 C1097 0.930 . S
H1090 C1098 0.930 . S
H1091 C1099 0.930 . S
H1092 C1102 0.930 . S
H1093 C1103 0.930 . S
C1094 H1088 0.930 . S
C1094 C1095 1.355 . S
C1094 C1096 1.415 . S
C1095 C1094 1.355 . S
C1095 C1097 1.419 . S
C1096 C1094 1.415 . S
C1096 C1101 1.425 . S
C1096 C1103 1.409 . S
C1097 H1089 0.930 . S
C1097 C1095 1.419 . S
C1097 C1098 1.362 . S
C1098 H1090 0.930 . S
C1098 C1097 1.362 . S
C1098 C1101 1.409 . S
C1099 H1091 0.930 . S
C1099 C1100 1.355 . S
C1099 C1101 1.415 . S
C1100 C1099 1.355 . S
C1100 C1102 1.419 . S
C1101 C1096 1.425 . S
C1101 C1098 1.409 . S
C1101 C1099 1.415 . S
C1102 H1092 0.930 . S
C1102 C1100 1.419 . S
C1102 C1103 1.362 . S
C1103 H1093 0.930 . S
C1103 C1096 1.409 . S
C1103 C1102 1.362 . S
H1104 C1110 0.930 . S
H1105 C1113 0.930 . S
H1106 C1114 0.930 . S
H1107 C1115 0.930 . S
H1108 C1118 0.930 . S
H1109 C1119 0.930 . S
C1110 H1104 0.930 . S
C1110 C1111 1.355 . S
C1110 C1112 1.415 . S
C1111 C1110 1.355 . S
C1111 C1113 1.419 . S
C1112 C1110 1.415 . S
C1112 C1117 1.425 . S
C1112 C1119 1.409 . S
C1113 H1105 0.930 . S
C1113 C1111 1.419 . S
C1113 C1114 1.362 . S
C1114 H1106 0.930 . S
C1114 C1113 1.362 . S
C1114 C1117 1.409 . S
C1115 H1107 0.930 . S
C1115 C1116 1.355 . S
C1115 C1117 1.415 . S
C1116 C1115 1.355 . S
C1116 C1118 1.419 . S
C1117 C1112 1.425 . S
C1117 C1114 1.409 . S
C1117 C1115 1.415 . S
C1118 H1108 0.930 . S
C1118 C1116 1.419 . S
C1118 C1119 1.362 . S
C1119 H1109 0.930 . S
C1119 C1112 1.409 . S
C1119 C1118 1.362 . S
H1120 C1126 0.930 . S
H1121 C1129 0.930 . S
H1122 C1130 0.930 . S
H1123 C1131 0.930 . S
H1124 C1134 0.930 . S
H1125 C1135 0.930 . S
C1126 H1120 0.930 . S
C1126 C1127 1.355 . S
C1126 C1128 1.415 . S
C1127 C1126 1.355 . S
C1127 C1129 1.419 . S
C1128 C1126 1.415 . S
C1128 C1133 1.425 . S
C1128 C1135 1.409 . S
C1129 H1121 0.930 . S
C1129 C1127 1.419 . S
C1129 C1130 1.362 . S
C1130 H1122 0.930 . S
C1130 C1129 1.362 . S
C1130 C1133 1.409 . S
C1131 H1123 0.930 . S
C1131 C1132 1.355 . S
C1131 C1133 1.415 . S
C1132 C1131 1.355 . S
C1132 C1134 1.419 . S
C1133 C1128 1.425 . S
C1133 C1130 1.409 . S
C1133 C1131 1.415 . S
C1134 H1124 0.930 . S
C1134 C1132 1.419 . S
C1134 C1135 1.362 . S
C1135 H1125 0.930 . S
C1135 C1128 1.409 . S
C1135 C1134 1.362 . S
H1136 C1142 0.930 . S
H1137 C1145 0.930 . S
H1138 C1146 0.930 . S
H1139 C1147 0.930 . S
H1140 C1150 0.930 . S
H1141 C1151 0.930 . S
C1142 H1136 0.930 . S
C1142 C1143 1.355 . S
C1142 C1144 1.415 . S
C1143 C1142 1.355 . S
C1143 C1145 1.419 . S
C1144 C1142 1.415 . S
C1144 C1149 1.425 . S
C1144 C1151 1.409 . S
C1145 H1137 0.930 . S
C1145 C1143 1.419 . S
C1145 C1146 1.362 . S
C1146 H1138 0.930 . S
C1146 C1145 1.362 . S
C1146 C1149 1.409 . S
C1147 H1139 0.930 . S
C1147 C1148 1.355 . S
C1147 C1149 1.415 . S
C1148 C1147 1.355 . S
C1148 C1150 1.419 . S
C1149 C1144 1.425 . S
C1149 C1146 1.409 . S
C1149 C1147 1.415 . S
C1150 H1140 0.930 . S
C1150 C1148 1.419 . S
C1150 C1151 1.362 . S
C1151 H1141 0.930 . S
C1151 C1144 1.409 . S
C1151 C1150 1.362 . S
H1152 C1158 0.930 . S
H1153 C1161 0.930 . S
H1154 C1162 0.930 . S
H1155 C1163 0.930 . S
H1156 C1166 0.930 . S
H1157 C1167 0.930 . S
C1158 H1152 0.930 . S
C1158 C1159 1.355 . S
C1158 C1160 1.415 . S
C1159 C1158 1.355 . S
C1159 C1161 1.419 . S
C1160 C1158 1.415 . S
C1160 C1165 1.425 . S
C1160 C1167 1.409 . S
C1161 H1153 0.930 . S
C1161 C1159 1.419 . S
C1161 C1162 1.362 . S
C1162 H1154 0.930 . S
C1162 C1161 1.362 . S
C1162 C1165 1.409 . S
C1163 H1155 0.930 . S
C1163 C1164 1.355 . S
C1163 C1165 1.415 . S
C1164 C1163 1.355 . S
C1164 C1166 1.419 . S
C1165 C1160 1.425 . S
C1165 C1162 1.409 . S
C1165 C1163 1.415 . S
C1166 H1156 0.930 . S
C1166 C1164 1.419 . S
C1166 C1167 1.362 . S
C1167 H1157 0.930 . S
C1167 C1160 1.409 . S
C1167 C1166 1.362 . S
H1168 C1174 0.930 . S
H1169 C1177 0.930 . S
H1170 C1178 0.930 . S
H1171 C1179 0.930 . S
H1172 C1182 0.930 . S
H1173 C1183 0.930 . S
C1174 H1168 0.930 . S
C1174 C1175 1.355 . S
C1174 C1176 1.415 . S
C1175 C1174 1.355 . S
C1175 C1177 1.419 . S
C1176 C1174 1.415 . S
C1176 C1181 1.425 . S
C1176 C1183 1.409 . S
C1177 H1169 0.930 . S
C1177 C1175 1.419 . S
C1177 C1178 1.362 . S
C1178 H1170 0.930 . S
C1178 C1177 1.362 . S
C1178 C1181 1.409 . S
C1179 H1171 0.930 . S
C1179 C1180 1.355 . S
C1179 C1181 1.415 . S
C1180 C1179 1.355 . S
C1180 C1182 1.419 . S
C1181 C1176 1.425 . S
C1181 C1178 1.409 . S
C1181 C1179 1.415 . S
C1182 H1172 0.930 . S
C1182 C1180 1.419 . S
C1182 C1183 1.362 . S
C1183 H1173 0.930 . S
C1183 C1176 1.409 . S
C1183 C1182 1.362 . S
C551 C141 1.577 . S
C556 C5 1.582 . S
C567 C175 1.610 . S
C572 C39 1.618 . S
C583 C73 1.585 . S
C588 C209 1.578 . S
C599 C243 1.615 . S
C604 C107 1.620 . S
C615 C413 1.583 . S
C620 C277 1.595 . S
C631 C311 1.620 . S
C636 C447 1.616 . S
C647 C345 1.608 . S
C652 C481 1.617 . S
C663 C379 1.577 . S
C668 C515 1.579 . S
C679 C2 1.375 . S
C684 C428 1.410 . S
C695 C36 1.417 . S
C700 C462 1.423 . S
C711 C496 1.425 . S
C716 C70 1.420 . S
C727 C104 1.383 . S
C732 C530 1.423 . S
C743 C292 1.420 . S
C748 C138 1.386 . S
C759 C326 1.428 1_455 S
C764 C172 1.428 . S
C775 C206 1.403 . S
C780 C360 1.428 1_545 S
C791 C394 1.423 . S
C796 C240 1.391 . S
C807 C274 1.427 . S
C812 C156 1.423 1_565 S
C823 C308 1.380 . S
C828 C190 1.417 . S
C839 C224 1.432 . S
C844 C342 1.428 . S
C855 C376 1.427 . S
C860 C258 1.425 1_655 S
C871 C410 1.383 . S
C876 C20 1.410 . S
C887 C444 1.428 . S
C892 C54 1.429 1_655 S
C903 C478 1.412 . S
C908 C88 1.438 . S
C919 C122 1.412 . S
C924 C512 1.392 . S
C935 C247 1.644 . S
C940 C9 1.598 . S
C951 C43 1.670 . S
C956 C145 1.621 . S
C967 C179 1.678 . S
C972 C77 1.631 . S
C983 C213 1.586 . S
C988 C111 1.621 . S
C999 C281 1.584 . S
C1004 C519 1.604 . S
C1015 C417 1.603 . S
C1020 C315 1.584 . S
C1031 C349 1.684 . S
C1036 C451 1.641 . S
C1047 C485 1.640 . S
C1052 C383 1.684 . S
C1063 C101 0.257 . S
C1068 C33 0.371 . S
C1079 C135 0.355 . S
C1084 C67 0.395 . S
C1095 C169 0.218 . S
C1100 C237 0.185 . S
C1111 C271 0.395 . S
C1116 C203 0.350 . S
C1127 C305 0.336 . S
C1132 C373 0.396 . S
C1143 C407 0.347 . S
C1148 C339 0.396 . S
C1159 C441 0.178 . S
C1164 C509 0.299 . S
C1175 C475 0.342 . S
C1180 C543 0.396 . S
