# Generated by pormake.
# Topology ske, (6)-cn, num edge types: 1
# Building blocks:
#     Node 0, Type 0, BuildingBlock: INOVEN_clean_sbu_0, # of connection points: 6
#     Node 1, Type 0, BuildingBlock: INOVEN_clean_sbu_0, # of connection points: 6
#     Node 2, Type 0, BuildingBlock: INOVEN_clean_sbu_0, # of connection points: 6
#     Node 3, Type 0, BuildingBlock: INOVEN_clean_sbu_0, # of connection points: 6
#     Node 4, Type 0, BuildingBlock: INOVEN_clean_sbu_0, # of connection points: 6
#     Node 5, Type 0, BuildingBlock: INOVEN_clean_sbu_0, # of connection points: 6
#     Node 6, Type 0, BuildingBlock: INOVEN_clean_sbu_0, # of connection points: 6
#     Node 7, Type 0, BuildingBlock: INOVEN_clean_sbu_0, # of connection points: 6
#     Edge 8, Type (0, 0), BuildingBlock: OJICUG_clean_linker_0, # of connection points: 2
#     Edge 9, Type (0, 0), BuildingBlock: OJICUG_clean_linker_0, # of connection points: 2
#     Edge 10, Type (0, 0), BuildingBlock: OJICUG_clean_linker_0, # of connection points: 2
#     Edge 11, Type (0, 0), BuildingBlock: OJICUG_clean_linker_0, # of connection points: 2
#     Edge 12, Type (0, 0), BuildingBlock: OJICUG_clean_linker_0, # of connection points: 2
#     Edge 13, Type (0, 0), BuildingBlock: OJICUG_clean_linker_0, # of connection points: 2
#     Edge 14, Type (0, 0), BuildingBlock: OJICUG_clean_linker_0, # of connection points: 2
#     Edge 15, Type (0, 0), BuildingBlock: OJICUG_clean_linker_0, # of connection points: 2
#     Edge 16, Type (0, 0), BuildingBlock: OJICUG_clean_linker_0, # of connection points: 2
#     Edge 17, Type (0, 0), BuildingBlock: OJICUG_clean_linker_0, # of connection points: 2
#     Edge 18, Type (0, 0), BuildingBlock: OJICUG_clean_linker_0, # of connection points: 2
#     Edge 19, Type (0, 0), BuildingBlock: OJICUG_clean_linker_0, # of connection points: 2
#     Edge 20, Type (0, 0), BuildingBlock: OJICUG_clean_linker_0, # of connection points: 2
#     Edge 21, Type (0, 0), BuildingBlock: OJICUG_clean_linker_0, # of connection points: 2
#     Edge 22, Type (0, 0), BuildingBlock: OJICUG_clean_linker_0, # of connection points: 2
#     Edge 23, Type (0, 0), BuildingBlock: OJICUG_clean_linker_0, # of connection points: 2
#     Edge 24, Type (0, 0), BuildingBlock: OJICUG_clean_linker_0, # of connection points: 2
#     Edge 25, Type (0, 0), BuildingBlock: OJICUG_clean_linker_0, # of connection points: 2
#     Edge 26, Type (0, 0), BuildingBlock: OJICUG_clean_linker_0, # of connection points: 2
#     Edge 27, Type (0, 0), BuildingBlock: OJICUG_clean_linker_0, # of connection points: 2
#     Edge 28, Type (0, 0), BuildingBlock: OJICUG_clean_linker_0, # of connection points: 2
#     Edge 29, Type (0, 0), BuildingBlock: OJICUG_clean_linker_0, # of connection points: 2
#     Edge 30, Type (0, 0), BuildingBlock: OJICUG_clean_linker_0, # of connection points: 2
#     Edge 31, Type (0, 0), BuildingBlock: OJICUG_clean_linker_0, # of connection points: 2
# Relax obj value: 0.198
# Max RMSD: 0.214
# Mean RMSD: 0.207
data_MOF--net-ske--node1-INOVEN_clean_sbu_0--edge1-OJICUG_clean_linker_0
_symmetry_space_group_name_H-M    P1
_symmetry_Int_Tables_number       1
_symmetry_cell_setting            triclinic
loop_
_symmetry_equiv_pos_as_xyz
'x, y, z'
_cell_length_a     87.496741
_cell_length_b     20.91423
_cell_length_c     11.473402
_cell_angle_alpha  90.096085
_cell_angle_beta   89.896106
_cell_angle_gamma 82.195731
loop_
_atom_site_label
_atom_site_type_symbol
_atom_site_fract_x
_atom_site_fract_y
_atom_site_fract_z
_atom_type_partial_charge
Gd0 Gd 0.16301 0.24613 0.52884 0.0
Gd1 Gd 0.12628 0.24924 0.53041 0.0
C2 C 0.14508 0.24644 0.77829 0.0
C3 C 0.19074 0.27631 0.54157 0.0
C4 C 0.20594 0.26631 0.5994 0.0
C5 C 0.21384 0.20457 0.62223 0.0
C6 C 0.21317 0.3206 0.62431 0.0
C7 C 0.23626 0.25205 0.69054 0.0
C8 C 0.22813 0.31366 0.66924 0.0
C9 C 0.22887 0.19752 0.66745 0.0
C10 C 0.1529 0.12875 0.5148 0.0
C11 C 0.14476 0.24886 0.28672 0.0
C12 C 0.09895 0.21462 0.5341 0.0
C13 C 0.08226 0.23235 0.50948 0.0
C14 C 0.07253 0.26762 0.59143 0.0
C15 C 0.07558 0.20619 0.41201 0.0
C16 C 0.04979 0.24616 0.48356 0.0
C17 C 0.05952 0.21337 0.39877 0.0
C18 C 0.0565 0.2745 0.57849 0.0
C19 C 0.13416 0.37136 0.50676 0.0
O20 O 0.15824 0.25003 0.72255 0.0
O21 O 0.13196 0.24148 0.72295 0.0
O22 O 0.18694 0.23044 0.47408 0.0
O23 O 0.17909 0.30615 0.60056 0.0
O24 O 0.16637 0.14005 0.47927 0.0
O25 O 0.14652 0.1774 0.57032 0.0
O26 O 0.13319 0.22761 0.34296 0.0
O27 O 0.15624 0.27055 0.343 0.0
O28 O 0.10487 0.24356 0.62118 0.0
O29 O 0.10851 0.20242 0.44617 0.0
O30 O 0.12 0.35912 0.50932 0.0
O31 O 0.14267 0.31814 0.51477 0.0
H32 H 0.20851 0.16186 0.60364 0.0
H33 H 0.20735 0.36867 0.60623 0.0
H34 H 0.23347 0.35671 0.68406 0.0
H35 H 0.2347 0.14938 0.6842 0.0
H36 H 0.07723 0.28797 0.66816 0.0
H37 H 0.08274 0.17785 0.34832 0.0
H38 H 0.05471 0.1906 0.32508 0.0
H39 H 0.04933 0.30089 0.64444 0.0
Gd40 Gd 0.87152 0.26944 0.5378 0.0
Gd41 Gd 0.90636 0.26939 0.54117 0.0
C42 C 0.8888 0.27302 0.78647 0.0
C43 C 0.84378 0.23959 0.5537 0.0
C44 C 0.8287 0.25038 0.61401 0.0
C45 C 0.82023 0.31215 0.6255 0.0
C46 C 0.822 0.19651 0.65045 0.0
C47 C 0.79825 0.2653 0.70351 0.0
C48 C 0.80697 0.2038 0.6948 0.0
C49 C 0.80515 0.3195 0.66988 0.0
C50 C 0.88029 0.38956 0.53179 0.0
C51 C 0.88862 0.27196 0.29357 0.0
C52 C 0.93435 0.29701 0.52697 0.0
C53 C 0.95065 0.27695 0.49383 0.0
C54 C 0.95939 0.22266 0.54428 0.0
C55 C 0.95819 0.31843 0.42476 0.0
C56 C 0.98311 0.25596 0.46778 0.0
C57 C 0.97425 0.30795 0.41142 0.0
C58 C 0.97545 0.21232 0.53136 0.0
C59 C 0.89761 0.14894 0.54268 0.0
O60 O 0.87692 0.25533 0.72973 0.0
O61 O 0.90052 0.29218 0.72956 0.0
O62 O 0.84754 0.28543 0.4863 0.0
O63 O 0.85553 0.20891 0.61013 0.0
O64 O 0.86743 0.37562 0.4894 0.0
O65 O 0.88677 0.34194 0.58851 0.0
O66 O 0.90025 0.29108 0.35178 0.0
O67 O 0.87722 0.24953 0.34904 0.0
O68 O 0.92894 0.26868 0.61651 0.0
O69 O 0.92409 0.3117 0.44514 0.0
O70 O 0.91037 0.16275 0.58698 0.0
O71 O 0.89121 0.19733 0.48768 0.0
H72 H 0.82511 0.35459 0.59792 0.0
H73 H 0.82824 0.14834 0.64114 0.0
H74 H 0.80201 0.16091 0.71835 0.0
H75 H 0.79886 0.36765 0.67703 0.0
H76 H 0.95393 0.18974 0.59806 0.0
H77 H 0.95174 0.36101 0.38604 0.0
H78 H 0.97977 0.34272 0.36253 0.0
H79 H 0.98192 0.1712 0.57428 0.0
Gd80 Gd 0.12621 0.75039 0.50309 0.0
Gd81 Gd 0.16093 0.74967 0.50832 0.0
C82 C 0.14365 0.74914 0.7522 0.0
C83 C 0.09813 0.72348 0.51328 0.0
C84 C 0.08189 0.74084 0.5519 0.0
C85 C 0.07207 0.78978 0.49488 0.0
C86 C 0.07543 0.70119 0.63192 0.0
C87 C 0.04956 0.75438 0.58728 0.0
C88 C 0.05944 0.70817 0.65009 0.0
C89 C 0.05611 0.79638 0.51231 0.0
C90 C 0.13508 0.87066 0.50326 0.0
C91 C 0.14382 0.74715 0.25877 0.0
C92 C 0.18891 0.77718 0.49429 0.0
C93 C 0.20397 0.76707 0.43351 0.0
C94 C 0.21285 0.7059 0.42586 0.0
C95 C 0.21036 0.8212 0.39423 0.0
C96 C 0.23456 0.75405 0.34665 0.0
C97 C 0.22545 0.81483 0.35113 0.0
C98 C 0.22798 0.69949 0.38277 0.0
C99 C 0.15186 0.62992 0.51309 0.0
O100 O 0.13186 0.73126 0.69413 0.0
O101 O 0.15523 0.77016 0.69671 0.0
O102 O 0.10329 0.75849 0.43162 0.0
O103 O 0.10873 0.70155 0.58908 0.0
O104 O 0.12243 0.85698 0.45694 0.0
O105 O 0.14138 0.8222 0.55848 0.0
O106 O 0.15571 0.76445 0.31602 0.0
O107 O 0.13211 0.72779 0.31521 0.0
O108 O 0.18496 0.73002 0.5575 0.0
O109 O 0.17722 0.81041 0.441 0.0
O110 O 0.16433 0.64421 0.56145 0.0
O111 O 0.14575 0.67756 0.45463 0.0
H112 H 0.07659 0.82107 0.43219 0.0
H113 H 0.08267 0.66249 0.67589 0.0
H114 H 0.05474 0.6749 0.70804 0.0
H115 H 0.04882 0.83307 0.46394 0.0
H116 H 0.20826 0.66324 0.45583 0.0
H117 H 0.20383 0.86898 0.40071 0.0
H118 H 0.23015 0.858 0.32552 0.0
H119 H 0.23458 0.65182 0.37887 0.0
Gd120 Gd 0.90607 0.76918 0.52573 0.0
Gd121 Gd 0.87116 0.77071 0.5295 0.0
C122 C 0.8882 0.77276 0.77329 0.0
C123 C 0.93414 0.79607 0.5403 0.0
C124 C 0.95055 0.77526 0.56991 0.0
C125 C 0.95981 0.72959 0.50098 0.0
C126 C 0.95766 0.80901 0.65584 0.0
C127 C 0.98305 0.75712 0.59471 0.0
C128 C 0.97374 0.79977 0.66865 0.0
C129 C 0.97586 0.72071 0.51323 0.0
C130 C 0.89715 0.6491 0.52359 0.0
C131 C 0.88852 0.77332 0.28051 0.0
C132 C 0.84323 0.74294 0.51329 0.0
C133 C 0.82822 0.75444 0.45228 0.0
C134 C 0.81944 0.81588 0.44741 0.0
C135 C 0.82186 0.70121 0.40852 0.0
C136 C 0.79788 0.76974 0.36098 0.0
C137 C 0.80689 0.7087 0.36329 0.0
C138 C 0.80443 0.82342 0.40212 0.0
C139 C 0.88035 0.89014 0.53676 0.0
O140 O 0.89982 0.79194 0.71484 0.0
O141 O 0.8768 0.75036 0.71796 0.0
O142 O 0.92852 0.77051 0.44856 0.0
O143 O 0.92402 0.80853 0.62415 0.0
O144 O 0.91 0.66257 0.48012 0.0
O145 O 0.89069 0.6976 0.57861 0.0
O146 O 0.87654 0.75646 0.33742 0.0
O147 O 0.90034 0.79161 0.33723 0.0
O148 O 0.84713 0.78861 0.58062 0.0
O149 O 0.85495 0.71118 0.45754 0.0
O150 O 0.86742 0.87692 0.57941 0.0
O151 O 0.88661 0.84231 0.47922 0.0
H152 H 0.95475 0.70284 0.43365 0.0
H153 H 0.95085 0.84511 0.70913 0.0
H154 H 0.97892 0.82882 0.73176 0.0
H155 H 0.98271 0.68678 0.45613 0.0
H156 H 0.82402 0.85785 0.48082 0.0
H157 H 0.82831 0.65322 0.41273 0.0
H158 H 0.80221 0.66613 0.33396 0.0
H159 H 0.79791 0.87128 0.40016 0.0
Gd160 Gd 0.66097 0.79377 1.0251 0.0
Gd161 Gd 0.62721 0.79719 0.0385 0.0
C162 C 0.64437 0.78803 0.2791 0.0
C163 C 0.68952 0.81441 0.03988 0.0
C164 C 0.70405 0.80489 0.10775 0.0
C165 C 0.71291 0.74379 0.11757 0.0
C166 C 0.71016 0.85909 0.1503 0.0
C167 C 0.73412 0.79209 0.20404 0.0
C168 C 0.72499 0.85279 0.19826 0.0
C169 C 0.72776 0.73749 0.16527 0.0
C170 C 0.65151 0.67588 1.00984 0.0
C171 C 0.64374 0.7993 0.78465 0.0
C172 C 0.59829 0.78515 1.02467 0.0
C173 C 0.58157 0.78028 1.02054 0.0
C174 C 0.57131 0.81965 0.09325 0.0
C175 C 0.57568 0.73688 0.94464 0.0
C176 C 0.54954 0.77224 1.01504 0.0
C177 C 0.55979 0.73319 0.94136 0.0
C178 C 0.55551 0.81549 0.09091 0.0
C179 C 0.63714 0.91436 0.05331 0.0
O180 O 0.65623 0.80479 0.22003 0.0
O181 O 0.63237 0.77065 0.22413 0.0
O182 O 0.68514 0.76437 0.98764 0.0
O183 O 0.67795 0.85469 0.08008 0.0
O184 O 0.66268 0.69346 0.94902 0.0
O185 O 0.64621 0.72002 0.0796 0.0
O186 O 0.63197 0.78246 0.8444 0.0
O187 O 0.6556 0.81821 0.83897 0.0
O188 O 0.60337 0.83562 0.06956 0.0
O189 O 0.60903 0.74044 0.98572 0.0
O190 O 0.62645 0.89643 0.11848 0.0
O191 O 0.64198 0.87029 0.98231 0.0
H192 H 0.70859 0.701 0.08516 0.0
H193 H 0.7037 0.90687 0.14229 0.0
H194 H 0.72954 0.89595 0.22614 0.0
H195 H 0.73437 0.68988 0.17011 0.0
H196 H 0.5755 0.85356 0.15276 0.0
H197 H 0.58332 0.70603 0.88753 0.0
H198 H 0.55556 0.69905 0.88258 0.0
H199 H 0.54791 0.84668 0.14786 0.0
Gd200 Gd 0.37239 0.7335 0.02943 0.0
Gd201 Gd 0.40613 0.73029 0.04215 0.0
C202 C 0.38894 0.7395 0.28318 0.0
C203 C 0.34386 0.71268 0.04361 0.0
C204 C 0.32919 0.72196 0.11013 0.0
C205 C 0.32036 0.78309 0.12125 0.0
C206 C 0.32291 0.66751 0.14947 0.0
C207 C 0.29886 0.73434 0.20221 0.0
C208 C 0.30796 0.67359 0.19531 0.0
C209 C 0.30537 0.78918 0.1669 0.0
C210 C 0.38181 0.85147 1.01433 0.0
C211 C 0.38965 0.72786 0.78865 0.0
C212 C 0.43503 0.74263 1.02769 0.0
C213 C 0.45174 0.74772 1.02304 0.0
C214 C 0.46204 0.70816 0.0946 0.0
C215 C 0.45758 0.79152 0.94777 0.0
C216 C 0.48375 0.75616 1.01644 0.0
C217 C 0.47345 0.79541 0.94394 0.0
C218 C 0.47784 0.71252 0.09172 0.0
C219 C 0.39624 0.61301 0.05697 0.0
O220 O 0.37709 0.72269 0.22429 0.0
O221 O 0.40094 0.75686 0.22802 0.0
O222 O 0.34826 0.76272 0.99172 0.0
O223 O 0.35539 0.67265 0.08444 0.0
O224 O 0.37068 0.83372 0.9536 0.0
O225 O 0.3871 0.80744 0.08388 0.0
O226 O 0.4014 0.74492 0.8482 0.0
O227 O 0.37782 0.70876 0.84321 0.0
O228 O 0.42999 0.69197 0.07198 0.0
O229 O 0.42427 0.78734 0.98969 0.0
O230 O 0.4069 0.63114 0.122 0.0
O231 O 0.3914 0.65696 0.9861 0.0
H232 H 0.32481 0.82606 0.0913 0.0
H233 H 0.32936 0.61973 0.14034 0.0
H234 H 0.30329 0.63026 0.22049 0.0
H235 H 0.29878 0.83681 0.17272 0.0
H236 H 0.45789 0.67395 0.15362 0.0
H237 H 0.44989 0.82254 0.89155 0.0
H238 H 0.47765 0.82985 0.88565 0.0
H239 H 0.48547 0.68115 0.14776 0.0
Gd240 Gd 0.62725 0.29719 1.02272 0.0
Gd241 Gd 0.661 0.29368 0.03542 0.0
C242 C 0.64375 0.2997 0.27622 0.0
C243 C 0.59835 0.28492 0.0373 0.0
C244 C 0.58164 0.27991 0.04194 0.0
C245 C 0.57135 0.31944 0.97025 0.0
C246 C 0.57578 0.23622 0.11734 0.0
C247 C 0.54962 0.27164 0.04849 0.0
C248 C 0.5599 0.23241 0.12114 0.0
C249 C 0.55555 0.31517 0.97311 0.0
C250 C 0.63712 0.41441 1.0081 0.0
C251 C 0.64443 0.28802 0.78169 0.0
C252 C 0.68958 0.31369 1.02075 0.0
C253 C 0.70414 0.30392 0.95292 0.0
C254 C 0.71255 0.24224 0.93738 0.0
C255 C 0.71072 0.35811 0.91615 0.0
C256 C 0.73426 0.28975 0.85692 0.0
C257 C 0.72558 0.35116 0.86839 0.0
C258 C 0.72744 0.23527 0.88981 0.0
C259 C 0.65143 0.17594 0.05089 0.0
O260 O 0.63199 0.28273 0.21671 0.0
O261 O 0.6556 0.3186 0.22162 0.0
O262 O 0.6034 0.33543 0.99251 0.0
O263 O 0.60911 0.2403 0.07573 0.0
O264 O 0.62642 0.39639 0.94331 0.0
O265 O 0.64204 0.37039 0.0786 0.0
O266 O 0.65629 0.30474 0.84062 0.0
O267 O 0.63243 0.27065 0.83682 0.0
O268 O 0.68512 0.26372 0.07241 0.0
O269 O 0.67808 0.35422 0.98084 0.0
O270 O 0.66254 0.19365 0.11198 0.0
O271 O 0.64626 0.21988 0.98082 0.0
H272 H 0.57551 0.35358 0.91114 0.0
H273 H 0.58345 0.20522 0.17367 0.0
H274 H 0.55569 0.19804 0.17952 0.0
H275 H 0.54793 0.34652 0.91696 0.0
H276 H 0.70784 0.19945 0.96518 0.0
H277 H 0.70459 0.40625 0.92863 0.0
H278 H 0.7305 0.39421 0.84518 0.0
H279 H 0.7337 0.18719 0.88048 0.0
Gd280 Gd 0.40617 0.23004 1.0256 0.0
Gd281 Gd 0.37238 0.23363 0.03879 0.0
C282 C 0.38957 0.22836 0.27957 0.0
C283 C 0.43508 0.2423 0.03951 0.0
C284 C 0.45179 0.24732 0.0437 0.0
C285 C 0.46206 0.20817 0.97074 0.0
C286 C 0.45767 0.29059 0.11994 0.0
C287 C 0.48381 0.25554 0.04941 0.0
C288 C 0.47355 0.29438 0.12332 0.0
C289 C 0.47786 0.21242 0.9732 0.0
C290 C 0.39628 0.11285 1.01135 0.0
C291 C 0.38901 0.23917 0.78504 0.0
C292 C 0.34384 0.21302 1.02445 0.0
C293 C 0.32951 0.21953 0.95441 0.0
C294 C 0.3216 0.28023 0.92395 0.0
C295 C 0.32264 0.16409 0.93014 0.0
C296 C 0.29974 0.22994 0.85376 0.0
C297 C 0.30795 0.16915 0.8801 0.0
C298 C 0.30688 0.28534 0.8741 0.0
C299 C 0.38199 0.35125 0.05505 0.0
O300 O 0.40144 0.2444 0.21983 0.0
O301 O 0.37761 0.21027 0.22542 0.0
O302 O 0.43001 0.19212 0.99335 0.0
O303 O 0.42433 0.2866 0.07964 0.0
O304 O 0.40702 0.13058 0.94648 0.0
O305 O 0.39134 0.15712 0.08172 0.0
O306 O 0.37716 0.22229 0.84403 0.0
O307 O 0.40099 0.25667 0.84006 0.0
O308 O 0.34813 0.26521 0.0694 0.0
O309 O 0.35546 0.1709 0.99099 0.0
O310 O 0.37089 0.33355 0.11648 0.0
O311 O 0.38716 0.30728 0.98452 0.0
H312 H 0.45789 0.17435 0.91097 0.0
H313 H 0.45001 0.32127 0.17726 0.0
H314 H 0.47777 0.32842 0.18236 0.0
H315 H 0.48547 0.18137 0.91607 0.0
H316 H 0.32656 0.32394 0.94175 0.0
H317 H 0.3284 0.11679 0.95413 0.0
H318 H 0.30278 0.12554 0.86678 0.0
H319 H 0.30098 0.33284 0.85315 0.0
C320 C 0.26373 0.19643 0.69079 0.0
C321 C 0.25248 0.24523 0.73401 0.0
H322 H 0.28745 0.15401 0.6926 0.0
C323 C 0.25695 0.28883 0.81672 0.0
H324 H 0.26078 0.16263 0.62569 0.0
C325 C 0.27225 0.28414 0.85444 0.0
C326 C 0.28352 0.23561 0.81083 0.0
H327 H 0.24857 0.32634 0.85352 0.0
H328 H 0.27519 0.31797 0.91955 0.0
C329 C 0.27905 0.19164 0.72881 0.0
C330 C 0.762 0.23921 0.87082 0.0
C331 C 0.75061 0.28295 0.81619 0.0
H332 H 0.78589 0.2004 0.88039 0.0
C333 C 0.75506 0.32138 0.72501 0.0
H334 H 0.75905 0.20976 0.94286 0.0
C335 C 0.7705 0.3161 0.68927 0.0
C336 C 0.78188 0.27231 0.74387 0.0
H337 H 0.74658 0.35506 0.68012 0.0
H338 H 0.77345 0.34556 0.61727 0.0
C339 C 0.77742 0.23398 0.8352 0.0
C340 C 0.27799 0.70254 0.33335 0.0
C341 C 0.28243 0.73995 0.24058 0.0
H342 H 0.25956 0.67809 0.44023 0.0
C343 C 0.27094 0.78145 0.18215 0.0
H344 H 0.28654 0.67061 0.38114 0.0
C345 C 0.25545 0.78551 0.21563 0.0
C346 C 0.25101 0.74821 0.30854 0.0
H347 H 0.27388 0.81001 0.10883 0.0
H348 H 0.24692 0.81736 0.16759 0.0
C349 C 0.2625 0.70665 0.36694 0.0
C350 C 0.7621 0.74543 0.1868 0.0
C351 C 0.75042 0.78624 0.2451 0.0
H352 H 0.78615 0.70939 0.17538 0.0
C353 C 0.75453 0.82248 0.34069 0.0
H354 H 0.75942 0.71782 0.11138 0.0
C355 C 0.7699 0.8177 0.37742 0.0
C356 C 0.78158 0.77664 0.31938 0.0
H357 H 0.74582 0.8539 0.38835 0.0
H358 H 0.77258 0.84525 0.4529 0.0
C359 C 0.77746 0.74073 0.22336 0.0
C360 C 0.12872 0.99132 0.48561 0.0
C361 C 0.1395 0.9369 0.51119 0.0
H362 H 0.1244 0.09445 0.47004 0.0
C363 C 0.15454 0.94658 0.5425 0.0
H364 H 0.11701 0.98566 0.46171 0.0
C365 C 0.15886 1.00889 0.54344 0.0
C366 C 0.14807 0.06324 0.51801 0.0
H367 H 0.16306 0.90593 0.56432 0.0
H368 H 0.17065 0.01465 0.56506 0.0
C369 C 0.1329 0.05379 0.49092 0.0
C370 C 0.87344 0.5098 0.55109 0.0
C371 C 0.8847 0.4557 0.53582 0.0
H372 H 0.86866 0.61298 0.56589 0.0
C373 C 0.90013 0.46562 0.52072 0.0
H374 H 0.86146 0.50358 0.56381 0.0
C375 C 0.90413 0.5284 0.51613 0.0
C376 C 0.89288 0.58264 0.53142 0.0
H377 H 0.90904 0.42492 0.50892 0.0
H378 H 0.91608 0.53445 0.50121 0.0
C379 C 0.87754 0.57248 0.55174 0.0
C380 C 0.87384 1.01006 0.51136 0.0
C381 C 0.88491 0.95597 0.53213 0.0
H382 H 0.86935 0.11303 0.4919 0.0
C383 C 0.90024 0.96566 0.55241 0.0
H384 H 0.86194 1.00395 0.49468 0.0
C385 C 0.90432 0.02832 0.55638 0.0
C386 C 0.89327 0.08256 0.53558 0.0
H387 H 0.90899 0.92493 0.56879 0.0
H388 H 0.91617 0.03427 0.57531 0.0
C389 C 0.87806 0.07254 0.51034 0.0
C390 C 0.13287 0.55293 0.46649 0.0
C391 C 0.1474 0.5637 0.50815 0.0
H392 H 0.11727 0.48378 0.43456 0.0
C393 C 0.15769 0.51037 0.54667 0.0
H394 H 0.12466 0.59297 0.43647 0.0
C395 C 0.15357 0.44783 0.54344 0.0
C396 C 0.13898 0.43703 0.50359 0.0
H397 H 0.16898 0.51693 0.57949 0.0
H398 H 0.16165 0.40824 0.5752 0.0
C399 C 0.12865 0.49039 0.4654 0.0
C400 C 0.64559 0.57744 0.11618 0.0
C401 C 0.64761 0.60937 1.01077 0.0
H402 H 0.64129 0.48908 0.19799 0.0
C403 C 0.6464 0.57647 0.90517 0.0
H404 H 0.64659 0.60179 0.1987 0.0
C405 C 0.64285 0.51317 0.9047 0.0
C406 C 0.64113 0.48074 1.00992 0.0
H407 H 0.64794 0.60016 0.82288 0.0
H408 H 0.64168 0.48916 0.82207 0.0
C409 C 0.64268 0.51307 0.11579 0.0
C410 C 0.38775 0.95018 0.12022 0.0
C411 C 0.38573 0.91796 1.01497 0.0
H412 H 0.39207 0.03875 0.20162 0.0
C413 C 0.38696 0.95055 0.90923 0.0
H414 H 0.38674 0.92608 0.20284 0.0
C415 C 0.39053 0.01383 0.90846 0.0
C416 C 0.39225 0.04655 1.01351 0.0
H417 H 0.38542 0.92664 0.82706 0.0
H418 H 0.39171 0.03759 0.82571 0.0
C419 C 0.39068 0.01453 0.11954 0.0
C420 C 0.38713 0.45064 0.15973 0.0
C421 C 0.38588 0.41781 0.05411 0.0
H422 H 0.39182 0.53797 0.24288 0.0
C423 C 0.38782 0.44989 0.9487 0.0
H424 H 0.38564 0.42686 0.24202 0.0
C425 C 0.39068 0.51433 0.94915 0.0
C426 C 0.39227 0.54661 0.05505 0.0
H427 H 0.38679 0.42561 0.86617 0.0
H428 H 0.39201 0.53843 0.86696 0.0
C429 C 0.39062 0.51403 0.16023 0.0
C430 C 0.64629 0.07681 0.15569 0.0
C431 C 0.64753 0.10945 0.05001 0.0
H432 H 0.6416 0.98965 0.23902 0.0
C433 C 0.64556 0.07722 0.94467 0.0
H434 H 0.6478 0.10072 0.23791 0.0
C435 C 0.64269 0.0128 0.94523 0.0
C436 C 0.64112 0.98072 0.0512 0.0
H437 H 0.64658 0.10136 0.8621 0.0
H438 H 0.64133 0.98857 0.8631 0.0
C439 C 0.64279 0.01346 0.15632 0.0
C440 C 0.13195 0.23379 0.09369 0.0
C441 C 0.14485 0.24828 0.15661 0.0
H442 H 0.12185 0.22206 0.92636 0.0
C443 C 0.15785 0.26186 0.09371 0.0
H444 H 0.12171 0.22313 0.1388 0.0
C445 C 0.15798 0.26078 0.97141 0.0
C446 C 0.14505 0.24662 0.90846 0.0
H447 H 0.16802 0.27305 0.13887 0.0
H448 H 0.16821 0.27154 0.9263 0.0
C449 C 0.13202 0.23325 0.97142 0.0
C450 C 0.87637 0.25287 0.10072 0.0
C451 C 0.88865 0.27309 0.16382 0.0
H452 H 0.86677 0.23703 0.93334 0.0
C453 C 0.90092 0.29393 0.10149 0.0
H454 H 0.86671 0.23656 0.14552 0.0
C455 C 0.90095 0.29417 0.97927 0.0
C456 C 0.8887 0.2737 0.91625 0.0
H457 H 0.91056 0.30987 0.14698 0.0
H458 H 0.91062 0.31028 0.9343 0.0
C459 C 0.8764 0.25319 0.97866 0.0
C460 C 0.15616 0.76705 0.06647 0.0
C461 C 0.14385 0.74693 0.12914 0.0
H462 H 0.16577 0.78355 0.89934 0.0
C463 C 0.13146 0.72728 0.06656 0.0
H464 H 0.16589 0.78258 0.11155 0.0
C465 C 0.13138 0.72786 0.94444 0.0
C466 C 0.14367 0.74819 0.88182 0.0
H467 H 0.12176 0.71152 0.11179 0.0
H468 H 0.12164 0.71247 0.89927 0.0
C469 C 0.15608 0.76766 0.94446 0.0
C470 C 0.90061 0.79404 0.9651 0.0
C471 C 0.88825 0.77384 0.90308 0.0
H472 H 0.91043 0.8097 0.13204 0.0
C473 C 0.87594 0.7541 0.96652 0.0
H474 H 0.91029 0.80957 0.91934 0.0
C475 C 0.876 0.75425 0.0886 0.0
C476 C 0.88839 0.7741 0.15071 0.0
H477 H 0.8662 0.73828 0.92198 0.0
H478 H 0.86633 0.7385 0.13417 0.0
C479 C 0.90069 0.79409 0.08733 0.0
C480 C 0.63184 0.77171 0.47211 0.0
C481 C 0.64438 0.78946 0.40852 0.0
H482 H 0.62174 0.76107 0.64007 0.0
C483 C 0.65664 0.81067 0.46984 0.0
H484 H 0.62217 0.75526 0.42783 0.0
C485 C 0.65635 0.81426 0.59165 0.0
C486 C 0.64379 0.79673 0.65526 0.0
H487 H 0.66646 0.82494 0.42385 0.0
H488 H 0.66602 0.83078 0.63583 0.0
C489 C 0.63155 0.77526 0.594 0.0
C490 C 0.40178 0.75222 0.59777 0.0
C491 C 0.38958 0.7305 0.65928 0.0
H492 H 0.41112 0.77252 0.43145 0.0
C493 C 0.37703 0.71287 0.59596 0.0
H494 H 0.41159 0.76652 0.64361 0.0
C495 C 0.37671 0.71658 0.47419 0.0
C496 C 0.38894 0.73802 0.41261 0.0
H497 H 0.36738 0.69616 0.64035 0.0
H498 H 0.3669 0.7022 0.42842 0.0
C499 C 0.40147 0.7559 0.47592 0.0
C500 C 0.63159 0.27552 0.46708 0.0
C501 C 0.64381 0.29711 0.4056 0.0
H502 H 0.62223 0.2553 0.63337 0.0
C503 C 0.65637 0.31463 0.46895 0.0
H504 H 0.62177 0.26132 0.42122 0.0
C505 C 0.65668 0.31091 0.59072 0.0
C506 C 0.64444 0.28957 0.65227 0.0
H507 H 0.66603 0.33124 0.42458 0.0
H508 H 0.6665 0.32518 0.63652 0.0
C509 C 0.63189 0.27184 0.58892 0.0
C510 C 0.37694 0.21372 0.47252 0.0
C511 C 0.38954 0.23086 0.40893 0.0
H512 H 0.36682 0.20319 0.64027 0.0
C513 C 0.40184 0.2518 0.47021 0.0
H514 H 0.36722 0.19759 0.42833 0.0
C515 C 0.40157 0.25523 0.5921 0.0
C516 C 0.38899 0.23784 0.65565 0.0
H517 H 0.41169 0.26568 0.42415 0.0
H518 H 0.41129 0.27127 0.63642 0.0
C519 C 0.37667 0.21715 0.59431 0.0
C520 C 0.02437 0.23566 0.57786 0.0
C521 C 0.03274 0.2476 0.47734 0.0
H522 H 1.0023 0.22885 0.65346 0.0
C523 C 0.02471 0.26015 0.37192 0.0
H524 H 0.03021 0.22488 0.6601 0.0
C525 C 1.00863 0.26205 0.36791 0.0
C526 C 1.00027 0.2506 0.46892 0.0
H527 H 0.03083 0.26963 0.293 0.0
H528 H 1.00275 0.27243 0.28576 0.0
C529 C 1.00837 0.23701 0.57367 0.0
C530 C 1.00857 0.75236 0.69957 0.0
C531 C 1.00015 0.75486 0.59492 0.0
H532 H 0.03085 0.74982 0.77955 0.0
C533 C 1.00811 0.75751 0.48889 0.0
H534 H 1.00276 0.75022 0.78262 0.0
C535 C 0.02405 0.75795 0.48723 0.0
C536 C 0.03252 0.75526 0.5915 0.0
H537 H 1.00195 0.76037 0.40681 0.0
H538 H 0.0298 0.75965 0.4038 0.0
C539 C 0.02463 0.75193 0.69781 0.0
C540 C 0.52459 0.76588 0.11997 0.0
C541 C 0.5327 0.76768 1.01442 0.0
H542 H 0.50285 0.76111 0.20321 0.0
C543 C 0.52457 0.76595 0.90904 0.0
H544 H 0.53052 0.76665 0.20261 0.0
C545 C 0.50866 0.76303 0.90939 0.0
C546 C 0.50058 0.76084 1.01511 0.0
H547 H 0.53048 0.76776 0.82632 0.0
H548 H 0.50271 0.76155 0.82692 0.0
C549 C 0.50875 0.76223 0.12031 0.0
C550 C 0.50877 0.26185 0.15561 0.0
C551 C 0.50065 0.26017 0.05018 0.0
H552 H 0.53063 0.26621 0.23789 0.0
C553 C 0.50878 0.26204 0.94469 0.0
H554 H 0.50286 0.25999 0.23829 0.0
C555 C 0.52462 0.26568 0.94447 0.0
C556 C 0.53278 0.267 0.04972 0.0
H557 H 0.50285 0.26132 0.862 0.0
H558 H 0.53053 0.26682 0.8616 0.0
C559 C 0.52469 0.26478 0.15538 0.0
loop_
_geom_bond_atom_site_label_1
_geom_bond_atom_site_label_2
_geom_bond_distance
_geom_bond_site_symmetry_2
_ccdc_geom_bond_type
Gd0 C3 2.818 . S
Gd0 O20 2.377 . S
Gd0 O22 2.448 . S
Gd0 O23 2.506 . S
Gd0 O24 2.435 . S
Gd0 O25 2.717 . S
Gd0 O27 2.395 . S
Gd0 O31 2.327 . S
Gd1 C12 2.818 . S
Gd1 O21 2.395 . S
Gd1 O25 2.327 . S
Gd1 O26 2.377 . S
Gd1 O28 2.448 . S
Gd1 O29 2.506 . S
Gd1 O30 2.435 . S
Gd1 O31 2.717 . S
C2 O20 1.240 . S
C2 O21 1.240 . S
C3 Gd0 2.818 . S
C3 C4 1.510 . S
C3 O22 1.249 . S
C3 O23 1.252 . S
C4 C3 1.510 . S
C4 C5 1.404 . S
C4 C6 1.352 . S
C5 C4 1.404 . S
C5 C9 1.389 . S
C5 H32 0.930 . S
C6 C4 1.352 . S
C6 C8 1.374 . S
C6 H33 0.931 . S
C7 C8 1.359 . S
C7 C9 1.364 . S
C8 C6 1.374 . S
C8 C7 1.359 . S
C8 H34 0.931 . S
C9 C5 1.389 . S
C9 C7 1.364 . S
C9 H35 0.931 . S
C10 O24 1.256 . S
C10 O25 1.257 . S
C11 O26 1.240 . S
C11 O27 1.240 . S
C12 Gd1 2.818 . S
C12 C13 1.510 . S
C12 O28 1.249 . S
C12 O29 1.252 . S
C13 C12 1.510 . S
C13 C14 1.404 . S
C13 C15 1.352 . S
C14 C13 1.404 . S
C14 C18 1.389 . S
C14 H36 0.930 . S
C15 C13 1.352 . S
C15 C17 1.374 . S
C15 H37 0.931 . S
C16 C17 1.359 . S
C16 C18 1.364 . S
C17 C15 1.374 . S
C17 C16 1.359 . S
C17 H38 0.931 . S
C18 C14 1.389 . S
C18 C16 1.364 . S
C18 H39 0.931 . S
C19 O30 1.256 . S
C19 O31 1.257 . S
O20 Gd0 2.377 . S
O20 C2 1.240 . S
O21 Gd1 2.395 . S
O21 C2 1.240 . S
O22 Gd0 2.448 . S
O22 C3 1.249 . S
O23 Gd0 2.506 . S
O23 C3 1.252 . S
O24 Gd0 2.435 . S
O24 C10 1.256 . S
O25 Gd0 2.717 . S
O25 Gd1 2.327 . S
O25 C10 1.257 . S
O26 Gd1 2.377 . S
O26 C11 1.240 . S
O27 Gd0 2.395 . S
O27 C11 1.240 . S
O28 Gd1 2.448 . S
O28 C12 1.249 . S
O29 Gd1 2.506 . S
O29 C12 1.252 . S
O30 Gd1 2.435 . S
O30 C19 1.256 . S
O31 Gd0 2.327 . S
O31 Gd1 2.717 . S
O31 C19 1.257 . S
H32 C5 0.930 . S
H33 C6 0.931 . S
H34 C8 0.931 . S
H35 C9 0.931 . S
H36 C14 0.930 . S
H37 C15 0.931 . S
H38 C17 0.931 . S
H39 C18 0.931 . S
Gd40 C43 2.818 . S
Gd40 O60 2.377 . S
Gd40 O62 2.448 . S
Gd40 O63 2.506 . S
Gd40 O64 2.435 . S
Gd40 O65 2.717 . S
Gd40 O67 2.395 . S
Gd40 O71 2.327 . S
Gd41 C52 2.818 . S
Gd41 O61 2.395 . S
Gd41 O65 2.327 . S
Gd41 O66 2.377 . S
Gd41 O68 2.448 . S
Gd41 O69 2.506 . S
Gd41 O70 2.435 . S
Gd41 O71 2.717 . S
C42 O60 1.240 . S
C42 O61 1.240 . S
C43 Gd40 2.818 . S
C43 C44 1.510 . S
C43 O62 1.249 . S
C43 O63 1.252 . S
C44 C43 1.510 . S
C44 C45 1.404 . S
C44 C46 1.352 . S
C45 C44 1.404 . S
C45 C49 1.389 . S
C45 H72 0.930 . S
C46 C44 1.352 . S
C46 C48 1.374 . S
C46 H73 0.931 . S
C47 C48 1.359 . S
C47 C49 1.364 . S
C48 C46 1.374 . S
C48 C47 1.359 . S
C48 H74 0.931 . S
C49 C45 1.389 . S
C49 C47 1.364 . S
C49 H75 0.931 . S
C50 O64 1.256 . S
C50 O65 1.257 . S
C51 O66 1.240 . S
C51 O67 1.240 . S
C52 Gd41 2.818 . S
C52 C53 1.510 . S
C52 O68 1.249 . S
C52 O69 1.252 . S
C53 C52 1.510 . S
C53 C54 1.404 . S
C53 C55 1.352 . S
C54 C53 1.404 . S
C54 C58 1.389 . S
C54 H76 0.930 . S
C55 C53 1.352 . S
C55 C57 1.374 . S
C55 H77 0.931 . S
C56 C57 1.359 . S
C56 C58 1.364 . S
C57 C55 1.374 . S
C57 C56 1.359 . S
C57 H78 0.931 . S
C58 C54 1.389 . S
C58 C56 1.364 . S
C58 H79 0.931 . S
C59 O70 1.256 . S
C59 O71 1.257 . S
O60 Gd40 2.377 . S
O60 C42 1.240 . S
O61 Gd41 2.395 . S
O61 C42 1.240 . S
O62 Gd40 2.448 . S
O62 C43 1.249 . S
O63 Gd40 2.506 . S
O63 C43 1.252 . S
O64 Gd40 2.435 . S
O64 C50 1.256 . S
O65 Gd40 2.717 . S
O65 Gd41 2.327 . S
O65 C50 1.257 . S
O66 Gd41 2.377 . S
O66 C51 1.240 . S
O67 Gd40 2.395 . S
O67 C51 1.240 . S
O68 Gd41 2.448 . S
O68 C52 1.249 . S
O69 Gd41 2.506 . S
O69 C52 1.252 . S
O70 Gd41 2.435 . S
O70 C59 1.256 . S
O71 Gd40 2.327 . S
O71 Gd41 2.717 . S
O71 C59 1.257 . S
H72 C45 0.930 . S
H73 C46 0.931 . S
H74 C48 0.931 . S
H75 C49 0.931 . S
H76 C54 0.930 . S
H77 C55 0.931 . S
H78 C57 0.931 . S
H79 C58 0.931 . S
Gd80 C83 2.818 . S
Gd80 O100 2.377 . S
Gd80 O102 2.448 . S
Gd80 O103 2.506 . S
Gd80 O104 2.435 . S
Gd80 O105 2.717 . S
Gd80 O107 2.395 . S
Gd80 O111 2.327 . S
Gd81 C92 2.818 . S
Gd81 O101 2.395 . S
Gd81 O105 2.327 . S
Gd81 O106 2.377 . S
Gd81 O108 2.448 . S
Gd81 O109 2.506 . S
Gd81 O110 2.435 . S
Gd81 O111 2.717 . S
C82 O100 1.240 . S
C82 O101 1.240 . S
C83 Gd80 2.818 . S
C83 C84 1.510 . S
C83 O102 1.249 . S
C83 O103 1.252 . S
C84 C83 1.510 . S
C84 C85 1.404 . S
C84 C86 1.352 . S
C85 C84 1.404 . S
C85 C89 1.389 . S
C85 H112 0.930 . S
C86 C84 1.352 . S
C86 C88 1.374 . S
C86 H113 0.931 . S
C87 C88 1.359 . S
C87 C89 1.364 . S
C88 C86 1.374 . S
C88 C87 1.359 . S
C88 H114 0.931 . S
C89 C85 1.389 . S
C89 C87 1.364 . S
C89 H115 0.931 . S
C90 O104 1.256 . S
C90 O105 1.257 . S
C91 O106 1.240 . S
C91 O107 1.240 . S
C92 Gd81 2.818 . S
C92 C93 1.510 . S
C92 O108 1.249 . S
C92 O109 1.252 . S
C93 C92 1.510 . S
C93 C94 1.404 . S
C93 C95 1.352 . S
C94 C93 1.404 . S
C94 C98 1.389 . S
C94 H116 0.930 . S
C95 C93 1.352 . S
C95 C97 1.374 . S
C95 H117 0.931 . S
C96 C97 1.359 . S
C96 C98 1.364 . S
C97 C95 1.374 . S
C97 C96 1.359 . S
C97 H118 0.931 . S
C98 C94 1.389 . S
C98 C96 1.364 . S
C98 H119 0.931 . S
C99 O110 1.256 . S
C99 O111 1.257 . S
O100 Gd80 2.377 . S
O100 C82 1.240 . S
O101 Gd81 2.395 . S
O101 C82 1.240 . S
O102 Gd80 2.448 . S
O102 C83 1.249 . S
O103 Gd80 2.506 . S
O103 C83 1.252 . S
O104 Gd80 2.435 . S
O104 C90 1.256 . S
O105 Gd80 2.717 . S
O105 Gd81 2.327 . S
O105 C90 1.257 . S
O106 Gd81 2.377 . S
O106 C91 1.240 . S
O107 Gd80 2.395 . S
O107 C91 1.240 . S
O108 Gd81 2.448 . S
O108 C92 1.249 . S
O109 Gd81 2.506 . S
O109 C92 1.252 . S
O110 Gd81 2.435 . S
O110 C99 1.256 . S
O111 Gd80 2.327 . S
O111 Gd81 2.717 . S
O111 C99 1.257 . S
H112 C85 0.930 . S
H113 C86 0.931 . S
H114 C88 0.931 . S
H115 C89 0.931 . S
H116 C94 0.930 . S
H117 C95 0.931 . S
H118 C97 0.931 . S
H119 C98 0.931 . S
Gd120 C123 2.818 . S
Gd120 O140 2.377 . S
Gd120 O142 2.448 . S
Gd120 O143 2.506 . S
Gd120 O144 2.435 . S
Gd120 O145 2.717 . S
Gd120 O147 2.395 . S
Gd120 O151 2.327 . S
Gd121 C132 2.818 . S
Gd121 O141 2.395 . S
Gd121 O145 2.327 . S
Gd121 O146 2.377 . S
Gd121 O148 2.448 . S
Gd121 O149 2.506 . S
Gd121 O150 2.435 . S
Gd121 O151 2.717 . S
C122 O140 1.240 . S
C122 O141 1.240 . S
C123 Gd120 2.818 . S
C123 C124 1.510 . S
C123 O142 1.249 . S
C123 O143 1.252 . S
C124 C123 1.510 . S
C124 C125 1.404 . S
C124 C126 1.352 . S
C125 C124 1.404 . S
C125 C129 1.389 . S
C125 H152 0.930 . S
C126 C124 1.352 . S
C126 C128 1.374 . S
C126 H153 0.931 . S
C127 C128 1.359 . S
C127 C129 1.364 . S
C128 C126 1.374 . S
C128 C127 1.359 . S
C128 H154 0.931 . S
C129 C125 1.389 . S
C129 C127 1.364 . S
C129 H155 0.931 . S
C130 O144 1.256 . S
C130 O145 1.257 . S
C131 O146 1.240 . S
C131 O147 1.240 . S
C132 Gd121 2.818 . S
C132 C133 1.510 . S
C132 O148 1.249 . S
C132 O149 1.252 . S
C133 C132 1.510 . S
C133 C134 1.404 . S
C133 C135 1.352 . S
C134 C133 1.404 . S
C134 C138 1.389 . S
C134 H156 0.930 . S
C135 C133 1.352 . S
C135 C137 1.374 . S
C135 H157 0.931 . S
C136 C137 1.359 . S
C136 C138 1.364 . S
C137 C135 1.374 . S
C137 C136 1.359 . S
C137 H158 0.931 . S
C138 C134 1.389 . S
C138 C136 1.364 . S
C138 H159 0.931 . S
C139 O150 1.256 . S
C139 O151 1.257 . S
O140 Gd120 2.377 . S
O140 C122 1.240 . S
O141 Gd121 2.395 . S
O141 C122 1.240 . S
O142 Gd120 2.448 . S
O142 C123 1.249 . S
O143 Gd120 2.506 . S
O143 C123 1.252 . S
O144 Gd120 2.435 . S
O144 C130 1.256 . S
O145 Gd120 2.717 . S
O145 Gd121 2.327 . S
O145 C130 1.257 . S
O146 Gd121 2.377 . S
O146 C131 1.240 . S
O147 Gd120 2.395 . S
O147 C131 1.240 . S
O148 Gd121 2.448 . S
O148 C132 1.249 . S
O149 Gd121 2.506 . S
O149 C132 1.252 . S
O150 Gd121 2.435 . S
O150 C139 1.256 . S
O151 Gd120 2.327 . S
O151 Gd121 2.717 . S
O151 C139 1.257 . S
H152 C125 0.930 . S
H153 C126 0.931 . S
H154 C128 0.931 . S
H155 C129 0.931 . S
H156 C134 0.930 . S
H157 C135 0.931 . S
H158 C137 0.931 . S
H159 C138 0.931 . S
Gd160 C163 2.818 1_556 S
Gd160 O180 2.377 1_556 S
Gd160 O182 2.448 1_556 S
Gd160 O183 2.506 1_556 S
Gd160 O184 2.435 . S
Gd160 O185 2.717 . S
Gd160 O187 2.395 . S
Gd160 O191 2.327 1_556 S
Gd161 C172 2.818 1_554 S
Gd161 O181 2.395 . S
Gd161 O185 2.327 1_554 S
Gd161 O186 2.377 1_554 S
Gd161 O188 2.448 1_554 S
Gd161 O189 2.506 1_554 S
Gd161 O190 2.435 . S
Gd161 O191 2.717 . S
C162 O180 1.240 . S
C162 O181 1.240 . S
C163 Gd160 2.818 1_554 S
C163 C164 1.510 . S
C163 O182 1.249 . S
C163 O183 1.252 . S
C164 C163 1.510 . S
C164 C165 1.404 . S
C164 C166 1.352 . S
C165 C164 1.404 . S
C165 C169 1.389 . S
C165 H192 0.930 . S
C166 C164 1.352 . S
C166 C168 1.374 . S
C166 H193 0.931 . S
C167 C168 1.359 . S
C167 C169 1.364 . S
C168 C166 1.374 . S
C168 C167 1.359 . S
C168 H194 0.931 . S
C169 C165 1.389 . S
C169 C167 1.364 . S
C169 H195 0.931 . S
C170 O184 1.256 . S
C170 O185 1.257 . S
C171 O186 1.240 . S
C171 O187 1.240 . S
C172 Gd161 2.818 1_556 S
C172 C173 1.510 . S
C172 O188 1.249 . S
C172 O189 1.252 . S
C173 C172 1.510 . S
C173 C174 1.404 . S
C173 C175 1.352 . S
C174 C173 1.404 . S
C174 C178 1.389 . S
C174 H196 0.930 . S
C175 C173 1.352 . S
C175 C177 1.374 . S
C175 H197 0.931 . S
C176 C177 1.359 . S
C176 C178 1.364 . S
C177 C175 1.374 . S
C177 C176 1.359 . S
C177 H198 0.931 . S
C178 C174 1.389 . S
C178 C176 1.364 . S
C178 H199 0.931 . S
C179 O190 1.256 . S
C179 O191 1.257 . S
O180 Gd160 2.377 1_554 S
O180 C162 1.240 . S
O181 Gd161 2.395 . S
O181 C162 1.240 . S
O182 Gd160 2.448 1_554 S
O182 C163 1.249 . S
O183 Gd160 2.506 1_554 S
O183 C163 1.252 . S
O184 Gd160 2.435 . S
O184 C170 1.256 . S
O185 Gd160 2.717 . S
O185 Gd161 2.327 1_556 S
O185 C170 1.257 . S
O186 Gd161 2.377 1_556 S
O186 C171 1.240 . S
O187 Gd160 2.395 . S
O187 C171 1.240 . S
O188 Gd161 2.448 1_556 S
O188 C172 1.249 . S
O189 Gd161 2.506 1_556 S
O189 C172 1.252 . S
O190 Gd161 2.435 . S
O190 C179 1.256 . S
O191 Gd160 2.327 1_554 S
O191 Gd161 2.717 . S
O191 C179 1.257 . S
H192 C165 0.930 . S
H193 C166 0.931 . S
H194 C168 0.931 . S
H195 C169 0.931 . S
H196 C174 0.930 . S
H197 C175 0.931 . S
H198 C177 0.931 . S
H199 C178 0.931 . S
Gd200 C203 2.818 1_556 S
Gd200 O220 2.377 1_556 S
Gd200 O222 2.448 1_556 S
Gd200 O223 2.506 1_556 S
Gd200 O224 2.435 . S
Gd200 O225 2.717 . S
Gd200 O227 2.395 . S
Gd200 O231 2.327 1_556 S
Gd201 C212 2.818 1_554 S
Gd201 O221 2.395 . S
Gd201 O225 2.327 1_554 S
Gd201 O226 2.377 1_554 S
Gd201 O228 2.448 1_554 S
Gd201 O229 2.506 1_554 S
Gd201 O230 2.435 . S
Gd201 O231 2.717 . S
C202 O220 1.240 . S
C202 O221 1.240 . S
C203 Gd200 2.818 1_554 S
C203 C204 1.510 . S
C203 O222 1.249 . S
C203 O223 1.252 . S
C204 C203 1.510 . S
C204 C205 1.404 . S
C204 C206 1.352 . S
C205 C204 1.404 . S
C205 C209 1.389 . S
C205 H232 0.930 . S
C206 C204 1.352 . S
C206 C208 1.374 . S
C206 H233 0.931 . S
C207 C208 1.359 . S
C207 C209 1.364 . S
C208 C206 1.374 . S
C208 C207 1.359 . S
C208 H234 0.931 . S
C209 C205 1.389 . S
C209 C207 1.364 . S
C209 H235 0.931 . S
C210 O224 1.256 . S
C210 O225 1.257 . S
C211 O226 1.240 . S
C211 O227 1.240 . S
C212 Gd201 2.818 1_556 S
C212 C213 1.510 . S
C212 O228 1.249 . S
C212 O229 1.252 . S
C213 C212 1.510 . S
C213 C214 1.404 . S
C213 C215 1.352 . S
C214 C213 1.404 . S
C214 C218 1.389 . S
C214 H236 0.930 . S
C215 C213 1.352 . S
C215 C217 1.374 . S
C215 H237 0.931 . S
C216 C217 1.359 . S
C216 C218 1.364 . S
C217 C215 1.374 . S
C217 C216 1.359 . S
C217 H238 0.931 . S
C218 C214 1.389 . S
C218 C216 1.364 . S
C218 H239 0.931 . S
C219 O230 1.256 . S
C219 O231 1.257 . S
O220 Gd200 2.377 1_554 S
O220 C202 1.240 . S
O221 Gd201 2.395 . S
O221 C202 1.240 . S
O222 Gd200 2.448 1_554 S
O222 C203 1.249 . S
O223 Gd200 2.506 1_554 S
O223 C203 1.252 . S
O224 Gd200 2.435 . S
O224 C210 1.256 . S
O225 Gd200 2.717 . S
O225 Gd201 2.327 1_556 S
O225 C210 1.257 . S
O226 Gd201 2.377 1_556 S
O226 C211 1.240 . S
O227 Gd200 2.395 . S
O227 C211 1.240 . S
O228 Gd201 2.448 1_556 S
O228 C212 1.249 . S
O229 Gd201 2.506 1_556 S
O229 C212 1.252 . S
O230 Gd201 2.435 . S
O230 C219 1.256 . S
O231 Gd200 2.327 1_554 S
O231 Gd201 2.717 . S
O231 C219 1.257 . S
H232 C205 0.930 . S
H233 C206 0.931 . S
H234 C208 0.931 . S
H235 C209 0.931 . S
H236 C214 0.930 . S
H237 C215 0.931 . S
H238 C217 0.931 . S
H239 C218 0.931 . S
Gd240 C243 2.818 1_556 S
Gd240 O260 2.377 1_556 S
Gd240 O262 2.448 1_556 S
Gd240 O263 2.506 1_556 S
Gd240 O264 2.435 . S
Gd240 O265 2.717 . S
Gd240 O267 2.395 . S
Gd240 O271 2.327 1_556 S
Gd241 C252 2.818 1_554 S
Gd241 O261 2.395 . S
Gd241 O265 2.327 1_554 S
Gd241 O266 2.377 1_554 S
Gd241 O268 2.448 1_554 S
Gd241 O269 2.506 1_554 S
Gd241 O270 2.435 . S
Gd241 O271 2.717 . S
C242 O260 1.240 . S
C242 O261 1.240 . S
C243 Gd240 2.818 1_554 S
C243 C244 1.510 . S
C243 O262 1.249 . S
C243 O263 1.252 . S
C244 C243 1.510 . S
C244 C245 1.404 . S
C244 C246 1.352 . S
C245 C244 1.404 . S
C245 C249 1.389 . S
C245 H272 0.930 . S
C246 C244 1.352 . S
C246 C248 1.374 . S
C246 H273 0.931 . S
C247 C248 1.359 . S
C247 C249 1.364 . S
C248 C246 1.374 . S
C248 C247 1.359 . S
C248 H274 0.931 . S
C249 C245 1.389 . S
C249 C247 1.364 . S
C249 H275 0.931 . S
C250 O264 1.256 . S
C250 O265 1.257 . S
C251 O266 1.240 . S
C251 O267 1.240 . S
C252 Gd241 2.818 1_556 S
C252 C253 1.510 . S
C252 O268 1.249 . S
C252 O269 1.252 . S
C253 C252 1.510 . S
C253 C254 1.404 . S
C253 C255 1.352 . S
C254 C253 1.404 . S
C254 C258 1.389 . S
C254 H276 0.930 . S
C255 C253 1.352 . S
C255 C257 1.374 . S
C255 H277 0.931 . S
C256 C257 1.359 . S
C256 C258 1.364 . S
C257 C255 1.374 . S
C257 C256 1.359 . S
C257 H278 0.931 . S
C258 C254 1.389 . S
C258 C256 1.364 . S
C258 H279 0.931 . S
C259 O270 1.256 . S
C259 O271 1.257 . S
O260 Gd240 2.377 1_554 S
O260 C242 1.240 . S
O261 Gd241 2.395 . S
O261 C242 1.240 . S
O262 Gd240 2.448 1_554 S
O262 C243 1.249 . S
O263 Gd240 2.506 1_554 S
O263 C243 1.252 . S
O264 Gd240 2.435 . S
O264 C250 1.256 . S
O265 Gd240 2.717 . S
O265 Gd241 2.327 1_556 S
O265 C250 1.257 . S
O266 Gd241 2.377 1_556 S
O266 C251 1.240 . S
O267 Gd240 2.395 . S
O267 C251 1.240 . S
O268 Gd241 2.448 1_556 S
O268 C252 1.249 . S
O269 Gd241 2.506 1_556 S
O269 C252 1.252 . S
O270 Gd241 2.435 . S
O270 C259 1.256 . S
O271 Gd240 2.327 1_554 S
O271 Gd241 2.717 . S
O271 C259 1.257 . S
H272 C245 0.930 . S
H273 C246 0.931 . S
H274 C248 0.931 . S
H275 C249 0.931 . S
H276 C254 0.930 . S
H277 C255 0.931 . S
H278 C257 0.931 . S
H279 C258 0.931 . S
Gd280 C283 2.818 1_556 S
Gd280 O300 2.377 1_556 S
Gd280 O302 2.448 1_556 S
Gd280 O303 2.506 1_556 S
Gd280 O304 2.435 . S
Gd280 O305 2.717 . S
Gd280 O307 2.395 . S
Gd280 O311 2.327 1_556 S
Gd281 C292 2.818 1_554 S
Gd281 O301 2.395 . S
Gd281 O305 2.327 1_554 S
Gd281 O306 2.377 1_554 S
Gd281 O308 2.448 1_554 S
Gd281 O309 2.506 1_554 S
Gd281 O310 2.435 . S
Gd281 O311 2.717 . S
C282 O300 1.240 . S
C282 O301 1.240 . S
C283 Gd280 2.818 1_554 S
C283 C284 1.510 . S
C283 O302 1.249 . S
C283 O303 1.252 . S
C284 C283 1.510 . S
C284 C285 1.404 . S
C284 C286 1.352 . S
C285 C284 1.404 . S
C285 C289 1.389 . S
C285 H312 0.930 . S
C286 C284 1.352 . S
C286 C288 1.374 . S
C286 H313 0.931 . S
C287 C288 1.359 . S
C287 C289 1.364 . S
C288 C286 1.374 . S
C288 C287 1.359 . S
C288 H314 0.931 . S
C289 C285 1.389 . S
C289 C287 1.364 . S
C289 H315 0.931 . S
C290 O304 1.256 . S
C290 O305 1.257 . S
C291 O306 1.240 . S
C291 O307 1.240 . S
C292 Gd281 2.818 1_556 S
C292 C293 1.510 . S
C292 O308 1.249 . S
C292 O309 1.252 . S
C293 C292 1.510 . S
C293 C294 1.404 . S
C293 C295 1.352 . S
C294 C293 1.404 . S
C294 C298 1.389 . S
C294 H316 0.930 . S
C295 C293 1.352 . S
C295 C297 1.374 . S
C295 H317 0.931 . S
C296 C297 1.359 . S
C296 C298 1.364 . S
C297 C295 1.374 . S
C297 C296 1.359 . S
C297 H318 0.931 . S
C298 C294 1.389 . S
C298 C296 1.364 . S
C298 H319 0.931 . S
C299 O310 1.256 . S
C299 O311 1.257 . S
O300 Gd280 2.377 1_554 S
O300 C282 1.240 . S
O301 Gd281 2.395 . S
O301 C282 1.240 . S
O302 Gd280 2.448 1_554 S
O302 C283 1.249 . S
O303 Gd280 2.506 1_554 S
O303 C283 1.252 . S
O304 Gd280 2.435 . S
O304 C290 1.256 . S
O305 Gd280 2.717 . S
O305 Gd281 2.327 1_556 S
O305 C290 1.257 . S
O306 Gd281 2.377 1_556 S
O306 C291 1.240 . S
O307 Gd280 2.395 . S
O307 C291 1.240 . S
O308 Gd281 2.448 1_556 S
O308 C292 1.249 . S
O309 Gd281 2.506 1_556 S
O309 C292 1.252 . S
O310 Gd281 2.435 . S
O310 C299 1.256 . S
O311 Gd280 2.327 1_554 S
O311 Gd281 2.717 . S
O311 C299 1.257 . S
H312 C285 0.930 . S
H313 C286 0.931 . S
H314 C288 0.931 . S
H315 C289 0.931 . S
H316 C294 0.930 . S
H317 C295 0.931 . S
H318 C297 0.931 . S
H319 C298 0.931 . S
C320 C321 1.387 . S
C320 H324 0.950 . S
C320 C329 1.390 . S
C321 C320 1.387 . S
C321 C323 1.387 . S
H322 C329 0.950 . S
C323 C321 1.387 . S
C323 C325 1.390 . S
C323 H327 0.950 . S
H324 C320 0.950 . S
C325 C323 1.390 . S
C325 C326 1.387 . S
C325 H328 0.950 . S
C326 C325 1.387 . S
C326 C329 1.387 . S
H327 C323 0.950 . S
H328 C325 0.950 . S
C329 C320 1.390 . S
C329 H322 0.950 . S
C329 C326 1.387 . S
C330 C331 1.387 . S
C330 H334 0.950 . S
C330 C339 1.390 . S
C331 C330 1.387 . S
C331 C333 1.387 . S
H332 C339 0.950 . S
C333 C331 1.387 . S
C333 C335 1.390 . S
C333 H337 0.950 . S
H334 C330 0.950 . S
C335 C333 1.390 . S
C335 C336 1.387 . S
C335 H338 0.950 . S
C336 C335 1.387 . S
C336 C339 1.387 . S
H337 C333 0.950 . S
H338 C335 0.950 . S
C339 C330 1.390 . S
C339 H332 0.950 . S
C339 C336 1.387 . S
C340 C341 1.387 . S
C340 H344 0.950 . S
C340 C349 1.390 . S
C341 C340 1.387 . S
C341 C343 1.387 . S
H342 C349 0.950 . S
C343 C341 1.387 . S
C343 C345 1.390 . S
C343 H347 0.950 . S
H344 C340 0.950 . S
C345 C343 1.390 . S
C345 C346 1.387 . S
C345 H348 0.950 . S
C346 C345 1.387 . S
C346 C349 1.387 . S
H347 C343 0.950 . S
H348 C345 0.950 . S
C349 C340 1.390 . S
C349 H342 0.950 . S
C349 C346 1.387 . S
C350 C351 1.387 . S
C350 H354 0.950 . S
C350 C359 1.390 . S
C351 C350 1.387 . S
C351 C353 1.387 . S
H352 C359 0.950 . S
C353 C351 1.387 . S
C353 C355 1.390 . S
C353 H357 0.950 . S
H354 C350 0.950 . S
C355 C353 1.390 . S
C355 C356 1.387 . S
C355 H358 0.950 . S
C356 C355 1.387 . S
C356 C359 1.387 . S
H357 C353 0.950 . S
H358 C355 0.950 . S
C359 C350 1.390 . S
C359 H352 0.950 . S
C359 C356 1.387 . S
C360 C361 1.387 . S
C360 H364 0.950 . S
C360 C369 1.390 1_565 S
C361 C360 1.387 . S
C361 C363 1.387 . S
H362 C369 0.950 . S
C363 C361 1.387 . S
C363 C365 1.390 1_565 S
C363 H367 0.950 . S
H364 C360 0.950 . S
C365 C363 1.390 1_545 S
C365 C366 1.387 . S
C365 H368 0.950 . S
C366 C365 1.387 . S
C366 C369 1.387 . S
H367 C363 0.950 . S
H368 C365 0.950 . S
C369 C360 1.390 1_545 S
C369 H362 0.950 . S
C369 C366 1.387 . S
C370 C371 1.387 . S
C370 H374 0.950 . S
C370 C379 1.390 . S
C371 C370 1.387 . S
C371 C373 1.387 . S
H372 C379 0.950 . S
C373 C371 1.387 . S
C373 C375 1.390 . S
C373 H377 0.950 . S
H374 C370 0.950 . S
C375 C373 1.390 . S
C375 C376 1.387 . S
C375 H378 0.950 . S
C376 C375 1.387 . S
C376 C379 1.387 . S
H377 C373 0.950 . S
H378 C375 0.950 . S
C379 C370 1.390 . S
C379 H372 0.950 . S
C379 C376 1.387 . S
C380 C381 1.387 . S
C380 H384 0.950 . S
C380 C389 1.390 1_565 S
C381 C380 1.387 . S
C381 C383 1.387 . S
H382 C389 0.950 . S
C383 C381 1.387 . S
C383 C385 1.390 1_565 S
C383 H387 0.950 . S
H384 C380 0.950 . S
C385 C383 1.390 1_545 S
C385 C386 1.387 . S
C385 H388 0.950 . S
C386 C385 1.387 . S
C386 C389 1.387 . S
H387 C383 0.950 . S
H388 C385 0.950 . S
C389 C380 1.390 1_545 S
C389 H382 0.950 . S
C389 C386 1.387 . S
C390 C391 1.387 . S
C390 H394 0.950 . S
C390 C399 1.390 . S
C391 C390 1.387 . S
C391 C393 1.387 . S
H392 C399 0.950 . S
C393 C391 1.387 . S
C393 C395 1.390 . S
C393 H397 0.950 . S
H394 C390 0.950 . S
C395 C393 1.390 . S
C395 C396 1.387 . S
C395 H398 0.950 . S
C396 C395 1.387 . S
C396 C399 1.387 . S
H397 C393 0.950 . S
H398 C395 0.950 . S
C399 C390 1.390 . S
C399 H392 0.950 . S
C399 C396 1.387 . S
C400 C401 1.387 1_554 S
C400 H404 0.950 . S
C400 C409 1.390 . S
C401 C400 1.387 1_556 S
C401 C403 1.387 . S
H402 C409 0.950 . S
C403 C401 1.387 . S
C403 C405 1.390 . S
C403 H407 0.950 . S
H404 C400 0.950 . S
C405 C403 1.390 . S
C405 C406 1.387 . S
C405 H408 0.950 . S
C406 C405 1.387 . S
C406 C409 1.387 1_556 S
H407 C403 0.950 . S
H408 C405 0.950 . S
C409 C400 1.390 . S
C409 H402 0.950 . S
C409 C406 1.387 1_554 S
C410 C411 1.387 1_554 S
C410 H414 0.950 . S
C410 C419 1.390 1_565 S
C411 C410 1.387 1_556 S
C411 C413 1.387 . S
H412 C419 0.950 . S
C413 C411 1.387 . S
C413 C415 1.390 1_565 S
C413 H417 0.950 . S
H414 C410 0.950 . S
C415 C413 1.390 1_545 S
C415 C416 1.387 . S
C415 H418 0.950 . S
C416 C415 1.387 . S
C416 C419 1.387 1_556 S
H417 C413 0.950 . S
H418 C415 0.950 . S
C419 C410 1.390 1_545 S
C419 H412 0.950 . S
C419 C416 1.387 1_554 S
C420 C421 1.387 . S
C420 H424 0.950 . S
C420 C429 1.390 . S
C421 C420 1.387 . S
C421 C423 1.387 1_554 S
H422 C429 0.950 . S
C423 C421 1.387 1_556 S
C423 C425 1.390 . S
C423 H427 0.950 . S
H424 C420 0.950 . S
C425 C423 1.390 . S
C425 C426 1.387 1_556 S
C425 H428 0.950 . S
C426 C425 1.387 1_554 S
C426 C429 1.387 . S
H427 C423 0.950 . S
H428 C425 0.950 . S
C429 C420 1.390 . S
C429 H422 0.950 . S
C429 C426 1.387 . S
C430 C431 1.387 . S
C430 H434 0.950 . S
C430 C439 1.390 1_545 S
C431 C430 1.387 . S
C431 C433 1.387 1_554 S
H432 C439 0.950 . S
C433 C431 1.387 1_556 S
C433 C435 1.390 1_545 S
C433 H437 0.950 . S
H434 C430 0.950 . S
C435 C433 1.390 1_565 S
C435 C436 1.387 1_556 S
C435 H438 0.950 . S
C436 C435 1.387 1_554 S
C436 C439 1.387 . S
H437 C433 0.950 . S
H438 C435 0.950 . S
C439 C430 1.390 1_565 S
C439 H432 0.950 . S
C439 C436 1.387 . S
C440 C441 1.387 1_556 S
C440 H444 0.950 . S
C440 C449 1.390 . S
C441 C440 1.387 1_554 S
C441 C443 1.387 1_554 S
H442 C449 0.950 . S
C443 C441 1.387 1_556 S
C443 C445 1.390 . S
C443 H447 0.950 1_556 S
H444 C440 0.950 . S
C445 C443 1.390 . S
C445 C446 1.387 . S
C445 H448 0.950 . S
C446 C445 1.387 . S
C446 C449 1.387 . S
H447 C443 0.950 1_554 S
H448 C445 0.950 . S
C449 C440 1.390 . S
C449 H442 0.950 . S
C449 C446 1.387 . S
C450 C451 1.387 1_556 S
C450 H454 0.950 1_556 S
C450 C459 1.390 . S
C451 C450 1.387 1_554 S
C451 C453 1.387 1_554 S
H452 C459 0.950 . S
C453 C451 1.387 1_556 S
C453 C455 1.390 . S
C453 H457 0.950 . S
H454 C450 0.950 1_554 S
C455 C453 1.390 . S
C455 C456 1.387 . S
C455 H458 0.950 . S
C456 C455 1.387 . S
C456 C459 1.387 . S
H457 C453 0.950 . S
H458 C455 0.950 . S
C459 C450 1.390 . S
C459 H452 0.950 . S
C459 C456 1.387 . S
C460 C461 1.387 . S
C460 H464 0.950 . S
C460 C469 1.390 . S
C461 C460 1.387 . S
C461 C463 1.387 . S
H462 C469 0.950 1_556 S
C463 C461 1.387 . S
C463 C465 1.390 . S
C463 H467 0.950 . S
H464 C460 0.950 . S
C465 C463 1.390 . S
C465 C466 1.387 1_554 S
C465 H468 0.950 . S
C466 C465 1.387 1_556 S
C466 C469 1.387 1_556 S
H467 C463 0.950 . S
H468 C465 0.950 . S
C469 C460 1.390 . S
C469 H462 0.950 1_554 S
C469 C466 1.387 1_554 S
C470 C471 1.387 1_554 S
C470 H474 0.950 1_554 S
C470 C479 1.390 . S
C471 C470 1.387 1_556 S
C471 C473 1.387 1_556 S
H472 C479 0.950 . S
C473 C471 1.387 1_554 S
C473 C475 1.390 . S
C473 H477 0.950 1_554 S
H474 C470 0.950 1_556 S
C475 C473 1.390 . S
C475 C476 1.387 . S
C475 H478 0.950 . S
C476 C475 1.387 . S
C476 C479 1.387 . S
H477 C473 0.950 1_556 S
H478 C475 0.950 . S
C479 C470 1.390 . S
C479 H472 0.950 . S
C479 C476 1.387 . S
C480 C481 1.387 . S
C480 H484 0.950 . S
C480 C489 1.390 . S
C481 C480 1.387 . S
C481 C483 1.387 . S
H482 C489 0.950 . S
C483 C481 1.387 . S
C483 C485 1.390 . S
C483 H487 0.950 . S
H484 C480 0.950 . S
C485 C483 1.390 . S
C485 C486 1.387 . S
C485 H488 0.950 . S
C486 C485 1.387 . S
C486 C489 1.387 . S
H487 C483 0.950 . S
H488 C485 0.950 . S
C489 C480 1.390 . S
C489 H482 0.950 . S
C489 C486 1.387 . S
C490 C491 1.387 . S
C490 H494 0.950 . S
C490 C499 1.390 . S
C491 C490 1.387 . S
C491 C493 1.387 . S
H492 C499 0.950 . S
C493 C491 1.387 . S
C493 C495 1.390 . S
C493 H497 0.950 . S
H494 C490 0.950 . S
C495 C493 1.390 . S
C495 C496 1.387 . S
C495 H498 0.950 . S
C496 C495 1.387 . S
C496 C499 1.387 . S
H497 C493 0.950 . S
H498 C495 0.950 . S
C499 C490 1.390 . S
C499 H492 0.950 . S
C499 C496 1.387 . S
C500 C501 1.387 . S
C500 H504 0.950 . S
C500 C509 1.390 . S
C501 C500 1.387 . S
C501 C503 1.387 . S
H502 C509 0.950 . S
C503 C501 1.387 . S
C503 C505 1.390 . S
C503 H507 0.950 . S
H504 C500 0.950 . S
C505 C503 1.390 . S
C505 C506 1.387 . S
C505 H508 0.950 . S
C506 C505 1.387 . S
C506 C509 1.387 . S
H507 C503 0.950 . S
H508 C505 0.950 . S
C509 C500 1.390 . S
C509 H502 0.950 . S
C509 C506 1.387 . S
C510 C511 1.387 . S
C510 H514 0.950 . S
C510 C519 1.390 . S
C511 C510 1.387 . S
C511 C513 1.387 . S
H512 C519 0.950 . S
C513 C511 1.387 . S
C513 C515 1.390 . S
C513 H517 0.950 . S
H514 C510 0.950 . S
C515 C513 1.390 . S
C515 C516 1.387 . S
C515 H518 0.950 . S
C516 C515 1.387 . S
C516 C519 1.387 . S
H517 C513 0.950 . S
H518 C515 0.950 . S
C519 C510 1.390 . S
C519 H512 0.950 . S
C519 C516 1.387 . S
C520 C521 1.387 . S
C520 H524 0.950 . S
C520 C529 1.390 1_455 S
C521 C520 1.387 . S
C521 C523 1.387 . S
H522 C529 0.950 . S
C523 C521 1.387 . S
C523 C525 1.390 1_455 S
C523 H527 0.950 1_554 S
H524 C520 0.950 . S
C525 C523 1.390 1_655 S
C525 C526 1.387 . S
C525 H528 0.950 1_554 S
C526 C525 1.387 . S
C526 C529 1.387 . S
H527 C523 0.950 1_556 S
H528 C525 0.950 1_556 S
C529 C520 1.390 1_655 S
C529 H522 0.950 . S
C529 C526 1.387 . S
C530 C531 1.387 . S
C530 H534 0.950 1_556 S
C530 C539 1.390 1_655 S
C531 C530 1.387 . S
C531 C533 1.387 . S
H532 C539 0.950 1_554 S
C533 C531 1.387 . S
C533 C535 1.390 1_655 S
C533 H537 0.950 . S
H534 C530 0.950 1_554 S
C535 C533 1.390 1_455 S
C535 C536 1.387 . S
C535 H538 0.950 . S
C536 C535 1.387 . S
C536 C539 1.387 . S
H537 C533 0.950 . S
H538 C535 0.950 . S
C539 C530 1.390 1_455 S
C539 H532 0.950 1_556 S
C539 C536 1.387 . S
C540 C541 1.387 . S
C540 H544 0.950 . S
C540 C549 1.390 . S
C541 C540 1.387 . S
C541 C543 1.387 . S
H542 C549 0.950 . S
C543 C541 1.387 . S
C543 C545 1.390 . S
C543 H547 0.950 . S
H544 C540 0.950 . S
C545 C543 1.390 . S
C545 C546 1.387 . S
C545 H548 0.950 . S
C546 C545 1.387 . S
C546 C549 1.387 . S
H547 C543 0.950 . S
H548 C545 0.950 . S
C549 C540 1.390 . S
C549 H542 0.950 . S
C549 C546 1.387 . S
C550 C551 1.387 . S
C550 H554 0.950 . S
C550 C559 1.390 . S
C551 C550 1.387 . S
C551 C553 1.387 . S
H552 C559 0.950 . S
C553 C551 1.387 . S
C553 C555 1.390 . S
C553 H557 0.950 . S
H554 C550 0.950 . S
C555 C553 1.390 . S
C555 C556 1.387 . S
C555 H558 0.950 . S
C556 C555 1.387 . S
C556 C559 1.387 . S
H557 C553 0.950 . S
H558 C555 0.950 . S
C559 C550 1.390 . S
C559 H552 0.950 . S
C559 C556 1.387 . S
C321 C7 1.705 . S
C326 C296 1.704 . S
C331 C256 1.704 . S
C336 C47 1.704 . S
C341 C207 1.704 . S
C346 C96 1.704 . S
C351 C167 1.704 . S
C356 C136 1.704 . S
C361 C90 1.630 . S
C366 C10 1.640 . S
C371 C50 1.640 . S
C376 C130 1.629 . S
C381 C139 1.640 . S
C386 C59 1.629 . S
C391 C99 1.640 . S
C396 C19 1.630 . S
C401 C170 1.445 . S
C406 C250 1.445 . S
C411 C210 1.445 . S
C416 C290 1.445 . S
C421 C299 1.444 . S
C426 C219 1.444 . S
C431 C259 1.444 . S
C436 C179 1.444 . S
C441 C11 2.085 . S
C446 C2 2.085 . S
C451 C51 2.086 . S
C456 C42 2.086 . S
C461 C91 2.085 . S
C466 C82 2.085 . S
C471 C122 2.087 . S
C476 C131 2.087 . S
C481 C162 2.084 . S
C486 C171 2.084 . S
C491 C211 2.084 . S
C496 C202 2.084 . S
C501 C242 2.086 . S
C506 C251 2.086 . S
C511 C282 2.084 . S
C516 C291 2.084 . S
C521 C16 2.244 . S
C526 C56 2.244 . S
C531 C127 2.244 . S
C536 C87 2.244 . S
C541 C176 2.246 . S
C546 C216 2.246 . S
C551 C287 2.246 . S
C556 C247 2.246 . S
