# Generated by pormake.
# Topology unv, (4)-cn, num edge types: 1
# Building blocks:
#     Node 0, Type 0, BuildingBlock: CEKHIL_clean_sbu_0, # of connection points: 4
#     Node 1, Type 0, BuildingBlock: CEKHIL_clean_sbu_0, # of connection points: 4
#     Node 2, Type 0, BuildingBlock: CEKHIL_clean_sbu_0, # of connection points: 4
#     Node 3, Type 0, BuildingBlock: CEKHIL_clean_sbu_0, # of connection points: 4
#     Node 4, Type 0, BuildingBlock: CEKHIL_clean_sbu_0, # of connection points: 4
#     Node 5, Type 0, BuildingBlock: CEKHIL_clean_sbu_0, # of connection points: 4
#     Node 6, Type 0, BuildingBlock: CEKHIL_clean_sbu_0, # of connection points: 4
#     Node 7, Type 0, BuildingBlock: CEKHIL_clean_sbu_0, # of connection points: 4
#     Node 8, Type 0, BuildingBlock: CEKHIL_clean_sbu_0, # of connection points: 4
#     Node 9, Type 0, BuildingBlock: CEKHIL_clean_sbu_0, # of connection points: 4
#     Node 10, Type 0, BuildingBlock: CEKHIL_clean_sbu_0, # of connection points: 4
#     Node 11, Type 0, BuildingBlock: CEKHIL_clean_sbu_0, # of connection points: 4
#     Node 12, Type 0, BuildingBlock: CEKHIL_clean_sbu_0, # of connection points: 4
#     Node 13, Type 0, BuildingBlock: CEKHIL_clean_sbu_0, # of connection points: 4
#     Node 14, Type 0, BuildingBlock: CEKHIL_clean_sbu_0, # of connection points: 4
#     Node 15, Type 0, BuildingBlock: CEKHIL_clean_sbu_0, # of connection points: 4
#     Node 16, Type 0, BuildingBlock: CEKHIL_clean_sbu_0, # of connection points: 4
#     Node 17, Type 0, BuildingBlock: CEKHIL_clean_sbu_0, # of connection points: 4
#     Node 18, Type 0, BuildingBlock: CEKHIL_clean_sbu_0, # of connection points: 4
#     Node 19, Type 0, BuildingBlock: CEKHIL_clean_sbu_0, # of connection points: 4
#     Node 20, Type 0, BuildingBlock: CEKHIL_clean_sbu_0, # of connection points: 4
#     Node 21, Type 0, BuildingBlock: CEKHIL_clean_sbu_0, # of connection points: 4
#     Node 22, Type 0, BuildingBlock: CEKHIL_clean_sbu_0, # of connection points: 4
#     Node 23, Type 0, BuildingBlock: CEKHIL_clean_sbu_0, # of connection points: 4
#     Edge 24, Type (0, 0), BuildingBlock: MIFKUJ_clean_linker_0, # of connection points: 2
#     Edge 25, Type (0, 0), BuildingBlock: MIFKUJ_clean_linker_0, # of connection points: 2
#     Edge 26, Type (0, 0), BuildingBlock: MIFKUJ_clean_linker_0, # of connection points: 2
#     Edge 27, Type (0, 0), BuildingBlock: MIFKUJ_clean_linker_0, # of connection points: 2
#     Edge 28, Type (0, 0), BuildingBlock: MIFKUJ_clean_linker_0, # of connection points: 2
#     Edge 29, Type (0, 0), BuildingBlock: MIFKUJ_clean_linker_0, # of connection points: 2
#     Edge 30, Type (0, 0), BuildingBlock: MIFKUJ_clean_linker_0, # of connection points: 2
#     Edge 31, Type (0, 0), BuildingBlock: MIFKUJ_clean_linker_0, # of connection points: 2
#     Edge 32, Type (0, 0), BuildingBlock: MIFKUJ_clean_linker_0, # of connection points: 2
#     Edge 33, Type (0, 0), BuildingBlock: MIFKUJ_clean_linker_0, # of connection points: 2
#     Edge 34, Type (0, 0), BuildingBlock: MIFKUJ_clean_linker_0, # of connection points: 2
#     Edge 35, Type (0, 0), BuildingBlock: MIFKUJ_clean_linker_0, # of connection points: 2
#     Edge 36, Type (0, 0), BuildingBlock: MIFKUJ_clean_linker_0, # of connection points: 2
#     Edge 37, Type (0, 0), BuildingBlock: MIFKUJ_clean_linker_0, # of connection points: 2
#     Edge 38, Type (0, 0), BuildingBlock: MIFKUJ_clean_linker_0, # of connection points: 2
#     Edge 39, Type (0, 0), BuildingBlock: MIFKUJ_clean_linker_0, # of connection points: 2
#     Edge 40, Type (0, 0), BuildingBlock: MIFKUJ_clean_linker_0, # of connection points: 2
#     Edge 41, Type (0, 0), BuildingBlock: MIFKUJ_clean_linker_0, # of connection points: 2
#     Edge 42, Type (0, 0), BuildingBlock: MIFKUJ_clean_linker_0, # of connection points: 2
#     Edge 43, Type (0, 0), BuildingBlock: MIFKUJ_clean_linker_0, # of connection points: 2
#     Edge 44, Type (0, 0), BuildingBlock: MIFKUJ_clean_linker_0, # of connection points: 2
#     Edge 45, Type (0, 0), BuildingBlock: MIFKUJ_clean_linker_0, # of connection points: 2
#     Edge 46, Type (0, 0), BuildingBlock: MIFKUJ_clean_linker_0, # of connection points: 2
#     Edge 47, Type (0, 0), BuildingBlock: MIFKUJ_clean_linker_0, # of connection points: 2
#     Edge 48, Type (0, 0), BuildingBlock: MIFKUJ_clean_linker_0, # of connection points: 2
#     Edge 49, Type (0, 0), BuildingBlock: MIFKUJ_clean_linker_0, # of connection points: 2
#     Edge 50, Type (0, 0), BuildingBlock: MIFKUJ_clean_linker_0, # of connection points: 2
#     Edge 51, Type (0, 0), BuildingBlock: MIFKUJ_clean_linker_0, # of connection points: 2
#     Edge 52, Type (0, 0), BuildingBlock: MIFKUJ_clean_linker_0, # of connection points: 2
#     Edge 53, Type (0, 0), BuildingBlock: MIFKUJ_clean_linker_0, # of connection points: 2
#     Edge 54, Type (0, 0), BuildingBlock: MIFKUJ_clean_linker_0, # of connection points: 2
#     Edge 55, Type (0, 0), BuildingBlock: MIFKUJ_clean_linker_0, # of connection points: 2
#     Edge 56, Type (0, 0), BuildingBlock: MIFKUJ_clean_linker_0, # of connection points: 2
#     Edge 57, Type (0, 0), BuildingBlock: MIFKUJ_clean_linker_0, # of connection points: 2
#     Edge 58, Type (0, 0), BuildingBlock: MIFKUJ_clean_linker_0, # of connection points: 2
#     Edge 59, Type (0, 0), BuildingBlock: MIFKUJ_clean_linker_0, # of connection points: 2
#     Edge 60, Type (0, 0), BuildingBlock: MIFKUJ_clean_linker_0, # of connection points: 2
#     Edge 61, Type (0, 0), BuildingBlock: MIFKUJ_clean_linker_0, # of connection points: 2
#     Edge 62, Type (0, 0), BuildingBlock: MIFKUJ_clean_linker_0, # of connection points: 2
#     Edge 63, Type (0, 0), BuildingBlock: MIFKUJ_clean_linker_0, # of connection points: 2
#     Edge 64, Type (0, 0), BuildingBlock: MIFKUJ_clean_linker_0, # of connection points: 2
#     Edge 65, Type (0, 0), BuildingBlock: MIFKUJ_clean_linker_0, # of connection points: 2
#     Edge 66, Type (0, 0), BuildingBlock: MIFKUJ_clean_linker_0, # of connection points: 2
#     Edge 67, Type (0, 0), BuildingBlock: MIFKUJ_clean_linker_0, # of connection points: 2
#     Edge 68, Type (0, 0), BuildingBlock: MIFKUJ_clean_linker_0, # of connection points: 2
#     Edge 69, Type (0, 0), BuildingBlock: MIFKUJ_clean_linker_0, # of connection points: 2
#     Edge 70, Type (0, 0), BuildingBlock: MIFKUJ_clean_linker_0, # of connection points: 2
#     Edge 71, Type (0, 0), BuildingBlock: MIFKUJ_clean_linker_0, # of connection points: 2
# Relax obj value: 0.330
# Max RMSD: 0.240
# Mean RMSD: 0.214
data_MOF--net-unv--node1-CEKHIL_clean_sbu_0--edge1-MIFKUJ_clean_linker_0
_symmetry_space_group_name_H-M    P1
_symmetry_Int_Tables_number       1
_symmetry_cell_setting            triclinic
loop_
_symmetry_equiv_pos_as_xyz
'x, y, z'
_cell_length_a     62.375721
_cell_length_b     62.307198
_cell_length_c     62.284169
_cell_angle_alpha  90.006431
_cell_angle_beta   90.014104
_cell_angle_gamma 89.978134
loop_
_atom_site_label
_atom_site_type_symbol
_atom_site_fract_x
_atom_site_fract_y
_atom_site_fract_z
_atom_type_partial_charge
Co0 Co 0.02398 0.1033 0.38065 0.0
O1 O 0.03546 0.12646 0.36357 0.0
O2 O 0.00094 0.11873 0.36692 0.0
C3 C 0.04305 0.10975 0.41076 0.0
O4 O 0.00588 0.08173 0.39723 0.0
Co5 Co 0.05237 0.0664 0.39883 0.0
O6 O 0.02726 0.06109 0.41765 0.0
C7 C 0.03635 0.06425 0.35393 0.0
C8 C 0.01567 0.13141 0.35937 0.0
C9 C 0.00874 0.06778 0.4122 0.0
O10 O 0.02649 0.08237 0.35585 0.0
O11 O 0.04802 0.05604 0.36873 0.0
O12 O 0.02598 0.1209 0.40654 0.0
O13 O 0.0493 0.09703 0.39565 0.0
Co14 Co 0.96851 0.38283 0.3684 0.0
O15 O 0.95975 0.35735 0.35321 0.0
O16 O 0.99332 0.3685 0.35659 0.0
C17 C 0.94941 0.37724 0.39867 0.0
O18 O 0.98372 0.40748 0.38337 0.0
Co19 Co 0.93494 0.41772 0.38102 0.0
O20 O 0.95937 0.43034 0.3971 0.0
C21 C 0.95125 0.41587 0.33656 0.0
C22 C 0.97999 0.35397 0.34978 0.0
C23 C 0.97869 0.42416 0.39446 0.0
O24 O 0.96489 0.40118 0.34175 0.0
O25 O 0.93673 0.42282 0.34932 0.0
O26 O 0.9676 0.36755 0.39578 0.0
O27 O 0.9422 0.38766 0.38228 0.0
Co28 Co 0.02145 0.8938 0.13763 0.0
O29 O 0.03461 0.87021 0.15272 0.0
O30 O -0.00019 0.87708 0.15222 0.0
C31 C 0.03947 0.88907 0.10649 0.0
O32 O 0.00168 0.91554 0.12335 0.0
Co33 Co 0.04741 0.93223 0.11906 0.0
O34 O 0.02132 0.93595 0.10114 0.0
C35 C 0.03426 0.93209 0.16505 0.0
C36 C 0.01536 0.86451 0.15822 0.0
C37 C 0.00333 0.92909 0.10788 0.0
O38 O 0.02492 0.91368 0.1632 0.0
O39 O 0.04456 0.9412 0.14977 0.0
O40 O 0.02257 0.87761 0.11062 0.0
O41 O 0.04576 0.90151 0.12174 0.0
Co42 Co 0.9737 0.61353 0.14703 0.0
O43 O 0.96027 0.63702 0.16198 0.0
O44 O 0.99514 0.63051 0.16169 0.0
C45 C 0.95628 0.61788 0.11541 0.0
O46 O 0.99349 0.59189 0.13271 0.0
Co47 Co 0.94692 0.57503 0.12956 0.0
O48 O 0.97305 0.57079 0.11173 0.0
C49 C 0.95774 0.57732 0.17579 0.0
C50 C 0.97945 0.64299 0.16746 0.0
C51 C 0.99124 0.57807 0.11756 0.0
O52 O 0.97005 0.5937 0.17268 0.0
O53 O 0.94593 0.56906 0.16114 0.0
O54 O 0.97278 0.62973 0.12 0.0
O55 O 0.94965 0.60577 0.13081 0.0
Co56 Co 0.37529 0.02879 0.10373 0.0
O57 O 0.36298 0.03981 0.12988 0.0
O58 O 0.36565 0.00531 0.12152 0.0
C59 C 0.40562 0.04857 0.10335 0.0
O60 O 0.38749 0.0115 0.0789 0.0
Co61 Co 0.38214 0.05961 0.06474 0.0
O62 O 0.39471 0.03365 0.05119 0.0
C63 C 0.33892 0.04373 0.07463 0.0
C64 C 0.36001 0.01992 0.13531 0.0
C65 C 0.39455 0.0151 0.05984 0.0
O66 O 0.34657 0.03044 0.08853 0.0
O67 O 0.35015 0.05842 0.0657 0.0
O68 O 0.40436 0.03154 0.11531 0.0
O69 O 0.38781 0.05458 0.09472 0.0
Co70 Co 0.61758 0.49599 0.10387 0.0
O71 O 0.63603 0.48503 0.12605 0.0
O72 O 0.62934 0.51948 0.12051 0.0
C73 C 0.59018 0.47322 0.11012 0.0
O74 O 0.59881 0.51325 0.08323 0.0
Co75 Co 0.60228 0.46706 0.06607 0.0
O76 O 0.58111 0.49035 0.06172 0.0
C77 C 0.645 0.48803 0.0642 0.0
C78 C 0.63859 0.50478 0.13212 0.0
C79 C 0.58434 0.50918 0.06901 0.0
O80 O 0.64224 0.49697 0.08268 0.0
O81 O 0.63147 0.47521 0.05557 0.0
O82 O 0.59231 0.49045 0.12162 0.0
O83 O 0.60549 0.46939 0.09674 0.0
Co84 Co 0.3689 0.96854 0.38775 0.0
O85 O 0.35275 0.9606 0.36261 0.0
O86 O 0.35856 0.994 0.3734 0.0
C87 C 0.39771 0.94737 0.38184 0.0
O88 O 0.38547 0.98288 0.41204 0.0
Co89 Co 0.37951 0.93447 0.42282 0.0
O90 O 0.39837 0.95743 0.43421 0.0
C91 C 0.3361 0.95296 0.42058 0.0
C92 C 0.35073 0.98103 0.35903 0.0
C93 C 0.39703 0.97694 0.42813 0.0
O94 O 0.34232 0.96677 0.40647 0.0
O95 O 0.34789 0.93754 0.42728 0.0
O96 O 0.39571 0.96552 0.37183 0.0
O97 O 0.38108 0.94146 0.3927 0.0
Co98 Co 0.63107 0.50849 0.38376 0.0
O99 O 0.64822 0.52469 0.36379 0.0
O100 O 0.6456 0.48927 0.36426 0.0
C101 C 0.60115 0.5286 0.3802 0.0
O102 O 0.6143 0.48619 0.40094 0.0
Co103 Co 0.61136 0.52854 0.42502 0.0
O104 O 0.59133 0.50397 0.42224 0.0
C105 C 0.65662 0.51363 0.42507 0.0
C106 C 0.65287 0.50644 0.35487 0.0
C107 C 0.59757 0.48684 0.41301 0.0
O108 O 0.65543 0.50742 0.40533 0.0
O109 O 0.64124 0.5227 0.43522 0.0
O110 O 0.60558 0.51379 0.36621 0.0
O111 O 0.61568 0.53194 0.39456 0.0
Co112 Co 0.10359 0.37092 0.02522 0.0
O113 O 0.12948 0.3582 0.03634 0.0
O114 O 0.12002 0.35839 0.00206 0.0
C115 C 0.10573 0.40264 0.04274 0.0
O116 O 0.07883 0.38306 0.00773 0.0
Co117 Co 0.06609 0.38247 0.0564 0.0
O118 O 0.05316 0.39511 0.03017 0.0
C119 C 0.07321 0.3375 0.04402 0.0
C120 C 0.13411 0.35333 0.01661 0.0
C121 C 0.06075 0.39235 0.01134 0.0
O122 O 0.08709 0.34325 0.02978 0.0
O123 O 0.06513 0.35043 0.05779 0.0
O124 O 0.11684 0.39947 0.02539 0.0
O125 O 0.09615 0.38588 0.05019 0.0
Co126 Co 0.10603 0.62471 0.49254 0.0
O127 O 0.12894 0.63812 0.47672 0.0
O128 O 0.12749 0.63525 0.5122 0.0
C129 C 0.10356 0.59465 0.47235 0.0
O130 O 0.08571 0.61162 0.51445 0.0
Co131 Co 0.06203 0.61478 0.47069 0.0
O132 O 0.05769 0.59706 0.49686 0.0
C133 C 0.07324 0.65923 0.48276 0.0
C134 C 0.13793 0.64143 0.49522 0.0
C135 C 0.06874 0.59995 0.51383 0.0
O136 O 0.08967 0.65276 0.49352 0.0
O137 O 0.06175 0.64693 0.47098 0.0
O138 O 0.1182 0.59612 0.48713 0.0
O139 O 0.09272 0.61192 0.46896 0.0
Co140 Co 0.8914 0.86054 0.48727 0.0
O141 O 0.86857 0.84406 0.47483 0.0
O142 O 0.87572 0.84571 0.50964 0.0
C143 C 0.88506 0.89138 0.46947 0.0
O144 O 0.91321 0.8764 0.5057 0.0
Co145 Co 0.92794 0.87787 0.45788 0.0
O146 O 0.93518 0.89491 0.48383 0.0
C147 C 0.9288 0.8327 0.47227 0.0
C148 C 0.86345 0.83866 0.49426 0.0
C149 C 0.92829 0.89015 0.50252 0.0
O150 O 0.91214 0.83578 0.48411 0.0
O151 O 0.93628 0.84683 0.45936 0.0
O152 O 0.87398 0.88658 0.48642 0.0
O153 O 0.89744 0.87636 0.46241 0.0
Co154 Co 0.38858 0.62667 0.50744 0.0
O155 O 0.36532 0.64405 0.51785 0.0
O156 O 0.37467 0.6409 0.48364 0.0
C157 C 0.38026 0.59668 0.52587 0.0
O158 O 0.41089 0.6097 0.49067 0.0
Co159 Co 0.42303 0.60862 0.53876 0.0
O160 O 0.43086 0.59048 0.51375 0.0
C161 C 0.42552 0.65389 0.5244 0.0
C162 C 0.3615 0.6486 0.49789 0.0
C163 C 0.42511 0.59523 0.49471 0.0
O164 O 0.40958 0.65113 0.51147 0.0
O165 O 0.43195 0.63948 0.53757 0.0
O166 O 0.37048 0.6011 0.50802 0.0
O167 O 0.39279 0.61149 0.53309 0.0
Co168 Co 0.50503 0.60679 0.85584 0.0
O169 O 0.52199 0.62772 0.84071 0.0
O170 O 0.48671 0.62483 0.83848 0.0
C171 C 0.52074 0.61196 0.88817 0.0
O172 O 0.48191 0.58827 0.86972 0.0
Co173 Co 0.52523 0.56718 0.87866 0.0
O174 O 0.49776 0.5676 0.8947 0.0
C175 C 0.51607 0.5657 0.83176 0.0
C176 C 0.50401 0.63535 0.83347 0.0
C177 C 0.48112 0.57585 0.8862 0.0
O178 O 0.50846 0.58498 0.83187 0.0
O179 O 0.52407 0.55654 0.84835 0.0
O180 O 0.50574 0.62482 0.88161 0.0
O181 O 0.52689 0.59775 0.87442 0.0
Co182 Co 0.48831 0.88992 0.8611 0.0
O183 O 0.47411 0.86649 0.847 0.0
O184 O 0.50929 0.87091 0.84816 0.0
C185 C 0.46931 0.88836 0.89193 0.0
O186 O 0.50843 0.9118 0.87461 0.0
Co187 Co 0.46226 0.93061 0.87477 0.0
O188 O 0.48859 0.93671 0.89172 0.0
C189 C 0.47528 0.92471 0.82948 0.0
C190 C 0.49301 0.85927 0.84219 0.0
C191 C 0.50658 0.92807 0.88723 0.0
O192 O 0.48674 0.90816 0.83427 0.0
O193 O 0.46296 0.93433 0.84282 0.0
O194 O 0.48547 0.87552 0.88902 0.0
O195 O 0.46408 0.89983 0.87556 0.0
Co196 Co 0.51529 0.38686 0.62248 0.0
O197 O 0.52949 0.36528 0.63948 0.0
O198 O 0.49434 0.37034 0.63817 0.0
C199 C 0.53315 0.3804 0.59159 0.0
O200 O 0.49476 0.4066 0.60644 0.0
Co201 Co 0.54008 0.42479 0.60143 0.0
O202 O 0.51367 0.42736 0.58383 0.0
C203 C 0.52731 0.42725 0.64738 0.0
C204 C 0.51045 0.35906 0.64512 0.0
C205 C 0.49592 0.41993 0.5907 0.0
O206 O 0.51791 0.40881 0.64639 0.0
O207 O 0.53779 0.43543 0.63169 0.0
O208 O 0.51702 0.36843 0.59706 0.0
O209 O 0.53916 0.3942 0.60581 0.0
Co210 Co 0.48988 0.10611 0.628 0.0
O211 O 0.47886 0.13238 0.63987 0.0
O212 O 0.51317 0.12292 0.63976 0.0
C213 C 0.47251 0.10695 0.59623 0.0
O214 O 0.50689 0.0806 0.6168 0.0
Co215 Co 0.45768 0.06879 0.61862 0.0
O216 O 0.48374 0.05439 0.60737 0.0
C217 C 0.47186 0.07681 0.66293 0.0
C218 C 0.49856 0.13701 0.64462 0.0
C219 C 0.50269 0.06188 0.60914 0.0
O220 O 0.48564 0.09073 0.65632 0.0
O221 O 0.4577 0.06831 0.65073 0.0
O222 O 0.48984 0.11817 0.59898 0.0
O223 O 0.46478 0.0984 0.61342 0.0
Co224 Co 0.8557 0.5157 0.61263 0.0
O225 O 0.84139 0.5305 0.63562 0.0
O226 O 0.84004 0.49543 0.63034 0.0
C227 C 0.8877 0.53213 0.61716 0.0
O228 O 0.86916 0.49486 0.59118 0.0
Co229 Co 0.87482 0.54095 0.57381 0.0
O230 O 0.89074 0.51374 0.56923 0.0
C231 C 0.82823 0.53091 0.57509 0.0
C232 C 0.83511 0.51184 0.64233 0.0
C233 C 0.8838 0.49598 0.57661 0.0
O234 O 0.83038 0.51996 0.59258 0.0
O235 O 0.84359 0.54148 0.56644 0.0
O236 O 0.88252 0.51588 0.62911 0.0
O237 O 0.87281 0.53893 0.60453 0.0
Co238 Co 0.13967 0.9635 0.61109 0.0
O239 O 0.1564 0.95382 0.63526 0.0
O240 O 0.15153 0.98782 0.62614 0.0
C241 C 0.11046 0.94293 0.61709 0.0
O242 O 0.12271 0.97974 0.58835 0.0
Co243 Co 0.12604 0.93214 0.57462 0.0
O244 O 0.10753 0.95637 0.5654 0.0
C245 C 0.17032 0.9487 0.5759 0.0
C246 C 0.15928 0.97398 0.63972 0.0
C247 C 0.1101 0.97537 0.57257 0.0
O248 O 0.16541 0.96179 0.5912 0.0
O249 O 0.15751 0.93431 0.56881 0.0
O250 O 0.11338 0.9605 0.6279 0.0
O251 O 0.12639 0.93716 0.60518 0.0
Co252 Co 0.86197 0.49088 0.89634 0.0
O253 O 0.84537 0.47744 0.87411 0.0
O254 O 0.84892 0.51253 0.87805 0.0
C255 C 0.89137 0.47011 0.89215 0.0
O256 O 0.87859 0.51029 0.91701 0.0
Co257 Co 0.8775 0.46434 0.93585 0.0
O258 O 0.89772 0.48871 0.93875 0.0
C259 C 0.83325 0.48194 0.93499 0.0
C260 C 0.8414 0.49654 0.86687 0.0
C261 C 0.8934 0.50719 0.93113 0.0
O262 O 0.83652 0.49088 0.91658 0.0
O263 O 0.8471 0.47002 0.94441 0.0
O264 O 0.88824 0.48651 0.87969 0.0
O265 O 0.87583 0.46569 0.90505 0.0
Co266 Co 0.13963 0.02633 0.89359 0.0
O267 O 0.15076 0.03732 0.86695 0.0
O268 O 0.14961 0.0029 0.87582 0.0
C269 C 0.10876 0.04533 0.89456 0.0
O270 O 0.12879 0.00917 0.91917 0.0
Co271 Co 0.13356 0.05789 0.93214 0.0
O272 O 0.12147 0.03205 0.94627 0.0
C273 C 0.17667 0.04255 0.92124 0.0
C274 C 0.1544 0.01749 0.86167 0.0
C275 C 0.12206 0.01319 0.93829 0.0
O276 O 0.16875 0.02898 0.90778 0.0
O277 O 0.16555 0.05717 0.93041 0.0
O278 O 0.11014 0.02816 0.88281 0.0
O279 O 0.12665 0.05187 0.90261 0.0
Co280 Co 0.61188 0.85573 0.51475 0.0
O281 O 0.63483 0.83892 0.52663 0.0
O282 O 0.62932 0.84402 0.49187 0.0
C283 C 0.61593 0.88462 0.53618 0.0
O284 O 0.59041 0.87262 0.49688 0.0
Co285 Co 0.57298 0.86847 0.5436 0.0
O286 O 0.56655 0.888 0.51921 0.0
C287 C 0.57562 0.8248 0.5255 0.0
C288 C 0.64121 0.83594 0.50704 0.0
C289 C 0.57465 0.88546 0.50057 0.0
O290 O 0.59212 0.82999 0.51421 0.0
O291 O 0.56702 0.8371 0.53952 0.0
O292 O 0.62815 0.88213 0.51951 0.0
O293 O 0.60372 0.86851 0.54066 0.0
Co294 Co 0.61233 0.14358 0.953 0.0
O295 O 0.6365 0.15939 0.94216 0.0
O296 O 0.62612 0.15916 0.97611 0.0
C297 C 0.62031 0.11215 0.93684 0.0
O298 O 0.58905 0.12834 0.97019 0.0
Co299 Co 0.57829 0.12446 0.92183 0.0
O300 O 0.57024 0.10745 0.94754 0.0
C301 C 0.57554 0.17027 0.9345 0.0
C302 C 0.64014 0.16516 0.96184 0.0
C303 C 0.57519 0.11347 0.96647 0.0
O304 O 0.59193 0.16825 0.94701 0.0
O305 O 0.56883 0.15518 0.92224 0.0
O306 O 0.62972 0.11756 0.95461 0.0
O307 O 0.60841 0.12678 0.92828 0.0
Co308 Co 0.38485 0.36534 0.97179 0.0
O309 O 0.36039 0.35202 0.95832 0.0
O310 O 0.36936 0.34829 0.9925 0.0
C311 C 0.37908 0.39857 0.9584 0.0
O312 O 0.40776 0.37705 0.99179 0.0
Co313 Co 0.42165 0.38678 0.94574 0.0
O314 O 0.42788 0.4009 0.97372 0.0
C315 C 0.42069 0.33935 0.95111 0.0
C316 C 0.35568 0.34452 0.9772 0.0
C317 C 0.42163 0.39226 0.99116 0.0
O318 O 0.40433 0.34049 0.96378 0.0
O319 O 0.42857 0.35564 0.94134 0.0
O320 O 0.36867 0.39208 0.97523 0.0
O321 O 0.39106 0.38437 0.9493 0.0
Co322 Co 0.8876 0.13996 0.02746 0.0
O323 O 0.86122 0.15258 0.03706 0.0
O324 O 0.87288 0.1535 0.00353 0.0
C325 C 0.88375 0.1078 0.0437 0.0
O326 O 0.91377 0.12794 0.01196 0.0
Co327 Co 0.9216 0.12774 0.06235 0.0
O328 O 0.93688 0.1158 0.03709 0.0
C329 C 0.91739 0.17272 0.04875 0.0
C330 C 0.85791 0.15826 0.01732 0.0
C331 C 0.93138 0.11869 0.01756 0.0
O332 O 0.90404 0.16729 0.03389 0.0
O333 O 0.92416 0.15972 0.06314 0.0
O334 O 0.8742 0.11158 0.02557 0.0
O335 O 0.89256 0.12427 0.05258 0.0
H336 H 0.10726 0.01753 0.58502 0.0
H337 H 0.09058 0.04715 0.56541 0.0
H338 H 0.07169 0.00326 0.51524 0.0
H339 H 0.08748 0.97361 0.53503 0.0
H340 H 0.102 0.06279 0.52962 0.0
H341 H 0.03135 0.01989 0.48614 0.0
H342 H 0.00321 0.99318 0.49366 0.0
H343 H 0.0065 0.00801 0.56084 0.0
H344 H 0.03492 0.0347 0.55383 0.0
H345 H 0.08069 0.09225 0.42356 0.0
H346 H 0.08897 0.07776 0.45896 0.0
H347 H 0.02941 0.10306 0.48349 0.0
H348 H 0.02102 0.11766 0.44792 0.0
H349 H 0.03288 0.06061 0.49034 0.0
H350 H 0.07595 0.1214 0.50414 0.0
H351 H 0.10274 0.1495 0.49667 0.0
H352 H 0.15182 0.10154 0.49065 0.0
H353 H 0.12528 0.07311 0.49776 0.0
C354 C 0.09929 0.01415 0.56995 0.0
C355 C 0.09885 0.99319 0.56155 0.0
C356 C 0.08969 0.0311 0.55878 0.0
C357 C 0.07961 0.02747 0.53893 0.0
C358 C 0.0788 0.00648 0.53077 0.0
C359 C 0.08812 0.98951 0.54203 0.0
C360 C 0.07217 0.04576 0.52553 0.0
C361 C 0.08673 0.06245 0.5213 0.0
C362 C 0.05207 0.04564 0.5149 0.0
C363 C 0.03538 0.02925 0.51945 0.0
C364 C 0.02613 0.01745 0.50255 0.0
C365 C 0.0102 0.00224 0.50674 0.0
C366 C 0.00324 0.99877 0.52777 0.0
C367 C 0.01217 0.01053 0.54463 0.0
C368 C 0.02826 0.02565 0.54057 0.0
C369 C 0.06969 0.09533 0.43666 0.0
C370 C 0.05022 0.10602 0.433 0.0
C371 C 0.07445 0.08709 0.45692 0.0
C372 C 0.05982 0.08937 0.47388 0.0
C373 C 0.04094 0.1012 0.47061 0.0
C374 C 0.03624 0.10965 0.45033 0.0
C375 C 0.06311 0.0769 0.49387 0.0
C376 C 0.04785 0.06125 0.49921 0.0
C377 C 0.08245 0.07805 0.50562 0.0
C378 C 0.09857 0.09509 0.50144 0.0
C379 C 0.09243 0.11682 0.5011 0.0
C380 C 0.10758 0.13281 0.49694 0.0
C381 C 0.12897 0.12731 0.49318 0.0
C382 C 0.13525 0.10578 0.4936 0.0
C383 C 0.12016 0.08972 0.49773 0.0
H384 H 0.14067 0.13971 0.48996 0.0
H385 H 0.99086 0.98703 0.53099 0.0
H386 H 0.90788 0.3841 0.40998 0.0
H387 H 0.89454 0.3963 0.44488 0.0
H388 H 0.95887 0.39371 0.4704 0.0
H389 H 0.9719 0.38011 0.43598 0.0
H390 H 0.93342 0.38515 0.50121 0.0
H391 H 0.93587 0.44125 0.44879 0.0
H392 H 0.92822 0.45915 0.4143 0.0
H393 H 0.86072 0.45673 0.42763 0.0
H394 H 0.86797 0.43869 0.46216 0.0
H395 H 0.92352 0.48738 0.56087 0.0
H396 H 0.93318 0.45873 0.53571 0.0
H397 H 0.86945 0.43253 0.54086 0.0
H398 H 0.85987 0.46075 0.56665 0.0
H399 H 0.89183 0.45288 0.4966 0.0
H400 H 0.89406 0.39942 0.55369 0.0
H401 H 0.90668 0.38559 0.58857 0.0
H402 H 0.9718 0.38821 0.5664 0.0
H403 H 0.95958 0.40239 0.53149 0.0
C404 C 0.91902 0.38564 0.42325 0.0
C405 C 0.94088 0.38127 0.42035 0.0
C406 C 0.91145 0.39276 0.44313 0.0
C407 C 0.92579 0.39656 0.46015 0.0
C408 C 0.94746 0.391 0.45756 0.0
C409 C 0.95492 0.38324 0.43787 0.0
C410 C 0.91862 0.40805 0.47985 0.0
C411 C 0.92432 0.39995 0.50015 0.0
C412 C 0.90685 0.42749 0.47863 0.0
C413 C 0.90244 0.43841 0.45793 0.0
C414 C 0.91939 0.44442 0.4443 0.0
C415 C 0.91513 0.4546 0.42476 0.0
C416 C 0.89399 0.45898 0.41874 0.0
C417 C 0.87708 0.45328 0.4323 0.0
C418 C 0.88125 0.44311 0.45187 0.0
C419 C 0.91182 0.47506 0.55721 0.0
C420 C 0.89096 0.47625 0.56566 0.0
C421 C 0.91736 0.45871 0.5429 0.0
C422 C 0.90204 0.44353 0.53658 0.0
C423 C 0.88154 0.44397 0.54583 0.0
C424 C 0.87613 0.46005 0.56057 0.0
C425 C 0.90642 0.42982 0.51774 0.0
C426 C 0.90047 0.43778 0.49757 0.0
C427 C 0.91857 0.41076 0.51912 0.0
C428 C 0.92591 0.4022 0.54007 0.0
C429 C 0.91108 0.39729 0.55634 0.0
C430 C 0.91816 0.38932 0.57609 0.0
C431 C 0.94003 0.38609 0.57972 0.0
C432 C 0.95487 0.39075 0.56358 0.0
C433 C 0.94787 0.39873 0.5438 0.0
H434 H 0.94548 0.37991 0.59502 0.0
H435 H 0.89073 0.46684 0.40359 0.0
H436 H 0.08052 0.89508 0.09449 0.0
H437 H 0.09319 0.90992 0.06043 0.0
H438 H 0.02859 0.9088 0.03572 0.0
H439 H 0.01594 0.89325 0.06973 0.0
H440 H 0.09101 0.89836 0.01644 0.0
H441 H 0.02327 0.96136 0.01267 0.0
H442 H -0.00058 0.98301 0.03574 0.0
H443 H 0.04271 0.97491 0.08872 0.0
H444 H 0.06678 0.95326 0.06597 0.0
H445 H 0.10408 0.97475 0.92626 0.0
H446 H 0.08955 0.94691 0.95027 0.0
H447 H 0.11052 0.98342 0.00521 0.0
H448 H 0.12468 0.01117 0.9816 0.0
H449 H 0.06604 0.973 0.00453 0.0
H450 H 0.13626 0.94151 0.99543 0.0
H451 H 0.16598 0.92615 0.97435 0.0
H452 H 0.1244 0.87632 0.95123 0.0
H453 H 0.09431 0.8916 0.97196 0.0
C454 C 0.06918 0.89726 0.08149 0.0
C455 C 0.04735 0.89283 0.08456 0.0
C456 C 0.0764 0.90577 0.06208 0.0
C457 C 0.06181 0.91054 0.04563 0.0
C458 C 0.04009 0.90516 0.04824 0.0
C459 C 0.03292 0.89612 0.06754 0.0
C460 C 0.06922 0.92312 0.02688 0.0
C461 C 0.08529 0.91455 0.01357 0.0
C462 C 0.062 0.94436 0.02334 0.0
C463 C 0.04657 0.95531 0.03774 0.0
C464 C 0.02752 0.96395 0.02933 0.0
C465 C 0.01404 0.97634 0.04231 0.0
C466 C 0.01953 0.98029 0.0637 0.0
C467 C 0.03843 0.97174 0.07218 0.0
C468 C 0.05192 0.95927 0.0593 0.0
C469 C 0.10576 0.97664 0.94346 0.0
C470 C 0.1151 0.99529 0.95211 0.0
C471 C 0.09751 0.96077 0.9571 0.0
C472 C 0.09877 0.96333 0.97945 0.0
C473 C 0.10919 0.98132 0.98798 0.0
C474 C 0.11719 0.99718 0.97447 0.0
C475 C 0.08794 0.94837 0.9943 0.0
C476 C 0.0712 0.95652 0.00687 0.0
C477 C 0.09493 0.92704 0.99744 0.0
C478 C 0.11297 0.91787 0.98499 0.0
C479 C 0.13339 0.92742 0.98566 0.0
C480 C 0.15031 0.91869 0.97382 0.0
C481 C 0.14706 0.90031 0.96139 0.0
C482 C 0.12688 0.89058 0.96082 0.0
C483 C 0.10989 0.89927 0.97262 0.0
H484 H 0.16018 0.89357 0.95224 0.0
H485 H 0.0091 0.98993 0.07371 0.0
H486 H 0.91967 0.59836 0.10248 0.0
H487 H 0.91099 0.5854 0.06653 0.0
H488 H 0.96903 0.61387 0.04198 0.0
H489 H 0.97766 0.62729 0.07804 0.0
H490 H 0.93434 0.61697 0.01293 0.0
H491 H 0.9719 0.55866 0.05109 0.0
H492 H 0.97822 0.53444 0.08195 0.0
H493 H 0.91207 0.51556 0.08107 0.0
H494 H 0.90551 0.53932 0.05 0.0
H495 H 0.93406 0.50878 0.94637 0.0
H496 H 0.94829 0.53453 0.97221 0.0
H497 H 0.8906 0.57234 0.96655 0.0
H498 H 0.87644 0.54671 0.94023 0.0
H499 H 0.92828 0.53766 0.00942 0.0
H500 H 0.90167 0.62391 0.98691 0.0
H501 H 0.89754 0.64648 0.95464 0.0
H502 H 0.94509 0.60894 0.92184 0.0
H503 H 0.94973 0.58634 0.954 0.0
C504 C 0.93038 0.60226 0.08935 0.0
C505 C 0.9494 0.61373 0.09308 0.0
C506 C 0.92545 0.59475 0.06884 0.0
C507 C 0.93957 0.59832 0.05167 0.0
C508 C 0.95794 0.61091 0.05503 0.0
C509 C 0.96282 0.6186 0.07561 0.0
C510 C 0.93585 0.58742 0.03081 0.0
C511 C 0.93304 0.59963 0.01205 0.0
C512 C 0.93443 0.56482 0.02962 0.0
C513 C 0.9382 0.55091 0.0485 0.0
C514 C 0.95872 0.54946 0.05765 0.0
C515 C 0.96236 0.53576 0.07507 0.0
C516 C 0.94553 0.52365 0.08358 0.0
C517 C 0.92507 0.52502 0.07452 0.0
C518 C 0.92141 0.53848 0.05694 0.0
C519 C 0.92472 0.52298 0.95007 0.0
C520 C 0.90405 0.52564 0.94152 0.0
C521 C 0.93286 0.53768 0.96486 0.0
C522 C 0.92043 0.55524 0.97153 0.0
C523 C 0.90056 0.55901 0.96154 0.0
C524 C 0.89247 0.54436 0.94649 0.0
C525 C 0.92663 0.56709 0.99127 0.0
C526 C 0.92972 0.55501 0.01002 0.0
C527 C 0.92843 0.58973 0.99222 0.0
C528 C 0.92588 0.6033 0.97282 0.0
C529 C 0.9113 0.62052 0.97284 0.0
C530 C 0.90886 0.63331 0.95456 0.0
C531 C 0.92099 0.6291 0.93618 0.0
C532 C 0.93563 0.61213 0.93606 0.0
C533 C 0.93814 0.59929 0.9543 0.0
H534 H 0.91908 0.63902 0.92205 0.0
H535 H 0.94837 0.51313 0.09711 0.0
H536 H 0.41276 0.08566 0.08158 0.0
H537 H 0.44533 0.09604 0.06246 0.0
H538 H 0.4775 0.03959 0.08639 0.0
H539 H 0.44504 0.02939 0.10604 0.0
H540 H 0.5051 0.07296 0.08404 0.0
H541 H 0.45608 0.03798 0.03562 0.0
H542 H 0.42236 0.03097 0.01628 0.0
H543 H 0.42127 0.09596 0.99352 0.0
H544 H 0.45556 0.10312 0.012 0.0
H545 H 0.55345 0.07558 0.96693 0.0
H546 H 0.52909 0.06249 0.9946 0.0
H547 H 0.54443 0.11712 0.03431 0.0
H548 H 0.56926 0.13013 0.00679 0.0
H549 H 0.49423 0.08225 0.00568 0.0
H550 H 0.53322 0.10467 0.08739 0.0
H551 H 0.5692 0.10646 0.10374 0.0
H552 H 0.59225 0.05943 0.05893 0.0
H553 H 0.55636 0.05713 0.04251 0.0
C554 C 0.42691 0.07569 0.08313 0.0
C555 C 0.42632 0.05664 0.09517 0.0
C556 C 0.44548 0.08158 0.07212 0.0
C557 C 0.4637 0.06835 0.07263 0.0
C558 C 0.46361 0.05 0.08572 0.0
C559 C 0.44505 0.0442 0.09695 0.0
C560 C 0.48211 0.07285 0.05822 0.0
C561 C 0.50278 0.07504 0.0669 0.0
C562 C 0.47918 0.07507 0.03581 0.0
C563 C 0.45826 0.0711 0.02529 0.0
C564 C 0.44861 0.05078 0.02653 0.0
C565 C 0.42943 0.04676 0.01567 0.0
C566 C 0.4195 0.06305 0.0039 0.0
C567 C 0.42892 0.08336 0.00271 0.0
C568 C 0.44833 0.08736 0.01321 0.0
C569 C 0.55193 0.08465 0.9817 0.0
C570 C 0.56308 0.10404 0.98457 0.0
C571 C 0.53801 0.07713 0.99751 0.0
C572 C 0.53483 0.08886 0.01649 0.0
C573 C 0.54678 0.10766 0.01991 0.0
C574 C 0.56092 0.11512 0.00413 0.0
C575 C 0.51734 0.08264 0.0314 0.0
C576 C 0.4967 0.08022 0.0228 0.0
C577 C 0.52051 0.07975 0.05373 0.0
C578 C 0.54214 0.08091 0.06358 0.0
C579 C 0.54595 0.09466 0.08107 0.0
C580 C 0.56634 0.09577 0.09034 0.0
C581 C 0.58302 0.08313 0.08233 0.0
C582 C 0.57934 0.06929 0.06506 0.0
C583 C 0.55898 0.06811 0.05574 0.0
H584 H 0.59879 0.08401 0.08953 0.0
H585 H 0.40457 0.0599 0.99562 0.0
H586 H 0.55002 0.49026 0.11192 0.0
H587 H 0.51697 0.47298 0.09978 0.0
H588 H 0.5512 0.41324 0.09171 0.0
H589 H 0.58443 0.43092 0.10259 0.0
H590 H 0.53276 0.42223 0.05695 0.0
H591 H 0.50842 0.42132 0.12966 0.0
H592 H 0.50028 0.43611 0.16546 0.0
H593 H 0.4551 0.47995 0.13746 0.0
H594 H 0.46318 0.46563 0.10144 0.0
H595 H 0.4449 0.366 0.01654 0.0
H596 H 0.46926 0.37677 0.04553 0.0
H597 H 0.44752 0.44221 0.03962 0.0
H598 H 0.42368 0.43155 0.00996 0.0
H599 H 0.45812 0.42775 0.08392 0.0
H600 H 0.48751 0.43259 0.0119 0.0
H601 H 0.49583 0.41872 0.97579 0.0
H602 H 0.53217 0.36725 0.00373 0.0
H603 H 0.5237 0.38073 0.04007 0.0
C604 C 0.55026 0.47328 0.10819 0.0
C605 C 0.56965 0.46185 0.10811 0.0
C606 C 0.53135 0.46336 0.10131 0.0
C607 C 0.5315 0.44173 0.09486 0.0
C608 C 0.55066 0.42996 0.09648 0.0
C609 C 0.56961 0.44001 0.10277 0.0
C610 C 0.51281 0.43228 0.08345 0.0
C611 C 0.51656 0.42298 0.06325 0.0
C612 C 0.49148 0.43386 0.09116 0.0
C613 C 0.48653 0.44249 0.11281 0.0
C614 C 0.49687 0.43422 0.13111 0.0
C615 C 0.49224 0.44251 0.15145 0.0
C616 C 0.47722 0.45899 0.15373 0.0
C617 C 0.46675 0.46719 0.13567 0.0
C618 C 0.47132 0.45897 0.11529 0.0
C619 C 0.44502 0.38257 0.0218 0.0
C620 C 0.43285 0.39809 0.01098 0.0
C621 C 0.45883 0.38869 0.03835 0.0
C622 C 0.46032 0.41032 0.04445 0.0
C623 C 0.44666 0.42549 0.03495 0.0
C624 C 0.43323 0.41946 0.01802 0.0
C625 C 0.47842 0.41758 0.05792 0.0
C626 C 0.47449 0.42664 0.07815 0.0
C627 C 0.49969 0.41577 0.0504 0.0
C628 C 0.50473 0.40751 0.02865 0.0
C629 C 0.49704 0.4182 0.01033 0.0
C630 C 0.50184 0.41044 0.98984 0.0
C631 C 0.5145 0.3921 0.98748 0.0
C632 C 0.52235 0.38145 0.0056 0.0
C633 C 0.51755 0.38914 0.02615 0.0
H634 H 0.5183 0.38622 0.9716 0.0
H635 H 0.47366 0.46538 0.16949 0.0
H636 H 0.5456 0.91819 0.50206 0.0
H637 H 0.52191 0.92991 0.47329 0.0
H638 H 0.55495 0.88841 0.42878 0.0
H639 H 0.57862 0.87627 0.45766 0.0
H640 H 0.52311 0.94763 0.43378 0.0
H641 H 0.51602 0.8627 0.39941 0.0
H642 H 0.52368 0.82524 0.4099 0.0
H643 H 0.51347 0.84132 0.47615 0.0
H644 H 0.50542 0.87876 0.46601 0.0
H645 H 0.43566 0.95784 0.36246 0.0
H646 H 0.4716 0.94656 0.3735 0.0
H647 H 0.44378 0.90501 0.42144 0.0
H648 H 0.40805 0.9151 0.40956 0.0
H649 H 0.47805 0.88732 0.40783 0.0
H650 H 0.46013 0.96076 0.43122 0.0
H651 H 0.45061 0.99852 0.42394 0.0
H652 H 0.50715 0.00597 0.38554 0.0
H653 H 0.51706 0.96824 0.3925 0.0
C654 C 0.54814 0.91182 0.48608 0.0
C655 C 0.56368 0.89591 0.48227 0.0
C656 C 0.53467 0.91868 0.46959 0.0
C657 C 0.53642 0.90972 0.44901 0.0
C658 C 0.55317 0.8953 0.44465 0.0
C659 C 0.56671 0.88842 0.46117 0.0
C660 C 0.51893 0.91333 0.43332 0.0
C661 C 0.51344 0.93444 0.4278 0.0
C662 C 0.50619 0.89613 0.42572 0.0
C663 C 0.51042 0.87355 0.43196 0.0
C664 C 0.51534 0.8582 0.4162 0.0
C665 C 0.51974 0.83698 0.42208 0.0
C666 C 0.51914 0.83093 0.44369 0.0
C667 C 0.51399 0.84605 0.45944 0.0
C668 C 0.50951 0.86725 0.45363 0.0
C669 C 0.43724 0.9459 0.375 0.0
C670 C 0.41904 0.93773 0.3855 0.0
C671 C 0.4578 0.93959 0.38141 0.0
C672 C 0.46045 0.92546 0.39878 0.0
C673 C 0.44222 0.91608 0.40812 0.0
C674 C 0.42173 0.92199 0.4014 0.0
C675 C 0.48181 0.92171 0.40869 0.0
C676 C 0.48805 0.90052 0.41318 0.0
C677 C 0.49492 0.93888 0.41582 0.0
C678 C 0.48919 0.96165 0.41214 0.0
C679 C 0.47047 0.97043 0.42114 0.0
C680 C 0.46496 0.99179 0.41703 0.0
C681 C 0.4781 0.00455 0.40412 0.0
C682 C 0.49691 0.99603 0.39543 0.0
C683 C 0.50251 0.97468 0.39948 0.0
H684 H 0.4738 0.02109 0.40103 0.0
H685 H 0.52263 0.81452 0.44822 0.0
H686 H 0.42118 0.60367 0.45159 0.0
H687 H 0.44368 0.58987 0.42254 0.0
H688 H 0.47795 0.55033 0.46791 0.0
H689 H 0.45535 0.56355 0.49681 0.0
H690 H 0.48452 0.59635 0.41863 0.0
H691 H 0.50038 0.50739 0.44485 0.0
H692 H 0.48004 0.47701 0.4599 0.0
H693 H 0.42143 0.50391 0.43573 0.0
H694 H 0.44143 0.53427 0.4202 0.0
H695 H 0.5889 0.56063 0.40688 0.0
H696 H 0.55255 0.57107 0.41636 0.0
H697 H 0.52733 0.52621 0.37001 0.0
H698 H 0.564 0.51534 0.36062 0.0
H699 H 0.50851 0.52119 0.40807 0.0
H700 H 0.52066 0.58012 0.36199 0.0
H701 H 0.54066 0.61023 0.34596 0.0
H702 H 0.54115 0.64275 0.40673 0.0
H703 H 0.52143 0.61272 0.42323 0.0
C704 C 0.4332 0.59169 0.45532 0.0
C705 C 0.43659 0.58491 0.4766 0.0
C706 C 0.44607 0.58384 0.43868 0.0
C707 C 0.46244 0.56897 0.44298 0.0
C708 C 0.46518 0.56148 0.46406 0.0
C709 C 0.45233 0.56924 0.48066 0.0
C710 C 0.47835 0.56318 0.42622 0.0
C711 C 0.48954 0.57989 0.41607 0.0
C712 C 0.48459 0.54165 0.42241 0.0
C713 C 0.47244 0.52324 0.43147 0.0
C714 C 0.48317 0.50679 0.44262 0.0
C715 C 0.47169 0.48957 0.45126 0.0
C716 C 0.44945 0.48857 0.44883 0.0
C717 C 0.43865 0.50474 0.43767 0.0
C718 C 0.45006 0.52198 0.42897 0.0
C719 C 0.57565 0.55325 0.39838 0.0
C720 C 0.57928 0.53714 0.38305 0.0
C721 C 0.55485 0.55933 0.40373 0.0
C722 C 0.5372 0.54959 0.39373 0.0
C723 C 0.54074 0.534 0.37783 0.0
C724 C 0.56167 0.52789 0.37242 0.0
C725 C 0.5153 0.55444 0.40162 0.0
C726 C 0.50305 0.53758 0.41014 0.0
C727 C 0.50792 0.5758 0.40375 0.0
C728 C 0.51955 0.59411 0.39385 0.0
C729 C 0.5251 0.59365 0.37197 0.0
C730 C 0.5364 0.61071 0.36279 0.0
C731 C 0.54218 0.62839 0.37532 0.0
C732 C 0.53664 0.62906 0.39704 0.0
C733 C 0.52535 0.61204 0.4063 0.0
H734 H 0.55094 0.64158 0.36819 0.0
H735 H 0.44059 0.47524 0.45555 0.0
H736 H 0.07922 0.41312 0.07581 0.0
H737 H 0.0659 0.44866 0.08534 0.0
H738 H 0.10639 0.47716 0.03706 0.0
H739 H 0.11964 0.44138 0.02705 0.0
H740 H 0.10361 0.50061 0.07846 0.0
H741 H 0.05975 0.47113 0.02266 0.0
H742 H 0.03638 0.44577 0.00355 0.0
H743 H 0.99189 0.44653 0.05614 0.0
H744 H 0.01523 0.4717 0.07578 0.0
H745 H -0.00106 0.57381 0.0751 0.0
H746 H 0.02628 0.55107 0.05839 0.0
H747 H 0.05332 0.53799 0.12087 0.0
H748 H 0.02617 0.56111 0.13743 0.0
H749 H 0.02571 0.51052 0.06589 0.0
H750 H 0.10429 0.51818 0.11604 0.0
H751 H 0.1261 0.54667 0.13271 0.0
H752 H 0.10065 0.59272 0.08821 0.0
H753 H 0.07893 0.56448 0.07106 0.0
C754 C 0.08552 0.42691 0.06734 0.0
C755 C 0.10029 0.42441 0.05048 0.0
C756 C 0.07789 0.44722 0.07284 0.0
C757 C 0.08503 0.46545 0.06176 0.0
C758 C 0.10071 0.46323 0.04578 0.0
C759 C 0.10822 0.44281 0.04007 0.0
C760 C 0.07473 0.48643 0.06597 0.0
C761 C 0.0866 0.50293 0.07566 0.0
C762 C 0.05266 0.4895 0.06188 0.0
C763 C 0.03936 0.47317 0.05077 0.0
C764 C 0.04522 0.46556 0.03036 0.0
C765 C 0.03192 0.45123 0.01941 0.0
C766 C 0.01264 0.44451 0.02863 0.0
C767 C 0.0068 0.45179 0.049 0.0
C768 C 0.02007 0.46607 0.06006 0.0
C769 C 0.01111 0.56647 0.0851 0.0
C770 C 0.01036 0.56875 0.10747 0.0
C771 C 0.02676 0.5536 0.0756 0.0
C772 C 0.04181 0.5427 0.08837 0.0
C773 C 0.0421 0.54643 0.11063 0.0
C774 C 0.02654 0.55955 0.12011 0.0
C775 C 0.05432 0.5247 0.07907 0.0
C776 C 0.0428 0.50854 0.06849 0.0
C777 C 0.07666 0.52213 0.08228 0.0
C778 C 0.08985 0.5392 0.09236 0.0
C779 C 0.10342 0.53435 0.10973 0.0
C780 C 0.11576 0.55047 0.11929 0.0
C781 C 0.11472 0.5715 0.11156 0.0
C782 C 0.10138 0.57644 0.09423 0.0
C783 C 0.08902 0.56039 0.08461 0.0
H784 H 0.12428 0.58396 0.11899 0.0
H785 H 0.00209 0.43381 0.01996 0.0
H786 H 0.97589 0.46576 0.4076 0.0
H787 H 0.00497 0.48916 0.41934 0.0
H788 H 0.0499 0.43695 0.41334 0.0
H789 H 0.02087 0.4133 0.40099 0.0
H790 H 0.04631 0.46862 0.45604 0.0
H791 H 0.0609 0.46333 0.37977 0.0
H792 H 0.04995 0.4628 0.34173 0.0
H793 H 0.02385 0.52627 0.34799 0.0
H794 H 0.03431 0.52702 0.3862 0.0
H795 H 0.11981 0.55423 0.47989 0.0
H796 H 0.10622 0.52013 0.46551 0.0
H797 H 0.05775 0.55461 0.43002 0.0
H798 H 0.07167 0.58837 0.44348 0.0
H799 H 0.07208 0.52482 0.40589 0.0
H800 H 0.04326 0.52516 0.47948 0.0
H801 H 0.04519 0.52649 0.51894 0.0
H802 H 0.09235 0.47628 0.51879 0.0
H803 H 0.09002 0.47412 0.47921 0.0
C804 C 0.99189 0.45913 0.4089 0.0
C805 C 0.99608 0.43767 0.40328 0.0
C806 C 0.00848 0.47255 0.41553 0.0
C807 C 0.02948 0.46475 0.41698 0.0
C808 C 0.03373 0.4432 0.41216 0.0
C809 C 0.01716 0.42978 0.40512 0.0
C810 C 0.04676 0.4796 0.42332 0.0
C811 C 0.0526 0.48052 0.44499 0.0
C812 C 0.05428 0.49541 0.40895 0.0
C813 C 0.04826 0.49515 0.38589 0.0
C814 C 0.05266 0.4771 0.37309 0.0
C815 C 0.04657 0.47677 0.35148 0.0
C816 C 0.03617 0.49447 0.34246 0.0
C817 C 0.03189 0.51256 0.35501 0.0
C818 C 0.03793 0.51295 0.37663 0.0
C819 C 0.10642 0.55447 0.46882 0.0
C820 C 0.09677 0.57398 0.46288 0.0
C821 C 0.09855 0.53498 0.46075 0.0
C822 C 0.08079 0.53473 0.44683 0.0
C823 C 0.07152 0.55429 0.44062 0.0
C824 C 0.07946 0.57365 0.44845 0.0
C825 C 0.0712 0.51436 0.4389 0.0
C826 C 0.06666 0.51245 0.41687 0.0
C827 C 0.06443 0.4979 0.45302 0.0
C828 C 0.06671 0.49972 0.47653 0.0
C829 C 0.05415 0.51454 0.4879 0.0
C830 C 0.05525 0.51537 0.51027 0.0
C831 C 0.06911 0.50171 0.52141 0.0
C832 C 0.08171 0.48695 0.51015 0.0
C833 C 0.0804 0.4858 0.48776 0.0
H834 H 0.06996 0.50247 0.53875 0.0
H835 H 0.03145 0.49419 0.32573 0.0
H836 H 0.89034 0.9253 0.49609 0.0
H837 H 0.90496 0.9603 0.4867 0.0
H838 H 0.90261 0.94319 0.41948 0.0
H839 H 0.88984 0.90735 0.42923 0.0
H840 H 0.9382 0.95792 0.42559 0.0
H841 H 0.86996 0.98526 0.44572 0.0
H842 H 0.8378 0.99049 0.46813 0.0
H843 H 0.87651 0.01785 0.51813 0.0
H844 H 0.90896 0.01252 0.49615 0.0
H845 H 0.96891 0.06375 0.39457 0.0
H846 H 0.94056 0.03922 0.40613 0.0
H847 H 0.97746 0.02256 0.46222 0.0
H848 H 0.00616 0.04671 0.4506 0.0
H849 H 0.92144 0.02809 0.4594 0.0
H850 H 0.98973 0.98787 0.43825 0.0
H851 H 0.01989 0.9857 0.41264 0.0
H852 H 0.97558 0.98628 0.35984 0.0
H853 H 0.94522 0.98869 0.38521 0.0
C854 C 0.89241 0.92928 0.47928 0.0
C855 C 0.88888 0.9138 0.46332 0.0
C856 C 0.90068 0.94939 0.47387 0.0
C857 C 0.90472 0.95469 0.4523 0.0
C858 C 0.89979 0.93956 0.43625 0.0
C859 C 0.89232 0.91916 0.44175 0.0
C860 C 0.91639 0.9748 0.44671 0.0
C861 C 0.93409 0.97322 0.4328 0.0
C862 C 0.91142 0.995 0.45607 0.0
C863 C 0.89192 0.99835 0.46932 0.0
C864 C 0.87164 0.99227 0.46155 0.0
C865 C 0.85335 0.99527 0.47417 0.0
C866 C 0.85512 0.00446 0.49456 0.0
C867 C 0.87517 0.01073 0.50234 0.0
C868 C 0.89351 0.00775 0.48979 0.0
C869 C 0.97073 0.0554 0.40971 0.0
C870 C 0.98988 0.05691 0.42153 0.0
C871 C 0.95447 0.04147 0.41631 0.0
C872 C 0.95699 0.02922 0.43499 0.0
C873 C 0.97523 0.03208 0.44782 0.0
C874 C 0.99166 0.04573 0.44107 0.0
C875 C 0.94287 0.01065 0.4388 0.0
C876 C 0.92499 0.01263 0.45222 0.0
C877 C 0.94719 0.99091 0.42867 0.0
C878 C 0.96531 0.98851 0.41355 0.0
C879 C 0.98648 0.98753 0.42117 0.0
C880 C 0.00358 0.98629 0.40671 0.0
C881 C -0.00035 0.98588 0.38462 0.0
C882 C 0.9786 0.98661 0.37695 0.0
C883 C 0.96145 0.98788 0.39135 0.0
H884 H 0.01291 0.98499 0.37344 0.0
H885 H 0.84094 0.00677 0.50431 0.0
H886 H 0.38489 0.58364 0.56711 0.0
H887 H 0.39559 0.5479 0.5794 0.0
H888 H 0.39319 0.52478 0.51408 0.0
H889 H 0.38107 0.56013 0.50205 0.0
H890 H 0.38403 0.49303 0.53916 0.0
H891 H 0.44076 0.54506 0.5371 0.0
H892 H 0.45946 0.57898 0.54536 0.0
H893 H 0.45702 0.5644 0.61268 0.0
H894 H 0.43831 0.53039 0.60484 0.0
H895 H 0.48875 0.43558 0.55048 0.0
H896 H 0.45939 0.45928 0.53952 0.0
H897 H 0.42981 0.45145 0.60155 0.0
H898 H 0.45871 0.42716 0.61241 0.0
H899 H 0.45223 0.49648 0.58003 0.0
H900 H 0.39751 0.4404 0.578 0.0
H901 H 0.3829 0.40588 0.56535 0.0
H902 H 0.38622 0.42795 0.50013 0.0
H903 H 0.40119 0.4625 0.5124 0.0
C904 C 0.386 0.57069 0.55554 0.0
C905 C 0.38227 0.57453 0.53369 0.0
C906 C 0.39227 0.55035 0.5625 0.0
C907 C 0.39586 0.53381 0.54757 0.0
C908 C 0.39063 0.53727 0.52591 0.0
C909 C 0.3837 0.55747 0.51904 0.0
C910 C 0.40724 0.51392 0.5541 0.0
C911 C 0.39893 0.49381 0.54811 0.0
C912 C 0.42682 0.51483 0.56564 0.0
C913 C 0.43791 0.53534 0.57041 0.0
C914 C 0.44407 0.54918 0.55367 0.0
C915 C 0.45469 0.56839 0.55827 0.0
C916 C 0.45928 0.57391 0.57953 0.0
C917 C 0.45338 0.56015 0.59623 0.0
C918 C 0.44282 0.54088 0.59172 0.0
C919 C 0.47556 0.43827 0.56148 0.0
C920 C 0.47605 0.42968 0.58233 0.0
C921 C 0.45877 0.45168 0.55516 0.0
C922 C 0.44241 0.45688 0.56968 0.0
C923 C 0.4421 0.44723 0.59 0.0
C924 C 0.45865 0.43342 0.59619 0.0
C925 C 0.42886 0.47577 0.56538 0.0
C926 C 0.43705 0.49575 0.57152 0.0
C927 C 0.40963 0.47468 0.55349 0.0
C928 C 0.40075 0.45391 0.5461 0.0
C929 C 0.39541 0.43778 0.56095 0.0
C930 C 0.38698 0.41824 0.55385 0.0
C931 C 0.38371 0.41469 0.53194 0.0
C932 C 0.3888 0.4307 0.51709 0.0
C933 C 0.39724 0.45027 0.52411 0.0
H934 H 0.37717 0.39955 0.52648 0.0
H935 H 0.46749 0.5888 0.58305 0.0
H936 H 0.59126 0.5526 0.07346 0.0
H937 H 0.57628 0.58126 0.0511 0.0
H938 H 0.53705 0.53477 0.018 0.0
H939 H 0.5512 0.50647 0.04057 0.0
H940 H 0.58259 0.58522 0.01098 0.0
H941 H 0.49535 0.55422 0.99389 0.0
H942 H 0.4649 0.53958 0.0144 0.0
H943 H 0.48889 0.56905 0.0719 0.0
H944 H 0.51935 0.58412 0.05171 0.0
H945 H 0.5526 0.58747 0.90474 0.0
H946 H 0.56095 0.5813 0.94235 0.0
H947 H 0.51208 0.62667 0.96099 0.0
H948 H 0.50331 0.63267 0.92299 0.0
H949 H 0.50823 0.59074 0.9833 0.0
H950 H 0.56493 0.63855 0.97029 0.0
H951 H 0.59507 0.65509 0.95077 0.0
H952 H 0.63117 0.59667 0.95635 0.0
H953 H 0.60115 0.57965 0.97562 0.0
C954 C 0.57896 0.54861 0.06185 0.0
C955 C 0.57266 0.52716 0.05864 0.0
C956 C 0.57045 0.56501 0.04903 0.0
C957 C 0.55543 0.56028 0.03287 0.0
C958 C 0.54823 0.53906 0.0306 0.0
C959 C 0.55658 0.52275 0.04342 0.0
C960 C 0.54958 0.57646 0.0163 0.0
C961 C 0.56626 0.58673 0.00518 0.0
C962 C 0.52821 0.57909 0.00905 0.0
C963 C 0.50971 0.57029 0.02125 0.0
C964 C 0.49406 0.55775 0.01087 0.0
C965 C 0.47681 0.54932 0.02246 0.0
C966 C 0.47497 0.55337 0.04444 0.0
C967 C 0.49036 0.56589 0.05488 0.0
C968 C 0.50765 0.57435 0.04337 0.0
C969 C 0.54381 0.5964 0.91679 0.0
C970 C 0.52729 0.61053 0.91091 0.0
C971 C 0.54871 0.59298 0.93833 0.0
C972 C 0.53735 0.60374 0.95454 0.0
C973 C 0.52114 0.6183 0.94874 0.0
C974 C 0.51621 0.62176 0.92706 0.0
C975 C 0.54142 0.59808 0.97733 0.0
C976 C 0.52443 0.58981 0.98956 0.0
C977 C 0.56245 0.59764 0.98584 0.0
C978 C 0.58073 0.60782 0.97442 0.0
C979 C 0.57925 0.62919 0.96728 0.0
C980 C 0.59633 0.63865 0.95626 0.0
C981 C 0.61502 0.62694 0.95233 0.0
C982 C 0.61669 0.60574 0.95944 0.0
C983 C 0.59966 0.59619 0.97046 0.0
H984 H 0.62822 0.63429 0.94378 0.0
H985 H 0.46162 0.54683 0.05339 0.0
H986 H 0.41913 0.98099 0.07252 0.0
H987 H 0.43234 0.95146 0.04975 0.0
H988 H 0.39919 0.97864 0.99538 0.0
H989 H 0.38636 0.00815 0.01783 0.0
H990 H 0.39371 0.93273 0.00135 0.0
H991 H 0.44948 0.98829 0.99723 0.0
H992 H 0.47659 0.01234 0.01314 0.0
H993 H 0.5078 0.95834 0.04243 0.0
H994 H 0.48094 0.93393 0.0265 0.0
H995 H 0.43365 0.91146 0.9004 0.0
H996 H 0.42121 0.92437 0.93499 0.0
H997 H 0.47205 0.88965 0.96668 0.0
H998 H 0.48498 0.87687 0.93161 0.0
H999 H 0.47036 0.93051 0.98016 0.0
H1000 H 0.41961 0.87448 0.97426 0.0
H1001 H 0.39298 0.85112 0.95668 0.0
H1002 H 0.35155 0.90526 0.94674 0.0
H1003 H 0.37805 0.92902 0.96397 0.0
C1004 C 0.41463 0.9805 0.05573 0.0
C1005 C 0.40193 0.99684 0.04679 0.0
C1006 C 0.42218 0.96372 0.04279 0.0
C1007 C 0.4167 0.96294 0.02094 0.0
C1008 C 0.40352 0.97896 0.01223 0.0
C1009 C 0.39631 0.99583 0.025 0.0
C1010 C 0.4251 0.94597 0.00665 0.0
C1011 C 0.41047 0.93207 0.99674 0.0
C1012 C 0.44706 0.94472 0.0013 0.0
C1013 C 0.4631 0.95935 0.01092 0.0
C1014 C 0.46203 0.98158 0.0072 0.0
C1015 C 0.47736 0.99527 0.01618 0.0
C1016 C 0.49379 0.98691 0.02895 0.0
C1017 C 0.49502 0.96481 0.03261 0.0
C1018 C 0.4798 0.95103 0.02355 0.0
C1019 C 0.44201 0.90623 0.91472 0.0
C1020 C 0.4603 0.89318 0.9133 0.0
C1021 C 0.43477 0.91352 0.93455 0.0
C1022 C 0.44549 0.90775 0.9535 0.0
C1023 C 0.46345 0.89416 0.95226 0.0
C1024 C 0.47074 0.8868 0.93227 0.0
C1025 C 0.4388 0.91771 0.97408 0.0
C1026 C 0.45372 0.93042 0.98521 0.0
C1027 C 0.41705 0.91781 0.9806 0.0
C1028 C 0.40088 0.90355 0.97041 0.0
C1029 C 0.40487 0.88143 0.96824 0.0
C1030 C 0.38979 0.86812 0.95834 0.0
C1031 C 0.37059 0.8767 0.9506 0.0
C1032 C 0.36642 0.89862 0.95278 0.0
C1033 C 0.38145 0.91202 0.96266 0.0
H1034 H 0.35895 0.86636 0.94292 0.0
H1035 H 0.50561 0.99754 0.03591 0.0
H1036 H 0.51482 0.36302 0.55539 0.0
H1037 H 0.52286 0.37286 0.51802 0.0
H1038 H 0.57489 0.41282 0.53989 0.0
H1039 H 0.56715 0.40305 0.57696 0.0
H1040 H 0.54209 0.43406 0.51583 0.0
H1041 H 0.58738 0.37062 0.51431 0.0
H1042 H 0.5941 0.33172 0.51706 0.0
H1043 H 0.54945 0.32002 0.4659 0.0
H1044 H 0.54223 0.35887 0.46306 0.0
H1045 H 0.61722 0.45018 0.42586 0.0
H1046 H 0.60122 0.42276 0.44888 0.0
H1047 H 0.5387 0.45062 0.43859 0.0
H1048 H 0.55492 0.47884 0.41661 0.0
H1049 H 0.57052 0.3925 0.45409 0.0
H1050 H 0.51522 0.45768 0.48673 0.0
H1051 H 0.51021 0.49696 0.48521 0.0
H1052 H 0.57794 0.5056 0.47646 0.0
H1053 H 0.5834 0.46642 0.47849 0.0
C1054 C 0.52832 0.37344 0.55214 0.0
C1055 C 0.54022 0.38249 0.56908 0.0
C1056 C 0.53286 0.37905 0.53083 0.0
C1057 C 0.54933 0.39369 0.52631 0.0
C1058 C 0.56204 0.40158 0.54311 0.0
C1059 C 0.55759 0.39597 0.56428 0.0
C1060 C 0.55206 0.40293 0.50464 0.0
C1061 C 0.54803 0.4249 0.50223 0.0
C1062 C 0.55967 0.39092 0.48697 0.0
C1063 C 0.56405 0.36761 0.48866 0.0
C1064 C 0.57882 0.35974 0.5038 0.0
C1065 C 0.58277 0.3377 0.50534 0.0
C1066 C 0.57215 0.3234 0.49172 0.0
C1067 C 0.55763 0.33111 0.47648 0.0
C1068 C 0.55361 0.35313 0.47489 0.0
C1069 C 0.59997 0.44992 0.42784 0.0
C1070 C 0.5873 0.46675 0.41989 0.0
C1071 C 0.5908 0.4342 0.44095 0.0
C1072 C 0.56886 0.43503 0.44597 0.0
C1073 C 0.55575 0.44998 0.43532 0.0
C1074 C 0.56499 0.46606 0.42275 0.0
C1075 C 0.56099 0.42378 0.46543 0.0
C1076 C 0.56399 0.40151 0.46748 0.0
C1077 C 0.55261 0.43553 0.48303 0.0
C1078 C 0.54966 0.45915 0.48246 0.0
C1079 C 0.52904 0.46799 0.48459 0.0
C1080 C 0.52612 0.49022 0.48364 0.0
C1081 C 0.54372 0.50375 0.48058 0.0
C1082 C 0.56431 0.4951 0.47874 0.0
C1083 C 0.56734 0.47289 0.47986 0.0
H1084 H 0.5414 0.52095 0.47971 0.0
H1085 H 0.57523 0.30634 0.49293 0.0
H1086 H 0.49431 0.11026 0.55826 0.0
H1087 H 0.4847 0.09375 0.52384 0.0
H1088 H 0.42573 0.0705 0.55152 0.0
H1089 H 0.43526 0.08682 0.58589 0.0
H1090 H 0.47861 0.05081 0.51648 0.0
H1091 H 0.38722 0.06987 0.5135 0.0
H1092 H 0.36286 0.09959 0.52293 0.0
H1093 H 0.41461 0.14458 0.51671 0.0
H1094 H 0.43921 0.11519 0.50693 0.0
H1095 H 0.41883 0.97112 0.46568 0.0
H1096 H 0.43552 0.99816 0.48811 0.0
H1097 H 0.41907 0.0471 0.44193 0.0
H1098 H 0.40129 0.02005 0.41964 0.0
H1099 H 0.40878 0.06023 0.47951 0.0
H1100 H 0.4779 0.03479 0.4528 0.0
H1101 H 0.50473 0.00741 0.44263 0.0
H1102 H 0.49914 0.97826 0.50478 0.0
H1103 H 0.47276 0.0058 0.51552 0.0
C1104 C 0.4791 0.102 0.55686 0.0
C1105 C 0.46549 0.09985 0.57473 0.0
C1106 C 0.47371 0.09248 0.53724 0.0
C1107 C 0.45447 0.08101 0.5351 0.0
C1108 C 0.44054 0.07951 0.55274 0.0
C1109 C 0.44601 0.08881 0.57238 0.0
C1110 C 0.44943 0.06928 0.51502 0.0
C1111 C 0.46347 0.05305 0.50821 0.0
C1112 C 0.42988 0.07245 0.50397 0.0
C1113 C 0.4151 0.09027 0.50961 0.0
C1114 C 0.39338 0.08611 0.51402 0.0
C1115 C 0.37953 0.1029 0.51946 0.0
C1116 C 0.38719 0.12395 0.52046 0.0
C1117 C 0.40871 0.12826 0.51599 0.0
C1118 C 0.42262 0.11153 0.51053 0.0
C1119 C 0.41888 0.98758 0.46009 0.0
C1120 C 0.40858 0.99338 0.44086 0.0
C1121 C 0.42877 0.00305 0.47286 0.0
C1122 C 0.42906 0.02467 0.46653 0.0
C1123 C 0.41919 0.0305 0.4471 0.0
C1124 C 0.40899 0.01503 0.4344 0.0
C1125 C 0.43763 0.04124 0.4814 0.0
C1126 C 0.42418 0.05832 0.48737 0.0
C1127 C 0.45787 0.03908 0.49145 0.0
C1128 C 0.4734 0.02231 0.48493 0.0
C1129 C 0.48238 0.02251 0.46426 0.0
C1130 C 0.49753 0.007 0.45842 0.0
C1131 C 0.50347 0.991 0.47296 0.0
C1132 C 0.49447 0.99061 0.49349 0.0
C1133 C 0.47957 0.00626 0.49953 0.0
H1134 H 0.51509 0.97894 0.46833 0.0
H1135 H 0.37644 0.13692 0.52468 0.0
H1136 H 0.06732 0.55828 0.52576 0.0
H1137 H 0.04372 0.54307 0.55355 0.0
H1138 H 0.02614 0.60698 0.57339 0.0
H1139 H 0.05016 0.62208 0.54615 0.0
H1140 H 0.02314 0.57556 0.60727 0.0
H1141 H 0.00146 0.58725 0.53254 0.0
H1142 H 0.0052 0.58198 0.49348 0.0
H1143 H 0.99858 0.51388 0.50169 0.0
H1144 H 0.99535 0.51873 0.5409 0.0
H1145 H 0.90138 0.566 0.59369 0.0
H1146 H 0.93813 0.5751 0.58424 0.0
H1147 H 0.96157 0.52407 0.62469 0.0
H1148 H 0.92446 0.5146 0.63419 0.0
H1149 H 0.96461 0.54386 0.56355 0.0
H1150 H 0.01474 0.54628 0.64036 0.0
H1151 H 0.01029 0.55285 0.67919 0.0
H1152 H 0.9572 0.59481 0.66632 0.0
H1153 H 0.96153 0.58872 0.62744 0.0
C1154 C 0.05899 0.56892 0.53667 0.0
C1155 C 0.06015 0.59119 0.53385 0.0
C1156 C 0.04564 0.5603 0.55248 0.0
C1157 C 0.03287 0.57392 0.56511 0.0
C1158 C 0.03587 0.59621 0.56382 0.0
C1159 C 0.04949 0.60482 0.54822 0.0
C1160 C 0.01337 0.56548 0.57565 0.0
C1161 C 0.01044 0.56834 0.59782 0.0
C1162 C 0.99675 0.55621 0.56325 0.0
C1163 C 0.99848 0.55333 0.53966 0.0
C1164 C 0.00101 0.57114 0.52604 0.0
C1165 C 0.00302 0.56823 0.50387 0.0
C1166 C 0.00217 0.5476 0.49511 0.0
C1167 C -0.00076 0.52985 0.5085 0.0
C1168 C 0.99739 0.53266 0.5307 0.0
C1169 C 0.91431 0.55685 0.60085 0.0
C1170 C 0.91004 0.53942 0.61448 0.0
C1171 C 0.9353 0.5621 0.59543 0.0
C1172 C 0.95247 0.55016 0.60366 0.0
C1173 C 0.94845 0.53347 0.61824 0.0
C1174 C 0.9273 0.52811 0.62364 0.0
C1175 C 0.97419 0.55418 0.59512 0.0
C1176 C 0.97751 0.5505 0.57319 0.0
C1177 C 0.99095 0.56278 0.60774 0.0
C1178 C 0.98829 0.5668 0.63103 0.0
C1179 C 0.00215 0.55693 0.64584 0.0
C1180 C -0.00035 0.56058 0.66785 0.0
C1181 C 0.98341 0.57416 0.67522 0.0
C1182 C 0.9697 0.5842 0.6606 0.0
C1183 C 0.97214 0.58062 0.63857 0.0
H1184 H 0.9815 0.57696 0.69227 0.0
H1185 H 0.00375 0.54538 0.47795 0.0
H1186 H 0.95696 0.9232 0.50255 0.0
H1187 H 0.98181 0.93269 0.5311 0.0
H1188 H 0.95088 0.88756 0.57351 0.0
H1189 H 0.92612 0.8775 0.54472 0.0
H1190 H 0.98285 0.94734 0.57104 0.0
H1191 H 0.99149 0.86012 0.60011 0.0
H1192 H 0.9833 0.82339 0.58767 0.0
H1193 H 0.98892 0.84392 0.52212 0.0
H1194 H 0.99779 0.88057 0.53416 0.0
H1195 H 0.07351 0.95334 0.63847 0.0
H1196 H 0.03695 0.94298 0.62861 0.0
H1197 H 0.06205 0.90294 0.57792 0.0
H1198 H 0.09837 0.91202 0.58863 0.0
H1199 H 0.02824 0.88528 0.5918 0.0
H1200 H 0.04628 0.95904 0.57109 0.0
H1201 H 0.05693 0.99633 0.5792 0.0
H1202 H 0.00216 0.00366 0.62016 0.0
H1203 H 0.99118 0.96638 0.61241 0.0
C1204 C 0.95514 0.91552 0.51805 0.0
C1205 C 0.9399 0.89918 0.52118 0.0
C1206 C 0.96929 0.92111 0.53444 0.0
C1207 C 0.96848 0.91051 0.55429 0.0
C1208 C 0.95197 0.89568 0.55817 0.0
C1209 C 0.93781 0.89 0.54171 0.0
C1210 C 0.98662 0.91302 0.56945 0.0
C1211 C 0.99259 0.93375 0.57589 0.0
C1212 C -0.00047 0.89531 0.57551 0.0
C1213 C 0.99496 0.87315 0.56806 0.0
C1214 C 0.9911 0.85675 0.58305 0.0
C1215 C 0.98639 0.83594 0.57606 0.0
C1216 C 0.98556 0.83134 0.55411 0.0
C1217 C 0.98962 0.84749 0.53911 0.0
C1218 C 0.99451 0.86827 0.54601 0.0
C1219 C 0.07119 0.94192 0.62557 0.0
C1220 C 0.08879 0.93388 0.61399 0.0
C1221 C 0.05029 0.93613 0.61985 0.0
C1222 C 0.04667 0.9227 0.60207 0.0
C1223 C 0.06433 0.91345 0.59159 0.0
C1224 C 0.08517 0.9188 0.59763 0.0
C1225 C 0.02486 0.9197 0.5929 0.0
C1226 C 0.01817 0.89885 0.58757 0.0
C1227 C 0.01171 0.93737 0.58718 0.0
C1228 C 0.01807 0.95988 0.59141 0.0
C1229 C 0.03658 0.96858 0.58191 0.0
C1230 C 0.04272 0.98966 0.58649 0.0
C1231 C 0.0304 0.00226 0.60035 0.0
C1232 C 0.01177 0.99385 0.60953 0.0
C1233 C 0.00556 0.97276 0.60504 0.0
H1234 H 0.03517 0.0186 0.6038 0.0
H1235 H 0.9818 0.81525 0.54872 0.0
H1236 H 0.07427 0.40324 0.97075 0.0
H1237 H 0.05203 0.41714 0.94116 0.0
H1238 H 0.99587 0.41218 0.98113 0.0
H1239 H 0.01762 0.39767 0.01029 0.0
H1240 H 0.00499 0.39424 0.92685 0.0
H1241 H 0.98118 0.46992 0.97365 0.0
H1242 H 0.99689 0.49705 0.99784 0.0
H1243 H 0.05906 0.48584 0.97046 0.0
H1244 H 0.04366 0.45887 0.9459 0.0
H1245 H 0.90061 0.43295 0.91278 0.0
H1246 H 0.93591 0.41962 0.92307 0.0
H1247 H 0.96573 0.47222 0.88939 0.0
H1248 H 0.93025 0.48568 0.87895 0.0
H1249 H 0.97869 0.4693 0.9311 0.0
H1250 H 0.9742 0.42214 0.87145 0.0
H1251 H 0.95716 0.39608 0.84705 0.0
H1252 H 0.95147 0.35087 0.89875 0.0
H1253 H 0.96818 0.37676 0.92356 0.0
C1254 C 0.05715 0.40497 0.97311 0.0
C1255 C 0.04771 0.39978 0.99297 0.0
C1256 C 0.04455 0.41297 0.95628 0.0
C1257 C 0.02246 0.416 0.95923 0.0
C1258 C 0.01297 0.41021 0.97874 0.0
C1259 C 0.02543 0.40201 0.99539 0.0
C1260 C 0.00875 0.42496 0.94215 0.0
C1261 C -0.00055 0.41074 0.9274 0.0
C1262 C 0.00179 0.44651 0.94292 0.0
C1263 C 0.01129 0.46224 0.95807 0.0
C1264 C 0.9982 0.47327 0.97278 0.0
C1265 C 0.00703 0.48867 0.9865 0.0
C1266 C 0.02894 0.49325 0.98561 0.0
C1267 C 0.04208 0.48231 0.9711 0.0
C1268 C 0.03332 0.46689 0.95734 0.0
C1269 C 0.91469 0.44141 0.90715 0.0
C1270 C 0.91271 0.46036 0.89513 0.0
C1271 C 0.93487 0.43371 0.91293 0.0
C1272 C 0.95345 0.44484 0.90685 0.0
C1273 C 0.95158 0.46333 0.89411 0.0
C1274 C 0.93133 0.47095 0.88811 0.0
C1275 C 0.97438 0.43844 0.91611 0.0
C1276 C 0.98474 0.45302 0.92977 0.0
C1277 C 0.9823 0.41723 0.91429 0.0
C1278 C 0.97243 0.40145 0.89939 0.0
C1279 C 0.96922 0.40669 0.87766 0.0
C1280 C 0.95962 0.39193 0.86374 0.0
C1281 C 0.95323 0.37183 0.87135 0.0
C1282 C 0.95645 0.36644 0.89288 0.0
C1283 C 0.96603 0.38114 0.90687 0.0
H1284 H 0.94579 0.36044 0.86055 0.0
H1285 H 0.03576 0.50514 0.99627 0.0
H1286 H 0.10204 0.07674 0.92423 0.0
H1287 H 0.06814 0.08705 0.94079 0.0
H1288 H 0.03422 0.04353 0.89909 0.0
H1289 H 0.06835 0.03258 0.88266 0.0
H1290 H 0.01568 0.0892 0.90663 0.0
H1291 H 0.03917 0.02445 0.94305 0.0
H1292 H 0.06345 0.00052 0.96322 0.0
H1293 H 0.07142 0.04884 0.0117 0.0
H1294 H 0.04746 0.07315 0.99173 0.0
H1295 H 0.92323 0.10228 0.97731 0.0
H1296 H 0.94984 0.08841 0.95159 0.0
H1297 H 0.00074 0.10694 0.99477 0.0
H1298 H 0.97448 0.12001 0.02043 0.0
H1299 H 0.00658 0.06791 0.9828 0.0
H1300 H 0.98839 0.13425 0.94673 0.0
H1301 H 0.96407 0.15998 0.92905 0.0
H1302 H 0.94772 0.11257 0.88176 0.0
H1303 H 0.97177 0.08646 0.89934 0.0
C1304 C 0.08741 0.06944 0.9184 0.0
C1305 C 0.08792 0.05365 0.90229 0.0
C1306 C 0.06805 0.07537 0.92789 0.0
C1307 C 0.04878 0.0659 0.92126 0.0
C1308 C 0.04899 0.05097 0.90441 0.0
C1309 C 0.06847 0.04475 0.89508 0.0
C1310 C 0.02876 0.07098 0.93292 0.0
C1311 C 0.01341 0.08427 0.92318 0.0
C1312 C 0.0261 0.06482 0.95457 0.0
C1313 C 0.04161 0.05066 0.96581 0.0
C1314 C 0.04637 0.0301 0.95783 0.0
C1315 C 0.06001 0.01643 0.96928 0.0
C1316 C 0.0689 0.02317 0.98875 0.0
C1317 C 0.06447 0.04365 0.99665 0.0
C1318 C 0.05087 0.05736 0.98528 0.0
C1319 C 0.94014 0.10348 0.98111 0.0
C1320 C 0.94683 0.11189 0.00096 0.0
C1321 C 0.95531 0.09563 0.96642 0.0
C1322 C 0.97733 0.09655 0.97127 0.0
C1323 C 0.98388 0.10577 0.99075 0.0
C1324 C 0.96883 0.11323 0.00544 0.0
C1325 C 0.99386 0.08704 0.95695 0.0
C1326 C 0.00857 0.0727 0.96617 0.0
C1327 C 0.99611 0.09267 0.93504 0.0
C1328 C 0.98164 0.10832 0.92451 0.0
C1329 C 0.97946 0.12925 0.93268 0.0
C1330 C 0.96576 0.14392 0.92265 0.0
C1331 C 0.9543 0.13789 0.90434 0.0
C1332 C 0.95657 0.1172 0.89598 0.0
C1333 C 0.97023 0.10246 0.90596 0.0
H1334 H 0.9437 0.14927 0.89659 0.0
H1335 H 0.07909 0.01252 0.99786 0.0
H1336 H 0.5403 0.07221 0.5888 0.0
H1337 H 0.56873 0.0471 0.57749 0.0
H1338 H 0.53369 0.99468 0.60601 0.0
H1339 H 0.50518 0.01934 0.61658 0.0
H1340 H 0.58004 0.99567 0.61456 0.0
H1341 H 0.52659 0.00304 0.55813 0.0
H1342 H 0.50636 0.02421 0.53173 0.0
H1343 H 0.56471 0.03963 0.49862 0.0
H1344 H 0.58553 0.01958 0.52574 0.0
H1345 H 0.59169 0.89366 0.57125 0.0
H1346 H 0.5818 0.92893 0.58487 0.0
H1347 H 0.62217 0.95894 0.53731 0.0
H1348 H 0.63197 0.92346 0.52333 0.0
H1349 H 0.58269 0.97611 0.53737 0.0
H1350 H 0.63557 0.96267 0.59006 0.0
H1351 H 0.65573 0.94198 0.6171 0.0
H1352 H 0.59926 0.9372 0.6562 0.0
H1353 H 0.57865 0.95757 0.62926 0.0
C1354 C 0.53886 0.05534 0.59273 0.0
C1355 C 0.52054 0.04759 0.60332 0.0
C1356 C 0.55504 0.0411 0.58634 0.0
C1357 C 0.55324 0.01912 0.59101 0.0
C1358 C 0.53538 0.01161 0.60239 0.0
C1359 C 0.51905 0.02566 0.60823 0.0
C1360 C 0.56886 0.00333 0.5828 0.0
C1361 C 0.58082 0.99143 0.59768 0.0
C1362 C 0.57022 0.99832 0.56069 0.0
C1363 C 0.55768 0.01018 0.54426 0.0
C1364 C 0.53519 0.01126 0.54547 0.0
C1365 C 0.52359 0.02303 0.53033 0.0
C1366 C 0.5342 0.03321 0.51342 0.0
C1367 C 0.5565 0.03177 0.51175 0.0
C1368 C 0.56823 0.02034 0.52711 0.0
C1369 C 0.59877 0.90773 0.56391 0.0
C1370 C 0.61255 0.90581 0.5462 0.0
C1371 C 0.5932 0.92791 0.57179 0.0
C1372 C 0.60142 0.94659 0.56224 0.0
C1373 C 0.61574 0.94472 0.54496 0.0
C1374 C 0.62137 0.92446 0.53707 0.0
C1375 C 0.59335 0.96784 0.56926 0.0
C1376 C 0.58268 0.98075 0.55416 0.0
C1377 C 0.59321 0.9738 0.59119 0.0
C1378 C 0.60554 0.96163 0.60757 0.0
C1379 C 0.62741 0.95711 0.60436 0.0
C1380 C 0.63892 0.94544 0.61969 0.0
C1381 C 0.62878 0.93827 0.63835 0.0
C1382 C 0.6071 0.94278 0.64174 0.0
C1383 C 0.5955 0.95443 0.62647 0.0
H1384 H 0.63772 0.92923 0.65019 0.0
H1385 H 0.52513 0.04216 0.5016 0.0
H1386 H 0.61663 0.09597 0.89652 0.0
H1387 H 0.60609 0.05942 0.88666 0.0
H1388 H 0.60548 0.04166 0.95369 0.0
H1389 H 0.61758 0.07767 0.96333 0.0
H1390 H 0.61564 0.00835 0.93273 0.0
H1391 H 0.55989 0.06067 0.92506 0.0
H1392 H 0.54211 0.0934 0.9117 0.0
H1393 H 0.54643 0.06982 0.84705 0.0
H1394 H 0.56457 0.0371 0.85999 0.0
H1395 H 0.51258 0.94928 0.92495 0.0
H1396 H 0.54126 0.97487 0.93309 0.0
H1397 H 0.57215 0.95941 0.87316 0.0
H1398 H 0.54391 0.93321 0.86523 0.0
H1399 H 0.5501 0.00679 0.88763 0.0
H1400 H 0.60361 0.95108 0.90003 0.0
H1401 H 0.61696 0.91835 0.91783 0.0
H1402 H 0.61081 0.94887 0.97935 0.0
H1403 H 0.59709 0.98168 0.9619 0.0
C1404 C 0.61485 0.08401 0.90902 0.0
C1405 C 0.61785 0.08953 0.93063 0.0
C1406 C 0.60866 0.0632 0.90343 0.0
C1407 C 0.60433 0.04791 0.91947 0.0
C1408 C 0.60864 0.05312 0.941 0.0
C1409 C 0.61556 0.07371 0.94651 0.0
C1410 C 0.59344 0.02735 0.91413 0.0
C1411 C 0.60132 0.00806 0.92285 0.0
C1412 C 0.57465 0.02683 0.90129 0.0
C1413 C 0.56389 0.04659 0.89346 0.0
C1414 C 0.55724 0.06256 0.90797 0.0
C1415 C 0.54708 0.08111 0.90048 0.0
C1416 C 0.54324 0.08374 0.87853 0.0
C1417 C 0.5495 0.06781 0.86403 0.0
C1418 C 0.55974 0.04927 0.87143 0.0
C1419 C 0.52592 0.95076 0.91391 0.0
C1420 C 0.52606 0.93934 0.89446 0.0
C1421 C 0.54229 0.96529 0.9186 0.0
C1422 C 0.55883 0.96882 0.90379 0.0
C1423 C 0.55968 0.95657 0.88493 0.0
C1424 C 0.54357 0.94163 0.88045 0.0
C1425 C 0.57239 0.98806 0.90612 0.0
C1426 C 0.56474 0.00713 0.89706 0.0
C1427 C 0.59086 0.98843 0.91918 0.0
C1428 C 0.59908 0.96873 0.92967 0.0
C1429 C 0.60485 0.95072 0.91736 0.0
C1430 C 0.61255 0.93218 0.92739 0.0
C1431 C 0.61466 0.9315 0.94971 0.0
C1432 C 0.60913 0.9494 0.96206 0.0
C1433 C 0.60141 0.96797 0.95211 0.0
H1434 H 0.62064 0.91714 0.95744 0.0
H1435 H 0.53534 0.0981 0.87277 0.0
H1436 H 0.45298 0.55182 0.86381 0.0
H1437 H 0.42468 0.52954 0.87896 0.0
H1438 H 0.43405 0.5597 0.94076 0.0
H1439 H 0.46366 0.58069 0.92577 0.0
H1440 H 0.43774 0.52128 0.94636 0.0
H1441 H 0.38317 0.55939 0.91094 0.0
H1442 H 0.36429 0.5782 0.8817 0.0
H1443 H 0.36172 0.51978 0.84523 0.0
H1444 H 0.38087 0.50066 0.87408 0.0
H1445 H 0.37284 0.4338 0.98399 0.0
H1446 H 0.38071 0.47137 0.97482 0.0
H1447 H 0.3973 0.45212 0.91041 0.0
H1448 H 0.38989 0.41471 0.91956 0.0
H1449 H 0.37276 0.49069 0.91238 0.0
H1450 H 0.43539 0.45698 0.94635 0.0
H1451 H 0.45804 0.44159 0.97498 0.0
H1452 H 0.44452 0.49578 0.01537 0.0
H1453 H 0.42157 0.51134 0.98712 0.0
C1454 C 0.4484 0.55418 0.88042 0.0
C1455 C 0.46034 0.56785 0.8937 0.0
C1456 C 0.43207 0.54155 0.88911 0.0
C1457 C 0.42701 0.54287 0.9111 0.0
C1458 C 0.43766 0.55821 0.92381 0.0
C1459 C 0.45449 0.5703 0.91527 0.0
C1460 C 0.41409 0.5256 0.92144 0.0
C1461 C 0.42305 0.51517 0.93931 0.0
C1462 C 0.3951 0.5172 0.91219 0.0
C1463 C 0.38355 0.52859 0.8947 0.0
C1464 C 0.37872 0.55057 0.89663 0.0
C1465 C 0.36794 0.56129 0.88012 0.0
C1466 C 0.36182 0.5502 0.86161 0.0
C1467 C 0.36645 0.52835 0.85958 0.0
C1468 C 0.37723 0.51755 0.87604 0.0
C1469 C 0.37776 0.4377 0.96778 0.0
C1470 C 0.38078 0.42141 0.95245 0.0
C1471 C 0.38232 0.45911 0.9626 0.0
C1472 C 0.3896 0.46447 0.94195 0.0
C1473 C 0.39159 0.44832 0.9264 0.0
C1474 C 0.38743 0.42697 0.93166 0.0
C1475 C 0.39689 0.48648 0.93671 0.0
C1476 C 0.38691 0.49757 0.9198 0.0
C1477 C 0.41476 0.4958 0.94704 0.0
C1478 C 0.42649 0.48515 0.96476 0.0
C1479 C 0.43686 0.46537 0.96151 0.0
C1480 C 0.4499 0.45672 0.97759 0.0
C1481 C 0.45277 0.46778 0.9969 0.0
C1482 C 0.44228 0.48726 0.00038 0.0
C1483 C 0.42923 0.49597 0.98438 0.0
H1484 H 0.46321 0.46138 0.00916 0.0
H1485 H 0.35348 0.55853 0.84885 0.0
H1486 H 0.89661 0.09534 0.08342 0.0
H1487 H 0.91093 0.06037 0.09386 0.0
H1488 H 0.89854 0.03612 0.03014 0.0
H1489 H 0.88337 0.07093 0.01988 0.0
H1490 H 0.89249 0.00496 0.05826 0.0
H1491 H 0.94948 0.05388 0.04348 0.0
H1492 H 0.97052 0.0873 0.04558 0.0
H1493 H 0.97814 0.07876 0.11354 0.0
H1494 H 0.95732 0.04511 0.11182 0.0
H1495 H 0.99357 0.93902 0.0665 0.0
H1496 H 0.96577 0.96428 0.05448 0.0
H1497 H 0.94269 0.96972 0.11947 0.0
H1498 H 0.97002 0.94411 0.13145 0.0
H1499 H 0.96579 0.00853 0.08906 0.0
H1500 H 0.90776 0.95621 0.10025 0.0
H1501 H 0.89033 0.92141 0.09318 0.0
H1502 H 0.88814 0.9358 0.02579 0.0
H1503 H 0.90588 0.97057 0.03246 0.0
C1504 C 0.89654 0.08241 0.07178 0.0
C1505 C 0.88903 0.08585 0.05082 0.0
C1506 C 0.90484 0.06248 0.0777 0.0
C1507 C 0.90633 0.04578 0.06262 0.0
C1508 C 0.89765 0.04879 0.04203 0.0
C1509 C 0.88899 0.06868 0.03619 0.0
C1510 C 0.9183 0.02587 0.06797 0.0
C1511 C 0.90853 0.00577 0.06492 0.0
C1512 C 0.93939 0.02679 0.07637 0.0
C1513 C 0.95167 0.04713 0.07756 0.0
C1514 C 0.95552 0.05922 0.0589 0.0
C1515 C 0.96744 0.07817 0.06001 0.0
C1516 C 0.97551 0.08526 0.0797 0.0
C1517 C 0.97182 0.07329 0.09831 0.0
C1518 C 0.96005 0.05422 0.09727 0.0
C1519 C 0.98207 0.9451 0.07803 0.0
C1520 C 0.98393 0.93985 0.09987 0.0
C1521 C 0.96619 0.95938 0.07116 0.0
C1522 C 0.95218 0.96869 0.0861 0.0
C1523 C 0.95317 0.9624 0.10769 0.0
C1524 C 0.96876 0.9478 0.11449 0.0
C1525 C 0.93969 0.98785 0.08006 0.0
C1526 C 0.9496 0.00782 0.08268 0.0
C1527 C 0.91908 0.98668 0.07079 0.0
C1528 C 0.90841 0.96584 0.06682 0.0
C1529 C 0.90382 0.95183 0.0839 0.0
C1530 C 0.89381 0.93214 0.07997 0.0
C1531 C 0.8882 0.92635 0.05903 0.0
C1532 C 0.89253 0.94028 0.04199 0.0
C1533 C 0.90255 0.95998 0.04584 0.0
H1534 H 0.88045 0.91111 0.05602 0.0
H1535 H 0.98469 0.09997 0.08051 0.0
H1536 H 0.03659 0.15324 0.32749 0.0
H1537 H 0.03043 0.19052 0.31647 0.0
H1538 H 0.97808 0.19489 0.36172 0.0
H1539 H 0.98292 0.15728 0.37096 0.0
H1540 H 0.96812 0.21872 0.333 0.0
H1541 H 0.03493 0.21184 0.37122 0.0
H1542 H 0.07148 0.19827 0.37802 0.0
H1543 H 0.09246 0.22369 0.31748 0.0
H1544 H 0.05595 0.23721 0.31024 0.0
H1545 H 0.01245 0.3303 0.36604 0.0
H1546 H 0.01913 0.29226 0.35987 0.0
H1547 H 0.97173 0.29216 0.30925 0.0
H1548 H 0.96355 0.32984 0.31709 0.0
H1549 H 0.03202 0.26598 0.33431 0.0
H1550 H 0.94657 0.24538 0.30475 0.0
H1551 H 0.90959 0.25925 0.30755 0.0
H1552 H 0.92505 0.28939 0.36759 0.0
H1553 H 0.96202 0.2755 0.36525 0.0
C1554 C 0.02341 0.1621 0.33456 0.0
C1555 C 0.0102 0.15245 0.35003 0.0
C1556 C 0.02006 0.18351 0.3285 0.0
C1557 C 0.00421 0.19597 0.33872 0.0
C1558 C 0.99043 0.18586 0.35347 0.0
C1559 C 0.9932 0.16428 0.35881 0.0
C1560 C 0.00259 0.21969 0.33528 0.0
C1561 C 0.98216 0.22899 0.33325 0.0
C1562 C 0.02076 0.23339 0.3358 0.0
C1563 C 0.04269 0.22527 0.34007 0.0
C1564 C 0.04732 0.21441 0.35931 0.0
C1565 C 0.06802 0.20674 0.36325 0.0
C1566 C 0.08426 0.21005 0.34815 0.0
C1567 C 0.07985 0.22109 0.32913 0.0
C1568 C 0.05917 0.22876 0.3251 0.0
C1569 C 0.00374 0.32221 0.35334 0.0
C1570 C 0.9874 0.33286 0.34213 0.0
C1571 C 0.00756 0.3004 0.34977 0.0
C1572 C 0.99552 0.28893 0.33447 0.0
C1573 C 0.98066 0.30026 0.32176 0.0
C1574 C 0.97619 0.32188 0.326 0.0
C1575 C 0.99749 0.26503 0.33321 0.0
C1576 C 0.01799 0.2557 0.33397 0.0
C1577 C 0.97931 0.25134 0.33305 0.0
C1578 C 0.9571 0.25965 0.33466 0.0
C1579 C 0.94204 0.25494 0.31855 0.0
C1580 C 0.9211 0.2628 0.32006 0.0
C1581 C 0.915 0.27527 0.33769 0.0
C1582 C 0.92981 0.27981 0.35391 0.0
C1583 C 0.95076 0.27196 0.35249 0.0
H1584 H 0.89879 0.28136 0.33882 0.0
H1585 H 0.10028 0.20411 0.35123 0.0
H1586 H 0.94962 0.67128 0.18252 0.0
H1587 H 0.95492 0.70938 0.19005 0.0
H1588 H 0.02292 0.70204 0.17996 0.0
H1589 H 0.01779 0.66376 0.17271 0.0
H1590 H 0.01376 0.73247 0.21147 0.0
H1591 H 0.99205 0.71587 0.13882 0.0
H1592 H 0.96854 0.69964 0.11143 0.0
H1593 H 0.9155 0.73712 0.13439 0.0
H1594 H 0.93865 0.75333 0.16215 0.0
H1595 H 0.04452 0.83337 0.16813 0.0
H1596 H 0.03716 0.79637 0.1785 0.0
H1597 H 0.9695 0.81053 0.18135 0.0
H1598 H 0.97675 0.84755 0.17044 0.0
H1599 H 0.97608 0.77701 0.15725 0.0
H1600 H -0.00052 0.79742 0.22714 0.0
H1601 H 0.0234 0.81357 0.25419 0.0
H1602 H 0.07348 0.76969 0.23655 0.0
H1603 H 0.04997 0.75346 0.20916 0.0
C1604 C 0.96578 0.67762 0.18245 0.0
C1605 C 0.98326 0.66456 0.17671 0.0
C1606 C 0.96878 0.69944 0.18672 0.0
C1607 C 0.98926 0.70864 0.18511 0.0
C1608 C 0.00697 0.69529 0.1812 0.0
C1609 C 0.004 0.6734 0.17703 0.0
C1610 C 0.99182 0.73236 0.18481 0.0
C1611 C 0.00562 0.74226 0.19959 0.0
C1612 C 0.98088 0.74516 0.16955 0.0
C1613 C 0.96701 0.73562 0.1527 0.0
C1614 C 0.97534 0.72054 0.13812 0.0
C1615 C 0.96209 0.71136 0.12252 0.0
C1616 C 0.94052 0.7173 0.12121 0.0
C1617 C 0.93219 0.7325 0.13546 0.0
C1618 C 0.94537 0.74169 0.15112 0.0
C1619 C 0.0281 0.82876 0.17142 0.0
C1620 C 0.0112 0.84339 0.16832 0.0
C1621 C 0.02392 0.80757 0.17748 0.0
C1622 C 0.00277 0.8006 0.18083 0.0
C1623 C 0.98596 0.8155 0.17884 0.0
C1624 C 0.99012 0.83669 0.17266 0.0
C1625 C 0.99807 0.77737 0.18395 0.0
C1626 C 0.98395 0.76743 0.16948 0.0
C1627 C 0.00879 0.76464 0.19948 0.0
C1628 C 0.02298 0.77432 0.21597 0.0
C1629 C 0.01564 0.79131 0.22891 0.0
C1630 C 0.02912 0.80046 0.24432 0.0
C1631 C 0.04996 0.79269 0.24706 0.0
C1632 C 0.05734 0.7757 0.23441 0.0
C1633 C 0.04393 0.7665 0.21895 0.0
H1634 H 0.06037 0.7998 0.259 0.0
H1635 H 0.93029 0.71018 0.10913 0.0
H1636 H 0.32827 0.03892 0.15863 0.0
H1637 H 0.3191 0.03212 0.19626 0.0
H1638 H 0.36831 0.98335 0.19918 0.0
H1639 H 0.37588 0.98878 0.16113 0.0
H1640 H 0.34044 0.9709 0.22321 0.0
H1641 H 0.37381 0.04005 0.21713 0.0
H1642 H 0.37833 0.07714 0.20405 0.0
H1643 H 0.31684 0.09418 0.22996 0.0
H1644 H 0.31187 0.0571 0.24299 0.0
H1645 H 0.36666 0.01472 0.33672 0.0
H1646 H 0.36184 0.02191 0.29856 0.0
H1647 H 0.31328 0.97258 0.29538 0.0
H1648 H 0.31961 0.96411 0.33326 0.0
H1649 H 0.33647 0.03419 0.27131 0.0
H1650 H 0.313 0.94726 0.24834 0.0
H1651 H 0.31744 0.91032 0.262 0.0
H1652 H 0.37484 0.9291 0.29513 0.0
H1653 H 0.37086 0.96605 0.28147 0.0
C1654 C 0.33674 0.02645 0.1673 0.0
C1655 C 0.35275 0.01435 0.1571 0.0
C1656 C 0.33171 0.02273 0.18888 0.0
C1657 C 0.34342 0.00765 0.20096 0.0
C1658 C 0.35894 0.99508 0.19041 0.0
C1659 C 0.36333 0.99819 0.16863 0.0
C1660 C 0.34033 0.00547 0.22467 0.0
C1661 C 0.33954 0.9848 0.23366 0.0
C1662 C 0.33943 0.02348 0.2386 0.0
C1663 C 0.34236 0.04576 0.2308 0.0
C1664 C 0.3612 0.05168 0.21991 0.0
C1665 C 0.36385 0.0727 0.21252 0.0
C1666 C 0.34785 0.08799 0.21611 0.0
C1667 C 0.3292 0.08231 0.22715 0.0
C1668 C 0.32646 0.0613 0.23455 0.0
C1669 C 0.35465 0.00571 0.32795 0.0
C1670 C 0.34363 0.98875 0.33783 0.0
C1671 C 0.35189 0.00981 0.30607 0.0
C1672 C 0.33762 0.99739 0.29374 0.0
C1673 C 0.32499 0.98188 0.30422 0.0
C1674 C 0.32838 0.97721 0.32594 0.0
C1675 C 0.33738 -0.00036 0.26985 0.0
C1676 C 0.33727 0.02031 0.26082 0.0
C1677 C 0.33884 0.98165 0.25596 0.0
C1678 C 0.34145 0.95944 0.26412 0.0
C1679 C 0.32658 0.94347 0.25851 0.0
C1680 C 0.32902 0.92254 0.26625 0.0
C1681 C 0.34636 0.91739 0.27949 0.0
C1682 C 0.36136 0.93312 0.28494 0.0
C1683 C 0.35902 0.95406 0.27721 0.0
H1684 H 0.3482 0.90119 0.28549 0.0
H1685 H 0.34993 0.10425 0.21038 0.0
H1686 H 0.63374 0.54076 0.15677 0.0
H1687 H 0.64422 0.54497 0.19448 0.0
H1688 H 0.67647 0.48378 0.19247 0.0
H1689 H 0.66583 0.47933 0.15495 0.0
H1690 H 0.62986 0.51569 0.22527 0.0
H1691 H 0.71784 0.48596 0.23037 0.0
H1692 H 0.75104 0.48753 0.20893 0.0
H1693 H 0.72943 0.54572 0.17899 0.0
H1694 H 0.69625 0.54468 0.20046 0.0
H1695 H 0.65165 0.47322 0.32638 0.0
H1696 H 0.65754 0.4756 0.28765 0.0
H1697 H 0.68025 0.54052 0.29485 0.0
H1698 H 0.67399 0.53846 0.33363 0.0
H1699 H 0.70145 0.51137 0.25989 0.0
H1700 H 0.63398 0.54135 0.28611 0.0
H1701 H 0.60125 0.53928 0.30824 0.0
H1702 H 0.58191 0.48224 0.27474 0.0
H1703 H 0.61478 0.48375 0.25271 0.0
C1704 C 0.64359 0.5285 0.16418 0.0
C1705 C 0.64887 0.50966 0.15296 0.0
C1706 C 0.64947 0.53088 0.18575 0.0
C1707 C 0.66108 0.51467 0.19627 0.0
C1708 C 0.66765 0.49655 0.18463 0.0
C1709 C 0.66151 0.49402 0.1632 0.0
C1710 C 0.66399 0.51531 0.21991 0.0
C1711 C 0.64554 0.51498 0.23278 0.0
C1712 C 0.68445 0.51422 0.22974 0.0
C1713 C 0.70446 0.51512 0.21691 0.0
C1714 C 0.72021 0.49914 0.21928 0.0
C1715 C 0.73902 0.49993 0.20711 0.0
C1716 C 0.74232 0.51668 0.19256 0.0
C1717 C 0.72683 0.53271 0.1902 0.0
C1718 C 0.70799 0.532 0.20234 0.0
C1719 C 0.65861 0.48775 0.31987 0.0
C1720 C 0.66214 0.50574 0.33302 0.0
C1721 C 0.66195 0.48908 0.29772 0.0
C1722 C 0.66917 0.50828 0.28844 0.0
C1723 C 0.67474 0.52555 0.30176 0.0
C1724 C 0.67108 0.52435 0.32389 0.0
C1725 C 0.66734 0.51146 0.26496 0.0
C1726 C 0.68586 0.51234 0.25224 0.0
C1727 C 0.64697 0.51312 0.25514 0.0
C1728 C 0.62692 0.51255 0.26793 0.0
C1729 C 0.62282 0.52828 0.28358 0.0
C1730 C 0.60425 0.52722 0.29609 0.0
C1731 C 0.58953 0.51061 0.29293 0.0
C1732 C 0.59334 0.49508 0.27719 0.0
C1733 C 0.61193 0.49603 0.26469 0.0
H1734 H 0.57517 0.50981 0.30264 0.0
H1735 H 0.75689 0.51726 0.18315 0.0
H1736 H 0.33633 0.34029 0.01622 0.0
H1737 H 0.29813 0.33438 0.02292 0.0
H1738 H 0.28768 0.32366 0.95539 0.0
H1739 H 0.32584 0.33013 0.94839 0.0
H1740 H 0.26676 0.36375 0.99415 0.0
H1741 H 0.24437 0.27999 0.96446 0.0
H1742 H 0.2603 0.2439 0.9609 0.0
H1743 H 0.30069 0.25602 0.01541 0.0
H1744 H 0.28476 0.29201 0.01948 0.0
H1745 H 0.15447 0.35534 0.97786 0.0
H1746 H 0.19209 0.34664 0.97045 0.0
H1747 H 0.19953 0.32299 0.03505 0.0
H1748 H 0.1621 0.33217 0.04278 0.0
H1749 H 0.22188 0.29807 0.99807 0.0
H1750 H 0.21352 0.36853 0.0322 0.0
H1751 H 0.19721 0.40452 0.03467 0.0
H1752 H 0.21913 0.41919 0.97098 0.0
H1753 H 0.23525 0.38312 0.96803 0.0
C1754 C 0.32606 0.33606 0.00285 0.0
C1755 C 0.33409 0.33578 0.98175 0.0
C1756 C 0.30423 0.33276 0.00672 0.0
C1757 C 0.29018 0.32857 0.98965 0.0
C1758 C 0.29836 0.32672 0.96877 0.0
C1759 C 0.32014 0.33041 0.96482 0.0
C1760 C 0.26674 0.3292 0.99325 0.0
C1761 C 0.25697 0.34938 0.99502 0.0
C1762 C 0.25402 0.31046 0.99422 0.0
C1763 C 0.26359 0.2888 0.99207 0.0
C1764 C 0.25663 0.27493 0.9757 0.0
C1765 C 0.26565 0.25449 0.9736 0.0
C1766 C 0.28157 0.24771 0.98786 0.0
C1767 C 0.28844 0.26133 0.0043 0.0
C1768 C 0.27947 0.28178 0.00647 0.0
C1769 C 0.16397 0.34782 0.99033 0.0
C1770 C 0.15541 0.34455 0.01095 0.0
C1771 C 0.18543 0.34285 0.98607 0.0
C1772 C 0.19852 0.33419 0.00222 0.0
C1773 C 0.18962 0.32955 0.02236 0.0
C1774 C 0.16829 0.3349 0.02677 0.0
C1775 C 0.222 0.33263 0.99904 0.0
C1776 C 0.23173 0.31239 0.99719 0.0
C1777 C 0.23479 0.35132 0.99792 0.0
C1778 C 0.22536 0.37308 -0.00019 0.0
C1779 C 0.21468 0.37937 0.01866 0.0
C1780 C 0.20551 0.39979 0.02016 0.0
C1781 C 0.20708 0.41412 0.00297 0.0
C1782 C 0.21789 0.40807 0.98427 0.0
C1783 C 0.22705 0.38765 0.98268 0.0
H1784 H 0.19997 0.42992 0.00416 0.0
H1785 H 0.28853 0.23188 0.98621 0.0
H1786 H 0.15611 0.67356 0.47174 0.0
H1787 H 0.19392 0.68425 0.47153 0.0
H1788 H 0.2074 0.63631 0.51985 0.0
H1789 H 0.16942 0.62726 0.52145 0.0
H1790 H 0.23194 0.66539 0.52739 0.0
H1791 H 0.21479 0.63007 0.46083 0.0
H1792 H 0.19548 0.62458 0.42669 0.0
H1793 H 0.21626 0.68644 0.40456 0.0
H1794 H 0.23551 0.69237 0.43869 0.0
H1795 H 0.33471 0.63468 0.46685 0.0
H1796 H 0.29642 0.64203 0.46462 0.0
H1797 H 0.30313 0.69169 0.51258 0.0
H1798 H 0.3412 0.68273 0.51626 0.0
H1799 H 0.26814 0.6681 0.45657 0.0
H1800 H 0.26142 0.6937 0.5455 0.0
H1801 H 0.2813 0.68976 0.57957 0.0
H1802 H 0.30915 0.63093 0.55687 0.0
H1803 H 0.28924 0.63441 0.52281 0.0
C1804 C 0.16719 0.66571 0.4826 0.0
C1805 C 0.16 0.64962 0.49661 0.0
C1806 C 0.18884 0.67162 0.48232 0.0
C1807 C 0.20383 0.66071 0.49521 0.0
C1808 C 0.19634 0.6451 0.50973 0.0
C1809 C 0.1746 0.63985 0.51063 0.0
C1810 C 0.22736 0.6646 0.49309 0.0
C1811 C 0.23977 0.66605 0.51186 0.0
C1812 C 0.23787 0.66528 0.4729 0.0
C1813 C 0.22634 0.66177 0.45239 0.0
C1814 C 0.21512 0.64254 0.44872 0.0
C1815 C 0.2042 0.63935 0.42938 0.0
C1816 C 0.20458 0.65519 0.4135 0.0
C1817 C 0.21594 0.67422 0.4169 0.0
C1818 C 0.22685 0.6775 0.43623 0.0
C1819 C 0.32809 0.64756 0.47648 0.0
C1820 C 0.34075 0.65802 0.49186 0.0
C1821 C 0.30613 0.65178 0.47524 0.0
C1822 C 0.29657 0.66694 0.48898 0.0
C1823 C 0.30986 0.67931 0.50242 0.0
C1824 C 0.33167 0.67443 0.50432 0.0
C1825 C 0.27273 0.66784 0.49087 0.0
C1826 C 0.26025 0.66763 0.47209 0.0
C1827 C 0.26222 0.66681 0.51105 0.0
C1828 C 0.27408 0.66449 0.53154 0.0
C1829 C 0.27176 0.67992 0.54783 0.0
C1830 C 0.28303 0.67776 0.56712 0.0
C1831 C 0.29654 0.66016 0.57035 0.0
C1832 C 0.29873 0.6446 0.55433 0.0
C1833 C 0.28747 0.64666 0.53504 0.0
H1834 H 0.30528 0.65854 0.58528 0.0
H1835 H 0.19612 0.65269 0.39853 0.0
H1836 H 0.66532 0.8398 0.47063 0.0
H1837 H 0.70358 0.83174 0.46699 0.0
H1838 H 0.70391 0.80378 0.53032 0.0
H1839 H 0.66575 0.81197 0.53416 0.0
H1840 H 0.73274 0.85066 0.49536 0.0
H1841 H 0.74577 0.76571 0.53063 0.0
H1842 H 0.72724 0.73076 0.53198 0.0
H1843 H 0.69459 0.74542 0.47308 0.0
H1844 H 0.71314 0.7803 0.47121 0.0
H1845 H 0.83868 0.84132 0.53026 0.0
H1846 H 0.80057 0.83208 0.53276 0.0
H1847 H 0.80329 0.80307 0.46999 0.0
H1848 H 0.84123 0.81264 0.46718 0.0
H1849 H 0.77329 0.78246 0.50271 0.0
H1850 H 0.79192 0.84997 0.46714 0.0
H1851 H 0.81105 0.88459 0.46588 0.0
H1852 H 0.77942 0.9046 0.52376 0.0
H1853 H 0.76042 0.86989 0.52557 0.0
C1854 C 0.67338 0.83137 0.48351 0.0
C1855 C 0.6626 0.82667 0.50275 0.0
C1856 C 0.69526 0.82686 0.48146 0.0
C1857 C 0.70657 0.81724 0.49842 0.0
C1858 C 0.69545 0.81108 0.51699 0.0
C1859 C 0.67366 0.81583 0.51917 0.0
C1860 C 0.7303 0.81624 0.49791 0.0
C1861 C 0.74154 0.8357 0.49684 0.0
C1862 C 0.7418 0.79676 0.50007 0.0
C1863 C 0.73071 0.77572 0.50091 0.0
C1864 C 0.7347 0.76144 0.51792 0.0
C1865 C 0.72418 0.74165 0.51879 0.0
C1866 C 0.7097 0.73591 0.50266 0.0
C1867 C 0.70574 0.74993 0.48561 0.0
C1868 C 0.71623 0.76973 0.48466 0.0
C1869 C 0.83136 0.83226 0.51735 0.0
C1870 C 0.84281 0.82788 0.49843 0.0
C1871 C 0.8096 0.82702 0.51879 0.0
C1872 C 0.79916 0.81704 0.50148 0.0
C1873 C 0.81111 0.81069 0.48353 0.0
C1874 C 0.83274 0.81626 0.48192 0.0
C1875 C 0.77547 0.81685 0.50038 0.0
C1876 C 0.76434 0.79731 0.50121 0.0
C1877 C 0.76394 0.83624 0.49797 0.0
C1878 C 0.77494 0.85728 0.49661 0.0
C1879 C 0.78918 0.8617 0.47968 0.0
C1880 C 0.79998 0.88133 0.47886 0.0
C1881 C 0.79649 0.89677 0.49476 0.0
C1882 C 0.78213 0.89262 0.51147 0.0
C1883 C 0.77134 0.87297 0.5124 0.0
H1884 H 0.80487 0.91196 0.4941 0.0
H1885 H 0.70157 0.72058 0.50337 0.0
H1886 H 0.46178 0.83451 0.82449 0.0
H1887 H 0.46418 0.79679 0.81433 0.0
H1888 H 0.53195 0.79718 0.82802 0.0
H1889 H 0.52971 0.83522 0.83808 0.0
H1890 H 0.52068 0.77069 0.7923 0.0
H1891 H 0.49996 0.7818 0.86608 0.0
H1892 H 0.47812 0.7975 0.8951 0.0
H1893 H 0.42152 0.76874 0.86842 0.0
H1894 H 0.443 0.75313 0.83902 0.0
H1895 H 0.53742 0.66234 0.82501 0.0
H1896 H 0.5353 0.70066 0.81749 0.0
H1897 H 0.46646 0.69603 0.81252 0.0
H1898 H 0.46844 0.65765 0.82055 0.0
H1899 H 0.47708 0.7251 0.84085 0.0
H1900 H 0.49865 0.71044 0.76896 0.0
H1901 H 0.52068 0.69481 0.74006 0.0
H1902 H 0.57565 0.72948 0.7628 0.0
H1903 H 0.55403 0.74511 0.79204 0.0
C1904 C 0.47731 0.82674 0.82494 0.0
C1905 C 0.49552 0.83777 0.83238 0.0
C1906 C 0.47864 0.80516 0.8191 0.0
C1907 C 0.49816 0.7941 0.82076 0.0
C1908 C 0.51672 0.80543 0.82666 0.0
C1909 C 0.51541 0.82714 0.83245 0.0
C1910 C 0.49856 0.77035 0.81879 0.0
C1911 C 0.51131 0.76064 0.80297 0.0
C1912 C 0.48596 0.75731 0.83245 0.0
C1913 C 0.47305 0.76649 0.85023 0.0
C1914 C 0.48283 0.77896 0.86631 0.0
C1915 C 0.47052 0.78782 0.88284 0.0
C1916 C 0.44844 0.78417 0.88357 0.0
C1917 C 0.43862 0.77159 0.86781 0.0
C1918 C 0.45086 0.76272 0.85122 0.0
C1919 C 0.52185 0.66932 0.82172 0.0
C1920 C 0.50307 0.65697 0.8236 0.0
C1921 C 0.52068 0.69129 0.81731 0.0
C1922 C 0.50071 0.70132 0.81446 0.0
C1923 C 0.48205 0.68868 0.81475 0.0
C1924 C 0.48321 0.6667 0.81924 0.0
C1925 C 0.49915 0.72516 0.81421 0.0
C1926 C 0.48626 0.73499 0.82985 0.0
C1927 C 0.51166 0.73818 0.80038 0.0
C1928 C 0.52474 0.72882 0.78281 0.0
C1929 C 0.51548 0.7146 0.76792 0.0
C1930 C 0.52789 0.70577 0.75144 0.0
C1931 C 0.54956 0.71111 0.74962 0.0
C1932 C 0.55886 0.72535 0.76424 0.0
C1933 C 0.54653 0.73422 0.78075 0.0
H1934 H 0.55914 0.70426 0.73686 0.0
H1935 H 0.43893 0.79105 0.89638 0.0
H1936 H 0.47841 0.3308 0.63763 0.0
H1937 H 0.47767 0.29308 0.64742 0.0
H1938 H 0.53447 0.3019 0.6862 0.0
H1939 H 0.53623 0.33943 0.67462 0.0
H1940 H 0.54108 0.26952 0.66644 0.0
H1941 H 0.48079 0.28763 0.70719 0.0
H1942 H 0.44625 0.30424 0.71688 0.0
H1943 H 0.41455 0.26774 0.66779 0.0
H1944 H 0.44893 0.25112 0.65757 0.0
H1945 H 0.48217 0.15619 0.68015 0.0
H1946 H 0.48713 0.19353 0.69139 0.0
H1947 H 0.52932 0.20369 0.63727 0.0
H1948 H 0.52594 0.16594 0.62754 0.0
H1949 H 0.47505 0.22641 0.67596 0.0
H1950 H 0.55983 0.24578 0.63945 0.0
H1951 H 0.59557 0.22898 0.63756 0.0
H1952 H 0.58074 0.19023 0.69258 0.0
H1953 H 0.54503 0.20701 0.69501 0.0
C1954 C 0.4904 0.32482 0.64871 0.0
C1955 C 0.50733 0.338 0.65545 0.0
C1956 C 0.48992 0.30316 0.65446 0.0
C1957 C 0.50586 0.2944 0.66787 0.0
C1958 C 0.52203 0.30806 0.67574 0.0
C1959 C 0.52295 0.32957 0.66931 0.0
C1960 C 0.50688 0.27071 0.67152 0.0
C1961 C 0.52664 0.26015 0.66884 0.0
C1962 C 0.48832 0.25823 0.67555 0.0
C1963 C 0.46751 0.26818 0.68156 0.0
C1964 C 0.46648 0.28323 0.69836 0.0
C1965 C 0.44692 0.29264 0.70397 0.0
C1966 C 0.42822 0.28707 0.69295 0.0
C1967 C 0.42904 0.27204 0.67632 0.0
C1968 C 0.44857 0.26258 0.67064 0.0
C1969 C 0.49308 0.16634 0.67121 0.0
C1970 C 0.50396 0.15828 0.65324 0.0
C1971 C 0.49578 0.18773 0.67747 0.0
C1972 C 0.50879 0.20168 0.66537 0.0
C1973 C 0.51984 0.19335 0.64749 0.0
C1974 C 0.5178 0.17175 0.64177 0.0
C1975 C 0.50911 0.22523 0.67001 0.0
C1976 C 0.48959 0.23576 0.67417 0.0
C1977 C 0.5281 0.23765 0.66863 0.0
C1978 C 0.54967 0.2276 0.66733 0.0
C1979 C 0.56423 0.23378 0.65124 0.0
C1980 C 0.58448 0.22423 0.65004 0.0
C1981 C 0.59041 0.20852 0.66491 0.0
C1982 C 0.57611 0.20236 0.68104 0.0
C1983 C 0.55584 0.21186 0.68231 0.0
H1984 H 0.60609 0.20113 0.66395 0.0
H1985 H 0.41309 0.29437 0.69731 0.0
H1986 H 0.82307 0.46569 0.84201 0.0
H1987 H 0.81376 0.4682 0.80406 0.0
H1988 H 0.82832 0.53582 0.80472 0.0
H1989 H 0.83779 0.53346 0.84293 0.0
H1990 H 0.79193 0.52351 0.77744 0.0
H1991 H 0.86624 0.50504 0.79046 0.0
H1992 H 0.89511 0.48371 0.80711 0.0
H1993 H 0.87045 0.42656 0.77754 0.0
H1994 H 0.8412 0.44753 0.76099 0.0
H1995 H 0.82488 0.54364 0.67052 0.0
H1996 H 0.81761 0.54003 0.70871 0.0
H1997 H 0.81764 0.47107 0.70233 0.0
H1998 H 0.82563 0.47462 0.66397 0.0
H1999 H 0.84337 0.48208 0.73296 0.0
H2000 H 0.77138 0.50059 0.71637 0.0
H2001 H 0.74183 0.52123 0.70011 0.0
H2002 H 0.76059 0.57706 0.73586 0.0
H2003 H 0.79047 0.55685 0.75214 0.0
C2004 C 0.82385 0.48124 0.83427 0.0
C2005 C 0.83145 0.49934 0.84543 0.0
C2006 C 0.8185 0.48263 0.81255 0.0
C2007 C 0.82064 0.50212 0.80152 0.0
C2008 C 0.82657 0.52062 0.81297 0.0
C2009 C 0.832 0.51924 0.83478 0.0
C2010 C 0.81927 0.50248 0.77771 0.0
C2011 C 0.80323 0.51463 0.76763 0.0
C2012 C 0.83367 0.49038 0.765 0.0
C2013 C 0.85141 0.47781 0.77469 0.0
C2014 C 0.86688 0.4879 0.78765 0.0
C2015 C 0.88332 0.47588 0.79705 0.0
C2016 C 0.88458 0.45379 0.79343 0.0
C2017 C 0.86943 0.44367 0.78035 0.0
C2018 C 0.85293 0.45562 0.77095 0.0
C2019 C 0.82285 0.52768 0.67709 0.0
C2020 C 0.82599 0.5094 0.66419 0.0
C2021 C 0.81855 0.52563 0.699 0.0
C2022 C 0.81697 0.50527 0.70852 0.0
C2023 C 0.81882 0.48697 0.6954 0.0
C2024 C 0.82326 0.48901 0.67343 0.0
C2025 C 0.81599 0.50321 0.73235 0.0
C2026 C 0.83176 0.49078 0.74258 0.0
C2027 C 0.80124 0.51498 0.7451 0.0
C2028 C 0.78328 0.52723 0.73536 0.0
C2029 C 0.76932 0.51732 0.72065 0.0
C2030 C 0.75248 0.52893 0.71145 0.0
C2031 C 0.74936 0.55045 0.71691 0.0
C2032 C 0.76304 0.56039 0.73163 0.0
C2033 C 0.77991 0.54885 0.74088 0.0
H2034 H 0.73631 0.55942 0.70977 0.0
H2035 H 0.89732 0.44451 0.80073 0.0
H2036 H 0.15631 0.01354 0.65823 0.0
H2037 H 0.16232 0.02234 0.69602 0.0
H2038 H 0.18634 0.95845 0.70732 0.0
H2039 H 0.18003 0.94936 0.66957 0.0
H2040 H 0.14015 0.9982 0.7283 0.0
H2041 H 0.2237 0.96527 0.7508 0.0
H2042 H 0.25936 0.96044 0.73436 0.0
H2043 H 0.24728 0.01326 0.69177 0.0
H2044 H 0.2117 0.01861 0.70815 0.0
H2045 H 0.14938 0.97954 0.84034 0.0
H2046 H 0.1568 0.97257 0.80229 0.0
H2047 H 0.18388 0.03587 0.79581 0.0
H2048 H 0.17599 0.04318 0.83366 0.0
H2049 H 0.20639 0.99806 0.7725 0.0
H2050 H 0.13845 0.03615 0.78205 0.0
H2051 H 0.1029 0.04076 0.79878 0.0
H2052 H 0.08394 0.97845 0.77625 0.0
H2053 H 0.11953 0.97335 0.75968 0.0
C2054 C 0.16341 0.00152 0.66859 0.0
C2055 C 0.16755 0.9807 0.66095 0.0
C2056 C 0.16674 0.00656 0.6902 0.0
C2057 C 0.17467 0.99102 0.70445 0.0
C2058 C 0.18029 0.9707 0.69655 0.0
C2059 C 0.17667 0.96553 0.67498 0.0
C2060 C 0.17457 0.99521 0.72787 0.0
C2061 C 0.15467 0.99825 0.7379 0.0
C2062 C 0.19349 0.99509 0.74042 0.0
C2063 C 0.21493 0.99217 0.73057 0.0
C2064 C 0.22868 0.97589 0.73797 0.0
C2065 C 0.24888 0.97306 0.72866 0.0
C2066 C 0.25555 0.98648 0.71198 0.0
C2067 C 0.24206 0.00281 0.70462 0.0
C2068 C 0.22185 0.00572 0.71389 0.0
C2069 C 0.15733 0.99179 0.83092 0.0
C2070 C 0.16198 0.01195 0.83989 0.0
C2071 C 0.16156 0.98778 0.80923 0.0
C2072 C 0.17088 0.00372 0.79632 0.0
C2073 C 0.1768 0.02335 0.80557 0.0
C2074 C 0.17217 0.02753 0.82714 0.0
C2075 C 0.172 0.00092 0.77275 0.0
C2076 C 0.19196 0.99802 0.76278 0.0
C2077 C 0.15316 0.00112 0.76015 0.0
C2078 C 0.1317 0.00428 0.76985 0.0
C2079 C 0.12676 0.02336 0.78084 0.0
C2080 C 0.1066 0.02607 0.79025 0.0
C2081 C 0.09119 0.00988 0.78863 0.0
C2082 C 0.0959 0.99096 0.77752 0.0
C2083 C 0.11605 0.98816 0.76811 0.0
H2084 H 0.07559 0.01201 0.79593 0.0
H2085 H 0.27119 0.98426 0.70479 0.0
H2086 H 0.82729 0.17458 0.0437 0.0
H2087 H 0.79052 0.18414 0.03444 0.0
H2088 H 0.80403 0.17239 0.96758 0.0
H2089 H 0.84117 0.16295 0.97674 0.0
H2090 H 0.77533 0.20741 0.97452 0.0
H2091 H 0.78348 0.13321 0.99566 0.0
H2092 H 0.79513 0.10407 0.01979 0.0
H2093 H 0.75545 0.12938 0.07012 0.0
H2094 H 0.74381 0.15888 0.04636 0.0
H2095 H 0.6734 0.17533 0.93537 0.0
H2096 H 0.71029 0.18264 0.9457 0.0
H2097 H 0.69164 0.18359 0.01241 0.0
H2098 H 0.65462 0.17552 0.00213 0.0
H2099 H 0.72305 0.15716 0.00731 0.0
H2100 H 0.71155 0.22933 0.98509 0.0
H2101 H 0.70004 0.25873 0.96124 0.0
H2102 H 0.74526 0.23825 0.91348 0.0
H2103 H 0.75685 0.20852 0.93691 0.0
C2104 C 0.82261 0.17442 0.02695 0.0
C2105 C 0.83706 0.16772 0.01097 0.0
C2106 C 0.80156 0.1799 0.0217 0.0
C2107 C 0.79444 0.17861 0.00038 0.0
C2108 C 0.80921 0.17344 0.98415 0.0
C2109 C 0.8304 0.16802 0.9894 0.0
C2110 C 0.77118 0.18033 0.99552 0.0
C2111 C 0.76385 0.19637 0.98151 0.0
C2112 C 0.75618 0.16624 0.0051 0.0
C2113 C 0.76296 0.14836 0.01931 0.0
C2114 C 0.77736 0.13265 0.01192 0.0
C2115 C 0.78395 0.11606 0.02552 0.0
C2116 C 0.77608 0.11491 0.04649 0.0
C2117 C 0.76155 0.13031 0.05388 0.0
C2118 C 0.75495 0.14696 0.04035 0.0
C2119 C 0.67699 0.17763 0.95223 0.0
C2120 C 0.66107 0.17465 0.96795 0.0
C2121 C 0.69817 0.18195 0.95812 0.0
C2122 C 0.70387 0.18373 0.97986 0.0
C2123 C 0.68769 0.18223 0.99553 0.0
C2124 C 0.66648 0.17772 0.98963 0.0
C2125 C 0.7269 0.18434 0.98623 0.0
C2126 C 0.73431 0.16853 0.00048 0.0
C2127 C 0.74186 0.1987 0.97688 0.0
C2128 C 0.73496 0.21658 0.96272 0.0
C2129 C 0.71893 0.23098 0.96943 0.0
C2130 C 0.71241 0.24773 0.956 0.0
C2131 C 0.72188 0.25033 0.93584 0.0
C2132 C 0.73793 0.23621 0.9291 0.0
C2133 C 0.7445 0.21942 0.94246 0.0
H2134 H 0.71682 0.26331 0.92547 0.0
H2135 H 0.78119 0.10205 0.057 0.0
H2136 H 0.02929 0.91763 0.20672 0.0
H2137 H 0.0271 0.93982 0.23934 0.0
H2138 H 0.03037 0.9971 0.20047 0.0
H2139 H 0.03346 0.97528 0.16839 0.0
H2140 H 0.05589 0.00184 0.23156 0.0
H2141 H 0.98285 0.97833 0.22582 0.0
H2142 H 0.95338 0.95211 0.22307 0.0
H2143 H 0.97146 0.92488 0.28376 0.0
H2144 H 0.00123 0.95078 0.28674 0.0
H2145 H 0.02705 0.07781 0.31285 0.0
H2146 H 0.02365 0.05522 0.2806 0.0
H2147 H 0.03467 0.99866 0.31896 0.0
H2148 H 0.03831 0.0209 0.35091 0.0
H2149 H 0.00109 0.99386 0.28867 0.0
H2150 H 0.07497 0.0178 0.29275 0.0
H2151 H 0.10338 0.04522 0.29501 0.0
H2152 H 0.08154 0.07326 0.23594 0.0
H2153 H 0.05279 0.04615 0.2335 0.0
C2154 C 0.02949 0.93495 0.20525 0.0
C2155 C 0.03186 0.94469 0.18505 0.0
C2156 C 0.02811 0.94764 0.22385 0.0
C2157 C 0.02851 0.97021 0.22241 0.0
C2158 C 0.03027 0.97979 0.20212 0.0
C2159 C 0.03205 0.96723 0.18374 0.0
C2160 C 0.02797 0.98414 0.24182 0.0
C2161 C 0.04366 0.00023 0.24383 0.0
C2162 C 0.01229 0.98193 0.25813 0.0
C2163 C 0.99441 0.96634 0.25638 0.0
C2164 C 0.98065 0.96664 0.23849 0.0
C2165 C 0.96387 0.95186 0.23691 0.0
C2166 C 0.96059 0.93679 0.2532 0.0
C2167 C 0.97405 0.93653 0.27114 0.0
C2168 C 0.99086 0.95127 0.27279 0.0
C2169 C 0.02864 0.06057 0.31435 0.0
C2170 C 0.0333 0.05118 0.33432 0.0
C2171 C 0.02669 0.0477 0.29598 0.0
C2172 C 0.02901 0.02529 0.29744 0.0
C2173 C 0.03282 0.0159 0.31749 0.0
C2174 C 0.03511 0.02869 0.33569 0.0
C2175 C 0.02875 0.01155 0.27803 0.0
C2176 C 0.0131 0.99547 0.27618 0.0
C2177 C 0.04425 0.01391 0.26167 0.0
C2178 C 0.0616 0.03011 0.26307 0.0
C2179 C 0.07612 0.02992 0.28034 0.0
C2180 C 0.0923 0.04538 0.28164 0.0
C2181 C 0.09423 0.06101 0.26566 0.0
C2182 C 0.08 0.06117 0.24832 0.0
C2183 C 0.06377 0.04575 0.24697 0.0
H2184 H 0.10677 0.07297 0.2667 0.0
H2185 H 0.94759 0.92536 0.25195 0.0
H2186 H 0.92003 0.43452 0.31246 0.0
H2187 H 0.92483 0.46094 0.28393 0.0
H2188 H 0.99333 0.45202 0.28697 0.0
H2189 H 0.98858 0.42526 0.31555 0.0
H2190 H 0.98048 0.49518 0.29053 0.0
H2191 H 0.96859 0.43609 0.24339 0.0
H2192 H 0.95022 0.40385 0.22969 0.0
H2193 H 0.89304 0.44066 0.2188 0.0
H2194 H 0.91096 0.47308 0.23273 0.0
H2195 H 0.99308 0.56739 0.19985 0.0
H2196 H 0.99518 0.53942 0.22752 0.0
H2197 H 0.92642 0.53199 0.22505 0.0
H2198 H 0.92445 0.55925 0.197 0.0
H2199 H 0.94432 0.49499 0.21965 0.0
H2200 H 0.95479 0.55334 0.26928 0.0
H2201 H 0.97224 0.58548 0.28437 0.0
H2202 H 0.03105 0.55043 0.29182 0.0
H2203 H 0.01406 0.51817 0.27642 0.0
C2204 C 0.93608 0.43772 0.30664 0.0
C2205 C 0.95392 0.42773 0.31616 0.0
C2206 C 0.93881 0.45287 0.29036 0.0
C2207 C 0.95944 0.45849 0.28336 0.0
C2208 C 0.97728 0.4479 0.29216 0.0
C2209 C 0.97452 0.43244 0.30829 0.0
C2210 C 0.96214 0.47651 0.26798 0.0
C2211 C 0.97297 0.49506 0.27482 0.0
C2212 C 0.95192 0.47645 0.24774 0.0
C2213 C 0.94109 0.457 0.23925 0.0
C2214 C 0.95205 0.43729 0.23823 0.0
C2215 C 0.94172 0.41898 0.23039 0.0
C2216 C 0.92047 0.4202 0.22341 0.0
C2217 C 0.9095 0.43974 0.22422 0.0
C2218 C 0.91975 0.4581 0.23206 0.0
C2219 C 0.97839 0.56028 0.20579 0.0
C2220 C 0.95859 0.56546 0.19632 0.0
C2221 C 0.97959 0.54421 0.22154 0.0
C2222 C 0.96096 0.53341 0.2283 0.0
C2223 C 0.94106 0.53986 0.21996 0.0
C2224 C 0.9399 0.55559 0.20406 0.0
C2225 C 0.96209 0.5141 0.2424 0.0
C2226 C 0.95204 0.49519 0.23526 0.0
C2227 C 0.97292 0.51394 0.2624 0.0
C2228 C 0.98323 0.53342 0.27139 0.0
C2229 C 0.97151 0.55256 0.27388 0.0
C2230 C 0.98131 0.57078 0.28254 0.0
C2231 C 0.00277 0.57003 0.28896 0.0
C2232 C 0.01446 0.55102 0.28677 0.0
C2233 C 0.00475 0.53276 0.27807 0.0
H2234 H 0.01031 0.58415 0.29569 0.0
H2235 H 0.9125 0.40601 0.21735 0.0
H2236 H 0.19714 0.00438 0.92781 0.0
H2237 H 0.22717 0.99846 0.95253 0.0
H2238 H 0.23452 0.06689 0.95995 0.0
H2239 H 0.20456 0.07288 0.93545 0.0
H2240 H 0.27363 0.04471 0.96119 0.0
H2241 H 0.20154 0.04057 0.99245 0.0
H2242 H 0.16533 0.02472 0.99424 0.0
H2243 H 0.19269 0.96274 0.00689 0.0
H2244 H 0.2291 0.97821 0.00486 0.0
H2245 H 0.3113 0.07363 0.0592 0.0
H2246 H 0.28344 0.06727 0.03248 0.0
H2247 H 0.29123 0.99896 0.04022 0.0
H2248 H 0.31918 0.00523 0.06726 0.0
H2249 H 0.24734 0.01324 0.0296 0.0
H2250 H 0.31919 0.01791 0.00395 0.0
H2251 H 0.35554 0.0333 0.00187 0.0
H2252 H 0.32957 0.09234 0.97761 0.0
H2253 H 0.29299 0.07745 0.97996 0.0
C2254 C 0.20575 0.01815 0.93401 0.0
C2255 C 0.19845 0.0391 0.92985 0.0
C2256 C 0.22276 0.01474 0.94829 0.0
C2257 C 0.23276 0.03224 0.95837 0.0
C2258 C 0.22695 0.05316 0.95243 0.0
C2259 C 0.20985 0.05657 0.9384 0.0
C2260 C 0.24719 0.02917 0.97702 0.0
C2261 C 0.26793 0.03775 0.9761 0.0
C2262 C 0.23989 0.01961 0.99635 0.0
C2263 C 0.21802 0.01049 0.99829 0.0
C2264 C 0.19982 0.02355 0.99553 0.0
C2265 C 0.17928 0.01464 0.99658 0.0
C2266 C 0.17672 0.99272 0.00062 0.0
C2267 C 0.19471 0.97971 0.00373 0.0
C2268 C 0.2153 0.98854 0.00264 0.0
C2269 C 0.30649 0.05725 0.05588 0.0
C2270 C 0.31756 0.03993 0.06514 0.0
C2271 C 0.29063 0.05364 0.04054 0.0
C2272 C 0.2857 0.03266 0.03403 0.0
C2273 C 0.29492 0.01526 0.04497 0.0
C2274 C 0.31079 0.01888 0.06051 0.0
C2275 C 0.2735 0.02939 0.01387 0.0
C2276 C 0.25323 0.01969 0.01454 0.0
C2277 C 0.2813 0.0377 0.9942 0.0
C2278 C 0.30332 0.04661 0.99228 0.0
C2279 C 0.32121 0.03423 0.99831 0.0
C2280 C 0.34186 0.04286 0.99708 0.0
C2281 C 0.34486 0.06379 0.98964 0.0
C2282 C 0.32721 0.07612 0.98337 0.0
C2283 C 0.30651 0.06759 0.98464 0.0
H2284 H 0.36086 0.07045 0.98871 0.0
H2285 H 0.1608 0.98584 0.00138 0.0
H2286 H 0.68685 0.49257 0.07732 0.0
H2287 H 0.71835 0.49703 0.05406 0.0
H2288 H 0.67688 0.50111 0.99866 0.0
H2289 H 0.64578 0.49556 0.02163 0.0
H2290 H 0.70594 0.47484 0.98988 0.0
H2291 H 0.70684 0.54527 0.0194 0.0
H2292 H 0.70666 0.57308 0.04757 0.0
H2293 H 0.76597 0.54863 0.07262 0.0
H2294 H 0.76637 0.52048 0.04477 0.0
H2295 H 0.79461 0.49676 0.91925 0.0
H2296 H 0.76162 0.5035 0.93984 0.0
H2297 H 0.79394 0.48464 0.99807 0.0
H2298 H 0.82656 0.47773 0.97788 0.0
H2299 H 0.76857 0.52211 0.00273 0.0
H2300 H 0.76387 0.44931 0.97412 0.0
H2301 H 0.76344 0.42282 0.94468 0.0
H2302 H 0.70962 0.45495 0.91609 0.0
H2303 H 0.70993 0.4818 0.94524 0.0
C2304 C 0.68458 0.4947 0.06021 0.0
C2305 C 0.664 0.49347 0.0512 0.0
C2306 C 0.70253 0.49737 0.04691 0.0
C2307 C 0.70005 0.49947 0.02451 0.0
C2308 C 0.67931 0.49932 0.01579 0.0
C2309 C 0.66154 0.49617 0.02894 0.0
C2310 C 0.71893 0.50001 0.00987 0.0
C2311 C 0.71939 0.48557 0.99252 0.0
C2312 C 0.7367 0.51374 0.0133 0.0
C2313 C 0.73653 0.53064 0.0301 0.0
C2314 C 0.71976 0.54571 0.03102 0.0
C2315 C 0.71964 0.56156 0.04691 0.0
C2316 C 0.73627 0.56259 0.0619 0.0
C2317 C 0.75309 0.5478 0.061 0.0
C2318 C 0.75329 0.53191 0.04515 0.0
C2319 C 0.79465 0.49411 0.93644 0.0
C2320 C 0.81314 0.48643 0.94685 0.0
C2321 C 0.77585 0.49801 0.94817 0.0
C2322 C 0.7754 0.49456 0.97048 0.0
C2323 C 0.79398 0.48749 0.98091 0.0
C2324 C 0.81257 0.48333 0.96924 0.0
C2325 C 0.75538 0.49698 0.98305 0.0
C2326 C 0.75482 0.5118 2e-05 0.0
C2327 C 0.73733 0.48389 0.97911 0.0
C2328 C 0.73708 0.46768 0.96169 0.0
C2329 C 0.75206 0.45081 0.96146 0.0
C2330 C 0.75181 0.43572 0.94485 0.0
C2331 C 0.73655 0.43724 0.92849 0.0
C2332 C 0.72146 0.45382 0.92874 0.0
C2333 C 0.72165 0.46897 0.94531 0.0
H2334 H 0.73639 0.42554 0.91564 0.0
H2335 H 0.73614 0.57487 0.07419 0.0
H2336 H 0.31012 0.92189 0.43649 0.0
H2337 H 0.28023 0.92646 0.4613 0.0
H2338 H 0.28597 0.99524 0.45599 0.0
H2339 H 0.31602 0.99072 0.43083 0.0
H2340 H 0.28604 0.98042 0.49861 0.0
H2341 H 0.24251 0.97301 0.43647 0.0
H2342 H 0.23032 0.95721 0.4023 0.0
H2343 H 0.21612 0.89791 0.43438 0.0
H2344 H 0.22853 0.91323 0.46871 0.0
H2345 H 0.19216 0.9861 0.56806 0.0
H2346 H 0.22 0.99151 0.54073 0.0
H2347 H 0.22131 0.92333 0.52863 0.0
H2348 H 0.19337 0.91796 0.55543 0.0
H2349 H 0.21527 0.94472 0.49244 0.0
H2350 H 0.26324 0.95057 0.55328 0.0
H2351 H 0.2762 0.96584 0.58743 0.0
H2352 H 0.28229 0.02777 0.55781 0.0
H2353 H 0.26909 0.0129 0.52353 0.0
C2354 C 0.30468 0.938 0.44017 0.0
C2355 C 0.31536 0.95595 0.43168 0.0
C2356 C 0.2876 0.94059 0.45436 0.0
C2357 C 0.28088 0.96119 0.46051 0.0
C2358 C 0.29091 0.97921 0.45142 0.0
C2359 C 0.3079 0.97661 0.4369 0.0
C2360 C 0.26445 0.96347 0.4776 0.0
C2361 C 0.27034 0.97306 0.49714 0.0
C2362 C 0.24415 0.95356 0.47577 0.0
C2363 C 0.23658 0.94426 0.45516 0.0
C2364 C 0.23694 0.95655 0.43622 0.0
C2365 C 0.22996 0.94768 0.41682 0.0
C2366 C 0.22248 0.92656 0.41616 0.0
C2367 C 0.22192 0.91427 0.43492 0.0
C2368 C 0.2289 0.92305 0.45436 0.0
C2369 C 0.19888 0.97224 0.56001 0.0
C2370 C 0.19052 0.95162 0.5638 0.0
C2371 C 0.21472 0.97535 0.54432 0.0
C2372 C 0.2226 0.95784 0.53244 0.0
C2373 C 0.21529 0.93712 0.53736 0.0
C2374 C 0.19941 0.93404 0.55281 0.0
C2375 C 0.23715 0.96092 0.51377 0.0
C2376 C 0.23082 0.95239 0.49387 0.0
C2377 C 0.25703 0.97176 0.51533 0.0
C2378 C 0.26492 0.98069 0.53592 0.0
C2379 C 0.26715 0.96748 0.5541 0.0
C2380 C 0.27458 0.97606 0.57347 0.0
C2381 C 0.27999 0.99778 0.57481 0.0
C2382 C 0.27805 0.01096 0.55676 0.0
C2383 C 0.2706 0.00247 0.53736 0.0
H2384 H 0.28575 0.00438 0.58981 0.0
H2385 H 0.21708 0.91973 0.40113 0.0
H2386 H 0.81679 0.5555 0.54081 0.0
H2387 H 0.78706 0.55015 0.51643 0.0
H2388 H 0.7633 0.49872 0.55622 0.0
H2389 H 0.7939 0.50345 0.5806 0.0
H2390 H 0.76277 0.48668 0.51574 0.0
H2391 H 0.7369 0.54804 0.55255 0.0
H2392 H 0.73784 0.58419 0.56862 0.0
H2393 H 0.74965 0.61183 0.50659 0.0
H2394 H 0.74909 0.57581 0.49018 0.0
H2395 H 0.66031 0.48991 0.46101 0.0
H2396 H 0.69031 0.48982 0.48642 0.0
H2397 H 0.72647 0.53044 0.44364 0.0
H2398 H 0.69653 0.53007 0.41785 0.0
H2399 H 0.71914 0.54669 0.48689 0.0
H2400 H 0.74469 0.48321 0.45093 0.0
H2401 H 0.74172 0.44654 0.43638 0.0
H2402 H 0.7272 0.42238 0.49928 0.0
H2403 H 0.72978 0.45898 0.51417 0.0
C2404 C 0.80516 0.54319 0.54468 0.0
C2405 C 0.80786 0.52986 0.56274 0.0
C2406 C 0.788 0.54024 0.53069 0.0
C2407 C 0.77274 0.52417 0.53452 0.0
C2408 C 0.77487 0.51125 0.55293 0.0
C2409 C 0.79225 0.5141 0.56697 0.0
C2410 C 0.75539 0.52038 0.51853 0.0
C2411 C 0.75295 0.49974 0.50974 0.0
C2412 C 0.74277 0.53745 0.51037 0.0
C2413 C 0.7431 0.55918 0.52016 0.0
C2414 C 0.73985 0.5618 0.54235 0.0
C2415 C 0.74029 0.58228 0.55152 0.0
C2416 C 0.74384 0.60029 0.53864 0.0
C2417 C 0.74692 0.59786 0.51655 0.0
C2418 C 0.74651 0.57742 0.5073 0.0
C2419 C 0.67497 0.4982 0.45676 0.0
C2420 C 0.67631 0.50984 0.43749 0.0
C2421 C 0.69204 0.49817 0.47126 0.0
C2422 C 0.71056 0.51013 0.4669 0.0
C2423 C 0.71231 0.52104 0.44721 0.0
C2424 C 0.69534 0.52071 0.43246 0.0
C2425 C 0.72688 0.51318 0.48393 0.0
C2426 C 0.72897 0.53367 0.49298 0.0
C2427 C 0.7388 0.49591 0.49257 0.0
C2428 C 0.7372 0.47389 0.48363 0.0
C2429 C 0.74065 0.47012 0.46163 0.0
C2430 C 0.73909 0.44933 0.45333 0.0
C2431 C 0.73421 0.43215 0.46688 0.0
C2432 C 0.73094 0.43571 0.48879 0.0
C2433 C 0.73247 0.45648 0.49717 0.0
H2434 H 0.73303 0.41607 0.46042 0.0
H2435 H 0.74418 0.61613 0.54577 0.0
H2436 H 0.05835 0.3134 0.07713 0.0
H2437 H 0.03339 0.28335 0.07472 0.0
H2438 H 0.03904 0.28393 0.00571 0.0
H2439 H 0.06429 0.31406 0.00806 0.0
H2440 H 0.99687 0.28738 0.02007 0.0
H2441 H 0.05671 0.2414 0.03196 0.0
H2442 H 0.0897 0.22867 0.04966 0.0
H2443 H 0.05522 0.21987 0.10866 0.0
H2444 H 0.02207 0.23285 0.09141 0.0
H2445 H 0.92653 0.19574 0.01258 0.0
H2446 H 0.9539 0.22362 0.00924 0.0
H2447 H 0.96183 0.22412 0.07807 0.0
H2448 H 0.93496 0.19585 0.08141 0.0
H2449 H -0.00105 0.21834 0.05958 0.0
H2450 H 0.94015 0.26731 0.04909 0.0
H2451 H 0.90712 0.28093 0.03213 0.0
H2452 H 0.9394 0.28488 0.97137 0.0
H2453 H 0.97257 0.271 0.98792 0.0
C2454 C 0.05484 0.30666 0.06148 0.0
C2455 C 0.06328 0.31603 0.04279 0.0
C2456 C 0.04054 0.28951 0.06012 0.0
C2457 C 0.03428 0.28147 0.04003 0.0
C2458 C 0.04366 0.28993 0.02136 0.0
C2459 C 0.05826 0.30696 0.02274 0.0
C2460 C 0.01641 0.26581 0.03873 0.0
C2461 C 0.99743 0.27205 0.02831 0.0
C2462 C 0.01701 0.24612 0.04996 0.0
C2463 C 0.03692 0.23825 0.06041 0.0
C2464 C 0.05619 0.23691 0.04876 0.0
C2465 C 0.07492 0.22962 0.0587 0.0
C2466 C 0.07457 0.2235 0.08028 0.0
C2467 C 0.05547 0.22462 0.09195 0.0
C2468 C 0.0367 0.23192 0.08208 0.0
C2469 C 0.93355 0.20234 0.02705 0.0
C2470 C 0.92864 0.19355 0.04726 0.0
C2471 C 0.94931 0.21823 0.02512 0.0
C2472 C 0.96011 0.22586 0.0434 0.0
C2473 C 0.95392 0.21831 0.06371 0.0
C2474 C 0.93842 0.20228 0.06562 0.0
C2475 C 0.97913 0.24012 0.0414 0.0
C2476 C 0.99838 0.23357 0.05116 0.0
C2477 C 0.97871 0.25957 0.02967 0.0
C2478 C 0.95877 0.26788 0.01969 0.0
C2479 C 0.94015 0.2709 0.03207 0.0
C2480 C 0.92142 0.27871 0.02254 0.0
C2481 C 0.92114 0.28371 0.00067 0.0
C2482 C 0.93962 0.28096 0.9883 0.0
C2483 C 0.9584 0.27314 0.99775 0.0
H2484 H 0.90662 0.28976 0.99333 0.0
H2485 H 0.08909 0.21786 0.08795 0.0
H2486 H 0.06558 0.68073 0.52004 0.0
H2487 H 0.04353 0.71327 0.52385 0.0
H2488 H 0.04069 0.71935 0.45493 0.0
H2489 H 0.06209 0.68667 0.4511 0.0
H2490 H 0.04485 0.75977 0.47888 0.0
H2491 H 0.00335 0.69265 0.47666 0.0
H2492 H 0.99434 0.6568 0.49083 0.0
H2493 H 0.97934 0.68446 0.55217 0.0
H2494 H 0.9886 0.72045 0.53843 0.0
H2495 H 0.95474 0.81308 0.44315 0.0
H2496 H 0.98145 0.78536 0.45019 0.0
H2497 H 0.9603 0.78134 0.51603 0.0
H2498 H 0.93299 0.80874 0.50886 0.0
H2499 H 0.97052 0.74255 0.50162 0.0
H2500 H 0.00552 0.80983 0.50364 0.0
H2501 H 0.01565 0.84621 0.49171 0.0
H2502 H 0.04422 0.81997 0.43478 0.0
H2503 H 0.03407 0.78346 0.44621 0.0
C2504 C 0.06086 0.68951 0.50578 0.0
C2505 C 0.06552 0.68137 0.48528 0.0
C2506 C 0.04819 0.70795 0.50797 0.0
C2507 C 0.04041 0.71855 0.48965 0.0
C2508 C 0.0466 0.7114 0.46923 0.0
C2509 C 0.05882 0.69279 0.46705 0.0
C2510 C 0.02382 0.73544 0.49132 0.0
C2511 C 0.0286 0.75609 0.48387 0.0
C2512 C 0.00283 0.73073 0.49851 0.0
C2513 C 0.99691 0.70917 0.50661 0.0
C2514 C 0.99829 0.69105 0.49322 0.0
C2515 C 0.99312 0.67072 0.50116 0.0
C2516 C 0.98634 0.66834 0.52241 0.0
C2517 C 0.98464 0.68631 0.53573 0.0
C2518 C 0.98985 0.70668 0.52788 0.0
C2519 C 0.95549 0.806 0.45902 0.0
C2520 C 0.94182 0.81313 0.47546 0.0
C2521 C 0.9709 0.79031 0.4631 0.0
C2522 C 0.97332 0.78174 0.48381 0.0
C2523 C 0.95886 0.78787 0.49997 0.0
C2524 C 0.94317 0.80342 0.49581 0.0
C2525 C 0.99132 0.76682 0.48844 0.0
C2526 C 0.98683 0.74651 0.49707 0.0
C2527 C 0.01271 0.77199 0.48271 0.0
C2528 C 0.0189 0.79392 0.47573 0.0
C2529 C 0.01383 0.81184 0.48851 0.0
C2530 C 0.01959 0.83247 0.48185 0.0
C2531 C 0.03051 0.83539 0.46249 0.0
C2532 C 0.03575 0.81768 0.44977 0.0
C2533 C 0.03004 0.79701 0.45635 0.0
H2534 H 0.03495 0.85138 0.45736 0.0
H2535 H 0.98235 0.65258 0.52854 0.0
H2536 H 0.56621 0.79233 0.5529 0.0
H2537 H 0.54129 0.76254 0.54643 0.0
H2538 H 0.53215 0.78416 0.48129 0.0
H2539 H 0.55782 0.8135 0.48748 0.0
H2540 H 0.49284 0.77845 0.51059 0.0
H2541 H 0.55303 0.74222 0.48074 0.0
H2542 H 0.59036 0.72936 0.47904 0.0
H2543 H 0.58066 0.69242 0.53641 0.0
H2544 H 0.54334 0.70536 0.53866 0.0
H2545 H 0.42416 0.6855 0.49341 0.0
H2546 H 0.44974 0.71504 0.48861 0.0
H2547 H 0.48229 0.6963 0.54676 0.0
H2548 H 0.45705 0.66703 0.55172 0.0
H2549 H 0.51002 0.70076 0.51333 0.0
H2550 H 0.45159 0.74039 0.5455 0.0
H2551 H 0.41447 0.75376 0.54804 0.0
H2552 H 0.42094 0.78456 0.48672 0.0
H2553 H 0.45804 0.77111 0.48367 0.0
C2554 C 0.55939 0.79025 0.53703 0.0
C2555 C 0.56415 0.80482 0.52056 0.0
C2556 C 0.54511 0.77338 0.53338 0.0
C2557 C 0.53493 0.77123 0.5134 0.0
C2558 C 0.53996 0.78554 0.49676 0.0
C2559 C 0.55474 0.80209 0.50024 0.0
C2560 C 0.51804 0.75481 0.51068 0.0
C2561 C 0.49653 0.76143 0.51066 0.0
C2562 C 0.52297 0.73271 0.51115 0.0
C2563 C 0.54543 0.72495 0.50998 0.0
C2564 C 0.55891 0.73155 0.49313 0.0
C2565 C 0.58006 0.7242 0.49204 0.0
C2566 C 0.58789 0.71013 0.50764 0.0
C2567 C 0.57458 0.70335 0.52435 0.0
C2568 C 0.55341 0.71067 0.52553 0.0
C2569 C 0.43653 0.68791 0.50537 0.0
C2570 C 0.43859 0.67375 0.52287 0.0
C2571 C 0.45118 0.70475 0.50256 0.0
C2572 C 0.46805 0.70771 0.51723 0.0
C2573 C 0.46956 0.69416 0.53511 0.0
C2574 C 0.45499 0.67745 0.53796 0.0
C2575 C 0.48473 0.72434 0.51385 0.0
C2576 C 0.50625 0.71775 0.51279 0.0
C2577 C 0.47977 0.74646 0.51244 0.0
C2578 C 0.45748 0.75449 0.51422 0.0
C2579 C 0.44502 0.74983 0.53245 0.0
C2580 C 0.424 0.75746 0.53401 0.0
C2581 C 0.41532 0.76993 0.51751 0.0
C2582 C 0.42767 0.77485 0.49945 0.0
C2583 C 0.44869 0.76723 0.49781 0.0
H2584 H 0.39905 0.77584 0.51876 0.0
H2585 H 0.60427 0.70444 0.50675 0.0
H2586 H 0.51041 0.52277 0.82986 0.0
H2587 H 0.50984 0.49975 0.79838 0.0
H2588 H 0.5182 0.55504 0.75752 0.0
H2589 H 0.51789 0.57853 0.78935 0.0
H2590 H 0.49157 0.52741 0.73917 0.0
H2591 H 0.56094 0.52158 0.77094 0.0
H2592 H 0.58728 0.51602 0.79994 0.0
H2593 H 0.56356 0.45208 0.80978 0.0
H2594 H 0.53687 0.45737 0.78102 0.0
H2595 H 0.53484 0.47013 0.65089 0.0
H2596 H 0.53009 0.49308 0.68208 0.0
H2597 H 0.50955 0.43861 0.71945 0.0
H2598 H 0.51406 0.41522 0.68794 0.0
H2599 H 0.54167 0.46548 0.73922 0.0
H2600 H 0.47305 0.47217 0.70479 0.0
H2601 H 0.44884 0.47871 0.67418 0.0
H2602 H 0.47396 0.5425 0.66742 0.0
H2603 H 0.49857 0.53623 0.6978 0.0
C2604 C 0.51212 0.53011 0.81418 0.0
C2605 C 0.51461 0.55244 0.81208 0.0
C2606 C 0.51183 0.51688 0.79617 0.0
C2607 C 0.51462 0.52554 0.77558 0.0
C2608 C 0.51624 0.54797 0.77327 0.0
C2609 C 0.51611 0.56136 0.79142 0.0
C2610 C 0.51636 0.51093 0.75675 0.0
C2611 C 0.50272 0.51405 0.73908 0.0
C2612 C 0.53067 0.49322 0.7567 0.0
C2613 C 0.54677 0.48995 0.77396 0.0
C2614 C 0.56124 0.50639 0.77939 0.0
C2615 C 0.57625 0.50328 0.79577 0.0
C2616 C 0.57706 0.48373 0.80673 0.0
C2617 C 0.5629 0.46723 0.80129 0.0
C2618 C 0.54784 0.47026 0.78494 0.0
C2619 C 0.52938 0.46286 0.66571 0.0
C2620 C 0.52494 0.44072 0.6669 0.0
C2621 C 0.52652 0.47612 0.6835 0.0
C2622 C 0.51927 0.4676 0.70297 0.0
C2623 C 0.51507 0.44548 0.70446 0.0
C2624 C 0.51766 0.43216 0.68648 0.0
C2625 C 0.51681 0.4819 0.72183 0.0
C2626 C 0.53043 0.47877 0.73943 0.0
C2627 C 0.50276 0.49976 0.72161 0.0
C2628 C 0.4878 0.50365 0.70347 0.0
C2629 C 0.47354 0.48753 0.69668 0.0
C2630 C 0.45972 0.49121 0.67938 0.0
C2631 C 0.4599 0.51099 0.66883 0.0
C2632 C 0.47385 0.52718 0.6756 0.0
C2633 C 0.48772 0.52358 0.69287 0.0
H2634 H 0.4492 0.5138 0.65543 0.0
H2635 H 0.58869 0.48135 0.8194 0.0
H2636 H 0.51292 0.93391 0.80941 0.0
H2637 H 0.51788 0.95991 0.78012 0.0
H2638 H 0.44928 0.96612 0.77404 0.0
H2639 H 0.4443 0.94073 0.80357 0.0
H2640 H 0.47328 0.96459 0.73377 0.0
H2641 H 0.4732 0.99931 0.80452 0.0
H2642 H 0.48774 0.0053 0.84086 0.0
H2643 H 0.54868 0.02266 0.81396 0.0
H2644 H 0.5346 0.01636 0.77744 0.0
H2645 H 0.44107 0.0581 0.6875 0.0
H2646 H 0.44703 0.0325 0.7165 0.0
H2647 H 0.51473 0.0464 0.71525 0.0
H2648 H 0.50885 0.07236 0.68623 0.0
H2649 H 0.49915 0.03632 0.75702 0.0
H2650 H 0.50033 0.00636 0.68726 0.0
H2651 H 0.48814 0.00028 0.65011 0.0
H2652 H 0.42945 0.97293 0.67352 0.0
H2653 H 0.44114 0.97918 0.71085 0.0
C2654 C 0.49894 0.9403 0.80129 0.0
C2655 C 0.47822 0.93529 0.80857 0.0
C2656 C 0.5018 0.95527 0.78476 0.0
C2657 C 0.48393 0.96504 0.77513 0.0
C2658 C 0.46325 0.95875 0.78131 0.0
C2659 C 0.46041 0.94421 0.79808 0.0
C2660 C 0.4864 0.98303 0.75985 0.0
C2661 C 0.47894 0.98026 0.73883 0.0
C2662 C 0.49455 0.00326 0.7663 0.0
C2663 C 0.50294 0.00705 0.78826 0.0
C2664 C 0.48977 0.00416 0.80636 0.0
C2665 C 0.49792 0.00766 0.82699 0.0
C2666 C 0.51915 0.01428 0.82972 0.0
C2667 C 0.53226 0.01746 0.81182 0.0
C2668 C 0.52421 0.01392 0.79115 0.0
C2669 C 0.45714 0.05627 0.69386 0.0
C2670 C 0.47452 0.06703 0.6844 0.0
C2671 C 0.46054 0.04156 0.71036 0.0
C2672 C 0.4814 0.03716 0.71758 0.0
C2673 C 0.49854 0.04947 0.70977 0.0
C2674 C 0.49512 0.06438 0.69327 0.0
C2675 C 0.48521 0.01804 0.73121 0.0
C2676 C 0.49388 0.02056 0.75183 0.0
C2677 C 0.47863 0.99741 0.72428 0.0
C2678 C 0.47155 0.99339 0.70186 0.0
C2679 C 0.48475 0.9992 0.68449 0.0
C2680 C 0.47794 0.99571 0.6634 0.0
C2681 C 0.45801 0.98627 0.65945 0.0
C2682 C 0.44488 0.98025 0.6766 0.0
C2683 C 0.4516 0.98375 0.69774 0.0
H2684 H 0.45277 0.98357 0.64311 0.0
H2685 H 0.52542 0.017 0.8457 0.0
H2686 H 0.4232 0.306 0.97995 0.0
H2687 H 0.44949 0.27664 0.97964 0.0
H2688 H 0.47221 0.29766 0.91773 0.0
H2689 H 0.44636 0.32698 0.91804 0.0
H2690 H 0.45978 0.24266 0.95398 0.0
H2691 H 0.52624 0.29616 0.91668 0.0
H2692 H 0.53628 0.3344 0.91524 0.0
H2693 H 0.50342 0.34567 0.97476 0.0
H2694 H 0.49353 0.30745 0.97677 0.0
H2695 H 0.54173 0.18115 0.90882 0.0
H2696 H 0.51549 0.20942 0.91464 0.0
H2697 H 0.55145 0.23212 0.96921 0.0
H2698 H 0.578 0.20356 0.96363 0.0
H2699 H 0.53544 0.26526 0.94375 0.0
H2700 H 0.50926 0.20298 0.97893 0.0
H2701 H 0.49975 0.16477 0.98269 0.0
H2702 H 0.45291 0.17118 0.93257 0.0
H2703 H 0.46238 0.20937 0.92827 0.0
C2704 C 0.43345 0.30403 0.96606 0.0
C2705 C 0.43284 0.31897 0.94913 0.0
C2706 C 0.44855 0.28731 0.96595 0.0
C2707 C 0.46321 0.28531 0.94892 0.0
C2708 C 0.46144 0.29921 0.9313 0.0
C2709 C 0.44654 0.31591 0.93145 0.0
C2710 C 0.48108 0.26951 0.94982 0.0
C2711 C 0.47631 0.2476 0.95181 0.0
C2712 C 0.50276 0.27598 0.94758 0.0
C2713 C 0.509 0.29895 0.94677 0.0
C2714 C 0.52127 0.30677 0.92953 0.0
C2715 C 0.52693 0.32845 0.9286 0.0
C2716 C 0.52047 0.34247 0.94487 0.0
C2717 C 0.5084 0.33482 0.96215 0.0
C2718 C 0.50275 0.31314 0.96318 0.0
C2719 C 0.54434 0.19225 0.92195 0.0
C2720 C 0.56198 0.18987 0.93589 0.0
C2721 C 0.52918 0.20836 0.9253 0.0
C2722 C 0.53125 0.22256 0.94263 0.0
C2723 C 0.54946 0.22117 0.95584 0.0
C2724 C 0.56468 0.2049 0.95256 0.0
C2725 C 0.51402 0.23842 0.947 0.0
C2726 C 0.51892 0.26034 0.94607 0.0
C2727 C 0.49253 0.23197 0.95057 0.0
C2728 C 0.48665 0.20902 0.95317 0.0
C2729 C 0.49705 0.19621 0.96859 0.0
C2730 C 0.49165 0.17456 0.97084 0.0
C2731 C 0.47576 0.16554 0.95785 0.0
C2732 C 0.46522 0.17818 0.94261 0.0
C2733 C 0.47058 0.19984 0.94028 0.0
H2734 H 0.47159 0.14877 0.95962 0.0
H2735 H 0.52485 0.35925 0.94404 0.0
loop_
_geom_bond_atom_site_label_1
_geom_bond_atom_site_label_2
_geom_bond_distance
_geom_bond_site_symmetry_2
_ccdc_geom_bond_type
Co0 O1 2.216 1_655 S
Co0 O2 2.091 . S
Co0 O4 2.004 . S
Co0 O10 2.021 . S
Co0 O12 2.137 1_655 S
Co0 O13 2.244 1_655 S
O1 Co0 2.216 1_455 S
O1 C8 1.247 1_455 S
O2 Co0 2.091 . S
O2 C8 1.261 . S
C3 O12 1.247 . S
C3 O13 1.272 . S
O4 Co0 2.004 . S
O4 C9 1.259 . S
Co5 O6 2.061 1_455 S
Co5 O11 2.052 . S
Co5 O13 2.135 . S
O6 Co5 2.061 1_655 S
O6 C9 1.235 . S
C7 O10 1.238 1_455 S
C7 O11 1.241 . S
C8 O1 1.247 1_655 S
C8 O2 1.261 . S
C9 O4 1.259 . S
C9 O6 1.235 . S
O10 Co0 2.021 . S
O10 C7 1.238 1_655 S
O11 Co5 2.052 . S
O11 C7 1.241 . S
O12 Co0 2.137 1_455 S
O12 C3 1.247 . S
O13 Co0 2.244 1_455 S
O13 C3 1.272 . S
O13 Co5 2.135 . S
Co14 O15 2.216 1_455 S
Co14 O16 2.091 . S
Co14 O18 2.004 . S
Co14 O24 2.021 . S
Co14 O26 2.137 1_455 S
Co14 O27 2.244 1_455 S
O15 Co14 2.216 1_655 S
O15 C22 1.247 1_655 S
O16 Co14 2.091 . S
O16 C22 1.261 . S
C17 O26 1.247 . S
C17 O27 1.272 . S
O18 Co14 2.004 . S
O18 C23 1.259 . S
Co19 O20 2.061 1_655 S
Co19 O25 2.052 . S
Co19 O27 2.135 . S
O20 Co19 2.061 1_455 S
O20 C23 1.235 . S
C21 O24 1.238 1_655 S
C21 O25 1.241 . S
C22 O15 1.247 1_455 S
C22 O16 1.261 . S
C23 O18 1.259 . S
C23 O20 1.235 . S
O24 Co14 2.021 . S
O24 C21 1.238 1_455 S
O25 Co19 2.052 . S
O25 C21 1.241 . S
O26 Co14 2.137 1_655 S
O26 C17 1.247 . S
O27 Co14 2.244 1_655 S
O27 C17 1.272 . S
O27 Co19 2.135 . S
Co28 O29 2.216 1_655 S
Co28 O30 2.091 . S
Co28 O32 2.004 . S
Co28 O38 2.021 . S
Co28 O40 2.137 1_655 S
Co28 O41 2.244 1_655 S
O29 Co28 2.216 1_455 S
O29 C36 1.247 1_455 S
O30 Co28 2.091 . S
O30 C36 1.261 . S
C31 O40 1.247 . S
C31 O41 1.272 . S
O32 Co28 2.004 . S
O32 C37 1.259 . S
Co33 O34 2.061 1_455 S
Co33 O39 2.052 . S
Co33 O41 2.135 . S
O34 Co33 2.061 1_655 S
O34 C37 1.235 . S
C35 O38 1.238 1_455 S
C35 O39 1.241 . S
C36 O29 1.247 1_655 S
C36 O30 1.261 . S
C37 O32 1.259 . S
C37 O34 1.235 . S
O38 Co28 2.021 . S
O38 C35 1.238 1_655 S
O39 Co33 2.052 . S
O39 C35 1.241 . S
O40 Co28 2.137 1_455 S
O40 C31 1.247 . S
O41 Co28 2.244 1_455 S
O41 C31 1.272 . S
O41 Co33 2.135 . S
Co42 O43 2.216 1_455 S
Co42 O44 2.091 . S
Co42 O46 2.004 . S
Co42 O52 2.021 . S
Co42 O54 2.137 1_455 S
Co42 O55 2.244 1_455 S
O43 Co42 2.216 1_655 S
O43 C50 1.247 1_655 S
O44 Co42 2.091 . S
O44 C50 1.261 . S
C45 O54 1.247 . S
C45 O55 1.272 . S
O46 Co42 2.004 . S
O46 C51 1.259 . S
Co47 O48 2.061 1_655 S
Co47 O53 2.052 . S
Co47 O55 2.135 . S
O48 Co47 2.061 1_455 S
O48 C51 1.235 . S
C49 O52 1.238 1_655 S
C49 O53 1.241 . S
C50 O43 1.247 1_455 S
C50 O44 1.261 . S
C51 O46 1.259 . S
C51 O48 1.235 . S
O52 Co42 2.021 . S
O52 C49 1.238 1_455 S
O53 Co47 2.052 . S
O53 C49 1.241 . S
O54 Co42 2.137 1_655 S
O54 C45 1.247 . S
O55 Co42 2.244 1_655 S
O55 C45 1.272 . S
O55 Co47 2.135 . S
Co56 O57 2.216 1_565 S
Co56 O58 2.091 . S
Co56 O60 2.004 . S
Co56 O66 2.021 . S
Co56 O68 2.137 1_565 S
Co56 O69 2.244 1_565 S
O57 Co56 2.216 1_545 S
O57 C64 1.247 1_545 S
O58 Co56 2.091 . S
O58 C64 1.261 . S
C59 O68 1.247 . S
C59 O69 1.272 . S
O60 Co56 2.004 . S
O60 C65 1.259 . S
Co61 O62 2.061 1_545 S
Co61 O67 2.052 . S
Co61 O69 2.135 . S
O62 Co61 2.061 1_565 S
O62 C65 1.235 . S
C63 O66 1.238 1_545 S
C63 O67 1.241 . S
C64 O57 1.247 1_565 S
C64 O58 1.261 . S
C65 O60 1.259 . S
C65 O62 1.235 . S
O66 Co56 2.021 . S
O66 C63 1.238 1_565 S
O67 Co61 2.052 . S
O67 C63 1.241 . S
O68 Co56 2.137 1_545 S
O68 C59 1.247 . S
O69 Co56 2.244 1_545 S
O69 C59 1.272 . S
O69 Co61 2.135 . S
Co70 O71 2.216 . S
Co70 O72 2.091 . S
Co70 O74 2.004 . S
Co70 O80 2.021 . S
Co70 O82 2.137 . S
Co70 O83 2.244 . S
O71 Co70 2.216 . S
O71 C78 1.247 . S
O72 Co70 2.091 . S
O72 C78 1.261 . S
C73 O82 1.247 . S
C73 O83 1.272 . S
O74 Co70 2.004 . S
O74 C79 1.259 . S
Co75 O76 2.061 . S
Co75 O81 2.052 . S
Co75 O83 2.135 . S
O76 Co75 2.061 . S
O76 C79 1.235 . S
C77 O80 1.238 . S
C77 O81 1.241 . S
C78 O71 1.247 . S
C78 O72 1.261 . S
C79 O74 1.259 . S
C79 O76 1.235 . S
O80 Co70 2.021 . S
O80 C77 1.238 . S
O81 Co75 2.052 . S
O81 C77 1.241 . S
O82 Co70 2.137 . S
O82 C73 1.247 . S
O83 Co70 2.244 . S
O83 C73 1.272 . S
O83 Co75 2.135 . S
Co84 O85 2.216 1_545 S
Co84 O86 2.091 . S
Co84 O88 2.004 . S
Co84 O94 2.021 . S
Co84 O96 2.137 1_545 S
Co84 O97 2.244 1_545 S
O85 Co84 2.216 1_565 S
O85 C92 1.247 1_565 S
O86 Co84 2.091 . S
O86 C92 1.261 . S
C87 O96 1.247 . S
C87 O97 1.272 . S
O88 Co84 2.004 . S
O88 C93 1.259 . S
Co89 O90 2.061 1_565 S
Co89 O95 2.052 . S
Co89 O97 2.135 . S
O90 Co89 2.061 1_545 S
O90 C93 1.235 . S
C91 O94 1.238 1_565 S
C91 O95 1.241 . S
C92 O85 1.247 1_545 S
C92 O86 1.261 . S
C93 O88 1.259 . S
C93 O90 1.235 . S
O94 Co84 2.021 . S
O94 C91 1.238 1_545 S
O95 Co89 2.052 . S
O95 C91 1.241 . S
O96 Co84 2.137 1_565 S
O96 C87 1.247 . S
O97 Co84 2.244 1_565 S
O97 C87 1.272 . S
O97 Co89 2.135 . S
Co98 O99 2.216 . S
Co98 O100 2.091 . S
Co98 O102 2.004 . S
Co98 O108 2.021 . S
Co98 O110 2.137 . S
Co98 O111 2.244 . S
O99 Co98 2.216 . S
O99 C106 1.247 . S
O100 Co98 2.091 . S
O100 C106 1.261 . S
C101 O110 1.247 . S
C101 O111 1.272 . S
O102 Co98 2.004 . S
O102 C107 1.259 . S
Co103 O104 2.061 . S
Co103 O109 2.052 . S
Co103 O111 2.135 . S
O104 Co103 2.061 . S
O104 C107 1.235 . S
C105 O108 1.238 . S
C105 O109 1.241 . S
C106 O99 1.247 . S
C106 O100 1.261 . S
C107 O102 1.259 . S
C107 O104 1.235 . S
O108 Co98 2.021 . S
O108 C105 1.238 . S
O109 Co103 2.052 . S
O109 C105 1.241 . S
O110 Co98 2.137 . S
O110 C101 1.247 . S
O111 Co98 2.244 . S
O111 C101 1.272 . S
O111 Co103 2.135 . S
Co112 O113 2.216 1_556 S
Co112 O114 2.091 . S
Co112 O116 2.004 . S
Co112 O122 2.021 . S
Co112 O124 2.137 1_556 S
Co112 O125 2.244 1_556 S
O113 Co112 2.216 1_554 S
O113 C120 1.247 1_554 S
O114 Co112 2.091 . S
O114 C120 1.261 . S
C115 O124 1.247 . S
C115 O125 1.272 . S
O116 Co112 2.004 . S
O116 C121 1.259 . S
Co117 O118 2.061 1_554 S
Co117 O123 2.052 . S
Co117 O125 2.135 . S
O118 Co117 2.061 1_556 S
O118 C121 1.235 . S
C119 O122 1.238 1_554 S
C119 O123 1.241 . S
C120 O113 1.247 1_556 S
C120 O114 1.261 . S
C121 O116 1.259 . S
C121 O118 1.235 . S
O122 Co112 2.021 . S
O122 C119 1.238 1_556 S
O123 Co117 2.052 . S
O123 C119 1.241 . S
O124 Co112 2.137 1_554 S
O124 C115 1.247 . S
O125 Co112 2.244 1_554 S
O125 C115 1.272 . S
O125 Co117 2.135 . S
Co126 O127 2.216 . S
Co126 O128 2.091 . S
Co126 O130 2.004 . S
Co126 O136 2.021 . S
Co126 O138 2.137 . S
Co126 O139 2.244 . S
O127 Co126 2.216 . S
O127 C134 1.247 . S
O128 Co126 2.091 . S
O128 C134 1.261 . S
C129 O138 1.247 . S
C129 O139 1.272 . S
O130 Co126 2.004 . S
O130 C135 1.259 . S
Co131 O132 2.061 . S
Co131 O137 2.052 . S
Co131 O139 2.135 . S
O132 Co131 2.061 . S
O132 C135 1.235 . S
C133 O136 1.238 . S
C133 O137 1.241 . S
C134 O127 1.247 . S
C134 O128 1.261 . S
C135 O130 1.259 . S
C135 O132 1.235 . S
O136 Co126 2.021 . S
O136 C133 1.238 . S
O137 Co131 2.052 . S
O137 C133 1.241 . S
O138 Co126 2.137 . S
O138 C129 1.247 . S
O139 Co126 2.244 . S
O139 C129 1.272 . S
O139 Co131 2.135 . S
Co140 O141 2.216 . S
Co140 O142 2.091 . S
Co140 O144 2.004 . S
Co140 O150 2.021 . S
Co140 O152 2.137 . S
Co140 O153 2.244 . S
O141 Co140 2.216 . S
O141 C148 1.247 . S
O142 Co140 2.091 . S
O142 C148 1.261 . S
C143 O152 1.247 . S
C143 O153 1.272 . S
O144 Co140 2.004 . S
O144 C149 1.259 . S
Co145 O146 2.061 . S
Co145 O151 2.052 . S
Co145 O153 2.135 . S
O146 Co145 2.061 . S
O146 C149 1.235 . S
C147 O150 1.238 . S
C147 O151 1.241 . S
C148 O141 1.247 . S
C148 O142 1.261 . S
C149 O144 1.259 . S
C149 O146 1.235 . S
O150 Co140 2.021 . S
O150 C147 1.238 . S
O151 Co145 2.052 . S
O151 C147 1.241 . S
O152 Co140 2.137 . S
O152 C143 1.247 . S
O153 Co140 2.244 . S
O153 C143 1.272 . S
O153 Co145 2.135 . S
Co154 O155 2.216 . S
Co154 O156 2.091 . S
Co154 O158 2.004 . S
Co154 O164 2.021 . S
Co154 O166 2.137 . S
Co154 O167 2.244 . S
O155 Co154 2.216 . S
O155 C162 1.247 . S
O156 Co154 2.091 . S
O156 C162 1.261 . S
C157 O166 1.247 . S
C157 O167 1.272 . S
O158 Co154 2.004 . S
O158 C163 1.259 . S
Co159 O160 2.061 . S
Co159 O165 2.052 . S
Co159 O167 2.135 . S
O160 Co159 2.061 . S
O160 C163 1.235 . S
C161 O164 1.238 . S
C161 O165 1.241 . S
C162 O155 1.247 . S
C162 O156 1.261 . S
C163 O158 1.259 . S
C163 O160 1.235 . S
O164 Co154 2.021 . S
O164 C161 1.238 . S
O165 Co159 2.052 . S
O165 C161 1.241 . S
O166 Co154 2.137 . S
O166 C157 1.247 . S
O167 Co154 2.244 . S
O167 C157 1.272 . S
O167 Co159 2.135 . S
Co168 O169 2.216 . S
Co168 O170 2.091 . S
Co168 O172 2.004 . S
Co168 O178 2.021 . S
Co168 O180 2.137 . S
Co168 O181 2.244 . S
O169 Co168 2.216 . S
O169 C176 1.247 . S
O170 Co168 2.091 . S
O170 C176 1.261 . S
C171 O180 1.247 . S
C171 O181 1.272 . S
O172 Co168 2.004 . S
O172 C177 1.259 . S
Co173 O174 2.061 . S
Co173 O179 2.052 . S
Co173 O181 2.135 . S
O174 Co173 2.061 . S
O174 C177 1.235 . S
C175 O178 1.238 . S
C175 O179 1.241 . S
C176 O169 1.247 . S
C176 O170 1.261 . S
C177 O172 1.259 . S
C177 O174 1.235 . S
O178 Co168 2.021 . S
O178 C175 1.238 . S
O179 Co173 2.052 . S
O179 C175 1.241 . S
O180 Co168 2.137 . S
O180 C171 1.247 . S
O181 Co168 2.244 . S
O181 C171 1.272 . S
O181 Co173 2.135 . S
Co182 O183 2.216 . S
Co182 O184 2.091 . S
Co182 O186 2.004 . S
Co182 O192 2.021 . S
Co182 O194 2.137 . S
Co182 O195 2.244 . S
O183 Co182 2.216 . S
O183 C190 1.247 . S
O184 Co182 2.091 . S
O184 C190 1.261 . S
C185 O194 1.247 . S
C185 O195 1.272 . S
O186 Co182 2.004 . S
O186 C191 1.259 . S
Co187 O188 2.061 . S
Co187 O193 2.052 . S
Co187 O195 2.135 . S
O188 Co187 2.061 . S
O188 C191 1.235 . S
C189 O192 1.238 . S
C189 O193 1.241 . S
C190 O183 1.247 . S
C190 O184 1.261 . S
C191 O186 1.259 . S
C191 O188 1.235 . S
O192 Co182 2.021 . S
O192 C189 1.238 . S
O193 Co187 2.052 . S
O193 C189 1.241 . S
O194 Co182 2.137 . S
O194 C185 1.247 . S
O195 Co182 2.244 . S
O195 C185 1.272 . S
O195 Co187 2.135 . S
Co196 O197 2.216 . S
Co196 O198 2.091 . S
Co196 O200 2.004 . S
Co196 O206 2.021 . S
Co196 O208 2.137 . S
Co196 O209 2.244 . S
O197 Co196 2.216 . S
O197 C204 1.247 . S
O198 Co196 2.091 . S
O198 C204 1.261 . S
C199 O208 1.247 . S
C199 O209 1.272 . S
O200 Co196 2.004 . S
O200 C205 1.259 . S
Co201 O202 2.061 . S
Co201 O207 2.052 . S
Co201 O209 2.135 . S
O202 Co201 2.061 . S
O202 C205 1.235 . S
C203 O206 1.238 . S
C203 O207 1.241 . S
C204 O197 1.247 . S
C204 O198 1.261 . S
C205 O200 1.259 . S
C205 O202 1.235 . S
O206 Co196 2.021 . S
O206 C203 1.238 . S
O207 Co201 2.052 . S
O207 C203 1.241 . S
O208 Co196 2.137 . S
O208 C199 1.247 . S
O209 Co196 2.244 . S
O209 C199 1.272 . S
O209 Co201 2.135 . S
Co210 O211 2.216 . S
Co210 O212 2.091 . S
Co210 O214 2.004 . S
Co210 O220 2.021 . S
Co210 O222 2.137 . S
Co210 O223 2.244 . S
O211 Co210 2.216 . S
O211 C218 1.247 . S
O212 Co210 2.091 . S
O212 C218 1.261 . S
C213 O222 1.247 . S
C213 O223 1.272 . S
O214 Co210 2.004 . S
O214 C219 1.259 . S
Co215 O216 2.061 . S
Co215 O221 2.052 . S
Co215 O223 2.135 . S
O216 Co215 2.061 . S
O216 C219 1.235 . S
C217 O220 1.238 . S
C217 O221 1.241 . S
C218 O211 1.247 . S
C218 O212 1.261 . S
C219 O214 1.259 . S
C219 O216 1.235 . S
O220 Co210 2.021 . S
O220 C217 1.238 . S
O221 Co215 2.052 . S
O221 C217 1.241 . S
O222 Co210 2.137 . S
O222 C213 1.247 . S
O223 Co210 2.244 . S
O223 C213 1.272 . S
O223 Co215 2.135 . S
Co224 O225 2.216 . S
Co224 O226 2.091 . S
Co224 O228 2.004 . S
Co224 O234 2.021 . S
Co224 O236 2.137 . S
Co224 O237 2.244 . S
O225 Co224 2.216 . S
O225 C232 1.247 . S
O226 Co224 2.091 . S
O226 C232 1.261 . S
C227 O236 1.247 . S
C227 O237 1.272 . S
O228 Co224 2.004 . S
O228 C233 1.259 . S
Co229 O230 2.061 . S
Co229 O235 2.052 . S
Co229 O237 2.135 . S
O230 Co229 2.061 . S
O230 C233 1.235 . S
C231 O234 1.238 . S
C231 O235 1.241 . S
C232 O225 1.247 . S
C232 O226 1.261 . S
C233 O228 1.259 . S
C233 O230 1.235 . S
O234 Co224 2.021 . S
O234 C231 1.238 . S
O235 Co229 2.052 . S
O235 C231 1.241 . S
O236 Co224 2.137 . S
O236 C227 1.247 . S
O237 Co224 2.244 . S
O237 C227 1.272 . S
O237 Co229 2.135 . S
Co238 O239 2.216 1_545 S
Co238 O240 2.091 . S
Co238 O242 2.004 . S
Co238 O248 2.021 . S
Co238 O250 2.137 1_545 S
Co238 O251 2.244 1_545 S
O239 Co238 2.216 1_565 S
O239 C246 1.247 1_565 S
O240 Co238 2.091 . S
O240 C246 1.261 . S
C241 O250 1.247 . S
C241 O251 1.272 . S
O242 Co238 2.004 . S
O242 C247 1.259 . S
Co243 O244 2.061 1_565 S
Co243 O249 2.052 . S
Co243 O251 2.135 . S
O244 Co243 2.061 1_545 S
O244 C247 1.235 . S
C245 O248 1.238 1_565 S
C245 O249 1.241 . S
C246 O239 1.247 1_545 S
C246 O240 1.261 . S
C247 O242 1.259 . S
C247 O244 1.235 . S
O248 Co238 2.021 . S
O248 C245 1.238 1_545 S
O249 Co243 2.052 . S
O249 C245 1.241 . S
O250 Co238 2.137 1_565 S
O250 C241 1.247 . S
O251 Co238 2.244 1_565 S
O251 C241 1.272 . S
O251 Co243 2.135 . S
Co252 O253 2.216 . S
Co252 O254 2.091 . S
Co252 O256 2.004 . S
Co252 O262 2.021 . S
Co252 O264 2.137 . S
Co252 O265 2.244 . S
O253 Co252 2.216 . S
O253 C260 1.247 . S
O254 Co252 2.091 . S
O254 C260 1.261 . S
C255 O264 1.247 . S
C255 O265 1.272 . S
O256 Co252 2.004 . S
O256 C261 1.259 . S
Co257 O258 2.061 . S
Co257 O263 2.052 . S
Co257 O265 2.135 . S
O258 Co257 2.061 . S
O258 C261 1.235 . S
C259 O262 1.238 . S
C259 O263 1.241 . S
C260 O253 1.247 . S
C260 O254 1.261 . S
C261 O256 1.259 . S
C261 O258 1.235 . S
O262 Co252 2.021 . S
O262 C259 1.238 . S
O263 Co257 2.052 . S
O263 C259 1.241 . S
O264 Co252 2.137 . S
O264 C255 1.247 . S
O265 Co252 2.244 . S
O265 C255 1.272 . S
O265 Co257 2.135 . S
Co266 O267 2.216 1_565 S
Co266 O268 2.091 . S
Co266 O270 2.004 . S
Co266 O276 2.021 . S
Co266 O278 2.137 1_565 S
Co266 O279 2.244 1_565 S
O267 Co266 2.216 1_545 S
O267 C274 1.247 1_545 S
O268 Co266 2.091 . S
O268 C274 1.261 . S
C269 O278 1.247 . S
C269 O279 1.272 . S
O270 Co266 2.004 . S
O270 C275 1.259 . S
Co271 O272 2.061 1_545 S
Co271 O277 2.052 . S
Co271 O279 2.135 . S
O272 Co271 2.061 1_565 S
O272 C275 1.235 . S
C273 O276 1.238 1_545 S
C273 O277 1.241 . S
C274 O267 1.247 1_565 S
C274 O268 1.261 . S
C275 O270 1.259 . S
C275 O272 1.235 . S
O276 Co266 2.021 . S
O276 C273 1.238 1_565 S
O277 Co271 2.052 . S
O277 C273 1.241 . S
O278 Co266 2.137 1_545 S
O278 C269 1.247 . S
O279 Co266 2.244 1_545 S
O279 C269 1.272 . S
O279 Co271 2.135 . S
Co280 O281 2.216 . S
Co280 O282 2.091 . S
Co280 O284 2.004 . S
Co280 O290 2.021 . S
Co280 O292 2.137 . S
Co280 O293 2.244 . S
O281 Co280 2.216 . S
O281 C288 1.247 . S
O282 Co280 2.091 . S
O282 C288 1.261 . S
C283 O292 1.247 . S
C283 O293 1.272 . S
O284 Co280 2.004 . S
O284 C289 1.259 . S
Co285 O286 2.061 . S
Co285 O291 2.052 . S
Co285 O293 2.135 . S
O286 Co285 2.061 . S
O286 C289 1.235 . S
C287 O290 1.238 . S
C287 O291 1.241 . S
C288 O281 1.247 . S
C288 O282 1.261 . S
C289 O284 1.259 . S
C289 O286 1.235 . S
O290 Co280 2.021 . S
O290 C287 1.238 . S
O291 Co285 2.052 . S
O291 C287 1.241 . S
O292 Co280 2.137 . S
O292 C283 1.247 . S
O293 Co280 2.244 . S
O293 C283 1.272 . S
O293 Co285 2.135 . S
Co294 O295 2.216 1_554 S
Co294 O296 2.091 . S
Co294 O298 2.004 . S
Co294 O304 2.021 . S
Co294 O306 2.137 1_554 S
Co294 O307 2.244 1_554 S
O295 Co294 2.216 1_556 S
O295 C302 1.247 1_556 S
O296 Co294 2.091 . S
O296 C302 1.261 . S
C297 O306 1.247 . S
C297 O307 1.272 . S
O298 Co294 2.004 . S
O298 C303 1.259 . S
Co299 O300 2.061 1_556 S
Co299 O305 2.052 . S
Co299 O307 2.135 . S
O300 Co299 2.061 1_554 S
O300 C303 1.235 . S
C301 O304 1.238 1_556 S
C301 O305 1.241 . S
C302 O295 1.247 1_554 S
C302 O296 1.261 . S
C303 O298 1.259 . S
C303 O300 1.235 . S
O304 Co294 2.021 . S
O304 C301 1.238 1_554 S
O305 Co299 2.052 . S
O305 C301 1.241 . S
O306 Co294 2.137 1_556 S
O306 C297 1.247 . S
O307 Co294 2.244 1_556 S
O307 C297 1.272 . S
O307 Co299 2.135 . S
Co308 O309 2.216 1_554 S
Co308 O310 2.091 . S
Co308 O312 2.004 . S
Co308 O318 2.021 . S
Co308 O320 2.137 1_554 S
Co308 O321 2.244 1_554 S
O309 Co308 2.216 1_556 S
O309 C316 1.247 1_556 S
O310 Co308 2.091 . S
O310 C316 1.261 . S
C311 O320 1.247 . S
C311 O321 1.272 . S
O312 Co308 2.004 . S
O312 C317 1.259 . S
Co313 O314 2.061 1_556 S
Co313 O319 2.052 . S
Co313 O321 2.135 . S
O314 Co313 2.061 1_554 S
O314 C317 1.235 . S
C315 O318 1.238 1_556 S
C315 O319 1.241 . S
C316 O309 1.247 1_554 S
C316 O310 1.261 . S
C317 O312 1.259 . S
C317 O314 1.235 . S
O318 Co308 2.021 . S
O318 C315 1.238 1_554 S
O319 Co313 2.052 . S
O319 C315 1.241 . S
O320 Co308 2.137 1_556 S
O320 C311 1.247 . S
O321 Co308 2.244 1_556 S
O321 C311 1.272 . S
O321 Co313 2.135 . S
Co322 O323 2.216 1_556 S
Co322 O324 2.091 . S
Co322 O326 2.004 . S
Co322 O332 2.021 . S
Co322 O334 2.137 1_556 S
Co322 O335 2.244 1_556 S
O323 Co322 2.216 1_554 S
O323 C330 1.247 1_554 S
O324 Co322 2.091 . S
O324 C330 1.261 . S
C325 O334 1.247 . S
C325 O335 1.272 . S
O326 Co322 2.004 . S
O326 C331 1.259 . S
Co327 O328 2.061 1_554 S
Co327 O333 2.052 . S
Co327 O335 2.135 . S
O328 Co327 2.061 1_556 S
O328 C331 1.235 . S
C329 O332 1.238 1_554 S
C329 O333 1.241 . S
C330 O323 1.247 1_556 S
C330 O324 1.261 . S
C331 O326 1.259 . S
C331 O328 1.235 . S
O332 Co322 2.021 . S
O332 C329 1.238 1_556 S
O333 Co327 2.052 . S
O333 C329 1.241 . S
O334 Co322 2.137 1_554 S
O334 C325 1.247 . S
O335 Co322 2.244 1_554 S
O335 C325 1.272 . S
O335 Co327 2.135 . S
H336 C354 0.951 . S
H337 C356 0.951 . S
H338 C358 0.950 . S
H339 C359 0.950 . S
H340 C361 0.950 . S
H341 C364 0.947 1_545 S
H342 C365 0.950 . S
H343 C367 0.950 . S
H344 C368 0.950 . S
H345 C369 0.951 . S
H346 C371 0.951 . S
H347 C373 0.950 . S
H348 C374 0.950 . S
H349 C376 0.950 . S
H350 C379 0.950 . S
H351 C380 0.950 . S
H352 C382 0.950 . S
H353 C383 0.950 . S
C354 H336 0.951 . S
C354 C355 1.366 . S
C354 C356 1.388 . S
C355 C354 1.366 . S
C355 C359 1.385 . S
C356 H337 0.951 . S
C356 C354 1.388 . S
C356 C357 1.366 . S
C357 C356 1.366 . S
C357 C358 1.414 . S
C357 C360 1.499 . S
C358 H338 0.950 . S
C358 C357 1.414 . S
C358 C359 1.374 . S
C359 H339 0.950 . S
C359 C355 1.385 . S
C359 C358 1.374 . S
C360 C357 1.499 . S
C360 C361 1.373 . S
C360 C362 1.389 . S
C361 H340 0.950 . S
C361 C360 1.373 . S
C361 C377 1.377 . S
C362 C360 1.389 . S
C362 C363 1.524 . S
C362 C376 1.377 . S
C363 C362 1.524 . S
C363 C364 1.385 1_545 S
C363 C368 1.363 . S
C364 H341 0.947 1_565 S
C364 C363 1.385 1_565 S
C364 C365 1.348 . S
C365 H342 0.950 . S
C365 C364 1.348 . S
C365 C366 1.287 . S
C366 C365 1.287 . S
C366 C367 1.524 . S
C366 H385 0.913 . S
C367 H343 0.950 . S
C367 C366 1.524 . S
C367 C368 1.415 1_565 S
C368 H344 0.950 . S
C368 C363 1.363 . S
C368 C367 1.415 1_545 S
C369 H345 0.951 . S
C369 C370 1.366 . S
C369 C371 1.388 . S
C370 C369 1.366 . S
C370 C374 1.385 . S
C371 H346 0.951 . S
C371 C369 1.388 . S
C371 C372 1.366 . S
C372 C371 1.366 . S
C372 C373 1.414 . S
C372 C375 1.499 . S
C373 H347 0.950 . S
C373 C372 1.414 . S
C373 C374 1.374 . S
C374 H348 0.950 . S
C374 C370 1.385 . S
C374 C373 1.374 . S
C375 C372 1.499 . S
C375 C376 1.373 . S
C375 C377 1.389 . S
C376 H349 0.950 . S
C376 C362 1.377 . S
C376 C375 1.373 . S
C377 C361 1.377 . S
C377 C375 1.389 . S
C377 C378 1.524 . S
C378 C377 1.524 . S
C378 C379 1.397 . S
C378 C383 1.363 . S
C379 H350 0.950 . S
C379 C378 1.397 . S
C379 C380 1.334 . S
C380 H351 0.950 . S
C380 C379 1.334 . S
C380 C381 1.287 . S
C381 C380 1.287 . S
C381 C382 1.524 . S
C381 H384 0.999 . S
C382 H352 0.950 . S
C382 C381 1.524 . S
C382 C383 1.415 . S
C383 H353 0.950 . S
C383 C378 1.363 . S
C383 C382 1.415 . S
H384 C381 0.999 . S
H385 C366 0.913 . S
H386 C404 0.951 . S
H387 C406 0.951 . S
H388 C408 0.950 . S
H389 C409 0.950 . S
H390 C411 0.950 . S
H391 C414 0.950 . S
H392 C415 0.950 . S
H393 C417 0.950 . S
H394 C418 0.950 . S
H395 C419 0.951 . S
H396 C421 0.951 . S
H397 C423 0.950 . S
H398 C424 0.950 . S
H399 C426 0.950 . S
H400 C429 0.950 . S
H401 C430 0.950 . S
H402 C432 0.950 . S
H403 C433 0.950 . S
C404 H386 0.951 . S
C404 C405 1.366 . S
C404 C406 1.388 . S
C405 C404 1.366 . S
C405 C409 1.385 . S
C406 H387 0.951 . S
C406 C404 1.388 . S
C406 C407 1.366 . S
C407 C406 1.366 . S
C407 C408 1.414 . S
C407 C410 1.499 . S
C408 H388 0.950 . S
C408 C407 1.414 . S
C408 C409 1.374 . S
C409 H389 0.950 . S
C409 C405 1.385 . S
C409 C408 1.374 . S
C410 C407 1.499 . S
C410 C411 1.373 . S
C410 C412 1.389 . S
C411 H390 0.950 . S
C411 C410 1.373 . S
C411 C427 1.377 . S
C412 C410 1.389 . S
C412 C413 1.524 . S
C412 C426 1.377 . S
C413 C412 1.524 . S
C413 C414 1.397 . S
C413 C418 1.363 . S
C414 H391 0.950 . S
C414 C413 1.397 . S
C414 C415 1.334 . S
C415 H392 0.950 . S
C415 C414 1.334 . S
C415 C416 1.287 . S
C416 C415 1.287 . S
C416 C417 1.524 . S
C416 H435 0.913 . S
C417 H393 0.950 . S
C417 C416 1.524 . S
C417 C418 1.415 . S
C418 H394 0.950 . S
C418 C413 1.363 . S
C418 C417 1.415 . S
C419 H395 0.951 . S
C419 C420 1.366 . S
C419 C421 1.388 . S
C420 C419 1.366 . S
C420 C424 1.385 . S
C421 H396 0.951 . S
C421 C419 1.388 . S
C421 C422 1.366 . S
C422 C421 1.366 . S
C422 C423 1.414 . S
C422 C425 1.499 . S
C423 H397 0.950 . S
C423 C422 1.414 . S
C423 C424 1.374 . S
C424 H398 0.950 . S
C424 C420 1.385 . S
C424 C423 1.374 . S
C425 C422 1.499 . S
C425 C426 1.373 . S
C425 C427 1.389 . S
C426 H399 0.950 . S
C426 C412 1.377 . S
C426 C425 1.373 . S
C427 C411 1.377 . S
C427 C425 1.389 . S
C427 C428 1.524 . S
C428 C427 1.524 . S
C428 C429 1.397 . S
C428 C433 1.363 . S
C429 H400 0.950 . S
C429 C428 1.397 . S
C429 C430 1.334 . S
C430 H401 0.950 . S
C430 C429 1.334 . S
C430 C431 1.287 . S
C431 C430 1.287 . S
C431 C432 1.524 . S
C431 H434 0.999 . S
C432 H402 0.950 . S
C432 C431 1.524 . S
C432 C433 1.415 . S
C433 H403 0.950 . S
C433 C428 1.363 . S
C433 C432 1.415 . S
H434 C431 0.999 . S
H435 C416 0.913 . S
H436 C454 0.951 . S
H437 C456 0.951 . S
H438 C458 0.950 . S
H439 C459 0.950 . S
H440 C461 0.950 . S
H441 C464 0.950 . S
H442 C465 0.950 1_655 S
H443 C467 0.950 . S
H444 C468 0.950 . S
H445 C469 0.951 . S
H446 C471 0.951 . S
H447 C473 0.948 1_554 S
H448 C474 0.950 . S
H449 C476 0.950 . S
H450 C479 0.950 . S
H451 C480 0.950 . S
H452 C482 0.950 . S
H453 C483 0.950 . S
C454 H436 0.951 . S
C454 C455 1.366 . S
C454 C456 1.388 . S
C455 C454 1.366 . S
C455 C459 1.385 . S
C456 H437 0.951 . S
C456 C454 1.388 . S
C456 C457 1.366 . S
C457 C456 1.366 . S
C457 C458 1.414 . S
C457 C460 1.499 . S
C458 H438 0.950 . S
C458 C457 1.414 . S
C458 C459 1.374 . S
C459 H439 0.950 . S
C459 C455 1.385 . S
C459 C458 1.374 . S
C460 C457 1.499 . S
C460 C461 1.373 . S
C460 C462 1.389 . S
C461 H440 0.950 . S
C461 C460 1.373 . S
C461 C477 1.377 . S
C462 C460 1.389 . S
C462 C463 1.524 . S
C462 C476 1.377 . S
C463 C462 1.524 . S
C463 C464 1.397 . S
C463 C468 1.363 . S
C464 H441 0.950 . S
C464 C463 1.397 . S
C464 C465 1.334 . S
C465 H442 0.950 1_455 S
C465 C464 1.334 . S
C465 C466 1.287 . S
C466 C465 1.287 . S
C466 C467 1.524 1_565 S
C466 H485 0.926 1_565 S
C467 H443 0.950 . S
C467 C466 1.524 1_545 S
C467 C468 1.415 1_545 S
C468 H444 0.950 . S
C468 C463 1.363 . S
C468 C467 1.415 1_565 S
C469 H445 0.951 . S
C469 C470 1.366 . S
C469 C471 1.388 . S
C470 C469 1.366 . S
C470 C474 1.385 . S
C471 H446 0.951 . S
C471 C469 1.388 . S
C471 C472 1.366 . S
C472 C471 1.366 . S
C472 C473 1.414 . S
C472 C475 1.499 1_556 S
C473 H447 0.948 1_556 S
C473 C472 1.414 . S
C473 C474 1.374 . S
C474 H448 0.950 . S
C474 C470 1.385 . S
C474 C473 1.374 . S
C475 C472 1.499 1_554 S
C475 C476 1.373 . S
C475 C477 1.389 . S
C476 H449 0.950 . S
C476 C462 1.377 . S
C476 C475 1.373 . S
C477 C461 1.377 . S
C477 C475 1.389 . S
C477 C478 1.524 . S
C478 C477 1.524 . S
C478 C479 1.397 . S
C478 C483 1.363 . S
C479 H450 0.950 . S
C479 C478 1.397 . S
C479 C480 1.334 . S
C480 H451 0.950 . S
C480 C479 1.334 . S
C480 C481 1.287 . S
C481 C480 1.287 . S
C481 C482 1.524 . S
C481 H484 1.009 . S
C482 H452 0.950 . S
C482 C481 1.524 . S
C482 C483 1.415 . S
C483 H453 0.950 . S
C483 C478 1.363 . S
C483 C482 1.415 . S
H484 C481 1.009 . S
H485 C466 0.926 1_545 S
H486 C504 0.951 . S
H487 C506 0.951 . S
H488 C508 0.950 . S
H489 C509 0.950 . S
H490 C511 0.950 . S
H491 C514 0.950 . S
H492 C515 0.950 . S
H493 C517 0.950 . S
H494 C518 0.950 . S
H495 C519 0.951 . S
H496 C521 0.951 . S
H497 C523 0.950 . S
H498 C524 0.950 . S
H499 C526 0.950 . S
H500 C529 0.950 . S
H501 C530 0.950 . S
H502 C532 0.957 . S
H503 C533 0.950 . S
C504 H486 0.951 . S
C504 C505 1.366 . S
C504 C506 1.388 . S
C505 C504 1.366 . S
C505 C509 1.385 . S
C506 H487 0.951 . S
C506 C504 1.388 . S
C506 C507 1.366 . S
C507 C506 1.366 . S
C507 C508 1.414 . S
C507 C510 1.499 . S
C508 H488 0.950 . S
C508 C507 1.414 . S
C508 C509 1.374 . S
C509 H489 0.950 . S
C509 C505 1.385 . S
C509 C508 1.374 . S
C510 C507 1.499 . S
C510 C511 1.373 . S
C510 C512 1.389 . S
C511 H490 0.950 . S
C511 C510 1.373 . S
C511 C527 1.377 . S
C512 C510 1.389 . S
C512 C513 1.524 . S
C512 C526 1.377 . S
C513 C512 1.524 . S
C513 C514 1.397 . S
C513 C518 1.363 . S
C514 H491 0.950 . S
C514 C513 1.397 . S
C514 C515 1.334 . S
C515 H492 0.950 . S
C515 C514 1.334 . S
C515 C516 1.287 . S
C516 C515 1.287 . S
C516 C517 1.524 . S
C516 H535 0.913 . S
C517 H493 0.950 . S
C517 C516 1.524 . S
C517 C518 1.415 . S
C518 H494 0.950 . S
C518 C513 1.363 . S
C518 C517 1.415 . S
C519 H495 0.951 . S
C519 C520 1.366 . S
C519 C521 1.388 . S
C520 C519 1.366 . S
C520 C524 1.385 . S
C521 H496 0.951 . S
C521 C519 1.388 . S
C521 C522 1.366 . S
C522 C521 1.366 . S
C522 C523 1.414 . S
C522 C525 1.499 1_556 S
C523 H497 0.950 . S
C523 C522 1.414 . S
C523 C524 1.374 . S
C524 H498 0.950 . S
C524 C520 1.385 . S
C524 C523 1.374 . S
C525 C522 1.499 1_554 S
C525 C526 1.373 . S
C525 C527 1.389 . S
C526 H499 0.950 . S
C526 C512 1.377 . S
C526 C525 1.373 . S
C527 C511 1.377 . S
C527 C525 1.389 . S
C527 C528 1.524 . S
C528 C527 1.524 . S
C528 C529 1.397 . S
C528 C533 1.363 . S
C529 H500 0.950 . S
C529 C528 1.397 . S
C529 C530 1.334 1_554 S
C530 H501 0.950 . S
C530 C529 1.334 1_556 S
C530 C531 1.287 . S
C531 C530 1.287 . S
C531 C532 1.529 . S
C531 H534 0.999 . S
C532 H502 0.957 . S
C532 C531 1.529 . S
C532 C533 1.404 1_556 S
C533 H503 0.950 . S
C533 C528 1.363 . S
C533 C532 1.404 1_554 S
H534 C531 0.999 . S
H535 C516 0.913 . S
H536 C554 0.951 . S
H537 C556 0.951 . S
H538 C558 0.950 . S
H539 C559 0.950 . S
H540 C561 0.950 . S
H541 C564 0.950 . S
H542 C565 0.950 . S
H543 C567 0.950 . S
H544 C568 0.950 . S
H545 C569 0.951 . S
H546 C571 0.951 . S
H547 C573 0.950 . S
H548 C574 0.950 . S
H549 C576 0.950 . S
H550 C579 0.950 . S
H551 C580 0.950 . S
H552 C582 0.950 . S
H553 C583 0.950 . S
C554 H536 0.951 . S
C554 C555 1.366 . S
C554 C556 1.388 . S
C555 C554 1.366 . S
C555 C559 1.385 . S
C556 H537 0.951 . S
C556 C554 1.388 . S
C556 C557 1.366 . S
C557 C556 1.366 . S
C557 C558 1.414 . S
C557 C560 1.499 . S
C558 H538 0.950 . S
C558 C557 1.414 . S
C558 C559 1.374 . S
C559 H539 0.950 . S
C559 C555 1.385 . S
C559 C558 1.374 . S
C560 C557 1.499 . S
C560 C561 1.373 . S
C560 C562 1.389 . S
C561 H540 0.950 . S
C561 C560 1.373 . S
C561 C577 1.377 . S
C562 C560 1.389 . S
C562 C563 1.524 . S
C562 C576 1.377 . S
C563 C562 1.524 . S
C563 C564 1.397 . S
C563 C568 1.363 . S
C564 H541 0.950 . S
C564 C563 1.397 . S
C564 C565 1.334 . S
C565 H542 0.950 . S
C565 C564 1.334 . S
C565 C566 1.287 . S
C566 C565 1.287 . S
C566 C567 1.524 . S
C566 H585 0.913 . S
C567 H543 0.950 . S
C567 C566 1.524 . S
C567 C568 1.415 . S
C568 H544 0.950 . S
C568 C563 1.363 . S
C568 C567 1.415 . S
C569 H545 0.951 . S
C569 C570 1.366 . S
C569 C571 1.388 . S
C570 C569 1.366 . S
C570 C574 1.385 . S
C571 H546 0.951 . S
C571 C569 1.388 . S
C571 C572 1.366 . S
C572 C571 1.366 . S
C572 C573 1.414 . S
C572 C575 1.499 . S
C573 H547 0.950 . S
C573 C572 1.414 . S
C573 C574 1.374 . S
C574 H548 0.950 . S
C574 C570 1.385 . S
C574 C573 1.374 . S
C575 C572 1.499 . S
C575 C576 1.373 . S
C575 C577 1.389 . S
C576 H549 0.950 . S
C576 C562 1.377 . S
C576 C575 1.373 . S
C577 C561 1.377 . S
C577 C575 1.389 . S
C577 C578 1.524 . S
C578 C577 1.524 . S
C578 C579 1.397 . S
C578 C583 1.363 . S
C579 H550 0.950 . S
C579 C578 1.397 . S
C579 C580 1.334 . S
C580 H551 0.950 . S
C580 C579 1.334 . S
C580 C581 1.287 . S
C581 C580 1.287 . S
C581 C582 1.524 . S
C581 H584 0.999 . S
C582 H552 0.950 . S
C582 C581 1.524 . S
C582 C583 1.415 . S
C583 H553 0.950 . S
C583 C578 1.363 . S
C583 C582 1.415 . S
H584 C581 0.999 . S
H585 C566 0.913 . S
H586 C604 0.951 . S
H587 C606 0.951 . S
H588 C608 0.950 . S
H589 C609 0.950 . S
H590 C611 0.950 . S
H591 C614 0.950 . S
H592 C615 0.950 . S
H593 C617 0.950 . S
H594 C618 0.950 . S
H595 C619 0.951 . S
H596 C621 0.951 . S
H597 C623 0.950 . S
H598 C624 0.950 . S
H599 C626 0.950 . S
H600 C629 0.951 . S
H601 C630 0.950 . S
H602 C632 0.950 . S
H603 C633 0.950 . S
C604 H586 0.951 . S
C604 C605 1.366 . S
C604 C606 1.388 . S
C605 C604 1.366 . S
C605 C609 1.385 . S
C606 H587 0.951 . S
C606 C604 1.388 . S
C606 C607 1.366 . S
C607 C606 1.366 . S
C607 C608 1.414 . S
C607 C610 1.499 . S
C608 H588 0.950 . S
C608 C607 1.414 . S
C608 C609 1.374 . S
C609 H589 0.950 . S
C609 C605 1.385 . S
C609 C608 1.374 . S
C610 C607 1.499 . S
C610 C611 1.373 . S
C610 C612 1.389 . S
C611 H590 0.950 . S
C611 C610 1.373 . S
C611 C627 1.377 . S
C612 C610 1.389 . S
C612 C613 1.524 . S
C612 C626 1.377 . S
C613 C612 1.524 . S
C613 C614 1.397 . S
C613 C618 1.363 . S
C614 H591 0.950 . S
C614 C613 1.397 . S
C614 C615 1.334 . S
C615 H592 0.950 . S
C615 C614 1.334 . S
C615 C616 1.287 . S
C616 C615 1.287 . S
C616 C617 1.524 . S
C616 H635 0.913 . S
C617 H593 0.950 . S
C617 C616 1.524 . S
C617 C618 1.415 . S
C618 H594 0.950 . S
C618 C613 1.363 . S
C618 C617 1.415 . S
C619 H595 0.951 . S
C619 C620 1.366 . S
C619 C621 1.388 . S
C620 C619 1.366 . S
C620 C624 1.385 . S
C621 H596 0.951 . S
C621 C619 1.388 . S
C621 C622 1.366 . S
C622 C621 1.366 . S
C622 C623 1.414 . S
C622 C625 1.499 . S
C623 H597 0.950 . S
C623 C622 1.414 . S
C623 C624 1.374 . S
C624 H598 0.950 . S
C624 C620 1.385 . S
C624 C623 1.374 . S
C625 C622 1.499 . S
C625 C626 1.373 . S
C625 C627 1.389 . S
C626 H599 0.950 . S
C626 C612 1.377 . S
C626 C625 1.373 . S
C627 C611 1.377 . S
C627 C625 1.389 . S
C627 C628 1.524 . S
C628 C627 1.524 . S
C628 C629 1.406 . S
C628 C633 1.363 . S
C629 H600 0.951 . S
C629 C628 1.406 . S
C629 C630 1.323 1_554 S
C630 H601 0.950 . S
C630 C629 1.323 1_556 S
C630 C631 1.287 . S
C631 C630 1.287 . S
C631 C632 1.524 . S
C631 H634 0.999 . S
C632 H602 0.950 . S
C632 C631 1.524 . S
C632 C633 1.415 1_556 S
C633 H603 0.950 . S
C633 C628 1.363 . S
C633 C632 1.415 1_554 S
H634 C631 0.999 . S
H635 C616 0.913 . S
H636 C654 0.951 . S
H637 C656 0.951 . S
H638 C658 0.950 . S
H639 C659 0.950 . S
H640 C661 0.950 . S
H641 C664 0.950 . S
H642 C665 0.950 . S
H643 C667 0.950 . S
H644 C668 0.950 . S
H645 C669 0.951 . S
H646 C671 0.951 . S
H647 C673 0.950 . S
H648 C674 0.950 . S
H649 C676 0.950 . S
H650 C679 0.950 . S
H651 C680 0.950 1_545 S
H652 C682 0.950 . S
H653 C683 0.950 . S
C654 H636 0.951 . S
C654 C655 1.366 . S
C654 C656 1.388 . S
C655 C654 1.366 . S
C655 C659 1.385 . S
C656 H637 0.951 . S
C656 C654 1.388 . S
C656 C657 1.366 . S
C657 C656 1.366 . S
C657 C658 1.414 . S
C657 C660 1.499 . S
C658 H638 0.950 . S
C658 C657 1.414 . S
C658 C659 1.374 . S
C659 H639 0.950 . S
C659 C655 1.385 . S
C659 C658 1.374 . S
C660 C657 1.499 . S
C660 C661 1.373 . S
C660 C662 1.389 . S
C661 H640 0.950 . S
C661 C660 1.373 . S
C661 C677 1.377 . S
C662 C660 1.389 . S
C662 C663 1.524 . S
C662 C676 1.377 . S
C663 C662 1.524 . S
C663 C664 1.397 . S
C663 C668 1.363 . S
C664 H641 0.950 . S
C664 C663 1.397 . S
C664 C665 1.334 . S
C665 H642 0.950 . S
C665 C664 1.334 . S
C665 C666 1.287 . S
C666 C665 1.287 . S
C666 C667 1.524 . S
C666 H685 0.913 . S
C667 H643 0.950 . S
C667 C666 1.524 . S
C667 C668 1.415 . S
C668 H644 0.950 . S
C668 C663 1.363 . S
C668 C667 1.415 . S
C669 H645 0.951 . S
C669 C670 1.366 . S
C669 C671 1.388 . S
C670 C669 1.366 . S
C670 C674 1.385 . S
C671 H646 0.951 . S
C671 C669 1.388 . S
C671 C672 1.366 . S
C672 C671 1.366 . S
C672 C673 1.414 . S
C672 C675 1.499 . S
C673 H647 0.950 . S
C673 C672 1.414 . S
C673 C674 1.374 . S
C674 H648 0.950 . S
C674 C670 1.385 . S
C674 C673 1.374 . S
C675 C672 1.499 . S
C675 C676 1.373 . S
C675 C677 1.389 . S
C676 H649 0.950 . S
C676 C662 1.377 . S
C676 C675 1.373 . S
C677 C661 1.377 . S
C677 C675 1.389 . S
C677 C678 1.524 . S
C678 C677 1.524 . S
C678 C679 1.397 . S
C678 C683 1.363 . S
C679 H650 0.950 . S
C679 C678 1.397 . S
C679 C680 1.334 . S
C680 H651 0.950 1_565 S
C680 C679 1.334 . S
C680 C681 1.287 . S
C681 C680 1.287 . S
C681 C682 1.524 . S
C681 H684 0.999 1_565 S
C682 H652 0.950 . S
C682 C681 1.524 . S
C682 C683 1.415 . S
C683 H653 0.950 . S
C683 C678 1.363 . S
C683 C682 1.415 . S
H684 C681 0.999 1_545 S
H685 C666 0.913 . S
H686 C704 0.951 . S
H687 C706 0.951 . S
H688 C708 0.950 . S
H689 C709 0.950 . S
H690 C711 0.950 . S
H691 C714 0.950 . S
H692 C715 0.950 . S
H693 C717 0.950 . S
H694 C718 0.950 . S
H695 C719 0.951 . S
H696 C721 0.951 . S
H697 C723 0.950 . S
H698 C724 0.950 . S
H699 C726 0.950 . S
H700 C729 0.950 . S
H701 C730 0.950 . S
H702 C732 0.950 . S
H703 C733 0.950 . S
C704 H686 0.951 . S
C704 C705 1.366 . S
C704 C706 1.388 . S
C705 C704 1.366 . S
C705 C709 1.385 . S
C706 H687 0.951 . S
C706 C704 1.388 . S
C706 C707 1.366 . S
C707 C706 1.366 . S
C707 C708 1.414 . S
C707 C710 1.499 . S
C708 H688 0.950 . S
C708 C707 1.414 . S
C708 C709 1.374 . S
C709 H689 0.950 . S
C709 C705 1.385 . S
C709 C708 1.374 . S
C710 C707 1.499 . S
C710 C711 1.373 . S
C710 C712 1.389 . S
C711 H690 0.950 . S
C711 C710 1.373 . S
C711 C727 1.377 . S
C712 C710 1.389 . S
C712 C713 1.524 . S
C712 C726 1.377 . S
C713 C712 1.524 . S
C713 C714 1.397 . S
C713 C718 1.363 . S
C714 H691 0.950 . S
C714 C713 1.397 . S
C714 C715 1.334 . S
C715 H692 0.950 . S
C715 C714 1.334 . S
C715 C716 1.287 . S
C716 C715 1.287 . S
C716 C717 1.524 . S
C716 H735 0.913 . S
C717 H693 0.950 . S
C717 C716 1.524 . S
C717 C718 1.415 . S
C718 H694 0.950 . S
C718 C713 1.363 . S
C718 C717 1.415 . S
C719 H695 0.951 . S
C719 C720 1.366 . S
C719 C721 1.388 . S
C720 C719 1.366 . S
C720 C724 1.385 . S
C721 H696 0.951 . S
C721 C719 1.388 . S
C721 C722 1.366 . S
C722 C721 1.366 . S
C722 C723 1.414 . S
C722 C725 1.499 . S
C723 H697 0.950 . S
C723 C722 1.414 . S
C723 C724 1.374 . S
C724 H698 0.950 . S
C724 C720 1.385 . S
C724 C723 1.374 . S
C725 C722 1.499 . S
C725 C726 1.373 . S
C725 C727 1.389 . S
C726 H699 0.950 . S
C726 C712 1.377 . S
C726 C725 1.373 . S
C727 C711 1.377 . S
C727 C725 1.389 . S
C727 C728 1.524 . S
C728 C727 1.524 . S
C728 C729 1.397 . S
C728 C733 1.363 . S
C729 H700 0.950 . S
C729 C728 1.397 . S
C729 C730 1.334 . S
C730 H701 0.950 . S
C730 C729 1.334 . S
C730 C731 1.287 . S
C731 C730 1.287 . S
C731 C732 1.524 . S
C731 H734 0.999 . S
C732 H702 0.950 . S
C732 C731 1.524 . S
C732 C733 1.415 . S
C733 H703 0.950 . S
C733 C728 1.363 . S
C733 C732 1.415 . S
H734 C731 0.999 . S
H735 C716 0.913 . S
H736 C754 0.951 . S
H737 C756 0.951 . S
H738 C758 0.950 . S
H739 C759 0.950 . S
H740 C761 0.950 . S
H741 C764 0.950 . S
H742 C765 0.950 1_655 S
H743 C767 0.950 . S
H744 C768 0.950 . S
H745 C769 0.951 . S
H746 C771 0.951 . S
H747 C773 0.950 . S
H748 C774 0.950 . S
H749 C776 0.950 . S
H750 C779 0.950 . S
H751 C780 0.950 . S
H752 C782 0.950 . S
H753 C783 0.950 . S
C754 H736 0.951 . S
C754 C755 1.366 . S
C754 C756 1.388 . S
C755 C754 1.366 . S
C755 C759 1.385 . S
C756 H737 0.951 . S
C756 C754 1.388 . S
C756 C757 1.366 . S
C757 C756 1.366 . S
C757 C758 1.414 . S
C757 C760 1.499 . S
C758 H738 0.950 . S
C758 C757 1.414 . S
C758 C759 1.374 . S
C759 H739 0.950 . S
C759 C755 1.385 . S
C759 C758 1.374 . S
C760 C757 1.499 . S
C760 C761 1.373 . S
C760 C762 1.389 . S
C761 H740 0.950 . S
C761 C760 1.373 . S
C761 C777 1.377 . S
C762 C760 1.389 . S
C762 C763 1.524 . S
C762 C776 1.377 . S
C763 C762 1.524 . S
C763 C764 1.397 . S
C763 C768 1.363 . S
C764 H741 0.950 . S
C764 C763 1.397 . S
C764 C765 1.334 . S
C765 H742 0.950 1_455 S
C765 C764 1.334 . S
C765 C766 1.287 . S
C766 C765 1.287 . S
C766 C767 1.524 . S
C766 H785 0.913 1_455 S
C767 H743 0.950 . S
C767 C766 1.524 . S
C767 C768 1.415 . S
C768 H744 0.950 . S
C768 C763 1.363 . S
C768 C767 1.415 . S
C769 H745 0.951 . S
C769 C770 1.366 . S
C769 C771 1.388 . S
C770 C769 1.366 . S
C770 C774 1.385 . S
C771 H746 0.951 . S
C771 C769 1.388 . S
C771 C772 1.366 . S
C772 C771 1.366 . S
C772 C773 1.414 . S
C772 C775 1.499 . S
C773 H747 0.950 . S
C773 C772 1.414 . S
C773 C774 1.374 . S
C774 H748 0.950 . S
C774 C770 1.385 . S
C774 C773 1.374 . S
C775 C772 1.499 . S
C775 C776 1.373 . S
C775 C777 1.389 . S
C776 H749 0.950 . S
C776 C762 1.377 . S
C776 C775 1.373 . S
C777 C761 1.377 . S
C777 C775 1.389 . S
C777 C778 1.524 . S
C778 C777 1.524 . S
C778 C779 1.397 . S
C778 C783 1.363 . S
C779 H750 0.950 . S
C779 C778 1.397 . S
C779 C780 1.334 . S
C780 H751 0.950 . S
C780 C779 1.334 . S
C780 C781 1.287 . S
C781 C780 1.287 . S
C781 C782 1.524 . S
C781 H784 0.999 . S
C782 H752 0.950 . S
C782 C781 1.524 . S
C782 C783 1.415 . S
C783 H753 0.950 . S
C783 C778 1.363 . S
C783 C782 1.415 . S
H784 C781 0.999 . S
H785 C766 0.913 1_655 S
H786 C804 0.951 . S
H787 C806 0.951 . S
H788 C808 0.950 . S
H789 C809 0.950 . S
H790 C811 0.950 . S
H791 C814 0.950 . S
H792 C815 0.950 . S
H793 C817 0.950 . S
H794 C818 0.950 . S
H795 C819 0.951 . S
H796 C821 0.951 . S
H797 C823 0.950 . S
H798 C824 0.950 . S
H799 C826 0.950 . S
H800 C829 0.950 . S
H801 C830 0.950 . S
H802 C832 0.950 . S
H803 C833 0.950 . S
C804 H786 0.951 . S
C804 C805 1.366 . S
C804 C806 1.388 . S
C805 C804 1.366 . S
C805 C809 1.385 . S
C806 H787 0.951 . S
C806 C804 1.388 . S
C806 C807 1.366 . S
C807 C806 1.366 . S
C807 C808 1.414 . S
C807 C810 1.499 . S
C808 H788 0.950 . S
C808 C807 1.414 . S
C808 C809 1.374 . S
C809 H789 0.950 . S
C809 C805 1.385 . S
C809 C808 1.374 . S
C810 C807 1.499 . S
C810 C811 1.373 . S
C810 C812 1.389 . S
C811 H790 0.950 . S
C811 C810 1.373 . S
C811 C827 1.377 . S
C812 C810 1.389 . S
C812 C813 1.524 . S
C812 C826 1.377 . S
C813 C812 1.524 . S
C813 C814 1.397 . S
C813 C818 1.363 . S
C814 H791 0.950 . S
C814 C813 1.397 . S
C814 C815 1.334 . S
C815 H792 0.950 . S
C815 C814 1.334 . S
C815 C816 1.287 . S
C816 C815 1.287 . S
C816 C817 1.524 . S
C816 H835 0.913 . S
C817 H793 0.950 . S
C817 C816 1.524 . S
C817 C818 1.415 . S
C818 H794 0.950 . S
C818 C813 1.363 . S
C818 C817 1.415 . S
C819 H795 0.951 . S
C819 C820 1.366 . S
C819 C821 1.388 . S
C820 C819 1.366 . S
C820 C824 1.385 . S
C821 H796 0.951 . S
C821 C819 1.388 . S
C821 C822 1.366 . S
C822 C821 1.366 . S
C822 C823 1.414 . S
C822 C825 1.499 . S
C823 H797 0.950 . S
C823 C822 1.414 . S
C823 C824 1.374 . S
C824 H798 0.950 . S
C824 C820 1.385 . S
C824 C823 1.374 . S
C825 C822 1.499 . S
C825 C826 1.373 . S
C825 C827 1.389 . S
C826 H799 0.950 . S
C826 C812 1.377 . S
C826 C825 1.373 . S
C827 C811 1.377 . S
C827 C825 1.389 . S
C827 C828 1.524 . S
C828 C827 1.524 . S
C828 C829 1.397 . S
C828 C833 1.363 . S
C829 H800 0.950 . S
C829 C828 1.397 . S
C829 C830 1.334 . S
C830 H801 0.950 . S
C830 C829 1.334 . S
C830 C831 1.287 . S
C831 C830 1.287 . S
C831 C832 1.524 . S
C831 H834 0.999 . S
C832 H802 0.950 . S
C832 C831 1.524 . S
C832 C833 1.415 . S
C833 H803 0.950 . S
C833 C828 1.363 . S
C833 C832 1.415 . S
H834 C831 0.999 . S
H835 C816 0.913 . S
H836 C854 0.951 . S
H837 C856 0.951 . S
H838 C858 0.950 . S
H839 C859 0.950 . S
H840 C861 0.950 . S
H841 C864 0.950 . S
H842 C865 0.950 . S
H843 C867 0.950 1_545 S
H844 C868 0.950 . S
H845 C869 0.951 . S
H846 C871 0.951 1_565 S
H847 C873 0.950 . S
H848 C874 0.950 . S
H849 C876 0.950 1_545 S
H850 C879 0.950 . S
H851 C880 0.950 1_455 S
H852 C882 0.950 . S
H853 C883 0.950 . S
C854 H836 0.951 . S
C854 C855 1.366 . S
C854 C856 1.388 . S
C855 C854 1.366 . S
C855 C859 1.385 . S
C856 H837 0.951 . S
C856 C854 1.388 . S
C856 C857 1.366 . S
C857 C856 1.366 . S
C857 C858 1.414 . S
C857 C860 1.499 . S
C858 H838 0.950 . S
C858 C857 1.414 . S
C858 C859 1.374 . S
C859 H839 0.950 . S
C859 C855 1.385 . S
C859 C858 1.374 . S
C860 C857 1.499 . S
C860 C861 1.373 . S
C860 C862 1.389 . S
C861 H840 0.950 . S
C861 C860 1.373 . S
C861 C877 1.377 . S
C862 C860 1.389 . S
C862 C863 1.524 . S
C862 C876 1.377 . S
C863 C862 1.524 . S
C863 C864 1.397 . S
C863 C868 1.363 . S
C864 H841 0.950 . S
C864 C863 1.397 . S
C864 C865 1.334 . S
C865 H842 0.950 . S
C865 C864 1.334 . S
C865 C866 1.287 . S
C866 C865 1.287 . S
C866 C867 1.524 . S
C866 H885 0.913 . S
C867 H843 0.950 1_565 S
C867 C866 1.524 . S
C867 C868 1.415 . S
C868 H844 0.950 . S
C868 C863 1.363 . S
C868 C867 1.415 . S
C869 H845 0.951 . S
C869 C870 1.366 . S
C869 C871 1.388 . S
C870 C869 1.366 . S
C870 C874 1.385 . S
C871 H846 0.951 1_545 S
C871 C869 1.388 . S
C871 C872 1.366 . S
C872 C871 1.366 . S
C872 C873 1.414 . S
C872 C875 1.499 1_545 S
C873 H847 0.950 . S
C873 C872 1.414 . S
C873 C874 1.374 . S
C874 H848 0.950 . S
C874 C870 1.385 . S
C874 C873 1.374 . S
C875 C872 1.499 1_565 S
C875 C876 1.373 . S
C875 C877 1.389 . S
C876 H849 0.950 1_565 S
C876 C862 1.377 . S
C876 C875 1.373 . S
C877 C861 1.377 . S
C877 C875 1.389 . S
C877 C878 1.524 . S
C878 C877 1.524 . S
C878 C879 1.397 . S
C878 C883 1.363 . S
C879 H850 0.950 . S
C879 C878 1.397 . S
C879 C880 1.334 . S
C880 H851 0.950 1_655 S
C880 C879 1.334 . S
C880 C881 1.287 . S
C881 C880 1.287 . S
C881 C882 1.524 . S
C881 H884 0.999 . S
C882 H852 0.950 . S
C882 C881 1.524 . S
C882 C883 1.415 . S
C883 H853 0.950 . S
C883 C878 1.363 . S
C883 C882 1.415 . S
H884 C881 0.999 . S
H885 C866 0.913 . S
H886 C904 0.951 . S
H887 C906 0.951 . S
H888 C908 0.950 . S
H889 C909 0.950 . S
H890 C911 0.950 . S
H891 C914 0.950 . S
H892 C915 0.950 . S
H893 C917 0.950 . S
H894 C918 0.950 . S
H895 C919 0.951 . S
H896 C921 0.951 . S
H897 C923 0.950 . S
H898 C924 0.950 . S
H899 C926 0.950 . S
H900 C929 0.950 . S
H901 C930 0.950 . S
H902 C932 0.950 . S
H903 C933 0.950 . S
C904 H886 0.951 . S
C904 C905 1.366 . S
C904 C906 1.388 . S
C905 C904 1.366 . S
C905 C909 1.385 . S
C906 H887 0.951 . S
C906 C904 1.388 . S
C906 C907 1.366 . S
C907 C906 1.366 . S
C907 C908 1.414 . S
C907 C910 1.499 . S
C908 H888 0.950 . S
C908 C907 1.414 . S
C908 C909 1.374 . S
C909 H889 0.950 . S
C909 C905 1.385 . S
C909 C908 1.374 . S
C910 C907 1.499 . S
C910 C911 1.373 . S
C910 C912 1.389 . S
C911 H890 0.950 . S
C911 C910 1.373 . S
C911 C927 1.377 . S
C912 C910 1.389 . S
C912 C913 1.524 . S
C912 C926 1.377 . S
C913 C912 1.524 . S
C913 C914 1.397 . S
C913 C918 1.363 . S
C914 H891 0.950 . S
C914 C913 1.397 . S
C914 C915 1.334 . S
C915 H892 0.950 . S
C915 C914 1.334 . S
C915 C916 1.287 . S
C916 C915 1.287 . S
C916 C917 1.524 . S
C916 H935 0.913 . S
C917 H893 0.950 . S
C917 C916 1.524 . S
C917 C918 1.415 . S
C918 H894 0.950 . S
C918 C913 1.363 . S
C918 C917 1.415 . S
C919 H895 0.951 . S
C919 C920 1.366 . S
C919 C921 1.388 . S
C920 C919 1.366 . S
C920 C924 1.385 . S
C921 H896 0.951 . S
C921 C919 1.388 . S
C921 C922 1.366 . S
C922 C921 1.366 . S
C922 C923 1.414 . S
C922 C925 1.499 . S
C923 H897 0.950 . S
C923 C922 1.414 . S
C923 C924 1.374 . S
C924 H898 0.950 . S
C924 C920 1.385 . S
C924 C923 1.374 . S
C925 C922 1.499 . S
C925 C926 1.373 . S
C925 C927 1.389 . S
C926 H899 0.950 . S
C926 C912 1.377 . S
C926 C925 1.373 . S
C927 C911 1.377 . S
C927 C925 1.389 . S
C927 C928 1.524 . S
C928 C927 1.524 . S
C928 C929 1.397 . S
C928 C933 1.363 . S
C929 H900 0.950 . S
C929 C928 1.397 . S
C929 C930 1.334 . S
C930 H901 0.950 . S
C930 C929 1.334 . S
C930 C931 1.287 . S
C931 C930 1.287 . S
C931 C932 1.524 . S
C931 H934 0.999 . S
C932 H902 0.950 . S
C932 C931 1.524 . S
C932 C933 1.415 . S
C933 H903 0.950 . S
C933 C928 1.363 . S
C933 C932 1.415 . S
H934 C931 0.999 . S
H935 C916 0.913 . S
H936 C954 0.951 . S
H937 C956 0.951 . S
H938 C958 0.950 . S
H939 C959 0.950 . S
H940 C961 0.950 . S
H941 C964 0.950 . S
H942 C965 0.950 . S
H943 C967 0.950 . S
H944 C968 0.950 . S
H945 C969 0.951 . S
H946 C971 0.951 . S
H947 C973 0.950 . S
H948 C974 0.950 . S
H949 C976 0.950 . S
H950 C979 0.950 . S
H951 C980 0.950 . S
H952 C982 0.950 . S
H953 C983 0.950 . S
C954 H936 0.951 . S
C954 C955 1.366 . S
C954 C956 1.388 . S
C955 C954 1.366 . S
C955 C959 1.385 . S
C956 H937 0.951 . S
C956 C954 1.388 . S
C956 C957 1.366 . S
C957 C956 1.366 . S
C957 C958 1.414 . S
C957 C960 1.499 1_554 S
C958 H938 0.950 . S
C958 C957 1.414 . S
C958 C959 1.374 . S
C959 H939 0.950 . S
C959 C955 1.385 . S
C959 C958 1.374 . S
C960 C957 1.499 1_556 S
C960 C961 1.373 . S
C960 C962 1.389 . S
C961 H940 0.950 . S
C961 C960 1.373 . S
C961 C977 1.377 . S
C962 C960 1.389 . S
C962 C963 1.524 1_556 S
C962 C976 1.377 . S
C963 C962 1.524 1_554 S
C963 C964 1.397 . S
C963 C968 1.363 . S
C964 H941 0.950 . S
C964 C963 1.397 . S
C964 C965 1.334 . S
C965 H942 0.950 . S
C965 C964 1.334 . S
C965 C966 1.287 . S
C966 C965 1.287 . S
C966 C967 1.524 . S
C966 H985 0.913 . S
C967 H943 0.950 . S
C967 C966 1.524 . S
C967 C968 1.415 . S
C968 H944 0.950 . S
C968 C963 1.363 . S
C968 C967 1.415 . S
C969 H945 0.951 . S
C969 C970 1.366 . S
C969 C971 1.388 . S
C970 C969 1.366 . S
C970 C974 1.385 . S
C971 H946 0.951 . S
C971 C969 1.388 . S
C971 C972 1.366 . S
C972 C971 1.366 . S
C972 C973 1.414 . S
C972 C975 1.499 . S
C973 H947 0.950 . S
C973 C972 1.414 . S
C973 C974 1.374 . S
C974 H948 0.950 . S
C974 C970 1.385 . S
C974 C973 1.374 . S
C975 C972 1.499 . S
C975 C976 1.373 . S
C975 C977 1.389 . S
C976 H949 0.950 . S
C976 C962 1.377 . S
C976 C975 1.373 . S
C977 C961 1.377 . S
C977 C975 1.389 . S
C977 C978 1.524 . S
C978 C977 1.524 . S
C978 C979 1.397 . S
C978 C983 1.363 . S
C979 H950 0.950 . S
C979 C978 1.397 . S
C979 C980 1.334 . S
C980 H951 0.950 . S
C980 C979 1.334 . S
C980 C981 1.287 . S
C981 C980 1.287 . S
C981 C982 1.524 . S
C981 H984 0.999 . S
C982 H952 0.950 . S
C982 C981 1.524 . S
C982 C983 1.415 . S
C983 H953 0.950 . S
C983 C978 1.363 . S
C983 C982 1.415 . S
H984 C981 0.999 . S
H985 C966 0.913 . S
H986 C1004 0.951 . S
H987 C1006 0.951 . S
H988 C1008 0.950 1_556 S
H989 C1009 0.950 . S
H990 C1011 0.950 . S
H991 C1014 0.950 . S
H992 C1015 0.950 . S
H993 C1017 0.950 . S
H994 C1018 0.950 . S
H995 C1019 0.951 . S
H996 C1021 0.951 . S
H997 C1023 0.950 . S
H998 C1024 0.950 . S
H999 C1026 0.950 . S
H1000 C1029 0.950 . S
H1001 C1030 0.950 . S
H1002 C1032 0.950 . S
H1003 C1033 0.950 . S
C1004 H986 0.951 . S
C1004 C1005 1.366 . S
C1004 C1006 1.388 . S
C1005 C1004 1.366 . S
C1005 C1009 1.385 . S
C1006 H987 0.951 . S
C1006 C1004 1.388 . S
C1006 C1007 1.366 . S
C1007 C1006 1.366 . S
C1007 C1008 1.414 . S
C1007 C1010 1.499 1_554 S
C1008 H988 0.950 1_554 S
C1008 C1007 1.414 . S
C1008 C1009 1.374 . S
C1009 H989 0.950 . S
C1009 C1005 1.385 . S
C1009 C1008 1.374 . S
C1010 C1007 1.499 1_556 S
C1010 C1011 1.373 . S
C1010 C1012 1.389 . S
C1011 H990 0.950 . S
C1011 C1010 1.373 . S
C1011 C1027 1.377 . S
C1012 C1010 1.389 . S
C1012 C1013 1.524 1_556 S
C1012 C1026 1.377 . S
C1013 C1012 1.524 1_554 S
C1013 C1014 1.397 . S
C1013 C1018 1.363 . S
C1014 H991 0.950 . S
C1014 C1013 1.397 . S
C1014 C1015 1.334 . S
C1015 H992 0.950 . S
C1015 C1014 1.334 . S
C1015 C1016 1.287 . S
C1016 C1015 1.287 . S
C1016 C1017 1.524 . S
C1016 H1035 0.913 . S
C1017 H993 0.950 . S
C1017 C1016 1.524 . S
C1017 C1018 1.415 . S
C1018 H994 0.950 . S
C1018 C1013 1.363 . S
C1018 C1017 1.415 . S
C1019 H995 0.951 . S
C1019 C1020 1.366 . S
C1019 C1021 1.388 . S
C1020 C1019 1.366 . S
C1020 C1024 1.385 . S
C1021 H996 0.951 . S
C1021 C1019 1.388 . S
C1021 C1022 1.366 . S
C1022 C1021 1.366 . S
C1022 C1023 1.414 . S
C1022 C1025 1.499 . S
C1023 H997 0.950 . S
C1023 C1022 1.414 . S
C1023 C1024 1.374 . S
C1024 H998 0.950 . S
C1024 C1020 1.385 . S
C1024 C1023 1.374 . S
C1025 C1022 1.499 . S
C1025 C1026 1.373 . S
C1025 C1027 1.389 . S
C1026 H999 0.950 . S
C1026 C1012 1.377 . S
C1026 C1025 1.373 . S
C1027 C1011 1.377 . S
C1027 C1025 1.389 . S
C1027 C1028 1.524 . S
C1028 C1027 1.524 . S
C1028 C1029 1.397 . S
C1028 C1033 1.363 . S
C1029 H1000 0.950 . S
C1029 C1028 1.397 . S
C1029 C1030 1.334 . S
C1030 H1001 0.950 . S
C1030 C1029 1.334 . S
C1030 C1031 1.287 . S
C1031 C1030 1.287 . S
C1031 C1032 1.524 . S
C1031 H1034 0.999 . S
C1032 H1002 0.950 . S
C1032 C1031 1.524 . S
C1032 C1033 1.415 . S
C1033 H1003 0.950 . S
C1033 C1028 1.363 . S
C1033 C1032 1.415 . S
H1034 C1031 0.999 . S
H1035 C1016 0.913 . S
H1036 C1054 0.951 . S
H1037 C1056 0.951 . S
H1038 C1058 0.950 . S
H1039 C1059 0.950 . S
H1040 C1061 0.950 . S
H1041 C1064 0.950 . S
H1042 C1065 0.950 . S
H1043 C1067 0.950 . S
H1044 C1068 0.950 . S
H1045 C1069 0.951 . S
H1046 C1071 0.951 . S
H1047 C1073 0.950 . S
H1048 C1074 0.950 . S
H1049 C1076 0.950 . S
H1050 C1079 0.950 . S
H1051 C1080 0.950 . S
H1052 C1082 0.950 . S
H1053 C1083 0.950 . S
C1054 H1036 0.951 . S
C1054 C1055 1.366 . S
C1054 C1056 1.388 . S
C1055 C1054 1.366 . S
C1055 C1059 1.385 . S
C1056 H1037 0.951 . S
C1056 C1054 1.388 . S
C1056 C1057 1.366 . S
C1057 C1056 1.366 . S
C1057 C1058 1.414 . S
C1057 C1060 1.499 . S
C1058 H1038 0.950 . S
C1058 C1057 1.414 . S
C1058 C1059 1.374 . S
C1059 H1039 0.950 . S
C1059 C1055 1.385 . S
C1059 C1058 1.374 . S
C1060 C1057 1.499 . S
C1060 C1061 1.373 . S
C1060 C1062 1.389 . S
C1061 H1040 0.950 . S
C1061 C1060 1.373 . S
C1061 C1077 1.377 . S
C1062 C1060 1.389 . S
C1062 C1063 1.524 . S
C1062 C1076 1.377 . S
C1063 C1062 1.524 . S
C1063 C1064 1.397 . S
C1063 C1068 1.363 . S
C1064 H1041 0.950 . S
C1064 C1063 1.397 . S
C1064 C1065 1.334 . S
C1065 H1042 0.950 . S
C1065 C1064 1.334 . S
C1065 C1066 1.287 . S
C1066 C1065 1.287 . S
C1066 C1067 1.524 . S
C1066 H1085 0.913 . S
C1067 H1043 0.950 . S
C1067 C1066 1.524 . S
C1067 C1068 1.415 . S
C1068 H1044 0.950 . S
C1068 C1063 1.363 . S
C1068 C1067 1.415 . S
C1069 H1045 0.951 . S
C1069 C1070 1.366 . S
C1069 C1071 1.388 . S
C1070 C1069 1.366 . S
C1070 C1074 1.385 . S
C1071 H1046 0.951 . S
C1071 C1069 1.388 . S
C1071 C1072 1.366 . S
C1072 C1071 1.366 . S
C1072 C1073 1.414 . S
C1072 C1075 1.499 . S
C1073 H1047 0.950 . S
C1073 C1072 1.414 . S
C1073 C1074 1.374 . S
C1074 H1048 0.950 . S
C1074 C1070 1.385 . S
C1074 C1073 1.374 . S
C1075 C1072 1.499 . S
C1075 C1076 1.373 . S
C1075 C1077 1.389 . S
C1076 H1049 0.950 . S
C1076 C1062 1.377 . S
C1076 C1075 1.373 . S
C1077 C1061 1.377 . S
C1077 C1075 1.389 . S
C1077 C1078 1.524 . S
C1078 C1077 1.524 . S
C1078 C1079 1.397 . S
C1078 C1083 1.363 . S
C1079 H1050 0.950 . S
C1079 C1078 1.397 . S
C1079 C1080 1.334 . S
C1080 H1051 0.950 . S
C1080 C1079 1.334 . S
C1080 C1081 1.287 . S
C1081 C1080 1.287 . S
C1081 C1082 1.524 . S
C1081 H1084 0.999 . S
C1082 H1052 0.950 . S
C1082 C1081 1.524 . S
C1082 C1083 1.415 . S
C1083 H1053 0.950 . S
C1083 C1078 1.363 . S
C1083 C1082 1.415 . S
H1084 C1081 0.999 . S
H1085 C1066 0.913 . S
H1086 C1104 0.951 . S
H1087 C1106 0.951 . S
H1088 C1108 0.950 . S
H1089 C1109 0.950 . S
H1090 C1111 0.950 . S
H1091 C1114 0.950 . S
H1092 C1115 0.950 . S
H1093 C1117 0.950 . S
H1094 C1118 0.950 . S
H1095 C1119 0.951 . S
H1096 C1121 0.951 . S
H1097 C1123 0.950 . S
H1098 C1124 0.950 . S
H1099 C1126 0.950 . S
H1100 C1129 0.928 1_545 S
H1101 C1130 0.950 . S
H1102 C1132 0.950 . S
H1103 C1133 0.950 . S
C1104 H1086 0.951 . S
C1104 C1105 1.366 . S
C1104 C1106 1.388 . S
C1105 C1104 1.366 . S
C1105 C1109 1.385 . S
C1106 H1087 0.951 . S
C1106 C1104 1.388 . S
C1106 C1107 1.366 . S
C1107 C1106 1.366 . S
C1107 C1108 1.414 . S
C1107 C1110 1.499 . S
C1108 H1088 0.950 . S
C1108 C1107 1.414 . S
C1108 C1109 1.374 . S
C1109 H1089 0.950 . S
C1109 C1105 1.385 . S
C1109 C1108 1.374 . S
C1110 C1107 1.499 . S
C1110 C1111 1.373 . S
C1110 C1112 1.389 . S
C1111 H1090 0.950 . S
C1111 C1110 1.373 . S
C1111 C1127 1.377 . S
C1112 C1110 1.389 . S
C1112 C1113 1.524 . S
C1112 C1126 1.377 . S
C1113 C1112 1.524 . S
C1113 C1114 1.397 . S
C1113 C1118 1.363 . S
C1114 H1091 0.950 . S
C1114 C1113 1.397 . S
C1114 C1115 1.334 . S
C1115 H1092 0.950 . S
C1115 C1114 1.334 . S
C1115 C1116 1.287 . S
C1116 C1115 1.287 . S
C1116 C1117 1.524 . S
C1116 H1135 0.913 . S
C1117 H1093 0.950 . S
C1117 C1116 1.524 . S
C1117 C1118 1.415 . S
C1118 H1094 0.950 . S
C1118 C1113 1.363 . S
C1118 C1117 1.415 . S
C1119 H1095 0.951 . S
C1119 C1120 1.366 . S
C1119 C1121 1.388 . S
C1120 C1119 1.366 . S
C1120 C1124 1.385 . S
C1121 H1096 0.951 . S
C1121 C1119 1.388 . S
C1121 C1122 1.366 . S
C1122 C1121 1.366 . S
C1122 C1123 1.414 . S
C1122 C1125 1.499 . S
C1123 H1097 0.950 . S
C1123 C1122 1.414 . S
C1123 C1124 1.374 . S
C1124 H1098 0.950 . S
C1124 C1120 1.385 . S
C1124 C1123 1.374 . S
C1125 C1122 1.499 . S
C1125 C1126 1.373 . S
C1125 C1127 1.389 . S
C1126 H1099 0.950 . S
C1126 C1112 1.377 . S
C1126 C1125 1.373 . S
C1127 C1111 1.377 . S
C1127 C1125 1.389 . S
C1127 C1128 1.524 . S
C1128 C1127 1.524 . S
C1128 C1129 1.367 1_545 S
C1128 C1133 1.363 . S
C1129 H1100 0.928 1_565 S
C1129 C1128 1.367 1_565 S
C1129 C1130 1.387 . S
C1130 H1101 0.950 . S
C1130 C1129 1.387 . S
C1130 C1131 1.287 . S
C1131 C1130 1.287 . S
C1131 C1132 1.524 . S
C1131 H1134 0.999 . S
C1132 H1102 0.950 . S
C1132 C1131 1.524 . S
C1132 C1133 1.415 1_565 S
C1133 H1103 0.950 . S
C1133 C1128 1.363 . S
C1133 C1132 1.415 1_545 S
H1134 C1131 0.999 . S
H1135 C1116 0.913 . S
H1136 C1154 0.951 . S
H1137 C1156 0.951 . S
H1138 C1158 0.950 1_655 S
H1139 C1159 0.950 . S
H1140 C1161 0.950 . S
H1141 C1164 0.950 . S
H1142 C1165 0.950 . S
H1143 C1167 0.950 . S
H1144 C1168 0.950 . S
H1145 C1169 0.951 . S
H1146 C1171 0.951 . S
H1147 C1173 0.950 . S
H1148 C1174 0.950 . S
H1149 C1176 0.950 . S
H1150 C1179 0.950 . S
H1151 C1180 0.950 . S
H1152 C1182 0.950 . S
H1153 C1183 0.950 . S
C1154 H1136 0.951 . S
C1154 C1155 1.366 . S
C1154 C1156 1.388 . S
C1155 C1154 1.366 . S
C1155 C1159 1.385 . S
C1156 H1137 0.951 . S
C1156 C1154 1.388 . S
C1156 C1157 1.366 . S
C1157 C1156 1.366 . S
C1157 C1158 1.414 . S
C1157 C1160 1.499 1_455 S
C1158 H1138 0.950 1_455 S
C1158 C1157 1.414 . S
C1158 C1159 1.374 . S
C1159 H1139 0.950 . S
C1159 C1155 1.385 . S
C1159 C1158 1.374 . S
C1160 C1157 1.499 1_655 S
C1160 C1161 1.373 . S
C1160 C1162 1.389 . S
C1161 H1140 0.950 . S
C1161 C1160 1.373 . S
C1161 C1177 1.377 . S
C1162 C1160 1.389 . S
C1162 C1163 1.524 . S
C1162 C1176 1.377 . S
C1163 C1162 1.524 . S
C1163 C1164 1.397 . S
C1163 C1168 1.363 . S
C1164 H1141 0.950 . S
C1164 C1163 1.397 . S
C1164 C1165 1.334 1_655 S
C1165 H1142 0.950 . S
C1165 C1164 1.334 1_455 S
C1165 C1166 1.287 . S
C1166 C1165 1.287 . S
C1166 C1167 1.524 . S
C1166 H1185 0.913 . S
C1167 H1143 0.950 . S
C1167 C1166 1.524 . S
C1167 C1168 1.415 1_455 S
C1168 H1144 0.950 . S
C1168 C1163 1.363 . S
C1168 C1167 1.415 1_655 S
C1169 H1145 0.951 . S
C1169 C1170 1.366 . S
C1169 C1171 1.388 . S
C1170 C1169 1.366 . S
C1170 C1174 1.385 . S
C1171 H1146 0.951 . S
C1171 C1169 1.388 . S
C1171 C1172 1.366 . S
C1172 C1171 1.366 . S
C1172 C1173 1.414 . S
C1172 C1175 1.499 . S
C1173 H1147 0.950 . S
C1173 C1172 1.414 . S
C1173 C1174 1.374 . S
C1174 H1148 0.950 . S
C1174 C1170 1.385 . S
C1174 C1173 1.374 . S
C1175 C1172 1.499 . S
C1175 C1176 1.373 . S
C1175 C1177 1.389 . S
C1176 H1149 0.950 . S
C1176 C1162 1.377 . S
C1176 C1175 1.373 . S
C1177 C1161 1.377 . S
C1177 C1175 1.389 . S
C1177 C1178 1.524 . S
C1178 C1177 1.524 . S
C1178 C1179 1.397 . S
C1178 C1183 1.363 . S
C1179 H1150 0.950 . S
C1179 C1178 1.397 . S
C1179 C1180 1.334 . S
C1180 H1151 0.950 . S
C1180 C1179 1.334 . S
C1180 C1181 1.287 . S
C1181 C1180 1.287 . S
C1181 C1182 1.524 . S
C1181 H1184 0.999 . S
C1182 H1152 0.950 . S
C1182 C1181 1.524 . S
C1182 C1183 1.415 . S
C1183 H1153 0.950 . S
C1183 C1178 1.363 . S
C1183 C1182 1.415 . S
H1184 C1181 0.999 . S
H1185 C1166 0.913 . S
H1186 C1204 0.951 . S
H1187 C1206 0.951 . S
H1188 C1208 0.950 . S
H1189 C1209 0.950 . S
H1190 C1211 0.950 1_655 S
H1191 C1214 0.950 . S
H1192 C1215 0.950 . S
H1193 C1217 0.950 . S
H1194 C1218 0.950 . S
H1195 C1219 0.951 . S
H1196 C1221 0.951 . S
H1197 C1223 0.950 . S
H1198 C1224 0.950 . S
H1199 C1226 0.950 . S
H1200 C1229 0.950 . S
H1201 C1230 0.950 . S
H1202 C1232 0.950 . S
H1203 C1233 0.950 . S
C1204 H1186 0.951 . S
C1204 C1205 1.366 . S
C1204 C1206 1.388 . S
C1205 C1204 1.366 . S
C1205 C1209 1.385 . S
C1206 H1187 0.951 . S
C1206 C1204 1.388 . S
C1206 C1207 1.366 . S
C1207 C1206 1.366 . S
C1207 C1208 1.414 . S
C1207 C1210 1.499 1_655 S
C1208 H1188 0.950 . S
C1208 C1207 1.414 . S
C1208 C1209 1.374 . S
C1209 H1189 0.950 . S
C1209 C1205 1.385 . S
C1209 C1208 1.374 . S
C1210 C1207 1.499 1_455 S
C1210 C1211 1.373 . S
C1210 C1212 1.389 . S
C1211 H1190 0.950 1_455 S
C1211 C1210 1.373 . S
C1211 C1227 1.377 . S
C1212 C1210 1.389 . S
C1212 C1213 1.524 . S
C1212 C1226 1.377 . S
C1213 C1212 1.524 . S
C1213 C1214 1.397 . S
C1213 C1218 1.363 . S
C1214 H1191 0.950 . S
C1214 C1213 1.397 . S
C1214 C1215 1.334 . S
C1215 H1192 0.950 . S
C1215 C1214 1.334 . S
C1215 C1216 1.287 . S
C1216 C1215 1.287 . S
C1216 C1217 1.524 . S
C1216 H1235 0.913 . S
C1217 H1193 0.950 . S
C1217 C1216 1.524 . S
C1217 C1218 1.415 . S
C1218 H1194 0.950 . S
C1218 C1213 1.363 . S
C1218 C1217 1.415 . S
C1219 H1195 0.951 . S
C1219 C1220 1.366 . S
C1219 C1221 1.388 . S
C1220 C1219 1.366 . S
C1220 C1224 1.385 . S
C1221 H1196 0.951 . S
C1221 C1219 1.388 . S
C1221 C1222 1.366 . S
C1222 C1221 1.366 . S
C1222 C1223 1.414 . S
C1222 C1225 1.499 . S
C1223 H1197 0.950 . S
C1223 C1222 1.414 . S
C1223 C1224 1.374 . S
C1224 H1198 0.950 . S
C1224 C1220 1.385 . S
C1224 C1223 1.374 . S
C1225 C1222 1.499 . S
C1225 C1226 1.373 . S
C1225 C1227 1.389 . S
C1226 H1199 0.950 . S
C1226 C1212 1.377 . S
C1226 C1225 1.373 . S
C1227 C1211 1.377 . S
C1227 C1225 1.389 . S
C1227 C1228 1.524 . S
C1228 C1227 1.524 . S
C1228 C1229 1.397 . S
C1228 C1233 1.363 . S
C1229 H1200 0.950 . S
C1229 C1228 1.397 . S
C1229 C1230 1.334 1_565 S
C1230 H1201 0.950 . S
C1230 C1229 1.334 1_545 S
C1230 C1231 1.287 . S
C1231 C1230 1.287 . S
C1231 C1232 1.524 1_545 S
C1231 H1234 0.999 . S
C1232 H1202 0.950 . S
C1232 C1231 1.524 1_565 S
C1232 C1233 1.415 . S
C1233 H1203 0.950 . S
C1233 C1228 1.363 . S
C1233 C1232 1.415 . S
H1234 C1231 0.999 . S
H1235 C1216 0.913 . S
H1236 C1254 0.951 . S
H1237 C1256 0.951 . S
H1238 C1258 0.950 1_655 S
H1239 C1259 0.950 . S
H1240 C1261 0.950 . S
H1241 C1264 0.950 . S
H1242 C1265 0.950 . S
H1243 C1267 0.950 . S
H1244 C1268 0.950 . S
H1245 C1269 0.951 . S
H1246 C1271 0.951 . S
H1247 C1273 0.950 . S
H1248 C1274 0.950 . S
H1249 C1276 0.950 . S
H1250 C1279 0.950 . S
H1251 C1280 0.950 . S
H1252 C1282 0.950 . S
H1253 C1283 0.950 . S
C1254 H1236 0.951 . S
C1254 C1255 1.366 . S
C1254 C1256 1.388 . S
C1255 C1254 1.366 . S
C1255 C1259 1.385 . S
C1256 H1237 0.951 . S
C1256 C1254 1.388 . S
C1256 C1257 1.366 . S
C1257 C1256 1.366 . S
C1257 C1258 1.414 . S
C1257 C1260 1.499 1_455 S
C1258 H1238 0.950 1_455 S
C1258 C1257 1.414 . S
C1258 C1259 1.374 . S
C1259 H1239 0.950 . S
C1259 C1255 1.385 . S
C1259 C1258 1.374 . S
C1260 C1257 1.499 1_655 S
C1260 C1261 1.373 . S
C1260 C1262 1.389 . S
C1261 H1240 0.950 . S
C1261 C1260 1.373 . S
C1261 C1277 1.377 . S
C1262 C1260 1.389 . S
C1262 C1263 1.524 1_655 S
C1262 C1276 1.377 . S
C1263 C1262 1.524 1_455 S
C1263 C1264 1.397 . S
C1263 C1268 1.363 . S
C1264 H1241 0.950 . S
C1264 C1263 1.397 . S
C1264 C1265 1.334 . S
C1265 H1242 0.950 . S
C1265 C1264 1.334 . S
C1265 C1266 1.287 . S
C1266 C1265 1.287 . S
C1266 C1267 1.524 . S
C1266 H1285 0.913 . S
C1267 H1243 0.950 . S
C1267 C1266 1.524 . S
C1267 C1268 1.415 . S
C1268 H1244 0.950 . S
C1268 C1263 1.363 . S
C1268 C1267 1.415 . S
C1269 H1245 0.951 . S
C1269 C1270 1.366 . S
C1269 C1271 1.388 . S
C1270 C1269 1.366 . S
C1270 C1274 1.385 . S
C1271 H1246 0.951 . S
C1271 C1269 1.388 . S
C1271 C1272 1.366 . S
C1272 C1271 1.366 . S
C1272 C1273 1.414 . S
C1272 C1275 1.499 . S
C1273 H1247 0.950 . S
C1273 C1272 1.414 . S
C1273 C1274 1.374 . S
C1274 H1248 0.950 . S
C1274 C1270 1.385 . S
C1274 C1273 1.374 . S
C1275 C1272 1.499 . S
C1275 C1276 1.373 . S
C1275 C1277 1.389 . S
C1276 H1249 0.950 . S
C1276 C1262 1.377 . S
C1276 C1275 1.373 . S
C1277 C1261 1.377 . S
C1277 C1275 1.389 . S
C1277 C1278 1.524 . S
C1278 C1277 1.524 . S
C1278 C1279 1.397 . S
C1278 C1283 1.363 . S
C1279 H1250 0.950 . S
C1279 C1278 1.397 . S
C1279 C1280 1.334 . S
C1280 H1251 0.950 . S
C1280 C1279 1.334 . S
C1280 C1281 1.287 . S
C1281 C1280 1.287 . S
C1281 C1282 1.524 . S
C1281 H1284 0.999 . S
C1282 H1252 0.950 . S
C1282 C1281 1.524 . S
C1282 C1283 1.415 . S
C1283 H1253 0.950 . S
C1283 C1278 1.363 . S
C1283 C1282 1.415 . S
H1284 C1281 0.999 . S
H1285 C1266 0.913 . S
H1286 C1304 0.951 . S
H1287 C1306 0.951 . S
H1288 C1308 0.950 . S
H1289 C1309 0.950 . S
H1290 C1311 0.950 . S
H1291 C1314 0.950 . S
H1292 C1315 0.950 . S
H1293 C1317 0.950 . S
H1294 C1318 0.950 . S
H1295 C1319 0.951 . S
H1296 C1321 0.951 . S
H1297 C1323 0.950 1_455 S
H1298 C1324 0.950 . S
H1299 C1326 0.950 . S
H1300 C1329 0.950 1_455 S
H1301 C1330 0.950 . S
H1302 C1332 0.950 . S
H1303 C1333 0.950 . S
C1304 H1286 0.951 . S
C1304 C1305 1.366 . S
C1304 C1306 1.388 . S
C1305 C1304 1.366 . S
C1305 C1309 1.385 . S
C1306 H1287 0.951 . S
C1306 C1304 1.388 . S
C1306 C1307 1.366 . S
C1307 C1306 1.366 . S
C1307 C1308 1.414 . S
C1307 C1310 1.499 . S
C1308 H1288 0.950 . S
C1308 C1307 1.414 . S
C1308 C1309 1.374 . S
C1309 H1289 0.950 . S
C1309 C1305 1.385 . S
C1309 C1308 1.374 . S
C1310 C1307 1.499 . S
C1310 C1311 1.373 . S
C1310 C1312 1.389 . S
C1311 H1290 0.950 . S
C1311 C1310 1.373 . S
C1311 C1327 1.377 . S
C1312 C1310 1.389 . S
C1312 C1313 1.524 . S
C1312 C1326 1.377 . S
C1313 C1312 1.524 . S
C1313 C1314 1.397 . S
C1313 C1318 1.363 . S
C1314 H1291 0.950 . S
C1314 C1313 1.397 . S
C1314 C1315 1.334 . S
C1315 H1292 0.950 . S
C1315 C1314 1.334 . S
C1315 C1316 1.287 1_556 S
C1316 C1315 1.287 1_554 S
C1316 C1317 1.524 . S
C1316 H1335 0.913 . S
C1317 H1293 0.950 . S
C1317 C1316 1.524 . S
C1317 C1318 1.415 1_554 S
C1318 H1294 0.950 . S
C1318 C1313 1.363 . S
C1318 C1317 1.415 1_556 S
C1319 H1295 0.951 . S
C1319 C1320 1.366 . S
C1319 C1321 1.388 . S
C1320 C1319 1.366 . S
C1320 C1324 1.385 . S
C1321 H1296 0.951 . S
C1321 C1319 1.388 . S
C1321 C1322 1.366 . S
C1322 C1321 1.366 . S
C1322 C1323 1.414 . S
C1322 C1325 1.499 1_655 S
C1323 H1297 0.950 1_655 S
C1323 C1322 1.414 . S
C1323 C1324 1.374 . S
C1324 H1298 0.950 . S
C1324 C1320 1.385 . S
C1324 C1323 1.374 . S
C1325 C1322 1.499 1_455 S
C1325 C1326 1.373 . S
C1325 C1327 1.389 . S
C1326 H1299 0.950 . S
C1326 C1312 1.377 . S
C1326 C1325 1.373 . S
C1327 C1311 1.377 . S
C1327 C1325 1.389 . S
C1327 C1328 1.524 . S
C1328 C1327 1.524 . S
C1328 C1329 1.397 1_455 S
C1328 C1333 1.363 1_455 S
C1329 H1300 0.950 1_655 S
C1329 C1328 1.397 1_655 S
C1329 C1330 1.334 . S
C1330 H1301 0.950 . S
C1330 C1329 1.334 . S
C1330 C1331 1.287 . S
C1331 C1330 1.287 . S
C1331 C1332 1.524 . S
C1331 H1334 0.999 . S
C1332 H1302 0.950 . S
C1332 C1331 1.524 . S
C1332 C1333 1.415 . S
C1333 H1303 0.950 . S
C1333 C1328 1.363 1_655 S
C1333 C1332 1.415 . S
H1334 C1331 0.999 . S
H1335 C1316 0.913 . S
H1336 C1354 0.951 . S
H1337 C1356 0.951 . S
H1338 C1358 0.950 . S
H1339 C1359 0.950 . S
H1340 C1361 0.950 . S
H1341 C1364 0.950 . S
H1342 C1365 0.950 . S
H1343 C1367 0.950 . S
H1344 C1368 0.950 . S
H1345 C1369 0.951 . S
H1346 C1371 0.951 . S
H1347 C1373 0.950 . S
H1348 C1374 0.950 . S
H1349 C1376 0.950 . S
H1350 C1379 0.950 . S
H1351 C1380 0.950 . S
H1352 C1382 0.950 . S
H1353 C1383 0.950 . S
C1354 H1336 0.951 . S
C1354 C1355 1.366 . S
C1354 C1356 1.388 . S
C1355 C1354 1.366 . S
C1355 C1359 1.385 . S
C1356 H1337 0.951 . S
C1356 C1354 1.388 . S
C1356 C1357 1.366 . S
C1357 C1356 1.366 . S
C1357 C1358 1.414 . S
C1357 C1360 1.499 1_545 S
C1358 H1338 0.950 . S
C1358 C1357 1.414 . S
C1358 C1359 1.374 . S
C1359 H1339 0.950 . S
C1359 C1355 1.385 . S
C1359 C1358 1.374 . S
C1360 C1357 1.499 1_565 S
C1360 C1361 1.373 . S
C1360 C1362 1.389 . S
C1361 H1340 0.950 . S
C1361 C1360 1.373 . S
C1361 C1377 1.377 . S
C1362 C1360 1.389 . S
C1362 C1363 1.524 1_565 S
C1362 C1376 1.377 . S
C1363 C1362 1.524 1_545 S
C1363 C1364 1.397 . S
C1363 C1368 1.363 . S
C1364 H1341 0.950 . S
C1364 C1363 1.397 . S
C1364 C1365 1.334 . S
C1365 H1342 0.950 . S
C1365 C1364 1.334 . S
C1365 C1366 1.287 . S
C1366 C1365 1.287 . S
C1366 C1367 1.524 . S
C1366 H1385 0.913 . S
C1367 H1343 0.950 . S
C1367 C1366 1.524 . S
C1367 C1368 1.415 . S
C1368 H1344 0.950 . S
C1368 C1363 1.363 . S
C1368 C1367 1.415 . S
C1369 H1345 0.951 . S
C1369 C1370 1.366 . S
C1369 C1371 1.388 . S
C1370 C1369 1.366 . S
C1370 C1374 1.385 . S
C1371 H1346 0.951 . S
C1371 C1369 1.388 . S
C1371 C1372 1.366 . S
C1372 C1371 1.366 . S
C1372 C1373 1.414 . S
C1372 C1375 1.499 . S
C1373 H1347 0.950 . S
C1373 C1372 1.414 . S
C1373 C1374 1.374 . S
C1374 H1348 0.950 . S
C1374 C1370 1.385 . S
C1374 C1373 1.374 . S
C1375 C1372 1.499 . S
C1375 C1376 1.373 . S
C1375 C1377 1.389 . S
C1376 H1349 0.950 . S
C1376 C1362 1.377 . S
C1376 C1375 1.373 . S
C1377 C1361 1.377 . S
C1377 C1375 1.389 . S
C1377 C1378 1.524 . S
C1378 C1377 1.524 . S
C1378 C1379 1.397 . S
C1378 C1383 1.363 . S
C1379 H1350 0.950 . S
C1379 C1378 1.397 . S
C1379 C1380 1.334 . S
C1380 H1351 0.950 . S
C1380 C1379 1.334 . S
C1380 C1381 1.287 . S
C1381 C1380 1.287 . S
C1381 C1382 1.524 . S
C1381 H1384 0.999 . S
C1382 H1352 0.950 . S
C1382 C1381 1.524 . S
C1382 C1383 1.415 . S
C1383 H1353 0.950 . S
C1383 C1378 1.363 . S
C1383 C1382 1.415 . S
H1384 C1381 0.999 . S
H1385 C1366 0.913 . S
H1386 C1404 0.951 . S
H1387 C1406 0.951 . S
H1388 C1408 0.950 . S
H1389 C1409 0.950 . S
H1390 C1411 0.950 . S
H1391 C1414 0.950 . S
H1392 C1415 0.950 . S
H1393 C1417 0.950 . S
H1394 C1418 0.950 . S
H1395 C1419 0.951 . S
H1396 C1421 0.951 . S
H1397 C1423 0.950 . S
H1398 C1424 0.950 . S
H1399 C1426 0.950 . S
H1400 C1429 0.950 . S
H1401 C1430 0.950 . S
H1402 C1432 0.950 . S
H1403 C1433 0.950 . S
C1404 H1386 0.951 . S
C1404 C1405 1.366 . S
C1404 C1406 1.388 . S
C1405 C1404 1.366 . S
C1405 C1409 1.385 . S
C1406 H1387 0.951 . S
C1406 C1404 1.388 . S
C1406 C1407 1.366 . S
C1407 C1406 1.366 . S
C1407 C1408 1.414 . S
C1407 C1410 1.499 . S
C1408 H1388 0.950 . S
C1408 C1407 1.414 . S
C1408 C1409 1.374 . S
C1409 H1389 0.950 . S
C1409 C1405 1.385 . S
C1409 C1408 1.374 . S
C1410 C1407 1.499 . S
C1410 C1411 1.373 . S
C1410 C1412 1.389 . S
C1411 H1390 0.950 . S
C1411 C1410 1.373 . S
C1411 C1427 1.377 . S
C1412 C1410 1.389 . S
C1412 C1413 1.524 . S
C1412 C1426 1.377 . S
C1413 C1412 1.524 . S
C1413 C1414 1.397 . S
C1413 C1418 1.363 . S
C1414 H1391 0.950 . S
C1414 C1413 1.397 . S
C1414 C1415 1.334 . S
C1415 H1392 0.950 . S
C1415 C1414 1.334 . S
C1415 C1416 1.287 . S
C1416 C1415 1.287 . S
C1416 C1417 1.524 . S
C1416 H1435 0.913 . S
C1417 H1393 0.950 . S
C1417 C1416 1.524 . S
C1417 C1418 1.415 . S
C1418 H1394 0.950 . S
C1418 C1413 1.363 . S
C1418 C1417 1.415 . S
C1419 H1395 0.951 . S
C1419 C1420 1.366 . S
C1419 C1421 1.388 . S
C1420 C1419 1.366 . S
C1420 C1424 1.385 . S
C1421 H1396 0.951 . S
C1421 C1419 1.388 . S
C1421 C1422 1.366 . S
C1422 C1421 1.366 . S
C1422 C1423 1.414 . S
C1422 C1425 1.499 1_565 S
C1423 H1397 0.950 . S
C1423 C1422 1.414 . S
C1423 C1424 1.374 . S
C1424 H1398 0.950 . S
C1424 C1420 1.385 . S
C1424 C1423 1.374 . S
C1425 C1422 1.499 1_545 S
C1425 C1426 1.373 . S
C1425 C1427 1.389 . S
C1426 H1399 0.950 . S
C1426 C1412 1.377 . S
C1426 C1425 1.373 . S
C1427 C1411 1.377 . S
C1427 C1425 1.389 . S
C1427 C1428 1.524 1_545 S
C1428 C1427 1.524 1_565 S
C1428 C1429 1.397 . S
C1428 C1433 1.363 . S
C1429 H1400 0.950 . S
C1429 C1428 1.397 . S
C1429 C1430 1.334 . S
C1430 H1401 0.950 . S
C1430 C1429 1.334 . S
C1430 C1431 1.287 . S
C1431 C1430 1.287 . S
C1431 C1432 1.524 . S
C1431 H1434 0.999 . S
C1432 H1402 0.950 . S
C1432 C1431 1.524 . S
C1432 C1433 1.415 . S
C1433 H1403 0.950 . S
C1433 C1428 1.363 . S
C1433 C1432 1.415 . S
H1434 C1431 0.999 . S
H1435 C1416 0.913 . S
H1436 C1454 0.951 . S
H1437 C1456 0.951 . S
H1438 C1458 0.950 . S
H1439 C1459 0.950 . S
H1440 C1461 0.950 . S
H1441 C1464 0.950 . S
H1442 C1465 0.950 . S
H1443 C1467 0.950 . S
H1444 C1468 0.950 . S
H1445 C1469 0.951 . S
H1446 C1471 0.951 . S
H1447 C1473 0.950 . S
H1448 C1474 0.950 . S
H1449 C1476 0.950 . S
H1450 C1479 0.950 . S
H1451 C1480 0.950 . S
H1452 C1482 0.950 . S
H1453 C1483 0.950 . S
C1454 H1436 0.951 . S
C1454 C1455 1.366 . S
C1454 C1456 1.388 . S
C1455 C1454 1.366 . S
C1455 C1459 1.385 . S
C1456 H1437 0.951 . S
C1456 C1454 1.388 . S
C1456 C1457 1.366 . S
C1457 C1456 1.366 . S
C1457 C1458 1.414 . S
C1457 C1460 1.499 . S
C1458 H1438 0.950 . S
C1458 C1457 1.414 . S
C1458 C1459 1.374 . S
C1459 H1439 0.950 . S
C1459 C1455 1.385 . S
C1459 C1458 1.374 . S
C1460 C1457 1.499 . S
C1460 C1461 1.373 . S
C1460 C1462 1.389 . S
C1461 H1440 0.950 . S
C1461 C1460 1.373 . S
C1461 C1477 1.377 . S
C1462 C1460 1.389 . S
C1462 C1463 1.524 . S
C1462 C1476 1.377 . S
C1463 C1462 1.524 . S
C1463 C1464 1.397 . S
C1463 C1468 1.363 . S
C1464 H1441 0.950 . S
C1464 C1463 1.397 . S
C1464 C1465 1.334 . S
C1465 H1442 0.950 . S
C1465 C1464 1.334 . S
C1465 C1466 1.287 . S
C1466 C1465 1.287 . S
C1466 C1467 1.524 . S
C1466 H1485 0.913 . S
C1467 H1443 0.950 . S
C1467 C1466 1.524 . S
C1467 C1468 1.415 . S
C1468 H1444 0.950 . S
C1468 C1463 1.363 . S
C1468 C1467 1.415 . S
C1469 H1445 0.951 . S
C1469 C1470 1.366 . S
C1469 C1471 1.388 . S
C1470 C1469 1.366 . S
C1470 C1474 1.385 . S
C1471 H1446 0.951 . S
C1471 C1469 1.388 . S
C1471 C1472 1.366 . S
C1472 C1471 1.366 . S
C1472 C1473 1.414 . S
C1472 C1475 1.499 . S
C1473 H1447 0.950 . S
C1473 C1472 1.414 . S
C1473 C1474 1.374 . S
C1474 H1448 0.950 . S
C1474 C1470 1.385 . S
C1474 C1473 1.374 . S
C1475 C1472 1.499 . S
C1475 C1476 1.373 . S
C1475 C1477 1.389 . S
C1476 H1449 0.950 . S
C1476 C1462 1.377 . S
C1476 C1475 1.373 . S
C1477 C1461 1.377 . S
C1477 C1475 1.389 . S
C1477 C1478 1.524 . S
C1478 C1477 1.524 . S
C1478 C1479 1.397 . S
C1478 C1483 1.363 . S
C1479 H1450 0.950 . S
C1479 C1478 1.397 . S
C1479 C1480 1.334 . S
C1480 H1451 0.950 . S
C1480 C1479 1.334 . S
C1480 C1481 1.287 1_556 S
C1481 C1480 1.287 1_554 S
C1481 C1482 1.524 . S
C1481 H1484 0.999 . S
C1482 H1452 0.950 . S
C1482 C1481 1.524 . S
C1482 C1483 1.415 1_554 S
C1483 H1453 0.950 . S
C1483 C1478 1.363 . S
C1483 C1482 1.415 1_556 S
H1484 C1481 0.999 . S
H1485 C1466 0.913 . S
H1486 C1504 0.951 . S
H1487 C1506 0.951 . S
H1488 C1508 0.950 . S
H1489 C1509 0.950 . S
H1490 C1511 0.950 . S
H1491 C1514 0.950 . S
H1492 C1515 0.950 . S
H1493 C1517 0.950 . S
H1494 C1518 0.950 . S
H1495 C1519 0.951 . S
H1496 C1521 0.951 . S
H1497 C1523 0.950 . S
H1498 C1524 0.950 . S
H1499 C1526 0.950 . S
H1500 C1529 0.950 . S
H1501 C1530 0.950 . S
H1502 C1532 0.950 . S
H1503 C1533 0.950 . S
C1504 H1486 0.951 . S
C1504 C1505 1.366 . S
C1504 C1506 1.388 . S
C1505 C1504 1.366 . S
C1505 C1509 1.385 . S
C1506 H1487 0.951 . S
C1506 C1504 1.388 . S
C1506 C1507 1.366 . S
C1507 C1506 1.366 . S
C1507 C1508 1.414 . S
C1507 C1510 1.499 . S
C1508 H1488 0.950 . S
C1508 C1507 1.414 . S
C1508 C1509 1.374 . S
C1509 H1489 0.950 . S
C1509 C1505 1.385 . S
C1509 C1508 1.374 . S
C1510 C1507 1.499 . S
C1510 C1511 1.373 . S
C1510 C1512 1.389 . S
C1511 H1490 0.950 . S
C1511 C1510 1.373 . S
C1511 C1527 1.377 . S
C1512 C1510 1.389 . S
C1512 C1513 1.524 . S
C1512 C1526 1.377 . S
C1513 C1512 1.524 . S
C1513 C1514 1.397 . S
C1513 C1518 1.363 . S
C1514 H1491 0.950 . S
C1514 C1513 1.397 . S
C1514 C1515 1.334 . S
C1515 H1492 0.950 . S
C1515 C1514 1.334 . S
C1515 C1516 1.287 . S
C1516 C1515 1.287 . S
C1516 C1517 1.524 . S
C1516 H1535 0.913 . S
C1517 H1493 0.950 . S
C1517 C1516 1.524 . S
C1517 C1518 1.415 . S
C1518 H1494 0.950 . S
C1518 C1513 1.363 . S
C1518 C1517 1.415 . S
C1519 H1495 0.951 . S
C1519 C1520 1.366 . S
C1519 C1521 1.388 . S
C1520 C1519 1.366 . S
C1520 C1524 1.385 . S
C1521 H1496 0.951 . S
C1521 C1519 1.388 . S
C1521 C1522 1.366 . S
C1522 C1521 1.366 . S
C1522 C1523 1.414 . S
C1522 C1525 1.499 1_565 S
C1523 H1497 0.950 . S
C1523 C1522 1.414 . S
C1523 C1524 1.374 . S
C1524 H1498 0.950 . S
C1524 C1520 1.385 . S
C1524 C1523 1.374 . S
C1525 C1522 1.499 1_545 S
C1525 C1526 1.373 . S
C1525 C1527 1.389 . S
C1526 H1499 0.950 . S
C1526 C1512 1.377 . S
C1526 C1525 1.373 . S
C1527 C1511 1.377 . S
C1527 C1525 1.389 . S
C1527 C1528 1.524 1_545 S
C1528 C1527 1.524 1_565 S
C1528 C1529 1.397 . S
C1528 C1533 1.363 . S
C1529 H1500 0.950 . S
C1529 C1528 1.397 . S
C1529 C1530 1.334 . S
C1530 H1501 0.950 . S
C1530 C1529 1.334 . S
C1530 C1531 1.287 . S
C1531 C1530 1.287 . S
C1531 C1532 1.524 . S
C1531 H1534 0.999 . S
C1532 H1502 0.950 . S
C1532 C1531 1.524 . S
C1532 C1533 1.415 . S
C1533 H1503 0.950 . S
C1533 C1528 1.363 . S
C1533 C1532 1.415 . S
H1534 C1531 0.999 . S
H1535 C1516 0.913 . S
H1536 C1554 0.951 . S
H1537 C1556 0.951 . S
H1538 C1558 0.950 . S
H1539 C1559 0.950 . S
H1540 C1561 0.950 . S
H1541 C1564 0.950 . S
H1542 C1565 0.950 . S
H1543 C1567 0.950 . S
H1544 C1568 0.950 . S
H1545 C1569 0.951 . S
H1546 C1571 0.951 . S
H1547 C1573 0.950 . S
H1548 C1574 0.950 . S
H1549 C1576 0.950 . S
H1550 C1579 0.950 . S
H1551 C1580 0.950 . S
H1552 C1582 0.950 . S
H1553 C1583 0.950 . S
C1554 H1536 0.951 . S
C1554 C1555 1.366 1_455 S
C1554 C1556 1.388 . S
C1555 C1554 1.366 1_655 S
C1555 C1559 1.385 . S
C1556 H1537 0.951 . S
C1556 C1554 1.388 . S
C1556 C1557 1.360 1_455 S
C1557 C1556 1.360 1_655 S
C1557 C1558 1.421 . S
C1557 C1560 1.497 1_655 S
C1558 H1538 0.950 . S
C1558 C1557 1.421 . S
C1558 C1559 1.374 . S
C1559 H1539 0.950 . S
C1559 C1555 1.385 . S
C1559 C1558 1.374 . S
C1560 C1557 1.497 1_455 S
C1560 C1561 1.348 1_455 S
C1560 C1562 1.415 . S
C1561 H1540 0.950 . S
C1561 C1560 1.348 1_655 S
C1561 C1577 1.377 . S
C1562 C1560 1.415 . S
C1562 C1563 1.524 . S
C1562 C1576 1.377 . S
C1563 C1562 1.524 . S
C1563 C1564 1.397 . S
C1563 C1568 1.363 . S
C1564 H1541 0.950 . S
C1564 C1563 1.397 . S
C1564 C1565 1.334 . S
C1565 H1542 0.950 . S
C1565 C1564 1.334 . S
C1565 C1566 1.287 . S
C1566 C1565 1.287 . S
C1566 C1567 1.524 . S
C1566 H1585 0.913 . S
C1567 H1543 0.950 . S
C1567 C1566 1.524 . S
C1567 C1568 1.415 . S
C1568 H1544 0.950 . S
C1568 C1563 1.363 . S
C1568 C1567 1.415 . S
C1569 H1545 0.951 . S
C1569 C1570 1.366 1_655 S
C1569 C1571 1.388 . S
C1570 C1569 1.366 1_455 S
C1570 C1574 1.385 . S
C1571 H1546 0.951 . S
C1571 C1569 1.388 . S
C1571 C1572 1.366 1_655 S
C1572 C1571 1.366 1_455 S
C1572 C1573 1.414 . S
C1572 C1575 1.499 . S
C1573 H1547 0.950 . S
C1573 C1572 1.414 . S
C1573 C1574 1.374 . S
C1574 H1548 0.950 . S
C1574 C1570 1.385 . S
C1574 C1573 1.374 . S
C1575 C1572 1.499 . S
C1575 C1576 1.373 . S
C1575 C1577 1.389 1_455 S
C1576 H1549 0.950 . S
C1576 C1562 1.377 . S
C1576 C1575 1.373 . S
C1577 C1561 1.377 . S
C1577 C1575 1.389 1_655 S
C1577 C1578 1.524 . S
C1578 C1577 1.524 . S
C1578 C1579 1.397 . S
C1578 C1583 1.363 . S
C1579 H1550 0.950 . S
C1579 C1578 1.397 . S
C1579 C1580 1.334 . S
C1580 H1551 0.950 . S
C1580 C1579 1.334 . S
C1580 C1581 1.287 . S
C1581 C1580 1.287 . S
C1581 C1582 1.524 . S
C1581 H1584 0.999 . S
C1582 H1552 0.950 . S
C1582 C1581 1.524 . S
C1582 C1583 1.415 . S
C1583 H1553 0.950 . S
C1583 C1578 1.363 . S
C1583 C1582 1.415 . S
H1584 C1581 0.999 . S
H1585 C1566 0.913 . S
H1586 C1604 0.951 . S
H1587 C1606 0.951 . S
H1588 C1608 0.950 . S
H1589 C1609 0.950 . S
H1590 C1611 0.950 . S
H1591 C1614 0.950 . S
H1592 C1615 0.950 . S
H1593 C1617 0.950 . S
H1594 C1618 0.950 . S
H1595 C1619 0.951 . S
H1596 C1621 0.951 . S
H1597 C1623 0.950 . S
H1598 C1624 0.950 . S
H1599 C1626 0.950 . S
H1600 C1629 0.950 . S
H1601 C1630 0.950 . S
H1602 C1632 0.950 . S
H1603 C1633 0.950 . S
C1604 H1586 0.951 . S
C1604 C1605 1.366 1_655 S
C1604 C1606 1.388 . S
C1605 C1604 1.366 1_455 S
C1605 C1609 1.385 . S
C1606 H1587 0.951 . S
C1606 C1604 1.388 . S
C1606 C1607 1.366 1_655 S
C1607 C1606 1.366 1_455 S
C1607 C1608 1.414 . S
C1607 C1610 1.499 . S
C1608 H1588 0.950 . S
C1608 C1607 1.414 . S
C1608 C1609 1.374 . S
C1609 H1589 0.950 . S
C1609 C1605 1.385 . S
C1609 C1608 1.374 . S
C1610 C1607 1.499 . S
C1610 C1611 1.373 . S
C1610 C1612 1.389 1_455 S
C1611 H1590 0.950 . S
C1611 C1610 1.373 . S
C1611 C1627 1.377 . S
C1612 C1610 1.389 1_655 S
C1612 C1613 1.524 . S
C1612 C1626 1.377 . S
C1613 C1612 1.524 . S
C1613 C1614 1.397 . S
C1613 C1618 1.363 . S
C1614 H1591 0.950 . S
C1614 C1613 1.397 . S
C1614 C1615 1.334 . S
C1615 H1592 0.950 . S
C1615 C1614 1.334 . S
C1615 C1616 1.287 . S
C1616 C1615 1.287 . S
C1616 C1617 1.524 . S
C1616 H1635 0.913 . S
C1617 H1593 0.950 . S
C1617 C1616 1.524 . S
C1617 C1618 1.415 . S
C1618 H1594 0.950 . S
C1618 C1613 1.363 . S
C1618 C1617 1.415 . S
C1619 H1595 0.951 . S
C1619 C1620 1.366 1_455 S
C1619 C1621 1.388 . S
C1620 C1619 1.366 1_655 S
C1620 C1624 1.385 . S
C1621 H1596 0.951 . S
C1621 C1619 1.388 . S
C1621 C1622 1.366 1_455 S
C1622 C1621 1.366 1_655 S
C1622 C1623 1.414 . S
C1622 C1625 1.499 . S
C1623 H1597 0.950 . S
C1623 C1622 1.414 . S
C1623 C1624 1.374 . S
C1624 H1598 0.950 . S
C1624 C1620 1.385 . S
C1624 C1623 1.374 . S
C1625 C1622 1.499 . S
C1625 C1626 1.376 . S
C1625 C1627 1.386 1_655 S
C1626 H1599 0.950 . S
C1626 C1612 1.377 . S
C1626 C1625 1.376 . S
C1627 C1611 1.377 . S
C1627 C1625 1.386 1_455 S
C1627 C1628 1.524 . S
C1628 C1627 1.524 . S
C1628 C1629 1.397 . S
C1628 C1633 1.363 . S
C1629 H1600 0.950 . S
C1629 C1628 1.397 . S
C1629 C1630 1.334 . S
C1630 H1601 0.950 . S
C1630 C1629 1.334 . S
C1630 C1631 1.287 . S
C1631 C1630 1.287 . S
C1631 C1632 1.524 . S
C1631 H1634 0.999 . S
C1632 H1602 0.950 . S
C1632 C1631 1.524 . S
C1632 C1633 1.415 . S
C1633 H1603 0.950 . S
C1633 C1628 1.363 . S
C1633 C1632 1.415 . S
H1634 C1631 0.999 . S
H1635 C1616 0.913 . S
H1636 C1654 0.951 . S
H1637 C1656 0.951 . S
H1638 C1658 0.950 . S
H1639 C1659 0.950 . S
H1640 C1661 0.950 . S
H1641 C1664 0.950 . S
H1642 C1665 0.950 . S
H1643 C1667 0.950 . S
H1644 C1668 0.950 . S
H1645 C1669 0.951 . S
H1646 C1671 0.951 . S
H1647 C1673 0.950 . S
H1648 C1674 0.950 . S
H1649 C1676 0.950 . S
H1650 C1679 0.950 . S
H1651 C1680 0.950 . S
H1652 C1682 0.950 . S
H1653 C1683 0.950 . S
C1654 H1636 0.951 . S
C1654 C1655 1.366 1_545 S
C1654 C1656 1.388 . S
C1655 C1654 1.366 1_565 S
C1655 C1659 1.385 . S
C1656 H1637 0.951 . S
C1656 C1654 1.388 . S
C1656 C1657 1.356 1_545 S
C1657 C1656 1.356 1_565 S
C1657 C1658 1.425 . S
C1657 C1660 1.498 1_565 S
C1658 H1638 0.950 . S
C1658 C1657 1.425 . S
C1658 C1659 1.374 . S
C1659 H1639 0.950 . S
C1659 C1655 1.385 . S
C1659 C1658 1.374 . S
C1660 C1657 1.498 1_545 S
C1660 C1661 1.356 1_545 S
C1660 C1662 1.407 . S
C1661 H1640 0.950 . S
C1661 C1660 1.356 1_565 S
C1661 C1677 1.377 . S
C1662 C1660 1.407 . S
C1662 C1663 1.524 . S
C1662 C1676 1.377 . S
C1663 C1662 1.524 . S
C1663 C1664 1.397 . S
C1663 C1668 1.363 . S
C1664 H1641 0.950 . S
C1664 C1663 1.397 . S
C1664 C1665 1.334 . S
C1665 H1642 0.950 . S
C1665 C1664 1.334 . S
C1665 C1666 1.287 . S
C1666 C1665 1.287 . S
C1666 C1667 1.524 . S
C1666 H1685 0.913 . S
C1667 H1643 0.950 . S
C1667 C1666 1.524 . S
C1667 C1668 1.415 . S
C1668 H1644 0.950 . S
C1668 C1663 1.363 . S
C1668 C1667 1.415 . S
C1669 H1645 0.951 . S
C1669 C1670 1.366 1_565 S
C1669 C1671 1.388 . S
C1670 C1669 1.366 1_545 S
C1670 C1674 1.385 . S
C1671 H1646 0.951 . S
C1671 C1669 1.388 . S
C1671 C1672 1.366 1_565 S
C1672 C1671 1.366 1_545 S
C1672 C1673 1.414 . S
C1672 C1675 1.499 . S
C1673 H1647 0.950 . S
C1673 C1672 1.414 . S
C1673 C1674 1.374 . S
C1674 H1648 0.950 . S
C1674 C1670 1.385 . S
C1674 C1673 1.374 . S
C1675 C1672 1.499 . S
C1675 C1676 1.373 . S
C1675 C1677 1.389 1_545 S
C1676 H1649 0.950 . S
C1676 C1662 1.377 . S
C1676 C1675 1.373 . S
C1677 C1661 1.377 . S
C1677 C1675 1.389 1_565 S
C1677 C1678 1.524 . S
C1678 C1677 1.524 . S
C1678 C1679 1.397 . S
C1678 C1683 1.363 . S
C1679 H1650 0.950 . S
C1679 C1678 1.397 . S
C1679 C1680 1.334 . S
C1680 H1651 0.950 . S
C1680 C1679 1.334 . S
C1680 C1681 1.287 . S
C1681 C1680 1.287 . S
C1681 C1682 1.524 . S
C1681 H1684 0.999 . S
C1682 H1652 0.950 . S
C1682 C1681 1.524 . S
C1682 C1683 1.415 . S
C1683 H1653 0.950 . S
C1683 C1678 1.363 . S
C1683 C1682 1.415 . S
H1684 C1681 0.999 . S
H1685 C1666 0.913 . S
H1686 C1704 0.951 . S
H1687 C1706 0.951 . S
H1688 C1708 0.950 . S
H1689 C1709 0.950 . S
H1690 C1711 0.950 . S
H1691 C1714 0.950 . S
H1692 C1715 0.950 . S
H1693 C1717 0.950 . S
H1694 C1718 0.950 . S
H1695 C1719 0.951 . S
H1696 C1721 0.951 . S
H1697 C1723 0.950 . S
H1698 C1724 0.950 . S
H1699 C1726 0.950 . S
H1700 C1729 0.950 . S
H1701 C1730 0.950 . S
H1702 C1732 0.950 . S
H1703 C1733 0.950 . S
C1704 H1686 0.951 . S
C1704 C1705 1.366 . S
C1704 C1706 1.388 . S
C1705 C1704 1.366 . S
C1705 C1709 1.385 . S
C1706 H1687 0.951 . S
C1706 C1704 1.388 . S
C1706 C1707 1.366 . S
C1707 C1706 1.366 . S
C1707 C1708 1.414 . S
C1707 C1710 1.499 . S
C1708 H1688 0.950 . S
C1708 C1707 1.414 . S
C1708 C1709 1.374 . S
C1709 H1689 0.950 . S
C1709 C1705 1.385 . S
C1709 C1708 1.374 . S
C1710 C1707 1.499 . S
C1710 C1711 1.373 . S
C1710 C1712 1.389 . S
C1711 H1690 0.950 . S
C1711 C1710 1.373 . S
C1711 C1727 1.377 . S
C1712 C1710 1.389 . S
C1712 C1713 1.524 . S
C1712 C1726 1.377 . S
C1713 C1712 1.524 . S
C1713 C1714 1.397 . S
C1713 C1718 1.363 . S
C1714 H1691 0.950 . S
C1714 C1713 1.397 . S
C1714 C1715 1.334 . S
C1715 H1692 0.950 . S
C1715 C1714 1.334 . S
C1715 C1716 1.287 . S
C1716 C1715 1.287 . S
C1716 C1717 1.524 . S
C1716 H1735 0.913 . S
C1717 H1693 0.950 . S
C1717 C1716 1.524 . S
C1717 C1718 1.415 . S
C1718 H1694 0.950 . S
C1718 C1713 1.363 . S
C1718 C1717 1.415 . S
C1719 H1695 0.951 . S
C1719 C1720 1.366 . S
C1719 C1721 1.388 . S
C1720 C1719 1.366 . S
C1720 C1724 1.385 . S
C1721 H1696 0.951 . S
C1721 C1719 1.388 . S
C1721 C1722 1.366 . S
C1722 C1721 1.366 . S
C1722 C1723 1.414 . S
C1722 C1725 1.499 . S
C1723 H1697 0.950 . S
C1723 C1722 1.414 . S
C1723 C1724 1.374 . S
C1724 H1698 0.950 . S
C1724 C1720 1.385 . S
C1724 C1723 1.374 . S
C1725 C1722 1.499 . S
C1725 C1726 1.373 . S
C1725 C1727 1.389 . S
C1726 H1699 0.950 . S
C1726 C1712 1.377 . S
C1726 C1725 1.373 . S
C1727 C1711 1.377 . S
C1727 C1725 1.389 . S
C1727 C1728 1.524 . S
C1728 C1727 1.524 . S
C1728 C1729 1.397 . S
C1728 C1733 1.363 . S
C1729 H1700 0.950 . S
C1729 C1728 1.397 . S
C1729 C1730 1.334 . S
C1730 H1701 0.950 . S
C1730 C1729 1.334 . S
C1730 C1731 1.287 . S
C1731 C1730 1.287 . S
C1731 C1732 1.524 . S
C1731 H1734 0.999 . S
C1732 H1702 0.950 . S
C1732 C1731 1.524 . S
C1732 C1733 1.415 . S
C1733 H1703 0.950 . S
C1733 C1728 1.363 . S
C1733 C1732 1.415 . S
H1734 C1731 0.999 . S
H1735 C1716 0.913 . S
H1736 C1754 0.951 . S
H1737 C1756 0.951 . S
H1738 C1758 0.950 . S
H1739 C1759 0.950 . S
H1740 C1761 0.950 . S
H1741 C1764 0.950 . S
H1742 C1765 0.950 1_556 S
H1743 C1767 0.950 . S
H1744 C1768 0.950 . S
H1745 C1769 0.951 . S
H1746 C1771 0.951 . S
H1747 C1773 0.950 . S
H1748 C1774 0.950 . S
H1749 C1776 0.950 . S
H1750 C1779 0.950 . S
H1751 C1780 0.950 1_554 S
H1752 C1782 0.950 . S
H1753 C1783 0.950 . S
C1754 H1736 0.951 . S
C1754 C1755 1.366 . S
C1754 C1756 1.388 . S
C1755 C1754 1.366 . S
C1755 C1759 1.385 1_554 S
C1756 H1737 0.951 . S
C1756 C1754 1.388 . S
C1756 C1757 1.366 . S
C1757 C1756 1.366 . S
C1757 C1758 1.414 1_554 S
C1757 C1760 1.501 . S
C1758 H1738 0.950 . S
C1758 C1757 1.414 1_556 S
C1758 C1759 1.374 . S
C1759 H1739 0.950 . S
C1759 C1755 1.385 1_556 S
C1759 C1758 1.374 . S
C1760 C1757 1.501 . S
C1760 C1761 1.363 1_554 S
C1760 C1762 1.400 . S
C1761 H1740 0.950 . S
C1761 C1760 1.363 1_556 S
C1761 C1777 1.377 . S
C1762 C1760 1.400 . S
C1762 C1763 1.524 . S
C1762 C1776 1.377 . S
C1763 C1762 1.524 . S
C1763 C1764 1.397 1_554 S
C1763 C1768 1.363 . S
C1764 H1741 0.950 . S
C1764 C1763 1.397 1_556 S
C1764 C1765 1.334 1_556 S
C1765 H1742 0.950 1_554 S
C1765 C1764 1.334 1_554 S
C1765 C1766 1.287 . S
C1766 C1765 1.287 . S
C1766 C1767 1.524 . S
C1766 H1785 0.913 . S
C1767 H1743 0.950 . S
C1767 C1766 1.524 . S
C1767 C1768 1.415 . S
C1768 H1744 0.950 . S
C1768 C1763 1.363 . S
C1768 C1767 1.415 . S
C1769 H1745 0.951 . S
C1769 C1770 1.366 . S
C1769 C1771 1.388 . S
C1770 C1769 1.366 . S
C1770 C1774 1.385 1_556 S
C1771 H1746 0.951 . S
C1771 C1769 1.388 . S
C1771 C1772 1.366 . S
C1772 C1771 1.366 . S
C1772 C1773 1.414 1_556 S
C1772 C1775 1.496 1_556 S
C1773 H1747 0.950 . S
C1773 C1772 1.414 1_554 S
C1773 C1774 1.374 . S
C1774 H1748 0.950 . S
C1774 C1770 1.385 1_554 S
C1774 C1773 1.374 . S
C1775 C1772 1.496 1_554 S
C1775 C1776 1.384 . S
C1775 C1777 1.380 1_554 S
C1776 H1749 0.950 . S
C1776 C1762 1.377 . S
C1776 C1775 1.384 . S
C1777 C1761 1.377 . S
C1777 C1775 1.380 1_556 S
C1777 C1778 1.524 . S
C1778 C1777 1.524 . S
C1778 C1779 1.397 1_556 S
C1778 C1783 1.363 . S
C1779 H1750 0.950 . S
C1779 C1778 1.397 1_554 S
C1779 C1780 1.334 1_554 S
C1780 H1751 0.950 1_556 S
C1780 C1779 1.334 1_556 S
C1780 C1781 1.287 . S
C1781 C1780 1.287 . S
C1781 C1782 1.524 . S
C1781 H1784 0.999 . S
C1782 H1752 0.950 . S
C1782 C1781 1.524 . S
C1782 C1783 1.415 . S
C1783 H1753 0.950 . S
C1783 C1778 1.363 . S
C1783 C1782 1.415 . S
H1784 C1781 0.999 . S
H1785 C1766 0.913 . S
H1786 C1804 0.951 . S
H1787 C1806 0.951 . S
H1788 C1808 0.950 . S
H1789 C1809 0.950 . S
H1790 C1811 0.950 . S
H1791 C1814 0.950 . S
H1792 C1815 0.950 . S
H1793 C1817 0.950 . S
H1794 C1818 0.950 . S
H1795 C1819 0.951 . S
H1796 C1821 0.951 . S
H1797 C1823 0.950 . S
H1798 C1824 0.950 . S
H1799 C1826 0.950 . S
H1800 C1829 0.950 . S
H1801 C1830 0.950 . S
H1802 C1832 0.950 . S
H1803 C1833 0.950 . S
C1804 H1786 0.951 . S
C1804 C1805 1.366 . S
C1804 C1806 1.388 . S
C1805 C1804 1.366 . S
C1805 C1809 1.385 . S
C1806 H1787 0.951 . S
C1806 C1804 1.388 . S
C1806 C1807 1.366 . S
C1807 C1806 1.366 . S
C1807 C1808 1.414 . S
C1807 C1810 1.499 . S
C1808 H1788 0.950 . S
C1808 C1807 1.414 . S
C1808 C1809 1.374 . S
C1809 H1789 0.950 . S
C1809 C1805 1.385 . S
C1809 C1808 1.374 . S
C1810 C1807 1.499 . S
C1810 C1811 1.373 . S
C1810 C1812 1.389 . S
C1811 H1790 0.950 . S
C1811 C1810 1.373 . S
C1811 C1827 1.377 . S
C1812 C1810 1.389 . S
C1812 C1813 1.524 . S
C1812 C1826 1.377 . S
C1813 C1812 1.524 . S
C1813 C1814 1.397 . S
C1813 C1818 1.363 . S
C1814 H1791 0.950 . S
C1814 C1813 1.397 . S
C1814 C1815 1.334 . S
C1815 H1792 0.950 . S
C1815 C1814 1.334 . S
C1815 C1816 1.287 . S
C1816 C1815 1.287 . S
C1816 C1817 1.524 . S
C1816 H1835 0.913 . S
C1817 H1793 0.950 . S
C1817 C1816 1.524 . S
C1817 C1818 1.415 . S
C1818 H1794 0.950 . S
C1818 C1813 1.363 . S
C1818 C1817 1.415 . S
C1819 H1795 0.951 . S
C1819 C1820 1.366 . S
C1819 C1821 1.388 . S
C1820 C1819 1.366 . S
C1820 C1824 1.385 . S
C1821 H1796 0.951 . S
C1821 C1819 1.388 . S
C1821 C1822 1.366 . S
C1822 C1821 1.366 . S
C1822 C1823 1.414 . S
C1822 C1825 1.499 . S
C1823 H1797 0.950 . S
C1823 C1822 1.414 . S
C1823 C1824 1.374 . S
C1824 H1798 0.950 . S
C1824 C1820 1.385 . S
C1824 C1823 1.374 . S
C1825 C1822 1.499 . S
C1825 C1826 1.373 . S
C1825 C1827 1.389 . S
C1826 H1799 0.950 . S
C1826 C1812 1.377 . S
C1826 C1825 1.373 . S
C1827 C1811 1.377 . S
C1827 C1825 1.389 . S
C1827 C1828 1.524 . S
C1828 C1827 1.524 . S
C1828 C1829 1.397 . S
C1828 C1833 1.363 . S
C1829 H1800 0.950 . S
C1829 C1828 1.397 . S
C1829 C1830 1.334 . S
C1830 H1801 0.950 . S
C1830 C1829 1.334 . S
C1830 C1831 1.287 . S
C1831 C1830 1.287 . S
C1831 C1832 1.524 . S
C1831 H1834 0.999 . S
C1832 H1802 0.950 . S
C1832 C1831 1.524 . S
C1832 C1833 1.415 . S
C1833 H1803 0.950 . S
C1833 C1828 1.363 . S
C1833 C1832 1.415 . S
H1834 C1831 0.999 . S
H1835 C1816 0.913 . S
H1836 C1854 0.951 . S
H1837 C1856 0.951 . S
H1838 C1858 0.950 . S
H1839 C1859 0.950 . S
H1840 C1861 0.950 . S
H1841 C1864 0.950 . S
H1842 C1865 0.950 . S
H1843 C1867 0.950 . S
H1844 C1868 0.950 . S
H1845 C1869 0.951 . S
H1846 C1871 0.951 . S
H1847 C1873 0.950 . S
H1848 C1874 0.950 . S
H1849 C1876 0.950 . S
H1850 C1879 0.950 . S
H1851 C1880 0.950 . S
H1852 C1882 0.950 . S
H1853 C1883 0.950 . S
C1854 H1836 0.951 . S
C1854 C1855 1.366 . S
C1854 C1856 1.388 . S
C1855 C1854 1.366 . S
C1855 C1859 1.385 . S
C1856 H1837 0.951 . S
C1856 C1854 1.388 . S
C1856 C1857 1.366 . S
C1857 C1856 1.366 . S
C1857 C1858 1.414 . S
C1857 C1860 1.499 . S
C1858 H1838 0.950 . S
C1858 C1857 1.414 . S
C1858 C1859 1.374 . S
C1859 H1839 0.950 . S
C1859 C1855 1.385 . S
C1859 C1858 1.374 . S
C1860 C1857 1.499 . S
C1860 C1861 1.373 . S
C1860 C1862 1.389 . S
C1861 H1840 0.950 . S
C1861 C1860 1.373 . S
C1861 C1877 1.377 . S
C1862 C1860 1.389 . S
C1862 C1863 1.524 . S
C1862 C1876 1.377 . S
C1863 C1862 1.524 . S
C1863 C1864 1.397 . S
C1863 C1868 1.363 . S
C1864 H1841 0.950 . S
C1864 C1863 1.397 . S
C1864 C1865 1.334 . S
C1865 H1842 0.950 . S
C1865 C1864 1.334 . S
C1865 C1866 1.287 . S
C1866 C1865 1.287 . S
C1866 C1867 1.524 . S
C1866 H1885 0.913 . S
C1867 H1843 0.950 . S
C1867 C1866 1.524 . S
C1867 C1868 1.415 . S
C1868 H1844 0.950 . S
C1868 C1863 1.363 . S
C1868 C1867 1.415 . S
C1869 H1845 0.951 . S
C1869 C1870 1.366 . S
C1869 C1871 1.388 . S
C1870 C1869 1.366 . S
C1870 C1874 1.385 . S
C1871 H1846 0.951 . S
C1871 C1869 1.388 . S
C1871 C1872 1.366 . S
C1872 C1871 1.366 . S
C1872 C1873 1.414 . S
C1872 C1875 1.499 . S
C1873 H1847 0.950 . S
C1873 C1872 1.414 . S
C1873 C1874 1.374 . S
C1874 H1848 0.950 . S
C1874 C1870 1.385 . S
C1874 C1873 1.374 . S
C1875 C1872 1.499 . S
C1875 C1876 1.373 . S
C1875 C1877 1.389 . S
C1876 H1849 0.950 . S
C1876 C1862 1.377 . S
C1876 C1875 1.373 . S
C1877 C1861 1.377 . S
C1877 C1875 1.389 . S
C1877 C1878 1.524 . S
C1878 C1877 1.524 . S
C1878 C1879 1.397 . S
C1878 C1883 1.363 . S
C1879 H1850 0.950 . S
C1879 C1878 1.397 . S
C1879 C1880 1.334 . S
C1880 H1851 0.950 . S
C1880 C1879 1.334 . S
C1880 C1881 1.287 . S
C1881 C1880 1.287 . S
C1881 C1882 1.524 . S
C1881 H1884 0.999 . S
C1882 H1852 0.950 . S
C1882 C1881 1.524 . S
C1882 C1883 1.415 . S
C1883 H1853 0.950 . S
C1883 C1878 1.363 . S
C1883 C1882 1.415 . S
H1884 C1881 0.999 . S
H1885 C1866 0.913 . S
H1886 C1904 0.951 . S
H1887 C1906 0.951 . S
H1888 C1908 0.950 . S
H1889 C1909 0.950 . S
H1890 C1911 0.950 . S
H1891 C1914 0.950 . S
H1892 C1915 0.950 . S
H1893 C1917 0.950 . S
H1894 C1918 0.950 . S
H1895 C1919 0.951 . S
H1896 C1921 0.951 . S
H1897 C1923 0.950 . S
H1898 C1924 0.950 . S
H1899 C1926 0.950 . S
H1900 C1929 0.950 . S
H1901 C1930 0.950 . S
H1902 C1932 0.950 . S
H1903 C1933 0.950 . S
C1904 H1886 0.951 . S
C1904 C1905 1.366 . S
C1904 C1906 1.388 . S
C1905 C1904 1.366 . S
C1905 C1909 1.385 . S
C1906 H1887 0.951 . S
C1906 C1904 1.388 . S
C1906 C1907 1.366 . S
C1907 C1906 1.366 . S
C1907 C1908 1.414 . S
C1907 C1910 1.499 . S
C1908 H1888 0.950 . S
C1908 C1907 1.414 . S
C1908 C1909 1.374 . S
C1909 H1889 0.950 . S
C1909 C1905 1.385 . S
C1909 C1908 1.374 . S
C1910 C1907 1.499 . S
C1910 C1911 1.373 . S
C1910 C1912 1.389 . S
C1911 H1890 0.950 . S
C1911 C1910 1.373 . S
C1911 C1927 1.377 . S
C1912 C1910 1.389 . S
C1912 C1913 1.524 . S
C1912 C1926 1.377 . S
C1913 C1912 1.524 . S
C1913 C1914 1.397 . S
C1913 C1918 1.363 . S
C1914 H1891 0.950 . S
C1914 C1913 1.397 . S
C1914 C1915 1.334 . S
C1915 H1892 0.950 . S
C1915 C1914 1.334 . S
C1915 C1916 1.287 . S
C1916 C1915 1.287 . S
C1916 C1917 1.524 . S
C1916 H1935 0.913 . S
C1917 H1893 0.950 . S
C1917 C1916 1.524 . S
C1917 C1918 1.415 . S
C1918 H1894 0.950 . S
C1918 C1913 1.363 . S
C1918 C1917 1.415 . S
C1919 H1895 0.951 . S
C1919 C1920 1.366 . S
C1919 C1921 1.388 . S
C1920 C1919 1.366 . S
C1920 C1924 1.385 . S
C1921 H1896 0.951 . S
C1921 C1919 1.388 . S
C1921 C1922 1.366 . S
C1922 C1921 1.366 . S
C1922 C1923 1.414 . S
C1922 C1925 1.499 . S
C1923 H1897 0.950 . S
C1923 C1922 1.414 . S
C1923 C1924 1.374 . S
C1924 H1898 0.950 . S
C1924 C1920 1.385 . S
C1924 C1923 1.374 . S
C1925 C1922 1.499 . S
C1925 C1926 1.373 . S
C1925 C1927 1.389 . S
C1926 H1899 0.950 . S
C1926 C1912 1.377 . S
C1926 C1925 1.373 . S
C1927 C1911 1.377 . S
C1927 C1925 1.389 . S
C1927 C1928 1.524 . S
C1928 C1927 1.524 . S
C1928 C1929 1.397 . S
C1928 C1933 1.363 . S
C1929 H1900 0.950 . S
C1929 C1928 1.397 . S
C1929 C1930 1.334 . S
C1930 H1901 0.950 . S
C1930 C1929 1.334 . S
C1930 C1931 1.287 . S
C1931 C1930 1.287 . S
C1931 C1932 1.524 . S
C1931 H1934 0.999 . S
C1932 H1902 0.950 . S
C1932 C1931 1.524 . S
C1932 C1933 1.415 . S
C1933 H1903 0.950 . S
C1933 C1928 1.363 . S
C1933 C1932 1.415 . S
H1934 C1931 0.999 . S
H1935 C1916 0.913 . S
H1936 C1954 0.951 . S
H1937 C1956 0.951 . S
H1938 C1958 0.950 . S
H1939 C1959 0.950 . S
H1940 C1961 0.950 . S
H1941 C1964 0.950 . S
H1942 C1965 0.950 . S
H1943 C1967 0.950 . S
H1944 C1968 0.950 . S
H1945 C1969 0.951 . S
H1946 C1971 0.951 . S
H1947 C1973 0.950 . S
H1948 C1974 0.950 . S
H1949 C1976 0.950 . S
H1950 C1979 0.950 . S
H1951 C1980 0.950 . S
H1952 C1982 0.950 . S
H1953 C1983 0.950 . S
C1954 H1936 0.951 . S
C1954 C1955 1.366 . S
C1954 C1956 1.388 . S
C1955 C1954 1.366 . S
C1955 C1959 1.385 . S
C1956 H1937 0.951 . S
C1956 C1954 1.388 . S
C1956 C1957 1.366 . S
C1957 C1956 1.366 . S
C1957 C1958 1.414 . S
C1957 C1960 1.499 . S
C1958 H1938 0.950 . S
C1958 C1957 1.414 . S
C1958 C1959 1.374 . S
C1959 H1939 0.950 . S
C1959 C1955 1.385 . S
C1959 C1958 1.374 . S
C1960 C1957 1.499 . S
C1960 C1961 1.373 . S
C1960 C1962 1.389 . S
C1961 H1940 0.950 . S
C1961 C1960 1.373 . S
C1961 C1977 1.377 . S
C1962 C1960 1.389 . S
C1962 C1963 1.524 . S
C1962 C1976 1.377 . S
C1963 C1962 1.524 . S
C1963 C1964 1.397 . S
C1963 C1968 1.363 . S
C1964 H1941 0.950 . S
C1964 C1963 1.397 . S
C1964 C1965 1.334 . S
C1965 H1942 0.950 . S
C1965 C1964 1.334 . S
C1965 C1966 1.287 . S
C1966 C1965 1.287 . S
C1966 C1967 1.524 . S
C1966 H1985 0.913 . S
C1967 H1943 0.950 . S
C1967 C1966 1.524 . S
C1967 C1968 1.415 . S
C1968 H1944 0.950 . S
C1968 C1963 1.363 . S
C1968 C1967 1.415 . S
C1969 H1945 0.951 . S
C1969 C1970 1.366 . S
C1969 C1971 1.388 . S
C1970 C1969 1.366 . S
C1970 C1974 1.385 . S
C1971 H1946 0.951 . S
C1971 C1969 1.388 . S
C1971 C1972 1.366 . S
C1972 C1971 1.366 . S
C1972 C1973 1.414 . S
C1972 C1975 1.499 . S
C1973 H1947 0.950 . S
C1973 C1972 1.414 . S
C1973 C1974 1.374 . S
C1974 H1948 0.950 . S
C1974 C1970 1.385 . S
C1974 C1973 1.374 . S
C1975 C1972 1.499 . S
C1975 C1976 1.373 . S
C1975 C1977 1.389 . S
C1976 H1949 0.950 . S
C1976 C1962 1.377 . S
C1976 C1975 1.373 . S
C1977 C1961 1.377 . S
C1977 C1975 1.389 . S
C1977 C1978 1.524 . S
C1978 C1977 1.524 . S
C1978 C1979 1.397 . S
C1978 C1983 1.363 . S
C1979 H1950 0.950 . S
C1979 C1978 1.397 . S
C1979 C1980 1.334 . S
C1980 H1951 0.950 . S
C1980 C1979 1.334 . S
C1980 C1981 1.287 . S
C1981 C1980 1.287 . S
C1981 C1982 1.524 . S
C1981 H1984 0.999 . S
C1982 H1952 0.950 . S
C1982 C1981 1.524 . S
C1982 C1983 1.415 . S
C1983 H1953 0.950 . S
C1983 C1978 1.363 . S
C1983 C1982 1.415 . S
H1984 C1981 0.999 . S
H1985 C1966 0.913 . S
H1986 C2004 0.951 . S
H1987 C2006 0.951 . S
H1988 C2008 0.950 . S
H1989 C2009 0.950 . S
H1990 C2011 0.950 . S
H1991 C2014 0.950 . S
H1992 C2015 0.950 . S
H1993 C2017 0.950 . S
H1994 C2018 0.950 . S
H1995 C2019 0.951 . S
H1996 C2021 0.951 . S
H1997 C2023 0.950 . S
H1998 C2024 0.950 . S
H1999 C2026 0.950 . S
H2000 C2029 0.950 . S
H2001 C2030 0.950 . S
H2002 C2032 0.950 . S
H2003 C2033 0.950 . S
C2004 H1986 0.951 . S
C2004 C2005 1.366 . S
C2004 C2006 1.388 . S
C2005 C2004 1.366 . S
C2005 C2009 1.385 . S
C2006 H1987 0.951 . S
C2006 C2004 1.388 . S
C2006 C2007 1.366 . S
C2007 C2006 1.366 . S
C2007 C2008 1.414 . S
C2007 C2010 1.499 . S
C2008 H1988 0.950 . S
C2008 C2007 1.414 . S
C2008 C2009 1.374 . S
C2009 H1989 0.950 . S
C2009 C2005 1.385 . S
C2009 C2008 1.374 . S
C2010 C2007 1.499 . S
C2010 C2011 1.373 . S
C2010 C2012 1.389 . S
C2011 H1990 0.950 . S
C2011 C2010 1.373 . S
C2011 C2027 1.377 . S
C2012 C2010 1.389 . S
C2012 C2013 1.524 . S
C2012 C2026 1.377 . S
C2013 C2012 1.524 . S
C2013 C2014 1.397 . S
C2013 C2018 1.363 . S
C2014 H1991 0.950 . S
C2014 C2013 1.397 . S
C2014 C2015 1.334 . S
C2015 H1992 0.950 . S
C2015 C2014 1.334 . S
C2015 C2016 1.287 . S
C2016 C2015 1.287 . S
C2016 C2017 1.524 . S
C2016 H2035 0.913 . S
C2017 H1993 0.950 . S
C2017 C2016 1.524 . S
C2017 C2018 1.415 . S
C2018 H1994 0.950 . S
C2018 C2013 1.363 . S
C2018 C2017 1.415 . S
C2019 H1995 0.951 . S
C2019 C2020 1.366 . S
C2019 C2021 1.388 . S
C2020 C2019 1.366 . S
C2020 C2024 1.385 . S
C2021 H1996 0.951 . S
C2021 C2019 1.388 . S
C2021 C2022 1.366 . S
C2022 C2021 1.366 . S
C2022 C2023 1.414 . S
C2022 C2025 1.499 . S
C2023 H1997 0.950 . S
C2023 C2022 1.414 . S
C2023 C2024 1.374 . S
C2024 H1998 0.950 . S
C2024 C2020 1.385 . S
C2024 C2023 1.374 . S
C2025 C2022 1.499 . S
C2025 C2026 1.373 . S
C2025 C2027 1.389 . S
C2026 H1999 0.950 . S
C2026 C2012 1.377 . S
C2026 C2025 1.373 . S
C2027 C2011 1.377 . S
C2027 C2025 1.389 . S
C2027 C2028 1.524 . S
C2028 C2027 1.524 . S
C2028 C2029 1.397 . S
C2028 C2033 1.363 . S
C2029 H2000 0.950 . S
C2029 C2028 1.397 . S
C2029 C2030 1.334 . S
C2030 H2001 0.950 . S
C2030 C2029 1.334 . S
C2030 C2031 1.287 . S
C2031 C2030 1.287 . S
C2031 C2032 1.524 . S
C2031 H2034 0.999 . S
C2032 H2002 0.950 . S
C2032 C2031 1.524 . S
C2032 C2033 1.415 . S
C2033 H2003 0.950 . S
C2033 C2028 1.363 . S
C2033 C2032 1.415 . S
H2034 C2031 0.999 . S
H2035 C2016 0.913 . S
H2036 C2054 0.951 . S
H2037 C2056 0.951 . S
H2038 C2058 0.950 . S
H2039 C2059 0.950 . S
H2040 C2061 0.950 . S
H2041 C2064 0.950 . S
H2042 C2065 0.950 . S
H2043 C2067 0.944 1_545 S
H2044 C2068 0.950 . S
H2045 C2069 0.951 . S
H2046 C2071 0.951 . S
H2047 C2073 0.950 . S
H2048 C2074 0.950 . S
H2049 C2076 0.950 . S
H2050 C2079 0.950 . S
H2051 C2080 0.950 . S
H2052 C2082 0.950 1_565 S
H2053 C2083 0.950 . S
C2054 H2036 0.951 . S
C2054 C2055 1.366 . S
C2054 C2056 1.388 . S
C2055 C2054 1.366 . S
C2055 C2059 1.385 1_545 S
C2056 H2037 0.951 . S
C2056 C2054 1.388 . S
C2056 C2057 1.366 . S
C2057 C2056 1.366 . S
C2057 C2058 1.414 1_545 S
C2057 C2060 1.500 . S
C2058 H2038 0.950 . S
C2058 C2057 1.414 1_565 S
C2058 C2059 1.374 . S
C2059 H2039 0.950 . S
C2059 C2055 1.385 1_565 S
C2059 C2058 1.374 . S
C2060 C2057 1.500 . S
C2060 C2061 1.375 . S
C2060 C2062 1.388 1_545 S
C2061 H2040 0.950 . S
C2061 C2060 1.375 . S
C2061 C2077 1.377 . S
C2062 C2060 1.388 1_565 S
C2062 C2063 1.524 . S
C2062 C2076 1.377 . S
C2063 C2062 1.524 . S
C2063 C2064 1.397 . S
C2063 C2068 1.363 1_565 S
C2064 H2041 0.950 . S
C2064 C2063 1.397 . S
C2064 C2065 1.334 . S
C2065 H2042 0.950 . S
C2065 C2064 1.334 . S
C2065 C2066 1.287 . S
C2066 C2065 1.287 . S
C2066 C2067 1.533 . S
C2066 H2085 0.913 . S
C2067 H2043 0.944 1_565 S
C2067 C2066 1.533 . S
C2067 C2068 1.412 1_565 S
C2068 H2044 0.950 . S
C2068 C2063 1.363 1_545 S
C2068 C2067 1.412 1_545 S
C2069 H2045 0.951 . S
C2069 C2070 1.366 . S
C2069 C2071 1.388 . S
C2070 C2069 1.366 . S
C2070 C2074 1.385 1_565 S
C2071 H2046 0.951 . S
C2071 C2069 1.388 . S
C2071 C2072 1.366 . S
C2072 C2071 1.366 . S
C2072 C2073 1.414 1_565 S
C2072 C2075 1.496 1_565 S
C2073 H2047 0.950 . S
C2073 C2072 1.414 1_545 S
C2073 C2074 1.374 . S
C2074 H2048 0.950 . S
C2074 C2070 1.385 1_545 S
C2074 C2073 1.374 . S
C2075 C2072 1.496 1_545 S
C2075 C2076 1.369 1_545 S
C2075 C2077 1.394 . S
C2076 H2049 0.950 . S
C2076 C2062 1.377 . S
C2076 C2075 1.369 1_565 S
C2077 C2061 1.377 . S
C2077 C2075 1.394 . S
C2077 C2078 1.524 . S
C2078 C2077 1.524 . S
C2078 C2079 1.397 . S
C2078 C2083 1.363 1_545 S
C2079 H2050 0.950 . S
C2079 C2078 1.397 . S
C2079 C2080 1.334 . S
C2080 H2051 0.950 . S
C2080 C2079 1.334 . S
C2080 C2081 1.287 . S
C2081 C2080 1.287 . S
C2081 C2082 1.524 . S
C2081 H2084 0.999 . S
C2082 H2052 0.950 1_545 S
C2082 C2081 1.524 . S
C2082 C2083 1.415 1_545 S
C2083 H2053 0.950 . S
C2083 C2078 1.363 1_565 S
C2083 C2082 1.415 1_565 S
H2084 C2081 0.999 . S
H2085 C2066 0.913 . S
H2086 C2104 0.951 . S
H2087 C2106 0.951 . S
H2088 C2108 0.950 . S
H2089 C2109 0.950 . S
H2090 C2111 0.950 . S
H2091 C2114 0.950 . S
H2092 C2115 0.950 . S
H2093 C2117 0.950 . S
H2094 C2118 0.950 . S
H2095 C2119 0.951 . S
H2096 C2121 0.951 . S
H2097 C2123 0.950 . S
H2098 C2124 0.950 . S
H2099 C2126 0.950 . S
H2100 C2129 0.950 . S
H2101 C2130 0.950 . S
H2102 C2132 0.950 . S
H2103 C2133 0.950 . S
C2104 H2086 0.951 . S
C2104 C2105 1.366 1_554 S
C2104 C2106 1.388 . S
C2105 C2104 1.366 1_556 S
C2105 C2109 1.385 . S
C2106 H2087 0.951 . S
C2106 C2104 1.388 . S
C2106 C2107 1.366 1_554 S
C2107 C2106 1.366 1_556 S
C2107 C2108 1.414 . S
C2107 C2110 1.499 . S
C2108 H2088 0.950 . S
C2108 C2107 1.414 . S
C2108 C2109 1.374 . S
C2109 H2089 0.950 . S
C2109 C2105 1.385 . S
C2109 C2108 1.374 . S
C2110 C2107 1.499 . S
C2110 C2111 1.389 . S
C2110 C2112 1.373 1_556 S
C2111 H2090 0.950 . S
C2111 C2110 1.389 . S
C2111 C2127 1.377 . S
C2112 C2110 1.373 1_554 S
C2112 C2113 1.524 . S
C2112 C2126 1.377 . S
C2113 C2112 1.524 . S
C2113 C2114 1.397 . S
C2113 C2118 1.363 . S
C2114 H2091 0.950 . S
C2114 C2113 1.397 . S
C2114 C2115 1.334 . S
C2115 H2092 0.950 . S
C2115 C2114 1.334 . S
C2115 C2116 1.287 . S
C2116 C2115 1.287 . S
C2116 C2117 1.524 . S
C2116 H2135 0.913 . S
C2117 H2093 0.950 . S
C2117 C2116 1.524 . S
C2117 C2118 1.415 . S
C2118 H2094 0.950 . S
C2118 C2113 1.363 . S
C2118 C2117 1.415 . S
C2119 H2095 0.951 . S
C2119 C2120 1.366 1_556 S
C2119 C2121 1.388 . S
C2120 C2119 1.366 1_554 S
C2120 C2124 1.385 . S
C2121 H2096 0.951 . S
C2121 C2119 1.388 . S
C2121 C2122 1.366 1_556 S
C2122 C2121 1.366 1_554 S
C2122 C2123 1.414 . S
C2122 C2125 1.499 . S
C2123 H2097 0.950 . S
C2123 C2122 1.414 . S
C2123 C2124 1.374 . S
C2124 H2098 0.950 . S
C2124 C2120 1.385 . S
C2124 C2123 1.374 . S
C2125 C2122 1.499 . S
C2125 C2126 1.373 . S
C2125 C2127 1.389 1_554 S
C2126 H2099 0.950 . S
C2126 C2112 1.377 . S
C2126 C2125 1.373 . S
C2127 C2111 1.377 . S
C2127 C2125 1.389 1_556 S
C2127 C2128 1.524 . S
C2128 C2127 1.524 . S
C2128 C2129 1.397 . S
C2128 C2133 1.363 . S
C2129 H2100 0.950 . S
C2129 C2128 1.397 . S
C2129 C2130 1.334 . S
C2130 H2101 0.950 . S
C2130 C2129 1.334 . S
C2130 C2131 1.287 . S
C2131 C2130 1.287 . S
C2131 C2132 1.524 . S
C2131 H2134 0.999 . S
C2132 H2102 0.950 . S
C2132 C2131 1.524 . S
C2132 C2133 1.415 . S
C2133 H2103 0.950 . S
C2133 C2128 1.363 . S
C2133 C2132 1.415 . S
H2134 C2131 0.999 . S
H2135 C2116 0.913 . S
H2136 C2154 0.950 . S
H2137 C2156 0.949 1_655 S
H2138 C2158 0.950 . S
H2139 C2159 0.950 . S
H2140 C2161 0.948 1_545 S
H2141 C2164 0.950 . S
H2142 C2165 0.950 . S
H2143 C2167 0.950 . S
H2144 C2168 0.950 . S
H2145 C2169 0.951 . S
H2146 C2171 0.951 . S
H2147 C2173 0.949 1_655 S
H2148 C2174 0.951 . S
H2149 C2176 0.950 . S
H2150 C2179 0.950 . S
H2151 C2180 0.950 . S
H2152 C2182 0.950 . S
H2153 C2183 0.950 . S
C2154 H2136 0.950 . S
C2154 C2155 1.369 . S
C2154 C2156 1.387 . S
C2155 C2154 1.369 . S
C2155 C2159 1.385 . S
C2156 H2137 0.949 1_455 S
C2156 C2154 1.387 . S
C2156 C2157 1.365 . S
C2157 C2156 1.365 . S
C2157 C2158 1.417 . S
C2157 C2160 1.499 . S
C2158 H2138 0.950 . S
C2158 C2157 1.417 . S
C2158 C2159 1.374 . S
C2159 H2139 0.950 . S
C2159 C2155 1.385 . S
C2159 C2158 1.374 . S
C2160 C2157 1.499 . S
C2160 C2161 1.411 . S
C2160 C2162 1.381 1_455 S
C2161 H2140 0.948 1_565 S
C2161 C2160 1.411 . S
C2161 C2177 1.351 1_565 S
C2162 C2160 1.381 1_655 S
C2162 C2163 1.524 . S
C2162 C2176 1.377 . S
C2163 C2162 1.524 . S
C2163 C2164 1.397 . S
C2163 C2168 1.363 . S
C2164 H2141 0.950 . S
C2164 C2163 1.397 . S
C2164 C2165 1.334 . S
C2165 H2142 0.950 . S
C2165 C2164 1.334 . S
C2165 C2166 1.287 . S
C2166 C2165 1.287 . S
C2166 C2167 1.524 . S
C2166 H2185 0.913 . S
C2167 H2143 0.950 . S
C2167 C2166 1.524 . S
C2167 C2168 1.415 . S
C2168 H2144 0.950 . S
C2168 C2163 1.363 . S
C2168 C2167 1.415 . S
C2169 H2145 0.951 . S
C2169 C2170 1.367 . S
C2169 C2171 1.388 . S
C2170 C2169 1.367 . S
C2170 C2174 1.384 1_455 S
C2171 H2146 0.951 . S
C2171 C2169 1.388 . S
C2171 C2172 1.366 . S
C2172 C2171 1.366 . S
C2172 C2173 1.414 . S
C2172 C2175 1.499 . S
C2173 H2147 0.949 1_455 S
C2173 C2172 1.414 . S
C2173 C2174 1.373 1_455 S
C2174 H2148 0.951 . S
C2174 C2170 1.384 1_655 S
C2174 C2173 1.373 1_655 S
C2175 C2172 1.499 . S
C2175 C2176 1.373 1_445 S
C2175 C2177 1.389 . S
C2176 H2149 0.950 . S
C2176 C2162 1.377 . S
C2176 C2175 1.373 1_665 S
C2177 C2161 1.351 1_545 S
C2177 C2175 1.389 . S
C2177 C2178 1.524 . S
C2178 C2177 1.524 . S
C2178 C2179 1.397 . S
C2178 C2183 1.363 . S
C2179 H2150 0.950 . S
C2179 C2178 1.397 . S
C2179 C2180 1.334 . S
C2180 H2151 0.950 . S
C2180 C2179 1.334 . S
C2180 C2181 1.287 . S
C2181 C2180 1.287 . S
C2181 C2182 1.524 . S
C2181 H2184 0.999 . S
C2182 H2152 0.950 . S
C2182 C2181 1.524 . S
C2182 C2183 1.415 . S
C2183 H2153 0.950 . S
C2183 C2178 1.363 . S
C2183 C2182 1.415 . S
H2184 C2181 0.999 . S
H2185 C2166 0.913 . S
H2186 C2204 0.951 . S
H2187 C2206 0.951 . S
H2188 C2208 0.950 . S
H2189 C2209 0.950 . S
H2190 C2211 0.950 . S
H2191 C2214 0.950 . S
H2192 C2215 0.950 . S
H2193 C2217 0.950 . S
H2194 C2218 0.950 . S
H2195 C2219 0.951 . S
H2196 C2221 0.951 . S
H2197 C2223 0.950 . S
H2198 C2224 0.950 . S
H2199 C2226 0.950 . S
H2200 C2229 0.950 . S
H2201 C2230 0.950 . S
H2202 C2232 0.950 . S
H2203 C2233 0.950 . S
C2204 H2186 0.951 . S
C2204 C2205 1.366 . S
C2204 C2206 1.388 . S
C2205 C2204 1.366 . S
C2205 C2209 1.385 1_655 S
C2206 H2187 0.951 . S
C2206 C2204 1.388 . S
C2206 C2207 1.366 . S
C2207 C2206 1.366 . S
C2207 C2208 1.414 1_655 S
C2207 C2210 1.499 . S
C2208 H2188 0.950 . S
C2208 C2207 1.414 1_455 S
C2208 C2209 1.374 . S
C2209 H2189 0.950 . S
C2209 C2205 1.385 1_455 S
C2209 C2208 1.374 . S
C2210 C2207 1.499 . S
C2210 C2211 1.373 1_655 S
C2210 C2212 1.389 . S
C2211 H2190 0.950 . S
C2211 C2210 1.373 1_455 S
C2211 C2227 1.377 . S
C2212 C2210 1.389 . S
C2212 C2213 1.524 . S
C2212 C2226 1.377 . S
C2213 C2212 1.524 . S
C2213 C2214 1.397 . S
C2213 C2218 1.363 . S
C2214 H2191 0.950 . S
C2214 C2213 1.397 . S
C2214 C2215 1.334 . S
C2215 H2192 0.950 . S
C2215 C2214 1.334 . S
C2215 C2216 1.287 . S
C2216 C2215 1.287 . S
C2216 C2217 1.524 . S
C2216 H2235 0.913 . S
C2217 H2193 0.950 . S
C2217 C2216 1.524 . S
C2217 C2218 1.415 . S
C2218 H2194 0.950 . S
C2218 C2213 1.363 . S
C2218 C2217 1.415 . S
C2219 H2195 0.951 . S
C2219 C2220 1.366 1_455 S
C2219 C2221 1.388 . S
C2220 C2219 1.366 1_655 S
C2220 C2224 1.385 . S
C2221 H2196 0.951 . S
C2221 C2219 1.388 . S
C2221 C2222 1.366 1_455 S
C2222 C2221 1.366 1_655 S
C2222 C2223 1.414 . S
C2222 C2225 1.499 . S
C2223 H2197 0.950 . S
C2223 C2222 1.414 . S
C2223 C2224 1.374 . S
C2224 H2198 0.950 . S
C2224 C2220 1.385 . S
C2224 C2223 1.374 . S
C2225 C2222 1.499 . S
C2225 C2226 1.373 . S
C2225 C2227 1.389 1_655 S
C2226 H2199 0.950 . S
C2226 C2212 1.377 . S
C2226 C2225 1.373 . S
C2227 C2211 1.377 . S
C2227 C2225 1.389 1_455 S
C2227 C2228 1.524 . S
C2228 C2227 1.524 . S
C2228 C2229 1.397 . S
C2228 C2233 1.363 . S
C2229 H2200 0.950 . S
C2229 C2228 1.397 . S
C2229 C2230 1.334 . S
C2230 H2201 0.950 . S
C2230 C2229 1.334 . S
C2230 C2231 1.287 . S
C2231 C2230 1.287 . S
C2231 C2232 1.524 . S
C2231 H2234 0.999 . S
C2232 H2202 0.950 . S
C2232 C2231 1.524 . S
C2232 C2233 1.415 . S
C2233 H2203 0.950 . S
C2233 C2228 1.363 . S
C2233 C2232 1.415 . S
H2234 C2231 0.999 . S
H2235 C2216 0.913 . S
H2236 C2254 0.951 . S
H2237 C2256 0.951 . S
H2238 C2258 0.950 . S
H2239 C2259 0.950 . S
H2240 C2261 0.950 . S
H2241 C2264 0.950 1_545 S
H2242 C2265 0.950 . S
H2243 C2267 0.950 . S
H2244 C2268 0.950 . S
H2245 C2269 0.951 . S
H2246 C2271 0.951 . S
H2247 C2273 0.950 . S
H2248 C2274 0.950 . S
H2249 C2276 0.950 . S
H2250 C2279 0.905 1_565 S
H2251 C2280 0.950 . S
H2252 C2282 0.950 . S
H2253 C2283 0.950 . S
C2254 H2236 0.951 . S
C2254 C2255 1.366 1_565 S
C2254 C2256 1.388 . S
C2255 C2254 1.366 1_545 S
C2255 C2259 1.385 . S
C2256 H2237 0.951 . S
C2256 C2254 1.388 . S
C2256 C2257 1.366 1_565 S
C2257 C2256 1.366 1_545 S
C2257 C2258 1.414 . S
C2257 C2260 1.499 . S
C2258 H2238 0.950 . S
C2258 C2257 1.414 . S
C2258 C2259 1.374 . S
C2259 H2239 0.950 . S
C2259 C2255 1.385 . S
C2259 C2258 1.374 . S
C2260 C2257 1.499 . S
C2260 C2261 1.373 . S
C2260 C2262 1.389 1_546 S
C2261 H2240 0.950 . S
C2261 C2260 1.373 . S
C2261 C2277 1.377 . S
C2262 C2260 1.389 1_564 S
C2262 C2263 1.524 . S
C2262 C2276 1.377 . S
C2263 C2262 1.524 . S
C2263 C2264 1.397 . S
C2263 C2268 1.363 . S
C2264 H2241 0.950 1_565 S
C2264 C2263 1.397 . S
C2264 C2265 1.334 . S
C2265 H2242 0.950 . S
C2265 C2264 1.334 . S
C2265 C2266 1.287 . S
C2266 C2265 1.287 . S
C2266 C2267 1.524 . S
C2266 H2285 0.913 . S
C2267 H2243 0.950 . S
C2267 C2266 1.524 . S
C2267 C2268 1.415 . S
C2268 H2244 0.950 . S
C2268 C2263 1.363 . S
C2268 C2267 1.415 . S
C2269 H2245 0.951 . S
C2269 C2270 1.387 . S
C2269 C2271 1.388 . S
C2270 C2269 1.387 . S
C2270 C2274 1.364 1_545 S
C2271 H2246 0.951 . S
C2271 C2269 1.388 . S
C2271 C2272 1.404 . S
C2272 C2271 1.404 . S
C2272 C2273 1.375 1_545 S
C2272 C2275 1.498 . S
C2273 H2247 0.950 . S
C2273 C2272 1.375 1_565 S
C2273 C2274 1.374 . S
C2274 H2248 0.950 . S
C2274 C2270 1.364 1_565 S
C2274 C2273 1.374 . S
C2275 C2272 1.498 . S
C2275 C2276 1.364 1_545 S
C2275 C2277 1.399 1_554 S
C2276 H2249 0.950 . S
C2276 C2262 1.377 . S
C2276 C2275 1.364 1_565 S
C2277 C2261 1.377 . S
C2277 C2275 1.399 1_556 S
C2277 C2278 1.524 . S
C2278 C2277 1.524 . S
C2278 C2279 1.397 . S
C2278 C2283 1.363 . S
C2279 H2250 0.905 1_545 S
C2279 C2278 1.397 . S
C2279 C2280 1.334 . S
C2280 H2251 0.950 . S
C2280 C2279 1.334 . S
C2280 C2281 1.287 . S
C2281 C2280 1.287 . S
C2281 C2282 1.524 . S
C2281 H2284 0.999 . S
C2282 H2252 0.950 . S
C2282 C2281 1.524 . S
C2282 C2283 1.415 . S
C2283 H2253 0.950 . S
C2283 C2278 1.363 . S
C2283 C2282 1.415 . S
H2284 C2281 0.999 . S
H2285 C2266 0.913 . S
H2286 C2304 0.951 . S
H2287 C2306 0.951 . S
H2288 C2308 0.950 . S
H2289 C2309 0.950 . S
H2290 C2311 0.950 . S
H2291 C2314 0.950 . S
H2292 C2315 0.950 . S
H2293 C2317 0.950 . S
H2294 C2318 0.950 . S
H2295 C2319 0.951 . S
H2296 C2321 0.951 . S
H2297 C2323 0.950 . S
H2298 C2324 0.950 . S
H2299 C2326 0.950 . S
H2300 C2329 0.950 . S
H2301 C2330 0.950 . S
H2302 C2332 0.950 . S
H2303 C2333 0.950 . S
C2304 H2286 0.951 . S
C2304 C2305 1.366 . S
C2304 C2306 1.388 . S
C2305 C2304 1.366 . S
C2305 C2309 1.385 . S
C2306 H2287 0.951 . S
C2306 C2304 1.388 . S
C2306 C2307 1.366 . S
C2307 C2306 1.366 . S
C2307 C2308 1.414 . S
C2307 C2310 1.499 . S
C2308 H2288 0.950 . S
C2308 C2307 1.414 . S
C2308 C2309 1.374 . S
C2309 H2289 0.950 . S
C2309 C2305 1.385 . S
C2309 C2308 1.374 . S
C2310 C2307 1.499 . S
C2310 C2311 1.373 1_554 S
C2310 C2312 1.389 . S
C2311 H2290 0.950 . S
C2311 C2310 1.373 1_556 S
C2311 C2327 1.377 . S
C2312 C2310 1.389 . S
C2312 C2313 1.524 . S
C2312 C2326 1.377 1_554 S
C2313 C2312 1.524 . S
C2313 C2314 1.397 . S
C2313 C2318 1.363 . S
C2314 H2291 0.950 . S
C2314 C2313 1.397 . S
C2314 C2315 1.334 . S
C2315 H2292 0.950 . S
C2315 C2314 1.334 . S
C2315 C2316 1.287 . S
C2316 C2315 1.287 . S
C2316 C2317 1.524 . S
C2316 H2335 0.913 . S
C2317 H2293 0.950 . S
C2317 C2316 1.524 . S
C2317 C2318 1.415 . S
C2318 H2294 0.950 . S
C2318 C2313 1.363 . S
C2318 C2317 1.415 . S
C2319 H2295 0.951 . S
C2319 C2320 1.366 . S
C2319 C2321 1.388 . S
C2320 C2319 1.366 . S
C2320 C2324 1.385 . S
C2321 H2296 0.951 . S
C2321 C2319 1.388 . S
C2321 C2322 1.366 . S
C2322 C2321 1.366 . S
C2322 C2323 1.414 . S
C2322 C2325 1.499 . S
C2323 H2297 0.950 . S
C2323 C2322 1.414 . S
C2323 C2324 1.374 . S
C2324 H2298 0.950 . S
C2324 C2320 1.385 . S
C2324 C2323 1.374 . S
C2325 C2322 1.499 . S
C2325 C2326 1.373 . S
C2325 C2327 1.389 . S
C2326 H2299 0.950 . S
C2326 C2312 1.377 1_556 S
C2326 C2325 1.373 . S
C2327 C2311 1.377 . S
C2327 C2325 1.389 . S
C2327 C2328 1.524 . S
C2328 C2327 1.524 . S
C2328 C2329 1.397 . S
C2328 C2333 1.363 . S
C2329 H2300 0.950 . S
C2329 C2328 1.397 . S
C2329 C2330 1.334 . S
C2330 H2301 0.950 . S
C2330 C2329 1.334 . S
C2330 C2331 1.287 . S
C2331 C2330 1.287 . S
C2331 C2332 1.524 . S
C2331 H2334 0.999 . S
C2332 H2302 0.950 . S
C2332 C2331 1.524 . S
C2332 C2333 1.415 . S
C2333 H2303 0.950 . S
C2333 C2328 1.363 . S
C2333 C2332 1.415 . S
H2334 C2331 0.999 . S
H2335 C2316 0.913 . S
H2336 C2354 0.951 . S
H2337 C2356 0.951 . S
H2338 C2358 0.950 . S
H2339 C2359 0.950 . S
H2340 C2361 0.950 . S
H2341 C2364 0.950 . S
H2342 C2365 0.950 . S
H2343 C2367 0.950 . S
H2344 C2368 0.950 . S
H2345 C2369 0.951 . S
H2346 C2371 0.951 . S
H2347 C2373 0.950 . S
H2348 C2374 0.950 . S
H2349 C2376 0.950 . S
H2350 C2379 0.950 1_565 S
H2351 C2380 0.950 . S
H2352 C2382 0.950 . S
H2353 C2383 0.950 . S
C2354 H2336 0.951 . S
C2354 C2355 1.366 . S
C2354 C2356 1.388 . S
C2355 C2354 1.366 . S
C2355 C2359 1.385 1_565 S
C2356 H2337 0.951 . S
C2356 C2354 1.388 . S
C2356 C2357 1.366 . S
C2357 C2356 1.366 . S
C2357 C2358 1.414 1_565 S
C2357 C2360 1.499 . S
C2358 H2338 0.950 . S
C2358 C2357 1.414 1_545 S
C2358 C2359 1.374 . S
C2359 H2339 0.950 . S
C2359 C2355 1.385 1_545 S
C2359 C2358 1.374 . S
C2360 C2357 1.499 . S
C2360 C2361 1.373 1_565 S
C2360 C2362 1.389 . S
C2361 H2340 0.950 . S
C2361 C2360 1.373 1_545 S
C2361 C2377 1.377 . S
C2362 C2360 1.389 . S
C2362 C2363 1.524 . S
C2362 C2376 1.377 . S
C2363 C2362 1.524 . S
C2363 C2364 1.397 . S
C2363 C2368 1.363 . S
C2364 H2341 0.950 . S
C2364 C2363 1.397 . S
C2364 C2365 1.334 . S
C2365 H2342 0.950 . S
C2365 C2364 1.334 . S
C2365 C2366 1.287 . S
C2366 C2365 1.287 . S
C2366 C2367 1.524 . S
C2366 H2385 0.913 . S
C2367 H2343 0.950 . S
C2367 C2366 1.524 . S
C2367 C2368 1.415 . S
C2368 H2344 0.950 . S
C2368 C2363 1.363 . S
C2368 C2367 1.415 . S
C2369 H2345 0.951 . S
C2369 C2370 1.366 1_545 S
C2369 C2371 1.388 . S
C2370 C2369 1.366 1_565 S
C2370 C2374 1.385 . S
C2371 H2346 0.951 . S
C2371 C2369 1.388 . S
C2371 C2372 1.366 1_545 S
C2372 C2371 1.366 1_565 S
C2372 C2373 1.414 . S
C2372 C2375 1.499 . S
C2373 H2347 0.950 . S
C2373 C2372 1.414 . S
C2373 C2374 1.374 . S
C2374 H2348 0.950 . S
C2374 C2370 1.385 . S
C2374 C2373 1.374 . S
C2375 C2372 1.499 . S
C2375 C2376 1.373 . S
C2375 C2377 1.389 1_565 S
C2376 H2349 0.950 . S
C2376 C2362 1.377 . S
C2376 C2375 1.373 . S
C2377 C2361 1.377 . S
C2377 C2375 1.389 1_545 S
C2377 C2378 1.524 . S
C2378 C2377 1.524 . S
C2378 C2379 1.397 . S
C2378 C2383 1.363 . S
C2379 H2350 0.950 1_545 S
C2379 C2378 1.397 . S
C2379 C2380 1.334 . S
C2380 H2351 0.950 . S
C2380 C2379 1.334 . S
C2380 C2381 1.287 . S
C2381 C2380 1.287 . S
C2381 C2382 1.524 . S
C2381 H2384 0.999 . S
C2382 H2352 0.950 . S
C2382 C2381 1.524 . S
C2382 C2383 1.415 . S
C2383 H2353 0.950 . S
C2383 C2378 1.363 . S
C2383 C2382 1.415 . S
H2384 C2381 0.999 . S
H2385 C2366 0.913 . S
H2386 C2404 0.951 . S
H2387 C2406 0.951 . S
H2388 C2408 0.950 . S
H2389 C2409 0.950 . S
H2390 C2411 0.950 . S
H2391 C2414 0.950 . S
H2392 C2415 0.950 . S
H2393 C2417 0.950 . S
H2394 C2418 0.950 . S
H2395 C2419 0.951 . S
H2396 C2421 0.951 . S
H2397 C2423 0.950 . S
H2398 C2424 0.950 . S
H2399 C2426 0.950 . S
H2400 C2429 0.950 . S
H2401 C2430 0.950 . S
H2402 C2432 0.950 . S
H2403 C2433 0.950 . S
C2404 H2386 0.951 . S
C2404 C2405 1.366 . S
C2404 C2406 1.388 . S
C2405 C2404 1.366 . S
C2405 C2409 1.385 . S
C2406 H2387 0.951 . S
C2406 C2404 1.388 . S
C2406 C2407 1.366 . S
C2407 C2406 1.366 . S
C2407 C2408 1.414 . S
C2407 C2410 1.499 . S
C2408 H2388 0.950 . S
C2408 C2407 1.414 . S
C2408 C2409 1.374 . S
C2409 H2389 0.950 . S
C2409 C2405 1.385 . S
C2409 C2408 1.374 . S
C2410 C2407 1.499 . S
C2410 C2411 1.373 . S
C2410 C2412 1.389 . S
C2411 H2390 0.950 . S
C2411 C2410 1.373 . S
C2411 C2427 1.377 . S
C2412 C2410 1.389 . S
C2412 C2413 1.524 . S
C2412 C2426 1.377 . S
C2413 C2412 1.524 . S
C2413 C2414 1.397 . S
C2413 C2418 1.363 . S
C2414 H2391 0.950 . S
C2414 C2413 1.397 . S
C2414 C2415 1.334 . S
C2415 H2392 0.950 . S
C2415 C2414 1.334 . S
C2415 C2416 1.287 . S
C2416 C2415 1.287 . S
C2416 C2417 1.524 . S
C2416 H2435 0.913 . S
C2417 H2393 0.950 . S
C2417 C2416 1.524 . S
C2417 C2418 1.415 . S
C2418 H2394 0.950 . S
C2418 C2413 1.363 . S
C2418 C2417 1.415 . S
C2419 H2395 0.951 . S
C2419 C2420 1.366 . S
C2419 C2421 1.388 . S
C2420 C2419 1.366 . S
C2420 C2424 1.385 . S
C2421 H2396 0.951 . S
C2421 C2419 1.388 . S
C2421 C2422 1.366 . S
C2422 C2421 1.366 . S
C2422 C2423 1.414 . S
C2422 C2425 1.499 . S
C2423 H2397 0.950 . S
C2423 C2422 1.414 . S
C2423 C2424 1.374 . S
C2424 H2398 0.950 . S
C2424 C2420 1.385 . S
C2424 C2423 1.374 . S
C2425 C2422 1.499 . S
C2425 C2426 1.373 . S
C2425 C2427 1.389 . S
C2426 H2399 0.950 . S
C2426 C2412 1.377 . S
C2426 C2425 1.373 . S
C2427 C2411 1.377 . S
C2427 C2425 1.389 . S
C2427 C2428 1.524 . S
C2428 C2427 1.524 . S
C2428 C2429 1.397 . S
C2428 C2433 1.363 . S
C2429 H2400 0.950 . S
C2429 C2428 1.397 . S
C2429 C2430 1.334 . S
C2430 H2401 0.950 . S
C2430 C2429 1.334 . S
C2430 C2431 1.287 . S
C2431 C2430 1.287 . S
C2431 C2432 1.524 . S
C2431 H2434 0.999 . S
C2432 H2402 0.950 . S
C2432 C2431 1.524 . S
C2432 C2433 1.415 . S
C2433 H2403 0.950 . S
C2433 C2428 1.363 . S
C2433 C2432 1.415 . S
H2434 C2431 0.999 . S
H2435 C2416 0.913 . S
H2436 C2454 0.951 . S
H2437 C2456 0.951 . S
H2438 C2458 0.950 . S
H2439 C2459 0.950 . S
H2440 C2461 0.950 . S
H2441 C2464 0.950 . S
H2442 C2465 0.950 . S
H2443 C2467 0.950 . S
H2444 C2468 0.950 . S
H2445 C2469 0.951 . S
H2446 C2471 0.951 . S
H2447 C2473 0.950 . S
H2448 C2474 0.950 . S
H2449 C2476 0.948 1_455 S
H2450 C2479 0.950 . S
H2451 C2480 0.950 . S
H2452 C2482 0.950 . S
H2453 C2483 0.950 . S
C2454 H2436 0.951 . S
C2454 C2455 1.386 . S
C2454 C2456 1.388 . S
C2455 C2454 1.386 . S
C2455 C2459 1.364 1_554 S
C2456 H2437 0.951 . S
C2456 C2454 1.388 . S
C2456 C2457 1.411 . S
C2457 C2456 1.411 . S
C2457 C2458 1.368 1_554 S
C2457 C2460 1.498 . S
C2458 H2438 0.950 . S
C2458 C2457 1.368 1_556 S
C2458 C2459 1.374 . S
C2459 H2439 0.950 . S
C2459 C2455 1.364 1_556 S
C2459 C2458 1.374 . S
C2460 C2457 1.498 . S
C2460 C2461 1.356 1_454 S
C2460 C2462 1.407 . S
C2461 H2440 0.950 . S
C2461 C2460 1.356 1_656 S
C2461 C2477 1.377 . S
C2462 C2460 1.407 . S
C2462 C2463 1.524 . S
C2462 C2476 1.351 1_455 S
C2463 C2462 1.524 . S
C2463 C2464 1.397 . S
C2463 C2468 1.363 . S
C2464 H2441 0.950 . S
C2464 C2463 1.397 . S
C2464 C2465 1.334 . S
C2465 H2442 0.950 . S
C2465 C2464 1.334 . S
C2465 C2466 1.287 . S
C2466 C2465 1.287 . S
C2466 C2467 1.524 . S
C2466 H2485 0.913 . S
C2467 H2443 0.950 . S
C2467 C2466 1.524 . S
C2467 C2468 1.415 . S
C2468 H2444 0.950 . S
C2468 C2463 1.363 . S
C2468 C2467 1.415 . S
C2469 H2445 0.951 . S
C2469 C2470 1.366 1_556 S
C2469 C2471 1.388 . S
C2470 C2469 1.366 1_554 S
C2470 C2474 1.385 . S
C2471 H2446 0.951 . S
C2471 C2469 1.388 . S
C2471 C2472 1.366 1_556 S
C2472 C2471 1.366 1_554 S
C2472 C2473 1.414 . S
C2472 C2475 1.499 . S
C2473 H2447 0.950 . S
C2473 C2472 1.414 . S
C2473 C2474 1.374 . S
C2474 H2448 0.950 . S
C2474 C2470 1.385 . S
C2474 C2473 1.374 . S
C2475 C2472 1.499 . S
C2475 C2476 1.401 . S
C2475 C2477 1.389 1_554 S
C2476 H2449 0.948 1_655 S
C2476 C2462 1.351 1_655 S
C2476 C2475 1.401 . S
C2477 C2461 1.377 . S
C2477 C2475 1.389 1_556 S
C2477 C2478 1.524 . S
C2478 C2477 1.524 . S
C2478 C2479 1.397 . S
C2478 C2483 1.363 . S
C2479 H2450 0.950 . S
C2479 C2478 1.397 . S
C2479 C2480 1.334 . S
C2480 H2451 0.950 . S
C2480 C2479 1.334 . S
C2480 C2481 1.287 . S
C2481 C2480 1.287 . S
C2481 C2482 1.524 . S
C2481 H2484 0.999 . S
C2482 H2452 0.950 . S
C2482 C2481 1.524 . S
C2482 C2483 1.415 . S
C2483 H2453 0.950 . S
C2483 C2478 1.363 . S
C2483 C2482 1.415 . S
H2484 C2481 0.999 . S
H2485 C2466 0.913 . S
H2486 C2504 0.951 . S
H2487 C2506 0.951 . S
H2488 C2508 0.950 . S
H2489 C2509 0.950 . S
H2490 C2511 0.950 . S
H2491 C2514 0.950 . S
H2492 C2515 0.950 . S
H2493 C2517 0.950 . S
H2494 C2518 0.950 . S
H2495 C2519 0.951 . S
H2496 C2521 0.951 . S
H2497 C2523 0.950 . S
H2498 C2524 0.950 . S
H2499 C2526 0.950 . S
H2500 C2529 0.950 . S
H2501 C2530 0.950 . S
H2502 C2532 0.950 . S
H2503 C2533 0.950 . S
C2504 H2486 0.951 . S
C2504 C2505 1.366 . S
C2504 C2506 1.388 . S
C2505 C2504 1.366 . S
C2505 C2509 1.385 . S
C2506 H2487 0.951 . S
C2506 C2504 1.388 . S
C2506 C2507 1.366 . S
C2507 C2506 1.366 . S
C2507 C2508 1.414 . S
C2507 C2510 1.499 . S
C2508 H2488 0.950 . S
C2508 C2507 1.414 . S
C2508 C2509 1.374 . S
C2509 H2489 0.950 . S
C2509 C2505 1.385 . S
C2509 C2508 1.374 . S
C2510 C2507 1.499 . S
C2510 C2511 1.373 . S
C2510 C2512 1.389 1_455 S
C2511 H2490 0.950 . S
C2511 C2510 1.373 . S
C2511 C2527 1.377 . S
C2512 C2510 1.389 1_655 S
C2512 C2513 1.524 . S
C2512 C2526 1.377 . S
C2513 C2512 1.524 . S
C2513 C2514 1.397 . S
C2513 C2518 1.363 . S
C2514 H2491 0.950 . S
C2514 C2513 1.397 . S
C2514 C2515 1.334 . S
C2515 H2492 0.950 . S
C2515 C2514 1.334 . S
C2515 C2516 1.287 . S
C2516 C2515 1.287 . S
C2516 C2517 1.524 . S
C2516 H2535 0.913 . S
C2517 H2493 0.950 . S
C2517 C2516 1.524 . S
C2517 C2518 1.415 . S
C2518 H2494 0.950 . S
C2518 C2513 1.363 . S
C2518 C2517 1.415 . S
C2519 H2495 0.951 . S
C2519 C2520 1.366 . S
C2519 C2521 1.388 . S
C2520 C2519 1.366 . S
C2520 C2524 1.385 . S
C2521 H2496 0.951 . S
C2521 C2519 1.388 . S
C2521 C2522 1.366 . S
C2522 C2521 1.366 . S
C2522 C2523 1.414 . S
C2522 C2525 1.499 . S
C2523 H2497 0.950 . S
C2523 C2522 1.414 . S
C2523 C2524 1.374 . S
C2524 H2498 0.950 . S
C2524 C2520 1.385 . S
C2524 C2523 1.374 . S
C2525 C2522 1.499 . S
C2525 C2526 1.373 . S
C2525 C2527 1.389 1_655 S
C2526 H2499 0.950 . S
C2526 C2512 1.377 . S
C2526 C2525 1.373 . S
C2527 C2511 1.377 . S
C2527 C2525 1.389 1_455 S
C2527 C2528 1.524 . S
C2528 C2527 1.524 . S
C2528 C2529 1.397 . S
C2528 C2533 1.363 . S
C2529 H2500 0.950 . S
C2529 C2528 1.397 . S
C2529 C2530 1.334 . S
C2530 H2501 0.950 . S
C2530 C2529 1.334 . S
C2530 C2531 1.287 . S
C2531 C2530 1.287 . S
C2531 C2532 1.524 . S
C2531 H2534 0.999 . S
C2532 H2502 0.950 . S
C2532 C2531 1.524 . S
C2532 C2533 1.415 . S
C2533 H2503 0.950 . S
C2533 C2528 1.363 . S
C2533 C2532 1.415 . S
H2534 C2531 0.999 . S
H2535 C2516 0.913 . S
H2536 C2554 0.951 . S
H2537 C2556 0.951 . S
H2538 C2558 0.950 . S
H2539 C2559 0.950 . S
H2540 C2561 0.950 . S
H2541 C2564 0.950 . S
H2542 C2565 0.950 . S
H2543 C2567 0.950 . S
H2544 C2568 0.950 . S
H2545 C2569 0.951 . S
H2546 C2571 0.951 . S
H2547 C2573 0.950 . S
H2548 C2574 0.950 . S
H2549 C2576 0.950 . S
H2550 C2579 0.950 . S
H2551 C2580 0.950 . S
H2552 C2582 0.950 . S
H2553 C2583 0.950 . S
C2554 H2536 0.951 . S
C2554 C2555 1.366 . S
C2554 C2556 1.388 . S
C2555 C2554 1.366 . S
C2555 C2559 1.385 . S
C2556 H2537 0.951 . S
C2556 C2554 1.388 . S
C2556 C2557 1.366 . S
C2557 C2556 1.366 . S
C2557 C2558 1.414 . S
C2557 C2560 1.499 . S
C2558 H2538 0.950 . S
C2558 C2557 1.414 . S
C2558 C2559 1.374 . S
C2559 H2539 0.950 . S
C2559 C2555 1.385 . S
C2559 C2558 1.374 . S
C2560 C2557 1.499 . S
C2560 C2561 1.373 . S
C2560 C2562 1.389 . S
C2561 H2540 0.950 . S
C2561 C2560 1.373 . S
C2561 C2577 1.377 . S
C2562 C2560 1.389 . S
C2562 C2563 1.524 . S
C2562 C2576 1.377 . S
C2563 C2562 1.524 . S
C2563 C2564 1.397 . S
C2563 C2568 1.363 . S
C2564 H2541 0.950 . S
C2564 C2563 1.397 . S
C2564 C2565 1.334 . S
C2565 H2542 0.950 . S
C2565 C2564 1.334 . S
C2565 C2566 1.287 . S
C2566 C2565 1.287 . S
C2566 C2567 1.524 . S
C2566 H2585 0.913 . S
C2567 H2543 0.950 . S
C2567 C2566 1.524 . S
C2567 C2568 1.415 . S
C2568 H2544 0.950 . S
C2568 C2563 1.363 . S
C2568 C2567 1.415 . S
C2569 H2545 0.951 . S
C2569 C2570 1.366 . S
C2569 C2571 1.388 . S
C2570 C2569 1.366 . S
C2570 C2574 1.385 . S
C2571 H2546 0.951 . S
C2571 C2569 1.388 . S
C2571 C2572 1.366 . S
C2572 C2571 1.366 . S
C2572 C2573 1.414 . S
C2572 C2575 1.499 . S
C2573 H2547 0.950 . S
C2573 C2572 1.414 . S
C2573 C2574 1.374 . S
C2574 H2548 0.950 . S
C2574 C2570 1.385 . S
C2574 C2573 1.374 . S
C2575 C2572 1.499 . S
C2575 C2576 1.373 . S
C2575 C2577 1.389 . S
C2576 H2549 0.950 . S
C2576 C2562 1.377 . S
C2576 C2575 1.373 . S
C2577 C2561 1.377 . S
C2577 C2575 1.389 . S
C2577 C2578 1.524 . S
C2578 C2577 1.524 . S
C2578 C2579 1.397 . S
C2578 C2583 1.363 . S
C2579 H2550 0.950 . S
C2579 C2578 1.397 . S
C2579 C2580 1.334 . S
C2580 H2551 0.950 . S
C2580 C2579 1.334 . S
C2580 C2581 1.287 . S
C2581 C2580 1.287 . S
C2581 C2582 1.524 . S
C2581 H2584 0.999 . S
C2582 H2552 0.950 . S
C2582 C2581 1.524 . S
C2582 C2583 1.415 . S
C2583 H2553 0.950 . S
C2583 C2578 1.363 . S
C2583 C2582 1.415 . S
H2584 C2581 0.999 . S
H2585 C2566 0.913 . S
H2586 C2604 0.951 . S
H2587 C2606 0.951 . S
H2588 C2608 0.950 . S
H2589 C2609 0.950 . S
H2590 C2611 0.950 . S
H2591 C2614 0.950 . S
H2592 C2615 0.950 . S
H2593 C2617 0.950 . S
H2594 C2618 0.950 . S
H2595 C2619 0.951 . S
H2596 C2621 0.951 . S
H2597 C2623 0.950 . S
H2598 C2624 0.950 . S
H2599 C2626 0.950 . S
H2600 C2629 0.950 . S
H2601 C2630 0.950 . S
H2602 C2632 0.950 . S
H2603 C2633 0.950 . S
C2604 H2586 0.951 . S
C2604 C2605 1.366 . S
C2604 C2606 1.388 . S
C2605 C2604 1.366 . S
C2605 C2609 1.385 . S
C2606 H2587 0.951 . S
C2606 C2604 1.388 . S
C2606 C2607 1.366 . S
C2607 C2606 1.366 . S
C2607 C2608 1.414 . S
C2607 C2610 1.499 . S
C2608 H2588 0.950 . S
C2608 C2607 1.414 . S
C2608 C2609 1.374 . S
C2609 H2589 0.950 . S
C2609 C2605 1.385 . S
C2609 C2608 1.374 . S
C2610 C2607 1.499 . S
C2610 C2611 1.373 . S
C2610 C2612 1.389 . S
C2611 H2590 0.950 . S
C2611 C2610 1.373 . S
C2611 C2627 1.377 . S
C2612 C2610 1.389 . S
C2612 C2613 1.524 . S
C2612 C2626 1.377 . S
C2613 C2612 1.524 . S
C2613 C2614 1.397 . S
C2613 C2618 1.363 . S
C2614 H2591 0.950 . S
C2614 C2613 1.397 . S
C2614 C2615 1.334 . S
C2615 H2592 0.950 . S
C2615 C2614 1.334 . S
C2615 C2616 1.287 . S
C2616 C2615 1.287 . S
C2616 C2617 1.524 . S
C2616 H2635 0.913 . S
C2617 H2593 0.950 . S
C2617 C2616 1.524 . S
C2617 C2618 1.415 . S
C2618 H2594 0.950 . S
C2618 C2613 1.363 . S
C2618 C2617 1.415 . S
C2619 H2595 0.951 . S
C2619 C2620 1.366 . S
C2619 C2621 1.388 . S
C2620 C2619 1.366 . S
C2620 C2624 1.385 . S
C2621 H2596 0.951 . S
C2621 C2619 1.388 . S
C2621 C2622 1.366 . S
C2622 C2621 1.366 . S
C2622 C2623 1.414 . S
C2622 C2625 1.499 . S
C2623 H2597 0.950 . S
C2623 C2622 1.414 . S
C2623 C2624 1.374 . S
C2624 H2598 0.950 . S
C2624 C2620 1.385 . S
C2624 C2623 1.374 . S
C2625 C2622 1.499 . S
C2625 C2626 1.373 . S
C2625 C2627 1.389 . S
C2626 H2599 0.950 . S
C2626 C2612 1.377 . S
C2626 C2625 1.373 . S
C2627 C2611 1.377 . S
C2627 C2625 1.389 . S
C2627 C2628 1.524 . S
C2628 C2627 1.524 . S
C2628 C2629 1.397 . S
C2628 C2633 1.363 . S
C2629 H2600 0.950 . S
C2629 C2628 1.397 . S
C2629 C2630 1.334 . S
C2630 H2601 0.950 . S
C2630 C2629 1.334 . S
C2630 C2631 1.287 . S
C2631 C2630 1.287 . S
C2631 C2632 1.524 . S
C2631 H2634 0.999 . S
C2632 H2602 0.950 . S
C2632 C2631 1.524 . S
C2632 C2633 1.415 . S
C2633 H2603 0.950 . S
C2633 C2628 1.363 . S
C2633 C2632 1.415 . S
H2634 C2631 0.999 . S
H2635 C2616 0.913 . S
H2636 C2654 0.951 . S
H2637 C2656 0.951 . S
H2638 C2658 0.950 . S
H2639 C2659 0.950 . S
H2640 C2661 0.950 . S
H2641 C2664 0.950 . S
H2642 C2665 0.950 . S
H2643 C2667 0.950 . S
H2644 C2668 0.950 . S
H2645 C2669 0.951 . S
H2646 C2671 0.951 . S
H2647 C2673 0.950 . S
H2648 C2674 0.950 . S
H2649 C2676 0.950 . S
H2650 C2679 0.950 . S
H2651 C2680 0.950 . S
H2652 C2682 0.950 . S
H2653 C2683 0.950 . S
C2654 H2636 0.951 . S
C2654 C2655 1.366 . S
C2654 C2656 1.388 . S
C2655 C2654 1.366 . S
C2655 C2659 1.385 . S
C2656 H2637 0.951 . S
C2656 C2654 1.388 . S
C2656 C2657 1.366 . S
C2657 C2656 1.366 . S
C2657 C2658 1.414 . S
C2657 C2660 1.499 . S
C2658 H2638 0.950 . S
C2658 C2657 1.414 . S
C2658 C2659 1.374 . S
C2659 H2639 0.950 . S
C2659 C2655 1.385 . S
C2659 C2658 1.374 . S
C2660 C2657 1.499 . S
C2660 C2661 1.373 . S
C2660 C2662 1.389 1_565 S
C2661 H2640 0.950 . S
C2661 C2660 1.373 . S
C2661 C2677 1.377 . S
C2662 C2660 1.389 1_545 S
C2662 C2663 1.524 . S
C2662 C2676 1.377 . S
C2663 C2662 1.524 . S
C2663 C2664 1.397 . S
C2663 C2668 1.363 . S
C2664 H2641 0.950 . S
C2664 C2663 1.397 . S
C2664 C2665 1.334 . S
C2665 H2642 0.950 . S
C2665 C2664 1.334 . S
C2665 C2666 1.287 . S
C2666 C2665 1.287 . S
C2666 C2667 1.524 . S
C2666 H2685 0.913 . S
C2667 H2643 0.950 . S
C2667 C2666 1.524 . S
C2667 C2668 1.415 . S
C2668 H2644 0.950 . S
C2668 C2663 1.363 . S
C2668 C2667 1.415 . S
C2669 H2645 0.951 . S
C2669 C2670 1.366 . S
C2669 C2671 1.388 . S
C2670 C2669 1.366 . S
C2670 C2674 1.385 . S
C2671 H2646 0.951 . S
C2671 C2669 1.388 . S
C2671 C2672 1.366 . S
C2672 C2671 1.366 . S
C2672 C2673 1.414 . S
C2672 C2675 1.499 . S
C2673 H2647 0.950 . S
C2673 C2672 1.414 . S
C2673 C2674 1.374 . S
C2674 H2648 0.950 . S
C2674 C2670 1.385 . S
C2674 C2673 1.374 . S
C2675 C2672 1.499 . S
C2675 C2676 1.373 . S
C2675 C2677 1.389 1_545 S
C2676 H2649 0.950 . S
C2676 C2662 1.377 . S
C2676 C2675 1.373 . S
C2677 C2661 1.377 . S
C2677 C2675 1.389 1_565 S
C2677 C2678 1.524 . S
C2678 C2677 1.524 . S
C2678 C2679 1.397 . S
C2678 C2683 1.363 . S
C2679 H2650 0.950 . S
C2679 C2678 1.397 . S
C2679 C2680 1.334 . S
C2680 H2651 0.950 . S
C2680 C2679 1.334 . S
C2680 C2681 1.287 . S
C2681 C2680 1.287 . S
C2681 C2682 1.524 . S
C2681 H2684 0.999 . S
C2682 H2652 0.950 . S
C2682 C2681 1.524 . S
C2682 C2683 1.415 . S
C2683 H2653 0.950 . S
C2683 C2678 1.363 . S
C2683 C2682 1.415 . S
H2684 C2681 0.999 . S
H2685 C2666 0.913 . S
H2686 C2704 0.951 . S
H2687 C2706 0.951 . S
H2688 C2708 0.950 . S
H2689 C2709 0.950 . S
H2690 C2711 0.950 . S
H2691 C2714 0.950 . S
H2692 C2715 0.950 . S
H2693 C2717 0.950 . S
H2694 C2718 0.950 1_554 S
H2695 C2719 0.951 . S
H2696 C2721 0.951 . S
H2697 C2723 0.950 . S
H2698 C2724 0.950 . S
H2699 C2726 0.950 . S
H2700 C2729 0.950 . S
H2701 C2730 0.950 . S
H2702 C2732 0.950 . S
H2703 C2733 0.950 1_556 S
C2704 H2686 0.951 . S
C2704 C2705 1.366 1_554 S
C2704 C2706 1.388 . S
C2705 C2704 1.366 1_556 S
C2705 C2709 1.385 . S
C2706 H2687 0.951 . S
C2706 C2704 1.388 . S
C2706 C2707 1.366 1_554 S
C2707 C2706 1.366 1_556 S
C2707 C2708 1.414 . S
C2707 C2710 1.499 . S
C2708 H2688 0.950 . S
C2708 C2707 1.414 . S
C2708 C2709 1.374 . S
C2709 H2689 0.950 . S
C2709 C2705 1.385 . S
C2709 C2708 1.374 . S
C2710 C2707 1.499 . S
C2710 C2711 1.373 1_556 S
C2710 C2712 1.389 . S
C2711 H2690 0.950 . S
C2711 C2710 1.373 1_554 S
C2711 C2727 1.377 . S
C2712 C2710 1.389 . S
C2712 C2713 1.524 . S
C2712 C2726 1.377 . S
C2713 C2712 1.524 . S
C2713 C2714 1.397 . S
C2713 C2718 1.363 . S
C2714 H2691 0.950 . S
C2714 C2713 1.397 . S
C2714 C2715 1.334 . S
C2715 H2692 0.950 . S
C2715 C2714 1.334 . S
C2715 C2716 1.287 . S
C2716 C2715 1.287 . S
C2716 C2717 1.524 . S
C2716 H2735 0.913 . S
C2717 H2693 0.950 . S
C2717 C2716 1.524 . S
C2717 C2718 1.415 . S
C2718 H2694 0.950 1_556 S
C2718 C2713 1.363 . S
C2718 C2717 1.415 . S
C2719 H2695 0.951 . S
C2719 C2720 1.366 . S
C2719 C2721 1.388 . S
C2720 C2719 1.366 . S
C2720 C2724 1.385 1_556 S
C2721 H2696 0.951 . S
C2721 C2719 1.388 . S
C2721 C2722 1.366 . S
C2722 C2721 1.366 . S
C2722 C2723 1.414 1_556 S
C2722 C2725 1.499 . S
C2723 H2697 0.950 . S
C2723 C2722 1.414 1_554 S
C2723 C2724 1.374 . S
C2724 H2698 0.950 . S
C2724 C2720 1.385 1_554 S
C2724 C2723 1.374 . S
C2725 C2722 1.499 . S
C2725 C2726 1.373 . S
C2725 C2727 1.389 1_556 S
C2726 H2699 0.950 . S
C2726 C2712 1.377 . S
C2726 C2725 1.373 . S
C2727 C2711 1.377 . S
C2727 C2725 1.389 1_554 S
C2727 C2728 1.524 . S
C2728 C2727 1.524 . S
C2728 C2729 1.397 . S
C2728 C2733 1.363 . S
C2729 H2700 0.950 . S
C2729 C2728 1.397 . S
C2729 C2730 1.334 . S
C2730 H2701 0.950 . S
C2730 C2729 1.334 . S
C2730 C2731 1.287 . S
C2731 C2730 1.287 . S
C2731 C2732 1.524 . S
C2731 H2734 0.999 . S
C2732 H2702 0.950 . S
C2732 C2731 1.524 . S
C2732 C2733 1.415 . S
C2733 H2703 0.950 1_554 S
C2733 C2728 1.363 . S
C2733 C2732 1.415 . S
H2734 C2731 0.999 . S
H2735 C2716 0.913 . S
C355 C247 0.461 . S
C370 C3 0.322 . S
C405 C17 0.351 . S
C420 C233 0.583 . S
C455 C31 0.495 . S
C470 C275 0.554 . S
C505 C45 0.528 . S
C520 C261 0.622 . S
C555 C59 0.330 . S
C570 C303 0.463 . S
C605 C73 0.465 . S
C620 C317 0.545 . S
C655 C289 0.586 . S
C670 C87 0.349 . S
C705 C163 0.606 . S
C720 C101 0.486 . S
C755 C115 0.330 . S
C770 C51 0.463 . S
C805 C23 0.536 . S
C820 C129 0.466 . S
C855 C143 0.681 . S
C870 C9 0.700 . S
C905 C157 0.486 . S
C920 C205 0.606 . S
C955 C79 0.719 . S
C970 C171 0.701 . S
C1005 C65 0.694 . S
C1020 C185 0.681 . S
C1055 C199 0.487 . S
C1070 C107 0.610 . S
C1105 C213 0.464 . S
C1120 C93 0.545 . S
C1155 C135 0.721 . S
C1170 C227 0.702 . S
C1205 C149 0.626 . S
C1220 C241 0.523 . S
C1255 C121 0.694 . S
C1270 C255 0.681 . S
C1305 C269 0.494 . S
C1320 C331 0.554 . S
C1355 C219 0.719 . S
C1370 C283 0.701 . S
C1405 C297 0.526 . S
C1420 C191 0.622 . S
C1455 C177 0.584 . S
C1470 C311 0.348 . S
C1505 C325 0.493 . S
C1520 C37 0.554 . S
C1555 C8 1.818 . S
C1570 C22 1.806 . S
C1605 C50 1.686 . S
C1620 C36 1.697 . S
C1655 C64 1.818 . S
C1670 C92 1.806 . S
C1705 C78 2.030 . S
C1720 C106 2.014 . S
C1755 C316 1.806 . S
C1770 C120 1.818 . S
C1805 C134 2.030 . S
C1820 C162 2.014 . S
C1855 C288 1.913 . S
C1870 C148 1.929 . S
C1905 C190 1.929 . S
C1920 C176 1.913 . S
C1955 C204 2.014 . S
C1970 C218 2.030 . S
C2005 C260 1.929 . S
C2020 C232 1.913 . S
C2055 C246 1.686 . S
C2070 C274 1.697 . S
C2105 C330 1.697 . S
C2120 C302 1.686 . S
C2155 C35 1.003 . S
C2170 C7 1.007 . S
C2205 C21 1.272 . S
C2220 C49 1.268 . S
C2255 C273 1.005 . S
C2270 C63 1.009 . S
C2305 C77 1.206 . S
C2320 C259 1.205 . S
C2355 C91 1.271 . S
C2370 C245 1.268 . S
C2405 C231 1.480 . S
C2420 C105 1.482 . S
C2455 C119 1.006 . S
C2470 C329 1.003 . S
C2505 C133 1.207 . S
C2520 C147 1.206 . S
C2555 C287 1.479 . S
C2570 C161 1.482 . S
C2605 C175 1.480 . S
C2620 C203 1.482 . S
C2655 C189 1.206 . S
C2670 C217 1.207 . S
C2705 C315 1.273 . S
C2720 C301 1.270 . S
