# Generated by pormake.
# Topology wjg, (4)-cn, num edge types: 1
# Building blocks:
#     Node 0, Type 0, BuildingBlock: ICAMEG_clean_sbu_1, # of connection points: 4
#     Node 1, Type 0, BuildingBlock: ICAMEG_clean_sbu_1, # of connection points: 4
#     Node 2, Type 0, BuildingBlock: ICAMEG_clean_sbu_1, # of connection points: 4
#     Node 3, Type 0, BuildingBlock: ICAMEG_clean_sbu_1, # of connection points: 4
#     Node 4, Type 0, BuildingBlock: ICAMEG_clean_sbu_1, # of connection points: 4
#     Node 5, Type 0, BuildingBlock: ICAMEG_clean_sbu_1, # of connection points: 4
#     Node 6, Type 0, BuildingBlock: ICAMEG_clean_sbu_1, # of connection points: 4
#     Node 7, Type 0, BuildingBlock: ICAMEG_clean_sbu_1, # of connection points: 4
#     Node 8, Type 0, BuildingBlock: ICAMEG_clean_sbu_1, # of connection points: 4
#     Node 9, Type 0, BuildingBlock: ICAMEG_clean_sbu_1, # of connection points: 4
#     Node 10, Type 0, BuildingBlock: ICAMEG_clean_sbu_1, # of connection points: 4
#     Node 11, Type 0, BuildingBlock: ICAMEG_clean_sbu_1, # of connection points: 4
#     Edge 12, Type (0, 0), BuildingBlock: TEMPAE_clean_linker_10, # of connection points: 2
#     Edge 13, Type (0, 0), BuildingBlock: TEMPAE_clean_linker_10, # of connection points: 2
#     Edge 14, Type (0, 0), BuildingBlock: TEMPAE_clean_linker_10, # of connection points: 2
#     Edge 15, Type (0, 0), BuildingBlock: TEMPAE_clean_linker_10, # of connection points: 2
#     Edge 16, Type (0, 0), BuildingBlock: TEMPAE_clean_linker_10, # of connection points: 2
#     Edge 17, Type (0, 0), BuildingBlock: TEMPAE_clean_linker_10, # of connection points: 2
#     Edge 18, Type (0, 0), BuildingBlock: TEMPAE_clean_linker_10, # of connection points: 2
#     Edge 19, Type (0, 0), BuildingBlock: TEMPAE_clean_linker_10, # of connection points: 2
#     Edge 20, Type (0, 0), BuildingBlock: TEMPAE_clean_linker_10, # of connection points: 2
#     Edge 21, Type (0, 0), BuildingBlock: TEMPAE_clean_linker_10, # of connection points: 2
#     Edge 22, Type (0, 0), BuildingBlock: TEMPAE_clean_linker_10, # of connection points: 2
#     Edge 23, Type (0, 0), BuildingBlock: TEMPAE_clean_linker_10, # of connection points: 2
#     Edge 24, Type (0, 0), BuildingBlock: TEMPAE_clean_linker_10, # of connection points: 2
#     Edge 25, Type (0, 0), BuildingBlock: TEMPAE_clean_linker_10, # of connection points: 2
#     Edge 26, Type (0, 0), BuildingBlock: TEMPAE_clean_linker_10, # of connection points: 2
#     Edge 27, Type (0, 0), BuildingBlock: TEMPAE_clean_linker_10, # of connection points: 2
#     Edge 28, Type (0, 0), BuildingBlock: TEMPAE_clean_linker_10, # of connection points: 2
#     Edge 29, Type (0, 0), BuildingBlock: TEMPAE_clean_linker_10, # of connection points: 2
#     Edge 30, Type (0, 0), BuildingBlock: TEMPAE_clean_linker_10, # of connection points: 2
#     Edge 31, Type (0, 0), BuildingBlock: TEMPAE_clean_linker_10, # of connection points: 2
#     Edge 32, Type (0, 0), BuildingBlock: TEMPAE_clean_linker_10, # of connection points: 2
#     Edge 33, Type (0, 0), BuildingBlock: TEMPAE_clean_linker_10, # of connection points: 2
#     Edge 34, Type (0, 0), BuildingBlock: TEMPAE_clean_linker_10, # of connection points: 2
#     Edge 35, Type (0, 0), BuildingBlock: TEMPAE_clean_linker_10, # of connection points: 2
# Relax obj value: 0.331
# Max RMSD: 0.124
# Mean RMSD: 0.120
data_MOF--net-wjg--node1-ICAMEG_clean_sbu_1--edge1-TEMPAE_clean_linker_10
_symmetry_space_group_name_H-M    P1
_symmetry_Int_Tables_number       1
_symmetry_cell_setting            triclinic
loop_
_symmetry_equiv_pos_as_xyz
'x, y, z'
_cell_length_a     33.506757
_cell_length_b     33.319506
_cell_length_c     43.356601
_cell_angle_alpha  90.032247
_cell_angle_beta   90.010458
_cell_angle_gamma 120.1594
loop_
_atom_site_label
_atom_site_type_symbol
_atom_site_fract_x
_atom_site_fract_y
_atom_site_fract_z
_atom_type_partial_charge
Co0 Co 0.19321 0.43595 0.34729 0.0
Co1 Co 0.07814 0.35612 0.33804 0.0
O2 O 0.13294 0.41652 0.32893 0.0
C3 C 0.18604 0.52333 0.34448 0.0
O4 O 0.14441 0.50175 0.33263 0.0
C5 C 0.08482 0.36088 0.2706 0.0
O6 O 0.12878 0.37518 0.27434 0.0
O7 O 0.11117 0.32286 0.32704 0.0
O8 O 0.18184 0.37098 0.34558 0.0
H9 H 0.99173 0.19572 0.38335 0.0
H10 H 0.18801 0.48402 0.29051 0.0
O11 O 0.20774 0.50195 0.35041 0.0
H12 H 0.29084 0.42353 0.26377 0.0
H13 H 0.36386 0.5421 0.36396 0.0
H14 H 0.22576 0.39678 0.39611 0.0
H15 H 0.25612 0.41038 0.3155 0.0
H16 H 0.28838 0.51671 0.33933 0.0
O17 O 0.05823 0.35143 0.29383 0.0
H18 H 0.06027 0.27216 0.37313 0.0
H19 H 0.97919 0.3117 0.31988 0.0
H20 H 0.30035 0.42072 0.42129 0.0
H21 H 0.22272 0.49881 0.23886 0.0
H22 H 0.37012 0.49392 0.40523 0.0
H23 H 0.27448 0.46832 0.22506 0.0
O24 O 0.16553 0.42479 0.38881 0.0
H25 H 0.02122 0.46806 0.32059 0.0
H26 H 0.02188 0.35335 0.3921 0.0
H27 H 0.97968 0.39362 0.40626 0.0
H28 H 0.97888 0.45114 0.37025 0.0
H29 H 0.06347 0.42739 0.30751 0.0
H30 H 0.90978 0.23555 0.3294 0.0
H31 H 0.9158 0.17701 0.36141 0.0
O32 O 0.098 0.35858 0.38228 0.0
C33 C 0.15122 0.3316 0.33513 0.0
C34 C 0.98863 0.22101 0.36947 0.0
C35 C 0.94265 0.24335 0.33916 0.0
N36 N 0.02363 0.29653 0.3462 0.0
C37 C 0.02729 0.26442 0.36369 0.0
C38 C 0.98206 0.28638 0.33383 0.0
C39 C 0.94605 0.21052 0.35713 0.0
C40 C 0.21113 0.47143 0.28508 0.0
N41 N 0.2205 0.44703 0.30636 0.0
C42 C 0.23041 0.47955 0.25559 0.0
C43 C 0.25934 0.46233 0.24784 0.0
C44 C 0.26849 0.43716 0.26953 0.0
C45 C 0.24859 0.42972 0.29879 0.0
C46 C 0.33368 0.51018 0.37116 0.0
C47 C 0.25591 0.4286 0.38894 0.0
C48 C 0.29088 0.4957 0.35736 0.0
N49 N 0.25271 0.45525 0.36622 0.0
C50 C 0.29808 0.44202 0.40331 0.0
C51 C 0.3372 0.4831 0.39431 0.0
C52 C 0.13036 0.38874 0.39927 0.0
C53 C 0.02127 0.443 0.33644 0.0
C54 C 0.02222 0.3788 0.37649 0.0
C55 C 0.99805 0.40131 0.38457 0.0
C56 C 0.9976 0.43358 0.36435 0.0
N57 N 0.04527 0.38816 0.34905 0.0
C58 C 0.04503 0.41978 0.32913 0.0
Co59 Co 0.78788 0.20034 0.66299 0.0
Co60 Co 0.7339 0.08292 0.67549 0.0
O61 O 0.74179 0.13698 0.65288 0.0
C62 C 0.70171 0.20436 0.66104 0.0
O63 O 0.68244 0.1674 0.67874 0.0
C64 C 0.74831 0.06621 0.61107 0.0
O65 O 0.78642 0.10663 0.61287 0.0
O66 O 0.80096 0.1038 0.67243 0.0
O67 O 0.83342 0.1814 0.67454 0.0
H68 H 0.77034 0.99725 0.75575 0.0
H69 H 0.74178 0.18004 0.60196 0.0
O70 O 0.74325 0.22104 0.65204 0.0
H71 H 0.90755 0.24708 0.57953 0.0
H72 H 0.8738 0.37347 0.64722 0.0
H73 H 0.85549 0.24533 0.71379 0.0
H74 H 0.88018 0.23879 0.63319 0.0
H75 H 0.81708 0.29225 0.63417 0.0
O76 O 0.72239 0.04958 0.63475 0.0
H77 H 0.78095 0.06648 0.72789 0.0
H78 H 0.66836 0.98161 0.66892 0.0
H79 H 0.91293 0.32594 0.72753 0.0
H80 H 0.76772 0.18808 0.54789 0.0
H81 H 0.92236 0.39071 0.69413 0.0
H82 H 0.85112 0.22162 0.53642 0.0
O83 O 0.76645 0.19096 0.70627 0.0
H84 H 0.57873 0.04803 0.63567 0.0
H85 H 0.66658 0.04958 0.72738 0.0
H86 H 0.58407 0.02487 0.7326 0.0
H87 H 0.53956 0.0239 0.6865 0.0
H88 H 0.66139 0.07294 0.63154 0.0
H89 H 0.6568 0.91136 0.69594 0.0
H90 H 0.7079 0.91899 0.73978 0.0
O91 O 0.74629 0.11685 0.71622 0.0
C92 C 0.83564 0.14442 0.6757 0.0
C93 C 0.74776 0.99349 0.73675 0.0
C94 C 0.68407 0.94527 0.70315 0.0
N95 N 0.72504 0.02807 0.69701 0.0
C96 C 0.7535 0.03257 0.72096 0.0
C97 C 0.69084 0.98514 0.6879 0.0
C98 C 0.71275 0.94958 0.72776 0.0
C99 C 0.77818 0.1952 0.59711 0.0
N100 N 0.80943 0.20916 0.62068 0.0
C101 C 0.79264 0.19946 0.56647 0.0
C102 C 0.83945 0.21821 0.56005 0.0
C103 C 0.87112 0.23248 0.58422 0.0
C104 C 0.8554 0.22763 0.61457 0.0
C105 C 0.8701 0.34554 0.66191 0.0
C106 C 0.85962 0.27327 0.699 0.0
C107 C 0.83798 0.2995 0.65467 0.0
N108 N 0.83324 0.26405 0.67306 0.0
C109 C 0.89211 0.31887 0.70696 0.0
C110 C 0.89734 0.35519 0.68823 0.0
C111 C 0.75642 0.15768 0.72498 0.0
C112 C 0.59772 0.04818 0.65591 0.0
C113 C 0.64748 0.04942 0.70724 0.0
C114 C 0.60074 0.03528 0.71032 0.0
C115 C 0.57578 0.0347 0.68444 0.0
N116 N 0.66873 0.06247 0.67916 0.0
C117 C 0.6445 0.06207 0.65369 0.0
Co118 Co 0.65858 0.74576 0.00349 0.0
Co119 Co 0.58642 0.79036 0.99146 0.0
O120 O 0.60553 0.74504 0.98413 0.0
C121 C 0.67636 0.75499 0.93703 0.0
O122 O 0.66566 0.78776 0.93857 0.0
C123 C 0.50009 0.7032 0.00874 0.0
O124 O 0.52248 0.69358 0.02958 0.0
O125 O 0.59138 0.78505 0.03682 0.0
O126 O 0.64026 0.75818 0.04499 0.0
H127 H 0.59547 0.93076 0.04154 0.0
H128 H 0.59477 0.66633 0.96389 0.0
O129 O 0.67724 0.73428 0.96159 0.0
H130 H 0.58786 0.59907 0.0664 0.0
H131 H 0.76928 0.68692 0.018 0.0
H132 H 0.72675 0.8018 0.0519 0.0
H133 H 0.63831 0.68303 0.05736 0.0
H134 H 0.70277 0.6883 0.9947 0.0
O135 O 0.52084 0.73954 0.99223 0.0
H136 H 0.6208 0.87432 0.03065 0.0
H137 H 0.50806 0.80127 0.96916 0.0
H138 H 0.79324 0.80142 0.07602 0.0
H139 H 0.54415 0.58215 0.97186 0.0
H140 H 0.81489 0.74365 0.05906 0.0
H141 H 0.54043 0.54802 0.02343 0.0
O142 O 0.69926 0.81401 0.99754 0.0
H143 H 0.53732 0.72884 0.88388 0.0
H144 H 0.61916 0.86989 0.94778 0.0
H145 H 0.61435 0.8774 0.8915 0.0
H146 H 0.57298 0.80649 0.85917 0.0
H147 H 0.54391 0.72293 0.94016 0.0
H148 H 0.48103 0.8564 0.97985 0.0
H149 H 0.525 0.92187 0.01613 0.0
O150 O 0.65132 0.84204 0.99033 0.0
C151 C 0.61423 0.77344 0.05467 0.0
C152 C 0.57612 0.90248 0.02559 0.0
C153 C 0.51187 0.86073 0.99098 0.0
N154 N 0.56623 0.83481 0.99906 0.0
C155 C 0.59042 0.87054 0.01922 0.0
C156 C 0.52729 0.82955 0.98508 0.0
C157 C 0.53655 0.89745 0.01135 0.0
C158 C 0.59362 0.65169 0.98634 0.0
N159 N 0.6197 0.67951 0.01008 0.0
C160 C 0.56477 0.60402 0.99074 0.0
C161 C 0.56265 0.58489 0.01969 0.0
C162 C 0.58924 0.61352 0.04381 0.0
C163 C 0.61767 0.66105 0.03857 0.0
C164 C 0.76016 0.71222 0.0256 0.0
C165 C 0.73582 0.77642 0.04452 0.0
C166 C 0.72263 0.71324 0.01244 0.0
N167 N 0.71078 0.74493 0.02207 0.0
C168 C 0.77357 0.77644 0.0582 0.0
C169 C 0.78572 0.74405 0.04865 0.0
C170 C 0.69146 0.84724 0.99305 0.0
C171 C 0.55529 0.75998 0.89774 0.0
C172 C 0.6015 0.8389 0.93383 0.0
C173 C 0.59868 0.84336 0.90199 0.0
C174 C 0.57539 0.80357 0.88388 0.0
N175 N 0.58181 0.79603 0.94724 0.0
C176 C 0.55904 0.75686 0.92962 0.0
Co177 Co 0.79167 0.56819 0.3158 0.0
Co178 Co 0.9066 0.63724 0.33651 0.0
O179 O 0.8557 0.58266 0.31664 0.0
C180 C 0.78513 0.48377 0.34433 0.0
O181 O 0.81838 0.50979 0.36367 0.0
C182 C 0.93627 0.63105 0.27189 0.0
O183 O 0.89878 0.59085 0.26805 0.0
O184 O 0.88456 0.67896 0.3211 0.0
O185 O 0.81068 0.63379 0.30716 0.0
H186 H 0.97648 0.78104 0.40224 0.0
H187 H 0.81394 0.50859 0.27668 0.0
O188 O 0.77096 0.50196 0.32452 0.0
H189 H 0.7599 0.58546 0.20448 0.0
H190 H 0.62249 0.46953 0.29093 0.0
H191 H 0.74158 0.61367 0.3404 0.0
H192 H 0.76306 0.60053 0.26031 0.0
H193 H 0.70408 0.4896 0.29086 0.0
O194 O 0.94537 0.65259 0.29767 0.0
H195 H 0.91295 0.71188 0.37725 0.0
H196 H 0.00874 0.67862 0.33775 0.0
H197 H 0.66054 0.59531 0.34055 0.0
H198 H 0.81021 0.49166 0.2211 0.0
H199 H 0.60031 0.52271 0.31575 0.0
H200 H 0.78346 0.53056 0.18451 0.0
O201 O 0.79352 0.58067 0.36072 0.0
H202 H 0.94973 0.51181 0.33218 0.0
H203 H 0.93859 0.62649 0.39787 0.0
H204 H 0.96664 0.57734 0.42021 0.0
H205 H 0.97275 0.51973 0.38729 0.0
H206 H 0.92136 0.561 0.31095 0.0
H207 H 0.07342 0.74768 0.36212 0.0
H208 H 0.05741 0.79932 0.39472 0.0
O209 O 0.86813 0.62455 0.37469 0.0
C210 C 0.84663 0.67337 0.31061 0.0
C211 C 0.98389 0.75873 0.38816 0.0
C212 C 0.0383 0.74005 0.36559 0.0
N213 N 0.95714 0.69115 0.3562 0.0
C214 C 0.94804 0.71945 0.37403 0.0
C215 C 0.00158 0.70111 0.35178 0.0
C216 C 0.02929 0.769 0.3839 0.0
C217 C 0.80171 0.52527 0.26101 0.0
N218 N 0.78926 0.55597 0.27181 0.0
C219 C 0.79993 0.51572 0.22951 0.0
C220 C 0.785 0.53762 0.20899 0.0
C221 C 0.7719 0.56852 0.22017 0.0
C222 C 0.77416 0.57723 0.25182 0.0
C223 C 0.64844 0.50133 0.30173 0.0
C224 C 0.71567 0.58224 0.32928 0.0
C225 C 0.69469 0.51284 0.30182 0.0
N226 N 0.72765 0.55299 0.31536 0.0
C227 C 0.66979 0.57193 0.32956 0.0
C228 C 0.63601 0.53118 0.31567 0.0
C229 C 0.8249 0.6032 0.38077 0.0
C230 C 0.94768 0.53715 0.3467 0.0
C231 C 0.94114 0.6016 0.38325 0.0
C232 C 0.95707 0.57381 0.3961 0.0
C233 C 0.96047 0.54148 0.37762 0.0
N234 N 0.92927 0.59777 0.35274 0.0
C235 C 0.93191 0.56558 0.33464 0.0
Co236 Co 0.20056 0.78045 0.66009 0.0
Co237 Co 0.25303 0.89854 0.66936 0.0
O238 O 0.24567 0.84349 0.64824 0.0
C239 C 0.28771 0.77776 0.65743 0.0
O240 O 0.30814 0.81669 0.67319 0.0
C241 C 0.23617 0.91097 0.6047 0.0
O242 O 0.19941 0.86963 0.60725 0.0
O243 O 0.18569 0.87619 0.66667 0.0
O244 O 0.15439 0.79902 0.67088 0.0
H245 H 0.21582 0.9869 0.7471 0.0
H246 H 0.24506 0.79742 0.59868 0.0
O247 O 0.24544 0.75978 0.64981 0.0
H248 H 0.07848 0.72687 0.57763 0.0
H249 H 0.11603 0.6065 0.64877 0.0
H250 H 0.13571 0.73788 0.7125 0.0
H251 H 0.1073 0.73884 0.6311 0.0
H252 H 0.17103 0.68711 0.63338 0.0
O253 O 0.26257 0.92944 0.62797 0.0
H254 H 0.20616 0.9167 0.72107 0.0
H255 H 0.31689 -0.00022 0.66041 0.0
H256 H 0.0799 0.65789 0.72855 0.0
H257 H 0.21766 0.78562 0.5448 0.0
H258 H 0.06982 0.59149 0.6966 0.0
H259 H 0.13384 0.75033 0.53402 0.0
O260 O 0.22337 0.79295 0.70313 0.0
H261 H 0.40806 0.93453 0.6287 0.0
H262 H 0.32183 0.93615 0.72041 0.0
H263 H 0.4049 0.9629 0.72499 0.0
H264 H 0.44858 0.96228 0.67889 0.0
H265 H 0.32488 0.90766 0.62521 0.0
H266 H 0.32746 0.07095 0.68557 0.0
H267 H 0.27681 0.06472 0.72934 0.0
O268 O 0.24249 0.86732 0.71078 0.0
C269 C 0.15133 0.8356 0.67078 0.0
C270 C 0.2382 0.99006 0.72812 0.0
C271 C 0.30082 0.03723 0.69356 0.0
N272 N 0.26123 0.95417 0.68946 0.0
C273 C 0.233 0.95043 0.71337 0.0
C274 C 0.29462 0.99684 0.67937 0.0
C275 C 0.27241 0.03371 0.71813 0.0
C276 C 0.20848 0.78147 0.59415 0.0
N277 N 0.17782 0.76861 0.61799 0.0
C278 C 0.19319 0.7751 0.56361 0.0
C279 C 0.14616 0.75537 0.55757 0.0
C280 C 0.11508 0.74222 0.58202 0.0
C281 C 0.13163 0.74916 0.61226 0.0
C282 C 0.12 0.63513 0.66284 0.0
C283 C 0.1312 0.70921 0.69832 0.0
C284 C 0.15116 0.68085 0.65427 0.0
N285 N 0.15627 0.71719 0.67188 0.0
C286 C 0.09968 0.66397 0.70759 0.0
C287 C 0.09408 0.62674 0.68967 0.0
C288 C 0.23341 0.82741 0.72077 0.0
C289 C 0.38942 0.93508 0.64893 0.0
C290 C 0.34058 0.93561 0.70028 0.0
C291 C 0.38763 0.95091 0.70299 0.0
C292 C 0.41213 0.95059 0.67711 0.0
N293 N 0.31859 0.92055 0.67254 0.0
C294 C 0.34236 0.92009 0.64707 0.0
Co295 Co 0.36454 0.25946 0.00518 0.0
Co296 Co 0.42895 0.2061 0.99372 0.0
O297 O 0.414 0.25429 0.98487 0.0
C298 C 0.34336 0.25012 0.9393 0.0
O299 O 0.35059 0.21494 0.94039 0.0
C300 C 0.51913 0.29384 0.99939 0.0
O301 O 0.49863 0.31377 0.01308 0.0
O302 O 0.43146 0.219 0.03853 0.0
O303 O 0.38211 0.24528 0.04647 0.0
H304 H 0.41371 0.06782 0.0508 0.0
H305 H 0.43069 0.33565 0.96452 0.0
O306 O 0.34624 0.27261 0.96384 0.0
H307 H 0.44874 0.40679 0.06711 0.0
H308 H 0.26622 0.33233 0.02191 0.0
H309 H 0.29583 0.20775 0.05421 0.0
H310 H 0.39234 0.32385 0.05888 0.0
H311 H 0.32838 0.32421 0.99758 0.0
O312 O 0.49597 0.25195 0.99023 0.0
H313 H 0.39511 0.12896 0.03884 0.0
H314 H 0.49655 0.18134 0.96816 0.0
H315 H 0.23362 0.21484 0.07936 0.0
H316 H 0.48717 0.4188 0.97166 0.0
H317 H 0.21848 0.27749 0.06321 0.0
H318 H 0.49657 0.45486 0.02328 0.0
O319 O 0.31908 0.19222 0.99947 0.0
H320 H 0.46632 0.24954 0.88214 0.0
H321 H 0.38243 0.12029 0.95513 0.0
H322 H 0.3778 0.10397 0.89937 0.0
H323 H 0.42008 0.16887 0.86245 0.0
H324 H 0.46926 0.26443 0.93807 0.0
H325 H 0.51681 0.12126 0.97971 0.0
H326 H 0.47496 0.0637 0.02112 0.0
O327 O 0.36272 0.15883 0.9975 0.0
C328 C 0.40901 0.23115 0.05629 0.0
C329 C 0.43207 0.0926 0.03263 0.0
C330 C 0.48995 0.12261 0.99274 0.0
N331 N 0.44444 0.15845 0.00266 0.0
C332 C 0.4216 0.12721 0.02568 0.0
C333 C 0.47843 0.15664 0.98637 0.0
C334 C 0.46647 0.09033 0.01598 0.0
C335 C 0.43425 0.35119 0.98698 0.0
N336 N 0.4081 0.32498 0.01122 0.0
C337 C 0.46644 0.39825 0.99091 0.0
C338 C 0.47174 0.41844 0.0199 0.0
C339 C 0.44495 0.39148 0.0445 0.0
C340 C 0.41316 0.34451 0.03972 0.0
C341 C 0.27254 0.30495 0.02919 0.0
C342 C 0.28966 0.2353 0.04722 0.0
C343 C 0.30762 0.30014 0.01546 0.0
N344 N 0.31593 0.26579 0.02466 0.0
C345 C 0.25429 0.23905 0.06147 0.0
C346 C 0.24578 0.27418 0.05237 0.0
C347 C 0.3237 0.15657 0.99856 0.0
C348 C 0.44792 0.22096 0.89801 0.0
C349 C 0.4007 0.14876 0.93922 0.0
C350 C 0.39808 0.13928 0.90766 0.0
C351 C 0.42188 0.17569 0.88697 0.0
N352 N 0.42628 0.19327 0.94987 0.0
C353 C 0.44961 0.22916 0.92971 0.0
Co354 Co 0.58304 0.7803 0.34573 0.0
Co355 Co 0.6438 0.89956 0.33637 0.0
O356 O 0.59476 0.84246 0.35497 0.0
C357 C 0.49366 0.77555 0.33228 0.0
O358 O 0.51599 0.81826 0.32179 0.0
C359 C 0.66494 0.90815 0.40275 0.0
O360 O 0.65854 0.86606 0.40048 0.0
O361 O 0.69047 0.87919 0.34005 0.0
O362 O 0.6499 0.80208 0.34766 0.0
H363 H 0.7746 0.99509 0.2637 0.0
H364 H 0.53345 0.79482 0.39716 0.0
O365 O 0.51534 0.75648 0.34324 0.0
H366 H 0.61886 0.72594 0.44478 0.0
H367 H 0.49693 0.60588 0.35402 0.0
H368 H 0.6279 0.7424 0.30554 0.0
H369 H 0.62248 0.73917 0.38863 0.0
H370 H 0.51223 0.68485 0.36573 0.0
O371 O 0.661 0.92826 0.37882 0.0
H372 H 0.71312 0.92262 0.28679 0.0
H373 H 0.67799 -0.00023 0.34785 0.0
H374 H 0.61434 0.66415 0.29361 0.0
H375 H 0.52852 0.78183 0.4534 0.0
H376 H 0.54843 0.59519 0.31791 0.0
H377 H 0.57162 0.74736 0.47757 0.0
O378 O 0.58811 0.79314 0.30074 0.0
H379 H 0.51855 0.92901 0.37333 0.0
H380 H 0.61542 0.9388 0.28478 0.0
H381 H 0.55801 0.96389 0.2786 0.0
H382 H 0.50918 0.9592 0.32312 0.0
H383 H 0.57609 0.90392 0.37843 0.0
H384 H 0.7394 0.07315 0.32561 0.0
H385 H 0.78809 0.07107 0.28315 0.0
O386 O 0.6273 0.87071 0.29417 0.0
C387 C 0.68775 0.84006 0.34438 0.0
C388 C 0.75354 0.99646 0.28214 0.0
C389 C 0.73382 0.04027 0.31692 0.0
N390 N 0.69183 0.95698 0.3185 0.0
C391 C 0.71859 0.95553 0.29525 0.0
C392 C 0.69919 0.99862 0.32947 0.0
C393 C 0.76112 0.03908 0.29308 0.0
C394 C 0.55191 0.77937 0.40749 0.0
N395 N 0.5781 0.76764 0.38965 0.0
C396 C 0.54915 0.77227 0.43935 0.0
C397 C 0.57338 0.75298 0.4529 0.0
C398 C 0.59992 0.74098 0.43452 0.0
C399 C 0.60192 0.74864 0.40275 0.0
C400 C 0.52583 0.63566 0.34334 0.0
C401 C 0.59935 0.7126 0.31639 0.0
C402 C 0.53457 0.68045 0.34981 0.0
N403 N 0.57114 0.71823 0.33653 0.0
C404 C 0.59174 0.66836 0.30945 0.0
C405 C 0.55473 0.62968 0.32308 0.0
C406 C 0.60635 0.82917 0.28363 0.0
C407 C 0.53973 0.93137 0.35379 0.0
C408 C 0.59418 0.93649 0.30422 0.0
C409 C 0.5618 0.95085 0.30061 0.0
C410 C 0.53444 0.94823 0.3256 0.0
N411 N 0.59926 0.92014 0.33198 0.0
C412 C 0.5725 0.91739 0.35658 0.0
Co413 Co 0.76718 0.57221 0.65913 0.0
Co414 Co 0.71914 0.64145 0.66015 0.0
O415 O 0.72318 0.58852 0.67564 0.0
C416 C 0.68106 0.47986 0.65901 0.0
O417 O 0.66049 0.49676 0.64203 0.0
C418 C 0.70498 0.63669 0.72923 0.0
O419 O 0.70708 0.59856 0.73052 0.0
O420 O 0.78613 0.6831 0.66771 0.0
O421 O 0.81324 0.6384 0.64984 0.0
H422 H 0.77069 0.78483 0.59606 0.0
H423 H 0.72979 0.53445 0.72138 0.0
O424 O 0.72261 0.50564 0.66783 0.0
H425 H 0.8978 0.63393 0.73577 0.0
H426 H 0.84927 0.48058 0.65518 0.0
H427 H 0.82784 0.60054 0.60398 0.0
H428 H 0.86313 0.62364 0.68424 0.0
H429 H 0.79679 0.50475 0.67729 0.0
O430 O 0.70759 0.65662 0.70347 0.0
H431 H 0.77369 0.71681 0.61545 0.0
H432 H 0.6581 0.68062 0.67318 0.0
H433 H 0.88093 0.57772 0.58125 0.0
H434 H 0.76321 0.54319 0.77329 0.0
H435 H 0.89192 0.51729 0.60688 0.0
H436 H 0.84777 0.59347 0.7808 0.0
O437 O 0.74025 0.56603 0.61789 0.0
H438 H 0.55729 0.51382 0.68535 0.0
H439 H 0.65689 0.6284 0.60761 0.0
H440 H 0.5742 0.57724 0.59657 0.0
H441 H 0.52365 0.51968 0.6357 0.0
H442 H 0.63998 0.56511 0.69528 0.0
H443 H 0.65413 0.74856 0.65467 0.0
H444 H 0.71058 0.80107 0.61571 0.0
O445 O 0.7322 0.62895 0.61648 0.0
C446 C 0.81885 0.67768 0.65785 0.0
C447 C 0.7458 0.76212 0.61295 0.0
C448 C 0.68042 0.7418 0.64589 0.0
N449 N 0.71585 0.69457 0.64519 0.0
C450 C 0.74724 0.72346 0.62394 0.0
C451 C 0.68291 0.70347 0.65634 0.0
C452 C 0.7121 0.77124 0.62402 0.0
C453 C 0.76661 0.55633 0.7244 0.0
N454 N 0.79425 0.57915 0.69982 0.0
C455 C 0.78535 0.56117 0.75388 0.0
C456 C 0.83279 0.5894 0.75809 0.0
C457 C 0.86086 0.61216 0.73285 0.0
C458 C 0.84091 0.60647 0.70372 0.0
C459 C 0.84491 0.50707 0.64386 0.0
C460 C 0.83271 0.57452 0.61543 0.0
C461 C 0.8152 0.52087 0.65625 0.0
N462 N 0.80958 0.55437 0.64211 0.0
C463 C 0.86271 0.56161 0.60238 0.0
C464 C 0.86882 0.52767 0.61676 0.0
C465 C 0.73532 0.59627 0.60312 0.0
C466 C 0.57887 0.53911 0.66824 0.0
C467 C 0.63522 0.60353 0.62484 0.0
C468 C 0.58836 0.5746 0.61841 0.0
C469 C 0.56003 0.5423 0.64035 0.0
N470 N 0.65344 0.60078 0.65248 0.0
C471 C 0.62589 0.56866 0.67388 0.0
Co472 Co 0.09098 0.72993 0.9988 0.0
Co473 Co 0.20775 0.80476 0.01006 0.0
O474 O 0.14953 0.74955 0.02004 0.0
C475 C 0.07717 0.74446 0.06341 0.0
O476 O 0.11522 0.78452 0.06009 0.0
C477 C 0.22784 0.72807 0.00648 0.0
O478 O 0.18804 0.70316 0.99247 0.0
O479 O 0.19901 0.78825 0.9658 0.0
O480 O 0.12251 0.74394 0.95735 0.0
H481 H 0.31154 0.9479 0.9488 0.0
H482 H 0.09763 0.66765 0.0449 0.0
O483 O 0.06001 0.71708 0.04037 0.0
H484 H 0.05508 0.58005 0.94715 0.0
H485 H 0.92008 0.6254 0.98374 0.0
H486 H 0.06041 0.76369 0.94553 0.0
H487 H 0.06518 0.65865 0.94952 0.0
H488 H 0.99528 0.65215 0.00909 0.0
O489 O 0.24071 0.76929 0.01526 0.0
H490 H 0.2378 0.87821 0.96249 0.0
H491 H 0.30328 0.8484 0.03559 0.0
H492 H 0.98606 0.73791 0.91927 0.0
H493 H 0.08755 0.5891 0.0436 0.0
H494 H 0.91522 0.6683 0.9384 0.0
H495 H 0.06638 0.54486 0.99446 0.0
O496 O 0.09957 0.79361 0.9998 0.0
H497 H 0.21289 0.77373 0.12301 0.0
H498 H 0.23131 0.89041 0.04578 0.0
H499 H 0.24123 0.91122 0.10095 0.0
H500 H 0.23231 0.85271 0.14 0.0
H501 H 0.20203 0.75404 0.06763 0.0
H502 H 0.37772 0.91787 0.02277 0.0
H503 H 0.3821 0.96831 0.97919 0.0
O504 O 0.17629 0.84128 0.0044 0.0
C505 C 0.16443 0.7662 0.94794 0.0
C506 C 0.31006 0.92628 0.9679 0.0
C507 C 0.34718 0.90944 0.00942 0.0
N508 N 0.26616 0.85952 0.99999 0.0
C509 C 0.26837 0.88684 0.9758 0.0
C510 C 0.30495 0.87013 0.01657 0.0
C511 C 0.34963 0.9377 0.98495 0.0
C512 C 0.08791 0.64844 0.02348 0.0
N513 N 0.08178 0.66763 0.99735 0.0
C514 C 0.08246 0.60404 0.02286 0.0
C515 C 0.0706 0.57924 0.99526 0.0
C516 C 0.06434 0.59901 0.96871 0.0
C517 C 0.07019 0.64355 0.97018 0.0
C518 C 0.95072 0.65572 0.97515 0.0
C519 C 0.02978 0.73317 0.95383 0.0
C520 C 0.99334 0.67107 0.98945 0.0
N521 N 0.03219 0.70917 0.97861 0.0
C522 C 0.98776 0.71883 0.93894 0.0
C523 C 0.94802 0.6798 0.9497 0.0
C524 C 0.13535 0.83374 1.00108 0.0
C525 C 0.21714 0.7996 0.1062 0.0
C526 C 0.22699 0.86466 0.06264 0.0
C527 C 0.23286 0.8767 0.09384 0.0
C528 C 0.22793 0.84389 0.11573 0.0
N529 N 0.21639 0.82114 0.05348 0.0
C530 C 0.21119 0.78869 0.07481 0.0
Co531 Co 0.39972 0.20446 0.34356 0.0
Co532 Co 0.34154 0.08662 0.33355 0.0
O533 O 0.38457 0.14246 0.3562 0.0
C534 C 0.49106 0.21307 0.35372 0.0
O535 O 0.47629 0.17389 0.3387 0.0
C536 C 0.30743 0.07007 0.39724 0.0
O537 O 0.30759 0.10938 0.3946 0.0
O538 O 0.29299 0.10446 0.33439 0.0
O539 O 0.33591 0.1817 0.32841 0.0
H540 H 0.22517 0.99469 0.25139 0.0
H541 H 0.42074 0.18949 0.40753 0.0
O542 O 0.46429 0.22929 0.35818 0.0
H543 H 0.31343 0.24939 0.41794 0.0
H544 H 0.47668 0.37803 0.35513 0.0
H545 H 0.37931 0.24387 0.28842 0.0
H546 H 0.33917 0.23985 0.3666 0.0
H547 H 0.45513 0.29872 0.37134 0.0
O548 O 0.31886 0.05403 0.37426 0.0
H549 H 0.28003 0.06583 0.27937 0.0
H550 H 0.31008 0.98637 0.3418 0.0
H551 H 0.39959 0.32248 0.27147 0.0
H552 H 0.39622 0.19894 0.4594 0.0
H553 H 0.44867 0.39027 0.30492 0.0
H554 H 0.34201 0.22887 0.46481 0.0
O555 O 0.41734 0.1939 0.30209 0.0
H556 H 0.46398 0.05957 0.37924 0.0
H557 H 0.38103 0.05478 0.28409 0.0
H558 H 0.44155 0.03336 0.28202 0.0
H559 H 0.48338 0.03551 0.32987 0.0
H560 H 0.40362 0.08124 0.38021 0.0
H561 H 0.25517 0.91427 0.3147 0.0
H562 H 0.21244 0.91822 0.26906 0.0
O563 O 0.36398 0.11949 0.29265 0.0
C564 C 0.29743 0.1439 0.3284 0.0
C565 C 0.24369 0.99254 0.27119 0.0
C566 C 0.26049 0.94739 0.30675 0.0
N567 N 0.29851 0.03024 0.312 0.0
C568 C 0.27491 0.03271 0.28706 0.0
C569 C 0.29144 0.98829 0.32204 0.0
C570 C 0.23654 0.94963 0.28113 0.0
C571 C 0.39763 0.20311 0.40975 0.0
N572 N 0.38162 0.21431 0.38409 0.0
C573 C 0.38367 0.20816 0.43915 0.0
C574 C 0.35318 0.22488 0.44217 0.0
C575 C 0.33711 0.23636 0.41589 0.0
C576 C 0.35175 0.23081 0.38687 0.0
C577 C 0.45523 0.34877 0.34037 0.0
C578 C 0.40045 0.27314 0.3032 0.0
C579 C 0.44303 0.3038 0.34939 0.0
N580 N 0.41583 0.26667 0.33092 0.0
C581 C 0.41192 0.3176 0.29344 0.0
C582 C 0.43948 0.35561 0.3122 0.0
C583 C 0.39529 0.15985 0.28368 0.0
C584 C 0.44591 0.05836 0.35826 0.0
C585 C 0.39927 0.05608 0.30498 0.0
C586 C 0.4334 0.04376 0.30368 0.0
C587 C 0.45683 0.04494 0.33054 0.0
N588 N 0.38868 0.06909 0.33227 0.0
C589 C 0.41154 0.07039 0.35869 0.0
Co590 Co 0.23539 0.42807 0.6648 0.0
Co591 Co 0.26728 0.34573 0.66663 0.0
O592 O 0.27581 0.40586 0.67935 0.0
C593 C 0.32557 0.51543 0.65274 0.0
O594 O 0.33678 0.49496 0.63134 0.0
C595 C 0.29669 0.36029 0.73352 0.0
O596 O 0.30082 0.4015 0.73327 0.0
O597 O 0.20234 0.31445 0.68094 0.0
O598 O 0.18129 0.36348 0.66201 0.0
H599 H 0.1824 0.18918 0.61559 0.0
H600 H 0.28821 0.47182 0.72221 0.0
O601 O 0.2879 0.49311 0.66762 0.0
H602 H 0.12427 0.3992 0.75163 0.0
H603 H 0.17591 0.54 0.66088 0.0
H604 H 0.16432 0.39874 0.61565 0.0
H605 H 0.14621 0.39475 0.69807 0.0
H606 H 0.2236 0.50864 0.68093 0.0
O607 O 0.28557 0.33535 0.70914 0.0
H608 H 0.19539 0.26616 0.63082 0.0
H609 H 0.31919 0.29589 0.67689 0.0
H610 H 0.11595 0.42881 0.59496 0.0
H611 H 0.26776 0.4776 0.77597 0.0
H612 H 0.12158 0.5 0.61761 0.0
H613 H 0.18525 0.44092 0.79104 0.0
O614 O 0.25191 0.42275 0.62185 0.0
H615 H 0.43865 0.45889 0.67277 0.0
H616 H 0.31263 0.33942 0.6095 0.0
H617 H 0.39229 0.37812 0.5897 0.0
H618 H 0.45604 0.4381 0.62149 0.0
H619 H 0.35865 0.41977 0.6915 0.0
H620 H 0.30735 0.21904 0.66234 0.0
H621 H 0.23862 0.16518 0.63136 0.0
O622 O 0.2466 0.35289 0.62419 0.0
C623 C 0.17156 0.32375 0.67236 0.0
C624 C 0.21256 0.21241 0.62899 0.0
C625 C 0.28265 0.22914 0.65527 0.0
N626 N 0.25821 0.28564 0.6545 0.0
C627 C 0.22018 0.25611 0.63761 0.0
C628 C 0.28912 0.27255 0.6635 0.0
C629 C 0.24409 0.19894 0.63788 0.0
C630 C 0.25223 0.45575 0.72854 0.0
N631 N 0.21852 0.43231 0.70705 0.0
C632 C 0.24086 0.45915 0.75904 0.0
C633 C 0.19457 0.43855 0.76749 0.0
C634 C 0.16035 0.41506 0.7454 0.0
C635 C 0.17302 0.41238 0.71512 0.0
C636 C 0.17307 0.5089 0.65087 0.0
C637 C 0.16683 0.42954 0.62575 0.0
C638 C 0.20003 0.49098 0.6621 0.0
N639 N 0.19656 0.45165 0.64961 0.0
C640 C 0.13938 0.44648 0.61389 0.0
C641 C 0.14259 0.48644 0.62658 0.0
C642 C 0.24688 0.38605 0.60914 0.0
C643 C 0.41121 0.43246 0.65883 0.0
C644 C 0.34013 0.36539 0.62358 0.0
C645 C 0.38521 0.38723 0.6122 0.0
C646 C 0.42095 0.4209 0.63003 0.0
N647 N 0.33082 0.37638 0.65207 0.0
C648 C 0.36569 0.40984 0.66947 0.0
Co649 Co 0.92088 0.28328 0.99506 0.0
Co650 Co 0.80719 0.24708 0.01244 0.0
O651 O 0.87299 0.29019 0.01585 0.0
C652 C 0.93712 0.28297 0.06119 0.0
O653 O 0.89294 0.25232 0.06244 0.0
C654 C 0.81457 0.33667 0.99357 0.0
O655 O 0.84497 0.3426 0.97232 0.0
O656 O 0.81173 0.24673 0.96677 0.0
O657 O 0.88486 0.26604 0.95537 0.0
H658 H 0.66514 0.10694 0.97148 0.0
H659 H 0.94589 0.3699 0.02957 0.0
O660 O 0.95627 0.29938 0.03517 0.0
H661 H 0.99342 0.4188 0.92207 0.0
H662 H 0.08586 0.32978 0.9726 0.0
H663 H 0.92268 0.21742 0.9497 0.0
H664 H 0.95813 0.33641 0.93683 0.0
H665 H 0.02348 0.33685 0.99758 0.0
O666 O 0.79652 0.30064 0.01055 0.0
H667 H 0.74886 0.16011 0.97756 0.0
H668 H 0.72364 0.24443 0.03886 0.0
H669 H 0.98389 0.20924 0.92403 0.0
H670 H 0.98147 0.45276 0.01587 0.0
H671 H 0.06618 0.26568 0.93545 0.0
H672 H 0.00522 0.47758 0.96171 0.0
O673 O 0.89111 0.21614 0.00556 0.0
H674 H 0.83484 0.32163 0.11705 0.0
H675 H 0.763 0.17327 0.06033 0.0
H676 H 0.75694 0.17267 0.11703 0.0
H677 H 0.7928 0.24729 0.14576 0.0
H678 H 0.84123 0.32057 0.06043 0.0
H679 H 0.63966 0.19236 0.03324 0.0
H680 H 0.60989 0.12301 0.99939 0.0
O681 O 0.81654 0.19268 0.0145 0.0
C682 C 0.84311 0.25257 0.94757 0.0
C683 C 0.67768 0.13695 0.9864 0.0
C684 C 0.66338 0.18489 0.02105 0.0
N685 N 0.74116 0.20509 0.00877 0.0
C686 C 0.72506 0.16709 0.99002 0.0
C687 C 0.71099 0.2143 0.0241 0.0
C688 C 0.6467 0.146 0.00204 0.0
C689 C 0.9566 0.38053 0.00604 0.0
N690 N 0.9502 0.34841 0.98406 0.0
C691 C 0.97656 0.42746 0.99839 0.0
C692 C 0.98988 0.44138 0.96801 0.0
C693 C 0.98321 0.4084 0.94573 0.0
C694 C 0.96313 0.36179 0.95422 0.0
C695 C 0.05014 0.30501 0.9674 0.0
C696 C 0.95841 0.24229 0.95464 0.0
C697 C 0.0147 0.30879 0.98152 0.0
N698 N 0.96955 0.27775 0.97495 0.0
C699 C 0.99292 0.2374 0.9401 0.0
C700 C 0.03907 0.26905 0.94654 0.0
C701 C 0.84981 0.18475 0.01162 0.0
C702 C 0.81896 0.2889 0.10478 0.0
C703 C 0.77921 0.20583 0.07269 0.0
C704 C 0.77542 0.2053 0.10479 0.0
C705 C 0.79545 0.24717 0.12088 0.0
N706 N 0.80243 0.24689 0.05706 0.0
C707 C 0.82235 0.28808 0.07271 0.0
C708 C 0.22522 0.59696 0.31539 0.0
C709 C 0.21401 0.57412 0.34387 0.0
C710 C 0.26612 0.63983 0.31196 0.0
C711 C 0.29571 0.65986 0.3377 0.0
C712 C 0.28044 0.64025 0.36734 0.0
C713 C 0.23999 0.59705 0.36999 0.0
C714 C 0.28074 0.65985 0.28003 0.0
C715 C 0.31012 0.66117 0.39559 0.0
C716 C 0.42206 0.69943 0.32805 0.0
C717 C 0.44289 0.74769 0.33062 0.0
C718 C 0.37414 0.67102 0.32881 0.0
C719 C 0.34603 0.69126 0.33272 0.0
C720 C 0.36669 0.74021 0.33415 0.0
C721 C 0.41515 0.76804 0.33287 0.0
C722 C 0.35382 0.61904 0.32679 0.0
C723 C 0.33806 0.76311 0.33854 0.0
H724 H 0.2052 0.5789 0.29514 0.0
H725 H 0.23116 0.57917 0.392 0.0
H726 H 0.29989 0.69835 0.28065 0.0
H727 H 0.30407 0.64847 0.27026 0.0
H728 H 0.25056 0.64775 0.2644 0.0
H729 H 0.28963 0.64817 0.41714 0.0
H730 H 0.33752 0.65172 0.39602 0.0
H731 H 0.3272 0.69958 0.39515 0.0
H732 H 0.44343 0.68365 0.32581 0.0
H733 H 0.43129 0.80544 0.33488 0.0
H734 H 0.32667 0.60409 0.30876 0.0
H735 H 0.3375 0.603 0.34913 0.0
H736 H 0.38024 0.60924 0.32145 0.0
H737 H 0.30562 0.74525 0.32498 0.0
H738 H 0.35741 0.80031 0.33184 0.0
H739 H 0.32847 0.761 0.36322 0.0
C740 C 0.70076 0.27137 0.63674 0.0
C741 C 0.67892 0.23194 0.65559 0.0
C742 C 0.68667 0.30436 0.63665 0.0
C743 C 0.64913 0.29732 0.65546 0.0
C744 C 0.62349 0.25501 0.67168 0.0
C745 C 0.63896 0.2228 0.67178 0.0
C746 C 0.71506 0.34889 0.61882 0.0
C747 C 0.58212 0.2453 0.69094 0.0
C748 C 0.67874 0.41381 0.68666 0.0
C749 C 0.66036 0.42941 0.6637 0.0
C750 C 0.67094 0.3685 0.68625 0.0
C751 C 0.64359 0.3379 0.66244 0.0
C752 C 0.61981 0.3515 0.64178 0.0
C753 C 0.6287 0.39749 0.64251 0.0
C754 C 0.69665 0.35546 0.70905 0.0
C755 C 0.58868 0.31914 0.61699 0.0
H756 H 0.73099 0.27816 0.62352 0.0
H757 H 0.62132 0.19195 0.68598 0.0
H758 H 0.6924 0.35698 0.60472 0.0
H759 H 0.73414 0.3781 0.63519 0.0
H760 H 0.74052 0.34713 0.60331 0.0
H761 H 0.55841 0.20738 0.69381 0.0
H762 H 0.59381 0.26065 0.7142 0.0
H763 H 0.56276 0.26086 0.68053 0.0
H764 H 0.70235 0.43818 0.70358 0.0
H765 H 0.61385 0.40921 0.62495 0.0
H766 H 0.72484 0.35352 0.69697 0.0
H767 H 0.67331 0.32087 0.71919 0.0
H768 H 0.7121 0.38112 0.72809 0.0
H769 H 0.60983 0.32071 0.59685 0.0
H770 H 0.56336 0.32918 0.60909 0.0
H771 H 0.56976 0.28271 0.62527 0.0
C772 C 0.42387 0.66402 0.03541 0.0
C773 C 0.44932 0.67852 0.00799 0.0
C774 C 0.379 0.65732 0.03658 0.0
C775 C 0.36004 0.66576 0.00983 0.0
C776 C 0.38307 0.67338 0.98123 0.0
C777 C 0.42754 0.6796 0.98068 0.0
C778 C 0.35451 0.64713 0.06721 0.0
C779 C 0.36389 0.68181 0.952 0.0
C780 C 0.24543 0.66314 0.00524 0.0
C781 C 0.2599 0.71013 0.01021 0.0
C782 C 0.27701 0.64711 0.0069 0.0
C783 C 0.32412 0.67912 0.01289 0.0
C784 C 0.33846 0.72628 0.0189 0.0
C785 C 0.30612 0.74101 0.01778 0.0
C786 C 0.26013 0.59643 1.001 0.0
C787 C 0.3885 0.76191 0.02505 0.0
H788 H 0.4405 0.66268 0.05653 0.0
H789 H 0.44704 0.68993 0.95931 0.0
H790 H 0.3605 0.6801 0.0777 0.0
H791 H 0.31671 0.62416 0.06424 0.0
H792 H 0.36751 0.63052 0.08345 0.0
H793 H 0.38188 0.67943 0.93116 0.0
H794 H 0.3265 0.65654 0.94977 0.0
H795 H 0.36825 0.71711 0.95281 0.0
H796 H 0.2096 0.63899 0.9997 0.0
H797 H 0.31761 0.77735 0.02172 0.0
H798 H 0.27921 0.58388 0.0152 0.0
H799 H 0.26571 0.59157 0.97639 0.0
H800 H 0.22263 0.57463 0.0059 0.0
H801 H 0.40166 0.75102 0.04492 0.0
H802 H 0.39357 0.79688 0.03008 0.0
H803 H 0.40984 0.76477 0.00469 0.0
C804 C 0.55678 0.2886 0.37088 0.0
C805 C 0.54056 0.24278 0.36129 0.0
C806 C 0.60399 0.3207 0.37219 0.0
C807 C 0.63604 0.30631 0.36466 0.0
C808 C 0.62006 0.25888 0.35846 0.0
C809 C 0.57229 0.22765 0.35634 0.0
C810 C 0.61915 0.37099 0.37875 0.0
C811 C 0.65293 0.24142 0.35203 0.0
C812 C 0.73098 0.4064 0.32291 0.0
C813 C 0.75804 0.43293 0.34782 0.0
C814 C 0.69389 0.36156 0.32742 0.0
C815 C 0.68419 0.34271 0.35755 0.0
C816 C 0.71594 0.36637 0.38171 0.0
C817 C 0.75256 0.4118 0.37666 0.0
C818 C 0.66165 0.33725 0.30072 0.0
C819 C 0.70846 0.34585 0.41361 0.0
H820 H 0.5326 0.30048 0.37539 0.0
H821 H 0.56002 0.19197 0.34963 0.0
H822 H 0.64493 0.38455 0.39763 0.0
H823 H 0.63576 0.39231 0.35793 0.0
H824 H 0.58986 0.37591 0.38539 0.0
H825 H 0.63852 0.2053 0.36056 0.0
H826 H 0.65784 0.2409 0.32676 0.0
H827 H 0.68717 0.26369 0.36287 0.0
H828 H 0.73622 0.42224 0.30031 0.0
H829 H 0.77412 0.43185 0.39585 0.0
H830 H 0.62885 0.33727 0.30431 0.0
H831 H 0.65324 0.30062 0.29929 0.0
H832 H 0.67663 0.3544 0.27831 0.0
H833 H 0.68459 0.35364 0.42654 0.0
H834 H 0.74143 0.36084 0.42664 0.0
H835 H 0.69275 0.30755 0.41254 0.0
C836 C 0.35679 0.76696 0.66113 0.0
C837 C 0.31103 0.75065 0.65185 0.0
C838 C 0.37617 0.73803 0.65966 0.0
C839 C 0.3486 0.69156 0.64949 0.0
C840 C 0.30342 0.67607 0.6383 0.0
C841 C 0.28558 0.70598 0.63921 0.0
C842 C 0.4251 0.75673 0.67058 0.0
C843 C 0.27237 0.6267 0.62739 0.0
C844 C 0.37054 0.59489 0.62984 0.0
C845 C 0.34999 0.56647 0.65559 0.0
C846 C 0.37761 0.64022 0.62914 0.0
C847 C 0.36287 0.65641 0.65445 0.0
C848 C 0.34924 0.63048 0.68215 0.0
C849 C 0.3433 0.58583 0.68242 0.0
C850 C 0.3954 0.66839 0.6 0.0
C851 C 0.33417 0.6467 0.71002 0.0
H852 H 0.37704 0.80173 0.67046 0.0
H853 H 0.25048 0.69321 0.63146 0.0
H854 H 0.42517 0.75249 0.69596 0.0
H855 H 0.44141 0.73832 0.65977 0.0
H856 H 0.44647 0.79441 0.66549 0.0
H857 H 0.23817 0.62038 0.61939 0.0
H858 H 0.28892 0.61857 0.60813 0.0
H859 H 0.26664 0.60211 0.64641 0.0
H860 H 0.37673 0.58043 0.60921 0.0
H861 H 0.32866 0.56428 0.70272 0.0
H862 H 0.41627 0.70601 0.60534 0.0
H863 H 0.3658 0.6629 0.58547 0.0
H864 H 0.41671 0.65779 0.58642 0.0
H865 H 0.35923 0.6836 0.7151 0.0
H866 H 0.33055 0.62568 0.73083 0.0
H867 H 0.30027 0.64381 0.70522 0.0
C868 C 0.7739 0.36907 0.02244 0.0
C869 C 0.79285 0.36557 0.99446 0.0
C870 C 0.73622 0.37626 0.02274 0.0
C871 C 0.7175 0.37991 0.99433 0.0
C872 C 0.74262 0.38611 0.96675 0.0
C873 C 0.78017 0.37838 0.96703 0.0
C874 C 0.71158 0.37101 0.0529 0.0
C875 C 0.72538 0.39322 0.9363 0.0
C876 C 0.59074 0.29143 0.98999 0.0
C877 C 0.56988 0.31793 0.99627 0.0
C878 C 0.63857 0.31176 0.98831 0.0
C879 C 0.66678 0.36034 0.99261 0.0
C880 C 0.6461 0.38782 0.99788 0.0
C881 C 0.59764 0.36615 0.99983 0.0
C882 C 0.65871 0.28056 0.98301 0.0
C883 C 0.67485 0.43985 1.00114 0.0
H884 H 0.78473 0.36042 0.0438 0.0
H885 H 0.79549 0.37668 0.9454 0.0
H886 H 0.69676 0.39417 0.05384 0.0
H887 H 0.68276 0.33467 0.05512 0.0
H888 H 0.73509 0.37874 0.07291 0.0
H889 H 0.75379 0.40962 0.91918 0.0
H890 H 0.69874 0.35908 0.92702 0.0
H891 H 0.70936 0.41515 0.93916 0.0
H892 H 0.56967 0.25416 0.98721 0.0
H893 H 0.58157 0.38687 0.00414 0.0
H894 H 0.68147 0.28367 0.00254 0.0
H895 H 0.67992 0.29111 0.96173 0.0
H896 H 0.63171 0.24343 0.98063 0.0
H897 H 0.70585 0.45012 0.01557 0.0
H898 H 0.65475 0.45485 0.01128 0.0
H899 H 0.68705 0.45537 0.97798 0.0
C900 C 0.20552 0.30214 0.34411 0.0
C901 C 0.16291 0.29434 0.33296 0.0
C902 C 0.21786 0.2679 0.34196 0.0
C903 C 0.18686 0.22462 0.32822 0.0
C904 C 0.14335 0.21595 0.31753 0.0
C905 C 0.13183 0.25096 0.32002 0.0
C906 C 0.26465 0.27854 0.35381 0.0
C907 C 0.10953 0.1702 0.30282 0.0
C908 C 0.25696 0.17431 0.29771 0.0
C909 C 0.25683 0.14854 0.32321 0.0
C910 C 0.22963 0.19508 0.2974 0.0
C911 C 0.20218 0.19033 0.32347 0.0
C912 C 0.19798 0.15987 0.34768 0.0
C913 C 0.22553 0.13911 0.34724 0.0
C914 C 0.2349 0.22689 0.27097 0.0
C915 C 0.16892 0.15372 0.37579 0.0
H916 H 0.22965 0.33528 0.35441 0.0
H917 H 0.09869 0.24448 0.3115 0.0
H918 H 0.26071 0.25179 0.3707 0.0
H919 H 0.28591 0.27775 0.33445 0.0
H920 H 0.28375 0.31311 0.3651 0.0
H921 H 0.07546 0.16723 0.2985 0.0
H922 H 0.12358 0.1665 0.28051 0.0
H923 H 0.10444 0.14093 0.31771 0.0
H924 H 0.28157 0.18165 0.27925 0.0
H925 H 0.22607 0.11964 0.36712 0.0
H926 H 0.25802 0.26346 0.27814 0.0
H927 H 0.20115 0.22311 0.26455 0.0
H928 H 0.25014 0.21999 0.2503 0.0
H929 H 0.188 0.18403 0.39131 0.0
H930 H 0.1611 0.12188 0.38882 0.0
H931 H 0.13603 0.15193 0.36934 0.0
C932 C 0.90219 0.13643 0.65873 0.0
C933 C 0.88164 0.15079 0.68087 0.0
C934 C 0.95027 0.15499 0.65868 0.0
C935 C 0.97761 0.1883 0.68132 0.0
C936 C 0.95601 0.19857 0.70565 0.0
C937 C 0.9082 0.17987 0.70498 0.0
C938 C 0.97201 0.14282 0.63256 0.0
C939 C 0.98367 0.23354 0.7304 0.0
C940 C 0.10794 0.24463 0.68829 0.0
C941 C 0.12237 0.28693 0.67309 0.0
C942 C 0.06086 0.2108 0.69002 0.0
C943 C 0.02778 0.21964 0.6762 0.0
C944 C 0.04241 0.26141 0.6597 0.0
C945 C 0.08939 0.29445 0.65841 0.0
C946 C 0.04647 0.16656 0.70764 0.0
C947 C 0.00829 0.27218 0.64439 0.0
H948 H 0.88142 0.11411 0.64 0.0
H949 H 0.89189 0.19065 0.72213 0.0
H950 H 0.98499 0.17078 0.61498 0.0
H951 H 0.00182 0.13995 0.64081 0.0
H952 H 0.94676 0.10971 0.62126 0.0
H953 H 0.96173 0.23173 0.75018 0.0
H954 H 0.0117 0.22806 0.73907 0.0
H955 H -7e-05 0.26905 0.72053 0.0
H956 H 0.13324 0.23835 0.69946 0.0
H957 H 0.10014 0.32662 0.64614 0.0
H958 H 0.02015 0.13605 0.69456 0.0
H959 H 0.03058 0.16761 0.72985 0.0
H960 H 0.07624 0.16161 0.71266 0.0
H961 H 0.98504 0.2434 0.62882 0.0
H962 H 0.02559 0.3048 0.63075 0.0
H963 H 0.98643 0.27571 0.66218 0.0
C964 C 0.79699 0.10244 0.02668 0.0
C965 C 0.8388 0.13592 0.01349 0.0
C966 C 0.78209 0.0551 0.02428 0.0
C967 C 0.80946 0.0408 0.00801 0.0
C968 C 0.85315 0.07442 0.99644 0.0
C969 C 0.86746 0.12175 0.99945 0.0
C970 C 0.73547 0.02035 0.03736 0.0
C971 C 0.88328 0.0605 0.979 0.0
C972 C 0.76275 0.91178 0.01624 0.0
C973 C 0.7303 0.89508 0.99231 0.0
C974 C 0.79211 0.95974 0.02038 0.0
C975 C 0.78898 0.99105 0.99981 0.0
C976 C 0.75956 0.97383 0.97377 0.0
C977 C 0.7302 0.92596 0.97053 0.0
C978 C 0.82304 0.97673 0.04836 0.0
C979 C 0.75583 0.00598 0.9509 0.0
H980 H 0.77491 0.11306 0.03791 0.0
H981 H 0.8999 0.1474 0.98926 0.0
H982 H 0.7109 0.00214 0.01822 0.0
H983 H 0.73806 0.99372 0.05116 0.0
H984 H 0.72091 0.03706 0.05219 0.0
H985 H 0.91921 0.08989 0.97662 0.0
H986 H 0.88403 0.03122 0.9906 0.0
H987 H 0.86884 0.04862 0.95555 0.0
H988 H 0.76255 0.88772 0.03315 0.0
H989 H 0.70536 0.91275 0.95183 0.0
H990 H 0.80671 0.98749 0.06633 0.0
H991 H 0.85695 0.00742 0.04267 0.0
H992 H 0.82874 0.94923 0.0582 0.0
H993 H 0.73736 0.0222 0.96174 0.0
H994 H 0.73668 0.98733 0.92978 0.0
H995 H 0.79059 0.0343 0.9441 0.0
C996 C 0.76214 0.85878 0.31951 0.0
C997 C 0.72974 0.83656 0.34306 0.0
C998 C 0.79382 0.84438 0.31196 0.0
C999 C 0.79275 0.80722 0.3285 0.0
C1000 C 0.76361 0.7886 0.35456 0.0
C1001 C 0.73237 0.80348 0.36145 0.0
C1002 C 0.82492 0.8657 0.28441 0.0
C1003 C 0.76175 0.74938 0.37322 0.0
C1004 C 0.8014 0.70948 0.2925 0.0
C1005 C 0.84109 0.71447 0.30694 0.0
C1006 C 0.78773 0.74245 0.29674 0.0
C1007 C 0.81459 0.7815 0.31579 0.0
C1008 C 0.85761 0.78968 0.32719 0.0
C1009 C 0.87047 0.75597 0.3226 0.0
C1010 C 0.74181 0.7326 0.28372 0.0
C1011 C 0.88774 0.83142 0.34695 0.0
H1012 H 0.76008 0.8844 0.30524 0.0
H1013 H 0.70768 0.78685 0.37996 0.0
H1014 H 0.8588 0.86801 0.288 0.0
H1015 H 0.80855 0.84356 0.26387 0.0
H1016 H 0.83066 0.90091 0.27941 0.0
H1017 H 0.74162 0.74294 0.39484 0.0
H1018 H 0.74528 0.71703 0.35929 0.0
H1019 H 0.79704 0.75699 0.37926 0.0
H1020 H 0.779 0.67802 0.27979 0.0
H1021 H 0.9016 0.76053 0.33349 0.0
H1022 H 0.74479 0.76426 0.2731 0.0
H1023 H 0.71612 0.7217 0.30265 0.0
H1024 H 0.72841 0.70455 0.26613 0.0
H1025 H 0.88707 0.86259 0.3387 0.0
H1026 H 0.92404 0.83901 0.34727 0.0
H1027 H 0.8746 0.8245 0.37098 0.0
C1028 C 0.09126 0.85674 0.65802 0.0
C1029 C 0.10464 0.82894 0.67412 0.0
C1030 C 0.04442 0.84391 0.65612 0.0
C1031 C 0.01082 0.80255 0.67068 0.0
C1032 C 0.02491 0.77709 0.6894 0.0
C1033 C 0.07163 0.79063 0.69084 0.0
C1034 C 0.03079 0.87241 0.63646 0.0
C1035 C 0.99034 0.73296 0.70561 0.0
C1036 C 0.88221 0.75307 0.67864 0.0
C1037 C 0.86627 0.71749 0.65663 0.0
C1038 C 0.9297 0.78484 0.68168 0.0
C1039 C 0.96132 0.78058 0.66222 0.0
C1040 C 0.94472 0.74779 0.63789 0.0
C1041 C 0.89738 0.7166 0.63545 0.0
C1042 C 0.94608 0.81998 0.70746 0.0
C1043 C 0.97713 0.74231 0.61633 0.0
H1044 H 0.11684 0.88658 0.64521 0.0
H1045 H 0.0821 0.7697 0.70389 0.0
H1046 H 0.02034 0.85631 0.61328 0.0
H1047 H 0.00099 0.87359 0.64659 0.0
H1048 H 0.05995 0.90846 0.63352 0.0
H1049 H 0.0072 0.72024 0.72184 0.0
H1050 H 0.96503 0.73848 0.71864 0.0
H1051 H 0.97086 0.70538 0.68826 0.0
H1052 H 0.85811 0.75403 0.69489 0.0
H1053 H 0.88492 0.68971 0.61795 0.0
H1054 H 0.97649 0.85326 0.70023 0.0
H1055 H 0.95666 0.80658 0.72739 0.0
H1056 H 0.91838 0.82668 0.71527 0.0
H1057 H 0.00401 0.77655 0.60744 0.0
H1058 H 0.95866 0.71945 0.59641 0.0
H1059 H 0.99492 0.7269 0.62909 0.0
C1060 C 0.28807 0.0709 1.00042 0.0
C1061 C 0.28226 0.10966 0.9987 0.0
C1062 C 0.25033 0.02594 1.00058 0.0
C1063 C 0.20509 0.01908 0.99886 0.0
C1064 C 0.19858 0.05786 0.99743 0.0
C1065 C 0.23741 0.10291 0.99729 0.0
C1066 C 0.25923 0.98576 0.00257 0.0
C1067 C 0.15099 0.052 0.99548 0.0
C1068 C 0.13748 0.8975 0.97144 0.0
C1069 C 0.13056 0.87486 0.99971 0.0
C1070 C 0.15472 0.9455 0.9705 0.0
C1071 C 0.16579 0.97069 0.99854 0.0
C1072 C 0.15123 0.94644 0.02687 0.0
C1073 C 0.13415 0.89848 0.02715 0.0
C1074 C 0.16845 0.9699 0.93977 0.0
C1075 C 0.16104 0.97182 0.05722 0.0
H1076 H 0.32241 0.07547 0.00171 0.0
H1077 H 0.23259 0.13269 0.99592 0.0
H1078 H 0.24245 0.96477 0.02343 0.0
H1079 H 0.24427 0.96284 0.98219 0.0
H1080 H 0.29661 0.99735 0.00367 0.0
H1081 H 0.15116 0.08426 0.0022 0.0
H1082 H 0.13838 0.04348 0.97137 0.0
H1083 H 0.12614 0.02312 0.01035 0.0
H1084 H 0.13472 0.87889 0.95027 0.0
H1085 H 0.12882 0.88063 0.049 0.0
H1086 H 0.2056 0.98253 0.93562 0.0
H1087 H 0.16344 0.00036 0.93951 0.0
H1088 H 0.14833 0.94616 0.9206 0.0
H1089 H 0.19716 0.98363 0.06421 0.0
H1090 H 0.13778 0.94889 0.07568 0.0
H1091 H 0.15714 0.00287 0.05524 0.0
C1092 C 0.00933 0.31212 0.09265 0.0
C1093 C 0.9629 0.29993 0.09037 0.0
C1094 C 0.03212 0.32432 0.12134 0.0
C1095 C 0.00818 0.32572 0.14793 0.0
C1096 C 0.96192 0.3155 0.14527 0.0
C1097 C 0.93971 0.302 0.11666 0.0
C1098 C 0.08109 0.33386 0.12344 0.0
C1099 C 0.93547 0.31784 0.17277 0.0
C1100 C 0.04022 0.30679 0.22838 0.0
C1101 C 0.06569 0.35229 0.23934 0.0
C1102 C 0.02285 0.29781 0.19818 0.0
C1103 C 0.0302 0.33529 0.17892 0.0
C1104 C 0.056 0.38144 0.19009 0.0
C1105 C 0.07409 0.38943 0.22015 0.0
C1106 C 0.99631 0.24821 0.18697 0.0
C1107 C 0.06341 0.42216 0.17061 0.0
H1108 H 0.02718 0.31029 0.07231 0.0
H1109 H 0.90394 0.29297 0.11487 0.0
H1110 H 0.10361 0.36819 0.13427 0.0
H1111 H 0.08218 0.30739 0.13838 0.0
H1112 H 0.09548 0.33321 0.10049 0.0
H1113 H 0.90119 0.31284 0.1662 0.0
H1114 H 0.93009 0.29062 0.18969 0.0
H1115 H 0.95551 0.35189 0.18453 0.0
H1116 H 0.03438 0.2783 0.24338 0.0
H1117 H 0.09408 0.4246 0.22889 0.0
H1118 H 0.01095 0.24472 0.16485 0.0
H1119 H 0.95984 0.23818 0.18257 0.0
H1120 H 0.99688 0.2235 0.20392 0.0
H1121 H 0.07994 0.42231 0.14843 0.0
H1122 H 0.08527 0.4559 0.18242 0.0
H1123 H 0.02959 0.41895 0.16505 0.0
C1124 C 0.76777 0.05447 0.55746 0.0
C1125 C 0.73489 0.04163 0.58103 0.0
C1126 C 0.75579 0.03284 0.52846 0.0
C1127 C 0.70957 0.99798 0.52262 0.0
C1128 C 0.67607 0.98504 0.54625 0.0
C1129 C 0.68922 0.00673 0.57529 0.0
C1130 C 0.79275 0.0471 0.50413 0.0
C1131 C 0.6263 0.94852 0.54077 0.0
C1132 C 0.67389 0.97188 0.43821 0.0
C1133 C 0.67603 0.93139 0.4333 0.0
C1134 C 0.68376 0.99342 0.46734 0.0
C1135 C 0.69673 0.97441 0.49199 0.0
C1136 C 0.69894 0.93357 0.48712 0.0
C1137 C 0.68827 0.91242 0.45795 0.0
C1138 C 0.68041 0.03658 0.47174 0.0
C1139 C 0.71326 0.91253 0.51261 0.0
H1140 H 0.80317 0.08136 0.56172 0.0
H1141 H 0.66354 0.99697 0.5933 0.0
H1142 H 0.79538 0.01657 0.49687 0.0
H1143 H 0.78344 0.06014 0.4834 0.0
H1144 H 0.82714 0.07456 0.51242 0.0
H1145 H 0.60425 0.9433 0.56123 0.0
H1146 H 0.61238 0.95858 0.52088 0.0
H1147 H 0.62384 0.91495 0.53487 0.0
H1148 H 0.6641 0.98653 0.41936 0.0
H1149 H 0.69006 0.88115 0.45441 0.0
H1150 H 0.7147 0.06624 0.47806 0.0
H1151 H 0.6565 0.03145 0.49101 0.0
H1152 H 0.66803 0.0459 0.45065 0.0
H1153 H 0.7486 0.93799 0.52059 0.0
H1154 H 0.71285 0.88042 0.50514 0.0
H1155 H 0.68987 0.90408 0.53269 0.0
C1156 C 0.70961 0.71876 0.90245 0.0
C1157 C 0.68243 0.73941 0.90638 0.0
C1158 C 0.71502 0.70408 0.8731 0.0
C1159 C 0.69123 0.70859 0.84747 0.0
C1160 C 0.66335 0.72894 0.85152 0.0
C1161 C 0.66006 0.74489 0.88077 0.0
C1162 C 0.74617 0.68381 0.86949 0.0
C1163 C 0.63603 0.73287 0.82514 0.0
C1164 C 0.72816 0.70315 0.76525 0.0
C1165 C 0.69936 0.65612 0.75828 0.0
C1166 C 0.72653 0.72065 0.79445 0.0
C1167 C 0.69413 0.69063 0.8166 0.0
C1168 C 0.66389 0.64341 0.8091 0.0
C1169 C 0.66756 0.62653 0.78023 0.0
C1170 C 0.76025 0.77084 0.80191 0.0
C1171 C 0.62766 0.6107 0.83155 0.0
H1172 H 0.72718 0.71478 0.92219 0.0
H1173 H 0.63887 0.76066 0.88374 0.0
H1174 H 0.72562 0.64694 0.86232 0.0
H1175 H 0.77199 0.70254 0.8511 0.0
H1176 H 0.76467 0.6857 0.8912 0.0
H1177 H 0.61515 0.74867 0.83237 0.0
H1178 H 0.65962 0.75424 0.80637 0.0
H1179 H 0.61249 0.69794 0.8154 0.0
H1180 H 0.75323 0.72575 0.74833 0.0
H1181 H 0.64532 0.59012 0.7747 0.0
H1182 H 0.781 0.77296 0.82245 0.0
H1183 H 0.74138 0.78926 0.80772 0.0
H1184 H 0.78408 0.78923 0.78244 0.0
H1185 H 0.64442 0.60696 0.85254 0.0
H1186 H 0.60522 0.57569 0.82149 0.0
H1187 H 0.60561 0.62507 0.83891 0.0
C1188 C 0.01073 0.69828 0.09906 0.0
C1189 C 0.05772 0.7298 0.09461 0.0
C1190 C 0.9927 0.68469 0.12895 0.0
C1191 C 0.0228 0.70174 0.15473 0.0
C1192 C 0.07038 0.73307 0.15021 0.0
C1193 C 0.08704 0.74739 0.12026 0.0
C1194 C 0.94149 0.65226 0.13297 0.0
C1195 C 0.1039 0.75072 0.17692 0.0
C1196 C 0.97219 0.69552 0.23419 0.0
C1197 C 0.9652 0.65281 0.24473 0.0
C1198 C 0.99119 0.71214 0.2049 0.0
C1199 C 0.00473 0.68595 0.18638 0.0
C1200 C 0.0 0.64398 0.19783 0.0
C1201 C 0.97932 0.6274 0.22666 0.0
C1202 C 0.99449 0.75635 0.19313 0.0
C1203 C 0.01559 0.61595 0.17929 0.0
H1204 H 0.98801 0.68491 0.07923 0.0
H1205 H 0.12343 0.77162 0.11687 0.0
H1206 H 0.93512 0.61907 0.14322 0.0
H1207 H 0.92718 0.66768 0.14912 0.0
H1208 H 0.92245 0.64459 0.11077 0.0
H1209 H 0.14003 0.77418 0.16932 0.0
H1210 H 0.09421 0.76976 0.19347 0.0
H1211 H 0.10239 0.72101 0.18952 0.0
H1212 H 0.96015 0.71446 0.24804 0.0
H1213 H 0.97336 0.5941 0.23489 0.0
H1214 H 0.97232 0.7486 0.17242 0.0
H1215 H 0.03038 0.78137 0.18603 0.0
H1216 H 0.98354 0.77316 0.2107 0.0
H1217 H 0.99374 0.60173 0.15843 0.0
H1218 H 0.01353 0.58658 0.19273 0.0
H1219 H 0.0517 0.63842 0.1714 0.0
C1220 C 0.27789 0.06008 0.45126 0.0
C1221 C 0.29652 0.04605 0.42742 0.0
C1222 C 0.26844 0.03867 0.4803 0.0
C1223 C 0.27839 0.00274 0.48581 0.0
C1224 C 0.29747 0.98858 0.46192 0.0
C1225 C 0.30604 0.01021 0.43293 0.0
C1226 C 0.24756 0.05437 0.50505 0.0
C1227 C 0.30901 0.95073 0.46702 0.0
C1228 C 0.29013 0.97495 0.56933 0.0
C1229 C 0.24715 0.93509 0.57455 0.0
C1230 C 0.30098 0.99712 0.54045 0.0
C1231 C 0.26787 0.97931 0.5164 0.0
C1232 C 0.22436 0.93928 0.52164 0.0
C1233 C 0.21465 0.91753 0.55055 0.0
C1234 C 0.34794 0.03946 0.53562 0.0
C1235 C 0.18793 0.91951 0.49672 0.0
H1236 H 0.27045 0.08776 0.44721 0.0
H1237 H 0.32082 0.99946 0.41472 0.0
H1238 H 0.21398 0.02472 0.51256 0.0
H1239 H 0.27045 0.06665 0.52556 0.0
H1240 H 0.24188 0.08278 0.49705 0.0
H1241 H 0.32469 0.94453 0.44631 0.0
H1242 H 0.33341 0.96005 0.48662 0.0
H1243 H 0.27733 0.91785 0.47319 0.0
H1244 H 0.31552 0.98855 0.58769 0.0
H1245 H 0.18132 0.88677 0.55438 0.0
H1246 H 0.34415 0.06965 0.52937 0.0
H1247 H 0.36579 0.03342 0.51617 0.0
H1248 H 0.37007 0.04847 0.55649 0.0
H1249 H 0.17937 0.9461 0.48915 0.0
H1250 H 0.15573 0.8883 0.50457 0.0
H1251 H 0.20129 0.90993 0.47628 0.0
C1252 C 0.30855 0.28647 0.9066 0.0
C1253 C 0.33551 0.26538 0.90914 0.0
C1254 C 0.30075 0.30039 0.8777 0.0
C1255 C 0.32189 0.2946 0.85105 0.0
C1256 C 0.34973 0.27395 0.8537 0.0
C1257 C 0.35548 0.25883 0.88263 0.0
C1258 C 0.26972 0.32101 0.87563 0.0
C1259 C 0.37419 0.26861 0.82609 0.0
C1260 C 0.27624 0.29615 0.77103 0.0
C1261 C 0.30454 0.34271 0.76268 0.0
C1262 C 0.28092 0.28011 0.8 0.0
C1263 C 0.31584 0.31109 0.82049 0.0
C1264 C 0.34542 0.35784 0.81166 0.0
C1265 C 0.33881 0.37329 0.78306 0.0
C1266 C 0.24789 0.23039 0.80897 0.0
C1267 C 0.38413 0.39149 0.83235 0.0
H1268 H 0.29285 0.29122 0.9271 0.0
H1269 H 0.37662 0.24283 0.88462 0.0
H1270 H 0.28968 0.35738 0.8674 0.0
H1271 H 0.24179 0.30138 0.85861 0.0
H1272 H 0.25383 0.32067 0.89819 0.0
H1273 H 0.39549 0.25283 0.83227 0.0
H1274 H 0.34869 0.24657 0.80836 0.0
H1275 H 0.39692 0.30305 0.81546 0.0
H1276 H 0.24935 0.2727 0.75535 0.0
H1277 H 0.36081 0.40929 0.77647 0.0
H1278 H 0.22966 0.22945 0.83057 0.0
H1279 H 0.26716 0.21201 0.81361 0.0
H1280 H 0.22181 0.21117 0.79076 0.0
H1281 H 0.36982 0.39623 0.85421 0.0
H1282 H 0.40542 0.42602 0.82138 0.0
H1283 H 0.40687 0.37736 0.83838 0.0
C1284 C 0.14675 0.3434 0.43666 0.0
C1285 C 0.13384 0.37674 0.43128 0.0
C1286 C 0.16325 0.3397 0.46563 0.0
C1287 C 0.16513 0.36894 0.48997 0.0
C1288 C 0.14859 0.40017 0.48516 0.0
C1289 C 0.13423 0.40456 0.45554 0.0
C1290 C 0.18211 0.30727 0.46939 0.0
C1291 C 0.14836 0.43065 0.51085 0.0
C1292 C 0.18354 0.34229 0.57217 0.0
C1293 C 0.22927 0.37717 0.57743 0.0
C1294 C 0.16216 0.33878 0.54369 0.0
C1295 C 0.18785 0.3698 0.51964 0.0
C1296 C 0.23499 0.40337 0.52441 0.0
C1297 C 0.25485 0.40743 0.5536 0.0
C1298 C 0.11148 0.30378 0.53997 0.0
C1299 C 0.26404 0.43595 0.49899 0.0
H1300 H 0.14747 0.32279 0.4175 0.0
H1301 H 0.12482 0.43076 0.45107 0.0
H1302 H 0.22014 0.32798 0.47227 0.0
H1303 H 0.16783 0.28569 0.49037 0.0
H1304 H 0.17429 0.284 0.44915 0.0
H1305 H 0.12837 0.44783 0.50459 0.0
H1306 H 0.13341 0.41 0.53215 0.0
H1307 H 0.18428 0.45796 0.51623 0.0
H1308 H 0.1636 0.3197 0.59103 0.0
H1309 H 0.29007 0.43466 0.55799 0.0
H1310 H 0.1057 0.28201 0.51925 0.0
H1311 H 0.092 0.32228 0.53653 0.0
H1312 H 0.09706 0.28074 0.56039 0.0
H1313 H 0.30117 0.45614 0.50531 0.0
H1314 H 0.25194 0.4607 0.49385 0.0
H1315 H 0.2604 0.41623 0.47752 0.0
C1316 C 0.78291 0.22234 0.90591 0.0
C1317 C 0.82921 0.24032 0.91474 0.0
C1318 C 0.76826 0.20746 0.87558 0.0
C1319 C 0.80062 0.21075 0.85331 0.0
C1320 C 0.84748 0.22931 0.86187 0.0
C1321 C 0.86121 0.24382 0.89245 0.0
C1322 C 0.71802 0.18793 0.86742 0.0
C1323 C 0.88311 0.23363 0.83873 0.0
C1324 C 0.75934 0.13678 0.78042 0.0
C1325 C 0.76206 0.16904 0.75848 0.0
C1326 C 0.77096 0.14958 0.8115 0.0
C1327 C 0.78567 0.19572 0.82088 0.0
C1328 C 0.78695 0.22794 0.7991 0.0
C1329 C 0.77503 0.21422 0.76829 0.0
C1330 C 0.76879 0.11411 0.83411 0.0
C1331 C 0.80232 0.27742 0.80811 0.0
H1332 H 0.75769 0.21922 0.92283 0.0
H1333 H 0.89699 0.25746 0.89893 0.0
H1334 H 0.71471 0.209 0.84887 0.0
H1335 H 0.70335 0.15206 0.85842 0.0
H1336 H 0.69709 0.18723 0.8875 0.0
H1337 H 0.91809 0.24868 0.84904 0.0
H1338 H 0.87312 0.19899 0.82907 0.0
H1339 H 0.8847 0.25592 0.81921 0.0
H1340 H 0.74948 0.10186 0.77319 0.0
H1341 H 0.77725 0.23957 0.75169 0.0
H1342 H 0.74703 0.1114 0.85417 0.0
H1343 H 0.8039 0.12532 0.84303 0.0
H1344 H 0.75463 0.07918 0.82352 0.0
H1345 H 0.78097 0.27799 0.82747 0.0
H1346 H 0.79992 0.29778 0.78864 0.0
H1347 H 0.83863 0.2949 0.81625 0.0
C1348 C 0.57774 0.77699 0.23736 0.0
C1349 C 0.60487 0.82178 0.24971 0.0
C1350 C 0.57828 0.76845 0.20571 0.0
C1351 C 0.60684 0.80548 0.18575 0.0
C1352 C 0.63383 0.8509 0.19789 0.0
C1353 C 0.63238 0.85855 0.22968 0.0
C1354 C 0.54862 0.71961 0.19367 0.0
C1355 C 0.66485 0.89128 0.17737 0.0
C1356 C 0.64128 0.7756 0.10911 0.0
C1357 C 0.61122 0.7796 0.08841 0.0
C1358 C 0.64037 0.78411 0.1408 0.0
C1359 C 0.60841 0.79657 0.15218 0.0
C1360 C 0.57757 0.8 0.13152 0.0
C1361 C 0.57941 0.79162 0.09996 0.0
C1362 C 0.67391 0.7802 0.1621 0.0
C1363 C 0.54267 0.81273 0.14273 0.0
H1364 H 0.55621 0.74825 0.25251 0.0
H1365 H 0.65361 0.89323 0.2389 0.0
H1366 H 0.52507 0.719 0.17544 0.0
H1367 H 0.57072 0.70738 0.18302 0.0
H1368 H 0.52758 0.69483 0.21212 0.0
H1369 H 0.68342 0.92449 0.19032 0.0
H1370 H 0.69067 0.88461 0.16608 0.0
H1371 H 0.64426 0.89516 0.15879 0.0
H1372 H 0.6661 0.76653 0.10051 0.0
H1373 H 0.55589 0.79473 0.08429 0.0
H1374 H 0.65479 0.75377 0.18012 0.0
H1375 H 0.69571 0.81376 0.17406 0.0
H1376 H 0.69679 0.77047 0.14962 0.0
H1377 H 0.51987 0.78736 0.1603 0.0
H1378 H 0.52086 0.81359 0.12373 0.0
H1379 H 0.56063 0.84733 0.15397 0.0
C1380 C 0.763 0.58839 0.41908 0.0
C1381 C 0.80982 0.60463 0.41276 0.0
C1382 C 0.74776 0.58876 0.44915 0.0
C1383 C 0.77998 0.60541 0.47366 0.0
C1384 C 0.82739 0.62268 0.46745 0.0
C1385 C 0.84177 0.62228 0.43707 0.0
C1386 C 0.69699 0.57032 0.45478 0.0
C1387 C 0.86277 0.6405 0.49304 0.0
C1388 C 0.74977 0.6359 0.55163 0.0
C1389 C 0.73996 0.59651 0.56906 0.0
C1390 C 0.76169 0.63891 0.52025 0.0
C1391 C 0.76376 0.60168 0.50607 0.0
C1392 C 0.7518 0.56105 0.52319 0.0
C1393 C 0.73995 0.55892 0.55436 0.0
C1394 C 0.77384 0.68265 0.50262 0.0
C1395 C 0.75332 0.52044 0.50893 0.0
H1396 H 0.73797 0.57516 0.40049 0.0
H1397 H 0.878 0.6351 0.43248 0.0
H1398 H 0.6827 0.53849 0.46912 0.0
H1399 H 0.69195 0.59615 0.46774 0.0
H1400 H 0.67692 0.5618 0.43297 0.0
H1401 H 0.89851 0.65478 0.48423 0.0
H1402 H 0.86088 0.66802 0.50626 0.0
H1403 H 0.85527 0.61193 0.50938 0.0
H1404 H 0.75001 0.66516 0.56274 0.0
H1405 H 0.73213 0.52815 0.5675 0.0
H1406 H 0.75392 0.67404 0.48079 0.0
H1407 H 0.81097 0.7008 0.49639 0.0
H1408 H 0.76697 0.70682 0.5162 0.0
H1409 H 0.74097 0.49057 0.525 0.0
H1410 H 0.78924 0.53132 0.50203 0.0
H1411 H 0.7318 0.50868 0.48777 0.0
C1412 C 0.21985 0.78711 0.90407 0.0
C1413 C 0.17425 0.7695 0.91434 0.0
C1414 C 0.23119 0.79549 0.87272 0.0
C1415 C 0.19618 0.78623 0.85094 0.0
C1416 C 0.14985 0.76712 0.86093 0.0
C1417 C 0.13938 0.75879 0.89253 0.0
C1418 C 0.2809 0.81539 0.863 0.0
C1419 C 0.11156 0.7568 0.83834 0.0
C1420 C 0.231 0.85242 0.77505 0.0
C1421 C 0.22903 0.81882 0.75457 0.0
C1422 C 0.22065 0.84234 0.80649 0.0
C1423 C 0.20834 0.79771 0.81781 0.0
C1424 C 0.20778 0.76417 0.79752 0.0
C1425 C 0.21809 0.77509 0.7662 0.0
C1426 C 0.22178 0.87912 0.82745 0.0
C1427 C 0.19529 0.71636 0.80875 0.0
H1428 H 0.2471 0.79522 0.92066 0.0
H1429 H 0.10413 0.74533 0.90018 0.0
H1430 H 0.2836 0.79319 0.84501 0.0
H1431 H 0.29391 0.8503 0.85278 0.0
H1432 H 0.30364 0.81856 0.88262 0.0
H1433 H 0.07715 0.74042 0.84962 0.0
H1434 H 0.11804 0.78945 0.8271 0.0
H1435 H 0.1108 0.73337 0.81987 0.0
H1436 H 0.23928 0.88625 0.76641 0.0
H1437 H 0.21645 0.74878 0.75069 0.0
H1438 H 0.24587 0.88597 0.84691 0.0
H1439 H 0.18704 0.86665 0.83748 0.0
H1440 H 0.23266 0.91229 0.81515 0.0
H1441 H 0.21836 0.71912 0.828 0.0
H1442 H 0.19782 0.69471 0.79022 0.0
H1443 H 0.15949 0.69828 0.81782 0.0
C1444 C 0.37471 0.13571 0.22836 0.0
C1445 C 0.40293 0.16941 0.25005 0.0
C1446 C 0.3776 0.14645 0.1968 0.0
C1447 C 0.40957 0.19191 0.18661 0.0
C1448 C 0.43926 0.22558 0.20819 0.0
C1449 C 0.43563 0.21396 0.23958 0.0
C1450 C 0.34544 0.1095 0.17446 0.0
C1451 C 0.47401 0.27435 0.19826 0.0
C1452 C 0.44056 0.20884 0.10144 0.0
C1453 C 0.41193 0.22506 0.09004 0.0
C1454 C 0.44058 0.19851 0.13281 0.0
C1455 C 0.41129 0.2045 0.15346 0.0
C1456 C 0.38316 0.22193 0.14235 0.0
C1457 C 0.38385 0.23207 0.11081 0.0
C1458 C 0.47128 0.18027 0.14376 0.0
C1459 C 0.35153 0.22891 0.16368 0.0
H1460 H 0.34931 0.10123 0.23609 0.0
H1461 H 0.45772 0.24037 0.25602 0.0
H1462 H 0.32241 0.12033 0.16351 0.0
H1463 H 0.36553 0.10512 0.15575 0.0
H1464 H 0.32375 0.07541 0.18587 0.0
H1465 H 0.49598 0.29586 0.2177 0.0
H1466 H 0.49663 0.27351 0.17991 0.0
H1467 H 0.45578 0.29148 0.18842 0.0
H1468 H 0.46248 0.20327 0.08573 0.0
H1469 H 0.36155 0.24449 0.10237 0.0
H1470 H 0.44985 0.14481 0.15329 0.0
H1471 H 0.49412 0.20249 0.1626 0.0
H1472 H 0.4931 0.17893 0.12495 0.0
H1473 H 0.32591 0.19521 0.17403 0.0
H1474 H 0.33269 0.24381 0.1516 0.0
H1475 H 0.37166 0.25239 0.18291 0.0
loop_
_geom_bond_atom_site_label_1
_geom_bond_atom_site_label_2
_geom_bond_distance
_geom_bond_site_symmetry_2
_ccdc_geom_bond_type
Co0 O2 2.143 . S
Co0 O8 2.074 . S
Co0 O11 2.093 . S
Co0 O24 2.097 . S
Co0 N41 2.151 . S
Co0 N49 2.214 . S
Co1 O2 2.160 . S
Co1 O7 2.058 . S
Co1 O17 2.057 . S
Co1 O32 2.037 . S
Co1 N36 2.145 1_455 S
Co1 N57 2.257 . S
O2 Co0 2.143 . S
O2 Co1 2.160 . S
C3 O4 1.278 . S
C3 O11 1.224 . S
O4 C3 1.278 . S
C5 O6 1.245 . S
C5 O17 1.232 . S
O6 C5 1.245 . S
O7 Co1 2.058 . S
O7 C33 1.269 . S
O8 Co0 2.074 . S
O8 C33 1.257 . S
H9 C34 0.930 . S
H10 C40 0.930 . S
O11 Co0 2.093 . S
O11 C3 1.224 . S
H12 C44 0.929 . S
H13 C46 0.930 . S
H14 C47 0.930 . S
H15 C45 0.929 . S
H16 C48 0.928 . S
O17 Co1 2.057 . S
O17 C5 1.232 . S
H18 C37 0.929 1_455 S
H19 C38 0.929 . S
H20 C50 0.931 . S
H21 C42 0.929 . S
H22 C51 0.930 . S
H23 C43 0.931 . S
O24 Co0 2.097 . S
O24 C52 1.214 . S
H25 C53 0.929 . S
H26 C54 0.929 . S
H27 C55 0.930 1_655 S
H28 C56 0.929 1_655 S
H29 C58 0.930 . S
H30 C35 0.930 . S
H31 C39 0.930 . S
O32 Co1 2.037 . S
O32 C52 1.234 . S
C33 O7 1.269 . S
C33 O8 1.257 . S
C34 H9 0.930 . S
C34 C37 1.388 . S
C34 C39 1.418 . S
C35 H30 0.930 . S
C35 C38 1.404 . S
C35 C39 1.353 . S
N36 Co1 2.145 1_655 S
N36 C37 1.397 . S
N36 C38 1.334 . S
C37 H18 0.929 1_655 S
C37 C34 1.388 . S
C37 N36 1.397 . S
C38 H19 0.929 . S
C38 C35 1.404 . S
C38 N36 1.334 . S
C39 H31 0.930 . S
C39 C34 1.418 . S
C39 C35 1.353 . S
C40 H10 0.930 . S
C40 N41 1.330 . S
C40 C42 1.446 . S
N41 Co0 2.151 . S
N41 C40 1.330 . S
N41 C45 1.418 . S
C42 H21 0.929 . S
C42 C40 1.446 . S
C42 C43 1.332 . S
C43 H23 0.931 . S
C43 C42 1.332 . S
C43 C44 1.267 . S
C44 H12 0.929 . S
C44 C43 1.267 . S
C44 C45 1.251 . S
C45 H15 0.929 . S
C45 N41 1.418 . S
C45 C44 1.251 . S
C46 H13 0.930 . S
C46 C48 1.406 . S
C46 C51 1.261 . S
C47 H14 0.930 . S
C47 N49 1.325 . S
C47 C50 1.357 . S
C48 H16 0.928 . S
C48 C46 1.406 . S
C48 N49 1.261 . S
N49 Co0 2.214 . S
N49 C47 1.325 . S
N49 C48 1.261 . S
C50 H20 0.931 . S
C50 C47 1.357 . S
C50 C51 1.312 . S
C51 H22 0.930 . S
C51 C46 1.261 . S
C51 C50 1.312 . S
C52 O24 1.214 . S
C52 O32 1.234 . S
C53 H25 0.929 . S
C53 C56 1.391 . S
C53 C58 1.391 . S
C54 H26 0.929 . S
C54 C55 1.390 . S
C54 N57 1.391 . S
C55 H27 0.930 1_455 S
C55 C54 1.390 . S
C55 C56 1.392 . S
C56 H28 0.929 1_455 S
C56 C53 1.391 . S
C56 C55 1.392 . S
N57 Co1 2.257 . S
N57 C54 1.391 . S
N57 C58 1.388 . S
C58 H29 0.930 . S
C58 C53 1.391 . S
C58 N57 1.388 . S
Co59 O61 2.143 . S
Co59 O67 2.074 . S
Co59 O70 2.093 . S
Co59 O83 2.097 . S
Co59 N100 2.151 . S
Co59 N108 2.214 . S
Co60 O61 2.160 . S
Co60 O66 2.058 . S
Co60 O76 2.057 . S
Co60 O91 2.037 . S
Co60 N95 2.145 1_545 S
Co60 N116 2.257 . S
O61 Co59 2.143 . S
O61 Co60 2.160 . S
C62 O63 1.278 . S
C62 O70 1.224 . S
O63 C62 1.278 . S
C64 O65 1.245 . S
C64 O76 1.232 . S
O65 C64 1.245 . S
O66 Co60 2.058 . S
O66 C92 1.269 . S
O67 Co59 2.074 . S
O67 C92 1.257 . S
H68 C93 0.930 . S
H69 C99 0.930 . S
O70 Co59 2.093 . S
O70 C62 1.224 . S
H71 C103 0.929 . S
H72 C105 0.930 . S
H73 C106 0.930 . S
H74 C104 0.929 . S
H75 C107 0.928 . S
O76 Co60 2.057 . S
O76 C64 1.232 . S
H77 C96 0.929 1_545 S
H78 C97 0.929 . S
H79 C109 0.931 . S
H80 C101 0.929 . S
H81 C110 0.930 . S
H82 C102 0.931 . S
O83 Co59 2.097 . S
O83 C111 1.214 . S
H84 C112 0.929 . S
H85 C113 0.929 . S
H86 C114 0.930 1_565 S
H87 C115 0.929 1_565 S
H88 C117 0.930 . S
H89 C94 0.930 . S
H90 C98 0.930 . S
O91 Co60 2.037 . S
O91 C111 1.234 . S
C92 O66 1.269 . S
C92 O67 1.257 . S
C93 H68 0.930 . S
C93 C96 1.388 . S
C93 C98 1.418 . S
C94 H89 0.930 . S
C94 C97 1.404 . S
C94 C98 1.353 . S
N95 Co60 2.145 1_565 S
N95 C96 1.397 . S
N95 C97 1.334 . S
C96 H77 0.929 1_565 S
C96 C93 1.388 . S
C96 N95 1.397 . S
C97 H78 0.929 . S
C97 C94 1.404 . S
C97 N95 1.334 . S
C98 H90 0.930 . S
C98 C93 1.418 . S
C98 C94 1.353 . S
C99 H69 0.930 . S
C99 N100 1.330 . S
C99 C101 1.446 . S
N100 Co59 2.151 . S
N100 C99 1.330 . S
N100 C104 1.418 . S
C101 H80 0.929 . S
C101 C99 1.446 . S
C101 C102 1.332 . S
C102 H82 0.931 . S
C102 C101 1.332 . S
C102 C103 1.267 . S
C103 H71 0.929 . S
C103 C102 1.267 . S
C103 C104 1.251 . S
C104 H74 0.929 . S
C104 N100 1.418 . S
C104 C103 1.251 . S
C105 H72 0.930 . S
C105 C107 1.406 . S
C105 C110 1.261 . S
C106 H73 0.930 . S
C106 N108 1.325 . S
C106 C109 1.357 . S
C107 H75 0.928 . S
C107 C105 1.406 . S
C107 N108 1.261 . S
N108 Co59 2.214 . S
N108 C106 1.325 . S
N108 C107 1.261 . S
C109 H79 0.931 . S
C109 C106 1.357 . S
C109 C110 1.312 . S
C110 H81 0.930 . S
C110 C105 1.261 . S
C110 C109 1.312 . S
C111 O83 1.214 . S
C111 O91 1.234 . S
C112 H84 0.929 . S
C112 C115 1.391 . S
C112 C117 1.391 . S
C113 H85 0.929 . S
C113 C114 1.390 . S
C113 N116 1.391 . S
C114 H86 0.930 1_545 S
C114 C113 1.390 . S
C114 C115 1.392 . S
C115 H87 0.929 1_545 S
C115 C112 1.391 . S
C115 C114 1.392 . S
N116 Co60 2.257 . S
N116 C113 1.391 . S
N116 C117 1.388 . S
C117 H88 0.930 . S
C117 C112 1.391 . S
C117 N116 1.388 . S
Co118 O120 2.143 1_554 S
Co118 O126 2.074 . S
Co118 O129 2.093 1_554 S
Co118 O142 2.097 1_554 S
Co118 N159 2.151 . S
Co118 N167 2.214 . S
Co119 O120 2.160 1_554 S
Co119 O125 2.058 . S
Co119 O135 2.057 . S
Co119 O150 2.037 . S
Co119 N154 2.145 . S
Co119 N175 2.257 1_554 S
O120 Co118 2.143 1_556 S
O120 Co119 2.160 1_556 S
C121 O122 1.278 . S
C121 O129 1.224 . S
O122 C121 1.278 . S
C123 O124 1.245 . S
C123 O135 1.232 1_556 S
O124 C123 1.245 . S
O125 Co119 2.058 . S
O125 C151 1.269 . S
O126 Co118 2.074 . S
O126 C151 1.257 . S
H127 C152 0.930 . S
H128 C158 0.930 . S
O129 Co118 2.093 1_556 S
O129 C121 1.224 . S
H130 C162 0.929 . S
H131 C164 0.930 . S
H132 C165 0.930 . S
H133 C163 0.929 . S
H134 C166 0.928 1_556 S
O135 Co119 2.057 . S
O135 C123 1.232 1_554 S
H136 C155 0.929 . S
H137 C156 0.929 . S
H138 C168 0.931 . S
H139 C160 0.929 1_556 S
H140 C169 0.930 . S
H141 C161 0.931 . S
O142 Co118 2.097 1_556 S
O142 C170 1.216 . S
H143 C171 0.929 . S
H144 C172 0.929 . S
H145 C173 0.930 . S
H146 C174 0.929 . S
H147 C176 0.930 . S
H148 C153 0.930 . S
H149 C157 0.930 . S
O150 Co119 2.037 . S
O150 C170 1.232 1_554 S
C151 O125 1.269 . S
C151 O126 1.257 . S
C152 H127 0.930 . S
C152 C155 1.388 . S
C152 C157 1.418 . S
C153 H148 0.930 . S
C153 C156 1.404 . S
C153 C157 1.353 . S
N154 Co119 2.145 . S
N154 C155 1.397 . S
N154 C156 1.334 . S
C155 H136 0.929 . S
C155 C152 1.388 . S
C155 N154 1.397 . S
C156 H137 0.929 . S
C156 C153 1.404 . S
C156 N154 1.334 . S
C157 H149 0.930 . S
C157 C152 1.418 . S
C157 C153 1.353 . S
C158 H128 0.930 . S
C158 N159 1.330 1_556 S
C158 C160 1.446 1_556 S
N159 Co118 2.151 . S
N159 C158 1.330 1_554 S
N159 C163 1.418 . S
C160 H139 0.929 1_554 S
C160 C158 1.446 1_554 S
C160 C161 1.332 . S
C161 H141 0.931 . S
C161 C160 1.332 . S
C161 C162 1.267 . S
C162 H130 0.929 . S
C162 C161 1.267 . S
C162 C163 1.251 . S
C163 H133 0.929 . S
C163 N159 1.418 . S
C163 C162 1.251 . S
C164 H131 0.930 . S
C164 C166 1.406 . S
C164 C169 1.261 . S
C165 H132 0.930 . S
C165 N167 1.325 . S
C165 C168 1.357 . S
C166 H134 0.928 1_554 S
C166 C164 1.406 . S
C166 N167 1.261 . S
N167 Co118 2.214 . S
N167 C165 1.325 . S
N167 C166 1.261 . S
C168 H138 0.931 . S
C168 C165 1.357 . S
C168 C169 1.312 . S
C169 H140 0.930 . S
C169 C164 1.261 . S
C169 C168 1.312 . S
C170 O142 1.216 . S
C170 O150 1.232 1_556 S
C171 H143 0.929 . S
C171 C174 1.391 . S
C171 C176 1.391 . S
C172 H144 0.929 . S
C172 C173 1.390 . S
C172 N175 1.391 . S
C173 H145 0.930 . S
C173 C172 1.390 . S
C173 C174 1.392 . S
C174 H146 0.929 . S
C174 C171 1.391 . S
C174 C173 1.392 . S
N175 Co119 2.257 1_556 S
N175 C172 1.391 . S
N175 C176 1.388 . S
C176 H147 0.930 . S
C176 C171 1.391 . S
C176 N175 1.388 . S
Co177 O179 2.143 . S
Co177 O185 2.074 . S
Co177 O188 2.093 . S
Co177 O201 2.097 . S
Co177 N218 2.151 . S
Co177 N226 2.214 . S
Co178 O179 2.160 . S
Co178 O184 2.058 . S
Co178 O194 2.057 . S
Co178 O209 2.037 . S
Co178 N213 2.145 1_655 S
Co178 N234 2.257 . S
O179 Co177 2.143 . S
O179 Co178 2.160 . S
C180 O181 1.278 . S
C180 O188 1.224 . S
O181 C180 1.278 . S
C182 O183 1.245 . S
C182 O194 1.232 . S
O183 C182 1.245 . S
O184 Co178 2.058 . S
O184 C210 1.269 . S
O185 Co177 2.074 . S
O185 C210 1.257 . S
H186 C211 0.930 . S
H187 C217 0.930 . S
O188 Co177 2.093 . S
O188 C180 1.224 . S
H189 C221 0.929 . S
H190 C223 0.930 . S
H191 C224 0.930 . S
H192 C222 0.929 . S
H193 C225 0.928 . S
O194 Co178 2.057 . S
O194 C182 1.232 . S
H195 C214 0.929 1_655 S
H196 C215 0.929 . S
H197 C227 0.931 . S
H198 C219 0.929 . S
H199 C228 0.930 . S
H200 C220 0.931 . S
O201 Co177 2.097 . S
O201 C229 1.214 . S
H202 C230 0.929 . S
H203 C231 0.929 . S
H204 C232 0.930 1_455 S
H205 C233 0.929 1_455 S
H206 C235 0.930 . S
H207 C212 0.930 . S
H208 C216 0.930 . S
O209 Co178 2.037 . S
O209 C229 1.234 . S
C210 O184 1.269 . S
C210 O185 1.257 . S
C211 H186 0.930 . S
C211 C214 1.388 . S
C211 C216 1.418 . S
C212 H207 0.930 . S
C212 C215 1.404 . S
C212 C216 1.353 . S
N213 Co178 2.145 1_455 S
N213 C214 1.397 . S
N213 C215 1.334 . S
C214 H195 0.929 1_455 S
C214 C211 1.388 . S
C214 N213 1.397 . S
C215 H196 0.929 . S
C215 C212 1.404 . S
C215 N213 1.334 . S
C216 H208 0.930 . S
C216 C211 1.418 . S
C216 C212 1.353 . S
C217 H187 0.930 . S
C217 N218 1.330 . S
C217 C219 1.446 . S
N218 Co177 2.151 . S
N218 C217 1.330 . S
N218 C222 1.418 . S
C219 H198 0.929 . S
C219 C217 1.446 . S
C219 C220 1.332 . S
C220 H200 0.931 . S
C220 C219 1.332 . S
C220 C221 1.267 . S
C221 H189 0.929 . S
C221 C220 1.267 . S
C221 C222 1.251 . S
C222 H192 0.929 . S
C222 N218 1.418 . S
C222 C221 1.251 . S
C223 H190 0.930 . S
C223 C225 1.406 . S
C223 C228 1.261 . S
C224 H191 0.930 . S
C224 N226 1.325 . S
C224 C227 1.357 . S
C225 H193 0.928 . S
C225 C223 1.406 . S
C225 N226 1.261 . S
N226 Co177 2.214 . S
N226 C224 1.325 . S
N226 C225 1.261 . S
C227 H197 0.931 . S
C227 C224 1.357 . S
C227 C228 1.312 . S
C228 H199 0.930 . S
C228 C223 1.261 . S
C228 C227 1.312 . S
C229 O201 1.214 . S
C229 O209 1.234 . S
C230 H202 0.929 . S
C230 C233 1.391 . S
C230 C235 1.391 . S
C231 H203 0.929 . S
C231 C232 1.390 . S
C231 N234 1.391 . S
C232 H204 0.930 1_655 S
C232 C231 1.390 . S
C232 C233 1.392 . S
C233 H205 0.929 1_655 S
C233 C230 1.391 . S
C233 C232 1.392 . S
N234 Co178 2.257 . S
N234 C231 1.391 . S
N234 C235 1.388 . S
C235 H206 0.930 . S
C235 C230 1.391 . S
C235 N234 1.388 . S
Co236 O238 2.143 . S
Co236 O244 2.074 . S
Co236 O247 2.093 . S
Co236 O260 2.097 . S
Co236 N277 2.151 . S
Co236 N285 2.214 . S
Co237 O238 2.160 . S
Co237 O243 2.058 . S
Co237 O253 2.057 . S
Co237 O268 2.037 . S
Co237 N272 2.145 1_565 S
Co237 N293 2.257 . S
O238 Co236 2.143 . S
O238 Co237 2.160 . S
C239 O240 1.278 . S
C239 O247 1.224 . S
O240 C239 1.278 . S
C241 O242 1.245 . S
C241 O253 1.232 . S
O242 C241 1.245 . S
O243 Co237 2.058 . S
O243 C269 1.269 . S
O244 Co236 2.074 . S
O244 C269 1.257 . S
H245 C270 0.930 . S
H246 C276 0.930 . S
O247 Co236 2.093 . S
O247 C239 1.224 . S
H248 C280 0.929 . S
H249 C282 0.930 . S
H250 C283 0.930 . S
H251 C281 0.929 . S
H252 C284 0.928 . S
O253 Co237 2.057 . S
O253 C241 1.232 . S
H254 C273 0.929 1_565 S
H255 C274 0.929 . S
H256 C286 0.931 . S
H257 C278 0.929 . S
H258 C287 0.930 . S
H259 C279 0.931 . S
O260 Co236 2.097 . S
O260 C288 1.214 . S
H261 C289 0.929 . S
H262 C290 0.929 . S
H263 C291 0.930 1_545 S
H264 C292 0.929 1_545 S
H265 C294 0.930 . S
H266 C271 0.930 . S
H267 C275 0.930 . S
O268 Co237 2.037 . S
O268 C288 1.234 . S
C269 O243 1.269 . S
C269 O244 1.257 . S
C270 H245 0.930 . S
C270 C273 1.388 . S
C270 C275 1.418 . S
C271 H266 0.930 . S
C271 C274 1.404 . S
C271 C275 1.353 . S
N272 Co237 2.145 1_545 S
N272 C273 1.397 . S
N272 C274 1.334 . S
C273 H254 0.929 1_545 S
C273 C270 1.388 . S
C273 N272 1.397 . S
C274 H255 0.929 . S
C274 C271 1.404 . S
C274 N272 1.334 . S
C275 H267 0.930 . S
C275 C270 1.418 . S
C275 C271 1.353 . S
C276 H246 0.930 . S
C276 N277 1.330 . S
C276 C278 1.446 . S
N277 Co236 2.151 . S
N277 C276 1.330 . S
N277 C281 1.418 . S
C278 H257 0.929 . S
C278 C276 1.446 . S
C278 C279 1.332 . S
C279 H259 0.931 . S
C279 C278 1.332 . S
C279 C280 1.267 . S
C280 H248 0.929 . S
C280 C279 1.267 . S
C280 C281 1.251 . S
C281 H251 0.929 . S
C281 N277 1.418 . S
C281 C280 1.251 . S
C282 H249 0.930 . S
C282 C284 1.406 . S
C282 C287 1.261 . S
C283 H250 0.930 . S
C283 N285 1.325 . S
C283 C286 1.357 . S
C284 H252 0.928 . S
C284 C282 1.406 . S
C284 N285 1.261 . S
N285 Co236 2.214 . S
N285 C283 1.325 . S
N285 C284 1.261 . S
C286 H256 0.931 . S
C286 C283 1.357 . S
C286 C287 1.312 . S
C287 H258 0.930 . S
C287 C282 1.261 . S
C287 C286 1.312 . S
C288 O260 1.214 . S
C288 O268 1.234 . S
C289 H261 0.929 . S
C289 C292 1.391 . S
C289 C294 1.391 . S
C290 H262 0.929 . S
C290 C291 1.390 . S
C290 N293 1.391 . S
C291 H263 0.930 1_565 S
C291 C290 1.390 . S
C291 C292 1.392 . S
C292 H264 0.929 1_565 S
C292 C289 1.391 . S
C292 C291 1.392 . S
N293 Co237 2.257 . S
N293 C290 1.391 . S
N293 C294 1.388 . S
C294 H265 0.930 . S
C294 C289 1.391 . S
C294 N293 1.388 . S
Co295 O297 2.143 1_554 S
Co295 O303 2.074 . S
Co295 O306 2.093 1_554 S
Co295 O319 2.097 1_554 S
Co295 N336 2.151 . S
Co295 N344 2.214 . S
Co296 O297 2.160 1_554 S
Co296 O302 2.058 . S
Co296 O312 2.057 . S
Co296 O327 2.037 . S
Co296 N331 2.145 . S
Co296 N352 2.257 1_554 S
O297 Co295 2.143 1_556 S
O297 Co296 2.160 1_556 S
C298 O299 1.278 . S
C298 O306 1.224 . S
O299 C298 1.278 . S
C300 O301 1.245 . S
C300 O312 1.232 1_556 S
O301 C300 1.245 . S
O302 Co296 2.058 . S
O302 C328 1.269 . S
O303 Co295 2.074 . S
O303 C328 1.257 . S
H304 C329 0.930 . S
H305 C335 0.930 . S
O306 Co295 2.093 1_556 S
O306 C298 1.224 . S
H307 C339 0.929 . S
H308 C341 0.930 . S
H309 C342 0.930 . S
H310 C340 0.929 . S
H311 C343 0.928 1_556 S
O312 Co296 2.057 . S
O312 C300 1.232 1_554 S
H313 C332 0.929 . S
H314 C333 0.929 . S
H315 C345 0.931 . S
H316 C337 0.929 1_556 S
H317 C346 0.930 . S
H318 C338 0.931 . S
O319 Co295 2.097 1_556 S
O319 C347 1.216 . S
H320 C348 0.929 . S
H321 C349 0.929 . S
H322 C350 0.930 . S
H323 C351 0.929 . S
H324 C353 0.930 . S
H325 C330 0.930 . S
H326 C334 0.930 . S
O327 Co296 2.037 . S
O327 C347 1.232 1_554 S
C328 O302 1.269 . S
C328 O303 1.257 . S
C329 H304 0.930 . S
C329 C332 1.388 . S
C329 C334 1.418 . S
C330 H325 0.930 . S
C330 C333 1.404 . S
C330 C334 1.353 . S
N331 Co296 2.145 . S
N331 C332 1.397 . S
N331 C333 1.334 . S
C332 H313 0.929 . S
C332 C329 1.388 . S
C332 N331 1.397 . S
C333 H314 0.929 . S
C333 C330 1.404 . S
C333 N331 1.334 . S
C334 H326 0.930 . S
C334 C329 1.418 . S
C334 C330 1.353 . S
C335 H305 0.930 . S
C335 N336 1.330 1_556 S
C335 C337 1.446 1_556 S
N336 Co295 2.151 . S
N336 C335 1.330 1_554 S
N336 C340 1.418 . S
C337 H316 0.929 1_554 S
C337 C335 1.446 1_554 S
C337 C338 1.332 . S
C338 H318 0.931 . S
C338 C337 1.332 . S
C338 C339 1.267 . S
C339 H307 0.929 . S
C339 C338 1.267 . S
C339 C340 1.251 . S
C340 H310 0.929 . S
C340 N336 1.418 . S
C340 C339 1.251 . S
C341 H308 0.930 . S
C341 C343 1.406 . S
C341 C346 1.261 . S
C342 H309 0.930 . S
C342 N344 1.325 . S
C342 C345 1.357 . S
C343 H311 0.928 1_554 S
C343 C341 1.406 . S
C343 N344 1.261 . S
N344 Co295 2.214 . S
N344 C342 1.325 . S
N344 C343 1.261 . S
C345 H315 0.931 . S
C345 C342 1.357 . S
C345 C346 1.312 . S
C346 H317 0.930 . S
C346 C341 1.261 . S
C346 C345 1.312 . S
C347 O319 1.216 . S
C347 O327 1.232 1_556 S
C348 H320 0.929 . S
C348 C351 1.391 . S
C348 C353 1.391 . S
C349 H321 0.929 . S
C349 C350 1.390 . S
C349 N352 1.391 . S
C350 H322 0.930 . S
C350 C349 1.390 . S
C350 C351 1.392 . S
C351 H323 0.929 . S
C351 C348 1.391 . S
C351 C350 1.392 . S
N352 Co296 2.257 1_556 S
N352 C349 1.391 . S
N352 C353 1.388 . S
C353 H324 0.930 . S
C353 C348 1.391 . S
C353 N352 1.388 . S
Co354 O356 2.143 . S
Co354 O362 2.074 . S
Co354 O365 2.093 . S
Co354 O378 2.097 . S
Co354 N395 2.151 . S
Co354 N403 2.214 . S
Co355 O356 2.160 . S
Co355 O361 2.058 . S
Co355 O371 2.057 . S
Co355 O386 2.037 . S
Co355 N390 2.145 1_565 S
Co355 N411 2.257 . S
O356 Co354 2.143 . S
O356 Co355 2.160 . S
C357 O358 1.278 . S
C357 O365 1.224 . S
O358 C357 1.278 . S
C359 O360 1.245 . S
C359 O371 1.232 . S
O360 C359 1.245 . S
O361 Co355 2.058 . S
O361 C387 1.269 . S
O362 Co354 2.074 . S
O362 C387 1.257 . S
H363 C388 0.930 . S
H364 C394 0.930 . S
O365 Co354 2.093 . S
O365 C357 1.224 . S
H366 C398 0.929 . S
H367 C400 0.930 . S
H368 C401 0.930 . S
H369 C399 0.929 . S
H370 C402 0.928 . S
O371 Co355 2.057 . S
O371 C359 1.232 . S
H372 C391 0.929 1_565 S
H373 C392 0.929 . S
H374 C404 0.931 . S
H375 C396 0.929 . S
H376 C405 0.930 . S
H377 C397 0.931 . S
O378 Co354 2.097 . S
O378 C406 1.214 . S
H379 C407 0.929 . S
H380 C408 0.929 . S
H381 C409 0.929 1_545 S
H382 C410 0.929 1_545 S
H383 C412 0.930 . S
H384 C389 0.930 . S
H385 C393 0.930 . S
O386 Co355 2.037 . S
O386 C406 1.234 . S
C387 O361 1.269 . S
C387 O362 1.257 . S
C388 H363 0.930 . S
C388 C391 1.388 . S
C388 C393 1.418 . S
C389 H384 0.930 . S
C389 C392 1.404 . S
C389 C393 1.353 . S
N390 Co355 2.145 1_545 S
N390 C391 1.397 . S
N390 C392 1.334 . S
C391 H372 0.929 1_545 S
C391 C388 1.388 . S
C391 N390 1.397 . S
C392 H373 0.929 . S
C392 C389 1.404 . S
C392 N390 1.334 . S
C393 H385 0.930 . S
C393 C388 1.418 . S
C393 C389 1.353 . S
C394 H364 0.930 . S
C394 N395 1.330 . S
C394 C396 1.446 . S
N395 Co354 2.151 . S
N395 C394 1.330 . S
N395 C399 1.418 . S
C396 H375 0.929 . S
C396 C394 1.446 . S
C396 C397 1.332 . S
C397 H377 0.931 . S
C397 C396 1.332 . S
C397 C398 1.267 . S
C398 H366 0.929 . S
C398 C397 1.267 . S
C398 C399 1.251 . S
C399 H369 0.929 . S
C399 N395 1.418 . S
C399 C398 1.251 . S
C400 H367 0.930 . S
C400 C402 1.406 . S
C400 C405 1.261 . S
C401 H368 0.930 . S
C401 N403 1.325 . S
C401 C404 1.357 . S
C402 H370 0.928 . S
C402 C400 1.406 . S
C402 N403 1.261 . S
N403 Co354 2.214 . S
N403 C401 1.325 . S
N403 C402 1.261 . S
C404 H374 0.931 . S
C404 C401 1.357 . S
C404 C405 1.312 . S
C405 H376 0.930 . S
C405 C400 1.261 . S
C405 C404 1.312 . S
C406 O378 1.214 . S
C406 O386 1.234 . S
C407 H379 0.929 . S
C407 C410 1.391 . S
C407 C412 1.391 . S
C408 H380 0.929 . S
C408 C409 1.391 . S
C408 N411 1.391 . S
C409 H381 0.929 1_565 S
C409 C408 1.391 . S
C409 C410 1.391 . S
C410 H382 0.929 1_565 S
C410 C407 1.391 . S
C410 C409 1.391 . S
N411 Co355 2.257 . S
N411 C408 1.391 . S
N411 C412 1.388 . S
C412 H383 0.930 . S
C412 C407 1.391 . S
C412 N411 1.388 . S
Co413 O415 2.143 . S
Co413 O421 2.074 . S
Co413 O424 2.093 . S
Co413 O437 2.097 . S
Co413 N454 2.151 . S
Co413 N462 2.214 . S
Co414 O415 2.160 . S
Co414 O420 2.058 . S
Co414 O430 2.057 . S
Co414 O445 2.037 . S
Co414 N449 2.145 . S
Co414 N470 2.257 . S
O415 Co413 2.143 . S
O415 Co414 2.160 . S
C416 O417 1.278 . S
C416 O424 1.224 . S
O417 C416 1.278 . S
C418 O419 1.245 . S
C418 O430 1.232 . S
O419 C418 1.245 . S
O420 Co414 2.058 . S
O420 C446 1.269 . S
O421 Co413 2.074 . S
O421 C446 1.257 . S
H422 C447 0.930 . S
H423 C453 0.930 . S
O424 Co413 2.093 . S
O424 C416 1.224 . S
H425 C457 0.929 . S
H426 C459 0.930 . S
H427 C460 0.930 . S
H428 C458 0.929 . S
H429 C461 0.928 . S
O430 Co414 2.057 . S
O430 C418 1.232 . S
H431 C450 0.929 . S
H432 C451 0.929 . S
H433 C463 0.931 . S
H434 C455 0.929 . S
H435 C464 0.930 . S
H436 C456 0.931 . S
O437 Co413 2.097 . S
O437 C465 1.214 . S
H438 C466 0.929 . S
H439 C467 0.929 . S
H440 C468 0.930 . S
H441 C469 0.929 . S
H442 C471 0.930 . S
H443 C448 0.930 . S
H444 C452 0.930 . S
O445 Co414 2.037 . S
O445 C465 1.234 . S
C446 O420 1.269 . S
C446 O421 1.257 . S
C447 H422 0.930 . S
C447 C450 1.388 . S
C447 C452 1.418 . S
C448 H443 0.930 . S
C448 C451 1.404 . S
C448 C452 1.353 . S
N449 Co414 2.145 . S
N449 C450 1.397 . S
N449 C451 1.334 . S
C450 H431 0.929 . S
C450 C447 1.388 . S
C450 N449 1.397 . S
C451 H432 0.929 . S
C451 C448 1.404 . S
C451 N449 1.334 . S
C452 H444 0.930 . S
C452 C447 1.418 . S
C452 C448 1.353 . S
C453 H423 0.930 . S
C453 N454 1.330 . S
C453 C455 1.446 . S
N454 Co413 2.151 . S
N454 C453 1.330 . S
N454 C458 1.418 . S
C455 H434 0.929 . S
C455 C453 1.446 . S
C455 C456 1.332 . S
C456 H436 0.931 . S
C456 C455 1.332 . S
C456 C457 1.267 . S
C457 H425 0.929 . S
C457 C456 1.267 . S
C457 C458 1.251 . S
C458 H428 0.929 . S
C458 N454 1.418 . S
C458 C457 1.251 . S
C459 H426 0.930 . S
C459 C461 1.406 . S
C459 C464 1.261 . S
C460 H427 0.930 . S
C460 N462 1.325 . S
C460 C463 1.357 . S
C461 H429 0.928 . S
C461 C459 1.406 . S
C461 N462 1.261 . S
N462 Co413 2.214 . S
N462 C460 1.325 . S
N462 C461 1.261 . S
C463 H433 0.931 . S
C463 C460 1.357 . S
C463 C464 1.312 . S
C464 H435 0.930 . S
C464 C459 1.261 . S
C464 C463 1.312 . S
C465 O437 1.214 . S
C465 O445 1.234 . S
C466 H438 0.929 . S
C466 C469 1.391 . S
C466 C471 1.391 . S
C467 H439 0.929 . S
C467 C468 1.390 . S
C467 N470 1.391 . S
C468 H440 0.930 . S
C468 C467 1.390 . S
C468 C469 1.392 . S
C469 H441 0.929 . S
C469 C466 1.391 . S
C469 C468 1.392 . S
N470 Co414 2.257 . S
N470 C467 1.391 . S
N470 C471 1.388 . S
C471 H442 0.930 . S
C471 C466 1.391 . S
C471 N470 1.388 . S
Co472 O474 2.143 1_556 S
Co472 O480 2.074 . S
Co472 O483 2.093 1_556 S
Co472 O496 2.097 1_556 S
Co472 N513 2.151 . S
Co472 N521 2.214 . S
Co473 O474 2.160 1_556 S
Co473 O479 2.058 . S
Co473 O489 2.057 . S
Co473 O504 2.037 . S
Co473 N508 2.145 . S
Co473 N529 2.257 1_556 S
O474 Co472 2.143 1_554 S
O474 Co473 2.160 1_554 S
C475 O476 1.278 . S
C475 O483 1.224 . S
O476 C475 1.278 . S
C477 O478 1.245 . S
C477 O489 1.232 1_554 S
O478 C477 1.245 . S
O479 Co473 2.058 . S
O479 C505 1.269 . S
O480 Co472 2.074 . S
O480 C505 1.257 . S
H481 C506 0.930 . S
H482 C512 0.930 . S
O483 Co472 2.093 1_554 S
O483 C475 1.224 . S
H484 C516 0.929 . S
H485 C518 0.930 . S
H486 C519 0.930 . S
H487 C517 0.929 . S
H488 C520 0.928 1_554 S
O489 Co473 2.057 . S
O489 C477 1.232 1_556 S
H490 C509 0.929 . S
H491 C510 0.929 . S
H492 C522 0.931 . S
H493 C514 0.929 1_554 S
H494 C523 0.930 . S
H495 C515 0.931 . S
O496 Co472 2.097 1_554 S
O496 C524 1.216 . S
H497 C525 0.929 . S
H498 C526 0.929 . S
H499 C527 0.930 . S
H500 C528 0.929 . S
H501 C530 0.930 . S
H502 C507 0.930 . S
H503 C511 0.930 . S
O504 Co473 2.037 . S
O504 C524 1.232 1_556 S
C505 O479 1.269 . S
C505 O480 1.257 . S
C506 H481 0.930 . S
C506 C509 1.388 . S
C506 C511 1.418 . S
C507 H502 0.930 . S
C507 C510 1.404 . S
C507 C511 1.353 . S
N508 Co473 2.145 . S
N508 C509 1.397 . S
N508 C510 1.334 . S
C509 H490 0.929 . S
C509 C506 1.388 . S
C509 N508 1.397 . S
C510 H491 0.929 . S
C510 C507 1.404 . S
C510 N508 1.334 . S
C511 H503 0.930 . S
C511 C506 1.418 . S
C511 C507 1.353 . S
C512 H482 0.930 . S
C512 N513 1.330 1_554 S
C512 C514 1.446 1_454 S
N513 Co472 2.151 . S
N513 C512 1.330 1_556 S
N513 C517 1.418 1_455 S
C514 H493 0.929 1_556 S
C514 C512 1.446 1_656 S
C514 C515 1.332 . S
C515 H495 0.931 . S
C515 C514 1.332 . S
C515 C516 1.267 . S
C516 H484 0.929 . S
C516 C515 1.267 . S
C516 C517 1.251 . S
C517 H487 0.929 . S
C517 N513 1.418 1_655 S
C517 C516 1.251 . S
C518 H485 0.930 . S
C518 C520 1.406 . S
C518 C523 1.261 . S
C519 H486 0.930 . S
C519 N521 1.325 . S
C519 C522 1.357 1_455 S
C520 H488 0.928 1_556 S
C520 C518 1.406 . S
C520 N521 1.261 1_655 S
N521 Co472 2.214 . S
N521 C519 1.325 . S
N521 C520 1.261 1_455 S
C522 H492 0.931 . S
C522 C519 1.357 1_655 S
C522 C523 1.312 . S
C523 H494 0.930 . S
C523 C518 1.261 . S
C523 C522 1.312 . S
C524 O496 1.216 . S
C524 O504 1.232 1_554 S
C525 H497 0.929 . S
C525 C528 1.391 . S
C525 C530 1.391 . S
C526 H498 0.929 . S
C526 C527 1.390 . S
C526 N529 1.391 . S
C527 H499 0.930 . S
C527 C526 1.390 . S
C527 C528 1.392 . S
C528 H500 0.929 . S
C528 C525 1.391 . S
C528 C527 1.392 . S
N529 Co473 2.257 1_554 S
N529 C526 1.391 . S
N529 C530 1.388 . S
C530 H501 0.930 . S
C530 C525 1.391 . S
C530 N529 1.388 . S
Co531 O533 2.143 . S
Co531 O539 2.074 . S
Co531 O542 2.093 . S
Co531 O555 2.097 . S
Co531 N572 2.151 . S
Co531 N580 2.214 . S
Co532 O533 2.160 . S
Co532 O538 2.058 . S
Co532 O548 2.057 . S
Co532 O563 2.037 . S
Co532 N567 2.145 1_545 S
Co532 N588 2.257 . S
O533 Co531 2.143 . S
O533 Co532 2.160 . S
C534 O535 1.278 . S
C534 O542 1.224 . S
O535 C534 1.278 . S
C536 O537 1.245 . S
C536 O548 1.232 . S
O537 C536 1.245 . S
O538 Co532 2.058 . S
O538 C564 1.269 . S
O539 Co531 2.074 . S
O539 C564 1.257 . S
H540 C565 0.930 . S
H541 C571 0.930 . S
O542 Co531 2.093 . S
O542 C534 1.224 . S
H543 C575 0.929 . S
H544 C577 0.930 . S
H545 C578 0.930 . S
H546 C576 0.929 . S
H547 C579 0.928 . S
O548 Co532 2.057 . S
O548 C536 1.232 . S
H549 C568 0.929 1_545 S
H550 C569 0.929 . S
H551 C581 0.931 . S
H552 C573 0.929 . S
H553 C582 0.930 . S
H554 C574 0.931 . S
O555 Co531 2.097 . S
O555 C583 1.214 . S
H556 C584 0.929 . S
H557 C585 0.929 . S
H558 C586 0.930 1_565 S
H559 C587 0.929 1_565 S
H560 C589 0.930 . S
H561 C566 0.930 . S
H562 C570 0.930 . S
O563 Co532 2.037 . S
O563 C583 1.234 . S
C564 O538 1.269 . S
C564 O539 1.257 . S
C565 H540 0.930 . S
C565 C568 1.388 . S
C565 C570 1.418 . S
C566 H561 0.930 . S
C566 C569 1.404 . S
C566 C570 1.353 . S
N567 Co532 2.145 1_565 S
N567 C568 1.397 . S
N567 C569 1.334 . S
C568 H549 0.929 1_565 S
C568 C565 1.388 . S
C568 N567 1.397 . S
C569 H550 0.929 . S
C569 C566 1.404 . S
C569 N567 1.334 . S
C570 H562 0.930 . S
C570 C565 1.418 . S
C570 C566 1.353 . S
C571 H541 0.930 . S
C571 N572 1.330 . S
C571 C573 1.446 . S
N572 Co531 2.151 . S
N572 C571 1.330 . S
N572 C576 1.418 . S
C573 H552 0.929 . S
C573 C571 1.446 . S
C573 C574 1.332 . S
C574 H554 0.931 . S
C574 C573 1.332 . S
C574 C575 1.267 . S
C575 H543 0.929 . S
C575 C574 1.267 . S
C575 C576 1.251 . S
C576 H546 0.929 . S
C576 N572 1.418 . S
C576 C575 1.251 . S
C577 H544 0.930 . S
C577 C579 1.406 . S
C577 C582 1.261 . S
C578 H545 0.930 . S
C578 N580 1.325 . S
C578 C581 1.357 . S
C579 H547 0.928 . S
C579 C577 1.406 . S
C579 N580 1.261 . S
N580 Co531 2.214 . S
N580 C578 1.325 . S
N580 C579 1.261 . S
C581 H551 0.931 . S
C581 C578 1.357 . S
C581 C582 1.312 . S
C582 H553 0.930 . S
C582 C577 1.261 . S
C582 C581 1.312 . S
C583 O555 1.214 . S
C583 O563 1.234 . S
C584 H556 0.929 . S
C584 C587 1.391 . S
C584 C589 1.391 . S
C585 H557 0.929 . S
C585 C586 1.391 . S
C585 N588 1.391 . S
C586 H558 0.930 1_545 S
C586 C585 1.391 . S
C586 C587 1.391 . S
C587 H559 0.929 1_545 S
C587 C584 1.391 . S
C587 C586 1.391 . S
N588 Co532 2.257 . S
N588 C585 1.391 . S
N588 C589 1.388 . S
C589 H560 0.930 . S
C589 C584 1.391 . S
C589 N588 1.388 . S
Co590 O592 2.143 . S
Co590 O598 2.074 . S
Co590 O601 2.093 . S
Co590 O614 2.097 . S
Co590 N631 2.151 . S
Co590 N639 2.214 . S
Co591 O592 2.160 . S
Co591 O597 2.058 . S
Co591 O607 2.057 . S
Co591 O622 2.037 . S
Co591 N626 2.145 . S
Co591 N647 2.257 . S
O592 Co590 2.143 . S
O592 Co591 2.160 . S
C593 O594 1.278 . S
C593 O601 1.224 . S
O594 C593 1.278 . S
C595 O596 1.245 . S
C595 O607 1.232 . S
O596 C595 1.245 . S
O597 Co591 2.058 . S
O597 C623 1.269 . S
O598 Co590 2.074 . S
O598 C623 1.257 . S
H599 C624 0.930 . S
H600 C630 0.930 . S
O601 Co590 2.093 . S
O601 C593 1.224 . S
H602 C634 0.929 . S
H603 C636 0.930 . S
H604 C637 0.930 . S
H605 C635 0.929 . S
H606 C638 0.928 . S
O607 Co591 2.057 . S
O607 C595 1.232 . S
H608 C627 0.929 . S
H609 C628 0.929 . S
H610 C640 0.931 . S
H611 C632 0.929 . S
H612 C641 0.930 . S
H613 C633 0.931 . S
O614 Co590 2.097 . S
O614 C642 1.214 . S
H615 C643 0.929 . S
H616 C644 0.929 . S
H617 C645 0.930 . S
H618 C646 0.929 . S
H619 C648 0.930 . S
H620 C625 0.930 . S
H621 C629 0.930 . S
O622 Co591 2.037 . S
O622 C642 1.234 . S
C623 O597 1.269 . S
C623 O598 1.257 . S
C624 H599 0.930 . S
C624 C627 1.388 . S
C624 C629 1.418 . S
C625 H620 0.930 . S
C625 C628 1.404 . S
C625 C629 1.353 . S
N626 Co591 2.145 . S
N626 C627 1.397 . S
N626 C628 1.334 . S
C627 H608 0.929 . S
C627 C624 1.388 . S
C627 N626 1.397 . S
C628 H609 0.929 . S
C628 C625 1.404 . S
C628 N626 1.334 . S
C629 H621 0.930 . S
C629 C624 1.418 . S
C629 C625 1.353 . S
C630 H600 0.930 . S
C630 N631 1.330 . S
C630 C632 1.446 . S
N631 Co590 2.151 . S
N631 C630 1.330 . S
N631 C635 1.418 . S
C632 H611 0.929 . S
C632 C630 1.446 . S
C632 C633 1.332 . S
C633 H613 0.931 . S
C633 C632 1.332 . S
C633 C634 1.267 . S
C634 H602 0.929 . S
C634 C633 1.267 . S
C634 C635 1.251 . S
C635 H605 0.929 . S
C635 N631 1.418 . S
C635 C634 1.251 . S
C636 H603 0.930 . S
C636 C638 1.406 . S
C636 C641 1.261 . S
C637 H604 0.930 . S
C637 N639 1.325 . S
C637 C640 1.357 . S
C638 H606 0.928 . S
C638 C636 1.406 . S
C638 N639 1.261 . S
N639 Co590 2.214 . S
N639 C637 1.325 . S
N639 C638 1.261 . S
C640 H610 0.931 . S
C640 C637 1.357 . S
C640 C641 1.312 . S
C641 H612 0.930 . S
C641 C636 1.261 . S
C641 C640 1.312 . S
C642 O614 1.214 . S
C642 O622 1.234 . S
C643 H615 0.929 . S
C643 C646 1.391 . S
C643 C648 1.391 . S
C644 H616 0.929 . S
C644 C645 1.390 . S
C644 N647 1.391 . S
C645 H617 0.930 . S
C645 C644 1.390 . S
C645 C646 1.392 . S
C646 H618 0.929 . S
C646 C643 1.391 . S
C646 C645 1.392 . S
N647 Co591 2.257 . S
N647 C644 1.391 . S
N647 C648 1.388 . S
C648 H619 0.930 . S
C648 C643 1.391 . S
C648 N647 1.388 . S
Co649 O651 2.143 1_556 S
Co649 O657 2.074 . S
Co649 O660 2.093 1_556 S
Co649 O673 2.097 1_556 S
Co649 N690 2.151 . S
Co649 N698 2.214 . S
Co650 O651 2.160 1_556 S
Co650 O656 2.058 . S
Co650 O666 2.057 . S
Co650 O681 2.037 . S
Co650 N685 2.145 . S
Co650 N706 2.257 1_556 S
O651 Co649 2.143 1_554 S
O651 Co650 2.160 1_554 S
C652 O653 1.278 . S
C652 O660 1.224 . S
O653 C652 1.278 . S
C654 O655 1.245 . S
C654 O666 1.232 1_554 S
O655 C654 1.245 . S
O656 Co650 2.058 . S
O656 C682 1.269 . S
O657 Co649 2.074 . S
O657 C682 1.257 . S
H658 C683 0.930 . S
H659 C689 0.930 . S
O660 Co649 2.093 1_554 S
O660 C652 1.224 . S
H661 C693 0.929 . S
H662 C695 0.930 . S
H663 C696 0.930 . S
H664 C694 0.929 . S
H665 C697 0.928 1_554 S
O666 Co650 2.057 . S
O666 C654 1.232 1_556 S
H667 C686 0.929 . S
H668 C687 0.929 . S
H669 C699 0.931 . S
H670 C691 0.929 1_554 S
H671 C700 0.930 . S
H672 C692 0.931 . S
O673 Co649 2.097 1_554 S
O673 C701 1.216 . S
H674 C702 0.929 . S
H675 C703 0.929 . S
H676 C704 0.930 . S
H677 C705 0.929 . S
H678 C707 0.930 . S
H679 C684 0.930 . S
H680 C688 0.930 . S
O681 Co650 2.037 . S
O681 C701 1.232 1_556 S
C682 O656 1.269 . S
C682 O657 1.257 . S
C683 H658 0.930 . S
C683 C686 1.388 . S
C683 C688 1.418 . S
C684 H679 0.930 . S
C684 C687 1.404 . S
C684 C688 1.353 . S
N685 Co650 2.145 . S
N685 C686 1.397 . S
N685 C687 1.334 . S
C686 H667 0.929 . S
C686 C683 1.388 . S
C686 N685 1.397 . S
C687 H668 0.929 . S
C687 C684 1.404 . S
C687 N685 1.334 . S
C688 H680 0.930 . S
C688 C683 1.418 . S
C688 C684 1.353 . S
C689 H659 0.930 . S
C689 N690 1.330 1_554 S
C689 C691 1.446 1_654 S
N690 Co649 2.151 . S
N690 C689 1.330 1_556 S
N690 C694 1.418 1_655 S
C691 H670 0.929 1_556 S
C691 C689 1.446 1_456 S
C691 C692 1.332 . S
C692 H672 0.931 . S
C692 C691 1.332 . S
C692 C693 1.267 . S
C693 H661 0.929 . S
C693 C692 1.267 . S
C693 C694 1.251 . S
C694 H664 0.929 . S
C694 N690 1.418 1_455 S
C694 C693 1.251 . S
C695 H662 0.930 . S
C695 C697 1.406 . S
C695 C700 1.261 . S
C696 H663 0.930 . S
C696 N698 1.325 . S
C696 C699 1.357 1_655 S
C697 H665 0.928 1_556 S
C697 C695 1.406 . S
C697 N698 1.261 1_455 S
N698 Co649 2.214 . S
N698 C696 1.325 . S
N698 C697 1.261 1_655 S
C699 H669 0.931 . S
C699 C696 1.357 1_455 S
C699 C700 1.312 . S
C700 H671 0.930 . S
C700 C695 1.261 . S
C700 C699 1.312 . S
C701 O673 1.216 . S
C701 O681 1.232 1_554 S
C702 H674 0.929 . S
C702 C705 1.391 . S
C702 C707 1.391 . S
C703 H675 0.929 . S
C703 C704 1.390 . S
C703 N706 1.391 . S
C704 H676 0.930 . S
C704 C703 1.390 . S
C704 C705 1.392 . S
C705 H677 0.929 . S
C705 C702 1.391 . S
C705 C704 1.392 . S
N706 Co650 2.257 1_554 S
N706 C703 1.391 . S
N706 C707 1.388 . S
C707 H678 0.930 . S
C707 C702 1.391 . S
C707 N706 1.388 . S
C708 C709 1.391 . S
C708 C710 1.394 . S
C708 H724 0.931 . S
C709 C708 1.391 . S
C709 C713 1.376 . S
C710 C708 1.394 . S
C710 C711 1.369 . S
C710 C714 1.531 . S
C711 C710 1.369 . S
C711 C712 1.410 . S
C711 C719 1.503 . S
C712 C711 1.410 . S
C712 C713 1.392 . S
C712 C715 1.511 . S
C713 C709 1.376 . S
C713 C712 1.392 . S
C713 H725 0.929 . S
C714 C710 1.531 . S
C714 H726 0.960 . S
C714 H727 0.962 . S
C714 H728 0.960 . S
C715 C712 1.511 . S
C715 H729 0.961 . S
C715 H730 0.961 . S
C715 H731 0.961 . S
C716 C717 1.370 . S
C716 C718 1.363 . S
C716 H732 0.931 . S
C717 C716 1.370 . S
C717 C721 1.408 . S
C718 C716 1.363 . S
C718 C719 1.370 . S
C718 C722 1.524 . S
C719 C711 1.503 . S
C719 C718 1.370 . S
C719 C720 1.403 . S
C720 C719 1.403 . S
C720 C721 1.404 . S
C720 C723 1.539 . S
C721 C717 1.408 . S
C721 C720 1.404 . S
C721 H733 0.930 . S
C722 C718 1.524 . S
C722 H734 0.956 . S
C722 H735 0.961 . S
C722 H736 0.961 . S
C723 C720 1.539 . S
C723 H737 0.958 . S
C723 H738 0.961 . S
C723 H739 0.960 . S
H724 C708 0.931 . S
H725 C713 0.929 . S
H726 C714 0.960 . S
H727 C714 0.962 . S
H728 C714 0.960 . S
H729 C715 0.961 . S
H730 C715 0.961 . S
H731 C715 0.961 . S
H732 C716 0.931 . S
H733 C721 0.930 . S
H734 C722 0.956 . S
H735 C722 0.961 . S
H736 C722 0.961 . S
H737 C723 0.958 . S
H738 C723 0.961 . S
H739 C723 0.960 . S
C740 C741 1.391 . S
C740 C742 1.394 . S
C740 H756 0.931 . S
C741 C740 1.391 . S
C741 C745 1.376 . S
C742 C740 1.394 . S
C742 C743 1.369 . S
C742 C746 1.531 . S
C743 C742 1.369 . S
C743 C744 1.410 . S
C743 C751 1.503 . S
C744 C743 1.410 . S
C744 C745 1.392 . S
C744 C747 1.511 . S
C745 C741 1.376 . S
C745 C744 1.392 . S
C745 H757 0.929 . S
C746 C742 1.531 . S
C746 H758 0.960 . S
C746 H759 0.962 . S
C746 H760 0.960 . S
C747 C744 1.511 . S
C747 H761 0.961 . S
C747 H762 0.961 . S
C747 H763 0.961 . S
C748 C749 1.370 . S
C748 C750 1.363 . S
C748 H764 0.931 . S
C749 C748 1.370 . S
C749 C753 1.408 . S
C750 C748 1.363 . S
C750 C751 1.370 . S
C750 C754 1.524 . S
C751 C743 1.503 . S
C751 C750 1.370 . S
C751 C752 1.403 . S
C752 C751 1.403 . S
C752 C753 1.404 . S
C752 C755 1.539 . S
C753 C749 1.408 . S
C753 C752 1.404 . S
C753 H765 0.930 . S
C754 C750 1.524 . S
C754 H766 0.956 . S
C754 H767 0.961 . S
C754 H768 0.961 . S
C755 C752 1.539 . S
C755 H769 0.958 . S
C755 H770 0.961 . S
C755 H771 0.960 . S
H756 C740 0.931 . S
H757 C745 0.929 . S
H758 C746 0.960 . S
H759 C746 0.962 . S
H760 C746 0.960 . S
H761 C747 0.961 . S
H762 C747 0.961 . S
H763 C747 0.961 . S
H764 C748 0.931 . S
H765 C753 0.930 . S
H766 C754 0.956 . S
H767 C754 0.961 . S
H768 C754 0.961 . S
H769 C755 0.958 . S
H770 C755 0.961 . S
H771 C755 0.960 . S
C772 C773 1.391 1_554 S
C772 C774 1.394 . S
C772 H788 0.931 . S
C773 C772 1.391 1_556 S
C773 C777 1.376 . S
C774 C772 1.394 . S
C774 C775 1.369 1_554 S
C774 C778 1.531 . S
C775 C774 1.369 1_556 S
C775 C776 1.410 . S
C775 C783 1.503 1_556 S
C776 C775 1.410 . S
C776 C777 1.392 . S
C776 C779 1.511 . S
C777 C773 1.376 . S
C777 C776 1.392 . S
C777 H789 0.929 . S
C778 C774 1.531 . S
C778 H790 0.960 . S
C778 H791 0.962 . S
C778 H792 0.960 . S
C779 C776 1.511 . S
C779 H793 0.961 . S
C779 H794 0.961 . S
C779 H795 0.961 . S
C780 C781 1.370 . S
C780 C782 1.363 . S
C780 H796 0.931 . S
C781 C780 1.370 . S
C781 C785 1.408 1_554 S
C782 C780 1.363 . S
C782 C783 1.370 . S
C782 C786 1.524 . S
C783 C775 1.503 1_554 S
C783 C782 1.370 . S
C783 C784 1.403 1_554 S
C784 C783 1.403 1_556 S
C784 C785 1.404 . S
C784 C787 1.539 . S
C785 C781 1.408 1_556 S
C785 C784 1.404 . S
C785 H797 0.930 . S
C786 C782 1.524 . S
C786 H798 0.956 . S
C786 H799 0.961 1_554 S
C786 H800 0.961 . S
C787 C784 1.539 . S
C787 H801 0.958 1_556 S
C787 H802 0.961 . S
C787 H803 0.960 . S
H788 C772 0.931 . S
H789 C777 0.929 . S
H790 C778 0.960 . S
H791 C778 0.962 . S
H792 C778 0.960 . S
H793 C779 0.961 . S
H794 C779 0.961 . S
H795 C779 0.961 . S
H796 C780 0.931 . S
H797 C785 0.930 . S
H798 C786 0.956 . S
H799 C786 0.961 1_556 S
H800 C786 0.961 . S
H801 C787 0.958 1_554 S
H802 C787 0.961 . S
H803 C787 0.960 . S
C804 C805 1.391 . S
C804 C806 1.394 . S
C804 H820 0.931 . S
C805 C804 1.391 . S
C805 C809 1.376 . S
C806 C804 1.394 . S
C806 C807 1.369 . S
C806 C810 1.531 . S
C807 C806 1.369 . S
C807 C808 1.410 . S
C807 C815 1.503 . S
C808 C807 1.410 . S
C808 C809 1.392 . S
C808 C811 1.511 . S
C809 C805 1.376 . S
C809 C808 1.392 . S
C809 H821 0.929 . S
C810 C806 1.531 . S
C810 H822 0.960 . S
C810 H823 0.962 . S
C810 H824 0.960 . S
C811 C808 1.511 . S
C811 H825 0.961 . S
C811 H826 0.961 . S
C811 H827 0.961 . S
C812 C813 1.370 . S
C812 C814 1.363 . S
C812 H828 0.931 . S
C813 C812 1.370 . S
C813 C817 1.408 . S
C814 C812 1.363 . S
C814 C815 1.370 . S
C814 C818 1.524 . S
C815 C807 1.503 . S
C815 C814 1.370 . S
C815 C816 1.403 . S
C816 C815 1.403 . S
C816 C817 1.404 . S
C816 C819 1.539 . S
C817 C813 1.408 . S
C817 C816 1.404 . S
C817 H829 0.930 . S
C818 C814 1.524 . S
C818 H830 0.956 . S
C818 H831 0.961 . S
C818 H832 0.961 . S
C819 C816 1.539 . S
C819 H833 0.958 . S
C819 H834 0.961 . S
C819 H835 0.960 . S
H820 C804 0.931 . S
H821 C809 0.929 . S
H822 C810 0.960 . S
H823 C810 0.962 . S
H824 C810 0.960 . S
H825 C811 0.961 . S
H826 C811 0.961 . S
H827 C811 0.961 . S
H828 C812 0.931 . S
H829 C817 0.930 . S
H830 C818 0.956 . S
H831 C818 0.961 . S
H832 C818 0.961 . S
H833 C819 0.958 . S
H834 C819 0.961 . S
H835 C819 0.960 . S
C836 C837 1.391 . S
C836 C838 1.394 . S
C836 H852 0.931 . S
C837 C836 1.391 . S
C837 C841 1.376 . S
C838 C836 1.394 . S
C838 C839 1.369 . S
C838 C842 1.531 . S
C839 C838 1.369 . S
C839 C840 1.410 . S
C839 C847 1.503 . S
C840 C839 1.410 . S
C840 C841 1.392 . S
C840 C843 1.511 . S
C841 C837 1.376 . S
C841 C840 1.392 . S
C841 H853 0.929 . S
C842 C838 1.531 . S
C842 H854 0.960 . S
C842 H855 0.962 . S
C842 H856 0.960 . S
C843 C840 1.511 . S
C843 H857 0.961 . S
C843 H858 0.961 . S
C843 H859 0.961 . S
C844 C845 1.370 . S
C844 C846 1.363 . S
C844 H860 0.931 . S
C845 C844 1.370 . S
C845 C849 1.408 . S
C846 C844 1.363 . S
C846 C847 1.370 . S
C846 C850 1.524 . S
C847 C839 1.503 . S
C847 C846 1.370 . S
C847 C848 1.403 . S
C848 C847 1.403 . S
C848 C849 1.404 . S
C848 C851 1.539 . S
C849 C845 1.408 . S
C849 C848 1.404 . S
C849 H861 0.930 . S
C850 C846 1.524 . S
C850 H862 0.956 . S
C850 H863 0.961 . S
C850 H864 0.961 . S
C851 C848 1.539 . S
C851 H865 0.958 . S
C851 H866 0.961 . S
C851 H867 0.960 . S
H852 C836 0.931 . S
H853 C841 0.929 . S
H854 C842 0.960 . S
H855 C842 0.962 . S
H856 C842 0.960 . S
H857 C843 0.961 . S
H858 C843 0.961 . S
H859 C843 0.961 . S
H860 C844 0.931 . S
H861 C849 0.930 . S
H862 C850 0.956 . S
H863 C850 0.961 . S
H864 C850 0.961 . S
H865 C851 0.958 . S
H866 C851 0.961 . S
H867 C851 0.960 . S
C868 C869 1.391 . S
C868 C870 1.394 . S
C868 H884 0.931 . S
C869 C868 1.391 . S
C869 C873 1.376 1_554 S
C870 C868 1.394 . S
C870 C871 1.368 . S
C870 C874 1.531 . S
C871 C870 1.368 . S
C871 C872 1.410 1_554 S
C871 C879 1.503 1_554 S
C872 C871 1.410 1_556 S
C872 C873 1.392 . S
C872 C875 1.511 . S
C873 C869 1.376 1_556 S
C873 C872 1.392 . S
C873 H885 0.929 . S
C874 C870 1.531 . S
C874 H886 0.960 . S
C874 H887 0.962 . S
C874 H888 0.960 . S
C875 C872 1.511 . S
C875 H889 0.961 . S
C875 H890 0.961 . S
C875 H891 0.961 . S
C876 C877 1.370 1_554 S
C876 C878 1.363 . S
C876 H892 0.931 . S
C877 C876 1.370 1_556 S
C877 C881 1.408 . S
C878 C876 1.363 . S
C878 C879 1.370 1_554 S
C878 C882 1.524 . S
C879 C871 1.503 1_556 S
C879 C878 1.370 1_556 S
C879 C880 1.403 . S
C880 C879 1.403 . S
C880 C881 1.404 . S
C880 C883 1.539 . S
C881 C877 1.408 . S
C881 C880 1.404 . S
C881 H893 0.930 . S
C882 C878 1.524 . S
C882 H894 0.956 . S
C882 H895 0.961 1_554 S
C882 H896 0.961 . S
C883 C880 1.539 . S
C883 H897 0.958 1_556 S
C883 H898 0.961 . S
C883 H899 0.960 . S
H884 C868 0.931 . S
H885 C873 0.929 . S
H886 C874 0.960 . S
H887 C874 0.962 . S
H888 C874 0.960 . S
H889 C875 0.961 . S
H890 C875 0.961 . S
H891 C875 0.961 . S
H892 C876 0.931 . S
H893 C881 0.930 . S
H894 C882 0.956 . S
H895 C882 0.961 1_556 S
H896 C882 0.961 . S
H897 C883 0.958 1_554 S
H898 C883 0.961 . S
H899 C883 0.960 . S
C900 C901 1.391 . S
C900 C902 1.394 . S
C900 H916 0.931 . S
C901 C900 1.391 . S
C901 C905 1.376 . S
C902 C900 1.394 . S
C902 C903 1.369 . S
C902 C906 1.531 . S
C903 C902 1.369 . S
C903 C904 1.410 . S
C903 C911 1.503 . S
C904 C903 1.410 . S
C904 C905 1.392 . S
C904 C907 1.511 . S
C905 C901 1.376 . S
C905 C904 1.392 . S
C905 H917 0.929 . S
C906 C902 1.531 . S
C906 H918 0.960 . S
C906 H919 0.962 . S
C906 H920 0.960 . S
C907 C904 1.511 . S
C907 H921 0.961 . S
C907 H922 0.961 . S
C907 H923 0.961 . S
C908 C909 1.370 . S
C908 C910 1.363 . S
C908 H924 0.931 . S
C909 C908 1.370 . S
C909 C913 1.408 . S
C910 C908 1.363 . S
C910 C911 1.370 . S
C910 C914 1.524 . S
C911 C903 1.503 . S
C911 C910 1.370 . S
C911 C912 1.403 . S
C912 C911 1.403 . S
C912 C913 1.404 . S
C912 C915 1.539 . S
C913 C909 1.408 . S
C913 C912 1.404 . S
C913 H925 0.930 . S
C914 C910 1.524 . S
C914 H926 0.956 . S
C914 H927 0.961 . S
C914 H928 0.961 . S
C915 C912 1.539 . S
C915 H929 0.958 . S
C915 H930 0.961 . S
C915 H931 0.960 . S
H916 C900 0.931 . S
H917 C905 0.929 . S
H918 C906 0.960 . S
H919 C906 0.962 . S
H920 C906 0.960 . S
H921 C907 0.961 . S
H922 C907 0.961 . S
H923 C907 0.961 . S
H924 C908 0.931 . S
H925 C913 0.930 . S
H926 C914 0.956 . S
H927 C914 0.961 . S
H928 C914 0.961 . S
H929 C915 0.958 . S
H930 C915 0.961 . S
H931 C915 0.960 . S
C932 C933 1.391 . S
C932 C934 1.394 . S
C932 H948 0.931 . S
C933 C932 1.391 . S
C933 C937 1.376 . S
C934 C932 1.394 . S
C934 C935 1.369 . S
C934 C938 1.531 . S
C935 C934 1.369 . S
C935 C936 1.410 . S
C935 C943 1.503 1_655 S
C936 C935 1.410 . S
C936 C937 1.392 . S
C936 C939 1.511 . S
C937 C933 1.376 . S
C937 C936 1.392 . S
C937 H949 0.929 . S
C938 C934 1.531 . S
C938 H950 0.960 . S
C938 H951 0.962 . S
C938 H952 0.960 . S
C939 C936 1.511 . S
C939 H953 0.961 . S
C939 H954 0.961 1_655 S
C939 H955 0.961 . S
C940 C941 1.370 . S
C940 C942 1.363 . S
C940 H956 0.931 . S
C941 C940 1.370 . S
C941 C945 1.408 . S
C942 C940 1.363 . S
C942 C943 1.370 . S
C942 C946 1.524 . S
C943 C935 1.503 1_455 S
C943 C942 1.370 . S
C943 C944 1.403 . S
C944 C943 1.403 . S
C944 C945 1.404 . S
C944 C947 1.539 . S
C945 C941 1.408 . S
C945 C944 1.404 . S
C945 H957 0.930 . S
C946 C942 1.524 . S
C946 H958 0.956 . S
C946 H959 0.961 . S
C946 H960 0.961 . S
C947 C944 1.539 . S
C947 H961 0.958 . S
C947 H962 0.961 . S
C947 H963 0.950 1_455 S
H948 C932 0.931 . S
H949 C937 0.929 . S
H950 C938 0.960 . S
H951 C938 0.962 . S
H952 C938 0.960 . S
H953 C939 0.961 . S
H954 C939 0.961 1_455 S
H955 C939 0.961 . S
H956 C940 0.931 . S
H957 C945 0.930 . S
H958 C946 0.956 . S
H959 C946 0.961 . S
H960 C946 0.961 . S
H961 C947 0.958 . S
H962 C947 0.961 . S
H963 C947 0.950 1_655 S
C964 C965 1.391 . S
C964 C966 1.394 . S
C964 H980 0.931 . S
C965 C964 1.391 . S
C965 C969 1.373 1_556 S
C966 C964 1.394 . S
C966 C967 1.369 . S
C966 C970 1.531 . S
C967 C966 1.369 . S
C967 C968 1.410 . S
C967 C975 1.503 1_545 S
C968 C967 1.410 . S
C968 C969 1.391 1_556 S
C968 C971 1.511 1_556 S
C969 C965 1.373 1_554 S
C969 C968 1.391 1_554 S
C969 H981 0.934 . S
C970 C966 1.531 . S
C970 H982 0.960 1_545 S
C970 H983 0.974 . S
C970 H984 0.960 . S
C971 C968 1.511 1_554 S
C971 H985 0.961 . S
C971 H986 0.961 1_545 S
C971 H987 0.961 1_554 S
C972 C973 1.364 1_554 S
C972 C974 1.363 . S
C972 H988 0.931 . S
C973 C972 1.364 1_556 S
C973 C977 1.415 . S
C974 C972 1.363 . S
C974 C975 1.370 1_554 S
C974 C978 1.524 . S
C975 C967 1.503 1_565 S
C975 C974 1.370 1_556 S
C975 C976 1.403 . S
C976 C975 1.403 . S
C976 C977 1.404 . S
C976 C979 1.539 . S
C977 C973 1.415 . S
C977 C976 1.404 . S
C977 H989 0.930 . S
C978 C974 1.524 . S
C978 H990 0.956 . S
C978 H991 0.961 1_565 S
C978 H992 0.961 . S
C979 C976 1.539 . S
C979 H993 0.958 . S
C979 H994 0.961 . S
C979 H995 0.960 . S
H980 C964 0.931 . S
H981 C969 0.934 . S
H982 C970 0.960 1_565 S
H983 C970 0.974 . S
H984 C970 0.960 . S
H985 C971 0.961 . S
H986 C971 0.961 1_565 S
H987 C971 0.961 1_556 S
H988 C972 0.931 . S
H989 C977 0.930 . S
H990 C978 0.956 . S
H991 C978 0.961 1_545 S
H992 C978 0.961 . S
H993 C979 0.958 . S
H994 C979 0.961 . S
H995 C979 0.960 . S
C996 C997 1.391 . S
C996 C998 1.394 . S
C996 H1012 0.931 . S
C997 C996 1.391 . S
C997 C1001 1.376 . S
C998 C996 1.394 . S
C998 C999 1.369 . S
C998 C1002 1.531 . S
C999 C998 1.369 . S
C999 C1000 1.410 . S
C999 C1007 1.503 . S
C1000 C999 1.410 . S
C1000 C1001 1.392 . S
C1000 C1003 1.511 . S
C1001 C997 1.376 . S
C1001 C1000 1.392 . S
C1001 H1013 0.929 . S
C1002 C998 1.531 . S
C1002 H1014 0.960 . S
C1002 H1015 0.962 . S
C1002 H1016 0.960 . S
C1003 C1000 1.511 . S
C1003 H1017 0.961 . S
C1003 H1018 0.961 . S
C1003 H1019 0.961 . S
C1004 C1005 1.370 . S
C1004 C1006 1.363 . S
C1004 H1020 0.931 . S
C1005 C1004 1.370 . S
C1005 C1009 1.408 . S
C1006 C1004 1.363 . S
C1006 C1007 1.370 . S
C1006 C1010 1.524 . S
C1007 C999 1.503 . S
C1007 C1006 1.370 . S
C1007 C1008 1.403 . S
C1008 C1007 1.403 . S
C1008 C1009 1.404 . S
C1008 C1011 1.539 . S
C1009 C1005 1.408 . S
C1009 C1008 1.404 . S
C1009 H1021 0.930 . S
C1010 C1006 1.524 . S
C1010 H1022 0.956 . S
C1010 H1023 0.961 . S
C1010 H1024 0.961 . S
C1011 C1008 1.539 . S
C1011 H1025 0.958 . S
C1011 H1026 0.961 . S
C1011 H1027 0.960 . S
H1012 C996 0.931 . S
H1013 C1001 0.929 . S
H1014 C1002 0.960 . S
H1015 C1002 0.962 . S
H1016 C1002 0.960 . S
H1017 C1003 0.961 . S
H1018 C1003 0.961 . S
H1019 C1003 0.961 . S
H1020 C1004 0.931 . S
H1021 C1009 0.930 . S
H1022 C1010 0.956 . S
H1023 C1010 0.961 . S
H1024 C1010 0.961 . S
H1025 C1011 0.958 . S
H1026 C1011 0.961 . S
H1027 C1011 0.960 . S
C1028 C1029 1.391 . S
C1028 C1030 1.394 . S
C1028 H1044 0.931 . S
C1029 C1028 1.391 . S
C1029 C1033 1.376 . S
C1030 C1028 1.394 . S
C1030 C1031 1.369 . S
C1030 C1034 1.531 . S
C1031 C1030 1.369 . S
C1031 C1032 1.410 . S
C1031 C1039 1.503 1_455 S
C1032 C1031 1.410 . S
C1032 C1033 1.392 . S
C1032 C1035 1.511 . S
C1033 C1029 1.376 . S
C1033 C1032 1.392 . S
C1033 H1045 0.929 . S
C1034 C1030 1.531 . S
C1034 H1046 0.960 1_455 S
C1034 H1047 0.962 . S
C1034 H1048 0.960 . S
C1035 C1032 1.511 . S
C1035 H1049 0.961 . S
C1035 H1050 0.961 1_455 S
C1035 H1051 0.961 . S
C1036 C1037 1.370 . S
C1036 C1038 1.363 . S
C1036 H1052 0.931 . S
C1037 C1036 1.370 . S
C1037 C1041 1.408 . S
C1038 C1036 1.363 . S
C1038 C1039 1.370 . S
C1038 C1042 1.524 . S
C1039 C1031 1.503 1_655 S
C1039 C1038 1.370 . S
C1039 C1040 1.403 . S
C1040 C1039 1.403 . S
C1040 C1041 1.404 . S
C1040 C1043 1.539 . S
C1041 C1037 1.408 . S
C1041 C1040 1.404 . S
C1041 H1053 0.930 . S
C1042 C1038 1.524 . S
C1042 H1054 0.956 . S
C1042 H1055 0.961 . S
C1042 H1056 0.961 . S
C1043 C1040 1.539 . S
C1043 H1057 0.958 . S
C1043 H1058 0.961 . S
C1043 H1059 0.960 1_655 S
H1044 C1028 0.931 . S
H1045 C1033 0.929 . S
H1046 C1034 0.960 1_655 S
H1047 C1034 0.962 . S
H1048 C1034 0.960 . S
H1049 C1035 0.961 . S
H1050 C1035 0.961 1_655 S
H1051 C1035 0.961 . S
H1052 C1036 0.931 . S
H1053 C1041 0.930 . S
H1054 C1042 0.956 . S
H1055 C1042 0.961 . S
H1056 C1042 0.961 . S
H1057 C1043 0.958 . S
H1058 C1043 0.961 . S
H1059 C1043 0.960 1_455 S
C1060 C1061 1.391 . S
C1060 C1062 1.394 . S
C1060 H1076 0.931 . S
C1061 C1060 1.391 . S
C1061 C1065 1.376 1_554 S
C1062 C1060 1.394 . S
C1062 C1063 1.369 . S
C1062 C1066 1.531 . S
C1063 C1062 1.369 . S
C1063 C1064 1.410 1_554 S
C1063 C1071 1.503 1_545 S
C1064 C1063 1.410 1_556 S
C1064 C1065 1.392 . S
C1064 C1067 1.511 . S
C1065 C1061 1.376 1_556 S
C1065 C1064 1.392 . S
C1065 H1077 0.929 . S
C1066 C1062 1.531 . S
C1066 H1078 0.960 1_545 S
C1066 H1079 0.962 . S
C1066 H1080 0.960 . S
C1067 C1064 1.511 . S
C1067 H1081 0.961 . S
C1067 H1082 0.961 1_545 S
C1067 H1083 0.961 1_556 S
C1068 C1069 1.367 1_556 S
C1068 C1070 1.363 . S
C1068 H1084 0.931 . S
C1069 C1068 1.367 1_554 S
C1069 C1073 1.411 . S
C1070 C1068 1.363 . S
C1070 C1071 1.370 1_556 S
C1070 C1074 1.524 . S
C1071 C1063 1.503 1_565 S
C1071 C1070 1.370 1_554 S
C1071 C1072 1.403 . S
C1072 C1071 1.403 . S
C1072 C1073 1.404 . S
C1072 C1075 1.539 . S
C1073 C1069 1.411 . S
C1073 C1072 1.404 . S
C1073 H1085 0.930 . S
C1074 C1070 1.524 . S
C1074 H1086 0.956 . S
C1074 H1087 0.961 1_565 S
C1074 H1088 0.961 . S
C1075 C1072 1.539 . S
C1075 H1089 0.958 . S
C1075 H1090 0.961 . S
C1075 H1091 0.960 . S
H1076 C1060 0.931 . S
H1077 C1065 0.929 . S
H1078 C1066 0.960 1_565 S
H1079 C1066 0.962 . S
H1080 C1066 0.960 . S
H1081 C1067 0.961 . S
H1082 C1067 0.961 1_565 S
H1083 C1067 0.961 1_554 S
H1084 C1068 0.931 . S
H1085 C1073 0.930 . S
H1086 C1074 0.956 . S
H1087 C1074 0.961 1_545 S
H1088 C1074 0.961 . S
H1089 C1075 0.958 . S
H1090 C1075 0.961 . S
H1091 C1075 0.960 . S
C1092 C1093 1.391 1_455 S
C1092 C1094 1.394 . S
C1092 H1108 0.931 . S
C1093 C1092 1.391 1_655 S
C1093 C1097 1.376 . S
C1094 C1092 1.394 . S
C1094 C1095 1.369 1_455 S
C1094 C1098 1.531 . S
C1095 C1094 1.369 1_655 S
C1095 C1096 1.410 . S
C1095 C1103 1.503 1_655 S
C1096 C1095 1.410 . S
C1096 C1097 1.392 . S
C1096 C1099 1.511 . S
C1097 C1093 1.376 . S
C1097 C1096 1.392 . S
C1097 H1109 0.929 . S
C1098 C1094 1.531 . S
C1098 H1110 0.960 . S
C1098 H1111 0.962 . S
C1098 H1112 0.960 . S
C1099 C1096 1.511 . S
C1099 H1113 0.961 . S
C1099 H1114 0.961 . S
C1099 H1115 0.961 . S
C1100 C1101 1.370 . S
C1100 C1102 1.363 . S
C1100 H1116 0.931 . S
C1101 C1100 1.370 . S
C1101 C1105 1.408 . S
C1102 C1100 1.363 . S
C1102 C1103 1.370 . S
C1102 C1106 1.524 1_455 S
C1103 C1095 1.503 1_455 S
C1103 C1102 1.370 . S
C1103 C1104 1.403 . S
C1104 C1103 1.403 . S
C1104 C1105 1.404 . S
C1104 C1107 1.539 . S
C1105 C1101 1.408 . S
C1105 C1104 1.404 . S
C1105 H1117 0.930 . S
C1106 C1102 1.524 1_655 S
C1106 H1118 0.956 1_655 S
C1106 H1119 0.961 . S
C1106 H1120 0.961 . S
C1107 C1104 1.539 . S
C1107 H1121 0.958 . S
C1107 H1122 0.946 1_455 S
C1107 H1123 0.960 1_455 S
H1108 C1092 0.931 . S
H1109 C1097 0.929 . S
H1110 C1098 0.960 . S
H1111 C1098 0.962 . S
H1112 C1098 0.960 . S
H1113 C1099 0.961 . S
H1114 C1099 0.961 . S
H1115 C1099 0.961 . S
H1116 C1100 0.931 . S
H1117 C1105 0.930 . S
H1118 C1106 0.956 1_455 S
H1119 C1106 0.961 . S
H1120 C1106 0.961 . S
H1121 C1107 0.958 . S
H1122 C1107 0.946 1_655 S
H1123 C1107 0.960 1_655 S
C1124 C1125 1.391 . S
C1124 C1126 1.394 . S
C1124 H1140 0.931 . S
C1125 C1124 1.391 . S
C1125 C1129 1.376 . S
C1126 C1124 1.394 . S
C1126 C1127 1.369 1_545 S
C1126 C1130 1.531 . S
C1127 C1126 1.369 1_565 S
C1127 C1128 1.410 . S
C1127 C1135 1.503 . S
C1128 C1127 1.410 . S
C1128 C1129 1.392 1_565 S
C1128 C1131 1.511 . S
C1129 C1125 1.376 . S
C1129 C1128 1.392 1_545 S
C1129 H1141 0.929 . S
C1130 C1126 1.531 . S
C1130 H1142 0.960 1_545 S
C1130 H1143 0.962 . S
C1130 H1144 0.960 1_545 S
C1131 C1128 1.511 . S
C1131 H1145 0.961 . S
C1131 H1146 0.961 . S
C1131 H1147 0.961 . S
C1132 C1133 1.370 1_545 S
C1132 C1134 1.363 . S
C1132 H1148 0.931 . S
C1133 C1132 1.370 1_565 S
C1133 C1137 1.408 . S
C1134 C1132 1.363 . S
C1134 C1135 1.370 1_545 S
C1134 C1138 1.524 . S
C1135 C1127 1.503 . S
C1135 C1134 1.370 1_565 S
C1135 C1136 1.403 . S
C1136 C1135 1.403 . S
C1136 C1137 1.404 . S
C1136 C1139 1.539 . S
C1137 C1133 1.408 . S
C1137 C1136 1.404 . S
C1137 H1149 0.930 . S
C1138 C1134 1.524 . S
C1138 H1150 0.956 . S
C1138 H1151 0.961 . S
C1138 H1152 0.961 . S
C1139 C1136 1.539 . S
C1139 H1153 0.958 . S
C1139 H1154 0.961 . S
C1139 H1155 0.960 . S
H1140 C1124 0.931 . S
H1141 C1129 0.929 . S
H1142 C1130 0.960 1_565 S
H1143 C1130 0.962 . S
H1144 C1130 0.960 1_565 S
H1145 C1131 0.961 . S
H1146 C1131 0.961 . S
H1147 C1131 0.961 . S
H1148 C1132 0.931 . S
H1149 C1137 0.930 . S
H1150 C1138 0.956 . S
H1151 C1138 0.961 . S
H1152 C1138 0.961 . S
H1153 C1139 0.958 . S
H1154 C1139 0.961 . S
H1155 C1139 0.960 . S
C1156 C1157 1.391 . S
C1156 C1158 1.394 . S
C1156 H1172 0.931 . S
C1157 C1156 1.391 . S
C1157 C1161 1.376 . S
C1158 C1156 1.394 . S
C1158 C1159 1.369 . S
C1158 C1162 1.531 . S
C1159 C1158 1.369 . S
C1159 C1160 1.410 . S
C1159 C1167 1.503 . S
C1160 C1159 1.410 . S
C1160 C1161 1.392 . S
C1160 C1163 1.511 . S
C1161 C1157 1.376 . S
C1161 C1160 1.392 . S
C1161 H1173 0.929 . S
C1162 C1158 1.531 . S
C1162 H1174 0.960 . S
C1162 H1175 0.962 . S
C1162 H1176 0.960 . S
C1163 C1160 1.511 . S
C1163 H1177 0.961 . S
C1163 H1178 0.961 . S
C1163 H1179 0.961 . S
C1164 C1165 1.370 . S
C1164 C1166 1.363 . S
C1164 H1180 0.931 . S
C1165 C1164 1.370 . S
C1165 C1169 1.408 . S
C1166 C1164 1.363 . S
C1166 C1167 1.370 . S
C1166 C1170 1.524 . S
C1167 C1159 1.503 . S
C1167 C1166 1.370 . S
C1167 C1168 1.403 . S
C1168 C1167 1.403 . S
C1168 C1169 1.404 . S
C1168 C1171 1.539 . S
C1169 C1165 1.408 . S
C1169 C1168 1.404 . S
C1169 H1181 0.930 . S
C1170 C1166 1.524 . S
C1170 H1182 0.956 . S
C1170 H1183 0.961 . S
C1170 H1184 0.961 . S
C1171 C1168 1.539 . S
C1171 H1185 0.958 . S
C1171 H1186 0.961 . S
C1171 H1187 0.960 . S
H1172 C1156 0.931 . S
H1173 C1161 0.929 . S
H1174 C1162 0.960 . S
H1175 C1162 0.962 . S
H1176 C1162 0.960 . S
H1177 C1163 0.961 . S
H1178 C1163 0.961 . S
H1179 C1163 0.961 . S
H1180 C1164 0.931 . S
H1181 C1169 0.930 . S
H1182 C1170 0.956 . S
H1183 C1170 0.961 . S
H1184 C1170 0.961 . S
H1185 C1171 0.958 . S
H1186 C1171 0.961 . S
H1187 C1171 0.960 . S
C1188 C1189 1.391 1_655 S
C1188 C1190 1.394 . S
C1188 H1204 0.931 . S
C1189 C1188 1.391 1_455 S
C1189 C1193 1.376 . S
C1190 C1188 1.394 . S
C1190 C1191 1.369 1_655 S
C1190 C1194 1.531 . S
C1191 C1190 1.369 1_455 S
C1191 C1192 1.410 . S
C1191 C1199 1.503 1_455 S
C1192 C1191 1.410 . S
C1192 C1193 1.392 . S
C1192 C1195 1.511 . S
C1193 C1189 1.376 . S
C1193 C1192 1.392 . S
C1193 H1205 0.929 . S
C1194 C1190 1.531 . S
C1194 H1206 0.960 . S
C1194 H1207 0.962 . S
C1194 H1208 0.960 . S
C1195 C1192 1.511 . S
C1195 H1209 0.961 . S
C1195 H1210 0.961 . S
C1195 H1211 0.961 . S
C1196 C1197 1.370 . S
C1196 C1198 1.363 1_655 S
C1196 H1212 0.931 . S
C1197 C1196 1.370 . S
C1197 C1201 1.408 . S
C1198 C1196 1.363 1_455 S
C1198 C1199 1.370 1_455 S
C1198 C1202 1.524 . S
C1199 C1191 1.503 1_655 S
C1199 C1198 1.370 1_655 S
C1199 C1200 1.403 . S
C1200 C1199 1.403 . S
C1200 C1201 1.404 . S
C1200 C1203 1.539 . S
C1201 C1197 1.408 . S
C1201 C1200 1.404 . S
C1201 H1213 0.930 . S
C1202 C1198 1.524 . S
C1202 H1214 0.956 . S
C1202 H1215 0.961 . S
C1202 H1216 0.961 . S
C1203 C1200 1.539 . S
C1203 H1217 0.958 . S
C1203 H1218 0.961 . S
C1203 H1219 0.960 . S
H1204 C1188 0.931 . S
H1205 C1193 0.929 . S
H1206 C1194 0.960 . S
H1207 C1194 0.962 . S
H1208 C1194 0.960 . S
H1209 C1195 0.961 . S
H1210 C1195 0.961 . S
H1211 C1195 0.961 . S
H1212 C1196 0.931 . S
H1213 C1201 0.930 . S
H1214 C1202 0.956 . S
H1215 C1202 0.961 . S
H1216 C1202 0.961 . S
H1217 C1203 0.958 . S
H1218 C1203 0.961 . S
H1219 C1203 0.960 . S
C1220 C1221 1.391 1_565 S
C1220 C1222 1.394 . S
C1220 H1236 0.931 . S
C1221 C1220 1.391 1_545 S
C1221 C1225 1.376 . S
C1222 C1220 1.394 . S
C1222 C1223 1.369 . S
C1222 C1226 1.531 . S
C1223 C1222 1.369 . S
C1223 C1224 1.410 1_565 S
C1223 C1231 1.503 . S
C1224 C1223 1.410 1_545 S
C1224 C1225 1.392 . S
C1224 C1227 1.511 . S
C1225 C1221 1.376 . S
C1225 C1224 1.392 . S
C1225 H1237 0.929 . S
C1226 C1222 1.531 . S
C1226 H1238 0.960 . S
C1226 H1239 0.962 . S
C1226 H1240 0.960 . S
C1227 C1224 1.511 . S
C1227 H1241 0.961 . S
C1227 H1242 0.961 . S
C1227 H1243 0.961 . S
C1228 C1229 1.370 1_545 S
C1228 C1230 1.363 . S
C1228 H1244 0.931 . S
C1229 C1228 1.370 1_565 S
C1229 C1233 1.408 . S
C1230 C1228 1.363 . S
C1230 C1231 1.370 1_545 S
C1230 C1234 1.524 . S
C1231 C1223 1.503 . S
C1231 C1230 1.370 1_565 S
C1231 C1232 1.403 . S
C1232 C1231 1.403 . S
C1232 C1233 1.404 . S
C1232 C1235 1.539 . S
C1233 C1229 1.408 . S
C1233 C1232 1.404 . S
C1233 H1245 0.930 . S
C1234 C1230 1.524 . S
C1234 H1246 0.956 . S
C1234 H1247 0.961 . S
C1234 H1248 0.961 . S
C1235 C1232 1.539 . S
C1235 H1249 0.958 . S
C1235 H1250 0.961 . S
C1235 H1251 0.960 . S
H1236 C1220 0.931 . S
H1237 C1225 0.929 . S
H1238 C1226 0.960 . S
H1239 C1226 0.962 . S
H1240 C1226 0.960 . S
H1241 C1227 0.961 . S
H1242 C1227 0.961 . S
H1243 C1227 0.961 . S
H1244 C1228 0.931 . S
H1245 C1233 0.930 . S
H1246 C1234 0.956 . S
H1247 C1234 0.961 . S
H1248 C1234 0.961 . S
H1249 C1235 0.958 . S
H1250 C1235 0.961 . S
H1251 C1235 0.960 . S
C1252 C1253 1.391 . S
C1252 C1254 1.394 . S
C1252 H1268 0.931 . S
C1253 C1252 1.391 . S
C1253 C1257 1.376 . S
C1254 C1252 1.394 . S
C1254 C1255 1.369 . S
C1254 C1258 1.531 . S
C1255 C1254 1.369 . S
C1255 C1256 1.410 . S
C1255 C1263 1.503 . S
C1256 C1255 1.410 . S
C1256 C1257 1.392 . S
C1256 C1259 1.511 . S
C1257 C1253 1.376 . S
C1257 C1256 1.392 . S
C1257 H1269 0.929 . S
C1258 C1254 1.531 . S
C1258 H1270 0.960 . S
C1258 H1271 0.962 . S
C1258 H1272 0.960 . S
C1259 C1256 1.511 . S
C1259 H1273 0.961 . S
C1259 H1274 0.961 . S
C1259 H1275 0.961 . S
C1260 C1261 1.370 . S
C1260 C1262 1.363 . S
C1260 H1276 0.931 . S
C1261 C1260 1.370 . S
C1261 C1265 1.408 . S
C1262 C1260 1.363 . S
C1262 C1263 1.370 . S
C1262 C1266 1.524 . S
C1263 C1255 1.503 . S
C1263 C1262 1.370 . S
C1263 C1264 1.403 . S
C1264 C1263 1.403 . S
C1264 C1265 1.404 . S
C1264 C1267 1.539 . S
C1265 C1261 1.408 . S
C1265 C1264 1.404 . S
C1265 H1277 0.930 . S
C1266 C1262 1.524 . S
C1266 H1278 0.956 . S
C1266 H1279 0.961 . S
C1266 H1280 0.961 . S
C1267 C1264 1.539 . S
C1267 H1281 0.958 . S
C1267 H1282 0.961 . S
C1267 H1283 0.960 . S
H1268 C1252 0.931 . S
H1269 C1257 0.929 . S
H1270 C1258 0.960 . S
H1271 C1258 0.962 . S
H1272 C1258 0.960 . S
H1273 C1259 0.961 . S
H1274 C1259 0.961 . S
H1275 C1259 0.961 . S
H1276 C1260 0.931 . S
H1277 C1265 0.930 . S
H1278 C1266 0.956 . S
H1279 C1266 0.961 . S
H1280 C1266 0.961 . S
H1281 C1267 0.958 . S
H1282 C1267 0.961 . S
H1283 C1267 0.960 . S
C1284 C1285 1.391 . S
C1284 C1286 1.394 . S
C1284 H1300 0.931 . S
C1285 C1284 1.391 . S
C1285 C1289 1.376 . S
C1286 C1284 1.394 . S
C1286 C1287 1.369 . S
C1286 C1290 1.531 . S
C1287 C1286 1.369 . S
C1287 C1288 1.410 . S
C1287 C1295 1.503 . S
C1288 C1287 1.410 . S
C1288 C1289 1.392 . S
C1288 C1291 1.511 . S
C1289 C1285 1.376 . S
C1289 C1288 1.392 . S
C1289 H1301 0.929 . S
C1290 C1286 1.531 . S
C1290 H1302 0.960 . S
C1290 H1303 0.962 . S
C1290 H1304 0.960 . S
C1291 C1288 1.511 . S
C1291 H1305 0.961 . S
C1291 H1306 0.961 . S
C1291 H1307 0.961 . S
C1292 C1293 1.370 . S
C1292 C1294 1.363 . S
C1292 H1308 0.931 . S
C1293 C1292 1.370 . S
C1293 C1297 1.408 . S
C1294 C1292 1.363 . S
C1294 C1295 1.370 . S
C1294 C1298 1.524 . S
C1295 C1287 1.503 . S
C1295 C1294 1.370 . S
C1295 C1296 1.403 . S
C1296 C1295 1.403 . S
C1296 C1297 1.404 . S
C1296 C1299 1.539 . S
C1297 C1293 1.408 . S
C1297 C1296 1.404 . S
C1297 H1309 0.930 . S
C1298 C1294 1.524 . S
C1298 H1310 0.956 . S
C1298 H1311 0.961 . S
C1298 H1312 0.961 . S
C1299 C1296 1.539 . S
C1299 H1313 0.958 . S
C1299 H1314 0.961 . S
C1299 H1315 0.960 . S
H1300 C1284 0.931 . S
H1301 C1289 0.929 . S
H1302 C1290 0.960 . S
H1303 C1290 0.962 . S
H1304 C1290 0.960 . S
H1305 C1291 0.961 . S
H1306 C1291 0.961 . S
H1307 C1291 0.961 . S
H1308 C1292 0.931 . S
H1309 C1297 0.930 . S
H1310 C1298 0.956 . S
H1311 C1298 0.961 . S
H1312 C1298 0.961 . S
H1313 C1299 0.958 . S
H1314 C1299 0.961 . S
H1315 C1299 0.960 . S
C1316 C1317 1.391 . S
C1316 C1318 1.394 . S
C1316 H1332 0.931 . S
C1317 C1316 1.391 . S
C1317 C1321 1.376 . S
C1318 C1316 1.394 . S
C1318 C1319 1.369 . S
C1318 C1322 1.531 . S
C1319 C1318 1.369 . S
C1319 C1320 1.410 . S
C1319 C1327 1.503 . S
C1320 C1319 1.410 . S
C1320 C1321 1.392 . S
C1320 C1323 1.511 . S
C1321 C1317 1.376 . S
C1321 C1320 1.392 . S
C1321 H1333 0.929 . S
C1322 C1318 1.531 . S
C1322 H1334 0.960 . S
C1322 H1335 0.962 . S
C1322 H1336 0.960 . S
C1323 C1320 1.511 . S
C1323 H1337 0.961 . S
C1323 H1338 0.961 . S
C1323 H1339 0.961 . S
C1324 C1325 1.370 . S
C1324 C1326 1.363 . S
C1324 H1340 0.931 . S
C1325 C1324 1.370 . S
C1325 C1329 1.408 . S
C1326 C1324 1.363 . S
C1326 C1327 1.370 . S
C1326 C1330 1.524 . S
C1327 C1319 1.503 . S
C1327 C1326 1.370 . S
C1327 C1328 1.403 . S
C1328 C1327 1.403 . S
C1328 C1329 1.404 . S
C1328 C1331 1.539 . S
C1329 C1325 1.408 . S
C1329 C1328 1.404 . S
C1329 H1341 0.930 . S
C1330 C1326 1.524 . S
C1330 H1342 0.956 . S
C1330 H1343 0.961 . S
C1330 H1344 0.961 . S
C1331 C1328 1.539 . S
C1331 H1345 0.958 . S
C1331 H1346 0.961 . S
C1331 H1347 0.960 . S
H1332 C1316 0.931 . S
H1333 C1321 0.929 . S
H1334 C1322 0.960 . S
H1335 C1322 0.962 . S
H1336 C1322 0.960 . S
H1337 C1323 0.961 . S
H1338 C1323 0.961 . S
H1339 C1323 0.961 . S
H1340 C1324 0.931 . S
H1341 C1329 0.930 . S
H1342 C1330 0.956 . S
H1343 C1330 0.961 . S
H1344 C1330 0.961 . S
H1345 C1331 0.958 . S
H1346 C1331 0.961 . S
H1347 C1331 0.960 . S
C1348 C1349 1.391 . S
C1348 C1350 1.394 . S
C1348 H1364 0.931 . S
C1349 C1348 1.391 . S
C1349 C1353 1.376 . S
C1350 C1348 1.394 . S
C1350 C1351 1.369 . S
C1350 C1354 1.531 . S
C1351 C1350 1.369 . S
C1351 C1352 1.410 . S
C1351 C1359 1.503 . S
C1352 C1351 1.410 . S
C1352 C1353 1.392 . S
C1352 C1355 1.511 . S
C1353 C1349 1.376 . S
C1353 C1352 1.392 . S
C1353 H1365 0.929 . S
C1354 C1350 1.531 . S
C1354 H1366 0.960 . S
C1354 H1367 0.962 . S
C1354 H1368 0.960 . S
C1355 C1352 1.511 . S
C1355 H1369 0.961 . S
C1355 H1370 0.961 . S
C1355 H1371 0.961 . S
C1356 C1357 1.370 . S
C1356 C1358 1.363 . S
C1356 H1372 0.931 . S
C1357 C1356 1.370 . S
C1357 C1361 1.408 . S
C1358 C1356 1.363 . S
C1358 C1359 1.370 . S
C1358 C1362 1.524 . S
C1359 C1351 1.503 . S
C1359 C1358 1.370 . S
C1359 C1360 1.403 . S
C1360 C1359 1.403 . S
C1360 C1361 1.404 . S
C1360 C1363 1.539 . S
C1361 C1357 1.408 . S
C1361 C1360 1.404 . S
C1361 H1373 0.930 . S
C1362 C1358 1.524 . S
C1362 H1374 0.956 . S
C1362 H1375 0.961 . S
C1362 H1376 0.961 . S
C1363 C1360 1.539 . S
C1363 H1377 0.958 . S
C1363 H1378 0.961 . S
C1363 H1379 0.960 . S
H1364 C1348 0.931 . S
H1365 C1353 0.929 . S
H1366 C1354 0.960 . S
H1367 C1354 0.962 . S
H1368 C1354 0.960 . S
H1369 C1355 0.961 . S
H1370 C1355 0.961 . S
H1371 C1355 0.961 . S
H1372 C1356 0.931 . S
H1373 C1361 0.930 . S
H1374 C1362 0.956 . S
H1375 C1362 0.961 . S
H1376 C1362 0.961 . S
H1377 C1363 0.958 . S
H1378 C1363 0.961 . S
H1379 C1363 0.960 . S
C1380 C1381 1.391 . S
C1380 C1382 1.394 . S
C1380 H1396 0.931 . S
C1381 C1380 1.391 . S
C1381 C1385 1.376 . S
C1382 C1380 1.394 . S
C1382 C1383 1.369 . S
C1382 C1386 1.531 . S
C1383 C1382 1.369 . S
C1383 C1384 1.410 . S
C1383 C1391 1.503 . S
C1384 C1383 1.410 . S
C1384 C1385 1.392 . S
C1384 C1387 1.511 . S
C1385 C1381 1.376 . S
C1385 C1384 1.392 . S
C1385 H1397 0.929 . S
C1386 C1382 1.531 . S
C1386 H1398 0.960 . S
C1386 H1399 0.962 . S
C1386 H1400 0.960 . S
C1387 C1384 1.511 . S
C1387 H1401 0.961 . S
C1387 H1402 0.961 . S
C1387 H1403 0.961 . S
C1388 C1389 1.370 . S
C1388 C1390 1.363 . S
C1388 H1404 0.931 . S
C1389 C1388 1.370 . S
C1389 C1393 1.408 . S
C1390 C1388 1.363 . S
C1390 C1391 1.370 . S
C1390 C1394 1.524 . S
C1391 C1383 1.503 . S
C1391 C1390 1.370 . S
C1391 C1392 1.403 . S
C1392 C1391 1.403 . S
C1392 C1393 1.404 . S
C1392 C1395 1.539 . S
C1393 C1389 1.408 . S
C1393 C1392 1.404 . S
C1393 H1405 0.930 . S
C1394 C1390 1.524 . S
C1394 H1406 0.956 . S
C1394 H1407 0.961 . S
C1394 H1408 0.961 . S
C1395 C1392 1.539 . S
C1395 H1409 0.958 . S
C1395 H1410 0.961 . S
C1395 H1411 0.960 . S
H1396 C1380 0.931 . S
H1397 C1385 0.929 . S
H1398 C1386 0.960 . S
H1399 C1386 0.962 . S
H1400 C1386 0.960 . S
H1401 C1387 0.961 . S
H1402 C1387 0.961 . S
H1403 C1387 0.961 . S
H1404 C1388 0.931 . S
H1405 C1393 0.930 . S
H1406 C1394 0.956 . S
H1407 C1394 0.961 . S
H1408 C1394 0.961 . S
H1409 C1395 0.958 . S
H1410 C1395 0.961 . S
H1411 C1395 0.960 . S
C1412 C1413 1.391 . S
C1412 C1414 1.394 . S
C1412 H1428 0.931 . S
C1413 C1412 1.391 . S
C1413 C1417 1.376 . S
C1414 C1412 1.394 . S
C1414 C1415 1.369 . S
C1414 C1418 1.531 . S
C1415 C1414 1.369 . S
C1415 C1416 1.410 . S
C1415 C1423 1.503 . S
C1416 C1415 1.410 . S
C1416 C1417 1.392 . S
C1416 C1419 1.511 . S
C1417 C1413 1.376 . S
C1417 C1416 1.392 . S
C1417 H1429 0.929 . S
C1418 C1414 1.531 . S
C1418 H1430 0.960 . S
C1418 H1431 0.962 . S
C1418 H1432 0.960 . S
C1419 C1416 1.511 . S
C1419 H1433 0.961 . S
C1419 H1434 0.961 . S
C1419 H1435 0.961 . S
C1420 C1421 1.370 . S
C1420 C1422 1.363 . S
C1420 H1436 0.931 . S
C1421 C1420 1.370 . S
C1421 C1425 1.408 . S
C1422 C1420 1.363 . S
C1422 C1423 1.370 . S
C1422 C1426 1.524 . S
C1423 C1415 1.503 . S
C1423 C1422 1.370 . S
C1423 C1424 1.403 . S
C1424 C1423 1.403 . S
C1424 C1425 1.404 . S
C1424 C1427 1.539 . S
C1425 C1421 1.408 . S
C1425 C1424 1.404 . S
C1425 H1437 0.930 . S
C1426 C1422 1.524 . S
C1426 H1438 0.956 . S
C1426 H1439 0.961 . S
C1426 H1440 0.961 . S
C1427 C1424 1.539 . S
C1427 H1441 0.958 . S
C1427 H1442 0.961 . S
C1427 H1443 0.960 . S
H1428 C1412 0.931 . S
H1429 C1417 0.929 . S
H1430 C1418 0.960 . S
H1431 C1418 0.962 . S
H1432 C1418 0.960 . S
H1433 C1419 0.961 . S
H1434 C1419 0.961 . S
H1435 C1419 0.961 . S
H1436 C1420 0.931 . S
H1437 C1425 0.930 . S
H1438 C1426 0.956 . S
H1439 C1426 0.961 . S
H1440 C1426 0.961 . S
H1441 C1427 0.958 . S
H1442 C1427 0.961 . S
H1443 C1427 0.960 . S
C1444 C1445 1.391 . S
C1444 C1446 1.394 . S
C1444 H1460 0.931 . S
C1445 C1444 1.391 . S
C1445 C1449 1.376 . S
C1446 C1444 1.394 . S
C1446 C1447 1.369 . S
C1446 C1450 1.531 . S
C1447 C1446 1.369 . S
C1447 C1448 1.410 . S
C1447 C1455 1.503 . S
C1448 C1447 1.410 . S
C1448 C1449 1.392 . S
C1448 C1451 1.511 . S
C1449 C1445 1.376 . S
C1449 C1448 1.392 . S
C1449 H1461 0.929 . S
C1450 C1446 1.531 . S
C1450 H1462 0.960 . S
C1450 H1463 0.962 . S
C1450 H1464 0.960 . S
C1451 C1448 1.511 . S
C1451 H1465 0.961 . S
C1451 H1466 0.961 . S
C1451 H1467 0.961 . S
C1452 C1453 1.370 . S
C1452 C1454 1.363 . S
C1452 H1468 0.931 . S
C1453 C1452 1.370 . S
C1453 C1457 1.408 . S
C1454 C1452 1.363 . S
C1454 C1455 1.370 . S
C1454 C1458 1.524 . S
C1455 C1447 1.503 . S
C1455 C1454 1.370 . S
C1455 C1456 1.403 . S
C1456 C1455 1.403 . S
C1456 C1457 1.404 . S
C1456 C1459 1.539 . S
C1457 C1453 1.408 . S
C1457 C1456 1.404 . S
C1457 H1469 0.930 . S
C1458 C1454 1.524 . S
C1458 H1470 0.956 . S
C1458 H1471 0.961 . S
C1458 H1472 0.961 . S
C1459 C1456 1.539 . S
C1459 H1473 0.958 . S
C1459 H1474 0.961 . S
C1459 H1475 0.960 . S
H1460 C1444 0.931 . S
H1461 C1449 0.929 . S
H1462 C1450 0.960 . S
H1463 C1450 0.962 . S
H1464 C1450 0.960 . S
H1465 C1451 0.961 . S
H1466 C1451 0.961 . S
H1467 C1451 0.961 . S
H1468 C1452 0.931 . S
H1469 C1457 0.930 . S
H1470 C1458 0.956 . S
H1471 C1458 0.961 . S
H1472 C1458 0.961 . S
H1473 C1459 0.958 . S
H1474 C1459 0.961 . S
H1475 C1459 0.960 . S
C709 C3 1.740 . S
C717 C357 1.749 . S
C741 C62 1.756 . S
C749 C416 1.734 . S
C773 C123 1.631 . S
C781 C477 1.645 . S
C805 C534 1.749 . S
C813 C180 1.729 . S
C837 C239 1.713 . S
C845 C593 1.727 . S
C869 C654 1.671 . S
C877 C300 1.665 . S
C901 C33 1.543 . S
C909 C564 1.535 . S
C933 C92 1.502 . S
C941 C623 1.516 . S
C965 C701 1.436 1_556 S
C973 C170 1.434 . S
C997 C387 1.539 . S
C1005 C210 1.532 . S
C1029 C269 1.515 . S
C1037 C446 1.522 . S
C1061 C347 1.440 1_554 S
C1069 C524 1.436 . S
C1093 C652 1.551 . S
C1101 C5 1.536 . S
C1125 C64 1.767 . S
C1133 C359 1.742 . S
C1157 C121 1.545 . S
C1165 C418 1.539 . S
C1189 C475 1.554 . S
C1197 C182 1.534 . S
C1221 C536 1.769 . S
C1229 C241 1.748 . S
C1253 C298 1.545 . S
C1261 C595 1.539 . S
C1285 C52 1.080 . S
C1293 C642 1.123 . S
C1317 C682 1.336 . S
C1325 C111 1.304 . S
C1349 C406 1.340 . S
C1357 C151 1.287 . S
C1381 C229 1.077 . S
C1389 C465 1.124 . S
C1413 C505 1.326 . S
C1421 C288 1.304 . S
C1445 C583 1.309 . S
C1453 C328 1.315 . S
