# Generated by pormake.
# Topology vmb, (5)-cn, num edge types: 1
# Building blocks:
#     Node 0, Type 0, BuildingBlock: XOMCOT_clean_sbu_0, # of connection points: 5
#     Node 1, Type 0, BuildingBlock: XOMCOT_clean_sbu_0, # of connection points: 5
#     Node 2, Type 0, BuildingBlock: XOMCOT_clean_sbu_0, # of connection points: 5
#     Node 3, Type 0, BuildingBlock: XOMCOT_clean_sbu_0, # of connection points: 5
#     Node 4, Type 0, BuildingBlock: XOMCOT_clean_sbu_0, # of connection points: 5
#     Node 5, Type 0, BuildingBlock: XOMCOT_clean_sbu_0, # of connection points: 5
#     Node 6, Type 0, BuildingBlock: XOMCOT_clean_sbu_0, # of connection points: 5
#     Node 7, Type 0, BuildingBlock: XOMCOT_clean_sbu_0, # of connection points: 5
#     Edge 8, Type (0, 0), BuildingBlock: CIFDUS_clean_linker_0, # of connection points: 2
#     Edge 9, Type (0, 0), BuildingBlock: CIFDUS_clean_linker_0, # of connection points: 2
#     Edge 10, Type (0, 0), BuildingBlock: CIFDUS_clean_linker_0, # of connection points: 2
#     Edge 11, Type (0, 0), BuildingBlock: CIFDUS_clean_linker_0, # of connection points: 2
#     Edge 12, Type (0, 0), BuildingBlock: CIFDUS_clean_linker_0, # of connection points: 2
#     Edge 13, Type (0, 0), BuildingBlock: CIFDUS_clean_linker_0, # of connection points: 2
#     Edge 14, Type (0, 0), BuildingBlock: CIFDUS_clean_linker_0, # of connection points: 2
#     Edge 15, Type (0, 0), BuildingBlock: CIFDUS_clean_linker_0, # of connection points: 2
#     Edge 16, Type (0, 0), BuildingBlock: CIFDUS_clean_linker_0, # of connection points: 2
#     Edge 17, Type (0, 0), BuildingBlock: CIFDUS_clean_linker_0, # of connection points: 2
#     Edge 18, Type (0, 0), BuildingBlock: CIFDUS_clean_linker_0, # of connection points: 2
#     Edge 19, Type (0, 0), BuildingBlock: CIFDUS_clean_linker_0, # of connection points: 2
#     Edge 20, Type (0, 0), BuildingBlock: CIFDUS_clean_linker_0, # of connection points: 2
#     Edge 21, Type (0, 0), BuildingBlock: CIFDUS_clean_linker_0, # of connection points: 2
#     Edge 22, Type (0, 0), BuildingBlock: CIFDUS_clean_linker_0, # of connection points: 2
#     Edge 23, Type (0, 0), BuildingBlock: CIFDUS_clean_linker_0, # of connection points: 2
#     Edge 24, Type (0, 0), BuildingBlock: CIFDUS_clean_linker_0, # of connection points: 2
#     Edge 25, Type (0, 0), BuildingBlock: CIFDUS_clean_linker_0, # of connection points: 2
#     Edge 26, Type (0, 0), BuildingBlock: CIFDUS_clean_linker_0, # of connection points: 2
#     Edge 27, Type (0, 0), BuildingBlock: CIFDUS_clean_linker_0, # of connection points: 2
# Relax obj value: 0.126
# Max RMSD: 0.193
# Mean RMSD: 0.193
data_MOF--net-vmb--node1-XOMCOT_clean_sbu_0--edge1-CIFDUS_clean_linker_0
_symmetry_space_group_name_H-M    P1
_symmetry_Int_Tables_number       1
_symmetry_cell_setting            triclinic
loop_
_symmetry_equiv_pos_as_xyz
'x, y, z'
_cell_length_a     33.451375
_cell_length_b     37.941583
_cell_length_c     26.845226
_cell_angle_alpha  89.978021
_cell_angle_beta   116.784
_cell_angle_gamma 89.992396
loop_
_atom_site_label
_atom_site_type_symbol
_atom_site_fract_x
_atom_site_fract_y
_atom_site_fract_z
_atom_type_partial_charge
Co0 Co 0.28107 0.06997 0.41438 0.0
C1 C 0.37479 0.05035 0.44143 0.0
C2 C 0.37404 0.09609 0.4875 0.0
C3 C 0.41814 0.08686 0.5027 0.0
N4 N 0.34666 0.07318 0.44864 0.0
N5 N 0.41844 0.05806 0.4734 0.0
H6 H 0.36384 0.02734 0.41525 0.0
H7 H 0.3631 0.11764 0.5047 0.0
C8 C 0.27277 0.14729 0.42467 0.0
O9 O 0.26848 0.15048 0.3738 0.0
N10 N 0.21625 0.06497 0.38052 0.0
C11 C 0.1959 0.03415 0.37937 0.0
C12 C 0.15046 0.0386 0.3511 0.0
C13 C 0.18255 0.08792 0.35198 0.0
N14 N 0.14172 0.07238 0.33383 0.0
C15 C 0.30859 0.01662 0.49842 0.0
C16 C 0.25696 0.04107 0.54768 0.0
C17 C 0.28129 0.00973 0.56728 0.0
C18 C 0.30769 0.99764 0.5424 0.0
C19 C 0.25952 0.05951 0.50458 0.0
N20 N 0.28479 0.04709 0.48031 0.0
H21 H 0.32757 0.00645 0.47803 0.0
H22 H 0.23923 0.08288 0.48877 0.0
H23 H 0.21316 0.00976 0.3973 0.0
H24 H 0.18774 0.11511 0.34434 0.0
O25 O 0.28295 0.02913 0.37331 0.0
O26 O 0.2774 0.08445 0.34354 0.0
O27 O 0.2779 0.11691 0.44697 0.0
C28 C 0.28027 0.05104 0.33472 0.0
H29 H 0.44757 0.10034 0.533 0.0
H30 H 0.12583 0.01799 0.34227 0.0
H31 H 0.23507 0.05092 0.56438 0.0
H32 H 0.32732 0.97375 0.55653 0.0
Co33 Co 0.74518 0.10314 0.05147 0.0
C34 C 0.65485 0.069 0.00754 0.0
C35 C 0.65228 0.1253 0.01365 0.0
C36 C 0.6098 0.11217 -0.00422 0.0
N37 N 0.68057 0.0984 0.02067 0.0
N38 N 0.6112 0.07676 -0.00807 0.0
H39 H 0.66791 0.0426 0.01019 0.0
H40 H 0.662 0.15261 0.02279 0.0
C41 C 0.75211 0.1802 0.04298 0.0
O42 O 0.7751 0.18091 0.0976 0.0
N43 N 0.80997 0.10923 0.08191 0.0
C44 C 0.83013 0.1247 0.05398 0.0
C45 C 0.87566 0.12417 0.08646 0.0
C46 C 0.84397 0.09945 0.13151 0.0
N47 N 0.88466 0.10836 0.13542 0.0
C48 C 0.77231 0.05624 -0.00895 0.0
C49 C 0.71988 0.08415 0.88636 0.0
C50 C 0.75088 0.05747 0.89242 0.0
C51 C 0.77684 0.04322 0.94557 0.0
C52 C 0.71689 0.09682 0.93336 0.0
N53 N 0.74385 0.08341 0.98483 0.0
H54 H 0.79322 0.0456 0.03204 0.0
H55 H 0.69344 0.1177 0.92858 0.0
H56 H 0.81283 0.13511 0.01206 0.0
H57 H 0.83917 0.08607 0.16394 0.0
O58 O 0.75239 0.0602 0.09122 0.0
O59 O 0.74729 0.11313 0.12348 0.0
O60 O 0.73682 0.15117 0.01809 0.0
C61 C 0.74975 0.07893 0.13001 0.0
H62 H 0.58041 0.12753 -0.01153 0.0
H63 H 0.90021 0.13375 0.07389 0.0
H64 H 0.69839 0.09529 0.84587 0.0
H65 H 0.80163 0.02298 0.95255 0.0
Co66 Co 0.77696 0.94101 0.57051 0.0
C67 C 0.6874 0.96154 0.56085 0.0
C68 C 0.68294 0.91577 0.51194 0.0
C69 C 0.64025 0.92598 0.50128 0.0
N70 N 0.71282 0.93798 0.54957 0.0
N71 N 0.643 0.95492 0.53183 0.0
H72 H 0.7007 0.9845 0.58697 0.0
H73 H 0.69105 0.89468 0.49106 0.0
C74 C 0.80324 0.87135 0.53588 0.0
O75 O 0.84315 0.88341 0.5472 0.0
N76 N 0.84085 0.94637 0.59151 0.0
C77 C 0.85827 0.96993 0.56886 0.0
C78 C 0.90406 0.96797 0.59574 0.0
C79 C 0.87711 0.93174 0.6345 0.0
N80 N 0.91603 0.94395 0.63681 0.0
C81 C 0.74195 0.99544 0.48969 0.0
C82 C 0.766 0.96668 0.41264 0.0
C83 C 0.74826 1.00092 0.40397 0.0
C84 C 0.73514 0.01494 0.44254 0.0
C85 C 0.77182 0.94795 0.46001 0.0
N86 N 0.76124 0.96283 0.49879 0.0
H87 H 0.73298 0.00711 0.51991 0.0
H88 H 0.78747 0.92256 0.46667 0.0
H89 H 0.83942 0.98842 0.53605 0.0
H90 H 0.87511 0.91215 0.6626 0.0
O91 O 0.7818 0.98271 0.61332 0.0
O92 O 0.79081 0.92788 0.64572 0.0
O93 O 0.7741 0.89135 0.54026 0.0
C94 C 0.78923 0.96144 0.65463 0.0
H95 H 0.60951 0.91349 0.47204 0.0
H96 H 0.927 0.98379 0.5868 0.0
H97 H 0.77729 0.95491 0.38444 0.0
H98 H 0.72046 0.04098 0.43693 0.0
Co99 Co 0.29851 0.91204 0.92657 0.0
C100 C 0.38781 0.94109 0.94937 0.0
C101 C 0.38448 0.88508 0.93682 0.0
C102 C 0.42671 0.89643 0.9476 0.0
N103 N 0.3602 0.91301 0.93841 0.0
N104 N 0.42879 0.93163 0.95538 0.0
H105 H 0.37829 0.96781 0.95333 0.0
H106 H 0.37234 0.85828 0.92797 0.0
C107 C 0.28105 0.83672 0.92711 0.0
O108 O 0.24569 0.84217 0.87918 0.0
N109 N 0.23661 0.91074 0.91586 0.0
C110 C 0.22373 0.89715 0.9528 0.0
C111 C 0.17794 0.89869 0.93084 0.0
C112 C 0.19782 0.92031 0.87141 0.0
N113 N 0.16142 0.91325 0.8796 0.0
C114 C 0.31701 0.96588 0.00775 0.0
C115 C 0.33536 0.92243 0.09799 0.0
C116 C 0.33088 0.95881 0.1035 0.0
C117 C 0.32419 0.98069 0.05839 0.0
C118 C 0.32966 0.90874 0.047 0.0
N119 N 0.31772 0.93022 0.00159 0.0
H120 H 0.3096 0.98346 0.97322 0.0
H121 H 0.33232 0.88062 0.04407 0.0
H122 H 0.24581 0.88546 -0.00761 0.0
H123 H 0.19601 0.932 0.83375 0.0
O124 O 0.28757 0.95591 0.88742 0.0
O125 O 0.27948 0.90331 0.84807 0.0
O126 O 0.30685 0.86217 0.95286 0.0
C127 C 0.27868 0.93748 0.84303 0.0
H128 H 0.45359 0.8801 0.94856 0.0
H129 H 0.15831 0.88859 0.95053 0.0
H130 H 0.34082 0.90431 0.13159 0.0
H131 H 0.32274 0.00908 0.06126 0.0
Co132 Co 0.80346 0.60023 0.40411 0.0
C133 C 0.89017 0.56213 0.46383 0.0
C134 C 0.89776 0.6176 0.48087 0.0
C135 C 0.93929 0.60193 0.50686 0.0
N136 N 0.8668 0.59269 0.45382 0.0
N137 N 0.93464 0.56706 0.49586 0.0
H138 H 0.87514 0.53687 0.44719 0.0
H139 H 0.89121 0.6455 0.48046 0.0
C140 C 0.78009 0.67031 0.43509 0.0
O141 O 0.74233 0.65638 0.42946 0.0
N142 N 0.74018 0.60804 0.3523 0.0
C143 C 0.72626 0.62947 0.30739 0.0
C144 C 0.68035 0.62786 0.27784 0.0
C145 C 0.70189 0.59395 0.34941 0.0
N146 N 0.66507 0.60556 0.30434 0.0
C147 C 0.77002 0.5526 0.45902 0.0
C148 C 0.79891 0.59 0.55734 0.0
C149 C 0.77533 0.55844 0.55152 0.0
C150 C 0.76109 0.53957 0.50151 0.0
C151 C 0.80634 0.60238 0.51328 0.0
N152 N 0.79 0.5846 0.4638 0.0
H153 H 0.75986 0.53716 0.42148 0.0
H154 H 0.82646 0.62575 0.51987 0.0
H155 H 0.74809 0.64543 0.29677 0.0
H156 H 0.7001 0.57571 0.37897 0.0
O157 O 0.801 0.55536 0.36951 0.0
O158 O 0.81804 0.60621 0.34279 0.0
O159 O 0.80866 0.6513 0.4279 0.0
C160 C 0.81231 0.57232 0.33573 0.0
H161 H 0.97077 0.61553 0.52992 0.0
H162 H 0.65971 0.64259 0.24044 0.0
H163 H 0.81266 0.60462 0.59612 0.0
H164 H 0.74305 0.51496 0.4949 0.0
Co165 Co 0.26424 0.57386 0.07378 0.0
C166 C 0.17721 0.53681 0.01315 0.0
C167 C 0.17042 0.59237 -0.00275 0.0
C168 C 0.12842 0.57742 0.97341 0.0
N169 N 0.20119 0.56693 0.02229 0.0
N170 N 0.13263 0.54252 0.98401 0.0
H171 H 0.19183 0.51144 0.02989 0.0
H172 H 0.17735 0.62023 -0.00082 0.0
C173 C 0.28991 0.64268 0.04388 0.0
O174 O 0.32779 0.62788 0.05189 0.0
N175 N 0.32704 0.58143 0.12794 0.0
C176 C 0.33885 0.60089 0.17459 0.0
C177 C 0.38459 0.60246 0.20364 0.0
C178 C 0.36667 0.57173 0.12931 0.0
N179 N 0.40219 0.58431 0.17522 0.0
C180 C 0.30051 0.52747 0.01962 0.0
C181 C 0.26597 0.56381 0.91961 0.0
C182 C 0.28914 0.5323 0.92406 0.0
C183 C 0.30662 0.51401 0.97499 0.0
C184 C 0.26077 0.57627 0.96506 0.0
N185 N 0.2791 0.55883 0.01494 0.0
H186 H 0.31271 0.51254 0.05796 0.0
H187 H 0.24001 0.59921 0.95891 0.0
H188 H 0.31575 0.61426 0.18617 0.0
H189 H 0.37006 0.55714 0.09699 0.0
O190 O 0.26546 0.5287 0.10732 0.0
O191 O 0.24736 0.57941 0.1332 0.0
O192 O 0.26011 0.62484 0.05024 0.0
C193 C 0.25258 0.54547 0.13985 0.0
H194 H 0.09706 0.59165 0.95365 0.0
H195 H 0.4035 0.61733 0.2415 0.0
H196 H 0.25007 0.57801 0.88047 0.0
H197 H 0.3243 0.48933 0.98015 0.0
Co198 Co 0.25027 0.41121 0.56599 0.0
C199 C 0.15905 0.43218 0.54814 0.0
C200 C 0.15876 0.38018 0.5169 0.0
C201 C 0.11532 0.38968 0.50365 0.0
N202 N 0.18636 0.40695 0.54458 0.0
N203 N 0.11543 0.42253 0.52296 0.0
H204 H 0.1705 0.45792 0.56618 0.0
H205 H 0.16882 0.3558 0.50509 0.0
C206 C 0.26071 0.33392 0.55711 0.0
O207 O 0.27226 0.33152 0.61066 0.0
N208 N 0.31365 0.41669 0.5869 0.0
C209 C 0.33128 0.44435 0.57197 0.0
C210 C 0.3769 0.44075 0.59564 0.0
C211 C 0.34932 0.39712 0.62142 0.0
N212 N 0.38818 0.41118 0.62652 0.0
C213 C 0.21409 0.46466 0.48143 0.0
C214 C 0.24676 0.4361 0.41227 0.0
C215 C 0.22498 0.46883 0.3983 0.0
C216 C 0.20776 0.48278 0.43311 0.0
C217 C 0.25173 0.41866 0.46029 0.0
N218 N 0.23599 0.43311 0.49461 0.0
H219 H 0.20294 0.47673 0.50933 0.0
H220 H 0.27116 0.39468 0.47166 0.0
H221 H 0.31243 0.46639 0.54682 0.0
H222 H 0.3471 0.37384 0.64332 0.0
O223 O 0.25421 0.45251 0.61002 0.0
O224 O 0.26415 0.39751 0.64128 0.0
O225 O 0.25012 0.36374 0.53271 0.0
C226 C 0.26316 0.43092 0.65138 0.0
H227 H 0.08585 0.37378 0.48043 0.0
H228 H 0.40034 0.45929 0.59264 0.0
H229 H 0.26205 0.42471 0.38803 0.0
H230 H 0.19051 0.50788 0.42398 0.0
Co231 Co 0.77244 0.43907 0.88785 0.0
C232 C 0.86275 0.45524 0.8976 0.0
C233 C 0.86279 0.40589 0.93637 0.0
C234 C 0.90567 0.41277 0.94407 0.0
N235 N 0.8357 0.43259 0.90721 0.0
N236 N 0.90567 0.44392 0.91981 0.0
H237 H 0.85171 0.48031 0.87679 0.0
H238 H 0.85281 0.3832 0.95234 0.0
C239 C 0.76021 0.36268 0.89932 0.0
O240 O 0.74678 0.35937 0.84545 0.0
N241 N 0.70975 0.44615 0.86889 0.0
C242 C 0.69298 0.47562 0.88041 0.0
C243 C 0.64786 0.47125 0.86258 0.0
C244 C 0.67418 0.42448 0.84262 0.0
N245 N 0.63604 0.43918 0.83889 0.0
C246 C 0.81442 0.49166 0.97182 0.0
C247 C 0.78244 0.46658 0.0438 0.0
C248 C 0.80841 0.49737 0.05792 0.0
C249 C 0.82478 0.50975 0.02138 0.0
C250 C 0.77325 0.44915 -0.00574 0.0
N251 N 0.78913 0.46176 0.95896 0.0
H252 H 0.8259 0.50213 0.94316 0.0
H253 H 0.75155 0.4264 0.98319 0.0
H254 H 0.71231 0.49882 0.90047 0.0
H255 H 0.67598 0.39868 0.82671 0.0
O256 O 0.76947 0.47977 0.84364 0.0
O257 O 0.75662 0.4248 0.81217 0.0
O258 O 0.77187 0.39264 0.92259 0.0
C259 C 0.7596 0.45805 0.80233 0.0
H260 H 0.93462 0.39615 0.96635 0.0
H261 H 0.62516 0.49053 0.86552 0.0
H262 H 0.76782 0.45663 0.06974 0.0
H263 H 0.845 0.53339 0.03064 0.0
H264 H 0.28045 0.01401 0.10758 0.0
H265 H 0.37645 0.93661 0.21258 0.0
H266 H 0.36662 0.95718 0.29234 0.0
H267 H 0.3295 0.99602 0.33132 0.0
H268 H 0.2419 0.07853 0.22991 0.0
H269 H 0.25015 0.05711 0.14887 0.0
C270 C 0.30032 1.0021 0.14803 0.0
C271 C 0.32899 0.97354 0.15364 0.0
C272 C 0.29568 0.01475 0.19402 0.0
C273 C 0.35339 0.95808 0.2065 0.0
C274 C 0.34799 0.96994 0.25227 0.0
C275 C 0.31241 0.00942 0.29155 0.0
C276 C 0.28486 0.03854 0.28602 0.0
C277 C 0.31883 0.99793 0.24624 0.0
C278 C 0.26314 0.05594 0.23464 0.0
C279 C 0.26791 0.04375 0.18857 0.0
H280 H 0.76266 0.10641 0.23038 0.0
H281 H 0.72673 0.01115 0.13177 0.0
H282 H 0.71923 0.97972 0.20579 0.0
H283 H 0.72477 0.97835 0.29893 0.0
H284 H 0.76614 0.07142 0.40222 0.0
H285 H 0.76809 0.10485 0.32551 0.0
C286 C 0.7532 0.07882 0.22536 0.0
C287 C 0.74579 0.06106 0.17611 0.0
C288 C 0.74946 0.06054 0.26862 0.0
C289 C 0.73335 0.02532 0.16975 0.0
C290 C 0.72876 0.00729 0.21188 0.0
C291 C 0.73455 1.00588 0.30492 0.0
C292 C 0.74562 0.02221 0.35631 0.0
C293 C 0.73717 0.02451 0.26162 0.0
C294 C 0.75699 0.05822 0.36281 0.0
C295 C 0.75858 0.07729 0.31917 0.0
H296 H 0.77821 0.02879 0.67866 0.0
H297 H 0.79839 0.92298 0.7449 0.0
H298 H 0.7871 0.94344 0.82385 0.0
H299 H 0.76719 0.99051 0.87058 0.0
H300 H 0.74966 0.09678 0.80625 0.0
H301 H 0.76258 0.07658 0.72849 0.0
C302 C 0.78076 0.01028 0.71077 0.0
C303 C 0.78905 0.97446 0.70604 0.0
C304 C 0.77367 0.0221 0.7555 0.0
C305 C 0.79212 0.95074 0.74777 0.0
C306 C 0.78537 0.96235 0.79266 0.0
C307 C 0.76682 0.00942 0.84007 0.0
C308 C 0.75734 0.04509 0.84424 0.0
C309 C 0.77543 0.99785 0.79639 0.0
C310 C 0.75601 0.06904 0.80353 0.0
C311 C 0.76393 0.05761 0.7594 0.0
H312 H 0.27478 0.90733 0.74904 0.0
H313 H 0.26877 0.00745 0.82193 0.0
H314 H 0.26933 0.03838 0.74297 0.0
H315 H 0.27728 0.03732 0.65769 0.0
H316 H 0.27993 0.93798 0.5808 0.0
H317 H 0.27646 0.90636 0.65811 0.0
C318 C 0.27285 0.93587 0.74705 0.0
C319 C 0.27204 0.9551 0.79125 0.0
C320 C 0.27361 0.95362 0.70167 0.0
C321 C 0.26965 0.99206 0.78845 0.0
C322 C 0.27018 0.00981 0.74349 0.0
C323 C 0.27617 0.00875 0.65703 0.0
C324 C 0.27889 0.99011 0.61352 0.0
C325 C 0.27305 0.99088 0.70054 0.0
C326 C 0.27865 0.95303 0.61431 0.0
C327 C 0.2762 0.93492 0.65817 0.0
H328 H 0.81296 0.60098 0.2437 0.0
H329 H 0.82438 0.50212 0.32865 0.0
H330 H 0.82907 0.4705 0.25229 0.0
H331 H 0.82526 0.47064 0.15929 0.0
H332 H 0.80771 0.56895 0.07074 0.0
H333 H 0.8116 0.60121 0.1514 0.0
C334 C 0.81689 0.57255 0.24561 0.0
C335 C 0.81796 0.55381 0.29128 0.0
C336 C 0.81865 0.55449 0.2011 0.0
C337 C 0.82297 0.51702 0.29345 0.0
C338 C 0.82576 0.49895 0.24995 0.0
C339 C 0.82215 0.49912 0.15752 0.0
C340 C 0.81579 0.51727 0.10885 0.0
C341 C 0.82278 0.51737 0.20315 0.0
C342 C 0.81304 0.55428 0.10783 0.0
C343 C 0.8148 0.57275 0.15374 0.0
H344 H 0.24733 0.57322 0.22961 0.0
H345 H 0.23581 0.47557 0.14185 0.0
H346 H 0.22113 0.44383 0.21108 0.0
H347 H 0.21484 0.4435 0.29829 0.0
H348 H 0.23345 0.54033 0.39081 0.0
H349 H 0.24023 0.5729 0.31679 0.0
C350 C 0.2414 0.54502 0.22561 0.0
C351 C 0.24298 0.52665 0.18114 0.0
C352 C 0.2338 0.52687 0.26606 0.0
C353 C 0.2353 0.49015 0.17625 0.0
C354 C 0.22671 0.47204 0.21562 0.0
C355 C 0.22064 0.4717 0.30257 0.0
C356 C 0.2239 0.48926 0.35043 0.0
C357 C 0.22651 0.49007 0.26108 0.0
C358 C 0.23015 0.52603 0.35426 0.0
C359 C 0.23461 0.54469 0.31222 0.0
H360 H 0.27942 0.46383 0.8897 0.0
H361 H 0.30422 0.56824 0.84589 0.0
H362 H 0.2988 0.54597 0.75786 0.0
H363 H 0.28303 0.49752 0.69111 0.0
H364 H 0.26106 0.39272 0.73611 0.0
H365 H 0.27004 0.4144 0.82631 0.0
C366 C 0.28461 0.4816 0.86151 0.0
C367 C 0.29174 0.51773 0.87422 0.0
C368 C 0.28164 0.46861 0.81098 0.0
C369 C 0.29786 0.54041 0.83673 0.0
C370 C 0.29489 0.52771 0.78641 0.0
C371 C 0.28036 0.47944 0.72077 0.0
C372 C 0.27095 0.4437 0.70687 0.0
C373 C 0.28594 0.492 0.77265 0.0
C374 C 0.26818 0.42041 0.74588 0.0
C375 C 0.27325 0.43278 0.79741 0.0
H376 H 0.74915 0.52521 0.76528 0.0
H377 H 0.76427 0.41868 0.72015 0.0
H378 H 0.76938 0.44036 0.63742 0.0
H379 H 0.7755 0.48981 0.58261 0.0
H380 H 0.75654 0.59623 0.62533 0.0
H381 H 0.74801 0.57426 0.70529 0.0
C382 C 0.75308 0.50672 0.73698 0.0
C383 C 0.75663 0.47048 0.74884 0.0
C384 C 0.75605 0.51934 0.68972 0.0
C385 C 0.76134 0.44674 0.71173 0.0
C386 C 0.76455 0.45913 0.66466 0.0
C387 C 0.76856 0.50826 0.60854 0.0
C388 C 0.76719 0.54473 0.59806 0.0
C389 C 0.76275 0.49543 0.65384 0.0
C390 C 0.75889 0.5681 0.63302 0.0
C391 C 0.7536 0.55556 0.67854 0.0
H392 H 0.56019 0.96161 0.44541 0.0
H393 H 0.64272 0.99684 0.61375 0.0
H394 H 0.58092 0.03294 0.61042 0.0
H395 H 0.50231 0.05364 0.56003 0.0
H396 H 0.42111 0.01829 0.39116 0.0
H397 H 0.48299 0.9829 0.39486 0.0
C398 C 0.56467 0.97685 0.48166 0.0
C399 C 0.60625 0.97619 0.5299 0.0
C400 C 0.52895 0.99759 0.47945 0.0
C401 C 0.61137 0.99691 0.57591 0.0
C402 C 0.57589 0.01751 0.5741 0.0
C403 C 0.49825 0.03847 0.52388 0.0
C404 C 0.45656 0.03853 0.4756 0.0
C405 C 0.53441 0.01806 0.52607 0.0
C406 C 0.45218 0.01837 0.42934 0.0
C407 C 0.48778 0.99818 0.43124 0.0
H408 H 0.42759 0.99826 0.91974 0.0
H409 H 0.51615 0.91506 0.01668 0.0
H410 H 0.58121 0.95209 0.03521 0.0
H411 H 0.61311 0.00893 0.02539 0.0
H412 H 0.5239 0.09119 0.92554 0.0
H413 H 0.45941 0.05402 0.90698 0.0
C414 C 0.46113 0.98839 0.94524 0.0
C415 C 0.46695 0.954 0.96697 0.0
C416 C 0.49846 0.00972 0.95521 0.0
C417 C 0.51072 0.94135 -0.00084 0.0
C418 C 0.54798 0.96255 0.00987 0.0
C419 C 0.57963 0.01855 -0.001 0.0
C420 C 0.57363 0.05309 0.97749 0.0
C421 C 0.54232 0.99683 -0.01192 0.0
C422 C 0.52973 0.06507 0.94366 0.0
C423 C 0.49267 0.04374 0.93277 0.0
H424 H 0.93505 0.50783 0.43953 0.0
H425 H 1.01574 0.56882 0.5864 0.0
H426 H 0.07875 0.52891 0.60871 0.0
H427 H 0.11197 0.47762 0.58514 0.0
H428 H 0.03142 0.41698 0.4377 0.0
H429 H 0.96743 0.45514 0.41797 0.0
C430 C 0.96614 0.51213 0.47687 0.0
C431 C 0.9705 0.54157 0.51099 0.0
C432 C 1.00249 0.48902 0.48948 0.0
C433 C 1.01147 0.54679 0.55886 0.0
C434 C 0.04757 0.52386 0.57181 0.0
C435 C 0.08051 0.47276 0.5486 0.0
C436 C 0.07692 0.44431 0.51304 0.0
C437 C 0.0437 0.49512 0.53706 0.0
C438 C 0.03539 0.43826 0.46635 0.0
C439 C 0.99867 0.4603 0.45473 0.0
H440 H 0.04799 0.54448 0.90146 0.0
H441 H 0.13584 0.48633 0.0484 0.0
H442 H 0.07347 0.44928 0.0397 0.0
H443 H 0.99296 0.43614 -0.00553 0.0
H444 H 0.90489 0.49423 0.84737 0.0
H445 H 0.96806 0.5289 0.85282 0.0
C446 C 0.0535 0.52364 0.93147 0.0
C447 C 0.09667 0.51837 0.97554 0.0
C448 C 1.01726 0.50265 0.92668 0.0
C449 C 0.10328 0.49083 0.01362 0.0
C450 C 0.06744 0.46977 0.00898 0.0
C451 C 0.9875 0.45596 0.96302 0.0
C452 C 0.9438 0.46266 0.92092 0.0
C453 C 1.02414 0.47578 0.96618 0.0
C454 C 0.93776 0.48885 0.88097 0.0
C455 C 0.97401 0.50861 0.88381 0.0
H456 H 0.06308 0.04936 0.32755 0.0
H457 H 0.12008 0.12832 0.2628 0.0
H458 H 0.04484 0.14837 0.19823 0.0
H459 H 0.96309 0.14069 0.15588 0.0
H460 H 0.90685 0.0587 0.21682 0.0
H461 H 0.98165 0.04279 0.28723 0.0
C462 C 0.05927 0.07082 0.29917 0.0
C463 C 0.09757 0.08686 0.29969 0.0
C464 C 1.01591 0.08163 0.26124 0.0
C465 C 0.09153 0.11545 0.26365 0.0
C466 C 0.04839 0.12677 0.22635 0.0
C467 C 0.96694 0.11916 0.18416 0.0
C468 C 0.92882 0.10072 0.18007 0.0
C469 C 1.01034 0.10956 0.22399 0.0
C470 C 0.93504 0.07359 0.21863 0.0
C471 C 0.97802 0.06427 0.25887 0.0
H472 H 0.12311 0.91737 0.76667 0.0
H473 H 0.093 0.92093 0.90688 0.0
H474 H 1.01359 0.92748 0.84393 0.0
H475 H 0.95196 0.93425 0.74834 0.0
H476 H 0.98274 0.93338 0.60897 0.0
H477 H 0.06199 0.92382 0.67174 0.0
C478 C 0.09934 0.91989 0.78358 0.0
C479 C 0.11445 0.91849 0.84171 0.0
C480 C 0.05343 0.92401 0.74702 0.0
C481 C 0.08265 0.92136 0.86246 0.0
C482 C 0.03701 0.92526 0.82641 0.0
C483 C 0.97605 0.93139 0.73193 0.0
C484 C 0.96158 0.93442 0.67418 0.0
C485 C 1.02191 0.92664 0.76855 0.0
C486 C 0.9932 0.93126 0.65335 0.0
C487 C 0.03852 0.92587 0.68922 0.0
H488 H 0.47103 0.58002 0.27788 0.0
H489 H 0.43909 0.58638 0.10373 0.0
H490 H 0.51882 0.59229 0.12836 0.0
H491 H 0.59733 0.59977 0.20017 0.0
H492 H 0.62857 0.59304 0.37421 0.0
H493 H 0.54958 0.58314 0.34911 0.0
C494 C 0.48163 0.58248 0.24536 0.0
C495 C 0.44919 0.58302 0.18908 0.0
C496 C 0.52739 0.58606 0.25993 0.0
C497 C 0.46338 0.58563 0.14728 0.0
C498 C 0.50894 0.58933 0.16143 0.0
C499 C 0.58676 0.59609 0.2325 0.0
C500 C 0.6188 0.59742 0.28904 0.0
C501 C 0.54118 0.59027 0.21767 0.0
C502 C 0.60473 0.59194 0.33049 0.0
C503 C 0.55951 0.58645 0.31613 0.0
H504 H 0.59558 0.40542 0.74018 0.0
H505 H 0.57511 0.44355 0.87796 0.0
H506 H 0.49494 0.43124 0.82673 0.0
H507 H 0.4293 0.41861 0.7371 0.0
H508 H 0.44872 0.3857 0.59649 0.0
H509 H 0.53022 0.386 0.65391 0.0
C510 C 0.57361 0.41004 0.75933 0.0
C511 C 0.591 0.42558 0.8125 0.0
C512 C 0.52722 0.40392 0.72876 0.0
C513 C 0.56223 0.43192 0.8368 0.0
C514 C 0.51643 0.42491 0.80752 0.0
C515 C 0.45159 0.41015 0.72004 0.0
C516 C 0.43348 0.40148 0.66326 0.0
C517 C 0.49829 0.41213 0.75271 0.0
C518 C 0.46231 0.39175 0.64053 0.0
C519 C 0.50879 0.39237 0.67318 0.0
H520 H 0.27848 0.2658 0.59354 0.0
H521 H 0.24192 0.33049 0.44703 0.0
H522 H 0.24262 0.27885 0.39348 0.0
H523 H 0.25404 0.21525 0.38795 0.0
H524 H 0.28949 0.15038 0.53402 0.0
H525 H 0.28871 0.20203 0.58761 0.0
C526 C 0.27061 0.26864 0.54989 0.0
C527 C 0.26032 0.30212 0.5246 0.0
C528 C 0.27089 0.23872 0.51906 0.0
C529 C 0.25007 0.30515 0.46783 0.0
C530 C 0.25046 0.27558 0.43703 0.0
C531 C 0.26163 0.21238 0.43151 0.0
C532 C 0.2719 0.1789 0.45678 0.0
C533 C 0.26093 0.24223 0.4622 0.0
C534 C 0.28143 0.17576 0.5133 0.0
C535 C 0.28103 0.20533 0.54411 0.0
H536 H 0.72414 0.29772 0.86385 0.0
H537 H 0.79999 0.35855 0.01292 0.0
H538 H 0.80305 0.30803 0.07068 0.0
H539 H 0.78533 0.2461 0.07911 0.0
H540 H 0.70854 0.18576 0.92966 0.0
H541 H 0.70457 0.2365 0.87225 0.0
C542 C 0.74142 0.2999 0.90895 0.0
C543 C 0.76195 0.3318 0.93389 0.0
C544 C 0.7428 0.27082 0.94207 0.0
C545 C 0.78386 0.33427 -0.0075 0.0
C546 C 0.78566 0.30539 0.02568 0.0
C547 C 0.76749 0.24412 0.03402 0.0
C548 C 0.74745 0.21208 0.00895 0.0
C549 C 0.76533 0.27348 0.00094 0.0
C550 C 0.72442 0.21003 0.95032 0.0
C551 C 0.72216 0.23905 0.91727 0.0
H552 H 0.72799 0.71772 0.45573 0.0
H553 H 0.85588 0.70716 0.45394 0.0
H554 H 0.87385 0.7682 0.48422 0.0
H555 H 0.85385 0.8244 0.51213 0.0
H556 H 0.72613 0.83521 0.51423 0.0
H557 H 0.70756 0.77436 0.48265 0.0
C558 C 0.7598 0.72873 0.46189 0.0
C559 C 0.79057 0.70767 0.45271 0.0
C560 C 0.76998 0.76398 0.47929 0.0
C561 C 0.83156 0.72256 0.46082 0.0
C562 C 0.84191 0.75755 0.47813 0.0
C563 C 0.82187 0.81356 0.50563 0.0
C564 C 0.79142 0.83457 0.51548 0.0
C565 C 0.81144 0.77847 0.48765 0.0
C566 C 0.75016 0.81987 0.5067 0.0
C567 C 0.73954 0.78497 0.48878 0.0
H568 H 0.22007 0.78655 0.91637 0.0
H569 H 0.36168 0.80893 -0.00258 0.0
H570 H 0.37683 0.75091 0.04173 0.0
H571 H 0.34989 0.69362 0.05624 0.0
H572 H 0.20806 0.67228 0.97964 0.0
H573 H 0.19276 0.73028 0.93531 0.0
C574 C 0.25421 0.77855 0.9435 0.0
C575 C 0.28979 0.80161 0.95314 0.0
C576 C 0.26255 0.74555 0.96992 0.0
C577 C 0.33382 0.79143 -0.01073 0.0
C578 C 0.34249 0.75833 0.01461 0.0
C579 C 0.31562 0.70176 0.03001 0.0
C580 C 0.28017 0.67872 0.02101 0.0
C581 C 0.30712 0.73518 0.00512 0.0
C582 C 0.2359 0.68966 -0.0125 0.0
C583 C 0.22716 0.72272 0.96183 0.0
loop_
_geom_bond_atom_site_label_1
_geom_bond_atom_site_label_2
_geom_bond_distance
_geom_bond_site_symmetry_2
_ccdc_geom_bond_type
Co0 N4 2.148 . S
Co0 N10 2.128 . S
Co0 N20 2.194 . S
Co0 O25 2.351 . S
Co0 O26 2.155 . S
Co0 O27 2.096 . S
C1 N4 1.301 . S
C1 N5 1.328 . S
C1 H6 0.930 . S
C2 C3 1.333 . S
C2 N4 1.317 . S
C2 H7 0.930 . S
C3 C2 1.333 . S
C3 N5 1.350 . S
C3 H29 0.931 . S
N4 Co0 2.148 . S
N4 C1 1.301 . S
N4 C2 1.317 . S
N5 C1 1.328 . S
N5 C3 1.350 . S
H6 C1 0.930 . S
H7 C2 0.930 . S
C8 O9 1.224 . S
C8 O27 1.247 . S
O9 C8 1.224 . S
N10 Co0 2.128 . S
N10 C11 1.355 . S
N10 C13 1.311 . S
C11 N10 1.355 . S
C11 C12 1.363 . S
C11 H23 0.929 . S
C12 C11 1.363 . S
C12 N14 1.375 . S
C12 H30 0.931 . S
C13 N10 1.311 . S
C13 N14 1.347 . S
C13 H24 0.929 . S
N14 C12 1.375 . S
N14 C13 1.347 . S
C15 C18 1.366 . S
C15 N20 1.328 . S
C15 H21 0.929 . S
C16 C17 1.362 . S
C16 C19 1.378 . S
C16 H31 0.929 . S
C17 C16 1.362 . S
C17 C18 1.366 . S
C18 C15 1.366 . S
C18 C17 1.366 . S
C18 H32 0.929 1_545 S
C19 C16 1.378 . S
C19 N20 1.315 . S
C19 H22 0.930 . S
N20 Co0 2.194 . S
N20 C15 1.328 . S
N20 C19 1.315 . S
H21 C15 0.929 . S
H22 C19 0.930 . S
H23 C11 0.929 . S
H24 C13 0.929 . S
O25 Co0 2.351 . S
O25 C28 1.244 . S
O26 Co0 2.155 . S
O26 C28 1.240 . S
O27 Co0 2.096 . S
O27 C8 1.247 . S
C28 O25 1.244 . S
C28 O26 1.240 . S
H29 C3 0.931 . S
H30 C12 0.931 . S
H31 C16 0.929 . S
H32 C18 0.929 1_565 S
Co33 N37 2.148 . S
Co33 N43 2.128 . S
Co33 N53 2.194 . S
Co33 O58 2.351 . S
Co33 O59 2.155 . S
Co33 O60 2.096 . S
C34 N37 1.301 . S
C34 N38 1.328 . S
C34 H39 0.930 . S
C35 C36 1.333 . S
C35 N37 1.317 . S
C35 H40 0.930 . S
C36 C35 1.333 . S
C36 N38 1.350 . S
C36 H62 0.931 1_554 S
N37 Co33 2.148 . S
N37 C34 1.301 . S
N37 C35 1.317 . S
N38 C34 1.328 . S
N38 C36 1.350 . S
H39 C34 0.930 . S
H40 C35 0.930 . S
C41 O42 1.224 . S
C41 O60 1.247 . S
O42 C41 1.224 . S
N43 Co33 2.128 . S
N43 C44 1.355 . S
N43 C46 1.311 . S
C44 N43 1.355 . S
C44 C45 1.363 . S
C44 H56 0.929 . S
C45 C44 1.363 . S
C45 N47 1.375 . S
C45 H63 0.931 . S
C46 N43 1.311 . S
C46 N47 1.347 . S
C46 H57 0.929 . S
N47 C45 1.375 . S
N47 C46 1.347 . S
C48 C51 1.366 1_554 S
C48 N53 1.328 . S
C48 H54 0.929 . S
C49 C50 1.362 . S
C49 C52 1.378 . S
C49 H64 0.929 . S
C50 C49 1.362 . S
C50 C51 1.366 . S
C51 C48 1.366 1_556 S
C51 C50 1.366 . S
C51 H65 0.929 1_545 S
C52 C49 1.378 . S
C52 N53 1.315 1_556 S
C52 H55 0.930 . S
N53 Co33 2.194 . S
N53 C48 1.328 . S
N53 C52 1.315 1_554 S
H54 C48 0.929 . S
H55 C52 0.930 . S
H56 C44 0.929 . S
H57 C46 0.929 . S
O58 Co33 2.351 . S
O58 C61 1.244 . S
O59 Co33 2.155 . S
O59 C61 1.240 . S
O60 Co33 2.096 . S
O60 C41 1.247 . S
C61 O58 1.244 . S
C61 O59 1.240 . S
H62 C36 0.931 1_556 S
H63 C45 0.931 . S
H64 C49 0.929 . S
H65 C51 0.929 1_565 S
Co66 N70 2.148 . S
Co66 N76 2.128 . S
Co66 N86 2.194 . S
Co66 O91 2.351 . S
Co66 O92 2.155 . S
Co66 O93 2.096 . S
C67 N70 1.301 . S
C67 N71 1.328 . S
C67 H72 0.930 . S
C68 C69 1.333 . S
C68 N70 1.317 . S
C68 H73 0.930 . S
C69 C68 1.333 . S
C69 N71 1.350 . S
C69 H95 0.931 . S
N70 Co66 2.148 . S
N70 C67 1.301 . S
N70 C68 1.317 . S
N71 C67 1.328 . S
N71 C69 1.350 . S
H72 C67 0.930 . S
H73 C68 0.930 . S
C74 O75 1.224 . S
C74 O93 1.247 . S
O75 C74 1.224 . S
N76 Co66 2.128 . S
N76 C77 1.355 . S
N76 C79 1.311 . S
C77 N76 1.355 . S
C77 C78 1.363 . S
C77 H89 0.929 . S
C78 C77 1.363 . S
C78 N80 1.375 . S
C78 H96 0.931 . S
C79 N76 1.311 . S
C79 N80 1.347 . S
C79 H90 0.929 . S
N80 C78 1.375 . S
N80 C79 1.347 . S
C81 C84 1.366 . S
C81 N86 1.328 . S
C81 H87 0.929 . S
C82 C83 1.362 . S
C82 C85 1.378 . S
C82 H97 0.929 . S
C83 C82 1.362 . S
C83 C84 1.366 . S
C84 C81 1.366 . S
C84 C83 1.366 . S
C84 H98 0.929 1_565 S
C85 C82 1.378 . S
C85 N86 1.315 . S
C85 H88 0.930 . S
N86 Co66 2.194 . S
N86 C81 1.328 . S
N86 C85 1.315 . S
H87 C81 0.929 . S
H88 C85 0.930 . S
H89 C77 0.929 . S
H90 C79 0.929 . S
O91 Co66 2.351 . S
O91 C94 1.244 . S
O92 Co66 2.155 . S
O92 C94 1.240 . S
O93 Co66 2.096 . S
O93 C74 1.247 . S
C94 O91 1.244 . S
C94 O92 1.240 . S
H95 C69 0.931 . S
H96 C78 0.931 . S
H97 C82 0.929 . S
H98 C84 0.929 1_545 S
Co99 N103 2.148 . S
Co99 N109 2.128 . S
Co99 N119 2.194 . S
Co99 O124 2.351 . S
Co99 O125 2.155 . S
Co99 O126 2.096 . S
C100 N103 1.301 . S
C100 N104 1.328 . S
C100 H105 0.930 . S
C101 C102 1.333 . S
C101 N103 1.317 . S
C101 H106 0.930 . S
C102 C101 1.333 . S
C102 N104 1.350 . S
C102 H128 0.931 1_556 S
N103 Co99 2.148 . S
N103 C100 1.301 . S
N103 C101 1.317 . S
N104 C100 1.328 . S
N104 C102 1.350 . S
H105 C100 0.930 . S
H106 C101 0.930 . S
C107 O108 1.224 . S
C107 O126 1.247 . S
O108 C107 1.224 . S
N109 Co99 2.128 . S
N109 C110 1.355 . S
N109 C112 1.311 . S
C110 N109 1.355 . S
C110 C111 1.363 . S
C110 H122 0.929 . S
C111 C110 1.363 . S
C111 N113 1.375 . S
C111 H129 0.931 . S
C112 N109 1.311 . S
C112 N113 1.347 . S
C112 H123 0.929 . S
N113 C111 1.375 . S
N113 C112 1.347 . S
C114 C117 1.366 1_556 S
C114 N119 1.328 . S
C114 H120 0.929 . S
C115 C116 1.362 . S
C115 C118 1.378 . S
C115 H130 0.929 . S
C116 C115 1.362 . S
C116 C117 1.366 . S
C117 C114 1.366 1_554 S
C117 C116 1.366 . S
C117 H131 0.929 1_565 S
C118 C115 1.378 . S
C118 N119 1.315 1_554 S
C118 H121 0.930 . S
N119 Co99 2.194 . S
N119 C114 1.328 . S
N119 C118 1.315 1_556 S
H120 C114 0.929 . S
H121 C118 0.930 . S
H122 C110 0.929 . S
H123 C112 0.929 . S
O124 Co99 2.351 . S
O124 C127 1.244 . S
O125 Co99 2.155 . S
O125 C127 1.240 . S
O126 Co99 2.096 . S
O126 C107 1.247 . S
C127 O124 1.244 . S
C127 O125 1.240 . S
H128 C102 0.931 1_554 S
H129 C111 0.931 . S
H130 C115 0.929 . S
H131 C117 0.929 1_545 S
Co132 N136 2.148 . S
Co132 N142 2.128 . S
Co132 N152 2.194 . S
Co132 O157 2.351 . S
Co132 O158 2.155 . S
Co132 O159 2.096 . S
C133 N136 1.301 . S
C133 N137 1.328 . S
C133 H138 0.930 . S
C134 C135 1.333 . S
C134 N136 1.317 . S
C134 H139 0.930 . S
C135 C134 1.333 . S
C135 N137 1.350 . S
C135 H161 0.931 . S
N136 Co132 2.148 . S
N136 C133 1.301 . S
N136 C134 1.317 . S
N137 C133 1.328 . S
N137 C135 1.350 . S
H138 C133 0.930 . S
H139 C134 0.930 . S
C140 O141 1.224 . S
C140 O159 1.247 . S
O141 C140 1.224 . S
N142 Co132 2.128 . S
N142 C143 1.355 . S
N142 C145 1.311 . S
C143 N142 1.355 . S
C143 C144 1.363 . S
C143 H155 0.929 . S
C144 C143 1.363 . S
C144 N146 1.375 . S
C144 H162 0.931 . S
C145 N142 1.311 . S
C145 N146 1.347 . S
C145 H156 0.929 . S
N146 C144 1.375 . S
N146 C145 1.347 . S
C147 C150 1.365 . S
C147 N152 1.328 . S
C147 H153 0.929 . S
C148 C149 1.362 . S
C148 C151 1.378 . S
C148 H163 0.929 . S
C149 C148 1.362 . S
C149 C150 1.366 . S
C150 C147 1.365 . S
C150 C149 1.366 . S
C150 H164 0.930 . S
C151 C148 1.378 . S
C151 N152 1.315 . S
C151 H154 0.930 . S
N152 Co132 2.194 . S
N152 C147 1.328 . S
N152 C151 1.315 . S
H153 C147 0.929 . S
H154 C151 0.930 . S
H155 C143 0.929 . S
H156 C145 0.929 . S
O157 Co132 2.351 . S
O157 C160 1.244 . S
O158 Co132 2.155 . S
O158 C160 1.240 . S
O159 Co132 2.096 . S
O159 C140 1.247 . S
C160 O157 1.244 . S
C160 O158 1.240 . S
H161 C135 0.931 . S
H162 C144 0.931 . S
H163 C148 0.929 . S
H164 C150 0.930 . S
Co165 N169 2.148 . S
Co165 N175 2.128 . S
Co165 N185 2.194 . S
Co165 O190 2.351 . S
Co165 O191 2.155 . S
Co165 O192 2.096 . S
C166 N169 1.301 . S
C166 N170 1.328 . S
C166 H171 0.930 . S
C167 C168 1.333 . S
C167 N169 1.317 . S
C167 H172 0.930 . S
C168 C167 1.333 . S
C168 N170 1.350 . S
C168 H194 0.931 1_554 S
N169 Co165 2.148 . S
N169 C166 1.301 . S
N169 C167 1.317 . S
N170 C166 1.328 . S
N170 C168 1.350 . S
H171 C166 0.930 . S
H172 C167 0.930 . S
C173 O174 1.224 . S
C173 O192 1.247 . S
O174 C173 1.224 . S
N175 Co165 2.128 . S
N175 C176 1.355 . S
N175 C178 1.311 . S
C176 N175 1.355 . S
C176 C177 1.363 . S
C176 H188 0.929 . S
C177 C176 1.363 . S
C177 N179 1.375 . S
C177 H195 0.931 . S
C178 N175 1.311 . S
C178 N179 1.347 . S
C178 H189 0.929 . S
N179 C177 1.375 . S
N179 C178 1.347 . S
C180 C183 1.365 1_554 S
C180 N185 1.328 . S
C180 H186 0.929 . S
C181 C182 1.362 . S
C181 C184 1.378 . S
C181 H196 0.929 . S
C182 C181 1.362 . S
C182 C183 1.366 . S
C183 C180 1.365 1_556 S
C183 C182 1.366 . S
C183 H197 0.930 . S
C184 C181 1.378 . S
C184 N185 1.315 1_556 S
C184 H187 0.930 . S
N185 Co165 2.194 . S
N185 C180 1.328 . S
N185 C184 1.315 1_554 S
H186 C180 0.929 . S
H187 C184 0.930 . S
H188 C176 0.929 . S
H189 C178 0.929 . S
O190 Co165 2.351 . S
O190 C193 1.244 . S
O191 Co165 2.155 . S
O191 C193 1.240 . S
O192 Co165 2.096 . S
O192 C173 1.247 . S
C193 O190 1.244 . S
C193 O191 1.240 . S
H194 C168 0.931 1_556 S
H195 C177 0.931 . S
H196 C181 0.929 . S
H197 C183 0.930 . S
Co198 N202 2.148 . S
Co198 N208 2.128 . S
Co198 N218 2.194 . S
Co198 O223 2.351 . S
Co198 O224 2.155 . S
Co198 O225 2.096 . S
C199 N202 1.301 . S
C199 N203 1.328 . S
C199 H204 0.930 . S
C200 C201 1.333 . S
C200 N202 1.317 . S
C200 H205 0.930 . S
C201 C200 1.333 . S
C201 N203 1.350 . S
C201 H227 0.931 . S
N202 Co198 2.148 . S
N202 C199 1.301 . S
N202 C200 1.317 . S
N203 C199 1.328 . S
N203 C201 1.350 . S
H204 C199 0.930 . S
H205 C200 0.930 . S
C206 O207 1.224 . S
C206 O225 1.247 . S
O207 C206 1.224 . S
N208 Co198 2.128 . S
N208 C209 1.355 . S
N208 C211 1.311 . S
C209 N208 1.355 . S
C209 C210 1.363 . S
C209 H221 0.929 . S
C210 C209 1.363 . S
C210 N212 1.375 . S
C210 H228 0.931 . S
C211 N208 1.311 . S
C211 N212 1.347 . S
C211 H222 0.929 . S
N212 C210 1.375 . S
N212 C211 1.347 . S
C213 C216 1.365 . S
C213 N218 1.328 . S
C213 H219 0.929 . S
C214 C215 1.362 . S
C214 C217 1.378 . S
C214 H229 0.929 . S
C215 C214 1.362 . S
C215 C216 1.366 . S
C216 C213 1.365 . S
C216 C215 1.366 . S
C216 H230 0.930 . S
C217 C214 1.378 . S
C217 N218 1.315 . S
C217 H220 0.930 . S
N218 Co198 2.194 . S
N218 C213 1.328 . S
N218 C217 1.315 . S
H219 C213 0.929 . S
H220 C217 0.930 . S
H221 C209 0.929 . S
H222 C211 0.929 . S
O223 Co198 2.351 . S
O223 C226 1.244 . S
O224 Co198 2.155 . S
O224 C226 1.240 . S
O225 Co198 2.096 . S
O225 C206 1.247 . S
C226 O223 1.244 . S
C226 O224 1.240 . S
H227 C201 0.931 . S
H228 C210 0.931 . S
H229 C214 0.929 . S
H230 C216 0.930 . S
Co231 N235 2.148 . S
Co231 N241 2.128 . S
Co231 N251 2.194 . S
Co231 O256 2.351 . S
Co231 O257 2.155 . S
Co231 O258 2.096 . S
C232 N235 1.301 . S
C232 N236 1.328 . S
C232 H237 0.930 . S
C233 C234 1.333 . S
C233 N235 1.317 . S
C233 H238 0.930 . S
C234 C233 1.333 . S
C234 N236 1.350 . S
C234 H260 0.931 1_556 S
N235 Co231 2.148 . S
N235 C232 1.301 . S
N235 C233 1.317 . S
N236 C232 1.328 . S
N236 C234 1.350 . S
H237 C232 0.930 . S
H238 C233 0.930 . S
C239 O240 1.224 . S
C239 O258 1.247 . S
O240 C239 1.224 . S
N241 Co231 2.128 . S
N241 C242 1.355 . S
N241 C244 1.311 . S
C242 N241 1.355 . S
C242 C243 1.363 . S
C242 H254 0.929 . S
C243 C242 1.363 . S
C243 N245 1.375 . S
C243 H261 0.931 . S
C244 N241 1.311 . S
C244 N245 1.347 . S
C244 H255 0.929 . S
N245 C243 1.375 . S
N245 C244 1.347 . S
C246 C249 1.365 1_556 S
C246 N251 1.328 . S
C246 H252 0.929 . S
C247 C248 1.362 . S
C247 C250 1.378 . S
C247 H262 0.929 . S
C248 C247 1.362 . S
C248 C249 1.366 . S
C249 C246 1.365 1_554 S
C249 C248 1.366 . S
C249 H263 0.930 . S
C250 C247 1.378 . S
C250 N251 1.315 1_554 S
C250 H253 0.930 . S
N251 Co231 2.194 . S
N251 C246 1.328 . S
N251 C250 1.315 1_556 S
H252 C246 0.929 . S
H253 C250 0.930 . S
H254 C242 0.929 . S
H255 C244 0.929 . S
O256 Co231 2.351 . S
O256 C259 1.244 . S
O257 Co231 2.155 . S
O257 C259 1.240 . S
O258 Co231 2.096 . S
O258 C239 1.247 . S
C259 O256 1.244 . S
C259 O257 1.240 . S
H260 C234 0.931 1_554 S
H261 C243 0.931 . S
H262 C247 0.929 . S
H263 C249 0.930 . S
H264 C270 0.930 . S
H265 C273 0.930 . S
H266 C274 0.930 . S
H267 C275 0.930 1_565 S
H268 C278 0.930 . S
H269 C279 0.930 . S
C270 H264 0.930 . S
C270 C271 1.355 1_545 S
C270 C272 1.415 . S
C271 C270 1.355 1_565 S
C271 C273 1.419 . S
C272 C270 1.415 . S
C272 C277 1.425 . S
C272 C279 1.409 . S
C273 H265 0.930 . S
C273 C271 1.419 . S
C273 C274 1.362 . S
C274 H266 0.930 . S
C274 C273 1.362 . S
C274 C277 1.409 1_565 S
C275 H267 0.930 1_545 S
C275 C276 1.355 . S
C275 C277 1.415 . S
C276 C275 1.355 . S
C276 C278 1.419 . S
C277 C272 1.425 . S
C277 C274 1.409 1_545 S
C277 C275 1.415 . S
C278 H268 0.930 . S
C278 C276 1.419 . S
C278 C279 1.362 . S
C279 H269 0.930 . S
C279 C272 1.409 . S
C279 C278 1.362 . S
H280 C286 0.930 . S
H281 C289 0.930 . S
H282 C290 0.930 . S
H283 C291 0.930 . S
H284 C294 0.930 . S
H285 C295 0.930 . S
C286 H280 0.930 . S
C286 C287 1.355 . S
C286 C288 1.415 . S
C287 C286 1.355 . S
C287 C289 1.419 1_545 S
C288 C286 1.415 . S
C288 C293 1.425 1_545 S
C288 C295 1.409 . S
C289 H281 0.930 . S
C289 C287 1.419 1_565 S
C289 C290 1.362 . S
C290 H282 0.930 . S
C290 C289 1.362 . S
C290 C293 1.409 . S
C291 H283 0.930 . S
C291 C292 1.351 1_565 S
C291 C293 1.415 . S
C292 C291 1.351 1_545 S
C292 C294 1.426 . S
C293 C288 1.425 1_565 S
C293 C290 1.409 . S
C293 C291 1.415 . S
C294 H284 0.930 . S
C294 C292 1.426 . S
C294 C295 1.362 . S
C295 H285 0.930 . S
C295 C288 1.409 . S
C295 C294 1.362 . S
H296 C302 0.930 . S
H297 C305 0.930 . S
H298 C306 0.930 . S
H299 C307 0.930 . S
H300 C310 0.930 . S
H301 C311 0.930 . S
C302 H296 0.930 . S
C302 C303 1.355 . S
C302 C304 1.415 . S
C303 C302 1.355 . S
C303 C305 1.419 . S
C304 C302 1.415 . S
C304 C309 1.425 . S
C304 C311 1.409 1_565 S
C305 H297 0.930 . S
C305 C303 1.419 . S
C305 C306 1.362 . S
C306 H298 0.930 . S
C306 C305 1.362 . S
C306 C309 1.409 . S
C307 H299 0.930 . S
C307 C308 1.355 1_565 S
C307 C309 1.415 . S
C308 C307 1.355 1_545 S
C308 C310 1.419 . S
C309 C304 1.425 . S
C309 C306 1.409 . S
C309 C307 1.415 . S
C310 H300 0.930 . S
C310 C308 1.419 . S
C310 C311 1.362 . S
C311 H301 0.930 . S
C311 C304 1.409 1_545 S
C311 C310 1.362 . S
H312 C318 0.930 . S
H313 C321 0.930 . S
H314 C322 0.930 . S
H315 C323 0.930 . S
H316 C326 0.930 . S
H317 C327 0.930 . S
C318 H312 0.930 . S
C318 C319 1.355 . S
C318 C320 1.415 . S
C319 C318 1.355 . S
C319 C321 1.419 1_565 S
C320 C318 1.415 . S
C320 C325 1.425 1_565 S
C320 C327 1.409 . S
C321 H313 0.930 . S
C321 C319 1.419 1_545 S
C321 C322 1.362 . S
C322 H314 0.930 . S
C322 C321 1.362 . S
C322 C325 1.409 . S
C323 H315 0.930 . S
C323 C324 1.355 . S
C323 C325 1.415 . S
C324 C323 1.355 . S
C324 C326 1.418 1_545 S
C325 C320 1.425 1_545 S
C325 C322 1.409 . S
C325 C323 1.415 . S
C326 H316 0.930 . S
C326 C324 1.418 1_565 S
C326 C327 1.362 . S
C327 H317 0.930 . S
C327 C320 1.409 . S
C327 C326 1.362 . S
H328 C334 0.930 . S
H329 C337 0.930 . S
H330 C338 0.930 . S
H331 C339 0.930 . S
H332 C342 0.930 . S
H333 C343 0.930 . S
C334 H328 0.930 . S
C334 C335 1.355 . S
C334 C336 1.415 . S
C335 C334 1.355 . S
C335 C337 1.419 . S
C336 C334 1.415 . S
C336 C341 1.425 . S
C336 C343 1.409 . S
C337 H329 0.930 . S
C337 C335 1.419 . S
C337 C338 1.362 . S
C338 H330 0.930 . S
C338 C337 1.362 . S
C338 C341 1.409 . S
C339 H331 0.930 . S
C339 C340 1.355 . S
C339 C341 1.415 . S
C340 C339 1.355 . S
C340 C342 1.419 . S
C341 C336 1.425 . S
C341 C338 1.409 . S
C341 C339 1.415 . S
C342 H332 0.930 . S
C342 C340 1.419 . S
C342 C343 1.362 . S
C343 H333 0.930 . S
C343 C336 1.409 . S
C343 C342 1.362 . S
H344 C350 0.930 . S
H345 C353 0.930 . S
H346 C354 0.930 . S
H347 C355 0.930 . S
H348 C358 0.930 . S
H349 C359 0.930 . S
C350 H344 0.930 . S
C350 C351 1.355 . S
C350 C352 1.415 . S
C351 C350 1.355 . S
C351 C353 1.419 . S
C352 C350 1.415 . S
C352 C357 1.425 . S
C352 C359 1.409 . S
C353 H345 0.930 . S
C353 C351 1.419 . S
C353 C354 1.362 . S
C354 H346 0.930 . S
C354 C353 1.362 . S
C354 C357 1.409 . S
C355 H347 0.930 . S
C355 C356 1.355 . S
C355 C357 1.415 . S
C356 C355 1.355 . S
C356 C358 1.419 . S
C357 C352 1.425 . S
C357 C354 1.409 . S
C357 C355 1.415 . S
C358 H348 0.930 . S
C358 C356 1.419 . S
C358 C359 1.362 . S
C359 H349 0.930 . S
C359 C352 1.409 . S
C359 C358 1.362 . S
H360 C366 0.930 . S
H361 C369 0.930 . S
H362 C370 0.930 . S
H363 C371 0.930 . S
H364 C374 0.930 . S
H365 C375 0.930 . S
C366 H360 0.930 . S
C366 C367 1.355 . S
C366 C368 1.415 . S
C367 C366 1.355 . S
C367 C369 1.419 . S
C368 C366 1.415 . S
C368 C373 1.425 . S
C368 C375 1.409 . S
C369 H361 0.930 . S
C369 C367 1.419 . S
C369 C370 1.362 . S
C370 H362 0.930 . S
C370 C369 1.362 . S
C370 C373 1.409 . S
C371 H363 0.930 . S
C371 C372 1.355 . S
C371 C373 1.415 . S
C372 C371 1.355 . S
C372 C374 1.419 . S
C373 C368 1.425 . S
C373 C370 1.409 . S
C373 C371 1.415 . S
C374 H364 0.930 . S
C374 C372 1.419 . S
C374 C375 1.362 . S
C375 H365 0.930 . S
C375 C368 1.409 . S
C375 C374 1.362 . S
H376 C382 0.930 . S
H377 C385 0.930 . S
H378 C386 0.930 . S
H379 C387 0.930 . S
H380 C390 0.930 . S
H381 C391 0.930 . S
C382 H376 0.930 . S
C382 C383 1.355 . S
C382 C384 1.415 . S
C383 C382 1.355 . S
C383 C385 1.419 . S
C384 C382 1.415 . S
C384 C389 1.425 . S
C384 C391 1.409 . S
C385 H377 0.930 . S
C385 C383 1.419 . S
C385 C386 1.362 . S
C386 H378 0.930 . S
C386 C385 1.362 . S
C386 C389 1.409 . S
C387 H379 0.930 . S
C387 C388 1.355 . S
C387 C389 1.415 . S
C388 C387 1.355 . S
C388 C390 1.419 . S
C389 C384 1.425 . S
C389 C386 1.409 . S
C389 C387 1.415 . S
C390 H380 0.930 . S
C390 C388 1.419 . S
C390 C391 1.362 . S
C391 H381 0.930 . S
C391 C384 1.409 . S
C391 C390 1.362 . S
H392 C398 0.930 . S
H393 C401 0.930 . S
H394 C402 0.930 . S
H395 C403 0.930 . S
H396 C406 0.930 . S
H397 C407 0.930 . S
C398 H392 0.930 . S
C398 C399 1.355 . S
C398 C400 1.415 . S
C399 C398 1.355 . S
C399 C401 1.419 . S
C400 C398 1.415 . S
C400 C405 1.425 1_565 S
C400 C407 1.409 . S
C401 H393 0.930 . S
C401 C399 1.419 . S
C401 C402 1.362 1_565 S
C402 H394 0.930 . S
C402 C401 1.362 1_545 S
C402 C405 1.409 . S
C403 H395 0.930 . S
C403 C404 1.355 . S
C403 C405 1.415 . S
C404 C403 1.355 . S
C404 C406 1.419 . S
C405 C400 1.425 1_545 S
C405 C402 1.409 . S
C405 C403 1.415 . S
C406 H396 0.930 . S
C406 C404 1.419 . S
C406 C407 1.362 1_545 S
C407 H397 0.930 . S
C407 C400 1.409 . S
C407 C406 1.362 1_565 S
H408 C414 0.930 1_545 S
H409 C417 0.930 . S
H410 C418 0.930 . S
H411 C419 0.930 1_565 S
H412 C422 0.930 . S
H413 C423 0.930 . S
C414 H408 0.930 1_565 S
C414 C415 1.353 1_556 S
C414 C416 1.415 1_565 S
C415 C414 1.353 1_554 S
C415 C417 1.419 . S
C416 C414 1.415 1_545 S
C416 C421 1.425 1_546 S
C416 C423 1.409 . S
C417 H409 0.930 . S
C417 C415 1.419 . S
C417 C418 1.362 . S
C418 H410 0.930 . S
C418 C417 1.362 . S
C418 C421 1.409 . S
C419 H411 0.930 1_545 S
C419 C420 1.353 1_554 S
C419 C421 1.415 1_545 S
C420 C419 1.353 1_556 S
C420 C422 1.419 . S
C421 C416 1.425 1_564 S
C421 C418 1.409 . S
C421 C419 1.415 1_565 S
C422 H412 0.930 . S
C422 C420 1.419 . S
C422 C423 1.362 . S
C423 H413 0.930 . S
C423 C416 1.409 . S
C423 C422 1.362 . S
H424 C430 0.930 . S
H425 C433 0.930 . S
H426 C434 0.930 . S
H427 C435 0.930 . S
H428 C438 0.930 . S
H429 C439 0.930 . S
C430 H424 0.930 . S
C430 C431 1.355 . S
C430 C432 1.415 . S
C431 C430 1.355 . S
C431 C433 1.419 . S
C432 C430 1.415 . S
C432 C437 1.425 1_655 S
C432 C439 1.409 . S
C433 H425 0.930 . S
C433 C431 1.419 . S
C433 C434 1.362 1_655 S
C434 H426 0.930 . S
C434 C433 1.362 1_455 S
C434 C437 1.409 . S
C435 H427 0.930 . S
C435 C436 1.355 . S
C435 C437 1.415 . S
C436 C435 1.355 . S
C436 C438 1.419 . S
C437 C432 1.425 1_455 S
C437 C434 1.409 . S
C437 C435 1.415 . S
C438 H428 0.930 . S
C438 C436 1.419 . S
C438 C439 1.362 1_455 S
C439 H429 0.930 . S
C439 C432 1.409 . S
C439 C438 1.362 1_655 S
H440 C446 0.930 . S
H441 C449 0.930 . S
H442 C450 0.930 . S
H443 C451 0.930 . S
H444 C454 0.930 . S
H445 C455 0.930 . S
C446 H440 0.930 . S
C446 C447 1.355 . S
C446 C448 1.415 1_455 S
C447 C446 1.355 . S
C447 C449 1.419 1_554 S
C448 C446 1.415 1_655 S
C448 C453 1.425 1_654 S
C448 C455 1.409 . S
C449 H441 0.930 . S
C449 C447 1.419 1_556 S
C449 C450 1.362 . S
C450 H442 0.930 . S
C450 C449 1.362 . S
C450 C453 1.409 . S
C451 H443 0.930 . S
C451 C452 1.355 . S
C451 C453 1.415 1_655 S
C452 C451 1.355 . S
C452 C454 1.419 1_556 S
C453 C448 1.425 1_456 S
C453 C450 1.409 . S
C453 C451 1.415 1_455 S
C454 H444 0.930 . S
C454 C452 1.419 1_554 S
C454 C455 1.362 . S
C455 H445 0.930 . S
C455 C448 1.409 . S
C455 C454 1.362 . S
H456 C462 0.930 . S
H457 C465 0.930 . S
H458 C466 0.930 . S
H459 C467 0.930 . S
H460 C470 0.930 . S
H461 C471 0.930 . S
C462 H456 0.930 . S
C462 C463 1.355 . S
C462 C464 1.415 . S
C463 C462 1.355 . S
C463 C465 1.419 . S
C464 C462 1.415 . S
C464 C469 1.425 1_455 S
C464 C471 1.409 1_455 S
C465 H457 0.930 . S
C465 C463 1.419 . S
C465 C466 1.362 . S
C466 H458 0.930 . S
C466 C465 1.362 . S
C466 C469 1.409 1_455 S
C467 H459 0.930 . S
C467 C468 1.355 . S
C467 C469 1.415 . S
C468 C467 1.355 . S
C468 C470 1.419 . S
C469 C464 1.425 1_655 S
C469 C466 1.409 1_655 S
C469 C467 1.415 . S
C470 H460 0.930 . S
C470 C468 1.419 . S
C470 C471 1.362 . S
C471 H461 0.930 . S
C471 C464 1.409 1_655 S
C471 C470 1.362 . S
H472 C478 0.930 . S
H473 C481 0.930 . S
H474 C482 0.930 1_655 S
H475 C483 0.930 . S
H476 C486 0.930 . S
H477 C487 0.930 1_455 S
C478 H472 0.930 . S
C478 C479 1.355 . S
C478 C480 1.415 . S
C479 C478 1.355 . S
C479 C481 1.419 . S
C480 C478 1.415 . S
C480 C485 1.425 1_455 S
C480 C487 1.409 1_455 S
C481 H473 0.930 . S
C481 C479 1.419 . S
C481 C482 1.362 . S
C482 H474 0.930 1_455 S
C482 C481 1.362 . S
C482 C485 1.409 1_455 S
C483 H475 0.930 . S
C483 C484 1.355 . S
C483 C485 1.415 . S
C484 C483 1.355 . S
C484 C486 1.419 . S
C485 C480 1.425 1_655 S
C485 C482 1.409 1_655 S
C485 C483 1.415 . S
C486 H476 0.930 . S
C486 C484 1.419 . S
C486 C487 1.362 . S
C487 H477 0.930 1_655 S
C487 C480 1.409 1_655 S
C487 C486 1.362 . S
H488 C494 0.930 . S
H489 C497 0.930 . S
H490 C498 0.930 . S
H491 C499 0.930 . S
H492 C502 0.930 . S
H493 C503 0.930 . S
C494 H488 0.930 . S
C494 C495 1.355 . S
C494 C496 1.415 . S
C495 C494 1.355 . S
C495 C497 1.419 . S
C496 C494 1.415 . S
C496 C501 1.425 . S
C496 C503 1.409 . S
C497 H489 0.930 . S
C497 C495 1.419 . S
C497 C498 1.362 . S
C498 H490 0.930 . S
C498 C497 1.362 . S
C498 C501 1.409 . S
C499 H491 0.930 . S
C499 C500 1.355 . S
C499 C501 1.415 . S
C500 C499 1.355 . S
C500 C502 1.419 . S
C501 C496 1.425 . S
C501 C498 1.409 . S
C501 C499 1.415 . S
C502 H492 0.930 . S
C502 C500 1.419 . S
C502 C503 1.362 . S
C503 H493 0.930 . S
C503 C496 1.409 . S
C503 C502 1.362 . S
H504 C510 0.930 . S
H505 C513 0.930 . S
H506 C514 0.930 . S
H507 C515 0.930 . S
H508 C518 0.930 . S
H509 C519 0.930 . S
C510 H504 0.930 . S
C510 C511 1.355 . S
C510 C512 1.415 . S
C511 C510 1.355 . S
C511 C513 1.419 . S
C512 C510 1.415 . S
C512 C517 1.425 . S
C512 C519 1.409 . S
C513 H505 0.930 . S
C513 C511 1.419 . S
C513 C514 1.362 . S
C514 H506 0.930 . S
C514 C513 1.362 . S
C514 C517 1.409 . S
C515 H507 0.930 . S
C515 C516 1.355 . S
C515 C517 1.415 . S
C516 C515 1.355 . S
C516 C518 1.419 . S
C517 C512 1.425 . S
C517 C514 1.409 . S
C517 C515 1.415 . S
C518 H508 0.930 . S
C518 C516 1.419 . S
C518 C519 1.362 . S
C519 H509 0.930 . S
C519 C512 1.409 . S
C519 C518 1.362 . S
H520 C526 0.930 . S
H521 C529 0.930 . S
H522 C530 0.930 . S
H523 C531 0.930 . S
H524 C534 0.930 . S
H525 C535 0.930 . S
C526 H520 0.930 . S
C526 C527 1.355 . S
C526 C528 1.415 . S
C527 C526 1.355 . S
C527 C529 1.419 . S
C528 C526 1.415 . S
C528 C533 1.425 . S
C528 C535 1.409 . S
C529 H521 0.930 . S
C529 C527 1.419 . S
C529 C530 1.362 . S
C530 H522 0.930 . S
C530 C529 1.362 . S
C530 C533 1.409 . S
C531 H523 0.930 . S
C531 C532 1.355 . S
C531 C533 1.415 . S
C532 C531 1.355 . S
C532 C534 1.419 . S
C533 C528 1.425 . S
C533 C530 1.409 . S
C533 C531 1.415 . S
C534 H524 0.930 . S
C534 C532 1.419 . S
C534 C535 1.362 . S
C535 H525 0.930 . S
C535 C528 1.409 . S
C535 C534 1.362 . S
H536 C542 0.930 . S
H537 C545 0.930 . S
H538 C546 0.930 . S
H539 C547 0.930 . S
H540 C550 0.930 . S
H541 C551 0.930 . S
C542 H536 0.930 . S
C542 C543 1.355 . S
C542 C544 1.415 . S
C543 C542 1.355 . S
C543 C545 1.419 . S
C544 C542 1.415 . S
C544 C549 1.425 1_556 S
C544 C551 1.409 1_556 S
C545 H537 0.930 . S
C545 C543 1.419 . S
C545 C546 1.362 . S
C546 H538 0.930 . S
C546 C545 1.362 . S
C546 C549 1.409 1_556 S
C547 H539 0.930 . S
C547 C548 1.355 . S
C547 C549 1.415 . S
C548 C547 1.355 . S
C548 C550 1.419 . S
C549 C544 1.425 1_554 S
C549 C546 1.409 1_554 S
C549 C547 1.415 . S
C550 H540 0.930 . S
C550 C548 1.419 . S
C550 C551 1.362 . S
C551 H541 0.930 . S
C551 C544 1.409 1_554 S
C551 C550 1.362 . S
H552 C558 0.930 . S
H553 C561 0.930 . S
H554 C562 0.930 . S
H555 C563 0.930 . S
H556 C566 0.930 . S
H557 C567 0.930 . S
C558 H552 0.930 . S
C558 C559 1.355 . S
C558 C560 1.415 . S
C559 C558 1.355 . S
C559 C561 1.419 . S
C560 C558 1.415 . S
C560 C565 1.425 . S
C560 C567 1.409 . S
C561 H553 0.930 . S
C561 C559 1.419 . S
C561 C562 1.362 . S
C562 H554 0.930 . S
C562 C561 1.362 . S
C562 C565 1.409 . S
C563 H555 0.930 . S
C563 C564 1.355 . S
C563 C565 1.415 . S
C564 C563 1.355 . S
C564 C566 1.419 . S
C565 C560 1.425 . S
C565 C562 1.409 . S
C565 C563 1.415 . S
C566 H556 0.930 . S
C566 C564 1.419 . S
C566 C567 1.362 . S
C567 H557 0.930 . S
C567 C560 1.409 . S
C567 C566 1.362 . S
H568 C574 0.930 . S
H569 C577 0.930 . S
H570 C578 0.930 . S
H571 C579 0.930 . S
H572 C582 0.930 . S
H573 C583 0.930 . S
C574 H568 0.930 . S
C574 C575 1.355 . S
C574 C576 1.415 . S
C575 C574 1.355 . S
C575 C577 1.419 . S
C576 C574 1.415 . S
C576 C581 1.425 1_556 S
C576 C583 1.409 . S
C577 H569 0.930 . S
C577 C575 1.419 . S
C577 C578 1.362 1_556 S
C578 H570 0.930 . S
C578 C577 1.362 1_554 S
C578 C581 1.409 . S
C579 H571 0.930 . S
C579 C580 1.355 . S
C579 C581 1.415 . S
C580 C579 1.355 . S
C580 C582 1.419 . S
C581 C576 1.425 1_554 S
C581 C578 1.409 . S
C581 C579 1.415 . S
C582 H572 0.930 . S
C582 C580 1.419 . S
C582 C583 1.362 1_554 S
C583 H573 0.930 . S
C583 C576 1.409 . S
C583 C582 1.362 1_556 S
C271 C116 0.997 . S
C276 C28 1.003 . S
C287 C61 1.042 . S
C292 C83 1.038 1_545 S
C303 C94 1.007 . S
C308 C50 1.006 . S
C319 C127 1.043 . S
C324 C17 1.045 . S
C335 C160 1.043 . S
C340 C248 1.045 . S
C351 C193 1.040 . S
C356 C215 1.042 . S
C367 C182 1.012 . S
C372 C226 1.012 . S
C383 C259 0.996 . S
C388 C149 0.992 . S
C399 N71 2.040 . S
C404 N5 2.040 . S
C415 N104 2.056 1_554 S
C420 N38 2.056 1_556 S
C431 N137 2.061 . S
C436 N203 2.061 . S
C447 N170 2.042 . S
C452 N236 2.042 . S
C463 N14 1.707 . S
C468 N47 1.748 . S
C479 N113 1.752 . S
C484 N80 1.763 . S
C495 N179 1.778 . S
C500 N146 1.718 . S
C511 N245 1.712 . S
C516 N212 1.776 . S
C527 C206 1.565 . S
C532 C8 1.565 . S
C543 C239 1.548 . S
C548 C41 1.548 . S
C559 C140 1.545 . S
C564 C74 1.545 . S
C575 C107 1.538 . S
C580 C173 1.538 . S
