# Generated by pormake.
# Topology som, (6)-cn, num edge types: 1
# Building blocks:
#     Node 0, Type 0, BuildingBlock: INOVEN_clean_sbu_0, # of connection points: 6
#     Node 1, Type 0, BuildingBlock: INOVEN_clean_sbu_0, # of connection points: 6
#     Node 2, Type 0, BuildingBlock: INOVEN_clean_sbu_0, # of connection points: 6
#     Node 3, Type 0, BuildingBlock: INOVEN_clean_sbu_0, # of connection points: 6
#     Node 4, Type 0, BuildingBlock: INOVEN_clean_sbu_0, # of connection points: 6
#     Node 5, Type 0, BuildingBlock: INOVEN_clean_sbu_0, # of connection points: 6
#     Node 6, Type 0, BuildingBlock: INOVEN_clean_sbu_0, # of connection points: 6
#     Node 7, Type 0, BuildingBlock: INOVEN_clean_sbu_0, # of connection points: 6
#     Node 8, Type 0, BuildingBlock: INOVEN_clean_sbu_0, # of connection points: 6
#     Node 9, Type 0, BuildingBlock: INOVEN_clean_sbu_0, # of connection points: 6
#     Node 10, Type 0, BuildingBlock: INOVEN_clean_sbu_0, # of connection points: 6
#     Node 11, Type 0, BuildingBlock: INOVEN_clean_sbu_0, # of connection points: 6
#     Node 12, Type 0, BuildingBlock: INOVEN_clean_sbu_0, # of connection points: 6
#     Node 13, Type 0, BuildingBlock: INOVEN_clean_sbu_0, # of connection points: 6
#     Node 14, Type 0, BuildingBlock: INOVEN_clean_sbu_0, # of connection points: 6
#     Node 15, Type 0, BuildingBlock: INOVEN_clean_sbu_0, # of connection points: 6
#     Node 16, Type 0, BuildingBlock: INOVEN_clean_sbu_0, # of connection points: 6
#     Node 17, Type 0, BuildingBlock: INOVEN_clean_sbu_0, # of connection points: 6
#     Node 18, Type 0, BuildingBlock: INOVEN_clean_sbu_0, # of connection points: 6
#     Node 19, Type 0, BuildingBlock: INOVEN_clean_sbu_0, # of connection points: 6
#     Node 20, Type 0, BuildingBlock: INOVEN_clean_sbu_0, # of connection points: 6
#     Node 21, Type 0, BuildingBlock: INOVEN_clean_sbu_0, # of connection points: 6
#     Node 22, Type 0, BuildingBlock: INOVEN_clean_sbu_0, # of connection points: 6
#     Node 23, Type 0, BuildingBlock: INOVEN_clean_sbu_0, # of connection points: 6
#     Node 24, Type 0, BuildingBlock: INOVEN_clean_sbu_0, # of connection points: 6
#     Node 25, Type 0, BuildingBlock: INOVEN_clean_sbu_0, # of connection points: 6
#     Node 26, Type 0, BuildingBlock: INOVEN_clean_sbu_0, # of connection points: 6
#     Node 27, Type 0, BuildingBlock: INOVEN_clean_sbu_0, # of connection points: 6
#     Node 28, Type 0, BuildingBlock: INOVEN_clean_sbu_0, # of connection points: 6
#     Node 29, Type 0, BuildingBlock: INOVEN_clean_sbu_0, # of connection points: 6
#     Node 30, Type 0, BuildingBlock: INOVEN_clean_sbu_0, # of connection points: 6
#     Node 31, Type 0, BuildingBlock: INOVEN_clean_sbu_0, # of connection points: 6
#     Edge 32, Type (0, 0), BuildingBlock: KIFKEQ_clean_linker_1, # of connection points: 2
#     Edge 33, Type (0, 0), BuildingBlock: KIFKEQ_clean_linker_1, # of connection points: 2
#     Edge 34, Type (0, 0), BuildingBlock: KIFKEQ_clean_linker_1, # of connection points: 2
#     Edge 35, Type (0, 0), BuildingBlock: KIFKEQ_clean_linker_1, # of connection points: 2
#     Edge 36, Type (0, 0), BuildingBlock: KIFKEQ_clean_linker_1, # of connection points: 2
#     Edge 37, Type (0, 0), BuildingBlock: KIFKEQ_clean_linker_1, # of connection points: 2
#     Edge 38, Type (0, 0), BuildingBlock: KIFKEQ_clean_linker_1, # of connection points: 2
#     Edge 39, Type (0, 0), BuildingBlock: KIFKEQ_clean_linker_1, # of connection points: 2
#     Edge 40, Type (0, 0), BuildingBlock: KIFKEQ_clean_linker_1, # of connection points: 2
#     Edge 41, Type (0, 0), BuildingBlock: KIFKEQ_clean_linker_1, # of connection points: 2
#     Edge 42, Type (0, 0), BuildingBlock: KIFKEQ_clean_linker_1, # of connection points: 2
#     Edge 43, Type (0, 0), BuildingBlock: KIFKEQ_clean_linker_1, # of connection points: 2
#     Edge 44, Type (0, 0), BuildingBlock: KIFKEQ_clean_linker_1, # of connection points: 2
#     Edge 45, Type (0, 0), BuildingBlock: KIFKEQ_clean_linker_1, # of connection points: 2
#     Edge 46, Type (0, 0), BuildingBlock: KIFKEQ_clean_linker_1, # of connection points: 2
#     Edge 47, Type (0, 0), BuildingBlock: KIFKEQ_clean_linker_1, # of connection points: 2
#     Edge 48, Type (0, 0), BuildingBlock: KIFKEQ_clean_linker_1, # of connection points: 2
#     Edge 49, Type (0, 0), BuildingBlock: KIFKEQ_clean_linker_1, # of connection points: 2
#     Edge 50, Type (0, 0), BuildingBlock: KIFKEQ_clean_linker_1, # of connection points: 2
#     Edge 51, Type (0, 0), BuildingBlock: KIFKEQ_clean_linker_1, # of connection points: 2
#     Edge 52, Type (0, 0), BuildingBlock: KIFKEQ_clean_linker_1, # of connection points: 2
#     Edge 53, Type (0, 0), BuildingBlock: KIFKEQ_clean_linker_1, # of connection points: 2
#     Edge 54, Type (0, 0), BuildingBlock: KIFKEQ_clean_linker_1, # of connection points: 2
#     Edge 55, Type (0, 0), BuildingBlock: KIFKEQ_clean_linker_1, # of connection points: 2
#     Edge 56, Type (0, 0), BuildingBlock: KIFKEQ_clean_linker_1, # of connection points: 2
#     Edge 57, Type (0, 0), BuildingBlock: KIFKEQ_clean_linker_1, # of connection points: 2
#     Edge 58, Type (0, 0), BuildingBlock: KIFKEQ_clean_linker_1, # of connection points: 2
#     Edge 59, Type (0, 0), BuildingBlock: KIFKEQ_clean_linker_1, # of connection points: 2
#     Edge 60, Type (0, 0), BuildingBlock: KIFKEQ_clean_linker_1, # of connection points: 2
#     Edge 61, Type (0, 0), BuildingBlock: KIFKEQ_clean_linker_1, # of connection points: 2
#     Edge 62, Type (0, 0), BuildingBlock: KIFKEQ_clean_linker_1, # of connection points: 2
#     Edge 63, Type (0, 0), BuildingBlock: KIFKEQ_clean_linker_1, # of connection points: 2
#     Edge 64, Type (0, 0), BuildingBlock: KIFKEQ_clean_linker_1, # of connection points: 2
#     Edge 65, Type (0, 0), BuildingBlock: KIFKEQ_clean_linker_1, # of connection points: 2
#     Edge 66, Type (0, 0), BuildingBlock: KIFKEQ_clean_linker_1, # of connection points: 2
#     Edge 67, Type (0, 0), BuildingBlock: KIFKEQ_clean_linker_1, # of connection points: 2
#     Edge 68, Type (0, 0), BuildingBlock: KIFKEQ_clean_linker_1, # of connection points: 2
#     Edge 69, Type (0, 0), BuildingBlock: KIFKEQ_clean_linker_1, # of connection points: 2
#     Edge 70, Type (0, 0), BuildingBlock: KIFKEQ_clean_linker_1, # of connection points: 2
#     Edge 71, Type (0, 0), BuildingBlock: KIFKEQ_clean_linker_1, # of connection points: 2
#     Edge 72, Type (0, 0), BuildingBlock: KIFKEQ_clean_linker_1, # of connection points: 2
#     Edge 73, Type (0, 0), BuildingBlock: KIFKEQ_clean_linker_1, # of connection points: 2
#     Edge 74, Type (0, 0), BuildingBlock: KIFKEQ_clean_linker_1, # of connection points: 2
#     Edge 75, Type (0, 0), BuildingBlock: KIFKEQ_clean_linker_1, # of connection points: 2
#     Edge 76, Type (0, 0), BuildingBlock: KIFKEQ_clean_linker_1, # of connection points: 2
#     Edge 77, Type (0, 0), BuildingBlock: KIFKEQ_clean_linker_1, # of connection points: 2
#     Edge 78, Type (0, 0), BuildingBlock: KIFKEQ_clean_linker_1, # of connection points: 2
#     Edge 79, Type (0, 0), BuildingBlock: KIFKEQ_clean_linker_1, # of connection points: 2
#     Edge 80, Type (0, 0), BuildingBlock: KIFKEQ_clean_linker_1, # of connection points: 2
#     Edge 81, Type (0, 0), BuildingBlock: KIFKEQ_clean_linker_1, # of connection points: 2
#     Edge 82, Type (0, 0), BuildingBlock: KIFKEQ_clean_linker_1, # of connection points: 2
#     Edge 83, Type (0, 0), BuildingBlock: KIFKEQ_clean_linker_1, # of connection points: 2
#     Edge 84, Type (0, 0), BuildingBlock: KIFKEQ_clean_linker_1, # of connection points: 2
#     Edge 85, Type (0, 0), BuildingBlock: KIFKEQ_clean_linker_1, # of connection points: 2
#     Edge 86, Type (0, 0), BuildingBlock: KIFKEQ_clean_linker_1, # of connection points: 2
#     Edge 87, Type (0, 0), BuildingBlock: KIFKEQ_clean_linker_1, # of connection points: 2
#     Edge 88, Type (0, 0), BuildingBlock: KIFKEQ_clean_linker_1, # of connection points: 2
#     Edge 89, Type (0, 0), BuildingBlock: KIFKEQ_clean_linker_1, # of connection points: 2
#     Edge 90, Type (0, 0), BuildingBlock: KIFKEQ_clean_linker_1, # of connection points: 2
#     Edge 91, Type (0, 0), BuildingBlock: KIFKEQ_clean_linker_1, # of connection points: 2
#     Edge 92, Type (0, 0), BuildingBlock: KIFKEQ_clean_linker_1, # of connection points: 2
#     Edge 93, Type (0, 0), BuildingBlock: KIFKEQ_clean_linker_1, # of connection points: 2
#     Edge 94, Type (0, 0), BuildingBlock: KIFKEQ_clean_linker_1, # of connection points: 2
#     Edge 95, Type (0, 0), BuildingBlock: KIFKEQ_clean_linker_1, # of connection points: 2
#     Edge 96, Type (0, 0), BuildingBlock: KIFKEQ_clean_linker_1, # of connection points: 2
#     Edge 97, Type (0, 0), BuildingBlock: KIFKEQ_clean_linker_1, # of connection points: 2
#     Edge 98, Type (0, 0), BuildingBlock: KIFKEQ_clean_linker_1, # of connection points: 2
#     Edge 99, Type (0, 0), BuildingBlock: KIFKEQ_clean_linker_1, # of connection points: 2
#     Edge 100, Type (0, 0), BuildingBlock: KIFKEQ_clean_linker_1, # of connection points: 2
#     Edge 101, Type (0, 0), BuildingBlock: KIFKEQ_clean_linker_1, # of connection points: 2
#     Edge 102, Type (0, 0), BuildingBlock: KIFKEQ_clean_linker_1, # of connection points: 2
#     Edge 103, Type (0, 0), BuildingBlock: KIFKEQ_clean_linker_1, # of connection points: 2
#     Edge 104, Type (0, 0), BuildingBlock: KIFKEQ_clean_linker_1, # of connection points: 2
#     Edge 105, Type (0, 0), BuildingBlock: KIFKEQ_clean_linker_1, # of connection points: 2
#     Edge 106, Type (0, 0), BuildingBlock: KIFKEQ_clean_linker_1, # of connection points: 2
#     Edge 107, Type (0, 0), BuildingBlock: KIFKEQ_clean_linker_1, # of connection points: 2
#     Edge 108, Type (0, 0), BuildingBlock: KIFKEQ_clean_linker_1, # of connection points: 2
#     Edge 109, Type (0, 0), BuildingBlock: KIFKEQ_clean_linker_1, # of connection points: 2
#     Edge 110, Type (0, 0), BuildingBlock: KIFKEQ_clean_linker_1, # of connection points: 2
#     Edge 111, Type (0, 0), BuildingBlock: KIFKEQ_clean_linker_1, # of connection points: 2
#     Edge 112, Type (0, 0), BuildingBlock: KIFKEQ_clean_linker_1, # of connection points: 2
#     Edge 113, Type (0, 0), BuildingBlock: KIFKEQ_clean_linker_1, # of connection points: 2
#     Edge 114, Type (0, 0), BuildingBlock: KIFKEQ_clean_linker_1, # of connection points: 2
#     Edge 115, Type (0, 0), BuildingBlock: KIFKEQ_clean_linker_1, # of connection points: 2
#     Edge 116, Type (0, 0), BuildingBlock: KIFKEQ_clean_linker_1, # of connection points: 2
#     Edge 117, Type (0, 0), BuildingBlock: KIFKEQ_clean_linker_1, # of connection points: 2
#     Edge 118, Type (0, 0), BuildingBlock: KIFKEQ_clean_linker_1, # of connection points: 2
#     Edge 119, Type (0, 0), BuildingBlock: KIFKEQ_clean_linker_1, # of connection points: 2
#     Edge 120, Type (0, 0), BuildingBlock: KIFKEQ_clean_linker_1, # of connection points: 2
#     Edge 121, Type (0, 0), BuildingBlock: KIFKEQ_clean_linker_1, # of connection points: 2
#     Edge 122, Type (0, 0), BuildingBlock: KIFKEQ_clean_linker_1, # of connection points: 2
#     Edge 123, Type (0, 0), BuildingBlock: KIFKEQ_clean_linker_1, # of connection points: 2
#     Edge 124, Type (0, 0), BuildingBlock: KIFKEQ_clean_linker_1, # of connection points: 2
#     Edge 125, Type (0, 0), BuildingBlock: KIFKEQ_clean_linker_1, # of connection points: 2
#     Edge 126, Type (0, 0), BuildingBlock: KIFKEQ_clean_linker_1, # of connection points: 2
#     Edge 127, Type (0, 0), BuildingBlock: KIFKEQ_clean_linker_1, # of connection points: 2
# Relax obj value: 0.054
# Max RMSD: 0.123
# Mean RMSD: 0.123
data_MOF--net-som--node1-INOVEN_clean_sbu_0--edge1-KIFKEQ_clean_linker_1
_symmetry_space_group_name_H-M    P1
_symmetry_Int_Tables_number       1
_symmetry_cell_setting            triclinic
loop_
_symmetry_equiv_pos_as_xyz
'x, y, z'
_cell_length_a     25.99118
_cell_length_b     56.728964
_cell_length_c     111.69145
_cell_angle_alpha  89.940402
_cell_angle_beta   89.997135
_cell_angle_gamma 89.885768
loop_
_atom_site_label
_atom_site_type_symbol
_atom_site_fract_x
_atom_site_fract_y
_atom_site_fract_z
_atom_type_partial_charge
Gd0 Gd 0.99429 0.49924 0.08977 0.0
Gd1 Gd 0.10502 0.47527 0.09103 0.0
C2 C 1.00323 0.44255 0.09212 0.0
C3 C 0.90027 0.51294 0.08624 0.0
C4 C 0.84688 0.50448 0.08488 0.0
C5 C 0.82815 0.48505 0.09135 0.0
C6 C 0.81277 0.51752 0.07774 0.0
C7 C 0.74088 0.49311 0.08428 0.0
C8 C 0.76042 0.5119 0.07742 0.0
C9 C 0.77563 0.47941 0.09105 0.0
C10 C 0.04435 0.49919 0.11116 0.0
C11 C 0.09043 0.53188 0.08618 0.0
C12 C 0.19318 0.46177 0.09936 0.0
C13 C 0.24865 0.46385 0.0968 0.0
C14 C 0.26695 0.4693 0.0853 0.0
C15 C 0.28392 0.46063 0.10615 0.0
C16 C 0.35565 0.4681 0.09258 0.0
C17 C 0.33679 0.46272 0.10408 0.0
C18 C 0.31997 0.47138 0.0832 0.0
C19 C 0.07715 0.48096 0.06771 0.0
O20 O 0.97505 0.46099 0.08907 0.0
O21 O 0.05319 0.44401 0.0945 0.0
O22 O 0.92115 0.51072 0.09685 0.0
O23 O 0.93263 0.5089 0.07748 0.0
O24 O 1.01685 0.51677 0.10731 0.0
O25 O 0.04282 0.48264 0.10368 0.0
O26 O 0.11963 0.51483 0.09076 0.0
O27 O 0.04206 0.52857 0.08309 0.0
O28 O 0.16559 0.44905 0.09195 0.0
O29 O 0.16988 0.48112 0.10282 0.0
O30 O 0.1202 0.47152 0.07115 0.0
O31 O 0.05175 0.48657 0.07691 0.0
H32 H 0.85378 0.47471 0.09693 0.0
H33 H 0.8264 0.53255 0.07266 0.0
H34 H 0.73508 0.52253 0.07192 0.0
H35 H 0.762 0.46489 0.09649 0.0
H36 H 0.24028 0.47195 0.07797 0.0
H37 H 0.27051 0.4566 0.1151 0.0
H38 H 0.36285 0.46052 0.11156 0.0
H39 H 0.33301 0.47533 0.07422 0.0
Gd40 Gd 0.31445 0.73121 0.09125 0.0
Gd41 Gd 0.21237 0.75581 0.09074 0.0
C42 C 0.31103 0.78793 0.0939 0.0
C43 C 0.40796 0.71603 0.08856 0.0
C44 C 0.46243 0.72282 0.09018 0.0
C45 C 0.49599 0.70689 0.0958 0.0
C46 C 0.48226 0.74405 0.08562 0.0
C47 C 0.56888 0.73276 0.09192 0.0
C48 C 0.53499 0.74895 0.08647 0.0
C49 C 0.54854 0.7118 0.09669 0.0
C50 C 0.26344 0.73294 0.11244 0.0
C51 C 0.21958 0.69873 0.08698 0.0
C52 C 0.11873 0.76994 0.09462 0.0
C53 C 0.06398 0.76265 0.09374 0.0
C54 C 0.03519 0.76751 0.08336 0.0
C55 C 0.03855 0.75303 0.10373 0.0
C56 C 0.95652 0.75405 0.09311 0.0
C57 C 0.98556 0.74871 0.1034 0.0
C58 C 0.98219 0.76318 0.08303 0.0
C59 C 0.25962 0.7536 0.0691 0.0
O60 O 0.33774 0.76925 0.0906 0.0
O61 O 0.26124 0.7866 0.09618 0.0
O62 O 0.38083 0.71234 0.09824 0.0
O63 O 0.38181 0.72659 0.08009 0.0
O64 O 0.28765 0.71445 0.10859 0.0
O65 O 0.26808 0.74958 0.10507 0.0
O66 O 0.19116 0.71667 0.0908 0.0
O67 O 0.26851 0.70148 0.08437 0.0
O68 O 0.14371 0.77403 0.08468 0.0
O69 O 0.14735 0.75971 0.10276 0.0
O70 O 0.23388 0.77171 0.07291 0.0
O71 O 0.25778 0.73728 0.07677 0.0
H72 H 0.48167 0.69033 0.0993 0.0
H73 H 0.45723 0.75669 0.08125 0.0
H74 H 0.54926 0.76538 0.08283 0.0
H75 H 0.57348 0.6988 0.1008 0.0
H76 H 0.05329 0.7753 0.07557 0.0
H77 H 0.05937 0.74933 0.11192 0.0
H78 H 0.96724 0.74138 0.11127 0.0
H79 H 0.96105 0.7678 0.07501 0.0
Gd80 Gd 0.98545 0.73305 0.20779 0.0
Gd81 Gd 0.08724 0.75798 0.20795 0.0
C82 C 0.98773 0.78967 0.20481 0.0
C83 C 0.89214 0.71796 0.2108 0.0
C84 C 0.83751 0.7249 0.20943 0.0
C85 C 0.80414 0.70972 0.20329 0.0
C86 C 0.81738 0.74549 0.21465 0.0
C87 C 0.73096 0.73508 0.20789 0.0
C88 C 0.76459 0.7505 0.21391 0.0
C89 C 0.75157 0.71475 0.2025 0.0
C90 C 0.03537 0.73461 0.18646 0.0
C91 C 0.08114 0.70072 0.21141 0.0
C92 C 0.18052 0.77215 0.20376 0.0
C93 C 0.23545 0.76512 0.20482 0.0
C94 C 0.26284 0.76847 0.21555 0.0
C95 C 0.26237 0.75717 0.19467 0.0
C96 C 0.34313 0.75689 0.20582 0.0
C97 C 0.31544 0.75303 0.19518 0.0
C98 C 0.31596 0.76434 0.21605 0.0
C99 C 0.04149 0.75552 0.22976 0.0
O100 O 0.96172 0.77104 0.20839 0.0
O101 O 0.03737 0.78842 0.20234 0.0
O102 O 0.91849 0.71456 0.20098 0.0
O103 O 0.91905 0.72813 0.21925 0.0
O104 O 1.0111 0.71624 0.1904 0.0
O105 O 0.03101 0.75134 0.1938 0.0
O106 O 0.10939 0.719 0.20803 0.0
O107 O 0.03206 0.70292 0.214 0.0
O108 O 0.15528 0.77705 0.21359 0.0
O109 O 0.15228 0.76107 0.19588 0.0
O110 O 0.06648 0.77372 0.22583 0.0
O111 O 0.04309 0.73922 0.22208 0.0
H112 H 0.81864 0.69364 0.19928 0.0
H113 H 0.84222 0.75757 0.21943 0.0
H114 H 0.75011 0.76645 0.21804 0.0
H115 H 0.72682 0.70232 0.19794 0.0
H116 H 0.24356 0.7749 0.2235 0.0
H117 H 0.2426 0.75465 0.18623 0.0
H118 H 0.33485 0.74697 0.18717 0.0
H119 H 0.33601 0.76778 0.22436 0.0
Gd120 Gd 0.32173 0.50351 0.20656 0.0
Gd121 Gd 0.21921 0.47894 0.20731 0.0
C122 C 0.31838 0.44711 0.20469 0.0
C123 C 0.41531 0.51832 0.20934 0.0
C124 C 0.46928 0.51034 0.21057 0.0
C125 C 0.49206 0.4948 0.20231 0.0
C126 C 0.4998 0.52007 0.21965 0.0
C127 C 0.57597 0.50032 0.21174 0.0
C128 C 0.55245 0.51508 0.22027 0.0
C129 C 0.54487 0.48986 0.20289 0.0
C130 C 0.27082 0.50123 0.18535 0.0
C131 C 0.22615 0.53657 0.20961 0.0
C132 C 0.1257 0.46474 0.20349 0.0
C133 C 0.07094 0.47118 0.2055 0.0
C134 C 0.04507 0.46418 0.21598 0.0
C135 C 0.04268 0.48248 0.19641 0.0
C136 C 0.96374 0.4792 0.20811 0.0
C137 C 0.98984 0.48651 0.19772 0.0
C138 C 0.99217 0.4682 0.21728 0.0
C139 C 0.26593 0.48203 0.22894 0.0
O140 O 0.34371 0.46557 0.20868 0.0
O141 O 0.26947 0.4487 0.20155 0.0
O142 O 0.39327 0.51575 0.1989 0.0
O143 O 0.38414 0.51427 0.21831 0.0
O144 O 0.29691 0.51942 0.18886 0.0
O145 O 0.2747 0.48489 0.19296 0.0
O146 O 0.19694 0.51786 0.20755 0.0
O147 O 0.27617 0.53501 0.2111 0.0
O148 O 0.15313 0.45818 0.21274 0.0
O149 O 0.1519 0.47753 0.19589 0.0
O150 O 0.23994 0.46391 0.22531 0.0
O151 O 0.26451 0.49808 0.22108 0.0
H152 H 0.46944 0.48701 0.1952 0.0
H153 H 0.48311 0.53207 0.22613 0.0
H154 H 0.57486 0.52307 0.22735 0.0
H155 H 0.56161 0.47854 0.19613 0.0
H156 H 0.06545 0.45519 0.22311 0.0
H157 H 0.06113 0.48771 0.18813 0.0
H158 H 0.96915 0.49471 0.19039 0.0
H159 H 0.97349 0.46257 0.22546 0.0
Gd160 Gd 0.96276 0.50618 0.957 0.0
Gd161 Gd 0.06527 0.48186 0.95782 0.0
C162 C 0.97046 0.44922 0.96137 0.0
C163 C 0.86979 0.5194 0.95172 0.0
C164 C 0.81506 0.51258 0.95309 0.0
C165 C 0.79059 0.51251 0.96433 0.0
C166 C 0.78568 0.5078 0.94283 0.0
C167 C 0.70806 0.50374 0.95491 0.0
C168 C 0.7329 0.50335 0.94372 0.0
C169 C 0.73768 0.50815 0.96522 0.0
C170 C 1.00436 0.50455 0.97926 0.0
C171 C 0.06182 0.53832 0.95444 0.0
C172 C 0.15859 0.46723 0.96151 0.0
C173 C 0.21335 0.47374 0.95983 0.0
C174 C 0.24457 0.45969 0.95246 0.0
C175 C 0.23604 0.49245 0.96617 0.0
C176 C 0.32065 0.48209 0.95821 0.0
C177 C 0.28909 0.49658 0.96535 0.0
C178 C 0.29745 0.46385 0.95161 0.0
C179 C 1.01843 0.48308 0.93606 0.0
O180 O 0.94253 0.46696 0.95712 0.0
O181 O 1.01859 0.45227 0.96459 0.0
O182 O 0.89458 0.52656 0.96123 0.0
O183 O 0.89826 0.50648 0.94463 0.0
O184 O 0.97773 0.52211 0.97513 0.0
O185 O 1.00564 0.48815 0.97162 0.0
O186 O 0.08781 0.51993 0.95839 0.0
O187 O 1.01268 0.53668 0.95151 0.0
O188 O 0.13211 0.46204 0.95191 0.0
O189 O 0.13168 0.47889 0.96946 0.0
O190 O 0.04206 0.46473 0.94028 0.0
O191 O 1.02164 0.49984 0.94339 0.0
H192 H 0.81205 0.51618 0.97242 0.0
H193 H 0.80339 0.50802 0.93405 0.0
H194 H 0.71125 0.50032 0.93559 0.0
H195 H 0.71991 0.50828 0.97399 0.0
H196 H 0.22821 0.44508 0.94752 0.0
H197 H 0.21313 0.50356 0.97198 0.0
H198 H 0.30558 0.51066 0.97064 0.0
H199 H 0.32023 0.45261 0.94584 0.0
Gd200 Gd 0.84895 0.22551 0.9577 0.0
Gd201 Gd 0.74519 0.2493 0.95808 0.0
C202 C 0.83978 0.28275 0.96111 0.0
C203 C 0.9421 0.21202 0.95283 0.0
C204 C 0.99698 0.21821 0.95444 0.0
C205 C 1.0207 0.21786 0.96576 0.0
C206 C 1.0272 0.22276 0.94429 0.0
C207 C 0.10431 0.22559 0.95661 0.0
C208 C 0.08015 0.22648 0.94535 0.0
C209 C 0.0738 0.22155 0.96683 0.0
C210 C 0.80585 0.22787 0.97978 0.0
C211 C 0.75055 0.19292 0.95519 0.0
C212 C 0.65221 0.26394 0.96208 0.0
C213 C 0.5978 0.25659 0.96218 0.0
C214 C 0.57697 0.24201 0.95326 0.0
C215 C 0.56537 0.26562 0.9711 0.0
C216 C 0.49114 0.24687 0.96183 0.0
C217 C 0.51269 0.26079 0.97095 0.0
C218 C 0.52408 0.23719 0.95309 0.0
C219 C 0.79303 0.24785 0.93642 0.0
O220 O 0.86889 0.26475 0.95765 0.0
O221 O 0.79093 0.27997 0.96377 0.0
O222 O 0.91627 0.20466 0.96216 0.0
O223 O 0.91482 0.22554 0.94577 0.0
O224 O 0.83263 0.21013 0.97593 0.0
O225 O 0.805 0.24394 0.97196 0.0
O226 O 0.72419 0.21108 0.95926 0.0
O227 O 0.79942 0.19497 0.95208 0.0
O228 O 0.67507 0.26562 0.95168 0.0
O229 O 0.68204 0.25534 0.97045 0.0
O230 O 0.76689 0.26583 0.94025 0.0
O231 O 0.79064 0.23138 0.94397 0.0
H232 H 0.99855 0.21424 0.97376 0.0
H233 H 1.00995 0.22301 0.93545 0.0
H234 H 0.10222 0.22994 0.93732 0.0
H235 H 0.09115 0.22054 0.97563 0.0
H236 H 0.6013 0.23478 0.94629 0.0
H237 H 0.5807 0.27683 0.97809 0.0
H238 H 0.48875 0.26814 0.97796 0.0
H239 H 0.50879 0.2265 0.9459 0.0
Gd240 Gd 0.95827 0.22791 0.84116 0.0
Gd241 Gd 0.06245 0.25119 0.83985 0.0
C242 C 0.9681 0.28501 0.837 0.0
C243 C 0.86588 0.21532 0.84718 0.0
C244 C 0.8108 0.22108 0.84544 0.0
C245 C 0.78743 0.22039 0.83409 0.0
C246 C 0.78019 0.22577 0.85551 0.0
C247 C 0.70339 0.22817 0.84304 0.0
C248 C 0.72717 0.22932 0.85434 0.0
C249 C 0.73427 0.22388 0.83291 0.0
C250 C 0.99718 0.22949 0.81868 0.0
C251 C 0.05709 0.1949 0.84282 0.0
C252 C 0.15546 0.26508 0.8353 0.0
C253 C 0.20979 0.25758 0.83583 0.0
C254 C 0.2287 0.24316 0.84507 0.0
C255 C 0.24389 0.26602 0.82711 0.0
C256 C 0.31589 0.24669 0.8371 0.0
C257 C 0.29632 0.26065 0.82772 0.0
C258 C 0.28134 0.23782 0.84572 0.0
C259 C 1.01802 0.24929 0.86194 0.0
O260 O 0.93925 0.26734 0.84096 0.0
O261 O 1.01643 0.28177 0.83397 0.0
O262 O 0.89112 0.20612 0.83818 0.0
O263 O 0.89339 0.23028 0.85335 0.0
O264 O 0.96882 0.21257 0.82281 0.0
O265 O 1.0008 0.2457 0.8264 0.0
O266 O 0.08289 0.213 0.83856 0.0
O267 O 1.00872 0.19711 0.84637 0.0
O268 O 0.13198 0.26897 0.84547 0.0
O269 O 0.12617 0.2547 0.82739 0.0
O270 O 0.04345 0.26734 0.85799 0.0
O271 O 1.0192 0.23314 0.85426 0.0
H272 H 0.81 0.21681 0.82614 0.0
H273 H 0.79718 0.22616 0.86437 0.0
H274 H 0.7046 0.23228 0.86235 0.0
H275 H 0.71734 0.22317 0.82406 0.0
H276 H 0.20297 0.23633 0.85186 0.0
H277 H 0.23008 0.27723 0.81993 0.0
H278 H 0.32176 0.26804 0.82103 0.0
H279 H 0.295 0.22678 0.85297 0.0
Gd280 Gd 0.85491 0.50907 0.84051 0.0
Gd281 Gd 0.74488 0.4848 0.83978 0.0
C282 C 0.84147 0.45253 0.83562 0.0
C283 C 0.94361 0.52301 0.84814 0.0
C284 C 0.99897 0.52024 0.8453 0.0
C285 C 0.02973 0.54038 0.84402 0.0
C286 C 1.02215 0.4979 0.84438 0.0
C287 C 0.10636 0.516 0.84135 0.0
C288 C 0.07523 0.49581 0.84245 0.0
C289 C 0.08272 0.53832 0.84203 0.0
C290 C 0.82464 0.50327 0.81733 0.0
C291 C 0.7529 0.54155 0.84174 0.0
C292 C 0.65073 0.4709 0.83705 0.0
C293 C 0.59774 0.4798 0.83549 0.0
C294 C 0.56214 0.46599 0.82923 0.0
C295 C 0.58098 0.50072 0.84099 0.0
C296 C 0.4927 0.49289 0.83466 0.0
C297 C 0.52892 0.50718 0.84059 0.0
C298 C 0.51021 0.47246 0.82879 0.0
C299 C 0.79761 0.4844 0.86079 0.0
O300 O 0.87064 0.46959 0.84014 0.0
O301 O 0.79279 0.45577 0.83274 0.0
O302 O 0.9157 0.53527 0.84056 0.0
O303 O 0.91957 0.50452 0.85245 0.0
O304 O 0.86834 0.51239 0.82047 0.0
O305 O 0.80046 0.49785 0.82671 0.0
O306 O 0.72499 0.52303 0.83877 0.0
O307 O 0.80287 0.54019 0.84408 0.0
O308 O 0.67217 0.47455 0.84749 0.0
O309 O 0.68276 0.47338 0.82808 0.0
O310 O 0.77144 0.46656 0.85684 0.0
O311 O 0.79411 0.50132 0.85354 0.0
H312 H 1.01279 0.5578 0.84468 0.0
H313 H 0.99949 0.482 0.84534 0.0
H314 H 0.092 0.47834 0.84212 0.0
H315 H 0.10515 0.55426 0.84102 0.0
H316 H 0.57422 0.44972 0.82499 0.0
H317 H 0.60784 0.51173 0.84585 0.0
H318 H 0.51689 0.52321 0.84506 0.0
H319 H 0.48344 0.46091 0.82425 0.0
Gd320 Gd 0.99041 0.00014 0.58938 0.0
Gd321 Gd 0.09376 0.97647 0.59078 0.0
C322 C 0.99504 0.94368 0.59248 0.0
C323 C 0.89739 0.01415 0.58483 0.0
C324 C 0.84259 0.00797 0.58668 0.0
C325 C 0.81093 0.02352 0.59311 0.0
C326 C 0.82037 0.98792 0.58139 0.0
C327 C 0.73534 -0.00018 0.5885 0.0
C328 C 0.76731 0.98389 0.58231 0.0
C329 C 0.75807 0.01947 0.59406 0.0
C330 C 0.03317 -0.00216 0.61163 0.0
C331 C 0.08492 0.03352 0.58698 0.0
C332 C 0.18645 0.96362 0.59653 0.0
C333 C 0.24127 0.96995 0.59483 0.0
C334 C 0.26587 0.96758 0.58368 0.0
C335 C 0.27055 0.97684 0.6048 0.0
C336 C 0.34826 0.97831 0.5926 0.0
C337 C 0.32334 0.98106 0.60369 0.0
C338 C 0.31879 0.97171 0.58258 0.0
C339 C 0.05535 0.97865 0.56821 0.0
O340 O 0.96919 0.96195 0.58835 0.0
O341 O 0.04357 0.94568 0.59591 0.0
O342 O 0.92347 0.02098 0.59421 0.0
O343 O 0.92457 0.00111 0.5775 0.0
O344 O 1.00757 0.01585 0.60767 0.0
O345 O 0.03278 0.98175 0.6039 0.0
O346 O 0.11278 0.01576 0.59121 0.0
O347 O 0.03736 0.03032 0.58334 0.0
O348 O 0.16131 0.95505 0.58737 0.0
O349 O 0.15844 0.97785 0.60305 0.0
O350 O 0.08253 0.96133 0.57239 0.0
O351 O 0.05229 -0.0052 0.57596 0.0
H352 H 0.82698 0.03916 0.59723 0.0
H353 H 0.84366 0.97563 0.57632 0.0
H354 H 0.75118 0.96869 0.57783 0.0
H355 H 0.73493 0.03187 0.5991 0.0
H356 H 0.24449 0.96222 0.57582 0.0
H357 H 0.25275 0.9785 0.61353 0.0
H358 H 0.34491 0.98581 0.61163 0.0
H359 H 0.33667 0.9697 0.57388 0.0
Gd360 Gd 0.31421 0.23293 0.59006 0.0
Gd361 Gd 0.2111 0.25695 0.5901 0.0
C362 C 0.30942 0.28953 0.59279 0.0
C363 C 0.40732 0.21851 0.58607 0.0
C364 C 0.46178 0.22596 0.58652 0.0
C365 C 0.48526 0.23325 0.59723 0.0
C366 C 0.49183 0.22407 0.57613 0.0
C367 C 0.56864 0.23535 0.58723 0.0
C368 C 0.54456 0.22877 0.57646 0.0
C369 C 0.53817 0.2379 0.59758 0.0
C370 C 0.26661 0.23504 0.6117 0.0
C371 C 0.21925 0.19964 0.58723 0.0
C372 C 0.1176 0.27079 0.59435 0.0
C373 C 0.06293 0.26401 0.59273 0.0
C374 C 0.03457 0.27264 0.58294 0.0
C375 C 0.03723 0.25083 0.60156 0.0
C376 C 0.95578 0.25563 0.591 0.0
C377 C 0.98433 0.24664 0.60069 0.0
C378 C 0.98169 0.26841 0.58206 0.0
C379 C 0.25529 0.25386 0.56813 0.0
O380 O 0.33606 0.27115 0.58907 0.0
O381 O 0.26016 0.28772 0.59558 0.0
O382 O 0.38321 0.21526 0.59622 0.0
O383 O 0.37829 0.22817 0.57784 0.0
O384 O 0.29303 0.21703 0.60803 0.0
O385 O 0.26873 0.25133 0.60404 0.0
O386 O 0.19058 0.21781 0.59065 0.0
O387 O 0.26804 0.20225 0.58445 0.0
O388 O 0.14366 0.27705 0.58485 0.0
O389 O 0.14512 0.25849 0.60192 0.0
O390 O 0.22943 0.27195 0.57189 0.0
O391 O 0.25497 0.23794 0.57603 0.0
H392 H 0.46311 0.23483 0.6054 0.0
H393 H 0.47465 0.21845 0.56777 0.0
H394 H 0.56656 0.22706 0.56827 0.0
H395 H 0.55544 0.24275 0.60604 0.0
H396 H 0.05294 0.28321 0.57609 0.0
H397 H 0.05771 0.24415 0.6093 0.0
H398 H 0.96571 0.23649 0.60767 0.0
H399 H 0.96079 0.27585 0.57456 0.0
Gd400 Gd 0.99278 0.23138 0.70762 0.0
Gd401 Gd 0.09543 0.25553 0.70757 0.0
C402 C 0.99643 0.28798 0.70509 0.0
C403 C 0.89927 0.21698 0.71107 0.0
C404 C 0.8448 0.22434 0.70972 0.0
C405 C 0.81386 0.21337 0.70105 0.0
C406 C 0.82197 0.24065 0.71759 0.0
C407 C 0.73809 0.23422 0.70837 0.0
C408 C 0.7692 0.24552 0.71692 0.0
C409 C 0.76122 0.21832 0.70035 0.0
C410 C 0.04066 0.23371 0.686 0.0
C411 C 0.08768 0.19832 0.71112 0.0
C412 C 0.18843 0.26956 0.70307 0.0
C413 C 0.24332 0.26285 0.70402 0.0
C414 C 0.26734 0.25906 0.71514 0.0
C415 C 0.2732 0.26203 0.69357 0.0
C416 C 0.35075 0.2549 0.7053 0.0
C417 C 0.32621 0.25803 0.69419 0.0
C418 C 0.32051 0.25509 0.71577 0.0
C419 C 0.05078 0.25316 0.72947 0.0
O420 O 0.97023 0.26945 0.70872 0.0
O421 O 0.04572 0.28638 0.70226 0.0
O422 O 0.92528 0.21273 0.70128 0.0
O423 O 0.92689 0.22738 0.71931 0.0
O424 O 1.01522 0.21549 0.68972 0.0
O425 O 0.03788 0.24994 0.69365 0.0
O426 O 0.11614 0.21626 0.70734 0.0
O427 O 0.03899 0.2012 0.71393 0.0
O428 O 0.16359 0.2748 0.7129 0.0
O429 O 0.16033 0.25787 0.69541 0.0
O430 O 0.07663 0.27113 0.72559 0.0
O431 O 0.05141 0.23692 0.72175 0.0
H432 H 0.83016 0.20047 0.69499 0.0
H433 H 0.84458 0.24935 0.72442 0.0
H434 H 0.75268 0.25805 0.72315 0.0
H435 H 0.73832 0.20908 0.69376 0.0
H436 H 0.24535 0.25967 0.72337 0.0
H437 H 0.25566 0.26497 0.68489 0.0
H438 H 0.34804 0.25757 0.68593 0.0
H439 H 0.33813 0.25292 0.72449 0.0
Gd440 Gd 0.30783 -0.00308 0.70758 0.0
Gd441 Gd 0.19626 0.97377 0.70705 0.0
C442 C 0.29721 0.94033 0.70641 0.0
C443 C 0.40235 0.01026 0.71031 0.0
C444 C 0.45501 0.00146 0.71244 0.0
C445 C 0.47088 0.97911 0.70848 0.0
C446 C 0.49132 0.0167 0.71751 0.0
C447 C 0.55984 0.98818 0.71382 0.0
C448 C 0.54315 0.01016 0.7182 0.0
C449 C 0.52281 0.97252 0.70918 0.0
C450 C 0.25581 -0.00327 0.68644 0.0
C451 C 0.21258 0.03044 0.71118 0.0
C452 C 0.10806 0.95969 0.6991 0.0
C453 C 0.05258 0.96158 0.70158 0.0
C454 C 0.03387 0.97215 0.71208 0.0
C455 C 1.01769 0.95305 0.69308 0.0
C456 C 0.94543 0.96592 0.70538 0.0
C457 C 0.96472 0.95516 0.69495 0.0
C458 C 0.98068 0.97424 0.71398 0.0
C459 C 0.22671 0.98 0.73015 0.0
O460 O 0.32569 0.95865 0.70937 0.0
O461 O 0.24751 0.94214 0.7038 0.0
O462 O 0.38183 0.00516 0.69993 0.0
O463 O 0.36945 0.00924 0.71919 0.0
O464 O 0.28418 0.01416 0.69002 0.0
O465 O 0.25752 0.98034 0.69403 0.0
O466 O 0.18238 0.01343 0.70697 0.0
O467 O 0.2612 0.02689 0.71402 0.0
O468 O 0.13589 0.9475 0.70672 0.0
O469 O 0.13076 0.97898 0.69539 0.0
O470 O 0.18253 0.97125 0.72708 0.0
O471 O 0.25123 0.98492 0.72074 0.0
H472 H 0.44345 0.96706 0.70453 0.0
H473 H 0.47991 0.03408 0.72053 0.0
H474 H 0.57044 0.02282 0.72168 0.0
H475 H 0.53409 0.95531 0.7059 0.0
H476 H 0.06033 0.97895 0.71872 0.0
H477 H 0.03147 0.94482 0.68493 0.0
H478 H 0.93882 0.94823 0.68823 0.0
H479 H 0.96719 0.9828 0.72205 0.0
Gd480 Gd 0.96399 0.00429 0.45686 0.0
Gd481 Gd 0.06638 0.98011 0.45699 0.0
C482 C 0.9719 0.94736 0.46128 0.0
C483 C 0.87062 0.01786 0.45225 0.0
C484 C 0.81587 0.01076 0.45325 0.0
C485 C 0.78916 0.01231 0.46418 0.0
C486 C 0.78849 0.00453 0.44289 0.0
C487 C 0.70841 0.0025 0.45422 0.0
C488 C 0.7355 0.00036 0.44337 0.0
C489 C 0.73609 0.00817 0.46466 0.0
C490 C 1.00893 0.00287 0.47877 0.0
C491 C 0.06222 0.0367 0.45381 0.0
C492 C 0.16002 0.96537 0.46003 0.0
C493 C 0.21442 0.97235 0.45838 0.0
C494 C 0.24701 0.9577 0.45167 0.0
C495 C 0.23529 -0.00768 0.46403 0.0
C496 C 0.32087 0.98222 0.4566 0.0
C497 C 0.28802 -0.00284 0.46316 0.0
C498 C 0.29955 0.9626 0.45074 0.0
C499 C 1.01672 0.98105 0.4356 0.0
O500 O 0.94336 0.96509 0.45723 0.0
O501 O 1.02063 0.95039 0.464 0.0
O502 O 0.89524 0.02337 0.46207 0.0
O503 O 0.89939 0.00641 0.4446 0.0
O504 O 0.98288 0.02068 0.4747 0.0
O505 O 1.00858 0.98635 0.47121 0.0
O506 O 0.08898 0.01828 0.45746 0.0
O507 O 1.01275 0.035 0.45124 0.0
O508 O 0.13321 0.96116 0.45036 0.0
O509 O 0.13336 0.97609 0.46835 0.0
O510 O 0.04061 0.96269 0.43973 0.0
O511 O 1.02097 -0.00209 0.44283 0.0
H512 H 0.80889 0.01734 0.47232 0.0
H513 H 0.80786 0.0034 0.43431 0.0
H514 H 0.71567 -0.00433 0.43518 0.0
H515 H 0.71648 0.01024 0.47315 0.0
H516 H 0.23197 0.94208 0.44733 0.0
H517 H 0.21114 0.00399 0.46926 0.0
H518 H 0.30312 0.01258 0.46766 0.0
H519 H 0.32376 0.95057 0.44574 0.0
Gd520 Gd 0.85924 0.72363 0.45822 0.0
Gd521 Gd 0.7482 0.7476 0.45913 0.0
C522 C 0.84434 0.78029 0.46285 0.0
C523 C 0.94768 0.71018 0.45014 0.0
C524 C 1.00325 0.71297 0.45255 0.0
C525 C 1.02435 0.70955 0.46401 0.0
C526 C 0.03594 0.71911 0.44306 0.0
C527 C 0.11016 0.7185 0.45639 0.0
C528 C 0.08873 0.72189 0.44495 0.0
C529 C 0.07736 0.7122 0.4659 0.0
C530 C 0.82963 0.72965 0.48141 0.0
C531 C 0.75753 0.69088 0.45715 0.0
C532 C 0.65406 0.76115 0.46238 0.0
C533 C 0.60109 0.75234 0.46407 0.0
C534 C 0.58076 0.73425 0.4569 0.0
C535 C 0.56873 0.76391 0.47221 0.0
C536 C 0.49519 0.74109 0.46524 0.0
C537 C 0.51642 0.75833 0.47282 0.0
C538 C 0.5283 0.72869 0.45748 0.0
C539 C 0.79952 0.74757 0.4379 0.0
O540 O 0.87386 0.76319 0.45844 0.0
O541 O 0.79574 0.77702 0.46577 0.0
O542 O 0.9204 0.69766 0.45772 0.0
O543 O 0.92356 0.72901 0.44624 0.0
O544 O 0.87345 0.72056 0.47824 0.0
O545 O 0.80506 0.73488 0.47205 0.0
O546 O 0.72928 0.70935 0.4601 0.0
O547 O 0.80754 0.69231 0.45482 0.0
O548 O 0.67484 0.75807 0.45181 0.0
O549 O 0.68674 0.75837 0.47121 0.0
O550 O 0.77161 0.76511 0.44162 0.0
O551 O 0.79756 0.73103 0.4454 0.0
H552 H 0.99996 0.7049 0.47151 0.0
H553 H 1.02056 0.72174 0.43414 0.0
H554 H 0.11289 0.72643 0.43739 0.0
H555 H 0.09256 0.70969 0.47484 0.0
H556 H 0.60496 0.72499 0.45056 0.0
H557 H 0.5836 0.77788 0.47784 0.0
H558 H 0.49237 0.76788 0.47908 0.0
H559 H 0.51335 0.71542 0.45146 0.0
Gd560 Gd 0.96154 0.72731 0.34159 0.0
Gd561 Gd 0.06479 0.75124 0.34071 0.0
C562 C 0.96951 0.78448 0.33794 0.0
C563 C 0.86905 0.71414 0.34716 0.0
C564 C 0.81424 0.72049 0.34559 0.0
C565 C 0.79175 0.72296 0.33421 0.0
C566 C 0.78312 0.72284 0.35579 0.0
C567 C 0.70748 0.72934 0.34332 0.0
C568 C 0.73041 0.72726 0.35468 0.0
C569 C 0.73885 0.7273 0.33309 0.0
C570 C 1.00176 0.72942 0.31923 0.0
C571 C 0.06086 0.69476 0.34381 0.0
C572 C 0.15793 0.76537 0.33651 0.0
C573 C 0.21279 0.75871 0.33799 0.0
C574 C 0.24332 0.77105 0.34624 0.0
C575 C 0.23635 0.74179 0.33058 0.0
C576 C 0.32025 0.75049 0.33934 0.0
C577 C 0.28947 0.7377 0.33127 0.0
C578 C 0.29627 0.76692 0.34695 0.0
C579 C 1.01971 0.74905 0.36269 0.0
O580 O 0.9407 0.7664 0.34132 0.0
O581 O 1.01837 0.782 0.3352 0.0
O582 O 0.89415 0.70612 0.33786 0.0
O583 O 0.8968 0.72811 0.35385 0.0
O584 O 0.97473 0.71202 0.32335 0.0
O585 O 1.00422 0.74565 0.32698 0.0
O586 O 0.08694 0.71311 0.33991 0.0
O587 O 1.01181 0.69657 0.34685 0.0
O588 O 0.13227 0.77086 0.34618 0.0
O589 O 0.13024 0.75367 0.32874 0.0
O590 O 0.04563 0.76705 0.35887 0.0
O591 O 1.02125 0.73291 0.35499 0.0
H592 H 0.81481 0.72129 0.32618 0.0
H593 H 0.79949 0.72081 0.36466 0.0
H594 H 0.70737 0.72842 0.36274 0.0
H595 H 0.72251 0.72909 0.32422 0.0
H596 H 0.22641 0.78432 0.352 0.0
H597 H 0.21407 0.73211 0.32404 0.0
H598 H 0.30663 0.72507 0.3252 0.0
H599 H 0.31851 0.7768 0.35342 0.0
Gd600 Gd 0.84611 0.00692 0.34151 0.0
Gd601 Gd 0.73618 0.98247 0.34057 0.0
C602 C 0.833 0.95027 0.33655 0.0
C603 C 0.93401 0.02067 0.34979 0.0
C604 C 0.98952 0.01797 0.34736 0.0
C605 C 1.00802 0.01194 0.33596 0.0
C606 C 1.02464 0.02138 0.35672 0.0
C607 C 0.09659 0.01307 0.34332 0.0
C608 C 0.07754 0.01896 0.35474 0.0
C609 C 0.06106 0.00954 0.33395 0.0
C610 C 0.81698 0.0014 0.31828 0.0
C611 C 0.7441 0.03929 0.34231 0.0
C612 C 0.64188 0.9687 0.33789 0.0
C613 C 0.58851 0.97711 0.33615 0.0
C614 C 0.56922 -0.00306 0.34222 0.0
C615 C 0.55483 0.96356 0.32919 0.0
C616 C 0.48227 0.98823 0.33519 0.0
C617 C 0.50238 0.96906 0.32869 0.0
C618 C 0.51662 0.00245 0.34174 0.0
C619 C 0.78829 0.98224 0.36165 0.0
O620 O 0.8626 0.96755 0.34067 0.0
O621 O 0.7839 0.95306 0.33395 0.0
O622 O 0.907 0.03289 0.34201 0.0
O623 O 0.91006 0.00184 0.35369 0.0
O624 O 0.86004 0.01094 0.3216 0.0
O625 O 0.79224 -0.00442 0.32754 0.0
O626 O 0.71649 0.02069 0.33932 0.0
O627 O 0.79389 0.03803 0.34484 0.0
O628 O 0.66306 0.97295 0.3483 0.0
O629 O 0.67413 0.97065 0.32892 0.0
O630 O 0.76233 0.96435 0.3577 0.0
O631 O 0.78485 -0.0009 0.35437 0.0
H632 H 0.9815 0.00915 0.32861 0.0
H633 H 1.0111 0.02586 0.36561 0.0
H634 H 0.10347 0.02137 0.36222 0.0
H635 H 0.07424 0.0052 0.32502 0.0
H636 H 0.59444 0.0077 0.34766 0.0
H637 H 0.56884 0.9482 0.32443 0.0
H638 H 0.47739 0.958 0.32335 0.0
H639 H 0.5026 0.01727 0.3469 0.0
Gd640 Gd 0.48994 0.50151 0.58983 0.0
Gd641 Gd 0.59312 0.47813 0.59129 0.0
C642 C 0.49517 0.44507 0.59343 0.0
C643 C 0.39636 0.51523 0.5856 0.0
C644 C 0.34167 0.50859 0.58743 0.0
C645 C 0.31426 0.51707 0.5974 0.0
C646 C 0.31494 0.49575 0.57865 0.0
C647 C 0.23431 0.50077 0.58955 0.0
C648 C 0.26197 0.49181 0.57972 0.0
C649 C 0.26132 0.51314 0.59846 0.0
C650 C 0.53431 0.50072 0.61189 0.0
C651 C 0.58386 0.53486 0.58634 0.0
C652 C 0.68561 0.46552 0.59729 0.0
C653 C 0.74016 0.47242 0.59615 0.0
C654 C 0.76161 0.47933 0.58515 0.0
C655 C 0.77207 0.47076 0.60624 0.0
C656 C 0.84673 0.48183 0.5943 0.0
C657 C 0.82473 0.47543 0.60534 0.0
C658 C 0.81443 0.48394 0.58423 0.0
C659 C 0.55347 0.47873 0.56881 0.0
O660 O 0.46869 0.46323 0.58938 0.0
O661 O 0.54398 0.44717 0.59657 0.0
O662 O 0.4228 0.52182 0.59498 0.0
O663 O 0.42361 0.50268 0.57807 0.0
O664 O 0.51054 0.51888 0.60752 0.0
O665 O 0.53267 0.48398 0.60454 0.0
O666 O 0.61218 0.5175 0.59086 0.0
O667 O 0.53606 0.53126 0.58299 0.0
O668 O 0.66219 0.458 0.58766 0.0
O669 O 0.65631 0.47875 0.60404 0.0
O670 O 0.58081 0.46166 0.57321 0.0
O671 O 0.55084 0.49537 0.5763 0.0
H672 H 0.33344 0.52725 0.60427 0.0
H673 H 0.33464 0.48927 0.57076 0.0
H674 H 0.24239 0.48247 0.57261 0.0
H675 H 0.24145 0.52001 0.60624 0.0
H676 H 0.73776 0.48084 0.57723 0.0
H677 H 0.7564 0.46535 0.6148 0.0
H678 H 0.84844 0.47335 0.61325 0.0
H679 H 0.82999 0.48913 0.57563 0.0
Gd680 Gd 0.80854 0.73299 0.591 0.0
Gd681 Gd 0.69932 0.75838 0.59162 0.0
C682 C 0.8022 0.78987 0.59362 0.0
C683 C 0.90264 0.71877 0.58829 0.0
C684 C 0.95591 0.72758 0.5872 0.0
C685 C 0.99131 0.71481 0.58029 0.0
C686 C 0.97301 0.74734 0.59363 0.0
C687 C 0.06109 0.74046 0.58681 0.0
C688 C 1.02512 0.75369 0.59346 0.0
C689 C 0.04329 0.72118 0.58007 0.0
C690 C 0.75453 0.73211 0.61178 0.0
C691 C 0.71118 0.70195 0.58582 0.0
C692 C 0.61032 0.77216 0.59925 0.0
C693 C 0.55496 0.76936 0.59647 0.0
C694 C 0.52309 0.78933 0.59619 0.0
C695 C 0.53288 0.74703 0.59465 0.0
C696 C 0.44745 0.76475 0.59282 0.0
C697 C 0.47974 0.74476 0.59287 0.0
C698 C 0.47003 0.78709 0.59436 0.0
C699 C 0.73136 0.75358 0.56852 0.0
O700 O 0.82973 0.77112 0.59074 0.0
O701 O 0.7519 0.78899 0.59562 0.0
O702 O 0.88035 0.72132 0.59872 0.0
O703 O 0.8714 0.72244 0.57927 0.0
O704 O 0.7804 0.71422 0.60773 0.0
O705 O 0.75892 0.74937 0.60477 0.0
O706 O 0.68216 0.71907 0.59039 0.0
O707 O 0.76035 0.7048 0.58332 0.0
O708 O 0.63803 0.7845 0.59169 0.0
O709 O 0.63457 0.75363 0.60349 0.0
O710 O 0.6883 0.76351 0.57159 0.0
O711 O 0.75422 0.74716 0.57793 0.0
H712 H 0.97899 0.69943 0.57531 0.0
H713 H 0.94637 0.75754 0.59901 0.0
H714 H 0.03734 0.76884 0.59861 0.0
H715 H 0.06985 0.71044 0.57496 0.0
H716 H 0.53919 0.80673 0.59755 0.0
H717 H 0.55649 0.73128 0.59481 0.0
H718 H 0.46385 0.72725 0.59185 0.0
H719 H 0.4467 0.80292 0.59416 0.0
Gd720 Gd 0.48528 0.72935 0.70844 0.0
Gd721 Gd 0.58752 0.75336 0.7069 0.0
C722 C 0.48811 0.78571 0.70486 0.0
C723 C 0.392 0.71517 0.71253 0.0
C724 C 0.33721 0.72165 0.71068 0.0
C725 C 0.3066 0.70775 0.70312 0.0
C726 C 0.31381 0.74014 0.71708 0.0
C727 C 0.22983 0.72994 0.70875 0.0
C728 C 0.26074 0.74425 0.71611 0.0
C729 C 0.25371 0.71189 0.70212 0.0
C730 C 0.52967 0.73025 0.68638 0.0
C731 C 0.58018 0.69656 0.71199 0.0
C732 C 0.67998 0.76616 0.70099 0.0
C733 C 0.73489 0.75962 0.70244 0.0
C734 C 0.75892 0.75937 0.71373 0.0
C735 C 0.76478 0.75521 0.69222 0.0
C736 C 0.84209 0.75118 0.70443 0.0
C737 C 0.81768 0.75097 0.69319 0.0
C738 C 0.81194 0.75522 0.7147 0.0
C739 C 0.54829 0.7527 0.72941 0.0
O740 O 0.46271 0.7674 0.70903 0.0
O741 O 0.53689 0.78395 0.70159 0.0
O742 O 0.41853 0.70898 0.70309 0.0
O743 O 0.41895 0.72754 0.72017 0.0
O744 O 0.50681 0.71195 0.69082 0.0
O745 O 0.52729 0.74706 0.69368 0.0
O746 O 0.60784 0.71406 0.70744 0.0
O747 O 0.53227 0.6999 0.71535 0.0
O748 O 0.65548 0.77432 0.71034 0.0
O749 O 0.65145 0.75239 0.69436 0.0
O750 O 0.57494 0.76988 0.72494 0.0
O751 O 0.54606 0.73597 0.72197 0.0
H752 H 0.32343 0.69328 0.69814 0.0
H753 H 0.33616 0.75111 0.72306 0.0
H754 H 0.24374 0.75817 0.72144 0.0
H755 H 0.23145 0.70078 0.69619 0.0
H756 H 0.737 0.76272 0.7218 0.0
H757 H 0.74737 0.75556 0.6834 0.0
H758 H 0.83971 0.74822 0.68508 0.0
H759 H 0.82935 0.7552 0.72351 0.0
Gd760 Gd 0.80811 0.49886 0.70803 0.0
Gd761 Gd 0.69922 0.47341 0.70682 0.0
C762 C 0.80292 0.44196 0.70452 0.0
C763 C 0.90154 0.5128 0.71188 0.0
C764 C 0.95576 0.5051 0.71049 0.0
C765 C 0.98862 0.5182 0.70306 0.0
C766 C 0.97616 0.48588 0.71691 0.0
C767 C 0.06158 0.49345 0.70865 0.0
C768 C 0.02855 0.48015 0.71601 0.0
C769 C 0.04077 0.51242 0.70211 0.0
C770 C 0.75717 0.49917 0.68683 0.0
C771 C 0.71005 0.52964 0.71272 0.0
C772 C 0.611 0.45986 0.69871 0.0
C773 C 0.55551 0.46341 0.70111 0.0
C774 C 0.52282 0.44378 0.70164 0.0
C775 C 0.53421 0.48608 0.70234 0.0
C776 C 0.44806 0.46938 0.70409 0.0
C777 C 0.48106 0.48903 0.70377 0.0
C778 C 0.46971 0.44671 0.70315 0.0
C779 C 0.7284 0.47899 0.73009 0.0
O780 O 0.83081 0.46093 0.70671 0.0
O781 O 0.7521 0.44254 0.70331 0.0
O782 O 0.87613 0.5175 0.70204 0.0
O783 O 0.87327 0.50234 0.72002 0.0
O784 O 0.78303 0.51703 0.69087 0.0
O785 O 0.76045 0.48214 0.69403 0.0
O786 O 0.68208 0.51275 0.70766 0.0
O787 O 0.75835 0.52637 0.71593 0.0
O788 O 0.63732 0.44772 0.70664 0.0
O789 O 0.63642 0.47793 0.69437 0.0
O790 O 0.68593 0.46884 0.72684 0.0
O791 O 0.75208 0.48516 0.72077 0.0
H792 H 0.97409 0.53324 0.69812 0.0
H793 H 0.95189 0.47542 0.72273 0.0
H794 H 0.04318 0.46529 0.72107 0.0
H795 H 0.06511 0.52327 0.6965 0.0
H796 H 0.53831 0.42613 0.70067 0.0
H797 H 0.55848 0.50157 0.70203 0.0
H798 H 0.46578 0.50672 0.70464 0.0
H799 H 0.44544 0.43121 0.70324 0.0
Gd800 Gd 0.46367 0.50576 0.45749 0.0
Gd801 Gd 0.56621 0.48083 0.45743 0.0
C802 C 0.47025 0.44834 0.46079 0.0
C803 C 0.37046 0.51994 0.45307 0.0
C804 C 0.31552 0.51336 0.45447 0.0
C805 C 0.2903 0.51492 0.46558 0.0
C806 C 0.28659 0.50736 0.44429 0.0
C807 C 0.20805 0.50535 0.45621 0.0
C808 C 0.23362 0.50334 0.44515 0.0
C809 C 0.23723 0.51091 0.46645 0.0
C810 C 0.5082 0.50288 0.47938 0.0
C811 C 0.56353 0.53742 0.4551 0.0
C812 C 0.65935 0.46568 0.46086 0.0
C813 C 0.71385 0.47312 0.46093 0.0
C814 C 0.73523 0.48668 0.45164 0.0
C815 C 0.74591 0.46515 0.47019 0.0
C816 C 0.82069 0.48291 0.46059 0.0
C817 C 0.79863 0.47001 0.47005 0.0
C818 C 0.78813 0.49153 0.45148 0.0
C819 C 0.51705 0.48313 0.43596 0.0
O820 O 0.44196 0.46672 0.45744 0.0
O821 O 0.51952 0.45046 0.4632 0.0
O822 O 0.39628 0.52597 0.46264 0.0
O823 O 0.39798 0.50761 0.44553 0.0
O824 O 0.48235 0.52096 0.47557 0.0
O825 O 0.5077 0.48676 0.47158 0.0
O826 O 0.58897 0.51874 0.45887 0.0
O827 O 0.51434 0.53618 0.45213 0.0
O828 O 0.63576 0.46476 0.45052 0.0
O829 O 0.62993 0.47351 0.46949 0.0
O830 O 0.5423 0.46479 0.43968 0.0
O831 O 0.52082 0.49949 0.44353 0.0
H832 H 0.31124 0.51976 0.47359 0.0
H833 H 0.30481 0.50622 0.43558 0.0
H834 H 0.21264 0.49874 0.43711 0.0
H835 H 0.21881 0.51287 0.47508 0.0
H836 H 0.71133 0.49309 0.44439 0.0
H837 H 0.73028 0.45471 0.47746 0.0
H838 H 0.82218 0.4635 0.47734 0.0
H839 H 0.80373 0.50139 0.44401 0.0
Gd840 Gd 0.34265 0.22603 0.45638 0.0
Gd841 Gd 0.23921 0.24944 0.4579 0.0
C842 C 0.3335 0.28283 0.46082 0.0
C843 C 0.43511 0.21342 0.45037 0.0
C844 C 0.4897 0.22014 0.45165 0.0
C845 C 0.51083 0.22675 0.46273 0.0
C846 C 0.52192 0.21868 0.44161 0.0
C847 C 0.59624 0.22941 0.45372 0.0
C848 C 0.57455 0.22328 0.44261 0.0
C849 C 0.56365 0.23129 0.46375 0.0
C850 C 0.30379 0.22725 0.47894 0.0
C851 C 0.24487 0.19296 0.45427 0.0
C852 C 0.14582 0.26316 0.46231 0.0
C853 C 0.09106 0.25651 0.4606 0.0
C854 C 0.06325 0.2651 0.45071 0.0
C855 C 0.06469 0.24355 0.46941 0.0
C856 C 0.98365 0.24869 0.45869 0.0
C857 C 1.01168 0.23961 0.46845 0.0
C858 C 1.0103 0.26116 0.44975 0.0
C859 C 0.28338 0.24875 0.43582 0.0
O860 O 0.36156 0.2653 0.45643 0.0
O861 O 0.28582 0.27943 0.46434 0.0
O862 O 0.41137 0.20555 0.45989 0.0
O863 O 0.40614 0.22702 0.44372 0.0
O864 O 0.33129 0.21013 0.47466 0.0
O865 O 0.30061 0.24362 0.4713 0.0
O866 O 0.21827 0.21106 0.45836 0.0
O867 O 0.29358 0.19518 0.45109 0.0
O868 O 0.17185 0.26968 0.45285 0.0
O869 O 0.17338 0.25068 0.46982 0.0
O870 O 0.25908 0.26678 0.44016 0.0
O871 O 0.28188 0.23197 0.44318 0.0
H872 H 0.48674 0.22811 0.47061 0.0
H873 H 0.50647 0.21349 0.43299 0.0
H874 H 0.5985 0.22137 0.43474 0.0
H875 H 0.57896 0.23627 0.4724 0.0
H876 H 0.08215 0.27537 0.44382 0.0
H877 H 0.08471 0.23699 0.47725 0.0
H878 H 0.99237 0.23017 0.47557 0.0
H879 H 0.99014 0.26811 0.44203 0.0
Gd880 Gd 0.45187 0.22624 0.34048 0.0
Gd881 Gd 0.56124 0.25099 0.34021 0.0
C882 C 0.46475 0.28278 0.33515 0.0
C883 C 0.3627 0.21239 0.34789 0.0
C884 C 0.30741 0.21521 0.34498 0.0
C885 C 0.27678 0.19509 0.34348 0.0
C886 C 0.28409 0.23756 0.34428 0.0
C887 C 0.2 0.21948 0.34106 0.0
C888 C 0.23101 0.23966 0.34236 0.0
C889 C 0.22378 0.19717 0.3415 0.0
C890 C 0.48466 0.23115 0.31745 0.0
C891 C 0.55398 0.19419 0.34197 0.0
C892 C 0.65562 0.26494 0.33805 0.0
C893 C 0.7086 0.25611 0.33636 0.0
C894 C 0.74409 0.27019 0.3302 0.0
C895 C 0.72545 0.23494 0.34161 0.0
C896 C 0.81357 0.24299 0.33523 0.0
C897 C 0.77748 0.22847 0.34106 0.0
C898 C 0.79598 0.26371 0.32961 0.0
C899 C 0.50665 0.25116 0.36096 0.0
O900 O 0.43527 0.26566 0.33953 0.0
O901 O 0.51393 0.27975 0.33273 0.0
O902 O 0.39083 0.20014 0.34037 0.0
O903 O 0.38668 0.23085 0.35224 0.0
O904 O 0.44131 0.22147 0.32044 0.0
O905 O 0.50741 0.23741 0.32689 0.0
O906 O 0.58148 0.21282 0.33895 0.0
O907 O 0.50408 0.19539 0.34439 0.0
O908 O 0.63371 0.26025 0.34834 0.0
O909 O 0.62394 0.26349 0.32896 0.0
O910 O 0.53241 0.2692 0.35708 0.0
O911 O 0.51135 0.23425 0.35377 0.0
H912 H 0.29381 0.17766 0.34398 0.0
H913 H 0.30662 0.25344 0.34542 0.0
H914 H 0.21413 0.25712 0.34222 0.0
H915 H 0.20145 0.18125 0.34034 0.0
H916 H 0.73194 0.28666 0.32615 0.0
H917 H 0.69871 0.22372 0.34638 0.0
H918 H 0.78957 0.21223 0.34534 0.0
H919 H 0.82266 0.27545 0.32516 0.0
Gd920 Gd 0.35032 0.50743 0.34077 0.0
Gd921 Gd 0.24678 0.48428 0.33948 0.0
C922 C 0.34067 0.4506 0.33615 0.0
C923 C 0.44314 0.51992 0.34643 0.0
C924 C 0.49801 0.51412 0.34428 0.0
C925 C 0.52702 0.52759 0.33616 0.0
C926 C 0.52317 0.49672 0.3511 0.0
C927 C 0.60544 0.50697 0.34201 0.0
C928 C 0.57622 0.49314 0.34996 0.0
C929 C 0.58002 0.52399 0.335 0.0
C930 C 0.31084 0.50658 0.3183 0.0
C931 C 0.25194 0.54048 0.34317 0.0
C932 C 0.15354 0.47092 0.33491 0.0
C933 C 0.09916 0.47819 0.3363 0.0
C934 C 0.07574 0.47992 0.34761 0.0
C935 C 0.06908 0.4818 0.32602 0.0
C936 C 0.99268 0.48784 0.33826 0.0
C937 C 1.01651 0.48664 0.32698 0.0
C938 C 1.02302 0.48467 0.34858 0.0
C939 C 0.2914 0.48533 0.36156 0.0
O940 O 0.36939 0.468 0.34041 0.0
O941 O 0.29264 0.45418 0.33297 0.0
O942 O 0.41719 0.52936 0.3376 0.0
O943 O 0.41582 0.50499 0.35269 0.0
O944 O 0.3386 0.52352 0.32259 0.0
O945 O 0.30771 0.4901 0.32589 0.0
O946 O 0.22572 0.52253 0.3389 0.0
O947 O 0.30064 0.53814 0.34641 0.0
O948 O 0.17885 0.4646 0.34452 0.0
O949 O 0.1816 0.48302 0.32737 0.0
O950 O 0.2657 0.46749 0.35748 0.0
O951 O 0.29017 0.50178 0.35403 0.0
H952 H 0.50895 0.54131 0.33087 0.0
H953 H 0.50219 0.48626 0.35758 0.0
H954 H 0.59459 0.48009 0.35561 0.0
H955 H 0.60117 0.53473 0.32868 0.0
H956 H 0.09784 0.47721 0.35572 0.0
H957 H 0.08605 0.48031 0.31718 0.0
H958 H 0.9942 0.48869 0.31885 0.0
H959 H 1.00593 0.48576 0.35741 0.0
Gd960 Gd 0.49378 -0.00064 0.08893 0.0
Gd961 Gd 0.59665 0.97567 0.09032 0.0
C962 C 0.49845 0.94292 0.09246 0.0
C963 C 0.40053 0.0135 0.0847 0.0
C964 C 0.34571 0.00715 0.08647 0.0
C965 C 0.31493 0.02118 0.09396 0.0
C966 C 0.32249 0.98867 0.08006 0.0
C967 C 0.23833 -0.00086 0.08823 0.0
C968 C 0.26941 0.9847 0.08095 0.0
C969 C 0.26202 0.01717 0.09488 0.0
C970 C 0.53787 -0.00181 0.111 0.0
C971 C 0.58815 0.03257 0.08608 0.0
C972 C 0.68944 0.96292 0.09601 0.0
C973 C 0.74412 0.9696 0.09447 0.0
C974 C 0.76784 0.9699 0.08316 0.0
C975 C 0.77412 0.97413 0.10466 0.0
C976 C 0.85099 0.97836 0.09234 0.0
C977 C 0.82686 0.97853 0.10362 0.0
C978 C 0.82072 0.97421 0.08211 0.0
C979 C 0.55737 0.97724 0.06778 0.0
O980 O 0.4723 0.96109 0.08829 0.0
O981 O 0.54711 0.945 0.09572 0.0
O982 O 0.42672 0.01968 0.09418 0.0
O983 O 0.42771 0.00107 0.07711 0.0
O984 O 0.514 0.01638 0.10669 0.0
O985 O 0.5363 0.98151 0.10361 0.0
O986 O 0.61594 0.01492 0.09045 0.0
O987 O 0.54055 0.0293 0.08249 0.0
O988 O 0.66476 0.95482 0.08669 0.0
O989 O 0.66095 0.97658 0.10274 0.0
O990 O 0.58433 0.95993 0.07205 0.0
O991 O 0.55491 -0.00641 0.07543 0.0
H992 H 0.33164 0.03564 0.09894 0.0
H993 H 0.34501 0.97762 0.07414 0.0
H994 H 0.25252 0.97079 0.07562 0.0
H995 H 0.23959 0.02838 0.10074 0.0
H996 H 0.74581 0.96646 0.07512 0.0
H997 H 0.75692 0.97376 0.1135 0.0
H998 H 0.84903 0.98137 0.1117 0.0
H999 H 0.83795 0.97425 0.07328 0.0
Gd1000 Gd 0.81642 0.23188 0.0904 0.0
Gd1001 Gd 0.71302 0.25589 0.09125 0.0
C1002 C 0.81215 0.28833 0.09329 0.0
C1003 C 0.90943 0.21761 0.08608 0.0
C1004 C 0.96394 0.22493 0.08667 0.0
C1005 C 0.98641 0.23324 0.0973 0.0
C1006 C 0.99495 0.22203 0.0765 0.0
C1007 C 0.07077 0.23435 0.08769 0.0
C1008 C 0.04767 0.22673 0.07698 0.0
C1009 C 0.03931 0.2379 0.09781 0.0
C1010 C 0.77082 0.23387 0.11232 0.0
C1011 C 0.7214 0.19872 0.08749 0.0
C1012 C 0.6201 0.26907 0.0966 0.0
C1013 C 0.56522 0.26281 0.09482 0.0
C1014 C 0.53829 0.27009 0.08453 0.0
C1015 C 0.53799 0.25128 0.10398 0.0
C1016 C 0.45788 0.255 0.09277 0.0
C1017 C 0.48506 0.24735 0.10296 0.0
C1018 C 0.4853 0.26616 0.08351 0.0
C1019 C 0.75382 0.25375 0.06892 0.0
O1020 O 0.83803 0.26997 0.0893 0.0
O1021 O 0.7633 0.28655 0.0965 0.0
O1022 O 0.88538 0.21366 0.09618 0.0
O1023 O 0.88044 0.22795 0.07806 0.0
O1024 O 0.79635 0.21575 0.10845 0.0
O1025 O 0.77254 0.25014 0.10467 0.0
O1026 O 0.69293 0.21667 0.09128 0.0
O1027 O 0.76995 0.20151 0.08454 0.0
O1028 O 0.64575 0.27729 0.08742 0.0
O1029 O 0.6478 0.25508 0.10333 0.0
O1030 O 0.72636 0.27112 0.07294 0.0
O1031 O 0.75584 0.23758 0.0767 0.0
H1032 H 0.96342 0.23564 0.1053 0.0
H1033 H 0.9785 0.21566 0.0682 0.0
H1034 H 0.07043 0.22424 0.06896 0.0
H1035 H 0.05578 0.24358 0.10623 0.0
H1036 H 0.55783 0.27935 0.07737 0.0
H1037 H 0.55744 0.24568 0.11208 0.0
H1038 H 0.46535 0.23841 0.11019 0.0
H1039 H 0.46554 0.27256 0.07561 0.0
Gd1040 Gd 0.49741 0.23563 0.2084 0.0
Gd1041 Gd 0.60896 0.25865 0.20672 0.0
C1042 C 0.50747 0.29224 0.20522 0.0
C1043 C 0.40425 0.22285 0.2134 0.0
C1044 C 0.35047 0.23082 0.21237 0.0
C1045 C 0.3331 0.24396 0.2025 0.0
C1046 C 0.3154 0.22431 0.2213 0.0
C1047 C 0.24542 0.24302 0.21031 0.0
C1048 C 0.26345 0.23035 0.2203 0.0
C1049 C 0.28096 0.24995 0.20146 0.0
C1050 C 0.5449 0.23591 0.18669 0.0
C1051 C 0.59258 0.20255 0.21184 0.0
C1052 C 0.69631 0.27137 0.19781 0.0
C1053 C 0.75218 0.26857 0.19969 0.0
C1054 C 0.7751 0.27161 0.21097 0.0
C1055 C 0.7833 0.26297 0.18983 0.0
C1056 C 0.85977 0.26363 0.20242 0.0
C1057 C 0.83646 0.26048 0.19118 0.0
C1058 C 0.82846 0.26923 0.21232 0.0
C1059 C 0.58263 0.2524 0.23012 0.0
O1060 O 0.47788 0.2738 0.20734 0.0
O1061 O 0.55817 0.29068 0.20387 0.0
O1062 O 0.42798 0.21703 0.20349 0.0
O1063 O 0.43356 0.23437 0.22089 0.0
O1064 O 0.516 0.21873 0.19041 0.0
O1065 O 0.54519 0.25209 0.19437 0.0
O1066 O 0.62163 0.21891 0.20666 0.0
O1067 O 0.54564 0.20698 0.21566 0.0
O1068 O 0.67051 0.2842 0.20555 0.0
O1069 O 0.67151 0.25248 0.19433 0.0
O1070 O 0.62622 0.26125 0.22665 0.0
O1071 O 0.55672 0.24745 0.22092 0.0
H1072 H 0.35965 0.24933 0.19553 0.0
H1073 H 0.32808 0.21413 0.22897 0.0
H1074 H 0.23713 0.22447 0.2272 0.0
H1075 H 0.26843 0.25997 0.19373 0.0
H1076 H 0.75188 0.27582 0.21874 0.0
H1077 H 0.76641 0.26063 0.18104 0.0
H1078 H 0.85944 0.25646 0.18335 0.0
H1079 H 0.84515 0.27151 0.22112 0.0
Gd1080 Gd 0.80056 9e-05 0.20876 0.0
Gd1081 Gd 0.69765 0.97645 0.20784 0.0
C1082 C 0.79615 0.94369 0.20547 0.0
C1083 C 0.89392 0.01427 0.2126 0.0
C1084 C 0.94863 0.00767 0.21079 0.0
C1085 C 0.97795 0.0195 0.2021 0.0
C1086 C 0.97337 0.99135 0.21835 0.0
C1087 C 0.056 -0.00034 0.20888 0.0
C1088 C 1.0264 0.98737 0.21739 0.0
C1089 C 0.03087 0.01547 0.20111 0.0
C1090 C 0.75462 -0.00102 0.1869 0.0
C1091 C 0.70646 0.03329 0.21227 0.0
C1092 C 0.6049 0.96349 0.2024 0.0
C1093 C 0.55029 0.97047 0.2036 0.0
C1094 C 0.52718 0.97407 0.21484 0.0
C1095 C 0.51982 0.97201 0.19326 0.0
C1096 C 0.44352 0.97971 0.20532 0.0
C1097 C 0.46709 0.97663 0.1941 0.0
C1098 C 0.4743 0.9786 0.21568 0.0
C1099 C 0.73918 0.97783 0.23013 0.0
O1100 O 0.82244 0.96191 0.20942 0.0
O1101 O 0.74714 0.94565 0.20246 0.0
O1102 O 0.86725 0.02015 0.20312 0.0
O1103 O 0.86709 0.0022 0.22039 0.0
O1104 O 0.7785 0.01721 0.19111 0.0
O1105 O 0.75699 0.98228 0.1943 0.0
O1106 O 0.67817 0.01586 0.20787 0.0
O1107 O 0.75424 0.0297 0.21563 0.0
O1108 O 0.62912 0.95646 0.21204 0.0
O1109 O 0.63368 0.97627 0.19533 0.0
O1110 O 0.71223 0.96041 0.22603 0.0
O1111 O 0.74051 -0.0058 0.22248 0.0
H1112 H 0.96016 0.03233 0.19621 0.0
H1113 H 0.9521 0.9821 0.22524 0.0
H1114 H 0.04447 0.97525 0.2236 0.0
H1115 H 0.0522 0.02496 0.19432 0.0
H1116 H 0.5497 0.97303 0.22298 0.0
H1117 H 0.53666 0.96911 0.1845 0.0
H1118 H 0.44451 0.97708 0.18595 0.0
H1119 H 0.45747 0.98119 0.22445 0.0
Gd1120 Gd 0.46345 0.00607 0.95674 0.0
Gd1121 Gd 0.56591 0.98157 0.95636 0.0
C1122 C 0.47082 0.94897 0.96013 0.0
C1123 C 0.36976 0.02013 0.95283 0.0
C1124 C 0.31513 0.01291 0.954 0.0
C1125 C 0.28768 0.01697 0.96466 0.0
C1126 C 0.28854 0.00398 0.94403 0.0
C1127 C 0.20802 0.00392 0.95523 0.0
C1128 C 0.23572 -0.00055 0.94465 0.0
C1129 C 0.23479 0.01248 0.96527 0.0
C1130 C 0.50946 0.00331 0.9785 0.0
C1131 C 0.56224 0.03824 0.95365 0.0
C1132 C 0.65913 0.96647 0.95956 0.0
C1133 C 0.71382 0.97278 0.95786 0.0
C1134 C 0.7464 0.9567 0.95206 0.0
C1135 C 0.73492 -0.00644 0.96263 0.0
C1136 C 0.82093 0.98128 0.95638 0.0
C1137 C 0.78796 -0.00224 0.96189 0.0
C1138 C 0.79926 0.96091 0.95129 0.0
C1139 C 0.51613 0.98364 0.93497 0.0
O1140 O 0.44247 0.96699 0.95638 0.0
O1141 O 0.51954 0.9517 0.96294 0.0
O1142 O 0.39533 0.02498 0.9626 0.0
O1143 O 0.39781 0.00915 0.94487 0.0
O1144 O 0.48378 0.02146 0.97471 0.0
O1145 O 0.5084 0.98718 0.97072 0.0
O1146 O 0.58894 0.0196 0.95701 0.0
O1147 O 0.51251 0.03686 0.95128 0.0
O1148 O 0.63218 0.96187 0.94997 0.0
O1149 O 0.63296 0.97796 0.96771 0.0
O1150 O 0.5422 0.96551 0.93861 0.0
O1151 O 0.51969 3e-05 0.94252 0.0
H1152 H 0.30676 0.02407 0.97248 0.0
H1153 H 0.3083 0.00106 0.93562 0.0
H1154 H 0.21626 -0.00682 0.9367 0.0
H1155 H 0.21479 0.01585 0.9736 0.0
H1156 H 0.73107 0.94055 0.94833 0.0
H1157 H 0.71073 0.00629 0.96717 0.0
H1158 H 0.80329 0.01356 0.96597 0.0
H1159 H 0.82322 0.94805 0.94678 0.0
Gd1160 Gd 0.34964 0.72564 0.95737 0.0
Gd1161 Gd 0.24484 0.74876 0.95905 0.0
C1162 C 0.33902 0.7827 0.96102 0.0
C1163 C 0.44199 0.71316 0.95118 0.0
C1164 C 0.49704 0.71873 0.95299 0.0
C1165 C 0.52004 0.7182 0.96438 0.0
C1166 C 0.52793 0.72319 0.94294 0.0
C1167 C 0.6044 0.72558 0.95552 0.0
C1168 C 0.58091 0.72663 0.94418 0.0
C1169 C 0.57317 0.7216 0.96563 0.0
C1170 C 0.31227 0.72774 0.98001 0.0
C1171 C 0.25134 0.69248 0.9557 0.0
C1172 C 0.1524 0.76262 0.96427 0.0
C1173 C 0.09778 0.75574 0.96377 0.0
C1174 C 0.078 0.74176 0.95448 0.0
C1175 C 0.06427 0.76445 0.97255 0.0
C1176 C 0.99106 0.74649 0.96246 0.0
C1177 C 1.01154 0.75987 0.97192 0.0
C1178 C 1.02506 0.73716 0.95384 0.0
C1179 C 0.28756 0.74709 0.93679 0.0
O1180 O 0.36763 0.765 0.95699 0.0
O1181 O 0.29131 0.77943 0.96454 0.0
O1182 O 0.41677 0.70358 0.96008 0.0
O1183 O 0.41449 0.72849 0.9452 0.0
O1184 O 0.34069 0.71078 0.97591 0.0
O1185 O 0.30786 0.74368 0.97217 0.0
O1186 O 0.2251 0.71042 0.96005 0.0
O1187 O 0.29962 0.69489 0.95214 0.0
O1188 O 0.17525 0.76738 0.95412 0.0
O1189 O 0.1819 0.75118 0.97179 0.0
O1190 O 0.26114 0.76485 0.94076 0.0
O1191 O 0.28768 0.73093 0.9445 0.0
H1192 H 0.49725 0.71472 0.9723 0.0
H1193 H 0.51113 0.72364 0.93406 0.0
H1194 H 0.6035 0.73007 0.93622 0.0
H1195 H 0.58995 0.72048 0.97448 0.0
H1196 H 0.10327 0.73481 0.94762 0.0
H1197 H 0.07882 0.77518 0.97982 0.0
H1198 H 0.98675 0.76692 0.97885 0.0
H1199 H 1.01061 0.7269 0.9464 0.0
Gd1200 Gd 0.46135 0.7279 0.84075 0.0
Gd1201 Gd 0.56342 0.75247 0.84112 0.0
C1202 C 0.46827 0.78502 0.83694 0.0
C1203 C 0.36787 0.71383 0.84476 0.0
C1204 C 0.31313 0.72101 0.84359 0.0
C1205 C 0.28554 0.71664 0.83299 0.0
C1206 C 0.28659 0.73021 0.85352 0.0
C1207 C 0.20588 0.72993 0.84239 0.0
C1208 C 0.2337 0.7347 0.85291 0.0
C1209 C 0.2326 0.7211 0.83239 0.0
C1210 C 0.50747 0.73011 0.81903 0.0
C1211 C 0.56078 0.69582 0.84367 0.0
C1212 C 0.6566 0.76764 0.83811 0.0
C1213 C 0.71135 0.7613 0.83982 0.0
C1214 C 0.74388 0.77743 0.84555 0.0
C1215 C 0.73253 0.74046 0.8351 0.0
C1216 C 0.81853 0.75275 0.84128 0.0
C1217 C 0.7856 0.73622 0.83584 0.0
C1218 C 0.79677 0.7732 0.84631 0.0
C1219 C 0.51341 0.7502 0.8625 0.0
O1220 O 0.4399 0.76708 0.84075 0.0
O1221 O 0.51716 0.78222 0.83432 0.0
O1222 O 0.39339 0.70889 0.83499 0.0
O1223 O 0.39589 0.72492 0.85267 0.0
O1224 O 0.48185 0.71208 0.82292 0.0
O1225 O 0.50627 0.74649 0.82669 0.0
O1226 O 0.58705 0.71454 0.84033 0.0
O1227 O 0.51107 0.6971 0.84612 0.0
O1228 O 0.62943 0.77202 0.8477 0.0
O1229 O 0.6307 0.75633 0.82987 0.0
O1230 O 0.53865 0.76852 0.85883 0.0
O1231 O 0.51756 0.73388 0.85493 0.0
H1232 H 0.30458 0.70931 0.82521 0.0
H1233 H 0.30644 0.73337 0.86189 0.0
H1234 H 0.2143 0.74119 0.86084 0.0
H1235 H 0.21252 0.71748 0.8241 0.0
H1236 H 0.72848 0.79363 0.84924 0.0
H1237 H 0.70837 0.7277 0.83061 0.0
H1238 H 0.80099 0.72036 0.8318 0.0
H1239 H 0.8207 0.78609 0.85077 0.0
Gd1240 Gd 0.35272 0.00861 0.84064 0.0
Gd1241 Gd 0.24186 0.98408 0.83903 0.0
C1242 C 0.33931 0.9521 0.83554 0.0
C1243 C 0.44045 0.02181 0.84921 0.0
C1244 C 0.4962 0.01942 0.84696 0.0
C1245 C 0.51672 0.01928 0.83533 0.0
C1246 C 0.52955 0.01718 0.85676 0.0
C1247 C 0.60365 0.01499 0.84341 0.0
C1248 C 0.58262 0.01497 0.85502 0.0
C1249 C 0.56995 0.01712 0.83357 0.0
C1250 C 0.32471 0.00271 0.81733 0.0
C1251 C 0.24939 0.04082 0.84248 0.0
C1252 C 0.14906 0.97062 0.83409 0.0
C1253 C 0.09503 0.97868 0.83417 0.0
C1254 C 0.07619 -0.00575 0.84291 0.0
C1255 C 0.06098 0.96945 0.82566 0.0
C1256 C 0.98899 0.98999 0.83503 0.0
C1257 C 1.0086 0.97505 0.82606 0.0
C1258 C 1.02362 -0.00014 0.84333 0.0
C1259 C 0.29044 0.98451 0.8606 0.0
O1260 O 0.36777 0.96905 0.84041 0.0
O1261 O 0.29136 0.95551 0.83212 0.0
O1262 O 0.41349 0.03459 0.84165 0.0
O1263 O 0.4166 0.00266 0.85272 0.0
O1264 O 0.36739 0.01264 0.82063 0.0
O1265 O 0.30041 -0.00305 0.82663 0.0
O1266 O 0.22099 0.0222 0.8399 0.0
O1267 O 0.30002 0.03971 0.84411 0.0
O1268 O 0.17111 0.96724 0.84449 0.0
O1269 O 0.17981 0.9801 0.82614 0.0
O1270 O 0.26217 0.96708 0.85691 0.0
O1271 O 0.28948 0.00082 0.85298 0.0
H1272 H 0.49169 0.02089 0.82762 0.0
H1273 H 0.51446 0.01709 0.86581 0.0
H1274 H 0.60709 0.01292 0.8628 0.0
H1275 H 0.58474 0.01741 0.82451 0.0
H1276 H 0.10185 0.00165 0.84955 0.0
H1277 H 0.07478 0.95749 0.81881 0.0
H1278 H 0.98337 0.9675 0.81937 0.0
H1279 H 1.00991 0.01132 0.8504 0.0
H1280 H 0.0416 0.40001 0.09999 0.0
H1281 H 0.90288 0.43346 0.08685 0.0
H1282 H 0.99504 0.36277 0.10183 0.0
H1283 H 0.85731 0.39646 0.08842 0.0
H1284 H 0.77572 0.33101 0.10136 0.0
H1285 H 0.82294 0.36819 0.1025 0.0
H1286 H 0.9586 0.33363 0.08857 0.0
H1287 H 0.91238 0.29669 0.08771 0.0
C1288 C 1.00139 0.39944 0.09746 0.0
C1289 C 0.97618 0.41971 0.09323 0.0
C1290 C 0.9747 0.37812 0.0985 0.0
C1291 C 0.92238 0.37668 0.0953 0.0
C1292 C 0.89725 0.39702 0.09117 0.0
C1293 C 0.92373 0.41824 0.09016 0.0
C1294 C 0.81568 0.33137 0.09862 0.0
C1295 C 0.84006 0.31092 0.09438 0.0
C1296 C 0.84271 0.35266 0.09923 0.0
C1297 C 0.89456 0.35386 0.09561 0.0
C1298 C 0.91903 0.33328 0.0916 0.0
C1299 C 0.89218 0.31209 0.09101 0.0
H1300 H 0.5353 0.90144 0.10185 0.0
H1301 H 0.39966 0.93307 0.08611 0.0
H1302 H 0.48944 0.86405 0.1037 0.0
H1303 H 0.35469 0.89582 0.0877 0.0
H1304 H 0.27194 0.83083 0.10076 0.0
H1305 H 0.31773 0.86832 0.10184 0.0
H1306 H 0.45759 0.8337 0.09042 0.0
H1307 H 0.41256 0.79635 0.08963 0.0
C1308 C 0.49584 0.90043 0.09878 0.0
C1309 C 0.47128 0.92021 0.0938 0.0
C1310 C 0.4696 0.87902 0.09981 0.0
C1311 C 0.41837 0.87698 0.09586 0.0
C1312 C 0.39378 0.89687 0.09101 0.0
C1313 C 0.41986 0.91821 0.09001 0.0
C1314 C 0.31252 0.83122 0.09856 0.0
C1315 C 0.33844 0.81062 0.09504 0.0
C1316 C 0.33871 0.8527 0.09914 0.0
C1317 C 0.39129 0.85399 0.09619 0.0
C1318 C 0.41733 0.83328 0.09292 0.0
C1319 C 0.39126 0.81187 0.09236 0.0
H1320 H 0.75925 0.90183 0.19662 0.0
H1321 H 0.8958 0.93438 0.21126 0.0
H1322 H 0.80596 0.86453 0.19481 0.0
H1323 H 0.94154 0.8973 0.20971 0.0
H1324 H 1.0248 0.83231 0.19707 0.0
H1325 H 0.97765 0.86949 0.19561 0.0
H1326 H 0.84008 0.83488 0.20832 0.0
H1327 H 0.88641 0.79783 0.20949 0.0
C1328 C 0.79908 0.90104 0.19944 0.0
C1329 C 0.82365 0.92104 0.20412 0.0
C1330 C 0.82579 0.8797 0.19844 0.0
C1331 C 0.8775 0.878 0.2021 0.0
C1332 C 0.90209 0.8981 0.20662 0.0
C1333 C 0.87555 0.91934 0.2076 0.0
C1334 C 0.98444 0.83264 0.19947 0.0
C1335 C 0.95954 0.81215 0.20347 0.0
C1336 C 0.95746 0.85392 0.19867 0.0
C1337 C 0.90515 0.85512 0.20189 0.0
C1338 C 0.8801 0.8345 0.20562 0.0
C1339 C 0.90693 0.81328 0.20639 0.0
H1340 H 0.2848 0.40552 0.19493 0.0
H1341 H 0.4164 0.4379 0.21191 0.0
H1342 H 0.33238 0.36846 0.1935 0.0
H1343 H 0.46299 0.40093 0.2108 0.0
H1344 H 0.54914 0.33525 0.19919 0.0
H1345 H 0.50383 0.37296 0.19754 0.0
H1346 H 0.36138 0.3387 0.20722 0.0
H1347 H 0.40566 0.30135 0.20856 0.0
C1348 C 0.32371 0.40473 0.19837 0.0
C1349 C 0.34659 0.42459 0.2036 0.0
C1350 C 0.35097 0.38352 0.19758 0.0
C1351 C 0.40148 0.38175 0.20206 0.0
C1352 C 0.42452 0.40176 0.2071 0.0
C1353 C 0.39747 0.42293 0.20783 0.0
C1354 C 0.50814 0.33581 0.2009 0.0
C1355 C 0.48121 0.31528 0.20404 0.0
C1356 C 0.4822 0.35739 0.19999 0.0
C1357 C 0.42893 0.3588 0.20221 0.0
C1358 C 0.40215 0.3382 0.20522 0.0
C1359 C 0.42786 0.31675 0.2061 0.0
H1360 H 1.02413 0.58098 0.94674 0.0
H1361 H 0.16298 0.54657 0.95912 0.0
H1362 H 0.07078 0.61826 0.94542 0.0
H1363 H 0.20877 0.58366 0.95805 0.0
H1364 H 0.28868 0.65086 0.94656 0.0
H1365 H 0.24239 0.61357 0.94455 0.0
H1366 H 0.10662 0.64583 0.95977 0.0
H1367 H 0.15195 0.68289 0.96155 0.0
C1368 C 0.06449 0.58133 0.94914 0.0
C1369 C 0.08964 0.56085 0.95312 0.0
C1370 C 0.09117 0.60267 0.94842 0.0
C1371 C 0.14346 0.60389 0.95165 0.0
C1372 C 0.16878 0.58327 0.95534 0.0
C1373 C 0.14223 0.56202 0.95605 0.0
C1374 C 0.24891 0.64996 0.94942 0.0
C1375 C 0.22419 0.6698 0.95428 0.0
C1376 C 0.22243 0.62863 0.94829 0.0
C1377 C 0.17079 0.62679 0.95198 0.0
C1378 C 0.14603 0.64674 0.95666 0.0
C1379 C 0.17236 0.66797 0.95779 0.0
H1380 H 0.78771 0.15134 0.94601 0.0
H1381 H 0.65131 0.18325 0.9612 0.0
H1382 H 0.74161 0.11404 0.94404 0.0
H1383 H 0.60612 0.1461 0.95952 0.0
H1384 H 0.5236 0.08111 0.94654 0.0
H1385 H 0.5697 0.11854 0.9454 0.0
H1386 H 0.70884 0.08385 0.95727 0.0
H1387 H 0.66358 0.0466 0.95811 0.0
C1388 C 0.74804 0.15041 0.94894 0.0
C1389 C 0.72335 0.17023 0.95381 0.0
C1390 C 0.72166 0.12905 0.94784 0.0
C1391 C 0.67015 0.12712 0.95162 0.0
C1392 C 0.64543 0.14706 0.95634 0.0
C1393 C 0.67164 0.16834 0.95741 0.0
C1394 C 0.56409 0.08149 0.94882 0.0
C1395 C 0.58974 0.06091 0.95248 0.0
C1396 C 0.59047 0.10292 0.94821 0.0
C1397 C 0.64294 0.10417 0.95128 0.0
C1398 C 0.66869 0.08347 0.95468 0.0
C1399 C 0.64247 0.06211 0.95527 0.0
H1400 H 1.02289 0.15329 0.85266 0.0
H1401 H 0.15485 0.18537 0.83563 0.0
H1402 H 0.07052 0.11616 0.85426 0.0
H1403 H 0.20133 0.1485 0.83695 0.0
H1404 H 0.28892 0.08402 0.84879 0.0
H1405 H 0.2421 0.12127 0.85053 0.0
H1406 H 0.101 0.08595 0.84082 0.0
H1407 H 0.14688 0.04895 0.83939 0.0
C1408 C 0.06186 0.15243 0.84925 0.0
C1409 C 0.08486 0.17225 0.84398 0.0
C1410 C 0.08914 0.13119 0.85014 0.0
C1411 C 0.13982 0.1294 0.84575 0.0
C1412 C 0.16281 0.14934 0.84062 0.0
C1413 C 0.13576 0.17047 0.83976 0.0
C1414 C 0.24789 0.08422 0.8471 0.0
C1415 C 0.22188 0.06352 0.84387 0.0
C1416 C 0.22106 0.10555 0.84807 0.0
C1417 C 0.16778 0.10657 0.8458 0.0
C1418 C 0.14178 0.08576 0.84281 0.0
C1419 C 0.16841 0.06453 0.84188 0.0
H1420 H 0.66217 0.68797 0.83902 0.0
H1421 H 0.5235 0.65256 0.85055 0.0
H1422 H 0.70853 0.65095 0.83951 0.0
H1423 H 0.57079 0.6153 0.85135 0.0
H1424 H 0.65376 0.55114 0.83547 0.0
H1425 H 0.60777 0.58813 0.83714 0.0
H1426 H 0.74285 0.62072 0.8524 0.0
H1427 H 0.78978 0.58355 0.85045 0.0
C1428 C 0.64157 0.67231 0.84179 0.0
C1429 C 0.58888 0.67322 0.84466 0.0
C1430 C 0.66845 0.65106 0.84216 0.0
C1431 C 0.64344 0.63015 0.84546 0.0
C1432 C 0.591 0.63109 0.84862 0.0
C1433 C 0.56394 0.65242 0.84821 0.0
C1434 C 0.67388 0.56612 0.83921 0.0
C1435 C 0.72568 0.56438 0.84279 0.0
C1436 C 0.64719 0.58733 0.84027 0.0
C1437 C 0.67147 0.60735 0.84497 0.0
C1438 C 0.72319 0.60564 0.84863 0.0
C1439 C 0.75009 0.58436 0.84753 0.0
H1440 H 0.02986 0.90195 0.60209 0.0
H1441 H 0.89679 0.93433 0.58558 0.0
H1442 H 0.98241 0.86492 0.60384 0.0
H1443 H 0.85034 0.8975 0.58707 0.0
H1444 H 0.76371 0.83334 0.5999 0.0
H1445 H 0.81077 0.87053 0.60104 0.0
H1446 H 0.95051 0.83461 0.59061 0.0
H1447 H 0.90433 0.79766 0.58976 0.0
C1448 C 0.99067 0.90118 0.59882 0.0
C1449 C 0.96728 0.92107 0.59366 0.0
C1450 C 0.9635 0.87998 0.5998 0.0
C1451 C 0.9125 0.87828 0.59562 0.0
C1452 C 0.88915 0.89828 0.59058 0.0
C1453 C 0.91613 0.91938 0.58962 0.0
C1454 C 0.8045 0.83339 0.59793 0.0
C1455 C 0.83004 0.81252 0.59468 0.0
C1456 C 0.83146 0.85469 0.59854 0.0
C1457 C 0.88442 0.85552 0.5959 0.0
C1458 C 0.90999 0.83456 0.59288 0.0
C1459 C 0.8832 0.81335 0.59229 0.0
H1460 H 0.40987 0.29882 0.58766 0.0
H1461 H 0.27083 0.33165 0.60093 0.0
H1462 H 0.45463 0.33619 0.58907 0.0
H1463 H 0.31636 0.36914 0.60261 0.0
H1464 H 0.53366 0.40286 0.60162 0.0
H1465 H 0.48836 0.3652 0.60292 0.0
H1466 H 0.35086 0.39821 0.58897 0.0
H1467 H 0.39527 0.43564 0.58792 0.0
C1468 C 0.38886 0.31398 0.59098 0.0
C1469 C 0.33655 0.31228 0.5941 0.0
C1470 C 0.4148 0.33539 0.59189 0.0
C1471 C 0.38914 0.35564 0.59596 0.0
C1472 C 0.33705 0.35388 0.5993 0.0
C1473 C 0.31099 0.33241 0.59837 0.0
C1474 C 0.4937 0.40206 0.59891 0.0
C1475 C 0.46825 0.42224 0.59462 0.0
C1476 C 0.46778 0.3805 0.59961 0.0
C1477 C 0.41597 0.37872 0.59605 0.0
C1478 C 0.39045 0.39901 0.59196 0.0
C1479 C 0.41621 0.42048 0.59127 0.0
H1480 H 0.03114 0.32982 0.69568 0.0
H1481 H 0.89804 0.29727 0.71196 0.0
H1482 H 0.98355 0.3669 0.69404 0.0
H1483 H 0.85147 0.33418 0.71062 0.0
H1484 H 0.76448 0.39857 0.69824 0.0
H1485 H 0.81166 0.36137 0.69695 0.0
H1486 H 0.9516 0.39715 0.70715 0.0
H1487 H 0.90528 0.43414 0.70811 0.0
C1488 C 0.99191 0.33058 0.69893 0.0
C1489 C 0.96853 0.31061 0.70397 0.0
C1490 C 0.96465 0.35181 0.69802 0.0
C1491 C 0.91361 0.35349 0.70218 0.0
C1492 C 0.8903 0.33343 0.70712 0.0
C1493 C 0.91733 0.31227 0.70798 0.0
C1494 C 0.80535 0.39849 0.70013 0.0
C1495 C 0.83091 0.41934 0.70332 0.0
C1496 C 0.83238 0.37718 0.69943 0.0
C1497 C 0.88544 0.37628 0.70197 0.0
C1498 C 0.91102 0.39723 0.70495 0.0
C1499 C 0.88417 0.41847 0.70559 0.0
H1500 H 0.38709 0.79367 0.70988 0.0
H1501 H 0.52472 0.82876 0.69743 0.0
H1502 H 0.34063 0.83069 0.70932 0.0
H1503 H 0.47731 0.86603 0.69663 0.0
H1504 H 0.2593 0.89825 0.69795 0.0
H1505 H 0.30567 0.86086 0.69613 0.0
H1506 H 0.44127 0.89316 0.71126 0.0
H1507 H 0.39578 0.93027 0.71293 0.0
C1508 C 0.40745 0.80926 0.7069 0.0
C1509 C 0.4599 0.80828 0.70379 0.0
C1510 C 0.38049 0.83049 0.70649 0.0
C1511 C 0.40521 0.8513 0.70294 0.0
C1512 C 0.45736 0.85029 0.69954 0.0
C1513 C 0.48448 0.82896 0.69995 0.0
C1514 C 0.29896 0.89733 0.70089 0.0
C1515 C 0.32371 0.91728 0.70557 0.0
C1516 C 0.32554 0.87593 0.69985 0.0
C1517 C 0.37731 0.87412 0.70347 0.0
C1518 C 0.40183 0.89407 0.70816 0.0
C1519 C 0.37542 0.91534 0.7092 0.0
H1520 H 1.02259 0.07902 0.44623 0.0
H1521 H 0.16307 0.04597 0.45854 0.0
H1522 H 0.06727 0.11676 0.44492 0.0
H1523 H 0.20703 0.0836 0.4575 0.0
H1524 H 0.2836 0.15135 0.44551 0.0
H1525 H 0.2391 0.11358 0.44394 0.0
H1526 H 0.10203 0.14516 0.4589 0.0
H1527 H 0.1457 0.18279 0.46022 0.0
C1528 C 0.06291 0.07978 0.44863 0.0
C1529 C 0.08911 0.05951 0.45255 0.0
C1530 C 0.08847 0.1014 0.44793 0.0
C1531 C 0.14069 0.10319 0.45114 0.0
C1532 C 0.16704 0.0828 0.45481 0.0
C1533 C 0.14159 0.06123 0.45549 0.0
C1534 C 0.24391 0.15023 0.4484 0.0
C1535 C 0.21834 0.17007 0.45302 0.0
C1536 C 0.21846 0.12859 0.44754 0.0
C1537 C 0.167 0.12638 0.45129 0.0
C1538 C 0.14136 0.14632 0.45575 0.0
C1539 C 0.16667 0.16789 0.4566 0.0
H1540 H 0.65732 0.68184 0.46257 0.0
H1541 H 0.79552 0.64835 0.44919 0.0
H1542 H 0.61129 0.64502 0.46083 0.0
H1543 H 0.74846 0.61127 0.44719 0.0
H1544 H 0.66413 0.54498 0.46064 0.0
H1545 H 0.7113 0.58171 0.4601 0.0
H1546 H 0.5764 0.61751 0.44654 0.0
H1547 H 0.52824 0.58057 0.44738 0.0
C1548 C 0.67798 0.66664 0.45918 0.0
C1549 C 0.73039 0.66807 0.45607 0.0
C1550 C 0.65122 0.64553 0.45807 0.0
C1551 C 0.67601 0.62523 0.4538 0.0
C1552 C 0.72837 0.62659 0.45061 0.0
C1553 C 0.75534 0.64781 0.45175 0.0
C1554 C 0.64431 0.56062 0.45749 0.0
C1555 C 0.59211 0.55986 0.45415 0.0
C1556 C 0.67169 0.58168 0.45708 0.0
C1557 C 0.6477 0.60255 0.45328 0.0
C1558 C 0.59581 0.60175 0.44966 0.0
C1559 C 0.56823 0.5806 0.4501 0.0
H1560 H 0.28964 0.58256 0.35165 0.0
H1561 H 0.15148 0.54961 0.33811 0.0
H1562 H 0.24301 0.6199 0.3535 0.0
H1563 H 0.10582 0.58668 0.33971 0.0
H1564 H 1.02406 0.65241 0.35213 0.0
H1565 H 0.07111 0.61517 0.3537 0.0
H1566 H 0.20751 0.649 0.33983 0.0
H1567 H 0.16136 0.68605 0.33851 0.0
C1568 C 0.24947 0.58325 0.34909 0.0
C1569 C 0.22448 0.56314 0.34467 0.0
C1570 C 0.22279 0.60461 0.35012 0.0
C1571 C 0.17066 0.60623 0.34676 0.0
C1572 C 0.14563 0.58598 0.34256 0.0
C1573 C 0.17214 0.56473 0.34154 0.0
C1574 C 0.06414 0.65189 0.34948 0.0
C1575 C 0.08875 0.67216 0.34512 0.0
C1576 C 0.09108 0.63057 0.35036 0.0
C1577 C 0.14308 0.62915 0.34688 0.0
C1578 C 0.1678 0.64955 0.34275 0.0
C1579 C 0.14102 0.67078 0.34189 0.0
H1580 H 0.64379 0.0481 0.33676 0.0
H1581 H 0.78205 0.08216 0.34955 0.0
H1582 H 0.59819 0.0853 0.33757 0.0
H1583 H 0.73549 0.11956 0.35064 0.0
H1584 H 0.65361 0.18518 0.33591 0.0
H1585 H 0.6994 0.14803 0.3369 0.0
H1586 H 0.56363 0.1143 0.35119 0.0
H1587 H 0.51691 0.15164 0.34993 0.0
C1588 C 0.66451 0.0635 0.33983 0.0
C1589 C 0.71683 0.06215 0.34303 0.0
C1590 C 0.63805 0.08483 0.3404 0.0
C1591 C 0.66309 0.10537 0.34421 0.0
C1592 C 0.71527 0.10405 0.34754 0.0
C1593 C 0.74192 0.08264 0.34694 0.0
C1594 C 0.63331 0.16991 0.3393 0.0
C1595 C 0.58136 0.17138 0.3428 0.0
C1596 C 0.65987 0.14861 0.33996 0.0
C1597 C 0.63529 0.12823 0.34416 0.0
C1598 C 0.58349 0.12968 0.34778 0.0
C1599 C 0.55673 0.15106 0.34709 0.0
H1600 H 0.05999 0.53549 0.12683 0.0
H1601 H 0.10133 0.46294 0.12038 0.0
H1602 H 0.11369 0.53569 0.14478 0.0
H1603 H 0.1568 0.46329 0.138 0.0
H1604 H 0.2142 0.46427 0.17671 0.0
H1605 H 0.15818 0.46375 0.15915 0.0
H1606 H 0.20005 0.53587 0.15138 0.0
H1607 H 0.25418 0.53655 0.16921 0.0
C1608 C 0.08079 0.51961 0.12923 0.0
C1609 C 0.07662 0.49926 0.12215 0.0
C1610 C 0.11202 0.51974 0.13948 0.0
C1611 C 0.1401 0.49953 0.1429 0.0
C1612 C 0.13543 0.47912 0.13581 0.0
C1613 C 0.10391 0.47896 0.12562 0.0
C1614 C 0.2112 0.48002 0.17126 0.0
C1615 C 0.23836 0.50049 0.1744 0.0
C1616 C 0.17936 0.4797 0.16111 0.0
C1617 C 0.17419 0.49979 0.15376 0.0
C1618 C 0.20206 0.52017 0.15688 0.0
C1619 C 0.23358 0.52051 0.16707 0.0
H1620 H 0.21058 0.69655 0.1224 0.0
H1621 H 0.2407 0.7707 0.12663 0.0
H1622 H 0.15413 0.69731 0.13973 0.0
H1623 H 0.18819 0.7714 0.14468 0.0
H1624 H 0.05924 0.77194 0.17203 0.0
H1625 H 0.11187 0.7718 0.15398 0.0
H1626 H 0.14415 0.69763 0.15953 0.0
H1627 H 0.08763 0.69771 0.17683 0.0
C1628 C 0.20574 0.71297 0.12723 0.0
C1629 C 0.23016 0.73353 0.12321 0.0
C1630 C 0.1736 0.71345 0.1373 0.0
C1631 C 0.16627 0.73438 0.14394 0.0
C1632 C 0.19139 0.75495 0.13985 0.0
C1633 C 0.22216 0.75458 0.12952 0.0
C1634 C 0.07744 0.75563 0.16926 0.0
C1635 C 0.06891 0.73479 0.17573 0.0
C1636 C 0.10827 0.75551 0.15894 0.0
C1637 C 0.13289 0.73466 0.15501 0.0
C1638 C 0.12507 0.71396 0.16182 0.0
C1639 C 0.0929 0.71397 0.17189 0.0
H1640 H 0.82207 0.52154 0.8751 0.0
H1641 H 0.8477 0.447 0.87083 0.0
H1642 H 0.87307 0.52133 0.89334 0.0
H1643 H 0.90295 0.4468 0.8884 0.0
H1644 H 0.96701 0.44642 0.92592 0.0
H1645 H 0.91276 0.44684 0.90821 0.0
H1646 H 0.94796 0.52078 0.903 0.0
H1647 H 0.99803 0.52044 0.92141 0.0
C1648 C 0.83942 0.50513 0.87802 0.0
C1649 C 0.83056 0.48426 0.87163 0.0
C1650 C 0.86938 0.50496 0.88847 0.0
C1651 C 0.89294 0.48402 0.89262 0.0
C1652 C 0.88475 0.46324 0.88591 0.0
C1653 C 0.85333 0.46331 0.8757 0.0
C1654 C 0.96287 0.46273 0.92095 0.0
C1655 C 0.9868 0.48337 0.92501 0.0
C1656 C 0.932 0.46302 0.91065 0.0
C1657 C 0.92548 0.48382 0.90384 0.0
C1658 C 0.95036 0.50443 0.90795 0.0
C1659 C 0.97979 0.50427 0.91849 0.0
H1660 H 1.00312 0.28475 0.87818 0.0
H1661 H 0.96236 0.2125 0.87094 0.0
H1662 H 0.94975 0.28414 0.89618 0.0
H1663 H 0.90726 0.21205 0.88861 0.0
H1664 H 0.84955 0.2113 0.92726 0.0
H1665 H 0.90562 0.21158 0.90973 0.0
H1666 H 0.86339 0.28407 0.90283 0.0
H1667 H 0.80919 0.28394 0.92067 0.0
C1668 C 0.98262 0.26874 0.88043 0.0
C1669 C 0.98684 0.24872 0.8731 0.0
C1670 C 0.95154 0.26842 0.8907 0.0
C1671 C 0.92362 0.24808 0.89392 0.0
C1672 C 0.92848 0.22797 0.8866 0.0
C1673 C 0.95985 0.22826 0.87638 0.0
C1674 C 0.85245 0.22731 0.92201 0.0
C1675 C 0.8252 0.24764 0.92541 0.0
C1676 C 0.88434 0.22744 0.91187 0.0
C1677 C 0.88947 0.24787 0.90477 0.0
C1678 C 0.86143 0.26811 0.90813 0.0
C1679 C 0.82985 0.268 0.91832 0.0
H1680 H 0.08901 0.96116 0.62083 0.0
H1681 H 0.04669 0.03339 0.62782 0.0
H1682 H 0.14309 0.96092 0.63869 0.0
H1683 H 0.0992 0.03302 0.64596 0.0
H1684 H 0.23984 0.03286 0.67064 0.0
H1685 H 0.18594 0.03294 0.65272 0.0
H1686 H 0.14241 0.96081 0.65991 0.0
H1687 H 0.19791 0.96059 0.67754 0.0
C1688 C 0.09097 0.97695 0.62625 0.0
C1689 C 0.06379 -0.00267 0.62287 0.0
C1690 C 0.12175 0.97679 0.63656 0.0
C1691 C 0.12588 -0.00303 0.64385 0.0
C1692 C 0.09788 0.01725 0.64052 0.0
C1693 C 0.06731 0.01743 0.63016 0.0
C1694 C 0.21885 0.01702 0.66835 0.0
C1695 C 0.223 -0.00324 0.67554 0.0
C1696 C 0.18751 0.0171 0.65812 0.0
C1697 C 0.15938 -0.0031 0.6548 0.0
C1698 C 0.16384 0.97661 0.66202 0.0
C1699 C 0.19539 0.97652 0.67221 0.0
H1700 H 0.2519 0.19947 0.62779 0.0
H1701 H 0.20927 0.27162 0.62061 0.0
H1702 H 0.19788 0.19957 0.64564 0.0
H1703 H 0.15329 0.27154 0.63818 0.0
H1704 H 0.095 0.27099 0.67693 0.0
H1705 H 0.15074 0.27159 0.65933 0.0
H1706 H 0.11149 0.19899 0.65207 0.0
H1707 H 0.05773 0.19823 0.66997 0.0
C1708 C 0.23077 0.21535 0.63001 0.0
C1709 C 0.23468 0.23549 0.62274 0.0
C1710 C 0.1993 0.21537 0.64021 0.0
C1711 C 0.17056 0.23551 0.6434 0.0
C1712 C 0.17506 0.25576 0.63615 0.0
C1713 C 0.20688 0.25577 0.62599 0.0
C1714 C 0.09851 0.25514 0.67159 0.0
C1715 C 0.07233 0.2345 0.67492 0.0
C1716 C 0.13018 0.25552 0.66141 0.0
C1717 C 0.13612 0.2353 0.65421 0.0
C1718 C 0.10894 0.21479 0.65747 0.0
C1719 C 0.07762 0.21439 0.66769 0.0
H1720 H 0.96335 0.94445 0.42598 0.0
H1721 H 0.9956 0.01822 0.4209 0.0
H1722 H 0.90704 0.94483 0.40861 0.0
H1723 H 0.94341 0.01848 0.40282 0.0
H1724 H 0.81422 0.01939 0.37579 0.0
H1725 H 0.86704 0.01919 0.39375 0.0
H1726 H 0.89545 0.94454 0.38882 0.0
H1727 H 0.83848 0.94474 0.37155 0.0
C1728 C 0.95901 0.96069 0.42096 0.0
C1729 C 0.98388 0.98128 0.42476 0.0
C1730 C 0.92695 0.96095 0.41086 0.0
C1731 C 0.92015 0.98167 0.404 0.0
C1732 C 0.946 0.00222 0.40784 0.0
C1733 C 0.97663 0.0021 0.41818 0.0
C1734 C 0.83161 0.00295 0.37866 0.0
C1735 C 0.8219 0.98206 0.37236 0.0
C1736 C 0.86261 0.0028 0.38894 0.0
C1737 C 0.88636 0.98183 0.393 0.0
C1738 C 0.8772 0.96101 0.3864 0.0
C1739 C 0.84477 0.96107 0.37636 0.0
H1740 H 1.00638 0.78436 0.37901 0.0
H1741 H 0.96402 0.71228 0.37181 0.0
H1742 H 0.95445 0.78382 0.39721 0.0
H1743 H 0.91025 0.71191 0.38973 0.0
H1744 H 0.85593 0.71118 0.42863 0.0
H1745 H 0.91074 0.71142 0.41089 0.0
H1746 H 0.86853 0.78399 0.4042 0.0
H1747 H 0.81554 0.78389 0.42225 0.0
C1748 C 0.98579 0.7684 0.38131 0.0
C1749 C 0.98915 0.7484 0.37394 0.0
C1750 C 0.95554 0.76813 0.39171 0.0
C1751 C 0.92759 0.74786 0.395 0.0
C1752 C 0.93153 0.72777 0.38764 0.0
C1753 C 0.96209 0.72801 0.37728 0.0
C1754 C 0.85863 0.72721 0.42339 0.0
C1755 C 0.83174 0.74758 0.4269 0.0
C1756 C 0.88976 0.72732 0.41313 0.0
C1757 C 0.89441 0.74774 0.40601 0.0
C1758 C 0.86686 0.76803 0.40951 0.0
C1759 C 0.83603 0.76795 0.41982 0.0
H1760 H 0.55546 0.46347 0.62649 0.0
H1761 H 0.58404 0.53776 0.62223 0.0
H1762 H 0.60596 0.46315 0.64481 0.0
H1763 H 0.63876 0.53739 0.63989 0.0
H1764 H 0.70605 0.53662 0.67712 0.0
H1765 H 0.64998 0.53701 0.65968 0.0
H1766 H 0.68156 0.46279 0.65414 0.0
H1767 H 0.73339 0.46235 0.67225 0.0
C1768 C 0.57319 0.47972 0.62945 0.0
C1769 C 0.56545 0.50066 0.62302 0.0
C1770 C 0.60291 0.47957 0.63994 0.0
C1771 C 0.62743 0.50024 0.64408 0.0
C1772 C 0.61994 0.52114 0.63739 0.0
C1773 C 0.58875 0.5214 0.62714 0.0
C1774 C 0.70064 0.52043 0.67214 0.0
C1775 C 0.7241 0.49948 0.67601 0.0
C1776 C 0.66872 0.52061 0.66201 0.0
C1777 C 0.66067 0.49996 0.65518 0.0
C1778 C 0.68506 0.47904 0.65912 0.0
C1779 C 0.71552 0.47875 0.66948 0.0
H1780 H 0.72971 0.76888 0.62632 0.0
H1781 H 0.70322 0.69462 0.62134 0.0
H1782 H 0.67725 0.76837 0.64433 0.0
H1783 H 0.64661 0.69416 0.63869 0.0
H1784 H 0.58042 0.69333 0.67612 0.0
H1785 H 0.63542 0.69378 0.65852 0.0
H1786 H 0.60113 0.76791 0.65349 0.0
H1787 H 0.55026 0.76752 0.67176 0.0
C1788 C 0.71187 0.75247 0.62903 0.0
C1789 C 0.72089 0.73176 0.62251 0.0
C1790 C 0.68108 0.75214 0.63934 0.0
C1791 C 0.65681 0.7312 0.64322 0.0
C1792 C 0.66525 0.71058 0.6364 0.0
C1793 C 0.69748 0.7108 0.62631 0.0
C1794 C 0.58485 0.70967 0.67121 0.0
C1795 C 0.56102 0.73036 0.67529 0.0
C1796 C 0.6162 0.70998 0.66098 0.0
C1797 C 0.62335 0.73088 0.65429 0.0
C1798 C 0.59832 0.7515 0.65838 0.0
C1799 C 0.5684 0.7513 0.66883 0.0
H1800 H 0.34851 0.52148 0.37072 0.0
H1801 H 0.30485 0.44944 0.37765 0.0
H1802 H 0.40368 0.52109 0.38838 0.0
H1803 H 0.35819 0.44922 0.39565 0.0
H1804 H 0.49847 0.44749 0.42014 0.0
H1805 H 0.44412 0.44828 0.40234 0.0
H1806 H 0.40621 0.52116 0.40944 0.0
H1807 H 0.46258 0.52052 0.42692 0.0
C1808 C 0.3504 0.50559 0.3761 0.0
C1809 C 0.32259 0.48543 0.37273 0.0
C1810 C 0.3818 0.5054 0.38631 0.0
C1811 C 0.38586 0.48509 0.39354 0.0
C1812 C 0.35708 0.46507 0.39025 0.0
C1813 C 0.326 0.46523 0.37997 0.0
C1814 C 0.47872 0.46371 0.41785 0.0
C1815 C 0.48467 0.48391 0.42498 0.0
C1816 C 0.44704 0.46413 0.40768 0.0
C1817 C 0.42014 0.48474 0.40438 0.0
C1818 C 0.42656 0.50501 0.41153 0.0
C1819 C 0.45862 0.50462 0.42164 0.0
H1820 H 0.3328 0.28623 0.42588 0.0
H1821 H 0.3059 0.21198 0.421 0.0
H1822 H 0.38758 0.28679 0.40825 0.0
H1823 H 0.35649 0.21259 0.40268 0.0
H1824 H 0.48358 0.21364 0.37514 0.0
H1825 H 0.43184 0.21303 0.39325 0.0
H1826 H 0.3985 0.28732 0.38847 0.0
H1827 H 0.45453 0.28797 0.37102 0.0
C1828 C 0.33793 0.27008 0.42084 0.0
C1829 C 0.31503 0.24909 0.42478 0.0
C1830 C 0.36913 0.27036 0.4106 0.0
C1831 C 0.37703 0.24976 0.40372 0.0
C1832 C 0.35306 0.22881 0.40769 0.0
C1833 C 0.32332 0.22841 0.41818 0.0
C1834 C 0.46532 0.22983 0.37806 0.0
C1835 C 0.47343 0.25088 0.37175 0.0
C1836 C 0.43492 0.22951 0.38844 0.0
C1837 C 0.41011 0.25013 0.39259 0.0
C1838 C 0.41761 0.27111 0.38597 0.0
C1839 C 0.44949 0.27154 0.37583 0.0
H1840 H 0.73362 0.96157 0.17241 0.0
H1841 H 0.70445 0.03588 0.1765 0.0
H1842 H 0.68382 0.96127 0.15397 0.0
H1843 H 0.65047 0.03554 0.15875 0.0
H1844 H 0.58764 0.03529 0.12118 0.0
H1845 H 0.64161 0.03533 0.13893 0.0
H1846 H 0.60911 0.96115 0.14417 0.0
H1847 H 0.55931 0.96105 0.12572 0.0
C1848 C 0.71587 0.97782 0.16939 0.0
C1849 C 0.72333 -0.00122 0.1758 0.0
C1850 C 0.68659 0.97769 0.15883 0.0
C1851 C 0.66232 -0.0016 0.15459 0.0
C1852 C 0.66926 0.01927 0.1613 0.0
C1853 C 0.69999 0.01952 0.17162 0.0
C1854 C 0.59227 0.01903 0.12616 0.0
C1855 C 0.56915 -0.0018 0.12211 0.0
C1856 C 0.623 0.01901 0.13648 0.0
C1857 C 0.63017 -0.00173 0.14332 0.0
C1858 C 0.60615 0.97746 0.1392 0.0
C1859 C 0.57687 0.97737 0.12864 0.0
H1860 H 0.71528 0.27076 0.12135 0.0
H1861 H 0.75436 0.19811 0.12833 0.0
H1862 H 0.65948 0.27112 0.1389 0.0
H1863 H 0.70029 0.19862 0.14622 0.0
H1864 H 0.5599 0.19955 0.17093 0.0
H1865 H 0.61398 0.19914 0.15302 0.0
H1866 H 0.65802 0.2713 0.15994 0.0
H1867 H 0.60217 0.27187 0.17746 0.0
C1868 C 0.71222 0.25489 0.12671 0.0
C1869 C 0.73902 0.23437 0.1234 0.0
C1870 C 0.68045 0.25512 0.13686 0.0
C1871 C 0.67499 0.23489 0.14409 0.0
C1872 C 0.70257 0.21445 0.14082 0.0
C1873 C 0.73406 0.21419 0.13061 0.0
C1874 C 0.58094 0.21534 0.16856 0.0
C1875 C 0.57696 0.23569 0.17565 0.0
C1876 C 0.61243 0.21507 0.15833 0.0
C1877 C 0.64089 0.23516 0.15495 0.0
C1878 C 0.63636 0.25556 0.16207 0.0
C1879 C 0.60459 0.25586 0.17221 0.0
H1880 H 0.34697 0.02085 0.86969 0.0
H1881 H 0.3056 0.94852 0.87657 0.0
H1882 H 0.40233 0.02077 0.88731 0.0
H1883 H 0.35904 0.94861 0.89456 0.0
H1884 H 0.49904 0.94792 0.91914 0.0
H1885 H 0.44498 0.9483 0.90129 0.0
H1886 H 0.40432 0.02089 0.90838 0.0
H1887 H 0.46045 0.02067 0.9259 0.0
C1888 C 0.34951 0.00494 0.87503 0.0
C1889 C 0.32233 0.98461 0.87166 0.0
C1890 C 0.38096 0.00494 0.88523 0.0
C1891 C 0.38558 0.98467 0.89246 0.0
C1892 C 0.35746 0.96444 0.88915 0.0
C1893 C 0.32636 0.96441 0.87888 0.0
C1894 C 0.47874 0.96399 0.91683 0.0
C1895 C 0.48385 0.98423 0.92398 0.0
C1896 C 0.44723 0.96417 0.90664 0.0
C1897 C 0.41966 0.98458 0.90333 0.0
C1898 C 0.42522 0.00489 0.91048 0.0
C1899 C 0.4571 0.00474 0.92063 0.0
H1900 H 0.49388 0.78574 0.87834 0.0
H1901 H 0.45994 0.7126 0.87149 0.0
H1902 H 0.43945 0.78469 0.89613 0.0
H1903 H 0.40355 0.71168 0.88896 0.0
H1904 H 0.34593 0.71116 0.92771 0.0
H1905 H 0.40127 0.71177 0.91007 0.0
H1906 H 0.35312 0.7833 0.90266 0.0
H1907 H 0.29962 0.78287 0.92062 0.0
C1908 C 0.47455 0.76944 0.88061 0.0
C1909 C 0.48103 0.74929 0.87346 0.0
C1910 C 0.44283 0.76887 0.89077 0.0
C1911 C 0.41648 0.74813 0.89404 0.0
C1912 C 0.42347 0.72792 0.88688 0.0
C1913 C 0.45552 0.72847 0.87678 0.0
C1914 C 0.34727 0.72701 0.9223 0.0
C1915 C 0.31869 0.74703 0.92562 0.0
C1916 C 0.37876 0.72733 0.91211 0.0
C1917 C 0.38213 0.74762 0.90485 0.0
C1918 C 0.35254 0.76748 0.90809 0.0
C1919 C 0.32137 0.7672 0.91834 0.0
H1920 H 0.12378 0.68303 0.09368 0.0
H1921 H 0.26699 0.6602 0.07765 0.0
H1922 H 0.09256 0.64232 0.09308 0.0
H1923 H 0.23583 0.62 0.07707 0.0
H1924 H 0.18619 0.54808 0.09239 0.0
H1925 H 0.21578 0.58895 0.09222 0.0
H1926 H 0.06923 0.61135 0.07793 0.0
H1927 H 0.03947 0.57083 0.0781 0.0
C1928 C 0.14829 0.66945 0.08993 0.0
C1929 C 0.19787 0.67484 0.08578 0.0
C1930 C 0.1305 0.64619 0.08959 0.0
C1931 C 0.16214 0.62803 0.08515 0.0
C1932 C 0.21107 0.63357 0.08074 0.0
C1933 C 0.22868 0.65669 0.08102 0.0
C1934 C 0.16047 0.56169 0.08913 0.0
C1935 C 0.11053 0.55615 0.08528 0.0
C1936 C 0.17737 0.58506 0.08903 0.0
C1937 C 0.14455 0.60327 0.08513 0.0
C1938 C 0.09499 0.5977 0.08114 0.0
C1939 C 0.07822 0.5744 0.08117 0.0
H1940 H 0.1814 0.68785 0.21532 0.0
H1941 H 0.03006 0.65992 0.20814 0.0
H1942 H 0.21596 0.64777 0.21586 0.0
H1943 H 0.0645 0.62028 0.20793 0.0
H1944 H 0.13095 0.54942 0.21779 0.0
H1945 H 0.09685 0.58948 0.21937 0.0
H1946 H 0.23628 0.61655 0.20325 0.0
H1947 H 0.27094 0.57691 0.20242 0.0
C1948 C 0.15574 0.67314 0.21379 0.0
C1949 C 0.10319 0.67689 0.21178 0.0
C1950 C 0.1754 0.65019 0.21402 0.0
C1951 C 0.14299 0.6307 0.21194 0.0
C1952 C 0.09044 0.63469 0.20986 0.0
C1953 C 0.07073 0.65749 0.2099 0.0
C1954 C 0.154 0.56404 0.21462 0.0
C1955 C 0.20348 0.56023 0.21006 0.0
C1956 C 0.13459 0.58697 0.21547 0.0
C1957 C 0.16394 0.60636 0.21149 0.0
C1958 C 0.21311 0.60225 0.20672 0.0
C1959 C 0.23281 0.57948 0.20613 0.0
H1960 H 0.78968 0.32201 0.96877 0.0
H1961 H 0.93674 0.29812 0.95518 0.0
H1962 H 0.82061 0.36223 0.969 0.0
H1963 H 0.96768 0.33888 0.95541 0.0
H1964 H 1.01771 0.41047 0.97059 0.0
H1965 H 0.98704 0.37013 0.97062 0.0
H1966 H 0.84542 0.39272 0.9539 0.0
H1967 H 0.87605 0.43349 0.95386 0.0
C1968 C 0.82875 0.32529 0.96584 0.0
C1969 C 0.86083 0.30681 0.96192 0.0
C1970 C 0.84622 0.34842 0.96591 0.0
C1971 C 0.89623 0.35366 0.96212 0.0
C1972 C 0.92888 0.33523 0.95842 0.0
C1973 C 0.91126 0.31195 0.95829 0.0
C1974 C 0.97986 0.40697 0.96695 0.0
C1975 C 0.94923 0.42521 0.9622 0.0
C1976 C 0.96259 0.38379 0.9669 0.0
C1977 C 0.9142 0.37832 0.96217 0.0
C1978 C 0.88292 0.39655 0.95765 0.0
C1979 C 0.90035 0.41984 0.95764 0.0
H1980 H 0.7918 0.41386 0.82696 0.0
H1981 H 0.93631 0.43606 0.8425 0.0
H1982 H 0.82117 0.37322 0.8271 0.0
H1983 H 0.96553 0.39509 0.84264 0.0
H1984 H 1.01794 0.32357 0.82848 0.0
H1985 H 0.98766 0.36392 0.82777 0.0
H1986 H 0.84162 0.3422 0.84251 0.0
H1987 H 0.87192 0.30128 0.84322 0.0
C1988 C 0.82999 0.41014 0.83036 0.0
C1989 C 0.86177 0.42826 0.83474 0.0
C1990 C 0.84652 0.38678 0.83052 0.0
C1991 C 0.89532 0.38102 0.83497 0.0
C1992 C 0.92771 0.39912 0.8391 0.0
C1993 C 0.91104 0.42255 0.83901 0.0
C1994 C 0.97922 0.32722 0.83155 0.0
C1995 C 0.9473 0.30915 0.83595 0.0
C1996 C 0.96211 0.35044 0.8312 0.0
C1997 C 0.9126 0.35619 0.83518 0.0
C1998 C 0.88002 0.33815 0.83934 0.0
C1999 C 0.8973 0.31478 0.83976 0.0
H2000 H 0.03675 0.0729 0.57869 0.0
H2001 H 0.17995 0.04885 0.59428 0.0
H2002 H 0.06825 0.11312 0.57874 0.0
H2003 H 0.21131 0.08947 0.59439 0.0
H2004 H 0.26789 0.15998 0.57956 0.0
H2005 H 0.23575 0.11994 0.5795 0.0
H2006 H 0.09026 0.14429 0.59356 0.0
H2007 H 0.12238 0.18483 0.59358 0.0
C2008 C 0.07507 0.07615 0.58211 0.0
C2009 C 0.10597 0.05763 0.58647 0.0
C2010 C 0.09284 0.09928 0.58222 0.0
C2011 C 0.14198 0.10442 0.58664 0.0
C2012 C 0.17329 0.08592 0.59086 0.0
C2013 C 0.15539 0.0627 0.5908 0.0
C2014 C 0.22892 0.15695 0.58263 0.0
C2015 C 0.19763 0.17565 0.5866 0.0
C2016 C 0.21074 0.13391 0.58266 0.0
C2017 C 0.16078 0.12899 0.58662 0.0
C2018 C 0.12896 0.14766 0.59041 0.0
C2019 C 0.14728 0.17083 0.59042 0.0
H2020 H 0.04047 0.1599 0.72055 0.0
H2021 H 0.1824 0.18212 0.70378 0.0
H2022 H 0.07061 0.11949 0.72074 0.0
H2023 H 0.21262 0.14116 0.70398 0.0
H2024 H 0.26552 0.06915 0.71866 0.0
H2025 H 0.23691 0.10986 0.71884 0.0
H2026 H 0.08825 0.08843 0.70551 0.0
H2027 H 0.11669 0.04732 0.70534 0.0
C2028 C 0.07828 0.15621 0.71692 0.0
C2029 C 0.10902 0.17427 0.71208 0.0
C2030 C 0.09529 0.13297 0.71698 0.0
C2031 C 0.14357 0.12717 0.71225 0.0
C2032 C 0.17517 0.14522 0.70771 0.0
C2033 C 0.15797 0.16862 0.7076 0.0
C2034 C 0.22657 0.07297 0.7158 0.0
C2035 C 0.19329 0.0549 0.71198 0.0
C2036 C 0.21046 0.09639 0.71582 0.0
C2037 C 0.16061 0.1023 0.71212 0.0
C2038 C 0.1269 0.08429 0.70848 0.0
C2039 C 0.14314 0.06078 0.70838 0.0
H2040 H 0.94011 0.79655 0.45665 0.0
H2041 H 0.79324 0.81921 0.47087 0.0
H2042 H 0.96941 0.83745 0.45668 0.0
H2043 H 0.82271 0.85977 0.4709 0.0
H2044 H 0.87629 0.93127 0.4547 0.0
H2045 H 0.84559 0.89049 0.45556 0.0
H2046 H 0.98923 0.86886 0.47165 0.0
H2047 H 1.01988 0.90914 0.47081 0.0
C2048 C 0.9143 0.81014 0.45988 0.0
C2049 C 0.86437 0.80457 0.46373 0.0
C2050 C 0.93105 0.83354 0.4599 0.0
C2051 C 0.89808 0.85175 0.46372 0.0
C2052 C 0.84857 0.84613 0.46774 0.0
C2053 C 0.83196 0.82281 0.46779 0.0
C2054 C 0.901 0.91783 0.45852 0.0
C2055 C 0.95052 0.92343 0.46262 0.0
C2056 C 0.8835 0.89454 0.45901 0.0
C2057 C 0.91538 0.87654 0.46356 0.0
C2058 C 0.96428 0.8823 0.46791 0.0
C2059 C 0.9816 0.90546 0.46748 0.0
H2060 H 0.87258 0.79799 0.33124 0.0
H2061 H 1.01871 0.82463 0.34353 0.0
H2062 H 0.84013 0.83834 0.32959 0.0
H2063 H 0.98588 0.86459 0.34275 0.0
H2064 H 0.93115 0.93612 0.3313 0.0
H2065 H 0.96329 0.89565 0.33052 0.0
H2066 H 0.81258 0.87012 0.3407 0.0
H2067 H 0.78034 0.91016 0.34062 0.0
C2068 C 0.89737 0.81251 0.33373 0.0
C2069 C 0.94802 0.80837 0.33743 0.0
C2070 C 0.87891 0.83562 0.33285 0.0
C2071 C 0.91044 0.85488 0.33599 0.0
C2072 C 0.96087 0.85042 0.33992 0.0
C2073 C 0.97959 0.82747 0.34049 0.0
C2074 C 0.90511 0.92173 0.33325 0.0
C2075 C 0.85338 0.92615 0.33593 0.0
C2076 C 0.92342 0.89855 0.3329 0.0
C2077 C 0.89058 0.87947 0.33558 0.0
C2078 C 0.83881 0.88415 0.3383 0.0
C2079 C 0.82035 0.90718 0.33834 0.0
H2080 H 0.67974 0.55122 0.59253 0.0
H2081 H 0.5337 0.57331 0.57763 0.0
H2082 H 0.70966 0.59212 0.59174 0.0
H2083 H 0.56362 0.61372 0.57687 0.0
H2084 H 0.61556 0.68579 0.59224 0.0
H2085 H 0.58567 0.64496 0.59189 0.0
H2086 H 0.72987 0.62304 0.57621 0.0
H2087 H 0.75983 0.66353 0.57651 0.0
C2088 C 0.65428 0.56468 0.58901 0.0
C2089 C 0.6044 0.559 0.58518 0.0
C2090 C 0.67135 0.58804 0.58855 0.0
C2091 C 0.63868 0.60604 0.58433 0.0
C2092 C 0.58926 0.60025 0.58033 0.0
C2093 C 0.57237 0.57701 0.58071 0.0
C2094 C 0.6406 0.67232 0.58859 0.0
C2095 C 0.6901 0.67794 0.58446 0.0
C2096 C 0.62355 0.64896 0.5884 0.0
C2097 C 0.6558 0.63087 0.58414 0.0
C2098 C 0.70464 0.63659 0.57973 0.0
C2099 C 0.72153 0.65986 0.57984 0.0
H2100 H 0.61481 0.54585 0.70598 0.0
H2101 H 0.7586 0.56821 0.72182 0.0
H2102 H 0.58467 0.5867 0.70617 0.0
H2103 H 0.72838 0.60873 0.72195 0.0
H2104 H 0.67639 0.68059 0.70566 0.0
H2105 H 0.70735 0.63978 0.70636 0.0
H2106 H 0.56227 0.61764 0.72143 0.0
H2107 H 0.53137 0.65794 0.72078 0.0
C2108 C 0.63972 0.55936 0.70961 0.0
C2109 C 0.68907 0.55374 0.71386 0.0
C2110 C 0.62252 0.58271 0.7097 0.0
C2111 C 0.65451 0.60083 0.71398 0.0
C2112 C 0.70334 0.59515 0.71844 0.0
C2113 C 0.72036 0.57186 0.71843 0.0
C2114 C 0.65138 0.66703 0.70921 0.0
C2115 C 0.60147 0.67253 0.71313 0.0
C2116 C 0.66904 0.64372 0.70962 0.0
C2117 C 0.63689 0.6256 0.71385 0.0
C2118 C 0.58748 0.63121 0.71795 0.0
C2119 C 0.57003 0.65439 0.71764 0.0
H2120 H 0.37315 0.43399 0.45438 0.0
H2121 H 0.51688 0.40879 0.46923 0.0
H2122 H 0.34 0.3936 0.4546 0.0
H2123 H 0.48376 0.36892 0.46948 0.0
H2124 H 0.42906 0.29824 0.45404 0.0
H2125 H 0.46058 0.33879 0.45426 0.0
H2126 H 0.31639 0.36226 0.46939 0.0
H2127 H 0.2847 0.32203 0.46912 0.0
C2128 C 0.3974 0.41995 0.45779 0.0
C2129 C 0.44765 0.42459 0.46172 0.0
C2130 C 0.37849 0.39688 0.45791 0.0
C2131 C 0.40965 0.37816 0.46194 0.0
C2132 C 0.45932 0.38294 0.46612 0.0
C2133 C 0.47808 0.40587 0.46603 0.0
C2134 C 0.40428 0.31203 0.45748 0.0
C2135 C 0.3545 0.3069 0.46157 0.0
C2136 C 0.42228 0.33521 0.45761 0.0
C2137 C 0.39071 0.35363 0.46179 0.0
C2138 C 0.34119 0.34845 0.46597 0.0
C2139 C 0.32331 0.32534 0.46589 0.0
H2140 H 0.5143 0.32109 0.32605 0.0
H2141 H 0.36961 0.29944 0.34173 0.0
H2142 H 0.48539 0.36178 0.32599 0.0
H2143 H 0.34077 0.34049 0.34162 0.0
H2144 H 0.2902 0.41245 0.32739 0.0
H2145 H 0.31947 0.37194 0.32662 0.0
H2146 H 0.46569 0.3927 0.3416 0.0
H2147 H 0.43638 0.43377 0.34239 0.0
C2148 C 0.47614 0.32494 0.32943 0.0
C2149 C 0.44426 0.30696 0.33395 0.0
C2150 C 0.45987 0.34833 0.32946 0.0
C2151 C 0.41121 0.35428 0.33392 0.0
C2152 C 0.37853 0.33631 0.3381 0.0
C2153 C 0.39496 0.31283 0.33814 0.0
C2154 C 0.32876 0.40856 0.33049 0.0
C2155 C 0.36101 0.42639 0.33499 0.0
C2156 C 0.34528 0.38525 0.33011 0.0
C2157 C 0.39453 0.37919 0.33414 0.0
C2158 C 0.42747 0.39699 0.33839 0.0
C2159 C 0.41076 0.42045 0.33885 0.0
H2160 H 0.68292 0.04795 0.09346 0.0
H2161 H 0.54 0.07188 0.07768 0.0
H2162 H 0.7139 0.08861 0.09374 0.0
H2163 H 0.57112 0.11219 0.07793 0.0
H2164 H 0.62451 0.1836 0.09365 0.0
H2165 H 0.59254 0.14302 0.09317 0.0
H2166 H 0.73817 0.1194 0.07888 0.0
H2167 H 0.77016 0.15945 0.07939 0.0
C2168 C 0.65837 0.06179 0.08996 0.0
C2169 C 0.60912 0.05668 0.08554 0.0
C2170 C 0.67604 0.08503 0.09012 0.0
C2171 C 0.64466 0.10351 0.08592 0.0
C2172 C 0.59573 0.09834 0.08139 0.0
C2173 C 0.5782 0.07517 0.08116 0.0
C2174 C 0.64947 0.16975 0.09034 0.0
C2175 C 0.69982 0.17476 0.08659 0.0
C2176 C 0.63123 0.14657 0.09006 0.0
C2177 C 0.66317 0.1281 0.08609 0.0
C2178 C 0.7131 0.13322 0.08218 0.0
C2179 C 0.73118 0.15626 0.0824 0.0
H2180 H 0.68663 0.18435 0.20542 0.0
H2181 H 0.53801 0.16472 0.21976 0.0
H2182 H 0.71238 0.14282 0.20562 0.0
H2183 H 0.56384 0.12363 0.21989 0.0
H2184 H 0.61326 0.05062 0.20453 0.0
H2185 H 0.58573 0.09201 0.20448 0.0
H2186 H 0.728 0.1119 0.22165 0.0
H2187 H 0.75536 0.07109 0.2218 0.0
C2188 C 0.65967 0.17129 0.20867 0.0
C2189 C 0.61042 0.17789 0.21259 0.0
C2190 C 0.67434 0.14757 0.20878 0.0
C2191 C 0.63981 0.13011 0.2127 0.0
C2192 C 0.59083 0.13672 0.21667 0.0
C2193 C 0.57637 0.16034 0.21668 0.0
C2194 C 0.63828 0.06382 0.2084 0.0
C2195 C 0.68646 0.05757 0.21311 0.0
C2196 C 0.62266 0.08745 0.20835 0.0
C2197 C 0.65521 0.10507 0.21292 0.0
C2198 C 0.7027 0.09871 0.21786 0.0
C2199 C 0.71806 0.07524 0.21801 0.0
H2200 H 0.4346 0.79822 0.95423 0.0
H2201 H 0.28906 0.82204 0.96869 0.0
H2202 H 0.46524 0.83896 0.95407 0.0
H2203 H 0.31982 0.86236 0.96858 0.0
H2204 H 0.37501 0.93376 0.95329 0.0
H2205 H 0.34339 0.89313 0.95352 0.0
H2206 H 0.48673 0.86981 0.96916 0.0
H2207 H 0.51836 0.90995 0.96891 0.0
C2208 C 0.40937 0.81205 0.95744 0.0
C2209 C 0.35952 0.80688 0.96147 0.0
C2210 C 0.42684 0.83532 0.95736 0.0
C2211 C 0.39466 0.85376 0.96126 0.0
C2212 C 0.34508 0.84854 0.96536 0.0
C2213 C 0.32774 0.82536 0.9655 0.0
C2214 C 0.39949 0.91997 0.95686 0.0
C2215 C 0.44915 0.92506 0.96103 0.0
C2216 C 0.38148 0.89676 0.95698 0.0
C2217 C 0.41296 0.87837 0.96124 0.0
C2218 C 0.4621 0.88358 0.96562 0.0
C2219 C 0.47996 0.90666 0.96554 0.0
H2220 H 0.51644 0.82358 0.82795 0.0
H2221 H 0.37175 0.8008 0.84319 0.0
H2222 H 0.48534 0.86381 0.82727 0.0
H2223 H 0.34054 0.8416 0.84247 0.0
H2224 H 0.28948 0.91336 0.82701 0.0
H2225 H 0.31907 0.87275 0.82707 0.0
H2226 H 0.46363 0.8947 0.84246 0.0
H2227 H 0.43419 0.93565 0.84243 0.0
C2228 C 0.47782 0.8271 0.83114 0.0
C2229 C 0.44658 0.80895 0.83571 0.0
C2230 C 0.46024 0.85024 0.8308 0.0
C2231 C 0.4109 0.85582 0.83494 0.0
C2232 C 0.37883 0.83768 0.83919 0.0
C2233 C 0.39661 0.81438 0.8396 0.0
C2234 C 0.32776 0.90967 0.83037 0.0
C2235 C 0.35955 0.92781 0.83473 0.0
C2236 C 0.34441 0.88632 0.83047 0.0
C2237 C 0.39335 0.8806 0.83484 0.0
C2238 C 0.4257 0.89871 0.83898 0.0
C2239 C 0.4089 0.92213 0.83896 0.0
H2240 H 0.69005 0.45055 0.08451 0.0
H2241 H 0.66322 0.52569 0.08543 0.0
H2242 H 0.59742 0.44371 0.08579 0.0
H2243 H 0.57108 0.5189 0.08674 0.0
H2244 H 0.40555 0.50045 0.07843 0.0
H2245 H 0.49788 0.50539 0.07561 0.0
H2246 H 0.52654 0.44708 0.09962 0.0
H2247 H 0.43422 0.44147 0.10201 0.0
C2248 C 0.66447 0.46561 0.08503 0.0
C2249 C 0.68427 0.48867 0.08481 0.0
C2250 C 0.6113 0.4617 0.08577 0.0
C2251 C 0.57654 0.48075 0.08633 0.0
C2252 C 0.59643 0.50378 0.08608 0.0
C2253 C 0.64946 0.50768 0.08533 0.0
C2254 C 0.43146 0.48843 0.08296 0.0
C2255 C 0.41219 0.47061 0.09049 0.0
C2256 C 0.48455 0.49145 0.08146 0.0
C2257 C 0.5199 0.47675 0.08745 0.0
C2258 C 0.50061 0.45863 0.09478 0.0
C2259 C 0.44754 0.45561 0.09628 0.0
H2260 H 0.63556 0.72445 0.11048 0.0
H2261 H 0.63038 0.75095 0.07423 0.0
H2262 H 0.72871 0.7294 0.11071 0.0
H2263 H 0.72342 0.75665 0.07461 0.0
H2264 H 0.89552 0.7375 0.07488 0.0
H2265 H 0.80213 0.73326 0.07467 0.0
H2266 H 0.79481 0.75951 0.11091 0.0
H2267 H 0.88806 0.7638 0.11112 0.0
C2268 C 0.65427 0.73141 0.10257 0.0
C2269 C 0.6254 0.73723 0.09232 0.0
C2270 C 0.70768 0.73447 0.10274 0.0
C2271 C 0.73371 0.74337 0.09267 0.0
C2272 C 0.70476 0.74948 0.08248 0.0
C2273 C 0.65129 0.74649 0.08231 0.0
C2274 C 0.87399 0.74252 0.08278 0.0
C2275 C 0.89949 0.75093 0.09303 0.0
C2276 C 0.82037 0.74012 0.08265 0.0
C2277 C 0.79082 0.74606 0.09277 0.0
C2278 C 0.81634 0.75442 0.10302 0.0
C2279 C 0.86992 0.75684 0.10315 0.0
H2280 H 0.66833 0.75101 0.22595 0.0
H2281 H 0.66537 0.72939 0.1889 0.0
H2282 H 0.57526 0.75695 0.22546 0.0
H2283 H 0.57228 0.7346 0.18851 0.0
H2284 H 0.41321 0.76932 0.18859 0.0
H2285 H 0.50643 0.76496 0.18909 0.0
H2286 H 0.49626 0.73381 0.2243 0.0
H2287 H 0.40282 0.73808 0.22379 0.0
C2288 C 0.64791 0.74767 0.21768 0.0
C2289 C 0.67443 0.7397 0.20747 0.0
C2290 C 0.59442 0.7508 0.21743 0.0
C2291 C 0.56611 0.74616 0.20696 0.0
C2292 C 0.59279 0.73854 0.1967 0.0
C2293 C 0.64618 0.73532 0.19696 0.0
C2294 C 0.4307 0.76128 0.19639 0.0
C2295 C 0.40026 0.75396 0.20613 0.0
C2296 C 0.48428 0.75882 0.19669 0.0
C2297 C 0.509 0.74902 0.20673 0.0
C2298 C 0.47863 0.74177 0.21649 0.0
C2299 C 0.42499 0.74419 0.21619 0.0
H2300 H 0.89287 0.44833 0.21736 0.0
H2301 H 0.90561 0.51729 0.20122 0.0
H2302 H 0.79985 0.45331 0.21879 0.0
H2303 H 0.8125 0.52186 0.20218 0.0
H2304 H 0.65074 0.53303 0.21639 0.0
H2305 H 0.7436 0.52775 0.21619 0.0
H2306 H 0.72385 0.45474 0.20629 0.0
H2307 H 0.63061 0.45975 0.20702 0.0
C2308 C 0.87591 0.46461 0.21417 0.0
C2309 C 0.90691 0.48243 0.20919 0.0
C2310 C 0.82242 0.46734 0.21484 0.0
C2311 C 0.79848 0.48797 0.21058 0.0
C2312 C 0.82954 0.50584 0.20568 0.0
C2313 C 0.88299 0.50311 0.205 0.0
C2314 C 0.66605 0.51573 0.21436 0.0
C2315 C 0.63294 0.4968 0.21177 0.0
C2316 C 0.71947 0.51279 0.21408 0.0
C2317 C 0.74142 0.49085 0.21117 0.0
C2318 C 0.70838 0.47184 0.20868 0.0
C2319 C 0.65484 0.47478 0.20896 0.0
H2320 H 0.64874 0.47168 0.94284 0.0
H2321 H 0.63872 0.52789 0.96879 0.0
H2322 H 0.55557 0.46689 0.94362 0.0
H2323 H 0.54561 0.52263 0.96983 0.0
H2324 H 0.37523 0.52364 0.95801 0.0
H2325 H 0.46847 0.52873 0.9575 0.0
H2326 H 0.48847 0.45316 0.9572 0.0
H2327 H 0.39557 0.44803 0.95783 0.0
C2328 C 0.62668 0.48301 0.94873 0.0
C2329 C 0.65132 0.50018 0.95575 0.0
C2330 C 0.57326 0.48011 0.94926 0.0
C2331 C 0.54301 0.49438 0.95679 0.0
C2332 C 0.56764 0.5115 0.96385 0.0
C2333 C 0.62112 0.51432 0.96336 0.0
C2334 C 0.39948 0.5081 0.95794 0.0
C2335 C 0.37765 0.48541 0.95789 0.0
C2336 C 0.453 0.51103 0.95765 0.0
C2337 C 0.48604 0.49135 0.95727 0.0
C2338 C 0.46421 0.4687 0.95728 0.0
C2339 C 0.41081 0.46577 0.95761 0.0
H2340 H 0.41504 0.27916 0.96617 0.0
H2341 H 0.43849 0.20642 0.9561 0.0
H2342 H 0.32235 0.27357 0.96519 0.0
H2343 H 0.34544 0.20083 0.95511 0.0
H2344 H 0.17866 0.20748 0.94184 0.0
H2345 H 0.27154 0.21245 0.94318 0.0
H2346 H 0.25218 0.25382 0.97532 0.0
H2347 H 0.15903 0.24964 0.97371 0.0
C2348 C 0.40045 0.26187 0.96388 0.0
C2349 C 0.43437 0.24321 0.96126 0.0
C2350 C 0.34719 0.25867 0.96332 0.0
C2351 C 0.32631 0.23674 0.96011 0.0
C2352 C 0.36018 0.21805 0.95747 0.0
C2353 C 0.41355 0.22125 0.95803 0.0
C2354 C 0.19412 0.21785 0.94913 0.0
C2355 C 0.16121 0.22829 0.95762 0.0
C2356 C 0.24751 0.22043 0.94999 0.0
C2357 C 0.26946 0.23353 0.95936 0.0
C2358 C 0.2366 0.24383 0.96791 0.0
C2359 C 0.18317 0.24123 0.96705 0.0
H2360 H 0.63746 0.20266 0.82895 0.0
H2361 H 0.64021 0.25942 0.85468 0.0
H2362 H 0.54407 0.20603 0.82762 0.0
H2363 H 0.54687 0.26283 0.85334 0.0
H2364 H 0.37597 0.24714 0.85728 0.0
H2365 H 0.46895 0.2419 0.85868 0.0
H2366 H 0.47697 0.23202 0.82038 0.0
H2367 H 0.38382 0.23638 0.81905 0.0
C2368 C 0.61823 0.21605 0.83422 0.0
C2369 C 0.64646 0.23077 0.84193 0.0
C2370 C 0.56461 0.21796 0.83348 0.0
C2371 C 0.53779 0.23464 0.84041 0.0
C2372 C 0.56608 0.24948 0.84804 0.0
C2373 C 0.61968 0.24756 0.84879 0.0
C2374 C 0.39744 0.24347 0.84918 0.0
C2375 C 0.37232 0.24222 0.83805 0.0
C2376 C 0.4509 0.24078 0.84996 0.0
C2377 C 0.48063 0.23671 0.83963 0.0
C2378 C 0.45536 0.23497 0.82853 0.0
C2379 C 0.40194 0.23771 0.82775 0.0
H2380 H 0.16013 0.48348 0.82802 0.0
H2381 H 0.18209 0.54351 0.85122 0.0
H2382 H 0.25303 0.47899 0.82623 0.0
H2383 H 0.27483 0.53978 0.84893 0.0
H2384 H 0.43661 0.50847 0.85385 0.0
H2385 H 0.34411 0.51488 0.85507 0.0
H2386 H 0.32885 0.49621 0.81775 0.0
H2387 H 0.42148 0.48955 0.81658 0.0
C2388 C 0.18468 0.49578 0.83272 0.0
C2389 C 0.16332 0.51382 0.8398 0.0
C2390 C 0.2381 0.49339 0.83156 0.0
C2391 C 0.2717 0.50902 0.83743 0.0
C2392 C 0.25032 0.52723 0.84439 0.0
C2393 C 0.19693 0.52957 0.84558 0.0
C2394 C 0.41367 0.50607 0.84585 0.0
C2395 C 0.4366 0.49846 0.83512 0.0
C2396 C 0.36048 0.50975 0.84655 0.0
C2397 C 0.32872 0.506 0.83652 0.0
C2398 C 0.35184 0.49885 0.82572 0.0
C2399 C 0.40504 0.4951 0.82503 0.0
H2400 H 0.41792 0.95133 0.58024 0.0
H2401 H 0.40709 0.01295 0.60279 0.0
H2402 H 0.51102 0.95649 0.57897 0.0
H2403 H 0.50023 0.0177 0.6018 0.0
H2404 H 0.66017 0.03358 0.5867 0.0
H2405 H 0.5673 0.02843 0.58749 0.0
H2406 H 0.58795 0.95333 0.59171 0.0
H2407 H 0.68117 0.95848 0.59104 0.0
C2408 C 0.43535 0.96605 0.58488 0.0
C2409 C 0.40496 0.98175 0.5916 0.0
C2410 C 0.48881 0.96884 0.58426 0.0
C2411 C 0.51317 0.98748 0.59031 0.0
C2412 C 0.48272 0.00328 0.59695 0.0
C2413 C 0.42933 0.00042 0.59761 0.0
C2414 C 0.64507 0.01597 0.58795 0.0
C2415 C 0.67839 -0.00353 0.58889 0.0
C2416 C 0.5917 0.01302 0.58837 0.0
C2417 C 0.57009 0.99048 0.5897 0.0
C2418 C 0.60329 0.97092 0.59053 0.0
C2419 C 0.65677 0.97387 0.59015 0.0
H2420 H 0.62326 0.26899 0.59951 0.0
H2421 H 0.64304 0.20903 0.57613 0.0
H2422 H 0.71649 0.27388 0.60042 0.0
H2423 H 0.73595 0.21402 0.57698 0.0
H2424 H 0.89669 0.2451 0.57139 0.0
H2425 H 0.80336 0.24095 0.57041 0.0
H2426 H 0.79301 0.25416 0.60841 0.0
H2427 H 0.88612 0.25907 0.60932 0.0
C2428 C 0.64743 0.25677 0.59462 0.0
C2429 C 0.6255 0.23867 0.58771 0.0
C2430 C 0.7009 0.25958 0.59514 0.0
C2431 C 0.73374 0.24436 0.58876 0.0
C2432 C 0.7118 0.22629 0.58185 0.0
C2433 C 0.65843 0.22346 0.58135 0.0
C2434 C 0.87447 0.24727 0.57952 0.0
C2435 C 0.89896 0.25239 0.59044 0.0
C2436 C 0.821 0.24467 0.57898 0.0
C2437 C 0.79065 0.24721 0.58933 0.0
C2438 C 0.81514 0.25233 0.60024 0.0
C2439 C 0.86862 0.25485 0.6008 0.0
H2440 H 0.67141 0.23722 0.72731 0.0
H2441 H 0.67655 0.24026 0.68869 0.0
H2442 H 0.57825 0.24276 0.72675 0.0
H2443 H 0.58331 0.24513 0.68811 0.0
H2444 H 0.42376 0.27837 0.69227 0.0
H2445 H 0.51688 0.27394 0.69314 0.0
H2446 H 0.50056 0.22119 0.72077 0.0
H2447 H 0.40713 0.2255 0.71987 0.0
C2448 C 0.65271 0.23922 0.7187 0.0
C2449 C 0.68148 0.23833 0.70804 0.0
C2450 C 0.59923 0.24211 0.71838 0.0
C2451 C 0.57324 0.24432 0.70739 0.0
C2452 C 0.60211 0.24369 0.69674 0.0
C2453 C 0.65553 0.24068 0.69706 0.0
C2454 C 0.4399 0.26562 0.69845 0.0
C2455 C 0.40778 0.25218 0.70595 0.0
C2456 C 0.49338 0.26312 0.69895 0.0
C2457 C 0.51625 0.24717 0.707 0.0
C2458 C 0.48424 0.23386 0.71458 0.0
C2459 C 0.43066 0.23632 0.71406 0.0
H2460 H 0.88895 0.95951 0.72595 0.0
H2461 H 0.87356 0.97871 0.6887 0.0
H2462 H 0.79585 0.9632 0.72848 0.0
H2463 H 0.78098 0.98249 0.69121 0.0
H2464 H 0.61291 0.96582 0.69591 0.0
H2465 H 0.70518 0.95913 0.69441 0.0
H2466 H 0.72698 -0.00795 0.72889 0.0
H2467 H 0.63425 -0.0022 0.73064 0.0
C2468 C 0.86579 0.9647 0.71833 0.0
C2469 C 0.8888 0.96866 0.7071 0.0
C2470 C 0.81238 0.9668 0.71977 0.0
C2471 C 0.78069 0.97296 0.71003 0.0
C2472 C 0.80389 0.97718 0.69886 0.0
C2473 C 0.85713 0.97505 0.69741 0.0
C2474 C 0.63715 0.97121 0.7033 0.0
C2475 C 0.61592 0.98243 0.71339 0.0
C2476 C 0.69029 0.96768 0.70235 0.0
C2477 C 0.72377 0.9753 0.71146 0.0
C2478 C 0.70244 0.98585 0.72172 0.0
C2479 C 0.64923 0.98937 0.72267 0.0
H2480 H 0.63769 0.01794 0.43777 0.0
H2481 H 0.64957 0.98092 0.47148 0.0
H2482 H 0.54447 0.01378 0.43833 0.0
H2483 H 0.55611 0.97691 0.47207 0.0
H2484 H 0.38464 -0.00475 0.47496 0.0
H2485 H 0.47779 0.00069 0.4744 0.0
H2486 H 0.47839 0.98343 0.43674 0.0
H2487 H 0.38516 0.97864 0.43724 0.0
C2488 C 0.62052 0.00868 0.44524 0.0
C2489 C 0.65134 -0.00033 0.45455 0.0
C2490 C 0.56697 0.00634 0.44558 0.0
C2491 C 0.54272 -0.00499 0.45525 0.0
C2492 C 0.57345 0.98605 0.46458 0.0
C2493 C 0.62708 0.98833 0.46423 0.0
C2494 C 0.40457 -0.00707 0.46653 0.0
C2495 C 0.37739 0.98652 0.45614 0.0
C2496 C 0.45806 -0.00424 0.46624 0.0
C2497 C 0.48567 -0.0076 0.45554 0.0
C2498 C 0.45835 0.98634 0.44512 0.0
C2499 C 0.40494 0.98339 0.44542 0.0
H2500 H 0.41896 0.77431 0.46651 0.0
H2501 H 0.44256 0.69923 0.46297 0.0
H2502 H 0.32646 0.7686 0.4652 0.0
H2503 H 0.34964 0.69362 0.4612 0.0
H2504 H 0.17596 0.69096 0.46965 0.0
H2505 H 0.26858 0.69613 0.4725 0.0
H2506 H 0.26428 0.75808 0.45 0.0
H2507 H 0.17186 0.75331 0.44746 0.0
C2508 C 0.40446 0.75653 0.46556 0.0
C2509 C 0.43842 0.73723 0.46488 0.0
C2510 C 0.35132 0.7533 0.46465 0.0
C2511 C 0.33052 0.73067 0.46301 0.0
C2512 C 0.36431 0.71127 0.46254 0.0
C2513 C 0.41763 0.71452 0.46343 0.0
C2514 C 0.19476 0.70581 0.46542 0.0
C2515 C 0.16646 0.72171 0.45832 0.0
C2516 C 0.24793 0.70863 0.46695 0.0
C2517 C 0.27394 0.72753 0.46148 0.0
C2518 C 0.24548 0.74348 0.45445 0.0
C2519 C 0.19251 0.7406 0.45289 0.0
H2520 H 0.37601 0.70941 0.3373 0.0
H2521 H 0.39395 0.78459 0.34178 0.0
H2522 H 0.46939 0.70462 0.33782 0.0
H2523 H 0.48698 0.77975 0.34239 0.0
H2524 H 0.64615 0.75868 0.35659 0.0
H2525 H 0.55305 0.76342 0.35548 0.0
H2526 H 0.54746 0.71363 0.32628 0.0
H2527 H 0.64059 0.70834 0.32763 0.0
C2528 C 0.3998 0.72494 0.33831 0.0
C2529 C 0.37728 0.74737 0.33959 0.0
C2530 C 0.45337 0.72219 0.3386 0.0
C2531 C 0.48573 0.74179 0.3402 0.0
C2532 C 0.46322 0.76422 0.34137 0.0
C2533 C 0.40977 0.76698 0.34104 0.0
C2534 C 0.62507 0.74865 0.34997 0.0
C2535 C 0.6509 0.73309 0.34222 0.0
C2536 C 0.5717 0.75154 0.34925 0.0
C2537 C 0.5427 0.7389 0.34079 0.0
C2538 C 0.56854 0.72346 0.33298 0.0
C2539 C 0.62201 0.72064 0.33366 0.0
H2540 H 0.17497 0.03996 0.3525 0.0
H2541 H 0.14678 0.98013 0.32955 0.0
H2542 H 0.26734 0.03433 0.35012 0.0
H2543 H 0.23916 0.97513 0.32675 0.0
H2544 H 0.40519 0.95552 0.3367 0.0
H2545 H 0.31292 0.96216 0.33797 0.0
H2546 H 0.33779 0.03734 0.33612 0.0
H2547 H 0.43051 0.03066 0.33484 0.0
C2548 C 0.1884 0.02562 0.34692 0.0
C2549 C 0.15317 0.01041 0.34129 0.0
C2550 C 0.2415 0.02258 0.34543 0.0
C2551 C 0.26095 0.00423 0.33826 0.0
C2552 C 0.22571 0.98927 0.33246 0.0
C2553 C 0.17259 -0.00769 0.33396 0.0
C2554 C 0.39108 0.97348 0.33637 0.0
C2555 C 0.42553 -0.00746 0.33561 0.0
C2556 C 0.33798 0.9773 0.33711 0.0
C2557 C 0.31764 0.00029 0.33712 0.0
C2558 C 0.35202 0.01939 0.3363 0.0
C2559 C 0.40526 0.01556 0.33556 0.0
H2560 H 0.16314 0.53345 0.59682 0.0
H2561 H 0.17611 0.46201 0.58379 0.0
H2562 H 0.06997 0.52936 0.59775 0.0
H2563 H 0.08273 0.45795 0.5847 0.0
H2564 H 0.91137 0.46728 0.57635 0.0
H2565 H 1.00445 0.47222 0.57505 0.0
H2566 H 1.00365 0.50888 0.60893 0.0
H2567 H 0.91046 0.50465 0.61002 0.0
C2568 C 0.14621 0.51676 0.59428 0.0
C2569 C 0.17731 0.49803 0.59028 0.0
C2570 C 0.09268 0.51444 0.5948 0.0
C2571 C 0.06874 0.49333 0.5913 0.0
C2572 C 0.09978 0.47459 0.58729 0.0
C2573 C 0.15338 0.4769 0.58678 0.0
C2574 C 0.93095 0.47668 0.58344 0.0
C2575 C 0.90334 0.48557 0.59329 0.0
C2576 C 0.98444 0.47925 0.58277 0.0
C2577 C 1.01167 0.49086 0.59191 0.0
C2578 C 0.98395 0.50001 0.60168 0.0
C2579 C 0.93052 0.49738 0.60237 0.0
H2580 H 0.37139 0.78975 0.60426 0.0
H2581 H 0.39387 0.73407 0.57841 0.0
H2582 H 0.27864 0.7856 0.60227 0.0
H2583 H 0.30103 0.72909 0.57689 0.0
H2584 H 0.13124 0.74023 0.56842 0.0
H2585 H 0.22377 0.74704 0.56952 0.0
H2586 H 0.21077 0.75933 0.60757 0.0
H2587 H 0.11834 0.75278 0.60642 0.0
C2588 C 0.35665 0.77668 0.5981 0.0
C2589 C 0.39045 0.76228 0.59148 0.0
C2590 C 0.30328 0.77407 0.59708 0.0
C2591 C 0.28204 0.75694 0.58945 0.0
C2592 C 0.3158 0.74266 0.58276 0.0
C2593 C 0.36922 0.74531 0.58376 0.0
C2594 C 0.14816 0.74438 0.57702 0.0
C2595 C 0.11722 0.74595 0.58733 0.0
C2596 C 0.20131 0.74823 0.57766 0.0
C2597 C 0.22505 0.75367 0.58865 0.0
C2598 C 0.19392 0.75556 0.59892 0.0
C2599 C 0.14076 0.7518 0.59826 0.0
H2600 H 0.91038 0.77513 0.71865 0.0
H2601 H 0.90267 0.71964 0.69227 0.0
H2602 H 1.00352 0.77 0.71991 0.0
H2603 H 0.99588 0.71499 0.69327 0.0
H2604 H 0.15531 0.69584 0.70783 0.0
H2605 H 0.0624 0.70093 0.70693 0.0
H2606 H 0.08142 0.77649 0.70792 0.0
H2607 H 0.17469 0.77144 0.7087 0.0
C2608 C 0.92849 0.76175 0.71316 0.0
C2609 C 0.89891 0.74776 0.70537 0.0
C2610 C 0.982 0.75901 0.71378 0.0
C2611 C 1.00731 0.74211 0.70668 0.0
C2612 C 0.97767 0.72802 0.69895 0.0
C2613 C 0.92423 0.73084 0.69829 0.0
C2614 C 0.13987 0.71358 0.7077 0.0
C2615 C 0.17279 0.73323 0.70826 0.0
C2616 C 0.08645 0.71648 0.70721 0.0
C2617 C 0.06432 0.73912 0.70731 0.0
C2618 C 0.0971 0.75879 0.70797 0.0
C2619 C 0.15064 0.75589 0.70842 0.0
H2620 H 0.12355 0.49343 0.6888 0.0
H2621 H 0.12702 0.48158 0.72699 0.0
H2622 H 0.21624 0.48711 0.68783 0.0
H2623 H 0.21989 0.47528 0.72603 0.0
H2624 H 0.37956 0.44392 0.71762 0.0
H2625 H 0.28615 0.44845 0.71861 0.0
H2626 H 0.29471 0.50689 0.69388 0.0
H2627 H 0.38769 0.50191 0.69261 0.0
C2628 C 0.14412 0.48956 0.697 0.0
C2629 C 0.11776 0.48814 0.70798 0.0
C2630 C 0.19733 0.48597 0.69645 0.0
C2631 C 0.22572 0.48086 0.70686 0.0
C2632 C 0.19923 0.47893 0.71781 0.0
C2633 C 0.14592 0.48252 0.71836 0.0
C2634 C 0.36143 0.45764 0.71234 0.0
C2635 C 0.3912 0.47255 0.70503 0.0
C2636 C 0.30792 0.46038 0.71299 0.0
C2637 C 0.28277 0.478 0.7063 0.0
C2638 C 0.31263 0.49295 0.69904 0.0
C2639 C 0.36609 0.49028 0.69843 0.0
H2640 H 0.87343 0.5226 0.45352 0.0
H2641 H 0.8971 0.45157 0.4664 0.0
H2642 H 0.96644 0.5283 0.45262 0.0
H2643 H 0.98978 0.4573 0.46553 0.0
H2644 H 0.15224 0.48314 0.4738 0.0
H2645 H 0.0591 0.4786 0.47511 0.0
H2646 H 0.04162 0.51543 0.44149 0.0
H2647 H 0.1345 0.52076 0.4404 0.0
C2648 C 0.89838 0.50815 0.45609 0.0
C2649 C 0.87755 0.48665 0.46008 0.0
C2650 C 0.95178 0.51142 0.45557 0.0
C2651 C 0.98576 0.49328 0.45903 0.0
C2652 C 0.96489 0.47181 0.46301 0.0
C2653 C 0.9116 0.46853 0.46351 0.0
C2654 C 0.12853 0.49047 0.46674 0.0
C2655 C 0.15107 0.50227 0.45698 0.0
C2656 C 0.07508 0.48765 0.46742 0.0
C2657 C 0.04269 0.4966 0.45839 0.0
C2658 C 0.06522 0.50851 0.44867 0.0
C2659 C 0.11865 0.51129 0.44797 0.0
H2660 H 0.92566 0.20981 0.46441 0.0
H2661 H 0.91226 0.28147 0.45166 0.0
H2662 H 0.83227 0.20566 0.46352 0.0
H2663 H 0.81912 0.27732 0.45075 0.0
H2664 H 0.66018 0.25266 0.4382 0.0
H2665 H 0.75329 0.25698 0.43942 0.0
H2666 H 0.75359 0.21957 0.47313 0.0
H2667 H 0.66055 0.21452 0.47169 0.0
C2668 C 0.90283 0.22473 0.46149 0.0
C2669 C 0.92663 0.24594 0.45806 0.0
C2670 C 0.84924 0.22237 0.461 0.0
C2671 C 0.81809 0.24115 0.45705 0.0
C2672 C 0.84191 0.26236 0.45365 0.0
C2673 C 0.89542 0.26472 0.45415 0.0
C2674 C 0.68011 0.24524 0.44584 0.0
C2675 C 0.6528 0.23319 0.45483 0.0
C2676 C 0.73349 0.24793 0.44661 0.0
C2677 C 0.76106 0.2386 0.45637 0.0
C2678 C 0.73371 0.22674 0.46542 0.0
C2679 C 0.68024 0.22411 0.46467 0.0
H2680 H 0.12455 0.19145 0.35071 0.0
H2681 H 0.14588 0.25253 0.32811 0.0
H2682 H 0.03175 0.19528 0.34858 0.0
H2683 H 0.05293 0.25708 0.32651 0.0
H2684 H 0.88417 0.24708 0.31705 0.0
H2685 H 0.97681 0.24028 0.31798 0.0
H2686 H 0.96273 0.21992 0.35512 0.0
H2687 H 0.87023 0.22648 0.35414 0.0
C2688 C 0.10956 0.20565 0.34523 0.0
C2689 C 0.14301 0.22166 0.33958 0.0
C2690 C 0.05615 0.20803 0.34414 0.0
C2691 C 0.03457 0.22655 0.33741 0.0
C2692 C 0.06801 0.24244 0.33166 0.0
C2693 C 0.12145 0.24001 0.33272 0.0
C2694 C 0.90088 0.24113 0.32541 0.0
C2695 C 0.86966 0.23734 0.33552 0.0
C2696 C 0.95408 0.23729 0.32596 0.0
C2697 C 0.97754 0.22964 0.33664 0.0
C2698 C 0.9461 0.22546 0.34668 0.0
C2699 C 0.89291 0.22922 0.34612 0.0
H2700 H 0.93241 0.51856 0.32551 0.0
H2701 H 0.92484 0.46515 0.35303 0.0
H2702 H 0.83907 0.52298 0.32629 0.0
H2703 H 0.83166 0.47007 0.35407 0.0
H2704 H 0.66212 0.46609 0.34245 0.0
H2705 H 0.75554 0.46189 0.34181 0.0
H2706 H 0.77117 0.53754 0.33952 0.0
H2707 H 0.67793 0.54177 0.34024 0.0
C2708 C 0.91083 0.50781 0.33175 0.0
C2709 C 0.9361 0.49148 0.3392 0.0
C2710 C 0.85737 0.5105 0.33228 0.0
C2711 C 0.82785 0.49684 0.34023 0.0
C2712 C 0.85317 0.48067 0.34775 0.0
C2713 C 0.90666 0.47806 0.34726 0.0
C2714 C 0.68548 0.48183 0.3419 0.0
C2715 C 0.66241 0.50426 0.34137 0.0
C2716 C 0.73905 0.47943 0.34153 0.0
C2717 C 0.77086 0.49938 0.34062 0.0
C2718 C 0.7478 0.52179 0.34005 0.0
C2719 C 0.69428 0.5242 0.34044 0.0
H2720 H 0.91113 0.01017 0.10435 0.0
H2721 H 0.91933 0.95434 0.07815 0.0
H2722 H 1.00431 0.01479 0.10334 0.0
H2723 H 1.01244 0.95944 0.07689 0.0
H2724 H 0.18323 0.95776 0.08838 0.0
H2725 H 0.08994 0.95293 0.08905 0.0
H2726 H 0.07099 0.02855 0.08965 0.0
H2727 H 0.16394 0.03343 0.08887 0.0
C2728 C 0.9328 -0.0011 0.09836 0.0
C2729 C 0.90767 0.98187 0.09134 0.0
C2730 C 0.9862 0.0017 0.0977 0.0
C2731 C 1.01594 0.98748 0.09003 0.0
C2732 C 0.99081 0.97052 0.08297 0.0
C2733 C 0.93733 0.96779 0.08359 0.0
C2734 C 0.15919 0.97337 0.08855 0.0
C2735 C 0.18133 -0.00401 0.08864 0.0
C2736 C 0.10565 0.97059 0.08893 0.0
C2737 C 0.07291 0.99035 0.08944 0.0
C2738 C 0.09503 0.01294 0.08947 0.0
C2739 C 0.14845 0.01572 0.08905 0.0
H2740 H 0.14627 0.20706 0.07763 0.0
H2741 H 0.12425 0.26922 0.09937 0.0
H2742 H 0.23906 0.21227 0.07877 0.0
H2743 H 0.21735 0.27437 0.10054 0.0
H2744 H 0.38631 0.26102 0.11054 0.0
H2745 H 0.29334 0.25603 0.10931 0.0
H2746 H 0.30719 0.23817 0.07186 0.0
H2747 H 0.40042 0.24231 0.0732 0.0
C2748 C 0.16115 0.22202 0.08254 0.0
C2749 C 0.1276 0.23778 0.08837 0.0
C2750 C 0.21447 0.22498 0.0832 0.0
C2751 C 0.23578 0.24376 0.08973 0.0
C2752 C 0.20229 0.25952 0.09557 0.0
C2753 C 0.14888 0.25657 0.0949 0.0
C2754 C 0.36963 0.25576 0.10207 0.0
C2755 C 0.40099 0.25196 0.09198 0.0
C2756 C 0.31619 0.25321 0.10133 0.0
C2757 C 0.29268 0.24674 0.09048 0.0
C2758 C 0.32402 0.24294 0.08039 0.0
C2759 C 0.37747 0.24555 0.08113 0.0
H2760 H 0.9256 0.29156 0.21529 0.0
H2761 H 0.92239 0.23007 0.19253 0.0
H2762 H 1.01895 0.28795 0.21701 0.0
H2763 H 1.01548 0.22639 0.19429 0.0
H2764 H 0.18657 0.23971 0.19005 0.0
H2765 H 0.09405 0.2458 0.1881 0.0
H2766 H 0.08466 0.2628 0.22573 0.0
H2767 H 0.17747 0.25755 0.22757 0.0
C2768 C 0.94475 0.27714 0.21075 0.0
C2769 C 0.91652 0.26114 0.20375 0.0
C2770 C 0.99828 0.27508 0.21172 0.0
C2771 C 1.02483 0.25695 0.20574 0.0
C2772 C 0.99647 0.24085 0.19882 0.0
C2773 C 0.94304 0.24293 0.19784 0.0
C2774 C 0.16492 0.24513 0.19786 0.0
C2775 C 0.18947 0.24809 0.20897 0.0
C2776 C 0.11173 0.24833 0.19678 0.0
C2777 C 0.08177 0.25461 0.20678 0.0
C2778 C 0.10653 0.25811 0.21783 0.0
C2779 C 0.1597 0.25487 0.21891 0.0
H2780 H 0.37638 0.95982 0.22131 0.0
H2781 H 0.38225 0.00761 0.19121 0.0
H2782 H 0.28317 0.96483 0.22234 0.0
H2783 H 0.28896 0.01206 0.19202 0.0
H2784 H 0.1289 0.03377 0.20533 0.0
H2785 H 0.22201 0.02923 0.20464 0.0
H2786 H 0.20593 0.95446 0.21086 0.0
H2787 H 0.11253 0.95894 0.21144 0.0
C2788 C 0.35784 0.97151 0.21496 0.0
C2789 C 0.38684 0.98333 0.20619 0.0
C2790 C 0.30432 0.97415 0.21546 0.0
C2791 C 0.27852 0.98879 0.20724 0.0
C2792 C 0.30761 0.00081 0.19855 0.0
C2793 C 0.36106 -0.00192 0.19802 0.0
C2794 C 0.14507 0.01629 0.20639 0.0
C2795 C 0.11301 -0.0033 0.20838 0.0
C2796 C 0.19856 0.01371 0.20603 0.0
C2797 C 0.22151 -0.00852 0.20768 0.0
C2798 C 0.18956 0.97189 0.20971 0.0
C2799 C 0.13598 0.97446 0.21004 0.0
H2800 H 0.87467 0.02241 0.95278 0.0
H2801 H 0.89627 0.94815 0.95985 0.0
H2802 H 0.96785 0.02788 0.95265 0.0
H2803 H 0.98911 0.9536 0.95964 0.0
H2804 H 0.15192 0.96759 0.9457 0.0
H2805 H 0.05875 0.96258 0.94581 0.0
H2806 H 0.04228 0.02698 0.96605 0.0
H2807 H 0.13534 0.03242 0.9656 0.0
C2808 C 0.8992 0.00728 0.95438 0.0
C2809 C 0.87781 0.98481 0.95626 0.0
C2810 C 0.95265 0.01041 0.95431 0.0
C2811 C 0.98603 0.99116 0.95609 0.0
C2812 C 0.96462 0.96874 0.95802 0.0
C2813 C 0.91128 0.96562 0.95812 0.0
C2814 C 0.12842 0.98077 0.95011 0.0
C2815 C 0.15122 0.0004 0.95565 0.0
C2816 C 0.075 0.97778 0.95027 0.0
C2817 C 0.04295 -0.00563 0.95594 0.0
C2818 C 0.06573 0.01399 0.9615 0.0
C2819 C 0.11918 0.01694 0.96137 0.0
H2820 H 0.93883 0.70639 0.95594 0.0
H2821 H 0.91467 0.77871 0.96664 0.0
H2822 H 0.84586 0.70088 0.95448 0.0
H2823 H 0.82207 0.77324 0.96518 0.0
H2824 H 0.65828 0.74922 0.97291 0.0
H2825 H 0.75129 0.75333 0.97484 0.0
H2826 H 0.77245 0.71265 0.94253 0.0
H2827 H 0.67965 0.70771 0.94088 0.0
C2828 C 0.91375 0.72115 0.95791 0.0
C2829 C 0.93434 0.74296 0.96147 0.0
C2830 C 0.86041 0.718 0.95707 0.0
C2831 C 0.82634 0.73659 0.95976 0.0
C2832 C 0.84701 0.7584 0.96327 0.0
C2833 C 0.90023 0.76154 0.9641 0.0
C2834 C 0.68276 0.74093 0.96629 0.0
C2835 C 0.6613 0.72819 0.95672 0.0
C2836 C 0.73614 0.74351 0.96731 0.0
C2837 C 0.7695 0.73339 0.95881 0.0
C2838 C 0.74805 0.72049 0.94931 0.0
C2839 C 0.6947 0.71793 0.94828 0.0
H2840 H 0.13328 0.70121 0.83223 0.0
H2841 H 0.14957 0.76649 0.85173 0.0
H2842 H 0.04018 0.70668 0.83178 0.0
H2843 H 0.05637 0.77154 0.85164 0.0
H2844 H 0.89367 0.78577 0.83764 0.0
H2845 H 0.98654 0.78026 0.83784 0.0
H2846 H 0.96575 0.70611 0.84514 0.0
H2847 H 0.87255 0.71164 0.84501 0.0
C2848 C 0.11705 0.71679 0.83638 0.0
C2849 C 0.14903 0.73345 0.84198 0.0
C2850 C 0.06358 0.71977 0.83625 0.0
C2851 C 0.04068 0.73952 0.84169 0.0
C2852 C 0.07268 0.75623 0.84725 0.0
C2853 C 0.12613 0.75322 0.84741 0.0
C2854 C 0.90879 0.76832 0.83944 0.0
C2855 C 0.87544 0.74917 0.84139 0.0
C2856 C 0.96216 0.76516 0.83953 0.0
C2857 C 0.98373 0.74276 0.84154 0.0
C2858 C 0.95046 0.72356 0.84342 0.0
C2859 C 0.89698 0.72673 0.84334 0.0
H2860 H 0.68131 0.03478 0.85667 0.0
H2861 H 0.65487 0.98971 0.82613 0.0
H2862 H 0.77376 0.02916 0.85446 0.0
H2863 H 0.74746 0.98495 0.8236 0.0
H2864 H 0.91047 0.95853 0.8318 0.0
H2865 H 0.81835 0.96544 0.83336 0.0
H2866 H 0.84672 0.0385 0.84193 0.0
H2867 H 0.93926 0.03155 0.84038 0.0
C2868 C 0.69516 0.0237 0.84946 0.0
C2869 C 0.6604 0.01257 0.84163 0.0
C2870 C 0.74832 0.02072 0.8481 0.0
C2871 C 0.76826 0.00654 0.83887 0.0
C2872 C 0.73354 -0.00426 0.83092 0.0
C2873 C 0.68036 -0.00129 0.83228 0.0
C2874 C 0.89716 0.97616 0.83387 0.0
C2875 C 0.93248 -0.0055 0.83591 0.0
C2876 C 0.84418 0.98013 0.83476 0.0
C2877 C 0.82488 0.00256 0.83773 0.0
C2878 C 0.86015 0.02093 0.83977 0.0
C2879 C 0.91327 0.01695 0.83888 0.0
H2880 H 0.99231 0.50351 0.05792 0.0
H2881 H 0.1317 0.46646 0.04855 0.0
H2882 H 0.97323 0.50904 0.03653 0.0
H2883 H 0.11365 0.4723 0.02746 0.0
H2884 H 0.04355 0.46552 0.99044 0.0
H2885 H 0.05732 0.45953 1.01185 0.0
H2886 H 1.00352 0.53031 1.01881 0.0
H2887 H 0.98885 0.53606 0.99739 0.0
C2888 C 1.01868 0.49651 0.05132 0.0
C2889 C 0.06328 0.48445 0.05493 0.0
C2890 C 1.00806 0.4998 0.03906 0.0
C2891 C 0.04178 0.491 0.03021 0.0
C2892 C 0.08626 0.47895 0.03394 0.0
C2893 C 0.09679 0.47574 0.04609 0.0
C2894 C 0.03483 0.47981 0.99654 0.0
C2895 C 1.01525 0.50126 0.99221 0.0
C2896 C 0.0428 0.47642 1.00884 0.0
C2897 C 0.03153 0.49444 1.01713 0.0
C2898 C 1.01196 0.51592 1.01275 0.0
C2899 C 1.00402 0.5193 1.00045 0.0
H2900 H 0.34886 0.70112 0.99841 0.0
H2901 H 0.25583 0.76248 0.991 0.0
H2902 H 0.33919 0.70771 1.01976 0.0
H2903 H 0.24336 0.76849 1.01248 0.0
H2904 H 0.26896 0.78688 0.05162 0.0
H2905 H 0.28199 0.78079 0.03022 0.0
H2906 H 0.28498 0.70539 0.03605 0.0
H2907 H 0.27479 0.71176 0.05747 0.0
C2908 C 0.32564 0.71588 1.00137 0.0
C2909 C 0.30313 0.73129 0.99301 0.0
C2910 C 0.31973 0.71961 1.01367 0.0
C2911 C 0.29035 0.73866 1.01801 0.0
C2912 C 0.26711 0.75388 1.00958 0.0
C2913 C 0.27374 0.75033 0.99723 0.0
C2914 C 0.273 0.76903 0.0483 0.0
C2915 C 0.27102 0.74982 0.05623 0.0
C2916 C 0.27988 0.76548 0.03599 0.0
C2917 C 0.28423 0.74255 0.03123 0.0
C2918 C 0.28271 0.72335 0.03927 0.0
C2919 C 0.27665 0.72695 0.0516 0.0
H2920 H 0.96632 0.70199 0.3011 0.0
H2921 H 0.05439 0.76497 0.30786 0.0
H2922 H 0.97304 0.7086 0.27972 0.0
H2923 H 0.06401 0.77104 0.28628 0.0
H2924 H 0.0319 0.78871 0.24723 0.0
H2925 H 1.02254 0.78255 0.26874 0.0
H2926 H 1.02485 0.70712 0.26307 0.0
H2927 H 0.03124 0.71353 0.24157 0.0
C2928 C 0.9879 0.71713 0.29799 0.0
C2929 C 1.00977 0.73299 0.30619 0.0
C2930 C 0.99211 0.72086 0.28566 0.0
C2931 C 1.01919 0.74038 0.28109 0.0
C2932 C 0.04197 0.75605 0.28936 0.0
C2933 C 0.03699 0.75248 0.30175 0.0
C2934 C 0.02976 0.77083 0.25062 0.0
C2935 C 0.03205 0.75162 0.24271 0.0
C2936 C 1.02503 0.76725 0.26299 0.0
C2937 C 1.02325 0.7443 0.26782 0.0
C2938 C 1.02514 0.72509 0.25981 0.0
C2939 C 0.029 0.72871 0.24742 0.0
H2940 H 0.27775 0.52414 0.24063 0.0
H2941 H 0.2773 0.44895 0.24633 0.0
H2942 H 0.28575 0.53046 0.26215 0.0
H2943 H 0.28808 0.455 0.26777 0.0
H2944 H 0.2568 0.47181 0.3068 0.0
H2945 H 0.24621 0.46642 0.28523 0.0
H2946 H 0.33818 0.52865 0.27884 0.0
H2947 H 0.34604 0.53457 0.30029 0.0
C2948 C 0.28038 0.50895 0.24648 0.0
C2949 C 0.27682 0.48606 0.2418 0.0
C2950 C 0.28512 0.51252 0.25886 0.0
C2951 C 0.28726 0.49326 0.26687 0.0
C2952 C 0.28526 0.47034 0.26204 0.0
C2953 C 0.27973 0.46682 0.2497 0.0
C2954 C 0.27426 0.48441 0.30075 0.0
C2955 C 0.30218 0.5036 0.30525 0.0
C2956 C 0.26871 0.48123 0.28835 0.0
C2957 C 0.29161 0.49699 0.28014 0.0
C2958 C 0.31917 0.5163 0.28475 0.0
C2959 C 0.32401 0.51964 0.29712 0.0
H2960 H 0.79073 0.26973 0.9914 0.0
H2961 H 0.79801 0.19467 0.9973 0.0
H2962 H 0.78127 0.27613 1.01284 0.0
H2963 H 0.78538 0.20075 1.01871 0.0
H2964 H 0.80978 0.21876 0.05797 0.0
H2965 H 0.8227 0.21281 0.0365 0.0
H2966 H 0.72826 0.27405 0.02918 0.0
H2967 H 0.71844 0.28062 0.05051 0.0
C2968 C 0.78933 0.25455 0.99729 0.0
C2969 C 0.79513 0.2317 0.99268 0.0
C2970 C 0.78365 0.25817 1.00964 0.0
C2971 C 0.78257 0.23899 1.01769 0.0
C2972 C 0.78718 0.21606 1.01294 0.0
C2973 C 0.79381 0.2125 1.00062 0.0
C2974 C 0.79233 0.23102 0.05172 0.0
C2975 C 0.76331 0.25019 0.05594 0.0
C2976 C 0.79919 0.22752 0.03938 0.0
C2977 C 0.77645 0.24288 0.03093 0.0
C2978 C 0.74742 0.26204 0.03527 0.0
C2979 C 0.7414 0.26576 0.04757 0.0
H2980 H 0.96178 0.20223 0.80047 0.0
H2981 H 0.05361 0.26395 0.80749 0.0
H2982 H 0.97202 0.20818 0.77909 0.0
H2983 H 0.06672 0.2693 0.78598 0.0
H2984 H 0.04121 0.28669 0.74672 0.0
H2985 H 0.02827 0.28106 0.76815 0.0
H2986 H 1.02621 0.20554 0.76283 0.0
H2987 H 0.03626 0.21147 0.74134 0.0
C2988 C 0.98488 0.21694 0.79742 0.0
C2989 C 1.00683 0.23266 0.80568 0.0
C2990 C 0.99112 0.22028 0.7851 0.0
C2991 C 1.02032 0.23924 0.78064 0.0
C2992 C 0.0431 0.25475 0.78897 0.0
C2993 C 0.03611 0.25159 0.80134 0.0
C2994 C 0.03743 0.26891 0.75016 0.0
C2995 C 0.03958 0.24954 0.74236 0.0
C2996 C 0.0306 0.26562 0.76249 0.0
C2997 C 1.02654 0.24281 0.76739 0.0
C2998 C 0.02828 0.22343 0.75948 0.0
C2999 C 0.03425 0.22677 0.74712 0.0
H3000 H 0.88653 0.50473 0.79791 0.0
H3001 H 0.72891 0.49257 0.80819 0.0
H3002 H 0.86447 0.49858 0.77704 0.0
H3003 H 0.70568 0.48744 0.78711 0.0
H3004 H 0.68837 0.45745 0.74958 0.0
H3005 H 0.71105 0.46276 0.77051 0.0
H3006 H 0.82476 0.51456 0.76026 0.0
H3007 H 0.80326 0.50821 0.73918 0.0
C3008 C 0.84688 0.50087 0.79567 0.0
C3009 C 0.80945 0.49903 0.80471 0.0
C3010 C 0.83406 0.49755 0.78363 0.0
C3011 C 0.78312 0.49263 0.78021 0.0
C3012 C 0.74552 0.49082 0.78932 0.0
C3013 C 0.75864 0.49383 0.80143 0.0
C3014 C 0.71847 0.46988 0.75181 0.0
C3015 C 0.7443 0.48231 0.74273 0.0
C3016 C 0.73117 0.47313 0.76386 0.0
C3017 C 0.76968 0.4892 0.76725 0.0
C3018 C 0.79551 0.5017 0.75809 0.0
C3019 C 0.78318 0.49817 0.74597 0.0
H3020 H 0.99994 0.01343 0.55689 0.0
H3021 H 0.09291 0.95183 0.55005 0.0
H3022 H 0.98882 0.01917 0.53533 0.0
H3023 H 0.08469 0.95816 0.52867 0.0
H3024 H 1.0234 0.96138 0.49077 0.0
H3025 H 0.03185 0.95552 0.51226 0.0
H3026 H 1.02771 0.03104 0.51756 0.0
H3027 H 1.01625 0.0366 0.49606 0.0
C3028 C 1.01816 0.0012 0.55077 0.0
C3029 C 0.04709 0.98215 0.55518 0.0
C3030 C 1.01228 0.00457 0.53838 0.0
C3031 C 0.03588 0.98917 0.53009 0.0
C3032 C 0.0649 0.97017 0.53463 0.0
C3033 C 0.06998 0.9666 0.54696 0.0
C3034 C 1.02461 0.97671 0.49654 0.0
C3035 C 1.01916 -0.00055 0.49173 0.0
C3036 C 0.0297 0.9734 0.50891 0.0
C3037 C 0.03047 -0.00722 0.51682 0.0
C3038 C 1.0262 0.01559 0.51189 0.0
C3039 C 1.02022 0.01885 0.49952 0.0
H3040 H 0.24755 0.26171 0.4901 0.0
H3041 H 0.3406 0.20025 0.49724 0.0
H3042 H 0.23594 0.26767 0.51158 0.0
H3043 H 0.33178 0.20679 0.51864 0.0
H3044 H 0.27026 0.2117 0.55671 0.0
H3045 H 0.27937 0.20487 0.53527 0.0
H3046 H 0.27546 0.28014 0.52906 0.0
H3047 H 0.26347 0.28666 0.55044 0.0
C3048 C 0.26566 0.24952 0.49628 0.0
C3049 C 0.29487 0.2305 0.49197 0.0
C3050 C 0.25952 0.25304 0.50863 0.0
C3051 C 0.28315 0.23783 0.51702 0.0
C3052 C 0.31214 0.21871 0.51259 0.0
C3053 C 0.31753 0.215 0.50026 0.0
C3054 C 0.27165 0.22675 0.55074 0.0
C3055 C 0.26602 0.24971 0.55525 0.0
C3056 C 0.27709 0.22289 0.5384 0.0
C3057 C 0.27794 0.24192 0.53025 0.0
C3058 C 0.27373 0.26493 0.53491 0.0
C3059 C 0.26745 0.26874 0.54721 0.0
H3060 H 0.36526 0.02431 0.79791 0.0
H3061 H 0.24967 0.97375 0.80814 0.0
H3062 H 0.34237 0.01937 0.77696 0.0
H3063 H 0.22777 0.96787 0.78706 0.0
H3064 H 0.16514 0.97909 0.74961 0.0
H3065 H 0.1879 0.98482 0.77047 0.0
H3066 H 0.34694 -0.00536 0.76026 0.0
H3067 H 0.32309 0.98988 0.73918 0.0
C3068 C 0.33494 0.01202 0.79565 0.0
C3069 C 0.30888 -0.00043 0.80468 0.0
C3070 C 0.32211 0.00899 0.78358 0.0
C3071 C 0.28322 -0.00685 0.78016 0.0
C3072 C 0.25728 0.98058 0.78927 0.0
C3073 C 0.26978 0.98386 0.80139 0.0
C3074 C 0.205 0.98258 0.75181 0.0
C3075 C 0.24234 0.98412 0.74274 0.0
C3076 C 0.21821 0.98564 0.76384 0.0
C3077 C 0.26942 0.99004 0.76721 0.0
C3078 C 0.30692 -0.00837 0.75807 0.0
C3079 C 0.29344 0.98884 0.74596 0.0
H3080 H 0.89156 0.72808 0.50084 0.0
H3081 H 0.73382 0.74017 0.49056 0.0
H3082 H 0.86933 0.73413 0.52173 0.0
H3083 H 0.7105 0.7453 0.51163 0.0
H3084 H 0.69289 0.77562 0.54902 0.0
H3085 H 0.71629 0.77035 0.52813 0.0
H3086 H 0.82901 0.718 0.53851 0.0
H3087 H 0.80664 0.72423 0.55956 0.0
C3088 C 0.85187 0.73193 0.50308 0.0
C3089 C 0.81443 0.73379 0.49404 0.0
C3090 C 0.83897 0.73519 0.51512 0.0
C3091 C 0.78798 0.74013 0.51853 0.0
C3092 C 0.75039 0.74193 0.50942 0.0
C3093 C 0.76355 0.73893 0.49731 0.0
C3094 C 0.72294 0.76308 0.54684 0.0
C3095 C 0.74818 0.75043 0.55594 0.0
C3096 C 0.73605 0.75986 0.5348 0.0
C3097 C 0.77441 0.74362 0.53147 0.0
C3098 C 0.79983 0.73096 0.54065 0.0
C3099 C 0.78704 0.73444 0.55275 0.0
H3100 H 0.72364 0.94646 0.24835 0.0
H3101 H 0.7798 0.01659 0.24113 0.0
H3102 H 0.73964 0.95215 0.26973 0.0
H3103 H 0.79486 0.02252 0.26248 0.0
H3104 H 0.87113 0.01522 0.29893 0.0
H3105 H 0.85185 0.00932 0.27791 0.0
H3106 H 0.71085 0.97377 0.28749 0.0
H3107 H 0.73113 0.97938 0.30881 0.0
C3108 C 0.7394 0.96311 0.25134 0.0
C3109 C 0.75066 0.98105 0.24305 0.0
C3110 C 0.74811 0.96646 0.26361 0.0
C3111 C 0.76849 0.98781 0.26789 0.0
C3112 C 0.77975 0.00572 0.25954 0.0
C3113 C 0.77102 0.00237 0.24728 0.0
C3114 C 0.83584 0.00619 0.2966 0.0
C3115 C 0.80253 -0.00218 0.30556 0.0
C3116 C 0.82461 0.00293 0.28449 0.0
C3117 C 0.77959 0.99121 0.28093 0.0
C3118 C 0.74609 0.98274 0.2899 0.0
C3119 C 0.75742 0.98606 0.30211 0.0
H3120 H 0.49869 0.51326 0.55726 0.0
H3121 H 0.58949 0.45081 0.55084 0.0
H3122 H 0.48792 0.51859 0.5357 0.0
H3123 H 0.5815 0.4567 0.52938 0.0
H3124 H 0.52124 0.46091 0.49116 0.0
H3125 H 0.52941 0.45468 0.51268 0.0
H3126 H 0.52887 0.53016 0.5182 0.0
H3127 H 0.51783 0.53611 0.49675 0.0
C3128 C 0.51647 0.50072 0.55122 0.0
C3129 C 0.54484 0.48162 0.55576 0.0
C3130 C 0.51082 0.50387 0.53883 0.0
C3131 C 0.5341 0.48819 0.53063 0.0
C3132 C 0.56217 0.46898 0.53528 0.0
C3133 C 0.56708 0.46565 0.54764 0.0
C3134 C 0.52322 0.47613 0.497 0.0
C3135 C 0.51878 0.49899 0.49228 0.0
C3136 C 0.52809 0.47261 0.50938 0.0
C3137 C 0.52954 0.49189 0.51735 0.0
C3138 C 0.52661 0.51479 0.51249 0.0
C3139 C 0.5209 0.51826 0.50014 0.0
H3140 H 0.51879 0.77183 0.80696 0.0
H3141 H 0.51823 0.69648 0.80188 0.0
H3142 H 0.52607 0.77756 0.7854 0.0
H3143 H 0.52839 0.70195 0.78037 0.0
H3144 H 0.49554 0.71794 0.74125 0.0
H3145 H 0.48617 0.71288 0.76288 0.0
H3146 H 0.57779 0.77542 0.76865 0.0
H3147 H 0.58434 0.78103 0.74716 0.0
C3148 C 0.52126 0.75647 0.80123 0.0
C3149 C 0.51785 0.73371 0.8061 0.0
C3150 C 0.52561 0.75971 0.78882 0.0
C3151 C 0.52756 0.74023 0.78097 0.0
C3152 C 0.52573 0.71744 0.78598 0.0
C3153 C 0.52053 0.71425 0.79836 0.0
C3154 C 0.51317 0.73067 0.74719 0.0
C3155 C 0.54053 0.74989 0.7425 0.0
C3156 C 0.50834 0.72768 0.75961 0.0
C3157 C 0.53144 0.74366 0.76767 0.0
C3158 C 0.55859 0.76293 0.76287 0.0
C3159 C 0.56267 0.7661 0.75048 0.0
H3160 H 0.44698 0.20864 0.29809 0.0
H3161 H 0.56104 0.25982 0.30841 0.0
H3162 H 0.47115 0.21316 0.27723 0.0
H3163 H 0.58414 0.26536 0.28732 0.0
H3164 H 0.64561 0.25452 0.24942 0.0
H3165 H 0.62411 0.24909 0.27045 0.0
H3166 H 0.46497 0.23792 0.26072 0.0
H3167 H 0.48754 0.24236 0.23963 0.0
C3168 C 0.47725 0.221 0.29586 0.0
C3169 C 0.50222 0.23384 0.30489 0.0
C3170 C 0.49081 0.22379 0.28383 0.0
C3171 C 0.52934 0.23983 0.28042 0.0
C3172 C 0.55473 0.2526 0.28953 0.0
C3173 C 0.5415 0.24952 0.30165 0.0
C3174 C 0.60603 0.25078 0.25179 0.0
C3175 C 0.56824 0.2487 0.24284 0.0
C3176 C 0.59355 0.24787 0.2639 0.0
C3177 C 0.54269 0.24307 0.26744 0.0
C3178 C 0.5048 0.24113 0.25842 0.0
C3179 C 0.51753 0.24376 0.24628 0.0
H3180 H 0.59323 0.94994 0.04955 0.0
H3181 H 0.50263 0.01221 0.05654 0.0
H3182 H 0.58472 0.95643 0.02815 0.0
H3183 H 0.49129 0.01814 0.03503 0.0
H3184 H 0.51909 0.03636 0.99602 0.0
H3185 H 0.53098 0.03008 1.01743 0.0
H3186 H 0.53206 0.9547 1.01159 0.0
H3187 H 0.52308 0.96126 0.99013 0.0
C3188 C 0.57076 0.96488 0.04649 0.0
C3189 C 0.54868 0.9806 0.05475 0.0
C3190 C 0.56554 0.96856 0.03415 0.0
C3191 C 0.53727 0.98786 0.02968 0.0
C3192 C 0.51429 0.00334 0.03802 0.0
C3193 C 0.52026 -0.00016 0.05039 0.0
C3194 C 0.52247 0.01847 0.99933 0.0
C3195 C 0.5203 -0.00068 0.99139 0.0
C3196 C 0.52868 0.0148 1.01166 0.0
C3197 C 0.53209 -0.00817 1.01643 0.0
C3198 C 0.53046 0.97268 1.00837 0.0
C3199 C 0.5251 0.9764 0.99602 0.0
loop_
_geom_bond_atom_site_label_1
_geom_bond_atom_site_label_2
_geom_bond_distance
_geom_bond_site_symmetry_2
_ccdc_geom_bond_type
Gd0 C3 2.818 . S
Gd0 O20 2.377 . S
Gd0 O22 2.448 . S
Gd0 O23 2.506 . S
Gd0 O24 2.435 . S
Gd0 O25 2.717 1_655 S
Gd0 O27 2.395 1_655 S
Gd0 O31 2.327 1_655 S
Gd1 C12 2.818 . S
Gd1 O21 2.395 . S
Gd1 O25 2.327 . S
Gd1 O26 2.377 . S
Gd1 O28 2.448 . S
Gd1 O29 2.506 . S
Gd1 O30 2.435 . S
Gd1 O31 2.717 . S
C2 O20 1.240 . S
C2 O21 1.240 1_655 S
C3 Gd0 2.818 . S
C3 C4 1.510 . S
C3 O22 1.249 . S
C3 O23 1.252 . S
C4 C3 1.510 . S
C4 C5 1.404 . S
C4 C6 1.352 . S
C5 C4 1.404 . S
C5 C9 1.389 . S
C5 H32 0.930 . S
C6 C4 1.352 . S
C6 C8 1.374 . S
C6 H33 0.931 . S
C7 C8 1.359 . S
C7 C9 1.364 . S
C8 C6 1.374 . S
C8 C7 1.359 . S
C8 H34 0.931 . S
C9 C5 1.389 . S
C9 C7 1.364 . S
C9 H35 0.931 . S
C10 O24 1.256 1_455 S
C10 O25 1.257 . S
C11 O26 1.240 . S
C11 O27 1.240 . S
C12 Gd1 2.818 . S
C12 C13 1.510 . S
C12 O28 1.249 . S
C12 O29 1.252 . S
C13 C12 1.510 . S
C13 C14 1.404 . S
C13 C15 1.352 . S
C14 C13 1.404 . S
C14 C18 1.389 . S
C14 H36 0.930 . S
C15 C13 1.352 . S
C15 C17 1.374 . S
C15 H37 0.931 . S
C16 C17 1.359 . S
C16 C18 1.364 . S
C17 C15 1.374 . S
C17 C16 1.359 . S
C17 H38 0.931 . S
C18 C14 1.389 . S
C18 C16 1.364 . S
C18 H39 0.931 . S
C19 O30 1.256 . S
C19 O31 1.257 . S
O20 Gd0 2.377 . S
O20 C2 1.240 . S
O21 Gd1 2.395 . S
O21 C2 1.240 1_455 S
O22 Gd0 2.448 . S
O22 C3 1.249 . S
O23 Gd0 2.506 . S
O23 C3 1.252 . S
O24 Gd0 2.435 . S
O24 C10 1.256 1_655 S
O25 Gd0 2.717 1_455 S
O25 Gd1 2.327 . S
O25 C10 1.257 . S
O26 Gd1 2.377 . S
O26 C11 1.240 . S
O27 Gd0 2.395 1_455 S
O27 C11 1.240 . S
O28 Gd1 2.448 . S
O28 C12 1.249 . S
O29 Gd1 2.506 . S
O29 C12 1.252 . S
O30 Gd1 2.435 . S
O30 C19 1.256 . S
O31 Gd0 2.327 1_455 S
O31 Gd1 2.717 . S
O31 C19 1.257 . S
H32 C5 0.930 . S
H33 C6 0.931 . S
H34 C8 0.931 . S
H35 C9 0.931 . S
H36 C14 0.930 . S
H37 C15 0.931 . S
H38 C17 0.931 . S
H39 C18 0.931 . S
Gd40 C43 2.818 . S
Gd40 O60 2.377 . S
Gd40 O62 2.448 . S
Gd40 O63 2.506 . S
Gd40 O64 2.435 . S
Gd40 O65 2.717 . S
Gd40 O67 2.395 . S
Gd40 O71 2.327 . S
Gd41 C52 2.818 . S
Gd41 O61 2.395 . S
Gd41 O65 2.327 . S
Gd41 O66 2.377 . S
Gd41 O68 2.448 . S
Gd41 O69 2.506 . S
Gd41 O70 2.435 . S
Gd41 O71 2.717 . S
C42 O60 1.240 . S
C42 O61 1.240 . S
C43 Gd40 2.818 . S
C43 C44 1.510 . S
C43 O62 1.249 . S
C43 O63 1.252 . S
C44 C43 1.510 . S
C44 C45 1.404 . S
C44 C46 1.352 . S
C45 C44 1.404 . S
C45 C49 1.389 . S
C45 H72 0.930 . S
C46 C44 1.352 . S
C46 C48 1.374 . S
C46 H73 0.931 . S
C47 C48 1.359 . S
C47 C49 1.364 . S
C48 C46 1.374 . S
C48 C47 1.359 . S
C48 H74 0.931 . S
C49 C45 1.389 . S
C49 C47 1.364 . S
C49 H75 0.931 . S
C50 O64 1.256 . S
C50 O65 1.257 . S
C51 O66 1.240 . S
C51 O67 1.240 . S
C52 Gd41 2.818 . S
C52 C53 1.510 . S
C52 O68 1.249 . S
C52 O69 1.252 . S
C53 C52 1.510 . S
C53 C54 1.404 1_455 S
C53 C55 1.352 1_455 S
C54 C53 1.404 1_655 S
C54 C58 1.389 . S
C54 H76 0.930 . S
C55 C53 1.352 1_655 S
C55 C57 1.374 . S
C55 H77 0.923 1_655 S
C56 C57 1.359 . S
C56 C58 1.364 . S
C57 C55 1.374 . S
C57 C56 1.359 . S
C57 H78 0.931 . S
C58 C54 1.389 . S
C58 C56 1.364 . S
C58 H79 0.931 . S
C59 O70 1.256 . S
C59 O71 1.257 . S
O60 Gd40 2.377 . S
O60 C42 1.240 . S
O61 Gd41 2.395 . S
O61 C42 1.240 . S
O62 Gd40 2.448 . S
O62 C43 1.249 . S
O63 Gd40 2.506 . S
O63 C43 1.252 . S
O64 Gd40 2.435 . S
O64 C50 1.256 . S
O65 Gd40 2.717 . S
O65 Gd41 2.327 . S
O65 C50 1.257 . S
O66 Gd41 2.377 . S
O66 C51 1.240 . S
O67 Gd40 2.395 . S
O67 C51 1.240 . S
O68 Gd41 2.448 . S
O68 C52 1.249 . S
O69 Gd41 2.506 . S
O69 C52 1.252 . S
O70 Gd41 2.435 . S
O70 C59 1.256 . S
O71 Gd40 2.327 . S
O71 Gd41 2.717 . S
O71 C59 1.257 . S
H72 C45 0.930 . S
H73 C46 0.931 . S
H74 C48 0.931 . S
H75 C49 0.931 . S
H76 C54 0.930 . S
H77 C55 0.923 1_455 S
H78 C57 0.931 . S
H79 C58 0.931 . S
Gd80 C83 2.818 . S
Gd80 O100 2.377 . S
Gd80 O102 2.448 . S
Gd80 O103 2.506 . S
Gd80 O104 2.435 . S
Gd80 O105 2.717 1_655 S
Gd80 O107 2.395 1_655 S
Gd80 O111 2.327 1_655 S
Gd81 C92 2.818 . S
Gd81 O101 2.395 . S
Gd81 O105 2.327 . S
Gd81 O106 2.377 . S
Gd81 O108 2.448 . S
Gd81 O109 2.506 . S
Gd81 O110 2.435 . S
Gd81 O111 2.717 . S
C82 O100 1.240 . S
C82 O101 1.240 1_655 S
C83 Gd80 2.818 . S
C83 C84 1.510 . S
C83 O102 1.249 . S
C83 O103 1.252 . S
C84 C83 1.510 . S
C84 C85 1.404 . S
C84 C86 1.352 . S
C85 C84 1.404 . S
C85 C89 1.389 . S
C85 H112 0.930 . S
C86 C84 1.352 . S
C86 C88 1.374 . S
C86 H113 0.931 . S
C87 C88 1.359 . S
C87 C89 1.364 . S
C88 C86 1.374 . S
C88 C87 1.359 . S
C88 H114 0.931 . S
C89 C85 1.389 . S
C89 C87 1.364 . S
C89 H115 0.931 . S
C90 O104 1.256 1_455 S
C90 O105 1.257 . S
C91 O106 1.240 . S
C91 O107 1.240 . S
C92 Gd81 2.818 . S
C92 C93 1.510 . S
C92 O108 1.249 . S
C92 O109 1.252 . S
C93 C92 1.510 . S
C93 C94 1.404 . S
C93 C95 1.352 . S
C94 C93 1.404 . S
C94 C98 1.389 . S
C94 H116 0.930 . S
C95 C93 1.352 . S
C95 C97 1.374 . S
C95 H117 0.931 . S
C96 C97 1.359 . S
C96 C98 1.364 . S
C97 C95 1.374 . S
C97 C96 1.359 . S
C97 H118 0.931 . S
C98 C94 1.389 . S
C98 C96 1.364 . S
C98 H119 0.931 . S
C99 O110 1.256 . S
C99 O111 1.257 . S
O100 Gd80 2.377 . S
O100 C82 1.240 . S
O101 Gd81 2.395 . S
O101 C82 1.240 1_455 S
O102 Gd80 2.448 . S
O102 C83 1.249 . S
O103 Gd80 2.506 . S
O103 C83 1.252 . S
O104 Gd80 2.435 . S
O104 C90 1.256 1_655 S
O105 Gd80 2.717 1_455 S
O105 Gd81 2.327 . S
O105 C90 1.257 . S
O106 Gd81 2.377 . S
O106 C91 1.240 . S
O107 Gd80 2.395 1_455 S
O107 C91 1.240 . S
O108 Gd81 2.448 . S
O108 C92 1.249 . S
O109 Gd81 2.506 . S
O109 C92 1.252 . S
O110 Gd81 2.435 . S
O110 C99 1.256 . S
O111 Gd80 2.327 1_455 S
O111 Gd81 2.717 . S
O111 C99 1.257 . S
H112 C85 0.930 . S
H113 C86 0.931 . S
H114 C88 0.931 . S
H115 C89 0.931 . S
H116 C94 0.930 . S
H117 C95 0.931 . S
H118 C97 0.931 . S
H119 C98 0.931 . S
Gd120 C123 2.818 . S
Gd120 O140 2.377 . S
Gd120 O142 2.448 . S
Gd120 O143 2.506 . S
Gd120 O144 2.435 . S
Gd120 O145 2.717 . S
Gd120 O147 2.395 . S
Gd120 O151 2.327 . S
Gd121 C132 2.818 . S
Gd121 O141 2.395 . S
Gd121 O145 2.327 . S
Gd121 O146 2.377 . S
Gd121 O148 2.448 . S
Gd121 O149 2.506 . S
Gd121 O150 2.435 . S
Gd121 O151 2.717 . S
C122 O140 1.240 . S
C122 O141 1.240 . S
C123 Gd120 2.818 . S
C123 C124 1.510 . S
C123 O142 1.249 . S
C123 O143 1.252 . S
C124 C123 1.510 . S
C124 C125 1.404 . S
C124 C126 1.352 . S
C125 C124 1.404 . S
C125 C129 1.389 . S
C125 H152 0.930 . S
C126 C124 1.352 . S
C126 C128 1.374 . S
C126 H153 0.931 . S
C127 C128 1.359 . S
C127 C129 1.364 . S
C128 C126 1.374 . S
C128 C127 1.359 . S
C128 H154 0.931 . S
C129 C125 1.389 . S
C129 C127 1.364 . S
C129 H155 0.931 . S
C130 O144 1.256 . S
C130 O145 1.257 . S
C131 O146 1.240 . S
C131 O147 1.240 . S
C132 Gd121 2.818 . S
C132 C133 1.510 . S
C132 O148 1.249 . S
C132 O149 1.252 . S
C133 C132 1.510 . S
C133 C134 1.404 1_455 S
C133 C135 1.352 1_455 S
C134 C133 1.404 1_655 S
C134 C138 1.389 . S
C134 H156 0.930 . S
C135 C133 1.352 1_655 S
C135 C137 1.374 . S
C135 H157 0.923 1_655 S
C136 C137 1.359 . S
C136 C138 1.364 . S
C137 C135 1.374 . S
C137 C136 1.359 . S
C137 H158 0.931 . S
C138 C134 1.389 . S
C138 C136 1.364 . S
C138 H159 0.931 . S
C139 O150 1.256 . S
C139 O151 1.257 . S
O140 Gd120 2.377 . S
O140 C122 1.240 . S
O141 Gd121 2.395 . S
O141 C122 1.240 . S
O142 Gd120 2.448 . S
O142 C123 1.249 . S
O143 Gd120 2.506 . S
O143 C123 1.252 . S
O144 Gd120 2.435 . S
O144 C130 1.256 . S
O145 Gd120 2.717 . S
O145 Gd121 2.327 . S
O145 C130 1.257 . S
O146 Gd121 2.377 . S
O146 C131 1.240 . S
O147 Gd120 2.395 . S
O147 C131 1.240 . S
O148 Gd121 2.448 . S
O148 C132 1.249 . S
O149 Gd121 2.506 . S
O149 C132 1.252 . S
O150 Gd121 2.435 . S
O150 C139 1.256 . S
O151 Gd120 2.327 . S
O151 Gd121 2.717 . S
O151 C139 1.257 . S
H152 C125 0.930 . S
H153 C126 0.931 . S
H154 C128 0.931 . S
H155 C129 0.931 . S
H156 C134 0.930 . S
H157 C135 0.923 1_455 S
H158 C137 0.931 . S
H159 C138 0.931 . S
Gd160 C163 2.818 . S
Gd160 O180 2.377 . S
Gd160 O182 2.448 . S
Gd160 O183 2.506 . S
Gd160 O184 2.435 . S
Gd160 O185 2.717 . S
Gd160 O187 2.395 . S
Gd160 O191 2.327 . S
Gd161 C172 2.818 . S
Gd161 O181 2.395 1_455 S
Gd161 O185 2.327 1_455 S
Gd161 O186 2.377 . S
Gd161 O188 2.448 . S
Gd161 O189 2.506 . S
Gd161 O190 2.435 . S
Gd161 O191 2.717 1_455 S
C162 O180 1.240 . S
C162 O181 1.240 . S
C163 Gd160 2.818 . S
C163 C164 1.510 . S
C163 O182 1.249 . S
C163 O183 1.252 . S
C164 C163 1.510 . S
C164 C165 1.404 . S
C164 C166 1.352 . S
C165 C164 1.404 . S
C165 C169 1.389 . S
C165 H192 0.930 . S
C166 C164 1.352 . S
C166 C168 1.374 . S
C166 H193 0.931 . S
C167 C168 1.359 . S
C167 C169 1.364 . S
C168 C166 1.374 . S
C168 C167 1.359 . S
C168 H194 0.931 . S
C169 C165 1.389 . S
C169 C167 1.364 . S
C169 H195 0.931 . S
C170 O184 1.256 . S
C170 O185 1.257 . S
C171 O186 1.240 . S
C171 O187 1.240 1_455 S
C172 Gd161 2.818 . S
C172 C173 1.510 . S
C172 O188 1.249 . S
C172 O189 1.252 . S
C173 C172 1.510 . S
C173 C174 1.404 . S
C173 C175 1.352 . S
C174 C173 1.404 . S
C174 C178 1.389 . S
C174 H196 0.930 . S
C175 C173 1.352 . S
C175 C177 1.374 . S
C175 H197 0.931 . S
C176 C177 1.359 . S
C176 C178 1.364 . S
C177 C175 1.374 . S
C177 C176 1.359 . S
C177 H198 0.931 . S
C178 C174 1.389 . S
C178 C176 1.364 . S
C178 H199 0.931 . S
C179 O190 1.256 1_655 S
C179 O191 1.257 . S
O180 Gd160 2.377 . S
O180 C162 1.240 . S
O181 Gd161 2.395 1_655 S
O181 C162 1.240 . S
O182 Gd160 2.448 . S
O182 C163 1.249 . S
O183 Gd160 2.506 . S
O183 C163 1.252 . S
O184 Gd160 2.435 . S
O184 C170 1.256 . S
O185 Gd160 2.717 . S
O185 Gd161 2.327 1_655 S
O185 C170 1.257 . S
O186 Gd161 2.377 . S
O186 C171 1.240 . S
O187 Gd160 2.395 . S
O187 C171 1.240 1_655 S
O188 Gd161 2.448 . S
O188 C172 1.249 . S
O189 Gd161 2.506 . S
O189 C172 1.252 . S
O190 Gd161 2.435 . S
O190 C179 1.256 1_455 S
O191 Gd160 2.327 . S
O191 Gd161 2.717 1_655 S
O191 C179 1.257 . S
H192 C165 0.930 . S
H193 C166 0.931 . S
H194 C168 0.931 . S
H195 C169 0.931 . S
H196 C174 0.930 . S
H197 C175 0.931 . S
H198 C177 0.931 . S
H199 C178 0.931 . S
Gd200 C203 2.818 . S
Gd200 O220 2.377 . S
Gd200 O222 2.448 . S
Gd200 O223 2.506 . S
Gd200 O224 2.435 . S
Gd200 O225 2.717 . S
Gd200 O227 2.395 . S
Gd200 O231 2.327 . S
Gd201 C212 2.818 . S
Gd201 O221 2.395 . S
Gd201 O225 2.327 . S
Gd201 O226 2.377 . S
Gd201 O228 2.448 . S
Gd201 O229 2.506 . S
Gd201 O230 2.435 . S
Gd201 O231 2.717 . S
C202 O220 1.240 . S
C202 O221 1.240 . S
C203 Gd200 2.818 . S
C203 C204 1.510 . S
C203 O222 1.249 . S
C203 O223 1.252 . S
C204 C203 1.510 . S
C204 C205 1.404 1_655 S
C204 C206 1.352 1_655 S
C205 C204 1.404 1_455 S
C205 C209 1.389 . S
C205 H232 0.930 . S
C206 C204 1.352 1_455 S
C206 C208 1.374 . S
C206 H233 0.923 1_455 S
C207 C208 1.359 . S
C207 C209 1.364 . S
C208 C206 1.374 . S
C208 C207 1.359 . S
C208 H234 0.931 . S
C209 C205 1.389 . S
C209 C207 1.364 . S
C209 H235 0.931 . S
C210 O224 1.256 . S
C210 O225 1.257 . S
C211 O226 1.240 . S
C211 O227 1.240 . S
C212 Gd201 2.818 . S
C212 C213 1.510 . S
C212 O228 1.249 . S
C212 O229 1.252 . S
C213 C212 1.510 . S
C213 C214 1.404 . S
C213 C215 1.352 . S
C214 C213 1.404 . S
C214 C218 1.389 . S
C214 H236 0.930 . S
C215 C213 1.352 . S
C215 C217 1.374 . S
C215 H237 0.931 . S
C216 C217 1.359 . S
C216 C218 1.364 . S
C217 C215 1.374 . S
C217 C216 1.359 . S
C217 H238 0.931 . S
C218 C214 1.389 . S
C218 C216 1.364 . S
C218 H239 0.931 . S
C219 O230 1.256 . S
C219 O231 1.257 . S
O220 Gd200 2.377 . S
O220 C202 1.240 . S
O221 Gd201 2.395 . S
O221 C202 1.240 . S
O222 Gd200 2.448 . S
O222 C203 1.249 . S
O223 Gd200 2.506 . S
O223 C203 1.252 . S
O224 Gd200 2.435 . S
O224 C210 1.256 . S
O225 Gd200 2.717 . S
O225 Gd201 2.327 . S
O225 C210 1.257 . S
O226 Gd201 2.377 . S
O226 C211 1.240 . S
O227 Gd200 2.395 . S
O227 C211 1.240 . S
O228 Gd201 2.448 . S
O228 C212 1.249 . S
O229 Gd201 2.506 . S
O229 C212 1.252 . S
O230 Gd201 2.435 . S
O230 C219 1.256 . S
O231 Gd200 2.327 . S
O231 Gd201 2.717 . S
O231 C219 1.257 . S
H232 C205 0.930 . S
H233 C206 0.923 1_655 S
H234 C208 0.931 . S
H235 C209 0.931 . S
H236 C214 0.930 . S
H237 C215 0.931 . S
H238 C217 0.931 . S
H239 C218 0.931 . S
Gd240 C243 2.818 . S
Gd240 O260 2.377 . S
Gd240 O262 2.448 . S
Gd240 O263 2.506 . S
Gd240 O264 2.435 . S
Gd240 O265 2.717 . S
Gd240 O267 2.395 . S
Gd240 O271 2.327 . S
Gd241 C252 2.818 . S
Gd241 O261 2.395 1_455 S
Gd241 O265 2.327 1_455 S
Gd241 O266 2.377 . S
Gd241 O268 2.448 . S
Gd241 O269 2.506 . S
Gd241 O270 2.435 . S
Gd241 O271 2.717 1_455 S
C242 O260 1.240 . S
C242 O261 1.240 . S
C243 Gd240 2.818 . S
C243 C244 1.510 . S
C243 O262 1.249 . S
C243 O263 1.252 . S
C244 C243 1.510 . S
C244 C245 1.404 . S
C244 C246 1.352 . S
C245 C244 1.404 . S
C245 C249 1.389 . S
C245 H272 0.930 . S
C246 C244 1.352 . S
C246 C248 1.374 . S
C246 H273 0.931 . S
C247 C248 1.359 . S
C247 C249 1.364 . S
C248 C246 1.374 . S
C248 C247 1.359 . S
C248 H274 0.931 . S
C249 C245 1.389 . S
C249 C247 1.364 . S
C249 H275 0.931 . S
C250 O264 1.256 . S
C250 O265 1.257 . S
C251 O266 1.240 . S
C251 O267 1.240 1_455 S
C252 Gd241 2.818 . S
C252 C253 1.510 . S
C252 O268 1.249 . S
C252 O269 1.252 . S
C253 C252 1.510 . S
C253 C254 1.404 . S
C253 C255 1.352 . S
C254 C253 1.404 . S
C254 C258 1.389 . S
C254 H276 0.930 . S
C255 C253 1.352 . S
C255 C257 1.374 . S
C255 H277 0.931 . S
C256 C257 1.359 . S
C256 C258 1.364 . S
C257 C255 1.374 . S
C257 C256 1.359 . S
C257 H278 0.931 . S
C258 C254 1.389 . S
C258 C256 1.364 . S
C258 H279 0.931 . S
C259 O270 1.256 1_655 S
C259 O271 1.257 . S
O260 Gd240 2.377 . S
O260 C242 1.240 . S
O261 Gd241 2.395 1_655 S
O261 C242 1.240 . S
O262 Gd240 2.448 . S
O262 C243 1.249 . S
O263 Gd240 2.506 . S
O263 C243 1.252 . S
O264 Gd240 2.435 . S
O264 C250 1.256 . S
O265 Gd240 2.717 . S
O265 Gd241 2.327 1_655 S
O265 C250 1.257 . S
O266 Gd241 2.377 . S
O266 C251 1.240 . S
O267 Gd240 2.395 . S
O267 C251 1.240 1_655 S
O268 Gd241 2.448 . S
O268 C252 1.249 . S
O269 Gd241 2.506 . S
O269 C252 1.252 . S
O270 Gd241 2.435 . S
O270 C259 1.256 1_455 S
O271 Gd240 2.327 . S
O271 Gd241 2.717 1_655 S
O271 C259 1.257 . S
H272 C245 0.930 . S
H273 C246 0.931 . S
H274 C248 0.931 . S
H275 C249 0.931 . S
H276 C254 0.930 . S
H277 C255 0.931 . S
H278 C257 0.931 . S
H279 C258 0.931 . S
Gd280 C283 2.818 . S
Gd280 O300 2.377 . S
Gd280 O302 2.448 . S
Gd280 O303 2.506 . S
Gd280 O304 2.435 . S
Gd280 O305 2.717 . S
Gd280 O307 2.395 . S
Gd280 O311 2.327 . S
Gd281 C292 2.818 . S
Gd281 O301 2.395 . S
Gd281 O305 2.327 . S
Gd281 O306 2.377 . S
Gd281 O308 2.448 . S
Gd281 O309 2.506 . S
Gd281 O310 2.435 . S
Gd281 O311 2.717 . S
C282 O300 1.240 . S
C282 O301 1.240 . S
C283 Gd280 2.818 . S
C283 C284 1.510 . S
C283 O302 1.249 . S
C283 O303 1.252 . S
C284 C283 1.510 . S
C284 C285 1.404 1_655 S
C284 C286 1.352 1_655 S
C285 C284 1.404 1_455 S
C285 C289 1.389 . S
C285 H312 0.930 . S
C286 C284 1.352 1_455 S
C286 C288 1.374 . S
C286 H313 0.923 1_455 S
C287 C288 1.359 . S
C287 C289 1.364 . S
C288 C286 1.374 . S
C288 C287 1.359 . S
C288 H314 0.931 . S
C289 C285 1.389 . S
C289 C287 1.364 . S
C289 H315 0.931 . S
C290 O304 1.256 . S
C290 O305 1.257 . S
C291 O306 1.240 . S
C291 O307 1.240 . S
C292 Gd281 2.818 . S
C292 C293 1.510 . S
C292 O308 1.249 . S
C292 O309 1.252 . S
C293 C292 1.510 . S
C293 C294 1.404 . S
C293 C295 1.352 . S
C294 C293 1.404 . S
C294 C298 1.389 . S
C294 H316 0.930 . S
C295 C293 1.352 . S
C295 C297 1.374 . S
C295 H317 0.931 . S
C296 C297 1.359 . S
C296 C298 1.364 . S
C297 C295 1.374 . S
C297 C296 1.359 . S
C297 H318 0.931 . S
C298 C294 1.389 . S
C298 C296 1.364 . S
C298 H319 0.931 . S
C299 O310 1.256 . S
C299 O311 1.257 . S
O300 Gd280 2.377 . S
O300 C282 1.240 . S
O301 Gd281 2.395 . S
O301 C282 1.240 . S
O302 Gd280 2.448 . S
O302 C283 1.249 . S
O303 Gd280 2.506 . S
O303 C283 1.252 . S
O304 Gd280 2.435 . S
O304 C290 1.256 . S
O305 Gd280 2.717 . S
O305 Gd281 2.327 . S
O305 C290 1.257 . S
O306 Gd281 2.377 . S
O306 C291 1.240 . S
O307 Gd280 2.395 . S
O307 C291 1.240 . S
O308 Gd281 2.448 . S
O308 C292 1.249 . S
O309 Gd281 2.506 . S
O309 C292 1.252 . S
O310 Gd281 2.435 . S
O310 C299 1.256 . S
O311 Gd280 2.327 . S
O311 Gd281 2.717 . S
O311 C299 1.257 . S
H312 C285 0.930 . S
H313 C286 0.923 1_655 S
H314 C288 0.931 . S
H315 C289 0.931 . S
H316 C294 0.930 . S
H317 C295 0.931 . S
H318 C297 0.931 . S
H319 C298 0.931 . S
Gd320 C323 2.828 . S
Gd320 O340 2.377 1_545 S
Gd320 O342 2.448 . S
Gd320 O343 2.503 1_545 S
Gd320 O344 2.435 . S
Gd320 O345 2.717 1_645 S
Gd320 O347 2.395 1_655 S
Gd320 O351 2.327 1_645 S
Gd321 C332 2.818 . S
Gd321 O341 2.395 . S
Gd321 O345 2.327 . S
Gd321 O346 2.377 1_565 S
Gd321 O348 2.448 . S
Gd321 O349 2.506 . S
Gd321 O350 2.435 . S
Gd321 O351 2.717 . S
C322 O340 1.240 . S
C322 O341 1.240 1_655 S
C323 Gd320 2.828 . S
C323 C324 1.500 1_545 S
C323 O342 1.261 . S
C323 O343 1.250 1_545 S
C324 C323 1.500 1_565 S
C324 C325 1.404 . S
C324 C326 1.352 . S
C325 C324 1.404 . S
C325 C329 1.389 . S
C325 H352 0.930 1_565 S
C326 C324 1.352 . S
C326 C328 1.374 . S
C326 H353 0.931 . S
C327 C328 1.359 . S
C327 C329 1.364 . S
C328 C326 1.374 . S
C328 C327 1.359 . S
C328 H354 0.931 . S
C329 C325 1.389 . S
C329 C327 1.364 . S
C329 H355 0.931 . S
C330 O344 1.256 1_465 S
C330 O345 1.257 . S
C331 O346 1.240 . S
C331 O347 1.240 . S
C332 Gd321 2.818 . S
C332 C333 1.510 . S
C332 O348 1.249 . S
C332 O349 1.252 . S
C333 C332 1.510 . S
C333 C334 1.404 . S
C333 C335 1.352 1_565 S
C334 C333 1.404 . S
C334 C338 1.389 . S
C334 H356 0.930 . S
C335 C333 1.352 1_545 S
C335 C337 1.374 . S
C335 H357 0.931 . S
C336 C337 1.359 . S
C336 C338 1.364 1_545 S
C337 C335 1.374 . S
C337 C336 1.359 . S
C337 H358 0.931 . S
C338 C334 1.389 . S
C338 C336 1.364 1_565 S
C338 H359 0.931 . S
C339 O350 1.256 . S
C339 O351 1.257 . S
O340 Gd320 2.377 1_565 S
O340 C322 1.240 . S
O341 Gd321 2.395 . S
O341 C322 1.240 1_455 S
O342 Gd320 2.448 . S
O342 C323 1.261 . S
O343 Gd320 2.503 1_565 S
O343 C323 1.250 1_565 S
O344 Gd320 2.435 . S
O344 C330 1.256 1_645 S
O345 Gd320 2.717 1_465 S
O345 Gd321 2.327 . S
O345 C330 1.257 . S
O346 Gd321 2.377 1_545 S
O346 C331 1.240 . S
O347 Gd320 2.395 1_455 S
O347 C331 1.240 . S
O348 Gd321 2.448 . S
O348 C332 1.249 . S
O349 Gd321 2.506 . S
O349 C332 1.252 . S
O350 Gd321 2.435 . S
O350 C339 1.256 . S
O351 Gd320 2.327 1_465 S
O351 Gd321 2.717 . S
O351 C339 1.257 . S
H352 C325 0.930 1_545 S
H353 C326 0.931 . S
H354 C328 0.931 . S
H355 C329 0.931 . S
H356 C334 0.930 . S
H357 C335 0.931 . S
H358 C337 0.931 . S
H359 C338 0.931 . S
Gd360 C363 2.818 . S
Gd360 O380 2.377 . S
Gd360 O382 2.448 . S
Gd360 O383 2.506 . S
Gd360 O384 2.435 . S
Gd360 O385 2.717 . S
Gd360 O387 2.395 . S
Gd360 O391 2.327 . S
Gd361 C372 2.818 . S
Gd361 O381 2.395 . S
Gd361 O385 2.327 . S
Gd361 O386 2.377 . S
Gd361 O388 2.448 . S
Gd361 O389 2.506 . S
Gd361 O390 2.435 . S
Gd361 O391 2.717 . S
C362 O380 1.240 . S
C362 O381 1.240 . S
C363 Gd360 2.818 . S
C363 C364 1.510 . S
C363 O382 1.249 . S
C363 O383 1.252 . S
C364 C363 1.510 . S
C364 C365 1.404 . S
C364 C366 1.352 . S
C365 C364 1.404 . S
C365 C369 1.389 . S
C365 H392 0.930 . S
C366 C364 1.352 . S
C366 C368 1.374 . S
C366 H393 0.931 . S
C367 C368 1.359 . S
C367 C369 1.364 . S
C368 C366 1.374 . S
C368 C367 1.359 . S
C368 H394 0.931 . S
C369 C365 1.389 . S
C369 C367 1.364 . S
C369 H395 0.931 . S
C370 O384 1.256 . S
C370 O385 1.257 . S
C371 O386 1.240 . S
C371 O387 1.240 . S
C372 Gd361 2.818 . S
C372 C373 1.510 . S
C372 O388 1.249 . S
C372 O389 1.252 . S
C373 C372 1.510 . S
C373 C374 1.404 1_455 S
C373 C375 1.352 1_455 S
C374 C373 1.404 1_655 S
C374 C378 1.389 . S
C374 H396 0.930 . S
C375 C373 1.352 1_655 S
C375 C377 1.374 . S
C375 H397 0.923 1_655 S
C376 C377 1.359 . S
C376 C378 1.364 . S
C377 C375 1.374 . S
C377 C376 1.359 . S
C377 H398 0.931 . S
C378 C374 1.389 . S
C378 C376 1.364 . S
C378 H399 0.931 . S
C379 O390 1.256 . S
C379 O391 1.257 . S
O380 Gd360 2.377 . S
O380 C362 1.240 . S
O381 Gd361 2.395 . S
O381 C362 1.240 . S
O382 Gd360 2.448 . S
O382 C363 1.249 . S
O383 Gd360 2.506 . S
O383 C363 1.252 . S
O384 Gd360 2.435 . S
O384 C370 1.256 . S
O385 Gd360 2.717 . S
O385 Gd361 2.327 . S
O385 C370 1.257 . S
O386 Gd361 2.377 . S
O386 C371 1.240 . S
O387 Gd360 2.395 . S
O387 C371 1.240 . S
O388 Gd361 2.448 . S
O388 C372 1.249 . S
O389 Gd361 2.506 . S
O389 C372 1.252 . S
O390 Gd361 2.435 . S
O390 C379 1.256 . S
O391 Gd360 2.327 . S
O391 Gd361 2.717 . S
O391 C379 1.257 . S
H392 C365 0.930 . S
H393 C366 0.931 . S
H394 C368 0.931 . S
H395 C369 0.931 . S
H396 C374 0.930 . S
H397 C375 0.923 1_455 S
H398 C377 0.931 . S
H399 C378 0.931 . S
Gd400 C403 2.818 . S
Gd400 O420 2.377 . S
Gd400 O422 2.448 . S
Gd400 O423 2.506 . S
Gd400 O424 2.435 . S
Gd400 O425 2.717 1_655 S
Gd400 O427 2.395 1_655 S
Gd400 O431 2.327 1_655 S
Gd401 C412 2.818 . S
Gd401 O421 2.395 . S
Gd401 O425 2.327 . S
Gd401 O426 2.377 . S
Gd401 O428 2.448 . S
Gd401 O429 2.506 . S
Gd401 O430 2.435 . S
Gd401 O431 2.717 . S
C402 O420 1.240 . S
C402 O421 1.240 1_655 S
C403 Gd400 2.818 . S
C403 C404 1.510 . S
C403 O422 1.249 . S
C403 O423 1.252 . S
C404 C403 1.510 . S
C404 C405 1.404 . S
C404 C406 1.352 . S
C405 C404 1.404 . S
C405 C409 1.389 . S
C405 H432 0.930 . S
C406 C404 1.352 . S
C406 C408 1.374 . S
C406 H433 0.931 . S
C407 C408 1.359 . S
C407 C409 1.364 . S
C408 C406 1.374 . S
C408 C407 1.359 . S
C408 H434 0.931 . S
C409 C405 1.389 . S
C409 C407 1.364 . S
C409 H435 0.931 . S
C410 O424 1.256 1_455 S
C410 O425 1.257 . S
C411 O426 1.240 . S
C411 O427 1.240 . S
C412 Gd401 2.818 . S
C412 C413 1.510 . S
C412 O428 1.249 . S
C412 O429 1.252 . S
C413 C412 1.510 . S
C413 C414 1.404 . S
C413 C415 1.352 . S
C414 C413 1.404 . S
C414 C418 1.389 . S
C414 H436 0.930 . S
C415 C413 1.352 . S
C415 C417 1.374 . S
C415 H437 0.931 . S
C416 C417 1.359 . S
C416 C418 1.364 . S
C417 C415 1.374 . S
C417 C416 1.359 . S
C417 H438 0.931 . S
C418 C414 1.389 . S
C418 C416 1.364 . S
C418 H439 0.931 . S
C419 O430 1.256 . S
C419 O431 1.257 . S
O420 Gd400 2.377 . S
O420 C402 1.240 . S
O421 Gd401 2.395 . S
O421 C402 1.240 1_455 S
O422 Gd400 2.448 . S
O422 C403 1.249 . S
O423 Gd400 2.506 . S
O423 C403 1.252 . S
O424 Gd400 2.435 . S
O424 C410 1.256 1_655 S
O425 Gd400 2.717 1_455 S
O425 Gd401 2.327 . S
O425 C410 1.257 . S
O426 Gd401 2.377 . S
O426 C411 1.240 . S
O427 Gd400 2.395 1_455 S
O427 C411 1.240 . S
O428 Gd401 2.448 . S
O428 C412 1.249 . S
O429 Gd401 2.506 . S
O429 C412 1.252 . S
O430 Gd401 2.435 . S
O430 C419 1.256 . S
O431 Gd400 2.327 1_455 S
O431 Gd401 2.717 . S
O431 C419 1.257 . S
H432 C405 0.930 . S
H433 C406 0.931 . S
H434 C408 0.931 . S
H435 C409 0.931 . S
H436 C414 0.930 . S
H437 C415 0.931 . S
H438 C417 0.931 . S
H439 C418 0.931 . S
Gd440 C443 2.828 . S
Gd440 O460 2.377 1_545 S
Gd440 O462 2.448 . S
Gd440 O463 2.503 1_545 S
Gd440 O464 2.435 . S
Gd440 O465 2.717 1_545 S
Gd440 O467 2.395 . S
Gd440 O471 2.327 1_545 S
Gd441 C452 2.818 . S
Gd441 O461 2.395 . S
Gd441 O465 2.327 . S
Gd441 O466 2.377 1_565 S
Gd441 O468 2.448 . S
Gd441 O469 2.506 . S
Gd441 O470 2.435 . S
Gd441 O471 2.717 . S
C442 O460 1.240 . S
C442 O461 1.240 . S
C443 Gd440 2.828 . S
C443 C444 1.500 1_545 S
C443 O462 1.261 . S
C443 O463 1.250 1_545 S
C444 C443 1.500 1_565 S
C444 C445 1.404 . S
C444 C446 1.352 . S
C445 C444 1.404 . S
C445 C449 1.389 . S
C445 H472 0.930 1_565 S
C446 C444 1.352 . S
C446 C448 1.374 . S
C446 H473 0.931 . S
C447 C448 1.359 . S
C447 C449 1.364 . S
C448 C446 1.374 . S
C448 C447 1.359 . S
C448 H474 0.931 . S
C449 C445 1.389 . S
C449 C447 1.364 . S
C449 H475 0.931 . S
C450 O464 1.256 1_565 S
C450 O465 1.257 . S
C451 O466 1.240 . S
C451 O467 1.240 . S
C452 Gd441 2.818 . S
C452 C453 1.510 . S
C452 O468 1.249 . S
C452 O469 1.252 . S
C453 C452 1.510 . S
C453 C454 1.404 1_455 S
C453 C455 1.352 1_465 S
C454 C453 1.404 1_655 S
C454 C458 1.389 . S
C454 H476 0.930 . S
C455 C453 1.352 1_645 S
C455 C457 1.374 . S
C455 H477 0.923 1_655 S
C456 C457 1.359 . S
C456 C458 1.364 1_545 S
C457 C455 1.374 . S
C457 C456 1.359 . S
C457 H478 0.931 . S
C458 C454 1.389 . S
C458 C456 1.364 1_565 S
C458 H479 0.931 . S
C459 O470 1.256 . S
C459 O471 1.257 . S
O460 Gd440 2.377 1_565 S
O460 C442 1.240 . S
O461 Gd441 2.395 . S
O461 C442 1.240 . S
O462 Gd440 2.448 . S
O462 C443 1.261 . S
O463 Gd440 2.503 1_565 S
O463 C443 1.250 1_565 S
O464 Gd440 2.435 . S
O464 C450 1.256 1_545 S
O465 Gd440 2.717 1_565 S
O465 Gd441 2.327 . S
O465 C450 1.257 . S
O466 Gd441 2.377 1_545 S
O466 C451 1.240 . S
O467 Gd440 2.395 . S
O467 C451 1.240 . S
O468 Gd441 2.448 . S
O468 C452 1.249 . S
O469 Gd441 2.506 . S
O469 C452 1.252 . S
O470 Gd441 2.435 . S
O470 C459 1.256 . S
O471 Gd440 2.327 1_565 S
O471 Gd441 2.717 . S
O471 C459 1.257 . S
H472 C445 0.930 1_545 S
H473 C446 0.931 . S
H474 C448 0.931 . S
H475 C449 0.931 . S
H476 C454 0.930 . S
H477 C455 0.923 1_455 S
H478 C457 0.931 . S
H479 C458 0.931 . S
Gd480 C483 2.818 . S
Gd480 O500 2.377 1_545 S
Gd480 O502 2.448 . S
Gd480 O503 2.506 . S
Gd480 O504 2.435 . S
Gd480 O505 2.717 . S
Gd480 O507 2.395 . S
Gd480 O511 2.327 . S
Gd481 C492 2.828 . S
Gd481 O501 2.395 1_455 S
Gd481 O505 2.327 1_465 S
Gd481 O506 2.377 1_565 S
Gd481 O508 2.448 . S
Gd481 O509 2.503 1_565 S
Gd481 O510 2.435 . S
Gd481 O511 2.717 1_465 S
C482 O500 1.240 . S
C482 O501 1.240 . S
C483 Gd480 2.818 . S
C483 C484 1.510 . S
C483 O502 1.249 . S
C483 O503 1.252 . S
C484 C483 1.510 . S
C484 C485 1.404 . S
C484 C486 1.352 1_545 S
C485 C484 1.404 . S
C485 C489 1.389 . S
C485 H512 0.930 . S
C486 C484 1.352 1_565 S
C486 C488 1.374 . S
C486 H513 0.931 . S
C487 C488 1.359 . S
C487 C489 1.364 1_565 S
C488 C486 1.374 . S
C488 C487 1.359 . S
C488 H514 0.931 . S
C489 C485 1.389 . S
C489 C487 1.364 1_545 S
C489 H515 0.931 . S
C490 O504 1.256 . S
C490 O505 1.257 . S
C491 O506 1.240 . S
C491 O507 1.240 1_455 S
C492 Gd481 2.828 . S
C492 C493 1.500 1_565 S
C492 O508 1.261 . S
C492 O509 1.250 1_565 S
C493 C492 1.500 1_545 S
C493 C494 1.404 . S
C493 C495 1.352 . S
C494 C493 1.404 . S
C494 C498 1.389 . S
C494 H516 0.930 1_545 S
C495 C493 1.352 . S
C495 C497 1.374 . S
C495 H517 0.931 . S
C496 C497 1.359 . S
C496 C498 1.364 . S
C497 C495 1.374 . S
C497 C496 1.359 . S
C497 H518 0.931 . S
C498 C494 1.389 . S
C498 C496 1.364 . S
C498 H519 0.931 . S
C499 O510 1.256 1_645 S
C499 O511 1.257 . S
O500 Gd480 2.377 1_565 S
O500 C482 1.240 . S
O501 Gd481 2.395 1_655 S
O501 C482 1.240 . S
O502 Gd480 2.448 . S
O502 C483 1.249 . S
O503 Gd480 2.506 . S
O503 C483 1.252 . S
O504 Gd480 2.435 . S
O504 C490 1.256 . S
O505 Gd480 2.717 . S
O505 Gd481 2.327 1_645 S
O505 C490 1.257 . S
O506 Gd481 2.377 1_545 S
O506 C491 1.240 . S
O507 Gd480 2.395 . S
O507 C491 1.240 1_655 S
O508 Gd481 2.448 . S
O508 C492 1.261 . S
O509 Gd481 2.503 1_545 S
O509 C492 1.250 1_545 S
O510 Gd481 2.435 . S
O510 C499 1.256 1_465 S
O511 Gd480 2.327 . S
O511 Gd481 2.717 1_645 S
O511 C499 1.257 . S
H512 C485 0.930 . S
H513 C486 0.931 . S
H514 C488 0.931 . S
H515 C489 0.931 . S
H516 C494 0.930 1_565 S
H517 C495 0.931 . S
H518 C497 0.931 . S
H519 C498 0.931 . S
Gd520 C523 2.818 . S
Gd520 O540 2.377 . S
Gd520 O542 2.448 . S
Gd520 O543 2.506 . S
Gd520 O544 2.435 . S
Gd520 O545 2.717 . S
Gd520 O547 2.395 . S
Gd520 O551 2.327 . S
Gd521 C532 2.818 . S
Gd521 O541 2.395 . S
Gd521 O545 2.327 . S
Gd521 O546 2.377 . S
Gd521 O548 2.448 . S
Gd521 O549 2.506 . S
Gd521 O550 2.435 . S
Gd521 O551 2.717 . S
C522 O540 1.240 . S
C522 O541 1.240 . S
C523 Gd520 2.818 . S
C523 C524 1.510 . S
C523 O542 1.249 . S
C523 O543 1.252 . S
C524 C523 1.510 . S
C524 C525 1.404 1_655 S
C524 C526 1.352 1_655 S
C525 C524 1.404 1_455 S
C525 C529 1.389 . S
C525 H552 0.930 . S
C526 C524 1.352 1_455 S
C526 C528 1.374 . S
C526 H553 0.923 1_455 S
C527 C528 1.359 . S
C527 C529 1.364 . S
C528 C526 1.374 . S
C528 C527 1.359 . S
C528 H554 0.931 . S
C529 C525 1.389 . S
C529 C527 1.364 . S
C529 H555 0.931 . S
C530 O544 1.256 . S
C530 O545 1.257 . S
C531 O546 1.240 . S
C531 O547 1.240 . S
C532 Gd521 2.818 . S
C532 C533 1.510 . S
C532 O548 1.249 . S
C532 O549 1.252 . S
C533 C532 1.510 . S
C533 C534 1.404 . S
C533 C535 1.352 . S
C534 C533 1.404 . S
C534 C538 1.389 . S
C534 H556 0.930 . S
C535 C533 1.352 . S
C535 C537 1.374 . S
C535 H557 0.931 . S
C536 C537 1.359 . S
C536 C538 1.364 . S
C537 C535 1.374 . S
C537 C536 1.359 . S
C537 H558 0.931 . S
C538 C534 1.389 . S
C538 C536 1.364 . S
C538 H559 0.931 . S
C539 O550 1.256 . S
C539 O551 1.257 . S
O540 Gd520 2.377 . S
O540 C522 1.240 . S
O541 Gd521 2.395 . S
O541 C522 1.240 . S
O542 Gd520 2.448 . S
O542 C523 1.249 . S
O543 Gd520 2.506 . S
O543 C523 1.252 . S
O544 Gd520 2.435 . S
O544 C530 1.256 . S
O545 Gd520 2.717 . S
O545 Gd521 2.327 . S
O545 C530 1.257 . S
O546 Gd521 2.377 . S
O546 C531 1.240 . S
O547 Gd520 2.395 . S
O547 C531 1.240 . S
O548 Gd521 2.448 . S
O548 C532 1.249 . S
O549 Gd521 2.506 . S
O549 C532 1.252 . S
O550 Gd521 2.435 . S
O550 C539 1.256 . S
O551 Gd520 2.327 . S
O551 Gd521 2.717 . S
O551 C539 1.257 . S
H552 C525 0.930 . S
H553 C526 0.923 1_655 S
H554 C528 0.931 . S
H555 C529 0.931 . S
H556 C534 0.930 . S
H557 C535 0.931 . S
H558 C537 0.931 . S
H559 C538 0.931 . S
Gd560 C563 2.818 . S
Gd560 O580 2.377 . S
Gd560 O582 2.448 . S
Gd560 O583 2.506 . S
Gd560 O584 2.435 . S
Gd560 O585 2.717 . S
Gd560 O587 2.395 . S
Gd560 O591 2.327 . S
Gd561 C572 2.818 . S
Gd561 O581 2.395 1_455 S
Gd561 O585 2.327 1_455 S
Gd561 O586 2.377 . S
Gd561 O588 2.448 . S
Gd561 O589 2.506 . S
Gd561 O590 2.435 . S
Gd561 O591 2.717 1_455 S
C562 O580 1.240 . S
C562 O581 1.240 . S
C563 Gd560 2.818 . S
C563 C564 1.510 . S
C563 O582 1.249 . S
C563 O583 1.252 . S
C564 C563 1.510 . S
C564 C565 1.404 . S
C564 C566 1.352 . S
C565 C564 1.404 . S
C565 C569 1.389 . S
C565 H592 0.930 . S
C566 C564 1.352 . S
C566 C568 1.374 . S
C566 H593 0.931 . S
C567 C568 1.359 . S
C567 C569 1.364 . S
C568 C566 1.374 . S
C568 C567 1.359 . S
C568 H594 0.931 . S
C569 C565 1.389 . S
C569 C567 1.364 . S
C569 H595 0.931 . S
C570 O584 1.256 . S
C570 O585 1.257 . S
C571 O586 1.240 . S
C571 O587 1.240 1_455 S
C572 Gd561 2.818 . S
C572 C573 1.510 . S
C572 O588 1.249 . S
C572 O589 1.252 . S
C573 C572 1.510 . S
C573 C574 1.404 . S
C573 C575 1.352 . S
C574 C573 1.404 . S
C574 C578 1.389 . S
C574 H596 0.930 . S
C575 C573 1.352 . S
C575 C577 1.374 . S
C575 H597 0.931 . S
C576 C577 1.359 . S
C576 C578 1.364 . S
C577 C575 1.374 . S
C577 C576 1.359 . S
C577 H598 0.931 . S
C578 C574 1.389 . S
C578 C576 1.364 . S
C578 H599 0.931 . S
C579 O590 1.256 1_655 S
C579 O591 1.257 . S
O580 Gd560 2.377 . S
O580 C562 1.240 . S
O581 Gd561 2.395 1_655 S
O581 C562 1.240 . S
O582 Gd560 2.448 . S
O582 C563 1.249 . S
O583 Gd560 2.506 . S
O583 C563 1.252 . S
O584 Gd560 2.435 . S
O584 C570 1.256 . S
O585 Gd560 2.717 . S
O585 Gd561 2.327 1_655 S
O585 C570 1.257 . S
O586 Gd561 2.377 . S
O586 C571 1.240 . S
O587 Gd560 2.395 . S
O587 C571 1.240 1_655 S
O588 Gd561 2.448 . S
O588 C572 1.249 . S
O589 Gd561 2.506 . S
O589 C572 1.252 . S
O590 Gd561 2.435 . S
O590 C579 1.256 1_455 S
O591 Gd560 2.327 . S
O591 Gd561 2.717 1_655 S
O591 C579 1.257 . S
H592 C565 0.930 . S
H593 C566 0.931 . S
H594 C568 0.931 . S
H595 C569 0.931 . S
H596 C574 0.930 . S
H597 C575 0.931 . S
H598 C577 0.931 . S
H599 C578 0.931 . S
Gd600 C603 2.818 . S
Gd600 O620 2.377 1_545 S
Gd600 O622 2.448 . S
Gd600 O623 2.506 . S
Gd600 O624 2.435 . S
Gd600 O625 2.717 . S
Gd600 O627 2.395 . S
Gd600 O631 2.327 . S
Gd601 C612 2.828 . S
Gd601 O621 2.395 . S
Gd601 O625 2.327 1_565 S
Gd601 O626 2.377 1_565 S
Gd601 O628 2.448 . S
Gd601 O629 2.503 1_565 S
Gd601 O630 2.435 . S
Gd601 O631 2.717 1_565 S
C602 O620 1.240 . S
C602 O621 1.240 . S
C603 Gd600 2.818 . S
C603 C604 1.510 . S
C603 O622 1.249 . S
C603 O623 1.252 . S
C604 C603 1.510 . S
C604 C605 1.404 1_655 S
C604 C606 1.352 1_645 S
C605 C604 1.404 1_455 S
C605 C609 1.389 . S
C605 H632 0.930 . S
C606 C604 1.352 1_465 S
C606 C608 1.374 . S
C606 H633 0.923 1_455 S
C607 C608 1.359 . S
C607 C609 1.364 1_565 S
C608 C606 1.374 . S
C608 C607 1.359 . S
C608 H634 0.931 . S
C609 C605 1.389 . S
C609 C607 1.364 1_545 S
C609 H635 0.931 . S
C610 O624 1.256 . S
C610 O625 1.257 . S
C611 O626 1.240 . S
C611 O627 1.240 . S
C612 Gd601 2.828 . S
C612 C613 1.500 1_565 S
C612 O628 1.261 . S
C612 O629 1.250 1_565 S
C613 C612 1.500 1_545 S
C613 C614 1.404 . S
C613 C615 1.352 . S
C614 C613 1.404 . S
C614 C618 1.389 . S
C614 H636 0.930 1_545 S
C615 C613 1.352 . S
C615 C617 1.374 . S
C615 H637 0.931 . S
C616 C617 1.359 . S
C616 C618 1.364 . S
C617 C615 1.374 . S
C617 C616 1.359 . S
C617 H638 0.931 . S
C618 C614 1.389 . S
C618 C616 1.364 . S
C618 H639 0.931 . S
C619 O630 1.256 1_545 S
C619 O631 1.257 . S
O620 Gd600 2.377 1_565 S
O620 C602 1.240 . S
O621 Gd601 2.395 . S
O621 C602 1.240 . S
O622 Gd600 2.448 . S
O622 C603 1.249 . S
O623 Gd600 2.506 . S
O623 C603 1.252 . S
O624 Gd600 2.435 . S
O624 C610 1.256 . S
O625 Gd600 2.717 . S
O625 Gd601 2.327 1_545 S
O625 C610 1.257 . S
O626 Gd601 2.377 1_545 S
O626 C611 1.240 . S
O627 Gd600 2.395 . S
O627 C611 1.240 . S
O628 Gd601 2.448 . S
O628 C612 1.261 . S
O629 Gd601 2.503 1_545 S
O629 C612 1.250 1_545 S
O630 Gd601 2.435 . S
O630 C619 1.256 1_565 S
O631 Gd600 2.327 . S
O631 Gd601 2.717 1_545 S
O631 C619 1.257 . S
H632 C605 0.930 . S
H633 C606 0.923 1_655 S
H634 C608 0.931 . S
H635 C609 0.931 . S
H636 C614 0.930 1_565 S
H637 C615 0.931 . S
H638 C617 0.931 . S
H639 C618 0.931 . S
Gd640 C643 2.818 . S
Gd640 O660 2.377 . S
Gd640 O662 2.448 . S
Gd640 O663 2.506 . S
Gd640 O664 2.435 . S
Gd640 O665 2.717 . S
Gd640 O667 2.395 . S
Gd640 O671 2.327 . S
Gd641 C652 2.818 . S
Gd641 O661 2.395 . S
Gd641 O665 2.327 . S
Gd641 O666 2.377 . S
Gd641 O668 2.448 . S
Gd641 O669 2.506 . S
Gd641 O670 2.435 . S
Gd641 O671 2.717 . S
C642 O660 1.240 . S
C642 O661 1.240 . S
C643 Gd640 2.818 . S
C643 C644 1.510 . S
C643 O662 1.249 . S
C643 O663 1.252 . S
C644 C643 1.510 . S
C644 C645 1.404 . S
C644 C646 1.352 . S
C645 C644 1.404 . S
C645 C649 1.389 . S
C645 H672 0.930 . S
C646 C644 1.352 . S
C646 C648 1.374 . S
C646 H673 0.931 . S
C647 C648 1.359 . S
C647 C649 1.364 . S
C648 C646 1.374 . S
C648 C647 1.359 . S
C648 H674 0.931 . S
C649 C645 1.389 . S
C649 C647 1.364 . S
C649 H675 0.931 . S
C650 O664 1.256 . S
C650 O665 1.257 . S
C651 O666 1.240 . S
C651 O667 1.240 . S
C652 Gd641 2.818 . S
C652 C653 1.510 . S
C652 O668 1.249 . S
C652 O669 1.252 . S
C653 C652 1.510 . S
C653 C654 1.404 . S
C653 C655 1.352 . S
C654 C653 1.404 . S
C654 C658 1.389 . S
C654 H676 0.930 . S
C655 C653 1.352 . S
C655 C657 1.374 . S
C655 H677 0.931 . S
C656 C657 1.359 . S
C656 C658 1.364 . S
C657 C655 1.374 . S
C657 C656 1.359 . S
C657 H678 0.931 . S
C658 C654 1.389 . S
C658 C656 1.364 . S
C658 H679 0.931 . S
C659 O670 1.256 . S
C659 O671 1.257 . S
O660 Gd640 2.377 . S
O660 C642 1.240 . S
O661 Gd641 2.395 . S
O661 C642 1.240 . S
O662 Gd640 2.448 . S
O662 C643 1.249 . S
O663 Gd640 2.506 . S
O663 C643 1.252 . S
O664 Gd640 2.435 . S
O664 C650 1.256 . S
O665 Gd640 2.717 . S
O665 Gd641 2.327 . S
O665 C650 1.257 . S
O666 Gd641 2.377 . S
O666 C651 1.240 . S
O667 Gd640 2.395 . S
O667 C651 1.240 . S
O668 Gd641 2.448 . S
O668 C652 1.249 . S
O669 Gd641 2.506 . S
O669 C652 1.252 . S
O670 Gd641 2.435 . S
O670 C659 1.256 . S
O671 Gd640 2.327 . S
O671 Gd641 2.717 . S
O671 C659 1.257 . S
H672 C645 0.930 . S
H673 C646 0.931 . S
H674 C648 0.931 . S
H675 C649 0.931 . S
H676 C654 0.930 . S
H677 C655 0.931 . S
H678 C657 0.931 . S
H679 C658 0.931 . S
Gd680 C683 2.818 . S
Gd680 O700 2.377 . S
Gd680 O702 2.448 . S
Gd680 O703 2.506 . S
Gd680 O704 2.435 . S
Gd680 O705 2.717 . S
Gd680 O707 2.395 . S
Gd680 O711 2.327 . S
Gd681 C692 2.818 . S
Gd681 O701 2.395 . S
Gd681 O705 2.327 . S
Gd681 O706 2.377 . S
Gd681 O708 2.448 . S
Gd681 O709 2.506 . S
Gd681 O710 2.435 . S
Gd681 O711 2.717 . S
C682 O700 1.240 . S
C682 O701 1.240 . S
C683 Gd680 2.818 . S
C683 C684 1.510 . S
C683 O702 1.249 . S
C683 O703 1.252 . S
C684 C683 1.510 . S
C684 C685 1.404 . S
C684 C686 1.352 . S
C685 C684 1.404 . S
C685 C689 1.389 1_655 S
C685 H712 0.930 . S
C686 C684 1.352 . S
C686 C688 1.374 1_655 S
C686 H713 0.931 . S
C687 C688 1.359 . S
C687 C689 1.364 . S
C688 C686 1.374 1_455 S
C688 C687 1.359 . S
C688 H714 0.931 . S
C689 C685 1.389 1_455 S
C689 C687 1.364 . S
C689 H715 0.931 . S
C690 O704 1.256 . S
C690 O705 1.257 . S
C691 O706 1.240 . S
C691 O707 1.240 . S
C692 Gd681 2.818 . S
C692 C693 1.510 . S
C692 O708 1.249 . S
C692 O709 1.252 . S
C693 C692 1.510 . S
C693 C694 1.404 . S
C693 C695 1.352 . S
C694 C693 1.404 . S
C694 C698 1.389 . S
C694 H716 0.930 . S
C695 C693 1.352 . S
C695 C697 1.374 . S
C695 H717 0.931 . S
C696 C697 1.359 . S
C696 C698 1.364 . S
C697 C695 1.374 . S
C697 C696 1.359 . S
C697 H718 0.931 . S
C698 C694 1.389 . S
C698 C696 1.364 . S
C698 H719 0.931 . S
C699 O710 1.256 . S
C699 O711 1.257 . S
O700 Gd680 2.377 . S
O700 C682 1.240 . S
O701 Gd681 2.395 . S
O701 C682 1.240 . S
O702 Gd680 2.448 . S
O702 C683 1.249 . S
O703 Gd680 2.506 . S
O703 C683 1.252 . S
O704 Gd680 2.435 . S
O704 C690 1.256 . S
O705 Gd680 2.717 . S
O705 Gd681 2.327 . S
O705 C690 1.257 . S
O706 Gd681 2.377 . S
O706 C691 1.240 . S
O707 Gd680 2.395 . S
O707 C691 1.240 . S
O708 Gd681 2.448 . S
O708 C692 1.249 . S
O709 Gd681 2.506 . S
O709 C692 1.252 . S
O710 Gd681 2.435 . S
O710 C699 1.256 . S
O711 Gd680 2.327 . S
O711 Gd681 2.717 . S
O711 C699 1.257 . S
H712 C685 0.930 . S
H713 C686 0.931 . S
H714 C688 0.931 . S
H715 C689 0.931 . S
H716 C694 0.930 . S
H717 C695 0.931 . S
H718 C697 0.931 . S
H719 C698 0.931 . S
Gd720 C723 2.818 . S
Gd720 O740 2.377 . S
Gd720 O742 2.448 . S
Gd720 O743 2.506 . S
Gd720 O744 2.435 . S
Gd720 O745 2.717 . S
Gd720 O747 2.395 . S
Gd720 O751 2.327 . S
Gd721 C732 2.818 . S
Gd721 O741 2.395 . S
Gd721 O745 2.327 . S
Gd721 O746 2.377 . S
Gd721 O748 2.448 . S
Gd721 O749 2.506 . S
Gd721 O750 2.435 . S
Gd721 O751 2.717 . S
C722 O740 1.240 . S
C722 O741 1.240 . S
C723 Gd720 2.818 . S
C723 C724 1.510 . S
C723 O742 1.249 . S
C723 O743 1.252 . S
C724 C723 1.510 . S
C724 C725 1.404 . S
C724 C726 1.352 . S
C725 C724 1.404 . S
C725 C729 1.389 . S
C725 H752 0.930 . S
C726 C724 1.352 . S
C726 C728 1.374 . S
C726 H753 0.931 . S
C727 C728 1.359 . S
C727 C729 1.364 . S
C728 C726 1.374 . S
C728 C727 1.359 . S
C728 H754 0.931 . S
C729 C725 1.389 . S
C729 C727 1.364 . S
C729 H755 0.931 . S
C730 O744 1.256 . S
C730 O745 1.257 . S
C731 O746 1.240 . S
C731 O747 1.240 . S
C732 Gd721 2.818 . S
C732 C733 1.510 . S
C732 O748 1.249 . S
C732 O749 1.252 . S
C733 C732 1.510 . S
C733 C734 1.404 . S
C733 C735 1.352 . S
C734 C733 1.404 . S
C734 C738 1.389 . S
C734 H756 0.930 . S
C735 C733 1.352 . S
C735 C737 1.374 . S
C735 H757 0.931 . S
C736 C737 1.359 . S
C736 C738 1.364 . S
C737 C735 1.374 . S
C737 C736 1.359 . S
C737 H758 0.931 . S
C738 C734 1.389 . S
C738 C736 1.364 . S
C738 H759 0.931 . S
C739 O750 1.256 . S
C739 O751 1.257 . S
O740 Gd720 2.377 . S
O740 C722 1.240 . S
O741 Gd721 2.395 . S
O741 C722 1.240 . S
O742 Gd720 2.448 . S
O742 C723 1.249 . S
O743 Gd720 2.506 . S
O743 C723 1.252 . S
O744 Gd720 2.435 . S
O744 C730 1.256 . S
O745 Gd720 2.717 . S
O745 Gd721 2.327 . S
O745 C730 1.257 . S
O746 Gd721 2.377 . S
O746 C731 1.240 . S
O747 Gd720 2.395 . S
O747 C731 1.240 . S
O748 Gd721 2.448 . S
O748 C732 1.249 . S
O749 Gd721 2.506 . S
O749 C732 1.252 . S
O750 Gd721 2.435 . S
O750 C739 1.256 . S
O751 Gd720 2.327 . S
O751 Gd721 2.717 . S
O751 C739 1.257 . S
H752 C725 0.930 . S
H753 C726 0.931 . S
H754 C728 0.931 . S
H755 C729 0.931 . S
H756 C734 0.930 . S
H757 C735 0.931 . S
H758 C737 0.931 . S
H759 C738 0.931 . S
Gd760 C763 2.818 . S
Gd760 O780 2.377 . S
Gd760 O782 2.448 . S
Gd760 O783 2.506 . S
Gd760 O784 2.435 . S
Gd760 O785 2.717 . S
Gd760 O787 2.395 . S
Gd760 O791 2.327 . S
Gd761 C772 2.818 . S
Gd761 O781 2.395 . S
Gd761 O785 2.327 . S
Gd761 O786 2.377 . S
Gd761 O788 2.448 . S
Gd761 O789 2.506 . S
Gd761 O790 2.435 . S
Gd761 O791 2.717 . S
C762 O780 1.240 . S
C762 O781 1.240 . S
C763 Gd760 2.818 . S
C763 C764 1.510 . S
C763 O782 1.249 . S
C763 O783 1.252 . S
C764 C763 1.510 . S
C764 C765 1.404 . S
C764 C766 1.352 . S
C765 C764 1.404 . S
C765 C769 1.389 1_655 S
C765 H792 0.930 . S
C766 C764 1.352 . S
C766 C768 1.374 1_655 S
C766 H793 0.931 . S
C767 C768 1.359 . S
C767 C769 1.364 . S
C768 C766 1.374 1_455 S
C768 C767 1.359 . S
C768 H794 0.931 . S
C769 C765 1.389 1_455 S
C769 C767 1.364 . S
C769 H795 0.931 . S
C770 O784 1.256 . S
C770 O785 1.257 . S
C771 O786 1.240 . S
C771 O787 1.240 . S
C772 Gd761 2.818 . S
C772 C773 1.510 . S
C772 O788 1.249 . S
C772 O789 1.252 . S
C773 C772 1.510 . S
C773 C774 1.404 . S
C773 C775 1.352 . S
C774 C773 1.404 . S
C774 C778 1.389 . S
C774 H796 0.930 . S
C775 C773 1.352 . S
C775 C777 1.374 . S
C775 H797 0.931 . S
C776 C777 1.359 . S
C776 C778 1.364 . S
C777 C775 1.374 . S
C777 C776 1.359 . S
C777 H798 0.931 . S
C778 C774 1.389 . S
C778 C776 1.364 . S
C778 H799 0.931 . S
C779 O790 1.256 . S
C779 O791 1.257 . S
O780 Gd760 2.377 . S
O780 C762 1.240 . S
O781 Gd761 2.395 . S
O781 C762 1.240 . S
O782 Gd760 2.448 . S
O782 C763 1.249 . S
O783 Gd760 2.506 . S
O783 C763 1.252 . S
O784 Gd760 2.435 . S
O784 C770 1.256 . S
O785 Gd760 2.717 . S
O785 Gd761 2.327 . S
O785 C770 1.257 . S
O786 Gd761 2.377 . S
O786 C771 1.240 . S
O787 Gd760 2.395 . S
O787 C771 1.240 . S
O788 Gd761 2.448 . S
O788 C772 1.249 . S
O789 Gd761 2.506 . S
O789 C772 1.252 . S
O790 Gd761 2.435 . S
O790 C779 1.256 . S
O791 Gd760 2.327 . S
O791 Gd761 2.717 . S
O791 C779 1.257 . S
H792 C765 0.930 . S
H793 C766 0.931 . S
H794 C768 0.931 . S
H795 C769 0.931 . S
H796 C774 0.930 . S
H797 C775 0.931 . S
H798 C777 0.931 . S
H799 C778 0.931 . S
Gd800 C803 2.818 . S
Gd800 O820 2.377 . S
Gd800 O822 2.448 . S
Gd800 O823 2.506 . S
Gd800 O824 2.435 . S
Gd800 O825 2.717 . S
Gd800 O827 2.395 . S
Gd800 O831 2.327 . S
Gd801 C812 2.818 . S
Gd801 O821 2.395 . S
Gd801 O825 2.327 . S
Gd801 O826 2.377 . S
Gd801 O828 2.448 . S
Gd801 O829 2.506 . S
Gd801 O830 2.435 . S
Gd801 O831 2.717 . S
C802 O820 1.240 . S
C802 O821 1.240 . S
C803 Gd800 2.818 . S
C803 C804 1.510 . S
C803 O822 1.249 . S
C803 O823 1.252 . S
C804 C803 1.510 . S
C804 C805 1.404 . S
C804 C806 1.352 . S
C805 C804 1.404 . S
C805 C809 1.389 . S
C805 H832 0.930 . S
C806 C804 1.352 . S
C806 C808 1.374 . S
C806 H833 0.931 . S
C807 C808 1.359 . S
C807 C809 1.364 . S
C808 C806 1.374 . S
C808 C807 1.359 . S
C808 H834 0.931 . S
C809 C805 1.389 . S
C809 C807 1.364 . S
C809 H835 0.931 . S
C810 O824 1.256 . S
C810 O825 1.257 . S
C811 O826 1.240 . S
C811 O827 1.240 . S
C812 Gd801 2.818 . S
C812 C813 1.510 . S
C812 O828 1.249 . S
C812 O829 1.252 . S
C813 C812 1.510 . S
C813 C814 1.404 . S
C813 C815 1.352 . S
C814 C813 1.404 . S
C814 C818 1.389 . S
C814 H836 0.930 . S
C815 C813 1.352 . S
C815 C817 1.374 . S
C815 H837 0.931 . S
C816 C817 1.359 . S
C816 C818 1.364 . S
C817 C815 1.374 . S
C817 C816 1.359 . S
C817 H838 0.931 . S
C818 C814 1.389 . S
C818 C816 1.364 . S
C818 H839 0.931 . S
C819 O830 1.256 . S
C819 O831 1.257 . S
O820 Gd800 2.377 . S
O820 C802 1.240 . S
O821 Gd801 2.395 . S
O821 C802 1.240 . S
O822 Gd800 2.448 . S
O822 C803 1.249 . S
O823 Gd800 2.506 . S
O823 C803 1.252 . S
O824 Gd800 2.435 . S
O824 C810 1.256 . S
O825 Gd800 2.717 . S
O825 Gd801 2.327 . S
O825 C810 1.257 . S
O826 Gd801 2.377 . S
O826 C811 1.240 . S
O827 Gd800 2.395 . S
O827 C811 1.240 . S
O828 Gd801 2.448 . S
O828 C812 1.249 . S
O829 Gd801 2.506 . S
O829 C812 1.252 . S
O830 Gd801 2.435 . S
O830 C819 1.256 . S
O831 Gd800 2.327 . S
O831 Gd801 2.717 . S
O831 C819 1.257 . S
H832 C805 0.930 . S
H833 C806 0.931 . S
H834 C808 0.931 . S
H835 C809 0.931 . S
H836 C814 0.930 . S
H837 C815 0.931 . S
H838 C817 0.931 . S
H839 C818 0.931 . S
Gd840 C843 2.818 . S
Gd840 O860 2.377 . S
Gd840 O862 2.448 . S
Gd840 O863 2.506 . S
Gd840 O864 2.435 . S
Gd840 O865 2.717 . S
Gd840 O867 2.395 . S
Gd840 O871 2.327 . S
Gd841 C852 2.818 . S
Gd841 O861 2.395 . S
Gd841 O865 2.327 . S
Gd841 O866 2.377 . S
Gd841 O868 2.448 . S
Gd841 O869 2.506 . S
Gd841 O870 2.435 . S
Gd841 O871 2.717 . S
C842 O860 1.240 . S
C842 O861 1.240 . S
C843 Gd840 2.818 . S
C843 C844 1.510 . S
C843 O862 1.249 . S
C843 O863 1.252 . S
C844 C843 1.510 . S
C844 C845 1.404 . S
C844 C846 1.352 . S
C845 C844 1.404 . S
C845 C849 1.389 . S
C845 H872 0.930 . S
C846 C844 1.352 . S
C846 C848 1.374 . S
C846 H873 0.931 . S
C847 C848 1.359 . S
C847 C849 1.364 . S
C848 C846 1.374 . S
C848 C847 1.359 . S
C848 H874 0.931 . S
C849 C845 1.389 . S
C849 C847 1.364 . S
C849 H875 0.931 . S
C850 O864 1.256 . S
C850 O865 1.257 . S
C851 O866 1.240 . S
C851 O867 1.240 . S
C852 Gd841 2.818 . S
C852 C853 1.510 . S
C852 O868 1.249 . S
C852 O869 1.252 . S
C853 C852 1.510 . S
C853 C854 1.404 . S
C853 C855 1.352 . S
C854 C853 1.404 . S
C854 C858 1.389 1_455 S
C854 H876 0.930 . S
C855 C853 1.352 . S
C855 C857 1.374 1_455 S
C855 H877 0.931 . S
C856 C857 1.359 . S
C856 C858 1.364 . S
C857 C855 1.374 1_655 S
C857 C856 1.359 . S
C857 H878 0.931 . S
C858 C854 1.389 1_655 S
C858 C856 1.364 . S
C858 H879 0.931 . S
C859 O870 1.256 . S
C859 O871 1.257 . S
O860 Gd840 2.377 . S
O860 C842 1.240 . S
O861 Gd841 2.395 . S
O861 C842 1.240 . S
O862 Gd840 2.448 . S
O862 C843 1.249 . S
O863 Gd840 2.506 . S
O863 C843 1.252 . S
O864 Gd840 2.435 . S
O864 C850 1.256 . S
O865 Gd840 2.717 . S
O865 Gd841 2.327 . S
O865 C850 1.257 . S
O866 Gd841 2.377 . S
O866 C851 1.240 . S
O867 Gd840 2.395 . S
O867 C851 1.240 . S
O868 Gd841 2.448 . S
O868 C852 1.249 . S
O869 Gd841 2.506 . S
O869 C852 1.252 . S
O870 Gd841 2.435 . S
O870 C859 1.256 . S
O871 Gd840 2.327 . S
O871 Gd841 2.717 . S
O871 C859 1.257 . S
H872 C845 0.930 . S
H873 C846 0.931 . S
H874 C848 0.931 . S
H875 C849 0.931 . S
H876 C854 0.930 . S
H877 C855 0.931 . S
H878 C857 0.931 . S
H879 C858 0.931 . S
Gd880 C883 2.818 . S
Gd880 O900 2.377 . S
Gd880 O902 2.448 . S
Gd880 O903 2.506 . S
Gd880 O904 2.435 . S
Gd880 O905 2.717 . S
Gd880 O907 2.395 . S
Gd880 O911 2.327 . S
Gd881 C892 2.818 . S
Gd881 O901 2.395 . S
Gd881 O905 2.327 . S
Gd881 O906 2.377 . S
Gd881 O908 2.448 . S
Gd881 O909 2.506 . S
Gd881 O910 2.435 . S
Gd881 O911 2.717 . S
C882 O900 1.240 . S
C882 O901 1.240 . S
C883 Gd880 2.818 . S
C883 C884 1.510 . S
C883 O902 1.249 . S
C883 O903 1.252 . S
C884 C883 1.510 . S
C884 C885 1.404 . S
C884 C886 1.352 . S
C885 C884 1.404 . S
C885 C889 1.389 . S
C885 H912 0.930 . S
C886 C884 1.352 . S
C886 C888 1.374 . S
C886 H913 0.931 . S
C887 C888 1.359 . S
C887 C889 1.364 . S
C888 C886 1.374 . S
C888 C887 1.359 . S
C888 H914 0.931 . S
C889 C885 1.389 . S
C889 C887 1.364 . S
C889 H915 0.931 . S
C890 O904 1.256 . S
C890 O905 1.257 . S
C891 O906 1.240 . S
C891 O907 1.240 . S
C892 Gd881 2.818 . S
C892 C893 1.510 . S
C892 O908 1.249 . S
C892 O909 1.252 . S
C893 C892 1.510 . S
C893 C894 1.404 . S
C893 C895 1.352 . S
C894 C893 1.404 . S
C894 C898 1.389 . S
C894 H916 0.930 . S
C895 C893 1.352 . S
C895 C897 1.374 . S
C895 H917 0.931 . S
C896 C897 1.359 . S
C896 C898 1.364 . S
C897 C895 1.374 . S
C897 C896 1.359 . S
C897 H918 0.931 . S
C898 C894 1.389 . S
C898 C896 1.364 . S
C898 H919 0.931 . S
C899 O910 1.256 . S
C899 O911 1.257 . S
O900 Gd880 2.377 . S
O900 C882 1.240 . S
O901 Gd881 2.395 . S
O901 C882 1.240 . S
O902 Gd880 2.448 . S
O902 C883 1.249 . S
O903 Gd880 2.506 . S
O903 C883 1.252 . S
O904 Gd880 2.435 . S
O904 C890 1.256 . S
O905 Gd880 2.717 . S
O905 Gd881 2.327 . S
O905 C890 1.257 . S
O906 Gd881 2.377 . S
O906 C891 1.240 . S
O907 Gd880 2.395 . S
O907 C891 1.240 . S
O908 Gd881 2.448 . S
O908 C892 1.249 . S
O909 Gd881 2.506 . S
O909 C892 1.252 . S
O910 Gd881 2.435 . S
O910 C899 1.256 . S
O911 Gd880 2.327 . S
O911 Gd881 2.717 . S
O911 C899 1.257 . S
H912 C885 0.930 . S
H913 C886 0.931 . S
H914 C888 0.931 . S
H915 C889 0.931 . S
H916 C894 0.930 . S
H917 C895 0.931 . S
H918 C897 0.931 . S
H919 C898 0.931 . S
Gd920 C923 2.818 . S
Gd920 O940 2.377 . S
Gd920 O942 2.448 . S
Gd920 O943 2.506 . S
Gd920 O944 2.435 . S
Gd920 O945 2.717 . S
Gd920 O947 2.395 . S
Gd920 O951 2.327 . S
Gd921 C932 2.818 . S
Gd921 O941 2.395 . S
Gd921 O945 2.327 . S
Gd921 O946 2.377 . S
Gd921 O948 2.448 . S
Gd921 O949 2.506 . S
Gd921 O950 2.435 . S
Gd921 O951 2.717 . S
C922 O940 1.240 . S
C922 O941 1.240 . S
C923 Gd920 2.818 . S
C923 C924 1.510 . S
C923 O942 1.249 . S
C923 O943 1.252 . S
C924 C923 1.510 . S
C924 C925 1.404 . S
C924 C926 1.352 . S
C925 C924 1.404 . S
C925 C929 1.389 . S
C925 H952 0.930 . S
C926 C924 1.352 . S
C926 C928 1.374 . S
C926 H953 0.931 . S
C927 C928 1.359 . S
C927 C929 1.364 . S
C928 C926 1.374 . S
C928 C927 1.359 . S
C928 H954 0.931 . S
C929 C925 1.389 . S
C929 C927 1.364 . S
C929 H955 0.931 . S
C930 O944 1.256 . S
C930 O945 1.257 . S
C931 O946 1.240 . S
C931 O947 1.240 . S
C932 Gd921 2.818 . S
C932 C933 1.510 . S
C932 O948 1.249 . S
C932 O949 1.252 . S
C933 C932 1.510 . S
C933 C934 1.404 . S
C933 C935 1.352 . S
C934 C933 1.404 . S
C934 C938 1.389 1_455 S
C934 H956 0.930 . S
C935 C933 1.352 . S
C935 C937 1.374 1_455 S
C935 H957 0.931 . S
C936 C937 1.359 . S
C936 C938 1.364 . S
C937 C935 1.374 1_655 S
C937 C936 1.359 . S
C937 H958 0.931 . S
C938 C934 1.389 1_655 S
C938 C936 1.364 . S
C938 H959 0.931 . S
C939 O950 1.256 . S
C939 O951 1.257 . S
O940 Gd920 2.377 . S
O940 C922 1.240 . S
O941 Gd921 2.395 . S
O941 C922 1.240 . S
O942 Gd920 2.448 . S
O942 C923 1.249 . S
O943 Gd920 2.506 . S
O943 C923 1.252 . S
O944 Gd920 2.435 . S
O944 C930 1.256 . S
O945 Gd920 2.717 . S
O945 Gd921 2.327 . S
O945 C930 1.257 . S
O946 Gd921 2.377 . S
O946 C931 1.240 . S
O947 Gd920 2.395 . S
O947 C931 1.240 . S
O948 Gd921 2.448 . S
O948 C932 1.249 . S
O949 Gd921 2.506 . S
O949 C932 1.252 . S
O950 Gd921 2.435 . S
O950 C939 1.256 . S
O951 Gd920 2.327 . S
O951 Gd921 2.717 . S
O951 C939 1.257 . S
H952 C925 0.930 . S
H953 C926 0.931 . S
H954 C928 0.931 . S
H955 C929 0.931 . S
H956 C934 0.930 . S
H957 C935 0.931 . S
H958 C937 0.931 . S
H959 C938 0.931 . S
Gd960 C963 2.828 . S
Gd960 O980 2.377 1_545 S
Gd960 O982 2.448 . S
Gd960 O983 2.503 1_545 S
Gd960 O984 2.435 . S
Gd960 O985 2.717 1_545 S
Gd960 O987 2.395 . S
Gd960 O991 2.327 1_545 S
Gd961 C972 2.818 . S
Gd961 O981 2.395 . S
Gd961 O985 2.327 . S
Gd961 O986 2.377 1_565 S
Gd961 O988 2.448 . S
Gd961 O989 2.506 . S
Gd961 O990 2.435 . S
Gd961 O991 2.717 . S
C962 O980 1.240 . S
C962 O981 1.240 . S
C963 Gd960 2.828 . S
C963 C964 1.500 1_545 S
C963 O982 1.261 . S
C963 O983 1.250 1_545 S
C964 C963 1.500 1_565 S
C964 C965 1.404 . S
C964 C966 1.352 . S
C965 C964 1.404 . S
C965 C969 1.389 . S
C965 H992 0.930 1_565 S
C966 C964 1.352 . S
C966 C968 1.374 . S
C966 H993 0.931 . S
C967 C968 1.359 . S
C967 C969 1.364 . S
C968 C966 1.374 . S
C968 C967 1.359 . S
C968 H994 0.931 . S
C969 C965 1.389 . S
C969 C967 1.364 . S
C969 H995 0.931 . S
C970 O984 1.256 1_565 S
C970 O985 1.257 . S
C971 O986 1.240 . S
C971 O987 1.240 . S
C972 Gd961 2.818 . S
C972 C973 1.510 . S
C972 O988 1.249 . S
C972 O989 1.252 . S
C973 C972 1.510 . S
C973 C974 1.404 . S
C973 C975 1.352 1_565 S
C974 C973 1.404 . S
C974 C978 1.389 . S
C974 H996 0.930 . S
C975 C973 1.352 1_545 S
C975 C977 1.374 . S
C975 H997 0.931 . S
C976 C977 1.359 . S
C976 C978 1.364 1_545 S
C977 C975 1.374 . S
C977 C976 1.359 . S
C977 H998 0.931 . S
C978 C974 1.389 . S
C978 C976 1.364 1_565 S
C978 H999 0.931 . S
C979 O990 1.256 . S
C979 O991 1.257 . S
O980 Gd960 2.377 1_565 S
O980 C962 1.240 . S
O981 Gd961 2.395 . S
O981 C962 1.240 . S
O982 Gd960 2.448 . S
O982 C963 1.261 . S
O983 Gd960 2.503 1_565 S
O983 C963 1.250 1_565 S
O984 Gd960 2.435 . S
O984 C970 1.256 1_545 S
O985 Gd960 2.717 1_565 S
O985 Gd961 2.327 . S
O985 C970 1.257 . S
O986 Gd961 2.377 1_545 S
O986 C971 1.240 . S
O987 Gd960 2.395 . S
O987 C971 1.240 . S
O988 Gd961 2.448 . S
O988 C972 1.249 . S
O989 Gd961 2.506 . S
O989 C972 1.252 . S
O990 Gd961 2.435 . S
O990 C979 1.256 . S
O991 Gd960 2.327 1_565 S
O991 Gd961 2.717 . S
O991 C979 1.257 . S
H992 C965 0.930 1_545 S
H993 C966 0.931 . S
H994 C968 0.931 . S
H995 C969 0.931 . S
H996 C974 0.930 . S
H997 C975 0.931 . S
H998 C977 0.931 . S
H999 C978 0.931 . S
Gd1000 C1003 2.818 . S
Gd1000 O1020 2.377 . S
Gd1000 O1022 2.448 . S
Gd1000 O1023 2.506 . S
Gd1000 O1024 2.435 . S
Gd1000 O1025 2.717 . S
Gd1000 O1027 2.395 . S
Gd1000 O1031 2.327 . S
Gd1001 C1012 2.818 . S
Gd1001 O1021 2.395 . S
Gd1001 O1025 2.327 . S
Gd1001 O1026 2.377 . S
Gd1001 O1028 2.448 . S
Gd1001 O1029 2.506 . S
Gd1001 O1030 2.435 . S
Gd1001 O1031 2.717 . S
C1002 O1020 1.240 . S
C1002 O1021 1.240 . S
C1003 Gd1000 2.818 . S
C1003 C1004 1.510 . S
C1003 O1022 1.249 . S
C1003 O1023 1.252 . S
C1004 C1003 1.510 . S
C1004 C1005 1.404 . S
C1004 C1006 1.352 . S
C1005 C1004 1.404 . S
C1005 C1009 1.389 1_655 S
C1005 H1032 0.930 . S
C1006 C1004 1.352 . S
C1006 C1008 1.374 1_655 S
C1006 H1033 0.931 . S
C1007 C1008 1.359 . S
C1007 C1009 1.364 . S
C1008 C1006 1.374 1_455 S
C1008 C1007 1.359 . S
C1008 H1034 0.931 . S
C1009 C1005 1.389 1_455 S
C1009 C1007 1.364 . S
C1009 H1035 0.931 . S
C1010 O1024 1.256 . S
C1010 O1025 1.257 . S
C1011 O1026 1.240 . S
C1011 O1027 1.240 . S
C1012 Gd1001 2.818 . S
C1012 C1013 1.510 . S
C1012 O1028 1.249 . S
C1012 O1029 1.252 . S
C1013 C1012 1.510 . S
C1013 C1014 1.404 . S
C1013 C1015 1.352 . S
C1014 C1013 1.404 . S
C1014 C1018 1.389 . S
C1014 H1036 0.930 . S
C1015 C1013 1.352 . S
C1015 C1017 1.374 . S
C1015 H1037 0.931 . S
C1016 C1017 1.359 . S
C1016 C1018 1.364 . S
C1017 C1015 1.374 . S
C1017 C1016 1.359 . S
C1017 H1038 0.931 . S
C1018 C1014 1.389 . S
C1018 C1016 1.364 . S
C1018 H1039 0.931 . S
C1019 O1030 1.256 . S
C1019 O1031 1.257 . S
O1020 Gd1000 2.377 . S
O1020 C1002 1.240 . S
O1021 Gd1001 2.395 . S
O1021 C1002 1.240 . S
O1022 Gd1000 2.448 . S
O1022 C1003 1.249 . S
O1023 Gd1000 2.506 . S
O1023 C1003 1.252 . S
O1024 Gd1000 2.435 . S
O1024 C1010 1.256 . S
O1025 Gd1000 2.717 . S
O1025 Gd1001 2.327 . S
O1025 C1010 1.257 . S
O1026 Gd1001 2.377 . S
O1026 C1011 1.240 . S
O1027 Gd1000 2.395 . S
O1027 C1011 1.240 . S
O1028 Gd1001 2.448 . S
O1028 C1012 1.249 . S
O1029 Gd1001 2.506 . S
O1029 C1012 1.252 . S
O1030 Gd1001 2.435 . S
O1030 C1019 1.256 . S
O1031 Gd1000 2.327 . S
O1031 Gd1001 2.717 . S
O1031 C1019 1.257 . S
H1032 C1005 0.930 . S
H1033 C1006 0.931 . S
H1034 C1008 0.931 . S
H1035 C1009 0.931 . S
H1036 C1014 0.930 . S
H1037 C1015 0.931 . S
H1038 C1017 0.931 . S
H1039 C1018 0.931 . S
Gd1040 C1043 2.818 . S
Gd1040 O1060 2.377 . S
Gd1040 O1062 2.448 . S
Gd1040 O1063 2.506 . S
Gd1040 O1064 2.435 . S
Gd1040 O1065 2.717 . S
Gd1040 O1067 2.395 . S
Gd1040 O1071 2.327 . S
Gd1041 C1052 2.818 . S
Gd1041 O1061 2.395 . S
Gd1041 O1065 2.327 . S
Gd1041 O1066 2.377 . S
Gd1041 O1068 2.448 . S
Gd1041 O1069 2.506 . S
Gd1041 O1070 2.435 . S
Gd1041 O1071 2.717 . S
C1042 O1060 1.240 . S
C1042 O1061 1.240 . S
C1043 Gd1040 2.818 . S
C1043 C1044 1.510 . S
C1043 O1062 1.249 . S
C1043 O1063 1.252 . S
C1044 C1043 1.510 . S
C1044 C1045 1.404 . S
C1044 C1046 1.352 . S
C1045 C1044 1.404 . S
C1045 C1049 1.389 . S
C1045 H1072 0.930 . S
C1046 C1044 1.352 . S
C1046 C1048 1.374 . S
C1046 H1073 0.931 . S
C1047 C1048 1.359 . S
C1047 C1049 1.364 . S
C1048 C1046 1.374 . S
C1048 C1047 1.359 . S
C1048 H1074 0.931 . S
C1049 C1045 1.389 . S
C1049 C1047 1.364 . S
C1049 H1075 0.931 . S
C1050 O1064 1.256 . S
C1050 O1065 1.257 . S
C1051 O1066 1.240 . S
C1051 O1067 1.240 . S
C1052 Gd1041 2.818 . S
C1052 C1053 1.510 . S
C1052 O1068 1.249 . S
C1052 O1069 1.252 . S
C1053 C1052 1.510 . S
C1053 C1054 1.404 . S
C1053 C1055 1.352 . S
C1054 C1053 1.404 . S
C1054 C1058 1.389 . S
C1054 H1076 0.930 . S
C1055 C1053 1.352 . S
C1055 C1057 1.374 . S
C1055 H1077 0.931 . S
C1056 C1057 1.359 . S
C1056 C1058 1.364 . S
C1057 C1055 1.374 . S
C1057 C1056 1.359 . S
C1057 H1078 0.931 . S
C1058 C1054 1.389 . S
C1058 C1056 1.364 . S
C1058 H1079 0.931 . S
C1059 O1070 1.256 . S
C1059 O1071 1.257 . S
O1060 Gd1040 2.377 . S
O1060 C1042 1.240 . S
O1061 Gd1041 2.395 . S
O1061 C1042 1.240 . S
O1062 Gd1040 2.448 . S
O1062 C1043 1.249 . S
O1063 Gd1040 2.506 . S
O1063 C1043 1.252 . S
O1064 Gd1040 2.435 . S
O1064 C1050 1.256 . S
O1065 Gd1040 2.717 . S
O1065 Gd1041 2.327 . S
O1065 C1050 1.257 . S
O1066 Gd1041 2.377 . S
O1066 C1051 1.240 . S
O1067 Gd1040 2.395 . S
O1067 C1051 1.240 . S
O1068 Gd1041 2.448 . S
O1068 C1052 1.249 . S
O1069 Gd1041 2.506 . S
O1069 C1052 1.252 . S
O1070 Gd1041 2.435 . S
O1070 C1059 1.256 . S
O1071 Gd1040 2.327 . S
O1071 Gd1041 2.717 . S
O1071 C1059 1.257 . S
H1072 C1045 0.930 . S
H1073 C1046 0.931 . S
H1074 C1048 0.931 . S
H1075 C1049 0.931 . S
H1076 C1054 0.930 . S
H1077 C1055 0.931 . S
H1078 C1057 0.931 . S
H1079 C1058 0.931 . S
Gd1080 C1083 2.828 . S
Gd1080 O1100 2.377 1_545 S
Gd1080 O1102 2.448 . S
Gd1080 O1103 2.503 1_545 S
Gd1080 O1104 2.435 . S
Gd1080 O1105 2.717 1_545 S
Gd1080 O1107 2.395 . S
Gd1080 O1111 2.327 1_545 S
Gd1081 C1092 2.818 . S
Gd1081 O1101 2.395 . S
Gd1081 O1105 2.327 . S
Gd1081 O1106 2.377 1_565 S
Gd1081 O1108 2.448 . S
Gd1081 O1109 2.506 . S
Gd1081 O1110 2.435 . S
Gd1081 O1111 2.717 . S
C1082 O1100 1.240 . S
C1082 O1101 1.240 . S
C1083 Gd1080 2.828 . S
C1083 C1084 1.500 1_545 S
C1083 O1102 1.261 . S
C1083 O1103 1.250 1_545 S
C1084 C1083 1.500 1_565 S
C1084 C1085 1.404 . S
C1084 C1086 1.352 . S
C1085 C1084 1.404 . S
C1085 C1089 1.389 1_655 S
C1085 H1112 0.930 1_565 S
C1086 C1084 1.352 . S
C1086 C1088 1.374 1_655 S
C1086 H1113 0.931 . S
C1087 C1088 1.359 . S
C1087 C1089 1.364 . S
C1088 C1086 1.374 1_455 S
C1088 C1087 1.359 . S
C1088 H1114 0.931 . S
C1089 C1085 1.389 1_455 S
C1089 C1087 1.364 . S
C1089 H1115 0.931 . S
C1090 O1104 1.256 1_565 S
C1090 O1105 1.257 . S
C1091 O1106 1.240 . S
C1091 O1107 1.240 . S
C1092 Gd1081 2.818 . S
C1092 C1093 1.510 . S
C1092 O1108 1.249 . S
C1092 O1109 1.252 . S
C1093 C1092 1.510 . S
C1093 C1094 1.404 . S
C1093 C1095 1.352 1_565 S
C1094 C1093 1.404 . S
C1094 C1098 1.389 . S
C1094 H1116 0.930 . S
C1095 C1093 1.352 1_545 S
C1095 C1097 1.374 . S
C1095 H1117 0.931 . S
C1096 C1097 1.359 . S
C1096 C1098 1.364 1_545 S
C1097 C1095 1.374 . S
C1097 C1096 1.359 . S
C1097 H1118 0.931 . S
C1098 C1094 1.389 . S
C1098 C1096 1.364 1_565 S
C1098 H1119 0.931 . S
C1099 O1110 1.256 . S
C1099 O1111 1.257 . S
O1100 Gd1080 2.377 1_565 S
O1100 C1082 1.240 . S
O1101 Gd1081 2.395 . S
O1101 C1082 1.240 . S
O1102 Gd1080 2.448 . S
O1102 C1083 1.261 . S
O1103 Gd1080 2.503 1_565 S
O1103 C1083 1.250 1_565 S
O1104 Gd1080 2.435 . S
O1104 C1090 1.256 1_545 S
O1105 Gd1080 2.717 1_565 S
O1105 Gd1081 2.327 . S
O1105 C1090 1.257 . S
O1106 Gd1081 2.377 1_545 S
O1106 C1091 1.240 . S
O1107 Gd1080 2.395 . S
O1107 C1091 1.240 . S
O1108 Gd1081 2.448 . S
O1108 C1092 1.249 . S
O1109 Gd1081 2.506 . S
O1109 C1092 1.252 . S
O1110 Gd1081 2.435 . S
O1110 C1099 1.256 . S
O1111 Gd1080 2.327 1_565 S
O1111 Gd1081 2.717 . S
O1111 C1099 1.257 . S
H1112 C1085 0.930 1_545 S
H1113 C1086 0.931 . S
H1114 C1088 0.931 . S
H1115 C1089 0.931 . S
H1116 C1094 0.930 . S
H1117 C1095 0.931 . S
H1118 C1097 0.931 . S
H1119 C1098 0.931 . S
Gd1120 C1123 2.818 . S
Gd1120 O1140 2.377 1_545 S
Gd1120 O1142 2.448 . S
Gd1120 O1143 2.506 . S
Gd1120 O1144 2.435 . S
Gd1120 O1145 2.717 . S
Gd1120 O1147 2.395 . S
Gd1120 O1151 2.327 . S
Gd1121 C1132 2.828 . S
Gd1121 O1141 2.395 . S
Gd1121 O1145 2.327 1_565 S
Gd1121 O1146 2.377 1_565 S
Gd1121 O1148 2.448 . S
Gd1121 O1149 2.503 1_565 S
Gd1121 O1150 2.435 . S
Gd1121 O1151 2.717 1_565 S
C1122 O1140 1.240 . S
C1122 O1141 1.240 . S
C1123 Gd1120 2.818 . S
C1123 C1124 1.510 . S
C1123 O1142 1.249 . S
C1123 O1143 1.252 . S
C1124 C1123 1.510 . S
C1124 C1125 1.404 . S
C1124 C1126 1.352 1_545 S
C1125 C1124 1.404 . S
C1125 C1129 1.389 . S
C1125 H1152 0.930 . S
C1126 C1124 1.352 1_565 S
C1126 C1128 1.374 . S
C1126 H1153 0.931 . S
C1127 C1128 1.359 . S
C1127 C1129 1.364 1_565 S
C1128 C1126 1.374 . S
C1128 C1127 1.359 . S
C1128 H1154 0.931 . S
C1129 C1125 1.389 . S
C1129 C1127 1.364 1_545 S
C1129 H1155 0.931 . S
C1130 O1144 1.256 . S
C1130 O1145 1.257 . S
C1131 O1146 1.240 . S
C1131 O1147 1.240 . S
C1132 Gd1121 2.828 . S
C1132 C1133 1.500 1_565 S
C1132 O1148 1.261 . S
C1132 O1149 1.250 1_565 S
C1133 C1132 1.500 1_545 S
C1133 C1134 1.404 . S
C1133 C1135 1.352 . S
C1134 C1133 1.404 . S
C1134 C1138 1.389 . S
C1134 H1156 0.930 1_545 S
C1135 C1133 1.352 . S
C1135 C1137 1.374 . S
C1135 H1157 0.931 . S
C1136 C1137 1.359 . S
C1136 C1138 1.364 . S
C1137 C1135 1.374 . S
C1137 C1136 1.359 . S
C1137 H1158 0.931 . S
C1138 C1134 1.389 . S
C1138 C1136 1.364 . S
C1138 H1159 0.931 . S
C1139 O1150 1.256 1_545 S
C1139 O1151 1.257 . S
O1140 Gd1120 2.377 1_565 S
O1140 C1122 1.240 . S
O1141 Gd1121 2.395 . S
O1141 C1122 1.240 . S
O1142 Gd1120 2.448 . S
O1142 C1123 1.249 . S
O1143 Gd1120 2.506 . S
O1143 C1123 1.252 . S
O1144 Gd1120 2.435 . S
O1144 C1130 1.256 . S
O1145 Gd1120 2.717 . S
O1145 Gd1121 2.327 1_545 S
O1145 C1130 1.257 . S
O1146 Gd1121 2.377 1_545 S
O1146 C1131 1.240 . S
O1147 Gd1120 2.395 . S
O1147 C1131 1.240 . S
O1148 Gd1121 2.448 . S
O1148 C1132 1.261 . S
O1149 Gd1121 2.503 1_545 S
O1149 C1132 1.250 1_545 S
O1150 Gd1121 2.435 . S
O1150 C1139 1.256 1_565 S
O1151 Gd1120 2.327 . S
O1151 Gd1121 2.717 1_545 S
O1151 C1139 1.257 . S
H1152 C1125 0.930 . S
H1153 C1126 0.931 . S
H1154 C1128 0.931 . S
H1155 C1129 0.931 . S
H1156 C1134 0.930 1_565 S
H1157 C1135 0.931 . S
H1158 C1137 0.931 . S
H1159 C1138 0.931 . S
Gd1160 C1163 2.818 . S
Gd1160 O1180 2.377 . S
Gd1160 O1182 2.448 . S
Gd1160 O1183 2.506 . S
Gd1160 O1184 2.435 . S
Gd1160 O1185 2.717 . S
Gd1160 O1187 2.395 . S
Gd1160 O1191 2.327 . S
Gd1161 C1172 2.818 . S
Gd1161 O1181 2.395 . S
Gd1161 O1185 2.327 . S
Gd1161 O1186 2.377 . S
Gd1161 O1188 2.448 . S
Gd1161 O1189 2.506 . S
Gd1161 O1190 2.435 . S
Gd1161 O1191 2.717 . S
C1162 O1180 1.240 . S
C1162 O1181 1.240 . S
C1163 Gd1160 2.818 . S
C1163 C1164 1.510 . S
C1163 O1182 1.249 . S
C1163 O1183 1.252 . S
C1164 C1163 1.510 . S
C1164 C1165 1.404 . S
C1164 C1166 1.352 . S
C1165 C1164 1.404 . S
C1165 C1169 1.389 . S
C1165 H1192 0.930 . S
C1166 C1164 1.352 . S
C1166 C1168 1.374 . S
C1166 H1193 0.931 . S
C1167 C1168 1.359 . S
C1167 C1169 1.364 . S
C1168 C1166 1.374 . S
C1168 C1167 1.359 . S
C1168 H1194 0.931 . S
C1169 C1165 1.389 . S
C1169 C1167 1.364 . S
C1169 H1195 0.931 . S
C1170 O1184 1.256 . S
C1170 O1185 1.257 . S
C1171 O1186 1.240 . S
C1171 O1187 1.240 . S
C1172 Gd1161 2.818 . S
C1172 C1173 1.510 . S
C1172 O1188 1.249 . S
C1172 O1189 1.252 . S
C1173 C1172 1.510 . S
C1173 C1174 1.404 . S
C1173 C1175 1.352 . S
C1174 C1173 1.404 . S
C1174 C1178 1.389 1_455 S
C1174 H1196 0.930 . S
C1175 C1173 1.352 . S
C1175 C1177 1.374 1_455 S
C1175 H1197 0.931 . S
C1176 C1177 1.359 . S
C1176 C1178 1.364 . S
C1177 C1175 1.374 1_655 S
C1177 C1176 1.359 . S
C1177 H1198 0.931 . S
C1178 C1174 1.389 1_655 S
C1178 C1176 1.364 . S
C1178 H1199 0.931 . S
C1179 O1190 1.256 . S
C1179 O1191 1.257 . S
O1180 Gd1160 2.377 . S
O1180 C1162 1.240 . S
O1181 Gd1161 2.395 . S
O1181 C1162 1.240 . S
O1182 Gd1160 2.448 . S
O1182 C1163 1.249 . S
O1183 Gd1160 2.506 . S
O1183 C1163 1.252 . S
O1184 Gd1160 2.435 . S
O1184 C1170 1.256 . S
O1185 Gd1160 2.717 . S
O1185 Gd1161 2.327 . S
O1185 C1170 1.257 . S
O1186 Gd1161 2.377 . S
O1186 C1171 1.240 . S
O1187 Gd1160 2.395 . S
O1187 C1171 1.240 . S
O1188 Gd1161 2.448 . S
O1188 C1172 1.249 . S
O1189 Gd1161 2.506 . S
O1189 C1172 1.252 . S
O1190 Gd1161 2.435 . S
O1190 C1179 1.256 . S
O1191 Gd1160 2.327 . S
O1191 Gd1161 2.717 . S
O1191 C1179 1.257 . S
H1192 C1165 0.930 . S
H1193 C1166 0.931 . S
H1194 C1168 0.931 . S
H1195 C1169 0.931 . S
H1196 C1174 0.930 . S
H1197 C1175 0.931 . S
H1198 C1177 0.931 . S
H1199 C1178 0.931 . S
Gd1200 C1203 2.818 . S
Gd1200 O1220 2.377 . S
Gd1200 O1222 2.448 . S
Gd1200 O1223 2.506 . S
Gd1200 O1224 2.435 . S
Gd1200 O1225 2.717 . S
Gd1200 O1227 2.395 . S
Gd1200 O1231 2.327 . S
Gd1201 C1212 2.818 . S
Gd1201 O1221 2.395 . S
Gd1201 O1225 2.327 . S
Gd1201 O1226 2.377 . S
Gd1201 O1228 2.448 . S
Gd1201 O1229 2.506 . S
Gd1201 O1230 2.435 . S
Gd1201 O1231 2.717 . S
C1202 O1220 1.240 . S
C1202 O1221 1.240 . S
C1203 Gd1200 2.818 . S
C1203 C1204 1.510 . S
C1203 O1222 1.249 . S
C1203 O1223 1.252 . S
C1204 C1203 1.510 . S
C1204 C1205 1.404 . S
C1204 C1206 1.352 . S
C1205 C1204 1.404 . S
C1205 C1209 1.389 . S
C1205 H1232 0.930 . S
C1206 C1204 1.352 . S
C1206 C1208 1.374 . S
C1206 H1233 0.931 . S
C1207 C1208 1.359 . S
C1207 C1209 1.364 . S
C1208 C1206 1.374 . S
C1208 C1207 1.359 . S
C1208 H1234 0.931 . S
C1209 C1205 1.389 . S
C1209 C1207 1.364 . S
C1209 H1235 0.931 . S
C1210 O1224 1.256 . S
C1210 O1225 1.257 . S
C1211 O1226 1.240 . S
C1211 O1227 1.240 . S
C1212 Gd1201 2.818 . S
C1212 C1213 1.510 . S
C1212 O1228 1.249 . S
C1212 O1229 1.252 . S
C1213 C1212 1.510 . S
C1213 C1214 1.404 . S
C1213 C1215 1.352 . S
C1214 C1213 1.404 . S
C1214 C1218 1.389 . S
C1214 H1236 0.930 . S
C1215 C1213 1.352 . S
C1215 C1217 1.374 . S
C1215 H1237 0.931 . S
C1216 C1217 1.359 . S
C1216 C1218 1.364 . S
C1217 C1215 1.374 . S
C1217 C1216 1.359 . S
C1217 H1238 0.931 . S
C1218 C1214 1.389 . S
C1218 C1216 1.364 . S
C1218 H1239 0.931 . S
C1219 O1230 1.256 . S
C1219 O1231 1.257 . S
O1220 Gd1200 2.377 . S
O1220 C1202 1.240 . S
O1221 Gd1201 2.395 . S
O1221 C1202 1.240 . S
O1222 Gd1200 2.448 . S
O1222 C1203 1.249 . S
O1223 Gd1200 2.506 . S
O1223 C1203 1.252 . S
O1224 Gd1200 2.435 . S
O1224 C1210 1.256 . S
O1225 Gd1200 2.717 . S
O1225 Gd1201 2.327 . S
O1225 C1210 1.257 . S
O1226 Gd1201 2.377 . S
O1226 C1211 1.240 . S
O1227 Gd1200 2.395 . S
O1227 C1211 1.240 . S
O1228 Gd1201 2.448 . S
O1228 C1212 1.249 . S
O1229 Gd1201 2.506 . S
O1229 C1212 1.252 . S
O1230 Gd1201 2.435 . S
O1230 C1219 1.256 . S
O1231 Gd1200 2.327 . S
O1231 Gd1201 2.717 . S
O1231 C1219 1.257 . S
H1232 C1205 0.930 . S
H1233 C1206 0.931 . S
H1234 C1208 0.931 . S
H1235 C1209 0.931 . S
H1236 C1214 0.930 . S
H1237 C1215 0.931 . S
H1238 C1217 0.931 . S
H1239 C1218 0.931 . S
Gd1240 C1243 2.818 . S
Gd1240 O1260 2.377 1_545 S
Gd1240 O1262 2.448 . S
Gd1240 O1263 2.506 . S
Gd1240 O1264 2.435 . S
Gd1240 O1265 2.717 . S
Gd1240 O1267 2.395 . S
Gd1240 O1271 2.327 . S
Gd1241 C1252 2.828 . S
Gd1241 O1261 2.395 . S
Gd1241 O1265 2.327 1_565 S
Gd1241 O1266 2.377 1_565 S
Gd1241 O1268 2.448 . S
Gd1241 O1269 2.503 1_565 S
Gd1241 O1270 2.435 . S
Gd1241 O1271 2.717 1_565 S
C1242 O1260 1.240 . S
C1242 O1261 1.240 . S
C1243 Gd1240 2.818 . S
C1243 C1244 1.510 . S
C1243 O1262 1.249 . S
C1243 O1263 1.252 . S
C1244 C1243 1.510 . S
C1244 C1245 1.404 . S
C1244 C1246 1.352 1_545 S
C1245 C1244 1.404 . S
C1245 C1249 1.389 . S
C1245 H1272 0.930 . S
C1246 C1244 1.352 1_565 S
C1246 C1248 1.374 . S
C1246 H1273 0.931 . S
C1247 C1248 1.359 . S
C1247 C1249 1.364 1_565 S
C1248 C1246 1.374 . S
C1248 C1247 1.359 . S
C1248 H1274 0.931 . S
C1249 C1245 1.389 . S
C1249 C1247 1.364 1_545 S
C1249 H1275 0.931 . S
C1250 O1264 1.256 . S
C1250 O1265 1.257 . S
C1251 O1266 1.240 . S
C1251 O1267 1.240 . S
C1252 Gd1241 2.828 . S
C1252 C1253 1.500 1_565 S
C1252 O1268 1.261 . S
C1252 O1269 1.250 1_565 S
C1253 C1252 1.500 1_545 S
C1253 C1254 1.404 . S
C1253 C1255 1.352 . S
C1254 C1253 1.404 . S
C1254 C1258 1.389 1_455 S
C1254 H1276 0.930 1_545 S
C1255 C1253 1.352 . S
C1255 C1257 1.374 1_455 S
C1255 H1277 0.931 . S
C1256 C1257 1.359 . S
C1256 C1258 1.364 . S
C1257 C1255 1.374 1_655 S
C1257 C1256 1.359 . S
C1257 H1278 0.931 . S
C1258 C1254 1.389 1_655 S
C1258 C1256 1.364 . S
C1258 H1279 0.931 . S
C1259 O1270 1.256 1_545 S
C1259 O1271 1.257 . S
O1260 Gd1240 2.377 1_565 S
O1260 C1242 1.240 . S
O1261 Gd1241 2.395 . S
O1261 C1242 1.240 . S
O1262 Gd1240 2.448 . S
O1262 C1243 1.249 . S
O1263 Gd1240 2.506 . S
O1263 C1243 1.252 . S
O1264 Gd1240 2.435 . S
O1264 C1250 1.256 . S
O1265 Gd1240 2.717 . S
O1265 Gd1241 2.327 1_545 S
O1265 C1250 1.257 . S
O1266 Gd1241 2.377 1_545 S
O1266 C1251 1.240 . S
O1267 Gd1240 2.395 . S
O1267 C1251 1.240 . S
O1268 Gd1241 2.448 . S
O1268 C1252 1.261 . S
O1269 Gd1241 2.503 1_545 S
O1269 C1252 1.250 1_545 S
O1270 Gd1241 2.435 . S
O1270 C1259 1.256 1_565 S
O1271 Gd1240 2.327 . S
O1271 Gd1241 2.717 1_545 S
O1271 C1259 1.257 . S
H1272 C1245 0.930 . S
H1273 C1246 0.931 . S
H1274 C1248 0.931 . S
H1275 C1249 0.931 . S
H1276 C1254 0.930 1_565 S
H1277 C1255 0.931 . S
H1278 C1257 0.931 . S
H1279 C1258 0.931 . S
H1280 C1288 0.950 . S
H1281 C1293 0.950 . S
H1282 C1290 0.950 . S
H1283 C1292 0.950 . S
H1284 C1294 0.950 . S
H1285 C1296 0.950 . S
H1286 C1298 0.950 . S
H1287 C1299 0.950 . S
C1288 H1280 0.950 . S
C1288 C1289 1.386 . S
C1288 C1290 1.391 . S
C1289 C1288 1.386 . S
C1289 C1293 1.393 . S
C1290 H1282 0.950 . S
C1290 C1288 1.391 . S
C1290 C1291 1.400 . S
C1291 C1290 1.400 . S
C1291 C1292 1.398 . S
C1291 C1297 1.491 . S
C1292 H1283 0.950 . S
C1292 C1291 1.398 . S
C1292 C1293 1.391 . S
C1293 H1281 0.950 . S
C1293 C1289 1.393 . S
C1293 C1292 1.391 . S
C1294 H1284 0.950 . S
C1294 C1295 1.386 . S
C1294 C1296 1.391 . S
C1295 C1294 1.386 . S
C1295 C1299 1.393 . S
C1296 H1285 0.950 . S
C1296 C1294 1.391 . S
C1296 C1297 1.400 . S
C1297 C1291 1.491 . S
C1297 C1296 1.400 . S
C1297 C1298 1.398 . S
C1298 H1286 0.950 . S
C1298 C1297 1.398 . S
C1298 C1299 1.391 . S
C1299 H1287 0.950 . S
C1299 C1295 1.393 . S
C1299 C1298 1.391 . S
H1300 C1308 0.950 . S
H1301 C1313 0.950 . S
H1302 C1310 0.950 . S
H1303 C1312 0.950 . S
H1304 C1314 0.950 . S
H1305 C1316 0.950 . S
H1306 C1318 0.950 . S
H1307 C1319 0.950 . S
C1308 H1300 0.950 . S
C1308 C1309 1.386 . S
C1308 C1310 1.391 . S
C1309 C1308 1.386 . S
C1309 C1313 1.393 . S
C1310 H1302 0.950 . S
C1310 C1308 1.391 . S
C1310 C1311 1.400 . S
C1311 C1310 1.400 . S
C1311 C1312 1.398 . S
C1311 C1317 1.491 . S
C1312 H1303 0.950 . S
C1312 C1311 1.398 . S
C1312 C1313 1.391 . S
C1313 H1301 0.950 . S
C1313 C1309 1.393 . S
C1313 C1312 1.391 . S
C1314 H1304 0.950 . S
C1314 C1315 1.386 . S
C1314 C1316 1.391 . S
C1315 C1314 1.386 . S
C1315 C1319 1.393 . S
C1316 H1305 0.950 . S
C1316 C1314 1.391 . S
C1316 C1317 1.400 . S
C1317 C1311 1.491 . S
C1317 C1316 1.400 . S
C1317 C1318 1.398 . S
C1318 H1306 0.950 . S
C1318 C1317 1.398 . S
C1318 C1319 1.391 . S
C1319 H1307 0.950 . S
C1319 C1315 1.393 . S
C1319 C1318 1.391 . S
H1320 C1328 0.950 . S
H1321 C1333 0.950 . S
H1322 C1330 0.950 . S
H1323 C1332 0.950 . S
H1324 C1334 0.950 . S
H1325 C1336 0.950 . S
H1326 C1338 0.950 . S
H1327 C1339 0.950 . S
C1328 H1320 0.950 . S
C1328 C1329 1.386 . S
C1328 C1330 1.391 . S
C1329 C1328 1.386 . S
C1329 C1333 1.393 . S
C1330 H1322 0.950 . S
C1330 C1328 1.391 . S
C1330 C1331 1.400 . S
C1331 C1330 1.400 . S
C1331 C1332 1.398 . S
C1331 C1337 1.491 . S
C1332 H1323 0.950 . S
C1332 C1331 1.398 . S
C1332 C1333 1.391 . S
C1333 H1321 0.950 . S
C1333 C1329 1.393 . S
C1333 C1332 1.391 . S
C1334 H1324 0.950 . S
C1334 C1335 1.386 . S
C1334 C1336 1.391 . S
C1335 C1334 1.386 . S
C1335 C1339 1.393 . S
C1336 H1325 0.950 . S
C1336 C1334 1.391 . S
C1336 C1337 1.400 . S
C1337 C1331 1.491 . S
C1337 C1336 1.400 . S
C1337 C1338 1.398 . S
C1338 H1326 0.950 . S
C1338 C1337 1.398 . S
C1338 C1339 1.391 . S
C1339 H1327 0.950 . S
C1339 C1335 1.393 . S
C1339 C1338 1.391 . S
H1340 C1348 0.950 . S
H1341 C1353 0.950 . S
H1342 C1350 0.950 . S
H1343 C1352 0.950 . S
H1344 C1354 0.950 . S
H1345 C1356 0.950 . S
H1346 C1358 0.950 . S
H1347 C1359 0.950 . S
C1348 H1340 0.950 . S
C1348 C1349 1.386 . S
C1348 C1350 1.391 . S
C1349 C1348 1.386 . S
C1349 C1353 1.393 . S
C1350 H1342 0.950 . S
C1350 C1348 1.391 . S
C1350 C1351 1.400 . S
C1351 C1350 1.400 . S
C1351 C1352 1.398 . S
C1351 C1357 1.491 . S
C1352 H1343 0.950 . S
C1352 C1351 1.398 . S
C1352 C1353 1.391 . S
C1353 H1341 0.950 . S
C1353 C1349 1.393 . S
C1353 C1352 1.391 . S
C1354 H1344 0.950 . S
C1354 C1355 1.386 . S
C1354 C1356 1.391 . S
C1355 C1354 1.386 . S
C1355 C1359 1.393 . S
C1356 H1345 0.950 . S
C1356 C1354 1.391 . S
C1356 C1357 1.400 . S
C1357 C1351 1.491 . S
C1357 C1356 1.400 . S
C1357 C1358 1.398 . S
C1358 H1346 0.950 . S
C1358 C1357 1.398 . S
C1358 C1359 1.391 . S
C1359 H1347 0.950 . S
C1359 C1355 1.393 . S
C1359 C1358 1.391 . S
H1360 C1368 0.944 1_655 S
H1361 C1373 0.950 . S
H1362 C1370 0.950 . S
H1363 C1372 0.950 . S
H1364 C1374 0.950 . S
H1365 C1376 0.950 . S
H1366 C1378 0.950 . S
H1367 C1379 0.950 . S
C1368 H1360 0.944 1_455 S
C1368 C1369 1.386 . S
C1368 C1370 1.391 . S
C1369 C1368 1.386 . S
C1369 C1373 1.393 . S
C1370 H1362 0.950 . S
C1370 C1368 1.391 . S
C1370 C1371 1.400 . S
C1371 C1370 1.400 . S
C1371 C1372 1.398 . S
C1371 C1377 1.491 . S
C1372 H1363 0.950 . S
C1372 C1371 1.398 . S
C1372 C1373 1.391 . S
C1373 H1361 0.950 . S
C1373 C1369 1.393 . S
C1373 C1372 1.391 . S
C1374 H1364 0.950 . S
C1374 C1375 1.386 . S
C1374 C1376 1.391 . S
C1375 C1374 1.386 . S
C1375 C1379 1.393 . S
C1376 H1365 0.950 . S
C1376 C1374 1.391 . S
C1376 C1377 1.400 . S
C1377 C1371 1.491 . S
C1377 C1376 1.400 . S
C1377 C1378 1.398 . S
C1378 H1366 0.950 . S
C1378 C1377 1.398 . S
C1378 C1379 1.391 . S
C1379 H1367 0.950 . S
C1379 C1375 1.393 . S
C1379 C1378 1.391 . S
H1380 C1388 0.950 . S
H1381 C1393 0.950 . S
H1382 C1390 0.950 . S
H1383 C1392 0.950 . S
H1384 C1394 0.950 . S
H1385 C1396 0.950 . S
H1386 C1398 0.950 . S
H1387 C1399 0.950 . S
C1388 H1380 0.950 . S
C1388 C1389 1.386 . S
C1388 C1390 1.391 . S
C1389 C1388 1.386 . S
C1389 C1393 1.393 . S
C1390 H1382 0.950 . S
C1390 C1388 1.391 . S
C1390 C1391 1.400 . S
C1391 C1390 1.400 . S
C1391 C1392 1.398 . S
C1391 C1397 1.491 . S
C1392 H1383 0.950 . S
C1392 C1391 1.398 . S
C1392 C1393 1.391 . S
C1393 H1381 0.950 . S
C1393 C1389 1.393 . S
C1393 C1392 1.391 . S
C1394 H1384 0.950 . S
C1394 C1395 1.386 . S
C1394 C1396 1.391 . S
C1395 C1394 1.386 . S
C1395 C1399 1.393 . S
C1396 H1385 0.950 . S
C1396 C1394 1.391 . S
C1396 C1397 1.400 . S
C1397 C1391 1.491 . S
C1397 C1396 1.400 . S
C1397 C1398 1.398 . S
C1398 H1386 0.950 . S
C1398 C1397 1.398 . S
C1398 C1399 1.391 . S
C1399 H1387 0.950 . S
C1399 C1395 1.393 . S
C1399 C1398 1.391 . S
H1400 C1408 0.950 1_655 S
H1401 C1413 0.950 . S
H1402 C1410 0.950 . S
H1403 C1412 0.950 . S
H1404 C1414 0.950 . S
H1405 C1416 0.950 . S
H1406 C1418 0.950 . S
H1407 C1419 0.950 . S
C1408 H1400 0.950 1_455 S
C1408 C1409 1.386 . S
C1408 C1410 1.391 . S
C1409 C1408 1.386 . S
C1409 C1413 1.393 . S
C1410 H1402 0.950 . S
C1410 C1408 1.391 . S
C1410 C1411 1.400 . S
C1411 C1410 1.400 . S
C1411 C1412 1.398 . S
C1411 C1417 1.491 . S
C1412 H1403 0.950 . S
C1412 C1411 1.398 . S
C1412 C1413 1.391 . S
C1413 H1401 0.950 . S
C1413 C1409 1.393 . S
C1413 C1412 1.391 . S
C1414 H1404 0.950 . S
C1414 C1415 1.386 . S
C1414 C1416 1.391 . S
C1415 C1414 1.386 . S
C1415 C1419 1.393 . S
C1416 H1405 0.950 . S
C1416 C1414 1.391 . S
C1416 C1417 1.400 . S
C1417 C1411 1.491 . S
C1417 C1416 1.400 . S
C1417 C1418 1.398 . S
C1418 H1406 0.950 . S
C1418 C1417 1.398 . S
C1418 C1419 1.391 . S
C1419 H1407 0.950 . S
C1419 C1415 1.393 . S
C1419 C1418 1.391 . S
H1420 C1428 0.950 . S
H1421 C1433 0.950 . S
H1422 C1430 0.950 . S
H1423 C1432 0.950 . S
H1424 C1434 0.950 . S
H1425 C1436 0.950 . S
H1426 C1438 0.950 . S
H1427 C1439 0.950 . S
C1428 H1420 0.950 . S
C1428 C1429 1.386 . S
C1428 C1430 1.391 . S
C1429 C1428 1.386 . S
C1429 C1433 1.393 . S
C1430 H1422 0.950 . S
C1430 C1428 1.391 . S
C1430 C1431 1.400 . S
C1431 C1430 1.400 . S
C1431 C1432 1.398 . S
C1431 C1437 1.491 . S
C1432 H1423 0.950 . S
C1432 C1431 1.398 . S
C1432 C1433 1.391 . S
C1433 H1421 0.950 . S
C1433 C1429 1.393 . S
C1433 C1432 1.391 . S
C1434 H1424 0.950 . S
C1434 C1435 1.386 . S
C1434 C1436 1.391 . S
C1435 C1434 1.386 . S
C1435 C1439 1.393 . S
C1436 H1425 0.950 . S
C1436 C1434 1.391 . S
C1436 C1437 1.400 . S
C1437 C1431 1.491 . S
C1437 C1436 1.400 . S
C1437 C1438 1.398 . S
C1438 H1426 0.950 . S
C1438 C1437 1.398 . S
C1438 C1439 1.391 . S
C1439 H1427 0.950 . S
C1439 C1435 1.393 . S
C1439 C1438 1.391 . S
H1440 C1448 0.950 . S
H1441 C1453 0.950 . S
H1442 C1450 0.950 . S
H1443 C1452 0.950 . S
H1444 C1454 0.950 . S
H1445 C1456 0.950 . S
H1446 C1458 0.950 . S
H1447 C1459 0.950 . S
C1448 H1440 0.950 . S
C1448 C1449 1.386 . S
C1448 C1450 1.391 . S
C1449 C1448 1.386 . S
C1449 C1453 1.393 . S
C1450 H1442 0.950 . S
C1450 C1448 1.391 . S
C1450 C1451 1.400 . S
C1451 C1450 1.400 . S
C1451 C1452 1.398 . S
C1451 C1457 1.491 . S
C1452 H1443 0.950 . S
C1452 C1451 1.398 . S
C1452 C1453 1.391 . S
C1453 H1441 0.950 . S
C1453 C1449 1.393 . S
C1453 C1452 1.391 . S
C1454 H1444 0.950 . S
C1454 C1455 1.386 . S
C1454 C1456 1.391 . S
C1455 C1454 1.386 . S
C1455 C1459 1.393 . S
C1456 H1445 0.950 . S
C1456 C1454 1.391 . S
C1456 C1457 1.400 . S
C1457 C1451 1.491 . S
C1457 C1456 1.400 . S
C1457 C1458 1.398 . S
C1458 H1446 0.950 . S
C1458 C1457 1.398 . S
C1458 C1459 1.391 . S
C1459 H1447 0.950 . S
C1459 C1455 1.393 . S
C1459 C1458 1.391 . S
H1460 C1468 0.950 . S
H1461 C1473 0.950 . S
H1462 C1470 0.950 . S
H1463 C1472 0.950 . S
H1464 C1474 0.950 . S
H1465 C1476 0.950 . S
H1466 C1478 0.950 . S
H1467 C1479 0.950 . S
C1468 H1460 0.950 . S
C1468 C1469 1.386 . S
C1468 C1470 1.391 . S
C1469 C1468 1.386 . S
C1469 C1473 1.393 . S
C1470 H1462 0.950 . S
C1470 C1468 1.391 . S
C1470 C1471 1.400 . S
C1471 C1470 1.400 . S
C1471 C1472 1.398 . S
C1471 C1477 1.491 . S
C1472 H1463 0.950 . S
C1472 C1471 1.398 . S
C1472 C1473 1.391 . S
C1473 H1461 0.950 . S
C1473 C1469 1.393 . S
C1473 C1472 1.391 . S
C1474 H1464 0.950 . S
C1474 C1475 1.386 . S
C1474 C1476 1.391 . S
C1475 C1474 1.386 . S
C1475 C1479 1.393 . S
C1476 H1465 0.950 . S
C1476 C1474 1.391 . S
C1476 C1477 1.400 . S
C1477 C1471 1.491 . S
C1477 C1476 1.400 . S
C1477 C1478 1.398 . S
C1478 H1466 0.950 . S
C1478 C1477 1.398 . S
C1478 C1479 1.391 . S
C1479 H1467 0.950 . S
C1479 C1475 1.393 . S
C1479 C1478 1.391 . S
H1480 C1488 0.950 . S
H1481 C1493 0.950 . S
H1482 C1490 0.950 . S
H1483 C1492 0.950 . S
H1484 C1494 0.950 . S
H1485 C1496 0.950 . S
H1486 C1498 0.950 . S
H1487 C1499 0.950 . S
C1488 H1480 0.950 . S
C1488 C1489 1.386 . S
C1488 C1490 1.391 . S
C1489 C1488 1.386 . S
C1489 C1493 1.393 . S
C1490 H1482 0.950 . S
C1490 C1488 1.391 . S
C1490 C1491 1.400 . S
C1491 C1490 1.400 . S
C1491 C1492 1.398 . S
C1491 C1497 1.491 . S
C1492 H1483 0.950 . S
C1492 C1491 1.398 . S
C1492 C1493 1.391 . S
C1493 H1481 0.950 . S
C1493 C1489 1.393 . S
C1493 C1492 1.391 . S
C1494 H1484 0.950 . S
C1494 C1495 1.386 . S
C1494 C1496 1.391 . S
C1495 C1494 1.386 . S
C1495 C1499 1.393 . S
C1496 H1485 0.950 . S
C1496 C1494 1.391 . S
C1496 C1497 1.400 . S
C1497 C1491 1.491 . S
C1497 C1496 1.400 . S
C1497 C1498 1.398 . S
C1498 H1486 0.950 . S
C1498 C1497 1.398 . S
C1498 C1499 1.391 . S
C1499 H1487 0.950 . S
C1499 C1495 1.393 . S
C1499 C1498 1.391 . S
H1500 C1508 0.950 . S
H1501 C1513 0.950 . S
H1502 C1510 0.950 . S
H1503 C1512 0.950 . S
H1504 C1514 0.950 . S
H1505 C1516 0.950 . S
H1506 C1518 0.950 . S
H1507 C1519 0.950 . S
C1508 H1500 0.950 . S
C1508 C1509 1.386 . S
C1508 C1510 1.391 . S
C1509 C1508 1.386 . S
C1509 C1513 1.393 . S
C1510 H1502 0.950 . S
C1510 C1508 1.391 . S
C1510 C1511 1.400 . S
C1511 C1510 1.400 . S
C1511 C1512 1.398 . S
C1511 C1517 1.491 . S
C1512 H1503 0.950 . S
C1512 C1511 1.398 . S
C1512 C1513 1.391 . S
C1513 H1501 0.950 . S
C1513 C1509 1.393 . S
C1513 C1512 1.391 . S
C1514 H1504 0.950 . S
C1514 C1515 1.386 . S
C1514 C1516 1.391 . S
C1515 C1514 1.386 . S
C1515 C1519 1.393 . S
C1516 H1505 0.950 . S
C1516 C1514 1.391 . S
C1516 C1517 1.400 . S
C1517 C1511 1.491 . S
C1517 C1516 1.400 . S
C1517 C1518 1.398 . S
C1518 H1506 0.950 . S
C1518 C1517 1.398 . S
C1518 C1519 1.391 . S
C1519 H1507 0.950 . S
C1519 C1515 1.393 . S
C1519 C1518 1.391 . S
H1520 C1528 0.950 . S
H1521 C1533 0.950 . S
H1522 C1530 0.950 . S
H1523 C1532 0.950 . S
H1524 C1534 0.950 . S
H1525 C1536 0.950 . S
H1526 C1538 0.950 . S
H1527 C1539 0.950 . S
C1528 H1520 0.950 . S
C1528 C1529 1.386 . S
C1528 C1530 1.391 . S
C1529 C1528 1.386 . S
C1529 C1533 1.393 . S
C1530 H1522 0.950 . S
C1530 C1528 1.391 . S
C1530 C1531 1.400 . S
C1531 C1530 1.400 . S
C1531 C1532 1.398 . S
C1531 C1537 1.491 . S
C1532 H1523 0.950 . S
C1532 C1531 1.398 . S
C1532 C1533 1.391 . S
C1533 H1521 0.950 . S
C1533 C1529 1.393 . S
C1533 C1532 1.391 . S
C1534 H1524 0.950 . S
C1534 C1535 1.386 . S
C1534 C1536 1.391 . S
C1535 C1534 1.386 . S
C1535 C1539 1.393 . S
C1536 H1525 0.950 . S
C1536 C1534 1.391 . S
C1536 C1537 1.400 . S
C1537 C1531 1.491 . S
C1537 C1536 1.400 . S
C1537 C1538 1.398 . S
C1538 H1526 0.950 . S
C1538 C1537 1.398 . S
C1538 C1539 1.391 . S
C1539 H1527 0.950 . S
C1539 C1535 1.393 . S
C1539 C1538 1.391 . S
H1540 C1548 0.950 . S
H1541 C1553 0.950 . S
H1542 C1550 0.950 . S
H1543 C1552 0.950 . S
H1544 C1554 0.950 . S
H1545 C1556 0.950 . S
H1546 C1558 0.950 . S
H1547 C1559 0.950 . S
C1548 H1540 0.950 . S
C1548 C1549 1.386 . S
C1548 C1550 1.391 . S
C1549 C1548 1.386 . S
C1549 C1553 1.393 . S
C1550 H1542 0.950 . S
C1550 C1548 1.391 . S
C1550 C1551 1.400 . S
C1551 C1550 1.400 . S
C1551 C1552 1.398 . S
C1551 C1557 1.491 . S
C1552 H1543 0.950 . S
C1552 C1551 1.398 . S
C1552 C1553 1.391 . S
C1553 H1541 0.950 . S
C1553 C1549 1.393 . S
C1553 C1552 1.391 . S
C1554 H1544 0.950 . S
C1554 C1555 1.386 . S
C1554 C1556 1.391 . S
C1555 C1554 1.386 . S
C1555 C1559 1.393 . S
C1556 H1545 0.950 . S
C1556 C1554 1.391 . S
C1556 C1557 1.400 . S
C1557 C1551 1.491 . S
C1557 C1556 1.400 . S
C1557 C1558 1.398 . S
C1558 H1546 0.950 . S
C1558 C1557 1.398 . S
C1558 C1559 1.391 . S
C1559 H1547 0.950 . S
C1559 C1555 1.393 . S
C1559 C1558 1.391 . S
H1560 C1568 0.950 . S
H1561 C1573 0.950 . S
H1562 C1570 0.950 . S
H1563 C1572 0.950 . S
H1564 C1574 0.950 . S
H1565 C1576 0.950 . S
H1566 C1578 0.950 . S
H1567 C1579 0.950 . S
C1568 H1560 0.950 . S
C1568 C1569 1.386 . S
C1568 C1570 1.391 . S
C1569 C1568 1.386 . S
C1569 C1573 1.393 . S
C1570 H1562 0.950 . S
C1570 C1568 1.391 . S
C1570 C1571 1.400 . S
C1571 C1570 1.400 . S
C1571 C1572 1.398 . S
C1571 C1577 1.491 . S
C1572 H1563 0.950 . S
C1572 C1571 1.398 . S
C1572 C1573 1.391 . S
C1573 H1561 0.950 . S
C1573 C1569 1.393 . S
C1573 C1572 1.391 . S
C1574 H1564 0.950 . S
C1574 C1575 1.386 . S
C1574 C1576 1.391 . S
C1575 C1574 1.386 . S
C1575 C1579 1.393 . S
C1576 H1565 0.950 . S
C1576 C1574 1.391 . S
C1576 C1577 1.400 . S
C1577 C1571 1.491 . S
C1577 C1576 1.400 . S
C1577 C1578 1.398 . S
C1578 H1566 0.950 . S
C1578 C1577 1.398 . S
C1578 C1579 1.391 . S
C1579 H1567 0.950 . S
C1579 C1575 1.393 . S
C1579 C1578 1.391 . S
H1580 C1588 0.950 . S
H1581 C1593 0.950 . S
H1582 C1590 0.950 . S
H1583 C1592 0.950 . S
H1584 C1594 0.950 . S
H1585 C1596 0.950 . S
H1586 C1598 0.950 . S
H1587 C1599 0.950 . S
C1588 H1580 0.950 . S
C1588 C1589 1.386 . S
C1588 C1590 1.391 . S
C1589 C1588 1.386 . S
C1589 C1593 1.393 . S
C1590 H1582 0.950 . S
C1590 C1588 1.391 . S
C1590 C1591 1.400 . S
C1591 C1590 1.400 . S
C1591 C1592 1.398 . S
C1591 C1597 1.491 . S
C1592 H1583 0.950 . S
C1592 C1591 1.398 . S
C1592 C1593 1.391 . S
C1593 H1581 0.950 . S
C1593 C1589 1.393 . S
C1593 C1592 1.391 . S
C1594 H1584 0.950 . S
C1594 C1595 1.386 . S
C1594 C1596 1.391 . S
C1595 C1594 1.386 . S
C1595 C1599 1.393 . S
C1596 H1585 0.950 . S
C1596 C1594 1.391 . S
C1596 C1597 1.400 . S
C1597 C1591 1.491 . S
C1597 C1596 1.400 . S
C1597 C1598 1.398 . S
C1598 H1586 0.950 . S
C1598 C1597 1.398 . S
C1598 C1599 1.391 . S
C1599 H1587 0.950 . S
C1599 C1595 1.393 . S
C1599 C1598 1.391 . S
H1600 C1608 0.950 . S
H1601 C1613 0.950 . S
H1602 C1610 0.950 . S
H1603 C1612 0.950 . S
H1604 C1614 0.950 . S
H1605 C1616 0.950 . S
H1606 C1618 0.950 . S
H1607 C1619 0.950 . S
C1608 H1600 0.950 . S
C1608 C1609 1.386 . S
C1608 C1610 1.391 . S
C1609 C1608 1.386 . S
C1609 C1613 1.393 . S
C1610 H1602 0.950 . S
C1610 C1608 1.391 . S
C1610 C1611 1.400 . S
C1611 C1610 1.400 . S
C1611 C1612 1.398 . S
C1611 C1617 1.491 . S
C1612 H1603 0.950 . S
C1612 C1611 1.398 . S
C1612 C1613 1.391 . S
C1613 H1601 0.950 . S
C1613 C1609 1.393 . S
C1613 C1612 1.391 . S
C1614 H1604 0.950 . S
C1614 C1615 1.386 . S
C1614 C1616 1.391 . S
C1615 C1614 1.386 . S
C1615 C1619 1.393 . S
C1616 H1605 0.950 . S
C1616 C1614 1.391 . S
C1616 C1617 1.400 . S
C1617 C1611 1.491 . S
C1617 C1616 1.400 . S
C1617 C1618 1.398 . S
C1618 H1606 0.950 . S
C1618 C1617 1.398 . S
C1618 C1619 1.391 . S
C1619 H1607 0.950 . S
C1619 C1615 1.393 . S
C1619 C1618 1.391 . S
H1620 C1628 0.950 . S
H1621 C1633 0.950 . S
H1622 C1630 0.950 . S
H1623 C1632 0.950 . S
H1624 C1634 0.950 . S
H1625 C1636 0.950 . S
H1626 C1638 0.950 . S
H1627 C1639 0.950 . S
C1628 H1620 0.950 . S
C1628 C1629 1.386 . S
C1628 C1630 1.391 . S
C1629 C1628 1.386 . S
C1629 C1633 1.393 . S
C1630 H1622 0.950 . S
C1630 C1628 1.391 . S
C1630 C1631 1.400 . S
C1631 C1630 1.400 . S
C1631 C1632 1.398 . S
C1631 C1637 1.491 . S
C1632 H1623 0.950 . S
C1632 C1631 1.398 . S
C1632 C1633 1.391 . S
C1633 H1621 0.950 . S
C1633 C1629 1.393 . S
C1633 C1632 1.391 . S
C1634 H1624 0.950 . S
C1634 C1635 1.386 . S
C1634 C1636 1.391 . S
C1635 C1634 1.386 . S
C1635 C1639 1.393 . S
C1636 H1625 0.950 . S
C1636 C1634 1.391 . S
C1636 C1637 1.400 . S
C1637 C1631 1.491 . S
C1637 C1636 1.400 . S
C1637 C1638 1.398 . S
C1638 H1626 0.950 . S
C1638 C1637 1.398 . S
C1638 C1639 1.391 . S
C1639 H1627 0.950 . S
C1639 C1635 1.393 . S
C1639 C1638 1.391 . S
H1640 C1648 0.950 . S
H1641 C1653 0.950 . S
H1642 C1650 0.950 . S
H1643 C1652 0.950 . S
H1644 C1654 0.950 . S
H1645 C1656 0.950 . S
H1646 C1658 0.950 . S
H1647 C1659 0.950 . S
C1648 H1640 0.950 . S
C1648 C1649 1.386 . S
C1648 C1650 1.391 . S
C1649 C1648 1.386 . S
C1649 C1653 1.393 . S
C1650 H1642 0.950 . S
C1650 C1648 1.391 . S
C1650 C1651 1.400 . S
C1651 C1650 1.400 . S
C1651 C1652 1.398 . S
C1651 C1657 1.491 . S
C1652 H1643 0.950 . S
C1652 C1651 1.398 . S
C1652 C1653 1.391 . S
C1653 H1641 0.950 . S
C1653 C1649 1.393 . S
C1653 C1652 1.391 . S
C1654 H1644 0.950 . S
C1654 C1655 1.386 . S
C1654 C1656 1.391 . S
C1655 C1654 1.386 . S
C1655 C1659 1.393 . S
C1656 H1645 0.950 . S
C1656 C1654 1.391 . S
C1656 C1657 1.400 . S
C1657 C1651 1.491 . S
C1657 C1656 1.400 . S
C1657 C1658 1.398 . S
C1658 H1646 0.950 . S
C1658 C1657 1.398 . S
C1658 C1659 1.391 . S
C1659 H1647 0.950 . S
C1659 C1655 1.393 . S
C1659 C1658 1.391 . S
H1660 C1668 0.950 . S
H1661 C1673 0.950 . S
H1662 C1670 0.950 . S
H1663 C1672 0.950 . S
H1664 C1674 0.950 . S
H1665 C1676 0.950 . S
H1666 C1678 0.950 . S
H1667 C1679 0.950 . S
C1668 H1660 0.950 . S
C1668 C1669 1.386 . S
C1668 C1670 1.391 . S
C1669 C1668 1.386 . S
C1669 C1673 1.393 . S
C1670 H1662 0.950 . S
C1670 C1668 1.391 . S
C1670 C1671 1.400 . S
C1671 C1670 1.400 . S
C1671 C1672 1.398 . S
C1671 C1677 1.491 . S
C1672 H1663 0.950 . S
C1672 C1671 1.398 . S
C1672 C1673 1.391 . S
C1673 H1661 0.950 . S
C1673 C1669 1.393 . S
C1673 C1672 1.391 . S
C1674 H1664 0.950 . S
C1674 C1675 1.386 . S
C1674 C1676 1.391 . S
C1675 C1674 1.386 . S
C1675 C1679 1.393 . S
C1676 H1665 0.950 . S
C1676 C1674 1.391 . S
C1676 C1677 1.400 . S
C1677 C1671 1.491 . S
C1677 C1676 1.400 . S
C1677 C1678 1.398 . S
C1678 H1666 0.950 . S
C1678 C1677 1.398 . S
C1678 C1679 1.391 . S
C1679 H1667 0.950 . S
C1679 C1675 1.393 . S
C1679 C1678 1.391 . S
H1680 C1688 0.950 . S
H1681 C1693 0.950 . S
H1682 C1690 0.950 . S
H1683 C1692 0.950 . S
H1684 C1694 0.950 . S
H1685 C1696 0.950 . S
H1686 C1698 0.950 . S
H1687 C1699 0.950 . S
C1688 H1680 0.950 . S
C1688 C1689 1.386 . S
C1688 C1690 1.391 . S
C1689 C1688 1.386 . S
C1689 C1693 1.393 1_565 S
C1690 H1682 0.950 . S
C1690 C1688 1.391 . S
C1690 C1691 1.400 . S
C1691 C1690 1.400 . S
C1691 C1692 1.398 1_565 S
C1691 C1697 1.491 . S
C1692 H1683 0.950 . S
C1692 C1691 1.398 1_545 S
C1692 C1693 1.391 . S
C1693 H1681 0.950 . S
C1693 C1689 1.393 1_545 S
C1693 C1692 1.391 . S
C1694 H1684 0.950 . S
C1694 C1695 1.386 1_545 S
C1694 C1696 1.391 . S
C1695 C1694 1.386 1_565 S
C1695 C1699 1.393 . S
C1696 H1685 0.950 . S
C1696 C1694 1.391 . S
C1696 C1697 1.400 1_545 S
C1697 C1691 1.491 . S
C1697 C1696 1.400 1_565 S
C1697 C1698 1.398 . S
C1698 H1686 0.950 . S
C1698 C1697 1.398 . S
C1698 C1699 1.391 . S
C1699 H1687 0.950 . S
C1699 C1695 1.393 . S
C1699 C1698 1.391 . S
H1700 C1708 0.950 . S
H1701 C1713 0.950 . S
H1702 C1710 0.950 . S
H1703 C1712 0.950 . S
H1704 C1714 0.950 . S
H1705 C1716 0.950 . S
H1706 C1718 0.950 . S
H1707 C1719 0.950 . S
C1708 H1700 0.950 . S
C1708 C1709 1.386 . S
C1708 C1710 1.391 . S
C1709 C1708 1.386 . S
C1709 C1713 1.393 . S
C1710 H1702 0.950 . S
C1710 C1708 1.391 . S
C1710 C1711 1.400 . S
C1711 C1710 1.400 . S
C1711 C1712 1.398 . S
C1711 C1717 1.491 . S
C1712 H1703 0.950 . S
C1712 C1711 1.398 . S
C1712 C1713 1.391 . S
C1713 H1701 0.950 . S
C1713 C1709 1.393 . S
C1713 C1712 1.391 . S
C1714 H1704 0.950 . S
C1714 C1715 1.386 . S
C1714 C1716 1.391 . S
C1715 C1714 1.386 . S
C1715 C1719 1.393 . S
C1716 H1705 0.950 . S
C1716 C1714 1.391 . S
C1716 C1717 1.400 . S
C1717 C1711 1.491 . S
C1717 C1716 1.400 . S
C1717 C1718 1.398 . S
C1718 H1706 0.950 . S
C1718 C1717 1.398 . S
C1718 C1719 1.391 . S
C1719 H1707 0.950 . S
C1719 C1715 1.393 . S
C1719 C1718 1.391 . S
H1720 C1728 0.950 . S
H1721 C1733 0.950 . S
H1722 C1730 0.950 . S
H1723 C1732 0.950 . S
H1724 C1734 0.950 . S
H1725 C1736 0.950 . S
H1726 C1738 0.950 . S
H1727 C1739 0.950 . S
C1728 H1720 0.950 . S
C1728 C1729 1.386 . S
C1728 C1730 1.391 . S
C1729 C1728 1.386 . S
C1729 C1733 1.393 . S
C1730 H1722 0.950 . S
C1730 C1728 1.391 . S
C1730 C1731 1.400 . S
C1731 C1730 1.400 . S
C1731 C1732 1.398 . S
C1731 C1737 1.491 . S
C1732 H1723 0.950 . S
C1732 C1731 1.398 . S
C1732 C1733 1.391 . S
C1733 H1721 0.950 . S
C1733 C1729 1.393 . S
C1733 C1732 1.391 . S
C1734 H1724 0.950 . S
C1734 C1735 1.386 . S
C1734 C1736 1.391 . S
C1735 C1734 1.386 . S
C1735 C1739 1.393 . S
C1736 H1725 0.950 . S
C1736 C1734 1.391 . S
C1736 C1737 1.400 . S
C1737 C1731 1.491 . S
C1737 C1736 1.400 . S
C1737 C1738 1.398 . S
C1738 H1726 0.950 . S
C1738 C1737 1.398 . S
C1738 C1739 1.391 . S
C1739 H1727 0.950 . S
C1739 C1735 1.393 . S
C1739 C1738 1.391 . S
H1740 C1748 0.950 . S
H1741 C1753 0.950 . S
H1742 C1750 0.950 . S
H1743 C1752 0.950 . S
H1744 C1754 0.950 . S
H1745 C1756 0.950 . S
H1746 C1758 0.950 . S
H1747 C1759 0.950 . S
C1748 H1740 0.950 . S
C1748 C1749 1.386 . S
C1748 C1750 1.391 . S
C1749 C1748 1.386 . S
C1749 C1753 1.393 . S
C1750 H1742 0.950 . S
C1750 C1748 1.391 . S
C1750 C1751 1.400 . S
C1751 C1750 1.400 . S
C1751 C1752 1.398 . S
C1751 C1757 1.491 . S
C1752 H1743 0.950 . S
C1752 C1751 1.398 . S
C1752 C1753 1.391 . S
C1753 H1741 0.950 . S
C1753 C1749 1.393 . S
C1753 C1752 1.391 . S
C1754 H1744 0.950 . S
C1754 C1755 1.386 . S
C1754 C1756 1.391 . S
C1755 C1754 1.386 . S
C1755 C1759 1.393 . S
C1756 H1745 0.950 . S
C1756 C1754 1.391 . S
C1756 C1757 1.400 . S
C1757 C1751 1.491 . S
C1757 C1756 1.400 . S
C1757 C1758 1.398 . S
C1758 H1746 0.950 . S
C1758 C1757 1.398 . S
C1758 C1759 1.391 . S
C1759 H1747 0.950 . S
C1759 C1755 1.393 . S
C1759 C1758 1.391 . S
H1760 C1768 0.950 . S
H1761 C1773 0.950 . S
H1762 C1770 0.950 . S
H1763 C1772 0.950 . S
H1764 C1774 0.950 . S
H1765 C1776 0.950 . S
H1766 C1778 0.950 . S
H1767 C1779 0.950 . S
C1768 H1760 0.950 . S
C1768 C1769 1.386 . S
C1768 C1770 1.391 . S
C1769 C1768 1.386 . S
C1769 C1773 1.393 . S
C1770 H1762 0.950 . S
C1770 C1768 1.391 . S
C1770 C1771 1.400 . S
C1771 C1770 1.400 . S
C1771 C1772 1.398 . S
C1771 C1777 1.491 . S
C1772 H1763 0.950 . S
C1772 C1771 1.398 . S
C1772 C1773 1.391 . S
C1773 H1761 0.950 . S
C1773 C1769 1.393 . S
C1773 C1772 1.391 . S
C1774 H1764 0.950 . S
C1774 C1775 1.386 . S
C1774 C1776 1.391 . S
C1775 C1774 1.386 . S
C1775 C1779 1.393 . S
C1776 H1765 0.950 . S
C1776 C1774 1.391 . S
C1776 C1777 1.400 . S
C1777 C1771 1.491 . S
C1777 C1776 1.400 . S
C1777 C1778 1.398 . S
C1778 H1766 0.950 . S
C1778 C1777 1.398 . S
C1778 C1779 1.391 . S
C1779 H1767 0.950 . S
C1779 C1775 1.393 . S
C1779 C1778 1.391 . S
H1780 C1788 0.950 . S
H1781 C1793 0.950 . S
H1782 C1790 0.950 . S
H1783 C1792 0.950 . S
H1784 C1794 0.950 . S
H1785 C1796 0.950 . S
H1786 C1798 0.950 . S
H1787 C1799 0.950 . S
C1788 H1780 0.950 . S
C1788 C1789 1.386 . S
C1788 C1790 1.391 . S
C1789 C1788 1.386 . S
C1789 C1793 1.393 . S
C1790 H1782 0.950 . S
C1790 C1788 1.391 . S
C1790 C1791 1.400 . S
C1791 C1790 1.400 . S
C1791 C1792 1.398 . S
C1791 C1797 1.491 . S
C1792 H1783 0.950 . S
C1792 C1791 1.398 . S
C1792 C1793 1.391 . S
C1793 H1781 0.950 . S
C1793 C1789 1.393 . S
C1793 C1792 1.391 . S
C1794 H1784 0.950 . S
C1794 C1795 1.386 . S
C1794 C1796 1.391 . S
C1795 C1794 1.386 . S
C1795 C1799 1.393 . S
C1796 H1785 0.950 . S
C1796 C1794 1.391 . S
C1796 C1797 1.400 . S
C1797 C1791 1.491 . S
C1797 C1796 1.400 . S
C1797 C1798 1.398 . S
C1798 H1786 0.950 . S
C1798 C1797 1.398 . S
C1798 C1799 1.391 . S
C1799 H1787 0.950 . S
C1799 C1795 1.393 . S
C1799 C1798 1.391 . S
H1800 C1808 0.950 . S
H1801 C1813 0.950 . S
H1802 C1810 0.950 . S
H1803 C1812 0.950 . S
H1804 C1814 0.950 . S
H1805 C1816 0.950 . S
H1806 C1818 0.950 . S
H1807 C1819 0.950 . S
C1808 H1800 0.950 . S
C1808 C1809 1.386 . S
C1808 C1810 1.391 . S
C1809 C1808 1.386 . S
C1809 C1813 1.393 . S
C1810 H1802 0.950 . S
C1810 C1808 1.391 . S
C1810 C1811 1.400 . S
C1811 C1810 1.400 . S
C1811 C1812 1.398 . S
C1811 C1817 1.491 . S
C1812 H1803 0.950 . S
C1812 C1811 1.398 . S
C1812 C1813 1.391 . S
C1813 H1801 0.950 . S
C1813 C1809 1.393 . S
C1813 C1812 1.391 . S
C1814 H1804 0.950 . S
C1814 C1815 1.386 . S
C1814 C1816 1.391 . S
C1815 C1814 1.386 . S
C1815 C1819 1.393 . S
C1816 H1805 0.950 . S
C1816 C1814 1.391 . S
C1816 C1817 1.400 . S
C1817 C1811 1.491 . S
C1817 C1816 1.400 . S
C1817 C1818 1.398 . S
C1818 H1806 0.950 . S
C1818 C1817 1.398 . S
C1818 C1819 1.391 . S
C1819 H1807 0.950 . S
C1819 C1815 1.393 . S
C1819 C1818 1.391 . S
H1820 C1828 0.950 . S
H1821 C1833 0.950 . S
H1822 C1830 0.950 . S
H1823 C1832 0.950 . S
H1824 C1834 0.950 . S
H1825 C1836 0.950 . S
H1826 C1838 0.950 . S
H1827 C1839 0.950 . S
C1828 H1820 0.950 . S
C1828 C1829 1.386 . S
C1828 C1830 1.391 . S
C1829 C1828 1.386 . S
C1829 C1833 1.393 . S
C1830 H1822 0.950 . S
C1830 C1828 1.391 . S
C1830 C1831 1.400 . S
C1831 C1830 1.400 . S
C1831 C1832 1.398 . S
C1831 C1837 1.491 . S
C1832 H1823 0.950 . S
C1832 C1831 1.398 . S
C1832 C1833 1.391 . S
C1833 H1821 0.950 . S
C1833 C1829 1.393 . S
C1833 C1832 1.391 . S
C1834 H1824 0.950 . S
C1834 C1835 1.386 . S
C1834 C1836 1.391 . S
C1835 C1834 1.386 . S
C1835 C1839 1.393 . S
C1836 H1825 0.950 . S
C1836 C1834 1.391 . S
C1836 C1837 1.400 . S
C1837 C1831 1.491 . S
C1837 C1836 1.400 . S
C1837 C1838 1.398 . S
C1838 H1826 0.950 . S
C1838 C1837 1.398 . S
C1838 C1839 1.391 . S
C1839 H1827 0.950 . S
C1839 C1835 1.393 . S
C1839 C1838 1.391 . S
H1840 C1848 0.950 . S
H1841 C1853 0.950 . S
H1842 C1850 0.950 . S
H1843 C1852 0.950 . S
H1844 C1854 0.950 . S
H1845 C1856 0.950 . S
H1846 C1858 0.950 . S
H1847 C1859 0.950 . S
C1848 H1840 0.950 . S
C1848 C1849 1.386 . S
C1848 C1850 1.391 . S
C1849 C1848 1.386 . S
C1849 C1853 1.393 . S
C1850 H1842 0.950 . S
C1850 C1848 1.391 . S
C1850 C1851 1.400 . S
C1851 C1850 1.400 . S
C1851 C1852 1.398 . S
C1851 C1857 1.491 . S
C1852 H1843 0.950 . S
C1852 C1851 1.398 . S
C1852 C1853 1.391 . S
C1853 H1841 0.950 . S
C1853 C1849 1.393 . S
C1853 C1852 1.391 . S
C1854 H1844 0.950 . S
C1854 C1855 1.386 . S
C1854 C1856 1.391 . S
C1855 C1854 1.386 . S
C1855 C1859 1.393 . S
C1856 H1845 0.950 . S
C1856 C1854 1.391 . S
C1856 C1857 1.400 . S
C1857 C1851 1.491 . S
C1857 C1856 1.400 . S
C1857 C1858 1.398 . S
C1858 H1846 0.950 . S
C1858 C1857 1.398 . S
C1858 C1859 1.391 . S
C1859 H1847 0.950 . S
C1859 C1855 1.393 . S
C1859 C1858 1.391 . S
H1860 C1868 0.950 . S
H1861 C1873 0.950 . S
H1862 C1870 0.950 . S
H1863 C1872 0.950 . S
H1864 C1874 0.950 . S
H1865 C1876 0.950 . S
H1866 C1878 0.950 . S
H1867 C1879 0.950 . S
C1868 H1860 0.950 . S
C1868 C1869 1.386 . S
C1868 C1870 1.391 . S
C1869 C1868 1.386 . S
C1869 C1873 1.393 . S
C1870 H1862 0.950 . S
C1870 C1868 1.391 . S
C1870 C1871 1.400 . S
C1871 C1870 1.400 . S
C1871 C1872 1.398 . S
C1871 C1877 1.491 . S
C1872 H1863 0.950 . S
C1872 C1871 1.398 . S
C1872 C1873 1.391 . S
C1873 H1861 0.950 . S
C1873 C1869 1.393 . S
C1873 C1872 1.391 . S
C1874 H1864 0.950 . S
C1874 C1875 1.386 . S
C1874 C1876 1.391 . S
C1875 C1874 1.386 . S
C1875 C1879 1.393 . S
C1876 H1865 0.950 . S
C1876 C1874 1.391 . S
C1876 C1877 1.400 . S
C1877 C1871 1.491 . S
C1877 C1876 1.400 . S
C1877 C1878 1.398 . S
C1878 H1866 0.950 . S
C1878 C1877 1.398 . S
C1878 C1879 1.391 . S
C1879 H1867 0.950 . S
C1879 C1875 1.393 . S
C1879 C1878 1.391 . S
H1880 C1888 0.950 . S
H1881 C1893 0.950 . S
H1882 C1890 0.950 . S
H1883 C1892 0.950 . S
H1884 C1894 0.950 . S
H1885 C1896 0.950 . S
H1886 C1898 0.950 . S
H1887 C1899 0.950 . S
C1888 H1880 0.950 . S
C1888 C1889 1.386 . S
C1888 C1890 1.391 . S
C1889 C1888 1.386 . S
C1889 C1893 1.393 1_545 S
C1890 H1882 0.950 . S
C1890 C1888 1.391 . S
C1890 C1891 1.400 . S
C1891 C1890 1.400 . S
C1891 C1892 1.398 1_545 S
C1891 C1897 1.491 . S
C1892 H1883 0.950 . S
C1892 C1891 1.398 1_565 S
C1892 C1893 1.391 . S
C1893 H1881 0.950 . S
C1893 C1889 1.393 1_565 S
C1893 C1892 1.391 . S
C1894 H1884 0.950 . S
C1894 C1895 1.386 1_565 S
C1894 C1896 1.391 . S
C1895 C1894 1.386 1_545 S
C1895 C1899 1.393 . S
C1896 H1885 0.950 . S
C1896 C1894 1.391 . S
C1896 C1897 1.400 1_565 S
C1897 C1891 1.491 . S
C1897 C1896 1.400 1_545 S
C1897 C1898 1.398 . S
C1898 H1886 0.950 . S
C1898 C1897 1.398 . S
C1898 C1899 1.391 . S
C1899 H1887 0.950 . S
C1899 C1895 1.393 . S
C1899 C1898 1.391 . S
H1900 C1908 0.950 . S
H1901 C1913 0.950 . S
H1902 C1910 0.950 . S
H1903 C1912 0.950 . S
H1904 C1914 0.950 . S
H1905 C1916 0.950 . S
H1906 C1918 0.950 . S
H1907 C1919 0.950 . S
C1908 H1900 0.950 . S
C1908 C1909 1.386 . S
C1908 C1910 1.391 . S
C1909 C1908 1.386 . S
C1909 C1913 1.393 . S
C1910 H1902 0.950 . S
C1910 C1908 1.391 . S
C1910 C1911 1.400 . S
C1911 C1910 1.400 . S
C1911 C1912 1.398 . S
C1911 C1917 1.491 . S
C1912 H1903 0.950 . S
C1912 C1911 1.398 . S
C1912 C1913 1.391 . S
C1913 H1901 0.950 . S
C1913 C1909 1.393 . S
C1913 C1912 1.391 . S
C1914 H1904 0.950 . S
C1914 C1915 1.386 . S
C1914 C1916 1.391 . S
C1915 C1914 1.386 . S
C1915 C1919 1.393 . S
C1916 H1905 0.950 . S
C1916 C1914 1.391 . S
C1916 C1917 1.400 . S
C1917 C1911 1.491 . S
C1917 C1916 1.400 . S
C1917 C1918 1.398 . S
C1918 H1906 0.950 . S
C1918 C1917 1.398 . S
C1918 C1919 1.391 . S
C1919 H1907 0.950 . S
C1919 C1915 1.393 . S
C1919 C1918 1.391 . S
H1920 C1928 0.950 . S
H1921 C1933 0.950 . S
H1922 C1930 0.950 . S
H1923 C1932 0.950 . S
H1924 C1934 0.950 . S
H1925 C1936 0.950 . S
H1926 C1938 0.950 . S
H1927 C1939 0.950 . S
C1928 H1920 0.950 . S
C1928 C1929 1.386 . S
C1928 C1930 1.391 . S
C1929 C1928 1.386 . S
C1929 C1933 1.393 . S
C1930 H1922 0.950 . S
C1930 C1928 1.391 . S
C1930 C1931 1.400 . S
C1931 C1930 1.400 . S
C1931 C1932 1.398 . S
C1931 C1937 1.491 . S
C1932 H1923 0.950 . S
C1932 C1931 1.398 . S
C1932 C1933 1.391 . S
C1933 H1921 0.950 . S
C1933 C1929 1.393 . S
C1933 C1932 1.391 . S
C1934 H1924 0.950 . S
C1934 C1935 1.386 . S
C1934 C1936 1.391 . S
C1935 C1934 1.386 . S
C1935 C1939 1.393 . S
C1936 H1925 0.950 . S
C1936 C1934 1.391 . S
C1936 C1937 1.400 . S
C1937 C1931 1.491 . S
C1937 C1936 1.400 . S
C1937 C1938 1.398 . S
C1938 H1926 0.950 . S
C1938 C1937 1.398 . S
C1938 C1939 1.391 . S
C1939 H1927 0.950 . S
C1939 C1935 1.393 . S
C1939 C1938 1.391 . S
H1940 C1948 0.950 . S
H1941 C1953 0.950 . S
H1942 C1950 0.950 . S
H1943 C1952 0.950 . S
H1944 C1954 0.950 . S
H1945 C1956 0.950 . S
H1946 C1958 0.950 . S
H1947 C1959 0.950 . S
C1948 H1940 0.950 . S
C1948 C1949 1.386 . S
C1948 C1950 1.391 . S
C1949 C1948 1.386 . S
C1949 C1953 1.393 . S
C1950 H1942 0.950 . S
C1950 C1948 1.391 . S
C1950 C1951 1.400 . S
C1951 C1950 1.400 . S
C1951 C1952 1.398 . S
C1951 C1957 1.491 . S
C1952 H1943 0.950 . S
C1952 C1951 1.398 . S
C1952 C1953 1.391 . S
C1953 H1941 0.950 . S
C1953 C1949 1.393 . S
C1953 C1952 1.391 . S
C1954 H1944 0.950 . S
C1954 C1955 1.386 . S
C1954 C1956 1.391 . S
C1955 C1954 1.386 . S
C1955 C1959 1.393 . S
C1956 H1945 0.950 . S
C1956 C1954 1.391 . S
C1956 C1957 1.400 . S
C1957 C1951 1.491 . S
C1957 C1956 1.400 . S
C1957 C1958 1.398 . S
C1958 H1946 0.950 . S
C1958 C1957 1.398 . S
C1958 C1959 1.391 . S
C1959 H1947 0.950 . S
C1959 C1955 1.393 . S
C1959 C1958 1.391 . S
H1960 C1968 0.950 . S
H1961 C1973 0.950 . S
H1962 C1970 0.950 . S
H1963 C1972 0.950 . S
H1964 C1974 0.950 . S
H1965 C1976 0.950 . S
H1966 C1978 0.950 . S
H1967 C1979 0.950 . S
C1968 H1960 0.950 . S
C1968 C1969 1.386 . S
C1968 C1970 1.391 . S
C1969 C1968 1.386 . S
C1969 C1973 1.393 . S
C1970 H1962 0.950 . S
C1970 C1968 1.391 . S
C1970 C1971 1.400 . S
C1971 C1970 1.400 . S
C1971 C1972 1.398 . S
C1971 C1977 1.491 . S
C1972 H1963 0.950 . S
C1972 C1971 1.398 . S
C1972 C1973 1.391 . S
C1973 H1961 0.950 . S
C1973 C1969 1.393 . S
C1973 C1972 1.391 . S
C1974 H1964 0.950 . S
C1974 C1975 1.386 . S
C1974 C1976 1.391 . S
C1975 C1974 1.386 . S
C1975 C1979 1.393 . S
C1976 H1965 0.950 . S
C1976 C1974 1.391 . S
C1976 C1977 1.400 . S
C1977 C1971 1.491 . S
C1977 C1976 1.400 . S
C1977 C1978 1.398 . S
C1978 H1966 0.950 . S
C1978 C1977 1.398 . S
C1978 C1979 1.391 . S
C1979 H1967 0.950 . S
C1979 C1975 1.393 . S
C1979 C1978 1.391 . S
H1980 C1988 0.950 . S
H1981 C1993 0.950 . S
H1982 C1990 0.950 . S
H1983 C1992 0.950 . S
H1984 C1994 0.950 . S
H1985 C1996 0.950 . S
H1986 C1998 0.950 . S
H1987 C1999 0.950 . S
C1988 H1980 0.950 . S
C1988 C1989 1.386 . S
C1988 C1990 1.391 . S
C1989 C1988 1.386 . S
C1989 C1993 1.393 . S
C1990 H1982 0.950 . S
C1990 C1988 1.391 . S
C1990 C1991 1.400 . S
C1991 C1990 1.400 . S
C1991 C1992 1.398 . S
C1991 C1997 1.491 . S
C1992 H1983 0.950 . S
C1992 C1991 1.398 . S
C1992 C1993 1.391 . S
C1993 H1981 0.950 . S
C1993 C1989 1.393 . S
C1993 C1992 1.391 . S
C1994 H1984 0.950 . S
C1994 C1995 1.386 . S
C1994 C1996 1.391 . S
C1995 C1994 1.386 . S
C1995 C1999 1.393 . S
C1996 H1985 0.950 . S
C1996 C1994 1.391 . S
C1996 C1997 1.400 . S
C1997 C1991 1.491 . S
C1997 C1996 1.400 . S
C1997 C1998 1.398 . S
C1998 H1986 0.950 . S
C1998 C1997 1.398 . S
C1998 C1999 1.391 . S
C1999 H1987 0.950 . S
C1999 C1995 1.393 . S
C1999 C1998 1.391 . S
H2000 C2008 0.950 . S
H2001 C2013 0.950 . S
H2002 C2010 0.950 . S
H2003 C2012 0.950 . S
H2004 C2014 0.950 . S
H2005 C2016 0.950 . S
H2006 C2018 0.950 . S
H2007 C2019 0.950 . S
C2008 H2000 0.950 . S
C2008 C2009 1.386 . S
C2008 C2010 1.391 . S
C2009 C2008 1.386 . S
C2009 C2013 1.393 . S
C2010 H2002 0.950 . S
C2010 C2008 1.391 . S
C2010 C2011 1.400 . S
C2011 C2010 1.400 . S
C2011 C2012 1.398 . S
C2011 C2017 1.491 . S
C2012 H2003 0.950 . S
C2012 C2011 1.398 . S
C2012 C2013 1.391 . S
C2013 H2001 0.950 . S
C2013 C2009 1.393 . S
C2013 C2012 1.391 . S
C2014 H2004 0.950 . S
C2014 C2015 1.386 . S
C2014 C2016 1.391 . S
C2015 C2014 1.386 . S
C2015 C2019 1.393 . S
C2016 H2005 0.950 . S
C2016 C2014 1.391 . S
C2016 C2017 1.400 . S
C2017 C2011 1.491 . S
C2017 C2016 1.400 . S
C2017 C2018 1.398 . S
C2018 H2006 0.950 . S
C2018 C2017 1.398 . S
C2018 C2019 1.391 . S
C2019 H2007 0.950 . S
C2019 C2015 1.393 . S
C2019 C2018 1.391 . S
H2020 C2028 0.950 . S
H2021 C2033 0.950 . S
H2022 C2030 0.950 . S
H2023 C2032 0.950 . S
H2024 C2034 0.950 . S
H2025 C2036 0.950 . S
H2026 C2038 0.950 . S
H2027 C2039 0.950 . S
C2028 H2020 0.950 . S
C2028 C2029 1.386 . S
C2028 C2030 1.391 . S
C2029 C2028 1.386 . S
C2029 C2033 1.393 . S
C2030 H2022 0.950 . S
C2030 C2028 1.391 . S
C2030 C2031 1.400 . S
C2031 C2030 1.400 . S
C2031 C2032 1.398 . S
C2031 C2037 1.491 . S
C2032 H2023 0.950 . S
C2032 C2031 1.398 . S
C2032 C2033 1.391 . S
C2033 H2021 0.950 . S
C2033 C2029 1.393 . S
C2033 C2032 1.391 . S
C2034 H2024 0.950 . S
C2034 C2035 1.386 . S
C2034 C2036 1.391 . S
C2035 C2034 1.386 . S
C2035 C2039 1.393 . S
C2036 H2025 0.950 . S
C2036 C2034 1.391 . S
C2036 C2037 1.400 . S
C2037 C2031 1.491 . S
C2037 C2036 1.400 . S
C2037 C2038 1.398 . S
C2038 H2026 0.950 . S
C2038 C2037 1.398 . S
C2038 C2039 1.391 . S
C2039 H2027 0.950 . S
C2039 C2035 1.393 . S
C2039 C2038 1.391 . S
H2040 C2048 0.950 . S
H2041 C2053 0.950 . S
H2042 C2050 0.950 . S
H2043 C2052 0.950 . S
H2044 C2054 0.950 . S
H2045 C2056 0.950 . S
H2046 C2058 0.950 . S
H2047 C2059 0.950 . S
C2048 H2040 0.950 . S
C2048 C2049 1.386 . S
C2048 C2050 1.391 . S
C2049 C2048 1.386 . S
C2049 C2053 1.393 . S
C2050 H2042 0.950 . S
C2050 C2048 1.391 . S
C2050 C2051 1.400 . S
C2051 C2050 1.400 . S
C2051 C2052 1.398 . S
C2051 C2057 1.491 . S
C2052 H2043 0.950 . S
C2052 C2051 1.398 . S
C2052 C2053 1.391 . S
C2053 H2041 0.950 . S
C2053 C2049 1.393 . S
C2053 C2052 1.391 . S
C2054 H2044 0.950 . S
C2054 C2055 1.386 . S
C2054 C2056 1.391 . S
C2055 C2054 1.386 . S
C2055 C2059 1.393 . S
C2056 H2045 0.950 . S
C2056 C2054 1.391 . S
C2056 C2057 1.400 . S
C2057 C2051 1.491 . S
C2057 C2056 1.400 . S
C2057 C2058 1.398 . S
C2058 H2046 0.950 . S
C2058 C2057 1.398 . S
C2058 C2059 1.391 . S
C2059 H2047 0.950 . S
C2059 C2055 1.393 . S
C2059 C2058 1.391 . S
H2060 C2068 0.950 . S
H2061 C2073 0.950 . S
H2062 C2070 0.950 . S
H2063 C2072 0.950 . S
H2064 C2074 0.950 . S
H2065 C2076 0.950 . S
H2066 C2078 0.950 . S
H2067 C2079 0.950 . S
C2068 H2060 0.950 . S
C2068 C2069 1.386 . S
C2068 C2070 1.391 . S
C2069 C2068 1.386 . S
C2069 C2073 1.393 . S
C2070 H2062 0.950 . S
C2070 C2068 1.391 . S
C2070 C2071 1.400 . S
C2071 C2070 1.400 . S
C2071 C2072 1.398 . S
C2071 C2077 1.491 . S
C2072 H2063 0.950 . S
C2072 C2071 1.398 . S
C2072 C2073 1.391 . S
C2073 H2061 0.950 . S
C2073 C2069 1.393 . S
C2073 C2072 1.391 . S
C2074 H2064 0.950 . S
C2074 C2075 1.386 . S
C2074 C2076 1.391 . S
C2075 C2074 1.386 . S
C2075 C2079 1.393 . S
C2076 H2065 0.950 . S
C2076 C2074 1.391 . S
C2076 C2077 1.400 . S
C2077 C2071 1.491 . S
C2077 C2076 1.400 . S
C2077 C2078 1.398 . S
C2078 H2066 0.950 . S
C2078 C2077 1.398 . S
C2078 C2079 1.391 . S
C2079 H2067 0.950 . S
C2079 C2075 1.393 . S
C2079 C2078 1.391 . S
H2080 C2088 0.950 . S
H2081 C2093 0.950 . S
H2082 C2090 0.950 . S
H2083 C2092 0.950 . S
H2084 C2094 0.950 . S
H2085 C2096 0.950 . S
H2086 C2098 0.950 . S
H2087 C2099 0.950 . S
C2088 H2080 0.950 . S
C2088 C2089 1.386 . S
C2088 C2090 1.391 . S
C2089 C2088 1.386 . S
C2089 C2093 1.393 . S
C2090 H2082 0.950 . S
C2090 C2088 1.391 . S
C2090 C2091 1.400 . S
C2091 C2090 1.400 . S
C2091 C2092 1.398 . S
C2091 C2097 1.491 . S
C2092 H2083 0.950 . S
C2092 C2091 1.398 . S
C2092 C2093 1.391 . S
C2093 H2081 0.950 . S
C2093 C2089 1.393 . S
C2093 C2092 1.391 . S
C2094 H2084 0.950 . S
C2094 C2095 1.386 . S
C2094 C2096 1.391 . S
C2095 C2094 1.386 . S
C2095 C2099 1.393 . S
C2096 H2085 0.950 . S
C2096 C2094 1.391 . S
C2096 C2097 1.400 . S
C2097 C2091 1.491 . S
C2097 C2096 1.400 . S
C2097 C2098 1.398 . S
C2098 H2086 0.950 . S
C2098 C2097 1.398 . S
C2098 C2099 1.391 . S
C2099 H2087 0.950 . S
C2099 C2095 1.393 . S
C2099 C2098 1.391 . S
H2100 C2108 0.950 . S
H2101 C2113 0.950 . S
H2102 C2110 0.950 . S
H2103 C2112 0.950 . S
H2104 C2114 0.950 . S
H2105 C2116 0.950 . S
H2106 C2118 0.950 . S
H2107 C2119 0.950 . S
C2108 H2100 0.950 . S
C2108 C2109 1.386 . S
C2108 C2110 1.391 . S
C2109 C2108 1.386 . S
C2109 C2113 1.393 . S
C2110 H2102 0.950 . S
C2110 C2108 1.391 . S
C2110 C2111 1.400 . S
C2111 C2110 1.400 . S
C2111 C2112 1.398 . S
C2111 C2117 1.491 . S
C2112 H2103 0.950 . S
C2112 C2111 1.398 . S
C2112 C2113 1.391 . S
C2113 H2101 0.950 . S
C2113 C2109 1.393 . S
C2113 C2112 1.391 . S
C2114 H2104 0.950 . S
C2114 C2115 1.386 . S
C2114 C2116 1.391 . S
C2115 C2114 1.386 . S
C2115 C2119 1.393 . S
C2116 H2105 0.950 . S
C2116 C2114 1.391 . S
C2116 C2117 1.400 . S
C2117 C2111 1.491 . S
C2117 C2116 1.400 . S
C2117 C2118 1.398 . S
C2118 H2106 0.950 . S
C2118 C2117 1.398 . S
C2118 C2119 1.391 . S
C2119 H2107 0.950 . S
C2119 C2115 1.393 . S
C2119 C2118 1.391 . S
H2120 C2128 0.950 . S
H2121 C2133 0.950 . S
H2122 C2130 0.950 . S
H2123 C2132 0.950 . S
H2124 C2134 0.950 . S
H2125 C2136 0.950 . S
H2126 C2138 0.950 . S
H2127 C2139 0.950 . S
C2128 H2120 0.950 . S
C2128 C2129 1.386 . S
C2128 C2130 1.391 . S
C2129 C2128 1.386 . S
C2129 C2133 1.393 . S
C2130 H2122 0.950 . S
C2130 C2128 1.391 . S
C2130 C2131 1.400 . S
C2131 C2130 1.400 . S
C2131 C2132 1.398 . S
C2131 C2137 1.491 . S
C2132 H2123 0.950 . S
C2132 C2131 1.398 . S
C2132 C2133 1.391 . S
C2133 H2121 0.950 . S
C2133 C2129 1.393 . S
C2133 C2132 1.391 . S
C2134 H2124 0.950 . S
C2134 C2135 1.386 . S
C2134 C2136 1.391 . S
C2135 C2134 1.386 . S
C2135 C2139 1.393 . S
C2136 H2125 0.950 . S
C2136 C2134 1.391 . S
C2136 C2137 1.400 . S
C2137 C2131 1.491 . S
C2137 C2136 1.400 . S
C2137 C2138 1.398 . S
C2138 H2126 0.950 . S
C2138 C2137 1.398 . S
C2138 C2139 1.391 . S
C2139 H2127 0.950 . S
C2139 C2135 1.393 . S
C2139 C2138 1.391 . S
H2140 C2148 0.950 . S
H2141 C2153 0.950 . S
H2142 C2150 0.950 . S
H2143 C2152 0.950 . S
H2144 C2154 0.950 . S
H2145 C2156 0.950 . S
H2146 C2158 0.950 . S
H2147 C2159 0.950 . S
C2148 H2140 0.950 . S
C2148 C2149 1.386 . S
C2148 C2150 1.391 . S
C2149 C2148 1.386 . S
C2149 C2153 1.393 . S
C2150 H2142 0.950 . S
C2150 C2148 1.391 . S
C2150 C2151 1.400 . S
C2151 C2150 1.400 . S
C2151 C2152 1.398 . S
C2151 C2157 1.491 . S
C2152 H2143 0.950 . S
C2152 C2151 1.398 . S
C2152 C2153 1.391 . S
C2153 H2141 0.950 . S
C2153 C2149 1.393 . S
C2153 C2152 1.391 . S
C2154 H2144 0.950 . S
C2154 C2155 1.386 . S
C2154 C2156 1.391 . S
C2155 C2154 1.386 . S
C2155 C2159 1.393 . S
C2156 H2145 0.950 . S
C2156 C2154 1.391 . S
C2156 C2157 1.400 . S
C2157 C2151 1.491 . S
C2157 C2156 1.400 . S
C2157 C2158 1.398 . S
C2158 H2146 0.950 . S
C2158 C2157 1.398 . S
C2158 C2159 1.391 . S
C2159 H2147 0.950 . S
C2159 C2155 1.393 . S
C2159 C2158 1.391 . S
H2160 C2168 0.950 . S
H2161 C2173 0.950 . S
H2162 C2170 0.950 . S
H2163 C2172 0.950 . S
H2164 C2174 0.950 . S
H2165 C2176 0.950 . S
H2166 C2178 0.950 . S
H2167 C2179 0.950 . S
C2168 H2160 0.950 . S
C2168 C2169 1.386 . S
C2168 C2170 1.391 . S
C2169 C2168 1.386 . S
C2169 C2173 1.393 . S
C2170 H2162 0.950 . S
C2170 C2168 1.391 . S
C2170 C2171 1.400 . S
C2171 C2170 1.400 . S
C2171 C2172 1.398 . S
C2171 C2177 1.491 . S
C2172 H2163 0.950 . S
C2172 C2171 1.398 . S
C2172 C2173 1.391 . S
C2173 H2161 0.950 . S
C2173 C2169 1.393 . S
C2173 C2172 1.391 . S
C2174 H2164 0.950 . S
C2174 C2175 1.386 . S
C2174 C2176 1.391 . S
C2175 C2174 1.386 . S
C2175 C2179 1.393 . S
C2176 H2165 0.950 . S
C2176 C2174 1.391 . S
C2176 C2177 1.400 . S
C2177 C2171 1.491 . S
C2177 C2176 1.400 . S
C2177 C2178 1.398 . S
C2178 H2166 0.950 . S
C2178 C2177 1.398 . S
C2178 C2179 1.391 . S
C2179 H2167 0.950 . S
C2179 C2175 1.393 . S
C2179 C2178 1.391 . S
H2180 C2188 0.950 . S
H2181 C2193 0.950 . S
H2182 C2190 0.950 . S
H2183 C2192 0.950 . S
H2184 C2194 0.950 . S
H2185 C2196 0.950 . S
H2186 C2198 0.950 . S
H2187 C2199 0.950 . S
C2188 H2180 0.950 . S
C2188 C2189 1.386 . S
C2188 C2190 1.391 . S
C2189 C2188 1.386 . S
C2189 C2193 1.393 . S
C2190 H2182 0.950 . S
C2190 C2188 1.391 . S
C2190 C2191 1.400 . S
C2191 C2190 1.400 . S
C2191 C2192 1.398 . S
C2191 C2197 1.491 . S
C2192 H2183 0.950 . S
C2192 C2191 1.398 . S
C2192 C2193 1.391 . S
C2193 H2181 0.950 . S
C2193 C2189 1.393 . S
C2193 C2192 1.391 . S
C2194 H2184 0.950 . S
C2194 C2195 1.386 . S
C2194 C2196 1.391 . S
C2195 C2194 1.386 . S
C2195 C2199 1.393 . S
C2196 H2185 0.950 . S
C2196 C2194 1.391 . S
C2196 C2197 1.400 . S
C2197 C2191 1.491 . S
C2197 C2196 1.400 . S
C2197 C2198 1.398 . S
C2198 H2186 0.950 . S
C2198 C2197 1.398 . S
C2198 C2199 1.391 . S
C2199 H2187 0.950 . S
C2199 C2195 1.393 . S
C2199 C2198 1.391 . S
H2200 C2208 0.950 . S
H2201 C2213 0.950 . S
H2202 C2210 0.950 . S
H2203 C2212 0.950 . S
H2204 C2214 0.950 . S
H2205 C2216 0.950 . S
H2206 C2218 0.950 . S
H2207 C2219 0.950 . S
C2208 H2200 0.950 . S
C2208 C2209 1.386 . S
C2208 C2210 1.391 . S
C2209 C2208 1.386 . S
C2209 C2213 1.393 . S
C2210 H2202 0.950 . S
C2210 C2208 1.391 . S
C2210 C2211 1.400 . S
C2211 C2210 1.400 . S
C2211 C2212 1.398 . S
C2211 C2217 1.491 . S
C2212 H2203 0.950 . S
C2212 C2211 1.398 . S
C2212 C2213 1.391 . S
C2213 H2201 0.950 . S
C2213 C2209 1.393 . S
C2213 C2212 1.391 . S
C2214 H2204 0.950 . S
C2214 C2215 1.386 . S
C2214 C2216 1.391 . S
C2215 C2214 1.386 . S
C2215 C2219 1.393 . S
C2216 H2205 0.950 . S
C2216 C2214 1.391 . S
C2216 C2217 1.400 . S
C2217 C2211 1.491 . S
C2217 C2216 1.400 . S
C2217 C2218 1.398 . S
C2218 H2206 0.950 . S
C2218 C2217 1.398 . S
C2218 C2219 1.391 . S
C2219 H2207 0.950 . S
C2219 C2215 1.393 . S
C2219 C2218 1.391 . S
H2220 C2228 0.950 . S
H2221 C2233 0.950 . S
H2222 C2230 0.950 . S
H2223 C2232 0.950 . S
H2224 C2234 0.950 . S
H2225 C2236 0.950 . S
H2226 C2238 0.950 . S
H2227 C2239 0.950 . S
C2228 H2220 0.950 . S
C2228 C2229 1.386 . S
C2228 C2230 1.391 . S
C2229 C2228 1.386 . S
C2229 C2233 1.393 . S
C2230 H2222 0.950 . S
C2230 C2228 1.391 . S
C2230 C2231 1.400 . S
C2231 C2230 1.400 . S
C2231 C2232 1.398 . S
C2231 C2237 1.491 . S
C2232 H2223 0.950 . S
C2232 C2231 1.398 . S
C2232 C2233 1.391 . S
C2233 H2221 0.950 . S
C2233 C2229 1.393 . S
C2233 C2232 1.391 . S
C2234 H2224 0.950 . S
C2234 C2235 1.386 . S
C2234 C2236 1.391 . S
C2235 C2234 1.386 . S
C2235 C2239 1.393 . S
C2236 H2225 0.950 . S
C2236 C2234 1.391 . S
C2236 C2237 1.400 . S
C2237 C2231 1.491 . S
C2237 C2236 1.400 . S
C2237 C2238 1.398 . S
C2238 H2226 0.950 . S
C2238 C2237 1.398 . S
C2238 C2239 1.391 . S
C2239 H2227 0.950 . S
C2239 C2235 1.393 . S
C2239 C2238 1.391 . S
H2240 C2248 0.950 . S
H2241 C2253 0.950 . S
H2242 C2250 0.950 . S
H2243 C2252 0.950 . S
H2244 C2254 0.950 . S
H2245 C2256 0.950 . S
H2246 C2258 0.950 . S
H2247 C2259 0.950 . S
C2248 H2240 0.950 . S
C2248 C2249 1.386 . S
C2248 C2250 1.391 . S
C2249 C2248 1.386 . S
C2249 C2253 1.393 . S
C2250 H2242 0.950 . S
C2250 C2248 1.391 . S
C2250 C2251 1.400 . S
C2251 C2250 1.400 . S
C2251 C2252 1.398 . S
C2251 C2257 1.491 . S
C2252 H2243 0.950 . S
C2252 C2251 1.398 . S
C2252 C2253 1.391 . S
C2253 H2241 0.950 . S
C2253 C2249 1.393 . S
C2253 C2252 1.391 . S
C2254 H2244 0.950 . S
C2254 C2255 1.386 . S
C2254 C2256 1.391 . S
C2255 C2254 1.386 . S
C2255 C2259 1.393 . S
C2256 H2245 0.950 . S
C2256 C2254 1.391 . S
C2256 C2257 1.400 . S
C2257 C2251 1.491 . S
C2257 C2256 1.400 . S
C2257 C2258 1.398 . S
C2258 H2246 0.950 . S
C2258 C2257 1.398 . S
C2258 C2259 1.391 . S
C2259 H2247 0.950 . S
C2259 C2255 1.393 . S
C2259 C2258 1.391 . S
H2260 C2268 0.950 . S
H2261 C2273 0.950 . S
H2262 C2270 0.950 . S
H2263 C2272 0.950 . S
H2264 C2274 0.950 . S
H2265 C2276 0.950 . S
H2266 C2278 0.950 . S
H2267 C2279 0.950 . S
C2268 H2260 0.950 . S
C2268 C2269 1.386 . S
C2268 C2270 1.391 . S
C2269 C2268 1.386 . S
C2269 C2273 1.393 . S
C2270 H2262 0.950 . S
C2270 C2268 1.391 . S
C2270 C2271 1.400 . S
C2271 C2270 1.400 . S
C2271 C2272 1.398 . S
C2271 C2277 1.491 . S
C2272 H2263 0.950 . S
C2272 C2271 1.398 . S
C2272 C2273 1.391 . S
C2273 H2261 0.950 . S
C2273 C2269 1.393 . S
C2273 C2272 1.391 . S
C2274 H2264 0.950 . S
C2274 C2275 1.386 . S
C2274 C2276 1.391 . S
C2275 C2274 1.386 . S
C2275 C2279 1.393 . S
C2276 H2265 0.950 . S
C2276 C2274 1.391 . S
C2276 C2277 1.400 . S
C2277 C2271 1.491 . S
C2277 C2276 1.400 . S
C2277 C2278 1.398 . S
C2278 H2266 0.950 . S
C2278 C2277 1.398 . S
C2278 C2279 1.391 . S
C2279 H2267 0.950 . S
C2279 C2275 1.393 . S
C2279 C2278 1.391 . S
H2280 C2288 0.950 . S
H2281 C2293 0.950 . S
H2282 C2290 0.950 . S
H2283 C2292 0.950 . S
H2284 C2294 0.950 . S
H2285 C2296 0.950 . S
H2286 C2298 0.950 . S
H2287 C2299 0.950 . S
C2288 H2280 0.950 . S
C2288 C2289 1.386 . S
C2288 C2290 1.391 . S
C2289 C2288 1.386 . S
C2289 C2293 1.393 . S
C2290 H2282 0.950 . S
C2290 C2288 1.391 . S
C2290 C2291 1.400 . S
C2291 C2290 1.400 . S
C2291 C2292 1.398 . S
C2291 C2297 1.491 . S
C2292 H2283 0.950 . S
C2292 C2291 1.398 . S
C2292 C2293 1.391 . S
C2293 H2281 0.950 . S
C2293 C2289 1.393 . S
C2293 C2292 1.391 . S
C2294 H2284 0.950 . S
C2294 C2295 1.386 . S
C2294 C2296 1.391 . S
C2295 C2294 1.386 . S
C2295 C2299 1.393 . S
C2296 H2285 0.950 . S
C2296 C2294 1.391 . S
C2296 C2297 1.400 . S
C2297 C2291 1.491 . S
C2297 C2296 1.400 . S
C2297 C2298 1.398 . S
C2298 H2286 0.950 . S
C2298 C2297 1.398 . S
C2298 C2299 1.391 . S
C2299 H2287 0.950 . S
C2299 C2295 1.393 . S
C2299 C2298 1.391 . S
H2300 C2308 0.950 . S
H2301 C2313 0.950 . S
H2302 C2310 0.950 . S
H2303 C2312 0.950 . S
H2304 C2314 0.950 . S
H2305 C2316 0.950 . S
H2306 C2318 0.950 . S
H2307 C2319 0.950 . S
C2308 H2300 0.950 . S
C2308 C2309 1.386 . S
C2308 C2310 1.391 . S
C2309 C2308 1.386 . S
C2309 C2313 1.393 . S
C2310 H2302 0.950 . S
C2310 C2308 1.391 . S
C2310 C2311 1.400 . S
C2311 C2310 1.400 . S
C2311 C2312 1.398 . S
C2311 C2317 1.491 . S
C2312 H2303 0.950 . S
C2312 C2311 1.398 . S
C2312 C2313 1.391 . S
C2313 H2301 0.950 . S
C2313 C2309 1.393 . S
C2313 C2312 1.391 . S
C2314 H2304 0.950 . S
C2314 C2315 1.386 . S
C2314 C2316 1.391 . S
C2315 C2314 1.386 . S
C2315 C2319 1.393 . S
C2316 H2305 0.950 . S
C2316 C2314 1.391 . S
C2316 C2317 1.400 . S
C2317 C2311 1.491 . S
C2317 C2316 1.400 . S
C2317 C2318 1.398 . S
C2318 H2306 0.950 . S
C2318 C2317 1.398 . S
C2318 C2319 1.391 . S
C2319 H2307 0.950 . S
C2319 C2315 1.393 . S
C2319 C2318 1.391 . S
H2320 C2328 0.950 . S
H2321 C2333 0.950 . S
H2322 C2330 0.950 . S
H2323 C2332 0.950 . S
H2324 C2334 0.950 . S
H2325 C2336 0.950 . S
H2326 C2338 0.950 . S
H2327 C2339 0.950 . S
C2328 H2320 0.950 . S
C2328 C2329 1.386 . S
C2328 C2330 1.391 . S
C2329 C2328 1.386 . S
C2329 C2333 1.393 . S
C2330 H2322 0.950 . S
C2330 C2328 1.391 . S
C2330 C2331 1.400 . S
C2331 C2330 1.400 . S
C2331 C2332 1.398 . S
C2331 C2337 1.491 . S
C2332 H2323 0.950 . S
C2332 C2331 1.398 . S
C2332 C2333 1.391 . S
C2333 H2321 0.950 . S
C2333 C2329 1.393 . S
C2333 C2332 1.391 . S
C2334 H2324 0.950 . S
C2334 C2335 1.386 . S
C2334 C2336 1.391 . S
C2335 C2334 1.386 . S
C2335 C2339 1.393 . S
C2336 H2325 0.950 . S
C2336 C2334 1.391 . S
C2336 C2337 1.400 . S
C2337 C2331 1.491 . S
C2337 C2336 1.400 . S
C2337 C2338 1.398 . S
C2338 H2326 0.950 . S
C2338 C2337 1.398 . S
C2338 C2339 1.391 . S
C2339 H2327 0.950 . S
C2339 C2335 1.393 . S
C2339 C2338 1.391 . S
H2340 C2348 0.950 . S
H2341 C2353 0.950 . S
H2342 C2350 0.950 . S
H2343 C2352 0.950 . S
H2344 C2354 0.950 . S
H2345 C2356 0.950 . S
H2346 C2358 0.950 . S
H2347 C2359 0.950 . S
C2348 H2340 0.950 . S
C2348 C2349 1.386 . S
C2348 C2350 1.391 . S
C2349 C2348 1.386 . S
C2349 C2353 1.393 . S
C2350 H2342 0.950 . S
C2350 C2348 1.391 . S
C2350 C2351 1.400 . S
C2351 C2350 1.400 . S
C2351 C2352 1.398 . S
C2351 C2357 1.491 . S
C2352 H2343 0.950 . S
C2352 C2351 1.398 . S
C2352 C2353 1.391 . S
C2353 H2341 0.950 . S
C2353 C2349 1.393 . S
C2353 C2352 1.391 . S
C2354 H2344 0.950 . S
C2354 C2355 1.386 . S
C2354 C2356 1.391 . S
C2355 C2354 1.386 . S
C2355 C2359 1.393 . S
C2356 H2345 0.950 . S
C2356 C2354 1.391 . S
C2356 C2357 1.400 . S
C2357 C2351 1.491 . S
C2357 C2356 1.400 . S
C2357 C2358 1.398 . S
C2358 H2346 0.950 . S
C2358 C2357 1.398 . S
C2358 C2359 1.391 . S
C2359 H2347 0.950 . S
C2359 C2355 1.393 . S
C2359 C2358 1.391 . S
H2360 C2368 0.950 . S
H2361 C2373 0.950 . S
H2362 C2370 0.950 . S
H2363 C2372 0.950 . S
H2364 C2374 0.950 . S
H2365 C2376 0.950 . S
H2366 C2378 0.950 . S
H2367 C2379 0.950 . S
C2368 H2360 0.950 . S
C2368 C2369 1.386 . S
C2368 C2370 1.391 . S
C2369 C2368 1.386 . S
C2369 C2373 1.393 . S
C2370 H2362 0.950 . S
C2370 C2368 1.391 . S
C2370 C2371 1.400 . S
C2371 C2370 1.400 . S
C2371 C2372 1.398 . S
C2371 C2377 1.491 . S
C2372 H2363 0.950 . S
C2372 C2371 1.398 . S
C2372 C2373 1.391 . S
C2373 H2361 0.950 . S
C2373 C2369 1.393 . S
C2373 C2372 1.391 . S
C2374 H2364 0.950 . S
C2374 C2375 1.386 . S
C2374 C2376 1.391 . S
C2375 C2374 1.386 . S
C2375 C2379 1.393 . S
C2376 H2365 0.950 . S
C2376 C2374 1.391 . S
C2376 C2377 1.400 . S
C2377 C2371 1.491 . S
C2377 C2376 1.400 . S
C2377 C2378 1.398 . S
C2378 H2366 0.950 . S
C2378 C2377 1.398 . S
C2378 C2379 1.391 . S
C2379 H2367 0.950 . S
C2379 C2375 1.393 . S
C2379 C2378 1.391 . S
H2380 C2388 0.950 . S
H2381 C2393 0.950 . S
H2382 C2390 0.950 . S
H2383 C2392 0.950 . S
H2384 C2394 0.950 . S
H2385 C2396 0.950 . S
H2386 C2398 0.950 . S
H2387 C2399 0.950 . S
C2388 H2380 0.950 . S
C2388 C2389 1.386 . S
C2388 C2390 1.391 . S
C2389 C2388 1.386 . S
C2389 C2393 1.393 . S
C2390 H2382 0.950 . S
C2390 C2388 1.391 . S
C2390 C2391 1.400 . S
C2391 C2390 1.400 . S
C2391 C2392 1.398 . S
C2391 C2397 1.491 . S
C2392 H2383 0.950 . S
C2392 C2391 1.398 . S
C2392 C2393 1.391 . S
C2393 H2381 0.950 . S
C2393 C2389 1.393 . S
C2393 C2392 1.391 . S
C2394 H2384 0.950 . S
C2394 C2395 1.386 . S
C2394 C2396 1.391 . S
C2395 C2394 1.386 . S
C2395 C2399 1.393 . S
C2396 H2385 0.950 . S
C2396 C2394 1.391 . S
C2396 C2397 1.400 . S
C2397 C2391 1.491 . S
C2397 C2396 1.400 . S
C2397 C2398 1.398 . S
C2398 H2386 0.950 . S
C2398 C2397 1.398 . S
C2398 C2399 1.391 . S
C2399 H2387 0.950 . S
C2399 C2395 1.393 . S
C2399 C2398 1.391 . S
H2400 C2408 0.950 . S
H2401 C2413 0.950 . S
H2402 C2410 0.950 . S
H2403 C2412 0.950 . S
H2404 C2414 0.950 . S
H2405 C2416 0.950 . S
H2406 C2418 0.950 . S
H2407 C2419 0.950 . S
C2408 H2400 0.950 . S
C2408 C2409 1.386 1_565 S
C2408 C2410 1.391 . S
C2409 C2408 1.386 1_545 S
C2409 C2413 1.393 . S
C2410 H2402 0.950 . S
C2410 C2408 1.391 . S
C2410 C2411 1.400 . S
C2411 C2410 1.400 . S
C2411 C2412 1.398 1_565 S
C2411 C2417 1.491 . S
C2412 H2403 0.950 . S
C2412 C2411 1.398 1_545 S
C2412 C2413 1.391 . S
C2413 H2401 0.950 . S
C2413 C2409 1.393 . S
C2413 C2412 1.391 . S
C2414 H2404 0.950 . S
C2414 C2415 1.386 1_545 S
C2414 C2416 1.391 . S
C2415 C2414 1.386 1_565 S
C2415 C2419 1.393 . S
C2416 H2405 0.950 . S
C2416 C2414 1.391 . S
C2416 C2417 1.400 1_545 S
C2417 C2411 1.491 . S
C2417 C2416 1.400 1_565 S
C2417 C2418 1.398 . S
C2418 H2406 0.950 . S
C2418 C2417 1.398 . S
C2418 C2419 1.391 . S
C2419 H2407 0.950 . S
C2419 C2415 1.393 . S
C2419 C2418 1.391 . S
H2420 C2428 0.950 . S
H2421 C2433 0.950 . S
H2422 C2430 0.950 . S
H2423 C2432 0.950 . S
H2424 C2434 0.950 . S
H2425 C2436 0.950 . S
H2426 C2438 0.950 . S
H2427 C2439 0.950 . S
C2428 H2420 0.950 . S
C2428 C2429 1.386 . S
C2428 C2430 1.391 . S
C2429 C2428 1.386 . S
C2429 C2433 1.393 . S
C2430 H2422 0.950 . S
C2430 C2428 1.391 . S
C2430 C2431 1.400 . S
C2431 C2430 1.400 . S
C2431 C2432 1.398 . S
C2431 C2437 1.491 . S
C2432 H2423 0.950 . S
C2432 C2431 1.398 . S
C2432 C2433 1.391 . S
C2433 H2421 0.950 . S
C2433 C2429 1.393 . S
C2433 C2432 1.391 . S
C2434 H2424 0.950 . S
C2434 C2435 1.386 . S
C2434 C2436 1.391 . S
C2435 C2434 1.386 . S
C2435 C2439 1.393 . S
C2436 H2425 0.950 . S
C2436 C2434 1.391 . S
C2436 C2437 1.400 . S
C2437 C2431 1.491 . S
C2437 C2436 1.400 . S
C2437 C2438 1.398 . S
C2438 H2426 0.950 . S
C2438 C2437 1.398 . S
C2438 C2439 1.391 . S
C2439 H2427 0.950 . S
C2439 C2435 1.393 . S
C2439 C2438 1.391 . S
H2440 C2448 0.950 . S
H2441 C2453 0.950 . S
H2442 C2450 0.950 . S
H2443 C2452 0.950 . S
H2444 C2454 0.950 . S
H2445 C2456 0.950 . S
H2446 C2458 0.950 . S
H2447 C2459 0.950 . S
C2448 H2440 0.950 . S
C2448 C2449 1.386 . S
C2448 C2450 1.391 . S
C2449 C2448 1.386 . S
C2449 C2453 1.393 . S
C2450 H2442 0.950 . S
C2450 C2448 1.391 . S
C2450 C2451 1.400 . S
C2451 C2450 1.400 . S
C2451 C2452 1.398 . S
C2451 C2457 1.491 . S
C2452 H2443 0.950 . S
C2452 C2451 1.398 . S
C2452 C2453 1.391 . S
C2453 H2441 0.950 . S
C2453 C2449 1.393 . S
C2453 C2452 1.391 . S
C2454 H2444 0.950 . S
C2454 C2455 1.386 . S
C2454 C2456 1.391 . S
C2455 C2454 1.386 . S
C2455 C2459 1.393 . S
C2456 H2445 0.950 . S
C2456 C2454 1.391 . S
C2456 C2457 1.400 . S
C2457 C2451 1.491 . S
C2457 C2456 1.400 . S
C2457 C2458 1.398 . S
C2458 H2446 0.950 . S
C2458 C2457 1.398 . S
C2458 C2459 1.391 . S
C2459 H2447 0.950 . S
C2459 C2455 1.393 . S
C2459 C2458 1.391 . S
H2460 C2468 0.950 . S
H2461 C2473 0.950 . S
H2462 C2470 0.950 . S
H2463 C2472 0.950 . S
H2464 C2474 0.930 1_545 S
H2465 C2476 0.950 . S
H2466 C2478 0.950 . S
H2467 C2479 0.950 . S
C2468 H2460 0.950 . S
C2468 C2469 1.386 1_565 S
C2468 C2470 1.391 . S
C2469 C2468 1.386 1_545 S
C2469 C2473 1.393 . S
C2470 H2462 0.950 . S
C2470 C2468 1.391 . S
C2470 C2471 1.400 . S
C2471 C2470 1.400 . S
C2471 C2472 1.398 1_565 S
C2471 C2477 1.491 . S
C2472 H2463 0.950 . S
C2472 C2471 1.398 1_545 S
C2472 C2473 1.391 . S
C2473 H2461 0.950 . S
C2473 C2469 1.393 . S
C2473 C2472 1.391 . S
C2474 H2464 0.930 1_565 S
C2474 C2475 1.414 . S
C2474 C2476 1.384 1_565 S
C2475 C2474 1.414 . S
C2475 C2479 1.393 . S
C2476 H2465 0.950 . S
C2476 C2474 1.384 1_545 S
C2476 C2477 1.400 1_545 S
C2477 C2471 1.491 . S
C2477 C2476 1.400 1_565 S
C2477 C2478 1.398 . S
C2478 H2466 0.950 . S
C2478 C2477 1.398 . S
C2478 C2479 1.391 . S
C2479 H2467 0.950 . S
C2479 C2475 1.393 . S
C2479 C2478 1.391 . S
H2480 C2488 0.950 . S
H2481 C2493 0.950 . S
H2482 C2490 0.950 . S
H2483 C2492 0.950 . S
H2484 C2494 0.974 . S
H2485 C2496 0.950 . S
H2486 C2498 0.950 . S
H2487 C2499 0.950 . S
C2488 H2480 0.950 . S
C2488 C2489 1.386 1_545 S
C2488 C2490 1.391 . S
C2489 C2488 1.386 1_565 S
C2489 C2493 1.393 . S
C2490 H2482 0.950 . S
C2490 C2488 1.391 . S
C2490 C2491 1.400 . S
C2491 C2490 1.400 . S
C2491 C2492 1.398 1_545 S
C2491 C2497 1.491 . S
C2492 H2483 0.950 . S
C2492 C2491 1.398 1_565 S
C2492 C2493 1.391 . S
C2493 H2481 0.950 . S
C2493 C2489 1.393 . S
C2493 C2492 1.391 . S
C2494 H2484 0.974 . S
C2494 C2495 1.353 1_565 S
C2494 C2496 1.401 . S
C2495 C2494 1.353 1_545 S
C2495 C2499 1.393 . S
C2496 H2485 0.950 . S
C2496 C2494 1.401 . S
C2496 C2497 1.400 1_565 S
C2497 C2491 1.491 . S
C2497 C2496 1.400 1_545 S
C2497 C2498 1.398 . S
C2498 H2486 0.950 . S
C2498 C2497 1.398 . S
C2498 C2499 1.391 . S
C2499 H2487 0.950 . S
C2499 C2495 1.393 . S
C2499 C2498 1.391 . S
H2500 C2508 0.950 . S
H2501 C2513 0.950 . S
H2502 C2510 0.950 . S
H2503 C2512 0.950 . S
H2504 C2514 0.950 . S
H2505 C2516 0.950 . S
H2506 C2518 0.950 . S
H2507 C2519 0.950 . S
C2508 H2500 0.950 . S
C2508 C2509 1.386 . S
C2508 C2510 1.391 . S
C2509 C2508 1.386 . S
C2509 C2513 1.393 . S
C2510 H2502 0.950 . S
C2510 C2508 1.391 . S
C2510 C2511 1.400 . S
C2511 C2510 1.400 . S
C2511 C2512 1.398 . S
C2511 C2517 1.491 . S
C2512 H2503 0.950 . S
C2512 C2511 1.398 . S
C2512 C2513 1.391 . S
C2513 H2501 0.950 . S
C2513 C2509 1.393 . S
C2513 C2512 1.391 . S
C2514 H2504 0.950 . S
C2514 C2515 1.386 . S
C2514 C2516 1.391 . S
C2515 C2514 1.386 . S
C2515 C2519 1.393 . S
C2516 H2505 0.950 . S
C2516 C2514 1.391 . S
C2516 C2517 1.400 . S
C2517 C2511 1.491 . S
C2517 C2516 1.400 . S
C2517 C2518 1.398 . S
C2518 H2506 0.950 . S
C2518 C2517 1.398 . S
C2518 C2519 1.391 . S
C2519 H2507 0.950 . S
C2519 C2515 1.393 . S
C2519 C2518 1.391 . S
H2520 C2528 0.950 . S
H2521 C2533 0.950 . S
H2522 C2530 0.950 . S
H2523 C2532 0.950 . S
H2524 C2534 0.950 . S
H2525 C2536 0.950 . S
H2526 C2538 0.950 . S
H2527 C2539 0.950 . S
C2528 H2520 0.950 . S
C2528 C2529 1.386 . S
C2528 C2530 1.391 . S
C2529 C2528 1.386 . S
C2529 C2533 1.393 . S
C2530 H2522 0.950 . S
C2530 C2528 1.391 . S
C2530 C2531 1.400 . S
C2531 C2530 1.400 . S
C2531 C2532 1.398 . S
C2531 C2537 1.491 . S
C2532 H2523 0.950 . S
C2532 C2531 1.398 . S
C2532 C2533 1.391 . S
C2533 H2521 0.950 . S
C2533 C2529 1.393 . S
C2533 C2532 1.391 . S
C2534 H2524 0.950 . S
C2534 C2535 1.386 . S
C2534 C2536 1.391 . S
C2535 C2534 1.386 . S
C2535 C2539 1.393 . S
C2536 H2525 0.950 . S
C2536 C2534 1.391 . S
C2536 C2537 1.400 . S
C2537 C2531 1.491 . S
C2537 C2536 1.400 . S
C2537 C2538 1.398 . S
C2538 H2526 0.950 . S
C2538 C2537 1.398 . S
C2538 C2539 1.391 . S
C2539 H2527 0.950 . S
C2539 C2535 1.393 . S
C2539 C2538 1.391 . S
H2540 C2548 0.950 . S
H2541 C2553 0.950 . S
H2542 C2550 0.950 . S
H2543 C2552 0.950 . S
H2544 C2554 0.950 . S
H2545 C2556 0.950 . S
H2546 C2558 0.950 . S
H2547 C2559 0.950 . S
C2548 H2540 0.950 . S
C2548 C2549 1.386 1_545 S
C2548 C2550 1.391 . S
C2549 C2548 1.386 1_565 S
C2549 C2553 1.393 . S
C2550 H2542 0.950 . S
C2550 C2548 1.391 . S
C2550 C2551 1.400 . S
C2551 C2550 1.400 . S
C2551 C2552 1.398 1_545 S
C2551 C2557 1.491 . S
C2552 H2543 0.950 . S
C2552 C2551 1.398 1_565 S
C2552 C2553 1.391 . S
C2553 H2541 0.950 . S
C2553 C2549 1.393 . S
C2553 C2552 1.391 . S
C2554 H2544 0.950 . S
C2554 C2555 1.386 1_565 S
C2554 C2556 1.391 . S
C2555 C2554 1.386 1_545 S
C2555 C2559 1.393 . S
C2556 H2545 0.950 . S
C2556 C2554 1.391 . S
C2556 C2557 1.400 1_565 S
C2557 C2551 1.491 . S
C2557 C2556 1.400 1_545 S
C2557 C2558 1.398 . S
C2558 H2546 0.950 . S
C2558 C2557 1.398 . S
C2558 C2559 1.391 . S
C2559 H2547 0.950 . S
C2559 C2555 1.393 . S
C2559 C2558 1.391 . S
H2560 C2568 0.950 . S
H2561 C2573 0.950 . S
H2562 C2570 0.950 . S
H2563 C2572 0.950 . S
H2564 C2574 0.950 . S
H2565 C2576 0.950 . S
H2566 C2578 0.950 . S
H2567 C2579 0.950 . S
C2568 H2560 0.950 . S
C2568 C2569 1.386 . S
C2568 C2570 1.391 . S
C2569 C2568 1.386 . S
C2569 C2573 1.393 . S
C2570 H2562 0.950 . S
C2570 C2568 1.391 . S
C2570 C2571 1.400 . S
C2571 C2570 1.400 . S
C2571 C2572 1.398 . S
C2571 C2577 1.491 . S
C2572 H2563 0.950 . S
C2572 C2571 1.398 . S
C2572 C2573 1.391 . S
C2573 H2561 0.950 . S
C2573 C2569 1.393 . S
C2573 C2572 1.391 . S
C2574 H2564 0.950 . S
C2574 C2575 1.386 . S
C2574 C2576 1.391 . S
C2575 C2574 1.386 . S
C2575 C2579 1.393 . S
C2576 H2565 0.950 . S
C2576 C2574 1.391 . S
C2576 C2577 1.400 1_655 S
C2577 C2571 1.491 . S
C2577 C2576 1.400 1_455 S
C2577 C2578 1.398 1_455 S
C2578 H2566 0.950 . S
C2578 C2577 1.398 1_655 S
C2578 C2579 1.391 . S
C2579 H2567 0.950 . S
C2579 C2575 1.393 . S
C2579 C2578 1.391 . S
H2580 C2588 0.950 . S
H2581 C2593 0.950 . S
H2582 C2590 0.950 . S
H2583 C2592 0.950 . S
H2584 C2594 0.950 . S
H2585 C2596 0.950 . S
H2586 C2598 0.950 . S
H2587 C2599 0.950 . S
C2588 H2580 0.950 . S
C2588 C2589 1.386 . S
C2588 C2590 1.391 . S
C2589 C2588 1.386 . S
C2589 C2593 1.393 . S
C2590 H2582 0.950 . S
C2590 C2588 1.391 . S
C2590 C2591 1.400 . S
C2591 C2590 1.400 . S
C2591 C2592 1.398 . S
C2591 C2597 1.491 . S
C2592 H2583 0.950 . S
C2592 C2591 1.398 . S
C2592 C2593 1.391 . S
C2593 H2581 0.950 . S
C2593 C2589 1.393 . S
C2593 C2592 1.391 . S
C2594 H2584 0.950 . S
C2594 C2595 1.386 . S
C2594 C2596 1.391 . S
C2595 C2594 1.386 . S
C2595 C2599 1.393 . S
C2596 H2585 0.950 . S
C2596 C2594 1.391 . S
C2596 C2597 1.400 . S
C2597 C2591 1.491 . S
C2597 C2596 1.400 . S
C2597 C2598 1.398 . S
C2598 H2586 0.950 . S
C2598 C2597 1.398 . S
C2598 C2599 1.391 . S
C2599 H2587 0.950 . S
C2599 C2595 1.393 . S
C2599 C2598 1.391 . S
H2600 C2608 0.950 . S
H2601 C2613 0.950 . S
H2602 C2610 0.950 . S
H2603 C2612 0.950 1_455 S
H2604 C2614 0.950 . S
H2605 C2616 0.950 . S
H2606 C2618 0.950 . S
H2607 C2619 0.950 . S
C2608 H2600 0.950 . S
C2608 C2609 1.386 . S
C2608 C2610 1.391 . S
C2609 C2608 1.386 . S
C2609 C2613 1.393 . S
C2610 H2602 0.950 . S
C2610 C2608 1.391 . S
C2610 C2611 1.400 1_655 S
C2611 C2610 1.400 1_455 S
C2611 C2612 1.398 1_455 S
C2611 C2617 1.491 . S
C2612 H2603 0.950 1_655 S
C2612 C2611 1.398 1_655 S
C2612 C2613 1.391 . S
C2613 H2601 0.950 . S
C2613 C2609 1.393 . S
C2613 C2612 1.391 . S
C2614 H2604 0.950 . S
C2614 C2615 1.386 . S
C2614 C2616 1.391 . S
C2615 C2614 1.386 . S
C2615 C2619 1.393 . S
C2616 H2605 0.950 . S
C2616 C2614 1.391 . S
C2616 C2617 1.400 . S
C2617 C2611 1.491 . S
C2617 C2616 1.400 . S
C2617 C2618 1.398 . S
C2618 H2606 0.950 . S
C2618 C2617 1.398 . S
C2618 C2619 1.391 . S
C2619 H2607 0.950 . S
C2619 C2615 1.393 . S
C2619 C2618 1.391 . S
H2620 C2628 0.950 . S
H2621 C2633 0.950 . S
H2622 C2630 0.950 . S
H2623 C2632 0.950 . S
H2624 C2634 0.950 . S
H2625 C2636 0.950 . S
H2626 C2638 0.950 . S
H2627 C2639 0.950 . S
C2628 H2620 0.950 . S
C2628 C2629 1.386 . S
C2628 C2630 1.391 . S
C2629 C2628 1.386 . S
C2629 C2633 1.393 . S
C2630 H2622 0.950 . S
C2630 C2628 1.391 . S
C2630 C2631 1.400 . S
C2631 C2630 1.400 . S
C2631 C2632 1.398 . S
C2631 C2637 1.491 . S
C2632 H2623 0.950 . S
C2632 C2631 1.398 . S
C2632 C2633 1.391 . S
C2633 H2621 0.950 . S
C2633 C2629 1.393 . S
C2633 C2632 1.391 . S
C2634 H2624 0.950 . S
C2634 C2635 1.386 . S
C2634 C2636 1.391 . S
C2635 C2634 1.386 . S
C2635 C2639 1.393 . S
C2636 H2625 0.950 . S
C2636 C2634 1.391 . S
C2636 C2637 1.400 . S
C2637 C2631 1.491 . S
C2637 C2636 1.400 . S
C2637 C2638 1.398 . S
C2638 H2626 0.950 . S
C2638 C2637 1.398 . S
C2638 C2639 1.391 . S
C2639 H2627 0.950 . S
C2639 C2635 1.393 . S
C2639 C2638 1.391 . S
H2640 C2648 0.950 . S
H2641 C2653 0.950 . S
H2642 C2650 0.950 . S
H2643 C2652 0.950 . S
H2644 C2654 0.950 . S
H2645 C2656 0.950 1_655 S
H2646 C2658 0.950 . S
H2647 C2659 0.950 . S
C2648 H2640 0.950 . S
C2648 C2649 1.386 . S
C2648 C2650 1.391 . S
C2649 C2648 1.386 . S
C2649 C2653 1.393 . S
C2650 H2642 0.950 . S
C2650 C2648 1.391 . S
C2650 C2651 1.400 . S
C2651 C2650 1.400 . S
C2651 C2652 1.398 . S
C2651 C2657 1.491 . S
C2652 H2643 0.950 . S
C2652 C2651 1.398 . S
C2652 C2653 1.391 . S
C2653 H2641 0.950 . S
C2653 C2649 1.393 . S
C2653 C2652 1.391 . S
C2654 H2644 0.950 . S
C2654 C2655 1.386 . S
C2654 C2656 1.391 . S
C2655 C2654 1.386 . S
C2655 C2659 1.393 . S
C2656 H2645 0.950 1_455 S
C2656 C2654 1.391 . S
C2656 C2657 1.400 1_455 S
C2657 C2651 1.491 . S
C2657 C2656 1.400 1_655 S
C2657 C2658 1.398 1_655 S
C2658 H2646 0.950 . S
C2658 C2657 1.398 1_455 S
C2658 C2659 1.391 . S
C2659 H2647 0.950 . S
C2659 C2655 1.393 . S
C2659 C2658 1.391 . S
H2660 C2668 0.950 . S
H2661 C2673 0.950 . S
H2662 C2670 0.950 . S
H2663 C2672 0.950 . S
H2664 C2674 0.950 . S
H2665 C2676 0.950 . S
H2666 C2678 0.950 . S
H2667 C2679 0.950 . S
C2668 H2660 0.950 . S
C2668 C2669 1.386 . S
C2668 C2670 1.391 . S
C2669 C2668 1.386 . S
C2669 C2673 1.393 . S
C2670 H2662 0.950 . S
C2670 C2668 1.391 . S
C2670 C2671 1.400 . S
C2671 C2670 1.400 . S
C2671 C2672 1.398 . S
C2671 C2677 1.491 . S
C2672 H2663 0.950 . S
C2672 C2671 1.398 . S
C2672 C2673 1.391 . S
C2673 H2661 0.950 . S
C2673 C2669 1.393 . S
C2673 C2672 1.391 . S
C2674 H2664 0.950 . S
C2674 C2675 1.386 . S
C2674 C2676 1.391 . S
C2675 C2674 1.386 . S
C2675 C2679 1.393 . S
C2676 H2665 0.950 . S
C2676 C2674 1.391 . S
C2676 C2677 1.400 . S
C2677 C2671 1.491 . S
C2677 C2676 1.400 . S
C2677 C2678 1.398 . S
C2678 H2666 0.950 . S
C2678 C2677 1.398 . S
C2678 C2679 1.391 . S
C2679 H2667 0.950 . S
C2679 C2675 1.393 . S
C2679 C2678 1.391 . S
H2680 C2688 0.950 . S
H2681 C2693 0.950 . S
H2682 C2690 0.950 . S
H2683 C2692 0.950 1_655 S
H2684 C2694 0.950 . S
H2685 C2696 0.950 . S
H2686 C2698 0.950 . S
H2687 C2699 0.950 . S
C2688 H2680 0.950 . S
C2688 C2689 1.386 . S
C2688 C2690 1.391 . S
C2689 C2688 1.386 . S
C2689 C2693 1.393 . S
C2690 H2682 0.950 . S
C2690 C2688 1.391 . S
C2690 C2691 1.400 1_455 S
C2691 C2690 1.400 1_655 S
C2691 C2692 1.398 1_655 S
C2691 C2697 1.491 . S
C2692 H2683 0.950 1_455 S
C2692 C2691 1.398 1_455 S
C2692 C2693 1.391 . S
C2693 H2681 0.950 . S
C2693 C2689 1.393 . S
C2693 C2692 1.391 . S
C2694 H2684 0.950 . S
C2694 C2695 1.386 . S
C2694 C2696 1.391 . S
C2695 C2694 1.386 . S
C2695 C2699 1.393 . S
C2696 H2685 0.950 . S
C2696 C2694 1.391 . S
C2696 C2697 1.400 . S
C2697 C2691 1.491 . S
C2697 C2696 1.400 . S
C2697 C2698 1.398 . S
C2698 H2686 0.950 . S
C2698 C2697 1.398 . S
C2698 C2699 1.391 . S
C2699 H2687 0.950 . S
C2699 C2695 1.393 . S
C2699 C2698 1.391 . S
H2700 C2708 0.950 . S
H2701 C2713 0.950 . S
H2702 C2710 0.950 . S
H2703 C2712 0.950 . S
H2704 C2714 0.950 . S
H2705 C2716 0.950 . S
H2706 C2718 0.950 . S
H2707 C2719 0.950 . S
C2708 H2700 0.950 . S
C2708 C2709 1.386 . S
C2708 C2710 1.391 . S
C2709 C2708 1.386 . S
C2709 C2713 1.393 . S
C2710 H2702 0.950 . S
C2710 C2708 1.391 . S
C2710 C2711 1.400 . S
C2711 C2710 1.400 . S
C2711 C2712 1.398 . S
C2711 C2717 1.491 . S
C2712 H2703 0.950 . S
C2712 C2711 1.398 . S
C2712 C2713 1.391 . S
C2713 H2701 0.950 . S
C2713 C2709 1.393 . S
C2713 C2712 1.391 . S
C2714 H2704 0.950 . S
C2714 C2715 1.386 . S
C2714 C2716 1.391 . S
C2715 C2714 1.386 . S
C2715 C2719 1.393 . S
C2716 H2705 0.950 . S
C2716 C2714 1.391 . S
C2716 C2717 1.400 . S
C2717 C2711 1.491 . S
C2717 C2716 1.400 . S
C2717 C2718 1.398 . S
C2718 H2706 0.950 . S
C2718 C2717 1.398 . S
C2718 C2719 1.391 . S
C2719 H2707 0.950 . S
C2719 C2715 1.393 . S
C2719 C2718 1.391 . S
H2720 C2728 0.950 . S
H2721 C2733 0.950 . S
H2722 C2730 0.950 1_455 S
H2723 C2732 0.950 . S
H2724 C2734 0.950 . S
H2725 C2736 0.950 . S
H2726 C2738 0.950 . S
H2727 C2739 0.950 . S
C2728 H2720 0.950 . S
C2728 C2729 1.386 . S
C2728 C2730 1.391 . S
C2729 C2728 1.386 . S
C2729 C2733 1.393 1_545 S
C2730 H2722 0.950 1_655 S
C2730 C2728 1.391 . S
C2730 C2731 1.400 1_645 S
C2731 C2730 1.400 1_465 S
C2731 C2732 1.398 1_455 S
C2731 C2737 1.491 . S
C2732 H2723 0.950 . S
C2732 C2731 1.398 1_655 S
C2732 C2733 1.391 . S
C2733 H2721 0.950 . S
C2733 C2729 1.393 1_565 S
C2733 C2732 1.391 . S
C2734 H2724 0.950 . S
C2734 C2735 1.386 . S
C2734 C2736 1.391 . S
C2735 C2734 1.386 . S
C2735 C2739 1.393 1_565 S
C2736 H2725 0.950 . S
C2736 C2734 1.391 . S
C2736 C2737 1.400 . S
C2737 C2731 1.491 . S
C2737 C2736 1.400 . S
C2737 C2738 1.398 1_565 S
C2738 H2726 0.950 . S
C2738 C2737 1.398 1_545 S
C2738 C2739 1.391 . S
C2739 H2727 0.950 . S
C2739 C2735 1.393 1_545 S
C2739 C2738 1.391 . S
H2740 C2748 0.950 . S
H2741 C2753 0.950 . S
H2742 C2750 0.950 . S
H2743 C2752 0.950 . S
H2744 C2754 0.950 . S
H2745 C2756 0.950 . S
H2746 C2758 0.950 . S
H2747 C2759 0.950 . S
C2748 H2740 0.950 . S
C2748 C2749 1.386 . S
C2748 C2750 1.391 . S
C2749 C2748 1.386 . S
C2749 C2753 1.393 . S
C2750 H2742 0.950 . S
C2750 C2748 1.391 . S
C2750 C2751 1.400 . S
C2751 C2750 1.400 . S
C2751 C2752 1.398 . S
C2751 C2757 1.491 . S
C2752 H2743 0.950 . S
C2752 C2751 1.398 . S
C2752 C2753 1.391 . S
C2753 H2741 0.950 . S
C2753 C2749 1.393 . S
C2753 C2752 1.391 . S
C2754 H2744 0.950 . S
C2754 C2755 1.386 . S
C2754 C2756 1.391 . S
C2755 C2754 1.386 . S
C2755 C2759 1.393 . S
C2756 H2745 0.950 . S
C2756 C2754 1.391 . S
C2756 C2757 1.400 . S
C2757 C2751 1.491 . S
C2757 C2756 1.400 . S
C2757 C2758 1.398 . S
C2758 H2746 0.950 . S
C2758 C2757 1.398 . S
C2758 C2759 1.391 . S
C2759 H2747 0.950 . S
C2759 C2755 1.393 . S
C2759 C2758 1.391 . S
H2760 C2768 0.950 . S
H2761 C2773 0.950 . S
H2762 C2770 0.950 . S
H2763 C2772 0.950 1_455 S
H2764 C2774 0.950 . S
H2765 C2776 0.950 . S
H2766 C2778 0.950 . S
H2767 C2779 0.950 . S
C2768 H2760 0.950 . S
C2768 C2769 1.386 . S
C2768 C2770 1.391 . S
C2769 C2768 1.386 . S
C2769 C2773 1.393 . S
C2770 H2762 0.950 . S
C2770 C2768 1.391 . S
C2770 C2771 1.400 1_655 S
C2771 C2770 1.400 1_455 S
C2771 C2772 1.398 1_455 S
C2771 C2777 1.491 . S
C2772 H2763 0.950 1_655 S
C2772 C2771 1.398 1_655 S
C2772 C2773 1.391 . S
C2773 H2761 0.950 . S
C2773 C2769 1.393 . S
C2773 C2772 1.391 . S
C2774 H2764 0.950 . S
C2774 C2775 1.386 . S
C2774 C2776 1.391 . S
C2775 C2774 1.386 . S
C2775 C2779 1.393 . S
C2776 H2765 0.950 . S
C2776 C2774 1.391 . S
C2776 C2777 1.400 . S
C2777 C2771 1.491 . S
C2777 C2776 1.400 . S
C2777 C2778 1.398 . S
C2778 H2766 0.950 . S
C2778 C2777 1.398 . S
C2778 C2779 1.391 . S
C2779 H2767 0.950 . S
C2779 C2775 1.393 . S
C2779 C2778 1.391 . S
H2780 C2788 0.950 . S
H2781 C2793 0.950 . S
H2782 C2790 0.950 . S
H2783 C2792 0.950 . S
H2784 C2794 0.950 . S
H2785 C2796 0.950 . S
H2786 C2798 0.950 . S
H2787 C2799 0.950 . S
C2788 H2780 0.950 . S
C2788 C2789 1.386 1_565 S
C2788 C2790 1.391 . S
C2789 C2788 1.386 1_545 S
C2789 C2793 1.393 . S
C2790 H2782 0.950 . S
C2790 C2788 1.391 . S
C2790 C2791 1.400 . S
C2791 C2790 1.400 . S
C2791 C2792 1.398 1_565 S
C2791 C2797 1.491 . S
C2792 H2783 0.950 . S
C2792 C2791 1.398 1_545 S
C2792 C2793 1.391 . S
C2793 H2781 0.950 . S
C2793 C2789 1.393 . S
C2793 C2792 1.391 . S
C2794 H2784 0.950 . S
C2794 C2795 1.386 1_545 S
C2794 C2796 1.391 . S
C2795 C2794 1.386 1_565 S
C2795 C2799 1.393 . S
C2796 H2785 0.950 . S
C2796 C2794 1.391 . S
C2796 C2797 1.400 1_545 S
C2797 C2791 1.491 . S
C2797 C2796 1.400 1_565 S
C2797 C2798 1.398 . S
C2798 H2786 0.950 . S
C2798 C2797 1.398 . S
C2798 C2799 1.391 . S
C2799 H2787 0.950 . S
C2799 C2795 1.393 . S
C2799 C2798 1.391 . S
H2800 C2808 0.950 . S
H2801 C2813 0.950 . S
H2802 C2810 0.950 . S
H2803 C2812 0.950 . S
H2804 C2814 0.950 . S
H2805 C2816 0.950 1_655 S
H2806 C2818 0.950 . S
H2807 C2819 0.950 . S
C2808 H2800 0.950 . S
C2808 C2809 1.386 . S
C2808 C2810 1.391 . S
C2809 C2808 1.386 . S
C2809 C2813 1.393 1_545 S
C2810 H2802 0.950 . S
C2810 C2808 1.391 . S
C2810 C2811 1.400 . S
C2811 C2810 1.400 . S
C2811 C2812 1.398 1_545 S
C2811 C2817 1.491 . S
C2812 H2803 0.950 . S
C2812 C2811 1.398 1_565 S
C2812 C2813 1.391 . S
C2813 H2801 0.950 . S
C2813 C2809 1.393 1_565 S
C2813 C2812 1.391 . S
C2814 H2804 0.950 . S
C2814 C2815 1.386 . S
C2814 C2816 1.391 . S
C2815 C2814 1.386 . S
C2815 C2819 1.393 1_565 S
C2816 H2805 0.950 1_455 S
C2816 C2814 1.391 . S
C2816 C2817 1.400 1_465 S
C2817 C2811 1.491 . S
C2817 C2816 1.400 1_645 S
C2817 C2818 1.398 1_655 S
C2818 H2806 0.950 . S
C2818 C2817 1.398 1_455 S
C2818 C2819 1.391 . S
C2819 H2807 0.950 . S
C2819 C2815 1.393 1_545 S
C2819 C2818 1.391 . S
H2820 C2828 0.950 . S
H2821 C2833 0.950 . S
H2822 C2830 0.950 . S
H2823 C2832 0.950 . S
H2824 C2834 0.950 . S
H2825 C2836 0.950 . S
H2826 C2838 0.950 . S
H2827 C2839 0.950 . S
C2828 H2820 0.950 . S
C2828 C2829 1.386 . S
C2828 C2830 1.391 . S
C2829 C2828 1.386 . S
C2829 C2833 1.393 . S
C2830 H2822 0.950 . S
C2830 C2828 1.391 . S
C2830 C2831 1.400 . S
C2831 C2830 1.400 . S
C2831 C2832 1.398 . S
C2831 C2837 1.491 . S
C2832 H2823 0.950 . S
C2832 C2831 1.398 . S
C2832 C2833 1.391 . S
C2833 H2821 0.950 . S
C2833 C2829 1.393 . S
C2833 C2832 1.391 . S
C2834 H2824 0.950 . S
C2834 C2835 1.386 . S
C2834 C2836 1.391 . S
C2835 C2834 1.386 . S
C2835 C2839 1.393 . S
C2836 H2825 0.950 . S
C2836 C2834 1.391 . S
C2836 C2837 1.400 . S
C2837 C2831 1.491 . S
C2837 C2836 1.400 . S
C2837 C2838 1.398 . S
C2838 H2826 0.950 . S
C2838 C2837 1.398 . S
C2838 C2839 1.391 . S
C2839 H2827 0.950 . S
C2839 C2835 1.393 . S
C2839 C2838 1.391 . S
H2840 C2848 0.950 . S
H2841 C2853 0.950 . S
H2842 C2850 0.950 . S
H2843 C2852 0.950 1_655 S
H2844 C2854 0.950 . S
H2845 C2856 0.950 . S
H2846 C2858 0.950 . S
H2847 C2859 0.950 . S
C2848 H2840 0.950 . S
C2848 C2849 1.386 . S
C2848 C2850 1.391 . S
C2849 C2848 1.386 . S
C2849 C2853 1.393 . S
C2850 H2842 0.950 . S
C2850 C2848 1.391 . S
C2850 C2851 1.400 1_455 S
C2851 C2850 1.400 1_655 S
C2851 C2852 1.398 1_655 S
C2851 C2857 1.491 . S
C2852 H2843 0.950 1_455 S
C2852 C2851 1.398 1_455 S
C2852 C2853 1.391 . S
C2853 H2841 0.950 . S
C2853 C2849 1.393 . S
C2853 C2852 1.391 . S
C2854 H2844 0.950 . S
C2854 C2855 1.386 . S
C2854 C2856 1.391 . S
C2855 C2854 1.386 . S
C2855 C2859 1.393 . S
C2856 H2845 0.950 . S
C2856 C2854 1.391 . S
C2856 C2857 1.400 . S
C2857 C2851 1.491 . S
C2857 C2856 1.400 . S
C2857 C2858 1.398 . S
C2858 H2846 0.950 . S
C2858 C2857 1.398 . S
C2858 C2859 1.391 . S
C2859 H2847 0.950 . S
C2859 C2855 1.393 . S
C2859 C2858 1.391 . S
H2860 C2868 0.950 . S
H2861 C2873 0.950 . S
H2862 C2870 0.950 . S
H2863 C2872 0.950 . S
H2864 C2874 0.950 . S
H2865 C2876 0.930 1_565 S
H2866 C2878 0.950 . S
H2867 C2879 0.950 . S
C2868 H2860 0.950 . S
C2868 C2869 1.386 1_545 S
C2868 C2870 1.391 . S
C2869 C2868 1.386 1_565 S
C2869 C2873 1.393 . S
C2870 H2862 0.950 . S
C2870 C2868 1.391 . S
C2870 C2871 1.400 . S
C2871 C2870 1.400 . S
C2871 C2872 1.398 1_545 S
C2871 C2877 1.491 . S
C2872 H2863 0.950 . S
C2872 C2871 1.398 1_565 S
C2872 C2873 1.391 . S
C2873 H2861 0.950 . S
C2873 C2869 1.393 . S
C2873 C2872 1.391 . S
C2874 H2864 0.950 . S
C2874 C2875 1.386 . S
C2874 C2876 1.400 . S
C2875 C2874 1.386 . S
C2875 C2879 1.393 . S
C2876 H2865 0.930 1_545 S
C2876 C2874 1.400 . S
C2876 C2877 1.413 . S
C2877 C2871 1.491 . S
C2877 C2876 1.413 . S
C2877 C2878 1.398 . S
C2878 H2866 0.950 . S
C2878 C2877 1.398 . S
C2878 C2879 1.391 . S
C2879 H2867 0.950 . S
C2879 C2875 1.393 . S
C2879 C2878 1.391 . S
H2880 C2888 0.950 . S
H2881 C2893 0.950 . S
H2882 C2890 0.950 . S
H2883 C2892 0.950 . S
H2884 C2894 0.950 . S
H2885 C2896 0.950 . S
H2886 C2898 0.950 . S
H2887 C2899 0.950 . S
C2888 H2880 0.950 . S
C2888 C2889 1.386 1_655 S
C2888 C2890 1.391 . S
C2889 C2888 1.386 1_455 S
C2889 C2893 1.393 . S
C2890 H2882 0.950 . S
C2890 C2888 1.391 . S
C2890 C2891 1.400 1_655 S
C2891 C2890 1.400 1_455 S
C2891 C2892 1.398 . S
C2891 C2897 1.491 1_454 S
C2892 H2883 0.950 . S
C2892 C2891 1.398 . S
C2892 C2893 1.391 . S
C2893 H2881 0.950 . S
C2893 C2889 1.393 . S
C2893 C2892 1.391 . S
C2894 H2884 0.950 . S
C2894 C2895 1.386 1_455 S
C2894 C2896 1.391 . S
C2895 C2894 1.386 1_655 S
C2895 C2899 1.393 . S
C2896 H2885 0.950 . S
C2896 C2894 1.391 . S
C2896 C2897 1.400 1_455 S
C2897 C2891 1.491 1_656 S
C2897 C2896 1.400 1_655 S
C2897 C2898 1.398 . S
C2898 H2886 0.950 . S
C2898 C2897 1.398 . S
C2898 C2899 1.391 . S
C2899 H2887 0.950 . S
C2899 C2895 1.393 . S
C2899 C2898 1.391 . S
H2900 C2908 0.950 . S
H2901 C2913 0.950 . S
H2902 C2910 0.950 . S
H2903 C2912 0.950 . S
H2904 C2914 0.950 . S
H2905 C2916 0.950 . S
H2906 C2918 0.950 . S
H2907 C2919 0.950 . S
C2908 H2900 0.950 . S
C2908 C2909 1.386 . S
C2908 C2910 1.391 . S
C2909 C2908 1.386 . S
C2909 C2913 1.393 . S
C2910 H2902 0.950 . S
C2910 C2908 1.391 . S
C2910 C2911 1.400 . S
C2911 C2910 1.400 . S
C2911 C2912 1.398 . S
C2911 C2917 1.491 1_556 S
C2912 H2903 0.950 . S
C2912 C2911 1.398 . S
C2912 C2913 1.391 . S
C2913 H2901 0.950 . S
C2913 C2909 1.393 . S
C2913 C2912 1.391 . S
C2914 H2904 0.950 . S
C2914 C2915 1.386 . S
C2914 C2916 1.391 . S
C2915 C2914 1.386 . S
C2915 C2919 1.393 . S
C2916 H2905 0.950 . S
C2916 C2914 1.391 . S
C2916 C2917 1.400 . S
C2917 C2911 1.491 1_554 S
C2917 C2916 1.400 . S
C2917 C2918 1.398 . S
C2918 H2906 0.950 . S
C2918 C2917 1.398 . S
C2918 C2919 1.391 . S
C2919 H2907 0.950 . S
C2919 C2915 1.393 . S
C2919 C2918 1.391 . S
H2920 C2928 0.950 . S
H2921 C2933 0.950 . S
H2922 C2930 0.950 . S
H2923 C2932 0.950 . S
H2924 C2934 0.950 . S
H2925 C2936 0.950 . S
H2926 C2938 0.950 . S
H2927 C2939 0.950 . S
C2928 H2920 0.950 . S
C2928 C2929 1.386 1_455 S
C2928 C2930 1.391 . S
C2929 C2928 1.386 1_655 S
C2929 C2933 1.393 . S
C2930 H2922 0.950 . S
C2930 C2928 1.391 . S
C2930 C2931 1.400 1_455 S
C2931 C2930 1.400 1_655 S
C2931 C2932 1.398 . S
C2931 C2937 1.491 1_655 S
C2932 H2923 0.950 . S
C2932 C2931 1.398 . S
C2932 C2933 1.391 . S
C2933 H2921 0.950 . S
C2933 C2929 1.393 . S
C2933 C2932 1.391 . S
C2934 H2924 0.950 . S
C2934 C2935 1.386 1_655 S
C2934 C2936 1.391 . S
C2935 C2934 1.386 1_455 S
C2935 C2939 1.393 . S
C2936 H2925 0.950 . S
C2936 C2934 1.391 . S
C2936 C2937 1.400 1_655 S
C2937 C2931 1.491 1_455 S
C2937 C2936 1.400 1_455 S
C2937 C2938 1.398 . S
C2938 H2926 0.950 . S
C2938 C2937 1.398 . S
C2938 C2939 1.391 . S
C2939 H2927 0.950 . S
C2939 C2935 1.393 . S
C2939 C2938 1.391 . S
H2940 C2948 0.950 . S
H2941 C2953 0.950 . S
H2942 C2950 0.950 . S
H2943 C2952 0.950 . S
H2944 C2954 0.950 . S
H2945 C2956 0.950 . S
H2946 C2958 0.950 . S
H2947 C2959 0.950 . S
C2948 H2940 0.950 . S
C2948 C2949 1.386 . S
C2948 C2950 1.391 . S
C2949 C2948 1.386 . S
C2949 C2953 1.393 . S
C2950 H2942 0.950 . S
C2950 C2948 1.391 . S
C2950 C2951 1.400 . S
C2951 C2950 1.400 . S
C2951 C2952 1.398 . S
C2951 C2957 1.491 . S
C2952 H2943 0.950 . S
C2952 C2951 1.398 . S
C2952 C2953 1.391 . S
C2953 H2941 0.950 . S
C2953 C2949 1.393 . S
C2953 C2952 1.391 . S
C2954 H2944 0.950 . S
C2954 C2955 1.386 . S
C2954 C2956 1.391 . S
C2955 C2954 1.386 . S
C2955 C2959 1.393 . S
C2956 H2945 0.950 . S
C2956 C2954 1.391 . S
C2956 C2957 1.400 . S
C2957 C2951 1.491 . S
C2957 C2956 1.400 . S
C2957 C2958 1.398 . S
C2958 H2946 0.950 . S
C2958 C2957 1.398 . S
C2958 C2959 1.391 . S
C2959 H2947 0.950 . S
C2959 C2955 1.393 . S
C2959 C2958 1.391 . S
H2960 C2968 0.950 . S
H2961 C2973 0.950 . S
H2962 C2970 0.950 . S
H2963 C2972 0.950 . S
H2964 C2974 0.950 . S
H2965 C2976 0.950 . S
H2966 C2978 0.950 . S
H2967 C2979 0.950 . S
C2968 H2960 0.950 . S
C2968 C2969 1.386 . S
C2968 C2970 1.391 . S
C2969 C2968 1.386 . S
C2969 C2973 1.393 . S
C2970 H2962 0.950 . S
C2970 C2968 1.391 . S
C2970 C2971 1.400 . S
C2971 C2970 1.400 . S
C2971 C2972 1.398 . S
C2971 C2977 1.491 1_556 S
C2972 H2963 0.950 . S
C2972 C2971 1.398 . S
C2972 C2973 1.391 . S
C2973 H2961 0.950 . S
C2973 C2969 1.393 . S
C2973 C2972 1.391 . S
C2974 H2964 0.950 . S
C2974 C2975 1.386 . S
C2974 C2976 1.391 . S
C2975 C2974 1.386 . S
C2975 C2979 1.393 . S
C2976 H2965 0.950 . S
C2976 C2974 1.391 . S
C2976 C2977 1.400 . S
C2977 C2971 1.491 1_554 S
C2977 C2976 1.400 . S
C2977 C2978 1.398 . S
C2978 H2966 0.950 . S
C2978 C2977 1.398 . S
C2978 C2979 1.391 . S
C2979 H2967 0.950 . S
C2979 C2975 1.393 . S
C2979 C2978 1.391 . S
H2980 C2988 0.950 . S
H2981 C2993 0.950 . S
H2982 C2990 0.950 . S
H2983 C2992 0.950 . S
H2984 C2994 0.950 . S
H2985 C2996 0.950 . S
H2986 C2998 0.950 . S
H2987 C2999 0.950 . S
C2988 H2980 0.950 . S
C2988 C2989 1.386 . S
C2988 C2990 1.391 . S
C2989 C2988 1.386 . S
C2989 C2993 1.393 1_655 S
C2990 H2982 0.950 . S
C2990 C2988 1.391 . S
C2990 C2991 1.400 . S
C2991 C2990 1.400 . S
C2991 C2992 1.398 1_655 S
C2991 C2997 1.491 1_655 S
C2992 H2983 0.950 . S
C2992 C2991 1.398 1_455 S
C2992 C2993 1.391 . S
C2993 H2981 0.950 . S
C2993 C2989 1.393 1_455 S
C2993 C2992 1.391 . S
C2994 H2984 0.950 . S
C2994 C2995 1.386 . S
C2994 C2996 1.391 . S
C2995 C2994 1.386 . S
C2995 C2999 1.393 1_455 S
C2996 H2985 0.950 . S
C2996 C2994 1.391 . S
C2996 C2997 1.400 . S
C2997 C2991 1.491 1_455 S
C2997 C2996 1.400 . S
C2997 C2998 1.398 1_455 S
C2998 H2986 0.950 . S
C2998 C2997 1.398 1_655 S
C2998 C2999 1.391 . S
C2999 H2987 0.950 . S
C2999 C2995 1.393 1_655 S
C2999 C2998 1.391 . S
H3000 C3008 0.950 . S
H3001 C3013 0.950 . S
H3002 C3010 0.950 . S
H3003 C3012 0.950 . S
H3004 C3014 0.950 . S
H3005 C3016 0.950 . S
H3006 C3018 0.950 . S
H3007 C3019 0.950 . S
C3008 H3000 0.950 . S
C3008 C3009 1.386 . S
C3008 C3010 1.391 . S
C3009 C3008 1.386 . S
C3009 C3013 1.393 . S
C3010 H3002 0.950 . S
C3010 C3008 1.391 . S
C3010 C3011 1.400 . S
C3011 C3010 1.400 . S
C3011 C3012 1.398 . S
C3011 C3017 1.491 . S
C3012 H3003 0.950 . S
C3012 C3011 1.398 . S
C3012 C3013 1.391 . S
C3013 H3001 0.950 . S
C3013 C3009 1.393 . S
C3013 C3012 1.391 . S
C3014 H3004 0.950 . S
C3014 C3015 1.386 . S
C3014 C3016 1.391 . S
C3015 C3014 1.386 . S
C3015 C3019 1.393 . S
C3016 H3005 0.950 . S
C3016 C3014 1.391 . S
C3016 C3017 1.400 . S
C3017 C3011 1.491 . S
C3017 C3016 1.400 . S
C3017 C3018 1.398 . S
C3018 H3006 0.950 . S
C3018 C3017 1.398 . S
C3018 C3019 1.391 . S
C3019 H3007 0.950 . S
C3019 C3015 1.393 . S
C3019 C3018 1.391 . S
H3020 C3028 0.950 . S
H3021 C3033 0.950 . S
H3022 C3030 0.950 . S
H3023 C3032 0.950 . S
H3024 C3034 0.950 . S
H3025 C3036 0.950 . S
H3026 C3038 0.950 . S
H3027 C3039 0.950 . S
C3028 H3020 0.950 . S
C3028 C3029 1.386 1_545 S
C3028 C3030 1.391 . S
C3029 C3028 1.386 1_565 S
C3029 C3033 1.393 1_455 S
C3030 H3022 0.950 . S
C3030 C3028 1.391 . S
C3030 C3031 1.400 1_545 S
C3031 C3030 1.400 1_565 S
C3031 C3032 1.398 1_455 S
C3031 C3037 1.491 1_465 S
C3032 H3023 0.950 . S
C3032 C3031 1.398 1_655 S
C3032 C3033 1.391 . S
C3033 H3021 0.950 . S
C3033 C3029 1.393 1_655 S
C3033 C3032 1.391 . S
C3034 H3024 0.950 . S
C3034 C3035 1.386 1_565 S
C3034 C3036 1.391 . S
C3035 C3034 1.386 1_545 S
C3035 C3039 1.393 1_655 S
C3036 H3025 0.950 . S
C3036 C3034 1.391 . S
C3036 C3037 1.400 1_565 S
C3037 C3031 1.491 1_645 S
C3037 C3036 1.400 1_545 S
C3037 C3038 1.398 1_655 S
C3038 H3026 0.950 . S
C3038 C3037 1.398 1_455 S
C3038 C3039 1.391 . S
C3039 H3027 0.950 . S
C3039 C3035 1.393 1_455 S
C3039 C3038 1.391 . S
H3040 C3048 0.950 . S
H3041 C3053 0.950 . S
H3042 C3050 0.950 . S
H3043 C3052 0.950 . S
H3044 C3054 0.950 . S
H3045 C3056 0.950 . S
H3046 C3058 0.950 . S
H3047 C3059 0.950 . S
C3048 H3040 0.950 . S
C3048 C3049 1.386 . S
C3048 C3050 1.391 . S
C3049 C3048 1.386 . S
C3049 C3053 1.393 . S
C3050 H3042 0.950 . S
C3050 C3048 1.391 . S
C3050 C3051 1.400 . S
C3051 C3050 1.400 . S
C3051 C3052 1.398 . S
C3051 C3057 1.491 . S
C3052 H3043 0.950 . S
C3052 C3051 1.398 . S
C3052 C3053 1.391 . S
C3053 H3041 0.950 . S
C3053 C3049 1.393 . S
C3053 C3052 1.391 . S
C3054 H3044 0.950 . S
C3054 C3055 1.386 . S
C3054 C3056 1.391 . S
C3055 C3054 1.386 . S
C3055 C3059 1.393 . S
C3056 H3045 0.950 . S
C3056 C3054 1.391 . S
C3056 C3057 1.400 . S
C3057 C3051 1.491 . S
C3057 C3056 1.400 . S
C3057 C3058 1.398 . S
C3058 H3046 0.950 . S
C3058 C3057 1.398 . S
C3058 C3059 1.391 . S
C3059 H3047 0.950 . S
C3059 C3055 1.393 . S
C3059 C3058 1.391 . S
H3060 C3068 0.950 . S
H3061 C3073 0.950 . S
H3062 C3070 0.950 . S
H3063 C3072 0.950 . S
H3064 C3074 0.950 . S
H3065 C3076 0.950 . S
H3066 C3078 0.950 . S
H3067 C3079 0.950 . S
C3068 H3060 0.950 . S
C3068 C3069 1.386 . S
C3068 C3070 1.391 . S
C3069 C3068 1.386 . S
C3069 C3073 1.393 1_545 S
C3070 H3062 0.950 . S
C3070 C3068 1.391 . S
C3070 C3071 1.410 . S
C3071 C3070 1.410 . S
C3071 C3072 1.389 1_545 S
C3071 C3077 1.490 1_545 S
C3072 H3063 0.950 . S
C3072 C3071 1.389 1_565 S
C3072 C3073 1.391 . S
C3073 H3061 0.950 . S
C3073 C3069 1.393 1_565 S
C3073 C3072 1.391 . S
C3074 H3064 0.950 . S
C3074 C3075 1.386 . S
C3074 C3076 1.391 . S
C3075 C3074 1.386 . S
C3075 C3079 1.393 1_565 S
C3076 H3065 0.950 . S
C3076 C3074 1.391 . S
C3076 C3077 1.410 . S
C3077 C3071 1.490 1_565 S
C3077 C3076 1.410 . S
C3077 C3078 1.389 1_565 S
C3078 H3066 0.950 . S
C3078 C3077 1.389 1_545 S
C3078 C3079 1.391 . S
C3079 H3067 0.950 . S
C3079 C3075 1.393 1_545 S
C3079 C3078 1.391 . S
H3080 C3088 0.950 . S
H3081 C3093 0.950 . S
H3082 C3090 0.950 . S
H3083 C3092 0.950 . S
H3084 C3094 0.950 . S
H3085 C3096 0.950 . S
H3086 C3098 0.950 . S
H3087 C3099 0.950 . S
C3088 H3080 0.950 . S
C3088 C3089 1.386 . S
C3088 C3090 1.391 . S
C3089 C3088 1.386 . S
C3089 C3093 1.393 . S
C3090 H3082 0.950 . S
C3090 C3088 1.391 . S
C3090 C3091 1.400 . S
C3091 C3090 1.400 . S
C3091 C3092 1.398 . S
C3091 C3097 1.491 . S
C3092 H3083 0.950 . S
C3092 C3091 1.398 . S
C3092 C3093 1.391 . S
C3093 H3081 0.950 . S
C3093 C3089 1.393 . S
C3093 C3092 1.391 . S
C3094 H3084 0.950 . S
C3094 C3095 1.386 . S
C3094 C3096 1.391 . S
C3095 C3094 1.386 . S
C3095 C3099 1.393 . S
C3096 H3085 0.950 . S
C3096 C3094 1.391 . S
C3096 C3097 1.400 . S
C3097 C3091 1.491 . S
C3097 C3096 1.400 . S
C3097 C3098 1.398 . S
C3098 H3086 0.950 . S
C3098 C3097 1.398 . S
C3098 C3099 1.391 . S
C3099 H3087 0.950 . S
C3099 C3095 1.393 . S
C3099 C3098 1.391 . S
H3100 C3108 0.950 . S
H3101 C3113 0.950 . S
H3102 C3110 0.950 . S
H3103 C3112 0.950 . S
H3104 C3114 0.950 . S
H3105 C3116 0.950 . S
H3106 C3118 0.950 . S
H3107 C3119 0.950 . S
C3108 H3100 0.950 . S
C3108 C3109 1.386 . S
C3108 C3110 1.391 . S
C3109 C3108 1.386 . S
C3109 C3113 1.393 1_565 S
C3110 H3102 0.950 . S
C3110 C3108 1.391 . S
C3110 C3111 1.400 . S
C3111 C3110 1.400 . S
C3111 C3112 1.398 1_565 S
C3111 C3117 1.491 1_565 S
C3112 H3103 0.950 . S
C3112 C3111 1.398 1_545 S
C3112 C3113 1.391 . S
C3113 H3101 0.950 . S
C3113 C3109 1.393 1_545 S
C3113 C3112 1.391 . S
C3114 H3104 0.950 . S
C3114 C3115 1.386 . S
C3114 C3116 1.391 . S
C3115 C3114 1.386 . S
C3115 C3119 1.393 1_545 S
C3116 H3105 0.950 . S
C3116 C3114 1.391 . S
C3116 C3117 1.400 . S
C3117 C3111 1.491 1_545 S
C3117 C3116 1.400 . S
C3117 C3118 1.398 1_545 S
C3118 H3106 0.950 . S
C3118 C3117 1.398 1_565 S
C3118 C3119 1.391 . S
C3119 H3107 0.950 . S
C3119 C3115 1.393 1_565 S
C3119 C3118 1.391 . S
H3120 C3128 0.950 . S
H3121 C3133 0.950 . S
H3122 C3130 0.950 . S
H3123 C3132 0.950 . S
H3124 C3134 0.950 . S
H3125 C3136 0.950 . S
H3126 C3138 0.950 . S
H3127 C3139 0.950 . S
C3128 H3120 0.950 . S
C3128 C3129 1.386 . S
C3128 C3130 1.391 . S
C3129 C3128 1.386 . S
C3129 C3133 1.393 . S
C3130 H3122 0.950 . S
C3130 C3128 1.391 . S
C3130 C3131 1.400 . S
C3131 C3130 1.400 . S
C3131 C3132 1.398 . S
C3131 C3137 1.491 . S
C3132 H3123 0.950 . S
C3132 C3131 1.398 . S
C3132 C3133 1.391 . S
C3133 H3121 0.950 . S
C3133 C3129 1.393 . S
C3133 C3132 1.391 . S
C3134 H3124 0.950 . S
C3134 C3135 1.386 . S
C3134 C3136 1.391 . S
C3135 C3134 1.386 . S
C3135 C3139 1.393 . S
C3136 H3125 0.950 . S
C3136 C3134 1.391 . S
C3136 C3137 1.400 . S
C3137 C3131 1.491 . S
C3137 C3136 1.400 . S
C3137 C3138 1.398 . S
C3138 H3126 0.950 . S
C3138 C3137 1.398 . S
C3138 C3139 1.391 . S
C3139 H3127 0.950 . S
C3139 C3135 1.393 . S
C3139 C3138 1.391 . S
H3140 C3148 0.950 . S
H3141 C3153 0.950 . S
H3142 C3150 0.950 . S
H3143 C3152 0.950 . S
H3144 C3154 0.950 . S
H3145 C3156 0.950 . S
H3146 C3158 0.950 . S
H3147 C3159 0.950 . S
C3148 H3140 0.950 . S
C3148 C3149 1.386 . S
C3148 C3150 1.391 . S
C3149 C3148 1.386 . S
C3149 C3153 1.393 . S
C3150 H3142 0.950 . S
C3150 C3148 1.391 . S
C3150 C3151 1.400 . S
C3151 C3150 1.400 . S
C3151 C3152 1.398 . S
C3151 C3157 1.491 . S
C3152 H3143 0.950 . S
C3152 C3151 1.398 . S
C3152 C3153 1.391 . S
C3153 H3141 0.950 . S
C3153 C3149 1.393 . S
C3153 C3152 1.391 . S
C3154 H3144 0.950 . S
C3154 C3155 1.386 . S
C3154 C3156 1.391 . S
C3155 C3154 1.386 . S
C3155 C3159 1.393 . S
C3156 H3145 0.950 . S
C3156 C3154 1.391 . S
C3156 C3157 1.400 . S
C3157 C3151 1.491 . S
C3157 C3156 1.400 . S
C3157 C3158 1.398 . S
C3158 H3146 0.950 . S
C3158 C3157 1.398 . S
C3158 C3159 1.391 . S
C3159 H3147 0.950 . S
C3159 C3155 1.393 . S
C3159 C3158 1.391 . S
H3160 C3168 0.950 . S
H3161 C3173 0.950 . S
H3162 C3170 0.950 . S
H3163 C3172 0.950 . S
H3164 C3174 0.950 . S
H3165 C3176 0.950 . S
H3166 C3178 0.950 . S
H3167 C3179 0.950 . S
C3168 H3160 0.950 . S
C3168 C3169 1.386 . S
C3168 C3170 1.391 . S
C3169 C3168 1.386 . S
C3169 C3173 1.393 . S
C3170 H3162 0.950 . S
C3170 C3168 1.391 . S
C3170 C3171 1.400 . S
C3171 C3170 1.400 . S
C3171 C3172 1.398 . S
C3171 C3177 1.491 . S
C3172 H3163 0.950 . S
C3172 C3171 1.398 . S
C3172 C3173 1.391 . S
C3173 H3161 0.950 . S
C3173 C3169 1.393 . S
C3173 C3172 1.391 . S
C3174 H3164 0.950 . S
C3174 C3175 1.386 . S
C3174 C3176 1.391 . S
C3175 C3174 1.386 . S
C3175 C3179 1.393 . S
C3176 H3165 0.950 . S
C3176 C3174 1.391 . S
C3176 C3177 1.400 . S
C3177 C3171 1.491 . S
C3177 C3176 1.400 . S
C3177 C3178 1.398 . S
C3178 H3166 0.950 . S
C3178 C3177 1.398 . S
C3178 C3179 1.391 . S
C3179 H3167 0.950 . S
C3179 C3175 1.393 . S
C3179 C3178 1.391 . S
H3180 C3188 0.950 . S
H3181 C3193 0.950 . S
H3182 C3190 0.947 1_545 S
H3183 C3192 0.950 . S
H3184 C3194 0.950 . S
H3185 C3196 0.947 1_565 S
H3186 C3198 0.950 . S
H3187 C3199 0.950 . S
C3188 H3180 0.950 . S
C3188 C3189 1.386 . S
C3188 C3190 1.395 . S
C3189 C3188 1.386 . S
C3189 C3193 1.393 . S
C3190 H3182 0.947 1_565 S
C3190 C3188 1.395 . S
C3190 C3191 1.401 . S
C3191 C3190 1.401 . S
C3191 C3192 1.398 . S
C3191 C3197 1.491 1_564 S
C3192 H3183 0.950 . S
C3192 C3191 1.398 . S
C3192 C3193 1.391 . S
C3193 H3181 0.950 . S
C3193 C3189 1.393 . S
C3193 C3192 1.391 . S
C3194 H3184 0.950 . S
C3194 C3195 1.386 . S
C3194 C3196 1.395 . S
C3195 C3194 1.386 . S
C3195 C3199 1.393 . S
C3196 H3185 0.947 1_545 S
C3196 C3194 1.395 . S
C3196 C3197 1.401 . S
C3197 C3191 1.491 1_546 S
C3197 C3196 1.401 . S
C3197 C3198 1.398 . S
C3198 H3186 0.950 . S
C3198 C3197 1.398 . S
C3198 C3199 1.391 . S
C3199 H3187 0.950 . S
C3199 C3195 1.393 . S
C3199 C3198 1.391 . S
C1289 C2 1.665 . S
C1295 C1002 1.670 . S
C1309 C962 1.668 . S
C1315 C42 1.669 . S
C1329 C1082 1.668 . S
C1335 C82 1.668 . S
C1349 C122 1.668 . S
C1355 C1042 1.669 . S
C1369 C171 1.671 . S
C1375 C1171 1.665 . S
C1389 C211 1.668 . S
C1395 C1131 1.665 . S
C1409 C251 1.670 . S
C1415 C1251 1.664 . S
C1429 C1211 1.665 . S
C1435 C291 1.668 . S
C1449 C322 1.666 . S
C1455 C682 1.670 . S
C1469 C362 1.667 . S
C1475 C642 1.666 . S
C1489 C402 1.667 . S
C1495 C762 1.669 . S
C1509 C722 1.666 . S
C1515 C442 1.667 . S
C1529 C491 1.670 . S
C1535 C851 1.667 . S
C1549 C531 1.665 . S
C1555 C811 1.669 . S
C1569 C931 1.670 . S
C1575 C571 1.666 . S
C1589 C611 1.664 . S
C1595 C891 1.670 . S
C1609 C10 1.598 . S
C1615 C130 1.592 . S
C1629 C50 1.592 . S
C1635 C90 1.601 . S
C1649 C299 1.601 . S
C1655 C179 1.593 . S
C1669 C259 1.603 . S
C1675 C219 1.598 . S
C1689 C330 1.602 . S
C1695 C450 1.600 . S
C1709 C370 1.593 . S
C1715 C410 1.596 . S
C1729 C499 1.594 . S
C1735 C619 1.603 . S
C1749 C579 1.599 . S
C1755 C539 1.603 . S
C1769 C650 1.595 . S
C1775 C770 1.603 . S
C1789 C690 1.603 . S
C1795 C730 1.596 . S
C1809 C939 1.595 . S
C1815 C819 1.594 . S
C1829 C859 1.603 . S
C1835 C899 1.594 . S
C1849 C1090 1.603 . S
C1855 C970 1.594 . S
C1869 C1010 1.603 . S
C1875 C1050 1.599 . S
C1889 C1259 1.593 . S
C1895 C1139 1.597 . S
C1909 C1219 1.603 . S
C1915 C1179 1.598 . S
C1929 C51 1.480 . S
C1935 C11 1.486 . S
C1949 C91 1.485 . S
C1955 C131 1.491 . S
C1969 C202 1.491 . S
C1975 C162 1.495 . S
C1989 C282 1.490 . S
C1995 C242 1.494 . S
C2009 C331 1.476 . S
C2015 C371 1.473 . S
C2029 C411 1.484 . S
C2035 C451 1.478 . S
C2049 C522 1.489 . S
C2055 C482 1.482 . S
C2069 C562 1.480 . S
C2075 C602 1.475 . S
C2089 C651 1.493 . S
C2095 C691 1.496 . S
C2109 C771 1.483 . S
C2115 C731 1.489 . S
C2129 C802 1.494 . S
C2135 C842 1.489 . S
C2149 C882 1.495 . S
C2155 C922 1.495 . S
C2169 C971 1.488 . S
C2175 C1011 1.493 . S
C2189 C1051 1.479 . S
C2195 C1091 1.486 . S
C2209 C1162 1.494 . S
C2215 C1122 1.489 . S
C2229 C1202 1.480 . S
C2235 C1242 1.486 . S
C2249 C7 1.667 . S
C2255 C16 1.667 . S
C2269 C47 1.668 . S
C2275 C56 1.668 . S
C2289 C87 1.679 . S
C2295 C96 1.679 . S
C2309 C136 1.676 . S
C2315 C127 1.676 . S
C2329 C167 1.680 . S
C2335 C176 1.680 . S
C2349 C216 1.675 . S
C2355 C207 1.675 . S
C2369 C247 1.668 . S
C2375 C256 1.668 . S
C2389 C287 1.676 . S
C2395 C296 1.676 . S
C2409 C336 1.678 . S
C2415 C327 1.678 . S
C2429 C367 1.667 . S
C2435 C376 1.667 . S
C2449 C407 1.674 . S
C2455 C416 1.674 . S
C2469 C456 1.682 . S
C2475 C447 1.682 . S
C2489 C487 1.676 . S
C2495 C496 1.676 . S
C2509 C536 1.676 . S
C2515 C527 1.676 . S
C2529 C576 1.666 . S
C2535 C567 1.666 . S
C2549 C607 1.676 . S
C2555 C616 1.676 . S
C2569 C647 1.665 . S
C2575 C656 1.665 . S
C2589 C696 1.677 . S
C2595 C687 1.677 . S
C2609 C736 1.678 . S
C2615 C727 1.678 . S
C2629 C767 1.666 . S
C2635 C776 1.666 . S
C2649 C816 1.676 . S
C2655 C807 1.676 . S
C2669 C856 1.665 . S
C2675 C847 1.665 . S
C2689 C887 1.673 . S
C2695 C896 1.673 . S
C2709 C936 1.669 . S
C2715 C927 1.669 . S
C2729 C976 1.666 . S
C2735 C967 1.666 . S
C2749 C1007 1.679 . S
C2755 C1016 1.679 . S
C2769 C1056 1.680 . S
C2775 C1047 1.680 . S
C2789 C1096 1.682 . S
C2795 C1087 1.682 . S
C2809 C1136 1.667 . S
C2815 C1127 1.667 . S
C2829 C1176 1.674 . S
C2835 C1167 1.674 . S
C2849 C1207 1.670 . S
C2855 C1216 1.670 . S
C2869 C1247 1.679 . S
C2875 C1256 1.679 . S
C2889 C19 1.473 . S
C2895 C170 1.473 . S
C2909 C1170 1.475 . S
C2915 C59 1.475 . S
C2929 C570 1.473 . S
C2935 C99 1.473 . S
C2949 C139 1.471 . S
C2955 C930 1.471 . S
C2969 C210 1.497 . S
C2975 C1019 1.497 . S
C2989 C250 1.486 . S
C2995 C419 1.486 . S
C3009 C290 1.479 . S
C3015 C779 1.479 . S
C3029 C339 1.474 . S
C3035 C490 1.474 . S
C3049 C850 1.495 . S
C3055 C379 1.495 . S
C3069 C1250 1.479 . S
C3075 C459 1.479 . S
C3089 C530 1.482 . S
C3095 C699 1.482 . S
C3109 C1099 1.486 . S
C3115 C610 1.486 . S
C3129 C659 1.473 . S
C3135 C810 1.473 . S
C3149 C1210 1.493 . S
C3155 C739 1.493 . S
C3169 C890 1.481 . S
C3175 C1059 1.481 . S
C3189 C979 1.482 . S
C3195 C1130 1.482 . S
