# Generated by pormake.
# Topology bcs, (6)-cn, num edge types: 1
# Building blocks:
#     Node 0, Type 0, BuildingBlock: CUWYAW_clean_sbu_0, # of connection points: 6
#     Node 1, Type 0, BuildingBlock: CUWYAW_clean_sbu_0, # of connection points: 6
#     Node 2, Type 0, BuildingBlock: CUWYAW_clean_sbu_0, # of connection points: 6
#     Node 3, Type 0, BuildingBlock: CUWYAW_clean_sbu_0, # of connection points: 6
#     Node 4, Type 0, BuildingBlock: CUWYAW_clean_sbu_0, # of connection points: 6
#     Node 5, Type 0, BuildingBlock: CUWYAW_clean_sbu_0, # of connection points: 6
#     Node 6, Type 0, BuildingBlock: CUWYAW_clean_sbu_0, # of connection points: 6
#     Node 7, Type 0, BuildingBlock: CUWYAW_clean_sbu_0, # of connection points: 6
#     Node 8, Type 0, BuildingBlock: CUWYAW_clean_sbu_0, # of connection points: 6
#     Node 9, Type 0, BuildingBlock: CUWYAW_clean_sbu_0, # of connection points: 6
#     Node 10, Type 0, BuildingBlock: CUWYAW_clean_sbu_0, # of connection points: 6
#     Node 11, Type 0, BuildingBlock: CUWYAW_clean_sbu_0, # of connection points: 6
#     Node 12, Type 0, BuildingBlock: CUWYAW_clean_sbu_0, # of connection points: 6
#     Node 13, Type 0, BuildingBlock: CUWYAW_clean_sbu_0, # of connection points: 6
#     Node 14, Type 0, BuildingBlock: CUWYAW_clean_sbu_0, # of connection points: 6
#     Node 15, Type 0, BuildingBlock: CUWYAW_clean_sbu_0, # of connection points: 6
#     Edge 16, Type (0, 0), BuildingBlock: CIFDUS_clean_linker_0, # of connection points: 2
#     Edge 17, Type (0, 0), BuildingBlock: CIFDUS_clean_linker_0, # of connection points: 2
#     Edge 18, Type (0, 0), BuildingBlock: CIFDUS_clean_linker_0, # of connection points: 2
#     Edge 19, Type (0, 0), BuildingBlock: CIFDUS_clean_linker_0, # of connection points: 2
#     Edge 20, Type (0, 0), BuildingBlock: CIFDUS_clean_linker_0, # of connection points: 2
#     Edge 21, Type (0, 0), BuildingBlock: CIFDUS_clean_linker_0, # of connection points: 2
#     Edge 22, Type (0, 0), BuildingBlock: CIFDUS_clean_linker_0, # of connection points: 2
#     Edge 23, Type (0, 0), BuildingBlock: CIFDUS_clean_linker_0, # of connection points: 2
#     Edge 24, Type (0, 0), BuildingBlock: CIFDUS_clean_linker_0, # of connection points: 2
#     Edge 25, Type (0, 0), BuildingBlock: CIFDUS_clean_linker_0, # of connection points: 2
#     Edge 26, Type (0, 0), BuildingBlock: CIFDUS_clean_linker_0, # of connection points: 2
#     Edge 27, Type (0, 0), BuildingBlock: CIFDUS_clean_linker_0, # of connection points: 2
#     Edge 28, Type (0, 0), BuildingBlock: CIFDUS_clean_linker_0, # of connection points: 2
#     Edge 29, Type (0, 0), BuildingBlock: CIFDUS_clean_linker_0, # of connection points: 2
#     Edge 30, Type (0, 0), BuildingBlock: CIFDUS_clean_linker_0, # of connection points: 2
#     Edge 31, Type (0, 0), BuildingBlock: CIFDUS_clean_linker_0, # of connection points: 2
#     Edge 32, Type (0, 0), BuildingBlock: CIFDUS_clean_linker_0, # of connection points: 2
#     Edge 33, Type (0, 0), BuildingBlock: CIFDUS_clean_linker_0, # of connection points: 2
#     Edge 34, Type (0, 0), BuildingBlock: CIFDUS_clean_linker_0, # of connection points: 2
#     Edge 35, Type (0, 0), BuildingBlock: CIFDUS_clean_linker_0, # of connection points: 2
#     Edge 36, Type (0, 0), BuildingBlock: CIFDUS_clean_linker_0, # of connection points: 2
#     Edge 37, Type (0, 0), BuildingBlock: CIFDUS_clean_linker_0, # of connection points: 2
#     Edge 38, Type (0, 0), BuildingBlock: CIFDUS_clean_linker_0, # of connection points: 2
#     Edge 39, Type (0, 0), BuildingBlock: CIFDUS_clean_linker_0, # of connection points: 2
#     Edge 40, Type (0, 0), BuildingBlock: CIFDUS_clean_linker_0, # of connection points: 2
#     Edge 41, Type (0, 0), BuildingBlock: CIFDUS_clean_linker_0, # of connection points: 2
#     Edge 42, Type (0, 0), BuildingBlock: CIFDUS_clean_linker_0, # of connection points: 2
#     Edge 43, Type (0, 0), BuildingBlock: CIFDUS_clean_linker_0, # of connection points: 2
#     Edge 44, Type (0, 0), BuildingBlock: CIFDUS_clean_linker_0, # of connection points: 2
#     Edge 45, Type (0, 0), BuildingBlock: CIFDUS_clean_linker_0, # of connection points: 2
#     Edge 46, Type (0, 0), BuildingBlock: CIFDUS_clean_linker_0, # of connection points: 2
#     Edge 47, Type (0, 0), BuildingBlock: CIFDUS_clean_linker_0, # of connection points: 2
#     Edge 48, Type (0, 0), BuildingBlock: CIFDUS_clean_linker_0, # of connection points: 2
#     Edge 49, Type (0, 0), BuildingBlock: CIFDUS_clean_linker_0, # of connection points: 2
#     Edge 50, Type (0, 0), BuildingBlock: CIFDUS_clean_linker_0, # of connection points: 2
#     Edge 51, Type (0, 0), BuildingBlock: CIFDUS_clean_linker_0, # of connection points: 2
#     Edge 52, Type (0, 0), BuildingBlock: CIFDUS_clean_linker_0, # of connection points: 2
#     Edge 53, Type (0, 0), BuildingBlock: CIFDUS_clean_linker_0, # of connection points: 2
#     Edge 54, Type (0, 0), BuildingBlock: CIFDUS_clean_linker_0, # of connection points: 2
#     Edge 55, Type (0, 0), BuildingBlock: CIFDUS_clean_linker_0, # of connection points: 2
#     Edge 56, Type (0, 0), BuildingBlock: CIFDUS_clean_linker_0, # of connection points: 2
#     Edge 57, Type (0, 0), BuildingBlock: CIFDUS_clean_linker_0, # of connection points: 2
#     Edge 58, Type (0, 0), BuildingBlock: CIFDUS_clean_linker_0, # of connection points: 2
#     Edge 59, Type (0, 0), BuildingBlock: CIFDUS_clean_linker_0, # of connection points: 2
#     Edge 60, Type (0, 0), BuildingBlock: CIFDUS_clean_linker_0, # of connection points: 2
#     Edge 61, Type (0, 0), BuildingBlock: CIFDUS_clean_linker_0, # of connection points: 2
#     Edge 62, Type (0, 0), BuildingBlock: CIFDUS_clean_linker_0, # of connection points: 2
#     Edge 63, Type (0, 0), BuildingBlock: CIFDUS_clean_linker_0, # of connection points: 2
# Relax obj value: 0.301
# Max RMSD: 0.232
# Mean RMSD: 0.167
data_MOF--net-bcs--node1-CUWYAW_clean_sbu_0--edge1-CIFDUS_clean_linker_0
_symmetry_space_group_name_H-M    P1
_symmetry_Int_Tables_number       1
_symmetry_cell_setting            triclinic
loop_
_symmetry_equiv_pos_as_xyz
'x, y, z'
_cell_length_a     37.942885
_cell_length_b     37.422402
_cell_length_c     35.92529
_cell_angle_alpha  79.562368
_cell_angle_beta   115.12388
_cell_angle_gamma 107.53153
loop_
_atom_site_label
_atom_site_type_symbol
_atom_site_fract_x
_atom_site_fract_y
_atom_site_fract_z
_atom_type_partial_charge
C0 C 1.04534 0.09988 0.08069 0.0
Eu1 Eu 1.06508 0.05507 0.04287 0.0
C2 C 1.02854 0.1193 0.10479 0.0
C3 C 1.03675 0.15904 0.10669 0.0
C4 C 1.01762 0.17687 0.12341 0.0
C5 C 0.98883 0.15701 0.14103 0.0
C6 C 0.98121 0.11712 0.13996 0.0
C7 C 0.99951 0.09928 0.12207 0.0
C8 C 0.11138 0.07543 0.96596 0.0
C9 C 0.99852 0.06358 0.94943 0.0
C10 C 0.0825 0.96397 0.95344 0.0
Eu11 Eu 1.05491 0.99988 0.99296 0.0
C12 C 0.10248 0.94657 0.93072 0.0
C13 C 0.08961 0.90856 0.91858 0.0
C14 C 0.11017 0.89269 0.90134 0.0
C15 C 0.1453 0.91339 0.89348 0.0
C16 C 0.15769 0.95141 0.90534 0.0
C17 C 0.1379 0.96687 0.92353 0.0
C18 C 1.00581 0.96056 0.04866 0.0
C19 C 0.11965 0.98993 0.08771 0.0
O20 O 1.02079 0.07474 0.05418 0.0
O21 O 0.08296 0.10105 0.08753 0.0
O22 O 0.09886 0.07832 0.99594 0.0
O23 O 0.09392 0.06674 0.99383 0.0
O24 O 1.01059 0.06983 0.98835 0.0
O25 O 1.01238 0.03743 0.94181 0.0
O26 O 0.10433 0.98749 0.98257 0.0
O27 O 1.04395 0.96059 0.94432 0.0
O28 O 1.00906 0.94829 0.01789 0.0
O29 O 1.02814 0.99473 0.0445 0.0
O30 O 0.10289 0.97936 0.04987 0.0
O31 O 0.1101 1.01968 0.09452 0.0
H32 H 1.05754 0.17713 0.09376 0.0
H33 H 1.02581 0.20724 0.12233 0.0
H34 H 0.95958 0.09909 0.15187 0.0
H35 H 0.99028 0.06898 0.12155 0.0
H36 H 1.06344 0.8902 0.92314 0.0
H37 H 0.0977 0.86367 0.89351 0.0
H38 H 0.18401 0.96995 0.90124 0.0
H39 H 0.15085 0.99572 0.93197 0.0
C40 C 0.38772 0.85083 0.2253 0.0
Eu41 Eu 0.33883 0.79731 0.24909 0.0
C42 C 0.38085 0.88394 0.19647 0.0
C43 C 0.37117 0.88173 0.15458 0.0
C44 C 0.3668 0.91333 0.12758 0.0
C45 C 0.37251 0.9481 0.1419 0.0
C46 C 0.37915 0.94965 0.18321 0.0
C47 C 0.38348 0.91788 0.21032 0.0
C48 C 0.28193 0.74209 0.20109 0.0
C49 C 0.25771 0.83275 0.22221 0.0
C50 C 0.23097 0.70532 0.3033 0.0
Eu51 Eu 0.28169 0.75855 0.28148 0.0
C52 C 0.23505 0.67045 0.32941 0.0
C53 C 0.22872 0.66612 0.3657 0.0
C54 C 0.23354 0.63406 0.3917 0.0
C55 C 0.24456 0.60538 0.38188 0.0
C56 C 0.25077 0.60944 0.34543 0.0
C57 C 0.24645 0.642 0.31949 0.0
C58 C 0.33842 0.81444 0.32868 0.0
C59 C 0.36292 0.72308 0.30834 0.0
O60 O 0.38394 0.85065 0.25986 0.0
O61 O 0.37164 0.81808 0.20926 0.0
O62 O 0.32009 0.74783 0.21044 0.0
O63 O 0.27559 0.76558 0.21708 0.0
O64 O 0.29524 0.83878 0.22448 0.0
O65 O 0.24329 0.80023 0.23951 0.0
O66 O 0.23425 0.70691 0.26822 0.0
O67 O 0.24985 0.73658 0.32223 0.0
O68 O 0.30016 0.80881 0.31899 0.0
O69 O 0.3449 0.79059 0.31329 0.0
O70 O 0.3256 0.7172 0.30671 0.0
O71 O 0.37683 0.75521 0.29003 0.0
H72 H 0.36852 0.85594 0.14281 0.0
H73 H 0.36243 0.91105 0.0962 0.0
H74 H 0.3837 0.97601 0.19512 0.0
H75 H 0.3903 0.92032 0.24239 0.0
H76 H 0.21982 0.68752 0.37389 0.0
H77 H 0.22718 0.63113 0.41895 0.0
H78 H 0.25848 0.58738 0.33691 0.0
H79 H 0.25178 0.64472 0.29166 0.0
C80 C 0.62762 1.02396 0.42714 0.0
Eu81 Eu 0.59727 1.02378 0.48009 0.0
C82 C 0.66714 0.02852 0.42587 0.0
C83 C 0.68538 0.06256 0.40981 0.0
C84 C 0.71974 0.06577 0.40284 0.0
C85 C 0.73627 0.03485 0.41136 0.0
C86 C 0.71959 1.00163 0.43009 0.0
C87 C 0.68532 0.99847 0.43722 0.0
C88 C 0.63196 0.08086 0.53218 0.0
C89 C 0.63377 0.96521 0.56271 0.0
C90 C 0.53833 1.01896 0.58984 0.0
Eu91 Eu 0.56494 1.01061 0.53737 0.0
C92 C 0.53317 0.05335 0.59833 0.0
C93 C 0.49975 0.05203 0.60613 0.0
C94 C 0.4932 0.08514 0.61119 0.0
C95 C 0.52009 0.11993 0.60864 0.0
C96 C 0.55375 0.12125 0.60111 0.0
C97 C 0.55998 0.08814 0.59546 0.0
C98 C 0.52815 0.95516 0.48328 0.0
C99 C 0.52729 0.06626 0.45412 0.0
O100 O 0.61265 0.99321 0.4451 0.0
O101 O 0.62136 0.05366 0.43487 0.0
O102 O 0.62123 0.08519 0.49283 0.0
O103 O 0.62502 0.04634 0.54313 0.0
O104 O 0.63275 0.98036 0.52563 0.0
O105 O 0.61008 0.97407 0.57623 0.0
O106 O 0.5755 1.01833 0.60005 0.0
O107 O 0.51448 1.00675 0.55341 0.0
O108 O 0.53982 0.94931 0.52283 0.0
O109 O 0.53628 0.9899 0.4737 0.0
O110 O 0.53704 0.06041 0.49478 0.0
O111 O 0.54255 0.04793 0.43872 0.0
H112 H 0.67206 0.08625 0.40084 0.0
H113 H 0.73206 0.09179 0.38868 0.0
H114 H 0.73115 0.97704 0.43649 0.0
H115 H 0.67206 0.97189 0.44973 0.0
H116 H 0.47861 1.0255 0.60793 0.0
H117 H 0.46738 0.08353 0.61777 0.0
H118 H 0.57486 0.14779 0.59924 0.0
H119 H 0.58553 0.08975 0.58851 0.0
C120 C 0.24701 0.3516 0.74209 0.0
Eu121 Eu 0.28671 0.30268 0.75012 0.0
C122 C 0.20724 0.35208 0.73943 0.0
C123 C 0.17855 0.36185 0.7015 0.0
C124 C 0.14264 0.36685 0.69923 0.0
C125 C 0.13494 0.36244 0.73489 0.0
C126 C 0.16258 0.35044 0.77238 0.0
C127 C 0.19841 0.34536 0.77465 0.0
C128 C 0.25148 0.24893 0.69431 0.0
C129 C 0.2575 0.22739 0.81901 0.0
C130 C 0.36472 0.20548 0.77597 0.0
Eu131 Eu 0.328 0.25373 0.77581 0.0
C132 C 0.3835 0.20657 0.74749 0.0
C133 C 0.41939 0.19576 0.76114 0.0
C134 C 0.43771 0.1985 0.7339 0.0
C135 C 0.42065 0.21272 0.69283 0.0
C136 C 0.38538 0.22467 0.67984 0.0
C137 C 0.36669 0.2211 0.70669 0.0
C138 C 0.36243 0.30822 0.83044 0.0
C139 C 0.35915 0.3274 0.70822 0.0
O140 O 0.27262 0.34126 0.7775 0.0
O141 O 0.24733 0.33843 0.71111 0.0
O142 O 0.25994 0.28458 0.68507 0.0
O143 O 0.26355 0.24299 0.73295 0.0
O144 O 0.25263 0.2611 0.7968 0.0
O145 O 0.28719 0.21768 0.81464 0.0
O146 O 0.32571 0.1999 0.75897 0.0
O147 O 0.38192 0.23246 0.8012 0.0
O148 O 0.35326 0.27257 0.84073 0.0
O149 O 0.35089 0.31363 0.79178 0.0
O150 O 0.36037 0.29258 0.72809 0.0
O151 O 0.33196 0.33976 0.71464 0.0
H152 H 0.18456 0.36697 0.67386 0.0
H153 H 0.12158 0.3757 0.67001 0.0
H154 H 0.15781 0.34734 0.80058 0.0
H155 H 0.21982 0.33768 0.80433 0.0
H156 H 0.43292 0.18482 0.79259 0.0
H157 H 0.4644 0.1882 0.74468 0.0
H158 H 0.3717 0.23604 0.64864 0.0
H159 H 0.33893 0.22974 0.69538 0.0
C160 C 0.16463 1.02157 0.53987 0.0
Eu161 Eu 0.09142 1.01574 0.52919 0.0
C162 C 0.18147 0.04122 0.50942 0.0
C163 C 0.15573 0.04089 0.46741 0.0
C164 C 0.1668 0.0669 0.43881 0.0
C165 C 0.20408 0.09334 0.45147 0.0
C166 C 0.23101 0.09228 0.49295 0.0
C167 C 0.21956 0.0666 0.52191 0.0
C168 C 1.02692 0.96801 0.47658 0.0
C169 C 1.06284 0.0763 0.45257 0.0
C170 C 0.94118 0.02908 0.49521 0.0
Eu171 Eu 1.01472 0.03458 0.50654 0.0
C172 C 0.91709 0.99917 0.51399 0.0
C173 C 0.90153 1.0086 0.53897 0.0
C174 C 0.88991 0.98161 0.56687 0.0
C175 C 0.89389 0.94479 0.57036 0.0
C176 C 0.9063 0.93478 0.54284 0.0
C177 C 0.91756 0.96159 0.51485 0.0
C178 C 0.08018 0.08296 0.5574 0.0
C179 C 1.04238 0.97243 0.58051 0.0
O180 O 0.15532 0.0436 0.5567 0.0
O181 O 0.13619 0.99068 0.52845 0.0
O182 O 1.05635 0.95728 0.50718 0.0
O183 O 1.03328 1.00326 0.4744 0.0
O184 O 0.0932 0.06606 0.48339 0.0
O185 O 1.02593 0.06392 0.45115 0.0
O186 O 0.95041 1.01882 0.46824 0.0
O187 O 0.97206 0.0511 0.52157 0.0
O188 O 1.0511 0.09361 0.52615 0.0
O189 O 0.07306 0.04759 0.56084 0.0
O190 O 1.01226 0.98062 0.54753 0.0
O191 O 0.07975 0.98891 0.58498 0.0
H192 H 0.12589 1.02204 0.45692 0.0
H193 H 0.14582 0.06689 0.40687 0.0
H194 H 0.26006 0.11241 0.5032 0.0
H195 H 0.2395 0.06785 0.5542 0.0
H196 H 0.90102 0.03739 0.53896 0.0
H197 H 0.87954 0.99001 0.58696 0.0
H198 H 0.91005 0.90685 0.54475 0.0
H199 H 0.92968 0.95336 0.49623 0.0
C200 C 0.37358 0.73507 0.87659 0.0
Eu201 Eu 0.32621 0.75692 0.80502 0.0
C202 C 0.41698 0.74132 0.88951 0.0
C203 C 0.43958 0.72296 0.9251 0.0
C204 C 0.47949 0.725 0.93306 0.0
C205 C 0.49669 0.74484 0.90503 0.0
C206 C 0.475 0.76575 0.87132 0.0
C207 C 0.4355 0.76432 0.8639 0.0
C208 C 0.25937 0.72112 0.74283 0.0
C209 C 0.367 0.74971 0.73686 0.0
C210 C 0.26293 0.82931 0.66113 0.0
Eu211 Eu 0.30867 0.80383 0.73154 0.0
C212 C 0.2221 0.83397 0.6487 0.0
C213 C 0.2163 0.8633 0.66298 0.0
C214 C 0.17779 0.86392 0.65708 0.0
C215 C 0.14405 0.83503 0.63708 0.0
C216 C 0.14974 0.80639 0.6215 0.0
C217 C 0.18835 0.80592 0.62713 0.0
C218 C 0.37879 0.83767 0.79098 0.0
C219 C 0.26596 0.80831 0.79953 0.0
O220 O 0.36202 0.76586 0.87002 0.0
O221 O 0.35103 0.71224 0.84697 0.0
O222 O 0.2629 0.71691 0.7811 0.0
O223 O 0.29147 0.74241 0.74085 0.0
O224 O 0.36463 0.74063 0.77414 0.0
O225 O 0.34741 0.77554 0.71324 0.0
O226 O 0.26512 0.79448 0.66897 0.0
O227 O 0.29285 0.85146 0.68839 0.0
O228 O 0.373 0.83927 0.75227 0.0
O229 O 0.34685 0.81891 0.79577 0.0
O230 O 0.27058 0.82058 0.76352 0.0
O231 O 0.28354 0.7807 0.82081 0.0
H232 H 0.42582 0.70541 0.94531 0.0
H233 H 0.49552 0.70796 0.9588 0.0
H234 H 0.48742 0.78058 0.84902 0.0
H235 H 0.41859 0.77933 0.83666 0.0
H236 H 0.24154 0.88542 0.67955 0.0
H237 H 0.17456 0.8875 0.66785 0.0
H238 H 0.12452 0.78417 0.6053 0.0
H239 H 0.19193 0.78289 0.61574 0.0
C240 C 0.56318 0.11727 0.96482 0.0
Eu241 Eu 0.57433 0.05264 1.00111 0.0
C242 C 0.55314 0.14534 0.97986 0.0
C243 C 0.52344 0.16348 0.95292 0.0
C244 C 0.50724 0.18328 0.96854 0.0
C245 C 0.52033 0.18492 1.01136 0.0
C246 C 0.55173 0.16847 0.03802 0.0
C247 C 0.56793 0.1489 0.02245 0.0
C248 C 0.53456 0.98572 0.96383 0.0
C249 C 0.52196 1.02834 0.05618 0.0
C250 C 0.59619 0.92352 0.09521 0.0
Eu251 Eu 0.58457 0.98847 0.06011 0.0
C252 C 0.60986 0.89615 0.08283 0.0
C253 C 0.6476 0.88905 0.10755 0.0
C254 C 0.66437 0.86907 0.09282 0.0
C255 C 0.64368 0.85575 0.05299 0.0
C256 C 0.60484 0.86087 0.02934 0.0
C257 C 0.58817 0.88093 0.04399 0.0
C258 C 0.6237 0.05552 0.09726 0.0
C259 C 0.64022 1.01547 1.00887 0.0
O260 O 0.59892 0.11145 0.98625 0.0
O261 O 0.53512 0.08597 0.9556 0.0
O262 O 0.55435 1.01498 0.94894 0.0
O263 O 0.5361 0.99319 0.99767 0.0
O264 O 0.54116 0.05671 0.03895 0.0
O265 O 0.52957 0.99515 0.06352 0.0
O266 O 0.56055 0.92859 0.07118 0.0
O267 O 0.62296 0.9552 0.10701 0.0
O268 O 0.60519 1.02581 0.11293 0.0
O269 O 0.6223 0.04804 0.0635 0.0
O270 O 0.61964 0.9859 0.02332 0.0
O271 O 0.63182 0.04818 1.00223 0.0
H272 H 0.51132 0.16069 0.92002 0.0
H273 H 0.48344 0.19609 0.94718 0.0
H274 H 0.56216 0.1686 0.07113 0.0
H275 H 0.59033 0.13458 0.044 0.0
H276 H 0.66506 0.9007 0.13742 0.0
H277 H 0.69445 0.86589 0.11179 0.0
H278 H 0.58776 0.85035 0.99887 0.0
H279 H 0.55901 0.88585 0.02401 0.0
C280 C 0.3408 0.29609 0.3846 0.0
Eu281 Eu 0.33567 0.285 0.31267 0.0
C282 C 0.31914 0.31182 0.40028 0.0
C283 C 0.33283 0.31493 0.44269 0.0
C284 C 0.31148 0.32855 0.45809 0.0
C285 C 0.27607 0.33924 0.4312 0.0
C286 C 0.26288 0.33657 0.38856 0.0
C287 C 0.28425 0.32297 0.37323 0.0
C288 C 0.38192 0.32549 0.27196 0.0
C289 C 0.27319 0.31965 0.22698 0.0
C290 C 0.30763 0.23835 0.1614 0.0
Eu291 Eu 0.31886 0.25145 0.23508 0.0
C292 C 0.33056 0.23387 0.13928 0.0
C293 C 0.31594 0.2406 0.09642 0.0
C294 C 0.33712 0.23629 0.07456 0.0
C295 C 0.37325 0.22507 0.09531 0.0
C296 C 0.38801 0.2188 0.13848 0.0
C297 C 0.36687 0.22328 0.16031 0.0
C298 C 0.27192 0.21226 0.27611 0.0
C299 C 0.38371 0.21901 0.32123 0.0
O300 O 0.32066 0.26474 0.36617 0.0
O301 O 0.36118 0.31986 0.36497 0.0
O302 O 0.37 0.33977 0.29349 0.0
O303 O 0.37217 0.28998 0.27604 0.0
O304 O 0.28643 0.31571 0.26814 0.0
O305 O 0.28358 0.29913 0.20819 0.0
O306 O 0.31571 0.27192 0.17319 0.0
O307 O 0.30292 0.21196 0.1894 0.0
O308 O 0.28352 0.19724 0.25504 0.0
O309 O 0.28241 0.24746 0.27087 0.0
O310 O 0.37082 0.22247 0.27993 0.0
O311 O 0.37199 0.23908 0.33906 0.0
H312 H 0.35984 0.30652 0.46391 0.0
H313 H 0.32268 0.33072 0.49101 0.0
H314 H 0.23548 0.34412 0.36709 0.0
H315 H 0.27326 0.32063 0.34035 0.0
H316 H 0.2881 0.24917 0.07984 0.0
H317 H 0.32528 0.24187 0.04145 0.0
H318 H 0.41547 0.20967 0.15534 0.0
H319 H 0.37869 0.21824 0.19351 0.0
C320 C 0.67439 0.52785 0.0395 0.0
Eu321 Eu 0.5989 0.52069 0.02107 0.0
C322 C 0.69926 0.55365 0.01835 0.0
C323 C 0.70482 0.54034 0.98764 0.0
C324 C 0.71835 0.5654 0.95986 0.0
C325 C 0.72746 0.60445 0.96258 0.0
C326 C 0.72528 0.61769 0.99557 0.0
C327 C 0.71126 0.59258 0.02312 0.0
C328 C 0.53771 0.47428 0.96368 0.0
C329 C 0.55951 0.5767 0.9498 0.0
C330 C 0.44174 0.51139 0.98944 0.0
Eu331 Eu 0.51797 0.52273 1.00922 0.0
C332 C 0.41777 0.47827 1.00489 0.0
C333 C 0.39261 0.48295 0.02202 0.0
C334 C 0.38121 0.45502 0.04931 0.0
C335 C 0.39559 0.42235 0.06059 0.0
C336 C 0.41713 0.4161 0.03986 0.0
C337 C 0.42787 0.4437 1.0121 0.0
C338 C 0.57907 0.56963 0.06636 0.0
C339 C 0.55805 0.46746 0.08046 0.0
O340 O 0.66194 0.54352 0.05979 0.0
O341 O 0.64586 0.5009 0.01766 0.0
O342 O 0.56956 0.49542 0.95857 0.0
O343 O 0.53948 0.47847 0.99849 0.0
O344 O 0.59403 0.57114 0.97717 0.0
O345 O 0.52519 0.55811 0.95311 0.0
O346 O 0.45608 0.5049 0.96467 0.0
O347 O 0.46886 0.53377 0.01805 0.0
O348 O 0.54659 0.5495 0.07089 0.0
O349 O 0.57735 0.56498 0.03175 0.0
O350 O 0.52367 0.4713 0.05135 0.0
O351 O 0.59238 0.488 0.07864 0.0
H352 H 0.69598 0.51055 0.98322 0.0
H353 H 0.71924 0.55396 0.93476 0.0
H354 H 0.73302 0.64751 0.99927 0.0
H355 H 0.70774 0.60389 0.04669 0.0
H356 H 0.38448 0.50934 0.01696 0.0
H357 H 0.36341 0.46018 0.06371 0.0
H358 H 0.42875 0.39143 0.04759 0.0
H359 H 0.4473 0.43928 0.99932 0.0
C360 C 0.87836 0.24347 0.38238 0.0
Eu361 Eu 0.82792 0.26246 0.31141 0.0
C362 C 0.91733 0.23617 0.39138 0.0
C363 C 0.91866 0.20378 0.37821 0.0
C364 C 0.95449 0.20052 0.379 0.0
C365 C 0.98995 0.22968 0.39263 0.0
C366 C 0.98899 0.26156 0.4072 0.0
C367 C 0.95303 0.2647 0.40674 0.0
C368 C 0.76017 0.22141 0.25499 0.0
C369 C 0.86881 0.25229 0.24416 0.0
C370 C 0.76028 0.32174 0.1608 0.0
Eu371 Eu 0.80702 0.3032 0.23452 0.0
C372 C 0.71649 0.31341 0.14503 0.0
C373 C 0.69458 0.33057 0.10796 0.0
C374 C 0.65374 0.32685 0.09703 0.0
C375 C 0.6349 0.30651 0.12352 0.0
C376 C 0.65611 0.28655 0.15866 0.0
C377 C 0.69667 0.28977 0.16919 0.0
C378 C 0.87315 0.34423 0.29369 0.0
C379 C 0.76438 0.31181 0.30092 0.0
O380 O 0.87711 0.27814 0.36972 0.0
O381 O 0.84559 0.2194 0.36072 0.0
O382 O 0.76559 0.22274 0.29321 0.0
O383 O 0.79102 0.24162 0.24898 0.0
O384 O 0.86562 0.24377 0.28111 0.0
O385 O 0.84936 0.27764 0.21969 0.0
O386 O 0.77405 0.29202 0.16975 0.0
O387 O 0.77981 0.34536 0.18993 0.0
O388 O 0.86973 0.34503 0.25584 0.0
O389 O 0.84136 0.32337 0.29665 0.0
O390 O 0.76418 0.31677 0.26239 0.0
O391 O 0.78833 0.29065 0.32768 0.0
H392 H 0.89182 0.1813 0.36619 0.0
H393 H 0.95432 0.17467 0.36933 0.0
H394 H 1.01585 0.28416 0.41858 0.0
H395 H 0.95281 0.29015 0.41692 0.0
H396 H 0.70944 0.34854 0.08887 0.0
H397 H 0.63802 0.34307 0.07012 0.0
H398 H 0.64228 0.2712 0.1797 0.0
H399 H 0.71319 0.27572 0.19761 0.0
C400 C 0.07292 0.63805 0.46627 0.0
Eu401 Eu 0.0739 0.56857 0.49213 0.0
C402 C 1.06776 0.6654 0.48696 0.0
C403 C 1.05432 0.69713 0.46552 0.0
C404 C 1.04417 0.71962 0.48482 0.0
C405 C 1.04679 0.71027 0.52563 0.0
C406 C 1.06178 0.67909 0.54714 0.0
C407 C 0.0723 0.65716 0.52813 0.0
C408 C 1.03903 0.50806 0.44334 0.0
C409 C 1.00295 0.53461 0.52392 0.0
C410 C 0.07634 0.42935 0.5687 0.0
Eu411 Eu 0.07122 0.49726 0.54031 0.0
C412 C 0.0961 0.40591 0.55889 0.0
C413 C 0.13305 0.39979 0.58805 0.0
C414 C 0.1561 0.3843 0.57683 0.0
C415 C 0.14289 0.37529 0.53601 0.0
C416 C 0.10514 0.37972 0.50727 0.0
C417 C 0.08184 0.39469 0.51861 0.0
C418 C 0.10358 0.55731 0.58889 0.0
C419 C 0.14326 0.53119 0.51074 0.0
O420 O 0.10606 0.62699 0.48605 0.0
O421 O 1.0415 0.60986 0.45284 0.0
O422 O 1.06271 0.53914 0.43613 0.0
O423 O 1.03382 0.51089 0.47506 0.0
O424 O 1.02913 0.56564 0.51971 0.0
O425 O 1.00978 0.50159 0.52703 0.0
O426 O 1.04402 0.43691 0.53898 0.0
O427 O 0.10065 0.45891 0.58886 0.0
O428 O 0.07946 0.5261 0.59506 0.0
O429 O 0.11042 0.55519 0.55784 0.0
O430 O 0.11699 0.5002 0.51449 0.0
O431 O 0.13596 0.56409 0.50691 0.0
H432 H 1.05051 0.70382 0.43363 0.0
H433 H 1.0333 0.74366 0.4674 0.0
H434 H 1.06341 0.67008 0.57809 0.0
H435 H 0.08226 0.63258 0.54511 0.0
H436 H 0.14526 0.40914 0.61887 0.0
H437 H 0.1853 0.38145 0.59942 0.0
H438 H 0.09421 0.37266 0.47566 0.0
H439 H 1.05367 0.39922 0.49517 0.0
C440 C 0.7514 0.84447 0.23852 0.0
Eu441 Eu 0.79019 0.79417 0.24878 0.0
C442 C 0.76199 0.88528 0.24015 0.0
C443 C 0.73137 0.9036 0.22794 0.0
C444 C 0.74059 0.94056 0.23787 0.0
C445 C 0.78059 0.95941 0.26085 0.0
C446 C 0.81157 0.94204 0.26965 0.0
C447 C 0.80229 0.9052 0.25906 0.0
C448 C 0.75535 0.73644 0.19731 0.0
C449 C 0.76074 0.72131 0.31864 0.0
C450 C 0.87568 0.70147 0.2891 0.0
Eu451 Eu 0.83265 0.74857 0.2766 0.0
C452 C 0.9147 0.70267 0.28865 0.0
C453 C 0.94734 0.69878 0.32588 0.0
C454 C 0.98341 0.69662 0.32576 0.0
C455 C 0.98733 0.6979 0.28833 0.0
C456 C 0.95514 0.70353 0.2512 0.0
C457 C 0.9193 0.70597 0.25136 0.0
C458 C 0.86555 0.80378 0.33048 0.0
C459 C 0.86303 0.82101 0.20745 0.0
O460 O 0.75314 0.83172 0.20809 0.0
O461 O 0.76705 0.8263 0.27364 0.0
O462 O 0.76362 0.77149 0.18538 0.0
O463 O 0.76776 0.73297 0.23602 0.0
O464 O 0.75569 0.75455 0.29572 0.0
O465 O 0.79053 0.71173 0.31429 0.0
O466 O 0.84656 0.70651 0.25388 0.0
O467 O 0.87717 0.71865 0.31835 0.0
O468 O 0.85624 0.76831 0.34021 0.0
O469 O 0.8545 0.80926 0.29179 0.0
O470 O 0.86493 0.78637 0.22788 0.0
O471 O 0.83536 0.83259 0.21379 0.0
H472 H 0.70014 0.88851 0.21342 0.0
H473 H 0.71596 0.95292 0.23109 0.0
H474 H 0.8426 0.95593 0.28725 0.0
H475 H 0.82624 0.89137 0.26817 0.0
H476 H 0.94459 0.69631 0.35512 0.0
H477 H 1.00765 0.69257 0.35487 0.0
H478 H 0.95653 0.7038 0.22166 0.0
H479 H 0.89478 0.70907 0.22212 0.0
C480 C 0.88557 0.31975 0.70449 0.0
Eu481 Eu 0.83391 0.28906 0.73731 0.0
C482 C 0.88484 0.35255 0.67517 0.0
C483 C 0.8902 0.35096 0.63941 0.0
C484 C 0.88452 0.3799 0.60877 0.0
C485 C 0.87336 0.41094 0.61342 0.0
C486 C 0.86791 0.41249 0.64925 0.0
C487 C 0.87334 0.38336 0.67981 0.0
C488 C 0.76608 0.23586 0.69897 0.0
C489 C 0.76407 0.33589 0.71159 0.0
C490 C 0.73751 0.23364 0.81604 0.0
Eu491 Eu 0.78879 0.26572 0.78325 0.0
C492 C 0.7407 0.20119 0.84583 0.0
C493 C 0.77881 0.19727 0.87447 0.0
C494 C 0.7828 0.16451 0.89965 0.0
C495 C 0.74872 0.13512 0.89679 0.0
C496 C 0.71061 0.13906 0.86783 0.0
C497 C 0.7067 0.17177 0.84241 0.0
C498 C 0.85809 0.31687 0.82252 0.0
C499 C 0.85874 0.2192 0.80969 0.0
O500 O 0.89215 0.32588 0.74187 0.0
O501 O 0.85607 0.29038 0.69015 0.0
O502 O 0.77842 0.26761 0.68135 0.0
O503 O 0.78904 0.23427 0.73669 0.0
O504 O 0.79673 0.33437 0.70707 0.0
O505 O 0.75334 0.31026 0.73865 0.0
O506 O 0.73173 0.22666 0.77924 0.0
O507 O 0.7649 0.26475 0.82894 0.0
O508 O 0.84444 0.2854 0.83965 0.0
O509 O 0.83497 0.31987 0.78497 0.0
O510 O 0.82623 0.2209 0.81426 0.0
O511 O 0.86929 0.24444 0.78222 0.0
H512 H 0.89834 0.32714 0.63499 0.0
H513 H 0.89007 0.37851 0.58193 0.0
H514 H 0.85978 0.43631 0.65369 0.0
H515 H 0.86815 0.38482 0.70686 0.0
H516 H 0.80568 0.21944 0.87722 0.0
H517 H 0.81243 0.16234 0.92171 0.0
H518 H 0.68355 0.11734 0.86564 0.0
H519 H 0.67722 0.17405 0.82001 0.0
C520 C 0.83151 0.78671 0.88078 0.0
Eu521 Eu 0.83262 0.78077 0.80992 0.0
C522 C 0.80412 0.7926 0.89689 0.0
C523 C 0.81862 0.79969 0.93846 0.0
C524 C 0.79338 0.80626 0.95427 0.0
C525 C 0.75304 0.80577 0.92873 0.0
C526 C 0.7385 0.79801 0.88709 0.0
C527 C 0.76387 0.79162 0.87128 0.0
C528 C 0.8819 0.82615 0.77446 0.0
C529 C 0.77339 0.81795 0.72222 0.0
C530 C 0.8178 0.7395 0.6595 0.0
Eu531 Eu 0.82097 0.75257 0.73015 0.0
C532 C 0.8456 0.74707 0.63882 0.0
C533 C 0.83055 0.73957 0.59738 0.0
C534 C 0.85671 0.74522 0.57761 0.0
C535 C 0.89854 0.75938 0.59869 0.0
C536 C 0.91319 0.76804 0.64008 0.0
C537 C 0.88711 0.76104 0.66019 0.0
C538 C 0.77102 0.70927 0.76663 0.0
C539 C 0.88434 0.7188 0.81737 0.0
O540 O 0.82105 0.75475 0.86435 0.0
O541 O 0.84564 0.81506 0.85953 0.0
O542 O 0.87014 0.83745 0.79824 0.0
O543 O 0.87155 0.79061 0.77489 0.0
O544 O 0.78227 0.80991 0.76278 0.0
O545 O 0.78816 0.80155 0.70387 0.0
O546 O 0.80815 0.76834 0.66473 0.0
O547 O 0.825 0.71625 0.69198 0.0
O548 O 0.78259 0.69678 0.74367 0.0
O549 O 0.782 0.7445 0.76425 0.0
O550 O 0.87355 0.72598 0.77656 0.0
O551 O 0.87056 0.73548 0.83647 0.0
H552 H 0.84968 0.80062 0.95862 0.0
H553 H 0.80582 0.81272 0.98625 0.0
H554 H 0.7075 0.79695 0.86667 0.0
H555 H 0.75217 0.78614 0.83907 0.0
H556 H 0.79859 0.72843 0.58054 0.0
H557 H 0.84399 0.73716 0.54621 0.0
H558 H 0.94487 0.77974 0.65735 0.0
H559 H 0.89944 0.76649 0.69245 0.0
C560 C 0.5417 0.59298 0.57407 0.0
Eu561 Eu 0.56011 0.54763 0.53521 0.0
C562 C 0.52495 0.61265 0.59812 0.0
C563 C 0.53487 0.65237 0.60159 0.0
C564 C 0.51591 0.67076 0.61801 0.0
C565 C 0.48553 0.65154 0.6338 0.0
C566 C 0.47613 0.61164 0.63114 0.0
C567 C 0.49429 0.5933 0.61351 0.0
C568 C 0.62774 0.58454 0.48543 0.0
C569 C 0.49459 0.56182 0.44624 0.0
C570 C 0.57016 0.45722 0.45162 0.0
Eu571 Eu 0.55722 0.50617 0.4918 0.0
C572 C 0.59638 0.44368 0.43305 0.0
C573 C 0.63341 0.4336 0.45842 0.0
C574 C 0.65527 0.4174 0.44359 0.0
C575 C 0.64272 0.40894 0.40152 0.0
C576 C 0.60576 0.4195 0.3758 0.0
C577 C 0.58366 0.43571 0.39081 0.0
C578 C 0.51446 0.45879 0.56128 0.0
C579 C 0.62253 0.49269 0.58006 0.0
O580 O 0.51685 0.56994 0.5455 0.0
O581 O 0.57894 0.59154 0.58265 0.0
O582 O 0.5897 0.5718 0.48405 0.0
O583 O 0.59033 0.57136 0.48565 0.0
O584 O 0.50252 0.56115 0.48548 0.0
O585 O 0.51391 0.54157 0.43765 0.0
O586 O 0.5829 0.45971 0.49117 0.0
O587 O 0.54615 0.47989 0.4332 0.0
O588 O 0.51426 0.48556 0.53026 0.0
O589 O 0.51546 0.48556 0.53017 0.0
O590 O 0.61825 0.49831 0.5415 0.0
O591 O 0.5997 0.50917 0.58775 0.0
H592 H 0.55696 0.67009 0.59011 0.0
H593 H 0.52555 0.70107 0.61818 0.0
H594 H 0.45322 0.59405 0.64156 0.0
H595 H 0.48362 0.56313 0.61166 0.0
H596 H 0.64589 0.43775 0.49104 0.0
H597 H 0.68296 0.41154 0.4664 0.0
H598 H 0.59288 0.41449 0.34339 0.0
H599 H 0.55555 0.44144 0.36869 0.0
C600 C 0.11732 0.5257 0.93175 0.0
Eu601 Eu 0.09407 0.52708 0.98995 0.0
C602 C 0.09837 0.5204 0.88742 0.0
C603 C 0.12161 0.534 0.86395 0.0
C604 C 0.10718 0.52257 0.82414 0.0
C605 C 1.06935 0.49703 0.80737 0.0
C606 C 1.04443 0.48668 0.82946 0.0
C607 C 1.05888 0.49831 0.8693 0.0
C608 C 0.13419 0.57909 0.04861 0.0
C609 C 0.13243 0.46701 0.0704 0.0
C610 C 1.04172 0.51535 0.10815 0.0
Eu611 Eu 1.06407 0.51146 0.04997 0.0
C612 C 1.05062 0.54534 0.13416 0.0
C613 C 1.03352 0.53887 0.16308 0.0
C614 C 1.04234 0.56708 0.18852 0.0
C615 C 1.06865 0.60224 0.18557 0.0
C616 C 0.08631 0.60838 0.15684 0.0
C617 C 0.07736 0.58005 0.1313 0.0
C618 C 1.02482 0.45746 0.99406 0.0
C619 C 1.02742 0.57179 0.97096 0.0
O620 O 0.11721 0.55668 0.94339 0.0
O621 O 0.10911 0.49635 0.95539 0.0
O622 O 0.12325 0.58734 1.00953 0.0
O623 O 0.12468 0.54411 0.05506 0.0
O624 O 0.12882 0.48159 0.03236 0.0
O625 O 0.11135 0.47687 0.08644 0.0
O626 O 0.07252 0.50315 0.11432 0.0
O627 O 1.01995 0.52031 0.06909 0.0
O628 O 1.03552 0.45131 0.03337 0.0
O629 O 1.03361 0.49232 0.98507 0.0
O630 O 1.03824 0.56323 1.01153 0.0
O631 O 1.04127 0.55528 0.95222 0.0
H632 H 0.15203 0.55131 0.87742 0.0
H633 H 0.12738 0.53086 0.80825 0.0
H634 H 1.01506 0.46731 0.81723 0.0
H635 H 1.04029 0.48801 0.8869 0.0
H636 H 1.013 0.51213 0.16569 0.0
H637 H 1.02735 0.56171 0.20952 0.0
H638 H 0.10661 0.63512 0.15383 0.0
H639 H 0.0911 0.5852 0.10921 0.0
H640 H 0.20535 0.23341 0.8686 0.0
H641 H 0.24306 0.14826 0.83945 0.0
H642 H 0.20727 0.10119 0.87645 0.0
H643 H 0.16212 0.07792 0.91925 0.0
H644 H 0.12674 0.1611 0.95432 0.0
H645 H 0.16185 0.20957 0.91636 0.0
C646 C 0.2065 0.20473 0.86945 0.0
C647 C 0.23008 0.19822 0.84702 0.0
C648 C 0.18464 0.17485 0.89397 0.0
C649 C 0.22771 0.15842 0.85317 0.0
C650 C 0.20612 0.12989 0.8756 0.0
C651 C 0.16164 0.10657 0.91991 0.0
C652 C 0.13898 0.11181 0.94362 0.0
C653 C 0.18394 0.13665 0.89673 0.0
C654 C 0.1419 0.15174 0.93976 0.0
C655 C 0.16294 0.18097 0.91654 0.0
H656 H 0.11736 0.91364 0.08988 0.0
H657 H 0.19102 1.01036 0.1602 0.0
H658 H 0.23957 0.9735 0.2051 0.0
H659 H 0.26358 0.91229 0.22507 0.0
H660 H 0.18477 0.81524 0.15704 0.0
H661 H 0.13787 0.8528 0.11239 0.0
C662 C 0.14374 0.92709 0.11524 0.0
C663 C 0.14899 0.96604 0.12042 0.0
C664 C 0.17183 0.90496 0.14207 0.0
C665 C 0.1844 0.9812 0.15435 0.0
C666 C 0.21283 0.9597 0.18031 0.0
C667 C 0.23623 0.89905 0.2005 0.0
C668 C 0.22925 0.8596 0.19526 0.0
C669 C 0.2074 0.92134 0.17465 0.0
C670 C 0.19241 0.84457 0.16291 0.0
C671 C 0.16503 0.86647 0.13688 0.0
H672 H 0.45415 0.95925 0.42535 0.0
H673 H 0.53408 0.88604 0.47827 0.0
H674 H 0.48349 0.83656 0.43348 0.0
H675 H 0.41542 0.81338 0.3804 0.0
H676 H 0.33258 0.88385 0.33387 0.0
H677 H 0.3849 0.93496 0.3747 0.0
C678 C 0.46048 0.93255 0.42666 0.0
C679 C 0.49796 0.92637 0.4545 0.0
C680 C 0.43051 0.90365 0.4021 0.0
C681 C 0.50555 0.89142 0.45677 0.0
C682 C 0.4766 0.86314 0.43125 0.0
C683 C 0.40894 0.83998 0.37925 0.0
C684 C 0.37025 0.84492 0.35409 0.0
C685 C 0.43882 0.86879 0.40399 0.0
C686 C 0.36208 0.87934 0.35317 0.0
C687 C 0.39204 0.9086 0.37642 0.0
H688 H 0.49902 0.22673 0.70368 0.0
H689 H 0.37745 0.19236 0.61356 0.0
H690 H 0.40138 0.17007 0.57158 0.0
H691 H 0.45304 0.14455 0.57075 0.0
H692 H 0.57274 0.17061 0.66532 0.0
H693 H 0.55388 0.21227 0.69485 0.0
C694 C 0.47794 0.21498 0.67448 0.0
C695 C 0.43648 0.21007 0.66253 0.0
C696 C 0.49158 0.20012 0.65156 0.0
C697 C 0.40955 0.19626 0.62382 0.0
C698 C 0.42314 0.18307 0.59987 0.0
C699 C 0.4752 0.16042 0.59701 0.0
C700 C 0.51365 0.15401 0.61673 0.0
C701 C 0.46354 0.18246 0.61495 0.0
C702 C 0.54274 0.17503 0.65008 0.0
C703 C 0.53184 0.19847 0.66717 0.0
H704 H 1.00534 0.90534 0.54971 0.0
H705 H 1.06768 0.96012 0.66382 0.0
H706 H 0.09402 0.90568 0.6986 0.0
H707 H 0.12069 0.85834 0.68835 0.0
H708 H 0.0747 0.81766 0.56737 0.0
H709 H 1.01962 0.84746 0.54421 0.0
C710 C 1.02288 0.90424 0.5827 0.0
C711 C 1.0359 0.93671 0.60412 0.0
C712 C 1.04223 0.87524 0.60081 0.0
C713 C 1.058 0.93539 0.64682 0.0
C714 C 0.07362 0.90452 0.66642 0.0
C715 C 0.09805 0.85541 0.65713 0.0
C716 C 0.1032 0.8379 0.62897 0.0
C717 C 0.0696 0.8766 0.64255 0.0
C718 C 0.07238 0.83207 0.58946 0.0
C719 C 1.04104 0.84963 0.57595 0.0
H720 H 0.39121 0.84903 0.87037 0.0
H721 H 0.44272 0.88799 0.77943 0.0
H722 H 0.49538 0.93563 0.82465 0.0
H723 H 0.52582 0.96866 0.88892 0.0
H724 H 0.47585 0.92997 0.98097 0.0
H725 H 0.42436 0.88024 0.93704 0.0
C726 C 0.41411 0.86777 0.86055 0.0
C727 C 0.41247 0.8648 0.82103 0.0
C728 C 0.44478 0.89551 0.88706 0.0
C729 C 0.44276 0.88945 0.80928 0.0
C730 C 0.47304 0.91689 0.83524 0.0
C731 C 0.5038 0.94926 0.89955 0.0
C732 C 0.50477 0.95351 0.93832 0.0
C733 C 0.47417 0.92057 0.874 0.0
C734 C 0.47599 0.92769 0.95141 0.0
C735 C 0.44638 0.89918 0.92613 0.0
H736 H 0.4397 0.17637 0.98376 0.0
H737 H 0.55282 0.22647 0.07892 0.0
H738 H 0.51715 0.2446 0.11227 0.0
H739 H 0.45403 0.24424 0.11584 0.0
H740 H 0.34095 0.19161 0.02235 0.0
H741 H 0.37655 0.17794 0.98598 0.0
C742 C 0.45665 0.19212 1.01119 0.0
C743 C 0.49893 0.20019 0.02865 0.0
C744 C 0.43598 0.20221 0.03042 0.0
C745 C 0.52026 0.21968 0.06491 0.0
C746 C 0.49992 0.23016 0.08397 0.0
C747 C 0.43717 0.22964 0.0876 0.0
C748 C 0.39491 0.21882 0.07201 0.0
C749 C 0.4578 0.22111 0.06731 0.0
C750 C 0.37349 0.20063 0.03487 0.0
C751 C 0.39382 0.19255 1.01417 0.0
H752 H 0.26819 0.10627 0.43206 0.0
H753 H 0.16182 0.14343 0.40231 0.0
H754 H 0.17557 0.1872 0.34754 0.0
H755 H 0.21582 0.21163 0.30483 0.0
H756 H 0.31667 0.16714 0.33009 0.0
H757 H 0.30803 0.13045 0.39021 0.0
C758 C 0.24847 0.12442 0.41391 0.0
C759 C 0.2143 0.12197 0.42106 0.0
C760 C 0.25572 0.1483 0.38166 0.0
C761 C 0.18838 0.14503 0.39708 0.0
C762 C 0.1962 0.16996 0.36583 0.0
C763 C 0.23598 0.19415 0.32391 0.0
C764 C 0.26711 0.19238 0.31355 0.0
C765 C 0.22945 0.17139 0.35732 0.0
C766 C 0.2928 0.16926 0.33786 0.0
C767 C 0.28776 0.14808 0.37213 0.0
H768 H 0.89512 0.26652 0.17476 0.0
H769 H 0.89887 0.18836 0.27948 0.0
H770 H 0.93225 0.15314 0.25917 0.0
H771 H 0.96161 0.14158 0.21053 0.0
H772 H 0.96234 0.22289 0.10909 0.0
H773 H 0.92789 0.25714 0.12878 0.0
C774 C 0.90306 0.24187 0.19374 0.0
C775 C 0.89268 0.23146 0.22974 0.0
C776 C 0.92397 0.22096 0.18187 0.0
C777 C 0.905 0.1987 0.25211 0.0
C778 C 0.9246 0.17786 0.24011 0.0
C779 C 0.95449 0.16675 0.1922 0.0
C780 C 0.96612 0.17808 0.15695 0.0
C781 C 0.93445 0.18815 0.20479 0.0
C782 C 0.95543 0.21186 0.13589 0.0
C783 C 0.935 0.23206 0.1474 0.0
H784 H 0.14377 0.49357 0.45421 0.0
H785 H 0.22059 0.56656 0.55327 0.0
H786 H 0.27351 0.58386 0.5269 0.0
H787 H 0.28496 0.59595 0.46369 0.0
H788 H 0.19955 0.53536 0.35713 0.0
H789 H 0.16494 0.49338 0.39835 0.0
C790 C 0.17291 0.51183 0.47087 0.0
C791 C 0.17848 0.52957 0.50483 0.0
C792 C 0.20162 0.5241 0.45344 0.0
C793 C 0.2159 0.55323 0.52658 0.0
C794 C 0.24599 0.56316 0.51141 0.0
C795 C 0.26009 0.57214 0.45028 0.0
C796 C 0.24327 0.56979 0.40742 0.0
C797 C 0.23756 0.55151 0.47292 0.0
C798 C 0.21218 0.53833 0.39004 0.0
C799 C 0.19182 0.51486 0.41346 0.0
H800 H 0.65232 0.93104 0.64535 0.0
H801 H 0.6796 0.93527 0.53955 0.0
H802 H 0.72254 0.89218 0.57643 0.0
H803 H 0.7541 0.85157 0.63959 0.0
H804 H 0.72859 0.84878 0.74622 0.0
H805 H 0.68504 0.89138 0.70912 0.0
C806 C 0.6675 0.92275 0.62998 0.0
C807 C 0.66138 0.93764 0.58837 0.0
C808 C 0.69338 0.89731 0.65214 0.0
C809 C 0.68253 0.92542 0.57074 0.0
C810 C 0.70757 0.90025 0.5922 0.0
C811 C 0.73912 0.86001 0.65508 0.0
C812 C 0.74573 0.84554 0.69689 0.0
C813 C 0.71352 0.88569 0.63308 0.0
C814 C 0.72522 0.85829 0.71485 0.0
C815 C 0.69979 0.88313 0.69324 0.0
H816 H 0.48604 0.41022 0.97889 0.0
H817 H 0.51694 0.47752 0.88113 0.0
H818 H 0.46417 0.43353 0.83098 0.0
H819 H 0.4099 0.37508 0.81484 0.0
H820 H 0.38202 0.30527 0.91314 0.0
H821 H 0.43236 0.35096 0.96292 0.0
C822 C 0.48091 0.41538 0.94656 0.0
C823 C 0.50517 0.44733 0.93372 0.0
C824 C 0.45096 0.38941 0.91793 0.0
C825 C 0.49872 0.45319 0.89182 0.0
C826 C 0.46847 0.42804 0.8631 0.0
C827 C 0.41464 0.37 0.84711 0.0
C828 C 0.39197 0.33687 0.86018 0.0
C829 C 0.44446 0.39596 0.87576 0.0
C830 C 0.39895 0.33053 0.90223 0.0
C831 C 0.4278 0.35666 0.93073 0.0
H832 H 0.88616 0.88135 0.32328 0.0
H833 H 0.91446 0.78659 0.40807 0.0
H834 H 0.96644 0.82855 0.46012 0.0
H835 H 1.00495 0.89202 0.48188 0.0
H836 H 0.97468 0.98772 0.4003 0.0
H837 H 0.92238 0.94593 0.34718 0.0
C838 C 0.90354 0.87 0.35319 0.0
C839 C 0.89629 0.83078 0.36153 0.0
C840 C 0.93311 0.89452 0.38375 0.0
C841 C 0.91915 0.81657 0.40066 0.0
C842 C 0.94903 0.84057 0.43059 0.0
C843 C 0.98679 0.90372 0.45255 0.0
C844 C 0.99392 0.94289 0.44499 0.0
C845 C 0.95639 0.87955 0.4225 0.0
C846 C 0.9699 0.95764 0.40689 0.0
C847 C 0.94001 0.93372 0.37645 0.0
H848 H 0.45524 0.6357 0.70113 0.0
H849 H 0.46305 0.71969 0.60373 0.0
H850 H 0.42949 0.75504 0.62334 0.0
H851 H 0.39562 0.76482 0.66837 0.0
H852 H 0.39294 0.68368 0.76941 0.0
H853 H 0.42501 0.64743 0.74877 0.0
C854 C 0.44988 0.6617 0.68365 0.0
C855 C 0.46321 0.67335 0.64955 0.0
C856 C 0.43044 0.68376 0.69627 0.0
C857 C 0.45474 0.70825 0.62962 0.0
C858 C 0.43483 0.72913 0.6411 0.0
C859 C 0.40182 0.73928 0.68645 0.0
C860 C 0.38999 0.72842 0.72157 0.0
C861 C 0.42216 0.71768 0.67448 0.0
C862 C 0.40022 0.69449 0.74278 0.0
C863 C 0.41909 0.67302 0.73059 0.0
H864 H 0.71846 0.04792 0.0418 0.0
H865 H 0.6278 0.97848 0.94455 0.0
H866 H 0.66598 1.00401 0.90123 0.0
H867 H 0.70994 0.06156 0.88413 0.0
H868 H 0.7936 0.13686 0.97944 0.0
H869 H 0.77544 0.09293 0.03083 0.0
C870 C 0.70855 0.03687 1.01205 0.0
C871 C 0.67038 1.0124 0.99556 0.0
C872 C 0.72915 0.05369 0.98656 0.0
C873 C 0.65724 0.99765 0.95739 0.0
C874 C 0.67875 1.01275 0.93244 0.0
C875 C 0.72517 0.06757 0.91642 0.0
C876 C 0.75144 0.10303 0.92775 0.0
C877 C 0.71249 0.04335 0.94539 0.0
C878 C 0.77249 0.11008 0.96973 0.0
C879 C 0.76179 0.0851 0.99919 0.0
H880 H 0.15697 0.43683 0.15432 0.0
H881 H 0.17173 0.43223 0.04297 0.0
H882 H 0.21372 0.38796 0.07844 0.0
H883 H 0.24788 0.34876 0.14208 0.0
H884 H 0.23504 0.35566 0.25397 0.0
H885 H 0.19239 0.39911 0.21814 0.0
C886 C 0.16921 0.42637 0.13741 0.0
C887 C 0.15989 0.43908 0.09475 0.0
C888 C 0.19453 0.40037 0.15869 0.0
C889 C 0.1773 0.42412 0.07508 0.0
C890 C 0.20174 0.39827 0.09572 0.0
C891 C 0.23583 0.35949 0.15897 0.0
C892 C 0.24571 0.34743 0.2019 0.0
C893 C 0.21083 0.38583 0.1377 0.0
C894 C 0.22902 0.36318 0.22167 0.0
C895 C 0.20413 0.38854 0.20082 0.0
H896 H 0.76976 0.59835 0.91998 0.0
H897 H 0.70382 0.66987 0.92961 0.0
H898 H 0.71196 0.70929 0.87031 0.0
H899 H 0.73456 0.72135 0.81268 0.0
H900 H 0.79636 0.64655 0.80179 0.0
H901 H 0.79157 0.60979 0.86337 0.0
C902 C 0.75681 0.62235 0.90902 0.0
C903 C 0.73599 0.63079 0.92925 0.0
C904 C 0.76019 0.64403 0.87402 0.0
C905 C 0.7205 0.66279 0.91513 0.0
C906 C 0.72468 0.68517 0.88081 0.0
C907 C 0.74677 0.69692 0.8239 0.0
C908 C 0.76562 0.68661 0.80276 0.0
C909 C 0.74387 0.67568 0.85954 0.0
C910 C 0.78134 0.65488 0.81733 0.0
C911 C 0.77893 0.63397 0.85276 0.0
H912 H 0.63292 0.34224 0.17953 0.0
H913 H 0.56055 0.2969 0.0606 0.0
H914 H 0.51601 0.33775 0.04518 0.0
H915 H 0.51461 0.39969 0.05487 0.0
H916 H 0.60412 0.45744 0.16218 0.0
H917 H 0.62452 0.39939 0.19388 0.0
C918 C 0.60614 0.34013 0.15115 0.0
C919 C 0.59953 0.3166 0.12128 0.0
C920 C 0.58465 0.36744 0.14021 0.0
C921 C 0.56549 0.31433 0.08421 0.0
C922 C 0.54063 0.33828 0.07517 0.0
C923 C 0.53737 0.39897 0.08595 0.0
C924 C 0.5585 0.43244 0.10612 0.0
C925 C 0.55227 0.36712 0.1013 0.0
C926 C 0.58792 0.43177 0.14621 0.0
C927 C 0.59976 0.39871 0.16401 0.0
H928 H 0.97674 0.44793 0.44618 0.0
H929 H 1.0426 0.50211 0.37013 0.0
H930 H 0.99889 0.45658 0.31772 0.0
H931 H 0.93982 0.40155 0.2919 0.0
H932 H 0.87377 0.34922 0.3684 0.0
H933 H 0.91916 0.39301 0.4213 0.0
C934 C 0.98169 0.44973 0.41823 0.0
C935 C 1.01309 0.47877 0.41234 0.0
C936 C 0.95607 0.42344 0.38783 0.0
C937 C 1.01876 0.48033 0.37571 0.0
C938 C 0.99363 0.45418 0.34556 0.0
C939 C 0.93549 0.39962 0.32021 0.0
C940 C 0.90316 0.37153 0.3258 0.0
C941 C 0.96184 0.42564 0.35098 0.0
C942 C 0.89829 0.36996 0.36292 0.0
C943 C 0.9243 0.39527 0.39341 0.0
H944 H 0.70512 0.60242 0.47025 0.0
H945 H 0.59293 0.63381 0.40924 0.0
H946 H 0.61909 0.67459 0.35963 0.0
H947 H 0.67625 0.70625 0.32853 0.0
H948 H 0.78571 0.66976 0.38858 0.0
H949 H 0.7594 0.6305 0.43789 0.0
C950 C 0.68493 0.61748 0.44625 0.0
C951 C 0.64417 0.61121 0.44766 0.0
C952 C 0.70112 0.64247 0.41494 0.0
C953 C 0.62296 0.63419 0.4132 0.0
C954 C 0.63891 0.659 0.38331 0.0
C955 C 0.6956 0.69018 0.35205 0.0
C956 C 0.73642 0.69489 0.35081 0.0
C957 C 0.67845 0.6644 0.38281 0.0
C958 C 0.75595 0.67042 0.38447 0.0
C959 C 0.74004 0.64659 0.41434 0.0
H960 H 0.90784 0.3119 0.90236 0.0
H961 H 0.88152 0.3912 0.79736 0.0
H962 H 0.93214 0.44217 0.84034 0.0
H963 H 0.98161 0.46459 0.9097 0.0
H964 H 1.00635 0.38315 1.01314 0.0
H965 H 0.95879 0.33296 0.96903 0.0
C966 C 0.91323 0.34031 0.88873 0.0
C967 C 0.89062 0.34777 0.84682 0.0
C968 C 0.94206 0.36927 0.91358 0.0
C969 C 0.89836 0.38471 0.82962 0.0
C970 C 0.92725 0.41387 0.85425 0.0
C971 C 0.97678 0.43581 0.92236 0.0
C972 C 0.99737 0.42778 0.96487 0.0
C973 C 0.94896 0.40661 0.89655 0.0
C974 C 0.99074 0.39029 0.98074 0.0
C975 C 0.9635 0.36143 0.9555 0.0
H976 H 0.89493 0.90541 0.17515 0.0
H977 H 0.89948 0.79449 0.16437 0.0
H978 H 0.93672 0.82136 0.12014 0.0
H979 H 0.97183 0.87754 0.0796 0.0
H980 H 0.97299 0.98914 0.0952 0.0
H981 H 0.93383 0.96224 0.13779 0.0
C982 C 0.90341 0.88581 0.16379 0.0
C983 C 0.89036 0.84462 0.17692 0.0
C984 C 0.92805 0.90295 0.1367 0.0
C985 C 0.90566 0.82467 0.15842 0.0
C986 C 0.92827 0.84094 0.1316 0.0
C987 C 0.96421 0.89731 0.09168 0.0
C988 C 0.97875 0.9385 0.0798 0.0
C989 C 0.94043 0.88038 0.11951 0.0
C990 C 0.96535 0.95885 0.09993 0.0
C991 C 0.9416 0.94254 0.12576 0.0
H992 H 0.90712 0.17699 0.79767 0.0
H993 H 0.86844 0.19274 0.88902 0.0
H994 H 0.90507 0.14864 0.9371 0.0
H995 H 0.94994 0.10481 0.95645 0.0
H996 H 0.98545 0.08367 0.8652 0.0
H997 H 0.94938 0.12867 0.81618 0.0
C998 C 0.90654 0.17111 0.82807 0.0
C999 C 0.88397 0.19012 0.83841 0.0
C1000 C 0.92767 0.14365 0.85665 0.0
C1001 C 0.88451 0.17999 0.87863 0.0
C1002 C 0.90594 0.1542 0.9068 0.0
C1003 C 0.94975 0.10935 0.92572 0.0
C1004 C 0.97142 0.08909 0.91593 0.0
C1005 C 0.92782 0.13559 0.89663 0.0
C1006 C 0.96959 0.09715 0.87507 0.0
C1007 C 0.94874 0.12367 0.84656 0.0
H1008 H 0.7227 0.23494 0.61677 0.0
H1009 H 0.74823 0.16194 0.72731 0.0
H1010 H 0.70801 0.10702 0.68614 0.0
H1011 H 0.66803 0.07948 0.61744 0.0
H1012 H 0.64443 0.1544 0.50809 0.0
H1013 H 0.68126 0.2084 0.54986 0.0
C1014 C 0.71928 0.20704 0.63198 0.0
C1015 C 0.73869 0.2026 0.67505 0.0
C1016 C 0.69659 0.17572 0.60813 0.0
C1017 C 0.73369 0.1662 0.69417 0.0
C1018 C 0.71079 0.13475 0.67059 0.0
C1019 C 0.67097 0.10765 0.60291 0.0
C1020 C 0.65379 0.11275 0.55956 0.0
C1021 C 0.69254 0.13907 0.62737 0.0
C1022 C 0.65761 0.1495 0.54126 0.0
C1023 C 0.67864 0.18054 0.56516 0.0
H1024 H 0.73432 0.0624 0.33568 0.0
H1025 H 0.80197 1.00499 0.44668 0.0
H1026 H 0.83224 0.98448 0.40899 0.0
H1027 H 0.82392 0.96883 0.34197 0.0
H1028 H 0.75164 1.0221 0.23052 0.0
H1029 H 0.73991 0.05961 0.27114 0.0
C1030 C 0.75699 0.0468 0.35216 0.0
C1031 C 0.76496 0.03423 0.39363 0.0
C1032 C 0.77293 0.0339 0.32994 0.0
C1033 C 0.79451 1.01409 0.41444 0.0
C1034 C 0.81173 1.0023 0.39287 0.0
C1035 C 0.80719 0.98992 0.32657 0.0
C1036 C 0.78775 0.99207 0.28334 0.0
C1037 C 0.79888 1.00982 0.35008 0.0
C1038 C 0.76623 1.01954 0.26381 0.0
C1039 C 0.75926 0.04071 0.28703 0.0
H1040 H 1.00233 0.19797 0.3385 0.0
H1041 H 1.06447 0.24786 0.45583 0.0
H1042 H 0.11073 0.20795 0.47892 0.0
H1043 H 0.11063 0.14308 0.47721 0.0
H1044 H 1.03103 0.08267 0.36873 0.0
H1045 H 1.01535 0.1407 0.33042 0.0
C1046 C 1.02698 0.20086 0.36861 0.0
C1047 C 1.02823 0.2236 0.39651 0.0
C1048 C 1.04966 0.17424 0.38368 0.0
C1049 C 1.0617 0.22936 0.43426 0.0
C1050 C 0.08788 0.206 0.44779 0.0
C1051 C 0.09165 0.14329 0.44453 0.0
C1052 C 0.07097 0.10913 0.42578 0.0
C1053 C 0.07883 0.17559 0.42467 0.0
C1054 C 1.04661 0.10896 0.3836 0.0
C1055 C 1.03732 0.14205 0.36198 0.0
H1056 H 0.74912 0.20671 0.17741 0.0
H1057 H 0.70334 0.16452 0.27243 0.0
H1058 H 0.65745 0.11061 0.23252 0.0
H1059 H 0.63114 0.07374 0.17137 0.0
H1060 H 0.6756 0.11578 0.07545 0.0
H1061 H 0.72045 0.17091 0.11441 0.0
C1062 C 0.72892 0.18587 0.18928 0.0
C1063 C 0.7301 0.18997 0.22829 0.0
C1064 C 0.7022 0.15455 0.16586 0.0
C1065 C 0.70341 0.16245 0.24279 0.0
C1066 C 0.67707 0.13139 0.21989 0.0
C1067 C 0.65058 0.09498 0.15887 0.0
C1068 C 0.65 0.09015 0.12043 0.0
C1069 C 0.67636 0.12686 0.18154 0.0
C1070 C 0.67534 0.11838 0.10487 0.0
C1071 C 0.7011 0.15004 0.12726 0.0
H1072 H 0.74852 0.78445 1.00396 0.0
H1073 H 0.69914 0.8488 0.89026 0.0
H1074 H 0.6592 0.86759 0.91778 0.0
H1075 H 0.6417 0.86941 0.97538 0.0
H1076 H 0.6918 0.80657 0.08996 0.0
H1077 H 0.72883 0.7844 0.06109 0.0
C1078 C 0.7291 0.80267 0.98522 0.0
C1079 C 0.72697 0.81517 0.94504 0.0
C1080 C 0.7066 0.81395 1.0015 0.0
C1081 C 0.70106 0.83827 0.92102 0.0
C1082 C 0.6784 0.84931 0.93686 0.0
C1083 C 0.66004 0.85023 0.99386 0.0
C1084 C 0.66381 0.83964 0.03478 0.0
C1085 C 0.68128 0.83769 0.97717 0.0
C1086 C 0.68856 0.81546 0.0585 0.0
C1087 C 0.70963 0.80264 0.04197 0.0
H1088 H 0.9166 0.95956 0.65012 0.0
H1089 H 0.85992 0.86903 0.56799 0.0
H1090 H 0.85642 0.82418 0.62511 0.0
H1091 H 0.87083 0.81022 0.69951 0.0
H1092 H 0.91752 0.90085 0.77887 0.0
H1093 H 0.92603 0.94595 0.72286 0.0
C1094 C 0.90303 0.93004 0.64456 0.0
C1095 C 0.88872 0.91779 0.60467 0.0
C1096 C 0.90074 0.90421 0.67761 0.0
C1097 C 0.87183 0.87929 0.59839 0.0
C1098 C 0.87001 0.85346 0.6312 0.0
C1099 C 0.88253 0.8397 0.70409 0.0
C1100 C 0.8931 0.85206 0.74277 0.0
C1101 C 0.88474 0.8655 0.67101 0.0
C1102 C 0.9092 0.89058 0.74919 0.0
C1103 C 0.91371 0.91639 0.7171 0.0
H1104 H 0.24578 0.88192 0.79135 0.0
H1105 H 0.22677 0.77164 0.85165 0.0
H1106 H 0.18954 0.79058 0.88279 0.0
H1107 H 0.16068 0.83891 0.89608 0.0
H1108 H 0.18408 0.95064 0.84014 0.0
H1109 H 0.2189 0.93104 0.8067 0.0
C1110 C 0.23351 0.86141 0.811 0.0
C1111 C 0.2404 0.82389 0.81728 0.0
C1112 C 0.21183 0.87324 0.83097 0.0
C1113 C 0.22336 0.80009 0.84446 0.0
C1114 C 0.20142 0.81124 0.86294 0.0
C1115 C 0.17307 0.85954 0.8766 0.0
C1116 C 0.16792 0.89754 0.87219 0.0
C1117 C 0.1951 0.84787 0.85697 0.0
C1118 C 0.18613 0.92179 0.84608 0.0
C1119 C 0.20662 0.91022 0.82615 0.0
H1120 H 0.92579 0.50151 0.48259 0.0
H1121 H 1.00596 0.56806 0.58629 0.0
H1122 H 0.96001 0.54091 0.62119 0.0
H1123 H 0.91232 0.48292 0.63088 0.0
H1124 H 0.83676 0.41198 0.52951 0.0
H1125 H 0.86418 0.45681 0.48415 0.0
C1126 C 0.93179 0.51154 0.51176 0.0
C1127 C 0.96914 0.53568 0.53262 0.0
C1128 C 0.90643 0.49418 0.53237 0.0
C1129 C 0.9772 0.54916 0.57008 0.0
C1130 C 0.95122 0.53317 0.59023 0.0
C1131 C 0.90031 0.47832 0.59834 0.0
C1132 C 0.87401 0.4437 0.58371 0.0
C1133 C 0.91785 0.5032 0.57319 0.0
C1134 C 0.85805 0.4381 0.54147 0.0
C1135 C 0.87391 0.46358 0.51567 0.0
H1136 H 0.49243 0.11786 0.47041 0.0
H1137 H 0.49917 0.07745 0.36929 0.0
H1138 H 0.45812 0.11829 0.32079 0.0
H1139 H 0.41848 0.16716 0.30437 0.0
H1140 H 0.4124 0.20769 0.4059 0.0
H1141 H 0.45322 0.16681 0.4541 0.0
C1142 C 0.48507 0.11765 0.43782 0.0
C1143 C 0.50012 0.09317 0.42491 0.0
C1144 C 0.46069 0.14221 0.4088 0.0
C1145 C 0.48912 0.09493 0.38169 0.0
C1146 C 0.46514 0.11878 0.35327 0.0
C1147 C 0.42597 0.16743 0.33698 0.0
C1148 C 0.41112 0.19205 0.35 0.0
C1149 C 0.45047 0.14289 0.366 0.0
C1150 C 0.42233 0.19028 0.39329 0.0
C1151 C 0.44617 0.16635 0.42161 0.0
H1152 H 0.63563 0.62952 0.05221 0.0
H1153 H 0.59549 0.57066 0.14755 0.0
H1154 H 0.64795 0.6152 0.19724 0.0
H1155 H 0.70429 0.67232 0.21344 0.0
H1156 H 0.74086 0.73413 0.11689 0.0
H1157 H 0.69117 0.68744 0.06808 0.0
C1158 C 0.6385 0.62643 0.0839 0.0
C1159 C 0.61166 0.59673 0.09616 0.0
C1160 C 0.66819 0.65285 0.11216 0.0
C1161 C 0.61562 0.5933 0.13727 0.0
C1162 C 0.6457 0.61876 0.16575 0.0
C1163 C 0.70157 0.67534 0.1818 0.0
C1164 C 0.7264 0.70662 0.16884 0.0
C1165 C 0.67204 0.64882 0.15356 0.0
C1166 C 0.72207 0.71039 0.12757 0.0
C1167 C 0.69365 0.68365 0.09965 0.0
H1168 H 0.22637 0.17217 0.70537 0.0
H1169 H 0.20669 0.26437 0.61402 0.0
H1170 H 0.15235 0.22173 0.56395 0.0
H1171 H 0.10841 0.15834 0.54627 0.0
H1172 H 0.13008 0.06505 0.63545 0.0
H1173 H 0.18524 0.10758 0.68581 0.0
C1174 C 0.21028 0.18281 0.67445 0.0
C1175 C 0.22042 0.22158 0.66373 0.0
C1176 C 0.17913 0.15784 0.64531 0.0
C1177 C 0.19948 0.2348 0.62331 0.0
C1178 C 0.16825 0.21038 0.59456 0.0
C1179 C 0.12528 0.14734 0.57671 0.0
C1180 C 0.11483 0.10863 0.58723 0.0
C1181 C 0.15748 0.17191 0.60528 0.0
C1182 C 0.13737 0.09474 0.62661 0.0
C1183 C 0.16893 0.1191 0.65547 0.0
H1184 H 0.76195 0.31883 0.3806 0.0
H1185 H 0.70438 0.35045 0.25198 0.0
H1186 H 0.66404 0.38065 0.26848 0.0
H1187 H 0.64274 0.40047 0.31981 0.0
H1188 H 0.70173 0.36853 0.4484 0.0
H1189 H 0.74101 0.33854 0.43141 0.0
C1190 C 0.74064 0.33208 0.35553 0.0
C1191 C 0.73792 0.3308 0.31393 0.0
C1192 C 0.71649 0.35067 0.36555 0.0
C1193 C 0.70899 0.34952 0.28399 0.0
C1194 C 0.68519 0.36737 0.2937 0.0
C1195 C 0.664 0.38712 0.34478 0.0
C1196 C 0.66747 0.3889 0.38674 0.0
C1197 C 0.6882 0.36858 0.33449 0.0
C1198 C 0.69664 0.37007 0.41628 0.0
C1199 C 0.71986 0.35195 0.4063 0.0
H1200 H 0.44174 1.01637 0.01828 0.0
H1201 H 0.54312 0.05379 0.12992 0.0
H1202 H 0.49827 0.04522 0.16535 0.0
H1203 H 0.43496 1.00844 0.16892 0.0
H1204 H 0.33434 0.96533 0.05893 0.0
H1205 H 0.3732 0.99708 0.01758 0.0
C1206 C 0.45354 1.02399 0.04986 0.0
C1207 C 0.49516 0.03471 0.07216 0.0
C1208 C 0.42768 1.01783 0.07018 0.0
C1209 C 0.51088 0.04496 0.11278 0.0
C1210 C 0.4853 0.04002 0.13292 0.0
C1211 C 0.42063 1.00761 0.13565 0.0
C1212 C 0.38284 0.98271 0.11718 0.0
C1213 C 0.44408 1.02372 0.11273 0.0
C1214 C 0.36417 0.98316 0.07394 0.0
C1215 C 0.38661 1.0008 0.05039 0.0
H1216 H 0.99858 0.59966 0.88598 0.0
H1217 H 0.99332 0.61016 1.00085 0.0
H1218 H 0.95116 0.65438 0.96648 0.0
H1219 H 0.91387 0.69167 0.90285 0.0
H1220 H 0.9195 0.68118 0.78813 0.0
H1221 H 0.96175 0.63718 0.82259 0.0
C1222 C 0.98842 0.61143 0.90391 0.0
C1223 C 1.00036 0.60023 0.9472 0.0
C1224 C 0.96338 0.63782 0.88339 0.0
C1225 C 0.98573 0.61704 0.96822 0.0
C1226 C 0.96113 0.64285 0.9482 0.0
C1227 C 0.92427 0.68008 0.88502 0.0
C1228 C 0.91234 0.69122 0.84169 0.0
C1229 C 0.94946 0.65378 0.90562 0.0
C1230 C 0.92713 0.67446 0.82079 0.0
C1231 C 0.95176 0.64873 0.84085 0.0
H1232 H 0.40374 0.4446 0.13196 0.0
H1233 H 0.38466 0.34534 0.07354 0.0
H1234 H 0.38616 0.30711 0.13684 0.0
H1235 H 0.38928 0.30153 0.20822 0.0
H1236 H 0.40097 0.40094 0.26174 0.0
H1237 H 0.40705 0.43941 0.2015 0.0
C1238 C 0.39884 0.41446 0.13246 0.0
C1239 C 0.39327 0.39794 0.09757 0.0
C1240 C 0.39881 0.39259 0.16844 0.0
C1241 C 0.38881 0.35894 0.09979 0.0
C1242 C 0.38958 0.33698 0.136 0.0
C1243 C 0.39269 0.33153 0.20631 0.0
C1244 C 0.39319 0.34815 0.23868 0.0
C1245 C 0.39411 0.35345 0.17043 0.0
C1246 C 0.39974 0.38732 0.23689 0.0
C1247 C 0.40293 0.40937 0.20232 0.0
H1248 H 0.60771 0.64446 0.97143 0.0
H1249 H 0.51046 0.58519 0.86908 0.0
H1250 H 0.49327 0.64412 0.8355 0.0
H1251 H 0.49076 0.70457 0.84839 0.0
H1252 H 0.57499 0.75663 0.96114 0.0
H1253 H 0.61395 0.71028 0.97703 0.0
C1254 C 0.58397 0.6449 0.94089 0.0
C1255 C 0.55977 0.61094 0.92279 0.0
C1256 C 0.57168 0.67801 0.92425 0.0
C1257 C 0.52899 0.61126 0.88347 0.0
C1258 C 0.51906 0.64486 0.86458 0.0
C1259 C 0.5189 0.70681 0.87529 0.0
C1260 C 0.52986 0.73313 0.90406 0.0
C1261 C 0.53785 0.67753 0.88649 0.0
C1262 C 0.56609 0.73619 0.9389 0.0
C1263 C 0.58785 0.70932 0.9482 0.0
H1264 H 0.16253 0.62134 0.58688 0.0
H1265 H 0.09853 0.55881 0.66225 0.0
H1266 H 0.13899 0.60371 0.71575 0.0
H1267 H 0.19504 0.66036 0.74298 0.0
H1268 H 0.25872 0.72197 0.66684 0.0
H1269 H 0.21622 0.67876 0.61264 0.0
C1270 C 0.15732 0.6176 0.61494 0.0
C1271 C 0.12751 0.58635 0.62036 0.0
C1272 C 0.18085 0.64374 0.64587 0.0
C1273 C 0.12125 0.58233 0.65703 0.0
C1274 C 0.14449 0.60813 0.68782 0.0
C1275 C 0.19939 0.6645 0.71442 0.0
C1276 C 0.23029 0.69487 0.70939 0.0
C1277 C 0.17475 0.6389 0.68289 0.0
C1278 C 0.23524 0.69935 0.67192 0.0
C1279 C 0.21094 0.67437 0.6407 0.0
H1280 H 0.36656 0.40076 0.6463 0.0
H1281 H 0.42625 0.31169 0.70183 0.0
H1282 H 0.47237 0.33972 0.66723 0.0
H1283 H 0.50168 0.39079 0.61952 0.0
H1284 H 0.44194 0.47911 0.56018 0.0
H1285 H 0.39521 0.45182 0.59516 0.0
C1286 C 0.38934 0.38642 0.65183 0.0
C1287 C 0.38915 0.35109 0.68061 0.0
C1288 C 0.4183 0.40391 0.62936 0.0
C1289 C 0.42165 0.33714 0.68267 0.0
C1290 C 0.44958 0.35407 0.66173 0.0
C1291 C 0.47863 0.40511 0.61303 0.0
C1292 C 0.4793 0.43971 0.58374 0.0
C1293 C 0.44928 0.38777 0.63455 0.0
C1294 C 0.44627 0.45392 0.57993 0.0
C1295 C 0.4181 0.43741 0.60123 0.0
H1296 H 0.28292 0.67276 0.18963 0.0
H1297 H 0.20888 0.75133 0.14563 0.0
H1298 H 0.15685 0.70841 0.09363 0.0
H1299 H 0.13298 0.64864 0.05949 0.0
H1300 H 0.2036 0.56716 0.10915 0.0
H1301 H 0.25624 0.6107 0.16001 0.0
C1302 C 0.25536 0.68038 0.16858 0.0
C1303 C 0.24993 0.71533 0.17093 0.0
C1304 C 0.225 0.65498 0.13974 0.0
C1305 C 0.21377 0.72462 0.14419 0.0
C1306 C 0.18407 0.70012 0.11443 0.0
C1307 C 0.15995 0.64059 0.08153 0.0
C1308 C 0.16483 0.60508 0.0803 0.0
C1309 C 0.18944 0.6653 0.11168 0.0
C1310 C 0.19938 0.59447 0.10947 0.0
C1311 C 0.22948 0.61937 0.13849 0.0
H1312 H 0.70602 0.3677 0.72038 0.0
H1313 H 0.76535 0.37531 0.63904 0.0
H1314 H 0.72977 0.42143 0.5939 0.0
H1315 H 0.68026 0.46113 0.57442 0.0
H1316 H 0.6237 0.45781 0.65696 0.0
H1317 H 0.65861 0.41075 0.70243 0.0
C1318 C 0.71147 0.37917 0.69284 0.0
C1319 C 0.73951 0.36606 0.68439 0.0
C1320 C 0.6908 0.40769 0.66617 0.0
C1321 C 0.74487 0.38322 0.64786 0.0
C1322 C 0.72409 0.41026 0.62139 0.0
C1323 C 0.67554 0.45071 0.60253 0.0
C1324 C 0.64831 0.46486 0.61101 0.0
C1325 C 0.69679 0.42307 0.62978 0.0
C1326 C 0.64389 0.44922 0.64835 0.0
C1327 C 0.66414 0.42153 0.6748 0.0
H1328 H 1.02573 0.7269 0.23615 0.0
H1329 H 1.02564 0.64454 0.33731 0.0
H1330 H 1.0634 0.61285 0.31999 0.0
H1331 H 0.07892 0.59878 0.26557 0.0
H1332 H 1.06829 0.67525 0.15815 0.0
H1333 H 1.05331 0.71903 0.18854 0.0
C1334 C 1.03465 0.70241 0.25487 0.0
C1335 C 1.02148 0.68737 0.28695 0.0
C1336 C 1.05391 0.68272 0.24301 0.0
C1337 C 1.03484 0.65664 0.3121 0.0
C1338 C 1.05608 0.63811 0.30189 0.0
C1339 C 0.07416 0.62543 0.24925 0.0
C1340 C 0.07327 0.63317 0.20913 0.0
C1341 C 1.06303 0.64933 0.2657 0.0
C1342 C 1.06867 0.66836 0.18891 0.0
C1343 C 1.05964 0.69327 0.20609 0.0
H1344 H 0.98189 0.741 0.48758 0.0
H1345 H 0.07402 0.7238 0.60716 0.0
H1346 H 1.03779 0.74086 0.64022 0.0
H1347 H 0.97544 0.75052 0.63554 0.0
H1348 H 0.88595 0.77379 0.51636 0.0
H1349 H 0.92607 0.76415 0.48303 0.0
C1350 C 0.9949 0.74205 0.52079 0.0
C1351 C 1.03014 0.72978 0.54471 0.0
C1352 C 0.97402 0.75217 0.53985 0.0
C1353 C 1.04619 0.73159 0.58781 0.0
C1354 C 1.02555 0.74149 0.60688 0.0
C1355 C 0.96497 0.7549 0.60235 0.0
C1356 C 0.92672 0.76166 0.57872 0.0
C1357 C 0.9886 0.75026 0.58324 0.0
C1358 C 0.91431 0.76695 0.53559 0.0
C1359 C 0.9375 0.76188 0.51636 0.0
H1360 H 0.50386 0.62942 0.39335 0.0
H1361 H 0.4148 0.55095 0.43202 0.0
H1362 H 0.36767 0.59048 0.39541 0.0
H1363 H 0.35025 0.65005 0.35317 0.0
H1364 H 0.44043 0.7292 0.31621 0.0
H1365 H 0.486 0.68816 0.34995 0.0
C1366 C 0.47379 0.62003 0.39299 0.0
C1367 C 0.46363 0.58491 0.4152 0.0
C1368 C 0.44602 0.64421 0.37193 0.0
C1369 C 0.42438 0.57612 0.41486 0.0
C1370 C 0.39699 0.59942 0.39388 0.0
C1371 C 0.37975 0.65868 0.3521 0.0
C1372 C 0.39043 0.69434 0.33087 0.0
C1373 C 0.40716 0.63402 0.37238 0.0
C1374 C 0.42976 0.70306 0.33134 0.0
C1375 C 0.45649 0.67905 0.35104 0.0
H1376 H 0.11535 0.4277 0.69891 0.0
H1377 H 0.08244 0.32906 0.7722 0.0
H1378 H 1.04662 0.36144 0.79216 0.0
H1379 H 1.04215 0.42181 0.80365 0.0
H1380 H 0.08047 0.52202 0.73529 0.0
H1381 H 0.09533 0.48467 0.69717 0.0
C1382 C 0.09892 0.41274 0.71785 0.0
C1383 C 0.10241 0.37642 0.73505 0.0
C1384 C 0.07992 0.43208 0.73056 0.0
C1385 C 0.08091 0.35736 0.75944 0.0
C1386 C 1.06054 0.3759 0.77091 0.0
C1387 C 1.05192 0.43536 0.77907 0.0
C1388 C 1.0614 0.47476 0.77317 0.0
C1389 C 1.06238 0.41402 0.75897 0.0
C1390 C 0.07387 0.49178 0.74105 0.0
C1391 C 0.08267 0.47046 0.7195 0.0
H1392 H 0.25835 0.3098 0.49812 0.0
H1393 H 0.24012 0.39745 0.40069 0.0
H1394 H 0.19721 0.41606 0.42458 0.0
H1395 H 0.1636 0.40651 0.47206 0.0
H1396 H 0.18291 0.32025 0.57061 0.0
H1397 H 0.22719 0.30216 0.54773 0.0
C1398 C 0.24543 0.33329 0.48245 0.0
C1399 C 0.2522 0.35202 0.44748 0.0
C1400 C 0.22086 0.34389 0.49641 0.0
C1401 C 0.23485 0.38216 0.42725 0.0
C1402 C 0.21043 0.3929 0.44097 0.0
C1403 C 0.17733 0.38357 0.48828 0.0
C1404 C 0.16971 0.36428 0.52253 0.0
C1405 C 0.20285 0.37367 0.47516 0.0
C1406 C 0.18835 0.33527 0.54404 0.0
C1407 C 0.21356 0.32498 0.53095 0.0
loop_
_geom_bond_atom_site_label_1
_geom_bond_atom_site_label_2
_geom_bond_distance
_geom_bond_site_symmetry_2
_ccdc_geom_bond_type
C0 Eu1 2.835 1_655 S
C0 C2 1.500 . S
C0 O20 1.257 . S
C0 O21 1.260 1_655 S
Eu1 C0 2.835 1_455 S
Eu1 O20 2.473 1_455 S
Eu1 O21 2.480 . S
Eu1 O22 2.430 . S
Eu1 O23 2.670 1_554 S
Eu1 O24 2.394 1_454 S
Eu1 O29 2.355 1_445 S
Eu1 O31 2.374 1_545 S
C2 C0 1.500 . S
C2 C3 1.377 1_655 S
C2 C7 1.377 . S
C3 C2 1.377 1_455 S
C3 C4 1.395 1_455 S
C3 H32 0.931 . S
C4 C3 1.395 1_655 S
C4 C5 1.383 . S
C4 H33 0.931 1_655 S
C5 C4 1.383 . S
C5 C6 1.394 . S
C6 C5 1.394 . S
C6 C7 1.378 . S
C6 H34 0.931 . S
C7 C2 1.377 . S
C7 C6 1.378 . S
C7 H35 0.931 . S
C8 O22 1.259 1_556 S
C8 O23 1.270 . S
C9 O24 1.251 . S
C9 O25 1.251 . S
C10 Eu11 2.835 1_455 S
C10 C12 1.500 . S
C10 O26 1.257 . S
C10 O27 1.260 1_455 S
Eu11 C10 2.835 1_655 S
Eu11 O23 2.355 1_665 S
Eu11 O25 2.374 1_565 S
Eu11 O26 2.473 1_655 S
Eu11 O27 2.480 . S
Eu11 O28 2.430 . S
Eu11 O29 2.670 1_556 S
Eu11 O30 2.394 1_656 S
C12 C10 1.500 . S
C12 C13 1.377 1_455 S
C12 C17 1.377 . S
C13 C12 1.377 1_655 S
C13 C14 1.395 1_655 S
C13 H36 0.931 . S
C14 C13 1.395 1_455 S
C14 C15 1.383 . S
C14 H37 0.931 1_455 S
C15 C14 1.383 . S
C15 C16 1.394 . S
C16 C15 1.394 . S
C16 C17 1.378 . S
C16 H38 0.931 . S
C17 C12 1.377 . S
C17 C16 1.378 . S
C17 H39 0.931 . S
C18 O28 1.259 1_554 S
C18 O29 1.270 . S
C19 O30 1.251 . S
C19 O31 1.251 . S
O20 C0 1.257 . S
O20 Eu1 2.473 1_655 S
O21 C0 1.260 1_455 S
O21 Eu1 2.480 . S
O22 Eu1 2.430 . S
O22 C8 1.259 1_554 S
O23 Eu1 2.670 1_556 S
O23 C8 1.270 . S
O23 Eu11 2.355 1_445 S
O24 Eu1 2.394 1_656 S
O24 C9 1.251 . S
O25 C9 1.251 . S
O25 Eu11 2.374 1_545 S
O26 C10 1.257 . S
O26 Eu11 2.473 1_455 S
O27 C10 1.260 1_655 S
O27 Eu11 2.480 . S
O28 Eu11 2.430 . S
O28 C18 1.259 1_556 S
O29 Eu1 2.355 1_665 S
O29 Eu11 2.670 1_554 S
O29 C18 1.270 . S
O30 Eu11 2.394 1_454 S
O30 C19 1.251 . S
O31 Eu1 2.374 1_565 S
O31 C19 1.251 . S
H32 C3 0.931 . S
H33 C4 0.931 1_455 S
H34 C6 0.931 . S
H35 C7 0.931 . S
H36 C13 0.931 . S
H37 C14 0.931 1_655 S
H38 C16 0.931 . S
H39 C17 0.931 . S
C40 Eu41 2.835 . S
C40 C42 1.500 . S
C40 O60 1.257 . S
C40 O61 1.260 . S
Eu41 C40 2.835 . S
Eu41 O60 2.473 . S
Eu41 O61 2.480 . S
Eu41 O62 2.430 . S
Eu41 O63 2.670 . S
Eu41 O64 2.394 . S
Eu41 O69 2.355 . S
Eu41 O71 2.374 . S
C42 C40 1.500 . S
C42 C43 1.377 . S
C42 C47 1.377 . S
C43 C42 1.377 . S
C43 C44 1.395 . S
C43 H72 0.931 . S
C44 C43 1.395 . S
C44 C45 1.383 . S
C44 H73 0.931 . S
C45 C44 1.383 . S
C45 C46 1.394 . S
C46 C45 1.394 . S
C46 C47 1.378 . S
C46 H74 0.931 . S
C47 C42 1.377 . S
C47 C46 1.378 . S
C47 H75 0.931 . S
C48 O62 1.259 . S
C48 O63 1.270 . S
C49 O64 1.251 . S
C49 O65 1.251 . S
C50 Eu51 2.835 . S
C50 C52 1.500 . S
C50 O66 1.257 . S
C50 O67 1.260 . S
Eu51 C50 2.835 . S
Eu51 O63 2.355 . S
Eu51 O65 2.374 . S
Eu51 O66 2.473 . S
Eu51 O67 2.480 . S
Eu51 O68 2.430 . S
Eu51 O69 2.670 . S
Eu51 O70 2.394 . S
C52 C50 1.500 . S
C52 C53 1.377 . S
C52 C57 1.377 . S
C53 C52 1.377 . S
C53 C54 1.395 . S
C53 H76 0.931 . S
C54 C53 1.395 . S
C54 C55 1.383 . S
C54 H77 0.931 . S
C55 C54 1.383 . S
C55 C56 1.394 . S
C56 C55 1.394 . S
C56 C57 1.378 . S
C56 H78 0.931 . S
C57 C52 1.377 . S
C57 C56 1.378 . S
C57 H79 0.931 . S
C58 O68 1.259 . S
C58 O69 1.270 . S
C59 O70 1.251 . S
C59 O71 1.251 . S
O60 C40 1.257 . S
O60 Eu41 2.473 . S
O61 C40 1.260 . S
O61 Eu41 2.480 . S
O62 Eu41 2.430 . S
O62 C48 1.259 . S
O63 Eu41 2.670 . S
O63 C48 1.270 . S
O63 Eu51 2.355 . S
O64 Eu41 2.394 . S
O64 C49 1.251 . S
O65 C49 1.251 . S
O65 Eu51 2.374 . S
O66 C50 1.257 . S
O66 Eu51 2.473 . S
O67 C50 1.260 . S
O67 Eu51 2.480 . S
O68 Eu51 2.430 . S
O68 C58 1.259 . S
O69 Eu41 2.355 . S
O69 Eu51 2.670 . S
O69 C58 1.270 . S
O70 Eu51 2.394 . S
O70 C59 1.251 . S
O71 Eu41 2.374 . S
O71 C59 1.251 . S
H72 C43 0.931 . S
H73 C44 0.931 . S
H74 C46 0.931 . S
H75 C47 0.931 . S
H76 C53 0.931 . S
H77 C54 0.931 . S
H78 C56 0.931 . S
H79 C57 0.931 . S
C80 Eu81 2.835 1_565 S
C80 C82 1.500 . S
C80 O100 1.257 . S
C80 O101 1.260 1_565 S
Eu81 C80 2.835 1_545 S
Eu81 O100 2.473 1_545 S
Eu81 O101 2.480 . S
Eu81 O102 2.430 . S
Eu81 O103 2.670 . S
Eu81 O104 2.394 1_545 S
Eu81 O109 2.355 1_545 S
Eu81 O111 2.374 . S
C82 C80 1.500 . S
C82 C83 1.377 . S
C82 C87 1.377 . S
C83 C82 1.377 . S
C83 C84 1.395 . S
C83 H112 0.931 1_565 S
C84 C83 1.395 . S
C84 C85 1.383 . S
C84 H113 0.931 . S
C85 C84 1.383 . S
C85 C86 1.394 . S
C86 C85 1.394 . S
C86 C87 1.378 . S
C86 H114 0.931 . S
C87 C82 1.377 . S
C87 C86 1.378 . S
C87 H115 0.931 . S
C88 O102 1.259 . S
C88 O103 1.270 . S
C89 O104 1.251 . S
C89 O105 1.251 . S
C90 Eu91 2.835 1_545 S
C90 C92 1.500 . S
C90 O106 1.257 . S
C90 O107 1.260 1_545 S
Eu91 C90 2.835 1_565 S
Eu91 O103 2.355 1_565 S
Eu91 O105 2.374 . S
Eu91 O106 2.473 1_565 S
Eu91 O107 2.480 . S
Eu91 O108 2.430 . S
Eu91 O109 2.670 . S
Eu91 O110 2.394 1_565 S
C92 C90 1.500 . S
C92 C93 1.377 . S
C92 C97 1.377 . S
C93 C92 1.377 . S
C93 C94 1.395 . S
C93 H116 0.931 1_545 S
C94 C93 1.395 . S
C94 C95 1.383 . S
C94 H117 0.931 . S
C95 C94 1.383 . S
C95 C96 1.394 . S
C96 C95 1.394 . S
C96 C97 1.378 . S
C96 H118 0.931 . S
C97 C92 1.377 . S
C97 C96 1.378 . S
C97 H119 0.931 . S
C98 O108 1.259 . S
C98 O109 1.270 . S
C99 O110 1.251 . S
C99 O111 1.251 . S
O100 C80 1.257 . S
O100 Eu81 2.473 1_565 S
O101 C80 1.260 1_545 S
O101 Eu81 2.480 . S
O102 Eu81 2.430 . S
O102 C88 1.259 . S
O103 Eu81 2.670 . S
O103 C88 1.270 . S
O103 Eu91 2.355 1_545 S
O104 Eu81 2.394 1_565 S
O104 C89 1.251 . S
O105 C89 1.251 . S
O105 Eu91 2.374 . S
O106 C90 1.257 . S
O106 Eu91 2.473 1_545 S
O107 C90 1.260 1_565 S
O107 Eu91 2.480 . S
O108 Eu91 2.430 . S
O108 C98 1.259 . S
O109 Eu81 2.355 1_565 S
O109 Eu91 2.670 . S
O109 C98 1.270 . S
O110 Eu91 2.394 1_545 S
O110 C99 1.251 . S
O111 Eu81 2.374 . S
O111 C99 1.251 . S
H112 C83 0.931 1_545 S
H113 C84 0.931 . S
H114 C86 0.931 . S
H115 C87 0.931 . S
H116 C93 0.931 1_565 S
H117 C94 0.931 . S
H118 C96 0.931 . S
H119 C97 0.931 . S
C120 Eu121 2.835 . S
C120 C122 1.500 . S
C120 O140 1.257 . S
C120 O141 1.260 . S
Eu121 C120 2.835 . S
Eu121 O140 2.473 . S
Eu121 O141 2.480 . S
Eu121 O142 2.430 . S
Eu121 O143 2.670 . S
Eu121 O144 2.394 . S
Eu121 O149 2.355 . S
Eu121 O151 2.374 . S
C122 C120 1.500 . S
C122 C123 1.377 . S
C122 C127 1.377 . S
C123 C122 1.377 . S
C123 C124 1.395 . S
C123 H152 0.931 . S
C124 C123 1.395 . S
C124 C125 1.383 . S
C124 H153 0.931 . S
C125 C124 1.383 . S
C125 C126 1.394 . S
C126 C125 1.394 . S
C126 C127 1.378 . S
C126 H154 0.931 . S
C127 C122 1.377 . S
C127 C126 1.378 . S
C127 H155 0.931 . S
C128 O142 1.259 . S
C128 O143 1.270 . S
C129 O144 1.251 . S
C129 O145 1.251 . S
C130 Eu131 2.835 . S
C130 C132 1.500 . S
C130 O146 1.257 . S
C130 O147 1.260 . S
Eu131 C130 2.835 . S
Eu131 O143 2.355 . S
Eu131 O145 2.374 . S
Eu131 O146 2.473 . S
Eu131 O147 2.480 . S
Eu131 O148 2.430 . S
Eu131 O149 2.670 . S
Eu131 O150 2.394 . S
C132 C130 1.500 . S
C132 C133 1.377 . S
C132 C137 1.377 . S
C133 C132 1.377 . S
C133 C134 1.395 . S
C133 H156 0.931 . S
C134 C133 1.395 . S
C134 C135 1.383 . S
C134 H157 0.931 . S
C135 C134 1.383 . S
C135 C136 1.394 . S
C136 C135 1.394 . S
C136 C137 1.378 . S
C136 H158 0.931 . S
C137 C132 1.377 . S
C137 C136 1.378 . S
C137 H159 0.931 . S
C138 O148 1.259 . S
C138 O149 1.270 . S
C139 O150 1.251 . S
C139 O151 1.251 . S
O140 C120 1.257 . S
O140 Eu121 2.473 . S
O141 C120 1.260 . S
O141 Eu121 2.480 . S
O142 Eu121 2.430 . S
O142 C128 1.259 . S
O143 Eu121 2.670 . S
O143 C128 1.270 . S
O143 Eu131 2.355 . S
O144 Eu121 2.394 . S
O144 C129 1.251 . S
O145 C129 1.251 . S
O145 Eu131 2.374 . S
O146 C130 1.257 . S
O146 Eu131 2.473 . S
O147 C130 1.260 . S
O147 Eu131 2.480 . S
O148 Eu131 2.430 . S
O148 C138 1.259 . S
O149 Eu121 2.355 . S
O149 Eu131 2.670 . S
O149 C138 1.270 . S
O150 Eu131 2.394 . S
O150 C139 1.251 . S
O151 Eu121 2.374 . S
O151 C139 1.251 . S
H152 C123 0.931 . S
H153 C124 0.931 . S
H154 C126 0.931 . S
H155 C127 0.931 . S
H156 C133 0.931 . S
H157 C134 0.931 . S
H158 C136 0.931 . S
H159 C137 0.931 . S
C160 Eu161 2.835 . S
C160 C162 1.500 . S
C160 O180 1.257 . S
C160 O181 1.260 . S
Eu161 C160 2.835 . S
Eu161 O180 2.473 . S
Eu161 O181 2.480 . S
Eu161 O182 2.430 1_445 S
Eu161 O183 2.670 1_445 S
Eu161 O184 2.394 1_455 S
Eu161 O189 2.355 . S
Eu161 O191 2.374 1_545 S
C162 C160 1.500 . S
C162 C163 1.377 . S
C162 C167 1.377 . S
C163 C162 1.377 . S
C163 C164 1.395 . S
C163 H192 0.931 . S
C164 C163 1.395 . S
C164 C165 1.383 . S
C164 H193 0.931 . S
C165 C164 1.383 . S
C165 C166 1.394 . S
C166 C165 1.394 . S
C166 C167 1.378 . S
C166 H194 0.931 . S
C167 C162 1.377 . S
C167 C166 1.378 . S
C167 H195 0.931 . S
C168 O182 1.259 . S
C168 O183 1.270 . S
C169 O184 1.251 . S
C169 O185 1.251 . S
C170 Eu171 2.835 . S
C170 C172 1.500 . S
C170 O186 1.257 . S
C170 O187 1.260 . S
Eu171 C170 2.835 . S
Eu171 O183 2.355 . S
Eu171 O185 2.374 1_565 S
Eu171 O186 2.473 . S
Eu171 O187 2.480 . S
Eu171 O188 2.430 1_665 S
Eu171 O189 2.670 1_665 S
Eu171 O190 2.394 1_655 S
C172 C170 1.500 . S
C172 C173 1.377 . S
C172 C177 1.377 . S
C173 C172 1.377 . S
C173 C174 1.395 . S
C173 H196 0.931 . S
C174 C173 1.395 . S
C174 C175 1.383 . S
C174 H197 0.931 . S
C175 C174 1.383 . S
C175 C176 1.394 . S
C176 C175 1.394 . S
C176 C177 1.378 . S
C176 H198 0.931 . S
C177 C172 1.377 . S
C177 C176 1.378 . S
C177 H199 0.931 . S
C178 O188 1.259 . S
C178 O189 1.270 . S
C179 O190 1.251 . S
C179 O191 1.251 . S
O180 C160 1.257 . S
O180 Eu161 2.473 . S
O181 C160 1.260 . S
O181 Eu161 2.480 . S
O182 Eu161 2.430 1_665 S
O182 C168 1.259 . S
O183 Eu161 2.670 1_665 S
O183 C168 1.270 . S
O183 Eu171 2.355 . S
O184 Eu161 2.394 1_655 S
O184 C169 1.251 . S
O185 C169 1.251 . S
O185 Eu171 2.374 1_545 S
O186 C170 1.257 . S
O186 Eu171 2.473 . S
O187 C170 1.260 . S
O187 Eu171 2.480 . S
O188 Eu171 2.430 1_445 S
O188 C178 1.259 . S
O189 Eu161 2.355 . S
O189 Eu171 2.670 1_445 S
O189 C178 1.270 . S
O190 Eu171 2.394 1_455 S
O190 C179 1.251 . S
O191 Eu161 2.374 1_565 S
O191 C179 1.251 . S
H192 C163 0.931 . S
H193 C164 0.931 . S
H194 C166 0.931 . S
H195 C167 0.931 . S
H196 C173 0.931 . S
H197 C174 0.931 . S
H198 C176 0.931 . S
H199 C177 0.931 . S
C200 Eu201 2.835 . S
C200 C202 1.500 . S
C200 O220 1.257 . S
C200 O221 1.260 . S
Eu201 C200 2.835 . S
Eu201 O220 2.473 . S
Eu201 O221 2.480 . S
Eu201 O222 2.430 . S
Eu201 O223 2.670 . S
Eu201 O224 2.394 . S
Eu201 O229 2.355 . S
Eu201 O231 2.374 . S
C202 C200 1.500 . S
C202 C203 1.377 . S
C202 C207 1.377 . S
C203 C202 1.377 . S
C203 C204 1.395 . S
C203 H232 0.931 . S
C204 C203 1.395 . S
C204 C205 1.383 . S
C204 H233 0.931 . S
C205 C204 1.383 . S
C205 C206 1.394 . S
C206 C205 1.394 . S
C206 C207 1.378 . S
C206 H234 0.931 . S
C207 C202 1.377 . S
C207 C206 1.378 . S
C207 H235 0.931 . S
C208 O222 1.259 . S
C208 O223 1.270 . S
C209 O224 1.251 . S
C209 O225 1.251 . S
C210 Eu211 2.835 . S
C210 C212 1.500 . S
C210 O226 1.257 . S
C210 O227 1.260 . S
Eu211 C210 2.835 . S
Eu211 O223 2.355 . S
Eu211 O225 2.374 . S
Eu211 O226 2.473 . S
Eu211 O227 2.480 . S
Eu211 O228 2.430 . S
Eu211 O229 2.670 . S
Eu211 O230 2.394 . S
C212 C210 1.500 . S
C212 C213 1.377 . S
C212 C217 1.377 . S
C213 C212 1.377 . S
C213 C214 1.395 . S
C213 H236 0.931 . S
C214 C213 1.395 . S
C214 C215 1.383 . S
C214 H237 0.931 . S
C215 C214 1.383 . S
C215 C216 1.394 . S
C216 C215 1.394 . S
C216 C217 1.378 . S
C216 H238 0.931 . S
C217 C212 1.377 . S
C217 C216 1.378 . S
C217 H239 0.931 . S
C218 O228 1.259 . S
C218 O229 1.270 . S
C219 O230 1.251 . S
C219 O231 1.251 . S
O220 C200 1.257 . S
O220 Eu201 2.473 . S
O221 C200 1.260 . S
O221 Eu201 2.480 . S
O222 Eu201 2.430 . S
O222 C208 1.259 . S
O223 Eu201 2.670 . S
O223 C208 1.270 . S
O223 Eu211 2.355 . S
O224 Eu201 2.394 . S
O224 C209 1.251 . S
O225 C209 1.251 . S
O225 Eu211 2.374 . S
O226 C210 1.257 . S
O226 Eu211 2.473 . S
O227 C210 1.260 . S
O227 Eu211 2.480 . S
O228 Eu211 2.430 . S
O228 C218 1.259 . S
O229 Eu201 2.355 . S
O229 Eu211 2.670 . S
O229 C218 1.270 . S
O230 Eu211 2.394 . S
O230 C219 1.251 . S
O231 Eu201 2.374 . S
O231 C219 1.251 . S
H232 C203 0.931 . S
H233 C204 0.931 . S
H234 C206 0.931 . S
H235 C207 0.931 . S
H236 C213 0.931 . S
H237 C214 0.931 . S
H238 C216 0.931 . S
H239 C217 0.931 . S
C240 Eu241 2.835 1_554 S
C240 C242 1.500 . S
C240 O260 1.257 . S
C240 O261 1.260 1_554 S
Eu241 C240 2.835 1_556 S
Eu241 O260 2.473 1_556 S
Eu241 O261 2.480 . S
Eu241 O262 2.430 1_545 S
Eu241 O263 2.670 1_545 S
Eu241 O264 2.394 1_546 S
Eu241 O269 2.355 1_556 S
Eu241 O271 2.374 . S
C242 C240 1.500 . S
C242 C243 1.377 . S
C242 C247 1.377 . S
C243 C242 1.377 . S
C243 C244 1.395 . S
C243 H272 0.931 1_554 S
C244 C243 1.395 . S
C244 C245 1.383 . S
C244 H273 0.931 . S
C245 C244 1.383 . S
C245 C246 1.394 . S
C246 C245 1.394 . S
C246 C247 1.378 . S
C246 H274 0.931 . S
C247 C242 1.377 . S
C247 C246 1.378 . S
C247 H275 0.931 . S
C248 O262 1.259 . S
C248 O263 1.270 . S
C249 O264 1.251 . S
C249 O265 1.251 . S
C250 Eu251 2.835 1_556 S
C250 C252 1.500 . S
C250 O266 1.257 . S
C250 O267 1.260 1_556 S
Eu251 C250 2.835 1_554 S
Eu251 O263 2.355 1_554 S
Eu251 O265 2.374 . S
Eu251 O266 2.473 1_554 S
Eu251 O267 2.480 . S
Eu251 O268 2.430 1_565 S
Eu251 O269 2.670 1_565 S
Eu251 O270 2.394 1_564 S
C252 C250 1.500 . S
C252 C253 1.377 . S
C252 C257 1.377 . S
C253 C252 1.377 . S
C253 C254 1.395 . S
C253 H276 0.931 1_556 S
C254 C253 1.395 . S
C254 C255 1.383 . S
C254 H277 0.931 . S
C255 C254 1.383 . S
C255 C256 1.394 . S
C256 C255 1.394 . S
C256 C257 1.378 . S
C256 H278 0.931 . S
C257 C252 1.377 . S
C257 C256 1.378 . S
C257 H279 0.931 . S
C258 O268 1.259 . S
C258 O269 1.270 . S
C259 O270 1.251 . S
C259 O271 1.251 . S
O260 C240 1.257 . S
O260 Eu241 2.473 1_554 S
O261 C240 1.260 1_556 S
O261 Eu241 2.480 . S
O262 Eu241 2.430 1_565 S
O262 C248 1.259 . S
O263 Eu241 2.670 1_565 S
O263 C248 1.270 . S
O263 Eu251 2.355 1_556 S
O264 Eu241 2.394 1_564 S
O264 C249 1.251 . S
O265 C249 1.251 . S
O265 Eu251 2.374 . S
O266 C250 1.257 . S
O266 Eu251 2.473 1_556 S
O267 C250 1.260 1_554 S
O267 Eu251 2.480 . S
O268 Eu251 2.430 1_545 S
O268 C258 1.259 . S
O269 Eu241 2.355 1_554 S
O269 Eu251 2.670 1_545 S
O269 C258 1.270 . S
O270 Eu251 2.394 1_546 S
O270 C259 1.251 . S
O271 Eu241 2.374 . S
O271 C259 1.251 . S
H272 C243 0.931 1_556 S
H273 C244 0.931 . S
H274 C246 0.931 . S
H275 C247 0.931 . S
H276 C253 0.931 1_554 S
H277 C254 0.931 . S
H278 C256 0.931 . S
H279 C257 0.931 . S
C280 Eu281 2.835 . S
C280 C282 1.500 . S
C280 O300 1.257 . S
C280 O301 1.260 . S
Eu281 C280 2.835 . S
Eu281 O300 2.473 . S
Eu281 O301 2.480 . S
Eu281 O302 2.430 . S
Eu281 O303 2.670 . S
Eu281 O304 2.394 . S
Eu281 O309 2.355 . S
Eu281 O311 2.374 . S
C282 C280 1.500 . S
C282 C283 1.377 . S
C282 C287 1.377 . S
C283 C282 1.377 . S
C283 C284 1.395 . S
C283 H312 0.931 . S
C284 C283 1.395 . S
C284 C285 1.383 . S
C284 H313 0.931 . S
C285 C284 1.383 . S
C285 C286 1.394 . S
C286 C285 1.394 . S
C286 C287 1.378 . S
C286 H314 0.931 . S
C287 C282 1.377 . S
C287 C286 1.378 . S
C287 H315 0.931 . S
C288 O302 1.259 . S
C288 O303 1.270 . S
C289 O304 1.251 . S
C289 O305 1.251 . S
C290 Eu291 2.835 . S
C290 C292 1.500 . S
C290 O306 1.257 . S
C290 O307 1.260 . S
Eu291 C290 2.835 . S
Eu291 O303 2.355 . S
Eu291 O305 2.374 . S
Eu291 O306 2.473 . S
Eu291 O307 2.480 . S
Eu291 O308 2.430 . S
Eu291 O309 2.670 . S
Eu291 O310 2.394 . S
C292 C290 1.500 . S
C292 C293 1.377 . S
C292 C297 1.377 . S
C293 C292 1.377 . S
C293 C294 1.395 . S
C293 H316 0.931 . S
C294 C293 1.395 . S
C294 C295 1.383 . S
C294 H317 0.931 . S
C295 C294 1.383 . S
C295 C296 1.394 . S
C296 C295 1.394 . S
C296 C297 1.378 . S
C296 H318 0.931 . S
C297 C292 1.377 . S
C297 C296 1.378 . S
C297 H319 0.931 . S
C298 O308 1.259 . S
C298 O309 1.270 . S
C299 O310 1.251 . S
C299 O311 1.251 . S
O300 C280 1.257 . S
O300 Eu281 2.473 . S
O301 C280 1.260 . S
O301 Eu281 2.480 . S
O302 Eu281 2.430 . S
O302 C288 1.259 . S
O303 Eu281 2.670 . S
O303 C288 1.270 . S
O303 Eu291 2.355 . S
O304 Eu281 2.394 . S
O304 C289 1.251 . S
O305 C289 1.251 . S
O305 Eu291 2.374 . S
O306 C290 1.257 . S
O306 Eu291 2.473 . S
O307 C290 1.260 . S
O307 Eu291 2.480 . S
O308 Eu291 2.430 . S
O308 C298 1.259 . S
O309 Eu281 2.355 . S
O309 Eu291 2.670 . S
O309 C298 1.270 . S
O310 Eu291 2.394 . S
O310 C299 1.251 . S
O311 Eu281 2.374 . S
O311 C299 1.251 . S
H312 C283 0.931 . S
H313 C284 0.931 . S
H314 C286 0.931 . S
H315 C287 0.931 . S
H316 C293 0.931 . S
H317 C294 0.931 . S
H318 C296 0.931 . S
H319 C297 0.931 . S
C320 Eu321 2.835 . S
C320 C322 1.500 . S
C320 O340 1.257 . S
C320 O341 1.260 . S
Eu321 C320 2.835 . S
Eu321 O340 2.473 . S
Eu321 O341 2.480 . S
Eu321 O342 2.430 . S
Eu321 O343 2.670 . S
Eu321 O344 2.394 . S
Eu321 O349 2.355 1_556 S
Eu321 O351 2.374 1_556 S
C322 C320 1.500 . S
C322 C323 1.377 . S
C322 C327 1.377 . S
C323 C322 1.377 . S
C323 C324 1.395 . S
C323 H352 0.931 . S
C324 C323 1.395 . S
C324 C325 1.383 . S
C324 H353 0.931 . S
C325 C324 1.383 . S
C325 C326 1.394 . S
C326 C325 1.394 . S
C326 C327 1.378 . S
C326 H354 0.931 . S
C327 C322 1.377 . S
C327 C326 1.378 . S
C327 H355 0.931 . S
C328 O342 1.259 . S
C328 O343 1.270 . S
C329 O344 1.251 . S
C329 O345 1.251 . S
C330 Eu331 2.835 . S
C330 C332 1.500 . S
C330 O346 1.257 . S
C330 O347 1.260 . S
Eu331 C330 2.835 . S
Eu331 O343 2.355 1_554 S
Eu331 O345 2.374 1_554 S
Eu331 O346 2.473 . S
Eu331 O347 2.480 . S
Eu331 O348 2.430 . S
Eu331 O349 2.670 . S
Eu331 O350 2.394 . S
C332 C330 1.500 . S
C332 C333 1.377 . S
C332 C337 1.377 . S
C333 C332 1.377 . S
C333 C334 1.395 . S
C333 H356 0.931 . S
C334 C333 1.395 . S
C334 C335 1.383 . S
C334 H357 0.931 . S
C335 C334 1.383 . S
C335 C336 1.394 . S
C336 C335 1.394 . S
C336 C337 1.378 . S
C336 H358 0.931 . S
C337 C332 1.377 . S
C337 C336 1.378 . S
C337 H359 0.931 . S
C338 O348 1.259 . S
C338 O349 1.270 . S
C339 O350 1.251 . S
C339 O351 1.251 . S
O340 C320 1.257 . S
O340 Eu321 2.473 . S
O341 C320 1.260 . S
O341 Eu321 2.480 . S
O342 Eu321 2.430 . S
O342 C328 1.259 . S
O343 Eu321 2.670 . S
O343 C328 1.270 . S
O343 Eu331 2.355 1_556 S
O344 Eu321 2.394 . S
O344 C329 1.251 . S
O345 C329 1.251 . S
O345 Eu331 2.374 1_556 S
O346 C330 1.257 . S
O346 Eu331 2.473 . S
O347 C330 1.260 . S
O347 Eu331 2.480 . S
O348 Eu331 2.430 . S
O348 C338 1.259 . S
O349 Eu321 2.355 1_554 S
O349 Eu331 2.670 . S
O349 C338 1.270 . S
O350 Eu331 2.394 . S
O350 C339 1.251 . S
O351 Eu321 2.374 1_554 S
O351 C339 1.251 . S
H352 C323 0.931 . S
H353 C324 0.931 . S
H354 C326 0.931 . S
H355 C327 0.931 . S
H356 C333 0.931 . S
H357 C334 0.931 . S
H358 C336 0.931 . S
H359 C337 0.931 . S
C360 Eu361 2.835 . S
C360 C362 1.500 . S
C360 O380 1.257 . S
C360 O381 1.260 . S
Eu361 C360 2.835 . S
Eu361 O380 2.473 . S
Eu361 O381 2.480 . S
Eu361 O382 2.430 . S
Eu361 O383 2.670 . S
Eu361 O384 2.394 . S
Eu361 O389 2.355 . S
Eu361 O391 2.374 . S
C362 C360 1.500 . S
C362 C363 1.377 . S
C362 C367 1.377 . S
C363 C362 1.377 . S
C363 C364 1.395 . S
C363 H392 0.931 . S
C364 C363 1.395 . S
C364 C365 1.383 . S
C364 H393 0.931 . S
C365 C364 1.383 . S
C365 C366 1.394 . S
C366 C365 1.394 . S
C366 C367 1.378 . S
C366 H394 0.931 . S
C367 C362 1.377 . S
C367 C366 1.378 . S
C367 H395 0.931 . S
C368 O382 1.259 . S
C368 O383 1.270 . S
C369 O384 1.251 . S
C369 O385 1.251 . S
C370 Eu371 2.835 . S
C370 C372 1.500 . S
C370 O386 1.257 . S
C370 O387 1.260 . S
Eu371 C370 2.835 . S
Eu371 O383 2.355 . S
Eu371 O385 2.374 . S
Eu371 O386 2.473 . S
Eu371 O387 2.480 . S
Eu371 O388 2.430 . S
Eu371 O389 2.670 . S
Eu371 O390 2.394 . S
C372 C370 1.500 . S
C372 C373 1.377 . S
C372 C377 1.377 . S
C373 C372 1.377 . S
C373 C374 1.395 . S
C373 H396 0.931 . S
C374 C373 1.395 . S
C374 C375 1.383 . S
C374 H397 0.931 . S
C375 C374 1.383 . S
C375 C376 1.394 . S
C376 C375 1.394 . S
C376 C377 1.378 . S
C376 H398 0.931 . S
C377 C372 1.377 . S
C377 C376 1.378 . S
C377 H399 0.931 . S
C378 O388 1.259 . S
C378 O389 1.270 . S
C379 O390 1.251 . S
C379 O391 1.251 . S
O380 C360 1.257 . S
O380 Eu361 2.473 . S
O381 C360 1.260 . S
O381 Eu361 2.480 . S
O382 Eu361 2.430 . S
O382 C368 1.259 . S
O383 Eu361 2.670 . S
O383 C368 1.270 . S
O383 Eu371 2.355 . S
O384 Eu361 2.394 . S
O384 C369 1.251 . S
O385 C369 1.251 . S
O385 Eu371 2.374 . S
O386 C370 1.257 . S
O386 Eu371 2.473 . S
O387 C370 1.260 . S
O387 Eu371 2.480 . S
O388 Eu371 2.430 . S
O388 C378 1.259 . S
O389 Eu361 2.355 . S
O389 Eu371 2.670 . S
O389 C378 1.270 . S
O390 Eu371 2.394 . S
O390 C379 1.251 . S
O391 Eu361 2.374 . S
O391 C379 1.251 . S
H392 C363 0.931 . S
H393 C364 0.931 . S
H394 C366 0.931 . S
H395 C367 0.931 . S
H396 C373 0.931 . S
H397 C374 0.931 . S
H398 C376 0.931 . S
H399 C377 0.931 . S
C400 Eu401 2.835 . S
C400 C402 1.500 . S
C400 O420 1.257 . S
C400 O421 1.260 . S
Eu401 C400 2.835 . S
Eu401 O420 2.473 . S
Eu401 O421 2.480 . S
Eu401 O422 2.430 . S
Eu401 O423 2.670 . S
Eu401 O424 2.394 . S
Eu401 O429 2.355 1_655 S
Eu401 O431 2.374 1_655 S
C402 C400 1.500 . S
C402 C403 1.377 . S
C402 C407 1.377 . S
C403 C402 1.377 . S
C403 C404 1.395 . S
C403 H432 0.931 . S
C404 C403 1.395 . S
C404 C405 1.383 . S
C404 H433 0.931 . S
C405 C404 1.383 . S
C405 C406 1.394 . S
C406 C405 1.394 . S
C406 C407 1.378 . S
C406 H434 0.931 . S
C407 C402 1.377 . S
C407 C406 1.378 . S
C407 H435 0.931 . S
C408 O422 1.259 . S
C408 O423 1.270 . S
C409 O424 1.251 . S
C409 O425 1.251 . S
C410 Eu411 2.835 . S
C410 C412 1.500 . S
C410 O426 1.257 . S
C410 O427 1.260 . S
Eu411 C410 2.835 . S
Eu411 O423 2.355 1_455 S
Eu411 O425 2.374 1_455 S
Eu411 O426 2.473 . S
Eu411 O427 2.480 . S
Eu411 O428 2.430 . S
Eu411 O429 2.670 . S
Eu411 O430 2.394 . S
C412 C410 1.500 . S
C412 C413 1.377 . S
C412 C417 1.377 . S
C413 C412 1.377 . S
C413 C414 1.395 . S
C413 H436 0.931 . S
C414 C413 1.395 . S
C414 C415 1.383 . S
C414 H437 0.931 . S
C415 C414 1.383 . S
C415 C416 1.394 . S
C416 C415 1.394 . S
C416 C417 1.378 . S
C416 H438 0.931 . S
C417 C412 1.377 . S
C417 C416 1.378 . S
C417 H439 0.931 . S
C418 O428 1.259 . S
C418 O429 1.270 . S
C419 O430 1.251 . S
C419 O431 1.251 . S
O420 C400 1.257 . S
O420 Eu401 2.473 . S
O421 C400 1.260 . S
O421 Eu401 2.480 . S
O422 Eu401 2.430 . S
O422 C408 1.259 . S
O423 Eu401 2.670 . S
O423 C408 1.270 . S
O423 Eu411 2.355 1_655 S
O424 Eu401 2.394 . S
O424 C409 1.251 . S
O425 C409 1.251 . S
O425 Eu411 2.374 1_655 S
O426 C410 1.257 . S
O426 Eu411 2.473 . S
O427 C410 1.260 . S
O427 Eu411 2.480 . S
O428 Eu411 2.430 . S
O428 C418 1.259 . S
O429 Eu401 2.355 1_455 S
O429 Eu411 2.670 . S
O429 C418 1.270 . S
O430 Eu411 2.394 . S
O430 C419 1.251 . S
O431 Eu401 2.374 1_455 S
O431 C419 1.251 . S
H432 C403 0.931 . S
H433 C404 0.931 . S
H434 C406 0.931 . S
H435 C407 0.931 . S
H436 C413 0.931 . S
H437 C414 0.931 . S
H438 C416 0.931 . S
H439 C417 0.931 . S
C440 Eu441 2.835 . S
C440 C442 1.500 . S
C440 O460 1.257 . S
C440 O461 1.260 . S
Eu441 C440 2.835 . S
Eu441 O460 2.473 . S
Eu441 O461 2.480 . S
Eu441 O462 2.430 . S
Eu441 O463 2.670 . S
Eu441 O464 2.394 . S
Eu441 O469 2.355 . S
Eu441 O471 2.374 . S
C442 C440 1.500 . S
C442 C443 1.377 . S
C442 C447 1.377 . S
C443 C442 1.377 . S
C443 C444 1.395 . S
C443 H472 0.931 . S
C444 C443 1.395 . S
C444 C445 1.383 . S
C444 H473 0.931 . S
C445 C444 1.383 . S
C445 C446 1.394 . S
C446 C445 1.394 . S
C446 C447 1.378 . S
C446 H474 0.931 . S
C447 C442 1.377 . S
C447 C446 1.378 . S
C447 H475 0.931 . S
C448 O462 1.259 . S
C448 O463 1.270 . S
C449 O464 1.251 . S
C449 O465 1.251 . S
C450 Eu451 2.835 . S
C450 C452 1.500 . S
C450 O466 1.257 . S
C450 O467 1.260 . S
Eu451 C450 2.835 . S
Eu451 O463 2.355 . S
Eu451 O465 2.374 . S
Eu451 O466 2.473 . S
Eu451 O467 2.480 . S
Eu451 O468 2.430 . S
Eu451 O469 2.670 . S
Eu451 O470 2.394 . S
C452 C450 1.500 . S
C452 C453 1.377 . S
C452 C457 1.377 . S
C453 C452 1.377 . S
C453 C454 1.395 . S
C453 H476 0.931 . S
C454 C453 1.395 . S
C454 C455 1.383 . S
C454 H477 0.931 . S
C455 C454 1.383 . S
C455 C456 1.394 . S
C456 C455 1.394 . S
C456 C457 1.378 . S
C456 H478 0.931 . S
C457 C452 1.377 . S
C457 C456 1.378 . S
C457 H479 0.931 . S
C458 O468 1.259 . S
C458 O469 1.270 . S
C459 O470 1.251 . S
C459 O471 1.251 . S
O460 C440 1.257 . S
O460 Eu441 2.473 . S
O461 C440 1.260 . S
O461 Eu441 2.480 . S
O462 Eu441 2.430 . S
O462 C448 1.259 . S
O463 Eu441 2.670 . S
O463 C448 1.270 . S
O463 Eu451 2.355 . S
O464 Eu441 2.394 . S
O464 C449 1.251 . S
O465 C449 1.251 . S
O465 Eu451 2.374 . S
O466 C450 1.257 . S
O466 Eu451 2.473 . S
O467 C450 1.260 . S
O467 Eu451 2.480 . S
O468 Eu451 2.430 . S
O468 C458 1.259 . S
O469 Eu441 2.355 . S
O469 Eu451 2.670 . S
O469 C458 1.270 . S
O470 Eu451 2.394 . S
O470 C459 1.251 . S
O471 Eu441 2.374 . S
O471 C459 1.251 . S
H472 C443 0.931 . S
H473 C444 0.931 . S
H474 C446 0.931 . S
H475 C447 0.931 . S
H476 C453 0.931 . S
H477 C454 0.931 . S
H478 C456 0.931 . S
H479 C457 0.931 . S
C480 Eu481 2.835 . S
C480 C482 1.500 . S
C480 O500 1.257 . S
C480 O501 1.260 . S
Eu481 C480 2.835 . S
Eu481 O500 2.473 . S
Eu481 O501 2.480 . S
Eu481 O502 2.430 . S
Eu481 O503 2.670 . S
Eu481 O504 2.394 . S
Eu481 O509 2.355 . S
Eu481 O511 2.374 . S
C482 C480 1.500 . S
C482 C483 1.377 . S
C482 C487 1.377 . S
C483 C482 1.377 . S
C483 C484 1.395 . S
C483 H512 0.931 . S
C484 C483 1.395 . S
C484 C485 1.383 . S
C484 H513 0.931 . S
C485 C484 1.383 . S
C485 C486 1.394 . S
C486 C485 1.394 . S
C486 C487 1.378 . S
C486 H514 0.931 . S
C487 C482 1.377 . S
C487 C486 1.378 . S
C487 H515 0.931 . S
C488 O502 1.259 . S
C488 O503 1.270 . S
C489 O504 1.251 . S
C489 O505 1.251 . S
C490 Eu491 2.835 . S
C490 C492 1.500 . S
C490 O506 1.257 . S
C490 O507 1.260 . S
Eu491 C490 2.835 . S
Eu491 O503 2.355 . S
Eu491 O505 2.374 . S
Eu491 O506 2.473 . S
Eu491 O507 2.480 . S
Eu491 O508 2.430 . S
Eu491 O509 2.670 . S
Eu491 O510 2.394 . S
C492 C490 1.500 . S
C492 C493 1.377 . S
C492 C497 1.377 . S
C493 C492 1.377 . S
C493 C494 1.395 . S
C493 H516 0.931 . S
C494 C493 1.395 . S
C494 C495 1.383 . S
C494 H517 0.931 . S
C495 C494 1.383 . S
C495 C496 1.394 . S
C496 C495 1.394 . S
C496 C497 1.378 . S
C496 H518 0.931 . S
C497 C492 1.377 . S
C497 C496 1.378 . S
C497 H519 0.931 . S
C498 O508 1.259 . S
C498 O509 1.270 . S
C499 O510 1.251 . S
C499 O511 1.251 . S
O500 C480 1.257 . S
O500 Eu481 2.473 . S
O501 C480 1.260 . S
O501 Eu481 2.480 . S
O502 Eu481 2.430 . S
O502 C488 1.259 . S
O503 Eu481 2.670 . S
O503 C488 1.270 . S
O503 Eu491 2.355 . S
O504 Eu481 2.394 . S
O504 C489 1.251 . S
O505 C489 1.251 . S
O505 Eu491 2.374 . S
O506 C490 1.257 . S
O506 Eu491 2.473 . S
O507 C490 1.260 . S
O507 Eu491 2.480 . S
O508 Eu491 2.430 . S
O508 C498 1.259 . S
O509 Eu481 2.355 . S
O509 Eu491 2.670 . S
O509 C498 1.270 . S
O510 Eu491 2.394 . S
O510 C499 1.251 . S
O511 Eu481 2.374 . S
O511 C499 1.251 . S
H512 C483 0.931 . S
H513 C484 0.931 . S
H514 C486 0.931 . S
H515 C487 0.931 . S
H516 C493 0.931 . S
H517 C494 0.931 . S
H518 C496 0.931 . S
H519 C497 0.931 . S
C520 Eu521 2.835 . S
C520 C522 1.500 . S
C520 O540 1.257 . S
C520 O541 1.260 . S
Eu521 C520 2.835 . S
Eu521 O540 2.473 . S
Eu521 O541 2.480 . S
Eu521 O542 2.430 . S
Eu521 O543 2.670 . S
Eu521 O544 2.394 . S
Eu521 O549 2.355 . S
Eu521 O551 2.374 . S
C522 C520 1.500 . S
C522 C523 1.377 . S
C522 C527 1.377 . S
C523 C522 1.377 . S
C523 C524 1.395 . S
C523 H552 0.931 . S
C524 C523 1.395 . S
C524 C525 1.383 . S
C524 H553 0.931 . S
C525 C524 1.383 . S
C525 C526 1.394 . S
C526 C525 1.394 . S
C526 C527 1.378 . S
C526 H554 0.931 . S
C527 C522 1.377 . S
C527 C526 1.378 . S
C527 H555 0.931 . S
C528 O542 1.259 . S
C528 O543 1.270 . S
C529 O544 1.251 . S
C529 O545 1.251 . S
C530 Eu531 2.835 . S
C530 C532 1.500 . S
C530 O546 1.257 . S
C530 O547 1.260 . S
Eu531 C530 2.835 . S
Eu531 O543 2.355 . S
Eu531 O545 2.374 . S
Eu531 O546 2.473 . S
Eu531 O547 2.480 . S
Eu531 O548 2.430 . S
Eu531 O549 2.670 . S
Eu531 O550 2.394 . S
C532 C530 1.500 . S
C532 C533 1.377 . S
C532 C537 1.377 . S
C533 C532 1.377 . S
C533 C534 1.395 . S
C533 H556 0.931 . S
C534 C533 1.395 . S
C534 C535 1.383 . S
C534 H557 0.931 . S
C535 C534 1.383 . S
C535 C536 1.394 . S
C536 C535 1.394 . S
C536 C537 1.378 . S
C536 H558 0.931 . S
C537 C532 1.377 . S
C537 C536 1.378 . S
C537 H559 0.931 . S
C538 O548 1.259 . S
C538 O549 1.270 . S
C539 O550 1.251 . S
C539 O551 1.251 . S
O540 C520 1.257 . S
O540 Eu521 2.473 . S
O541 C520 1.260 . S
O541 Eu521 2.480 . S
O542 Eu521 2.430 . S
O542 C528 1.259 . S
O543 Eu521 2.670 . S
O543 C528 1.270 . S
O543 Eu531 2.355 . S
O544 Eu521 2.394 . S
O544 C529 1.251 . S
O545 C529 1.251 . S
O545 Eu531 2.374 . S
O546 C530 1.257 . S
O546 Eu531 2.473 . S
O547 C530 1.260 . S
O547 Eu531 2.480 . S
O548 Eu531 2.430 . S
O548 C538 1.259 . S
O549 Eu521 2.355 . S
O549 Eu531 2.670 . S
O549 C538 1.270 . S
O550 Eu531 2.394 . S
O550 C539 1.251 . S
O551 Eu521 2.374 . S
O551 C539 1.251 . S
H552 C523 0.931 . S
H553 C524 0.931 . S
H554 C526 0.931 . S
H555 C527 0.931 . S
H556 C533 0.931 . S
H557 C534 0.931 . S
H558 C536 0.931 . S
H559 C537 0.931 . S
C560 Eu561 2.835 . S
C560 C562 1.500 . S
C560 O580 1.257 . S
C560 O581 1.260 . S
Eu561 C560 2.835 . S
Eu561 O580 2.473 . S
Eu561 O581 2.480 . S
Eu561 O582 2.430 . S
Eu561 O583 2.670 . S
Eu561 O584 2.394 . S
Eu561 O589 2.355 . S
Eu561 O591 2.374 . S
C562 C560 1.500 . S
C562 C563 1.377 . S
C562 C567 1.377 . S
C563 C562 1.377 . S
C563 C564 1.395 . S
C563 H592 0.931 . S
C564 C563 1.395 . S
C564 C565 1.383 . S
C564 H593 0.931 . S
C565 C564 1.383 . S
C565 C566 1.394 . S
C566 C565 1.394 . S
C566 C567 1.378 . S
C566 H594 0.931 . S
C567 C562 1.377 . S
C567 C566 1.378 . S
C567 H595 0.931 . S
C568 O582 1.259 . S
C568 O583 1.270 . S
C569 O584 1.251 . S
C569 O585 1.251 . S
C570 Eu571 2.835 . S
C570 C572 1.500 . S
C570 O586 1.257 . S
C570 O587 1.260 . S
Eu571 C570 2.835 . S
Eu571 O583 2.355 . S
Eu571 O585 2.374 . S
Eu571 O586 2.473 . S
Eu571 O587 2.480 . S
Eu571 O588 2.430 . S
Eu571 O589 2.670 . S
Eu571 O590 2.394 . S
C572 C570 1.500 . S
C572 C573 1.377 . S
C572 C577 1.377 . S
C573 C572 1.377 . S
C573 C574 1.395 . S
C573 H596 0.931 . S
C574 C573 1.395 . S
C574 C575 1.383 . S
C574 H597 0.931 . S
C575 C574 1.383 . S
C575 C576 1.394 . S
C576 C575 1.394 . S
C576 C577 1.378 . S
C576 H598 0.931 . S
C577 C572 1.377 . S
C577 C576 1.378 . S
C577 H599 0.931 . S
C578 O588 1.259 . S
C578 O589 1.270 . S
C579 O590 1.251 . S
C579 O591 1.251 . S
O580 C560 1.257 . S
O580 Eu561 2.473 . S
O581 C560 1.260 . S
O581 Eu561 2.480 . S
O582 Eu561 2.430 . S
O582 C568 1.259 . S
O583 Eu561 2.670 . S
O583 C568 1.270 . S
O583 Eu571 2.355 . S
O584 Eu561 2.394 . S
O584 C569 1.251 . S
O585 C569 1.251 . S
O585 Eu571 2.374 . S
O586 C570 1.257 . S
O586 Eu571 2.473 . S
O587 C570 1.260 . S
O587 Eu571 2.480 . S
O588 Eu571 2.430 . S
O588 C578 1.259 . S
O589 Eu561 2.355 . S
O589 Eu571 2.670 . S
O589 C578 1.270 . S
O590 Eu571 2.394 . S
O590 C579 1.251 . S
O591 Eu561 2.374 . S
O591 C579 1.251 . S
H592 C563 0.931 . S
H593 C564 0.931 . S
H594 C566 0.931 . S
H595 C567 0.931 . S
H596 C573 0.931 . S
H597 C574 0.931 . S
H598 C576 0.931 . S
H599 C577 0.931 . S
C600 Eu601 2.835 . S
C600 C602 1.500 . S
C600 O620 1.257 . S
C600 O621 1.260 . S
Eu601 C600 2.835 . S
Eu601 O620 2.473 . S
Eu601 O621 2.480 . S
Eu601 O622 2.430 1_556 S
Eu601 O623 2.670 1_556 S
Eu601 O624 2.394 1_556 S
Eu601 O629 2.355 1_455 S
Eu601 O631 2.374 1_455 S
C602 C600 1.500 . S
C602 C603 1.377 . S
C602 C607 1.377 . S
C603 C602 1.377 . S
C603 C604 1.395 . S
C603 H632 0.931 . S
C604 C603 1.395 . S
C604 C605 1.383 . S
C604 H633 0.931 . S
C605 C604 1.383 . S
C605 C606 1.394 . S
C606 C605 1.394 . S
C606 C607 1.378 . S
C606 H634 0.931 . S
C607 C602 1.377 . S
C607 C606 1.378 . S
C607 H635 0.931 . S
C608 O622 1.259 . S
C608 O623 1.270 . S
C609 O624 1.251 . S
C609 O625 1.251 . S
C610 Eu611 2.835 . S
C610 C612 1.500 . S
C610 O626 1.257 . S
C610 O627 1.260 . S
Eu611 C610 2.835 . S
Eu611 O623 2.355 1_655 S
Eu611 O625 2.374 1_655 S
Eu611 O626 2.473 . S
Eu611 O627 2.480 . S
Eu611 O628 2.430 1_554 S
Eu611 O629 2.670 1_554 S
Eu611 O630 2.394 1_554 S
C612 C610 1.500 . S
C612 C613 1.377 . S
C612 C617 1.377 . S
C613 C612 1.377 . S
C613 C614 1.395 . S
C613 H636 0.931 . S
C614 C613 1.395 . S
C614 C615 1.383 . S
C614 H637 0.931 . S
C615 C614 1.383 . S
C615 C616 1.394 . S
C616 C615 1.394 . S
C616 C617 1.378 . S
C616 H638 0.931 . S
C617 C612 1.377 . S
C617 C616 1.378 . S
C617 H639 0.931 . S
C618 O628 1.259 . S
C618 O629 1.270 . S
C619 O630 1.251 . S
C619 O631 1.251 . S
O620 C600 1.257 . S
O620 Eu601 2.473 . S
O621 C600 1.260 . S
O621 Eu601 2.480 . S
O622 Eu601 2.430 1_554 S
O622 C608 1.259 . S
O623 Eu601 2.670 1_554 S
O623 C608 1.270 . S
O623 Eu611 2.355 1_455 S
O624 Eu601 2.394 1_554 S
O624 C609 1.251 . S
O625 C609 1.251 . S
O625 Eu611 2.374 1_455 S
O626 C610 1.257 . S
O626 Eu611 2.473 . S
O627 C610 1.260 . S
O627 Eu611 2.480 . S
O628 Eu611 2.430 1_556 S
O628 C618 1.259 . S
O629 Eu601 2.355 1_655 S
O629 Eu611 2.670 1_556 S
O629 C618 1.270 . S
O630 Eu611 2.394 1_556 S
O630 C619 1.251 . S
O631 Eu601 2.374 1_655 S
O631 C619 1.251 . S
H632 C603 0.931 . S
H633 C604 0.931 . S
H634 C606 0.931 . S
H635 C607 0.931 . S
H636 C613 0.931 . S
H637 C614 0.931 . S
H638 C616 0.931 . S
H639 C617 0.931 . S
H640 C646 0.930 . S
H641 C649 0.930 . S
H642 C650 0.930 . S
H643 C651 0.930 . S
H644 C654 0.930 . S
H645 C655 0.930 . S
C646 H640 0.930 . S
C646 C647 1.355 . S
C646 C648 1.415 . S
C647 C646 1.355 . S
C647 C649 1.419 . S
C648 C646 1.415 . S
C648 C653 1.425 . S
C648 C655 1.409 . S
C649 H641 0.930 . S
C649 C647 1.419 . S
C649 C650 1.362 . S
C650 H642 0.930 . S
C650 C649 1.362 . S
C650 C653 1.409 . S
C651 H643 0.930 . S
C651 C652 1.355 . S
C651 C653 1.415 . S
C652 C651 1.355 . S
C652 C654 1.419 . S
C653 C648 1.425 . S
C653 C650 1.409 . S
C653 C651 1.415 . S
C654 H644 0.930 . S
C654 C652 1.419 . S
C654 C655 1.362 . S
C655 H645 0.930 . S
C655 C648 1.409 . S
C655 C654 1.362 . S
H656 C662 0.930 . S
H657 C665 0.930 . S
H658 C666 0.930 . S
H659 C667 0.930 . S
H660 C670 0.930 . S
H661 C671 0.930 . S
C662 H656 0.930 . S
C662 C663 1.355 . S
C662 C664 1.415 . S
C663 C662 1.355 . S
C663 C665 1.419 . S
C664 C662 1.415 . S
C664 C669 1.425 . S
C664 C671 1.409 . S
C665 H657 0.930 . S
C665 C663 1.419 . S
C665 C666 1.362 . S
C666 H658 0.930 . S
C666 C665 1.362 . S
C666 C669 1.409 . S
C667 H659 0.930 . S
C667 C668 1.355 . S
C667 C669 1.415 . S
C668 C667 1.355 . S
C668 C670 1.419 . S
C669 C664 1.425 . S
C669 C666 1.409 . S
C669 C667 1.415 . S
C670 H660 0.930 . S
C670 C668 1.419 . S
C670 C671 1.362 . S
C671 H661 0.930 . S
C671 C664 1.409 . S
C671 C670 1.362 . S
H672 C678 0.930 . S
H673 C681 0.930 . S
H674 C682 0.930 . S
H675 C683 0.930 . S
H676 C686 0.930 . S
H677 C687 0.930 . S
C678 H672 0.930 . S
C678 C679 1.355 . S
C678 C680 1.415 . S
C679 C678 1.355 . S
C679 C681 1.419 . S
C680 C678 1.415 . S
C680 C685 1.425 . S
C680 C687 1.409 . S
C681 H673 0.930 . S
C681 C679 1.419 . S
C681 C682 1.362 . S
C682 H674 0.930 . S
C682 C681 1.362 . S
C682 C685 1.409 . S
C683 H675 0.930 . S
C683 C684 1.355 . S
C683 C685 1.415 . S
C684 C683 1.355 . S
C684 C686 1.419 . S
C685 C680 1.425 . S
C685 C682 1.409 . S
C685 C683 1.415 . S
C686 H676 0.930 . S
C686 C684 1.419 . S
C686 C687 1.362 . S
C687 H677 0.930 . S
C687 C680 1.409 . S
C687 C686 1.362 . S
H688 C694 0.930 . S
H689 C697 0.930 . S
H690 C698 0.930 . S
H691 C699 0.930 . S
H692 C702 0.930 . S
H693 C703 0.930 . S
C694 H688 0.930 . S
C694 C695 1.355 . S
C694 C696 1.415 . S
C695 C694 1.355 . S
C695 C697 1.419 . S
C696 C694 1.415 . S
C696 C701 1.425 . S
C696 C703 1.409 . S
C697 H689 0.930 . S
C697 C695 1.419 . S
C697 C698 1.362 . S
C698 H690 0.930 . S
C698 C697 1.362 . S
C698 C701 1.409 . S
C699 H691 0.930 . S
C699 C700 1.355 . S
C699 C701 1.415 . S
C700 C699 1.355 . S
C700 C702 1.419 . S
C701 C696 1.425 . S
C701 C698 1.409 . S
C701 C699 1.415 . S
C702 H692 0.930 . S
C702 C700 1.419 . S
C702 C703 1.362 . S
C703 H693 0.930 . S
C703 C696 1.409 . S
C703 C702 1.362 . S
H704 C710 0.926 1_655 S
H705 C713 0.930 1_545 S
H706 C714 0.930 . S
H707 C715 0.930 . S
H708 C718 0.930 . S
H709 C719 0.930 . S
C710 H704 0.926 1_455 S
C710 C711 1.355 . S
C710 C712 1.415 . S
C711 C710 1.355 . S
C711 C713 1.419 . S
C712 C710 1.415 . S
C712 C717 1.425 . S
C712 C719 1.409 . S
C713 H705 0.930 1_565 S
C713 C711 1.419 . S
C713 C714 1.362 . S
C714 H706 0.930 . S
C714 C713 1.362 . S
C714 C717 1.409 . S
C715 H707 0.930 . S
C715 C716 1.355 . S
C715 C717 1.415 . S
C716 C715 1.355 . S
C716 C718 1.419 . S
C717 C712 1.425 . S
C717 C714 1.409 . S
C717 C715 1.415 . S
C718 H708 0.930 . S
C718 C716 1.419 . S
C718 C719 1.362 . S
C719 H709 0.930 . S
C719 C712 1.409 . S
C719 C718 1.362 . S
H720 C726 0.930 . S
H721 C729 0.930 . S
H722 C730 0.930 . S
H723 C731 0.930 . S
H724 C734 0.930 . S
H725 C735 0.930 . S
C726 H720 0.930 . S
C726 C727 1.355 . S
C726 C728 1.415 . S
C727 C726 1.355 . S
C727 C729 1.419 . S
C728 C726 1.415 . S
C728 C733 1.425 . S
C728 C735 1.409 . S
C729 H721 0.930 . S
C729 C727 1.419 . S
C729 C730 1.362 . S
C730 H722 0.930 . S
C730 C729 1.362 . S
C730 C733 1.409 . S
C731 H723 0.930 . S
C731 C732 1.355 . S
C731 C733 1.415 . S
C732 C731 1.355 . S
C732 C734 1.419 . S
C733 C728 1.425 . S
C733 C730 1.409 . S
C733 C731 1.415 . S
C734 H724 0.930 . S
C734 C732 1.419 . S
C734 C735 1.362 . S
C735 H725 0.930 . S
C735 C728 1.409 . S
C735 C734 1.362 . S
H736 C742 0.930 . S
H737 C745 0.930 . S
H738 C746 0.930 . S
H739 C747 0.930 . S
H740 C750 0.930 . S
H741 C751 0.930 . S
C742 H736 0.930 . S
C742 C743 1.355 . S
C742 C744 1.415 . S
C743 C742 1.355 . S
C743 C745 1.419 . S
C744 C742 1.415 . S
C744 C749 1.425 . S
C744 C751 1.409 . S
C745 H737 0.930 . S
C745 C743 1.419 . S
C745 C746 1.362 . S
C746 H738 0.930 . S
C746 C745 1.362 . S
C746 C749 1.409 . S
C747 H739 0.930 . S
C747 C748 1.355 . S
C747 C749 1.415 . S
C748 C747 1.355 . S
C748 C750 1.419 . S
C749 C744 1.425 . S
C749 C746 1.409 . S
C749 C747 1.415 . S
C750 H740 0.930 . S
C750 C748 1.419 . S
C750 C751 1.362 . S
C751 H741 0.930 . S
C751 C744 1.409 . S
C751 C750 1.362 . S
H752 C758 0.930 . S
H753 C761 0.930 . S
H754 C762 0.930 . S
H755 C763 0.930 . S
H756 C766 0.930 . S
H757 C767 0.930 . S
C758 H752 0.930 . S
C758 C759 1.355 . S
C758 C760 1.415 . S
C759 C758 1.355 . S
C759 C761 1.419 . S
C760 C758 1.415 . S
C760 C765 1.425 . S
C760 C767 1.409 . S
C761 H753 0.930 . S
C761 C759 1.419 . S
C761 C762 1.362 . S
C762 H754 0.930 . S
C762 C761 1.362 . S
C762 C765 1.409 . S
C763 H755 0.930 . S
C763 C764 1.355 . S
C763 C765 1.415 . S
C764 C763 1.355 . S
C764 C766 1.419 . S
C765 C760 1.425 . S
C765 C762 1.409 . S
C765 C763 1.415 . S
C766 H756 0.930 . S
C766 C764 1.419 . S
C766 C767 1.362 . S
C767 H757 0.930 . S
C767 C760 1.409 . S
C767 C766 1.362 . S
H768 C774 0.930 . S
H769 C777 0.930 . S
H770 C778 0.930 . S
H771 C779 0.930 . S
H772 C782 0.930 . S
H773 C783 0.930 . S
C774 H768 0.930 . S
C774 C775 1.355 . S
C774 C776 1.415 . S
C775 C774 1.355 . S
C775 C777 1.419 . S
C776 C774 1.415 . S
C776 C781 1.425 . S
C776 C783 1.409 . S
C777 H769 0.930 . S
C777 C775 1.419 . S
C777 C778 1.362 . S
C778 H770 0.930 . S
C778 C777 1.362 . S
C778 C781 1.409 . S
C779 H771 0.930 . S
C779 C780 1.355 . S
C779 C781 1.415 . S
C780 C779 1.355 . S
C780 C782 1.419 . S
C781 C776 1.425 . S
C781 C778 1.409 . S
C781 C779 1.415 . S
C782 H772 0.930 . S
C782 C780 1.419 . S
C782 C783 1.362 . S
C783 H773 0.930 . S
C783 C776 1.409 . S
C783 C782 1.362 . S
H784 C790 0.930 . S
H785 C793 0.930 . S
H786 C794 0.930 . S
H787 C795 0.930 . S
H788 C798 0.930 . S
H789 C799 0.930 . S
C790 H784 0.930 . S
C790 C791 1.355 . S
C790 C792 1.415 . S
C791 C790 1.355 . S
C791 C793 1.419 . S
C792 C790 1.415 . S
C792 C797 1.425 . S
C792 C799 1.409 . S
C793 H785 0.930 . S
C793 C791 1.419 . S
C793 C794 1.362 . S
C794 H786 0.930 . S
C794 C793 1.362 . S
C794 C797 1.409 . S
C795 H787 0.930 . S
C795 C796 1.355 . S
C795 C797 1.415 . S
C796 C795 1.355 . S
C796 C798 1.419 . S
C797 C792 1.425 . S
C797 C794 1.409 . S
C797 C795 1.415 . S
C798 H788 0.930 . S
C798 C796 1.419 . S
C798 C799 1.362 . S
C799 H789 0.930 . S
C799 C792 1.409 . S
C799 C798 1.362 . S
H800 C806 0.930 . S
H801 C809 0.930 . S
H802 C810 0.930 . S
H803 C811 0.930 . S
H804 C814 0.930 . S
H805 C815 0.930 . S
C806 H800 0.930 . S
C806 C807 1.355 . S
C806 C808 1.415 . S
C807 C806 1.355 . S
C807 C809 1.419 . S
C808 C806 1.415 . S
C808 C813 1.425 . S
C808 C815 1.409 . S
C809 H801 0.930 . S
C809 C807 1.419 . S
C809 C810 1.362 . S
C810 H802 0.930 . S
C810 C809 1.362 . S
C810 C813 1.409 . S
C811 H803 0.930 . S
C811 C812 1.355 . S
C811 C813 1.415 . S
C812 C811 1.355 . S
C812 C814 1.419 . S
C813 C808 1.425 . S
C813 C810 1.409 . S
C813 C811 1.415 . S
C814 H804 0.930 . S
C814 C812 1.419 . S
C814 C815 1.362 . S
C815 H805 0.930 . S
C815 C808 1.409 . S
C815 C814 1.362 . S
H816 C822 0.930 . S
H817 C825 0.930 . S
H818 C826 0.930 . S
H819 C827 0.930 . S
H820 C830 0.930 . S
H821 C831 0.930 . S
C822 H816 0.930 . S
C822 C823 1.355 . S
C822 C824 1.415 . S
C823 C822 1.355 . S
C823 C825 1.419 . S
C824 C822 1.415 . S
C824 C829 1.425 . S
C824 C831 1.409 . S
C825 H817 0.930 . S
C825 C823 1.419 . S
C825 C826 1.362 . S
C826 H818 0.930 . S
C826 C825 1.362 . S
C826 C829 1.409 . S
C827 H819 0.930 . S
C827 C828 1.355 . S
C827 C829 1.415 . S
C828 C827 1.355 . S
C828 C830 1.419 . S
C829 C824 1.425 . S
C829 C826 1.409 . S
C829 C827 1.415 . S
C830 H820 0.930 . S
C830 C828 1.419 . S
C830 C831 1.362 . S
C831 H821 0.930 . S
C831 C824 1.409 . S
C831 C830 1.362 . S
H832 C838 0.930 . S
H833 C841 0.930 . S
H834 C842 0.930 . S
H835 C843 0.930 . S
H836 C846 0.930 . S
H837 C847 0.930 . S
C838 H832 0.930 . S
C838 C839 1.355 . S
C838 C840 1.415 . S
C839 C838 1.355 . S
C839 C841 1.419 . S
C840 C838 1.415 . S
C840 C845 1.425 . S
C840 C847 1.409 . S
C841 H833 0.930 . S
C841 C839 1.419 . S
C841 C842 1.362 . S
C842 H834 0.930 . S
C842 C841 1.362 . S
C842 C845 1.409 . S
C843 H835 0.930 . S
C843 C844 1.355 . S
C843 C845 1.415 . S
C844 C843 1.355 . S
C844 C846 1.419 . S
C845 C840 1.425 . S
C845 C842 1.409 . S
C845 C843 1.415 . S
C846 H836 0.930 . S
C846 C844 1.419 . S
C846 C847 1.362 . S
C847 H837 0.930 . S
C847 C840 1.409 . S
C847 C846 1.362 . S
H848 C854 0.930 . S
H849 C857 0.930 . S
H850 C858 0.930 . S
H851 C859 0.930 . S
H852 C862 0.930 . S
H853 C863 0.930 . S
C854 H848 0.930 . S
C854 C855 1.355 . S
C854 C856 1.415 . S
C855 C854 1.355 . S
C855 C857 1.419 . S
C856 C854 1.415 . S
C856 C861 1.425 . S
C856 C863 1.409 . S
C857 H849 0.930 . S
C857 C855 1.419 . S
C857 C858 1.362 . S
C858 H850 0.930 . S
C858 C857 1.362 . S
C858 C861 1.409 . S
C859 H851 0.930 . S
C859 C860 1.355 . S
C859 C861 1.415 . S
C860 C859 1.355 . S
C860 C862 1.419 . S
C861 C856 1.425 . S
C861 C858 1.409 . S
C861 C859 1.415 . S
C862 H852 0.930 . S
C862 C860 1.419 . S
C862 C863 1.362 . S
C863 H853 0.930 . S
C863 C856 1.409 . S
C863 C862 1.362 . S
H864 C870 0.930 . S
H865 C873 0.930 1_565 S
H866 C874 0.930 . S
H867 C875 0.930 . S
H868 C878 0.930 . S
H869 C879 0.930 . S
C870 H864 0.930 . S
C870 C871 1.355 . S
C870 C872 1.415 . S
C871 C870 1.355 . S
C871 C873 1.419 . S
C872 C870 1.415 . S
C872 C877 1.425 . S
C872 C879 1.409 . S
C873 H865 0.930 1_545 S
C873 C871 1.419 . S
C873 C874 1.362 . S
C874 H866 0.930 . S
C874 C873 1.362 . S
C874 C877 1.409 . S
C875 H867 0.930 . S
C875 C876 1.355 . S
C875 C877 1.415 . S
C876 C875 1.355 . S
C876 C878 1.419 . S
C877 C872 1.425 . S
C877 C874 1.409 . S
C877 C875 1.415 . S
C878 H868 0.930 . S
C878 C876 1.419 . S
C878 C879 1.362 . S
C879 H869 0.930 . S
C879 C872 1.409 . S
C879 C878 1.362 . S
H880 C886 0.930 . S
H881 C889 0.930 . S
H882 C890 0.930 . S
H883 C891 0.930 . S
H884 C894 0.930 . S
H885 C895 0.930 . S
C886 H880 0.930 . S
C886 C887 1.355 . S
C886 C888 1.415 . S
C887 C886 1.355 . S
C887 C889 1.419 . S
C888 C886 1.415 . S
C888 C893 1.425 . S
C888 C895 1.409 . S
C889 H881 0.930 . S
C889 C887 1.419 . S
C889 C890 1.362 . S
C890 H882 0.930 . S
C890 C889 1.362 . S
C890 C893 1.409 . S
C891 H883 0.930 . S
C891 C892 1.355 . S
C891 C893 1.415 . S
C892 C891 1.355 . S
C892 C894 1.419 . S
C893 C888 1.425 . S
C893 C890 1.409 . S
C893 C891 1.415 . S
C894 H884 0.930 . S
C894 C892 1.419 . S
C894 C895 1.362 . S
C895 H885 0.930 . S
C895 C888 1.409 . S
C895 C894 1.362 . S
H896 C902 0.930 . S
H897 C905 0.930 . S
H898 C906 0.930 . S
H899 C907 0.930 . S
H900 C910 0.930 . S
H901 C911 0.930 . S
C902 H896 0.930 . S
C902 C903 1.355 . S
C902 C904 1.415 . S
C903 C902 1.355 . S
C903 C905 1.419 . S
C904 C902 1.415 . S
C904 C909 1.425 . S
C904 C911 1.409 . S
C905 H897 0.930 . S
C905 C903 1.419 . S
C905 C906 1.362 . S
C906 H898 0.930 . S
C906 C905 1.362 . S
C906 C909 1.409 . S
C907 H899 0.930 . S
C907 C908 1.355 . S
C907 C909 1.415 . S
C908 C907 1.355 . S
C908 C910 1.419 . S
C909 C904 1.425 . S
C909 C906 1.409 . S
C909 C907 1.415 . S
C910 H900 0.930 . S
C910 C908 1.419 . S
C910 C911 1.362 . S
C911 H901 0.930 . S
C911 C904 1.409 . S
C911 C910 1.362 . S
H912 C918 0.930 . S
H913 C921 0.930 . S
H914 C922 0.930 . S
H915 C923 0.930 . S
H916 C926 0.930 . S
H917 C927 0.930 . S
C918 H912 0.930 . S
C918 C919 1.355 . S
C918 C920 1.415 . S
C919 C918 1.355 . S
C919 C921 1.419 . S
C920 C918 1.415 . S
C920 C925 1.425 . S
C920 C927 1.409 . S
C921 H913 0.930 . S
C921 C919 1.419 . S
C921 C922 1.362 . S
C922 H914 0.930 . S
C922 C921 1.362 . S
C922 C925 1.409 . S
C923 H915 0.930 . S
C923 C924 1.355 . S
C923 C925 1.415 . S
C924 C923 1.355 . S
C924 C926 1.419 . S
C925 C920 1.425 . S
C925 C922 1.409 . S
C925 C923 1.415 . S
C926 H916 0.930 . S
C926 C924 1.419 . S
C926 C927 1.362 . S
C927 H917 0.930 . S
C927 C920 1.409 . S
C927 C926 1.362 . S
H928 C934 0.930 . S
H929 C937 0.930 . S
H930 C938 0.930 . S
H931 C939 0.930 . S
H932 C942 0.930 . S
H933 C943 0.930 . S
C934 H928 0.930 . S
C934 C935 1.355 . S
C934 C936 1.415 . S
C935 C934 1.355 . S
C935 C937 1.419 . S
C936 C934 1.415 . S
C936 C941 1.425 . S
C936 C943 1.409 . S
C937 H929 0.930 . S
C937 C935 1.419 . S
C937 C938 1.362 . S
C938 H930 0.930 . S
C938 C937 1.362 . S
C938 C941 1.409 . S
C939 H931 0.930 . S
C939 C940 1.355 . S
C939 C941 1.415 . S
C940 C939 1.355 . S
C940 C942 1.419 . S
C941 C936 1.425 . S
C941 C938 1.409 . S
C941 C939 1.415 . S
C942 H932 0.930 . S
C942 C940 1.419 . S
C942 C943 1.362 . S
C943 H933 0.930 . S
C943 C936 1.409 . S
C943 C942 1.362 . S
H944 C950 0.930 . S
H945 C953 0.930 . S
H946 C954 0.930 . S
H947 C955 0.930 . S
H948 C958 0.930 . S
H949 C959 0.930 . S
C950 H944 0.930 . S
C950 C951 1.355 . S
C950 C952 1.415 . S
C951 C950 1.355 . S
C951 C953 1.419 . S
C952 C950 1.415 . S
C952 C957 1.425 . S
C952 C959 1.409 . S
C953 H945 0.930 . S
C953 C951 1.419 . S
C953 C954 1.362 . S
C954 H946 0.930 . S
C954 C953 1.362 . S
C954 C957 1.409 . S
C955 H947 0.930 . S
C955 C956 1.355 . S
C955 C957 1.415 . S
C956 C955 1.355 . S
C956 C958 1.419 . S
C957 C952 1.425 . S
C957 C954 1.409 . S
C957 C955 1.415 . S
C958 H948 0.930 . S
C958 C956 1.419 . S
C958 C959 1.362 . S
C959 H949 0.930 . S
C959 C952 1.409 . S
C959 C958 1.362 . S
H960 C966 0.930 . S
H961 C969 0.930 . S
H962 C970 0.930 . S
H963 C971 0.930 . S
H964 C974 0.930 . S
H965 C975 0.930 . S
C966 H960 0.930 . S
C966 C967 1.355 . S
C966 C968 1.415 . S
C967 C966 1.355 . S
C967 C969 1.419 . S
C968 C966 1.415 . S
C968 C973 1.425 . S
C968 C975 1.409 . S
C969 H961 0.930 . S
C969 C967 1.419 . S
C969 C970 1.362 . S
C970 H962 0.930 . S
C970 C969 1.362 . S
C970 C973 1.409 . S
C971 H963 0.930 . S
C971 C972 1.355 . S
C971 C973 1.415 . S
C972 C971 1.355 . S
C972 C974 1.419 . S
C973 C968 1.425 . S
C973 C970 1.409 . S
C973 C971 1.415 . S
C974 H964 0.930 . S
C974 C972 1.419 . S
C974 C975 1.362 . S
C975 H965 0.930 . S
C975 C968 1.409 . S
C975 C974 1.362 . S
H976 C982 0.930 . S
H977 C985 0.930 . S
H978 C986 0.930 . S
H979 C987 0.930 . S
H980 C990 0.930 . S
H981 C991 0.930 . S
C982 H976 0.930 . S
C982 C983 1.355 . S
C982 C984 1.415 . S
C983 C982 1.355 . S
C983 C985 1.419 . S
C984 C982 1.415 . S
C984 C989 1.425 . S
C984 C991 1.409 . S
C985 H977 0.930 . S
C985 C983 1.419 . S
C985 C986 1.362 . S
C986 H978 0.930 . S
C986 C985 1.362 . S
C986 C989 1.409 . S
C987 H979 0.930 . S
C987 C988 1.355 . S
C987 C989 1.415 . S
C988 C987 1.355 . S
C988 C990 1.419 . S
C989 C984 1.425 . S
C989 C986 1.409 . S
C989 C987 1.415 . S
C990 H980 0.930 . S
C990 C988 1.419 . S
C990 C991 1.362 . S
C991 H981 0.930 . S
C991 C984 1.409 . S
C991 C990 1.362 . S
H992 C998 0.930 . S
H993 C1001 0.930 . S
H994 C1002 0.930 . S
H995 C1003 0.930 . S
H996 C1006 0.930 . S
H997 C1007 0.930 . S
C998 H992 0.930 . S
C998 C999 1.355 . S
C998 C1000 1.415 . S
C999 C998 1.355 . S
C999 C1001 1.419 . S
C1000 C998 1.415 . S
C1000 C1005 1.425 . S
C1000 C1007 1.409 . S
C1001 H993 0.930 . S
C1001 C999 1.419 . S
C1001 C1002 1.362 . S
C1002 H994 0.930 . S
C1002 C1001 1.362 . S
C1002 C1005 1.409 . S
C1003 H995 0.930 . S
C1003 C1004 1.355 . S
C1003 C1005 1.415 . S
C1004 C1003 1.355 . S
C1004 C1006 1.419 . S
C1005 C1000 1.425 . S
C1005 C1002 1.409 . S
C1005 C1003 1.415 . S
C1006 H996 0.930 . S
C1006 C1004 1.419 . S
C1006 C1007 1.362 . S
C1007 H997 0.930 . S
C1007 C1000 1.409 . S
C1007 C1006 1.362 . S
H1008 C1014 0.930 . S
H1009 C1017 0.930 . S
H1010 C1018 0.930 . S
H1011 C1019 0.930 . S
H1012 C1022 0.930 . S
H1013 C1023 0.930 . S
C1014 H1008 0.930 . S
C1014 C1015 1.355 . S
C1014 C1016 1.415 . S
C1015 C1014 1.355 . S
C1015 C1017 1.419 . S
C1016 C1014 1.415 . S
C1016 C1021 1.425 . S
C1016 C1023 1.409 . S
C1017 H1009 0.930 . S
C1017 C1015 1.419 . S
C1017 C1018 1.362 . S
C1018 H1010 0.930 . S
C1018 C1017 1.362 . S
C1018 C1021 1.409 . S
C1019 H1011 0.930 . S
C1019 C1020 1.355 . S
C1019 C1021 1.415 . S
C1020 C1019 1.355 . S
C1020 C1022 1.419 . S
C1021 C1016 1.425 . S
C1021 C1018 1.409 . S
C1021 C1019 1.415 . S
C1022 H1012 0.930 . S
C1022 C1020 1.419 . S
C1022 C1023 1.362 . S
C1023 H1013 0.930 . S
C1023 C1016 1.409 . S
C1023 C1022 1.362 . S
H1024 C1030 0.930 . S
H1025 C1033 0.930 . S
H1026 C1034 0.930 . S
H1027 C1035 0.930 . S
H1028 C1038 0.930 . S
H1029 C1039 0.930 . S
C1030 H1024 0.930 . S
C1030 C1031 1.355 . S
C1030 C1032 1.415 . S
C1031 C1030 1.355 . S
C1031 C1033 1.419 . S
C1032 C1030 1.415 . S
C1032 C1037 1.425 . S
C1032 C1039 1.409 . S
C1033 H1025 0.930 . S
C1033 C1031 1.419 . S
C1033 C1034 1.362 . S
C1034 H1026 0.930 . S
C1034 C1033 1.362 . S
C1034 C1037 1.409 . S
C1035 H1027 0.930 . S
C1035 C1036 1.355 . S
C1035 C1037 1.415 . S
C1036 C1035 1.355 . S
C1036 C1038 1.419 . S
C1037 C1032 1.425 . S
C1037 C1034 1.409 . S
C1037 C1035 1.415 . S
C1038 H1028 0.930 . S
C1038 C1036 1.419 . S
C1038 C1039 1.362 . S
C1039 H1029 0.930 . S
C1039 C1032 1.409 . S
C1039 C1038 1.362 . S
H1040 C1046 0.930 . S
H1041 C1049 0.930 . S
H1042 C1050 0.930 . S
H1043 C1051 0.930 . S
H1044 C1054 0.930 . S
H1045 C1055 0.930 . S
C1046 H1040 0.930 . S
C1046 C1047 1.355 . S
C1046 C1048 1.415 . S
C1047 C1046 1.355 . S
C1047 C1049 1.419 . S
C1048 C1046 1.415 . S
C1048 C1053 1.425 . S
C1048 C1055 1.409 . S
C1049 H1041 0.930 . S
C1049 C1047 1.419 . S
C1049 C1050 1.362 . S
C1050 H1042 0.930 . S
C1050 C1049 1.362 . S
C1050 C1053 1.409 . S
C1051 H1043 0.930 . S
C1051 C1052 1.355 . S
C1051 C1053 1.415 . S
C1052 C1051 1.355 . S
C1052 C1054 1.419 . S
C1053 C1048 1.425 . S
C1053 C1050 1.409 . S
C1053 C1051 1.415 . S
C1054 H1044 0.930 . S
C1054 C1052 1.419 . S
C1054 C1055 1.362 . S
C1055 H1045 0.930 . S
C1055 C1048 1.409 . S
C1055 C1054 1.362 . S
H1056 C1062 0.930 . S
H1057 C1065 0.930 . S
H1058 C1066 0.930 . S
H1059 C1067 0.930 . S
H1060 C1070 0.930 . S
H1061 C1071 0.930 . S
C1062 H1056 0.930 . S
C1062 C1063 1.355 . S
C1062 C1064 1.415 . S
C1063 C1062 1.355 . S
C1063 C1065 1.419 . S
C1064 C1062 1.415 . S
C1064 C1069 1.425 . S
C1064 C1071 1.409 . S
C1065 H1057 0.930 . S
C1065 C1063 1.419 . S
C1065 C1066 1.362 . S
C1066 H1058 0.930 . S
C1066 C1065 1.362 . S
C1066 C1069 1.409 . S
C1067 H1059 0.930 . S
C1067 C1068 1.355 . S
C1067 C1069 1.415 . S
C1068 C1067 1.355 . S
C1068 C1070 1.419 . S
C1069 C1064 1.425 . S
C1069 C1066 1.409 . S
C1069 C1067 1.415 . S
C1070 H1060 0.930 . S
C1070 C1068 1.419 . S
C1070 C1071 1.362 . S
C1071 H1061 0.930 . S
C1071 C1064 1.409 . S
C1071 C1070 1.362 . S
H1072 C1078 0.930 . S
H1073 C1081 0.930 . S
H1074 C1082 0.930 . S
H1075 C1083 0.930 . S
H1076 C1086 0.930 . S
H1077 C1087 0.930 . S
C1078 H1072 0.930 . S
C1078 C1079 1.355 . S
C1078 C1080 1.415 . S
C1079 C1078 1.355 . S
C1079 C1081 1.419 . S
C1080 C1078 1.415 . S
C1080 C1085 1.425 . S
C1080 C1087 1.409 . S
C1081 H1073 0.930 . S
C1081 C1079 1.419 . S
C1081 C1082 1.362 . S
C1082 H1074 0.930 . S
C1082 C1081 1.362 . S
C1082 C1085 1.409 . S
C1083 H1075 0.930 . S
C1083 C1084 1.355 . S
C1083 C1085 1.415 . S
C1084 C1083 1.355 . S
C1084 C1086 1.419 . S
C1085 C1080 1.425 . S
C1085 C1082 1.409 . S
C1085 C1083 1.415 . S
C1086 H1076 0.930 . S
C1086 C1084 1.419 . S
C1086 C1087 1.362 . S
C1087 H1077 0.930 . S
C1087 C1080 1.409 . S
C1087 C1086 1.362 . S
H1088 C1094 0.930 . S
H1089 C1097 0.930 . S
H1090 C1098 0.930 . S
H1091 C1099 0.930 . S
H1092 C1102 0.930 . S
H1093 C1103 0.930 . S
C1094 H1088 0.930 . S
C1094 C1095 1.355 . S
C1094 C1096 1.415 . S
C1095 C1094 1.355 . S
C1095 C1097 1.419 . S
C1096 C1094 1.415 . S
C1096 C1101 1.425 . S
C1096 C1103 1.409 . S
C1097 H1089 0.930 . S
C1097 C1095 1.419 . S
C1097 C1098 1.362 . S
C1098 H1090 0.930 . S
C1098 C1097 1.362 . S
C1098 C1101 1.409 . S
C1099 H1091 0.930 . S
C1099 C1100 1.355 . S
C1099 C1101 1.415 . S
C1100 C1099 1.355 . S
C1100 C1102 1.419 . S
C1101 C1096 1.425 . S
C1101 C1098 1.409 . S
C1101 C1099 1.415 . S
C1102 H1092 0.930 . S
C1102 C1100 1.419 . S
C1102 C1103 1.362 . S
C1103 H1093 0.930 . S
C1103 C1096 1.409 . S
C1103 C1102 1.362 . S
H1104 C1110 0.930 . S
H1105 C1113 0.930 . S
H1106 C1114 0.930 . S
H1107 C1115 0.930 . S
H1108 C1118 0.930 . S
H1109 C1119 0.930 . S
C1110 H1104 0.930 . S
C1110 C1111 1.355 . S
C1110 C1112 1.415 . S
C1111 C1110 1.355 . S
C1111 C1113 1.419 . S
C1112 C1110 1.415 . S
C1112 C1117 1.425 . S
C1112 C1119 1.409 . S
C1113 H1105 0.930 . S
C1113 C1111 1.419 . S
C1113 C1114 1.362 . S
C1114 H1106 0.930 . S
C1114 C1113 1.362 . S
C1114 C1117 1.409 . S
C1115 H1107 0.930 . S
C1115 C1116 1.355 . S
C1115 C1117 1.415 . S
C1116 C1115 1.355 . S
C1116 C1118 1.419 . S
C1117 C1112 1.425 . S
C1117 C1114 1.409 . S
C1117 C1115 1.415 . S
C1118 H1108 0.930 . S
C1118 C1116 1.419 . S
C1118 C1119 1.362 . S
C1119 H1109 0.930 . S
C1119 C1112 1.409 . S
C1119 C1118 1.362 . S
H1120 C1126 0.930 . S
H1121 C1129 0.930 . S
H1122 C1130 0.930 . S
H1123 C1131 0.930 . S
H1124 C1134 0.930 . S
H1125 C1135 0.930 . S
C1126 H1120 0.930 . S
C1126 C1127 1.355 . S
C1126 C1128 1.415 . S
C1127 C1126 1.355 . S
C1127 C1129 1.419 . S
C1128 C1126 1.415 . S
C1128 C1133 1.425 . S
C1128 C1135 1.409 . S
C1129 H1121 0.930 . S
C1129 C1127 1.419 . S
C1129 C1130 1.362 . S
C1130 H1122 0.930 . S
C1130 C1129 1.362 . S
C1130 C1133 1.409 . S
C1131 H1123 0.930 . S
C1131 C1132 1.355 . S
C1131 C1133 1.415 . S
C1132 C1131 1.355 . S
C1132 C1134 1.419 . S
C1133 C1128 1.425 . S
C1133 C1130 1.409 . S
C1133 C1131 1.415 . S
C1134 H1124 0.930 . S
C1134 C1132 1.419 . S
C1134 C1135 1.362 . S
C1135 H1125 0.930 . S
C1135 C1128 1.409 . S
C1135 C1134 1.362 . S
H1136 C1142 0.930 . S
H1137 C1145 0.930 . S
H1138 C1146 0.930 . S
H1139 C1147 0.930 . S
H1140 C1150 0.930 . S
H1141 C1151 0.930 . S
C1142 H1136 0.930 . S
C1142 C1143 1.355 . S
C1142 C1144 1.415 . S
C1143 C1142 1.355 . S
C1143 C1145 1.419 . S
C1144 C1142 1.415 . S
C1144 C1149 1.425 . S
C1144 C1151 1.409 . S
C1145 H1137 0.930 . S
C1145 C1143 1.419 . S
C1145 C1146 1.362 . S
C1146 H1138 0.930 . S
C1146 C1145 1.362 . S
C1146 C1149 1.409 . S
C1147 H1139 0.930 . S
C1147 C1148 1.355 . S
C1147 C1149 1.415 . S
C1148 C1147 1.355 . S
C1148 C1150 1.419 . S
C1149 C1144 1.425 . S
C1149 C1146 1.409 . S
C1149 C1147 1.415 . S
C1150 H1140 0.930 . S
C1150 C1148 1.419 . S
C1150 C1151 1.362 . S
C1151 H1141 0.930 . S
C1151 C1144 1.409 . S
C1151 C1150 1.362 . S
H1152 C1158 0.930 . S
H1153 C1161 0.930 . S
H1154 C1162 0.930 . S
H1155 C1163 0.930 . S
H1156 C1166 0.930 . S
H1157 C1167 0.930 . S
C1158 H1152 0.930 . S
C1158 C1159 1.355 . S
C1158 C1160 1.415 . S
C1159 C1158 1.355 . S
C1159 C1161 1.419 . S
C1160 C1158 1.415 . S
C1160 C1165 1.425 . S
C1160 C1167 1.409 . S
C1161 H1153 0.930 . S
C1161 C1159 1.419 . S
C1161 C1162 1.362 . S
C1162 H1154 0.930 . S
C1162 C1161 1.362 . S
C1162 C1165 1.409 . S
C1163 H1155 0.930 . S
C1163 C1164 1.355 . S
C1163 C1165 1.415 . S
C1164 C1163 1.355 . S
C1164 C1166 1.419 . S
C1165 C1160 1.425 . S
C1165 C1162 1.409 . S
C1165 C1163 1.415 . S
C1166 H1156 0.930 . S
C1166 C1164 1.419 . S
C1166 C1167 1.362 . S
C1167 H1157 0.930 . S
C1167 C1160 1.409 . S
C1167 C1166 1.362 . S
H1168 C1174 0.930 . S
H1169 C1177 0.930 . S
H1170 C1178 0.930 . S
H1171 C1179 0.930 . S
H1172 C1182 0.930 . S
H1173 C1183 0.930 . S
C1174 H1168 0.930 . S
C1174 C1175 1.355 . S
C1174 C1176 1.415 . S
C1175 C1174 1.355 . S
C1175 C1177 1.419 . S
C1176 C1174 1.415 . S
C1176 C1181 1.425 . S
C1176 C1183 1.409 . S
C1177 H1169 0.930 . S
C1177 C1175 1.419 . S
C1177 C1178 1.362 . S
C1178 H1170 0.930 . S
C1178 C1177 1.362 . S
C1178 C1181 1.409 . S
C1179 H1171 0.930 . S
C1179 C1180 1.355 . S
C1179 C1181 1.415 . S
C1180 C1179 1.355 . S
C1180 C1182 1.419 . S
C1181 C1176 1.425 . S
C1181 C1178 1.409 . S
C1181 C1179 1.415 . S
C1182 H1172 0.930 . S
C1182 C1180 1.419 . S
C1182 C1183 1.362 . S
C1183 H1173 0.930 . S
C1183 C1176 1.409 . S
C1183 C1182 1.362 . S
H1184 C1190 0.930 . S
H1185 C1193 0.930 . S
H1186 C1194 0.930 . S
H1187 C1195 0.930 . S
H1188 C1198 0.930 . S
H1189 C1199 0.930 . S
C1190 H1184 0.930 . S
C1190 C1191 1.355 . S
C1190 C1192 1.415 . S
C1191 C1190 1.355 . S
C1191 C1193 1.419 . S
C1192 C1190 1.415 . S
C1192 C1197 1.425 . S
C1192 C1199 1.409 . S
C1193 H1185 0.930 . S
C1193 C1191 1.419 . S
C1193 C1194 1.362 . S
C1194 H1186 0.930 . S
C1194 C1193 1.362 . S
C1194 C1197 1.409 . S
C1195 H1187 0.930 . S
C1195 C1196 1.355 . S
C1195 C1197 1.415 . S
C1196 C1195 1.355 . S
C1196 C1198 1.419 . S
C1197 C1192 1.425 . S
C1197 C1194 1.409 . S
C1197 C1195 1.415 . S
C1198 H1188 0.930 . S
C1198 C1196 1.419 . S
C1198 C1199 1.362 . S
C1199 H1189 0.930 . S
C1199 C1192 1.409 . S
C1199 C1198 1.362 . S
H1200 C1206 0.930 . S
H1201 C1209 0.930 . S
H1202 C1210 0.930 . S
H1203 C1211 0.930 . S
H1204 C1214 0.930 . S
H1205 C1215 0.930 . S
C1206 H1200 0.930 . S
C1206 C1207 1.355 . S
C1206 C1208 1.415 . S
C1207 C1206 1.355 . S
C1207 C1209 1.419 . S
C1208 C1206 1.415 . S
C1208 C1213 1.425 . S
C1208 C1215 1.409 . S
C1209 H1201 0.930 . S
C1209 C1207 1.419 . S
C1209 C1210 1.362 . S
C1210 H1202 0.930 . S
C1210 C1209 1.362 . S
C1210 C1213 1.409 . S
C1211 H1203 0.930 . S
C1211 C1212 1.355 . S
C1211 C1213 1.415 . S
C1212 C1211 1.355 . S
C1212 C1214 1.419 . S
C1213 C1208 1.425 . S
C1213 C1210 1.409 . S
C1213 C1211 1.415 . S
C1214 H1204 0.930 . S
C1214 C1212 1.419 . S
C1214 C1215 1.362 . S
C1215 H1205 0.930 . S
C1215 C1208 1.409 . S
C1215 C1214 1.362 . S
H1216 C1222 0.930 . S
H1217 C1225 0.930 . S
H1218 C1226 0.930 . S
H1219 C1227 0.930 . S
H1220 C1230 0.930 . S
H1221 C1231 0.930 . S
C1222 H1216 0.930 . S
C1222 C1223 1.355 . S
C1222 C1224 1.415 . S
C1223 C1222 1.355 . S
C1223 C1225 1.419 . S
C1224 C1222 1.415 . S
C1224 C1229 1.425 . S
C1224 C1231 1.409 . S
C1225 H1217 0.930 . S
C1225 C1223 1.419 . S
C1225 C1226 1.362 . S
C1226 H1218 0.930 . S
C1226 C1225 1.362 . S
C1226 C1229 1.409 . S
C1227 H1219 0.930 . S
C1227 C1228 1.355 . S
C1227 C1229 1.415 . S
C1228 C1227 1.355 . S
C1228 C1230 1.419 . S
C1229 C1224 1.425 . S
C1229 C1226 1.409 . S
C1229 C1227 1.415 . S
C1230 H1220 0.930 . S
C1230 C1228 1.419 . S
C1230 C1231 1.362 . S
C1231 H1221 0.930 . S
C1231 C1224 1.409 . S
C1231 C1230 1.362 . S
H1232 C1238 0.930 . S
H1233 C1241 0.930 . S
H1234 C1242 0.930 . S
H1235 C1243 0.930 . S
H1236 C1246 0.930 . S
H1237 C1247 0.930 . S
C1238 H1232 0.930 . S
C1238 C1239 1.355 . S
C1238 C1240 1.415 . S
C1239 C1238 1.355 . S
C1239 C1241 1.419 . S
C1240 C1238 1.415 . S
C1240 C1245 1.425 . S
C1240 C1247 1.409 . S
C1241 H1233 0.930 . S
C1241 C1239 1.419 . S
C1241 C1242 1.362 . S
C1242 H1234 0.930 . S
C1242 C1241 1.362 . S
C1242 C1245 1.409 . S
C1243 H1235 0.930 . S
C1243 C1244 1.355 . S
C1243 C1245 1.415 . S
C1244 C1243 1.355 . S
C1244 C1246 1.419 . S
C1245 C1240 1.425 . S
C1245 C1242 1.409 . S
C1245 C1243 1.415 . S
C1246 H1236 0.930 . S
C1246 C1244 1.419 . S
C1246 C1247 1.362 . S
C1247 H1237 0.930 . S
C1247 C1240 1.409 . S
C1247 C1246 1.362 . S
H1248 C1254 0.930 . S
H1249 C1257 0.930 . S
H1250 C1258 0.930 . S
H1251 C1259 0.930 . S
H1252 C1262 0.930 . S
H1253 C1263 0.930 . S
C1254 H1248 0.930 . S
C1254 C1255 1.355 . S
C1254 C1256 1.415 . S
C1255 C1254 1.355 . S
C1255 C1257 1.419 . S
C1256 C1254 1.415 . S
C1256 C1261 1.425 . S
C1256 C1263 1.409 . S
C1257 H1249 0.930 . S
C1257 C1255 1.419 . S
C1257 C1258 1.362 . S
C1258 H1250 0.930 . S
C1258 C1257 1.362 . S
C1258 C1261 1.409 . S
C1259 H1251 0.930 . S
C1259 C1260 1.355 . S
C1259 C1261 1.415 . S
C1260 C1259 1.355 . S
C1260 C1262 1.419 . S
C1261 C1256 1.425 . S
C1261 C1258 1.409 . S
C1261 C1259 1.415 . S
C1262 H1252 0.930 . S
C1262 C1260 1.419 . S
C1262 C1263 1.362 . S
C1263 H1253 0.930 . S
C1263 C1256 1.409 . S
C1263 C1262 1.362 . S
H1264 C1270 0.930 . S
H1265 C1273 0.930 . S
H1266 C1274 0.930 . S
H1267 C1275 0.930 . S
H1268 C1278 0.930 . S
H1269 C1279 0.930 . S
C1270 H1264 0.930 . S
C1270 C1271 1.355 . S
C1270 C1272 1.415 . S
C1271 C1270 1.355 . S
C1271 C1273 1.419 . S
C1272 C1270 1.415 . S
C1272 C1277 1.425 . S
C1272 C1279 1.409 . S
C1273 H1265 0.930 . S
C1273 C1271 1.419 . S
C1273 C1274 1.362 . S
C1274 H1266 0.930 . S
C1274 C1273 1.362 . S
C1274 C1277 1.409 . S
C1275 H1267 0.930 . S
C1275 C1276 1.355 . S
C1275 C1277 1.415 . S
C1276 C1275 1.355 . S
C1276 C1278 1.419 . S
C1277 C1272 1.425 . S
C1277 C1274 1.409 . S
C1277 C1275 1.415 . S
C1278 H1268 0.930 . S
C1278 C1276 1.419 . S
C1278 C1279 1.362 . S
C1279 H1269 0.930 . S
C1279 C1272 1.409 . S
C1279 C1278 1.362 . S
H1280 C1286 0.930 . S
H1281 C1289 0.930 . S
H1282 C1290 0.930 . S
H1283 C1291 0.930 . S
H1284 C1294 0.930 . S
H1285 C1295 0.930 . S
C1286 H1280 0.930 . S
C1286 C1287 1.355 . S
C1286 C1288 1.415 . S
C1287 C1286 1.355 . S
C1287 C1289 1.419 . S
C1288 C1286 1.415 . S
C1288 C1293 1.425 . S
C1288 C1295 1.409 . S
C1289 H1281 0.930 . S
C1289 C1287 1.419 . S
C1289 C1290 1.362 . S
C1290 H1282 0.930 . S
C1290 C1289 1.362 . S
C1290 C1293 1.409 . S
C1291 H1283 0.930 . S
C1291 C1292 1.355 . S
C1291 C1293 1.415 . S
C1292 C1291 1.355 . S
C1292 C1294 1.419 . S
C1293 C1288 1.425 . S
C1293 C1290 1.409 . S
C1293 C1291 1.415 . S
C1294 H1284 0.930 . S
C1294 C1292 1.419 . S
C1294 C1295 1.362 . S
C1295 H1285 0.930 . S
C1295 C1288 1.409 . S
C1295 C1294 1.362 . S
H1296 C1302 0.930 . S
H1297 C1305 0.930 . S
H1298 C1306 0.930 . S
H1299 C1307 0.930 . S
H1300 C1310 0.930 . S
H1301 C1311 0.930 . S
C1302 H1296 0.930 . S
C1302 C1303 1.355 . S
C1302 C1304 1.415 . S
C1303 C1302 1.355 . S
C1303 C1305 1.419 . S
C1304 C1302 1.415 . S
C1304 C1309 1.425 . S
C1304 C1311 1.409 . S
C1305 H1297 0.930 . S
C1305 C1303 1.419 . S
C1305 C1306 1.362 . S
C1306 H1298 0.930 . S
C1306 C1305 1.362 . S
C1306 C1309 1.409 . S
C1307 H1299 0.930 . S
C1307 C1308 1.355 . S
C1307 C1309 1.415 . S
C1308 C1307 1.355 . S
C1308 C1310 1.419 . S
C1309 C1304 1.425 . S
C1309 C1306 1.409 . S
C1309 C1307 1.415 . S
C1310 H1300 0.930 . S
C1310 C1308 1.419 . S
C1310 C1311 1.362 . S
C1311 H1301 0.930 . S
C1311 C1304 1.409 . S
C1311 C1310 1.362 . S
H1312 C1318 0.930 . S
H1313 C1321 0.930 . S
H1314 C1322 0.930 . S
H1315 C1323 0.930 . S
H1316 C1326 0.930 . S
H1317 C1327 0.930 . S
C1318 H1312 0.930 . S
C1318 C1319 1.355 . S
C1318 C1320 1.415 . S
C1319 C1318 1.355 . S
C1319 C1321 1.419 . S
C1320 C1318 1.415 . S
C1320 C1325 1.425 . S
C1320 C1327 1.409 . S
C1321 H1313 0.930 . S
C1321 C1319 1.419 . S
C1321 C1322 1.362 . S
C1322 H1314 0.930 . S
C1322 C1321 1.362 . S
C1322 C1325 1.409 . S
C1323 H1315 0.930 . S
C1323 C1324 1.355 . S
C1323 C1325 1.415 . S
C1324 C1323 1.355 . S
C1324 C1326 1.419 . S
C1325 C1320 1.425 . S
C1325 C1322 1.409 . S
C1325 C1323 1.415 . S
C1326 H1316 0.930 . S
C1326 C1324 1.419 . S
C1326 C1327 1.362 . S
C1327 H1317 0.930 . S
C1327 C1320 1.409 . S
C1327 C1326 1.362 . S
H1328 C1334 0.930 . S
H1329 C1337 0.930 . S
H1330 C1338 0.930 . S
H1331 C1339 0.930 . S
H1332 C1342 0.930 . S
H1333 C1343 0.930 . S
C1334 H1328 0.930 . S
C1334 C1335 1.355 . S
C1334 C1336 1.415 . S
C1335 C1334 1.355 . S
C1335 C1337 1.419 . S
C1336 C1334 1.415 . S
C1336 C1341 1.425 . S
C1336 C1343 1.409 . S
C1337 H1329 0.930 . S
C1337 C1335 1.419 . S
C1337 C1338 1.362 . S
C1338 H1330 0.930 . S
C1338 C1337 1.362 . S
C1338 C1341 1.409 . S
C1339 H1331 0.930 . S
C1339 C1340 1.355 . S
C1339 C1341 1.415 . S
C1340 C1339 1.355 . S
C1340 C1342 1.419 . S
C1341 C1336 1.425 . S
C1341 C1338 1.409 . S
C1341 C1339 1.415 . S
C1342 H1332 0.930 . S
C1342 C1340 1.419 . S
C1342 C1343 1.362 . S
C1343 H1333 0.930 . S
C1343 C1336 1.409 . S
C1343 C1342 1.362 . S
H1344 C1350 0.930 . S
H1345 C1353 0.930 . S
H1346 C1354 0.930 . S
H1347 C1355 0.930 . S
H1348 C1358 0.930 . S
H1349 C1359 0.930 . S
C1350 H1344 0.930 . S
C1350 C1351 1.355 . S
C1350 C1352 1.415 . S
C1351 C1350 1.355 . S
C1351 C1353 1.419 . S
C1352 C1350 1.415 . S
C1352 C1357 1.425 . S
C1352 C1359 1.409 . S
C1353 H1345 0.930 . S
C1353 C1351 1.419 . S
C1353 C1354 1.362 . S
C1354 H1346 0.930 . S
C1354 C1353 1.362 . S
C1354 C1357 1.409 . S
C1355 H1347 0.930 . S
C1355 C1356 1.355 . S
C1355 C1357 1.415 . S
C1356 C1355 1.355 . S
C1356 C1358 1.419 . S
C1357 C1352 1.425 . S
C1357 C1354 1.409 . S
C1357 C1355 1.415 . S
C1358 H1348 0.930 . S
C1358 C1356 1.419 . S
C1358 C1359 1.362 . S
C1359 H1349 0.930 . S
C1359 C1352 1.409 . S
C1359 C1358 1.362 . S
H1360 C1366 0.930 . S
H1361 C1369 0.930 . S
H1362 C1370 0.930 . S
H1363 C1371 0.930 . S
H1364 C1374 0.930 . S
H1365 C1375 0.930 . S
C1366 H1360 0.930 . S
C1366 C1367 1.355 . S
C1366 C1368 1.415 . S
C1367 C1366 1.355 . S
C1367 C1369 1.419 . S
C1368 C1366 1.415 . S
C1368 C1373 1.425 . S
C1368 C1375 1.409 . S
C1369 H1361 0.930 . S
C1369 C1367 1.419 . S
C1369 C1370 1.362 . S
C1370 H1362 0.930 . S
C1370 C1369 1.362 . S
C1370 C1373 1.409 . S
C1371 H1363 0.930 . S
C1371 C1372 1.355 . S
C1371 C1373 1.415 . S
C1372 C1371 1.355 . S
C1372 C1374 1.419 . S
C1373 C1368 1.425 . S
C1373 C1370 1.409 . S
C1373 C1371 1.415 . S
C1374 H1364 0.930 . S
C1374 C1372 1.419 . S
C1374 C1375 1.362 . S
C1375 H1365 0.930 . S
C1375 C1368 1.409 . S
C1375 C1374 1.362 . S
H1376 C1382 0.930 . S
H1377 C1385 0.930 . S
H1378 C1386 0.930 . S
H1379 C1387 0.930 . S
H1380 C1390 0.930 . S
H1381 C1391 0.930 . S
C1382 H1376 0.930 . S
C1382 C1383 1.355 . S
C1382 C1384 1.415 . S
C1383 C1382 1.355 . S
C1383 C1385 1.419 . S
C1384 C1382 1.415 . S
C1384 C1389 1.425 . S
C1384 C1391 1.409 . S
C1385 H1377 0.930 . S
C1385 C1383 1.419 . S
C1385 C1386 1.362 . S
C1386 H1378 0.930 . S
C1386 C1385 1.362 . S
C1386 C1389 1.409 . S
C1387 H1379 0.930 . S
C1387 C1388 1.355 . S
C1387 C1389 1.415 . S
C1388 C1387 1.355 . S
C1388 C1390 1.419 . S
C1389 C1384 1.425 . S
C1389 C1386 1.409 . S
C1389 C1387 1.415 . S
C1390 H1380 0.930 . S
C1390 C1388 1.419 . S
C1390 C1391 1.362 . S
C1391 H1381 0.930 . S
C1391 C1384 1.409 . S
C1391 C1390 1.362 . S
H1392 C1398 0.930 . S
H1393 C1401 0.930 . S
H1394 C1402 0.930 . S
H1395 C1403 0.930 . S
H1396 C1406 0.930 . S
H1397 C1407 0.930 . S
C1398 H1392 0.930 . S
C1398 C1399 1.355 . S
C1398 C1400 1.415 . S
C1399 C1398 1.355 . S
C1399 C1401 1.419 . S
C1400 C1398 1.415 . S
C1400 C1405 1.425 . S
C1400 C1407 1.409 . S
C1401 H1393 0.930 . S
C1401 C1399 1.419 . S
C1401 C1402 1.362 . S
C1402 H1394 0.930 . S
C1402 C1401 1.362 . S
C1402 C1405 1.409 . S
C1403 H1395 0.930 . S
C1403 C1404 1.355 . S
C1403 C1405 1.415 . S
C1404 C1403 1.355 . S
C1404 C1406 1.419 . S
C1405 C1400 1.425 . S
C1405 C1402 1.409 . S
C1405 C1403 1.415 . S
C1406 H1396 0.930 . S
C1406 C1404 1.419 . S
C1406 C1407 1.362 . S
C1407 H1397 0.930 . S
C1407 C1400 1.409 . S
C1407 C1406 1.362 . S
C647 C129 3.595 . S
C652 C8 3.616 . S
C663 C19 3.032 . S
C668 C49 3.044 . S
C679 C98 1.129 . S
C684 C58 1.139 . S
C695 C135 0.597 . S
C700 C95 0.599 . S
C711 C179 0.340 . S
C716 C215 0.272 . S
C727 C218 1.154 . S
C732 C248 1.246 . S
C743 C245 0.580 . S
C748 C295 0.646 . S
C759 C165 0.875 . S
C764 C298 0.911 . S
C775 C369 3.317 . S
C780 C5 3.305 . S
C791 C419 0.701 . S
C796 C55 0.741 . S
C807 C89 3.035 . S
C812 C529 3.007 . S
C823 C328 1.106 . S
C828 C138 1.197 . S
C839 C458 1.154 . S
C844 C168 1.171 . S
C855 C565 3.308 . S
C860 C209 3.309 . S
C871 C259 0.835 . S
C876 C495 0.782 . S
C887 C609 3.045 . S
C892 C289 2.983 . S
C903 C325 0.922 . S
C908 C538 0.890 . S
C919 C375 0.232 . S
C924 C339 0.280 . S
C935 C408 1.248 . S
C940 C378 1.147 . S
C951 C568 3.623 . S
C956 C449 3.605 . S
C967 C498 1.087 . S
C972 C618 1.167 . S
C983 C459 3.612 . S
C988 C18 3.629 . S
C999 C499 3.048 . S
C1004 C9 3.024 . S
C1015 C488 1.175 . S
C1020 C88 1.148 . S
C1031 C85 0.596 . S
C1036 C445 0.595 . S
C1047 C365 0.311 . S
C1052 C169 0.495 . S
C1063 C368 1.134 . S
C1068 C258 1.250 . S
C1079 C525 0.512 . S
C1084 C255 0.532 . S
C1095 C175 0.906 . S
C1100 C528 0.874 . S
C1111 C219 3.315 . S
C1116 C15 3.285 . S
C1127 C409 0.830 . S
C1132 C485 0.776 . S
C1143 C99 3.031 . S
C1148 C299 2.985 . S
C1159 C338 1.188 . S
C1164 C448 1.169 . S
C1175 C128 1.157 . S
C1180 C178 1.162 . S
C1191 C379 3.310 . S
C1196 C575 3.308 . S
C1207 C249 0.854 . S
C1212 C45 0.838 . S
C1223 C619 3.043 . S
C1228 C539 2.978 . S
C1239 C335 0.839 . S
C1244 C288 0.841 . S
C1255 C329 0.489 . S
C1260 C205 0.313 . S
C1271 C418 1.216 . S
C1276 C208 1.233 . S
C1287 C139 3.599 . S
C1292 C578 3.619 . S
C1303 C48 1.172 . S
C1308 C608 1.152 . S
C1319 C489 3.053 . S
C1324 C579 3.017 . S
C1335 C455 0.629 . S
C1340 C615 0.627 . S
C1351 C405 0.525 . S
C1356 C535 0.609 . S
C1367 C569 3.040 . S
C1372 C59 3.037 . S
C1383 C125 0.654 . S
C1388 C605 0.657 . S
C1399 C285 0.567 . S
C1404 C415 0.566 . S
