# Generated by pormake.
# Topology wlj, (5)-cn, num edge types: 1
# Building blocks:
#     Node 0, Type 0, BuildingBlock: BEQFEK_clean_sbu_0, # of connection points: 5
#     Node 1, Type 0, BuildingBlock: BEQFEK_clean_sbu_0, # of connection points: 5
#     Node 2, Type 0, BuildingBlock: BEQFEK_clean_sbu_0, # of connection points: 5
#     Node 3, Type 0, BuildingBlock: BEQFEK_clean_sbu_0, # of connection points: 5
#     Node 4, Type 0, BuildingBlock: BEQFEK_clean_sbu_0, # of connection points: 5
#     Node 5, Type 0, BuildingBlock: BEQFEK_clean_sbu_0, # of connection points: 5
#     Edge 6, Type (0, 0), BuildingBlock: FUNLAD_clean_linker_1, # of connection points: 2
#     Edge 7, Type (0, 0), BuildingBlock: FUNLAD_clean_linker_1, # of connection points: 2
#     Edge 8, Type (0, 0), BuildingBlock: FUNLAD_clean_linker_1, # of connection points: 2
#     Edge 9, Type (0, 0), BuildingBlock: FUNLAD_clean_linker_1, # of connection points: 2
#     Edge 10, Type (0, 0), BuildingBlock: FUNLAD_clean_linker_1, # of connection points: 2
#     Edge 11, Type (0, 0), BuildingBlock: FUNLAD_clean_linker_1, # of connection points: 2
#     Edge 12, Type (0, 0), BuildingBlock: FUNLAD_clean_linker_1, # of connection points: 2
#     Edge 13, Type (0, 0), BuildingBlock: FUNLAD_clean_linker_1, # of connection points: 2
#     Edge 14, Type (0, 0), BuildingBlock: FUNLAD_clean_linker_1, # of connection points: 2
#     Edge 15, Type (0, 0), BuildingBlock: FUNLAD_clean_linker_1, # of connection points: 2
#     Edge 16, Type (0, 0), BuildingBlock: FUNLAD_clean_linker_1, # of connection points: 2
#     Edge 17, Type (0, 0), BuildingBlock: FUNLAD_clean_linker_1, # of connection points: 2
#     Edge 18, Type (0, 0), BuildingBlock: FUNLAD_clean_linker_1, # of connection points: 2
#     Edge 19, Type (0, 0), BuildingBlock: FUNLAD_clean_linker_1, # of connection points: 2
#     Edge 20, Type (0, 0), BuildingBlock: FUNLAD_clean_linker_1, # of connection points: 2
# Relax obj value: 0.045
# Max RMSD: 0.094
# Mean RMSD: 0.094
data_MOF--net-wlj--node1-BEQFEK_clean_sbu_0--edge1-FUNLAD_clean_linker_1
_symmetry_space_group_name_H-M    P1
_symmetry_Int_Tables_number       1
_symmetry_cell_setting            triclinic
loop_
_symmetry_equiv_pos_as_xyz
'x, y, z'
_cell_length_a     24.600698
_cell_length_b     24.700749
_cell_length_c     70.528178
_cell_angle_alpha  89.7108
_cell_angle_beta   90.177408
_cell_angle_gamma 120.08454
loop_
_atom_site_label
_atom_site_type_symbol
_atom_site_fract_x
_atom_site_fract_y
_atom_site_fract_z
_atom_type_partial_charge
Co0 Co 0.47458 0.31891 0.22475 0.0
Co1 Co 0.54314 0.27478 0.25343 0.0
C2 C 0.44713 0.1862 0.22539 0.0
O3 O 0.43783 0.22877 0.21855 0.0
O4 O 0.48585 0.19736 0.23891 0.0
C5 C 0.37534 0.3253 0.20403 0.0
O6 O 0.34076 0.26514 0.20751 0.0
C7 C 0.55839 0.20307 0.28481 0.0
C8 C 0.65379 0.27091 0.29493 0.0
C9 C 0.6031 0.21202 0.29849 0.0
N10 N 0.58206 0.2545 0.27373 0.0
N11 N 0.63933 0.29446 0.27974 0.0
C12 C 0.49213 0.15017 0.28344 0.0
H13 H 0.4628 0.16482 0.27538 0.0
H14 H 0.47186 0.13397 0.29779 0.0
H15 H 0.49158 0.11058 0.2759 0.0
C16 C 0.44236 0.35843 0.26066 0.0
N17 N 0.46947 0.33106 0.2511 0.0
N18 N 0.49832 0.31319 0.26321 0.0
C19 C 0.49047 0.3288 0.2809 0.0
C20 C 0.45516 0.35855 0.27983 0.0
C21 C 0.40761 0.38681 0.2514 0.0
H22 H 0.43773 0.42066 0.24036 0.0
H23 H 0.36501 0.34945 0.24433 0.0
H24 H 0.39358 0.4112 0.26177 0.0
O25 O 0.56303 0.36516 0.21642 0.0
O26 O 0.61254 0.33491 0.2365 0.0
H27 H 0.56534 0.33766 0.29855 0.0
H28 H 0.49588 0.32276 0.31158 0.0
C29 C 0.51324 0.31207 0.29846 0.0
H30 H 0.49645 0.26132 0.29844 0.0
H31 H 0.66795 0.33863 0.27379 0.0
O32 O 0.43154 0.35527 0.21008 0.0
C33 C 0.61296 0.36734 0.22232 0.0
Co34 Co 0.67443 0.15982 0.89089 0.0
Co35 Co 0.72844 0.27312 0.91909 0.0
C36 C 0.80814 0.25898 0.88862 0.0
O37 O 0.76337 0.20705 0.88259 0.0
O38 O 0.8004 0.28803 0.90231 0.0
C39 C 0.64554 0.05403 0.86583 0.0
O40 O 0.70618 0.07724 0.86343 0.0
C41 C 0.81429 0.35233 0.94908 0.0
C42 C 0.76354 0.39665 0.96117 0.0
C43 C 0.8176 0.39277 0.96317 0.0
N44 N 0.76067 0.33275 0.93928 0.0
N45 N 0.73078 0.35985 0.9465 0.0
C46 C 0.85944 0.32952 0.9457 0.0
H47 H 0.8366 0.28527 0.93753 0.0
H48 H 0.87716 0.32197 0.95937 0.0
H49 H 0.90015 0.36547 0.93751 0.0
C50 C 0.63738 0.08883 0.927 0.0
N51 N 0.66654 0.14316 0.91729 0.0
N52 N 0.68747 0.19012 0.92925 0.0
C53 C 0.67171 0.16697 0.94704 0.0
C54 C 0.63875 0.10186 0.94616 0.0
C55 C 0.60516 0.02578 0.91783 0.0
H56 H 0.56535 0.02107 0.90914 0.0
H57 H 0.63849 0.02175 0.90818 0.0
H58 H 0.58708 0.98731 0.92843 0.0
O59 O 0.63327 0.20773 0.88411 0.0
O60 O 0.66688 0.287 0.90425 0.0
H61 H 0.66996 0.23753 0.96408 0.0
H62 H 0.67629 0.17852 0.9777 0.0
C63 C 0.69064 0.20665 0.96449 0.0
H64 H 0.74239 0.23654 0.96476 0.0
H65 H 0.68743 0.35233 0.94163 0.0
O66 O 0.62564 0.08113 0.87666 0.0
C67 C 0.63274 0.25562 0.89029 0.0
Co68 Co 0.85741 0.51228 0.55667 0.0
Co69 Co 0.74582 0.47262 0.5854 0.0
C70 C 0.77346 0.5686 0.55509 0.0
O71 O 0.81953 0.56432 0.54858 0.0
O72 O 0.74205 0.53668 0.56937 0.0
C73 C 0.98057 0.59243 0.53941 0.0
O74 O 0.97998 0.63913 0.54805 0.0
C75 C 0.67059 0.48472 0.61587 0.0
C76 C 0.6157 0.38729 0.62618 0.0
C77 C 0.62633 0.44722 0.62926 0.0
N78 N 0.6859 0.44884 0.60546 0.0
N79 N 0.65249 0.39054 0.61162 0.0
C80 C 0.7 0.55402 0.61356 0.0
H81 H 0.74389 0.57314 0.60514 0.0
H82 H 0.71037 0.57698 0.62764 0.0
H83 H 0.6665 0.56451 0.60612 0.0
C84 C 0.92634 0.52885 0.59336 0.0
N85 N 0.87484 0.51789 0.58336 0.0
N86 N 0.8279 0.50201 0.59522 0.0
C87 C 0.84812 0.50302 0.61306 0.0
C88 C 0.91105 0.52018 0.61257 0.0
C89 C 0.98581 0.53847 0.58451 0.0
H90 H 0.97495 0.5101 0.57145 0.0
H91 H 0.01565 0.58853 0.58062 0.0
H92 H 0.01245 0.52513 0.59433 0.0
O93 O 0.79852 0.4237 0.54999 0.0
O94 O 0.71989 0.396 0.57027 0.0
H95 H 0.76905 0.43595 0.62913 0.0
H96 H 0.83372 0.49136 0.64357 0.0
C97 C 0.80713 0.48539 0.63028 0.0
H98 H 0.7856 0.51536 0.63108 0.0
H99 H 0.65547 0.35304 0.60605 0.0
O100 O 0.93449 0.53721 0.54137 0.0
C101 C 0.74537 0.38316 0.55669 0.0
Co102 Co 0.33398 0.49146 0.79996 0.0
Co103 Co 0.28421 0.55342 0.7707 0.0
C104 C 0.19903 0.45772 0.79971 0.0
O105 O 0.24348 0.45135 0.80666 0.0
O106 O 0.20805 0.49461 0.7858 0.0
C107 C 0.3601 0.40619 0.82311 0.0
O108 O 0.30201 0.3607 0.82063 0.0
C109 C 0.21293 0.56323 0.7379 0.0
C110 C 0.27691 0.66114 0.72912 0.0
C111 C 0.22137 0.60794 0.72425 0.0
N112 N 0.26179 0.58932 0.75005 0.0
N113 N 0.29926 0.64802 0.74482 0.0
C114 C 0.16335 0.49559 0.73858 0.0
H115 H 0.17692 0.46956 0.74858 0.0
H116 H 0.156 0.4746 0.72426 0.0
H117 H 0.11851 0.49131 0.74345 0.0
C118 C 0.37641 0.46033 0.7645 0.0
N119 N 0.34601 0.48489 0.77374 0.0
N120 N 0.32658 0.51175 0.76141 0.0
C121 C 0.34446 0.50534 0.74387 0.0
C122 C 0.37724 0.47308 0.7453 0.0
C123 C 0.40738 0.42872 0.77413 0.0
H124 H 0.44272 0.46151 0.78439 0.0
H125 H 0.37161 0.38767 0.78223 0.0
H126 H 0.43084 0.41319 0.76388 0.0
O127 O 0.37663 0.57988 0.80705 0.0
O128 O 0.34269 0.62558 0.78688 0.0
H129 H 0.34849 0.57843 0.72642 0.0
H130 H 0.34275 0.51329 0.71312 0.0
C131 C 0.32744 0.52687 0.7261 0.0
H132 H 0.27582 0.50533 0.72536 0.0
H133 H 0.34124 0.67868 0.75166 0.0
O134 O 0.37884 0.45931 0.81554 0.0
C135 C 0.37662 0.62818 0.8009 0.0
Co136 Co 0.54449 0.85597 0.46134 0.0
Co137 Co 0.47088 0.73167 0.43793 0.0
C138 C 0.57761 0.75539 0.46437 0.0
O139 O 0.58743 0.80919 0.46919 0.0
O140 O 0.53494 0.72192 0.4525 0.0
C141 C 0.57822 0.95705 0.4875 0.0
O142 O 0.5297 0.91497 0.49719 0.0
C143 C 0.46793 0.64866 0.40833 0.0
C144 C 0.36687 0.58768 0.40248 0.0
C145 C 0.42611 0.60016 0.39688 0.0
N146 N 0.43538 0.66463 0.42006 0.0
N147 N 0.37485 0.62764 0.4166 0.0
C148 C 0.53811 0.68178 0.40743 0.0
H149 H 0.55907 0.72637 0.41541 0.0
H150 H 0.55401 0.69139 0.39245 0.0
H151 H 0.55465 0.6512 0.41365 0.0
C152 C 0.55412 0.91112 0.42317 0.0
N153 N 0.53925 0.86152 0.43455 0.0
N154 N 0.50694 0.80968 0.42479 0.0
C155 C 0.4998 0.82462 0.40689 0.0
C156 C 0.53 0.88932 0.40514 0.0
C157 C 0.58127 0.97654 0.43044 0.0
H158 H 0.55331 0.97652 0.44275 0.0
H159 H 0.62998 0.99344 0.43542 0.0
H160 H 0.58147 0.0092 0.4196 0.0
O161 O 0.45792 0.81395 0.47194 0.0
O162 O 0.40457 0.72537 0.45564 0.0
H163 H 0.41471 0.74318 0.39815 0.0
H164 H 0.45337 0.79987 0.37942 0.0
C165 C 0.4609 0.77769 0.39209 0.0
H166 H 0.48519 0.75247 0.38749 0.0
H167 H 0.33902 0.63039 0.42366 0.0
O168 O 0.59314 0.94172 0.47204 0.0
C169 C 0.40735 0.76294 0.46849 0.0
Co170 Co 0.1606 0.65938 0.13585 0.0
Co171 Co 0.26875 0.72448 0.10559 0.0
C172 C 0.25285 0.79684 0.13736 0.0
O173 O 0.20505 0.74855 0.14418 0.0
O174 O 0.2809 0.7938 0.1226 0.0
C175 C 0.04855 0.62767 0.15814 0.0
O176 O 0.06032 0.68477 0.15452 0.0
C177 C 0.34489 0.81339 0.07536 0.0
C178 C 0.38836 0.76387 0.06189 0.0
C179 C 0.38492 0.81814 0.06082 0.0
N180 N 0.32532 0.75882 0.08455 0.0
N181 N 0.35178 0.72961 0.07645 0.0
C182 C 0.32368 0.85891 0.08002 0.0
H183 H 0.27931 0.83562 0.08826 0.0
H184 H 0.31665 0.87951 0.06687 0.0
H185 H 0.36046 0.89742 0.08863 0.0
C186 C 0.08324 0.61922 0.10064 0.0
N187 N 0.13889 0.65131 0.10966 0.0
N188 N 0.18396 0.67816 0.09696 0.0
C189 C 0.15832 0.66411 0.07945 0.0
C190 C 0.09358 0.62562 0.08122 0.0
C191 C 0.02168 0.58043 0.11051 0.0
H192 H 0.02574 0.54849 0.12078 0.0
H193 H 0.00985 0.61165 0.11852 0.0
H194 H 0.98319 0.55237 0.10037 0.0
O195 O 0.21485 0.62304 0.14078 0.0
O196 O 0.29153 0.6682 0.11956 0.0
H197 H 0.22718 0.67169 0.05951 0.0
H198 H 0.1644 0.67974 0.04895 0.0
C199 C 0.19501 0.69044 0.06155 0.0
H200 H 0.22369 0.74193 0.06277 0.0
H201 H 0.34444 0.68597 0.08078 0.0
O202 O 0.08451 0.60922 0.15162 0.0
C203 C 0.26518 0.63042 0.13332 0.0
H204 H 0.4189 0.08609 0.22431 0.0
C205 C 0.41428 0.12267 0.21716 0.0
H206 H 0.37692 0.14576 0.1935 0.0
H207 H 0.3771 0.88428 0.16869 0.0
H208 H 0.49008 0.94419 0.17247 0.0
H209 H 0.54204 0.05299 0.18394 0.0
H210 H 0.48113 0.10166 0.19227 0.0
C211 C 0.38254 0.1098 0.20066 0.0
C212 C 0.35243 0.04631 0.19188 0.0
C213 C 0.38931 0.02 0.18591 0.0
C214 C 0.35979 0.95889 0.17794 0.0
C215 C 0.39725 0.93182 0.17368 0.0
C216 C 0.46221 0.9655 0.17596 0.0
C217 C 0.49142 0.0266 0.18252 0.0
C218 C 0.4557 0.05379 0.18743 0.0
H219 H 0.31485 0.89898 0.13954 0.0
C220 C 0.2788 0.85795 0.14694 0.0
H221 H 0.22702 0.82366 0.17233 0.0
H222 H 0.26767 0.08212 0.20192 0.0
H223 H 0.15523 0.02433 0.19648 0.0
H224 H 0.10508 0.92153 0.18073 0.0
H225 H 0.16696 0.87558 0.17047 0.0
C226 C 0.26327 0.86406 0.16476 0.0
C227 C 0.29399 0.92605 0.17452 0.0
C228 C 0.25728 0.95263 0.18028 0.0
C229 C 0.28642 0.01253 0.18906 0.0
C230 C 0.24827 0.03732 0.19493 0.0
C231 C 0.18359 0.00457 0.19193 0.0
C232 C 0.15534 0.94665 0.18309 0.0
C233 C 0.19147 0.92077 0.17729 0.0
H234 H 0.09718 0.42404 0.80082 0.0
C235 C 0.13568 0.42358 0.80829 0.0
H236 H 0.16324 0.3947 0.83294 0.0
H237 H 0.89126 0.37962 0.8555 0.0
H238 H 0.94436 0.49096 0.84916 0.0
H239 H 0.05334 0.54665 0.83732 0.0
H240 H 0.10894 0.49089 0.83116 0.0
C241 C 0.12519 0.39585 0.82543 0.0
C242 C 0.06174 0.36417 0.83453 0.0
C243 C 0.03145 0.39842 0.83927 0.0
C244 C 0.97033 0.36719 0.84749 0.0
C245 C 0.93908 0.40151 0.85042 0.0
C246 C 0.96881 0.46545 0.84666 0.0
C247 C 0.03001 0.49672 0.8399 0.0
C248 C 0.0612 0.46391 0.83624 0.0
H249 H 0.90931 0.32792 0.88625 0.0
C250 C 0.87029 0.28818 0.8793 0.0
H251 H 0.84061 0.23044 0.85508 0.0
H252 H 0.10578 0.28425 0.82715 0.0
H253 H 0.05511 0.17409 0.83527 0.0
H254 H 0.95263 0.12174 0.85156 0.0
H255 H 0.89988 0.17906 0.85968 0.0
C256 C 0.87913 0.27032 0.86212 0.0
C257 C 0.94157 0.30279 0.85242 0.0
C258 C 0.9723 0.26884 0.84797 0.0
C259 C 0.03209 0.29938 0.8389 0.0
C260 C 0.06092 0.26382 0.83431 0.0
C261 C 0.03228 0.20044 0.83885 0.0
C262 C 0.97454 0.17095 0.84799 0.0
C263 C 0.9447 0.20446 0.85254 0.0
H264 H 0.60815 0.68572 0.46729 0.0
C265 C 0.61364 0.72874 0.47323 0.0
H266 H 0.6541 0.79508 0.49522 0.0
H267 H 0.65115 0.53513 0.52522 0.0
H268 H 0.53792 0.48446 0.52286 0.0
H269 H 0.48688 0.54203 0.51088 0.0
H270 H 0.54892 0.64978 0.50059 0.0
C271 C 0.64775 0.75193 0.48915 0.0
C272 C 0.67778 0.71968 0.49896 0.0
C273 C 0.64047 0.65799 0.50623 0.0
C274 C 0.66968 0.62638 0.51457 0.0
C275 C 0.63148 0.56282 0.51996 0.0
C276 C 0.56631 0.53286 0.5185 0.0
C277 C 0.53761 0.56514 0.51165 0.0
C278 C 0.57395 0.62692 0.50559 0.0
H279 H 0.7185 0.61644 0.55291 0.0
C280 C 0.75218 0.60799 0.54546 0.0
H281 H 0.79983 0.619 0.5196 0.0
H282 H 0.76323 0.83757 0.48677 0.0
H283 H 0.87625 0.89044 0.49097 0.0
H284 H 0.92621 0.83821 0.5074 0.0
H285 H 0.86353 0.73251 0.5196 0.0
C286 C 0.76638 0.62701 0.52733 0.0
C287 C 0.73588 0.65827 0.51722 0.0
C288 C 0.77302 0.72031 0.51032 0.0
C289 C 0.74403 0.75086 0.5011 0.0
C290 C 0.78258 0.81244 0.49409 0.0
C291 C 0.84756 0.84332 0.49638 0.0
C292 C 0.8757 0.81389 0.50561 0.0
C293 C 0.83914 0.75315 0.51254 0.0
H294 H 0.33857 0.6037 0.13488 0.0
C295 C 0.29418 0.59487 0.14087 0.0
H296 H 0.22395 0.54467 0.16138 0.0
H297 H 0.36514 0.37541 0.15561 0.0
H298 H 0.32664 0.35337 0.12328 0.0
H299 H 0.27251 0.40509 0.10913 0.0
H300 H 0.25763 0.48 0.12712 0.0
C301 C 0.2674 0.55258 0.15492 0.0
C302 C 0.29825 0.51945 0.16339 0.0
C303 C 0.30448 0.47404 0.15286 0.0
C304 C 0.33321 0.44211 0.16129 0.0
C305 C 0.34163 0.3993 0.15017 0.0
C306 C 0.32006 0.38646 0.13154 0.0
C307 C 0.28977 0.41573 0.12355 0.0
C308 C 0.28186 0.45896 0.13402 0.0
H309 H 0.29909 0.33173 0.18945 0.0
C310 C 0.34814 0.35823 0.19368 0.0
H311 H 0.43054 0.44702 0.19433 0.0
H312 H 0.29487 0.60462 0.18737 0.0
H313 H 0.33061 0.62434 0.22 0.0
H314 H 0.37646 0.56592 0.23502 0.0
H315 H 0.3872 0.48769 0.21746 0.0
C316 C 0.38201 0.41971 0.18966 0.0
C317 C 0.35329 0.4538 0.18047 0.0
C318 C 0.34692 0.49906 0.19099 0.0
C319 C 0.31955 0.53202 0.18243 0.0
C320 C 0.31447 0.57752 0.19322 0.0
C321 C 0.33495 0.58946 0.21197 0.0
C322 C 0.36085 0.55664 0.22042 0.0
C323 C 0.36685 0.51192 0.21014 0.0
H324 H 0.44972 0.68716 0.82127 0.0
C325 C 0.41876 0.68783 0.81034 0.0
H326 H 0.39177 0.7444 0.79506 0.0
H327 H 0.55416 0.88982 0.87424 0.0
H328 H 0.46621 0.80792 0.89153 0.0
H329 H 0.37542 0.7239 0.87457 0.0
H330 H 0.37327 0.72039 0.84019 0.0
C331 C 0.42092 0.742 0.80626 0.0
C332 C 0.46705 0.80041 0.81619 0.0
C333 C 0.46532 0.80437 0.83623 0.0
C334 C 0.51538 0.85531 0.84595 0.0
C335 C 0.5155 0.85452 0.86605 0.0
C336 C 0.46555 0.80737 0.87618 0.0
C337 C 0.41462 0.75991 0.86664 0.0
C338 C 0.41426 0.75816 0.84691 0.0
H339 H 0.54979 0.98422 0.85727 0.0
C340 C 0.59894 0.99744 0.85584 0.0
H341 H 0.66294 0.97469 0.84348 0.0
H342 H 0.48316 0.80884 0.77765 0.0
H343 H 0.56703 0.89472 0.76019 0.0
H344 H 0.64984 0.98692 0.77689 0.0
H345 H 0.64977 0.99344 0.81117 0.0
C346 C 0.61404 0.96149 0.84548 0.0
C347 C 0.56433 0.90518 0.83552 0.0
C348 C 0.5645 0.90261 0.81543 0.0
C349 C 0.51605 0.84996 0.80576 0.0
C350 C 0.51831 0.84795 0.78572 0.0
C351 C 0.56621 0.89696 0.77551 0.0
C352 C 0.61286 0.94885 0.78491 0.0
C353 C 0.61227 0.95192 0.80462 0.0
H354 H 0.03084 0.56256 0.5201 0.0
C355 C 0.03449 0.6025 0.52767 0.0
H356 H 0.0914 0.69889 0.53337 0.0
H357 H 0.29517 0.61613 0.5016 0.0
H358 H 0.26809 0.55034 0.52966 0.0
H359 H 0.1841 0.53894 0.55119 0.0
H360 H 0.12628 0.59258 0.54473 0.0
C361 C 0.08758 0.65818 0.52626 0.0
C362 C 0.14065 0.66699 0.51392 0.0
C363 C 0.17487 0.63612 0.51815 0.0
C364 C 0.2245 0.64398 0.50601 0.0
C365 C 0.25739 0.61211 0.51042 0.0
C366 C 0.24239 0.57427 0.52649 0.0
C367 C 0.19501 0.56775 0.53859 0.0
C368 C 0.16175 0.59843 0.5346 0.0
H369 H 0.35525 0.78393 0.48979 0.0
C370 C 0.35113 0.74884 0.47972 0.0
H371 H 0.29076 0.65862 0.46861 0.0
H372 H 0.08514 0.73323 0.50169 0.0
H373 H 0.11387 0.80044 0.47397 0.0
H374 H 0.20053 0.81468 0.45316 0.0
H375 H 0.25901 0.76175 0.45996 0.0
C376 C 0.29588 0.69542 0.47809 0.0
C377 C 0.24128 0.68423 0.49004 0.0
C378 C 0.20739 0.71534 0.48586 0.0
C379 C 0.15721 0.70689 0.49783 0.0
C380 C 0.12394 0.73823 0.4932 0.0
C381 C 0.13982 0.77686 0.47728 0.0
C382 C 0.18863 0.7849 0.46557 0.0
C383 C 0.22203 0.75447 0.4697 0.0
H384 H 0.5665 0.2464 0.86799 0.0
C385 C 0.59101 0.27337 0.88049 0.0
H386 H 0.60219 0.34546 0.89898 0.0
H387 H 0.4803 0.36927 0.81583 0.0
H388 H 0.58402 0.40344 0.8032 0.0
H389 H 0.6678 0.4079 0.82361 0.0
H390 H 0.64761 0.37664 0.85669 0.0
C391 C 0.58077 0.31928 0.88612 0.0
C392 C 0.53556 0.33109 0.87529 0.0
C393 C 0.54912 0.35308 0.85631 0.0
C394 C 0.50193 0.3541 0.84488 0.0
C395 C 0.51531 0.37104 0.8255 0.0
C396 C 0.57456 0.39014 0.818 0.0
C397 C 0.62162 0.39237 0.82946 0.0
C398 C 0.60928 0.37394 0.84838 0.0
H399 H 0.45071 0.43905 0.83738 0.0
C400 C 0.40531 0.39775 0.83466 0.0
H401 H 0.34858 0.30049 0.83919 0.0
H402 H 0.49532 0.28909 0.91133 0.0
H403 H 0.39321 0.25979 0.92457 0.0
H404 H 0.31303 0.26673 0.90531 0.0
H405 H 0.33412 0.30236 0.87264 0.0
C406 C 0.39406 0.34216 0.84137 0.0
C407 C 0.44246 0.33719 0.85285 0.0
C408 C 0.42969 0.31719 0.87203 0.0
C409 C 0.47624 0.314 0.88324 0.0
C410 C 0.46179 0.29272 0.90223 0.0
C411 C 0.4034 0.27583 0.91001 0.0
C412 C 0.35825 0.27971 0.89916 0.0
C413 C 0.37098 0.30019 0.88041 0.0
H414 H 0.66806 0.28527 0.55547 0.0
C415 C 0.71204 0.3193 0.54885 0.0
H416 H 0.77859 0.33476 0.52754 0.0
H417 H 0.70127 0.04925 0.5223 0.0
H418 H 0.80615 0.09527 0.53552 0.0
H419 H 0.86388 0.20618 0.54504 0.0
H420 H 0.817 0.27167 0.54143 0.0
C421 C 0.73389 0.30192 0.53402 0.0
C422 C 0.7003 0.23622 0.52705 0.0
C423 C 0.72889 0.19888 0.52894 0.0
C424 C 0.69584 0.13505 0.52329 0.0
C425 C 0.72469 0.09831 0.52595 0.0
C426 C 0.78479 0.12405 0.53364 0.0
C427 C 0.81727 0.18647 0.53901 0.0
C428 C 0.78981 0.22359 0.53681 0.0
H429 H 0.6552 0.0552 0.48577 0.0
C430 C 0.61486 0.02226 0.49411 0.0
H431 H 0.55767 0.01039 0.51786 0.0
H432 H 0.63528 0.29695 0.51896 0.0
H433 H 0.53062 0.25099 0.50559 0.0
H434 H 0.47205 0.13949 0.49673 0.0
H435 H 0.51811 0.07346 0.50103 0.0
C436 C 0.59922 0.0421 0.50976 0.0
C437 C 0.63455 0.10895 0.51553 0.0
C438 C 0.60635 0.14652 0.51337 0.0
C439 C 0.63957 0.21046 0.51887 0.0
C440 C 0.61137 0.24758 0.51568 0.0
C441 C 0.55147 0.22192 0.50786 0.0
C442 C 0.51854 0.15918 0.50284 0.0
C443 C 0.54551 0.12177 0.50544 0.0
H444 H 0.98645 0.53711 0.172 0.0
C445 C 0.99265 0.58314 0.16906 0.0
H446 H 0.95483 0.64263 0.17251 0.0
H447 H 0.7122 0.35379 0.18652 0.0
H448 H 0.72493 0.33543 0.15351 0.0
H449 H 0.81267 0.41595 0.13457 0.0
H450 H 0.88879 0.51464 0.14861 0.0
C451 C 0.94875 0.59642 0.1749 0.0
C452 C 0.89251 0.54964 0.18571 0.0
C453 C 0.84681 0.49323 0.17698 0.0
C454 C 0.79439 0.44808 0.18762 0.0
C455 C 0.75143 0.39075 0.17888 0.0
C456 C 0.7584 0.37942 0.15998 0.0
C457 C 0.80793 0.42464 0.14934 0.0
C458 C 0.85164 0.48098 0.15764 0.0
H459 H 0.66927 0.43442 0.19993 0.0
C460 C 0.67194 0.40882 0.21216 0.0
H461 H 0.73241 0.39325 0.22983 0.0
H462 H 0.97147 0.65232 0.20678 0.0
H463 H 0.95664 0.67189 0.23949 0.0
H464 H 0.86353 0.59544 0.25751 0.0
H465 H 0.78483 0.4987 0.24297 0.0
C466 C 0.728 0.41648 0.21728 0.0
C467 C 0.78594 0.46072 0.20666 0.0
C468 C 0.83149 0.51705 0.21535 0.0
C469 C 0.88481 0.56152 0.20488 0.0
C470 C 0.92974 0.61721 0.21399 0.0
C471 C 0.92187 0.62902 0.23278 0.0
C472 C 0.86947 0.58595 0.24292 0.0
C473 C 0.82465 0.53057 0.2344 0.0
H474 H 0.48328 0.90497 0.38055 0.0
C475 C 0.52674 0.92489 0.38861 0.0
H476 H 0.62148 0.99706 0.3896 0.0
H477 H 0.62789 0.06365 0.30233 0.0
H478 H 0.68523 0.00736 0.30183 0.0
H479 H 0.69105 0.95222 0.33035 0.0
H480 H 0.63972 0.95314 0.35958 0.0
C481 C 0.57615 0.97877 0.38266 0.0
C482 C 0.57177 0.01163 0.36545 0.0
C483 C 0.60193 0.01057 0.34847 0.0
C484 C 0.59819 0.04199 0.33197 0.0
C485 C 0.62898 0.04034 0.31524 0.0
C486 C 0.66206 0.00822 0.31476 0.0
C487 C 0.66537 0.9772 0.33082 0.0
C488 C 0.63575 0.97818 0.34751 0.0
H489 H 0.62879 0.19713 0.32716 0.0
C490 C 0.59905 0.17315 0.31505 0.0
H491 H 0.53786 0.08453 0.30311 0.0
H492 H 0.51063 0.0253 0.39585 0.0
H493 H 0.45101 0.07917 0.39607 0.0
H494 H 0.44143 0.13037 0.36714 0.0
H495 H 0.49198 0.12852 0.33786 0.0
C496 C 0.56385 0.11049 0.31551 0.0
C497 C 0.56468 0.07481 0.33251 0.0
C498 C 0.53359 0.07501 0.34939 0.0
C499 C 0.53769 0.04398 0.36594 0.0
C500 C 0.50788 0.04675 0.38275 0.0
C501 C 0.47368 0.07774 0.3831 0.0
C502 C 0.4684 0.1067 0.36682 0.0
C503 C 0.49789 0.10551 0.35013 0.0
H504 H 0.90858 0.41866 0.9769 0.0
C505 C 0.86679 0.42289 0.97789 0.0
H506 H 0.81971 0.45942 0.99368 0.0
H507 H 0.01963 0.45702 0.05708 0.0
H508 H 0.96023 0.34398 0.05423 0.0
H509 H 0.87593 0.29328 0.03043 0.0
H510 H 0.85087 0.35515 1.00924 0.0
C511 C 0.86051 0.45354 0.99266 0.0
C512 C 0.91013 0.48335 1.00748 0.0
C513 C 0.92345 0.44622 0.01998 0.0
C514 C 0.97122 0.47539 0.03398 0.0
C515 C 0.98385 0.43731 0.0462 0.0
C516 C 0.94999 0.37235 0.04476 0.0
C517 C 0.9026 0.34381 0.03134 0.0
C518 C 0.88904 0.38001 0.01914 0.0
H519 H 1.00048 0.59482 0.06828 0.0
C520 C 0.04541 0.59732 0.06613 0.0
H521 H 0.09652 0.56854 0.04904 0.0
H522 H 0.89591 0.56813 0.98602 0.0
H523 H 0.95462 0.68103 0.98916 0.0
H524 H 0.03742 0.73147 0.01341 0.0
H525 H 0.06183 0.66935 0.03473 0.0
C526 C 0.05413 0.57146 0.05057 0.0
C527 C 1.00443 0.54141 0.03582 0.0
C528 C 0.99082 0.5785 0.02343 0.0
C529 C 0.9434 0.54941 1.00933 0.0
C530 C 0.93114 0.58765 0.99706 0.0
C531 C 0.96463 0.65257 0.99866 0.0
C532 C 0.01121 0.68097 0.01232 0.0
C533 C 0.02453 0.64466 0.02455 0.0
H534 H 0.40341 0.41039 0.73064 0.0
C535 C 0.40725 0.45616 0.7301 0.0
H536 H 0.45052 0.54446 0.71661 0.0
H537 H 0.65905 0.50465 0.67726 0.0
H538 H 0.72059 0.58061 0.70134 0.0
H539 H 0.66941 0.61147 0.72561 0.0
H540 H 0.55621 0.56609 0.726 0.0
C541 C 0.44155 0.49668 0.71635 0.0
C542 C 0.47211 0.47936 0.70125 0.0
C543 C 0.53843 0.50744 0.70094 0.0
C544 C 0.56802 0.49043 0.68673 0.0
C545 C 0.63415 0.51714 0.68731 0.0
C546 C 0.67008 0.56054 0.70117 0.0
C547 C 0.64127 0.57785 0.71485 0.0
C548 C 0.57624 0.55156 0.71487 0.0
H549 H 0.60728 0.51484 0.64414 0.0
C550 C 0.59771 0.46685 0.64416 0.0
H551 H 0.55004 0.37874 0.65779 0.0
H552 H 0.34422 0.42074 0.69676 0.0
H553 H 0.28264 0.34543 0.67253 0.0
H554 H 0.33379 0.31525 0.64806 0.0
H555 H 0.44692 0.36055 0.64763 0.0
C556 C 0.56121 0.42724 0.65782 0.0
C557 C 0.53116 0.44634 0.67261 0.0
C558 C 0.46485 0.41865 0.67285 0.0
C559 C 0.43529 0.43549 0.6871 0.0
C560 C 0.36913 0.40863 0.68658 0.0
C561 C 0.33316 0.36555 0.67267 0.0
C562 C 0.36195 0.3486 0.65889 0.0
C563 C 0.42698 0.37484 0.65885 0.0
H564 H 0.21114 0.63993 0.69607 0.0
C565 C 0.18634 0.60357 0.70666 0.0
H566 H 0.09887 0.5237 0.71343 0.0
H567 H 0.0229 0.66226 0.64579 0.0
H568 H 0.04491 0.74155 0.66947 0.0
H569 H 0.08895 0.73813 0.70062 0.0
H570 H 0.11156 0.65564 0.70826 0.0
C571 C 0.12625 0.56024 0.70325 0.0
C572 C 0.09587 0.56044 0.68493 0.0
C573 C 0.08228 0.60871 0.68076 0.0
C574 C 0.0559 0.61011 0.6629 0.0
C575 C 0.04289 0.65887 0.65912 0.0
C576 C 0.05519 0.70466 0.6726 0.0
C577 C 0.08008 0.70278 0.69013 0.0
C578 C 0.09329 0.65537 0.69427 0.0
H579 H 0.92398 0.48512 0.6401 0.0
C580 C 0.94846 0.51926 0.62893 0.0
H581 H 0.03389 0.59929 0.6212 0.0
H582 H 0.1151 0.46095 0.68849 0.0
H583 H 0.0924 0.38123 0.66487 0.0
H584 H 0.04744 0.38415 0.63382 0.0
H585 H 0.02474 0.46671 0.62621 0.0
C586 C 0.0094 0.56156 0.63139 0.0
C587 C 0.04173 0.56248 0.6494 0.0
C588 C 0.05526 0.5142 0.65357 0.0
C589 C 0.0819 0.51294 0.6714 0.0
C590 C 0.09487 0.46417 0.67518 0.0
C591 C 0.08215 0.41815 0.66174 0.0
C592 C 0.05677 0.41975 0.64427 0.0
C593 C 0.04358 0.4672 0.64012 0.0
H594 H 0.38778 0.37832 0.29464 0.0
C595 C 0.43472 0.38455 0.29532 0.0
H596 H 0.52233 0.43021 0.30933 0.0
H597 H 0.4612 0.62651 0.34741 0.0
H598 H 0.52949 0.68986 0.32187 0.0
H599 H 0.56399 0.64301 0.29727 0.0
H600 H 0.52985 0.53225 0.29798 0.0
C601 C 0.47357 0.41886 0.30936 0.0
C602 C 0.45302 0.44679 0.32438 0.0
C603 C 0.47457 0.51182 0.32404 0.0
C604 C 0.45575 0.53906 0.33847 0.0
C605 C 0.47571 0.60366 0.33723 0.0
C606 C 0.51455 0.64054 0.32254 0.0
C607 C 0.5339 0.61415 0.30867 0.0
C608 C 0.51408 0.55054 0.30929 0.0
H609 H 0.49096 0.58334 0.37954 0.0
C610 C 0.44206 0.57042 0.38138 0.0
H611 H 0.34956 0.51516 0.37099 0.0
H612 H 0.40456 0.32085 0.32954 0.0
H613 H 0.33663 0.25736 0.35514 0.0
H614 H 0.30448 0.30458 0.38028 0.0
H615 H 0.3402 0.41564 0.38 0.0
C616 C 0.39891 0.52984 0.3692 0.0
C617 C 0.41674 0.5014 0.35354 0.0
C618 C 0.39464 0.4362 0.35375 0.0
C619 C 0.41296 0.40889 0.3392 0.0
C620 C 0.39149 0.34394 0.34006 0.0
C621 C 0.35262 0.30694 0.35473 0.0
C622 C 0.33454 0.33353 0.36889 0.0
C623 C 0.35529 0.39736 0.36852 0.0
H624 H 0.61242 0.01315 0.96117 0.0
C625 C 0.60961 0.05563 0.96172 0.0
H626 H 0.56808 0.10177 0.97534 0.0
H627 H 0.35421 0.85422 0.01385 0.0
H628 H 0.29471 0.8751 0.99045 0.0
H629 H 0.34836 0.95953 0.96684 0.0
H630 H 0.46196 0.02337 0.96643 0.0
C631 C 0.57618 0.06239 0.97559 0.0
C632 C 0.54415 0.01354 0.99049 0.0
C633 C 0.47761 0.97753 0.99082 0.0
C634 C 0.44661 0.92936 1.00462 0.0
C635 C 0.38022 0.89246 1.00406 0.0
C636 C 0.34543 0.90367 0.99061 0.0
C637 C 0.37563 0.95116 0.9773 0.0
C638 C 0.44091 0.98759 0.97727 0.0
H639 H 0.41022 0.90989 0.04788 0.0
C640 C 0.41612 0.86929 0.04672 0.0
H641 H 0.45855 0.82708 0.03132 0.0
H642 H 0.67199 0.07845 0.9952 0.0
H643 H 0.73155 0.0582 0.01877 0.0
H644 H 0.67798 0.97359 0.04234 0.0
H645 H 0.56441 0.90902 0.04256 0.0
C646 C 0.45061 0.86644 0.03241 0.0
C647 C 0.48226 0.91804 0.01829 0.0
C648 C 0.54876 0.95465 0.01812 0.0
C649 C 0.57973 1.00283 1.00433 0.0
C650 C 0.64607 0.04012 1.00497 0.0
C651 C 0.68087 0.02929 0.01852 0.0
C652 C 0.65071 0.98171 0.03181 0.0
C653 C 0.58546 0.94485 0.03173 0.0
loop_
_geom_bond_atom_site_label_1
_geom_bond_atom_site_label_2
_geom_bond_distance
_geom_bond_site_symmetry_2
_ccdc_geom_bond_type
Co0 O3 1.970 . S
Co0 N17 1.989 . S
Co0 O25 1.967 . S
Co0 O32 1.920 . S
Co1 O4 1.966 . S
Co1 N10 2.022 . S
Co1 N18 1.993 . S
Co1 O26 1.941 . S
C2 O3 1.258 . S
C2 O4 1.263 . S
O3 Co0 1.970 . S
O3 C2 1.258 . S
O4 Co1 1.966 . S
O4 C2 1.263 . S
C5 O6 1.235 . S
C5 O32 1.289 . S
O6 C5 1.235 . S
C7 C9 1.400 . S
C7 N10 1.351 . S
C7 C12 1.501 . S
C8 C9 1.387 . S
C8 N11 1.341 . S
C9 C7 1.400 . S
C9 C8 1.387 . S
N10 Co1 2.022 . S
N10 C7 1.351 . S
N10 N11 1.365 . S
N11 C8 1.341 . S
N11 N10 1.365 . S
N11 H31 0.862 . S
C12 C7 1.501 . S
C12 H13 0.961 . S
C12 H14 0.961 . S
C12 H15 0.960 . S
H13 C12 0.961 . S
H14 C12 0.961 . S
H15 C12 0.960 . S
C16 N17 1.342 . S
C16 C20 1.401 . S
C16 C21 1.499 . S
N17 Co0 1.989 . S
N17 C16 1.342 . S
N17 N18 1.388 . S
N18 Co1 1.993 . S
N18 N17 1.388 . S
N18 C19 1.346 . S
C19 N18 1.346 . S
C19 C20 1.396 . S
C19 C29 1.510 . S
C20 C16 1.401 . S
C20 C19 1.396 . S
C21 C16 1.499 . S
C21 H22 0.959 . S
C21 H23 0.960 . S
C21 H24 0.961 . S
H22 C21 0.959 . S
H23 C21 0.960 . S
H24 C21 0.961 . S
O25 Co0 1.967 . S
O25 C33 1.258 . S
O26 Co1 1.941 . S
O26 C33 1.266 . S
H27 C29 0.959 . S
H28 C29 0.961 . S
C29 C19 1.510 . S
C29 H27 0.959 . S
C29 H28 0.961 . S
C29 H30 0.960 . S
H30 C29 0.960 . S
H31 N11 0.862 . S
O32 Co0 1.920 . S
O32 C5 1.289 . S
C33 O25 1.258 . S
C33 O26 1.266 . S
Co34 O37 1.970 . S
Co34 N51 1.989 . S
Co34 O59 1.967 . S
Co34 O66 1.920 . S
Co35 O38 1.966 . S
Co35 N44 2.022 . S
Co35 N52 1.993 . S
Co35 O60 1.941 . S
C36 O37 1.258 . S
C36 O38 1.263 . S
O37 Co34 1.970 . S
O37 C36 1.258 . S
O38 Co35 1.966 . S
O38 C36 1.263 . S
C39 O40 1.245 . S
C39 O66 1.289 . S
O40 C39 1.245 . S
C41 C43 1.400 . S
C41 N44 1.351 . S
C41 C46 1.501 . S
C42 C43 1.387 . S
C42 N45 1.341 . S
C43 C41 1.400 . S
C43 C42 1.387 . S
N44 Co35 2.022 . S
N44 C41 1.351 . S
N44 N45 1.365 . S
N45 C42 1.341 . S
N45 N44 1.365 . S
N45 H65 0.862 . S
C46 C41 1.501 . S
C46 H47 0.961 . S
C46 H48 0.961 . S
C46 H49 0.960 . S
H47 C46 0.961 . S
H48 C46 0.961 . S
H49 C46 0.960 . S
C50 N51 1.342 . S
C50 C54 1.401 . S
C50 C55 1.499 1_545 S
N51 Co34 1.989 . S
N51 C50 1.342 . S
N51 N52 1.388 . S
N52 Co35 1.993 . S
N52 N51 1.388 . S
N52 C53 1.346 . S
C53 N52 1.346 . S
C53 C54 1.396 . S
C53 C63 1.510 . S
C54 C50 1.401 . S
C54 C53 1.396 . S
C55 C50 1.499 1_565 S
C55 H56 0.959 . S
C55 H57 0.960 . S
C55 H58 0.961 . S
H56 C55 0.959 . S
H57 C55 0.960 . S
H58 C55 0.961 . S
O59 Co34 1.967 . S
O59 C67 1.258 . S
O60 Co35 1.941 . S
O60 C67 1.266 . S
H61 C63 0.959 . S
H62 C63 0.961 . S
C63 C53 1.510 . S
C63 H61 0.959 . S
C63 H62 0.961 . S
C63 H64 0.960 . S
H64 C63 0.960 . S
H65 N45 0.862 . S
O66 Co34 1.920 . S
O66 C39 1.289 . S
C67 O59 1.258 . S
C67 O60 1.266 . S
Co68 O71 1.970 . S
Co68 N85 1.989 . S
Co68 O93 1.967 . S
Co68 O100 1.920 . S
Co69 O72 1.966 . S
Co69 N78 2.022 . S
Co69 N86 1.993 . S
Co69 O94 1.941 . S
C70 O71 1.258 . S
C70 O72 1.263 . S
O71 Co68 1.970 . S
O71 C70 1.258 . S
O72 Co69 1.966 . S
O72 C70 1.263 . S
C73 O74 1.228 . S
C73 O100 1.289 . S
O74 C73 1.228 . S
C75 C77 1.400 . S
C75 N78 1.351 . S
C75 C80 1.501 . S
C76 C77 1.387 . S
C76 N79 1.341 . S
C77 C75 1.400 . S
C77 C76 1.387 . S
N78 Co69 2.022 . S
N78 C75 1.351 . S
N78 N79 1.365 . S
N79 C76 1.341 . S
N79 N78 1.365 . S
N79 H99 0.862 . S
C80 C75 1.501 . S
C80 H81 0.961 . S
C80 H82 0.961 . S
C80 H83 0.960 . S
H81 C80 0.961 . S
H82 C80 0.961 . S
H83 C80 0.960 . S
C84 N85 1.342 . S
C84 C88 1.401 . S
C84 C89 1.499 1_655 S
N85 Co68 1.989 . S
N85 C84 1.342 . S
N85 N86 1.388 . S
N86 Co69 1.993 . S
N86 N85 1.388 . S
N86 C87 1.346 . S
C87 N86 1.346 . S
C87 C88 1.396 . S
C87 C97 1.510 . S
C88 C84 1.401 . S
C88 C87 1.396 . S
C89 C84 1.499 1_455 S
C89 H90 0.961 . S
C89 H91 0.960 . S
C89 H92 0.961 . S
H90 C89 0.961 . S
H91 C89 0.960 . S
H92 C89 0.961 . S
O93 Co68 1.967 . S
O93 C101 1.258 . S
O94 Co69 1.941 . S
O94 C101 1.266 . S
H95 C97 0.959 . S
H96 C97 0.961 . S
C97 C87 1.510 . S
C97 H95 0.959 . S
C97 H96 0.961 . S
C97 H98 0.960 . S
H98 C97 0.960 . S
H99 N79 0.862 . S
O100 Co68 1.920 . S
O100 C73 1.289 . S
C101 O93 1.258 . S
C101 O94 1.266 . S
Co102 O105 1.970 . S
Co102 N119 1.989 . S
Co102 O127 1.967 . S
Co102 O134 1.920 . S
Co103 O106 1.966 . S
Co103 N112 2.022 . S
Co103 N120 1.993 . S
Co103 O128 1.941 . S
C104 O105 1.258 . S
C104 O106 1.263 . S
O105 Co102 1.970 . S
O105 C104 1.258 . S
O106 Co103 1.966 . S
O106 C104 1.263 . S
C107 O108 1.235 . S
C107 O134 1.289 . S
O108 C107 1.235 . S
C109 C111 1.400 . S
C109 N112 1.351 . S
C109 C114 1.501 . S
C110 C111 1.387 . S
C110 N113 1.341 . S
C111 C109 1.400 . S
C111 C110 1.387 . S
N112 Co103 2.022 . S
N112 C109 1.351 . S
N112 N113 1.365 . S
N113 C110 1.341 . S
N113 N112 1.365 . S
N113 H133 0.862 . S
C114 C109 1.501 . S
C114 H115 0.961 . S
C114 H116 0.961 . S
C114 H117 0.960 . S
H115 C114 0.961 . S
H116 C114 0.961 . S
H117 C114 0.960 . S
C118 N119 1.342 . S
C118 C122 1.401 . S
C118 C123 1.499 . S
N119 Co102 1.989 . S
N119 C118 1.342 . S
N119 N120 1.388 . S
N120 Co103 1.993 . S
N120 N119 1.388 . S
N120 C121 1.346 . S
C121 N120 1.346 . S
C121 C122 1.396 . S
C121 C131 1.510 . S
C122 C118 1.401 . S
C122 C121 1.396 . S
C123 C118 1.499 . S
C123 H124 0.959 . S
C123 H125 0.960 . S
C123 H126 0.961 . S
H124 C123 0.959 . S
H125 C123 0.960 . S
H126 C123 0.961 . S
O127 Co102 1.967 . S
O127 C135 1.258 . S
O128 Co103 1.941 . S
O128 C135 1.266 . S
H129 C131 0.959 . S
H130 C131 0.961 . S
C131 C121 1.510 . S
C131 H129 0.959 . S
C131 H130 0.961 . S
C131 H132 0.960 . S
H132 C131 0.960 . S
H133 N113 0.862 . S
O134 Co102 1.920 . S
O134 C107 1.289 . S
C135 O127 1.258 . S
C135 O128 1.266 . S
Co136 O139 1.970 . S
Co136 N153 1.989 . S
Co136 O161 1.967 . S
Co136 O168 1.920 . S
Co137 O140 1.966 . S
Co137 N146 2.022 . S
Co137 N154 1.993 . S
Co137 O162 1.941 . S
C138 O139 1.258 . S
C138 O140 1.263 . S
O139 Co136 1.970 . S
O139 C138 1.258 . S
O140 Co137 1.966 . S
O140 C138 1.263 . S
C141 O142 1.228 . S
C141 O168 1.289 . S
O142 C141 1.228 . S
C143 C145 1.400 . S
C143 N146 1.351 . S
C143 C148 1.501 . S
C144 C145 1.387 . S
C144 N147 1.341 . S
C145 C143 1.400 . S
C145 C144 1.387 . S
N146 Co137 2.022 . S
N146 C143 1.351 . S
N146 N147 1.365 . S
N147 C144 1.341 . S
N147 N146 1.365 . S
N147 H167 0.862 . S
C148 C143 1.501 . S
C148 H149 0.961 . S
C148 H150 0.961 . S
C148 H151 0.960 . S
H149 C148 0.961 . S
H150 C148 0.961 . S
H151 C148 0.960 . S
C152 N153 1.342 . S
C152 C156 1.401 . S
C152 C157 1.499 1_565 S
N153 Co136 1.989 . S
N153 C152 1.342 . S
N153 N154 1.388 . S
N154 Co137 1.993 . S
N154 N153 1.388 . S
N154 C155 1.346 . S
C155 N154 1.346 . S
C155 C156 1.396 . S
C155 C165 1.510 . S
C156 C152 1.401 . S
C156 C155 1.396 . S
C157 C152 1.499 1_545 S
C157 H158 0.961 . S
C157 H159 0.960 . S
C157 H160 0.961 . S
H158 C157 0.961 . S
H159 C157 0.960 . S
H160 C157 0.961 . S
O161 Co136 1.967 . S
O161 C169 1.258 . S
O162 Co137 1.941 . S
O162 C169 1.266 . S
H163 C165 0.959 . S
H164 C165 0.961 . S
C165 C155 1.510 . S
C165 H163 0.959 . S
C165 H164 0.961 . S
C165 H166 0.960 . S
H166 C165 0.960 . S
H167 N147 0.862 . S
O168 Co136 1.920 . S
O168 C141 1.289 . S
C169 O161 1.258 . S
C169 O162 1.266 . S
Co170 O173 1.970 . S
Co170 N187 1.989 . S
Co170 O195 1.967 . S
Co170 O202 1.920 . S
Co171 O174 1.966 . S
Co171 N180 2.022 . S
Co171 N188 1.993 . S
Co171 O196 1.941 . S
C172 O173 1.258 . S
C172 O174 1.263 . S
O173 Co170 1.970 . S
O173 C172 1.258 . S
O174 Co171 1.966 . S
O174 C172 1.263 . S
C175 O176 1.245 . S
C175 O202 1.289 . S
O176 C175 1.245 . S
C177 C179 1.400 . S
C177 N180 1.351 . S
C177 C182 1.501 . S
C178 C179 1.387 . S
C178 N181 1.341 . S
C179 C177 1.400 . S
C179 C178 1.387 . S
N180 Co171 2.022 . S
N180 C177 1.351 . S
N180 N181 1.365 . S
N181 C178 1.341 . S
N181 N180 1.365 . S
N181 H201 0.862 . S
C182 C177 1.501 . S
C182 H183 0.961 . S
C182 H184 0.961 . S
C182 H185 0.960 . S
H183 C182 0.961 . S
H184 C182 0.961 . S
H185 C182 0.960 . S
C186 N187 1.342 . S
C186 C190 1.401 . S
C186 C191 1.499 1_455 S
N187 Co170 1.989 . S
N187 C186 1.342 . S
N187 N188 1.388 . S
N188 Co171 1.993 . S
N188 N187 1.388 . S
N188 C189 1.346 . S
C189 N188 1.346 . S
C189 C190 1.396 . S
C189 C199 1.510 . S
C190 C186 1.401 . S
C190 C189 1.396 . S
C191 C186 1.499 1_655 S
C191 H192 0.959 . S
C191 H193 0.960 . S
C191 H194 0.961 . S
H192 C191 0.959 . S
H193 C191 0.960 . S
H194 C191 0.961 . S
O195 Co170 1.967 . S
O195 C203 1.258 . S
O196 Co171 1.941 . S
O196 C203 1.266 . S
H197 C199 0.959 . S
H198 C199 0.961 . S
C199 C189 1.510 . S
C199 H197 0.959 . S
C199 H198 0.961 . S
C199 H200 0.960 . S
H200 C199 0.960 . S
H201 N181 0.862 . S
O202 Co170 1.920 . S
O202 C175 1.289 . S
C203 O195 1.258 . S
C203 O196 1.266 . S
H204 C205 0.951 . S
C205 H204 0.951 . S
C205 C211 1.265 . S
H206 C211 0.950 . S
H207 C215 0.949 . S
H208 C216 0.950 . S
H209 C217 0.951 . S
H210 C218 0.951 . S
C211 C205 1.265 . S
C211 H206 0.950 . S
C211 C212 1.478 . S
C212 C211 1.478 . S
C212 C213 1.397 . S
C212 C229 1.394 . S
C213 C212 1.397 . S
C213 C214 1.438 1_545 S
C213 C218 1.429 . S
C214 C213 1.438 1_565 S
C214 C215 1.428 . S
C214 C227 1.394 . S
C215 H207 0.949 . S
C215 C214 1.428 . S
C215 C216 1.345 . S
C216 H208 0.950 . S
C216 C215 1.345 . S
C216 C217 1.424 1_565 S
C217 H209 0.951 . S
C217 C216 1.424 1_545 S
C217 C218 1.347 . S
C218 H210 0.951 . S
C218 C213 1.429 . S
C218 C217 1.347 . S
H219 C220 0.951 . S
C220 H219 0.951 . S
C220 C226 1.265 . S
H221 C226 0.950 . S
H222 C230 0.949 . S
H223 C231 0.950 . S
H224 C232 0.951 . S
H225 C233 0.951 . S
C226 C220 1.265 . S
C226 H221 0.950 . S
C226 C227 1.478 . S
C227 C214 1.394 . S
C227 C226 1.478 . S
C227 C228 1.397 . S
C228 C227 1.397 . S
C228 C229 1.438 1_565 S
C228 C233 1.429 . S
C229 C212 1.394 . S
C229 C228 1.438 1_545 S
C229 C230 1.428 . S
C230 H222 0.949 . S
C230 C229 1.428 . S
C230 C231 1.345 . S
C231 H223 0.950 . S
C231 C230 1.345 . S
C231 C232 1.424 1_545 S
C232 H224 0.951 . S
C232 C231 1.424 1_565 S
C232 C233 1.347 . S
C233 H225 0.951 . S
C233 C228 1.429 . S
C233 C232 1.347 . S
H234 C235 0.951 . S
C235 H234 0.951 . S
C235 C241 1.265 . S
H236 C241 0.950 . S
H237 C245 0.949 . S
H238 C246 0.950 1_655 S
H239 C247 0.951 . S
H240 C248 0.951 . S
C241 C235 1.265 . S
C241 H236 0.950 . S
C241 C242 1.478 . S
C242 C241 1.478 . S
C242 C243 1.397 . S
C242 C259 1.394 . S
C243 C242 1.397 . S
C243 C244 1.438 1_455 S
C243 C248 1.429 . S
C244 C243 1.438 1_655 S
C244 C245 1.428 . S
C244 C257 1.394 . S
C245 H237 0.949 . S
C245 C244 1.428 . S
C245 C246 1.345 1_655 S
C246 H238 0.950 1_455 S
C246 C245 1.345 1_455 S
C246 C247 1.424 . S
C247 H239 0.951 . S
C247 C246 1.424 . S
C247 C248 1.347 . S
C248 H240 0.951 . S
C248 C243 1.429 . S
C248 C247 1.347 . S
H249 C250 0.951 . S
C250 H249 0.951 . S
C250 C256 1.265 . S
H251 C256 0.950 . S
H252 C260 0.949 . S
H253 C261 0.950 1_455 S
H254 C262 0.951 . S
H255 C263 0.951 . S
C256 C250 1.265 . S
C256 H251 0.950 . S
C256 C257 1.478 . S
C257 C244 1.394 . S
C257 C256 1.478 . S
C257 C258 1.397 . S
C258 C257 1.397 . S
C258 C259 1.438 1_655 S
C258 C263 1.429 . S
C259 C242 1.394 . S
C259 C258 1.438 1_455 S
C259 C260 1.428 . S
C260 H252 0.949 . S
C260 C259 1.428 . S
C260 C261 1.345 1_455 S
C261 H253 0.950 1_655 S
C261 C260 1.345 1_655 S
C261 C262 1.424 . S
C262 H254 0.951 . S
C262 C261 1.424 . S
C262 C263 1.347 . S
C263 H255 0.951 . S
C263 C258 1.429 . S
C263 C262 1.347 . S
H264 C265 0.951 . S
C265 H264 0.951 . S
C265 C271 1.265 . S
H266 C271 0.950 . S
H267 C275 0.949 . S
H268 C276 0.950 . S
H269 C277 0.951 . S
H270 C278 0.951 . S
C271 C265 1.265 . S
C271 H266 0.950 . S
C271 C272 1.478 . S
C272 C271 1.478 . S
C272 C273 1.397 . S
C272 C289 1.394 . S
C273 C272 1.397 . S
C273 C274 1.438 . S
C273 C278 1.429 . S
C274 C273 1.438 . S
C274 C275 1.428 . S
C274 C287 1.394 . S
C275 H267 0.949 . S
C275 C274 1.428 . S
C275 C276 1.345 . S
C276 H268 0.950 . S
C276 C275 1.345 . S
C276 C277 1.424 . S
C277 H269 0.951 . S
C277 C276 1.424 . S
C277 C278 1.347 . S
C278 H270 0.951 . S
C278 C273 1.429 . S
C278 C277 1.347 . S
H279 C280 0.951 . S
C280 H279 0.951 . S
C280 C286 1.265 . S
H281 C286 0.950 . S
H282 C290 0.949 . S
H283 C291 0.950 . S
H284 C292 0.951 . S
H285 C293 0.951 . S
C286 C280 1.265 . S
C286 H281 0.950 . S
C286 C287 1.478 . S
C287 C274 1.394 . S
C287 C286 1.478 . S
C287 C288 1.397 . S
C288 C287 1.397 . S
C288 C289 1.438 . S
C288 C293 1.429 . S
C289 C272 1.394 . S
C289 C288 1.438 . S
C289 C290 1.428 . S
C290 H282 0.949 . S
C290 C289 1.428 . S
C290 C291 1.345 . S
C291 H283 0.950 . S
C291 C290 1.345 . S
C291 C292 1.424 . S
C292 H284 0.951 . S
C292 C291 1.424 . S
C292 C293 1.347 . S
C293 H285 0.951 . S
C293 C288 1.429 . S
C293 C292 1.347 . S
H294 C295 0.951 . S
C295 H294 0.951 . S
C295 C301 1.265 . S
H296 C301 0.950 . S
H297 C305 0.949 . S
H298 C306 0.950 . S
H299 C307 0.951 . S
H300 C308 0.951 . S
C301 C295 1.265 . S
C301 H296 0.950 . S
C301 C302 1.478 . S
C302 C301 1.478 . S
C302 C303 1.397 . S
C302 C319 1.394 . S
C303 C302 1.397 . S
C303 C304 1.438 . S
C303 C308 1.429 . S
C304 C303 1.438 . S
C304 C305 1.428 . S
C304 C317 1.394 . S
C305 H297 0.949 . S
C305 C304 1.428 . S
C305 C306 1.345 . S
C306 H298 0.950 . S
C306 C305 1.345 . S
C306 C307 1.424 . S
C307 H299 0.951 . S
C307 C306 1.424 . S
C307 C308 1.347 . S
C308 H300 0.951 . S
C308 C303 1.429 . S
C308 C307 1.347 . S
H309 C310 0.951 . S
C310 H309 0.951 . S
C310 C316 1.265 . S
H311 C316 0.950 . S
H312 C320 0.949 . S
H313 C321 0.950 . S
H314 C322 0.951 . S
H315 C323 0.951 . S
C316 C310 1.265 . S
C316 H311 0.950 . S
C316 C317 1.478 . S
C317 C304 1.394 . S
C317 C316 1.478 . S
C317 C318 1.397 . S
C318 C317 1.397 . S
C318 C319 1.438 . S
C318 C323 1.429 . S
C319 C302 1.394 . S
C319 C318 1.438 . S
C319 C320 1.428 . S
C320 H312 0.949 . S
C320 C319 1.428 . S
C320 C321 1.345 . S
C321 H313 0.950 . S
C321 C320 1.345 . S
C321 C322 1.424 . S
C322 H314 0.951 . S
C322 C321 1.424 . S
C322 C323 1.347 . S
C323 H315 0.951 . S
C323 C318 1.429 . S
C323 C322 1.347 . S
H324 C325 0.951 . S
C325 H324 0.951 . S
C325 C331 1.265 . S
H326 C331 0.950 . S
H327 C335 0.949 . S
H328 C336 0.950 . S
H329 C337 0.951 . S
H330 C338 0.951 . S
C331 C325 1.265 . S
C331 H326 0.950 . S
C331 C332 1.478 . S
C332 C331 1.478 . S
C332 C333 1.397 . S
C332 C349 1.394 . S
C333 C332 1.397 . S
C333 C334 1.438 . S
C333 C338 1.429 . S
C334 C333 1.438 . S
C334 C335 1.428 . S
C334 C347 1.394 . S
C335 H327 0.949 . S
C335 C334 1.428 . S
C335 C336 1.345 . S
C336 H328 0.950 . S
C336 C335 1.345 . S
C336 C337 1.424 . S
C337 H329 0.951 . S
C337 C336 1.424 . S
C337 C338 1.347 . S
C338 H330 0.951 . S
C338 C333 1.429 . S
C338 C337 1.347 . S
H339 C340 0.951 . S
C340 H339 0.951 . S
C340 C346 1.265 . S
H341 C346 0.950 . S
H342 C350 0.949 . S
H343 C351 0.950 . S
H344 C352 0.951 . S
H345 C353 0.951 . S
C346 C340 1.265 . S
C346 H341 0.950 . S
C346 C347 1.478 . S
C347 C334 1.394 . S
C347 C346 1.478 . S
C347 C348 1.397 . S
C348 C347 1.397 . S
C348 C349 1.438 . S
C348 C353 1.429 . S
C349 C332 1.394 . S
C349 C348 1.438 . S
C349 C350 1.428 . S
C350 H342 0.949 . S
C350 C349 1.428 . S
C350 C351 1.345 . S
C351 H343 0.950 . S
C351 C350 1.345 . S
C351 C352 1.424 . S
C352 H344 0.951 . S
C352 C351 1.424 . S
C352 C353 1.347 . S
C353 H345 0.951 . S
C353 C348 1.429 . S
C353 C352 1.347 . S
H354 C355 0.951 . S
C355 H354 0.951 . S
C355 C361 1.265 . S
H356 C361 0.950 . S
H357 C365 0.949 . S
H358 C366 0.950 . S
H359 C367 0.951 . S
H360 C368 0.951 . S
C361 C355 1.265 . S
C361 H356 0.950 . S
C361 C362 1.478 . S
C362 C361 1.478 . S
C362 C363 1.397 . S
C362 C379 1.394 . S
C363 C362 1.397 . S
C363 C364 1.438 . S
C363 C368 1.429 . S
C364 C363 1.438 . S
C364 C365 1.428 . S
C364 C377 1.394 . S
C365 H357 0.949 . S
C365 C364 1.428 . S
C365 C366 1.345 . S
C366 H358 0.950 . S
C366 C365 1.345 . S
C366 C367 1.424 . S
C367 H359 0.951 . S
C367 C366 1.424 . S
C367 C368 1.347 . S
C368 H360 0.951 . S
C368 C363 1.429 . S
C368 C367 1.347 . S
H369 C370 0.951 . S
C370 H369 0.951 . S
C370 C376 1.265 . S
H371 C376 0.950 . S
H372 C380 0.949 . S
H373 C381 0.950 . S
H374 C382 0.951 . S
H375 C383 0.951 . S
C376 C370 1.265 . S
C376 H371 0.950 . S
C376 C377 1.478 . S
C377 C364 1.394 . S
C377 C376 1.478 . S
C377 C378 1.397 . S
C378 C377 1.397 . S
C378 C379 1.438 . S
C378 C383 1.429 . S
C379 C362 1.394 . S
C379 C378 1.438 . S
C379 C380 1.428 . S
C380 H372 0.949 . S
C380 C379 1.428 . S
C380 C381 1.345 . S
C381 H373 0.950 . S
C381 C380 1.345 . S
C381 C382 1.424 . S
C382 H374 0.951 . S
C382 C381 1.424 . S
C382 C383 1.347 . S
C383 H375 0.951 . S
C383 C378 1.429 . S
C383 C382 1.347 . S
H384 C385 0.951 . S
C385 H384 0.951 . S
C385 C391 1.265 . S
H386 C391 0.950 . S
H387 C395 0.949 . S
H388 C396 0.950 . S
H389 C397 0.951 . S
H390 C398 0.951 . S
C391 C385 1.265 . S
C391 H386 0.950 . S
C391 C392 1.478 . S
C392 C391 1.478 . S
C392 C393 1.397 . S
C392 C409 1.394 . S
C393 C392 1.397 . S
C393 C394 1.438 . S
C393 C398 1.429 . S
C394 C393 1.438 . S
C394 C395 1.428 . S
C394 C407 1.394 . S
C395 H387 0.949 . S
C395 C394 1.428 . S
C395 C396 1.345 . S
C396 H388 0.950 . S
C396 C395 1.345 . S
C396 C397 1.424 . S
C397 H389 0.951 . S
C397 C396 1.424 . S
C397 C398 1.347 . S
C398 H390 0.951 . S
C398 C393 1.429 . S
C398 C397 1.347 . S
H399 C400 0.951 . S
C400 H399 0.951 . S
C400 C406 1.265 . S
H401 C406 0.950 . S
H402 C410 0.949 . S
H403 C411 0.950 . S
H404 C412 0.951 . S
H405 C413 0.951 . S
C406 C400 1.265 . S
C406 H401 0.950 . S
C406 C407 1.478 . S
C407 C394 1.394 . S
C407 C406 1.478 . S
C407 C408 1.397 . S
C408 C407 1.397 . S
C408 C409 1.438 . S
C408 C413 1.429 . S
C409 C392 1.394 . S
C409 C408 1.438 . S
C409 C410 1.428 . S
C410 H402 0.949 . S
C410 C409 1.428 . S
C410 C411 1.345 . S
C411 H403 0.950 . S
C411 C410 1.345 . S
C411 C412 1.424 . S
C412 H404 0.951 . S
C412 C411 1.424 . S
C412 C413 1.347 . S
C413 H405 0.951 . S
C413 C408 1.429 . S
C413 C412 1.347 . S
H414 C415 0.951 . S
C415 H414 0.951 . S
C415 C421 1.265 . S
H416 C421 0.950 . S
H417 C425 0.949 . S
H418 C426 0.950 . S
H419 C427 0.951 . S
H420 C428 0.951 . S
C421 C415 1.265 . S
C421 H416 0.950 . S
C421 C422 1.478 . S
C422 C421 1.478 . S
C422 C423 1.397 . S
C422 C439 1.394 . S
C423 C422 1.397 . S
C423 C424 1.438 . S
C423 C428 1.429 . S
C424 C423 1.438 . S
C424 C425 1.428 . S
C424 C437 1.394 . S
C425 H417 0.949 . S
C425 C424 1.428 . S
C425 C426 1.345 . S
C426 H418 0.950 . S
C426 C425 1.345 . S
C426 C427 1.424 . S
C427 H419 0.951 . S
C427 C426 1.424 . S
C427 C428 1.347 . S
C428 H420 0.951 . S
C428 C423 1.429 . S
C428 C427 1.347 . S
H429 C430 0.951 . S
C430 H429 0.951 . S
C430 C436 1.265 . S
H431 C436 0.950 . S
H432 C440 0.949 . S
H433 C441 0.950 . S
H434 C442 0.951 . S
H435 C443 0.951 . S
C436 C430 1.265 . S
C436 H431 0.950 . S
C436 C437 1.478 . S
C437 C424 1.394 . S
C437 C436 1.478 . S
C437 C438 1.397 . S
C438 C437 1.397 . S
C438 C439 1.438 . S
C438 C443 1.429 . S
C439 C422 1.394 . S
C439 C438 1.438 . S
C439 C440 1.428 . S
C440 H432 0.949 . S
C440 C439 1.428 . S
C440 C441 1.345 . S
C441 H433 0.950 . S
C441 C440 1.345 . S
C441 C442 1.424 . S
C442 H434 0.951 . S
C442 C441 1.424 . S
C442 C443 1.347 . S
C443 H435 0.951 . S
C443 C438 1.429 . S
C443 C442 1.347 . S
H444 C445 0.951 . S
C445 H444 0.951 . S
C445 C451 1.265 . S
H446 C451 0.950 . S
H447 C455 0.949 . S
H448 C456 0.950 . S
H449 C457 0.951 . S
H450 C458 0.951 . S
C451 C445 1.265 . S
C451 H446 0.950 . S
C451 C452 1.478 . S
C452 C451 1.478 . S
C452 C453 1.397 . S
C452 C469 1.394 . S
C453 C452 1.397 . S
C453 C454 1.438 . S
C453 C458 1.429 . S
C454 C453 1.438 . S
C454 C455 1.428 . S
C454 C467 1.394 . S
C455 H447 0.949 . S
C455 C454 1.428 . S
C455 C456 1.345 . S
C456 H448 0.950 . S
C456 C455 1.345 . S
C456 C457 1.424 . S
C457 H449 0.951 . S
C457 C456 1.424 . S
C457 C458 1.347 . S
C458 H450 0.951 . S
C458 C453 1.429 . S
C458 C457 1.347 . S
H459 C460 0.951 . S
C460 H459 0.951 . S
C460 C466 1.265 . S
H461 C466 0.950 . S
H462 C470 0.949 . S
H463 C471 0.950 . S
H464 C472 0.951 . S
H465 C473 0.951 . S
C466 C460 1.265 . S
C466 H461 0.950 . S
C466 C467 1.478 . S
C467 C454 1.394 . S
C467 C466 1.478 . S
C467 C468 1.397 . S
C468 C467 1.397 . S
C468 C469 1.438 . S
C468 C473 1.429 . S
C469 C452 1.394 . S
C469 C468 1.438 . S
C469 C470 1.428 . S
C470 H462 0.949 . S
C470 C469 1.428 . S
C470 C471 1.345 . S
C471 H463 0.950 . S
C471 C470 1.345 . S
C471 C472 1.424 . S
C472 H464 0.951 . S
C472 C471 1.424 . S
C472 C473 1.347 . S
C473 H465 0.951 . S
C473 C468 1.429 . S
C473 C472 1.347 . S
H474 C475 0.951 . S
C475 H474 0.951 . S
C475 C481 1.265 . S
H476 C481 0.950 1_545 S
H477 C485 0.949 . S
H478 C486 0.950 . S
H479 C487 0.951 . S
H480 C488 0.951 . S
C481 C475 1.265 . S
C481 H476 0.950 1_565 S
C481 C482 1.478 1_565 S
C482 C481 1.478 1_545 S
C482 C483 1.397 . S
C482 C499 1.394 . S
C483 C482 1.397 . S
C483 C484 1.438 . S
C483 C488 1.429 1_545 S
C484 C483 1.438 . S
C484 C485 1.428 . S
C484 C497 1.394 . S
C485 H477 0.949 . S
C485 C484 1.428 . S
C485 C486 1.345 . S
C486 H478 0.950 . S
C486 C485 1.345 . S
C486 C487 1.424 1_545 S
C487 H479 0.951 . S
C487 C486 1.424 1_565 S
C487 C488 1.347 . S
C488 H480 0.951 . S
C488 C483 1.429 1_565 S
C488 C487 1.347 . S
H489 C490 0.951 . S
C490 H489 0.951 . S
C490 C496 1.265 . S
H491 C496 0.950 . S
H492 C500 0.949 . S
H493 C501 0.950 . S
H494 C502 0.951 . S
H495 C503 0.951 . S
C496 C490 1.265 . S
C496 H491 0.950 . S
C496 C497 1.478 . S
C497 C484 1.394 . S
C497 C496 1.478 . S
C497 C498 1.397 . S
C498 C497 1.397 . S
C498 C499 1.438 . S
C498 C503 1.429 . S
C499 C482 1.394 . S
C499 C498 1.438 . S
C499 C500 1.428 . S
C500 H492 0.949 . S
C500 C499 1.428 . S
C500 C501 1.345 . S
C501 H493 0.950 . S
C501 C500 1.345 . S
C501 C502 1.424 . S
C502 H494 0.951 . S
C502 C501 1.424 . S
C502 C503 1.347 . S
C503 H495 0.951 . S
C503 C498 1.429 . S
C503 C502 1.347 . S
H504 C505 0.951 . S
C505 H504 0.951 . S
C505 C511 1.265 . S
H506 C511 0.950 . S
H507 C515 0.949 1_455 S
H508 C516 0.950 . S
H509 C517 0.951 . S
H510 C518 0.951 . S
C511 C505 1.265 . S
C511 H506 0.950 . S
C511 C512 1.478 . S
C512 C511 1.478 . S
C512 C513 1.397 1_556 S
C512 C529 1.394 . S
C513 C512 1.397 1_554 S
C513 C514 1.438 . S
C513 C518 1.429 . S
C514 C513 1.438 . S
C514 C515 1.428 . S
C514 C527 1.394 . S
C515 H507 0.949 1_655 S
C515 C514 1.428 . S
C515 C516 1.345 . S
C516 H508 0.950 . S
C516 C515 1.345 . S
C516 C517 1.424 . S
C517 H509 0.951 . S
C517 C516 1.424 . S
C517 C518 1.347 . S
C518 H510 0.951 . S
C518 C513 1.429 . S
C518 C517 1.347 . S
H519 C520 0.951 1_655 S
C520 H519 0.951 1_455 S
C520 C526 1.265 . S
H521 C526 0.950 . S
H522 C530 0.949 . S
H523 C531 0.950 . S
H524 C532 0.951 1_455 S
H525 C533 0.951 . S
C526 C520 1.265 . S
C526 H521 0.950 . S
C526 C527 1.478 1_455 S
C527 C514 1.394 . S
C527 C526 1.478 1_655 S
C527 C528 1.397 . S
C528 C527 1.397 . S
C528 C529 1.438 1_554 S
C528 C533 1.429 1_655 S
C529 C512 1.394 . S
C529 C528 1.438 1_556 S
C529 C530 1.428 . S
C530 H522 0.949 . S
C530 C529 1.428 . S
C530 C531 1.345 . S
C531 H523 0.950 . S
C531 C530 1.345 . S
C531 C532 1.424 . S
C532 H524 0.951 1_655 S
C532 C531 1.424 . S
C532 C533 1.347 1_656 S
C533 H525 0.951 . S
C533 C528 1.429 1_455 S
C533 C532 1.347 1_454 S
H534 C535 0.951 . S
C535 H534 0.951 . S
C535 C541 1.265 . S
H536 C541 0.950 . S
H537 C545 0.949 . S
H538 C546 0.950 . S
H539 C547 0.951 . S
H540 C548 0.951 . S
C541 C535 1.265 . S
C541 H536 0.950 . S
C541 C542 1.478 . S
C542 C541 1.478 . S
C542 C543 1.397 . S
C542 C559 1.394 . S
C543 C542 1.397 . S
C543 C544 1.438 . S
C543 C548 1.429 . S
C544 C543 1.438 . S
C544 C545 1.428 . S
C544 C557 1.394 . S
C545 H537 0.949 . S
C545 C544 1.428 . S
C545 C546 1.345 . S
C546 H538 0.950 . S
C546 C545 1.345 . S
C546 C547 1.424 . S
C547 H539 0.951 . S
C547 C546 1.424 . S
C547 C548 1.347 . S
C548 H540 0.951 . S
C548 C543 1.429 . S
C548 C547 1.347 . S
H549 C550 0.951 . S
C550 H549 0.951 . S
C550 C556 1.265 . S
H551 C556 0.950 . S
H552 C560 0.949 . S
H553 C561 0.950 . S
H554 C562 0.951 . S
H555 C563 0.951 . S
C556 C550 1.265 . S
C556 H551 0.950 . S
C556 C557 1.478 . S
C557 C544 1.394 . S
C557 C556 1.478 . S
C557 C558 1.397 . S
C558 C557 1.397 . S
C558 C559 1.438 . S
C558 C563 1.429 . S
C559 C542 1.394 . S
C559 C558 1.438 . S
C559 C560 1.428 . S
C560 H552 0.949 . S
C560 C559 1.428 . S
C560 C561 1.345 . S
C561 H553 0.950 . S
C561 C560 1.345 . S
C561 C562 1.424 . S
C562 H554 0.951 . S
C562 C561 1.424 . S
C562 C563 1.347 . S
C563 H555 0.951 . S
C563 C558 1.429 . S
C563 C562 1.347 . S
H564 C565 0.951 . S
C565 H564 0.951 . S
C565 C571 1.265 . S
H566 C571 0.950 . S
H567 C575 0.949 . S
H568 C576 0.950 . S
H569 C577 0.951 . S
H570 C578 0.951 . S
C571 C565 1.265 . S
C571 H566 0.950 . S
C571 C572 1.478 . S
C572 C571 1.478 . S
C572 C573 1.397 . S
C572 C589 1.394 . S
C573 C572 1.397 . S
C573 C574 1.438 . S
C573 C578 1.429 . S
C574 C573 1.438 . S
C574 C575 1.428 . S
C574 C587 1.394 . S
C575 H567 0.949 . S
C575 C574 1.428 . S
C575 C576 1.345 . S
C576 H568 0.950 . S
C576 C575 1.345 . S
C576 C577 1.424 . S
C577 H569 0.951 . S
C577 C576 1.424 . S
C577 C578 1.347 . S
C578 H570 0.951 . S
C578 C573 1.429 . S
C578 C577 1.347 . S
H579 C580 0.951 . S
C580 H579 0.951 . S
C580 C586 1.266 . S
H581 C586 0.949 1_455 S
H582 C590 0.949 . S
H583 C591 0.950 . S
H584 C592 0.951 1_655 S
H585 C593 0.951 1_655 S
C586 C580 1.266 . S
C586 H581 0.949 1_655 S
C586 C587 1.478 1_655 S
C587 C574 1.394 . S
C587 C586 1.478 1_455 S
C587 C588 1.397 . S
C588 C587 1.397 . S
C588 C589 1.438 . S
C588 C593 1.429 . S
C589 C572 1.394 . S
C589 C588 1.438 . S
C589 C590 1.428 . S
C590 H582 0.949 . S
C590 C589 1.428 . S
C590 C591 1.345 . S
C591 H583 0.950 . S
C591 C590 1.345 . S
C591 C592 1.424 . S
C592 H584 0.951 1_455 S
C592 C591 1.424 . S
C592 C593 1.347 . S
C593 H585 0.951 1_455 S
C593 C588 1.429 . S
C593 C592 1.347 . S
H594 C595 0.951 . S
C595 H594 0.951 . S
C595 C601 1.265 . S
H596 C601 0.950 . S
H597 C605 0.949 . S
H598 C606 0.950 . S
H599 C607 0.951 . S
H600 C608 0.951 . S
C601 C595 1.265 . S
C601 H596 0.950 . S
C601 C602 1.478 . S
C602 C601 1.478 . S
C602 C603 1.397 . S
C602 C619 1.394 . S
C603 C602 1.397 . S
C603 C604 1.438 . S
C603 C608 1.429 . S
C604 C603 1.438 . S
C604 C605 1.428 . S
C604 C617 1.394 . S
C605 H597 0.949 . S
C605 C604 1.428 . S
C605 C606 1.345 . S
C606 H598 0.950 . S
C606 C605 1.345 . S
C606 C607 1.424 . S
C607 H599 0.951 . S
C607 C606 1.424 . S
C607 C608 1.347 . S
C608 H600 0.951 . S
C608 C603 1.429 . S
C608 C607 1.347 . S
H609 C610 0.951 . S
C610 H609 0.951 . S
C610 C616 1.265 . S
H611 C616 0.950 . S
H612 C620 0.949 . S
H613 C621 0.950 . S
H614 C622 0.951 . S
H615 C623 0.951 . S
C616 C610 1.265 . S
C616 H611 0.950 . S
C616 C617 1.478 . S
C617 C604 1.394 . S
C617 C616 1.478 . S
C617 C618 1.397 . S
C618 C617 1.397 . S
C618 C619 1.438 . S
C618 C623 1.429 . S
C619 C602 1.394 . S
C619 C618 1.438 . S
C619 C620 1.428 . S
C620 H612 0.949 . S
C620 C619 1.428 . S
C620 C621 1.345 . S
C621 H613 0.950 . S
C621 C620 1.345 . S
C621 C622 1.424 . S
C622 H614 0.951 . S
C622 C621 1.424 . S
C622 C623 1.347 . S
C623 H615 0.951 . S
C623 C618 1.429 . S
C623 C622 1.347 . S
H624 C625 0.940 1_565 S
C625 H624 0.940 1_545 S
C625 C631 1.265 . S
H626 C631 0.950 . S
H627 C635 0.949 . S
H628 C636 0.950 . S
H629 C637 0.949 1_556 S
H630 C638 0.951 . S
C631 C625 1.265 . S
C631 H626 0.950 . S
C631 C632 1.478 1_545 S
C632 C631 1.478 1_565 S
C632 C633 1.397 1_565 S
C632 C649 1.394 . S
C633 C632 1.397 1_545 S
C633 C634 1.438 1_546 S
C633 C638 1.429 . S
C634 C633 1.438 1_564 S
C634 C635 1.428 . S
C634 C647 1.394 . S
C635 H627 0.949 . S
C635 C634 1.428 . S
C635 C636 1.345 1_565 S
C636 H628 0.950 . S
C636 C635 1.345 1_545 S
C636 C637 1.443 . S
C637 H629 0.949 1_554 S
C637 C636 1.443 . S
C637 C638 1.330 1_554 S
C638 H630 0.951 . S
C638 C633 1.429 . S
C638 C637 1.330 1_556 S
H639 C640 0.951 . S
C640 H639 0.951 . S
C640 C646 1.265 . S
H641 C646 0.950 . S
H642 C650 0.949 . S
H643 C651 0.950 . S
H644 C652 0.951 . S
H645 C653 0.951 1_554 S
C646 C640 1.265 . S
C646 H641 0.950 . S
C646 C647 1.478 . S
C647 C634 1.394 . S
C647 C646 1.478 . S
C647 C648 1.397 1_554 S
C648 C647 1.397 1_556 S
C648 C649 1.438 . S
C648 C653 1.429 . S
C649 C632 1.394 . S
C649 C648 1.438 . S
C649 C650 1.428 . S
C650 H642 0.949 . S
C650 C649 1.428 . S
C650 C651 1.345 . S
C651 H643 0.950 . S
C651 C650 1.345 . S
C651 C652 1.424 . S
C652 H644 0.951 . S
C652 C651 1.424 . S
C652 C653 1.347 . S
C653 H645 0.951 1_556 S
C653 C648 1.429 . S
C653 C652 1.347 . S
C205 C2 1.955 . S
C220 C172 1.952 . S
C235 C104 1.953 . S
C250 C36 1.954 . S
C265 C138 1.954 . S
C280 C70 1.954 . S
C295 C203 1.504 . S
C310 C5 1.476 . S
C325 C135 1.493 . S
C340 C39 1.496 1_565 S
C355 C73 1.502 1_455 S
C370 C169 1.500 . S
C385 C67 1.501 . S
C400 C107 1.499 . S
C415 C101 1.494 . S
C430 C141 1.488 1_545 S
C445 C175 1.503 1_655 S
C460 C33 1.500 . S
C475 C156 1.289 . S
C490 C9 1.207 . S
C505 C43 1.288 . S
C520 C190 1.294 . S
C535 C122 1.294 . S
C550 C77 1.297 . S
C565 C111 1.238 . S
C580 C88 1.289 . S
C595 C20 1.294 . S
C610 C145 1.303 . S
C625 C54 1.293 . S
C640 C179 1.275 . S
