# Generated by pormake.
# Topology fcp, (5)-cn, num edge types: 1
# Building blocks:
#     Node 0, Type 0, BuildingBlock: BEQFEK_clean_sbu_0, # of connection points: 5
#     Node 1, Type 0, BuildingBlock: BEQFEK_clean_sbu_0, # of connection points: 5
#     Node 2, Type 0, BuildingBlock: BEQFEK_clean_sbu_0, # of connection points: 5
#     Node 3, Type 0, BuildingBlock: BEQFEK_clean_sbu_0, # of connection points: 5
#     Node 4, Type 0, BuildingBlock: BEQFEK_clean_sbu_0, # of connection points: 5
#     Node 5, Type 0, BuildingBlock: BEQFEK_clean_sbu_0, # of connection points: 5
#     Node 6, Type 0, BuildingBlock: BEQFEK_clean_sbu_0, # of connection points: 5
#     Node 7, Type 0, BuildingBlock: BEQFEK_clean_sbu_0, # of connection points: 5
#     Node 8, Type 0, BuildingBlock: BEQFEK_clean_sbu_0, # of connection points: 5
#     Node 9, Type 0, BuildingBlock: BEQFEK_clean_sbu_0, # of connection points: 5
#     Node 10, Type 0, BuildingBlock: BEQFEK_clean_sbu_0, # of connection points: 5
#     Node 11, Type 0, BuildingBlock: BEQFEK_clean_sbu_0, # of connection points: 5
#     Node 12, Type 0, BuildingBlock: BEQFEK_clean_sbu_0, # of connection points: 5
#     Node 13, Type 0, BuildingBlock: BEQFEK_clean_sbu_0, # of connection points: 5
#     Node 14, Type 0, BuildingBlock: BEQFEK_clean_sbu_0, # of connection points: 5
#     Node 15, Type 0, BuildingBlock: BEQFEK_clean_sbu_0, # of connection points: 5
#     Node 16, Type 0, BuildingBlock: BEQFEK_clean_sbu_0, # of connection points: 5
#     Node 17, Type 0, BuildingBlock: BEQFEK_clean_sbu_0, # of connection points: 5
#     Node 18, Type 0, BuildingBlock: BEQFEK_clean_sbu_0, # of connection points: 5
#     Node 19, Type 0, BuildingBlock: BEQFEK_clean_sbu_0, # of connection points: 5
#     Node 20, Type 0, BuildingBlock: BEQFEK_clean_sbu_0, # of connection points: 5
#     Node 21, Type 0, BuildingBlock: BEQFEK_clean_sbu_0, # of connection points: 5
#     Node 22, Type 0, BuildingBlock: BEQFEK_clean_sbu_0, # of connection points: 5
#     Node 23, Type 0, BuildingBlock: BEQFEK_clean_sbu_0, # of connection points: 5
#     Edge 24, Type (0, 0), None
#     Edge 25, Type (0, 0), None
#     Edge 26, Type (0, 0), None
#     Edge 27, Type (0, 0), None
#     Edge 28, Type (0, 0), None
#     Edge 29, Type (0, 0), None
#     Edge 30, Type (0, 0), None
#     Edge 31, Type (0, 0), None
#     Edge 32, Type (0, 0), None
#     Edge 33, Type (0, 0), None
#     Edge 34, Type (0, 0), None
#     Edge 35, Type (0, 0), None
#     Edge 36, Type (0, 0), None
#     Edge 37, Type (0, 0), None
#     Edge 38, Type (0, 0), None
#     Edge 39, Type (0, 0), None
#     Edge 40, Type (0, 0), None
#     Edge 41, Type (0, 0), None
#     Edge 42, Type (0, 0), None
#     Edge 43, Type (0, 0), None
#     Edge 44, Type (0, 0), None
#     Edge 45, Type (0, 0), None
#     Edge 46, Type (0, 0), None
#     Edge 47, Type (0, 0), None
#     Edge 48, Type (0, 0), None
#     Edge 49, Type (0, 0), None
#     Edge 50, Type (0, 0), None
#     Edge 51, Type (0, 0), None
#     Edge 52, Type (0, 0), None
#     Edge 53, Type (0, 0), None
#     Edge 54, Type (0, 0), None
#     Edge 55, Type (0, 0), None
#     Edge 56, Type (0, 0), None
#     Edge 57, Type (0, 0), None
#     Edge 58, Type (0, 0), None
#     Edge 59, Type (0, 0), None
#     Edge 60, Type (0, 0), None
#     Edge 61, Type (0, 0), None
#     Edge 62, Type (0, 0), None
#     Edge 63, Type (0, 0), None
#     Edge 64, Type (0, 0), None
#     Edge 65, Type (0, 0), None
#     Edge 66, Type (0, 0), None
#     Edge 67, Type (0, 0), None
#     Edge 68, Type (0, 0), None
#     Edge 69, Type (0, 0), None
#     Edge 70, Type (0, 0), None
#     Edge 71, Type (0, 0), None
#     Edge 72, Type (0, 0), None
#     Edge 73, Type (0, 0), None
#     Edge 74, Type (0, 0), None
#     Edge 75, Type (0, 0), None
#     Edge 76, Type (0, 0), None
#     Edge 77, Type (0, 0), None
#     Edge 78, Type (0, 0), None
#     Edge 79, Type (0, 0), None
#     Edge 80, Type (0, 0), None
#     Edge 81, Type (0, 0), None
#     Edge 82, Type (0, 0), None
#     Edge 83, Type (0, 0), None
# Relax obj value: 0.292
# Max RMSD: 0.213
# Mean RMSD: 0.213
data_MOF--net-fcp--node1-BEQFEK_clean_sbu_0--edge1-none
_symmetry_space_group_name_H-M    P1
_symmetry_Int_Tables_number       1
_symmetry_cell_setting            triclinic
loop_
_symmetry_equiv_pos_as_xyz
'x, y, z'
_cell_length_a     26.775624
_cell_length_b     26.775641
_cell_length_c     26.774952
_cell_angle_alpha  90.000064
_cell_angle_beta   90.000369
_cell_angle_gamma 89.999915
loop_
_atom_site_label
_atom_site_type_symbol
_atom_site_fract_x
_atom_site_fract_y
_atom_site_fract_z
_atom_type_partial_charge
Co0 Co 0.00694 0.35277 0.1799 0.0
Co1 Co 0.10761 0.31715 0.13168 0.0
C2 C 0.05163 0.25503 0.20634 0.0
O3 O 0.01512 0.28505 0.20694 0.0
O4 O 0.08961 0.26282 0.17895 0.0
C5 C 0.93412 0.3633 0.25503 0.0
O6 O 0.96024 0.32695 0.27485 0.0
C7 C 0.17532 0.24845 0.08226 0.0
C8 C 0.23305 0.29758 0.05082 0.0
C9 C 0.21965 0.24779 0.05608 0.0
N10 N 0.1631 0.29589 0.09261 0.0
N11 N 0.19735 0.32538 0.07285 0.0
C12 C 0.14404 0.20496 0.0964 0.0
H13 H 0.10408 0.21298 0.08892 0.0
H14 H 0.15563 0.17058 0.07636 0.0
H15 H 0.1482 0.20024 0.13694 0.0
C16 C 0.98409 0.36974 0.06866 0.0
N17 N 0.01351 0.35531 0.10721 0.0
N18 N 0.05477 0.33624 0.08844 0.0
C19 C 0.05213 0.33601 0.03807 0.0
C20 C 0.0077 0.35797 0.02319 0.0
C21 C 0.9345 0.39449 0.07559 0.0
H22 H 0.93809 0.42493 0.10351 0.0
H23 H 0.9075 0.36701 0.09084 0.0
H24 H 0.92014 0.40982 0.03985 0.0
O25 O 0.05874 0.39228 0.21356 0.0
O26 O 0.12961 0.37389 0.17457 0.0
H27 H 0.12276 0.33159 0.00089 0.0
H28 H 0.0726 0.30116 0.96766 0.0
C29 C 0.08833 0.30897 0.00508 0.0
H30 H 0.09801 0.27263 0.02195 0.0
H31 H 0.1971 0.36425 0.07567 0.0
O32 O 0.94469 0.37931 0.21122 0.0
C33 C 0.10548 0.39744 0.20819 0.0
Co34 Co 0.85278 0.48752 0.31457 0.0
Co35 Co 0.81717 0.38685 0.36277 0.0
C36 C 0.75504 0.44283 0.28812 0.0
O37 O 0.78506 0.47934 0.28752 0.0
O38 O 0.76284 0.40485 0.3155 0.0
C39 C 0.8633 0.56036 0.23945 0.0
O40 O 0.82693 0.53426 0.21963 0.0
C41 C 0.74848 0.31913 0.41218 0.0
C42 C 0.7976 0.2614 0.44363 0.0
C43 C 0.74782 0.27481 0.43836 0.0
N44 N 0.79591 0.33136 0.40184 0.0
N45 N 0.8254 0.2971 0.4216 0.0
C46 C 0.70498 0.35041 0.39804 0.0
H47 H 0.713 0.39037 0.40551 0.0
H48 H 0.6706 0.33883 0.41809 0.0
H49 H 0.70026 0.34624 0.35751 0.0
C50 C 0.86974 0.51036 0.42581 0.0
N51 N 0.85532 0.48095 0.38725 0.0
N52 N 0.83625 0.43968 0.40602 0.0
C53 C 0.83601 0.44232 0.45639 0.0
C54 C 0.85798 0.48675 0.47128 0.0
C55 C 0.89449 0.55995 0.41889 0.0
H56 H 0.92493 0.55637 0.39096 0.0
H57 H 0.86701 0.58696 0.40363 0.0
H58 H 0.90982 0.57432 0.45462 0.0
O59 O 0.89229 0.43573 0.2809 0.0
O60 O 0.8739 0.36486 0.31989 0.0
H61 H 0.83159 0.37169 0.49356 0.0
H62 H 0.80117 0.42185 0.5268 0.0
C63 C 0.80898 0.40612 0.48938 0.0
H64 H 0.77264 0.39644 0.47251 0.0
H65 H 0.86427 0.29736 0.41878 0.0
O66 O 0.87932 0.54978 0.28326 0.0
C67 C 0.89745 0.38899 0.28627 0.0
Co68 Co 0.98753 0.64168 0.17991 0.0
Co69 Co 0.88686 0.67731 0.1317 0.0
C70 C 0.94286 0.73944 0.20634 0.0
O71 O 0.97936 0.70941 0.20695 0.0
O72 O 0.90487 0.73165 0.17895 0.0
C73 C 0.06037 0.63116 0.25502 0.0
O74 O 0.03428 0.66753 0.27484 0.0
C75 C 0.81914 0.74599 0.08227 0.0
C76 C 0.76141 0.69685 0.05084 0.0
C77 C 0.77481 0.74664 0.0561 0.0
N78 N 0.83137 0.69856 0.09262 0.0
N79 N 0.79711 0.66906 0.07288 0.0
C80 C 0.85041 0.7895 0.0964 0.0
H81 H 0.89037 0.78148 0.08892 0.0
H82 H 0.83882 0.82387 0.07635 0.0
H83 H 0.84626 0.79422 0.13693 0.0
C84 C 0.01037 0.62471 0.06867 0.0
N85 N 0.98096 0.63915 0.10722 0.0
N86 N 0.93969 0.65821 0.08845 0.0
C87 C 0.94233 0.65845 0.03808 0.0
C88 C 0.98676 0.63647 0.02319 0.0
C89 C 0.05996 0.59996 0.07559 0.0
H90 H 0.05638 0.56952 0.10352 0.0
H91 H 0.08697 0.62744 0.09084 0.0
H92 H 0.07432 0.58462 0.03985 0.0
O93 O 0.93574 0.60218 0.21357 0.0
O94 O 0.86487 0.62059 0.1746 0.0
H95 H 0.8717 0.66287 0.00091 0.0
H96 H 0.92186 0.69329 0.96767 0.0
C97 C 0.90613 0.68549 0.00509 0.0
H98 H 0.89645 0.72183 0.02196 0.0
H99 H 0.79737 0.63019 0.07571 0.0
O100 O 0.04979 0.61514 0.21122 0.0
C101 C 0.889 0.59703 0.20821 0.0
Co102 Co 0.14169 0.50693 0.31456 0.0
Co103 Co 0.17732 0.60759 0.36278 0.0
C104 C 0.23945 0.55159 0.28814 0.0
O105 O 0.20942 0.51509 0.28753 0.0
O106 O 0.23166 0.58958 0.31552 0.0
C107 C 0.13117 0.4341 0.23943 0.0
O108 O 0.16754 0.46021 0.21961 0.0
C109 C 0.246 0.67532 0.41221 0.0
C110 C 0.19686 0.73305 0.44363 0.0
C111 C 0.24665 0.71965 0.43838 0.0
N112 N 0.19857 0.66308 0.40186 0.0
N113 N 0.16907 0.69734 0.4216 0.0
C114 C 0.28951 0.64404 0.39808 0.0
H115 H 0.2815 0.60408 0.40557 0.0
H116 H 0.32388 0.65564 0.41812 0.0
H117 H 0.29422 0.64819 0.35755 0.0
C118 C 0.12472 0.48408 0.4258 0.0
N119 N 0.13915 0.51349 0.38725 0.0
N120 N 0.15822 0.55476 0.40602 0.0
C121 C 0.15845 0.55212 0.45639 0.0
C122 C 0.13648 0.50769 0.47128 0.0
C123 C 0.09996 0.43449 0.41887 0.0
H124 H 0.06953 0.43808 0.39095 0.0
H125 H 0.12744 0.40748 0.40362 0.0
H126 H 0.08462 0.42013 0.45461 0.0
O127 O 0.10219 0.55872 0.28089 0.0
O128 O 0.1206 0.62959 0.31988 0.0
H129 H 0.16287 0.62275 0.49357 0.0
H130 H 0.19329 0.57258 0.5268 0.0
C131 C 0.18549 0.58832 0.48938 0.0
H132 H 0.22183 0.598 0.47251 0.0
H133 H 0.1302 0.69708 0.41877 0.0
O134 O 0.11515 0.44467 0.28324 0.0
C135 C 0.09704 0.60546 0.28626 0.0
Co136 Co 0.00692 0.64167 0.81454 0.0
Co137 Co 0.10756 0.67731 0.8628 0.0
C138 C 0.05162 0.73942 0.7881 0.0
O139 O 0.01511 0.70938 0.78748 0.0
O140 O 0.08958 0.73164 0.81552 0.0
C141 C 0.93406 0.63117 0.73942 0.0
O142 O 0.96013 0.66756 0.7196 0.0
C143 C 0.17528 0.746 0.91223 0.0
C144 C 0.23298 0.69686 0.94371 0.0
C145 C 0.21959 0.74665 0.93841 0.0
N146 N 0.16303 0.69856 0.9019 0.0
N147 N 0.19727 0.66907 0.92168 0.0
C148 C 0.14402 0.7895 0.89805 0.0
H149 H 0.10405 0.7815 0.9055 0.0
H150 H 0.1556 0.82388 0.9181 0.0
H151 H 0.14821 0.7942 0.85752 0.0
C152 C 0.98401 0.62472 0.92576 0.0
N153 N 0.01345 0.63915 0.88723 0.0
N154 N 0.0547 0.65824 0.90602 0.0
C155 C 0.05202 0.6585 0.95639 0.0
C156 C 0.00757 0.63657 0.97124 0.0
C157 C 0.93445 0.59993 0.91881 0.0
H158 H 0.93807 0.5695 0.89088 0.0
H159 H 0.90743 0.62739 0.90355 0.0
H160 H 0.92008 0.58458 0.95454 0.0
O161 O 0.05872 0.60216 0.78091 0.0
O162 O 0.12957 0.62057 0.81992 0.0
H163 H 0.12262 0.66293 0.99364 0.0
H164 H 0.07242 0.69338 0.0268 0.0
C165 C 0.0882 0.68555 0.9894 0.0
H166 H 0.09791 0.72188 0.97251 0.0
H167 H 0.197 0.6302 0.91888 0.0
O168 O 0.94466 0.61514 0.78321 0.0
C169 C 0.10545 0.59701 0.7863 0.0
Co170 Co 0.14168 0.48752 0.67992 0.0
Co171 Co 0.17732 0.38688 0.63166 0.0
C172 C 0.23942 0.44282 0.70637 0.0
O173 O 0.20939 0.47932 0.70698 0.0
O174 O 0.23164 0.40485 0.67895 0.0
C175 C 0.13116 0.56035 0.75506 0.0
O176 O 0.16755 0.53426 0.77488 0.0
C177 C 0.24601 0.31917 0.58223 0.0
C178 C 0.19688 0.26147 0.55074 0.0
C179 C 0.24667 0.27485 0.55604 0.0
N180 N 0.19858 0.33141 0.59256 0.0
N181 N 0.16909 0.29717 0.57277 0.0
C182 C 0.28951 0.35043 0.59641 0.0
H183 H 0.28151 0.3904 0.58896 0.0
H184 H 0.32389 0.33885 0.57637 0.0
H185 H 0.29421 0.34624 0.63694 0.0
C186 C 0.12473 0.51043 0.56871 0.0
N187 N 0.13916 0.48099 0.60724 0.0
N188 N 0.15825 0.43974 0.58844 0.0
C189 C 0.15851 0.44242 0.53807 0.0
C190 C 0.13657 0.48688 0.52323 0.0
C191 C 0.09993 0.55999 0.57566 0.0
H192 H 0.0695 0.55636 0.60359 0.0
H193 H 0.12739 0.58701 0.59093 0.0
H194 H 0.08458 0.57436 0.53994 0.0
O195 O 0.10217 0.43571 0.71355 0.0
O196 O 0.12057 0.36486 0.67453 0.0
H197 H 0.16293 0.37183 0.50083 0.0
H198 H 0.19339 0.42203 0.46767 0.0
C199 C 0.18556 0.40625 0.50506 0.0
H200 H 0.22188 0.39654 0.52195 0.0
H201 H 0.13022 0.29743 0.57558 0.0
O202 O 0.11514 0.54977 0.71126 0.0
C203 C 0.09701 0.38898 0.70816 0.0
Co204 Co 0.98752 0.35276 0.81454 0.0
Co205 Co 0.88689 0.31711 0.8628 0.0
C206 C 0.94285 0.255 0.78811 0.0
O207 O 0.97934 0.28504 0.78749 0.0
O208 O 0.90488 0.26277 0.81553 0.0
C209 C 0.06036 0.36327 0.7394 0.0
O210 O 0.03427 0.32688 0.71958 0.0
C211 C 0.81918 0.24842 0.91225 0.0
C212 C 0.76147 0.29756 0.94372 0.0
C213 C 0.77486 0.24777 0.93843 0.0
N214 N 0.83142 0.29585 0.90191 0.0
N215 N 0.79718 0.32535 0.92169 0.0
C216 C 0.85043 0.20491 0.89808 0.0
H217 H 0.8904 0.21291 0.90555 0.0
H218 H 0.83884 0.17054 0.91812 0.0
H219 H 0.84626 0.20022 0.85755 0.0
C220 C 0.01043 0.36972 0.92575 0.0
N221 N 0.98099 0.35528 0.88722 0.0
N222 N 0.93975 0.33619 0.90602 0.0
C223 C 0.94243 0.33594 0.95639 0.0
C224 C 0.98689 0.35788 0.97123 0.0
C225 C 0.05999 0.39452 0.91879 0.0
H226 H 0.05637 0.42495 0.89087 0.0
H227 H 0.08702 0.36706 0.90353 0.0
H228 H 0.07436 0.40987 0.95452 0.0
O229 O 0.93572 0.39226 0.78091 0.0
O230 O 0.86487 0.37384 0.81992 0.0
H231 H 0.87184 0.33151 0.99364 0.0
H232 H 0.92204 0.30106 0.0268 0.0
C233 C 0.90626 0.30889 0.9894 0.0
H234 H 0.89655 0.27256 0.97252 0.0
H235 H 0.79745 0.36422 0.91887 0.0
O236 O 0.04977 0.37929 0.7832 0.0
C237 C 0.88898 0.3974 0.78629 0.0
Co238 Co 0.85276 0.50691 0.67993 0.0
Co239 Co 0.81711 0.60755 0.63167 0.0
C240 C 0.755 0.55159 0.70636 0.0
O241 O 0.78504 0.5151 0.70699 0.0
O242 O 0.76277 0.58956 0.67894 0.0
C243 C 0.86326 0.43406 0.75506 0.0
O244 O 0.82686 0.46012 0.77487 0.0
C245 C 0.74843 0.67526 0.58222 0.0
C246 C 0.79757 0.73297 0.55075 0.0
C247 C 0.74778 0.71959 0.55604 0.0
N248 N 0.79586 0.66302 0.59256 0.0
N249 N 0.82536 0.69726 0.57279 0.0
C250 C 0.70492 0.64401 0.59639 0.0
H251 H 0.71292 0.60404 0.58892 0.0
H252 H 0.67054 0.6556 0.57634 0.0
H253 H 0.70022 0.64819 0.63692 0.0
C254 C 0.86972 0.48401 0.56871 0.0
N255 N 0.85528 0.51345 0.60725 0.0
N256 N 0.83619 0.55469 0.58845 0.0
C257 C 0.83594 0.55201 0.53808 0.0
C258 C 0.85788 0.50756 0.52323 0.0
C259 C 0.89452 0.43445 0.57567 0.0
H260 H 0.92495 0.43808 0.6036 0.0
H261 H 0.86706 0.40742 0.59093 0.0
H262 H 0.90987 0.42008 0.53994 0.0
O263 O 0.89226 0.55871 0.71357 0.0
O264 O 0.87384 0.62956 0.67456 0.0
H265 H 0.83151 0.62261 0.50083 0.0
H266 H 0.80106 0.57241 0.46767 0.0
C267 C 0.80889 0.58818 0.50507 0.0
H268 H 0.77256 0.59789 0.52195 0.0
H269 H 0.86423 0.69699 0.57561 0.0
O270 O 0.8793 0.44466 0.71126 0.0
C271 C 0.8974 0.60545 0.70818 0.0
Co272 Co 0.17988 0.00689 0.35279 0.0
Co273 Co 0.13168 0.10758 0.31725 0.0
C274 C 0.20631 0.05161 0.25507 0.0
O275 O 0.2069 0.01507 0.28506 0.0
O276 O 0.17895 0.0896 0.26292 0.0
C277 C 0.25498 0.93404 0.3633 0.0
O278 O 0.27479 0.96013 0.32692 0.0
C279 C 0.08238 0.17537 0.24858 0.0
C280 C 0.05085 0.23307 0.29771 0.0
C281 C 0.0563 0.21974 0.24793 0.0
N282 N 0.09261 0.16308 0.29602 0.0
N283 N 0.0728 0.19731 0.32551 0.0
C284 C 0.09659 0.14413 0.20507 0.0
H285 H 0.08918 0.10416 0.21308 0.0
H286 H 0.07652 0.15569 0.1707 0.0
H287 H 0.13711 0.14838 0.20036 0.0
C288 C 0.06864 0.98406 0.36977 0.0
N289 N 0.1072 0.01347 0.35535 0.0
N290 N 0.08844 0.05474 0.3363 0.0
C291 C 0.03807 0.05211 0.33605 0.0
C292 C 0.02318 0.00768 0.35801 0.0
C293 C 0.07556 0.93446 0.3945 0.0
H294 H 0.10351 0.93802 0.42492 0.0
H295 H 0.09078 0.90745 0.367 0.0
H296 H 0.03983 0.92011 0.40986 0.0
O297 O 0.21356 0.05867 0.39231 0.0
O298 O 0.17454 0.12954 0.374 0.0
H299 H 0.00085 0.12272 0.33162 0.0
H300 H 0.96769 0.07255 0.30112 0.0
C301 C 0.00509 0.08831 0.30898 0.0
H302 H 0.02201 0.09803 0.27267 0.0
H303 H 0.07551 0.19699 0.36439 0.0
O304 O 0.21118 0.94463 0.37932 0.0
C305 C 0.20818 0.1054 0.39752 0.0
Co306 Co 0.50689 0.31457 0.14168 0.0
Co307 Co 0.60757 0.36277 0.17724 0.0
C308 C 0.55158 0.28816 0.23942 0.0
O309 O 0.51506 0.28756 0.20942 0.0
O310 O 0.58958 0.31552 0.23159 0.0
C311 C 0.43404 0.23948 0.13117 0.0
O312 O 0.46014 0.21966 0.16754 0.0
C313 C 0.67537 0.41208 0.2459 0.0
C314 C 0.73307 0.44359 0.19675 0.0
C315 C 0.71975 0.43815 0.24653 0.0
N316 N 0.66308 0.40183 0.19846 0.0
N317 N 0.6973 0.42163 0.16896 0.0
C318 C 0.64414 0.39789 0.28941 0.0
H319 H 0.60416 0.40532 0.28141 0.0
H320 H 0.65571 0.41796 0.32378 0.0
H321 H 0.64836 0.35736 0.29412 0.0
C322 C 0.48406 0.42581 0.1247 0.0
N323 N 0.51347 0.38725 0.13912 0.0
N324 N 0.55475 0.40601 0.15817 0.0
C325 C 0.55212 0.45638 0.15842 0.0
C326 C 0.50769 0.47127 0.13646 0.0
C327 C 0.43446 0.41889 0.09996 0.0
H328 H 0.43802 0.39094 0.06955 0.0
H329 H 0.40745 0.40367 0.12746 0.0
H330 H 0.42011 0.45462 0.08461 0.0
O331 O 0.55867 0.28088 0.10218 0.0
O332 O 0.62954 0.31989 0.1205 0.0
H333 H 0.62272 0.49359 0.16285 0.0
H334 H 0.57255 0.52676 0.19334 0.0
C335 C 0.58831 0.48936 0.18548 0.0
H336 H 0.59803 0.47244 0.2218 0.0
H337 H 0.69698 0.41891 0.13008 0.0
O338 O 0.44462 0.28328 0.11514 0.0
C339 C 0.6054 0.28626 0.09698 0.0
Co340 Co 0.81454 0.98757 0.35278 0.0
Co341 Co 0.86279 0.88691 0.31721 0.0
C342 C 0.78814 0.94286 0.25504 0.0
O343 O 0.78752 0.97938 0.28505 0.0
O344 O 0.81552 0.90488 0.26287 0.0
C345 C 0.73944 0.06043 0.36328 0.0
O346 O 0.71963 0.03435 0.32689 0.0
C347 C 0.9121 0.81912 0.24855 0.0
C348 C 0.94366 0.76144 0.29771 0.0
C349 C 0.93819 0.77475 0.24792 0.0
N350 N 0.90188 0.83141 0.29599 0.0
N351 N 0.9217 0.79721 0.32549 0.0
C352 C 0.89788 0.85033 0.20504 0.0
H353 H 0.90529 0.89031 0.21303 0.0
H354 H 0.91795 0.83876 0.17067 0.0
H355 H 0.85736 0.84608 0.20034 0.0
C356 C 0.92576 0.01045 0.36976 0.0
N357 N 0.88722 0.98101 0.35533 0.0
N358 N 0.90601 0.93976 0.33626 0.0
C359 C 0.95637 0.94243 0.33599 0.0
C360 C 0.97123 0.98688 0.35792 0.0
C361 C 0.91881 0.06002 0.39453 0.0
H362 H 0.89086 0.05643 0.42494 0.0
H363 H 0.90359 0.08705 0.36705 0.0
H364 H 0.95454 0.07438 0.4099 0.0
O365 O 0.78088 0.93578 0.39229 0.0
O366 O 0.81991 0.86492 0.37396 0.0
H367 H 0.99365 0.87185 0.33156 0.0
H368 H 0.02674 0.92205 0.30103 0.0
C369 C 0.98937 0.90626 0.30892 0.0
H370 H 0.97244 0.89651 0.27262 0.0
H371 H 0.91899 0.79754 0.36437 0.0
O372 O 0.78323 0.04983 0.37932 0.0
C373 C 0.78627 0.88905 0.39748 0.0
Co374 Co 0.48757 0.6799 0.14168 0.0
Co375 Co 0.38691 0.63166 0.17726 0.0
C376 C 0.44286 0.70632 0.23942 0.0
O377 O 0.47938 0.70693 0.20941 0.0
O378 O 0.40488 0.67893 0.2316 0.0
C379 C 0.56042 0.75501 0.13117 0.0
O380 O 0.53434 0.77482 0.16756 0.0
C381 C 0.31912 0.58235 0.24592 0.0
C382 C 0.26145 0.55079 0.19677 0.0
C383 C 0.27476 0.55626 0.24656 0.0
N384 N 0.33142 0.59257 0.19848 0.0
N385 N 0.29721 0.57274 0.16898 0.0
C386 C 0.35034 0.59657 0.28943 0.0
H387 H 0.39032 0.58917 0.28144 0.0
H388 H 0.33878 0.5765 0.32381 0.0
H389 H 0.34608 0.63709 0.29413 0.0
C390 C 0.51045 0.56869 0.12471 0.0
N391 N 0.48102 0.60723 0.13914 0.0
N392 N 0.43976 0.58844 0.15822 0.0
C393 C 0.44243 0.53807 0.15848 0.0
C394 C 0.48689 0.52322 0.13655 0.0
C395 C 0.56002 0.57564 0.09993 0.0
H396 H 0.55643 0.60359 0.06953 0.0
H397 H 0.58705 0.59086 0.12742 0.0
H398 H 0.57438 0.53991 0.08457 0.0
O399 O 0.43578 0.71356 0.10217 0.0
O400 O 0.36492 0.67452 0.12051 0.0
H401 H 0.37186 0.50079 0.16291 0.0
H402 H 0.42206 0.4677 0.19344 0.0
C403 C 0.40627 0.50508 0.18556 0.0
H404 H 0.39652 0.522 0.22186 0.0
H405 H 0.29754 0.57545 0.1301 0.0
O406 O 0.54982 0.71121 0.11515 0.0
C407 C 0.38905 0.70816 0.09698 0.0
Co408 Co 0.17988 0.98758 0.64168 0.0
Co409 Co 0.13168 0.88689 0.67724 0.0
C410 C 0.2063 0.94287 0.73943 0.0
O411 O 0.20691 0.9794 0.70942 0.0
O412 O 0.17893 0.90489 0.7316 0.0
C413 C 0.25496 0.06045 0.63118 0.0
O414 O 0.27477 0.03438 0.66757 0.0
C415 C 0.08238 0.81909 0.74589 0.0
C416 C 0.05087 0.7614 0.69674 0.0
C417 C 0.05631 0.77471 0.74652 0.0
N418 N 0.09262 0.83138 0.69846 0.0
N419 N 0.07282 0.79716 0.66895 0.0
C420 C 0.09656 0.85032 0.78941 0.0
H421 H 0.08914 0.8903 0.78141 0.0
H422 H 0.07649 0.83874 0.82377 0.0
H423 H 0.13709 0.84608 0.79412 0.0
C424 C 0.06865 0.0104 0.6247 0.0
N425 N 0.10721 0.98099 0.63912 0.0
N426 N 0.08844 0.93972 0.65818 0.0
C427 C 0.03808 0.94235 0.65843 0.0
C428 C 0.02318 0.98678 0.63646 0.0
C429 C 0.07556 0.06 0.59996 0.0
H430 H 0.10352 0.05644 0.56955 0.0
H431 H 0.09078 0.08701 0.62746 0.0
H432 H 0.03983 0.07434 0.5846 0.0
O433 O 0.21356 0.9358 0.60217 0.0
O434 O 0.17456 0.86493 0.62051 0.0
H435 H 0.00086 0.87174 0.66285 0.0
H436 H 0.9677 0.92191 0.69335 0.0
C437 C 0.0051 0.90616 0.68549 0.0
H438 H 0.02201 0.89644 0.7218 0.0
H439 H 0.07555 0.79749 0.63008 0.0
O440 O 0.21117 0.04985 0.61514 0.0
C441 C 0.20819 0.88907 0.59698 0.0
Co442 Co 0.48757 0.31457 0.85281 0.0
Co443 Co 0.38687 0.36276 0.81726 0.0
C444 C 0.44285 0.28814 0.75508 0.0
O445 O 0.47938 0.28754 0.78507 0.0
O446 O 0.40485 0.3155 0.76292 0.0
C447 C 0.56044 0.23949 0.86331 0.0
O448 O 0.53437 0.21968 0.82691 0.0
C449 C 0.31908 0.41205 0.7486 0.0
C450 C 0.26138 0.44358 0.79774 0.0
C451 C 0.2747 0.43813 0.74796 0.0
N452 N 0.33136 0.40182 0.79604 0.0
N453 N 0.29714 0.42163 0.82553 0.0
C454 C 0.35031 0.39785 0.70509 0.0
H455 H 0.39029 0.40526 0.7131 0.0
H456 H 0.33875 0.41793 0.67072 0.0
H457 H 0.34606 0.35733 0.70037 0.0
C458 C 0.51039 0.42581 0.86977 0.0
N459 N 0.48098 0.38725 0.85536 0.0
N460 N 0.4397 0.40601 0.83631 0.0
C461 C 0.44233 0.45637 0.83606 0.0
C462 C 0.48676 0.47127 0.85801 0.0
C463 C 0.55999 0.41889 0.89451 0.0
H464 H 0.55644 0.39094 0.92492 0.0
H465 H 0.587 0.40368 0.867 0.0
H466 H 0.57434 0.45463 0.90986 0.0
O467 O 0.4358 0.28088 0.89232 0.0
O468 O 0.36492 0.31989 0.87401 0.0
H469 H 0.37172 0.49359 0.83163 0.0
H470 H 0.42189 0.52674 0.80113 0.0
C471 C 0.40613 0.48935 0.80899 0.0
H472 H 0.39641 0.47243 0.77268 0.0
H473 H 0.29746 0.41891 0.86441 0.0
O474 O 0.54984 0.28328 0.87934 0.0
C475 C 0.38906 0.28626 0.89753 0.0
Co476 Co 0.81455 0.00688 0.64166 0.0
Co477 Co 0.86279 0.10755 0.67722 0.0
C478 C 0.78813 0.05161 0.73939 0.0
O479 O 0.78751 0.01508 0.70939 0.0
O480 O 0.81551 0.08958 0.73156 0.0
C481 C 0.73947 0.934 0.63115 0.0
O482 O 0.71966 0.96006 0.66756 0.0
C483 C 0.91208 0.17534 0.74589 0.0
C484 C 0.94365 0.23301 0.69675 0.0
C485 C 0.93817 0.2197 0.74653 0.0
N486 N 0.90187 0.16304 0.69845 0.0
N487 N 0.9217 0.19724 0.66895 0.0
C488 C 0.89785 0.14412 0.7894 0.0
H489 H 0.90524 0.10413 0.7814 0.0
H490 H 0.91792 0.15567 0.82377 0.0
H491 H 0.85733 0.14839 0.7941 0.0
C492 C 0.92576 0.984 0.6247 0.0
N493 N 0.88722 0.01344 0.63912 0.0
N494 N 0.90601 0.05469 0.65819 0.0
C495 C 0.95637 0.05203 0.65847 0.0
C496 C 0.97123 0.00757 0.63654 0.0
C497 C 0.91882 0.93443 0.59993 0.0
H498 H 0.89088 0.93802 0.56952 0.0
H499 H 0.9036 0.9074 0.62741 0.0
H500 H 0.95455 0.92007 0.58456 0.0
O501 O 0.78089 0.05866 0.60214 0.0
O502 O 0.81993 0.12952 0.62047 0.0
H503 H 0.99365 0.1226 0.6629 0.0
H504 H 0.02674 0.07241 0.69343 0.0
C505 C 0.98937 0.0882 0.68554 0.0
H506 H 0.97244 0.09795 0.72184 0.0
H507 H 0.919 0.19691 0.63007 0.0
O508 O 0.78326 0.94462 0.61512 0.0
C509 C 0.78629 0.10539 0.59694 0.0
Co510 Co 0.50687 0.67991 0.85279 0.0
Co511 Co 0.60754 0.63166 0.81723 0.0
C512 C 0.5516 0.70632 0.75506 0.0
O513 O 0.51507 0.70694 0.78507 0.0
O514 O 0.58957 0.67894 0.76289 0.0
C515 C 0.43399 0.75499 0.86328 0.0
O516 O 0.46004 0.7748 0.82687 0.0
C517 C 0.67533 0.58236 0.74857 0.0
C518 C 0.733 0.55079 0.79772 0.0
C519 C 0.71969 0.55627 0.74793 0.0
N520 N 0.66303 0.59257 0.79601 0.0
N521 N 0.69723 0.57274 0.82551 0.0
C522 C 0.64411 0.59659 0.70506 0.0
H523 H 0.60413 0.5892 0.71305 0.0
H524 H 0.65568 0.57652 0.67069 0.0
H525 H 0.64839 0.63711 0.70036 0.0
C526 C 0.48399 0.56869 0.86976 0.0
N527 N 0.51342 0.60723 0.85534 0.0
N528 N 0.55468 0.58844 0.83626 0.0
C529 C 0.55201 0.53808 0.83599 0.0
C530 C 0.50756 0.52322 0.85792 0.0
C531 C 0.43442 0.57563 0.89454 0.0
H532 H 0.43801 0.60359 0.92494 0.0
H533 H 0.40739 0.59085 0.86705 0.0
H534 H 0.42006 0.53991 0.90991 0.0
O535 O 0.55865 0.71356 0.89231 0.0
O536 O 0.62951 0.67452 0.87398 0.0
H537 H 0.62258 0.50079 0.83157 0.0
H538 H 0.57238 0.46771 0.80103 0.0
C539 C 0.58818 0.50508 0.80892 0.0
H540 H 0.59793 0.52201 0.77262 0.0
H541 H 0.6969 0.57544 0.86439 0.0
O542 O 0.44461 0.71121 0.87933 0.0
C543 C 0.60539 0.70816 0.89751 0.0
Co544 Co 0.35278 0.17986 0.00692 0.0
Co545 Co 0.31716 0.13169 0.10758 0.0
C546 C 0.25498 0.20623 0.0515 0.0
O547 O 0.28502 0.20683 0.015 0.0
O548 O 0.2628 0.17892 0.08953 0.0
C549 C 0.3634 0.25502 0.93421 0.0
O550 O 0.32713 0.27488 0.96043 0.0
C551 C 0.24849 0.08237 0.17538 0.0
C552 C 0.29766 0.05089 0.23308 0.0
C553 C 0.24788 0.0563 0.21976 0.0
N554 N 0.29593 0.09263 0.16308 0.0
N555 N 0.32543 0.07285 0.19731 0.0
C556 C 0.20497 0.09651 0.14413 0.0
H557 H 0.21296 0.08898 0.10416 0.0
H558 H 0.1706 0.07648 0.15576 0.0
H559 H 0.20028 0.13704 0.14825 0.0
C560 C 0.36979 0.06864 0.98409 0.0
N561 N 0.35536 0.10719 0.01351 0.0
N562 N 0.33629 0.08843 0.05477 0.0
C563 C 0.33604 0.03806 0.05214 0.0
C564 C 0.35802 0.02317 0.00771 0.0
C565 C 0.39452 0.07556 0.93449 0.0
H566 H 0.42494 0.1035 0.93805 0.0
H567 H 0.36702 0.09078 0.90749 0.0
H568 H 0.40987 0.03982 0.92014 0.0
O569 O 0.39223 0.21359 0.05873 0.0
O570 O 0.37386 0.17459 0.12959 0.0
H571 H 0.33161 0.00085 0.12275 0.0
H572 H 0.30114 0.96768 0.07258 0.0
C573 C 0.30898 0.00508 0.08833 0.0
H574 H 0.27267 0.02199 0.09804 0.0
H575 H 0.36431 0.07559 0.19699 0.0
O576 O 0.37935 0.21117 0.94468 0.0
C577 C 0.39738 0.20823 0.10547 0.0
Co578 Co 0.35276 0.81455 0.98757 0.0
Co579 Co 0.3171 0.86278 0.88694 0.0
C580 C 0.25495 0.7882 0.943 0.0
O581 O 0.28501 0.78758 0.97948 0.0
O582 O 0.26273 0.81554 0.90498 0.0
C583 C 0.36336 0.7394 0.06031 0.0
O584 O 0.32705 0.71955 0.03414 0.0
C585 C 0.24845 0.91213 0.81914 0.0
C586 C 0.29764 0.94363 0.76146 0.0
C587 C 0.24785 0.9382 0.77476 0.0
N588 N 0.29588 0.90187 0.83145 0.0
N589 N 0.3254 0.92167 0.79724 0.0
C590 C 0.20493 0.89797 0.85037 0.0
H591 H 0.21289 0.90549 0.89033 0.0
H592 H 0.17055 0.91799 0.83873 0.0
H593 H 0.20024 0.85743 0.84623 0.0
C594 C 0.36977 0.92575 0.01045 0.0
N595 N 0.35533 0.88722 0.98102 0.0
N596 N 0.33623 0.90601 0.93977 0.0
C597 C 0.33597 0.95638 0.94245 0.0
C598 C 0.35792 0.97123 0.9869 0.0
C599 C 0.39455 0.9188 0.06002 0.0
H600 H 0.42496 0.89085 0.05642 0.0
H601 H 0.36707 0.90357 0.08705 0.0
H602 H 0.40992 0.95452 0.07438 0.0
O603 O 0.39221 0.78086 0.93575 0.0
O604 O 0.3738 0.81987 0.86491 0.0
H605 H 0.33153 0.99366 0.87187 0.0
H606 H 0.30104 0.02676 0.92208 0.0
C607 C 0.3089 0.98938 0.90629 0.0
H608 H 0.27259 0.97247 0.89655 0.0
H609 H 0.36428 0.91893 0.79758 0.0
O610 O 0.37933 0.78323 0.0498 0.0
C611 C 0.39734 0.78623 0.88901 0.0
Co612 Co 0.31457 0.14168 0.50691 0.0
Co613 Co 0.36276 0.17733 0.60756 0.0
C614 C 0.28822 0.2395 0.55147 0.0
O615 O 0.28762 0.20945 0.51498 0.0
O616 O 0.31554 0.2317 0.5895 0.0
C617 C 0.23942 0.13107 0.4342 0.0
O618 O 0.21956 0.16734 0.46041 0.0
C619 C 0.4121 0.24598 0.67537 0.0
C620 C 0.44356 0.19679 0.73307 0.0
C621 C 0.43816 0.24658 0.71976 0.0
N622 N 0.40183 0.19855 0.66307 0.0
N623 N 0.42159 0.16903 0.69729 0.0
C624 C 0.39797 0.2895 0.64412 0.0
H625 H 0.40551 0.28153 0.60417 0.0
H626 H 0.41799 0.32387 0.65577 0.0
H627 H 0.35743 0.2942 0.64823 0.0
C628 C 0.4258 0.12467 0.48408 0.0
N629 N 0.38724 0.1391 0.51349 0.0
N630 N 0.40601 0.15818 0.55476 0.0
C631 C 0.45638 0.15842 0.55212 0.0
C632 C 0.47127 0.13644 0.5077 0.0
C633 C 0.41887 0.09993 0.43449 0.0
H634 H 0.39093 0.06951 0.43805 0.0
H635 H 0.40365 0.12743 0.40748 0.0
H636 H 0.45461 0.08458 0.42013 0.0
O637 O 0.28085 0.10224 0.55872 0.0
O638 O 0.31984 0.12064 0.62958 0.0
H639 H 0.49359 0.16286 0.62273 0.0
H640 H 0.52677 0.19332 0.57255 0.0
C641 C 0.48937 0.18548 0.58831 0.0
H642 H 0.47246 0.2218 0.59802 0.0
H643 H 0.41884 0.13015 0.69697 0.0
O644 O 0.28327 0.11511 0.44467 0.0
C645 C 0.28621 0.0971 0.60547 0.0
Co646 Co 0.64168 0.17987 0.98757 0.0
Co647 Co 0.67732 0.13169 0.88691 0.0
C648 C 0.7395 0.20622 0.94301 0.0
O649 O 0.70945 0.20684 0.97949 0.0
O650 O 0.7317 0.17891 0.90497 0.0
C651 C 0.63108 0.25502 0.0603 0.0
O652 O 0.66736 0.27487 0.03411 0.0
C653 C 0.74596 0.08236 0.81909 0.0
C654 C 0.69677 0.05091 0.76139 0.0
C655 C 0.74657 0.05631 0.7747 0.0
N656 N 0.69854 0.09263 0.8314 0.0
N657 N 0.66902 0.07287 0.79717 0.0
C658 C 0.78949 0.09648 0.85034 0.0
H659 H 0.78152 0.08895 0.8903 0.0
H660 H 0.82386 0.07646 0.83869 0.0
H661 H 0.79419 0.13702 0.84623 0.0
C662 C 0.62467 0.06865 0.01039 0.0
N663 N 0.6391 0.1072 0.98098 0.0
N664 N 0.65818 0.08844 0.93971 0.0
C665 C 0.65841 0.03807 0.94234 0.0
C666 C 0.63643 0.02318 0.98677 0.0
C667 C 0.59993 0.07557 0.05998 0.0
H668 H 0.56951 0.10351 0.05642 0.0
H669 H 0.62742 0.09079 0.08699 0.0
H670 H 0.58457 0.03983 0.07433 0.0
O671 O 0.60224 0.2136 0.93576 0.0
O672 O 0.62064 0.17462 0.86489 0.0
H673 H 0.66285 0.00086 0.87173 0.0
H674 H 0.69331 0.96769 0.92191 0.0
C675 C 0.68548 0.00509 0.90616 0.0
H676 H 0.72179 0.02199 0.89645 0.0
H677 H 0.63014 0.07562 0.79751 0.0
O678 O 0.61511 0.21117 0.04981 0.0
C679 C 0.5971 0.20825 0.88901 0.0
Co680 Co 0.67988 0.85276 0.50689 0.0
Co681 Co 0.63169 0.81711 0.60754 0.0
C682 C 0.70623 0.75494 0.55146 0.0
O683 O 0.70685 0.785 0.51497 0.0
O684 O 0.67891 0.76274 0.58949 0.0
C685 C 0.75503 0.86336 0.43415 0.0
O686 O 0.77488 0.82706 0.46033 0.0
C687 C 0.58235 0.74848 0.67536 0.0
C688 C 0.5509 0.79767 0.73305 0.0
C689 C 0.5563 0.74788 0.71974 0.0
N690 N 0.59262 0.7959 0.66305 0.0
N691 N 0.57286 0.82543 0.69727 0.0
C692 C 0.59648 0.70495 0.64411 0.0
H693 H 0.58895 0.71292 0.60415 0.0
H694 H 0.57645 0.67058 0.65576 0.0
H695 H 0.63702 0.70025 0.64823 0.0
C696 C 0.56866 0.86978 0.48406 0.0
N697 N 0.60721 0.85534 0.51347 0.0
N698 N 0.58844 0.83626 0.55473 0.0
C699 C 0.53807 0.83602 0.5521 0.0
C700 C 0.52319 0.85801 0.50767 0.0
C701 C 0.57558 0.89453 0.43447 0.0
H702 H 0.60353 0.92494 0.43804 0.0
H703 H 0.5908 0.86703 0.40745 0.0
H704 H 0.53985 0.90988 0.42012 0.0
O705 O 0.71359 0.89221 0.5587 0.0
O706 O 0.67461 0.8738 0.62956 0.0
H707 H 0.50085 0.83159 0.6227 0.0
H708 H 0.46769 0.80112 0.57252 0.0
C709 C 0.50509 0.80896 0.58828 0.0
H710 H 0.52199 0.77264 0.59799 0.0
H711 H 0.57561 0.8643 0.69693 0.0
O712 O 0.71119 0.87933 0.44465 0.0
C713 C 0.70823 0.89735 0.60544 0.0
Co714 Co 0.64167 0.81456 0.00691 0.0
Co715 Co 0.67731 0.86278 0.10754 0.0
C716 C 0.73947 0.7882 0.0515 0.0
O717 O 0.70943 0.78758 0.015 0.0
O718 O 0.73167 0.81553 0.08952 0.0
C719 C 0.63107 0.7394 0.93418 0.0
O720 O 0.66736 0.71954 0.96037 0.0
C721 C 0.74597 0.91211 0.17534 0.0
C722 C 0.69679 0.94362 0.23301 0.0
C723 C 0.74658 0.93818 0.21972 0.0
N724 N 0.69854 0.90187 0.16303 0.0
N725 N 0.66902 0.92167 0.19724 0.0
C726 C 0.78949 0.89794 0.14411 0.0
H727 H 0.78152 0.90544 0.10414 0.0
H728 H 0.82387 0.91796 0.15574 0.0
H729 H 0.79417 0.8574 0.14826 0.0
C730 C 0.62468 0.92576 0.98402 0.0
N731 N 0.63911 0.88723 0.01346 0.0
N732 N 0.6582 0.90601 0.0547 0.0
C733 C 0.65847 0.95638 0.05203 0.0
C734 C 0.63652 0.97123 0.00758 0.0
C735 C 0.5999 0.91881 0.93445 0.0
H736 H 0.56949 0.89087 0.93805 0.0
H737 H 0.62738 0.90358 0.90743 0.0
H738 H 0.58454 0.95454 0.92009 0.0
O739 O 0.60222 0.78086 0.05872 0.0
O740 O 0.6206 0.81989 0.12957 0.0
H741 H 0.6629 0.99366 0.12261 0.0
H742 H 0.69341 0.02676 0.0724 0.0
C743 C 0.68554 0.98938 0.0882 0.0
H744 H 0.72184 0.97246 0.09794 0.0
H745 H 0.63015 0.91894 0.1969 0.0
O746 O 0.61511 0.78324 0.94467 0.0
C747 C 0.59707 0.78625 0.10546 0.0
Co748 Co 0.31456 0.85279 0.48756 0.0
Co749 Co 0.36277 0.81716 0.38692 0.0
C750 C 0.2882 0.75499 0.44297 0.0
O751 O 0.28759 0.78503 0.47947 0.0
O752 O 0.31553 0.7628 0.40495 0.0
C753 C 0.23942 0.86339 0.5603 0.0
O754 O 0.21957 0.8271 0.53411 0.0
C755 C 0.41209 0.7485 0.31912 0.0
C756 C 0.44361 0.79767 0.26143 0.0
C757 C 0.43817 0.74788 0.27474 0.0
N758 N 0.40185 0.79593 0.33142 0.0
N759 N 0.42165 0.82544 0.29721 0.0
C760 C 0.39793 0.70498 0.35035 0.0
H761 H 0.40543 0.71295 0.39032 0.0
H762 H 0.41796 0.6706 0.33873 0.0
H763 H 0.35739 0.70029 0.3462 0.0
C764 C 0.42577 0.86978 0.51043 0.0
N765 N 0.38723 0.85536 0.48099 0.0
N766 N 0.40601 0.83627 0.43974 0.0
C767 C 0.45638 0.836 0.44241 0.0
C768 C 0.47124 0.85793 0.48686 0.0
C769 C 0.41883 0.89455 0.56 0.0
H770 H 0.39088 0.92497 0.55641 0.0
H771 H 0.4036 0.86707 0.58702 0.0
H772 H 0.45456 0.90991 0.57437 0.0
O773 O 0.28085 0.89224 0.43575 0.0
O774 O 0.31987 0.87386 0.36489 0.0
H775 H 0.49365 0.83157 0.37183 0.0
H776 H 0.52676 0.80106 0.42203 0.0
C777 C 0.48938 0.80893 0.40624 0.0
H778 H 0.47246 0.77263 0.3965 0.0
H779 H 0.41892 0.86432 0.29754 0.0
O780 O 0.28326 0.87936 0.5498 0.0
C781 C 0.28623 0.89739 0.38901 0.0
Co782 Co 0.67989 0.14168 0.48755 0.0
Co783 Co 0.63166 0.17732 0.38692 0.0
C784 C 0.70625 0.23947 0.44296 0.0
O785 O 0.70686 0.20943 0.47946 0.0
O786 O 0.67892 0.23167 0.40494 0.0
C787 C 0.75505 0.13107 0.56027 0.0
O788 O 0.7749 0.16736 0.53408 0.0
C789 C 0.58233 0.24598 0.31913 0.0
C790 C 0.55081 0.19681 0.26145 0.0
C791 C 0.55626 0.2466 0.27475 0.0
N792 N 0.59257 0.19855 0.33143 0.0
N793 N 0.57277 0.16904 0.29722 0.0
C794 C 0.5965 0.2895 0.35036 0.0
H795 H 0.589 0.28153 0.39033 0.0
H796 H 0.57648 0.32388 0.33873 0.0
H797 H 0.63704 0.29418 0.34621 0.0
C798 C 0.56869 0.12468 0.51044 0.0
N799 N 0.60722 0.13911 0.481 0.0
N800 N 0.58843 0.15821 0.43976 0.0
C801 C 0.53806 0.15847 0.44243 0.0
C802 C 0.52321 0.13653 0.48688 0.0
C803 C 0.57564 0.09991 0.56001 0.0
H804 H 0.60358 0.06949 0.55641 0.0
H805 H 0.59087 0.12739 0.58703 0.0
H806 H 0.53991 0.08455 0.57437 0.0
O807 O 0.71358 0.10223 0.43574 0.0
O808 O 0.67455 0.12061 0.36489 0.0
H809 H 0.50078 0.1629 0.37185 0.0
H810 H 0.46768 0.19341 0.42206 0.0
C811 C 0.50506 0.18554 0.40626 0.0
H812 H 0.52198 0.22184 0.39652 0.0
H813 H 0.5755 0.13016 0.29756 0.0
O814 O 0.71121 0.11511 0.54978 0.0
C815 C 0.7082 0.09708 0.38899 0.0
loop_
_geom_bond_atom_site_label_1
_geom_bond_atom_site_label_2
_geom_bond_distance
_geom_bond_site_symmetry_2
_ccdc_geom_bond_type
Co0 O3 1.970 . S
Co0 N17 1.989 . S
Co0 O25 1.967 . S
Co0 O32 1.920 1_455 S
Co1 O4 1.966 . S
Co1 N10 2.022 . S
Co1 N18 1.993 . S
Co1 O26 1.941 . S
C2 O3 1.258 . S
C2 O4 1.263 . S
O3 Co0 1.970 . S
O3 C2 1.258 . S
O4 Co1 1.966 . S
O4 C2 1.263 . S
C5 O6 1.235 . S
C5 O32 1.289 . S
O6 C5 1.235 . S
C7 C9 1.400 . S
C7 N10 1.351 . S
C7 C12 1.501 . S
C8 C9 1.387 . S
C8 N11 1.341 . S
C9 C7 1.400 . S
C9 C8 1.387 . S
N10 Co1 2.022 . S
N10 C7 1.351 . S
N10 N11 1.365 . S
N11 C8 1.341 . S
N11 N10 1.365 . S
N11 H31 0.862 . S
C12 C7 1.501 . S
C12 H13 0.961 . S
C12 H14 0.961 . S
C12 H15 0.960 . S
H13 C12 0.961 . S
H14 C12 0.961 . S
H15 C12 0.960 . S
C16 N17 1.342 1_655 S
C16 C20 1.401 1_655 S
C16 C21 1.499 . S
N17 Co0 1.989 . S
N17 C16 1.342 1_455 S
N17 N18 1.388 . S
N18 Co1 1.993 . S
N18 N17 1.388 . S
N18 C19 1.346 . S
C19 N18 1.346 . S
C19 C20 1.396 . S
C19 C29 1.510 . S
C20 C16 1.401 1_455 S
C20 C19 1.396 . S
C21 C16 1.499 . S
C21 H22 0.959 . S
C21 H23 0.960 . S
C21 H24 0.961 . S
H22 C21 0.959 . S
H23 C21 0.960 . S
H24 C21 0.961 . S
O25 Co0 1.967 . S
O25 C33 1.258 . S
O26 Co1 1.941 . S
O26 C33 1.266 . S
H27 C29 0.959 1_556 S
H28 C29 0.961 1_556 S
C29 C19 1.510 . S
C29 H27 0.959 1_554 S
C29 H28 0.961 1_554 S
C29 H30 0.960 . S
H30 C29 0.960 . S
H31 N11 0.862 . S
O32 Co0 1.920 1_655 S
O32 C5 1.289 . S
C33 O25 1.258 . S
C33 O26 1.266 . S
Co34 O37 1.970 . S
Co34 N51 1.989 . S
Co34 O59 1.967 . S
Co34 O66 1.920 . S
Co35 O38 1.966 . S
Co35 N44 2.022 . S
Co35 N52 1.993 . S
Co35 O60 1.941 . S
C36 O37 1.258 . S
C36 O38 1.263 . S
O37 Co34 1.970 . S
O37 C36 1.258 . S
O38 Co35 1.966 . S
O38 C36 1.263 . S
C39 O40 1.235 . S
C39 O66 1.289 . S
O40 C39 1.235 . S
C41 C43 1.400 . S
C41 N44 1.351 . S
C41 C46 1.501 . S
C42 C43 1.387 . S
C42 N45 1.341 . S
C43 C41 1.400 . S
C43 C42 1.387 . S
N44 Co35 2.022 . S
N44 C41 1.351 . S
N44 N45 1.365 . S
N45 C42 1.341 . S
N45 N44 1.365 . S
N45 H65 0.862 . S
C46 C41 1.501 . S
C46 H47 0.961 . S
C46 H48 0.961 . S
C46 H49 0.960 . S
H47 C46 0.961 . S
H48 C46 0.961 . S
H49 C46 0.960 . S
C50 N51 1.342 . S
C50 C54 1.401 . S
C50 C55 1.499 . S
N51 Co34 1.989 . S
N51 C50 1.342 . S
N51 N52 1.388 . S
N52 Co35 1.993 . S
N52 N51 1.388 . S
N52 C53 1.346 . S
C53 N52 1.346 . S
C53 C54 1.396 . S
C53 C63 1.510 . S
C54 C50 1.401 . S
C54 C53 1.396 . S
C55 C50 1.499 . S
C55 H56 0.959 . S
C55 H57 0.960 . S
C55 H58 0.961 . S
H56 C55 0.959 . S
H57 C55 0.960 . S
H58 C55 0.961 . S
O59 Co34 1.967 . S
O59 C67 1.258 . S
O60 Co35 1.941 . S
O60 C67 1.266 . S
H61 C63 0.959 . S
H62 C63 0.961 . S
C63 C53 1.510 . S
C63 H61 0.959 . S
C63 H62 0.961 . S
C63 H64 0.960 . S
H64 C63 0.960 . S
H65 N45 0.862 . S
O66 Co34 1.920 . S
O66 C39 1.289 . S
C67 O59 1.258 . S
C67 O60 1.266 . S
Co68 O71 1.970 . S
Co68 N85 1.989 . S
Co68 O93 1.967 . S
Co68 O100 1.920 1_655 S
Co69 O72 1.966 . S
Co69 N78 2.022 . S
Co69 N86 1.993 . S
Co69 O94 1.941 . S
C70 O71 1.258 . S
C70 O72 1.263 . S
O71 Co68 1.970 . S
O71 C70 1.258 . S
O72 Co69 1.966 . S
O72 C70 1.263 . S
C73 O74 1.235 . S
C73 O100 1.289 . S
O74 C73 1.235 . S
C75 C77 1.400 . S
C75 N78 1.351 . S
C75 C80 1.501 . S
C76 C77 1.387 . S
C76 N79 1.341 . S
C77 C75 1.400 . S
C77 C76 1.387 . S
N78 Co69 2.022 . S
N78 C75 1.351 . S
N78 N79 1.365 . S
N79 C76 1.341 . S
N79 N78 1.365 . S
N79 H99 0.862 . S
C80 C75 1.501 . S
C80 H81 0.961 . S
C80 H82 0.961 . S
C80 H83 0.960 . S
H81 C80 0.961 . S
H82 C80 0.961 . S
H83 C80 0.960 . S
C84 N85 1.342 1_455 S
C84 C88 1.401 1_455 S
C84 C89 1.499 . S
N85 Co68 1.989 . S
N85 C84 1.342 1_655 S
N85 N86 1.388 . S
N86 Co69 1.993 . S
N86 N85 1.388 . S
N86 C87 1.346 . S
C87 N86 1.346 . S
C87 C88 1.396 . S
C87 C97 1.510 . S
C88 C84 1.401 1_655 S
C88 C87 1.396 . S
C89 C84 1.499 . S
C89 H90 0.959 . S
C89 H91 0.960 . S
C89 H92 0.961 . S
H90 C89 0.959 . S
H91 C89 0.960 . S
H92 C89 0.961 . S
O93 Co68 1.967 . S
O93 C101 1.258 . S
O94 Co69 1.941 . S
O94 C101 1.266 . S
H95 C97 0.959 1_556 S
H96 C97 0.961 1_556 S
C97 C87 1.510 . S
C97 H95 0.959 1_554 S
C97 H96 0.961 1_554 S
C97 H98 0.960 . S
H98 C97 0.960 . S
H99 N79 0.862 . S
O100 Co68 1.920 1_455 S
O100 C73 1.289 . S
C101 O93 1.258 . S
C101 O94 1.266 . S
Co102 O105 1.970 . S
Co102 N119 1.989 . S
Co102 O127 1.967 . S
Co102 O134 1.920 . S
Co103 O106 1.966 . S
Co103 N112 2.022 . S
Co103 N120 1.993 . S
Co103 O128 1.941 . S
C104 O105 1.258 . S
C104 O106 1.263 . S
O105 Co102 1.970 . S
O105 C104 1.258 . S
O106 Co103 1.966 . S
O106 C104 1.263 . S
C107 O108 1.235 . S
C107 O134 1.289 . S
O108 C107 1.235 . S
C109 C111 1.400 . S
C109 N112 1.351 . S
C109 C114 1.501 . S
C110 C111 1.387 . S
C110 N113 1.341 . S
C111 C109 1.400 . S
C111 C110 1.387 . S
N112 Co103 2.022 . S
N112 C109 1.351 . S
N112 N113 1.365 . S
N113 C110 1.341 . S
N113 N112 1.365 . S
N113 H133 0.862 . S
C114 C109 1.501 . S
C114 H115 0.961 . S
C114 H116 0.961 . S
C114 H117 0.960 . S
H115 C114 0.961 . S
H116 C114 0.961 . S
H117 C114 0.960 . S
C118 N119 1.342 . S
C118 C122 1.401 . S
C118 C123 1.499 . S
N119 Co102 1.989 . S
N119 C118 1.342 . S
N119 N120 1.388 . S
N120 Co103 1.993 . S
N120 N119 1.388 . S
N120 C121 1.346 . S
C121 N120 1.346 . S
C121 C122 1.396 . S
C121 C131 1.510 . S
C122 C118 1.401 . S
C122 C121 1.396 . S
C123 C118 1.499 . S
C123 H124 0.959 . S
C123 H125 0.960 . S
C123 H126 0.961 . S
H124 C123 0.959 . S
H125 C123 0.960 . S
H126 C123 0.961 . S
O127 Co102 1.967 . S
O127 C135 1.258 . S
O128 Co103 1.941 . S
O128 C135 1.266 . S
H129 C131 0.959 . S
H130 C131 0.961 . S
C131 C121 1.510 . S
C131 H129 0.959 . S
C131 H130 0.961 . S
C131 H132 0.960 . S
H132 C131 0.960 . S
H133 N113 0.862 . S
O134 Co102 1.920 . S
O134 C107 1.289 . S
C135 O127 1.258 . S
C135 O128 1.266 . S
Co136 O139 1.970 . S
Co136 N153 1.989 . S
Co136 O161 1.967 . S
Co136 O168 1.920 1_455 S
Co137 O140 1.966 . S
Co137 N146 2.022 . S
Co137 N154 1.993 . S
Co137 O162 1.941 . S
C138 O139 1.258 . S
C138 O140 1.263 . S
O139 Co136 1.970 . S
O139 C138 1.258 . S
O140 Co137 1.966 . S
O140 C138 1.263 . S
C141 O142 1.235 . S
C141 O168 1.289 . S
O142 C141 1.235 . S
C143 C145 1.400 . S
C143 N146 1.351 . S
C143 C148 1.501 . S
C144 C145 1.387 . S
C144 N147 1.341 . S
C145 C143 1.400 . S
C145 C144 1.387 . S
N146 Co137 2.022 . S
N146 C143 1.351 . S
N146 N147 1.365 . S
N147 C144 1.341 . S
N147 N146 1.365 . S
N147 H167 0.862 . S
C148 C143 1.501 . S
C148 H149 0.961 . S
C148 H150 0.961 . S
C148 H151 0.960 . S
H149 C148 0.961 . S
H150 C148 0.961 . S
H151 C148 0.960 . S
C152 N153 1.342 1_655 S
C152 C156 1.401 1_655 S
C152 C157 1.499 . S
N153 Co136 1.989 . S
N153 C152 1.342 1_455 S
N153 N154 1.388 . S
N154 Co137 1.993 . S
N154 N153 1.388 . S
N154 C155 1.346 . S
C155 N154 1.346 . S
C155 C156 1.396 . S
C155 C165 1.510 . S
C156 C152 1.401 1_455 S
C156 C155 1.396 . S
C157 C152 1.499 . S
C157 H158 0.959 . S
C157 H159 0.960 . S
C157 H160 0.961 . S
H158 C157 0.959 . S
H159 C157 0.960 . S
H160 C157 0.961 . S
O161 Co136 1.967 . S
O161 C169 1.258 . S
O162 Co137 1.941 . S
O162 C169 1.266 . S
H163 C165 0.959 1_554 S
H164 C165 0.961 1_554 S
C165 C155 1.510 . S
C165 H163 0.959 1_556 S
C165 H164 0.961 1_556 S
C165 H166 0.960 . S
H166 C165 0.960 . S
H167 N147 0.862 . S
O168 Co136 1.920 1_655 S
O168 C141 1.289 . S
C169 O161 1.258 . S
C169 O162 1.266 . S
Co170 O173 1.970 . S
Co170 N187 1.989 . S
Co170 O195 1.967 . S
Co170 O202 1.920 . S
Co171 O174 1.966 . S
Co171 N180 2.022 . S
Co171 N188 1.993 . S
Co171 O196 1.941 . S
C172 O173 1.258 . S
C172 O174 1.263 . S
O173 Co170 1.970 . S
O173 C172 1.258 . S
O174 Co171 1.966 . S
O174 C172 1.263 . S
C175 O176 1.235 . S
C175 O202 1.289 . S
O176 C175 1.235 . S
C177 C179 1.400 . S
C177 N180 1.351 . S
C177 C182 1.501 . S
C178 C179 1.387 . S
C178 N181 1.341 . S
C179 C177 1.400 . S
C179 C178 1.387 . S
N180 Co171 2.022 . S
N180 C177 1.351 . S
N180 N181 1.365 . S
N181 C178 1.341 . S
N181 N180 1.365 . S
N181 H201 0.862 . S
C182 C177 1.501 . S
C182 H183 0.961 . S
C182 H184 0.961 . S
C182 H185 0.960 . S
H183 C182 0.961 . S
H184 C182 0.961 . S
H185 C182 0.960 . S
C186 N187 1.342 . S
C186 C190 1.401 . S
C186 C191 1.499 . S
N187 Co170 1.989 . S
N187 C186 1.342 . S
N187 N188 1.388 . S
N188 Co171 1.993 . S
N188 N187 1.388 . S
N188 C189 1.346 . S
C189 N188 1.346 . S
C189 C190 1.396 . S
C189 C199 1.510 . S
C190 C186 1.401 . S
C190 C189 1.396 . S
C191 C186 1.499 . S
C191 H192 0.959 . S
C191 H193 0.960 . S
C191 H194 0.961 . S
H192 C191 0.959 . S
H193 C191 0.960 . S
H194 C191 0.961 . S
O195 Co170 1.967 . S
O195 C203 1.258 . S
O196 Co171 1.941 . S
O196 C203 1.266 . S
H197 C199 0.959 . S
H198 C199 0.961 . S
C199 C189 1.510 . S
C199 H197 0.959 . S
C199 H198 0.961 . S
C199 H200 0.960 . S
H200 C199 0.960 . S
H201 N181 0.862 . S
O202 Co170 1.920 . S
O202 C175 1.289 . S
C203 O195 1.258 . S
C203 O196 1.266 . S
Co204 O207 1.970 . S
Co204 N221 1.989 . S
Co204 O229 1.967 . S
Co204 O236 1.920 1_655 S
Co205 O208 1.966 . S
Co205 N214 2.022 . S
Co205 N222 1.993 . S
Co205 O230 1.941 . S
C206 O207 1.258 . S
C206 O208 1.263 . S
O207 Co204 1.970 . S
O207 C206 1.258 . S
O208 Co205 1.966 . S
O208 C206 1.263 . S
C209 O210 1.235 . S
C209 O236 1.289 . S
O210 C209 1.235 . S
C211 C213 1.400 . S
C211 N214 1.351 . S
C211 C216 1.501 . S
C212 C213 1.387 . S
C212 N215 1.341 . S
C213 C211 1.400 . S
C213 C212 1.387 . S
N214 Co205 2.022 . S
N214 C211 1.351 . S
N214 N215 1.365 . S
N215 C212 1.341 . S
N215 N214 1.365 . S
N215 H235 0.862 . S
C216 C211 1.501 . S
C216 H217 0.961 . S
C216 H218 0.961 . S
C216 H219 0.960 . S
H217 C216 0.961 . S
H218 C216 0.961 . S
H219 C216 0.960 . S
C220 N221 1.342 1_455 S
C220 C224 1.401 1_455 S
C220 C225 1.499 . S
N221 Co204 1.989 . S
N221 C220 1.342 1_655 S
N221 N222 1.388 . S
N222 Co205 1.993 . S
N222 N221 1.388 . S
N222 C223 1.346 . S
C223 N222 1.346 . S
C223 C224 1.396 . S
C223 C233 1.510 . S
C224 C220 1.401 1_655 S
C224 C223 1.396 . S
C225 C220 1.499 . S
C225 H226 0.959 . S
C225 H227 0.960 . S
C225 H228 0.961 . S
H226 C225 0.959 . S
H227 C225 0.960 . S
H228 C225 0.961 . S
O229 Co204 1.967 . S
O229 C237 1.258 . S
O230 Co205 1.941 . S
O230 C237 1.266 . S
H231 C233 0.959 1_554 S
H232 C233 0.961 1_554 S
C233 C223 1.510 . S
C233 H231 0.959 1_556 S
C233 H232 0.961 1_556 S
C233 H234 0.960 . S
H234 C233 0.960 . S
H235 N215 0.862 . S
O236 Co204 1.920 1_455 S
O236 C209 1.289 . S
C237 O229 1.258 . S
C237 O230 1.266 . S
Co238 O241 1.970 . S
Co238 N255 1.989 . S
Co238 O263 1.967 . S
Co238 O270 1.920 . S
Co239 O242 1.966 . S
Co239 N248 2.022 . S
Co239 N256 1.993 . S
Co239 O264 1.941 . S
C240 O241 1.258 . S
C240 O242 1.263 . S
O241 Co238 1.970 . S
O241 C240 1.258 . S
O242 Co239 1.966 . S
O242 C240 1.263 . S
C243 O244 1.235 . S
C243 O270 1.289 . S
O244 C243 1.235 . S
C245 C247 1.400 . S
C245 N248 1.351 . S
C245 C250 1.501 . S
C246 C247 1.387 . S
C246 N249 1.341 . S
C247 C245 1.400 . S
C247 C246 1.387 . S
N248 Co239 2.022 . S
N248 C245 1.351 . S
N248 N249 1.365 . S
N249 C246 1.341 . S
N249 N248 1.365 . S
N249 H269 0.862 . S
C250 C245 1.501 . S
C250 H251 0.961 . S
C250 H252 0.961 . S
C250 H253 0.960 . S
H251 C250 0.961 . S
H252 C250 0.961 . S
H253 C250 0.960 . S
C254 N255 1.342 . S
C254 C258 1.401 . S
C254 C259 1.499 . S
N255 Co238 1.989 . S
N255 C254 1.342 . S
N255 N256 1.388 . S
N256 Co239 1.993 . S
N256 N255 1.388 . S
N256 C257 1.346 . S
C257 N256 1.346 . S
C257 C258 1.396 . S
C257 C267 1.510 . S
C258 C254 1.401 . S
C258 C257 1.396 . S
C259 C254 1.499 . S
C259 H260 0.959 . S
C259 H261 0.960 . S
C259 H262 0.961 . S
H260 C259 0.959 . S
H261 C259 0.960 . S
H262 C259 0.961 . S
O263 Co238 1.967 . S
O263 C271 1.258 . S
O264 Co239 1.941 . S
O264 C271 1.266 . S
H265 C267 0.959 . S
H266 C267 0.961 . S
C267 C257 1.510 . S
C267 H265 0.959 . S
C267 H266 0.961 . S
C267 H268 0.960 . S
H268 C267 0.960 . S
H269 N249 0.862 . S
O270 Co238 1.920 . S
O270 C243 1.289 . S
C271 O263 1.258 . S
C271 O264 1.266 . S
Co272 O275 1.970 . S
Co272 N289 1.989 . S
Co272 O297 1.967 . S
Co272 O304 1.920 1_545 S
Co273 O276 1.966 . S
Co273 N282 2.022 . S
Co273 N290 1.993 . S
Co273 O298 1.941 . S
C274 O275 1.258 . S
C274 O276 1.263 . S
O275 Co272 1.970 . S
O275 C274 1.258 . S
O276 Co273 1.966 . S
O276 C274 1.263 . S
C277 O278 1.235 . S
C277 O304 1.289 . S
O278 C277 1.235 . S
C279 C281 1.400 . S
C279 N282 1.351 . S
C279 C284 1.501 . S
C280 C281 1.387 . S
C280 N283 1.341 . S
C281 C279 1.400 . S
C281 C280 1.387 . S
N282 Co273 2.022 . S
N282 C279 1.351 . S
N282 N283 1.365 . S
N283 C280 1.341 . S
N283 N282 1.365 . S
N283 H303 0.862 . S
C284 C279 1.501 . S
C284 H285 0.961 . S
C284 H286 0.961 . S
C284 H287 0.960 . S
H285 C284 0.961 . S
H286 C284 0.961 . S
H287 C284 0.960 . S
C288 N289 1.342 1_565 S
C288 C292 1.401 1_565 S
C288 C293 1.499 . S
N289 Co272 1.989 . S
N289 C288 1.342 1_545 S
N289 N290 1.388 . S
N290 Co273 1.993 . S
N290 N289 1.388 . S
N290 C291 1.346 . S
C291 N290 1.346 . S
C291 C292 1.396 . S
C291 C301 1.510 . S
C292 C288 1.401 1_545 S
C292 C291 1.396 . S
C293 C288 1.499 . S
C293 H294 0.959 . S
C293 H295 0.960 . S
C293 H296 0.961 . S
H294 C293 0.959 . S
H295 C293 0.960 . S
H296 C293 0.961 . S
O297 Co272 1.967 . S
O297 C305 1.258 . S
O298 Co273 1.941 . S
O298 C305 1.266 . S
H299 C301 0.959 1_655 S
H300 C301 0.961 1_655 S
C301 C291 1.510 . S
C301 H299 0.959 1_455 S
C301 H300 0.961 1_455 S
C301 H302 0.960 . S
H302 C301 0.960 . S
H303 N283 0.862 . S
O304 Co272 1.920 1_565 S
O304 C277 1.289 . S
C305 O297 1.258 . S
C305 O298 1.266 . S
Co306 O309 1.970 . S
Co306 N323 1.989 . S
Co306 O331 1.967 . S
Co306 O338 1.920 . S
Co307 O310 1.966 . S
Co307 N316 2.022 . S
Co307 N324 1.993 . S
Co307 O332 1.941 . S
C308 O309 1.258 . S
C308 O310 1.263 . S
O309 Co306 1.970 . S
O309 C308 1.258 . S
O310 Co307 1.966 . S
O310 C308 1.263 . S
C311 O312 1.235 . S
C311 O338 1.289 . S
O312 C311 1.235 . S
C313 C315 1.400 . S
C313 N316 1.351 . S
C313 C318 1.501 . S
C314 C315 1.387 . S
C314 N317 1.341 . S
C315 C313 1.400 . S
C315 C314 1.387 . S
N316 Co307 2.022 . S
N316 C313 1.351 . S
N316 N317 1.365 . S
N317 C314 1.341 . S
N317 N316 1.365 . S
N317 H337 0.862 . S
C318 C313 1.501 . S
C318 H319 0.961 . S
C318 H320 0.961 . S
C318 H321 0.960 . S
H319 C318 0.961 . S
H320 C318 0.961 . S
H321 C318 0.960 . S
C322 N323 1.342 . S
C322 C326 1.401 . S
C322 C327 1.499 . S
N323 Co306 1.989 . S
N323 C322 1.342 . S
N323 N324 1.388 . S
N324 Co307 1.993 . S
N324 N323 1.388 . S
N324 C325 1.346 . S
C325 N324 1.346 . S
C325 C326 1.396 . S
C325 C335 1.510 . S
C326 C322 1.401 . S
C326 C325 1.396 . S
C327 C322 1.499 . S
C327 H328 0.959 . S
C327 H329 0.960 . S
C327 H330 0.961 . S
H328 C327 0.959 . S
H329 C327 0.960 . S
H330 C327 0.961 . S
O331 Co306 1.967 . S
O331 C339 1.258 . S
O332 Co307 1.941 . S
O332 C339 1.266 . S
H333 C335 0.959 . S
H334 C335 0.961 . S
C335 C325 1.510 . S
C335 H333 0.959 . S
C335 H334 0.961 . S
C335 H336 0.960 . S
H336 C335 0.960 . S
H337 N317 0.862 . S
O338 Co306 1.920 . S
O338 C311 1.289 . S
C339 O331 1.258 . S
C339 O332 1.266 . S
Co340 O343 1.970 . S
Co340 N357 1.989 . S
Co340 O365 1.967 . S
Co340 O372 1.920 1_565 S
Co341 O344 1.966 . S
Co341 N350 2.022 . S
Co341 N358 1.993 . S
Co341 O366 1.941 . S
C342 O343 1.258 . S
C342 O344 1.263 . S
O343 Co340 1.970 . S
O343 C342 1.258 . S
O344 Co341 1.966 . S
O344 C342 1.263 . S
C345 O346 1.235 . S
C345 O372 1.289 . S
O346 C345 1.235 . S
C347 C349 1.400 . S
C347 N350 1.351 . S
C347 C352 1.501 . S
C348 C349 1.387 . S
C348 N351 1.341 . S
C349 C347 1.400 . S
C349 C348 1.387 . S
N350 Co341 2.022 . S
N350 C347 1.351 . S
N350 N351 1.365 . S
N351 C348 1.341 . S
N351 N350 1.365 . S
N351 H371 0.862 . S
C352 C347 1.501 . S
C352 H353 0.961 . S
C352 H354 0.961 . S
C352 H355 0.960 . S
H353 C352 0.961 . S
H354 C352 0.961 . S
H355 C352 0.960 . S
C356 N357 1.342 1_545 S
C356 C360 1.401 1_545 S
C356 C361 1.499 . S
N357 Co340 1.989 . S
N357 C356 1.342 1_565 S
N357 N358 1.388 . S
N358 Co341 1.993 . S
N358 N357 1.388 . S
N358 C359 1.346 . S
C359 N358 1.346 . S
C359 C360 1.396 . S
C359 C369 1.510 . S
C360 C356 1.401 1_565 S
C360 C359 1.396 . S
C361 C356 1.499 . S
C361 H362 0.959 . S
C361 H363 0.960 . S
C361 H364 0.961 . S
H362 C361 0.959 . S
H363 C361 0.960 . S
H364 C361 0.961 . S
O365 Co340 1.967 . S
O365 C373 1.258 . S
O366 Co341 1.941 . S
O366 C373 1.266 . S
H367 C369 0.959 1_455 S
H368 C369 0.961 1_455 S
C369 C359 1.510 . S
C369 H367 0.959 1_655 S
C369 H368 0.961 1_655 S
C369 H370 0.960 . S
H370 C369 0.960 . S
H371 N351 0.862 . S
O372 Co340 1.920 1_545 S
O372 C345 1.289 . S
C373 O365 1.258 . S
C373 O366 1.266 . S
Co374 O377 1.970 . S
Co374 N391 1.989 . S
Co374 O399 1.967 . S
Co374 O406 1.920 . S
Co375 O378 1.966 . S
Co375 N384 2.022 . S
Co375 N392 1.993 . S
Co375 O400 1.941 . S
C376 O377 1.258 . S
C376 O378 1.263 . S
O377 Co374 1.970 . S
O377 C376 1.258 . S
O378 Co375 1.966 . S
O378 C376 1.263 . S
C379 O380 1.235 . S
C379 O406 1.289 . S
O380 C379 1.235 . S
C381 C383 1.400 . S
C381 N384 1.351 . S
C381 C386 1.501 . S
C382 C383 1.387 . S
C382 N385 1.341 . S
C383 C381 1.400 . S
C383 C382 1.387 . S
N384 Co375 2.022 . S
N384 C381 1.351 . S
N384 N385 1.365 . S
N385 C382 1.341 . S
N385 N384 1.365 . S
N385 H405 0.862 . S
C386 C381 1.501 . S
C386 H387 0.961 . S
C386 H388 0.961 . S
C386 H389 0.960 . S
H387 C386 0.961 . S
H388 C386 0.961 . S
H389 C386 0.960 . S
C390 N391 1.342 . S
C390 C394 1.401 . S
C390 C395 1.499 . S
N391 Co374 1.989 . S
N391 C390 1.342 . S
N391 N392 1.388 . S
N392 Co375 1.993 . S
N392 N391 1.388 . S
N392 C393 1.346 . S
C393 N392 1.346 . S
C393 C394 1.396 . S
C393 C403 1.510 . S
C394 C390 1.401 . S
C394 C393 1.396 . S
C395 C390 1.499 . S
C395 H396 0.959 . S
C395 H397 0.960 . S
C395 H398 0.961 . S
H396 C395 0.959 . S
H397 C395 0.960 . S
H398 C395 0.961 . S
O399 Co374 1.967 . S
O399 C407 1.258 . S
O400 Co375 1.941 . S
O400 C407 1.266 . S
H401 C403 0.959 . S
H402 C403 0.961 . S
C403 C393 1.510 . S
C403 H401 0.959 . S
C403 H402 0.961 . S
C403 H404 0.960 . S
H404 C403 0.960 . S
H405 N385 0.862 . S
O406 Co374 1.920 . S
O406 C379 1.289 . S
C407 O399 1.258 . S
C407 O400 1.266 . S
Co408 O411 1.970 . S
Co408 N425 1.989 . S
Co408 O433 1.967 . S
Co408 O440 1.920 1_565 S
Co409 O412 1.966 . S
Co409 N418 2.022 . S
Co409 N426 1.993 . S
Co409 O434 1.941 . S
C410 O411 1.258 . S
C410 O412 1.263 . S
O411 Co408 1.970 . S
O411 C410 1.258 . S
O412 Co409 1.966 . S
O412 C410 1.263 . S
C413 O414 1.235 . S
C413 O440 1.289 . S
O414 C413 1.235 . S
C415 C417 1.400 . S
C415 N418 1.351 . S
C415 C420 1.501 . S
C416 C417 1.387 . S
C416 N419 1.341 . S
C417 C415 1.400 . S
C417 C416 1.387 . S
N418 Co409 2.022 . S
N418 C415 1.351 . S
N418 N419 1.365 . S
N419 C416 1.341 . S
N419 N418 1.365 . S
N419 H439 0.862 . S
C420 C415 1.501 . S
C420 H421 0.961 . S
C420 H422 0.961 . S
C420 H423 0.960 . S
H421 C420 0.961 . S
H422 C420 0.961 . S
H423 C420 0.960 . S
C424 N425 1.342 1_545 S
C424 C428 1.401 1_545 S
C424 C429 1.499 . S
N425 Co408 1.989 . S
N425 C424 1.342 1_565 S
N425 N426 1.388 . S
N426 Co409 1.993 . S
N426 N425 1.388 . S
N426 C427 1.346 . S
C427 N426 1.346 . S
C427 C428 1.396 . S
C427 C437 1.510 . S
C428 C424 1.401 1_565 S
C428 C427 1.396 . S
C429 C424 1.499 . S
C429 H430 0.959 . S
C429 H431 0.960 . S
C429 H432 0.961 . S
H430 C429 0.959 . S
H431 C429 0.960 . S
H432 C429 0.961 . S
O433 Co408 1.967 . S
O433 C441 1.258 . S
O434 Co409 1.941 . S
O434 C441 1.266 . S
H435 C437 0.959 1_655 S
H436 C437 0.961 1_655 S
C437 C427 1.510 . S
C437 H435 0.959 1_455 S
C437 H436 0.961 1_455 S
C437 H438 0.960 . S
H438 C437 0.960 . S
H439 N419 0.862 . S
O440 Co408 1.920 1_545 S
O440 C413 1.289 . S
C441 O433 1.258 . S
C441 O434 1.266 . S
Co442 O445 1.970 . S
Co442 N459 1.989 . S
Co442 O467 1.967 . S
Co442 O474 1.920 . S
Co443 O446 1.966 . S
Co443 N452 2.022 . S
Co443 N460 1.993 . S
Co443 O468 1.941 . S
C444 O445 1.258 . S
C444 O446 1.263 . S
O445 Co442 1.970 . S
O445 C444 1.258 . S
O446 Co443 1.966 . S
O446 C444 1.263 . S
C447 O448 1.235 . S
C447 O474 1.289 . S
O448 C447 1.235 . S
C449 C451 1.400 . S
C449 N452 1.351 . S
C449 C454 1.501 . S
C450 C451 1.387 . S
C450 N453 1.341 . S
C451 C449 1.400 . S
C451 C450 1.387 . S
N452 Co443 2.022 . S
N452 C449 1.351 . S
N452 N453 1.365 . S
N453 C450 1.341 . S
N453 N452 1.365 . S
N453 H473 0.862 . S
C454 C449 1.501 . S
C454 H455 0.961 . S
C454 H456 0.961 . S
C454 H457 0.960 . S
H455 C454 0.961 . S
H456 C454 0.961 . S
H457 C454 0.960 . S
C458 N459 1.342 . S
C458 C462 1.401 . S
C458 C463 1.499 . S
N459 Co442 1.989 . S
N459 C458 1.342 . S
N459 N460 1.388 . S
N460 Co443 1.993 . S
N460 N459 1.388 . S
N460 C461 1.346 . S
C461 N460 1.346 . S
C461 C462 1.396 . S
C461 C471 1.510 . S
C462 C458 1.401 . S
C462 C461 1.396 . S
C463 C458 1.499 . S
C463 H464 0.959 . S
C463 H465 0.960 . S
C463 H466 0.961 . S
H464 C463 0.959 . S
H465 C463 0.960 . S
H466 C463 0.961 . S
O467 Co442 1.967 . S
O467 C475 1.258 . S
O468 Co443 1.941 . S
O468 C475 1.266 . S
H469 C471 0.959 . S
H470 C471 0.961 . S
C471 C461 1.510 . S
C471 H469 0.959 . S
C471 H470 0.961 . S
C471 H472 0.960 . S
H472 C471 0.960 . S
H473 N453 0.862 . S
O474 Co442 1.920 . S
O474 C447 1.289 . S
C475 O467 1.258 . S
C475 O468 1.266 . S
Co476 O479 1.970 . S
Co476 N493 1.989 . S
Co476 O501 1.967 . S
Co476 O508 1.920 1_545 S
Co477 O480 1.966 . S
Co477 N486 2.022 . S
Co477 N494 1.993 . S
Co477 O502 1.941 . S
C478 O479 1.258 . S
C478 O480 1.263 . S
O479 Co476 1.970 . S
O479 C478 1.258 . S
O480 Co477 1.966 . S
O480 C478 1.263 . S
C481 O482 1.235 . S
C481 O508 1.289 . S
O482 C481 1.235 . S
C483 C485 1.400 . S
C483 N486 1.351 . S
C483 C488 1.501 . S
C484 C485 1.387 . S
C484 N487 1.341 . S
C485 C483 1.400 . S
C485 C484 1.387 . S
N486 Co477 2.022 . S
N486 C483 1.351 . S
N486 N487 1.365 . S
N487 C484 1.341 . S
N487 N486 1.365 . S
N487 H507 0.862 . S
C488 C483 1.501 . S
C488 H489 0.961 . S
C488 H490 0.961 . S
C488 H491 0.960 . S
H489 C488 0.961 . S
H490 C488 0.961 . S
H491 C488 0.960 . S
C492 N493 1.342 1_565 S
C492 C496 1.401 1_565 S
C492 C497 1.499 . S
N493 Co476 1.989 . S
N493 C492 1.342 1_545 S
N493 N494 1.388 . S
N494 Co477 1.993 . S
N494 N493 1.388 . S
N494 C495 1.346 . S
C495 N494 1.346 . S
C495 C496 1.396 . S
C495 C505 1.510 . S
C496 C492 1.401 1_545 S
C496 C495 1.396 . S
C497 C492 1.499 . S
C497 H498 0.959 . S
C497 H499 0.960 . S
C497 H500 0.961 . S
H498 C497 0.959 . S
H499 C497 0.960 . S
H500 C497 0.961 . S
O501 Co476 1.967 . S
O501 C509 1.258 . S
O502 Co477 1.941 . S
O502 C509 1.266 . S
H503 C505 0.959 1_455 S
H504 C505 0.961 1_455 S
C505 C495 1.510 . S
C505 H503 0.959 1_655 S
C505 H504 0.961 1_655 S
C505 H506 0.960 . S
H506 C505 0.960 . S
H507 N487 0.862 . S
O508 Co476 1.920 1_565 S
O508 C481 1.289 . S
C509 O501 1.258 . S
C509 O502 1.266 . S
Co510 O513 1.970 . S
Co510 N527 1.989 . S
Co510 O535 1.967 . S
Co510 O542 1.920 . S
Co511 O514 1.966 . S
Co511 N520 2.022 . S
Co511 N528 1.993 . S
Co511 O536 1.941 . S
C512 O513 1.258 . S
C512 O514 1.263 . S
O513 Co510 1.970 . S
O513 C512 1.258 . S
O514 Co511 1.966 . S
O514 C512 1.263 . S
C515 O516 1.235 . S
C515 O542 1.289 . S
O516 C515 1.235 . S
C517 C519 1.400 . S
C517 N520 1.351 . S
C517 C522 1.501 . S
C518 C519 1.387 . S
C518 N521 1.341 . S
C519 C517 1.400 . S
C519 C518 1.387 . S
N520 Co511 2.022 . S
N520 C517 1.351 . S
N520 N521 1.365 . S
N521 C518 1.341 . S
N521 N520 1.365 . S
N521 H541 0.862 . S
C522 C517 1.501 . S
C522 H523 0.961 . S
C522 H524 0.961 . S
C522 H525 0.960 . S
H523 C522 0.961 . S
H524 C522 0.961 . S
H525 C522 0.960 . S
C526 N527 1.342 . S
C526 C530 1.401 . S
C526 C531 1.499 . S
N527 Co510 1.989 . S
N527 C526 1.342 . S
N527 N528 1.388 . S
N528 Co511 1.993 . S
N528 N527 1.388 . S
N528 C529 1.346 . S
C529 N528 1.346 . S
C529 C530 1.396 . S
C529 C539 1.510 . S
C530 C526 1.401 . S
C530 C529 1.396 . S
C531 C526 1.499 . S
C531 H532 0.959 . S
C531 H533 0.960 . S
C531 H534 0.961 . S
H532 C531 0.959 . S
H533 C531 0.960 . S
H534 C531 0.961 . S
O535 Co510 1.967 . S
O535 C543 1.258 . S
O536 Co511 1.941 . S
O536 C543 1.266 . S
H537 C539 0.959 . S
H538 C539 0.961 . S
C539 C529 1.510 . S
C539 H537 0.959 . S
C539 H538 0.961 . S
C539 H540 0.960 . S
H540 C539 0.960 . S
H541 N521 0.862 . S
O542 Co510 1.920 . S
O542 C515 1.289 . S
C543 O535 1.258 . S
C543 O536 1.266 . S
Co544 O547 1.970 . S
Co544 N561 1.989 . S
Co544 O569 1.967 . S
Co544 O576 1.920 1_554 S
Co545 O548 1.966 . S
Co545 N554 2.022 . S
Co545 N562 1.993 . S
Co545 O570 1.941 . S
C546 O547 1.258 . S
C546 O548 1.263 . S
O547 Co544 1.970 . S
O547 C546 1.258 . S
O548 Co545 1.966 . S
O548 C546 1.263 . S
C549 O550 1.235 . S
C549 O576 1.289 . S
O550 C549 1.235 . S
C551 C553 1.400 . S
C551 N554 1.351 . S
C551 C556 1.501 . S
C552 C553 1.387 . S
C552 N555 1.341 . S
C553 C551 1.400 . S
C553 C552 1.387 . S
N554 Co545 2.022 . S
N554 C551 1.351 . S
N554 N555 1.365 . S
N555 C552 1.341 . S
N555 N554 1.365 . S
N555 H575 0.862 . S
C556 C551 1.501 . S
C556 H557 0.961 . S
C556 H558 0.961 . S
C556 H559 0.960 . S
H557 C556 0.961 . S
H558 C556 0.961 . S
H559 C556 0.960 . S
C560 N561 1.342 1_556 S
C560 C564 1.401 1_556 S
C560 C565 1.499 . S
N561 Co544 1.989 . S
N561 C560 1.342 1_554 S
N561 N562 1.388 . S
N562 Co545 1.993 . S
N562 N561 1.388 . S
N562 C563 1.346 . S
C563 N562 1.346 . S
C563 C564 1.396 . S
C563 C573 1.510 . S
C564 C560 1.401 1_554 S
C564 C563 1.396 . S
C565 C560 1.499 . S
C565 H566 0.959 . S
C565 H567 0.960 . S
C565 H568 0.961 . S
H566 C565 0.959 . S
H567 C565 0.960 . S
H568 C565 0.961 . S
O569 Co544 1.967 . S
O569 C577 1.258 . S
O570 Co545 1.941 . S
O570 C577 1.266 . S
H571 C573 0.959 1_565 S
H572 C573 0.961 1_565 S
C573 C563 1.510 . S
C573 H571 0.959 1_545 S
C573 H572 0.961 1_545 S
C573 H574 0.960 . S
H574 C573 0.960 . S
H575 N555 0.862 . S
O576 Co544 1.920 1_556 S
O576 C549 1.289 . S
C577 O569 1.258 . S
C577 O570 1.266 . S
Co578 O581 1.970 . S
Co578 N595 1.989 . S
Co578 O603 1.967 . S
Co578 O610 1.920 1_556 S
Co579 O582 1.966 . S
Co579 N588 2.022 . S
Co579 N596 1.993 . S
Co579 O604 1.941 . S
C580 O581 1.258 . S
C580 O582 1.263 . S
O581 Co578 1.970 . S
O581 C580 1.258 . S
O582 Co579 1.966 . S
O582 C580 1.263 . S
C583 O584 1.235 . S
C583 O610 1.289 . S
O584 C583 1.235 . S
C585 C587 1.400 . S
C585 N588 1.351 . S
C585 C590 1.501 . S
C586 C587 1.387 . S
C586 N589 1.341 . S
C587 C585 1.400 . S
C587 C586 1.387 . S
N588 Co579 2.022 . S
N588 C585 1.351 . S
N588 N589 1.365 . S
N589 C586 1.341 . S
N589 N588 1.365 . S
N589 H609 0.862 . S
C590 C585 1.501 . S
C590 H591 0.961 . S
C590 H592 0.961 . S
C590 H593 0.960 . S
H591 C590 0.961 . S
H592 C590 0.961 . S
H593 C590 0.960 . S
C594 N595 1.342 1_554 S
C594 C598 1.401 1_554 S
C594 C599 1.499 . S
N595 Co578 1.989 . S
N595 C594 1.342 1_556 S
N595 N596 1.388 . S
N596 Co579 1.993 . S
N596 N595 1.388 . S
N596 C597 1.346 . S
C597 N596 1.346 . S
C597 C598 1.396 . S
C597 C607 1.510 . S
C598 C594 1.401 1_556 S
C598 C597 1.396 . S
C599 C594 1.499 . S
C599 H600 0.959 . S
C599 H601 0.960 . S
C599 H602 0.961 . S
H600 C599 0.959 . S
H601 C599 0.960 . S
H602 C599 0.961 . S
O603 Co578 1.967 . S
O603 C611 1.258 . S
O604 Co579 1.941 . S
O604 C611 1.266 . S
H605 C607 0.959 1_545 S
H606 C607 0.961 1_545 S
C607 C597 1.510 . S
C607 H605 0.959 1_565 S
C607 H606 0.961 1_565 S
C607 H608 0.960 . S
H608 C607 0.960 . S
H609 N589 0.862 . S
O610 Co578 1.920 1_554 S
O610 C583 1.289 . S
C611 O603 1.258 . S
C611 O604 1.266 . S
Co612 O615 1.970 . S
Co612 N629 1.989 . S
Co612 O637 1.967 . S
Co612 O644 1.920 . S
Co613 O616 1.966 . S
Co613 N622 2.022 . S
Co613 N630 1.993 . S
Co613 O638 1.941 . S
C614 O615 1.258 . S
C614 O616 1.263 . S
O615 Co612 1.970 . S
O615 C614 1.258 . S
O616 Co613 1.966 . S
O616 C614 1.263 . S
C617 O618 1.235 . S
C617 O644 1.289 . S
O618 C617 1.235 . S
C619 C621 1.400 . S
C619 N622 1.351 . S
C619 C624 1.501 . S
C620 C621 1.387 . S
C620 N623 1.341 . S
C621 C619 1.400 . S
C621 C620 1.387 . S
N622 Co613 2.022 . S
N622 C619 1.351 . S
N622 N623 1.365 . S
N623 C620 1.341 . S
N623 N622 1.365 . S
N623 H643 0.862 . S
C624 C619 1.501 . S
C624 H625 0.961 . S
C624 H626 0.961 . S
C624 H627 0.960 . S
H625 C624 0.961 . S
H626 C624 0.961 . S
H627 C624 0.960 . S
C628 N629 1.342 . S
C628 C632 1.401 . S
C628 C633 1.499 . S
N629 Co612 1.989 . S
N629 C628 1.342 . S
N629 N630 1.388 . S
N630 Co613 1.993 . S
N630 N629 1.388 . S
N630 C631 1.346 . S
C631 N630 1.346 . S
C631 C632 1.396 . S
C631 C641 1.510 . S
C632 C628 1.401 . S
C632 C631 1.396 . S
C633 C628 1.499 . S
C633 H634 0.959 . S
C633 H635 0.960 . S
C633 H636 0.961 . S
H634 C633 0.959 . S
H635 C633 0.960 . S
H636 C633 0.961 . S
O637 Co612 1.967 . S
O637 C645 1.258 . S
O638 Co613 1.941 . S
O638 C645 1.266 . S
H639 C641 0.959 . S
H640 C641 0.961 . S
C641 C631 1.510 . S
C641 H639 0.959 . S
C641 H640 0.961 . S
C641 H642 0.960 . S
H642 C641 0.960 . S
H643 N623 0.862 . S
O644 Co612 1.920 . S
O644 C617 1.289 . S
C645 O637 1.258 . S
C645 O638 1.266 . S
Co646 O649 1.970 . S
Co646 N663 1.989 . S
Co646 O671 1.967 . S
Co646 O678 1.920 1_556 S
Co647 O650 1.966 . S
Co647 N656 2.022 . S
Co647 N664 1.993 . S
Co647 O672 1.941 . S
C648 O649 1.258 . S
C648 O650 1.263 . S
O649 Co646 1.970 . S
O649 C648 1.258 . S
O650 Co647 1.966 . S
O650 C648 1.263 . S
C651 O652 1.235 . S
C651 O678 1.289 . S
O652 C651 1.235 . S
C653 C655 1.400 . S
C653 N656 1.351 . S
C653 C658 1.501 . S
C654 C655 1.387 . S
C654 N657 1.341 . S
C655 C653 1.400 . S
C655 C654 1.387 . S
N656 Co647 2.022 . S
N656 C653 1.351 . S
N656 N657 1.365 . S
N657 C654 1.341 . S
N657 N656 1.365 . S
N657 H677 0.862 . S
C658 C653 1.501 . S
C658 H659 0.961 . S
C658 H660 0.961 . S
C658 H661 0.960 . S
H659 C658 0.961 . S
H660 C658 0.961 . S
H661 C658 0.960 . S
C662 N663 1.342 1_554 S
C662 C666 1.401 1_554 S
C662 C667 1.499 . S
N663 Co646 1.989 . S
N663 C662 1.342 1_556 S
N663 N664 1.388 . S
N664 Co647 1.993 . S
N664 N663 1.388 . S
N664 C665 1.346 . S
C665 N664 1.346 . S
C665 C666 1.396 . S
C665 C675 1.510 . S
C666 C662 1.401 1_556 S
C666 C665 1.396 . S
C667 C662 1.499 . S
C667 H668 0.959 . S
C667 H669 0.960 . S
C667 H670 0.961 . S
H668 C667 0.959 . S
H669 C667 0.960 . S
H670 C667 0.961 . S
O671 Co646 1.967 . S
O671 C679 1.258 . S
O672 Co647 1.941 . S
O672 C679 1.266 . S
H673 C675 0.959 1_565 S
H674 C675 0.961 1_565 S
C675 C665 1.510 . S
C675 H673 0.959 1_545 S
C675 H674 0.961 1_545 S
C675 H676 0.960 . S
H676 C675 0.960 . S
H677 N657 0.862 . S
O678 Co646 1.920 1_554 S
O678 C651 1.289 . S
C679 O671 1.258 . S
C679 O672 1.266 . S
Co680 O683 1.970 . S
Co680 N697 1.989 . S
Co680 O705 1.967 . S
Co680 O712 1.920 . S
Co681 O684 1.966 . S
Co681 N690 2.022 . S
Co681 N698 1.993 . S
Co681 O706 1.941 . S
C682 O683 1.258 . S
C682 O684 1.263 . S
O683 Co680 1.970 . S
O683 C682 1.258 . S
O684 Co681 1.966 . S
O684 C682 1.263 . S
C685 O686 1.235 . S
C685 O712 1.289 . S
O686 C685 1.235 . S
C687 C689 1.400 . S
C687 N690 1.351 . S
C687 C692 1.501 . S
C688 C689 1.387 . S
C688 N691 1.341 . S
C689 C687 1.400 . S
C689 C688 1.387 . S
N690 Co681 2.022 . S
N690 C687 1.351 . S
N690 N691 1.365 . S
N691 C688 1.341 . S
N691 N690 1.365 . S
N691 H711 0.862 . S
C692 C687 1.501 . S
C692 H693 0.961 . S
C692 H694 0.961 . S
C692 H695 0.960 . S
H693 C692 0.961 . S
H694 C692 0.961 . S
H695 C692 0.960 . S
C696 N697 1.342 . S
C696 C700 1.401 . S
C696 C701 1.499 . S
N697 Co680 1.989 . S
N697 C696 1.342 . S
N697 N698 1.388 . S
N698 Co681 1.993 . S
N698 N697 1.388 . S
N698 C699 1.346 . S
C699 N698 1.346 . S
C699 C700 1.396 . S
C699 C709 1.510 . S
C700 C696 1.401 . S
C700 C699 1.396 . S
C701 C696 1.499 . S
C701 H702 0.959 . S
C701 H703 0.960 . S
C701 H704 0.961 . S
H702 C701 0.959 . S
H703 C701 0.960 . S
H704 C701 0.961 . S
O705 Co680 1.967 . S
O705 C713 1.258 . S
O706 Co681 1.941 . S
O706 C713 1.266 . S
H707 C709 0.959 . S
H708 C709 0.961 . S
C709 C699 1.510 . S
C709 H707 0.959 . S
C709 H708 0.961 . S
C709 H710 0.960 . S
H710 C709 0.960 . S
H711 N691 0.862 . S
O712 Co680 1.920 . S
O712 C685 1.289 . S
C713 O705 1.258 . S
C713 O706 1.266 . S
Co714 O717 1.970 . S
Co714 N731 1.989 . S
Co714 O739 1.967 . S
Co714 O746 1.920 1_554 S
Co715 O718 1.966 . S
Co715 N724 2.022 . S
Co715 N732 1.993 . S
Co715 O740 1.941 . S
C716 O717 1.258 . S
C716 O718 1.263 . S
O717 Co714 1.970 . S
O717 C716 1.258 . S
O718 Co715 1.966 . S
O718 C716 1.263 . S
C719 O720 1.235 . S
C719 O746 1.289 . S
O720 C719 1.235 . S
C721 C723 1.400 . S
C721 N724 1.351 . S
C721 C726 1.501 . S
C722 C723 1.387 . S
C722 N725 1.341 . S
C723 C721 1.400 . S
C723 C722 1.387 . S
N724 Co715 2.022 . S
N724 C721 1.351 . S
N724 N725 1.365 . S
N725 C722 1.341 . S
N725 N724 1.365 . S
N725 H745 0.862 . S
C726 C721 1.501 . S
C726 H727 0.961 . S
C726 H728 0.961 . S
C726 H729 0.960 . S
H727 C726 0.961 . S
H728 C726 0.961 . S
H729 C726 0.960 . S
C730 N731 1.342 1_556 S
C730 C734 1.401 1_556 S
C730 C735 1.499 . S
N731 Co714 1.989 . S
N731 C730 1.342 1_554 S
N731 N732 1.388 . S
N732 Co715 1.993 . S
N732 N731 1.388 . S
N732 C733 1.346 . S
C733 N732 1.346 . S
C733 C734 1.396 . S
C733 C743 1.510 . S
C734 C730 1.401 1_554 S
C734 C733 1.396 . S
C735 C730 1.499 . S
C735 H736 0.959 . S
C735 H737 0.960 . S
C735 H738 0.961 . S
H736 C735 0.959 . S
H737 C735 0.960 . S
H738 C735 0.961 . S
O739 Co714 1.967 . S
O739 C747 1.258 . S
O740 Co715 1.941 . S
O740 C747 1.266 . S
H741 C743 0.959 1_545 S
H742 C743 0.961 1_545 S
C743 C733 1.510 . S
C743 H741 0.959 1_565 S
C743 H742 0.961 1_565 S
C743 H744 0.960 . S
H744 C743 0.960 . S
H745 N725 0.862 . S
O746 Co714 1.920 1_556 S
O746 C719 1.289 . S
C747 O739 1.258 . S
C747 O740 1.266 . S
Co748 O751 1.970 . S
Co748 N765 1.989 . S
Co748 O773 1.967 . S
Co748 O780 1.920 . S
Co749 O752 1.966 . S
Co749 N758 2.022 . S
Co749 N766 1.993 . S
Co749 O774 1.941 . S
C750 O751 1.258 . S
C750 O752 1.263 . S
O751 Co748 1.970 . S
O751 C750 1.258 . S
O752 Co749 1.966 . S
O752 C750 1.263 . S
C753 O754 1.235 . S
C753 O780 1.289 . S
O754 C753 1.235 . S
C755 C757 1.400 . S
C755 N758 1.351 . S
C755 C760 1.501 . S
C756 C757 1.387 . S
C756 N759 1.341 . S
C757 C755 1.400 . S
C757 C756 1.387 . S
N758 Co749 2.022 . S
N758 C755 1.351 . S
N758 N759 1.365 . S
N759 C756 1.341 . S
N759 N758 1.365 . S
N759 H779 0.862 . S
C760 C755 1.501 . S
C760 H761 0.961 . S
C760 H762 0.961 . S
C760 H763 0.960 . S
H761 C760 0.961 . S
H762 C760 0.961 . S
H763 C760 0.960 . S
C764 N765 1.342 . S
C764 C768 1.401 . S
C764 C769 1.499 . S
N765 Co748 1.989 . S
N765 C764 1.342 . S
N765 N766 1.388 . S
N766 Co749 1.993 . S
N766 N765 1.388 . S
N766 C767 1.346 . S
C767 N766 1.346 . S
C767 C768 1.396 . S
C767 C777 1.510 . S
C768 C764 1.401 . S
C768 C767 1.396 . S
C769 C764 1.499 . S
C769 H770 0.959 . S
C769 H771 0.960 . S
C769 H772 0.961 . S
H770 C769 0.959 . S
H771 C769 0.960 . S
H772 C769 0.961 . S
O773 Co748 1.967 . S
O773 C781 1.258 . S
O774 Co749 1.941 . S
O774 C781 1.266 . S
H775 C777 0.959 . S
H776 C777 0.961 . S
C777 C767 1.510 . S
C777 H775 0.959 . S
C777 H776 0.961 . S
C777 H778 0.960 . S
H778 C777 0.960 . S
H779 N759 0.862 . S
O780 Co748 1.920 . S
O780 C753 1.289 . S
C781 O773 1.258 . S
C781 O774 1.266 . S
Co782 O785 1.970 . S
Co782 N799 1.989 . S
Co782 O807 1.967 . S
Co782 O814 1.920 . S
Co783 O786 1.966 . S
Co783 N792 2.022 . S
Co783 N800 1.993 . S
Co783 O808 1.941 . S
C784 O785 1.258 . S
C784 O786 1.263 . S
O785 Co782 1.970 . S
O785 C784 1.258 . S
O786 Co783 1.966 . S
O786 C784 1.263 . S
C787 O788 1.235 . S
C787 O814 1.289 . S
O788 C787 1.235 . S
C789 C791 1.400 . S
C789 N792 1.351 . S
C789 C794 1.501 . S
C790 C791 1.387 . S
C790 N793 1.341 . S
C791 C789 1.400 . S
C791 C790 1.387 . S
N792 Co783 2.022 . S
N792 C789 1.351 . S
N792 N793 1.365 . S
N793 C790 1.341 . S
N793 N792 1.365 . S
N793 H813 0.862 . S
C794 C789 1.501 . S
C794 H795 0.961 . S
C794 H796 0.961 . S
C794 H797 0.960 . S
H795 C794 0.961 . S
H796 C794 0.961 . S
H797 C794 0.960 . S
C798 N799 1.342 . S
C798 C802 1.401 . S
C798 C803 1.499 . S
N799 Co782 1.989 . S
N799 C798 1.342 . S
N799 N800 1.388 . S
N800 Co783 1.993 . S
N800 N799 1.388 . S
N800 C801 1.346 . S
C801 N800 1.346 . S
C801 C802 1.396 . S
C801 C811 1.510 . S
C802 C798 1.401 . S
C802 C801 1.396 . S
C803 C798 1.499 . S
C803 H804 0.959 . S
C803 H805 0.960 . S
C803 H806 0.961 . S
H804 C803 0.959 . S
H805 C803 0.960 . S
H806 C803 0.961 . S
O807 Co782 1.967 . S
O807 C815 1.258 . S
O808 Co783 1.941 . S
O808 C815 1.266 . S
H809 C811 0.959 . S
H810 C811 0.961 . S
C811 C801 1.510 . S
C811 H809 0.959 . S
C811 H810 0.961 . S
C811 H812 0.960 . S
H812 C811 0.960 . S
H813 N793 0.862 . S
O814 Co782 1.920 . S
O814 C787 1.289 . S
C815 O807 1.258 . S
C815 O808 1.266 . S
C107 C33 1.819 . S
C5 C67 1.819 . S
C39 C101 1.819 . S
C135 C73 1.819 . S
C175 C169 1.819 . S
C209 C203 1.819 . S
C237 C243 1.819 . S
C141 C271 1.819 . S
C305 C617 1.819 . S
C339 C651 1.819 . S
C685 C373 1.819 . S
C583 C407 1.819 . S
C753 C441 1.819 . S
C475 C549 1.819 . S
C509 C787 1.819 . S
C719 C543 1.819 . S
C311 C577 1.819 . S
C611 C515 1.819 . S
C413 C645 1.819 . S
C447 C679 1.819 . S
C481 C713 1.819 . S
C379 C747 1.819 . S
C277 C781 1.819 . S
C345 C815 1.819 . S
C224 C20 2.152 1_656 S
C54 C258 2.152 . S
C156 C88 2.152 1_456 S
C190 C122 2.152 . S
C360 C292 2.152 1_665 S
C326 C394 2.152 . S
C428 C496 2.152 1_465 S
C530 C462 2.152 . S
C564 C598 2.152 1_544 S
C632 C802 2.152 . S
C666 C734 2.152 1_546 S
C768 C700 2.152 . S
C2 C281 1.733 . S
C36 C315 1.733 . S
C349 C70 1.733 . S
C383 C104 1.733 . S
C138 C417 1.733 . S
C451 C172 1.733 . S
C206 C485 1.733 . S
C519 C240 1.733 . S
C274 C553 1.733 . S
C791 C308 1.733 . S
C342 C723 1.733 . S
C376 C757 1.733 . S
C587 C410 1.733 . S
C444 C621 1.733 . S
C478 C655 1.733 . S
C512 C689 1.733 . S
C546 C9 1.733 . S
C580 C145 1.733 . S
C614 C179 1.733 . S
C213 C648 1.733 . S
C682 C247 1.733 . S
C77 C716 1.733 . S
C111 C750 1.733 . S
C784 C43 1.733 . S
