# Generated by pormake.
# Topology tfs, (6)-cn, num edge types: 1
# Building blocks:
#     Node 0, Type 0, BuildingBlock: HISSIN_clean_sbu_0, # of connection points: 6
#     Node 1, Type 0, BuildingBlock: HISSIN_clean_sbu_0, # of connection points: 6
#     Node 2, Type 0, BuildingBlock: HISSIN_clean_sbu_0, # of connection points: 6
#     Node 3, Type 0, BuildingBlock: HISSIN_clean_sbu_0, # of connection points: 6
#     Node 4, Type 0, BuildingBlock: HISSIN_clean_sbu_0, # of connection points: 6
#     Node 5, Type 0, BuildingBlock: HISSIN_clean_sbu_0, # of connection points: 6
#     Edge 6, Type (0, 0), BuildingBlock: AJUNOK_clean_linker_0, # of connection points: 2
#     Edge 7, Type (0, 0), BuildingBlock: AJUNOK_clean_linker_0, # of connection points: 2
#     Edge 8, Type (0, 0), BuildingBlock: AJUNOK_clean_linker_0, # of connection points: 2
#     Edge 9, Type (0, 0), BuildingBlock: AJUNOK_clean_linker_0, # of connection points: 2
#     Edge 10, Type (0, 0), BuildingBlock: AJUNOK_clean_linker_0, # of connection points: 2
#     Edge 11, Type (0, 0), BuildingBlock: AJUNOK_clean_linker_0, # of connection points: 2
#     Edge 12, Type (0, 0), BuildingBlock: AJUNOK_clean_linker_0, # of connection points: 2
#     Edge 13, Type (0, 0), BuildingBlock: AJUNOK_clean_linker_0, # of connection points: 2
#     Edge 14, Type (0, 0), BuildingBlock: AJUNOK_clean_linker_0, # of connection points: 2
#     Edge 15, Type (0, 0), BuildingBlock: AJUNOK_clean_linker_0, # of connection points: 2
#     Edge 16, Type (0, 0), BuildingBlock: AJUNOK_clean_linker_0, # of connection points: 2
#     Edge 17, Type (0, 0), BuildingBlock: AJUNOK_clean_linker_0, # of connection points: 2
#     Edge 18, Type (0, 0), BuildingBlock: AJUNOK_clean_linker_0, # of connection points: 2
#     Edge 19, Type (0, 0), BuildingBlock: AJUNOK_clean_linker_0, # of connection points: 2
#     Edge 20, Type (0, 0), BuildingBlock: AJUNOK_clean_linker_0, # of connection points: 2
#     Edge 21, Type (0, 0), BuildingBlock: AJUNOK_clean_linker_0, # of connection points: 2
#     Edge 22, Type (0, 0), BuildingBlock: AJUNOK_clean_linker_0, # of connection points: 2
#     Edge 23, Type (0, 0), BuildingBlock: AJUNOK_clean_linker_0, # of connection points: 2
# Relax obj value: 0.576
# Max RMSD: 0.300
# Mean RMSD: 0.300
data_MOF--net-tfs--node1-HISSIN_clean_sbu_0--edge1-AJUNOK_clean_linker_0
_symmetry_space_group_name_H-M    P1
_symmetry_Int_Tables_number       1
_symmetry_cell_setting            triclinic
loop_
_symmetry_equiv_pos_as_xyz
'x, y, z'
_cell_length_a     45.144765
_cell_length_b     45.18761
_cell_length_c     11.143561
_cell_angle_alpha  90.054991
_cell_angle_beta   89.934684
_cell_angle_gamma 120.01527
loop_
_atom_site_label
_atom_site_type_symbol
_atom_site_fract_x
_atom_site_fract_y
_atom_site_fract_z
_atom_type_partial_charge
Eu0 Eu 0.22296 0.39818 0.92629 0.0
Eu1 Eu 0.19025 0.4494 0.93115 0.0
C2 C 0.20673 0.42282 0.17142 0.0
C3 C 0.25577 0.3314 0.95309 0.0
C4 C 0.28033 0.33619 0.0398 0.0
C5 C 0.24956 0.27593 0.90513 0.0
C6 C 0.29027 0.3118 0.05605 0.0
C7 C 0.23979 0.3006 0.88803 0.0
C8 C 0.27569 0.28175 0.98681 0.0
C9 C 0.25241 0.36101 0.91589 0.0
O10 O 0.2461 0.48454 0.89326 0.0
O11 O 0.26666 0.45097 0.96716 0.0
C12 C 0.27147 0.48075 0.93146 0.0
O13 O 0.22963 0.42211 0.74463 0.0
O14 O 0.16347 0.47203 0.02236 0.0
O15 O 0.17774 0.48374 0.83527 0.0
O16 O 0.18008 0.42369 0.75068 0.0
C17 C 0.20439 0.42274 0.68987 0.0
O18 O 0.16591 0.36266 0.90447 0.0
O19 O 0.14674 0.39764 0.98003 0.0
O20 O 0.21189 0.45044 0.11432 0.0
O21 O 0.22782 0.35675 0.8435 0.0
O22 O 0.26056 0.38566 -0.00706 0.0
O23 O 0.20294 0.39589 0.11303 0.0
C24 C 0.17603 0.52701 0.95079 0.0
C25 C 0.17948 0.5479 0.85238 0.0
C26 C 0.18847 0.57449 0.08466 0.0
C27 C 0.18718 0.58161 0.86975 0.0
C28 C 0.18081 0.5407 0.06728 0.0
C29 C 0.19146 0.59518 0.98601 0.0
C30 C 0.1653 0.49065 0.93006 0.0
C31 C 0.14148 0.36744 0.94763 0.0
H32 H 0.2937 0.3599 0.08966 0.0
H33 H 0.23785 0.25306 0.85034 0.0
H34 H 0.31122 0.3178 0.11691 0.0
H35 H 0.22111 0.29633 0.81931 0.0
H36 H 0.17563 0.53798 0.76169 0.0
H37 H 0.191 0.58408 0.17539 0.0
H38 H 0.18944 0.59702 0.7921 0.0
H39 H 0.17798 0.52518 0.14517 0.0
Eu40 Eu 0.82721 0.22012 -0.00183 0.0
Eu41 Eu 0.7431 0.18989 -0.00063 0.0
C42 C 0.78485 0.20318 0.23713 0.0
C43 C 0.92645 0.24878 0.97881 0.0
C44 C 0.94254 0.23902 0.06542 0.0
C45 C 0.98003 0.27772 0.86772 0.0
C46 C 0.97739 0.2498 0.05585 0.0
C47 C 0.94518 0.2669 0.87706 0.0
C48 C 0.99682 0.27084 0.96024 0.0
C49 C 0.89357 0.24696 0.00767 0.0
O50 O 0.76589 0.246 0.03807 0.0
O51 O 0.8198 0.26507 0.96282 0.0
C52 C 0.79559 0.27085 0.00081 0.0
O53 O 0.80885 0.20209 0.81111 0.0
O54 O 0.6972 0.17721 0.10257 0.0
O55 O 0.69306 0.16558 0.91237 0.0
O56 O 0.76259 0.21032 0.81477 0.0
C57 C 0.78526 0.20583 0.75583 0.0
O58 O 0.80387 0.16281 0.01551 0.0
O59 O 0.74931 0.14531 0.94796 0.0
O60 O 0.75915 0.17929 0.17697 0.0
O61 O 0.87783 0.25428 0.92481 0.0
O62 O 0.87269 0.22455 0.08527 0.0
O63 O 0.8113 0.22744 0.18111 0.0
C64 C 0.65102 0.17646 -0.00032 0.0
C65 C 0.64706 0.1915 0.89504 0.0
C66 C 0.60227 0.17735 0.08817 0.0
C67 C 0.62062 0.19912 0.88692 0.0
C68 C 0.62855 0.1697 0.09618 0.0
C69 C 0.59783 0.19188 0.98323 0.0
C70 C 0.67706 0.16596 0.00952 0.0
C71 C 0.77377 0.13889 0.97651 0.0
H72 H 0.92888 0.22523 0.14516 0.0
H73 H 0.9944 0.29395 0.79311 0.0
H74 H 0.98965 0.2437 0.1275 0.0
H75 H 0.93366 0.27504 0.80906 0.0
H76 H 0.66395 0.19686 0.81897 0.0
H77 H 0.5852 0.17167 0.16395 0.0
H78 H 0.61746 0.20982 0.80425 0.0
H79 H 0.63104 0.15802 0.17757 0.0
Eu80 Eu 0.606 0.82485 0.03706 0.0
Eu81 Eu 0.55465 0.74056 0.035 0.0
C82 C 0.58086 0.78196 0.274 0.0
C83 C 0.67534 0.92399 0.02893 0.0
C84 C 0.69203 0.94576 0.12617 0.0
C85 C 0.70923 0.97095 0.89239 0.0
C86 C 0.71599 0.98015 0.10708 0.0
C87 C 0.68509 0.93649 0.91159 0.0
C88 C 0.72384 0.99345 0.99005 0.0
C89 C 0.64396 0.8912 0.05311 0.0
O90 O 0.51956 0.76165 0.06806 0.0
O91 O 0.55339 0.816 -0.0054 0.0
C92 C 0.52347 0.79074 0.02825 0.0
O93 O 0.60711 0.80739 0.84915 0.0
O94 O 0.52 0.6943 0.13392 0.0
O95 O 0.53266 0.69064 0.94862 0.0
O96 O 0.55338 0.7599 0.85089 0.0
C97 C 0.58033 0.78321 0.79288 0.0
O98 O 0.64146 0.80333 0.05891 0.0
O99 O 0.60645 0.74899 0.98534 0.0
O100 O 0.58045 0.7569 0.21398 0.0
O101 O 0.62259 0.87555 0.96541 0.0
O102 O 0.64468 0.8703 0.13225 0.0
O103 O 0.58136 0.80753 0.21749 0.0
C104 C 0.47814 0.64813 0.02077 0.0
C105 C 0.45971 0.64925 0.92097 0.0
C106 C 0.42841 0.59526 0.08459 0.0
C107 C 0.42584 0.62325 0.90273 0.0
C108 C 0.46217 0.6211 0.10254 0.0
C109 C 0.40993 0.59592 0.98427 0.0
C110 C 0.51407 0.67433 0.04169 0.0
C111 C 0.63665 0.77393 0.01787 0.0
H112 H 0.68464 0.93681 0.21746 0.0
H113 H 0.71489 0.98048 0.8012 0.0
H114 H 0.72613 0.99683 0.18432 0.0
H115 H 0.67258 0.92028 0.83483 0.0
H116 H 0.47154 0.66994 0.85668 0.0
H117 H 0.41672 0.57467 0.14932 0.0
H118 H 0.41236 0.62414 0.82372 0.0
H119 H 0.47593 0.61986 0.18024 0.0
Eu120 Eu 0.78218 0.60596 0.97847 0.0
Eu121 Eu 0.81336 0.55404 0.98027 0.0
C122 C 0.79764 0.58058 0.22252 0.0
C123 C 0.75425 0.67686 0.98912 0.0
C124 C 0.74074 0.68125 0.09712 0.0
C125 C 0.75006 0.72401 0.90238 0.0
C126 C 0.73062 0.70581 0.10572 0.0
C127 C 0.76021 0.69951 0.89378 0.0
C128 C 0.73371 0.7263 0.00639 0.0
C129 C 0.75485 0.64493 0.9659 0.0
O130 O 0.75712 0.5195 0.94509 0.0
O131 O 0.73775 0.55383 0.02191 0.0
C132 C 0.73218 0.52381 0.98549 0.0
O133 O 0.77317 0.58014 0.79884 0.0
O134 O 0.83776 0.52847 0.06783 0.0
O135 O 0.82775 0.52233 0.87644 0.0
O136 O 0.82352 0.58069 0.80136 0.0
C137 C 0.79859 0.58056 0.74132 0.0
O138 O 0.83922 0.64031 0.95078 0.0
O139 O 0.85725 0.60525 0.03242 0.0
O140 O 0.79246 0.55297 0.16531 0.0
O141 O 0.77541 0.64457 0.88413 0.0
O142 O 0.74944 0.62388 0.05435 0.0
O143 O 0.80239 0.60793 0.16476 0.0
C144 C 0.82866 0.47658 0.97641 0.0
C145 C 0.83299 0.46096 0.8742 0.0
C146 C 0.81067 0.42404 0.08841 0.0
C147 C 0.82655 0.42741 0.87909 0.0
C148 C 0.81705 0.45772 0.08349 0.0
C149 C 0.81603 0.40886 0.98678 0.0
C150 C 0.83849 0.51301 0.96977 0.0
C151 C 0.86341 0.63535 -0.005 0.0
H152 H 0.73549 0.66401 0.17188 0.0
H153 H 0.75273 0.73952 0.82454 0.0
H154 H 0.71762 0.70661 0.18635 0.0
H155 H 0.77025 0.69658 0.80903 0.0
H156 H 0.84195 0.47494 0.79065 0.0
H157 H 0.8025 0.41021 0.17245 0.0
H158 H 0.83019 0.41607 0.79876 0.0
H159 H 0.81352 0.4691 0.16385 0.0
Eu160 Eu 0.17813 0.78136 0.04163 0.0
Eu161 Eu 0.26152 0.81346 0.0428 0.0
C162 C 0.21963 0.79793 0.28037 0.0
C163 C 0.0789 0.75208 0.02509 0.0
C164 C 0.06184 0.75854 0.1181 0.0
C165 C 0.02649 0.72722 0.90718 0.0
C166 C 0.02713 0.74811 0.10777 0.0
C167 C 0.06124 0.73763 0.91751 0.0
C168 C 0.00877 0.73096 0.00435 0.0
C169 C 0.11163 0.75326 0.05079 0.0
O170 O 0.24031 0.75751 0.07971 0.0
O171 O 0.18675 0.73736 0.00026 0.0
C172 C 0.2114 0.73232 0.03867 0.0
O173 O 0.19699 0.80142 0.85555 0.0
O174 O 0.30745 0.82728 0.14677 0.0
O175 O 0.31175 0.83889 0.95667 0.0
O176 O 0.24218 0.79174 0.85822 0.0
C177 C 0.21971 0.79648 0.79921 0.0
O178 O 0.20013 0.83836 0.0675 0.0
O179 O 0.25376 0.85688 0.98886 0.0
O180 O 0.24438 0.82317 0.22128 0.0
O181 O 0.12789 0.74803 0.96386 0.0
O182 O 0.13206 0.77409 0.13294 0.0
O183 O 0.19462 0.77268 0.22233 0.0
C184 C 0.35351 0.82756 0.04371 0.0
C185 C 0.36257 0.81976 0.93217 0.0
C186 C 0.39672 0.81857 0.13988 0.0
C187 C 0.38873 0.81177 0.92467 0.0
C188 C 0.37075 0.8267 0.14736 0.0
C189 C 0.4063 0.81151 0.02836 0.0
C190 C 0.32769 0.83844 0.05378 0.0
C191 C 0.22934 0.86266 0.02382 0.0
H192 H 0.0746 0.76929 0.20254 0.0
H193 H 0.01291 0.7136 0.82712 0.0
H194 H 0.01405 0.7513 0.18396 0.0
H195 H 0.07349 0.73194 0.84458 0.0
H196 H 0.34982 0.82024 0.85055 0.0
H197 H 0.41001 0.81874 0.221 0.0
H198 H 0.39539 0.80599 0.83778 0.0
H199 H 0.36454 0.83293 0.23431 0.0
Eu200 Eu 0.39722 0.17653 0.95886 0.0
Eu201 Eu 0.44741 0.2611 0.96078 0.0
C202 C 0.42141 0.21784 0.20222 0.0
C203 C 0.32846 0.07744 0.97709 0.0
C204 C 0.32542 0.06037 0.08589 0.0
C205 C 0.2801 0.02547 0.89842 0.0
C206 C 0.30089 0.02579 0.09878 0.0
C207 C 0.30461 0.06001 0.88545 0.0
C208 C 0.27902 0.00765 0.00309 0.0
C209 C 0.35996 0.10997 0.94908 0.0
O210 O 0.48311 0.24107 0.92323 0.0
O211 O 0.45058 0.18663 -0.00308 0.0
C212 C 0.48006 0.21214 0.96046 0.0
O213 O 0.42151 0.19369 0.77857 0.0
O214 O 0.47183 0.31061 0.05208 0.0
O215 O 0.47874 0.30804 0.86085 0.0
O216 O 0.42272 0.24459 0.77936 0.0
C217 C 0.42148 0.21883 0.72099 0.0
O218 O 0.36135 0.1974 0.93248 0.0
O219 O 0.39511 0.25179 0.00852 0.0
O220 O 0.44837 0.24169 0.14578 0.0
O221 O 0.35898 0.13022 0.86763 0.0
O222 O 0.38172 0.12646 0.03499 0.0
O223 O 0.39476 0.19429 0.14406 0.0
C224 C 0.52491 0.35312 0.96756 0.0
C225 C 0.54641 0.36345 0.86625 0.0
C226 C 0.57244 0.39562 0.08655 0.0
C227 C 0.58041 0.38977 0.8748 0.0
C228 C 0.53839 0.36932 0.07806 0.0
C229 C 0.59358 0.40655 0.98448 0.0
C230 C 0.48809 0.32743 0.95604 0.0
C231 C 0.36536 0.22639 0.97455 0.0
H232 H 0.34359 0.07294 0.15788 0.0
H233 H 0.26352 0.01208 0.82332 0.0
H234 H 0.30106 0.01263 0.17975 0.0
H235 H 0.30647 0.07231 0.80016 0.0
H236 H 0.53681 0.35177 0.77945 0.0
H237 H 0.58212 0.40771 0.17276 0.0
H238 H 0.59609 0.39777 0.79461 0.0
H239 H 0.52249 0.3621 0.15764 0.0
C240 C 0.32216 0.23665 0.87457 0.0
C241 C 0.33604 0.232 0.98059 0.0
C242 C 0.30031 0.25037 0.87791 0.0
C243 C 0.2915 0.25964 0.98758 0.0
H244 H 0.33017 0.23201 0.78827 0.0
H245 H 0.29233 0.25601 0.79347 0.0
S246 S 0.31654 0.24614 0.29098 0.0
N247 N 0.33673 0.2337 0.19803 0.0
N248 N 0.29443 0.25801 0.20548 0.0
C249 C 0.30292 0.25206 0.0946 0.0
C250 C 0.32558 0.23867 0.09079 0.0
C251 C 0.09018 0.31592 0.86356 0.0
C252 C 0.10636 0.33839 0.95995 0.0
C253 C 0.0548 0.29257 0.86623 0.0
C254 C 0.03477 0.29051 0.96641 0.0
H255 H 0.10447 0.31785 0.78291 0.0
H256 H 0.0428 0.27694 0.78779 0.0
S257 S 0.06617 0.34175 0.24598 0.0
N258 N 0.10055 0.35559 0.16098 0.0
N259 N 0.03444 0.31167 0.16707 0.0
C260 C 0.05128 0.31148 0.06608 0.0
C261 C 0.087 0.33545 0.06251 0.0
C262 C 0.73787 0.07986 0.89666 0.0
C263 C 0.76578 0.10285 0.96757 0.0
C264 C 0.72608 0.04477 0.89851 0.0
C265 C 0.74164 0.03106 0.97153 0.0
H266 H 0.72408 0.08881 0.84211 0.0
H267 H 0.70331 0.0281 0.84747 0.0
S268 S 0.81838 0.08046 0.16205 0.0
N269 N 0.8108 0.10968 0.10423 0.0
N270 N 0.78864 0.04347 0.10694 0.0
C271 C 0.77093 0.05388 0.03705 0.0
C272 C 0.78307 0.08982 0.03495 0.0
C273 C 0.68986 0.73624 0.90977 0.0
C274 C 0.71381 0.7443 0.00255 0.0
C275 C 0.6661 0.74745 0.91311 0.0
C276 C 0.66562 0.76759 0.00841 0.0
H277 H 0.68813 0.71946 0.83723 0.0
H278 H 0.64718 0.73932 0.84224 0.0
S279 S 0.72495 0.79855 0.26766 0.0
N280 N 0.73716 0.77557 0.18844 0.0
N281 N 0.69259 0.79721 0.19372 0.0
C282 C 0.69067 0.77762 0.09822 0.0
C283 C 0.71467 0.76573 0.09575 0.0
C284 C 0.95453 0.68815 0.10203 0.0
C285 C 0.9708 0.71122 0.00712 0.0
C286 C 0.91943 0.66476 0.09927 0.0
C287 C 0.89905 0.66382 0.00251 0.0
H288 H 0.96934 0.68685 0.17619 0.0
H289 H 0.90836 0.64652 0.17201 0.0
S290 S 0.92853 0.72057 0.73628 0.0
N291 N 0.96356 0.73303 0.81671 0.0
N292 N 0.89712 0.68923 0.81267 0.0
C293 C 0.9145 0.68791 0.91001 0.0
C294 C 0.95052 0.7115 0.91184 0.0
C295 C 0.25475 0.91766 0.91395 0.0
C296 C 0.23602 0.89803 0.01318 0.0
C297 C 0.26653 0.95272 0.90857 0.0
C298 C 0.26047 0.96969 0.00307 0.0
H299 H 0.26136 0.90602 0.8414 0.0
H300 H 0.2822 0.96696 0.83267 0.0
S301 S 0.21045 0.92936 0.27902 0.0
N302 N 0.20988 0.89744 0.20454 0.0
N303 N 0.23253 0.96379 0.19534 0.0
C304 C 0.24043 0.95009 0.10053 0.0
C305 C 0.22796 0.91412 0.10516 0.0
C306 C 0.18041 0.67277 0.95765 0.0
C307 C 0.20675 0.69745 0.03009 0.0
C308 C 0.17577 0.63991 0.94432 0.0
C309 C 0.1971 0.63021 0.00342 0.0
H310 H 0.16336 0.67889 0.90931 0.0
H311 H 0.1551 0.62184 0.88767 0.0
S312 S 0.26969 0.68481 0.20433 0.0
N313 N 0.25434 0.70961 0.163 0.0
N314 N 0.2456 0.64777 0.1369 0.0
C315 C 0.22336 0.6544 0.07695 0.0
C316 C 0.22824 0.68803 0.09029 0.0
C317 C 0.50726 0.17653 -0.00017 0.0
C318 C 0.51071 0.20791 0.96281 0.0
C319 C 0.5355 0.17166 0.00524 0.0
C320 C 0.56844 0.19788 0.97361 0.0
H321 H 0.48252 0.15539 0.02534 0.0
H322 H 0.53145 0.147 0.03395 0.0
S323 S 0.59199 0.28515 0.87292 0.0
N324 N 0.55024 0.26589 0.89463 0.0
N325 N 0.60326 0.25652 0.90579 0.0
C326 C 0.57244 0.22934 0.93593 0.0
C327 C 0.54364 0.23442 0.93049 0.0
C328 C 0.36766 0.53347 0.97344 0.0
C329 C 0.37455 0.56735 0.96409 0.0
C330 C 0.33441 0.50583 0.96085 0.0
C331 C 0.30655 0.51086 0.93829 0.0
H332 H 0.38819 0.52822 0.99095 0.0
H333 H 0.33062 0.48029 0.96959 0.0
S334 S 0.31099 0.59488 0.90729 0.0
N335 N 0.35094 0.60464 0.93178 0.0
N336 N 0.28829 0.55272 0.90699 0.0
C337 C 0.31316 0.54471 0.92703 0.0
C338 C 0.34717 0.57293 0.94007 0.0
C339 C 0.78126 0.3466 0.03828 0.0
C340 C 0.81167 0.37411 -0.00679 0.0
C341 C 0.77634 0.31338 0.04078 0.0
C342 C 0.80176 0.30643 -0.00091 0.0
H343 H 0.76087 0.35068 0.06983 0.0
H344 H 0.75228 0.29301 0.07517 0.0
S345 S 0.88715 0.37061 0.88001 0.0
N346 N 0.86825 0.39287 0.91183 0.0
N347 N 0.85923 0.33071 0.91553 0.0
C348 C 0.83264 0.33406 0.956 0.0
C349 C 0.83752 0.36779 0.95328 0.0
C350 C 0.43641 0.78065 0.09605 0.0
C351 C 0.43543 0.80514 0.02102 0.0
C352 C 0.46467 0.77566 0.09595 0.0
C353 C 0.49324 0.79538 0.02221 0.0
H354 H 0.41522 0.76534 0.15576 0.0
H355 H 0.4644 0.75673 0.15623 0.0
S356 S 0.50281 0.86236 0.80706 0.0
N357 N 0.46501 0.84889 0.86952 0.0
N358 N 0.51816 0.83964 0.869 0.0
C359 C 0.49231 0.81965 0.94542 0.0
C360 C 0.46338 0.82446 0.94478 0.0
C361 C 0.68965 0.4624 0.94065 0.0
C362 C 0.69677 0.49403 0.98992 0.0
C363 C 0.65637 0.43416 0.94051 0.0
C364 C 0.62888 0.43629 0.99046 0.0
H365 H 0.70985 0.45939 0.90054 0.0
H366 H 0.6521 0.41043 0.90098 0.0
S367 S 0.63323 0.5129 0.13035 0.0
N368 N 0.67303 0.52547 0.09082 0.0
N369 N 0.61065 0.47249 0.08903 0.0
C370 C 0.63553 0.46755 0.04088 0.0
C371 C 0.66938 0.49636 0.04088 0.0
C372 C 0.22425 0.45263 0.49475 0.0
C373 C 0.20357 0.42243 0.55864 0.0
C374 C 0.22481 0.45262 0.369 0.0
C375 C 0.2053 0.42221 0.30373 0.0
H376 H 0.2401 0.47635 0.54235 0.0
H377 H 0.24113 0.47643 0.32271 0.0
S378 S 0.14633 0.33663 0.43165 0.0
N379 N 0.16247 0.36177 0.54993 0.0
N380 N 0.16406 0.36128 0.31327 0.0
C381 C 0.18445 0.39185 0.36742 0.0
C382 C 0.18344 0.39208 0.49524 0.0
C383 C 0.81494 0.21686 0.559 0.0
C384 C 0.78436 0.205 0.62393 0.0
C385 C 0.81484 0.21633 0.43353 0.0
C386 C 0.78408 0.20314 0.36901 0.0
H387 H 0.83919 0.22706 0.60537 0.0
H388 H 0.839 0.22595 0.3868 0.0
S389 S 0.69705 0.16851 0.49695 0.0
N390 N 0.72251 0.17969 0.61496 0.0
N391 N 0.72227 0.17798 0.37866 0.0
C392 C 0.75327 0.19087 0.43277 0.0
C393 C 0.75344 0.19203 0.56051 0.0
C394 C 0.5975 0.81281 0.59539 0.0
C395 C 0.58037 0.78223 0.66096 0.0
C396 C 0.5973 0.81249 0.46981 0.0
C397 C 0.5807 0.78152 0.40593 0.0
H398 H 0.61067 0.8372 0.64134 0.0
H399 H 0.61057 0.83663 0.42246 0.0
S400 S 0.5328 0.69442 0.5359 0.0
N401 N 0.54654 0.72016 0.65332 0.0
N402 N 0.54686 0.71954 0.41701 0.0
C403 C 0.56388 0.75074 0.47041 0.0
C404 C 0.5635 0.7511 0.59816 0.0
C405 C 0.76955 0.55788 0.54525 0.0
C406 C 0.79903 0.58085 0.60932 0.0
C407 C 0.76944 0.55753 0.41935 0.0
C408 C 0.79841 0.58096 0.35423 0.0
H409 H 0.74663 0.53973 0.59279 0.0
H410 H 0.74644 0.53923 0.37265 0.0
S411 S 0.88149 0.64685 0.4796 0.0
N412 N 0.85785 0.62743 0.59867 0.0
N413 N 0.85702 0.6279 0.36182 0.0
C414 C 0.8278 0.60438 0.41709 0.0
C415 C 0.82828 0.60402 0.54499 0.0
C416 C 0.22039 0.82401 0.47801 0.0
C417 C 0.22025 0.79745 0.41207 0.0
C418 C 0.21975 0.82328 0.60392 0.0
C419 C 0.22014 0.79657 0.66718 0.0
H420 H 0.22031 0.84509 0.43195 0.0
H421 H 0.21942 0.84396 0.65213 0.0
S422 S 0.22073 0.72158 0.53514 0.0
N423 N 0.22036 0.74379 0.41801 0.0
N424 N 0.22085 0.74324 0.6549 0.0
C425 C 0.22068 0.77025 0.60204 0.0
C426 C 0.22027 0.77046 0.47412 0.0
C427 C 0.43783 0.24876 0.52384 0.0
C428 C 0.42048 0.21815 0.58917 0.0
C429 C 0.43839 0.24843 0.39822 0.0
C430 C 0.42093 0.21754 0.33419 0.0
H431 H 0.45163 0.27306 0.57006 0.0
H432 H 0.45224 0.27254 0.35097 0.0
S433 S 0.37078 0.13055 0.46385 0.0
N434 N 0.38507 0.15623 0.58129 0.0
N435 N 0.38551 0.15565 0.34512 0.0
C436 C 0.40302 0.18681 0.39857 0.0
C437 C 0.40298 0.18711 0.52625 0.0
loop_
_geom_bond_atom_site_label_1
_geom_bond_atom_site_label_2
_geom_bond_distance
_geom_bond_site_symmetry_2
_ccdc_geom_bond_type
Eu0 C9 2.828 1_556 S
Eu0 O11 2.392 . S
Eu0 O13 2.418 . S
Eu0 O18 2.373 . S
Eu0 O21 2.488 . S
Eu0 O22 2.471 1_556 S
Eu0 O23 2.349 1_556 S
Eu1 O10 2.373 . S
Eu1 O14 2.488 . S
Eu1 O15 2.471 1_554 S
Eu1 O16 2.349 1_554 S
Eu1 O19 2.392 . S
Eu1 O20 2.418 . S
Eu1 C30 2.828 1_554 S
C2 O20 1.244 . S
C2 O23 1.265 . S
C3 C4 1.379 . S
C3 C7 1.373 1_554 S
C3 C9 1.505 . S
C4 C3 1.379 . S
C4 C6 1.369 . S
C4 H32 0.930 . S
C5 C7 1.383 . S
C5 C8 1.382 1_556 S
C5 H33 0.930 . S
C6 C4 1.369 . S
C6 C8 1.392 . S
C6 H34 0.930 . S
C7 C3 1.373 1_556 S
C7 C5 1.383 . S
C7 H35 0.931 . S
C8 C5 1.382 1_554 S
C8 C6 1.392 . S
C9 Eu0 2.828 1_554 S
C9 C3 1.505 . S
C9 O21 1.249 1_554 S
C9 O22 1.244 . S
O10 Eu1 2.373 . S
O10 C12 1.258 . S
O11 Eu0 2.392 . S
O11 C12 1.242 1_556 S
C12 O10 1.258 . S
C12 O11 1.242 1_554 S
O13 Eu0 2.418 . S
O13 C17 1.244 . S
O14 Eu1 2.488 . S
O14 C30 1.249 1_554 S
O15 Eu1 2.471 1_556 S
O15 C30 1.244 . S
O16 Eu1 2.349 1_556 S
O16 C17 1.265 . S
C17 O13 1.244 . S
C17 O16 1.265 . S
O18 Eu0 2.373 . S
O18 C31 1.258 . S
O19 Eu1 2.392 . S
O19 C31 1.242 1_554 S
O20 Eu1 2.418 . S
O20 C2 1.244 . S
O21 Eu0 2.488 . S
O21 C9 1.249 1_556 S
O22 Eu0 2.471 1_554 S
O22 C9 1.244 . S
O23 Eu0 2.349 1_554 S
O23 C2 1.265 . S
C24 C25 1.379 . S
C24 C28 1.373 1_556 S
C24 C30 1.505 . S
C25 C24 1.379 . S
C25 C27 1.369 . S
C25 H36 0.930 . S
C26 C28 1.383 . S
C26 C29 1.382 1_554 S
C26 H37 0.930 . S
C27 C25 1.369 . S
C27 C29 1.392 . S
C27 H38 0.930 . S
C28 C24 1.373 1_554 S
C28 C26 1.383 . S
C28 H39 0.931 . S
C29 C26 1.382 1_556 S
C29 C27 1.392 . S
C30 Eu1 2.828 1_556 S
C30 O14 1.249 1_556 S
C30 O15 1.244 . S
C30 C24 1.505 . S
C31 O18 1.258 . S
C31 O19 1.242 1_556 S
H32 C4 0.930 . S
H33 C5 0.930 . S
H34 C6 0.930 . S
H35 C7 0.931 . S
H36 C25 0.930 . S
H37 C26 0.930 . S
H38 C27 0.930 . S
H39 C28 0.931 . S
Eu40 C49 2.828 1_556 S
Eu40 O51 2.392 . S
Eu40 O53 2.418 . S
Eu40 O58 2.373 . S
Eu40 O61 2.488 . S
Eu40 O62 2.471 1_556 S
Eu40 O63 2.349 1_556 S
Eu41 O50 2.373 . S
Eu41 O54 2.488 . S
Eu41 O55 2.471 1_554 S
Eu41 O56 2.349 1_554 S
Eu41 O59 2.392 . S
Eu41 O60 2.418 . S
Eu41 C70 2.828 1_554 S
C42 O60 1.244 . S
C42 O63 1.265 . S
C43 C44 1.379 . S
C43 C47 1.373 1_554 S
C43 C49 1.505 . S
C44 C43 1.379 . S
C44 C46 1.369 . S
C44 H72 0.930 . S
C45 C47 1.383 . S
C45 C48 1.382 1_556 S
C45 H73 0.930 . S
C46 C44 1.369 . S
C46 C48 1.392 . S
C46 H74 0.930 . S
C47 C43 1.373 1_556 S
C47 C45 1.383 . S
C47 H75 0.931 . S
C48 C45 1.382 1_554 S
C48 C46 1.392 . S
C49 Eu40 2.828 1_554 S
C49 C43 1.505 . S
C49 O61 1.249 1_554 S
C49 O62 1.244 . S
O50 Eu41 2.373 . S
O50 C52 1.258 . S
O51 Eu40 2.392 . S
O51 C52 1.242 1_556 S
C52 O50 1.258 . S
C52 O51 1.242 1_554 S
O53 Eu40 2.418 . S
O53 C57 1.244 . S
O54 Eu41 2.488 . S
O54 C70 1.249 1_554 S
O55 Eu41 2.471 1_556 S
O55 C70 1.244 . S
O56 Eu41 2.349 1_556 S
O56 C57 1.265 . S
C57 O53 1.244 . S
C57 O56 1.265 . S
O58 Eu40 2.373 . S
O58 C71 1.258 . S
O59 Eu41 2.392 . S
O59 C71 1.242 1_554 S
O60 Eu41 2.418 . S
O60 C42 1.244 . S
O61 Eu40 2.488 . S
O61 C49 1.249 1_556 S
O62 Eu40 2.471 1_554 S
O62 C49 1.244 . S
O63 Eu40 2.349 1_554 S
O63 C42 1.265 . S
C64 C65 1.379 . S
C64 C68 1.373 1_556 S
C64 C70 1.505 . S
C65 C64 1.379 . S
C65 C67 1.369 . S
C65 H76 0.930 . S
C66 C68 1.383 . S
C66 C69 1.382 1_554 S
C66 H77 0.930 . S
C67 C65 1.369 . S
C67 C69 1.392 . S
C67 H78 0.930 . S
C68 C64 1.373 1_554 S
C68 C66 1.383 . S
C68 H79 0.931 . S
C69 C66 1.382 1_556 S
C69 C67 1.392 . S
C70 Eu41 2.828 1_556 S
C70 O54 1.249 1_556 S
C70 O55 1.244 . S
C70 C64 1.505 . S
C71 O58 1.258 . S
C71 O59 1.242 1_556 S
H72 C44 0.930 . S
H73 C45 0.930 . S
H74 C46 0.930 . S
H75 C47 0.931 . S
H76 C65 0.930 . S
H77 C66 0.930 . S
H78 C67 0.930 . S
H79 C68 0.931 . S
Eu80 C89 2.828 1_556 S
Eu80 O91 2.392 . S
Eu80 O93 2.418 . S
Eu80 O98 2.373 . S
Eu80 O101 2.488 . S
Eu80 O102 2.471 1_556 S
Eu80 O103 2.349 1_556 S
Eu81 O90 2.373 . S
Eu81 O94 2.488 . S
Eu81 O95 2.471 1_554 S
Eu81 O96 2.349 1_554 S
Eu81 O99 2.392 . S
Eu81 O100 2.418 . S
Eu81 C110 2.828 1_554 S
C82 O100 1.244 . S
C82 O103 1.265 . S
C83 C84 1.379 . S
C83 C87 1.373 1_554 S
C83 C89 1.505 . S
C84 C83 1.379 . S
C84 C86 1.369 . S
C84 H112 0.930 . S
C85 C87 1.383 . S
C85 C88 1.382 1_556 S
C85 H113 0.930 . S
C86 C84 1.369 . S
C86 C88 1.392 . S
C86 H114 0.930 . S
C87 C83 1.373 1_556 S
C87 C85 1.383 . S
C87 H115 0.931 . S
C88 C85 1.382 1_554 S
C88 C86 1.392 . S
C89 Eu80 2.828 1_554 S
C89 C83 1.505 . S
C89 O101 1.249 1_554 S
C89 O102 1.244 . S
O90 Eu81 2.373 . S
O90 C92 1.258 . S
O91 Eu80 2.392 . S
O91 C92 1.242 1_556 S
C92 O90 1.258 . S
C92 O91 1.242 1_554 S
O93 Eu80 2.418 . S
O93 C97 1.244 . S
O94 Eu81 2.488 . S
O94 C110 1.249 1_554 S
O95 Eu81 2.471 1_556 S
O95 C110 1.244 . S
O96 Eu81 2.349 1_556 S
O96 C97 1.265 . S
C97 O93 1.244 . S
C97 O96 1.265 . S
O98 Eu80 2.373 . S
O98 C111 1.258 . S
O99 Eu81 2.392 . S
O99 C111 1.242 1_554 S
O100 Eu81 2.418 . S
O100 C82 1.244 . S
O101 Eu80 2.488 . S
O101 C89 1.249 1_556 S
O102 Eu80 2.471 1_554 S
O102 C89 1.244 . S
O103 Eu80 2.349 1_554 S
O103 C82 1.265 . S
C104 C105 1.379 . S
C104 C108 1.373 1_556 S
C104 C110 1.505 . S
C105 C104 1.379 . S
C105 C107 1.369 . S
C105 H116 0.930 . S
C106 C108 1.383 . S
C106 C109 1.382 1_554 S
C106 H117 0.930 . S
C107 C105 1.369 . S
C107 C109 1.392 . S
C107 H118 0.930 . S
C108 C104 1.373 1_554 S
C108 C106 1.383 . S
C108 H119 0.931 . S
C109 C106 1.382 1_556 S
C109 C107 1.392 . S
C110 Eu81 2.828 1_556 S
C110 O94 1.249 1_556 S
C110 O95 1.244 . S
C110 C104 1.505 . S
C111 O98 1.258 . S
C111 O99 1.242 1_556 S
H112 C84 0.930 . S
H113 C85 0.930 . S
H114 C86 0.930 . S
H115 C87 0.931 . S
H116 C105 0.930 . S
H117 C106 0.930 . S
H118 C107 0.930 . S
H119 C108 0.931 . S
Eu120 C129 2.828 1_556 S
Eu120 O131 2.392 . S
Eu120 O133 2.418 . S
Eu120 O138 2.373 . S
Eu120 O141 2.488 . S
Eu120 O142 2.471 1_556 S
Eu120 O143 2.349 1_556 S
Eu121 O130 2.373 . S
Eu121 O134 2.488 . S
Eu121 O135 2.471 1_554 S
Eu121 O136 2.349 1_554 S
Eu121 O139 2.392 . S
Eu121 O140 2.418 . S
Eu121 C150 2.828 1_554 S
C122 O140 1.244 . S
C122 O143 1.265 . S
C123 C124 1.379 . S
C123 C127 1.373 1_554 S
C123 C129 1.505 . S
C124 C123 1.379 . S
C124 C126 1.369 . S
C124 H152 0.930 . S
C125 C127 1.383 . S
C125 C128 1.382 1_556 S
C125 H153 0.930 . S
C126 C124 1.369 . S
C126 C128 1.392 . S
C126 H154 0.930 . S
C127 C123 1.373 1_556 S
C127 C125 1.383 . S
C127 H155 0.931 . S
C128 C125 1.382 1_554 S
C128 C126 1.392 . S
C129 Eu120 2.828 1_554 S
C129 C123 1.505 . S
C129 O141 1.249 1_554 S
C129 O142 1.244 . S
O130 Eu121 2.373 . S
O130 C132 1.258 . S
O131 Eu120 2.392 . S
O131 C132 1.242 1_556 S
C132 O130 1.258 . S
C132 O131 1.242 1_554 S
O133 Eu120 2.418 . S
O133 C137 1.244 . S
O134 Eu121 2.488 . S
O134 C150 1.249 1_554 S
O135 Eu121 2.471 1_556 S
O135 C150 1.244 . S
O136 Eu121 2.349 1_556 S
O136 C137 1.265 . S
C137 O133 1.244 . S
C137 O136 1.265 . S
O138 Eu120 2.373 . S
O138 C151 1.258 . S
O139 Eu121 2.392 . S
O139 C151 1.242 1_554 S
O140 Eu121 2.418 . S
O140 C122 1.244 . S
O141 Eu120 2.488 . S
O141 C129 1.249 1_556 S
O142 Eu120 2.471 1_554 S
O142 C129 1.244 . S
O143 Eu120 2.349 1_554 S
O143 C122 1.265 . S
C144 C145 1.379 . S
C144 C148 1.373 1_556 S
C144 C150 1.505 . S
C145 C144 1.379 . S
C145 C147 1.369 . S
C145 H156 0.930 . S
C146 C148 1.383 . S
C146 C149 1.382 1_554 S
C146 H157 0.930 . S
C147 C145 1.369 . S
C147 C149 1.392 . S
C147 H158 0.930 . S
C148 C144 1.373 1_554 S
C148 C146 1.383 . S
C148 H159 0.931 . S
C149 C146 1.382 1_556 S
C149 C147 1.392 . S
C150 Eu121 2.828 1_556 S
C150 O134 1.249 1_556 S
C150 O135 1.244 . S
C150 C144 1.505 . S
C151 O138 1.258 . S
C151 O139 1.242 1_556 S
H152 C124 0.930 . S
H153 C125 0.930 . S
H154 C126 0.930 . S
H155 C127 0.931 . S
H156 C145 0.930 . S
H157 C146 0.930 . S
H158 C147 0.930 . S
H159 C148 0.931 . S
Eu160 C169 2.828 1_556 S
Eu160 O171 2.392 . S
Eu160 O173 2.418 . S
Eu160 O178 2.373 . S
Eu160 O181 2.488 . S
Eu160 O182 2.471 1_556 S
Eu160 O183 2.349 1_556 S
Eu161 O170 2.373 . S
Eu161 O174 2.488 . S
Eu161 O175 2.471 1_554 S
Eu161 O176 2.349 1_554 S
Eu161 O179 2.392 . S
Eu161 O180 2.418 . S
Eu161 C190 2.828 1_554 S
C162 O180 1.244 . S
C162 O183 1.265 . S
C163 C164 1.379 . S
C163 C167 1.373 1_554 S
C163 C169 1.505 . S
C164 C163 1.379 . S
C164 C166 1.369 . S
C164 H192 0.930 . S
C165 C167 1.383 . S
C165 C168 1.382 1_556 S
C165 H193 0.930 . S
C166 C164 1.369 . S
C166 C168 1.392 . S
C166 H194 0.930 . S
C167 C163 1.373 1_556 S
C167 C165 1.383 . S
C167 H195 0.931 . S
C168 C165 1.382 1_554 S
C168 C166 1.392 . S
C169 Eu160 2.828 1_554 S
C169 C163 1.505 . S
C169 O181 1.249 1_554 S
C169 O182 1.244 . S
O170 Eu161 2.373 . S
O170 C172 1.258 . S
O171 Eu160 2.392 . S
O171 C172 1.242 1_556 S
C172 O170 1.258 . S
C172 O171 1.242 1_554 S
O173 Eu160 2.418 . S
O173 C177 1.244 . S
O174 Eu161 2.488 . S
O174 C190 1.249 1_554 S
O175 Eu161 2.471 1_556 S
O175 C190 1.244 . S
O176 Eu161 2.349 1_556 S
O176 C177 1.265 . S
C177 O173 1.244 . S
C177 O176 1.265 . S
O178 Eu160 2.373 . S
O178 C191 1.258 . S
O179 Eu161 2.392 . S
O179 C191 1.242 1_554 S
O180 Eu161 2.418 . S
O180 C162 1.244 . S
O181 Eu160 2.488 . S
O181 C169 1.249 1_556 S
O182 Eu160 2.471 1_554 S
O182 C169 1.244 . S
O183 Eu160 2.349 1_554 S
O183 C162 1.265 . S
C184 C185 1.379 . S
C184 C188 1.373 1_556 S
C184 C190 1.505 . S
C185 C184 1.379 . S
C185 C187 1.369 . S
C185 H196 0.930 . S
C186 C188 1.383 . S
C186 C189 1.382 1_554 S
C186 H197 0.930 . S
C187 C185 1.369 . S
C187 C189 1.392 . S
C187 H198 0.930 . S
C188 C184 1.373 1_554 S
C188 C186 1.383 . S
C188 H199 0.931 . S
C189 C186 1.382 1_556 S
C189 C187 1.392 . S
C190 Eu161 2.828 1_556 S
C190 O174 1.249 1_556 S
C190 O175 1.244 . S
C190 C184 1.505 . S
C191 O178 1.258 . S
C191 O179 1.242 1_556 S
H192 C164 0.930 . S
H193 C165 0.930 . S
H194 C166 0.930 . S
H195 C167 0.931 . S
H196 C185 0.930 . S
H197 C186 0.930 . S
H198 C187 0.930 . S
H199 C188 0.931 . S
Eu200 C209 2.828 1_556 S
Eu200 O211 2.392 . S
Eu200 O213 2.418 . S
Eu200 O218 2.373 . S
Eu200 O221 2.488 . S
Eu200 O222 2.471 1_556 S
Eu200 O223 2.349 1_556 S
Eu201 O210 2.373 . S
Eu201 O214 2.488 . S
Eu201 O215 2.471 1_554 S
Eu201 O216 2.349 1_554 S
Eu201 O219 2.392 . S
Eu201 O220 2.418 . S
Eu201 C230 2.828 1_554 S
C202 O220 1.244 . S
C202 O223 1.265 . S
C203 C204 1.379 . S
C203 C207 1.373 1_554 S
C203 C209 1.505 . S
C204 C203 1.379 . S
C204 C206 1.369 . S
C204 H232 0.930 . S
C205 C207 1.383 . S
C205 C208 1.382 1_556 S
C205 H233 0.930 . S
C206 C204 1.369 . S
C206 C208 1.392 . S
C206 H234 0.930 . S
C207 C203 1.373 1_556 S
C207 C205 1.383 . S
C207 H235 0.931 . S
C208 C205 1.382 1_554 S
C208 C206 1.392 . S
C209 Eu200 2.828 1_554 S
C209 C203 1.505 . S
C209 O221 1.249 1_554 S
C209 O222 1.244 . S
O210 Eu201 2.373 . S
O210 C212 1.258 . S
O211 Eu200 2.392 . S
O211 C212 1.242 1_556 S
C212 O210 1.258 . S
C212 O211 1.242 1_554 S
O213 Eu200 2.418 . S
O213 C217 1.244 . S
O214 Eu201 2.488 . S
O214 C230 1.249 1_554 S
O215 Eu201 2.471 1_556 S
O215 C230 1.244 . S
O216 Eu201 2.349 1_556 S
O216 C217 1.265 . S
C217 O213 1.244 . S
C217 O216 1.265 . S
O218 Eu200 2.373 . S
O218 C231 1.258 . S
O219 Eu201 2.392 . S
O219 C231 1.242 1_554 S
O220 Eu201 2.418 . S
O220 C202 1.244 . S
O221 Eu200 2.488 . S
O221 C209 1.249 1_556 S
O222 Eu200 2.471 1_554 S
O222 C209 1.244 . S
O223 Eu200 2.349 1_554 S
O223 C202 1.265 . S
C224 C225 1.379 . S
C224 C228 1.373 1_556 S
C224 C230 1.505 . S
C225 C224 1.379 . S
C225 C227 1.369 . S
C225 H236 0.930 . S
C226 C228 1.383 . S
C226 C229 1.382 1_554 S
C226 H237 0.930 . S
C227 C225 1.369 . S
C227 C229 1.392 . S
C227 H238 0.930 . S
C228 C224 1.373 1_554 S
C228 C226 1.383 . S
C228 H239 0.931 . S
C229 C226 1.382 1_556 S
C229 C227 1.392 . S
C230 Eu201 2.828 1_556 S
C230 O214 1.249 1_556 S
C230 O215 1.244 . S
C230 C224 1.505 . S
C231 O218 1.258 . S
C231 O219 1.242 1_556 S
H232 C204 0.930 . S
H233 C205 0.930 . S
H234 C206 0.930 . S
H235 C207 0.931 . S
H236 C225 0.930 . S
H237 C226 0.930 . S
H238 C227 0.930 . S
H239 C228 0.931 . S
C240 C241 1.369 1_556 S
C240 C242 1.419 . S
C240 H244 0.930 . S
C241 C240 1.369 1_554 S
C241 C250 1.429 . S
C242 C240 1.419 . S
C242 C243 1.363 1_556 S
C242 H245 0.929 . S
C243 C242 1.363 1_554 S
C243 C249 1.428 . S
H244 C240 0.930 . S
H245 C242 0.929 . S
S246 N247 1.613 . S
S246 N248 1.610 . S
N247 S246 1.613 . S
N247 C250 1.350 . S
N248 S246 1.610 . S
N248 C249 1.351 . S
C249 C243 1.428 . S
C249 N248 1.351 . S
C249 C250 1.434 . S
C250 C241 1.429 . S
C250 N247 1.350 . S
C250 C249 1.434 . S
C251 C252 1.369 1_556 S
C251 C253 1.419 . S
C251 H255 0.930 . S
C252 C251 1.369 1_554 S
C252 C261 1.429 . S
C253 C251 1.419 . S
C253 C254 1.363 1_556 S
C253 H256 0.929 . S
C254 C253 1.363 1_554 S
C254 C260 1.428 . S
H255 C251 0.930 . S
H256 C253 0.929 . S
S257 N258 1.613 . S
S257 N259 1.610 . S
N258 S257 1.613 . S
N258 C261 1.350 . S
N259 S257 1.610 . S
N259 C260 1.351 . S
C260 C254 1.428 . S
C260 N259 1.351 . S
C260 C261 1.434 . S
C261 C252 1.429 . S
C261 N258 1.350 . S
C261 C260 1.434 . S
C262 C263 1.369 1_556 S
C262 C264 1.419 . S
C262 H266 0.930 . S
C263 C262 1.369 1_554 S
C263 C272 1.429 . S
C264 C262 1.419 . S
C264 C265 1.363 1_556 S
C264 H267 0.929 . S
C265 C264 1.363 1_554 S
C265 C271 1.428 . S
H266 C262 0.930 . S
H267 C264 0.929 . S
S268 N269 1.613 . S
S268 N270 1.610 . S
N269 S268 1.613 . S
N269 C272 1.350 . S
N270 S268 1.610 . S
N270 C271 1.351 . S
C271 C265 1.428 . S
C271 N270 1.351 . S
C271 C272 1.434 . S
C272 C263 1.429 . S
C272 N269 1.350 . S
C272 C271 1.434 . S
C273 C274 1.369 1_556 S
C273 C275 1.419 . S
C273 H277 0.930 . S
C274 C273 1.369 1_554 S
C274 C283 1.429 . S
C275 C273 1.419 . S
C275 C276 1.363 1_556 S
C275 H278 0.929 . S
C276 C275 1.363 1_554 S
C276 C282 1.428 . S
H277 C273 0.930 . S
H278 C275 0.929 . S
S279 N280 1.613 . S
S279 N281 1.610 . S
N280 S279 1.613 . S
N280 C283 1.350 . S
N281 S279 1.610 . S
N281 C282 1.351 . S
C282 C276 1.428 . S
C282 N281 1.351 . S
C282 C283 1.434 . S
C283 C274 1.429 . S
C283 N280 1.350 . S
C283 C282 1.434 . S
C284 C285 1.369 . S
C284 C286 1.419 . S
C284 H288 0.930 . S
C285 C284 1.369 . S
C285 C294 1.429 1_554 S
C286 C284 1.419 . S
C286 C287 1.363 . S
C286 H289 0.929 . S
C287 C286 1.363 . S
C287 C293 1.428 1_554 S
H288 C284 0.930 . S
H289 C286 0.929 . S
S290 N291 1.613 . S
S290 N292 1.610 . S
N291 S290 1.613 . S
N291 C294 1.350 . S
N292 S290 1.610 . S
N292 C293 1.351 . S
C293 C287 1.428 1_556 S
C293 N292 1.351 . S
C293 C294 1.434 . S
C294 C285 1.429 1_556 S
C294 N291 1.350 . S
C294 C293 1.434 . S
C295 C296 1.369 1_556 S
C295 C297 1.419 . S
C295 H299 0.930 . S
C296 C295 1.369 1_554 S
C296 C305 1.429 . S
C297 C295 1.419 . S
C297 C298 1.363 1_556 S
C297 H300 0.929 . S
C298 C297 1.363 1_554 S
C298 C304 1.428 . S
H299 C295 0.930 . S
H300 C297 0.929 . S
S301 N302 1.613 . S
S301 N303 1.610 . S
N302 S301 1.613 . S
N302 C305 1.350 . S
N303 S301 1.610 . S
N303 C304 1.351 . S
C304 C298 1.428 . S
C304 N303 1.351 . S
C304 C305 1.434 . S
C305 C296 1.429 . S
C305 N302 1.350 . S
C305 C304 1.434 . S
C306 C307 1.369 . S
C306 C308 1.419 . S
C306 H310 0.930 . S
C307 C306 1.369 . S
C307 C316 1.429 1_556 S
C308 C306 1.419 . S
C308 C309 1.363 . S
C308 H311 0.929 . S
C309 C308 1.363 . S
C309 C315 1.428 1_556 S
H310 C306 0.930 . S
H311 C308 0.929 . S
S312 N313 1.613 . S
S312 N314 1.610 . S
N313 S312 1.613 . S
N313 C316 1.350 . S
N314 S312 1.610 . S
N314 C315 1.351 . S
C315 C309 1.428 1_554 S
C315 N314 1.351 . S
C315 C316 1.434 . S
C316 C307 1.429 1_554 S
C316 N313 1.350 . S
C316 C315 1.434 . S
C317 C318 1.369 1_554 S
C317 C319 1.419 . S
C317 H321 0.930 . S
C318 C317 1.369 1_556 S
C318 C327 1.429 . S
C319 C317 1.419 . S
C319 C320 1.363 1_554 S
C319 H322 0.929 . S
C320 C319 1.363 1_556 S
C320 C326 1.428 . S
H321 C317 0.930 . S
H322 C319 0.929 . S
S323 N324 1.613 . S
S323 N325 1.610 . S
N324 S323 1.613 . S
N324 C327 1.350 . S
N325 S323 1.610 . S
N325 C326 1.351 . S
C326 C320 1.428 . S
C326 N325 1.351 . S
C326 C327 1.434 . S
C327 C318 1.429 . S
C327 N324 1.350 . S
C327 C326 1.434 . S
C328 C329 1.369 1_554 S
C328 C330 1.419 . S
C328 H332 0.930 . S
C329 C328 1.369 1_556 S
C329 C338 1.429 . S
C330 C328 1.419 . S
C330 C331 1.363 1_554 S
C330 H333 0.929 . S
C331 C330 1.363 1_556 S
C331 C337 1.428 . S
H332 C328 0.930 . S
H333 C330 0.929 . S
S334 N335 1.613 . S
S334 N336 1.610 . S
N335 S334 1.613 . S
N335 C338 1.350 . S
N336 S334 1.610 . S
N336 C337 1.351 . S
C337 C331 1.428 . S
C337 N336 1.351 . S
C337 C338 1.434 . S
C338 C329 1.429 . S
C338 N335 1.350 . S
C338 C337 1.434 . S
C339 C340 1.369 1_554 S
C339 C341 1.419 . S
C339 H343 0.930 . S
C340 C339 1.369 1_556 S
C340 C349 1.429 . S
C341 C339 1.419 . S
C341 C342 1.363 1_554 S
C341 H344 0.929 . S
C342 C341 1.363 1_556 S
C342 C348 1.428 . S
H343 C339 0.930 . S
H344 C341 0.929 . S
S345 N346 1.613 . S
S345 N347 1.610 . S
N346 S345 1.613 . S
N346 C349 1.350 . S
N347 S345 1.610 . S
N347 C348 1.351 . S
C348 C342 1.428 . S
C348 N347 1.351 . S
C348 C349 1.434 . S
C349 C340 1.429 . S
C349 N346 1.350 . S
C349 C348 1.434 . S
C350 C351 1.369 1_554 S
C350 C352 1.419 . S
C350 H354 0.930 . S
C351 C350 1.369 1_556 S
C351 C360 1.429 . S
C352 C350 1.419 . S
C352 C353 1.363 1_554 S
C352 H355 0.929 . S
C353 C352 1.363 1_556 S
C353 C359 1.428 . S
H354 C350 0.930 . S
H355 C352 0.929 . S
S356 N357 1.613 . S
S356 N358 1.610 . S
N357 S356 1.613 . S
N357 C360 1.350 . S
N358 S356 1.610 . S
N358 C359 1.351 . S
C359 C353 1.428 . S
C359 N358 1.351 . S
C359 C360 1.434 . S
C360 C351 1.429 . S
C360 N357 1.350 . S
C360 C359 1.434 . S
C361 C362 1.369 . S
C361 C363 1.419 . S
C361 H365 0.930 . S
C362 C361 1.369 . S
C362 C371 1.429 1_556 S
C363 C361 1.419 . S
C363 C364 1.363 . S
C363 H366 0.929 . S
C364 C363 1.363 . S
C364 C370 1.428 1_556 S
H365 C361 0.930 . S
H366 C363 0.929 . S
S367 N368 1.613 . S
S367 N369 1.610 . S
N368 S367 1.613 . S
N368 C371 1.350 . S
N369 S367 1.610 . S
N369 C370 1.351 . S
C370 C364 1.428 1_554 S
C370 N369 1.351 . S
C370 C371 1.434 . S
C371 C362 1.429 1_554 S
C371 N368 1.350 . S
C371 C370 1.434 . S
C372 C373 1.369 . S
C372 C374 1.419 . S
C372 H376 0.930 . S
C373 C372 1.369 . S
C373 C382 1.429 . S
C374 C372 1.419 . S
C374 C375 1.363 . S
C374 H377 0.929 . S
C375 C374 1.363 . S
C375 C381 1.428 . S
H376 C372 0.930 . S
H377 C374 0.929 . S
S378 N379 1.613 . S
S378 N380 1.610 . S
N379 S378 1.613 . S
N379 C382 1.350 . S
N380 S378 1.610 . S
N380 C381 1.351 . S
C381 C375 1.428 . S
C381 N380 1.351 . S
C381 C382 1.434 . S
C382 C373 1.429 . S
C382 N379 1.350 . S
C382 C381 1.434 . S
C383 C384 1.369 . S
C383 C385 1.419 . S
C383 H387 0.930 . S
C384 C383 1.369 . S
C384 C393 1.429 . S
C385 C383 1.419 . S
C385 C386 1.363 . S
C385 H388 0.929 . S
C386 C385 1.363 . S
C386 C392 1.428 . S
H387 C383 0.930 . S
H388 C385 0.929 . S
S389 N390 1.613 . S
S389 N391 1.610 . S
N390 S389 1.613 . S
N390 C393 1.350 . S
N391 S389 1.610 . S
N391 C392 1.351 . S
C392 C386 1.428 . S
C392 N391 1.351 . S
C392 C393 1.434 . S
C393 C384 1.429 . S
C393 N390 1.350 . S
C393 C392 1.434 . S
C394 C395 1.369 . S
C394 C396 1.419 . S
C394 H398 0.930 . S
C395 C394 1.369 . S
C395 C404 1.429 . S
C396 C394 1.419 . S
C396 C397 1.363 . S
C396 H399 0.929 . S
C397 C396 1.363 . S
C397 C403 1.428 . S
H398 C394 0.930 . S
H399 C396 0.929 . S
S400 N401 1.613 . S
S400 N402 1.610 . S
N401 S400 1.613 . S
N401 C404 1.350 . S
N402 S400 1.610 . S
N402 C403 1.351 . S
C403 C397 1.428 . S
C403 N402 1.351 . S
C403 C404 1.434 . S
C404 C395 1.429 . S
C404 N401 1.350 . S
C404 C403 1.434 . S
C405 C406 1.369 . S
C405 C407 1.419 . S
C405 H409 0.930 . S
C406 C405 1.369 . S
C406 C415 1.429 . S
C407 C405 1.419 . S
C407 C408 1.363 . S
C407 H410 0.929 . S
C408 C407 1.363 . S
C408 C414 1.428 . S
H409 C405 0.930 . S
H410 C407 0.929 . S
S411 N412 1.613 . S
S411 N413 1.610 . S
N412 S411 1.613 . S
N412 C415 1.350 . S
N413 S411 1.610 . S
N413 C414 1.351 . S
C414 C408 1.428 . S
C414 N413 1.351 . S
C414 C415 1.434 . S
C415 C406 1.429 . S
C415 N412 1.350 . S
C415 C414 1.434 . S
C416 C417 1.369 . S
C416 C418 1.419 . S
C416 H420 0.930 . S
C417 C416 1.369 . S
C417 C426 1.429 . S
C418 C416 1.419 . S
C418 C419 1.363 . S
C418 H421 0.929 . S
C419 C418 1.363 . S
C419 C425 1.428 . S
H420 C416 0.930 . S
H421 C418 0.929 . S
S422 N423 1.613 . S
S422 N424 1.610 . S
N423 S422 1.613 . S
N423 C426 1.350 . S
N424 S422 1.610 . S
N424 C425 1.351 . S
C425 C419 1.428 . S
C425 N424 1.351 . S
C425 C426 1.434 . S
C426 C417 1.429 . S
C426 N423 1.350 . S
C426 C425 1.434 . S
C427 C428 1.369 . S
C427 C429 1.419 . S
C427 H431 0.930 . S
C428 C427 1.369 . S
C428 C437 1.429 . S
C429 C427 1.419 . S
C429 C430 1.363 . S
C429 H432 0.929 . S
C430 C429 1.363 . S
C430 C436 1.428 . S
H431 C427 0.930 . S
H432 C429 0.929 . S
S433 N434 1.613 . S
S433 N435 1.610 . S
N434 S433 1.613 . S
N434 C437 1.350 . S
N435 S433 1.610 . S
N435 C436 1.351 . S
C436 C430 1.428 . S
C436 N435 1.351 . S
C436 C437 1.434 . S
C437 C428 1.429 . S
C437 N434 1.350 . S
C437 C436 1.434 . S
C241 C231 2.270 1_554 S
C243 C8 1.853 . S
C252 C31 2.269 1_554 S
C254 C48 1.851 1_455 S
C263 C71 2.271 1_554 S
C265 C88 1.856 1_545 S
C274 C128 1.854 . S
C276 C111 2.270 1_554 S
C285 C168 1.854 1_655 S
C287 C151 2.271 1_554 S
C296 C191 2.270 1_554 S
C298 C208 1.855 1_565 S
C307 C172 1.870 1_556 S
C309 C29 1.840 . S
C318 C212 1.868 1_556 S
C320 C69 1.841 . S
C329 C109 1.842 . S
C331 C12 1.869 1_556 S
C340 C149 1.840 . S
C342 C52 1.868 1_556 S
C351 C189 1.843 . S
C353 C92 1.869 1_556 S
C362 C132 1.870 1_556 S
C364 C229 1.838 . S
C373 C17 1.449 . S
C375 C2 1.454 . S
C384 C57 1.457 . S
C386 C42 1.448 . S
C395 C97 1.457 . S
C397 C82 1.448 . S
C406 C137 1.451 . S
C408 C122 1.452 . S
C417 C162 1.453 . S
C419 C177 1.451 . S
C428 C217 1.448 . S
C430 C202 1.454 . S
