# Generated by pormake.
# Topology etf, (3)-cn, num edge types: 1
# Building blocks:
#     Node 0, Type 0, BuildingBlock: WUSLED_clean_sbu_0, # of connection points: 3
#     Node 1, Type 0, BuildingBlock: WUSLED_clean_sbu_0, # of connection points: 3
#     Node 2, Type 0, BuildingBlock: WUSLED_clean_sbu_0, # of connection points: 3
#     Node 3, Type 0, BuildingBlock: WUSLED_clean_sbu_0, # of connection points: 3
#     Node 4, Type 0, BuildingBlock: WUSLED_clean_sbu_0, # of connection points: 3
#     Node 5, Type 0, BuildingBlock: WUSLED_clean_sbu_0, # of connection points: 3
#     Node 6, Type 0, BuildingBlock: WUSLED_clean_sbu_0, # of connection points: 3
#     Node 7, Type 0, BuildingBlock: WUSLED_clean_sbu_0, # of connection points: 3
#     Node 8, Type 0, BuildingBlock: WUSLED_clean_sbu_0, # of connection points: 3
#     Node 9, Type 0, BuildingBlock: WUSLED_clean_sbu_0, # of connection points: 3
#     Node 10, Type 0, BuildingBlock: WUSLED_clean_sbu_0, # of connection points: 3
#     Node 11, Type 0, BuildingBlock: WUSLED_clean_sbu_0, # of connection points: 3
#     Node 12, Type 0, BuildingBlock: WUSLED_clean_sbu_0, # of connection points: 3
#     Node 13, Type 0, BuildingBlock: WUSLED_clean_sbu_0, # of connection points: 3
#     Node 14, Type 0, BuildingBlock: WUSLED_clean_sbu_0, # of connection points: 3
#     Node 15, Type 0, BuildingBlock: WUSLED_clean_sbu_0, # of connection points: 3
#     Node 16, Type 0, BuildingBlock: WUSLED_clean_sbu_0, # of connection points: 3
#     Node 17, Type 0, BuildingBlock: WUSLED_clean_sbu_0, # of connection points: 3
#     Node 18, Type 0, BuildingBlock: WUSLED_clean_sbu_0, # of connection points: 3
#     Node 19, Type 0, BuildingBlock: WUSLED_clean_sbu_0, # of connection points: 3
#     Node 20, Type 0, BuildingBlock: WUSLED_clean_sbu_0, # of connection points: 3
#     Node 21, Type 0, BuildingBlock: WUSLED_clean_sbu_0, # of connection points: 3
#     Node 22, Type 0, BuildingBlock: WUSLED_clean_sbu_0, # of connection points: 3
#     Node 23, Type 0, BuildingBlock: WUSLED_clean_sbu_0, # of connection points: 3
#     Node 24, Type 0, BuildingBlock: WUSLED_clean_sbu_0, # of connection points: 3
#     Node 25, Type 0, BuildingBlock: WUSLED_clean_sbu_0, # of connection points: 3
#     Node 26, Type 0, BuildingBlock: WUSLED_clean_sbu_0, # of connection points: 3
#     Node 27, Type 0, BuildingBlock: WUSLED_clean_sbu_0, # of connection points: 3
#     Node 28, Type 0, BuildingBlock: WUSLED_clean_sbu_0, # of connection points: 3
#     Node 29, Type 0, BuildingBlock: WUSLED_clean_sbu_0, # of connection points: 3
#     Node 30, Type 0, BuildingBlock: WUSLED_clean_sbu_0, # of connection points: 3
#     Node 31, Type 0, BuildingBlock: WUSLED_clean_sbu_0, # of connection points: 3
#     Node 32, Type 0, BuildingBlock: WUSLED_clean_sbu_0, # of connection points: 3
#     Node 33, Type 0, BuildingBlock: WUSLED_clean_sbu_0, # of connection points: 3
#     Node 34, Type 0, BuildingBlock: WUSLED_clean_sbu_0, # of connection points: 3
#     Node 35, Type 0, BuildingBlock: WUSLED_clean_sbu_0, # of connection points: 3
#     Edge 36, Type (0, 0), None
#     Edge 37, Type (0, 0), None
#     Edge 38, Type (0, 0), None
#     Edge 39, Type (0, 0), None
#     Edge 40, Type (0, 0), None
#     Edge 41, Type (0, 0), None
#     Edge 42, Type (0, 0), None
#     Edge 43, Type (0, 0), None
#     Edge 44, Type (0, 0), None
#     Edge 45, Type (0, 0), None
#     Edge 46, Type (0, 0), None
#     Edge 47, Type (0, 0), None
#     Edge 48, Type (0, 0), None
#     Edge 49, Type (0, 0), None
#     Edge 50, Type (0, 0), None
#     Edge 51, Type (0, 0), None
#     Edge 52, Type (0, 0), None
#     Edge 53, Type (0, 0), None
#     Edge 54, Type (0, 0), None
#     Edge 55, Type (0, 0), None
#     Edge 56, Type (0, 0), None
#     Edge 57, Type (0, 0), None
#     Edge 58, Type (0, 0), None
#     Edge 59, Type (0, 0), None
#     Edge 60, Type (0, 0), None
#     Edge 61, Type (0, 0), None
#     Edge 62, Type (0, 0), None
#     Edge 63, Type (0, 0), None
#     Edge 64, Type (0, 0), None
#     Edge 65, Type (0, 0), None
#     Edge 66, Type (0, 0), None
#     Edge 67, Type (0, 0), None
#     Edge 68, Type (0, 0), None
#     Edge 69, Type (0, 0), None
#     Edge 70, Type (0, 0), None
#     Edge 71, Type (0, 0), None
#     Edge 72, Type (0, 0), None
#     Edge 73, Type (0, 0), None
#     Edge 74, Type (0, 0), None
#     Edge 75, Type (0, 0), None
#     Edge 76, Type (0, 0), None
#     Edge 77, Type (0, 0), None
#     Edge 78, Type (0, 0), None
#     Edge 79, Type (0, 0), None
#     Edge 80, Type (0, 0), None
#     Edge 81, Type (0, 0), None
#     Edge 82, Type (0, 0), None
#     Edge 83, Type (0, 0), None
#     Edge 84, Type (0, 0), None
#     Edge 85, Type (0, 0), None
#     Edge 86, Type (0, 0), None
#     Edge 87, Type (0, 0), None
#     Edge 88, Type (0, 0), None
#     Edge 89, Type (0, 0), None
# Relax obj value: 0.003
# Max RMSD: 0.007
# Mean RMSD: 0.007
data_MOF--net-etf--node1-WUSLED_clean_sbu_0--edge1-none
_symmetry_space_group_name_H-M    P1
_symmetry_Int_Tables_number       1
_symmetry_cell_setting            triclinic
loop_
_symmetry_equiv_pos_as_xyz
'x, y, z'
_cell_length_a     84.989626
_cell_length_b     84.963372
_cell_length_c     48.554268
_cell_angle_alpha  89.981043
_cell_angle_beta   90.024776
_cell_angle_gamma 120.09218
loop_
_atom_site_label
_atom_site_type_symbol
_atom_site_fract_x
_atom_site_fract_y
_atom_site_fract_z
_atom_type_partial_charge
C0 C 0.09265 0.30988 0.28491 0.0
C1 C 0.08516 0.31081 0.2596 0.0
C2 C 0.05448 0.29086 0.27709 0.0
C3 C 0.06629 0.30143 0.25574 0.0
C4 C 0.06212 0.28999 0.30242 0.0
C5 C 0.08101 0.29941 0.30627 0.0
U6 U 0.14001 0.33691 0.25497 0.0
O7 O 0.16467 0.36126 0.26984 0.0
O8 O 0.16511 0.33599 0.26267 0.0
C9 C 0.17401 0.35279 0.27187 0.0
C10 C 0.11253 0.31964 0.28897 0.0
C11 C 0.18443 0.35573 0.29758 0.0
C12 C 0.18702 0.35752 0.34756 0.0
C13 C 0.17661 0.35428 0.32358 0.0
C14 C 0.21312 0.36352 0.31982 0.0
C15 C 0.20545 0.36222 0.34601 0.0
C16 C 0.20272 0.36032 0.29593 0.0
C17 C 0.14067 0.34473 0.1756 0.0
C18 C 0.16161 0.36942 0.14576 0.0
C19 C 0.13797 0.34132 0.12582 0.0
C20 C 0.13215 0.3342 0.15221 0.0
C21 C 0.15246 0.3592 0.12221 0.0
C22 C 0.15575 0.36225 0.17223 0.0
C23 C 0.13227 0.33771 0.20275 0.0
O24 O 0.12107 0.31201 0.27755 0.0
O25 O 0.12079 0.33731 0.28492 0.0
O26 O 0.13353 0.34975 0.22095 0.0
O27 O 0.13429 0.32464 0.21349 0.0
H28 H 0.09394 0.31882 0.24282 0.0
H29 H 0.06095 0.30266 0.2361 0.0
H30 H 0.05352 0.2818 0.3192 0.0
H31 H 0.08653 0.29845 0.3259 0.0
H32 H 0.18068 0.35658 0.36729 0.0
H33 H 0.16251 0.35077 0.32533 0.0
H34 H 0.22712 0.3668 0.31775 0.0
H35 H 0.209 0.36145 0.27605 0.0
H36 H 0.17298 0.38313 0.14375 0.0
H37 H 0.13043 0.33311 0.10829 0.0
H38 H 0.12044 0.32069 0.15436 0.0
H39 H 0.16262 0.37062 0.19 0.0
C40 C 0.76459 0.79842 0.28514 0.0
C41 C 0.76364 0.79002 0.25981 0.0
C42 C 0.78358 0.77929 0.27721 0.0
C43 C 0.773 0.78053 0.2559 0.0
C44 C 0.78448 0.78779 0.30257 0.0
C45 C 0.77507 0.79724 0.30647 0.0
U46 U 0.73759 0.81875 0.25531 0.0
O47 O 0.71326 0.81902 0.27019 0.0
O48 O 0.73854 0.84479 0.26301 0.0
C49 C 0.72174 0.83685 0.2722 0.0
C50 C 0.75485 0.80853 0.28926 0.0
C51 C 0.71878 0.84436 0.29786 0.0
C52 C 0.71673 0.84507 0.34781 0.0
C53 C 0.72001 0.83788 0.3239 0.0
C54 C 0.71109 0.86535 0.31993 0.0
C55 C 0.71219 0.8589 0.34615 0.0
C56 C 0.71435 0.85815 0.2961 0.0
C57 C 0.72975 0.81164 0.17594 0.0
C58 C 0.70507 0.80787 0.14612 0.0
C59 C 0.73316 0.81242 0.12616 0.0
C60 C 0.74028 0.8137 0.15254 0.0
C61 C 0.71529 0.809 0.12256 0.0
C62 C 0.71224 0.80916 0.17258 0.0
C63 C 0.73677 0.81024 0.20308 0.0
O64 O 0.76248 0.82474 0.27786 0.0
O65 O 0.73718 0.79909 0.28523 0.0
O66 O 0.72474 0.79942 0.22127 0.0
O67 O 0.74985 0.82535 0.21382 0.0
H68 H 0.75561 0.79078 0.24307 0.0
H69 H 0.77175 0.77399 0.23624 0.0
H70 H 0.79267 0.78737 0.31932 0.0
H71 H 0.77605 0.80371 0.32612 0.0
H72 H 0.71751 0.83959 0.36757 0.0
H73 H 0.7234 0.82721 0.32573 0.0
H74 H 0.70794 0.87616 0.31777 0.0
H75 H 0.71337 0.86337 0.27619 0.0
H76 H 0.69137 0.8055 0.14411 0.0
H77 H 0.74136 0.81313 0.10862 0.0
H78 H 0.75378 0.81553 0.15468 0.0
H79 H 0.70387 0.80761 0.19036 0.0
C80 C 0.27603 0.98183 0.28502 0.0
C81 C 0.28445 0.98932 0.25971 0.0
C82 C 0.29519 1.02 0.27719 0.0
C83 C 0.29395 1.0082 0.25585 0.0
C84 C 0.28667 1.01235 0.30252 0.0
C85 C 0.27719 0.99346 0.30637 0.0
U86 U 0.25569 0.93446 0.25508 0.0
O87 O 0.25539 0.90984 0.26995 0.0
O88 O 0.22964 0.90931 0.26275 0.0
C89 C 0.23756 0.90044 0.27197 0.0
C90 C 0.2659 0.96194 0.28908 0.0
C91 C 0.23007 0.89001 0.29767 0.0
C92 C 0.22928 0.88742 0.34764 0.0
C93 C 0.23646 0.89784 0.32367 0.0
C94 C 0.20917 0.86129 0.31988 0.0
C95 C 0.21554 0.86896 0.34608 0.0
C96 C 0.21637 0.8717 0.296 0.0
C97 C 0.26284 0.93381 0.17573 0.0
C98 C 0.26657 0.91289 0.14594 0.0
C99 C 0.26214 0.93649 0.12595 0.0
C100 C 0.26084 0.94232 0.15232 0.0
C101 C 0.2655 0.92201 0.12237 0.0
C102 C 0.26527 0.91875 0.17239 0.0
C103 C 0.26423 0.94222 0.20287 0.0
O104 O 0.24971 0.95335 0.27765 0.0
O105 O 0.27533 0.95373 0.28505 0.0
O106 O 0.27503 0.94101 0.22108 0.0
O107 O 0.24912 0.94015 0.21359 0.0
H108 H 0.28369 0.98056 0.24295 0.0
H109 H 0.30052 1.01355 0.23622 0.0
H110 H 0.28708 1.02095 0.31929 0.0
H111 H 0.2707 0.98792 0.326 0.0
H112 H 0.23468 0.89376 0.36738 0.0
H113 H 0.24705 0.91196 0.32543 0.0
H114 H 0.19843 0.84726 0.3178 0.0
H115 H 0.21122 0.86542 0.27611 0.0
H116 H 0.2689 0.90152 0.14394 0.0
H117 H 0.26148 0.94402 0.1084 0.0
H118 H 0.25905 0.95402 0.15444 0.0
H119 H 0.26677 0.9119 0.19017 0.0
C120 C 0.32429 0.07833 0.2652 0.0
C121 C 0.32522 0.07085 0.29052 0.0
C122 C 0.30527 0.04016 0.27304 0.0
C123 C 0.31584 0.05197 0.29438 0.0
C124 C 0.30439 0.04779 0.2477 0.0
C125 C 0.31382 0.06669 0.24385 0.0
U126 U 0.35133 0.12572 0.29513 0.0
O127 O 0.37568 0.15037 0.28027 0.0
O128 O 0.35042 0.15082 0.28743 0.0
C129 C 0.36722 0.15972 0.27822 0.0
C130 C 0.33405 0.09822 0.26113 0.0
C131 C 0.37015 0.17013 0.25251 0.0
C132 C 0.37197 0.17271 0.20253 0.0
C133 C 0.36874 0.16231 0.22651 0.0
C134 C 0.37793 0.19881 0.23024 0.0
C135 C 0.37664 0.19114 0.20406 0.0
C136 C 0.37472 0.18842 0.25414 0.0
C137 C 0.35914 0.12638 0.3745 0.0
C138 C 0.38382 0.14731 0.40435 0.0
C139 C 0.35573 0.12367 0.42428 0.0
C140 C 0.34861 0.11786 0.39789 0.0
C141 C 0.3736 0.13817 0.4279 0.0
C142 C 0.37666 0.14146 0.37788 0.0
C143 C 0.35212 0.11797 0.34735 0.0
O144 O 0.32643 0.10677 0.27255 0.0
O145 O 0.35172 0.10647 0.26519 0.0
O146 O 0.36415 0.11922 0.32916 0.0
O147 O 0.33906 0.12 0.33661 0.0
H148 H 0.33324 0.07963 0.30729 0.0
H149 H 0.31707 0.04664 0.31402 0.0
H150 H 0.2962 0.03918 0.23092 0.0
H151 H 0.31286 0.07221 0.22421 0.0
H152 H 0.37105 0.16637 0.1828 0.0
H153 H 0.36524 0.14821 0.22478 0.0
H154 H 0.38118 0.21282 0.2323 0.0
H155 H 0.37583 0.1947 0.27401 0.0
H156 H 0.39753 0.15868 0.40637 0.0
H157 H 0.34752 0.11613 0.44181 0.0
H158 H 0.3351 0.10614 0.39574 0.0
H159 H 0.38503 0.14832 0.36011 0.0
C160 C 0.99617 0.26163 0.26513 0.0
C161 C 1.00367 0.27006 0.29043 0.0
C162 C 1.03433 0.28078 0.27295 0.0
C163 C 1.02254 0.27956 0.29429 0.0
C164 C 1.02667 0.27226 0.24762 0.0
C165 C 1.00778 0.26279 0.24378 0.0
U166 U 0.94881 0.24129 0.29507 0.0
O167 O 0.9242 0.241 0.2802 0.0
O168 O 0.92367 0.21524 0.2874 0.0
C169 C 0.91481 0.22317 0.27819 0.0
C170 C 0.97628 0.25151 0.26107 0.0
C171 C 0.90437 0.21568 0.25249 0.0
C172 C 0.90174 0.21491 0.20252 0.0
C173 C 0.91217 0.22209 0.22648 0.0
C174 C 0.87566 0.19474 0.23029 0.0
C175 C 0.8833 0.20114 0.20409 0.0
C176 C 0.88608 0.20194 0.25417 0.0
C177 C 0.94816 0.24845 0.37442 0.0
C178 C 0.92723 0.25217 0.4042 0.0
C179 C 0.95083 0.24774 0.42421 0.0
C180 C 0.95666 0.24645 0.39784 0.0
C181 C 0.93635 0.2511 0.42778 0.0
C182 C 0.9331 0.25087 0.37775 0.0
C183 C 0.95658 0.24984 0.34729 0.0
O184 O 0.96769 0.23531 0.2725 0.0
O185 O 0.96808 0.26094 0.26511 0.0
O186 O 0.95537 0.26065 0.32908 0.0
O187 O 0.9545 0.23472 0.33656 0.0
H188 H 0.99491 0.26931 0.3072 0.0
H189 H 1.02789 0.28613 0.31392 0.0
H190 H 1.03526 0.27266 0.23085 0.0
H191 H 1.00224 0.25629 0.22415 0.0
H192 H 0.90806 0.22034 0.18278 0.0
H193 H 0.92627 0.23272 0.22472 0.0
H194 H 0.86165 0.18398 0.23238 0.0
H195 H 0.87981 0.19676 0.27405 0.0
H196 H 0.91587 0.25449 0.40618 0.0
H197 H 0.95835 0.24708 0.44176 0.0
H198 H 0.96836 0.24466 0.39572 0.0
H199 H 0.92625 0.25237 0.35996 0.0
C200 C 0.81277 0.75026 0.26507 0.0
C201 C 0.80438 0.7493 0.2904 0.0
C202 C 0.79364 0.76924 0.273 0.0
C203 C 0.79488 0.75865 0.29432 0.0
C204 C 0.80213 0.77014 0.24765 0.0
C205 C 0.81159 0.76074 0.24375 0.0
U206 U 0.83313 0.72327 0.29491 0.0
O207 O 0.83341 0.69895 0.28002 0.0
O208 O 0.85916 0.72424 0.2872 0.0
C209 C 0.85124 0.70743 0.27801 0.0
C210 C 0.82289 0.74052 0.26095 0.0
C211 C 0.85874 0.70447 0.25235 0.0
C212 C 0.85944 0.70242 0.2024 0.0
C213 C 0.85225 0.70569 0.22631 0.0
C214 C 0.87975 0.69681 0.23028 0.0
C215 C 0.87328 0.69789 0.20406 0.0
C216 C 0.87254 0.70006 0.25411 0.0
C217 C 0.82602 0.71544 0.37428 0.0
C218 C 0.82228 0.69077 0.4041 0.0
C219 C 0.82679 0.71885 0.42406 0.0
C220 C 0.82807 0.72597 0.39767 0.0
C221 C 0.82339 0.70098 0.42766 0.0
C222 C 0.82357 0.69793 0.37764 0.0
C223 C 0.82462 0.72245 0.34714 0.0
O224 O 0.83909 0.74817 0.27235 0.0
O225 O 0.81346 0.72285 0.26498 0.0
O226 O 0.8138 0.71041 0.32894 0.0
O227 O 0.83973 0.73554 0.33639 0.0
H228 H 0.80514 0.74128 0.30714 0.0
H229 H 0.78834 0.7574 0.31397 0.0
H230 H 0.80171 0.77834 0.2309 0.0
H231 H 0.81806 0.76172 0.2241 0.0
H232 H 0.85395 0.70318 0.18264 0.0
H233 H 0.84158 0.70906 0.22448 0.0
H234 H 0.89056 0.69367 0.23243 0.0
H235 H 0.87778 0.6991 0.27401 0.0
H236 H 0.81993 0.67706 0.40611 0.0
H237 H 0.82748 0.72705 0.4416 0.0
H238 H 0.82988 0.73947 0.39553 0.0
H239 H 0.82203 0.68956 0.35986 0.0
C240 C 0.99606 0.75293 0.76614 0.0
C241 C 1.00376 0.75217 0.79133 0.0
C242 C 1.03428 0.77216 0.77327 0.0
C243 C 1.02267 0.76166 0.79485 0.0
C244 C 1.02642 0.77289 0.74808 0.0
C245 C 1.0075 0.76336 0.74458 0.0
U246 U 0.94872 0.72502 0.79619 0.0
O247 O 0.92331 0.72521 0.78842 0.0
O248 O 0.92442 0.70032 0.78106 0.0
C249 C 0.91474 0.70842 0.77909 0.0
C250 C 0.97615 0.74288 0.76228 0.0
C251 C 0.90433 0.70528 0.75333 0.0
C252 C 0.90175 0.71283 0.70581 0.0
C253 C 0.91216 0.71593 0.72975 0.0
C254 C 0.87564 0.68834 0.72869 0.0
C255 C 0.88331 0.699 0.70496 0.0
C256 C 0.88604 0.69146 0.75257 0.0
C257 C 0.94781 0.71656 0.87531 0.0
C258 C 0.92664 0.69136 0.90416 0.0
C259 C 0.95013 0.71908 0.9252 0.0
C260 C 0.95616 0.72667 0.8991 0.0
C261 C 0.9356 0.70115 0.9281 0.0
C262 C 0.9327 0.69899 0.87798 0.0
C263 C 0.95639 0.72405 0.84841 0.0
O264 O 0.9682 0.72521 0.76617 0.0
O265 O 0.96738 0.7502 0.77392 0.0
O266 O 0.954 0.73696 0.8379 0.0
O267 O 0.9556 0.71235 0.82997 0.0
H268 H 0.99514 0.74417 0.80824 0.0
H269 H 1.02818 0.76054 0.81439 0.0
H270 H 1.03487 0.78102 0.73114 0.0
H271 H 1.00181 0.76417 0.72502 0.0
H272 H 0.90809 0.72147 0.68809 0.0
H273 H 0.92626 0.7267 0.72992 0.0
H274 H 0.86163 0.67739 0.72876 0.0
H275 H 0.87976 0.68305 0.77054 0.0
H276 H 0.91524 0.67762 0.90563 0.0
H277 H 0.95753 0.72697 0.94305 0.0
H278 H 0.96789 0.74022 0.89749 0.0
H279 H 0.92597 0.69095 0.85989 0.0
C280 C 0.32151 0.25887 0.76588 0.0
C281 C 0.32229 0.26731 0.79109 0.0
C282 C 0.30231 0.27785 0.77311 0.0
C283 C 0.31282 0.27672 0.79466 0.0
C284 C 0.30157 0.26928 0.7479 0.0
C285 C 0.31108 0.2599 0.74434 0.0
U286 U 0.34936 0.23943 0.79588 0.0
O287 O 0.34914 0.2138 0.7881 0.0
O288 O 0.37405 0.23987 0.78077 0.0
C289 C 0.36594 0.22206 0.77883 0.0
C290 C 0.33154 0.24902 0.76198 0.0
C291 C 0.36912 0.21479 0.75313 0.0
C292 C 0.36173 0.20472 0.70554 0.0
C293 C 0.3586 0.21205 0.72942 0.0
C294 C 0.38599 0.20292 0.72875 0.0
C295 C 0.37546 0.20001 0.70489 0.0
C296 C 0.38284 0.21021 0.75256 0.0
C297 C 0.35783 0.24695 0.87498 0.0
C298 C 0.38301 0.25098 0.90381 0.0
C299 C 0.35531 0.24668 0.92488 0.0
C300 C 0.34773 0.24514 0.89879 0.0
C301 C 0.37323 0.2501 0.92777 0.0
C302 C 0.37538 0.24942 0.87765 0.0
C303 C 0.35033 0.24804 0.8481 0.0
O304 O 0.3492 0.25876 0.76587 0.0
O305 O 0.32421 0.2329 0.7736 0.0
O306 O 0.33742 0.23273 0.83758 0.0
O307 O 0.36204 0.259 0.82967 0.0
H308 H 0.33029 0.26669 0.80798 0.0
H309 H 0.31395 0.28334 0.81422 0.0
H310 H 0.29344 0.2696 0.73097 0.0
H311 H 0.31026 0.25341 0.72477 0.0
H312 H 0.3532 0.2025 0.68772 0.0
H313 H 0.34791 0.21547 0.72944 0.0
H314 H 0.39686 0.19977 0.72897 0.0
H315 H 0.39114 0.21226 0.77063 0.0
H316 H 0.39674 0.25334 0.90527 0.0
H317 H 0.34743 0.24617 0.94274 0.0
H318 H 0.33419 0.24331 0.89718 0.0
H319 H 0.38341 0.25076 0.85954 0.0
C320 C 0.81557 0.07832 0.76606 0.0
C321 C 0.8071 0.0706 0.79124 0.0
C322 C 0.79657 0.04008 0.7732 0.0
C323 C 0.79768 0.05169 0.79477 0.0
C324 C 0.80517 0.04796 0.74801 0.0
C325 C 0.81456 0.06689 0.74451 0.0
U326 U 0.835 0.12565 0.79613 0.0
O327 O 0.86063 0.15112 0.78839 0.0
O328 O 0.83458 0.14991 0.781 0.0
C329 C 0.85238 0.15965 0.77906 0.0
C330 C 0.82543 0.09823 0.7622 0.0
C331 C 0.85965 0.17006 0.7533 0.0
C332 C 0.8698 0.17268 0.70578 0.0
C333 C 0.86248 0.16226 0.72972 0.0
C334 C 0.87141 0.19876 0.72868 0.0
C335 C 0.87441 0.19111 0.70494 0.0
C336 C 0.86413 0.18834 0.75255 0.0
C337 C 0.82743 0.12653 0.87522 0.0
C338 C 0.82342 0.14769 0.90402 0.0
C339 C 0.82763 0.12424 0.92512 0.0
C340 C 0.82918 0.1182 0.89903 0.0
C341 C 0.82424 0.13875 0.92798 0.0
C342 C 0.82499 0.14163 0.87786 0.0
C343 C 0.82635 0.11795 0.84833 0.0
O344 O 0.8157 0.10613 0.76608 0.0
O345 O 0.84154 0.10705 0.77387 0.0
O346 O 0.84167 0.12039 0.83785 0.0
O347 O 0.81541 0.1187 0.82988 0.0
H348 H 0.80772 0.07921 0.80815 0.0
H349 H 0.79104 0.04616 0.8143 0.0
H350 H 0.80486 0.03953 0.73107 0.0
H351 H 0.82108 0.0726 0.72495 0.0
H352 H 0.87209 0.16635 0.68807 0.0
H353 H 0.85914 0.14816 0.72989 0.0
H354 H 0.87448 0.21276 0.72874 0.0
H355 H 0.86201 0.19461 0.77052 0.0
H356 H 0.82108 0.15908 0.90546 0.0
H357 H 0.82811 0.11685 0.94298 0.0
H358 H 0.83098 0.10648 0.89744 0.0
H359 H 0.82368 0.14834 0.85975 0.0
C360 C 0.76723 0.98165 0.78406 0.0
C361 C 0.76648 0.98936 0.75887 0.0
C362 C 0.78647 1.01989 0.77692 0.0
C363 C 0.77597 1.00827 0.75534 0.0
C364 C 0.7872 1.01202 0.80211 0.0
C365 C 0.77767 0.9931 0.80562 0.0
U366 U 0.73932 0.93431 0.75399 0.0
O367 O 0.7395 0.90888 0.76175 0.0
O368 O 0.71462 0.91001 0.76912 0.0
C369 C 0.72271 0.90031 0.77108 0.0
C370 C 0.75718 0.96174 0.78792 0.0
C371 C 0.71957 0.88991 0.79685 0.0
C372 C 0.72711 0.88737 0.8444 0.0
C373 C 0.7302 0.89777 0.82045 0.0
C374 C 0.70268 0.86122 0.82149 0.0
C375 C 0.71331 0.86892 0.84524 0.0
C376 C 0.70579 0.87161 0.7976 0.0
C377 C 0.73085 0.93341 0.67489 0.0
C378 C 0.70564 0.91223 0.64604 0.0
C379 C 0.73336 0.93572 0.62499 0.0
C380 C 0.74095 0.94175 0.65109 0.0
C381 C 0.71543 0.92119 0.62209 0.0
C382 C 0.71328 0.91829 0.67221 0.0
C383 C 0.73835 0.94199 0.70178 0.0
O384 O 0.73952 0.95379 0.78403 0.0
O385 O 0.76449 0.95296 0.77626 0.0
O386 O 0.75125 0.93959 0.71229 0.0
O387 O 0.72665 0.9412 0.72023 0.0
H388 H 0.75848 0.98073 0.74196 0.0
H389 H 0.77485 1.01378 0.7358 0.0
H390 H 0.79533 1.02047 0.81906 0.0
H391 H 0.77847 0.9874 0.82518 0.0
H392 H 0.73572 0.89374 0.86213 0.0
H393 H 0.74093 0.91189 0.82029 0.0
H394 H 0.69176 0.84719 0.82141 0.0
H395 H 0.69741 0.8653 0.77961 0.0
H396 H 0.6919 0.90084 0.64457 0.0
H397 H 0.74124 0.94312 0.60714 0.0
H398 H 0.75449 0.95348 0.6527 0.0
H399 H 0.70524 0.91157 0.69031 0.0
C400 C 0.0927 0.80125 0.78413 0.0
C401 C 0.08498 0.79278 0.75894 0.0
C402 C 0.05447 0.78225 0.777 0.0
C403 C 0.06607 0.78336 0.75542 0.0
C404 C 0.06236 0.79086 0.80218 0.0
C405 C 0.08128 0.80025 0.80568 0.0
U406 U 0.14001 0.82067 0.75406 0.0
O407 O 0.16549 0.84631 0.76181 0.0
O408 O 0.16426 0.82025 0.7692 0.0
C409 C 0.174 0.83806 0.77113 0.0
C410 C 0.11261 0.81111 0.78798 0.0
C411 C 0.18443 0.84533 0.79688 0.0
C412 C 0.18706 0.85545 0.84442 0.0
C413 C 0.17663 0.84813 0.82049 0.0
C414 C 0.21314 0.85713 0.82146 0.0
C415 C 0.20549 0.8601 0.84522 0.0
C416 C 0.20272 0.84984 0.7976 0.0
C417 C 0.1409 0.8131 0.67498 0.0
C418 C 0.16206 0.80908 0.64619 0.0
C419 C 0.13862 0.81331 0.62507 0.0
C420 C 0.13259 0.81486 0.65116 0.0
C421 C 0.15313 0.80992 0.62222 0.0
C422 C 0.15599 0.81065 0.67234 0.0
C423 C 0.13232 0.81202 0.70186 0.0
O424 O 0.1205 0.80137 0.7841 0.0
O425 O 0.12142 0.82722 0.77632 0.0
O426 O 0.13476 0.82734 0.71234 0.0
O427 O 0.13306 0.80108 0.72031 0.0
H428 H 0.09358 0.79339 0.74203 0.0
H429 H 0.06054 0.77672 0.73589 0.0
H430 H 0.05393 0.79054 0.81912 0.0
H431 H 0.08699 0.80676 0.82524 0.0
H432 H 0.18074 0.85772 0.86216 0.0
H433 H 0.16253 0.84476 0.82035 0.0
H434 H 0.22715 0.86023 0.82136 0.0
H435 H 0.20898 0.84774 0.77961 0.0
H436 H 0.17344 0.80674 0.64475 0.0
H437 H 0.13125 0.8138 0.6072 0.0
H438 H 0.12087 0.81667 0.65274 0.0
H439 H 0.1627 0.80934 0.69046 0.0
C440 C 0.27326 0.30712 0.78416 0.0
C441 C 0.28171 0.30791 0.75894 0.0
C442 C 0.29223 0.28792 0.7769 0.0
C443 C 0.29111 0.29844 0.75536 0.0
C444 C 0.28365 0.28716 0.80211 0.0
C445 C 0.27428 0.29668 0.80567 0.0
U446 U 0.25381 0.335 0.75424 0.0
O447 O 0.22821 0.3348 0.7621 0.0
O448 O 0.25429 0.35971 0.76943 0.0
C449 C 0.23649 0.3516 0.77144 0.0
C450 C 0.26343 0.31716 0.78808 0.0
C451 C 0.22925 0.35477 0.7972 0.0
C452 C 0.21798 0.34655 0.84413 0.0
C453 C 0.22535 0.34345 0.82027 0.0
C454 C 0.21849 0.3724 0.82221 0.0
C455 C 0.2144 0.36105 0.84541 0.0
C456 C 0.22582 0.36927 0.79842 0.0
C457 C 0.26125 0.34345 0.67511 0.0
C458 C 0.26529 0.36864 0.64626 0.0
C459 C 0.26097 0.34091 0.62521 0.0
C460 C 0.25943 0.33333 0.65132 0.0
C461 C 0.2644 0.35884 0.62231 0.0
C462 C 0.26373 0.36101 0.67244 0.0
C463 C 0.26236 0.33597 0.702 0.0
O464 O 0.27316 0.33483 0.78418 0.0
O465 O 0.24729 0.30983 0.77649 0.0
O466 O 0.24705 0.32306 0.71254 0.0
O467 O 0.27333 0.34768 0.72041 0.0
H468 H 0.28108 0.31593 0.74206 0.0
H469 H 0.29773 0.29958 0.73581 0.0
H470 H 0.28397 0.27902 0.81902 0.0
H471 H 0.26779 0.29584 0.82525 0.0
H472 H 0.21484 0.3374 0.86142 0.0
H473 H 0.22787 0.33215 0.81976 0.0
H474 H 0.21624 0.38386 0.82251 0.0
H475 H 0.22878 0.37819 0.78085 0.0
H476 H 0.26766 0.38238 0.6448 0.0
H477 H 0.26043 0.33302 0.60736 0.0
H478 H 0.25759 0.31979 0.65293 0.0
H479 H 0.26509 0.36906 0.69053 0.0
C480 C 0.75933 0.64322 0.61827 0.0
C481 C 0.75186 0.64414 0.59293 0.0
C482 C 0.72117 0.6242 0.6104 0.0
C483 C 0.73299 0.63476 0.58905 0.0
C484 C 0.72879 0.62334 0.63576 0.0
C485 C 0.74768 0.63277 0.63962 0.0
U486 U 0.80671 0.67027 0.58839 0.0
O487 O 0.83136 0.69462 0.60328 0.0
O488 O 0.83181 0.66935 0.59611 0.0
C489 C 0.84071 0.68616 0.60532 0.0
C490 C 0.77921 0.65299 0.62235 0.0
C491 C 0.85113 0.6891 0.63103 0.0
C492 C 0.85373 0.69091 0.68101 0.0
C493 C 0.84331 0.68767 0.65703 0.0
C494 C 0.87982 0.6969 0.65327 0.0
C495 C 0.87216 0.69561 0.67946 0.0
C496 C 0.86941 0.69368 0.62937 0.0
C497 C 0.8074 0.6781 0.50901 0.0
C498 C 0.82833 0.70278 0.47918 0.0
C499 C 0.80471 0.67468 0.45923 0.0
C500 C 0.79889 0.66756 0.48562 0.0
C501 C 0.81919 0.69256 0.45563 0.0
C502 C 0.82247 0.69562 0.50565 0.0
C503 C 0.79899 0.67107 0.53616 0.0
O504 O 0.78776 0.64536 0.61095 0.0
O505 O 0.78747 0.67066 0.61831 0.0
O506 O 0.80024 0.68311 0.55436 0.0
O507 O 0.80101 0.658 0.5469 0.0
H508 H 0.76065 0.65214 0.57616 0.0
H509 H 0.72766 0.63598 0.5694 0.0
H510 H 0.72018 0.61517 0.65254 0.0
H511 H 0.75319 0.63182 0.65927 0.0
H512 H 0.84739 0.68999 0.70074 0.0
H513 H 0.82921 0.68416 0.65878 0.0
H514 H 0.89382 0.70017 0.65119 0.0
H515 H 0.87569 0.6948 0.6095 0.0
H516 H 0.8397 0.7165 0.47717 0.0
H517 H 0.79717 0.66647 0.4417 0.0
H518 H 0.78718 0.65404 0.48777 0.0
H519 H 0.82933 0.704 0.52342 0.0
C520 C 0.43129 0.13175 0.61846 0.0
C521 C 0.43034 0.12335 0.59313 0.0
C522 C 0.45027 0.11262 0.61052 0.0
C523 C 0.43969 0.11386 0.58921 0.0
C524 C 0.45117 0.12111 0.63588 0.0
C525 C 0.44177 0.13057 0.63978 0.0
U526 U 0.4043 0.15209 0.58862 0.0
O527 O 0.37998 0.15236 0.6035 0.0
O528 O 0.40526 0.17813 0.59633 0.0
C529 C 0.38845 0.1702 0.60551 0.0
C530 C 0.42155 0.14186 0.62258 0.0
C531 C 0.38549 0.1777 0.63116 0.0
C532 C 0.38344 0.17841 0.68111 0.0
C533 C 0.38672 0.17122 0.6572 0.0
C534 C 0.37781 0.1987 0.65323 0.0
C535 C 0.3789 0.19224 0.67946 0.0
C536 C 0.38106 0.19149 0.62941 0.0
C537 C 0.39647 0.14499 0.50925 0.0
C538 C 0.37181 0.14125 0.47943 0.0
C539 C 0.39988 0.14576 0.45947 0.0
C540 C 0.407 0.14704 0.48585 0.0
C541 C 0.38202 0.14236 0.45587 0.0
C542 C 0.37897 0.14254 0.50589 0.0
C543 C 0.40349 0.14358 0.53639 0.0
O544 O 0.42919 0.15807 0.61119 0.0
O545 O 0.40389 0.13243 0.61854 0.0
O546 O 0.39145 0.13276 0.55458 0.0
O547 O 0.41657 0.1587 0.54714 0.0
H548 H 0.42231 0.12412 0.57638 0.0
H549 H 0.43845 0.10732 0.56955 0.0
H550 H 0.45937 0.12069 0.65263 0.0
H551 H 0.44275 0.13704 0.65944 0.0
H552 H 0.38422 0.17293 0.70088 0.0
H553 H 0.39011 0.16055 0.65904 0.0
H554 H 0.37466 0.20951 0.65108 0.0
H555 H 0.38009 0.19672 0.6095 0.0
H556 H 0.35811 0.1389 0.47742 0.0
H557 H 0.40808 0.14645 0.44193 0.0
H558 H 0.4205 0.14885 0.48799 0.0
H559 H 0.37061 0.141 0.52367 0.0
C560 C 0.94265 0.31514 0.61835 0.0
C561 C 0.95105 0.32264 0.59304 0.0
C562 C 0.9618 0.35332 0.61052 0.0
C563 C 0.96055 0.34151 0.58917 0.0
C564 C 0.9533 0.34567 0.63586 0.0
C565 C 0.94383 0.32677 0.63971 0.0
U566 U 0.92231 0.26777 0.58844 0.0
O567 O 0.92202 0.24315 0.60332 0.0
O568 O 0.89627 0.24262 0.59611 0.0
C569 C 0.90419 0.23376 0.60533 0.0
C570 C 0.93252 0.29525 0.62242 0.0
C571 C 0.89671 0.22332 0.63103 0.0
C572 C 0.89593 0.22072 0.68101 0.0
C573 C 0.90311 0.23115 0.65704 0.0
C574 C 0.87579 0.1946 0.65325 0.0
C575 C 0.88217 0.20227 0.67945 0.0
C576 C 0.88299 0.20502 0.62937 0.0
C577 C 0.92947 0.26711 0.50909 0.0
C578 C 0.93321 0.24619 0.4793 0.0
C579 C 0.92876 0.26978 0.4593 0.0
C580 C 0.92746 0.2756 0.48567 0.0
C581 C 0.93213 0.2553 0.45573 0.0
C582 C 0.9319 0.25205 0.50575 0.0
C583 C 0.93086 0.27552 0.53622 0.0
O584 O 0.91633 0.28666 0.61099 0.0
O585 O 0.94195 0.28704 0.6184 0.0
O586 O 0.94166 0.27432 0.55444 0.0
O587 O 0.91574 0.27345 0.54694 0.0
H588 H 0.95028 0.31386 0.57627 0.0
H589 H 0.9671 0.34686 0.56953 0.0
H590 H 0.95373 0.35426 0.65264 0.0
H591 H 0.93736 0.32124 0.65935 0.0
H592 H 0.90135 0.22706 0.70075 0.0
H593 H 0.91371 0.24526 0.6588 0.0
H594 H 0.86504 0.18058 0.65117 0.0
H595 H 0.87782 0.19874 0.60948 0.0
H596 H 0.93555 0.23483 0.47732 0.0
H597 H 0.92809 0.2773 0.44175 0.0
H598 H 0.92566 0.2873 0.48779 0.0
H599 H 0.93341 0.24521 0.52354 0.0
C600 C 0.99092 0.41165 0.59854 0.0
C601 C 0.99186 0.40416 0.62384 0.0
C602 C 0.97189 0.37347 0.60637 0.0
C603 C 0.98248 0.38528 0.62771 0.0
C604 C 0.971 0.38111 0.58104 0.0
C605 C 0.98043 0.4 0.5772 0.0
U606 U 1.01798 0.45901 0.62851 0.0
O607 O 1.04236 0.48366 0.61368 0.0
O608 O 1.01712 0.48414 0.62085 0.0
C609 C 1.03393 0.49304 0.6117 0.0
C610 C 1.0007 0.43153 0.59448 0.0
C611 C 1.0369 0.50348 0.58602 0.0
C612 C 1.03765 0.50581 0.53602 0.0
C613 C 1.03445 0.4954 0.55999 0.0
C614 C 0.04566 0.53243 0.56383 0.0
C615 C 1.04332 0.5245 0.5376 0.0
C616 C 1.04249 0.52203 0.58772 0.0
C617 C 1.02576 0.45962 0.70788 0.0
C618 C 0.05043 0.48057 0.73772 0.0
C619 C 1.02236 0.45691 0.75766 0.0
C620 C 1.01524 0.45109 0.73127 0.0
C621 C 1.04022 0.47141 0.76127 0.0
C622 C 1.04327 0.47472 0.71125 0.0
C623 C 1.01874 0.45122 0.68073 0.0
O624 O 0.99309 0.4401 0.60589 0.0
O625 O 1.01836 0.43978 0.59854 0.0
O626 O 1.03077 0.45247 0.66253 0.0
O627 O 1.00569 0.45327 0.66998 0.0
H628 H 0.9999 0.41294 0.64061 0.0
H629 H 0.98372 0.37995 0.64734 0.0
H630 H 0.9628 0.37251 0.56427 0.0
H631 H 0.97946 0.40553 0.55756 0.0
H632 H 1.0359 0.49925 0.51624 0.0
H633 H 1.03015 0.48109 0.55822 0.0
H634 H 0.04972 0.54665 0.56595 0.0
H635 H 0.0444 0.52851 0.60763 0.0
H636 H 0.06414 0.49195 0.73974 0.0
H637 H 1.01416 0.44936 0.77519 0.0
H638 H 1.00173 0.43936 0.72912 0.0
H639 H 0.05163 0.48159 0.69349 0.0
C640 C 0.66286 0.59499 0.59839 0.0
C641 C 0.67035 0.60343 0.62369 0.0
C642 C 0.70102 0.61413 0.60624 0.0
C643 C 0.68923 0.61292 0.62756 0.0
C644 C 0.69337 0.6056 0.58091 0.0
C645 C 0.67448 0.59613 0.57705 0.0
U646 U 0.61552 0.57469 0.62834 0.0
O647 O 0.59092 0.57444 0.6135 0.0
O648 O 0.59035 0.54867 0.62069 0.0
C649 C 0.58149 0.5566 0.61154 0.0
C650 C 0.64297 0.58488 0.59431 0.0
C651 C 0.57101 0.54911 0.58588 0.0
C652 C 0.56863 0.54751 0.53589 0.0
C653 C 0.57907 0.55473 0.55984 0.0
C654 C 0.54202 0.52893 0.56377 0.0
C655 C 0.54993 0.53451 0.53752 0.0
C656 C 0.55245 0.53616 0.58763 0.0
C657 C 0.61491 0.58184 0.70769 0.0
C658 C 0.59396 0.58553 0.73747 0.0
C659 C 0.61758 0.58112 0.75747 0.0
C660 C 0.62341 0.57984 0.7311 0.0
C661 C 0.60308 0.58446 0.76104 0.0
C662 C 0.59983 0.58424 0.71102 0.0
C663 C 0.62332 0.58323 0.68055 0.0
O664 O 0.63437 0.56868 0.60573 0.0
O665 O 0.63478 0.59432 0.59836 0.0
O666 O 0.62212 0.59404 0.66235 0.0
O667 O 0.62122 0.5681 0.66981 0.0
H668 H 0.66159 0.60269 0.64044 0.0
H669 H 0.69457 0.6195 0.64719 0.0
H670 H 0.70196 0.60599 0.56415 0.0
H671 H 0.66895 0.58963 0.55743 0.0
H672 H 0.57517 0.55231 0.51609 0.0
H673 H 0.59339 0.56474 0.55803 0.0
H674 H 0.52779 0.51876 0.56593 0.0
H675 H 0.54599 0.5316 0.60756 0.0
H676 H 0.58259 0.58784 0.73946 0.0
H677 H 0.6251 0.58047 0.77502 0.0
H678 H 0.63512 0.57807 0.72898 0.0
H679 H 0.59298 0.58573 0.69323 0.0
C680 C 0.47946 0.08358 0.59837 0.0
C681 C 0.47106 0.08262 0.6237 0.0
C682 C 0.46033 0.10256 0.60631 0.0
C683 C 0.46157 0.09197 0.62762 0.0
C684 C 0.46882 0.10346 0.58096 0.0
C685 C 0.47828 0.09406 0.57706 0.0
U686 U 0.49978 0.05656 0.6282 0.0
O687 O 0.50006 0.03223 0.61329 0.0
O688 O 0.52582 0.05752 0.6205 0.0
C689 C 0.51789 0.04071 0.61129 0.0
C690 C 0.48956 0.07383 0.59425 0.0
C691 C 0.52539 0.03777 0.58563 0.0
C692 C 0.52601 0.03559 0.53569 0.0
C693 C 0.51882 0.03887 0.5596 0.0
C694 C 0.54648 0.03022 0.56355 0.0
C695 C 0.53993 0.03118 0.53733 0.0
C696 C 0.53928 0.03347 0.58738 0.0
C697 C 0.49265 0.04869 0.70756 0.0
C698 C 0.48881 1.02399 0.73739 0.0
C699 C 0.49347 0.05213 0.75734 0.0
C700 C 0.49477 0.05924 0.73096 0.0
C701 C 0.49 0.03423 0.76095 0.0
C702 C 0.49012 0.03115 0.71092 0.0
C703 C 0.49125 0.05572 0.68042 0.0
O704 O 0.50577 0.08147 0.60566 0.0
O705 O 0.48013 0.05616 0.59827 0.0
O706 O 0.48045 0.04369 0.66221 0.0
O707 O 0.50637 0.06881 0.66969 0.0
H708 H 0.47182 0.07459 0.64045 0.0
H709 H 0.45502 0.09072 0.64727 0.0
H710 H 0.46841 0.11166 0.56421 0.0
H711 H 0.48475 0.09504 0.55741 0.0
H712 H 0.52045 0.03625 0.51593 0.0
H713 H 0.50808 0.04214 0.55777 0.0
H714 H 0.55736 1.02718 0.56569 0.0
H715 H 0.54458 0.0326 0.60727 0.0
H716 H 0.4864 1.01026 0.73939 0.0
H717 H 0.49422 0.06035 0.77488 0.0
H718 H 0.49664 0.07277 0.72882 0.0
H719 H 0.48852 1.02276 0.69315 0.0
C720 C 0.66271 0.08621 0.09946 0.0
C721 C 0.67041 0.08545 0.12465 0.0
C722 C 0.70093 0.10544 0.10661 0.0
C723 C 0.68932 0.09493 0.12818 0.0
C724 C 0.69307 0.10617 0.08142 0.0
C725 C 0.67416 0.09664 0.0779 0.0
U726 U 0.61537 0.0583 0.12949 0.0
O727 O 0.58995 0.05848 0.12171 0.0
O728 O 0.59108 0.03359 0.11435 0.0
C729 C 0.58139 0.04169 0.11238 0.0
C730 C 0.64281 0.07615 0.09559 0.0
C731 C 0.57099 0.03855 0.0866 0.0
C732 C 0.56839 0.0462 0.03914 0.0
C733 C 0.57879 0.04929 0.06309 0.0
C734 C 0.54234 1.02155 0.0619 0.0
C735 C 0.54998 0.0323 0.03823 0.0
C736 C 0.55274 1.02466 0.08577 0.0
C737 C 0.61445 0.04983 0.2086 0.0
C738 C 0.59328 1.02462 0.23745 0.0
C739 C 0.61676 0.05235 0.2585 0.0
C740 C 0.62279 0.05994 0.2324 0.0
C741 C 0.60223 0.03441 0.2614 0.0
C742 C 0.59934 0.03225 0.21128 0.0
C743 C 0.62303 0.05732 0.18171 0.0
O744 O 0.63485 0.05849 0.09948 0.0
O745 O 0.63403 0.08347 0.10723 0.0
O746 O 0.62064 0.07023 0.1712 0.0
O747 O 0.62224 0.04562 0.16327 0.0
H748 H 0.66178 0.07744 0.14156 0.0
H749 H 0.69482 0.09381 0.14772 0.0
H750 H 0.70152 0.1143 0.06447 0.0
H751 H 0.66846 0.09745 0.05834 0.0
H752 H 0.5747 0.05491 1.02148 0.0
H753 H 0.59287 0.06012 0.06331 0.0
H754 H 0.52835 1.01054 0.06191 0.0
H755 H 0.54647 1.01619 0.1037 0.0
H756 H 0.58189 1.01088 0.23892 0.0
H757 H 0.62415 0.06024 0.27635 0.0
H758 H 0.63452 0.07348 0.23079 0.0
H759 H 0.59262 1.02421 0.19318 0.0
C760 C 0.98817 0.59227 0.0993 0.0
C761 C 0.98896 0.60071 0.12452 0.0
C762 C 0.96897 0.61124 0.10657 0.0
C763 C 0.97949 0.61012 0.1281 0.0
C764 C 0.96821 0.60266 0.08136 0.0
C765 C 0.97772 0.59328 0.07779 0.0
U766 U 1.01603 0.5728 0.12921 0.0
O767 O 1.01584 0.5472 0.12135 0.0
O768 O 1.04073 0.57329 0.11404 0.0
C769 C 1.03263 0.55548 0.11203 0.0
C770 C 0.9982 0.58243 0.09538 0.0
C771 C 1.0358 0.54824 0.08627 0.0
C772 C 1.02764 0.53704 0.03929 0.0
C773 C 1.02454 0.54441 0.06315 0.0
C774 C 0.05338 0.53741 0.06131 0.0
C775 C 1.0421 0.53339 0.03806 0.0
C776 C 0.05025 0.54474 0.0851 0.0
C777 C 1.02447 0.58023 0.20835 0.0
C778 C 0.04964 0.58423 0.23719 0.0
C779 C 1.02194 0.57995 0.25825 0.0
C780 C 1.01437 0.57842 0.23215 0.0
C781 C 1.03986 0.58336 0.26114 0.0
C782 C 1.04202 0.58269 0.21102 0.0
C783 C 1.01699 0.58135 0.18146 0.0
O784 O 1.01586 0.59216 0.09928 0.0
O785 O 0.99087 0.56629 0.10695 0.0
O786 O 1.00409 0.56604 0.17091 0.0
O787 O 1.02871 0.59233 0.16306 0.0
H788 H 0.99697 0.60009 0.1414 0.0
H789 H 0.98063 0.61674 0.14766 0.0
H790 H 0.96007 0.60297 0.06444 0.0
H791 H 0.97689 0.58679 0.05821 0.0
H792 H 1.01853 0.53396 1.02196 0.0
H793 H 1.01328 0.54698 0.06362 0.0
H794 H 0.0648 0.5351 0.06105 0.0
H795 H 0.05913 0.54763 0.10271 0.0
H796 H 0.06337 0.58659 0.23866 0.0
H797 H 1.01406 0.57942 0.2761 0.0
H798 H 1.00083 0.57659 0.23054 0.0
H799 H 0.05006 0.58404 0.19292 0.0
C800 C 0.48226 0.41169 0.09937 0.0
C801 C 0.47378 0.40396 0.12455 0.0
C802 C 0.46326 0.37345 0.1065 0.0
C803 C 0.46436 0.38505 0.12807 0.0
C804 C 0.47187 0.38133 0.08133 0.0
C805 C 0.48126 0.40025 0.07782 0.0
U806 U 0.50169 0.45902 0.12944 0.0
O807 O 0.52732 0.48449 0.1217 0.0
O808 O 0.50127 0.48328 0.1143 0.0
C809 C 0.51908 0.49301 0.11236 0.0
C810 C 0.49212 0.4316 0.09552 0.0
C811 C 0.52635 0.50343 0.0866 0.0
C812 C 0.53645 0.50601 0.03906 0.0
C813 C 0.52913 0.4956 0.06301 0.0
C814 C 0.53815 0.53212 0.06198 0.0
C815 C 0.5411 0.52445 0.03823 0.0
C816 C 0.53087 0.52172 0.08585 0.0
C817 C 0.49412 0.45991 0.20853 0.0
C818 C 0.49012 0.48107 0.23733 0.0
C819 C 0.49433 0.45761 0.25843 0.0
C820 C 0.49588 0.45158 0.23234 0.0
C821 C 0.49094 0.47213 0.26129 0.0
C822 C 0.49168 0.47501 0.21117 0.0
C823 C 0.49304 0.45133 0.18164 0.0
O824 O 0.48239 0.4395 0.09939 0.0
O825 O 0.50823 0.44041 0.10719 0.0
O826 O 0.50835 0.45376 0.17116 0.0
O827 O 0.48211 0.45207 0.16319 0.0
H828 H 0.47439 0.41258 0.14145 0.0
H829 H 0.45772 0.37953 0.1476 0.0
H830 H 0.47157 0.3729 0.06439 0.0
H831 H 0.48778 0.40597 0.05827 0.0
H832 H 0.5387 0.49967 1.02133 0.0
H833 H 0.52576 0.48149 0.06316 0.0
H834 H 0.54125 0.54614 0.06205 0.0
H835 H 0.52878 0.528 0.10384 0.0
H836 H 0.48778 0.49246 0.23877 0.0
H837 H 0.49481 0.45023 0.27629 0.0
H838 H 0.49768 0.43986 0.23075 0.0
H839 H 0.49038 0.48172 0.19306 0.0
C840 C 0.43393 0.31502 0.11736 0.0
C841 C 0.43319 0.32272 0.09216 0.0
C842 C 0.45316 0.35325 0.11023 0.0
C843 C 0.44267 0.34163 0.08864 0.0
C844 C 0.45389 0.34539 0.13542 0.0
C845 C 0.44435 0.32647 0.13892 0.0
U846 U 0.40603 0.26767 0.08729 0.0
O847 O 0.40621 0.24224 0.09505 0.0
O848 O 0.38133 0.24337 0.10242 0.0
C849 C 0.38942 0.23368 0.10438 0.0
C850 C 0.42388 0.29511 0.12122 0.0
C851 C 0.38629 0.22328 0.13015 0.0
C852 C 0.39385 0.22073 0.17769 0.0
C853 C 0.39693 0.23113 0.15373 0.0
C854 C 0.36937 0.19459 0.15481 0.0
C855 C 0.38003 0.20228 0.17854 0.0
C856 C 0.37249 0.20498 0.13092 0.0
C857 C 0.39756 0.26677 1.00818 0.0
C858 C 0.37236 0.24559 0.97933 0.0
C859 C 0.40007 0.26909 0.95828 0.0
C860 C 0.40766 0.27512 0.98439 0.0
C861 C 0.38214 0.25455 0.95539 0.0
C862 C 0.37999 0.25165 1.0055 0.0
C863 C 0.40505 0.27535 0.03508 0.0
O864 O 0.40622 0.28716 0.11732 0.0
O865 O 0.43119 0.28633 0.10956 0.0
O866 O 0.41796 0.27296 0.04558 0.0
O867 O 0.39335 0.27456 0.05352 0.0
H868 H 0.42519 0.3141 0.07525 0.0
H869 H 0.44156 0.34715 0.0691 0.0
H870 H 0.46201 0.35384 0.15237 0.0
H871 H 0.44516 0.32077 0.15849 0.0
H872 H 0.40248 0.22709 0.19541 0.0
H873 H 0.40769 0.24524 0.15356 0.0
H874 H 0.35844 0.18057 0.15475 0.0
H875 H 0.36408 0.19868 0.11295 0.0
H876 H 0.35862 0.23419 0.97786 0.0
H877 H 0.40795 0.27649 0.94043 0.0
H878 H 0.4212 0.28685 0.986 0.0
H879 H 0.37195 0.24492 1.0236 0.0
C880 C 0.75935 0.13453 0.11749 0.0
C881 C 0.75163 0.12606 0.0923 0.0
C882 C 0.72112 0.11553 0.11034 0.0
C883 C 0.73272 0.11664 0.08877 0.0
C884 C 0.729 0.12413 0.13553 0.0
C885 C 0.74792 0.13352 0.13904 0.0
U886 U 0.80666 0.15395 0.08743 0.0
O887 O 0.83213 0.17959 0.09517 0.0
O888 O 0.83091 0.15352 0.10256 0.0
C889 C 0.84065 0.17133 0.1045 0.0
C890 C 0.77925 0.14438 0.12135 0.0
C891 C 0.85108 0.17861 0.13025 0.0
C892 C 0.8537 0.18874 0.17778 0.0
C893 C 0.84327 0.18141 0.15385 0.0
C894 C 0.87978 0.19039 0.15485 0.0
C895 C 0.87213 0.19337 0.1786 0.0
C896 C 0.86936 0.1831 0.13098 0.0
C897 C 0.80755 0.14638 1.00834 0.0
C898 C 0.82871 0.14237 0.97955 0.0
C899 C 0.80527 0.14659 0.95844 0.0
C900 C 0.79924 0.14814 0.98452 0.0
C901 C 0.81978 0.1432 0.95558 0.0
C902 C 0.82265 0.14394 1.00571 0.0
C903 C 0.79897 0.1453 0.03522 0.0
O904 O 0.78715 0.13465 0.11747 0.0
O905 O 0.78807 0.1605 0.10968 0.0
O906 O 0.80141 0.16062 0.04571 0.0
O907 O 0.79971 0.13436 0.05367 0.0
H908 H 0.76024 0.12667 0.07539 0.0
H909 H 0.7272 0.11 0.06923 0.0
H910 H 0.72057 0.12382 0.15247 0.0
H911 H 0.75363 0.14003 0.15859 0.0
H912 H 0.84738 0.19101 0.19552 0.0
H913 H 0.82918 0.17806 0.15371 0.0
H914 H 0.89378 0.19348 0.15476 0.0
H915 H 0.87562 0.181 0.113 0.0
H916 H 0.84009 0.14003 0.97812 0.0
H917 H 0.7979 0.14709 0.94057 0.0
H918 H 0.78752 0.14995 0.9861 0.0
H919 H 0.82935 0.14262 1.02382 0.0
C920 C 0.93992 0.64052 0.11761 0.0
C921 C 0.94836 0.64129 0.09239 0.0
C922 C 0.9589 0.62132 0.11036 0.0
C923 C 0.95777 0.63183 0.08881 0.0
C924 C 0.95033 0.62057 0.13557 0.0
C925 C 0.94095 0.63009 0.13913 0.0
U926 U 0.92047 0.66837 0.08762 0.0
O927 O 0.89485 0.66814 0.0954 0.0
O928 O 0.92091 0.69306 0.10274 0.0
C929 C 0.9031 0.68495 0.10468 0.0
C930 C 0.93007 0.65054 0.12151 0.0
C931 C 0.89583 0.68812 0.13038 0.0
C932 C 0.88578 0.68073 0.17797 0.0
C933 C 0.89311 0.67761 0.15409 0.0
C934 C 0.88394 0.70498 0.15476 0.0
C935 C 0.88105 0.69446 0.17862 0.0
C936 C 0.89123 0.70183 0.13095 0.0
C937 C 0.92799 0.67684 1.00851 0.0
C938 C 0.93203 0.70203 0.97968 0.0
C939 C 0.92772 0.67432 0.95861 0.0
C940 C 0.92618 0.66673 0.98471 0.0
C941 C 0.93115 0.69225 0.95572 0.0
C942 C 0.93047 0.6944 1.00585 0.0
C943 C 0.92909 0.66935 0.0354 0.0
O944 O 0.9398 0.66821 0.11763 0.0
O945 O 0.91395 0.64321 0.10989 0.0
O946 O 0.91377 0.65643 0.04592 0.0
O947 O 0.94003 0.68106 0.05384 0.0
H948 H 0.94772 0.6493 0.0755 0.0
H949 H 0.96437 0.63296 0.06925 0.0
H950 H 0.95066 0.61244 0.1525 0.0
H951 H 0.93447 0.62926 0.15871 0.0
H952 H 0.88358 0.67221 0.19579 0.0
H953 H 0.89654 0.66693 0.15407 0.0
H954 H 0.88078 0.71584 0.15454 0.0
H955 H 0.89327 0.71013 0.11288 0.0
H956 H 0.9344 0.71577 0.97821 0.0
H957 H 0.9272 0.66643 0.94076 0.0
H958 H 0.92435 0.65319 0.98632 0.0
H959 H 0.93182 0.70245 1.02395 0.0
C960 C 0.42601 0.97658 0.95164 0.0
C961 C 0.41854 0.97751 0.92632 0.0
C962 C 0.38785 0.95756 0.9438 0.0
C963 C 0.39967 0.96813 0.92245 0.0
C964 C 0.39548 0.95669 0.96914 0.0
C965 C 0.41437 0.96611 0.97299 0.0
U966 U 0.47338 1.0036 0.92171 0.0
O967 O 0.49804 1.02795 0.93656 0.0
O968 O 0.49847 1.00267 0.9294 0.0
C969 C 0.50738 1.01948 0.93859 0.0
C970 C 0.4459 0.98634 0.95571 0.0
C971 C 0.5178 1.02242 0.9643 0.0
C972 C 0.52037 1.02411 1.01428 0.0
C973 C 0.50996 1.02087 0.9903 0.0
C974 C 0.54652 0.03033 0.98653 0.0
C975 C 0.53883 1.02891 1.01272 0.0
C976 C 0.53612 1.02713 0.96263 0.0
C977 C 0.47401 1.01138 0.84233 0.0
C978 C 0.49497 0.03602 0.81246 0.0
C979 C 0.47125 1.00797 0.79255 0.0
C980 C 0.46544 1.00086 0.81895 0.0
C981 C 0.48579 1.02582 0.78892 0.0
C982 C 0.48912 1.02887 0.83893 0.0
C983 C 0.46562 1.00437 0.86949 0.0
O984 O 0.45444 0.9787 0.9443 0.0
O985 O 0.45416 1.004 0.95166 0.0
O986 O 0.46689 1.01642 0.88768 0.0
O987 O 0.46764 0.99131 0.88024 0.0
H988 H 0.42732 0.98552 0.90955 0.0
H989 H 0.39434 0.96936 0.90281 0.0
H990 H 0.38688 0.9485 0.98592 0.0
H991 H 0.41989 0.96515 0.99264 0.0
H992 H 0.51401 1.02308 0.03402 0.0
H993 H 0.49583 1.01727 0.99206 0.0
H994 H 0.56056 0.03369 0.98444 0.0
H995 H 0.54242 1.02834 0.94275 0.0
H996 H 0.50638 0.04972 0.81043 0.0
H997 H 0.46368 0.99977 0.77503 0.0
H998 H 0.4537 0.98737 0.82111 0.0
H999 H 0.49602 0.03724 0.8567 0.0
C1000 C 0.09796 0.46509 0.95181 0.0
C1001 C 0.097 0.4567 0.92647 0.0
C1002 C 0.11695 0.44598 0.94385 0.0
C1003 C 0.10637 0.44722 0.92254 0.0
C1004 C 0.11785 0.45447 0.96921 0.0
C1005 C 0.10844 0.46391 0.97313 0.0
U1006 U 0.07092 0.48538 0.92197 0.0
O1007 O 0.04657 0.48561 0.93684 0.0
O1008 O 0.07182 0.51139 0.92965 0.0
C1009 C 0.05501 0.50344 0.93878 0.0
C1010 C 0.0882 0.47519 0.95594 0.0
C1011 C 0.05201 0.51094 0.96439 0.0
C1012 C 0.05114 0.51255 1.01438 0.0
C1013 C 0.05438 0.50532 0.99048 0.0
C1014 C 1.04323 0.53115 0.98636 0.0
C1015 C 0.04549 0.52556 1.01265 0.0
C1016 C 0.04645 0.52391 0.96255 0.0
C1017 C 0.06311 0.47826 0.84261 0.0
C1018 C 1.03843 0.47449 0.8128 0.0
C1019 C 0.06651 0.47903 0.79283 0.0
C1020 C 0.07363 0.48032 0.81921 0.0
C1021 C 0.04864 0.47562 0.78924 0.0
C1022 C 0.0456 0.47579 0.83926 0.0
C1023 C 0.07013 0.47686 0.86975 0.0
O1024 O 0.09582 0.4914 0.94455 0.0
O1025 O 0.07054 0.46574 0.95191 0.0
O1026 O 0.0581 0.46604 0.88794 0.0
O1027 O 0.0832 0.49199 0.8805 0.0
H1028 H 0.08897 0.45746 0.90973 0.0
H1029 H 0.10512 0.44068 0.90288 0.0
H1030 H 0.12605 0.45405 0.98596 0.0
H1031 H 0.10942 0.47038 0.99278 0.0
H1032 H 0.05282 0.50775 0.03421 0.0
H1033 H 0.05864 0.4953 0.99236 0.0
H1034 H 1.0392 0.54132 0.98413 0.0
H1035 H 0.0446 0.52847 0.9426 0.0
H1036 H 1.02473 0.47213 0.8108 0.0
H1037 H 0.07471 0.47973 0.77529 0.0
H1038 H 0.08714 0.48214 0.82134 0.0
H1039 H 1.03723 0.47424 0.85704 0.0
C1040 C 0.60934 0.64846 0.95165 0.0
C1041 C 0.61776 0.65596 0.92635 0.0
C1042 C 0.62849 0.68663 0.94383 0.0
C1043 C 0.62726 0.67484 0.92249 0.0
C1044 C 0.61997 0.67898 0.96916 0.0
C1045 C 0.6105 0.66008 0.973 0.0
U1046 U 0.58901 0.60109 0.92171 0.0
O1047 O 0.58871 0.57647 0.93659 0.0
O1048 O 0.56296 0.57594 0.92937 0.0
C1049 C 0.57088 0.56708 0.9386 0.0
C1050 C 0.59921 0.62857 0.95571 0.0
C1051 C 0.5634 0.55665 0.9643 0.0
C1052 C 0.56265 0.55404 1.01428 0.0
C1053 C 0.56983 0.56447 0.9903 0.0
C1054 C 0.54245 0.52795 0.98654 0.0
C1055 C 0.54886 0.53561 1.01273 0.0
C1056 C 0.54965 0.53836 0.96265 0.0
C1057 C 0.59618 0.60044 0.84236 0.0
C1058 C 0.59995 0.57954 0.81256 0.0
C1059 C 0.59547 0.60312 0.79258 0.0
C1060 C 0.59416 0.60894 0.81895 0.0
C1061 C 0.59886 0.58866 0.789 0.0
C1062 C 0.59863 0.58539 0.83902 0.0
C1063 C 0.59757 0.60885 0.8695 0.0
O1064 O 0.58302 0.61998 0.94427 0.0
O1065 O 0.60864 0.62036 0.95168 0.0
O1066 O 0.60836 0.60764 0.88772 0.0
O1067 O 0.58244 0.60678 0.88021 0.0
H1068 H 0.61701 0.64719 0.90958 0.0
H1069 H 0.63383 0.68019 0.90286 0.0
H1070 H 0.62038 0.68757 0.98593 0.0
H1071 H 0.60401 0.65454 0.99263 0.0
H1072 H 0.56809 0.56038 0.03401 0.0
H1073 H 0.58046 0.57857 0.99206 0.0
H1074 H 0.53168 0.51394 0.98446 0.0
H1075 H 0.54446 0.53208 0.94277 0.0
H1076 H 0.60229 0.56819 0.81057 0.0
H1077 H 0.5948 0.61064 0.77503 0.0
H1078 H 0.59236 0.62063 0.82108 0.0
H1079 H 0.60015 0.57855 0.8568 0.0
C1080 C 0.65758 0.74496 0.93187 0.0
C1081 C 0.65851 0.73748 0.95718 0.0
C1082 C 0.63857 0.70679 0.93969 0.0
C1083 C 0.64914 0.7186 0.96104 0.0
C1084 C 0.63769 0.71442 0.91436 0.0
C1085 C 0.64712 0.73332 0.91051 0.0
U1086 U 0.68461 0.79234 0.96182 0.0
O1087 O 0.70896 0.81701 0.94697 0.0
O1088 O 0.68369 0.81745 0.95412 0.0
C1089 C 0.70049 0.82635 0.94492 0.0
C1090 C 0.66735 0.76485 0.92781 0.0
C1091 C 0.70343 0.83676 0.9192 0.0
C1092 C 0.70528 0.83935 0.86923 0.0
C1093 C 0.70205 0.82894 0.89321 0.0
C1094 C 0.71117 0.86543 0.89693 0.0
C1095 C 0.70992 0.85777 0.87075 0.0
C1096 C 0.70797 0.85504 0.92084 0.0
C1097 C 0.69241 0.793 0.04119 0.0
C1098 C 0.71708 0.81395 0.07104 0.0
C1099 C 0.689 0.79029 0.09097 0.0
C1100 C 0.68189 0.78447 0.06458 0.0
C1101 C 0.70687 0.8048 0.09459 0.0
C1102 C 0.70992 0.8081 0.04457 0.0
C1103 C 0.6854 0.78459 1.01404 0.0
O1104 O 0.65972 0.7734 0.93922 0.0
O1105 O 0.68501 0.77311 0.93187 0.0
O1106 O 0.69743 0.78585 0.99585 0.0
O1107 O 0.67233 0.78662 1.00329 0.0
H1108 H 0.66653 0.74626 0.97396 0.0
H1109 H 0.65037 0.71326 0.98068 0.0
H1110 H 0.6295 0.70582 0.89758 0.0
H1111 H 0.64616 0.73885 0.89088 0.0
H1112 H 0.70439 0.83302 0.8495 0.0
H1113 H 0.69858 0.81485 0.89147 0.0
H1114 H 0.7144 0.87943 0.89899 0.0
H1115 H 0.70905 0.86131 0.9407 0.0
H1116 H 0.73079 0.82533 0.07306 0.0
H1117 H 0.6808 0.78274 0.1085 0.0
H1118 H 0.66838 0.77274 0.06243 0.0
H1119 H 0.71829 0.81497 0.0268 0.0
C1120 C 0.32954 0.92834 0.93179 0.0
C1121 C 0.33704 0.93676 0.9571 0.0
C1122 C 0.3677 0.94749 0.93964 0.0
C1123 C 0.35591 0.94626 0.96098 0.0
C1124 C 0.36005 0.93896 0.91431 0.0
C1125 C 0.34117 0.9295 0.91045 0.0
U1126 U 0.28218 0.90801 0.96171 0.0
O1127 O 0.25758 0.90772 0.94682 0.0
O1128 O 0.25703 0.88196 0.95402 0.0
C1129 C 0.24818 0.88989 0.94481 0.0
C1130 C 0.30966 0.91822 0.92772 0.0
C1131 C 0.23774 0.8824 0.91911 0.0
C1132 C 0.2351 0.88164 0.86914 0.0
C1133 C 0.24554 0.88883 0.8931 0.0
C1134 C 0.20903 0.86145 0.89691 0.0
C1135 C 0.21667 0.86786 0.87071 0.0
C1136 C 0.21945 0.86866 0.92079 0.0
C1137 C 0.28152 0.91516 0.04106 0.0
C1138 C 0.2606 0.91889 0.07084 0.0
C1139 C 0.28419 0.91443 0.09084 0.0
C1140 C 0.29001 0.91314 0.06447 0.0
C1141 C 0.26971 0.91781 0.09441 0.0
C1142 C 0.26646 0.91759 0.04439 0.0
C1143 C 0.28994 0.91655 1.01392 0.0
O1144 O 0.30106 0.90202 0.93915 0.0
O1145 O 0.30145 0.92765 0.93175 0.0
O1146 O 0.28873 0.92736 0.99571 0.0
O1147 O 0.28786 0.90143 1.00319 0.0
H1148 H 0.32827 0.93601 0.97386 0.0
H1149 H 0.36125 0.95283 0.98061 0.0
H1150 H 0.36864 0.93937 0.89754 0.0
H1151 H 0.33563 0.923 0.89082 0.0
H1152 H 0.24142 0.88708 0.8494 0.0
H1153 H 0.25964 0.89945 0.89133 0.0
H1154 H 0.19502 0.85069 0.899 0.0
H1155 H 0.21319 0.86347 0.94067 0.0
H1156 H 0.24925 0.92122 0.07282 0.0
H1157 H 0.2917 0.91376 0.1084 0.0
H1158 H 0.30171 0.91135 0.06235 0.0
H1159 H 0.25963 0.9191 0.0266 0.0
C1160 C 0.14612 0.41692 0.93166 0.0
C1161 C 0.13773 0.41597 0.957 0.0
C1162 C 0.12701 0.43592 0.93962 0.0
C1163 C 0.12825 0.42533 0.96093 0.0
C1164 C 0.13549 0.43681 0.91426 0.0
C1165 C 0.14494 0.4274 0.91035 0.0
U1166 U 0.16641 0.38988 0.9615 0.0
O1167 O 0.16663 0.36552 0.94663 0.0
O1168 O 0.19241 0.39078 0.95383 0.0
C1169 C 0.18446 0.37396 0.94469 0.0
C1170 C 0.15621 0.40716 0.92753 0.0
C1171 C 0.19196 0.37096 0.91908 0.0
C1172 C 0.19362 0.37017 0.86909 0.0
C1173 C 0.1864 0.37341 0.89299 0.0
C1174 C 0.2121 0.36211 0.89711 0.0
C1175 C 0.20658 0.36444 0.87082 0.0
C1176 C 0.20486 0.36532 0.92092 0.0
C1177 C 0.15929 0.38208 0.04087 0.0
C1178 C 0.15554 0.3574 0.07068 0.0
C1179 C 0.16006 0.38549 0.09065 0.0
C1180 C 0.16135 0.39261 0.06426 0.0
C1181 C 0.15666 0.36762 0.09425 0.0
C1182 C 0.15683 0.36457 0.04422 0.0
C1183 C 0.1579 0.3891 1.01373 0.0
O1184 O 0.17242 0.41478 0.93892 0.0
O1185 O 0.14676 0.38949 0.93156 0.0
O1186 O 0.14707 0.37706 0.99553 0.0
O1187 O 0.17302 0.40217 1.00297 0.0
H1188 H 0.1385 0.40794 0.97374 0.0
H1189 H 0.12171 0.42408 0.98059 0.0
H1190 H 0.13507 0.44501 0.89751 0.0
H1191 H 0.1514 0.42838 0.89069 0.0
H1192 H 0.18887 0.37191 0.84926 0.0
H1193 H 0.17643 0.37773 0.89112 0.0
H1194 H 0.22222 0.35801 0.89934 0.0
H1195 H 0.20937 0.36341 0.94087 0.0
H1196 H 0.15319 0.3437 0.07269 0.0
H1197 H 0.16076 0.39369 0.10819 0.0
H1198 H 0.16316 0.40611 0.06213 0.0
H1199 H 0.15529 0.3562 0.02645 0.0
C1200 C 0.32933 0.41949 0.43272 0.0
C1201 C 0.33703 0.41874 0.45791 0.0
C1202 C 0.36755 0.43873 0.43987 0.0
C1203 C 0.35594 0.42822 0.46144 0.0
C1204 C 0.35969 0.43945 0.41467 0.0
C1205 C 0.34077 0.42992 0.41116 0.0
U1206 U 0.28199 0.3916 0.46277 0.0
O1207 O 0.25658 0.39179 0.45499 0.0
O1208 O 0.25769 0.3669 0.44764 0.0
C1209 C 0.24801 0.375 0.44567 0.0
C1210 C 0.30942 0.40944 0.42886 0.0
C1211 C 0.23761 0.37186 0.4199 0.0
C1212 C 0.23504 0.37944 0.37238 0.0
C1213 C 0.24544 0.38253 0.39633 0.0
C1214 C 0.20893 0.35492 0.39524 0.0
C1215 C 0.2166 0.3656 0.37152 0.0
C1216 C 0.21932 0.35804 0.41912 0.0
C1217 C 0.28107 0.38314 0.54189 0.0
C1218 C 0.25989 0.35795 0.57075 0.0
C1219 C 0.28339 0.38567 0.59179 0.0
C1220 C 0.28942 0.39325 0.56568 0.0
C1221 C 0.26885 0.36774 0.59469 0.0
C1222 C 0.26595 0.36557 0.54457 0.0
C1223 C 0.28965 0.39063 0.51499 0.0
O1224 O 0.30147 0.39178 0.43276 0.0
O1225 O 0.30065 0.41677 0.4405 0.0
O1226 O 0.28727 0.40354 0.50448 0.0
O1227 O 0.28886 0.37892 0.49656 0.0
H1228 H 0.32841 0.41073 0.47482 0.0
H1229 H 0.36144 0.42711 0.48098 0.0
H1230 H 0.36814 0.44758 0.39773 0.0
H1231 H 0.33508 0.43073 0.3916 0.0
H1232 H 0.24138 0.38808 0.35467 0.0
H1233 H 0.25954 0.3933 0.39651 0.0
H1234 H 0.19492 0.34397 0.39529 0.0
H1235 H 0.21303 0.34962 0.43708 0.0
H1236 H 0.24849 0.34421 0.57222 0.0
H1237 H 0.29078 0.39356 0.60963 0.0
H1238 H 0.30115 0.4068 0.56406 0.0
H1239 H 0.25923 0.35753 0.52648 0.0
C1240 C 0.6548 0.92553 0.4326 0.0
C1241 C 0.65558 0.93397 0.45782 0.0
C1242 C 0.6356 0.9445 0.43986 0.0
C1243 C 0.64611 0.94338 0.4614 0.0
C1244 C 0.63484 0.93592 0.41464 0.0
C1245 C 0.64436 0.92655 0.41108 0.0
U1246 U 0.68265 0.90608 0.46259 0.0
O1247 O 0.68243 0.88045 0.4548 0.0
O1248 O 0.70733 0.90653 0.44747 0.0
C1249 C 0.69923 0.88872 0.44553 0.0
C1250 C 0.66482 0.91568 0.42869 0.0
C1251 C 0.70241 0.88144 0.41982 0.0
C1252 C 0.69502 0.87138 0.37224 0.0
C1253 C 0.69189 0.87871 0.39612 0.0
C1254 C 0.71928 0.86957 0.39544 0.0
C1255 C 0.70875 0.86667 0.37159 0.0
C1256 C 0.71613 0.87687 0.41925 0.0
C1257 C 0.69111 0.91359 0.54169 0.0
C1258 C 0.71629 0.91761 0.57052 0.0
C1259 C 0.6886 0.91333 0.59159 0.0
C1260 C 0.68102 0.91179 0.5655 0.0
C1261 C 0.70652 0.91675 0.59448 0.0
C1262 C 0.70866 0.91605 0.54435 0.0
C1263 C 0.68362 0.91469 0.51481 0.0
O1264 O 0.68248 0.92541 0.43258 0.0
O1265 O 0.65749 0.89955 0.44031 0.0
O1266 O 0.67071 0.89937 0.50428 0.0
O1267 O 0.69533 0.92564 0.49638 0.0
H1268 H 0.66359 0.93335 0.4747 0.0
H1269 H 0.64725 0.95 0.48095 0.0
H1270 H 0.62671 0.93625 0.39772 0.0
H1271 H 0.64352 0.92005 0.3915 0.0
H1272 H 0.68649 0.86916 0.35442 0.0
H1273 H 0.6812 0.88212 0.39614 0.0
H1274 H 0.73015 0.86643 0.39566 0.0
H1275 H 0.72443 0.87892 0.43732 0.0
H1276 H 0.73002 0.91997 0.57198 0.0
H1277 H 0.68073 0.91282 0.60945 0.0
H1278 H 0.66748 0.90997 0.5639 0.0
H1279 H 0.71669 0.91739 0.52625 0.0
C1280 C 0.14891 0.74502 0.43269 0.0
C1281 C 0.14045 0.7373 0.45788 0.0
C1282 C 0.1299 0.70678 0.43982 0.0
C1283 C 0.13103 0.71839 0.46141 0.0
C1284 C 0.13848 0.71466 0.41463 0.0
C1285 C 0.14788 0.73359 0.41113 0.0
U1286 U 0.16834 0.79235 0.46277 0.0
O1287 O 0.19398 0.81782 0.45503 0.0
O1288 O 0.16793 0.81661 0.44763 0.0
C1289 C 0.18574 0.82635 0.44569 0.0
C1290 C 0.15877 0.76493 0.42884 0.0
C1291 C 0.19301 0.83676 0.41994 0.0
C1292 C 0.20318 0.83938 0.37243 0.0
C1293 C 0.19585 0.82896 0.39637 0.0
C1294 C 0.20475 0.86545 0.39529 0.0
C1295 C 0.20777 0.8578 0.37158 0.0
C1296 C 0.19747 0.85504 0.41917 0.0
C1297 C 0.16077 0.79324 0.54185 0.0
C1298 C 0.15676 0.8144 0.57065 0.0
C1299 C 0.16097 0.79095 0.59176 0.0
C1300 C 0.16252 0.78491 0.56567 0.0
C1301 C 0.15759 0.80546 0.59461 0.0
C1302 C 0.15833 0.80834 0.54449 0.0
C1303 C 0.15969 0.78466 0.51497 0.0
O1304 O 0.14904 0.77284 0.43272 0.0
O1305 O 0.17488 0.77374 0.44051 0.0
O1306 O 0.175 0.78709 0.50449 0.0
O1307 O 0.14876 0.7854 0.49651 0.0
H1308 H 0.14108 0.74591 0.4748 0.0
H1309 H 0.1244 0.71287 0.48094 0.0
H1310 H 0.13816 0.70623 0.39768 0.0
H1311 H 0.15438 0.7393 0.39157 0.0
H1312 H 0.20548 0.83305 0.35473 0.0
H1313 H 0.19253 0.81487 0.39655 0.0
H1314 H 0.20781 0.87945 0.39535 0.0
H1315 H 0.19533 0.8613 0.43713 0.0
H1316 H 0.15443 0.82579 0.57209 0.0
H1317 H 0.16145 0.78357 0.60962 0.0
H1318 H 0.16433 0.77319 0.56408 0.0
H1319 H 0.15703 0.81505 0.52638 0.0
C1320 C 0.10056 0.64835 0.4507 0.0
C1321 C 0.09979 0.65606 0.42551 0.0
C1322 C 0.1198 0.68659 0.44355 0.0
C1323 C 0.10928 0.67497 0.42198 0.0
C1324 C 0.12054 0.67873 0.46873 0.0
C1325 C 0.11101 0.6598 0.47224 0.0
U1326 U 0.07262 0.60098 0.4207 0.0
O1327 O 0.07277 0.57555 0.42853 0.0
O1328 O 0.04791 0.57671 0.43589 0.0
C1329 C 0.056 0.56702 0.43791 0.0
C1330 C 0.09049 0.62845 0.45457 0.0
C1331 C 0.05287 0.55665 0.46373 0.0
C1332 C 0.06113 0.55378 0.51072 0.0
C1333 C 0.06419 0.56419 0.48678 0.0
C1334 C 1.03532 0.52828 0.48893 0.0
C1335 C 0.04667 0.53564 0.5121 0.0
C1336 C 1.03841 0.53867 0.46505 0.0
C1337 C 0.06416 0.60002 0.34157 0.0
C1338 C 1.03897 0.57885 0.31271 0.0
C1339 C 0.06669 0.60233 0.29167 0.0
C1340 C 0.07427 0.60836 0.31778 0.0
C1341 C 0.04876 0.5878 0.28877 0.0
C1342 C 0.04659 0.58491 0.33889 0.0
C1343 C 0.07165 0.60861 0.36847 0.0
O1344 O 0.07283 0.6205 0.45067 0.0
O1345 O 0.0978 0.61965 0.44295 0.0
O1346 O 0.08455 0.60621 0.379 0.0
O1347 O 0.05995 0.60784 0.38689 0.0
H1348 H 0.09177 0.64743 0.40861 0.0
H1349 H 0.10815 0.68048 0.40245 0.0
H1350 H 0.12869 0.68718 0.48567 0.0
H1351 H 0.11183 0.65411 0.4918 0.0
H1352 H 0.07029 0.55988 0.52798 0.0
H1353 H 0.07546 0.57805 0.48619 0.0
H1354 H 1.02389 0.51451 0.48931 0.0
H1355 H 1.02949 0.53261 0.4475 0.0
H1356 H 1.02522 0.56746 0.31124 0.0
H1357 H 0.07458 0.60972 0.27383 0.0
H1358 H 0.08782 0.62009 0.3194 0.0
H1359 H 1.03855 0.57819 0.35698 0.0
C1360 C 0.42597 0.46783 0.45075 0.0
C1361 C 0.41825 0.45936 0.42556 0.0
C1362 C 0.38774 0.44882 0.4436 0.0
C1363 C 0.39934 0.44993 0.42203 0.0
C1364 C 0.39562 0.45743 0.46878 0.0
C1365 C 0.41454 0.46682 0.4723 0.0
U1366 U 0.47331 0.48726 0.42076 0.0
O1367 O 0.49878 0.51287 0.42857 0.0
O1368 O 0.49753 0.4868 0.43595 0.0
C1369 C 0.50727 0.50461 0.43795 0.0
C1370 C 0.44587 0.47767 0.45463 0.0
C1371 C 0.51766 0.51185 0.46374 0.0
C1372 C 0.52064 0.52304 0.5107 0.0
C1373 C 0.51019 0.51568 0.48679 0.0
C1374 C 0.54605 0.52267 0.48888 0.0
C1375 C 0.53875 0.52669 0.51205 0.0
C1376 C 0.53562 0.51535 0.46503 0.0
C1377 C 0.47425 0.47975 0.34166 0.0
C1378 C 0.49541 0.47574 0.31287 0.0
C1379 C 0.47198 0.47998 0.29175 0.0
C1380 C 0.46594 0.48152 0.31784 0.0
C1381 C 0.48649 0.47658 0.2889 0.0
C1382 C 0.48934 0.4773 0.33902 0.0
C1383 C 0.46566 0.47865 0.36853 0.0
O1384 O 0.45376 0.46793 0.45074 0.0
O1385 O 0.4547 0.4938 0.44299 0.0
O1386 O 0.4681 0.49397 0.37904 0.0
O1387 O 0.46638 0.4677 0.38697 0.0
H1388 H 0.42686 0.45997 0.40866 0.0
H1389 H 0.39382 0.4433 0.40249 0.0
H1390 H 0.38718 0.45711 0.48572 0.0
H1391 H 0.42024 0.47333 0.49186 0.0
H1392 H 0.51459 0.52614 0.52797 0.0
H1393 H 0.49636 0.51311 0.48623 0.0
H1394 H 0.55979 0.52497 0.48923 0.0
H1395 H 0.54163 0.51244 0.44748 0.0
H1396 H 0.50679 0.4734 0.31143 0.0
H1397 H 0.46461 0.48047 0.27388 0.0
H1398 H 0.45422 0.48333 0.31942 0.0
H1399 H 0.49604 0.47598 0.35714 0.0
C1400 C 0.60655 0.97378 0.4509 0.0
C1401 C 0.61499 0.97456 0.42569 0.0
C1402 C 0.62552 0.95458 0.44365 0.0
C1403 C 0.6244 0.96509 0.4221 0.0
C1404 C 0.61695 0.95383 0.46886 0.0
C1405 C 0.60757 0.96334 0.47242 0.0
U1406 U 0.58711 1.00163 0.42091 0.0
O1407 O 0.56148 1.00141 0.42869 0.0
O1408 O 0.58754 1.02632 0.43603 0.0
C1409 C 0.56974 1.01821 0.43796 0.0
C1410 C 0.5967 0.98381 0.45481 0.0
C1411 C 0.56246 1.02139 0.46366 0.0
C1412 C 0.55254 1.01409 0.51131 0.0
C1413 C 0.55986 1.01096 0.48742 0.0
C1414 C 0.55047 0.03818 0.48797 0.0
C1415 C 0.5477 1.02774 0.5119 0.0
C1416 C 0.55776 0.03502 0.46416 0.0
C1417 C 0.59462 1.0101 0.34181 0.0
C1418 C 0.59865 0.03529 0.31297 0.0
C1419 C 0.59437 1.00758 0.29191 0.0
C1420 C 0.59283 1.0 0.318 0.0
C1421 C 0.59779 1.0255 0.28902 0.0
C1422 C 0.59709 1.02766 0.33914 0.0
C1423 C 0.59572 1.00261 0.3687 0.0
O1424 O 0.60643 1.00147 0.45092 0.0
O1425 O 0.58058 0.97647 0.44318 0.0
O1426 O 0.58041 0.98969 0.37921 0.0
O1427 O 0.60667 1.01432 0.38713 0.0
H1428 H 0.61436 0.98257 0.4088 0.0
H1429 H 0.63101 0.96623 0.40255 0.0
H1430 H 0.61728 0.94569 0.48578 0.0
H1431 H 0.60108 0.96251 0.492 0.0
H1432 H 0.55042 1.00563 0.52918 0.0
H1433 H 0.56337 1.00034 0.48745 0.0
H1434 H 0.54722 0.04898 0.48771 0.0
H1435 H 0.55971 0.04326 0.44604 0.0
H1436 H 0.60101 0.04903 0.31151 0.0
H1437 H 0.59385 0.9997 0.27405 0.0
H1438 H 0.591 0.98646 0.31961 0.0
H1439 H 0.59844 0.0357 0.35724 0.0
loop_
_geom_bond_atom_site_label_1
_geom_bond_atom_site_label_2
_geom_bond_distance
_geom_bond_site_symmetry_2
_ccdc_geom_bond_type
C0 C1 1.264 . S
C0 C5 1.479 . S
C0 C10 1.465 . S
C1 C0 1.264 . S
C1 C3 1.339 . S
C1 H28 0.931 . S
C2 C3 1.395 . S
C2 C4 1.320 . S
C3 C1 1.339 . S
C3 C2 1.395 . S
C3 H29 0.929 . S
C4 C2 1.320 . S
C4 C5 1.405 . S
C4 H30 0.930 . S
C5 C0 1.479 . S
C5 C4 1.405 . S
C5 H31 0.931 . S
U6 O7 2.454 . S
U6 O8 2.458 . S
U6 C9 2.984 . S
U6 C10 2.847 . S
U6 C23 2.882 . S
U6 O24 2.441 . S
U6 O25 2.420 . S
U6 O26 2.455 . S
U6 O27 2.449 . S
O7 U6 2.454 . S
O7 C9 1.353 . S
O8 U6 2.458 . S
O8 C9 1.286 . S
C9 U6 2.984 . S
C9 O7 1.353 . S
C9 O8 1.286 . S
C9 C11 1.363 . S
C10 C0 1.465 . S
C10 U6 2.847 . S
C10 O24 1.249 . S
C10 O25 1.202 . S
C11 C9 1.363 . S
C11 C13 1.408 . S
C11 C16 1.342 . S
C12 C13 1.310 . S
C12 C15 1.461 . S
C12 H32 0.932 . S
C13 C11 1.408 . S
C13 C12 1.310 . S
C13 H33 0.930 . S
C14 C15 1.474 . S
C14 C16 1.285 . S
C14 H34 0.929 . S
C15 C12 1.461 . S
C15 C14 1.474 . S
C16 C11 1.342 . S
C16 C14 1.285 . S
C16 H35 0.930 . S
C17 C20 1.424 . S
C17 C22 1.245 . S
C17 C23 1.428 . S
C18 C21 1.260 . S
C18 C22 1.477 . S
C18 H36 0.932 . S
C19 C20 1.384 . S
C19 C21 1.479 . S
C19 H37 0.929 . S
C20 C17 1.424 . S
C20 C19 1.384 . S
C20 H38 0.928 . S
C21 C18 1.260 . S
C21 C19 1.479 . S
C22 C17 1.245 . S
C22 C18 1.477 . S
C22 H39 0.932 . S
C23 U6 2.882 . S
C23 C17 1.428 . S
C23 O26 1.301 . S
C23 O27 1.282 . S
O24 U6 2.441 . S
O24 C10 1.249 . S
O25 U6 2.420 . S
O25 C10 1.202 . S
O26 U6 2.455 . S
O26 C23 1.301 . S
O27 U6 2.449 . S
O27 C23 1.282 . S
H28 C1 0.931 . S
H29 C3 0.929 . S
H30 C4 0.930 . S
H31 C5 0.931 . S
H32 C12 0.932 . S
H33 C13 0.930 . S
H34 C14 0.929 . S
H35 C16 0.930 . S
H36 C18 0.932 . S
H37 C19 0.929 . S
H38 C20 0.928 . S
H39 C22 0.932 . S
C40 C41 1.264 . S
C40 C45 1.479 . S
C40 C50 1.465 . S
C41 C40 1.264 . S
C41 C43 1.339 . S
C41 H68 0.931 . S
C42 C43 1.395 . S
C42 C44 1.320 . S
C43 C41 1.339 . S
C43 C42 1.395 . S
C43 H69 0.929 . S
C44 C42 1.320 . S
C44 C45 1.405 . S
C44 H70 0.930 . S
C45 C40 1.479 . S
C45 C44 1.405 . S
C45 H71 0.931 . S
U46 O47 2.454 . S
U46 O48 2.458 . S
U46 C49 2.984 . S
U46 C50 2.847 . S
U46 C63 2.882 . S
U46 O64 2.441 . S
U46 O65 2.420 . S
U46 O66 2.455 . S
U46 O67 2.449 . S
O47 U46 2.454 . S
O47 C49 1.353 . S
O48 U46 2.458 . S
O48 C49 1.286 . S
C49 U46 2.984 . S
C49 O47 1.353 . S
C49 O48 1.286 . S
C49 C51 1.363 . S
C50 C40 1.465 . S
C50 U46 2.847 . S
C50 O64 1.249 . S
C50 O65 1.202 . S
C51 C49 1.363 . S
C51 C53 1.408 . S
C51 C56 1.342 . S
C52 C53 1.310 . S
C52 C55 1.461 . S
C52 H72 0.932 . S
C53 C51 1.408 . S
C53 C52 1.310 . S
C53 H73 0.930 . S
C54 C55 1.474 . S
C54 C56 1.285 . S
C54 H74 0.929 . S
C55 C52 1.461 . S
C55 C54 1.474 . S
C56 C51 1.342 . S
C56 C54 1.285 . S
C56 H75 0.930 . S
C57 C60 1.424 . S
C57 C62 1.245 . S
C57 C63 1.428 . S
C58 C61 1.260 . S
C58 C62 1.477 . S
C58 H76 0.932 . S
C59 C60 1.384 . S
C59 C61 1.479 . S
C59 H77 0.929 . S
C60 C57 1.424 . S
C60 C59 1.384 . S
C60 H78 0.928 . S
C61 C58 1.260 . S
C61 C59 1.479 . S
C62 C57 1.245 . S
C62 C58 1.477 . S
C62 H79 0.932 . S
C63 U46 2.882 . S
C63 C57 1.428 . S
C63 O66 1.301 . S
C63 O67 1.282 . S
O64 U46 2.441 . S
O64 C50 1.249 . S
O65 U46 2.420 . S
O65 C50 1.202 . S
O66 U46 2.455 . S
O66 C63 1.301 . S
O67 U46 2.449 . S
O67 C63 1.282 . S
H68 C41 0.931 . S
H69 C43 0.929 . S
H70 C44 0.930 . S
H71 C45 0.931 . S
H72 C52 0.932 . S
H73 C53 0.930 . S
H74 C54 0.929 . S
H75 C56 0.930 . S
H76 C58 0.932 . S
H77 C59 0.929 . S
H78 C60 0.928 . S
H79 C62 0.932 . S
C80 C81 1.264 . S
C80 C85 1.479 . S
C80 C90 1.465 . S
C81 C80 1.264 . S
C81 C83 1.339 . S
C81 H108 0.931 . S
C82 C83 1.395 . S
C82 C84 1.320 . S
C83 C81 1.339 . S
C83 C82 1.395 . S
C83 H109 0.929 . S
C84 C82 1.320 . S
C84 C85 1.405 . S
C84 H110 0.930 . S
C85 C80 1.479 . S
C85 C84 1.405 . S
C85 H111 0.931 . S
U86 O87 2.454 . S
U86 O88 2.458 . S
U86 C89 2.984 . S
U86 C90 2.847 . S
U86 C103 2.882 . S
U86 O104 2.441 . S
U86 O105 2.420 . S
U86 O106 2.455 . S
U86 O107 2.449 . S
O87 U86 2.454 . S
O87 C89 1.353 . S
O88 U86 2.458 . S
O88 C89 1.286 . S
C89 U86 2.984 . S
C89 O87 1.353 . S
C89 O88 1.286 . S
C89 C91 1.363 . S
C90 C80 1.465 . S
C90 U86 2.847 . S
C90 O104 1.249 . S
C90 O105 1.202 . S
C91 C89 1.363 . S
C91 C93 1.408 . S
C91 C96 1.342 . S
C92 C93 1.310 . S
C92 C95 1.461 . S
C92 H112 0.932 . S
C93 C91 1.408 . S
C93 C92 1.310 . S
C93 H113 0.930 . S
C94 C95 1.474 . S
C94 C96 1.285 . S
C94 H114 0.929 . S
C95 C92 1.461 . S
C95 C94 1.474 . S
C96 C91 1.342 . S
C96 C94 1.285 . S
C96 H115 0.930 . S
C97 C100 1.424 . S
C97 C102 1.245 . S
C97 C103 1.428 . S
C98 C101 1.260 . S
C98 C102 1.477 . S
C98 H116 0.932 . S
C99 C100 1.384 . S
C99 C101 1.479 . S
C99 H117 0.929 . S
C100 C97 1.424 . S
C100 C99 1.384 . S
C100 H118 0.928 . S
C101 C98 1.260 . S
C101 C99 1.479 . S
C102 C97 1.245 . S
C102 C98 1.477 . S
C102 H119 0.932 . S
C103 U86 2.882 . S
C103 C97 1.428 . S
C103 O106 1.301 . S
C103 O107 1.282 . S
O104 U86 2.441 . S
O104 C90 1.249 . S
O105 U86 2.420 . S
O105 C90 1.202 . S
O106 U86 2.455 . S
O106 C103 1.301 . S
O107 U86 2.449 . S
O107 C103 1.282 . S
H108 C81 0.931 . S
H109 C83 0.929 . S
H110 C84 0.930 . S
H111 C85 0.931 . S
H112 C92 0.932 . S
H113 C93 0.930 . S
H114 C94 0.929 . S
H115 C96 0.930 . S
H116 C98 0.932 . S
H117 C99 0.929 . S
H118 C100 0.928 . S
H119 C102 0.932 . S
C120 C121 1.264 . S
C120 C125 1.479 . S
C120 C130 1.465 . S
C121 C120 1.264 . S
C121 C123 1.339 . S
C121 H148 0.931 . S
C122 C123 1.395 . S
C122 C124 1.320 . S
C123 C121 1.339 . S
C123 C122 1.395 . S
C123 H149 0.929 . S
C124 C122 1.320 . S
C124 C125 1.405 . S
C124 H150 0.930 . S
C125 C120 1.479 . S
C125 C124 1.405 . S
C125 H151 0.931 . S
U126 O127 2.454 . S
U126 O128 2.458 . S
U126 C129 2.984 . S
U126 C130 2.847 . S
U126 C143 2.882 . S
U126 O144 2.441 . S
U126 O145 2.420 . S
U126 O146 2.455 . S
U126 O147 2.449 . S
O127 U126 2.454 . S
O127 C129 1.353 . S
O128 U126 2.458 . S
O128 C129 1.286 . S
C129 U126 2.984 . S
C129 O127 1.353 . S
C129 O128 1.286 . S
C129 C131 1.363 . S
C130 C120 1.465 . S
C130 U126 2.847 . S
C130 O144 1.249 . S
C130 O145 1.202 . S
C131 C129 1.363 . S
C131 C133 1.408 . S
C131 C136 1.342 . S
C132 C133 1.310 . S
C132 C135 1.461 . S
C132 H152 0.932 . S
C133 C131 1.408 . S
C133 C132 1.310 . S
C133 H153 0.930 . S
C134 C135 1.474 . S
C134 C136 1.285 . S
C134 H154 0.929 . S
C135 C132 1.461 . S
C135 C134 1.474 . S
C136 C131 1.342 . S
C136 C134 1.285 . S
C136 H155 0.930 . S
C137 C140 1.424 . S
C137 C142 1.245 . S
C137 C143 1.428 . S
C138 C141 1.260 . S
C138 C142 1.477 . S
C138 H156 0.932 . S
C139 C140 1.384 . S
C139 C141 1.479 . S
C139 H157 0.929 . S
C140 C137 1.424 . S
C140 C139 1.384 . S
C140 H158 0.928 . S
C141 C138 1.260 . S
C141 C139 1.479 . S
C142 C137 1.245 . S
C142 C138 1.477 . S
C142 H159 0.932 . S
C143 U126 2.882 . S
C143 C137 1.428 . S
C143 O146 1.301 . S
C143 O147 1.282 . S
O144 U126 2.441 . S
O144 C130 1.249 . S
O145 U126 2.420 . S
O145 C130 1.202 . S
O146 U126 2.455 . S
O146 C143 1.301 . S
O147 U126 2.449 . S
O147 C143 1.282 . S
H148 C121 0.931 . S
H149 C123 0.929 . S
H150 C124 0.930 . S
H151 C125 0.931 . S
H152 C132 0.932 . S
H153 C133 0.930 . S
H154 C134 0.929 . S
H155 C136 0.930 . S
H156 C138 0.932 . S
H157 C139 0.929 . S
H158 C140 0.928 . S
H159 C142 0.932 . S
C160 C161 1.264 . S
C160 C165 1.479 . S
C160 C170 1.465 . S
C161 C160 1.264 . S
C161 C163 1.339 . S
C161 H188 0.931 . S
C162 C163 1.395 . S
C162 C164 1.320 . S
C163 C161 1.339 . S
C163 C162 1.395 . S
C163 H189 0.929 . S
C164 C162 1.320 . S
C164 C165 1.405 . S
C164 H190 0.930 . S
C165 C160 1.479 . S
C165 C164 1.405 . S
C165 H191 0.931 . S
U166 O167 2.454 . S
U166 O168 2.458 . S
U166 C169 2.984 . S
U166 C170 2.847 . S
U166 C183 2.882 . S
U166 O184 2.441 . S
U166 O185 2.420 . S
U166 O186 2.455 . S
U166 O187 2.449 . S
O167 U166 2.454 . S
O167 C169 1.353 . S
O168 U166 2.458 . S
O168 C169 1.286 . S
C169 U166 2.984 . S
C169 O167 1.353 . S
C169 O168 1.286 . S
C169 C171 1.363 . S
C170 C160 1.465 . S
C170 U166 2.847 . S
C170 O184 1.249 . S
C170 O185 1.202 . S
C171 C169 1.363 . S
C171 C173 1.408 . S
C171 C176 1.342 . S
C172 C173 1.310 . S
C172 C175 1.461 . S
C172 H192 0.932 . S
C173 C171 1.408 . S
C173 C172 1.310 . S
C173 H193 0.930 . S
C174 C175 1.474 . S
C174 C176 1.285 . S
C174 H194 0.929 . S
C175 C172 1.461 . S
C175 C174 1.474 . S
C176 C171 1.342 . S
C176 C174 1.285 . S
C176 H195 0.930 . S
C177 C180 1.424 . S
C177 C182 1.245 . S
C177 C183 1.428 . S
C178 C181 1.260 . S
C178 C182 1.477 . S
C178 H196 0.932 . S
C179 C180 1.384 . S
C179 C181 1.479 . S
C179 H197 0.929 . S
C180 C177 1.424 . S
C180 C179 1.384 . S
C180 H198 0.928 . S
C181 C178 1.260 . S
C181 C179 1.479 . S
C182 C177 1.245 . S
C182 C178 1.477 . S
C182 H199 0.932 . S
C183 U166 2.882 . S
C183 C177 1.428 . S
C183 O186 1.301 . S
C183 O187 1.282 . S
O184 U166 2.441 . S
O184 C170 1.249 . S
O185 U166 2.420 . S
O185 C170 1.202 . S
O186 U166 2.455 . S
O186 C183 1.301 . S
O187 U166 2.449 . S
O187 C183 1.282 . S
H188 C161 0.931 . S
H189 C163 0.929 . S
H190 C164 0.930 . S
H191 C165 0.931 . S
H192 C172 0.932 . S
H193 C173 0.930 . S
H194 C174 0.929 . S
H195 C176 0.930 . S
H196 C178 0.932 . S
H197 C179 0.929 . S
H198 C180 0.928 . S
H199 C182 0.932 . S
C200 C201 1.264 . S
C200 C205 1.479 . S
C200 C210 1.465 . S
C201 C200 1.264 . S
C201 C203 1.339 . S
C201 H228 0.931 . S
C202 C203 1.395 . S
C202 C204 1.320 . S
C203 C201 1.339 . S
C203 C202 1.395 . S
C203 H229 0.929 . S
C204 C202 1.320 . S
C204 C205 1.405 . S
C204 H230 0.930 . S
C205 C200 1.479 . S
C205 C204 1.405 . S
C205 H231 0.931 . S
U206 O207 2.454 . S
U206 O208 2.458 . S
U206 C209 2.984 . S
U206 C210 2.847 . S
U206 C223 2.882 . S
U206 O224 2.441 . S
U206 O225 2.420 . S
U206 O226 2.455 . S
U206 O227 2.449 . S
O207 U206 2.454 . S
O207 C209 1.353 . S
O208 U206 2.458 . S
O208 C209 1.286 . S
C209 U206 2.984 . S
C209 O207 1.353 . S
C209 O208 1.286 . S
C209 C211 1.363 . S
C210 C200 1.465 . S
C210 U206 2.847 . S
C210 O224 1.249 . S
C210 O225 1.202 . S
C211 C209 1.363 . S
C211 C213 1.408 . S
C211 C216 1.342 . S
C212 C213 1.310 . S
C212 C215 1.461 . S
C212 H232 0.932 . S
C213 C211 1.408 . S
C213 C212 1.310 . S
C213 H233 0.930 . S
C214 C215 1.474 . S
C214 C216 1.285 . S
C214 H234 0.929 . S
C215 C212 1.461 . S
C215 C214 1.474 . S
C216 C211 1.342 . S
C216 C214 1.285 . S
C216 H235 0.930 . S
C217 C220 1.424 . S
C217 C222 1.245 . S
C217 C223 1.428 . S
C218 C221 1.260 . S
C218 C222 1.477 . S
C218 H236 0.932 . S
C219 C220 1.384 . S
C219 C221 1.479 . S
C219 H237 0.929 . S
C220 C217 1.424 . S
C220 C219 1.384 . S
C220 H238 0.928 . S
C221 C218 1.260 . S
C221 C219 1.479 . S
C222 C217 1.245 . S
C222 C218 1.477 . S
C222 H239 0.932 . S
C223 U206 2.882 . S
C223 C217 1.428 . S
C223 O226 1.301 . S
C223 O227 1.282 . S
O224 U206 2.441 . S
O224 C210 1.249 . S
O225 U206 2.420 . S
O225 C210 1.202 . S
O226 U206 2.455 . S
O226 C223 1.301 . S
O227 U206 2.449 . S
O227 C223 1.282 . S
H228 C201 0.931 . S
H229 C203 0.929 . S
H230 C204 0.930 . S
H231 C205 0.931 . S
H232 C212 0.932 . S
H233 C213 0.930 . S
H234 C214 0.929 . S
H235 C216 0.930 . S
H236 C218 0.932 . S
H237 C219 0.929 . S
H238 C220 0.928 . S
H239 C222 0.932 . S
C240 C241 1.264 . S
C240 C245 1.479 . S
C240 C250 1.465 . S
C241 C240 1.264 . S
C241 C243 1.339 . S
C241 H268 0.931 . S
C242 C243 1.395 . S
C242 C244 1.320 . S
C243 C241 1.339 . S
C243 C242 1.395 . S
C243 H269 0.929 . S
C244 C242 1.320 . S
C244 C245 1.405 . S
C244 H270 0.930 . S
C245 C240 1.479 . S
C245 C244 1.405 . S
C245 H271 0.931 . S
U246 O247 2.454 . S
U246 O248 2.458 . S
U246 C249 2.984 . S
U246 C250 2.847 . S
U246 C263 2.882 . S
U246 O264 2.441 . S
U246 O265 2.420 . S
U246 O266 2.455 . S
U246 O267 2.449 . S
O247 U246 2.454 . S
O247 C249 1.353 . S
O248 U246 2.458 . S
O248 C249 1.286 . S
C249 U246 2.984 . S
C249 O247 1.353 . S
C249 O248 1.286 . S
C249 C251 1.363 . S
C250 C240 1.465 . S
C250 U246 2.847 . S
C250 O264 1.249 . S
C250 O265 1.202 . S
C251 C249 1.363 . S
C251 C253 1.408 . S
C251 C256 1.342 . S
C252 C253 1.310 . S
C252 C255 1.461 . S
C252 H272 0.932 . S
C253 C251 1.408 . S
C253 C252 1.310 . S
C253 H273 0.930 . S
C254 C255 1.474 . S
C254 C256 1.285 . S
C254 H274 0.929 . S
C255 C252 1.461 . S
C255 C254 1.474 . S
C256 C251 1.342 . S
C256 C254 1.285 . S
C256 H275 0.930 . S
C257 C260 1.424 . S
C257 C262 1.245 . S
C257 C263 1.428 . S
C258 C261 1.260 . S
C258 C262 1.477 . S
C258 H276 0.932 . S
C259 C260 1.384 . S
C259 C261 1.479 . S
C259 H277 0.929 . S
C260 C257 1.424 . S
C260 C259 1.384 . S
C260 H278 0.928 . S
C261 C258 1.260 . S
C261 C259 1.479 . S
C262 C257 1.245 . S
C262 C258 1.477 . S
C262 H279 0.932 . S
C263 U246 2.882 . S
C263 C257 1.428 . S
C263 O266 1.301 . S
C263 O267 1.282 . S
O264 U246 2.441 . S
O264 C250 1.249 . S
O265 U246 2.420 . S
O265 C250 1.202 . S
O266 U246 2.455 . S
O266 C263 1.301 . S
O267 U246 2.449 . S
O267 C263 1.282 . S
H268 C241 0.931 . S
H269 C243 0.929 . S
H270 C244 0.930 . S
H271 C245 0.931 . S
H272 C252 0.932 . S
H273 C253 0.930 . S
H274 C254 0.929 . S
H275 C256 0.930 . S
H276 C258 0.932 . S
H277 C259 0.929 . S
H278 C260 0.928 . S
H279 C262 0.932 . S
C280 C281 1.264 . S
C280 C285 1.479 . S
C280 C290 1.465 . S
C281 C280 1.264 . S
C281 C283 1.339 . S
C281 H308 0.931 . S
C282 C283 1.395 . S
C282 C284 1.320 . S
C283 C281 1.339 . S
C283 C282 1.395 . S
C283 H309 0.929 . S
C284 C282 1.320 . S
C284 C285 1.405 . S
C284 H310 0.930 . S
C285 C280 1.479 . S
C285 C284 1.405 . S
C285 H311 0.931 . S
U286 O287 2.454 . S
U286 O288 2.458 . S
U286 C289 2.984 . S
U286 C290 2.847 . S
U286 C303 2.882 . S
U286 O304 2.441 . S
U286 O305 2.420 . S
U286 O306 2.455 . S
U286 O307 2.449 . S
O287 U286 2.454 . S
O287 C289 1.353 . S
O288 U286 2.458 . S
O288 C289 1.286 . S
C289 U286 2.984 . S
C289 O287 1.353 . S
C289 O288 1.286 . S
C289 C291 1.363 . S
C290 C280 1.465 . S
C290 U286 2.847 . S
C290 O304 1.249 . S
C290 O305 1.202 . S
C291 C289 1.363 . S
C291 C293 1.408 . S
C291 C296 1.342 . S
C292 C293 1.310 . S
C292 C295 1.461 . S
C292 H312 0.932 . S
C293 C291 1.408 . S
C293 C292 1.310 . S
C293 H313 0.930 . S
C294 C295 1.474 . S
C294 C296 1.285 . S
C294 H314 0.929 . S
C295 C292 1.461 . S
C295 C294 1.474 . S
C296 C291 1.342 . S
C296 C294 1.285 . S
C296 H315 0.930 . S
C297 C300 1.424 . S
C297 C302 1.245 . S
C297 C303 1.428 . S
C298 C301 1.260 . S
C298 C302 1.477 . S
C298 H316 0.932 . S
C299 C300 1.384 . S
C299 C301 1.479 . S
C299 H317 0.929 . S
C300 C297 1.424 . S
C300 C299 1.384 . S
C300 H318 0.928 . S
C301 C298 1.260 . S
C301 C299 1.479 . S
C302 C297 1.245 . S
C302 C298 1.477 . S
C302 H319 0.932 . S
C303 U286 2.882 . S
C303 C297 1.428 . S
C303 O306 1.301 . S
C303 O307 1.282 . S
O304 U286 2.441 . S
O304 C290 1.249 . S
O305 U286 2.420 . S
O305 C290 1.202 . S
O306 U286 2.455 . S
O306 C303 1.301 . S
O307 U286 2.449 . S
O307 C303 1.282 . S
H308 C281 0.931 . S
H309 C283 0.929 . S
H310 C284 0.930 . S
H311 C285 0.931 . S
H312 C292 0.932 . S
H313 C293 0.930 . S
H314 C294 0.929 . S
H315 C296 0.930 . S
H316 C298 0.932 . S
H317 C299 0.929 . S
H318 C300 0.928 . S
H319 C302 0.932 . S
C320 C321 1.264 . S
C320 C325 1.479 . S
C320 C330 1.465 . S
C321 C320 1.264 . S
C321 C323 1.339 . S
C321 H348 0.931 . S
C322 C323 1.395 . S
C322 C324 1.320 . S
C323 C321 1.339 . S
C323 C322 1.395 . S
C323 H349 0.929 . S
C324 C322 1.320 . S
C324 C325 1.405 . S
C324 H350 0.930 . S
C325 C320 1.479 . S
C325 C324 1.405 . S
C325 H351 0.931 . S
U326 O327 2.454 . S
U326 O328 2.458 . S
U326 C329 2.984 . S
U326 C330 2.847 . S
U326 C343 2.882 . S
U326 O344 2.441 . S
U326 O345 2.420 . S
U326 O346 2.455 . S
U326 O347 2.449 . S
O327 U326 2.454 . S
O327 C329 1.353 . S
O328 U326 2.458 . S
O328 C329 1.286 . S
C329 U326 2.984 . S
C329 O327 1.353 . S
C329 O328 1.286 . S
C329 C331 1.363 . S
C330 C320 1.465 . S
C330 U326 2.847 . S
C330 O344 1.249 . S
C330 O345 1.202 . S
C331 C329 1.363 . S
C331 C333 1.408 . S
C331 C336 1.342 . S
C332 C333 1.310 . S
C332 C335 1.461 . S
C332 H352 0.932 . S
C333 C331 1.408 . S
C333 C332 1.310 . S
C333 H353 0.930 . S
C334 C335 1.474 . S
C334 C336 1.285 . S
C334 H354 0.929 . S
C335 C332 1.461 . S
C335 C334 1.474 . S
C336 C331 1.342 . S
C336 C334 1.285 . S
C336 H355 0.930 . S
C337 C340 1.424 . S
C337 C342 1.245 . S
C337 C343 1.428 . S
C338 C341 1.260 . S
C338 C342 1.477 . S
C338 H356 0.932 . S
C339 C340 1.384 . S
C339 C341 1.479 . S
C339 H357 0.929 . S
C340 C337 1.424 . S
C340 C339 1.384 . S
C340 H358 0.928 . S
C341 C338 1.260 . S
C341 C339 1.479 . S
C342 C337 1.245 . S
C342 C338 1.477 . S
C342 H359 0.932 . S
C343 U326 2.882 . S
C343 C337 1.428 . S
C343 O346 1.301 . S
C343 O347 1.282 . S
O344 U326 2.441 . S
O344 C330 1.249 . S
O345 U326 2.420 . S
O345 C330 1.202 . S
O346 U326 2.455 . S
O346 C343 1.301 . S
O347 U326 2.449 . S
O347 C343 1.282 . S
H348 C321 0.931 . S
H349 C323 0.929 . S
H350 C324 0.930 . S
H351 C325 0.931 . S
H352 C332 0.932 . S
H353 C333 0.930 . S
H354 C334 0.929 . S
H355 C336 0.930 . S
H356 C338 0.932 . S
H357 C339 0.929 . S
H358 C340 0.928 . S
H359 C342 0.932 . S
C360 C361 1.264 . S
C360 C365 1.479 . S
C360 C370 1.465 . S
C361 C360 1.264 . S
C361 C363 1.339 . S
C361 H388 0.931 . S
C362 C363 1.395 . S
C362 C364 1.320 . S
C363 C361 1.339 . S
C363 C362 1.395 . S
C363 H389 0.929 . S
C364 C362 1.320 . S
C364 C365 1.405 . S
C364 H390 0.930 . S
C365 C360 1.479 . S
C365 C364 1.405 . S
C365 H391 0.931 . S
U366 O367 2.454 . S
U366 O368 2.458 . S
U366 C369 2.984 . S
U366 C370 2.847 . S
U366 C383 2.882 . S
U366 O384 2.441 . S
U366 O385 2.420 . S
U366 O386 2.455 . S
U366 O387 2.449 . S
O367 U366 2.454 . S
O367 C369 1.353 . S
O368 U366 2.458 . S
O368 C369 1.286 . S
C369 U366 2.984 . S
C369 O367 1.353 . S
C369 O368 1.286 . S
C369 C371 1.363 . S
C370 C360 1.465 . S
C370 U366 2.847 . S
C370 O384 1.249 . S
C370 O385 1.202 . S
C371 C369 1.363 . S
C371 C373 1.408 . S
C371 C376 1.342 . S
C372 C373 1.310 . S
C372 C375 1.461 . S
C372 H392 0.932 . S
C373 C371 1.408 . S
C373 C372 1.310 . S
C373 H393 0.930 . S
C374 C375 1.474 . S
C374 C376 1.285 . S
C374 H394 0.929 . S
C375 C372 1.461 . S
C375 C374 1.474 . S
C376 C371 1.342 . S
C376 C374 1.285 . S
C376 H395 0.930 . S
C377 C380 1.424 . S
C377 C382 1.245 . S
C377 C383 1.428 . S
C378 C381 1.260 . S
C378 C382 1.477 . S
C378 H396 0.932 . S
C379 C380 1.384 . S
C379 C381 1.479 . S
C379 H397 0.929 . S
C380 C377 1.424 . S
C380 C379 1.384 . S
C380 H398 0.928 . S
C381 C378 1.260 . S
C381 C379 1.479 . S
C382 C377 1.245 . S
C382 C378 1.477 . S
C382 H399 0.932 . S
C383 U366 2.882 . S
C383 C377 1.428 . S
C383 O386 1.301 . S
C383 O387 1.282 . S
O384 U366 2.441 . S
O384 C370 1.249 . S
O385 U366 2.420 . S
O385 C370 1.202 . S
O386 U366 2.455 . S
O386 C383 1.301 . S
O387 U366 2.449 . S
O387 C383 1.282 . S
H388 C361 0.931 . S
H389 C363 0.929 . S
H390 C364 0.930 . S
H391 C365 0.931 . S
H392 C372 0.932 . S
H393 C373 0.930 . S
H394 C374 0.929 . S
H395 C376 0.930 . S
H396 C378 0.932 . S
H397 C379 0.929 . S
H398 C380 0.928 . S
H399 C382 0.932 . S
C400 C401 1.264 . S
C400 C405 1.479 . S
C400 C410 1.465 . S
C401 C400 1.264 . S
C401 C403 1.339 . S
C401 H428 0.931 . S
C402 C403 1.395 . S
C402 C404 1.320 . S
C403 C401 1.339 . S
C403 C402 1.395 . S
C403 H429 0.929 . S
C404 C402 1.320 . S
C404 C405 1.405 . S
C404 H430 0.930 . S
C405 C400 1.479 . S
C405 C404 1.405 . S
C405 H431 0.931 . S
U406 O407 2.454 . S
U406 O408 2.458 . S
U406 C409 2.984 . S
U406 C410 2.847 . S
U406 C423 2.882 . S
U406 O424 2.441 . S
U406 O425 2.420 . S
U406 O426 2.455 . S
U406 O427 2.449 . S
O407 U406 2.454 . S
O407 C409 1.353 . S
O408 U406 2.458 . S
O408 C409 1.286 . S
C409 U406 2.984 . S
C409 O407 1.353 . S
C409 O408 1.286 . S
C409 C411 1.363 . S
C410 C400 1.465 . S
C410 U406 2.847 . S
C410 O424 1.249 . S
C410 O425 1.202 . S
C411 C409 1.363 . S
C411 C413 1.408 . S
C411 C416 1.342 . S
C412 C413 1.310 . S
C412 C415 1.461 . S
C412 H432 0.932 . S
C413 C411 1.408 . S
C413 C412 1.310 . S
C413 H433 0.930 . S
C414 C415 1.474 . S
C414 C416 1.285 . S
C414 H434 0.929 . S
C415 C412 1.461 . S
C415 C414 1.474 . S
C416 C411 1.342 . S
C416 C414 1.285 . S
C416 H435 0.930 . S
C417 C420 1.424 . S
C417 C422 1.245 . S
C417 C423 1.428 . S
C418 C421 1.260 . S
C418 C422 1.477 . S
C418 H436 0.932 . S
C419 C420 1.384 . S
C419 C421 1.479 . S
C419 H437 0.929 . S
C420 C417 1.424 . S
C420 C419 1.384 . S
C420 H438 0.928 . S
C421 C418 1.260 . S
C421 C419 1.479 . S
C422 C417 1.245 . S
C422 C418 1.477 . S
C422 H439 0.932 . S
C423 U406 2.882 . S
C423 C417 1.428 . S
C423 O426 1.301 . S
C423 O427 1.282 . S
O424 U406 2.441 . S
O424 C410 1.249 . S
O425 U406 2.420 . S
O425 C410 1.202 . S
O426 U406 2.455 . S
O426 C423 1.301 . S
O427 U406 2.449 . S
O427 C423 1.282 . S
H428 C401 0.931 . S
H429 C403 0.929 . S
H430 C404 0.930 . S
H431 C405 0.931 . S
H432 C412 0.932 . S
H433 C413 0.930 . S
H434 C414 0.929 . S
H435 C416 0.930 . S
H436 C418 0.932 . S
H437 C419 0.929 . S
H438 C420 0.928 . S
H439 C422 0.932 . S
C440 C441 1.264 . S
C440 C445 1.479 . S
C440 C450 1.465 . S
C441 C440 1.264 . S
C441 C443 1.339 . S
C441 H468 0.931 . S
C442 C443 1.395 . S
C442 C444 1.320 . S
C443 C441 1.339 . S
C443 C442 1.395 . S
C443 H469 0.929 . S
C444 C442 1.320 . S
C444 C445 1.405 . S
C444 H470 0.930 . S
C445 C440 1.479 . S
C445 C444 1.405 . S
C445 H471 0.931 . S
U446 O447 2.454 . S
U446 O448 2.458 . S
U446 C449 2.984 . S
U446 C450 2.847 . S
U446 C463 2.882 . S
U446 O464 2.441 . S
U446 O465 2.420 . S
U446 O466 2.455 . S
U446 O467 2.449 . S
O447 U446 2.454 . S
O447 C449 1.353 . S
O448 U446 2.458 . S
O448 C449 1.286 . S
C449 U446 2.984 . S
C449 O447 1.353 . S
C449 O448 1.286 . S
C449 C451 1.363 . S
C450 C440 1.465 . S
C450 U446 2.847 . S
C450 O464 1.249 . S
C450 O465 1.202 . S
C451 C449 1.363 . S
C451 C453 1.408 . S
C451 C456 1.342 . S
C452 C453 1.310 . S
C452 C455 1.461 . S
C452 H472 0.932 . S
C453 C451 1.408 . S
C453 C452 1.310 . S
C453 H473 0.930 . S
C454 C455 1.474 . S
C454 C456 1.285 . S
C454 H474 0.929 . S
C455 C452 1.461 . S
C455 C454 1.474 . S
C456 C451 1.342 . S
C456 C454 1.285 . S
C456 H475 0.930 . S
C457 C460 1.424 . S
C457 C462 1.245 . S
C457 C463 1.428 . S
C458 C461 1.260 . S
C458 C462 1.477 . S
C458 H476 0.932 . S
C459 C460 1.384 . S
C459 C461 1.479 . S
C459 H477 0.929 . S
C460 C457 1.424 . S
C460 C459 1.384 . S
C460 H478 0.928 . S
C461 C458 1.260 . S
C461 C459 1.479 . S
C462 C457 1.245 . S
C462 C458 1.477 . S
C462 H479 0.932 . S
C463 U446 2.882 . S
C463 C457 1.428 . S
C463 O466 1.301 . S
C463 O467 1.282 . S
O464 U446 2.441 . S
O464 C450 1.249 . S
O465 U446 2.420 . S
O465 C450 1.202 . S
O466 U446 2.455 . S
O466 C463 1.301 . S
O467 U446 2.449 . S
O467 C463 1.282 . S
H468 C441 0.931 . S
H469 C443 0.929 . S
H470 C444 0.930 . S
H471 C445 0.931 . S
H472 C452 0.932 . S
H473 C453 0.930 . S
H474 C454 0.929 . S
H475 C456 0.930 . S
H476 C458 0.932 . S
H477 C459 0.929 . S
H478 C460 0.928 . S
H479 C462 0.932 . S
C480 C481 1.264 . S
C480 C485 1.479 . S
C480 C490 1.465 . S
C481 C480 1.264 . S
C481 C483 1.339 . S
C481 H508 0.931 . S
C482 C483 1.395 . S
C482 C484 1.320 . S
C483 C481 1.339 . S
C483 C482 1.395 . S
C483 H509 0.929 . S
C484 C482 1.320 . S
C484 C485 1.405 . S
C484 H510 0.930 . S
C485 C480 1.479 . S
C485 C484 1.405 . S
C485 H511 0.931 . S
U486 O487 2.454 . S
U486 O488 2.458 . S
U486 C489 2.984 . S
U486 C490 2.847 . S
U486 C503 2.882 . S
U486 O504 2.441 . S
U486 O505 2.420 . S
U486 O506 2.455 . S
U486 O507 2.449 . S
O487 U486 2.454 . S
O487 C489 1.353 . S
O488 U486 2.458 . S
O488 C489 1.286 . S
C489 U486 2.984 . S
C489 O487 1.353 . S
C489 O488 1.286 . S
C489 C491 1.363 . S
C490 C480 1.465 . S
C490 U486 2.847 . S
C490 O504 1.249 . S
C490 O505 1.202 . S
C491 C489 1.363 . S
C491 C493 1.408 . S
C491 C496 1.342 . S
C492 C493 1.310 . S
C492 C495 1.461 . S
C492 H512 0.932 . S
C493 C491 1.408 . S
C493 C492 1.310 . S
C493 H513 0.930 . S
C494 C495 1.474 . S
C494 C496 1.285 . S
C494 H514 0.929 . S
C495 C492 1.461 . S
C495 C494 1.474 . S
C496 C491 1.342 . S
C496 C494 1.285 . S
C496 H515 0.930 . S
C497 C500 1.424 . S
C497 C502 1.245 . S
C497 C503 1.428 . S
C498 C501 1.260 . S
C498 C502 1.477 . S
C498 H516 0.932 . S
C499 C500 1.384 . S
C499 C501 1.479 . S
C499 H517 0.929 . S
C500 C497 1.424 . S
C500 C499 1.384 . S
C500 H518 0.928 . S
C501 C498 1.260 . S
C501 C499 1.479 . S
C502 C497 1.245 . S
C502 C498 1.477 . S
C502 H519 0.932 . S
C503 U486 2.882 . S
C503 C497 1.428 . S
C503 O506 1.301 . S
C503 O507 1.282 . S
O504 U486 2.441 . S
O504 C490 1.249 . S
O505 U486 2.420 . S
O505 C490 1.202 . S
O506 U486 2.455 . S
O506 C503 1.301 . S
O507 U486 2.449 . S
O507 C503 1.282 . S
H508 C481 0.931 . S
H509 C483 0.929 . S
H510 C484 0.930 . S
H511 C485 0.931 . S
H512 C492 0.932 . S
H513 C493 0.930 . S
H514 C494 0.929 . S
H515 C496 0.930 . S
H516 C498 0.932 . S
H517 C499 0.929 . S
H518 C500 0.928 . S
H519 C502 0.932 . S
C520 C521 1.264 . S
C520 C525 1.479 . S
C520 C530 1.465 . S
C521 C520 1.264 . S
C521 C523 1.339 . S
C521 H548 0.931 . S
C522 C523 1.395 . S
C522 C524 1.320 . S
C523 C521 1.339 . S
C523 C522 1.395 . S
C523 H549 0.929 . S
C524 C522 1.320 . S
C524 C525 1.405 . S
C524 H550 0.930 . S
C525 C520 1.479 . S
C525 C524 1.405 . S
C525 H551 0.931 . S
U526 O527 2.454 . S
U526 O528 2.458 . S
U526 C529 2.984 . S
U526 C530 2.847 . S
U526 C543 2.882 . S
U526 O544 2.441 . S
U526 O545 2.420 . S
U526 O546 2.455 . S
U526 O547 2.449 . S
O527 U526 2.454 . S
O527 C529 1.353 . S
O528 U526 2.458 . S
O528 C529 1.286 . S
C529 U526 2.984 . S
C529 O527 1.353 . S
C529 O528 1.286 . S
C529 C531 1.363 . S
C530 C520 1.465 . S
C530 U526 2.847 . S
C530 O544 1.249 . S
C530 O545 1.202 . S
C531 C529 1.363 . S
C531 C533 1.408 . S
C531 C536 1.342 . S
C532 C533 1.310 . S
C532 C535 1.461 . S
C532 H552 0.932 . S
C533 C531 1.408 . S
C533 C532 1.310 . S
C533 H553 0.930 . S
C534 C535 1.474 . S
C534 C536 1.285 . S
C534 H554 0.929 . S
C535 C532 1.461 . S
C535 C534 1.474 . S
C536 C531 1.342 . S
C536 C534 1.285 . S
C536 H555 0.930 . S
C537 C540 1.424 . S
C537 C542 1.245 . S
C537 C543 1.428 . S
C538 C541 1.260 . S
C538 C542 1.477 . S
C538 H556 0.932 . S
C539 C540 1.384 . S
C539 C541 1.479 . S
C539 H557 0.929 . S
C540 C537 1.424 . S
C540 C539 1.384 . S
C540 H558 0.928 . S
C541 C538 1.260 . S
C541 C539 1.479 . S
C542 C537 1.245 . S
C542 C538 1.477 . S
C542 H559 0.932 . S
C543 U526 2.882 . S
C543 C537 1.428 . S
C543 O546 1.301 . S
C543 O547 1.282 . S
O544 U526 2.441 . S
O544 C530 1.249 . S
O545 U526 2.420 . S
O545 C530 1.202 . S
O546 U526 2.455 . S
O546 C543 1.301 . S
O547 U526 2.449 . S
O547 C543 1.282 . S
H548 C521 0.931 . S
H549 C523 0.929 . S
H550 C524 0.930 . S
H551 C525 0.931 . S
H552 C532 0.932 . S
H553 C533 0.930 . S
H554 C534 0.929 . S
H555 C536 0.930 . S
H556 C538 0.932 . S
H557 C539 0.929 . S
H558 C540 0.928 . S
H559 C542 0.932 . S
C560 C561 1.264 . S
C560 C565 1.479 . S
C560 C570 1.465 . S
C561 C560 1.264 . S
C561 C563 1.339 . S
C561 H588 0.931 . S
C562 C563 1.395 . S
C562 C564 1.320 . S
C563 C561 1.339 . S
C563 C562 1.395 . S
C563 H589 0.929 . S
C564 C562 1.320 . S
C564 C565 1.405 . S
C564 H590 0.930 . S
C565 C560 1.479 . S
C565 C564 1.405 . S
C565 H591 0.931 . S
U566 O567 2.454 . S
U566 O568 2.458 . S
U566 C569 2.984 . S
U566 C570 2.847 . S
U566 C583 2.882 . S
U566 O584 2.441 . S
U566 O585 2.420 . S
U566 O586 2.455 . S
U566 O587 2.449 . S
O567 U566 2.454 . S
O567 C569 1.353 . S
O568 U566 2.458 . S
O568 C569 1.286 . S
C569 U566 2.984 . S
C569 O567 1.353 . S
C569 O568 1.286 . S
C569 C571 1.363 . S
C570 C560 1.465 . S
C570 U566 2.847 . S
C570 O584 1.249 . S
C570 O585 1.202 . S
C571 C569 1.363 . S
C571 C573 1.408 . S
C571 C576 1.342 . S
C572 C573 1.310 . S
C572 C575 1.461 . S
C572 H592 0.932 . S
C573 C571 1.408 . S
C573 C572 1.310 . S
C573 H593 0.930 . S
C574 C575 1.474 . S
C574 C576 1.285 . S
C574 H594 0.929 . S
C575 C572 1.461 . S
C575 C574 1.474 . S
C576 C571 1.342 . S
C576 C574 1.285 . S
C576 H595 0.930 . S
C577 C580 1.424 . S
C577 C582 1.245 . S
C577 C583 1.428 . S
C578 C581 1.260 . S
C578 C582 1.477 . S
C578 H596 0.932 . S
C579 C580 1.384 . S
C579 C581 1.479 . S
C579 H597 0.929 . S
C580 C577 1.424 . S
C580 C579 1.384 . S
C580 H598 0.928 . S
C581 C578 1.260 . S
C581 C579 1.479 . S
C582 C577 1.245 . S
C582 C578 1.477 . S
C582 H599 0.932 . S
C583 U566 2.882 . S
C583 C577 1.428 . S
C583 O586 1.301 . S
C583 O587 1.282 . S
O584 U566 2.441 . S
O584 C570 1.249 . S
O585 U566 2.420 . S
O585 C570 1.202 . S
O586 U566 2.455 . S
O586 C583 1.301 . S
O587 U566 2.449 . S
O587 C583 1.282 . S
H588 C561 0.931 . S
H589 C563 0.929 . S
H590 C564 0.930 . S
H591 C565 0.931 . S
H592 C572 0.932 . S
H593 C573 0.930 . S
H594 C574 0.929 . S
H595 C576 0.930 . S
H596 C578 0.932 . S
H597 C579 0.929 . S
H598 C580 0.928 . S
H599 C582 0.932 . S
C600 C601 1.264 . S
C600 C605 1.479 . S
C600 C610 1.465 . S
C601 C600 1.264 . S
C601 C603 1.339 . S
C601 H628 0.931 . S
C602 C603 1.395 . S
C602 C604 1.320 . S
C603 C601 1.339 . S
C603 C602 1.395 . S
C603 H629 0.929 . S
C604 C602 1.320 . S
C604 C605 1.405 . S
C604 H630 0.930 . S
C605 C600 1.479 . S
C605 C604 1.405 . S
C605 H631 0.931 . S
U606 O607 2.454 . S
U606 O608 2.458 . S
U606 C609 2.984 . S
U606 C610 2.847 . S
U606 C623 2.882 . S
U606 O624 2.441 . S
U606 O625 2.420 . S
U606 O626 2.455 . S
U606 O627 2.449 . S
O607 U606 2.454 . S
O607 C609 1.353 . S
O608 U606 2.458 . S
O608 C609 1.286 . S
C609 U606 2.984 . S
C609 O607 1.353 . S
C609 O608 1.286 . S
C609 C611 1.363 . S
C610 C600 1.465 . S
C610 U606 2.847 . S
C610 O624 1.249 . S
C610 O625 1.202 . S
C611 C609 1.363 . S
C611 C613 1.408 . S
C611 C616 1.342 . S
C612 C613 1.310 . S
C612 C615 1.461 . S
C612 H632 0.932 . S
C613 C611 1.408 . S
C613 C612 1.310 . S
C613 H633 0.930 . S
C614 C615 1.474 . S
C614 C616 1.285 . S
C614 H634 0.929 . S
C615 C612 1.461 . S
C615 C614 1.474 . S
C616 C611 1.342 . S
C616 C614 1.285 . S
C616 H635 0.930 . S
C617 C620 1.424 . S
C617 C622 1.245 . S
C617 C623 1.428 . S
C618 C621 1.260 . S
C618 C622 1.477 . S
C618 H636 0.932 1_655 S
C619 C620 1.384 . S
C619 C621 1.479 . S
C619 H637 0.929 . S
C620 C617 1.424 . S
C620 C619 1.384 . S
C620 H638 0.928 . S
C621 C618 1.260 . S
C621 C619 1.479 . S
C622 C617 1.245 . S
C622 C618 1.477 . S
C622 H639 0.932 . S
C623 U606 2.882 . S
C623 C617 1.428 . S
C623 O626 1.301 . S
C623 O627 1.282 . S
O624 U606 2.441 . S
O624 C610 1.249 . S
O625 U606 2.420 . S
O625 C610 1.202 . S
O626 U606 2.455 . S
O626 C623 1.301 . S
O627 U606 2.449 . S
O627 C623 1.282 . S
H628 C601 0.931 . S
H629 C603 0.929 . S
H630 C604 0.930 . S
H631 C605 0.931 . S
H632 C612 0.932 . S
H633 C613 0.930 . S
H634 C614 0.929 . S
H635 C616 0.930 . S
H636 C618 0.932 1_455 S
H637 C619 0.929 . S
H638 C620 0.928 . S
H639 C622 0.932 . S
C640 C641 1.264 . S
C640 C645 1.479 . S
C640 C650 1.465 . S
C641 C640 1.264 . S
C641 C643 1.339 . S
C641 H668 0.931 . S
C642 C643 1.395 . S
C642 C644 1.320 . S
C643 C641 1.339 . S
C643 C642 1.395 . S
C643 H669 0.929 . S
C644 C642 1.320 . S
C644 C645 1.405 . S
C644 H670 0.930 . S
C645 C640 1.479 . S
C645 C644 1.405 . S
C645 H671 0.931 . S
U646 O647 2.454 . S
U646 O648 2.458 . S
U646 C649 2.984 . S
U646 C650 2.847 . S
U646 C663 2.882 . S
U646 O664 2.441 . S
U646 O665 2.420 . S
U646 O666 2.455 . S
U646 O667 2.449 . S
O647 U646 2.454 . S
O647 C649 1.353 . S
O648 U646 2.458 . S
O648 C649 1.286 . S
C649 U646 2.984 . S
C649 O647 1.353 . S
C649 O648 1.286 . S
C649 C651 1.363 . S
C650 C640 1.465 . S
C650 U646 2.847 . S
C650 O664 1.249 . S
C650 O665 1.202 . S
C651 C649 1.363 . S
C651 C653 1.408 . S
C651 C656 1.342 . S
C652 C653 1.310 . S
C652 C655 1.461 . S
C652 H672 0.932 . S
C653 C651 1.408 . S
C653 C652 1.310 . S
C653 H673 0.930 . S
C654 C655 1.474 . S
C654 C656 1.285 . S
C654 H674 0.929 . S
C655 C652 1.461 . S
C655 C654 1.474 . S
C656 C651 1.342 . S
C656 C654 1.285 . S
C656 H675 0.930 . S
C657 C660 1.424 . S
C657 C662 1.245 . S
C657 C663 1.428 . S
C658 C661 1.260 . S
C658 C662 1.477 . S
C658 H676 0.932 . S
C659 C660 1.384 . S
C659 C661 1.479 . S
C659 H677 0.929 . S
C660 C657 1.424 . S
C660 C659 1.384 . S
C660 H678 0.928 . S
C661 C658 1.260 . S
C661 C659 1.479 . S
C662 C657 1.245 . S
C662 C658 1.477 . S
C662 H679 0.932 . S
C663 U646 2.882 . S
C663 C657 1.428 . S
C663 O666 1.301 . S
C663 O667 1.282 . S
O664 U646 2.441 . S
O664 C650 1.249 . S
O665 U646 2.420 . S
O665 C650 1.202 . S
O666 U646 2.455 . S
O666 C663 1.301 . S
O667 U646 2.449 . S
O667 C663 1.282 . S
H668 C641 0.931 . S
H669 C643 0.929 . S
H670 C644 0.930 . S
H671 C645 0.931 . S
H672 C652 0.932 . S
H673 C653 0.930 . S
H674 C654 0.929 . S
H675 C656 0.930 . S
H676 C658 0.932 . S
H677 C659 0.929 . S
H678 C660 0.928 . S
H679 C662 0.932 . S
C680 C681 1.264 . S
C680 C685 1.479 . S
C680 C690 1.465 . S
C681 C680 1.264 . S
C681 C683 1.339 . S
C681 H708 0.931 . S
C682 C683 1.395 . S
C682 C684 1.320 . S
C683 C681 1.339 . S
C683 C682 1.395 . S
C683 H709 0.929 . S
C684 C682 1.320 . S
C684 C685 1.405 . S
C684 H710 0.930 . S
C685 C680 1.479 . S
C685 C684 1.405 . S
C685 H711 0.931 . S
U686 O687 2.454 . S
U686 O688 2.458 . S
U686 C689 2.984 . S
U686 C690 2.847 . S
U686 C703 2.882 . S
U686 O704 2.441 . S
U686 O705 2.420 . S
U686 O706 2.455 . S
U686 O707 2.449 . S
O687 U686 2.454 . S
O687 C689 1.353 . S
O688 U686 2.458 . S
O688 C689 1.286 . S
C689 U686 2.984 . S
C689 O687 1.353 . S
C689 O688 1.286 . S
C689 C691 1.363 . S
C690 C680 1.465 . S
C690 U686 2.847 . S
C690 O704 1.249 . S
C690 O705 1.202 . S
C691 C689 1.363 . S
C691 C693 1.408 . S
C691 C696 1.342 . S
C692 C693 1.310 . S
C692 C695 1.461 . S
C692 H712 0.932 . S
C693 C691 1.408 . S
C693 C692 1.310 . S
C693 H713 0.930 . S
C694 C695 1.474 . S
C694 C696 1.285 . S
C694 H714 0.929 . S
C695 C692 1.461 . S
C695 C694 1.474 . S
C696 C691 1.342 . S
C696 C694 1.285 . S
C696 H715 0.930 . S
C697 C700 1.424 . S
C697 C702 1.245 . S
C697 C703 1.428 . S
C698 C701 1.260 . S
C698 C702 1.477 . S
C698 H716 0.932 1_545 S
C699 C700 1.384 . S
C699 C701 1.479 . S
C699 H717 0.929 . S
C700 C697 1.424 . S
C700 C699 1.384 . S
C700 H718 0.928 . S
C701 C698 1.260 . S
C701 C699 1.479 . S
C702 C697 1.245 . S
C702 C698 1.477 . S
C702 H719 0.932 . S
C703 U686 2.882 . S
C703 C697 1.428 . S
C703 O706 1.301 . S
C703 O707 1.282 . S
O704 U686 2.441 . S
O704 C690 1.249 . S
O705 U686 2.420 . S
O705 C690 1.202 . S
O706 U686 2.455 . S
O706 C703 1.301 . S
O707 U686 2.449 . S
O707 C703 1.282 . S
H708 C681 0.931 . S
H709 C683 0.929 . S
H710 C684 0.930 . S
H711 C685 0.931 . S
H712 C692 0.932 . S
H713 C693 0.930 . S
H714 C694 0.929 . S
H715 C696 0.930 . S
H716 C698 0.932 1_565 S
H717 C699 0.929 . S
H718 C700 0.928 . S
H719 C702 0.932 . S
C720 C721 1.264 . S
C720 C725 1.479 . S
C720 C730 1.465 . S
C721 C720 1.264 . S
C721 C723 1.339 . S
C721 H748 0.931 . S
C722 C723 1.395 . S
C722 C724 1.320 . S
C723 C721 1.339 . S
C723 C722 1.395 . S
C723 H749 0.929 . S
C724 C722 1.320 . S
C724 C725 1.405 . S
C724 H750 0.930 . S
C725 C720 1.479 . S
C725 C724 1.405 . S
C725 H751 0.931 . S
U726 O727 2.454 . S
U726 O728 2.458 . S
U726 C729 2.984 . S
U726 C730 2.847 . S
U726 C743 2.882 . S
U726 O744 2.441 . S
U726 O745 2.420 . S
U726 O746 2.455 . S
U726 O747 2.449 . S
O727 U726 2.454 . S
O727 C729 1.353 . S
O728 U726 2.458 . S
O728 C729 1.286 . S
C729 U726 2.984 . S
C729 O727 1.353 . S
C729 O728 1.286 . S
C729 C731 1.363 . S
C730 C720 1.465 . S
C730 U726 2.847 . S
C730 O744 1.249 . S
C730 O745 1.202 . S
C731 C729 1.363 . S
C731 C733 1.408 . S
C731 C736 1.342 . S
C732 C733 1.310 . S
C732 C735 1.461 . S
C732 H752 0.932 1_554 S
C733 C731 1.408 . S
C733 C732 1.310 . S
C733 H753 0.930 . S
C734 C735 1.474 . S
C734 C736 1.285 . S
C734 H754 0.929 . S
C735 C732 1.461 . S
C735 C734 1.474 . S
C736 C731 1.342 . S
C736 C734 1.285 . S
C736 H755 0.930 . S
C737 C740 1.424 . S
C737 C742 1.245 . S
C737 C743 1.428 . S
C738 C741 1.260 . S
C738 C742 1.477 . S
C738 H756 0.932 . S
C739 C740 1.384 . S
C739 C741 1.479 . S
C739 H757 0.929 . S
C740 C737 1.424 . S
C740 C739 1.384 . S
C740 H758 0.928 . S
C741 C738 1.260 . S
C741 C739 1.479 . S
C742 C737 1.245 . S
C742 C738 1.477 . S
C742 H759 0.932 . S
C743 U726 2.882 . S
C743 C737 1.428 . S
C743 O746 1.301 . S
C743 O747 1.282 . S
O744 U726 2.441 . S
O744 C730 1.249 . S
O745 U726 2.420 . S
O745 C730 1.202 . S
O746 U726 2.455 . S
O746 C743 1.301 . S
O747 U726 2.449 . S
O747 C743 1.282 . S
H748 C721 0.931 . S
H749 C723 0.929 . S
H750 C724 0.930 . S
H751 C725 0.931 . S
H752 C732 0.932 1_556 S
H753 C733 0.930 . S
H754 C734 0.929 . S
H755 C736 0.930 . S
H756 C738 0.932 . S
H757 C739 0.929 . S
H758 C740 0.928 . S
H759 C742 0.932 . S
C760 C761 1.264 . S
C760 C765 1.479 . S
C760 C770 1.465 . S
C761 C760 1.264 . S
C761 C763 1.339 . S
C761 H788 0.931 . S
C762 C763 1.395 . S
C762 C764 1.320 . S
C763 C761 1.339 . S
C763 C762 1.395 . S
C763 H789 0.929 . S
C764 C762 1.320 . S
C764 C765 1.405 . S
C764 H790 0.930 . S
C765 C760 1.479 . S
C765 C764 1.405 . S
C765 H791 0.931 . S
U766 O767 2.454 . S
U766 O768 2.458 . S
U766 C769 2.984 . S
U766 C770 2.847 . S
U766 C783 2.882 . S
U766 O784 2.441 . S
U766 O785 2.420 . S
U766 O786 2.455 . S
U766 O787 2.449 . S
O767 U766 2.454 . S
O767 C769 1.353 . S
O768 U766 2.458 . S
O768 C769 1.286 . S
C769 U766 2.984 . S
C769 O767 1.353 . S
C769 O768 1.286 . S
C769 C771 1.363 . S
C770 C760 1.465 . S
C770 U766 2.847 . S
C770 O784 1.249 . S
C770 O785 1.202 . S
C771 C769 1.363 . S
C771 C773 1.408 . S
C771 C776 1.342 . S
C772 C773 1.310 . S
C772 C775 1.461 . S
C772 H792 0.932 1_554 S
C773 C771 1.408 . S
C773 C772 1.310 . S
C773 H793 0.930 . S
C774 C775 1.474 . S
C774 C776 1.285 . S
C774 H794 0.929 . S
C775 C772 1.461 . S
C775 C774 1.474 . S
C776 C771 1.342 . S
C776 C774 1.285 . S
C776 H795 0.930 . S
C777 C780 1.424 . S
C777 C782 1.245 . S
C777 C783 1.428 . S
C778 C781 1.260 . S
C778 C782 1.477 . S
C778 H796 0.932 . S
C779 C780 1.384 . S
C779 C781 1.479 . S
C779 H797 0.929 . S
C780 C777 1.424 . S
C780 C779 1.384 . S
C780 H798 0.928 . S
C781 C778 1.260 . S
C781 C779 1.479 . S
C782 C777 1.245 . S
C782 C778 1.477 . S
C782 H799 0.932 . S
C783 U766 2.882 . S
C783 C777 1.428 . S
C783 O786 1.301 . S
C783 O787 1.282 . S
O784 U766 2.441 . S
O784 C770 1.249 . S
O785 U766 2.420 . S
O785 C770 1.202 . S
O786 U766 2.455 . S
O786 C783 1.301 . S
O787 U766 2.449 . S
O787 C783 1.282 . S
H788 C761 0.931 . S
H789 C763 0.929 . S
H790 C764 0.930 . S
H791 C765 0.931 . S
H792 C772 0.932 1_556 S
H793 C773 0.930 . S
H794 C774 0.929 . S
H795 C776 0.930 . S
H796 C778 0.932 . S
H797 C779 0.929 . S
H798 C780 0.928 . S
H799 C782 0.932 . S
C800 C801 1.264 . S
C800 C805 1.479 . S
C800 C810 1.465 . S
C801 C800 1.264 . S
C801 C803 1.339 . S
C801 H828 0.931 . S
C802 C803 1.395 . S
C802 C804 1.320 . S
C803 C801 1.339 . S
C803 C802 1.395 . S
C803 H829 0.929 . S
C804 C802 1.320 . S
C804 C805 1.405 . S
C804 H830 0.930 . S
C805 C800 1.479 . S
C805 C804 1.405 . S
C805 H831 0.931 . S
U806 O807 2.454 . S
U806 O808 2.458 . S
U806 C809 2.984 . S
U806 C810 2.847 . S
U806 C823 2.882 . S
U806 O824 2.441 . S
U806 O825 2.420 . S
U806 O826 2.455 . S
U806 O827 2.449 . S
O807 U806 2.454 . S
O807 C809 1.353 . S
O808 U806 2.458 . S
O808 C809 1.286 . S
C809 U806 2.984 . S
C809 O807 1.353 . S
C809 O808 1.286 . S
C809 C811 1.363 . S
C810 C800 1.465 . S
C810 U806 2.847 . S
C810 O824 1.249 . S
C810 O825 1.202 . S
C811 C809 1.363 . S
C811 C813 1.408 . S
C811 C816 1.342 . S
C812 C813 1.310 . S
C812 C815 1.461 . S
C812 H832 0.932 1_554 S
C813 C811 1.408 . S
C813 C812 1.310 . S
C813 H833 0.930 . S
C814 C815 1.474 . S
C814 C816 1.285 . S
C814 H834 0.929 . S
C815 C812 1.461 . S
C815 C814 1.474 . S
C816 C811 1.342 . S
C816 C814 1.285 . S
C816 H835 0.930 . S
C817 C820 1.424 . S
C817 C822 1.245 . S
C817 C823 1.428 . S
C818 C821 1.260 . S
C818 C822 1.477 . S
C818 H836 0.932 . S
C819 C820 1.384 . S
C819 C821 1.479 . S
C819 H837 0.929 . S
C820 C817 1.424 . S
C820 C819 1.384 . S
C820 H838 0.928 . S
C821 C818 1.260 . S
C821 C819 1.479 . S
C822 C817 1.245 . S
C822 C818 1.477 . S
C822 H839 0.932 . S
C823 U806 2.882 . S
C823 C817 1.428 . S
C823 O826 1.301 . S
C823 O827 1.282 . S
O824 U806 2.441 . S
O824 C810 1.249 . S
O825 U806 2.420 . S
O825 C810 1.202 . S
O826 U806 2.455 . S
O826 C823 1.301 . S
O827 U806 2.449 . S
O827 C823 1.282 . S
H828 C801 0.931 . S
H829 C803 0.929 . S
H830 C804 0.930 . S
H831 C805 0.931 . S
H832 C812 0.932 1_556 S
H833 C813 0.930 . S
H834 C814 0.929 . S
H835 C816 0.930 . S
H836 C818 0.932 . S
H837 C819 0.929 . S
H838 C820 0.928 . S
H839 C822 0.932 . S
C840 C841 1.264 . S
C840 C845 1.479 . S
C840 C850 1.465 . S
C841 C840 1.264 . S
C841 C843 1.339 . S
C841 H868 0.931 . S
C842 C843 1.395 . S
C842 C844 1.320 . S
C843 C841 1.339 . S
C843 C842 1.395 . S
C843 H869 0.929 . S
C844 C842 1.320 . S
C844 C845 1.405 . S
C844 H870 0.930 . S
C845 C840 1.479 . S
C845 C844 1.405 . S
C845 H871 0.931 . S
U846 O847 2.454 . S
U846 O848 2.458 . S
U846 C849 2.984 . S
U846 C850 2.847 . S
U846 C863 2.882 1_554 S
U846 O864 2.441 . S
U846 O865 2.420 . S
U846 O866 2.455 . S
U846 O867 2.449 . S
O847 U846 2.454 . S
O847 C849 1.353 . S
O848 U846 2.458 . S
O848 C849 1.286 . S
C849 U846 2.984 . S
C849 O847 1.353 . S
C849 O848 1.286 . S
C849 C851 1.363 . S
C850 C840 1.465 . S
C850 U846 2.847 . S
C850 O864 1.249 . S
C850 O865 1.202 . S
C851 C849 1.363 . S
C851 C853 1.408 . S
C851 C856 1.342 . S
C852 C853 1.310 . S
C852 C855 1.461 . S
C852 H872 0.932 . S
C853 C851 1.408 . S
C853 C852 1.310 . S
C853 H873 0.930 . S
C854 C855 1.474 . S
C854 C856 1.285 . S
C854 H874 0.929 . S
C855 C852 1.461 . S
C855 C854 1.474 . S
C856 C851 1.342 . S
C856 C854 1.285 . S
C856 H875 0.930 . S
C857 C860 1.424 . S
C857 C862 1.245 . S
C857 C863 1.428 . S
C858 C861 1.260 . S
C858 C862 1.477 . S
C858 H876 0.932 . S
C859 C860 1.384 . S
C859 C861 1.479 . S
C859 H877 0.929 . S
C860 C857 1.424 . S
C860 C859 1.384 . S
C860 H878 0.928 . S
C861 C858 1.260 . S
C861 C859 1.479 . S
C862 C857 1.245 . S
C862 C858 1.477 . S
C862 H879 0.932 . S
C863 U846 2.882 1_556 S
C863 C857 1.428 . S
C863 O866 1.301 1_556 S
C863 O867 1.282 1_556 S
O864 U846 2.441 . S
O864 C850 1.249 . S
O865 U846 2.420 . S
O865 C850 1.202 . S
O866 U846 2.455 . S
O866 C863 1.301 1_554 S
O867 U846 2.449 . S
O867 C863 1.282 1_554 S
H868 C841 0.931 . S
H869 C843 0.929 . S
H870 C844 0.930 . S
H871 C845 0.931 . S
H872 C852 0.932 . S
H873 C853 0.930 . S
H874 C854 0.929 . S
H875 C856 0.930 . S
H876 C858 0.932 . S
H877 C859 0.929 . S
H878 C860 0.928 . S
H879 C862 0.932 . S
C880 C881 1.264 . S
C880 C885 1.479 . S
C880 C890 1.465 . S
C881 C880 1.264 . S
C881 C883 1.339 . S
C881 H908 0.931 . S
C882 C883 1.395 . S
C882 C884 1.320 . S
C883 C881 1.339 . S
C883 C882 1.395 . S
C883 H909 0.929 . S
C884 C882 1.320 . S
C884 C885 1.405 . S
C884 H910 0.930 . S
C885 C880 1.479 . S
C885 C884 1.405 . S
C885 H911 0.931 . S
U886 O887 2.454 . S
U886 O888 2.458 . S
U886 C889 2.984 . S
U886 C890 2.847 . S
U886 C903 2.882 1_554 S
U886 O904 2.441 . S
U886 O905 2.420 . S
U886 O906 2.455 . S
U886 O907 2.449 . S
O887 U886 2.454 . S
O887 C889 1.353 . S
O888 U886 2.458 . S
O888 C889 1.286 . S
C889 U886 2.984 . S
C889 O887 1.353 . S
C889 O888 1.286 . S
C889 C891 1.363 . S
C890 C880 1.465 . S
C890 U886 2.847 . S
C890 O904 1.249 . S
C890 O905 1.202 . S
C891 C889 1.363 . S
C891 C893 1.408 . S
C891 C896 1.342 . S
C892 C893 1.310 . S
C892 C895 1.461 . S
C892 H912 0.932 . S
C893 C891 1.408 . S
C893 C892 1.310 . S
C893 H913 0.930 . S
C894 C895 1.474 . S
C894 C896 1.285 . S
C894 H914 0.929 . S
C895 C892 1.461 . S
C895 C894 1.474 . S
C896 C891 1.342 . S
C896 C894 1.285 . S
C896 H915 0.930 . S
C897 C900 1.424 . S
C897 C902 1.245 . S
C897 C903 1.428 . S
C898 C901 1.260 . S
C898 C902 1.477 . S
C898 H916 0.932 . S
C899 C900 1.384 . S
C899 C901 1.479 . S
C899 H917 0.929 . S
C900 C897 1.424 . S
C900 C899 1.384 . S
C900 H918 0.928 . S
C901 C898 1.260 . S
C901 C899 1.479 . S
C902 C897 1.245 . S
C902 C898 1.477 . S
C902 H919 0.932 . S
C903 U886 2.882 1_556 S
C903 C897 1.428 . S
C903 O906 1.301 1_556 S
C903 O907 1.282 1_556 S
O904 U886 2.441 . S
O904 C890 1.249 . S
O905 U886 2.420 . S
O905 C890 1.202 . S
O906 U886 2.455 . S
O906 C903 1.301 1_554 S
O907 U886 2.449 . S
O907 C903 1.282 1_554 S
H908 C881 0.931 . S
H909 C883 0.929 . S
H910 C884 0.930 . S
H911 C885 0.931 . S
H912 C892 0.932 . S
H913 C893 0.930 . S
H914 C894 0.929 . S
H915 C896 0.930 . S
H916 C898 0.932 . S
H917 C899 0.929 . S
H918 C900 0.928 . S
H919 C902 0.932 . S
C920 C921 1.264 . S
C920 C925 1.479 . S
C920 C930 1.465 . S
C921 C920 1.264 . S
C921 C923 1.339 . S
C921 H948 0.931 . S
C922 C923 1.395 . S
C922 C924 1.320 . S
C923 C921 1.339 . S
C923 C922 1.395 . S
C923 H949 0.929 . S
C924 C922 1.320 . S
C924 C925 1.405 . S
C924 H950 0.930 . S
C925 C920 1.479 . S
C925 C924 1.405 . S
C925 H951 0.931 . S
U926 O927 2.454 . S
U926 O928 2.458 . S
U926 C929 2.984 . S
U926 C930 2.847 . S
U926 C943 2.882 1_554 S
U926 O944 2.441 . S
U926 O945 2.420 . S
U926 O946 2.455 . S
U926 O947 2.449 . S
O927 U926 2.454 . S
O927 C929 1.353 . S
O928 U926 2.458 . S
O928 C929 1.286 . S
C929 U926 2.984 . S
C929 O927 1.353 . S
C929 O928 1.286 . S
C929 C931 1.363 . S
C930 C920 1.465 . S
C930 U926 2.847 . S
C930 O944 1.249 . S
C930 O945 1.202 . S
C931 C929 1.363 . S
C931 C933 1.408 . S
C931 C936 1.342 . S
C932 C933 1.310 . S
C932 C935 1.461 . S
C932 H952 0.932 . S
C933 C931 1.408 . S
C933 C932 1.310 . S
C933 H953 0.930 . S
C934 C935 1.474 . S
C934 C936 1.285 . S
C934 H954 0.929 . S
C935 C932 1.461 . S
C935 C934 1.474 . S
C936 C931 1.342 . S
C936 C934 1.285 . S
C936 H955 0.930 . S
C937 C940 1.424 . S
C937 C942 1.245 . S
C937 C943 1.428 . S
C938 C941 1.260 . S
C938 C942 1.477 . S
C938 H956 0.932 . S
C939 C940 1.384 . S
C939 C941 1.479 . S
C939 H957 0.929 . S
C940 C937 1.424 . S
C940 C939 1.384 . S
C940 H958 0.928 . S
C941 C938 1.260 . S
C941 C939 1.479 . S
C942 C937 1.245 . S
C942 C938 1.477 . S
C942 H959 0.932 . S
C943 U926 2.882 1_556 S
C943 C937 1.428 . S
C943 O946 1.301 1_556 S
C943 O947 1.282 1_556 S
O944 U926 2.441 . S
O944 C930 1.249 . S
O945 U926 2.420 . S
O945 C930 1.202 . S
O946 U926 2.455 . S
O946 C943 1.301 1_554 S
O947 U926 2.449 . S
O947 C943 1.282 1_554 S
H948 C921 0.931 . S
H949 C923 0.929 . S
H950 C924 0.930 . S
H951 C925 0.931 . S
H952 C932 0.932 . S
H953 C933 0.930 . S
H954 C934 0.929 . S
H955 C936 0.930 . S
H956 C938 0.932 . S
H957 C939 0.929 . S
H958 C940 0.928 . S
H959 C942 0.932 . S
C960 C961 1.264 . S
C960 C965 1.479 . S
C960 C970 1.465 . S
C961 C960 1.264 . S
C961 C963 1.339 . S
C961 H988 0.931 . S
C962 C963 1.395 . S
C962 C964 1.320 . S
C963 C961 1.339 . S
C963 C962 1.395 . S
C963 H989 0.929 . S
C964 C962 1.320 . S
C964 C965 1.405 . S
C964 H990 0.930 . S
C965 C960 1.479 . S
C965 C964 1.405 . S
C965 H991 0.931 . S
U966 O967 2.454 . S
U966 O968 2.458 . S
U966 C969 2.984 . S
U966 C970 2.847 . S
U966 C983 2.882 . S
U966 O984 2.441 . S
U966 O985 2.420 . S
U966 O986 2.455 . S
U966 O987 2.449 . S
O967 U966 2.454 . S
O967 C969 1.353 . S
O968 U966 2.458 . S
O968 C969 1.286 . S
C969 U966 2.984 . S
C969 O967 1.353 . S
C969 O968 1.286 . S
C969 C971 1.363 . S
C970 C960 1.465 . S
C970 U966 2.847 . S
C970 O984 1.249 . S
C970 O985 1.202 . S
C971 C969 1.363 . S
C971 C973 1.408 . S
C971 C976 1.342 . S
C972 C973 1.310 . S
C972 C975 1.461 . S
C972 H992 0.932 1_556 S
C973 C971 1.408 . S
C973 C972 1.310 . S
C973 H993 0.930 . S
C974 C975 1.474 . S
C974 C976 1.285 . S
C974 H994 0.929 . S
C975 C972 1.461 . S
C975 C974 1.474 . S
C976 C971 1.342 . S
C976 C974 1.285 . S
C976 H995 0.930 . S
C977 C980 1.424 . S
C977 C982 1.245 . S
C977 C983 1.428 . S
C978 C981 1.260 . S
C978 C982 1.477 . S
C978 H996 0.932 1_565 S
C979 C980 1.384 . S
C979 C981 1.479 . S
C979 H997 0.929 . S
C980 C977 1.424 . S
C980 C979 1.384 . S
C980 H998 0.928 . S
C981 C978 1.260 . S
C981 C979 1.479 . S
C982 C977 1.245 . S
C982 C978 1.477 . S
C982 H999 0.932 . S
C983 U966 2.882 . S
C983 C977 1.428 . S
C983 O986 1.301 . S
C983 O987 1.282 . S
O984 U966 2.441 . S
O984 C970 1.249 . S
O985 U966 2.420 . S
O985 C970 1.202 . S
O986 U966 2.455 . S
O986 C983 1.301 . S
O987 U966 2.449 . S
O987 C983 1.282 . S
H988 C961 0.931 . S
H989 C963 0.929 . S
H990 C964 0.930 . S
H991 C965 0.931 . S
H992 C972 0.932 1_554 S
H993 C973 0.930 . S
H994 C974 0.929 . S
H995 C976 0.930 . S
H996 C978 0.932 1_545 S
H997 C979 0.929 . S
H998 C980 0.928 . S
H999 C982 0.932 . S
C1000 C1001 1.264 . S
C1000 C1005 1.479 . S
C1000 C1010 1.465 . S
C1001 C1000 1.264 . S
C1001 C1003 1.339 . S
C1001 H1028 0.931 . S
C1002 C1003 1.395 . S
C1002 C1004 1.320 . S
C1003 C1001 1.339 . S
C1003 C1002 1.395 . S
C1003 H1029 0.929 . S
C1004 C1002 1.320 . S
C1004 C1005 1.405 . S
C1004 H1030 0.930 . S
C1005 C1000 1.479 . S
C1005 C1004 1.405 . S
C1005 H1031 0.931 . S
U1006 O1007 2.454 . S
U1006 O1008 2.458 . S
U1006 C1009 2.984 . S
U1006 C1010 2.847 . S
U1006 C1023 2.882 . S
U1006 O1024 2.441 . S
U1006 O1025 2.420 . S
U1006 O1026 2.455 . S
U1006 O1027 2.449 . S
O1007 U1006 2.454 . S
O1007 C1009 1.353 . S
O1008 U1006 2.458 . S
O1008 C1009 1.286 . S
C1009 U1006 2.984 . S
C1009 O1007 1.353 . S
C1009 O1008 1.286 . S
C1009 C1011 1.363 . S
C1010 C1000 1.465 . S
C1010 U1006 2.847 . S
C1010 O1024 1.249 . S
C1010 O1025 1.202 . S
C1011 C1009 1.363 . S
C1011 C1013 1.408 . S
C1011 C1016 1.342 . S
C1012 C1013 1.310 . S
C1012 C1015 1.461 . S
C1012 H1032 0.932 1_556 S
C1013 C1011 1.408 . S
C1013 C1012 1.310 . S
C1013 H1033 0.930 . S
C1014 C1015 1.474 . S
C1014 C1016 1.285 . S
C1014 H1034 0.929 . S
C1015 C1012 1.461 . S
C1015 C1014 1.474 . S
C1016 C1011 1.342 . S
C1016 C1014 1.285 . S
C1016 H1035 0.930 . S
C1017 C1020 1.424 . S
C1017 C1022 1.245 . S
C1017 C1023 1.428 . S
C1018 C1021 1.260 . S
C1018 C1022 1.477 . S
C1018 H1036 0.932 1_455 S
C1019 C1020 1.384 . S
C1019 C1021 1.479 . S
C1019 H1037 0.929 . S
C1020 C1017 1.424 . S
C1020 C1019 1.384 . S
C1020 H1038 0.928 . S
C1021 C1018 1.260 . S
C1021 C1019 1.479 . S
C1022 C1017 1.245 . S
C1022 C1018 1.477 . S
C1022 H1039 0.932 . S
C1023 U1006 2.882 . S
C1023 C1017 1.428 . S
C1023 O1026 1.301 . S
C1023 O1027 1.282 . S
O1024 U1006 2.441 . S
O1024 C1010 1.249 . S
O1025 U1006 2.420 . S
O1025 C1010 1.202 . S
O1026 U1006 2.455 . S
O1026 C1023 1.301 . S
O1027 U1006 2.449 . S
O1027 C1023 1.282 . S
H1028 C1001 0.931 . S
H1029 C1003 0.929 . S
H1030 C1004 0.930 . S
H1031 C1005 0.931 . S
H1032 C1012 0.932 1_554 S
H1033 C1013 0.930 . S
H1034 C1014 0.929 . S
H1035 C1016 0.930 . S
H1036 C1018 0.932 1_655 S
H1037 C1019 0.929 . S
H1038 C1020 0.928 . S
H1039 C1022 0.932 . S
C1040 C1041 1.264 . S
C1040 C1045 1.479 . S
C1040 C1050 1.465 . S
C1041 C1040 1.264 . S
C1041 C1043 1.339 . S
C1041 H1068 0.931 . S
C1042 C1043 1.395 . S
C1042 C1044 1.320 . S
C1043 C1041 1.339 . S
C1043 C1042 1.395 . S
C1043 H1069 0.929 . S
C1044 C1042 1.320 . S
C1044 C1045 1.405 . S
C1044 H1070 0.930 . S
C1045 C1040 1.479 . S
C1045 C1044 1.405 . S
C1045 H1071 0.931 . S
U1046 O1047 2.454 . S
U1046 O1048 2.458 . S
U1046 C1049 2.984 . S
U1046 C1050 2.847 . S
U1046 C1063 2.882 . S
U1046 O1064 2.441 . S
U1046 O1065 2.420 . S
U1046 O1066 2.455 . S
U1046 O1067 2.449 . S
O1047 U1046 2.454 . S
O1047 C1049 1.353 . S
O1048 U1046 2.458 . S
O1048 C1049 1.286 . S
C1049 U1046 2.984 . S
C1049 O1047 1.353 . S
C1049 O1048 1.286 . S
C1049 C1051 1.363 . S
C1050 C1040 1.465 . S
C1050 U1046 2.847 . S
C1050 O1064 1.249 . S
C1050 O1065 1.202 . S
C1051 C1049 1.363 . S
C1051 C1053 1.408 . S
C1051 C1056 1.342 . S
C1052 C1053 1.310 . S
C1052 C1055 1.461 . S
C1052 H1072 0.932 1_556 S
C1053 C1051 1.408 . S
C1053 C1052 1.310 . S
C1053 H1073 0.930 . S
C1054 C1055 1.474 . S
C1054 C1056 1.285 . S
C1054 H1074 0.929 . S
C1055 C1052 1.461 . S
C1055 C1054 1.474 . S
C1056 C1051 1.342 . S
C1056 C1054 1.285 . S
C1056 H1075 0.930 . S
C1057 C1060 1.424 . S
C1057 C1062 1.245 . S
C1057 C1063 1.428 . S
C1058 C1061 1.260 . S
C1058 C1062 1.477 . S
C1058 H1076 0.932 . S
C1059 C1060 1.384 . S
C1059 C1061 1.479 . S
C1059 H1077 0.929 . S
C1060 C1057 1.424 . S
C1060 C1059 1.384 . S
C1060 H1078 0.928 . S
C1061 C1058 1.260 . S
C1061 C1059 1.479 . S
C1062 C1057 1.245 . S
C1062 C1058 1.477 . S
C1062 H1079 0.932 . S
C1063 U1046 2.882 . S
C1063 C1057 1.428 . S
C1063 O1066 1.301 . S
C1063 O1067 1.282 . S
O1064 U1046 2.441 . S
O1064 C1050 1.249 . S
O1065 U1046 2.420 . S
O1065 C1050 1.202 . S
O1066 U1046 2.455 . S
O1066 C1063 1.301 . S
O1067 U1046 2.449 . S
O1067 C1063 1.282 . S
H1068 C1041 0.931 . S
H1069 C1043 0.929 . S
H1070 C1044 0.930 . S
H1071 C1045 0.931 . S
H1072 C1052 0.932 1_554 S
H1073 C1053 0.930 . S
H1074 C1054 0.929 . S
H1075 C1056 0.930 . S
H1076 C1058 0.932 . S
H1077 C1059 0.929 . S
H1078 C1060 0.928 . S
H1079 C1062 0.932 . S
C1080 C1081 1.264 . S
C1080 C1085 1.479 . S
C1080 C1090 1.465 . S
C1081 C1080 1.264 . S
C1081 C1083 1.339 . S
C1081 H1108 0.931 . S
C1082 C1083 1.395 . S
C1082 C1084 1.320 . S
C1083 C1081 1.339 . S
C1083 C1082 1.395 . S
C1083 H1109 0.929 . S
C1084 C1082 1.320 . S
C1084 C1085 1.405 . S
C1084 H1110 0.930 . S
C1085 C1080 1.479 . S
C1085 C1084 1.405 . S
C1085 H1111 0.931 . S
U1086 O1087 2.454 . S
U1086 O1088 2.458 . S
U1086 C1089 2.984 . S
U1086 C1090 2.847 . S
U1086 C1103 2.882 . S
U1086 O1104 2.441 . S
U1086 O1105 2.420 . S
U1086 O1106 2.455 . S
U1086 O1107 2.449 . S
O1087 U1086 2.454 . S
O1087 C1089 1.353 . S
O1088 U1086 2.458 . S
O1088 C1089 1.286 . S
C1089 U1086 2.984 . S
C1089 O1087 1.353 . S
C1089 O1088 1.286 . S
C1089 C1091 1.363 . S
C1090 C1080 1.465 . S
C1090 U1086 2.847 . S
C1090 O1104 1.249 . S
C1090 O1105 1.202 . S
C1091 C1089 1.363 . S
C1091 C1093 1.408 . S
C1091 C1096 1.342 . S
C1092 C1093 1.310 . S
C1092 C1095 1.461 . S
C1092 H1112 0.932 . S
C1093 C1091 1.408 . S
C1093 C1092 1.310 . S
C1093 H1113 0.930 . S
C1094 C1095 1.474 . S
C1094 C1096 1.285 . S
C1094 H1114 0.929 . S
C1095 C1092 1.461 . S
C1095 C1094 1.474 . S
C1096 C1091 1.342 . S
C1096 C1094 1.285 . S
C1096 H1115 0.930 . S
C1097 C1100 1.424 . S
C1097 C1102 1.245 . S
C1097 C1103 1.428 1_554 S
C1098 C1101 1.260 . S
C1098 C1102 1.477 . S
C1098 H1116 0.932 . S
C1099 C1100 1.384 . S
C1099 C1101 1.479 . S
C1099 H1117 0.929 . S
C1100 C1097 1.424 . S
C1100 C1099 1.384 . S
C1100 H1118 0.928 . S
C1101 C1098 1.260 . S
C1101 C1099 1.479 . S
C1102 C1097 1.245 . S
C1102 C1098 1.477 . S
C1102 H1119 0.932 . S
C1103 U1086 2.882 . S
C1103 C1097 1.428 1_556 S
C1103 O1106 1.301 . S
C1103 O1107 1.282 . S
O1104 U1086 2.441 . S
O1104 C1090 1.249 . S
O1105 U1086 2.420 . S
O1105 C1090 1.202 . S
O1106 U1086 2.455 . S
O1106 C1103 1.301 . S
O1107 U1086 2.449 . S
O1107 C1103 1.282 . S
H1108 C1081 0.931 . S
H1109 C1083 0.929 . S
H1110 C1084 0.930 . S
H1111 C1085 0.931 . S
H1112 C1092 0.932 . S
H1113 C1093 0.930 . S
H1114 C1094 0.929 . S
H1115 C1096 0.930 . S
H1116 C1098 0.932 . S
H1117 C1099 0.929 . S
H1118 C1100 0.928 . S
H1119 C1102 0.932 . S
C1120 C1121 1.264 . S
C1120 C1125 1.479 . S
C1120 C1130 1.465 . S
C1121 C1120 1.264 . S
C1121 C1123 1.339 . S
C1121 H1148 0.931 . S
C1122 C1123 1.395 . S
C1122 C1124 1.320 . S
C1123 C1121 1.339 . S
C1123 C1122 1.395 . S
C1123 H1149 0.929 . S
C1124 C1122 1.320 . S
C1124 C1125 1.405 . S
C1124 H1150 0.930 . S
C1125 C1120 1.479 . S
C1125 C1124 1.405 . S
C1125 H1151 0.931 . S
U1126 O1127 2.454 . S
U1126 O1128 2.458 . S
U1126 C1129 2.984 . S
U1126 C1130 2.847 . S
U1126 C1143 2.882 . S
U1126 O1144 2.441 . S
U1126 O1145 2.420 . S
U1126 O1146 2.455 . S
U1126 O1147 2.449 . S
O1127 U1126 2.454 . S
O1127 C1129 1.353 . S
O1128 U1126 2.458 . S
O1128 C1129 1.286 . S
C1129 U1126 2.984 . S
C1129 O1127 1.353 . S
C1129 O1128 1.286 . S
C1129 C1131 1.363 . S
C1130 C1120 1.465 . S
C1130 U1126 2.847 . S
C1130 O1144 1.249 . S
C1130 O1145 1.202 . S
C1131 C1129 1.363 . S
C1131 C1133 1.408 . S
C1131 C1136 1.342 . S
C1132 C1133 1.310 . S
C1132 C1135 1.461 . S
C1132 H1152 0.932 . S
C1133 C1131 1.408 . S
C1133 C1132 1.310 . S
C1133 H1153 0.930 . S
C1134 C1135 1.474 . S
C1134 C1136 1.285 . S
C1134 H1154 0.929 . S
C1135 C1132 1.461 . S
C1135 C1134 1.474 . S
C1136 C1131 1.342 . S
C1136 C1134 1.285 . S
C1136 H1155 0.930 . S
C1137 C1140 1.424 . S
C1137 C1142 1.245 . S
C1137 C1143 1.428 1_554 S
C1138 C1141 1.260 . S
C1138 C1142 1.477 . S
C1138 H1156 0.932 . S
C1139 C1140 1.384 . S
C1139 C1141 1.479 . S
C1139 H1157 0.929 . S
C1140 C1137 1.424 . S
C1140 C1139 1.384 . S
C1140 H1158 0.928 . S
C1141 C1138 1.260 . S
C1141 C1139 1.479 . S
C1142 C1137 1.245 . S
C1142 C1138 1.477 . S
C1142 H1159 0.932 . S
C1143 U1126 2.882 . S
C1143 C1137 1.428 1_556 S
C1143 O1146 1.301 . S
C1143 O1147 1.282 . S
O1144 U1126 2.441 . S
O1144 C1130 1.249 . S
O1145 U1126 2.420 . S
O1145 C1130 1.202 . S
O1146 U1126 2.455 . S
O1146 C1143 1.301 . S
O1147 U1126 2.449 . S
O1147 C1143 1.282 . S
H1148 C1121 0.931 . S
H1149 C1123 0.929 . S
H1150 C1124 0.930 . S
H1151 C1125 0.931 . S
H1152 C1132 0.932 . S
H1153 C1133 0.930 . S
H1154 C1134 0.929 . S
H1155 C1136 0.930 . S
H1156 C1138 0.932 . S
H1157 C1139 0.929 . S
H1158 C1140 0.928 . S
H1159 C1142 0.932 . S
C1160 C1161 1.264 . S
C1160 C1165 1.479 . S
C1160 C1170 1.465 . S
C1161 C1160 1.264 . S
C1161 C1163 1.339 . S
C1161 H1188 0.931 . S
C1162 C1163 1.395 . S
C1162 C1164 1.320 . S
C1163 C1161 1.339 . S
C1163 C1162 1.395 . S
C1163 H1189 0.929 . S
C1164 C1162 1.320 . S
C1164 C1165 1.405 . S
C1164 H1190 0.930 . S
C1165 C1160 1.479 . S
C1165 C1164 1.405 . S
C1165 H1191 0.931 . S
U1166 O1167 2.454 . S
U1166 O1168 2.458 . S
U1166 C1169 2.984 . S
U1166 C1170 2.847 . S
U1166 C1183 2.882 . S
U1166 O1184 2.441 . S
U1166 O1185 2.420 . S
U1166 O1186 2.455 . S
U1166 O1187 2.449 . S
O1167 U1166 2.454 . S
O1167 C1169 1.353 . S
O1168 U1166 2.458 . S
O1168 C1169 1.286 . S
C1169 U1166 2.984 . S
C1169 O1167 1.353 . S
C1169 O1168 1.286 . S
C1169 C1171 1.363 . S
C1170 C1160 1.465 . S
C1170 U1166 2.847 . S
C1170 O1184 1.249 . S
C1170 O1185 1.202 . S
C1171 C1169 1.363 . S
C1171 C1173 1.408 . S
C1171 C1176 1.342 . S
C1172 C1173 1.310 . S
C1172 C1175 1.461 . S
C1172 H1192 0.932 . S
C1173 C1171 1.408 . S
C1173 C1172 1.310 . S
C1173 H1193 0.930 . S
C1174 C1175 1.474 . S
C1174 C1176 1.285 . S
C1174 H1194 0.929 . S
C1175 C1172 1.461 . S
C1175 C1174 1.474 . S
C1176 C1171 1.342 . S
C1176 C1174 1.285 . S
C1176 H1195 0.930 . S
C1177 C1180 1.424 . S
C1177 C1182 1.245 . S
C1177 C1183 1.428 1_554 S
C1178 C1181 1.260 . S
C1178 C1182 1.477 . S
C1178 H1196 0.932 . S
C1179 C1180 1.384 . S
C1179 C1181 1.479 . S
C1179 H1197 0.929 . S
C1180 C1177 1.424 . S
C1180 C1179 1.384 . S
C1180 H1198 0.928 . S
C1181 C1178 1.260 . S
C1181 C1179 1.479 . S
C1182 C1177 1.245 . S
C1182 C1178 1.477 . S
C1182 H1199 0.932 . S
C1183 U1166 2.882 . S
C1183 C1177 1.428 1_556 S
C1183 O1186 1.301 . S
C1183 O1187 1.282 . S
O1184 U1166 2.441 . S
O1184 C1170 1.249 . S
O1185 U1166 2.420 . S
O1185 C1170 1.202 . S
O1186 U1166 2.455 . S
O1186 C1183 1.301 . S
O1187 U1166 2.449 . S
O1187 C1183 1.282 . S
H1188 C1161 0.931 . S
H1189 C1163 0.929 . S
H1190 C1164 0.930 . S
H1191 C1165 0.931 . S
H1192 C1172 0.932 . S
H1193 C1173 0.930 . S
H1194 C1174 0.929 . S
H1195 C1176 0.930 . S
H1196 C1178 0.932 . S
H1197 C1179 0.929 . S
H1198 C1180 0.928 . S
H1199 C1182 0.932 . S
C1200 C1201 1.264 . S
C1200 C1205 1.479 . S
C1200 C1210 1.465 . S
C1201 C1200 1.264 . S
C1201 C1203 1.339 . S
C1201 H1228 0.931 . S
C1202 C1203 1.395 . S
C1202 C1204 1.320 . S
C1203 C1201 1.339 . S
C1203 C1202 1.395 . S
C1203 H1229 0.929 . S
C1204 C1202 1.320 . S
C1204 C1205 1.405 . S
C1204 H1230 0.930 . S
C1205 C1200 1.479 . S
C1205 C1204 1.405 . S
C1205 H1231 0.931 . S
U1206 O1207 2.454 . S
U1206 O1208 2.458 . S
U1206 C1209 2.984 . S
U1206 C1210 2.847 . S
U1206 C1223 2.882 . S
U1206 O1224 2.441 . S
U1206 O1225 2.420 . S
U1206 O1226 2.455 . S
U1206 O1227 2.449 . S
O1207 U1206 2.454 . S
O1207 C1209 1.353 . S
O1208 U1206 2.458 . S
O1208 C1209 1.286 . S
C1209 U1206 2.984 . S
C1209 O1207 1.353 . S
C1209 O1208 1.286 . S
C1209 C1211 1.363 . S
C1210 C1200 1.465 . S
C1210 U1206 2.847 . S
C1210 O1224 1.249 . S
C1210 O1225 1.202 . S
C1211 C1209 1.363 . S
C1211 C1213 1.408 . S
C1211 C1216 1.342 . S
C1212 C1213 1.310 . S
C1212 C1215 1.461 . S
C1212 H1232 0.932 . S
C1213 C1211 1.408 . S
C1213 C1212 1.310 . S
C1213 H1233 0.930 . S
C1214 C1215 1.474 . S
C1214 C1216 1.285 . S
C1214 H1234 0.929 . S
C1215 C1212 1.461 . S
C1215 C1214 1.474 . S
C1216 C1211 1.342 . S
C1216 C1214 1.285 . S
C1216 H1235 0.930 . S
C1217 C1220 1.424 . S
C1217 C1222 1.245 . S
C1217 C1223 1.428 . S
C1218 C1221 1.260 . S
C1218 C1222 1.477 . S
C1218 H1236 0.932 . S
C1219 C1220 1.384 . S
C1219 C1221 1.479 . S
C1219 H1237 0.929 . S
C1220 C1217 1.424 . S
C1220 C1219 1.384 . S
C1220 H1238 0.928 . S
C1221 C1218 1.260 . S
C1221 C1219 1.479 . S
C1222 C1217 1.245 . S
C1222 C1218 1.477 . S
C1222 H1239 0.932 . S
C1223 U1206 2.882 . S
C1223 C1217 1.428 . S
C1223 O1226 1.301 . S
C1223 O1227 1.282 . S
O1224 U1206 2.441 . S
O1224 C1210 1.249 . S
O1225 U1206 2.420 . S
O1225 C1210 1.202 . S
O1226 U1206 2.455 . S
O1226 C1223 1.301 . S
O1227 U1206 2.449 . S
O1227 C1223 1.282 . S
H1228 C1201 0.931 . S
H1229 C1203 0.929 . S
H1230 C1204 0.930 . S
H1231 C1205 0.931 . S
H1232 C1212 0.932 . S
H1233 C1213 0.930 . S
H1234 C1214 0.929 . S
H1235 C1216 0.930 . S
H1236 C1218 0.932 . S
H1237 C1219 0.929 . S
H1238 C1220 0.928 . S
H1239 C1222 0.932 . S
C1240 C1241 1.264 . S
C1240 C1245 1.479 . S
C1240 C1250 1.465 . S
C1241 C1240 1.264 . S
C1241 C1243 1.339 . S
C1241 H1268 0.931 . S
C1242 C1243 1.395 . S
C1242 C1244 1.320 . S
C1243 C1241 1.339 . S
C1243 C1242 1.395 . S
C1243 H1269 0.929 . S
C1244 C1242 1.320 . S
C1244 C1245 1.405 . S
C1244 H1270 0.930 . S
C1245 C1240 1.479 . S
C1245 C1244 1.405 . S
C1245 H1271 0.931 . S
U1246 O1247 2.454 . S
U1246 O1248 2.458 . S
U1246 C1249 2.984 . S
U1246 C1250 2.847 . S
U1246 C1263 2.882 . S
U1246 O1264 2.441 . S
U1246 O1265 2.420 . S
U1246 O1266 2.455 . S
U1246 O1267 2.449 . S
O1247 U1246 2.454 . S
O1247 C1249 1.353 . S
O1248 U1246 2.458 . S
O1248 C1249 1.286 . S
C1249 U1246 2.984 . S
C1249 O1247 1.353 . S
C1249 O1248 1.286 . S
C1249 C1251 1.363 . S
C1250 C1240 1.465 . S
C1250 U1246 2.847 . S
C1250 O1264 1.249 . S
C1250 O1265 1.202 . S
C1251 C1249 1.363 . S
C1251 C1253 1.408 . S
C1251 C1256 1.342 . S
C1252 C1253 1.310 . S
C1252 C1255 1.461 . S
C1252 H1272 0.932 . S
C1253 C1251 1.408 . S
C1253 C1252 1.310 . S
C1253 H1273 0.930 . S
C1254 C1255 1.474 . S
C1254 C1256 1.285 . S
C1254 H1274 0.929 . S
C1255 C1252 1.461 . S
C1255 C1254 1.474 . S
C1256 C1251 1.342 . S
C1256 C1254 1.285 . S
C1256 H1275 0.930 . S
C1257 C1260 1.424 . S
C1257 C1262 1.245 . S
C1257 C1263 1.428 . S
C1258 C1261 1.260 . S
C1258 C1262 1.477 . S
C1258 H1276 0.932 . S
C1259 C1260 1.384 . S
C1259 C1261 1.479 . S
C1259 H1277 0.929 . S
C1260 C1257 1.424 . S
C1260 C1259 1.384 . S
C1260 H1278 0.928 . S
C1261 C1258 1.260 . S
C1261 C1259 1.479 . S
C1262 C1257 1.245 . S
C1262 C1258 1.477 . S
C1262 H1279 0.932 . S
C1263 U1246 2.882 . S
C1263 C1257 1.428 . S
C1263 O1266 1.301 . S
C1263 O1267 1.282 . S
O1264 U1246 2.441 . S
O1264 C1250 1.249 . S
O1265 U1246 2.420 . S
O1265 C1250 1.202 . S
O1266 U1246 2.455 . S
O1266 C1263 1.301 . S
O1267 U1246 2.449 . S
O1267 C1263 1.282 . S
H1268 C1241 0.931 . S
H1269 C1243 0.929 . S
H1270 C1244 0.930 . S
H1271 C1245 0.931 . S
H1272 C1252 0.932 . S
H1273 C1253 0.930 . S
H1274 C1254 0.929 . S
H1275 C1256 0.930 . S
H1276 C1258 0.932 . S
H1277 C1259 0.929 . S
H1278 C1260 0.928 . S
H1279 C1262 0.932 . S
C1280 C1281 1.264 . S
C1280 C1285 1.479 . S
C1280 C1290 1.465 . S
C1281 C1280 1.264 . S
C1281 C1283 1.339 . S
C1281 H1308 0.931 . S
C1282 C1283 1.395 . S
C1282 C1284 1.320 . S
C1283 C1281 1.339 . S
C1283 C1282 1.395 . S
C1283 H1309 0.929 . S
C1284 C1282 1.320 . S
C1284 C1285 1.405 . S
C1284 H1310 0.930 . S
C1285 C1280 1.479 . S
C1285 C1284 1.405 . S
C1285 H1311 0.931 . S
U1286 O1287 2.454 . S
U1286 O1288 2.458 . S
U1286 C1289 2.984 . S
U1286 C1290 2.847 . S
U1286 C1303 2.882 . S
U1286 O1304 2.441 . S
U1286 O1305 2.420 . S
U1286 O1306 2.455 . S
U1286 O1307 2.449 . S
O1287 U1286 2.454 . S
O1287 C1289 1.353 . S
O1288 U1286 2.458 . S
O1288 C1289 1.286 . S
C1289 U1286 2.984 . S
C1289 O1287 1.353 . S
C1289 O1288 1.286 . S
C1289 C1291 1.363 . S
C1290 C1280 1.465 . S
C1290 U1286 2.847 . S
C1290 O1304 1.249 . S
C1290 O1305 1.202 . S
C1291 C1289 1.363 . S
C1291 C1293 1.408 . S
C1291 C1296 1.342 . S
C1292 C1293 1.310 . S
C1292 C1295 1.461 . S
C1292 H1312 0.932 . S
C1293 C1291 1.408 . S
C1293 C1292 1.310 . S
C1293 H1313 0.930 . S
C1294 C1295 1.474 . S
C1294 C1296 1.285 . S
C1294 H1314 0.929 . S
C1295 C1292 1.461 . S
C1295 C1294 1.474 . S
C1296 C1291 1.342 . S
C1296 C1294 1.285 . S
C1296 H1315 0.930 . S
C1297 C1300 1.424 . S
C1297 C1302 1.245 . S
C1297 C1303 1.428 . S
C1298 C1301 1.260 . S
C1298 C1302 1.477 . S
C1298 H1316 0.932 . S
C1299 C1300 1.384 . S
C1299 C1301 1.479 . S
C1299 H1317 0.929 . S
C1300 C1297 1.424 . S
C1300 C1299 1.384 . S
C1300 H1318 0.928 . S
C1301 C1298 1.260 . S
C1301 C1299 1.479 . S
C1302 C1297 1.245 . S
C1302 C1298 1.477 . S
C1302 H1319 0.932 . S
C1303 U1286 2.882 . S
C1303 C1297 1.428 . S
C1303 O1306 1.301 . S
C1303 O1307 1.282 . S
O1304 U1286 2.441 . S
O1304 C1290 1.249 . S
O1305 U1286 2.420 . S
O1305 C1290 1.202 . S
O1306 U1286 2.455 . S
O1306 C1303 1.301 . S
O1307 U1286 2.449 . S
O1307 C1303 1.282 . S
H1308 C1281 0.931 . S
H1309 C1283 0.929 . S
H1310 C1284 0.930 . S
H1311 C1285 0.931 . S
H1312 C1292 0.932 . S
H1313 C1293 0.930 . S
H1314 C1294 0.929 . S
H1315 C1296 0.930 . S
H1316 C1298 0.932 . S
H1317 C1299 0.929 . S
H1318 C1300 0.928 . S
H1319 C1302 0.932 . S
C1320 C1321 1.264 . S
C1320 C1325 1.479 . S
C1320 C1330 1.465 . S
C1321 C1320 1.264 . S
C1321 C1323 1.339 . S
C1321 H1348 0.931 . S
C1322 C1323 1.395 . S
C1322 C1324 1.320 . S
C1323 C1321 1.339 . S
C1323 C1322 1.395 . S
C1323 H1349 0.929 . S
C1324 C1322 1.320 . S
C1324 C1325 1.405 . S
C1324 H1350 0.930 . S
C1325 C1320 1.479 . S
C1325 C1324 1.405 . S
C1325 H1351 0.931 . S
U1326 O1327 2.454 . S
U1326 O1328 2.458 . S
U1326 C1329 2.984 . S
U1326 C1330 2.847 . S
U1326 C1343 2.882 . S
U1326 O1344 2.441 . S
U1326 O1345 2.420 . S
U1326 O1346 2.455 . S
U1326 O1347 2.449 . S
O1327 U1326 2.454 . S
O1327 C1329 1.353 . S
O1328 U1326 2.458 . S
O1328 C1329 1.286 . S
C1329 U1326 2.984 . S
C1329 O1327 1.353 . S
C1329 O1328 1.286 . S
C1329 C1331 1.363 . S
C1330 C1320 1.465 . S
C1330 U1326 2.847 . S
C1330 O1344 1.249 . S
C1330 O1345 1.202 . S
C1331 C1329 1.363 . S
C1331 C1333 1.408 . S
C1331 C1336 1.342 . S
C1332 C1333 1.310 . S
C1332 C1335 1.461 . S
C1332 H1352 0.932 . S
C1333 C1331 1.408 . S
C1333 C1332 1.310 . S
C1333 H1353 0.930 . S
C1334 C1335 1.474 . S
C1334 C1336 1.285 . S
C1334 H1354 0.929 . S
C1335 C1332 1.461 . S
C1335 C1334 1.474 . S
C1336 C1331 1.342 . S
C1336 C1334 1.285 . S
C1336 H1355 0.930 . S
C1337 C1340 1.424 . S
C1337 C1342 1.245 . S
C1337 C1343 1.428 . S
C1338 C1341 1.260 . S
C1338 C1342 1.477 . S
C1338 H1356 0.932 . S
C1339 C1340 1.384 . S
C1339 C1341 1.479 . S
C1339 H1357 0.929 . S
C1340 C1337 1.424 . S
C1340 C1339 1.384 . S
C1340 H1358 0.928 . S
C1341 C1338 1.260 . S
C1341 C1339 1.479 . S
C1342 C1337 1.245 . S
C1342 C1338 1.477 . S
C1342 H1359 0.932 . S
C1343 U1326 2.882 . S
C1343 C1337 1.428 . S
C1343 O1346 1.301 . S
C1343 O1347 1.282 . S
O1344 U1326 2.441 . S
O1344 C1330 1.249 . S
O1345 U1326 2.420 . S
O1345 C1330 1.202 . S
O1346 U1326 2.455 . S
O1346 C1343 1.301 . S
O1347 U1326 2.449 . S
O1347 C1343 1.282 . S
H1348 C1321 0.931 . S
H1349 C1323 0.929 . S
H1350 C1324 0.930 . S
H1351 C1325 0.931 . S
H1352 C1332 0.932 . S
H1353 C1333 0.930 . S
H1354 C1334 0.929 . S
H1355 C1336 0.930 . S
H1356 C1338 0.932 . S
H1357 C1339 0.929 . S
H1358 C1340 0.928 . S
H1359 C1342 0.932 . S
C1360 C1361 1.264 . S
C1360 C1365 1.479 . S
C1360 C1370 1.465 . S
C1361 C1360 1.264 . S
C1361 C1363 1.339 . S
C1361 H1388 0.931 . S
C1362 C1363 1.395 . S
C1362 C1364 1.320 . S
C1363 C1361 1.339 . S
C1363 C1362 1.395 . S
C1363 H1389 0.929 . S
C1364 C1362 1.320 . S
C1364 C1365 1.405 . S
C1364 H1390 0.930 . S
C1365 C1360 1.479 . S
C1365 C1364 1.405 . S
C1365 H1391 0.931 . S
U1366 O1367 2.454 . S
U1366 O1368 2.458 . S
U1366 C1369 2.984 . S
U1366 C1370 2.847 . S
U1366 C1383 2.882 . S
U1366 O1384 2.441 . S
U1366 O1385 2.420 . S
U1366 O1386 2.455 . S
U1366 O1387 2.449 . S
O1367 U1366 2.454 . S
O1367 C1369 1.353 . S
O1368 U1366 2.458 . S
O1368 C1369 1.286 . S
C1369 U1366 2.984 . S
C1369 O1367 1.353 . S
C1369 O1368 1.286 . S
C1369 C1371 1.363 . S
C1370 C1360 1.465 . S
C1370 U1366 2.847 . S
C1370 O1384 1.249 . S
C1370 O1385 1.202 . S
C1371 C1369 1.363 . S
C1371 C1373 1.408 . S
C1371 C1376 1.342 . S
C1372 C1373 1.310 . S
C1372 C1375 1.461 . S
C1372 H1392 0.932 . S
C1373 C1371 1.408 . S
C1373 C1372 1.310 . S
C1373 H1393 0.930 . S
C1374 C1375 1.474 . S
C1374 C1376 1.285 . S
C1374 H1394 0.929 . S
C1375 C1372 1.461 . S
C1375 C1374 1.474 . S
C1376 C1371 1.342 . S
C1376 C1374 1.285 . S
C1376 H1395 0.930 . S
C1377 C1380 1.424 . S
C1377 C1382 1.245 . S
C1377 C1383 1.428 . S
C1378 C1381 1.260 . S
C1378 C1382 1.477 . S
C1378 H1396 0.932 . S
C1379 C1380 1.384 . S
C1379 C1381 1.479 . S
C1379 H1397 0.929 . S
C1380 C1377 1.424 . S
C1380 C1379 1.384 . S
C1380 H1398 0.928 . S
C1381 C1378 1.260 . S
C1381 C1379 1.479 . S
C1382 C1377 1.245 . S
C1382 C1378 1.477 . S
C1382 H1399 0.932 . S
C1383 U1366 2.882 . S
C1383 C1377 1.428 . S
C1383 O1386 1.301 . S
C1383 O1387 1.282 . S
O1384 U1366 2.441 . S
O1384 C1370 1.249 . S
O1385 U1366 2.420 . S
O1385 C1370 1.202 . S
O1386 U1366 2.455 . S
O1386 C1383 1.301 . S
O1387 U1366 2.449 . S
O1387 C1383 1.282 . S
H1388 C1361 0.931 . S
H1389 C1363 0.929 . S
H1390 C1364 0.930 . S
H1391 C1365 0.931 . S
H1392 C1372 0.932 . S
H1393 C1373 0.930 . S
H1394 C1374 0.929 . S
H1395 C1376 0.930 . S
H1396 C1378 0.932 . S
H1397 C1379 0.929 . S
H1398 C1380 0.928 . S
H1399 C1382 0.932 . S
C1400 C1401 1.264 . S
C1400 C1405 1.479 . S
C1400 C1410 1.465 . S
C1401 C1400 1.264 . S
C1401 C1403 1.339 . S
C1401 H1428 0.931 . S
C1402 C1403 1.395 . S
C1402 C1404 1.320 . S
C1403 C1401 1.339 . S
C1403 C1402 1.395 . S
C1403 H1429 0.929 . S
C1404 C1402 1.320 . S
C1404 C1405 1.405 . S
C1404 H1430 0.930 . S
C1405 C1400 1.479 . S
C1405 C1404 1.405 . S
C1405 H1431 0.931 . S
U1406 O1407 2.454 . S
U1406 O1408 2.458 . S
U1406 C1409 2.984 . S
U1406 C1410 2.847 . S
U1406 C1423 2.882 . S
U1406 O1424 2.441 . S
U1406 O1425 2.420 . S
U1406 O1426 2.455 . S
U1406 O1427 2.449 . S
O1407 U1406 2.454 . S
O1407 C1409 1.353 . S
O1408 U1406 2.458 . S
O1408 C1409 1.286 . S
C1409 U1406 2.984 . S
C1409 O1407 1.353 . S
C1409 O1408 1.286 . S
C1409 C1411 1.363 . S
C1410 C1400 1.465 . S
C1410 U1406 2.847 . S
C1410 O1424 1.249 . S
C1410 O1425 1.202 . S
C1411 C1409 1.363 . S
C1411 C1413 1.408 . S
C1411 C1416 1.342 . S
C1412 C1413 1.310 . S
C1412 C1415 1.461 . S
C1412 H1432 0.932 . S
C1413 C1411 1.408 . S
C1413 C1412 1.310 . S
C1413 H1433 0.930 . S
C1414 C1415 1.474 . S
C1414 C1416 1.285 . S
C1414 H1434 0.929 . S
C1415 C1412 1.461 . S
C1415 C1414 1.474 . S
C1416 C1411 1.342 . S
C1416 C1414 1.285 . S
C1416 H1435 0.930 . S
C1417 C1420 1.424 . S
C1417 C1422 1.245 . S
C1417 C1423 1.428 . S
C1418 C1421 1.260 . S
C1418 C1422 1.477 . S
C1418 H1436 0.932 . S
C1419 C1420 1.384 . S
C1419 C1421 1.479 . S
C1419 H1437 0.929 . S
C1420 C1417 1.424 . S
C1420 C1419 1.384 . S
C1420 H1438 0.928 . S
C1421 C1418 1.260 . S
C1421 C1419 1.479 . S
C1422 C1417 1.245 . S
C1422 C1418 1.477 . S
C1422 H1439 0.932 . S
C1423 U1406 2.882 . S
C1423 C1417 1.428 . S
C1423 O1426 1.301 . S
C1423 O1427 1.282 . S
O1424 U1406 2.441 . S
O1424 C1410 1.249 . S
O1425 U1406 2.420 . S
O1425 C1410 1.202 . S
O1426 U1406 2.455 . S
O1426 C1423 1.301 . S
O1427 U1406 2.449 . S
O1427 C1423 1.282 . S
H1428 C1401 0.931 . S
H1429 C1403 0.929 . S
H1430 C1404 0.930 . S
H1431 C1405 0.931 . S
H1432 C1412 0.932 . S
H1433 C1413 0.930 . S
H1434 C1414 0.929 . S
H1435 C1416 0.930 . S
H1436 C1418 0.932 . S
H1437 C1419 0.929 . S
H1438 C1420 0.928 . S
H1439 C1422 0.932 . S
C21 C1181 2.229 . S
C61 C1101 2.228 . S
C101 C1141 2.227 . S
C141 C541 2.229 . S
C581 C181 2.227 . S
C221 C501 2.228 . S
C261 C941 2.722 . S
C301 C861 2.721 . S
C341 C901 2.720 . S
C1261 C381 2.723 . S
C421 C1301 2.720 . S
C461 C1221 2.721 . S
C621 C1021 2.228 1_655 S
C661 C1061 2.227 . S
C701 C981 2.228 1_545 S
C1421 C741 2.722 1_565 S
C781 C1341 2.722 1_655 S
C1381 C821 2.721 . S
C2 C162 1.711 1_455 S
C202 C42 1.710 . S
C122 C82 1.711 1_545 S
C402 C242 1.824 1_455 S
C282 C442 1.823 . S
C362 C322 1.825 1_565 S
C482 C642 1.711 . S
C522 C682 1.710 . S
C602 C562 1.711 . S
C722 C882 1.824 . S
C762 C922 1.823 . S
C842 C802 1.824 . S
C962 C1122 1.711 . S
C1002 C1162 1.711 . S
C1042 C1082 1.711 . S
C1362 C1202 1.824 . S
C1242 C1402 1.823 . S
C1322 C1282 1.824 . S
C1215 C15 2.975 . S
C1255 C55 2.972 . S
C1295 C95 2.971 . S
C135 C855 2.976 . S
C895 C175 2.971 . S
C215 C935 2.973 . S
C495 C255 2.975 . S
C535 C295 2.972 . S
C575 C335 2.971 . S
C1095 C375 2.976 . S
C415 C1135 2.971 . S
C455 C1175 2.973 . S
C1335 C615 2.975 1_455 S
C1375 C655 2.972 . S
C695 C1415 2.973 1_545 S
C735 C975 2.975 1_544 S
C1015 C775 2.973 1_456 S
C815 C1055 2.971 1_554 S
