# Generated by pormake.
# Topology ukt, (4)-cn, num edge types: 1
# Building blocks:
#     Node 0, Type 0, BuildingBlock: AZAVOO_clean_sbu_0, # of connection points: 4
#     Node 1, Type 0, BuildingBlock: AZAVOO_clean_sbu_0, # of connection points: 4
#     Node 2, Type 0, BuildingBlock: AZAVOO_clean_sbu_0, # of connection points: 4
#     Node 3, Type 0, BuildingBlock: AZAVOO_clean_sbu_0, # of connection points: 4
#     Node 4, Type 0, BuildingBlock: AZAVOO_clean_sbu_0, # of connection points: 4
#     Node 5, Type 0, BuildingBlock: AZAVOO_clean_sbu_0, # of connection points: 4
#     Node 6, Type 0, BuildingBlock: AZAVOO_clean_sbu_0, # of connection points: 4
#     Node 7, Type 0, BuildingBlock: AZAVOO_clean_sbu_0, # of connection points: 4
#     Node 8, Type 0, BuildingBlock: AZAVOO_clean_sbu_0, # of connection points: 4
#     Node 9, Type 0, BuildingBlock: AZAVOO_clean_sbu_0, # of connection points: 4
#     Node 10, Type 0, BuildingBlock: AZAVOO_clean_sbu_0, # of connection points: 4
#     Node 11, Type 0, BuildingBlock: AZAVOO_clean_sbu_0, # of connection points: 4
#     Node 12, Type 0, BuildingBlock: AZAVOO_clean_sbu_0, # of connection points: 4
#     Node 13, Type 0, BuildingBlock: AZAVOO_clean_sbu_0, # of connection points: 4
#     Node 14, Type 0, BuildingBlock: AZAVOO_clean_sbu_0, # of connection points: 4
#     Node 15, Type 0, BuildingBlock: AZAVOO_clean_sbu_0, # of connection points: 4
#     Edge 16, Type (0, 0), BuildingBlock: MIFKUJ_clean_linker_0, # of connection points: 2
#     Edge 17, Type (0, 0), BuildingBlock: MIFKUJ_clean_linker_0, # of connection points: 2
#     Edge 18, Type (0, 0), BuildingBlock: MIFKUJ_clean_linker_0, # of connection points: 2
#     Edge 19, Type (0, 0), BuildingBlock: MIFKUJ_clean_linker_0, # of connection points: 2
#     Edge 20, Type (0, 0), BuildingBlock: MIFKUJ_clean_linker_0, # of connection points: 2
#     Edge 21, Type (0, 0), BuildingBlock: MIFKUJ_clean_linker_0, # of connection points: 2
#     Edge 22, Type (0, 0), BuildingBlock: MIFKUJ_clean_linker_0, # of connection points: 2
#     Edge 23, Type (0, 0), BuildingBlock: MIFKUJ_clean_linker_0, # of connection points: 2
#     Edge 24, Type (0, 0), BuildingBlock: MIFKUJ_clean_linker_0, # of connection points: 2
#     Edge 25, Type (0, 0), BuildingBlock: MIFKUJ_clean_linker_0, # of connection points: 2
#     Edge 26, Type (0, 0), BuildingBlock: MIFKUJ_clean_linker_0, # of connection points: 2
#     Edge 27, Type (0, 0), BuildingBlock: MIFKUJ_clean_linker_0, # of connection points: 2
#     Edge 28, Type (0, 0), BuildingBlock: MIFKUJ_clean_linker_0, # of connection points: 2
#     Edge 29, Type (0, 0), BuildingBlock: MIFKUJ_clean_linker_0, # of connection points: 2
#     Edge 30, Type (0, 0), BuildingBlock: MIFKUJ_clean_linker_0, # of connection points: 2
#     Edge 31, Type (0, 0), BuildingBlock: MIFKUJ_clean_linker_0, # of connection points: 2
#     Edge 32, Type (0, 0), BuildingBlock: MIFKUJ_clean_linker_0, # of connection points: 2
#     Edge 33, Type (0, 0), BuildingBlock: MIFKUJ_clean_linker_0, # of connection points: 2
#     Edge 34, Type (0, 0), BuildingBlock: MIFKUJ_clean_linker_0, # of connection points: 2
#     Edge 35, Type (0, 0), BuildingBlock: MIFKUJ_clean_linker_0, # of connection points: 2
#     Edge 36, Type (0, 0), BuildingBlock: MIFKUJ_clean_linker_0, # of connection points: 2
#     Edge 37, Type (0, 0), BuildingBlock: MIFKUJ_clean_linker_0, # of connection points: 2
#     Edge 38, Type (0, 0), BuildingBlock: MIFKUJ_clean_linker_0, # of connection points: 2
#     Edge 39, Type (0, 0), BuildingBlock: MIFKUJ_clean_linker_0, # of connection points: 2
#     Edge 40, Type (0, 0), BuildingBlock: MIFKUJ_clean_linker_0, # of connection points: 2
#     Edge 41, Type (0, 0), BuildingBlock: MIFKUJ_clean_linker_0, # of connection points: 2
#     Edge 42, Type (0, 0), BuildingBlock: MIFKUJ_clean_linker_0, # of connection points: 2
#     Edge 43, Type (0, 0), BuildingBlock: MIFKUJ_clean_linker_0, # of connection points: 2
#     Edge 44, Type (0, 0), BuildingBlock: MIFKUJ_clean_linker_0, # of connection points: 2
#     Edge 45, Type (0, 0), BuildingBlock: MIFKUJ_clean_linker_0, # of connection points: 2
#     Edge 46, Type (0, 0), BuildingBlock: MIFKUJ_clean_linker_0, # of connection points: 2
#     Edge 47, Type (0, 0), BuildingBlock: MIFKUJ_clean_linker_0, # of connection points: 2
# Relax obj value: 0.306
# Max RMSD: 0.206
# Mean RMSD: 0.197
data_MOF--net-ukt--node1-AZAVOO_clean_sbu_0--edge1-MIFKUJ_clean_linker_0
_symmetry_space_group_name_H-M    P1
_symmetry_Int_Tables_number       1
_symmetry_cell_setting            triclinic
loop_
_symmetry_equiv_pos_as_xyz
'x, y, z'
_cell_length_a     53.513503
_cell_length_b     53.412394
_cell_length_c     49.491219
_cell_angle_alpha  89.937855
_cell_angle_beta   90.064079
_cell_angle_gamma 89.823854
loop_
_atom_site_label
_atom_site_type_symbol
_atom_site_fract_x
_atom_site_fract_y
_atom_site_fract_z
_atom_type_partial_charge
Mg0 Mg 0.56188 0.13352 0.11369 0.0
O1 O 0.60096 0.12551 0.09387 0.0
O2 O 0.62175 0.16187 0.0902 0.0
Mg3 Mg 0.60472 0.18498 0.12308 0.0
C4 C 0.61909 0.13868 0.08457 0.0
C5 C 0.53072 0.08953 0.09785 0.0
O6 O 0.51476 0.10828 0.09751 0.0
O7 O 0.57385 0.12849 0.15831 0.0
O8 O 0.6061 0.14689 0.14245 0.0
O9 O 0.55215 0.14917 0.07417 0.0
O10 O 0.56788 0.17248 0.10721 0.0
C11 C 0.59225 0.14286 0.16253 0.0
C12 C 0.56202 0.17002 0.08201 0.0
O13 O 0.55234 0.09305 0.10768 0.0
Mg14 Mg 0.35836 0.55868 0.10801 0.0
O15 O 0.36547 0.59796 0.08851 0.0
O16 O 0.32852 0.6171 0.08211 0.0
Mg17 Mg 0.30515 0.59954 0.11497 0.0
C18 C 0.35204 0.61534 0.07793 0.0
C19 C 0.40303 0.53 0.09148 0.0
O20 O 0.3843 0.5143 0.08908 0.0
O21 O 0.36183 0.57111 0.1526 0.0
O22 O 0.34231 0.60278 0.13607 0.0
O23 O 0.34377 0.54837 0.06791 0.0
O24 O 0.31929 0.56261 0.10076 0.0
C25 C 0.34772 0.58986 0.15661 0.0
C26 C 0.3221 0.55621 0.07581 0.0
O27 O 0.39923 0.55075 0.10324 0.0
Mg28 Mg 0.94019 0.35135 0.09924 0.0
O29 O 0.90084 0.36218 0.08571 0.0
O30 O 0.87614 0.32853 0.08658 0.0
Mg31 Mg 0.89982 0.29614 0.10219 0.0
C32 C 0.87977 0.35171 0.08191 0.0
C33 C 0.96869 0.39724 0.08603 0.0
O34 O 0.98277 0.37863 0.07769 0.0
O35 O 0.92882 0.35072 0.14364 0.0
O36 O 0.90468 0.31663 0.14197 0.0
O37 O 0.9473 0.34079 0.05647 0.0
O38 O 0.93402 0.31452 0.08807 0.0
C39 C 0.91431 0.3349 0.15485 0.0
C40 C 0.93904 0.31892 0.06315 0.0
O41 O 0.94915 0.39236 0.09941 0.0
Mg42 Mg 0.1375 0.92949 0.10998 0.0
O43 O 0.12372 0.89122 0.09291 0.0
O44 O 0.15686 0.86528 0.09074 0.0
Mg45 Mg 0.18229 0.87974 0.12359 0.0
C46 C 0.13449 0.8713 0.08436 0.0
C47 C 0.09701 0.96446 0.08932 0.0
O48 O 0.11719 0.97785 0.08508 0.0
O49 O 0.1297 0.92134 0.15502 0.0
O50 O 0.14573 0.8858 0.14495 0.0
O51 O 0.15565 0.93537 0.07039 0.0
O52 O 0.17527 0.91713 0.10462 0.0
C53 C 0.14219 0.90246 0.16268 0.0
C54 C 0.17496 0.9234 0.07942 0.0
O55 O 0.0988 0.94419 0.10256 0.0
Mg56 Mg 0.55581 0.36258 0.39348 0.0
O57 O 0.58282 0.39566 0.40597 0.0
O58 O 0.60097 0.36112 0.39779 0.0
Mg59 Mg 0.61882 0.32471 0.39151 0.0
C60 C 0.60301 0.38332 0.40589 0.0
C61 C 0.51734 0.41046 0.38901 0.0
O62 O 0.49888 0.42152 0.37616 0.0
O63 O 0.56943 0.3588 0.34924 0.0
O64 O 0.60157 0.33119 0.35006 0.0
O65 O 0.55137 0.34905 0.43683 0.0
O66 O 0.58126 0.33563 0.41008 0.0
C67 C 0.58534 0.34446 0.33744 0.0
C68 C 0.57012 0.33411 0.43298 0.0
O69 O 0.52441 0.38898 0.38115 0.0
Mg70 Mg 0.13315 0.56386 0.37774 0.0
O71 O 0.12307 0.60175 0.39845 0.0
O72 O 0.15772 0.62535 0.40183 0.0
Mg73 Mg 0.18006 0.61162 0.36606 0.0
C74 C 0.13514 0.62036 0.40821 0.0
C75 C 0.09285 0.53072 0.39991 0.0
O76 O 0.1131 0.51697 0.40266 0.0
O77 O 0.12307 0.57661 0.33489 0.0
O78 O 0.14159 0.61029 0.34713 0.0
O79 O 0.15238 0.55409 0.4152 0.0
O80 O 0.1719 0.57332 0.38159 0.0
C81 C 0.13659 0.59507 0.32838 0.0
C82 C 0.17183 0.56587 0.40647 0.0
O83 O 0.09414 0.5511 0.3868 0.0
Mg84 Mg 0.93982 0.13698 0.39256 0.0
O85 O 0.90251 0.12045 0.40775 0.0
O86 O 0.87621 0.15304 0.41132 0.0
Mg87 Mg 0.89541 0.1893 0.40004 0.0
C88 C 0.88106 0.12972 0.41328 0.0
C89 C 0.95682 0.0763 0.38612 0.0
O90 O 0.96517 0.06002 0.36839 0.0
O91 O 0.924 0.143 0.34999 0.0
O92 O 0.89787 0.1751 0.3571 0.0
O93 O 0.95047 0.14545 0.43641 0.0
O94 O 0.93108 0.17122 0.40862 0.0
C95 C 0.9079 0.15891 0.34158 0.0
C96 C 0.93975 0.16687 0.43215 0.0
O97 O 0.95399 0.09886 0.37866 0.0
Mg98 Mg 0.3628 0.9376 0.38061 0.0
O99 O 0.39049 0.90932 0.40051 0.0
O100 O 0.37506 0.87905 0.37582 0.0
Mg101 Mg 0.33268 0.87282 0.37901 0.0
C102 C 0.38882 0.886 0.39544 0.0
C103 C 0.41114 0.9763 0.38635 0.0
O104 O 0.42296 0.99551 0.37589 0.0
O105 O 0.36875 0.92531 0.33615 0.0
O106 O 0.36185 0.88763 0.34969 0.0
O107 O 0.34503 0.94249 0.4213 0.0
O108 O 0.33284 0.91298 0.39316 0.0
C109 C 0.35911 0.90411 0.33133 0.0
C110 C 0.33085 0.92339 0.41646 0.0
O111 O 0.39146 0.96857 0.37477 0.0
Mg112 Mg 0.42411 0.87433 0.88459 0.0
O113 O 0.42465 0.84112 0.91524 0.0
O114 O 0.40519 0.85344 0.95322 0.0
Mg115 Mg 0.41408 0.89476 0.95293 0.0
C116 C 0.41427 0.83643 0.93797 0.0
C117 C 0.4329 0.85006 0.82914 0.0
O118 O 0.42147 0.87066 0.8214 0.0
O119 O 0.46287 0.88967 0.89612 0.0
O120 O 0.45058 0.87965 0.93628 0.0
O121 O 0.3833 0.86831 0.8823 0.0
O122 O 0.40067 0.89555 0.91047 0.0
C123 C 0.46558 0.89171 0.9215 0.0
C124 C 0.38104 0.88399 0.90207 0.0
O125 O 0.43896 0.84737 0.85376 0.0
Mg126 Mg 0.6212 0.41922 0.89539 0.0
O127 O 0.6551 0.42408 0.92397 0.0
O128 O 0.64097 0.41636 0.96563 0.0
Mg129 Mg 0.59947 0.40885 0.96442 0.0
C130 C 0.65868 0.42172 0.9494 0.0
C131 C 0.6425 0.42123 0.84072 0.0
O132 O 0.62757 0.40175 0.84114 0.0
O133 O 0.60536 0.45743 0.90681 0.0
O134 O 0.59296 0.44807 0.94868 0.0
O135 O 0.63038 0.37857 0.8927 0.0
O136 O 0.6049 0.39486 0.92314 0.0
C137 C 0.59553 0.46352 0.92929 0.0
C138 C 0.61703 0.37568 0.91421 0.0
O139 O 0.64328 0.43548 0.86115 0.0
Mg140 Mg 0.07275 0.61807 0.885 0.0
O141 O 0.06746 0.65716 0.90553 0.0
O142 O 0.08072 0.65431 0.94861 0.0
Mg143 Mg 0.07726 0.61315 0.9574 0.0
C144 C 0.07337 0.66707 0.92823 0.0
C145 C 0.04569 0.64216 0.82558 0.0
O146 O 0.02759 0.62987 0.81357 0.0
O147 O 0.03495 0.60172 0.89842 0.0
O148 O 0.04129 0.62229 0.93547 0.0
O149 O 0.11407 0.62629 0.88485 0.0
O150 O 0.09454 0.60602 0.91749 0.0
C151 C 0.02893 0.606 0.92279 0.0
C152 C 0.11474 0.61587 0.90851 0.0
O153 O 0.05539 0.63345 0.84695 0.0
Mg154 Mg 0.87368 0.06643 0.88704 0.0
O155 O 0.83978 0.06803 0.91678 0.0
O156 O 0.85231 0.08603 0.95556 0.0
Mg157 Mg 0.89296 0.0749 0.95612 0.0
C158 C 0.83516 0.07841 0.9396 0.0
C159 C 0.84913 0.06453 0.83256 0.0
O160 O 0.86791 0.07989 0.82864 0.0
O161 O 0.88661 0.02685 0.89888 0.0
O162 O 0.8762 0.03957 0.93859 0.0
O163 O 0.8695 0.10712 0.88361 0.0
O164 O 0.89442 0.08924 0.91397 0.0
C165 C 0.88817 0.02411 0.92426 0.0
C166 C 0.88349 0.10914 0.90482 0.0
O167 O 0.84743 0.05303 0.85493 0.0
Mg168 Mg 0.41812 0.61941 0.59499 0.0
O169 O 0.42097 0.65536 0.56933 0.0
O170 O 0.41035 0.64583 0.52682 0.0
Mg171 Mg 0.40079 0.60432 0.52516 0.0
C172 C 0.41733 0.66147 0.5447 0.0
C173 C 0.42651 0.63861 0.65162 0.0
O174 O 0.40923 0.6215 0.65513 0.0
O175 O 0.45444 0.60314 0.57743 0.0
O176 O 0.44108 0.59391 0.53572 0.0
O177 O 0.37812 0.62853 0.60286 0.0
O178 O 0.39153 0.60574 0.56834 0.0
C179 C 0.4581 0.59422 0.5538 0.0
C180 C 0.37349 0.61716 0.58038 0.0
O181 O 0.43707 0.64036 0.62873 0.0
Mg182 Mg 0.87017 0.42599 0.60039 0.0
O183 O 0.83609 0.42487 0.57053 0.0
O184 O 0.8492 0.40737 0.53168 0.0
Mg185 Mg 0.88978 0.41832 0.53145 0.0
C186 C 0.83179 0.41469 0.54749 0.0
C187 C 0.8458 0.42528 0.65404 0.0
O188 O 0.86272 0.40742 0.65481 0.0
O189 O 0.88297 0.46562 0.58925 0.0
O190 O 0.87291 0.45362 0.54919 0.0
O191 O 0.86622 0.38529 0.60362 0.0
O192 O 0.89091 0.40305 0.57321 0.0
C193 C 0.88466 0.46885 0.56397 0.0
C194 C 0.88037 0.3831 0.58261 0.0
O195 O 0.84482 0.43949 0.63349 0.0
Mg196 Mg 0.07772 0.87682 0.60307 0.0
O197 O 0.07232 0.84372 0.57424 0.0
O198 O 0.08194 0.8564 0.53244 0.0
Mg199 Mg 0.09401 0.89726 0.53434 0.0
C200 C 0.07472 0.83959 0.549 0.0
C201 C 0.07485 0.85218 0.65649 0.0
O202 O 0.09477 0.86648 0.6565 0.0
O203 O 0.04141 0.89605 0.58821 0.0
O204 O 0.0547 0.90835 0.54732 0.0
O205 O 0.11763 0.8651 0.6072 0.0
O206 O 0.104 0.89248 0.57695 0.0
C207 C 0.03792 0.90716 0.56556 0.0
C208 C 0.12202 0.87934 0.58669 0.0
O209 O 0.05972 0.8538 0.63671 0.0
Mg210 Mg 0.61883 0.07212 0.59899 0.0
O211 O 0.65072 0.072 0.56756 0.0
O212 O 0.63576 0.08849 0.52937 0.0
Mg213 Mg 0.5944 0.09733 0.53552 0.0
C214 C 0.6537 0.0792 0.54315 0.0
C215 C 0.6407 0.05656 0.65171 0.0
O216 O 0.62111 0.07015 0.65826 0.0
O217 O 0.60036 0.03781 0.57982 0.0
O218 O 0.58565 0.05576 0.54202 0.0
O219 O 0.62962 0.11088 0.6098 0.0
O220 O 0.60111 0.10128 0.57894 0.0
C221 C 0.58843 0.03679 0.55747 0.0
C222 C 0.61441 0.11791 0.59096 0.0
O223 O 0.64357 0.05022 0.62719 0.0
H224 H 0.57535 0.21841 0.09047 0.0
H225 H 0.5902 0.24853 0.05677 0.0
H226 H 0.5858 0.19183 0.995 0.0
H227 H 0.57015 0.16184 0.02838 0.0
H228 H 0.63337 0.22981 -0.00072 0.0
H229 H 0.54216 0.22168 0.98814 0.0
H230 H 0.49927 0.21999 0.00629 0.0
H231 H 0.50943 0.29171 0.04378 0.0
H232 H 0.55251 0.29363 0.02616 0.0
H233 H 0.63294 0.32967 0.89637 0.0
H234 H 0.62931 0.28946 0.92035 0.0
H235 H 0.59893 0.32804 0.98952 0.0
H236 H 0.60115 0.36711 0.9657 0.0
H237 H 0.56898 0.29246 0.97343 0.0
H238 H 0.65761 0.30257 0.98988 0.0
H239 H 0.70192 0.30701 0.97714 0.0
H240 H 0.69936 0.23647 0.93571 0.0
H241 H 0.65487 0.23184 0.94781 0.0
C242 C 0.57746 0.21246 0.06971 0.0
C243 C 0.57102 0.1881 0.06187 0.0
C244 C 0.58623 0.22949 0.05062 0.0
C245 C 0.58915 0.22219 0.02359 0.0
C246 C 0.58374 0.19761 0.01586 0.0
C247 C 0.57449 0.18071 0.03485 0.0
C248 C 0.59487 0.24119 0.00308 0.0
C249 C 0.61933 0.24336 0.99314 0.0
C250 C 0.5765 0.25883 0.99557 0.0
C251 C 0.55058 0.25767 0.00604 0.0
C252 C 0.53531 0.23696 0.00046 0.0
C253 C 0.51095 0.23599 0.01061 0.0
C254 C 0.50165 0.2557 0.02623 0.0
C255 C 0.51666 0.27645 0.0317 0.0
C256 C 0.54103 0.27749 0.02163 0.0
C257 C 0.62564 0.32948 0.91677 0.0
C258 C 0.61703 0.35169 0.92899 0.0
C259 C 0.62377 0.30657 0.93046 0.0
C260 C 0.61369 0.30584 0.95661 0.0
C261 C 0.60652 0.32817 0.96922 0.0
C262 C 0.60785 0.35071 0.95547 0.0
C263 C 0.60788 0.28208 0.97041 0.0
C264 C 0.58314 0.27878 0.97897 0.0
C265 C 0.62623 0.26398 0.97713 0.0
C266 C 0.65283 0.26698 0.96948 0.0
C267 C 0.66641 0.28814 0.97779 0.0
C268 C 0.69157 0.29067 0.97074 0.0
C269 C 0.70343 0.27207 0.95556 0.0
C270 C 0.69014 0.2509 0.94741 0.0
C271 C 0.66496 0.2483 0.95437 0.0
H272 H 0.72292 0.27405 0.95016 0.0
H273 H 0.48278 0.25493 0.03404 0.0
H274 H 0.12191 0.58867 0.9539 0.0
H275 H 0.15891 0.58595 0.9818 0.0
H276 H 0.19589 0.64018 0.93112 0.0
H277 H 0.15853 0.64245 0.90212 0.0
H278 H 0.22486 0.60096 0.93956 0.0
H279 H 0.18124 0.65574 0.00325 0.0
H280 H 0.14624 0.67044 0.03179 0.0
H281 H 0.14077 0.59767 0.06809 0.0
H282 H 0.17606 0.58278 0.04033 0.0
H283 H 0.32822 0.58421 0.03072 0.0
H284 H 0.29536 0.60049 0.00108 0.0
H285 H 0.24044 0.55837 0.04606 0.0
H286 H 0.2731 0.54415 0.07714 0.0
H287 H 0.22351 0.60094 0.03969 0.0
H288 H 0.26452 0.54441 0.97669 0.0
H289 H 0.29981 0.52787 0.94999 0.0
H290 H 0.30884 0.59947 0.91176 0.0
H291 H 0.27378 0.6165 0.93844 0.0
C292 C 0.13771 0.60036 0.94877 0.0
C293 C 0.13729 0.61578 0.92575 0.0
C294 C 0.15885 0.59899 0.96503 0.0
C295 C 0.18001 0.61334 0.95906 0.0
C296 C 0.17964 0.62913 0.93627 0.0
C297 C 0.15838 0.63034 0.91969 0.0
C298 C 0.20314 0.60938 0.97506 0.0
C299 C 0.2248 0.60149 0.96148 0.0
C300 C 0.2029 0.60945 0.00364 0.0
C301 C 0.18106 0.61813 0.01951 0.0
C302 C 0.17236 0.64286 0.01711 0.0
C303 C 0.15257 0.65124 0.03323 0.0
C304 C 0.14112 0.63494 0.05149 0.0
C305 C 0.14959 0.61027 0.05388 0.0
C306 C 0.16958 0.60191 0.03811 0.0
C307 C 0.30911 0.57827 0.03392 0.0
C308 C 0.30297 0.56292 0.05595 0.0
C309 C 0.29036 0.58744 0.01691 0.0
C310 C 0.26534 0.58045 0.021 0.0
C311 C 0.25953 0.5642 0.04251 0.0
C312 C 0.27812 0.55591 0.06014 0.0
C313 C 0.24484 0.59117 0.00428 0.0
C314 C 0.22379 0.60063 0.01777 0.0
C315 C 0.24554 0.59203 0.97565 0.0
C316 C 0.26673 0.5818 0.9598 0.0
C317 C 0.27417 0.55667 0.96275 0.0
C318 C 0.2941 0.5472 0.94759 0.0
C319 C 0.30661 0.56263 0.92926 0.0
C320 C 0.29917 0.58755 0.926 0.0
C321 C 0.27927 0.59712 0.94113 0.0
H322 H 0.32201 0.55526 0.91752 0.0
H323 H 0.12579 0.64147 0.06389 0.0
H324 H 0.85521 0.15093 0.89586 0.0
H325 H 0.85484 0.18962 0.92219 0.0
H326 H 0.91102 0.15895 0.97545 0.0
H327 H 0.91145 0.12016 0.94936 0.0
H328 H 0.87297 0.18485 0.00281 0.0
H329 H 0.92784 0.19651 0.92358 0.0
H330 H 0.93511 0.19758 0.87436 0.0
H331 H 0.87708 0.25268 0.86522 0.0
H332 H 0.86936 0.25174 0.9144 0.0
H333 H 0.94947 0.26984 0.06318 0.0
H334 H 0.93085 0.2378 0.03452 0.0
H335 H 0.88978 0.29484 0.99108 0.0
H336 H 0.9096 0.32721 0.01916 0.0
H337 H 0.90631 0.26066 0.95745 0.0
H338 H 0.85996 0.25794 0.03797 0.0
H339 H 0.85275 0.2581 0.08715 0.0
H340 H 0.89111 0.18772 0.09458 0.0
H341 H 0.89895 0.18729 0.04551 0.0
C342 C 0.86751 0.15242 0.91317 0.0
C343 C 0.88356 0.13261 0.92042 0.0
C344 C 0.86714 0.17447 0.92825 0.0
C345 C 0.88293 0.17708 0.95065 0.0
C346 C 0.89857 0.15715 0.95828 0.0
C347 C 0.89894 0.1351 0.94325 0.0
C348 C 0.88479 0.20111 0.96513 0.0
C349 C 0.88019 0.2015 0.99301 0.0
C350 C 0.89298 0.2231 0.95196 0.0
C351 C 0.89787 0.22387 0.92254 0.0
C352 C 0.91657 0.20875 0.91103 0.0
C353 C 0.92078 0.20935 0.88316 0.0
C354 C 0.90652 0.22514 0.86666 0.0
C355 C 0.88808 0.24044 0.87802 0.0
C356 C 0.8838 0.2399 0.90587 0.0
C357 C 0.93689 0.27549 0.0471 0.0
C358 C 0.93111 0.30076 0.04295 0.0
C359 C 0.92594 0.25724 0.03106 0.0
C360 C 0.90832 0.26391 0.01127 0.0
C361 C 0.90317 0.28933 0.00642 0.0
C362 C 0.91463 0.30774 0.02218 0.0
C363 C 0.89599 0.244 0.99551 0.0
C364 C 0.89835 0.24439 0.96732 0.0
C365 C 0.88534 0.22288 0.00841 0.0
C366 C 0.88008 0.22261 0.03795 0.0
C367 C 0.86693 0.24252 0.05007 0.0
C368 C 0.86274 0.24266 0.07795 0.0
C369 C 0.87146 0.22293 0.09397 0.0
C370 C 0.88433 0.20297 0.08213 0.0
C371 C 0.8886 0.20274 0.05425 0.0
H372 H 0.86825 0.2231 0.11556 0.0
H373 H 0.90979 0.22556 0.84509 0.0
H374 H 0.35138 0.84545 0.91782 0.0
H375 H 0.31569 0.84756 0.94866 0.0
H376 H 0.32271 0.92811 0.95158 0.0
H377 H 0.35958 0.92564 0.92261 0.0
H378 H 0.31559 0.9134 -0.00129 0.0
H379 H 0.27486 0.89254 0.91385 0.0
H380 H 0.26746 0.86678 0.87329 0.0
H381 H 0.24946 0.80367 0.92336 0.0
H382 H 0.25703 0.82898 0.96422 0.0
H383 H 0.1893 0.94695 0.03345 0.0
H384 H 0.22331 0.93503 0.00287 0.0
H385 H 0.2387 0.86994 0.05174 0.0
H386 H 0.20557 0.88226 0.083 0.0
H387 H 0.2341 0.87225 0.98151 0.0
H388 H 0.27785 0.89438 0.06638 0.0
H389 H 0.2825 0.92225 0.10577 0.0
H390 H 0.2929 0.98515 0.0529 0.0
H391 H 0.28772 0.95768 0.01319 0.0
C392 C 0.345 0.86357 0.92487 0.0
C393 C 0.35789 0.88543 0.91778 0.0
C394 C 0.32457 0.8648 0.9424 0.0
C395 C 0.31614 0.88805 0.95219 0.0
C396 C 0.32882 0.90993 0.94445 0.0
C397 C 0.34974 0.90858 0.92774 0.0
C398 C 0.2948 0.88982 0.97129 0.0
C399 C 0.29782 0.90442 0.9947 0.0
C400 C 0.27162 0.87769 0.96666 0.0
C401 C 0.26675 0.86259 0.94208 0.0
C402 C 0.26945 0.87314 0.9162 0.0
C403 C 0.26521 0.85862 0.89316 0.0
C404 C 0.25806 0.83359 0.89574 0.0
C405 C 0.25503 0.82305 0.92138 0.0
C406 C 0.25927 0.83748 0.94448 0.0
C407 C 0.1999 0.93006 0.03763 0.0
C408 C 0.19497 0.91568 0.06077 0.0
C409 C 0.21916 0.92324 0.02011 0.0
C410 C 0.23333 0.90165 0.02518 0.0
C411 C 0.22787 0.8867 0.04763 0.0
C412 C 0.20906 0.89387 0.06557 0.0
C413 C 0.25513 0.89603 0.00812 0.0
C414 C 0.25211 0.88084 0.98532 0.0
C415 C 0.27826 0.90768 0.01309 0.0
C416 C 0.28208 0.92406 0.03687 0.0
C417 C 0.28087 0.9142 0.06318 0.0
C418 C 0.28363 0.92991 0.08555 0.0
C419 C 0.28791 0.95548 0.08185 0.0
C420 C 0.28953 0.96536 0.05574 0.0
C421 C 0.28667 0.94973 0.0333 0.0
H422 H 0.29003 0.96761 0.09919 0.0
H423 H 0.25482 0.82237 0.87789 0.0
H424 H 0.6078 0.30015 0.428 0.0
H425 H 0.61848 0.26615 0.45808 0.0
H426 H 0.56093 0.28987 0.51344 0.0
H427 H 0.55026 0.32487 0.48319 0.0
H428 H 0.60507 0.27499 0.53925 0.0
H429 H 0.54888 0.24271 0.47216 0.0
H430 H 0.53229 0.23318 0.42683 0.0
H431 H 0.59969 0.19336 0.40732 0.0
H432 H 0.61681 0.20284 0.45248 0.0
H433 H 0.58177 0.15536 0.6008 0.0
H434 H 0.57944 0.19573 0.57706 0.0
H435 H 0.64543 0.17636 0.53151 0.0
H436 H 0.64816 0.13629 0.55585 0.0
H437 H 0.59915 0.18924 0.50119 0.0
H438 H 0.65496 0.2204 0.5683 0.0
H439 H 0.6703 0.22699 0.61473 0.0
H440 H 0.60316 0.26726 0.63432 0.0
H441 H 0.58728 0.26065 0.58803 0.0
C442 C 0.59766 0.29869 0.44671 0.0
C443 C 0.57819 0.31538 0.45315 0.0
C444 C 0.60369 0.27897 0.46384 0.0
C445 C 0.59022 0.27529 0.48768 0.0
C446 C 0.57145 0.29244 0.49495 0.0
C447 C 0.56539 0.31237 0.47771 0.0
C448 C 0.59539 0.25296 0.50433 0.0
C449 C 0.60346 0.25623 0.53107 0.0
C450 C 0.594 0.22855 0.49326 0.0
C451 C 0.58421 0.22369 0.46565 0.0
C452 C 0.5603 0.23219 0.4581 0.0
C453 C 0.55077 0.22671 0.43247 0.0
C454 C 0.56491 0.21264 0.41425 0.0
C455 C 0.58874 0.20422 0.42149 0.0
C456 C 0.59836 0.20962 0.44711 0.0
C457 C 0.5961 0.16017 0.58626 0.0
C458 C 0.61526 0.14322 0.58014 0.0
C459 C 0.59478 0.18305 0.57276 0.0
C460 C 0.61234 0.18887 0.55272 0.0
C461 C 0.63186 0.17212 0.54707 0.0
C462 C 0.63344 0.14943 0.56094 0.0
C463 C 0.60872 0.21134 0.536 0.0
C464 C 0.6009 0.20805 0.50925 0.0
C465 C 0.61035 0.23563 0.54701 0.0
C466 C 0.61984 0.23984 0.57479 0.0
C467 C 0.64337 0.23049 0.58257 0.0
C468 C 0.65219 0.23427 0.60884 0.0
C469 C 0.63768 0.24748 0.62748 0.0
C470 C 0.61436 0.25701 0.61986 0.0
C471 C 0.60546 0.25329 0.59359 0.0
H472 H 0.64453 0.25038 0.64782 0.0
H473 H 0.55732 0.20812 0.39459 0.0
H474 H 0.3283 0.6032 0.60016 0.0
H475 H 0.28896 0.60075 0.57449 0.0
H476 H 0.32516 0.63451 0.50568 0.0
H477 H 0.3642 0.6366 0.53103 0.0
H478 H 0.27498 0.64945 0.51129 0.0
H479 H 0.32635 0.57561 0.50805 0.0
H480 H 0.35078 0.54068 0.52728 0.0
H481 H 0.28502 0.51267 0.56655 0.0
H482 H 0.26027 0.54778 0.54792 0.0
H483 H 0.21392 0.59386 0.39674 0.0
H484 H 0.24401 0.60907 0.43025 0.0
H485 H 0.20269 0.57221 0.49354 0.0
H486 H 0.17263 0.55709 0.4605 0.0
H487 H 0.25263 0.56082 0.49375 0.0
H488 H 0.20053 0.63518 0.49031 0.0
H489 H 0.17901 0.67099 0.4688 0.0
H490 H 0.24874 0.69727 0.4371 0.0
H491 H 0.27078 0.66183 0.45862 0.0
C492 C 0.32754 0.61056 0.57976 0.0
C493 C 0.34917 0.61958 0.56719 0.0
C494 C 0.30519 0.60923 0.56521 0.0
C495 C 0.30436 0.61726 0.53817 0.0
C496 C 0.32549 0.62824 0.52651 0.0
C497 C 0.34782 0.62914 0.54086 0.0
C498 C 0.28301 0.61088 0.5207 0.0
C499 C 0.26997 0.63011 0.50743 0.0
C500 C 0.27676 0.58563 0.51566 0.0
C501 C 0.29155 0.56452 0.52695 0.0
C502 C 0.31716 0.56217 0.52104 0.0
C503 C 0.33105 0.54231 0.53178 0.0
C504 C 0.31948 0.52451 0.54822 0.0
C505 C 0.29397 0.52652 0.55389 0.0
C506 C 0.28 0.54641 0.54326 0.0
C507 C 0.21118 0.58912 0.4178 0.0
C508 C 0.1909 0.57427 0.42596 0.0
C509 C 0.22826 0.59798 0.43691 0.0
C510 C 0.22529 0.592 0.46435 0.0
C511 C 0.20515 0.57713 0.47247 0.0
C512 C 0.18809 0.5684 0.45349 0.0
C513 C 0.24425 0.59938 0.48443 0.0
C514 C 0.25713 0.58022 0.498 0.0
C515 C 0.25059 0.62467 0.48925 0.0
C516 C 0.23727 0.6457 0.47586 0.0
C517 C 0.21124 0.64846 0.47855 0.0
C518 C 0.19896 0.66872 0.46641 0.0
C519 C 0.21244 0.68623 0.45141 0.0
C520 C 0.23829 0.68364 0.44866 0.0
C521 C 0.25071 0.66354 0.46092 0.0
H522 H 0.20285 0.70187 0.44203 0.0
H523 H 0.33025 0.50912 0.55648 0.0
H524 H 0.90043 0.37324 0.53274 0.0
H525 H 0.90267 0.33272 0.50993 0.0
H526 H 0.86697 0.2975 0.5781 0.0
H527 H 0.86403 0.338 0.6008 0.0
H528 H 0.91357 0.27592 0.5614 0.0
H529 H 0.8346 0.29955 0.526 0.0
H530 H 0.80354 0.32724 0.50437 0.0
H531 H 0.84677 0.32769 0.43137 0.0
H532 H 0.87841 0.30041 0.4527 0.0
H533 H 0.92288 0.16022 0.48428 0.0
H534 H 0.90601 0.19357 0.51365 0.0
H535 H 0.92753 0.24903 0.45468 0.0
H536 H 0.94419 0.21621 0.42575 0.0
H537 H 0.87889 0.25544 0.47112 0.0
H538 H 0.96145 0.24317 0.51003 0.0
H539 H 0.99499 0.21798 0.53099 0.0
H540 H 0.94591 0.19823 0.59617 0.0
H541 H 0.91199 0.22316 0.57539 0.0
C542 C 0.89281 0.35697 0.54277 0.0
C543 C 0.88207 0.35883 0.56857 0.0
C544 C 0.89397 0.33388 0.52966 0.0
C545 C 0.88476 0.31228 0.54232 0.0
C546 C 0.874 0.31405 0.56801 0.0
C547 C 0.87244 0.33718 0.58093 0.0
C548 C 0.88853 0.2876 0.52966 0.0
C549 C 0.90547 0.27109 0.54198 0.0
C550 C 0.87816 0.28169 0.50419 0.0
C551 C 0.85907 0.29804 0.4911 0.0
C552 C 0.83766 0.30573 0.50542 0.0
C553 C 0.81991 0.32134 0.49319 0.0
C554 C 0.82321 0.32927 0.46654 0.0
C555 C 0.84425 0.32155 0.45203 0.0
C556 C 0.8621 0.30599 0.46419 0.0
C557 C 0.92463 0.17962 0.47816 0.0
C558 C 0.93504 0.1858 0.45302 0.0
C559 C 0.9147 0.19856 0.49464 0.0
C560 C 0.91521 0.2237 0.48605 0.0
C561 C 0.92656 0.22976 0.46146 0.0
C562 C 0.93639 0.21103 0.44517 0.0
C563 C 0.90456 0.2442 0.50254 0.0
C564 C 0.88636 0.25995 0.49091 0.0
C565 C 0.91391 0.24966 0.52853 0.0
C566 C 0.93416 0.23471 0.54103 0.0
C567 C 0.95778 0.23328 0.52872 0.0
C568 C 0.97686 0.2191 0.54058 0.0
C569 C 0.97255 0.20644 0.56485 0.0
C570 C 0.94919 0.208 0.57735 0.0
C571 C 0.93004 0.22216 0.56555 0.0
H572 H 0.98735 0.19547 0.57401 0.0
H573 H 0.80944 0.34135 0.45712 0.0
H574 H 0.13893 0.84463 0.5513 0.0
H575 H 0.17697 0.84737 0.52366 0.0
H576 H 0.19671 0.91618 0.56408 0.0
H577 H 0.15833 0.91376 0.5909 0.0
H578 H 0.19748 0.92153 0.51094 0.0
H579 H 0.2288 0.85917 0.57449 0.0
H580 H 0.22695 0.81859 0.59825 0.0
H581 H 0.22885 0.77989 0.52228 0.0
H582 H 0.23044 0.82025 0.49805 0.0
H583 H 0.31847 0.94487 0.46464 0.0
H584 H 0.28465 0.93266 0.49507 0.0
H585 H 0.2679 0.86944 0.44413 0.0
H586 H 0.3014 0.88165 0.41343 0.0
H587 H 0.26475 0.85825 0.4998 0.0
H588 H 0.2336 0.91701 0.43601 0.0
H589 H 0.23169 0.95581 0.40908 0.0
H590 H 0.22536 -0.00074 0.48171 0.0
H591 H 0.22768 0.96072 0.50913 0.0
C592 C 0.15177 0.86 0.55448 0.0
C593 C 0.14615 0.87894 0.5731 0.0
C594 C 0.17344 0.86153 0.53883 0.0
C595 C 0.18976 0.8819 0.54197 0.0
C596 C 0.18438 0.90033 0.56136 0.0
C597 C 0.16262 0.89893 0.5767 0.0
C598 C 0.21126 0.88542 0.52358 0.0
C599 C 0.21242 0.90787 0.50892 0.0
C600 C 0.23001 0.867 0.51984 0.0
C601 C 0.22956 0.84274 0.53446 0.0
C602 C 0.2287 0.84201 0.56285 0.0
C603 C 0.22772 0.81905 0.5764 0.0
C604 C 0.22773 0.79668 0.56178 0.0
C605 C 0.22884 0.79722 0.53358 0.0
C606 C 0.22982 0.82014 0.51993 0.0
C607 C 0.30785 0.92816 0.4601 0.0
C608 C 0.31257 0.91431 0.43653 0.0
C609 C 0.28852 0.92124 0.47747 0.0
C610 C 0.2737 0.90029 0.47166 0.0
C611 C 0.27918 0.88565 0.44895 0.0
C612 C 0.29833 0.89271 0.4314 0.0
C613 C 0.25142 0.89484 0.48825 0.0
C614 C 0.24992 0.87197 0.50215 0.0
C615 C 0.23202 0.91267 0.49101 0.0
C616 C 0.23118 0.93598 0.47465 0.0
C617 C 0.23215 0.93486 0.44627 0.0
C618 C 0.23091 0.9568 0.43091 0.0
C619 C 0.2285 0.98 0.44368 0.0
C620 C 0.2273 0.98129 0.47185 0.0
C621 C 0.22858 0.95939 0.48731 0.0
H622 H 0.22748 0.99696 0.43175 0.0
H623 H 0.22693 0.77892 0.5723 0.0
H624 H 0.45287 0.80489 0.94933 0.0
H625 H 0.45007 0.76416 0.97235 0.0
H626 H 0.3695 0.76923 0.96972 0.0
H627 H 0.37246 0.81036 0.94837 0.0
H628 H 0.38438 0.76102 0.01862 0.0
H629 H 0.40803 0.72648 0.93013 0.0
H630 H 0.43662 0.72107 0.89145 0.0
H631 H 0.49446 0.69536 0.945 0.0
H632 H 0.4663 0.70087 0.98401 0.0
H633 H 0.32913 0.64819 0.04396 0.0
H634 H 0.34784 0.6831 0.01983 0.0
H635 H 0.42071 0.66191 0.04948 0.0
H636 H 0.40205 0.62648 0.07383 0.0
H637 H 0.41993 0.67833 0.99378 0.0
H638 H 0.39522 0.70747 0.08079 0.0
H639 H 0.36752 0.71288 0.12016 0.0
H640 H 0.31302 0.74965 0.07012 0.0
H641 H 0.34023 0.74417 0.03037 0.0
C642 C 0.43466 0.79692 0.95333 0.0
C643 C 0.41284 0.8105 0.94735 0.0
C644 C 0.43305 0.77369 0.96634 0.0
C645 C 0.40957 0.76363 0.9728 0.0
C646 C 0.38783 0.77671 0.96517 0.0
C647 C 0.38946 0.8001 0.95292 0.0
C648 C 0.40705 0.74094 0.98985 0.0
C649 C 0.392 0.74292 0.01296 0.0
C650 C 0.4183 0.71762 0.98353 0.0
C651 C 0.43514 0.71435 0.96001 0.0
C652 C 0.4269 0.71986 0.93367 0.0
C653 C 0.44302 0.71673 0.91168 0.0
C654 C 0.46736 0.70795 0.91578 0.0
C655 C 0.47562 0.7022 0.94186 0.0
C656 C 0.45958 0.7053 0.9639 0.0
C657 C 0.34916 0.65077 0.0453 0.0
C658 C 0.36405 0.63481 0.06119 0.0
C659 C 0.35983 0.67071 0.03143 0.0
C660 C 0.38556 0.67527 0.03329 0.0
C661 C 0.40079 0.65869 0.04794 0.0
C662 C 0.39009 0.63854 0.06184 0.0
C663 C 0.39574 0.69833 0.02107 0.0
C664 C 0.41254 0.69653 -0.00061 0.0
C665 C 0.38623 0.72199 0.02866 0.0
C666 C 0.36974 0.72528 0.05256 0.0
C667 C 0.37725 0.71654 0.07813 0.0
C668 C 0.36165 0.71965 0.10053 0.0
C669 C 0.33852 0.73157 0.09764 0.0
C670 C 0.33095 0.74043 0.07234 0.0
C671 C 0.34647 0.73736 0.04988 0.0
H672 H 0.32647 0.73398 0.11501 0.0
H673 H 0.4798 0.70555 0.89874 0.0
H674 H 0.67212 0.41842 0.00226 0.0
H675 H 0.71372 0.41493 0.02097 0.0
H676 H 0.74559 0.42454 0.94161 0.0
H677 H 0.70337 0.42729 0.92222 0.0
H678 H 0.76632 0.38528 0.96764 0.0
H679 H 0.7527 0.47109 0.99008 0.0
H680 H 0.72798 0.50701 0.00652 0.0
H681 H 0.72254 0.47285 0.08485 0.0
H682 H 0.74705 0.43663 0.06884 0.0
H683 H 0.88401 0.38583 0.04155 0.0
H684 H 0.84986 0.40598 0.01639 0.0
H685 H 0.79613 0.37101 0.06905 0.0
H686 H 0.83013 0.34989 0.09353 0.0
H687 H 0.79237 0.43009 0.05088 0.0
H688 H 0.79488 0.34119 0.02421 0.0
H689 H 0.81848 0.30397 0.00926 0.0
H690 H 0.84408 0.34408 0.93938 0.0
H691 H 0.82102 0.38175 0.95432 0.0
C692 C 0.68785 0.42016 0.98864 0.0
C693 C 0.68431 0.42308 0.96065 0.0
C694 C 0.71175 0.41834 -0.00051 0.0
C695 C 0.73283 0.41989 0.9828 0.0
C696 C 0.72955 0.42346 0.95488 0.0
C697 C 0.70544 0.42513 0.94387 0.0
C698 C 0.75792 0.41577 0.99478 0.0
C699 C 0.77235 0.39559 0.98535 0.0
C700 C 0.76567 0.42894 0.01819 0.0
C701 C 0.75173 0.45114 0.02824 0.0
C702 C 0.74624 0.47124 0.01081 0.0
C703 C 0.73225 0.49165 0.02005 0.0
C704 C 0.72369 0.49221 0.04671 0.0
C705 C 0.72923 0.47242 0.06423 0.0
C706 C 0.74326 0.45199 0.05511 0.0
C707 C 0.86491 0.3828 0.04799 0.0
C708 C 0.85955 0.36632 0.06935 0.0
C709 C 0.84552 0.39427 0.03364 0.0
C710 C 0.82064 0.38989 0.04098 0.0
C711 C 0.81531 0.37457 0.06325 0.0
C712 C 0.83464 0.3625 0.07709 0.0
C713 C 0.80005 0.3994 0.02404 0.0
C714 C 0.78663 0.42046 0.03263 0.0
C715 C 0.79318 0.38707 -6e-05 0.0
C716 C 0.80657 0.36436 0.99058 0.0
C717 C 0.80577 0.34215 0.00582 0.0
C718 C 0.81901 0.32097 -0.00267 0.0
C719 C 0.83287 0.32169 0.97344 0.0
C720 C 0.83341 0.34358 0.95793 0.0
C721 C 0.82027 0.36486 0.96641 0.0
H722 H 0.84311 0.30528 0.9669 0.0
H723 H 0.71278 0.50797 0.05379 0.0
H724 H 0.09986 0.70553 0.90636 0.0
H725 H 0.1026 0.74777 0.92574 0.0
H726 H 0.04227 0.73032 0.98033 0.0
H727 H 0.03958 0.68833 0.96101 0.0
H728 H 0.04438 0.78112 0.96909 0.0
H729 H 0.09779 0.71296 0.99512 0.0
H730 H 0.12815 0.6792 0.98644 0.0
H731 H 0.18288 0.73338 0.96231 0.0
H732 H 0.15226 0.7674 0.96908 0.0
H733 H 0.08797 0.85003 0.08676 0.0
H734 H 0.07016 0.82026 0.05407 0.0
H735 H 0.13476 0.83006 0.00291 0.0
H736 H 0.15295 0.8584 0.03606 0.0
H737 H 0.12798 0.78328 0.01235 0.0
H738 H 0.07247 0.85221 0.98746 0.0
H739 H 0.04029 0.88436 0.99628 0.0
H740 H 0.98964 0.82756 0.02365 0.0
H741 H 0.0216 0.79511 0.01529 0.0
C742 C 0.08648 0.71124 0.92159 0.0
C743 C 0.0697 0.69391 0.93254 0.0
C744 C 0.08805 0.73527 0.93268 0.0
C745 C 0.07298 0.74189 0.95486 0.0
C746 C 0.05411 0.72555 0.96333 0.0
C747 C 0.05265 0.70157 0.95239 0.0
C748 C 0.08015 0.76286 0.97271 0.0
C749 C 0.06268 0.78177 0.9785 0.0
C750 C 0.10385 0.76322 0.98546 0.0
C751 C 0.12249 0.74274 0.98206 0.0
C752 C 0.11615 0.71769 0.98755 0.0
C753 C 0.13342 0.69848 0.98296 0.0
C754 C 0.15744 0.70413 0.97385 0.0
C755 C 0.16422 0.72901 0.96924 0.0
C756 C 0.14684 0.74826 0.97323 0.0
C757 C 0.09807 0.84591 0.06832 0.0
C758 C 0.1219 0.85599 0.06392 0.0
C759 C 0.08785 0.82912 0.04959 0.0
C760 C 0.10113 0.82291 0.02598 0.0
C761 C 0.12427 0.83435 0.02105 0.0
C762 C 0.13467 0.85048 0.03997 0.0
C763 C 0.09278 0.80256 0.00772 0.0
C764 C 0.10987 0.78318 0.00246 0.0
C765 C 0.06868 0.80169 0.9959 0.0
C766 C 0.04953 0.82126 0.00097 0.0
C767 C 0.05455 0.8466 0.99556 0.0
C768 C 0.03632 0.86487 0.00043 0.0
C769 C 0.01296 0.85801 0.01058 0.0
C770 C 0.00775 0.83286 0.01582 0.0
C771 C 0.0259 0.81452 0.01099 0.0
H772 H -0.00111 0.87218 0.01432 0.0
H773 H 0.17081 0.68925 0.97033 0.0
H774 H 0.66275 0.15922 0.06788 0.0
H775 H 0.69361 0.14138 0.03768 0.0
H776 H 0.64995 0.07397 0.03063 0.0
H777 H 0.61849 0.09175 0.06143 0.0
H778 H 0.7045 0.06776 0.03905 0.0
H779 H 0.64703 0.10986 0.97964 0.0
H780 H 0.61977 0.14551 0.96766 0.0
H781 H 0.68355 0.19399 0.96456 0.0
H782 H 0.71113 0.15879 0.97695 0.0
H783 H 0.79741 0.04458 0.93464 0.0
H784 H 0.75512 0.04802 0.95385 0.0
H785 H 0.77241 0.12205 0.98306 0.0
H786 H 0.81476 0.11835 0.96483 0.0
H787 H 0.72393 0.11618 0.95602 0.0
H788 H 0.77752 0.08201 0.02558 0.0
H789 H 0.80693 0.05165 0.04566 0.0
H790 H 0.7531 0.99295 0.03548 0.0
H791 H 0.7235 0.02296 0.01483 0.0
C792 C 0.65952 0.14059 0.06002 0.0
C793 C 0.63799 0.12699 0.06689 0.0
C794 C 0.67724 0.13044 0.04273 0.0
C795 C 0.67378 0.10659 0.03167 0.0
C796 C 0.65275 0.0925 0.03894 0.0
C797 C 0.63486 0.10269 0.05644 0.0
C798 C 0.69238 0.09715 0.01223 0.0
C799 C 0.70829 0.07765 0.02034 0.0
C800 C 0.69754 0.11069 0.9883 0.0
C801 C 0.68117 0.13162 0.9792 0.0
C802 C 0.65525 0.12812 0.97637 0.0
C803 C 0.63973 0.14827 0.96955 0.0
C804 C 0.64991 0.17201 0.96534 0.0
C805 C 0.67567 0.1756 0.96776 0.0
C806 C 0.69127 0.15553 0.97461 0.0
C807 C 0.79196 0.06165 0.9449 0.0
C808 C 0.80915 0.08121 0.94842 0.0
C809 C 0.76796 0.06355 0.95586 0.0
C810 C 0.76082 0.08527 0.96979 0.0
C811 C 0.77766 0.10519 0.97228 0.0
C812 C 0.80178 0.10304 0.962 0.0
C813 C 0.7363 0.08712 0.98313 0.0
C814 C 0.71945 0.10537 0.97394 0.0
C815 C 0.73055 0.0728 0.00635 0.0
C816 C 0.74851 0.0546 0.0181 0.0
C817 C 0.77211 0.06255 0.02717 0.0
C818 C 0.78878 0.04543 0.03877 0.0
C819 C 0.78195 0.02035 0.0417 0.0
C820 C 0.75841 0.01236 0.03307 0.0
C821 C 0.74169 0.02941 0.02138 0.0
H822 H 0.79484 0.00713 0.05077 0.0
H823 H 0.63784 0.18761 0.96023 0.0
H824 H 0.45603 0.69086 0.52782 0.0
H825 H 0.45262 0.73339 0.50879 0.0
H826 H 0.3734 0.73338 0.52505 0.0
H827 H 0.37687 0.6911 0.54397 0.0
H828 H 0.38458 0.74292 0.47204 0.0
H829 H 0.40925 0.77192 0.55931 0.0
H830 H 0.43553 0.77523 0.60007 0.0
H831 H 0.49697 0.80095 0.55181 0.0
H832 H 0.47114 0.79745 0.51067 0.0
H833 H 0.35396 0.86267 0.42542 0.0
H834 H 0.36025 0.8276 0.4565 0.0
H835 H 0.43999 0.83263 0.44459 0.0
H836 H 0.4336 0.86836 0.41383 0.0
H837 H 0.42925 0.82098 0.49634 0.0
H838 H 0.4042 0.79085 0.40879 0.0
H839 H 0.37752 0.78712 0.36834 0.0
H840 H 0.3163 0.76265 0.41765 0.0
H841 H 0.3425 0.7666 0.45846 0.0
C842 C 0.4381 0.70033 0.52789 0.0
C843 C 0.41671 0.68805 0.53736 0.0
C844 C 0.43614 0.72453 0.51709 0.0
C845 C 0.41275 0.73653 0.51556 0.0
C846 C 0.39161 0.72448 0.52607 0.0
C847 C 0.39359 0.70044 0.5369 0.0
C848 C 0.40968 0.76027 0.50036 0.0
C849 C 0.39406 0.76011 0.4776 0.0
C850 C 0.42262 0.78243 0.50721 0.0
C851 C 0.43834 0.78411 0.53185 0.0
C852 C 0.42846 0.77798 0.55733 0.0
C853 C 0.44325 0.77997 0.58052 0.0
C854 C 0.46793 0.78821 0.57852 0.0
C855 C 0.47786 0.79451 0.55332 0.0
C856 C 0.46315 0.79254 0.53006 0.0
C857 C 0.37283 0.8565 0.42983 0.0
C858 C 0.39334 0.86792 0.41725 0.0
C859 C 0.37642 0.83642 0.44744 0.0
C860 C 0.40055 0.82707 0.45234 0.0
C861 C 0.4212 0.83943 0.44095 0.0
C862 C 0.4176 0.85979 0.42347 0.0
C863 C 0.404 0.80364 0.46812 0.0
C864 C 0.41975 0.8038 0.49085 0.0
C865 C 0.39115 0.78136 0.46127 0.0
C866 C 0.37526 0.7793 0.43674 0.0
C867 C 0.38498 0.78492 0.41105 0.0
C868 C 0.36995 0.78272 0.38804 0.0
C869 C 0.34521 0.77472 0.39043 0.0
C870 C 0.33545 0.76889 0.41583 0.0
C871 C 0.35039 0.7711 0.43891 0.0
H872 H 0.33362 0.77299 0.3726 0.0
H873 H 0.47935 0.78978 0.59651 0.0
H874 H 0.79396 0.44862 0.55344 0.0
H875 H 0.75386 0.44869 0.52939 0.0
H876 H 0.77166 0.37639 0.49528 0.0
H877 H 0.81205 0.37693 0.51818 0.0
H878 H 0.7579 0.40571 0.45731 0.0
H879 H 0.72576 0.38619 0.5449 0.0
H880 H 0.71942 0.39218 0.59356 0.0
H881 H 0.68312 0.4627 0.5784 0.0
H882 H 0.68978 0.45726 0.52939 0.0
H883 H 0.64637 0.35746 0.40922 0.0
H884 H 0.68412 0.36873 0.43279 0.0
H885 H 0.65244 0.44086 0.45242 0.0
H886 H 0.61329 0.42889 0.42971 0.0
H887 H 0.67344 0.42029 0.49541 0.0
H888 H 0.70199 0.43236 0.40357 0.0
H889 H 0.70866 0.42052 0.35593 0.0
H890 H 0.75125 0.35631 0.38101 0.0
H891 H 0.74462 0.36756 0.42873 0.0
C892 C 0.78898 0.43257 0.54121 0.0
C893 C 0.80601 0.41283 0.53745 0.0
C894 C 0.76611 0.43261 0.52748 0.0
C895 C 0.75976 0.4126 0.51039 0.0
C896 C 0.77625 0.39221 0.50803 0.0
C897 C 0.79925 0.39243 0.52123 0.0
C898 C 0.73685 0.41336 0.49345 0.0
C899 C 0.7394 0.40872 0.4657 0.0
C900 C 0.71281 0.41815 0.50418 0.0
C901 C 0.7086 0.42149 0.53354 0.0
C902 C 0.71664 0.40309 0.55195 0.0
C903 C 0.71293 0.40639 0.57963 0.0
C904 C 0.70091 0.42789 0.58919 0.0
C905 C 0.69249 0.44609 0.571 0.0
C906 C 0.69625 0.44292 0.54325 0.0
C907 C 0.64732 0.37586 0.41822 0.0
C908 C 0.62677 0.39229 0.41753 0.0
C909 C 0.66919 0.38242 0.43151 0.0
C910 C 0.67148 0.40591 0.44381 0.0
C911 C 0.65118 0.42271 0.44277 0.0
C912 C 0.62891 0.41594 0.42972 0.0
C913 C 0.69443 0.41165 0.45944 0.0
C914 C 0.69196 0.41774 0.48691 0.0
C915 C 0.71859 0.40744 0.4486 0.0
C916 C 0.72274 0.40083 0.41977 0.0
C917 C 0.71269 0.41567 0.39893 0.0
C918 C 0.71648 0.40905 0.3719 0.0
C919 C 0.73036 0.38767 0.36545 0.0
C920 C 0.74053 0.37288 0.38601 0.0
C921 C 0.73681 0.37941 0.41305 0.0
H922 H 0.73324 0.38258 0.34452 0.0
H923 H 0.69806 0.43043 0.61066 0.0
H924 H 0.09131 0.64462 0.39963 0.0
H925 H 0.07368 0.67855 0.42726 0.0
H926 H 0.13258 0.66819 0.48582 0.0
H927 H 0.15069 0.63482 0.45775 0.0
H928 H 0.08023 0.67836 0.50702 0.0
H929 H 0.14508 0.70881 0.44728 0.0
H930 H 0.16584 0.71423 0.40323 0.0
H931 H 0.09997 0.74979 0.37147 0.0
H932 H 0.07864 0.74415 0.41526 0.0
H933 H 0.09021 0.79648 0.57291 0.0
H934 H 0.09288 0.75515 0.55208 0.0
H935 H 0.05429 0.7834 0.48158 0.0
H936 H 0.05329 0.82518 0.50173 0.0
H937 H 0.09312 0.76208 0.46597 0.0
H938 H 0.02974 0.73605 0.52893 0.0
H939 H 0.00991 0.73018 0.57345 0.0
H940 H 0.07284 0.68664 0.60018 0.0
H941 H 0.09317 0.69245 0.55593 0.0
C942 C 0.10011 0.64932 0.41868 0.0
C943 C 0.12237 0.63752 0.42665 0.0
C944 C 0.09009 0.6686 0.43438 0.0
C945 C 0.10195 0.6758 0.45844 0.0
C946 C 0.12321 0.66278 0.46732 0.0
C947 C 0.13358 0.64395 0.45129 0.0
C948 C 0.09396 0.69871 0.47264 0.0
C949 C 0.083 0.69677 0.49825 0.0
C950 C 0.09741 0.72249 0.46082 0.0
C951 C 0.11013 0.72569 0.43441 0.0
C952 C 0.1349 0.71747 0.4308 0.0
C953 C 0.1468 0.72066 0.40591 0.0
C954 C 0.13419 0.73226 0.38453 0.0
C955 C 0.10968 0.74073 0.38803 0.0
C956 C 0.09767 0.73754 0.41287 0.0
C957 C 0.08178 0.79364 0.55324 0.0
C958 C 0.07165 0.81392 0.5388 0.0
C959 C 0.08315 0.76994 0.54138 0.0
C960 C 0.07362 0.76595 0.51524 0.0
C961 C 0.06192 0.78596 0.50167 0.0
C962 C 0.06127 0.8098 0.51317 0.0
C963 C 0.07877 0.74216 0.50064 0.0
C964 C 0.08962 0.74384 0.47483 0.0
C965 C 0.0752 0.7182 0.51243 0.0
C966 C 0.06305 0.71484 0.53914 0.0
C967 C 0.03943 0.72538 0.54436 0.0
C968 C 0.02808 0.72201 0.56954 0.0
C969 C 0.04011 0.70806 0.58963 0.0
C970 C 0.06352 0.69742 0.58459 0.0
C971 C 0.07495 0.70071 0.55945 0.0
H972 H 0.0313 0.70548 0.6091 0.0
H973 H 0.14345 0.73476 0.36528 0.0
H974 H 0.66721 0.09423 0.49245 0.0
H975 H 0.70872 0.09429 0.47247 0.0
H976 H 0.73938 0.06204 0.54525 0.0
H977 H 0.69766 0.06218 0.56578 0.0
H978 H 0.76783 0.1015 0.52573 0.0
H979 H 0.73267 0.02568 0.48969 0.0
H980 H 0.7 0.00052 0.46749 0.0
H981 H 0.70512 0.04652 0.39653 0.0
H982 H 0.7376 0.07215 0.4184 0.0
H983 H 0.88356 0.09603 0.45473 0.0
H984 H 0.84766 0.0776 0.47852 0.0
H985 H 0.79778 0.1097 0.4192 0.0
H986 H 0.83336 0.12847 0.39595 0.0
H987 H 0.78272 0.06231 0.43625 0.0
H988 H 0.80872 0.14202 0.47254 0.0
H989 H 0.83992 0.17086 0.49178 0.0
H990 H 0.85029 0.12157 0.5595 0.0
H991 H 0.81939 0.0922 0.54038 0.0
C992 C 0.68266 0.08694 0.50426 0.0
C993 C 0.67896 0.07802 0.53071 0.0
C994 C 0.70644 0.08694 0.49273 0.0
C995 C 0.72713 0.07783 0.5072 0.0
C996 C 0.72365 0.06903 0.53367 0.0
C997 C 0.69977 0.06904 0.54531 0.0
C998 C 0.75231 0.07804 0.49454 0.0
C999 C 0.77132 0.09235 0.50654 0.0
C1000 C 0.7567 0.06662 0.46916 0.0
C1001 C 0.73753 0.05088 0.45574 0.0
C1002 C 0.72677 0.03048 0.46939 0.0
C1003 C 0.70828 0.01614 0.45686 0.0
C1004 C 0.70047 0.02193 0.43063 0.0
C1005 C 0.7112 0.04204 0.41683 0.0
C1006 C 0.72968 0.05645 0.42927 0.0
C1007 C 0.86497 0.09839 0.4464 0.0
C1008 C 0.86104 0.11362 0.42363 0.0
C1009 C 0.84452 0.08802 0.46003 0.0
C1010 C 0.82007 0.0925 0.45071 0.0
C1011 C 0.81647 0.10599 0.42669 0.0
C1012 C 0.83675 0.11672 0.41345 0.0
C1013 C 0.79797 0.08597 0.46725 0.0
C1014 C 0.77949 0.07069 0.4559 0.0
C1015 C 0.7939 0.09689 0.49294 0.0
C1016 C 0.81198 0.11477 0.50488 0.0
C1017 C 0.81777 0.13725 0.49145 0.0
C1018 C 0.83539 0.1537 0.50233 0.0
C1019 C 0.84714 0.14801 0.52681 0.0
C1020 C 0.8412 0.12591 0.54051 0.0
C1021 C 0.82363 0.10936 0.52966 0.0
H1022 H 0.8608 0.16075 0.53518 0.0
H1023 H 0.68613 0.01082 0.42098 0.0
H1024 H 0.43914 0.93016 0.94193 0.0
H1025 H 0.45494 0.96514 0.96798 0.0
H1026 H 0.53065 0.94208 0.95051 0.0
H1027 H 0.51447 0.9056 0.9256 0.0
H1028 H 0.5252 0.951 0.00258 0.0
H1029 H 0.50404 0.99684 0.92272 0.0
H1030 H 0.47681 0.00866 0.88452 0.0
H1031 H 0.42154 0.03642 0.9398 0.0
H1032 H 0.44826 0.02447 0.97835 0.0
H1033 H 0.56541 0.05875 0.07506 0.0
H1034 H 0.55829 0.02707 0.04056 0.0
H1035 H 0.47869 0.03906 0.04681 0.0
H1036 H 0.4858 0.07171 0.08059 0.0
H1037 H 0.49212 0.03766 0.99573 0.0
H1038 H 0.50917 0.98644 0.07441 0.0
H1039 H 0.53447 0.97345 0.11373 0.0
H1040 H 0.59573 0.95516 0.06129 0.0
H1041 H 0.57087 0.96833 0.02168 0.0
C1042 C 0.45913 0.93258 0.94356 0.0
C1043 C 0.47565 0.91515 0.93219 0.0
C1044 C 0.46819 0.95283 0.95811 0.0
C1045 C 0.49401 0.95649 0.9609 0.0
C1046 C 0.51065 0.93964 0.94848 0.0
C1047 C 0.50148 0.91901 0.93414 0.0
C1048 C 0.50313 0.97671 0.97879 0.0
C1049 C 0.51849 0.97011 0.0007 0.0
C1050 C 0.49386 0.0015 0.97668 0.0
C1051 C 0.47819 0.00972 0.95346 0.0
C1052 C 0.48608 0.00546 0.92675 0.0
C1053 C 0.47071 0.01216 0.90502 0.0
C1054 C 0.44746 0.02328 0.90973 0.0
C1055 C 0.43958 0.02785 0.93618 0.0
C1056 C 0.45486 0.02118 0.95798 0.0
C1057 C 0.54634 0.05431 0.06951 0.0
C1058 C 0.5261 0.06753 0.08069 0.0
C1059 C 0.54232 0.03623 0.04969 0.0
C1060 C 0.51795 0.03055 0.04124 0.0
C1061 C 0.49766 0.04323 0.05297 0.0
C1062 C 0.50171 0.06167 0.07243 0.0
C1063 C 0.51358 0.01172 0.01983 0.0
C1064 C 0.49919 0.01865 -0.00271 0.0
C1065 C 0.52358 0.98721 0.02142 0.0
C1066 C 0.53824 0.97855 0.04513 0.0
C1067 C 0.52806 0.97971 0.07129 0.0
C1068 C 0.54232 0.97233 0.09362 0.0
C1069 C 0.56671 0.96354 0.09001 0.0
C1070 C 0.57684 0.96199 0.06405 0.0
C1071 C 0.56266 0.96937 0.04165 0.0
H1072 H 0.57774 0.95789 0.10733 0.0
H1073 H 0.43556 0.02837 0.89289 0.0
H1074 H 0.41622 0.48868 0.06251 0.0
H1075 H 0.45006 0.48524 0.02958 0.0
H1076 H 0.47385 0.56022 0.04874 0.0
H1077 H 0.44006 0.56394 0.08172 0.0
H1078 H 0.46978 0.54845 0.99047 0.0
H1079 H 0.50677 0.51604 0.07492 0.0
H1080 H 0.50458 0.48792 0.11445 0.0
H1081 H 0.50003 0.42419 0.06188 0.0
H1082 H 0.50202 0.45199 0.02204 0.0
H1083 H 0.60653 0.50036 0.96445 0.0
H1084 H 0.57358 0.52298 0.98828 0.0
H1085 H 0.52031 0.49948 0.92803 0.0
H1086 H 0.55343 0.47762 0.90378 0.0
H1087 H 0.5386 0.48763 0.00617 0.0
H1088 H 0.47448 0.52712 0.93109 0.0
H1089 H 0.47499 0.55177 0.8888 0.0
H1090 H 0.53286 0.59857 0.92117 0.0
H1091 H 0.53292 0.57386 0.96342 0.0
C1092 C 0.42882 0.50434 0.05997 0.0
C1093 C 0.42554 0.52655 0.07477 0.0
C1094 C 0.44796 0.50241 0.041 0.0
C1095 C 0.46413 0.52261 0.03662 0.0
C1096 C 0.46127 0.5446 0.05169 0.0
C1097 C 0.44219 0.54653 0.07076 0.0
C1098 C 0.48489 0.52029 0.01728 0.0
C1099 C 0.48496 0.53533 0.99397 0.0
C1100 C 0.50434 0.50287 0.02167 0.0
C1101 C 0.50454 0.48607 0.04556 0.0
C1102 C 0.50536 0.49602 0.07183 0.0
C1103 C 0.50412 0.48015 0.09427 0.0
C1104 C 0.50217 0.45429 0.09068 0.0
C1105 C 0.5016 0.44423 0.06463 0.0
C1106 C 0.50286 0.46002 0.04211 0.0
C1107 C 0.5882 0.50172 0.95522 0.0
C1108 C 0.58234 0.48727 0.93247 0.0
C1109 C 0.5693 0.51433 0.96904 0.0
C1110 C 0.54448 0.5125 0.96016 0.0
C1111 C 0.53937 0.50135 0.9351 0.0
C1112 C 0.55839 0.48901 0.92108 0.0
C1113 C 0.52406 0.51641 0.97973 0.0
C1114 C 0.52374 0.50117 0.00288 0.0
C1115 C 0.50429 0.53333 0.97499 0.0
C1116 C 0.50357 0.54886 0.95032 0.0
C1117 C 0.48712 0.54283 0.9292 0.0
C1118 C 0.48744 0.55667 0.90521 0.0
C1119 C 0.50391 0.57676 0.90233 0.0
C1120 C 0.52013 0.583 0.92341 0.0
C1121 C 0.52007 0.56904 0.94733 0.0
H1122 H 0.50413 0.58746 0.88374 0.0
H1123 H 0.50109 0.44204 0.10807 0.0
H1124 H 0.00375 0.56451 0.90432 0.0
H1125 H 0.98777 0.52982 0.93202 0.0
H1126 H 0.00942 0.56905 0.00437 0.0
H1127 H 0.02457 0.60384 0.97737 0.0
H1128 H 0.03001 0.51526 0.99194 0.0
H1129 H 0.95626 0.56837 0.00295 0.0
H1130 H 0.92176 0.59378 0.98428 0.0
H1131 H 0.89417 0.52969 0.9414 0.0
H1132 H 0.92876 0.50398 0.95959 0.0
H1133 H 0.99231 0.44027 0.10052 0.0
H1134 H -0.00297 0.47798 0.07238 0.0
H1135 H 0.95244 0.44373 0.00982 0.0
H1136 H 0.9475 0.40636 0.03807 0.0
H1137 H 0.94223 0.49401 0.01467 0.0
H1138 H 0.01318 0.44004 0.00432 0.0
H1139 H 0.04807 0.41365 0.02033 0.0
H1140 H 0.08176 0.4775 0.05823 0.0
H1141 H 0.04686 0.50423 0.04269 0.0
C1142 C 0.00461 0.56592 0.92613 0.0
C1143 C 0.01568 0.58676 0.93862 0.0
C1144 C 0.99555 0.54615 0.94185 0.0
C1145 C -0.00228 0.54702 0.97007 0.0
C1146 C 0.00774 0.56817 0.98256 0.0
C1147 C 0.01633 0.58802 0.96703 0.0
C1148 C 0.99128 0.52526 0.98678 0.0
C1149 C 0.01086 0.51067 -0.00287 0.0
C1150 C 0.96629 0.51914 0.99281 0.0
C1151 C 0.9452 0.53435 0.98238 0.0
C1152 C 0.94294 0.55976 0.98938 0.0
C1153 C 0.92335 0.5742 0.97893 0.0
C1154 C 0.90582 0.56338 0.9616 0.0
C1155 C 0.90778 0.53805 0.9548 0.0
C1156 C 0.92735 0.52353 0.9652 0.0
C1157 C 0.98327 0.44115 0.08095 0.0
C1158 C 0.96968 0.42076 0.07116 0.0
C1159 C 0.98594 0.46252 0.06493 0.0
C1160 C 0.97525 0.46343 0.03896 0.0
C1161 C 0.96072 0.44338 0.02981 0.0
C1162 C 0.95803 0.42211 0.04581 0.0
C1163 C 0.98105 0.48425 0.02044 0.0
C1164 C 0.9614 0.49854 0.00953 0.0
C1165 C 0.00604 0.48996 0.01358 0.0
C1166 C 0.02731 0.47408 0.02255 0.0
C1167 C 0.02796 0.44842 0.01619 0.0
C1168 C 0.04774 0.43341 0.02516 0.0
C1169 C 0.06709 0.44388 0.04034 0.0
C1170 C 0.06674 0.46941 0.04649 0.0
C1171 C 0.04698 0.48451 0.03757 0.0
H1172 H 0.08238 0.43222 0.0473 0.0
H1173 H 0.89069 0.5746 0.95349 0.0
H1174 H 0.08167 0.00919 0.0684 0.0
H1175 H 0.04588 0.01649 0.03833 0.0
H1176 H 0.02642 0.93834 0.04326 0.0
H1177 H 0.06159 0.93098 0.07387 0.0
H1178 H 0.02954 0.96233 0.9874 0.0
H1179 H 0.99093 0.96831 0.07487 0.0
H1180 H 0.98821 0.98315 0.12192 0.0
H1181 H 0.98381 0.05921 0.09407 0.0
H1182 H 0.98692 0.04481 0.04679 0.0
H1183 H 0.8996 0.97669 0.93995 0.0
H1184 H 0.93675 0.96375 0.96602 0.0
H1185 H 0.96574 0.03886 0.96067 0.0
H1186 H 0.92928 0.05152 0.93393 0.0
H1187 H 0.95699 0.01364 0.01684 0.0
H1188 H -0.00176 0.00779 0.92981 0.0
H1189 H 0.00095 0.99318 0.88265 0.0
H1190 H -0.00047 0.9168 0.90976 0.0
H1191 H 0.99654 0.93101 0.95713 0.0
C1192 C 0.06954 0.99368 0.06335 0.0
C1193 C 0.07419 0.96962 0.07367 0.0
C1194 C 0.04929 -0.00218 0.0461 0.0
C1195 C 0.0338 0.97786 0.03858 0.0
C1196 C 0.03834 0.95386 0.04884 0.0
C1197 C 0.05822 0.94981 0.06654 0.0
C1198 C 0.01245 0.98231 0.02045 0.0
C1199 C 0.0135 0.97324 0.99387 0.0
C1200 C 0.9918 0.99675 0.029 0.0
C1201 C 0.98941 0.0055 0.05732 0.0
C1202 C 0.98959 0.98822 0.07878 0.0
C1203 C 0.98794 0.99654 0.10549 0.0
C1204 C 0.98591 0.02212 0.11099 0.0
C1205 C 0.98542 0.0394 0.08977 0.0
C1206 C 0.98709 0.03117 0.06301 0.0
C1207 C 0.91433 0.9901 0.94374 0.0
C1208 C 0.91187 0.01498 0.93512 0.0
C1209 C 0.93533 0.98281 0.95866 0.0
C1210 C 0.95369 0.00049 0.96527 0.0
C1211 C 0.95162 0.02508 0.95574 0.0
C1212 C 0.93093 0.03224 0.94052 0.0
C1213 C 0.97419 0.9939 0.98373 0.0
C1214 C 0.97295 0.00257 0.01041 0.0
C1215 C 0.99459 0.9791 0.97527 0.0
C1216 C -0.0031 0.97045 0.94694 0.0
C1217 C -0.00169 0.98788 0.92569 0.0
C1218 C -5e-05 0.97968 0.89894 0.0
C1219 C 0.00033 0.95407 0.8932 0.0
C1220 C -0.0008 0.93663 0.91424 0.0
C1221 C -0.00242 0.94474 0.94104 0.0
H1222 H 0.00155 0.94776 0.87247 0.0
H1223 H 0.98465 0.02853 0.13168 0.0
H1224 H 0.49061 0.60201 0.51283 0.0
H1225 H 0.51608 0.56938 0.49181 0.0
H1226 H 0.49911 0.5194 0.55777 0.0
H1227 H 0.4747 0.5526 0.57952 0.0
H1228 H 0.5426 0.5052 0.53393 0.0
H1229 H 0.45947 0.52381 0.50662 0.0
H1230 H 0.42368 0.54929 0.49124 0.0
H1231 H 0.46272 0.56728 0.41804 0.0
H1232 H 0.49899 0.54232 0.43324 0.0
H1233 H 0.514 0.39933 0.44253 0.0
H1234 H 0.51938 0.4298 0.47926 0.0
H1235 H 0.55089 0.48238 0.42269 0.0
H1236 H 0.54508 0.45225 0.38611 0.0
H1237 H 0.50226 0.49356 0.44456 0.0
H1238 H 0.58451 0.46684 0.47395 0.0
H1239 H 0.6152 0.43645 0.49166 0.0
H1240 H 0.57107 0.42685 0.5633 0.0
H1241 H 0.5399 0.45688 0.54586 0.0
C1242 C 0.49358 0.58457 0.52358 0.0
C1243 C 0.48079 0.57974 0.54773 0.0
C1244 C 0.50792 0.56582 0.51147 0.0
C1245 C 0.50879 0.54168 0.52279 0.0
C1246 C 0.49859 0.53781 0.54858 0.0
C1247 C 0.48472 0.55684 0.56107 0.0
C1248 C 0.51573 0.51995 0.50557 0.0
C1249 C 0.53381 0.50259 0.51438 0.0
C1250 C 0.50379 0.51615 0.48034 0.0
C1251 C 0.48211 0.53148 0.47126 0.0
C1252 C 0.46055 0.53343 0.48738 0.0
C1253 C 0.44016 0.54775 0.47868 0.0
C1254 C 0.44096 0.55996 0.45372 0.0
C1255 C 0.46216 0.55788 0.43741 0.0
C1256 C 0.48266 0.54367 0.44607 0.0
C1257 C 0.52329 0.4169 0.43834 0.0
C1258 C 0.52915 0.42362 0.41166 0.0
C1259 C 0.52636 0.43428 0.4593 0.0
C1260 C 0.53544 0.45838 0.45363 0.0
C1261 C 0.54396 0.46386 0.42748 0.0
C1262 C 0.54066 0.44667 0.4066 0.0
C1263 C 0.52999 0.47942 0.47221 0.0
C1264 C 0.51153 0.49641 0.46383 0.0
C1265 C 0.54095 0.48212 0.49806 0.0
C1266 C 0.55971 0.46398 0.50845 0.0
C1267 C 0.58118 0.45806 0.49334 0.0
C1268 C 0.59872 0.44094 0.50337 0.0
C1269 C 0.59506 0.42969 0.52855 0.0
C1270 C 0.57388 0.43556 0.54379 0.0
C1271 C 0.55629 0.45266 0.53385 0.0
H1272 H 0.60867 0.41646 0.53629 0.0
H1273 H 0.42513 0.57098 0.44698 0.0
H1274 H 0.08098 0.48671 0.42453 0.0
H1275 H 0.04628 0.47905 0.45561 0.0
H1276 H 0.02096 0.55518 0.44512 0.0
H1277 H 0.05538 0.56297 0.41372 0.0
H1278 H 0.02328 0.53671 0.50152 0.0
H1279 H 0.98956 0.51706 0.41401 0.0
H1280 H 0.99077 0.49703 0.36918 0.0
H1281 H 0.99357 0.4245 0.4066 0.0
H1282 H 0.99277 0.44417 0.45172 0.0
H1283 H 0.89569 0.51629 0.54823 0.0
H1284 H 0.93337 0.52951 0.52351 0.0
H1285 H 0.96353 0.45477 0.53062 0.0
H1286 H 0.92636 0.44179 0.55575 0.0
H1287 H 0.95843 0.47472 0.47615 0.0
H1288 H 0.99207 0.49413 0.5636 0.0
H1289 H 0.99139 0.5139 0.60857 0.0
H1290 H 0.98853 0.58665 0.57169 0.0
H1291 H 0.98884 0.56726 0.52642 0.0
C1292 C 0.06788 0.50174 0.42864 0.0
C1293 C 0.07069 0.52533 0.41649 0.0
C1294 C 0.04824 0.4974 0.4465 0.0
C1295 C 0.03129 0.51664 0.45266 0.0
C1296 C 0.03403 0.54022 0.44067 0.0
C1297 C 0.05347 0.54448 0.4225 0.0
C1298 C 0.00998 0.51161 0.47063 0.0
C1299 C 0.00887 0.52345 0.49591 0.0
C1300 C 0.99154 0.49404 0.46328 0.0
C1301 C 0.99132 0.48209 0.43623 0.0
C1302 C 0.99059 0.49685 0.41268 0.0
C1303 C 0.99118 0.48556 0.38722 0.0
C1304 C 0.9923 0.45951 0.38504 0.0
C1305 C 0.99272 0.44469 0.40833 0.0
C1306 C 0.99217 0.45589 0.43386 0.0
C1307 C 0.91076 0.50301 0.54508 0.0
C1308 C 0.90843 0.47814 0.55369 0.0
C1309 C 0.9321 0.51049 0.53099 0.0
C1310 C 0.951 0.493 0.52524 0.0
C1311 C 0.94904 0.46842 0.53487 0.0
C1312 C 0.92794 0.46108 0.54919 0.0
C1313 C 0.97179 0.49962 0.50719 0.0
C1314 C 0.97275 0.48808 0.48178 0.0
C1315 C 0.99 0.51746 0.51448 0.0
C1316 C 0.99019 0.52923 0.54162 0.0
C1317 C 0.99108 0.51434 0.56507 0.0
C1318 C 0.99081 0.52547 0.59061 0.0
C1319 C 0.98984 0.55151 0.59299 0.0
C1320 C 0.98925 0.56647 0.56981 0.0
C1321 C 0.9895 0.55542 0.5442 0.0
H1322 H 0.9896 0.5601 0.61279 0.0
H1323 H 0.9928 0.4508 0.36531 0.0
H1324 H -0.00173 0.8966 0.5333 0.0
H1325 H 0.97238 0.92824 0.51078 0.0
H1326 H 0.0054 0.98553 0.56074 0.0
H1327 H 0.02983 0.95363 0.58438 0.0
H1328 H 0.96343 0.00219 0.54663 0.0
H1329 H 0.03082 0.9653 0.49826 0.0
H1330 H 0.0569 0.93308 0.47632 0.0
H1331 H 0.99633 0.9146 0.42306 0.0
H1332 H 0.96972 0.94639 0.44503 0.0
H1333 H 0.97783 0.0913 0.43367 0.0
H1334 H 0.98026 0.06522 0.4746 0.0
H1335 H 0.92687 0.0141 0.44003 0.0
H1336 H 0.92475 0.03979 0.39926 0.0
H1337 H 0.97654 0.99555 0.44776 0.0
H1338 H 0.91283 0.04206 0.49636 0.0
H1339 H 0.89515 0.08049 0.5163 0.0
H1340 H 0.95954 0.08769 0.56753 0.0
H1341 H 0.97785 0.04958 0.54753 0.0
C1342 C -0.00123 0.91574 0.5405 0.0
C1343 C 0.01571 0.92272 0.56077 0.0
C1344 C 0.98438 0.93393 0.52728 0.0
C1345 C 0.98763 0.95948 0.53329 0.0
C1346 C 0.00261 0.96605 0.5555 0.0
C1347 C 0.01645 0.94777 0.56921 0.0
C1348 C 0.9783 0.97929 0.5145 0.0
C1349 C 0.96633 0.0007 0.52501 0.0
C1350 C 0.98245 0.97778 0.48622 0.0
C1351 C -0.00188 0.95795 0.47363 0.0
C1352 C 0.02294 0.95413 0.48212 0.0
C1353 C 0.03785 0.93598 0.46963 0.0
C1354 C 0.02824 0.92173 0.44839 0.0
C1355 C 0.00371 0.92558 0.4396 0.0
C1356 C 0.98869 0.94363 0.4521 0.0
C1357 C 0.96566 0.07522 0.43553 0.0
C1358 C 0.95109 0.06742 0.4135 0.0
C1359 C 0.96712 0.06029 0.45883 0.0
C1360 C 0.95385 0.03764 0.46021 0.0
C1361 C 0.93722 0.03149 0.43936 0.0
C1362 C 0.93594 0.04621 0.41614 0.0
C1363 C 0.96115 0.01792 0.47981 0.0
C1364 C 0.97317 0.9967 0.46935 0.0
C1365 C 0.95807 0.02027 0.50803 0.0
C1366 C 0.94681 0.04302 0.52026 0.0
C1367 C 0.92334 0.05194 0.5117 0.0
C1368 C 0.91318 0.07367 0.52305 0.0
C1369 C 0.92623 0.08655 0.54313 0.0
C1370 C 0.94945 0.0777 0.55196 0.0
C1371 C 0.95971 0.05603 0.54064 0.0
H1372 H 0.91834 0.10336 0.55189 0.0
H1373 H 0.03985 0.90776 0.43867 0.0
H1374 H 0.54472 0.02288 0.57947 0.0
H1375 H 0.51289 -0.00208 0.55681 0.0
H1376 H 0.56669 0.97665 0.49598 0.0
H1377 H 0.59804 0.00307 0.51789 0.0
H1378 H 0.52992 -0.00127 0.47362 0.0
H1379 H 0.53371 0.93271 0.54033 0.0
H1380 H 0.53406 0.91638 0.58697 0.0
H1381 H 0.46115 0.94765 0.60064 0.0
H1382 H 0.46046 0.96436 0.55417 0.0
H1383 H 0.44888 0.94299 0.38807 0.0
H1384 H 0.47766 0.93808 0.42612 0.0
H1385 H 0.42762 0.9806 0.47669 0.0
H1386 H 0.39871 0.98542 0.4385 0.0
H1387 H 0.4619 0.94312 0.50552 0.0
H1388 H 0.46098 0.01547 0.44662 0.0
H1389 H 0.45895 0.03654 0.4023 0.0
H1390 H 0.5254 -0.00215 0.37712 0.0
H1391 H 0.52756 0.97624 0.42123 0.0
C1392 C 0.55 0.01185 0.56201 0.0
C1393 C 0.57378 0.01457 0.55051 0.0
C1394 C 0.53178 0.99753 0.54901 0.0
C1395 C 0.53727 0.98527 0.52459 0.0
C1396 C 0.56193 0.98595 0.51473 0.0
C1397 C 0.57994 0.0008 0.52737 0.0
C1398 C 0.51671 0.97616 0.50685 0.0
C1399 C 0.51556 0.98594 0.48053 0.0
C1400 C 0.49703 0.96061 0.51613 0.0
C1401 C 0.49708 0.94985 0.54378 0.0
C1402 C 0.51778 0.93614 0.5533 0.0
C1403 C 0.51803 0.92682 0.57971 0.0
C1404 C 0.49765 0.931 0.59677 0.0
C1405 C 0.47691 0.94439 0.5874 0.0
C1406 C 0.47655 0.95373 0.561 0.0
C1407 C 0.44336 0.94995 0.40774 0.0
C1408 C 0.42165 0.96443 0.41055 0.0
C1409 C 0.45982 0.9472 0.42946 0.0
C1410 C 0.45488 0.95922 0.45411 0.0
C1411 C 0.43167 0.97102 0.45791 0.0
C1412 C 0.41516 0.97376 0.43611 0.0
C1413 C 0.47599 0.96508 0.47242 0.0
C1414 C 0.47687 0.95521 0.4987 0.0
C1415 C 0.49535 0.981 0.4635 0.0
C1416 C 0.49422 0.99398 0.43702 0.0
C1417 C 0.475 0.01127 0.43151 0.0
C1418 C 0.47386 0.02335 0.40648 0.0
C1419 C 0.49198 0.01845 0.38686 0.0
C1420 C 0.51133 0.00155 0.3923 0.0
C1421 C 0.51253 0.98938 0.41731 0.0
H1422 H 0.49107 0.02783 0.36748 0.0
H1423 H 0.49793 0.92384 0.61723 0.0
H1424 H 0.54237 0.3269 0.31715 0.0
H1425 H 0.54065 0.29542 0.28146 0.0
H1426 H 0.61666 0.31225 0.2594 0.0
H1427 H 0.61899 0.34274 0.29632 0.0
H1428 H 0.57042 0.29464 0.21564 0.0
H1429 H 0.62705 0.27557 0.29037 0.0
H1430 H 0.64023 0.2728 0.33799 0.0
H1431 H 0.57648 0.22717 0.35587 0.0
H1432 H 0.56235 0.23056 0.30857 0.0
H1433 H 0.62651 0.17846 0.17346 0.0
H1434 H 0.62026 0.21725 0.19842 0.0
H1435 H 0.54649 0.19317 0.22144 0.0
H1436 H 0.55208 0.15439 0.19536 0.0
H1437 H 0.5893 0.21489 0.2633 0.0
H1438 H 0.538 0.22985 0.1835 0.0
H1439 H 0.52944 0.23204 0.13459 0.0
H1440 H 0.58991 0.28381 0.12442 0.0
H1441 H 0.59918 0.28153 0.1732 0.0
C1442 C 0.55824 0.32492 0.30372 0.0
C1443 C 0.58085 0.33708 0.30941 0.0
C1444 C 0.55731 0.30674 0.28356 0.0
C1445 C 0.57872 0.30128 0.26841 0.0
C1446 C 0.60007 0.31617 0.27121 0.0
C1447 C 0.60131 0.33375 0.29203 0.0
C1448 C 0.5801 0.27749 0.25359 0.0
C1449 C 0.57467 0.2772 0.22593 0.0
C1450 C 0.58556 0.25484 0.26727 0.0
C1451 C 0.59316 0.25408 0.29611 0.0
C1452 C 0.61539 0.26564 0.30463 0.0
C1453 C 0.62314 0.26381 0.33156 0.0
C1454 C 0.60906 0.25002 0.35006 0.0
C1455 C 0.58721 0.23808 0.34164 0.0
C1456 C 0.57925 0.24007 0.3148 0.0
C1457 C 0.60893 0.1813 0.18388 0.0
C1458 C 0.5896 0.16358 0.18201 0.0
C1459 C 0.6054 0.20351 0.19795 0.0
C1460 C 0.58272 0.20816 0.21098 0.0
C1461 C 0.56394 0.1899 0.21092 0.0
C1462 C 0.56726 0.16773 0.19629 0.0
C1463 C 0.57938 0.23194 0.22538 0.0
C1464 C 0.58468 0.23227 0.25303 0.0
C1465 C 0.5745 0.2546 0.21149 0.0
C1466 C 0.56947 0.25527 0.182 0.0
C1467 C 0.54975 0.24137 0.17079 0.0
C1468 C 0.54468 0.24273 0.14309 0.0
C1469 C 0.55909 0.2581 0.12642 0.0
C1470 C 0.57874 0.27195 0.13736 0.0
C1471 C 0.58391 0.27062 0.16503 0.0
H1472 H 0.55499 0.25931 0.10503 0.0
H1473 H 0.61518 0.24841 0.37085 0.0
H1474 H 0.17019 0.55698 0.33014 0.0
H1475 H 0.20853 0.5533 0.30325 0.0
H1476 H 0.18669 0.61812 0.25677 0.0
H1477 H 0.14897 0.62274 0.28471 0.0
H1478 H 0.20807 0.5625 0.23163 0.0
H1479 H 0.22116 0.63955 0.28403 0.0
H1480 H 0.22113 0.66384 0.32636 0.0
H1481 H 0.27172 0.61083 0.36228 0.0
H1482 H 0.27155 0.58589 0.32026 0.0
H1483 H 0.30869 0.62152 0.16448 0.0
H1484 H 0.27481 0.61721 0.19683 0.0
H1485 H 0.31183 0.5537 0.23299 0.0
H1486 H 0.34581 0.5572 0.19978 0.0
H1487 H 0.28484 0.60355 0.26631 0.0
H1488 H 0.27545 0.52978 0.20872 0.0
H1489 H 0.27496 0.50834 0.16462 0.0
H1490 H 0.21687 0.55773 0.13691 0.0
H1491 H 0.2174 0.57981 0.1807 0.0
C1492 C 0.17349 0.57022 0.31396 0.0
C1493 C 0.15681 0.59011 0.30926 0.0
C1494 C 0.19532 0.56815 0.29876 0.0
C1495 C 0.20037 0.58563 0.27841 0.0
C1496 C 0.18304 0.60466 0.27266 0.0
C1497 C 0.16156 0.60718 0.28839 0.0
C1498 C 0.22413 0.58444 0.26366 0.0
C1499 C 0.2249 0.57138 0.23918 0.0
C1500 C 0.24598 0.59582 0.27388 0.0
C1501 C 0.24584 0.61054 0.29926 0.0
C1502 C 0.23187 0.6328 0.30113 0.0
C1503 C 0.23199 0.64676 0.32501 0.0
C1504 C 0.24628 0.63879 0.34707 0.0
C1505 C 0.26054 0.61689 0.34523 0.0
C1506 C 0.26041 0.60282 0.3214 0.0
C1507 C 0.30983 0.60666 0.17934 0.0
C1508 C 0.32969 0.58933 0.17917 0.0
C1509 C 0.29045 0.6043 0.19782 0.0
C1510 C 0.29078 0.58493 0.21682 0.0
C1511 C 0.3113 0.56859 0.21813 0.0
C1512 C 0.33064 0.57065 0.19923 0.0
C1513 C 0.26883 0.58157 0.23424 0.0
C1514 C 0.26823 0.59404 0.25911 0.0
C1515 C 0.24705 0.56985 0.22423 0.0
C1516 C 0.24676 0.55669 0.19784 0.0
C1517 C 0.26285 0.53631 0.19309 0.0
C1518 C 0.2625 0.52399 0.16818 0.0
C1519 C 0.24598 0.53174 0.14793 0.0
C1520 C 0.22972 0.5518 0.15258 0.0
C1521 C 0.23004 0.56422 0.17744 0.0
H1522 H 0.24571 0.52216 0.12867 0.0
H1523 H 0.24641 0.64965 0.36552 0.0
H1524 H 0.8729 0.33249 0.18599 0.0
H1525 H 0.8707 0.30184 0.22239 0.0
H1526 H 0.9512 0.29819 0.22476 0.0
H1527 H 0.95337 0.32924 0.18862 0.0
H1528 H 0.92719 0.25493 0.20389 0.0
H1529 H 0.92175 0.30886 0.28154 0.0
H1530 H 0.90474 0.34411 0.30795 0.0
H1531 H 0.83215 0.31008 0.3073 0.0
H1532 H 0.84866 0.27474 0.2806 0.0
H1533 H 0.94428 0.16197 0.30385 0.0
H1534 H 0.9422 0.19236 0.26728 0.0
H1535 H 0.86236 0.19837 0.27786 0.0
H1536 H 0.8646 0.16842 0.31504 0.0
H1537 H 0.88423 0.24054 0.29113 0.0
H1538 H 0.88777 0.1866 0.21547 0.0
H1539 H 0.90227 0.15151 0.18719 0.0
H1540 H 0.97488 0.18501 0.18125 0.0
H1541 H 0.96094 0.22018 0.20982 0.0
C1542 C 0.89009 0.32662 0.19574 0.0
C1543 C 0.91328 0.33269 0.18426 0.0
C1544 C 0.88884 0.30881 0.2163 0.0
C1545 C 0.9108 0.29726 0.22556 0.0
C1546 C 0.93406 0.30674 0.21753 0.0
C1547 C 0.93528 0.32483 0.1972 0.0
C1548 C 0.90927 0.27226 0.23815 0.0
C1549 C 0.91827 0.25172 0.22326 0.0
C1550 C 0.89632 0.26817 0.26252 0.0
C1551 C 0.88641 0.28924 0.27889 0.0
C1552 C 0.90212 0.30897 0.28687 0.0
C1553 C 0.89258 0.32895 0.30193 0.0
C1554 C 0.86737 0.32936 0.30925 0.0
C1555 C 0.85167 0.30974 0.30161 0.0
C1556 C 0.86113 0.2897 0.28656 0.0
C1557 C 0.92609 0.16848 0.2972 0.0
C1558 C 0.90469 0.16345 0.31257 0.0
C1559 C 0.92491 0.18607 0.27634 0.0
C1560 C 0.9022 0.19818 0.27042 0.0
C1561 C 0.88013 0.18957 0.2825 0.0
C1562 C 0.88137 0.17224 0.30352 0.0
C1563 C 0.90252 0.223 0.2571 0.0
C1564 C 0.89317 0.24358 0.27174 0.0
C1565 C 0.91481 0.22707 0.23227 0.0
C1566 C 0.92335 0.20596 0.21502 0.0
C1567 C 0.9069 0.1864 0.20834 0.0
C1568 C 0.91501 0.16651 0.1922 0.0
C1569 C 0.9395 0.166 0.18248 0.0
C1570 C 0.95592 0.18543 0.18881 0.0
C1571 C 0.94791 0.20537 0.20495 0.0
H1572 H 0.94574 0.15058 0.17 0.0
H1573 H 0.86001 0.34487 0.32087 0.0
H1574 H 0.31087 0.8977 0.34802 0.0
H1575 H 0.27318 0.89919 0.32057 0.0
H1576 H 0.31779 0.91364 0.24968 0.0
H1577 H 0.35583 0.91239 0.27752 0.0
H1578 H 0.27844 0.94386 0.25124 0.0
H1579 H 0.29163 0.85562 0.26161 0.0
H1580 H 0.2987 0.81605 0.28621 0.0
H1581 H 0.22904 0.82558 0.32799 0.0
H1582 H 0.22172 0.86541 0.30392 0.0
H1583 H 0.18935 0.91758 0.15128 0.0
H1584 H 0.22463 0.92002 0.18176 0.0
H1585 H 0.1763 0.90232 0.24891 0.0
H1586 H 0.14085 0.89813 0.21748 0.0
H1587 H 0.21652 0.87494 0.25111 0.0
H1588 H 0.20301 0.96331 0.23777 0.0
H1589 H 0.19657 0.00172 0.21088 0.0
H1590 H 0.26756 0.99075 0.17225 0.0
H1591 H 0.27433 0.95217 0.1987 0.0
C1592 C 0.31277 0.90056 0.32656 0.0
C1593 C 0.33631 0.90419 0.31472 0.0
C1594 C 0.29115 0.90158 0.31086 0.0
C1595 C 0.29268 0.90603 0.28298 0.0
C1596 C 0.3162 0.91001 0.27115 0.0
C1597 C 0.33786 0.90921 0.28696 0.0
C1598 C 0.26965 0.90712 0.26638 0.0
C1599 C 0.265 0.92869 0.25096 0.0
C1600 C 0.25185 0.88757 0.2666 0.0
C1601 C 0.25627 0.86365 0.28118 0.0
C1602 C 0.27793 0.8494 0.27623 0.0
C1603 C 0.28196 0.8269 0.29004 0.0
C1604 C 0.26437 0.81835 0.30871 0.0
C1605 C 0.24268 0.83225 0.31356 0.0
C1606 C 0.23857 0.85478 0.29983 0.0
C1607 C 0.18618 0.91411 0.17242 0.0
C1608 C 0.16252 0.90721 0.18196 0.0
C1609 C 0.20635 0.91596 0.19002 0.0
C1610 C 0.20314 0.91175 0.21776 0.0
C1611 C 0.17921 0.90572 0.22756 0.0
C1612 C 0.159 0.90343 0.20972 0.0
C1613 C 0.2252 0.91172 0.23594 0.0
C1614 C 0.22975 0.89028 0.25162 0.0
C1615 C 0.24301 0.93131 0.23577 0.0
C1616 C 0.23911 0.95477 0.22016 0.0
C1617 C 0.2172 0.96904 0.22347 0.0
C1618 C 0.2135 0.99085 0.20831 0.0
C1619 C 0.23163 -0.00135 0.18985 0.0
C1620 C 0.25354 0.98471 0.18657 0.0
C1621 C 0.25735 0.96289 0.20169 0.0
H1622 H 0.22871 0.01552 0.17811 0.0
H1623 H 0.26752 0.80091 0.31937 0.0
H1624 H 0.42986 0.80136 0.84383 0.0
H1625 H 0.42702 0.76501 0.81447 0.0
H1626 H 0.43499 0.81269 0.74449 0.0
H1627 H 0.43612 0.84956 0.77403 0.0
H1628 H 0.40117 0.77933 0.73493 0.0
H1629 H 0.48501 0.77441 0.77204 0.0
H1630 H 0.51567 0.77366 0.80931 0.0
H1631 H 0.48054 0.7083 0.84243 0.0
H1632 H 0.44957 0.70878 0.80544 0.0
H1633 H 0.44239 0.68621 0.64214 0.0
H1634 H 0.4411 0.72162 0.67336 0.0
H1635 H 0.41436 0.6731 0.73666 0.0
H1636 H 0.415 0.63753 0.7053 0.0
H1637 H 0.45571 0.70541 0.75065 0.0
H1638 H 0.37402 0.70823 0.71245 0.0
H1639 H 0.34153 0.70944 0.67714 0.0
H1640 H 0.37118 0.77864 0.64702 0.0
H1641 H 0.40414 0.77765 0.6819 0.0
C1642 C 0.43134 0.80409 0.82219 0.0
C1643 C 0.43367 0.82819 0.81114 0.0
C1644 C 0.42974 0.78326 0.80541 0.0
C1645 C 0.43146 0.78599 0.77728 0.0
C1646 C 0.43378 0.81011 0.76616 0.0
C1647 C 0.43463 0.83111 0.78299 0.0
C1648 C 0.4306 0.76367 0.75952 0.0
C1649 C 0.41341 0.76335 0.73806 0.0
C1650 C 0.44589 0.74241 0.76426 0.0
C1651 C 0.46493 0.74171 0.78606 0.0
C1652 C 0.48383 0.75991 0.78729 0.0
C1653 C 0.50125 0.75953 0.80837 0.0
C1654 C 0.50004 0.74096 0.82824 0.0
C1655 C 0.48147 0.72266 0.82701 0.0
C1656 C 0.46402 0.72294 0.80597 0.0
C1657 C 0.43655 0.68297 0.6628 0.0
C1658 C 0.42898 0.65907 0.6714 0.0
C1659 C 0.43555 0.70327 0.68047 0.0
C1660 C 0.42736 0.69992 0.7071 0.0
C1661 C 0.42057 0.67597 0.71606 0.0
C1662 C 0.42108 0.65572 0.69822 0.0
C1663 C 0.42675 0.7214 0.72578 0.0
C1664 C 0.44359 0.72148 0.74745 0.0
C1665 C 0.41115 0.7424 0.72118 0.0
C1666 C 0.39182 0.74266 0.69959 0.0
C1667 C 0.37388 0.72351 0.69806 0.0
C1668 C 0.3553 0.72421 0.67818 0.0
C1669 C 0.35435 0.74405 0.65978 0.0
C1670 C 0.37198 0.76324 0.66124 0.0
C1671 C 0.39062 0.76262 0.68106 0.0
H1672 H 0.3399 0.7446 0.64446 0.0
H1673 H 0.5135 0.74074 0.84457 0.0
H1674 H 0.83434 0.38918 0.69073 0.0
H1675 H 0.7992 0.38879 0.72217 0.0
H1676 H 0.77687 0.46217 0.69476 0.0
H1677 H 0.81203 0.46279 0.66303 0.0
H1678 H 0.78237 0.45067 0.75626 0.0
H1679 H 0.71959 0.42142 0.67749 0.0
H1680 H 0.71098 0.39282 0.6396 0.0
H1681 H 0.75131 0.33401 0.67987 0.0
H1682 H 0.75925 0.36211 0.71856 0.0
H1683 H 0.66447 0.46337 0.82063 0.0
H1684 H 0.69936 0.46518 0.78858 0.0
H1685 H 0.70059 0.38434 0.78505 0.0
H1686 H 0.66487 0.38266 0.81528 0.0
H1687 H 0.70669 0.39987 0.7385 0.0
H1688 H 0.74385 0.42212 0.82331 0.0
H1689 H 0.75006 0.44608 0.86535 0.0
H1690 H 0.76375 0.51274 0.81918 0.0
H1691 H 0.75728 0.48926 0.77687 0.0
C1692 C 0.8221 0.40535 0.69152 0.0
C1693 C 0.82591 0.42607 0.67448 0.0
C1694 C 0.80192 0.40494 0.70926 0.0
C1695 C 0.7854 0.42526 0.7103 0.0
C1696 C 0.78942 0.44624 0.69388 0.0
C1697 C 0.80949 0.44659 0.67592 0.0
C1698 C 0.76431 0.42494 0.7292 0.0
C1699 C 0.76567 0.43973 0.75249 0.0
C1700 C 0.74309 0.41009 0.72445 0.0
C1701 C 0.74057 0.39399 0.70043 0.0
C1702 C 0.72695 0.40251 0.678 0.0
C1703 C 0.72209 0.38636 0.65645 0.0
C1704 C 0.73102 0.36174 0.65701 0.0
C1705 C 0.74466 0.35316 0.67929 0.0
C1706 C 0.7493 0.36917 0.70106 0.0
C1707 C 0.67209 0.44611 0.81261 0.0
C1708 C 0.662 0.42291 0.8201 0.0
C1709 C 0.69216 0.4471 0.79463 0.0
C1710 C 0.70291 0.42487 0.7848 0.0
C1711 C 0.69258 0.40175 0.79224 0.0
C1712 C 0.67212 0.4008 0.80945 0.0
C1713 C 0.72455 0.42539 0.76626 0.0
C1714 C 0.72329 0.41081 0.74273 0.0
C1715 C 0.74625 0.43976 0.77148 0.0
C1716 C 0.74978 0.45399 0.79692 0.0
C1717 C 0.74794 0.44194 0.82213 0.0
C1718 C 0.75156 0.45543 0.84601 0.0
C1719 C 0.75722 0.48093 0.84494 0.0
C1720 C 0.75931 0.493 0.81999 0.0
C1721 C 0.75568 0.47961 0.79605 0.0
H1722 H 0.76005 0.49133 0.86345 0.0
H1723 H 0.72713 0.34925 0.64032 0.0
H1724 H 0.11336 0.82886 0.68143 0.0
H1725 H 0.11175 0.79429 0.71367 0.0
H1726 H 0.0313 0.79448 0.70915 0.0
H1727 H 0.03276 0.82882 0.67585 0.0
H1728 H 0.05838 0.79639 0.76533 0.0
H1729 H 0.05213 0.75104 0.68063 0.0
H1730 H 0.06497 0.73772 0.63503 0.0
H1731 H 0.13536 0.71205 0.66641 0.0
H1732 H 0.12314 0.7257 0.71215 0.0
H1733 H 0.01463 0.68053 0.81385 0.0
H1734 H 0.0256 0.72049 0.79283 0.0
H1735 H 0.10352 0.69941 0.79401 0.0
H1736 H 0.09255 0.65963 0.81615 0.0
H1737 H 0.084 0.70963 0.74246 0.0
H1738 H 0.09029 0.74932 0.82675 0.0
H1739 H 0.07952 0.7616 0.87331 0.0
H1740 H 0.01253 0.7973 0.84469 0.0
H1741 H 0.0227 0.78495 0.79797 0.0
C1742 C 0.09527 0.82164 0.68733 0.0
C1743 C 0.07312 0.83168 0.67639 0.0
C1744 C 0.09444 0.80182 0.70562 0.0
C1745 C 0.07145 0.79198 0.71371 0.0
C1746 C 0.04921 0.80197 0.70304 0.0
C1747 C 0.05005 0.82149 0.68411 0.0
C1748 C 0.07087 0.77159 0.73382 0.0
C1749 C 0.06364 0.77731 0.76036 0.0
C1750 C 0.07913 0.74714 0.72746 0.0
C1751 C 0.08689 0.73986 0.69975 0.0
C1752 C 0.07053 0.74299 0.67775 0.0
C1753 C 0.07764 0.73524 0.65188 0.0
C1754 C 0.101 0.72413 0.64779 0.0
C1755 C 0.11731 0.72075 0.66957 0.0
C1756 C 0.1103 0.72852 0.69547 0.0
C1757 C 0.03411 0.68471 0.81007 0.0
C1758 C 0.05275 0.66709 0.81601 0.0
C1759 C 0.0404 0.70757 0.79837 0.0
C1760 C 0.06535 0.71283 0.7919 0.0
C1761 C 0.08418 0.69568 0.79903 0.0
C1762 C 0.07793 0.67304 0.8115 0.0
C1763 C 0.07073 0.73417 0.77387 0.0
C1764 C 0.079 0.72874 0.74764 0.0
C1765 C 0.06374 0.75891 0.78064 0.0
C1766 C 0.05717 0.766 0.8088 0.0
C1767 C 0.07311 0.75954 0.83038 0.0
C1768 C 0.06715 0.76659 0.85682 0.0
C1769 C 0.04533 0.78018 0.86196 0.0
C1770 C 0.02943 0.78676 0.84067 0.0
C1771 C 0.0353 0.77977 0.81419 0.0
H1772 H 0.04077 0.78564 0.88243 0.0
H1773 H 0.10643 0.71806 0.62777 0.0
H1774 H 0.63962 0.061 0.70659 0.0
H1775 H 0.67548 0.06428 0.73706 0.0
H1776 H 0.72546 0.05416 0.66947 0.0
H1777 H 0.68979 0.04965 0.63929 0.0
H1778 H 0.74263 0.02945 0.70832 0.0
H1779 H 0.71304 0.11334 0.7001 0.0
H1780 H 0.68357 0.14889 0.70138 0.0
H1781 H 0.67213 0.13718 0.7863 0.0
H1782 H 0.70129 0.10133 0.78548 0.0
H1783 H 0.84983 0.07685 0.7791 0.0
H1784 H 0.8141 0.07803 0.74797 0.0
H1785 H 0.76527 0.05435 0.81229 0.0
H1786 H 0.80083 0.05247 0.84332 0.0
H1787 H 0.74928 0.09892 0.77445 0.0
H1788 H 0.77697 0.01089 0.77794 0.0
H1789 H 0.8107 0.9794 0.77531 0.0
H1790 H 0.82925 0.00475 0.69545 0.0
H1791 H 0.79578 0.03662 0.69781 0.0
C1792 C 0.65828 0.05905 0.69837 0.0
C1793 C 0.66191 0.05491 0.67063 0.0
C1794 C 0.67875 0.0613 0.71571 0.0
C1795 C 0.7032 0.06007 0.70547 0.0
C1796 C 0.7068 0.05524 0.67787 0.0
C1797 C 0.68636 0.0525 0.66064 0.0
C1798 C 0.7251 0.06309 0.72354 0.0
C1799 C 0.74408 0.0449 0.72244 0.0
C1800 C 0.72715 0.08318 0.74218 0.0
C1801 C 0.70915 0.10441 0.74264 0.0
C1802 C 0.70404 0.11815 0.71899 0.0
C1803 C 0.68743 0.13841 0.71965 0.0
C1804 C 0.67592 0.14524 0.74389 0.0
C1805 C 0.68102 0.13184 0.76753 0.0
C1806 C 0.6976 0.11155 0.76698 0.0
C1807 C 0.83149 0.07179 0.78652 0.0
C1808 C 0.82811 0.06419 0.81343 0.0
C1809 C 0.81116 0.07269 0.76885 0.0
C1810 C 0.78721 0.06647 0.77806 0.0
C1811 C 0.78368 0.05939 0.80502 0.0
C1812 C 0.80403 0.05799 0.82254 0.0
C1813 C 0.76612 0.06525 0.75906 0.0
C1814 C 0.74751 0.0837 0.76008 0.0
C1815 C 0.76457 0.04583 0.73992 0.0
C1816 C 0.78403 0.02616 0.73811 0.0
C1817 C 0.78832 0.00978 0.75988 0.0
C1818 C 0.80737 0.99188 0.75843 0.0
C1819 C 0.82214 0.9901 0.73524 0.0
C1820 C 0.8178 0.00615 0.7134 0.0
C1821 C 0.79877 0.0241 0.71476 0.0
H1822 H 0.83691 0.97625 0.73418 0.0
H1823 H 0.66311 0.16095 0.74436 0.0
loop_
_geom_bond_atom_site_label_1
_geom_bond_atom_site_label_2
_geom_bond_distance
_geom_bond_site_symmetry_2
_ccdc_geom_bond_type
Mg0 O1 2.028 . S
Mg0 O7 1.986 . S
Mg0 O9 2.114 . S
Mg0 O10 2.251 . S
Mg0 O13 2.010 . S
O1 Mg0 2.028 . S
O1 C4 1.250 . S
O2 Mg3 2.028 . S
O2 C4 1.248 . S
Mg3 O2 2.028 . S
Mg3 O8 2.032 . S
Mg3 O10 2.079 . S
C4 O1 1.250 . S
C4 O2 1.248 . S
C5 O6 1.264 . S
C5 O13 1.249 . S
O6 C5 1.264 . S
O7 Mg0 1.986 . S
O7 C11 1.246 . S
O8 Mg3 2.032 . S
O8 C11 1.259 . S
O9 Mg0 2.114 . S
O9 C12 1.252 . S
O10 Mg0 2.251 . S
O10 Mg3 2.079 . S
O10 C12 1.273 . S
C11 O7 1.246 . S
C11 O8 1.259 . S
C12 O9 1.252 . S
C12 O10 1.273 . S
O13 Mg0 2.010 . S
O13 C5 1.249 . S
Mg14 O15 2.028 . S
Mg14 O21 1.986 . S
Mg14 O23 2.114 . S
Mg14 O24 2.251 . S
Mg14 O27 2.010 . S
O15 Mg14 2.028 . S
O15 C18 1.250 . S
O16 Mg17 2.028 . S
O16 C18 1.248 . S
Mg17 O16 2.028 . S
Mg17 O22 2.032 . S
Mg17 O24 2.079 . S
C18 O15 1.250 . S
C18 O16 1.248 . S
C19 O20 1.264 . S
C19 O27 1.249 . S
O20 C19 1.264 . S
O21 Mg14 1.986 . S
O21 C25 1.246 . S
O22 Mg17 2.032 . S
O22 C25 1.259 . S
O23 Mg14 2.114 . S
O23 C26 1.252 . S
O24 Mg14 2.251 . S
O24 Mg17 2.079 . S
O24 C26 1.273 . S
C25 O21 1.246 . S
C25 O22 1.259 . S
C26 O23 1.252 . S
C26 O24 1.273 . S
O27 Mg14 2.010 . S
O27 C19 1.249 . S
Mg28 O29 2.028 . S
Mg28 O35 1.986 . S
Mg28 O37 2.114 . S
Mg28 O38 2.251 . S
Mg28 O41 2.010 . S
O29 Mg28 2.028 . S
O29 C32 1.250 . S
O30 Mg31 2.028 . S
O30 C32 1.248 . S
Mg31 O30 2.028 . S
Mg31 O36 2.032 . S
Mg31 O38 2.079 . S
C32 O29 1.250 . S
C32 O30 1.248 . S
C33 O34 1.264 . S
C33 O41 1.249 . S
O34 C33 1.264 . S
O35 Mg28 1.986 . S
O35 C39 1.246 . S
O36 Mg31 2.032 . S
O36 C39 1.259 . S
O37 Mg28 2.114 . S
O37 C40 1.252 . S
O38 Mg28 2.251 . S
O38 Mg31 2.079 . S
O38 C40 1.273 . S
C39 O35 1.246 . S
C39 O36 1.259 . S
C40 O37 1.252 . S
C40 O38 1.273 . S
O41 Mg28 2.010 . S
O41 C33 1.249 . S
Mg42 O43 2.028 . S
Mg42 O49 1.986 . S
Mg42 O51 2.114 . S
Mg42 O52 2.251 . S
Mg42 O55 2.010 . S
O43 Mg42 2.028 . S
O43 C46 1.250 . S
O44 Mg45 2.028 . S
O44 C46 1.248 . S
Mg45 O44 2.028 . S
Mg45 O50 2.032 . S
Mg45 O52 2.079 . S
C46 O43 1.250 . S
C46 O44 1.248 . S
C47 O48 1.264 . S
C47 O55 1.249 . S
O48 C47 1.264 . S
O49 Mg42 1.986 . S
O49 C53 1.246 . S
O50 Mg45 2.032 . S
O50 C53 1.259 . S
O51 Mg42 2.114 . S
O51 C54 1.252 . S
O52 Mg42 2.251 . S
O52 Mg45 2.079 . S
O52 C54 1.273 . S
C53 O49 1.246 . S
C53 O50 1.259 . S
C54 O51 1.252 . S
C54 O52 1.273 . S
O55 Mg42 2.010 . S
O55 C47 1.249 . S
Mg56 O57 2.028 . S
Mg56 O63 1.986 . S
Mg56 O65 2.114 . S
Mg56 O66 2.251 . S
Mg56 O69 2.010 . S
O57 Mg56 2.028 . S
O57 C60 1.250 . S
O58 Mg59 2.028 . S
O58 C60 1.248 . S
Mg59 O58 2.028 . S
Mg59 O64 2.032 . S
Mg59 O66 2.079 . S
C60 O57 1.250 . S
C60 O58 1.248 . S
C61 O62 1.264 . S
C61 O69 1.249 . S
O62 C61 1.264 . S
O63 Mg56 1.986 . S
O63 C67 1.246 . S
O64 Mg59 2.032 . S
O64 C67 1.259 . S
O65 Mg56 2.114 . S
O65 C68 1.252 . S
O66 Mg56 2.251 . S
O66 Mg59 2.079 . S
O66 C68 1.273 . S
C67 O63 1.246 . S
C67 O64 1.259 . S
C68 O65 1.252 . S
C68 O66 1.273 . S
O69 Mg56 2.010 . S
O69 C61 1.249 . S
Mg70 O71 2.028 . S
Mg70 O77 1.986 . S
Mg70 O79 2.114 . S
Mg70 O80 2.251 . S
Mg70 O83 2.010 . S
O71 Mg70 2.028 . S
O71 C74 1.250 . S
O72 Mg73 2.028 . S
O72 C74 1.248 . S
Mg73 O72 2.028 . S
Mg73 O78 2.032 . S
Mg73 O80 2.079 . S
C74 O71 1.250 . S
C74 O72 1.248 . S
C75 O76 1.264 . S
C75 O83 1.249 . S
O76 C75 1.264 . S
O77 Mg70 1.986 . S
O77 C81 1.246 . S
O78 Mg73 2.032 . S
O78 C81 1.259 . S
O79 Mg70 2.114 . S
O79 C82 1.252 . S
O80 Mg70 2.251 . S
O80 Mg73 2.079 . S
O80 C82 1.273 . S
C81 O77 1.246 . S
C81 O78 1.259 . S
C82 O79 1.252 . S
C82 O80 1.273 . S
O83 Mg70 2.010 . S
O83 C75 1.249 . S
Mg84 O85 2.028 . S
Mg84 O91 1.986 . S
Mg84 O93 2.114 . S
Mg84 O94 2.251 . S
Mg84 O97 2.010 . S
O85 Mg84 2.028 . S
O85 C88 1.250 . S
O86 Mg87 2.028 . S
O86 C88 1.248 . S
Mg87 O86 2.028 . S
Mg87 O92 2.032 . S
Mg87 O94 2.079 . S
C88 O85 1.250 . S
C88 O86 1.248 . S
C89 O90 1.264 . S
C89 O97 1.249 . S
O90 C89 1.264 . S
O91 Mg84 1.986 . S
O91 C95 1.246 . S
O92 Mg87 2.032 . S
O92 C95 1.259 . S
O93 Mg84 2.114 . S
O93 C96 1.252 . S
O94 Mg84 2.251 . S
O94 Mg87 2.079 . S
O94 C96 1.273 . S
C95 O91 1.246 . S
C95 O92 1.259 . S
C96 O93 1.252 . S
C96 O94 1.273 . S
O97 Mg84 2.010 . S
O97 C89 1.249 . S
Mg98 O99 2.028 . S
Mg98 O105 1.986 . S
Mg98 O107 2.114 . S
Mg98 O108 2.251 . S
Mg98 O111 2.010 . S
O99 Mg98 2.028 . S
O99 C102 1.250 . S
O100 Mg101 2.028 . S
O100 C102 1.248 . S
Mg101 O100 2.028 . S
Mg101 O106 2.032 . S
Mg101 O108 2.079 . S
C102 O99 1.250 . S
C102 O100 1.248 . S
C103 O104 1.264 . S
C103 O111 1.249 . S
O104 C103 1.264 . S
O105 Mg98 1.986 . S
O105 C109 1.246 . S
O106 Mg101 2.032 . S
O106 C109 1.259 . S
O107 Mg98 2.114 . S
O107 C110 1.252 . S
O108 Mg98 2.251 . S
O108 Mg101 2.079 . S
O108 C110 1.273 . S
C109 O105 1.246 . S
C109 O106 1.259 . S
C110 O107 1.252 . S
C110 O108 1.273 . S
O111 Mg98 2.010 . S
O111 C103 1.249 . S
Mg112 O113 2.028 . S
Mg112 O119 1.986 . S
Mg112 O121 2.114 . S
Mg112 O122 2.251 . S
Mg112 O125 2.010 . S
O113 Mg112 2.028 . S
O113 C116 1.250 . S
O114 Mg115 2.028 . S
O114 C116 1.248 . S
Mg115 O114 2.028 . S
Mg115 O120 2.032 . S
Mg115 O122 2.079 . S
C116 O113 1.250 . S
C116 O114 1.248 . S
C117 O118 1.264 . S
C117 O125 1.249 . S
O118 C117 1.264 . S
O119 Mg112 1.986 . S
O119 C123 1.246 . S
O120 Mg115 2.032 . S
O120 C123 1.259 . S
O121 Mg112 2.114 . S
O121 C124 1.252 . S
O122 Mg112 2.251 . S
O122 Mg115 2.079 . S
O122 C124 1.273 . S
C123 O119 1.246 . S
C123 O120 1.259 . S
C124 O121 1.252 . S
C124 O122 1.273 . S
O125 Mg112 2.010 . S
O125 C117 1.249 . S
Mg126 O127 2.028 . S
Mg126 O133 1.986 . S
Mg126 O135 2.114 . S
Mg126 O136 2.251 . S
Mg126 O139 2.010 . S
O127 Mg126 2.028 . S
O127 C130 1.250 . S
O128 Mg129 2.028 . S
O128 C130 1.248 . S
Mg129 O128 2.028 . S
Mg129 O134 2.032 . S
Mg129 O136 2.079 . S
C130 O127 1.250 . S
C130 O128 1.248 . S
C131 O132 1.264 . S
C131 O139 1.249 . S
O132 C131 1.264 . S
O133 Mg126 1.986 . S
O133 C137 1.246 . S
O134 Mg129 2.032 . S
O134 C137 1.259 . S
O135 Mg126 2.114 . S
O135 C138 1.252 . S
O136 Mg126 2.251 . S
O136 Mg129 2.079 . S
O136 C138 1.273 . S
C137 O133 1.246 . S
C137 O134 1.259 . S
C138 O135 1.252 . S
C138 O136 1.273 . S
O139 Mg126 2.010 . S
O139 C131 1.249 . S
Mg140 O141 2.028 . S
Mg140 O147 1.986 . S
Mg140 O149 2.114 . S
Mg140 O150 2.251 . S
Mg140 O153 2.010 . S
O141 Mg140 2.028 . S
O141 C144 1.250 . S
O142 Mg143 2.028 . S
O142 C144 1.248 . S
Mg143 O142 2.028 . S
Mg143 O148 2.032 . S
Mg143 O150 2.079 . S
C144 O141 1.250 . S
C144 O142 1.248 . S
C145 O146 1.264 . S
C145 O153 1.249 . S
O146 C145 1.264 . S
O147 Mg140 1.986 . S
O147 C151 1.246 . S
O148 Mg143 2.032 . S
O148 C151 1.259 . S
O149 Mg140 2.114 . S
O149 C152 1.252 . S
O150 Mg140 2.251 . S
O150 Mg143 2.079 . S
O150 C152 1.273 . S
C151 O147 1.246 . S
C151 O148 1.259 . S
C152 O149 1.252 . S
C152 O150 1.273 . S
O153 Mg140 2.010 . S
O153 C145 1.249 . S
Mg154 O155 2.028 . S
Mg154 O161 1.986 . S
Mg154 O163 2.114 . S
Mg154 O164 2.251 . S
Mg154 O167 2.010 . S
O155 Mg154 2.028 . S
O155 C158 1.250 . S
O156 Mg157 2.028 . S
O156 C158 1.248 . S
Mg157 O156 2.028 . S
Mg157 O162 2.032 . S
Mg157 O164 2.079 . S
C158 O155 1.250 . S
C158 O156 1.248 . S
C159 O160 1.264 . S
C159 O167 1.249 . S
O160 C159 1.264 . S
O161 Mg154 1.986 . S
O161 C165 1.246 . S
O162 Mg157 2.032 . S
O162 C165 1.259 . S
O163 Mg154 2.114 . S
O163 C166 1.252 . S
O164 Mg154 2.251 . S
O164 Mg157 2.079 . S
O164 C166 1.273 . S
C165 O161 1.246 . S
C165 O162 1.259 . S
C166 O163 1.252 . S
C166 O164 1.273 . S
O167 Mg154 2.010 . S
O167 C159 1.249 . S
Mg168 O169 2.028 . S
Mg168 O175 1.986 . S
Mg168 O177 2.114 . S
Mg168 O178 2.251 . S
Mg168 O181 2.010 . S
O169 Mg168 2.028 . S
O169 C172 1.250 . S
O170 Mg171 2.028 . S
O170 C172 1.248 . S
Mg171 O170 2.028 . S
Mg171 O176 2.032 . S
Mg171 O178 2.079 . S
C172 O169 1.250 . S
C172 O170 1.248 . S
C173 O174 1.264 . S
C173 O181 1.249 . S
O174 C173 1.264 . S
O175 Mg168 1.986 . S
O175 C179 1.246 . S
O176 Mg171 2.032 . S
O176 C179 1.259 . S
O177 Mg168 2.114 . S
O177 C180 1.252 . S
O178 Mg168 2.251 . S
O178 Mg171 2.079 . S
O178 C180 1.273 . S
C179 O175 1.246 . S
C179 O176 1.259 . S
C180 O177 1.252 . S
C180 O178 1.273 . S
O181 Mg168 2.010 . S
O181 C173 1.249 . S
Mg182 O183 2.028 . S
Mg182 O189 1.986 . S
Mg182 O191 2.114 . S
Mg182 O192 2.251 . S
Mg182 O195 2.010 . S
O183 Mg182 2.028 . S
O183 C186 1.250 . S
O184 Mg185 2.028 . S
O184 C186 1.248 . S
Mg185 O184 2.028 . S
Mg185 O190 2.032 . S
Mg185 O192 2.079 . S
C186 O183 1.250 . S
C186 O184 1.248 . S
C187 O188 1.264 . S
C187 O195 1.249 . S
O188 C187 1.264 . S
O189 Mg182 1.986 . S
O189 C193 1.246 . S
O190 Mg185 2.032 . S
O190 C193 1.259 . S
O191 Mg182 2.114 . S
O191 C194 1.252 . S
O192 Mg182 2.251 . S
O192 Mg185 2.079 . S
O192 C194 1.273 . S
C193 O189 1.246 . S
C193 O190 1.259 . S
C194 O191 1.252 . S
C194 O192 1.273 . S
O195 Mg182 2.010 . S
O195 C187 1.249 . S
Mg196 O197 2.028 . S
Mg196 O203 1.986 . S
Mg196 O205 2.114 . S
Mg196 O206 2.251 . S
Mg196 O209 2.010 . S
O197 Mg196 2.028 . S
O197 C200 1.250 . S
O198 Mg199 2.028 . S
O198 C200 1.248 . S
Mg199 O198 2.028 . S
Mg199 O204 2.032 . S
Mg199 O206 2.079 . S
C200 O197 1.250 . S
C200 O198 1.248 . S
C201 O202 1.264 . S
C201 O209 1.249 . S
O202 C201 1.264 . S
O203 Mg196 1.986 . S
O203 C207 1.246 . S
O204 Mg199 2.032 . S
O204 C207 1.259 . S
O205 Mg196 2.114 . S
O205 C208 1.252 . S
O206 Mg196 2.251 . S
O206 Mg199 2.079 . S
O206 C208 1.273 . S
C207 O203 1.246 . S
C207 O204 1.259 . S
C208 O205 1.252 . S
C208 O206 1.273 . S
O209 Mg196 2.010 . S
O209 C201 1.249 . S
Mg210 O211 2.028 . S
Mg210 O217 1.986 . S
Mg210 O219 2.114 . S
Mg210 O220 2.251 . S
Mg210 O223 2.010 . S
O211 Mg210 2.028 . S
O211 C214 1.250 . S
O212 Mg213 2.028 . S
O212 C214 1.248 . S
Mg213 O212 2.028 . S
Mg213 O218 2.032 . S
Mg213 O220 2.079 . S
C214 O211 1.250 . S
C214 O212 1.248 . S
C215 O216 1.264 . S
C215 O223 1.249 . S
O216 C215 1.264 . S
O217 Mg210 1.986 . S
O217 C221 1.246 . S
O218 Mg213 2.032 . S
O218 C221 1.259 . S
O219 Mg210 2.114 . S
O219 C222 1.252 . S
O220 Mg210 2.251 . S
O220 Mg213 2.079 . S
O220 C222 1.273 . S
C221 O217 1.246 . S
C221 O218 1.259 . S
C222 O219 1.252 . S
C222 O220 1.273 . S
O223 Mg210 2.010 . S
O223 C215 1.249 . S
H224 C242 0.951 . S
H225 C244 0.951 . S
H226 C246 0.950 1_556 S
H227 C247 0.950 . S
H228 C249 0.950 . S
H229 C252 0.950 1_556 S
H230 C253 0.950 . S
H231 C255 0.950 . S
H232 C256 0.950 . S
H233 C257 0.951 . S
H234 C259 0.951 . S
H235 C261 0.950 . S
H236 C262 0.950 . S
H237 C264 0.950 . S
H238 C267 0.950 . S
H239 C268 0.950 . S
H240 C270 0.950 . S
H241 C271 0.950 . S
C242 H224 0.951 . S
C242 C243 1.366 . S
C242 C244 1.388 . S
C243 C242 1.366 . S
C243 C247 1.385 . S
C244 H225 0.951 . S
C244 C242 1.388 . S
C244 C245 1.366 . S
C245 C244 1.366 . S
C245 C246 1.414 . S
C245 C248 1.499 . S
C246 H226 0.950 1_554 S
C246 C245 1.414 . S
C246 C247 1.374 . S
C247 H227 0.950 . S
C247 C243 1.385 . S
C247 C246 1.374 . S
C248 C245 1.499 . S
C248 C249 1.373 1_554 S
C248 C250 1.389 . S
C249 H228 0.950 . S
C249 C248 1.373 1_556 S
C249 C265 1.377 . S
C250 C248 1.389 . S
C250 C251 1.524 . S
C250 C264 1.377 1_554 S
C251 C250 1.524 . S
C251 C252 1.397 . S
C251 C256 1.363 . S
C252 H229 0.950 1_554 S
C252 C251 1.397 . S
C252 C253 1.334 . S
C253 H230 0.950 . S
C253 C252 1.334 . S
C253 C254 1.287 . S
C254 C253 1.287 . S
C254 C255 1.524 . S
C254 H273 0.913 . S
C255 H231 0.950 . S
C255 C254 1.524 . S
C255 C256 1.415 . S
C256 H232 0.950 . S
C256 C251 1.363 . S
C256 C255 1.415 . S
C257 H233 0.951 . S
C257 C258 1.366 . S
C257 C259 1.388 . S
C258 C257 1.366 . S
C258 C262 1.385 . S
C259 H234 0.951 . S
C259 C257 1.388 . S
C259 C260 1.366 . S
C260 C259 1.366 . S
C260 C261 1.414 . S
C260 C263 1.499 . S
C261 H235 0.950 . S
C261 C260 1.414 . S
C261 C262 1.374 . S
C262 H236 0.950 . S
C262 C258 1.385 . S
C262 C261 1.374 . S
C263 C260 1.499 . S
C263 C264 1.373 . S
C263 C265 1.389 . S
C264 H237 0.950 . S
C264 C250 1.377 1_556 S
C264 C263 1.373 . S
C265 C249 1.377 . S
C265 C263 1.389 . S
C265 C266 1.524 . S
C266 C265 1.524 . S
C266 C267 1.397 . S
C266 C271 1.363 . S
C267 H238 0.950 . S
C267 C266 1.397 . S
C267 C268 1.334 . S
C268 H239 0.950 . S
C268 C267 1.334 . S
C268 C269 1.287 . S
C269 C268 1.287 . S
C269 C270 1.524 . S
C269 H272 0.999 . S
C270 H240 0.950 . S
C270 C269 1.524 . S
C270 C271 1.415 . S
C271 H241 0.950 . S
C271 C266 1.363 . S
C271 C270 1.415 . S
H272 C269 0.999 . S
H273 C254 0.913 . S
H274 C292 0.951 . S
H275 C294 0.951 . S
H276 C296 0.950 . S
H277 C297 0.950 . S
H278 C299 0.950 . S
H279 C302 0.950 . S
H280 C303 0.950 . S
H281 C305 0.950 . S
H282 C306 0.950 . S
H283 C307 0.951 . S
H284 C309 0.951 1_556 S
H285 C311 0.950 . S
H286 C312 0.950 . S
H287 C314 0.950 . S
H288 C317 0.950 . S
H289 C318 0.950 . S
H290 C320 0.950 . S
H291 C321 0.950 . S
C292 H274 0.951 . S
C292 C293 1.366 . S
C292 C294 1.388 . S
C293 C292 1.366 . S
C293 C297 1.385 . S
C294 H275 0.951 . S
C294 C292 1.388 . S
C294 C295 1.366 . S
C295 C294 1.366 . S
C295 C296 1.414 . S
C295 C298 1.499 . S
C296 H276 0.950 . S
C296 C295 1.414 . S
C296 C297 1.374 . S
C297 H277 0.950 . S
C297 C293 1.385 . S
C297 C296 1.374 . S
C298 C295 1.499 . S
C298 C299 1.373 . S
C298 C300 1.389 1_556 S
C299 H278 0.950 . S
C299 C298 1.373 . S
C299 C315 1.377 . S
C300 C298 1.389 1_554 S
C300 C301 1.524 . S
C300 C314 1.377 . S
C301 C300 1.524 . S
C301 C302 1.397 . S
C301 C306 1.363 . S
C302 H279 0.950 . S
C302 C301 1.397 . S
C302 C303 1.334 . S
C303 H280 0.950 . S
C303 C302 1.334 . S
C303 C304 1.287 . S
C304 C303 1.287 . S
C304 C305 1.524 . S
C304 H323 0.913 . S
C305 H281 0.950 . S
C305 C304 1.524 . S
C305 C306 1.415 . S
C306 H282 0.950 . S
C306 C301 1.363 . S
C306 C305 1.415 . S
C307 H283 0.951 . S
C307 C308 1.366 . S
C307 C309 1.388 . S
C308 C307 1.366 . S
C308 C312 1.385 . S
C309 H284 0.951 1_554 S
C309 C307 1.388 . S
C309 C310 1.366 . S
C310 C309 1.366 . S
C310 C311 1.414 . S
C310 C313 1.499 . S
C311 H285 0.950 . S
C311 C310 1.414 . S
C311 C312 1.374 . S
C312 H286 0.950 . S
C312 C308 1.385 . S
C312 C311 1.374 . S
C313 C310 1.499 . S
C313 C314 1.373 . S
C313 C315 1.389 1_554 S
C314 H287 0.950 . S
C314 C300 1.377 . S
C314 C313 1.373 . S
C315 C299 1.377 . S
C315 C313 1.389 1_556 S
C315 C316 1.524 . S
C316 C315 1.524 . S
C316 C317 1.397 . S
C316 C321 1.363 . S
C317 H288 0.950 . S
C317 C316 1.397 . S
C317 C318 1.334 . S
C318 H289 0.950 . S
C318 C317 1.334 . S
C318 C319 1.287 . S
C319 C318 1.287 . S
C319 C320 1.524 . S
C319 H322 0.999 . S
C320 H290 0.950 . S
C320 C319 1.524 . S
C320 C321 1.415 . S
C321 H291 0.950 . S
C321 C316 1.363 . S
C321 C320 1.415 . S
H322 C319 0.999 . S
H323 C304 0.913 . S
H324 C342 0.951 . S
H325 C344 0.951 . S
H326 C346 0.950 . S
H327 C347 0.950 . S
H328 C349 0.950 . S
H329 C352 0.950 . S
H330 C353 0.950 . S
H331 C355 0.950 . S
H332 C356 0.950 . S
H333 C357 0.951 . S
H334 C359 0.951 . S
H335 C361 0.959 . S
H336 C362 0.950 . S
H337 C364 0.950 . S
H338 C367 0.950 . S
H339 C368 0.950 . S
H340 C370 0.950 . S
H341 C371 0.950 . S
C342 H324 0.951 . S
C342 C343 1.366 . S
C342 C344 1.388 . S
C343 C342 1.366 . S
C343 C347 1.385 . S
C344 H325 0.951 . S
C344 C342 1.388 . S
C344 C345 1.366 . S
C345 C344 1.366 . S
C345 C346 1.414 . S
C345 C348 1.499 . S
C346 H326 0.950 . S
C346 C345 1.414 . S
C346 C347 1.374 . S
C347 H327 0.950 . S
C347 C343 1.385 . S
C347 C346 1.374 . S
C348 C345 1.499 . S
C348 C349 1.373 1_556 S
C348 C350 1.389 . S
C349 H328 0.950 . S
C349 C348 1.373 1_554 S
C349 C365 1.377 . S
C350 C348 1.389 . S
C350 C351 1.524 . S
C350 C364 1.377 . S
C351 C350 1.524 . S
C351 C352 1.397 . S
C351 C356 1.363 . S
C352 H329 0.950 . S
C352 C351 1.397 . S
C352 C353 1.334 . S
C353 H330 0.950 . S
C353 C352 1.334 . S
C353 C354 1.287 . S
C354 C353 1.287 . S
C354 C355 1.524 . S
C354 H373 0.913 . S
C355 H331 0.950 . S
C355 C354 1.524 . S
C355 C356 1.415 . S
C356 H332 0.950 . S
C356 C351 1.363 . S
C356 C355 1.415 . S
C357 H333 0.951 . S
C357 C358 1.366 . S
C357 C359 1.388 . S
C358 C357 1.366 . S
C358 C362 1.385 . S
C359 H334 0.951 . S
C359 C357 1.388 . S
C359 C360 1.366 . S
C360 C359 1.366 . S
C360 C361 1.414 . S
C360 C363 1.499 . S
C361 H335 0.959 . S
C361 C360 1.414 . S
C361 C362 1.374 . S
C362 H336 0.950 . S
C362 C358 1.385 . S
C362 C361 1.374 . S
C363 C360 1.499 . S
C363 C364 1.373 1_554 S
C363 C365 1.389 . S
C364 H337 0.950 . S
C364 C350 1.377 . S
C364 C363 1.373 1_556 S
C365 C349 1.377 . S
C365 C363 1.389 . S
C365 C366 1.524 . S
C366 C365 1.524 . S
C366 C367 1.397 . S
C366 C371 1.363 . S
C367 H338 0.950 . S
C367 C366 1.397 . S
C367 C368 1.334 . S
C368 H339 0.950 . S
C368 C367 1.334 . S
C368 C369 1.287 . S
C369 C368 1.287 . S
C369 C370 1.524 . S
C369 H372 0.999 . S
C370 H340 0.950 . S
C370 C369 1.524 . S
C370 C371 1.415 . S
C371 H341 0.950 . S
C371 C366 1.363 . S
C371 C370 1.415 . S
H372 C369 0.999 . S
H373 C354 0.913 . S
H374 C392 0.951 . S
H375 C394 0.951 . S
H376 C396 0.950 . S
H377 C397 0.950 . S
H378 C399 0.950 1_554 S
H379 C402 0.950 . S
H380 C403 0.950 . S
H381 C405 0.950 . S
H382 C406 0.950 . S
H383 C407 0.951 . S
H384 C409 0.951 . S
H385 C411 0.950 . S
H386 C412 0.950 . S
H387 C414 0.950 . S
H388 C417 0.950 . S
H389 C418 0.950 . S
H390 C420 0.950 . S
H391 C421 0.950 . S
C392 H374 0.951 . S
C392 C393 1.366 . S
C392 C394 1.388 . S
C393 C392 1.366 . S
C393 C397 1.385 . S
C394 H375 0.951 . S
C394 C392 1.388 . S
C394 C395 1.366 . S
C395 C394 1.366 . S
C395 C396 1.414 . S
C395 C398 1.499 . S
C396 H376 0.950 . S
C396 C395 1.414 . S
C396 C397 1.374 . S
C397 H377 0.950 . S
C397 C393 1.385 . S
C397 C396 1.374 . S
C398 C395 1.499 . S
C398 C399 1.373 . S
C398 C400 1.389 . S
C399 H378 0.950 1_556 S
C399 C398 1.373 . S
C399 C415 1.377 1_556 S
C400 C398 1.389 . S
C400 C401 1.524 . S
C400 C414 1.377 . S
C401 C400 1.524 . S
C401 C402 1.397 . S
C401 C406 1.363 . S
C402 H379 0.950 . S
C402 C401 1.397 . S
C402 C403 1.334 . S
C403 H380 0.950 . S
C403 C402 1.334 . S
C403 C404 1.287 . S
C404 C403 1.287 . S
C404 C405 1.524 . S
C404 H423 0.913 . S
C405 H381 0.950 . S
C405 C404 1.524 . S
C405 C406 1.415 . S
C406 H382 0.950 . S
C406 C401 1.363 . S
C406 C405 1.415 . S
C407 H383 0.951 . S
C407 C408 1.366 . S
C407 C409 1.388 . S
C408 C407 1.366 . S
C408 C412 1.385 . S
C409 H384 0.951 . S
C409 C407 1.388 . S
C409 C410 1.366 . S
C410 C409 1.366 . S
C410 C411 1.414 . S
C410 C413 1.499 . S
C411 H385 0.950 . S
C411 C410 1.414 . S
C411 C412 1.374 . S
C412 H386 0.950 . S
C412 C408 1.385 . S
C412 C411 1.374 . S
C413 C410 1.499 . S
C413 C414 1.373 1_554 S
C413 C415 1.389 . S
C414 H387 0.950 . S
C414 C400 1.377 . S
C414 C413 1.373 1_556 S
C415 C399 1.377 1_554 S
C415 C413 1.389 . S
C415 C416 1.524 . S
C416 C415 1.524 . S
C416 C417 1.397 . S
C416 C421 1.363 . S
C417 H388 0.950 . S
C417 C416 1.397 . S
C417 C418 1.334 . S
C418 H389 0.950 . S
C418 C417 1.334 . S
C418 C419 1.287 . S
C419 C418 1.287 . S
C419 C420 1.524 . S
C419 H422 0.999 . S
C420 H390 0.950 . S
C420 C419 1.524 . S
C420 C421 1.415 . S
C421 H391 0.950 . S
C421 C416 1.363 . S
C421 C420 1.415 . S
H422 C419 0.999 . S
H423 C404 0.913 . S
H424 C442 0.951 . S
H425 C444 0.951 . S
H426 C446 0.950 . S
H427 C447 0.950 . S
H428 C449 0.950 . S
H429 C452 0.950 . S
H430 C453 0.950 . S
H431 C455 0.950 . S
H432 C456 0.950 . S
H433 C457 0.951 . S
H434 C459 0.951 . S
H435 C461 0.950 . S
H436 C462 0.950 . S
H437 C464 0.950 . S
H438 C467 0.950 . S
H439 C468 0.950 . S
H440 C470 0.950 . S
H441 C471 0.950 . S
C442 H424 0.951 . S
C442 C443 1.366 . S
C442 C444 1.388 . S
C443 C442 1.366 . S
C443 C447 1.385 . S
C444 H425 0.951 . S
C444 C442 1.388 . S
C444 C445 1.366 . S
C445 C444 1.366 . S
C445 C446 1.414 . S
C445 C448 1.499 . S
C446 H426 0.950 . S
C446 C445 1.414 . S
C446 C447 1.374 . S
C447 H427 0.950 . S
C447 C443 1.385 . S
C447 C446 1.374 . S
C448 C445 1.499 . S
C448 C449 1.373 . S
C448 C450 1.389 . S
C449 H428 0.950 . S
C449 C448 1.373 . S
C449 C465 1.377 . S
C450 C448 1.389 . S
C450 C451 1.524 . S
C450 C464 1.377 . S
C451 C450 1.524 . S
C451 C452 1.397 . S
C451 C456 1.363 . S
C452 H429 0.950 . S
C452 C451 1.397 . S
C452 C453 1.334 . S
C453 H430 0.950 . S
C453 C452 1.334 . S
C453 C454 1.287 . S
C454 C453 1.287 . S
C454 C455 1.524 . S
C454 H473 0.913 . S
C455 H431 0.950 . S
C455 C454 1.524 . S
C455 C456 1.415 . S
C456 H432 0.950 . S
C456 C451 1.363 . S
C456 C455 1.415 . S
C457 H433 0.951 . S
C457 C458 1.366 . S
C457 C459 1.388 . S
C458 C457 1.366 . S
C458 C462 1.385 . S
C459 H434 0.951 . S
C459 C457 1.388 . S
C459 C460 1.366 . S
C460 C459 1.366 . S
C460 C461 1.414 . S
C460 C463 1.499 . S
C461 H435 0.950 . S
C461 C460 1.414 . S
C461 C462 1.374 . S
C462 H436 0.950 . S
C462 C458 1.385 . S
C462 C461 1.374 . S
C463 C460 1.499 . S
C463 C464 1.373 . S
C463 C465 1.389 . S
C464 H437 0.950 . S
C464 C450 1.377 . S
C464 C463 1.373 . S
C465 C449 1.377 . S
C465 C463 1.389 . S
C465 C466 1.524 . S
C466 C465 1.524 . S
C466 C467 1.397 . S
C466 C471 1.363 . S
C467 H438 0.950 . S
C467 C466 1.397 . S
C467 C468 1.334 . S
C468 H439 0.950 . S
C468 C467 1.334 . S
C468 C469 1.287 . S
C469 C468 1.287 . S
C469 C470 1.524 . S
C469 H472 0.999 . S
C470 H440 0.950 . S
C470 C469 1.524 . S
C470 C471 1.415 . S
C471 H441 0.950 . S
C471 C466 1.363 . S
C471 C470 1.415 . S
H472 C469 0.999 . S
H473 C454 0.913 . S
H474 C492 0.951 . S
H475 C494 0.951 . S
H476 C496 0.950 . S
H477 C497 0.950 . S
H478 C499 0.950 . S
H479 C502 0.950 . S
H480 C503 0.950 . S
H481 C505 0.950 . S
H482 C506 0.950 . S
H483 C507 0.951 . S
H484 C509 0.951 . S
H485 C511 0.950 . S
H486 C512 0.950 . S
H487 C514 0.950 . S
H488 C517 0.950 . S
H489 C518 0.950 . S
H490 C520 0.950 . S
H491 C521 0.950 . S
C492 H474 0.951 . S
C492 C493 1.366 . S
C492 C494 1.388 . S
C493 C492 1.366 . S
C493 C497 1.385 . S
C494 H475 0.951 . S
C494 C492 1.388 . S
C494 C495 1.366 . S
C495 C494 1.366 . S
C495 C496 1.414 . S
C495 C498 1.499 . S
C496 H476 0.950 . S
C496 C495 1.414 . S
C496 C497 1.374 . S
C497 H477 0.950 . S
C497 C493 1.385 . S
C497 C496 1.374 . S
C498 C495 1.499 . S
C498 C499 1.373 . S
C498 C500 1.389 . S
C499 H478 0.950 . S
C499 C498 1.373 . S
C499 C515 1.377 . S
C500 C498 1.389 . S
C500 C501 1.524 . S
C500 C514 1.377 . S
C501 C500 1.524 . S
C501 C502 1.397 . S
C501 C506 1.363 . S
C502 H479 0.950 . S
C502 C501 1.397 . S
C502 C503 1.334 . S
C503 H480 0.950 . S
C503 C502 1.334 . S
C503 C504 1.287 . S
C504 C503 1.287 . S
C504 C505 1.524 . S
C504 H523 0.913 . S
C505 H481 0.950 . S
C505 C504 1.524 . S
C505 C506 1.415 . S
C506 H482 0.950 . S
C506 C501 1.363 . S
C506 C505 1.415 . S
C507 H483 0.951 . S
C507 C508 1.366 . S
C507 C509 1.388 . S
C508 C507 1.366 . S
C508 C512 1.385 . S
C509 H484 0.951 . S
C509 C507 1.388 . S
C509 C510 1.366 . S
C510 C509 1.366 . S
C510 C511 1.414 . S
C510 C513 1.499 . S
C511 H485 0.950 . S
C511 C510 1.414 . S
C511 C512 1.374 . S
C512 H486 0.950 . S
C512 C508 1.385 . S
C512 C511 1.374 . S
C513 C510 1.499 . S
C513 C514 1.373 . S
C513 C515 1.389 . S
C514 H487 0.950 . S
C514 C500 1.377 . S
C514 C513 1.373 . S
C515 C499 1.377 . S
C515 C513 1.389 . S
C515 C516 1.524 . S
C516 C515 1.524 . S
C516 C517 1.397 . S
C516 C521 1.363 . S
C517 H488 0.950 . S
C517 C516 1.397 . S
C517 C518 1.334 . S
C518 H489 0.950 . S
C518 C517 1.334 . S
C518 C519 1.287 . S
C519 C518 1.287 . S
C519 C520 1.524 . S
C519 H522 0.999 . S
C520 H490 0.950 . S
C520 C519 1.524 . S
C520 C521 1.415 . S
C521 H491 0.950 . S
C521 C516 1.363 . S
C521 C520 1.415 . S
H522 C519 0.999 . S
H523 C504 0.913 . S
H524 C542 0.951 . S
H525 C544 0.951 . S
H526 C546 0.950 . S
H527 C547 0.950 . S
H528 C549 0.950 . S
H529 C552 0.950 . S
H530 C553 0.950 . S
H531 C555 0.950 . S
H532 C556 0.950 . S
H533 C557 0.951 . S
H534 C559 0.951 . S
H535 C561 0.950 . S
H536 C562 0.950 . S
H537 C564 0.950 . S
H538 C567 0.950 . S
H539 C568 0.950 . S
H540 C570 0.950 . S
H541 C571 0.950 . S
C542 H524 0.951 . S
C542 C543 1.366 . S
C542 C544 1.388 . S
C543 C542 1.366 . S
C543 C547 1.385 . S
C544 H525 0.951 . S
C544 C542 1.388 . S
C544 C545 1.366 . S
C545 C544 1.366 . S
C545 C546 1.414 . S
C545 C548 1.499 . S
C546 H526 0.950 . S
C546 C545 1.414 . S
C546 C547 1.374 . S
C547 H527 0.950 . S
C547 C543 1.385 . S
C547 C546 1.374 . S
C548 C545 1.499 . S
C548 C549 1.373 . S
C548 C550 1.389 . S
C549 H528 0.950 . S
C549 C548 1.373 . S
C549 C565 1.377 . S
C550 C548 1.389 . S
C550 C551 1.524 . S
C550 C564 1.377 . S
C551 C550 1.524 . S
C551 C552 1.397 . S
C551 C556 1.363 . S
C552 H529 0.950 . S
C552 C551 1.397 . S
C552 C553 1.334 . S
C553 H530 0.950 . S
C553 C552 1.334 . S
C553 C554 1.287 . S
C554 C553 1.287 . S
C554 C555 1.524 . S
C554 H573 0.913 . S
C555 H531 0.950 . S
C555 C554 1.524 . S
C555 C556 1.415 . S
C556 H532 0.950 . S
C556 C551 1.363 . S
C556 C555 1.415 . S
C557 H533 0.951 . S
C557 C558 1.366 . S
C557 C559 1.388 . S
C558 C557 1.366 . S
C558 C562 1.385 . S
C559 H534 0.951 . S
C559 C557 1.388 . S
C559 C560 1.366 . S
C560 C559 1.366 . S
C560 C561 1.414 . S
C560 C563 1.499 . S
C561 H535 0.950 . S
C561 C560 1.414 . S
C561 C562 1.374 . S
C562 H536 0.950 . S
C562 C558 1.385 . S
C562 C561 1.374 . S
C563 C560 1.499 . S
C563 C564 1.373 . S
C563 C565 1.389 . S
C564 H537 0.950 . S
C564 C550 1.377 . S
C564 C563 1.373 . S
C565 C549 1.377 . S
C565 C563 1.389 . S
C565 C566 1.524 . S
C566 C565 1.524 . S
C566 C567 1.397 . S
C566 C571 1.363 . S
C567 H538 0.950 . S
C567 C566 1.397 . S
C567 C568 1.334 . S
C568 H539 0.950 . S
C568 C567 1.334 . S
C568 C569 1.287 . S
C569 C568 1.287 . S
C569 C570 1.524 . S
C569 H572 0.999 . S
C570 H540 0.950 . S
C570 C569 1.524 . S
C570 C571 1.415 . S
C571 H541 0.950 . S
C571 C566 1.363 . S
C571 C570 1.415 . S
H572 C569 0.999 . S
H573 C554 0.913 . S
H574 C592 0.951 . S
H575 C594 0.951 . S
H576 C596 0.950 . S
H577 C597 0.950 . S
H578 C599 0.950 . S
H579 C602 0.950 . S
H580 C603 0.950 . S
H581 C605 0.950 . S
H582 C606 0.950 . S
H583 C607 0.951 . S
H584 C609 0.951 . S
H585 C611 0.950 . S
H586 C612 0.950 . S
H587 C614 0.950 . S
H588 C617 0.950 . S
H589 C618 0.950 . S
H590 C620 0.950 1_545 S
H591 C621 0.950 . S
C592 H574 0.951 . S
C592 C593 1.366 . S
C592 C594 1.388 . S
C593 C592 1.366 . S
C593 C597 1.385 . S
C594 H575 0.951 . S
C594 C592 1.388 . S
C594 C595 1.366 . S
C595 C594 1.366 . S
C595 C596 1.414 . S
C595 C598 1.499 . S
C596 H576 0.950 . S
C596 C595 1.414 . S
C596 C597 1.374 . S
C597 H577 0.950 . S
C597 C593 1.385 . S
C597 C596 1.374 . S
C598 C595 1.499 . S
C598 C599 1.373 . S
C598 C600 1.389 . S
C599 H578 0.950 . S
C599 C598 1.373 . S
C599 C615 1.377 . S
C600 C598 1.389 . S
C600 C601 1.524 . S
C600 C614 1.377 . S
C601 C600 1.524 . S
C601 C602 1.397 . S
C601 C606 1.363 . S
C602 H579 0.950 . S
C602 C601 1.397 . S
C602 C603 1.334 . S
C603 H580 0.950 . S
C603 C602 1.334 . S
C603 C604 1.287 . S
C604 C603 1.287 . S
C604 C605 1.524 . S
C604 H623 0.913 . S
C605 H581 0.950 . S
C605 C604 1.524 . S
C605 C606 1.415 . S
C606 H582 0.950 . S
C606 C601 1.363 . S
C606 C605 1.415 . S
C607 H583 0.951 . S
C607 C608 1.366 . S
C607 C609 1.388 . S
C608 C607 1.366 . S
C608 C612 1.385 . S
C609 H584 0.951 . S
C609 C607 1.388 . S
C609 C610 1.366 . S
C610 C609 1.366 . S
C610 C611 1.414 . S
C610 C613 1.499 . S
C611 H585 0.950 . S
C611 C610 1.414 . S
C611 C612 1.374 . S
C612 H586 0.950 . S
C612 C608 1.385 . S
C612 C611 1.374 . S
C613 C610 1.499 . S
C613 C614 1.373 . S
C613 C615 1.389 . S
C614 H587 0.950 . S
C614 C600 1.377 . S
C614 C613 1.373 . S
C615 C599 1.377 . S
C615 C613 1.389 . S
C615 C616 1.524 . S
C616 C615 1.524 . S
C616 C617 1.397 . S
C616 C621 1.363 . S
C617 H588 0.950 . S
C617 C616 1.397 . S
C617 C618 1.334 . S
C618 H589 0.950 . S
C618 C617 1.334 . S
C618 C619 1.287 . S
C619 C618 1.287 . S
C619 C620 1.524 . S
C619 H622 0.999 . S
C620 H590 0.950 1_565 S
C620 C619 1.524 . S
C620 C621 1.415 . S
C621 H591 0.950 . S
C621 C616 1.363 . S
C621 C620 1.415 . S
H622 C619 0.999 . S
H623 C604 0.913 . S
H624 C642 0.951 . S
H625 C644 0.951 . S
H626 C646 0.950 . S
H627 C647 0.950 . S
H628 C649 0.950 . S
H629 C652 0.950 . S
H630 C653 0.950 . S
H631 C655 0.950 . S
H632 C656 0.950 . S
H633 C657 0.951 . S
H634 C659 0.951 . S
H635 C661 0.950 . S
H636 C662 0.950 . S
H637 C664 0.950 . S
H638 C667 0.950 . S
H639 C668 0.950 . S
H640 C670 0.950 . S
H641 C671 0.950 . S
C642 H624 0.951 . S
C642 C643 1.366 . S
C642 C644 1.388 . S
C643 C642 1.366 . S
C643 C647 1.385 . S
C644 H625 0.951 . S
C644 C642 1.388 . S
C644 C645 1.366 . S
C645 C644 1.366 . S
C645 C646 1.414 . S
C645 C648 1.499 . S
C646 H626 0.950 . S
C646 C645 1.414 . S
C646 C647 1.374 . S
C647 H627 0.950 . S
C647 C643 1.385 . S
C647 C646 1.374 . S
C648 C645 1.499 . S
C648 C649 1.373 1_556 S
C648 C650 1.389 . S
C649 H628 0.950 . S
C649 C648 1.373 1_554 S
C649 C665 1.377 . S
C650 C648 1.389 . S
C650 C651 1.524 . S
C650 C664 1.377 1_556 S
C651 C650 1.524 . S
C651 C652 1.397 . S
C651 C656 1.363 . S
C652 H629 0.950 . S
C652 C651 1.397 . S
C652 C653 1.334 . S
C653 H630 0.950 . S
C653 C652 1.334 . S
C653 C654 1.287 . S
C654 C653 1.287 . S
C654 C655 1.524 . S
C654 H673 0.913 . S
C655 H631 0.950 . S
C655 C654 1.524 . S
C655 C656 1.415 . S
C656 H632 0.950 . S
C656 C651 1.363 . S
C656 C655 1.415 . S
C657 H633 0.951 . S
C657 C658 1.366 . S
C657 C659 1.388 . S
C658 C657 1.366 . S
C658 C662 1.385 . S
C659 H634 0.951 . S
C659 C657 1.388 . S
C659 C660 1.366 . S
C660 C659 1.366 . S
C660 C661 1.414 . S
C660 C663 1.499 . S
C661 H635 0.950 . S
C661 C660 1.414 . S
C661 C662 1.374 . S
C662 H636 0.950 . S
C662 C658 1.385 . S
C662 C661 1.374 . S
C663 C660 1.499 . S
C663 C664 1.373 . S
C663 C665 1.389 . S
C664 H637 0.950 . S
C664 C650 1.377 1_554 S
C664 C663 1.373 . S
C665 C649 1.377 . S
C665 C663 1.389 . S
C665 C666 1.524 . S
C666 C665 1.524 . S
C666 C667 1.397 . S
C666 C671 1.363 . S
C667 H638 0.950 . S
C667 C666 1.397 . S
C667 C668 1.334 . S
C668 H639 0.950 . S
C668 C667 1.334 . S
C668 C669 1.287 . S
C669 C668 1.287 . S
C669 C670 1.524 . S
C669 H672 0.999 . S
C670 H640 0.950 . S
C670 C669 1.524 . S
C670 C671 1.415 . S
C671 H641 0.950 . S
C671 C666 1.363 . S
C671 C670 1.415 . S
H672 C669 0.999 . S
H673 C654 0.913 . S
H674 C692 0.951 . S
H675 C694 0.951 1_554 S
H676 C696 0.950 . S
H677 C697 0.950 . S
H678 C699 0.950 . S
H679 C702 0.950 1_556 S
H680 C703 0.950 . S
H681 C705 0.950 . S
H682 C706 0.950 . S
H683 C707 0.951 . S
H684 C709 0.951 . S
H685 C711 0.950 . S
H686 C712 0.950 . S
H687 C714 0.950 . S
H688 C717 0.950 . S
H689 C718 0.950 . S
H690 C720 0.950 . S
H691 C721 0.950 . S
C692 H674 0.951 . S
C692 C693 1.366 . S
C692 C694 1.388 . S
C693 C692 1.366 . S
C693 C697 1.385 . S
C694 H675 0.951 1_556 S
C694 C692 1.388 . S
C694 C695 1.366 . S
C695 C694 1.366 . S
C695 C696 1.414 . S
C695 C698 1.499 . S
C696 H676 0.950 . S
C696 C695 1.414 . S
C696 C697 1.374 . S
C697 H677 0.950 . S
C697 C693 1.385 . S
C697 C696 1.374 . S
C698 C695 1.499 . S
C698 C699 1.373 . S
C698 C700 1.389 1_556 S
C699 H678 0.950 . S
C699 C698 1.373 . S
C699 C715 1.377 1_556 S
C700 C698 1.389 1_554 S
C700 C701 1.524 . S
C700 C714 1.377 . S
C701 C700 1.524 . S
C701 C702 1.397 . S
C701 C706 1.363 . S
C702 H679 0.950 1_554 S
C702 C701 1.397 . S
C702 C703 1.334 . S
C703 H680 0.950 . S
C703 C702 1.334 . S
C703 C704 1.287 . S
C704 C703 1.287 . S
C704 C705 1.524 . S
C704 H723 0.913 . S
C705 H681 0.950 . S
C705 C704 1.524 . S
C705 C706 1.415 . S
C706 H682 0.950 . S
C706 C701 1.363 . S
C706 C705 1.415 . S
C707 H683 0.951 . S
C707 C708 1.366 . S
C707 C709 1.388 . S
C708 C707 1.366 . S
C708 C712 1.385 . S
C709 H684 0.951 . S
C709 C707 1.388 . S
C709 C710 1.366 . S
C710 C709 1.366 . S
C710 C711 1.414 . S
C710 C713 1.499 . S
C711 H685 0.950 . S
C711 C710 1.414 . S
C711 C712 1.374 . S
C712 H686 0.950 . S
C712 C708 1.385 . S
C712 C711 1.374 . S
C713 C710 1.499 . S
C713 C714 1.373 . S
C713 C715 1.389 . S
C714 H687 0.950 . S
C714 C700 1.377 . S
C714 C713 1.373 . S
C715 C699 1.377 1_554 S
C715 C713 1.389 . S
C715 C716 1.524 1_554 S
C716 C715 1.524 1_556 S
C716 C717 1.397 1_556 S
C716 C721 1.363 . S
C717 H688 0.950 . S
C717 C716 1.397 1_554 S
C717 C718 1.334 . S
C718 H689 0.950 . S
C718 C717 1.334 . S
C718 C719 1.287 1_554 S
C719 C718 1.287 1_556 S
C719 C720 1.524 . S
C719 H722 0.999 . S
C720 H690 0.950 . S
C720 C719 1.524 . S
C720 C721 1.415 . S
C721 H691 0.950 . S
C721 C716 1.363 . S
C721 C720 1.415 . S
H722 C719 0.999 . S
H723 C704 0.913 . S
H724 C742 0.951 . S
H725 C744 0.951 . S
H726 C746 0.950 1_554 S
H727 C747 0.950 . S
H728 C749 0.950 1_556 S
H729 C752 0.950 . S
H730 C753 0.950 . S
H731 C755 0.950 1_556 S
H732 C756 0.950 1_556 S
H733 C757 0.951 . S
H734 C759 0.951 . S
H735 C761 0.950 . S
H736 C762 0.950 . S
H737 C764 0.950 . S
H738 C767 0.939 1_556 S
H739 C768 0.950 1_556 S
H740 C770 0.928 1_655 S
H741 C771 0.950 . S
C742 H724 0.951 . S
C742 C743 1.366 . S
C742 C744 1.388 . S
C743 C742 1.366 . S
C743 C747 1.385 . S
C744 H725 0.951 . S
C744 C742 1.388 . S
C744 C745 1.366 . S
C745 C744 1.366 . S
C745 C746 1.414 . S
C745 C748 1.504 . S
C746 H726 0.950 1_556 S
C746 C745 1.414 . S
C746 C747 1.374 . S
C747 H727 0.950 . S
C747 C743 1.385 . S
C747 C746 1.374 . S
C748 C745 1.504 . S
C748 C749 1.372 1_556 S
C748 C750 1.385 1_556 S
C749 H728 0.950 1_554 S
C749 C748 1.372 1_554 S
C749 C765 1.377 . S
C750 C748 1.385 1_554 S
C750 C751 1.524 . S
C750 C764 1.377 . S
C751 C750 1.524 . S
C751 C752 1.397 . S
C751 C756 1.363 . S
C752 H729 0.950 . S
C752 C751 1.397 . S
C752 C753 1.334 . S
C753 H730 0.950 . S
C753 C752 1.334 . S
C753 C754 1.287 . S
C754 C753 1.287 . S
C754 C755 1.524 . S
C754 H773 0.913 . S
C755 H731 0.950 1_554 S
C755 C754 1.524 . S
C755 C756 1.415 . S
C756 H732 0.950 1_554 S
C756 C751 1.363 . S
C756 C755 1.415 . S
C757 H733 0.951 . S
C757 C758 1.366 . S
C757 C759 1.388 . S
C758 C757 1.366 . S
C758 C762 1.385 . S
C759 H734 0.951 . S
C759 C757 1.388 . S
C759 C760 1.366 . S
C760 C759 1.366 . S
C760 C761 1.414 . S
C760 C763 1.499 . S
C761 H735 0.950 . S
C761 C760 1.414 . S
C761 C762 1.374 . S
C762 H736 0.950 . S
C762 C758 1.385 . S
C762 C761 1.374 . S
C763 C760 1.499 . S
C763 C764 1.373 . S
C763 C765 1.389 . S
C764 H737 0.950 . S
C764 C750 1.377 . S
C764 C763 1.373 . S
C765 C749 1.377 . S
C765 C763 1.389 . S
C765 C766 1.524 . S
C766 C765 1.524 . S
C766 C767 1.397 . S
C766 C771 1.363 . S
C767 H738 0.939 1_554 S
C767 C766 1.397 . S
C767 C768 1.334 . S
C768 H739 0.950 1_554 S
C768 C767 1.334 . S
C768 C769 1.287 . S
C769 C768 1.287 . S
C769 C770 1.524 . S
C769 H772 0.999 . S
C770 H740 0.928 1_455 S
C770 C769 1.524 . S
C770 C771 1.415 . S
C771 H741 0.950 . S
C771 C766 1.363 . S
C771 C770 1.415 . S
H772 C769 0.999 . S
H773 C754 0.913 . S
H774 C792 0.951 . S
H775 C794 0.951 . S
H776 C796 0.950 . S
H777 C797 0.950 . S
H778 C799 0.950 . S
H779 C802 0.950 . S
H780 C803 0.950 . S
H781 C805 0.950 . S
H782 C806 0.950 . S
H783 C807 0.951 . S
H784 C809 0.951 . S
H785 C811 0.950 . S
H786 C812 0.950 . S
H787 C814 0.950 . S
H788 C817 0.950 . S
H789 C818 0.950 . S
H790 C820 0.954 . S
H791 C821 0.950 . S
C792 H774 0.951 . S
C792 C793 1.366 . S
C792 C794 1.388 . S
C793 C792 1.366 . S
C793 C797 1.385 . S
C794 H775 0.951 . S
C794 C792 1.388 . S
C794 C795 1.366 . S
C795 C794 1.366 . S
C795 C796 1.414 . S
C795 C798 1.499 . S
C796 H776 0.950 . S
C796 C795 1.414 . S
C796 C797 1.374 . S
C797 H777 0.950 . S
C797 C793 1.385 . S
C797 C796 1.374 . S
C798 C795 1.499 . S
C798 C799 1.373 . S
C798 C800 1.389 . S
C799 H778 0.950 . S
C799 C798 1.373 . S
C799 C815 1.377 . S
C800 C798 1.389 . S
C800 C801 1.524 1_554 S
C800 C814 1.377 1_554 S
C801 C800 1.524 1_556 S
C801 C802 1.397 . S
C801 C806 1.363 . S
C802 H779 0.950 . S
C802 C801 1.397 . S
C802 C803 1.334 . S
C803 H780 0.950 . S
C803 C802 1.334 . S
C803 C804 1.287 . S
C804 C803 1.287 . S
C804 C805 1.524 . S
C804 H823 0.913 . S
C805 H781 0.950 . S
C805 C804 1.524 . S
C805 C806 1.415 . S
C806 H782 0.950 . S
C806 C801 1.363 . S
C806 C805 1.415 . S
C807 H783 0.951 . S
C807 C808 1.366 . S
C807 C809 1.388 . S
C808 C807 1.366 . S
C808 C812 1.385 . S
C809 H784 0.951 . S
C809 C807 1.388 . S
C809 C810 1.366 . S
C810 C809 1.366 . S
C810 C811 1.414 . S
C810 C813 1.508 . S
C811 H785 0.950 . S
C811 C810 1.414 . S
C811 C812 1.374 . S
C812 H786 0.950 . S
C812 C808 1.385 . S
C812 C811 1.374 . S
C813 C810 1.508 . S
C813 C814 1.379 . S
C813 C815 1.375 1_556 S
C814 H787 0.950 . S
C814 C800 1.377 1_556 S
C814 C813 1.379 . S
C815 C799 1.377 . S
C815 C813 1.375 1_554 S
C815 C816 1.524 . S
C816 C815 1.524 . S
C816 C817 1.397 . S
C816 C821 1.363 . S
C817 H788 0.950 . S
C817 C816 1.397 . S
C817 C818 1.334 . S
C818 H789 0.950 . S
C818 C817 1.334 . S
C818 C819 1.287 . S
C819 C818 1.287 . S
C819 C820 1.524 . S
C819 H822 0.999 . S
C820 H790 0.954 . S
C820 C819 1.524 . S
C820 C821 1.415 . S
C821 H791 0.950 . S
C821 C816 1.363 . S
C821 C820 1.415 . S
H822 C819 0.999 . S
H823 C804 0.913 . S
H824 C842 0.951 . S
H825 C844 0.951 . S
H826 C846 0.950 . S
H827 C847 0.950 . S
H828 C849 0.950 . S
H829 C852 0.950 . S
H830 C853 0.950 . S
H831 C855 0.950 . S
H832 C856 0.950 . S
H833 C857 0.951 . S
H834 C859 0.951 . S
H835 C861 0.950 . S
H836 C862 0.950 . S
H837 C864 0.950 . S
H838 C867 0.950 . S
H839 C868 0.950 . S
H840 C870 0.950 . S
H841 C871 0.950 . S
C842 H824 0.951 . S
C842 C843 1.366 . S
C842 C844 1.388 . S
C843 C842 1.366 . S
C843 C847 1.385 . S
C844 H825 0.951 . S
C844 C842 1.388 . S
C844 C845 1.366 . S
C845 C844 1.366 . S
C845 C846 1.414 . S
C845 C848 1.499 . S
C846 H826 0.950 . S
C846 C845 1.414 . S
C846 C847 1.374 . S
C847 H827 0.950 . S
C847 C843 1.385 . S
C847 C846 1.374 . S
C848 C845 1.499 . S
C848 C849 1.373 . S
C848 C850 1.389 . S
C849 H828 0.950 . S
C849 C848 1.373 . S
C849 C865 1.377 . S
C850 C848 1.389 . S
C850 C851 1.524 . S
C850 C864 1.377 . S
C851 C850 1.524 . S
C851 C852 1.397 . S
C851 C856 1.363 . S
C852 H829 0.950 . S
C852 C851 1.397 . S
C852 C853 1.334 . S
C853 H830 0.950 . S
C853 C852 1.334 . S
C853 C854 1.287 . S
C854 C853 1.287 . S
C854 C855 1.524 . S
C854 H873 0.913 . S
C855 H831 0.950 . S
C855 C854 1.524 . S
C855 C856 1.415 . S
C856 H832 0.950 . S
C856 C851 1.363 . S
C856 C855 1.415 . S
C857 H833 0.951 . S
C857 C858 1.366 . S
C857 C859 1.388 . S
C858 C857 1.366 . S
C858 C862 1.385 . S
C859 H834 0.951 . S
C859 C857 1.388 . S
C859 C860 1.366 . S
C860 C859 1.366 . S
C860 C861 1.414 . S
C860 C863 1.499 . S
C861 H835 0.950 . S
C861 C860 1.414 . S
C861 C862 1.374 . S
C862 H836 0.950 . S
C862 C858 1.385 . S
C862 C861 1.374 . S
C863 C860 1.499 . S
C863 C864 1.373 . S
C863 C865 1.389 . S
C864 H837 0.950 . S
C864 C850 1.377 . S
C864 C863 1.373 . S
C865 C849 1.377 . S
C865 C863 1.389 . S
C865 C866 1.524 . S
C866 C865 1.524 . S
C866 C867 1.397 . S
C866 C871 1.363 . S
C867 H838 0.950 . S
C867 C866 1.397 . S
C867 C868 1.334 . S
C868 H839 0.950 . S
C868 C867 1.334 . S
C868 C869 1.287 . S
C869 C868 1.287 . S
C869 C870 1.524 . S
C869 H872 0.999 . S
C870 H840 0.950 . S
C870 C869 1.524 . S
C870 C871 1.415 . S
C871 H841 0.950 . S
C871 C866 1.363 . S
C871 C870 1.415 . S
H872 C869 0.999 . S
H873 C854 0.913 . S
H874 C892 0.951 . S
H875 C894 0.951 . S
H876 C896 0.950 . S
H877 C897 0.950 . S
H878 C899 0.950 . S
H879 C902 0.950 . S
H880 C903 0.950 . S
H881 C905 0.950 . S
H882 C906 0.950 . S
H883 C907 0.951 . S
H884 C909 0.951 . S
H885 C911 0.950 . S
H886 C912 0.950 . S
H887 C914 0.950 . S
H888 C917 0.950 . S
H889 C918 0.950 . S
H890 C920 0.950 . S
H891 C921 0.950 . S
C892 H874 0.951 . S
C892 C893 1.366 . S
C892 C894 1.388 . S
C893 C892 1.366 . S
C893 C897 1.385 . S
C894 H875 0.951 . S
C894 C892 1.388 . S
C894 C895 1.366 . S
C895 C894 1.366 . S
C895 C896 1.414 . S
C895 C898 1.499 . S
C896 H876 0.950 . S
C896 C895 1.414 . S
C896 C897 1.374 . S
C897 H877 0.950 . S
C897 C893 1.385 . S
C897 C896 1.374 . S
C898 C895 1.499 . S
C898 C899 1.373 . S
C898 C900 1.389 . S
C899 H878 0.950 . S
C899 C898 1.373 . S
C899 C915 1.377 . S
C900 C898 1.389 . S
C900 C901 1.524 . S
C900 C914 1.377 . S
C901 C900 1.524 . S
C901 C902 1.397 . S
C901 C906 1.363 . S
C902 H879 0.950 . S
C902 C901 1.397 . S
C902 C903 1.334 . S
C903 H880 0.950 . S
C903 C902 1.334 . S
C903 C904 1.287 . S
C904 C903 1.287 . S
C904 C905 1.524 . S
C904 H923 0.913 . S
C905 H881 0.950 . S
C905 C904 1.524 . S
C905 C906 1.415 . S
C906 H882 0.950 . S
C906 C901 1.363 . S
C906 C905 1.415 . S
C907 H883 0.951 . S
C907 C908 1.366 . S
C907 C909 1.388 . S
C908 C907 1.366 . S
C908 C912 1.385 . S
C909 H884 0.951 . S
C909 C907 1.388 . S
C909 C910 1.366 . S
C910 C909 1.366 . S
C910 C911 1.414 . S
C910 C913 1.499 . S
C911 H885 0.950 . S
C911 C910 1.414 . S
C911 C912 1.374 . S
C912 H886 0.950 . S
C912 C908 1.385 . S
C912 C911 1.374 . S
C913 C910 1.499 . S
C913 C914 1.373 . S
C913 C915 1.389 . S
C914 H887 0.950 . S
C914 C900 1.377 . S
C914 C913 1.373 . S
C915 C899 1.377 . S
C915 C913 1.389 . S
C915 C916 1.524 . S
C916 C915 1.524 . S
C916 C917 1.397 . S
C916 C921 1.363 . S
C917 H888 0.950 . S
C917 C916 1.397 . S
C917 C918 1.334 . S
C918 H889 0.950 . S
C918 C917 1.334 . S
C918 C919 1.287 . S
C919 C918 1.287 . S
C919 C920 1.524 . S
C919 H922 0.999 . S
C920 H890 0.950 . S
C920 C919 1.524 . S
C920 C921 1.415 . S
C921 H891 0.950 . S
C921 C916 1.363 . S
C921 C920 1.415 . S
H922 C919 0.999 . S
H923 C904 0.913 . S
H924 C942 0.951 . S
H925 C944 0.951 . S
H926 C946 0.950 . S
H927 C947 0.950 . S
H928 C949 0.950 . S
H929 C952 0.950 . S
H930 C953 0.950 . S
H931 C955 0.950 . S
H932 C956 0.950 . S
H933 C957 0.951 . S
H934 C959 0.951 . S
H935 C961 0.950 . S
H936 C962 0.950 . S
H937 C964 0.950 . S
H938 C967 0.950 . S
H939 C968 0.950 . S
H940 C970 0.950 . S
H941 C971 0.950 . S
C942 H924 0.951 . S
C942 C943 1.366 . S
C942 C944 1.388 . S
C943 C942 1.366 . S
C943 C947 1.385 . S
C944 H925 0.951 . S
C944 C942 1.388 . S
C944 C945 1.366 . S
C945 C944 1.366 . S
C945 C946 1.414 . S
C945 C948 1.499 . S
C946 H926 0.950 . S
C946 C945 1.414 . S
C946 C947 1.374 . S
C947 H927 0.950 . S
C947 C943 1.385 . S
C947 C946 1.374 . S
C948 C945 1.499 . S
C948 C949 1.373 . S
C948 C950 1.389 . S
C949 H928 0.950 . S
C949 C948 1.373 . S
C949 C965 1.377 . S
C950 C948 1.389 . S
C950 C951 1.524 . S
C950 C964 1.377 . S
C951 C950 1.524 . S
C951 C952 1.397 . S
C951 C956 1.363 . S
C952 H929 0.950 . S
C952 C951 1.397 . S
C952 C953 1.334 . S
C953 H930 0.950 . S
C953 C952 1.334 . S
C953 C954 1.287 . S
C954 C953 1.287 . S
C954 C955 1.524 . S
C954 H973 0.913 . S
C955 H931 0.950 . S
C955 C954 1.524 . S
C955 C956 1.415 . S
C956 H932 0.950 . S
C956 C951 1.363 . S
C956 C955 1.415 . S
C957 H933 0.951 . S
C957 C958 1.366 . S
C957 C959 1.388 . S
C958 C957 1.366 . S
C958 C962 1.385 . S
C959 H934 0.951 . S
C959 C957 1.388 . S
C959 C960 1.366 . S
C960 C959 1.366 . S
C960 C961 1.414 . S
C960 C963 1.499 . S
C961 H935 0.950 . S
C961 C960 1.414 . S
C961 C962 1.374 . S
C962 H936 0.950 . S
C962 C958 1.385 . S
C962 C961 1.374 . S
C963 C960 1.499 . S
C963 C964 1.373 . S
C963 C965 1.389 . S
C964 H937 0.950 . S
C964 C950 1.377 . S
C964 C963 1.373 . S
C965 C949 1.377 . S
C965 C963 1.389 . S
C965 C966 1.524 . S
C966 C965 1.524 . S
C966 C967 1.397 . S
C966 C971 1.363 . S
C967 H938 0.950 . S
C967 C966 1.397 . S
C967 C968 1.334 . S
C968 H939 0.950 . S
C968 C967 1.334 . S
C968 C969 1.287 . S
C969 C968 1.287 . S
C969 C970 1.524 . S
C969 H972 0.999 . S
C970 H940 0.950 . S
C970 C969 1.524 . S
C970 C971 1.415 . S
C971 H941 0.950 . S
C971 C966 1.363 . S
C971 C970 1.415 . S
H972 C969 0.999 . S
H973 C954 0.913 . S
H974 C992 0.951 . S
H975 C994 0.951 . S
H976 C996 0.950 . S
H977 C997 0.950 . S
H978 C999 0.950 . S
H979 C1002 0.950 . S
H980 C1003 0.950 . S
H981 C1005 0.950 . S
H982 C1006 0.950 . S
H983 C1007 0.951 . S
H984 C1009 0.951 . S
H985 C1011 0.950 . S
H986 C1012 0.950 . S
H987 C1014 0.950 . S
H988 C1017 0.950 . S
H989 C1018 0.950 . S
H990 C1020 0.950 . S
H991 C1021 0.950 . S
C992 H974 0.951 . S
C992 C993 1.366 . S
C992 C994 1.388 . S
C993 C992 1.366 . S
C993 C997 1.385 . S
C994 H975 0.951 . S
C994 C992 1.388 . S
C994 C995 1.366 . S
C995 C994 1.366 . S
C995 C996 1.414 . S
C995 C998 1.499 . S
C996 H976 0.950 . S
C996 C995 1.414 . S
C996 C997 1.374 . S
C997 H977 0.950 . S
C997 C993 1.385 . S
C997 C996 1.374 . S
C998 C995 1.499 . S
C998 C999 1.373 . S
C998 C1000 1.389 . S
C999 H978 0.950 . S
C999 C998 1.373 . S
C999 C1015 1.377 . S
C1000 C998 1.389 . S
C1000 C1001 1.524 . S
C1000 C1014 1.377 . S
C1001 C1000 1.524 . S
C1001 C1002 1.397 . S
C1001 C1006 1.363 . S
C1002 H979 0.950 . S
C1002 C1001 1.397 . S
C1002 C1003 1.334 . S
C1003 H980 0.950 . S
C1003 C1002 1.334 . S
C1003 C1004 1.287 . S
C1004 C1003 1.287 . S
C1004 C1005 1.524 . S
C1004 H1023 0.913 . S
C1005 H981 0.950 . S
C1005 C1004 1.524 . S
C1005 C1006 1.415 . S
C1006 H982 0.950 . S
C1006 C1001 1.363 . S
C1006 C1005 1.415 . S
C1007 H983 0.951 . S
C1007 C1008 1.366 . S
C1007 C1009 1.388 . S
C1008 C1007 1.366 . S
C1008 C1012 1.385 . S
C1009 H984 0.951 . S
C1009 C1007 1.388 . S
C1009 C1010 1.366 . S
C1010 C1009 1.366 . S
C1010 C1011 1.414 . S
C1010 C1013 1.499 . S
C1011 H985 0.950 . S
C1011 C1010 1.414 . S
C1011 C1012 1.374 . S
C1012 H986 0.950 . S
C1012 C1008 1.385 . S
C1012 C1011 1.374 . S
C1013 C1010 1.499 . S
C1013 C1014 1.373 . S
C1013 C1015 1.389 . S
C1014 H987 0.950 . S
C1014 C1000 1.377 . S
C1014 C1013 1.373 . S
C1015 C999 1.377 . S
C1015 C1013 1.389 . S
C1015 C1016 1.524 . S
C1016 C1015 1.524 . S
C1016 C1017 1.397 . S
C1016 C1021 1.363 . S
C1017 H988 0.950 . S
C1017 C1016 1.397 . S
C1017 C1018 1.334 . S
C1018 H989 0.950 . S
C1018 C1017 1.334 . S
C1018 C1019 1.287 . S
C1019 C1018 1.287 . S
C1019 C1020 1.524 . S
C1019 H1022 0.999 . S
C1020 H990 0.950 . S
C1020 C1019 1.524 . S
C1020 C1021 1.415 . S
C1021 H991 0.950 . S
C1021 C1016 1.363 . S
C1021 C1020 1.415 . S
H1022 C1019 0.999 . S
H1023 C1004 0.913 . S
H1024 C1042 0.951 . S
H1025 C1044 0.951 . S
H1026 C1046 0.950 . S
H1027 C1047 0.950 . S
H1028 C1049 0.950 . S
H1029 C1052 0.950 . S
H1030 C1053 0.938 1_565 S
H1031 C1055 0.950 . S
H1032 C1056 0.950 . S
H1033 C1057 0.951 . S
H1034 C1059 0.951 . S
H1035 C1061 0.950 . S
H1036 C1062 0.950 . S
H1037 C1064 0.954 . S
H1038 C1067 0.932 1_545 S
H1039 C1068 0.950 . S
H1040 C1070 0.950 . S
H1041 C1071 0.950 . S
C1042 H1024 0.951 . S
C1042 C1043 1.366 . S
C1042 C1044 1.388 . S
C1043 C1042 1.366 . S
C1043 C1047 1.385 . S
C1044 H1025 0.951 . S
C1044 C1042 1.388 . S
C1044 C1045 1.366 . S
C1045 C1044 1.366 . S
C1045 C1046 1.414 . S
C1045 C1048 1.499 . S
C1046 H1026 0.950 . S
C1046 C1045 1.414 . S
C1046 C1047 1.374 . S
C1047 H1027 0.950 . S
C1047 C1043 1.385 . S
C1047 C1046 1.374 . S
C1048 C1045 1.499 . S
C1048 C1049 1.373 1_556 S
C1048 C1050 1.389 . S
C1049 H1028 0.950 . S
C1049 C1048 1.373 1_554 S
C1049 C1065 1.377 . S
C1050 C1048 1.389 . S
C1050 C1051 1.524 1_565 S
C1050 C1064 1.388 1_565 S
C1051 C1050 1.524 1_545 S
C1051 C1052 1.397 1_545 S
C1051 C1056 1.363 . S
C1052 H1029 0.950 . S
C1052 C1051 1.397 1_565 S
C1052 C1053 1.327 1_565 S
C1053 H1030 0.938 1_545 S
C1053 C1052 1.327 1_545 S
C1053 C1054 1.308 . S
C1054 C1053 1.308 . S
C1054 C1055 1.524 . S
C1054 H1073 0.913 . S
C1055 H1031 0.950 . S
C1055 C1054 1.524 . S
C1055 C1056 1.415 . S
C1056 H1032 0.950 . S
C1056 C1051 1.363 . S
C1056 C1055 1.415 . S
C1057 H1033 0.951 . S
C1057 C1058 1.366 . S
C1057 C1059 1.388 . S
C1058 C1057 1.366 . S
C1058 C1062 1.385 . S
C1059 H1034 0.951 . S
C1059 C1057 1.388 . S
C1059 C1060 1.366 . S
C1060 C1059 1.366 . S
C1060 C1061 1.414 . S
C1060 C1063 1.499 . S
C1061 H1035 0.950 . S
C1061 C1060 1.414 . S
C1061 C1062 1.374 . S
C1062 H1036 0.950 . S
C1062 C1058 1.385 . S
C1062 C1061 1.374 . S
C1063 C1060 1.499 . S
C1063 C1064 1.358 1_554 S
C1063 C1065 1.389 1_545 S
C1064 H1037 0.954 . S
C1064 C1050 1.388 1_545 S
C1064 C1063 1.358 1_556 S
C1065 C1049 1.377 . S
C1065 C1063 1.389 1_565 S
C1065 C1066 1.524 . S
C1066 C1065 1.524 . S
C1066 C1067 1.397 . S
C1066 C1071 1.363 . S
C1067 H1038 0.932 1_565 S
C1067 C1066 1.397 . S
C1067 C1068 1.334 . S
C1068 H1039 0.950 . S
C1068 C1067 1.334 . S
C1068 C1069 1.287 . S
C1069 C1068 1.287 . S
C1069 C1070 1.524 . S
C1069 H1072 0.999 . S
C1070 H1040 0.950 . S
C1070 C1069 1.524 . S
C1070 C1071 1.415 . S
C1071 H1041 0.950 . S
C1071 C1066 1.363 . S
C1071 C1070 1.415 . S
H1072 C1069 0.999 . S
H1073 C1054 0.913 . S
H1074 C1092 0.951 . S
H1075 C1094 0.951 . S
H1076 C1096 0.950 . S
H1077 C1097 0.950 . S
H1078 C1099 0.950 . S
H1079 C1102 0.950 . S
H1080 C1103 0.950 . S
H1081 C1105 0.950 . S
H1082 C1106 0.950 . S
H1083 C1107 0.951 . S
H1084 C1109 0.951 . S
H1085 C1111 0.950 . S
H1086 C1112 0.950 . S
H1087 C1114 0.950 . S
H1088 C1117 0.950 . S
H1089 C1118 0.950 . S
H1090 C1120 0.950 . S
H1091 C1121 0.950 . S
C1092 H1074 0.951 . S
C1092 C1093 1.366 . S
C1092 C1094 1.388 . S
C1093 C1092 1.366 . S
C1093 C1097 1.385 . S
C1094 H1075 0.951 . S
C1094 C1092 1.388 . S
C1094 C1095 1.366 . S
C1095 C1094 1.366 . S
C1095 C1096 1.414 . S
C1095 C1098 1.499 . S
C1096 H1076 0.950 . S
C1096 C1095 1.414 . S
C1096 C1097 1.374 . S
C1097 H1077 0.950 . S
C1097 C1093 1.385 . S
C1097 C1096 1.374 . S
C1098 C1095 1.499 . S
C1098 C1099 1.373 1_554 S
C1098 C1100 1.389 . S
C1099 H1078 0.950 . S
C1099 C1098 1.373 1_556 S
C1099 C1115 1.377 . S
C1100 C1098 1.389 . S
C1100 C1101 1.524 . S
C1100 C1114 1.377 . S
C1101 C1100 1.524 . S
C1101 C1102 1.397 . S
C1101 C1106 1.363 . S
C1102 H1079 0.950 . S
C1102 C1101 1.397 . S
C1102 C1103 1.334 . S
C1103 H1080 0.950 . S
C1103 C1102 1.334 . S
C1103 C1104 1.287 . S
C1104 C1103 1.287 . S
C1104 C1105 1.524 . S
C1104 H1123 0.913 . S
C1105 H1081 0.950 . S
C1105 C1104 1.524 . S
C1105 C1106 1.415 . S
C1106 H1082 0.950 . S
C1106 C1101 1.363 . S
C1106 C1105 1.415 . S
C1107 H1083 0.951 . S
C1107 C1108 1.366 . S
C1107 C1109 1.388 . S
C1108 C1107 1.366 . S
C1108 C1112 1.385 . S
C1109 H1084 0.951 . S
C1109 C1107 1.388 . S
C1109 C1110 1.366 . S
C1110 C1109 1.366 . S
C1110 C1111 1.414 . S
C1110 C1113 1.499 . S
C1111 H1085 0.950 . S
C1111 C1110 1.414 . S
C1111 C1112 1.374 . S
C1112 H1086 0.950 . S
C1112 C1108 1.385 . S
C1112 C1111 1.374 . S
C1113 C1110 1.499 . S
C1113 C1114 1.373 1_556 S
C1113 C1115 1.389 . S
C1114 H1087 0.950 . S
C1114 C1100 1.377 . S
C1114 C1113 1.373 1_554 S
C1115 C1099 1.377 . S
C1115 C1113 1.389 . S
C1115 C1116 1.524 . S
C1116 C1115 1.524 . S
C1116 C1117 1.397 . S
C1116 C1121 1.363 . S
C1117 H1088 0.950 . S
C1117 C1116 1.397 . S
C1117 C1118 1.334 . S
C1118 H1089 0.950 . S
C1118 C1117 1.334 . S
C1118 C1119 1.287 . S
C1119 C1118 1.287 . S
C1119 C1120 1.524 . S
C1119 H1122 0.999 . S
C1120 H1090 0.950 . S
C1120 C1119 1.524 . S
C1120 C1121 1.415 . S
C1121 H1091 0.950 . S
C1121 C1116 1.363 . S
C1121 C1120 1.415 . S
H1122 C1119 0.999 . S
H1123 C1104 0.913 . S
H1124 C1142 0.951 . S
H1125 C1144 0.951 1_655 S
H1126 C1146 0.950 1_554 S
H1127 C1147 0.950 . S
H1128 C1149 0.950 . S
H1129 C1152 0.950 1_554 S
H1130 C1153 0.950 . S
H1131 C1155 0.950 . S
H1132 C1156 0.950 . S
H1133 C1157 0.951 . S
H1134 C1159 0.951 . S
H1135 C1161 0.978 . S
H1136 C1162 0.950 . S
H1137 C1164 0.950 . S
H1138 C1167 0.950 . S
H1139 C1168 0.950 . S
H1140 C1170 0.950 . S
H1141 C1171 0.950 . S
C1142 H1124 0.951 . S
C1142 C1143 1.366 . S
C1142 C1144 1.388 . S
C1143 C1142 1.366 . S
C1143 C1147 1.385 . S
C1144 H1125 0.951 1_455 S
C1144 C1142 1.388 . S
C1144 C1145 1.366 . S
C1145 C1144 1.366 . S
C1145 C1146 1.414 . S
C1145 C1148 1.499 . S
C1146 H1126 0.950 1_556 S
C1146 C1145 1.414 . S
C1146 C1147 1.374 . S
C1147 H1127 0.950 . S
C1147 C1143 1.385 . S
C1147 C1146 1.374 . S
C1148 C1145 1.499 . S
C1148 C1149 1.373 1_556 S
C1148 C1150 1.389 1_455 S
C1149 H1128 0.950 . S
C1149 C1148 1.373 1_554 S
C1149 C1165 1.377 . S
C1150 C1148 1.389 1_655 S
C1150 C1151 1.524 . S
C1150 C1164 1.377 1_556 S
C1151 C1150 1.524 . S
C1151 C1152 1.397 . S
C1151 C1156 1.363 . S
C1152 H1129 0.950 1_556 S
C1152 C1151 1.397 . S
C1152 C1153 1.334 . S
C1153 H1130 0.950 . S
C1153 C1152 1.334 . S
C1153 C1154 1.287 . S
C1154 C1153 1.287 . S
C1154 C1155 1.524 . S
C1154 H1173 0.913 . S
C1155 H1131 0.950 . S
C1155 C1154 1.524 . S
C1155 C1156 1.415 . S
C1156 H1132 0.950 . S
C1156 C1151 1.363 . S
C1156 C1155 1.415 . S
C1157 H1133 0.951 . S
C1157 C1158 1.366 . S
C1157 C1159 1.388 . S
C1158 C1157 1.366 . S
C1158 C1162 1.385 . S
C1159 H1134 0.951 . S
C1159 C1157 1.388 . S
C1159 C1160 1.366 . S
C1160 C1159 1.366 . S
C1160 C1161 1.414 . S
C1160 C1163 1.499 . S
C1161 H1135 0.978 . S
C1161 C1160 1.414 . S
C1161 C1162 1.374 . S
C1162 H1136 0.950 . S
C1162 C1158 1.385 . S
C1162 C1161 1.374 . S
C1163 C1160 1.499 . S
C1163 C1164 1.373 . S
C1163 C1165 1.389 1_655 S
C1164 H1137 0.950 . S
C1164 C1150 1.377 1_554 S
C1164 C1163 1.373 . S
C1165 C1149 1.377 . S
C1165 C1163 1.389 1_455 S
C1165 C1166 1.524 . S
C1166 C1165 1.524 . S
C1166 C1167 1.397 . S
C1166 C1171 1.363 . S
C1167 H1138 0.950 . S
C1167 C1166 1.397 . S
C1167 C1168 1.334 . S
C1168 H1139 0.950 . S
C1168 C1167 1.334 . S
C1168 C1169 1.287 . S
C1169 C1168 1.287 . S
C1169 C1170 1.524 . S
C1169 H1172 0.999 . S
C1170 H1140 0.950 . S
C1170 C1169 1.524 . S
C1170 C1171 1.415 . S
C1171 H1141 0.950 . S
C1171 C1166 1.363 . S
C1171 C1170 1.415 . S
H1172 C1169 0.999 . S
H1173 C1154 0.913 . S
H1174 C1192 0.951 . S
H1175 C1194 0.951 1_545 S
H1176 C1196 0.950 . S
H1177 C1197 0.950 . S
H1178 C1199 0.950 . S
H1179 C1202 0.950 . S
H1180 C1203 0.950 . S
H1181 C1205 0.950 . S
H1182 C1206 0.950 . S
H1183 C1207 0.951 1_565 S
H1184 C1209 0.951 . S
H1185 C1211 0.950 . S
H1186 C1212 0.950 . S
H1187 C1214 0.950 . S
H1188 C1217 0.979 . S
H1189 C1218 0.950 1_545 S
H1190 C1220 0.950 . S
H1191 C1221 0.950 . S
C1192 H1174 0.951 . S
C1192 C1193 1.366 . S
C1192 C1194 1.388 . S
C1193 C1192 1.366 . S
C1193 C1197 1.385 . S
C1194 H1175 0.951 1_565 S
C1194 C1192 1.388 . S
C1194 C1195 1.366 . S
C1195 C1194 1.366 . S
C1195 C1196 1.414 . S
C1195 C1198 1.499 . S
C1196 H1176 0.950 . S
C1196 C1195 1.414 . S
C1196 C1197 1.374 . S
C1197 H1177 0.950 . S
C1197 C1193 1.385 . S
C1197 C1196 1.374 . S
C1198 C1195 1.499 . S
C1198 C1199 1.373 1_554 S
C1198 C1200 1.389 1_465 S
C1199 H1178 0.950 . S
C1199 C1198 1.373 1_556 S
C1199 C1215 1.377 1_455 S
C1200 C1198 1.389 1_645 S
C1200 C1201 1.524 . S
C1200 C1214 1.377 . S
C1201 C1200 1.524 . S
C1201 C1202 1.397 1_545 S
C1201 C1206 1.363 . S
C1202 H1179 0.950 . S
C1202 C1201 1.397 1_565 S
C1202 C1203 1.334 . S
C1203 H1180 0.950 . S
C1203 C1202 1.334 . S
C1203 C1204 1.287 1_565 S
C1204 C1203 1.287 1_545 S
C1204 C1205 1.524 . S
C1204 H1223 0.913 . S
C1205 H1181 0.950 . S
C1205 C1204 1.524 . S
C1205 C1206 1.415 . S
C1206 H1182 0.950 . S
C1206 C1201 1.363 . S
C1206 C1205 1.415 . S
C1207 H1183 0.951 1_545 S
C1207 C1208 1.366 . S
C1207 C1209 1.388 1_545 S
C1208 C1207 1.366 . S
C1208 C1212 1.385 . S
C1209 H1184 0.951 . S
C1209 C1207 1.388 1_565 S
C1209 C1210 1.366 1_565 S
C1210 C1209 1.366 1_545 S
C1210 C1211 1.414 . S
C1210 C1213 1.499 . S
C1211 H1185 0.950 . S
C1211 C1210 1.414 . S
C1211 C1212 1.374 . S
C1212 H1186 0.950 . S
C1212 C1208 1.385 . S
C1212 C1211 1.374 . S
C1213 C1210 1.499 . S
C1213 C1214 1.373 1_556 S
C1213 C1215 1.389 1_545 S
C1214 H1187 0.950 . S
C1214 C1200 1.377 . S
C1214 C1213 1.373 1_554 S
C1215 C1199 1.377 1_655 S
C1215 C1213 1.389 1_565 S
C1215 C1216 1.524 . S
C1216 C1215 1.524 . S
C1216 C1217 1.373 1_565 S
C1216 C1221 1.363 . S
C1217 H1188 0.979 . S
C1217 C1216 1.373 1_545 S
C1217 C1218 1.329 1_545 S
C1218 H1189 0.950 1_565 S
C1218 C1217 1.329 1_565 S
C1218 C1219 1.287 . S
C1219 C1218 1.287 . S
C1219 C1220 1.524 . S
C1219 H1222 0.999 . S
C1220 H1190 0.950 . S
C1220 C1219 1.524 . S
C1220 C1221 1.415 . S
C1221 H1191 0.950 . S
C1221 C1216 1.363 . S
C1221 C1220 1.415 . S
H1222 C1219 0.999 . S
H1223 C1204 0.913 . S
H1224 C1242 0.951 . S
H1225 C1244 0.951 . S
H1226 C1246 0.950 . S
H1227 C1247 0.950 . S
H1228 C1249 0.950 . S
H1229 C1252 0.950 . S
H1230 C1253 0.950 . S
H1231 C1255 0.950 . S
H1232 C1256 0.950 . S
H1233 C1257 0.951 . S
H1234 C1259 0.951 . S
H1235 C1261 0.950 . S
H1236 C1262 0.950 . S
H1237 C1264 0.950 . S
H1238 C1267 0.950 . S
H1239 C1268 0.950 . S
H1240 C1270 0.950 . S
H1241 C1271 0.950 . S
C1242 H1224 0.951 . S
C1242 C1243 1.366 . S
C1242 C1244 1.388 . S
C1243 C1242 1.366 . S
C1243 C1247 1.385 . S
C1244 H1225 0.951 . S
C1244 C1242 1.388 . S
C1244 C1245 1.366 . S
C1245 C1244 1.366 . S
C1245 C1246 1.414 . S
C1245 C1248 1.499 . S
C1246 H1226 0.950 . S
C1246 C1245 1.414 . S
C1246 C1247 1.374 . S
C1247 H1227 0.950 . S
C1247 C1243 1.385 . S
C1247 C1246 1.374 . S
C1248 C1245 1.499 . S
C1248 C1249 1.373 . S
C1248 C1250 1.389 . S
C1249 H1228 0.950 . S
C1249 C1248 1.373 . S
C1249 C1265 1.377 . S
C1250 C1248 1.389 . S
C1250 C1251 1.524 . S
C1250 C1264 1.377 . S
C1251 C1250 1.524 . S
C1251 C1252 1.397 . S
C1251 C1256 1.363 . S
C1252 H1229 0.950 . S
C1252 C1251 1.397 . S
C1252 C1253 1.334 . S
C1253 H1230 0.950 . S
C1253 C1252 1.334 . S
C1253 C1254 1.287 . S
C1254 C1253 1.287 . S
C1254 C1255 1.524 . S
C1254 H1273 0.913 . S
C1255 H1231 0.950 . S
C1255 C1254 1.524 . S
C1255 C1256 1.415 . S
C1256 H1232 0.950 . S
C1256 C1251 1.363 . S
C1256 C1255 1.415 . S
C1257 H1233 0.951 . S
C1257 C1258 1.366 . S
C1257 C1259 1.388 . S
C1258 C1257 1.366 . S
C1258 C1262 1.385 . S
C1259 H1234 0.951 . S
C1259 C1257 1.388 . S
C1259 C1260 1.366 . S
C1260 C1259 1.366 . S
C1260 C1261 1.414 . S
C1260 C1263 1.499 . S
C1261 H1235 0.950 . S
C1261 C1260 1.414 . S
C1261 C1262 1.374 . S
C1262 H1236 0.950 . S
C1262 C1258 1.385 . S
C1262 C1261 1.374 . S
C1263 C1260 1.499 . S
C1263 C1264 1.373 . S
C1263 C1265 1.389 . S
C1264 H1237 0.950 . S
C1264 C1250 1.377 . S
C1264 C1263 1.373 . S
C1265 C1249 1.377 . S
C1265 C1263 1.389 . S
C1265 C1266 1.524 . S
C1266 C1265 1.524 . S
C1266 C1267 1.397 . S
C1266 C1271 1.363 . S
C1267 H1238 0.950 . S
C1267 C1266 1.397 . S
C1267 C1268 1.334 . S
C1268 H1239 0.950 . S
C1268 C1267 1.334 . S
C1268 C1269 1.287 . S
C1269 C1268 1.287 . S
C1269 C1270 1.524 . S
C1269 H1272 0.999 . S
C1270 H1240 0.950 . S
C1270 C1269 1.524 . S
C1270 C1271 1.415 . S
C1271 H1241 0.950 . S
C1271 C1266 1.363 . S
C1271 C1270 1.415 . S
H1272 C1269 0.999 . S
H1273 C1254 0.913 . S
H1274 C1292 0.951 . S
H1275 C1294 0.951 . S
H1276 C1296 0.950 . S
H1277 C1297 0.950 . S
H1278 C1299 0.950 . S
H1279 C1302 0.951 . S
H1280 C1303 0.950 . S
H1281 C1305 0.950 . S
H1282 C1306 0.950 . S
H1283 C1307 0.951 . S
H1284 C1309 0.951 . S
H1285 C1311 0.950 . S
H1286 C1312 0.950 . S
H1287 C1314 0.950 . S
H1288 C1317 0.950 . S
H1289 C1318 0.950 . S
H1290 C1320 0.950 . S
H1291 C1321 0.950 . S
C1292 H1274 0.951 . S
C1292 C1293 1.366 . S
C1292 C1294 1.388 . S
C1293 C1292 1.366 . S
C1293 C1297 1.385 . S
C1294 H1275 0.951 . S
C1294 C1292 1.388 . S
C1294 C1295 1.366 . S
C1295 C1294 1.366 . S
C1295 C1296 1.414 . S
C1295 C1298 1.499 . S
C1296 H1276 0.950 . S
C1296 C1295 1.414 . S
C1296 C1297 1.374 . S
C1297 H1277 0.950 . S
C1297 C1293 1.385 . S
C1297 C1296 1.374 . S
C1298 C1295 1.499 . S
C1298 C1299 1.373 . S
C1298 C1300 1.369 1_455 S
C1299 H1278 0.950 . S
C1299 C1298 1.373 . S
C1299 C1315 1.377 1_455 S
C1300 C1298 1.369 1_655 S
C1300 C1301 1.520 1_655 S
C1300 C1314 1.406 . S
C1301 C1300 1.520 1_455 S
C1301 C1302 1.397 . S
C1301 C1306 1.363 . S
C1302 H1279 0.951 . S
C1302 C1301 1.397 . S
C1302 C1303 1.334 . S
C1303 H1280 0.950 . S
C1303 C1302 1.334 . S
C1303 C1304 1.287 . S
C1304 C1303 1.287 . S
C1304 C1305 1.524 . S
C1304 H1323 0.913 . S
C1305 H1281 0.950 . S
C1305 C1304 1.524 . S
C1305 C1306 1.415 . S
C1306 H1282 0.950 . S
C1306 C1301 1.363 . S
C1306 C1305 1.415 . S
C1307 H1283 0.951 . S
C1307 C1308 1.366 . S
C1307 C1309 1.388 . S
C1308 C1307 1.366 . S
C1308 C1312 1.385 . S
C1309 H1284 0.951 . S
C1309 C1307 1.388 . S
C1309 C1310 1.366 . S
C1310 C1309 1.366 . S
C1310 C1311 1.414 . S
C1310 C1313 1.499 . S
C1311 H1285 0.950 . S
C1311 C1310 1.414 . S
C1311 C1312 1.374 . S
C1312 H1286 0.950 . S
C1312 C1308 1.385 . S
C1312 C1311 1.374 . S
C1313 C1310 1.499 . S
C1313 C1314 1.373 . S
C1313 C1315 1.389 . S
C1314 H1287 0.950 . S
C1314 C1300 1.406 . S
C1314 C1313 1.373 . S
C1315 C1299 1.377 1_655 S
C1315 C1313 1.389 . S
C1315 C1316 1.524 . S
C1316 C1315 1.524 . S
C1316 C1317 1.397 . S
C1316 C1321 1.363 . S
C1317 H1288 0.950 . S
C1317 C1316 1.397 . S
C1317 C1318 1.334 . S
C1318 H1289 0.950 . S
C1318 C1317 1.334 . S
C1318 C1319 1.287 . S
C1319 C1318 1.287 . S
C1319 C1320 1.524 . S
C1319 H1322 0.999 . S
C1320 H1290 0.950 . S
C1320 C1319 1.524 . S
C1320 C1321 1.415 . S
C1321 H1291 0.950 . S
C1321 C1316 1.363 . S
C1321 C1320 1.415 . S
H1322 C1319 0.999 . S
H1323 C1304 0.913 . S
H1324 C1342 0.951 . S
H1325 C1344 0.951 1_655 S
H1326 C1346 0.950 . S
H1327 C1347 0.950 . S
H1328 C1349 0.950 . S
H1329 C1352 0.950 . S
H1330 C1353 0.950 . S
H1331 C1355 0.950 . S
H1332 C1356 0.950 1_655 S
H1333 C1357 0.951 . S
H1334 C1359 0.951 . S
H1335 C1361 0.950 . S
H1336 C1362 0.950 . S
H1337 C1364 0.950 . S
H1338 C1367 0.950 . S
H1339 C1368 0.950 . S
H1340 C1370 0.950 . S
H1341 C1371 0.950 1_455 S
C1342 H1324 0.951 . S
C1342 C1343 1.366 . S
C1342 C1344 1.388 . S
C1343 C1342 1.366 . S
C1343 C1347 1.385 . S
C1344 H1325 0.951 1_455 S
C1344 C1342 1.388 . S
C1344 C1345 1.366 . S
C1345 C1344 1.366 . S
C1345 C1346 1.414 . S
C1345 C1348 1.499 . S
C1346 H1326 0.950 . S
C1346 C1345 1.414 . S
C1346 C1347 1.374 . S
C1347 H1327 0.950 . S
C1347 C1343 1.385 . S
C1347 C1346 1.374 . S
C1348 C1345 1.499 . S
C1348 C1349 1.373 1_455 S
C1348 C1350 1.389 . S
C1349 H1328 0.950 . S
C1349 C1348 1.373 1_655 S
C1349 C1365 1.377 1_565 S
C1350 C1348 1.389 . S
C1350 C1351 1.524 . S
C1350 C1364 1.377 1_455 S
C1351 C1350 1.524 . S
C1351 C1352 1.397 . S
C1351 C1356 1.363 . S
C1352 H1329 0.950 . S
C1352 C1351 1.397 . S
C1352 C1353 1.334 . S
C1353 H1330 0.950 . S
C1353 C1352 1.334 . S
C1353 C1354 1.287 . S
C1354 C1353 1.287 . S
C1354 C1355 1.524 . S
C1354 H1373 0.913 . S
C1355 H1331 0.950 . S
C1355 C1354 1.524 . S
C1355 C1356 1.415 . S
C1356 H1332 0.950 1_455 S
C1356 C1351 1.363 . S
C1356 C1355 1.415 . S
C1357 H1333 0.951 . S
C1357 C1358 1.366 . S
C1357 C1359 1.388 . S
C1358 C1357 1.366 . S
C1358 C1362 1.385 . S
C1359 H1334 0.951 . S
C1359 C1357 1.388 . S
C1359 C1360 1.366 . S
C1360 C1359 1.366 . S
C1360 C1361 1.414 . S
C1360 C1363 1.499 . S
C1361 H1335 0.950 . S
C1361 C1360 1.414 . S
C1361 C1362 1.374 . S
C1362 H1336 0.950 . S
C1362 C1358 1.385 . S
C1362 C1361 1.374 . S
C1363 C1360 1.499 . S
C1363 C1364 1.373 1_545 S
C1363 C1365 1.389 . S
C1364 H1337 0.950 . S
C1364 C1350 1.377 1_655 S
C1364 C1363 1.373 1_565 S
C1365 C1349 1.377 1_545 S
C1365 C1363 1.389 . S
C1365 C1366 1.524 . S
C1366 C1365 1.524 . S
C1366 C1367 1.397 . S
C1366 C1371 1.363 . S
C1367 H1338 0.950 . S
C1367 C1366 1.397 . S
C1367 C1368 1.334 . S
C1368 H1339 0.950 . S
C1368 C1367 1.334 . S
C1368 C1369 1.287 . S
C1369 C1368 1.287 . S
C1369 C1370 1.524 . S
C1369 H1372 0.999 . S
C1370 H1340 0.950 . S
C1370 C1369 1.524 . S
C1370 C1371 1.415 . S
C1371 H1341 0.950 1_655 S
C1371 C1366 1.363 . S
C1371 C1370 1.415 . S
H1372 C1369 0.999 . S
H1373 C1354 0.913 . S
H1374 C1392 0.951 . S
H1375 C1394 0.951 . S
H1376 C1396 0.950 . S
H1377 C1397 0.950 . S
H1378 C1399 0.950 . S
H1379 C1402 0.950 . S
H1380 C1403 0.950 . S
H1381 C1405 0.950 . S
H1382 C1406 0.950 . S
H1383 C1407 0.951 . S
H1384 C1409 0.951 . S
H1385 C1411 0.950 . S
H1386 C1412 0.950 . S
H1387 C1414 0.950 . S
H1388 C1417 0.950 . S
H1389 C1418 0.950 . S
H1390 C1420 0.950 . S
H1391 C1421 0.950 1_565 S
C1392 H1374 0.951 . S
C1392 C1393 1.366 . S
C1392 C1394 1.388 . S
C1393 C1392 1.366 . S
C1393 C1397 1.385 . S
C1394 H1375 0.951 . S
C1394 C1392 1.388 . S
C1394 C1395 1.366 . S
C1395 C1394 1.366 . S
C1395 C1396 1.414 . S
C1395 C1398 1.499 . S
C1396 H1376 0.950 . S
C1396 C1395 1.414 . S
C1396 C1397 1.374 . S
C1397 H1377 0.950 . S
C1397 C1393 1.385 . S
C1397 C1396 1.374 . S
C1398 C1395 1.499 . S
C1398 C1399 1.373 . S
C1398 C1400 1.389 1_545 S
C1399 H1378 0.950 . S
C1399 C1398 1.373 . S
C1399 C1415 1.381 . S
C1400 C1398 1.389 1_565 S
C1400 C1401 1.524 . S
C1400 C1414 1.377 . S
C1401 C1400 1.524 . S
C1401 C1402 1.397 . S
C1401 C1406 1.363 . S
C1402 H1379 0.950 . S
C1402 C1401 1.397 . S
C1402 C1403 1.334 . S
C1403 H1380 0.950 . S
C1403 C1402 1.334 . S
C1403 C1404 1.287 . S
C1404 C1403 1.287 . S
C1404 C1405 1.524 . S
C1404 H1423 0.913 . S
C1405 H1381 0.950 . S
C1405 C1404 1.524 . S
C1405 C1406 1.415 . S
C1406 H1382 0.950 . S
C1406 C1401 1.363 . S
C1406 C1405 1.415 . S
C1407 H1383 0.951 . S
C1407 C1408 1.366 . S
C1407 C1409 1.388 . S
C1408 C1407 1.366 . S
C1408 C1412 1.385 . S
C1409 H1384 0.951 . S
C1409 C1407 1.388 . S
C1409 C1410 1.366 . S
C1410 C1409 1.366 . S
C1410 C1411 1.414 . S
C1410 C1413 1.499 . S
C1411 H1385 0.950 . S
C1411 C1410 1.414 . S
C1411 C1412 1.374 . S
C1412 H1386 0.950 . S
C1412 C1408 1.385 . S
C1412 C1411 1.374 . S
C1413 C1410 1.499 . S
C1413 C1414 1.373 . S
C1413 C1415 1.382 1_565 S
C1414 H1387 0.950 . S
C1414 C1400 1.377 . S
C1414 C1413 1.373 . S
C1415 C1399 1.381 . S
C1415 C1413 1.382 1_545 S
C1415 C1416 1.529 . S
C1416 C1415 1.529 . S
C1416 C1417 1.397 . S
C1416 C1421 1.363 . S
C1417 H1388 0.950 . S
C1417 C1416 1.397 . S
C1417 C1418 1.334 . S
C1418 H1389 0.950 . S
C1418 C1417 1.334 . S
C1418 C1419 1.287 . S
C1419 C1418 1.287 . S
C1419 C1420 1.524 . S
C1419 H1422 0.999 . S
C1420 H1390 0.950 . S
C1420 C1419 1.524 . S
C1420 C1421 1.415 . S
C1421 H1391 0.950 1_545 S
C1421 C1416 1.363 . S
C1421 C1420 1.415 . S
H1422 C1419 0.999 . S
H1423 C1404 0.913 . S
H1424 C1442 0.951 . S
H1425 C1444 0.951 . S
H1426 C1446 0.950 . S
H1427 C1447 0.950 . S
H1428 C1449 0.950 . S
H1429 C1452 0.950 . S
H1430 C1453 0.950 . S
H1431 C1455 0.950 . S
H1432 C1456 0.950 . S
H1433 C1457 0.951 . S
H1434 C1459 0.951 . S
H1435 C1461 0.950 . S
H1436 C1462 0.950 . S
H1437 C1464 0.950 . S
H1438 C1467 0.950 . S
H1439 C1468 0.950 . S
H1440 C1470 0.950 . S
H1441 C1471 0.950 . S
C1442 H1424 0.951 . S
C1442 C1443 1.366 . S
C1442 C1444 1.388 . S
C1443 C1442 1.366 . S
C1443 C1447 1.385 . S
C1444 H1425 0.951 . S
C1444 C1442 1.388 . S
C1444 C1445 1.366 . S
C1445 C1444 1.366 . S
C1445 C1446 1.414 . S
C1445 C1448 1.499 . S
C1446 H1426 0.950 . S
C1446 C1445 1.414 . S
C1446 C1447 1.374 . S
C1447 H1427 0.950 . S
C1447 C1443 1.385 . S
C1447 C1446 1.374 . S
C1448 C1445 1.499 . S
C1448 C1449 1.373 . S
C1448 C1450 1.389 . S
C1449 H1428 0.950 . S
C1449 C1448 1.373 . S
C1449 C1465 1.377 . S
C1450 C1448 1.389 . S
C1450 C1451 1.524 . S
C1450 C1464 1.377 . S
C1451 C1450 1.524 . S
C1451 C1452 1.397 . S
C1451 C1456 1.363 . S
C1452 H1429 0.950 . S
C1452 C1451 1.397 . S
C1452 C1453 1.334 . S
C1453 H1430 0.950 . S
C1453 C1452 1.334 . S
C1453 C1454 1.287 . S
C1454 C1453 1.287 . S
C1454 C1455 1.524 . S
C1454 H1473 0.913 . S
C1455 H1431 0.950 . S
C1455 C1454 1.524 . S
C1455 C1456 1.415 . S
C1456 H1432 0.950 . S
C1456 C1451 1.363 . S
C1456 C1455 1.415 . S
C1457 H1433 0.951 . S
C1457 C1458 1.366 . S
C1457 C1459 1.388 . S
C1458 C1457 1.366 . S
C1458 C1462 1.385 . S
C1459 H1434 0.951 . S
C1459 C1457 1.388 . S
C1459 C1460 1.366 . S
C1460 C1459 1.366 . S
C1460 C1461 1.414 . S
C1460 C1463 1.499 . S
C1461 H1435 0.950 . S
C1461 C1460 1.414 . S
C1461 C1462 1.374 . S
C1462 H1436 0.950 . S
C1462 C1458 1.385 . S
C1462 C1461 1.374 . S
C1463 C1460 1.499 . S
C1463 C1464 1.373 . S
C1463 C1465 1.389 . S
C1464 H1437 0.950 . S
C1464 C1450 1.377 . S
C1464 C1463 1.373 . S
C1465 C1449 1.377 . S
C1465 C1463 1.389 . S
C1465 C1466 1.524 . S
C1466 C1465 1.524 . S
C1466 C1467 1.397 . S
C1466 C1471 1.363 . S
C1467 H1438 0.950 . S
C1467 C1466 1.397 . S
C1467 C1468 1.334 . S
C1468 H1439 0.950 . S
C1468 C1467 1.334 . S
C1468 C1469 1.287 . S
C1469 C1468 1.287 . S
C1469 C1470 1.524 . S
C1469 H1472 0.999 . S
C1470 H1440 0.950 . S
C1470 C1469 1.524 . S
C1470 C1471 1.415 . S
C1471 H1441 0.950 . S
C1471 C1466 1.363 . S
C1471 C1470 1.415 . S
H1472 C1469 0.999 . S
H1473 C1454 0.913 . S
H1474 C1492 0.951 . S
H1475 C1494 0.951 . S
H1476 C1496 0.950 . S
H1477 C1497 0.950 . S
H1478 C1499 0.950 . S
H1479 C1502 0.950 . S
H1480 C1503 0.950 . S
H1481 C1505 0.950 . S
H1482 C1506 0.950 . S
H1483 C1507 0.951 . S
H1484 C1509 0.951 . S
H1485 C1511 0.950 . S
H1486 C1512 0.950 . S
H1487 C1514 0.950 . S
H1488 C1517 0.950 . S
H1489 C1518 0.950 . S
H1490 C1520 0.950 . S
H1491 C1521 0.950 . S
C1492 H1474 0.951 . S
C1492 C1493 1.366 . S
C1492 C1494 1.388 . S
C1493 C1492 1.366 . S
C1493 C1497 1.385 . S
C1494 H1475 0.951 . S
C1494 C1492 1.388 . S
C1494 C1495 1.366 . S
C1495 C1494 1.366 . S
C1495 C1496 1.414 . S
C1495 C1498 1.499 . S
C1496 H1476 0.950 . S
C1496 C1495 1.414 . S
C1496 C1497 1.374 . S
C1497 H1477 0.950 . S
C1497 C1493 1.385 . S
C1497 C1496 1.374 . S
C1498 C1495 1.499 . S
C1498 C1499 1.373 . S
C1498 C1500 1.389 . S
C1499 H1478 0.950 . S
C1499 C1498 1.373 . S
C1499 C1515 1.377 . S
C1500 C1498 1.389 . S
C1500 C1501 1.524 . S
C1500 C1514 1.377 . S
C1501 C1500 1.524 . S
C1501 C1502 1.397 . S
C1501 C1506 1.363 . S
C1502 H1479 0.950 . S
C1502 C1501 1.397 . S
C1502 C1503 1.334 . S
C1503 H1480 0.950 . S
C1503 C1502 1.334 . S
C1503 C1504 1.287 . S
C1504 C1503 1.287 . S
C1504 C1505 1.524 . S
C1504 H1523 0.913 . S
C1505 H1481 0.950 . S
C1505 C1504 1.524 . S
C1505 C1506 1.415 . S
C1506 H1482 0.950 . S
C1506 C1501 1.363 . S
C1506 C1505 1.415 . S
C1507 H1483 0.951 . S
C1507 C1508 1.366 . S
C1507 C1509 1.388 . S
C1508 C1507 1.366 . S
C1508 C1512 1.385 . S
C1509 H1484 0.951 . S
C1509 C1507 1.388 . S
C1509 C1510 1.366 . S
C1510 C1509 1.366 . S
C1510 C1511 1.414 . S
C1510 C1513 1.499 . S
C1511 H1485 0.950 . S
C1511 C1510 1.414 . S
C1511 C1512 1.374 . S
C1512 H1486 0.950 . S
C1512 C1508 1.385 . S
C1512 C1511 1.374 . S
C1513 C1510 1.499 . S
C1513 C1514 1.373 . S
C1513 C1515 1.389 . S
C1514 H1487 0.950 . S
C1514 C1500 1.377 . S
C1514 C1513 1.373 . S
C1515 C1499 1.377 . S
C1515 C1513 1.389 . S
C1515 C1516 1.524 . S
C1516 C1515 1.524 . S
C1516 C1517 1.397 . S
C1516 C1521 1.363 . S
C1517 H1488 0.950 . S
C1517 C1516 1.397 . S
C1517 C1518 1.334 . S
C1518 H1489 0.950 . S
C1518 C1517 1.334 . S
C1518 C1519 1.287 . S
C1519 C1518 1.287 . S
C1519 C1520 1.524 . S
C1519 H1522 0.999 . S
C1520 H1490 0.950 . S
C1520 C1519 1.524 . S
C1520 C1521 1.415 . S
C1521 H1491 0.950 . S
C1521 C1516 1.363 . S
C1521 C1520 1.415 . S
H1522 C1519 0.999 . S
H1523 C1504 0.913 . S
H1524 C1542 0.951 . S
H1525 C1544 0.951 . S
H1526 C1546 0.950 . S
H1527 C1547 0.950 . S
H1528 C1549 0.950 . S
H1529 C1552 0.950 . S
H1530 C1553 0.950 . S
H1531 C1555 0.950 . S
H1532 C1556 0.950 . S
H1533 C1557 0.951 . S
H1534 C1559 0.951 . S
H1535 C1561 0.950 . S
H1536 C1562 0.950 . S
H1537 C1564 0.950 . S
H1538 C1567 0.950 . S
H1539 C1568 0.950 . S
H1540 C1570 0.950 . S
H1541 C1571 0.950 . S
C1542 H1524 0.951 . S
C1542 C1543 1.366 . S
C1542 C1544 1.388 . S
C1543 C1542 1.366 . S
C1543 C1547 1.385 . S
C1544 H1525 0.951 . S
C1544 C1542 1.388 . S
C1544 C1545 1.366 . S
C1545 C1544 1.366 . S
C1545 C1546 1.414 . S
C1545 C1548 1.499 . S
C1546 H1526 0.950 . S
C1546 C1545 1.414 . S
C1546 C1547 1.374 . S
C1547 H1527 0.950 . S
C1547 C1543 1.385 . S
C1547 C1546 1.374 . S
C1548 C1545 1.499 . S
C1548 C1549 1.373 . S
C1548 C1550 1.389 . S
C1549 H1528 0.950 . S
C1549 C1548 1.373 . S
C1549 C1565 1.377 . S
C1550 C1548 1.389 . S
C1550 C1551 1.524 . S
C1550 C1564 1.377 . S
C1551 C1550 1.524 . S
C1551 C1552 1.397 . S
C1551 C1556 1.363 . S
C1552 H1529 0.950 . S
C1552 C1551 1.397 . S
C1552 C1553 1.334 . S
C1553 H1530 0.950 . S
C1553 C1552 1.334 . S
C1553 C1554 1.287 . S
C1554 C1553 1.287 . S
C1554 C1555 1.524 . S
C1554 H1573 0.913 . S
C1555 H1531 0.950 . S
C1555 C1554 1.524 . S
C1555 C1556 1.415 . S
C1556 H1532 0.950 . S
C1556 C1551 1.363 . S
C1556 C1555 1.415 . S
C1557 H1533 0.951 . S
C1557 C1558 1.366 . S
C1557 C1559 1.388 . S
C1558 C1557 1.366 . S
C1558 C1562 1.385 . S
C1559 H1534 0.951 . S
C1559 C1557 1.388 . S
C1559 C1560 1.366 . S
C1560 C1559 1.366 . S
C1560 C1561 1.414 . S
C1560 C1563 1.499 . S
C1561 H1535 0.950 . S
C1561 C1560 1.414 . S
C1561 C1562 1.374 . S
C1562 H1536 0.950 . S
C1562 C1558 1.385 . S
C1562 C1561 1.374 . S
C1563 C1560 1.499 . S
C1563 C1564 1.373 . S
C1563 C1565 1.389 . S
C1564 H1537 0.950 . S
C1564 C1550 1.377 . S
C1564 C1563 1.373 . S
C1565 C1549 1.377 . S
C1565 C1563 1.389 . S
C1565 C1566 1.524 . S
C1566 C1565 1.524 . S
C1566 C1567 1.397 . S
C1566 C1571 1.363 . S
C1567 H1538 0.950 . S
C1567 C1566 1.397 . S
C1567 C1568 1.334 . S
C1568 H1539 0.950 . S
C1568 C1567 1.334 . S
C1568 C1569 1.287 . S
C1569 C1568 1.287 . S
C1569 C1570 1.524 . S
C1569 H1572 0.999 . S
C1570 H1540 0.950 . S
C1570 C1569 1.524 . S
C1570 C1571 1.415 . S
C1571 H1541 0.950 . S
C1571 C1566 1.363 . S
C1571 C1570 1.415 . S
H1572 C1569 0.999 . S
H1573 C1554 0.913 . S
H1574 C1592 0.951 . S
H1575 C1594 0.951 . S
H1576 C1596 0.950 . S
H1577 C1597 0.950 . S
H1578 C1599 0.950 . S
H1579 C1602 0.950 . S
H1580 C1603 0.950 . S
H1581 C1605 0.950 . S
H1582 C1606 0.950 . S
H1583 C1607 0.951 . S
H1584 C1609 0.951 . S
H1585 C1611 0.950 . S
H1586 C1612 0.950 . S
H1587 C1614 0.950 . S
H1588 C1617 0.950 . S
H1589 C1618 0.950 . S
H1590 C1620 0.950 . S
H1591 C1621 0.950 . S
C1592 H1574 0.951 . S
C1592 C1593 1.366 . S
C1592 C1594 1.388 . S
C1593 C1592 1.366 . S
C1593 C1597 1.385 . S
C1594 H1575 0.951 . S
C1594 C1592 1.388 . S
C1594 C1595 1.366 . S
C1595 C1594 1.366 . S
C1595 C1596 1.414 . S
C1595 C1598 1.499 . S
C1596 H1576 0.950 . S
C1596 C1595 1.414 . S
C1596 C1597 1.374 . S
C1597 H1577 0.950 . S
C1597 C1593 1.385 . S
C1597 C1596 1.374 . S
C1598 C1595 1.499 . S
C1598 C1599 1.373 . S
C1598 C1600 1.389 . S
C1599 H1578 0.950 . S
C1599 C1598 1.373 . S
C1599 C1615 1.377 . S
C1600 C1598 1.389 . S
C1600 C1601 1.524 . S
C1600 C1614 1.377 . S
C1601 C1600 1.524 . S
C1601 C1602 1.397 . S
C1601 C1606 1.363 . S
C1602 H1579 0.950 . S
C1602 C1601 1.397 . S
C1602 C1603 1.334 . S
C1603 H1580 0.950 . S
C1603 C1602 1.334 . S
C1603 C1604 1.287 . S
C1604 C1603 1.287 . S
C1604 C1605 1.524 . S
C1604 H1623 0.913 . S
C1605 H1581 0.950 . S
C1605 C1604 1.524 . S
C1605 C1606 1.415 . S
C1606 H1582 0.950 . S
C1606 C1601 1.363 . S
C1606 C1605 1.415 . S
C1607 H1583 0.951 . S
C1607 C1608 1.366 . S
C1607 C1609 1.388 . S
C1608 C1607 1.366 . S
C1608 C1612 1.385 . S
C1609 H1584 0.951 . S
C1609 C1607 1.388 . S
C1609 C1610 1.366 . S
C1610 C1609 1.366 . S
C1610 C1611 1.414 . S
C1610 C1613 1.499 . S
C1611 H1585 0.950 . S
C1611 C1610 1.414 . S
C1611 C1612 1.374 . S
C1612 H1586 0.950 . S
C1612 C1608 1.385 . S
C1612 C1611 1.374 . S
C1613 C1610 1.499 . S
C1613 C1614 1.373 . S
C1613 C1615 1.389 . S
C1614 H1587 0.950 . S
C1614 C1600 1.377 . S
C1614 C1613 1.373 . S
C1615 C1599 1.377 . S
C1615 C1613 1.389 . S
C1615 C1616 1.524 . S
C1616 C1615 1.524 . S
C1616 C1617 1.397 . S
C1616 C1621 1.363 . S
C1617 H1588 0.950 . S
C1617 C1616 1.397 . S
C1617 C1618 1.334 . S
C1618 H1589 0.950 . S
C1618 C1617 1.334 . S
C1618 C1619 1.287 . S
C1619 C1618 1.287 . S
C1619 C1620 1.524 . S
C1619 H1622 0.999 1_565 S
C1620 H1590 0.950 . S
C1620 C1619 1.524 . S
C1620 C1621 1.415 . S
C1621 H1591 0.950 . S
C1621 C1616 1.363 . S
C1621 C1620 1.415 . S
H1622 C1619 0.999 1_545 S
H1623 C1604 0.913 . S
H1624 C1642 0.951 . S
H1625 C1644 0.951 . S
H1626 C1646 0.950 . S
H1627 C1647 0.950 . S
H1628 C1649 0.950 . S
H1629 C1652 0.950 . S
H1630 C1653 0.950 . S
H1631 C1655 0.950 . S
H1632 C1656 0.950 . S
H1633 C1657 0.951 . S
H1634 C1659 0.951 . S
H1635 C1661 0.950 . S
H1636 C1662 0.950 . S
H1637 C1664 0.950 . S
H1638 C1667 0.950 . S
H1639 C1668 0.950 . S
H1640 C1670 0.950 . S
H1641 C1671 0.950 . S
C1642 H1624 0.951 . S
C1642 C1643 1.366 . S
C1642 C1644 1.388 . S
C1643 C1642 1.366 . S
C1643 C1647 1.385 . S
C1644 H1625 0.951 . S
C1644 C1642 1.388 . S
C1644 C1645 1.366 . S
C1645 C1644 1.366 . S
C1645 C1646 1.414 . S
C1645 C1648 1.499 . S
C1646 H1626 0.950 . S
C1646 C1645 1.414 . S
C1646 C1647 1.374 . S
C1647 H1627 0.950 . S
C1647 C1643 1.385 . S
C1647 C1646 1.374 . S
C1648 C1645 1.499 . S
C1648 C1649 1.373 . S
C1648 C1650 1.389 . S
C1649 H1628 0.950 . S
C1649 C1648 1.373 . S
C1649 C1665 1.377 . S
C1650 C1648 1.389 . S
C1650 C1651 1.524 . S
C1650 C1664 1.377 . S
C1651 C1650 1.524 . S
C1651 C1652 1.397 . S
C1651 C1656 1.363 . S
C1652 H1629 0.950 . S
C1652 C1651 1.397 . S
C1652 C1653 1.334 . S
C1653 H1630 0.950 . S
C1653 C1652 1.334 . S
C1653 C1654 1.287 . S
C1654 C1653 1.287 . S
C1654 C1655 1.524 . S
C1654 H1673 0.913 . S
C1655 H1631 0.950 . S
C1655 C1654 1.524 . S
C1655 C1656 1.415 . S
C1656 H1632 0.950 . S
C1656 C1651 1.363 . S
C1656 C1655 1.415 . S
C1657 H1633 0.951 . S
C1657 C1658 1.366 . S
C1657 C1659 1.388 . S
C1658 C1657 1.366 . S
C1658 C1662 1.385 . S
C1659 H1634 0.951 . S
C1659 C1657 1.388 . S
C1659 C1660 1.366 . S
C1660 C1659 1.366 . S
C1660 C1661 1.414 . S
C1660 C1663 1.499 . S
C1661 H1635 0.950 . S
C1661 C1660 1.414 . S
C1661 C1662 1.374 . S
C1662 H1636 0.950 . S
C1662 C1658 1.385 . S
C1662 C1661 1.374 . S
C1663 C1660 1.499 . S
C1663 C1664 1.373 . S
C1663 C1665 1.389 . S
C1664 H1637 0.950 . S
C1664 C1650 1.377 . S
C1664 C1663 1.373 . S
C1665 C1649 1.377 . S
C1665 C1663 1.389 . S
C1665 C1666 1.524 . S
C1666 C1665 1.524 . S
C1666 C1667 1.397 . S
C1666 C1671 1.363 . S
C1667 H1638 0.950 . S
C1667 C1666 1.397 . S
C1667 C1668 1.334 . S
C1668 H1639 0.950 . S
C1668 C1667 1.334 . S
C1668 C1669 1.287 . S
C1669 C1668 1.287 . S
C1669 C1670 1.524 . S
C1669 H1672 0.999 . S
C1670 H1640 0.950 . S
C1670 C1669 1.524 . S
C1670 C1671 1.415 . S
C1671 H1641 0.950 . S
C1671 C1666 1.363 . S
C1671 C1670 1.415 . S
H1672 C1669 0.999 . S
H1673 C1654 0.913 . S
H1674 C1692 0.951 . S
H1675 C1694 0.951 . S
H1676 C1696 0.950 . S
H1677 C1697 0.950 . S
H1678 C1699 0.950 . S
H1679 C1702 0.950 . S
H1680 C1703 0.950 . S
H1681 C1705 0.950 . S
H1682 C1706 0.950 . S
H1683 C1707 0.951 . S
H1684 C1709 0.951 . S
H1685 C1711 0.950 . S
H1686 C1712 0.950 . S
H1687 C1714 0.950 . S
H1688 C1717 0.950 . S
H1689 C1718 0.950 . S
H1690 C1720 0.950 . S
H1691 C1721 0.950 . S
C1692 H1674 0.951 . S
C1692 C1693 1.366 . S
C1692 C1694 1.388 . S
C1693 C1692 1.366 . S
C1693 C1697 1.385 . S
C1694 H1675 0.951 . S
C1694 C1692 1.388 . S
C1694 C1695 1.366 . S
C1695 C1694 1.366 . S
C1695 C1696 1.414 . S
C1695 C1698 1.499 . S
C1696 H1676 0.950 . S
C1696 C1695 1.414 . S
C1696 C1697 1.374 . S
C1697 H1677 0.950 . S
C1697 C1693 1.385 . S
C1697 C1696 1.374 . S
C1698 C1695 1.499 . S
C1698 C1699 1.373 . S
C1698 C1700 1.389 . S
C1699 H1678 0.950 . S
C1699 C1698 1.373 . S
C1699 C1715 1.377 . S
C1700 C1698 1.389 . S
C1700 C1701 1.524 . S
C1700 C1714 1.377 . S
C1701 C1700 1.524 . S
C1701 C1702 1.397 . S
C1701 C1706 1.363 . S
C1702 H1679 0.950 . S
C1702 C1701 1.397 . S
C1702 C1703 1.334 . S
C1703 H1680 0.950 . S
C1703 C1702 1.334 . S
C1703 C1704 1.287 . S
C1704 C1703 1.287 . S
C1704 C1705 1.524 . S
C1704 H1723 0.913 . S
C1705 H1681 0.950 . S
C1705 C1704 1.524 . S
C1705 C1706 1.415 . S
C1706 H1682 0.950 . S
C1706 C1701 1.363 . S
C1706 C1705 1.415 . S
C1707 H1683 0.951 . S
C1707 C1708 1.366 . S
C1707 C1709 1.388 . S
C1708 C1707 1.366 . S
C1708 C1712 1.385 . S
C1709 H1684 0.951 . S
C1709 C1707 1.388 . S
C1709 C1710 1.366 . S
C1710 C1709 1.366 . S
C1710 C1711 1.414 . S
C1710 C1713 1.499 . S
C1711 H1685 0.950 . S
C1711 C1710 1.414 . S
C1711 C1712 1.374 . S
C1712 H1686 0.950 . S
C1712 C1708 1.385 . S
C1712 C1711 1.374 . S
C1713 C1710 1.499 . S
C1713 C1714 1.373 . S
C1713 C1715 1.389 . S
C1714 H1687 0.950 . S
C1714 C1700 1.377 . S
C1714 C1713 1.373 . S
C1715 C1699 1.377 . S
C1715 C1713 1.389 . S
C1715 C1716 1.524 . S
C1716 C1715 1.524 . S
C1716 C1717 1.397 . S
C1716 C1721 1.363 . S
C1717 H1688 0.950 . S
C1717 C1716 1.397 . S
C1717 C1718 1.334 . S
C1718 H1689 0.950 . S
C1718 C1717 1.334 . S
C1718 C1719 1.287 . S
C1719 C1718 1.287 . S
C1719 C1720 1.524 . S
C1719 H1722 0.999 . S
C1720 H1690 0.950 . S
C1720 C1719 1.524 . S
C1720 C1721 1.415 . S
C1721 H1691 0.950 . S
C1721 C1716 1.363 . S
C1721 C1720 1.415 . S
H1722 C1719 0.999 . S
H1723 C1704 0.913 . S
H1724 C1742 0.951 . S
H1725 C1744 0.951 . S
H1726 C1746 0.950 . S
H1727 C1747 0.950 . S
H1728 C1749 0.950 . S
H1729 C1752 0.950 . S
H1730 C1753 0.950 . S
H1731 C1755 0.950 . S
H1732 C1756 0.950 . S
H1733 C1757 0.951 . S
H1734 C1759 0.951 . S
H1735 C1761 0.950 . S
H1736 C1762 0.950 . S
H1737 C1764 0.950 . S
H1738 C1767 0.950 . S
H1739 C1768 0.950 . S
H1740 C1770 0.950 . S
H1741 C1771 0.950 . S
C1742 H1724 0.951 . S
C1742 C1743 1.366 . S
C1742 C1744 1.388 . S
C1743 C1742 1.366 . S
C1743 C1747 1.385 . S
C1744 H1725 0.951 . S
C1744 C1742 1.388 . S
C1744 C1745 1.366 . S
C1745 C1744 1.366 . S
C1745 C1746 1.414 . S
C1745 C1748 1.499 . S
C1746 H1726 0.950 . S
C1746 C1745 1.414 . S
C1746 C1747 1.374 . S
C1747 H1727 0.950 . S
C1747 C1743 1.385 . S
C1747 C1746 1.374 . S
C1748 C1745 1.499 . S
C1748 C1749 1.373 . S
C1748 C1750 1.389 . S
C1749 H1728 0.950 . S
C1749 C1748 1.373 . S
C1749 C1765 1.377 . S
C1750 C1748 1.389 . S
C1750 C1751 1.524 . S
C1750 C1764 1.377 . S
C1751 C1750 1.524 . S
C1751 C1752 1.397 . S
C1751 C1756 1.363 . S
C1752 H1729 0.950 . S
C1752 C1751 1.397 . S
C1752 C1753 1.334 . S
C1753 H1730 0.950 . S
C1753 C1752 1.334 . S
C1753 C1754 1.287 . S
C1754 C1753 1.287 . S
C1754 C1755 1.524 . S
C1754 H1773 0.913 . S
C1755 H1731 0.950 . S
C1755 C1754 1.524 . S
C1755 C1756 1.415 . S
C1756 H1732 0.950 . S
C1756 C1751 1.363 . S
C1756 C1755 1.415 . S
C1757 H1733 0.951 . S
C1757 C1758 1.366 . S
C1757 C1759 1.388 . S
C1758 C1757 1.366 . S
C1758 C1762 1.385 . S
C1759 H1734 0.951 . S
C1759 C1757 1.388 . S
C1759 C1760 1.366 . S
C1760 C1759 1.366 . S
C1760 C1761 1.414 . S
C1760 C1763 1.499 . S
C1761 H1735 0.950 . S
C1761 C1760 1.414 . S
C1761 C1762 1.374 . S
C1762 H1736 0.950 . S
C1762 C1758 1.385 . S
C1762 C1761 1.374 . S
C1763 C1760 1.499 . S
C1763 C1764 1.373 . S
C1763 C1765 1.389 . S
C1764 H1737 0.950 . S
C1764 C1750 1.377 . S
C1764 C1763 1.373 . S
C1765 C1749 1.377 . S
C1765 C1763 1.389 . S
C1765 C1766 1.524 . S
C1766 C1765 1.524 . S
C1766 C1767 1.397 . S
C1766 C1771 1.363 . S
C1767 H1738 0.950 . S
C1767 C1766 1.397 . S
C1767 C1768 1.334 . S
C1768 H1739 0.950 . S
C1768 C1767 1.334 . S
C1768 C1769 1.287 . S
C1769 C1768 1.287 . S
C1769 C1770 1.524 . S
C1769 H1772 0.999 . S
C1770 H1740 0.950 . S
C1770 C1769 1.524 . S
C1770 C1771 1.415 . S
C1771 H1741 0.950 . S
C1771 C1766 1.363 . S
C1771 C1770 1.415 . S
H1772 C1769 0.999 . S
H1773 C1754 0.913 . S
H1774 C1792 0.951 . S
H1775 C1794 0.951 . S
H1776 C1796 0.950 . S
H1777 C1797 0.950 . S
H1778 C1799 0.950 . S
H1779 C1802 0.950 . S
H1780 C1803 0.950 . S
H1781 C1805 0.950 . S
H1782 C1806 0.950 . S
H1783 C1807 0.951 . S
H1784 C1809 0.951 . S
H1785 C1811 0.950 . S
H1786 C1812 0.950 . S
H1787 C1814 0.950 . S
H1788 C1817 0.950 . S
H1789 C1818 0.950 1_565 S
H1790 C1820 0.950 . S
H1791 C1821 0.950 . S
C1792 H1774 0.951 . S
C1792 C1793 1.366 . S
C1792 C1794 1.388 . S
C1793 C1792 1.366 . S
C1793 C1797 1.385 . S
C1794 H1775 0.951 . S
C1794 C1792 1.388 . S
C1794 C1795 1.366 . S
C1795 C1794 1.366 . S
C1795 C1796 1.414 . S
C1795 C1798 1.499 . S
C1796 H1776 0.950 . S
C1796 C1795 1.414 . S
C1796 C1797 1.374 . S
C1797 H1777 0.950 . S
C1797 C1793 1.385 . S
C1797 C1796 1.374 . S
C1798 C1795 1.499 . S
C1798 C1799 1.373 . S
C1798 C1800 1.389 . S
C1799 H1778 0.950 . S
C1799 C1798 1.373 . S
C1799 C1815 1.377 . S
C1800 C1798 1.389 . S
C1800 C1801 1.524 . S
C1800 C1814 1.377 . S
C1801 C1800 1.524 . S
C1801 C1802 1.397 . S
C1801 C1806 1.363 . S
C1802 H1779 0.950 . S
C1802 C1801 1.397 . S
C1802 C1803 1.334 . S
C1803 H1780 0.950 . S
C1803 C1802 1.334 . S
C1803 C1804 1.287 . S
C1804 C1803 1.287 . S
C1804 C1805 1.524 . S
C1804 H1823 0.913 . S
C1805 H1781 0.950 . S
C1805 C1804 1.524 . S
C1805 C1806 1.415 . S
C1806 H1782 0.950 . S
C1806 C1801 1.363 . S
C1806 C1805 1.415 . S
C1807 H1783 0.951 . S
C1807 C1808 1.366 . S
C1807 C1809 1.388 . S
C1808 C1807 1.366 . S
C1808 C1812 1.385 . S
C1809 H1784 0.951 . S
C1809 C1807 1.388 . S
C1809 C1810 1.366 . S
C1810 C1809 1.366 . S
C1810 C1811 1.414 . S
C1810 C1813 1.499 . S
C1811 H1785 0.950 . S
C1811 C1810 1.414 . S
C1811 C1812 1.374 . S
C1812 H1786 0.950 . S
C1812 C1808 1.385 . S
C1812 C1811 1.374 . S
C1813 C1810 1.499 . S
C1813 C1814 1.373 . S
C1813 C1815 1.389 . S
C1814 H1787 0.950 . S
C1814 C1800 1.377 . S
C1814 C1813 1.373 . S
C1815 C1799 1.377 . S
C1815 C1813 1.389 . S
C1815 C1816 1.524 . S
C1816 C1815 1.524 . S
C1816 C1817 1.397 . S
C1816 C1821 1.363 . S
C1817 H1788 0.950 . S
C1817 C1816 1.397 . S
C1817 C1818 1.334 . S
C1818 H1789 0.950 1_545 S
C1818 C1817 1.334 . S
C1818 C1819 1.285 1_545 S
C1819 C1818 1.285 1_565 S
C1819 C1820 1.516 1_565 S
C1819 H1822 1.009 . S
C1820 H1790 0.950 . S
C1820 C1819 1.516 1_545 S
C1820 C1821 1.415 . S
C1821 H1791 0.950 . S
C1821 C1816 1.363 . S
C1821 C1820 1.415 . S
H1822 C1819 1.009 . S
H1823 C1804 0.913 . S
C243 C12 0.275 . S
C258 C138 0.281 . S
C293 C152 0.282 . S
C308 C26 0.276 . S
C343 C166 0.279 . S
C358 C40 0.278 . S
C393 C124 0.279 . S
C408 C54 0.277 . S
C443 C68 0.276 . S
C458 C222 0.280 . S
C493 C180 0.280 . S
C508 C82 0.278 . S
C543 C194 0.282 . S
C558 C96 0.275 . S
C593 C208 0.280 . S
C608 C110 0.276 . S
C643 C116 0.500 . S
C658 C18 0.491 . S
C693 C130 0.501 . S
C708 C32 0.493 . S
C743 C144 0.504 . S
C758 C46 0.490 . S
C793 C4 0.492 . S
C808 C158 0.503 . S
C843 C172 0.500 . S
C858 C102 0.491 . S
C893 C186 0.501 . S
C908 C60 0.490 . S
C943 C74 0.492 . S
C958 C200 0.500 . S
C993 C214 0.502 . S
C1008 C88 0.492 . S
C1043 C123 1.284 . S
C1058 C5 1.251 . S
C1093 C19 1.252 . S
C1108 C137 1.284 . S
C1143 C151 1.284 . S
C1158 C33 1.252 . S
C1193 C47 1.251 . S
C1208 C165 1.284 . S
C1243 C179 1.285 . S
C1258 C61 1.251 . S
C1293 C75 1.251 . S
C1308 C193 1.284 . S
C1343 C207 1.285 . S
C1358 C89 1.251 . S
C1393 C221 1.284 . S
C1408 C103 1.252 . S
C1443 C67 1.660 . S
C1458 C11 1.659 . S
C1493 C81 1.660 . S
C1508 C25 1.659 . S
C1543 C39 1.658 . S
C1558 C95 1.658 . S
C1593 C109 1.659 . S
C1608 C53 1.659 . S
C1643 C117 1.555 . S
C1658 C173 1.555 . S
C1693 C187 1.555 . S
C1708 C131 1.555 . S
C1743 C201 1.555 . S
C1758 C145 1.555 . S
C1793 C215 1.556 . S
C1808 C159 1.555 . S
