# Generated by pormake.
# Topology tzs, (4)-cn, num edge types: 1
# Building blocks:
#     Node 0, Type 0, BuildingBlock: ICAMEG_clean_sbu_1, # of connection points: 4
#     Node 1, Type 0, BuildingBlock: ICAMEG_clean_sbu_1, # of connection points: 4
#     Node 2, Type 0, BuildingBlock: ICAMEG_clean_sbu_1, # of connection points: 4
#     Node 3, Type 0, BuildingBlock: ICAMEG_clean_sbu_1, # of connection points: 4
#     Node 4, Type 0, BuildingBlock: ICAMEG_clean_sbu_1, # of connection points: 4
#     Node 5, Type 0, BuildingBlock: ICAMEG_clean_sbu_1, # of connection points: 4
#     Node 6, Type 0, BuildingBlock: ICAMEG_clean_sbu_1, # of connection points: 4
#     Node 7, Type 0, BuildingBlock: ICAMEG_clean_sbu_1, # of connection points: 4
#     Node 8, Type 0, BuildingBlock: ICAMEG_clean_sbu_1, # of connection points: 4
#     Node 9, Type 0, BuildingBlock: ICAMEG_clean_sbu_1, # of connection points: 4
#     Node 10, Type 0, BuildingBlock: ICAMEG_clean_sbu_1, # of connection points: 4
#     Node 11, Type 0, BuildingBlock: ICAMEG_clean_sbu_1, # of connection points: 4
#     Node 12, Type 0, BuildingBlock: ICAMEG_clean_sbu_1, # of connection points: 4
#     Node 13, Type 0, BuildingBlock: ICAMEG_clean_sbu_1, # of connection points: 4
#     Node 14, Type 0, BuildingBlock: ICAMEG_clean_sbu_1, # of connection points: 4
#     Node 15, Type 0, BuildingBlock: ICAMEG_clean_sbu_1, # of connection points: 4
#     Edge 16, Type (0, 0), BuildingBlock: XUDNAN_clean_linker_2, # of connection points: 2
#     Edge 17, Type (0, 0), BuildingBlock: XUDNAN_clean_linker_2, # of connection points: 2
#     Edge 18, Type (0, 0), BuildingBlock: XUDNAN_clean_linker_2, # of connection points: 2
#     Edge 19, Type (0, 0), BuildingBlock: XUDNAN_clean_linker_2, # of connection points: 2
#     Edge 20, Type (0, 0), BuildingBlock: XUDNAN_clean_linker_2, # of connection points: 2
#     Edge 21, Type (0, 0), BuildingBlock: XUDNAN_clean_linker_2, # of connection points: 2
#     Edge 22, Type (0, 0), BuildingBlock: XUDNAN_clean_linker_2, # of connection points: 2
#     Edge 23, Type (0, 0), BuildingBlock: XUDNAN_clean_linker_2, # of connection points: 2
#     Edge 24, Type (0, 0), BuildingBlock: XUDNAN_clean_linker_2, # of connection points: 2
#     Edge 25, Type (0, 0), BuildingBlock: XUDNAN_clean_linker_2, # of connection points: 2
#     Edge 26, Type (0, 0), BuildingBlock: XUDNAN_clean_linker_2, # of connection points: 2
#     Edge 27, Type (0, 0), BuildingBlock: XUDNAN_clean_linker_2, # of connection points: 2
#     Edge 28, Type (0, 0), BuildingBlock: XUDNAN_clean_linker_2, # of connection points: 2
#     Edge 29, Type (0, 0), BuildingBlock: XUDNAN_clean_linker_2, # of connection points: 2
#     Edge 30, Type (0, 0), BuildingBlock: XUDNAN_clean_linker_2, # of connection points: 2
#     Edge 31, Type (0, 0), BuildingBlock: XUDNAN_clean_linker_2, # of connection points: 2
#     Edge 32, Type (0, 0), BuildingBlock: XUDNAN_clean_linker_2, # of connection points: 2
#     Edge 33, Type (0, 0), BuildingBlock: XUDNAN_clean_linker_2, # of connection points: 2
#     Edge 34, Type (0, 0), BuildingBlock: XUDNAN_clean_linker_2, # of connection points: 2
#     Edge 35, Type (0, 0), BuildingBlock: XUDNAN_clean_linker_2, # of connection points: 2
#     Edge 36, Type (0, 0), BuildingBlock: XUDNAN_clean_linker_2, # of connection points: 2
#     Edge 37, Type (0, 0), BuildingBlock: XUDNAN_clean_linker_2, # of connection points: 2
#     Edge 38, Type (0, 0), BuildingBlock: XUDNAN_clean_linker_2, # of connection points: 2
#     Edge 39, Type (0, 0), BuildingBlock: XUDNAN_clean_linker_2, # of connection points: 2
#     Edge 40, Type (0, 0), BuildingBlock: XUDNAN_clean_linker_2, # of connection points: 2
#     Edge 41, Type (0, 0), BuildingBlock: XUDNAN_clean_linker_2, # of connection points: 2
#     Edge 42, Type (0, 0), BuildingBlock: XUDNAN_clean_linker_2, # of connection points: 2
#     Edge 43, Type (0, 0), BuildingBlock: XUDNAN_clean_linker_2, # of connection points: 2
#     Edge 44, Type (0, 0), BuildingBlock: XUDNAN_clean_linker_2, # of connection points: 2
#     Edge 45, Type (0, 0), BuildingBlock: XUDNAN_clean_linker_2, # of connection points: 2
#     Edge 46, Type (0, 0), BuildingBlock: XUDNAN_clean_linker_2, # of connection points: 2
#     Edge 47, Type (0, 0), BuildingBlock: XUDNAN_clean_linker_2, # of connection points: 2
# Relax obj value: 0.144
# Max RMSD: 0.172
# Mean RMSD: 0.172
data_MOF--net-tzs--node1-ICAMEG_clean_sbu_1--edge1-XUDNAN_clean_linker_2
_symmetry_space_group_name_H-M    P1
_symmetry_Int_Tables_number       1
_symmetry_cell_setting            triclinic
loop_
_symmetry_equiv_pos_as_xyz
'x, y, z'
_cell_length_a     49.755708
_cell_length_b     49.762861
_cell_length_c     44.144451
_cell_angle_alpha  90.024208
_cell_angle_beta   90.065688
_cell_angle_gamma 89.944894
loop_
_atom_site_label
_atom_site_type_symbol
_atom_site_fract_x
_atom_site_fract_y
_atom_site_fract_z
_atom_type_partial_charge
Co0 Co 0.14189 0.39199 0.16724 0.0
Co1 Co 0.15474 0.35613 0.23127 0.0
O2 O 0.16152 0.36256 0.18779 0.0
C3 C 0.15365 0.35131 0.11707 0.0
O4 O 0.16447 0.33412 0.13607 0.0
C5 C 0.21365 0.34033 0.22254 0.0
O6 O 0.21308 0.34458 0.19321 0.0
O7 O 0.16641 0.39355 0.23976 0.0
O8 O 0.13975 0.41328 0.20577 0.0
H9 H 0.11711 0.38106 0.33307 0.0
H10 H 0.19585 0.37408 0.14501 0.0
O11 O 0.14311 0.37303 0.12676 0.0
H12 H 0.20415 0.47159 0.16149 0.0
H13 H 0.12029 0.45559 0.08168 0.0
H14 H 0.09444 0.42513 0.18386 0.0
H15 H 0.16131 0.44856 0.17136 0.0
H16 H 0.14605 0.41998 0.10741 0.0
O17 O 0.19287 0.34407 0.23883 0.0
H18 H 0.12607 0.38718 0.27859 0.0
H19 H 0.16979 0.31383 0.27636 0.0
H20 H 0.06845 0.46114 0.15913 0.0
H21 H 0.23886 0.39634 0.13445 0.0
H22 H 0.08128 0.47658 0.10764 0.0
H23 H 0.24333 0.4455 0.14272 0.0
O24 O 0.10741 0.37383 0.17754 0.0
H25 H 0.16131 0.26542 0.18082 0.0
H26 H 0.10863 0.32202 0.25059 0.0
H27 H 0.09339 0.27602 0.23946 0.0
H28 H 0.11988 0.24726 0.20448 0.0
H29 H 0.17558 0.31156 0.19223 0.0
H30 H 0.16161 0.30713 0.33092 0.0
H31 H 0.13495 0.3408 0.3596 0.0
O32 O 0.11609 0.36778 0.22681 0.0
C33 C 0.15529 0.41433 0.22865 0.0
C34 C 0.1287 0.36621 0.3208 0.0
C35 C 0.15371 0.32474 0.3196 0.0
N36 N 0.14826 0.3508 0.27423 0.0
C37 C 0.13378 0.36953 0.28992 0.0
C38 C 0.15835 0.3287 0.28873 0.0
C39 C 0.13873 0.34363 0.33568 0.0
C40 C 0.19731 0.39545 0.14821 0.0
N41 N 0.17574 0.40993 0.15821 0.0
C42 C 0.22188 0.40798 0.14238 0.0
C43 C 0.22439 0.43554 0.14707 0.0
C44 C 0.20243 0.45019 0.15757 0.0
C45 C 0.17818 0.43698 0.1631 0.0
C46 C 0.1145 0.44904 0.10413 0.0
C47 C 0.10028 0.43179 0.16152 0.0
C48 C 0.12893 0.42877 0.11878 0.0
N49 N 0.12182 0.42044 0.14719 0.0
C50 C 0.08543 0.45217 0.1476 0.0
C51 C 0.09262 0.46081 0.1187 0.0
C52 C 0.09962 0.36941 0.20466 0.0
C53 C 0.14971 0.27767 0.1963 0.0
C54 C 0.12035 0.3097 0.23535 0.0
C55 C 0.11158 0.28362 0.22915 0.0
C56 C 0.12644 0.26751 0.20952 0.0
N57 N 0.1434 0.31948 0.22256 0.0
C58 C 0.15785 0.30385 0.20303 0.0
Co59 Co 0.62182 0.1377 0.17386 0.0
Co60 Co 0.65385 0.15115 0.24015 0.0
O61 O 0.65024 0.15743 0.19608 0.0
C62 C 0.66455 0.14924 0.12585 0.0
O63 O 0.68069 0.16082 0.14544 0.0
C64 C 0.67134 0.20981 0.23219 0.0
O65 O 0.66787 0.20962 0.20271 0.0
O66 O 0.61623 0.16396 0.24526 0.0
O67 O 0.59857 0.13643 0.21093 0.0
H68 H 0.62168 0.11586 0.34036 0.0
H69 H 0.64107 0.19168 0.15308 0.0
O70 O 0.64281 0.1382 0.1347 0.0
H71 H 0.54265 0.19978 0.1601 0.0
H72 H 0.56249 0.11493 0.08475 0.0
H73 H 0.58765 0.09079 0.18933 0.0
H74 H 0.56503 0.15707 0.17238 0.0
H75 H 0.59699 0.14085 0.11209 0.0
O76 O 0.66647 0.18897 0.24801 0.0
H77 H 0.61923 0.12408 0.28535 0.0
H78 H 0.69365 0.16579 0.28829 0.0
H79 H 0.55269 0.06466 0.16296 0.0
H80 H 0.61951 0.23457 0.14016 0.0
H81 H 0.53991 0.07664 0.11026 0.0
H82 H 0.56989 0.23895 0.14366 0.0
O83 O 0.63935 0.10327 0.18613 0.0
H84 H 0.74719 0.15498 0.19633 0.0
H85 H 0.68596 0.10472 0.2632 0.0
H86 H 0.73219 0.08838 0.25568 0.0
H87 H 0.76326 0.11364 0.22216 0.0
H88 H 0.70076 0.1704 0.20418 0.0
H89 H 0.69669 0.15835 0.3434 0.0
H90 H 0.66062 0.13306 0.36977 0.0
O91 O 0.64171 0.11265 0.23557 0.0
C92 C 0.59598 0.15336 0.23235 0.0
C93 C 0.63756 0.12684 0.32911 0.0
C94 C 0.67964 0.15072 0.33082 0.0
N95 N 0.65636 0.14521 0.28355 0.0
C96 C 0.63632 0.1315 0.29795 0.0
C97 C 0.67775 0.15495 0.29962 0.0
C98 C 0.6594 0.13652 0.34561 0.0
C99 C 0.61953 0.19307 0.15418 0.0
N100 N 0.60446 0.17149 0.16288 0.0
C101 C 0.60738 0.21758 0.14703 0.0
C102 C 0.57956 0.22005 0.14905 0.0
C103 C 0.56428 0.1981 0.15824 0.0
C104 C 0.57712 0.1739 0.16513 0.0
C105 C 0.56789 0.1095 0.1077 0.0
C106 C 0.58216 0.09624 0.16646 0.0
C107 C 0.58755 0.12401 0.12327 0.0
N108 N 0.59438 0.1174 0.15237 0.0
C109 C 0.56236 0.08132 0.15161 0.0
C110 C 0.55522 0.08804 0.12204 0.0
C111 C 0.64219 0.09586 0.21369 0.0
C112 C 0.73392 0.14391 0.21117 0.0
C113 C 0.6993 0.1159 0.24859 0.0
C114 C 0.72549 0.10652 0.24443 0.0
C115 C 0.74291 0.12069 0.22562 0.0
N116 N 0.69066 0.13887 0.23457 0.0
C117 C 0.70757 0.15268 0.21587 0.0
Co118 Co 0.86914 0.62495 0.17031 0.0
Co119 Co 0.85478 0.66079 0.23357 0.0
O120 O 0.84925 0.65431 0.19004 0.0
C121 C 0.85914 0.66618 0.12048 0.0
O122 O 0.84883 0.68349 0.13966 0.0
C123 C 0.79462 0.66391 0.23063 0.0
O124 O 0.79391 0.64036 0.21723 0.0
O125 O 0.8423 0.62343 0.24196 0.0
O126 O 0.86975 0.60371 0.20879 0.0
H127 H 0.88744 0.63671 0.33781 0.0
H128 H 0.81584 0.64376 0.14699 0.0
O129 O 0.86916 0.64412 0.12995 0.0
H130 H 0.80624 0.54608 0.16121 0.0
H131 H 0.8926 0.56113 0.0856 0.0
H132 H 0.91554 0.59114 0.1889 0.0
H133 H 0.84909 0.56851 0.17276 0.0
H134 H 0.86665 0.59721 0.1102 0.0
O135 O 0.81705 0.67454 0.23759 0.0
H136 H 0.88067 0.62989 0.283 0.0
H137 H 0.83906 0.70426 0.27683 0.0
H138 H 0.94165 0.55462 0.16535 0.0
H139 H 0.77286 0.62208 0.13468 0.0
H140 H 0.93029 0.5394 0.1133 0.0
H141 H 0.76773 0.57285 0.14182 0.0
O142 O 0.90349 0.64274 0.18233 0.0
H143 H 0.84862 0.75107 0.18321 0.0
H144 H 0.90163 0.69444 0.25283 0.0
H145 H 0.91726 0.74022 0.24098 0.0
H146 H 0.89065 0.76891 0.20599 0.0
H147 H 0.83384 0.70503 0.19549 0.0
H148 H 0.84501 0.71169 0.33165 0.0
H149 H 0.86952 0.67785 0.3625 0.0
O150 O 0.8933 0.64822 0.23133 0.0
C151 C 0.85335 0.60255 0.23085 0.0
C152 C 0.87677 0.65163 0.32461 0.0
C153 C 0.85294 0.69369 0.32115 0.0
N154 N 0.85961 0.6667 0.27669 0.0
C155 C 0.87293 0.6479 0.29354 0.0
C156 C 0.84953 0.68932 0.29013 0.0
C157 C 0.8667 0.6747 0.33845 0.0
C158 C 0.81415 0.62231 0.14952 0.0
N159 N 0.83539 0.60744 0.15978 0.0
C160 C 0.78958 0.61013 0.14278 0.0
C161 C 0.78669 0.58253 0.14686 0.0
C162 C 0.80828 0.56751 0.1577 0.0
C163 C 0.83255 0.58036 0.16414 0.0
C164 C 0.89777 0.56759 0.10829 0.0
C165 C 0.91036 0.5846 0.1663 0.0
C166 C 0.88324 0.58815 0.12229 0.0
N167 N 0.88954 0.59634 0.15102 0.0
C168 C 0.92527 0.56392 0.15305 0.0
C169 C 0.91889 0.5554 0.12385 0.0
C170 C 0.91046 0.64678 0.20987 0.0
C171 C 0.8604 0.73876 0.19848 0.0
C172 C 0.89003 0.7067 0.2374 0.0
C173 C 0.89894 0.73266 0.23087 0.0
C174 C 0.88398 0.74875 0.21126 0.0
N175 N 0.86687 0.69703 0.22476 0.0
C176 C 0.85211 0.7127 0.20553 0.0
Co177 Co 0.39232 0.87021 0.16844 0.0
Co178 Co 0.35299 0.86031 0.23069 0.0
O179 O 0.36128 0.85227 0.18793 0.0
C180 C 0.35232 0.86035 0.1172 0.0
O181 O 0.33382 0.85204 0.13617 0.0
C182 C 0.33781 0.8008 0.2247 0.0
O183 O 0.34691 0.79846 0.19693 0.0
O184 O 0.38952 0.8476 0.24201 0.0
O185 O 0.41223 0.87171 0.2079 0.0
H186 H 0.374 0.89972 0.33282 0.0
H187 H 0.37231 0.81725 0.1455 0.0
O188 O 0.37467 0.8693 0.12711 0.0
H189 H 0.46834 0.8033 0.16774 0.0
H190 H 0.45998 0.88684 0.0856 0.0
H191 H 0.4276 0.9158 0.18598 0.0
H192 H 0.4474 0.84752 0.176 0.0
H193 H 0.42206 0.8636 0.11 0.0
O194 O 0.33904 0.82315 0.23868 0.0
H195 H 0.38272 0.88879 0.27925 0.0
H196 H 0.3076 0.84861 0.27311 0.0
H197 H 0.46587 0.93928 0.16259 0.0
H198 H 0.39253 0.77291 0.13645 0.0
H199 H 0.48229 0.92488 0.112 0.0
H200 H 0.44091 0.7656 0.14764 0.0
O201 O 0.37601 0.90606 0.17744 0.0
H202 H 0.26481 0.85339 0.17546 0.0
H203 H 0.31942 0.90855 0.24491 0.0
H204 H 0.27451 0.92442 0.2296 0.0
H205 H 0.2468 0.89671 0.19471 0.0
H206 H 0.30996 0.83845 0.1911 0.0
H207 H 0.29828 0.85876 0.32674 0.0
H208 H 0.33153 0.88465 0.35693 0.0
O209 O 0.36627 0.89812 0.22602 0.0
C210 C 0.4113 0.85729 0.23168 0.0
C211 C 0.35933 0.88846 0.31989 0.0
C212 C 0.31685 0.86546 0.31649 0.0
N213 N 0.34563 0.86824 0.27297 0.0
C214 C 0.36413 0.88226 0.28952 0.0
C215 C 0.32229 0.8597 0.28614 0.0
C216 C 0.33551 0.87999 0.33341 0.0
C217 C 0.39342 0.81454 0.14994 0.0
N218 N 0.40864 0.83528 0.16071 0.0
C219 C 0.40476 0.78923 0.14497 0.0
C220 C 0.43188 0.78513 0.15131 0.0
C221 C 0.44727 0.80626 0.16257 0.0
C222 C 0.43526 0.83129 0.16719 0.0
C223 C 0.453 0.89332 0.10765 0.0
C224 C 0.43465 0.9093 0.16403 0.0
C225 C 0.43142 0.88032 0.12154 0.0
N226 N 0.42254 0.88831 0.14944 0.0
C227 C 0.45632 0.92272 0.15086 0.0
C228 C 0.46552 0.91464 0.12248 0.0
C229 C 0.37071 0.9143 0.20422 0.0
C230 C 0.27665 0.8656 0.19076 0.0
C231 C 0.30759 0.8964 0.22961 0.0
C232 C 0.28211 0.90548 0.22109 0.0
C233 C 0.26657 0.88992 0.20153 0.0
N234 N 0.31731 0.87244 0.21907 0.0
C235 C 0.30221 0.85716 0.1998 0.0
Co236 Co 0.12132 0.62217 0.34928 0.0
Co237 Co 0.15242 0.66022 0.29571 0.0
O238 O 0.14768 0.65015 0.33828 0.0
C239 C 0.12184 0.66246 0.40039 0.0
O240 O 0.12934 0.68141 0.38159 0.0
C241 C 0.21098 0.66197 0.28638 0.0
O242 O 0.20704 0.64419 0.26482 0.0
O243 O 0.16224 0.62225 0.28702 0.0
O244 O 0.12718 0.6029 0.30984 0.0
H245 H 0.14239 0.64561 0.18363 0.0
H246 H 0.16823 0.6344 0.38896 0.0
O247 O 0.11529 0.63938 0.39027 0.0
H248 H 0.17401 0.53726 0.36806 0.0
H249 H 0.07485 0.55756 0.41982 0.0
H250 H 0.07745 0.59433 0.31617 0.0
H251 H 0.13705 0.56428 0.34678 0.0
H252 H 0.10852 0.59163 0.40583 0.0
O253 O 0.19143 0.66887 0.3035 0.0
H254 H 0.13644 0.6349 0.23775 0.0
H255 H 0.17858 0.70583 0.26243 0.0
H256 H 0.04363 0.56012 0.32915 0.0
H257 H 0.20523 0.60803 0.41112 0.0
H258 H 0.04216 0.54147 0.38131 0.0
H259 H 0.20837 0.55909 0.40067 0.0
O260 O 0.09184 0.64372 0.32984 0.0
H261 H 0.15893 0.7461 0.3551 0.0
H262 H 0.11358 0.70037 0.27018 0.0
H263 H 0.10103 0.74691 0.28294 0.0
H264 H 0.12385 0.77016 0.32559 0.0
H265 H 0.17054 0.69935 0.34192 0.0
H266 H 0.18515 0.71718 0.20861 0.0
H267 H 0.16697 0.68696 0.16876 0.0
O268 O 0.1137 0.65234 0.28664 0.0
C269 C 0.14769 0.60182 0.29261 0.0
C270 C 0.1504 0.65894 0.20078 0.0
C271 C 0.17435 0.69913 0.21479 0.0
N272 N 0.15712 0.66969 0.25327 0.0
C273 C 0.14708 0.65298 0.23147 0.0
C274 C 0.17053 0.6926 0.24524 0.0
C275 C 0.16418 0.68215 0.19245 0.0
C276 C 0.16916 0.61308 0.38462 0.0
N277 N 0.15016 0.6009 0.36696 0.0
C278 C 0.19029 0.59826 0.39711 0.0
C279 C 0.19206 0.5708 0.3912 0.0
C280 C 0.17279 0.55854 0.37293 0.0
C281 C 0.15189 0.57398 0.36093 0.0
C282 C 0.07527 0.56554 0.39702 0.0
C283 C 0.07703 0.58631 0.3389 0.0
C284 C 0.09423 0.58495 0.38898 0.0
N285 N 0.095 0.59502 0.36018 0.0
C286 C 0.05778 0.56694 0.34612 0.0
C287 C 0.05695 0.5565 0.3754 0.0
C288 C 0.09191 0.65012 0.30174 0.0
C289 C 0.14885 0.7362 0.33645 0.0
C290 C 0.12338 0.71017 0.28903 0.0
C291 C 0.1163 0.73662 0.29602 0.0
C292 C 0.12914 0.74967 0.31992 0.0
N293 N 0.14272 0.69706 0.30539 0.0
C294 C 0.15542 0.70976 0.3288 0.0
Co295 Co 0.3954 0.13047 0.34146 0.0
Co296 Co 0.35027 0.15211 0.28913 0.0
O297 O 0.36217 0.15045 0.33174 0.0
C298 C 0.36292 0.1284 0.40054 0.0
O299 O 0.34297 0.14277 0.38967 0.0
C300 C 0.34262 0.21062 0.30388 0.0
O301 O 0.36672 0.21219 0.3159 0.0
O302 O 0.38498 0.16972 0.27822 0.0
O303 O 0.4111 0.13931 0.30105 0.0
H304 H 0.36319 0.14272 0.17672 0.0
H305 H 0.37593 0.17765 0.3782 0.0
O306 O 0.38215 0.12083 0.38336 0.0
H307 H 0.47043 0.19743 0.35426 0.0
H308 H 0.4718 0.09878 0.4077 0.0
H309 H 0.43005 0.09283 0.30659 0.0
H310 H 0.44947 0.1557 0.33616 0.0
H311 H 0.43081 0.12459 0.39598 0.0
O312 O 0.33319 0.18818 0.29511 0.0
H313 H 0.37654 0.13997 0.23043 0.0
H314 H 0.29982 0.16882 0.25736 0.0
H315 H 0.47129 0.06714 0.31721 0.0
H316 H 0.39622 0.21924 0.39719 0.0
H317 H 0.49245 0.06994 0.3681 0.0
H318 H 0.44387 0.22952 0.38527 0.0
O319 O 0.37921 0.09695 0.32386 0.0
H320 H 0.26827 0.13949 0.35365 0.0
H321 H 0.31826 0.10587 0.26496 0.0
H322 H 0.27623 0.08346 0.2802 0.0
H323 H 0.25088 0.10031 0.32479 0.0
H324 H 0.31057 0.16118 0.33773 0.0
H325 H 0.28576 0.17217 0.20394 0.0
H326 H 0.31752 0.15898 0.16317 0.0
O327 O 0.36609 0.11586 0.28038 0.0
C328 C 0.40783 0.15901 0.28309 0.0
C329 C 0.34915 0.14846 0.19428 0.0
C330 C 0.3057 0.16499 0.20955 0.0
N331 N 0.33896 0.15405 0.24706 0.0
C332 C 0.35658 0.14687 0.22475 0.0
C333 C 0.3138 0.16308 0.23977 0.0
C334 C 0.32353 0.1576 0.1867 0.0
C335 C 0.39681 0.18128 0.37363 0.0
N336 N 0.41166 0.16336 0.35718 0.0
C337 C 0.40816 0.2052 0.38415 0.0
C338 C 0.43486 0.211 0.37738 0.0
C339 C 0.44977 0.193 0.36005 0.0
C340 C 0.43776 0.16927 0.34999 0.0
C341 C 0.46272 0.09733 0.38547 0.0
C342 C 0.43908 0.09425 0.32879 0.0
C343 C 0.43937 0.11175 0.37875 0.0
N344 N 0.42786 0.11018 0.35064 0.0
C345 C 0.46246 0.0796 0.33468 0.0
C346 C 0.47432 0.08118 0.36323 0.0
C347 C 0.37272 0.09526 0.29588 0.0
C348 C 0.27911 0.13199 0.33415 0.0
C349 C 0.30743 0.11325 0.28448 0.0
C350 C 0.28359 0.10052 0.29295 0.0
C351 C 0.26937 0.10999 0.31796 0.0
N352 N 0.31681 0.13486 0.30044 0.0
C353 C 0.30302 0.14422 0.32501 0.0
Co354 Co 0.88429 0.39458 0.33457 0.0
Co355 Co 0.85593 0.35383 0.2819 0.0
O356 O 0.85971 0.36441 0.32487 0.0
C357 C 0.88192 0.36184 0.39338 0.0
O358 O 0.86519 0.344 0.38222 0.0
C359 C 0.80001 0.34192 0.30778 0.0
O360 O 0.80522 0.35236 0.33446 0.0
O361 O 0.84272 0.39088 0.27292 0.0
O362 O 0.87777 0.41137 0.29403 0.0
H363 H 0.867 0.36907 0.17012 0.0
H364 H 0.83544 0.38248 0.37232 0.0
O365 O 0.89197 0.38005 0.37645 0.0
H366 H 0.82897 0.47867 0.34751 0.0
H367 H 0.92696 0.46551 0.4006 0.0
H368 H 0.92674 0.42298 0.29973 0.0
H369 H 0.86716 0.45184 0.32934 0.0
H370 H 0.89526 0.42893 0.38893 0.0
O371 O 0.81771 0.34189 0.28703 0.0
H372 H 0.87172 0.37996 0.22436 0.0
H373 H 0.8317 0.30759 0.24806 0.0
H374 H 0.95846 0.45973 0.31034 0.0
H375 H 0.79725 0.40864 0.39138 0.0
H376 H 0.95875 0.48129 0.3611 0.0
H377 H 0.79368 0.45717 0.37899 0.0
O378 O 0.91495 0.37362 0.31701 0.0
H379 H 0.8599 0.26922 0.34397 0.0
H380 H 0.89581 0.31603 0.25435 0.0
H381 H 0.91251 0.27078 0.26699 0.0
H382 H 0.89444 0.24698 0.31202 0.0
H383 H 0.844 0.3146 0.33069 0.0
H384 H 0.82636 0.29607 0.19409 0.0
H385 H 0.84415 0.32686 0.15468 0.0
O386 O 0.89416 0.3644 0.27341 0.0
C387 C 0.85655 0.41192 0.27796 0.0
C388 C 0.85919 0.35547 0.18708 0.0
C389 C 0.83635 0.31451 0.20053 0.0
N390 N 0.85215 0.3444 0.2394 0.0
C391 C 0.86185 0.3615 0.21784 0.0
C392 C 0.8394 0.32119 0.23107 0.0
C393 C 0.84636 0.33179 0.17843 0.0
C394 C 0.8346 0.40358 0.36733 0.0
N395 N 0.85421 0.41555 0.35042 0.0
C396 C 0.81266 0.41833 0.37799 0.0
C397 C 0.81063 0.44553 0.37099 0.0
C398 C 0.83042 0.4576 0.35339 0.0
C399 C 0.85211 0.44224 0.34323 0.0
C400 C 0.92707 0.45624 0.37842 0.0
C401 C 0.92665 0.43221 0.32187 0.0
C402 C 0.90927 0.43538 0.37172 0.0
N403 N 0.90913 0.42368 0.34367 0.0
C404 C 0.94471 0.45304 0.32775 0.0
C405 C 0.94488 0.46511 0.35624 0.0
C406 C 0.91562 0.36688 0.28906 0.0
C407 C 0.86782 0.27932 0.3242 0.0
C408 C 0.88785 0.30587 0.27402 0.0
C409 C 0.89738 0.28021 0.28103 0.0
C410 C 0.88723 0.26687 0.30629 0.0
N411 N 0.86863 0.31789 0.29155 0.0
C412 C 0.85878 0.305 0.31647 0.0
Co413 Co 0.62252 0.88433 0.35082 0.0
Co414 Co 0.65722 0.85251 0.2948 0.0
O415 O 0.64923 0.85721 0.33795 0.0
C416 C 0.66412 0.88073 0.40065 0.0
O417 O 0.68196 0.87135 0.38152 0.0
C418 C 0.65505 0.79354 0.28656 0.0
O419 O 0.63435 0.79772 0.26869 0.0
O420 O 0.61856 0.84423 0.28823 0.0
O421 O 0.60144 0.87972 0.31237 0.0
H422 H 0.63808 0.86456 0.18388 0.0
H423 H 0.63474 0.8361 0.38857 0.0
O424 O 0.64151 0.88931 0.39099 0.0
H425 H 0.53661 0.8347 0.37331 0.0
H426 H 0.56245 0.93216 0.42535 0.0
H427 H 0.59497 0.92966 0.31992 0.0
H428 H 0.56405 0.87088 0.35129 0.0
H429 H 0.59457 0.89735 0.40901 0.0
O430 O 0.66516 0.81313 0.30147 0.0
H431 H 0.63004 0.87033 0.23863 0.0
H432 H 0.69981 0.82439 0.2587 0.0
H433 H 0.56271 0.96466 0.33527 0.0
H434 H 0.60798 0.79986 0.41144 0.0
H435 H 0.54621 0.96609 0.38833 0.0
H436 H 0.55853 0.79892 0.40384 0.0
O437 O 0.64422 0.91323 0.33075 0.0
H438 H 0.7455 0.84222 0.34887 0.0
H439 H 0.69758 0.88973 0.26703 0.0
H440 H 0.7452 0.90015 0.27683 0.0
H441 H 0.76955 0.87621 0.3179 0.0
H442 H 0.6977 0.83278 0.33865 0.0
H443 H 0.7085 0.81798 0.20423 0.0
H444 H 0.67753 0.83819 0.16637 0.0
O445 O 0.65031 0.89169 0.28671 0.0
C446 C 0.59889 0.8594 0.29508 0.0
C447 C 0.65172 0.85566 0.20015 0.0
C448 C 0.69124 0.82952 0.21156 0.0
N449 N 0.6644 0.84772 0.25186 0.0
C450 C 0.64727 0.85886 0.23118 0.0
C451 C 0.68619 0.8332 0.24239 0.0
C452 C 0.67386 0.84086 0.19034 0.0
C453 C 0.61322 0.83618 0.38552 0.0
N454 N 0.60101 0.85599 0.36907 0.0
C455 C 0.59817 0.81545 0.39838 0.0
C456 C 0.57043 0.8149 0.39407 0.0
C457 C 0.55812 0.83497 0.37697 0.0
C458 C 0.5738 0.85544 0.36455 0.0
C459 C 0.56951 0.93177 0.40217 0.0
C460 C 0.58789 0.93007 0.34304 0.0
C461 C 0.58782 0.91217 0.39281 0.0
N462 N 0.59673 0.91144 0.36352 0.0
C463 C 0.56961 0.94997 0.35161 0.0
C464 C 0.56039 0.95078 0.38138 0.0
C465 C 0.64944 0.91334 0.30233 0.0
C466 C 0.73511 0.8528 0.33091 0.0
C467 C 0.70788 0.87951 0.28523 0.0
C468 C 0.73492 0.88536 0.29054 0.0
C469 C 0.74859 0.87189 0.31355 0.0
N470 N 0.69479 0.86075 0.30236 0.0
C471 C 0.70806 0.84748 0.32496 0.0
Co472 Co 0.88432 0.63574 0.85144 0.0
Co473 Co 0.85222 0.65164 0.78594 0.0
O474 O 0.85614 0.65641 0.83009 0.0
C475 C 0.84139 0.64661 0.89919 0.0
O476 O 0.82519 0.65781 0.87938 0.0
C477 C 0.83512 0.7097 0.79783 0.0
O478 O 0.83808 0.70731 0.82724 0.0
O479 O 0.89008 0.66378 0.78114 0.0
O480 O 0.90743 0.63481 0.81425 0.0
H481 H 0.88325 0.61897 0.6841 0.0
H482 H 0.86602 0.68919 0.87497 0.0
O483 O 0.86338 0.63588 0.89061 0.0
H484 H 0.96436 0.69641 0.86582 0.0
H485 H 0.94349 0.61006 0.93964 0.0
H486 H 0.91764 0.58852 0.83454 0.0
H487 H 0.94131 0.65436 0.85232 0.0
H488 H 0.90942 0.63724 0.91308 0.0
O489 O 0.84023 0.69011 0.7801 0.0
H490 H 0.88602 0.62518 0.73944 0.0
H491 H 0.81271 0.669 0.7387 0.0
H492 H 0.95215 0.56115 0.86011 0.0
H493 H 0.88827 0.73139 0.88912 0.0
H494 H 0.96526 0.57181 0.91307 0.0
H495 H 0.93785 0.73532 0.88455 0.0
O496 O 0.86623 0.60203 0.83812 0.0
H497 H 0.75872 0.65505 0.82996 0.0
H498 H 0.81957 0.60666 0.7608 0.0
H499 H 0.77315 0.59069 0.76731 0.0
H500 H 0.74226 0.61502 0.80196 0.0
H501 H 0.80529 0.67008 0.82312 0.0
H502 H 0.80935 0.66358 0.68329 0.0
H503 H 0.8447 0.63826 0.65565 0.0
O504 O 0.8637 0.61269 0.78894 0.0
C505 C 0.91011 0.65193 0.79308 0.0
C506 C 0.86768 0.62999 0.6959 0.0
C507 C 0.82623 0.65506 0.69544 0.0
N508 N 0.84947 0.64727 0.74233 0.0
C509 C 0.86911 0.63351 0.72725 0.0
C510 C 0.8283 0.65815 0.72681 0.0
C511 C 0.84606 0.64084 0.67995 0.0
C512 C 0.88754 0.6904 0.87334 0.0
N513 N 0.90222 0.66895 0.86334 0.0
C514 C 0.90008 0.71451 0.88122 0.0
C515 C 0.92788 0.71673 0.87861 0.0
C516 C 0.94276 0.69491 0.86813 0.0
C517 C 0.92954 0.6711 0.86054 0.0
C518 C 0.93794 0.6052 0.91657 0.0
C519 C 0.92329 0.5934 0.85753 0.0
C520 C 0.91853 0.62043 0.90144 0.0
N521 N 0.91149 0.61452 0.87222 0.0
C522 C 0.94282 0.57777 0.87192 0.0
C523 C 0.95016 0.58376 0.90164 0.0
C524 C 0.86338 0.59535 0.81032 0.0
C525 C 0.77191 0.64441 0.81459 0.0
C526 C 0.80632 0.61747 0.77591 0.0
C527 C 0.78001 0.60828 0.77949 0.0
C528 C 0.7627 0.62192 0.79893 0.0
N529 N 0.81519 0.63977 0.79107 0.0
C530 C 0.79837 0.653 0.81044 0.0
Co531 Co 0.37704 0.87744 0.84773 0.0
Co532 Co 0.34753 0.84587 0.78788 0.0
O533 O 0.35124 0.85047 0.83196 0.0
C534 C 0.3721 0.8348 0.89659 0.0
O535 O 0.35964 0.81848 0.87794 0.0
C536 C 0.29127 0.83332 0.81187 0.0
O537 O 0.29818 0.83589 0.84041 0.0
O538 O 0.33742 0.88444 0.78484 0.0
O539 O 0.37233 0.90046 0.81084 0.0
H540 H 0.36265 0.87413 0.67999 0.0
H541 H 0.32795 0.86177 0.88283 0.0
O542 O 0.38244 0.85654 0.88667 0.0
H543 H 0.32421 0.96042 0.87498 0.0
H544 H 0.42076 0.93526 0.92762 0.0
H545 H 0.42187 0.90828 0.82015 0.0
H546 H 0.36168 0.93527 0.8522 0.0
H547 H 0.38772 0.90272 0.90811 0.0
O548 O 0.30825 0.83675 0.7907 0.0
H549 H 0.36697 0.87755 0.73551 0.0
H550 H 0.31987 0.80707 0.74649 0.0
H551 H 0.45504 0.94112 0.83866 0.0
H552 H 0.29045 0.88615 0.90633 0.0
H553 H 0.45466 0.95484 0.89277 0.0
H554 H 0.28829 0.93589 0.9025 0.0
O555 O 0.40724 0.85801 0.82689 0.0
H556 H 0.34418 0.75303 0.83355 0.0
H557 H 0.38495 0.80961 0.75445 0.0
H558 H 0.39805 0.76205 0.7584 0.0
H559 H 0.37748 0.73329 0.79806 0.0
H560 H 0.3321 0.8007 0.82914 0.0
H561 H 0.31484 0.80304 0.69111 0.0
H562 H 0.33643 0.83665 0.65744 0.0
O563 O 0.38656 0.85456 0.78203 0.0
C564 C 0.35219 0.90386 0.79342 0.0
C565 C 0.35321 0.85932 0.69442 0.0
C566 C 0.32635 0.81944 0.70066 0.0
N567 N 0.34387 0.84244 0.74424 0.0
C568 C 0.35563 0.86112 0.72588 0.0
C569 C 0.32921 0.82187 0.73202 0.0
C570 C 0.33848 0.8383 0.68178 0.0
C571 C 0.3276 0.88336 0.88143 0.0
N572 N 0.34751 0.89696 0.86667 0.0
C573 C 0.3061 0.8971 0.89464 0.0
C574 C 0.30487 0.92499 0.89244 0.0
C575 C 0.32501 0.93876 0.87703 0.0
C576 C 0.34623 0.92435 0.86418 0.0
C577 C 0.42116 0.92942 0.904 0.0
C578 C 0.42149 0.91413 0.84371 0.0
C579 C 0.40259 0.91086 0.89284 0.0
N580 N 0.40285 0.90348 0.86299 0.0
C581 C 0.44037 0.93275 0.85407 0.0
C582 C 0.44016 0.94041 0.88443 0.0
C583 C 0.40793 0.85466 0.79812 0.0
C584 C 0.35318 0.7653 0.81606 0.0
C585 C 0.37597 0.79737 0.77189 0.0
C586 C 0.38344 0.77037 0.77396 0.0
C587 C 0.37189 0.75425 0.79618 0.0
N588 N 0.3574 0.80808 0.7913 0.0
C589 C 0.34624 0.7924 0.81332 0.0
Co590 Co 0.12246 0.3717 0.84773 0.0
Co591 Co 0.15657 0.34999 0.7856 0.0
O592 O 0.15186 0.35054 0.8297 0.0
C593 C 0.16679 0.37029 0.89512 0.0
O594 O 0.18383 0.35995 0.87566 0.0
C595 C 0.16129 0.29021 0.79405 0.0
O596 O 0.1368 0.28919 0.80505 0.0
O597 O 0.11931 0.3356 0.78099 0.0
O598 O 0.09928 0.36553 0.81138 0.0
H599 H 0.12736 0.36558 0.67799 0.0
H600 H 0.14589 0.32327 0.87841 0.0
O601 O 0.14368 0.37821 0.88624 0.0
H602 H 0.04841 0.30672 0.8736 0.0
H603 H 0.06173 0.40324 0.93193 0.0
H604 H 0.08461 0.41281 0.82383 0.0
H605 H 0.06747 0.34845 0.85287 0.0
H606 H 0.09811 0.37622 0.90948 0.0
O607 O 0.17186 0.3127 0.7873 0.0
H608 H 0.12266 0.36666 0.73357 0.0
H609 H 0.19963 0.33078 0.74369 0.0
H610 H 0.04775 0.43983 0.84526 0.0
H611 H 0.12762 0.28157 0.89976 0.0
H612 H 0.0361 0.4352 0.89971 0.0
H613 H 0.07851 0.27297 0.89747 0.0
O614 O 0.13698 0.40521 0.82818 0.0
H615 H 0.24903 0.35358 0.83124 0.0
H616 H 0.18715 0.39539 0.75771 0.0
H617 H 0.23257 0.41418 0.76453 0.0
H618 H 0.26391 0.3932 0.80146 0.0
H619 H 0.20329 0.33561 0.82395 0.0
H620 H 0.20501 0.32897 0.68824 0.0
H621 H 0.16876 0.3466 0.65496 0.0
O622 O 0.14225 0.38747 0.78191 0.0
C623 C 0.09838 0.34749 0.79092 0.0
C624 C 0.14333 0.35792 0.69225 0.0
C625 C 0.18689 0.33734 0.69799 0.0
N626 N 0.16091 0.34899 0.74191 0.0
C627 C 0.14082 0.35856 0.72375 0.0
C628 C 0.18369 0.33835 0.7294 0.0
C629 C 0.16655 0.34724 0.67934 0.0
C630 C 0.12448 0.32018 0.87789 0.0
N631 N 0.10778 0.33892 0.86528 0.0
C632 C 0.11424 0.29629 0.88979 0.0
C633 C 0.08671 0.29143 0.88842 0.0
C634 C 0.06981 0.31036 0.87507 0.0
C635 C 0.08076 0.33403 0.86344 0.0
C636 C 0.06664 0.40549 0.90819 0.0
C637 C 0.07968 0.41059 0.84752 0.0
C638 C 0.08737 0.39036 0.89537 0.0
N639 N 0.09362 0.39295 0.86534 0.0
C640 C 0.05878 0.42599 0.85954 0.0
C641 C 0.05226 0.42339 0.89009 0.0
C642 C 0.139 0.40766 0.79938 0.0
C643 C 0.23557 0.36291 0.81509 0.0
C644 C 0.20056 0.38628 0.77403 0.0
C645 C 0.22631 0.39694 0.77769 0.0
C646 C 0.24389 0.38514 0.79839 0.0
N647 N 0.19252 0.36447 0.79053 0.0
C648 C 0.20966 0.35279 0.81083 0.0
Co649 Co 0.63776 0.1203 0.85511 0.0
Co650 Co 0.64651 0.15517 0.7897 0.0
O651 O 0.65495 0.1504 0.83314 0.0
C652 C 0.64703 0.16313 0.90372 0.0
O653 O 0.6563 0.18055 0.884 0.0
C654 C 0.70613 0.1696 0.79221 0.0
O655 O 0.71053 0.15566 0.81694 0.0
O656 O 0.6613 0.11868 0.78186 0.0
O657 O 0.63702 0.09783 0.8173 0.0
H658 H 0.60928 0.12474 0.68956 0.0
H659 H 0.69047 0.14286 0.87579 0.0
O660 O 0.638 0.14047 0.89487 0.0
H661 H 0.70603 0.04578 0.86297 0.0
H662 H 0.6221 0.05769 0.94312 0.0
H663 H 0.59291 0.08322 0.84028 0.0
H664 H 0.66146 0.06525 0.85276 0.0
H665 H 0.64473 0.09441 0.91583 0.0
O666 O 0.68268 0.1711 0.7808 0.0
H667 H 0.62044 0.1204 0.74375 0.0
H668 H 0.6553 0.19831 0.74354 0.0
H669 H 0.57005 0.04606 0.8666 0.0
H670 H 0.73512 0.12416 0.88679 0.0
H671 H 0.58457 0.0331 0.91843 0.0
H672 H 0.74326 0.07525 0.88032 0.0
O673 O 0.60166 0.13558 0.8448 0.0
H674 H 0.64876 0.24686 0.83709 0.0
H675 H 0.59633 0.185 0.77284 0.0
H676 H 0.57805 0.22983 0.78468 0.0
H677 H 0.60436 0.26115 0.81696 0.0
H678 H 0.66618 0.20168 0.8249 0.0
H679 H 0.64484 0.20332 0.68924 0.0
H680 H 0.6215 0.16644 0.66191 0.0
O681 O 0.6094 0.14005 0.79528 0.0
C682 C 0.65227 0.0974 0.79415 0.0
C683 C 0.61941 0.14097 0.70122 0.0
C684 C 0.63939 0.18506 0.70104 0.0
N685 N 0.63838 0.15912 0.74689 0.0
C686 C 0.62575 0.13866 0.73193 0.0
C687 C 0.64534 0.18206 0.73178 0.0
C688 C 0.62629 0.16437 0.68572 0.0
C689 C 0.69349 0.12154 0.87353 0.0
N690 N 0.67299 0.10521 0.86432 0.0
C691 C 0.71899 0.11105 0.87955 0.0
C692 C 0.72357 0.08363 0.87584 0.0
C693 C 0.7027 0.0671 0.86613 0.0
C694 C 0.67746 0.07829 0.86041 0.0
C695 C 0.61557 0.06316 0.92055 0.0
C696 C 0.59945 0.07766 0.86277 0.0
C697 C 0.62822 0.08405 0.90501 0.0
N698 N 0.62017 0.09102 0.87643 0.0
C699 C 0.58638 0.05662 0.87759 0.0
C700 C 0.59453 0.04936 0.90668 0.0
C701 C 0.59328 0.13854 0.81763 0.0
C702 C 0.63713 0.23341 0.82296 0.0
C703 C 0.60786 0.19843 0.78704 0.0
C704 C 0.59743 0.22384 0.79359 0.0
C705 C 0.6122 0.24141 0.81168 0.0
N706 N 0.63235 0.19074 0.79818 0.0
C707 C 0.64692 0.20784 0.81594 0.0
Co708 Co 0.89507 0.38397 0.67574 0.0
Co709 Co 0.8519 0.35315 0.724 0.0
O710 O 0.86568 0.35805 0.68263 0.0
C711 C 0.8649 0.38072 0.6154 0.0
O712 O 0.84675 0.36423 0.62632 0.0
C713 C 0.84779 0.29458 0.73238 0.0
O714 O 0.8646 0.29775 0.75507 0.0
O715 O 0.88884 0.34202 0.73661 0.0
O716 O 0.90972 0.37765 0.71739 0.0
H717 H 0.85725 0.36182 0.83724 0.0
H718 H 0.88687 0.33492 0.63704 0.0
O719 O 0.88254 0.39124 0.63284 0.0
H720 H 0.98192 0.33227 0.66803 0.0
H721 H 0.9677 0.43038 0.61577 0.0
H722 H 0.91944 0.42724 0.71316 0.0
H723 H 0.95266 0.36924 0.68465 0.0
H724 H 0.93202 0.39692 0.62431 0.0
O725 O 0.8427 0.31445 0.71487 0.0
H726 H 0.87261 0.36795 0.78459 0.0
H727 H 0.80302 0.32793 0.75186 0.0
H728 H 0.95517 0.46076 0.70569 0.0
H729 H 0.91556 0.29797 0.61942 0.0
H730 H 0.97961 0.46251 0.65671 0.0
H731 H 0.96351 0.29634 0.63493 0.0
O732 O 0.87186 0.41346 0.69227 0.0
H733 H 0.77244 0.3511 0.65387 0.0
H734 H 0.81031 0.39213 0.74619 0.0
H735 H 0.76563 0.40639 0.72817 0.0
H736 H 0.74635 0.38575 0.68175 0.0
H737 H 0.81723 0.33764 0.67254 0.0
H738 H 0.78703 0.32119 0.80414 0.0
H739 H 0.81421 0.33822 0.84728 0.0
O740 O 0.85985 0.3917 0.73447 0.0
C741 C 0.90978 0.35639 0.73337 0.0
C742 C 0.84523 0.35432 0.81863 0.0
C743 C 0.8058 0.33155 0.80006 0.0
N744 N 0.83878 0.34832 0.76515 0.0
C745 C 0.85383 0.35774 0.78877 0.0
C746 C 0.81496 0.33545 0.7705 0.0
C747 C 0.82107 0.34108 0.82425 0.0
C748 C 0.90775 0.33495 0.64334 0.0
N749 N 0.91808 0.35496 0.66107 0.0
C750 C 0.92392 0.3137 0.63351 0.0
C751 C 0.9508 0.31275 0.64227 0.0
C752 C 0.96114 0.33291 0.66078 0.0
C753 C 0.94442 0.35389 0.67004 0.0
C754 C 0.95716 0.42986 0.63719 0.0
C755 C 0.92992 0.4278 0.69177 0.0
C756 C 0.93679 0.41107 0.64209 0.0
N757 N 0.9235 0.41014 0.66917 0.0
C758 C 0.95017 0.44687 0.68767 0.0
C759 C 0.96386 0.44786 0.66018 0.0
C760 C 0.86319 0.41349 0.71957 0.0
C761 C 0.78061 0.36022 0.67415 0.0
C762 C 0.8022 0.38321 0.72583 0.0
C763 C 0.77681 0.39128 0.71581 0.0
C764 C 0.76599 0.37968 0.68978 0.0
N765 N 0.81639 0.36404 0.71042 0.0
C766 C 0.80593 0.35263 0.68486 0.0
Co767 Co 0.63188 0.88964 0.67234 0.0
Co768 Co 0.64623 0.85101 0.73363 0.0
O769 O 0.65185 0.8593 0.69037 0.0
C770 C 0.64191 0.8509 0.62011 0.0
O771 O 0.65216 0.83275 0.63835 0.0
C772 C 0.70601 0.84408 0.7261 0.0
O773 O 0.70685 0.8644 0.70721 0.0
O774 O 0.65927 0.88777 0.74371 0.0
O775 O 0.63141 0.90909 0.71218 0.0
H776 H 0.61373 0.87171 0.83879 0.0
H777 H 0.68494 0.87241 0.64682 0.0
O778 O 0.63176 0.87244 0.63082 0.0
H779 H 0.69433 0.96917 0.66771 0.0
H780 H 0.60773 0.95714 0.59157 0.0
H781 H 0.58555 0.92246 0.69312 0.0
H782 H 0.65183 0.94589 0.67857 0.0
H783 H 0.63397 0.92011 0.61391 0.0
O784 O 0.68382 0.83671 0.73768 0.0
H785 H 0.6206 0.88038 0.78435 0.0
H786 H 0.66135 0.80579 0.77491 0.0
H787 H 0.55914 0.95987 0.67182 0.0
H788 H 0.7275 0.89502 0.63497 0.0
H789 H 0.57013 0.97744 0.62066 0.0
H790 H 0.73254 0.94378 0.64552 0.0
O791 O 0.59765 0.8712 0.6832 0.0
H792 H 0.65125 0.76295 0.67837 0.0
H793 H 0.59917 0.817 0.75132 0.0
H794 H 0.58305 0.77192 0.73703 0.0
H795 H 0.60919 0.74452 0.70035 0.0
H796 H 0.66652 0.80827 0.69312 0.0
H797 H 0.65529 0.79652 0.82933 0.0
H798 H 0.63117 0.82954 0.86163 0.0
O799 O 0.60776 0.86399 0.7319 0.0
C800 C 0.64825 0.90919 0.73393 0.0
C801 C 0.62421 0.85714 0.82494 0.0
C802 C 0.64756 0.81496 0.81963 0.0
N803 N 0.64121 0.84356 0.77641 0.0
C804 C 0.62811 0.86191 0.79408 0.0
C805 C 0.65101 0.82037 0.78884 0.0
C806 C 0.63402 0.83349 0.83774 0.0
C807 C 0.68656 0.89368 0.65082 0.0
N808 N 0.6655 0.90779 0.66274 0.0
C809 C 0.71091 0.90638 0.64434 0.0
C810 C 0.71375 0.93371 0.65034 0.0
C811 C 0.69233 0.94796 0.66277 0.0
C812 C 0.66828 0.93461 0.66887 0.0
C813 C 0.60274 0.94966 0.61388 0.0
C814 C 0.59057 0.93004 0.67091 0.0
C815 C 0.61743 0.92856 0.62661 0.0
N816 N 0.61134 0.91907 0.65486 0.0
C817 C 0.57549 0.95121 0.65893 0.0
C818 C 0.58165 0.96105 0.63022 0.0
C819 C 0.59063 0.86595 0.71042 0.0
C820 C 0.63968 0.77469 0.69437 0.0
C821 C 0.61058 0.8053 0.73519 0.0
C822 C 0.60139 0.77973 0.72727 0.0
C823 C 0.61608 0.76437 0.70671 0.0
N824 N 0.63376 0.81528 0.72298 0.0
C825 C 0.64825 0.80034 0.70283 0.0
Co826 Co 0.11426 0.63309 0.67403 0.0
Co827 Co 0.15702 0.64381 0.73317 0.0
O828 O 0.14647 0.65081 0.69089 0.0
C829 C 0.15166 0.64134 0.62022 0.0
O830 O 0.171 0.65014 0.63784 0.0
C831 C 0.16202 0.70386 0.73232 0.0
O832 O 0.13822 0.70581 0.71962 0.0
O833 O 0.12131 0.65745 0.74668 0.0
O834 O 0.09647 0.63303 0.71468 0.0
H835 H 0.14183 0.60885 0.83852 0.0
H836 H 0.13434 0.68547 0.64951 0.0
O837 O 0.12982 0.63259 0.63166 0.0
H838 H 0.03936 0.70122 0.67541 0.0
H839 H 0.04234 0.61529 0.59601 0.0
H840 H 0.07893 0.58892 0.69551 0.0
H841 H 0.05987 0.65677 0.68347 0.0
H842 H 0.08191 0.63841 0.61713 0.0
O843 O 0.17235 0.68089 0.73741 0.0
H844 H 0.13001 0.61766 0.78517 0.0
H845 H 0.20522 0.65599 0.77123 0.0
H846 H 0.03905 0.56564 0.67543 0.0
H847 H 0.11451 0.72999 0.64059 0.0
H848 H 0.0205 0.57874 0.6253 0.0
H849 H 0.06666 0.73822 0.65363 0.0
O850 O 0.13043 0.5973 0.68331 0.0
H851 H 0.24192 0.64868 0.6721 0.0
H852 H 0.19061 0.59516 0.74605 0.0
H853 H 0.23428 0.57836 0.72776 0.0
H854 H 0.26031 0.60523 0.69056 0.0
H855 H 0.19797 0.66459 0.69083 0.0
H856 H 0.21765 0.64805 0.82456 0.0
H857 H 0.18591 0.62415 0.85856 0.0
O858 O 0.1428 0.60602 0.73109 0.0
C859 C 0.09882 0.64817 0.73776 0.0
C860 C 0.15584 0.61927 0.82393 0.0
C861 C 0.19838 0.64128 0.8161 0.0
N862 N 0.16691 0.63727 0.77507 0.0
C863 C 0.14928 0.62427 0.79368 0.0
C864 C 0.19118 0.64584 0.78595 0.0
C865 C 0.18057 0.62786 0.83516 0.0
C866 C 0.1134 0.68851 0.65459 0.0
N867 N 0.0982 0.66812 0.6662 0.0
C868 C 0.1023 0.71395 0.64975 0.0
C869 C 0.07549 0.71858 0.65715 0.0
C870 C 0.06016 0.69783 0.66933 0.0
C871 C 0.07191 0.67265 0.67378 0.0
C872 C 0.05024 0.60939 0.61787 0.0
C873 C 0.07097 0.59486 0.67374 0.0
C874 C 0.07276 0.62231 0.6299 0.0
N875 N 0.08281 0.61505 0.65757 0.0
C876 C 0.04838 0.58155 0.66246 0.0
C877 C 0.03799 0.58889 0.63432 0.0
C878 C 0.13696 0.5895 0.70994 0.0
C879 C 0.23076 0.63678 0.6883 0.0
C880 C 0.20166 0.60685 0.72965 0.0
C881 C 0.22646 0.59729 0.71949 0.0
C882 C 0.24106 0.61239 0.69864 0.0
N883 N 0.19167 0.63077 0.71937 0.0
C884 C 0.20589 0.6457 0.69899 0.0
Co885 Co 0.38271 0.1111 0.68229 0.0
Co886 Co 0.35037 0.15167 0.7325 0.0
O887 O 0.35598 0.13963 0.69052 0.0
C888 C 0.37881 0.14318 0.6232 0.0
O889 O 0.36122 0.16017 0.6344 0.0
C890 C 0.29117 0.15092 0.73862 0.0
O891 O 0.29462 0.13114 0.75788 0.0
O892 O 0.34079 0.11402 0.74321 0.0
O893 O 0.37672 0.0944 0.72297 0.0
H894 H 0.35865 0.14233 0.84545 0.0
H895 H 0.33347 0.11962 0.64378 0.0
O896 O 0.38995 0.12559 0.64021 0.0
H897 H 0.33339 0.02343 0.66971 0.0
H898 H 0.4314 0.04244 0.61857 0.0
H899 H 0.42651 0.0862 0.71862 0.0
H900 H 0.36942 0.05295 0.68821 0.0
H901 H 0.39689 0.07678 0.62891 0.0
O902 O 0.31128 0.16008 0.72377 0.0
H903 H 0.36579 0.12926 0.79216 0.0
H904 H 0.32288 0.19821 0.76249 0.0
H905 H 0.4611 0.05179 0.7093 0.0
H906 H 0.29748 0.09073 0.62433 0.0
H907 H 0.46373 0.02962 0.65897 0.0
H908 H 0.29714 0.04218 0.63726 0.0
O909 O 0.41146 0.13424 0.7004 0.0
H910 H 0.34562 0.23385 0.66682 0.0
H911 H 0.38768 0.19353 0.75723 0.0
H912 H 0.40023 0.23946 0.74193 0.0
H913 H 0.37904 0.25998 0.69649 0.0
H914 H 0.33388 0.18781 0.68276 0.0
H915 H 0.31503 0.21189 0.81538 0.0
H916 H 0.33305 0.18389 0.85735 0.0
O917 O 0.38914 0.14456 0.74285 0.0
C918 C 0.35576 0.09361 0.73937 0.0
C919 C 0.35069 0.15469 0.82737 0.0
C920 C 0.32621 0.19373 0.81052 0.0
N921 N 0.34471 0.16289 0.77421 0.0
C922 C 0.35467 0.14739 0.79715 0.0
C923 C 0.33066 0.18583 0.78058 0.0
C924 C 0.33632 0.17801 0.83404 0.0
C925 C 0.33412 0.09852 0.6489 0.0
N926 N 0.35438 0.08802 0.66618 0.0
C927 C 0.31338 0.08222 0.63806 0.0
C928 C 0.31316 0.05501 0.64539 0.0
C929 C 0.3335 0.04448 0.66353 0.0
C930 C 0.35396 0.06135 0.67384 0.0
C931 C 0.43048 0.05199 0.64057 0.0
C932 C 0.42744 0.0767 0.69664 0.0
C933 C 0.41108 0.0716 0.64652 0.0
N934 N 0.40967 0.08364 0.67433 0.0
C935 C 0.44712 0.0572 0.69151 0.0
C936 C 0.4486 0.04478 0.66326 0.0
C937 C 0.41111 0.14181 0.72812 0.0
C938 C 0.35495 0.22515 0.68668 0.0
C939 C 0.37853 0.20221 0.73729 0.0
C940 C 0.38564 0.22829 0.72881 0.0
C941 C 0.37373 0.23979 0.70333 0.0
N942 N 0.36001 0.18802 0.72091 0.0
C943 C 0.34834 0.19913 0.69585 0.0
H944 H 0.31437 0.21954 0.25232 0.0
H945 H 0.33649 0.25706 0.33734 0.0
H946 H 0.30804 0.29653 0.32421 0.0
H947 H 0.3142 0.28098 0.20725 0.0
H948 H 0.28625 0.27012 0.18431 0.0
H949 H 0.30897 0.24567 0.20023 0.0
H950 H 0.26902 0.2213 0.22576 0.0
H951 H 0.24615 0.24552 0.20985 0.0
H952 H 0.24678 0.23997 0.25019 0.0
H953 H 0.27273 0.32922 0.30368 0.0
H954 H 0.23706 0.35398 0.2761 0.0
H955 H 0.24162 0.2965 0.20261 0.0
C956 C 0.31326 0.23606 0.26821 0.0
C957 C 0.32727 0.23516 0.29607 0.0
C958 C 0.32583 0.25741 0.31594 0.0
C959 C 0.30972 0.27982 0.30864 0.0
C960 C 0.29581 0.27983 0.28107 0.0
C961 C 0.29784 0.25865 0.26099 0.0
C962 C 0.28091 0.26327 0.23292 0.0
C963 C 0.29865 0.26513 0.2045 0.0
C964 C 0.25944 0.24121 0.2295 0.0
C965 C 0.26838 0.29016 0.24051 0.0
C966 C 0.27707 0.29935 0.26847 0.0
C967 C 0.26635 0.32254 0.28148 0.0
C968 C 0.24614 0.33648 0.26568 0.0
C969 C 0.23724 0.32753 0.23692 0.0
C970 C 0.2488 0.30429 0.22405 0.0
H971 H 0.78103 0.32437 0.25309 0.0
H972 H 0.76238 0.32425 0.34911 0.0
H973 H 0.72403 0.29378 0.33917 0.0
H974 H 0.71113 0.32055 0.22489 0.0
H975 H 0.72042 0.29875 0.19401 0.0
H976 H 0.74414 0.323 0.20833 0.0
H977 H 0.77878 0.28502 0.21748 0.0
H978 H 0.75526 0.26064 0.2033 0.0
H979 H 0.76959 0.25662 0.24056 0.0
H980 H 0.6915 0.25886 0.3194 0.0
H981 H 0.66647 0.22384 0.2916 0.0
H982 H 0.7059 0.24744 0.20819 0.0
C983 C 0.76864 0.31837 0.27206 0.0
C984 C 0.77478 0.32676 0.30196 0.0
C985 C 0.75801 0.31832 0.32602 0.0
C986 C 0.7362 0.30095 0.32056 0.0
C987 C 0.73126 0.29249 0.29088 0.0
C988 C 0.74687 0.30118 0.267 0.0
C989 C 0.73855 0.28788 0.23751 0.0
C990 C 0.72792 0.30879 0.21485 0.0
C991 C 0.76193 0.27157 0.22393 0.0
C992 C 0.71622 0.2697 0.24857 0.0
C993 C 0.71223 0.27277 0.27941 0.0
C994 C 0.69412 0.25669 0.29519 0.0
C995 C 0.68002 0.2368 0.27918 0.0
C996 C 0.68393 0.23314 0.24762 0.0
C997 C 0.70196 0.25019 0.23211 0.0
H998 H 0.78997 0.71175 0.26097 0.0
H999 H 0.7423 0.64885 0.21903 0.0
H1000 H 0.70078 0.67324 0.23324 0.0
H1001 H 0.74533 0.72488 0.32427 0.0
H1002 H 0.75142 0.76058 0.32364 0.0
H1003 H 0.77719 0.73762 0.31122 0.0
H1004 H 0.77975 0.76222 0.25952 0.0
H1005 H 0.75422 0.78535 0.27195 0.0
H1006 H 0.74954 0.76655 0.23744 0.0
H1007 H 0.66455 0.70623 0.24948 0.0
H1008 H 0.63702 0.7453 0.26485 0.0
H1009 H 0.70869 0.78541 0.29784 0.0
C1010 C 0.77084 0.70291 0.25487 0.0
C1011 C 0.76946 0.67827 0.23887 0.0
C1012 C 0.74393 0.66763 0.23129 0.0
C1013 C 0.72022 0.68131 0.23937 0.0
C1014 C 0.72238 0.7055 0.25523 0.0
C1015 C 0.74709 0.71617 0.26287 0.0
C1016 C 0.74411 0.74292 0.27896 0.0
C1017 C 0.75517 0.7414 0.31145 0.0
C1018 C 0.75771 0.76559 0.26088 0.0
C1019 C 0.71383 0.7459 0.27885 0.0
C1020 C 0.70162 0.72409 0.26515 0.0
C1021 C 0.6739 0.72321 0.26059 0.0
C1022 C 0.65841 0.74548 0.26948 0.0
C1023 C 0.6706 0.7683 0.2829 0.0
C1024 C 0.69862 0.76807 0.28831 0.0
H1025 H 0.31537 0.75499 0.19945 0.0
H1026 H 0.32817 0.79598 0.2851 0.0
H1027 H 0.30112 0.7618 0.31119 0.0
H1028 H 0.24786 0.73886 0.21238 0.0
H1029 H 0.24892 0.70634 0.19445 0.0
H1030 H 0.2719 0.73222 0.18276 0.0
H1031 H 0.31214 0.70051 0.19361 0.0
H1032 H 0.28921 0.67451 0.20538 0.0
H1033 H 0.31557 0.68545 0.23056 0.0
H1034 H 0.26826 0.72677 0.32728 0.0
H1035 H 0.23264 0.69236 0.33198 0.0
H1036 H 0.2421 0.67266 0.23686 0.0
C1037 C 0.31302 0.75637 0.22378 0.0
C1038 C 0.324 0.77819 0.24016 0.0
C1039 C 0.31996 0.77954 0.27195 0.0
C1040 C 0.30468 0.76012 0.28708 0.0
C1041 C 0.29361 0.73924 0.27026 0.0
C1042 C 0.29769 0.73708 0.23935 0.0
C1043 C 0.28189 0.71366 0.22642 0.0
C1044 C 0.26144 0.72336 0.2026 0.0
C1045 C 0.30084 0.69226 0.21321 0.0
C1046 C 0.26793 0.70348 0.25473 0.0
C1047 C 0.27505 0.71847 0.27981 0.0
C1048 C 0.26297 0.71446 0.30797 0.0
C1049 C 0.24278 0.69489 0.31047 0.0
C1050 C 0.23504 0.67941 0.28503 0.0
C1051 C 0.2482 0.68352 0.25698 0.0
H1052 H 0.71543 0.81414 0.77691 0.0
H1053 H 0.75186 0.83839 0.69201 0.0
H1054 H 0.79085 0.80884 0.70281 0.0
H1055 H 0.77846 0.81047 0.82043 0.0
H1056 H 0.7673 0.78188 0.84206 0.0
H1057 H 0.74319 0.80601 0.82826 0.0
H1058 H 0.71697 0.76791 0.80136 0.0
H1059 H 0.74095 0.74367 0.81501 0.0
H1060 H 0.7343 0.74634 0.77498 0.0
H1061 H 0.82301 0.77229 0.72028 0.0
H1062 H 0.84764 0.73495 0.74497 0.0
H1063 H 0.79206 0.73748 0.82039 0.0
C1064 C 0.73175 0.81348 0.76072 0.0
C1065 C 0.73059 0.8285 0.73353 0.0
C1066 C 0.7524 0.82718 0.71303 0.0
C1067 C 0.77458 0.8104 0.71896 0.0
C1068 C 0.77487 0.79552 0.74579 0.0
C1069 C 0.7542 0.79728 0.76656 0.0
C1070 C 0.75906 0.77895 0.79345 0.0
C1071 C 0.7622 0.79531 0.82279 0.0
C1072 C 0.73648 0.75798 0.79635 0.0
C1073 C 0.7854 0.766 0.78428 0.0
C1074 C 0.79414 0.77572 0.75662 0.0
C1075 C 0.81671 0.76504 0.74226 0.0
C1076 C 0.83056 0.74386 0.75641 0.0
C1077 C 0.82214 0.73388 0.78488 0.0
C1078 C 0.79946 0.74537 0.79911 0.0
H1079 H 0.20262 0.70612 0.774 0.0
H1080 H 0.15443 0.75652 0.71492 0.0
H1081 H 0.17968 0.7965 0.73266 0.0
H1082 H 0.20703 0.75342 0.83656 0.0
H1083 H 0.24106 0.74401 0.8458 0.0
H1084 H 0.21865 0.71974 0.82907 0.0
H1085 H 0.25264 0.71143 0.78564 0.0
H1086 H 0.27524 0.73544 0.80236 0.0
H1087 H 0.26452 0.73951 0.76362 0.0
H1088 H 0.21349 0.83018 0.75355 0.0
H1089 H 0.25178 0.85459 0.77672 0.0
H1090 H 0.2752 0.78251 0.8248 0.0
C1091 C 0.19727 0.72553 0.76474 0.0
C1092 C 0.17663 0.72814 0.74285 0.0
C1093 C 0.17016 0.75402 0.73166 0.0
C1094 C 0.18437 0.77682 0.74166 0.0
C1095 C 0.20466 0.77345 0.76324 0.0
C1096 C 0.21092 0.74843 0.77479 0.0
C1097 C 0.23385 0.74995 0.79734 0.0
C1098 C 0.22458 0.74127 0.82907 0.0
C1099 C 0.25798 0.73309 0.78658 0.0
C1100 C 0.23999 0.77973 0.79634 0.0
C1101 C 0.22297 0.79298 0.77649 0.0
C1102 C 0.22643 0.82014 0.76971 0.0
C1103 C 0.24808 0.8339 0.78306 0.0
C1104 C 0.26562 0.82064 0.8034 0.0
C1105 C 0.26126 0.79336 0.81043 0.0
H1106 H 0.2109 0.28606 0.76738 0.0
H1107 H 0.14562 0.23774 0.80316 0.0
H1108 H 0.16997 0.19649 0.78795 0.0
H1109 H 0.22523 0.24446 0.70223 0.0
H1110 H 0.26102 0.24964 0.70461 0.0
H1111 H 0.23828 0.27527 0.71789 0.0
H1112 H 0.26134 0.27459 0.77061 0.0
H1113 H 0.28431 0.24924 0.75732 0.0
H1114 H 0.26442 0.24319 0.79071 0.0
H1115 H 0.20269 0.16053 0.77097 0.0
H1116 H 0.24178 0.13294 0.75597 0.0
H1117 H 0.28427 0.20499 0.72858 0.0
C1118 C 0.20158 0.26685 0.77204 0.0
C1119 C 0.17623 0.26521 0.78651 0.0
C1120 C 0.16498 0.23957 0.79218 0.0
C1121 C 0.17861 0.21603 0.78346 0.0
C1122 C 0.20337 0.21846 0.76887 0.0
C1123 C 0.21477 0.24325 0.76329 0.0
C1124 C 0.24191 0.24047 0.74803 0.0
C1125 C 0.24157 0.25321 0.7163 0.0
C1126 C 0.26431 0.25259 0.76785 0.0
C1127 C 0.24425 0.21017 0.7462 0.0
C1128 C 0.22179 0.19783 0.75829 0.0
C1129 C 0.22019 0.16999 0.76112 0.0
C1130 C 0.24246 0.15446 0.75242 0.0
C1131 C 0.26598 0.16674 0.74081 0.0
C1132 C 0.26643 0.19492 0.73677 0.0
H1133 H 0.75469 0.18751 0.81568 0.0
H1134 H 0.707 0.18547 0.7333 0.0
H1135 H 0.74085 0.21302 0.70733 0.0
H1136 H 0.77413 0.25518 0.80907 0.0
H1137 H 0.80765 0.25053 0.82368 0.0
H1138 H 0.78117 0.22811 0.83505 0.0
H1139 H 0.8094 0.18742 0.81673 0.0
H1140 H 0.83594 0.20982 0.80517 0.0
H1141 H 0.82156 0.18665 0.77828 0.0
H1142 H 0.7772 0.24452 0.69143 0.0
H1143 H 0.81349 0.2782 0.68734 0.0
H1144 H 0.83854 0.25957 0.77919 0.0
C1145 C 0.7517 0.19239 0.79202 0.0
C1146 C 0.72814 0.18424 0.77659 0.0
C1147 C 0.72476 0.19153 0.74574 0.0
C1148 C 0.74398 0.20709 0.73065 0.0
C1149 C 0.76669 0.21525 0.74657 0.0
C1150 C 0.77074 0.20815 0.77654 0.0
C1151 C 0.79598 0.2213 0.7889 0.0
C1152 C 0.78932 0.23988 0.81576 0.0
C1153 C 0.81696 0.20002 0.79779 0.0
C1154 C 0.80505 0.23726 0.76144 0.0
C1155 C 0.78798 0.23331 0.73718 0.0
C1156 C 0.79102 0.24743 0.71009 0.0
C1157 C 0.81172 0.2665 0.70793 0.0
C1158 C 0.82918 0.27127 0.73269 0.0
C1159 C 0.82603 0.25595 0.75952 0.0
H1160 H 0.13816 0.39242 0.94247 0.0
H1161 H 0.20498 0.33903 0.92296 0.0
H1162 H 0.20796 0.32726 0.97718 0.0
H1163 H 0.16376 0.41637 0.01564 0.0
H1164 H 0.13074 0.41785 0.03231 0.0
H1165 H 0.1348 0.4229 0.99216 0.0
H1166 H 0.10075 0.38464 0.98177 0.0
H1167 H 0.09687 0.37922 0.02186 0.0
H1168 H 0.10671 0.35178 0.9976 0.0
H1169 H 0.20145 0.31869 0.03342 0.0
H1170 H 0.1899 0.31866 0.08789 0.0
H1171 H 0.12818 0.37851 0.07096 0.0
C1172 C 0.15371 0.37857 0.94961 0.0
C1173 C 0.17135 0.36669 0.92826 0.0
C1174 C 0.19136 0.34861 0.93874 0.0
C1175 C 0.19308 0.34162 0.96954 0.0
C1176 C 0.17485 0.35305 0.98979 0.0
C1177 C 0.15588 0.37155 0.98033 0.0
C1178 C 0.13872 0.38098 1.00669 0.0
C1179 C 0.14222 0.41133 0.01201 0.0
C1180 C 0.109 0.37371 1.00167 0.0
C1181 C 0.15084 0.36474 0.0324 0.0
C1182 C 0.1715 0.34857 0.02215 0.0
C1183 C 0.18543 0.33144 0.0417 0.0
C1184 C 0.17857 0.33139 0.07261 0.0
C1185 C 0.15812 0.34855 0.08385 0.0
C1186 C 0.14392 0.36515 0.06321 0.0
H1187 H 0.62554 0.13417 0.95087 0.0
H1188 H 0.67949 0.20046 0.93164 0.0
H1189 H 0.69138 0.20302 0.98601 0.0
H1190 H 0.60163 0.15944 0.02349 0.0
H1191 H 0.59983 0.12639 0.04004 0.0
H1192 H 0.59515 0.1306 0.99985 0.0
H1193 H 0.63334 0.09631 0.98985 0.0
H1194 H 0.63836 0.09227 0.03001 0.0
H1195 H 0.66608 0.10197 1.00615 0.0
H1196 H 0.6991 0.19659 0.04281 0.0
H1197 H 0.69803 0.18523 0.09736 0.0
H1198 H 0.63856 0.12356 0.07907 0.0
C1199 C 0.63965 0.14946 0.95806 0.0
C1200 C 0.65156 0.16714 0.93681 0.0
C1201 C 0.66991 0.18682 0.94738 0.0
C1202 C 0.67695 0.18829 0.97824 0.0
C1203 C 0.66533 0.17009 0.9984 0.0
C1204 C 0.64674 0.15132 0.98876 0.0
C1205 C 0.63698 0.13418 0.01493 0.0
C1206 C 0.6066 0.13789 0.01987 0.0
C1207 C 0.64412 0.10442 1.00992 0.0
C1208 C 0.65305 0.14611 0.04084 0.0
C1209 C 0.66946 0.16666 0.03088 0.0
C1210 C 0.68623 0.18059 0.05082 0.0
C1211 C 0.68564 0.17384 0.08179 0.0
C1212 C 0.66825 0.15347 0.09267 0.0
C1213 C 0.65211 0.13923 0.07164 0.0
H1214 H 0.86811 0.62254 0.94648 0.0
H1215 H 0.80686 0.6822 0.92677 0.0
H1216 H 0.80564 0.69478 0.98096 0.0
H1217 H 0.84149 0.60203 0.02006 0.0
H1218 H 0.87447 0.59753 0.03623 0.0
H1219 H 0.86932 0.59252 0.99622 0.0
H1220 H 0.90674 0.62722 0.9848 0.0
H1221 H 0.91175 0.63262 0.02476 0.0
H1222 H 0.90423 0.66064 1.00031 0.0
H1223 H 0.8134 0.7028 0.03734 0.0
H1224 H 0.82559 0.70194 0.09166 0.0
H1225 H 0.8815 0.63677 0.07414 0.0
C1226 C 0.85414 0.63801 0.95355 0.0
C1227 C 0.83755 0.65136 0.93222 0.0
C1228 C 0.8196 0.67149 0.94259 0.0
C1229 C 0.81892 0.67893 0.97334 0.0
C1230 C 0.83615 0.66592 0.99356 0.0
C1231 C 0.8531 0.64557 0.98412 0.0
C1232 C 0.86968 0.63476 1.01028 0.0
C1233 C 0.86335 0.60494 0.01603 0.0
C1234 C 0.89989 0.63908 1.00469 0.0
C1235 C 0.85957 0.65232 0.03592 0.0
C1236 C 0.84036 0.6703 0.02583 0.0
C1237 C 0.82831 0.68869 0.04547 0.0
C1238 C 0.83553 0.68819 0.0763 0.0
C1239 C 0.85451 0.66931 0.08733 0.0
C1240 C 0.8669 0.65146 0.06658 0.0
H1241 H 0.38304 0.88029 0.07038 0.0
H1242 H 0.31658 0.82642 0.08926 0.0
H1243 H 0.31616 0.81226 0.03561 0.0
H1244 H 0.35951 0.90097 0.99555 0.0
H1245 H 0.39296 0.90275 0.98005 0.0
H1246 H 0.38759 0.90886 0.01981 0.0
H1247 H 0.42224 0.87173 0.03286 0.0
H1248 H 0.42743 0.86526 0.99314 0.0
H1249 H 0.41757 0.8383 0.01801 0.0
H1250 H 0.32456 0.80218 0.98015 0.0
H1251 H 0.33693 0.80141 0.92603 0.0
H1252 H 0.39712 0.86277 0.94274 0.0
C1253 C 0.36819 0.86572 0.0632 0.0
C1254 C 0.34982 0.85448 0.0842 0.0
C1255 C 0.33073 0.8355 0.07371 0.0
C1256 C 0.33048 0.82716 0.04327 0.0
C1257 C 0.34926 0.83815 0.02338 0.0
C1258 C 0.36744 0.8574 0.0328 0.0
C1259 C 0.38514 0.86646 1.00671 0.0
C1260 C 0.38104 0.89654 1.00015 0.0
C1261 C 0.41486 0.86005 0.01307 0.0
C1262 C 0.37417 0.84919 0.98118 0.0
C1263 C 0.35368 0.83281 0.99135 0.0
C1264 C 0.34051 0.81503 0.97194 0.0
C1265 C 0.34786 0.81458 0.9412 0.0
C1266 C 0.36804 0.832 0.92992 0.0
C1267 C 0.38163 0.84916 0.95049 0.0
H1268 H 0.12136 0.61774 0.57511 0.0
H1269 H 0.18311 0.67779 0.59032 0.0
H1270 H 0.18039 0.69113 0.53653 0.0
H1271 H 0.14481 0.59812 0.49963 0.0
H1272 H 0.11129 0.59277 0.48536 0.0
H1273 H 0.11837 0.58786 0.525 0.0
H1274 H 0.08055 0.62157 0.53866 0.0
H1275 H 0.07362 0.62685 0.49903 0.0
H1276 H 0.08144 0.65505 0.52311 0.0
H1277 H 0.16876 0.70009 0.48173 0.0
H1278 H 0.15436 0.69931 0.42822 0.0
H1279 H 0.10211 0.63163 0.44739 0.0
C1280 C 0.13456 0.63347 0.56703 0.0
C1281 C 0.1525 0.64669 0.58705 0.0
C1282 C 0.16939 0.66717 0.5755 0.0
C1283 C 0.16782 0.67506 0.54498 0.0
C1284 C 0.14953 0.66204 0.52605 0.0
C1285 C 0.13361 0.64127 0.53645 0.0
C1286 C 0.11619 0.63008 0.51113 0.0
C1287 C 0.12308 0.60045 0.50492 0.0
C1288 C 0.08617 0.63361 0.51843 0.0
C1289 C 0.12463 0.64795 0.48494 0.0
C1290 C 0.1436 0.6665 0.49417 0.0
C1291 C 0.15407 0.6855 0.47421 0.0
C1292 C 0.14557 0.68504 0.44385 0.0
C1293 C 0.12705 0.66546 0.43346 0.0
C1294 C 0.11625 0.6469 0.45454 0.0
H1295 H 0.3485 0.16639 0.57721 0.0
H1296 H 0.41588 0.11263 0.59315 0.0
H1297 H 0.41732 0.1018 0.53881 0.0
H1298 H 0.31575 0.12677 0.52124 0.0
H1299 H 0.30558 0.15461 0.49774 0.0
H1300 H 0.3101 0.15938 0.53788 0.0
H1301 H 0.34409 0.19772 0.52783 0.0
H1302 H 0.3393 0.19339 0.48766 0.0
H1303 H 0.37261 0.19155 0.50363 0.0
H1304 H 0.41013 0.09447 0.48352 0.0
H1305 H 0.39841 0.09527 0.42939 0.0
H1306 H 0.33648 0.15472 0.44745 0.0
C1307 C 0.36389 0.15273 0.56921 0.0
C1308 C 0.38202 0.1403 0.58974 0.0
C1309 C 0.40164 0.12234 0.57815 0.0
C1310 C 0.4026 0.11597 0.54723 0.0
C1311 C 0.38395 0.12783 0.52785 0.0
C1312 C 0.36524 0.1462 0.53818 0.0
C1313 C 0.34764 0.15607 0.51224 0.0
C1314 C 0.31801 0.14877 0.51761 0.0
C1315 C 0.35113 0.18649 0.50756 0.0
C1316 C 0.35929 0.14023 0.48583 0.0
C1317 C 0.3801 0.12396 0.49553 0.0
C1318 C 0.39401 0.1073 0.47562 0.0
C1319 C 0.38711 0.10786 0.44483 0.0
C1320 C 0.36654 0.12509 0.4339 0.0
C1321 C 0.35213 0.14113 0.45495 0.0
H1322 H 0.85236 0.33833 0.43974 0.0
H1323 H 0.91842 0.39332 0.42289 0.0
H1324 H 0.91954 0.40513 0.47695 0.0
H1325 H 0.81861 0.37801 0.49458 0.0
H1326 H 0.80914 0.35044 0.51878 0.0
H1327 H 0.81387 0.34493 0.4788 0.0
H1328 H 0.84887 0.30768 0.49002 0.0
H1329 H 0.84388 0.31273 0.53004 0.0
H1330 H 0.87716 0.31507 0.51419 0.0
H1331 H 0.91164 0.41384 0.53176 0.0
H1332 H 0.89949 0.41426 0.58572 0.0
H1333 H 0.83984 0.35225 0.56914 0.0
C1334 C 0.86743 0.35242 0.44752 0.0
C1335 C 0.88522 0.36497 0.42679 0.0
C1336 C 0.90443 0.38352 0.43805 0.0
C1337 C 0.90521 0.39046 0.46881 0.0
C1338 C 0.88684 0.37851 0.48837 0.0
C1339 C 0.86865 0.35949 0.47841 0.0
C1340 C 0.85126 0.34971 0.50452 0.0
C1341 C 0.82146 0.35616 0.49882 0.0
C1342 C 0.85556 0.31951 0.51002 0.0
C1343 C 0.86243 0.3664 0.53054 0.0
C1344 C 0.88277 0.38301 0.52052 0.0
C1345 C 0.89596 0.40067 0.53997 0.0
C1346 C 0.88883 0.40078 0.57068 0.0
C1347 C 0.86883 0.38314 0.582 0.0
C1348 C 0.85514 0.36607 0.56136 0.0
H1349 H 0.61837 0.88071 0.57466 0.0
H1350 H 0.67847 0.819 0.59054 0.0
H1351 H 0.69207 0.82155 0.53681 0.0
H1352 H 0.5994 0.85781 0.49879 0.0
H1353 H 0.59435 0.89148 0.48485 0.0
H1354 H 0.589 0.88412 0.52433 0.0
H1355 H 0.62274 0.9216 0.53889 0.0
H1356 H 0.62849 0.92879 0.49943 0.0
H1357 H 0.65639 0.9206 0.52384 0.0
H1358 H 0.70113 0.83297 0.48183 0.0
H1359 H 0.70068 0.84759 0.4284 0.0
H1360 H 0.63366 0.90079 0.44775 0.0
C1361 C 0.63416 0.86745 0.56678 0.0
C1362 C 0.64732 0.84961 0.58696 0.0
C1363 C 0.66789 0.83266 0.5756 0.0
C1364 C 0.67593 0.83413 0.54512 0.0
C1365 C 0.66303 0.85244 0.52608 0.0
C1366 C 0.64222 0.86843 0.53632 0.0
C1367 C 0.63138 0.88612 0.51109 0.0
C1368 C 0.60178 0.87947 0.50437 0.0
C1369 C 0.63497 0.91605 0.51878 0.0
C1370 C 0.64947 0.87774 0.48508 0.0
C1371 C 0.66778 0.8585 0.49429 0.0
C1372 C 0.68676 0.8479 0.47435 0.0
C1373 C 0.68648 0.85652 0.44403 0.0
C1374 C 0.66716 0.87539 0.4337 0.0
C1375 C 0.64873 0.88638 0.45481 0.0
H1376 H 0.11347 0.563 0.27307 0.0
H1377 H 0.19802 0.58094 0.28535 0.0
H1378 H 0.20946 0.53374 0.27266 0.0
H1379 H 0.1136 0.49814 0.30426 0.0
H1380 H 0.09042 0.48407 0.27716 0.0
H1381 H 0.08902 0.51936 0.2861 0.0
H1382 H 0.09471 0.53143 0.2293 0.0
H1383 H 0.09555 0.49618 0.2201 0.0
H1384 H 0.1227 0.51775 0.20845 0.0
H1385 H 0.21087 0.4833 0.26268 0.0
H1386 H 0.20284 0.43587 0.2477 0.0
H1387 H 0.11769 0.45261 0.23909 0.0
C1388 C 0.13443 0.55707 0.27252 0.0
C1389 C 0.15493 0.57545 0.27999 0.0
C1390 C 0.18211 0.56711 0.27921 0.0
C1391 C 0.18873 0.54034 0.27237 0.0
C1392 C 0.16792 0.52246 0.2659 0.0
C1393 C 0.14138 0.53069 0.26516 0.0
C1394 C 0.12276 0.50785 0.25689 0.0
C1395 C 0.10278 0.50202 0.28264 0.0
C1396 C 0.10808 0.51365 0.2269 0.0
C1397 C 0.14291 0.48534 0.25341 0.0
C1398 C 0.16883 0.49397 0.25912 0.0
C1399 C 0.19069 0.47639 0.25794 0.0
C1400 C 0.18595 0.4495 0.24977 0.0
C1401 C 0.15969 0.4408 0.24248 0.0
C1402 C 0.13796 0.45887 0.24468 0.0
H1403 H 0.55128 0.12258 0.22601 0.0
H1404 H 0.57834 0.19992 0.25948 0.0
H1405 H 0.53098 0.21296 0.26931 0.0
H1406 H 0.49153 0.14514 0.18873 0.0
H1407 H 0.47216 0.1161 0.19955 0.0
H1408 H 0.50801 0.1133 0.19467 0.0
H1409 H 0.51317 0.09477 0.24938 0.0
H1410 H 0.47732 0.0967 0.25398 0.0
H1411 H 0.4991 0.11346 0.28058 0.0
H1412 H 0.48002 0.21669 0.27623 0.0
H1413 H 0.43176 0.20811 0.2866 0.0
H1414 H 0.43946 0.12861 0.24788 0.0
C1415 C 0.54731 0.14226 0.23552 0.0
C1416 C 0.56842 0.16028 0.24198 0.0
C1417 C 0.56241 0.18574 0.25463 0.0
C1418 C 0.53559 0.19341 0.2599 0.0
C1419 C 0.51517 0.17534 0.25245 0.0
C1420 C 0.52087 0.15011 0.24102 0.0
C1421 C 0.49573 0.13364 0.23648 0.0
C1422 C 0.49162 0.12664 0.20286 0.0
C1423 C 0.49638 0.10816 0.25629 0.0
C1424 C 0.47481 0.1534 0.24738 0.0
C1425 C 0.48623 0.17752 0.25614 0.0
C1426 C 0.47083 0.19806 0.26898 0.0
C1427 C 0.44339 0.19324 0.27436 0.0
C1428 C 0.43197 0.16804 0.26715 0.0
C1429 C 0.44765 0.14836 0.25256 0.0
H1430 H 0.8892 0.56223 0.23692 0.0
H1431 H 0.80529 0.58197 0.25085 0.0
H1432 H 0.79555 0.53382 0.26118 0.0
H1433 H 0.8795 0.50205 0.19806 0.0
H1434 H 0.90767 0.48488 0.215 0.0
H1435 H 0.90818 0.52089 0.21111 0.0
H1436 H 0.91621 0.52653 0.26892 0.0
H1437 H 0.9167 0.49052 0.27276 0.0
H1438 H 0.89382 0.51026 0.29523 0.0
H1439 H 0.7954 0.48212 0.26692 0.0
H1440 H 0.80597 0.43379 0.27483 0.0
H1441 H 0.88987 0.44992 0.25616 0.0
C1442 C 0.86886 0.55652 0.24281 0.0
C1443 C 0.84799 0.57568 0.24338 0.0
C1444 C 0.8216 0.56753 0.2509 0.0
C1445 C 0.81588 0.54024 0.25638 0.0
C1446 C 0.83686 0.52163 0.25443 0.0
C1447 C 0.86292 0.52965 0.24845 0.0
C1448 C 0.88207 0.50614 0.24749 0.0
C1449 C 0.89511 0.50334 0.21604 0.0
C1450 C 0.90345 0.50851 0.27259 0.0
C1451 C 0.8628 0.48343 0.25366 0.0
C1452 C 0.83674 0.49253 0.25743 0.0
C1453 C 0.81572 0.47485 0.26394 0.0
C1454 C 0.82179 0.44742 0.26795 0.0
C1455 C 0.84863 0.43823 0.26565 0.0
C1456 C 0.86911 0.4564 0.25762 0.0
H1457 H 0.56008 0.89504 0.27874 0.0
H1458 H 0.57646 0.80981 0.28738 0.0
H1459 H 0.5287 0.79981 0.27595 0.0
H1460 H 0.49521 0.89548 0.31158 0.0
H1461 H 0.48141 0.91969 0.28546 0.0
H1462 H 0.5168 0.92006 0.29412 0.0
H1463 H 0.52833 0.91569 0.23702 0.0
H1464 H 0.493 0.91591 0.22815 0.0
H1465 H 0.5139 0.88861 0.21529 0.0
H1466 H 0.47822 0.79971 0.26627 0.0
H1467 H 0.43121 0.80902 0.25046 0.0
H1468 H 0.44941 0.89401 0.24549 0.0
C1469 C 0.55364 0.87426 0.27782 0.0
C1470 C 0.57179 0.85314 0.28379 0.0
C1471 C 0.56281 0.8262 0.28243 0.0
C1472 C 0.53572 0.82038 0.27632 0.0
C1473 C 0.51813 0.84176 0.27123 0.0
C1474 C 0.52692 0.86811 0.27118 0.0
C1475 C 0.50439 0.88742 0.26382 0.0
C1476 C 0.49915 0.9068 0.29033 0.0
C1477 C 0.51026 0.9028 0.23432 0.0
C1478 C 0.48145 0.86786 0.25984 0.0
C1479 C 0.48957 0.84164 0.2647 0.0
C1480 C 0.47166 0.82016 0.26235 0.0
C1481 C 0.44501 0.8256 0.25373 0.0
C1482 C 0.43688 0.85219 0.24717 0.0
C1483 C 0.4552 0.87353 0.25074 0.0
H1484 H 0.8733 0.57211 0.75474 0.0
H1485 H 0.84934 0.55307 0.84681 0.0
H1486 H 0.84518 0.50522 0.83258 0.0
H1487 H 0.83031 0.5249 0.71632 0.0
H1488 H 0.85489 0.51602 0.68806 0.0
H1489 H 0.8555 0.54893 0.70509 0.0
H1490 H 0.90498 0.54159 0.72133 0.0
H1491 H 0.90459 0.50868 0.70429 0.0
H1492 H 0.91369 0.51247 0.74359 0.0
H1493 H 0.84277 0.45995 0.80849 0.0
H1494 H 0.84559 0.41913 0.77771 0.0
H1495 H 0.87317 0.46626 0.70089 0.0
C1496 C 0.86709 0.5579 0.77193 0.0
C1497 C 0.86146 0.56645 0.80196 0.0
C1498 C 0.85375 0.54709 0.82375 0.0
C1499 C 0.85125 0.51987 0.81583 0.0
C1500 C 0.85681 0.5122 0.78607 0.0
C1501 C 0.86487 0.53055 0.76451 0.0
C1502 C 0.87056 0.51673 0.73441 0.0
C1503 C 0.85169 0.52728 0.7095 0.0
C1504 C 0.90022 0.52007 0.72538 0.0
C1505 C 0.86424 0.48771 0.74238 0.0
C1506 C 0.85617 0.48574 0.77227 0.0
C1507 C 0.84917 0.46125 0.78512 0.0
C1508 C 0.85084 0.43807 0.76724 0.0
C1509 C 0.85967 0.4392 0.73664 0.0
C1510 C 0.86624 0.46457 0.72405 0.0
H1511 H 0.56722 0.86789 0.76705 0.0
H1512 H 0.54829 0.85849 0.67155 0.0
H1513 H 0.50033 0.85313 0.6845 0.0
H1514 H 0.51918 0.82036 0.79607 0.0
H1515 H 0.51044 0.84027 0.82874 0.0
H1516 H 0.54347 0.84306 0.81231 0.0
H1517 H 0.53688 0.89436 0.80616 0.0
H1518 H 0.50386 0.8918 0.82263 0.0
H1519 H 0.50801 0.90682 0.78579 0.0
H1520 H 0.45514 0.84803 0.70727 0.0
H1521 H 0.41418 0.84665 0.73752 0.0
H1522 H 0.46079 0.86088 0.81939 0.0
C1523 C 0.55301 0.86466 0.74881 0.0
C1524 C 0.56163 0.86347 0.71816 0.0
C1525 C 0.54228 0.85949 0.69509 0.0
C1526 C 0.51498 0.85633 0.70227 0.0
C1527 C 0.50725 0.85745 0.73262 0.0
C1528 C 0.52558 0.86179 0.75555 0.0
C1529 C 0.51164 0.86289 0.78624 0.0
C1530 C 0.52179 0.8403 0.80707 0.0
C1531 C 0.51532 0.89062 0.80108 0.0
C1532 C 0.48256 0.85832 0.77696 0.0
C1533 C 0.48073 0.85508 0.7459 0.0
C1534 C 0.45631 0.85061 0.73158 0.0
C1535 C 0.43303 0.84981 0.74922 0.0
C1536 C 0.43392 0.8536 0.78116 0.0
C1537 C 0.45925 0.85773 0.79519 0.0
H1538 H 0.15268 0.45977 0.81759 0.0
H1539 H 0.11386 0.41449 0.74578 0.0
H1540 H 0.10922 0.45554 0.71552 0.0
H1541 H 0.1117 0.52134 0.80793 0.0
H1542 H 0.13951 0.54359 0.81533 0.0
H1543 H 0.13863 0.51077 0.83256 0.0
H1544 H 0.18539 0.50018 0.8097 0.0
H1545 H 0.18623 0.53283 0.79214 0.0
H1546 H 0.19028 0.50303 0.76937 0.0
H1547 H 0.1111 0.50053 0.69105 0.0
H1548 H 0.11645 0.54798 0.67584 0.0
H1549 H 0.15307 0.56529 0.76311 0.0
C1550 C 0.14281 0.45868 0.79576 0.0
C1551 C 0.1339 0.43377 0.784 0.0
C1552 C 0.12128 0.43318 0.75515 0.0
C1553 C 0.11843 0.45645 0.73772 0.0
C1554 C 0.12815 0.48048 0.74935 0.0
C1555 C 0.1398 0.48197 0.77781 0.0
C1556 C 0.14894 0.51053 0.78434 0.0
C1557 C 0.13378 0.52225 0.81166 0.0
C1558 C 0.17953 0.5117 0.78917 0.0
C1559 C 0.14081 0.52451 0.75507 0.0
C1560 C 0.12891 0.50675 0.7352 0.0
C1561 C 0.12024 0.51474 0.70649 0.0
C1562 C 0.1235 0.54173 0.69796 0.0
C1563 C 0.13522 0.56052 0.71811 0.0
C1564 C 0.14404 0.55156 0.74702 0.0
H1565 H 0.46384 0.13294 0.70924 0.0
H1566 H 0.41633 0.15587 0.78768 0.0
H1567 H 0.45703 0.15634 0.81904 0.0
H1568 H 0.5095 0.08951 0.74853 0.0
H1569 H 0.53863 0.09947 0.72706 0.0
H1570 H 0.50571 0.1012 0.71012 0.0
H1571 H 0.51299 0.15167 0.69812 0.0
H1572 H 0.546 0.14997 0.71485 0.0
H1573 H 0.52202 0.17438 0.72829 0.0
H1574 H 0.50282 0.15253 0.84315 0.0
H1575 H 0.55108 0.14862 0.85644 0.0
H1576 H 0.56919 0.12979 0.76261 0.0
C1577 C 0.46202 0.13835 0.73291 0.0
C1578 C 0.43663 0.14429 0.74577 0.0
C1579 C 0.43534 0.15115 0.77701 0.0
C1580 C 0.45843 0.15143 0.79521 0.0
C1581 C 0.48297 0.14503 0.78203 0.0
C1582 C 0.48503 0.13895 0.75152 0.0
C1583 C 0.51402 0.13309 0.7431 0.0
C1584 C 0.51714 0.10409 0.73152 0.0
C1585 C 0.52436 0.1535 0.71971 0.0
C1586 C 0.52774 0.13682 0.77358 0.0
C1587 C 0.50946 0.14347 0.79581 0.0
C1588 C 0.51738 0.14749 0.82586 0.0
C1589 C 0.54481 0.14512 0.83327 0.0
C1590 C 0.56402 0.13906 0.81066 0.0
C1591 C 0.55513 0.13466 0.78049 0.0
H1592 H 0.61586 0.06082 0.77527 0.0
H1593 H 0.70132 0.07428 0.78568 0.0
H1594 H 0.71006 0.02626 0.77374 0.0
H1595 H 0.61275 0.99728 0.80818 0.0
H1596 H 0.58846 0.98366 0.78204 0.0
H1597 H 0.58914 0.01923 0.78949 0.0
H1598 H 0.59481 0.02924 0.73218 0.0
H1599 H 0.5934 0.99373 0.72445 0.0
H1600 H 0.62163 0.01322 0.71147 0.0
H1601 H 0.70845 0.97542 0.76498 0.0
H1602 H 0.6974 0.92818 0.75173 0.0
H1603 H 0.61318 0.94964 0.74497 0.0
C1604 C 0.63643 0.05372 0.77419 0.0
C1605 C 0.65801 0.07102 0.78087 0.0
C1606 C 0.68467 0.06124 0.77987 0.0
C1607 C 0.68973 0.03401 0.77349 0.0
C1608 C 0.66787 0.01717 0.76779 0.0
C1609 C 0.64181 0.02688 0.7673 0.0
C1610 C 0.6218 0.00491 0.7603 0.0
C1611 C 0.60187 1.00105 0.78657 0.0
C1612 C 0.60705 0.01062 0.73032 0.0
C1613 C 0.64055 0.98117 0.75741 0.0
C1614 C 0.66704 0.98845 0.76212 0.0
C1615 C 0.6878 0.96956 0.76106 0.0
C1616 C 0.68135 0.94277 0.75393 0.0
C1617 C 0.65448 0.9354 0.74764 0.0
C1618 C 0.63389 0.95479 0.74989 0.0
H1619 H 0.94977 0.61536 0.78493 0.0
H1620 H 0.93238 0.70051 0.77864 0.0
H1621 H 0.98069 0.70967 0.76898 0.0
H1622 H 0.01273 0.61995 0.82196 0.0
H1623 H 0.02795 0.59283 0.80099 0.0
H1624 H 0.99218 0.59313 0.80724 0.0
H1625 H 0.9835 0.59011 0.74932 0.0
H1626 H 0.01922 0.58901 0.74302 0.0
H1627 H 0.99909 0.61423 0.72445 0.0
H1628 H 0.03173 0.70906 0.76201 0.0
H1629 H 0.07912 0.69818 0.74936 0.0
H1630 H 0.06155 0.61337 0.7583 0.0
C1631 C 0.95612 0.63591 0.7811 0.0
C1632 C 0.93755 0.65728 0.78234 0.0
C1633 C 0.9464 0.68389 0.77728 0.0
C1634 C 0.97378 0.68926 0.7722 0.0
C1635 C 0.99177 0.66771 0.77192 0.0
C1636 C 0.98311 0.64151 0.7755 0.0
C1637 C 0.00603 0.62172 0.77286 0.0
C1638 C 0.00994 0.60599 0.80253 0.0
C1639 C 1.0017 0.60266 0.74581 0.0
C1640 C 0.02908 0.64081 0.7673 0.0
C1641 C 0.02065 0.66731 0.76733 0.0
C1642 C 0.03853 0.6884 0.76207 0.0
C1643 C 0.06543 0.68212 0.75535 0.0
C1644 C 0.07385 0.65502 0.75356 0.0
C1645 C 0.0556 0.63425 0.76025 0.0
H1646 H 0.3902 0.05545 0.75958 0.0
H1647 H 0.30546 0.07252 0.74721 0.0
H1648 H 0.29467 0.02505 0.75925 0.0
H1649 H 0.39079 0.9929 0.72541 0.0
H1650 H 0.41444 0.97776 0.75126 0.0
H1651 H 0.4152 0.01345 0.74474 0.0
H1652 H 0.40972 0.02252 0.80228 0.0
H1653 H 0.40963 0.98684 0.80911 0.0
H1654 H 0.38219 0.0073 0.82248 0.0
H1655 H 0.29417 0.97413 0.76746 0.0
H1656 H 0.30343 0.92605 0.77829 0.0
H1657 H 0.38844 0.94401 0.78605 0.0
C1658 C 0.36931 0.04936 0.76022 0.0
C1659 C 0.3486 0.06754 0.75278 0.0
C1660 C 0.32153 0.0589 0.75346 0.0
C1661 C 0.31527 0.03196 0.75993 0.0
C1662 C 0.33634 0.01423 0.76606 0.0
C1663 C 0.36276 0.0228 0.76694 0.0
C1664 C 0.38187 0.99993 0.77346 0.0
C1665 C 0.40173 0.99577 0.74715 0.0
C1666 C 0.39672 0.00442 0.80363 0.0
C1667 C 0.36218 0.97697 0.77567 0.0
C1668 C 0.33601 0.98543 0.77115 0.0
C1669 C 0.31456 0.96737 0.77134 0.0
C1670 C 0.32 0.94011 0.77718 0.0
C1671 C 0.34661 0.93143 0.78299 0.0
C1672 C 0.36787 0.95012 0.78181 0.0
H1673 H 0.06078 0.38445 0.77745 0.0
H1674 H 0.0757 0.29868 0.77646 0.0
H1675 H 0.02754 0.29066 0.76407 0.0
H1676 H 0.99852 0.38278 0.81312 0.0
H1677 H 0.98401 0.40978 0.79132 0.0
H1678 H 0.01977 0.40859 0.79747 0.0
H1679 H 0.02836 0.40971 0.73947 0.0
H1680 H 0.99265 0.4118 0.73321 0.0
H1681 H 0.01189 0.38548 0.71542 0.0
H1682 H 0.97619 0.29291 0.75499 0.0
H1683 H 0.9289 0.30529 0.74339 0.0
H1684 H 0.94964 0.38956 0.75167 0.0
C1685 C 0.05402 0.36397 0.77404 0.0
C1686 C 0.07177 0.34214 0.77771 0.0
C1687 C 0.06234 0.31564 0.77322 0.0
C1688 C 0.03503 0.31095 0.76655 0.0
C1689 C 0.01776 0.33304 0.76425 0.0
C1690 C 0.02715 0.35904 0.76728 0.0
C1691 C 0.00493 0.37949 0.76406 0.0
C1692 C 1.00162 0.39613 0.79323 0.0
C1693 C 0.00975 0.39768 0.7364 0.0
C1694 C 0.98131 0.36104 0.7591 0.0
C1695 C 0.98887 0.3343 0.75935 0.0
C1696 C 0.97013 0.3138 0.75475 0.0
C1697 C 0.94328 0.32096 0.74859 0.0
C1698 C 0.93567 0.34834 0.74692 0.0
C1699 C 0.95486 0.36844 0.75305 0.0
H1700 H 0.36465 0.04245 0.31481 0.0
H1701 H 0.38845 0.0907 0.2375 0.0
H1702 H 0.39076 0.05016 0.20583 0.0
H1703 H 0.40642 0.98361 0.29631 0.0
H1704 H 0.38136 0.95981 0.30845 0.0
H1705 H 0.38306 0.99254 0.32584 0.0
H1706 H 0.33301 1.00067 0.31228 0.0
H1707 H 0.33131 0.96808 0.29462 0.0
H1708 H 0.32227 0.99768 0.2734 0.0
H1709 H 0.38897 0.00462 0.18143 0.0
H1710 H 0.38438 0.95676 0.16701 0.0
H1711 H 0.36106 0.93791 0.25942 0.0
C1712 C 0.37074 0.04433 0.29137 0.0
C1713 C 0.37625 0.06982 0.27868 0.0
C1714 C 0.38383 0.07147 0.24773 0.0
C1715 C 0.3853 0.04852 0.22948 0.0
C1716 C 0.3791 0.02381 0.24232 0.0
C1717 C 0.3721 0.02146 0.27257 0.0
C1718 C 0.36563 0.99245 0.28025 0.0
C1719 C 0.3853 0.98146 0.30412 0.0
C1720 C 0.33631 0.98956 0.29075 0.0
C1721 C 0.36997 0.97913 0.24965 0.0
C1722 C 0.37781 0.99754 0.22809 0.0
C1723 C 0.38288 0.98995 0.19815 0.0
C1724 C 0.38011 0.96273 0.1901 0.0
C1725 C 0.37227 0.94341 0.21189 0.0
C1726 C 0.36704 0.952 0.24202 0.0
H1727 H 0.96815 0.37352 0.31042 0.0
H1728 H 0.92211 0.35605 0.22898 0.0
H1729 H 0.96352 0.35508 0.19923 0.0
H1730 H 0.01695 0.41642 0.27493 0.0
H1731 H 0.04503 0.40422 0.29682 0.0
H1732 H 0.01164 0.40339 0.31255 0.0
H1733 H 0.01641 0.35224 0.32215 0.0
H1734 H 0.04984 0.35298 0.30651 0.0
H1735 H 0.02508 0.33032 0.29112 0.0
H1736 H 0.00947 0.35782 0.17703 0.0
H1737 H 0.05788 0.36104 0.16502 0.0
H1738 H 0.07518 0.37473 0.26024 0.0
C1739 C 0.96682 0.36929 0.2864 0.0
C1740 C 0.9416 0.36494 0.27228 0.0
C1741 C 0.94093 0.35954 0.24065 0.0
C1742 C 0.96445 0.35895 0.22334 0.0
C1743 C 0.98881 0.36358 0.23777 0.0
C1744 C 0.99032 0.36838 0.2686 0.0
C1745 C 0.01935 0.3725 0.27824 0.0
C1746 C 0.02348 0.40082 0.29141 0.0
C1747 C 0.02819 0.35071 0.30085 0.0
C1748 C 0.03367 0.36934 0.24802 0.0
C1749 C 0.01562 0.36441 0.22496 0.0
C1750 C 0.02389 0.36147 0.19493 0.0
C1751 C 0.05142 0.36339 0.18829 0.0
C1752 C 0.07043 0.36794 0.2116 0.0
C1753 C 0.06126 0.37096 0.24186 0.0
H1754 H 0.64143 0.96606 0.32241 0.0
H1755 H 0.66227 0.91924 0.24264 0.0
H1756 H 0.66266 0.96022 0.212 0.0
H1757 H 0.59745 0.01202 0.28469 0.0
H1758 H 0.60774 0.04107 0.30615 0.0
H1759 H 0.60995 0.00808 0.32277 0.0
H1760 H 0.6606 0.01552 0.33358 0.0
H1761 H 0.65845 0.04859 0.31711 0.0
H1762 H 0.68267 0.02475 0.30294 0.0
H1763 H 0.65853 0.00578 0.1886 0.0
H1764 H 0.65322 0.05376 0.17531 0.0
H1765 H 0.63641 0.072 0.26963 0.0
C1766 C 0.64644 0.96447 0.29862 0.0
C1767 C 0.65185 0.93915 0.2852 0.0
C1768 C 0.65805 0.93816 0.25378 0.0
C1769 C 0.6583 0.96143 0.23598 0.0
C1770 C 0.65245 0.98587 0.24968 0.0
C1771 C 0.64691 0.98771 0.28032 0.0
C1772 C 0.64111 0.01668 0.28908 0.0
C1773 C 0.61235 0.01963 0.3014 0.0
C1774 C 0.66195 0.02699 0.31204 0.0
C1775 C 0.64416 0.0306 0.2586 0.0
C1776 C 0.65055 0.0124 0.23616 0.0
C1777 C 0.65373 0.0203 0.20603 0.0
C1778 C 0.65058 0.0476 0.19864 0.0
C1779 C 0.64453 0.06679 0.22132 0.0
C1780 C 0.64124 0.05797 0.25169 0.0
H1781 H 0.03877 0.64306 0.32103 0.0
H1782 H 0.08692 0.66225 0.24178 0.0
H1783 H 0.0464 0.66309 0.21045 0.0
H1784 H 0.99173 0.60007 0.2831 0.0
H1785 H 0.96279 0.61163 0.30392 0.0
H1786 H 0.99564 0.61285 0.32107 0.0
H1787 H 0.98976 0.66384 0.33104 0.0
H1788 H 0.95685 0.66269 0.314 0.0
H1789 H 0.98168 0.68587 0.29992 0.0
H1790 H 1.00127 0.65973 0.18627 0.0
H1791 H 0.95334 0.65589 0.17216 0.0
H1792 H 0.93326 0.64099 0.26639 0.0
C1793 C 0.04075 0.64772 0.29718 0.0
C1794 C 0.06633 0.6525 0.28415 0.0
C1795 C 0.06782 0.65841 0.25266 0.0
C1796 C 0.04482 0.65893 0.23444 0.0
C1797 C 0.02011 0.65376 0.24779 0.0
C1798 C 0.01775 0.64859 0.27846 0.0
C1799 C 0.9885 0.64391 0.2868 0.0
C1800 C 0.98443 0.61542 0.29947 0.0
C1801 C 0.97862 0.66536 0.30927 0.0
C1802 C 0.97506 0.64712 0.25603 0.0
C1803 C 0.99373 0.6526 0.23383 0.0
C1804 C 0.98637 0.65567 0.2035 0.0
C1805 C 0.9591 0.65338 0.19565 0.0
C1806 C 0.93943 0.64833 0.21806 0.0
C1807 C 0.9477 0.64512 0.24866 0.0
loop_
_geom_bond_atom_site_label_1
_geom_bond_atom_site_label_2
_geom_bond_distance
_geom_bond_site_symmetry_2
_ccdc_geom_bond_type
Co0 O2 2.143 . S
Co0 O8 2.074 . S
Co0 O11 2.093 . S
Co0 O24 2.097 . S
Co0 N41 2.151 . S
Co0 N49 2.214 . S
Co1 O2 2.160 . S
Co1 O7 2.058 . S
Co1 O17 2.057 . S
Co1 O32 2.037 . S
Co1 N36 2.145 . S
Co1 N57 2.257 . S
O2 Co0 2.143 . S
O2 Co1 2.160 . S
C3 O4 1.278 . S
C3 O11 1.224 . S
O4 C3 1.278 . S
C5 O6 1.245 . S
C5 O17 1.232 . S
O6 C5 1.245 . S
O7 Co1 2.058 . S
O7 C33 1.269 . S
O8 Co0 2.074 . S
O8 C33 1.257 . S
H9 C34 0.930 . S
H10 C40 0.930 . S
O11 Co0 2.093 . S
O11 C3 1.224 . S
H12 C44 0.929 . S
H13 C46 0.930 . S
H14 C47 0.930 . S
H15 C45 0.929 . S
H16 C48 0.928 . S
O17 Co1 2.057 . S
O17 C5 1.232 . S
H18 C37 0.929 . S
H19 C38 0.929 . S
H20 C50 0.931 . S
H21 C42 0.929 . S
H22 C51 0.930 . S
H23 C43 0.931 . S
O24 Co0 2.097 . S
O24 C52 1.214 . S
H25 C53 0.929 . S
H26 C54 0.929 . S
H27 C55 0.930 . S
H28 C56 0.929 . S
H29 C58 0.930 . S
H30 C35 0.930 . S
H31 C39 0.930 . S
O32 Co1 2.037 . S
O32 C52 1.234 . S
C33 O7 1.269 . S
C33 O8 1.257 . S
C34 H9 0.930 . S
C34 C37 1.388 . S
C34 C39 1.418 . S
C35 H30 0.930 . S
C35 C38 1.404 . S
C35 C39 1.353 . S
N36 Co1 2.145 . S
N36 C37 1.397 . S
N36 C38 1.334 . S
C37 H18 0.929 . S
C37 C34 1.388 . S
C37 N36 1.397 . S
C38 H19 0.929 . S
C38 C35 1.404 . S
C38 N36 1.334 . S
C39 H31 0.930 . S
C39 C34 1.418 . S
C39 C35 1.353 . S
C40 H10 0.930 . S
C40 N41 1.330 . S
C40 C42 1.446 . S
N41 Co0 2.151 . S
N41 C40 1.330 . S
N41 C45 1.418 . S
C42 H21 0.929 . S
C42 C40 1.446 . S
C42 C43 1.332 . S
C43 H23 0.931 . S
C43 C42 1.332 . S
C43 C44 1.267 . S
C44 H12 0.929 . S
C44 C43 1.267 . S
C44 C45 1.251 . S
C45 H15 0.929 . S
C45 N41 1.418 . S
C45 C44 1.251 . S
C46 H13 0.930 . S
C46 C48 1.406 . S
C46 C51 1.261 . S
C47 H14 0.930 . S
C47 N49 1.325 . S
C47 C50 1.357 . S
C48 H16 0.928 . S
C48 C46 1.406 . S
C48 N49 1.261 . S
N49 Co0 2.214 . S
N49 C47 1.325 . S
N49 C48 1.261 . S
C50 H20 0.931 . S
C50 C47 1.357 . S
C50 C51 1.312 . S
C51 H22 0.930 . S
C51 C46 1.261 . S
C51 C50 1.312 . S
C52 O24 1.214 . S
C52 O32 1.234 . S
C53 H25 0.929 . S
C53 C56 1.391 . S
C53 C58 1.391 . S
C54 H26 0.929 . S
C54 C55 1.390 . S
C54 N57 1.391 . S
C55 H27 0.930 . S
C55 C54 1.390 . S
C55 C56 1.392 . S
C56 H28 0.929 . S
C56 C53 1.391 . S
C56 C55 1.392 . S
N57 Co1 2.257 . S
N57 C54 1.391 . S
N57 C58 1.388 . S
C58 H29 0.930 . S
C58 C53 1.391 . S
C58 N57 1.388 . S
Co59 O61 2.143 . S
Co59 O67 2.074 . S
Co59 O70 2.093 . S
Co59 O83 2.097 . S
Co59 N100 2.151 . S
Co59 N108 2.214 . S
Co60 O61 2.160 . S
Co60 O66 2.058 . S
Co60 O76 2.057 . S
Co60 O91 2.037 . S
Co60 N95 2.145 . S
Co60 N116 2.257 . S
O61 Co59 2.143 . S
O61 Co60 2.160 . S
C62 O63 1.278 . S
C62 O70 1.224 . S
O63 C62 1.278 . S
C64 O65 1.245 . S
C64 O76 1.232 . S
O65 C64 1.245 . S
O66 Co60 2.058 . S
O66 C92 1.269 . S
O67 Co59 2.074 . S
O67 C92 1.257 . S
H68 C93 0.930 . S
H69 C99 0.930 . S
O70 Co59 2.093 . S
O70 C62 1.224 . S
H71 C103 0.929 . S
H72 C105 0.930 . S
H73 C106 0.930 . S
H74 C104 0.929 . S
H75 C107 0.928 . S
O76 Co60 2.057 . S
O76 C64 1.232 . S
H77 C96 0.929 . S
H78 C97 0.929 . S
H79 C109 0.931 . S
H80 C101 0.929 . S
H81 C110 0.930 . S
H82 C102 0.931 . S
O83 Co59 2.097 . S
O83 C111 1.214 . S
H84 C112 0.929 . S
H85 C113 0.929 . S
H86 C114 0.930 . S
H87 C115 0.929 . S
H88 C117 0.930 . S
H89 C94 0.930 . S
H90 C98 0.930 . S
O91 Co60 2.037 . S
O91 C111 1.234 . S
C92 O66 1.269 . S
C92 O67 1.257 . S
C93 H68 0.930 . S
C93 C96 1.388 . S
C93 C98 1.418 . S
C94 H89 0.930 . S
C94 C97 1.404 . S
C94 C98 1.353 . S
N95 Co60 2.145 . S
N95 C96 1.397 . S
N95 C97 1.334 . S
C96 H77 0.929 . S
C96 C93 1.388 . S
C96 N95 1.397 . S
C97 H78 0.929 . S
C97 C94 1.404 . S
C97 N95 1.334 . S
C98 H90 0.930 . S
C98 C93 1.418 . S
C98 C94 1.353 . S
C99 H69 0.930 . S
C99 N100 1.330 . S
C99 C101 1.446 . S
N100 Co59 2.151 . S
N100 C99 1.330 . S
N100 C104 1.418 . S
C101 H80 0.929 . S
C101 C99 1.446 . S
C101 C102 1.332 . S
C102 H82 0.931 . S
C102 C101 1.332 . S
C102 C103 1.267 . S
C103 H71 0.929 . S
C103 C102 1.267 . S
C103 C104 1.251 . S
C104 H74 0.929 . S
C104 N100 1.418 . S
C104 C103 1.251 . S
C105 H72 0.930 . S
C105 C107 1.406 . S
C105 C110 1.261 . S
C106 H73 0.930 . S
C106 N108 1.325 . S
C106 C109 1.357 . S
C107 H75 0.928 . S
C107 C105 1.406 . S
C107 N108 1.261 . S
N108 Co59 2.214 . S
N108 C106 1.325 . S
N108 C107 1.261 . S
C109 H79 0.931 . S
C109 C106 1.357 . S
C109 C110 1.312 . S
C110 H81 0.930 . S
C110 C105 1.261 . S
C110 C109 1.312 . S
C111 O83 1.214 . S
C111 O91 1.234 . S
C112 H84 0.929 . S
C112 C115 1.391 . S
C112 C117 1.391 . S
C113 H85 0.929 . S
C113 C114 1.390 . S
C113 N116 1.391 . S
C114 H86 0.930 . S
C114 C113 1.390 . S
C114 C115 1.392 . S
C115 H87 0.929 . S
C115 C112 1.391 . S
C115 C114 1.392 . S
N116 Co60 2.257 . S
N116 C113 1.391 . S
N116 C117 1.388 . S
C117 H88 0.930 . S
C117 C112 1.391 . S
C117 N116 1.388 . S
Co118 O120 2.143 . S
Co118 O126 2.074 . S
Co118 O129 2.093 . S
Co118 O142 2.097 . S
Co118 N159 2.151 . S
Co118 N167 2.214 . S
Co119 O120 2.160 . S
Co119 O125 2.058 . S
Co119 O135 2.057 . S
Co119 O150 2.037 . S
Co119 N154 2.145 . S
Co119 N175 2.257 . S
O120 Co118 2.143 . S
O120 Co119 2.160 . S
C121 O122 1.278 . S
C121 O129 1.224 . S
O122 C121 1.278 . S
C123 O124 1.245 . S
C123 O135 1.232 . S
O124 C123 1.245 . S
O125 Co119 2.058 . S
O125 C151 1.269 . S
O126 Co118 2.074 . S
O126 C151 1.257 . S
H127 C152 0.930 . S
H128 C158 0.930 . S
O129 Co118 2.093 . S
O129 C121 1.224 . S
H130 C162 0.929 . S
H131 C164 0.930 . S
H132 C165 0.930 . S
H133 C163 0.929 . S
H134 C166 0.928 . S
O135 Co119 2.057 . S
O135 C123 1.232 . S
H136 C155 0.929 . S
H137 C156 0.929 . S
H138 C168 0.931 . S
H139 C160 0.929 . S
H140 C169 0.930 . S
H141 C161 0.931 . S
O142 Co118 2.097 . S
O142 C170 1.214 . S
H143 C171 0.929 . S
H144 C172 0.929 . S
H145 C173 0.930 . S
H146 C174 0.929 . S
H147 C176 0.930 . S
H148 C153 0.930 . S
H149 C157 0.930 . S
O150 Co119 2.037 . S
O150 C170 1.234 . S
C151 O125 1.269 . S
C151 O126 1.257 . S
C152 H127 0.930 . S
C152 C155 1.388 . S
C152 C157 1.418 . S
C153 H148 0.930 . S
C153 C156 1.404 . S
C153 C157 1.353 . S
N154 Co119 2.145 . S
N154 C155 1.397 . S
N154 C156 1.334 . S
C155 H136 0.929 . S
C155 C152 1.388 . S
C155 N154 1.397 . S
C156 H137 0.929 . S
C156 C153 1.404 . S
C156 N154 1.334 . S
C157 H149 0.930 . S
C157 C152 1.418 . S
C157 C153 1.353 . S
C158 H128 0.930 . S
C158 N159 1.330 . S
C158 C160 1.446 . S
N159 Co118 2.151 . S
N159 C158 1.330 . S
N159 C163 1.418 . S
C160 H139 0.929 . S
C160 C158 1.446 . S
C160 C161 1.332 . S
C161 H141 0.931 . S
C161 C160 1.332 . S
C161 C162 1.267 . S
C162 H130 0.929 . S
C162 C161 1.267 . S
C162 C163 1.251 . S
C163 H133 0.929 . S
C163 N159 1.418 . S
C163 C162 1.251 . S
C164 H131 0.930 . S
C164 C166 1.406 . S
C164 C169 1.261 . S
C165 H132 0.930 . S
C165 N167 1.325 . S
C165 C168 1.357 . S
C166 H134 0.928 . S
C166 C164 1.406 . S
C166 N167 1.261 . S
N167 Co118 2.214 . S
N167 C165 1.325 . S
N167 C166 1.261 . S
C168 H138 0.931 . S
C168 C165 1.357 . S
C168 C169 1.312 . S
C169 H140 0.930 . S
C169 C164 1.261 . S
C169 C168 1.312 . S
C170 O142 1.214 . S
C170 O150 1.234 . S
C171 H143 0.929 . S
C171 C174 1.391 . S
C171 C176 1.391 . S
C172 H144 0.929 . S
C172 C173 1.390 . S
C172 N175 1.391 . S
C173 H145 0.930 . S
C173 C172 1.390 . S
C173 C174 1.392 . S
C174 H146 0.929 . S
C174 C171 1.391 . S
C174 C173 1.392 . S
N175 Co119 2.257 . S
N175 C172 1.391 . S
N175 C176 1.388 . S
C176 H147 0.930 . S
C176 C171 1.391 . S
C176 N175 1.388 . S
Co177 O179 2.143 . S
Co177 O185 2.074 . S
Co177 O188 2.093 . S
Co177 O201 2.097 . S
Co177 N218 2.151 . S
Co177 N226 2.214 . S
Co178 O179 2.160 . S
Co178 O184 2.058 . S
Co178 O194 2.057 . S
Co178 O209 2.037 . S
Co178 N213 2.145 . S
Co178 N234 2.257 . S
O179 Co177 2.143 . S
O179 Co178 2.160 . S
C180 O181 1.278 . S
C180 O188 1.224 . S
O181 C180 1.278 . S
C182 O183 1.245 . S
C182 O194 1.232 . S
O183 C182 1.245 . S
O184 Co178 2.058 . S
O184 C210 1.269 . S
O185 Co177 2.074 . S
O185 C210 1.257 . S
H186 C211 0.930 . S
H187 C217 0.930 . S
O188 Co177 2.093 . S
O188 C180 1.224 . S
H189 C221 0.929 . S
H190 C223 0.930 . S
H191 C224 0.930 . S
H192 C222 0.929 . S
H193 C225 0.928 . S
O194 Co178 2.057 . S
O194 C182 1.232 . S
H195 C214 0.929 . S
H196 C215 0.929 . S
H197 C227 0.931 . S
H198 C219 0.929 . S
H199 C228 0.930 . S
H200 C220 0.931 . S
O201 Co177 2.097 . S
O201 C229 1.214 . S
H202 C230 0.929 . S
H203 C231 0.929 . S
H204 C232 0.930 . S
H205 C233 0.929 . S
H206 C235 0.930 . S
H207 C212 0.930 . S
H208 C216 0.930 . S
O209 Co178 2.037 . S
O209 C229 1.234 . S
C210 O184 1.269 . S
C210 O185 1.257 . S
C211 H186 0.930 . S
C211 C214 1.388 . S
C211 C216 1.418 . S
C212 H207 0.930 . S
C212 C215 1.404 . S
C212 C216 1.353 . S
N213 Co178 2.145 . S
N213 C214 1.397 . S
N213 C215 1.334 . S
C214 H195 0.929 . S
C214 C211 1.388 . S
C214 N213 1.397 . S
C215 H196 0.929 . S
C215 C212 1.404 . S
C215 N213 1.334 . S
C216 H208 0.930 . S
C216 C211 1.418 . S
C216 C212 1.353 . S
C217 H187 0.930 . S
C217 N218 1.330 . S
C217 C219 1.446 . S
N218 Co177 2.151 . S
N218 C217 1.330 . S
N218 C222 1.418 . S
C219 H198 0.929 . S
C219 C217 1.446 . S
C219 C220 1.332 . S
C220 H200 0.931 . S
C220 C219 1.332 . S
C220 C221 1.267 . S
C221 H189 0.929 . S
C221 C220 1.267 . S
C221 C222 1.251 . S
C222 H192 0.929 . S
C222 N218 1.418 . S
C222 C221 1.251 . S
C223 H190 0.930 . S
C223 C225 1.406 . S
C223 C228 1.261 . S
C224 H191 0.930 . S
C224 N226 1.325 . S
C224 C227 1.357 . S
C225 H193 0.928 . S
C225 C223 1.406 . S
C225 N226 1.261 . S
N226 Co177 2.214 . S
N226 C224 1.325 . S
N226 C225 1.261 . S
C227 H197 0.931 . S
C227 C224 1.357 . S
C227 C228 1.312 . S
C228 H199 0.930 . S
C228 C223 1.261 . S
C228 C227 1.312 . S
C229 O201 1.214 . S
C229 O209 1.234 . S
C230 H202 0.929 . S
C230 C233 1.391 . S
C230 C235 1.391 . S
C231 H203 0.929 . S
C231 C232 1.390 . S
C231 N234 1.391 . S
C232 H204 0.930 . S
C232 C231 1.390 . S
C232 C233 1.392 . S
C233 H205 0.929 . S
C233 C230 1.391 . S
C233 C232 1.392 . S
N234 Co178 2.257 . S
N234 C231 1.391 . S
N234 C235 1.388 . S
C235 H206 0.930 . S
C235 C230 1.391 . S
C235 N234 1.388 . S
Co236 O238 2.143 . S
Co236 O244 2.074 . S
Co236 O247 2.093 . S
Co236 O260 2.097 . S
Co236 N277 2.151 . S
Co236 N285 2.214 . S
Co237 O238 2.160 . S
Co237 O243 2.058 . S
Co237 O253 2.057 . S
Co237 O268 2.037 . S
Co237 N272 2.145 . S
Co237 N293 2.257 . S
O238 Co236 2.143 . S
O238 Co237 2.160 . S
C239 O240 1.278 . S
C239 O247 1.224 . S
O240 C239 1.278 . S
C241 O242 1.245 . S
C241 O253 1.232 . S
O242 C241 1.245 . S
O243 Co237 2.058 . S
O243 C269 1.269 . S
O244 Co236 2.074 . S
O244 C269 1.257 . S
H245 C270 0.930 . S
H246 C276 0.930 . S
O247 Co236 2.093 . S
O247 C239 1.224 . S
H248 C280 0.929 . S
H249 C282 0.930 . S
H250 C283 0.930 . S
H251 C281 0.929 . S
H252 C284 0.928 . S
O253 Co237 2.057 . S
O253 C241 1.232 . S
H254 C273 0.929 . S
H255 C274 0.929 . S
H256 C286 0.931 . S
H257 C278 0.929 . S
H258 C287 0.930 . S
H259 C279 0.931 . S
O260 Co236 2.097 . S
O260 C288 1.214 . S
H261 C289 0.929 . S
H262 C290 0.929 . S
H263 C291 0.930 . S
H264 C292 0.929 . S
H265 C294 0.930 . S
H266 C271 0.930 . S
H267 C275 0.930 . S
O268 Co237 2.037 . S
O268 C288 1.234 . S
C269 O243 1.269 . S
C269 O244 1.257 . S
C270 H245 0.930 . S
C270 C273 1.388 . S
C270 C275 1.418 . S
C271 H266 0.930 . S
C271 C274 1.404 . S
C271 C275 1.353 . S
N272 Co237 2.145 . S
N272 C273 1.397 . S
N272 C274 1.334 . S
C273 H254 0.929 . S
C273 C270 1.388 . S
C273 N272 1.397 . S
C274 H255 0.929 . S
C274 C271 1.404 . S
C274 N272 1.334 . S
C275 H267 0.930 . S
C275 C270 1.418 . S
C275 C271 1.353 . S
C276 H246 0.930 . S
C276 N277 1.330 . S
C276 C278 1.446 . S
N277 Co236 2.151 . S
N277 C276 1.330 . S
N277 C281 1.418 . S
C278 H257 0.929 . S
C278 C276 1.446 . S
C278 C279 1.332 . S
C279 H259 0.931 . S
C279 C278 1.332 . S
C279 C280 1.267 . S
C280 H248 0.929 . S
C280 C279 1.267 . S
C280 C281 1.251 . S
C281 H251 0.929 . S
C281 N277 1.418 . S
C281 C280 1.251 . S
C282 H249 0.930 . S
C282 C284 1.406 . S
C282 C287 1.261 . S
C283 H250 0.930 . S
C283 N285 1.325 . S
C283 C286 1.357 . S
C284 H252 0.928 . S
C284 C282 1.406 . S
C284 N285 1.261 . S
N285 Co236 2.214 . S
N285 C283 1.325 . S
N285 C284 1.261 . S
C286 H256 0.931 . S
C286 C283 1.357 . S
C286 C287 1.312 . S
C287 H258 0.930 . S
C287 C282 1.261 . S
C287 C286 1.312 . S
C288 O260 1.214 . S
C288 O268 1.234 . S
C289 H261 0.929 . S
C289 C292 1.391 . S
C289 C294 1.391 . S
C290 H262 0.929 . S
C290 C291 1.390 . S
C290 N293 1.391 . S
C291 H263 0.930 . S
C291 C290 1.390 . S
C291 C292 1.392 . S
C292 H264 0.929 . S
C292 C289 1.391 . S
C292 C291 1.392 . S
N293 Co237 2.257 . S
N293 C290 1.391 . S
N293 C294 1.388 . S
C294 H265 0.930 . S
C294 C289 1.391 . S
C294 N293 1.388 . S
Co295 O297 2.143 . S
Co295 O303 2.074 . S
Co295 O306 2.093 . S
Co295 O319 2.097 . S
Co295 N336 2.151 . S
Co295 N344 2.214 . S
Co296 O297 2.160 . S
Co296 O302 2.058 . S
Co296 O312 2.057 . S
Co296 O327 2.037 . S
Co296 N331 2.145 . S
Co296 N352 2.257 . S
O297 Co295 2.143 . S
O297 Co296 2.160 . S
C298 O299 1.278 . S
C298 O306 1.224 . S
O299 C298 1.278 . S
C300 O301 1.245 . S
C300 O312 1.232 . S
O301 C300 1.245 . S
O302 Co296 2.058 . S
O302 C328 1.269 . S
O303 Co295 2.074 . S
O303 C328 1.257 . S
H304 C329 0.930 . S
H305 C335 0.930 . S
O306 Co295 2.093 . S
O306 C298 1.224 . S
H307 C339 0.929 . S
H308 C341 0.930 . S
H309 C342 0.930 . S
H310 C340 0.929 . S
H311 C343 0.928 . S
O312 Co296 2.057 . S
O312 C300 1.232 . S
H313 C332 0.929 . S
H314 C333 0.929 . S
H315 C345 0.931 . S
H316 C337 0.929 . S
H317 C346 0.930 . S
H318 C338 0.931 . S
O319 Co295 2.097 . S
O319 C347 1.214 . S
H320 C348 0.929 . S
H321 C349 0.929 . S
H322 C350 0.930 . S
H323 C351 0.929 . S
H324 C353 0.930 . S
H325 C330 0.930 . S
H326 C334 0.930 . S
O327 Co296 2.037 . S
O327 C347 1.234 . S
C328 O302 1.269 . S
C328 O303 1.257 . S
C329 H304 0.930 . S
C329 C332 1.388 . S
C329 C334 1.418 . S
C330 H325 0.930 . S
C330 C333 1.404 . S
C330 C334 1.353 . S
N331 Co296 2.145 . S
N331 C332 1.397 . S
N331 C333 1.334 . S
C332 H313 0.929 . S
C332 C329 1.388 . S
C332 N331 1.397 . S
C333 H314 0.929 . S
C333 C330 1.404 . S
C333 N331 1.334 . S
C334 H326 0.930 . S
C334 C329 1.418 . S
C334 C330 1.353 . S
C335 H305 0.930 . S
C335 N336 1.330 . S
C335 C337 1.446 . S
N336 Co295 2.151 . S
N336 C335 1.330 . S
N336 C340 1.418 . S
C337 H316 0.929 . S
C337 C335 1.446 . S
C337 C338 1.332 . S
C338 H318 0.931 . S
C338 C337 1.332 . S
C338 C339 1.267 . S
C339 H307 0.929 . S
C339 C338 1.267 . S
C339 C340 1.251 . S
C340 H310 0.929 . S
C340 N336 1.418 . S
C340 C339 1.251 . S
C341 H308 0.930 . S
C341 C343 1.406 . S
C341 C346 1.261 . S
C342 H309 0.930 . S
C342 N344 1.325 . S
C342 C345 1.357 . S
C343 H311 0.928 . S
C343 C341 1.406 . S
C343 N344 1.261 . S
N344 Co295 2.214 . S
N344 C342 1.325 . S
N344 C343 1.261 . S
C345 H315 0.931 . S
C345 C342 1.357 . S
C345 C346 1.312 . S
C346 H317 0.930 . S
C346 C341 1.261 . S
C346 C345 1.312 . S
C347 O319 1.214 . S
C347 O327 1.234 . S
C348 H320 0.929 . S
C348 C351 1.391 . S
C348 C353 1.391 . S
C349 H321 0.929 . S
C349 C350 1.390 . S
C349 N352 1.391 . S
C350 H322 0.930 . S
C350 C349 1.390 . S
C350 C351 1.392 . S
C351 H323 0.929 . S
C351 C348 1.391 . S
C351 C350 1.392 . S
N352 Co296 2.257 . S
N352 C349 1.391 . S
N352 C353 1.388 . S
C353 H324 0.930 . S
C353 C348 1.391 . S
C353 N352 1.388 . S
Co354 O356 2.143 . S
Co354 O362 2.074 . S
Co354 O365 2.093 . S
Co354 O378 2.097 . S
Co354 N395 2.151 . S
Co354 N403 2.214 . S
Co355 O356 2.160 . S
Co355 O361 2.058 . S
Co355 O371 2.057 . S
Co355 O386 2.037 . S
Co355 N390 2.145 . S
Co355 N411 2.257 . S
O356 Co354 2.143 . S
O356 Co355 2.160 . S
C357 O358 1.278 . S
C357 O365 1.224 . S
O358 C357 1.278 . S
C359 O360 1.245 . S
C359 O371 1.232 . S
O360 C359 1.245 . S
O361 Co355 2.058 . S
O361 C387 1.269 . S
O362 Co354 2.074 . S
O362 C387 1.257 . S
H363 C388 0.930 . S
H364 C394 0.930 . S
O365 Co354 2.093 . S
O365 C357 1.224 . S
H366 C398 0.929 . S
H367 C400 0.930 . S
H368 C401 0.930 . S
H369 C399 0.929 . S
H370 C402 0.928 . S
O371 Co355 2.057 . S
O371 C359 1.232 . S
H372 C391 0.929 . S
H373 C392 0.929 . S
H374 C404 0.931 . S
H375 C396 0.929 . S
H376 C405 0.930 . S
H377 C397 0.931 . S
O378 Co354 2.097 . S
O378 C406 1.214 . S
H379 C407 0.929 . S
H380 C408 0.929 . S
H381 C409 0.930 . S
H382 C410 0.929 . S
H383 C412 0.930 . S
H384 C389 0.930 . S
H385 C393 0.930 . S
O386 Co355 2.037 . S
O386 C406 1.234 . S
C387 O361 1.269 . S
C387 O362 1.257 . S
C388 H363 0.930 . S
C388 C391 1.388 . S
C388 C393 1.418 . S
C389 H384 0.930 . S
C389 C392 1.404 . S
C389 C393 1.353 . S
N390 Co355 2.145 . S
N390 C391 1.397 . S
N390 C392 1.334 . S
C391 H372 0.929 . S
C391 C388 1.388 . S
C391 N390 1.397 . S
C392 H373 0.929 . S
C392 C389 1.404 . S
C392 N390 1.334 . S
C393 H385 0.930 . S
C393 C388 1.418 . S
C393 C389 1.353 . S
C394 H364 0.930 . S
C394 N395 1.330 . S
C394 C396 1.446 . S
N395 Co354 2.151 . S
N395 C394 1.330 . S
N395 C399 1.418 . S
C396 H375 0.929 . S
C396 C394 1.446 . S
C396 C397 1.332 . S
C397 H377 0.931 . S
C397 C396 1.332 . S
C397 C398 1.267 . S
C398 H366 0.929 . S
C398 C397 1.267 . S
C398 C399 1.251 . S
C399 H369 0.929 . S
C399 N395 1.418 . S
C399 C398 1.251 . S
C400 H367 0.930 . S
C400 C402 1.406 . S
C400 C405 1.261 . S
C401 H368 0.930 . S
C401 N403 1.325 . S
C401 C404 1.357 . S
C402 H370 0.928 . S
C402 C400 1.406 . S
C402 N403 1.261 . S
N403 Co354 2.214 . S
N403 C401 1.325 . S
N403 C402 1.261 . S
C404 H374 0.931 . S
C404 C401 1.357 . S
C404 C405 1.312 . S
C405 H376 0.930 . S
C405 C400 1.261 . S
C405 C404 1.312 . S
C406 O378 1.214 . S
C406 O386 1.234 . S
C407 H379 0.929 . S
C407 C410 1.391 . S
C407 C412 1.391 . S
C408 H380 0.929 . S
C408 C409 1.390 . S
C408 N411 1.391 . S
C409 H381 0.930 . S
C409 C408 1.390 . S
C409 C410 1.392 . S
C410 H382 0.929 . S
C410 C407 1.391 . S
C410 C409 1.392 . S
N411 Co355 2.257 . S
N411 C408 1.391 . S
N411 C412 1.388 . S
C412 H383 0.930 . S
C412 C407 1.391 . S
C412 N411 1.388 . S
Co413 O415 2.143 . S
Co413 O421 2.074 . S
Co413 O424 2.093 . S
Co413 O437 2.097 . S
Co413 N454 2.151 . S
Co413 N462 2.214 . S
Co414 O415 2.160 . S
Co414 O420 2.058 . S
Co414 O430 2.057 . S
Co414 O445 2.037 . S
Co414 N449 2.145 . S
Co414 N470 2.257 . S
O415 Co413 2.143 . S
O415 Co414 2.160 . S
C416 O417 1.278 . S
C416 O424 1.224 . S
O417 C416 1.278 . S
C418 O419 1.245 . S
C418 O430 1.232 . S
O419 C418 1.245 . S
O420 Co414 2.058 . S
O420 C446 1.269 . S
O421 Co413 2.074 . S
O421 C446 1.257 . S
H422 C447 0.930 . S
H423 C453 0.930 . S
O424 Co413 2.093 . S
O424 C416 1.224 . S
H425 C457 0.929 . S
H426 C459 0.930 . S
H427 C460 0.930 . S
H428 C458 0.929 . S
H429 C461 0.928 . S
O430 Co414 2.057 . S
O430 C418 1.232 . S
H431 C450 0.929 . S
H432 C451 0.929 . S
H433 C463 0.931 . S
H434 C455 0.929 . S
H435 C464 0.930 . S
H436 C456 0.931 . S
O437 Co413 2.097 . S
O437 C465 1.214 . S
H438 C466 0.929 . S
H439 C467 0.929 . S
H440 C468 0.930 . S
H441 C469 0.929 . S
H442 C471 0.930 . S
H443 C448 0.930 . S
H444 C452 0.930 . S
O445 Co414 2.037 . S
O445 C465 1.234 . S
C446 O420 1.269 . S
C446 O421 1.257 . S
C447 H422 0.930 . S
C447 C450 1.388 . S
C447 C452 1.418 . S
C448 H443 0.930 . S
C448 C451 1.404 . S
C448 C452 1.353 . S
N449 Co414 2.145 . S
N449 C450 1.397 . S
N449 C451 1.334 . S
C450 H431 0.929 . S
C450 C447 1.388 . S
C450 N449 1.397 . S
C451 H432 0.929 . S
C451 C448 1.404 . S
C451 N449 1.334 . S
C452 H444 0.930 . S
C452 C447 1.418 . S
C452 C448 1.353 . S
C453 H423 0.930 . S
C453 N454 1.330 . S
C453 C455 1.446 . S
N454 Co413 2.151 . S
N454 C453 1.330 . S
N454 C458 1.418 . S
C455 H434 0.929 . S
C455 C453 1.446 . S
C455 C456 1.332 . S
C456 H436 0.931 . S
C456 C455 1.332 . S
C456 C457 1.267 . S
C457 H425 0.929 . S
C457 C456 1.267 . S
C457 C458 1.251 . S
C458 H428 0.929 . S
C458 N454 1.418 . S
C458 C457 1.251 . S
C459 H426 0.930 . S
C459 C461 1.406 . S
C459 C464 1.261 . S
C460 H427 0.930 . S
C460 N462 1.325 . S
C460 C463 1.357 . S
C461 H429 0.928 . S
C461 C459 1.406 . S
C461 N462 1.261 . S
N462 Co413 2.214 . S
N462 C460 1.325 . S
N462 C461 1.261 . S
C463 H433 0.931 . S
C463 C460 1.357 . S
C463 C464 1.312 . S
C464 H435 0.930 . S
C464 C459 1.261 . S
C464 C463 1.312 . S
C465 O437 1.214 . S
C465 O445 1.234 . S
C466 H438 0.929 . S
C466 C469 1.391 . S
C466 C471 1.391 . S
C467 H439 0.929 . S
C467 C468 1.390 . S
C467 N470 1.391 . S
C468 H440 0.930 . S
C468 C467 1.390 . S
C468 C469 1.392 . S
C469 H441 0.929 . S
C469 C466 1.391 . S
C469 C468 1.392 . S
N470 Co414 2.257 . S
N470 C467 1.391 . S
N470 C471 1.388 . S
C471 H442 0.930 . S
C471 C466 1.391 . S
C471 N470 1.388 . S
Co472 O474 2.143 . S
Co472 O480 2.074 . S
Co472 O483 2.093 . S
Co472 O496 2.097 . S
Co472 N513 2.151 . S
Co472 N521 2.214 . S
Co473 O474 2.160 . S
Co473 O479 2.058 . S
Co473 O489 2.057 . S
Co473 O504 2.037 . S
Co473 N508 2.145 . S
Co473 N529 2.257 . S
O474 Co472 2.143 . S
O474 Co473 2.160 . S
C475 O476 1.278 . S
C475 O483 1.224 . S
O476 C475 1.278 . S
C477 O478 1.245 . S
C477 O489 1.232 . S
O478 C477 1.245 . S
O479 Co473 2.058 . S
O479 C505 1.269 . S
O480 Co472 2.074 . S
O480 C505 1.257 . S
H481 C506 0.930 . S
H482 C512 0.930 . S
O483 Co472 2.093 . S
O483 C475 1.224 . S
H484 C516 0.929 . S
H485 C518 0.930 . S
H486 C519 0.930 . S
H487 C517 0.929 . S
H488 C520 0.928 . S
O489 Co473 2.057 . S
O489 C477 1.232 . S
H490 C509 0.929 . S
H491 C510 0.929 . S
H492 C522 0.931 . S
H493 C514 0.929 . S
H494 C523 0.930 1_455 S
H495 C515 0.931 . S
O496 Co472 2.097 . S
O496 C524 1.214 . S
H497 C525 0.929 . S
H498 C526 0.929 . S
H499 C527 0.930 . S
H500 C528 0.929 . S
H501 C530 0.930 . S
H502 C507 0.930 . S
H503 C511 0.930 . S
O504 Co473 2.037 . S
O504 C524 1.234 . S
C505 O479 1.269 . S
C505 O480 1.257 . S
C506 H481 0.930 . S
C506 C509 1.388 . S
C506 C511 1.418 . S
C507 H502 0.930 . S
C507 C510 1.404 . S
C507 C511 1.353 . S
N508 Co473 2.145 . S
N508 C509 1.397 . S
N508 C510 1.334 . S
C509 H490 0.929 . S
C509 C506 1.388 . S
C509 N508 1.397 . S
C510 H491 0.929 . S
C510 C507 1.404 . S
C510 N508 1.334 . S
C511 H503 0.930 . S
C511 C506 1.418 . S
C511 C507 1.353 . S
C512 H482 0.930 . S
C512 N513 1.330 . S
C512 C514 1.446 . S
N513 Co472 2.151 . S
N513 C512 1.330 . S
N513 C517 1.418 . S
C514 H493 0.929 . S
C514 C512 1.446 . S
C514 C515 1.332 . S
C515 H495 0.931 . S
C515 C514 1.332 . S
C515 C516 1.267 . S
C516 H484 0.929 . S
C516 C515 1.267 . S
C516 C517 1.251 . S
C517 H487 0.929 . S
C517 N513 1.418 . S
C517 C516 1.251 . S
C518 H485 0.930 . S
C518 C520 1.406 . S
C518 C523 1.261 . S
C519 H486 0.930 . S
C519 N521 1.325 . S
C519 C522 1.357 . S
C520 H488 0.928 . S
C520 C518 1.406 . S
C520 N521 1.261 . S
N521 Co472 2.214 . S
N521 C519 1.325 . S
N521 C520 1.261 . S
C522 H492 0.931 . S
C522 C519 1.357 . S
C522 C523 1.312 . S
C523 H494 0.930 1_655 S
C523 C518 1.261 . S
C523 C522 1.312 . S
C524 O496 1.214 . S
C524 O504 1.234 . S
C525 H497 0.929 . S
C525 C528 1.391 . S
C525 C530 1.391 . S
C526 H498 0.929 . S
C526 C527 1.390 . S
C526 N529 1.391 . S
C527 H499 0.930 . S
C527 C526 1.390 . S
C527 C528 1.392 . S
C528 H500 0.929 . S
C528 C525 1.391 . S
C528 C527 1.392 . S
N529 Co473 2.257 . S
N529 C526 1.391 . S
N529 C530 1.388 . S
C530 H501 0.930 . S
C530 C525 1.391 . S
C530 N529 1.388 . S
Co531 O533 2.143 . S
Co531 O539 2.074 . S
Co531 O542 2.093 . S
Co531 O555 2.097 . S
Co531 N572 2.151 . S
Co531 N580 2.214 . S
Co532 O533 2.160 . S
Co532 O538 2.058 . S
Co532 O548 2.057 . S
Co532 O563 2.037 . S
Co532 N567 2.145 . S
Co532 N588 2.257 . S
O533 Co531 2.143 . S
O533 Co532 2.160 . S
C534 O535 1.278 . S
C534 O542 1.224 . S
O535 C534 1.278 . S
C536 O537 1.245 . S
C536 O548 1.232 . S
O537 C536 1.245 . S
O538 Co532 2.058 . S
O538 C564 1.269 . S
O539 Co531 2.074 . S
O539 C564 1.257 . S
H540 C565 0.930 . S
H541 C571 0.930 . S
O542 Co531 2.093 . S
O542 C534 1.224 . S
H543 C575 0.929 . S
H544 C577 0.930 . S
H545 C578 0.930 . S
H546 C576 0.929 . S
H547 C579 0.928 . S
O548 Co532 2.057 . S
O548 C536 1.232 . S
H549 C568 0.929 . S
H550 C569 0.929 . S
H551 C581 0.931 . S
H552 C573 0.929 . S
H553 C582 0.930 1_545 S
H554 C574 0.931 . S
O555 Co531 2.097 . S
O555 C583 1.214 . S
H556 C584 0.929 . S
H557 C585 0.929 . S
H558 C586 0.930 . S
H559 C587 0.929 . S
H560 C589 0.930 . S
H561 C566 0.930 . S
H562 C570 0.930 . S
O563 Co532 2.037 . S
O563 C583 1.234 . S
C564 O538 1.269 . S
C564 O539 1.257 . S
C565 H540 0.930 . S
C565 C568 1.388 . S
C565 C570 1.418 . S
C566 H561 0.930 . S
C566 C569 1.404 . S
C566 C570 1.353 . S
N567 Co532 2.145 . S
N567 C568 1.397 . S
N567 C569 1.334 . S
C568 H549 0.929 . S
C568 C565 1.388 . S
C568 N567 1.397 . S
C569 H550 0.929 . S
C569 C566 1.404 . S
C569 N567 1.334 . S
C570 H562 0.930 . S
C570 C565 1.418 . S
C570 C566 1.353 . S
C571 H541 0.930 . S
C571 N572 1.330 . S
C571 C573 1.446 . S
N572 Co531 2.151 . S
N572 C571 1.330 . S
N572 C576 1.418 . S
C573 H552 0.929 . S
C573 C571 1.446 . S
C573 C574 1.332 . S
C574 H554 0.931 . S
C574 C573 1.332 . S
C574 C575 1.267 . S
C575 H543 0.929 . S
C575 C574 1.267 . S
C575 C576 1.251 . S
C576 H546 0.929 . S
C576 N572 1.418 . S
C576 C575 1.251 . S
C577 H544 0.930 . S
C577 C579 1.406 . S
C577 C582 1.261 . S
C578 H545 0.930 . S
C578 N580 1.325 . S
C578 C581 1.357 . S
C579 H547 0.928 . S
C579 C577 1.406 . S
C579 N580 1.261 . S
N580 Co531 2.214 . S
N580 C578 1.325 . S
N580 C579 1.261 . S
C581 H551 0.931 . S
C581 C578 1.357 . S
C581 C582 1.312 . S
C582 H553 0.930 1_565 S
C582 C577 1.261 . S
C582 C581 1.312 . S
C583 O555 1.214 . S
C583 O563 1.234 . S
C584 H556 0.929 . S
C584 C587 1.391 . S
C584 C589 1.391 . S
C585 H557 0.929 . S
C585 C586 1.390 . S
C585 N588 1.391 . S
C586 H558 0.930 . S
C586 C585 1.390 . S
C586 C587 1.392 . S
C587 H559 0.929 . S
C587 C584 1.391 . S
C587 C586 1.392 . S
N588 Co532 2.257 . S
N588 C585 1.391 . S
N588 C589 1.388 . S
C589 H560 0.930 . S
C589 C584 1.391 . S
C589 N588 1.388 . S
Co590 O592 2.143 . S
Co590 O598 2.074 . S
Co590 O601 2.093 . S
Co590 O614 2.097 . S
Co590 N631 2.151 . S
Co590 N639 2.214 . S
Co591 O592 2.160 . S
Co591 O597 2.058 . S
Co591 O607 2.057 . S
Co591 O622 2.037 . S
Co591 N626 2.145 . S
Co591 N647 2.257 . S
O592 Co590 2.143 . S
O592 Co591 2.160 . S
C593 O594 1.278 . S
C593 O601 1.224 . S
O594 C593 1.278 . S
C595 O596 1.245 . S
C595 O607 1.232 . S
O596 C595 1.245 . S
O597 Co591 2.058 . S
O597 C623 1.269 . S
O598 Co590 2.074 . S
O598 C623 1.257 . S
H599 C624 0.930 . S
H600 C630 0.930 . S
O601 Co590 2.093 . S
O601 C593 1.224 . S
H602 C634 0.929 . S
H603 C636 0.930 . S
H604 C637 0.930 . S
H605 C635 0.929 . S
H606 C638 0.928 . S
O607 Co591 2.057 . S
O607 C595 1.232 . S
H608 C627 0.929 . S
H609 C628 0.929 . S
H610 C640 0.931 . S
H611 C632 0.929 . S
H612 C641 0.930 1_655 S
H613 C633 0.931 . S
O614 Co590 2.097 . S
O614 C642 1.214 . S
H615 C643 0.929 . S
H616 C644 0.929 . S
H617 C645 0.930 . S
H618 C646 0.929 . S
H619 C648 0.930 . S
H620 C625 0.930 . S
H621 C629 0.930 . S
O622 Co591 2.037 . S
O622 C642 1.234 . S
C623 O597 1.269 . S
C623 O598 1.257 . S
C624 H599 0.930 . S
C624 C627 1.388 . S
C624 C629 1.418 . S
C625 H620 0.930 . S
C625 C628 1.404 . S
C625 C629 1.353 . S
N626 Co591 2.145 . S
N626 C627 1.397 . S
N626 C628 1.334 . S
C627 H608 0.929 . S
C627 C624 1.388 . S
C627 N626 1.397 . S
C628 H609 0.929 . S
C628 C625 1.404 . S
C628 N626 1.334 . S
C629 H621 0.930 . S
C629 C624 1.418 . S
C629 C625 1.353 . S
C630 H600 0.930 . S
C630 N631 1.330 . S
C630 C632 1.446 . S
N631 Co590 2.151 . S
N631 C630 1.330 . S
N631 C635 1.418 . S
C632 H611 0.929 . S
C632 C630 1.446 . S
C632 C633 1.332 . S
C633 H613 0.931 . S
C633 C632 1.332 . S
C633 C634 1.267 . S
C634 H602 0.929 . S
C634 C633 1.267 . S
C634 C635 1.251 . S
C635 H605 0.929 . S
C635 N631 1.418 . S
C635 C634 1.251 . S
C636 H603 0.930 . S
C636 C638 1.406 . S
C636 C641 1.261 . S
C637 H604 0.930 . S
C637 N639 1.325 . S
C637 C640 1.357 . S
C638 H606 0.928 . S
C638 C636 1.406 . S
C638 N639 1.261 . S
N639 Co590 2.214 . S
N639 C637 1.325 . S
N639 C638 1.261 . S
C640 H610 0.931 . S
C640 C637 1.357 . S
C640 C641 1.312 . S
C641 H612 0.930 1_455 S
C641 C636 1.261 . S
C641 C640 1.312 . S
C642 O614 1.214 . S
C642 O622 1.234 . S
C643 H615 0.929 . S
C643 C646 1.391 . S
C643 C648 1.391 . S
C644 H616 0.929 . S
C644 C645 1.390 . S
C644 N647 1.391 . S
C645 H617 0.930 . S
C645 C644 1.390 . S
C645 C646 1.392 . S
C646 H618 0.929 . S
C646 C643 1.391 . S
C646 C645 1.392 . S
N647 Co591 2.257 . S
N647 C644 1.391 . S
N647 C648 1.388 . S
C648 H619 0.930 . S
C648 C643 1.391 . S
C648 N647 1.388 . S
Co649 O651 2.143 . S
Co649 O657 2.074 . S
Co649 O660 2.093 . S
Co649 O673 2.097 . S
Co649 N690 2.151 . S
Co649 N698 2.214 . S
Co650 O651 2.160 . S
Co650 O656 2.058 . S
Co650 O666 2.057 . S
Co650 O681 2.037 . S
Co650 N685 2.145 . S
Co650 N706 2.257 . S
O651 Co649 2.143 . S
O651 Co650 2.160 . S
C652 O653 1.278 . S
C652 O660 1.224 . S
O653 C652 1.278 . S
C654 O655 1.245 . S
C654 O666 1.232 . S
O655 C654 1.245 . S
O656 Co650 2.058 . S
O656 C682 1.269 . S
O657 Co649 2.074 . S
O657 C682 1.257 . S
H658 C683 0.930 . S
H659 C689 0.930 . S
O660 Co649 2.093 . S
O660 C652 1.224 . S
H661 C693 0.929 . S
H662 C695 0.930 . S
H663 C696 0.930 . S
H664 C694 0.929 . S
H665 C697 0.928 . S
O666 Co650 2.057 . S
O666 C654 1.232 . S
H667 C686 0.929 . S
H668 C687 0.929 . S
H669 C699 0.931 . S
H670 C691 0.929 . S
H671 C700 0.930 1_565 S
H672 C692 0.931 . S
O673 Co649 2.097 . S
O673 C701 1.214 . S
H674 C702 0.929 . S
H675 C703 0.929 . S
H676 C704 0.930 . S
H677 C705 0.929 . S
H678 C707 0.930 . S
H679 C684 0.930 . S
H680 C688 0.930 . S
O681 Co650 2.037 . S
O681 C701 1.234 . S
C682 O656 1.269 . S
C682 O657 1.257 . S
C683 H658 0.930 . S
C683 C686 1.388 . S
C683 C688 1.418 . S
C684 H679 0.930 . S
C684 C687 1.404 . S
C684 C688 1.353 . S
N685 Co650 2.145 . S
N685 C686 1.397 . S
N685 C687 1.334 . S
C686 H667 0.929 . S
C686 C683 1.388 . S
C686 N685 1.397 . S
C687 H668 0.929 . S
C687 C684 1.404 . S
C687 N685 1.334 . S
C688 H680 0.930 . S
C688 C683 1.418 . S
C688 C684 1.353 . S
C689 H659 0.930 . S
C689 N690 1.330 . S
C689 C691 1.446 . S
N690 Co649 2.151 . S
N690 C689 1.330 . S
N690 C694 1.418 . S
C691 H670 0.929 . S
C691 C689 1.446 . S
C691 C692 1.332 . S
C692 H672 0.931 . S
C692 C691 1.332 . S
C692 C693 1.267 . S
C693 H661 0.929 . S
C693 C692 1.267 . S
C693 C694 1.251 . S
C694 H664 0.929 . S
C694 N690 1.418 . S
C694 C693 1.251 . S
C695 H662 0.930 . S
C695 C697 1.406 . S
C695 C700 1.261 . S
C696 H663 0.930 . S
C696 N698 1.325 . S
C696 C699 1.357 . S
C697 H665 0.928 . S
C697 C695 1.406 . S
C697 N698 1.261 . S
N698 Co649 2.214 . S
N698 C696 1.325 . S
N698 C697 1.261 . S
C699 H669 0.931 . S
C699 C696 1.357 . S
C699 C700 1.312 . S
C700 H671 0.930 1_545 S
C700 C695 1.261 . S
C700 C699 1.312 . S
C701 O673 1.214 . S
C701 O681 1.234 . S
C702 H674 0.929 . S
C702 C705 1.391 . S
C702 C707 1.391 . S
C703 H675 0.929 . S
C703 C704 1.390 . S
C703 N706 1.391 . S
C704 H676 0.930 . S
C704 C703 1.390 . S
C704 C705 1.392 . S
C705 H677 0.929 . S
C705 C702 1.391 . S
C705 C704 1.392 . S
N706 Co650 2.257 . S
N706 C703 1.391 . S
N706 C707 1.388 . S
C707 H678 0.930 . S
C707 C702 1.391 . S
C707 N706 1.388 . S
Co708 O710 2.143 . S
Co708 O716 2.074 . S
Co708 O719 2.093 . S
Co708 O732 2.097 . S
Co708 N749 2.151 . S
Co708 N757 2.214 . S
Co709 O710 2.160 . S
Co709 O715 2.058 . S
Co709 O725 2.057 . S
Co709 O740 2.037 . S
Co709 N744 2.145 . S
Co709 N765 2.257 . S
O710 Co708 2.143 . S
O710 Co709 2.160 . S
C711 O712 1.278 . S
C711 O719 1.224 . S
O712 C711 1.278 . S
C713 O714 1.245 . S
C713 O725 1.232 . S
O714 C713 1.245 . S
O715 Co709 2.058 . S
O715 C741 1.269 . S
O716 Co708 2.074 . S
O716 C741 1.257 . S
H717 C742 0.930 . S
H718 C748 0.930 . S
O719 Co708 2.093 . S
O719 C711 1.224 . S
H720 C752 0.929 . S
H721 C754 0.930 . S
H722 C755 0.930 . S
H723 C753 0.929 . S
H724 C756 0.928 . S
O725 Co709 2.057 . S
O725 C713 1.232 . S
H726 C745 0.929 . S
H727 C746 0.929 . S
H728 C758 0.931 . S
H729 C750 0.929 . S
H730 C759 0.930 1_455 S
H731 C751 0.931 . S
O732 Co708 2.097 . S
O732 C760 1.214 . S
H733 C761 0.929 . S
H734 C762 0.929 . S
H735 C763 0.930 . S
H736 C764 0.929 . S
H737 C766 0.930 . S
H738 C743 0.930 . S
H739 C747 0.930 . S
O740 Co709 2.037 . S
O740 C760 1.234 . S
C741 O715 1.269 . S
C741 O716 1.257 . S
C742 H717 0.930 . S
C742 C745 1.388 . S
C742 C747 1.418 . S
C743 H738 0.930 . S
C743 C746 1.404 . S
C743 C747 1.353 . S
N744 Co709 2.145 . S
N744 C745 1.397 . S
N744 C746 1.334 . S
C745 H726 0.929 . S
C745 C742 1.388 . S
C745 N744 1.397 . S
C746 H727 0.929 . S
C746 C743 1.404 . S
C746 N744 1.334 . S
C747 H739 0.930 . S
C747 C742 1.418 . S
C747 C743 1.353 . S
C748 H718 0.930 . S
C748 N749 1.330 . S
C748 C750 1.446 . S
N749 Co708 2.151 . S
N749 C748 1.330 . S
N749 C753 1.418 . S
C750 H729 0.929 . S
C750 C748 1.446 . S
C750 C751 1.332 . S
C751 H731 0.931 . S
C751 C750 1.332 . S
C751 C752 1.267 . S
C752 H720 0.929 . S
C752 C751 1.267 . S
C752 C753 1.251 . S
C753 H723 0.929 . S
C753 N749 1.418 . S
C753 C752 1.251 . S
C754 H721 0.930 . S
C754 C756 1.406 . S
C754 C759 1.261 . S
C755 H722 0.930 . S
C755 N757 1.325 . S
C755 C758 1.357 . S
C756 H724 0.928 . S
C756 C754 1.406 . S
C756 N757 1.261 . S
N757 Co708 2.214 . S
N757 C755 1.325 . S
N757 C756 1.261 . S
C758 H728 0.931 . S
C758 C755 1.357 . S
C758 C759 1.312 . S
C759 H730 0.930 1_655 S
C759 C754 1.261 . S
C759 C758 1.312 . S
C760 O732 1.214 . S
C760 O740 1.234 . S
C761 H733 0.929 . S
C761 C764 1.391 . S
C761 C766 1.391 . S
C762 H734 0.929 . S
C762 C763 1.390 . S
C762 N765 1.391 . S
C763 H735 0.930 . S
C763 C762 1.390 . S
C763 C764 1.392 . S
C764 H736 0.929 . S
C764 C761 1.391 . S
C764 C763 1.392 . S
N765 Co709 2.257 . S
N765 C762 1.391 . S
N765 C766 1.388 . S
C766 H737 0.930 . S
C766 C761 1.391 . S
C766 N765 1.388 . S
Co767 O769 2.143 . S
Co767 O775 2.074 . S
Co767 O778 2.093 . S
Co767 O791 2.097 . S
Co767 N808 2.151 . S
Co767 N816 2.214 . S
Co768 O769 2.160 . S
Co768 O774 2.058 . S
Co768 O784 2.057 . S
Co768 O799 2.037 . S
Co768 N803 2.145 . S
Co768 N824 2.257 . S
O769 Co767 2.143 . S
O769 Co768 2.160 . S
C770 O771 1.278 . S
C770 O778 1.224 . S
O771 C770 1.278 . S
C772 O773 1.245 . S
C772 O784 1.232 . S
O773 C772 1.245 . S
O774 Co768 2.058 . S
O774 C800 1.269 . S
O775 Co767 2.074 . S
O775 C800 1.257 . S
H776 C801 0.930 . S
H777 C807 0.930 . S
O778 Co767 2.093 . S
O778 C770 1.224 . S
H779 C811 0.929 . S
H780 C813 0.930 . S
H781 C814 0.930 . S
H782 C812 0.929 . S
H783 C815 0.928 . S
O784 Co768 2.057 . S
O784 C772 1.232 . S
H785 C804 0.929 . S
H786 C805 0.929 . S
H787 C817 0.931 . S
H788 C809 0.929 . S
H789 C818 0.930 1_545 S
H790 C810 0.931 . S
O791 Co767 2.097 . S
O791 C819 1.214 . S
H792 C820 0.929 . S
H793 C821 0.929 . S
H794 C822 0.930 . S
H795 C823 0.929 . S
H796 C825 0.930 . S
H797 C802 0.930 . S
H798 C806 0.930 . S
O799 Co768 2.037 . S
O799 C819 1.234 . S
C800 O774 1.269 . S
C800 O775 1.257 . S
C801 H776 0.930 . S
C801 C804 1.388 . S
C801 C806 1.418 . S
C802 H797 0.930 . S
C802 C805 1.404 . S
C802 C806 1.353 . S
N803 Co768 2.145 . S
N803 C804 1.397 . S
N803 C805 1.334 . S
C804 H785 0.929 . S
C804 C801 1.388 . S
C804 N803 1.397 . S
C805 H786 0.929 . S
C805 C802 1.404 . S
C805 N803 1.334 . S
C806 H798 0.930 . S
C806 C801 1.418 . S
C806 C802 1.353 . S
C807 H777 0.930 . S
C807 N808 1.330 . S
C807 C809 1.446 . S
N808 Co767 2.151 . S
N808 C807 1.330 . S
N808 C812 1.418 . S
C809 H788 0.929 . S
C809 C807 1.446 . S
C809 C810 1.332 . S
C810 H790 0.931 . S
C810 C809 1.332 . S
C810 C811 1.267 . S
C811 H779 0.929 . S
C811 C810 1.267 . S
C811 C812 1.251 . S
C812 H782 0.929 . S
C812 N808 1.418 . S
C812 C811 1.251 . S
C813 H780 0.930 . S
C813 C815 1.406 . S
C813 C818 1.261 . S
C814 H781 0.930 . S
C814 N816 1.325 . S
C814 C817 1.357 . S
C815 H783 0.928 . S
C815 C813 1.406 . S
C815 N816 1.261 . S
N816 Co767 2.214 . S
N816 C814 1.325 . S
N816 C815 1.261 . S
C817 H787 0.931 . S
C817 C814 1.357 . S
C817 C818 1.312 . S
C818 H789 0.930 1_565 S
C818 C813 1.261 . S
C818 C817 1.312 . S
C819 O791 1.214 . S
C819 O799 1.234 . S
C820 H792 0.929 . S
C820 C823 1.391 . S
C820 C825 1.391 . S
C821 H793 0.929 . S
C821 C822 1.390 . S
C821 N824 1.391 . S
C822 H794 0.930 . S
C822 C821 1.390 . S
C822 C823 1.392 . S
C823 H795 0.929 . S
C823 C820 1.391 . S
C823 C822 1.392 . S
N824 Co768 2.257 . S
N824 C821 1.391 . S
N824 C825 1.388 . S
C825 H796 0.930 . S
C825 C820 1.391 . S
C825 N824 1.388 . S
Co826 O828 2.143 . S
Co826 O834 2.074 . S
Co826 O837 2.093 . S
Co826 O850 2.097 . S
Co826 N867 2.151 . S
Co826 N875 2.214 . S
Co827 O828 2.160 . S
Co827 O833 2.058 . S
Co827 O843 2.057 . S
Co827 O858 2.037 . S
Co827 N862 2.145 . S
Co827 N883 2.257 . S
O828 Co826 2.143 . S
O828 Co827 2.160 . S
C829 O830 1.278 . S
C829 O837 1.224 . S
O830 C829 1.278 . S
C831 O832 1.245 . S
C831 O843 1.232 . S
O832 C831 1.245 . S
O833 Co827 2.058 . S
O833 C859 1.269 . S
O834 Co826 2.074 . S
O834 C859 1.257 . S
H835 C860 0.930 . S
H836 C866 0.930 . S
O837 Co826 2.093 . S
O837 C829 1.224 . S
H838 C870 0.929 . S
H839 C872 0.930 . S
H840 C873 0.930 . S
H841 C871 0.929 . S
H842 C874 0.928 . S
O843 Co827 2.057 . S
O843 C831 1.232 . S
H844 C863 0.929 . S
H845 C864 0.929 . S
H846 C876 0.931 . S
H847 C868 0.929 . S
H848 C877 0.930 1_655 S
H849 C869 0.931 . S
O850 Co826 2.097 . S
O850 C878 1.214 . S
H851 C879 0.929 . S
H852 C880 0.929 . S
H853 C881 0.930 . S
H854 C882 0.929 . S
H855 C884 0.930 . S
H856 C861 0.930 . S
H857 C865 0.930 . S
O858 Co827 2.037 . S
O858 C878 1.234 . S
C859 O833 1.269 . S
C859 O834 1.257 . S
C860 H835 0.930 . S
C860 C863 1.388 . S
C860 C865 1.418 . S
C861 H856 0.930 . S
C861 C864 1.404 . S
C861 C865 1.353 . S
N862 Co827 2.145 . S
N862 C863 1.397 . S
N862 C864 1.334 . S
C863 H844 0.929 . S
C863 C860 1.388 . S
C863 N862 1.397 . S
C864 H845 0.929 . S
C864 C861 1.404 . S
C864 N862 1.334 . S
C865 H857 0.930 . S
C865 C860 1.418 . S
C865 C861 1.353 . S
C866 H836 0.930 . S
C866 N867 1.330 . S
C866 C868 1.446 . S
N867 Co826 2.151 . S
N867 C866 1.330 . S
N867 C871 1.418 . S
C868 H847 0.929 . S
C868 C866 1.446 . S
C868 C869 1.332 . S
C869 H849 0.931 . S
C869 C868 1.332 . S
C869 C870 1.267 . S
C870 H838 0.929 . S
C870 C869 1.267 . S
C870 C871 1.251 . S
C871 H841 0.929 . S
C871 N867 1.418 . S
C871 C870 1.251 . S
C872 H839 0.930 . S
C872 C874 1.406 . S
C872 C877 1.261 . S
C873 H840 0.930 . S
C873 N875 1.325 . S
C873 C876 1.357 . S
C874 H842 0.928 . S
C874 C872 1.406 . S
C874 N875 1.261 . S
N875 Co826 2.214 . S
N875 C873 1.325 . S
N875 C874 1.261 . S
C876 H846 0.931 . S
C876 C873 1.357 . S
C876 C877 1.312 . S
C877 H848 0.930 1_455 S
C877 C872 1.261 . S
C877 C876 1.312 . S
C878 O850 1.214 . S
C878 O858 1.234 . S
C879 H851 0.929 . S
C879 C882 1.391 . S
C879 C884 1.391 . S
C880 H852 0.929 . S
C880 C881 1.390 . S
C880 N883 1.391 . S
C881 H853 0.930 . S
C881 C880 1.390 . S
C881 C882 1.392 . S
C882 H854 0.929 . S
C882 C879 1.391 . S
C882 C881 1.392 . S
N883 Co827 2.257 . S
N883 C880 1.391 . S
N883 C884 1.388 . S
C884 H855 0.930 . S
C884 C879 1.391 . S
C884 N883 1.388 . S
Co885 O887 2.143 . S
Co885 O893 2.074 . S
Co885 O896 2.093 . S
Co885 O909 2.097 . S
Co885 N926 2.151 . S
Co885 N934 2.214 . S
Co886 O887 2.160 . S
Co886 O892 2.058 . S
Co886 O902 2.057 . S
Co886 O917 2.037 . S
Co886 N921 2.145 . S
Co886 N942 2.257 . S
O887 Co885 2.143 . S
O887 Co886 2.160 . S
C888 O889 1.278 . S
C888 O896 1.224 . S
O889 C888 1.278 . S
C890 O891 1.245 . S
C890 O902 1.232 . S
O891 C890 1.245 . S
O892 Co886 2.058 . S
O892 C918 1.269 . S
O893 Co885 2.074 . S
O893 C918 1.257 . S
H894 C919 0.930 . S
H895 C925 0.930 . S
O896 Co885 2.093 . S
O896 C888 1.224 . S
H897 C929 0.929 . S
H898 C931 0.930 . S
H899 C932 0.930 . S
H900 C930 0.929 . S
H901 C933 0.928 . S
O902 Co886 2.057 . S
O902 C890 1.232 . S
H903 C922 0.929 . S
H904 C923 0.929 . S
H905 C935 0.931 . S
H906 C927 0.929 . S
H907 C936 0.930 1_565 S
H908 C928 0.931 . S
O909 Co885 2.097 . S
O909 C937 1.214 . S
H910 C938 0.929 . S
H911 C939 0.929 . S
H912 C940 0.930 . S
H913 C941 0.929 . S
H914 C943 0.930 . S
H915 C920 0.930 . S
H916 C924 0.930 . S
O917 Co886 2.037 . S
O917 C937 1.234 . S
C918 O892 1.269 . S
C918 O893 1.257 . S
C919 H894 0.930 . S
C919 C922 1.388 . S
C919 C924 1.418 . S
C920 H915 0.930 . S
C920 C923 1.404 . S
C920 C924 1.353 . S
N921 Co886 2.145 . S
N921 C922 1.397 . S
N921 C923 1.334 . S
C922 H903 0.929 . S
C922 C919 1.388 . S
C922 N921 1.397 . S
C923 H904 0.929 . S
C923 C920 1.404 . S
C923 N921 1.334 . S
C924 H916 0.930 . S
C924 C919 1.418 . S
C924 C920 1.353 . S
C925 H895 0.930 . S
C925 N926 1.330 . S
C925 C927 1.446 . S
N926 Co885 2.151 . S
N926 C925 1.330 . S
N926 C930 1.418 . S
C927 H906 0.929 . S
C927 C925 1.446 . S
C927 C928 1.332 . S
C928 H908 0.931 . S
C928 C927 1.332 . S
C928 C929 1.267 . S
C929 H897 0.929 . S
C929 C928 1.267 . S
C929 C930 1.251 . S
C930 H900 0.929 . S
C930 N926 1.418 . S
C930 C929 1.251 . S
C931 H898 0.930 . S
C931 C933 1.406 . S
C931 C936 1.261 . S
C932 H899 0.930 . S
C932 N934 1.325 . S
C932 C935 1.357 . S
C933 H901 0.928 . S
C933 C931 1.406 . S
C933 N934 1.261 . S
N934 Co885 2.214 . S
N934 C932 1.325 . S
N934 C933 1.261 . S
C935 H905 0.931 . S
C935 C932 1.357 . S
C935 C936 1.312 . S
C936 H907 0.930 1_545 S
C936 C931 1.261 . S
C936 C935 1.312 . S
C937 O909 1.214 . S
C937 O917 1.234 . S
C938 H910 0.929 . S
C938 C941 1.391 . S
C938 C943 1.391 . S
C939 H911 0.929 . S
C939 C940 1.390 . S
C939 N942 1.391 . S
C940 H912 0.930 . S
C940 C939 1.390 . S
C940 C941 1.392 . S
C941 H913 0.929 . S
C941 C938 1.391 . S
C941 C940 1.392 . S
N942 Co886 2.257 . S
N942 C939 1.391 . S
N942 C943 1.388 . S
C943 H914 0.930 . S
C943 C938 1.391 . S
C943 N942 1.388 . S
H944 C956 0.930 . S
H945 C958 0.930 . S
H946 C959 0.930 . S
H947 C963 0.959 . S
H948 C963 0.959 . S
H949 C963 0.961 . S
H950 C964 0.960 . S
H951 C964 0.961 . S
H952 C964 0.959 . S
H953 C967 0.929 . S
H954 C968 0.931 . S
H955 C970 0.930 . S
C956 H944 0.930 . S
C956 C957 1.399 . S
C956 C961 1.399 . S
C957 C956 1.399 . S
C957 C958 1.376 . S
C958 H945 0.930 . S
C958 C957 1.376 . S
C958 C959 1.388 . S
C959 H946 0.930 . S
C959 C958 1.388 . S
C959 C960 1.390 . S
C960 C959 1.390 . S
C960 C961 1.394 . S
C960 C966 1.465 . S
C961 C956 1.399 . S
C961 C960 1.394 . S
C961 C962 1.516 . S
C962 C961 1.516 . S
C962 C963 1.502 . S
C962 C964 1.561 . S
C962 C965 1.526 . S
C963 H947 0.959 . S
C963 H948 0.959 . S
C963 H949 0.961 . S
C963 C962 1.502 . S
C964 H950 0.960 . S
C964 H951 0.961 . S
C964 H952 0.959 . S
C964 C962 1.561 . S
C965 C962 1.526 . S
C965 C966 1.396 . S
C965 C970 1.390 . S
C966 C960 1.465 . S
C966 C965 1.396 . S
C966 C967 1.399 . S
C967 H953 0.929 . S
C967 C966 1.399 . S
C967 C968 1.385 . S
C968 H954 0.931 . S
C968 C967 1.385 . S
C968 C969 1.389 . S
C969 C968 1.389 . S
C969 C970 1.387 . S
C970 H955 0.930 . S
C970 C965 1.390 . S
C970 C969 1.387 . S
H971 C983 0.930 . S
H972 C985 0.930 . S
H973 C986 0.930 . S
H974 C990 0.959 . S
H975 C990 0.959 . S
H976 C990 0.961 . S
H977 C991 0.960 . S
H978 C991 0.961 . S
H979 C991 0.959 . S
H980 C994 0.929 . S
H981 C995 0.931 . S
H982 C997 0.930 . S
C983 H971 0.930 . S
C983 C984 1.399 . S
C983 C988 1.399 . S
C984 C983 1.399 . S
C984 C985 1.376 . S
C985 H972 0.930 . S
C985 C984 1.376 . S
C985 C986 1.388 . S
C986 H973 0.930 . S
C986 C985 1.388 . S
C986 C987 1.390 . S
C987 C986 1.390 . S
C987 C988 1.394 . S
C987 C993 1.465 . S
C988 C983 1.399 . S
C988 C987 1.394 . S
C988 C989 1.516 . S
C989 C988 1.516 . S
C989 C990 1.502 . S
C989 C991 1.561 . S
C989 C992 1.526 . S
C990 H974 0.959 . S
C990 H975 0.959 . S
C990 H976 0.961 . S
C990 C989 1.502 . S
C991 H977 0.960 . S
C991 H978 0.961 . S
C991 H979 0.959 . S
C991 C989 1.561 . S
C992 C989 1.526 . S
C992 C993 1.396 . S
C992 C997 1.390 . S
C993 C987 1.465 . S
C993 C992 1.396 . S
C993 C994 1.399 . S
C994 H980 0.929 . S
C994 C993 1.399 . S
C994 C995 1.385 . S
C995 H981 0.931 . S
C995 C994 1.385 . S
C995 C996 1.389 . S
C996 C995 1.389 . S
C996 C997 1.387 . S
C997 H982 0.930 . S
C997 C992 1.390 . S
C997 C996 1.387 . S
H998 C1010 0.930 . S
H999 C1012 0.930 . S
H1000 C1013 0.930 . S
H1001 C1017 0.959 . S
H1002 C1017 0.959 . S
H1003 C1017 0.961 . S
H1004 C1018 0.960 . S
H1005 C1018 0.961 . S
H1006 C1018 0.959 . S
H1007 C1021 0.929 . S
H1008 C1022 0.931 . S
H1009 C1024 0.930 . S
C1010 H998 0.930 . S
C1010 C1011 1.399 . S
C1010 C1015 1.399 . S
C1011 C1010 1.399 . S
C1011 C1012 1.376 . S
C1012 H999 0.930 . S
C1012 C1011 1.376 . S
C1012 C1013 1.388 . S
C1013 H1000 0.930 . S
C1013 C1012 1.388 . S
C1013 C1014 1.390 . S
C1014 C1013 1.390 . S
C1014 C1015 1.394 . S
C1014 C1020 1.465 . S
C1015 C1010 1.399 . S
C1015 C1014 1.394 . S
C1015 C1016 1.516 . S
C1016 C1015 1.516 . S
C1016 C1017 1.502 . S
C1016 C1018 1.561 . S
C1016 C1019 1.526 . S
C1017 H1001 0.959 . S
C1017 H1002 0.959 . S
C1017 H1003 0.961 . S
C1017 C1016 1.502 . S
C1018 H1004 0.960 . S
C1018 H1005 0.961 . S
C1018 H1006 0.959 . S
C1018 C1016 1.561 . S
C1019 C1016 1.526 . S
C1019 C1020 1.396 . S
C1019 C1024 1.390 . S
C1020 C1014 1.465 . S
C1020 C1019 1.396 . S
C1020 C1021 1.399 . S
C1021 H1007 0.929 . S
C1021 C1020 1.399 . S
C1021 C1022 1.385 . S
C1022 H1008 0.931 . S
C1022 C1021 1.385 . S
C1022 C1023 1.389 . S
C1023 C1022 1.389 . S
C1023 C1024 1.387 . S
C1024 H1009 0.930 . S
C1024 C1019 1.390 . S
C1024 C1023 1.387 . S
H1025 C1037 0.930 . S
H1026 C1039 0.930 . S
H1027 C1040 0.930 . S
H1028 C1044 0.959 . S
H1029 C1044 0.959 . S
H1030 C1044 0.961 . S
H1031 C1045 0.960 . S
H1032 C1045 0.961 . S
H1033 C1045 0.959 . S
H1034 C1048 0.929 . S
H1035 C1049 0.931 . S
H1036 C1051 0.930 . S
C1037 H1025 0.930 . S
C1037 C1038 1.399 . S
C1037 C1042 1.399 . S
C1038 C1037 1.399 . S
C1038 C1039 1.376 . S
C1039 H1026 0.930 . S
C1039 C1038 1.376 . S
C1039 C1040 1.388 . S
C1040 H1027 0.930 . S
C1040 C1039 1.388 . S
C1040 C1041 1.390 . S
C1041 C1040 1.390 . S
C1041 C1042 1.394 . S
C1041 C1047 1.465 . S
C1042 C1037 1.399 . S
C1042 C1041 1.394 . S
C1042 C1043 1.516 . S
C1043 C1042 1.516 . S
C1043 C1044 1.502 . S
C1043 C1045 1.561 . S
C1043 C1046 1.526 . S
C1044 H1028 0.959 . S
C1044 H1029 0.959 . S
C1044 H1030 0.961 . S
C1044 C1043 1.502 . S
C1045 H1031 0.960 . S
C1045 H1032 0.961 . S
C1045 H1033 0.959 . S
C1045 C1043 1.561 . S
C1046 C1043 1.526 . S
C1046 C1047 1.396 . S
C1046 C1051 1.390 . S
C1047 C1041 1.465 . S
C1047 C1046 1.396 . S
C1047 C1048 1.399 . S
C1048 H1034 0.929 . S
C1048 C1047 1.399 . S
C1048 C1049 1.385 . S
C1049 H1035 0.931 . S
C1049 C1048 1.385 . S
C1049 C1050 1.389 . S
C1050 C1049 1.389 . S
C1050 C1051 1.387 . S
C1051 H1036 0.930 . S
C1051 C1046 1.390 . S
C1051 C1050 1.387 . S
H1052 C1064 0.930 . S
H1053 C1066 0.930 . S
H1054 C1067 0.930 . S
H1055 C1071 0.959 . S
H1056 C1071 0.959 . S
H1057 C1071 0.961 . S
H1058 C1072 0.960 . S
H1059 C1072 0.961 . S
H1060 C1072 0.959 . S
H1061 C1075 0.929 . S
H1062 C1076 0.931 . S
H1063 C1078 0.930 . S
C1064 H1052 0.930 . S
C1064 C1065 1.399 . S
C1064 C1069 1.399 . S
C1065 C1064 1.399 . S
C1065 C1066 1.376 . S
C1066 H1053 0.930 . S
C1066 C1065 1.376 . S
C1066 C1067 1.388 . S
C1067 H1054 0.930 . S
C1067 C1066 1.388 . S
C1067 C1068 1.390 . S
C1068 C1067 1.390 . S
C1068 C1069 1.394 . S
C1068 C1074 1.465 . S
C1069 C1064 1.399 . S
C1069 C1068 1.394 . S
C1069 C1070 1.516 . S
C1070 C1069 1.516 . S
C1070 C1071 1.502 . S
C1070 C1072 1.561 . S
C1070 C1073 1.526 . S
C1071 H1055 0.959 . S
C1071 H1056 0.959 . S
C1071 H1057 0.961 . S
C1071 C1070 1.502 . S
C1072 H1058 0.960 . S
C1072 H1059 0.961 . S
C1072 H1060 0.959 . S
C1072 C1070 1.561 . S
C1073 C1070 1.526 . S
C1073 C1074 1.396 . S
C1073 C1078 1.390 . S
C1074 C1068 1.465 . S
C1074 C1073 1.396 . S
C1074 C1075 1.399 . S
C1075 H1061 0.929 . S
C1075 C1074 1.399 . S
C1075 C1076 1.385 . S
C1076 H1062 0.931 . S
C1076 C1075 1.385 . S
C1076 C1077 1.389 . S
C1077 C1076 1.389 . S
C1077 C1078 1.387 . S
C1078 H1063 0.930 . S
C1078 C1073 1.390 . S
C1078 C1077 1.387 . S
H1079 C1091 0.930 . S
H1080 C1093 0.930 . S
H1081 C1094 0.930 . S
H1082 C1098 0.959 . S
H1083 C1098 0.959 . S
H1084 C1098 0.961 . S
H1085 C1099 0.960 . S
H1086 C1099 0.961 . S
H1087 C1099 0.959 . S
H1088 C1102 0.929 . S
H1089 C1103 0.931 . S
H1090 C1105 0.930 . S
C1091 H1079 0.930 . S
C1091 C1092 1.399 . S
C1091 C1096 1.399 . S
C1092 C1091 1.399 . S
C1092 C1093 1.376 . S
C1093 H1080 0.930 . S
C1093 C1092 1.376 . S
C1093 C1094 1.388 . S
C1094 H1081 0.930 . S
C1094 C1093 1.388 . S
C1094 C1095 1.390 . S
C1095 C1094 1.390 . S
C1095 C1096 1.394 . S
C1095 C1101 1.465 . S
C1096 C1091 1.399 . S
C1096 C1095 1.394 . S
C1096 C1097 1.516 . S
C1097 C1096 1.516 . S
C1097 C1098 1.502 . S
C1097 C1099 1.561 . S
C1097 C1100 1.526 . S
C1098 H1082 0.959 . S
C1098 H1083 0.959 . S
C1098 H1084 0.961 . S
C1098 C1097 1.502 . S
C1099 H1085 0.960 . S
C1099 H1086 0.961 . S
C1099 H1087 0.959 . S
C1099 C1097 1.561 . S
C1100 C1097 1.526 . S
C1100 C1101 1.396 . S
C1100 C1105 1.390 . S
C1101 C1095 1.465 . S
C1101 C1100 1.396 . S
C1101 C1102 1.399 . S
C1102 H1088 0.929 . S
C1102 C1101 1.399 . S
C1102 C1103 1.385 . S
C1103 H1089 0.931 . S
C1103 C1102 1.385 . S
C1103 C1104 1.389 . S
C1104 C1103 1.389 . S
C1104 C1105 1.387 . S
C1105 H1090 0.930 . S
C1105 C1100 1.390 . S
C1105 C1104 1.387 . S
H1106 C1118 0.930 . S
H1107 C1120 0.930 . S
H1108 C1121 0.930 . S
H1109 C1125 0.959 . S
H1110 C1125 0.959 . S
H1111 C1125 0.961 . S
H1112 C1126 0.960 . S
H1113 C1126 0.961 . S
H1114 C1126 0.959 . S
H1115 C1129 0.929 . S
H1116 C1130 0.931 . S
H1117 C1132 0.930 . S
C1118 H1106 0.930 . S
C1118 C1119 1.399 . S
C1118 C1123 1.399 . S
C1119 C1118 1.399 . S
C1119 C1120 1.376 . S
C1120 H1107 0.930 . S
C1120 C1119 1.376 . S
C1120 C1121 1.388 . S
C1121 H1108 0.930 . S
C1121 C1120 1.388 . S
C1121 C1122 1.390 . S
C1122 C1121 1.390 . S
C1122 C1123 1.394 . S
C1122 C1128 1.465 . S
C1123 C1118 1.399 . S
C1123 C1122 1.394 . S
C1123 C1124 1.516 . S
C1124 C1123 1.516 . S
C1124 C1125 1.502 . S
C1124 C1126 1.561 . S
C1124 C1127 1.526 . S
C1125 H1109 0.959 . S
C1125 H1110 0.959 . S
C1125 H1111 0.961 . S
C1125 C1124 1.502 . S
C1126 H1112 0.960 . S
C1126 H1113 0.961 . S
C1126 H1114 0.959 . S
C1126 C1124 1.561 . S
C1127 C1124 1.526 . S
C1127 C1128 1.396 . S
C1127 C1132 1.390 . S
C1128 C1122 1.465 . S
C1128 C1127 1.396 . S
C1128 C1129 1.399 . S
C1129 H1115 0.929 . S
C1129 C1128 1.399 . S
C1129 C1130 1.385 . S
C1130 H1116 0.931 . S
C1130 C1129 1.385 . S
C1130 C1131 1.389 . S
C1131 C1130 1.389 . S
C1131 C1132 1.387 . S
C1132 H1117 0.930 . S
C1132 C1127 1.390 . S
C1132 C1131 1.387 . S
H1133 C1145 0.930 . S
H1134 C1147 0.930 . S
H1135 C1148 0.930 . S
H1136 C1152 0.959 . S
H1137 C1152 0.959 . S
H1138 C1152 0.961 . S
H1139 C1153 0.960 . S
H1140 C1153 0.961 . S
H1141 C1153 0.959 . S
H1142 C1156 0.929 . S
H1143 C1157 0.931 . S
H1144 C1159 0.930 . S
C1145 H1133 0.930 . S
C1145 C1146 1.399 . S
C1145 C1150 1.399 . S
C1146 C1145 1.399 . S
C1146 C1147 1.376 . S
C1147 H1134 0.930 . S
C1147 C1146 1.376 . S
C1147 C1148 1.388 . S
C1148 H1135 0.930 . S
C1148 C1147 1.388 . S
C1148 C1149 1.390 . S
C1149 C1148 1.390 . S
C1149 C1150 1.394 . S
C1149 C1155 1.465 . S
C1150 C1145 1.399 . S
C1150 C1149 1.394 . S
C1150 C1151 1.516 . S
C1151 C1150 1.516 . S
C1151 C1152 1.502 . S
C1151 C1153 1.561 . S
C1151 C1154 1.526 . S
C1152 H1136 0.959 . S
C1152 H1137 0.959 . S
C1152 H1138 0.961 . S
C1152 C1151 1.502 . S
C1153 H1139 0.960 . S
C1153 H1140 0.961 . S
C1153 H1141 0.959 . S
C1153 C1151 1.561 . S
C1154 C1151 1.526 . S
C1154 C1155 1.396 . S
C1154 C1159 1.390 . S
C1155 C1149 1.465 . S
C1155 C1154 1.396 . S
C1155 C1156 1.399 . S
C1156 H1142 0.929 . S
C1156 C1155 1.399 . S
C1156 C1157 1.385 . S
C1157 H1143 0.931 . S
C1157 C1156 1.385 . S
C1157 C1158 1.389 . S
C1158 C1157 1.389 . S
C1158 C1159 1.387 . S
C1159 H1144 0.930 . S
C1159 C1154 1.390 . S
C1159 C1158 1.387 . S
H1160 C1172 0.930 . S
H1161 C1174 0.930 . S
H1162 C1175 0.930 . S
H1163 C1179 0.959 . S
H1164 C1179 0.959 . S
H1165 C1179 0.961 1_556 S
H1166 C1180 0.960 1_556 S
H1167 C1180 0.961 . S
H1168 C1180 0.959 . S
H1169 C1183 0.929 . S
H1170 C1184 0.931 . S
H1171 C1186 0.930 . S
C1172 H1160 0.930 . S
C1172 C1173 1.399 . S
C1172 C1177 1.399 . S
C1173 C1172 1.399 . S
C1173 C1174 1.376 . S
C1174 H1161 0.930 . S
C1174 C1173 1.376 . S
C1174 C1175 1.388 . S
C1175 H1162 0.930 . S
C1175 C1174 1.388 . S
C1175 C1176 1.390 . S
C1176 C1175 1.390 . S
C1176 C1177 1.394 . S
C1176 C1182 1.465 1_556 S
C1177 C1172 1.399 . S
C1177 C1176 1.394 . S
C1177 C1178 1.516 1_556 S
C1178 C1177 1.516 1_554 S
C1178 C1179 1.502 . S
C1178 C1180 1.561 . S
C1178 C1181 1.526 . S
C1179 H1163 0.959 . S
C1179 H1164 0.959 . S
C1179 H1165 0.961 1_554 S
C1179 C1178 1.502 . S
C1180 H1166 0.960 1_554 S
C1180 H1167 0.961 . S
C1180 H1168 0.959 . S
C1180 C1178 1.561 . S
C1181 C1178 1.526 . S
C1181 C1182 1.396 . S
C1181 C1186 1.390 . S
C1182 C1176 1.465 1_554 S
C1182 C1181 1.396 . S
C1182 C1183 1.399 . S
C1183 H1169 0.929 . S
C1183 C1182 1.399 . S
C1183 C1184 1.385 . S
C1184 H1170 0.931 . S
C1184 C1183 1.385 . S
C1184 C1185 1.389 . S
C1185 C1184 1.389 . S
C1185 C1186 1.387 . S
C1186 H1171 0.930 . S
C1186 C1181 1.390 . S
C1186 C1185 1.387 . S
H1187 C1199 0.930 . S
H1188 C1201 0.930 . S
H1189 C1202 0.930 . S
H1190 C1206 0.959 . S
H1191 C1206 0.959 . S
H1192 C1206 0.961 1_556 S
H1193 C1207 0.960 1_556 S
H1194 C1207 0.961 . S
H1195 C1207 0.959 . S
H1196 C1210 0.929 . S
H1197 C1211 0.931 . S
H1198 C1213 0.930 . S
C1199 H1187 0.930 . S
C1199 C1200 1.399 . S
C1199 C1204 1.399 . S
C1200 C1199 1.399 . S
C1200 C1201 1.376 . S
C1201 H1188 0.930 . S
C1201 C1200 1.376 . S
C1201 C1202 1.388 . S
C1202 H1189 0.930 . S
C1202 C1201 1.388 . S
C1202 C1203 1.390 . S
C1203 C1202 1.390 . S
C1203 C1204 1.394 . S
C1203 C1209 1.465 1_556 S
C1204 C1199 1.399 . S
C1204 C1203 1.394 . S
C1204 C1205 1.516 1_556 S
C1205 C1204 1.516 1_554 S
C1205 C1206 1.502 . S
C1205 C1207 1.561 . S
C1205 C1208 1.526 . S
C1206 H1190 0.959 . S
C1206 H1191 0.959 . S
C1206 H1192 0.961 1_554 S
C1206 C1205 1.502 . S
C1207 H1193 0.960 1_554 S
C1207 H1194 0.961 . S
C1207 H1195 0.959 . S
C1207 C1205 1.561 . S
C1208 C1205 1.526 . S
C1208 C1209 1.396 . S
C1208 C1213 1.390 . S
C1209 C1203 1.465 1_554 S
C1209 C1208 1.396 . S
C1209 C1210 1.399 . S
C1210 H1196 0.929 . S
C1210 C1209 1.399 . S
C1210 C1211 1.385 . S
C1211 H1197 0.931 . S
C1211 C1210 1.385 . S
C1211 C1212 1.389 . S
C1212 C1211 1.389 . S
C1212 C1213 1.387 . S
C1213 H1198 0.930 . S
C1213 C1208 1.390 . S
C1213 C1212 1.387 . S
H1214 C1226 0.930 . S
H1215 C1228 0.930 . S
H1216 C1229 0.930 . S
H1217 C1233 0.963 . S
H1218 C1233 0.959 1_554 S
H1219 C1233 0.961 . S
H1220 C1234 0.960 . S
H1221 C1234 0.961 1_554 S
H1222 C1234 0.959 1_554 S
H1223 C1237 0.929 . S
H1224 C1238 0.931 . S
H1225 C1240 0.930 . S
C1226 H1214 0.930 . S
C1226 C1227 1.399 . S
C1226 C1231 1.399 . S
C1227 C1226 1.399 . S
C1227 C1228 1.376 . S
C1228 H1215 0.930 . S
C1228 C1227 1.376 . S
C1228 C1229 1.388 . S
C1229 H1216 0.930 . S
C1229 C1228 1.388 . S
C1229 C1230 1.390 . S
C1230 C1229 1.390 . S
C1230 C1231 1.394 . S
C1230 C1236 1.465 1_556 S
C1231 C1226 1.399 . S
C1231 C1230 1.394 . S
C1231 C1232 1.516 . S
C1232 C1231 1.516 . S
C1232 C1233 1.502 . S
C1232 C1234 1.561 . S
C1232 C1235 1.526 1_556 S
C1233 H1217 0.963 . S
C1233 H1218 0.959 1_556 S
C1233 H1219 0.961 . S
C1233 C1232 1.502 . S
C1234 H1220 0.960 . S
C1234 H1221 0.961 1_556 S
C1234 H1222 0.959 1_556 S
C1234 C1232 1.561 . S
C1235 C1232 1.526 1_554 S
C1235 C1236 1.396 . S
C1235 C1240 1.390 . S
C1236 C1230 1.465 1_554 S
C1236 C1235 1.396 . S
C1236 C1237 1.399 . S
C1237 H1223 0.929 . S
C1237 C1236 1.399 . S
C1237 C1238 1.385 . S
C1238 H1224 0.931 . S
C1238 C1237 1.385 . S
C1238 C1239 1.389 . S
C1239 C1238 1.389 . S
C1239 C1240 1.387 . S
C1240 H1225 0.930 . S
C1240 C1235 1.390 . S
C1240 C1239 1.387 . S
H1241 C1253 0.930 . S
H1242 C1255 0.930 . S
H1243 C1256 0.930 . S
H1244 C1260 0.962 . S
H1245 C1260 0.959 1_556 S
H1246 C1260 0.961 . S
H1247 C1261 0.960 . S
H1248 C1261 0.961 1_556 S
H1249 C1261 0.959 1_556 S
H1250 C1264 0.929 . S
H1251 C1265 0.931 . S
H1252 C1267 0.930 . S
C1253 H1241 0.930 . S
C1253 C1254 1.399 . S
C1253 C1258 1.399 . S
C1254 C1253 1.399 . S
C1254 C1255 1.376 . S
C1255 H1242 0.930 . S
C1255 C1254 1.376 . S
C1255 C1256 1.388 . S
C1256 H1243 0.930 . S
C1256 C1255 1.388 . S
C1256 C1257 1.390 . S
C1257 C1256 1.390 . S
C1257 C1258 1.394 . S
C1257 C1263 1.465 1_554 S
C1258 C1253 1.399 . S
C1258 C1257 1.394 . S
C1258 C1259 1.516 . S
C1259 C1258 1.516 . S
C1259 C1260 1.502 . S
C1259 C1261 1.561 . S
C1259 C1262 1.526 1_554 S
C1260 H1244 0.962 . S
C1260 H1245 0.959 1_554 S
C1260 H1246 0.961 . S
C1260 C1259 1.502 . S
C1261 H1247 0.960 . S
C1261 H1248 0.961 1_554 S
C1261 H1249 0.959 1_554 S
C1261 C1259 1.561 . S
C1262 C1259 1.526 1_556 S
C1262 C1263 1.396 . S
C1262 C1267 1.390 . S
C1263 C1257 1.465 1_556 S
C1263 C1262 1.396 . S
C1263 C1264 1.399 . S
C1264 H1250 0.929 . S
C1264 C1263 1.399 . S
C1264 C1265 1.385 . S
C1265 H1251 0.931 . S
C1265 C1264 1.385 . S
C1265 C1266 1.389 . S
C1266 C1265 1.389 . S
C1266 C1267 1.387 . S
C1267 H1252 0.930 . S
C1267 C1262 1.390 . S
C1267 C1266 1.387 . S
H1268 C1280 0.930 . S
H1269 C1282 0.930 . S
H1270 C1283 0.930 . S
H1271 C1287 0.959 . S
H1272 C1287 0.959 . S
H1273 C1287 0.961 . S
H1274 C1288 0.960 . S
H1275 C1288 0.961 . S
H1276 C1288 0.959 . S
H1277 C1291 0.929 . S
H1278 C1292 0.931 . S
H1279 C1294 0.930 . S
C1280 H1268 0.930 . S
C1280 C1281 1.399 . S
C1280 C1285 1.399 . S
C1281 C1280 1.399 . S
C1281 C1282 1.376 . S
C1282 H1269 0.930 . S
C1282 C1281 1.376 . S
C1282 C1283 1.388 . S
C1283 H1270 0.930 . S
C1283 C1282 1.388 . S
C1283 C1284 1.390 . S
C1284 C1283 1.390 . S
C1284 C1285 1.394 . S
C1284 C1290 1.465 . S
C1285 C1280 1.399 . S
C1285 C1284 1.394 . S
C1285 C1286 1.516 . S
C1286 C1285 1.516 . S
C1286 C1287 1.502 . S
C1286 C1288 1.561 . S
C1286 C1289 1.526 . S
C1287 H1271 0.959 . S
C1287 H1272 0.959 . S
C1287 H1273 0.961 . S
C1287 C1286 1.502 . S
C1288 H1274 0.960 . S
C1288 H1275 0.961 . S
C1288 H1276 0.959 . S
C1288 C1286 1.561 . S
C1289 C1286 1.526 . S
C1289 C1290 1.396 . S
C1289 C1294 1.390 . S
C1290 C1284 1.465 . S
C1290 C1289 1.396 . S
C1290 C1291 1.399 . S
C1291 H1277 0.929 . S
C1291 C1290 1.399 . S
C1291 C1292 1.385 . S
C1292 H1278 0.931 . S
C1292 C1291 1.385 . S
C1292 C1293 1.389 . S
C1293 C1292 1.389 . S
C1293 C1294 1.387 . S
C1294 H1279 0.930 . S
C1294 C1289 1.390 . S
C1294 C1293 1.387 . S
H1295 C1307 0.930 . S
H1296 C1309 0.930 . S
H1297 C1310 0.930 . S
H1298 C1314 0.959 . S
H1299 C1314 0.959 . S
H1300 C1314 0.961 . S
H1301 C1315 0.960 . S
H1302 C1315 0.961 . S
H1303 C1315 0.959 . S
H1304 C1318 0.929 . S
H1305 C1319 0.931 . S
H1306 C1321 0.930 . S
C1307 H1295 0.930 . S
C1307 C1308 1.399 . S
C1307 C1312 1.399 . S
C1308 C1307 1.399 . S
C1308 C1309 1.376 . S
C1309 H1296 0.930 . S
C1309 C1308 1.376 . S
C1309 C1310 1.388 . S
C1310 H1297 0.930 . S
C1310 C1309 1.388 . S
C1310 C1311 1.390 . S
C1311 C1310 1.390 . S
C1311 C1312 1.394 . S
C1311 C1317 1.465 . S
C1312 C1307 1.399 . S
C1312 C1311 1.394 . S
C1312 C1313 1.516 . S
C1313 C1312 1.516 . S
C1313 C1314 1.502 . S
C1313 C1315 1.561 . S
C1313 C1316 1.526 . S
C1314 H1298 0.959 . S
C1314 H1299 0.959 . S
C1314 H1300 0.961 . S
C1314 C1313 1.502 . S
C1315 H1301 0.960 . S
C1315 H1302 0.961 . S
C1315 H1303 0.959 . S
C1315 C1313 1.561 . S
C1316 C1313 1.526 . S
C1316 C1317 1.396 . S
C1316 C1321 1.390 . S
C1317 C1311 1.465 . S
C1317 C1316 1.396 . S
C1317 C1318 1.399 . S
C1318 H1304 0.929 . S
C1318 C1317 1.399 . S
C1318 C1319 1.385 . S
C1319 H1305 0.931 . S
C1319 C1318 1.385 . S
C1319 C1320 1.389 . S
C1320 C1319 1.389 . S
C1320 C1321 1.387 . S
C1321 H1306 0.930 . S
C1321 C1316 1.390 . S
C1321 C1320 1.387 . S
H1322 C1334 0.930 . S
H1323 C1336 0.930 . S
H1324 C1337 0.930 . S
H1325 C1341 0.959 . S
H1326 C1341 0.959 . S
H1327 C1341 0.961 . S
H1328 C1342 0.960 . S
H1329 C1342 0.961 . S
H1330 C1342 0.959 . S
H1331 C1345 0.929 . S
H1332 C1346 0.931 . S
H1333 C1348 0.930 . S
C1334 H1322 0.930 . S
C1334 C1335 1.399 . S
C1334 C1339 1.399 . S
C1335 C1334 1.399 . S
C1335 C1336 1.376 . S
C1336 H1323 0.930 . S
C1336 C1335 1.376 . S
C1336 C1337 1.388 . S
C1337 H1324 0.930 . S
C1337 C1336 1.388 . S
C1337 C1338 1.390 . S
C1338 C1337 1.390 . S
C1338 C1339 1.394 . S
C1338 C1344 1.465 . S
C1339 C1334 1.399 . S
C1339 C1338 1.394 . S
C1339 C1340 1.516 . S
C1340 C1339 1.516 . S
C1340 C1341 1.502 . S
C1340 C1342 1.561 . S
C1340 C1343 1.526 . S
C1341 H1325 0.959 . S
C1341 H1326 0.959 . S
C1341 H1327 0.961 . S
C1341 C1340 1.502 . S
C1342 H1328 0.960 . S
C1342 H1329 0.961 . S
C1342 H1330 0.959 . S
C1342 C1340 1.561 . S
C1343 C1340 1.526 . S
C1343 C1344 1.396 . S
C1343 C1348 1.390 . S
C1344 C1338 1.465 . S
C1344 C1343 1.396 . S
C1344 C1345 1.399 . S
C1345 H1331 0.929 . S
C1345 C1344 1.399 . S
C1345 C1346 1.385 . S
C1346 H1332 0.931 . S
C1346 C1345 1.385 . S
C1346 C1347 1.389 . S
C1347 C1346 1.389 . S
C1347 C1348 1.387 . S
C1348 H1333 0.930 . S
C1348 C1343 1.390 . S
C1348 C1347 1.387 . S
H1349 C1361 0.930 . S
H1350 C1363 0.930 . S
H1351 C1364 0.930 . S
H1352 C1368 0.959 . S
H1353 C1368 0.959 . S
H1354 C1368 0.961 . S
H1355 C1369 0.960 . S
H1356 C1369 0.961 . S
H1357 C1369 0.959 . S
H1358 C1372 0.929 . S
H1359 C1373 0.931 . S
H1360 C1375 0.930 . S
C1361 H1349 0.930 . S
C1361 C1362 1.399 . S
C1361 C1366 1.399 . S
C1362 C1361 1.399 . S
C1362 C1363 1.376 . S
C1363 H1350 0.930 . S
C1363 C1362 1.376 . S
C1363 C1364 1.388 . S
C1364 H1351 0.930 . S
C1364 C1363 1.388 . S
C1364 C1365 1.390 . S
C1365 C1364 1.390 . S
C1365 C1366 1.394 . S
C1365 C1371 1.465 . S
C1366 C1361 1.399 . S
C1366 C1365 1.394 . S
C1366 C1367 1.516 . S
C1367 C1366 1.516 . S
C1367 C1368 1.502 . S
C1367 C1369 1.561 . S
C1367 C1370 1.526 . S
C1368 H1352 0.959 . S
C1368 H1353 0.959 . S
C1368 H1354 0.961 . S
C1368 C1367 1.502 . S
C1369 H1355 0.960 . S
C1369 H1356 0.961 . S
C1369 H1357 0.959 . S
C1369 C1367 1.561 . S
C1370 C1367 1.526 . S
C1370 C1371 1.396 . S
C1370 C1375 1.390 . S
C1371 C1365 1.465 . S
C1371 C1370 1.396 . S
C1371 C1372 1.399 . S
C1372 H1358 0.929 . S
C1372 C1371 1.399 . S
C1372 C1373 1.385 . S
C1373 H1359 0.931 . S
C1373 C1372 1.385 . S
C1373 C1374 1.389 . S
C1374 C1373 1.389 . S
C1374 C1375 1.387 . S
C1375 H1360 0.930 . S
C1375 C1370 1.390 . S
C1375 C1374 1.387 . S
H1376 C1388 0.930 . S
H1377 C1390 0.930 . S
H1378 C1391 0.930 . S
H1379 C1395 0.959 . S
H1380 C1395 0.959 . S
H1381 C1395 0.961 . S
H1382 C1396 0.960 . S
H1383 C1396 0.961 . S
H1384 C1396 0.959 . S
H1385 C1399 0.929 . S
H1386 C1400 0.931 . S
H1387 C1402 0.930 . S
C1388 H1376 0.930 . S
C1388 C1389 1.399 . S
C1388 C1393 1.399 . S
C1389 C1388 1.399 . S
C1389 C1390 1.376 . S
C1390 H1377 0.930 . S
C1390 C1389 1.376 . S
C1390 C1391 1.388 . S
C1391 H1378 0.930 . S
C1391 C1390 1.388 . S
C1391 C1392 1.390 . S
C1392 C1391 1.390 . S
C1392 C1393 1.394 . S
C1392 C1398 1.465 . S
C1393 C1388 1.399 . S
C1393 C1392 1.394 . S
C1393 C1394 1.516 . S
C1394 C1393 1.516 . S
C1394 C1395 1.502 . S
C1394 C1396 1.561 . S
C1394 C1397 1.526 . S
C1395 H1379 0.959 . S
C1395 H1380 0.959 . S
C1395 H1381 0.961 . S
C1395 C1394 1.502 . S
C1396 H1382 0.960 . S
C1396 H1383 0.961 . S
C1396 H1384 0.959 . S
C1396 C1394 1.561 . S
C1397 C1394 1.526 . S
C1397 C1398 1.396 . S
C1397 C1402 1.390 . S
C1398 C1392 1.465 . S
C1398 C1397 1.396 . S
C1398 C1399 1.399 . S
C1399 H1385 0.929 . S
C1399 C1398 1.399 . S
C1399 C1400 1.385 . S
C1400 H1386 0.931 . S
C1400 C1399 1.385 . S
C1400 C1401 1.389 . S
C1401 C1400 1.389 . S
C1401 C1402 1.387 . S
C1402 H1387 0.930 . S
C1402 C1397 1.390 . S
C1402 C1401 1.387 . S
H1403 C1415 0.930 . S
H1404 C1417 0.930 . S
H1405 C1418 0.930 . S
H1406 C1422 0.959 . S
H1407 C1422 0.959 . S
H1408 C1422 0.961 . S
H1409 C1423 0.960 . S
H1410 C1423 0.961 . S
H1411 C1423 0.959 . S
H1412 C1426 0.929 . S
H1413 C1427 0.931 . S
H1414 C1429 0.930 . S
C1415 H1403 0.930 . S
C1415 C1416 1.399 . S
C1415 C1420 1.399 . S
C1416 C1415 1.399 . S
C1416 C1417 1.376 . S
C1417 H1404 0.930 . S
C1417 C1416 1.376 . S
C1417 C1418 1.388 . S
C1418 H1405 0.930 . S
C1418 C1417 1.388 . S
C1418 C1419 1.390 . S
C1419 C1418 1.390 . S
C1419 C1420 1.394 . S
C1419 C1425 1.465 . S
C1420 C1415 1.399 . S
C1420 C1419 1.394 . S
C1420 C1421 1.516 . S
C1421 C1420 1.516 . S
C1421 C1422 1.502 . S
C1421 C1423 1.561 . S
C1421 C1424 1.526 . S
C1422 H1406 0.959 . S
C1422 H1407 0.959 . S
C1422 H1408 0.961 . S
C1422 C1421 1.502 . S
C1423 H1409 0.960 . S
C1423 H1410 0.961 . S
C1423 H1411 0.959 . S
C1423 C1421 1.561 . S
C1424 C1421 1.526 . S
C1424 C1425 1.396 . S
C1424 C1429 1.390 . S
C1425 C1419 1.465 . S
C1425 C1424 1.396 . S
C1425 C1426 1.399 . S
C1426 H1412 0.929 . S
C1426 C1425 1.399 . S
C1426 C1427 1.385 . S
C1427 H1413 0.931 . S
C1427 C1426 1.385 . S
C1427 C1428 1.389 . S
C1428 C1427 1.389 . S
C1428 C1429 1.387 . S
C1429 H1414 0.930 . S
C1429 C1424 1.390 . S
C1429 C1428 1.387 . S
H1430 C1442 0.930 . S
H1431 C1444 0.930 . S
H1432 C1445 0.930 . S
H1433 C1449 0.959 . S
H1434 C1449 0.959 . S
H1435 C1449 0.961 . S
H1436 C1450 0.960 . S
H1437 C1450 0.961 . S
H1438 C1450 0.959 . S
H1439 C1453 0.929 . S
H1440 C1454 0.931 . S
H1441 C1456 0.930 . S
C1442 H1430 0.930 . S
C1442 C1443 1.399 . S
C1442 C1447 1.399 . S
C1443 C1442 1.399 . S
C1443 C1444 1.376 . S
C1444 H1431 0.930 . S
C1444 C1443 1.376 . S
C1444 C1445 1.388 . S
C1445 H1432 0.930 . S
C1445 C1444 1.388 . S
C1445 C1446 1.390 . S
C1446 C1445 1.390 . S
C1446 C1447 1.394 . S
C1446 C1452 1.465 . S
C1447 C1442 1.399 . S
C1447 C1446 1.394 . S
C1447 C1448 1.516 . S
C1448 C1447 1.516 . S
C1448 C1449 1.502 . S
C1448 C1450 1.561 . S
C1448 C1451 1.526 . S
C1449 H1433 0.959 . S
C1449 H1434 0.959 . S
C1449 H1435 0.961 . S
C1449 C1448 1.502 . S
C1450 H1436 0.960 . S
C1450 H1437 0.961 . S
C1450 H1438 0.959 . S
C1450 C1448 1.561 . S
C1451 C1448 1.526 . S
C1451 C1452 1.396 . S
C1451 C1456 1.390 . S
C1452 C1446 1.465 . S
C1452 C1451 1.396 . S
C1452 C1453 1.399 . S
C1453 H1439 0.929 . S
C1453 C1452 1.399 . S
C1453 C1454 1.385 . S
C1454 H1440 0.931 . S
C1454 C1453 1.385 . S
C1454 C1455 1.389 . S
C1455 C1454 1.389 . S
C1455 C1456 1.387 . S
C1456 H1441 0.930 . S
C1456 C1451 1.390 . S
C1456 C1455 1.387 . S
H1457 C1469 0.930 . S
H1458 C1471 0.930 . S
H1459 C1472 0.930 . S
H1460 C1476 0.959 . S
H1461 C1476 0.959 . S
H1462 C1476 0.961 . S
H1463 C1477 0.960 . S
H1464 C1477 0.961 . S
H1465 C1477 0.959 . S
H1466 C1480 0.929 . S
H1467 C1481 0.931 . S
H1468 C1483 0.930 . S
C1469 H1457 0.930 . S
C1469 C1470 1.399 . S
C1469 C1474 1.399 . S
C1470 C1469 1.399 . S
C1470 C1471 1.376 . S
C1471 H1458 0.930 . S
C1471 C1470 1.376 . S
C1471 C1472 1.388 . S
C1472 H1459 0.930 . S
C1472 C1471 1.388 . S
C1472 C1473 1.390 . S
C1473 C1472 1.390 . S
C1473 C1474 1.394 . S
C1473 C1479 1.465 . S
C1474 C1469 1.399 . S
C1474 C1473 1.394 . S
C1474 C1475 1.516 . S
C1475 C1474 1.516 . S
C1475 C1476 1.502 . S
C1475 C1477 1.561 . S
C1475 C1478 1.526 . S
C1476 H1460 0.959 . S
C1476 H1461 0.959 . S
C1476 H1462 0.961 . S
C1476 C1475 1.502 . S
C1477 H1463 0.960 . S
C1477 H1464 0.961 . S
C1477 H1465 0.959 . S
C1477 C1475 1.561 . S
C1478 C1475 1.526 . S
C1478 C1479 1.396 . S
C1478 C1483 1.390 . S
C1479 C1473 1.465 . S
C1479 C1478 1.396 . S
C1479 C1480 1.399 . S
C1480 H1466 0.929 . S
C1480 C1479 1.399 . S
C1480 C1481 1.385 . S
C1481 H1467 0.931 . S
C1481 C1480 1.385 . S
C1481 C1482 1.389 . S
C1482 C1481 1.389 . S
C1482 C1483 1.387 . S
C1483 H1468 0.930 . S
C1483 C1478 1.390 . S
C1483 C1482 1.387 . S
H1484 C1496 0.930 . S
H1485 C1498 0.930 . S
H1486 C1499 0.930 . S
H1487 C1503 0.959 . S
H1488 C1503 0.959 . S
H1489 C1503 0.961 . S
H1490 C1504 0.960 . S
H1491 C1504 0.961 . S
H1492 C1504 0.959 . S
H1493 C1507 0.929 . S
H1494 C1508 0.931 . S
H1495 C1510 0.930 . S
C1496 H1484 0.930 . S
C1496 C1497 1.399 . S
C1496 C1501 1.399 . S
C1497 C1496 1.399 . S
C1497 C1498 1.376 . S
C1498 H1485 0.930 . S
C1498 C1497 1.376 . S
C1498 C1499 1.388 . S
C1499 H1486 0.930 . S
C1499 C1498 1.388 . S
C1499 C1500 1.390 . S
C1500 C1499 1.390 . S
C1500 C1501 1.394 . S
C1500 C1506 1.465 . S
C1501 C1496 1.399 . S
C1501 C1500 1.394 . S
C1501 C1502 1.516 . S
C1502 C1501 1.516 . S
C1502 C1503 1.502 . S
C1502 C1504 1.561 . S
C1502 C1505 1.526 . S
C1503 H1487 0.959 . S
C1503 H1488 0.959 . S
C1503 H1489 0.961 . S
C1503 C1502 1.502 . S
C1504 H1490 0.960 . S
C1504 H1491 0.961 . S
C1504 H1492 0.959 . S
C1504 C1502 1.561 . S
C1505 C1502 1.526 . S
C1505 C1506 1.396 . S
C1505 C1510 1.390 . S
C1506 C1500 1.465 . S
C1506 C1505 1.396 . S
C1506 C1507 1.399 . S
C1507 H1493 0.929 . S
C1507 C1506 1.399 . S
C1507 C1508 1.385 . S
C1508 H1494 0.931 . S
C1508 C1507 1.385 . S
C1508 C1509 1.389 . S
C1509 C1508 1.389 . S
C1509 C1510 1.387 . S
C1510 H1495 0.930 . S
C1510 C1505 1.390 . S
C1510 C1509 1.387 . S
H1511 C1523 0.930 . S
H1512 C1525 0.930 . S
H1513 C1526 0.930 . S
H1514 C1530 0.959 . S
H1515 C1530 0.959 . S
H1516 C1530 0.961 . S
H1517 C1531 0.960 . S
H1518 C1531 0.961 . S
H1519 C1531 0.959 . S
H1520 C1534 0.929 . S
H1521 C1535 0.931 . S
H1522 C1537 0.930 . S
C1523 H1511 0.930 . S
C1523 C1524 1.399 . S
C1523 C1528 1.399 . S
C1524 C1523 1.399 . S
C1524 C1525 1.376 . S
C1525 H1512 0.930 . S
C1525 C1524 1.376 . S
C1525 C1526 1.388 . S
C1526 H1513 0.930 . S
C1526 C1525 1.388 . S
C1526 C1527 1.390 . S
C1527 C1526 1.390 . S
C1527 C1528 1.394 . S
C1527 C1533 1.465 . S
C1528 C1523 1.399 . S
C1528 C1527 1.394 . S
C1528 C1529 1.516 . S
C1529 C1528 1.516 . S
C1529 C1530 1.502 . S
C1529 C1531 1.561 . S
C1529 C1532 1.526 . S
C1530 H1514 0.959 . S
C1530 H1515 0.959 . S
C1530 H1516 0.961 . S
C1530 C1529 1.502 . S
C1531 H1517 0.960 . S
C1531 H1518 0.961 . S
C1531 H1519 0.959 . S
C1531 C1529 1.561 . S
C1532 C1529 1.526 . S
C1532 C1533 1.396 . S
C1532 C1537 1.390 . S
C1533 C1527 1.465 . S
C1533 C1532 1.396 . S
C1533 C1534 1.399 . S
C1534 H1520 0.929 . S
C1534 C1533 1.399 . S
C1534 C1535 1.385 . S
C1535 H1521 0.931 . S
C1535 C1534 1.385 . S
C1535 C1536 1.389 . S
C1536 C1535 1.389 . S
C1536 C1537 1.387 . S
C1537 H1522 0.930 . S
C1537 C1532 1.390 . S
C1537 C1536 1.387 . S
H1538 C1550 0.930 . S
H1539 C1552 0.930 . S
H1540 C1553 0.930 . S
H1541 C1557 0.959 . S
H1542 C1557 0.959 . S
H1543 C1557 0.961 . S
H1544 C1558 0.960 . S
H1545 C1558 0.961 . S
H1546 C1558 0.959 . S
H1547 C1561 0.929 . S
H1548 C1562 0.931 . S
H1549 C1564 0.930 . S
C1550 H1538 0.930 . S
C1550 C1551 1.399 . S
C1550 C1555 1.399 . S
C1551 C1550 1.399 . S
C1551 C1552 1.376 . S
C1552 H1539 0.930 . S
C1552 C1551 1.376 . S
C1552 C1553 1.388 . S
C1553 H1540 0.930 . S
C1553 C1552 1.388 . S
C1553 C1554 1.390 . S
C1554 C1553 1.390 . S
C1554 C1555 1.394 . S
C1554 C1560 1.465 . S
C1555 C1550 1.399 . S
C1555 C1554 1.394 . S
C1555 C1556 1.516 . S
C1556 C1555 1.516 . S
C1556 C1557 1.502 . S
C1556 C1558 1.561 . S
C1556 C1559 1.526 . S
C1557 H1541 0.959 . S
C1557 H1542 0.959 . S
C1557 H1543 0.961 . S
C1557 C1556 1.502 . S
C1558 H1544 0.960 . S
C1558 H1545 0.961 . S
C1558 H1546 0.959 . S
C1558 C1556 1.561 . S
C1559 C1556 1.526 . S
C1559 C1560 1.396 . S
C1559 C1564 1.390 . S
C1560 C1554 1.465 . S
C1560 C1559 1.396 . S
C1560 C1561 1.399 . S
C1561 H1547 0.929 . S
C1561 C1560 1.399 . S
C1561 C1562 1.385 . S
C1562 H1548 0.931 . S
C1562 C1561 1.385 . S
C1562 C1563 1.389 . S
C1563 C1562 1.389 . S
C1563 C1564 1.387 . S
C1564 H1549 0.930 . S
C1564 C1559 1.390 . S
C1564 C1563 1.387 . S
H1565 C1577 0.930 . S
H1566 C1579 0.930 . S
H1567 C1580 0.930 . S
H1568 C1584 0.959 . S
H1569 C1584 0.959 . S
H1570 C1584 0.961 . S
H1571 C1585 0.960 . S
H1572 C1585 0.961 . S
H1573 C1585 0.959 . S
H1574 C1588 0.929 . S
H1575 C1589 0.931 . S
H1576 C1591 0.930 . S
C1577 H1565 0.930 . S
C1577 C1578 1.399 . S
C1577 C1582 1.399 . S
C1578 C1577 1.399 . S
C1578 C1579 1.376 . S
C1579 H1566 0.930 . S
C1579 C1578 1.376 . S
C1579 C1580 1.388 . S
C1580 H1567 0.930 . S
C1580 C1579 1.388 . S
C1580 C1581 1.390 . S
C1581 C1580 1.390 . S
C1581 C1582 1.394 . S
C1581 C1587 1.465 . S
C1582 C1577 1.399 . S
C1582 C1581 1.394 . S
C1582 C1583 1.516 . S
C1583 C1582 1.516 . S
C1583 C1584 1.502 . S
C1583 C1585 1.561 . S
C1583 C1586 1.526 . S
C1584 H1568 0.959 . S
C1584 H1569 0.959 . S
C1584 H1570 0.961 . S
C1584 C1583 1.502 . S
C1585 H1571 0.960 . S
C1585 H1572 0.961 . S
C1585 H1573 0.959 . S
C1585 C1583 1.561 . S
C1586 C1583 1.526 . S
C1586 C1587 1.396 . S
C1586 C1591 1.390 . S
C1587 C1581 1.465 . S
C1587 C1586 1.396 . S
C1587 C1588 1.399 . S
C1588 H1574 0.929 . S
C1588 C1587 1.399 . S
C1588 C1589 1.385 . S
C1589 H1575 0.931 . S
C1589 C1588 1.385 . S
C1589 C1590 1.389 . S
C1590 C1589 1.389 . S
C1590 C1591 1.387 . S
C1591 H1576 0.930 . S
C1591 C1586 1.390 . S
C1591 C1590 1.387 . S
H1592 C1604 0.930 . S
H1593 C1606 0.930 . S
H1594 C1607 0.930 . S
H1595 C1611 0.959 . S
H1596 C1611 0.959 1_565 S
H1597 C1611 0.961 . S
H1598 C1612 0.960 . S
H1599 C1612 0.961 . S
H1600 C1612 0.959 . S
H1601 C1615 0.929 . S
H1602 C1616 0.931 . S
H1603 C1618 0.930 . S
C1604 H1592 0.930 . S
C1604 C1605 1.399 . S
C1604 C1609 1.399 . S
C1605 C1604 1.399 . S
C1605 C1606 1.376 . S
C1606 H1593 0.930 . S
C1606 C1605 1.376 . S
C1606 C1607 1.388 . S
C1607 H1594 0.930 . S
C1607 C1606 1.388 . S
C1607 C1608 1.390 . S
C1608 C1607 1.390 . S
C1608 C1609 1.394 . S
C1608 C1614 1.465 1_545 S
C1609 C1604 1.399 . S
C1609 C1608 1.394 . S
C1609 C1610 1.516 . S
C1610 C1609 1.516 . S
C1610 C1611 1.502 . S
C1610 C1612 1.561 . S
C1610 C1613 1.526 1_545 S
C1611 H1595 0.959 . S
C1611 H1596 0.959 1_545 S
C1611 H1597 0.961 . S
C1611 C1610 1.502 . S
C1612 H1598 0.960 . S
C1612 H1599 0.961 . S
C1612 H1600 0.959 . S
C1612 C1610 1.561 . S
C1613 C1610 1.526 1_565 S
C1613 C1614 1.396 . S
C1613 C1618 1.390 . S
C1614 C1608 1.465 1_565 S
C1614 C1613 1.396 . S
C1614 C1615 1.399 . S
C1615 H1601 0.929 . S
C1615 C1614 1.399 . S
C1615 C1616 1.385 . S
C1616 H1602 0.931 . S
C1616 C1615 1.385 . S
C1616 C1617 1.389 . S
C1617 C1616 1.389 . S
C1617 C1618 1.387 . S
C1618 H1603 0.930 . S
C1618 C1613 1.390 . S
C1618 C1617 1.387 . S
H1619 C1631 0.930 . S
H1620 C1633 0.930 . S
H1621 C1634 0.930 . S
H1622 C1638 0.959 . S
H1623 C1638 0.959 . S
H1624 C1638 0.961 1_655 S
H1625 C1639 0.960 . S
H1626 C1639 0.961 1_455 S
H1627 C1639 0.959 . S
H1628 C1642 0.929 . S
H1629 C1643 0.931 . S
H1630 C1645 0.930 . S
C1631 H1619 0.930 . S
C1631 C1632 1.399 . S
C1631 C1636 1.399 . S
C1632 C1631 1.399 . S
C1632 C1633 1.376 . S
C1633 H1620 0.930 . S
C1633 C1632 1.376 . S
C1633 C1634 1.388 . S
C1634 H1621 0.930 . S
C1634 C1633 1.388 . S
C1634 C1635 1.390 . S
C1635 C1634 1.390 . S
C1635 C1636 1.394 . S
C1635 C1641 1.465 1_655 S
C1636 C1631 1.399 . S
C1636 C1635 1.394 . S
C1636 C1637 1.516 1_655 S
C1637 C1636 1.516 1_455 S
C1637 C1638 1.502 . S
C1637 C1639 1.561 1_455 S
C1637 C1640 1.526 . S
C1638 H1622 0.959 . S
C1638 H1623 0.959 . S
C1638 H1624 0.961 1_455 S
C1638 C1637 1.502 . S
C1639 H1625 0.960 . S
C1639 H1626 0.961 1_655 S
C1639 H1627 0.959 . S
C1639 C1637 1.561 1_655 S
C1640 C1637 1.526 . S
C1640 C1641 1.396 . S
C1640 C1645 1.390 . S
C1641 C1635 1.465 1_455 S
C1641 C1640 1.396 . S
C1641 C1642 1.399 . S
C1642 H1628 0.929 . S
C1642 C1641 1.399 . S
C1642 C1643 1.385 . S
C1643 H1629 0.931 . S
C1643 C1642 1.385 . S
C1643 C1644 1.389 . S
C1644 C1643 1.389 . S
C1644 C1645 1.387 . S
C1645 H1630 0.930 . S
C1645 C1640 1.390 . S
C1645 C1644 1.387 . S
H1646 C1658 0.930 . S
H1647 C1660 0.930 . S
H1648 C1661 0.930 . S
H1649 C1665 0.959 . S
H1650 C1665 0.960 1_565 S
H1651 C1665 0.961 . S
H1652 C1666 0.960 . S
H1653 C1666 0.961 . S
H1654 C1666 0.959 . S
H1655 C1669 0.929 . S
H1656 C1670 0.931 . S
H1657 C1672 0.930 . S
C1658 H1646 0.930 . S
C1658 C1659 1.399 . S
C1658 C1663 1.399 . S
C1659 C1658 1.399 . S
C1659 C1660 1.376 . S
C1660 H1647 0.930 . S
C1660 C1659 1.376 . S
C1660 C1661 1.388 . S
C1661 H1648 0.930 . S
C1661 C1660 1.388 . S
C1661 C1662 1.390 . S
C1662 C1661 1.390 . S
C1662 C1663 1.394 . S
C1662 C1668 1.465 1_545 S
C1663 C1658 1.399 . S
C1663 C1662 1.394 . S
C1663 C1664 1.516 . S
C1664 C1663 1.516 . S
C1664 C1665 1.502 . S
C1664 C1666 1.561 . S
C1664 C1667 1.526 1_545 S
C1665 H1649 0.959 . S
C1665 H1650 0.960 1_545 S
C1665 H1651 0.961 . S
C1665 C1664 1.502 . S
C1666 H1652 0.960 . S
C1666 H1653 0.961 . S
C1666 H1654 0.959 . S
C1666 C1664 1.561 . S
C1667 C1664 1.526 1_565 S
C1667 C1668 1.396 . S
C1667 C1672 1.390 . S
C1668 C1662 1.465 1_565 S
C1668 C1667 1.396 . S
C1668 C1669 1.399 . S
C1669 H1655 0.929 . S
C1669 C1668 1.399 . S
C1669 C1670 1.385 . S
C1670 H1656 0.931 . S
C1670 C1669 1.385 . S
C1670 C1671 1.389 . S
C1671 C1670 1.389 . S
C1671 C1672 1.387 . S
C1672 H1657 0.930 . S
C1672 C1667 1.390 . S
C1672 C1671 1.387 . S
H1673 C1685 0.930 . S
H1674 C1687 0.930 . S
H1675 C1688 0.930 . S
H1676 C1692 0.959 . S
H1677 C1692 0.959 . S
H1678 C1692 0.961 1_455 S
H1679 C1693 0.960 . S
H1680 C1693 0.961 1_655 S
H1681 C1693 0.959 . S
H1682 C1696 0.929 . S
H1683 C1697 0.931 . S
H1684 C1699 0.930 . S
C1685 H1673 0.930 . S
C1685 C1686 1.399 . S
C1685 C1690 1.399 . S
C1686 C1685 1.399 . S
C1686 C1687 1.376 . S
C1687 H1674 0.930 . S
C1687 C1686 1.376 . S
C1687 C1688 1.388 . S
C1688 H1675 0.930 . S
C1688 C1687 1.388 . S
C1688 C1689 1.390 . S
C1689 C1688 1.390 . S
C1689 C1690 1.394 . S
C1689 C1695 1.465 1_455 S
C1690 C1685 1.399 . S
C1690 C1689 1.394 . S
C1690 C1691 1.508 1_455 S
C1691 C1690 1.508 1_655 S
C1691 C1692 1.505 . S
C1691 C1693 1.559 1_655 S
C1691 C1694 1.534 . S
C1692 H1676 0.959 . S
C1692 H1677 0.959 . S
C1692 H1678 0.961 1_655 S
C1692 C1691 1.505 . S
C1693 H1679 0.960 . S
C1693 H1680 0.961 1_455 S
C1693 H1681 0.959 . S
C1693 C1691 1.559 1_455 S
C1694 C1691 1.534 . S
C1694 C1695 1.396 . S
C1694 C1699 1.390 . S
C1695 C1689 1.465 1_655 S
C1695 C1694 1.396 . S
C1695 C1696 1.399 . S
C1696 H1682 0.929 . S
C1696 C1695 1.399 . S
C1696 C1697 1.385 . S
C1697 H1683 0.931 . S
C1697 C1696 1.385 . S
C1697 C1698 1.389 . S
C1698 C1697 1.389 . S
C1698 C1699 1.387 . S
C1699 H1684 0.930 . S
C1699 C1694 1.390 . S
C1699 C1698 1.387 . S
H1700 C1712 0.930 . S
H1701 C1714 0.930 . S
H1702 C1715 0.930 . S
H1703 C1719 0.959 . S
H1704 C1719 0.959 . S
H1705 C1719 0.961 . S
H1706 C1720 0.960 1_545 S
H1707 C1720 0.961 . S
H1708 C1720 0.959 1_545 S
H1709 C1723 0.929 . S
H1710 C1724 0.931 . S
H1711 C1726 0.930 . S
C1712 H1700 0.930 . S
C1712 C1713 1.399 . S
C1712 C1717 1.399 . S
C1713 C1712 1.399 . S
C1713 C1714 1.376 . S
C1714 H1701 0.930 . S
C1714 C1713 1.376 . S
C1714 C1715 1.388 . S
C1715 H1702 0.930 . S
C1715 C1714 1.388 . S
C1715 C1716 1.390 . S
C1716 C1715 1.390 . S
C1716 C1717 1.394 . S
C1716 C1722 1.465 1_545 S
C1717 C1712 1.399 . S
C1717 C1716 1.394 . S
C1717 C1718 1.516 1_545 S
C1718 C1717 1.516 1_565 S
C1718 C1719 1.502 . S
C1718 C1720 1.561 . S
C1718 C1721 1.526 . S
C1719 H1703 0.959 . S
C1719 H1704 0.959 . S
C1719 H1705 0.961 . S
C1719 C1718 1.502 . S
C1720 H1706 0.960 1_565 S
C1720 H1707 0.961 . S
C1720 H1708 0.959 1_565 S
C1720 C1718 1.561 . S
C1721 C1718 1.526 . S
C1721 C1722 1.396 . S
C1721 C1726 1.390 . S
C1722 C1716 1.465 1_565 S
C1722 C1721 1.396 . S
C1722 C1723 1.399 . S
C1723 H1709 0.929 . S
C1723 C1722 1.399 . S
C1723 C1724 1.385 . S
C1724 H1710 0.931 . S
C1724 C1723 1.385 . S
C1724 C1725 1.389 . S
C1725 C1724 1.389 . S
C1725 C1726 1.387 . S
C1726 H1711 0.930 . S
C1726 C1721 1.390 . S
C1726 C1725 1.387 . S
H1727 C1739 0.930 . S
H1728 C1741 0.930 . S
H1729 C1742 0.930 . S
H1730 C1746 0.959 . S
H1731 C1746 0.959 . S
H1732 C1746 0.949 1_655 S
H1733 C1747 0.960 . S
H1734 C1747 0.961 1_455 S
H1735 C1747 0.959 . S
H1736 C1750 0.929 . S
H1737 C1751 0.931 . S
H1738 C1753 0.930 . S
C1739 H1727 0.930 . S
C1739 C1740 1.399 . S
C1739 C1744 1.399 . S
C1740 C1739 1.399 . S
C1740 C1741 1.376 . S
C1741 H1728 0.930 . S
C1741 C1740 1.376 . S
C1741 C1742 1.388 . S
C1742 H1729 0.930 . S
C1742 C1741 1.388 . S
C1742 C1743 1.390 . S
C1743 C1742 1.390 . S
C1743 C1744 1.394 . S
C1743 C1749 1.465 1_655 S
C1744 C1739 1.399 . S
C1744 C1743 1.394 . S
C1744 C1745 1.516 1_655 S
C1745 C1744 1.516 1_455 S
C1745 C1746 1.502 . S
C1745 C1747 1.561 1_455 S
C1745 C1748 1.526 . S
C1746 H1730 0.959 . S
C1746 H1731 0.959 . S
C1746 H1732 0.949 1_455 S
C1746 C1745 1.502 . S
C1747 H1733 0.960 . S
C1747 H1734 0.961 1_655 S
C1747 H1735 0.959 . S
C1747 C1745 1.561 1_655 S
C1748 C1745 1.526 . S
C1748 C1749 1.396 . S
C1748 C1753 1.390 . S
C1749 C1743 1.465 1_455 S
C1749 C1748 1.396 . S
C1749 C1750 1.399 . S
C1750 H1736 0.929 . S
C1750 C1749 1.399 . S
C1750 C1751 1.385 . S
C1751 H1737 0.931 . S
C1751 C1750 1.385 . S
C1751 C1752 1.389 . S
C1752 C1751 1.389 . S
C1752 C1753 1.387 . S
C1753 H1738 0.930 . S
C1753 C1748 1.390 . S
C1753 C1752 1.387 . S
H1754 C1766 0.930 . S
H1755 C1768 0.930 . S
H1756 C1769 0.930 . S
H1757 C1773 0.959 . S
H1758 C1773 0.959 . S
H1759 C1773 0.961 . S
H1760 C1774 0.960 1_565 S
H1761 C1774 0.961 . S
H1762 C1774 0.959 1_565 S
H1763 C1777 0.929 . S
H1764 C1778 0.931 . S
H1765 C1780 0.930 . S
C1766 H1754 0.930 . S
C1766 C1767 1.399 . S
C1766 C1771 1.399 . S
C1767 C1766 1.399 . S
C1767 C1768 1.376 . S
C1768 H1755 0.930 . S
C1768 C1767 1.376 . S
C1768 C1769 1.388 . S
C1769 H1756 0.930 . S
C1769 C1768 1.388 . S
C1769 C1770 1.390 . S
C1770 C1769 1.390 . S
C1770 C1771 1.394 . S
C1770 C1776 1.465 1_565 S
C1771 C1766 1.399 . S
C1771 C1770 1.394 . S
C1771 C1772 1.516 1_565 S
C1772 C1771 1.516 1_545 S
C1772 C1773 1.502 . S
C1772 C1774 1.561 . S
C1772 C1775 1.526 . S
C1773 H1757 0.959 . S
C1773 H1758 0.959 . S
C1773 H1759 0.961 . S
C1773 C1772 1.502 . S
C1774 H1760 0.960 1_545 S
C1774 H1761 0.961 . S
C1774 H1762 0.959 1_545 S
C1774 C1772 1.561 . S
C1775 C1772 1.526 . S
C1775 C1776 1.396 . S
C1775 C1780 1.390 . S
C1776 C1770 1.465 1_545 S
C1776 C1775 1.396 . S
C1776 C1777 1.399 . S
C1777 H1763 0.929 . S
C1777 C1776 1.399 . S
C1777 C1778 1.385 . S
C1778 H1764 0.931 . S
C1778 C1777 1.385 . S
C1778 C1779 1.389 . S
C1779 C1778 1.389 . S
C1779 C1780 1.387 . S
C1780 H1765 0.930 . S
C1780 C1775 1.390 . S
C1780 C1779 1.387 . S
H1781 C1793 0.930 . S
H1782 C1795 0.930 . S
H1783 C1796 0.930 . S
H1784 C1800 0.959 . S
H1785 C1800 0.959 . S
H1786 C1800 0.961 . S
H1787 C1801 0.960 . S
H1788 C1801 0.961 1_655 S
H1789 C1801 0.959 . S
H1790 C1804 0.929 . S
H1791 C1805 0.931 . S
H1792 C1807 0.930 . S
C1793 H1781 0.930 . S
C1793 C1794 1.399 . S
C1793 C1798 1.399 . S
C1794 C1793 1.399 . S
C1794 C1795 1.376 . S
C1795 H1782 0.930 . S
C1795 C1794 1.376 . S
C1795 C1796 1.388 . S
C1796 H1783 0.930 . S
C1796 C1795 1.388 . S
C1796 C1797 1.390 . S
C1797 C1796 1.390 . S
C1797 C1798 1.394 . S
C1797 C1803 1.465 1_455 S
C1798 C1793 1.399 . S
C1798 C1797 1.394 . S
C1798 C1799 1.516 1_455 S
C1799 C1798 1.516 1_655 S
C1799 C1800 1.502 . S
C1799 C1801 1.561 1_655 S
C1799 C1802 1.526 . S
C1800 H1784 0.959 . S
C1800 H1785 0.959 . S
C1800 H1786 0.961 . S
C1800 C1799 1.502 . S
C1801 H1787 0.960 . S
C1801 H1788 0.961 1_455 S
C1801 H1789 0.959 . S
C1801 C1799 1.561 1_455 S
C1802 C1799 1.526 . S
C1802 C1803 1.396 . S
C1802 C1807 1.390 . S
C1803 C1797 1.465 1_655 S
C1803 C1802 1.396 . S
C1803 C1804 1.399 . S
C1804 H1790 0.929 . S
C1804 C1803 1.399 . S
C1804 C1805 1.385 . S
C1805 H1791 0.931 . S
C1805 C1804 1.385 . S
C1805 C1806 1.389 . S
C1806 C1805 1.389 . S
C1806 C1807 1.387 . S
C1807 H1792 0.930 . S
C1807 C1802 1.390 . S
C1807 C1806 1.387 . S
C957 C300 1.653 . S
C969 C5 1.635 . S
C984 C359 1.653 . S
C996 C64 1.634 . S
C1011 C123 1.663 . S
C1023 C418 1.655 . S
C1038 C182 1.636 . S
C1050 C241 1.659 . S
C1065 C772 1.664 . S
C1077 C477 1.643 . S
C1092 C831 1.664 . S
C1104 C536 1.645 . S
C1119 C595 1.662 . S
C1131 C890 1.640 . S
C1146 C654 1.634 . S
C1158 C713 1.652 . S
C1173 C593 1.568 . S
C1185 C3 1.554 . S
C1200 C652 1.574 . S
C1212 C62 1.572 . S
C1227 C475 1.550 . S
C1239 C121 1.565 . S
C1254 C180 1.548 . S
C1266 C534 1.563 . S
C1281 C829 1.548 . S
C1293 C239 1.563 . S
C1308 C888 1.533 . S
C1320 C298 1.536 . S
C1335 C357 1.533 . S
C1347 C711 1.536 . S
C1362 C770 1.574 . S
C1374 C416 1.572 . S
C1389 C269 0.721 . S
C1401 C33 0.766 . S
C1416 C92 0.766 . S
C1428 C328 0.727 . S
C1443 C151 0.697 . S
C1455 C387 0.763 . S
C1470 C446 0.765 . S
C1482 C210 0.731 . S
C1497 C524 2.277 . S
C1509 C760 2.265 . S
C1524 C819 2.267 . S
C1536 C583 2.259 . S
C1551 C642 2.257 . S
C1563 C878 2.271 . S
C1578 C937 2.260 . S
C1590 C701 2.278 . S
C1605 C682 0.719 . S
C1617 C800 0.766 . S
C1632 C505 0.767 . S
C1644 C859 0.717 . S
C1659 C918 0.713 . S
C1671 C564 0.766 . S
C1686 C623 0.764 . S
C1698 C741 0.734 . S
C1713 C347 2.263 . S
C1725 C229 2.278 . S
C1740 C406 2.267 . S
C1752 C52 2.276 . S
C1767 C465 2.261 . S
C1779 C111 2.278 . S
C1794 C288 2.265 . S
C1806 C170 2.277 . S
