# Generated by pormake.
# Topology vby, (6)-cn, num edge types: 1
# Building blocks:
#     Node 0, Type 0, BuildingBlock: PAMTUU_clean_sbu_0, # of connection points: 6
#     Node 1, Type 0, BuildingBlock: PAMTUU_clean_sbu_0, # of connection points: 6
#     Node 2, Type 0, BuildingBlock: PAMTUU_clean_sbu_0, # of connection points: 6
#     Node 3, Type 0, BuildingBlock: PAMTUU_clean_sbu_0, # of connection points: 6
#     Node 4, Type 0, BuildingBlock: PAMTUU_clean_sbu_0, # of connection points: 6
#     Node 5, Type 0, BuildingBlock: PAMTUU_clean_sbu_0, # of connection points: 6
#     Node 6, Type 0, BuildingBlock: PAMTUU_clean_sbu_0, # of connection points: 6
#     Node 7, Type 0, BuildingBlock: PAMTUU_clean_sbu_0, # of connection points: 6
#     Edge 8, Type (0, 0), BuildingBlock: XUDNAN_clean_linker_2, # of connection points: 2
#     Edge 9, Type (0, 0), BuildingBlock: XUDNAN_clean_linker_2, # of connection points: 2
#     Edge 10, Type (0, 0), BuildingBlock: XUDNAN_clean_linker_2, # of connection points: 2
#     Edge 11, Type (0, 0), BuildingBlock: XUDNAN_clean_linker_2, # of connection points: 2
#     Edge 12, Type (0, 0), BuildingBlock: XUDNAN_clean_linker_2, # of connection points: 2
#     Edge 13, Type (0, 0), BuildingBlock: XUDNAN_clean_linker_2, # of connection points: 2
#     Edge 14, Type (0, 0), BuildingBlock: XUDNAN_clean_linker_2, # of connection points: 2
#     Edge 15, Type (0, 0), BuildingBlock: XUDNAN_clean_linker_2, # of connection points: 2
#     Edge 16, Type (0, 0), BuildingBlock: XUDNAN_clean_linker_2, # of connection points: 2
#     Edge 17, Type (0, 0), BuildingBlock: XUDNAN_clean_linker_2, # of connection points: 2
#     Edge 18, Type (0, 0), BuildingBlock: XUDNAN_clean_linker_2, # of connection points: 2
#     Edge 19, Type (0, 0), BuildingBlock: XUDNAN_clean_linker_2, # of connection points: 2
#     Edge 20, Type (0, 0), BuildingBlock: XUDNAN_clean_linker_2, # of connection points: 2
#     Edge 21, Type (0, 0), BuildingBlock: XUDNAN_clean_linker_2, # of connection points: 2
#     Edge 22, Type (0, 0), BuildingBlock: XUDNAN_clean_linker_2, # of connection points: 2
#     Edge 23, Type (0, 0), BuildingBlock: XUDNAN_clean_linker_2, # of connection points: 2
#     Edge 24, Type (0, 0), BuildingBlock: XUDNAN_clean_linker_2, # of connection points: 2
#     Edge 25, Type (0, 0), BuildingBlock: XUDNAN_clean_linker_2, # of connection points: 2
#     Edge 26, Type (0, 0), BuildingBlock: XUDNAN_clean_linker_2, # of connection points: 2
#     Edge 27, Type (0, 0), BuildingBlock: XUDNAN_clean_linker_2, # of connection points: 2
#     Edge 28, Type (0, 0), BuildingBlock: XUDNAN_clean_linker_2, # of connection points: 2
#     Edge 29, Type (0, 0), BuildingBlock: XUDNAN_clean_linker_2, # of connection points: 2
#     Edge 30, Type (0, 0), BuildingBlock: XUDNAN_clean_linker_2, # of connection points: 2
#     Edge 31, Type (0, 0), BuildingBlock: XUDNAN_clean_linker_2, # of connection points: 2
# Relax obj value: 0.142
# Max RMSD: 0.181
# Mean RMSD: 0.181
data_MOF--net-vby--node1-PAMTUU_clean_sbu_0--edge1-XUDNAN_clean_linker_2
_symmetry_space_group_name_H-M    P1
_symmetry_Int_Tables_number       1
_symmetry_cell_setting            triclinic
loop_
_symmetry_equiv_pos_as_xyz
'x, y, z'
_cell_length_a     15.178759
_cell_length_b     103.94058
_cell_length_c     29.663213
_cell_angle_alpha  89.968455
_cell_angle_beta   81.546417
_cell_angle_gamma 90.047297
loop_
_atom_site_label
_atom_site_type_symbol
_atom_site_fract_x
_atom_site_fract_y
_atom_site_fract_z
_atom_type_partial_charge
Tb0 Tb 0.09335 0.37425 0.01089 0.0
Tb1 Tb 0.1057 0.40614 0.00012 0.0
C2 C 0.1012 0.38864 0.91878 0.0
C3 C 0.13162 0.33793 0.01581 0.0
C4 C 0.21001 0.31322 0.00597 0.0
C5 C 0.24733 0.32362 0.97919 0.0
C6 C 0.2086 0.33586 0.98409 0.0
C7 C 0.09701 0.32775 0.04409 0.0
C8 C 0.13585 0.31554 0.03935 0.0
C9 C 0.07972 0.34996 0.01623 0.0
O10 O 0.23272 0.37827 0.98924 0.0
O11 O 0.2387 0.39961 0.01012 0.0
O12 O 0.05589 0.40196 0.0705 0.0
O13 O 0.12123 0.38219 0.07569 0.0
O14 O 0.09133 0.42235 0.95962 0.0
O15 O 0.14336 0.42418 0.02334 0.0
O16 O 0.96638 0.40101 0.99555 0.0
O17 O 0.96153 0.38159 0.03331 0.0
O18 O 0.05664 0.38003 0.94522 0.0
O19 O 0.15242 0.39681 0.9361 0.0
C20 C 0.27752 0.38849 -0.00112 0.0
O21 O 0.07619 0.35746 0.05158 0.0
O22 O 0.087 0.35647 0.97838 0.0
C23 C 0.08648 0.39285 0.09466 0.0
C24 C 0.07747 0.44305 0.99529 0.0
C25 C 1.02463 0.46926 0.0005 0.0
C26 C 0.05888 0.46335 0.03695 0.0
C27 C 0.08528 0.45041 0.03432 0.0
C28 C 0.04067 0.44885 0.95953 0.0
C29 C 1.01445 0.46175 0.96212 0.0
C30 C 0.12048 0.43024 0.98828 0.0
C31 C 0.92187 0.39102 0.01481 0.0
H32 H 0.3053 0.32221 0.95367 0.0
H33 H 0.23688 0.34357 0.96193 0.0
H34 H 1.03733 0.32911 0.06856 0.0
H35 H 0.10492 0.30776 0.06029 0.0
H36 H 0.06669 0.46877 0.06727 0.0
H37 H 0.11464 0.44632 0.06222 0.0
H38 H 1.03559 0.44357 0.92853 0.0
H39 H 0.9898 0.46598 0.93303 0.0
Tb40 Tb 0.97204 0.62776 0.04402 0.0
Tb41 Tb 0.97741 0.65984 0.03609 0.0
C42 C 1.01098 0.64143 0.94907 0.0
C43 C 0.98284 0.59062 0.04108 0.0
C44 C 0.99661 0.56411 0.01924 0.0
C45 C 0.97996 0.57322 0.98635 0.0
C46 C 0.97309 0.58634 0.99713 0.0
C47 C 1.00495 0.58165 0.07298 0.0
C48 C 1.01208 0.56854 0.06218 0.0
C49 C 0.95545 0.60372 0.05694 0.0
O50 O 0.11185 0.6326 0.04095 0.0
O51 O 0.11786 0.65455 0.02494 0.0
O52 O 1.01212 0.65386 0.10147 0.0
O53 O 0.92111 0.63653 0.10856 0.0
O54 O 1.00082 0.67738 3e-05 0.0
O55 O 0.95498 0.67703 0.07247 0.0
O56 O 0.83638 0.65422 0.04717 0.0
O57 O 0.85417 0.63388 0.01765 0.0
O58 O 1.028 0.63151 0.97407 0.0
O59 O 0.97828 0.6524 0.96684 0.0
C60 C 0.15602 0.6434 0.03072 0.0
O61 O 1.01109 0.61084 0.07552 0.0
O62 O 0.90873 0.61048 0.03203 0.0
C63 C 0.96849 0.645 0.1269 0.0
C64 C 0.91746 0.69561 0.03236 0.0
C65 C 0.82855 0.71961 0.03236 0.0
C66 C 0.80214 0.7104 0.06653 0.0
C67 C 0.84586 0.69856 0.06651 0.0
C68 C 0.9421 0.7046 0.99738 0.0
C69 C 0.89797 0.71643 0.99723 0.0
C70 C 0.97458 0.68422 0.03638 0.0
C71 C 0.80414 0.64391 0.02964 0.0
H72 H 0.96926 0.57016 0.95268 0.0
H73 H 0.95599 0.59302 0.97175 0.0
H74 H 1.0118 0.58468 0.10724 0.0
H75 H 1.02439 0.56181 0.08844 0.0
H76 H 0.74999 0.71252 0.09453 0.0
H77 H 0.82559 0.69195 0.09433 0.0
H78 H 0.99759 0.70265 0.97089 0.0
H79 H 0.91925 0.72317 0.96993 0.0
Tb80 Tb 0.11334 0.62952 0.52242 0.0
Tb81 Tb 0.09826 0.66167 0.52789 0.0
C82 C 0.07092 0.64376 0.61409 0.0
C83 C 0.0929 0.59258 0.52813 0.0
C84 C 0.04465 0.56648 0.54527 0.0
C85 C 0.06006 0.57468 0.58109 0.0
C86 C 0.08412 0.58756 0.57262 0.0
C87 C 0.07429 0.58454 0.49267 0.0
C88 C 0.05017 0.57167 0.50112 0.0
C89 C 0.13397 0.60536 0.51689 0.0
O90 O 0.97814 0.63355 0.51202 0.0
O91 O 0.9603 0.65493 0.53397 0.0
O92 O 0.07535 0.65526 0.46067 0.0
O93 O 0.16646 0.6378 0.45717 0.0
O94 O 0.05308 0.67856 0.56304 0.0
O95 O 0.12576 0.6794 0.49466 0.0
O96 O 0.24077 0.65731 0.51276 0.0
O97 O 0.23546 0.63677 0.54174 0.0
O98 O 0.04437 0.6346 0.58879 0.0
O99 O 0.11017 0.65425 0.59588 0.0
C100 C 0.9284 0.64384 0.52178 0.0
O101 O 0.10365 0.61231 0.48593 0.0
O102 O 0.1553 0.61239 0.55007 0.0
C103 C 0.12113 0.6462 0.43705 0.0
C104 C 0.12901 0.69832 0.53967 0.0
C105 C 0.18398 0.72361 0.55828 0.0
C106 C 0.1751 0.71986 0.51361 0.0
C107 C 0.14794 0.7074 0.50451 0.0
C108 C 0.14047 0.70186 0.58418 0.0
C109 C 0.16793 0.71436 0.59334 0.0
C110 C 0.08718 0.68599 0.52942 0.0
C111 C 0.28024 0.64694 0.52558 0.0
H112 H 0.05731 0.57101 0.61544 0.0
H113 H 0.09911 0.59343 0.60069 0.0
H114 H 0.08153 0.58808 0.45795 0.0
H115 H 1.03735 0.56572 0.47283 0.0
H116 H 0.1853 0.7267 0.4858 0.0
H117 H 0.13832 0.70499 0.47001 0.0
H118 H 0.12596 0.6951 0.61209 0.0
H119 H 0.17526 0.71684 0.62805 0.0
Tb120 Tb 0.97003 0.37637 0.51909 0.0
Tb121 Tb 0.95291 0.40855 0.516 0.0
C122 C 0.96202 0.3937 0.60623 0.0
C123 C 0.93683 0.33967 0.52963 0.0
C124 C 0.86881 0.31455 0.54946 0.0
C125 C 0.85861 0.32424 0.58313 0.0
C126 C 0.89243 0.33667 0.57335 0.0
C127 C 0.94471 0.33015 0.49579 0.0
C128 C 0.91122 0.31777 0.50549 0.0
C129 C 0.98361 0.35205 0.51902 0.0
O130 O 0.83485 0.38032 0.50829 0.0
O131 O 0.81708 0.40121 0.53378 0.0
O132 O 0.92948 0.4004 0.45207 0.0
O133 O 1.02178 0.3831 0.45028 0.0
O134 O 0.89699 0.42549 0.54585 0.0
O135 O 0.97872 0.42589 0.47943 0.0
O136 O 0.09697 0.40491 0.50167 0.0
O137 O 0.10315 0.38332 0.52149 0.0
O138 O 0.93098 0.38319 0.58923 0.0
O139 O 0.99222 0.40342 0.58027 0.0
C140 C 0.78449 0.39036 0.52034 0.0
O141 O 0.96209 0.35873 0.48513 0.0
O142 O 0.99962 0.35939 0.55254 0.0
C143 C 0.98401 0.39221 0.42916 0.0
C144 C 0.96461 0.44561 0.52153 0.0
C145 C 0.99339 0.47182 0.54108 0.0
C146 C 0.98601 0.46785 0.49646 0.0
C147 C 0.97174 0.45491 0.48688 0.0
C148 C 0.97616 0.4494 0.56576 0.0
C149 C 0.99062 0.46238 0.57539 0.0
C150 C 0.93232 0.43263 0.51165 0.0
C151 C 0.1414 0.39439 0.5093 0.0
H152 H 0.82531 0.32218 0.6172 0.0
H153 H 0.88554 0.34381 0.60021 0.0
H154 H 0.97964 0.33217 0.46197 0.0
H155 H 0.92184 0.31058 0.47884 0.0
H156 H 0.98661 0.47481 0.46924 0.0
H157 H 0.96195 0.45225 0.45264 0.0
H158 H 0.97084 0.44244 0.59322 0.0
H159 H 0.99754 0.46505 0.60998 0.0
Tb160 Tb 0.59424 0.87442 0.00956 0.0
Tb161 Tb 0.60908 0.90639 0.00621 0.0
C162 C 0.62316 0.88976 0.91957 0.0
C163 C 0.62194 0.83767 0.02256 0.0
C164 C 0.66265 0.81155 0.03765 0.0
C165 C 0.70081 0.81788 0.9976 0.0
C166 C 0.68037 0.83077 0.99005 0.0
C167 C 0.58804 0.83156 0.06376 0.0
C168 C 0.60841 0.81867 0.07128 0.0
C169 C 0.58396 0.8501 0.01 0.0
O170 O 0.73687 0.87908 0.99712 0.0
O171 O 0.72645 0.89903 0.03018 0.0
O172 O 0.53283 0.90097 0.07104 0.0
O173 O 0.59932 0.88142 0.07852 0.0
O174 O 0.61912 0.92321 0.96679 0.0
O175 O 0.63503 0.9239 0.03801 0.0
O176 O 0.47525 0.90268 0.99275 0.0
O177 O 0.45657 0.8812 0.01335 0.0
O178 O 0.57375 0.88092 0.94234 0.0
O179 O 0.66636 0.89812 0.94116 0.0
C180 C 0.77406 0.88927 0.01274 0.0
O181 O 0.5433 0.85743 0.04224 0.0
O182 O 0.6286 0.8568 0.9771 0.0
C183 C 0.55356 0.8914 0.09647 0.0
C184 C 0.59645 0.94373 0.00364 0.0
C185 C 0.56549 0.97055 0.998 0.0
C186 C 0.60276 0.96539 0.03476 0.0
C187 C 0.61846 0.95215 0.0374 0.0
C188 C 0.55382 0.94878 0.96852 0.0
C189 C 0.53844 0.96203 0.96579 0.0
C190 C 0.63367 0.9305 0.0007 0.0
C191 C 0.42511 0.89237 0.00162 0.0
H192 H 0.74219 0.81268 0.9708 0.0
H193 H 0.70655 0.8351 0.95761 0.0
H194 H 0.54212 0.83652 0.08935 0.0
H195 H 0.57904 0.81415 0.10285 0.0
H196 H 0.62495 0.97167 0.05999 0.0
H197 H 0.65266 0.94858 0.06447 0.0
H198 H 0.53641 0.94262 0.94174 0.0
H199 H 0.50822 0.96565 0.93744 0.0
Tb200 Tb 0.47459 0.12877 0.0406 0.0
Tb201 Tb 0.48388 0.1608 0.0408 0.0
C202 C 0.53107 0.14457 0.95177 0.0
C203 C 0.49061 0.09174 0.02917 0.0
C204 C 0.53136 0.06555 0.00827 0.0
C205 C 0.49773 0.07361 0.97663 0.0
C206 C 0.47751 0.08651 0.98696 0.0
C207 C 0.52666 0.08382 0.0603 0.0
C208 C 0.54711 0.07091 0.04993 0.0
C209 C 0.45343 0.10456 0.04373 0.0
O210 O 0.61047 0.13273 0.04924 0.0
O211 O 0.62303 0.15475 0.03636 0.0
O212 O 0.5055 0.15382 0.10718 0.0
O213 O 0.41608 0.1363 0.10659 0.0
O214 O 0.5351 0.17814 0.01125 0.0
O215 O 0.44126 0.17811 0.07357 0.0
O216 O 0.34216 0.1555 0.05004 0.0
O217 O 0.36163 0.13623 0.01329 0.0
O218 O 0.54947 0.1345 0.97569 0.0
O219 O 0.48459 0.15438 0.97065 0.0
C220 C 0.6577 0.14337 0.04284 0.0
O221 O 0.49005 0.1111 0.07362 0.0
O222 O 0.42688 0.11201 0.01305 0.0
C223 C 0.45803 0.14462 0.129 0.0
C224 C 0.44641 0.19705 0.02705 0.0
C225 C 0.38631 0.22184 0.00582 0.0
C226 C 0.3415 0.21481 0.04284 0.0
C227 C 0.37133 0.20258 0.05341 0.0
C228 C 0.48958 0.20392 0.98932 0.0
C229 C 0.4598 0.21613 0.97875 0.0
C230 C 0.48762 0.18516 0.0422 0.0
C231 C 0.30969 0.14549 0.0309 0.0
H232 H 0.4833 0.06983 0.9445 0.0
H233 H 0.44814 0.09222 0.96248 0.0
H234 H 0.53618 0.08748 0.09344 0.0
H235 H 0.57402 0.06507 0.07491 0.0
H236 H 0.28403 0.21884 0.06408 0.0
H237 H 0.33712 0.19763 0.08309 0.0
H238 H 0.54867 0.20007 0.96886 0.0
H239 H 0.49685 0.22131 0.95041 0.0
Tb240 Tb 0.61974 0.12921 0.53553 0.0
Tb241 Tb 0.61092 0.16102 0.52583 0.0
C242 C 0.63086 0.14745 0.61834 0.0
C243 C 0.60241 0.09246 0.53137 0.0
C244 C 0.56025 0.06659 0.51301 0.0
C245 C 0.53398 0.07195 0.55647 0.0
C246 C 0.55518 0.08471 0.56557 0.0
C247 C 0.62605 0.08724 0.48753 0.0
C248 C 0.60523 0.07449 0.47849 0.0
C249 C 0.63758 0.10513 0.54328 0.0
O250 O 0.4798 0.13423 0.55562 0.0
O251 O 0.47368 0.15463 0.52512 0.0
O252 O 0.61401 0.1527 0.45743 0.0
O253 O 0.56271 0.13212 0.4741 0.0
O254 O 0.55478 0.17902 0.54532 0.0
O255 O 0.66389 0.17742 0.48992 0.0
O256 O 0.74804 0.15614 0.53489 0.0
O257 O 0.74607 0.13654 0.50121 0.0
O258 O 0.66404 0.13739 0.59526 0.0
O259 O 0.5919 0.15683 0.59897 0.0
C260 C 0.43449 0.14404 0.54245 0.0
O261 O 0.67957 0.11204 0.5102 0.0
O262 O 0.58868 0.11221 0.57354 0.0
C263 C 0.57794 0.14185 0.44587 0.0
C264 C 0.64888 0.19751 0.52912 0.0
C265 C 0.70432 0.22263 0.54982 0.0
C266 C 0.72785 0.21742 0.50595 0.0
C267 C 0.70025 0.20505 0.49575 0.0
C268 C 0.62723 0.20253 0.57339 0.0
C269 C 0.65488 0.21494 0.58364 0.0
C270 C 0.61073 0.18523 0.51536 0.0
C271 C 0.79048 0.14592 0.517 0.0
H272 H 0.49818 0.06623 0.58372 0.0
H273 H 0.53708 0.0884 0.59983 0.0
H274 H 0.66372 0.09284 0.46048 0.0
H275 H 0.62786 0.07068 0.44481 0.0
H276 H 0.76709 0.22294 0.47923 0.0
H277 H 0.71724 0.20149 0.46123 0.0
H278 H 0.5869 0.19704 0.59983 0.0
H279 H 0.63483 0.21866 0.61768 0.0
Tb280 Tb 0.47447 0.87639 0.5201 0.0
Tb281 Tb 0.46211 0.90814 0.51641 0.0
C282 C 0.50231 0.89388 0.60318 0.0
C283 C 0.42775 0.84011 0.53379 0.0
C284 C 0.35179 0.81545 0.55404 0.0
C285 C 0.37672 0.82326 0.58882 0.0
C286 C 0.41459 0.83543 0.57879 0.0
C287 C 0.40039 0.83245 0.49932 0.0
C288 C 0.36266 0.82031 0.50931 0.0
C289 C 0.48017 0.85198 0.52117 0.0
O290 O 0.33309 0.8811 0.51924 0.0
O291 O 0.33632 0.90099 0.55147 0.0
O292 O 0.41611 0.89959 0.45771 0.0
O293 O 0.51146 0.88275 0.44964 0.0
O294 O 0.42002 0.92583 0.54696 0.0
O295 O 0.47307 0.92458 0.47514 0.0
O296 O 0.60378 0.90412 0.49691 0.0
O297 O 0.61335 0.88259 0.51624 0.0
O298 O 0.46019 0.8837 0.59032 0.0
O299 O 0.52183 0.90376 0.57604 0.0
C300 C 0.2914 0.8914 0.53731 0.0
O301 O 0.45974 0.85876 0.48727 0.0
O302 O 0.50156 0.85929 0.55357 0.0
C303 C 0.4629 0.8912 0.4316 0.0
C304 C 0.47956 0.94524 0.51024 0.0
C305 C 0.51598 0.97194 0.50343 0.0
C306 C 0.55366 0.96345 0.46901 0.0
C307 C 0.53562 0.95026 0.47233 0.0
C308 C 0.44653 0.95362 0.54597 0.0
C309 C 0.46495 0.96682 0.54274 0.0
C310 C 0.44155 0.93213 0.50883 0.0
C311 C 0.65057 0.89382 0.5046 0.0
H312 H 0.37019 0.81979 0.62357 0.0
H313 H 0.43615 0.84097 0.6061 0.0
H314 H 0.41066 0.83569 0.46421 0.0
H315 H 0.34302 0.81466 0.48177 0.0
H316 H 0.59436 0.96709 0.4386 0.0
H317 H 0.56176 0.94413 0.44399 0.0
H318 H 0.40202 0.95009 0.57529 0.0
H319 H 0.43448 0.9731 0.56972 0.0
H320 H 0.40699 0.40745 -0.00039 0.0
H321 H 0.36801 0.36599 -0.00092 0.0
H322 H 0.52678 0.36276 0.00198 0.0
H323 H 0.62546 0.40699 0.92783 0.0
H324 H 0.67072 0.41984 0.95823 0.0
H325 H 0.5529 0.41925 0.95558 0.0
H326 H 0.51993 0.4198 0.04372 0.0
H327 H 0.6376 0.42035 0.04663 0.0
H328 H 0.5696 0.40787 0.07627 0.0
H329 H 0.68391 0.3635 0.00832 0.0
H330 H 0.83971 0.3681 0.01381 0.0
H331 H 0.78815 0.40916 0.00736 0.0
C332 C 0.43214 0.39771 -7e-05 0.0
C333 C 0.3746 0.38698 -0.00095 0.0
C334 C 0.41024 0.37439 -0.0006 0.0
C335 C 0.50056 0.37242 0.00119 0.0
C336 C 0.55516 0.38313 0.00217 0.0
C337 C 0.52325 0.39553 0.00116 0.0
C338 C 0.59833 0.40522 0.00224 0.0
C339 C 0.61269 0.4133 0.95836 0.0
C340 C 0.58026 0.41382 0.04475 0.0
C341 C 0.67662 0.39624 0.00474 0.0
C342 C 0.64906 0.38357 0.00479 0.0
C343 C 0.70666 0.37338 0.00812 0.0
C344 C 0.79521 0.37614 0.01153 0.0
C345 C 0.82642 0.38901 0.01137 0.0
C346 C 0.76632 0.39924 0.00747 0.0
H347 H 0.27964 0.66046 0.05648 0.0
H348 H 0.25278 0.62415 0.9876 0.0
H349 H 0.41565 0.62154 0.97568 0.0
H350 H 0.49089 0.67079 0.98773 0.0
H351 H 0.53572 0.67735 0.03583 0.0
H352 H 0.41702 0.67722 0.03556 0.0
H353 H 0.39466 0.66483 0.11214 0.0
H354 H 0.51316 0.66491 0.11263 0.0
H355 H 0.45308 0.64989 0.11666 0.0
H356 H 0.57638 0.62216 0.97312 0.0
H357 H 0.73149 0.62511 0.98353 0.0
H358 H 0.66233 0.66066 0.05773 0.0
C359 C 0.30864 0.6521 0.03829 0.0
C360 C 0.25403 0.64252 0.02264 0.0
C361 C 0.2936 0.63155 -0.00013 0.0
C362 C 0.38598 0.63002 0.99274 0.0
C363 C 0.43805 0.63949 0.00899 0.0
C364 C 0.40147 0.65028 0.03157 0.0
C365 C 0.47362 0.65842 0.04828 0.0
C366 C 0.47965 0.67174 0.02548 0.0
C367 C 0.45766 0.65958 0.10053 0.0
C368 C 0.55589 0.65039 0.03196 0.0
C369 C 0.53301 0.63963 0.00888 0.0
C370 C 0.59539 0.63054 0.99107 0.0
C371 C 0.68372 0.63233 0.99741 0.0
C372 C 0.7098 0.6431 0.0218 0.0
C373 C 0.64482 0.65236 0.03887 0.0
H374 H 0.79447 0.66217 0.5404 0.0
H375 H 0.84472 0.6229 0.49271 0.0
H376 H 0.68777 0.62053 0.48411 0.0
H377 H 0.58121 0.65596 0.60564 0.0
H378 H 0.5314 0.67087 0.59136 0.0
H379 H 0.64971 0.67001 0.59198 0.0
H380 H 0.67829 0.67822 0.50867 0.0
H381 H 0.55994 0.67906 0.50772 0.0
H382 H 0.62971 0.66977 0.4653 0.0
H383 H 0.52827 0.62156 0.4834 0.0
H384 H 0.36777 0.62586 0.49253 0.0
H385 H 0.41236 0.66455 0.53959 0.0
C386 C 0.77245 0.6531 0.52797 0.0
C387 C 0.8326 0.64273 0.51729 0.0
C388 C 0.80071 0.63101 0.50127 0.0
C389 C 0.71141 0.62955 0.49602 0.0
C390 C 0.65422 0.63989 0.50676 0.0
C391 C 0.68271 0.65144 0.52246 0.0
C392 C 0.60516 0.66078 0.53288 0.0
C393 C 0.59105 0.66463 0.58348 0.0
C394 C 0.61913 0.67266 0.50178 0.0
C395 C 0.52881 0.65251 0.52137 0.0
C396 C 0.55968 0.64054 0.50607 0.0
C397 C 0.50313 0.63091 0.49503 0.0
C398 C 0.41205 0.63345 0.5005 0.0
C399 C 0.37789 0.64552 0.51676 0.0
C400 C 0.43708 0.6553 0.52656 0.0
H401 H 0.64547 0.40722 0.55071 0.0
H402 H 0.70769 0.37182 0.47457 0.0
H403 H 0.55432 0.37068 0.45848 0.0
H404 H 0.42564 0.39725 0.60236 0.0
H405 H 0.37606 0.41293 0.59949 0.0
H406 H 0.49281 0.41152 0.60373 0.0
H407 H 0.53098 0.42523 0.53053 0.0
H408 H 0.41426 0.42655 0.52579 0.0
H409 H 0.49113 0.42024 0.47893 0.0
H410 H 0.39779 0.37279 0.45029 0.0
H411 H 0.23681 0.37681 0.45776 0.0
H412 H 0.26627 0.41053 0.54041 0.0
C413 C 0.62666 0.39924 0.53068 0.0
C414 C 0.68933 0.38963 0.5139 0.0
C415 C 0.66159 0.3793 0.48807 0.0
C416 C 0.57447 0.37859 0.47835 0.0
C417 C 0.51493 0.38823 0.49483 0.0
C418 C 0.53881 0.39828 0.52097 0.0
C419 C 0.45891 0.4069 0.53628 0.0
C420 C 0.43707 0.40716 0.58857 0.0
C421 C 0.4748 0.42054 0.51671 0.0
C422 C 0.38671 0.39999 0.515 0.0
C423 C 0.42173 0.38936 0.49073 0.0
C424 C 0.36944 0.3811 0.46904 0.0
C425 C 0.27815 0.38348 0.47341 0.0
C426 C 0.2395 0.394 0.49934 0.0
C427 C 0.29463 0.40257 0.51964 0.0
H428 H 0.90926 0.8714 0.0186 0.0
H429 H 0.85877 0.91152 0.99028 0.0
H430 H 1.01884 0.91607 0.98114 0.0
H431 H 0.08229 0.87766 0.08546 0.0
H432 H 0.15067 0.86411 0.06489 0.0
H433 H 1.03185 0.8634 0.06581 0.0
H434 H 0.05498 0.85815 0.97953 0.0
H435 H 0.17397 0.8588 0.97842 0.0
H436 H 0.1217 0.86876 0.94022 0.0
H437 H 0.1797 0.91692 0.97793 0.0
H438 H 0.33844 0.91413 0.98193 0.0
H439 H 0.2929 0.87362 0.0143 0.0
C440 C 0.9325 0.88107 0.00988 0.0
C441 C 0.87163 0.89112 0.00526 0.0
C442 C 0.9041 0.9037 0.99441 0.0
C443 C 0.99501 0.90639 0.98889 0.0
C444 C 0.05324 0.89642 0.99449 0.0
C445 C 1.02407 0.88401 0.00479 0.0
C446 C 0.10219 0.87537 0.01116 0.0
C447 C 0.09106 0.86981 0.05972 0.0
C448 C 0.11389 0.86463 0.97518 0.0
C449 C 0.17877 0.88496 0.00338 0.0
C450 C 0.14836 0.89699 0.99339 0.0
C451 C 0.20475 0.90755 0.9855 0.0
C452 C 0.29513 0.90583 0.98794 0.0
C453 C 0.32882 0.89365 0.99846 0.0
C454 C 0.26951 0.88305 0.00613 0.0
H455 H 0.17015 0.16327 0.04905 0.0
H456 H 0.22958 0.12336 0.01202 0.0
H457 H 0.07213 0.11913 0.0114 0.0
H458 H 0.96245 0.15689 0.12296 0.0
H459 H 0.90482 0.17072 0.10515 0.0
H460 H 1.02406 0.17113 0.10301 0.0
H461 H 0.04245 0.17701 0.01729 0.0
H462 H 0.92324 0.17663 0.01921 0.0
H463 H 0.99324 0.1668 0.97863 0.0
H464 H 0.91284 0.1184 0.0161 0.0
H465 H 0.75188 0.12153 0.02291 0.0
H466 H 0.78461 0.16195 0.05472 0.0
C467 C 0.1497 0.15369 0.04077 0.0
C468 C 0.21298 0.1437 0.03039 0.0
C469 C 0.18338 0.13126 0.0197 0.0
C470 C 0.0936 0.12869 0.01938 0.0
C471 C 1.03325 0.13863 0.02958 0.0
C472 C 0.05909 0.1509 0.03982 0.0
C473 C 0.97823 0.15969 0.04895 0.0
C474 C 0.96673 0.16491 0.09794 0.0
C475 C 0.9847 0.17069 0.01392 0.0
C476 C 0.90395 0.15033 0.0424 0.0
C477 C 0.93822 0.13825 0.0315 0.0
C478 C 0.88474 0.12781 0.02453 0.0
C479 C 0.79311 0.1297 0.02874 0.0
C480 C 0.75532 0.14197 0.03956 0.0
C481 C 0.81167 0.15247 0.04627 0.0
H482 H 0.30436 0.16266 0.53691 0.0
H483 H 0.34316 0.1214 0.5466 0.0
H484 H 0.18537 0.11783 0.54046 0.0
H485 H 0.08133 0.1629 0.60467 0.0
H486 H 0.03944 0.17527 0.5709 0.0
H487 H 0.15617 0.17481 0.57621 0.0
H488 H 0.19594 0.17419 0.48834 0.0
H489 H 0.07935 0.17456 0.48276 0.0
H490 H 0.14911 0.16177 0.45669 0.0
H491 H 1.02772 0.11832 0.52839 0.0
H492 H 0.87263 0.12287 0.51946 0.0
H493 H 0.92586 0.1639 0.52267 0.0
C494 C 0.27937 0.15289 0.53811 0.0
C495 C 0.33685 0.14231 0.54236 0.0
C496 C 0.3011 0.12969 0.54381 0.0
C497 C 0.21132 0.12754 0.54007 0.0
C498 C 0.15694 0.13809 0.5355 0.0
C499 C 0.18877 0.15055 0.53525 0.0
C500 C 0.11436 0.16011 0.53086 0.0
C501 C 0.09679 0.16878 0.57318 0.0
C502 C 0.13601 0.16813 0.48705 0.0
C503 C 1.03633 0.15105 0.5282 0.0
C504 C 0.06337 0.1384 0.53044 0.0
C505 C 1.00551 0.12818 0.52701 0.0
C506 C 0.91735 0.1309 0.52162 0.0
C507 C 0.88648 0.14375 0.52029 0.0
C508 C 0.94712 0.15398 0.52378 0.0
H509 H 0.78286 0.87514 0.50364 0.0
H510 H 0.739 0.91645 0.51011 0.0
H511 H 0.8946 0.91977 0.52094 0.0
H512 H 0.93048 0.87336 0.58718 0.0
H513 H 1.00408 0.86155 0.55739 0.0
H514 H 0.88875 0.86206 0.54934 0.0
H515 H 0.93538 0.8644 0.46223 0.0
H516 H 0.05087 0.86375 0.46995 0.0
H517 H 1.01024 0.87717 0.44046 0.0
H518 H 0.04948 0.91889 0.53664 0.0
H519 H 0.20381 0.91422 0.54582 0.0
H520 H 0.15877 0.87353 0.52411 0.0
C521 C 0.80636 0.88488 0.50679 0.0
C522 C 0.74791 0.89553 0.50586 0.0
C523 C 0.78176 0.90812 0.51022 0.0
C524 C 0.87027 0.91012 0.51675 0.0
C525 C 0.9254 0.89948 0.51825 0.0
C526 C 0.89578 0.88711 0.51253 0.0
C527 C 0.97088 0.87748 0.51458 0.0
C528 C 0.9471 0.86806 0.5545 0.0
C529 C 0.99316 0.87028 0.46909 0.0
C530 C 0.04669 0.8864 0.52279 0.0
C531 C 1.0178 0.89902 0.52536 0.0
C532 C 0.07322 0.90906 0.53423 0.0
C533 C 0.16111 0.90625 0.53973 0.0
C534 C 0.19442 0.89347 0.53576 0.0
C535 C 0.1358 0.88339 0.5273 0.0
H536 H 0.10345 0.5444 0.04291 0.0
H537 H 0.87207 0.55192 0.9766 0.0
H538 H 0.85314 0.52863 0.96569 0.0
H539 H 0.1879 0.5176 0.97109 0.0
H540 H 0.22484 0.50873 0.01708 0.0
H541 H 0.22122 0.52605 0.01891 0.0
H542 H 0.1207 0.52503 0.09738 0.0
H543 H 0.12339 0.50771 0.0956 0.0
H544 H 1.01809 0.51603 0.10309 0.0
H545 H 0.85555 0.50449 0.96436 0.0
H546 H 0.88485 0.48121 0.96835 0.0
H547 H 0.11654 0.48921 0.03403 0.0
C548 C 0.04889 0.54115 0.02604 0.0
C549 C 0.9896 0.55005 0.01036 0.0
C550 C 0.91939 0.54536 0.98819 0.0
C551 C 0.90754 0.53212 0.98219 0.0
C552 C 0.96653 0.52362 0.99841 0.0
C553 C 1.03629 0.52794 0.01954 0.0
C554 C 0.09053 0.51674 0.03347 0.0
C555 C 0.18682 0.51732 0.00865 0.0
C556 C 0.08799 0.51636 0.08547 0.0
C557 C 0.04006 0.50548 0.01706 0.0
C558 C 0.96856 0.50968 0.99712 0.0
C559 C 0.91179 0.50109 0.97958 0.0
C560 C 0.92927 0.48787 0.98184 0.0
C561 C 1.00331 0.4833 0.00127 0.0
C562 C 0.05877 0.49231 0.01944 0.0
H563 H 0.08413 0.49116 0.48968 0.0
H564 H 0.90904 0.48431 0.6169 0.0
H565 H 0.9056 0.50762 0.6327 0.0
H566 H 0.20953 0.51756 0.52973 0.0
H567 H 0.21707 0.52628 0.47676 0.0
H568 H 0.20991 0.50898 0.4769 0.0
H569 H 0.07197 0.51028 0.43498 0.0
H570 H 0.07828 0.52758 0.43501 0.0
H571 H 0.97683 0.51962 0.45944 0.0
H572 H 0.91504 0.5319 0.63286 0.0
H573 H 0.94074 0.55511 0.61838 0.0
H574 H 0.10891 0.54608 0.49096 0.0
C575 C 0.04519 0.49453 0.52096 0.0
C576 C 0.99724 0.48581 0.55213 0.0
C577 C 0.94779 0.4907 0.59282 0.0
C578 C 0.94478 0.50396 0.60196 0.0
C579 C 0.9916 0.51227 0.57015 0.0
C580 C 0.04129 0.50773 0.53058 0.0
C581 C 0.08404 0.51871 0.50152 0.0
C582 C 0.1862 0.51783 0.49592 0.0
C583 C 0.05076 0.51906 0.45499 0.0
C584 C 0.04986 0.53013 0.53069 0.0
C585 C 0.99681 0.52622 0.57018 0.0
C586 C 0.95701 0.53506 0.60218 0.0
C587 C 0.97227 0.54823 0.59372 0.0
C588 C 1.02684 0.55249 0.55353 0.0
C589 C 0.06585 0.54322 0.52173 0.0
H590 H 0.51601 0.98968 0.06168 0.0
H591 H 0.61157 0.98361 0.91804 0.0
H592 H 0.61522 1.00706 0.90551 0.0
H593 H 0.37453 1.01694 0.04629 0.0
H594 H 0.39901 0.02525 0.09633 0.0
H595 H 0.40311 1.00794 0.09404 0.0
H596 H 0.56537 1.0085 0.11148 0.0
H597 H 0.56196 0.02581 0.1135 0.0
H598 H 0.64796 1.01778 0.07538 0.0
H599 H 0.61319 0.03118 0.90862 0.0
H600 H 0.5973 0.0543 0.92638 0.0
H601 H 0.49905 0.04495 0.06759 0.0
C602 C 0.53763 0.99329 0.0276 0.0
C603 C 0.5629 0.98475 0.99078 0.0
C604 C 0.59033 0.9899 0.94666 0.0
C605 C 0.59339 1.00324 0.93924 0.0
C606 C 0.56856 1.01137 0.97621 0.0
C607 C 0.54053 1.00662 0.01948 0.0
C608 C 0.51642 1.0175 0.05313 0.0
C609 C 0.41738 1.01687 0.07365 0.0
C610 C 0.57653 1.01739 0.09058 0.0
C611 C 0.53576 0.02909 0.02204 0.0
C612 C 0.56613 0.02532 0.97787 0.0
C613 C 0.58879 0.03425 0.94305 0.0
C614 C 0.57908 0.04739 0.95347 0.0
C615 C 0.5464 0.05155 0.99835 0.0
C616 C 0.52522 0.04218 0.03304 0.0
H617 H 0.57184 0.04589 0.57025 0.0
H618 H 0.51426 0.05574 0.43525 0.0
H619 H 0.49983 0.03269 0.41811 0.0
H620 H 0.69949 1.01782 0.53909 0.0
H621 H 0.65572 1.00881 0.58936 0.0
H622 H 0.66059 0.0261 0.59164 0.0
H623 H 0.49132 0.02702 0.62101 0.0
H624 H 0.48605 1.00971 0.61922 0.0
H625 H 0.41454 0.0192 0.5889 0.0
H626 H 0.49656 1.00864 0.41446 0.0
H627 H 0.49454 0.98515 0.4263 0.0
H628 H 0.54905 0.99077 0.56454 0.0
C629 C 0.55467 0.04325 0.53733 0.0
C630 C 0.54476 0.05271 0.50401 0.0
C631 C 0.52377 0.04873 0.46111 0.0
C632 C 0.51496 0.03565 0.4511 0.0
C633 C 0.52659 0.02661 0.48442 0.0
C634 C 0.54501 0.03023 0.52684 0.0
C635 C 0.55406 0.01856 0.55658 0.0
C636 C 0.64806 1.01778 0.56994 0.0
C637 C 0.4822 0.01863 0.59893 0.0
C638 C 0.53832 1.00782 0.52412 0.0
C639 C 0.52309 1.0127 0.48261 0.0
C640 C 0.50824 1.0047 0.44684 0.0
C641 C 0.508 0.99136 0.45379 0.0
C642 C 0.5222 0.9861 0.49624 0.0
C643 C 0.53763 0.9945 0.53179 0.0
H644 H 0.23442 0.29429 0.06828 0.0
H645 H 0.25956 0.30181 0.92299 0.0
H646 H 0.30628 0.27933 0.9072 0.0
H647 H 0.42397 0.27281 0.06288 0.0
H648 H 0.37051 0.2624 0.10732 0.0
H649 H 0.34141 0.27919 0.10708 0.0
H650 H 0.17556 0.27302 0.10863 0.0
H651 H 0.20427 0.25621 0.10848 0.0
H652 H 0.14459 0.26254 0.06513 0.0
H653 H 0.34492 0.2558 0.90707 0.0
H654 H 0.38042 0.23321 0.92265 0.0
H655 H 0.3322 0.24101 0.06798 0.0
C656 C 0.24986 0.29122 0.03314 0.0
C657 C 0.24367 0.29987 0.99687 0.0
C658 C 0.26519 0.29545 0.95137 0.0
C659 C 0.2911 0.28266 0.94203 0.0
C660 C 0.29552 0.27437 0.97853 0.0
C661 C 0.2762 0.27848 0.02318 0.0
C662 C 0.28641 0.26761 0.05614 0.0
C663 C 0.35996 0.27069 0.08505 0.0
C664 C 0.1974 0.26467 0.08637 0.0
C665 C 0.31376 0.25672 0.02304 0.0
C666 C 0.31847 0.26083 0.97845 0.0
C667 C 0.34205 0.2525 0.94187 0.0
C668 C 0.36245 0.23969 0.95107 0.0
C669 C 0.35947 0.23528 0.99653 0.0
C670 C 0.33408 0.24397 0.03286 0.0
H671 H 0.81345 0.79663 0.01462 0.0
H672 H 0.53286 0.79425 0.07018 0.0
H673 H 0.54458 0.77064 0.07413 0.0
H674 H 0.81944 0.76845 0.94443 0.0
H675 H 0.92848 0.76345 0.95461 0.0
H676 H 0.89932 0.78026 0.95712 0.0
H677 H 0.93903 0.78169 0.03898 0.0
H678 H 0.96902 0.76492 0.03657 0.0
H679 H 0.88712 0.77076 0.08213 0.0
H680 H 0.5846 0.74723 0.06916 0.0
H681 H 0.65259 0.72569 0.06025 0.0
H682 H 0.90844 0.74313 0.00993 0.0
C683 C 0.75452 0.79114 0.02768 0.0
C684 C 0.67232 0.79735 0.04239 0.0
C685 C 0.59696 0.78979 0.0595 0.0
C686 C 0.60271 0.77634 0.0615 0.0
C687 C 0.68435 0.77054 0.04637 0.0
C688 C 0.75914 0.77768 0.03013 0.0
C689 C 0.83891 0.76902 0.01623 0.0
C690 C 0.87355 0.77038 0.96505 0.0
C691 C 0.91287 0.77176 0.04522 0.0
C692 C 0.79709 0.7559 0.02706 0.0
C693 C 0.70778 0.75701 0.04417 0.0
C694 C 0.65472 0.74625 0.05619 0.0
C695 C 0.69419 0.73403 0.05121 0.0
C696 C 0.78622 0.73262 0.03467 0.0
C697 C 0.8378 0.74378 0.02216 0.0
H698 H 0.29908 0.74026 0.50624 0.0
H699 H 0.11383 0.73815 0.63235 0.0
H700 H 0.13951 0.76116 0.64626 0.0
H701 H 0.45379 0.76291 0.5453 0.0
H702 H 0.47395 0.77128 0.49151 0.0
H703 H 0.44509 0.75445 0.49309 0.0
H704 H 0.31283 0.75934 0.4496 0.0
H705 H 0.34092 0.77618 0.44813 0.0
H706 H 0.23059 0.77105 0.47233 0.0
H707 H 0.18026 0.78483 0.64456 0.0
H708 H 0.23499 0.80699 0.62799 0.0
H709 H 0.39181 0.79361 0.50259 0.0
C710 C 0.26387 0.7446 0.53686 0.0
C711 C 0.2046 0.73729 0.56827 0.0
C712 C 0.1608 0.74341 0.60811 0.0
C713 C 0.17442 0.75653 0.61616 0.0
C714 C 0.23211 0.76346 0.58412 0.0
C715 C 0.27641 0.75769 0.54535 0.0
C716 C 0.33315 0.76734 0.51567 0.0
C717 C 0.43238 0.76378 0.51115 0.0
C718 C 0.30251 0.76855 0.46866 0.0
C719 C 0.31314 0.77948 0.54354 0.0
C720 C 0.25499 0.77705 0.58299 0.0
C721 C 0.22626 0.78682 0.61388 0.0
C722 C 0.258 0.79938 0.60426 0.0
C723 C 0.3177 0.80211 0.56396 0.0
C724 C 0.34536 0.79194 0.53339 0.0
H725 H 0.79369 0.29732 0.49532 0.0
H726 H 0.88053 0.30089 0.62784 0.0
H727 H 0.84302 0.27806 0.64367 0.0
H728 H 0.61071 0.2751 0.52932 0.0
H729 H 0.63099 0.26614 0.4768 0.0
H730 H 0.65903 0.28298 0.47736 0.0
H731 H 0.82129 0.27766 0.442 0.0
H732 H 0.79391 0.26081 0.44157 0.0
H733 H 0.88421 0.26623 0.47004 0.0
H734 H 0.80317 0.25435 0.64334 0.0
H735 H 0.76203 0.23198 0.62728 0.0
H736 H 0.70292 0.24395 0.49473 0.0
C737 C 0.80479 0.29334 0.52775 0.0
C738 C 0.83994 0.30101 0.56036 0.0
C739 C 0.85231 0.29536 0.60254 0.0
C740 C 0.8318 0.28234 0.61174 0.0
C741 C 0.79877 0.27505 0.57851 0.0
C742 C 0.78498 0.28037 0.53743 0.0
C743 C 0.75115 0.27038 0.50691 0.0
C744 C 0.65739 0.27386 0.49703 0.0
C745 C 0.81656 0.26867 0.46251 0.0
C746 C 0.74912 0.25856 0.53696 0.0
C747 C 0.77641 0.26145 0.57822 0.0
C748 C 0.7811 0.25202 0.61125 0.0
C749 C 0.75722 0.23933 0.60188 0.0
C750 C 0.72921 0.23613 0.55973 0.0
C751 C 0.72508 0.24598 0.52706 0.0
H752 H 0.09716 0.37487 0.16293 0.0
H753 H 0.06208 0.41567 0.13884 0.0
H754 H 0.04262 0.41968 0.22112 0.0
H755 H 0.93299 0.37263 0.26056 0.0
H756 H 0.99331 0.36155 0.2914 0.0
H757 H 1.01263 0.36171 0.23004 0.0
H758 H 0.18104 0.36543 0.23105 0.0
H759 H 0.16227 0.36524 0.29249 0.0
H760 H 0.21664 0.37883 0.26251 0.0
H761 H 1.01507 0.41944 0.30401 0.0
H762 H 0.9833 0.41503 0.38599 0.0
H763 H 0.03761 0.37444 0.36061 0.0
C764 C 0.08678 0.38465 0.17506 0.0
C765 C 0.08094 0.39495 0.14434 0.0
C766 C 0.0662 0.4076 0.16155 0.0
C767 C 0.05548 0.41001 0.20831 0.0
C768 C 0.05989 0.39969 0.23767 0.0
C769 C 0.07553 0.38726 0.22207 0.0
C770 C 0.07252 0.37792 0.2618 0.0
C771 C 0.99845 0.36786 0.26088 0.0
C772 C 0.16355 0.37148 0.26196 0.0
C773 C 0.05085 0.38707 0.30188 0.0
C774 C 0.04446 0.39956 0.28676 0.0
C775 C 1.02072 0.40973 0.31643 0.0
C776 C 1.00227 0.40709 0.36297 0.0
C777 C 1.00791 0.39439 0.37967 0.0
C778 C 1.03376 0.38425 0.34875 0.0
H779 H 0.99906 0.66319 0.19005 0.0
H780 H 0.98096 0.62203 0.16882 0.0
H781 H 1.02525 0.61805 0.24433 0.0
H782 H 0.18532 0.66305 0.25132 0.0
H783 H 0.14189 0.67532 0.29144 0.0
H784 H 0.11062 0.67512 0.23516 0.0
H785 H 0.94376 0.67442 0.26991 0.0
H786 H 0.97448 0.67478 0.32628 0.0
H787 H 0.90471 0.66201 0.31047 0.0
H788 H 0.08104 0.61843 0.319 0.0
H789 H 0.12066 0.62303 0.39498 0.0
H790 H 0.08831 0.66392 0.37254 0.0
C791 C 1.00401 0.65337 0.20158 0.0
C792 C 0.98692 0.64291 0.17374 0.0
C793 C 0.99322 0.63017 0.18984 0.0
C794 C 1.01899 0.62781 0.23249 0.0
C795 C 1.03644 0.6383 0.25896 0.0
C796 C 1.02725 0.65083 0.24475 0.0
C797 C 0.04554 0.66032 0.28113 0.0
C798 C 0.12561 0.66896 0.26371 0.0
C799 C 0.96215 0.66835 0.29794 0.0
C800 C 0.06726 0.65114 0.3177 0.0
C801 C 0.06323 0.6385 0.30369 0.0
C802 C 0.08356 0.62827 0.33062 0.0
C803 C 0.10664 0.63099 0.37358 0.0
C804 C 0.10741 0.64382 0.38956 0.0
C805 C 0.0879 0.65402 0.36113 0.0
H806 H 1.02313 0.66005 0.88151 0.0
H807 H 1.02674 0.6187 0.90325 0.0
H808 H 0.04308 0.61519 0.82064 0.0
H809 H 0.89955 0.65956 0.78704 0.0
H810 H 0.96262 0.67227 0.75594 0.0
H811 H 0.95154 0.6718 0.81723 0.0
H812 H 0.12325 0.67205 0.81267 0.0
H813 H 0.13485 0.67255 0.75136 0.0
H814 H 0.18875 0.66002 0.77923 0.0
H815 H 0.05186 0.61578 0.73736 0.0
H816 H 0.06318 0.6205 0.6556 0.0
H817 H 0.06194 0.66148 0.68447 0.0
C818 C 1.02754 0.65027 0.8688 0.0
C819 C 1.02362 0.63966 0.899 0.0
C820 C 1.03011 0.62701 0.88099 0.0
C821 C 0.0391 0.62488 0.83403 0.0
C822 C 0.04246 0.6355 0.80529 0.0
C823 C 0.03782 0.64795 0.82168 0.0
C824 C 0.04439 0.65758 0.78272 0.0
C825 C 0.95946 0.66578 0.78594 0.0
C826 C 0.12779 0.66605 0.78143 0.0
C827 C 0.0526 0.64853 0.7421 0.0
C828 C 0.0506 0.63585 0.75625 0.0
C829 C 0.0541 0.62566 0.72573 0.0
C830 C 0.06007 0.62846 0.67933 0.0
C831 C 0.06344 0.64136 0.66363 0.0
C832 C 0.06014 0.65154 0.6955 0.0
H833 H 0.95877 0.3745 0.67235 0.0
H834 H 0.98075 0.41587 0.65143 0.0
H835 H 1.01404 0.41862 0.72897 0.0
H836 H 0.8557 0.37676 0.79504 0.0
H837 H 0.91471 0.36287 0.81137 0.0
H838 H 0.88524 0.36393 0.75478 0.0
H839 H 0.05062 0.36057 0.72065 0.0
H840 H 0.0808 0.35968 0.77706 0.0
H841 H 0.13407 0.37129 0.7368 0.0
H842 H 0.06424 0.41714 0.80268 0.0
H843 H 0.10817 0.41175 0.87659 0.0
H844 H 0.04414 0.37158 0.85701 0.0
C845 C 0.96853 0.38414 0.68458 0.0
C846 C 0.96801 0.39494 0.65545 0.0
C847 C 0.98187 0.4074 0.67264 0.0
C848 C 1.00072 0.40911 0.71681 0.0
C849 C 1.00426 0.39831 0.74399 0.0
C850 C 0.98679 0.38608 0.7293 0.0
C851 C 0.99714 0.37621 0.76612 0.0
C852 C 0.90787 0.36955 0.78282 0.0
C853 C 0.07 0.36636 0.74912 0.0
C854 C 1.02544 0.38484 0.80288 0.0
C855 C 1.02947 0.39752 0.78882 0.0
C856 C 0.05965 0.40729 0.81465 0.0
C857 C 0.08512 0.40409 0.85653 0.0
C858 C 0.07897 0.39127 0.87279 0.0
C859 C 0.0485 0.38149 0.8456 0.0
H860 H 0.61895 0.87799 0.16499 0.0
H861 H 0.42093 0.90629 0.14042 0.0
H862 H 0.37215 0.90813 0.22295 0.0
H863 H 0.48639 0.86243 0.26355 0.0
H864 H 0.58015 0.86029 0.2937 0.0
H865 H 0.59667 0.86042 0.23227 0.0
H866 H 0.7121 0.8788 0.23198 0.0
H867 H 0.69594 0.87873 0.29335 0.0
H868 H 0.68067 0.8934 0.26301 0.0
H869 H 0.34763 0.9077 0.3067 0.0
H870 H 0.35106 0.9056 0.38875 0.0
H871 H 0.56648 0.87786 0.36197 0.0
C872 C 0.56464 0.88445 0.17704 0.0
C873 C 0.52359 0.89198 0.1462 0.0
C874 C 0.45363 0.90046 0.16331 0.0
C875 C 0.42509 0.90154 0.21016 0.0
C876 C 0.4673 0.89411 0.23963 0.0
C877 C 0.53569 0.88575 0.224 0.0
C878 C 0.57224 0.87941 0.26357 0.0
C879 C 0.55798 0.86477 0.26324 0.0
C880 C 0.67109 0.88279 0.26292 0.0
C881 C 0.51422 0.88565 0.30371 0.0
C882 C 0.45379 0.89399 0.28881 0.0
C883 C 0.39434 0.90116 0.31888 0.0
C884 C 0.39708 0.8999 0.36554 0.0
C885 C 0.45913 0.89157 0.38198 0.0
C886 C 0.51793 0.88424 0.35052 0.0
H887 H 0.54465 0.15936 0.18582 0.0
H888 H 0.37321 0.12592 0.18428 0.0
H889 H 0.38337 0.12201 0.26533 0.0
H890 H 0.68995 0.14598 0.25622 0.0
H891 H 0.70367 0.16063 0.28696 0.0
H892 H 0.67905 0.16136 0.22946 0.0
H893 H 0.54066 0.17548 0.25619 0.0
H894 H 0.56522 0.17488 0.31377 0.0
H895 H 0.4575 0.16985 0.30162 0.0
H896 H 0.41878 0.12091 0.34454 0.0
H897 H 0.4708 0.1232 0.41873 0.0
H898 H 0.61847 0.15757 0.37024 0.0
C899 C 0.50823 0.15131 0.20264 0.0
C900 C 0.45791 0.14296 0.17861 0.0
C901 C 0.4119 0.13248 0.20189 0.0
C902 C 0.41737 0.13017 0.24795 0.0
C903 C 0.46874 0.13844 0.27034 0.0
C904 C 0.51279 0.14887 0.24868 0.0
C905 C 0.56514 0.15609 0.28046 0.0
C906 C 0.66539 0.15601 0.26217 0.0
C907 C 0.53 0.16989 0.28848 0.0
C908 C 0.54443 0.14799 0.32323 0.0
C909 C 0.48873 0.13786 0.31648 0.0
C910 C 0.46194 0.12884 0.35035 0.0
C911 C 0.4924 0.13021 0.39238 0.0
C912 C 0.54903 0.14057 0.40045 0.0
C913 C 0.57509 0.14959 0.36527 0.0
H914 H 0.46438 0.1581 0.88426 0.0
H915 H 0.67308 0.13146 0.90782 0.0
H916 H 0.72922 0.13127 0.82558 0.0
H917 H 0.41804 0.1433 0.78279 0.0
H918 H 0.39635 0.15807 0.75454 0.0
H919 H 0.37725 0.15718 0.8158 0.0
H920 H 0.48177 0.17672 0.82006 0.0
H921 H 0.50154 0.17763 0.7587 0.0
H922 H 0.59405 0.17619 0.79014 0.0
H923 H 0.75854 0.13291 0.74189 0.0
H924 H 0.75409 0.13507 0.65979 0.0
H925 H 0.52474 0.16031 0.68785 0.0
C926 C 0.52263 0.15238 0.87208 0.0
C927 C 0.56467 0.14482 0.90242 0.0
C928 C 0.63967 0.13727 0.88519 0.0
C929 C 0.67247 0.13718 0.83857 0.0
C930 C 0.62932 0.14464 0.80953 0.0
C931 C 0.55572 0.15204 0.82536 0.0
C932 C 0.5181 0.15837 0.78613 0.0
C933 C 0.42174 0.15396 0.78474 0.0
C934 C 0.52426 0.1731 0.78894 0.0
C935 C 0.58125 0.15317 0.74582 0.0
C936 C 0.64549 0.14542 0.7604 0.0
C937 C 0.709 0.13902 0.72999 0.0
C938 C 0.70568 0.14029 0.68338 0.0
C939 C 0.63905 0.14786 0.66739 0.0
C940 C 0.57717 0.15462 0.69906 0.0
H941 H 0.44874 0.87892 0.68006 0.0
H942 H 0.62956 0.90967 0.62767 0.0
H943 H 0.68516 0.91093 0.70107 0.0
H944 H 0.39187 0.89214 0.79201 0.0
H945 H 0.38718 0.87685 0.82098 0.0
H946 H 0.36377 0.87775 0.76329 0.0
H947 H 0.48613 0.86076 0.73851 0.0
H948 H 0.51008 0.85984 0.79616 0.0
H949 H 0.59785 0.86354 0.75015 0.0
H950 H 0.71891 0.90962 0.77992 0.0
H951 H 0.72495 0.90616 0.86157 0.0
H952 H 0.52281 0.87641 0.86499 0.0
C953 C 0.50034 0.88585 0.68405 0.0
C954 C 0.53427 0.89423 0.64804 0.0
C955 C 0.60156 0.90322 0.65473 0.0
C956 C 0.63423 0.90398 0.69629 0.0
C957 C 0.59914 0.89569 0.73114 0.0
C958 C 0.53357 0.88682 0.72573 0.0
C959 C 0.50534 0.87945 0.76969 0.0
C960 C 0.40616 0.88169 0.78754 0.0
C961 C 0.52611 0.86504 0.76323 0.0
C962 C 0.56465 0.8857 0.80047 0.0
C963 C 0.61863 0.89497 0.77729 0.0
C964 C 0.67737 0.90233 0.79849 0.0
C965 C 0.68031 0.9003 0.84492 0.0
C966 C 0.62468 0.89099 0.86973 0.0
C967 C 0.56686 0.88351 0.84692 0.0
loop_
_geom_bond_atom_site_label_1
_geom_bond_atom_site_label_2
_geom_bond_distance
_geom_bond_site_symmetry_2
_ccdc_geom_bond_type
Tb0 C9 2.764 . S
Tb0 O10 2.325 . S
Tb0 O13 2.303 . S
Tb0 O17 2.322 1_455 S
Tb0 O18 2.349 1_554 S
Tb0 O21 2.415 . S
Tb0 O22 2.399 1_554 S
Tb1 O11 2.322 . S
Tb1 O12 2.349 . S
Tb1 O14 2.415 1_554 S
Tb1 O15 2.399 . S
Tb1 O16 2.325 1_455 S
Tb1 O19 2.303 1_554 S
Tb1 C30 2.760 1_455 S
C2 O18 1.261 . S
C2 O19 1.257 . S
C3 C6 1.358 1_554 S
C3 C7 1.332 . S
C3 C9 1.504 . S
C4 C5 1.373 . S
C4 C8 1.308 . S
C5 C4 1.373 . S
C5 C6 1.429 1_554 S
C5 H32 0.932 1_554 S
C6 C3 1.358 1_556 S
C6 C5 1.429 1_556 S
C6 H33 0.930 . S
C7 C3 1.332 . S
C7 C8 1.394 . S
C7 H34 0.932 . S
C8 C4 1.308 . S
C8 C7 1.394 . S
C8 H35 0.929 . S
C9 Tb0 2.764 . S
C9 C3 1.504 . S
C9 O21 1.239 . S
C9 O22 1.263 1_554 S
O10 Tb0 2.325 . S
O10 C20 1.236 . S
O11 Tb1 2.322 . S
O11 C20 1.257 . S
O12 Tb1 2.349 . S
O12 C23 1.261 . S
O13 Tb0 2.303 . S
O13 C23 1.257 . S
O14 Tb1 2.415 1_556 S
O14 C30 1.238 1_456 S
O15 Tb1 2.399 . S
O15 C30 1.260 1_455 S
O16 Tb1 2.325 1_655 S
O16 C31 1.236 . S
O17 Tb0 2.322 1_655 S
O17 C31 1.257 . S
O18 Tb0 2.349 1_556 S
O18 C2 1.261 . S
O19 Tb1 2.303 1_556 S
O19 C2 1.257 . S
C20 O10 1.236 . S
C20 O11 1.257 . S
O21 Tb0 2.415 . S
O21 C9 1.239 . S
O22 Tb0 2.399 1_556 S
O22 C9 1.263 1_556 S
C23 O12 1.261 . S
C23 O13 1.257 . S
C24 C27 1.358 . S
C24 C28 1.332 1_554 S
C24 C30 1.507 . S
C25 C26 1.373 . S
C25 C29 1.308 1_554 S
C26 C25 1.373 . S
C26 C27 1.429 . S
C26 H36 0.932 . S
C27 C24 1.358 . S
C27 C26 1.429 . S
C27 H37 0.930 . S
C28 C24 1.332 1_556 S
C28 C29 1.394 . S
C28 H38 0.932 . S
C29 C25 1.308 1_556 S
C29 C28 1.394 . S
C29 H39 0.929 . S
C30 Tb1 2.760 1_655 S
C30 O14 1.238 1_654 S
C30 O15 1.260 1_655 S
C30 C24 1.507 . S
C31 O16 1.236 . S
C31 O17 1.257 . S
H32 C5 0.932 1_556 S
H33 C6 0.930 . S
H34 C7 0.932 . S
H35 C8 0.929 . S
H36 C26 0.932 . S
H37 C27 0.930 . S
H38 C28 0.932 . S
H39 C29 0.929 . S
Tb40 C49 2.760 1_655 S
Tb40 O50 2.325 1_655 S
Tb40 O53 2.303 . S
Tb40 O57 2.322 . S
Tb40 O58 2.349 1_554 S
Tb40 O61 2.415 . S
Tb40 O62 2.399 1_554 S
Tb41 O51 2.322 1_655 S
Tb41 O52 2.349 . S
Tb41 O54 2.415 1_554 S
Tb41 O55 2.399 . S
Tb41 O56 2.325 . S
Tb41 O59 2.303 1_554 S
Tb41 C70 2.764 . S
C42 O58 1.261 . S
C42 O59 1.257 . S
C43 C46 1.358 1_554 S
C43 C47 1.332 . S
C43 C49 1.508 . S
C44 C45 1.373 . S
C44 C48 1.308 . S
C45 C44 1.373 . S
C45 C46 1.429 1_554 S
C45 H72 0.932 1_554 S
C46 C43 1.358 1_556 S
C46 C45 1.429 1_556 S
C46 H73 0.930 . S
C47 C43 1.332 . S
C47 C48 1.394 . S
C47 H74 0.932 . S
C48 C44 1.308 . S
C48 C47 1.394 . S
C48 H75 0.929 . S
C49 Tb40 2.760 1_455 S
C49 C43 1.508 . S
C49 O61 1.238 1_455 S
C49 O62 1.259 1_454 S
O50 Tb40 2.325 1_455 S
O50 C60 1.236 . S
O51 Tb41 2.322 1_455 S
O51 C60 1.257 . S
O52 Tb41 2.349 . S
O52 C63 1.261 . S
O53 Tb40 2.303 . S
O53 C63 1.257 . S
O54 Tb41 2.415 1_556 S
O54 C70 1.239 1_556 S
O55 Tb41 2.399 . S
O55 C70 1.263 . S
O56 Tb41 2.325 . S
O56 C71 1.236 . S
O57 Tb40 2.322 . S
O57 C71 1.257 . S
O58 Tb40 2.349 1_556 S
O58 C42 1.261 . S
O59 Tb41 2.303 1_556 S
O59 C42 1.257 . S
C60 O50 1.236 . S
C60 O51 1.257 . S
O61 Tb40 2.415 . S
O61 C49 1.238 1_655 S
O62 Tb40 2.399 1_556 S
O62 C49 1.259 1_656 S
C63 O52 1.261 . S
C63 O53 1.257 . S
C64 C67 1.358 . S
C64 C68 1.332 1_554 S
C64 C70 1.504 . S
C65 C66 1.373 . S
C65 C69 1.308 1_554 S
C66 C65 1.373 . S
C66 C67 1.429 . S
C66 H76 0.932 . S
C67 C64 1.358 . S
C67 C66 1.429 . S
C67 H77 0.930 . S
C68 C64 1.332 1_556 S
C68 C69 1.394 . S
C68 H78 0.932 . S
C69 C65 1.308 1_556 S
C69 C68 1.394 . S
C69 H79 0.929 . S
C70 Tb41 2.764 . S
C70 O54 1.239 1_554 S
C70 O55 1.263 . S
C70 C64 1.504 . S
C71 O56 1.236 . S
C71 O57 1.257 . S
H72 C45 0.932 1_556 S
H73 C46 0.930 . S
H74 C47 0.932 . S
H75 C48 0.929 . S
H76 C66 0.932 . S
H77 C67 0.930 . S
H78 C68 0.932 . S
H79 C69 0.929 . S
Tb80 C89 2.762 1_455 S
Tb80 O90 2.325 1_455 S
Tb80 O93 2.303 . S
Tb80 O97 2.322 . S
Tb80 O98 2.349 . S
Tb80 O101 2.415 . S
Tb80 O102 2.399 . S
Tb81 O91 2.322 1_455 S
Tb81 O92 2.349 . S
Tb81 O94 2.415 . S
Tb81 O95 2.399 . S
Tb81 O96 2.325 . S
Tb81 O99 2.303 . S
Tb81 C110 2.764 . S
C82 O98 1.261 . S
C82 O99 1.257 . S
C83 C86 1.358 . S
C83 C87 1.332 . S
C83 C89 1.506 . S
C84 C85 1.373 . S
C84 C88 1.308 . S
C85 C84 1.373 . S
C85 C86 1.429 . S
C85 H112 0.932 . S
C86 C83 1.358 . S
C86 C85 1.429 . S
C86 H113 0.930 . S
C87 C83 1.332 . S
C87 C88 1.394 . S
C87 H114 0.932 . S
C88 C84 1.308 . S
C88 C87 1.394 . S
C88 H115 0.929 . S
C89 Tb80 2.762 1_655 S
C89 C83 1.506 . S
C89 O101 1.238 1_655 S
C89 O102 1.261 1_655 S
O90 Tb80 2.325 1_655 S
O90 C100 1.236 . S
O91 Tb81 2.322 1_655 S
O91 C100 1.257 . S
O92 Tb81 2.349 . S
O92 C103 1.261 . S
O93 Tb80 2.303 . S
O93 C103 1.257 . S
O94 Tb81 2.415 . S
O94 C110 1.239 . S
O95 Tb81 2.399 . S
O95 C110 1.263 . S
O96 Tb81 2.325 . S
O96 C111 1.236 . S
O97 Tb80 2.322 . S
O97 C111 1.257 . S
O98 Tb80 2.349 . S
O98 C82 1.261 . S
O99 Tb81 2.303 . S
O99 C82 1.257 . S
C100 O90 1.236 . S
C100 O91 1.257 . S
O101 Tb80 2.415 . S
O101 C89 1.238 1_455 S
O102 Tb80 2.399 . S
O102 C89 1.261 1_455 S
C103 O92 1.261 . S
C103 O93 1.257 . S
C104 C107 1.358 . S
C104 C108 1.332 . S
C104 C110 1.504 . S
C105 C106 1.373 . S
C105 C109 1.308 . S
C106 C105 1.373 . S
C106 C107 1.429 . S
C106 H116 0.932 . S
C107 C104 1.358 . S
C107 C106 1.429 . S
C107 H117 0.930 . S
C108 C104 1.332 . S
C108 C109 1.394 . S
C108 H118 0.932 . S
C109 C105 1.308 . S
C109 C108 1.394 . S
C109 H119 0.929 . S
C110 Tb81 2.764 . S
C110 O94 1.239 . S
C110 O95 1.263 . S
C110 C104 1.504 . S
C111 O96 1.236 . S
C111 O97 1.257 . S
H112 C85 0.932 . S
H113 C86 0.930 . S
H114 C87 0.932 . S
H115 C88 0.929 . S
H116 C106 0.932 . S
H117 C107 0.930 . S
H118 C108 0.932 . S
H119 C109 0.929 . S
Tb120 C129 2.764 . S
Tb120 O130 2.325 . S
Tb120 O133 2.303 . S
Tb120 O137 2.322 1_655 S
Tb120 O138 2.349 . S
Tb120 O141 2.415 . S
Tb120 O142 2.399 . S
Tb121 O131 2.322 . S
Tb121 O132 2.349 . S
Tb121 O134 2.415 . S
Tb121 O135 2.399 . S
Tb121 O136 2.325 1_655 S
Tb121 O139 2.303 . S
Tb121 C150 2.763 1_655 S
C122 O138 1.261 . S
C122 O139 1.257 . S
C123 C126 1.358 . S
C123 C127 1.332 . S
C123 C129 1.504 . S
C124 C125 1.373 . S
C124 C128 1.308 . S
C125 C124 1.373 . S
C125 C126 1.429 . S
C125 H152 0.932 . S
C126 C123 1.358 . S
C126 C125 1.429 . S
C126 H153 0.930 . S
C127 C123 1.332 . S
C127 C128 1.394 . S
C127 H154 0.932 . S
C128 C124 1.308 . S
C128 C127 1.394 . S
C128 H155 0.929 . S
C129 Tb120 2.764 . S
C129 C123 1.504 . S
C129 O141 1.239 . S
C129 O142 1.263 . S
O130 Tb120 2.325 . S
O130 C140 1.236 . S
O131 Tb121 2.322 . S
O131 C140 1.257 . S
O132 Tb121 2.349 . S
O132 C143 1.261 . S
O133 Tb120 2.303 . S
O133 C143 1.257 . S
O134 Tb121 2.415 . S
O134 C150 1.238 1_655 S
O135 Tb121 2.399 . S
O135 C150 1.262 1_655 S
O136 Tb121 2.325 1_455 S
O136 C151 1.236 . S
O137 Tb120 2.322 1_455 S
O137 C151 1.257 . S
O138 Tb120 2.349 . S
O138 C122 1.261 . S
O139 Tb121 2.303 . S
O139 C122 1.257 . S
C140 O130 1.236 . S
C140 O131 1.257 . S
O141 Tb120 2.415 . S
O141 C129 1.239 . S
O142 Tb120 2.399 . S
O142 C129 1.263 . S
C143 O132 1.261 . S
C143 O133 1.257 . S
C144 C147 1.358 . S
C144 C148 1.332 . S
C144 C150 1.505 . S
C145 C146 1.373 . S
C145 C149 1.308 . S
C146 C145 1.373 . S
C146 C147 1.429 . S
C146 H156 0.932 . S
C147 C144 1.358 . S
C147 C146 1.429 . S
C147 H157 0.930 . S
C148 C144 1.332 . S
C148 C149 1.394 . S
C148 H158 0.932 . S
C149 C145 1.308 . S
C149 C148 1.394 . S
C149 H159 0.929 . S
C150 Tb121 2.763 1_455 S
C150 O134 1.238 1_455 S
C150 O135 1.262 1_455 S
C150 C144 1.505 . S
C151 O136 1.236 . S
C151 O137 1.257 . S
H152 C125 0.932 . S
H153 C126 0.930 . S
H154 C127 0.932 . S
H155 C128 0.929 . S
H156 C146 0.932 . S
H157 C147 0.930 . S
H158 C148 0.932 . S
H159 C149 0.929 . S
Tb160 C169 2.764 . S
Tb160 O170 2.325 . S
Tb160 O173 2.303 . S
Tb160 O177 2.322 . S
Tb160 O178 2.349 1_554 S
Tb160 O181 2.415 . S
Tb160 O182 2.399 1_554 S
Tb161 O171 2.322 . S
Tb161 O172 2.349 . S
Tb161 O174 2.415 1_554 S
Tb161 O175 2.399 . S
Tb161 O176 2.325 . S
Tb161 O179 2.303 1_554 S
Tb161 C190 2.764 . S
C162 O178 1.261 . S
C162 O179 1.257 . S
C163 C166 1.358 1_554 S
C163 C167 1.332 . S
C163 C169 1.504 . S
C164 C165 1.373 . S
C164 C168 1.308 . S
C165 C164 1.373 . S
C165 C166 1.429 1_554 S
C165 H192 0.932 1_554 S
C166 C163 1.358 1_556 S
C166 C165 1.429 1_556 S
C166 H193 0.930 . S
C167 C163 1.332 . S
C167 C168 1.394 . S
C167 H194 0.932 . S
C168 C164 1.308 . S
C168 C167 1.394 . S
C168 H195 0.929 . S
C169 Tb160 2.764 . S
C169 C163 1.504 . S
C169 O181 1.239 . S
C169 O182 1.263 1_554 S
O170 Tb160 2.325 . S
O170 C180 1.236 . S
O171 Tb161 2.322 . S
O171 C180 1.257 . S
O172 Tb161 2.349 . S
O172 C183 1.261 . S
O173 Tb160 2.303 . S
O173 C183 1.257 . S
O174 Tb161 2.415 1_556 S
O174 C190 1.239 1_556 S
O175 Tb161 2.399 . S
O175 C190 1.263 . S
O176 Tb161 2.325 . S
O176 C191 1.236 . S
O177 Tb160 2.322 . S
O177 C191 1.257 . S
O178 Tb160 2.349 1_556 S
O178 C162 1.261 . S
O179 Tb161 2.303 1_556 S
O179 C162 1.257 . S
C180 O170 1.236 . S
C180 O171 1.257 . S
O181 Tb160 2.415 . S
O181 C169 1.239 . S
O182 Tb160 2.399 1_556 S
O182 C169 1.263 1_556 S
C183 O172 1.261 . S
C183 O173 1.257 . S
C184 C187 1.358 . S
C184 C188 1.332 1_554 S
C184 C190 1.504 . S
C185 C186 1.373 . S
C185 C189 1.308 1_554 S
C186 C185 1.373 . S
C186 C187 1.429 . S
C186 H196 0.932 . S
C187 C184 1.358 . S
C187 C186 1.429 . S
C187 H197 0.930 . S
C188 C184 1.332 1_556 S
C188 C189 1.394 . S
C188 H198 0.932 . S
C189 C185 1.308 1_556 S
C189 C188 1.394 . S
C189 H199 0.929 . S
C190 Tb161 2.764 . S
C190 O174 1.239 1_554 S
C190 O175 1.263 . S
C190 C184 1.504 . S
C191 O176 1.236 . S
C191 O177 1.257 . S
H192 C165 0.932 1_556 S
H193 C166 0.930 . S
H194 C167 0.932 . S
H195 C168 0.929 . S
H196 C186 0.932 . S
H197 C187 0.930 . S
H198 C188 0.932 . S
H199 C189 0.929 . S
Tb200 C209 2.764 . S
Tb200 O210 2.325 . S
Tb200 O213 2.303 . S
Tb200 O217 2.322 . S
Tb200 O218 2.349 1_554 S
Tb200 O221 2.415 . S
Tb200 O222 2.399 1_554 S
Tb201 O211 2.322 . S
Tb201 O212 2.349 . S
Tb201 O214 2.415 1_554 S
Tb201 O215 2.399 . S
Tb201 O216 2.325 . S
Tb201 O219 2.303 1_554 S
Tb201 C230 2.764 . S
C202 O218 1.261 . S
C202 O219 1.257 . S
C203 C206 1.339 1_554 S
C203 C207 1.332 . S
C203 C209 1.504 . S
C204 C205 1.373 . S
C204 C208 1.308 . S
C205 C204 1.373 . S
C205 C206 1.425 1_554 S
C205 H232 0.932 1_554 S
C206 C203 1.339 1_556 S
C206 C205 1.425 1_556 S
C206 H233 0.954 . S
C207 C203 1.332 . S
C207 C208 1.394 . S
C207 H234 0.932 . S
C208 C204 1.308 . S
C208 C207 1.394 . S
C208 H235 0.929 . S
C209 Tb200 2.764 . S
C209 C203 1.504 . S
C209 O221 1.239 . S
C209 O222 1.263 1_554 S
O210 Tb200 2.325 . S
O210 C220 1.236 . S
O211 Tb201 2.322 . S
O211 C220 1.257 . S
O212 Tb201 2.349 . S
O212 C223 1.261 . S
O213 Tb200 2.303 . S
O213 C223 1.257 . S
O214 Tb201 2.415 1_556 S
O214 C230 1.239 1_556 S
O215 Tb201 2.399 . S
O215 C230 1.263 . S
O216 Tb201 2.325 . S
O216 C231 1.236 . S
O217 Tb200 2.322 . S
O217 C231 1.257 . S
O218 Tb200 2.349 1_556 S
O218 C202 1.261 . S
O219 Tb201 2.303 1_556 S
O219 C202 1.257 . S
C220 O210 1.236 . S
C220 O211 1.257 . S
O221 Tb200 2.415 . S
O221 C209 1.239 . S
O222 Tb200 2.399 1_556 S
O222 C209 1.263 1_556 S
C223 O212 1.261 . S
C223 O213 1.257 . S
C224 C227 1.358 . S
C224 C228 1.332 1_554 S
C224 C230 1.504 . S
C225 C226 1.373 . S
C225 C229 1.308 1_554 S
C226 C225 1.373 . S
C226 C227 1.429 . S
C226 H236 0.932 . S
C227 C224 1.358 . S
C227 C226 1.429 . S
C227 H237 0.930 . S
C228 C224 1.332 1_556 S
C228 C229 1.394 . S
C228 H238 0.932 . S
C229 C225 1.308 1_556 S
C229 C228 1.394 . S
C229 H239 0.929 . S
C230 Tb201 2.764 . S
C230 O214 1.239 1_554 S
C230 O215 1.263 . S
C230 C224 1.504 . S
C231 O216 1.236 . S
C231 O217 1.257 . S
H232 C205 0.932 1_556 S
H233 C206 0.954 . S
H234 C207 0.932 . S
H235 C208 0.929 . S
H236 C226 0.932 . S
H237 C227 0.930 . S
H238 C228 0.932 . S
H239 C229 0.929 . S
Tb240 C249 2.764 . S
Tb240 O250 2.325 . S
Tb240 O253 2.303 . S
Tb240 O257 2.322 . S
Tb240 O258 2.349 . S
Tb240 O261 2.415 . S
Tb240 O262 2.399 . S
Tb241 O251 2.322 . S
Tb241 O252 2.349 . S
Tb241 O254 2.415 . S
Tb241 O255 2.399 . S
Tb241 O256 2.325 . S
Tb241 O259 2.303 . S
Tb241 C270 2.764 . S
C242 O258 1.261 . S
C242 O259 1.257 . S
C243 C246 1.358 . S
C243 C247 1.332 . S
C243 C249 1.504 . S
C244 C245 1.373 . S
C244 C248 1.308 . S
C245 C244 1.373 . S
C245 C246 1.429 . S
C245 H272 0.932 . S
C246 C243 1.358 . S
C246 C245 1.429 . S
C246 H273 0.930 . S
C247 C243 1.332 . S
C247 C248 1.394 . S
C247 H274 0.932 . S
C248 C244 1.308 . S
C248 C247 1.394 . S
C248 H275 0.929 . S
C249 Tb240 2.764 . S
C249 C243 1.504 . S
C249 O261 1.239 . S
C249 O262 1.263 . S
O250 Tb240 2.325 . S
O250 C260 1.236 . S
O251 Tb241 2.322 . S
O251 C260 1.257 . S
O252 Tb241 2.349 . S
O252 C263 1.261 . S
O253 Tb240 2.303 . S
O253 C263 1.257 . S
O254 Tb241 2.415 . S
O254 C270 1.239 . S
O255 Tb241 2.399 . S
O255 C270 1.263 . S
O256 Tb241 2.325 . S
O256 C271 1.236 . S
O257 Tb240 2.322 . S
O257 C271 1.257 . S
O258 Tb240 2.349 . S
O258 C242 1.261 . S
O259 Tb241 2.303 . S
O259 C242 1.257 . S
C260 O250 1.236 . S
C260 O251 1.257 . S
O261 Tb240 2.415 . S
O261 C249 1.239 . S
O262 Tb240 2.399 . S
O262 C249 1.263 . S
C263 O252 1.261 . S
C263 O253 1.257 . S
C264 C267 1.358 . S
C264 C268 1.332 . S
C264 C270 1.504 . S
C265 C266 1.373 . S
C265 C269 1.308 . S
C266 C265 1.373 . S
C266 C267 1.429 . S
C266 H276 0.932 . S
C267 C264 1.358 . S
C267 C266 1.429 . S
C267 H277 0.930 . S
C268 C264 1.332 . S
C268 C269 1.394 . S
C268 H278 0.932 . S
C269 C265 1.308 . S
C269 C268 1.394 . S
C269 H279 0.929 . S
C270 Tb241 2.764 . S
C270 O254 1.239 . S
C270 O255 1.263 . S
C270 C264 1.504 . S
C271 O256 1.236 . S
C271 O257 1.257 . S
H272 C245 0.932 . S
H273 C246 0.930 . S
H274 C247 0.932 . S
H275 C248 0.929 . S
H276 C266 0.932 . S
H277 C267 0.930 . S
H278 C268 0.932 . S
H279 C269 0.929 . S
Tb280 C289 2.764 . S
Tb280 O290 2.325 . S
Tb280 O293 2.303 . S
Tb280 O297 2.322 . S
Tb280 O298 2.349 . S
Tb280 O301 2.415 . S
Tb280 O302 2.399 . S
Tb281 O291 2.322 . S
Tb281 O292 2.349 . S
Tb281 O294 2.415 . S
Tb281 O295 2.399 . S
Tb281 O296 2.325 . S
Tb281 O299 2.303 . S
Tb281 C310 2.764 . S
C282 O298 1.261 . S
C282 O299 1.257 . S
C283 C286 1.358 . S
C283 C287 1.332 . S
C283 C289 1.504 . S
C284 C285 1.373 . S
C284 C288 1.308 . S
C285 C284 1.373 . S
C285 C286 1.429 . S
C285 H312 0.932 . S
C286 C283 1.358 . S
C286 C285 1.429 . S
C286 H313 0.930 . S
C287 C283 1.332 . S
C287 C288 1.394 . S
C287 H314 0.932 . S
C288 C284 1.308 . S
C288 C287 1.394 . S
C288 H315 0.929 . S
C289 Tb280 2.764 . S
C289 C283 1.504 . S
C289 O301 1.239 . S
C289 O302 1.263 . S
O290 Tb280 2.325 . S
O290 C300 1.236 . S
O291 Tb281 2.322 . S
O291 C300 1.257 . S
O292 Tb281 2.349 . S
O292 C303 1.261 . S
O293 Tb280 2.303 . S
O293 C303 1.257 . S
O294 Tb281 2.415 . S
O294 C310 1.239 . S
O295 Tb281 2.399 . S
O295 C310 1.263 . S
O296 Tb281 2.325 . S
O296 C311 1.236 . S
O297 Tb280 2.322 . S
O297 C311 1.257 . S
O298 Tb280 2.349 . S
O298 C282 1.261 . S
O299 Tb281 2.303 . S
O299 C282 1.257 . S
C300 O290 1.236 . S
C300 O291 1.257 . S
O301 Tb280 2.415 . S
O301 C289 1.239 . S
O302 Tb280 2.399 . S
O302 C289 1.263 . S
C303 O292 1.261 . S
C303 O293 1.257 . S
C304 C307 1.358 . S
C304 C308 1.332 . S
C304 C310 1.504 . S
C305 C306 1.373 . S
C305 C309 1.308 . S
C306 C305 1.373 . S
C306 C307 1.429 . S
C306 H316 0.932 . S
C307 C304 1.358 . S
C307 C306 1.429 . S
C307 H317 0.930 . S
C308 C304 1.332 . S
C308 C309 1.394 . S
C308 H318 0.932 . S
C309 C305 1.308 . S
C309 C308 1.394 . S
C309 H319 0.929 . S
C310 Tb281 2.764 . S
C310 O294 1.239 . S
C310 O295 1.263 . S
C310 C304 1.504 . S
C311 O296 1.236 . S
C311 O297 1.257 . S
H312 C285 0.932 . S
H313 C286 0.930 . S
H314 C287 0.932 . S
H315 C288 0.929 . S
H316 C306 0.932 . S
H317 C307 0.930 . S
H318 C308 0.932 . S
H319 C309 0.929 . S
H320 C332 0.930 . S
H321 C334 0.930 . S
H322 C335 0.930 . S
H323 C339 0.959 . S
H324 C339 0.959 . S
H325 C339 0.961 . S
H326 C340 0.960 . S
H327 C340 0.961 . S
H328 C340 0.959 1_554 S
H329 C343 0.929 . S
H330 C344 0.931 . S
H331 C346 0.940 . S
C332 H320 0.930 . S
C332 C333 1.399 1_556 S
C332 C337 1.399 1_556 S
C333 C332 1.399 1_554 S
C333 C334 1.376 . S
C334 H321 0.930 . S
C334 C333 1.376 . S
C334 C335 1.388 . S
C335 H322 0.930 . S
C335 C334 1.388 . S
C335 C336 1.390 . S
C336 C335 1.390 . S
C336 C337 1.394 . S
C336 C342 1.465 . S
C337 C332 1.399 1_554 S
C337 C336 1.394 . S
C337 C338 1.516 1_554 S
C338 C337 1.516 1_556 S
C338 C339 1.502 . S
C338 C340 1.561 . S
C338 C341 1.526 1_556 S
C339 H323 0.959 . S
C339 H324 0.959 . S
C339 H325 0.961 . S
C339 C338 1.502 . S
C340 H326 0.960 . S
C340 H327 0.961 . S
C340 H328 0.959 1_556 S
C340 C338 1.561 . S
C341 C338 1.526 1_554 S
C341 C342 1.396 . S
C341 C346 1.390 1_554 S
C342 C336 1.465 . S
C342 C341 1.396 . S
C342 C343 1.399 . S
C343 H329 0.929 . S
C343 C342 1.399 . S
C343 C344 1.385 . S
C344 H330 0.931 . S
C344 C343 1.385 . S
C344 C345 1.389 . S
C345 C344 1.389 . S
C345 C346 1.376 1_554 S
C346 H331 0.940 . S
C346 C341 1.390 1_556 S
C346 C345 1.376 1_556 S
H347 C359 0.930 . S
H348 C361 0.930 . S
H349 C362 0.930 . S
H350 C366 0.959 . S
H351 C366 0.959 . S
H352 C366 0.961 . S
H353 C367 0.960 . S
H354 C367 0.961 . S
H355 C367 0.959 . S
H356 C370 0.929 . S
H357 C371 0.931 . S
H358 C373 0.930 . S
C359 H347 0.930 . S
C359 C360 1.399 . S
C359 C364 1.399 . S
C360 C359 1.399 . S
C360 C361 1.376 1_554 S
C361 H348 0.930 . S
C361 C360 1.376 1_556 S
C361 C362 1.388 . S
C362 H349 0.930 . S
C362 C361 1.388 . S
C362 C363 1.390 1_556 S
C363 C362 1.390 1_554 S
C363 C364 1.394 . S
C363 C369 1.465 . S
C364 C359 1.399 . S
C364 C363 1.394 . S
C364 C365 1.516 . S
C365 C364 1.516 . S
C365 C366 1.502 . S
C365 C367 1.561 . S
C365 C368 1.526 . S
C366 H350 0.959 . S
C366 H351 0.959 . S
C366 H352 0.961 . S
C366 C365 1.502 . S
C367 H353 0.960 . S
C367 H354 0.961 . S
C367 H355 0.959 . S
C367 C365 1.561 . S
C368 C365 1.526 . S
C368 C369 1.396 . S
C368 C373 1.390 . S
C369 C363 1.465 . S
C369 C368 1.396 . S
C369 C370 1.399 1_554 S
C370 H356 0.929 . S
C370 C369 1.399 1_556 S
C370 C371 1.385 . S
C371 H357 0.931 . S
C371 C370 1.385 . S
C371 C372 1.389 1_556 S
C372 C371 1.389 1_554 S
C372 C373 1.387 . S
C373 H358 0.930 . S
C373 C368 1.390 . S
C373 C372 1.387 . S
H374 C386 0.930 . S
H375 C388 0.930 . S
H376 C389 0.930 . S
H377 C393 0.959 . S
H378 C393 0.959 . S
H379 C393 0.961 . S
H380 C394 0.960 . S
H381 C394 0.961 . S
H382 C394 0.959 . S
H383 C397 0.929 . S
H384 C398 0.931 . S
H385 C400 0.930 . S
C386 H374 0.930 . S
C386 C387 1.399 . S
C386 C391 1.399 . S
C387 C386 1.399 . S
C387 C388 1.376 . S
C388 H375 0.930 . S
C388 C387 1.376 . S
C388 C389 1.388 . S
C389 H376 0.930 . S
C389 C388 1.388 . S
C389 C390 1.390 . S
C390 C389 1.390 . S
C390 C391 1.394 . S
C390 C396 1.465 . S
C391 C386 1.399 . S
C391 C390 1.394 . S
C391 C392 1.516 . S
C392 C391 1.516 . S
C392 C393 1.502 . S
C392 C394 1.561 . S
C392 C395 1.526 . S
C393 H377 0.959 . S
C393 H378 0.959 . S
C393 H379 0.961 . S
C393 C392 1.502 . S
C394 H380 0.960 . S
C394 H381 0.961 . S
C394 H382 0.959 . S
C394 C392 1.561 . S
C395 C392 1.526 . S
C395 C396 1.396 . S
C395 C400 1.390 . S
C396 C390 1.465 . S
C396 C395 1.396 . S
C396 C397 1.399 . S
C397 H383 0.929 . S
C397 C396 1.399 . S
C397 C398 1.385 . S
C398 H384 0.931 . S
C398 C397 1.385 . S
C398 C399 1.389 . S
C399 C398 1.389 . S
C399 C400 1.387 . S
C400 H385 0.930 . S
C400 C395 1.390 . S
C400 C399 1.387 . S
H401 C413 0.930 . S
H402 C415 0.930 . S
H403 C416 0.930 . S
H404 C420 0.959 . S
H405 C420 0.959 . S
H406 C420 0.961 . S
H407 C421 0.960 . S
H408 C421 0.961 . S
H409 C421 0.959 . S
H410 C424 0.929 . S
H411 C425 0.931 . S
H412 C427 0.930 . S
C413 H401 0.930 . S
C413 C414 1.399 . S
C413 C418 1.399 . S
C414 C413 1.399 . S
C414 C415 1.376 . S
C415 H402 0.930 . S
C415 C414 1.376 . S
C415 C416 1.388 . S
C416 H403 0.930 . S
C416 C415 1.388 . S
C416 C417 1.390 . S
C417 C416 1.390 . S
C417 C418 1.394 . S
C417 C423 1.465 . S
C418 C413 1.399 . S
C418 C417 1.394 . S
C418 C419 1.516 . S
C419 C418 1.516 . S
C419 C420 1.502 . S
C419 C421 1.561 . S
C419 C422 1.526 . S
C420 H404 0.959 . S
C420 H405 0.959 . S
C420 H406 0.961 . S
C420 C419 1.502 . S
C421 H407 0.960 . S
C421 H408 0.961 . S
C421 H409 0.959 . S
C421 C419 1.561 . S
C422 C419 1.526 . S
C422 C423 1.396 . S
C422 C427 1.390 . S
C423 C417 1.465 . S
C423 C422 1.396 . S
C423 C424 1.399 . S
C424 H410 0.929 . S
C424 C423 1.399 . S
C424 C425 1.385 . S
C425 H411 0.931 . S
C425 C424 1.385 . S
C425 C426 1.389 . S
C426 C425 1.389 . S
C426 C427 1.387 . S
C427 H412 0.930 . S
C427 C422 1.390 . S
C427 C426 1.387 . S
H428 C440 0.930 . S
H429 C442 0.930 . S
H430 C443 0.930 1_455 S
H431 C447 0.959 . S
H432 C447 0.959 . S
H433 C447 0.961 1_655 S
H434 C448 0.960 . S
H435 C448 0.961 . S
H436 C448 0.959 . S
H437 C451 0.929 . S
H438 C452 0.931 . S
H439 C454 0.930 . S
C440 H428 0.930 . S
C440 C441 1.399 . S
C440 C445 1.399 . S
C441 C440 1.399 . S
C441 C442 1.376 1_554 S
C442 H429 0.930 . S
C442 C441 1.376 1_556 S
C442 C443 1.388 . S
C443 H430 0.930 1_655 S
C443 C442 1.388 . S
C443 C444 1.390 1_655 S
C444 C443 1.390 1_455 S
C444 C445 1.394 1_456 S
C444 C450 1.465 . S
C445 C440 1.399 . S
C445 C444 1.394 1_654 S
C445 C446 1.516 1_655 S
C446 C445 1.516 1_455 S
C446 C447 1.502 . S
C446 C448 1.561 . S
C446 C449 1.526 . S
C447 H431 0.959 . S
C447 H432 0.959 . S
C447 H433 0.961 1_455 S
C447 C446 1.502 . S
C448 H434 0.960 . S
C448 H435 0.961 . S
C448 H436 0.959 . S
C448 C446 1.561 . S
C449 C446 1.526 . S
C449 C450 1.396 1_554 S
C449 C454 1.390 . S
C450 C444 1.465 . S
C450 C449 1.396 1_556 S
C450 C451 1.399 . S
C451 H437 0.929 . S
C451 C450 1.399 . S
C451 C452 1.385 . S
C452 H438 0.931 . S
C452 C451 1.385 . S
C452 C453 1.389 1_556 S
C453 C452 1.389 1_554 S
C453 C454 1.387 . S
C454 H439 0.930 . S
C454 C449 1.390 . S
C454 C453 1.387 . S
H455 C467 0.930 . S
H456 C469 0.930 . S
H457 C470 0.930 . S
H458 C474 0.959 . S
H459 C474 0.959 . S
H460 C474 0.961 . S
H461 C475 0.960 . S
H462 C475 0.961 . S
H463 C475 0.959 . S
H464 C478 0.929 . S
H465 C479 0.931 . S
H466 C481 0.930 . S
C467 H455 0.930 . S
C467 C468 1.399 . S
C467 C472 1.399 . S
C468 C467 1.399 . S
C468 C469 1.376 . S
C469 H456 0.930 . S
C469 C468 1.376 . S
C469 C470 1.388 . S
C470 H457 0.930 . S
C470 C469 1.388 . S
C470 C471 1.390 1_455 S
C471 C470 1.390 1_655 S
C471 C472 1.394 1_655 S
C471 C477 1.465 . S
C472 C467 1.399 . S
C472 C471 1.394 1_455 S
C472 C473 1.516 1_455 S
C473 C472 1.516 1_655 S
C473 C474 1.502 . S
C473 C475 1.561 1_554 S
C473 C476 1.526 . S
C474 H458 0.959 . S
C474 H459 0.959 . S
C474 H460 0.961 . S
C474 C473 1.502 . S
C475 H461 0.960 . S
C475 H462 0.961 . S
C475 H463 0.959 . S
C475 C473 1.561 1_556 S
C476 C473 1.526 . S
C476 C477 1.396 . S
C476 C481 1.390 . S
C477 C471 1.465 . S
C477 C476 1.396 . S
C477 C478 1.399 . S
C478 H464 0.929 . S
C478 C477 1.399 . S
C478 C479 1.385 . S
C479 H465 0.931 . S
C479 C478 1.385 . S
C479 C480 1.389 . S
C480 C479 1.389 . S
C480 C481 1.387 . S
C481 H466 0.930 . S
C481 C476 1.390 . S
C481 C480 1.387 . S
H482 C494 0.930 . S
H483 C496 0.930 . S
H484 C497 0.930 . S
H485 C501 0.959 . S
H486 C501 0.959 1_655 S
H487 C501 0.961 . S
H488 C502 0.960 . S
H489 C502 0.961 . S
H490 C502 0.959 . S
H491 C505 0.929 1_455 S
H492 C506 0.931 . S
H493 C508 0.930 . S
C494 H482 0.930 . S
C494 C495 1.399 . S
C494 C499 1.399 . S
C495 C494 1.399 . S
C495 C496 1.376 . S
C496 H483 0.930 . S
C496 C495 1.376 . S
C496 C497 1.388 . S
C497 H484 0.930 . S
C497 C496 1.388 . S
C497 C498 1.390 . S
C498 C497 1.390 . S
C498 C499 1.394 . S
C498 C504 1.465 . S
C499 C494 1.399 . S
C499 C498 1.394 . S
C499 C500 1.516 . S
C500 C499 1.516 . S
C500 C501 1.502 . S
C500 C502 1.561 . S
C500 C503 1.526 1_455 S
C501 H485 0.959 . S
C501 H486 0.959 1_455 S
C501 H487 0.961 . S
C501 C500 1.502 . S
C502 H488 0.960 . S
C502 H489 0.961 . S
C502 H490 0.959 . S
C502 C500 1.561 . S
C503 C500 1.526 1_655 S
C503 C504 1.396 1_655 S
C503 C508 1.390 . S
C504 C498 1.465 . S
C504 C503 1.396 1_455 S
C504 C505 1.399 1_455 S
C505 H491 0.929 1_655 S
C505 C504 1.399 1_655 S
C505 C506 1.385 . S
C506 H492 0.931 . S
C506 C505 1.385 . S
C506 C507 1.389 . S
C507 C506 1.389 . S
C507 C508 1.387 . S
C508 H493 0.930 . S
C508 C503 1.390 . S
C508 C507 1.387 . S
H509 C521 0.930 . S
H510 C523 0.930 . S
H511 C524 0.930 . S
H512 C528 0.959 . S
H513 C528 0.959 . S
H514 C528 0.961 . S
H515 C529 0.960 . S
H516 C529 0.961 . S
H517 C529 0.959 . S
H518 C532 0.929 . S
H519 C533 0.931 . S
H520 C535 0.930 . S
C521 H509 0.930 . S
C521 C522 1.399 . S
C521 C526 1.399 . S
C522 C521 1.399 . S
C522 C523 1.376 . S
C523 H510 0.930 . S
C523 C522 1.376 . S
C523 C524 1.388 . S
C524 H511 0.930 . S
C524 C523 1.388 . S
C524 C525 1.390 . S
C525 C524 1.390 . S
C525 C526 1.394 . S
C525 C531 1.465 . S
C526 C521 1.399 . S
C526 C525 1.394 . S
C526 C527 1.516 . S
C527 C526 1.516 . S
C527 C528 1.502 . S
C527 C529 1.561 . S
C527 C530 1.526 1_655 S
C528 H512 0.959 . S
C528 H513 0.959 . S
C528 H514 0.961 . S
C528 C527 1.502 . S
C529 H515 0.960 . S
C529 H516 0.961 . S
C529 H517 0.959 . S
C529 C527 1.561 . S
C530 C527 1.526 1_455 S
C530 C531 1.396 1_455 S
C530 C535 1.390 . S
C531 C525 1.465 . S
C531 C530 1.396 1_655 S
C531 C532 1.399 1_655 S
C532 H518 0.929 . S
C532 C531 1.399 1_455 S
C532 C533 1.385 . S
C533 H519 0.931 . S
C533 C532 1.385 . S
C533 C534 1.389 . S
C534 C533 1.389 . S
C534 C535 1.387 . S
C535 H520 0.930 . S
C535 C530 1.390 . S
C535 C534 1.387 . S
H536 C548 0.930 . S
H537 C550 0.930 . S
H538 C551 0.930 1_655 S
H539 C555 0.959 . S
H540 C555 0.959 . S
H541 C555 0.961 . S
H542 C556 0.960 . S
H543 C556 0.961 . S
H544 C556 0.959 . S
H545 C559 0.929 . S
H546 C560 0.931 . S
H547 C562 0.930 . S
C548 H536 0.930 . S
C548 C549 1.399 . S
C548 C553 1.399 . S
C549 C548 1.399 . S
C549 C550 1.376 1_554 S
C550 H537 0.930 . S
C550 C549 1.376 1_556 S
C550 C551 1.388 . S
C551 H538 0.930 1_455 S
C551 C550 1.388 . S
C551 C552 1.390 1_556 S
C552 C551 1.390 1_554 S
C552 C553 1.394 . S
C552 C558 1.465 1_455 S
C553 C548 1.399 . S
C553 C552 1.394 . S
C553 C554 1.516 . S
C554 C553 1.516 . S
C554 C555 1.502 . S
C554 C556 1.561 1_455 S
C554 C557 1.526 1_455 S
C555 H539 0.959 . S
C555 H540 0.959 . S
C555 H541 0.961 . S
C555 C554 1.502 . S
C556 H542 0.960 . S
C556 H543 0.961 . S
C556 H544 0.959 . S
C556 C554 1.561 1_655 S
C557 C554 1.526 1_655 S
C557 C558 1.396 . S
C557 C562 1.390 . S
C558 C552 1.465 1_655 S
C558 C557 1.396 . S
C558 C559 1.399 1_554 S
C559 H545 0.929 . S
C559 C558 1.399 1_556 S
C559 C560 1.385 . S
C560 H546 0.931 . S
C560 C559 1.385 . S
C560 C561 1.389 1_556 S
C561 C560 1.389 1_554 S
C561 C562 1.387 . S
C562 H547 0.930 . S
C562 C557 1.390 . S
C562 C561 1.387 . S
H563 C575 0.930 . S
H564 C577 0.930 . S
H565 C578 0.930 1_655 S
H566 C582 0.959 . S
H567 C582 0.959 . S
H568 C582 0.961 . S
H569 C583 0.960 . S
H570 C583 0.961 . S
H571 C583 0.959 . S
H572 C586 0.929 . S
H573 C587 0.931 . S
H574 C589 0.930 . S
C575 H563 0.930 . S
C575 C576 1.399 . S
C575 C580 1.399 . S
C576 C575 1.399 . S
C576 C577 1.376 . S
C577 H564 0.930 . S
C577 C576 1.376 . S
C577 C578 1.388 . S
C578 H565 0.930 1_455 S
C578 C577 1.388 . S
C578 C579 1.390 . S
C579 C578 1.390 . S
C579 C580 1.394 . S
C579 C585 1.465 1_455 S
C580 C575 1.399 . S
C580 C579 1.394 . S
C580 C581 1.516 . S
C581 C580 1.516 . S
C581 C582 1.502 . S
C581 C583 1.561 1_455 S
C581 C584 1.526 1_455 S
C582 H566 0.959 . S
C582 H567 0.959 . S
C582 H568 0.961 . S
C582 C581 1.502 . S
C583 H569 0.960 . S
C583 H570 0.961 . S
C583 H571 0.959 . S
C583 C581 1.561 1_655 S
C584 C581 1.526 1_655 S
C584 C585 1.396 . S
C584 C589 1.390 . S
C585 C579 1.465 1_655 S
C585 C584 1.396 . S
C585 C586 1.399 . S
C586 H572 0.929 . S
C586 C585 1.399 . S
C586 C587 1.385 . S
C587 H573 0.931 . S
C587 C586 1.385 . S
C587 C588 1.389 . S
C588 C587 1.389 . S
C588 C589 1.387 . S
C589 H574 0.930 . S
C589 C584 1.390 . S
C589 C588 1.387 . S
H590 C602 0.930 . S
H591 C604 0.930 . S
H592 C605 0.930 . S
H593 C609 0.959 . S
H594 C609 0.959 . S
H595 C609 0.943 1_565 S
H596 C610 0.960 . S
H597 C610 0.961 1_545 S
H598 C610 0.959 . S
H599 C613 0.929 . S
H600 C614 0.931 . S
H601 C616 0.930 . S
C602 H590 0.930 . S
C602 C603 1.399 . S
C602 C607 1.399 . S
C603 C602 1.399 . S
C603 C604 1.376 1_554 S
C604 H591 0.930 . S
C604 C603 1.376 1_556 S
C604 C605 1.388 . S
C605 H592 0.930 . S
C605 C604 1.388 . S
C605 C606 1.390 1_556 S
C606 C605 1.390 1_554 S
C606 C607 1.394 . S
C606 C612 1.465 1_565 S
C607 C602 1.399 . S
C607 C606 1.394 . S
C607 C608 1.461 1_565 S
C608 C607 1.461 1_545 S
C608 C609 1.532 . S
C608 C610 1.539 1_545 S
C608 C611 1.576 . S
C609 H593 0.959 . S
C609 H594 0.959 . S
C609 H595 0.943 1_545 S
C609 C608 1.532 . S
C610 H596 0.960 . S
C610 H597 0.961 1_565 S
C610 H598 0.959 . S
C610 C608 1.539 1_565 S
C611 C608 1.576 . S
C611 C612 1.396 . S
C611 C616 1.390 . S
C612 C606 1.465 1_545 S
C612 C611 1.396 . S
C612 C613 1.399 1_554 S
C613 H599 0.929 . S
C613 C612 1.399 1_556 S
C613 C614 1.385 . S
C614 H600 0.931 . S
C614 C613 1.385 . S
C614 C615 1.389 1_556 S
C615 C614 1.389 1_554 S
C615 C616 1.387 . S
C616 H601 0.930 . S
C616 C611 1.390 . S
C616 C615 1.387 . S
H617 C629 0.930 . S
H618 C631 0.930 . S
H619 C632 0.930 . S
H620 C636 0.959 . S
H621 C636 0.959 . S
H622 C636 0.961 . S
H623 C637 0.960 . S
H624 C637 0.961 1_565 S
H625 C637 0.959 1_565 S
H626 C640 0.929 . S
H627 C641 0.931 . S
H628 C643 0.930 . S
C629 H617 0.930 . S
C629 C630 1.399 . S
C629 C634 1.399 . S
C630 C629 1.399 . S
C630 C631 1.376 . S
C631 H618 0.930 . S
C631 C630 1.376 . S
C631 C632 1.388 . S
C632 H619 0.930 . S
C632 C631 1.388 . S
C632 C633 1.390 . S
C633 C632 1.390 . S
C633 C634 1.394 . S
C633 C639 1.465 1_545 S
C634 C629 1.399 . S
C634 C633 1.394 . S
C634 C635 1.516 . S
C635 C634 1.516 . S
C635 C636 1.502 . S
C635 C637 1.561 . S
C635 C638 1.526 1_545 S
C636 H620 0.959 . S
C636 H621 0.959 . S
C636 H622 0.961 . S
C636 C635 1.502 . S
C637 H623 0.960 . S
C637 H624 0.961 1_545 S
C637 H625 0.959 1_545 S
C637 C635 1.561 . S
C638 C635 1.526 1_565 S
C638 C639 1.396 . S
C638 C643 1.390 . S
C639 C633 1.465 1_565 S
C639 C638 1.396 . S
C639 C640 1.399 . S
C640 H626 0.929 . S
C640 C639 1.399 . S
C640 C641 1.385 . S
C641 H627 0.931 . S
C641 C640 1.385 . S
C641 C642 1.389 . S
C642 C641 1.389 . S
C642 C643 1.387 . S
C643 H628 0.930 . S
C643 C638 1.390 . S
C643 C642 1.387 . S
H644 C656 0.930 . S
H645 C658 0.930 . S
H646 C659 0.930 . S
H647 C663 0.959 . S
H648 C663 0.959 . S
H649 C663 0.961 . S
H650 C664 0.960 . S
H651 C664 0.961 . S
H652 C664 0.959 . S
H653 C667 0.929 . S
H654 C668 0.931 . S
H655 C670 0.930 . S
C656 H644 0.930 . S
C656 C657 1.399 . S
C656 C661 1.399 . S
C657 C656 1.399 . S
C657 C658 1.376 1_554 S
C658 H645 0.930 . S
C658 C657 1.376 1_556 S
C658 C659 1.388 . S
C659 H646 0.930 . S
C659 C658 1.388 . S
C659 C660 1.390 1_556 S
C660 C659 1.390 1_554 S
C660 C661 1.394 . S
C660 C666 1.465 . S
C661 C656 1.399 . S
C661 C660 1.394 . S
C661 C662 1.516 . S
C662 C661 1.516 . S
C662 C663 1.502 . S
C662 C664 1.561 . S
C662 C665 1.526 . S
C663 H647 0.959 . S
C663 H648 0.959 . S
C663 H649 0.961 . S
C663 C662 1.502 . S
C664 H650 0.960 . S
C664 H651 0.961 . S
C664 H652 0.959 . S
C664 C662 1.561 . S
C665 C662 1.526 . S
C665 C666 1.396 . S
C665 C670 1.390 . S
C666 C660 1.465 . S
C666 C665 1.396 . S
C666 C667 1.399 1_554 S
C667 H653 0.929 . S
C667 C666 1.399 1_556 S
C667 C668 1.385 . S
C668 H654 0.931 . S
C668 C667 1.385 . S
C668 C669 1.389 1_556 S
C669 C668 1.389 1_554 S
C669 C670 1.387 . S
C670 H655 0.930 . S
C670 C665 1.390 . S
C670 C669 1.387 . S
H671 C683 0.930 1_556 S
H672 C685 0.930 . S
H673 C686 0.930 . S
H674 C690 0.959 . S
H675 C690 0.959 . S
H676 C690 0.961 . S
H677 C691 0.960 . S
H678 C691 0.961 . S
H679 C691 0.959 . S
H680 C694 0.929 . S
H681 C695 0.931 . S
H682 C697 0.930 . S
C683 H671 0.930 1_554 S
C683 C684 1.399 . S
C683 C688 1.399 . S
C684 C683 1.399 . S
C684 C685 1.376 . S
C685 H672 0.930 . S
C685 C684 1.376 . S
C685 C686 1.388 . S
C686 H673 0.930 . S
C686 C685 1.388 . S
C686 C687 1.390 . S
C687 C686 1.390 . S
C687 C688 1.394 . S
C687 C693 1.465 . S
C688 C683 1.399 . S
C688 C687 1.394 . S
C688 C689 1.516 1_554 S
C689 C688 1.516 1_556 S
C689 C690 1.502 . S
C689 C691 1.561 . S
C689 C692 1.526 . S
C690 H674 0.959 . S
C690 H675 0.959 . S
C690 H676 0.961 . S
C690 C689 1.502 . S
C691 H677 0.960 . S
C691 H678 0.961 . S
C691 H679 0.959 . S
C691 C689 1.561 . S
C692 C689 1.526 . S
C692 C693 1.396 1_556 S
C692 C697 1.390 . S
C693 C687 1.465 . S
C693 C692 1.396 1_554 S
C693 C694 1.399 . S
C694 H680 0.929 . S
C694 C693 1.399 . S
C694 C695 1.385 . S
C695 H681 0.931 . S
C695 C694 1.385 . S
C695 C696 1.389 . S
C696 C695 1.389 . S
C696 C697 1.387 1_554 S
C697 H682 0.930 . S
C697 C692 1.390 . S
C697 C696 1.387 1_556 S
H698 C710 0.930 . S
H699 C712 0.930 . S
H700 C713 0.930 . S
H701 C717 0.959 . S
H702 C717 0.959 . S
H703 C717 0.961 . S
H704 C718 0.960 . S
H705 C718 0.961 . S
H706 C718 0.959 . S
H707 C721 0.929 . S
H708 C722 0.931 . S
H709 C724 0.930 . S
C710 H698 0.930 . S
C710 C711 1.399 . S
C710 C715 1.399 . S
C711 C710 1.399 . S
C711 C712 1.376 . S
C712 H699 0.930 . S
C712 C711 1.376 . S
C712 C713 1.388 . S
C713 H700 0.930 . S
C713 C712 1.388 . S
C713 C714 1.390 . S
C714 C713 1.390 . S
C714 C715 1.394 . S
C714 C720 1.465 . S
C715 C710 1.399 . S
C715 C714 1.394 . S
C715 C716 1.516 . S
C716 C715 1.516 . S
C716 C717 1.502 . S
C716 C718 1.561 . S
C716 C719 1.526 . S
C717 H701 0.959 . S
C717 H702 0.959 . S
C717 H703 0.961 . S
C717 C716 1.502 . S
C718 H704 0.960 . S
C718 H705 0.961 . S
C718 H706 0.959 . S
C718 C716 1.561 . S
C719 C716 1.526 . S
C719 C720 1.396 . S
C719 C724 1.390 . S
C720 C714 1.465 . S
C720 C719 1.396 . S
C720 C721 1.399 . S
C721 H707 0.929 . S
C721 C720 1.399 . S
C721 C722 1.385 . S
C722 H708 0.931 . S
C722 C721 1.385 . S
C722 C723 1.389 . S
C723 C722 1.389 . S
C723 C724 1.387 . S
C724 H709 0.930 . S
C724 C719 1.390 . S
C724 C723 1.387 . S
H725 C737 0.930 . S
H726 C739 0.930 . S
H727 C740 0.930 . S
H728 C744 0.959 . S
H729 C744 0.959 . S
H730 C744 0.961 . S
H731 C745 0.960 . S
H732 C745 0.961 . S
H733 C745 0.959 . S
H734 C748 0.929 . S
H735 C749 0.931 . S
H736 C751 0.930 . S
C737 H725 0.930 . S
C737 C738 1.399 . S
C737 C742 1.399 . S
C738 C737 1.399 . S
C738 C739 1.376 . S
C739 H726 0.930 . S
C739 C738 1.376 . S
C739 C740 1.388 . S
C740 H727 0.930 . S
C740 C739 1.388 . S
C740 C741 1.390 . S
C741 C740 1.390 . S
C741 C742 1.394 . S
C741 C747 1.465 . S
C742 C737 1.399 . S
C742 C741 1.394 . S
C742 C743 1.516 . S
C743 C742 1.516 . S
C743 C744 1.502 . S
C743 C745 1.561 . S
C743 C746 1.526 . S
C744 H728 0.959 . S
C744 H729 0.959 . S
C744 H730 0.961 . S
C744 C743 1.502 . S
C745 H731 0.960 . S
C745 H732 0.961 . S
C745 H733 0.959 . S
C745 C743 1.561 . S
C746 C743 1.526 . S
C746 C747 1.396 . S
C746 C751 1.390 . S
C747 C741 1.465 . S
C747 C746 1.396 . S
C747 C748 1.399 . S
C748 H734 0.929 . S
C748 C747 1.399 . S
C748 C749 1.385 . S
C749 H735 0.931 . S
C749 C748 1.385 . S
C749 C750 1.389 . S
C750 C749 1.389 . S
C750 C751 1.387 . S
C751 H736 0.930 . S
C751 C746 1.390 . S
C751 C750 1.387 . S
H752 C764 0.930 . S
H753 C766 0.930 . S
H754 C767 0.930 . S
H755 C771 0.959 . S
H756 C771 0.959 . S
H757 C771 0.961 . S
H758 C772 0.960 . S
H759 C772 0.961 . S
H760 C772 0.959 . S
H761 C775 0.929 . S
H762 C776 0.931 . S
H763 C778 0.930 . S
C764 H752 0.930 . S
C764 C765 1.399 . S
C764 C769 1.399 . S
C765 C764 1.399 . S
C765 C766 1.376 . S
C766 H753 0.930 . S
C766 C765 1.376 . S
C766 C767 1.388 . S
C767 H754 0.930 . S
C767 C766 1.388 . S
C767 C768 1.390 . S
C768 C767 1.390 . S
C768 C769 1.394 . S
C768 C774 1.465 . S
C769 C764 1.399 . S
C769 C768 1.394 . S
C769 C770 1.516 1_455 S
C770 C769 1.516 1_655 S
C770 C771 1.502 . S
C770 C772 1.561 1_655 S
C770 C773 1.526 . S
C771 H755 0.959 . S
C771 H756 0.959 . S
C771 H757 0.961 . S
C771 C770 1.502 . S
C772 H758 0.960 . S
C772 H759 0.961 . S
C772 H760 0.959 . S
C772 C770 1.561 1_455 S
C773 C770 1.526 . S
C773 C774 1.396 1_655 S
C773 C778 1.390 . S
C774 C768 1.465 . S
C774 C773 1.396 1_455 S
C774 C775 1.399 . S
C775 H761 0.929 . S
C775 C774 1.399 . S
C775 C776 1.385 1_455 S
C776 H762 0.931 . S
C776 C775 1.385 1_655 S
C776 C777 1.389 . S
C777 C776 1.389 . S
C777 C778 1.387 . S
C778 H763 0.930 . S
C778 C773 1.390 . S
C778 C777 1.387 . S
H779 C791 0.930 1_455 S
H780 C793 0.930 . S
H781 C794 0.930 . S
H782 C798 0.959 . S
H783 C798 0.959 . S
H784 C798 0.961 . S
H785 C799 0.960 . S
H786 C799 0.961 . S
H787 C799 0.959 1_655 S
H788 C802 0.929 . S
H789 C803 0.931 . S
H790 C805 0.930 . S
C791 H779 0.930 1_655 S
C791 C792 1.399 . S
C791 C796 1.399 1_655 S
C792 C791 1.399 . S
C792 C793 1.376 . S
C793 H780 0.930 . S
C793 C792 1.376 . S
C793 C794 1.388 . S
C794 H781 0.930 . S
C794 C793 1.388 . S
C794 C795 1.390 . S
C795 C794 1.390 . S
C795 C796 1.394 1_655 S
C795 C801 1.465 . S
C796 C791 1.399 1_455 S
C796 C795 1.394 1_455 S
C796 C797 1.516 . S
C797 C796 1.516 . S
C797 C798 1.502 . S
C797 C799 1.561 . S
C797 C800 1.526 . S
C798 H782 0.959 . S
C798 H783 0.959 . S
C798 H784 0.961 . S
C798 C797 1.502 . S
C799 H785 0.960 . S
C799 H786 0.961 . S
C799 H787 0.959 1_455 S
C799 C797 1.561 . S
C800 C797 1.526 . S
C800 C801 1.396 1_455 S
C800 C805 1.390 . S
C801 C795 1.465 . S
C801 C800 1.396 1_655 S
C801 C802 1.399 . S
C802 H788 0.929 . S
C802 C801 1.399 . S
C802 C803 1.385 . S
C803 H789 0.931 . S
C803 C802 1.385 . S
C803 C804 1.389 1_655 S
C804 C803 1.389 1_455 S
C804 C805 1.387 . S
C805 H790 0.930 . S
C805 C800 1.390 . S
C805 C804 1.387 . S
H806 C818 0.930 . S
H807 C820 0.930 . S
H808 C821 0.930 . S
H809 C825 0.959 . S
H810 C825 0.959 . S
H811 C825 0.961 . S
H812 C826 0.960 1_655 S
H813 C826 0.961 . S
H814 C826 0.959 . S
H815 C829 0.929 . S
H816 C830 0.931 . S
H817 C832 0.930 1_655 S
C818 H806 0.930 . S
C818 C819 1.399 . S
C818 C823 1.399 . S
C819 C818 1.399 . S
C819 C820 1.376 1_655 S
C820 H807 0.930 . S
C820 C819 1.376 1_455 S
C820 C821 1.388 . S
C821 H808 0.930 . S
C821 C820 1.388 . S
C821 C822 1.390 . S
C822 C821 1.390 . S
C822 C823 1.394 1_455 S
C822 C828 1.465 . S
C823 C818 1.399 . S
C823 C822 1.394 1_655 S
C823 C824 1.516 . S
C824 C823 1.516 . S
C824 C825 1.502 . S
C824 C826 1.561 1_655 S
C824 C827 1.526 1_655 S
C825 H809 0.959 . S
C825 H810 0.959 . S
C825 H811 0.961 . S
C825 C824 1.502 . S
C826 H812 0.960 1_455 S
C826 H813 0.961 . S
C826 H814 0.959 . S
C826 C824 1.561 1_455 S
C827 C824 1.526 1_455 S
C827 C828 1.396 . S
C827 C832 1.390 . S
C828 C822 1.465 . S
C828 C827 1.396 . S
C828 C829 1.399 . S
C829 H815 0.929 . S
C829 C828 1.399 . S
C829 C830 1.385 . S
C830 H816 0.931 . S
C830 C829 1.385 . S
C830 C831 1.389 . S
C831 C830 1.389 . S
C831 C832 1.387 . S
C832 H817 0.930 1_455 S
C832 C827 1.390 . S
C832 C831 1.387 . S
H833 C845 0.930 . S
H834 C847 0.930 . S
H835 C848 0.930 . S
H836 C852 0.959 . S
H837 C852 0.959 . S
H838 C852 0.961 . S
H839 C853 0.960 . S
H840 C853 0.961 . S
H841 C853 0.959 . S
H842 C856 0.929 . S
H843 C857 0.931 . S
H844 C859 0.930 . S
C845 H833 0.930 . S
C845 C846 1.399 . S
C845 C850 1.399 . S
C846 C845 1.399 . S
C846 C847 1.376 . S
C847 H834 0.930 . S
C847 C846 1.376 . S
C847 C848 1.388 1_655 S
C848 H835 0.930 . S
C848 C847 1.388 1_455 S
C848 C849 1.390 . S
C849 C848 1.390 . S
C849 C850 1.394 1_455 S
C849 C855 1.465 . S
C850 C845 1.399 . S
C850 C849 1.394 1_655 S
C850 C851 1.516 . S
C851 C850 1.516 . S
C851 C852 1.502 . S
C851 C853 1.561 1_655 S
C851 C854 1.526 1_655 S
C852 H836 0.959 . S
C852 H837 0.959 . S
C852 H838 0.961 . S
C852 C851 1.502 . S
C853 H839 0.960 . S
C853 H840 0.961 . S
C853 H841 0.959 . S
C853 C851 1.561 1_455 S
C854 C851 1.526 1_455 S
C854 C855 1.396 . S
C854 C859 1.390 . S
C855 C849 1.465 . S
C855 C854 1.396 . S
C855 C856 1.399 . S
C856 H842 0.929 . S
C856 C855 1.399 . S
C856 C857 1.385 . S
C857 H843 0.931 . S
C857 C856 1.385 . S
C857 C858 1.389 . S
C858 C857 1.389 . S
C858 C859 1.387 . S
C859 H844 0.930 . S
C859 C854 1.390 . S
C859 C858 1.387 . S
H860 C872 0.930 . S
H861 C874 0.930 . S
H862 C875 0.930 . S
H863 C879 0.959 . S
H864 C879 0.959 . S
H865 C879 0.961 . S
H866 C880 0.960 . S
H867 C880 0.961 . S
H868 C880 0.959 . S
H869 C883 0.929 . S
H870 C884 0.931 . S
H871 C886 0.930 . S
C872 H860 0.930 . S
C872 C873 1.399 . S
C872 C877 1.399 . S
C873 C872 1.399 . S
C873 C874 1.376 . S
C874 H861 0.930 . S
C874 C873 1.376 . S
C874 C875 1.388 . S
C875 H862 0.930 . S
C875 C874 1.388 . S
C875 C876 1.390 . S
C876 C875 1.390 . S
C876 C877 1.394 . S
C876 C882 1.465 . S
C877 C872 1.399 . S
C877 C876 1.394 . S
C877 C878 1.516 . S
C878 C877 1.516 . S
C878 C879 1.502 . S
C878 C880 1.561 . S
C878 C881 1.526 . S
C879 H863 0.959 . S
C879 H864 0.959 . S
C879 H865 0.961 . S
C879 C878 1.502 . S
C880 H866 0.960 . S
C880 H867 0.961 . S
C880 H868 0.959 . S
C880 C878 1.561 . S
C881 C878 1.526 . S
C881 C882 1.396 . S
C881 C886 1.390 . S
C882 C876 1.465 . S
C882 C881 1.396 . S
C882 C883 1.399 . S
C883 H869 0.929 . S
C883 C882 1.399 . S
C883 C884 1.385 . S
C884 H870 0.931 . S
C884 C883 1.385 . S
C884 C885 1.389 . S
C885 C884 1.389 . S
C885 C886 1.387 . S
C886 H871 0.930 . S
C886 C881 1.390 . S
C886 C885 1.387 . S
H887 C899 0.930 . S
H888 C901 0.930 . S
H889 C902 0.930 . S
H890 C906 0.959 . S
H891 C906 0.959 . S
H892 C906 0.961 . S
H893 C907 0.960 . S
H894 C907 0.961 . S
H895 C907 0.959 . S
H896 C910 0.929 . S
H897 C911 0.931 . S
H898 C913 0.930 . S
C899 H887 0.930 . S
C899 C900 1.399 . S
C899 C904 1.399 . S
C900 C899 1.399 . S
C900 C901 1.376 . S
C901 H888 0.930 . S
C901 C900 1.376 . S
C901 C902 1.388 . S
C902 H889 0.930 . S
C902 C901 1.388 . S
C902 C903 1.390 . S
C903 C902 1.390 . S
C903 C904 1.394 . S
C903 C909 1.465 . S
C904 C899 1.399 . S
C904 C903 1.394 . S
C904 C905 1.516 . S
C905 C904 1.516 . S
C905 C906 1.502 . S
C905 C907 1.561 . S
C905 C908 1.526 . S
C906 H890 0.959 . S
C906 H891 0.959 . S
C906 H892 0.961 . S
C906 C905 1.502 . S
C907 H893 0.960 . S
C907 H894 0.961 . S
C907 H895 0.959 . S
C907 C905 1.561 . S
C908 C905 1.526 . S
C908 C909 1.396 . S
C908 C913 1.390 . S
C909 C903 1.465 . S
C909 C908 1.396 . S
C909 C910 1.399 . S
C910 H896 0.929 . S
C910 C909 1.399 . S
C910 C911 1.385 . S
C911 H897 0.931 . S
C911 C910 1.385 . S
C911 C912 1.389 . S
C912 C911 1.389 . S
C912 C913 1.387 . S
C913 H898 0.930 . S
C913 C908 1.390 . S
C913 C912 1.387 . S
H914 C926 0.930 . S
H915 C928 0.930 . S
H916 C929 0.930 . S
H917 C933 0.959 . S
H918 C933 0.959 . S
H919 C933 0.961 . S
H920 C934 0.960 . S
H921 C934 0.961 . S
H922 C934 0.959 . S
H923 C937 0.929 . S
H924 C938 0.931 . S
H925 C940 0.930 . S
C926 H914 0.930 . S
C926 C927 1.399 . S
C926 C931 1.399 . S
C927 C926 1.399 . S
C927 C928 1.376 . S
C928 H915 0.930 . S
C928 C927 1.376 . S
C928 C929 1.388 . S
C929 H916 0.930 . S
C929 C928 1.388 . S
C929 C930 1.390 . S
C930 C929 1.390 . S
C930 C931 1.394 . S
C930 C936 1.465 . S
C931 C926 1.399 . S
C931 C930 1.394 . S
C931 C932 1.516 . S
C932 C931 1.516 . S
C932 C933 1.502 . S
C932 C934 1.561 . S
C932 C935 1.526 . S
C933 H917 0.959 . S
C933 H918 0.959 . S
C933 H919 0.961 . S
C933 C932 1.502 . S
C934 H920 0.960 . S
C934 H921 0.961 . S
C934 H922 0.959 . S
C934 C932 1.561 . S
C935 C932 1.526 . S
C935 C936 1.396 . S
C935 C940 1.390 . S
C936 C930 1.465 . S
C936 C935 1.396 . S
C936 C937 1.399 . S
C937 H923 0.929 . S
C937 C936 1.399 . S
C937 C938 1.385 . S
C938 H924 0.931 . S
C938 C937 1.385 . S
C938 C939 1.389 . S
C939 C938 1.389 . S
C939 C940 1.387 . S
C940 H925 0.930 . S
C940 C935 1.390 . S
C940 C939 1.387 . S
H941 C953 0.930 . S
H942 C955 0.930 . S
H943 C956 0.930 . S
H944 C960 0.959 . S
H945 C960 0.959 . S
H946 C960 0.961 . S
H947 C961 0.960 . S
H948 C961 0.961 . S
H949 C961 0.959 . S
H950 C964 0.929 . S
H951 C965 0.931 . S
H952 C967 0.930 . S
C953 H941 0.930 . S
C953 C954 1.399 . S
C953 C958 1.399 . S
C954 C953 1.399 . S
C954 C955 1.376 . S
C955 H942 0.930 . S
C955 C954 1.376 . S
C955 C956 1.388 . S
C956 H943 0.930 . S
C956 C955 1.388 . S
C956 C957 1.390 . S
C957 C956 1.390 . S
C957 C958 1.394 . S
C957 C963 1.465 . S
C958 C953 1.399 . S
C958 C957 1.394 . S
C958 C959 1.516 . S
C959 C958 1.516 . S
C959 C960 1.502 . S
C959 C961 1.561 . S
C959 C962 1.526 . S
C960 H944 0.959 . S
C960 H945 0.959 . S
C960 H946 0.961 . S
C960 C959 1.502 . S
C961 H947 0.960 . S
C961 H948 0.961 . S
C961 H949 0.959 . S
C961 C959 1.561 . S
C962 C959 1.526 . S
C962 C963 1.396 . S
C962 C967 1.390 . S
C963 C957 1.465 . S
C963 C962 1.396 . S
C963 C964 1.399 . S
C964 H950 0.929 . S
C964 C963 1.399 . S
C964 C965 1.385 . S
C965 H951 0.931 . S
C965 C964 1.385 . S
C965 C966 1.389 . S
C966 C965 1.389 . S
C966 C967 1.387 . S
C967 H952 0.930 . S
C967 C962 1.390 . S
C967 C966 1.387 . S
C333 C20 2.109 . S
C345 C31 2.093 . S
C360 C60 2.110 . S
C372 C71 2.102 . S
C387 C100 2.104 . S
C399 C111 2.098 . S
C414 C140 2.109 . S
C426 C151 2.093 . S
C441 C180 2.103 . S
C453 C191 2.109 . S
C468 C231 2.089 . S
C480 C220 2.119 . S
C495 C260 2.106 . S
C507 C271 2.096 . S
C522 C311 2.112 . S
C534 C300 2.091 . S
C549 C44 2.365 . S
C561 C25 2.411 . S
C576 C145 2.385 . S
C588 C84 2.388 . S
C603 C185 2.369 . S
C615 C204 2.403 . S
C630 C244 2.419 . S
C642 C305 2.372 . S
C657 C4 1.700 . S
C669 C225 1.740 . S
C684 C164 1.741 . S
C696 C65 1.707 . S
C711 C105 1.712 . S
C723 C284 1.724 . S
C738 C124 1.701 . S
C750 C265 1.738 . S
C765 C23 1.395 . S
C777 C143 1.375 . S
C792 C63 1.684 . S
C804 C103 1.670 . S
C819 C42 1.377 . S
C831 C82 1.393 . S
C846 C122 1.676 . S
C858 C2 1.692 . S
C873 C183 1.398 . S
C885 C303 1.374 . S
C900 C223 1.692 . S
C912 C263 1.682 . S
C927 C202 1.397 . S
C939 C242 1.417 . S
C954 C282 1.673 . S
C966 C162 1.693 . S
