# Generated by pormake.
# Topology thp-x, (12)-cn, num edge types: 1
# Building blocks:
#     Node 0, Type 0, BuildingBlock: ZALLEG_clean_sbu_0, # of connection points: 12
#     Node 1, Type 0, BuildingBlock: ZALLEG_clean_sbu_0, # of connection points: 12
#     Node 2, Type 0, BuildingBlock: ZALLEG_clean_sbu_0, # of connection points: 12
#     Node 3, Type 0, BuildingBlock: ZALLEG_clean_sbu_0, # of connection points: 12
#     Node 4, Type 0, BuildingBlock: ZALLEG_clean_sbu_0, # of connection points: 12
#     Node 5, Type 0, BuildingBlock: ZALLEG_clean_sbu_0, # of connection points: 12
#     Node 6, Type 0, BuildingBlock: ZALLEG_clean_sbu_0, # of connection points: 12
#     Node 7, Type 0, BuildingBlock: ZALLEG_clean_sbu_0, # of connection points: 12
#     Node 8, Type 0, BuildingBlock: ZALLEG_clean_sbu_0, # of connection points: 12
#     Node 9, Type 0, BuildingBlock: ZALLEG_clean_sbu_0, # of connection points: 12
#     Node 10, Type 0, BuildingBlock: ZALLEG_clean_sbu_0, # of connection points: 12
#     Node 11, Type 0, BuildingBlock: ZALLEG_clean_sbu_0, # of connection points: 12
#     Edge 12, Type (0, 0), BuildingBlock: KIFKEQ_clean_linker_1, # of connection points: 2
#     Edge 13, Type (0, 0), BuildingBlock: KIFKEQ_clean_linker_1, # of connection points: 2
#     Edge 14, Type (0, 0), BuildingBlock: KIFKEQ_clean_linker_1, # of connection points: 2
#     Edge 15, Type (0, 0), BuildingBlock: KIFKEQ_clean_linker_1, # of connection points: 2
#     Edge 16, Type (0, 0), BuildingBlock: KIFKEQ_clean_linker_1, # of connection points: 2
#     Edge 17, Type (0, 0), BuildingBlock: KIFKEQ_clean_linker_1, # of connection points: 2
#     Edge 18, Type (0, 0), BuildingBlock: KIFKEQ_clean_linker_1, # of connection points: 2
#     Edge 19, Type (0, 0), BuildingBlock: KIFKEQ_clean_linker_1, # of connection points: 2
#     Edge 20, Type (0, 0), BuildingBlock: KIFKEQ_clean_linker_1, # of connection points: 2
#     Edge 21, Type (0, 0), BuildingBlock: KIFKEQ_clean_linker_1, # of connection points: 2
#     Edge 22, Type (0, 0), BuildingBlock: KIFKEQ_clean_linker_1, # of connection points: 2
#     Edge 23, Type (0, 0), BuildingBlock: KIFKEQ_clean_linker_1, # of connection points: 2
#     Edge 24, Type (0, 0), BuildingBlock: KIFKEQ_clean_linker_1, # of connection points: 2
#     Edge 25, Type (0, 0), BuildingBlock: KIFKEQ_clean_linker_1, # of connection points: 2
#     Edge 26, Type (0, 0), BuildingBlock: KIFKEQ_clean_linker_1, # of connection points: 2
#     Edge 27, Type (0, 0), BuildingBlock: KIFKEQ_clean_linker_1, # of connection points: 2
#     Edge 28, Type (0, 0), BuildingBlock: KIFKEQ_clean_linker_1, # of connection points: 2
#     Edge 29, Type (0, 0), BuildingBlock: KIFKEQ_clean_linker_1, # of connection points: 2
#     Edge 30, Type (0, 0), BuildingBlock: KIFKEQ_clean_linker_1, # of connection points: 2
#     Edge 31, Type (0, 0), BuildingBlock: KIFKEQ_clean_linker_1, # of connection points: 2
#     Edge 32, Type (0, 0), BuildingBlock: KIFKEQ_clean_linker_1, # of connection points: 2
#     Edge 33, Type (0, 0), BuildingBlock: KIFKEQ_clean_linker_1, # of connection points: 2
#     Edge 34, Type (0, 0), BuildingBlock: KIFKEQ_clean_linker_1, # of connection points: 2
#     Edge 35, Type (0, 0), BuildingBlock: KIFKEQ_clean_linker_1, # of connection points: 2
#     Edge 36, Type (0, 0), BuildingBlock: KIFKEQ_clean_linker_1, # of connection points: 2
#     Edge 37, Type (0, 0), BuildingBlock: KIFKEQ_clean_linker_1, # of connection points: 2
#     Edge 38, Type (0, 0), BuildingBlock: KIFKEQ_clean_linker_1, # of connection points: 2
#     Edge 39, Type (0, 0), BuildingBlock: KIFKEQ_clean_linker_1, # of connection points: 2
#     Edge 40, Type (0, 0), BuildingBlock: KIFKEQ_clean_linker_1, # of connection points: 2
#     Edge 41, Type (0, 0), BuildingBlock: KIFKEQ_clean_linker_1, # of connection points: 2
#     Edge 42, Type (0, 0), BuildingBlock: KIFKEQ_clean_linker_1, # of connection points: 2
#     Edge 43, Type (0, 0), BuildingBlock: KIFKEQ_clean_linker_1, # of connection points: 2
#     Edge 44, Type (0, 0), BuildingBlock: KIFKEQ_clean_linker_1, # of connection points: 2
#     Edge 45, Type (0, 0), BuildingBlock: KIFKEQ_clean_linker_1, # of connection points: 2
#     Edge 46, Type (0, 0), BuildingBlock: KIFKEQ_clean_linker_1, # of connection points: 2
#     Edge 47, Type (0, 0), BuildingBlock: KIFKEQ_clean_linker_1, # of connection points: 2
#     Edge 48, Type (0, 0), BuildingBlock: KIFKEQ_clean_linker_1, # of connection points: 2
#     Edge 49, Type (0, 0), BuildingBlock: KIFKEQ_clean_linker_1, # of connection points: 2
#     Edge 50, Type (0, 0), BuildingBlock: KIFKEQ_clean_linker_1, # of connection points: 2
#     Edge 51, Type (0, 0), BuildingBlock: KIFKEQ_clean_linker_1, # of connection points: 2
#     Edge 52, Type (0, 0), BuildingBlock: KIFKEQ_clean_linker_1, # of connection points: 2
#     Edge 53, Type (0, 0), BuildingBlock: KIFKEQ_clean_linker_1, # of connection points: 2
#     Edge 54, Type (0, 0), BuildingBlock: KIFKEQ_clean_linker_1, # of connection points: 2
#     Edge 55, Type (0, 0), BuildingBlock: KIFKEQ_clean_linker_1, # of connection points: 2
#     Edge 56, Type (0, 0), BuildingBlock: KIFKEQ_clean_linker_1, # of connection points: 2
#     Edge 57, Type (0, 0), BuildingBlock: KIFKEQ_clean_linker_1, # of connection points: 2
#     Edge 58, Type (0, 0), BuildingBlock: KIFKEQ_clean_linker_1, # of connection points: 2
#     Edge 59, Type (0, 0), BuildingBlock: KIFKEQ_clean_linker_1, # of connection points: 2
#     Edge 60, Type (0, 0), BuildingBlock: KIFKEQ_clean_linker_1, # of connection points: 2
#     Edge 61, Type (0, 0), BuildingBlock: KIFKEQ_clean_linker_1, # of connection points: 2
#     Edge 62, Type (0, 0), BuildingBlock: KIFKEQ_clean_linker_1, # of connection points: 2
#     Edge 63, Type (0, 0), BuildingBlock: KIFKEQ_clean_linker_1, # of connection points: 2
#     Edge 64, Type (0, 0), BuildingBlock: KIFKEQ_clean_linker_1, # of connection points: 2
#     Edge 65, Type (0, 0), BuildingBlock: KIFKEQ_clean_linker_1, # of connection points: 2
#     Edge 66, Type (0, 0), BuildingBlock: KIFKEQ_clean_linker_1, # of connection points: 2
#     Edge 67, Type (0, 0), BuildingBlock: KIFKEQ_clean_linker_1, # of connection points: 2
#     Edge 68, Type (0, 0), BuildingBlock: KIFKEQ_clean_linker_1, # of connection points: 2
#     Edge 69, Type (0, 0), BuildingBlock: KIFKEQ_clean_linker_1, # of connection points: 2
#     Edge 70, Type (0, 0), BuildingBlock: KIFKEQ_clean_linker_1, # of connection points: 2
#     Edge 71, Type (0, 0), BuildingBlock: KIFKEQ_clean_linker_1, # of connection points: 2
#     Edge 72, Type (0, 0), BuildingBlock: KIFKEQ_clean_linker_1, # of connection points: 2
#     Edge 73, Type (0, 0), BuildingBlock: KIFKEQ_clean_linker_1, # of connection points: 2
#     Edge 74, Type (0, 0), BuildingBlock: KIFKEQ_clean_linker_1, # of connection points: 2
#     Edge 75, Type (0, 0), BuildingBlock: KIFKEQ_clean_linker_1, # of connection points: 2
#     Edge 76, Type (0, 0), BuildingBlock: KIFKEQ_clean_linker_1, # of connection points: 2
#     Edge 77, Type (0, 0), BuildingBlock: KIFKEQ_clean_linker_1, # of connection points: 2
#     Edge 78, Type (0, 0), BuildingBlock: KIFKEQ_clean_linker_1, # of connection points: 2
#     Edge 79, Type (0, 0), BuildingBlock: KIFKEQ_clean_linker_1, # of connection points: 2
#     Edge 80, Type (0, 0), BuildingBlock: KIFKEQ_clean_linker_1, # of connection points: 2
#     Edge 81, Type (0, 0), BuildingBlock: KIFKEQ_clean_linker_1, # of connection points: 2
#     Edge 82, Type (0, 0), BuildingBlock: KIFKEQ_clean_linker_1, # of connection points: 2
#     Edge 83, Type (0, 0), BuildingBlock: KIFKEQ_clean_linker_1, # of connection points: 2
# Relax obj value: 0.246
# Max RMSD: 0.289
# Mean RMSD: 0.289
data_MOF--net-thp-x--node1-ZALLEG_clean_sbu_0--edge1-KIFKEQ_clean_linker_1
_symmetry_space_group_name_H-M    P1
_symmetry_Int_Tables_number       1
_symmetry_cell_setting            triclinic
loop_
_symmetry_equiv_pos_as_xyz
'x, y, z'
_cell_length_a     35.164674
_cell_length_b     35.230921
_cell_length_c     35.252754
_cell_angle_alpha  90.056596
_cell_angle_beta   89.999234
_cell_angle_gamma 90.036167
loop_
_atom_site_label
_atom_site_type_symbol
_atom_site_fract_x
_atom_site_fract_y
_atom_site_fract_z
_atom_type_partial_charge
H0 H 0.06093 0.19098 0.44436 0.0
O1 O 0.04254 0.20817 0.43202 0.0
Tb2 Tb 1.00707 0.23288 0.47348 0.0
Tb3 Tb 0.07071 0.25057 0.40005 0.0
Tb4 Tb 1.00877 0.17793 0.39368 0.0
O5 O 0.03728 0.27525 0.44302 0.0
O6 O 0.97262 0.20174 0.43466 0.0
O7 O 0.96882 0.26887 0.44409 0.0
O8 O 0.03317 0.2862 0.37147 0.0
O9 O 0.97058 0.21267 0.36311 0.0
O10 O 0.03917 0.21812 0.36078 0.0
H11 H 0.05318 0.28981 0.461 0.0
H12 H 0.9573 0.18216 0.44773 0.0
Tb13 Tb 0.99882 0.31001 0.41368 0.0
Tb14 Tb 0.93648 0.23899 0.40408 0.0
H15 H 0.95144 0.28092 0.46236 0.0
H16 H 0.0472 0.30703 0.35904 0.0
Tb17 Tb 1.00037 0.25393 0.33195 0.0
H18 H 0.9547 0.19818 0.34514 0.0
H19 H 0.05582 0.20547 0.34203 0.0
O20 O 0.96547 0.28095 0.37333 0.0
H21 H 0.9478 0.29913 0.36129 0.0
O22 O 0.07297 0.23231 0.49734 0.0
O23 O 0.94502 0.25642 0.30377 0.0
O24 O 0.05108 0.2638 0.29845 0.0
O25 O 0.944 0.22785 0.50206 0.0
O26 O 0.10682 0.20163 0.39142 0.0
O27 O 0.90062 0.28788 0.41592 0.0
O28 O 0.90617 0.18582 0.39406 0.0
O29 O 0.0995 0.3056 0.41087 0.0
O30 O 1.01382 0.13736 0.44028 0.0
O31 O 0.9947 0.35563 0.37139 0.0
O32 O 0.99623 0.33197 0.47192 0.0
O33 O 1.00955 0.1431 0.34428 0.0
O34 O 0.11296 0.24502 0.44414 0.0
O35 O 0.90087 0.24659 0.35424 0.0
O36 O 0.89871 0.2292 0.4515 0.0
O37 O 0.09915 0.26491 0.34643 0.0
O38 O 1.00391 0.279 0.51366 0.0
O39 O 1.00157 0.1922 0.29821 0.0
O40 O 0.99741 0.32036 0.31354 0.0
O41 O 1.01051 0.17554 0.496 0.0
O42 O 0.04741 0.34721 0.41874 0.0
O43 O 0.95778 0.14353 0.38651 0.0
O44 O 0.0641 0.14978 0.38583 0.0
O45 O 0.94468 0.33828 0.42153 0.0
C46 C 0.10938 0.2372 0.48082 0.0
C47 C 0.90971 0.25273 0.31801 0.0
C48 C 0.0865 0.26988 0.31087 0.0
C49 C 0.90633 0.22731 0.48828 0.0
C50 C 0.09888 0.1649 0.38712 0.0
C51 C 0.90966 0.32399 0.42252 0.0
C52 C 0.92064 0.15174 0.38652 0.0
C53 C 0.08448 0.33996 0.41746 0.0
C54 C 1.01403 0.14227 0.47781 0.0
C55 C 0.99539 0.35495 0.33344 0.0
C56 C 0.99671 0.31539 0.50617 0.0
C57 C 1.00505 0.15337 0.30868 0.0
H58 H 0.56131 0.69305 0.94844 0.0
O59 O 0.54313 0.70939 0.93472 0.0
Tb60 Tb 0.50924 0.73779 0.97501 0.0
Tb61 Tb 0.57166 0.74874 0.89942 0.0
Tb62 Tb 0.50832 0.67691 0.89896 0.0
O63 O 0.53973 0.77708 0.94112 0.0
O64 O 0.47364 0.70469 0.93879 0.0
O65 O 0.47117 0.77251 0.94378 0.0
O66 O 0.53484 0.78318 0.86878 0.0
O67 O 0.47046 0.71045 0.86667 0.0
O68 O 0.53896 0.71419 0.8631 0.0
H69 H 0.55614 0.79259 0.95778 0.0
H70 H 0.45805 0.68644 0.95337 0.0
Tb71 Tb 0.50174 0.81041 0.90987 0.0
Tb72 Tb 0.43776 0.74047 0.90637 0.0
H73 H 0.45422 0.78626 0.96128 0.0
H74 H 0.54931 0.80266 0.85477 0.0
Tb75 Tb 0.50052 0.74893 0.83235 0.0
H76 H 0.45423 0.69501 0.84984 0.0
H77 H 0.55527 0.69979 0.84533 0.0
O78 O 0.467 0.77948 0.87222 0.0
H79 H 0.44951 0.79709 0.85915 0.0
O80 O 0.57587 0.73887 0.9975 0.0
O81 O 0.44432 0.75008 0.80538 0.0
O82 O 0.55079 0.75535 0.79751 0.0
O83 O 0.44665 0.7351 1.00456 0.0
O84 O 0.60661 0.6987 0.89475 0.0
O85 O 0.40281 0.7908 0.91486 0.0
O86 O 0.40601 0.68756 0.90061 0.0
O87 O 0.60191 0.80384 0.90681 0.0
O88 O 0.5123 0.6398 0.94845 0.0
O89 O 0.49891 0.85368 0.86544 0.0
O90 O 0.50229 0.83702 0.96591 0.0
O91 O 0.50836 0.63936 0.85088 0.0
O92 O 0.61467 0.74584 0.94248 0.0
O93 O 0.40105 0.74539 0.8573 0.0
O94 O 0.40067 0.7345 0.95463 0.0
O95 O 0.59968 0.75758 0.84462 0.0
O96 O 0.5059 0.78713 1.01163 0.0
O97 O 0.5012 0.68577 0.80199 0.0
O98 O 0.49811 0.81416 0.81021 0.0
O99 O 0.51228 0.682 1.00143 0.0
O100 O 0.55086 0.84709 0.91137 0.0
O101 O 0.4563 0.64334 0.89497 0.0
O102 O 0.56324 0.64707 0.89466 0.0
O103 O 0.44828 0.84013 0.91574 0.0
C104 C 0.61196 0.74226 0.97979 0.0
C105 C 0.4092 0.74826 0.82059 0.0
C106 C 0.58663 0.76059 0.80903 0.0
C107 C 0.40886 0.73433 0.99125 0.0
C108 C 0.59821 0.66185 0.89465 0.0
C109 C 0.41286 0.82709 0.91811 0.0
C110 C 0.41945 0.65275 0.89497 0.0
C111 C 0.58772 0.83897 0.91097 0.0
C112 C 0.51379 0.64741 0.98553 0.0
C113 C 0.49808 0.85007 0.82778 0.0
C114 C 0.50041 0.8232 1.00124 0.0
C115 C 0.5043 0.64762 0.81456 0.0
H116 H 0.95576 0.69887 0.20298 0.0
O117 O 0.97279 0.71504 0.18763 0.0
Tb118 Tb 1.00244 0.75333 0.22318 0.0
Tb119 Tb 1.01178 0.68222 0.15529 0.0
Tb120 Tb 0.94114 0.74635 0.14849 0.0
O121 O 0.04056 0.71869 0.1926 0.0
O122 O 0.97035 0.78496 0.1832 0.0
O123 O 0.03813 0.78734 0.18822 0.0
O124 O 0.04734 0.71406 0.12051 0.0
O125 O 0.97548 0.7793 0.11163 0.0
O126 O 0.97748 0.71113 0.1161 0.0
H127 H 0.05517 0.70388 0.21131 0.0
H128 H 0.95267 0.80248 0.19615 0.0
Tb129 Tb 0.07484 0.75246 0.15749 0.0
Tb130 Tb 1.00651 0.81636 0.14673 0.0
H131 H 0.05266 0.80549 0.20391 0.0
H132 H 0.06611 0.69722 0.10816 0.0
Tb133 Tb 1.01284 0.74391 0.08074 0.0
H134 H 0.96018 0.79367 0.09308 0.0
H135 H 0.96269 0.69332 0.10025 0.0
O136 O 0.0441 0.78199 0.11608 0.0
H137 H 0.06224 0.79716 0.10098 0.0
O138 O 1.00144 0.68975 0.25308 0.0
O139 O 1.01539 0.79388 0.04474 0.0
O140 O 1.0173 0.68849 0.05371 0.0
O141 O 0.99997 0.81916 0.2455 0.0
O142 O 0.96272 0.64545 0.15213 0.0
O143 O 0.05799 0.85177 0.15048 0.0
O144 O 0.95311 0.84622 0.14063 0.0
O145 O 0.06617 0.65348 0.16674 0.0
O146 O 0.90459 0.75241 0.19891 0.0
O147 O 0.11764 0.74997 0.11269 0.0
O148 O 0.10225 0.75693 0.21315 0.0
O149 O 0.90333 0.74056 0.10165 0.0
O150 O 1.00697 0.64493 0.2028 0.0
O151 O 1.01265 0.84375 0.09078 0.0
O152 O 1.00194 0.85945 0.19089 0.0
O153 O 1.01769 0.64544 0.10586 0.0
O154 O 0.05215 0.75692 0.25898 0.0
O155 O 0.94898 0.7404 0.05144 0.0
O156 O 0.0779 0.7429 0.05807 0.0
O157 O 0.94779 0.75287 0.25102 0.0
O158 O 0.11047 0.70391 0.16673 0.0
O159 O 0.90694 0.79726 0.13672 0.0
O160 O 0.91288 0.6906 0.14958 0.0
O161 O 0.10604 0.8053 0.15625 0.0
C162 C 1.00346 0.65189 0.23946 0.0
C163 C 1.01644 0.83037 0.05525 0.0
C164 C 1.01862 0.65362 0.06899 0.0
C165 C 1.00031 0.85546 0.22839 0.0
C166 C 0.92625 0.6549 0.15076 0.0
C167 C 0.09427 0.84106 0.15387 0.0
C168 C 0.91778 0.83357 0.13569 0.0
C169 C 0.10112 0.66776 0.17124 0.0
C170 C 0.91296 0.75398 0.23592 0.0
C171 C 0.11384 0.74564 0.07531 0.0
C172 C 0.0887 0.75679 0.24867 0.0
C173 C 0.91096 0.73935 0.06502 0.0
H174 H 0.45281 1.01543 0.3128 0.0
O175 O 0.43835 0.0343 0.29801 0.0
Tb176 Tb 0.40832 0.07132 0.33335 0.0
Tb177 Tb 0.47623 0.06581 0.26356 0.0
Tb178 Tb 0.39694 1.00642 0.2651 0.0
O179 O 0.44545 0.10346 0.29943 0.0
O180 O 0.36641 0.04196 0.30143 0.0
O181 O 0.37382 0.10915 0.30154 0.0
O182 O 0.44339 0.10329 0.23132 0.0
O183 O 0.36495 0.04354 0.23183 0.0
O184 O 0.43661 0.03459 0.22998 0.0
H185 H 0.46306 0.11841 0.31544 0.0
H186 H 0.34959 1.02688 0.31808 0.0
Tb187 Tb 0.41051 0.13953 0.26581 0.0
Tb188 Tb 0.33389 0.08013 0.2677 0.0
H189 H 0.35958 0.1263 0.31851 0.0
H190 H 0.46174 0.11746 0.2157 0.0
Tb191 Tb 0.40451 0.07291 0.1981 0.0
H192 H 0.3468 1.02995 0.21538 0.0
H193 H 0.44957 1.01622 0.21317 0.0
O194 O 0.37147 0.11106 0.23129 0.0
H195 H 0.358 0.12933 0.21475 0.0
O196 O 0.46369 0.06171 0.36258 0.0
O197 O 0.3571 0.08031 0.15962 0.0
O198 O 0.45659 0.06809 0.16417 0.0
O199 O 0.36288 0.07514 0.37528 0.0
O200 O 0.49708 0.99964 0.26181 0.0
O201 O 0.3077 0.13557 0.26832 0.0
O202 O 0.29542 0.03211 0.26673 0.0
O203 O 0.50744 0.12873 0.2629 0.0
O204 O 0.39646 0.97307 0.31637 0.0
O205 O 0.41923 0.16977 0.21205 0.0
O206 O 0.41229 0.17331 0.31767 0.0
O207 O 0.38941 0.97366 0.21409 0.0
O208 O 0.51086 0.06191 0.31378 0.0
O209 O 0.30592 0.083 0.20422 0.0
O210 O 0.30967 0.08143 0.33334 0.0
O211 O 0.50618 0.06231 0.21008 0.0
O212 O 0.41275 0.1246 0.36424 0.0
O213 O 0.39475 1.02054 0.16644 0.0
O214 O 0.41556 0.12294 0.16406 0.0
O215 O 0.40388 1.01819 0.36578 0.0
O216 O 0.45896 0.17617 0.26642 0.0
O217 O 0.33957 0.98076 0.26342 0.0
O218 O 0.44041 0.96242 0.26259 0.0
O219 O 0.3609 0.17753 0.26797 0.0
C220 C 0.49969 0.0591 0.34978 0.0
C221 C 0.32012 0.08272 0.16674 0.0
C222 C 0.49294 0.06451 0.17458 0.0
C223 C 0.32555 0.07912 0.37028 0.0
C224 C 0.47828 0.96426 0.26176 0.0
C225 C 0.32366 0.17 0.26897 0.0
C226 C 0.30431 0.99545 0.26338 0.0
C227 C 0.49527 0.16714 0.26412 0.0
C228 C 0.40041 0.98282 0.35259 0.0
C229 C 0.42245 0.15807 0.17593 0.0
C230 C 0.41193 0.16094 0.35326 0.0
C231 C 0.38838 0.98514 0.17829 0.0
H232 H 0.36896 0.44335 0.99273 0.0
O233 O 0.35052 0.43075 1.00968 0.0
Tb234 Tb 0.32425 0.47277 0.04274 0.0
Tb235 Tb 0.30917 0.39935 0.97915 0.0
Tb236 Tb 0.37741 0.39188 0.04577 0.0
O237 O 0.28295 0.44297 1.01042 0.0
O238 O 0.35169 0.43347 0.07939 0.0
O239 O 0.28504 0.44479 0.07922 0.0
O240 O 0.27067 0.37188 1.01462 0.0
O241 O 0.34008 0.36153 0.08226 0.0
O242 O 0.33893 0.35967 1.0126 0.0
H243 H 0.2695 0.46091 0.99358 0.0
H244 H 0.37046 0.4462 0.09596 0.0
Tb245 Tb 0.24505 0.41507 0.04682 0.0
Tb246 Tb 0.31179 0.40391 0.11323 0.0
H247 H 0.27246 0.46335 0.09594 0.0
H248 H 0.25052 0.35961 0.9995 0.0
Tb249 Tb 0.30028 0.33166 0.04914 0.0
H250 H 0.35267 0.34326 0.0994 0.0
H251 H 0.35251 0.34095 0.99667 0.0
O252 O 0.27174 0.37453 0.08086 0.0
H253 H 0.25114 0.3637 0.09641 0.0
O254 O 0.32781 0.49613 0.97677 0.0
O255 O 0.28813 0.30461 0.10393 0.0
O256 O 0.2931 0.29841 0.99798 0.0
O257 O 0.32748 0.50121 0.10577 0.0
O258 O 0.36076 0.39129 0.94668 0.0
O259 O 0.2608 0.41716 0.14564 0.0
O260 O 0.36301 0.39363 0.14692 0.0
O261 O 0.25579 0.41058 0.94716 0.0
O262 O 0.41947 0.43729 0.04581 0.0
O263 O 0.19899 0.37228 0.04875 0.0
O264 O 0.22482 0.47432 0.04857 0.0
O265 O 0.41186 0.34243 0.04576 0.0
O266 O 0.31669 0.44264 0.93685 0.0
O267 O 0.29459 0.35565 0.14787 0.0
O268 O 0.32087 0.45108 0.15108 0.0
O269 O 0.29672 0.34582 0.94983 0.0
O270 O 0.27931 0.51386 0.04054 0.0
O271 O 0.36174 0.29701 0.05104 0.0
O272 O 0.23376 0.31388 0.04842 0.0
O273 O 0.38265 0.49392 0.04292 0.0
O274 O 0.2109 0.41917 0.99647 0.0
O275 O 0.40868 0.38488 0.09851 0.0
O276 O 0.40964 0.38575 0.9927 0.0
O277 O 0.2128 0.42288 0.09904 0.0
C278 C 0.32409 0.47938 0.94037 0.0
C279 C 0.28502 0.3201 0.13878 0.0
C280 C 0.28786 0.31111 0.96263 0.0
C281 C 0.32543 0.48755 0.14332 0.0
C282 C 0.39703 0.38767 0.95707 0.0
C283 C 0.22496 0.42309 0.13484 0.0
C284 C 0.39817 0.38634 0.13485 0.0
C285 C 0.22048 0.41679 0.96016 0.0
C286 C 0.41573 0.47488 0.04427 0.0
C287 C 0.19936 0.33414 0.04872 0.0
C288 C 0.24283 0.50802 0.04886 0.0
C289 C 0.40096 0.30694 0.04914 0.0
H290 H 0.7158 0.51341 0.23083 0.0
O291 O 0.6971 0.53049 0.24296 0.0
Tb292 Tb 0.72653 0.56893 0.27849 0.0
Tb293 Tb 0.66508 0.56062 0.20231 0.0
Tb294 Tb 0.65616 0.50102 0.27502 0.0
O295 O 0.69679 0.59922 0.2365 0.0
O296 O 0.68565 0.53769 0.31075 0.0
O297 O 0.68564 0.60459 0.30548 0.0
O298 O 0.62522 0.59843 0.22586 0.0
O299 O 0.61393 0.53547 0.29963 0.0
O300 O 0.62508 0.52899 0.23229 0.0
H301 H 0.71485 0.61525 0.22223 0.0
H302 H 0.6976 0.5233 0.33156 0.0
Tb303 Tb 0.65673 0.63427 0.26275 0.0
Tb304 Tb 0.64423 0.57294 0.33483 0.0
H305 H 0.69737 0.62166 0.32439 0.0
H306 H 0.6122 0.61364 0.20621 0.0
Tb307 Tb 0.58478 0.56635 0.25688 0.0
H308 H 0.59534 0.52013 0.31402 0.0
H309 H 0.61283 0.51037 0.21527 0.0
O310 O 0.61553 0.60336 0.29263 0.0
H311 H 0.59728 0.6211 0.30404 0.0
O312 O 0.76025 0.56771 0.21648 0.0
O313 O 0.54487 0.56969 0.30335 0.0
O314 O 0.56184 0.56251 0.19979 0.0
O315 O 0.74536 0.57146 0.3447 0.0
O316 O 0.67414 0.50343 0.17639 0.0
O317 O 0.63648 0.62788 0.36241 0.0
O318 O 0.63719 0.52422 0.37177 0.0
O319 O 0.67175 0.61028 0.16682 0.0
O320 O 0.7087 0.47111 0.28907 0.0
O321 O 0.61088 0.67333 0.25263 0.0
O322 O 0.70749 0.6688 0.27423 0.0
O323 O 0.61096 0.45951 0.26953 0.0
O324 O 0.71412 0.5594 0.1673 0.0
O325 O 0.58586 0.57722 0.35669 0.0
O326 O 0.6875 0.57453 0.38022 0.0
O327 O 0.61779 0.5556 0.16225 0.0
O328 O 0.75598 0.62279 0.28478 0.0
O329 O 0.55932 0.50156 0.25635 0.0
O330 O 0.5581 0.63081 0.25145 0.0
O331 O 0.75831 0.51745 0.28955 0.0
O332 O 0.66547 0.66291 0.20818 0.0
O333 O 0.64523 0.47302 0.32911 0.0
O334 O 0.66447 0.46259 0.22867 0.0
O335 O 0.64306 0.67046 0.31091 0.0
C336 C 0.74974 0.56413 0.17759 0.0
C337 C 0.55204 0.57975 0.33922 0.0
C338 C 0.58008 0.55635 0.16698 0.0
C339 C 0.72561 0.57297 0.37937 0.0
C340 C 0.67166 0.4689 0.19235 0.0
C341 C 0.63508 0.6624 0.347 0.0
C342 C 0.63815 0.48744 0.36337 0.0
C343 C 0.6713 0.64744 0.17411 0.0
C344 C 0.74437 0.48265 0.29558 0.0
C345 C 0.57364 0.6679 0.25066 0.0
C346 C 0.74272 0.65852 0.28399 0.0
C347 C 0.57445 0.46476 0.26165 0.0
H348 H 0.74541 0.19919 1.00063 0.0
O349 O 0.76459 0.18442 1.01478 0.0
Tb350 Tb 0.80228 0.22017 0.04599 0.0
Tb351 Tb 0.73855 0.14385 0.05091 0.0
Tb352 Tb 0.7963 0.15331 0.97595 0.0
O353 O 0.77351 0.18189 0.0818 0.0
O354 O 0.83367 0.18827 1.00662 0.0
O355 O 0.84331 0.18536 0.07368 0.0
O356 O 0.77749 0.11017 0.07996 0.0
O357 O 0.83636 0.11663 1.00155 0.0
O358 O 0.76936 0.11273 1.0106 0.0
H359 H 0.75781 0.19687 0.09956 0.0
H360 H 0.84725 0.20704 0.99092 0.0
Tb361 Tb 0.81434 0.14833 0.10934 0.0
Tb362 Tb 0.87238 0.15097 0.03313 0.0
H363 H 0.86113 0.20033 0.08937 0.0
H364 H 0.7632 0.09348 0.09739 0.0
Tb365 Tb 0.80879 0.07809 0.0394 0.0
H366 H 0.85172 0.104 0.98179 0.0
H367 H 0.7534 0.09621 0.99452 0.0
O368 O 0.8451 0.11355 0.07081 0.0
H369 H 0.86307 0.09662 0.08406 0.0
O370 O 0.7363 0.2428 0.05064 0.0
O371 O 0.86154 0.04855 0.03162 0.0
O372 O 0.75938 0.04166 0.04109 0.0
O373 O 0.86622 0.2492 0.04355 0.0
O374 O 0.69815 0.14218 1.00489 0.0
O375 O 0.91398 0.14513 0.07786 0.0
O376 O 0.89541 0.16247 0.97614 0.0
O377 O 0.71484 0.14242 0.10799 0.0
O378 O 0.79168 0.20917 0.94721 0.0
O379 O 0.8187 0.10162 0.14818 0.0
O380 O 0.81293 0.20175 0.14335 0.0
O381 O 0.79721 0.10795 0.93406 0.0
O382 O 0.69573 0.18841 0.0551 0.0
O383 O 0.90638 0.09878 1.02351 0.0
O384 O 0.91045 0.19854 0.03525 0.0
O385 O 0.70983 0.08742 0.04761 0.0
O386 O 0.80601 0.25144 0.09802 0.0
O387 O 0.80741 0.0542 0.97407 0.0
O388 O 0.81394 0.05061 0.10347 0.0
O389 O 0.79514 0.25534 0.99668 0.0
O390 O 0.76755 0.14732 0.14993 0.0
O391 O 0.84151 0.16202 0.93575 0.0
O392 O 0.73933 0.14811 0.95189 0.0
O393 O 0.87294 0.14552 0.13137 0.0
C394 C 0.69982 0.22592 0.05338 0.0
C395 C 0.89619 0.06209 1.02429 0.0
C396 C 0.7229 0.05175 0.04296 0.0
C397 C 0.90386 0.2353 0.03962 0.0
C398 C 0.70531 0.14293 0.968 0.0
C399 C 0.90725 0.14252 0.11471 0.0
C400 C 0.87822 0.16712 0.94253 0.0
C401 C 0.73054 0.14575 0.14238 0.0
C402 C 0.79224 0.24497 0.96046 0.0
C403 C 0.81702 0.0648 0.14102 0.0
C404 C 0.80924 0.2384 0.13325 0.0
C405 C 0.80292 0.07077 0.93786 0.0
H406 H 0.25822 0.69936 0.48844 0.0
O407 O 0.27613 0.68521 0.50475 0.0
Tb408 Tb 0.30961 0.72256 0.53856 0.0
Tb409 Tb 0.24669 0.6459 0.53939 0.0
Tb410 Tb 0.31264 0.65282 0.47119 0.0
O411 O 0.27728 0.68538 0.57279 0.0
O412 O 0.34544 0.68948 0.50429 0.0
O413 O 0.34821 0.68989 0.57182 0.0
O414 O 0.28303 0.61364 0.57355 0.0
O415 O 0.35019 0.61726 0.50202 0.0
O416 O 0.28224 0.61352 0.50449 0.0
H417 H 0.25931 0.69983 0.58878 0.0
H418 H 0.36017 0.70763 0.48898 0.0
Tb419 Tb 0.31564 0.65359 0.60515 0.0
Tb420 Tb 0.38163 0.65402 0.53608 0.0
H421 H 0.36418 0.70598 0.58842 0.0
H422 H 0.26825 0.59646 0.59007 0.0
Tb423 Tb 0.31868 0.58018 0.53855 0.0
H424 H 0.36753 0.60364 0.48463 0.0
H425 H 0.26766 0.59642 0.48776 0.0
O426 O 0.35048 0.61804 0.5716 0.0
H427 H 0.36712 0.60208 0.58739 0.0
O428 O 0.24377 0.74506 0.53764 0.0
O429 O 0.37259 0.55125 0.53689 0.0
O430 O 0.26904 0.54365 0.53781 0.0
O431 O 0.37298 0.75211 0.53801 0.0
O432 O 0.21249 0.64145 0.48837 0.0
O433 O 0.41781 0.65003 0.58551 0.0
O434 O 0.41157 0.66297 0.48231 0.0
O435 O 0.21652 0.64426 0.59309 0.0
O436 O 0.31035 0.70738 0.43989 0.0
O437 O 0.31981 0.60875 0.64557 0.0
O438 O 0.30808 0.70773 0.63692 0.0
O439 O 0.31667 0.60641 0.43117 0.0
O440 O 0.20341 0.6904 0.53795 0.0
O441 O 0.41714 0.60234 0.53581 0.0
O442 O 0.41894 0.70208 0.53848 0.0
O443 O 0.21893 0.58933 0.53659 0.0
O444 O 0.30824 0.75587 0.58951 0.0
O445 O 0.32031 0.55423 0.47449 0.0
O446 O 0.32123 0.55506 0.60447 0.0
O447 O 0.3063 0.7555 0.48744 0.0
O448 O 0.26496 0.6462 0.63998 0.0
O449 O 0.36254 0.66123 0.43644 0.0
O450 O 0.25953 0.64667 0.44057 0.0
O451 O 0.37109 0.65239 0.63407 0.0
C452 C 0.20739 0.72801 0.53712 0.0
C453 C 0.40777 0.5655 0.53658 0.0
C454 C 0.23248 0.55362 0.53548 0.0
C455 C 0.41094 0.73874 0.53826 0.0
C456 C 0.22392 0.6414 0.45243 0.0
C457 C 0.40687 0.6482 0.62138 0.0
C458 C 0.39816 0.66761 0.44717 0.0
C459 C 0.22888 0.64398 0.62885 0.0
C460 C 0.30801 0.74359 0.45165 0.0
C461 C 0.32132 0.57147 0.64138 0.0
C462 C 0.30599 0.74399 0.62523 0.0
C463 C 0.31932 0.56938 0.4375 0.0
H464 H 0.95405 0.51046 0.82467 0.0
O465 O 0.93918 0.52858 0.80934 0.0
Tb466 Tb 0.90809 0.56617 0.84304 0.0
Tb467 Tb 0.97617 0.56032 0.77396 0.0
Tb468 Tb 0.89839 0.49833 0.7776 0.0
O469 O 0.94445 0.59834 0.80826 0.0
O470 O 0.86697 0.53459 0.8121 0.0
O471 O 0.87289 0.60161 0.80923 0.0
O472 O 0.94294 0.59509 0.73946 0.0
O473 O 0.8654 0.53282 0.74232 0.0
O474 O 0.93724 0.52646 0.74208 0.0
H475 H 0.96155 0.61426 0.82387 0.0
H476 H 0.85055 0.51949 0.82911 0.0
Tb477 Tb 0.909 0.63195 0.77262 0.0
Tb478 Tb 0.83366 0.57037 0.77647 0.0
H479 H 0.85799 0.61877 0.8256 0.0
H480 H 0.96143 0.60851 0.72329 0.0
Tb481 Tb 0.90461 0.56174 0.70795 0.0
H482 H 0.84757 0.51841 0.7262 0.0
H483 H 0.95019 0.50739 0.72616 0.0
O484 O 0.87086 0.60076 0.73938 0.0
H485 H 0.85709 0.61818 0.72222 0.0
O486 O 0.96343 0.55841 0.87289 0.0
O487 O 0.85779 0.56768 0.66866 0.0
O488 O 0.95695 0.55245 0.67478 0.0
O489 O 0.86268 0.5699 0.88443 0.0
O490 O 0.99823 0.49492 0.77283 0.0
O491 O 0.80607 0.62506 0.77588 0.0
O492 O 0.79632 0.52138 0.77651 0.0
O493 O 1.00636 0.62382 0.77149 0.0
O494 O 0.8987 0.46702 0.82988 0.0
O495 O 0.91699 0.65957 0.71727 0.0
O496 O 0.90933 0.6678 0.82306 0.0
O497 O 0.89223 0.463 0.72841 0.0
O498 O 1.01075 0.55818 0.82433 0.0
O499 O 0.80615 0.57219 0.71245 0.0
O500 O 0.80939 0.57206 0.84205 0.0
O501 O 1.00643 0.55369 0.72122 0.0
O502 O 0.90995 0.62117 0.87177 0.0
O503 O 0.89583 0.50769 0.67859 0.0
O504 O 0.91449 0.60981 0.67199 0.0
O505 O 0.90437 0.51401 0.87764 0.0
O506 O 0.95689 0.67019 0.77237 0.0
O507 O 0.84175 0.47112 0.77699 0.0
O508 O 0.94299 0.45523 0.77524 0.0
O509 O 0.85817 0.66843 0.77386 0.0
C510 C 0.99951 0.55579 0.86032 0.0
C511 C 0.82076 0.5711 0.67508 0.0
C512 C 0.99323 0.54967 0.68589 0.0
C513 C 0.82532 0.57149 0.87904 0.0
C514 C 0.98065 0.45899 0.77314 0.0
C515 C 0.82115 0.65989 0.77568 0.0
C516 C 0.80613 0.48478 0.77534 0.0
C517 C 0.9936 0.66209 0.77123 0.0
C518 C 0.90194 0.47802 0.86577 0.0
C519 C 0.92055 0.64545 0.68213 0.0
C520 C 0.90833 0.65704 0.85917 0.0
C521 C 0.89104 0.47263 0.69214 0.0
H522 H 0.86814 0.95469 0.48699 0.0
O523 O 0.85057 0.9392 0.50247 0.0
Tb524 Tb 0.82057 0.97498 0.54018 0.0
Tb525 Tb 0.81168 0.90795 0.46856 0.0
Tb526 Tb 0.88077 0.89857 0.53383 0.0
O527 O 0.78205 0.94558 0.50446 0.0
O528 O 0.85178 0.93404 0.57196 0.0
O529 O 0.78431 0.93959 0.57292 0.0
O530 O 0.77511 0.8734 0.49993 0.0
O531 O 0.84559 0.8623 0.56597 0.0
O532 O 0.84439 0.8673 0.49749 0.0
H533 H 0.76699 0.96418 0.48986 0.0
H534 H 0.86927 0.94629 0.59022 0.0
Tb535 Tb 0.747 0.91035 0.53716 0.0
Tb536 Tb 0.81485 0.89806 0.60248 0.0
H537 H 0.77018 0.95488 0.59159 0.0
H538 H 0.75587 0.86117 0.48362 0.0
Tb539 Tb 0.80786 0.83262 0.5302 0.0
H540 H 0.8605 0.84345 0.58032 0.0
H541 H 0.85907 0.85136 0.47963 0.0
O542 O 0.7768 0.86848 0.56757 0.0
H543 H 0.75866 0.85345 0.58278 0.0
O544 O 0.8216 1.0045 0.47677 0.0
O545 O 0.80456 0.79784 0.58066 0.0
O546 O 0.80286 0.80505 0.47543 0.0
O547 O 0.82121 0.99794 0.60538 0.0
O548 O 0.86328 0.90695 0.43521 0.0
O549 O 0.76328 0.90225 0.63596 0.0
O550 O 0.86694 0.88832 0.63477 0.0
O551 O 0.75801 0.91908 0.43749 0.0
O552 O 0.91846 0.94724 0.54044 0.0
O553 O 0.70372 0.86599 0.53468 0.0
O554 O 0.72055 0.96634 0.5428 0.0
O555 O 0.91814 0.85067 0.5287 0.0
O556 O 0.81558 0.95506 0.4306 0.0
O557 O 0.80815 0.84331 0.63075 0.0
O558 O 0.81998 0.94297 0.64505 0.0
O559 O 0.80366 0.85765 0.43294 0.0
O560 O 0.77116 1.01132 0.54642 0.0
O561 O 0.87098 0.80184 0.52789 0.0
O562 O 0.74224 0.81036 0.53036 0.0
O563 O 0.87707 1.0007 0.54385 0.0
O564 O 0.71247 0.91718 0.48681 0.0
O565 O 0.91276 0.88738 0.58565 0.0
O566 O 0.91272 0.89895 0.48011 0.0
O567 O 0.71492 0.90909 0.58989 0.0
C568 C 0.81924 0.99143 0.43875 0.0
C569 C 0.80649 0.80779 0.61735 0.0
C570 C 0.79774 0.8211 0.4414 0.0
C571 C 0.82078 0.98064 0.64139 0.0
C572 C 0.89972 0.90326 0.44478 0.0
C573 C 0.72716 0.9066 0.62553 0.0
C574 C 0.90228 0.88388 0.62192 0.0
C575 C 0.72231 0.9208 0.45058 0.0
C576 C 0.91164 0.98435 0.54388 0.0
C577 C 0.70651 0.8283 0.53216 0.0
C578 C 0.73488 1.00065 0.55089 0.0
C579 C 0.90942 0.81422 0.52745 0.0
H580 H 0.21365 1.02267 0.72281 0.0
O581 O 0.1946 0.03796 0.73665 0.0
Tb582 Tb 0.22305 0.07842 0.77112 0.0
Tb583 Tb 0.15817 0.06618 0.69834 0.0
Tb584 Tb 0.15873 1.00368 0.77039 0.0
O585 O 0.18819 0.10639 0.73171 0.0
O586 O 0.18717 0.04272 0.80487 0.0
O587 O 0.1813 0.11012 0.80144 0.0
O588 O 0.11658 0.09961 0.72532 0.0
O589 O 0.1156 0.0344 0.79807 0.0
O590 O 0.12301 1.03023 0.73011 0.0
H591 H 0.20415 0.12356 0.71634 0.0
H592 H 0.20174 1.02917 0.82457 0.0
Tb593 Tb 0.1468 0.13721 0.76132 0.0
Tb594 Tb 0.14438 0.07394 0.83207 0.0
H595 H 0.19306 0.12841 0.81921 0.0
H596 H 0.10119 0.11428 0.70699 0.0
Tb597 Tb 0.0813 0.06337 0.75798 0.0
H598 H 0.09939 1.01733 0.81334 0.0
H599 H 0.11075 1.01116 0.71359 0.0
O600 O 0.11025 0.10246 0.79291 0.0
H601 H 0.09134 0.11815 0.80618 0.0
O602 O 0.2539 0.07898 0.70774 0.0
O603 O 0.04417 0.06149 0.80651 0.0
O604 O 0.05543 0.05906 0.70222 0.0
O605 O 0.24473 0.08201 0.8365 0.0
O606 O 0.16849 1.01047 0.67022 0.0
O607 O 0.13358 0.12713 0.86159 0.0
O608 O 0.14406 1.02418 0.86803 0.0
O609 O 0.15888 0.11771 0.66411 0.0
O610 O 0.21532 0.9791 0.78037 0.0
O611 O 0.09796 0.17295 0.75496 0.0
O612 O 0.19437 0.17605 0.7672 0.0
O613 O 0.11547 0.95881 0.76753 0.0
O614 O 0.20596 0.06881 0.66076 0.0
O615 O 0.08719 0.07301 0.85761 0.0
O616 O 0.189 0.07862 0.87527 0.0
O617 O 0.10917 0.05961 0.66099 0.0
O618 O 0.24817 0.13541 0.77281 0.0
O619 O 0.06017 0.99718 0.75871 0.0
O620 O 0.04951 0.12535 0.75611 0.0
O621 O 0.2601 1.03027 0.77826 0.0
O622 O 0.14971 0.16815 0.70766 0.0
O623 O 0.15358 0.97372 0.82486 0.0
O624 O 0.16693 0.96762 0.72201 0.0
O625 O 0.1338 0.1714 0.81125 0.0
C626 C 0.24196 0.07494 0.66934 0.0
C627 C 0.05221 0.07029 0.8425 0.0
C628 C 0.07198 0.05665 0.66805 0.0
C629 C 0.2268 0.08098 0.87218 0.0
C630 C 0.16991 0.97555 0.68536 0.0
C631 C 0.12872 0.16185 0.84749 0.0
C632 C 0.14746 0.98751 0.85965 0.0
C633 C 0.15569 0.15449 0.67295 0.0
C634 C 0.25027 0.99407 0.7837 0.0
C635 C 0.06161 0.16364 0.75541 0.0
C636 C 0.23148 0.16975 0.77101 0.0
C637 C 0.07792 0.96144 0.76271 0.0
H638 H 0.45034 0.19478 0.70752 0.0
O639 O 0.46846 0.21029 0.69253 0.0
Tb640 Tb 0.5015 0.2469 0.7274 0.0
Tb641 Tb 0.50454 0.17499 0.65932 0.0
Tb642 Tb 0.43968 0.24477 0.65387 0.0
O643 O 0.53633 0.20954 0.69618 0.0
O644 O 0.47207 0.28077 0.688 0.0
O645 O 0.53964 0.27813 0.69255 0.0
O646 O 0.54268 0.20449 0.62455 0.0
O647 O 0.47551 0.27558 0.6167 0.0
O648 O 0.47313 0.20757 0.62079 0.0
H649 H 0.55014 0.19372 0.71465 0.0
H650 H 0.45552 0.29875 0.70173 0.0
Tb651 Tb 0.57354 0.24037 0.66158 0.0
Tb652 Tb 0.51008 0.30982 0.65136 0.0
H653 H 0.55516 0.29507 0.70861 0.0
H654 H 0.56023 0.18678 0.61157 0.0
Tb655 Tb 0.51024 0.23756 0.58549 0.0
H656 H 0.4603 0.29125 0.5991 0.0
H657 H 0.45754 0.19153 0.6039 0.0
O658 O 0.54479 0.27287 0.6206 0.0
H659 H 0.56346 0.28733 0.60552 0.0
O660 O 0.49915 0.18406 0.75713 0.0
O661 O 0.51393 0.28678 0.54982 0.0
O662 O 0.51095 0.18245 0.55761 0.0
O663 O 0.5013 0.31277 0.74997 0.0
O664 O 0.45276 0.14187 0.65281 0.0
O665 O 0.56435 0.34085 0.65557 0.0
O666 O 0.45891 0.34335 0.64722 0.0
O667 O 0.55599 0.14206 0.66981 0.0
O668 O 0.40345 0.25047 0.7042 0.0
O669 O 0.61579 0.23671 0.61631 0.0
O670 O 0.60119 0.24039 0.71752 0.0
O671 O 0.40113 0.24339 0.60759 0.0
O672 O 0.49868 0.13785 0.7074 0.0
O673 O 0.51632 0.3372 0.59509 0.0
O674 O 0.50802 0.353 0.6957 0.0
O675 O 0.50727 0.1387 0.60909 0.0
O676 O 0.55124 0.24838 0.76286 0.0
O677 O 0.44562 0.23804 0.55681 0.0
O678 O 0.57516 0.23473 0.56195 0.0
O679 O 0.4471 0.24935 0.75582 0.0
O680 O 0.60479 0.18825 0.67084 0.0
O681 O 0.40837 0.29862 0.64831 0.0
O682 O 0.40768 0.19172 0.65059 0.0
O683 O 0.60863 0.29083 0.662 0.0
C684 C 0.49829 0.14613 0.744 0.0
C685 C 0.51746 0.32321 0.55958 0.0
C686 C 0.50919 0.14739 0.57235 0.0
C687 C 0.5041 0.34907 0.73306 0.0
C688 C 0.41777 0.15509 0.64817 0.0
C689 C 0.59965 0.32744 0.65994 0.0
C690 C 0.42224 0.33389 0.6473 0.0
C691 C 0.59189 0.15305 0.67512 0.0
C692 C 0.41218 0.25154 0.74104 0.0
C693 C 0.61147 0.23494 0.57878 0.0
C694 C 0.58747 0.24352 0.75285 0.0
C695 C 0.40779 0.24064 0.57091 0.0
H696 H 0.23711 0.43029 0.21072 0.0
H697 H 0.14789 0.41459 0.12774 0.0
H698 H 0.1995 0.39755 0.25739 0.0
H699 H 0.10881 0.38377 0.17549 0.0
H700 H 0.09314 0.26907 0.23386 0.0
H701 H 0.11878 0.32028 0.19502 0.0
H702 H 0.15005 0.38172 0.29682 0.0
H703 H 0.12734 0.32949 0.33499 0.0
C704 C 0.20867 0.42133 0.20291 0.0
C705 C 0.19637 0.42255 0.16507 0.0
C706 C 0.18688 0.40263 0.22986 0.0
C707 C 0.15205 0.38611 0.21941 0.0
C708 C 0.13653 0.39446 0.18364 0.0
C709 C 0.1587 0.41261 0.15643 0.0
C710 C 0.1067 0.29305 0.2476 0.0
C711 C 0.10934 0.29492 0.28714 0.0
C712 C 0.12034 0.32289 0.22558 0.0
C713 C 0.13574 0.35554 0.2429 0.0
C714 C 0.13873 0.35695 0.28254 0.0
C715 C 0.1262 0.3267 0.30439 0.0
H716 H 0.6212 0.70526 0.16123 0.0
H717 H 0.71123 0.64388 0.10702 0.0
H718 H 0.57792 0.68691 0.11092 0.0
H719 H 0.66807 0.62096 0.05912 0.0
H720 H 0.57508 0.6055 0.96853 0.0
H721 H 0.62632 0.61704 1.01201 0.0
H722 H 0.54478 0.63054 0.10316 0.0
H723 H 0.49336 0.62424 0.05744 0.0
C724 C 0.63226 0.68896 0.13765 0.0
C725 C 0.66762 0.67109 0.14027 0.0
C726 C 0.60692 0.67668 0.10985 0.0
C727 C 0.61828 0.64867 0.08352 0.0
C728 C 0.65729 0.64053 0.08016 0.0
C729 C 0.68251 0.65464 0.10718 0.0
C730 C 0.56806 0.60905 0.99828 0.0
C731 C 0.53087 0.61826 1.00932 0.0
C732 C 0.59773 0.61645 1.02331 0.0
C733 C 0.58948 0.62856 0.06041 0.0
C734 C 0.55187 0.62492 0.0738 0.0
C735 C 0.52233 0.61959 0.04805 0.0
H736 H 0.8879 0.28791 0.25059 0.0
H737 H 0.8631 0.19172 0.32079 0.0
H738 H 0.90486 0.24592 0.19875 0.0
H739 H 0.8858 0.1493 0.27259 0.0
H740 H 0.92112 0.08501 0.16573 0.0
H741 H 0.90391 0.1153 0.22452 0.0
H742 H 0.96075 0.2176 0.18589 0.0
H743 H 0.97099 0.18745 0.12474 0.0
C744 C 0.88488 0.25756 0.25445 0.0
C745 C 0.88039 0.24236 0.29073 0.0
C746 C 0.89679 0.23341 0.22559 0.0
C747 C 0.90239 0.19445 0.2334 0.0
C748 C 0.88527 0.17925 0.26613 0.0
C749 C 0.87108 0.20378 0.29364 0.0
C750 C 0.93104 0.11364 0.17078 0.0
C751 C 0.93967 0.13705 0.13992 0.0
C752 C 0.92046 0.13148 0.20443 0.0
C753 C 0.92609 0.17097 0.20782 0.0
C754 C 0.95127 0.18862 0.18203 0.0
C755 C 0.95893 0.17079 0.14761 0.0
H756 H 0.38205 0.99543 0.1023 0.0
H757 H 0.37774 0.90913 0.18959 0.0
H758 H 0.39529 0.94773 0.05577 0.0
H759 H 0.38956 0.86056 0.14219 0.0
H760 H 0.5009 0.82381 0.07894 0.0
H761 H 0.45323 0.85398 0.11933 0.0
H762 H 0.39412 0.89422 1.01935 0.0
H763 H 0.444 0.8697 0.9805 0.0
C764 C 0.38262 0.96603 0.11132 0.0
C765 C 0.38186 0.95609 0.14967 0.0
C766 C 0.3896 0.93836 0.08444 0.0
C767 C 0.39553 0.90058 0.09591 0.0
C768 C 0.38687 0.88982 0.13314 0.0
C769 C 0.38025 0.91765 0.16019 0.0
C770 C 0.47828 0.84021 0.06605 0.0
C771 C 0.47691 0.84555 1.02679 0.0
C772 C 0.45023 0.85626 0.08886 0.0
C773 C 0.41974 0.87635 0.07234 0.0
C774 C 0.41753 0.8796 0.03297 0.0
C775 C 0.44651 0.86574 1.01068 0.0
H776 H 0.23507 0.61861 0.38039 0.0
H777 H 0.1481 0.65736 0.45789 0.0
H778 H 0.19997 0.64311 0.32802 0.0
H779 H 0.10994 0.67857 0.40447 0.0
H780 H 0.09269 0.77575 0.32355 0.0
H781 H 0.11799 0.7342 0.37255 0.0
H782 H 0.15767 0.65697 0.28503 0.0
H783 H 0.13858 0.70147 0.23771 0.0
C784 C 0.20737 0.63093 0.38591 0.0
C785 C 0.19532 0.63881 0.42289 0.0
C786 C 0.18676 0.64478 0.35565 0.0
C787 C 0.1531 0.66525 0.36223 0.0
C788 C 0.13712 0.66529 0.39884 0.0
C789 C 0.15853 0.65249 0.42938 0.0
C790 C 0.1088 0.75084 0.31536 0.0
C791 C 0.11422 0.74184 0.27714 0.0
C792 C 0.12191 0.72617 0.34317 0.0
C793 C 0.13888 0.69136 0.3329 0.0
C794 C 0.14539 0.6835 0.29445 0.0
C795 C 0.13459 0.70926 0.26705 0.0
H796 H 0.05378 0.62656 1.0037 0.0
H797 H 0.95521 0.61128 0.0737 0.0
H798 H 1.01338 0.64238 0.95017 0.0
H799 H 0.91464 0.63306 1.02333 0.0
H800 H 0.85384 0.66756 0.91321 0.0
H801 H 0.88264 0.64757 0.97204 0.0
H802 H 0.98824 0.69997 0.93595 0.0
H803 H 0.95897 0.7146 0.87527 0.0
C804 C 1.02319 0.62515 1.00717 0.0
C805 C 1.00724 0.6233 0.0434 0.0
C806 C 1.00006 0.63634 0.97718 0.0
C807 C 0.96121 0.64411 0.98384 0.0
C808 C 0.94465 0.63016 1.0174 0.0
C809 C 0.96805 0.61656 0.04623 0.0
C810 C 0.88283 0.67601 0.9189 0.0
C811 C 0.90657 0.68602 0.88864 0.0
C812 C 0.89981 0.66373 0.95241 0.0
C813 C 0.93945 0.66765 0.95665 0.0
C814 C 0.95881 0.69213 0.93149 0.0
C815 C 0.94171 0.7021 0.89732 0.0
H816 H 0.88737 0.72938 0.30504 0.0
H817 H 0.87953 0.82085 0.22467 0.0
H818 H 0.89344 0.77477 0.35637 0.0
H819 H 0.89113 0.86613 0.27404 0.0
H820 H 0.90442 0.94109 0.37802 0.0
H821 H 0.89287 0.90302 0.32296 0.0
H822 H 0.94296 0.80648 0.38056 0.0
H823 H 0.94954 0.84482 0.4374 0.0
C824 C 0.88505 0.75935 0.29863 0.0
C825 C 0.88539 0.7718 0.26095 0.0
C826 C 0.89076 0.78551 0.32775 0.0
C827 C 0.89701 0.82414 0.31919 0.0
C828 C 0.88844 0.83675 0.28224 0.0
C829 C 0.88065 0.81058 0.25364 0.0
C830 C 0.91445 0.91215 0.37823 0.0
C831 C 0.92448 0.89486 0.41259 0.0
C832 C 0.90705 0.88969 0.34662 0.0
C833 C 0.91336 0.85027 0.34824 0.0
C834 C 0.93403 0.83584 0.37943 0.0
C835 C 0.93966 0.85824 0.41161 0.0
H836 H 0.13088 0.91145 0.85443 0.0
H837 H 0.13944 1.00436 0.93433 0.0
H838 H 0.09942 0.87318 0.90272 0.0
H839 H 0.10556 0.96793 0.98082 0.0
H840 H 0.06656 0.8862 0.06888 0.0
H841 H 0.10454 0.91983 1.02297 0.0
H842 H 0.04004 0.86803 0.93191 0.0
H843 H 1.00392 0.83163 0.97866 0.0
C844 C 0.12666 0.92349 0.8824 0.0
C845 C 0.13725 0.9611 0.89036 0.0
C846 C 0.1079 0.90185 0.90987 0.0
C847 C 0.09908 0.91766 0.94552 0.0
C848 C 0.112 0.95443 0.95399 0.0
C849 C 0.13135 0.97559 0.92702 0.0
C850 C 0.05982 0.88269 0.03908 0.0
C851 C 0.03193 0.85682 1.02722 0.0
C852 C 0.0818 0.90191 1.01259 0.0
C853 C 0.07558 0.89672 0.97353 0.0
C854 C 0.04633 0.87205 0.96171 0.0
C855 C 1.02506 0.85181 0.98837 0.0
H856 H 0.16064 0.15103 0.43074 0.0
H857 H 0.11318 0.12906 0.32083 0.0
H858 H 0.21972 0.17054 0.40236 0.0
H859 H 0.17371 0.14269 0.29151 0.0
H860 H 0.26146 0.20308 0.23503 0.0
H861 H 0.20362 0.19297 0.27091 0.0
H862 H 0.2709 0.18579 0.37381 0.0
H863 H 0.32662 0.20113 0.33801 0.0
C864 C 0.16394 0.14815 0.40032 0.0
C865 C 0.13193 0.14203 0.37754 0.0
C866 C 0.19778 0.16023 0.38361 0.0
C867 C 0.20068 0.16265 0.34375 0.0
C868 C 0.17157 0.14559 0.32196 0.0
C869 C 0.13721 0.13546 0.33887 0.0
C870 C 0.26311 0.20198 0.2657 0.0
C871 C 0.29841 0.19912 0.28369 0.0
C872 C 0.23021 0.1939 0.28626 0.0
C873 C 0.23279 0.18314 0.32481 0.0
C874 C 0.26722 0.19085 0.34389 0.0
C875 C 0.29951 0.20105 0.32333 0.0
H876 H 0.35686 0.64134 0.94004 0.0
H877 H 0.41906 0.58829 0.85022 0.0
H878 H 0.37221 0.58885 0.98197 0.0
H879 H 0.43862 0.53767 0.89196 0.0
H880 H 0.46545 0.45349 0.98931 0.0
H881 H 0.44727 0.4923 0.93595 0.0
H882 H 0.43189 0.58752 1.01231 0.0
H883 H 0.44496 0.54582 0.06575 0.0
C884 C 0.37251 0.61743 0.92863 0.0
C885 C 0.39274 0.62091 0.89474 0.0
C886 C 0.38272 0.58817 0.9531 0.0
C887 C 0.41082 0.56196 0.94167 0.0
C888 C 0.41924 0.55889 0.90281 0.0
C889 C 0.40722 0.58757 0.87846 0.0
C890 C 0.45959 0.48326 0.9945 0.0
C891 C 0.44914 0.49563 0.03089 0.0
C892 C 0.44826 0.50533 0.96373 0.0
C893 C 0.43351 0.54179 0.97051 0.0
C894 C 0.43882 0.55809 1.00674 0.0
C895 C 0.44819 0.53479 0.03723 0.0
H896 H 0.71404 0.43803 0.34969 0.0
H897 H 0.82113 0.47862 0.30477 0.0
H898 H 0.74667 0.4097 0.40286 0.0
H899 H 0.85425 0.44811 0.35712 0.0
H900 H 0.91476 0.39934 0.44029 0.0
H901 H 0.86599 0.44577 0.42557 0.0
H902 H 0.78584 0.35486 0.4051 0.0
H903 H 0.83374 0.30878 0.42097 0.0
C904 C 0.74477 0.43999 0.35058 0.0
C905 C 0.76541 0.45945 0.32245 0.0
C906 C 0.76323 0.42446 0.38155 0.0
C907 C 0.80277 0.42715 0.38444 0.0
C908 C 0.8235 0.44658 0.35627 0.0
C909 C 0.80485 0.46299 0.32567 0.0
C910 C 0.88629 0.38936 0.43405 0.0
C911 C 0.8785 0.35061 0.42878 0.0
C912 C 0.85839 0.41596 0.42596 0.0
C913 C 0.82318 0.40365 0.41196 0.0
C914 C 0.81319 0.36516 0.41479 0.0
C915 C 0.84091 0.3386 0.42332 0.0
H916 H 0.6593 0.83726 0.94307 0.0
H917 H 0.57153 0.9139 0.90499 0.0
H918 H 0.69091 0.88985 0.97541 0.0
H919 H 0.60031 0.96499 0.93976 0.0
H920 H 0.67174 0.05981 0.98692 0.0
H921 H 0.64421 1.00942 0.94926 0.0
H922 H 0.68754 0.92649 1.02894 0.0
H923 H 0.71814 0.97752 0.06448 0.0
C924 C 0.64711 0.86537 0.94105 0.0
C925 C 0.61267 0.87114 0.92182 0.0
C926 C 0.66468 0.89551 0.96041 0.0
C927 C 0.64781 0.93192 0.96143 0.0
C928 C 0.61472 0.93788 0.93986 0.0
C929 C 0.59786 0.90819 0.9199 0.0
C930 C 0.67426 0.03088 0.99702 0.0
C931 C 0.69637 1.02259 1.02903 0.0
C932 C 0.65865 1.00165 0.9752 0.0
C933 C 0.66369 0.96328 0.9855 0.0
C934 C 0.68385 0.95535 1.01916 0.0
C935 C 0.70057 0.98463 0.04026 0.0
H936 H 0.08641 0.91421 0.18 0.0
H937 H 0.16959 0.83197 0.14274 0.0
H938 H 0.13764 0.95426 0.20454 0.0
H939 H 0.21968 0.86945 0.16959 0.0
H940 H 0.30924 0.95019 0.2029 0.0
H941 H 0.25777 0.92043 0.1688 0.0
H942 H 0.17891 0.95634 0.2562 0.0
H943 H 0.23086 0.98967 0.28834 0.0
C944 C 0.1156 0.90508 0.1764 0.0
C945 C 0.124 0.86977 0.15998 0.0
C946 C 0.14493 0.9276 0.19112 0.0
C947 C 0.18293 0.91487 0.18986 0.0
C948 C 0.1911 0.88074 0.17091 0.0
C949 C 0.16212 0.85887 0.15567 0.0
C950 C 0.28103 0.95097 0.21523 0.0
C951 C 0.27402 0.97112 0.24875 0.0
C952 C 0.25132 0.93403 0.19558 0.0
C953 C 0.21395 0.93549 0.20977 0.0
C954 C 0.20712 0.95511 0.24396 0.0
C955 C 0.23687 0.97343 0.26292 0.0
H956 H 0.28165 0.5613 0.08913 0.0
H957 H 0.169 0.51511 0.07062 0.0
H958 H 0.26171 0.58708 0.14899 0.0
H959 H 0.14786 0.5443 0.12871 0.0
H960 H 0.09659 0.59529 0.19909 0.0
H961 H 0.14746 0.54898 0.19657 0.0
H962 H 0.22651 0.63802 0.16747 0.0
H963 H 0.17681 0.68411 0.17223 0.0
C964 C 0.25216 0.55761 0.09714 0.0
C965 C 0.2268 0.53586 0.07506 0.0
C966 C 0.24102 0.57189 0.13202 0.0
C967 C 0.20359 0.56696 0.14457 0.0
C968 C 0.17755 0.54732 0.12116 0.0
C969 C 0.18909 0.53185 0.08689 0.0
C970 C 0.12502 0.60504 0.19351 0.0
C971 C 0.13211 0.64242 0.18205 0.0
C972 C 0.15442 0.57873 0.1929 0.0
C973 C 0.18921 0.58954 0.17669 0.0
C974 C 0.19883 0.62822 0.17664 0.0
C975 C 0.1699 0.65478 0.17834 0.0
H976 H 0.79981 0.66232 0.33813 0.0
H977 H 0.75365 0.7267 0.2463 0.0
H978 H 0.85558 0.64749 0.3013 0.0
H979 H 0.81184 0.71746 0.21025 0.0
H980 H 0.85227 0.63737 0.12733 0.0
H981 H 0.81165 0.66021 0.17818 0.0
H982 H 0.89976 0.63163 0.2593 0.0
H983 H 0.93634 0.60397 0.20826 0.0
C984 C 0.80312 0.67602 0.31081 0.0
C985 C 0.77086 0.6885 0.29099 0.0
C986 C 0.83501 0.6668 0.28923 0.0
C987 C 0.83539 0.6769 0.25061 0.0
C988 C 0.80984 0.70526 0.23837 0.0
C989 C 0.7771 0.71187 0.25961 0.0
C990 C 0.86155 0.63385 0.15641 0.0
C991 C 0.89964 0.62615 0.16439 0.0
C992 C 0.83933 0.64894 0.18539 0.0
C993 C 0.85478 0.65278 0.22224 0.0
C994 C 0.88795 0.63226 0.231 0.0
C995 C 0.90855 0.61546 0.20167 0.0
H996 H 0.95353 0.04761 0.07331 0.0
H997 H 0.90101 1.00743 0.97065 0.0
H998 H 0.95243 0.98359 0.09894 0.0
H999 H 0.89668 0.94414 0.99682 0.0
H1000 H 0.89863 0.83055 0.06266 0.0
H1001 H 0.91009 0.88672 1.0247 0.0
H1002 H 0.89702 0.9565 0.12498 0.0
H1003 H 0.88917 0.89958 0.16314 0.0
C1004 C 0.94392 1.02462 0.05523 0.0
C1005 C 0.92484 0.03243 1.02132 0.0
C1006 C 0.94173 0.98817 0.07051 0.0
C1007 C 0.92131 0.95959 0.05127 0.0
C1008 C 0.91124 0.9657 1.01319 0.0
C1009 C 0.91461 1.00196 0.9977 0.0
C1010 C 0.89602 0.8581 0.07616 0.0
C1011 C 0.89421 0.86093 0.11584 0.0
C1012 C 0.90362 0.89035 0.0545 0.0
C1013 C 0.90706 0.92594 0.07222 0.0
C1014 C 0.89715 0.9292 0.11083 0.0
C1015 C 0.89082 0.8968 0.13255 0.0
H1016 H 0.24334 0.25054 0.14316 0.0
H1017 H 0.30199 0.32611 0.2165 0.0
H1018 H 0.29679 0.20686 0.14389 0.0
H1019 H 0.35765 0.28593 0.21603 0.0
H1020 H 0.4636 0.22741 0.17873 0.0
H1021 H 0.41003 0.26857 0.19038 0.0
H1022 H 0.34621 0.20488 0.10652 0.0
H1023 H 0.40036 0.16273 0.0992 0.0
C1024 C 0.26798 0.25746 0.16026 0.0
C1025 C 0.27527 0.29501 0.17083 0.0
C1026 C 0.29934 0.23335 0.15918 0.0
C1027 C 0.33455 0.24725 0.17282 0.0
C1028 C 0.33329 0.27707 0.19965 0.0
C1029 C 0.30075 0.29958 0.20098 0.0
C1030 C 0.43789 0.22288 0.16255 0.0
C1031 C 0.43005 0.18718 0.14697 0.0
C1032 C 0.40646 0.24565 0.17037 0.0
C1033 C 0.37077 0.23471 0.15548 0.0
C1034 C 0.37093 0.2096 0.12409 0.0
C1035 C 0.40268 0.18671 0.11833 0.0
H1036 H 0.37781 0.75194 0.42735 0.0
H1037 H 0.26738 0.80408 0.42602 0.0
H1038 H 0.40737 0.81122 0.41056 0.0
H1039 H 0.29641 0.86439 0.40728 0.0
H1040 H 0.35593 0.97407 0.41506 0.0
H1041 H 0.33354 0.91219 0.43715 0.0
H1042 H 0.41788 0.85756 0.36615 0.0
H1043 H 0.44109 0.91913 0.34668 0.0
C1044 C 0.35967 0.77552 0.42025 0.0
C1045 C 0.32041 0.77312 0.42593 0.0
C1046 C 0.37662 0.80998 0.4117 0.0
C1047 C 0.35435 0.84279 0.40817 0.0
C1048 C 0.31448 0.83978 0.41088 0.0
C1049 C 0.29764 0.80517 0.42032 0.0
C1050 C 0.37054 0.94876 0.40585 0.0
C1051 C 0.39925 0.95082 0.37857 0.0
C1052 C 0.35728 0.91335 0.41762 0.0
C1053 C 0.37274 0.87995 0.40197 0.0
C1054 C 0.40493 0.88254 0.37854 0.0
C1055 C 0.41841 0.9178 0.36744 0.0
H1056 H 0.06935 0.58304 0.87947 0.0
H1057 H 0.99475 0.48669 0.89066 0.0
H1058 H 0.1233 0.54394 0.89852 0.0
H1059 H 0.04838 0.44652 0.90581 0.0
H1060 H 0.14887 0.39115 0.96506 0.0
H1061 H 0.09345 0.42599 0.94518 0.0
H1062 H 0.16474 0.49893 0.8764 0.0
H1063 H 0.22094 0.46548 0.89974 0.0
C1064 C 0.06448 0.5537 0.88729 0.0
C1065 C 1.02792 0.53806 0.88485 0.0
C1066 C 0.0955 0.53084 0.89693 0.0
C1067 C 0.09078 0.49152 0.90284 0.0
C1068 C 0.05359 0.47655 0.90213 0.0
C1069 C 1.02252 0.49972 0.89387 0.0
C1070 C 0.15252 0.41391 0.94468 0.0
C1071 C 0.1891 0.42601 0.93429 0.0
C1072 C 0.12057 0.43417 0.93325 0.0
C1073 C 0.1243 0.46642 0.91006 0.0
C1074 C 0.16073 0.47537 0.89566 0.0
C1075 C 0.19298 0.4555 0.90798 0.0
H1076 H 0.63501 0.66482 0.42488 0.0
H1077 H 0.6149 0.73404 0.32578 0.0
H1078 H 0.65927 0.72013 0.45817 0.0
H1079 H 0.64193 0.78807 0.35789 0.0
H1080 H 0.74276 0.85502 0.39931 0.0
H1081 H 0.67903 0.82964 0.395 0.0
H1082 H 0.72201 0.7189 0.42627 0.0
H1083 H 0.78515 0.74523 0.43397 0.0
C1084 C 0.63416 0.69209 0.41075 0.0
C1085 C 0.62732 0.69484 0.37169 0.0
C1086 C 0.64779 0.72387 0.42988 0.0
C1087 C 0.65668 0.7565 0.40871 0.0
C1088 C 0.63811 0.76218 0.37397 0.0
C1089 C 0.62323 0.73089 0.35522 0.0
C1090 C 0.73885 0.82503 0.40457 0.0
C1091 C 0.76875 0.80228 0.41838 0.0
C1092 C 0.70202 0.81079 0.40291 0.0
C1093 C 0.69494 0.77299 0.41286 0.0
C1094 C 0.72594 0.74895 0.42109 0.0
C1095 C 0.76252 0.76348 0.42385 0.0
H1096 H 0.46156 0.71015 0.46347 0.0
H1097 H 0.38175 0.68651 0.37304 0.0
H1098 H 0.50282 0.74117 0.41691 0.0
H1099 H 0.4253 0.71815 0.32884 0.0
H1100 H 0.48132 0.59808 0.31398 0.0
H1101 H 0.45283 0.65938 0.31844 0.0
H1102 H 0.54197 0.69477 0.3963 0.0
H1103 H 0.56846 0.63245 0.39345 0.0
C1104 C 0.45368 0.70962 0.43379 0.0
C1105 C 0.42146 0.68962 0.42074 0.0
C1106 C 0.4766 0.7282 0.40732 0.0
C1107 C 0.47165 0.71762 0.36918 0.0
C1108 C 0.43326 0.71581 0.35842 0.0
C1109 C 0.40899 0.69657 0.38327 0.0
C1110 C 0.49399 0.61858 0.33314 0.0
C1111 C 0.52719 0.61007 0.35331 0.0
C1112 C 0.47823 0.65459 0.33504 0.0
C1113 C 0.49435 0.68313 0.35837 0.0
C1114 C 0.52785 0.67418 0.3784 0.0
C1115 C 0.54289 0.63782 0.37727 0.0
H1116 H 0.13596 0.90754 0.68802 0.0
H1117 H 0.22808 0.96789 0.63475 0.0
H1118 H 0.16993 0.84865 0.68155 0.0
H1119 H 0.26133 0.90803 0.62426 0.0
H1120 H 0.33602 0.81073 0.64985 0.0
H1121 H 0.29768 0.86757 0.65899 0.0
H1122 H 0.19583 0.79838 0.65442 0.0
H1123 H 0.23461 0.74215 0.64974 0.0
C1124 C 0.1627 0.9077 0.6727 0.0
C1125 C 0.17981 0.94223 0.6625 0.0
C1126 C 0.18258 0.87375 0.66923 0.0
C1127 C 0.2195 0.87332 0.65386 0.0
C1128 C 0.23393 0.90733 0.6382 0.0
C1129 C 0.21435 0.94163 0.64284 0.0
C1130 C 0.30555 0.80781 0.65346 0.0
C1131 C 0.28824 0.77218 0.64981 0.0
C1132 C 0.28331 0.84048 0.65711 0.0
C1133 C 0.24328 0.83819 0.65575 0.0
C1134 C 0.22635 0.80191 0.65572 0.0
C1135 C 0.24869 0.76927 0.65366 0.0
H1136 H 1.00627 0.59368 0.62443 0.0
H1137 H 0.04777 0.49642 0.68572 0.0
H1138 H 0.07135 0.61378 0.61244 0.0
H1139 H 0.11234 0.51797 0.67755 0.0
H1140 H 0.22779 0.57385 0.65576 0.0
H1141 H 0.16849 0.53905 0.65428 0.0
H1142 H 0.10663 0.64531 0.65877 0.0
H1143 H 0.16649 0.67972 0.65582 0.0
C1144 C 1.02941 0.57546 0.63341 0.0
C1145 C 1.02271 0.54481 0.65758 0.0
C1146 C 0.06665 0.58763 0.62786 0.0
C1147 C 0.09667 0.56923 0.64691 0.0
C1148 C 0.08996 0.53367 0.66354 0.0
C1149 C 0.05286 0.5209 0.66778 0.0
C1150 C 0.20141 0.58958 0.65848 0.0
C1151 C 0.20118 0.62918 0.65511 0.0
C1152 C 0.16733 0.56965 0.6567 0.0
C1153 C 0.13278 0.58944 0.65395 0.0
C1154 C 0.13285 0.62922 0.65821 0.0
C1155 C 0.167 0.64905 0.65837 0.0
H1156 H 0.09792 1.00055 0.62302 0.0
H1157 H 0.99603 0.06275 0.65032 0.0
H1158 H 0.06504 0.94153 0.63227 0.0
H1159 H 0.96099 1.00343 0.65467 0.0
H1160 H 0.90507 0.91201 0.69457 0.0
H1161 H 0.95689 0.95706 0.70338 0.0
H1162 H 1.02288 0.89588 0.61969 0.0
H1163 H 0.97236 0.85185 0.61276 0.0
C1164 C 0.06761 1.00168 0.62849 0.0
C1165 C 0.05011 0.03563 0.63994 0.0
C1166 C 0.0489 0.96755 0.63475 0.0
C1167 C 1.01119 0.96776 0.64781 0.0
C1168 C 0.99108 1.00237 0.64823 0.0
C1169 C 1.01053 0.03643 0.64371 0.0
C1170 C 0.93165 0.90708 0.67995 0.0
C1171 C 0.93348 0.88181 0.6494 0.0
C1172 C 0.96102 0.93328 0.68431 0.0
C1173 C 0.99192 0.93232 0.65888 0.0
C1174 C 0.99852 0.89901 0.63817 0.0
C1175 C 0.96941 0.87276 0.63471 0.0
H1176 H 0.7391 0.91317 0.70121 0.0
H1177 H 0.65105 0.8931 0.61781 0.0
H1178 H 0.70123 0.88207 0.74873 0.0
H1179 H 0.61159 0.86407 0.66642 0.0
H1180 H 0.59419 0.75375 0.73241 0.0
H1181 H 0.62091 0.80186 0.69031 0.0
H1182 H 0.65051 0.87057 0.78794 0.0
H1183 H 0.62713 0.82137 0.82936 0.0
C1184 C 0.71093 0.90339 0.69342 0.0
C1185 C 0.6988 0.90338 0.65555 0.0
C1186 C 0.68895 0.88581 0.72083 0.0
C1187 C 0.65419 0.86898 0.71074 0.0
C1188 C 0.63916 0.87525 0.67437 0.0
C1189 C 0.66153 0.8923 0.6467 0.0
C1190 C 0.60773 0.77861 0.74452 0.0
C1191 C 0.60985 0.78343 0.78382 0.0
C1192 C 0.62193 0.80665 0.72064 0.0
C1193 C 0.63721 0.84036 0.73589 0.0
C1194 C 0.63942 0.8448 0.77531 0.0
C1195 C 0.62652 0.81631 0.79903 0.0
H1196 H 0.99314 0.11067 0.54672 0.0
H1197 H 0.07989 0.10714 0.46102 0.0
H1198 H 0.04051 0.12669 0.59408 0.0
H1199 H 0.12648 0.12912 0.50606 0.0
H1200 H 0.20051 0.16147 0.6096 0.0
H1201 H 0.165 0.1389 0.55556 0.0
H1202 H 0.06306 0.18797 0.6041 0.0
H1203 H 0.09905 0.20567 0.66016 0.0
C1204 C 1.02274 0.11141 0.53831 0.0
C1205 C 0.03263 0.11268 0.4999 0.0
C1206 C 0.04963 0.12274 0.565 0.0
C1207 C 0.08624 0.13376 0.55288 0.0
C1208 C 0.09807 0.12325 0.51625 0.0
C1209 C 0.07128 0.10964 0.49046 0.0
C1210 C 0.17082 0.16866 0.60781 0.0
C1211 C 0.15112 0.17981 0.64052 0.0
C1212 C 0.1501 0.155 0.57704 0.0
C1213 C 0.11025 0.15778 0.57764 0.0
C1214 C 0.09322 0.18182 0.6048 0.0
C1215 C 0.11415 0.19365 0.6362 0.0
H1216 H 0.36068 0.68842 0.82942 0.0
H1217 H 0.38549 0.77717 0.75037 0.0
H1218 H 0.38788 0.64144 0.78691 0.0
H1219 H 0.40867 0.73067 0.70503 0.0
H1220 H 0.47357 0.68325 0.64166 0.0
H1221 H 0.47195 0.70126 0.70812 0.0
H1222 H 0.39752 0.60657 0.73132 0.0
H1223 H 0.4043 0.5859 0.66648 0.0
C1224 C 0.37011 0.69768 0.80165 0.0
C1225 C 0.37888 0.73604 0.79512 0.0
C1226 C 0.38685 0.67078 0.77792 0.0
C1227 C 0.40547 0.68329 0.745 0.0
C1228 C 0.399 0.72089 0.73251 0.0
C1229 C 0.38376 0.74731 0.75752 0.0
C1230 C 0.46002 0.66433 0.66174 0.0
C1231 C 0.4348 0.63636 0.64939 0.0
C1232 C 0.45839 0.67493 0.69971 0.0
C1233 C 0.43027 0.65815 0.72273 0.0
C1234 C 0.41698 0.6219 0.71316 0.0
C1235 C 0.42115 0.60991 0.67587 0.0
H1236 H 1.01007 0.3218 0.58233 0.0
H1237 H 0.92929 0.34606 0.49357 0.0
H1238 H 0.96579 0.34864 0.62885 0.0
H1239 H 0.88421 0.36953 0.53928 0.0
H1240 H 0.87811 0.47851 0.6165 0.0
H1241 H 0.89062 0.4293 0.57071 0.0
H1242 H 0.90326 0.34721 0.66109 0.0
H1243 H 0.89136 0.3968 0.70733 0.0
C1244 C 0.98296 0.33298 0.57294 0.0
C1245 C 0.97372 0.3342 0.53446 0.0
C1246 C 0.95718 0.34709 0.59938 0.0
C1247 C 0.92163 0.36113 0.58733 0.0
C1248 C 0.91161 0.35944 0.5491 0.0
C1249 C 0.93775 0.34683 0.5229 0.0
C1250 C 0.88247 0.44979 0.62658 0.0
C1251 C 0.8861 0.44177 0.66523 0.0
C1252 C 0.88903 0.42137 0.60034 0.0
C1253 C 0.89926 0.38489 0.61277 0.0
C1254 C 0.89645 0.37552 0.6512 0.0
C1255 C 0.88984 0.40398 0.6775 0.0
H1256 H 0.63522 0.17441 0.97475 0.0
H1257 H 0.70396 0.10157 0.90437 0.0
H1258 H 0.59652 0.19114 0.91983 0.0
H1259 H 0.66795 0.1198 0.84931 0.0
H1260 H 0.61141 0.17301 0.75176 0.0
H1261 H 0.62176 0.13435 0.80714 0.0
H1262 H 0.62136 0.23581 0.87691 0.0
H1263 H 0.6066 0.27374 0.821 0.0
C1264 C 0.64101 0.16095 0.94772 0.0
C1265 C 0.67358 0.13888 0.94239 0.0
C1266 C 0.6193 0.17075 0.9163 0.0
C1267 C 0.63098 0.1589 0.88001 0.0
C1268 C 0.65871 0.13043 0.8766 0.0
C1269 C 0.67978 0.12021 0.90801 0.0
C1270 C 0.61511 0.18705 0.77877 0.0
C1271 C 0.60966 0.22622 0.78236 0.0
C1272 C 0.6201 0.16484 0.81065 0.0
C1273 C 0.62162 0.1818 0.84657 0.0
C1274 C 0.6188 0.22161 0.84978 0.0
C1275 C 0.61203 0.24363 0.81783 0.0
H1276 H 0.54552 0.11784 0.50955 0.0
H1277 H 0.44143 0.1127 0.5731 0.0
H1278 H 0.50991 0.13259 0.45241 0.0
H1279 H 0.40594 0.13316 0.51848 0.0
H1280 H 0.35523 0.17133 0.40438 0.0
H1281 H 0.37929 0.14452 0.46257 0.0
H1282 H 0.48993 0.19262 0.43703 0.0
H1283 H 0.4659 0.21284 0.37567 0.0
C1284 C 0.51473 0.11809 0.51085 0.0
C1285 C 0.49616 0.1186 0.54587 0.0
C1286 C 0.49442 0.12849 0.47863 0.0
C1287 C 0.45574 0.13861 0.48197 0.0
C1288 C 0.43603 0.1279 0.51499 0.0
C1289 C 0.45644 0.11518 0.54635 0.0
C1290 C 0.38434 0.17749 0.41225 0.0
C1291 C 0.41047 0.1882 0.3842 0.0
C1292 C 0.39851 0.16114 0.44532 0.0
C1293 C 0.43779 0.16283 0.45274 0.0
C1294 C 0.46043 0.18708 0.43021 0.0
C1295 C 0.44628 0.20054 0.39588 0.0
H1296 H 0.44587 0.32869 0.94781 0.0
H1297 H 0.40595 0.43036 0.894 0.0
H1298 H 0.44006 0.29449 0.88834 0.0
H1299 H 0.39433 0.39615 0.83605 0.0
H1300 H 0.38097 0.31985 0.73281 0.0
H1301 H 0.39123 0.36209 0.78516 0.0
H1302 H 0.38987 0.26605 0.86197 0.0
H1303 H 0.38423 0.22375 0.80794 0.0
C1304 C 0.43715 0.34403 0.92271 0.0
C1305 C 0.42294 0.38085 0.92564 0.0
C1306 C 0.43191 0.32409 0.88897 0.0
C1307 C 0.41231 0.34117 0.85845 0.0
C1308 C 0.40739 0.38084 0.85915 0.0
C1309 C 0.41476 0.40093 0.89235 0.0
C1310 C 0.38101 0.30795 0.76118 0.0
C1311 C 0.38474 0.26875 0.76648 0.0
C1312 C 0.38813 0.3323 0.79147 0.0
C1313 C 0.39564 0.31735 0.82774 0.0
C1314 C 0.38829 0.27845 0.83395 0.0
C1315 C 0.383 0.25412 0.80326 0.0
H1316 H 0.63984 0.49682 0.44013 0.0
H1317 H 0.60248 0.42071 0.35139 0.0
H1318 H 0.60683 0.4581 0.48705 0.0
H1319 H 0.56724 0.38395 0.39729 0.0
H1320 H 0.5472 0.30212 0.49216 0.0
H1321 H 0.5773 0.34159 0.44585 0.0
H1322 H 0.54486 0.44173 0.50929 0.0
H1323 H 0.51611 0.40127 0.5579 0.0
C1324 C 0.62477 0.47168 0.43079 0.0
C1325 C 0.62392 0.46145 0.39233 0.0
C1326 C 0.6053 0.44996 0.45746 0.0
C1327 C 0.58411 0.41819 0.44587 0.0
C1328 C 0.58381 0.40785 0.40735 0.0
C1329 C 0.60408 0.42889 0.38097 0.0
C1330 C 0.5457 0.33257 0.49622 0.0
C1331 C 0.52927 0.34862 0.52884 0.0
C1332 C 0.56301 0.35531 0.46937 0.0
C1333 C 0.56357 0.39481 0.47384 0.0
C1334 C 0.54553 0.41123 0.50551 0.0
C1335 C 0.52873 0.38821 0.53307 0.0
H1336 H 0.82626 0.69159 0.84419 0.0
H1337 H 0.75634 0.68969 0.74418 0.0
H1338 H 0.77205 0.67662 0.88302 0.0
H1339 H 0.70028 0.67978 0.78315 0.0
H1340 H 0.65764 0.65797 0.94272 0.0
H1341 H 0.71727 0.67403 0.91328 0.0
H1342 H 0.67707 0.62488 0.80786 0.0
H1343 H 0.61561 0.61357 0.83711 0.0
C1344 C 0.79851 0.691 0.83079 0.0
C1345 C 0.79555 0.68827 0.79122 0.0
C1346 C 0.76727 0.6813 0.85312 0.0
C1347 C 0.7321 0.6732 0.83584 0.0
C1348 C 0.72761 0.6821 0.79707 0.0
C1349 C 0.7594 0.68983 0.77477 0.0
C1350 C 0.66243 0.64874 0.91374 0.0
C1351 C 0.63152 0.63764 0.89107 0.0
C1352 C 0.69653 0.65891 0.89639 0.0
C1353 C 0.70087 0.65412 0.85699 0.0
C1354 C 0.6734 0.63239 0.83741 0.0
C1355 C 0.63867 0.62405 0.85457 0.0
H1356 H 0.85168 0.13965 0.42333 0.0
H1357 H 0.92651 0.08353 0.34645 0.0
H1358 H 0.8678 0.09428 0.47268 0.0
H1359 H 0.94847 0.0418 0.39572 0.0
H1360 H 0.97512 0.97022 0.5007 0.0
H1361 H 0.96213 1.0053 0.44373 0.0
H1362 H 0.91889 0.09787 0.51245 0.0
H1363 H 0.92724 0.05873 0.56862 0.0
C1364 C 0.87113 0.11676 0.41661 0.0
C1365 C 0.8948 0.11901 0.38489 0.0
C1366 C 0.88188 0.09198 0.44548 0.0
C1367 C 0.91378 0.06817 0.44005 0.0
C1368 C 0.92627 0.06183 0.4026 0.0
C1369 C 0.9128 0.08528 0.37379 0.0
C1370 C 0.96381 0.99869 0.50362 0.0
C1371 C 0.94427 1.00933 0.53664 0.0
C1372 C 0.95555 1.01865 0.47054 0.0
C1373 C 0.93432 0.05245 0.4731 0.0
C1374 C 0.93058 0.06964 0.50913 0.0
C1375 C 0.9372 0.04807 0.54155 0.0
H1376 H 0.29347 1.021 0.84017 0.0
H1377 H 0.26174 0.91784 0.78165 0.0
H1378 H 0.32164 0.98433 0.89069 0.0
H1379 H 0.29298 0.88071 0.83091 0.0
H1380 H 0.33594 0.81513 0.91876 0.0
H1381 H 0.28964 0.86102 0.89598 0.0
H1382 H 0.37621 0.94838 0.89817 0.0
H1383 H 0.42135 0.90367 0.92234 0.0
C1384 C 0.29393 0.99038 0.83738 0.0
C1385 C 0.27632 0.97201 0.80668 0.0
C1386 C 0.30947 0.96942 0.86669 0.0
C1387 C 0.30895 0.92972 0.86512 0.0
C1388 C 0.29263 0.91134 0.83358 0.0
C1389 C 0.2759 0.9324 0.80477 0.0
C1390 C 0.34456 0.8445 0.91579 0.0
C1391 C 0.38269 0.85547 0.91985 0.0
C1392 C 0.31813 0.87067 0.90266 0.0
C1393 C 0.33003 0.90753 0.89329 0.0
C1394 C 0.36627 0.91996 0.90434 0.0
C1395 C 0.39243 0.89404 0.9179 0.0
H1396 H 0.17637 0.56017 0.48372 0.0
H1397 H 0.23256 0.47882 0.5559 0.0
H1398 H 0.14441 0.50917 0.45054 0.0
H1399 H 0.1983 0.42727 0.52455 0.0
H1400 H 0.15966 0.33876 0.44013 0.0
H1401 H 0.195 0.39118 0.46904 0.0
H1402 H 0.098 0.46484 0.45229 0.0
H1403 H 0.06466 0.41423 0.42112 0.0
C1404 C 0.18059 0.53135 0.49356 0.0
C1405 C 0.20646 0.52346 0.52276 0.0
C1406 C 0.16238 0.50188 0.47436 0.0
C1407 C 0.16872 0.46373 0.48457 0.0
C1408 C 0.19333 0.45608 0.51514 0.0
C1409 C 0.21239 0.48561 0.53369 0.0
C1410 C 0.1465 0.36651 0.4417 0.0
C1411 C 0.10923 0.37211 0.42858 0.0
C1412 C 0.16643 0.39644 0.45893 0.0
C1413 C 0.14927 0.43236 0.46371 0.0
C1414 C 0.11264 0.43803 0.44892 0.0
C1415 C 0.09321 0.4086 0.43119 0.0
H1416 H 0.59544 0.40354 0.67739 0.0
H1417 H 0.67486 0.31089 0.66321 0.0
H1418 H 0.64613 0.44214 0.7049 0.0
H1419 H 0.7238 0.34751 0.69319 0.0
H1420 H 0.81525 0.42856 0.72471 0.0
H1421 H 0.76612 0.39528 0.69051 0.0
H1422 H 0.68052 0.4485 0.7611 0.0
H1423 H 0.73041 0.48465 0.79321 0.0
C1424 C 0.62371 0.39159 0.67967 0.0
C1425 C 0.63091 0.35398 0.66861 0.0
C1426 C 0.65264 0.41342 0.6961 0.0
C1427 C 0.68906 0.39781 0.70207 0.0
C1428 C 0.69648 0.36094 0.68885 0.0
C1429 C 0.66805 0.33962 0.67181 0.0
C1430 C 0.78601 0.43248 0.73357 0.0
C1431 C 0.77659 0.45859 0.76208 0.0
C1432 C 0.75763 0.41345 0.71379 0.0
C1433 C 0.71908 0.41899 0.72291 0.0
C1434 C 0.70977 0.44409 0.75263 0.0
C1435 C 0.73829 0.46418 0.77165 0.0
H1436 H 0.66656 0.16329 0.69551 0.0
H1437 H 0.57809 0.07825 0.68984 0.0
H1438 H 0.71432 0.11352 0.69514 0.0
H1439 H 0.6253 1.02944 0.688 0.0
H1440 H 0.68226 0.97139 0.59881 0.0
H1441 H 0.6679 0.99445 0.6606 0.0
H1442 H 0.72268 0.10129 0.63235 0.0
H1443 H 0.74377 0.07445 0.57305 0.0
C1444 C 0.6573 0.13401 0.69434 0.0
C1445 C 0.61907 0.1244 0.6877 0.0
C1446 C 0.68457 0.10546 0.69478 0.0
C1447 C 0.67349 0.06857 0.6845 0.0
C1448 C 0.63525 0.0583 0.6908 0.0
C1449 C 0.60778 0.08648 0.69112 0.0
C1450 C 0.69182 0.99965 0.6058 0.0
C1451 C 0.71441 1.02103 0.58078 0.0
C1452 C 0.6834 1.01304 0.64171 0.0
C1453 C 0.69332 0.05012 0.6522 0.0
C1454 C 0.71484 0.07222 0.6264 0.0
C1455 C 0.72577 0.05755 0.59141 0.0
H1456 H 0.30163 0.19339 0.80079 0.0
H1457 H 0.22011 0.22227 0.71531 0.0
H1458 H 0.34769 0.17721 0.75193 0.0
H1459 H 0.26293 0.201 0.66605 0.0
H1460 H 0.36281 0.15446 0.59141 0.0
H1461 H 0.31251 0.18535 0.62701 0.0
H1462 H 0.342 0.11581 0.72408 0.0
H1463 H 0.39611 0.09096 0.6888 0.0
C1464 C 0.29408 0.19789 0.77135 0.0
C1465 C 0.25598 0.20176 0.76078 0.0
C1466 C 0.31978 0.18698 0.74338 0.0
C1467 C 0.30686 0.1829 0.70568 0.0
C1468 C 0.2729 0.20096 0.6951 0.0
C1469 C 0.2486 0.21389 0.72354 0.0
C1470 C 0.35731 0.14484 0.62008 0.0
C1471 C 0.38676 0.12823 0.64124 0.0
C1472 C 0.32895 0.16334 0.64074 0.0
C1473 C 0.32636 0.15639 0.67996 0.0
C1474 C 0.3463 0.12505 0.6951 0.0
C1475 C 0.37619 0.10945 0.6744 0.0
H1476 H 0.4392 0.56544 0.60499 0.0
H1477 H 0.43644 0.50288 0.50035 0.0
H1478 H 0.4274 0.5085 0.64023 0.0
H1479 H 0.4311 0.4439 0.53543 0.0
H1480 H 0.41473 0.39257 0.69514 0.0
H1481 H 0.42637 0.4537 0.66763 0.0
H1482 H 0.38222 0.41243 0.56028 0.0
H1483 H 0.37609 0.3496 0.58768 0.0
C1484 C 0.43918 0.53876 0.58972 0.0
C1485 C 0.43582 0.53852 0.55016 0.0
C1486 C 0.43146 0.50573 0.60999 0.0
C1487 C 0.42468 0.47138 0.5906 0.0
C1488 C 0.4323 0.47017 0.55128 0.0
C1489 C 0.43754 0.50376 0.53106 0.0
C1490 C 0.40579 0.39728 0.66611 0.0
C1491 C 0.39709 0.36626 0.64275 0.0
C1492 C 0.41335 0.43243 0.64978 0.0
C1493 C 0.40864 0.43756 0.61043 0.0
C1494 C 0.38979 0.40874 0.58978 0.0
C1495 C 0.38423 0.37303 0.60591 0.0
H1496 H 0.85516 0.81707 0.67726 0.0
H1497 H 0.79691 0.72946 0.61611 0.0
H1498 H 0.91551 0.79338 0.65623 0.0
H1499 H 0.85649 0.70219 0.59711 0.0
H1500 H 0.96648 0.7069 0.69244 0.0
H1501 H 0.96871 0.75983 0.6482 0.0
H1502 H 0.91515 0.69418 0.56309 0.0
H1503 H 0.91539 0.63818 0.60429 0.0
C1504 C 0.85539 0.79126 0.66049 0.0
C1505 C 0.8223 0.77863 0.64228 0.0
C1506 C 0.89027 0.7784 0.6471 0.0
C1507 C 0.89196 0.74748 0.6216 0.0
C1508 C 0.85748 0.72788 0.61389 0.0
C1509 C 0.8229 0.74213 0.62675 0.0
C1510 C 0.95605 0.70297 0.6639 0.0
C1511 C 0.93605 0.67016 0.65322 0.0
C1512 C 0.957 0.73309 0.63856 0.0
C1513 C 0.92967 0.73159 0.60957 0.0
C1514 C 0.92797 0.69637 0.59094 0.0
C1515 C 0.92738 0.66457 0.61461 0.0
H1516 H 0.75657 0.31267 0.94952 0.0
H1517 H 0.8543 0.24636 0.91826 0.0
H1518 H 0.79014 0.3705 0.93208 0.0
H1519 H 0.89005 0.3029 0.90624 0.0
H1520 H 0.93794 0.41161 0.85942 0.0
H1521 H 0.90886 0.3528 0.87648 0.0
H1522 H 0.83277 0.41288 0.95266 0.0
H1523 H 0.86002 0.47279 0.93109 0.0
C1524 C 0.7849 0.31056 0.93759 0.0
C1525 C 0.80283 0.27524 0.93451 0.0
C1526 C 0.80489 0.34374 0.9291 0.0
C1527 C 0.84375 0.34216 0.91916 0.0
C1528 C 0.86035 0.30622 0.91332 0.0
C1529 C 0.83966 0.27325 0.9198 0.0
C1530 C 0.91573 0.41205 0.88078 0.0
C1531 C 0.8998 0.44654 0.89263 0.0
C1532 C 0.89864 0.378 0.89064 0.0
C1533 C 0.86659 0.37759 0.91456 0.0
C1534 C 0.85556 0.412 0.93207 0.0
C1535 C 0.87187 0.44642 0.9208 0.0
H1536 H 0.49664 0.9893 0.37828 0.0
H1537 H 0.56839 0.0881 0.37052 0.0
H1538 H 0.55105 0.95059 0.39385 0.0
H1539 H 0.62311 0.0504 0.39033 0.0
H1540 H 0.72307 0.97322 0.39308 0.0
H1541 H 0.66709 1.00728 0.36986 0.0
H1542 H 0.59514 0.93012 0.43326 0.0
H1543 H 0.65048 0.89512 0.45213 0.0
C1544 C 0.52391 1.00311 0.38237 0.0
C1545 C 0.52832 0.04173 0.37422 0.0
C1546 C 0.55548 0.98082 0.39096 0.0
C1547 C 0.59216 0.99694 0.39302 0.0
C1548 C 0.5958 0.03647 0.38781 0.0
C1549 C 0.5643 0.05848 0.37772 0.0
C1550 C 0.69508 0.96299 0.40054 0.0
C1551 C 0.69095 0.93231 0.42542 0.0
C1552 C 0.6629 0.98297 0.38813 0.0
C1553 C 0.62617 0.97272 0.40087 0.0
C1554 C 0.62241 0.93951 0.42262 0.0
C1555 C 0.65433 0.91929 0.43394 0.0
H1556 H 0.1201 0.15779 0.92492 0.0
H1557 H 0.11516 0.23632 0.83089 0.0
H1558 H 0.13949 0.20919 0.96642 0.0
H1559 H 0.13673 0.28647 0.87145 0.0
H1560 H 0.26818 0.2364 0.96415 0.0
H1561 H 0.20508 0.21207 0.95173 0.0
H1562 H 0.16992 0.32316 0.91225 0.0
H1563 H 0.23399 0.34562 0.92013 0.0
C1564 C 0.12183 0.1862 0.91333 0.0
C1565 C 0.12034 0.19265 0.87408 0.0
C1566 C 0.13265 0.21575 0.93719 0.0
C1567 C 0.1445 0.25013 0.92084 0.0
C1568 C 0.13107 0.25922 0.8844 0.0
C1569 C 0.11921 0.2301 0.86071 0.0
C1570 C 0.24726 0.25502 0.95139 0.0
C1571 C 0.25622 0.29274 0.94296 0.0
C1572 C 0.21049 0.24171 0.94575 0.0
C1573 C 0.18162 0.26613 0.93231 0.0
C1574 C 0.1911 0.30357 0.92286 0.0
C1575 C 0.22822 0.31627 0.92686 0.0
H1576 H 0.86311 0.1655 0.86586 0.0
H1577 H 0.93749 0.21661 0.94862 0.0
H1578 H 0.9097 0.18074 0.81652 0.0
H1579 H 0.98303 0.23058 0.8981 0.0
H1580 H 0.97594 0.06694 0.8308 0.0
H1581 H 0.93767 0.12284 0.82762 0.0
H1582 H 1.02593 0.18573 0.88717 0.0
H1583 H 0.06266 0.1288 0.89144 0.0
C1584 C 0.88959 0.17914 0.8737 0.0
C1585 C 0.90022 0.18394 0.91188 0.0
C1586 C 0.91583 0.18878 0.84555 0.0
C1587 C 0.95355 0.19468 0.85741 0.0
C1588 C 0.95697 0.21584 0.89103 0.0
C1589 C 0.9317 0.20706 0.9201 0.0
C1590 C 0.98625 0.09245 0.84462 0.0
C1591 C 1.02284 0.09374 0.86016 0.0
C1592 C 0.96492 0.12541 0.84156 0.0
C1593 C 0.97875 0.16041 0.85579 0.0
C1594 C 1.01393 0.16021 0.87501 0.0
C1595 C 0.03492 0.12703 0.87834 0.0
H1596 H 0.64151 0.39928 0.20033 0.0
H1597 H 0.73004 0.4599 0.14165 0.0
H1598 H 0.67768 0.34185 0.19717 0.0
H1599 H 0.76537 0.40088 0.13391 0.0
H1600 H 0.74341 0.23529 0.16973 0.0
H1601 H 0.70428 0.29081 0.17559 0.0
H1602 H 0.80456 0.36179 0.16511 0.0
H1603 H 0.84251 0.30513 0.15411 0.0
C1604 C 0.66806 0.39973 0.18472 0.0
C1605 C 0.68348 0.43429 0.17212 0.0
C1606 C 0.68927 0.36646 0.18304 0.0
C1607 C 0.72581 0.3663 0.16674 0.0
C1608 C 0.73851 0.39994 0.14881 0.0
C1609 C 0.71769 0.43374 0.15188 0.0
C1610 C 0.75725 0.26276 0.17054 0.0
C1611 C 0.79577 0.26598 0.16108 0.0
C1612 C 0.73461 0.29514 0.17331 0.0
C1613 C 0.75056 0.33168 0.16912 0.0
C1614 C 0.7905 0.33451 0.1662 0.0
C1615 C 0.81279 0.30196 0.16159 0.0
H1616 H 0.71432 0.09579 0.1994 0.0
H1617 H 0.68311 0.20419 0.15377 0.0
H1618 H 0.64784 0.07714 0.20113 0.0
H1619 H 0.6177 0.18504 0.15026 0.0
H1620 H 0.4993 0.13334 0.14497 0.0
H1621 H 0.55962 0.1636 0.15516 0.0
H1622 H 0.61464 0.05347 0.15157 0.0
H1623 H 0.55268 1.02347 0.14717 0.0
C1624 C 0.69294 0.11622 0.19121 0.0
C1625 C 0.70329 0.14978 0.17301 0.0
C1626 C 0.65496 0.10509 0.19058 0.0
C1627 C 0.6279 0.12781 0.17168 0.0
C1628 C 0.63758 0.16562 0.16324 0.0
C1629 C 0.67528 0.17714 0.16605 0.0
C1630 C 0.52459 0.11577 0.14451 0.0
C1631 C 0.52161 0.07626 0.14765 0.0
C1632 C 0.55942 0.13316 0.15136 0.0
C1633 C 0.59198 0.11084 0.15757 0.0
C1634 C 0.58974 0.07147 0.1505 0.0
C1635 C 0.5545 0.05416 0.14587 0.0
H1636 H 0.60311 0.4949 0.1275 0.0
H1637 H 0.50622 0.56794 0.14413 0.0
H1638 H 0.56349 0.43983 0.13494 0.0
H1639 H 0.46507 0.51258 0.14737 0.0
H1640 H 0.40244 0.42824 0.20012 0.0
H1641 H 0.45522 0.47261 0.19951 0.0
H1642 H 0.51827 0.39567 0.12728 0.0
H1643 H 0.46723 0.35042 0.1319 0.0
C1644 C 0.57272 0.49928 0.13016 0.0
C1645 C 0.55795 0.5353 0.13892 0.0
C1646 C 0.54998 0.46739 0.13533 0.0
C1647 C 0.51167 0.47186 0.14557 0.0
C1648 C 0.49527 0.50829 0.14312 0.0
C1649 C 0.51845 0.5401 0.13947 0.0
C1650 C 0.4287 0.4197 0.18648 0.0
C1651 C 0.42962 0.38842 0.16201 0.0
C1652 C 0.45838 0.44582 0.18477 0.0
C1653 C 0.48887 0.43949 0.15959 0.0
C1654 C 0.49424 0.40272 0.14508 0.0
C1655 C 0.46511 0.37621 0.14845 0.0
H1656 H 0.96595 0.61853 0.30868 0.0
H1657 H 0.03804 0.58549 0.21632 0.0
H1658 H 0.96285 0.55102 0.32842 0.0
H1659 H 0.03594 0.52057 0.23558 0.0
H1660 H 1.02497 0.39103 0.26386 0.0
H1661 H 1.02678 0.45849 0.24601 0.0
H1662 H 0.96586 0.48759 0.34774 0.0
H1663 H 0.96383 0.4208 0.36499 0.0
C1664 C 0.98245 0.59801 0.29284 0.0
C1665 C 1.0039 0.61107 0.26082 0.0
C1666 C 0.9803 0.55778 0.3041 0.0
C1667 C 0.99902 0.5269 0.28426 0.0
C1668 C 1.02042 0.54054 0.25293 0.0
C1669 C 1.02238 0.57987 0.24194 0.0
C1670 C 1.01116 0.41126 0.28242 0.0
C1671 C 0.99372 0.39748 0.31632 0.0
C1672 C 1.01257 0.45154 0.27225 0.0
C1673 C 0.99672 0.48196 0.2949 0.0
C1674 C 0.97886 0.4677 0.32831 0.0
C1675 C 0.97763 0.42782 0.33845 0.0
H1676 H 0.64942 0.7162 0.05158 0.0
H1677 H 0.67818 0.77067 0.94653 0.0
H1678 H 0.71827 0.71408 0.06755 0.0
H1679 H 0.7447 0.76863 0.96207 0.0
H1680 H 0.87331 0.7819 1.00366 0.0
H1681 H 0.80506 0.78333 0.98698 0.0
H1682 H 0.78318 0.6944 0.06715 0.0
H1683 H 0.85081 0.69138 0.08172 0.0
C1684 C 0.66943 0.72789 0.03157 0.0
C1685 C 0.65483 0.7434 0.99703 0.0
C1686 C 0.71023 0.72648 0.04071 0.0
C1687 C 0.74015 0.74079 1.01643 0.0
C1688 C 0.72517 0.75704 0.98274 0.0
C1689 C 0.68514 0.7581 0.97363 0.0
C1690 C 0.85478 0.76105 1.01656 0.0
C1691 C 0.87086 0.73516 0.04339 0.0
C1692 C 0.81413 0.7623 1.00737 0.0
C1693 C 0.78549 0.73884 1.02514 0.0
C1694 C 0.80185 0.71318 0.05169 0.0
C1695 C 0.84215 0.71122 0.05995 0.0
H1696 H 0.06414 0.10492 0.28338 0.0
H1697 H 0.94273 0.10712 0.28564 0.0
H1698 H 0.06311 0.03698 0.26921 0.0
H1699 H 0.94116 0.03887 0.27207 0.0
H1700 H 0.93957 0.90728 0.24185 0.0
H1701 H 0.94008 0.9756 0.25519 0.0
H1702 H 0.06179 0.97199 0.26611 0.0
H1703 H 0.06065 0.90366 0.25302 0.0
C1704 C 0.03666 0.09182 0.27924 0.0
C1705 C 1.00357 0.11519 0.28382 0.0
C1706 C 0.03596 0.05111 0.27169 0.0
C1707 C 1.00187 1.02882 0.26882 0.0
C1708 C 0.96868 0.05227 0.27294 0.0
C1709 C 0.96954 0.09306 0.28034 0.0
C1710 C 0.9666 0.92018 0.2489 0.0
C1711 C 0.99973 0.89644 0.24863 0.0
C1712 C 0.96709 0.96101 0.25604 0.0
C1713 C 1.00104 0.98288 0.26245 0.0
C1714 C 0.03424 0.95905 0.26194 0.0
C1715 C 0.03361 0.91819 0.255 0.0
H1716 H 0.35675 0.67524 1.00446 0.0
H1717 H 0.36644 0.79489 1.02336 0.0
H1718 H 0.28896 0.67774 1.01998 0.0
H1719 H 0.29863 0.79805 0.03885 0.0
H1720 H 0.17015 0.8014 0.0745 0.0
H1721 H 0.23788 0.79844 0.06011 0.0
H1722 H 0.22398 0.68339 1.02137 0.0
H1723 H 0.15573 0.68679 0.03643 0.0
C1724 C 0.34523 0.70221 1.01367 0.0
C1725 C 0.37026 0.73424 1.01477 0.0
C1726 C 0.30483 0.70395 1.02197 0.0
C1727 C 0.28505 0.73822 0.03135 0.0
C1728 C 0.31024 0.77033 0.03268 0.0
C1729 C 0.35069 0.76848 1.02432 0.0
C1730 C 0.18078 0.77561 0.06158 0.0
C1731 C 0.15451 0.74525 0.0552 0.0
C1732 C 0.2211 0.77361 0.05347 0.0
C1733 C 0.23968 0.74057 0.03889 0.0
C1734 C 0.21331 0.70999 0.03232 0.0
C1735 C 0.1727 0.71213 0.04038 0.0
H1736 H 0.29671 0.13938 0.41882 0.0
H1737 H 0.31081 1.01897 0.42129 0.0
H1738 H 0.28154 0.13896 0.48699 0.0
H1739 H 0.2975 1.0183 0.48938 0.0
H1740 H 0.2731 1.01721 0.62153 0.0
H1741 H 0.28758 1.01796 0.55358 0.0
H1742 H 0.27142 0.13882 0.55207 0.0
H1743 H 0.25728 0.13721 0.62025 0.0
C1744 C 0.29582 0.11222 0.43299 0.0
C1745 C 0.30411 0.07889 0.41098 0.0
C1746 C 0.28773 0.11204 0.47381 0.0
C1747 C 0.28835 0.07873 0.4975 0.0
C1748 C 0.29628 0.04547 0.47525 0.0
C1749 C 0.30388 0.0457 0.43453 0.0
C1750 C 0.27405 0.04455 0.60765 0.0
C1751 C 0.26559 0.07749 0.63011 0.0
C1752 C 0.28192 0.04501 0.56689 0.0
C1753 C 0.28121 0.0785 0.5435 0.0
C1754 C 0.27295 0.11156 0.56603 0.0
C1755 C 0.26507 0.11083 0.60679 0.0
H1756 H 0.31338 0.55632 0.90578 0.0
H1757 H 0.34162 0.44242 0.87256 0.0
H1758 H 0.31331 0.5746 0.83819 0.0
H1759 H 0.34143 0.46014 0.80663 0.0
H1760 H 0.32994 0.49281 0.67523 0.0
H1761 H 0.33205 0.47401 0.74298 0.0
H1762 H 0.3193 0.59063 0.7762 0.0
H1763 H 0.31647 0.60887 0.71146 0.0
C1764 C 0.32036 0.53482 0.88498 0.0
C1765 C 0.32817 0.49719 0.89806 0.0
C1766 C 0.31999 0.54539 0.84464 0.0
C1767 C 0.32703 0.51939 0.81347 0.0
C1768 C 0.33531 0.48228 0.82698 0.0
C1769 C 0.33574 0.47194 0.86668 0.0
C1770 C 0.32726 0.51483 0.69649 0.0
C1771 C 0.32272 0.55328 0.68398 0.0
C1772 C 0.32867 0.50387 0.73685 0.0
C1773 C 0.32574 0.53016 0.76849 0.0
C1774 C 0.32141 0.56802 0.75557 0.0
C1775 C 0.31988 0.57874 0.71614 0.0
H1776 H 0.83917 0.61744 0.61389 0.0
H1777 H 0.75675 0.53128 0.63893 0.0
H1778 H 0.82055 0.6169 0.54728 0.0
H1779 H 0.73738 0.53087 0.57161 0.0
H1780 H 0.69356 0.54311 0.44537 0.0
H1781 H 0.71172 0.54383 0.51185 0.0
H1782 H 0.81567 0.60094 0.48263 0.0
H1783 H 0.79703 0.60011 0.41496 0.0
C1784 C 0.81601 0.59877 0.60594 0.0
C1785 C 0.79919 0.57562 0.63501 0.0
C1786 C 0.80542 0.59803 0.56619 0.0
C1787 C 0.77679 0.57375 0.55077 0.0
C1788 C 0.75926 0.5508 0.57986 0.0
C1789 C 0.7702 0.55136 0.61998 0.0
C1790 C 0.72077 0.55573 0.45219 0.0
C1791 C 0.74317 0.57109 0.42175 0.0
C1792 C 0.73153 0.55612 0.49186 0.0
C1793 C 0.76585 0.57255 0.50592 0.0
C1794 C 0.78877 0.58788 0.47553 0.0
C1795 C 0.77807 0.58706 0.43531 0.0
H1796 H 0.84877 1.00977 0.90237 0.0
H1797 H 0.76181 0.08992 0.87325 0.0
H1798 H 0.85396 0.99202 0.83476 0.0
H1799 H 0.76666 0.07278 0.80706 0.0
H1800 H 0.77389 0.03878 0.67773 0.0
H1801 H 0.76898 0.05612 0.74516 0.0
H1802 H 0.86201 0.98122 0.77098 0.0
H1803 H 0.86642 0.96449 0.70406 0.0
C1804 C 0.82968 1.02321 0.88241 0.0
C1805 C 0.80369 0.05116 0.89642 0.0
C1806 C 0.83305 1.01324 0.84212 0.0
C1807 C 0.81097 1.03034 0.81202 0.0
C1808 C 0.78486 0.05768 0.82658 0.0
C1809 C 0.78169 0.0676 0.86628 0.0
C1810 C 0.79434 1.02671 0.69718 0.0
C1811 C 0.82173 1.00058 0.68248 0.0
C1812 C 0.79121 0.03643 0.73743 0.0
C1813 C 0.81487 1.02066 0.767 0.0
C1814 C 0.8424 0.99499 0.75182 0.0
C1815 C 0.84536 0.98536 0.71192 0.0
H1816 H 0.26894 0.03173 0.12744 0.0
H1817 H 0.32564 0.13781 0.11019 0.0
H1818 H 0.25071 0.03058 0.06014 0.0
H1819 H 0.30776 0.13725 0.04322 0.0
H1820 H 0.28397 0.12813 0.91073 0.0
H1821 H 0.30183 0.12975 0.97843 0.0
H1822 H 0.22826 0.03454 0.99968 0.0
H1823 H 0.21114 0.03305 0.93286 0.0
C1824 C 0.27632 0.05605 0.11019 0.0
C1825 C 0.29742 0.08615 0.12748 0.0
C1826 C 0.26622 0.05516 0.07001 0.0
C1827 C 0.27698 0.08385 0.0429 0.0
C1828 C 0.29792 0.11391 0.06052 0.0
C1829 C 0.30786 0.11472 0.10048 0.0
C1830 C 0.27226 0.1066 0.92924 0.0
C1831 C 0.24639 0.07954 0.9134 0.0
C1832 C 0.28221 0.10785 0.96955 0.0
C1833 C 0.26715 0.08233 0.99785 0.0
C1834 C 0.24178 0.05518 0.98146 0.0
C1835 C 0.23179 0.05412 0.94161 0.0
H1836 H 0.38209 0.55136 0.39062 0.0
H1837 H 0.26052 0.54568 0.38837 0.0
H1838 H 0.38432 0.53734 0.32262 0.0
H1839 H 0.26209 0.53144 0.32047 0.0
H1840 H 0.26524 0.51365 0.18884 0.0
H1841 H 0.26373 0.5286 0.25649 0.0
H1842 H 0.38571 0.51952 0.26058 0.0
H1843 H 0.38656 0.50516 0.19261 0.0
C1844 C 0.35547 0.54525 0.37642 0.0
C1845 C 0.32119 0.54737 0.39812 0.0
C1846 C 0.35663 0.53771 0.3359 0.0
C1847 C 0.32346 0.53258 0.31276 0.0
C1848 C 0.28913 0.53467 0.33465 0.0
C1849 C 0.2881 0.54217 0.37515 0.0
C1850 C 0.29221 0.51687 0.20329 0.0
C1851 C 0.32627 0.51067 0.18202 0.0
C1852 C 0.29137 0.52464 0.24372 0.0
C1853 C 0.32456 0.52589 0.26733 0.0
C1854 C 0.35874 0.51981 0.24591 0.0
C1855 C 0.35945 0.51209 0.20541 0.0
H1856 H 0.7762 0.50576 0.12883 0.0
H1857 H 0.77096 0.62687 0.13121 0.0
H1858 H 0.78845 0.50714 0.06056 0.0
H1859 H 0.7832 0.62876 0.06273 0.0
H1860 H 0.80294 0.63147 0.92956 0.0
H1861 H 0.79211 0.63048 0.99821 0.0
H1862 H 0.7946 0.50849 0.99602 0.0
H1863 H 0.80557 0.51022 0.92744 0.0
C1864 C 0.77921 0.53328 0.11566 0.0
C1865 C 0.77425 0.56618 0.13919 0.0
C1866 C 0.78571 0.53418 0.07477 0.0
C1867 C 0.78713 0.56826 0.05246 0.0
C1868 C 0.7829 0.60126 0.07607 0.0
C1869 C 0.77643 0.6002 0.117 0.0
C1870 C 0.80021 0.60408 0.94296 0.0
C1871 C 0.80419 0.57096 0.9196 0.0
C1872 C 0.79423 0.60336 0.98398 0.0
C1873 C 0.79226 0.56929 1.00637 0.0
C1874 C 0.79562 0.53613 0.9828 0.0
C1875 C 0.80159 0.53702 0.94184 0.0
H1876 H 0.87796 0.03974 0.18805 0.0
H1877 H 0.75664 0.04643 0.19088 0.0
H1878 H 0.8791 1.0282 0.25647 0.0
H1879 H 0.75731 0.03559 0.25966 0.0
H1880 H 0.76175 1.02792 0.3941 0.0
H1881 H 0.7604 0.03933 0.32536 0.0
H1882 H 0.87902 1.01055 0.31886 0.0
H1883 H 0.87949 0.99924 0.38728 0.0
C1884 C 0.85096 0.0375 0.20251 0.0
C1885 C 0.81703 0.0426 0.18066 0.0
C1886 C 0.85162 0.03138 0.24337 0.0
C1887 C 0.81846 0.03095 0.26712 0.0
C1888 C 0.78439 0.03558 0.24516 0.0
C1889 C 0.78383 0.04131 0.2042 0.0
C1890 C 0.78822 1.0253 0.3787 0.0
C1891 C 0.82139 1.01413 0.39948 0.0
C1892 C 0.78735 0.03129 0.33771 0.0
C1893 C 0.81951 1.02611 0.31304 0.0
C1894 C 0.85281 1.01564 0.33405 0.0
C1895 C 0.8534 1.0095 0.37485 0.0
H1896 H 0.64976 0.24408 0.99237 0.0
H1897 H 0.64937 0.24694 0.11368 0.0
H1898 H 0.58126 0.25696 0.99162 0.0
H1899 H 0.58083 0.25953 0.11352 0.0
H1900 H 0.44864 0.28837 0.11134 0.0
H1901 H 0.51677 0.27382 0.11279 0.0
H1902 H 0.51616 0.26241 0.99142 0.0
H1903 H 0.448 0.27662 0.99076 0.0
C1904 C 0.63591 0.24892 1.01937 0.0
C1905 C 0.65867 0.24625 0.05304 0.0
C1906 C 0.59492 0.25581 1.01905 0.0
C1907 C 0.57183 0.25997 0.05251 0.0
C1908 C 0.5947 0.2573 0.08625 0.0
C1909 C 0.63569 0.25036 0.08644 0.0
C1910 C 0.46207 0.28082 0.0848 0.0
C1911 C 0.43904 0.28175 0.05119 0.0
C1912 C 0.50291 0.27308 0.08544 0.0
C1913 C 0.52571 0.26644 0.0522 0.0
C1914 C 0.50259 0.26691 1.01855 0.0
C1915 C 0.46174 0.27454 1.01812 0.0
H1916 H 0.64154 0.85764 0.49955 0.0
H1917 H 0.67065 0.75879 0.56372 0.0
H1918 H 0.57487 0.84043 0.50044 0.0
H1919 H 0.60224 0.74153 0.56608 0.0
H1920 H 0.4688 0.73223 0.59119 0.0
H1921 H 0.53645 0.74808 0.58821 0.0
H1922 H 0.51708 0.80792 0.48388 0.0
H1923 H 0.44901 0.79083 0.48658 0.0
C1924 C 0.63446 0.83125 0.51304 0.0
C1925 C 0.66463 0.80974 0.52991 0.0
C1926 C 0.59468 0.82128 0.51403 0.0
C1927 C 0.58017 0.78898 0.53332 0.0
C1928 C 0.61006 0.76687 0.55062 0.0
C1929 C 0.65058 0.77664 0.54882 0.0
C1930 C 0.4781 0.75004 0.56796 0.0
C1931 C 0.45027 0.76147 0.54047 0.0
C1932 C 0.51831 0.75867 0.5658 0.0
C1933 C 0.53516 0.77982 0.53574 0.0
C1934 C 0.50738 0.79209 0.50831 0.0
C1935 C 0.46693 0.78277 0.5102 0.0
H1936 H 0.98557 0.41014 0.71015 0.0
H1937 H 1.01353 0.40936 0.82836 0.0
H1938 H 0.99891 0.34215 0.70599 0.0
H1939 H 1.02732 0.34113 0.82469 0.0
H1940 H 0.04345 0.2087 0.8186 0.0
H1941 H 1.02811 0.2762 0.82279 0.0
H1942 H 1.01928 0.28078 0.70119 0.0
H1943 H 0.03419 0.21295 0.69778 0.0
C1944 C 0.99631 0.39621 0.73534 0.0
C1945 C 1.00055 0.41842 0.76909 0.0
C1946 C 1.00362 0.35568 0.73311 0.0
C1947 C 1.01497 0.33283 0.76478 0.0
C1948 C 1.01904 0.35514 0.79872 0.0
C1949 C 1.01176 0.3958 0.80084 0.0
C1950 C 0.03598 0.2231 0.79259 0.0
C1951 C 0.03743 0.20182 0.758 0.0
C1952 C 1.02807 0.26353 0.79486 0.0
C1953 C 1.02177 0.28732 0.76248 0.0
C1954 C 1.023 0.26598 0.72776 0.0
C1955 C 1.03101 0.22548 0.72565 0.0
H1956 H 0.60259 0.73502 0.2207 0.0
H1957 H 0.49988 0.70058 0.27666 0.0
H1958 H 0.5838 0.8007 0.22424 0.0
H1959 H 0.48067 0.7678 0.28089 0.0
H1960 H 0.44307 0.89558 0.28029 0.0
H1961 H 0.46146 0.82985 0.2767 0.0
H1962 H 0.57227 0.86325 0.23745 0.0
H1963 H 0.55332 0.93068 0.241 0.0
C1964 C 0.5753 0.74065 0.2337 0.0
C1965 C 0.55353 0.70913 0.24805 0.0
C1966 C 0.56438 0.78011 0.23612 0.0
C1967 C 0.53018 0.79307 0.25337 0.0
C1968 C 0.50744 0.76169 0.26713 0.0
C1969 C 0.51858 0.72162 0.2646 0.0
C1970 C 0.47185 0.8901 0.27096 0.0
C1971 C 0.49592 0.92177 0.26133 0.0
C1972 C 0.4827 0.85059 0.26884 0.0
C1973 C 0.51901 0.83777 0.25645 0.0
C1974 C 0.54372 0.86928 0.24702 0.0
C1975 C 0.53277 0.90941 0.24939 0.0
H1976 H 0.95804 0.79837 0.58788 0.0
H1977 H 0.95699 0.78295 0.46806 0.0
H1978 H 1.02582 0.78301 0.59026 0.0
H1979 H 1.02512 0.7671 0.46939 0.0
H1980 H 0.15584 0.73181 0.4757 0.0
H1981 H 0.08788 0.74679 0.47296 0.0
H1982 H 0.09101 0.77941 0.59045 0.0
H1983 H 0.15915 0.76409 0.59274 0.0
C1984 C 0.97163 0.7904 0.56172 0.0
C1985 C 0.94844 0.79029 0.52841 0.0
C1986 C 1.01211 0.78183 0.56285 0.0
C1987 C 0.03462 0.77309 0.53009 0.0
C1988 C 1.01152 0.77285 0.49629 0.0
C1989 C 0.97078 0.78158 0.49546 0.0
C1990 C 0.1429 0.74363 0.50095 0.0
C1991 C 0.16649 0.74845 0.53383 0.0
C1992 C 0.10231 0.75199 0.49954 0.0
C1993 C 0.08041 0.76513 0.5313 0.0
C1994 C 0.10405 0.76981 0.5644 0.0
C1995 C 0.1448 0.76153 0.56568 0.0
H1996 H 0.05466 0.91352 0.82363 0.0
H1997 H 0.06316 0.90814 0.70269 0.0
H1998 H 0.04026 0.84552 0.82588 0.0
H1999 H 0.04847 0.8399 0.70438 0.0
H2000 H 1.03086 0.70498 0.71131 0.0
H2001 H 0.04581 0.7732 0.70828 0.0
H2002 H 1.01991 0.78369 0.82691 0.0
H2003 H 1.00485 0.71603 0.82922 0.0
C2004 C 0.05196 0.89868 0.79685 0.0
C2005 C 0.0581 0.91996 0.76272 0.0
C2006 C 0.044 0.85797 0.79813 0.0
C2007 C 0.04233 0.83356 0.7654 0.0
C2008 C 0.04876 0.85489 0.73116 0.0
C2009 C 0.05668 0.89569 0.72998 0.0
C2010 C 1.02931 0.72106 0.73743 0.0
C2011 C 1.01739 0.70145 0.77112 0.0
C2012 C 0.0376 0.76185 0.73557 0.0
C2013 C 0.03462 0.78766 0.76721 0.0
C2014 C 1.02351 0.76773 0.80096 0.0
C2015 C 1.015 0.72722 0.80258 0.0
H2016 H 0.55796 0.10055 0.77371 0.0
H2017 H 0.43722 0.09643 0.75918 0.0
H2018 H 0.55855 0.03278 0.78926 0.0
H2019 H 0.43717 1.02878 0.77481 0.0
H2020 H 0.43931 0.89609 0.79474 0.0
H2021 H 0.43879 0.96418 0.77988 0.0
H2022 H 0.5578 0.97074 0.80736 0.0
H2023 H 0.55781 0.90289 0.82183 0.0
C2024 C 0.53083 0.08612 0.77572 0.0
C2025 C 0.49716 0.10742 0.76753 0.0
C2026 C 0.53115 0.04562 0.7841 0.0
C2027 C 0.49786 1.0219 0.78411 0.0
C2028 C 0.46418 0.04335 0.77593 0.0
C2029 C 0.46399 0.08379 0.76759 0.0
C2030 C 0.46603 0.9113 0.79617 0.0
C2031 C 0.4992 0.89081 0.80765 0.0
C2032 C 0.46568 0.95192 0.78818 0.0
C2033 C 0.49831 0.97636 0.79166 0.0
C2034 C 0.53141 0.95559 0.80319 0.0
C2035 C 0.53165 0.91512 0.81121 0.0
H2036 H 0.14476 0.25404 0.55626 0.0
H2037 H 0.17609 0.21441 0.44547 0.0
H2038 H 0.21302 0.25499 0.57378 0.0
H2039 H 0.24258 0.21439 0.46272 0.0
H2040 H 0.37209 0.20211 0.50468 0.0
H2041 H 0.30422 0.20024 0.48588 0.0
H2042 H 0.27686 0.27686 0.5766 0.0
H2043 H 0.34357 0.28106 0.59278 0.0
C2044 C 0.16526 0.24451 0.53544 0.0
C2045 C 0.15161 0.23305 0.49889 0.0
C2046 C 0.20584 0.24551 0.54549 0.0
C2047 C 0.23651 0.23497 0.52016 0.0
C2048 C 0.22243 0.22275 0.48436 0.0
C2049 C 0.18256 0.22237 0.47433 0.0
C2050 C 0.35226 0.21971 0.51998 0.0
C2051 C 0.36665 0.24245 0.55035 0.0
C2052 C 0.31179 0.21795 0.50972 0.0
C2053 C 0.28168 0.23741 0.5299 0.0
C2054 C 0.29645 0.26026 0.55974 0.0
C2055 C 0.33642 0.26291 0.56901 0.0
H2056 H 0.44299 0.60003 0.79012 0.0
H2057 H 0.5644 0.59877 0.7929 0.0
H2058 H 0.44222 0.53187 0.77559 0.0
H2059 H 0.56441 0.53092 0.77836 0.0
H2060 H 0.56413 0.40092 0.74579 0.0
H2061 H 0.56407 0.46899 0.75932 0.0
H2062 H 0.44267 0.46567 0.77329 0.0
H2063 H 0.44333 0.39726 0.75944 0.0
C2064 C 0.47004 0.58614 0.78611 0.0
C2065 C 0.50378 0.60853 0.79092 0.0
C2066 C 0.46971 0.54538 0.77828 0.0
C2067 C 0.50329 0.52228 0.77517 0.0
C2068 C 0.53707 0.54483 0.7796 0.0
C2069 C 0.5372 0.58547 0.78754 0.0
C2070 C 0.53721 0.41382 0.75325 0.0
C2071 C 0.50409 0.39007 0.75342 0.0
C2072 C 0.53701 0.45452 0.76072 0.0
C2073 C 0.50336 0.4764 0.76819 0.0
C2074 C 0.47003 0.45263 0.76823 0.0
C2075 C 0.47038 0.41175 0.76085 0.0
H2076 H 0.66961 0.28857 0.58386 0.0
H2077 H 0.65164 0.17998 0.53205 0.0
H2078 H 0.7369 0.28609 0.56755 0.0
H2079 H 0.71954 0.17711 0.51517 0.0
H2080 H 0.85173 0.16919 0.4925 0.0
H2081 H 0.78433 0.1711 0.50953 0.0
H2082 H 0.79795 0.28662 0.54679 0.0
H2083 H 0.86548 0.28409 0.52963 0.0
C2084 C 0.67931 0.26433 0.5676 0.0
C2085 C 0.65209 0.23559 0.55814 0.0
C2086 C 0.71944 0.26258 0.55833 0.0
C2087 C 0.73704 0.23132 0.53925 0.0
C2088 C 0.70973 0.20234 0.52959 0.0
C2089 C 0.66926 0.20426 0.53883 0.0
C2090 C 0.84121 0.19475 0.50594 0.0
C2091 C 0.86735 0.22547 0.51151 0.0
C2092 C 0.80098 0.19625 0.51527 0.0
C2093 C 0.78232 0.2291 0.53034 0.0
C2094 C 0.80859 0.25993 0.53606 0.0
C2095 C 0.84893 0.25832 0.52667 0.0
H2096 H 0.13187 0.3673 0.07468 0.0
H2097 H 0.16518 0.26207 1.02296 0.0
H2098 H 0.06541 0.34852 0.07239 0.0
H2099 H 0.09785 0.24275 1.02074 0.0
H2100 H 0.97066 0.21298 1.00397 0.0
H2101 H 0.03561 0.23347 1.00654 0.0
H2102 H 1.00347 0.32548 0.07994 0.0
H2103 H 0.93624 0.30457 0.07682 0.0
C2104 C 0.1257 0.33961 0.06288 0.0
C2105 C 0.15684 0.31686 0.04946 0.0
C2106 C 0.08605 0.32852 0.06155 0.0
C2107 C 0.07291 0.29344 0.04616 0.0
C2108 C 0.10409 0.27024 0.03284 0.0
C2109 C 0.14417 0.28134 0.03448 0.0
C2110 C 0.97599 0.23845 1.02023 0.0
C2111 C 0.94457 0.25681 0.039 0.0
C2112 C 1.01522 0.2502 1.02226 0.0
C2113 C 1.02825 0.28176 0.04377 0.0
C2114 C 0.99709 0.30106 0.06248 0.0
C2115 C 0.95708 0.28907 0.06038 0.0
H2116 H 0.52654 0.21145 0.20326 0.0
H2117 H 0.51034 0.2184 0.32328 0.0
H2118 H 0.54 0.27989 0.20109 0.0
H2119 H 0.52394 0.28632 0.32182 0.0
H2120 H 0.53911 0.41891 0.31814 0.0
H2121 H 0.52613 0.35065 0.31898 0.0
H2122 H 0.55617 0.34373 0.20093 0.0
H2123 H 0.56936 0.41208 0.20082 0.0
C2124 C 0.52748 0.22667 0.22992 0.0
C2125 C 0.51913 0.20594 0.26391 0.0
C2126 C 0.53471 0.26754 0.22865 0.0
C2127 C 0.5335 0.2922 0.26123 0.0
C2128 C 0.52568 0.27122 0.2952 0.0
C2129 C 0.51851 0.23055 0.29631 0.0
C2130 C 0.54159 0.40363 0.2916 0.0
C2131 C 0.55339 0.42441 0.25875 0.0
C2132 C 0.53468 0.36281 0.29218 0.0
C2133 C 0.5396 0.3381 0.26004 0.0
C2134 C 0.5511 0.35904 0.22703 0.0
C2135 C 0.55818 0.39985 0.22665 0.0
loop_
_geom_bond_atom_site_label_1
_geom_bond_atom_site_label_2
_geom_bond_distance
_geom_bond_site_symmetry_2
_ccdc_geom_bond_type
H0 O1 0.850 . S
O1 H0 0.850 . S
O1 Tb2 2.341 . S
O1 Tb3 2.341 . S
O1 Tb4 2.341 . S
Tb2 O1 2.341 . S
Tb2 O5 2.341 . S
Tb2 O6 2.341 1_455 S
Tb2 O7 2.341 1_455 S
Tb2 O22 2.344 . S
Tb2 O25 2.344 1_455 S
Tb2 O38 2.344 1_455 S
Tb2 O41 2.344 . S
Tb3 O1 2.341 . S
Tb3 O5 2.341 . S
Tb3 O8 2.341 . S
Tb3 O10 2.341 . S
Tb3 O26 2.344 . S
Tb3 O29 2.344 . S
Tb3 O34 2.344 . S
Tb3 O37 2.344 . S
Tb4 O1 2.341 . S
Tb4 O6 2.341 1_455 S
Tb4 O9 2.341 1_455 S
Tb4 O10 2.341 . S
Tb4 O30 2.344 . S
Tb4 O33 2.344 . S
Tb4 O43 2.344 1_455 S
Tb4 O44 2.344 . S
O5 Tb2 2.341 . S
O5 Tb3 2.341 . S
O5 H11 0.850 . S
O5 Tb13 2.341 1_455 S
O6 Tb2 2.341 1_655 S
O6 Tb4 2.341 1_655 S
O6 H12 0.850 . S
O6 Tb14 2.341 . S
O7 Tb2 2.341 1_655 S
O7 Tb13 2.341 . S
O7 Tb14 2.341 . S
O7 H15 0.850 . S
O8 Tb3 2.341 . S
O8 Tb13 2.341 1_455 S
O8 H16 0.850 . S
O8 Tb17 2.341 . S
O9 Tb4 2.341 1_655 S
O9 Tb14 2.341 . S
O9 Tb17 2.341 1_655 S
O9 H18 0.850 . S
O10 Tb3 2.341 . S
O10 Tb4 2.341 . S
O10 Tb17 2.341 . S
O10 H19 0.850 . S
H11 O5 0.850 . S
H12 O6 0.850 . S
Tb13 O5 2.341 1_655 S
Tb13 O7 2.341 . S
Tb13 O8 2.341 1_655 S
Tb13 O20 2.341 . S
Tb13 O31 2.344 . S
Tb13 O32 2.344 . S
Tb13 O42 2.344 1_655 S
Tb13 O45 2.344 . S
Tb14 O6 2.341 . S
Tb14 O7 2.341 . S
Tb14 O9 2.341 . S
Tb14 O20 2.341 . S
Tb14 O27 2.344 . S
Tb14 O28 2.344 . S
Tb14 O35 2.344 . S
Tb14 O36 2.344 . S
H15 O7 0.850 . S
H16 O8 0.850 . S
Tb17 O8 2.341 . S
Tb17 O9 2.341 1_455 S
Tb17 O10 2.341 . S
Tb17 O20 2.341 1_455 S
Tb17 O23 2.344 1_455 S
Tb17 O24 2.344 . S
Tb17 O39 2.344 . S
Tb17 O40 2.344 1_455 S
H18 O9 0.850 . S
H19 O10 0.850 . S
O20 Tb13 2.341 . S
O20 Tb14 2.341 . S
O20 Tb17 2.341 1_655 S
O20 H21 0.850 . S
H21 O20 0.850 . S
O22 Tb2 2.344 . S
O22 C46 1.272 . S
O23 Tb17 2.344 1_655 S
O23 C47 1.272 . S
O24 Tb17 2.344 . S
O24 C48 1.272 . S
O25 Tb2 2.344 1_655 S
O25 C49 1.272 . S
O26 Tb3 2.344 . S
O26 C50 1.272 . S
O27 Tb14 2.344 . S
O27 C51 1.272 . S
O28 Tb14 2.344 . S
O28 C52 1.272 . S
O29 Tb3 2.344 . S
O29 C53 1.272 . S
O30 Tb4 2.344 . S
O30 C54 1.272 . S
O31 Tb13 2.344 . S
O31 C55 1.272 . S
O32 Tb13 2.344 . S
O32 C56 1.272 . S
O33 Tb4 2.344 . S
O33 C57 1.272 . S
O34 Tb3 2.344 . S
O34 C46 1.272 . S
O35 Tb14 2.344 . S
O35 C47 1.272 . S
O36 Tb14 2.344 . S
O36 C49 1.272 . S
O37 Tb3 2.344 . S
O37 C48 1.272 . S
O38 Tb2 2.344 1_655 S
O38 C56 1.272 . S
O39 Tb17 2.344 . S
O39 C57 1.272 . S
O40 Tb17 2.344 1_655 S
O40 C55 1.272 . S
O41 Tb2 2.344 . S
O41 C54 1.272 . S
O42 Tb13 2.344 1_455 S
O42 C53 1.272 . S
O43 Tb4 2.344 1_655 S
O43 C52 1.272 . S
O44 Tb4 2.344 . S
O44 C50 1.272 . S
O45 Tb13 2.344 . S
O45 C51 1.272 . S
C46 O22 1.272 . S
C46 O34 1.272 . S
C47 O23 1.272 . S
C47 O35 1.272 . S
C48 O24 1.272 . S
C48 O37 1.272 . S
C49 O25 1.272 . S
C49 O36 1.272 . S
C50 O26 1.272 . S
C50 O44 1.272 . S
C51 O27 1.272 . S
C51 O45 1.272 . S
C52 O28 1.272 . S
C52 O43 1.272 . S
C53 O29 1.272 . S
C53 O42 1.272 . S
C54 O30 1.272 . S
C54 O41 1.272 . S
C55 O31 1.272 . S
C55 O40 1.272 . S
C56 O32 1.272 . S
C56 O38 1.272 . S
C57 O33 1.272 . S
C57 O39 1.272 . S
H58 O59 0.850 . S
O59 H58 0.850 . S
O59 Tb60 2.341 . S
O59 Tb61 2.341 . S
O59 Tb62 2.341 . S
Tb60 O59 2.341 . S
Tb60 O63 2.341 . S
Tb60 O64 2.341 . S
Tb60 O65 2.341 . S
Tb60 O80 2.344 . S
Tb60 O83 2.344 . S
Tb60 O96 2.344 . S
Tb60 O99 2.344 . S
Tb61 O59 2.341 . S
Tb61 O63 2.341 . S
Tb61 O66 2.341 . S
Tb61 O68 2.341 . S
Tb61 O84 2.344 . S
Tb61 O87 2.344 . S
Tb61 O92 2.344 . S
Tb61 O95 2.344 . S
Tb62 O59 2.341 . S
Tb62 O64 2.341 . S
Tb62 O67 2.341 . S
Tb62 O68 2.341 . S
Tb62 O88 2.344 . S
Tb62 O91 2.344 . S
Tb62 O101 2.344 . S
Tb62 O102 2.344 . S
O63 Tb60 2.341 . S
O63 Tb61 2.341 . S
O63 H69 0.850 . S
O63 Tb71 2.341 . S
O64 Tb60 2.341 . S
O64 Tb62 2.341 . S
O64 H70 0.850 . S
O64 Tb72 2.341 . S
O65 Tb60 2.341 . S
O65 Tb71 2.341 . S
O65 Tb72 2.341 . S
O65 H73 0.850 . S
O66 Tb61 2.341 . S
O66 Tb71 2.341 . S
O66 H74 0.850 . S
O66 Tb75 2.341 . S
O67 Tb62 2.341 . S
O67 Tb72 2.341 . S
O67 Tb75 2.341 . S
O67 H76 0.850 . S
O68 Tb61 2.341 . S
O68 Tb62 2.341 . S
O68 Tb75 2.341 . S
O68 H77 0.850 . S
H69 O63 0.850 . S
H70 O64 0.850 . S
Tb71 O63 2.341 . S
Tb71 O65 2.341 . S
Tb71 O66 2.341 . S
Tb71 O78 2.341 . S
Tb71 O89 2.344 . S
Tb71 O90 2.344 . S
Tb71 O100 2.344 . S
Tb71 O103 2.344 . S
Tb72 O64 2.341 . S
Tb72 O65 2.341 . S
Tb72 O67 2.341 . S
Tb72 O78 2.341 . S
Tb72 O85 2.344 . S
Tb72 O86 2.344 . S
Tb72 O93 2.344 . S
Tb72 O94 2.344 . S
H73 O65 0.850 . S
H74 O66 0.850 . S
Tb75 O66 2.341 . S
Tb75 O67 2.341 . S
Tb75 O68 2.341 . S
Tb75 O78 2.341 . S
Tb75 O81 2.344 . S
Tb75 O82 2.344 . S
Tb75 O97 2.344 . S
Tb75 O98 2.344 . S
H76 O67 0.850 . S
H77 O68 0.850 . S
O78 Tb71 2.341 . S
O78 Tb72 2.341 . S
O78 Tb75 2.341 . S
O78 H79 0.850 . S
H79 O78 0.850 . S
O80 Tb60 2.344 . S
O80 C104 1.272 . S
O81 Tb75 2.344 . S
O81 C105 1.272 . S
O82 Tb75 2.344 . S
O82 C106 1.272 . S
O83 Tb60 2.344 . S
O83 C107 1.272 . S
O84 Tb61 2.344 . S
O84 C108 1.272 . S
O85 Tb72 2.344 . S
O85 C109 1.272 . S
O86 Tb72 2.344 . S
O86 C110 1.272 . S
O87 Tb61 2.344 . S
O87 C111 1.272 . S
O88 Tb62 2.344 . S
O88 C112 1.272 . S
O89 Tb71 2.344 . S
O89 C113 1.272 . S
O90 Tb71 2.344 . S
O90 C114 1.272 . S
O91 Tb62 2.344 . S
O91 C115 1.272 . S
O92 Tb61 2.344 . S
O92 C104 1.272 . S
O93 Tb72 2.344 . S
O93 C105 1.272 . S
O94 Tb72 2.344 . S
O94 C107 1.272 . S
O95 Tb61 2.344 . S
O95 C106 1.272 . S
O96 Tb60 2.344 . S
O96 C114 1.272 . S
O97 Tb75 2.344 . S
O97 C115 1.272 . S
O98 Tb75 2.344 . S
O98 C113 1.272 . S
O99 Tb60 2.344 . S
O99 C112 1.272 . S
O100 Tb71 2.344 . S
O100 C111 1.272 . S
O101 Tb62 2.344 . S
O101 C110 1.272 . S
O102 Tb62 2.344 . S
O102 C108 1.272 . S
O103 Tb71 2.344 . S
O103 C109 1.272 . S
C104 O80 1.272 . S
C104 O92 1.272 . S
C105 O81 1.272 . S
C105 O93 1.272 . S
C106 O82 1.272 . S
C106 O95 1.272 . S
C107 O83 1.272 . S
C107 O94 1.272 . S
C108 O84 1.272 . S
C108 O102 1.272 . S
C109 O85 1.272 . S
C109 O103 1.272 . S
C110 O86 1.272 . S
C110 O101 1.272 . S
C111 O87 1.272 . S
C111 O100 1.272 . S
C112 O88 1.272 . S
C112 O99 1.272 . S
C113 O89 1.272 . S
C113 O98 1.272 . S
C114 O90 1.272 . S
C114 O96 1.272 . S
C115 O91 1.272 . S
C115 O97 1.272 . S
H116 O117 0.850 . S
O117 H116 0.850 . S
O117 Tb118 2.341 1_655 S
O117 Tb119 2.341 . S
O117 Tb120 2.341 . S
Tb118 O117 2.341 1_455 S
Tb118 O121 2.341 . S
Tb118 O122 2.341 1_455 S
Tb118 O123 2.341 . S
Tb118 O138 2.344 1_455 S
Tb118 O141 2.344 . S
Tb118 O154 2.344 . S
Tb118 O157 2.344 1_455 S
Tb119 O117 2.341 . S
Tb119 O121 2.341 1_655 S
Tb119 O124 2.341 1_655 S
Tb119 O126 2.341 . S
Tb119 O142 2.344 . S
Tb119 O145 2.344 1_655 S
Tb119 O150 2.344 . S
Tb119 O153 2.344 . S
Tb120 O117 2.341 . S
Tb120 O122 2.341 . S
Tb120 O125 2.341 . S
Tb120 O126 2.341 . S
Tb120 O146 2.344 . S
Tb120 O149 2.344 . S
Tb120 O159 2.344 . S
Tb120 O160 2.344 . S
O121 Tb118 2.341 . S
O121 Tb119 2.341 1_455 S
O121 H127 0.850 . S
O121 Tb129 2.341 . S
O122 Tb118 2.341 1_655 S
O122 Tb120 2.341 . S
O122 H128 0.850 . S
O122 Tb130 2.341 1_655 S
O123 Tb118 2.341 . S
O123 Tb129 2.341 . S
O123 Tb130 2.341 . S
O123 H131 0.850 . S
O124 Tb119 2.341 1_455 S
O124 Tb129 2.341 . S
O124 H132 0.850 . S
O124 Tb133 2.341 . S
O125 Tb120 2.341 . S
O125 Tb130 2.341 1_655 S
O125 Tb133 2.341 1_655 S
O125 H134 0.850 . S
O126 Tb119 2.341 . S
O126 Tb120 2.341 . S
O126 Tb133 2.341 1_655 S
O126 H135 0.850 . S
H127 O121 0.850 . S
H128 O122 0.850 . S
Tb129 O121 2.341 . S
Tb129 O123 2.341 . S
Tb129 O124 2.341 . S
Tb129 O136 2.341 . S
Tb129 O147 2.344 . S
Tb129 O148 2.344 . S
Tb129 O158 2.344 . S
Tb129 O161 2.344 . S
Tb130 O122 2.341 1_455 S
Tb130 O123 2.341 . S
Tb130 O125 2.341 1_455 S
Tb130 O136 2.341 . S
Tb130 O143 2.344 . S
Tb130 O144 2.344 1_455 S
Tb130 O151 2.344 . S
Tb130 O152 2.344 . S
H131 O123 0.850 . S
H132 O124 0.850 . S
Tb133 O124 2.341 . S
Tb133 O125 2.341 1_455 S
Tb133 O126 2.341 1_455 S
Tb133 O136 2.341 . S
Tb133 O139 2.344 . S
Tb133 O140 2.344 1_455 S
Tb133 O155 2.344 1_455 S
Tb133 O156 2.344 . S
H134 O125 0.850 . S
H135 O126 0.850 . S
O136 Tb129 2.341 . S
O136 Tb130 2.341 . S
O136 Tb133 2.341 . S
O136 H137 0.850 . S
H137 O136 0.850 . S
O138 Tb118 2.344 1_655 S
O138 C162 1.272 . S
O139 Tb133 2.344 . S
O139 C163 1.272 . S
O140 Tb133 2.344 1_655 S
O140 C164 1.272 . S
O141 Tb118 2.344 . S
O141 C165 1.272 . S
O142 Tb119 2.344 . S
O142 C166 1.272 . S
O143 Tb130 2.344 . S
O143 C167 1.272 . S
O144 Tb130 2.344 1_655 S
O144 C168 1.272 . S
O145 Tb119 2.344 1_455 S
O145 C169 1.272 . S
O146 Tb120 2.344 . S
O146 C170 1.272 . S
O147 Tb129 2.344 . S
O147 C171 1.272 . S
O148 Tb129 2.344 . S
O148 C172 1.272 . S
O149 Tb120 2.344 . S
O149 C173 1.272 . S
O150 Tb119 2.344 . S
O150 C162 1.272 . S
O151 Tb130 2.344 . S
O151 C163 1.272 . S
O152 Tb130 2.344 . S
O152 C165 1.272 . S
O153 Tb119 2.344 . S
O153 C164 1.272 . S
O154 Tb118 2.344 . S
O154 C172 1.272 . S
O155 Tb133 2.344 1_655 S
O155 C173 1.272 . S
O156 Tb133 2.344 . S
O156 C171 1.272 . S
O157 Tb118 2.344 1_655 S
O157 C170 1.272 . S
O158 Tb129 2.344 . S
O158 C169 1.272 . S
O159 Tb120 2.344 . S
O159 C168 1.272 . S
O160 Tb120 2.344 . S
O160 C166 1.272 . S
O161 Tb129 2.344 . S
O161 C167 1.272 . S
C162 O138 1.272 . S
C162 O150 1.272 . S
C163 O139 1.272 . S
C163 O151 1.272 . S
C164 O140 1.272 . S
C164 O153 1.272 . S
C165 O141 1.272 . S
C165 O152 1.272 . S
C166 O142 1.272 . S
C166 O160 1.272 . S
C167 O143 1.272 . S
C167 O161 1.272 . S
C168 O144 1.272 . S
C168 O159 1.272 . S
C169 O145 1.272 . S
C169 O158 1.272 . S
C170 O146 1.272 . S
C170 O157 1.272 . S
C171 O147 1.272 . S
C171 O156 1.272 . S
C172 O148 1.272 . S
C172 O154 1.272 . S
C173 O149 1.272 . S
C173 O155 1.272 . S
H174 O175 0.850 . S
O175 H174 0.850 . S
O175 Tb176 2.341 . S
O175 Tb177 2.341 1_565 S
O175 Tb178 2.341 . S
Tb176 O175 2.341 . S
Tb176 O179 2.341 1_565 S
Tb176 O180 2.341 . S
Tb176 O181 2.341 1_565 S
Tb176 O196 2.344 . S
Tb176 O199 2.344 . S
Tb176 O212 2.344 1_565 S
Tb176 O215 2.344 . S
Tb177 O175 2.341 1_545 S
Tb177 O179 2.341 . S
Tb177 O182 2.341 . S
Tb177 O184 2.341 1_545 S
Tb177 O200 2.344 1_545 S
Tb177 O203 2.344 . S
Tb177 O208 2.344 1_545 S
Tb177 O211 2.344 . S
Tb178 O175 2.341 . S
Tb178 O180 2.341 . S
Tb178 O183 2.341 . S
Tb178 O184 2.341 . S
Tb178 O204 2.344 . S
Tb178 O207 2.344 . S
Tb178 O217 2.344 . S
Tb178 O218 2.344 . S
O179 Tb176 2.341 1_545 S
O179 Tb177 2.341 . S
O179 H185 0.850 . S
O179 Tb187 2.341 . S
O180 Tb176 2.341 . S
O180 Tb178 2.341 . S
O180 H186 0.850 . S
O180 Tb188 2.341 1_565 S
O181 Tb176 2.341 1_545 S
O181 Tb187 2.341 . S
O181 Tb188 2.341 . S
O181 H189 0.850 . S
O182 Tb177 2.341 . S
O182 Tb187 2.341 . S
O182 H190 0.850 . S
O182 Tb191 2.341 . S
O183 Tb178 2.341 . S
O183 Tb188 2.341 1_565 S
O183 Tb191 2.341 1_565 S
O183 H192 0.850 . S
O184 Tb177 2.341 1_565 S
O184 Tb178 2.341 . S
O184 Tb191 2.341 1_565 S
O184 H193 0.850 . S
H185 O179 0.850 . S
H186 O180 0.850 . S
Tb187 O179 2.341 . S
Tb187 O181 2.341 . S
Tb187 O182 2.341 . S
Tb187 O194 2.341 . S
Tb187 O205 2.344 . S
Tb187 O206 2.344 . S
Tb187 O216 2.344 . S
Tb187 O219 2.344 . S
Tb188 O180 2.341 1_545 S
Tb188 O181 2.341 . S
Tb188 O183 2.341 1_545 S
Tb188 O194 2.341 . S
Tb188 O201 2.344 . S
Tb188 O202 2.344 1_545 S
Tb188 O209 2.344 . S
Tb188 O210 2.344 1_545 S
H189 O181 0.850 . S
H190 O182 0.850 . S
Tb191 O182 2.341 . S
Tb191 O183 2.341 1_545 S
Tb191 O184 2.341 1_545 S
Tb191 O194 2.341 . S
Tb191 O197 2.344 . S
Tb191 O198 2.344 . S
Tb191 O213 2.344 1_545 S
Tb191 O214 2.344 . S
H192 O183 0.850 . S
H193 O184 0.850 . S
O194 Tb187 2.341 . S
O194 Tb188 2.341 . S
O194 Tb191 2.341 . S
O194 H195 0.850 . S
H195 O194 0.850 . S
O196 Tb176 2.344 . S
O196 C220 1.272 . S
O197 Tb191 2.344 . S
O197 C221 1.272 . S
O198 Tb191 2.344 . S
O198 C222 1.272 . S
O199 Tb176 2.344 . S
O199 C223 1.272 . S
O200 Tb177 2.344 1_565 S
O200 C224 1.272 . S
O201 Tb188 2.344 . S
O201 C225 1.272 . S
O202 Tb188 2.344 1_565 S
O202 C226 1.272 . S
O203 Tb177 2.344 . S
O203 C227 1.272 . S
O204 Tb178 2.344 . S
O204 C228 1.272 . S
O205 Tb187 2.344 . S
O205 C229 1.272 . S
O206 Tb187 2.344 . S
O206 C230 1.272 . S
O207 Tb178 2.344 . S
O207 C231 1.272 . S
O208 Tb177 2.344 1_565 S
O208 C220 1.272 . S
O209 Tb188 2.344 . S
O209 C221 1.272 . S
O210 Tb188 2.344 1_565 S
O210 C223 1.272 . S
O211 Tb177 2.344 . S
O211 C222 1.272 . S
O212 Tb176 2.344 1_545 S
O212 C230 1.272 . S
O213 Tb191 2.344 1_565 S
O213 C231 1.272 . S
O214 Tb191 2.344 . S
O214 C229 1.272 . S
O215 Tb176 2.344 . S
O215 C228 1.272 . S
O216 Tb187 2.344 . S
O216 C227 1.272 . S
O217 Tb178 2.344 . S
O217 C226 1.272 . S
O218 Tb178 2.344 . S
O218 C224 1.272 . S
O219 Tb187 2.344 . S
O219 C225 1.272 . S
C220 O196 1.272 . S
C220 O208 1.272 . S
C221 O197 1.272 . S
C221 O209 1.272 . S
C222 O198 1.272 . S
C222 O211 1.272 . S
C223 O199 1.272 . S
C223 O210 1.272 . S
C224 O200 1.272 . S
C224 O218 1.272 . S
C225 O201 1.272 . S
C225 O219 1.272 . S
C226 O202 1.272 . S
C226 O217 1.272 . S
C227 O203 1.272 . S
C227 O216 1.272 . S
C228 O204 1.272 . S
C228 O215 1.272 . S
C229 O205 1.272 . S
C229 O214 1.272 . S
C230 O206 1.272 . S
C230 O212 1.272 . S
C231 O207 1.272 . S
C231 O213 1.272 . S
H232 O233 0.850 . S
O233 H232 0.850 . S
O233 Tb234 2.341 1_556 S
O233 Tb235 2.341 . S
O233 Tb236 2.341 . S
Tb234 O233 2.341 1_554 S
Tb234 O237 2.341 1_554 S
Tb234 O238 2.341 . S
Tb234 O239 2.341 . S
Tb234 O254 2.344 1_554 S
Tb234 O257 2.344 . S
Tb234 O270 2.344 . S
Tb234 O273 2.344 1_554 S
Tb235 O233 2.341 . S
Tb235 O237 2.341 . S
Tb235 O240 2.341 . S
Tb235 O242 2.341 . S
Tb235 O258 2.344 . S
Tb235 O261 2.344 . S
Tb235 O266 2.344 . S
Tb235 O269 2.344 . S
Tb236 O233 2.341 . S
Tb236 O238 2.341 1_556 S
Tb236 O241 2.341 1_556 S
Tb236 O242 2.341 . S
Tb236 O262 2.344 . S
Tb236 O265 2.344 . S
Tb236 O275 2.344 1_556 S
Tb236 O276 2.344 . S
O237 Tb234 2.341 1_556 S
O237 Tb235 2.341 . S
O237 H243 0.850 . S
O237 Tb245 2.341 1_556 S
O238 Tb234 2.341 . S
O238 Tb236 2.341 1_554 S
O238 H244 0.850 . S
O238 Tb246 2.341 . S
O239 Tb234 2.341 . S
O239 Tb245 2.341 . S
O239 Tb246 2.341 . S
O239 H247 0.850 . S
O240 Tb235 2.341 . S
O240 Tb245 2.341 1_556 S
O240 H248 0.850 . S
O240 Tb249 2.341 1_556 S
O241 Tb236 2.341 1_554 S
O241 Tb246 2.341 . S
O241 Tb249 2.341 . S
O241 H250 0.850 . S
O242 Tb235 2.341 . S
O242 Tb236 2.341 . S
O242 Tb249 2.341 1_556 S
O242 H251 0.850 . S
H243 O237 0.850 . S
H244 O238 0.850 . S
Tb245 O237 2.341 1_554 S
Tb245 O239 2.341 . S
Tb245 O240 2.341 1_554 S
Tb245 O252 2.341 . S
Tb245 O263 2.344 . S
Tb245 O264 2.344 . S
Tb245 O274 2.344 1_554 S
Tb245 O277 2.344 . S
Tb246 O238 2.341 . S
Tb246 O239 2.341 . S
Tb246 O241 2.341 . S
Tb246 O252 2.341 . S
Tb246 O259 2.344 . S
Tb246 O260 2.344 . S
Tb246 O267 2.344 . S
Tb246 O268 2.344 . S
H247 O239 0.850 . S
H248 O240 0.850 . S
Tb249 O240 2.341 1_554 S
Tb249 O241 2.341 . S
Tb249 O242 2.341 1_554 S
Tb249 O252 2.341 . S
Tb249 O255 2.344 . S
Tb249 O256 2.344 1_554 S
Tb249 O271 2.344 1_554 S
Tb249 O272 2.344 . S
H250 O241 0.850 . S
H251 O242 0.850 . S
O252 Tb245 2.341 . S
O252 Tb246 2.341 . S
O252 Tb249 2.341 . S
O252 H253 0.850 . S
H253 O252 0.850 . S
O254 Tb234 2.344 1_556 S
O254 C278 1.272 . S
O255 Tb249 2.344 . S
O255 C279 1.272 . S
O256 Tb249 2.344 1_556 S
O256 C280 1.272 . S
O257 Tb234 2.344 . S
O257 C281 1.272 . S
O258 Tb235 2.344 . S
O258 C282 1.272 . S
O259 Tb246 2.344 . S
O259 C283 1.272 . S
O260 Tb246 2.344 . S
O260 C284 1.272 . S
O261 Tb235 2.344 . S
O261 C285 1.272 . S
O262 Tb236 2.344 . S
O262 C286 1.272 . S
O263 Tb245 2.344 . S
O263 C287 1.272 . S
O264 Tb245 2.344 . S
O264 C288 1.272 . S
O265 Tb236 2.344 . S
O265 C289 1.272 . S
O266 Tb235 2.344 . S
O266 C278 1.272 . S
O267 Tb246 2.344 . S
O267 C279 1.272 . S
O268 Tb246 2.344 . S
O268 C281 1.272 . S
O269 Tb235 2.344 . S
O269 C280 1.272 . S
O270 Tb234 2.344 . S
O270 C288 1.272 . S
O271 Tb249 2.344 1_556 S
O271 C289 1.272 . S
O272 Tb249 2.344 . S
O272 C287 1.272 . S
O273 Tb234 2.344 1_556 S
O273 C286 1.272 . S
O274 Tb245 2.344 1_556 S
O274 C285 1.272 . S
O275 Tb236 2.344 1_554 S
O275 C284 1.272 . S
O276 Tb236 2.344 . S
O276 C282 1.272 . S
O277 Tb245 2.344 . S
O277 C283 1.272 . S
C278 O254 1.272 . S
C278 O266 1.272 . S
C279 O255 1.272 . S
C279 O267 1.272 . S
C280 O256 1.272 . S
C280 O269 1.272 . S
C281 O257 1.272 . S
C281 O268 1.272 . S
C282 O258 1.272 . S
C282 O276 1.272 . S
C283 O259 1.272 . S
C283 O277 1.272 . S
C284 O260 1.272 . S
C284 O275 1.272 . S
C285 O261 1.272 . S
C285 O274 1.272 . S
C286 O262 1.272 . S
C286 O273 1.272 . S
C287 O263 1.272 . S
C287 O272 1.272 . S
C288 O264 1.272 . S
C288 O270 1.272 . S
C289 O265 1.272 . S
C289 O271 1.272 . S
H290 O291 0.850 . S
O291 H290 0.850 . S
O291 Tb292 2.341 . S
O291 Tb293 2.341 . S
O291 Tb294 2.341 . S
Tb292 O291 2.341 . S
Tb292 O295 2.341 . S
Tb292 O296 2.341 . S
Tb292 O297 2.341 . S
Tb292 O312 2.344 . S
Tb292 O315 2.344 . S
Tb292 O328 2.344 . S
Tb292 O331 2.344 . S
Tb293 O291 2.341 . S
Tb293 O295 2.341 . S
Tb293 O298 2.341 . S
Tb293 O300 2.341 . S
Tb293 O316 2.344 . S
Tb293 O319 2.344 . S
Tb293 O324 2.344 . S
Tb293 O327 2.344 . S
Tb294 O291 2.341 . S
Tb294 O296 2.341 . S
Tb294 O299 2.341 . S
Tb294 O300 2.341 . S
Tb294 O320 2.344 . S
Tb294 O323 2.344 . S
Tb294 O333 2.344 . S
Tb294 O334 2.344 . S
O295 Tb292 2.341 . S
O295 Tb293 2.341 . S
O295 H301 0.850 . S
O295 Tb303 2.341 . S
O296 Tb292 2.341 . S
O296 Tb294 2.341 . S
O296 H302 0.850 . S
O296 Tb304 2.341 . S
O297 Tb292 2.341 . S
O297 Tb303 2.341 . S
O297 Tb304 2.341 . S
O297 H305 0.850 . S
O298 Tb293 2.341 . S
O298 Tb303 2.341 . S
O298 H306 0.850 . S
O298 Tb307 2.341 . S
O299 Tb294 2.341 . S
O299 Tb304 2.341 . S
O299 Tb307 2.341 . S
O299 H308 0.850 . S
O300 Tb293 2.341 . S
O300 Tb294 2.341 . S
O300 Tb307 2.341 . S
O300 H309 0.850 . S
H301 O295 0.850 . S
H302 O296 0.850 . S
Tb303 O295 2.341 . S
Tb303 O297 2.341 . S
Tb303 O298 2.341 . S
Tb303 O310 2.341 . S
Tb303 O321 2.344 . S
Tb303 O322 2.344 . S
Tb303 O332 2.344 . S
Tb303 O335 2.344 . S
Tb304 O296 2.341 . S
Tb304 O297 2.341 . S
Tb304 O299 2.341 . S
Tb304 O310 2.341 . S
Tb304 O317 2.344 . S
Tb304 O318 2.344 . S
Tb304 O325 2.344 . S
Tb304 O326 2.344 . S
H305 O297 0.850 . S
H306 O298 0.850 . S
Tb307 O298 2.341 . S
Tb307 O299 2.341 . S
Tb307 O300 2.341 . S
Tb307 O310 2.341 . S
Tb307 O313 2.344 . S
Tb307 O314 2.344 . S
Tb307 O329 2.344 . S
Tb307 O330 2.344 . S
H308 O299 0.850 . S
H309 O300 0.850 . S
O310 Tb303 2.341 . S
O310 Tb304 2.341 . S
O310 Tb307 2.341 . S
O310 H311 0.850 . S
H311 O310 0.850 . S
O312 Tb292 2.344 . S
O312 C336 1.272 . S
O313 Tb307 2.344 . S
O313 C337 1.272 . S
O314 Tb307 2.344 . S
O314 C338 1.272 . S
O315 Tb292 2.344 . S
O315 C339 1.272 . S
O316 Tb293 2.344 . S
O316 C340 1.272 . S
O317 Tb304 2.344 . S
O317 C341 1.272 . S
O318 Tb304 2.344 . S
O318 C342 1.272 . S
O319 Tb293 2.344 . S
O319 C343 1.272 . S
O320 Tb294 2.344 . S
O320 C344 1.272 . S
O321 Tb303 2.344 . S
O321 C345 1.272 . S
O322 Tb303 2.344 . S
O322 C346 1.272 . S
O323 Tb294 2.344 . S
O323 C347 1.272 . S
O324 Tb293 2.344 . S
O324 C336 1.272 . S
O325 Tb304 2.344 . S
O325 C337 1.272 . S
O326 Tb304 2.344 . S
O326 C339 1.272 . S
O327 Tb293 2.344 . S
O327 C338 1.272 . S
O328 Tb292 2.344 . S
O328 C346 1.272 . S
O329 Tb307 2.344 . S
O329 C347 1.272 . S
O330 Tb307 2.344 . S
O330 C345 1.272 . S
O331 Tb292 2.344 . S
O331 C344 1.272 . S
O332 Tb303 2.344 . S
O332 C343 1.272 . S
O333 Tb294 2.344 . S
O333 C342 1.272 . S
O334 Tb294 2.344 . S
O334 C340 1.272 . S
O335 Tb303 2.344 . S
O335 C341 1.272 . S
C336 O312 1.272 . S
C336 O324 1.272 . S
C337 O313 1.272 . S
C337 O325 1.272 . S
C338 O314 1.272 . S
C338 O327 1.272 . S
C339 O315 1.272 . S
C339 O326 1.272 . S
C340 O316 1.272 . S
C340 O334 1.272 . S
C341 O317 1.272 . S
C341 O335 1.272 . S
C342 O318 1.272 . S
C342 O333 1.272 . S
C343 O319 1.272 . S
C343 O332 1.272 . S
C344 O320 1.272 . S
C344 O331 1.272 . S
C345 O321 1.272 . S
C345 O330 1.272 . S
C346 O322 1.272 . S
C346 O328 1.272 . S
C347 O323 1.272 . S
C347 O329 1.272 . S
H348 O349 0.850 . S
O349 H348 0.850 . S
O349 Tb350 2.341 1_556 S
O349 Tb351 2.341 . S
O349 Tb352 2.341 . S
Tb350 O349 2.341 1_554 S
Tb350 O353 2.341 . S
Tb350 O354 2.341 1_554 S
Tb350 O355 2.341 . S
Tb350 O370 2.344 1_554 S
Tb350 O373 2.344 . S
Tb350 O386 2.344 . S
Tb350 O389 2.344 1_554 S
Tb351 O349 2.341 . S
Tb351 O353 2.341 1_556 S
Tb351 O356 2.341 1_556 S
Tb351 O358 2.341 . S
Tb351 O374 2.344 . S
Tb351 O377 2.344 1_556 S
Tb351 O382 2.344 . S
Tb351 O385 2.344 . S
Tb352 O349 2.341 . S
Tb352 O354 2.341 . S
Tb352 O357 2.341 . S
Tb352 O358 2.341 . S
Tb352 O378 2.344 . S
Tb352 O381 2.344 . S
Tb352 O391 2.344 . S
Tb352 O392 2.344 . S
O353 Tb350 2.341 . S
O353 Tb351 2.341 1_554 S
O353 H359 0.850 . S
O353 Tb361 2.341 . S
O354 Tb350 2.341 1_556 S
O354 Tb352 2.341 . S
O354 H360 0.850 . S
O354 Tb362 2.341 1_556 S
O355 Tb350 2.341 . S
O355 Tb361 2.341 . S
O355 Tb362 2.341 . S
O355 H363 0.850 . S
O356 Tb351 2.341 1_554 S
O356 Tb361 2.341 . S
O356 H364 0.850 . S
O356 Tb365 2.341 . S
O357 Tb352 2.341 . S
O357 Tb362 2.341 1_556 S
O357 Tb365 2.341 1_556 S
O357 H366 0.850 . S
O358 Tb351 2.341 . S
O358 Tb352 2.341 . S
O358 Tb365 2.341 1_556 S
O358 H367 0.850 . S
H359 O353 0.850 . S
H360 O354 0.850 . S
Tb361 O353 2.341 . S
Tb361 O355 2.341 . S
Tb361 O356 2.341 . S
Tb361 O368 2.341 . S
Tb361 O379 2.344 . S
Tb361 O380 2.344 . S
Tb361 O390 2.344 . S
Tb361 O393 2.344 . S
Tb362 O354 2.341 1_554 S
Tb362 O355 2.341 . S
Tb362 O357 2.341 1_554 S
Tb362 O368 2.341 . S
Tb362 O375 2.344 . S
Tb362 O376 2.344 1_554 S
Tb362 O383 2.344 . S
Tb362 O384 2.344 . S
H363 O355 0.850 . S
H364 O356 0.850 . S
Tb365 O356 2.341 . S
Tb365 O357 2.341 1_554 S
Tb365 O358 2.341 1_554 S
Tb365 O368 2.341 . S
Tb365 O371 2.344 . S
Tb365 O372 2.344 1_554 S
Tb365 O387 2.344 1_554 S
Tb365 O388 2.344 . S
H366 O357 0.850 . S
H367 O358 0.850 . S
O368 Tb361 2.341 . S
O368 Tb362 2.341 . S
O368 Tb365 2.341 . S
O368 H369 0.850 . S
H369 O368 0.850 . S
O370 Tb350 2.344 1_556 S
O370 C394 1.272 . S
O371 Tb365 2.344 . S
O371 C395 1.272 . S
O372 Tb365 2.344 1_556 S
O372 C396 1.272 . S
O373 Tb350 2.344 . S
O373 C397 1.272 . S
O374 Tb351 2.344 . S
O374 C398 1.272 . S
O375 Tb362 2.344 . S
O375 C399 1.272 . S
O376 Tb362 2.344 1_556 S
O376 C400 1.272 . S
O377 Tb351 2.344 1_554 S
O377 C401 1.272 . S
O378 Tb352 2.344 . S
O378 C402 1.272 . S
O379 Tb361 2.344 . S
O379 C403 1.272 . S
O380 Tb361 2.344 . S
O380 C404 1.272 . S
O381 Tb352 2.344 . S
O381 C405 1.272 . S
O382 Tb351 2.344 . S
O382 C394 1.272 . S
O383 Tb362 2.344 . S
O383 C395 1.272 . S
O384 Tb362 2.344 . S
O384 C397 1.272 . S
O385 Tb351 2.344 . S
O385 C396 1.272 . S
O386 Tb350 2.344 . S
O386 C404 1.272 . S
O387 Tb365 2.344 1_556 S
O387 C405 1.272 . S
O388 Tb365 2.344 . S
O388 C403 1.272 . S
O389 Tb350 2.344 1_556 S
O389 C402 1.272 . S
O390 Tb361 2.344 . S
O390 C401 1.272 . S
O391 Tb352 2.344 . S
O391 C400 1.272 . S
O392 Tb352 2.344 . S
O392 C398 1.272 . S
O393 Tb361 2.344 . S
O393 C399 1.272 . S
C394 O370 1.272 . S
C394 O382 1.272 . S
C395 O371 1.272 . S
C395 O383 1.272 . S
C396 O372 1.272 . S
C396 O385 1.272 . S
C397 O373 1.272 . S
C397 O384 1.272 . S
C398 O374 1.272 . S
C398 O392 1.272 . S
C399 O375 1.272 . S
C399 O393 1.272 . S
C400 O376 1.272 . S
C400 O391 1.272 . S
C401 O377 1.272 . S
C401 O390 1.272 . S
C402 O378 1.272 . S
C402 O389 1.272 . S
C403 O379 1.272 . S
C403 O388 1.272 . S
C404 O380 1.272 . S
C404 O386 1.272 . S
C405 O381 1.272 . S
C405 O387 1.272 . S
H406 O407 0.850 . S
O407 H406 0.850 . S
O407 Tb408 2.341 . S
O407 Tb409 2.341 . S
O407 Tb410 2.341 . S
Tb408 O407 2.341 . S
Tb408 O411 2.341 . S
Tb408 O412 2.341 . S
Tb408 O413 2.341 . S
Tb408 O428 2.344 . S
Tb408 O431 2.344 . S
Tb408 O444 2.344 . S
Tb408 O447 2.344 . S
Tb409 O407 2.341 . S
Tb409 O411 2.341 . S
Tb409 O414 2.341 . S
Tb409 O416 2.341 . S
Tb409 O432 2.344 . S
Tb409 O435 2.344 . S
Tb409 O440 2.344 . S
Tb409 O443 2.344 . S
Tb410 O407 2.341 . S
Tb410 O412 2.341 . S
Tb410 O415 2.341 . S
Tb410 O416 2.341 . S
Tb410 O436 2.344 . S
Tb410 O439 2.344 . S
Tb410 O449 2.344 . S
Tb410 O450 2.344 . S
O411 Tb408 2.341 . S
O411 Tb409 2.341 . S
O411 H417 0.850 . S
O411 Tb419 2.341 . S
O412 Tb408 2.341 . S
O412 Tb410 2.341 . S
O412 H418 0.850 . S
O412 Tb420 2.341 . S
O413 Tb408 2.341 . S
O413 Tb419 2.341 . S
O413 Tb420 2.341 . S
O413 H421 0.850 . S
O414 Tb409 2.341 . S
O414 Tb419 2.341 . S
O414 H422 0.850 . S
O414 Tb423 2.341 . S
O415 Tb410 2.341 . S
O415 Tb420 2.341 . S
O415 Tb423 2.341 . S
O415 H424 0.850 . S
O416 Tb409 2.341 . S
O416 Tb410 2.341 . S
O416 Tb423 2.341 . S
O416 H425 0.850 . S
H417 O411 0.850 . S
H418 O412 0.850 . S
Tb419 O411 2.341 . S
Tb419 O413 2.341 . S
Tb419 O414 2.341 . S
Tb419 O426 2.341 . S
Tb419 O437 2.344 . S
Tb419 O438 2.344 . S
Tb419 O448 2.344 . S
Tb419 O451 2.344 . S
Tb420 O412 2.341 . S
Tb420 O413 2.341 . S
Tb420 O415 2.341 . S
Tb420 O426 2.341 . S
Tb420 O433 2.344 . S
Tb420 O434 2.344 . S
Tb420 O441 2.344 . S
Tb420 O442 2.344 . S
H421 O413 0.850 . S
H422 O414 0.850 . S
Tb423 O414 2.341 . S
Tb423 O415 2.341 . S
Tb423 O416 2.341 . S
Tb423 O426 2.341 . S
Tb423 O429 2.344 . S
Tb423 O430 2.344 . S
Tb423 O445 2.344 . S
Tb423 O446 2.344 . S
H424 O415 0.850 . S
H425 O416 0.850 . S
O426 Tb419 2.341 . S
O426 Tb420 2.341 . S
O426 Tb423 2.341 . S
O426 H427 0.850 . S
H427 O426 0.850 . S
O428 Tb408 2.344 . S
O428 C452 1.272 . S
O429 Tb423 2.344 . S
O429 C453 1.272 . S
O430 Tb423 2.344 . S
O430 C454 1.272 . S
O431 Tb408 2.344 . S
O431 C455 1.272 . S
O432 Tb409 2.344 . S
O432 C456 1.272 . S
O433 Tb420 2.344 . S
O433 C457 1.272 . S
O434 Tb420 2.344 . S
O434 C458 1.272 . S
O435 Tb409 2.344 . S
O435 C459 1.272 . S
O436 Tb410 2.344 . S
O436 C460 1.272 . S
O437 Tb419 2.344 . S
O437 C461 1.272 . S
O438 Tb419 2.344 . S
O438 C462 1.272 . S
O439 Tb410 2.344 . S
O439 C463 1.272 . S
O440 Tb409 2.344 . S
O440 C452 1.272 . S
O441 Tb420 2.344 . S
O441 C453 1.272 . S
O442 Tb420 2.344 . S
O442 C455 1.272 . S
O443 Tb409 2.344 . S
O443 C454 1.272 . S
O444 Tb408 2.344 . S
O444 C462 1.272 . S
O445 Tb423 2.344 . S
O445 C463 1.272 . S
O446 Tb423 2.344 . S
O446 C461 1.272 . S
O447 Tb408 2.344 . S
O447 C460 1.272 . S
O448 Tb419 2.344 . S
O448 C459 1.272 . S
O449 Tb410 2.344 . S
O449 C458 1.272 . S
O450 Tb410 2.344 . S
O450 C456 1.272 . S
O451 Tb419 2.344 . S
O451 C457 1.272 . S
C452 O428 1.272 . S
C452 O440 1.272 . S
C453 O429 1.272 . S
C453 O441 1.272 . S
C454 O430 1.272 . S
C454 O443 1.272 . S
C455 O431 1.272 . S
C455 O442 1.272 . S
C456 O432 1.272 . S
C456 O450 1.272 . S
C457 O433 1.272 . S
C457 O451 1.272 . S
C458 O434 1.272 . S
C458 O449 1.272 . S
C459 O435 1.272 . S
C459 O448 1.272 . S
C460 O436 1.272 . S
C460 O447 1.272 . S
C461 O437 1.272 . S
C461 O446 1.272 . S
C462 O438 1.272 . S
C462 O444 1.272 . S
C463 O439 1.272 . S
C463 O445 1.272 . S
H464 O465 0.850 . S
O465 H464 0.850 . S
O465 Tb466 2.341 . S
O465 Tb467 2.341 . S
O465 Tb468 2.341 . S
Tb466 O465 2.341 . S
Tb466 O469 2.341 . S
Tb466 O470 2.341 . S
Tb466 O471 2.341 . S
Tb466 O486 2.344 . S
Tb466 O489 2.344 . S
Tb466 O502 2.344 . S
Tb466 O505 2.344 . S
Tb467 O465 2.341 . S
Tb467 O469 2.341 . S
Tb467 O472 2.341 . S
Tb467 O474 2.341 . S
Tb467 O490 2.344 . S
Tb467 O493 2.344 . S
Tb467 O498 2.344 . S
Tb467 O501 2.344 . S
Tb468 O465 2.341 . S
Tb468 O470 2.341 . S
Tb468 O473 2.341 . S
Tb468 O474 2.341 . S
Tb468 O494 2.344 . S
Tb468 O497 2.344 . S
Tb468 O507 2.344 . S
Tb468 O508 2.344 . S
O469 Tb466 2.341 . S
O469 Tb467 2.341 . S
O469 H475 0.850 . S
O469 Tb477 2.341 . S
O470 Tb466 2.341 . S
O470 Tb468 2.341 . S
O470 H476 0.850 . S
O470 Tb478 2.341 . S
O471 Tb466 2.341 . S
O471 Tb477 2.341 . S
O471 Tb478 2.341 . S
O471 H479 0.850 . S
O472 Tb467 2.341 . S
O472 Tb477 2.341 . S
O472 H480 0.850 . S
O472 Tb481 2.341 . S
O473 Tb468 2.341 . S
O473 Tb478 2.341 . S
O473 Tb481 2.341 . S
O473 H482 0.850 . S
O474 Tb467 2.341 . S
O474 Tb468 2.341 . S
O474 Tb481 2.341 . S
O474 H483 0.850 . S
H475 O469 0.850 . S
H476 O470 0.850 . S
Tb477 O469 2.341 . S
Tb477 O471 2.341 . S
Tb477 O472 2.341 . S
Tb477 O484 2.341 . S
Tb477 O495 2.344 . S
Tb477 O496 2.344 . S
Tb477 O506 2.344 . S
Tb477 O509 2.344 . S
Tb478 O470 2.341 . S
Tb478 O471 2.341 . S
Tb478 O473 2.341 . S
Tb478 O484 2.341 . S
Tb478 O491 2.344 . S
Tb478 O492 2.344 . S
Tb478 O499 2.344 . S
Tb478 O500 2.344 . S
H479 O471 0.850 . S
H480 O472 0.850 . S
Tb481 O472 2.341 . S
Tb481 O473 2.341 . S
Tb481 O474 2.341 . S
Tb481 O484 2.341 . S
Tb481 O487 2.344 . S
Tb481 O488 2.344 . S
Tb481 O503 2.344 . S
Tb481 O504 2.344 . S
H482 O473 0.850 . S
H483 O474 0.850 . S
O484 Tb477 2.341 . S
O484 Tb478 2.341 . S
O484 Tb481 2.341 . S
O484 H485 0.850 . S
H485 O484 0.850 . S
O486 Tb466 2.344 . S
O486 C510 1.272 . S
O487 Tb481 2.344 . S
O487 C511 1.272 . S
O488 Tb481 2.344 . S
O488 C512 1.272 . S
O489 Tb466 2.344 . S
O489 C513 1.272 . S
O490 Tb467 2.344 . S
O490 C514 1.272 . S
O491 Tb478 2.344 . S
O491 C515 1.272 . S
O492 Tb478 2.344 . S
O492 C516 1.272 . S
O493 Tb467 2.344 . S
O493 C517 1.272 . S
O494 Tb468 2.344 . S
O494 C518 1.272 . S
O495 Tb477 2.344 . S
O495 C519 1.272 . S
O496 Tb477 2.344 . S
O496 C520 1.272 . S
O497 Tb468 2.344 . S
O497 C521 1.272 . S
O498 Tb467 2.344 . S
O498 C510 1.272 . S
O499 Tb478 2.344 . S
O499 C511 1.272 . S
O500 Tb478 2.344 . S
O500 C513 1.272 . S
O501 Tb467 2.344 . S
O501 C512 1.272 . S
O502 Tb466 2.344 . S
O502 C520 1.272 . S
O503 Tb481 2.344 . S
O503 C521 1.272 . S
O504 Tb481 2.344 . S
O504 C519 1.272 . S
O505 Tb466 2.344 . S
O505 C518 1.272 . S
O506 Tb477 2.344 . S
O506 C517 1.272 . S
O507 Tb468 2.344 . S
O507 C516 1.272 . S
O508 Tb468 2.344 . S
O508 C514 1.272 . S
O509 Tb477 2.344 . S
O509 C515 1.272 . S
C510 O486 1.272 . S
C510 O498 1.272 . S
C511 O487 1.272 . S
C511 O499 1.272 . S
C512 O488 1.272 . S
C512 O501 1.272 . S
C513 O489 1.272 . S
C513 O500 1.272 . S
C514 O490 1.272 . S
C514 O508 1.272 . S
C515 O491 1.272 . S
C515 O509 1.272 . S
C516 O492 1.272 . S
C516 O507 1.272 . S
C517 O493 1.272 . S
C517 O506 1.272 . S
C518 O494 1.272 . S
C518 O505 1.272 . S
C519 O495 1.272 . S
C519 O504 1.272 . S
C520 O496 1.272 . S
C520 O502 1.272 . S
C521 O497 1.272 . S
C521 O503 1.272 . S
H522 O523 0.850 . S
O523 H522 0.850 . S
O523 Tb524 2.341 . S
O523 Tb525 2.341 . S
O523 Tb526 2.341 . S
Tb524 O523 2.341 . S
Tb524 O527 2.341 . S
Tb524 O528 2.341 . S
Tb524 O529 2.341 . S
Tb524 O544 2.344 . S
Tb524 O547 2.344 . S
Tb524 O560 2.344 . S
Tb524 O563 2.344 . S
Tb525 O523 2.341 . S
Tb525 O527 2.341 . S
Tb525 O530 2.341 . S
Tb525 O532 2.341 . S
Tb525 O548 2.344 . S
Tb525 O551 2.344 . S
Tb525 O556 2.344 . S
Tb525 O559 2.344 . S
Tb526 O523 2.341 . S
Tb526 O528 2.341 . S
Tb526 O531 2.341 . S
Tb526 O532 2.341 . S
Tb526 O552 2.344 . S
Tb526 O555 2.344 . S
Tb526 O565 2.344 . S
Tb526 O566 2.344 . S
O527 Tb524 2.341 . S
O527 Tb525 2.341 . S
O527 H533 0.850 . S
O527 Tb535 2.341 . S
O528 Tb524 2.341 . S
O528 Tb526 2.341 . S
O528 H534 0.850 . S
O528 Tb536 2.341 . S
O529 Tb524 2.341 . S
O529 Tb535 2.341 . S
O529 Tb536 2.341 . S
O529 H537 0.850 . S
O530 Tb525 2.341 . S
O530 Tb535 2.341 . S
O530 H538 0.850 . S
O530 Tb539 2.341 . S
O531 Tb526 2.341 . S
O531 Tb536 2.341 . S
O531 Tb539 2.341 . S
O531 H540 0.850 . S
O532 Tb525 2.341 . S
O532 Tb526 2.341 . S
O532 Tb539 2.341 . S
O532 H541 0.850 . S
H533 O527 0.850 . S
H534 O528 0.850 . S
Tb535 O527 2.341 . S
Tb535 O529 2.341 . S
Tb535 O530 2.341 . S
Tb535 O542 2.341 . S
Tb535 O553 2.344 . S
Tb535 O554 2.344 . S
Tb535 O564 2.344 . S
Tb535 O567 2.344 . S
Tb536 O528 2.341 . S
Tb536 O529 2.341 . S
Tb536 O531 2.341 . S
Tb536 O542 2.341 . S
Tb536 O549 2.344 . S
Tb536 O550 2.344 . S
Tb536 O557 2.344 . S
Tb536 O558 2.344 . S
H537 O529 0.850 . S
H538 O530 0.850 . S
Tb539 O530 2.341 . S
Tb539 O531 2.341 . S
Tb539 O532 2.341 . S
Tb539 O542 2.341 . S
Tb539 O545 2.344 . S
Tb539 O546 2.344 . S
Tb539 O561 2.344 . S
Tb539 O562 2.344 . S
H540 O531 0.850 . S
H541 O532 0.850 . S
O542 Tb535 2.341 . S
O542 Tb536 2.341 . S
O542 Tb539 2.341 . S
O542 H543 0.850 . S
H543 O542 0.850 . S
O544 Tb524 2.344 . S
O544 C568 1.272 . S
O545 Tb539 2.344 . S
O545 C569 1.272 . S
O546 Tb539 2.344 . S
O546 C570 1.272 . S
O547 Tb524 2.344 . S
O547 C571 1.272 . S
O548 Tb525 2.344 . S
O548 C572 1.272 . S
O549 Tb536 2.344 . S
O549 C573 1.272 . S
O550 Tb536 2.344 . S
O550 C574 1.272 . S
O551 Tb525 2.344 . S
O551 C575 1.272 . S
O552 Tb526 2.344 . S
O552 C576 1.272 . S
O553 Tb535 2.344 . S
O553 C577 1.272 . S
O554 Tb535 2.344 . S
O554 C578 1.272 . S
O555 Tb526 2.344 . S
O555 C579 1.272 . S
O556 Tb525 2.344 . S
O556 C568 1.272 . S
O557 Tb536 2.344 . S
O557 C569 1.272 . S
O558 Tb536 2.344 . S
O558 C571 1.272 . S
O559 Tb525 2.344 . S
O559 C570 1.272 . S
O560 Tb524 2.344 . S
O560 C578 1.272 . S
O561 Tb539 2.344 . S
O561 C579 1.272 . S
O562 Tb539 2.344 . S
O562 C577 1.272 . S
O563 Tb524 2.344 . S
O563 C576 1.272 . S
O564 Tb535 2.344 . S
O564 C575 1.272 . S
O565 Tb526 2.344 . S
O565 C574 1.272 . S
O566 Tb526 2.344 . S
O566 C572 1.272 . S
O567 Tb535 2.344 . S
O567 C573 1.272 . S
C568 O544 1.272 . S
C568 O556 1.272 . S
C569 O545 1.272 . S
C569 O557 1.272 . S
C570 O546 1.272 . S
C570 O559 1.272 . S
C571 O547 1.272 . S
C571 O558 1.272 . S
C572 O548 1.272 . S
C572 O566 1.272 . S
C573 O549 1.272 . S
C573 O567 1.272 . S
C574 O550 1.272 . S
C574 O565 1.272 . S
C575 O551 1.272 . S
C575 O564 1.272 . S
C576 O552 1.272 . S
C576 O563 1.272 . S
C577 O553 1.272 . S
C577 O562 1.272 . S
C578 O554 1.272 . S
C578 O560 1.272 . S
C579 O555 1.272 . S
C579 O561 1.272 . S
H580 O581 0.850 . S
O581 H580 0.850 . S
O581 Tb582 2.341 1_565 S
O581 Tb583 2.341 . S
O581 Tb584 2.341 . S
Tb582 O581 2.341 1_545 S
Tb582 O585 2.341 . S
Tb582 O586 2.341 1_545 S
Tb582 O587 2.341 . S
Tb582 O602 2.344 1_545 S
Tb582 O605 2.344 . S
Tb582 O618 2.344 . S
Tb582 O621 2.344 1_545 S
Tb583 O581 2.341 . S
Tb583 O585 2.341 1_565 S
Tb583 O588 2.341 1_565 S
Tb583 O590 2.341 . S
Tb583 O606 2.344 . S
Tb583 O609 2.344 1_565 S
Tb583 O614 2.344 . S
Tb583 O617 2.344 . S
Tb584 O581 2.341 . S
Tb584 O586 2.341 . S
Tb584 O589 2.341 . S
Tb584 O590 2.341 . S
Tb584 O610 2.344 . S
Tb584 O613 2.344 . S
Tb584 O623 2.344 . S
Tb584 O624 2.344 . S
O585 Tb582 2.341 . S
O585 Tb583 2.341 1_545 S
O585 H591 0.850 . S
O585 Tb593 2.341 . S
O586 Tb582 2.341 1_565 S
O586 Tb584 2.341 . S
O586 H592 0.850 . S
O586 Tb594 2.341 1_565 S
O587 Tb582 2.341 . S
O587 Tb593 2.341 . S
O587 Tb594 2.341 . S
O587 H595 0.850 . S
O588 Tb583 2.341 1_545 S
O588 Tb593 2.341 . S
O588 H596 0.850 . S
O588 Tb597 2.341 . S
O589 Tb584 2.341 . S
O589 Tb594 2.341 1_565 S
O589 Tb597 2.341 1_565 S
O589 H598 0.850 . S
O590 Tb583 2.341 . S
O590 Tb584 2.341 . S
O590 Tb597 2.341 1_565 S
O590 H599 0.850 . S
H591 O585 0.850 . S
H592 O586 0.850 . S
Tb593 O585 2.341 . S
Tb593 O587 2.341 . S
Tb593 O588 2.341 . S
Tb593 O600 2.341 . S
Tb593 O611 2.344 . S
Tb593 O612 2.344 . S
Tb593 O622 2.344 . S
Tb593 O625 2.344 . S
Tb594 O586 2.341 1_545 S
Tb594 O587 2.341 . S
Tb594 O589 2.341 1_545 S
Tb594 O600 2.341 . S
Tb594 O607 2.344 . S
Tb594 O608 2.344 1_545 S
Tb594 O615 2.344 . S
Tb594 O616 2.344 . S
H595 O587 0.850 . S
H596 O588 0.850 . S
Tb597 O588 2.341 . S
Tb597 O589 2.341 1_545 S
Tb597 O590 2.341 1_545 S
Tb597 O600 2.341 . S
Tb597 O603 2.344 . S
Tb597 O604 2.344 1_545 S
Tb597 O619 2.344 1_545 S
Tb597 O620 2.344 . S
H598 O589 0.850 . S
H599 O590 0.850 . S
O600 Tb593 2.341 . S
O600 Tb594 2.341 . S
O600 Tb597 2.341 . S
O600 H601 0.850 . S
H601 O600 0.850 . S
O602 Tb582 2.344 1_565 S
O602 C626 1.272 . S
O603 Tb597 2.344 . S
O603 C627 1.272 . S
O604 Tb597 2.344 1_565 S
O604 C628 1.272 . S
O605 Tb582 2.344 . S
O605 C629 1.272 . S
O606 Tb583 2.344 . S
O606 C630 1.272 . S
O607 Tb594 2.344 . S
O607 C631 1.272 . S
O608 Tb594 2.344 1_565 S
O608 C632 1.272 . S
O609 Tb583 2.344 1_545 S
O609 C633 1.272 . S
O610 Tb584 2.344 . S
O610 C634 1.272 . S
O611 Tb593 2.344 . S
O611 C635 1.272 . S
O612 Tb593 2.344 . S
O612 C636 1.272 . S
O613 Tb584 2.344 . S
O613 C637 1.272 . S
O614 Tb583 2.344 . S
O614 C626 1.272 . S
O615 Tb594 2.344 . S
O615 C627 1.272 . S
O616 Tb594 2.344 . S
O616 C629 1.272 . S
O617 Tb583 2.344 . S
O617 C628 1.272 . S
O618 Tb582 2.344 . S
O618 C636 1.272 . S
O619 Tb597 2.344 1_565 S
O619 C637 1.272 . S
O620 Tb597 2.344 . S
O620 C635 1.272 . S
O621 Tb582 2.344 1_565 S
O621 C634 1.272 . S
O622 Tb593 2.344 . S
O622 C633 1.272 . S
O623 Tb584 2.344 . S
O623 C632 1.272 . S
O624 Tb584 2.344 . S
O624 C630 1.272 . S
O625 Tb593 2.344 . S
O625 C631 1.272 . S
C626 O602 1.272 . S
C626 O614 1.272 . S
C627 O603 1.272 . S
C627 O615 1.272 . S
C628 O604 1.272 . S
C628 O617 1.272 . S
C629 O605 1.272 . S
C629 O616 1.272 . S
C630 O606 1.272 . S
C630 O624 1.272 . S
C631 O607 1.272 . S
C631 O625 1.272 . S
C632 O608 1.272 . S
C632 O623 1.272 . S
C633 O609 1.272 . S
C633 O622 1.272 . S
C634 O610 1.272 . S
C634 O621 1.272 . S
C635 O611 1.272 . S
C635 O620 1.272 . S
C636 O612 1.272 . S
C636 O618 1.272 . S
C637 O613 1.272 . S
C637 O619 1.272 . S
H638 O639 0.850 . S
O639 H638 0.850 . S
O639 Tb640 2.341 . S
O639 Tb641 2.341 . S
O639 Tb642 2.341 . S
Tb640 O639 2.341 . S
Tb640 O643 2.341 . S
Tb640 O644 2.341 . S
Tb640 O645 2.341 . S
Tb640 O660 2.344 . S
Tb640 O663 2.344 . S
Tb640 O676 2.344 . S
Tb640 O679 2.344 . S
Tb641 O639 2.341 . S
Tb641 O643 2.341 . S
Tb641 O646 2.341 . S
Tb641 O648 2.341 . S
Tb641 O664 2.344 . S
Tb641 O667 2.344 . S
Tb641 O672 2.344 . S
Tb641 O675 2.344 . S
Tb642 O639 2.341 . S
Tb642 O644 2.341 . S
Tb642 O647 2.341 . S
Tb642 O648 2.341 . S
Tb642 O668 2.344 . S
Tb642 O671 2.344 . S
Tb642 O681 2.344 . S
Tb642 O682 2.344 . S
O643 Tb640 2.341 . S
O643 Tb641 2.341 . S
O643 H649 0.850 . S
O643 Tb651 2.341 . S
O644 Tb640 2.341 . S
O644 Tb642 2.341 . S
O644 H650 0.850 . S
O644 Tb652 2.341 . S
O645 Tb640 2.341 . S
O645 Tb651 2.341 . S
O645 Tb652 2.341 . S
O645 H653 0.850 . S
O646 Tb641 2.341 . S
O646 Tb651 2.341 . S
O646 H654 0.850 . S
O646 Tb655 2.341 . S
O647 Tb642 2.341 . S
O647 Tb652 2.341 . S
O647 Tb655 2.341 . S
O647 H656 0.850 . S
O648 Tb641 2.341 . S
O648 Tb642 2.341 . S
O648 Tb655 2.341 . S
O648 H657 0.850 . S
H649 O643 0.850 . S
H650 O644 0.850 . S
Tb651 O643 2.341 . S
Tb651 O645 2.341 . S
Tb651 O646 2.341 . S
Tb651 O658 2.341 . S
Tb651 O669 2.344 . S
Tb651 O670 2.344 . S
Tb651 O680 2.344 . S
Tb651 O683 2.344 . S
Tb652 O644 2.341 . S
Tb652 O645 2.341 . S
Tb652 O647 2.341 . S
Tb652 O658 2.341 . S
Tb652 O665 2.344 . S
Tb652 O666 2.344 . S
Tb652 O673 2.344 . S
Tb652 O674 2.344 . S
H653 O645 0.850 . S
H654 O646 0.850 . S
Tb655 O646 2.341 . S
Tb655 O647 2.341 . S
Tb655 O648 2.341 . S
Tb655 O658 2.341 . S
Tb655 O661 2.344 . S
Tb655 O662 2.344 . S
Tb655 O677 2.344 . S
Tb655 O678 2.344 . S
H656 O647 0.850 . S
H657 O648 0.850 . S
O658 Tb651 2.341 . S
O658 Tb652 2.341 . S
O658 Tb655 2.341 . S
O658 H659 0.850 . S
H659 O658 0.850 . S
O660 Tb640 2.344 . S
O660 C684 1.272 . S
O661 Tb655 2.344 . S
O661 C685 1.272 . S
O662 Tb655 2.344 . S
O662 C686 1.272 . S
O663 Tb640 2.344 . S
O663 C687 1.272 . S
O664 Tb641 2.344 . S
O664 C688 1.272 . S
O665 Tb652 2.344 . S
O665 C689 1.272 . S
O666 Tb652 2.344 . S
O666 C690 1.272 . S
O667 Tb641 2.344 . S
O667 C691 1.272 . S
O668 Tb642 2.344 . S
O668 C692 1.272 . S
O669 Tb651 2.344 . S
O669 C693 1.272 . S
O670 Tb651 2.344 . S
O670 C694 1.272 . S
O671 Tb642 2.344 . S
O671 C695 1.272 . S
O672 Tb641 2.344 . S
O672 C684 1.272 . S
O673 Tb652 2.344 . S
O673 C685 1.272 . S
O674 Tb652 2.344 . S
O674 C687 1.272 . S
O675 Tb641 2.344 . S
O675 C686 1.272 . S
O676 Tb640 2.344 . S
O676 C694 1.272 . S
O677 Tb655 2.344 . S
O677 C695 1.272 . S
O678 Tb655 2.344 . S
O678 C693 1.272 . S
O679 Tb640 2.344 . S
O679 C692 1.272 . S
O680 Tb651 2.344 . S
O680 C691 1.272 . S
O681 Tb642 2.344 . S
O681 C690 1.272 . S
O682 Tb642 2.344 . S
O682 C688 1.272 . S
O683 Tb651 2.344 . S
O683 C689 1.272 . S
C684 O660 1.272 . S
C684 O672 1.272 . S
C685 O661 1.272 . S
C685 O673 1.272 . S
C686 O662 1.272 . S
C686 O675 1.272 . S
C687 O663 1.272 . S
C687 O674 1.272 . S
C688 O664 1.272 . S
C688 O682 1.272 . S
C689 O665 1.272 . S
C689 O683 1.272 . S
C690 O666 1.272 . S
C690 O681 1.272 . S
C691 O667 1.272 . S
C691 O680 1.272 . S
C692 O668 1.272 . S
C692 O679 1.272 . S
C693 O669 1.272 . S
C693 O678 1.272 . S
C694 O670 1.272 . S
C694 O676 1.272 . S
C695 O671 1.272 . S
C695 O677 1.272 . S
H696 C704 0.950 . S
H697 C709 0.950 . S
H698 C706 0.950 . S
H699 C708 0.950 . S
H700 C710 0.950 . S
H701 C712 0.950 . S
H702 C714 0.950 . S
H703 C715 0.950 . S
C704 H696 0.950 . S
C704 C705 1.386 . S
C704 C706 1.391 . S
C705 C704 1.386 . S
C705 C709 1.393 . S
C706 H698 0.950 . S
C706 C704 1.391 . S
C706 C707 1.400 . S
C707 C706 1.400 . S
C707 C708 1.398 . S
C707 C713 1.491 . S
C708 H699 0.950 . S
C708 C707 1.398 . S
C708 C709 1.391 . S
C709 H697 0.950 . S
C709 C705 1.393 . S
C709 C708 1.391 . S
C710 H700 0.950 . S
C710 C711 1.386 . S
C710 C712 1.391 . S
C711 C710 1.386 . S
C711 C715 1.393 . S
C712 H701 0.950 . S
C712 C710 1.391 . S
C712 C713 1.400 . S
C713 C707 1.491 . S
C713 C712 1.400 . S
C713 C714 1.398 . S
C714 H702 0.950 . S
C714 C713 1.398 . S
C714 C715 1.391 . S
C715 H703 0.950 . S
C715 C711 1.393 . S
C715 C714 1.391 . S
H716 C724 0.950 . S
H717 C729 0.950 . S
H718 C726 0.950 . S
H719 C728 0.950 . S
H720 C730 0.950 . S
H721 C732 0.951 . S
H722 C734 0.950 . S
H723 C735 0.950 . S
C724 H716 0.950 . S
C724 C725 1.386 . S
C724 C726 1.391 . S
C725 C724 1.386 . S
C725 C729 1.393 . S
C726 H718 0.950 . S
C726 C724 1.391 . S
C726 C727 1.400 . S
C727 C726 1.400 . S
C727 C728 1.398 . S
C727 C733 1.491 . S
C728 H719 0.950 . S
C728 C727 1.398 . S
C728 C729 1.391 . S
C729 H717 0.950 . S
C729 C725 1.393 . S
C729 C728 1.391 . S
C730 H720 0.950 . S
C730 C731 1.386 . S
C730 C732 1.391 1_556 S
C731 C730 1.386 . S
C731 C735 1.393 1_556 S
C732 H721 0.951 . S
C732 C730 1.391 1_554 S
C732 C733 1.400 . S
C733 C727 1.491 . S
C733 C732 1.400 . S
C733 C734 1.398 . S
C734 H722 0.950 . S
C734 C733 1.398 . S
C734 C735 1.391 . S
C735 H723 0.950 . S
C735 C731 1.393 1_554 S
C735 C734 1.391 . S
H736 C744 0.950 . S
H737 C749 0.950 . S
H738 C746 0.950 . S
H739 C748 0.950 . S
H740 C750 0.950 . S
H741 C752 0.950 . S
H742 C754 0.950 . S
H743 C755 0.950 . S
C744 H736 0.950 . S
C744 C745 1.386 . S
C744 C746 1.391 . S
C745 C744 1.386 . S
C745 C749 1.393 . S
C746 H738 0.950 . S
C746 C744 1.391 . S
C746 C747 1.400 . S
C747 C746 1.400 . S
C747 C748 1.398 . S
C747 C753 1.491 . S
C748 H739 0.950 . S
C748 C747 1.398 . S
C748 C749 1.391 . S
C749 H737 0.950 . S
C749 C745 1.393 . S
C749 C748 1.391 . S
C750 H740 0.950 . S
C750 C751 1.386 . S
C750 C752 1.391 . S
C751 C750 1.386 . S
C751 C755 1.393 . S
C752 H741 0.950 . S
C752 C750 1.391 . S
C752 C753 1.400 . S
C753 C747 1.491 . S
C753 C752 1.400 . S
C753 C754 1.398 . S
C754 H742 0.950 . S
C754 C753 1.398 . S
C754 C755 1.391 . S
C755 H743 0.950 . S
C755 C751 1.393 . S
C755 C754 1.391 . S
H756 C764 0.950 . S
H757 C769 0.950 . S
H758 C766 0.950 . S
H759 C768 0.950 . S
H760 C770 0.950 . S
H761 C772 0.950 . S
H762 C774 0.950 . S
H763 C775 0.950 . S
C764 H756 0.950 . S
C764 C765 1.386 . S
C764 C766 1.391 . S
C765 C764 1.386 . S
C765 C769 1.393 . S
C766 H758 0.950 . S
C766 C764 1.391 . S
C766 C767 1.400 . S
C767 C766 1.400 . S
C767 C768 1.398 . S
C767 C773 1.491 . S
C768 H759 0.950 . S
C768 C767 1.398 . S
C768 C769 1.391 . S
C769 H757 0.950 . S
C769 C765 1.393 . S
C769 C768 1.391 . S
C770 H760 0.950 . S
C770 C771 1.386 1_554 S
C770 C772 1.391 . S
C771 C770 1.386 1_556 S
C771 C775 1.393 . S
C772 H761 0.950 . S
C772 C770 1.391 . S
C772 C773 1.400 . S
C773 C767 1.491 . S
C773 C772 1.400 . S
C773 C774 1.398 . S
C774 H762 0.950 . S
C774 C773 1.398 . S
C774 C775 1.391 1_554 S
C775 H763 0.950 . S
C775 C771 1.393 . S
C775 C774 1.391 1_556 S
H776 C784 0.950 . S
H777 C789 0.950 . S
H778 C786 0.950 . S
H779 C788 0.950 . S
H780 C790 0.950 . S
H781 C792 0.950 . S
H782 C794 0.950 . S
H783 C795 0.950 . S
C784 H776 0.950 . S
C784 C785 1.386 . S
C784 C786 1.391 . S
C785 C784 1.386 . S
C785 C789 1.393 . S
C786 H778 0.950 . S
C786 C784 1.391 . S
C786 C787 1.400 . S
C787 C786 1.400 . S
C787 C788 1.398 . S
C787 C793 1.491 . S
C788 H779 0.950 . S
C788 C787 1.398 . S
C788 C789 1.391 . S
C789 H777 0.950 . S
C789 C785 1.393 . S
C789 C788 1.391 . S
C790 H780 0.950 . S
C790 C791 1.386 . S
C790 C792 1.391 . S
C791 C790 1.386 . S
C791 C795 1.393 . S
C792 H781 0.950 . S
C792 C790 1.391 . S
C792 C793 1.400 . S
C793 C787 1.491 . S
C793 C792 1.400 . S
C793 C794 1.398 . S
C794 H782 0.950 . S
C794 C793 1.398 . S
C794 C795 1.391 . S
C795 H783 0.950 . S
C795 C791 1.393 . S
C795 C794 1.391 . S
H796 C804 0.950 . S
H797 C809 0.950 . S
H798 C806 0.950 . S
H799 C808 0.950 . S
H800 C810 0.950 . S
H801 C812 0.950 . S
H802 C814 0.950 . S
H803 C815 0.950 . S
C804 H796 0.950 . S
C804 C805 1.386 1_556 S
C804 C806 1.391 . S
C805 C804 1.386 1_554 S
C805 C809 1.393 . S
C806 H798 0.950 . S
C806 C804 1.391 . S
C806 C807 1.400 . S
C807 C806 1.400 . S
C807 C808 1.398 . S
C807 C813 1.491 . S
C808 H799 0.950 . S
C808 C807 1.398 . S
C808 C809 1.391 1_556 S
C809 H797 0.950 . S
C809 C805 1.393 . S
C809 C808 1.391 1_554 S
C810 H800 0.950 . S
C810 C811 1.386 . S
C810 C812 1.391 . S
C811 C810 1.386 . S
C811 C815 1.393 . S
C812 H801 0.950 . S
C812 C810 1.391 . S
C812 C813 1.400 . S
C813 C807 1.491 . S
C813 C812 1.400 . S
C813 C814 1.398 . S
C814 H802 0.950 . S
C814 C813 1.398 . S
C814 C815 1.391 . S
C815 H803 0.950 . S
C815 C811 1.393 . S
C815 C814 1.391 . S
H816 C824 0.950 . S
H817 C829 0.950 . S
H818 C826 0.950 . S
H819 C828 0.950 . S
H820 C830 0.950 . S
H821 C832 0.950 . S
H822 C834 0.950 . S
H823 C835 0.950 . S
C824 H816 0.950 . S
C824 C825 1.386 . S
C824 C826 1.391 . S
C825 C824 1.386 . S
C825 C829 1.393 . S
C826 H818 0.950 . S
C826 C824 1.391 . S
C826 C827 1.400 . S
C827 C826 1.400 . S
C827 C828 1.398 . S
C827 C833 1.491 . S
C828 H819 0.950 . S
C828 C827 1.398 . S
C828 C829 1.391 . S
C829 H817 0.950 . S
C829 C825 1.393 . S
C829 C828 1.391 . S
C830 H820 0.950 . S
C830 C831 1.386 . S
C830 C832 1.391 . S
C831 C830 1.386 . S
C831 C835 1.393 . S
C832 H821 0.950 . S
C832 C830 1.391 . S
C832 C833 1.400 . S
C833 C827 1.491 . S
C833 C832 1.400 . S
C833 C834 1.398 . S
C834 H822 0.950 . S
C834 C833 1.398 . S
C834 C835 1.391 . S
C835 H823 0.950 . S
C835 C831 1.393 . S
C835 C834 1.391 . S
H836 C844 0.950 . S
H837 C849 0.950 . S
H838 C846 0.950 . S
H839 C848 0.950 . S
H840 C850 0.950 . S
H841 C852 0.949 1_554 S
H842 C854 0.950 . S
H843 C855 0.950 1_655 S
C844 H836 0.950 . S
C844 C845 1.386 . S
C844 C846 1.391 . S
C845 C844 1.386 . S
C845 C849 1.393 . S
C846 H838 0.950 . S
C846 C844 1.391 . S
C846 C847 1.400 . S
C847 C846 1.400 . S
C847 C848 1.398 . S
C847 C853 1.491 . S
C848 H839 0.950 . S
C848 C847 1.398 . S
C848 C849 1.391 . S
C849 H837 0.950 . S
C849 C845 1.393 . S
C849 C848 1.391 . S
C850 H840 0.950 . S
C850 C851 1.386 . S
C850 C852 1.391 1_554 S
C851 C850 1.386 . S
C851 C855 1.393 1_554 S
C852 H841 0.949 1_556 S
C852 C850 1.391 1_556 S
C852 C853 1.400 . S
C853 C847 1.491 . S
C853 C852 1.400 . S
C853 C854 1.398 . S
C854 H842 0.950 . S
C854 C853 1.398 . S
C854 C855 1.391 . S
C855 H843 0.950 1_455 S
C855 C851 1.393 1_556 S
C855 C854 1.391 . S
H856 C864 0.950 . S
H857 C869 0.950 . S
H858 C866 0.950 . S
H859 C868 0.950 . S
H860 C870 0.950 . S
H861 C872 0.950 . S
H862 C874 0.950 . S
H863 C875 0.950 . S
C864 H856 0.950 . S
C864 C865 1.386 . S
C864 C866 1.391 . S
C865 C864 1.386 . S
C865 C869 1.393 . S
C866 H858 0.950 . S
C866 C864 1.391 . S
C866 C867 1.400 . S
C867 C866 1.400 . S
C867 C868 1.398 . S
C867 C873 1.491 . S
C868 H859 0.950 . S
C868 C867 1.398 . S
C868 C869 1.391 . S
C869 H857 0.950 . S
C869 C865 1.393 . S
C869 C868 1.391 . S
C870 H860 0.950 . S
C870 C871 1.386 . S
C870 C872 1.391 . S
C871 C870 1.386 . S
C871 C875 1.393 . S
C872 H861 0.950 . S
C872 C870 1.391 . S
C872 C873 1.400 . S
C873 C867 1.491 . S
C873 C872 1.400 . S
C873 C874 1.398 . S
C874 H862 0.950 . S
C874 C873 1.398 . S
C874 C875 1.391 . S
C875 H863 0.950 . S
C875 C871 1.393 . S
C875 C874 1.391 . S
H876 C884 0.950 . S
H877 C889 0.950 . S
H878 C886 0.950 . S
H879 C888 0.950 . S
H880 C890 0.950 . S
H881 C892 0.950 . S
H882 C894 0.950 . S
H883 C895 0.950 1_554 S
C884 H876 0.950 . S
C884 C885 1.386 . S
C884 C886 1.391 . S
C885 C884 1.386 . S
C885 C889 1.393 . S
C886 H878 0.950 . S
C886 C884 1.391 . S
C886 C887 1.400 . S
C887 C886 1.400 . S
C887 C888 1.398 . S
C887 C893 1.491 . S
C888 H879 0.950 . S
C888 C887 1.398 . S
C888 C889 1.391 . S
C889 H877 0.950 . S
C889 C885 1.393 . S
C889 C888 1.391 . S
C890 H880 0.950 . S
C890 C891 1.386 . S
C890 C892 1.391 . S
C891 C890 1.386 . S
C891 C895 1.393 . S
C892 H881 0.950 . S
C892 C890 1.391 . S
C892 C893 1.400 . S
C893 C887 1.491 . S
C893 C892 1.400 . S
C893 C894 1.398 . S
C894 H882 0.950 . S
C894 C893 1.398 . S
C894 C895 1.391 . S
C895 H883 0.950 1_556 S
C895 C891 1.393 . S
C895 C894 1.391 . S
H896 C904 0.950 . S
H897 C909 0.950 . S
H898 C906 0.950 . S
H899 C908 0.950 . S
H900 C910 0.950 . S
H901 C912 0.950 . S
H902 C914 0.950 . S
H903 C915 0.950 . S
C904 H896 0.950 . S
C904 C905 1.386 . S
C904 C906 1.391 . S
C905 C904 1.386 . S
C905 C909 1.393 . S
C906 H898 0.950 . S
C906 C904 1.391 . S
C906 C907 1.400 . S
C907 C906 1.400 . S
C907 C908 1.398 . S
C907 C913 1.491 . S
C908 H899 0.950 . S
C908 C907 1.398 . S
C908 C909 1.391 . S
C909 H897 0.950 . S
C909 C905 1.393 . S
C909 C908 1.391 . S
C910 H900 0.950 . S
C910 C911 1.386 . S
C910 C912 1.391 . S
C911 C910 1.386 . S
C911 C915 1.393 . S
C912 H901 0.950 . S
C912 C910 1.391 . S
C912 C913 1.400 . S
C913 C907 1.491 . S
C913 C912 1.400 . S
C913 C914 1.398 . S
C914 H902 0.950 . S
C914 C913 1.398 . S
C914 C915 1.391 . S
C915 H903 0.950 . S
C915 C911 1.393 . S
C915 C914 1.391 . S
H916 C924 0.950 . S
H917 C929 0.950 . S
H918 C926 0.950 . S
H919 C928 0.950 . S
H920 C930 0.950 . S
H921 C932 0.950 . S
H922 C934 0.950 . S
H923 C935 0.946 1_544 S
C924 H916 0.950 . S
C924 C925 1.386 . S
C924 C926 1.391 . S
C925 C924 1.386 . S
C925 C929 1.393 . S
C926 H918 0.950 . S
C926 C924 1.391 . S
C926 C927 1.400 . S
C927 C926 1.400 . S
C927 C928 1.398 . S
C927 C933 1.491 . S
C928 H919 0.950 . S
C928 C927 1.398 . S
C928 C929 1.391 . S
C929 H917 0.950 . S
C929 C925 1.393 . S
C929 C928 1.391 . S
C930 H920 0.950 . S
C930 C931 1.386 . S
C930 C932 1.391 1_545 S
C931 C930 1.386 . S
C931 C935 1.393 1_545 S
C932 H921 0.950 . S
C932 C930 1.391 1_565 S
C932 C933 1.400 . S
C933 C927 1.491 . S
C933 C932 1.400 . S
C933 C934 1.398 . S
C934 H922 0.950 . S
C934 C933 1.398 . S
C934 C935 1.391 . S
C935 H923 0.946 1_566 S
C935 C931 1.393 1_565 S
C935 C934 1.391 . S
H936 C944 0.950 . S
H937 C949 0.950 . S
H938 C946 0.950 . S
H939 C948 0.950 . S
H940 C950 0.950 . S
H941 C952 0.950 . S
H942 C954 0.950 . S
H943 C955 0.950 . S
C944 H936 0.950 . S
C944 C945 1.386 . S
C944 C946 1.391 . S
C945 C944 1.386 . S
C945 C949 1.393 . S
C946 H938 0.950 . S
C946 C944 1.391 . S
C946 C947 1.400 . S
C947 C946 1.400 . S
C947 C948 1.398 . S
C947 C953 1.491 . S
C948 H939 0.950 . S
C948 C947 1.398 . S
C948 C949 1.391 . S
C949 H937 0.950 . S
C949 C945 1.393 . S
C949 C948 1.391 . S
C950 H940 0.950 . S
C950 C951 1.386 . S
C950 C952 1.391 . S
C951 C950 1.386 . S
C951 C955 1.393 . S
C952 H941 0.950 . S
C952 C950 1.391 . S
C952 C953 1.400 . S
C953 C947 1.491 . S
C953 C952 1.400 . S
C953 C954 1.398 . S
C954 H942 0.950 . S
C954 C953 1.398 . S
C954 C955 1.391 . S
C955 H943 0.950 . S
C955 C951 1.393 . S
C955 C954 1.391 . S
H956 C964 0.950 1_556 S
H957 C969 0.950 . S
H958 C966 0.950 . S
H959 C968 0.950 . S
H960 C970 0.950 . S
H961 C972 0.950 . S
H962 C974 0.950 . S
H963 C975 0.950 . S
C964 H956 0.950 1_554 S
C964 C965 1.386 . S
C964 C966 1.391 . S
C965 C964 1.386 . S
C965 C969 1.393 . S
C966 H958 0.950 . S
C966 C964 1.391 . S
C966 C967 1.400 . S
C967 C966 1.400 . S
C967 C968 1.398 . S
C967 C973 1.491 . S
C968 H959 0.950 . S
C968 C967 1.398 . S
C968 C969 1.391 . S
C969 H957 0.950 . S
C969 C965 1.393 . S
C969 C968 1.391 . S
C970 H960 0.950 . S
C970 C971 1.386 . S
C970 C972 1.391 . S
C971 C970 1.386 . S
C971 C975 1.393 . S
C972 H961 0.950 . S
C972 C970 1.391 . S
C972 C973 1.400 . S
C973 C967 1.491 . S
C973 C972 1.400 . S
C973 C974 1.398 . S
C974 H962 0.950 . S
C974 C973 1.398 . S
C974 C975 1.391 . S
C975 H963 0.950 . S
C975 C971 1.393 . S
C975 C974 1.391 . S
H976 C984 0.950 . S
H977 C989 0.950 . S
H978 C986 0.950 . S
H979 C988 0.950 . S
H980 C990 0.950 . S
H981 C992 0.950 . S
H982 C994 0.950 . S
H983 C995 0.950 . S
C984 H976 0.950 . S
C984 C985 1.386 . S
C984 C986 1.391 . S
C985 C984 1.386 . S
C985 C989 1.393 . S
C986 H978 0.950 . S
C986 C984 1.391 . S
C986 C987 1.400 . S
C987 C986 1.400 . S
C987 C988 1.398 . S
C987 C993 1.491 . S
C988 H979 0.950 . S
C988 C987 1.398 . S
C988 C989 1.391 . S
C989 H977 0.950 . S
C989 C985 1.393 . S
C989 C988 1.391 . S
C990 H980 0.950 . S
C990 C991 1.386 . S
C990 C992 1.391 . S
C991 C990 1.386 . S
C991 C995 1.393 . S
C992 H981 0.950 . S
C992 C990 1.391 . S
C992 C993 1.400 . S
C993 C987 1.491 . S
C993 C992 1.400 . S
C993 C994 1.398 . S
C994 H982 0.950 . S
C994 C993 1.398 . S
C994 C995 1.391 . S
C995 H983 0.950 . S
C995 C991 1.393 . S
C995 C994 1.391 . S
H996 C1004 0.950 . S
H997 C1009 0.950 1_556 S
H998 C1006 0.950 . S
H999 C1008 0.950 . S
H1000 C1010 0.950 . S
H1001 C1012 0.950 . S
H1002 C1014 0.950 . S
H1003 C1015 0.950 . S
C1004 H996 0.950 . S
C1004 C1005 1.386 . S
C1004 C1006 1.391 1_545 S
C1005 C1004 1.386 . S
C1005 C1009 1.393 1_545 S
C1006 H998 0.950 . S
C1006 C1004 1.391 1_565 S
C1006 C1007 1.400 . S
C1007 C1006 1.400 . S
C1007 C1008 1.398 . S
C1007 C1013 1.491 . S
C1008 H999 0.950 . S
C1008 C1007 1.398 . S
C1008 C1009 1.391 . S
C1009 H997 0.950 1_554 S
C1009 C1005 1.393 1_565 S
C1009 C1008 1.391 . S
C1010 H1000 0.950 . S
C1010 C1011 1.386 . S
C1010 C1012 1.391 . S
C1011 C1010 1.386 . S
C1011 C1015 1.393 . S
C1012 H1001 0.950 . S
C1012 C1010 1.391 . S
C1012 C1013 1.400 . S
C1013 C1007 1.491 . S
C1013 C1012 1.400 . S
C1013 C1014 1.398 . S
C1014 H1002 0.950 . S
C1014 C1013 1.398 . S
C1014 C1015 1.391 . S
C1015 H1003 0.950 . S
C1015 C1011 1.393 . S
C1015 C1014 1.391 . S
H1016 C1024 0.950 . S
H1017 C1029 0.950 . S
H1018 C1026 0.950 . S
H1019 C1028 0.950 . S
H1020 C1030 0.950 . S
H1021 C1032 0.950 . S
H1022 C1034 0.950 . S
H1023 C1035 0.950 . S
C1024 H1016 0.950 . S
C1024 C1025 1.386 . S
C1024 C1026 1.391 . S
C1025 C1024 1.386 . S
C1025 C1029 1.393 . S
C1026 H1018 0.950 . S
C1026 C1024 1.391 . S
C1026 C1027 1.400 . S
C1027 C1026 1.400 . S
C1027 C1028 1.398 . S
C1027 C1033 1.491 . S
C1028 H1019 0.950 . S
C1028 C1027 1.398 . S
C1028 C1029 1.391 . S
C1029 H1017 0.950 . S
C1029 C1025 1.393 . S
C1029 C1028 1.391 . S
C1030 H1020 0.950 . S
C1030 C1031 1.386 . S
C1030 C1032 1.391 . S
C1031 C1030 1.386 . S
C1031 C1035 1.393 . S
C1032 H1021 0.950 . S
C1032 C1030 1.391 . S
C1032 C1033 1.400 . S
C1033 C1027 1.491 . S
C1033 C1032 1.400 . S
C1033 C1034 1.398 . S
C1034 H1022 0.950 . S
C1034 C1033 1.398 . S
C1034 C1035 1.391 . S
C1035 H1023 0.950 . S
C1035 C1031 1.393 . S
C1035 C1034 1.391 . S
H1036 C1044 0.950 . S
H1037 C1049 0.950 . S
H1038 C1046 0.950 . S
H1039 C1048 0.950 . S
H1040 C1050 0.950 . S
H1041 C1052 0.950 . S
H1042 C1054 0.950 . S
H1043 C1055 0.950 . S
C1044 H1036 0.950 . S
C1044 C1045 1.386 . S
C1044 C1046 1.391 . S
C1045 C1044 1.386 . S
C1045 C1049 1.393 . S
C1046 H1038 0.950 . S
C1046 C1044 1.391 . S
C1046 C1047 1.400 . S
C1047 C1046 1.400 . S
C1047 C1048 1.398 . S
C1047 C1053 1.491 . S
C1048 H1039 0.950 . S
C1048 C1047 1.398 . S
C1048 C1049 1.391 . S
C1049 H1037 0.950 . S
C1049 C1045 1.393 . S
C1049 C1048 1.391 . S
C1050 H1040 0.950 . S
C1050 C1051 1.386 . S
C1050 C1052 1.391 . S
C1051 C1050 1.386 . S
C1051 C1055 1.393 . S
C1052 H1041 0.950 . S
C1052 C1050 1.391 . S
C1052 C1053 1.400 . S
C1053 C1047 1.491 . S
C1053 C1052 1.400 . S
C1053 C1054 1.398 . S
C1054 H1042 0.950 . S
C1054 C1053 1.398 . S
C1054 C1055 1.391 . S
C1055 H1043 0.950 . S
C1055 C1051 1.393 . S
C1055 C1054 1.391 . S
H1056 C1064 0.950 . S
H1057 C1069 0.950 . S
H1058 C1066 0.950 . S
H1059 C1068 0.950 . S
H1060 C1070 0.950 . S
H1061 C1072 0.950 . S
H1062 C1074 0.950 . S
H1063 C1075 0.950 . S
C1064 H1056 0.950 . S
C1064 C1065 1.386 1_455 S
C1064 C1066 1.391 . S
C1065 C1064 1.386 1_655 S
C1065 C1069 1.393 . S
C1066 H1058 0.950 . S
C1066 C1064 1.391 . S
C1066 C1067 1.400 . S
C1067 C1066 1.400 . S
C1067 C1068 1.398 . S
C1067 C1073 1.491 . S
C1068 H1059 0.950 . S
C1068 C1067 1.398 . S
C1068 C1069 1.391 1_455 S
C1069 H1057 0.950 . S
C1069 C1065 1.393 . S
C1069 C1068 1.391 1_655 S
C1070 H1060 0.950 . S
C1070 C1071 1.386 . S
C1070 C1072 1.391 . S
C1071 C1070 1.386 . S
C1071 C1075 1.393 . S
C1072 H1061 0.950 . S
C1072 C1070 1.391 . S
C1072 C1073 1.400 . S
C1073 C1067 1.491 . S
C1073 C1072 1.400 . S
C1073 C1074 1.398 . S
C1074 H1062 0.950 . S
C1074 C1073 1.398 . S
C1074 C1075 1.391 . S
C1075 H1063 0.950 . S
C1075 C1071 1.393 . S
C1075 C1074 1.391 . S
H1076 C1084 0.950 . S
H1077 C1089 0.950 . S
H1078 C1086 0.950 . S
H1079 C1088 0.950 . S
H1080 C1090 0.950 . S
H1081 C1092 0.950 . S
H1082 C1094 0.950 . S
H1083 C1095 0.950 . S
C1084 H1076 0.950 . S
C1084 C1085 1.386 . S
C1084 C1086 1.391 . S
C1085 C1084 1.386 . S
C1085 C1089 1.393 . S
C1086 H1078 0.950 . S
C1086 C1084 1.391 . S
C1086 C1087 1.400 . S
C1087 C1086 1.400 . S
C1087 C1088 1.398 . S
C1087 C1093 1.491 . S
C1088 H1079 0.950 . S
C1088 C1087 1.398 . S
C1088 C1089 1.391 . S
C1089 H1077 0.950 . S
C1089 C1085 1.393 . S
C1089 C1088 1.391 . S
C1090 H1080 0.950 . S
C1090 C1091 1.386 . S
C1090 C1092 1.391 . S
C1091 C1090 1.386 . S
C1091 C1095 1.393 . S
C1092 H1081 0.950 . S
C1092 C1090 1.391 . S
C1092 C1093 1.400 . S
C1093 C1087 1.491 . S
C1093 C1092 1.400 . S
C1093 C1094 1.398 . S
C1094 H1082 0.950 . S
C1094 C1093 1.398 . S
C1094 C1095 1.391 . S
C1095 H1083 0.950 . S
C1095 C1091 1.393 . S
C1095 C1094 1.391 . S
H1096 C1104 0.950 . S
H1097 C1109 0.950 . S
H1098 C1106 0.950 . S
H1099 C1108 0.950 . S
H1100 C1110 0.950 . S
H1101 C1112 0.950 . S
H1102 C1114 0.950 . S
H1103 C1115 0.950 . S
C1104 H1096 0.950 . S
C1104 C1105 1.386 . S
C1104 C1106 1.391 . S
C1105 C1104 1.386 . S
C1105 C1109 1.393 . S
C1106 H1098 0.950 . S
C1106 C1104 1.391 . S
C1106 C1107 1.400 . S
C1107 C1106 1.400 . S
C1107 C1108 1.398 . S
C1107 C1113 1.491 . S
C1108 H1099 0.950 . S
C1108 C1107 1.398 . S
C1108 C1109 1.391 . S
C1109 H1097 0.950 . S
C1109 C1105 1.393 . S
C1109 C1108 1.391 . S
C1110 H1100 0.950 . S
C1110 C1111 1.386 . S
C1110 C1112 1.391 . S
C1111 C1110 1.386 . S
C1111 C1115 1.393 . S
C1112 H1101 0.950 . S
C1112 C1110 1.391 . S
C1112 C1113 1.400 . S
C1113 C1107 1.491 . S
C1113 C1112 1.400 . S
C1113 C1114 1.398 . S
C1114 H1102 0.950 . S
C1114 C1113 1.398 . S
C1114 C1115 1.391 . S
C1115 H1103 0.950 . S
C1115 C1111 1.393 . S
C1115 C1114 1.391 . S
H1116 C1124 0.950 . S
H1117 C1129 0.950 . S
H1118 C1126 0.950 . S
H1119 C1128 0.950 . S
H1120 C1130 0.950 . S
H1121 C1132 0.950 . S
H1122 C1134 0.950 . S
H1123 C1135 0.950 . S
C1124 H1116 0.950 . S
C1124 C1125 1.386 . S
C1124 C1126 1.391 . S
C1125 C1124 1.386 . S
C1125 C1129 1.393 . S
C1126 H1118 0.950 . S
C1126 C1124 1.391 . S
C1126 C1127 1.400 . S
C1127 C1126 1.400 . S
C1127 C1128 1.398 . S
C1127 C1133 1.491 . S
C1128 H1119 0.950 . S
C1128 C1127 1.398 . S
C1128 C1129 1.391 . S
C1129 H1117 0.950 . S
C1129 C1125 1.393 . S
C1129 C1128 1.391 . S
C1130 H1120 0.950 . S
C1130 C1131 1.386 . S
C1130 C1132 1.391 . S
C1131 C1130 1.386 . S
C1131 C1135 1.393 . S
C1132 H1121 0.950 . S
C1132 C1130 1.391 . S
C1132 C1133 1.400 . S
C1133 C1127 1.491 . S
C1133 C1132 1.400 . S
C1133 C1134 1.398 . S
C1134 H1122 0.950 . S
C1134 C1133 1.398 . S
C1134 C1135 1.391 . S
C1135 H1123 0.950 . S
C1135 C1131 1.393 . S
C1135 C1134 1.391 . S
H1136 C1144 0.950 . S
H1137 C1149 0.950 . S
H1138 C1146 0.950 . S
H1139 C1148 0.950 . S
H1140 C1150 0.950 . S
H1141 C1152 0.950 . S
H1142 C1154 0.950 . S
H1143 C1155 0.950 . S
C1144 H1136 0.950 . S
C1144 C1145 1.386 . S
C1144 C1146 1.391 1_655 S
C1145 C1144 1.386 . S
C1145 C1149 1.393 1_655 S
C1146 H1138 0.950 . S
C1146 C1144 1.391 1_455 S
C1146 C1147 1.400 . S
C1147 C1146 1.400 . S
C1147 C1148 1.398 . S
C1147 C1153 1.491 . S
C1148 H1139 0.950 . S
C1148 C1147 1.398 . S
C1148 C1149 1.391 . S
C1149 H1137 0.950 . S
C1149 C1145 1.393 1_455 S
C1149 C1148 1.391 . S
C1150 H1140 0.950 . S
C1150 C1151 1.386 . S
C1150 C1152 1.391 . S
C1151 C1150 1.386 . S
C1151 C1155 1.393 . S
C1152 H1141 0.950 . S
C1152 C1150 1.391 . S
C1152 C1153 1.400 . S
C1153 C1147 1.491 . S
C1153 C1152 1.400 . S
C1153 C1154 1.398 . S
C1154 H1142 0.950 . S
C1154 C1153 1.398 . S
C1154 C1155 1.391 . S
C1155 H1143 0.950 . S
C1155 C1151 1.393 . S
C1155 C1154 1.391 . S
H1156 C1164 0.950 . S
H1157 C1169 0.950 1_545 S
H1158 C1166 0.950 . S
H1159 C1168 0.950 . S
H1160 C1170 0.950 . S
H1161 C1172 0.950 . S
H1162 C1174 0.950 . S
H1163 C1175 0.950 . S
C1164 H1156 0.950 . S
C1164 C1165 1.386 . S
C1164 C1166 1.391 1_455 S
C1165 C1164 1.386 . S
C1165 C1169 1.393 1_455 S
C1166 H1158 0.950 . S
C1166 C1164 1.391 1_655 S
C1166 C1167 1.400 . S
C1167 C1166 1.400 . S
C1167 C1168 1.398 . S
C1167 C1173 1.491 . S
C1168 H1159 0.950 . S
C1168 C1167 1.398 . S
C1168 C1169 1.391 . S
C1169 H1157 0.950 1_565 S
C1169 C1165 1.393 1_655 S
C1169 C1168 1.391 . S
C1170 H1160 0.950 . S
C1170 C1171 1.386 . S
C1170 C1172 1.391 . S
C1171 C1170 1.386 . S
C1171 C1175 1.393 . S
C1172 H1161 0.950 . S
C1172 C1170 1.391 . S
C1172 C1173 1.400 . S
C1173 C1167 1.491 . S
C1173 C1172 1.400 . S
C1173 C1174 1.398 . S
C1174 H1162 0.950 . S
C1174 C1173 1.398 . S
C1174 C1175 1.391 . S
C1175 H1163 0.950 . S
C1175 C1171 1.393 . S
C1175 C1174 1.391 . S
H1176 C1184 0.950 . S
H1177 C1189 0.950 . S
H1178 C1186 0.950 . S
H1179 C1188 0.950 . S
H1180 C1190 0.950 . S
H1181 C1192 0.950 . S
H1182 C1194 0.950 . S
H1183 C1195 0.950 . S
C1184 H1176 0.950 . S
C1184 C1185 1.386 . S
C1184 C1186 1.391 . S
C1185 C1184 1.386 . S
C1185 C1189 1.393 . S
C1186 H1178 0.950 . S
C1186 C1184 1.391 . S
C1186 C1187 1.400 . S
C1187 C1186 1.400 . S
C1187 C1188 1.398 . S
C1187 C1193 1.491 . S
C1188 H1179 0.950 . S
C1188 C1187 1.398 . S
C1188 C1189 1.391 . S
C1189 H1177 0.950 . S
C1189 C1185 1.393 . S
C1189 C1188 1.391 . S
C1190 H1180 0.950 . S
C1190 C1191 1.386 . S
C1190 C1192 1.391 . S
C1191 C1190 1.386 . S
C1191 C1195 1.393 . S
C1192 H1181 0.950 . S
C1192 C1190 1.391 . S
C1192 C1193 1.400 . S
C1193 C1187 1.491 . S
C1193 C1192 1.400 . S
C1193 C1194 1.398 . S
C1194 H1182 0.950 . S
C1194 C1193 1.398 . S
C1194 C1195 1.391 . S
C1195 H1183 0.950 . S
C1195 C1191 1.393 . S
C1195 C1194 1.391 . S
H1196 C1204 0.950 . S
H1197 C1209 0.950 . S
H1198 C1206 0.950 . S
H1199 C1208 0.950 . S
H1200 C1210 0.950 . S
H1201 C1212 0.950 . S
H1202 C1214 0.950 . S
H1203 C1215 0.950 . S
C1204 H1196 0.950 . S
C1204 C1205 1.386 . S
C1204 C1206 1.391 . S
C1205 C1204 1.386 . S
C1205 C1209 1.393 . S
C1206 H1198 0.950 . S
C1206 C1204 1.391 . S
C1206 C1207 1.400 . S
C1207 C1206 1.400 . S
C1207 C1208 1.398 . S
C1207 C1213 1.491 . S
C1208 H1199 0.950 . S
C1208 C1207 1.398 . S
C1208 C1209 1.391 . S
C1209 H1197 0.950 . S
C1209 C1205 1.393 . S
C1209 C1208 1.391 . S
C1210 H1200 0.950 . S
C1210 C1211 1.386 . S
C1210 C1212 1.391 . S
C1211 C1210 1.386 . S
C1211 C1215 1.393 . S
C1212 H1201 0.950 . S
C1212 C1210 1.391 . S
C1212 C1213 1.400 . S
C1213 C1207 1.491 . S
C1213 C1212 1.400 . S
C1213 C1214 1.398 . S
C1214 H1202 0.950 . S
C1214 C1213 1.398 . S
C1214 C1215 1.391 . S
C1215 H1203 0.950 . S
C1215 C1211 1.393 . S
C1215 C1214 1.391 . S
H1216 C1224 0.950 . S
H1217 C1229 0.950 . S
H1218 C1226 0.950 . S
H1219 C1228 0.950 . S
H1220 C1230 0.950 . S
H1221 C1232 0.950 . S
H1222 C1234 0.950 . S
H1223 C1235 0.950 . S
C1224 H1216 0.950 . S
C1224 C1225 1.386 . S
C1224 C1226 1.391 . S
C1225 C1224 1.386 . S
C1225 C1229 1.393 . S
C1226 H1218 0.950 . S
C1226 C1224 1.391 . S
C1226 C1227 1.400 . S
C1227 C1226 1.400 . S
C1227 C1228 1.398 . S
C1227 C1233 1.491 . S
C1228 H1219 0.950 . S
C1228 C1227 1.398 . S
C1228 C1229 1.391 . S
C1229 H1217 0.950 . S
C1229 C1225 1.393 . S
C1229 C1228 1.391 . S
C1230 H1220 0.950 . S
C1230 C1231 1.386 . S
C1230 C1232 1.391 . S
C1231 C1230 1.386 . S
C1231 C1235 1.393 . S
C1232 H1221 0.950 . S
C1232 C1230 1.391 . S
C1232 C1233 1.400 . S
C1233 C1227 1.491 . S
C1233 C1232 1.400 . S
C1233 C1234 1.398 . S
C1234 H1222 0.950 . S
C1234 C1233 1.398 . S
C1234 C1235 1.391 . S
C1235 H1223 0.950 . S
C1235 C1231 1.393 . S
C1235 C1234 1.391 . S
H1236 C1244 0.950 1_455 S
H1237 C1249 0.950 . S
H1238 C1246 0.950 . S
H1239 C1248 0.950 . S
H1240 C1250 0.950 . S
H1241 C1252 0.950 . S
H1242 C1254 0.950 . S
H1243 C1255 0.950 . S
C1244 H1236 0.950 1_655 S
C1244 C1245 1.386 . S
C1244 C1246 1.391 . S
C1245 C1244 1.386 . S
C1245 C1249 1.393 . S
C1246 H1238 0.950 . S
C1246 C1244 1.391 . S
C1246 C1247 1.400 . S
C1247 C1246 1.400 . S
C1247 C1248 1.398 . S
C1247 C1253 1.491 . S
C1248 H1239 0.950 . S
C1248 C1247 1.398 . S
C1248 C1249 1.391 . S
C1249 H1237 0.950 . S
C1249 C1245 1.393 . S
C1249 C1248 1.391 . S
C1250 H1240 0.950 . S
C1250 C1251 1.386 . S
C1250 C1252 1.391 . S
C1251 C1250 1.386 . S
C1251 C1255 1.393 . S
C1252 H1241 0.950 . S
C1252 C1250 1.391 . S
C1252 C1253 1.400 . S
C1253 C1247 1.491 . S
C1253 C1252 1.400 . S
C1253 C1254 1.398 . S
C1254 H1242 0.950 . S
C1254 C1253 1.398 . S
C1254 C1255 1.391 . S
C1255 H1243 0.950 . S
C1255 C1251 1.393 . S
C1255 C1254 1.391 . S
H1256 C1264 0.950 . S
H1257 C1269 0.950 . S
H1258 C1266 0.950 . S
H1259 C1268 0.950 . S
H1260 C1270 0.950 . S
H1261 C1272 0.950 . S
H1262 C1274 0.950 . S
H1263 C1275 0.950 . S
C1264 H1256 0.950 . S
C1264 C1265 1.386 . S
C1264 C1266 1.391 . S
C1265 C1264 1.386 . S
C1265 C1269 1.393 . S
C1266 H1258 0.950 . S
C1266 C1264 1.391 . S
C1266 C1267 1.400 . S
C1267 C1266 1.400 . S
C1267 C1268 1.398 . S
C1267 C1273 1.491 . S
C1268 H1259 0.950 . S
C1268 C1267 1.398 . S
C1268 C1269 1.391 . S
C1269 H1257 0.950 . S
C1269 C1265 1.393 . S
C1269 C1268 1.391 . S
C1270 H1260 0.950 . S
C1270 C1271 1.386 . S
C1270 C1272 1.391 . S
C1271 C1270 1.386 . S
C1271 C1275 1.393 . S
C1272 H1261 0.950 . S
C1272 C1270 1.391 . S
C1272 C1273 1.400 . S
C1273 C1267 1.491 . S
C1273 C1272 1.400 . S
C1273 C1274 1.398 . S
C1274 H1262 0.950 . S
C1274 C1273 1.398 . S
C1274 C1275 1.391 . S
C1275 H1263 0.950 . S
C1275 C1271 1.393 . S
C1275 C1274 1.391 . S
H1276 C1284 0.950 . S
H1277 C1289 0.950 . S
H1278 C1286 0.950 . S
H1279 C1288 0.950 . S
H1280 C1290 0.950 . S
H1281 C1292 0.950 . S
H1282 C1294 0.950 . S
H1283 C1295 0.950 . S
C1284 H1276 0.950 . S
C1284 C1285 1.386 . S
C1284 C1286 1.391 . S
C1285 C1284 1.386 . S
C1285 C1289 1.393 . S
C1286 H1278 0.950 . S
C1286 C1284 1.391 . S
C1286 C1287 1.400 . S
C1287 C1286 1.400 . S
C1287 C1288 1.398 . S
C1287 C1293 1.491 . S
C1288 H1279 0.950 . S
C1288 C1287 1.398 . S
C1288 C1289 1.391 . S
C1289 H1277 0.950 . S
C1289 C1285 1.393 . S
C1289 C1288 1.391 . S
C1290 H1280 0.950 . S
C1290 C1291 1.386 . S
C1290 C1292 1.391 . S
C1291 C1290 1.386 . S
C1291 C1295 1.393 . S
C1292 H1281 0.950 . S
C1292 C1290 1.391 . S
C1292 C1293 1.400 . S
C1293 C1287 1.491 . S
C1293 C1292 1.400 . S
C1293 C1294 1.398 . S
C1294 H1282 0.950 . S
C1294 C1293 1.398 . S
C1294 C1295 1.391 . S
C1295 H1283 0.950 . S
C1295 C1291 1.393 . S
C1295 C1294 1.391 . S
H1296 C1304 0.950 . S
H1297 C1309 0.950 . S
H1298 C1306 0.950 . S
H1299 C1308 0.950 . S
H1300 C1310 0.950 . S
H1301 C1312 0.950 . S
H1302 C1314 0.950 . S
H1303 C1315 0.950 . S
C1304 H1296 0.950 . S
C1304 C1305 1.386 . S
C1304 C1306 1.391 . S
C1305 C1304 1.386 . S
C1305 C1309 1.393 . S
C1306 H1298 0.950 . S
C1306 C1304 1.391 . S
C1306 C1307 1.400 . S
C1307 C1306 1.400 . S
C1307 C1308 1.398 . S
C1307 C1313 1.491 . S
C1308 H1299 0.950 . S
C1308 C1307 1.398 . S
C1308 C1309 1.391 . S
C1309 H1297 0.950 . S
C1309 C1305 1.393 . S
C1309 C1308 1.391 . S
C1310 H1300 0.950 . S
C1310 C1311 1.386 . S
C1310 C1312 1.391 . S
C1311 C1310 1.386 . S
C1311 C1315 1.393 . S
C1312 H1301 0.950 . S
C1312 C1310 1.391 . S
C1312 C1313 1.400 . S
C1313 C1307 1.491 . S
C1313 C1312 1.400 . S
C1313 C1314 1.398 . S
C1314 H1302 0.950 . S
C1314 C1313 1.398 . S
C1314 C1315 1.391 . S
C1315 H1303 0.950 . S
C1315 C1311 1.393 . S
C1315 C1314 1.391 . S
H1316 C1324 0.950 . S
H1317 C1329 0.950 . S
H1318 C1326 0.950 . S
H1319 C1328 0.950 . S
H1320 C1330 0.950 . S
H1321 C1332 0.950 . S
H1322 C1334 0.950 . S
H1323 C1335 0.950 . S
C1324 H1316 0.950 . S
C1324 C1325 1.386 . S
C1324 C1326 1.391 . S
C1325 C1324 1.386 . S
C1325 C1329 1.393 . S
C1326 H1318 0.950 . S
C1326 C1324 1.391 . S
C1326 C1327 1.400 . S
C1327 C1326 1.400 . S
C1327 C1328 1.398 . S
C1327 C1333 1.491 . S
C1328 H1319 0.950 . S
C1328 C1327 1.398 . S
C1328 C1329 1.391 . S
C1329 H1317 0.950 . S
C1329 C1325 1.393 . S
C1329 C1328 1.391 . S
C1330 H1320 0.950 . S
C1330 C1331 1.386 . S
C1330 C1332 1.391 . S
C1331 C1330 1.386 . S
C1331 C1335 1.393 . S
C1332 H1321 0.950 . S
C1332 C1330 1.391 . S
C1332 C1333 1.400 . S
C1333 C1327 1.491 . S
C1333 C1332 1.400 . S
C1333 C1334 1.398 . S
C1334 H1322 0.950 . S
C1334 C1333 1.398 . S
C1334 C1335 1.391 . S
C1335 H1323 0.950 . S
C1335 C1331 1.393 . S
C1335 C1334 1.391 . S
H1336 C1344 0.950 . S
H1337 C1349 0.950 . S
H1338 C1346 0.950 . S
H1339 C1348 0.950 . S
H1340 C1350 0.950 . S
H1341 C1352 0.950 . S
H1342 C1354 0.950 . S
H1343 C1355 0.950 . S
C1344 H1336 0.950 . S
C1344 C1345 1.386 . S
C1344 C1346 1.391 . S
C1345 C1344 1.386 . S
C1345 C1349 1.393 . S
C1346 H1338 0.950 . S
C1346 C1344 1.391 . S
C1346 C1347 1.400 . S
C1347 C1346 1.400 . S
C1347 C1348 1.398 . S
C1347 C1353 1.491 . S
C1348 H1339 0.950 . S
C1348 C1347 1.398 . S
C1348 C1349 1.391 . S
C1349 H1337 0.950 . S
C1349 C1345 1.393 . S
C1349 C1348 1.391 . S
C1350 H1340 0.950 . S
C1350 C1351 1.386 . S
C1350 C1352 1.391 . S
C1351 C1350 1.386 . S
C1351 C1355 1.393 . S
C1352 H1341 0.950 . S
C1352 C1350 1.391 . S
C1352 C1353 1.400 . S
C1353 C1347 1.491 . S
C1353 C1352 1.400 . S
C1353 C1354 1.398 . S
C1354 H1342 0.950 . S
C1354 C1353 1.398 . S
C1354 C1355 1.391 . S
C1355 H1343 0.950 . S
C1355 C1351 1.393 . S
C1355 C1354 1.391 . S
H1356 C1364 0.950 . S
H1357 C1369 0.950 . S
H1358 C1366 0.950 . S
H1359 C1368 0.950 . S
H1360 C1370 0.950 . S
H1361 C1372 0.950 . S
H1362 C1374 0.950 . S
H1363 C1375 0.950 . S
C1364 H1356 0.950 . S
C1364 C1365 1.386 . S
C1364 C1366 1.391 . S
C1365 C1364 1.386 . S
C1365 C1369 1.393 . S
C1366 H1358 0.950 . S
C1366 C1364 1.391 . S
C1366 C1367 1.400 . S
C1367 C1366 1.400 . S
C1367 C1368 1.398 . S
C1367 C1373 1.491 . S
C1368 H1359 0.950 . S
C1368 C1367 1.398 . S
C1368 C1369 1.391 . S
C1369 H1357 0.950 . S
C1369 C1365 1.393 . S
C1369 C1368 1.391 . S
C1370 H1360 0.950 . S
C1370 C1371 1.386 . S
C1370 C1372 1.391 1_565 S
C1371 C1370 1.386 . S
C1371 C1375 1.393 . S
C1372 H1361 0.950 . S
C1372 C1370 1.391 1_545 S
C1372 C1373 1.400 . S
C1373 C1367 1.491 . S
C1373 C1372 1.400 . S
C1373 C1374 1.398 . S
C1374 H1362 0.950 . S
C1374 C1373 1.398 . S
C1374 C1375 1.391 1_545 S
C1375 H1363 0.950 . S
C1375 C1371 1.393 . S
C1375 C1374 1.391 1_565 S
H1376 C1384 0.950 . S
H1377 C1389 0.950 . S
H1378 C1386 0.950 . S
H1379 C1388 0.950 . S
H1380 C1390 0.950 . S
H1381 C1392 0.950 . S
H1382 C1394 0.950 . S
H1383 C1395 0.950 . S
C1384 H1376 0.950 . S
C1384 C1385 1.386 . S
C1384 C1386 1.391 . S
C1385 C1384 1.386 . S
C1385 C1389 1.393 . S
C1386 H1378 0.950 . S
C1386 C1384 1.391 . S
C1386 C1387 1.400 . S
C1387 C1386 1.400 . S
C1387 C1388 1.398 . S
C1387 C1393 1.491 . S
C1388 H1379 0.950 . S
C1388 C1387 1.398 . S
C1388 C1389 1.391 . S
C1389 H1377 0.950 . S
C1389 C1385 1.393 . S
C1389 C1388 1.391 . S
C1390 H1380 0.950 . S
C1390 C1391 1.386 . S
C1390 C1392 1.391 . S
C1391 C1390 1.386 . S
C1391 C1395 1.393 . S
C1392 H1381 0.950 . S
C1392 C1390 1.391 . S
C1392 C1393 1.400 . S
C1393 C1387 1.491 . S
C1393 C1392 1.400 . S
C1393 C1394 1.398 . S
C1394 H1382 0.950 . S
C1394 C1393 1.398 . S
C1394 C1395 1.391 . S
C1395 H1383 0.950 . S
C1395 C1391 1.393 . S
C1395 C1394 1.391 . S
H1396 C1404 0.950 . S
H1397 C1409 0.950 . S
H1398 C1406 0.950 . S
H1399 C1408 0.950 . S
H1400 C1410 0.950 . S
H1401 C1412 0.950 . S
H1402 C1414 0.950 . S
H1403 C1415 0.950 . S
C1404 H1396 0.950 . S
C1404 C1405 1.386 . S
C1404 C1406 1.391 . S
C1405 C1404 1.386 . S
C1405 C1409 1.393 . S
C1406 H1398 0.950 . S
C1406 C1404 1.391 . S
C1406 C1407 1.400 . S
C1407 C1406 1.400 . S
C1407 C1408 1.398 . S
C1407 C1413 1.491 . S
C1408 H1399 0.950 . S
C1408 C1407 1.398 . S
C1408 C1409 1.391 . S
C1409 H1397 0.950 . S
C1409 C1405 1.393 . S
C1409 C1408 1.391 . S
C1410 H1400 0.950 . S
C1410 C1411 1.386 . S
C1410 C1412 1.391 . S
C1411 C1410 1.386 . S
C1411 C1415 1.393 . S
C1412 H1401 0.950 . S
C1412 C1410 1.391 . S
C1412 C1413 1.400 . S
C1413 C1407 1.491 . S
C1413 C1412 1.400 . S
C1413 C1414 1.398 . S
C1414 H1402 0.950 . S
C1414 C1413 1.398 . S
C1414 C1415 1.391 . S
C1415 H1403 0.950 . S
C1415 C1411 1.393 . S
C1415 C1414 1.391 . S
H1416 C1424 0.950 . S
H1417 C1429 0.950 . S
H1418 C1426 0.950 . S
H1419 C1428 0.950 . S
H1420 C1430 0.950 . S
H1421 C1432 0.950 . S
H1422 C1434 0.950 . S
H1423 C1435 0.950 . S
C1424 H1416 0.950 . S
C1424 C1425 1.386 . S
C1424 C1426 1.391 . S
C1425 C1424 1.386 . S
C1425 C1429 1.393 . S
C1426 H1418 0.950 . S
C1426 C1424 1.391 . S
C1426 C1427 1.400 . S
C1427 C1426 1.400 . S
C1427 C1428 1.398 . S
C1427 C1433 1.491 . S
C1428 H1419 0.950 . S
C1428 C1427 1.398 . S
C1428 C1429 1.391 . S
C1429 H1417 0.950 . S
C1429 C1425 1.393 . S
C1429 C1428 1.391 . S
C1430 H1420 0.950 . S
C1430 C1431 1.386 . S
C1430 C1432 1.391 . S
C1431 C1430 1.386 . S
C1431 C1435 1.393 . S
C1432 H1421 0.950 . S
C1432 C1430 1.391 . S
C1432 C1433 1.400 . S
C1433 C1427 1.491 . S
C1433 C1432 1.400 . S
C1433 C1434 1.398 . S
C1434 H1422 0.950 . S
C1434 C1433 1.398 . S
C1434 C1435 1.391 . S
C1435 H1423 0.950 . S
C1435 C1431 1.393 . S
C1435 C1434 1.391 . S
H1436 C1444 0.950 . S
H1437 C1449 0.950 . S
H1438 C1446 0.950 . S
H1439 C1448 0.950 . S
H1440 C1450 0.950 . S
H1441 C1452 0.950 . S
H1442 C1454 0.950 . S
H1443 C1455 0.950 . S
C1444 H1436 0.950 . S
C1444 C1445 1.386 . S
C1444 C1446 1.391 . S
C1445 C1444 1.386 . S
C1445 C1449 1.393 . S
C1446 H1438 0.950 . S
C1446 C1444 1.391 . S
C1446 C1447 1.400 . S
C1447 C1446 1.400 . S
C1447 C1448 1.398 . S
C1447 C1453 1.491 . S
C1448 H1439 0.950 . S
C1448 C1447 1.398 . S
C1448 C1449 1.391 . S
C1449 H1437 0.950 . S
C1449 C1445 1.393 . S
C1449 C1448 1.391 . S
C1450 H1440 0.950 . S
C1450 C1451 1.386 . S
C1450 C1452 1.391 1_565 S
C1451 C1450 1.386 . S
C1451 C1455 1.393 1_565 S
C1452 H1441 0.950 . S
C1452 C1450 1.391 1_545 S
C1452 C1453 1.400 . S
C1453 C1447 1.491 . S
C1453 C1452 1.400 . S
C1453 C1454 1.398 . S
C1454 H1442 0.950 . S
C1454 C1453 1.398 . S
C1454 C1455 1.391 . S
C1455 H1443 0.950 . S
C1455 C1451 1.393 1_545 S
C1455 C1454 1.391 . S
H1456 C1464 0.950 . S
H1457 C1469 0.950 . S
H1458 C1466 0.950 . S
H1459 C1468 0.950 . S
H1460 C1470 0.950 . S
H1461 C1472 0.950 . S
H1462 C1474 0.950 . S
H1463 C1475 0.950 . S
C1464 H1456 0.950 . S
C1464 C1465 1.386 . S
C1464 C1466 1.391 . S
C1465 C1464 1.386 . S
C1465 C1469 1.393 . S
C1466 H1458 0.950 . S
C1466 C1464 1.391 . S
C1466 C1467 1.400 . S
C1467 C1466 1.400 . S
C1467 C1468 1.398 . S
C1467 C1473 1.491 . S
C1468 H1459 0.950 . S
C1468 C1467 1.398 . S
C1468 C1469 1.391 . S
C1469 H1457 0.950 . S
C1469 C1465 1.393 . S
C1469 C1468 1.391 . S
C1470 H1460 0.950 . S
C1470 C1471 1.386 . S
C1470 C1472 1.391 . S
C1471 C1470 1.386 . S
C1471 C1475 1.393 . S
C1472 H1461 0.950 . S
C1472 C1470 1.391 . S
C1472 C1473 1.400 . S
C1473 C1467 1.491 . S
C1473 C1472 1.400 . S
C1473 C1474 1.398 . S
C1474 H1462 0.950 . S
C1474 C1473 1.398 . S
C1474 C1475 1.391 . S
C1475 H1463 0.950 . S
C1475 C1471 1.393 . S
C1475 C1474 1.391 . S
H1476 C1484 0.950 . S
H1477 C1489 0.950 . S
H1478 C1486 0.950 . S
H1479 C1488 0.950 . S
H1480 C1490 0.950 . S
H1481 C1492 0.950 . S
H1482 C1494 0.950 . S
H1483 C1495 0.950 . S
C1484 H1476 0.950 . S
C1484 C1485 1.386 . S
C1484 C1486 1.391 . S
C1485 C1484 1.386 . S
C1485 C1489 1.393 . S
C1486 H1478 0.950 . S
C1486 C1484 1.391 . S
C1486 C1487 1.400 . S
C1487 C1486 1.400 . S
C1487 C1488 1.398 . S
C1487 C1493 1.491 . S
C1488 H1479 0.950 . S
C1488 C1487 1.398 . S
C1488 C1489 1.391 . S
C1489 H1477 0.950 . S
C1489 C1485 1.393 . S
C1489 C1488 1.391 . S
C1490 H1480 0.950 . S
C1490 C1491 1.386 . S
C1490 C1492 1.391 . S
C1491 C1490 1.386 . S
C1491 C1495 1.393 . S
C1492 H1481 0.950 . S
C1492 C1490 1.391 . S
C1492 C1493 1.400 . S
C1493 C1487 1.491 . S
C1493 C1492 1.400 . S
C1493 C1494 1.398 . S
C1494 H1482 0.950 . S
C1494 C1493 1.398 . S
C1494 C1495 1.391 . S
C1495 H1483 0.950 . S
C1495 C1491 1.393 . S
C1495 C1494 1.391 . S
H1496 C1504 0.950 . S
H1497 C1509 0.950 . S
H1498 C1506 0.950 . S
H1499 C1508 0.950 . S
H1500 C1510 0.950 . S
H1501 C1512 0.950 . S
H1502 C1514 0.950 . S
H1503 C1515 0.950 . S
C1504 H1496 0.950 . S
C1504 C1505 1.386 . S
C1504 C1506 1.391 . S
C1505 C1504 1.386 . S
C1505 C1509 1.393 . S
C1506 H1498 0.950 . S
C1506 C1504 1.391 . S
C1506 C1507 1.400 . S
C1507 C1506 1.400 . S
C1507 C1508 1.398 . S
C1507 C1513 1.491 . S
C1508 H1499 0.950 . S
C1508 C1507 1.398 . S
C1508 C1509 1.391 . S
C1509 H1497 0.950 . S
C1509 C1505 1.393 . S
C1509 C1508 1.391 . S
C1510 H1500 0.950 . S
C1510 C1511 1.386 . S
C1510 C1512 1.391 . S
C1511 C1510 1.386 . S
C1511 C1515 1.393 . S
C1512 H1501 0.950 . S
C1512 C1510 1.391 . S
C1512 C1513 1.400 . S
C1513 C1507 1.491 . S
C1513 C1512 1.400 . S
C1513 C1514 1.398 . S
C1514 H1502 0.950 . S
C1514 C1513 1.398 . S
C1514 C1515 1.391 . S
C1515 H1503 0.950 . S
C1515 C1511 1.393 . S
C1515 C1514 1.391 . S
H1516 C1524 0.950 . S
H1517 C1529 0.950 . S
H1518 C1526 0.950 . S
H1519 C1528 0.950 . S
H1520 C1530 0.950 . S
H1521 C1532 0.950 . S
H1522 C1534 0.950 . S
H1523 C1535 0.950 . S
C1524 H1516 0.950 . S
C1524 C1525 1.386 . S
C1524 C1526 1.391 . S
C1525 C1524 1.386 . S
C1525 C1529 1.393 . S
C1526 H1518 0.950 . S
C1526 C1524 1.391 . S
C1526 C1527 1.400 . S
C1527 C1526 1.400 . S
C1527 C1528 1.398 . S
C1527 C1533 1.491 . S
C1528 H1519 0.950 . S
C1528 C1527 1.398 . S
C1528 C1529 1.391 . S
C1529 H1517 0.950 . S
C1529 C1525 1.393 . S
C1529 C1528 1.391 . S
C1530 H1520 0.950 . S
C1530 C1531 1.386 . S
C1530 C1532 1.391 . S
C1531 C1530 1.386 . S
C1531 C1535 1.393 . S
C1532 H1521 0.950 . S
C1532 C1530 1.391 . S
C1532 C1533 1.400 . S
C1533 C1527 1.491 . S
C1533 C1532 1.400 . S
C1533 C1534 1.398 . S
C1534 H1522 0.950 . S
C1534 C1533 1.398 . S
C1534 C1535 1.391 . S
C1535 H1523 0.950 . S
C1535 C1531 1.393 . S
C1535 C1534 1.391 . S
H1536 C1544 0.950 . S
H1537 C1549 0.950 1_545 S
H1538 C1546 0.950 . S
H1539 C1548 0.950 . S
H1540 C1550 0.950 . S
H1541 C1552 0.950 . S
H1542 C1554 0.950 . S
H1543 C1555 0.950 . S
C1544 H1536 0.950 . S
C1544 C1545 1.386 . S
C1544 C1546 1.391 . S
C1545 C1544 1.386 . S
C1545 C1549 1.393 . S
C1546 H1538 0.950 . S
C1546 C1544 1.391 . S
C1546 C1547 1.400 . S
C1547 C1546 1.400 . S
C1547 C1548 1.398 . S
C1547 C1553 1.491 . S
C1548 H1539 0.950 . S
C1548 C1547 1.398 . S
C1548 C1549 1.391 . S
C1549 H1537 0.950 1_565 S
C1549 C1545 1.393 . S
C1549 C1548 1.391 . S
C1550 H1540 0.950 . S
C1550 C1551 1.386 . S
C1550 C1552 1.391 . S
C1551 C1550 1.386 . S
C1551 C1555 1.393 . S
C1552 H1541 0.950 . S
C1552 C1550 1.391 . S
C1552 C1553 1.400 . S
C1553 C1547 1.491 . S
C1553 C1552 1.400 . S
C1553 C1554 1.398 . S
C1554 H1542 0.950 . S
C1554 C1553 1.398 . S
C1554 C1555 1.391 . S
C1555 H1543 0.950 . S
C1555 C1551 1.393 . S
C1555 C1554 1.391 . S
H1556 C1564 0.950 . S
H1557 C1569 0.950 . S
H1558 C1566 0.950 . S
H1559 C1568 0.950 . S
H1560 C1570 0.950 . S
H1561 C1572 0.950 . S
H1562 C1574 0.950 . S
H1563 C1575 0.950 . S
C1564 H1556 0.950 . S
C1564 C1565 1.386 . S
C1564 C1566 1.391 . S
C1565 C1564 1.386 . S
C1565 C1569 1.393 . S
C1566 H1558 0.950 . S
C1566 C1564 1.391 . S
C1566 C1567 1.400 . S
C1567 C1566 1.400 . S
C1567 C1568 1.398 . S
C1567 C1573 1.491 . S
C1568 H1559 0.950 . S
C1568 C1567 1.398 . S
C1568 C1569 1.391 . S
C1569 H1557 0.950 . S
C1569 C1565 1.393 . S
C1569 C1568 1.391 . S
C1570 H1560 0.950 . S
C1570 C1571 1.386 . S
C1570 C1572 1.391 . S
C1571 C1570 1.386 . S
C1571 C1575 1.393 . S
C1572 H1561 0.950 . S
C1572 C1570 1.391 . S
C1572 C1573 1.400 . S
C1573 C1567 1.491 . S
C1573 C1572 1.400 . S
C1573 C1574 1.398 . S
C1574 H1562 0.950 . S
C1574 C1573 1.398 . S
C1574 C1575 1.391 . S
C1575 H1563 0.950 . S
C1575 C1571 1.393 . S
C1575 C1574 1.391 . S
H1576 C1584 0.950 . S
H1577 C1589 0.950 . S
H1578 C1586 0.950 . S
H1579 C1588 0.950 . S
H1580 C1590 0.954 . S
H1581 C1592 0.950 . S
H1582 C1594 0.950 . S
H1583 C1595 0.957 . S
C1584 H1576 0.950 . S
C1584 C1585 1.386 . S
C1584 C1586 1.391 . S
C1585 C1584 1.386 . S
C1585 C1589 1.393 . S
C1586 H1578 0.950 . S
C1586 C1584 1.391 . S
C1586 C1587 1.400 . S
C1587 C1586 1.400 . S
C1587 C1588 1.398 . S
C1587 C1593 1.491 . S
C1588 H1579 0.950 . S
C1588 C1587 1.398 . S
C1588 C1589 1.391 . S
C1589 H1577 0.950 . S
C1589 C1585 1.393 . S
C1589 C1588 1.391 . S
C1590 H1580 0.954 . S
C1590 C1591 1.386 . S
C1590 C1592 1.391 1_455 S
C1591 C1590 1.386 . S
C1591 C1595 1.405 . S
C1592 H1581 0.950 . S
C1592 C1590 1.391 1_655 S
C1592 C1593 1.400 . S
C1593 C1587 1.491 . S
C1593 C1592 1.400 . S
C1593 C1594 1.398 . S
C1594 H1582 0.950 . S
C1594 C1593 1.398 . S
C1594 C1595 1.371 1_655 S
C1595 H1583 0.957 . S
C1595 C1591 1.405 . S
C1595 C1594 1.371 1_455 S
H1596 C1604 0.950 . S
H1597 C1609 0.950 . S
H1598 C1606 0.950 . S
H1599 C1608 0.950 . S
H1600 C1610 0.950 . S
H1601 C1612 0.950 . S
H1602 C1614 0.950 . S
H1603 C1615 0.950 . S
C1604 H1596 0.950 . S
C1604 C1605 1.386 . S
C1604 C1606 1.391 . S
C1605 C1604 1.386 . S
C1605 C1609 1.393 . S
C1606 H1598 0.950 . S
C1606 C1604 1.391 . S
C1606 C1607 1.400 . S
C1607 C1606 1.400 . S
C1607 C1608 1.398 . S
C1607 C1613 1.491 . S
C1608 H1599 0.950 . S
C1608 C1607 1.398 . S
C1608 C1609 1.391 . S
C1609 H1597 0.950 . S
C1609 C1605 1.393 . S
C1609 C1608 1.391 . S
C1610 H1600 0.950 . S
C1610 C1611 1.386 . S
C1610 C1612 1.391 . S
C1611 C1610 1.386 . S
C1611 C1615 1.393 . S
C1612 H1601 0.950 . S
C1612 C1610 1.391 . S
C1612 C1613 1.400 . S
C1613 C1607 1.491 . S
C1613 C1612 1.400 . S
C1613 C1614 1.398 . S
C1614 H1602 0.950 . S
C1614 C1613 1.398 . S
C1614 C1615 1.391 . S
C1615 H1603 0.950 . S
C1615 C1611 1.393 . S
C1615 C1614 1.391 . S
H1616 C1624 0.950 . S
H1617 C1629 0.950 . S
H1618 C1626 0.950 . S
H1619 C1628 0.950 . S
H1620 C1630 0.950 . S
H1621 C1632 0.950 . S
H1622 C1634 0.950 . S
H1623 C1635 0.950 1_565 S
C1624 H1616 0.950 . S
C1624 C1625 1.386 . S
C1624 C1626 1.391 . S
C1625 C1624 1.386 . S
C1625 C1629 1.393 . S
C1626 H1618 0.950 . S
C1626 C1624 1.391 . S
C1626 C1627 1.400 . S
C1627 C1626 1.400 . S
C1627 C1628 1.398 . S
C1627 C1633 1.491 . S
C1628 H1619 0.950 . S
C1628 C1627 1.398 . S
C1628 C1629 1.391 . S
C1629 H1617 0.950 . S
C1629 C1625 1.393 . S
C1629 C1628 1.391 . S
C1630 H1620 0.950 . S
C1630 C1631 1.386 . S
C1630 C1632 1.391 . S
C1631 C1630 1.386 . S
C1631 C1635 1.393 . S
C1632 H1621 0.950 . S
C1632 C1630 1.391 . S
C1632 C1633 1.400 . S
C1633 C1627 1.491 . S
C1633 C1632 1.400 . S
C1633 C1634 1.398 . S
C1634 H1622 0.950 . S
C1634 C1633 1.398 . S
C1634 C1635 1.391 . S
C1635 H1623 0.950 1_545 S
C1635 C1631 1.393 . S
C1635 C1634 1.391 . S
H1636 C1644 0.950 . S
H1637 C1649 0.950 . S
H1638 C1646 0.950 . S
H1639 C1648 0.950 . S
H1640 C1650 0.950 . S
H1641 C1652 0.950 . S
H1642 C1654 0.950 . S
H1643 C1655 0.950 . S
C1644 H1636 0.950 . S
C1644 C1645 1.386 . S
C1644 C1646 1.391 . S
C1645 C1644 1.386 . S
C1645 C1649 1.393 . S
C1646 H1638 0.950 . S
C1646 C1644 1.391 . S
C1646 C1647 1.400 . S
C1647 C1646 1.400 . S
C1647 C1648 1.398 . S
C1647 C1653 1.491 . S
C1648 H1639 0.950 . S
C1648 C1647 1.398 . S
C1648 C1649 1.391 . S
C1649 H1637 0.950 . S
C1649 C1645 1.393 . S
C1649 C1648 1.391 . S
C1650 H1640 0.950 . S
C1650 C1651 1.386 . S
C1650 C1652 1.391 . S
C1651 C1650 1.386 . S
C1651 C1655 1.393 . S
C1652 H1641 0.950 . S
C1652 C1650 1.391 . S
C1652 C1653 1.400 . S
C1653 C1647 1.491 . S
C1653 C1652 1.400 . S
C1653 C1654 1.398 . S
C1654 H1642 0.950 . S
C1654 C1653 1.398 . S
C1654 C1655 1.391 . S
C1655 H1643 0.950 . S
C1655 C1651 1.393 . S
C1655 C1654 1.391 . S
H1656 C1664 0.950 . S
H1657 C1669 0.950 . S
H1658 C1666 0.950 . S
H1659 C1668 0.950 . S
H1660 C1670 0.950 . S
H1661 C1672 0.950 . S
H1662 C1674 0.950 . S
H1663 C1675 0.950 . S
C1664 H1656 0.950 . S
C1664 C1665 1.386 . S
C1664 C1666 1.391 . S
C1665 C1664 1.386 . S
C1665 C1669 1.393 1_655 S
C1666 H1658 0.950 . S
C1666 C1664 1.391 . S
C1666 C1667 1.400 . S
C1667 C1666 1.400 . S
C1667 C1668 1.398 1_655 S
C1667 C1673 1.491 . S
C1668 H1659 0.950 . S
C1668 C1667 1.398 1_455 S
C1668 C1669 1.391 . S
C1669 H1657 0.950 . S
C1669 C1665 1.393 1_455 S
C1669 C1668 1.391 . S
C1670 H1660 0.950 . S
C1670 C1671 1.386 1_455 S
C1670 C1672 1.391 . S
C1671 C1670 1.386 1_655 S
C1671 C1675 1.393 . S
C1672 H1661 0.950 . S
C1672 C1670 1.391 . S
C1672 C1673 1.400 1_455 S
C1673 C1667 1.491 . S
C1673 C1672 1.400 1_655 S
C1673 C1674 1.398 . S
C1674 H1662 0.950 . S
C1674 C1673 1.398 . S
C1674 C1675 1.391 . S
C1675 H1663 0.950 . S
C1675 C1671 1.393 . S
C1675 C1674 1.391 . S
H1676 C1684 0.950 . S
H1677 C1689 0.950 . S
H1678 C1686 0.950 . S
H1679 C1688 0.950 . S
H1680 C1690 0.950 . S
H1681 C1692 0.950 . S
H1682 C1694 0.950 . S
H1683 C1695 0.950 . S
C1684 H1676 0.950 . S
C1684 C1685 1.386 1_554 S
C1684 C1686 1.391 . S
C1685 C1684 1.386 1_556 S
C1685 C1689 1.393 . S
C1686 H1678 0.950 . S
C1686 C1684 1.391 . S
C1686 C1687 1.400 1_554 S
C1687 C1686 1.400 1_556 S
C1687 C1688 1.398 . S
C1687 C1693 1.491 1_556 S
C1688 H1679 0.950 . S
C1688 C1687 1.398 . S
C1688 C1689 1.391 . S
C1689 H1677 0.950 . S
C1689 C1685 1.393 . S
C1689 C1688 1.391 . S
C1690 H1680 0.950 . S
C1690 C1691 1.386 1_556 S
C1690 C1692 1.391 . S
C1691 C1690 1.386 1_554 S
C1691 C1695 1.393 . S
C1692 H1681 0.950 . S
C1692 C1690 1.391 . S
C1692 C1693 1.400 1_556 S
C1693 C1687 1.491 1_554 S
C1693 C1692 1.400 1_554 S
C1693 C1694 1.398 . S
C1694 H1682 0.950 . S
C1694 C1693 1.398 . S
C1694 C1695 1.391 . S
C1695 H1683 0.950 . S
C1695 C1691 1.393 . S
C1695 C1694 1.391 . S
H1696 C1704 0.950 . S
H1697 C1709 0.950 . S
H1698 C1706 0.950 . S
H1699 C1708 0.950 . S
H1700 C1710 0.950 . S
H1701 C1712 0.950 . S
H1702 C1714 0.950 . S
H1703 C1715 0.950 . S
C1704 H1696 0.950 . S
C1704 C1705 1.386 . S
C1704 C1706 1.391 . S
C1705 C1704 1.386 . S
C1705 C1709 1.393 1_455 S
C1706 H1698 0.950 . S
C1706 C1704 1.391 . S
C1706 C1707 1.400 . S
C1707 C1706 1.400 . S
C1707 C1708 1.398 1_455 S
C1707 C1713 1.491 1_545 S
C1708 H1699 0.950 . S
C1708 C1707 1.398 1_655 S
C1708 C1709 1.391 . S
C1709 H1697 0.950 . S
C1709 C1705 1.393 1_655 S
C1709 C1708 1.391 . S
C1710 H1700 0.950 . S
C1710 C1711 1.386 1_655 S
C1710 C1712 1.391 . S
C1711 C1710 1.386 1_455 S
C1711 C1715 1.393 . S
C1712 H1701 0.950 . S
C1712 C1710 1.391 . S
C1712 C1713 1.400 1_655 S
C1713 C1707 1.491 1_565 S
C1713 C1712 1.400 1_455 S
C1713 C1714 1.398 . S
C1714 H1702 0.950 . S
C1714 C1713 1.398 . S
C1714 C1715 1.391 . S
C1715 H1703 0.950 . S
C1715 C1711 1.393 . S
C1715 C1714 1.391 . S
H1716 C1724 0.950 . S
H1717 C1729 0.950 . S
H1718 C1726 0.950 . S
H1719 C1728 0.950 . S
H1720 C1730 0.950 . S
H1721 C1732 0.950 . S
H1722 C1734 0.950 . S
H1723 C1735 0.950 . S
C1724 H1716 0.950 . S
C1724 C1725 1.386 . S
C1724 C1726 1.391 . S
C1725 C1724 1.386 . S
C1725 C1729 1.393 1_556 S
C1726 H1718 0.950 . S
C1726 C1724 1.391 . S
C1726 C1727 1.400 . S
C1727 C1726 1.400 . S
C1727 C1728 1.398 1_556 S
C1727 C1733 1.491 1_556 S
C1728 H1719 0.950 . S
C1728 C1727 1.398 1_554 S
C1728 C1729 1.391 . S
C1729 H1717 0.950 . S
C1729 C1725 1.393 1_554 S
C1729 C1728 1.391 . S
C1730 H1720 0.950 . S
C1730 C1731 1.386 . S
C1730 C1732 1.391 . S
C1731 C1730 1.386 . S
C1731 C1735 1.393 1_554 S
C1732 H1721 0.950 . S
C1732 C1730 1.391 . S
C1732 C1733 1.400 . S
C1733 C1727 1.491 1_554 S
C1733 C1732 1.400 . S
C1733 C1734 1.398 1_554 S
C1734 H1722 0.950 . S
C1734 C1733 1.398 1_556 S
C1734 C1735 1.391 . S
C1735 H1723 0.950 . S
C1735 C1731 1.393 1_556 S
C1735 C1734 1.391 . S
H1736 C1744 0.950 . S
H1737 C1749 0.950 . S
H1738 C1746 0.950 . S
H1739 C1748 0.950 . S
H1740 C1750 0.950 . S
H1741 C1752 0.950 . S
H1742 C1754 0.950 . S
H1743 C1755 0.950 . S
C1744 H1736 0.950 . S
C1744 C1745 1.386 1_545 S
C1744 C1746 1.391 . S
C1745 C1744 1.386 1_565 S
C1745 C1749 1.393 . S
C1746 H1738 0.950 . S
C1746 C1744 1.391 . S
C1746 C1747 1.400 1_545 S
C1747 C1746 1.400 1_565 S
C1747 C1748 1.398 . S
C1747 C1753 1.491 . S
C1748 H1739 0.950 . S
C1748 C1747 1.398 . S
C1748 C1749 1.391 . S
C1749 H1737 0.950 . S
C1749 C1745 1.393 . S
C1749 C1748 1.391 . S
C1750 H1740 0.950 . S
C1750 C1751 1.386 . S
C1750 C1752 1.391 . S
C1751 C1750 1.386 . S
C1751 C1755 1.393 1_565 S
C1752 H1741 0.950 . S
C1752 C1750 1.391 . S
C1752 C1753 1.400 . S
C1753 C1747 1.491 . S
C1753 C1752 1.400 . S
C1753 C1754 1.398 1_565 S
C1754 H1742 0.950 . S
C1754 C1753 1.398 1_545 S
C1754 C1755 1.391 . S
C1755 H1743 0.950 . S
C1755 C1751 1.393 1_545 S
C1755 C1754 1.391 . S
H1756 C1764 0.950 . S
H1757 C1769 0.950 . S
H1758 C1766 0.950 . S
H1759 C1768 0.950 . S
H1760 C1770 0.950 . S
H1761 C1772 0.950 . S
H1762 C1774 0.950 . S
H1763 C1775 0.950 . S
C1764 H1756 0.950 . S
C1764 C1765 1.386 . S
C1764 C1766 1.391 . S
C1765 C1764 1.386 . S
C1765 C1769 1.393 . S
C1766 H1758 0.950 . S
C1766 C1764 1.391 . S
C1766 C1767 1.400 . S
C1767 C1766 1.400 . S
C1767 C1768 1.398 . S
C1767 C1773 1.491 . S
C1768 H1759 0.950 . S
C1768 C1767 1.398 . S
C1768 C1769 1.391 . S
C1769 H1757 0.950 . S
C1769 C1765 1.393 . S
C1769 C1768 1.391 . S
C1770 H1760 0.950 . S
C1770 C1771 1.386 . S
C1770 C1772 1.391 . S
C1771 C1770 1.386 . S
C1771 C1775 1.393 . S
C1772 H1761 0.950 . S
C1772 C1770 1.391 . S
C1772 C1773 1.400 . S
C1773 C1767 1.491 . S
C1773 C1772 1.400 . S
C1773 C1774 1.398 . S
C1774 H1762 0.950 . S
C1774 C1773 1.398 . S
C1774 C1775 1.391 . S
C1775 H1763 0.950 . S
C1775 C1771 1.393 . S
C1775 C1774 1.391 . S
H1776 C1784 0.950 . S
H1777 C1789 0.950 . S
H1778 C1786 0.950 . S
H1779 C1788 0.950 . S
H1780 C1790 0.950 . S
H1781 C1792 0.950 . S
H1782 C1794 0.950 . S
H1783 C1795 0.950 . S
C1784 H1776 0.950 . S
C1784 C1785 1.386 . S
C1784 C1786 1.391 . S
C1785 C1784 1.386 . S
C1785 C1789 1.393 . S
C1786 H1778 0.950 . S
C1786 C1784 1.391 . S
C1786 C1787 1.400 . S
C1787 C1786 1.400 . S
C1787 C1788 1.398 . S
C1787 C1793 1.491 . S
C1788 H1779 0.950 . S
C1788 C1787 1.398 . S
C1788 C1789 1.391 . S
C1789 H1777 0.950 . S
C1789 C1785 1.393 . S
C1789 C1788 1.391 . S
C1790 H1780 0.950 . S
C1790 C1791 1.386 . S
C1790 C1792 1.391 . S
C1791 C1790 1.386 . S
C1791 C1795 1.393 . S
C1792 H1781 0.950 . S
C1792 C1790 1.391 . S
C1792 C1793 1.400 . S
C1793 C1787 1.491 . S
C1793 C1792 1.400 . S
C1793 C1794 1.398 . S
C1794 H1782 0.950 . S
C1794 C1793 1.398 . S
C1794 C1795 1.391 . S
C1795 H1783 0.950 . S
C1795 C1791 1.393 . S
C1795 C1794 1.391 . S
H1796 C1804 0.950 . S
H1797 C1809 0.950 . S
H1798 C1806 0.950 . S
H1799 C1808 0.950 . S
H1800 C1810 0.950 . S
H1801 C1812 0.950 . S
H1802 C1814 0.950 . S
H1803 C1815 0.950 . S
C1804 H1796 0.950 . S
C1804 C1805 1.386 1_565 S
C1804 C1806 1.391 . S
C1805 C1804 1.386 1_545 S
C1805 C1809 1.393 . S
C1806 H1798 0.950 . S
C1806 C1804 1.391 . S
C1806 C1807 1.400 1_565 S
C1807 C1806 1.400 1_545 S
C1807 C1808 1.398 . S
C1807 C1813 1.491 1_545 S
C1808 H1799 0.950 . S
C1808 C1807 1.398 . S
C1808 C1809 1.391 . S
C1809 H1797 0.950 . S
C1809 C1805 1.393 . S
C1809 C1808 1.391 . S
C1810 H1800 0.950 . S
C1810 C1811 1.386 1_545 S
C1810 C1812 1.391 . S
C1811 C1810 1.386 1_565 S
C1811 C1815 1.393 . S
C1812 H1801 0.950 . S
C1812 C1810 1.391 . S
C1812 C1813 1.400 1_545 S
C1813 C1807 1.491 1_565 S
C1813 C1812 1.400 1_565 S
C1813 C1814 1.398 . S
C1814 H1802 0.950 . S
C1814 C1813 1.398 . S
C1814 C1815 1.391 . S
C1815 H1803 0.950 . S
C1815 C1811 1.393 . S
C1815 C1814 1.391 . S
H1816 C1824 0.950 . S
H1817 C1829 0.950 . S
H1818 C1826 0.950 . S
H1819 C1828 0.950 . S
H1820 C1830 0.951 . S
H1821 C1832 0.950 . S
H1822 C1834 0.950 . S
H1823 C1835 0.950 . S
C1824 H1816 0.950 . S
C1824 C1825 1.386 . S
C1824 C1826 1.391 . S
C1825 C1824 1.386 . S
C1825 C1829 1.393 . S
C1826 H1818 0.950 . S
C1826 C1824 1.391 . S
C1826 C1827 1.400 . S
C1827 C1826 1.400 . S
C1827 C1828 1.398 . S
C1827 C1833 1.491 1_554 S
C1828 H1819 0.950 . S
C1828 C1827 1.398 . S
C1828 C1829 1.391 . S
C1829 H1817 0.950 . S
C1829 C1825 1.393 . S
C1829 C1828 1.391 . S
C1830 H1820 0.951 . S
C1830 C1831 1.386 . S
C1830 C1832 1.391 . S
C1831 C1830 1.386 . S
C1831 C1835 1.393 . S
C1832 H1821 0.950 . S
C1832 C1830 1.391 . S
C1832 C1833 1.400 . S
C1833 C1827 1.491 1_556 S
C1833 C1832 1.400 . S
C1833 C1834 1.398 . S
C1834 H1822 0.950 . S
C1834 C1833 1.398 . S
C1834 C1835 1.391 . S
C1835 H1823 0.950 . S
C1835 C1831 1.393 . S
C1835 C1834 1.391 . S
H1836 C1844 0.950 . S
H1837 C1849 0.950 . S
H1838 C1846 0.950 . S
H1839 C1848 0.950 . S
H1840 C1850 0.950 . S
H1841 C1852 0.950 . S
H1842 C1854 0.950 . S
H1843 C1855 0.950 . S
C1844 H1836 0.950 . S
C1844 C1845 1.386 . S
C1844 C1846 1.391 . S
C1845 C1844 1.386 . S
C1845 C1849 1.393 . S
C1846 H1838 0.950 . S
C1846 C1844 1.391 . S
C1846 C1847 1.400 . S
C1847 C1846 1.400 . S
C1847 C1848 1.398 . S
C1847 C1853 1.491 . S
C1848 H1839 0.950 . S
C1848 C1847 1.398 . S
C1848 C1849 1.391 . S
C1849 H1837 0.950 . S
C1849 C1845 1.393 . S
C1849 C1848 1.391 . S
C1850 H1840 0.950 . S
C1850 C1851 1.386 . S
C1850 C1852 1.391 . S
C1851 C1850 1.386 . S
C1851 C1855 1.393 . S
C1852 H1841 0.950 . S
C1852 C1850 1.391 . S
C1852 C1853 1.400 . S
C1853 C1847 1.491 . S
C1853 C1852 1.400 . S
C1853 C1854 1.398 . S
C1854 H1842 0.950 . S
C1854 C1853 1.398 . S
C1854 C1855 1.391 . S
C1855 H1843 0.950 . S
C1855 C1851 1.393 . S
C1855 C1854 1.391 . S
H1856 C1864 0.950 . S
H1857 C1869 0.950 . S
H1858 C1866 0.950 . S
H1859 C1868 0.950 . S
H1860 C1870 0.950 . S
H1861 C1872 0.950 . S
H1862 C1874 0.950 . S
H1863 C1875 0.950 . S
C1864 H1856 0.950 . S
C1864 C1865 1.386 . S
C1864 C1866 1.391 . S
C1865 C1864 1.386 . S
C1865 C1869 1.393 . S
C1866 H1858 0.950 . S
C1866 C1864 1.391 . S
C1866 C1867 1.400 . S
C1867 C1866 1.400 . S
C1867 C1868 1.398 . S
C1867 C1873 1.491 1_554 S
C1868 H1859 0.950 . S
C1868 C1867 1.398 . S
C1868 C1869 1.391 . S
C1869 H1857 0.950 . S
C1869 C1865 1.393 . S
C1869 C1868 1.391 . S
C1870 H1860 0.950 . S
C1870 C1871 1.386 . S
C1870 C1872 1.391 . S
C1871 C1870 1.386 . S
C1871 C1875 1.393 . S
C1872 H1861 0.950 . S
C1872 C1870 1.391 . S
C1872 C1873 1.400 . S
C1873 C1867 1.491 1_556 S
C1873 C1872 1.400 . S
C1873 C1874 1.398 . S
C1874 H1862 0.950 . S
C1874 C1873 1.398 . S
C1874 C1875 1.391 . S
C1875 H1863 0.950 . S
C1875 C1871 1.393 . S
C1875 C1874 1.391 . S
H1876 C1884 0.950 . S
H1877 C1889 0.950 . S
H1878 C1886 0.950 . S
H1879 C1888 0.950 . S
H1880 C1890 0.950 . S
H1881 C1892 0.950 . S
H1882 C1894 0.950 . S
H1883 C1895 0.950 . S
C1884 H1876 0.950 . S
C1884 C1885 1.386 1_565 S
C1884 C1886 1.391 . S
C1885 C1884 1.386 1_545 S
C1885 C1889 1.393 . S
C1886 H1878 0.950 . S
C1886 C1884 1.391 . S
C1886 C1887 1.400 1_565 S
C1887 C1886 1.400 1_545 S
C1887 C1888 1.398 . S
C1887 C1893 1.491 1_545 S
C1888 H1879 0.950 . S
C1888 C1887 1.398 . S
C1888 C1889 1.391 . S
C1889 H1877 0.950 . S
C1889 C1885 1.393 . S
C1889 C1888 1.391 . S
C1890 H1880 0.950 . S
C1890 C1891 1.386 1_545 S
C1890 C1892 1.391 . S
C1891 C1890 1.386 1_565 S
C1891 C1895 1.393 . S
C1892 H1881 0.950 . S
C1892 C1890 1.391 . S
C1892 C1893 1.400 1_545 S
C1893 C1887 1.491 1_565 S
C1893 C1892 1.400 1_565 S
C1893 C1894 1.398 . S
C1894 H1882 0.950 . S
C1894 C1893 1.398 . S
C1894 C1895 1.391 . S
C1895 H1883 0.950 . S
C1895 C1891 1.393 . S
C1895 C1894 1.391 . S
H1896 C1904 0.950 . S
H1897 C1909 0.950 1_554 S
H1898 C1906 0.950 . S
H1899 C1908 0.950 1_554 S
H1900 C1910 0.950 1_554 S
H1901 C1912 0.950 1_554 S
H1902 C1914 0.950 . S
H1903 C1915 0.950 . S
C1904 H1896 0.950 . S
C1904 C1905 1.386 . S
C1904 C1906 1.391 . S
C1905 C1904 1.386 . S
C1905 C1909 1.393 . S
C1906 H1898 0.950 . S
C1906 C1904 1.391 . S
C1906 C1907 1.400 . S
C1907 C1906 1.400 . S
C1907 C1908 1.398 . S
C1907 C1913 1.491 . S
C1908 H1899 0.950 1_556 S
C1908 C1907 1.398 . S
C1908 C1909 1.391 . S
C1909 H1897 0.950 1_556 S
C1909 C1905 1.393 . S
C1909 C1908 1.391 . S
C1910 H1900 0.950 1_556 S
C1910 C1911 1.386 . S
C1910 C1912 1.391 . S
C1911 C1910 1.386 . S
C1911 C1915 1.393 . S
C1912 H1901 0.950 1_556 S
C1912 C1910 1.391 . S
C1912 C1913 1.400 . S
C1913 C1907 1.491 . S
C1913 C1912 1.400 . S
C1913 C1914 1.398 . S
C1914 H1902 0.950 . S
C1914 C1913 1.398 . S
C1914 C1915 1.391 . S
C1915 H1903 0.950 . S
C1915 C1911 1.393 . S
C1915 C1914 1.391 . S
H1916 C1924 0.950 . S
H1917 C1929 0.950 . S
H1918 C1926 0.950 . S
H1919 C1928 0.950 . S
H1920 C1930 0.950 . S
H1921 C1932 0.950 . S
H1922 C1934 0.950 . S
H1923 C1935 0.950 . S
C1924 H1916 0.950 . S
C1924 C1925 1.386 . S
C1924 C1926 1.391 . S
C1925 C1924 1.386 . S
C1925 C1929 1.393 . S
C1926 H1918 0.950 . S
C1926 C1924 1.391 . S
C1926 C1927 1.400 . S
C1927 C1926 1.400 . S
C1927 C1928 1.398 . S
C1927 C1933 1.491 . S
C1928 H1919 0.950 . S
C1928 C1927 1.398 . S
C1928 C1929 1.391 . S
C1929 H1917 0.950 . S
C1929 C1925 1.393 . S
C1929 C1928 1.391 . S
C1930 H1920 0.950 . S
C1930 C1931 1.386 . S
C1930 C1932 1.391 . S
C1931 C1930 1.386 . S
C1931 C1935 1.393 . S
C1932 H1921 0.950 . S
C1932 C1930 1.391 . S
C1932 C1933 1.400 . S
C1933 C1927 1.491 . S
C1933 C1932 1.400 . S
C1933 C1934 1.398 . S
C1934 H1922 0.950 . S
C1934 C1933 1.398 . S
C1934 C1935 1.391 . S
C1935 H1923 0.950 . S
C1935 C1931 1.393 . S
C1935 C1934 1.391 . S
H1936 C1944 0.950 . S
H1937 C1949 0.950 . S
H1938 C1946 0.950 . S
H1939 C1948 0.950 . S
H1940 C1950 0.950 . S
H1941 C1952 0.950 . S
H1942 C1954 0.950 . S
H1943 C1955 0.950 . S
C1944 H1936 0.950 . S
C1944 C1945 1.386 . S
C1944 C1946 1.391 . S
C1945 C1944 1.386 . S
C1945 C1949 1.393 1_655 S
C1946 H1938 0.950 . S
C1946 C1944 1.391 . S
C1946 C1947 1.400 . S
C1947 C1946 1.400 . S
C1947 C1948 1.398 1_655 S
C1947 C1953 1.491 1_655 S
C1948 H1939 0.950 . S
C1948 C1947 1.398 1_455 S
C1948 C1949 1.391 . S
C1949 H1937 0.950 . S
C1949 C1945 1.393 1_455 S
C1949 C1948 1.391 . S
C1950 H1940 0.950 . S
C1950 C1951 1.386 . S
C1950 C1952 1.391 . S
C1951 C1950 1.386 . S
C1951 C1955 1.393 1_455 S
C1952 H1941 0.950 . S
C1952 C1950 1.391 . S
C1952 C1953 1.400 . S
C1953 C1947 1.491 1_455 S
C1953 C1952 1.400 . S
C1953 C1954 1.398 1_455 S
C1954 H1942 0.950 . S
C1954 C1953 1.398 1_655 S
C1954 C1955 1.391 . S
C1955 H1943 0.950 . S
C1955 C1951 1.393 1_655 S
C1955 C1954 1.391 . S
H1956 C1964 0.950 . S
H1957 C1969 0.950 . S
H1958 C1966 0.950 . S
H1959 C1968 0.950 . S
H1960 C1970 0.950 . S
H1961 C1972 0.950 . S
H1962 C1974 0.950 . S
H1963 C1975 0.950 . S
C1964 H1956 0.950 . S
C1964 C1965 1.386 . S
C1964 C1966 1.391 . S
C1965 C1964 1.386 . S
C1965 C1969 1.393 . S
C1966 H1958 0.950 . S
C1966 C1964 1.391 . S
C1966 C1967 1.400 . S
C1967 C1966 1.400 . S
C1967 C1968 1.398 . S
C1967 C1973 1.491 . S
C1968 H1959 0.950 . S
C1968 C1967 1.398 . S
C1968 C1969 1.391 . S
C1969 H1957 0.950 . S
C1969 C1965 1.393 . S
C1969 C1968 1.391 . S
C1970 H1960 0.950 . S
C1970 C1971 1.386 . S
C1970 C1972 1.391 . S
C1971 C1970 1.386 . S
C1971 C1975 1.393 . S
C1972 H1961 0.950 . S
C1972 C1970 1.391 . S
C1972 C1973 1.400 . S
C1973 C1967 1.491 . S
C1973 C1972 1.400 . S
C1973 C1974 1.398 . S
C1974 H1962 0.950 . S
C1974 C1973 1.398 . S
C1974 C1975 1.391 . S
C1975 H1963 0.950 . S
C1975 C1971 1.393 . S
C1975 C1974 1.391 . S
H1976 C1984 0.950 . S
H1977 C1989 0.950 . S
H1978 C1986 0.950 . S
H1979 C1988 0.950 . S
H1980 C1990 0.950 . S
H1981 C1992 0.950 . S
H1982 C1994 0.950 . S
H1983 C1995 0.950 . S
C1984 H1976 0.950 . S
C1984 C1985 1.386 . S
C1984 C1986 1.391 . S
C1985 C1984 1.386 . S
C1985 C1989 1.393 . S
C1986 H1978 0.950 . S
C1986 C1984 1.391 . S
C1986 C1987 1.400 . S
C1987 C1986 1.400 . S
C1987 C1988 1.398 . S
C1987 C1993 1.491 1_655 S
C1988 H1979 0.950 . S
C1988 C1987 1.398 . S
C1988 C1989 1.391 . S
C1989 H1977 0.950 . S
C1989 C1985 1.393 . S
C1989 C1988 1.391 . S
C1990 H1980 0.950 . S
C1990 C1991 1.386 . S
C1990 C1992 1.391 . S
C1991 C1990 1.386 . S
C1991 C1995 1.393 . S
C1992 H1981 0.950 . S
C1992 C1990 1.391 . S
C1992 C1993 1.400 . S
C1993 C1987 1.491 1_455 S
C1993 C1992 1.400 . S
C1993 C1994 1.398 . S
C1994 H1982 0.950 . S
C1994 C1993 1.398 . S
C1994 C1995 1.391 . S
C1995 H1983 0.950 . S
C1995 C1991 1.393 . S
C1995 C1994 1.391 . S
H1996 C2004 0.950 1_655 S
H1997 C2009 0.950 . S
H1998 C2006 0.950 . S
H1999 C2008 0.950 . S
H2000 C2010 0.950 1_455 S
H2001 C2012 0.950 . S
H2002 C2014 0.950 . S
H2003 C2015 0.950 . S
C2004 H1996 0.950 1_455 S
C2004 C2005 1.386 . S
C2004 C2006 1.391 1_455 S
C2005 C2004 1.386 . S
C2005 C2009 1.393 . S
C2006 H1998 0.950 . S
C2006 C2004 1.391 1_655 S
C2006 C2007 1.400 1_655 S
C2007 C2006 1.400 1_455 S
C2007 C2008 1.398 . S
C2007 C2013 1.491 1_455 S
C2008 H1999 0.950 . S
C2008 C2007 1.398 . S
C2008 C2009 1.391 . S
C2009 H1997 0.950 . S
C2009 C2005 1.393 . S
C2009 C2008 1.391 . S
C2010 H2000 0.950 1_655 S
C2010 C2011 1.386 . S
C2010 C2012 1.391 1_655 S
C2011 C2010 1.386 . S
C2011 C2015 1.393 . S
C2012 H2001 0.950 . S
C2012 C2010 1.391 1_455 S
C2012 C2013 1.400 1_455 S
C2013 C2007 1.491 1_655 S
C2013 C2012 1.400 1_655 S
C2013 C2014 1.398 . S
C2014 H2002 0.950 . S
C2014 C2013 1.398 . S
C2014 C2015 1.391 . S
C2015 H2003 0.950 . S
C2015 C2011 1.393 . S
C2015 C2014 1.391 . S
H2016 C2024 0.950 . S
H2017 C2029 0.950 . S
H2018 C2026 0.950 . S
H2019 C2028 0.950 . S
H2020 C2030 0.950 . S
H2021 C2032 0.950 . S
H2022 C2034 0.950 . S
H2023 C2035 0.950 . S
C2024 H2016 0.950 . S
C2024 C2025 1.386 . S
C2024 C2026 1.391 . S
C2025 C2024 1.386 . S
C2025 C2029 1.393 . S
C2026 H2018 0.950 . S
C2026 C2024 1.391 . S
C2026 C2027 1.400 . S
C2027 C2026 1.400 . S
C2027 C2028 1.398 . S
C2027 C2033 1.491 1_545 S
C2028 H2019 0.950 . S
C2028 C2027 1.398 . S
C2028 C2029 1.391 . S
C2029 H2017 0.950 . S
C2029 C2025 1.393 . S
C2029 C2028 1.391 . S
C2030 H2020 0.950 . S
C2030 C2031 1.386 . S
C2030 C2032 1.391 . S
C2031 C2030 1.386 . S
C2031 C2035 1.393 . S
C2032 H2021 0.950 . S
C2032 C2030 1.391 . S
C2032 C2033 1.400 . S
C2033 C2027 1.491 1_565 S
C2033 C2032 1.400 . S
C2033 C2034 1.398 . S
C2034 H2022 0.950 . S
C2034 C2033 1.398 . S
C2034 C2035 1.391 . S
C2035 H2023 0.950 . S
C2035 C2031 1.393 . S
C2035 C2034 1.391 . S
H2036 C2044 0.950 . S
H2037 C2049 0.950 . S
H2038 C2046 0.950 . S
H2039 C2048 0.950 . S
H2040 C2050 0.950 . S
H2041 C2052 0.950 . S
H2042 C2054 0.950 . S
H2043 C2055 0.950 . S
C2044 H2036 0.950 . S
C2044 C2045 1.386 . S
C2044 C2046 1.391 . S
C2045 C2044 1.386 . S
C2045 C2049 1.393 . S
C2046 H2038 0.950 . S
C2046 C2044 1.391 . S
C2046 C2047 1.400 . S
C2047 C2046 1.400 . S
C2047 C2048 1.398 . S
C2047 C2053 1.491 . S
C2048 H2039 0.950 . S
C2048 C2047 1.398 . S
C2048 C2049 1.391 . S
C2049 H2037 0.950 . S
C2049 C2045 1.393 . S
C2049 C2048 1.391 . S
C2050 H2040 0.950 . S
C2050 C2051 1.386 . S
C2050 C2052 1.391 . S
C2051 C2050 1.386 . S
C2051 C2055 1.393 . S
C2052 H2041 0.950 . S
C2052 C2050 1.391 . S
C2052 C2053 1.400 . S
C2053 C2047 1.491 . S
C2053 C2052 1.400 . S
C2053 C2054 1.398 . S
C2054 H2042 0.950 . S
C2054 C2053 1.398 . S
C2054 C2055 1.391 . S
C2055 H2043 0.950 . S
C2055 C2051 1.393 . S
C2055 C2054 1.391 . S
H2056 C2064 0.950 . S
H2057 C2069 0.950 . S
H2058 C2066 0.950 . S
H2059 C2068 0.950 . S
H2060 C2070 0.950 . S
H2061 C2072 0.950 . S
H2062 C2074 0.950 . S
H2063 C2075 0.950 . S
C2064 H2056 0.950 . S
C2064 C2065 1.386 . S
C2064 C2066 1.391 . S
C2065 C2064 1.386 . S
C2065 C2069 1.393 . S
C2066 H2058 0.950 . S
C2066 C2064 1.391 . S
C2066 C2067 1.400 . S
C2067 C2066 1.400 . S
C2067 C2068 1.398 . S
C2067 C2073 1.491 . S
C2068 H2059 0.950 . S
C2068 C2067 1.398 . S
C2068 C2069 1.391 . S
C2069 H2057 0.950 . S
C2069 C2065 1.393 . S
C2069 C2068 1.391 . S
C2070 H2060 0.950 . S
C2070 C2071 1.386 . S
C2070 C2072 1.391 . S
C2071 C2070 1.386 . S
C2071 C2075 1.393 . S
C2072 H2061 0.950 . S
C2072 C2070 1.391 . S
C2072 C2073 1.400 . S
C2073 C2067 1.491 . S
C2073 C2072 1.400 . S
C2073 C2074 1.398 . S
C2074 H2062 0.950 . S
C2074 C2073 1.398 . S
C2074 C2075 1.391 . S
C2075 H2063 0.950 . S
C2075 C2071 1.393 . S
C2075 C2074 1.391 . S
H2076 C2084 0.950 . S
H2077 C2089 0.950 . S
H2078 C2086 0.950 . S
H2079 C2088 0.950 . S
H2080 C2090 0.950 . S
H2081 C2092 0.950 . S
H2082 C2094 0.950 . S
H2083 C2095 0.950 . S
C2084 H2076 0.950 . S
C2084 C2085 1.386 . S
C2084 C2086 1.391 . S
C2085 C2084 1.386 . S
C2085 C2089 1.393 . S
C2086 H2078 0.950 . S
C2086 C2084 1.391 . S
C2086 C2087 1.400 . S
C2087 C2086 1.400 . S
C2087 C2088 1.398 . S
C2087 C2093 1.491 . S
C2088 H2079 0.950 . S
C2088 C2087 1.398 . S
C2088 C2089 1.391 . S
C2089 H2077 0.950 . S
C2089 C2085 1.393 . S
C2089 C2088 1.391 . S
C2090 H2080 0.950 . S
C2090 C2091 1.386 . S
C2090 C2092 1.391 . S
C2091 C2090 1.386 . S
C2091 C2095 1.393 . S
C2092 H2081 0.950 . S
C2092 C2090 1.391 . S
C2092 C2093 1.400 . S
C2093 C2087 1.491 . S
C2093 C2092 1.400 . S
C2093 C2094 1.398 . S
C2094 H2082 0.950 . S
C2094 C2093 1.398 . S
C2094 C2095 1.391 . S
C2095 H2083 0.950 . S
C2095 C2091 1.393 . S
C2095 C2094 1.391 . S
H2096 C2104 0.950 . S
H2097 C2109 0.950 . S
H2098 C2106 0.950 . S
H2099 C2108 0.950 . S
H2100 C2110 0.950 . S
H2101 C2112 0.950 . S
H2102 C2114 0.950 . S
H2103 C2115 0.950 . S
C2104 H2096 0.950 . S
C2104 C2105 1.386 . S
C2104 C2106 1.391 . S
C2105 C2104 1.386 . S
C2105 C2109 1.393 . S
C2106 H2098 0.950 . S
C2106 C2104 1.391 . S
C2106 C2107 1.400 . S
C2107 C2106 1.400 . S
C2107 C2108 1.398 . S
C2107 C2113 1.491 1_455 S
C2108 H2099 0.950 . S
C2108 C2107 1.398 . S
C2108 C2109 1.391 . S
C2109 H2097 0.950 . S
C2109 C2105 1.393 . S
C2109 C2108 1.391 . S
C2110 H2100 0.950 . S
C2110 C2111 1.386 . S
C2110 C2112 1.391 . S
C2111 C2110 1.386 . S
C2111 C2115 1.393 . S
C2112 H2101 0.950 . S
C2112 C2110 1.391 . S
C2112 C2113 1.400 . S
C2113 C2107 1.491 1_655 S
C2113 C2112 1.400 . S
C2113 C2114 1.398 . S
C2114 H2102 0.950 . S
C2114 C2113 1.398 . S
C2114 C2115 1.391 . S
C2115 H2103 0.950 . S
C2115 C2111 1.393 . S
C2115 C2114 1.391 . S
H2116 C2124 0.950 . S
H2117 C2129 0.950 . S
H2118 C2126 0.950 . S
H2119 C2128 0.950 . S
H2120 C2130 0.950 . S
H2121 C2132 0.950 . S
H2122 C2134 0.950 . S
H2123 C2135 0.950 . S
C2124 H2116 0.950 . S
C2124 C2125 1.386 . S
C2124 C2126 1.391 . S
C2125 C2124 1.386 . S
C2125 C2129 1.393 . S
C2126 H2118 0.950 . S
C2126 C2124 1.391 . S
C2126 C2127 1.400 . S
C2127 C2126 1.400 . S
C2127 C2128 1.398 . S
C2127 C2133 1.491 . S
C2128 H2119 0.950 . S
C2128 C2127 1.398 . S
C2128 C2129 1.391 . S
C2129 H2117 0.950 . S
C2129 C2125 1.393 . S
C2129 C2128 1.391 . S
C2130 H2120 0.950 . S
C2130 C2131 1.386 . S
C2130 C2132 1.391 . S
C2131 C2130 1.386 . S
C2131 C2135 1.393 . S
C2132 H2121 0.950 . S
C2132 C2130 1.391 . S
C2132 C2133 1.400 . S
C2133 C2127 1.491 . S
C2133 C2132 1.400 . S
C2133 C2134 1.398 . S
C2134 H2122 0.950 . S
C2134 C2133 1.398 . S
C2134 C2135 1.391 . S
C2135 H2123 0.950 . S
C2135 C2131 1.393 . S
C2135 C2134 1.391 . S
C705 C283 0.863 . S
C711 C48 0.862 . S
C725 C343 0.860 . S
C731 C112 0.866 . S
C745 C47 0.828 . S
C751 C399 0.830 . S
C765 C231 0.824 . S
C771 C114 0.825 . S
C785 C456 0.839 . S
C791 C172 0.849 . S
C805 C164 0.863 . S
C811 C520 0.866 . S
C825 C170 0.823 . S
C831 C572 0.820 . S
C845 C632 0.866 . S
C851 C163 0.869 . S
C865 C50 0.848 . S
C871 C225 0.853 . S
C885 C110 0.845 . S
C891 C286 0.857 . S
C905 C344 0.865 . S
C911 C51 0.861 . S
C925 C111 0.843 . S
C931 C396 0.855 . S
C945 C167 0.831 . S
C951 C226 0.827 . S
C965 C288 0.859 . S
C971 C169 0.846 . S
C985 C346 0.822 . S
C991 C166 0.822 . S
C1005 C395 0.829 . S
C1011 C168 0.836 . S
C1025 C279 0.827 . S
C1031 C229 0.826 . S
C1045 C460 0.867 . S
C1051 C228 0.868 . S
C1065 C510 0.866 . S
C1071 C285 0.869 . S
C1085 C341 0.819 . S
C1091 C570 0.822 . S
C1105 C458 0.827 . S
C1111 C337 0.825 . S
C1125 C630 0.862 . S
C1131 C462 0.869 . S
C1145 C512 0.840 . S
C1151 C459 0.847 . S
C1165 C628 0.833 . S
C1171 C574 0.839 . S
C1185 C573 0.861 . S
C1191 C106 0.866 . S
C1205 C54 0.865 . S
C1211 C633 0.864 . S
C1225 C105 0.867 . S
C1231 C457 0.865 . S
C1245 C56 0.853 . S
C1251 C521 0.842 . S
C1265 C398 0.840 . S
C1271 C694 0.836 . S
C1285 C686 0.866 . S
C1291 C230 0.858 . S
C1305 C282 0.824 . S
C1311 C692 0.826 . S
C1325 C342 0.843 . S
C1331 C685 0.836 . S
C1345 C515 0.845 . S
C1351 C108 0.833 . S
C1365 C52 0.840 . S
C1371 C576 0.854 . S
C1385 C634 0.835 . S
C1391 C109 0.826 . S
C1405 C454 0.826 . S
C1411 C53 0.816 . S
C1425 C689 0.827 . S
C1431 C516 0.825 . S
C1445 C691 0.864 . S
C1451 C578 0.859 . S
C1465 C636 0.828 . S
C1471 C688 0.817 . S
C1485 C453 0.853 . S
C1491 C690 0.860 . S
C1505 C569 0.843 . S
C1511 C519 0.831 . S
C1525 C402 0.824 . S
C1531 C518 0.828 . S
C1545 C220 0.823 . S
C1551 C575 0.825 . S
C1565 C631 0.822 . S
C1571 C280 0.833 . S
C1585 C400 0.856 . S
C1591 C627 0.851 . S
C1605 C340 0.857 . S
C1611 C404 0.847 . S
C1625 C401 0.854 . S
C1631 C222 0.859 . S
C1645 C338 0.833 . S
C1651 C284 0.837 . S
C1665 C162 2.688 . S
C1671 C55 2.687 . S
C1685 C104 2.689 . S
C1691 C173 2.696 . S
C1705 C57 2.687 . S
C1711 C165 2.687 . S
C1725 C107 2.697 . S
C1731 C171 2.690 . S
C1745 C223 2.704 . S
C1751 C626 2.703 . S
C1765 C278 2.689 . S
C1771 C461 2.696 . S
C1785 C511 2.691 . S
C1791 C339 2.695 . S
C1805 C405 2.701 . S
C1811 C571 2.706 . S
C1825 C221 2.693 . S
C1831 C629 2.690 . S
C1845 C463 2.702 . S
C1851 C281 2.696 . S
C1865 C336 2.687 . S
C1871 C513 2.687 . S
C1885 C403 2.687 . S
C1891 C568 2.686 . S
C1905 C394 2.692 . S
C1911 C289 2.689 . S
C1925 C577 2.701 . S
C1931 C455 2.703 . S
C1945 C514 2.704 . S
C1951 C635 2.699 . S
C1965 C345 2.702 . S
C1971 C224 2.702 . S
C1985 C579 2.697 . S
C1991 C452 2.694 . S
C2005 C637 2.702 . S
C2011 C517 2.707 . S
C2025 C684 2.699 . S
C2031 C113 2.696 . S
C2045 C46 2.689 . S
C2051 C695 2.688 . S
C2065 C115 2.699 . S
C2071 C687 2.695 . S
C2085 C693 2.689 . S
C2091 C49 2.691 . S
C2105 C287 2.693 . S
C2111 C397 2.697 . S
C2125 C227 2.688 . S
C2131 C347 2.683 . S
