# Generated by pormake.
# Topology rac, (4)-cn, num edge types: 1
# Building blocks:
#     Node 0, Type 0, BuildingBlock: QUQFOY_clean_sbu_1, # of connection points: 4
#     Node 1, Type 0, BuildingBlock: QUQFOY_clean_sbu_1, # of connection points: 4
#     Node 2, Type 0, BuildingBlock: QUQFOY_clean_sbu_1, # of connection points: 4
#     Node 3, Type 0, BuildingBlock: QUQFOY_clean_sbu_1, # of connection points: 4
#     Node 4, Type 0, BuildingBlock: QUQFOY_clean_sbu_1, # of connection points: 4
#     Node 5, Type 0, BuildingBlock: QUQFOY_clean_sbu_1, # of connection points: 4
#     Node 6, Type 0, BuildingBlock: QUQFOY_clean_sbu_1, # of connection points: 4
#     Node 7, Type 0, BuildingBlock: QUQFOY_clean_sbu_1, # of connection points: 4
#     Edge 8, Type (0, 0), BuildingBlock: OJICUG_clean_linker_0, # of connection points: 2
#     Edge 9, Type (0, 0), BuildingBlock: OJICUG_clean_linker_0, # of connection points: 2
#     Edge 10, Type (0, 0), BuildingBlock: OJICUG_clean_linker_0, # of connection points: 2
#     Edge 11, Type (0, 0), BuildingBlock: OJICUG_clean_linker_0, # of connection points: 2
#     Edge 12, Type (0, 0), BuildingBlock: OJICUG_clean_linker_0, # of connection points: 2
#     Edge 13, Type (0, 0), BuildingBlock: OJICUG_clean_linker_0, # of connection points: 2
#     Edge 14, Type (0, 0), BuildingBlock: OJICUG_clean_linker_0, # of connection points: 2
#     Edge 15, Type (0, 0), BuildingBlock: OJICUG_clean_linker_0, # of connection points: 2
#     Edge 16, Type (0, 0), BuildingBlock: OJICUG_clean_linker_0, # of connection points: 2
#     Edge 17, Type (0, 0), BuildingBlock: OJICUG_clean_linker_0, # of connection points: 2
#     Edge 18, Type (0, 0), BuildingBlock: OJICUG_clean_linker_0, # of connection points: 2
#     Edge 19, Type (0, 0), BuildingBlock: OJICUG_clean_linker_0, # of connection points: 2
#     Edge 20, Type (0, 0), BuildingBlock: OJICUG_clean_linker_0, # of connection points: 2
#     Edge 21, Type (0, 0), BuildingBlock: OJICUG_clean_linker_0, # of connection points: 2
#     Edge 22, Type (0, 0), BuildingBlock: OJICUG_clean_linker_0, # of connection points: 2
#     Edge 23, Type (0, 0), BuildingBlock: OJICUG_clean_linker_0, # of connection points: 2
# Relax obj value: 0.256
# Max RMSD: 0.153
# Mean RMSD: 0.153
data_MOF--net-rac--node1-QUQFOY_clean_sbu_1--edge1-OJICUG_clean_linker_0
_symmetry_space_group_name_H-M    P1
_symmetry_Int_Tables_number       1
_symmetry_cell_setting            triclinic
loop_
_symmetry_equiv_pos_as_xyz
'x, y, z'
_cell_length_a     26.522097
_cell_length_b     16.621535
_cell_length_c     35.258454
_cell_angle_alpha  90.024176
_cell_angle_beta   90.296659
_cell_angle_gamma 89.965465
loop_
_atom_site_label
_atom_site_type_symbol
_atom_site_fract_x
_atom_site_fract_y
_atom_site_fract_z
_atom_type_partial_charge
O0 O 0.42816 0.27294 0.03809 0.0
Cd1 Cd 0.48718 0.20073 0.02912 0.0
Cd2 Cd 0.48135 0.19419 0.1081 0.0
O3 O 0.46074 0.30866 0.09304 0.0
O4 O 0.52523 0.25804 0.98842 0.0
O5 O 0.54966 0.25441 0.04882 0.0
C6 C 0.5535 0.28659 0.01541 0.0
C7 C 0.48897 0.18755 0.17497 0.0
C8 C 0.43104 0.32177 0.06546 0.0
C9 C 0.43296 0.06326 0.05476 0.0
O10 O 0.43803 0.10163 0.08583 0.0
O11 O 0.45918 0.08352 0.02599 0.0
O12 O 0.44667 0.19712 0.15789 0.0
O13 O 0.52841 0.17945 0.15412 0.0
O14 O 0.28445 0.62156 0.03766 0.0
Cd15 Cd 0.22137 0.68566 0.03059 0.0
Cd16 Cd 0.23019 0.69838 0.10936 0.0
O17 O 0.263 0.59049 0.0961 0.0
O18 O 0.18295 0.62465 0.9909 0.0
O19 O 0.16238 0.62547 0.05191 0.0
C20 C 0.15714 0.59378 0.01846 0.0
C21 C 0.21993 0.7062 0.17596 0.0
C22 C 0.28967 0.57849 0.0669 0.0
C23 C 0.26677 0.83442 0.0546 0.0
O24 O 0.26452 0.79883 0.08652 0.0
O25 O 0.24311 0.80584 0.02597 0.0
O26 O 0.26313 0.70749 0.15993 0.0
O27 O 0.18087 0.70255 0.15416 0.0
O28 O 0.42464 0.1195 0.47822 0.0
Cd29 Cd 0.48684 0.18602 0.48445 0.0
Cd30 Cd 0.47812 0.19362 0.40583 0.0
O31 O 0.44869 0.08443 0.42087 0.0
O32 O 0.52673 0.12718 0.52399 0.0
O33 O 0.54593 0.12688 0.46269 0.0
C34 C 0.55204 0.09598 0.49621 0.0
C35 C 0.48751 0.19761 0.33909 0.0
C36 C 0.42134 0.07355 0.4498 0.0
C37 C 0.43873 0.33104 0.45869 0.0
O38 O 0.44127 0.29325 0.42734 0.0
O39 O 0.46353 0.30579 0.48749 0.0
O40 O 0.44447 0.19631 0.35536 0.0
O41 O 0.52683 0.19885 0.3607 0.0
O42 O 0.28011 0.77021 0.47838 0.0
Cd43 Cd 0.22007 0.69948 0.48583 0.0
Cd44 Cd 0.22637 0.69524 0.40693 0.0
O45 O 0.24877 0.80799 0.42334 0.0
O46 O 0.18079 0.75644 0.526 0.0
O47 O 0.15883 0.755 0.46505 0.0
C48 C 0.15385 0.7863 0.49857 0.0
C49 C 0.21849 0.69328 0.34 0.0
C50 C 0.27839 0.81939 0.45114 0.0
C51 C 0.27242 0.56045 0.45893 0.0
O52 O 0.26816 0.59977 0.42807 0.0
O53 O 0.24661 0.58131 0.48783 0.0
O54 O 0.26094 0.7004 0.35714 0.0
O55 O 0.17906 0.6845 0.3608 0.0
O56 O 0.78309 0.61718 0.97662 0.0
Cd57 Cd 0.7214 0.68439 0.98372 0.0
Cd58 Cd 0.72877 0.69256 0.90495 0.0
O59 O 0.75667 0.58195 0.91972 0.0
O60 O 0.68276 0.6252 0.02352 0.0
O61 O 0.66131 0.6262 0.96249 0.0
C62 C 0.65636 0.59471 0.99596 0.0
C63 C 0.71968 0.69831 0.83814 0.0
C64 C 0.78491 0.57067 0.94834 0.0
C65 C 0.77022 0.82832 0.95846 0.0
O66 O 0.76688 0.79063 0.9271 0.0
O67 O 0.74548 0.80371 0.98721 0.0
O68 O 0.76262 0.69515 0.85483 0.0
O69 O 0.6803 0.70039 0.85937 0.0
O70 O 0.92756 0.26811 0.97737 0.0
Cd71 Cd 0.98803 0.1983 0.98544 0.0
Cd72 Cd 0.98112 0.19157 0.90639 0.0
O73 O 0.95644 0.30383 0.92147 0.0
O74 O 1.02705 0.25606 0.02582 0.0
O75 O 1.04911 0.2542 0.96508 0.0
C76 C 1.05407 0.28567 0.9986 0.0
C77 C 0.98927 0.1863 0.83956 0.0
C78 C 0.92764 0.31575 0.9495 0.0
C79 C 0.93673 0.0573 0.9592 0.0
O80 O 0.94078 0.09556 0.92807 0.0
O81 O 0.96211 0.07987 0.98821 0.0
O82 O 0.94663 0.19208 0.85622 0.0
O83 O 1.0288 0.18121 0.86082 0.0
O84 O 0.781 0.76811 0.53603 0.0
Cd85 Cd 0.72024 0.69894 0.52821 0.0
Cd86 Cd 0.72716 0.69257 0.60718 0.0
O87 O 0.7523 0.80439 0.59193 0.0
O88 O 0.681 0.75704 0.48807 0.0
O89 O 0.6596 0.75551 0.54896 0.0
C90 C 0.65442 0.78702 0.51547 0.0
C91 C 0.71893 0.68797 0.674 0.0
C92 C 0.78111 0.81586 0.56388 0.0
C93 C 0.77097 0.55747 0.55457 0.0
O94 O 0.76712 0.59592 0.58567 0.0
O95 O 0.74569 0.58023 0.52555 0.0
O96 O 0.76159 0.69326 0.65736 0.0
O97 O 0.6794 0.68299 0.65273 0.0
O98 O 0.92517 0.1175 0.5368 0.0
Cd99 Cd 0.98673 0.18498 0.52982 0.0
Cd100 Cd 0.97945 0.1924 0.60859 0.0
O101 O 0.95217 0.08166 0.59345 0.0
O102 O 1.02564 0.12602 0.49006 0.0
O103 O 1.04675 0.12688 0.55117 0.0
C104 C 1.05187 0.09543 0.5177 0.0
C105 C 0.98845 0.19728 0.67543 0.0
C106 C 0.92377 0.07055 0.56491 0.0
C107 C 0.93753 0.32834 0.55542 0.0
O108 O 0.94091 0.29034 0.58669 0.0
O109 O 0.96246 0.30424 0.52665 0.0
O110 O 0.94553 0.19389 0.65871 0.0
O111 O 1.02783 0.20018 0.65423 0.0
C112 C 0.36244 -0.01114 0.08556 0.0
C113 C 0.39068 0.00357 0.05254 0.0
H114 H 0.3006 0.92886 0.11139 0.0
C115 C 0.37432 -0.03261 0.01842 0.0
H116 H 0.37284 0.01588 0.11244 0.0
C117 C 0.33167 0.91617 0.0179 0.0
C118 C 0.30442 0.90086 0.05142 0.0
H119 H 0.39447 -0.02169 0.9923 0.0
H120 H 0.32124 0.88635 0.9917 0.0
C121 C 0.32017 0.93924 0.08493 0.0
C122 C 0.33303 0.46808 0.49525 0.0
C123 C 0.31354 0.49874 0.46085 0.0
H124 H 0.38891 0.39213 0.52208 0.0
C125 C 0.33826 0.47772 0.42703 0.0
H126 H 0.31563 0.48405 0.52193 0.0
C127 C 0.38059 0.42811 0.42725 0.0
C128 C 0.39989 0.39605 0.46123 0.0
H129 H 0.32516 0.50021 0.39987 0.0
H130 H 0.3976 0.41332 0.40025 0.0
C131 C 0.37574 0.41695 0.49543 0.0
C132 C 0.83282 0.91571 0.99543 0.0
C133 C 0.80968 0.89243 0.961 0.0
H134 H 0.892 -0.01506 0.02234 0.0
C135 C 0.83021 0.92175 0.92701 0.0
H136 H 0.81869 0.89313 0.02215 0.0
C137 C 0.87258 -0.02887 0.92706 0.0
C138 C 0.8961 -0.00511 0.96113 0.0
H139 H 0.81405 0.90519 0.89982 0.0
H140 H 0.88655 -0.00845 0.89989 0.0
C141 C 0.87555 -0.03322 0.99551 0.0
C142 C 0.83415 0.46967 0.58679 0.0
C143 C 0.81135 0.49463 0.55265 0.0
H144 H 0.89218 0.40285 0.61417 0.0
C145 C 0.83256 0.46756 0.5183 0.0
H146 H 0.81962 0.48927 0.61393 0.0
C147 C 0.87532 0.41648 0.51845 0.0
C148 C 0.89782 0.39215 0.55296 0.0
H149 H 0.81667 0.48668 0.49142 0.0
H150 H 0.89003 0.39485 0.49173 0.0
C151 C 0.87655 0.42027 0.58693 0.0
C152 C 0.53635 0.18714 0.23756 0.0
C153 C 0.49074 0.18823 0.21698 0.0
H154 H 0.57152 0.18985 0.29276 0.0
C155 C 0.44515 0.19275 0.23693 0.0
H156 H 0.5721 0.184 0.22292 0.0
C157 C 0.44483 0.19642 0.27629 0.0
C158 C 0.49009 0.19566 0.29713 0.0
H159 H 0.40924 0.19373 0.22216 0.0
H160 H 0.40867 0.19979 0.29036 0.0
C161 C 0.53603 0.1909 0.27744 0.0
C162 C 0.26149 0.71147 0.27825 0.0
C163 C 0.21654 0.69737 0.29803 0.0
H164 H 0.29742 0.72627 0.22496 0.0
C165 C 0.17135 0.68877 0.27731 0.0
H166 H 0.29701 0.71905 0.29314 0.0
C167 C 0.17159 0.6931 0.23745 0.0
C168 C 0.21702 0.70615 0.21791 0.0
H169 H 0.13607 0.67824 0.29181 0.0
H170 H 0.13656 0.68516 0.22199 0.0
C171 C 0.26172 0.71586 0.23891 0.0
C172 C 0.67138 0.69326 0.77598 0.0
C173 C 0.71726 0.69723 0.79615 0.0
H174 H 0.63553 0.6867 0.72109 0.0
C175 C 0.7626 0.69765 0.77577 0.0
H176 H 0.63582 0.69255 0.79094 0.0
C177 C 0.76244 0.69395 0.73642 0.0
C178 C 0.71694 0.68977 0.71599 0.0
H179 H 0.79871 0.70059 0.79021 0.0
H180 H 0.79843 0.69447 0.72203 0.0
C181 C 0.67122 0.68954 0.7361 0.0
C182 C 0.94551 0.19459 0.73779 0.0
C183 C 0.99086 0.19562 0.71742 0.0
H184 H 0.9097 0.1902 0.79153 0.0
C185 C 1.03676 0.19266 0.73759 0.0
H186 H 0.90937 0.19663 0.72334 0.0
C187 C 1.03695 0.18873 0.77747 0.0
C188 C 0.99124 0.18777 0.79758 0.0
H189 H 1.07233 0.19304 0.72264 0.0
H190 H 1.07266 0.18685 0.79248 0.0
C191 C 0.94569 0.19071 0.77714 0.0
C192 C 0.60595 0.40175 0.04076 0.0
C193 C 0.58282 0.36266 0.00977 0.0
H194 H 0.64589 0.50554 0.06108 0.0
C195 C 0.58242 0.40253 0.97451 0.0
H196 H 0.60638 0.37389 0.06852 0.0
C197 C 0.60453 0.47891 0.97035 0.0
C198 C 0.62753 0.51807 1.00137 0.0
H199 H 0.5644 0.37519 0.95008 0.0
H200 H 0.60404 0.50687 0.94261 0.0
C201 C 0.62797 0.47816 0.03662 0.0
C202 C 0.10609 0.47747 0.04398 0.0
C203 C 0.12841 0.51701 0.01298 0.0
H204 H 1.06641 0.37352 0.06413 0.0
C205 C 0.12803 0.47756 0.9776 0.0
H206 H 0.10621 0.5051 0.07181 0.0
C207 C 0.10586 0.40124 0.97332 0.0
C208 C 1.08343 0.36178 1.00429 0.0
H209 H 0.14539 0.50527 0.95314 0.0
H210 H 0.10566 0.37373 0.94547 0.0
C211 C 1.08387 0.40116 0.03969 0.0
C212 C 0.62442 0.90261 0.47454 0.0
C213 C 0.62535 0.86351 0.50999 0.0
H214 H 0.60185 0.00649 0.4425 0.0
C215 C 0.60372 0.90354 0.54115 0.0
H216 H 0.64127 0.87451 0.44996 0.0
C217 C 0.58181 -0.0199 0.537 0.0
C218 C 0.58087 0.01922 0.50156 0.0
H219 H 0.60434 0.87626 0.56904 0.0
H220 H 0.56501 0.00822 0.5616 0.0
C221 C 0.60244 -0.02085 0.47037 0.0
C222 C 1.08084 -0.02078 0.47697 0.0
C223 C 1.08058 0.01861 0.51236 0.0
H224 H 1.10276 0.87511 0.445 0.0
C225 C 1.10266 -0.02128 0.54354 0.0
H226 H 1.06363 0.00719 0.45237 0.0
C227 C 0.12448 0.90209 0.53943 0.0
C228 C 0.12478 0.86273 0.50403 0.0
H229 H 1.10257 0.00626 0.57139 0.0
H230 H 0.14175 0.87416 0.56402 0.0
C231 C 1.10263 0.90259 0.47286 0.0
C232 C 0.34658 0.485 0.10105 0.0
C233 C 0.3269 0.51438 0.06678 0.0
H234 H 0.39659 0.40082 0.12737 0.0
C235 C 0.34352 0.48294 0.03215 0.0
H236 H 0.33449 0.50927 0.12805 0.0
C237 C 0.37854 0.42114 0.03178 0.0
C238 C 0.39777 0.39103 0.06601 0.0
H239 H 0.32879 0.50498 1.00537 0.0
H240 H 0.39026 0.39649 1.00476 0.0
C241 C 0.3823 0.42391 0.10066 0.0
C242 C 0.36511 -0.02062 0.41578 0.0
C243 C 0.38472 0.00877 0.45006 0.0
H244 H 0.31448 0.89642 0.38941 0.0
C245 C 0.36796 -0.02235 0.48469 0.0
H246 H 0.37732 0.00344 0.38878 0.0
C247 C 0.3325 0.91647 0.48504 0.0
C248 C 0.31295 0.88696 0.45078 0.0
H249 H 0.38273 -0.0002 0.51144 0.0
H250 H 0.32045 0.8922 0.51204 0.0
C251 C 0.32894 0.91914 0.41615 0.0
C252 C 0.83877 0.47449 0.98304 0.0
C253 C 0.82094 0.50496 0.94844 0.0
H254 H 0.88719 0.38976 0.01034 0.0
C255 C 0.83919 0.47439 0.9141 0.0
H256 H 0.82504 0.49749 0.00984 0.0
C257 C 0.87531 0.41393 0.9144 0.0
C258 C 0.89259 0.38277 0.94904 0.0
H259 H 0.82611 0.49789 0.88713 0.0
H260 H 0.88887 0.39048 0.88765 0.0
C261 C 0.87417 0.41319 0.98333 0.0
C262 C 0.83372 0.91368 0.59889 0.0
C263 C 0.81632 0.88259 0.56428 0.0
H264 H 0.88294 -0.0024 0.62612 0.0
C265 C 0.83466 0.91292 0.52996 0.0
H266 H 0.82022 0.89028 0.62566 0.0
C267 C 0.87003 -0.02579 0.53021 0.0
C268 C 0.88792 0.00468 0.5648 0.0
H269 H 0.82155 0.88952 0.50296 0.0
H270 H 0.88367 -0.00275 0.50341 0.0
C271 C 0.86981 -0.02592 0.59916 0.0
loop_
_geom_bond_atom_site_label_1
_geom_bond_atom_site_label_2
_geom_bond_distance
_geom_bond_site_symmetry_2
_ccdc_geom_bond_type
O0 Cd1 2.223 . S
O0 C8 1.315 . S
Cd1 O0 2.223 . S
Cd1 O4 2.297 1_554 S
Cd1 O5 2.439 . S
Cd1 O11 2.240 . S
Cd2 O3 2.240 . S
Cd2 O10 2.223 . S
Cd2 O12 2.297 . S
Cd2 O13 2.439 . S
O3 Cd2 2.240 . S
O3 C8 1.279 . S
O4 Cd1 2.297 1_556 S
O4 C6 1.247 1_556 S
O5 Cd1 2.439 . S
O5 C6 1.208 . S
C6 O4 1.247 1_554 S
C6 O5 1.208 . S
C7 O12 1.247 . S
C7 O13 1.208 . S
C8 O0 1.315 . S
C8 O3 1.279 . S
C9 O10 1.315 . S
C9 O11 1.279 . S
O10 Cd2 2.223 . S
O10 C9 1.315 . S
O11 Cd1 2.240 . S
O11 C9 1.279 . S
O12 Cd2 2.297 . S
O12 C7 1.247 . S
O13 Cd2 2.439 . S
O13 C7 1.208 . S
O14 Cd15 2.223 . S
O14 C22 1.315 . S
Cd15 O14 2.223 . S
Cd15 O18 2.297 1_554 S
Cd15 O19 2.439 . S
Cd15 O25 2.240 . S
Cd16 O17 2.240 . S
Cd16 O24 2.223 . S
Cd16 O26 2.297 . S
Cd16 O27 2.439 . S
O17 Cd16 2.240 . S
O17 C22 1.279 . S
O18 Cd15 2.297 1_556 S
O18 C20 1.247 1_556 S
O19 Cd15 2.439 . S
O19 C20 1.208 . S
C20 O18 1.247 1_554 S
C20 O19 1.208 . S
C21 O26 1.247 . S
C21 O27 1.208 . S
C22 O14 1.315 . S
C22 O17 1.279 . S
C23 O24 1.315 . S
C23 O25 1.279 . S
O24 Cd16 2.223 . S
O24 C23 1.315 . S
O25 Cd15 2.240 . S
O25 C23 1.279 . S
O26 Cd16 2.297 . S
O26 C21 1.247 . S
O27 Cd16 2.439 . S
O27 C21 1.208 . S
O28 Cd29 2.223 . S
O28 C36 1.315 . S
Cd29 O28 2.223 . S
Cd29 O32 2.297 . S
Cd29 O33 2.439 . S
Cd29 O39 2.240 . S
Cd30 O31 2.240 . S
Cd30 O38 2.223 . S
Cd30 O40 2.297 . S
Cd30 O41 2.439 . S
O31 Cd30 2.240 . S
O31 C36 1.279 . S
O32 Cd29 2.297 . S
O32 C34 1.247 . S
O33 Cd29 2.439 . S
O33 C34 1.208 . S
C34 O32 1.247 . S
C34 O33 1.208 . S
C35 O40 1.247 . S
C35 O41 1.208 . S
C36 O28 1.315 . S
C36 O31 1.279 . S
C37 O38 1.315 . S
C37 O39 1.279 . S
O38 Cd30 2.223 . S
O38 C37 1.315 . S
O39 Cd29 2.240 . S
O39 C37 1.279 . S
O40 Cd30 2.297 . S
O40 C35 1.247 . S
O41 Cd30 2.439 . S
O41 C35 1.208 . S
O42 Cd43 2.223 . S
O42 C50 1.315 . S
Cd43 O42 2.223 . S
Cd43 O46 2.297 . S
Cd43 O47 2.439 . S
Cd43 O53 2.240 . S
Cd44 O45 2.240 . S
Cd44 O52 2.223 . S
Cd44 O54 2.297 . S
Cd44 O55 2.439 . S
O45 Cd44 2.240 . S
O45 C50 1.279 . S
O46 Cd43 2.297 . S
O46 C48 1.247 . S
O47 Cd43 2.439 . S
O47 C48 1.208 . S
C48 O46 1.247 . S
C48 O47 1.208 . S
C49 O54 1.247 . S
C49 O55 1.208 . S
C50 O42 1.315 . S
C50 O45 1.279 . S
C51 O52 1.315 . S
C51 O53 1.279 . S
O52 Cd44 2.223 . S
O52 C51 1.315 . S
O53 Cd43 2.240 . S
O53 C51 1.279 . S
O54 Cd44 2.297 . S
O54 C49 1.247 . S
O55 Cd44 2.439 . S
O55 C49 1.208 . S
O56 Cd57 2.223 . S
O56 C64 1.315 . S
Cd57 O56 2.223 . S
Cd57 O60 2.297 1_556 S
Cd57 O61 2.439 . S
Cd57 O67 2.240 . S
Cd58 O59 2.240 . S
Cd58 O66 2.223 . S
Cd58 O68 2.297 . S
Cd58 O69 2.439 . S
O59 Cd58 2.240 . S
O59 C64 1.279 . S
O60 Cd57 2.297 1_554 S
O60 C62 1.247 1_554 S
O61 Cd57 2.439 . S
O61 C62 1.208 . S
C62 O60 1.247 1_556 S
C62 O61 1.208 . S
C63 O68 1.247 . S
C63 O69 1.208 . S
C64 O56 1.315 . S
C64 O59 1.279 . S
C65 O66 1.315 . S
C65 O67 1.279 . S
O66 Cd58 2.223 . S
O66 C65 1.315 . S
O67 Cd57 2.240 . S
O67 C65 1.279 . S
O68 Cd58 2.297 . S
O68 C63 1.247 . S
O69 Cd58 2.439 . S
O69 C63 1.208 . S
O70 Cd71 2.223 . S
O70 C78 1.315 . S
Cd71 O70 2.223 . S
Cd71 O74 2.297 1_556 S
Cd71 O75 2.439 . S
Cd71 O81 2.240 . S
Cd72 O73 2.240 . S
Cd72 O80 2.223 . S
Cd72 O82 2.297 . S
Cd72 O83 2.439 . S
O73 Cd72 2.240 . S
O73 C78 1.279 . S
O74 Cd71 2.297 1_554 S
O74 C76 1.247 1_554 S
O75 Cd71 2.439 . S
O75 C76 1.208 . S
C76 O74 1.247 1_556 S
C76 O75 1.208 . S
C77 O82 1.247 . S
C77 O83 1.208 . S
C78 O70 1.315 . S
C78 O73 1.279 . S
C79 O80 1.315 . S
C79 O81 1.279 . S
O80 Cd72 2.223 . S
O80 C79 1.315 . S
O81 Cd71 2.240 . S
O81 C79 1.279 . S
O82 Cd72 2.297 . S
O82 C77 1.247 . S
O83 Cd72 2.439 . S
O83 C77 1.208 . S
O84 Cd85 2.223 . S
O84 C92 1.315 . S
Cd85 O84 2.223 . S
Cd85 O88 2.297 . S
Cd85 O89 2.439 . S
Cd85 O95 2.240 . S
Cd86 O87 2.240 . S
Cd86 O94 2.223 . S
Cd86 O96 2.297 . S
Cd86 O97 2.439 . S
O87 Cd86 2.240 . S
O87 C92 1.279 . S
O88 Cd85 2.297 . S
O88 C90 1.247 . S
O89 Cd85 2.439 . S
O89 C90 1.208 . S
C90 O88 1.247 . S
C90 O89 1.208 . S
C91 O96 1.247 . S
C91 O97 1.208 . S
C92 O84 1.315 . S
C92 O87 1.279 . S
C93 O94 1.315 . S
C93 O95 1.279 . S
O94 Cd86 2.223 . S
O94 C93 1.315 . S
O95 Cd85 2.240 . S
O95 C93 1.279 . S
O96 Cd86 2.297 . S
O96 C91 1.247 . S
O97 Cd86 2.439 . S
O97 C91 1.208 . S
O98 Cd99 2.223 . S
O98 C106 1.315 . S
Cd99 O98 2.223 . S
Cd99 O102 2.297 . S
Cd99 O103 2.439 . S
Cd99 O109 2.240 . S
Cd100 O101 2.240 . S
Cd100 O108 2.223 . S
Cd100 O110 2.297 . S
Cd100 O111 2.439 . S
O101 Cd100 2.240 . S
O101 C106 1.279 . S
O102 Cd99 2.297 . S
O102 C104 1.247 . S
O103 Cd99 2.439 . S
O103 C104 1.208 . S
C104 O102 1.247 . S
C104 O103 1.208 . S
C105 O110 1.247 . S
C105 O111 1.208 . S
C106 O98 1.315 . S
C106 O101 1.279 . S
C107 O108 1.315 . S
C107 O109 1.279 . S
O108 Cd100 2.223 . S
O108 C107 1.315 . S
O109 Cd99 2.240 . S
O109 C107 1.279 . S
O110 Cd100 2.297 . S
O110 C105 1.247 . S
O111 Cd100 2.439 . S
O111 C105 1.208 . S
C112 C113 1.387 . S
C112 H116 0.950 . S
C112 C121 1.390 1_545 S
C113 C112 1.387 . S
C113 C115 1.387 . S
H114 C121 0.950 . S
C115 C113 1.387 . S
C115 C117 1.390 1_545 S
C115 H119 0.950 . S
H116 C112 0.950 . S
C117 C115 1.390 1_565 S
C117 C118 1.387 . S
C117 H120 0.950 . S
C118 C117 1.387 . S
C118 C121 1.387 . S
H119 C115 0.950 . S
H120 C117 0.950 . S
C121 C112 1.390 1_565 S
C121 H114 0.950 . S
C121 C118 1.387 . S
C122 C123 1.387 . S
C122 H126 0.950 . S
C122 C131 1.390 . S
C123 C122 1.387 . S
C123 C125 1.387 . S
H124 C131 0.950 . S
C125 C123 1.387 . S
C125 C127 1.390 . S
C125 H129 0.950 . S
H126 C122 0.950 . S
C127 C125 1.390 . S
C127 C128 1.387 . S
C127 H130 0.950 . S
C128 C127 1.387 . S
C128 C131 1.387 . S
H129 C125 0.950 . S
H130 C127 0.950 . S
C131 C122 1.390 . S
C131 H124 0.950 . S
C131 C128 1.387 . S
C132 C133 1.387 . S
C132 H136 0.950 . S
C132 C141 1.390 1_565 S
C133 C132 1.387 . S
C133 C135 1.387 . S
H134 C141 0.950 . S
C135 C133 1.387 . S
C135 C137 1.390 1_565 S
C135 H139 0.950 . S
H136 C132 0.950 . S
C137 C135 1.390 1_545 S
C137 C138 1.387 . S
C137 H140 0.950 . S
C138 C137 1.387 . S
C138 C141 1.387 . S
H139 C135 0.950 . S
H140 C137 0.950 . S
C141 C132 1.390 1_545 S
C141 H134 0.950 . S
C141 C138 1.387 . S
C142 C143 1.387 . S
C142 H146 0.950 . S
C142 C151 1.390 . S
C143 C142 1.387 . S
C143 C145 1.387 . S
H144 C151 0.950 . S
C145 C143 1.387 . S
C145 C147 1.390 . S
C145 H149 0.950 . S
H146 C142 0.950 . S
C147 C145 1.390 . S
C147 C148 1.387 . S
C147 H150 0.950 . S
C148 C147 1.387 . S
C148 C151 1.387 . S
H149 C145 0.950 . S
H150 C147 0.950 . S
C151 C142 1.390 . S
C151 H144 0.950 . S
C151 C148 1.387 . S
C152 C153 1.387 . S
C152 H156 0.950 . S
C152 C161 1.390 . S
C153 C152 1.387 . S
C153 C155 1.387 . S
H154 C161 0.950 . S
C155 C153 1.387 . S
C155 C157 1.390 . S
C155 H159 0.950 . S
H156 C152 0.950 . S
C157 C155 1.390 . S
C157 C158 1.387 . S
C157 H160 0.950 . S
C158 C157 1.387 . S
C158 C161 1.387 . S
H159 C155 0.950 . S
H160 C157 0.950 . S
C161 C152 1.390 . S
C161 H154 0.950 . S
C161 C158 1.387 . S
C162 C163 1.387 . S
C162 H166 0.950 . S
C162 C171 1.390 . S
C163 C162 1.387 . S
C163 C165 1.387 . S
H164 C171 0.950 . S
C165 C163 1.387 . S
C165 C167 1.390 . S
C165 H169 0.950 . S
H166 C162 0.950 . S
C167 C165 1.390 . S
C167 C168 1.387 . S
C167 H170 0.950 . S
C168 C167 1.387 . S
C168 C171 1.387 . S
H169 C165 0.950 . S
H170 C167 0.950 . S
C171 C162 1.390 . S
C171 H164 0.950 . S
C171 C168 1.387 . S
C172 C173 1.387 . S
C172 H176 0.950 . S
C172 C181 1.390 . S
C173 C172 1.387 . S
C173 C175 1.387 . S
H174 C181 0.950 . S
C175 C173 1.387 . S
C175 C177 1.390 . S
C175 H179 0.950 . S
H176 C172 0.950 . S
C177 C175 1.390 . S
C177 C178 1.387 . S
C177 H180 0.950 . S
C178 C177 1.387 . S
C178 C181 1.387 . S
H179 C175 0.950 . S
H180 C177 0.950 . S
C181 C172 1.390 . S
C181 H174 0.950 . S
C181 C178 1.387 . S
C182 C183 1.387 . S
C182 H186 0.950 . S
C182 C191 1.390 . S
C183 C182 1.387 . S
C183 C185 1.387 . S
H184 C191 0.950 . S
C185 C183 1.387 . S
C185 C187 1.390 . S
C185 H189 0.950 . S
H186 C182 0.950 . S
C187 C185 1.390 . S
C187 C188 1.387 . S
C187 H190 0.950 . S
C188 C187 1.387 . S
C188 C191 1.387 . S
H189 C185 0.950 . S
H190 C187 0.950 . S
C191 C182 1.390 . S
C191 H184 0.950 . S
C191 C188 1.387 . S
C192 C193 1.387 . S
C192 H196 0.950 . S
C192 C201 1.390 . S
C193 C192 1.387 . S
C193 C195 1.387 1_554 S
H194 C201 0.950 . S
C195 C193 1.387 1_556 S
C195 C197 1.390 . S
C195 H199 0.950 . S
H196 C192 0.950 . S
C197 C195 1.390 . S
C197 C198 1.387 . S
C197 H200 0.950 . S
C198 C197 1.387 . S
C198 C201 1.387 1_556 S
H199 C195 0.950 . S
H200 C197 0.950 . S
C201 C192 1.390 . S
C201 H194 0.950 . S
C201 C198 1.387 1_554 S
C202 C203 1.387 1_655 S
C202 H206 0.950 . S
C202 C211 1.390 . S
C203 C202 1.387 1_455 S
C203 C205 1.387 1_554 S
H204 C211 0.950 . S
C205 C203 1.387 1_556 S
C205 C207 1.390 . S
C205 H209 0.950 . S
H206 C202 0.950 . S
C207 C205 1.390 . S
C207 C208 1.387 1_455 S
C207 H210 0.950 . S
C208 C207 1.387 1_655 S
C208 C211 1.387 1_556 S
H209 C205 0.950 . S
H210 C207 0.950 . S
C211 C202 1.390 . S
C211 H204 0.950 . S
C211 C208 1.387 1_554 S
C212 C213 1.387 . S
C212 H216 0.950 . S
C212 C221 1.390 1_565 S
C213 C212 1.387 . S
C213 C215 1.387 . S
H214 C221 0.950 . S
C215 C213 1.387 . S
C215 C217 1.390 1_565 S
C215 H219 0.950 . S
H216 C212 0.950 . S
C217 C215 1.390 1_545 S
C217 C218 1.387 . S
C217 H220 0.950 . S
C218 C217 1.387 . S
C218 C221 1.387 . S
H219 C215 0.950 . S
H220 C217 0.950 . S
C221 C212 1.390 1_545 S
C221 H214 0.950 . S
C221 C218 1.387 . S
C222 C223 1.387 . S
C222 H226 0.950 . S
C222 C231 1.390 1_645 S
C223 C222 1.387 . S
C223 C225 1.387 . S
H224 C231 0.950 . S
C225 C223 1.387 . S
C225 C227 1.390 1_645 S
C225 H229 0.950 . S
H226 C222 0.950 . S
C227 C225 1.390 1_465 S
C227 C228 1.387 . S
C227 H230 0.950 . S
C228 C227 1.387 . S
C228 C231 1.387 . S
H229 C225 0.950 . S
H230 C227 0.950 . S
C231 C222 1.390 1_465 S
C231 H224 0.950 . S
C231 C228 1.387 . S
C232 C233 1.387 . S
C232 H236 0.950 . S
C232 C241 1.390 . S
C233 C232 1.387 . S
C233 C235 1.387 . S
H234 C241 0.950 . S
C235 C233 1.387 . S
C235 C237 1.390 . S
C235 H239 0.950 1_554 S
H236 C232 0.950 . S
C237 C235 1.390 . S
C237 C238 1.387 . S
C237 H240 0.950 1_554 S
C238 C237 1.387 . S
C238 C241 1.387 . S
H239 C235 0.950 1_556 S
H240 C237 0.950 1_556 S
C241 C232 1.390 . S
C241 H234 0.950 . S
C241 C238 1.387 . S
C242 C243 1.387 . S
C242 H246 0.950 . S
C242 C251 1.390 1_545 S
C243 C242 1.387 . S
C243 C245 1.387 . S
H244 C251 0.950 . S
C245 C243 1.387 . S
C245 C247 1.390 1_545 S
C245 H249 0.950 . S
H246 C242 0.950 . S
C247 C245 1.390 1_565 S
C247 C248 1.387 . S
C247 H250 0.950 . S
C248 C247 1.387 . S
C248 C251 1.387 . S
H249 C245 0.950 . S
H250 C247 0.950 . S
C251 C242 1.390 1_565 S
C251 H244 0.950 . S
C251 C248 1.387 . S
C252 C253 1.387 . S
C252 H256 0.950 1_556 S
C252 C261 1.390 . S
C253 C252 1.387 . S
C253 C255 1.387 . S
H254 C261 0.950 1_554 S
C255 C253 1.387 . S
C255 C257 1.390 . S
C255 H259 0.950 . S
H256 C252 0.950 1_554 S
C257 C255 1.390 . S
C257 C258 1.387 . S
C257 H260 0.950 . S
C258 C257 1.387 . S
C258 C261 1.387 . S
H259 C255 0.950 . S
H260 C257 0.950 . S
C261 C252 1.390 . S
C261 H254 0.950 1_556 S
C261 C258 1.387 . S
C262 C263 1.387 . S
C262 H266 0.950 . S
C262 C271 1.390 1_565 S
C263 C262 1.387 . S
C263 C265 1.387 . S
H264 C271 0.950 . S
C265 C263 1.387 . S
C265 C267 1.390 1_565 S
C265 H269 0.950 . S
H266 C262 0.950 . S
C267 C265 1.390 1_545 S
C267 C268 1.387 . S
C267 H270 0.950 . S
C268 C267 1.387 . S
C268 C271 1.387 . S
H269 C265 0.950 . S
H270 C267 0.950 . S
C271 C262 1.390 1_545 S
C271 H264 0.950 . S
C271 C268 1.387 . S
C113 C9 1.571 . S
C118 C23 1.571 . S
C123 C51 1.569 . S
C128 C37 1.569 . S
C133 C65 1.571 . S
C138 C79 1.571 . S
C143 C93 1.569 . S
C148 C107 1.569 . S
C153 C7 1.745 . S
C158 C35 1.745 . S
C163 C49 1.744 . S
C168 C21 1.742 . S
C173 C63 1.742 . S
C178 C91 1.742 . S
C183 C105 1.745 . S
C188 C77 1.745 . S
C193 C6 1.388 . S
C198 C62 1.388 . S
C203 C20 1.389 . S
C208 C76 1.389 . S
C213 C90 1.388 . S
C218 C34 1.388 . S
C223 C104 1.388 . S
C228 C48 1.388 . S
C233 C22 1.504 . S
C238 C8 1.504 . S
C243 C36 1.504 . S
C248 C50 1.504 . S
C253 C64 1.504 . S
C258 C78 1.504 . S
C263 C92 1.502 . S
C268 C106 1.502 . S
