# Generated by pormake.
# Topology rac, (4)-cn, num edge types: 1
# Building blocks:
#     Node 0, Type 0, BuildingBlock: QUQFOY_clean_sbu_1, # of connection points: 4
#     Node 1, Type 0, BuildingBlock: QUQFOY_clean_sbu_1, # of connection points: 4
#     Node 2, Type 0, BuildingBlock: QUQFOY_clean_sbu_1, # of connection points: 4
#     Node 3, Type 0, BuildingBlock: QUQFOY_clean_sbu_1, # of connection points: 4
#     Node 4, Type 0, BuildingBlock: QUQFOY_clean_sbu_1, # of connection points: 4
#     Node 5, Type 0, BuildingBlock: QUQFOY_clean_sbu_1, # of connection points: 4
#     Node 6, Type 0, BuildingBlock: QUQFOY_clean_sbu_1, # of connection points: 4
#     Node 7, Type 0, BuildingBlock: QUQFOY_clean_sbu_1, # of connection points: 4
#     Edge 8, Type (0, 0), BuildingBlock: XUDNAN_clean_linker_2, # of connection points: 2
#     Edge 9, Type (0, 0), BuildingBlock: XUDNAN_clean_linker_2, # of connection points: 2
#     Edge 10, Type (0, 0), BuildingBlock: XUDNAN_clean_linker_2, # of connection points: 2
#     Edge 11, Type (0, 0), BuildingBlock: XUDNAN_clean_linker_2, # of connection points: 2
#     Edge 12, Type (0, 0), BuildingBlock: XUDNAN_clean_linker_2, # of connection points: 2
#     Edge 13, Type (0, 0), BuildingBlock: XUDNAN_clean_linker_2, # of connection points: 2
#     Edge 14, Type (0, 0), BuildingBlock: XUDNAN_clean_linker_2, # of connection points: 2
#     Edge 15, Type (0, 0), BuildingBlock: XUDNAN_clean_linker_2, # of connection points: 2
#     Edge 16, Type (0, 0), BuildingBlock: XUDNAN_clean_linker_2, # of connection points: 2
#     Edge 17, Type (0, 0), BuildingBlock: XUDNAN_clean_linker_2, # of connection points: 2
#     Edge 18, Type (0, 0), BuildingBlock: XUDNAN_clean_linker_2, # of connection points: 2
#     Edge 19, Type (0, 0), BuildingBlock: XUDNAN_clean_linker_2, # of connection points: 2
#     Edge 20, Type (0, 0), BuildingBlock: XUDNAN_clean_linker_2, # of connection points: 2
#     Edge 21, Type (0, 0), BuildingBlock: XUDNAN_clean_linker_2, # of connection points: 2
#     Edge 22, Type (0, 0), BuildingBlock: XUDNAN_clean_linker_2, # of connection points: 2
#     Edge 23, Type (0, 0), BuildingBlock: XUDNAN_clean_linker_2, # of connection points: 2
# Relax obj value: 0.259
# Max RMSD: 0.150
# Mean RMSD: 0.150
data_MOF--net-rac--node1-QUQFOY_clean_sbu_1--edge1-XUDNAN_clean_linker_2
_symmetry_space_group_name_H-M    P1
_symmetry_Int_Tables_number       1
_symmetry_cell_setting            triclinic
loop_
_symmetry_equiv_pos_as_xyz
'x, y, z'
_cell_length_a     41.556554
_cell_length_b     20.104892
_cell_length_c     46.849112
_cell_angle_alpha  90.08953
_cell_angle_beta   89.890508
_cell_angle_gamma 89.756718
loop_
_atom_site_label
_atom_site_type_symbol
_atom_site_fract_x
_atom_site_fract_y
_atom_site_fract_z
_atom_type_partial_charge
O0 O 0.35651 0.33309 0.05965 0.0
Cd1 Cd 0.39196 0.26728 0.04912 0.0
Cd2 Cd 0.38717 0.22929 0.10545 0.0
O3 O 0.35981 0.31402 0.10581 0.0
O4 O 0.41936 0.31234 0.01977 0.0
O5 O 0.43558 0.29103 0.06393 0.0
C6 C 0.44063 0.31998 0.03964 0.0
C7 C 0.40751 0.21268 0.15194 0.0
C8 C 0.34802 0.34615 0.08505 0.0
C9 C 0.36073 0.137 0.05869 0.0
O10 O 0.36499 0.15044 0.08499 0.0
O11 O 0.37322 0.17385 0.0395 0.0
O12 O 0.37791 0.20292 0.14555 0.0
O13 O 0.42678 0.22782 0.13138 0.0
O14 O 0.16245 0.67331 0.05606 0.0
Cd15 Cd 0.12862 0.74262 0.04612 0.0
Cd16 Cd 0.13323 0.77302 0.1041 0.0
O17 O 0.15066 0.67753 0.10179 0.0
O18 O 0.10093 0.70099 0.01617 0.0
O19 O 0.08468 0.72043 0.0606 0.0
C20 C 0.07958 0.69275 0.03602 0.0
C21 C 0.11858 0.79158 0.15226 0.0
C22 C 0.165 0.64985 0.08102 0.0
C23 C 0.1647 0.864 0.0585 0.0
O24 O 0.16121 0.84531 0.08432 0.0
O25 O 0.14913 0.83511 0.0386 0.0
O26 O 0.14795 0.78738 0.14402 0.0
O27 O 0.09673 0.79035 0.13278 0.0
O28 O 0.36688 0.16005 0.46008 0.0
Cd29 Cd 0.39523 0.24064 0.46671 0.0
Cd30 Cd 0.39313 0.24304 0.40869 0.0
O31 O 0.38943 0.14353 0.41831 0.0
O32 O 0.42675 0.21325 0.4967 0.0
O33 O 0.43926 0.22608 0.45087 0.0
C34 C 0.44703 0.20422 0.47597 0.0
C35 C 0.40704 0.25382 0.35999 0.0
C36 C 0.37243 0.12255 0.43887 0.0
C37 C 0.34967 0.33569 0.44604 0.0
O38 O 0.35586 0.30446 0.42295 0.0
O39 O 0.36785 0.32786 0.46771 0.0
O40 O 0.37923 0.23419 0.36825 0.0
O41 O 0.42726 0.2709 0.37948 0.0
O42 O 0.17845 0.82141 0.45331 0.0
Cd43 Cd 0.14025 0.76411 0.46416 0.0
Cd44 Cd 0.14326 0.72546 0.40622 0.0
O45 O 0.18113 0.79028 0.40825 0.0
O46 O 0.12462 0.80592 0.50049 0.0
O47 O 0.0962 0.80731 0.46071 0.0
C48 C 0.09976 0.82735 0.48676 0.0
C49 C 0.12188 0.72696 0.35954 0.0
C50 C 0.19202 0.82343 0.4291 0.0
C51 C 0.15986 0.62242 0.45123 0.0
O52 O 0.15325 0.63519 0.42527 0.0
O53 O 0.15525 0.66588 0.47071 0.0
O54 O 0.14932 0.7009 0.36537 0.0
O55 O 0.1049 0.74878 0.38066 0.0
O56 O 0.6646 0.6649 0.95039 0.0
Cd57 Cd 0.63207 0.73394 0.9639 0.0
Cd58 Cd 0.63548 0.76903 0.90406 0.0
O59 O 0.65506 0.6755 0.90445 0.0
O60 O 0.61752 0.69547 1.00109 0.0
O61 O 0.58577 0.70276 0.96345 0.0
C62 C 0.59062 0.68055 0.98899 0.0
C63 C 0.61927 0.78791 0.85641 0.0
C64 C 0.66838 0.64513 0.92493 0.0
C65 C 0.66762 0.85777 0.95023 0.0
O66 O 0.66287 0.84174 0.92423 0.0
O67 O 0.65358 0.82615 0.97029 0.0
O68 O 0.64886 0.78771 0.86408 0.0
O69 O 0.59793 0.78312 0.87629 0.0
O70 O 0.85928 0.32972 0.94758 0.0
Cd71 Cd 0.89384 0.26534 0.96127 0.0
Cd72 Cd 0.89106 0.22474 0.90276 0.0
O73 O 0.86388 0.30955 0.90155 0.0
O74 O 0.90737 0.30735 0.99811 0.0
O75 O 0.93936 0.30137 0.96051 0.0
C76 C 0.93396 0.32422 0.9859 0.0
C77 C 0.91187 0.20953 0.85625 0.0
C78 C 0.8516 0.34219 0.92199 0.0
C79 C 0.8629 0.13403 0.94952 0.0
O80 O 0.86813 0.14665 0.92326 0.0
O81 O 0.87457 0.17138 0.96897 0.0
O82 O 0.8823 0.1988 0.86253 0.0
O83 O 0.93102 0.22332 0.87704 0.0
O84 O 0.67281 0.84394 0.55631 0.0
Cd85 Cd 0.63853 0.7788 0.5434 0.0
Cd86 Cd 0.64151 0.74163 0.60211 0.0
O87 O 0.66595 0.82964 0.60247 0.0
O88 O 0.62314 0.8203 0.50706 0.0
O89 O 0.59291 0.81445 0.54581 0.0
C90 C 0.59711 0.83742 0.5203 0.0
C91 C 0.6222 0.72534 0.64905 0.0
C92 C 0.67892 0.86009 0.58185 0.0
C93 C 0.67131 0.65001 0.5559 0.0
O94 O 0.66636 0.66474 0.58203 0.0
O95 O 0.65851 0.68481 0.53611 0.0
O96 O 0.65196 0.71866 0.64234 0.0
O97 O 0.60221 0.73593 0.62854 0.0
O98 O 0.86766 0.17816 0.55479 0.0
Cd99 Cd 0.90194 0.24641 0.54517 0.0
Cd100 Cd 0.89732 0.27897 0.60272 0.0
O101 O 0.87594 0.18758 0.60096 0.0
O102 O 0.93032 0.20422 0.51555 0.0
O103 O 0.94558 0.2231 0.5602 0.0
C104 C 0.95126 0.19559 0.53564 0.0
C105 C 0.91418 0.29219 0.65047 0.0
C106 C 0.86281 0.15838 0.58008 0.0
C107 C 0.86733 0.37196 0.55744 0.0
O108 O 0.87117 0.35513 0.58345 0.0
O109 O 0.88179 0.33986 0.53763 0.0
O110 O 0.88455 0.29558 0.64303 0.0
O111 O 0.9353 0.28741 0.63038 0.0
H112 H 0.32473 0.06211 0.09548 0.0
H113 H 0.33751 0.10285 1.00524 0.0
H114 H 0.28801 0.03901 0.99473 0.0
H115 H 0.29107 0.89493 0.08847 0.0
H116 H 0.2637 0.90803 0.11785 0.0
H117 H 0.30178 0.95039 0.11717 0.0
H118 H 0.27185 0.0631 0.12246 0.0
H119 H 0.23364 0.02129 0.12244 0.0
H120 H 0.24154 0.08584 0.09674 0.0
H121 H 0.23395 0.97486 0.995 0.0
H122 H 0.18435 0.91132 0.00573 0.0
H123 H 0.20702 0.92053 0.09603 0.0
C124 C 0.31776 0.05642 0.07336 0.0
C125 C 0.33544 0.08731 0.05118 0.0
C126 C 0.32479 0.07912 0.02264 0.0
C127 C 0.29647 0.04334 0.01648 0.0
C128 C 0.27893 0.01614 0.03909 0.0
C129 C 0.2895 0.02183 0.06693 0.0
C130 C 0.2659 0.99106 0.08768 0.0
C131 C 0.28154 0.93263 0.10373 0.0
C132 C 0.25245 0.04346 0.10855 0.0
C133 C 0.24018 0.96726 0.06729 0.0
C134 C 0.24798 0.98178 0.03931 0.0
C135 C 0.22773 0.96336 0.01688 0.0
C136 C 0.19941 0.92769 0.02319 0.0
C137 C 0.19138 0.91112 0.05176 0.0
C138 C 0.21198 0.93267 0.07395 0.0
H139 H 0.21555 0.6143 0.48236 0.0
H140 H 0.15115 0.49835 0.42956 0.0
H141 H 0.19169 0.4085 0.42695 0.0
H142 H 0.28388 0.57962 0.44405 0.0
H143 H 0.31156 0.57416 0.47353 0.0
H144 H 0.27566 0.62399 0.47675 0.0
H145 H 0.25851 0.55841 0.52169 0.0
H146 H 0.29474 0.50908 0.51901 0.0
H147 H 0.25605 0.46897 0.52011 0.0
H148 H 0.24105 0.34125 0.42292 0.0
H149 H 0.29535 0.29346 0.4209 0.0
H150 H 0.33044 0.44994 0.47658 0.0
C151 C 0.20941 0.56842 0.47156 0.0
C152 C 0.17972 0.56236 0.45685 0.0
C153 C 0.17329 0.50324 0.44155 0.0
C154 C 0.1963 0.45216 0.43982 0.0
C155 C 0.22585 0.4609 0.45339 0.0
C156 C 0.23244 0.51701 0.46934 0.0
C157 C 0.26742 0.51645 0.47925 0.0
C158 C 0.28569 0.57716 0.4677 0.0
C159 C 0.26928 0.51301 0.51197 0.0
C160 C 0.27963 0.45228 0.46564 0.0
C161 C 0.255 0.42131 0.45096 0.0
C162 C 0.26035 0.36437 0.43476 0.0
C163 C 0.2915 0.33796 0.43355 0.0
C164 C 0.31735 0.3678 0.44855 0.0
C165 C 0.31119 0.42554 0.46515 0.0
H166 H 0.70876 0.91735 0.91234 0.0
H167 H 0.68814 0.90314 1.00297 0.0
H168 H 0.73753 0.96743 0.01336 0.0
H169 H 0.79286 0.89369 0.91781 0.0
H170 H 0.80265 0.95088 0.88954 0.0
H171 H 0.76469 0.90802 0.88923 0.0
H172 H 0.73407 0.02042 0.88666 0.0
H173 H 0.77194 0.06353 0.88629 0.0
H174 H 0.74212 0.08379 0.91293 0.0
H175 H 0.79114 0.03231 0.01337 0.0
H176 H 0.84035 0.097 1.00281 0.0
H177 H 0.826 0.06177 0.9123 0.0
C178 C 0.71413 0.92863 0.93442 0.0
C179 C 0.69415 0.9054 0.95681 0.0
C180 C 0.70271 0.92078 0.98537 0.0
C181 C 0.73091 0.95691 0.99149 0.0
C182 C 0.75053 0.97707 0.96887 0.0
C183 C 0.74224 0.96379 0.94089 0.0
C184 C 0.76746 0.98942 0.92031 0.0
C185 C 0.78281 0.93207 0.90322 0.0
C186 C 0.75304 0.04245 0.90038 0.0
C187 C 0.79132 0.01957 0.94097 0.0
C188 C 0.78128 0.01209 0.96892 0.0
C189 C 0.79918 0.03809 0.99153 0.0
C190 C 0.82732 0.07439 0.98533 0.0
C191 C 0.8375 0.08428 0.95672 0.0
C192 C 0.81943 0.05471 0.93447 0.0
H193 H 0.709 0.58078 0.59369 0.0
H194 H 0.69428 0.61065 0.50292 0.0
H195 H 0.74388 0.54575 0.49289 0.0
H196 H 0.79274 0.60273 0.5929 0.0
H197 H 0.80093 0.54085 0.61975 0.0
H198 H 0.76286 0.58393 0.61962 0.0
H199 H 0.73249 0.47175 0.61726 0.0
H200 H 0.77044 0.42825 0.61808 0.0
H201 H 0.74242 0.41283 0.58953 0.0
H202 H 0.79778 0.48057 0.49342 0.0
H203 H 0.8471 0.41575 0.50435 0.0
H204 H 0.82655 0.43529 0.59484 0.0
C205 C 0.71562 0.57262 0.5716 0.0
C206 C 0.69729 0.60066 0.5491 0.0
C207 C 0.70751 0.58925 0.52058 0.0
C208 C 0.73587 0.5528 0.51468 0.0
C209 C 0.75395 0.52817 0.5375 0.0
C210 C 0.74391 0.53718 0.56538 0.0
C211 C 0.76788 0.50791 0.58627 0.0
C212 C 0.78192 0.5621 0.60578 0.0
C213 C 0.75238 0.45185 0.60381 0.0
C214 C 0.79313 0.48098 0.5659 0.0
C215 C 0.7848 0.4929 0.53783 0.0
C216 C 0.80442 0.47116 0.51538 0.0
C217 C 0.83261 0.43476 0.5218 0.0
C218 C 0.84114 0.42059 0.55048 0.0
C219 C 0.82122 0.44558 0.57266 0.0
H220 H 0.37091 0.1779 0.19745 0.0
H221 H 0.46559 0.25186 0.17523 0.0
H222 H 0.47745 0.2683 0.2267 0.0
H223 H 0.35493 0.29356 0.25082 0.0
H224 H 0.33335 0.23653 0.27342 0.0
H225 H 0.33413 0.22369 0.23542 0.0
H226 H 0.35708 0.10471 0.24253 0.0
H227 H 0.35588 0.11673 0.28061 0.0
H228 H 0.39305 0.09309 0.26342 0.0
H229 H 0.47654 0.28373 0.28172 0.0
H230 H 0.46369 0.292 0.33346 0.0
H231 H 0.3689 0.21122 0.31681 0.0
C232 C 0.39445 0.19631 0.20328 0.0
C233 C 0.41739 0.21325 0.18231 0.0
C234 C 0.44775 0.23788 0.19098 0.0
C235 C 0.45461 0.24767 0.22015 0.0
C236 C 0.43087 0.23245 0.24024 0.0
C237 C 0.40151 0.20673 0.23201 0.0
C238 C 0.37918 0.19748 0.25711 0.0
C239 C 0.34861 0.24039 0.25399 0.0
C240 C 0.37082 0.12362 0.26115 0.0
C241 C 0.4003 0.22262 0.28091 0.0
C242 C 0.43012 0.24236 0.27104 0.0
C243 C 0.45328 0.26805 0.28959 0.0
C244 C 0.44576 0.27286 0.3189 0.0
C245 C 0.41527 0.25253 0.3292 0.0
C246 C 0.39242 0.22747 0.30975 0.0
H247 H 0.16041 0.71369 0.31324 0.0
H248 H 0.06271 0.76538 0.33758 0.0
H249 H 0.04995 0.78879 0.2867 0.0
H250 H 0.16995 0.84188 0.26255 0.0
H251 H 0.19438 0.79208 0.23886 0.0
H252 H 0.19452 0.7755 0.2766 0.0
H253 H 0.17831 0.653 0.26706 0.0
H254 H 0.17848 0.66899 0.22927 0.0
H255 H 0.14298 0.63574 0.24608 0.0
H256 H 0.04897 0.8055 0.23144 0.0
H257 H 0.06035 0.8164 0.17949 0.0
H258 H 0.15976 0.76084 0.19491 0.0
C259 C 0.13612 0.72901 0.308 0.0
C260 C 0.11242 0.73689 0.32935 0.0
C261 C 0.08117 0.75845 0.32149 0.0
C262 C 0.07377 0.77196 0.29268 0.0
C263 C 0.09803 0.76444 0.27219 0.0
C264 C 0.1286 0.74366 0.27973 0.0
C265 C 0.15108 0.74182 0.25443 0.0
C266 C 0.17912 0.79074 0.25836 0.0
C267 C 0.16342 0.67066 0.24888 0.0
C268 C 0.12852 0.76459 0.23122 0.0
C269 C 0.09789 0.77698 0.24154 0.0
C270 C 0.07297 0.7964 0.22329 0.0
C271 C 0.07963 0.80264 0.19386 0.0
C272 C 0.11103 0.7904 0.18318 0.0
C273 C 0.13561 0.77175 0.20233 0.0
H274 H 0.66125 0.77341 0.81257 0.0
H275 H 0.55924 0.79324 0.8306 0.0
H276 H 0.54746 0.7768 0.77904 0.0
H277 H 0.66226 0.85475 0.74446 0.0
H278 H 0.69181 0.79794 0.73009 0.0
H279 H 0.69115 0.81561 0.76775 0.0
H280 H 0.68649 0.68935 0.77828 0.0
H281 H 0.6866 0.67137 0.74064 0.0
H282 H 0.65397 0.64264 0.76275 0.0
H283 H 0.54814 0.75738 0.72392 0.0
H284 H 0.56122 0.73828 0.67272 0.0
H285 H 0.66243 0.72376 0.69446 0.0
C286 C 0.63636 0.7754 0.80581 0.0
C287 C 0.61117 0.78542 0.82562 0.0
C288 C 0.57896 0.78632 0.81574 0.0
C289 C 0.57208 0.77672 0.78653 0.0
C290 C 0.59767 0.76552 0.76768 0.0
C291 C 0.62915 0.76484 0.77715 0.0
C292 C 0.65256 0.74955 0.75337 0.0
C293 C 0.6758 0.80794 0.74864 0.0
C294 C 0.67097 0.68436 0.75911 0.0
C295 C 0.62953 0.74202 0.72876 0.0
C296 C 0.59793 0.75164 0.73711 0.0
C297 C 0.57282 0.74931 0.71731 0.0
C298 C 0.58042 0.73814 0.68832 0.0
C299 C 0.6128 0.7288 0.67957 0.0
C300 C 0.63736 0.72976 0.70032 0.0
H301 H 0.87286 0.26446 0.69339 0.0
H302 H 0.97395 0.30061 0.67663 0.0
H303 H 0.98607 0.2791 0.72782 0.0
H304 H 0.86819 0.33685 0.7628 0.0
H305 H 0.8408 0.27446 0.77575 0.0
H306 H 0.84113 0.29589 0.73849 0.0
H307 H 0.85085 0.17186 0.72555 0.0
H308 H 0.85106 0.15021 0.76282 0.0
H309 H 0.88493 0.12859 0.74053 0.0
H310 H 0.98555 0.25528 0.78264 0.0
H311 H 0.97257 0.23161 0.83345 0.0
H312 H 0.87255 0.20295 0.81033 0.0
C313 C 0.89759 0.26888 0.70038 0.0
C314 C 0.92242 0.28525 0.68109 0.0
C315 C 0.9545 0.28885 0.69115 0.0
C316 C 0.96157 0.27643 0.72013 0.0
C317 C 0.93634 0.25938 0.73849 0.0
C318 C 0.90503 0.2554 0.72875 0.0
C319 C 0.88206 0.23437 0.75197 0.0
C320 C 0.85656 0.28863 0.75758 0.0
C321 C 0.86631 0.16728 0.74478 0.0
C322 C 0.9051 0.22782 0.77664 0.0
C323 C 0.93633 0.24261 0.76877 0.0
C324 C 0.9612 0.24293 0.78884 0.0
C325 C 0.95367 0.22915 0.81762 0.0
C326 C 0.92163 0.21463 0.82587 0.0
C327 C 0.89741 0.21277 0.80483 0.0
H328 H 0.45424 0.39931 0.99313 0.0
H329 H 0.4877 0.35054 0.07833 0.0
H330 H 0.52791 0.44026 0.07522 0.0
H331 H 0.5333 0.44053 0.96351 0.0
H332 H 0.51766 0.50735 0.94193 0.0
H333 H 0.49254 0.43735 0.9505 0.0
H334 H 0.44979 0.51779 0.97156 0.0
H335 H 0.47504 0.58794 0.96353 0.0
H336 H 0.4611 0.57473 0.99953 0.0
H337 H 0.56285 0.53878 0.06388 0.0
H338 H 0.59379 0.63149 0.0433 0.0
H339 H 0.53808 0.61715 0.96525 0.0
C340 C 0.47039 0.40665 0.01096 0.0
C341 C 0.4678 0.36736 0.03596 0.0
C342 C 0.48924 0.37942 0.05888 0.0
C343 C 0.51207 0.43065 0.05738 0.0
C344 C 0.51334 0.46956 0.03279 0.0
C345 C 0.49339 0.45765 0.00981 0.0
C346 C 0.4997 0.50698 0.98592 0.0
C347 C 0.51151 0.4709 0.95887 0.0
C348 C 0.46961 0.54936 0.97979 0.0
C349 C 0.52622 0.54867 0.9991 0.0
C350 C 0.53357 0.52635 0.02621 0.0
C351 C 0.55734 0.5565 0.04263 0.0
C352 C 0.5747 0.60952 0.03077 0.0
C353 C 0.56836 0.63216 1.00268 0.0
C354 C 0.54333 0.60177 0.98689 0.0
H355 H 0.06728 0.61195 0.98963 0.0
H356 H 0.03158 0.6631 0.07404 0.0
H357 H 0.99202 0.57218 0.07088 0.0
H358 H 0.98916 0.56639 0.95904 0.0
H359 H 1.00595 0.49914 0.93824 0.0
H360 H 0.03019 0.57059 0.94663 0.0
H361 H 0.07317 0.49299 0.96897 0.0
H362 H 0.04878 0.42141 0.96114 0.0
H363 H 0.06173 0.43704 0.99723 0.0
H364 H 0.9583 0.47176 0.05979 0.0
H365 H 0.92894 0.37638 0.03963 0.0
H366 H 0.98611 0.38943 0.9622 0.0
C367 C 0.05071 0.605 0.00723 0.0
C368 C 0.05251 0.64526 0.03206 0.0
C369 C 0.03062 0.63351 0.05472 0.0
C370 C 1.00815 0.58161 0.0532 0.0
C371 C 1.00772 0.54168 0.02884 0.0
C372 C 0.0281 0.55327 0.00607 0.0
C373 C 0.02283 0.50248 0.98248 0.0
C374 C 1.01134 0.5367 0.95497 0.0
C375 C 0.05345 0.46104 0.97715 0.0
C376 C 0.9964 0.46037 0.99559 0.0
C377 C 0.9882 0.48373 0.02241 0.0
C378 C 0.96444 0.45325 0.03876 0.0
C379 C 0.94799 0.39872 0.02714 0.0
C380 C 0.9552 0.3749 0.99934 0.0
C381 C 0.98018 0.40576 0.98361 0.0
H382 H 0.54582 0.90259 0.54604 0.0
H383 H 0.59993 0.8912 0.46681 0.0
H384 H 0.56976 0.98765 0.44826 0.0
H385 H 0.46909 0.95129 0.51357 0.0
H386 H 0.45841 0.00611 0.54259 0.0
H387 H 0.48352 0.93453 0.54911 0.0
H388 H 0.52672 0.0113 0.5713 0.0
H389 H 0.502 0.08325 0.56429 0.0
H390 H 0.54254 0.07931 0.55061 0.0
H391 H 0.53529 0.0884 0.43878 0.0
H392 H 0.49466 0.17817 0.43699 0.0
H393 H 0.46255 0.12545 0.5222 0.0
C394 C 0.55092 0.91957 0.52459 0.0
C395 C 0.57527 0.88879 0.50788 0.0
C396 C 0.58137 0.91342 0.48004 0.0
C397 C 0.56447 0.9686 0.46934 0.0
C398 C 0.54137 0.99896 0.48664 0.0
C399 C 0.5342 0.97481 0.51351 0.0
C400 C 0.5081 0.01669 0.52763 0.0
C401 C 0.47799 0.97465 0.53356 0.0
C402 C 0.5206 0.04958 0.55508 0.0
C403 C 0.50182 0.06814 0.50454 0.0
C404 C 0.52144 0.05717 0.48116 0.0
C405 C 0.51978 0.09741 0.45698 0.0
C406 C 0.49673 0.14872 0.45624 0.0
C407 C 0.47549 0.15962 0.47951 0.0
C408 C 0.47869 0.11941 0.50421 0.0
H409 H 0.96551 0.11657 0.48893 0.0
H410 H 0.99813 0.16442 0.57448 0.0
H411 H 0.03832 0.07398 0.57152 0.0
H412 H 0.97198 0.94143 0.4952 0.0
H413 H 0.98626 0.92747 0.45933 0.0
H414 H 0.96118 0.99852 0.46713 0.0
H415 H 1.00445 0.07732 0.44643 0.0
H416 H 0.02944 0.00644 0.43811 0.0
H417 H 0.04505 0.07296 0.45981 0.0
H418 H 0.07277 0.97396 0.56059 0.0
H419 H 0.10295 0.87883 0.5407 0.0
H420 H 0.04883 0.89518 0.46181 0.0
C421 C 0.98153 0.10899 0.50683 0.0
C422 C 0.97867 0.1482 0.53192 0.0
C423 C 0.99988 0.13566 0.55497 0.0
C424 C 0.02272 0.08402 0.55355 0.0
C425 C 0.02425 0.04518 0.52889 0.0
C426 C 1.00456 0.05755 0.50577 0.0
C427 C 1.01097 0.00779 0.48192 0.0
C428 C 0.9808 0.96636 0.47553 0.0
C429 C 0.02321 0.04325 0.45497 0.0
C430 C 0.03721 0.96529 0.49533 0.0
C431 C 0.04433 0.98762 0.5225 0.0
C432 C 0.0675 0.95633 0.53928 0.0
C433 C 0.08444 0.90192 0.52779 0.0
C434 C 0.07833 0.87904 0.49967 0.0
C435 C 0.054 0.91092 0.48343 0.0
H436 H 0.20419 0.58666 0.04266 0.0
H437 H 0.17848 0.59285 0.1326 0.0
H438 H 0.22313 0.51603 0.1434 0.0
H439 H 0.22902 0.41096 0.04107 0.0
H440 H 0.26137 0.4271 0.01639 0.0
H441 H 0.22555 0.47782 0.01565 0.0
H442 H 0.26069 0.58314 0.02182 0.0
H443 H 0.29654 0.5327 0.02326 0.0
H444 H 0.28731 0.58925 0.05205 0.0
H445 H 0.27293 0.44719 0.145 0.0
H446 H 0.32148 0.37915 0.13663 0.0
H447 H 0.31449 0.41859 0.04563 0.0
C448 C 0.20748 0.5708 0.06455 0.0
C449 C 0.18795 0.59578 0.08678 0.0
C450 C 0.19317 0.57422 0.1152 0.0
C451 C 0.21851 0.53085 0.12158 0.0
C452 C 0.23812 0.50938 0.09929 0.0
C453 C 0.23261 0.52765 0.0713 0.0
C454 C 0.25779 0.49901 0.05144 0.0
C455 C 0.24251 0.45084 0.02987 0.0
C456 C 0.27669 0.55434 0.03626 0.0
C457 C 0.27857 0.46259 0.07274 0.0
C458 C 0.26685 0.46932 0.10021 0.0
C459 C 0.28222 0.44092 0.12357 0.0
C460 C 0.30987 0.40279 0.11858 0.0
C461 C 0.32168 0.39348 0.09045 0.0
C462 C 0.30607 0.42481 0.06736 0.0
H463 H 0.3298 0.06908 0.47645 0.0
H464 H 0.37365 0.03713 0.3933 0.0
H465 H 0.3343 0.94888 0.38324 0.0
H466 H 0.30522 0.89125 0.48938 0.0
H467 H 0.26837 0.91815 0.50624 0.0
H468 H 0.30406 0.96833 0.50908 0.0
H469 H 0.27227 0.06882 0.4888 0.0
H470 H 0.2368 0.01878 0.48507 0.0
H471 H 0.25301 0.06148 0.45449 0.0
H472 H 0.28486 0.88001 0.3788 0.0
H473 H 0.23213 0.82476 0.38261 0.0
H474 H 0.22073 0.90347 0.46849 0.0
C475 C 0.33191 0.0419 0.45655 0.0
C476 C 0.35464 0.06001 0.43564 0.0
C477 C 0.35642 0.02389 0.40968 0.0
C478 C 0.33416 0.97375 0.40375 0.0
C479 C 0.31074 0.96004 0.42415 0.0
C480 C 0.30989 0.99205 0.45029 0.0
C481 C 0.2805 0.97301 0.46737 0.0
C482 C 0.29012 0.93542 0.49463 0.0
C483 C 0.25942 0.03417 0.47431 0.0
C484 C 0.26425 0.92761 0.44624 0.0
C485 C 0.28216 0.92021 0.42156 0.0
C486 C 0.27092 0.88419 0.39825 0.0
C487 C 0.24082 0.85365 0.40052 0.0
C488 C 0.22241 0.85975 0.42589 0.0
C489 C 0.23433 0.8975 0.4489 0.0
H490 H 0.70595 0.57848 0.96307 0.0
H491 H 0.6843 0.59353 0.87259 0.0
H492 H 0.72946 0.51749 0.86179 0.0
H493 H 0.78936 0.58278 0.95621 0.0
H494 H 0.79738 0.52406 0.98437 0.0
H495 H 0.76143 0.57424 0.98546 0.0
H496 H 0.72617 0.46836 0.98886 0.0
H497 H 0.76207 0.41785 0.98846 0.0
H498 H 0.73086 0.40354 0.96252 0.0
H499 H 0.77927 0.44702 0.86072 0.0
H500 H 0.82739 0.37797 0.86983 0.0
H501 H 0.81629 0.41223 0.96095 0.0
C502 C 0.71021 0.5648 0.94101 0.0
C503 C 0.69168 0.59189 0.91868 0.0
C504 C 0.69822 0.57317 0.89006 0.0
C505 C 0.72385 0.53027 0.88369 0.0
C506 C 0.74245 0.50663 0.90619 0.0
C507 C 0.73568 0.52248 0.93428 0.0
C508 C 0.75995 0.49244 0.95446 0.0
C509 C 0.77809 0.54663 0.97109 0.0
C510 C 0.7438 0.44257 0.97476 0.0
C511 C 0.78168 0.45783 0.93328 0.0
C512 C 0.77122 0.46653 0.90556 0.0
C513 C 0.78761 0.43941 0.88235 0.0
C514 C 0.81499 0.40067 0.88773 0.0
C515 C 0.82552 0.38974 0.91611 0.0
C516 C 0.8089 0.41977 0.93903 0.0
H517 H 0.71368 0.93061 0.54287 0.0
H518 H 0.70196 0.89829 0.63402 0.0
H519 H 0.74957 0.96773 0.64327 0.0
H520 H 0.79836 0.92133 0.54159 0.0
H521 H 0.80337 0.98575 0.51526 0.0
H522 H 0.76727 0.93655 0.5156 0.0
H523 H 0.73228 0.04332 0.51964 0.0
H524 H 0.76823 0.09294 0.51866 0.0
H525 H 0.74022 0.10212 0.54783 0.0
H526 H 0.79969 0.03504 0.64244 0.0
H527 H 0.84581 0.10762 0.63202 0.0
H528 H 0.82457 0.09483 0.54136 0.0
C529 C 0.72079 0.93885 0.56482 0.0
C530 C 0.70422 0.90897 0.58771 0.0
C531 C 0.71432 0.92085 0.61613 0.0
C532 C 0.74141 0.95983 0.62161 0.0
C533 C 0.75786 0.9865 0.59845 0.0
C534 C 0.74769 0.97742 0.57067 0.0
C535 C 0.76969 0.01138 0.54961 0.0
C536 C 0.78561 0.9607 0.52933 0.0
C537 C 0.75152 0.06567 0.53297 0.0
C538 C 0.79389 0.04089 0.56993 0.0
C539 C 0.78675 0.02558 0.59797 0.0
C540 C 0.8055 0.04769 0.62059 0.0
C541 C 0.83171 0.08857 0.61441 0.0
C542 C 0.83868 0.10695 0.58586 0.0
C543 C 0.81993 0.08142 0.56336 0.0
loop_
_geom_bond_atom_site_label_1
_geom_bond_atom_site_label_2
_geom_bond_distance
_geom_bond_site_symmetry_2
_ccdc_geom_bond_type
O0 Cd1 2.223 . S
O0 C8 1.315 . S
Cd1 O0 2.223 . S
Cd1 O4 2.297 . S
Cd1 O5 2.439 . S
Cd1 O11 2.240 . S
Cd2 O3 2.240 . S
Cd2 O10 2.223 . S
Cd2 O12 2.297 . S
Cd2 O13 2.439 . S
O3 Cd2 2.240 . S
O3 C8 1.279 . S
O4 Cd1 2.297 . S
O4 C6 1.247 . S
O5 Cd1 2.439 . S
O5 C6 1.208 . S
C6 O4 1.247 . S
C6 O5 1.208 . S
C7 O12 1.247 . S
C7 O13 1.208 . S
C8 O0 1.315 . S
C8 O3 1.279 . S
C9 O10 1.315 . S
C9 O11 1.279 . S
O10 Cd2 2.223 . S
O10 C9 1.315 . S
O11 Cd1 2.240 . S
O11 C9 1.279 . S
O12 Cd2 2.297 . S
O12 C7 1.247 . S
O13 Cd2 2.439 . S
O13 C7 1.208 . S
O14 Cd15 2.223 . S
O14 C22 1.315 . S
Cd15 O14 2.223 . S
Cd15 O18 2.297 . S
Cd15 O19 2.439 . S
Cd15 O25 2.240 . S
Cd16 O17 2.240 . S
Cd16 O24 2.223 . S
Cd16 O26 2.297 . S
Cd16 O27 2.439 . S
O17 Cd16 2.240 . S
O17 C22 1.279 . S
O18 Cd15 2.297 . S
O18 C20 1.247 . S
O19 Cd15 2.439 . S
O19 C20 1.208 . S
C20 O18 1.247 . S
C20 O19 1.208 . S
C21 O26 1.247 . S
C21 O27 1.208 . S
C22 O14 1.315 . S
C22 O17 1.279 . S
C23 O24 1.315 . S
C23 O25 1.279 . S
O24 Cd16 2.223 . S
O24 C23 1.315 . S
O25 Cd15 2.240 . S
O25 C23 1.279 . S
O26 Cd16 2.297 . S
O26 C21 1.247 . S
O27 Cd16 2.439 . S
O27 C21 1.208 . S
O28 Cd29 2.223 . S
O28 C36 1.315 . S
Cd29 O28 2.223 . S
Cd29 O32 2.297 . S
Cd29 O33 2.439 . S
Cd29 O39 2.240 . S
Cd30 O31 2.240 . S
Cd30 O38 2.223 . S
Cd30 O40 2.297 . S
Cd30 O41 2.439 . S
O31 Cd30 2.240 . S
O31 C36 1.279 . S
O32 Cd29 2.297 . S
O32 C34 1.247 . S
O33 Cd29 2.439 . S
O33 C34 1.208 . S
C34 O32 1.247 . S
C34 O33 1.208 . S
C35 O40 1.247 . S
C35 O41 1.208 . S
C36 O28 1.315 . S
C36 O31 1.279 . S
C37 O38 1.315 . S
C37 O39 1.279 . S
O38 Cd30 2.223 . S
O38 C37 1.315 . S
O39 Cd29 2.240 . S
O39 C37 1.279 . S
O40 Cd30 2.297 . S
O40 C35 1.247 . S
O41 Cd30 2.439 . S
O41 C35 1.208 . S
O42 Cd43 2.223 . S
O42 C50 1.315 . S
Cd43 O42 2.223 . S
Cd43 O46 2.297 . S
Cd43 O47 2.439 . S
Cd43 O53 2.240 . S
Cd44 O45 2.240 . S
Cd44 O52 2.223 . S
Cd44 O54 2.297 . S
Cd44 O55 2.439 . S
O45 Cd44 2.240 . S
O45 C50 1.279 . S
O46 Cd43 2.297 . S
O46 C48 1.247 . S
O47 Cd43 2.439 . S
O47 C48 1.208 . S
C48 O46 1.247 . S
C48 O47 1.208 . S
C49 O54 1.247 . S
C49 O55 1.208 . S
C50 O42 1.315 . S
C50 O45 1.279 . S
C51 O52 1.315 . S
C51 O53 1.279 . S
O52 Cd44 2.223 . S
O52 C51 1.315 . S
O53 Cd43 2.240 . S
O53 C51 1.279 . S
O54 Cd44 2.297 . S
O54 C49 1.247 . S
O55 Cd44 2.439 . S
O55 C49 1.208 . S
O56 Cd57 2.223 . S
O56 C64 1.315 . S
Cd57 O56 2.223 . S
Cd57 O60 2.297 . S
Cd57 O61 2.439 . S
Cd57 O67 2.240 . S
Cd58 O59 2.240 . S
Cd58 O66 2.223 . S
Cd58 O68 2.297 . S
Cd58 O69 2.439 . S
O59 Cd58 2.240 . S
O59 C64 1.279 . S
O60 Cd57 2.297 . S
O60 C62 1.247 . S
O61 Cd57 2.439 . S
O61 C62 1.208 . S
C62 O60 1.247 . S
C62 O61 1.208 . S
C63 O68 1.247 . S
C63 O69 1.208 . S
C64 O56 1.315 . S
C64 O59 1.279 . S
C65 O66 1.315 . S
C65 O67 1.279 . S
O66 Cd58 2.223 . S
O66 C65 1.315 . S
O67 Cd57 2.240 . S
O67 C65 1.279 . S
O68 Cd58 2.297 . S
O68 C63 1.247 . S
O69 Cd58 2.439 . S
O69 C63 1.208 . S
O70 Cd71 2.223 . S
O70 C78 1.315 . S
Cd71 O70 2.223 . S
Cd71 O74 2.297 . S
Cd71 O75 2.439 . S
Cd71 O81 2.240 . S
Cd72 O73 2.240 . S
Cd72 O80 2.223 . S
Cd72 O82 2.297 . S
Cd72 O83 2.439 . S
O73 Cd72 2.240 . S
O73 C78 1.279 . S
O74 Cd71 2.297 . S
O74 C76 1.247 . S
O75 Cd71 2.439 . S
O75 C76 1.208 . S
C76 O74 1.247 . S
C76 O75 1.208 . S
C77 O82 1.247 . S
C77 O83 1.208 . S
C78 O70 1.315 . S
C78 O73 1.279 . S
C79 O80 1.315 . S
C79 O81 1.279 . S
O80 Cd72 2.223 . S
O80 C79 1.315 . S
O81 Cd71 2.240 . S
O81 C79 1.279 . S
O82 Cd72 2.297 . S
O82 C77 1.247 . S
O83 Cd72 2.439 . S
O83 C77 1.208 . S
O84 Cd85 2.223 . S
O84 C92 1.315 . S
Cd85 O84 2.223 . S
Cd85 O88 2.297 . S
Cd85 O89 2.439 . S
Cd85 O95 2.240 . S
Cd86 O87 2.240 . S
Cd86 O94 2.223 . S
Cd86 O96 2.297 . S
Cd86 O97 2.439 . S
O87 Cd86 2.240 . S
O87 C92 1.279 . S
O88 Cd85 2.297 . S
O88 C90 1.247 . S
O89 Cd85 2.439 . S
O89 C90 1.208 . S
C90 O88 1.247 . S
C90 O89 1.208 . S
C91 O96 1.247 . S
C91 O97 1.208 . S
C92 O84 1.315 . S
C92 O87 1.279 . S
C93 O94 1.315 . S
C93 O95 1.279 . S
O94 Cd86 2.223 . S
O94 C93 1.315 . S
O95 Cd85 2.240 . S
O95 C93 1.279 . S
O96 Cd86 2.297 . S
O96 C91 1.247 . S
O97 Cd86 2.439 . S
O97 C91 1.208 . S
O98 Cd99 2.223 . S
O98 C106 1.315 . S
Cd99 O98 2.223 . S
Cd99 O102 2.297 . S
Cd99 O103 2.439 . S
Cd99 O109 2.240 . S
Cd100 O101 2.240 . S
Cd100 O108 2.223 . S
Cd100 O110 2.297 . S
Cd100 O111 2.439 . S
O101 Cd100 2.240 . S
O101 C106 1.279 . S
O102 Cd99 2.297 . S
O102 C104 1.247 . S
O103 Cd99 2.439 . S
O103 C104 1.208 . S
C104 O102 1.247 . S
C104 O103 1.208 . S
C105 O110 1.247 . S
C105 O111 1.208 . S
C106 O98 1.315 . S
C106 O101 1.279 . S
C107 O108 1.315 . S
C107 O109 1.279 . S
O108 Cd100 2.223 . S
O108 C107 1.315 . S
O109 Cd99 2.240 . S
O109 C107 1.279 . S
O110 Cd100 2.297 . S
O110 C105 1.247 . S
O111 Cd100 2.439 . S
O111 C105 1.208 . S
H112 C124 0.930 . S
H113 C126 0.930 . S
H114 C127 0.930 . S
H115 C131 0.959 . S
H116 C131 0.959 . S
H117 C131 0.961 . S
H118 C132 0.960 . S
H119 C132 0.961 1_565 S
H120 C132 0.959 . S
H121 C135 0.929 . S
H122 C136 0.931 . S
H123 C138 0.930 . S
C124 H112 0.930 . S
C124 C125 1.399 . S
C124 C129 1.399 . S
C125 C124 1.399 . S
C125 C126 1.376 . S
C126 H113 0.930 . S
C126 C125 1.376 . S
C126 C127 1.388 . S
C127 H114 0.930 . S
C127 C126 1.388 . S
C127 C128 1.390 . S
C128 C127 1.390 . S
C128 C129 1.394 . S
C128 C134 1.465 1_545 S
C129 C124 1.399 . S
C129 C128 1.394 . S
C129 C130 1.516 1_545 S
C130 C129 1.516 1_565 S
C130 C131 1.502 . S
C130 C132 1.561 1_565 S
C130 C133 1.526 . S
C131 H115 0.959 . S
C131 H116 0.959 . S
C131 H117 0.961 . S
C131 C130 1.502 . S
C132 H118 0.960 . S
C132 H119 0.961 1_545 S
C132 H120 0.959 . S
C132 C130 1.561 1_545 S
C133 C130 1.526 . S
C133 C134 1.396 . S
C133 C138 1.390 . S
C134 C128 1.465 1_565 S
C134 C133 1.396 . S
C134 C135 1.399 . S
C135 H121 0.929 . S
C135 C134 1.399 . S
C135 C136 1.385 . S
C136 H122 0.931 . S
C136 C135 1.385 . S
C136 C137 1.389 . S
C137 C136 1.389 . S
C137 C138 1.387 . S
C138 H123 0.930 . S
C138 C133 1.390 . S
C138 C137 1.387 . S
H139 C151 0.930 . S
H140 C153 0.930 . S
H141 C154 0.930 . S
H142 C158 0.959 . S
H143 C158 0.959 . S
H144 C158 0.961 . S
H145 C159 0.960 . S
H146 C159 0.961 . S
H147 C159 0.959 . S
H148 C162 0.929 . S
H149 C163 0.931 . S
H150 C165 0.930 . S
C151 H139 0.930 . S
C151 C152 1.399 . S
C151 C156 1.399 . S
C152 C151 1.399 . S
C152 C153 1.376 . S
C153 H140 0.930 . S
C153 C152 1.376 . S
C153 C154 1.388 . S
C154 H141 0.930 . S
C154 C153 1.388 . S
C154 C155 1.390 . S
C155 C154 1.390 . S
C155 C156 1.394 . S
C155 C161 1.465 . S
C156 C151 1.399 . S
C156 C155 1.394 . S
C156 C157 1.516 . S
C157 C156 1.516 . S
C157 C158 1.502 . S
C157 C159 1.561 . S
C157 C160 1.526 . S
C158 H142 0.959 . S
C158 H143 0.959 . S
C158 H144 0.961 . S
C158 C157 1.502 . S
C159 H145 0.960 . S
C159 H146 0.961 . S
C159 H147 0.959 . S
C159 C157 1.561 . S
C160 C157 1.526 . S
C160 C161 1.396 . S
C160 C165 1.390 . S
C161 C155 1.465 . S
C161 C160 1.396 . S
C161 C162 1.399 . S
C162 H148 0.929 . S
C162 C161 1.399 . S
C162 C163 1.385 . S
C163 H149 0.931 . S
C163 C162 1.385 . S
C163 C164 1.389 . S
C164 C163 1.389 . S
C164 C165 1.387 . S
C165 H150 0.930 . S
C165 C160 1.390 . S
C165 C164 1.387 . S
H166 C178 0.930 . S
H167 C180 0.930 . S
H168 C181 0.930 1_545 S
H169 C185 0.959 . S
H170 C185 0.959 . S
H171 C185 0.961 . S
H172 C186 0.960 . S
H173 C186 0.961 1_545 S
H174 C186 0.959 1_545 S
H175 C189 0.929 . S
H176 C190 0.931 . S
H177 C192 0.930 . S
C178 H166 0.930 . S
C178 C179 1.399 . S
C178 C183 1.399 . S
C179 C178 1.399 . S
C179 C180 1.376 . S
C180 H167 0.930 . S
C180 C179 1.376 . S
C180 C181 1.388 . S
C181 H168 0.930 1_565 S
C181 C180 1.388 . S
C181 C182 1.390 . S
C182 C181 1.390 . S
C182 C183 1.394 . S
C182 C188 1.465 1_565 S
C183 C178 1.399 . S
C183 C182 1.394 . S
C183 C184 1.516 . S
C184 C183 1.516 . S
C184 C185 1.502 . S
C184 C186 1.561 . S
C184 C187 1.526 1_565 S
C185 H169 0.959 . S
C185 H170 0.959 . S
C185 H171 0.961 . S
C185 C184 1.502 . S
C186 H172 0.960 . S
C186 H173 0.961 1_565 S
C186 H174 0.959 1_565 S
C186 C184 1.561 . S
C187 C184 1.526 1_545 S
C187 C188 1.396 . S
C187 C192 1.390 . S
C188 C182 1.465 1_545 S
C188 C187 1.396 . S
C188 C189 1.399 . S
C189 H175 0.929 . S
C189 C188 1.399 . S
C189 C190 1.385 . S
C190 H176 0.931 . S
C190 C189 1.385 . S
C190 C191 1.389 . S
C191 C190 1.389 . S
C191 C192 1.387 . S
C192 H177 0.930 . S
C192 C187 1.390 . S
C192 C191 1.387 . S
H193 C205 0.930 . S
H194 C207 0.930 . S
H195 C208 0.930 . S
H196 C212 0.959 . S
H197 C212 0.959 . S
H198 C212 0.961 . S
H199 C213 0.960 . S
H200 C213 0.961 . S
H201 C213 0.959 . S
H202 C216 0.929 . S
H203 C217 0.931 . S
H204 C219 0.930 . S
C205 H193 0.930 . S
C205 C206 1.399 . S
C205 C210 1.399 . S
C206 C205 1.399 . S
C206 C207 1.376 . S
C207 H194 0.930 . S
C207 C206 1.376 . S
C207 C208 1.388 . S
C208 H195 0.930 . S
C208 C207 1.388 . S
C208 C209 1.390 . S
C209 C208 1.390 . S
C209 C210 1.394 . S
C209 C215 1.465 . S
C210 C205 1.399 . S
C210 C209 1.394 . S
C210 C211 1.516 . S
C211 C210 1.516 . S
C211 C212 1.502 . S
C211 C213 1.561 . S
C211 C214 1.526 . S
C212 H196 0.959 . S
C212 H197 0.959 . S
C212 H198 0.961 . S
C212 C211 1.502 . S
C213 H199 0.960 . S
C213 H200 0.961 . S
C213 H201 0.959 . S
C213 C211 1.561 . S
C214 C211 1.526 . S
C214 C215 1.396 . S
C214 C219 1.390 . S
C215 C209 1.465 . S
C215 C214 1.396 . S
C215 C216 1.399 . S
C216 H202 0.929 . S
C216 C215 1.399 . S
C216 C217 1.385 . S
C217 H203 0.931 . S
C217 C216 1.385 . S
C217 C218 1.389 . S
C218 C217 1.389 . S
C218 C219 1.387 . S
C219 H204 0.930 . S
C219 C214 1.390 . S
C219 C218 1.387 . S
H220 C232 0.930 . S
H221 C234 0.930 . S
H222 C235 0.930 . S
H223 C239 0.959 . S
H224 C239 0.959 . S
H225 C239 0.961 . S
H226 C240 0.960 . S
H227 C240 0.961 . S
H228 C240 0.959 . S
H229 C243 0.929 . S
H230 C244 0.931 . S
H231 C246 0.930 . S
C232 H220 0.930 . S
C232 C233 1.399 . S
C232 C237 1.399 . S
C233 C232 1.399 . S
C233 C234 1.376 . S
C234 H221 0.930 . S
C234 C233 1.376 . S
C234 C235 1.388 . S
C235 H222 0.930 . S
C235 C234 1.388 . S
C235 C236 1.390 . S
C236 C235 1.390 . S
C236 C237 1.394 . S
C236 C242 1.465 . S
C237 C232 1.399 . S
C237 C236 1.394 . S
C237 C238 1.516 . S
C238 C237 1.516 . S
C238 C239 1.502 . S
C238 C240 1.561 . S
C238 C241 1.526 . S
C239 H223 0.959 . S
C239 H224 0.959 . S
C239 H225 0.961 . S
C239 C238 1.502 . S
C240 H226 0.960 . S
C240 H227 0.961 . S
C240 H228 0.959 . S
C240 C238 1.561 . S
C241 C238 1.526 . S
C241 C242 1.396 . S
C241 C246 1.390 . S
C242 C236 1.465 . S
C242 C241 1.396 . S
C242 C243 1.399 . S
C243 H229 0.929 . S
C243 C242 1.399 . S
C243 C244 1.385 . S
C244 H230 0.931 . S
C244 C243 1.385 . S
C244 C245 1.389 . S
C245 C244 1.389 . S
C245 C246 1.387 . S
C246 H231 0.930 . S
C246 C241 1.390 . S
C246 C245 1.387 . S
H247 C259 0.930 . S
H248 C261 0.930 . S
H249 C262 0.930 . S
H250 C266 0.959 . S
H251 C266 0.959 . S
H252 C266 0.961 . S
H253 C267 0.960 . S
H254 C267 0.961 . S
H255 C267 0.959 . S
H256 C270 0.929 . S
H257 C271 0.931 . S
H258 C273 0.930 . S
C259 H247 0.930 . S
C259 C260 1.399 . S
C259 C264 1.399 . S
C260 C259 1.399 . S
C260 C261 1.376 . S
C261 H248 0.930 . S
C261 C260 1.376 . S
C261 C262 1.388 . S
C262 H249 0.930 . S
C262 C261 1.388 . S
C262 C263 1.390 . S
C263 C262 1.390 . S
C263 C264 1.394 . S
C263 C269 1.465 . S
C264 C259 1.399 . S
C264 C263 1.394 . S
C264 C265 1.516 . S
C265 C264 1.516 . S
C265 C266 1.502 . S
C265 C267 1.561 . S
C265 C268 1.526 . S
C266 H250 0.959 . S
C266 H251 0.959 . S
C266 H252 0.961 . S
C266 C265 1.502 . S
C267 H253 0.960 . S
C267 H254 0.961 . S
C267 H255 0.959 . S
C267 C265 1.561 . S
C268 C265 1.526 . S
C268 C269 1.396 . S
C268 C273 1.390 . S
C269 C263 1.465 . S
C269 C268 1.396 . S
C269 C270 1.399 . S
C270 H256 0.929 . S
C270 C269 1.399 . S
C270 C271 1.385 . S
C271 H257 0.931 . S
C271 C270 1.385 . S
C271 C272 1.389 . S
C272 C271 1.389 . S
C272 C273 1.387 . S
C273 H258 0.930 . S
C273 C268 1.390 . S
C273 C272 1.387 . S
H274 C286 0.930 . S
H275 C288 0.930 . S
H276 C289 0.930 . S
H277 C293 0.959 . S
H278 C293 0.959 . S
H279 C293 0.961 . S
H280 C294 0.960 . S
H281 C294 0.961 . S
H282 C294 0.959 . S
H283 C297 0.929 . S
H284 C298 0.931 . S
H285 C300 0.930 . S
C286 H274 0.930 . S
C286 C287 1.399 . S
C286 C291 1.399 . S
C287 C286 1.399 . S
C287 C288 1.376 . S
C288 H275 0.930 . S
C288 C287 1.376 . S
C288 C289 1.388 . S
C289 H276 0.930 . S
C289 C288 1.388 . S
C289 C290 1.390 . S
C290 C289 1.390 . S
C290 C291 1.394 . S
C290 C296 1.465 . S
C291 C286 1.399 . S
C291 C290 1.394 . S
C291 C292 1.516 . S
C292 C291 1.516 . S
C292 C293 1.502 . S
C292 C294 1.561 . S
C292 C295 1.526 . S
C293 H277 0.959 . S
C293 H278 0.959 . S
C293 H279 0.961 . S
C293 C292 1.502 . S
C294 H280 0.960 . S
C294 H281 0.961 . S
C294 H282 0.959 . S
C294 C292 1.561 . S
C295 C292 1.526 . S
C295 C296 1.396 . S
C295 C300 1.390 . S
C296 C290 1.465 . S
C296 C295 1.396 . S
C296 C297 1.399 . S
C297 H283 0.929 . S
C297 C296 1.399 . S
C297 C298 1.385 . S
C298 H284 0.931 . S
C298 C297 1.385 . S
C298 C299 1.389 . S
C299 C298 1.389 . S
C299 C300 1.387 . S
C300 H285 0.930 . S
C300 C295 1.390 . S
C300 C299 1.387 . S
H301 C313 0.930 . S
H302 C315 0.930 . S
H303 C316 0.930 . S
H304 C320 0.959 . S
H305 C320 0.959 . S
H306 C320 0.961 . S
H307 C321 0.960 . S
H308 C321 0.961 . S
H309 C321 0.959 . S
H310 C324 0.929 . S
H311 C325 0.931 . S
H312 C327 0.930 . S
C313 H301 0.930 . S
C313 C314 1.399 . S
C313 C318 1.399 . S
C314 C313 1.399 . S
C314 C315 1.376 . S
C315 H302 0.930 . S
C315 C314 1.376 . S
C315 C316 1.388 . S
C316 H303 0.930 . S
C316 C315 1.388 . S
C316 C317 1.390 . S
C317 C316 1.390 . S
C317 C318 1.394 . S
C317 C323 1.465 . S
C318 C313 1.399 . S
C318 C317 1.394 . S
C318 C319 1.516 . S
C319 C318 1.516 . S
C319 C320 1.502 . S
C319 C321 1.561 . S
C319 C322 1.526 . S
C320 H304 0.959 . S
C320 H305 0.959 . S
C320 H306 0.961 . S
C320 C319 1.502 . S
C321 H307 0.960 . S
C321 H308 0.961 . S
C321 H309 0.959 . S
C321 C319 1.561 . S
C322 C319 1.526 . S
C322 C323 1.396 . S
C322 C327 1.390 . S
C323 C317 1.465 . S
C323 C322 1.396 . S
C323 C324 1.399 . S
C324 H310 0.929 . S
C324 C323 1.399 . S
C324 C325 1.385 . S
C325 H311 0.931 . S
C325 C324 1.385 . S
C325 C326 1.389 . S
C326 C325 1.389 . S
C326 C327 1.387 . S
C327 H312 0.930 . S
C327 C322 1.390 . S
C327 C326 1.387 . S
H328 C340 0.900 1_556 S
H329 C342 0.930 . S
H330 C343 0.930 . S
H331 C347 0.959 . S
H332 C347 0.959 . S
H333 C347 0.961 . S
H334 C348 0.960 . S
H335 C348 0.961 . S
H336 C348 0.959 . S
H337 C351 0.929 . S
H338 C352 0.931 . S
H339 C354 0.930 . S
C340 H328 0.900 1_554 S
C340 C341 1.436 . S
C340 C345 1.393 1_554 S
C341 C340 1.436 . S
C341 C342 1.376 . S
C342 H329 0.930 . S
C342 C341 1.376 . S
C342 C343 1.388 . S
C343 H330 0.930 . S
C343 C342 1.388 . S
C343 C344 1.390 . S
C344 C343 1.390 . S
C344 C345 1.394 1_554 S
C344 C350 1.465 . S
C345 C340 1.393 1_556 S
C345 C344 1.394 1_556 S
C345 C346 1.516 . S
C346 C345 1.516 . S
C346 C347 1.502 . S
C346 C348 1.561 . S
C346 C349 1.526 . S
C347 H331 0.959 . S
C347 H332 0.959 . S
C347 H333 0.961 . S
C347 C346 1.502 . S
C348 H334 0.960 . S
C348 H335 0.961 . S
C348 H336 0.959 . S
C348 C346 1.561 . S
C349 C346 1.526 . S
C349 C350 1.396 1_556 S
C349 C354 1.390 . S
C350 C344 1.465 . S
C350 C349 1.396 1_554 S
C350 C351 1.399 . S
C351 H337 0.929 . S
C351 C350 1.399 . S
C351 C352 1.385 . S
C352 H338 0.931 . S
C352 C351 1.385 . S
C352 C353 1.389 1_554 S
C353 C352 1.389 1_556 S
C353 C354 1.387 . S
C354 H339 0.930 . S
C354 C349 1.390 . S
C354 C353 1.387 . S
H355 C367 0.930 . S
H356 C369 0.930 . S
H357 C370 0.930 . S
H358 C374 0.959 . S
H359 C374 0.959 . S
H360 C374 0.961 . S
H361 C375 0.960 . S
H362 C375 0.961 . S
H363 C375 0.959 . S
H364 C378 0.929 . S
H365 C379 0.931 . S
H366 C381 0.930 . S
C367 H355 0.930 . S
C367 C368 1.399 . S
C367 C372 1.399 . S
C368 C367 1.399 . S
C368 C369 1.376 . S
C369 H356 0.930 . S
C369 C368 1.376 . S
C369 C370 1.388 1_455 S
C370 H357 0.930 . S
C370 C369 1.388 1_655 S
C370 C371 1.390 . S
C371 C370 1.390 . S
C371 C372 1.394 1_655 S
C371 C377 1.465 1_554 S
C372 C367 1.399 . S
C372 C371 1.394 1_455 S
C372 C373 1.516 . S
C373 C372 1.516 . S
C373 C374 1.502 1_554 S
C373 C375 1.561 . S
C373 C376 1.526 1_454 S
C374 H358 0.959 . S
C374 H359 0.959 . S
C374 H360 0.961 . S
C374 C373 1.502 1_556 S
C375 H361 0.960 . S
C375 H362 0.961 . S
C375 H363 0.959 . S
C375 C373 1.561 . S
C376 C373 1.526 1_656 S
C376 C377 1.396 . S
C376 C381 1.390 . S
C377 C371 1.465 1_556 S
C377 C376 1.396 . S
C377 C378 1.399 . S
C378 H364 0.929 . S
C378 C377 1.399 . S
C378 C379 1.385 . S
C379 H365 0.931 . S
C379 C378 1.385 . S
C379 C380 1.389 . S
C380 C379 1.389 . S
C380 C381 1.387 . S
C381 H366 0.930 . S
C381 C376 1.390 . S
C381 C380 1.387 . S
H382 C394 0.930 . S
H383 C396 0.930 . S
H384 C397 0.930 . S
H385 C401 0.959 . S
H386 C401 0.959 . S
H387 C401 0.961 . S
H388 C402 0.960 . S
H389 C402 0.961 . S
H390 C402 0.959 . S
H391 C405 0.929 1_565 S
H392 C406 0.931 . S
H393 C408 0.930 . S
C394 H382 0.930 . S
C394 C395 1.399 . S
C394 C399 1.399 . S
C395 C394 1.399 . S
C395 C396 1.376 . S
C396 H383 0.930 . S
C396 C395 1.376 . S
C396 C397 1.388 . S
C397 H384 0.930 . S
C397 C396 1.388 . S
C397 C398 1.390 . S
C398 C397 1.390 . S
C398 C399 1.394 . S
C398 C404 1.465 1_565 S
C399 C394 1.399 . S
C399 C398 1.394 . S
C399 C400 1.516 1_565 S
C400 C399 1.516 1_545 S
C400 C401 1.502 . S
C400 C402 1.561 . S
C400 C403 1.526 . S
C401 H385 0.959 . S
C401 H386 0.959 . S
C401 H387 0.961 . S
C401 C400 1.502 . S
C402 H388 0.960 . S
C402 H389 0.961 . S
C402 H390 0.959 . S
C402 C400 1.561 . S
C403 C400 1.526 . S
C403 C404 1.396 . S
C403 C408 1.390 . S
C404 C398 1.465 1_545 S
C404 C403 1.396 . S
C404 C405 1.399 . S
C405 H391 0.929 1_545 S
C405 C404 1.399 . S
C405 C406 1.385 . S
C406 H392 0.931 . S
C406 C405 1.385 . S
C406 C407 1.389 . S
C407 C406 1.389 . S
C407 C408 1.387 . S
C408 H393 0.930 . S
C408 C403 1.390 . S
C408 C407 1.387 . S
H409 C421 0.930 . S
H410 C423 0.930 . S
H411 C424 0.930 1_455 S
H412 C428 0.959 . S
H413 C428 0.959 . S
H414 C428 0.961 1_545 S
H415 C429 0.960 1_655 S
H416 C429 0.961 . S
H417 C429 0.959 . S
H418 C432 0.929 . S
H419 C433 0.931 . S
H420 C435 0.930 . S
C421 H409 0.930 . S
C421 C422 1.399 . S
C421 C426 1.399 . S
C422 C421 1.399 . S
C422 C423 1.376 . S
C423 H410 0.930 . S
C423 C422 1.376 . S
C423 C424 1.388 . S
C424 H411 0.930 1_655 S
C424 C423 1.388 . S
C424 C425 1.390 . S
C425 C424 1.390 . S
C425 C426 1.394 . S
C425 C431 1.465 1_645 S
C426 C421 1.399 . S
C426 C425 1.394 . S
C426 C427 1.516 . S
C427 C426 1.516 . S
C427 C428 1.502 1_545 S
C427 C429 1.561 1_655 S
C427 C430 1.526 1_645 S
C428 H412 0.959 . S
C428 H413 0.959 . S
C428 H414 0.961 1_565 S
C428 C427 1.502 1_565 S
C429 H415 0.960 1_455 S
C429 H416 0.961 . S
C429 H417 0.959 . S
C429 C427 1.561 1_455 S
C430 C427 1.526 1_465 S
C430 C431 1.396 . S
C430 C435 1.390 . S
C431 C425 1.465 1_465 S
C431 C430 1.396 . S
C431 C432 1.399 . S
C432 H418 0.929 . S
C432 C431 1.399 . S
C432 C433 1.385 . S
C433 H419 0.931 . S
C433 C432 1.385 . S
C433 C434 1.389 . S
C434 C433 1.389 . S
C434 C435 1.387 . S
C435 H420 0.930 . S
C435 C430 1.390 . S
C435 C434 1.387 . S
H436 C448 0.930 . S
H437 C450 0.930 . S
H438 C451 0.930 . S
H439 C455 0.959 1_554 S
H440 C455 0.959 . S
H441 C455 0.961 . S
H442 C456 0.960 . S
H443 C456 0.961 . S
H444 C456 0.952 1_554 S
H445 C459 0.929 . S
H446 C460 0.931 . S
H447 C462 0.930 . S
C448 H436 0.930 . S
C448 C449 1.399 . S
C448 C453 1.399 . S
C449 C448 1.399 . S
C449 C450 1.376 . S
C450 H437 0.930 . S
C450 C449 1.376 . S
C450 C451 1.388 . S
C451 H438 0.930 . S
C451 C450 1.388 . S
C451 C452 1.390 . S
C452 C451 1.390 . S
C452 C453 1.394 . S
C452 C458 1.465 . S
C453 C448 1.399 . S
C453 C452 1.394 . S
C453 C454 1.516 . S
C454 C453 1.516 . S
C454 C455 1.502 1_554 S
C454 C456 1.561 1_554 S
C454 C457 1.526 . S
C455 H439 0.959 1_556 S
C455 H440 0.959 . S
C455 H441 0.961 . S
C455 C454 1.502 1_556 S
C456 H442 0.960 . S
C456 H443 0.961 . S
C456 H444 0.952 1_556 S
C456 C454 1.561 1_556 S
C457 C454 1.526 . S
C457 C458 1.396 . S
C457 C462 1.390 . S
C458 C452 1.465 . S
C458 C457 1.396 . S
C458 C459 1.399 . S
C459 H445 0.929 . S
C459 C458 1.399 . S
C459 C460 1.385 . S
C460 H446 0.931 . S
C460 C459 1.385 . S
C460 C461 1.389 . S
C461 C460 1.389 . S
C461 C462 1.387 . S
C462 H447 0.930 . S
C462 C457 1.390 . S
C462 C461 1.387 . S
H463 C475 0.930 . S
H464 C477 0.930 . S
H465 C478 0.930 . S
H466 C482 0.959 . S
H467 C482 0.959 . S
H468 C482 0.961 . S
H469 C483 0.960 . S
H470 C483 0.961 . S
H471 C483 0.959 . S
H472 C486 0.929 . S
H473 C487 0.931 . S
H474 C489 0.930 . S
C475 H463 0.930 . S
C475 C476 1.399 . S
C475 C480 1.399 . S
C476 C475 1.399 . S
C476 C477 1.376 . S
C477 H464 0.930 . S
C477 C476 1.376 . S
C477 C478 1.388 . S
C478 H465 0.930 . S
C478 C477 1.388 . S
C478 C479 1.390 . S
C479 C478 1.390 . S
C479 C480 1.394 . S
C479 C485 1.465 1_545 S
C480 C475 1.399 . S
C480 C479 1.394 . S
C480 C481 1.516 1_545 S
C481 C480 1.516 1_565 S
C481 C482 1.502 . S
C481 C483 1.561 1_565 S
C481 C484 1.526 . S
C482 H466 0.959 . S
C482 H467 0.959 . S
C482 H468 0.961 . S
C482 C481 1.502 . S
C483 H469 0.960 . S
C483 H470 0.961 . S
C483 H471 0.959 . S
C483 C481 1.561 1_545 S
C484 C481 1.526 . S
C484 C485 1.396 . S
C484 C489 1.390 . S
C485 C479 1.465 1_565 S
C485 C484 1.396 . S
C485 C486 1.399 . S
C486 H472 0.929 . S
C486 C485 1.399 . S
C486 C487 1.385 . S
C487 H473 0.931 . S
C487 C486 1.385 . S
C487 C488 1.389 . S
C488 C487 1.389 . S
C488 C489 1.387 . S
C489 H474 0.930 . S
C489 C484 1.390 . S
C489 C488 1.387 . S
H490 C502 0.930 . S
H491 C504 0.930 . S
H492 C505 0.930 . S
H493 C509 0.959 . S
H494 C509 0.959 . S
H495 C509 0.961 . S
H496 C510 0.960 . S
H497 C510 0.961 . S
H498 C510 0.959 . S
H499 C513 0.929 . S
H500 C514 0.931 . S
H501 C516 0.930 . S
C502 H490 0.930 . S
C502 C503 1.399 . S
C502 C507 1.399 . S
C503 C502 1.399 . S
C503 C504 1.376 . S
C504 H491 0.930 . S
C504 C503 1.376 . S
C504 C505 1.388 . S
C505 H492 0.930 . S
C505 C504 1.388 . S
C505 C506 1.390 . S
C506 C505 1.390 . S
C506 C507 1.394 . S
C506 C512 1.465 . S
C507 C502 1.399 . S
C507 C506 1.394 . S
C507 C508 1.516 . S
C508 C507 1.516 . S
C508 C509 1.502 1_556 S
C508 C510 1.561 . S
C508 C511 1.526 . S
C509 H493 0.959 . S
C509 H494 0.959 . S
C509 H495 0.961 . S
C509 C508 1.502 1_554 S
C510 H496 0.960 . S
C510 H497 0.961 . S
C510 H498 0.959 . S
C510 C508 1.561 . S
C511 C508 1.526 . S
C511 C512 1.396 . S
C511 C516 1.390 . S
C512 C506 1.465 . S
C512 C511 1.396 . S
C512 C513 1.399 . S
C513 H499 0.929 . S
C513 C512 1.399 . S
C513 C514 1.385 . S
C514 H500 0.931 . S
C514 C513 1.385 . S
C514 C515 1.389 . S
C515 C514 1.389 . S
C515 C516 1.387 . S
C516 H501 0.930 . S
C516 C511 1.390 . S
C516 C515 1.387 . S
H517 C529 0.930 . S
H518 C531 0.930 . S
H519 C532 0.930 . S
H520 C536 0.959 . S
H521 C536 0.959 . S
H522 C536 0.961 . S
H523 C537 0.960 . S
H524 C537 0.961 . S
H525 C537 0.959 . S
H526 C540 0.929 . S
H527 C541 0.931 . S
H528 C543 0.930 . S
C529 H517 0.930 . S
C529 C530 1.399 . S
C529 C534 1.399 . S
C530 C529 1.399 . S
C530 C531 1.376 . S
C531 H518 0.930 . S
C531 C530 1.376 . S
C531 C532 1.388 1_565 S
C532 H519 0.930 . S
C532 C531 1.388 1_545 S
C532 C533 1.390 1_545 S
C533 C532 1.390 1_565 S
C533 C534 1.394 . S
C533 C539 1.465 1_565 S
C534 C529 1.399 . S
C534 C533 1.394 . S
C534 C535 1.516 . S
C535 C534 1.516 . S
C535 C536 1.502 . S
C535 C537 1.561 . S
C535 C538 1.526 1_565 S
C536 H520 0.959 . S
C536 H521 0.959 . S
C536 H522 0.961 . S
C536 C535 1.502 . S
C537 H523 0.960 . S
C537 H524 0.961 . S
C537 H525 0.959 . S
C537 C535 1.561 . S
C538 C535 1.526 1_545 S
C538 C539 1.396 . S
C538 C543 1.390 . S
C539 C533 1.465 1_545 S
C539 C538 1.396 . S
C539 C540 1.399 . S
C540 H526 0.929 . S
C540 C539 1.399 . S
C540 C541 1.385 . S
C541 H527 0.931 . S
C541 C540 1.385 . S
C541 C542 1.389 . S
C542 C541 1.389 . S
C542 C543 1.387 . S
C543 H528 0.930 . S
C543 C538 1.390 . S
C543 C542 1.387 . S
C125 C9 1.614 . S
C137 C23 1.642 . S
C152 C51 1.609 . S
C164 C37 1.572 . S
C179 C65 1.637 . S
C191 C79 1.617 . S
C206 C93 1.636 . S
C218 C107 1.641 . S
C233 C7 1.721 . S
C245 C35 1.743 . S
C260 C49 1.706 . S
C272 C21 1.742 . S
C287 C63 1.742 . S
C299 C91 1.675 . S
C314 C105 1.743 . S
C326 C77 1.682 . S
C341 C6 1.283 . S
C353 C62 1.263 . S
C368 C20 1.300 . S
C380 C76 1.258 . S
C395 C90 1.256 . S
C407 C34 1.292 . S
C422 C104 1.303 . S
C434 C48 1.254 . S
C449 C22 1.375 . S
C461 C8 1.360 . S
C476 C36 1.374 . S
C488 C50 1.361 . S
C503 C64 1.367 . S
C515 C78 1.359 . S
C530 C92 1.356 . S
C542 C106 1.382 . S
