# Generated by pormake.
# Topology vmi, (6)-cn, num edge types: 1
# Building blocks:
#     Node 0, Type 0, BuildingBlock: IZENUY_clean_sbu_0, # of connection points: 6
#     Node 1, Type 0, BuildingBlock: IZENUY_clean_sbu_0, # of connection points: 6
#     Node 2, Type 0, BuildingBlock: IZENUY_clean_sbu_0, # of connection points: 6
#     Node 3, Type 0, BuildingBlock: IZENUY_clean_sbu_0, # of connection points: 6
#     Node 4, Type 0, BuildingBlock: IZENUY_clean_sbu_0, # of connection points: 6
#     Node 5, Type 0, BuildingBlock: IZENUY_clean_sbu_0, # of connection points: 6
#     Node 6, Type 0, BuildingBlock: IZENUY_clean_sbu_0, # of connection points: 6
#     Node 7, Type 0, BuildingBlock: IZENUY_clean_sbu_0, # of connection points: 6
#     Edge 8, Type (0, 0), BuildingBlock: KIFKEQ_clean_linker_1, # of connection points: 2
#     Edge 9, Type (0, 0), BuildingBlock: KIFKEQ_clean_linker_1, # of connection points: 2
#     Edge 10, Type (0, 0), BuildingBlock: KIFKEQ_clean_linker_1, # of connection points: 2
#     Edge 11, Type (0, 0), BuildingBlock: KIFKEQ_clean_linker_1, # of connection points: 2
#     Edge 12, Type (0, 0), BuildingBlock: KIFKEQ_clean_linker_1, # of connection points: 2
#     Edge 13, Type (0, 0), BuildingBlock: KIFKEQ_clean_linker_1, # of connection points: 2
#     Edge 14, Type (0, 0), BuildingBlock: KIFKEQ_clean_linker_1, # of connection points: 2
#     Edge 15, Type (0, 0), BuildingBlock: KIFKEQ_clean_linker_1, # of connection points: 2
#     Edge 16, Type (0, 0), BuildingBlock: KIFKEQ_clean_linker_1, # of connection points: 2
#     Edge 17, Type (0, 0), BuildingBlock: KIFKEQ_clean_linker_1, # of connection points: 2
#     Edge 18, Type (0, 0), BuildingBlock: KIFKEQ_clean_linker_1, # of connection points: 2
#     Edge 19, Type (0, 0), BuildingBlock: KIFKEQ_clean_linker_1, # of connection points: 2
#     Edge 20, Type (0, 0), BuildingBlock: KIFKEQ_clean_linker_1, # of connection points: 2
#     Edge 21, Type (0, 0), BuildingBlock: KIFKEQ_clean_linker_1, # of connection points: 2
#     Edge 22, Type (0, 0), BuildingBlock: KIFKEQ_clean_linker_1, # of connection points: 2
#     Edge 23, Type (0, 0), BuildingBlock: KIFKEQ_clean_linker_1, # of connection points: 2
#     Edge 24, Type (0, 0), BuildingBlock: KIFKEQ_clean_linker_1, # of connection points: 2
#     Edge 25, Type (0, 0), BuildingBlock: KIFKEQ_clean_linker_1, # of connection points: 2
#     Edge 26, Type (0, 0), BuildingBlock: KIFKEQ_clean_linker_1, # of connection points: 2
#     Edge 27, Type (0, 0), BuildingBlock: KIFKEQ_clean_linker_1, # of connection points: 2
#     Edge 28, Type (0, 0), BuildingBlock: KIFKEQ_clean_linker_1, # of connection points: 2
#     Edge 29, Type (0, 0), BuildingBlock: KIFKEQ_clean_linker_1, # of connection points: 2
#     Edge 30, Type (0, 0), BuildingBlock: KIFKEQ_clean_linker_1, # of connection points: 2
#     Edge 31, Type (0, 0), BuildingBlock: KIFKEQ_clean_linker_1, # of connection points: 2
# Relax obj value: 0.332
# Max RMSD: 0.290
# Mean RMSD: 0.290
data_MOF--net-vmi--node1-IZENUY_clean_sbu_0--edge1-KIFKEQ_clean_linker_1
_symmetry_space_group_name_H-M    P1
_symmetry_Int_Tables_number       1
_symmetry_cell_setting            triclinic
loop_
_symmetry_equiv_pos_as_xyz
'x, y, z'
_cell_length_a     27.459691
_cell_length_b     45.608762
_cell_length_c     30.219071
_cell_angle_alpha  89.86976
_cell_angle_beta   110.0345
_cell_angle_gamma 89.997537
loop_
_atom_site_label
_atom_site_type_symbol
_atom_site_fract_x
_atom_site_fract_y
_atom_site_fract_z
_atom_type_partial_charge
Fe0 Fe 0.18175 0.05297 0.24309 0.0
Fe1 Fe 0.14023 0.10872 0.18654 0.0
O2 O 0.19358 0.08834 0.22413 0.0
Fe3 Fe 0.25752 0.10257 0.24174 0.0
O4 O 0.28271 0.07052 0.22155 0.0
O5 O 0.24565 0.0369 0.25042 0.0
O6 O 0.15845 0.03962 0.18252 0.0
C7 C 0.12115 0.05185 0.15084 0.0
C8 C 0.24479 0.07863 0.32449 0.0
O9 O 0.10392 0.07632 0.15848 0.0
C10 C 0.20645 0.15435 0.23869 0.0
O11 O 0.11595 0.06177 0.24149 0.0
O12 O 0.10825 0.10943 0.23039 0.0
O13 O 0.27422 0.08876 0.30326 0.0
O14 O 0.2035 0.06505 0.30294 0.0
C15 C 0.21283 0.11551 0.14329 0.0
O16 O 0.16755 0.14511 0.20548 0.0
O17 O 0.24005 0.13669 0.2632 0.0
C18 C 0.09485 0.0859 0.24531 0.0
O19 O 0.1675 0.10868 0.1406 0.0
O20 O 0.24927 0.11824 0.18285 0.0
C21 C 0.27993 0.04444 0.2336 0.0
Fe22 Fe 0.36094 0.11076 0.80744 0.0
Fe23 Fe 0.25059 0.09953 0.74008 0.0
O24 O 0.31568 0.08771 0.76637 0.0
Fe25 Fe 0.33417 0.05299 0.75145 0.0
O26 O 0.38039 0.04497 0.81065 0.0
O27 O 0.37497 0.08329 0.85293 0.0
O28 O 0.31298 0.1253 0.83139 0.0
C29 C 0.27148 0.11369 0.83254 0.0
C30 C 0.42128 0.08456 0.7576 0.0
O31 O 0.2423 0.09931 0.79756 0.0
C32 C 0.27413 0.07882 0.66504 0.0
O33 O 0.34987 0.14069 0.76516 0.0
O34 O 0.2654 0.13869 0.74471 0.0
O35 O 0.38449 0.06874 0.73277 0.0
O36 O 0.41719 0.09932 0.79161 0.0
C37 C 0.23736 0.03917 0.75135 0.0
O38 O 0.25791 0.10023 0.68273 0.0
O39 O 0.29183 0.05588 0.68927 0.0
C40 C 0.306 0.15273 0.74764 0.0
O41 O 0.22175 0.06281 0.72939 0.0
O42 O 0.28518 0.03406 0.7694 0.0
C43 C 0.38905 0.05731 0.85016 0.0
Fe44 Fe 0.82996 0.96442 0.75424 0.0
Fe45 Fe 0.75104 0.91576 0.74561 0.0
O46 O 0.81542 0.92883 0.76951 0.0
Fe47 Fe 0.86361 0.90615 0.80878 0.0
O48 O 0.87835 0.93312 0.85476 0.0
O49 O 0.87786 0.97258 0.81246 0.0
O50 O 0.78108 0.9817 0.7744 0.0
C51 C 0.73357 0.97549 0.75736 0.0
C52 C 0.91863 0.93575 0.75632 0.0
O53 O 0.71974 0.95158 0.73602 0.0
C54 C 0.80859 0.86398 0.74975 0.0
O55 O 0.7853 0.96133 0.693 0.0
O56 O 0.75513 0.91604 0.68697 0.0
O57 O 0.91724 0.91936 0.7899 0.0
O58 O 0.87966 0.95072 0.73307 0.0
C59 C 0.77766 0.90149 0.83866 0.0
O60 O 0.76816 0.87706 0.74966 0.0
O61 O 0.85208 0.87653 0.76599 0.0
C62 C 0.76778 0.93848 0.66861 0.0
O63 O 0.74626 0.91543 0.80431 0.0
O64 O 0.81862 0.89021 0.8355 0.0
C65 C 0.88979 0.95956 0.85185 0.0
Fe66 Fe 0.76734 0.91661 0.25254 0.0
Fe67 Fe 0.65667 0.90814 0.18404 0.0
O68 O 0.70328 0.92987 0.22652 0.0
Fe69 Fe 0.68714 0.9649 0.24266 0.0
O70 O 0.73751 0.9832 0.22576 0.0
O71 O 0.79852 0.95253 0.26388 0.0
O72 O 0.77585 0.917 0.19521 0.0
C73 C 0.74629 0.90331 0.15973 0.0
C74 C 0.74686 0.93815 0.32854 0.0
O75 O 0.70386 0.89247 0.15991 0.0
C76 C 0.59727 0.93585 0.23415 0.0
O77 O 0.74969 0.87786 0.24695 0.0
O78 O 0.66485 0.87737 0.22479 0.0
O79 O 0.7295 0.9611 0.30438 0.0
O80 O 0.76034 0.91604 0.31021 0.0
C81 C 0.633 0.96257 0.14388 0.0
O82 O 0.60095 0.92103 0.1999 0.0
O83 O 0.63563 0.94994 0.26071 0.0
C84 C 0.70809 0.86468 0.24332 0.0
O85 O 0.64565 0.93646 0.13978 0.0
O86 O 0.6414 0.97403 0.18394 0.0
C87 C 0.785 0.97689 0.24355 0.0
Fe88 Fe 0.66139 0.61019 0.68845 0.0
Fe89 Fe 0.77328 0.60001 0.75263 0.0
O90 O 0.7087 0.58727 0.72837 0.0
Fe91 Fe 0.69315 0.55191 0.74403 0.0
O92 O 0.64711 0.54341 0.68535 0.0
O93 O 0.64661 0.58284 0.6427 0.0
O94 O 0.70718 0.62547 0.66249 0.0
C95 C 0.74795 0.61396 0.65943 0.0
C96 C 0.60413 0.58163 0.73943 0.0
O97 O 0.77905 0.59997 0.69406 0.0
C98 C 0.75323 0.57872 0.82938 0.0
O99 O 0.673 0.64026 0.73104 0.0
O100 O 0.75691 0.63863 0.74777 0.0
O101 O 0.64197 0.56601 0.76313 0.0
O102 O 0.60705 0.59784 0.70634 0.0
C103 C 0.79066 0.54004 0.74325 0.0
O104 O 0.76815 0.60039 0.81096 0.0
O105 O 0.73593 0.55559 0.80576 0.0
C106 C 0.71713 0.65209 0.74835 0.0
O107 O 0.80424 0.56421 0.7636 0.0
O108 O 0.74315 0.53383 0.72603 0.0
C109 C 0.63619 0.5562 0.64588 0.0
Fe110 Fe 0.87915 0.6082 0.3084 0.0
Fe111 Fe 0.763 0.60093 0.24919 0.0
O112 O 0.82722 0.58703 0.2703 0.0
Fe113 Fe 0.84054 0.55135 0.25369 0.0
O114 O 0.86092 0.53884 0.31428 0.0
O115 O 0.91413 0.57612 0.34047 0.0
O116 O 0.84879 0.60977 0.35199 0.0
C117 C 0.80277 0.61643 0.34694 0.0
C118 C 0.92901 0.58359 0.25436 0.0
O119 O 0.76759 0.61779 0.30641 0.0
C120 C 0.78089 0.57586 0.16978 0.0
O121 O 0.85225 0.64449 0.28557 0.0
O122 O 0.78165 0.63418 0.2269 0.0
O123 O 0.9072 0.55976 0.25821 0.0
O124 O 0.9147 0.60751 0.2672 0.0
C125 C 0.73986 0.54326 0.25822 0.0
O126 O 0.74955 0.586 0.1889 0.0
O127 O 0.82185 0.56263 0.19343 0.0
C128 C 0.81371 0.65264 0.25076 0.0
O129 O 0.73662 0.56944 0.26932 0.0
O130 O 0.77621 0.53529 0.24438 0.0
C131 C 0.89673 0.55131 0.34681 0.0
Fe132 Fe 0.33848 0.46832 0.25298 0.0
Fe133 Fe 0.25415 0.42321 0.2457 0.0
O134 O 0.32038 0.43343 0.26775 0.0
Fe135 Fe 0.36671 0.40867 0.30452 0.0
O136 O 0.38817 0.43495 0.35153 0.0
O137 O 0.38902 0.47474 0.31032 0.0
O138 O 0.2939 0.48753 0.27607 0.0
C139 C 0.24567 0.48368 0.25977 0.0
C140 C 0.42167 0.4359 0.24999 0.0
O141 O 0.22755 0.46044 0.23795 0.0
C142 C 0.30336 0.36865 0.24625 0.0
O143 O 0.29132 0.46704 0.19264 0.0
O144 O 0.25565 0.4231 0.18602 0.0
O145 O 0.41974 0.4193 0.28312 0.0
O146 O 0.38445 0.45267 0.22894 0.0
C147 C 0.28377 0.4086 0.33894 0.0
O148 O 0.26577 0.38383 0.24819 0.0
O149 O 0.34861 0.37928 0.26069 0.0
C150 C 0.27034 0.44494 0.16778 0.0
O151 O 0.25224 0.42318 0.30543 0.0
O152 O 0.32198 0.39533 0.3334 0.0
C153 C 0.40149 0.46112 0.34919 0.0
Fe154 Fe 0.27577 0.42284 0.75361 0.0
Fe155 Fe 0.16503 0.40674 0.69217 0.0
O156 O 0.20919 0.43221 0.72927 0.0
Fe157 Fe 0.18872 0.46689 0.74226 0.0
O158 O 0.23428 0.48651 0.72061 0.0
O159 O 0.30088 0.46028 0.76133 0.0
O160 O 0.28019 0.42276 0.69468 0.0
C161 C 0.25035 0.40763 0.66103 0.0
C162 C 0.25499 0.44443 0.8293 0.0
O163 O 0.2122 0.39385 0.66577 0.0
C164 C 0.10574 0.43317 0.74304 0.0
O165 O 0.26586 0.38339 0.75169 0.0
O166 O 0.18292 0.37796 0.73717 0.0
O167 O 0.23376 0.46623 0.80352 0.0
O168 O 0.27174 0.42281 0.81239 0.0
C169 C 0.12914 0.45849 0.64547 0.0
O170 O 0.11001 0.41664 0.71091 0.0
O171 O 0.1413 0.45081 0.76451 0.0
C172 C 0.22846 0.36781 0.75293 0.0
O173 O 0.1437 0.43246 0.64413 0.0
O174 O 0.14006 0.47251 0.68374 0.0
C175 C 0.28257 0.48304 0.73804 0.0
H176 H 0.50457 0.93574 0.16155 0.0
H177 H 0.57261 0.95425 0.31019 0.0
H178 H 0.42324 0.95808 0.16045 0.0
H179 H 0.49067 0.97607 0.30912 0.0
H180 H 0.31783 0.99639 0.28995 0.0
H181 H 0.39069 0.96479 0.29094 0.0
H182 H 0.40625 0.01336 0.17383 0.0
H183 H 0.33463 0.04525 0.17351 0.0
C184 C 0.50172 0.94367 0.19434 0.0
C185 C 0.54518 0.94312 0.23603 0.0
C186 C 0.45521 0.95673 0.19356 0.0
C187 C 0.45067 0.96898 0.23462 0.0
C188 C 0.49291 0.96668 0.27698 0.0
C189 C 0.53982 0.95417 0.27758 0.0
C190 C 0.33645 1.00006 0.26409 0.0
C191 C 0.32051 0.02336 0.2317 0.0
C192 C 0.37827 0.98208 0.26482 0.0
C193 C 0.40407 0.98654 0.23238 0.0
C194 C 0.38686 1.00918 0.19898 0.0
C195 C 0.34599 0.02754 0.19896 0.0
H196 H 0.93415 0.97009 0.68841 0.0
H197 H 0.01741 0.91798 0.81043 0.0
H198 H 0.01465 0.99009 0.68666 0.0
H199 H 0.09941 0.93695 0.80716 0.0
H200 H 0.22445 1.00992 0.82575 0.0
H201 H 0.15051 0.9794 0.82419 0.0
H202 H 0.09042 0.98596 0.67213 0.0
H203 H 0.16211 0.01803 0.67464 0.0
C204 C 0.96986 0.9622 0.71422 0.0
C205 C 0.96891 0.94251 0.74981 0.0
C206 C 0.01657 0.97362 0.71302 0.0
C207 C 0.06429 0.96541 0.7469 0.0
C208 C 0.06363 0.94433 0.78095 0.0
C209 C 0.01653 0.93308 0.78246 0.0
C210 C 0.19565 1.00435 0.79211 0.0
C211 C 0.19861 0.01643 0.75036 0.0
C212 C 0.15324 0.98674 0.79104 0.0
C213 C 0.11342 0.98043 0.74803 0.0
C214 C 0.11895 0.99099 0.70612 0.0
C215 C 0.16042 1.00914 0.70738 0.0
H216 H 0.63 0.96865 0.71468 0.0
H217 H 0.74317 0.03066 0.79833 0.0
H218 H 0.56098 1.00189 0.71201 0.0
H219 H 0.67241 0.06472 0.79514 0.0
H220 H 0.51646 0.08887 0.82682 0.0
H221 H 0.59751 0.06765 0.82503 0.0
H222 H 0.52383 0.04821 0.67725 0.0
H223 H 0.44261 0.06849 0.67944 0.0
C224 C 0.64039 0.98956 0.73232 0.0
C225 C 0.69248 0.99692 0.75665 0.0
C226 C 0.60049 1.00886 0.73031 0.0
C227 C 0.61104 0.03627 0.75255 0.0
C228 C 0.66305 0.04379 0.7774 0.0
C229 C 0.70351 0.02433 0.77921 0.0
C230 C 0.51807 0.08093 0.79359 0.0
C231 C 0.47293 0.07992 0.7534 0.0
C232 C 0.56459 0.06875 0.7926 0.0
C233 C 0.5668 0.05558 0.75131 0.0
C234 C 0.52305 0.05748 0.70997 0.0
C235 C 0.47656 0.06928 0.71109 0.0
H236 H 0.77551 0.03437 0.21095 0.0
H237 H 0.88886 0.96842 0.28118 0.0
H238 H 0.84623 0.06905 0.21716 0.0
H239 H 0.95798 1.00227 0.28664 0.0
H240 H 0.07946 0.06607 0.32365 0.0
H241 H 0.99882 0.04557 0.32714 0.0
H242 H 0.91799 0.07639 0.1856 0.0
H243 H 0.9987 0.09808 0.18331 0.0
C244 C 0.81525 0.02728 0.22772 0.0
C245 C 0.82629 0.9986 0.24578 0.0
C246 C 0.85574 0.04712 0.23129 0.0
C247 C 0.90791 0.0387 0.25329 0.0
C248 C 0.91847 1.00997 0.27083 0.0
C249 C 0.87849 0.99033 0.26719 0.0
C250 C 0.04388 0.0697 0.29428 0.0
C251 C 0.04507 0.08385 0.25347 0.0
C252 C 0.99779 0.05757 0.29587 0.0
C253 C 0.95214 0.05856 0.25609 0.0
C254 C 0.95229 0.07522 0.21687 0.0
C255 C 0.99845 0.08783 0.21562 0.0
H256 H 1.00971 0.42623 0.67606 0.0
H257 H 0.08592 0.4509 0.82125 0.0
H258 H 0.9284 0.44692 0.67818 0.0
H259 H 1.00447 0.47051 0.82399 0.0
H260 H 0.89409 0.54783 0.78518 0.0
H261 H 0.96402 0.51528 0.78831 0.0
H262 H 0.85443 0.45063 0.70823 0.0
H263 H 0.78261 0.48411 0.70441 0.0
C264 C 1.00861 0.43495 0.70901 0.0
C265 C 0.05442 0.43726 0.74837 0.0
C266 C 0.96191 0.44687 0.71019 0.0
C267 C 0.96011 0.46107 0.75088 0.0
C268 C 1.00476 0.46049 0.79162 0.0
C269 C 0.05142 0.44901 0.79025 0.0
C270 C 0.88424 0.52666 0.76833 0.0
C271 C 0.83228 0.51868 0.74461 0.0
C272 C 0.92475 0.50773 0.77062 0.0
C273 C 0.91511 0.48 0.74936 0.0
C274 C 0.86322 0.47181 0.72521 0.0
C275 C 0.8221 0.49094 0.72305 0.0
H276 H 0.73848 0.48269 0.25505 0.0
H277 H 0.64312 0.55789 0.25612 0.0
H278 H 0.6647 0.45017 0.24884 0.0
H279 H 0.57025 0.5257 0.24883 0.0
H280 H 0.43735 0.46593 0.17787 0.0
H281 H 0.51827 0.48786 0.17807 0.0
H282 H 0.60152 0.44169 0.30636 0.0
H283 H 0.52007 0.4199 0.30701 0.0
C284 C 0.70199 0.49226 0.25396 0.0
C285 C 0.69678 0.52291 0.25609 0.0
C286 C 0.65994 0.47367 0.25046 0.0
C287 C 0.61177 0.48551 0.24786 0.0
C288 C 0.60681 0.51603 0.25025 0.0
C289 C 0.64877 0.53445 0.25471 0.0
C290 C 0.47295 0.45971 0.20553 0.0
C291 C 0.47191 0.44147 0.24285 0.0
C292 C 0.51929 0.47236 0.20561 0.0
C293 C 0.56589 0.46677 0.24256 0.0
C294 C 0.56603 0.4463 0.27743 0.0
C295 C 0.51936 0.43378 0.27766 0.0
H296 H 0.94654 0.55047 0.18802 0.0
H297 H 0.02305 0.60884 0.30282 0.0
H298 H 0.02969 0.53341 0.18711 0.0
H299 H 0.10766 0.59213 0.30162 0.0
H300 H 0.23022 0.51429 0.33178 0.0
H301 H 0.15729 0.54714 0.32527 0.0
H302 H 0.10783 0.54117 0.17349 0.0
H303 H 0.17881 0.50736 0.18053 0.0
C304 C 0.98144 0.56051 0.21187 0.0
C305 C 0.97836 0.58106 0.24526 0.0
C306 C 0.02938 0.55075 0.21142 0.0
C307 C 0.07581 0.56119 0.24455 0.0
C308 C 0.07276 0.58336 0.27596 0.0
C309 C 0.02437 0.59331 0.27617 0.0
C310 C 0.20428 0.52066 0.29717 0.0
C311 C 0.20959 0.5082 0.25668 0.0
C312 C 0.16259 0.53956 0.2933 0.0
C313 C 0.12593 0.54649 0.2488 0.0
C314 C 0.13431 0.53579 0.20835 0.0
C315 C 0.17518 0.51657 0.21229 0.0
H316 H 0.50785 0.60065 0.68242 0.0
H317 H 0.58409 0.54952 0.80762 0.0
H318 H 0.42367 0.58386 0.68328 0.0
H319 H 0.50087 0.53207 0.80757 0.0
H320 H 0.34905 0.50951 0.81456 0.0
H321 H 0.42182 0.54111 0.81807 0.0
H322 H 0.37406 0.53951 0.66605 0.0
H323 H 0.29951 0.509 0.66298 0.0
C324 C 0.50672 0.58629 0.71064 0.0
C325 C 0.55295 0.57633 0.7448 0.0
C326 C 0.45838 0.57638 0.71081 0.0
C327 C 0.45512 0.55634 0.7452 0.0
C328 C 0.50135 0.54777 0.78079 0.0
C329 C 0.54945 0.55769 0.7807 0.0
C330 C 0.35338 0.51672 0.78191 0.0
C331 C 0.31879 0.507 0.73852 0.0
C332 C 0.39541 0.53455 0.78385 0.0
C333 C 0.40476 0.54246 0.74242 0.0
C334 C 0.36809 0.53413 0.69872 0.0
C335 C 0.32532 0.51664 0.69681 0.0
H336 H 0.06003 0.07822 0.0714 0.0
H337 H 0.11954 0.99322 0.12817 0.0
H338 H 1.00655 0.05568 -0.00132 0.0
H339 H 0.06614 0.9704 0.05385 0.0
H340 H 0.91054 0.94158 0.94248 0.0
H341 H 0.97216 0.9627 0.01351 0.0
H342 H 1.00979 0.03012 0.9298 0.0
H343 H 0.94737 1.00932 0.85865 0.0
C344 C 0.06196 0.05463 0.06817 0.0
C345 C 0.09333 0.03737 0.10576 0.0
C346 C 0.03164 0.04176 0.02619 0.0
C347 C 0.03199 0.01129 0.02061 0.0
C348 C 0.06472 0.99397 0.05753 0.0
C349 C 0.09546 1.00696 0.09983 0.0
C350 C 0.93181 0.961 0.93922 0.0
C351 C 0.92391 0.97391 0.89498 0.0
C352 C 0.96753 0.97286 0.97987 0.0
C353 C 0.99613 0.99786 0.97716 0.0
C354 C 0.988 0.01092 0.93297 0.0
C355 C 0.95209 0.99911 0.89227 0.0
H356 H 0.62781 0.95357 0.05319 0.0
H357 H 0.56309 1.00587 0.13852 0.0
H358 H 0.56811 0.97635 0.9822 0.0
H359 H 0.50196 0.02765 0.06782 0.0
H360 H 0.43469 0.08238 0.93611 0.0
H361 H 0.49544 0.06035 0.00623 0.0
H362 H 0.4791 0.97714 0.93427 0.0
H363 H 0.4197 0.99974 0.86284 0.0
C364 C 0.60084 0.96999 0.05669 0.0
C365 C 0.60028 0.97812 0.10131 0.0
C366 C 0.56626 0.98281 0.01604 0.0
C367 C 0.52993 1.00371 0.01919 0.0
C368 C 0.52992 0.01201 0.06401 0.0
C369 C 0.56499 0.99953 0.10461 0.0
C370 C 0.44368 0.05932 0.93517 0.0
C371 C 0.42233 0.0428 0.89379 0.0
C372 C 0.47849 0.04662 0.97561 0.0
C373 C 0.4923 0.01695 0.97602 0.0
C374 C 0.47007 1.00021 0.93493 0.0
C375 C 0.43564 0.01305 0.89412 0.0
H376 H 0.62826 0.56933 0.55567 0.0
H377 H 0.57397 0.50861 0.63844 0.0
H378 H 0.57257 0.54602 0.48367 0.0
H379 H 0.51667 0.48609 0.56661 0.0
H380 H 0.45582 0.43427 0.43189 0.0
H381 H 0.51519 0.45636 0.50269 0.0
H382 H 0.48364 0.54179 0.43655 0.0
H383 H 0.42568 0.51934 0.36456 0.0
C384 C 0.60435 0.55099 0.55841 0.0
C385 C 0.60547 0.54072 0.60261 0.0
C386 C 0.57211 0.53779 0.51717 0.0
C387 C 0.53982 0.5143 0.51927 0.0
C388 C 0.54158 0.50383 0.56363 0.0
C389 C 0.57436 0.51675 0.60486 0.0
C390 C 0.46142 0.45779 0.43239 0.0
C391 C 0.43601 0.47509 0.39259 0.0
C392 C 0.49535 0.47049 0.47317 0.0
C393 C 0.50418 0.50087 0.47545 0.0
C394 C 0.47843 0.51824 0.43574 0.0
C395 C 0.44491 0.50545 0.3946 0.0
H396 H 0.05776 0.43028 0.57331 0.0
H397 H 0.1208 0.51605 0.61986 0.0
H398 H 0.99643 0.45165 0.50235 0.0
H399 H 0.06197 0.53746 0.5473 0.0
H400 H 0.92382 0.57338 0.43434 0.0
H401 H 0.97677 0.55016 0.50759 0.0
H402 H 0.9877 0.47211 0.43011 0.0
H403 H 0.93136 0.49494 0.35752 0.0
C404 C 0.05895 0.45372 0.56784 0.0
C405 C 0.09393 0.4716 0.60183 0.0
C406 C 0.02395 0.46599 0.52705 0.0
C407 C 0.02402 0.49633 0.51883 0.0
C408 C 0.05977 0.51411 0.55279 0.0
C409 C 0.09389 0.50189 0.59419 0.0
C410 C 0.93701 0.55106 0.43342 0.0
C411 C 0.9238 0.53579 0.39076 0.0
C412 C 0.96786 0.53785 0.4752 0.0
C413 C 0.98745 0.50938 0.47489 0.0
C414 C 0.97289 0.49389 0.43199 0.0
C415 C 0.94076 0.50689 0.39033 0.0
H416 H 0.32047 0.14874 0.90736 0.0
H417 H 0.19445 0.08676 0.85654 0.0
H418 H 0.30655 0.15152 0.98234 0.0
H419 H 0.18083 0.08947 0.93228 0.0
H420 H 0.13998 0.12228 0.05648 0.0
H421 H 0.15242 0.12387 0.98093 0.0
H422 H 0.31825 0.11943 0.05115 0.0
H423 H 0.30589 0.11808 0.12768 0.0
C424 C 0.28946 0.13582 0.912 0.0
C425 C 0.25847 0.11749 0.87583 0.0
C426 C 0.28186 0.13729 0.95523 0.0
C427 C 0.24298 0.12056 0.9634 0.0
C428 C 0.21093 0.10282 0.92687 0.0
C429 C 0.21862 0.10128 0.88347 0.0
C430 C 0.17928 0.12186 0.0561 0.0
C431 C 0.22207 0.11991 0.09827 0.0
C432 C 0.18626 0.12257 0.01261 0.0
C433 C 0.23617 0.1214 0.01001 0.0
C434 C 0.27923 0.12052 0.05211 0.0
C435 C 0.27224 0.11978 0.09592 0.0
H436 H 0.72807 0.94058 0.87673 0.0
H437 H 0.80972 0.85787 0.90385 0.0
H438 H 0.72546 0.94021 0.95706 0.0
H439 H 0.8061 0.85729 0.98362 0.0
H440 H 0.72414 0.85746 0.09898 0.0
H441 H 0.73122 0.85592 0.02052 0.0
H442 H 0.8004 0.94204 0.0424 0.0
H443 H 0.7944 0.94335 0.12162 0.0
C444 C 0.74443 0.92206 0.8995 0.0
C445 C 0.76879 0.89917 0.88404 0.0
C446 C 0.74355 0.92205 0.94554 0.0
C447 C 0.76608 0.89886 0.97649 0.0
C448 C 0.7886 0.87543 0.96042 0.0
C449 C 0.79047 0.87574 0.9148 0.0
C450 C 0.74189 0.87579 0.08739 0.0
C451 C 0.75908 0.90044 0.11637 0.0
C452 C 0.74578 0.87493 0.04254 0.0
C453 C 0.7658 0.89899 0.02539 0.0
C454 C 0.78437 0.92334 0.0548 0.0
C455 C 0.78156 0.92392 0.1002 0.0
H456 H 0.8715 0.63217 0.43173 0.0
H457 H 0.70932 0.61232 0.36173 0.0
H458 H 0.85852 0.63329 0.50711 0.0
H459 H 0.69633 0.61334 0.43812 0.0
H460 H 0.68735 0.64252 0.5805 0.0
H461 H 0.69873 0.64585 0.50447 0.0
H462 H 0.84083 0.59617 0.55894 0.0
H463 H 0.82977 0.59293 0.63576 0.0
C464 C 0.8328 0.62832 0.43236 0.0
C465 C 0.79141 0.62193 0.39067 0.0
C466 C 0.82557 0.62874 0.47574 0.0
C467 C 0.77671 0.62287 0.47873 0.0
C468 C 0.73452 0.61798 0.43687 0.0
C469 C 0.74181 0.61751 0.39313 0.0
C470 C 0.7214 0.63246 0.57662 0.0
C471 C 0.75792 0.61755 0.61451 0.0
C472 C 0.72754 0.6342 0.53275 0.0
C473 C 0.77048 0.62124 0.52559 0.0
C474 C 0.80751 0.60667 0.56354 0.0
C475 C 0.80123 0.60478 0.60755 0.0
H476 H 0.33253 0.42815 0.63726 0.0
H477 H 0.18441 0.38446 0.57978 0.0
H478 H 0.34025 0.42833 0.55877 0.0
H479 H 0.19217 0.38492 0.50212 0.0
H480 H 0.19929 0.42432 0.36283 0.0
H481 H 0.19273 0.42398 0.44169 0.0
H482 H 0.3488 0.39032 0.49954 0.0
H483 H 0.35545 0.39043 0.4213 0.0
C484 C 0.30195 0.41839 0.60814 0.0
C485 C 0.25811 0.40611 0.61494 0.0
C486 C 0.30632 0.41852 0.56327 0.0
C487 C 0.26657 0.40681 0.52439 0.0
C488 C 0.22305 0.3944 0.53132 0.0
C489 C 0.21898 0.39391 0.57603 0.0
C490 C 0.23198 0.41664 0.39232 0.0
C491 C 0.2776 0.40711 0.38566 0.0
C492 C 0.22826 0.41646 0.43739 0.0
C493 C 0.27039 0.4072 0.47666 0.0
C494 C 0.31596 0.39781 0.46999 0.0
C495 C 0.31944 0.39759 0.42502 0.0
H496 H 0.17521 0.09343 0.36449 0.0
H497 H 0.33792 0.07421 0.39857 0.0
H498 H 0.18636 0.09557 0.44755 0.0
H499 H 0.34938 0.07634 0.48317 0.0
H500 H 0.31785 0.04104 0.61893 0.0
H501 H 0.31745 0.04481 0.53811 0.0
H502 H 0.22873 0.12489 0.51915 0.0
H503 H 0.22866 0.12112 0.59958 0.0
C504 C 0.21368 0.09003 0.39001 0.0
C505 C 0.25572 0.08354 0.37522 0.0
C506 C 0.22009 0.09143 0.43763 0.0
C507 C 0.26869 0.0861 0.47193 0.0
C508 C 0.31138 0.08038 0.45736 0.0
C509 C 0.30503 0.07941 0.40918 0.0
C510 C 0.29801 0.05938 0.59745 0.0
C511 C 0.27249 0.08051 0.61552 0.0
C512 C 0.29848 0.06174 0.55139 0.0
C513 C 0.27317 0.08516 0.52233 0.0
C514 C 0.24829 0.10648 0.54062 0.0
C515 C 0.24809 0.10424 0.58667 0.0
H516 H 0.79195 0.9826 0.61874 0.0
H517 H 0.73218 0.89408 0.60438 0.0
H518 H 0.78893 0.98175 0.53755 0.0
H519 H 0.72809 0.89355 0.52232 0.0
H520 H 0.72279 0.98232 0.37796 0.0
H521 H 0.7259 0.98174 0.45909 0.0
H522 H 0.7857 0.89324 0.47525 0.0
H523 H 0.78148 0.8935 0.39306 0.0
C524 C 0.77749 0.96306 0.59811 0.0
C525 C 0.76195 0.93847 0.61805 0.0
C526 C 0.7757 0.96261 0.55145 0.0
C527 C 0.75821 0.9376 0.52344 0.0
C528 C 0.74232 0.91303 0.54318 0.0
C529 C 0.74416 0.91346 0.59003 0.0
C530 C 0.73696 0.96273 0.39873 0.0
C531 C 0.75221 0.93799 0.37899 0.0
C532 C 0.73887 0.96246 0.4454 0.0
C533 C 0.75617 0.93749 0.47369 0.0
C534 C 0.77166 0.91272 0.45416 0.0
C535 C 0.76972 0.91297 0.40725 0.0
H536 H 0.70413 0.5431 0.87338 0.0
H537 H 0.80563 0.61829 0.89711 0.0
H538 H 0.70534 0.54611 0.9544 0.0
H539 H 0.80685 0.62112 0.97826 0.0
H540 H 0.85431 0.5837 0.1307 0.0
H541 H 0.84424 0.58699 0.04791 0.0
H542 H 0.67811 0.58053 0.01056 0.0
H543 H 0.68825 0.57746 0.09477 0.0
C544 C 0.72693 0.56018 0.89593 0.0
C545 C 0.75552 0.58018 0.87901 0.0
C546 C 0.72694 0.56213 0.94209 0.0
C547 C 0.756 0.58389 0.97251 0.0
C548 C 0.78421 0.60406 0.95554 0.0
C549 C 0.78368 0.60236 0.90918 0.0
C550 C 0.81547 0.58316 0.10494 0.0
C551 C 0.772 0.58004 0.11912 0.0
C552 C 0.80977 0.5853 0.05751 0.0
C553 C 0.76047 0.58403 0.02283 0.0
C554 C 0.71662 0.58145 0.03675 0.0
C555 C 0.72231 0.57983 0.08472 0.0
H556 H 0.22675 0.48831 0.87665 0.0
H557 H 0.29239 0.40104 0.89557 0.0
H558 H 0.22733 0.48783 0.95709 0.0
H559 H 0.29394 0.4009 0.97697 0.0
H560 H 0.23665 0.40022 0.10376 0.0
H561 H 0.23362 0.39983 0.02189 0.0
H562 H 0.28882 0.48922 0.03645 0.0
H563 H 0.29084 0.48989 0.1173 0.0
C564 C 0.24196 0.46912 0.89813 0.0
C565 C 0.25985 0.44477 0.87965 0.0
C566 C 0.24233 0.46889 0.94437 0.0
C567 C 0.26066 0.44433 0.97344 0.0
C568 C 0.27899 0.42002 0.95523 0.0
C569 C 0.27865 0.42024 0.90879 0.0
C570 C 0.24744 0.41989 0.08922 0.0
C571 C 0.26369 0.44513 0.11704 0.0
C572 C 0.24627 0.41956 0.04253 0.0
C573 C 0.26114 0.44447 0.02274 0.0
C574 C 0.27653 0.46978 0.0504 0.0
C575 C 0.27778 0.47011 0.09689 0.0
H576 H 0.16221 0.19607 0.1725 0.0
H577 H 0.28077 0.1845 0.30885 0.0
H578 H 0.19022 0.24604 0.16944 0.0
H579 H 0.30729 0.23555 0.30709 0.0
H580 H 0.37205 0.32211 0.27533 0.0
H581 H 0.34939 0.26994 0.27292 0.0
H582 H 0.18867 0.29198 0.19921 0.0
H583 H 0.21166 0.34299 0.19934 0.0
C584 C 0.19344 0.20443 0.20255 0.0
C585 C 0.21878 0.18621 0.24119 0.0
C586 C 0.2097 0.23329 0.20078 0.0
C587 C 0.25116 0.24518 0.23805 0.0
C588 C 0.27587 0.22715 0.27728 0.0
C589 C 0.26011 0.19797 0.27869 0.0
C590 C 0.33224 0.31556 0.25741 0.0
C591 C 0.29372 0.33676 0.23756 0.0
C592 C 0.31898 0.28571 0.25674 0.0
C593 C 0.26695 0.27651 0.23629 0.0
C594 C 0.22919 0.29779 0.21474 0.0
C595 C 0.24242 0.3273 0.21503 0.0
H596 H 0.232 0.1849 0.6832 0.0
H597 H 0.36695 0.19256 0.80856 0.0
H598 H 0.21254 0.23667 0.68845 0.0
H599 H 0.34614 0.24372 0.81598 0.0
H600 H 0.32194 0.34158 0.79183 0.0
H601 H 0.34303 0.29056 0.78841 0.0
H602 H 0.17971 0.2697 0.73006 0.0
H603 H 0.15868 0.32178 0.73048 0.0
C604 C 0.25798 0.19791 0.71144 0.0
C605 C 0.30149 0.18493 0.74494 0.0
C606 C 0.24626 0.22743 0.71513 0.0
C607 C 0.27712 0.24454 0.75312 0.0
C608 C 0.32169 0.2316 0.78581 0.0
C609 C 0.33399 0.20223 0.78147 0.0
C610 C 0.29028 0.32615 0.77865 0.0
C611 C 0.23854 0.33593 0.76077 0.0
C612 C 0.30249 0.29664 0.77696 0.0
C613 C 0.26329 0.27574 0.75828 0.0
C614 C 0.21115 0.28521 0.74342 0.0
C615 C 0.1989 0.31503 0.74444 0.0
H616 H 0.65028 0.69782 0.70861 0.0
H617 H 0.80142 0.67788 0.80901 0.0
H618 H 0.67477 0.74954 0.71034 0.0
H619 H 0.8274 0.72825 0.80814 0.0
H620 H 0.85428 0.82594 0.82015 0.0
H621 H 0.82638 0.77606 0.82633 0.0
H622 H 0.72404 0.77996 0.68102 0.0
H623 H 0.74952 0.83087 0.6768 0.0
C624 C 0.68818 0.70461 0.73188 0.0
C625 C 0.72398 0.68381 0.75848 0.0
C626 C 0.70286 0.73413 0.73208 0.0
C627 C 0.75377 0.74326 0.75841 0.0
C628 C 0.78787 0.72256 0.78755 0.0
C629 C 0.77295 0.69344 0.78799 0.0
C630 C 0.82723 0.81567 0.78913 0.0
C631 C 0.8051 0.83186 0.7476 0.0
C632 C 0.81065 0.78706 0.79266 0.0
C633 C 0.7723 0.77368 0.7543 0.0
C634 C 0.75246 0.78956 0.71182 0.0
C635 C 0.76807 0.81848 0.70881 0.0
H636 H 0.8721 0.70096 0.29131 0.0
H637 H 0.72029 0.67582 0.19743 0.0
H638 H 0.84218 0.75141 0.28983 0.0
H639 H 0.68948 0.72538 0.19834 0.0
H640 H 0.66022 0.82415 0.17685 0.0
H641 H 0.68683 0.77331 0.17539 0.0
H642 H 0.79307 0.78192 0.3185 0.0
H643 H 0.7685 0.83329 0.31813 0.0
C644 C 0.83249 0.70621 0.27008 0.0
C645 C 0.79886 0.68421 0.24442 0.0
C646 C 0.81488 0.73512 0.26982 0.0
C647 C 0.76283 0.74274 0.24464 0.0
C648 C 0.72985 0.72081 0.2178 0.0
C649 C 0.74769 0.69213 0.21733 0.0
C650 C 0.68796 0.81477 0.20845 0.0
C651 C 0.71164 0.83245 0.2479 0.0
C652 C 0.7037 0.78559 0.20763 0.0
C653 C 0.743 0.77323 0.2466 0.0
C654 C 0.764 0.79063 0.28719 0.0
C655 C 0.74907 0.81995 0.28753 0.0
loop_
_geom_bond_atom_site_label_1
_geom_bond_atom_site_label_2
_geom_bond_distance
_geom_bond_site_symmetry_2
_ccdc_geom_bond_type
Fe0 O2 1.918 . S
Fe0 O5 1.997 . S
Fe0 O6 2.002 . S
Fe0 O11 1.976 . S
Fe0 O14 1.996 . S
Fe1 O2 1.918 . S
Fe1 O9 1.997 . S
Fe1 O12 1.996 . S
Fe1 O16 1.976 . S
Fe1 O19 2.002 . S
O2 Fe0 1.918 . S
O2 Fe1 1.918 . S
O2 Fe3 1.918 . S
Fe3 O2 1.918 . S
Fe3 O4 2.002 . S
Fe3 O13 1.976 . S
Fe3 O17 1.996 . S
Fe3 O20 1.997 . S
O4 Fe3 2.002 . S
O4 C21 1.295 . S
O5 Fe0 1.997 . S
O5 C21 1.235 . S
O6 Fe0 2.002 . S
O6 C7 1.295 . S
C7 O6 1.295 . S
C7 O9 1.235 . S
C8 O13 1.287 . S
C8 O14 1.255 . S
O9 Fe1 1.997 . S
O9 C7 1.235 . S
C10 O16 1.287 . S
C10 O17 1.255 . S
O11 Fe0 1.976 . S
O11 C18 1.287 . S
O12 Fe1 1.996 . S
O12 C18 1.255 . S
O13 Fe3 1.976 . S
O13 C8 1.287 . S
O14 Fe0 1.996 . S
O14 C8 1.255 . S
C15 O19 1.295 . S
C15 O20 1.235 . S
O16 Fe1 1.976 . S
O16 C10 1.287 . S
O17 Fe3 1.996 . S
O17 C10 1.255 . S
C18 O11 1.287 . S
C18 O12 1.255 . S
O19 Fe1 2.002 . S
O19 C15 1.295 . S
O20 Fe3 1.997 . S
O20 C15 1.235 . S
C21 O4 1.295 . S
C21 O5 1.235 . S
Fe22 O24 1.918 . S
Fe22 O27 1.997 . S
Fe22 O28 2.002 . S
Fe22 O33 1.976 . S
Fe22 O36 1.996 . S
Fe23 O24 1.918 . S
Fe23 O31 1.997 . S
Fe23 O34 1.996 . S
Fe23 O38 1.976 . S
Fe23 O41 2.002 . S
O24 Fe22 1.918 . S
O24 Fe23 1.918 . S
O24 Fe25 1.918 . S
Fe25 O24 1.918 . S
Fe25 O26 2.002 . S
Fe25 O35 1.976 . S
Fe25 O39 1.996 . S
Fe25 O42 1.997 . S
O26 Fe25 2.002 . S
O26 C43 1.295 . S
O27 Fe22 1.997 . S
O27 C43 1.235 . S
O28 Fe22 2.002 . S
O28 C29 1.295 . S
C29 O28 1.295 . S
C29 O31 1.235 . S
C30 O35 1.287 . S
C30 O36 1.255 . S
O31 Fe23 1.997 . S
O31 C29 1.235 . S
C32 O38 1.287 . S
C32 O39 1.255 . S
O33 Fe22 1.976 . S
O33 C40 1.287 . S
O34 Fe23 1.996 . S
O34 C40 1.255 . S
O35 Fe25 1.976 . S
O35 C30 1.287 . S
O36 Fe22 1.996 . S
O36 C30 1.255 . S
C37 O41 1.295 . S
C37 O42 1.235 . S
O38 Fe23 1.976 . S
O38 C32 1.287 . S
O39 Fe25 1.996 . S
O39 C32 1.255 . S
C40 O33 1.287 . S
C40 O34 1.255 . S
O41 Fe23 2.002 . S
O41 C37 1.295 . S
O42 Fe25 1.997 . S
O42 C37 1.235 . S
C43 O26 1.295 . S
C43 O27 1.235 . S
Fe44 O46 1.918 . S
Fe44 O49 1.997 . S
Fe44 O50 2.002 . S
Fe44 O55 1.976 . S
Fe44 O58 1.996 . S
Fe45 O46 1.918 . S
Fe45 O53 1.997 . S
Fe45 O56 1.996 . S
Fe45 O60 1.976 . S
Fe45 O63 2.002 . S
O46 Fe44 1.918 . S
O46 Fe45 1.918 . S
O46 Fe47 1.918 . S
Fe47 O46 1.918 . S
Fe47 O48 2.002 . S
Fe47 O57 1.976 . S
Fe47 O61 1.996 . S
Fe47 O64 1.997 . S
O48 Fe47 2.002 . S
O48 C65 1.295 . S
O49 Fe44 1.997 . S
O49 C65 1.235 . S
O50 Fe44 2.002 . S
O50 C51 1.295 . S
C51 O50 1.295 . S
C51 O53 1.235 . S
C52 O57 1.287 . S
C52 O58 1.255 . S
O53 Fe45 1.997 . S
O53 C51 1.235 . S
C54 O60 1.287 . S
C54 O61 1.255 . S
O55 Fe44 1.976 . S
O55 C62 1.287 . S
O56 Fe45 1.996 . S
O56 C62 1.255 . S
O57 Fe47 1.976 . S
O57 C52 1.287 . S
O58 Fe44 1.996 . S
O58 C52 1.255 . S
C59 O63 1.295 . S
C59 O64 1.235 . S
O60 Fe45 1.976 . S
O60 C54 1.287 . S
O61 Fe47 1.996 . S
O61 C54 1.255 . S
C62 O55 1.287 . S
C62 O56 1.255 . S
O63 Fe45 2.002 . S
O63 C59 1.295 . S
O64 Fe47 1.997 . S
O64 C59 1.235 . S
C65 O48 1.295 . S
C65 O49 1.235 . S
Fe66 O68 1.918 . S
Fe66 O71 1.997 . S
Fe66 O72 2.002 . S
Fe66 O77 1.976 . S
Fe66 O80 1.996 . S
Fe67 O68 1.918 . S
Fe67 O75 1.997 . S
Fe67 O78 1.996 . S
Fe67 O82 1.976 . S
Fe67 O85 2.002 . S
O68 Fe66 1.918 . S
O68 Fe67 1.918 . S
O68 Fe69 1.918 . S
Fe69 O68 1.918 . S
Fe69 O70 2.002 . S
Fe69 O79 1.976 . S
Fe69 O83 1.996 . S
Fe69 O86 1.997 . S
O70 Fe69 2.002 . S
O70 C87 1.295 . S
O71 Fe66 1.997 . S
O71 C87 1.235 . S
O72 Fe66 2.002 . S
O72 C73 1.295 . S
C73 O72 1.295 . S
C73 O75 1.235 . S
C74 O79 1.287 . S
C74 O80 1.255 . S
O75 Fe67 1.997 . S
O75 C73 1.235 . S
C76 O82 1.287 . S
C76 O83 1.255 . S
O77 Fe66 1.976 . S
O77 C84 1.287 . S
O78 Fe67 1.996 . S
O78 C84 1.255 . S
O79 Fe69 1.976 . S
O79 C74 1.287 . S
O80 Fe66 1.996 . S
O80 C74 1.255 . S
C81 O85 1.295 . S
C81 O86 1.235 . S
O82 Fe67 1.976 . S
O82 C76 1.287 . S
O83 Fe69 1.996 . S
O83 C76 1.255 . S
C84 O77 1.287 . S
C84 O78 1.255 . S
O85 Fe67 2.002 . S
O85 C81 1.295 . S
O86 Fe69 1.997 . S
O86 C81 1.235 . S
C87 O70 1.295 . S
C87 O71 1.235 . S
Fe88 O90 1.918 . S
Fe88 O93 1.997 . S
Fe88 O94 2.002 . S
Fe88 O99 1.976 . S
Fe88 O102 1.996 . S
Fe89 O90 1.918 . S
Fe89 O97 1.997 . S
Fe89 O100 1.996 . S
Fe89 O104 1.976 . S
Fe89 O107 2.002 . S
O90 Fe88 1.918 . S
O90 Fe89 1.918 . S
O90 Fe91 1.918 . S
Fe91 O90 1.918 . S
Fe91 O92 2.002 . S
Fe91 O101 1.976 . S
Fe91 O105 1.996 . S
Fe91 O108 1.997 . S
O92 Fe91 2.002 . S
O92 C109 1.295 . S
O93 Fe88 1.997 . S
O93 C109 1.235 . S
O94 Fe88 2.002 . S
O94 C95 1.295 . S
C95 O94 1.295 . S
C95 O97 1.235 . S
C96 O101 1.287 . S
C96 O102 1.255 . S
O97 Fe89 1.997 . S
O97 C95 1.235 . S
C98 O104 1.287 . S
C98 O105 1.255 . S
O99 Fe88 1.976 . S
O99 C106 1.287 . S
O100 Fe89 1.996 . S
O100 C106 1.255 . S
O101 Fe91 1.976 . S
O101 C96 1.287 . S
O102 Fe88 1.996 . S
O102 C96 1.255 . S
C103 O107 1.295 . S
C103 O108 1.235 . S
O104 Fe89 1.976 . S
O104 C98 1.287 . S
O105 Fe91 1.996 . S
O105 C98 1.255 . S
C106 O99 1.287 . S
C106 O100 1.255 . S
O107 Fe89 2.002 . S
O107 C103 1.295 . S
O108 Fe91 1.997 . S
O108 C103 1.235 . S
C109 O92 1.295 . S
C109 O93 1.235 . S
Fe110 O112 1.918 . S
Fe110 O115 1.997 . S
Fe110 O116 2.002 . S
Fe110 O121 1.976 . S
Fe110 O124 1.996 . S
Fe111 O112 1.918 . S
Fe111 O119 1.997 . S
Fe111 O122 1.996 . S
Fe111 O126 1.976 . S
Fe111 O129 2.002 . S
O112 Fe110 1.918 . S
O112 Fe111 1.918 . S
O112 Fe113 1.918 . S
Fe113 O112 1.918 . S
Fe113 O114 2.002 . S
Fe113 O123 1.976 . S
Fe113 O127 1.996 . S
Fe113 O130 1.997 . S
O114 Fe113 2.002 . S
O114 C131 1.295 . S
O115 Fe110 1.997 . S
O115 C131 1.235 . S
O116 Fe110 2.002 . S
O116 C117 1.295 . S
C117 O116 1.295 . S
C117 O119 1.235 . S
C118 O123 1.287 . S
C118 O124 1.255 . S
O119 Fe111 1.997 . S
O119 C117 1.235 . S
C120 O126 1.287 . S
C120 O127 1.255 . S
O121 Fe110 1.976 . S
O121 C128 1.287 . S
O122 Fe111 1.996 . S
O122 C128 1.255 . S
O123 Fe113 1.976 . S
O123 C118 1.287 . S
O124 Fe110 1.996 . S
O124 C118 1.255 . S
C125 O129 1.295 . S
C125 O130 1.235 . S
O126 Fe111 1.976 . S
O126 C120 1.287 . S
O127 Fe113 1.996 . S
O127 C120 1.255 . S
C128 O121 1.287 . S
C128 O122 1.255 . S
O129 Fe111 2.002 . S
O129 C125 1.295 . S
O130 Fe113 1.997 . S
O130 C125 1.235 . S
C131 O114 1.295 . S
C131 O115 1.235 . S
Fe132 O134 1.918 . S
Fe132 O137 1.997 . S
Fe132 O138 2.002 . S
Fe132 O143 1.976 . S
Fe132 O146 1.996 . S
Fe133 O134 1.918 . S
Fe133 O141 1.997 . S
Fe133 O144 1.996 . S
Fe133 O148 1.976 . S
Fe133 O151 2.002 . S
O134 Fe132 1.918 . S
O134 Fe133 1.918 . S
O134 Fe135 1.918 . S
Fe135 O134 1.918 . S
Fe135 O136 2.002 . S
Fe135 O145 1.976 . S
Fe135 O149 1.996 . S
Fe135 O152 1.997 . S
O136 Fe135 2.002 . S
O136 C153 1.295 . S
O137 Fe132 1.997 . S
O137 C153 1.235 . S
O138 Fe132 2.002 . S
O138 C139 1.295 . S
C139 O138 1.295 . S
C139 O141 1.235 . S
C140 O145 1.287 . S
C140 O146 1.255 . S
O141 Fe133 1.997 . S
O141 C139 1.235 . S
C142 O148 1.287 . S
C142 O149 1.255 . S
O143 Fe132 1.976 . S
O143 C150 1.287 . S
O144 Fe133 1.996 . S
O144 C150 1.255 . S
O145 Fe135 1.976 . S
O145 C140 1.287 . S
O146 Fe132 1.996 . S
O146 C140 1.255 . S
C147 O151 1.295 . S
C147 O152 1.235 . S
O148 Fe133 1.976 . S
O148 C142 1.287 . S
O149 Fe135 1.996 . S
O149 C142 1.255 . S
C150 O143 1.287 . S
C150 O144 1.255 . S
O151 Fe133 2.002 . S
O151 C147 1.295 . S
O152 Fe135 1.997 . S
O152 C147 1.235 . S
C153 O136 1.295 . S
C153 O137 1.235 . S
Fe154 O156 1.918 . S
Fe154 O159 1.997 . S
Fe154 O160 2.002 . S
Fe154 O165 1.976 . S
Fe154 O168 1.996 . S
Fe155 O156 1.918 . S
Fe155 O163 1.997 . S
Fe155 O166 1.996 . S
Fe155 O170 1.976 . S
Fe155 O173 2.002 . S
O156 Fe154 1.918 . S
O156 Fe155 1.918 . S
O156 Fe157 1.918 . S
Fe157 O156 1.918 . S
Fe157 O158 2.002 . S
Fe157 O167 1.976 . S
Fe157 O171 1.996 . S
Fe157 O174 1.997 . S
O158 Fe157 2.002 . S
O158 C175 1.295 . S
O159 Fe154 1.997 . S
O159 C175 1.235 . S
O160 Fe154 2.002 . S
O160 C161 1.295 . S
C161 O160 1.295 . S
C161 O163 1.235 . S
C162 O167 1.287 . S
C162 O168 1.255 . S
O163 Fe155 1.997 . S
O163 C161 1.235 . S
C164 O170 1.287 . S
C164 O171 1.255 . S
O165 Fe154 1.976 . S
O165 C172 1.287 . S
O166 Fe155 1.996 . S
O166 C172 1.255 . S
O167 Fe157 1.976 . S
O167 C162 1.287 . S
O168 Fe154 1.996 . S
O168 C162 1.255 . S
C169 O173 1.295 . S
C169 O174 1.235 . S
O170 Fe155 1.976 . S
O170 C164 1.287 . S
O171 Fe157 1.996 . S
O171 C164 1.255 . S
C172 O165 1.287 . S
C172 O166 1.255 . S
O173 Fe155 2.002 . S
O173 C169 1.295 . S
O174 Fe157 1.997 . S
O174 C169 1.235 . S
C175 O158 1.295 . S
C175 O159 1.235 . S
H176 C184 0.950 . S
H177 C189 0.950 . S
H178 C186 0.950 . S
H179 C188 0.950 . S
H180 C190 0.950 . S
H181 C192 0.950 . S
H182 C194 0.950 . S
H183 C195 0.950 . S
C184 H176 0.950 . S
C184 C185 1.386 . S
C184 C186 1.391 . S
C185 C184 1.386 . S
C185 C189 1.393 . S
C186 H178 0.950 . S
C186 C184 1.391 . S
C186 C187 1.400 . S
C187 C186 1.400 . S
C187 C188 1.398 . S
C187 C193 1.491 . S
C188 H179 0.950 . S
C188 C187 1.398 . S
C188 C189 1.391 . S
C189 H177 0.950 . S
C189 C185 1.393 . S
C189 C188 1.391 . S
C190 H180 0.950 . S
C190 C191 1.386 . S
C190 C192 1.391 1_545 S
C191 C190 1.386 . S
C191 C195 1.393 . S
C192 H181 0.950 . S
C192 C190 1.391 1_565 S
C192 C193 1.400 . S
C193 C187 1.491 . S
C193 C192 1.400 . S
C193 C194 1.398 1_565 S
C194 H182 0.950 . S
C194 C193 1.398 1_545 S
C194 C195 1.391 . S
C195 H183 0.950 . S
C195 C191 1.393 . S
C195 C194 1.391 . S
H196 C204 0.950 . S
H197 C209 0.950 . S
H198 C206 0.950 . S
H199 C208 0.950 . S
H200 C210 0.950 . S
H201 C212 0.950 . S
H202 C214 0.950 . S
H203 C215 0.950 . S
C204 H196 0.950 . S
C204 C205 1.386 . S
C204 C206 1.391 1_655 S
C205 C204 1.386 . S
C205 C209 1.393 1_655 S
C206 H198 0.950 . S
C206 C204 1.391 1_455 S
C206 C207 1.400 . S
C207 C206 1.400 . S
C207 C208 1.398 . S
C207 C213 1.491 . S
C208 H199 0.950 . S
C208 C207 1.398 . S
C208 C209 1.391 . S
C209 H197 0.950 . S
C209 C205 1.393 1_455 S
C209 C208 1.391 . S
C210 H200 0.950 . S
C210 C211 1.386 . S
C210 C212 1.391 1_545 S
C211 C210 1.386 . S
C211 C215 1.393 . S
C212 H201 0.950 . S
C212 C210 1.391 1_565 S
C212 C213 1.400 . S
C213 C207 1.491 . S
C213 C212 1.400 . S
C213 C214 1.398 . S
C214 H202 0.950 . S
C214 C213 1.398 . S
C214 C215 1.391 1_565 S
C215 H203 0.950 . S
C215 C211 1.393 . S
C215 C214 1.391 1_545 S
H216 C224 0.950 . S
H217 C229 0.950 . S
H218 C226 0.950 . S
H219 C228 0.950 . S
H220 C230 0.950 . S
H221 C232 0.950 . S
H222 C234 0.950 . S
H223 C235 0.950 . S
C224 H216 0.950 . S
C224 C225 1.386 . S
C224 C226 1.391 1_565 S
C225 C224 1.386 . S
C225 C229 1.393 . S
C226 H218 0.950 . S
C226 C224 1.391 1_545 S
C226 C227 1.400 . S
C227 C226 1.400 . S
C227 C228 1.398 . S
C227 C233 1.491 . S
C228 H219 0.950 . S
C228 C227 1.398 . S
C228 C229 1.391 1_545 S
C229 H217 0.950 . S
C229 C225 1.393 . S
C229 C228 1.391 1_565 S
C230 H220 0.950 . S
C230 C231 1.386 . S
C230 C232 1.391 . S
C231 C230 1.386 . S
C231 C235 1.393 . S
C232 H221 0.950 . S
C232 C230 1.391 . S
C232 C233 1.400 . S
C233 C227 1.491 . S
C233 C232 1.400 . S
C233 C234 1.398 . S
C234 H222 0.950 . S
C234 C233 1.398 . S
C234 C235 1.391 . S
C235 H223 0.950 . S
C235 C231 1.393 . S
C235 C234 1.391 . S
H236 C244 0.950 . S
H237 C249 0.950 . S
H238 C246 0.950 . S
H239 C248 0.950 . S
H240 C250 0.950 . S
H241 C252 0.950 . S
H242 C254 0.950 . S
H243 C255 0.950 . S
C244 H236 0.950 . S
C244 C245 1.386 1_545 S
C244 C246 1.391 . S
C245 C244 1.386 1_565 S
C245 C249 1.393 . S
C246 H238 0.950 . S
C246 C244 1.391 . S
C246 C247 1.400 . S
C247 C246 1.400 . S
C247 C248 1.398 1_545 S
C247 C253 1.491 . S
C248 H239 0.950 . S
C248 C247 1.398 1_565 S
C248 C249 1.391 . S
C249 H237 0.950 . S
C249 C245 1.393 . S
C249 C248 1.391 . S
C250 H240 0.950 . S
C250 C251 1.386 . S
C250 C252 1.391 1_455 S
C251 C250 1.386 . S
C251 C255 1.393 1_455 S
C252 H241 0.950 . S
C252 C250 1.391 1_655 S
C252 C253 1.400 . S
C253 C247 1.491 . S
C253 C252 1.400 . S
C253 C254 1.398 . S
C254 H242 0.950 . S
C254 C253 1.398 . S
C254 C255 1.391 . S
C255 H243 0.950 . S
C255 C251 1.393 1_655 S
C255 C254 1.391 . S
H256 C264 0.950 . S
H257 C269 0.950 . S
H258 C266 0.950 . S
H259 C268 0.950 . S
H260 C270 0.950 . S
H261 C272 0.950 . S
H262 C274 0.950 . S
H263 C275 0.950 . S
C264 H256 0.950 . S
C264 C265 1.386 1_655 S
C264 C266 1.391 . S
C265 C264 1.386 1_455 S
C265 C269 1.393 . S
C266 H258 0.950 . S
C266 C264 1.391 . S
C266 C267 1.400 . S
C267 C266 1.400 . S
C267 C268 1.398 . S
C267 C273 1.491 . S
C268 H259 0.950 . S
C268 C267 1.398 . S
C268 C269 1.391 1_655 S
C269 H257 0.950 . S
C269 C265 1.393 . S
C269 C268 1.391 1_455 S
C270 H260 0.950 . S
C270 C271 1.386 . S
C270 C272 1.391 . S
C271 C270 1.386 . S
C271 C275 1.393 . S
C272 H261 0.950 . S
C272 C270 1.391 . S
C272 C273 1.400 . S
C273 C267 1.491 . S
C273 C272 1.400 . S
C273 C274 1.398 . S
C274 H262 0.950 . S
C274 C273 1.398 . S
C274 C275 1.391 . S
C275 H263 0.950 . S
C275 C271 1.393 . S
C275 C274 1.391 . S
H276 C284 0.950 . S
H277 C289 0.950 . S
H278 C286 0.950 . S
H279 C288 0.950 . S
H280 C290 0.950 . S
H281 C292 0.950 . S
H282 C294 0.950 . S
H283 C295 0.950 . S
C284 H276 0.950 . S
C284 C285 1.386 . S
C284 C286 1.391 . S
C285 C284 1.386 . S
C285 C289 1.393 . S
C286 H278 0.950 . S
C286 C284 1.391 . S
C286 C287 1.400 . S
C287 C286 1.400 . S
C287 C288 1.398 . S
C287 C293 1.491 . S
C288 H279 0.950 . S
C288 C287 1.398 . S
C288 C289 1.391 . S
C289 H277 0.950 . S
C289 C285 1.393 . S
C289 C288 1.391 . S
C290 H280 0.950 . S
C290 C291 1.386 . S
C290 C292 1.391 . S
C291 C290 1.386 . S
C291 C295 1.393 . S
C292 H281 0.950 . S
C292 C290 1.391 . S
C292 C293 1.400 . S
C293 C287 1.491 . S
C293 C292 1.400 . S
C293 C294 1.398 . S
C294 H282 0.950 . S
C294 C293 1.398 . S
C294 C295 1.391 . S
C295 H283 0.950 . S
C295 C291 1.393 . S
C295 C294 1.391 . S
H296 C304 0.950 . S
H297 C309 0.950 . S
H298 C306 0.950 . S
H299 C308 0.950 . S
H300 C310 0.950 . S
H301 C312 0.950 . S
H302 C314 0.950 . S
H303 C315 0.950 . S
C304 H296 0.950 . S
C304 C305 1.386 . S
C304 C306 1.391 1_655 S
C305 C304 1.386 . S
C305 C309 1.393 1_655 S
C306 H298 0.950 . S
C306 C304 1.391 1_455 S
C306 C307 1.400 . S
C307 C306 1.400 . S
C307 C308 1.398 . S
C307 C313 1.491 . S
C308 H299 0.950 . S
C308 C307 1.398 . S
C308 C309 1.391 . S
C309 H297 0.950 . S
C309 C305 1.393 1_455 S
C309 C308 1.391 . S
C310 H300 0.950 . S
C310 C311 1.386 . S
C310 C312 1.391 . S
C311 C310 1.386 . S
C311 C315 1.393 . S
C312 H301 0.950 . S
C312 C310 1.391 . S
C312 C313 1.400 . S
C313 C307 1.491 . S
C313 C312 1.400 . S
C313 C314 1.398 . S
C314 H302 0.950 . S
C314 C313 1.398 . S
C314 C315 1.391 . S
C315 H303 0.950 . S
C315 C311 1.393 . S
C315 C314 1.391 . S
H316 C324 0.950 . S
H317 C329 0.950 . S
H318 C326 0.950 . S
H319 C328 0.950 . S
H320 C330 0.950 . S
H321 C332 0.950 . S
H322 C334 0.950 . S
H323 C335 0.950 . S
C324 H316 0.950 . S
C324 C325 1.386 . S
C324 C326 1.391 . S
C325 C324 1.386 . S
C325 C329 1.393 . S
C326 H318 0.950 . S
C326 C324 1.391 . S
C326 C327 1.400 . S
C327 C326 1.400 . S
C327 C328 1.398 . S
C327 C333 1.491 . S
C328 H319 0.950 . S
C328 C327 1.398 . S
C328 C329 1.391 . S
C329 H317 0.950 . S
C329 C325 1.393 . S
C329 C328 1.391 . S
C330 H320 0.950 . S
C330 C331 1.386 . S
C330 C332 1.391 . S
C331 C330 1.386 . S
C331 C335 1.393 . S
C332 H321 0.950 . S
C332 C330 1.391 . S
C332 C333 1.400 . S
C333 C327 1.491 . S
C333 C332 1.400 . S
C333 C334 1.398 . S
C334 H322 0.950 . S
C334 C333 1.398 . S
C334 C335 1.391 . S
C335 H323 0.950 . S
C335 C331 1.393 . S
C335 C334 1.391 . S
H336 C344 0.950 . S
H337 C349 0.950 . S
H338 C346 0.950 . S
H339 C348 0.950 . S
H340 C350 0.950 . S
H341 C352 0.950 . S
H342 C354 0.950 . S
H343 C355 0.950 . S
C344 H336 0.950 . S
C344 C345 1.386 . S
C344 C346 1.391 . S
C345 C344 1.386 . S
C345 C349 1.393 1_545 S
C346 H338 0.950 . S
C346 C344 1.391 . S
C346 C347 1.400 . S
C347 C346 1.400 . S
C347 C348 1.398 1_545 S
C347 C353 1.491 1_444 S
C348 H339 0.950 . S
C348 C347 1.398 1_565 S
C348 C349 1.391 . S
C349 H337 0.950 . S
C349 C345 1.393 1_565 S
C349 C348 1.391 . S
C350 H340 0.950 . S
C350 C351 1.386 . S
C350 C352 1.391 . S
C351 C350 1.386 . S
C351 C355 1.393 1_565 S
C352 H341 0.950 . S
C352 C350 1.391 . S
C352 C353 1.400 . S
C353 C347 1.491 1_666 S
C353 C352 1.400 . S
C353 C354 1.398 1_565 S
C354 H342 0.950 . S
C354 C353 1.398 1_545 S
C354 C355 1.391 . S
C355 H343 0.950 . S
C355 C351 1.393 1_545 S
C355 C354 1.391 . S
H356 C364 0.950 . S
H357 C369 0.950 . S
H358 C366 0.950 . S
H359 C368 0.950 . S
H360 C370 0.950 . S
H361 C372 0.950 . S
H362 C374 0.950 . S
H363 C375 0.950 . S
C364 H356 0.950 . S
C364 C365 1.386 . S
C364 C366 1.391 . S
C365 C364 1.386 . S
C365 C369 1.393 1_565 S
C366 H358 0.950 . S
C366 C364 1.391 . S
C366 C367 1.400 . S
C367 C366 1.400 . S
C367 C368 1.398 1_565 S
C367 C373 1.491 1_564 S
C368 H359 0.950 . S
C368 C367 1.398 1_545 S
C368 C369 1.391 . S
C369 H357 0.950 . S
C369 C365 1.393 1_545 S
C369 C368 1.391 . S
C370 H360 0.950 . S
C370 C371 1.386 . S
C370 C372 1.391 . S
C371 C370 1.386 . S
C371 C375 1.393 1_545 S
C372 H361 0.950 . S
C372 C370 1.391 . S
C372 C373 1.400 . S
C373 C367 1.491 1_546 S
C373 C372 1.400 . S
C373 C374 1.398 1_545 S
C374 H362 0.950 . S
C374 C373 1.398 1_565 S
C374 C375 1.391 . S
C375 H363 0.950 . S
C375 C371 1.393 1_565 S
C375 C374 1.391 . S
H376 C384 0.950 . S
H377 C389 0.950 . S
H378 C386 0.950 . S
H379 C388 0.950 . S
H380 C390 0.950 . S
H381 C392 0.950 . S
H382 C394 0.950 . S
H383 C395 0.950 . S
C384 H376 0.950 . S
C384 C385 1.386 . S
C384 C386 1.391 . S
C385 C384 1.386 . S
C385 C389 1.393 . S
C386 H378 0.950 . S
C386 C384 1.391 . S
C386 C387 1.400 . S
C387 C386 1.400 . S
C387 C388 1.398 . S
C387 C393 1.491 . S
C388 H379 0.950 . S
C388 C387 1.398 . S
C388 C389 1.391 . S
C389 H377 0.950 . S
C389 C385 1.393 . S
C389 C388 1.391 . S
C390 H380 0.950 . S
C390 C391 1.386 . S
C390 C392 1.391 . S
C391 C390 1.386 . S
C391 C395 1.393 . S
C392 H381 0.950 . S
C392 C390 1.391 . S
C392 C393 1.400 . S
C393 C387 1.491 . S
C393 C392 1.400 . S
C393 C394 1.398 . S
C394 H382 0.950 . S
C394 C393 1.398 . S
C394 C395 1.391 . S
C395 H383 0.950 . S
C395 C391 1.393 . S
C395 C394 1.391 . S
H396 C404 0.950 . S
H397 C409 0.950 . S
H398 C406 0.950 . S
H399 C408 0.950 1_655 S
H400 C410 0.950 . S
H401 C412 0.950 . S
H402 C414 0.950 1_455 S
H403 C415 0.950 . S
C404 H396 0.950 . S
C404 C405 1.386 . S
C404 C406 1.391 . S
C405 C404 1.386 . S
C405 C409 1.393 . S
C406 H398 0.950 . S
C406 C404 1.391 . S
C406 C407 1.400 . S
C407 C406 1.400 . S
C407 C408 1.398 . S
C407 C413 1.491 1_455 S
C408 H399 0.950 1_455 S
C408 C407 1.398 . S
C408 C409 1.391 . S
C409 H397 0.950 . S
C409 C405 1.393 . S
C409 C408 1.391 . S
C410 H400 0.950 . S
C410 C411 1.386 . S
C410 C412 1.391 . S
C411 C410 1.386 . S
C411 C415 1.393 . S
C412 H401 0.950 . S
C412 C410 1.391 . S
C412 C413 1.400 . S
C413 C407 1.491 1_655 S
C413 C412 1.400 . S
C413 C414 1.398 . S
C414 H402 0.950 1_655 S
C414 C413 1.398 . S
C414 C415 1.391 . S
C415 H403 0.950 . S
C415 C411 1.393 . S
C415 C414 1.391 . S
H416 C424 0.950 . S
H417 C429 0.950 . S
H418 C426 0.950 1_554 S
H419 C428 0.950 . S
H420 C430 0.950 . S
H421 C432 0.950 1_556 S
H422 C434 0.950 . S
H423 C435 0.950 . S
C424 H416 0.950 . S
C424 C425 1.386 . S
C424 C426 1.391 . S
C425 C424 1.386 . S
C425 C429 1.393 . S
C426 H418 0.950 1_556 S
C426 C424 1.391 . S
C426 C427 1.400 . S
C427 C426 1.400 . S
C427 C428 1.398 . S
C427 C433 1.491 1_556 S
C428 H419 0.950 . S
C428 C427 1.398 . S
C428 C429 1.391 . S
C429 H417 0.950 . S
C429 C425 1.393 . S
C429 C428 1.391 . S
C430 H420 0.950 . S
C430 C431 1.386 . S
C430 C432 1.391 . S
C431 C430 1.386 . S
C431 C435 1.393 . S
C432 H421 0.950 1_554 S
C432 C430 1.391 . S
C432 C433 1.400 . S
C433 C427 1.491 1_554 S
C433 C432 1.400 . S
C433 C434 1.398 . S
C434 H422 0.950 . S
C434 C433 1.398 . S
C434 C435 1.391 . S
C435 H423 0.950 . S
C435 C431 1.393 . S
C435 C434 1.391 . S
H436 C444 0.950 . S
H437 C449 0.950 . S
H438 C446 0.950 . S
H439 C448 0.950 . S
H440 C450 0.950 . S
H441 C452 0.950 . S
H442 C454 0.950 . S
H443 C455 0.950 . S
C444 H436 0.950 . S
C444 C445 1.386 . S
C444 C446 1.391 . S
C445 C444 1.386 . S
C445 C449 1.393 . S
C446 H438 0.950 . S
C446 C444 1.391 . S
C446 C447 1.400 . S
C447 C446 1.400 . S
C447 C448 1.398 . S
C447 C453 1.491 1_556 S
C448 H439 0.950 . S
C448 C447 1.398 . S
C448 C449 1.391 . S
C449 H437 0.950 . S
C449 C445 1.393 . S
C449 C448 1.391 . S
C450 H440 0.950 . S
C450 C451 1.386 . S
C450 C452 1.391 . S
C451 C450 1.386 . S
C451 C455 1.393 . S
C452 H441 0.950 . S
C452 C450 1.391 . S
C452 C453 1.400 . S
C453 C447 1.491 1_554 S
C453 C452 1.400 . S
C453 C454 1.398 . S
C454 H442 0.950 . S
C454 C453 1.398 . S
C454 C455 1.391 . S
C455 H443 0.950 . S
C455 C451 1.393 . S
C455 C454 1.391 . S
H456 C464 0.950 . S
H457 C469 0.950 . S
H458 C466 0.950 . S
H459 C468 0.950 . S
H460 C470 0.950 . S
H461 C472 0.950 . S
H462 C474 0.950 . S
H463 C475 0.950 . S
C464 H456 0.950 . S
C464 C465 1.386 . S
C464 C466 1.391 . S
C465 C464 1.386 . S
C465 C469 1.393 . S
C466 H458 0.950 . S
C466 C464 1.391 . S
C466 C467 1.400 . S
C467 C466 1.400 . S
C467 C468 1.398 . S
C467 C473 1.491 . S
C468 H459 0.950 . S
C468 C467 1.398 . S
C468 C469 1.391 . S
C469 H457 0.950 . S
C469 C465 1.393 . S
C469 C468 1.391 . S
C470 H460 0.950 . S
C470 C471 1.386 . S
C470 C472 1.391 . S
C471 C470 1.386 . S
C471 C475 1.393 . S
C472 H461 0.950 . S
C472 C470 1.391 . S
C472 C473 1.400 . S
C473 C467 1.491 . S
C473 C472 1.400 . S
C473 C474 1.398 . S
C474 H462 0.950 . S
C474 C473 1.398 . S
C474 C475 1.391 . S
C475 H463 0.950 . S
C475 C471 1.393 . S
C475 C474 1.391 . S
H476 C484 0.950 . S
H477 C489 0.950 . S
H478 C486 0.950 . S
H479 C488 0.950 . S
H480 C490 0.950 . S
H481 C492 0.950 . S
H482 C494 0.950 . S
H483 C495 0.950 . S
C484 H476 0.950 . S
C484 C485 1.386 . S
C484 C486 1.391 . S
C485 C484 1.386 . S
C485 C489 1.393 . S
C486 H478 0.950 . S
C486 C484 1.391 . S
C486 C487 1.400 . S
C487 C486 1.400 . S
C487 C488 1.398 . S
C487 C493 1.491 . S
C488 H479 0.950 . S
C488 C487 1.398 . S
C488 C489 1.391 . S
C489 H477 0.950 . S
C489 C485 1.393 . S
C489 C488 1.391 . S
C490 H480 0.950 . S
C490 C491 1.386 . S
C490 C492 1.391 . S
C491 C490 1.386 . S
C491 C495 1.393 . S
C492 H481 0.950 . S
C492 C490 1.391 . S
C492 C493 1.400 . S
C493 C487 1.491 . S
C493 C492 1.400 . S
C493 C494 1.398 . S
C494 H482 0.950 . S
C494 C493 1.398 . S
C494 C495 1.391 . S
C495 H483 0.950 . S
C495 C491 1.393 . S
C495 C494 1.391 . S
H496 C504 0.950 . S
H497 C509 0.950 . S
H498 C506 0.950 . S
H499 C508 0.950 . S
H500 C510 0.950 . S
H501 C512 0.950 . S
H502 C514 0.950 . S
H503 C515 0.950 . S
C504 H496 0.950 . S
C504 C505 1.386 . S
C504 C506 1.391 . S
C505 C504 1.386 . S
C505 C509 1.393 . S
C506 H498 0.950 . S
C506 C504 1.391 . S
C506 C507 1.400 . S
C507 C506 1.400 . S
C507 C508 1.398 . S
C507 C513 1.491 . S
C508 H499 0.950 . S
C508 C507 1.398 . S
C508 C509 1.391 . S
C509 H497 0.950 . S
C509 C505 1.393 . S
C509 C508 1.391 . S
C510 H500 0.950 . S
C510 C511 1.386 . S
C510 C512 1.391 . S
C511 C510 1.386 . S
C511 C515 1.393 . S
C512 H501 0.950 . S
C512 C510 1.391 . S
C512 C513 1.400 . S
C513 C507 1.491 . S
C513 C512 1.400 . S
C513 C514 1.398 . S
C514 H502 0.950 . S
C514 C513 1.398 . S
C514 C515 1.391 . S
C515 H503 0.950 . S
C515 C511 1.393 . S
C515 C514 1.391 . S
H516 C524 0.950 . S
H517 C529 0.950 . S
H518 C526 0.950 . S
H519 C528 0.950 . S
H520 C530 0.950 . S
H521 C532 0.950 . S
H522 C534 0.950 . S
H523 C535 0.950 . S
C524 H516 0.950 . S
C524 C525 1.386 . S
C524 C526 1.391 . S
C525 C524 1.386 . S
C525 C529 1.393 . S
C526 H518 0.950 . S
C526 C524 1.391 . S
C526 C527 1.400 . S
C527 C526 1.400 . S
C527 C528 1.398 . S
C527 C533 1.491 . S
C528 H519 0.950 . S
C528 C527 1.398 . S
C528 C529 1.391 . S
C529 H517 0.950 . S
C529 C525 1.393 . S
C529 C528 1.391 . S
C530 H520 0.950 . S
C530 C531 1.386 . S
C530 C532 1.391 . S
C531 C530 1.386 . S
C531 C535 1.393 . S
C532 H521 0.950 . S
C532 C530 1.391 . S
C532 C533 1.400 . S
C533 C527 1.491 . S
C533 C532 1.400 . S
C533 C534 1.398 . S
C534 H522 0.950 . S
C534 C533 1.398 . S
C534 C535 1.391 . S
C535 H523 0.950 . S
C535 C531 1.393 . S
C535 C534 1.391 . S
H536 C544 0.950 . S
H537 C549 0.950 . S
H538 C546 0.950 . S
H539 C548 0.950 . S
H540 C550 0.950 . S
H541 C552 0.950 . S
H542 C554 0.950 . S
H543 C555 0.950 . S
C544 H536 0.950 . S
C544 C545 1.386 . S
C544 C546 1.391 . S
C545 C544 1.386 . S
C545 C549 1.393 . S
C546 H538 0.950 . S
C546 C544 1.391 . S
C546 C547 1.400 . S
C547 C546 1.400 . S
C547 C548 1.398 . S
C547 C553 1.491 1_556 S
C548 H539 0.950 . S
C548 C547 1.398 . S
C548 C549 1.391 . S
C549 H537 0.950 . S
C549 C545 1.393 . S
C549 C548 1.391 . S
C550 H540 0.950 . S
C550 C551 1.386 . S
C550 C552 1.391 . S
C551 C550 1.386 . S
C551 C555 1.393 . S
C552 H541 0.950 . S
C552 C550 1.391 . S
C552 C553 1.400 . S
C553 C547 1.491 1_554 S
C553 C552 1.400 . S
C553 C554 1.398 . S
C554 H542 0.950 . S
C554 C553 1.398 . S
C554 C555 1.391 . S
C555 H543 0.950 . S
C555 C551 1.393 . S
C555 C554 1.391 . S
H556 C564 0.950 . S
H557 C569 0.950 . S
H558 C566 0.950 . S
H559 C568 0.950 . S
H560 C570 0.950 . S
H561 C572 0.950 . S
H562 C574 0.950 . S
H563 C575 0.950 . S
C564 H556 0.950 . S
C564 C565 1.386 . S
C564 C566 1.391 . S
C565 C564 1.386 . S
C565 C569 1.393 . S
C566 H558 0.950 . S
C566 C564 1.391 . S
C566 C567 1.400 . S
C567 C566 1.400 . S
C567 C568 1.398 . S
C567 C573 1.491 1_556 S
C568 H559 0.950 . S
C568 C567 1.398 . S
C568 C569 1.391 . S
C569 H557 0.950 . S
C569 C565 1.393 . S
C569 C568 1.391 . S
C570 H560 0.950 . S
C570 C571 1.386 . S
C570 C572 1.391 . S
C571 C570 1.386 . S
C571 C575 1.393 . S
C572 H561 0.950 . S
C572 C570 1.391 . S
C572 C573 1.400 . S
C573 C567 1.491 1_554 S
C573 C572 1.400 . S
C573 C574 1.398 . S
C574 H562 0.950 . S
C574 C573 1.398 . S
C574 C575 1.391 . S
C575 H563 0.950 . S
C575 C571 1.393 . S
C575 C574 1.391 . S
H576 C584 0.950 . S
H577 C589 0.950 . S
H578 C586 0.950 . S
H579 C588 0.950 . S
H580 C590 0.950 . S
H581 C592 0.950 . S
H582 C594 0.950 . S
H583 C595 0.950 . S
C584 H576 0.950 . S
C584 C585 1.386 . S
C584 C586 1.391 . S
C585 C584 1.386 . S
C585 C589 1.393 . S
C586 H578 0.950 . S
C586 C584 1.391 . S
C586 C587 1.400 . S
C587 C586 1.400 . S
C587 C588 1.398 . S
C587 C593 1.491 . S
C588 H579 0.950 . S
C588 C587 1.398 . S
C588 C589 1.391 . S
C589 H577 0.950 . S
C589 C585 1.393 . S
C589 C588 1.391 . S
C590 H580 0.950 . S
C590 C591 1.386 . S
C590 C592 1.391 . S
C591 C590 1.386 . S
C591 C595 1.393 . S
C592 H581 0.950 . S
C592 C590 1.391 . S
C592 C593 1.400 . S
C593 C587 1.491 . S
C593 C592 1.400 . S
C593 C594 1.398 . S
C594 H582 0.950 . S
C594 C593 1.398 . S
C594 C595 1.391 . S
C595 H583 0.950 . S
C595 C591 1.393 . S
C595 C594 1.391 . S
H596 C604 0.950 . S
H597 C609 0.950 . S
H598 C606 0.950 . S
H599 C608 0.950 . S
H600 C610 0.950 . S
H601 C612 0.950 . S
H602 C614 0.950 . S
H603 C615 0.950 . S
C604 H596 0.950 . S
C604 C605 1.386 . S
C604 C606 1.391 . S
C605 C604 1.386 . S
C605 C609 1.393 . S
C606 H598 0.950 . S
C606 C604 1.391 . S
C606 C607 1.400 . S
C607 C606 1.400 . S
C607 C608 1.398 . S
C607 C613 1.491 . S
C608 H599 0.950 . S
C608 C607 1.398 . S
C608 C609 1.391 . S
C609 H597 0.950 . S
C609 C605 1.393 . S
C609 C608 1.391 . S
C610 H600 0.950 . S
C610 C611 1.386 . S
C610 C612 1.391 . S
C611 C610 1.386 . S
C611 C615 1.393 . S
C612 H601 0.950 . S
C612 C610 1.391 . S
C612 C613 1.400 . S
C613 C607 1.491 . S
C613 C612 1.400 . S
C613 C614 1.398 . S
C614 H602 0.950 . S
C614 C613 1.398 . S
C614 C615 1.391 . S
C615 H603 0.950 . S
C615 C611 1.393 . S
C615 C614 1.391 . S
H616 C624 0.950 . S
H617 C629 0.950 . S
H618 C626 0.950 . S
H619 C628 0.950 . S
H620 C630 0.950 . S
H621 C632 0.950 . S
H622 C634 0.950 . S
H623 C635 0.950 . S
C624 H616 0.950 . S
C624 C625 1.386 . S
C624 C626 1.391 . S
C625 C624 1.386 . S
C625 C629 1.393 . S
C626 H618 0.950 . S
C626 C624 1.391 . S
C626 C627 1.400 . S
C627 C626 1.400 . S
C627 C628 1.398 . S
C627 C633 1.491 . S
C628 H619 0.950 . S
C628 C627 1.398 . S
C628 C629 1.391 . S
C629 H617 0.950 . S
C629 C625 1.393 . S
C629 C628 1.391 . S
C630 H620 0.950 . S
C630 C631 1.386 . S
C630 C632 1.391 . S
C631 C630 1.386 . S
C631 C635 1.393 . S
C632 H621 0.950 . S
C632 C630 1.391 . S
C632 C633 1.400 . S
C633 C627 1.491 . S
C633 C632 1.400 . S
C633 C634 1.398 . S
C634 H622 0.950 . S
C634 C633 1.398 . S
C634 C635 1.391 . S
C635 H623 0.950 . S
C635 C631 1.393 . S
C635 C634 1.391 . S
H636 C644 0.950 . S
H637 C649 0.950 . S
H638 C646 0.950 . S
H639 C648 0.950 . S
H640 C650 0.950 . S
H641 C652 0.950 . S
H642 C654 0.950 . S
H643 C655 0.950 . S
C644 H636 0.950 . S
C644 C645 1.386 . S
C644 C646 1.391 . S
C645 C644 1.386 . S
C645 C649 1.393 . S
C646 H638 0.950 . S
C646 C644 1.391 . S
C646 C647 1.400 . S
C647 C646 1.400 . S
C647 C648 1.398 . S
C647 C653 1.491 . S
C648 H639 0.950 . S
C648 C647 1.398 . S
C648 C649 1.391 . S
C649 H637 0.950 . S
C649 C645 1.393 . S
C649 C648 1.391 . S
C650 H640 0.950 . S
C650 C651 1.386 . S
C650 C652 1.391 . S
C651 C650 1.386 . S
C651 C655 1.393 . S
C652 H641 0.950 . S
C652 C650 1.391 . S
C652 C653 1.400 . S
C653 C647 1.491 . S
C653 C652 1.400 . S
C653 C654 1.398 . S
C654 H642 0.950 . S
C654 C653 1.398 . S
C654 C655 1.391 . S
C655 H643 0.950 . S
C655 C651 1.393 . S
C655 C654 1.391 . S
C185 C76 1.345 . S
C191 C21 1.384 . S
C205 C52 1.315 . S
C211 C37 1.393 . S
C225 C51 1.401 . S
C231 C30 1.365 . S
C245 C87 1.404 . S
C251 C18 1.340 . S
C265 C164 1.343 . S
C271 C103 1.387 . S
C285 C125 1.391 . S
C291 C140 1.332 . S
C305 C118 1.362 . S
C311 C139 1.401 . S
C325 C96 1.346 . S
C331 C175 1.402 . S
C345 C7 1.152 . S
C351 C65 1.145 . S
C365 C81 1.125 . S
C371 C43 1.132 . S
C385 C109 1.159 . S
C391 C153 1.152 . S
C405 C169 1.117 . S
C411 C131 1.125 . S
C425 C29 0.980 . S
C431 C15 0.968 . S
C445 C59 0.983 . S
C451 C73 0.974 . S
C465 C117 0.983 . S
C471 C95 0.973 . S
C485 C161 0.983 . S
C491 C147 0.973 . S
C505 C8 1.352 . S
C511 C32 1.355 . S
C525 C62 1.380 . S
C531 C74 1.380 . S
C545 C98 1.362 . S
C551 C120 1.363 . S
C565 C162 1.369 . S
C571 C150 1.369 . S
C585 C10 1.649 . S
C591 C142 1.663 . S
C605 C40 1.661 . S
C611 C172 1.672 . S
C625 C106 1.661 . S
C631 C54 1.673 . S
C645 C128 1.665 . S
C651 C84 1.676 . S
