# Generated by pormake.
# Topology smw, (6)-cn, num edge types: 1
# Building blocks:
#     Node 0, Type 0, BuildingBlock: MIDCAF_clean_sbu_0, # of connection points: 6
#     Node 1, Type 0, BuildingBlock: MIDCAF_clean_sbu_0, # of connection points: 6
#     Node 2, Type 0, BuildingBlock: MIDCAF_clean_sbu_0, # of connection points: 6
#     Node 3, Type 0, BuildingBlock: MIDCAF_clean_sbu_0, # of connection points: 6
#     Node 4, Type 0, BuildingBlock: MIDCAF_clean_sbu_0, # of connection points: 6
#     Node 5, Type 0, BuildingBlock: MIDCAF_clean_sbu_0, # of connection points: 6
#     Node 6, Type 0, BuildingBlock: MIDCAF_clean_sbu_0, # of connection points: 6
#     Node 7, Type 0, BuildingBlock: MIDCAF_clean_sbu_0, # of connection points: 6
#     Node 8, Type 0, BuildingBlock: MIDCAF_clean_sbu_0, # of connection points: 6
#     Node 9, Type 0, BuildingBlock: MIDCAF_clean_sbu_0, # of connection points: 6
#     Node 10, Type 0, BuildingBlock: MIDCAF_clean_sbu_0, # of connection points: 6
#     Node 11, Type 0, BuildingBlock: MIDCAF_clean_sbu_0, # of connection points: 6
#     Edge 12, Type (0, 0), BuildingBlock: XUDNAN_clean_linker_2, # of connection points: 2
#     Edge 13, Type (0, 0), BuildingBlock: XUDNAN_clean_linker_2, # of connection points: 2
#     Edge 14, Type (0, 0), BuildingBlock: XUDNAN_clean_linker_2, # of connection points: 2
#     Edge 15, Type (0, 0), BuildingBlock: XUDNAN_clean_linker_2, # of connection points: 2
#     Edge 16, Type (0, 0), BuildingBlock: XUDNAN_clean_linker_2, # of connection points: 2
#     Edge 17, Type (0, 0), BuildingBlock: XUDNAN_clean_linker_2, # of connection points: 2
#     Edge 18, Type (0, 0), BuildingBlock: XUDNAN_clean_linker_2, # of connection points: 2
#     Edge 19, Type (0, 0), BuildingBlock: XUDNAN_clean_linker_2, # of connection points: 2
#     Edge 20, Type (0, 0), BuildingBlock: XUDNAN_clean_linker_2, # of connection points: 2
#     Edge 21, Type (0, 0), BuildingBlock: XUDNAN_clean_linker_2, # of connection points: 2
#     Edge 22, Type (0, 0), BuildingBlock: XUDNAN_clean_linker_2, # of connection points: 2
#     Edge 23, Type (0, 0), BuildingBlock: XUDNAN_clean_linker_2, # of connection points: 2
#     Edge 24, Type (0, 0), BuildingBlock: XUDNAN_clean_linker_2, # of connection points: 2
#     Edge 25, Type (0, 0), BuildingBlock: XUDNAN_clean_linker_2, # of connection points: 2
#     Edge 26, Type (0, 0), BuildingBlock: XUDNAN_clean_linker_2, # of connection points: 2
#     Edge 27, Type (0, 0), BuildingBlock: XUDNAN_clean_linker_2, # of connection points: 2
#     Edge 28, Type (0, 0), BuildingBlock: XUDNAN_clean_linker_2, # of connection points: 2
#     Edge 29, Type (0, 0), BuildingBlock: XUDNAN_clean_linker_2, # of connection points: 2
#     Edge 30, Type (0, 0), BuildingBlock: XUDNAN_clean_linker_2, # of connection points: 2
#     Edge 31, Type (0, 0), BuildingBlock: XUDNAN_clean_linker_2, # of connection points: 2
#     Edge 32, Type (0, 0), BuildingBlock: XUDNAN_clean_linker_2, # of connection points: 2
#     Edge 33, Type (0, 0), BuildingBlock: XUDNAN_clean_linker_2, # of connection points: 2
#     Edge 34, Type (0, 0), BuildingBlock: XUDNAN_clean_linker_2, # of connection points: 2
#     Edge 35, Type (0, 0), BuildingBlock: XUDNAN_clean_linker_2, # of connection points: 2
#     Edge 36, Type (0, 0), BuildingBlock: XUDNAN_clean_linker_2, # of connection points: 2
#     Edge 37, Type (0, 0), BuildingBlock: XUDNAN_clean_linker_2, # of connection points: 2
#     Edge 38, Type (0, 0), BuildingBlock: XUDNAN_clean_linker_2, # of connection points: 2
#     Edge 39, Type (0, 0), BuildingBlock: XUDNAN_clean_linker_2, # of connection points: 2
#     Edge 40, Type (0, 0), BuildingBlock: XUDNAN_clean_linker_2, # of connection points: 2
#     Edge 41, Type (0, 0), BuildingBlock: XUDNAN_clean_linker_2, # of connection points: 2
#     Edge 42, Type (0, 0), BuildingBlock: XUDNAN_clean_linker_2, # of connection points: 2
#     Edge 43, Type (0, 0), BuildingBlock: XUDNAN_clean_linker_2, # of connection points: 2
#     Edge 44, Type (0, 0), BuildingBlock: XUDNAN_clean_linker_2, # of connection points: 2
#     Edge 45, Type (0, 0), BuildingBlock: XUDNAN_clean_linker_2, # of connection points: 2
#     Edge 46, Type (0, 0), BuildingBlock: XUDNAN_clean_linker_2, # of connection points: 2
#     Edge 47, Type (0, 0), BuildingBlock: XUDNAN_clean_linker_2, # of connection points: 2
# Relax obj value: 0.362
# Max RMSD: 0.258
# Mean RMSD: 0.258
data_MOF--net-smw--node1-MIDCAF_clean_sbu_0--edge1-XUDNAN_clean_linker_2
_symmetry_space_group_name_H-M    P1
_symmetry_Int_Tables_number       1
_symmetry_cell_setting            triclinic
loop_
_symmetry_equiv_pos_as_xyz
'x, y, z'
_cell_length_a     57.746566
_cell_length_b     57.470496
_cell_length_c     17.403613
_cell_angle_alpha  89.964132
_cell_angle_beta   90.037464
_cell_angle_gamma 120.1918
loop_
_atom_site_label
_atom_site_type_symbol
_atom_site_fract_x
_atom_site_fract_y
_atom_site_fract_z
_atom_type_partial_charge
Zn0 Zn 0.41625 0.09779 0.87116 0.0
Zn1 Zn 0.43905 0.11049 0.11948 0.0
Zn2 Zn 0.43062 0.1068 0.9948 0.0
C3 C 0.47335 0.0962 0.07628 0.0
C4 C 0.38537 0.0764 0.10872 0.0
O5 O 0.42155 0.13794 0.94985 0.0
O6 O 0.39048 0.11042 0.86973 0.0
C7 C 0.47316 0.12157 0.86756 0.0
O8 O 0.46786 0.10523 0.01517 0.0
O9 O 0.45789 0.08979 0.13344 0.0
O10 O 0.40103 0.0946 0.15452 0.0
O11 O 0.39407 0.07506 0.04243 0.0
O12 O 0.45516 0.12076 0.8238 0.0
O13 O 0.46603 0.11073 0.9348 0.0
O14 O 0.44181 0.07843 0.93932 0.0
O15 O 0.40113 0.05884 0.89421 0.0
C16 C 0.42152 0.05734 0.91138 0.0
O17 O 0.43879 0.14754 0.01755 0.0
O18 O 0.46278 0.15044 0.11846 0.0
C19 C 0.40142 0.13236 0.90583 0.0
C20 C 0.4548 0.16166 0.07166 0.0
Zn21 Zn 0.32284 0.4444 0.14524 0.0
Zn22 Zn 0.30383 0.41035 0.91001 0.0
Zn23 Zn 0.31541 0.43389 0.02209 0.0
C24 C 0.35001 0.41504 0.96604 0.0
C25 C 0.34424 0.46383 0.87468 0.0
O26 O 0.28874 0.44992 0.03875 0.0
O27 O 0.2899 0.44458 0.16338 0.0
C28 C 0.30815 0.39162 0.14233 0.0
O29 O 0.35302 0.43836 0.9809 0.0
O30 O 0.3266 0.39569 0.95245 0.0
O31 O 0.32319 0.44521 0.84363 0.0
O32 O 0.34926 0.46053 0.94495 0.0
O33 O 0.32238 0.41197 0.18366 0.0
O34 O 0.30103 0.39474 0.07554 0.0
O35 O 0.35914 0.46431 0.02703 0.0
O36 O 0.35612 0.47888 0.14168 0.0
C37 C 0.36983 0.48115 0.08292 0.0
O38 O 0.28464 0.43643 0.95715 0.0
O39 O 0.26392 0.39418 0.91991 0.0
C40 C 0.27922 0.44876 0.10595 0.0
C41 C 0.26494 0.4167 0.92226 0.0
Zn42 Zn 0.86792 0.32862 0.86751 0.0
Zn43 Zn 0.85016 0.31824 0.25138 0.0
Zn44 Zn 0.86229 0.32282 0.99228 0.0
C45 C 0.85521 0.35561 0.10625 0.0
C46 C 0.89403 0.32599 0.12725 0.0
O47 O 0.83355 0.28325 0.94744 0.0
O48 O 0.85865 0.29084 0.84507 0.0
C49 C 0.84571 0.35798 0.88738 0.0
O50 O 0.85747 0.35639 0.03313 0.0
O51 O 0.85311 0.3347 0.13897 0.0
O52 O 0.87111 0.32197 0.14771 0.0
O53 O 0.89816 0.32723 0.05491 0.0
O54 O 0.84433 0.3425 0.83387 0.0
O55 O 0.85445 0.35583 0.9538 0.0
O56 O 0.90321 0.33094 0.97256 0.0
O57 O 0.90629 0.35593 0.87358 0.0
C58 C 0.91745 0.34788 0.92028 0.0
O59 O 0.82685 0.28343 0.02725 0.0
O60 O 0.84271 0.30574 0.13319 0.0
C61 C 0.83979 0.27446 0.88767 0.0
C62 C 0.82523 0.2841 0.1003 0.0
Zn63 Zn 0.5312 0.84427 0.18518 0.0
Zn64 Zn 0.55191 0.89429 0.83332 0.0
Zn65 Zn 0.53801 0.87684 0.01321 0.0
C66 C 0.57775 0.92738 0.95548 0.0
C67 C 0.49554 0.8762 0.9014 0.0
O68 O 0.54478 0.84351 0.01185 0.0
O69 O 0.56473 0.85756 0.11963 0.0
C70 C 0.57273 0.90488 0.16379 0.0
O71 O 0.56602 0.91999 0.02 0.0
O72 O 0.57868 0.90913 0.91873 0.0
O73 O 0.51317 0.8855 0.8487 0.0
O74 O 0.50066 0.87135 0.9695 0.0
O75 O 0.56368 0.88188 0.19527 0.0
O76 O 0.56479 0.90761 0.09693 0.0
O77 O 0.49838 0.86522 0.05319 0.0
O78 O 0.49728 0.84658 0.16676 0.0
C79 C 0.48672 0.85469 0.11729 0.0
O80 O 0.54862 0.85252 0.93337 0.0
O81 O 0.55463 0.86269 0.80811 0.0
C82 C 0.55593 0.83951 0.06946 0.0
C83 C 0.55394 0.84828 0.86421 0.0
Zn84 Zn 0.68062 0.54674 0.82158 0.0
Zn85 Zn 0.65441 0.55492 0.12742 0.0
Zn86 Zn 0.65835 0.54843 0.99981 0.0
C87 C 0.60868 0.51179 0.08888 0.0
C88 C 0.66658 0.60095 0.06986 0.0
O89 O 0.69926 0.55742 0.99455 0.0
O90 O 0.70148 0.57973 0.89247 0.0
C91 C 0.63715 0.49862 0.89419 0.0
O92 O 0.62558 0.51291 0.03983 0.0
O93 O 0.61352 0.53315 0.1238 0.0
O94 O 0.6786 0.59527 0.1201 0.0
O95 O 0.65348 0.5831 0.01925 0.0
O96 O 0.66116 0.50826 0.87049 0.0
O97 O 0.63062 0.51301 0.93544 0.0
O98 O 0.64717 0.55201 0.88907 0.0
O99 O 0.65278 0.55177 0.76515 0.0
C100 C 0.6403 0.55422 0.82148 0.0
O101 O 0.68832 0.54061 0.05612 0.0
O102 O 0.66998 0.5346 0.17077 0.0
C103 C 0.71342 0.57288 0.93978 0.0
C104 C 0.68595 0.53238 0.12624 0.0
Zn105 Zn 0.11938 0.6913 0.10755 0.0
Zn106 Zn 0.10382 0.66131 0.85992 0.0
Zn107 Zn 0.11102 0.66707 0.98856 0.0
C108 C 0.05722 0.62042 0.93538 0.0
C109 C 0.14462 0.65038 0.88775 0.0
O110 O 0.14818 0.67316 0.03298 0.0
O111 O 0.15551 0.71373 0.05496 0.0
C112 C 0.06682 0.66987 0.09032 0.0
O113 O 0.06966 0.63376 0.99576 0.0
O114 O 0.06851 0.62764 0.87053 0.0
O115 O 0.13459 0.65676 0.83291 0.0
O116 O 0.13767 0.65167 0.95687 0.0
O117 O 0.08514 0.69409 0.1006 0.0
O118 O 0.07306 0.65391 0.05526 0.0
O119 O 0.08615 0.63648 0.07065 0.0
O120 O 0.11502 0.65734 0.16385 0.0
C121 C 0.09753 0.63547 0.13346 0.0
O122 O 0.11971 0.70615 0.9478 0.0
O123 O 0.10641 0.69596 0.82862 0.0
C124 C 0.16455 0.69772 0.0502 0.0
C125 C 0.11708 0.71355 0.8807 0.0
Zn126 Zn 0.86512 0.56199 0.35327 0.0
Zn127 Zn 0.87283 0.57124 0.6079 0.0
Zn128 Zn 0.86511 0.54308 0.4943 0.0
C129 C 0.91533 0.56465 0.5936 0.0
C130 C 0.85563 0.5182 0.65588 0.0
O131 O 0.82951 0.5138 0.43152 0.0
O132 O 0.82525 0.54486 0.36908 0.0
C133 C 0.90851 0.59957 0.40856 0.0
O134 O 0.89626 0.54271 0.56528 0.0
O135 O 0.91223 0.58494 0.59793 0.0
O136 O 0.85168 0.53695 0.67821 0.0
O137 O 0.86708 0.52082 0.59077 0.0
O138 O 0.89205 0.60161 0.36523 0.0
O139 O 0.90006 0.57868 0.45093 0.0
O140 O 0.85625 0.51253 0.41413 0.0
O141 O 0.87891 0.53673 0.31438 0.0
C142 C 0.86917 0.51496 0.35231 0.0
O143 O 0.83294 0.54852 0.53387 0.0
O144 O 0.8541 0.59061 0.56854 0.0
C145 C 0.81502 0.52097 0.3941 0.0
C146 C 0.83214 0.5691 0.55721 0.0
Zn147 Zn 0.30867 0.88774 0.71937 0.0
Zn148 Zn 0.30918 0.87048 0.36391 0.0
Zn149 Zn 0.30816 0.87419 0.49131 0.0
C150 C 0.34872 0.86149 0.41654 0.0
C151 C 0.31698 0.91852 0.36234 0.0
O152 O 0.26935 0.84012 0.5306 0.0
O153 O 0.28987 0.86612 0.62467 0.0
C154 C 0.3507 0.8787 0.63329 0.0
O155 O 0.34525 0.87323 0.47447 0.0
O156 O 0.33143 0.85267 0.36365 0.0
O157 O 0.32469 0.90626 0.31872 0.0
O158 O 0.30935 0.90982 0.43142 0.0
O159 O 0.34105 0.88406 0.69256 0.0
O160 O 0.34053 0.87498 0.5647 0.0
O161 O 0.3128 0.91393 0.51089 0.0
O162 O 0.29623 0.89725 0.62105 0.0
C163 C 0.31183 0.91797 0.58251 0.0
O164 O 0.27464 0.83446 0.45009 0.0
O165 O 0.27035 0.84942 0.3394 0.0
C166 C 0.26933 0.84503 0.60168 0.0
C167 C 0.26353 0.8297 0.38345 0.0
Zn168 Zn 0.4336 0.31359 0.36813 0.0
Zn169 Zn 0.43927 0.33391 0.62297 0.0
Zn170 Zn 0.43701 0.32331 0.49965 0.0
C171 C 0.41002 0.35199 0.57066 0.0
C172 C 0.48925 0.35944 0.60001 0.0
O173 O 0.43755 0.28475 0.48566 0.0
O174 O 0.42386 0.27602 0.36569 0.0
C175 C 0.39122 0.31925 0.38165 0.0
O176 O 0.40442 0.33098 0.53067 0.0
O177 O 0.43292 0.36467 0.60071 0.0
O178 O 0.4758 0.34323 0.65268 0.0
O179 O 0.47754 0.35878 0.53594 0.0
O180 O 0.40535 0.31858 0.32766 0.0
O181 O 0.39955 0.32125 0.45146 0.0
O182 O 0.47441 0.35633 0.45451 0.0
O183 O 0.47065 0.33989 0.33765 0.0
C184 C 0.48397 0.35774 0.387 0.0
O185 O 0.42937 0.28771 0.56391 0.0
O186 O 0.41004 0.29788 0.65657 0.0
C187 C 0.43107 0.26942 0.42605 0.0
C188 C 0.41431 0.28083 0.62372 0.0
Zn189 Zn 0.10493 0.4405 0.64044 0.0
Zn190 Zn 0.1021 0.45264 0.27251 0.0
Zn191 Zn 0.1071 0.45272 0.50743 0.0
C192 C 0.10622 0.49132 0.40893 0.0
C193 C 0.0592 0.40959 0.36985 0.0
O194 O 0.14082 0.44499 0.53709 0.0
O195 O 0.12841 0.42545 0.65051 0.0
C196 C 0.11836 0.49514 0.63502 0.0
O197 O 0.10887 0.49213 0.48196 0.0
O198 O 0.10641 0.47162 0.37704 0.0
O199 O 0.06897 0.41826 0.30281 0.0
O200 O 0.07129 0.42128 0.43408 0.0
O201 O 0.11669 0.47723 0.68066 0.0
O202 O 0.11337 0.48974 0.56304 0.0
O203 O 0.06722 0.41745 0.51998 0.0
O204 O 0.06786 0.4132 0.64577 0.0
C205 C 0.05576 0.40537 0.5826 0.0
O206 O 0.14313 0.45405 0.4646 0.0
O207 O 0.1209 0.45727 0.37146 0.0
C208 C 0.14393 0.4323 0.59369 0.0
C209 C 0.14148 0.45689 0.39296 0.0
Zn210 Zn 0.6769 0.11646 0.38495 0.0
Zn211 Zn 0.66346 0.10137 0.6138 0.0
Zn212 Zn 0.64986 0.11279 0.49838 0.0
C213 C 0.61369 0.06094 0.5948 0.0
C214 C 0.63053 0.1228 0.64925 0.0
O215 O 0.66381 0.1524 0.44145 0.0
O216 O 0.70034 0.15546 0.39099 0.0
C217 C 0.66923 0.07243 0.43146 0.0
O218 O 0.61378 0.08118 0.56255 0.0
O219 O 0.63583 0.06254 0.60991 0.0
O220 O 0.65265 0.12663 0.67614 0.0
O221 O 0.62273 0.11073 0.58454 0.0
O222 O 0.69011 0.09122 0.40094 0.0
O223 O 0.65217 0.07748 0.46285 0.0
O224 O 0.6341 0.12483 0.40476 0.0
O225 O 0.64419 0.1045 0.31527 0.0
C226 C 0.63026 0.11453 0.33774 0.0
O227 O 0.68911 0.14199 0.54362 0.0
O228 O 0.70103 0.11312 0.57834 0.0
C229 C 0.68684 0.1664 0.40934 0.0
C230 C 0.70751 0.13707 0.56341 0.0
Zn231 Zn 0.55472 0.66467 0.6928 0.0
Zn232 Zn 0.52566 0.66125 0.36663 0.0
Zn233 Zn 0.53194 0.65881 0.49016 0.0
C234 C 0.4921 0.61008 0.41008 0.0
C235 C 0.57454 0.67248 0.36166 0.0
O236 O 0.54053 0.69664 0.54091 0.0
O237 O 0.5714 0.69505 0.60907 0.0
C238 C 0.49642 0.62126 0.63049 0.0
O239 O 0.49331 0.62281 0.47184 0.0
O240 O 0.50965 0.62181 0.35882 0.0
O241 O 0.56382 0.68445 0.32957 0.0
O242 O 0.56307 0.65766 0.42073 0.0
O243 O 0.51486 0.6335 0.68069 0.0
O244 O 0.49997 0.62787 0.5588 0.0
O245 O 0.56355 0.64897 0.49803 0.0
O246 O 0.57822 0.67542 0.59595 0.0
C247 C 0.57744 0.65605 0.55947 0.0
O248 O 0.53064 0.69572 0.46342 0.0
O249 O 0.50036 0.67523 0.37428 0.0
C250 C 0.55915 0.70739 0.59104 0.0
C251 C 0.5132 0.69544 0.41694 0.0
H252 H 0.4132 0.16299 0.13194 0.0
H253 H 0.49832 0.21186 0.08942 0.0
H254 H 0.50227 0.24204 0.19654 0.0
H255 H 0.39872 0.21497 0.2019 0.0
H256 H 0.3763 0.19232 0.27406 0.0
H257 H 0.38073 0.17914 0.18512 0.0
H258 H 0.39288 0.1486 0.26483 0.0
H259 H 0.39051 0.16331 0.35375 0.0
H260 H 0.42108 0.16379 0.32945 0.0
H261 H 0.49753 0.26284 0.31949 0.0
H262 H 0.48227 0.28126 0.4228 0.0
H263 H 0.40079 0.21653 0.38954 0.0
C264 C 0.43232 0.18107 0.14207 0.0
C265 C 0.45534 0.18571 0.10126 0.0
C266 C 0.48038 0.20858 0.11875 0.0
C267 C 0.48286 0.22536 0.18066 0.0
C268 C 0.46018 0.21849 0.225 0.0
C269 C 0.43525 0.19731 0.2052 0.0
C270 C 0.4144 0.19279 0.26514 0.0
C271 C 0.39119 0.19498 0.22942 0.0
C272 C 0.40411 0.16551 0.30564 0.0
C273 C 0.4311 0.21578 0.31951 0.0
C274 C 0.45766 0.22974 0.29693 0.0
C275 C 0.47678 0.2521 0.33749 0.0
C276 C 0.46803 0.26201 0.39774 0.0
C277 C 0.44035 0.25024 0.41407 0.0
C278 C 0.42209 0.22556 0.37911 0.0
H279 H 0.16791 0.42897 0.39492 0.0
H280 H 0.15792 0.48786 0.26588 0.0
H281 H 0.18911 0.48913 0.16627 0.0
H282 H 0.23679 0.45459 0.35654 0.0
H283 H 0.23327 0.42171 0.34784 0.0
H284 H 0.21047 0.42631 0.40743 0.0
H285 H 0.17071 0.38873 0.33041 0.0
H286 H 0.19357 0.38474 0.26892 0.0
H287 H 0.16923 0.39198 0.22774 0.0
H288 H 0.22406 0.48606 0.08597 0.0
H289 H 0.26081 0.47961 0.0356 0.0
H290 H 0.24254 0.41896 0.21033 0.0
C291 C 0.17243 0.44212 0.34567 0.0
C292 C 0.16085 0.45832 0.33719 0.0
C293 C 0.16678 0.47522 0.27228 0.0
C294 C 0.18429 0.476 0.21555 0.0
C295 C 0.19498 0.45922 0.22422 0.0
C296 C 0.18917 0.44252 0.28753 0.0
C297 C 0.20321 0.42651 0.28361 0.0
C298 C 0.22205 0.43267 0.35292 0.0
C299 C 0.18297 0.39619 0.27725 0.0
C300 C 0.21858 0.43753 0.20975 0.0
C301 C 0.21363 0.4563 0.17577 0.0
C302 C 0.22782 0.47104 0.11109 0.0
C303 C 0.24847 0.46723 0.08258 0.0
C304 C 0.25439 0.449 0.11966 0.0
C305 C 0.23837 0.43313 0.18116 0.0
H306 H 0.77042 0.25026 0.07492 0.0
H307 H 0.8346 0.27017 0.23808 0.0
H308 H 0.80211 0.25248 0.34368 0.0
H309 H 0.72602 0.26046 0.18809 0.0
H310 H 0.69559 0.23008 0.16236 0.0
H311 H 0.72327 0.24494 0.09591 0.0
H312 H 0.72497 0.20065 0.08855 0.0
H313 H 0.696 0.18535 0.14995 0.0
H314 H 0.72572 0.18447 0.17658 0.0
H315 H 0.76461 0.23926 0.43306 0.0
H316 H 0.72264 0.20696 0.49689 0.0
H317 H 0.68133 0.18855 0.27867 0.0
C318 C 0.77741 0.25 0.13249 0.0
C319 C 0.80505 0.26278 0.14938 0.0
C320 C 0.81349 0.26142 0.22483 0.0
C321 C 0.79529 0.25185 0.28538 0.0
C322 C 0.7685 0.24228 0.26873 0.0
C323 C 0.75922 0.23916 0.19398 0.0
C324 C 0.72882 0.22384 0.19261 0.0
C325 C 0.71779 0.24087 0.15764 0.0
C326 C 0.71826 0.19699 0.14941 0.0
C327 C 0.72281 0.21942 0.27817 0.0
C328 C 0.74614 0.23149 0.32077 0.0
C329 C 0.74615 0.22936 0.40048 0.0
C330 C 0.72202 0.21152 0.43671 0.0
C331 C 0.69907 0.19498 0.39213 0.0
C332 C 0.69863 0.20121 0.3138 0.0
H333 H 0.55797 0.73953 0.3715 0.0
H334 H 0.4721 0.70481 0.39159 0.0
H335 H 0.47343 0.73669 0.29355 0.0
H336 H 0.57745 0.81007 0.32586 0.0
H337 H 0.60182 0.81239 0.25688 0.0
H338 H 0.59384 0.79066 0.33905 0.0
H339 H 0.58305 0.75125 0.24603 0.0
H340 H 0.58928 0.77249 0.16341 0.0
H341 H 0.55741 0.74202 0.17416 0.0
H342 H 0.48332 0.76699 0.17902 0.0
H343 H 0.50283 0.80266 0.08031 0.0
H344 H 0.58202 0.81629 0.1333 0.0
C345 C 0.53975 0.73985 0.35876 0.0
C346 C 0.51504 0.72037 0.39012 0.0
C347 C 0.49127 0.72018 0.36923 0.0
C348 C 0.4918 0.73781 0.31265 0.0
C349 C 0.51622 0.75506 0.27734 0.0
C350 C 0.53987 0.75672 0.30097 0.0
C351 C 0.56301 0.77512 0.2495 0.0
C352 C 0.58533 0.79846 0.29558 0.0
C353 C 0.57382 0.75927 0.20573 0.0
C354 C 0.54895 0.78458 0.19539 0.0
C355 C 0.52181 0.77207 0.21069 0.0
C356 C 0.50458 0.77709 0.16694 0.0
C357 C 0.51574 0.79697 0.10993 0.0
C358 C 0.54388 0.81202 0.09953 0.0
C359 C 0.56045 0.80481 0.13996 0.0
H360 H 0.69875 0.53301 0.27487 0.0
H361 H 0.70868 0.50647 0.05069 0.0
H362 H 0.73367 0.48648 0.1108 0.0
H363 H 0.76195 0.55531 0.33767 0.0
H364 H 0.75236 0.54592 0.43645 0.0
H365 H 0.73167 0.55281 0.37504 0.0
H366 H 0.69148 0.5056 0.40833 0.0
H367 H 0.71267 0.4982 0.46727 0.0
H368 H 0.69369 0.47593 0.38968 0.0
H369 H 0.76286 0.47598 0.1922 0.0
H370 H 0.80074 0.48547 0.27741 0.0
H371 H 0.77029 0.51736 0.449 0.0
C372 C 0.70569 0.52249 0.23837 0.0
C373 C 0.70182 0.52117 0.15822 0.0
C374 C 0.71174 0.50789 0.11217 0.0
C375 C 0.72541 0.49603 0.14614 0.0
C376 C 0.72863 0.49749 0.22598 0.0
C377 C 0.71929 0.51077 0.27111 0.0
C378 C 0.72886 0.51375 0.35303 0.0
C379 C 0.74466 0.54369 0.37682 0.0
C380 C 0.70527 0.49737 0.40781 0.0
C381 C 0.74669 0.50161 0.34644 0.0
C382 C 0.74545 0.49128 0.27348 0.0
C383 C 0.76348 0.48327 0.24992 0.0
C384 C 0.78479 0.4884 0.299 0.0
C385 C 0.78787 0.50177 0.36952 0.0
C386 C 0.76752 0.50626 0.39622 0.0
H387 H 0.22012 0.77827 0.40501 0.0
H388 H 0.29189 0.82519 0.26966 0.0
H389 H 0.27968 0.78673 0.18563 0.0
H390 H 0.21533 0.7085 0.3665 0.0
H391 H 0.17937 0.69228 0.35964 0.0
H392 H 0.19735 0.72001 0.4252 0.0
H393 H 0.17593 0.74568 0.36205 0.0
H394 H 0.15756 0.71778 0.29874 0.0
H395 H 0.17873 0.75095 0.25947 0.0
H396 H 0.25428 0.7514 0.0946 0.0
H397 H 0.21718 0.72187 0.00786 0.0
H398 H 0.16312 0.69277 0.20132 0.0
C399 C 0.23367 0.77978 0.35978 0.0
C400 C 0.25703 0.80446 0.3443 0.0
C401 C 0.27404 0.80627 0.28313 0.0
C402 C 0.26737 0.78443 0.23514 0.0
C403 C 0.24364 0.76058 0.24905 0.0
C404 C 0.22715 0.75786 0.31061 0.0
C405 C 0.20067 0.73177 0.30434 0.0
C406 C 0.19804 0.71197 0.36771 0.0
C407 C 0.17686 0.73688 0.30614 0.0
C408 C 0.2039 0.72201 0.22618 0.0
C409 C 0.22917 0.73849 0.19613 0.0
C410 C 0.23484 0.73741 0.11842 0.0
C411 C 0.21377 0.72045 0.06932 0.0
C412 C 0.18771 0.7045 0.09888 0.0
C413 C 0.18326 0.70384 0.17866 0.0
H414 H 0.58306 0.76162 0.57807 0.0
H415 H 0.53605 0.69437 0.73015 0.0
H416 H 0.53884 0.72567 0.83165 0.0
H417 H 0.62578 0.81032 0.73586 0.0
H418 H 0.62603 0.83827 0.68806 0.0
H419 H 0.62492 0.81127 0.63242 0.0
H420 H 0.58186 0.80376 0.56348 0.0
H421 H 0.58323 0.83097 0.6177 0.0
H422 H 0.5534 0.79822 0.62026 0.0
H423 H 0.53919 0.76189 0.90457 0.0
H424 H 0.53462 0.80051 0.94175 0.0
H425 H 0.58419 0.84602 0.74861 0.0
C426 C 0.57355 0.75376 0.63312 0.0
C427 C 0.55901 0.72593 0.64708 0.0
C428 C 0.54696 0.71584 0.71917 0.0
C429 C 0.54884 0.73342 0.77722 0.0
C430 C 0.56325 0.76093 0.76218 0.0
C431 C 0.57548 0.77113 0.692 0.0
C432 C 0.58695 0.80123 0.68772 0.0
C433 C 0.61775 0.81614 0.68595 0.0
C434 C 0.57566 0.80897 0.61823 0.0
C435 C 0.57681 0.80576 0.76316 0.0
C436 C 0.56415 0.78247 0.80653 0.0
C437 C 0.54985 0.78058 0.87288 0.0
C438 C 0.54748 0.80274 0.89398 0.0
C439 C 0.55949 0.82642 0.84901 0.0
C440 C 0.57506 0.82819 0.78443 0.0
H441 H 0.75829 0.61025 0.86711 0.0
H442 H 0.71339 0.52574 0.92824 0.0
H443 H 0.73782 0.51572 0.83024 0.0
H444 H 0.75739 0.60226 0.67412 0.0
H445 H 0.79102 0.6288 0.65332 0.0
H446 H 0.77394 0.63097 0.73708 0.0
H447 H 0.81205 0.63582 0.82599 0.0
H448 H 0.82999 0.63513 0.74223 0.0
H449 H 0.82316 0.61165 0.81951 0.0
H450 H 0.75981 0.51362 0.70994 0.0
H451 H 0.78941 0.52087 0.6002 0.0
H452 H 0.8223 0.60727 0.61965 0.0
C453 C 0.75473 0.58991 0.86249 0.0
C454 C 0.7344 0.56882 0.90614 0.0
C455 C 0.72949 0.54226 0.89724 0.0
C456 C 0.74289 0.53632 0.84052 0.0
C457 C 0.76137 0.55726 0.79444 0.0
C458 C 0.76823 0.58371 0.80685 0.0
C459 C 0.78829 0.60228 0.74765 0.0
C460 C 0.77697 0.61693 0.70027 0.0
C461 C 0.81496 0.62239 0.78615 0.0
C462 C 0.79109 0.58198 0.69906 0.0
C463 C 0.77496 0.55612 0.72631 0.0
C464 C 0.77308 0.53382 0.68918 0.0
C465 C 0.78974 0.53818 0.62601 0.0
C466 C 0.80856 0.56472 0.60203 0.0
C467 C 0.80826 0.58678 0.63686 0.0
H468 H 0.21665 0.80677 0.5676 0.0
H469 H 0.27118 0.84705 0.75729 0.0
H470 H 0.23405 0.82481 0.84867 0.0
H471 H 0.15748 0.80666 0.65395 0.0
H472 H 0.13416 0.77342 0.61888 0.0
H473 H 0.16422 0.79494 0.56529 0.0
H474 H 0.17801 0.75832 0.56921 0.0
H475 H 0.14754 0.73659 0.62002 0.0
H476 H 0.17932 0.7442 0.66059 0.0
H477 H 0.19248 0.79613 0.92126 0.0
H478 H 0.15176 0.75644 0.96987 0.0
H479 H 0.12283 0.7344 0.73592 0.0
C480 C 0.22066 0.81094 0.62834 0.0
C481 C 0.24681 0.82907 0.65503 0.0
C482 C 0.2513 0.83375 0.73506 0.0
C483 C 0.23025 0.82132 0.78767 0.0
C484 C 0.2046 0.80421 0.75976 0.0
C485 C 0.1997 0.79862 0.68214 0.0
C486 C 0.1707 0.77721 0.66867 0.0
C487 C 0.15577 0.78876 0.62403 0.0
C488 C 0.1688 0.75263 0.62723 0.0
C489 C 0.16067 0.77065 0.75094 0.0
C490 C 0.18032 0.78712 0.80239 0.0
C491 C 0.17677 0.78326 0.88161 0.0
C492 C 0.15339 0.76071 0.90887 0.0
C493 C 0.13417 0.74204 0.85684 0.0
C494 C 0.13703 0.74832 0.77736 0.0
H495 H 0.43924 0.27387 0.74371 0.0
H496 H 0.37024 0.23188 0.5948 0.0
H497 H 0.35411 0.19054 0.67388 0.0
H498 H 0.45288 0.22217 0.76653 0.0
H499 H 0.46294 0.22945 0.86582 0.0
H500 H 0.46624 0.25585 0.80345 0.0
H501 H 0.43779 0.26579 0.89883 0.0
H502 H 0.43373 0.23874 0.96045 0.0
H503 H 0.4047 0.23929 0.92475 0.0
H504 H 0.34743 0.15388 0.76348 0.0
H505 H 0.35492 0.12176 0.83682 0.0
H506 H 0.42969 0.18733 0.92493 0.0
C507 C 0.42075 0.25585 0.72809 0.0
C508 C 0.40598 0.25553 0.66344 0.0
C509 C 0.38182 0.23204 0.64399 0.0
C510 C 0.37239 0.20878 0.68923 0.0
C511 C 0.38733 0.20975 0.75363 0.0
C512 C 0.4112 0.23258 0.77232 0.0
C513 C 0.42494 0.22766 0.83919 0.0
C514 C 0.45341 0.23414 0.81737 0.0
C515 C 0.42531 0.24383 0.91001 0.0
C516 C 0.40623 0.19784 0.85133 0.0
C517 C 0.38397 0.18828 0.80398 0.0
C518 C 0.36468 0.16114 0.8009 0.0
C519 C 0.36919 0.14306 0.84282 0.0
C520 C 0.39322 0.15211 0.88538 0.0
C521 C 0.41115 0.17994 0.8933 0.0
H522 H 0.14463 0.38893 0.64976 0.0
H523 H 0.19547 0.46891 0.55789 0.0
H524 H 0.23446 0.47111 0.62315 0.0
H525 H 0.16534 0.39963 0.82115 0.0
H526 H 0.16619 0.3695 0.84449 0.0
H527 H 0.14426 0.36869 0.77017 0.0
H528 H 0.16528 0.35164 0.67026 0.0
H529 H 0.18635 0.35066 0.74515 0.0
H530 H 0.20113 0.36915 0.65796 0.0
H531 H 0.26208 0.47123 0.73112 0.0
H532 H 0.28228 0.46374 0.8461 0.0
H533 H 0.21473 0.3824 0.86535 0.0
C534 C 0.16436 0.40612 0.63954 0.0
C535 C 0.1673 0.42885 0.59978 0.0
C536 C 0.19304 0.45129 0.58783 0.0
C537 C 0.21522 0.45274 0.62519 0.0
C538 C 0.21114 0.43119 0.67161 0.0
C539 C 0.18664 0.40762 0.67572 0.0
C540 C 0.18671 0.38885 0.73698 0.0
C541 C 0.16431 0.38127 0.79668 0.0
C542 C 0.18477 0.36359 0.70037 0.0
C543 C 0.21407 0.40667 0.77167 0.0
C544 C 0.22787 0.43089 0.73278 0.0
C545 C 0.252 0.45195 0.76006 0.0
C546 C 0.263 0.44769 0.82645 0.0
C547 C 0.25001 0.42245 0.86429 0.0
C548 C 0.22511 0.4018 0.83696 0.0
H549 H 0.78629 0.24926 0.87239 0.0
H550 H 0.8555 0.24089 0.82818 0.0
H551 H 0.82879 0.20343 0.73823 0.0
H552 H 0.73263 0.17641 0.84321 0.0
H553 H 0.71144 0.18676 0.7963 0.0
H554 H 0.73405 0.2073 0.87116 0.0
H555 H 0.754 0.24773 0.77675 0.0
H556 H 0.73259 0.22701 0.70035 0.0
H557 H 0.76841 0.24528 0.68736 0.0
H558 H 0.79546 0.17028 0.64232 0.0
H559 H 0.75706 0.14181 0.55668 0.0
H560 H 0.71306 0.17778 0.65204 0.0
C561 C 0.79528 0.23847 0.847 0.0
C562 C 0.82255 0.24728 0.85802 0.0
C563 C 0.83432 0.2338 0.8212 0.0
C564 C 0.8194 0.21273 0.76967 0.0
C565 C 0.79297 0.20585 0.75526 0.0
C566 C 0.78092 0.21807 0.79374 0.0
C567 C 0.75356 0.20962 0.76122 0.0
C568 C 0.73163 0.1941 0.82156 0.0
C569 C 0.75209 0.23386 0.72955 0.0
C570 C 0.75237 0.19136 0.6973 0.0
C571 C 0.77499 0.18895 0.69546 0.0
C572 C 0.77769 0.17209 0.6431 0.0
C573 C 0.75604 0.15633 0.59408 0.0
C574 C 0.73256 0.15827 0.59674 0.0
C575 C 0.73117 0.17664 0.64712 0.0
H576 H 0.33261 0.96951 0.41564 0.0
H577 H 0.29223 0.91396 0.22873 0.0
H578 H 0.29244 0.95003 0.15287 0.0
H579 H 0.30314 0.0175 0.36589 0.0
H580 H 0.33474 0.0464 0.39203 0.0
H581 H 0.32246 0.01516 0.44381 0.0
H582 H 0.36667 0.01544 0.41469 0.0
H583 H 0.37896 0.04661 0.36452 0.0
H584 H 0.3776 0.01818 0.31627 0.0
H585 H 0.31046 0.99173 0.08293 0.0
H586 H 0.34422 0.03527 0.02822 0.0
H587 H 0.37057 0.06632 0.25812 0.0
C588 C 0.32267 0.96494 0.36036 0.0
C589 C 0.31248 0.93923 0.32762 0.0
C590 C 0.30025 0.93373 0.25437 0.0
C591 C 0.29998 0.95402 0.21118 0.0
C592 C 0.31181 0.97979 0.24219 0.0
C593 C 0.32244 0.9853 0.31598 0.0
C594 C 0.33844 0.0154 0.32965 0.0
C595 C 0.32381 0.02412 0.3862 0.0
C596 C 0.36709 0.02439 0.35779 0.0
C597 C 0.33827 0.02562 0.24936 0.0
C598 C 0.32178 0.00484 0.20055 0.0
C599 C 0.32263 0.00839 0.12089 0.0
C600 C 0.34197 0.03318 0.09005 0.0
C601 C 0.36003 0.05405 0.13897 0.0
C602 C 0.35672 0.05078 0.21945 0.0
H603 H 0.36821 0.30828 0.24134 0.0
H604 H 0.35612 0.32614 0.47477 0.0
H605 H 0.31719 0.32949 0.43122 0.0
H606 H 0.3653 0.35547 0.1556 0.0
H607 H 0.34749 0.33723 0.07038 0.0
H608 H 0.36603 0.32587 0.12466 0.0
H609 H 0.3225 0.27919 0.13493 0.0
H610 H 0.30422 0.2919 0.08246 0.0
H611 H 0.29269 0.27677 0.17565 0.0
H612 H 0.28931 0.34293 0.36148 0.0
H613 H 0.28351 0.37387 0.27749 0.0
H614 H 0.31643 0.35207 0.08629 0.0
C615 C 0.35689 0.31214 0.28388 0.0
C616 C 0.36544 0.31737 0.3613 0.0
C617 C 0.35006 0.32218 0.41517 0.0
C618 C 0.32765 0.32371 0.39087 0.0
C619 C 0.32073 0.32006 0.31285 0.0
C620 C 0.33496 0.31421 0.26012 0.0
C621 C 0.32802 0.31741 0.17826 0.0
C622 C 0.35324 0.33513 0.12969 0.0
C623 C 0.31082 0.28967 0.14064 0.0
C624 C 0.31147 0.33068 0.19307 0.0
C625 C 0.30537 0.32954 0.27077 0.0
C626 C 0.29346 0.34344 0.30069 0.0
C627 C 0.29024 0.36102 0.25249 0.0
C628 C 0.29961 0.36513 0.17595 0.0
C629 C 0.30848 0.34847 0.14414 0.0
H630 H 0.03692 0.36552 0.2773 0.0
H631 H 0.01876 0.40628 0.45517 0.0
H632 H 0.97084 0.37624 0.434 0.0
H633 H 0.00036 0.36867 0.1504 0.0
H634 H -0.01364 0.33644 0.10318 0.0
H635 H 0.0173 0.34951 0.15468 0.0
H636 H -0.00206 0.30691 0.23919 0.0
H637 H 0.96691 0.29302 0.18629 0.0
H638 H 0.96681 0.29558 0.28945 0.0
H639 H 0.92904 0.35539 0.36973 0.0
H640 H 0.89575 0.34474 0.26965 0.0
H641 H 0.93855 0.31948 0.11782 0.0
C642 C 0.02258 0.36677 0.31461 0.0
C643 C 0.0314 0.38707 0.37139 0.0
C644 C 0.01244 0.3895 0.4162 0.0
C645 C -0.01494 0.37266 0.40342 0.0
C646 C 0.97691 0.35398 0.34374 0.0
C647 C -0.00493 0.35058 0.3003 0.0
C648 C 0.98176 0.33402 0.22858 0.0
C649 C -0.00263 0.34804 0.15493 0.0
C650 C 0.97813 0.30571 0.23636 0.0
C651 C 0.95488 0.33272 0.23223 0.0
C652 C 0.95201 0.3427 0.3018 0.0
C653 C 0.93055 0.34657 0.31642 0.0
C654 C 0.91168 0.34048 0.25871 0.0
C655 C 0.91427 0.33079 0.18638 0.0
C656 C 0.936 0.32655 0.17307 0.0
H657 H 0.61738 0.95535 0.12965 0.0
H658 H 0.56407 0.9061 0.31293 0.0
H659 H 0.59006 0.9412 0.40624 0.0
H660 H 0.67973 0.98777 0.25571 0.0
H661 H 0.69295 0.02016 0.21015 0.0
H662 H 0.67293 0.9898 0.15558 0.0
H663 H 0.64026 0.00644 0.11747 0.0
H664 H 0.66058 0.03697 0.17027 0.0
H665 H 0.62538 0.01655 0.19179 0.0
H666 H 0.6159 0.9815 0.47671 0.0
H667 H 0.63991 0.0285 0.52111 0.0
H668 H 0.67904 0.05366 0.2994 0.0
C669 C 0.61153 0.9521 0.18956 0.0
C670 C 0.58899 0.92787 0.21435 0.0
C671 C 0.58162 0.92429 0.29293 0.0
C672 C 0.59634 0.94404 0.34676 0.0
C673 C 0.61866 0.96741 0.32171 0.0
C674 C 0.62639 0.97184 0.24529 0.0
C675 C 0.64999 0.00014 0.23469 0.0
C676 C 0.6754 -0.00059 0.21271 0.0
C677 C 0.64365 0.01595 0.17507 0.0
C678 C 0.65238 0.0112 0.31552 0.0
C679 C 0.63464 0.99154 0.36494 0.0
C680 C 0.63055 -0.00289 0.4399 0.0
C681 C 0.64412 0.02382 0.46452 0.0
C682 C 0.66142 0.04449 0.41406 0.0
C683 C 0.66653 0.03801 0.33985 0.0
H684 H 0.63055 0.58702 0.17896 0.0
H685 H 0.68072 0.65323 0.02747 0.0
H686 H 0.66621 0.68205 0.0956 0.0
H687 H 0.5762 0.59876 0.199 0.0
H688 H 0.57128 0.58889 0.29868 0.0
H689 H 0.5853 0.57489 0.23394 0.0
H690 H 0.6262 0.5913 0.32503 0.0
H691 H 0.61272 0.60624 0.38867 0.0
H692 H 0.64584 0.62652 0.34906 0.0
H693 H 0.64268 0.70167 0.17882 0.0
H694 H 0.61283 0.70958 0.26397 0.0
H695 H 0.58412 0.63128 0.36823 0.0
C696 C 0.63813 0.6075 0.15925 0.0
C697 C 0.65612 0.61791 0.09737 0.0
C698 C 0.66634 0.64488 0.07391 0.0
C699 C 0.65847 0.66135 0.11286 0.0
C700 C 0.64104 0.65045 0.17557 0.0
C701 C 0.63118 0.62408 0.1983 0.0
C702 C 0.61319 0.61672 0.26743 0.0
C703 C 0.58482 0.59346 0.24859 0.0
C704 C 0.62522 0.6098 0.33664 0.0
C705 C 0.61356 0.64284 0.27947 0.0
C706 C 0.62964 0.66218 0.22619 0.0
C707 C 0.63045 0.68683 0.22146 0.0
C708 C 0.61351 0.69117 0.26998 0.0
C709 C 0.59646 0.67111 0.32295 0.0
C710 C 0.59744 0.64725 0.32967 0.0
H711 H 0.93583 0.64582 0.31929 0.0
H712 H 0.94693 0.58888 0.45627 0.0
H713 H -0.01028 0.60345 0.39284 0.0
H714 H 0.95893 0.63969 0.15231 0.0
H715 H 0.9789 0.67442 0.1233 0.0
H716 H 0.95157 0.66457 0.18935 0.0
H717 H 0.98311 0.69897 0.28975 0.0
H718 H 0.01055 0.70985 0.22309 0.0
H719 H 0.01312 0.69899 0.31829 0.0
H720 H 0.02025 0.61107 0.2879 0.0
H721 H 0.05102 0.62606 0.17998 0.0
H722 H 0.02979 0.68652 0.1228 0.0
C723 C 0.94793 0.63742 0.33854 0.0
C724 C 0.9376 0.61574 0.39179 0.0
C725 C 0.95405 0.60528 0.41548 0.0
C726 C 0.97847 0.61334 0.37937 0.0
C727 C -0.0131 0.63287 0.32239 0.0
C728 C 0.9732 0.64615 0.30516 0.0
C729 C -0.01285 0.66621 0.23998 0.0
C730 C 0.96798 0.66088 0.17224 0.0
C731 C -0.00079 0.69523 0.26954 0.0
C732 C 0.00906 0.65996 0.21885 0.0
C733 C 0.008 0.64034 0.26707 0.0
C734 C 0.02257 0.62763 0.25264 0.0
C735 C 0.03995 0.63621 0.19012 0.0
C736 C 0.04378 0.65818 0.14412 0.0
C737 C 0.02783 0.67012 0.1582 0.0
H738 H 0.59299 0.00808 0.57619 0.0
H739 H 0.58685 0.06719 0.71367 0.0
H740 H 0.56969 0.03548 0.82236 0.0
H741 H 0.53734 0.94371 0.67764 0.0
H742 H 0.5581 0.9287 0.66908 0.0
H743 H 0.55873 0.95096 0.595 0.0
H744 H 0.61032 0.9801 0.61134 0.0
H745 H 0.60976 0.95854 0.68632 0.0
H746 H 0.62404 -0.00594 0.70417 0.0
H747 H 0.56447 0.00139 0.926 0.0
H748 H 0.56793 0.96749 0.0067 0.0
H749 H 0.58598 0.93651 0.80212 0.0
C750 C 0.58598 0.01342 0.62723 0.0
C751 C 0.59049 0.0397 0.63591 0.0
C752 C 0.58244 0.04676 0.70465 0.0
C753 C 0.57313 0.02893 0.76742 0.0
C754 C 0.57186 0.00412 0.75997 0.0
C755 C 0.57754 -0.00382 0.69061 0.0
C756 C 0.58004 0.9714 0.70021 0.0
C757 C 0.55719 0.94726 0.65798 0.0
C758 C 0.60767 0.97636 0.67405 0.0
C759 C 0.57679 0.96776 0.78605 0.0
C760 C 0.57107 0.98599 0.81981 0.0
C761 C 0.56831 0.98662 0.89958 0.0
C762 C 0.57061 0.96753 0.94512 0.0
C763 C 0.57655 0.9488 0.91078 0.0
C764 C 0.58041 0.94973 0.83048 0.0
H765 H 0.65534 0.6059 0.81292 0.0
H766 H 0.58603 0.52602 0.7994 0.0
H767 H 0.55906 0.54498 0.74771 0.0
H768 H 0.6183 0.64511 0.84645 0.0
H769 H 0.64215 0.6717 0.78526 0.0
H770 H 0.65263 0.65274 0.84374 0.0
H771 H 0.67093 0.64193 0.72146 0.0
H772 H 0.65948 0.65962 0.66196 0.0
H773 H 0.64853 0.62479 0.64245 0.0
H774 H 0.54388 0.57095 0.66777 0.0
H775 H 0.54012 0.6027 0.579 0.0
H776 H 0.61989 0.66534 0.64366 0.0
C777 C 0.63413 0.59272 0.80235 0.0
C778 C 0.62246 0.56478 0.80951 0.0
C779 C 0.59502 0.54757 0.79384 0.0
C780 C 0.57963 0.55822 0.76501 0.0
C781 C 0.59223 0.58596 0.75301 0.0
C782 C 0.61878 0.60306 0.77294 0.0
C783 C 0.62914 0.63116 0.74245 0.0
C784 C 0.63593 0.65136 0.80843 0.0
C785 C 0.65342 0.63984 0.68892 0.0
C786 C 0.60486 0.62687 0.69833 0.0
C787 C 0.58359 0.60086 0.70585 0.0
C788 C 0.56016 0.59153 0.66284 0.0
C789 C 0.55839 0.60942 0.61164 0.0
C790 C 0.57997 0.6361 0.60447 0.0
C791 C 0.60324 0.64492 0.64865 0.0
H792 H 0.95999 0.6087 0.64059 0.0
H793 H 0.91699 0.52165 0.65939 0.0
H794 H 0.94524 0.52507 0.77138 0.0
H795 H 0.02535 0.62184 0.71089 0.0
H796 H 0.03047 0.65199 0.75795 0.0
H797 H 0.01054 0.64044 0.67206 0.0
H798 H 0.97224 0.64144 0.74749 0.0
H799 H -0.00871 0.65076 0.83524 0.0
H800 H 0.95863 0.62085 0.83212 0.0
H801 H 0.98271 0.54048 0.87612 0.0
H802 H 0.02371 0.56567 0.95573 0.0
H803 H 0.02748 0.64032 0.89455 0.0
C804 C 0.95686 0.59025 0.66701 0.0
C805 C 0.93641 0.56499 0.64161 0.0
C806 C 0.93292 0.54128 0.67745 0.0
C807 C 0.94856 0.54306 0.7418 0.0
C808 C 0.96696 0.56864 0.76962 0.0
C809 C 0.97105 0.5917 0.73273 0.0
C810 C -0.00967 0.61684 0.77516 0.0
C811 C 0.01566 0.63375 0.72616 0.0
C812 C 0.97731 0.63342 0.79894 0.0
C813 C -0.00382 0.60454 0.84358 0.0
C814 C 0.98364 0.57676 0.83804 0.0
C815 C -0.00822 0.56203 0.8832 0.0
C816 C 0.01472 0.57635 0.92957 0.0
C817 C 0.02803 0.60475 0.93258 0.0
C818 C 0.01673 0.61847 0.8959 0.0
H819 H 0.31622 0.93048 0.73435 0.0
H820 H 0.36041 0.95691 0.52047 0.0
H821 H 0.4003 0.99102 0.59231 0.0
H822 H 0.34061 0.9902 0.82753 0.0
H823 H 0.34206 0.97711 0.92051 0.0
H824 H 0.31881 0.95509 0.84983 0.0
H825 H 0.33916 0.92396 0.86334 0.0
H826 H 0.36329 0.94664 0.93231 0.0
H827 H 0.37444 0.93745 0.84684 0.0
H828 H 0.43377 0.02507 0.68928 0.0
H829 H 0.45293 0.0586 0.79359 0.0
H830 H 0.38869 0.00528 0.94408 0.0
C831 C 0.33447 0.94285 0.70247 0.0
C832 C 0.3353 0.94042 0.62199 0.0
C833 C 0.35927 0.95813 0.58232 0.0
C834 C 0.38216 0.97729 0.62285 0.0
C835 C 0.38095 0.978 0.70305 0.0
C836 C 0.35758 0.9611 0.74204 0.0
C837 C 0.36059 0.96625 0.82753 0.0
C838 C 0.33929 0.97257 0.85805 0.0
C839 C 0.3593 0.94215 0.87003 0.0
C840 C 0.38859 0.99049 0.83061 0.0
C841 C 0.40046 -0.00348 0.75864 0.0
C842 C 0.42488 0.02012 0.74597 0.0
C843 C 0.43602 0.03898 0.80611 0.0
C844 C 0.4224 0.03442 0.8769 0.0
C845 C 0.39988 0.00886 0.89121 0.0
H846 H 0.38147 0.44141 0.84446 0.0
H847 H 0.36372 0.37891 0.01136 0.0
H848 H 0.37003 0.35192 0.91213 0.0
H849 H 0.3469 0.40088 0.69769 0.0
H850 H 0.36962 0.41927 0.62052 0.0
H851 H 0.36917 0.43668 0.70605 0.0
H852 H 0.41966 0.45516 0.73089 0.0
H853 H 0.42086 0.43979 0.64204 0.0
H854 H 0.43256 0.43236 0.72968 0.0
H855 H 0.3645 0.32712 0.78967 0.0
H856 H 0.3739 0.31425 0.66383 0.0
H857 H 0.40158 0.39486 0.57848 0.0
C858 C 0.38096 0.42302 0.8614 0.0
C859 C 0.37152 0.41168 0.93468 0.0
C860 C 0.37076 0.38753 0.95501 0.0
C861 C 0.37354 0.37182 0.89853 0.0
C862 C 0.37845 0.38153 0.82353 0.0
C863 C 0.38409 0.4073 0.80565 0.0
C864 C 0.38883 0.41268 0.72017 0.0
C865 C 0.36736 0.41768 0.68402 0.0
C866 C 0.41718 0.43638 0.7048 0.0
C867 C 0.38548 0.38603 0.69342 0.0
C868 C 0.37787 0.36794 0.75352 0.0
C869 C 0.37148 0.34138 0.74264 0.0
C870 C 0.37626 0.33407 0.67037 0.0
C871 C 0.38911 0.35381 0.61267 0.0
C872 C 0.39177 0.37946 0.62197 0.0
H873 H 0.95828 0.395 0.87462 0.0
H874 H 0.9341 0.31123 0.90819 0.0
H875 H 0.96414 0.3142 0.80243 0.0
H876 H 0.95072 0.39083 0.68655 0.0
H877 H 0.97847 0.42338 0.66093 0.0
H878 H 0.96303 0.4184 0.75377 0.0
H879 H 0.00784 0.43347 0.82559 0.0
H880 H 0.02389 0.44141 0.73309 0.0
H881 H 0.02827 0.41938 0.79752 0.0
H882 H -0.00532 0.32667 0.68392 0.0
H883 H 0.02918 0.35028 0.58378 0.0
H884 H 0.02042 0.42022 0.60824 0.0
C885 C 0.96066 0.3778 0.8628 0.0
C886 C 0.94403 0.35295 0.89877 0.0
C887 C 0.94708 0.33058 0.88163 0.0
C888 C 0.96356 0.33193 0.82036 0.0
C889 C 0.97657 0.35577 0.77804 0.0
C890 C 0.97579 0.3785 0.79997 0.0
C891 C -0.01117 0.40074 0.74146 0.0
C892 C 0.96906 0.40877 0.70878 0.0
C893 C 0.01368 0.42518 0.77646 0.0
C894 C -0.00348 0.38686 0.68177 0.0
C895 C -0.01001 0.36118 0.70447 0.0
C896 C -0.00053 0.34653 0.6649 0.0
C897 C 0.01849 0.35975 0.60662 0.0
C898 C 0.0271 0.3869 0.58872 0.0
C899 C 0.01343 0.39916 0.61968 0.0
H900 H 0.48532 0.06437 0.16441 0.0
H901 H 0.521 0.1363 0.02464 0.0
H902 H 0.56594 0.14772 0.07009 0.0
H903 H 0.5245 0.09356 0.32344 0.0
H904 H 0.52772 0.06517 0.35206 0.0
H905 H 0.4989 0.05988 0.29804 0.0
H906 H 0.50868 0.034 0.19328 0.0
H907 H 0.53722 0.03859 0.24782 0.0
H908 H 0.54132 0.0495 0.14913 0.0
H909 H 0.60626 0.15424 0.14405 0.0
H910 H 0.63939 0.15309 0.2324 0.0
H911 H 0.57728 0.07779 0.32792 0.0
C912 C 0.50274 0.08188 0.14098 0.0
C913 C 0.49988 0.09892 0.08814 0.0
C914 C 0.52296 0.12224 0.06113 0.0
C915 C 0.54851 0.12913 0.08812 0.0
C916 C 0.55059 0.1124 0.14222 0.0
C917 C 0.52836 0.08901 0.1675 0.0
C918 C 0.53574 0.07553 0.22999 0.0
C919 C 0.52084 0.07343 0.30532 0.0
C920 C 0.53043 0.04776 0.20344 0.0
C921 C 0.56546 0.09532 0.23721 0.0
C922 C 0.57368 0.11642 0.1859 0.0
C923 C 0.60013 0.13762 0.18359 0.0
C924 C 0.61875 0.13692 0.23397 0.0
C925 C 0.61068 0.11534 0.28597 0.0
C926 C 0.58378 0.09439 0.28796 0.0
H927 H 0.39772 0.53534 0.0686 0.0
H928 H 0.40449 0.46609 0.12931 0.0
H929 H 0.43499 0.49157 0.23546 0.0
H930 H 0.47157 0.58761 0.13625 0.0
H931 H 0.4601 0.61035 0.16359 0.0
H932 H 0.44588 0.58892 0.08082 0.0
H933 H 0.39908 0.57175 0.14113 0.0
H934 H 0.41312 0.59117 0.22699 0.0
H935 H 0.39147 0.55518 0.2334 0.0
H936 H 0.45571 0.52104 0.35259 0.0
H937 H 0.47891 0.55854 0.44572 0.0
H938 H 0.45593 0.60692 0.31068 0.0
C939 C 0.40745 0.52638 0.10021 0.0
C940 C 0.39863 0.49879 0.09189 0.0
C941 C 0.41131 0.48737 0.13464 0.0
C942 C 0.42811 0.50149 0.19646 0.0
C943 C 0.43318 0.52747 0.21088 0.0
C944 C 0.42464 0.54046 0.16113 0.0
C945 C 0.43195 0.56802 0.19117 0.0
C946 C 0.45366 0.59002 0.13995 0.0
C947 C 0.40741 0.57169 0.19861 0.0
C948 C 0.44321 0.56721 0.26891 0.0
C949 C 0.44433 0.54397 0.27882 0.0
C950 C 0.45521 0.53948 0.34507 0.0
C951 C 0.46766 0.56049 0.39882 0.0
C952 C 0.46848 0.58516 0.38602 0.0
C953 C 0.45459 0.58779 0.32307 0.0
H954 H 0.87889 0.50257 0.20571 0.0
H955 H 0.86481 0.47503 0.44282 0.0
H956 H 0.86293 0.43321 0.40429 0.0
H957 H 0.83506 0.44126 0.11947 0.0
H958 H 0.85645 0.44524 0.03903 0.0
H959 H 0.85963 0.47444 0.0865 0.0
H960 H 0.91022 0.49105 0.10694 0.0
H961 H 0.90616 0.46118 0.0605 0.0
H962 H 0.91989 0.46964 0.15617 0.0
H963 H 0.85452 0.39241 0.34209 0.0
H964 H 0.84642 0.35499 0.25906 0.0
H965 H 0.86912 0.40734 0.0593 0.0
C966 C 0.87602 0.48792 0.24937 0.0
C967 C 0.87154 0.49181 0.32698 0.0
C968 C 0.86777 0.47225 0.38276 0.0
C969 C 0.86684 0.44847 0.36165 0.0
C970 C 0.87005 0.4446 0.28459 0.0
C971 C 0.87515 0.46382 0.22919 0.0
C972 C 0.87649 0.45343 0.14998 0.0
C973 C 0.85561 0.45359 0.09564 0.0
C974 C 0.90488 0.4698 0.11643 0.0
C975 C 0.86968 0.42488 0.16966 0.0
C976 C 0.86633 0.4206 0.24794 0.0
C977 C 0.8579 0.39562 0.28088 0.0
C978 C 0.85331 0.37439 0.23287 0.0
C979 C 0.85758 0.37818 0.15269 0.0
C980 C 0.86573 0.40381 0.12042 0.0
H981 H 0.36598 0.82502 0.39965 0.0
H982 H 0.38954 0.90896 0.37204 0.0
H983 H 0.42514 0.9151 0.28171 0.0
H984 H 0.43765 0.83836 0.3904 0.0
H985 H 0.42686 0.80665 0.34304 0.0
H986 H 0.40501 0.8099 0.41054 0.0
H987 H 0.36825 0.79277 0.30558 0.0
H988 H 0.39039 0.79065 0.23681 0.0
H989 H 0.37513 0.81064 0.21561 0.0
H990 H 0.45234 0.90982 0.17687 0.0
H991 H 0.48055 0.89818 0.09743 0.0
H992 H 0.44365 0.81935 0.20417 0.0
C993 C 0.37963 0.84498 0.37781 0.0
C994 C 0.37545 0.8667 0.39398 0.0
C995 C 0.39302 0.89233 0.3622 0.0
C996 C 0.41292 0.89586 0.3096 0.0
C997 C 0.41556 0.87372 0.29128 0.0
C998 C 0.4004 0.84913 0.32742 0.0
C999 C 0.40804 0.82891 0.29899 0.0
C1000 C 0.42011 0.82047 0.36464 0.0
C1001 C 0.38401 0.8043 0.26206 0.0
C1002 C 0.42908 0.84569 0.23938 0.0
C1003 C 0.43265 0.87128 0.23459 0.0
C1004 C 0.45015 0.89003 0.1813 0.0
C1005 C 0.46576 0.88308 0.1354 0.0
C1006 C 0.4642 0.85785 0.14446 0.0
C1007 C 0.44506 0.8387 0.19562 0.0
H1008 H 0.56538 0.49889 0.18303 0.0
H1009 H 0.60988 0.46551 0.07323 0.0
H1010 H 0.58685 0.4253 0.15415 0.0
H1011 H 0.56294 0.47522 0.37105 0.0
H1012 H 0.52855 0.46554 0.39009 0.0
H1013 H 0.54797 0.49223 0.32293 0.0
H1014 H 0.51277 0.46749 0.21604 0.0
H1015 H 0.49276 0.4413 0.28376 0.0
H1016 H 0.50245 0.43296 0.19412 0.0
H1017 H 0.5618 0.39022 0.24956 0.0
H1018 H 0.52648 0.3558 0.33229 0.0
H1019 H 0.49647 0.40991 0.37932 0.0
C1020 C 0.5698 0.48283 0.17504 0.0
C1021 C 0.58963 0.48549 0.12247 0.0
C1022 C 0.59477 0.46399 0.11303 0.0
C1023 C 0.58207 0.44117 0.15951 0.0
C1024 C 0.56381 0.43983 0.21374 0.0
C1025 C 0.55676 0.45945 0.21975 0.0
C1026 C 0.53486 0.45175 0.27908 0.0
C1027 C 0.54416 0.47242 0.34468 0.0
C1028 C 0.50919 0.44815 0.24097 0.0
C1029 C 0.53128 0.42505 0.30636 0.0
C1030 C 0.54855 0.41889 0.26845 0.0
C1031 C 0.54817 0.39473 0.27991 0.0
C1032 C 0.52832 0.37547 0.32746 0.0
C1033 C 0.50938 0.38065 0.36274 0.0
C1034 C 0.51146 0.40605 0.35483 0.0
H1035 H 0.10054 0.53564 0.45162 0.0
H1036 H 0.10613 0.49247 0.25409 0.0
H1037 H 0.09781 0.5205 0.16805 0.0
H1038 H 0.04969 0.55017 0.36665 0.0
H1039 H 0.06517 0.58393 0.40413 0.0
H1040 H 0.06804 0.55827 0.45581 0.0
H1041 H 0.11988 0.5879 0.45359 0.0
H1042 H 0.117 0.61368 0.40314 0.0
H1043 H 0.13676 0.60042 0.36289 0.0
H1044 H 0.08869 0.55175 0.10017 0.0
H1045 H 0.08907 0.5922 0.05198 0.0
H1046 H 0.09484 0.62079 0.28588 0.0
C1047 C 0.09978 0.53206 0.39036 0.0
C1048 C 0.10305 0.51091 0.36051 0.0
C1049 C 0.10265 0.50749 0.27966 0.0
C1050 C 0.09791 0.52346 0.22949 0.0
C1051 C 0.09404 0.54344 0.2601 0.0
C1052 C 0.09556 0.54847 0.33823 0.0
C1053 C 0.09337 0.57341 0.35332 0.0
C1054 C 0.06754 0.566 0.39765 0.0
C1055 C 0.11824 0.59514 0.39574 0.0
C1056 C 0.09183 0.58196 0.27148 0.0
C1057 C 0.09101 0.56353 0.21924 0.0
C1058 C 0.0893 0.56642 0.14031 0.0
C1059 C 0.08936 0.58935 0.11348 0.0
C1060 C 0.09197 0.60945 0.16526 0.0
C1061 C 0.09279 0.60557 0.24537 0.0
H1062 H 0.47801 0.91105 0.87737 0.0
H1063 H 0.45397 0.82671 0.86454 0.0
H1064 H 0.41512 0.8181 0.7831 0.0
H1065 H 0.40909 0.90181 0.87849 0.0
H1066 H 0.42037 0.93191 0.82201 0.0
H1067 H 0.44313 0.9292 0.88715 0.0
H1068 H 0.47598 0.93995 0.77299 0.0
H1069 H 0.45256 0.94102 0.70685 0.0
H1070 H 0.46506 0.91837 0.68974 0.0
H1071 H 0.38161 0.82052 0.69009 0.0
H1072 H 0.35138 0.83184 0.61823 0.0
H1073 H 0.39847 0.91459 0.69344 0.0
C1074 C 0.46379 0.89058 0.86038 0.0
C1075 C 0.46838 0.86941 0.87858 0.0
C1076 C 0.45014 0.843 0.85291 0.0
C1077 C 0.42833 0.83806 0.80568 0.0
C1078 C 0.42518 0.8598 0.78511 0.0
C1079 C 0.44198 0.88537 0.81377 0.0
C1080 C 0.43509 0.90556 0.78163 0.0
C1081 C 0.42639 0.91783 0.84615 0.0
C1082 C 0.45857 0.92751 0.73505 0.0
C1083 C 0.41186 0.88754 0.73002 0.0
C1084 C 0.40653 0.86123 0.73172 0.0
C1085 C 0.38563 0.84106 0.68871 0.0
C1086 C 0.36885 0.84771 0.64695 0.0
C1087 C 0.37308 0.87417 0.64937 0.0
C1088 C 0.39532 0.89439 0.68928 0.0
H1089 H 0.58941 0.489 0.83464 0.0
H1090 H 0.63894 0.4529 0.86565 0.0
H1091 H 0.60813 0.41468 0.78279 0.0
H1092 H 0.52446 0.4281 0.82514 0.0
H1093 H 0.51238 0.44095 0.75016 0.0
H1094 H 0.53717 0.4638 0.81707 0.0
H1095 H 0.56784 0.49007 0.70253 0.0
H1096 H 0.54357 0.46672 0.63534 0.0
H1097 H 0.57737 0.47276 0.63456 0.0
H1098 H 0.57203 0.38071 0.69546 0.0
H1099 H 0.53128 0.35164 0.61947 0.0
H1100 H 0.50753 0.4119 0.6351 0.0
C1101 C 0.59339 0.47277 0.82512 0.0
C1102 C 0.61631 0.47367 0.85711 0.0
C1103 C 0.6213 0.45238 0.84216 0.0
C1104 C 0.60405 0.43076 0.79471 0.0
C1105 C 0.58227 0.43108 0.76113 0.0
C1106 C 0.57681 0.45147 0.77597 0.0
C1107 C 0.55275 0.44762 0.73023 0.0
C1108 C 0.53036 0.44494 0.78387 0.0
C1109 C 0.56088 0.47066 0.67226 0.0
C1110 C 0.54493 0.42138 0.68928 0.0
C1111 C 0.56241 0.41233 0.70732 0.0
C1112 C 0.5585 0.38782 0.6799 0.0
C1113 C 0.53554 0.37161 0.63585 0.0
C1114 C 0.51695 0.38007 0.61885 0.0
C1115 C 0.52212 0.40558 0.64422 0.0
H1116 H 0.11373 0.50875 0.78166 0.0
H1117 H 0.14648 0.54331 0.55863 0.0
H1118 H 0.16832 0.58891 0.61608 0.0
H1119 H 0.09589 0.55558 0.83545 0.0
H1120 H 0.10384 0.5557 0.93576 0.0
H1121 H 0.09487 0.52648 0.87816 0.0
H1122 H 0.13942 0.52909 0.91818 0.0
H1123 H 0.14885 0.55906 0.97365 0.0
H1124 H 0.1708 0.55937 0.89956 0.0
H1125 H 0.18442 0.6303 0.69516 0.0
H1126 H 0.18155 0.66395 0.7755 0.0
H1127 H 0.13643 0.60287 0.94617 0.0
C1128 C 0.12567 0.52594 0.74499 0.0
C1129 C 0.12862 0.52256 0.6658 0.0
C1130 C 0.14392 0.54548 0.61935 0.0
C1131 C 0.1568 0.57138 0.65186 0.0
C1132 C 0.1541 0.57395 0.73073 0.0
C1133 C 0.13831 0.55186 0.77623 0.0
C1134 C 0.13547 0.56019 0.85672 0.0
C1135 C 0.10577 0.54885 0.87766 0.0
C1136 C 0.14947 0.55141 0.9155 0.0
C1137 C 0.15039 0.59057 0.84778 0.0
C1138 C 0.16231 0.59804 0.776 0.0
C1139 C 0.17536 0.62472 0.75155 0.0
C1140 C 0.17389 0.6438 0.79805 0.0
C1141 C 0.15873 0.63591 0.86679 0.0
C1142 C 0.1487 0.6095 0.89487 0.0
H1143 H 0.57672 0.09779 0.63148 0.0
H1144 H 0.64135 0.15928 0.76801 0.0
H1145 H 0.60843 0.16799 0.83561 0.0
H1146 H 0.5373 0.12763 0.60578 0.0
H1147 H 0.50585 0.09673 0.61781 0.0
H1148 H 0.53457 0.09582 0.58163 0.0
H1149 H 0.53007 0.06301 0.69072 0.0
H1150 H 0.50107 0.06352 0.72658 0.0
H1151 H 0.52911 0.07214 0.78919 0.0
H1152 H 0.56662 0.16966 0.88621 0.0
H1153 H 0.52142 0.16184 0.92018 0.0
H1154 H 0.48583 0.099 0.749 0.0
C1155 C 0.58413 0.11317 0.67555 0.0
C1156 C 0.61167 0.12797 0.69418 0.0
C1157 C 0.62032 0.14762 0.75301 0.0
C1158 C 0.60175 0.15273 0.79137 0.0
C1159 C 0.57463 0.13769 0.77093 0.0
C1160 C 0.56596 0.11801 0.71505 0.0
C1161 C 0.53586 0.10352 0.70531 0.0
C1162 C 0.52795 0.10611 0.62271 0.0
C1163 C 0.52329 0.0738 0.72937 0.0
C1164 C 0.52873 0.11892 0.76151 0.0
C1165 C 0.55119 0.13835 0.79991 0.0
C1166 C 0.54905 0.15439 0.85648 0.0
C1167 C 0.52335 0.14983 0.87547 0.0
C1168 C 0.5002 0.12945 0.83823 0.0
C1169 C 0.50313 0.11449 0.77894 0.0
H1170 H 0.48563 0.59162 0.76309 0.0
H1171 H 0.44755 0.59988 0.55795 0.0
H1172 H 0.4041 0.56214 0.60173 0.0
H1173 H 0.44957 0.52034 0.76755 0.0
H1174 H 0.44728 0.51791 0.87083 0.0
H1175 H 0.47492 0.54676 0.82607 0.0
H1176 H 0.46329 0.57848 0.90152 0.0
H1177 H 0.43581 0.54965 0.94692 0.0
H1178 H 0.4299 0.5734 0.89548 0.0
H1179 H 0.36516 0.52179 0.66479 0.0
H1180 H 0.33394 0.4821 0.74157 0.0
H1181 H 0.39731 0.50007 0.90595 0.0
C1182 C 0.46812 0.58569 0.72759 0.0
C1183 C 0.47011 0.59873 0.65675 0.0
C1184 C 0.44669 0.59009 0.61189 0.0
C1185 C 0.42185 0.56875 0.6366 0.0
C1186 C 0.4207 0.55615 0.70622 0.0
C1187 C 0.44323 0.56432 0.75112 0.0
C1188 C 0.4369 0.5466 0.82169 0.0
C1189 C 0.45313 0.53204 0.82149 0.0
C1190 C 0.44175 0.56302 0.89577 0.0
C1191 C 0.4073 0.52699 0.80925 0.0
C1192 C 0.39833 0.53292 0.74244 0.0
C1193 C 0.37197 0.51705 0.71729 0.0
C1194 C 0.35442 0.49444 0.76111 0.0
C1195 C 0.36319 0.4879 0.8296 0.0
C1196 C 0.38996 0.50461 0.85413 0.0
H1197 H 0.86208 0.476 0.61791 0.0
H1198 H 0.83587 0.50714 0.80489 0.0
H1199 H 0.82743 0.46778 0.88486 0.0
H1200 H 0.81466 0.40537 0.64858 0.0
H1201 H 0.83862 0.39532 0.62333 0.0
H1202 H 0.84106 0.42509 0.58108 0.0
H1203 H 0.89002 0.45343 0.62981 0.0
H1204 H 0.88778 0.42378 0.67195 0.0
H1205 H 0.89703 0.45302 0.73061 0.0
H1206 H 0.8232 0.42425 0.94483 0.0
H1207 H 0.82709 0.38434 0.98046 0.0
H1208 H 0.85521 0.38317 0.75047 0.0
C1209 C 0.8544 0.47461 0.67552 0.0
C1210 C 0.84968 0.49473 0.70514 0.0
C1211 C 0.83964 0.49197 0.78093 0.0
C1212 C 0.83472 0.46964 0.82662 0.0
C1213 C 0.83978 0.45021 0.79537 0.0
C1214 C 0.84939 0.45264 0.72132 0.0
C1215 C 0.8543 0.42994 0.70105 0.0
C1216 C 0.83607 0.41293 0.63458 0.0
C1217 C 0.88404 0.44069 0.68229 0.0
C1218 C 0.84637 0.41439 0.77555 0.0
C1219 C 0.83785 0.42609 0.8295 0.0
C1220 C 0.83031 0.41528 0.90336 0.0
C1221 C 0.83248 0.39261 0.92306 0.0
C1222 C 0.8415 0.38072 0.86831 0.0
C1223 C 0.84798 0.3916 0.79348 0.0
loop_
_geom_bond_atom_site_label_1
_geom_bond_atom_site_label_2
_geom_bond_distance
_geom_bond_site_symmetry_2
_ccdc_geom_bond_type
Zn0 O6 1.920 . S
Zn0 O12 1.898 . S
Zn0 O15 1.905 . S
Zn1 O9 1.905 . S
Zn1 O10 1.898 . S
Zn1 O18 1.920 . S
Zn2 O5 2.080 1_554 S
Zn2 O8 2.114 . S
Zn2 O11 2.120 . S
Zn2 O13 2.120 1_554 S
Zn2 O14 2.114 1_554 S
Zn2 O17 2.080 . S
C3 O8 1.166 . S
C3 O9 1.182 . S
C4 O10 1.167 . S
C4 O11 1.299 . S
O5 Zn2 2.080 1_556 S
O5 C19 1.305 . S
O6 Zn0 1.920 . S
O6 C19 1.234 . S
C7 O12 1.167 . S
C7 O13 1.299 . S
O8 Zn2 2.114 . S
O8 C3 1.166 . S
O9 Zn1 1.905 . S
O9 C3 1.182 . S
O10 Zn1 1.898 . S
O10 C4 1.167 . S
O11 Zn2 2.120 . S
O11 C4 1.299 . S
O12 Zn0 1.898 . S
O12 C7 1.167 . S
O13 Zn2 2.120 1_556 S
O13 C7 1.299 . S
O14 Zn2 2.114 1_556 S
O14 C16 1.166 . S
O15 Zn0 1.905 . S
O15 C16 1.182 . S
C16 O14 1.166 . S
C16 O15 1.182 . S
O17 Zn2 2.080 . S
O17 C20 1.305 . S
O18 Zn1 1.920 . S
O18 C20 1.234 . S
C19 O5 1.305 . S
C19 O6 1.234 . S
C20 O17 1.305 . S
C20 O18 1.234 . S
Zn21 O27 1.920 . S
Zn21 O33 1.898 . S
Zn21 O36 1.905 . S
Zn22 O30 1.905 . S
Zn22 O31 1.898 . S
Zn22 O39 1.920 . S
Zn23 O26 2.080 . S
Zn23 O29 2.114 1_554 S
Zn23 O32 2.120 1_554 S
Zn23 O34 2.120 . S
Zn23 O35 2.114 . S
Zn23 O38 2.080 1_554 S
C24 O29 1.166 . S
C24 O30 1.182 . S
C25 O31 1.167 . S
C25 O32 1.299 . S
O26 Zn23 2.080 . S
O26 C40 1.305 . S
O27 Zn21 1.920 . S
O27 C40 1.234 . S
C28 O33 1.167 . S
C28 O34 1.299 . S
O29 Zn23 2.114 1_556 S
O29 C24 1.166 . S
O30 Zn22 1.905 . S
O30 C24 1.182 . S
O31 Zn22 1.898 . S
O31 C25 1.167 . S
O32 Zn23 2.120 1_556 S
O32 C25 1.299 . S
O33 Zn21 1.898 . S
O33 C28 1.167 . S
O34 Zn23 2.120 . S
O34 C28 1.299 . S
O35 Zn23 2.114 . S
O35 C37 1.166 . S
O36 Zn21 1.905 . S
O36 C37 1.182 . S
C37 O35 1.166 . S
C37 O36 1.182 . S
O38 Zn23 2.080 1_556 S
O38 C41 1.305 . S
O39 Zn22 1.920 . S
O39 C41 1.234 . S
C40 O26 1.305 . S
C40 O27 1.234 . S
C41 O38 1.305 . S
C41 O39 1.234 . S
Zn42 O48 1.920 . S
Zn42 O54 1.898 . S
Zn42 O57 1.905 . S
Zn43 O51 1.905 . S
Zn43 O52 1.898 . S
Zn43 O60 1.920 . S
Zn44 O47 2.080 1_554 S
Zn44 O50 2.114 . S
Zn44 O53 2.120 . S
Zn44 O55 2.120 1_554 S
Zn44 O56 2.114 1_554 S
Zn44 O59 2.080 . S
C45 O50 1.166 . S
C45 O51 1.182 . S
C46 O52 1.167 . S
C46 O53 1.299 . S
O47 Zn44 2.080 1_556 S
O47 C61 1.305 . S
O48 Zn42 1.920 . S
O48 C61 1.234 . S
C49 O54 1.167 . S
C49 O55 1.299 . S
O50 Zn44 2.114 . S
O50 C45 1.166 . S
O51 Zn43 1.905 . S
O51 C45 1.182 . S
O52 Zn43 1.898 . S
O52 C46 1.167 . S
O53 Zn44 2.120 . S
O53 C46 1.299 . S
O54 Zn42 1.898 . S
O54 C49 1.167 . S
O55 Zn44 2.120 1_556 S
O55 C49 1.299 . S
O56 Zn44 2.114 1_556 S
O56 C58 1.166 . S
O57 Zn42 1.905 . S
O57 C58 1.182 . S
C58 O56 1.166 . S
C58 O57 1.182 . S
O59 Zn44 2.080 . S
O59 C62 1.305 . S
O60 Zn43 1.920 . S
O60 C62 1.234 . S
C61 O47 1.305 . S
C61 O48 1.234 . S
C62 O59 1.305 . S
C62 O60 1.234 . S
Zn63 O69 1.920 . S
Zn63 O75 1.898 . S
Zn63 O78 1.905 . S
Zn64 O72 1.905 . S
Zn64 O73 1.898 . S
Zn64 O81 1.920 . S
Zn65 O68 2.080 . S
Zn65 O71 2.114 1_554 S
Zn65 O74 2.120 1_554 S
Zn65 O76 2.120 . S
Zn65 O77 2.114 . S
Zn65 O80 2.080 1_554 S
C66 O71 1.166 . S
C66 O72 1.182 . S
C67 O73 1.167 . S
C67 O74 1.299 . S
O68 Zn65 2.080 . S
O68 C82 1.305 . S
O69 Zn63 1.920 . S
O69 C82 1.234 . S
C70 O75 1.167 . S
C70 O76 1.299 . S
O71 Zn65 2.114 1_556 S
O71 C66 1.166 . S
O72 Zn64 1.905 . S
O72 C66 1.182 . S
O73 Zn64 1.898 . S
O73 C67 1.167 . S
O74 Zn65 2.120 1_556 S
O74 C67 1.299 . S
O75 Zn63 1.898 . S
O75 C70 1.167 . S
O76 Zn65 2.120 . S
O76 C70 1.299 . S
O77 Zn65 2.114 . S
O77 C79 1.166 . S
O78 Zn63 1.905 . S
O78 C79 1.182 . S
C79 O77 1.166 . S
C79 O78 1.182 . S
O80 Zn65 2.080 1_556 S
O80 C83 1.305 . S
O81 Zn64 1.920 . S
O81 C83 1.234 . S
C82 O68 1.305 . S
C82 O69 1.234 . S
C83 O80 1.305 . S
C83 O81 1.234 . S
Zn84 O90 1.920 . S
Zn84 O96 1.898 . S
Zn84 O99 1.905 . S
Zn85 O93 1.905 . S
Zn85 O94 1.898 . S
Zn85 O102 1.920 . S
Zn86 O89 2.080 1_554 S
Zn86 O92 2.114 . S
Zn86 O95 2.120 . S
Zn86 O97 2.120 1_554 S
Zn86 O98 2.114 1_554 S
Zn86 O101 2.080 . S
C87 O92 1.166 . S
C87 O93 1.182 . S
C88 O94 1.167 . S
C88 O95 1.299 . S
O89 Zn86 2.080 1_556 S
O89 C103 1.305 . S
O90 Zn84 1.920 . S
O90 C103 1.234 . S
C91 O96 1.167 . S
C91 O97 1.299 . S
O92 Zn86 2.114 . S
O92 C87 1.166 . S
O93 Zn85 1.905 . S
O93 C87 1.182 . S
O94 Zn85 1.898 . S
O94 C88 1.167 . S
O95 Zn86 2.120 . S
O95 C88 1.299 . S
O96 Zn84 1.898 . S
O96 C91 1.167 . S
O97 Zn86 2.120 1_556 S
O97 C91 1.299 . S
O98 Zn86 2.114 1_556 S
O98 C100 1.166 . S
O99 Zn84 1.905 . S
O99 C100 1.182 . S
C100 O98 1.166 . S
C100 O99 1.182 . S
O101 Zn86 2.080 . S
O101 C104 1.305 . S
O102 Zn85 1.920 . S
O102 C104 1.234 . S
C103 O89 1.305 . S
C103 O90 1.234 . S
C104 O101 1.305 . S
C104 O102 1.234 . S
Zn105 O111 1.920 . S
Zn105 O117 1.898 . S
Zn105 O120 1.905 . S
Zn106 O114 1.905 . S
Zn106 O115 1.898 . S
Zn106 O123 1.920 . S
Zn107 O110 2.080 . S
Zn107 O113 2.114 1_554 S
Zn107 O116 2.120 1_554 S
Zn107 O118 2.120 . S
Zn107 O119 2.114 . S
Zn107 O122 2.080 1_554 S
C108 O113 1.166 . S
C108 O114 1.182 . S
C109 O115 1.167 . S
C109 O116 1.299 . S
O110 Zn107 2.080 . S
O110 C124 1.305 . S
O111 Zn105 1.920 . S
O111 C124 1.234 . S
C112 O117 1.167 . S
C112 O118 1.299 . S
O113 Zn107 2.114 1_556 S
O113 C108 1.166 . S
O114 Zn106 1.905 . S
O114 C108 1.182 . S
O115 Zn106 1.898 . S
O115 C109 1.167 . S
O116 Zn107 2.120 1_556 S
O116 C109 1.299 . S
O117 Zn105 1.898 . S
O117 C112 1.167 . S
O118 Zn107 2.120 . S
O118 C112 1.299 . S
O119 Zn107 2.114 . S
O119 C121 1.166 . S
O120 Zn105 1.905 . S
O120 C121 1.182 . S
C121 O119 1.166 . S
C121 O120 1.182 . S
O122 Zn107 2.080 1_556 S
O122 C125 1.305 . S
O123 Zn106 1.920 . S
O123 C125 1.234 . S
C124 O110 1.305 . S
C124 O111 1.234 . S
C125 O122 1.305 . S
C125 O123 1.234 . S
Zn126 O132 1.920 . S
Zn126 O138 1.898 . S
Zn126 O141 1.905 . S
Zn127 O135 1.905 . S
Zn127 O136 1.898 . S
Zn127 O144 1.920 . S
Zn128 O131 2.080 . S
Zn128 O134 2.114 . S
Zn128 O137 2.120 . S
Zn128 O139 2.120 . S
Zn128 O140 2.114 . S
Zn128 O143 2.080 . S
C129 O134 1.166 . S
C129 O135 1.182 . S
C130 O136 1.167 . S
C130 O137 1.299 . S
O131 Zn128 2.080 . S
O131 C145 1.305 . S
O132 Zn126 1.920 . S
O132 C145 1.234 . S
C133 O138 1.167 . S
C133 O139 1.299 . S
O134 Zn128 2.114 . S
O134 C129 1.166 . S
O135 Zn127 1.905 . S
O135 C129 1.182 . S
O136 Zn127 1.898 . S
O136 C130 1.167 . S
O137 Zn128 2.120 . S
O137 C130 1.299 . S
O138 Zn126 1.898 . S
O138 C133 1.167 . S
O139 Zn128 2.120 . S
O139 C133 1.299 . S
O140 Zn128 2.114 . S
O140 C142 1.166 . S
O141 Zn126 1.905 . S
O141 C142 1.182 . S
C142 O140 1.166 . S
C142 O141 1.182 . S
O143 Zn128 2.080 . S
O143 C146 1.305 . S
O144 Zn127 1.920 . S
O144 C146 1.234 . S
C145 O131 1.305 . S
C145 O132 1.234 . S
C146 O143 1.305 . S
C146 O144 1.234 . S
Zn147 O153 1.920 . S
Zn147 O159 1.898 . S
Zn147 O162 1.905 . S
Zn148 O156 1.905 . S
Zn148 O157 1.898 . S
Zn148 O165 1.920 . S
Zn149 O152 2.080 . S
Zn149 O155 2.114 . S
Zn149 O158 2.120 . S
Zn149 O160 2.120 . S
Zn149 O161 2.114 . S
Zn149 O164 2.080 . S
C150 O155 1.166 . S
C150 O156 1.182 . S
C151 O157 1.167 . S
C151 O158 1.299 . S
O152 Zn149 2.080 . S
O152 C166 1.305 . S
O153 Zn147 1.920 . S
O153 C166 1.234 . S
C154 O159 1.167 . S
C154 O160 1.299 . S
O155 Zn149 2.114 . S
O155 C150 1.166 . S
O156 Zn148 1.905 . S
O156 C150 1.182 . S
O157 Zn148 1.898 . S
O157 C151 1.167 . S
O158 Zn149 2.120 . S
O158 C151 1.299 . S
O159 Zn147 1.898 . S
O159 C154 1.167 . S
O160 Zn149 2.120 . S
O160 C154 1.299 . S
O161 Zn149 2.114 . S
O161 C163 1.166 . S
O162 Zn147 1.905 . S
O162 C163 1.182 . S
C163 O161 1.166 . S
C163 O162 1.182 . S
O164 Zn149 2.080 . S
O164 C167 1.305 . S
O165 Zn148 1.920 . S
O165 C167 1.234 . S
C166 O152 1.305 . S
C166 O153 1.234 . S
C167 O164 1.305 . S
C167 O165 1.234 . S
Zn168 O174 1.920 . S
Zn168 O180 1.898 . S
Zn168 O183 1.905 . S
Zn169 O177 1.905 . S
Zn169 O178 1.898 . S
Zn169 O186 1.920 . S
Zn170 O173 2.080 . S
Zn170 O176 2.114 . S
Zn170 O179 2.120 . S
Zn170 O181 2.120 . S
Zn170 O182 2.114 . S
Zn170 O185 2.080 . S
C171 O176 1.166 . S
C171 O177 1.182 . S
C172 O178 1.167 . S
C172 O179 1.299 . S
O173 Zn170 2.080 . S
O173 C187 1.305 . S
O174 Zn168 1.920 . S
O174 C187 1.234 . S
C175 O180 1.167 . S
C175 O181 1.299 . S
O176 Zn170 2.114 . S
O176 C171 1.166 . S
O177 Zn169 1.905 . S
O177 C171 1.182 . S
O178 Zn169 1.898 . S
O178 C172 1.167 . S
O179 Zn170 2.120 . S
O179 C172 1.299 . S
O180 Zn168 1.898 . S
O180 C175 1.167 . S
O181 Zn170 2.120 . S
O181 C175 1.299 . S
O182 Zn170 2.114 . S
O182 C184 1.166 . S
O183 Zn168 1.905 . S
O183 C184 1.182 . S
C184 O182 1.166 . S
C184 O183 1.182 . S
O185 Zn170 2.080 . S
O185 C188 1.305 . S
O186 Zn169 1.920 . S
O186 C188 1.234 . S
C187 O173 1.305 . S
C187 O174 1.234 . S
C188 O185 1.305 . S
C188 O186 1.234 . S
Zn189 O195 1.920 . S
Zn189 O201 1.898 . S
Zn189 O204 1.905 . S
Zn190 O198 1.905 . S
Zn190 O199 1.898 . S
Zn190 O207 1.920 . S
Zn191 O194 2.080 . S
Zn191 O197 2.114 . S
Zn191 O200 2.120 . S
Zn191 O202 2.120 . S
Zn191 O203 2.114 . S
Zn191 O206 2.080 . S
C192 O197 1.166 . S
C192 O198 1.182 . S
C193 O199 1.167 . S
C193 O200 1.299 . S
O194 Zn191 2.080 . S
O194 C208 1.305 . S
O195 Zn189 1.920 . S
O195 C208 1.234 . S
C196 O201 1.167 . S
C196 O202 1.299 . S
O197 Zn191 2.114 . S
O197 C192 1.166 . S
O198 Zn190 1.905 . S
O198 C192 1.182 . S
O199 Zn190 1.898 . S
O199 C193 1.167 . S
O200 Zn191 2.120 . S
O200 C193 1.299 . S
O201 Zn189 1.898 . S
O201 C196 1.167 . S
O202 Zn191 2.120 . S
O202 C196 1.299 . S
O203 Zn191 2.114 . S
O203 C205 1.166 . S
O204 Zn189 1.905 . S
O204 C205 1.182 . S
C205 O203 1.166 . S
C205 O204 1.182 . S
O206 Zn191 2.080 . S
O206 C209 1.305 . S
O207 Zn190 1.920 . S
O207 C209 1.234 . S
C208 O194 1.305 . S
C208 O195 1.234 . S
C209 O206 1.305 . S
C209 O207 1.234 . S
Zn210 O216 1.920 . S
Zn210 O222 1.898 . S
Zn210 O225 1.905 . S
Zn211 O219 1.905 . S
Zn211 O220 1.898 . S
Zn211 O228 1.920 . S
Zn212 O215 2.080 . S
Zn212 O218 2.114 . S
Zn212 O221 2.120 . S
Zn212 O223 2.120 . S
Zn212 O224 2.114 . S
Zn212 O227 2.080 . S
C213 O218 1.166 . S
C213 O219 1.182 . S
C214 O220 1.167 . S
C214 O221 1.299 . S
O215 Zn212 2.080 . S
O215 C229 1.305 . S
O216 Zn210 1.920 . S
O216 C229 1.234 . S
C217 O222 1.167 . S
C217 O223 1.299 . S
O218 Zn212 2.114 . S
O218 C213 1.166 . S
O219 Zn211 1.905 . S
O219 C213 1.182 . S
O220 Zn211 1.898 . S
O220 C214 1.167 . S
O221 Zn212 2.120 . S
O221 C214 1.299 . S
O222 Zn210 1.898 . S
O222 C217 1.167 . S
O223 Zn212 2.120 . S
O223 C217 1.299 . S
O224 Zn212 2.114 . S
O224 C226 1.166 . S
O225 Zn210 1.905 . S
O225 C226 1.182 . S
C226 O224 1.166 . S
C226 O225 1.182 . S
O227 Zn212 2.080 . S
O227 C230 1.305 . S
O228 Zn211 1.920 . S
O228 C230 1.234 . S
C229 O215 1.305 . S
C229 O216 1.234 . S
C230 O227 1.305 . S
C230 O228 1.234 . S
Zn231 O237 1.920 . S
Zn231 O243 1.898 . S
Zn231 O246 1.905 . S
Zn232 O240 1.905 . S
Zn232 O241 1.898 . S
Zn232 O249 1.920 . S
Zn233 O236 2.080 . S
Zn233 O239 2.114 . S
Zn233 O242 2.120 . S
Zn233 O244 2.120 . S
Zn233 O245 2.114 . S
Zn233 O248 2.080 . S
C234 O239 1.166 . S
C234 O240 1.182 . S
C235 O241 1.167 . S
C235 O242 1.299 . S
O236 Zn233 2.080 . S
O236 C250 1.305 . S
O237 Zn231 1.920 . S
O237 C250 1.234 . S
C238 O243 1.167 . S
C238 O244 1.299 . S
O239 Zn233 2.114 . S
O239 C234 1.166 . S
O240 Zn232 1.905 . S
O240 C234 1.182 . S
O241 Zn232 1.898 . S
O241 C235 1.167 . S
O242 Zn233 2.120 . S
O242 C235 1.299 . S
O243 Zn231 1.898 . S
O243 C238 1.167 . S
O244 Zn233 2.120 . S
O244 C238 1.299 . S
O245 Zn233 2.114 . S
O245 C247 1.166 . S
O246 Zn231 1.905 . S
O246 C247 1.182 . S
C247 O245 1.166 . S
C247 O246 1.182 . S
O248 Zn233 2.080 . S
O248 C251 1.305 . S
O249 Zn232 1.920 . S
O249 C251 1.234 . S
C250 O236 1.305 . S
C250 O237 1.234 . S
C251 O248 1.305 . S
C251 O249 1.234 . S
H252 C264 0.930 . S
H253 C266 0.930 . S
H254 C267 0.930 . S
H255 C271 0.959 . S
H256 C271 0.959 . S
H257 C271 0.961 . S
H258 C272 0.960 . S
H259 C272 0.961 . S
H260 C272 0.959 . S
H261 C275 0.929 . S
H262 C276 0.931 . S
H263 C278 0.930 . S
C264 H252 0.930 . S
C264 C265 1.399 . S
C264 C269 1.399 . S
C265 C264 1.399 . S
C265 C266 1.376 . S
C266 H253 0.930 . S
C266 C265 1.376 . S
C266 C267 1.388 . S
C267 H254 0.930 . S
C267 C266 1.388 . S
C267 C268 1.390 . S
C268 C267 1.390 . S
C268 C269 1.394 . S
C268 C274 1.465 . S
C269 C264 1.399 . S
C269 C268 1.394 . S
C269 C270 1.516 . S
C270 C269 1.516 . S
C270 C271 1.502 . S
C270 C272 1.561 . S
C270 C273 1.526 . S
C271 H255 0.959 . S
C271 H256 0.959 . S
C271 H257 0.961 . S
C271 C270 1.502 . S
C272 H258 0.960 . S
C272 H259 0.961 . S
C272 H260 0.959 . S
C272 C270 1.561 . S
C273 C270 1.526 . S
C273 C274 1.396 . S
C273 C278 1.390 . S
C274 C268 1.465 . S
C274 C273 1.396 . S
C274 C275 1.399 . S
C275 H261 0.929 . S
C275 C274 1.399 . S
C275 C276 1.385 . S
C276 H262 0.931 . S
C276 C275 1.385 . S
C276 C277 1.389 . S
C277 C276 1.389 . S
C277 C278 1.387 . S
C278 H263 0.930 . S
C278 C273 1.390 . S
C278 C277 1.387 . S
H279 C291 0.930 . S
H280 C293 0.930 . S
H281 C294 0.930 . S
H282 C298 0.959 . S
H283 C298 0.959 . S
H284 C298 0.961 . S
H285 C299 0.960 . S
H286 C299 0.961 . S
H287 C299 0.959 . S
H288 C302 0.929 . S
H289 C303 0.931 . S
H290 C305 0.930 . S
C291 H279 0.930 . S
C291 C292 1.399 . S
C291 C296 1.399 . S
C292 C291 1.399 . S
C292 C293 1.376 . S
C293 H280 0.930 . S
C293 C292 1.376 . S
C293 C294 1.388 . S
C294 H281 0.930 . S
C294 C293 1.388 . S
C294 C295 1.390 . S
C295 C294 1.390 . S
C295 C296 1.394 . S
C295 C301 1.465 . S
C296 C291 1.399 . S
C296 C295 1.394 . S
C296 C297 1.516 . S
C297 C296 1.516 . S
C297 C298 1.502 . S
C297 C299 1.561 . S
C297 C300 1.526 . S
C298 H282 0.959 . S
C298 H283 0.959 . S
C298 H284 0.961 . S
C298 C297 1.502 . S
C299 H285 0.960 . S
C299 H286 0.961 . S
C299 H287 0.959 . S
C299 C297 1.561 . S
C300 C297 1.526 . S
C300 C301 1.396 . S
C300 C305 1.390 . S
C301 C295 1.465 . S
C301 C300 1.396 . S
C301 C302 1.399 . S
C302 H288 0.929 . S
C302 C301 1.399 . S
C302 C303 1.385 . S
C303 H289 0.931 . S
C303 C302 1.385 . S
C303 C304 1.389 . S
C304 C303 1.389 . S
C304 C305 1.387 . S
C305 H290 0.930 . S
C305 C300 1.390 . S
C305 C304 1.387 . S
H306 C318 0.930 . S
H307 C320 0.930 . S
H308 C321 0.930 . S
H309 C325 0.959 . S
H310 C325 0.959 . S
H311 C325 0.961 . S
H312 C326 0.960 . S
H313 C326 0.961 . S
H314 C326 0.959 . S
H315 C329 0.929 . S
H316 C330 0.931 . S
H317 C332 0.930 . S
C318 H306 0.930 . S
C318 C319 1.399 . S
C318 C323 1.399 . S
C319 C318 1.399 . S
C319 C320 1.376 . S
C320 H307 0.930 . S
C320 C319 1.376 . S
C320 C321 1.388 . S
C321 H308 0.930 . S
C321 C320 1.388 . S
C321 C322 1.390 . S
C322 C321 1.390 . S
C322 C323 1.394 . S
C322 C328 1.465 . S
C323 C318 1.399 . S
C323 C322 1.394 . S
C323 C324 1.516 . S
C324 C323 1.516 . S
C324 C325 1.502 . S
C324 C326 1.561 . S
C324 C327 1.526 . S
C325 H309 0.959 . S
C325 H310 0.959 . S
C325 H311 0.961 . S
C325 C324 1.502 . S
C326 H312 0.960 . S
C326 H313 0.961 . S
C326 H314 0.959 . S
C326 C324 1.561 . S
C327 C324 1.526 . S
C327 C328 1.396 . S
C327 C332 1.390 . S
C328 C322 1.465 . S
C328 C327 1.396 . S
C328 C329 1.399 . S
C329 H315 0.929 . S
C329 C328 1.399 . S
C329 C330 1.385 . S
C330 H316 0.931 . S
C330 C329 1.385 . S
C330 C331 1.389 . S
C331 C330 1.389 . S
C331 C332 1.387 . S
C332 H317 0.930 . S
C332 C327 1.390 . S
C332 C331 1.387 . S
H333 C345 0.930 . S
H334 C347 0.930 . S
H335 C348 0.930 . S
H336 C352 0.959 . S
H337 C352 0.959 . S
H338 C352 0.961 . S
H339 C353 0.960 . S
H340 C353 0.961 . S
H341 C353 0.959 . S
H342 C356 0.929 . S
H343 C357 0.931 . S
H344 C359 0.930 . S
C345 H333 0.930 . S
C345 C346 1.399 . S
C345 C350 1.399 . S
C346 C345 1.399 . S
C346 C347 1.376 . S
C347 H334 0.930 . S
C347 C346 1.376 . S
C347 C348 1.388 . S
C348 H335 0.930 . S
C348 C347 1.388 . S
C348 C349 1.390 . S
C349 C348 1.390 . S
C349 C350 1.394 . S
C349 C355 1.465 . S
C350 C345 1.399 . S
C350 C349 1.394 . S
C350 C351 1.516 . S
C351 C350 1.516 . S
C351 C352 1.502 . S
C351 C353 1.561 . S
C351 C354 1.526 . S
C352 H336 0.959 . S
C352 H337 0.959 . S
C352 H338 0.961 . S
C352 C351 1.502 . S
C353 H339 0.960 . S
C353 H340 0.961 . S
C353 H341 0.959 . S
C353 C351 1.561 . S
C354 C351 1.526 . S
C354 C355 1.396 . S
C354 C359 1.390 . S
C355 C349 1.465 . S
C355 C354 1.396 . S
C355 C356 1.399 . S
C356 H342 0.929 . S
C356 C355 1.399 . S
C356 C357 1.385 . S
C357 H343 0.931 . S
C357 C356 1.385 . S
C357 C358 1.389 . S
C358 C357 1.389 . S
C358 C359 1.387 . S
C359 H344 0.930 . S
C359 C354 1.390 . S
C359 C358 1.387 . S
H360 C372 0.930 . S
H361 C374 0.930 . S
H362 C375 0.930 . S
H363 C379 0.959 . S
H364 C379 0.959 . S
H365 C379 0.961 . S
H366 C380 0.960 . S
H367 C380 0.961 . S
H368 C380 0.959 . S
H369 C383 0.929 . S
H370 C384 0.931 . S
H371 C386 0.930 . S
C372 H360 0.930 . S
C372 C373 1.399 . S
C372 C377 1.399 . S
C373 C372 1.399 . S
C373 C374 1.376 . S
C374 H361 0.930 . S
C374 C373 1.376 . S
C374 C375 1.388 . S
C375 H362 0.930 . S
C375 C374 1.388 . S
C375 C376 1.390 . S
C376 C375 1.390 . S
C376 C377 1.394 . S
C376 C382 1.465 . S
C377 C372 1.399 . S
C377 C376 1.394 . S
C377 C378 1.516 . S
C378 C377 1.516 . S
C378 C379 1.502 . S
C378 C380 1.561 . S
C378 C381 1.526 . S
C379 H363 0.959 . S
C379 H364 0.959 . S
C379 H365 0.961 . S
C379 C378 1.502 . S
C380 H366 0.960 . S
C380 H367 0.961 . S
C380 H368 0.959 . S
C380 C378 1.561 . S
C381 C378 1.526 . S
C381 C382 1.396 . S
C381 C386 1.390 . S
C382 C376 1.465 . S
C382 C381 1.396 . S
C382 C383 1.399 . S
C383 H369 0.929 . S
C383 C382 1.399 . S
C383 C384 1.385 . S
C384 H370 0.931 . S
C384 C383 1.385 . S
C384 C385 1.389 . S
C385 C384 1.389 . S
C385 C386 1.387 . S
C386 H371 0.930 . S
C386 C381 1.390 . S
C386 C385 1.387 . S
H387 C399 0.930 . S
H388 C401 0.930 . S
H389 C402 0.930 . S
H390 C406 0.959 . S
H391 C406 0.959 . S
H392 C406 0.961 . S
H393 C407 0.960 . S
H394 C407 0.961 . S
H395 C407 0.959 . S
H396 C410 0.929 . S
H397 C411 0.931 . S
H398 C413 0.930 . S
C399 H387 0.930 . S
C399 C400 1.399 . S
C399 C404 1.399 . S
C400 C399 1.399 . S
C400 C401 1.376 . S
C401 H388 0.930 . S
C401 C400 1.376 . S
C401 C402 1.388 . S
C402 H389 0.930 . S
C402 C401 1.388 . S
C402 C403 1.390 . S
C403 C402 1.390 . S
C403 C404 1.394 . S
C403 C409 1.465 . S
C404 C399 1.399 . S
C404 C403 1.394 . S
C404 C405 1.516 . S
C405 C404 1.516 . S
C405 C406 1.502 . S
C405 C407 1.561 . S
C405 C408 1.526 . S
C406 H390 0.959 . S
C406 H391 0.959 . S
C406 H392 0.961 . S
C406 C405 1.502 . S
C407 H393 0.960 . S
C407 H394 0.961 . S
C407 H395 0.959 . S
C407 C405 1.561 . S
C408 C405 1.526 . S
C408 C409 1.396 . S
C408 C413 1.390 . S
C409 C403 1.465 . S
C409 C408 1.396 . S
C409 C410 1.399 . S
C410 H396 0.929 . S
C410 C409 1.399 . S
C410 C411 1.385 . S
C411 H397 0.931 . S
C411 C410 1.385 . S
C411 C412 1.389 . S
C412 C411 1.389 . S
C412 C413 1.387 . S
C413 H398 0.930 . S
C413 C408 1.390 . S
C413 C412 1.387 . S
H414 C426 0.930 . S
H415 C428 0.930 . S
H416 C429 0.930 . S
H417 C433 0.959 . S
H418 C433 0.959 . S
H419 C433 0.961 . S
H420 C434 0.960 . S
H421 C434 0.961 . S
H422 C434 0.959 . S
H423 C437 0.929 . S
H424 C438 0.931 . S
H425 C440 0.930 . S
C426 H414 0.930 . S
C426 C427 1.399 . S
C426 C431 1.399 . S
C427 C426 1.399 . S
C427 C428 1.376 . S
C428 H415 0.930 . S
C428 C427 1.376 . S
C428 C429 1.388 . S
C429 H416 0.930 . S
C429 C428 1.388 . S
C429 C430 1.390 . S
C430 C429 1.390 . S
C430 C431 1.394 . S
C430 C436 1.465 . S
C431 C426 1.399 . S
C431 C430 1.394 . S
C431 C432 1.516 . S
C432 C431 1.516 . S
C432 C433 1.502 . S
C432 C434 1.561 . S
C432 C435 1.526 . S
C433 H417 0.959 . S
C433 H418 0.959 . S
C433 H419 0.961 . S
C433 C432 1.502 . S
C434 H420 0.960 . S
C434 H421 0.961 . S
C434 H422 0.959 . S
C434 C432 1.561 . S
C435 C432 1.526 . S
C435 C436 1.396 . S
C435 C440 1.390 . S
C436 C430 1.465 . S
C436 C435 1.396 . S
C436 C437 1.399 . S
C437 H423 0.929 . S
C437 C436 1.399 . S
C437 C438 1.385 . S
C438 H424 0.931 . S
C438 C437 1.385 . S
C438 C439 1.389 . S
C439 C438 1.389 . S
C439 C440 1.387 . S
C440 H425 0.930 . S
C440 C435 1.390 . S
C440 C439 1.387 . S
H441 C453 0.930 . S
H442 C455 0.930 . S
H443 C456 0.930 . S
H444 C460 0.959 . S
H445 C460 0.959 . S
H446 C460 0.961 . S
H447 C461 0.960 . S
H448 C461 0.961 . S
H449 C461 0.959 . S
H450 C464 0.929 . S
H451 C465 0.931 . S
H452 C467 0.930 . S
C453 H441 0.930 . S
C453 C454 1.399 . S
C453 C458 1.399 . S
C454 C453 1.399 . S
C454 C455 1.376 . S
C455 H442 0.930 . S
C455 C454 1.376 . S
C455 C456 1.388 . S
C456 H443 0.930 . S
C456 C455 1.388 . S
C456 C457 1.390 . S
C457 C456 1.390 . S
C457 C458 1.394 . S
C457 C463 1.465 . S
C458 C453 1.399 . S
C458 C457 1.394 . S
C458 C459 1.516 . S
C459 C458 1.516 . S
C459 C460 1.502 . S
C459 C461 1.561 . S
C459 C462 1.526 . S
C460 H444 0.959 . S
C460 H445 0.959 . S
C460 H446 0.961 . S
C460 C459 1.502 . S
C461 H447 0.960 . S
C461 H448 0.961 . S
C461 H449 0.959 . S
C461 C459 1.561 . S
C462 C459 1.526 . S
C462 C463 1.396 . S
C462 C467 1.390 . S
C463 C457 1.465 . S
C463 C462 1.396 . S
C463 C464 1.399 . S
C464 H450 0.929 . S
C464 C463 1.399 . S
C464 C465 1.385 . S
C465 H451 0.931 . S
C465 C464 1.385 . S
C465 C466 1.389 . S
C466 C465 1.389 . S
C466 C467 1.387 . S
C467 H452 0.930 . S
C467 C462 1.390 . S
C467 C466 1.387 . S
H468 C480 0.930 . S
H469 C482 0.930 . S
H470 C483 0.930 . S
H471 C487 0.959 . S
H472 C487 0.959 . S
H473 C487 0.961 . S
H474 C488 0.960 . S
H475 C488 0.961 . S
H476 C488 0.959 . S
H477 C491 0.929 . S
H478 C492 0.931 . S
H479 C494 0.930 . S
C480 H468 0.930 . S
C480 C481 1.399 . S
C480 C485 1.399 . S
C481 C480 1.399 . S
C481 C482 1.376 . S
C482 H469 0.930 . S
C482 C481 1.376 . S
C482 C483 1.388 . S
C483 H470 0.930 . S
C483 C482 1.388 . S
C483 C484 1.390 . S
C484 C483 1.390 . S
C484 C485 1.394 . S
C484 C490 1.465 . S
C485 C480 1.399 . S
C485 C484 1.394 . S
C485 C486 1.516 . S
C486 C485 1.516 . S
C486 C487 1.502 . S
C486 C488 1.561 . S
C486 C489 1.526 . S
C487 H471 0.959 . S
C487 H472 0.959 . S
C487 H473 0.961 . S
C487 C486 1.502 . S
C488 H474 0.960 . S
C488 H475 0.961 . S
C488 H476 0.959 . S
C488 C486 1.561 . S
C489 C486 1.526 . S
C489 C490 1.396 . S
C489 C494 1.390 . S
C490 C484 1.465 . S
C490 C489 1.396 . S
C490 C491 1.399 . S
C491 H477 0.929 . S
C491 C490 1.399 . S
C491 C492 1.385 . S
C492 H478 0.931 . S
C492 C491 1.385 . S
C492 C493 1.389 . S
C493 C492 1.389 . S
C493 C494 1.387 . S
C494 H479 0.930 . S
C494 C489 1.390 . S
C494 C493 1.387 . S
H495 C507 0.930 . S
H496 C509 0.930 . S
H497 C510 0.930 . S
H498 C514 0.959 . S
H499 C514 0.959 . S
H500 C514 0.961 . S
H501 C515 0.960 . S
H502 C515 0.961 . S
H503 C515 0.959 . S
H504 C518 0.929 . S
H505 C519 0.931 . S
H506 C521 0.930 . S
C507 H495 0.930 . S
C507 C508 1.399 . S
C507 C512 1.399 . S
C508 C507 1.399 . S
C508 C509 1.376 . S
C509 H496 0.930 . S
C509 C508 1.376 . S
C509 C510 1.388 . S
C510 H497 0.930 . S
C510 C509 1.388 . S
C510 C511 1.390 . S
C511 C510 1.390 . S
C511 C512 1.394 . S
C511 C517 1.465 . S
C512 C507 1.399 . S
C512 C511 1.394 . S
C512 C513 1.516 . S
C513 C512 1.516 . S
C513 C514 1.502 . S
C513 C515 1.561 . S
C513 C516 1.526 . S
C514 H498 0.959 . S
C514 H499 0.959 . S
C514 H500 0.961 . S
C514 C513 1.502 . S
C515 H501 0.960 . S
C515 H502 0.961 . S
C515 H503 0.959 . S
C515 C513 1.561 . S
C516 C513 1.526 . S
C516 C517 1.396 . S
C516 C521 1.390 . S
C517 C511 1.465 . S
C517 C516 1.396 . S
C517 C518 1.399 . S
C518 H504 0.929 . S
C518 C517 1.399 . S
C518 C519 1.385 . S
C519 H505 0.931 . S
C519 C518 1.385 . S
C519 C520 1.389 . S
C520 C519 1.389 . S
C520 C521 1.387 . S
C521 H506 0.930 . S
C521 C516 1.390 . S
C521 C520 1.387 . S
H522 C534 0.930 . S
H523 C536 0.930 . S
H524 C537 0.930 . S
H525 C541 0.959 . S
H526 C541 0.959 . S
H527 C541 0.961 . S
H528 C542 0.960 . S
H529 C542 0.961 . S
H530 C542 0.959 . S
H531 C545 0.929 . S
H532 C546 0.931 . S
H533 C548 0.930 . S
C534 H522 0.930 . S
C534 C535 1.399 . S
C534 C539 1.399 . S
C535 C534 1.399 . S
C535 C536 1.376 . S
C536 H523 0.930 . S
C536 C535 1.376 . S
C536 C537 1.388 . S
C537 H524 0.930 . S
C537 C536 1.388 . S
C537 C538 1.390 . S
C538 C537 1.390 . S
C538 C539 1.394 . S
C538 C544 1.465 . S
C539 C534 1.399 . S
C539 C538 1.394 . S
C539 C540 1.516 . S
C540 C539 1.516 . S
C540 C541 1.502 . S
C540 C542 1.561 . S
C540 C543 1.526 . S
C541 H525 0.959 . S
C541 H526 0.959 . S
C541 H527 0.961 . S
C541 C540 1.502 . S
C542 H528 0.960 . S
C542 H529 0.961 . S
C542 H530 0.959 . S
C542 C540 1.561 . S
C543 C540 1.526 . S
C543 C544 1.396 . S
C543 C548 1.390 . S
C544 C538 1.465 . S
C544 C543 1.396 . S
C544 C545 1.399 . S
C545 H531 0.929 . S
C545 C544 1.399 . S
C545 C546 1.385 . S
C546 H532 0.931 . S
C546 C545 1.385 . S
C546 C547 1.389 . S
C547 C546 1.389 . S
C547 C548 1.387 . S
C548 H533 0.930 . S
C548 C543 1.390 . S
C548 C547 1.387 . S
H549 C561 0.930 . S
H550 C563 0.930 . S
H551 C564 0.930 . S
H552 C568 0.959 . S
H553 C568 0.959 . S
H554 C568 0.961 . S
H555 C569 0.960 . S
H556 C569 0.961 . S
H557 C569 0.959 . S
H558 C572 0.929 . S
H559 C573 0.931 . S
H560 C575 0.930 . S
C561 H549 0.930 . S
C561 C562 1.399 . S
C561 C566 1.399 . S
C562 C561 1.399 . S
C562 C563 1.376 . S
C563 H550 0.930 . S
C563 C562 1.376 . S
C563 C564 1.388 . S
C564 H551 0.930 . S
C564 C563 1.388 . S
C564 C565 1.390 . S
C565 C564 1.390 . S
C565 C566 1.394 . S
C565 C571 1.465 . S
C566 C561 1.399 . S
C566 C565 1.394 . S
C566 C567 1.516 . S
C567 C566 1.516 . S
C567 C568 1.502 . S
C567 C569 1.561 . S
C567 C570 1.526 . S
C568 H552 0.959 . S
C568 H553 0.959 . S
C568 H554 0.961 . S
C568 C567 1.502 . S
C569 H555 0.960 . S
C569 H556 0.961 . S
C569 H557 0.959 . S
C569 C567 1.561 . S
C570 C567 1.526 . S
C570 C571 1.396 . S
C570 C575 1.390 . S
C571 C565 1.465 . S
C571 C570 1.396 . S
C571 C572 1.399 . S
C572 H558 0.929 . S
C572 C571 1.399 . S
C572 C573 1.385 . S
C573 H559 0.931 . S
C573 C572 1.385 . S
C573 C574 1.389 . S
C574 C573 1.389 . S
C574 C575 1.387 . S
C575 H560 0.930 . S
C575 C570 1.390 . S
C575 C574 1.387 . S
H576 C588 0.930 . S
H577 C590 0.930 . S
H578 C591 0.930 . S
H579 C595 0.959 . S
H580 C595 0.959 . S
H581 C595 0.961 . S
H582 C596 0.960 . S
H583 C596 0.961 . S
H584 C596 0.959 . S
H585 C599 0.929 1_565 S
H586 C600 0.931 . S
H587 C602 0.930 . S
C588 H576 0.930 . S
C588 C589 1.399 . S
C588 C593 1.399 . S
C589 C588 1.399 . S
C589 C590 1.376 . S
C590 H577 0.930 . S
C590 C589 1.376 . S
C590 C591 1.388 . S
C591 H578 0.930 . S
C591 C590 1.388 . S
C591 C592 1.390 . S
C592 C591 1.390 . S
C592 C593 1.394 . S
C592 C598 1.465 1_565 S
C593 C588 1.399 . S
C593 C592 1.394 . S
C593 C594 1.516 1_565 S
C594 C593 1.516 1_545 S
C594 C595 1.502 . S
C594 C596 1.561 . S
C594 C597 1.526 . S
C595 H579 0.959 . S
C595 H580 0.959 . S
C595 H581 0.961 . S
C595 C594 1.502 . S
C596 H582 0.960 . S
C596 H583 0.961 . S
C596 H584 0.959 . S
C596 C594 1.561 . S
C597 C594 1.526 . S
C597 C598 1.396 . S
C597 C602 1.390 . S
C598 C592 1.465 1_545 S
C598 C597 1.396 . S
C598 C599 1.399 . S
C599 H585 0.929 1_545 S
C599 C598 1.399 . S
C599 C600 1.385 . S
C600 H586 0.931 . S
C600 C599 1.385 . S
C600 C601 1.389 . S
C601 C600 1.389 . S
C601 C602 1.387 . S
C602 H587 0.930 . S
C602 C597 1.390 . S
C602 C601 1.387 . S
H603 C615 0.930 . S
H604 C617 0.930 . S
H605 C618 0.930 . S
H606 C622 0.959 . S
H607 C622 0.959 . S
H608 C622 0.961 . S
H609 C623 0.960 . S
H610 C623 0.961 . S
H611 C623 0.959 . S
H612 C626 0.929 . S
H613 C627 0.931 . S
H614 C629 0.930 . S
C615 H603 0.930 . S
C615 C616 1.399 . S
C615 C620 1.399 . S
C616 C615 1.399 . S
C616 C617 1.376 . S
C617 H604 0.930 . S
C617 C616 1.376 . S
C617 C618 1.388 . S
C618 H605 0.930 . S
C618 C617 1.388 . S
C618 C619 1.390 . S
C619 C618 1.390 . S
C619 C620 1.394 . S
C619 C625 1.465 . S
C620 C615 1.399 . S
C620 C619 1.394 . S
C620 C621 1.516 . S
C621 C620 1.516 . S
C621 C622 1.502 . S
C621 C623 1.561 . S
C621 C624 1.526 . S
C622 H606 0.959 . S
C622 H607 0.959 . S
C622 H608 0.961 . S
C622 C621 1.502 . S
C623 H609 0.960 . S
C623 H610 0.961 . S
C623 H611 0.959 . S
C623 C621 1.561 . S
C624 C621 1.526 . S
C624 C625 1.396 . S
C624 C629 1.390 . S
C625 C619 1.465 . S
C625 C624 1.396 . S
C625 C626 1.399 . S
C626 H612 0.929 . S
C626 C625 1.399 . S
C626 C627 1.385 . S
C627 H613 0.931 . S
C627 C626 1.385 . S
C627 C628 1.389 . S
C628 C627 1.389 . S
C628 C629 1.387 . S
C629 H614 0.930 . S
C629 C624 1.390 . S
C629 C628 1.387 . S
H630 C642 0.930 . S
H631 C644 0.930 . S
H632 C645 0.930 . S
H633 C649 0.959 . S
H634 C649 0.959 . S
H635 C649 0.961 . S
H636 C650 1.000 . S
H637 C650 0.957 1_655 S
H638 C650 0.934 1_655 S
H639 C653 0.929 . S
H640 C654 0.931 . S
H641 C656 0.930 . S
C642 H630 0.930 . S
C642 C643 1.399 . S
C642 C647 1.399 . S
C643 C642 1.399 . S
C643 C644 1.376 . S
C644 H631 0.930 . S
C644 C643 1.376 . S
C644 C645 1.388 . S
C645 H632 0.930 . S
C645 C644 1.388 . S
C645 C646 1.390 . S
C646 C645 1.390 . S
C646 C647 1.394 . S
C646 C652 1.465 1_455 S
C647 C642 1.399 . S
C647 C646 1.394 . S
C647 C648 1.516 . S
C648 C647 1.516 . S
C648 C649 1.502 . S
C648 C650 1.552 . S
C648 C651 1.526 1_455 S
C649 H633 0.959 . S
C649 H634 0.959 . S
C649 H635 0.961 . S
C649 C648 1.502 . S
C650 H636 1.000 . S
C650 H637 0.957 1_455 S
C650 H638 0.934 1_455 S
C650 C648 1.552 . S
C651 C648 1.526 1_655 S
C651 C652 1.396 . S
C651 C656 1.390 . S
C652 C646 1.465 1_655 S
C652 C651 1.396 . S
C652 C653 1.399 . S
C653 H639 0.929 . S
C653 C652 1.399 . S
C653 C654 1.385 . S
C654 H640 0.931 . S
C654 C653 1.385 . S
C654 C655 1.389 . S
C655 C654 1.389 . S
C655 C656 1.387 . S
C656 H641 0.930 . S
C656 C651 1.390 . S
C656 C655 1.387 . S
H657 C669 0.930 . S
H658 C671 0.930 . S
H659 C672 0.930 . S
H660 C676 0.959 . S
H661 C676 0.959 . S
H662 C676 0.961 . S
H663 C677 0.960 . S
H664 C677 0.961 . S
H665 C677 0.959 . S
H666 C680 0.929 . S
H667 C681 0.931 . S
H668 C683 0.930 . S
C669 H657 0.930 . S
C669 C670 1.399 . S
C669 C674 1.399 . S
C670 C669 1.399 . S
C670 C671 1.376 . S
C671 H658 0.930 . S
C671 C670 1.376 . S
C671 C672 1.388 . S
C672 H659 0.930 . S
C672 C671 1.388 . S
C672 C673 1.390 . S
C673 C672 1.390 . S
C673 C674 1.394 . S
C673 C679 1.465 1_565 S
C674 C669 1.399 . S
C674 C673 1.394 . S
C674 C675 1.516 1_565 S
C675 C674 1.516 1_545 S
C675 C676 1.502 . S
C675 C677 1.561 . S
C675 C678 1.526 . S
C676 H660 0.959 . S
C676 H661 0.959 . S
C676 H662 0.961 . S
C676 C675 1.502 . S
C677 H663 0.960 . S
C677 H664 0.961 . S
C677 H665 0.959 . S
C677 C675 1.561 . S
C678 C675 1.526 . S
C678 C679 1.396 . S
C678 C683 1.390 . S
C679 C673 1.465 1_545 S
C679 C678 1.396 . S
C679 C680 1.399 . S
C680 H666 0.929 . S
C680 C679 1.399 . S
C680 C681 1.385 . S
C681 H667 0.931 . S
C681 C680 1.385 . S
C681 C682 1.389 . S
C682 C681 1.389 . S
C682 C683 1.387 . S
C683 H668 0.930 . S
C683 C678 1.390 . S
C683 C682 1.387 . S
H684 C696 0.930 . S
H685 C698 0.930 . S
H686 C699 0.930 . S
H687 C703 0.959 . S
H688 C703 0.959 . S
H689 C703 0.961 . S
H690 C704 0.960 . S
H691 C704 0.961 . S
H692 C704 0.959 . S
H693 C707 0.929 . S
H694 C708 0.931 . S
H695 C710 0.930 . S
C696 H684 0.930 . S
C696 C697 1.399 . S
C696 C701 1.399 . S
C697 C696 1.399 . S
C697 C698 1.376 . S
C698 H685 0.930 . S
C698 C697 1.376 . S
C698 C699 1.388 . S
C699 H686 0.930 . S
C699 C698 1.388 . S
C699 C700 1.390 . S
C700 C699 1.390 . S
C700 C701 1.394 . S
C700 C706 1.465 . S
C701 C696 1.399 . S
C701 C700 1.394 . S
C701 C702 1.516 . S
C702 C701 1.516 . S
C702 C703 1.502 . S
C702 C704 1.561 . S
C702 C705 1.526 . S
C703 H687 0.959 . S
C703 H688 0.959 . S
C703 H689 0.961 . S
C703 C702 1.502 . S
C704 H690 0.960 . S
C704 H691 0.961 . S
C704 H692 0.959 . S
C704 C702 1.561 . S
C705 C702 1.526 . S
C705 C706 1.396 . S
C705 C710 1.390 . S
C706 C700 1.465 . S
C706 C705 1.396 . S
C706 C707 1.399 . S
C707 H693 0.929 . S
C707 C706 1.399 . S
C707 C708 1.385 . S
C708 H694 0.931 . S
C708 C707 1.385 . S
C708 C709 1.389 . S
C709 C708 1.389 . S
C709 C710 1.387 . S
C710 H695 0.930 . S
C710 C705 1.390 . S
C710 C709 1.387 . S
H711 C723 0.930 . S
H712 C725 0.930 . S
H713 C726 0.930 . S
H714 C730 0.959 . S
H715 C730 0.959 . S
H716 C730 0.961 . S
H717 C731 0.960 1_655 S
H718 C731 0.961 . S
H719 C731 0.959 . S
H720 C734 0.929 . S
H721 C735 0.931 . S
H722 C737 0.930 . S
C723 H711 0.930 . S
C723 C724 1.399 . S
C723 C728 1.399 . S
C724 C723 1.399 . S
C724 C725 1.376 . S
C725 H712 0.930 . S
C725 C724 1.376 . S
C725 C726 1.388 . S
C726 H713 0.930 . S
C726 C725 1.388 . S
C726 C727 1.390 . S
C727 C726 1.390 . S
C727 C728 1.394 . S
C727 C733 1.465 1_655 S
C728 C723 1.399 . S
C728 C727 1.394 . S
C728 C729 1.516 . S
C729 C728 1.516 . S
C729 C730 1.502 . S
C729 C731 1.561 1_655 S
C729 C732 1.526 1_655 S
C730 H714 0.959 . S
C730 H715 0.959 . S
C730 H716 0.961 . S
C730 C729 1.502 . S
C731 H717 0.960 1_455 S
C731 H718 0.961 . S
C731 H719 0.959 . S
C731 C729 1.561 1_455 S
C732 C729 1.526 1_455 S
C732 C733 1.396 . S
C732 C737 1.390 . S
C733 C727 1.465 1_455 S
C733 C732 1.396 . S
C733 C734 1.399 . S
C734 H720 0.929 . S
C734 C733 1.399 . S
C734 C735 1.385 . S
C735 H721 0.931 . S
C735 C734 1.385 . S
C735 C736 1.389 . S
C736 C735 1.389 . S
C736 C737 1.387 . S
C737 H722 0.930 . S
C737 C732 1.390 . S
C737 C736 1.387 . S
H738 C750 0.930 . S
H739 C752 0.930 . S
H740 C753 0.930 . S
H741 C757 0.959 . S
H742 C757 0.959 . S
H743 C757 0.961 . S
H744 C758 0.960 . S
H745 C758 0.961 . S
H746 C758 0.959 . S
H747 C761 0.929 1_545 S
H748 C762 0.931 . S
H749 C764 0.930 . S
C750 H738 0.930 . S
C750 C751 1.399 . S
C750 C755 1.399 . S
C751 C750 1.399 . S
C751 C752 1.376 . S
C752 H739 0.930 . S
C752 C751 1.376 . S
C752 C753 1.388 . S
C753 H740 0.930 . S
C753 C752 1.388 . S
C753 C754 1.390 . S
C754 C753 1.390 . S
C754 C755 1.394 . S
C754 C760 1.465 1_545 S
C755 C750 1.399 . S
C755 C754 1.394 . S
C755 C756 1.516 1_545 S
C756 C755 1.516 1_565 S
C756 C757 1.502 . S
C756 C758 1.561 . S
C756 C759 1.526 . S
C757 H741 0.959 . S
C757 H742 0.959 . S
C757 H743 0.961 . S
C757 C756 1.502 . S
C758 H744 0.960 . S
C758 H745 0.961 . S
C758 H746 0.959 . S
C758 C756 1.561 . S
C759 C756 1.526 . S
C759 C760 1.396 . S
C759 C764 1.390 . S
C760 C754 1.465 1_565 S
C760 C759 1.396 . S
C760 C761 1.399 . S
C761 H747 0.929 1_565 S
C761 C760 1.399 . S
C761 C762 1.385 . S
C762 H748 0.931 . S
C762 C761 1.385 . S
C762 C763 1.389 . S
C763 C762 1.389 . S
C763 C764 1.387 . S
C764 H749 0.930 . S
C764 C759 1.390 . S
C764 C763 1.387 . S
H765 C777 0.930 . S
H766 C779 0.930 . S
H767 C780 0.930 . S
H768 C784 0.959 . S
H769 C784 0.959 . S
H770 C784 0.961 . S
H771 C785 0.960 . S
H772 C785 0.961 . S
H773 C785 0.959 . S
H774 C788 0.929 . S
H775 C789 0.931 . S
H776 C791 0.930 . S
C777 H765 0.930 . S
C777 C778 1.399 . S
C777 C782 1.399 . S
C778 C777 1.399 . S
C778 C779 1.376 . S
C779 H766 0.930 . S
C779 C778 1.376 . S
C779 C780 1.388 . S
C780 H767 0.930 . S
C780 C779 1.388 . S
C780 C781 1.390 . S
C781 C780 1.390 . S
C781 C782 1.394 . S
C781 C787 1.465 . S
C782 C777 1.399 . S
C782 C781 1.394 . S
C782 C783 1.516 . S
C783 C782 1.516 . S
C783 C784 1.502 . S
C783 C785 1.561 . S
C783 C786 1.526 . S
C784 H768 0.959 . S
C784 H769 0.959 . S
C784 H770 0.961 . S
C784 C783 1.502 . S
C785 H771 0.960 . S
C785 H772 0.961 . S
C785 H773 0.959 . S
C785 C783 1.561 . S
C786 C783 1.526 . S
C786 C787 1.396 . S
C786 C791 1.390 . S
C787 C781 1.465 . S
C787 C786 1.396 . S
C787 C788 1.399 . S
C788 H774 0.929 . S
C788 C787 1.399 . S
C788 C789 1.385 . S
C789 H775 0.931 . S
C789 C788 1.385 . S
C789 C790 1.389 . S
C790 C789 1.389 . S
C790 C791 1.387 . S
C791 H776 0.930 . S
C791 C786 1.390 . S
C791 C790 1.387 . S
H792 C804 0.930 . S
H793 C806 0.930 . S
H794 C807 0.930 . S
H795 C811 0.959 . S
H796 C811 0.959 . S
H797 C811 0.961 . S
H798 C812 0.960 . S
H799 C812 0.961 . S
H800 C812 0.959 . S
H801 C815 0.929 1_655 S
H802 C816 0.931 . S
H803 C818 0.930 . S
C804 H792 0.930 . S
C804 C805 1.399 . S
C804 C809 1.399 . S
C805 C804 1.399 . S
C805 C806 1.376 . S
C806 H793 0.930 . S
C806 C805 1.376 . S
C806 C807 1.388 . S
C807 H794 0.930 . S
C807 C806 1.388 . S
C807 C808 1.390 . S
C808 C807 1.390 . S
C808 C809 1.394 . S
C808 C814 1.465 1_655 S
C809 C804 1.399 . S
C809 C808 1.394 . S
C809 C810 1.516 1_655 S
C810 C809 1.516 1_455 S
C810 C811 1.502 . S
C810 C812 1.561 . S
C810 C813 1.526 . S
C811 H795 0.959 . S
C811 H796 0.959 . S
C811 H797 0.961 . S
C811 C810 1.502 . S
C812 H798 0.960 . S
C812 H799 0.961 . S
C812 H800 0.959 . S
C812 C810 1.561 . S
C813 C810 1.526 . S
C813 C814 1.396 . S
C813 C818 1.390 . S
C814 C808 1.465 1_455 S
C814 C813 1.396 . S
C814 C815 1.399 . S
C815 H801 0.929 1_455 S
C815 C814 1.399 . S
C815 C816 1.385 . S
C816 H802 0.931 . S
C816 C815 1.385 . S
C816 C817 1.389 . S
C817 C816 1.389 . S
C817 C818 1.387 . S
C818 H803 0.930 . S
C818 C813 1.390 . S
C818 C817 1.387 . S
H819 C831 0.930 . S
H820 C833 0.930 . S
H821 C834 0.930 1_545 S
H822 C838 0.959 . S
H823 C838 0.959 . S
H824 C838 0.961 . S
H825 C839 0.960 . S
H826 C839 0.961 . S
H827 C839 0.959 . S
H828 C842 0.929 . S
H829 C843 0.931 . S
H830 C845 0.930 . S
C831 H819 0.930 . S
C831 C832 1.399 . S
C831 C836 1.399 . S
C832 C831 1.399 . S
C832 C833 1.376 . S
C833 H820 0.930 . S
C833 C832 1.376 . S
C833 C834 1.388 . S
C834 H821 0.930 1_565 S
C834 C833 1.388 . S
C834 C835 1.390 . S
C835 C834 1.390 . S
C835 C836 1.394 . S
C835 C841 1.465 1_565 S
C836 C831 1.399 . S
C836 C835 1.394 . S
C836 C837 1.516 . S
C837 C836 1.516 . S
C837 C838 1.502 . S
C837 C839 1.561 . S
C837 C840 1.526 1_565 S
C838 H822 0.959 . S
C838 H823 0.959 . S
C838 H824 0.961 . S
C838 C837 1.502 . S
C839 H825 0.960 . S
C839 H826 0.961 . S
C839 H827 0.959 . S
C839 C837 1.561 . S
C840 C837 1.526 1_545 S
C840 C841 1.396 . S
C840 C845 1.390 . S
C841 C835 1.465 1_545 S
C841 C840 1.396 . S
C841 C842 1.399 . S
C842 H828 0.929 . S
C842 C841 1.399 . S
C842 C843 1.385 . S
C843 H829 0.931 . S
C843 C842 1.385 . S
C843 C844 1.389 . S
C844 C843 1.389 . S
C844 C845 1.387 . S
C845 H830 0.930 . S
C845 C840 1.390 . S
C845 C844 1.387 . S
H846 C858 0.930 . S
H847 C860 0.930 . S
H848 C861 0.930 . S
H849 C865 0.959 . S
H850 C865 0.959 . S
H851 C865 0.961 . S
H852 C866 0.960 . S
H853 C866 0.961 . S
H854 C866 0.959 . S
H855 C869 0.929 . S
H856 C870 0.931 . S
H857 C872 0.930 . S
C858 H846 0.930 . S
C858 C859 1.399 . S
C858 C863 1.399 . S
C859 C858 1.399 . S
C859 C860 1.376 . S
C860 H847 0.930 . S
C860 C859 1.376 . S
C860 C861 1.388 . S
C861 H848 0.930 . S
C861 C860 1.388 . S
C861 C862 1.390 . S
C862 C861 1.390 . S
C862 C863 1.394 . S
C862 C868 1.465 . S
C863 C858 1.399 . S
C863 C862 1.394 . S
C863 C864 1.516 . S
C864 C863 1.516 . S
C864 C865 1.502 . S
C864 C866 1.561 . S
C864 C867 1.526 . S
C865 H849 0.959 . S
C865 H850 0.959 . S
C865 H851 0.961 . S
C865 C864 1.502 . S
C866 H852 0.960 . S
C866 H853 0.961 . S
C866 H854 0.959 . S
C866 C864 1.561 . S
C867 C864 1.526 . S
C867 C868 1.396 . S
C867 C872 1.390 . S
C868 C862 1.465 . S
C868 C867 1.396 . S
C868 C869 1.399 . S
C869 H855 0.929 . S
C869 C868 1.399 . S
C869 C870 1.385 . S
C870 H856 0.931 . S
C870 C869 1.385 . S
C870 C871 1.389 . S
C871 C870 1.389 . S
C871 C872 1.387 . S
C872 H857 0.930 . S
C872 C867 1.390 . S
C872 C871 1.387 . S
H873 C885 0.930 . S
H874 C887 0.930 . S
H875 C888 0.930 . S
H876 C892 0.959 1_655 S
H877 C892 0.959 . S
H878 C892 0.961 1_655 S
H879 C893 0.960 . S
H880 C893 0.961 . S
H881 C893 0.959 . S
H882 C896 0.929 . S
H883 C897 0.931 . S
H884 C899 0.930 . S
C885 H873 0.930 . S
C885 C886 1.399 . S
C885 C890 1.399 . S
C886 C885 1.399 . S
C886 C887 1.376 . S
C887 H874 0.930 . S
C887 C886 1.376 . S
C887 C888 1.388 . S
C888 H875 0.930 . S
C888 C887 1.388 . S
C888 C889 1.390 . S
C889 C888 1.390 . S
C889 C890 1.394 . S
C889 C895 1.465 1_655 S
C890 C885 1.399 . S
C890 C889 1.394 . S
C890 C891 1.516 1_655 S
C891 C890 1.516 1_455 S
C891 C892 1.502 . S
C891 C893 1.561 . S
C891 C894 1.526 . S
C892 H876 0.959 1_455 S
C892 H877 0.959 . S
C892 H878 0.961 1_455 S
C892 C891 1.502 . S
C893 H879 0.960 . S
C893 H880 0.961 . S
C893 H881 0.959 . S
C893 C891 1.561 . S
C894 C891 1.526 . S
C894 C895 1.396 . S
C894 C899 1.390 . S
C895 C889 1.465 1_455 S
C895 C894 1.396 . S
C895 C896 1.399 . S
C896 H882 0.929 . S
C896 C895 1.399 . S
C896 C897 1.385 . S
C897 H883 0.931 . S
C897 C896 1.385 . S
C897 C898 1.389 . S
C898 C897 1.389 . S
C898 C899 1.387 . S
C899 H884 0.930 . S
C899 C894 1.390 . S
C899 C898 1.387 . S
H900 C912 0.930 . S
H901 C914 0.930 . S
H902 C915 0.930 . S
H903 C919 0.959 . S
H904 C919 0.959 . S
H905 C919 0.961 . S
H906 C920 0.960 . S
H907 C920 0.961 . S
H908 C920 0.959 . S
H909 C923 0.929 . S
H910 C924 0.931 . S
H911 C926 0.930 . S
C912 H900 0.930 . S
C912 C913 1.399 . S
C912 C917 1.399 . S
C913 C912 1.399 . S
C913 C914 1.376 . S
C914 H901 0.930 . S
C914 C913 1.376 . S
C914 C915 1.388 . S
C915 H902 0.930 . S
C915 C914 1.388 . S
C915 C916 1.390 . S
C916 C915 1.390 . S
C916 C917 1.394 . S
C916 C922 1.465 . S
C917 C912 1.399 . S
C917 C916 1.394 . S
C917 C918 1.516 . S
C918 C917 1.516 . S
C918 C919 1.502 . S
C918 C920 1.561 . S
C918 C921 1.526 . S
C919 H903 0.959 . S
C919 H904 0.959 . S
C919 H905 0.961 . S
C919 C918 1.502 . S
C920 H906 0.960 . S
C920 H907 0.961 . S
C920 H908 0.959 . S
C920 C918 1.561 . S
C921 C918 1.526 . S
C921 C922 1.396 . S
C921 C926 1.390 . S
C922 C916 1.465 . S
C922 C921 1.396 . S
C922 C923 1.399 . S
C923 H909 0.929 . S
C923 C922 1.399 . S
C923 C924 1.385 . S
C924 H910 0.931 . S
C924 C923 1.385 . S
C924 C925 1.389 . S
C925 C924 1.389 . S
C925 C926 1.387 . S
C926 H911 0.930 . S
C926 C921 1.390 . S
C926 C925 1.387 . S
H927 C939 0.930 . S
H928 C941 0.930 . S
H929 C942 0.930 . S
H930 C946 0.959 . S
H931 C946 0.959 . S
H932 C946 0.961 . S
H933 C947 0.960 . S
H934 C947 0.961 . S
H935 C947 0.959 . S
H936 C950 0.929 . S
H937 C951 0.931 . S
H938 C953 0.930 . S
C939 H927 0.930 . S
C939 C940 1.399 . S
C939 C944 1.399 . S
C940 C939 1.399 . S
C940 C941 1.376 . S
C941 H928 0.930 . S
C941 C940 1.376 . S
C941 C942 1.388 . S
C942 H929 0.930 . S
C942 C941 1.388 . S
C942 C943 1.390 . S
C943 C942 1.390 . S
C943 C944 1.394 . S
C943 C949 1.465 . S
C944 C939 1.399 . S
C944 C943 1.394 . S
C944 C945 1.516 . S
C945 C944 1.516 . S
C945 C946 1.502 . S
C945 C947 1.561 . S
C945 C948 1.526 . S
C946 H930 0.959 . S
C946 H931 0.959 . S
C946 H932 0.961 . S
C946 C945 1.502 . S
C947 H933 0.960 . S
C947 H934 0.961 . S
C947 H935 0.959 . S
C947 C945 1.561 . S
C948 C945 1.526 . S
C948 C949 1.396 . S
C948 C953 1.390 . S
C949 C943 1.465 . S
C949 C948 1.396 . S
C949 C950 1.399 . S
C950 H936 0.929 . S
C950 C949 1.399 . S
C950 C951 1.385 . S
C951 H937 0.931 . S
C951 C950 1.385 . S
C951 C952 1.389 . S
C952 C951 1.389 . S
C952 C953 1.387 . S
C953 H938 0.930 . S
C953 C948 1.390 . S
C953 C952 1.387 . S
H954 C966 0.930 . S
H955 C968 0.930 . S
H956 C969 0.930 . S
H957 C973 0.959 . S
H958 C973 0.959 . S
H959 C973 0.961 . S
H960 C974 0.960 . S
H961 C974 0.961 . S
H962 C974 0.959 . S
H963 C977 0.929 . S
H964 C978 0.931 . S
H965 C980 0.930 . S
C966 H954 0.930 . S
C966 C967 1.399 . S
C966 C971 1.399 . S
C967 C966 1.399 . S
C967 C968 1.376 . S
C968 H955 0.930 . S
C968 C967 1.376 . S
C968 C969 1.388 . S
C969 H956 0.930 . S
C969 C968 1.388 . S
C969 C970 1.390 . S
C970 C969 1.390 . S
C970 C971 1.394 . S
C970 C976 1.465 . S
C971 C966 1.399 . S
C971 C970 1.394 . S
C971 C972 1.516 . S
C972 C971 1.516 . S
C972 C973 1.502 . S
C972 C974 1.561 . S
C972 C975 1.526 . S
C973 H957 0.959 . S
C973 H958 0.959 . S
C973 H959 0.961 . S
C973 C972 1.502 . S
C974 H960 0.960 . S
C974 H961 0.961 . S
C974 H962 0.959 . S
C974 C972 1.561 . S
C975 C972 1.526 . S
C975 C976 1.396 . S
C975 C980 1.390 . S
C976 C970 1.465 . S
C976 C975 1.396 . S
C976 C977 1.399 . S
C977 H963 0.929 . S
C977 C976 1.399 . S
C977 C978 1.385 . S
C978 H964 0.931 . S
C978 C977 1.385 . S
C978 C979 1.389 . S
C979 C978 1.389 . S
C979 C980 1.387 . S
C980 H965 0.930 . S
C980 C975 1.390 . S
C980 C979 1.387 . S
H981 C993 0.930 . S
H982 C995 0.930 . S
H983 C996 0.930 . S
H984 C1000 0.959 . S
H985 C1000 0.959 . S
H986 C1000 0.961 . S
H987 C1001 0.960 . S
H988 C1001 0.961 . S
H989 C1001 0.959 . S
H990 C1004 0.929 . S
H991 C1005 0.931 . S
H992 C1007 0.930 . S
C993 H981 0.930 . S
C993 C994 1.399 . S
C993 C998 1.399 . S
C994 C993 1.399 . S
C994 C995 1.376 . S
C995 H982 0.930 . S
C995 C994 1.376 . S
C995 C996 1.388 . S
C996 H983 0.930 . S
C996 C995 1.388 . S
C996 C997 1.390 . S
C997 C996 1.390 . S
C997 C998 1.394 . S
C997 C1003 1.465 . S
C998 C993 1.399 . S
C998 C997 1.394 . S
C998 C999 1.516 . S
C999 C998 1.516 . S
C999 C1000 1.502 . S
C999 C1001 1.561 . S
C999 C1002 1.526 . S
C1000 H984 0.959 . S
C1000 H985 0.959 . S
C1000 H986 0.961 . S
C1000 C999 1.502 . S
C1001 H987 0.960 . S
C1001 H988 0.961 . S
C1001 H989 0.959 . S
C1001 C999 1.561 . S
C1002 C999 1.526 . S
C1002 C1003 1.396 . S
C1002 C1007 1.390 . S
C1003 C997 1.465 . S
C1003 C1002 1.396 . S
C1003 C1004 1.399 . S
C1004 H990 0.929 . S
C1004 C1003 1.399 . S
C1004 C1005 1.385 . S
C1005 H991 0.931 . S
C1005 C1004 1.385 . S
C1005 C1006 1.389 . S
C1006 C1005 1.389 . S
C1006 C1007 1.387 . S
C1007 H992 0.930 . S
C1007 C1002 1.390 . S
C1007 C1006 1.387 . S
H1008 C1020 0.930 . S
H1009 C1022 0.930 . S
H1010 C1023 0.930 . S
H1011 C1027 0.959 . S
H1012 C1027 0.959 . S
H1013 C1027 0.961 . S
H1014 C1028 0.960 . S
H1015 C1028 0.961 . S
H1016 C1028 0.959 . S
H1017 C1031 0.929 . S
H1018 C1032 0.931 . S
H1019 C1034 0.930 . S
C1020 H1008 0.930 . S
C1020 C1021 1.399 . S
C1020 C1025 1.399 . S
C1021 C1020 1.399 . S
C1021 C1022 1.376 . S
C1022 H1009 0.930 . S
C1022 C1021 1.376 . S
C1022 C1023 1.388 . S
C1023 H1010 0.930 . S
C1023 C1022 1.388 . S
C1023 C1024 1.390 . S
C1024 C1023 1.390 . S
C1024 C1025 1.394 . S
C1024 C1030 1.465 . S
C1025 C1020 1.399 . S
C1025 C1024 1.394 . S
C1025 C1026 1.516 . S
C1026 C1025 1.516 . S
C1026 C1027 1.502 . S
C1026 C1028 1.561 . S
C1026 C1029 1.526 . S
C1027 H1011 0.959 . S
C1027 H1012 0.959 . S
C1027 H1013 0.961 . S
C1027 C1026 1.502 . S
C1028 H1014 0.960 . S
C1028 H1015 0.961 . S
C1028 H1016 0.959 . S
C1028 C1026 1.561 . S
C1029 C1026 1.526 . S
C1029 C1030 1.396 . S
C1029 C1034 1.390 . S
C1030 C1024 1.465 . S
C1030 C1029 1.396 . S
C1030 C1031 1.399 . S
C1031 H1017 0.929 . S
C1031 C1030 1.399 . S
C1031 C1032 1.385 . S
C1032 H1018 0.931 . S
C1032 C1031 1.385 . S
C1032 C1033 1.389 . S
C1033 C1032 1.389 . S
C1033 C1034 1.387 . S
C1034 H1019 0.930 . S
C1034 C1029 1.390 . S
C1034 C1033 1.387 . S
H1035 C1047 0.930 . S
H1036 C1049 0.930 . S
H1037 C1050 0.930 . S
H1038 C1054 0.959 . S
H1039 C1054 0.959 . S
H1040 C1054 0.961 . S
H1041 C1055 0.960 . S
H1042 C1055 0.961 . S
H1043 C1055 0.959 . S
H1044 C1058 0.929 . S
H1045 C1059 0.931 . S
H1046 C1061 0.930 . S
C1047 H1035 0.930 . S
C1047 C1048 1.399 . S
C1047 C1052 1.399 . S
C1048 C1047 1.399 . S
C1048 C1049 1.376 . S
C1049 H1036 0.930 . S
C1049 C1048 1.376 . S
C1049 C1050 1.388 . S
C1050 H1037 0.930 . S
C1050 C1049 1.388 . S
C1050 C1051 1.390 . S
C1051 C1050 1.390 . S
C1051 C1052 1.394 . S
C1051 C1057 1.465 . S
C1052 C1047 1.399 . S
C1052 C1051 1.394 . S
C1052 C1053 1.516 . S
C1053 C1052 1.516 . S
C1053 C1054 1.502 . S
C1053 C1055 1.561 . S
C1053 C1056 1.526 . S
C1054 H1038 0.959 . S
C1054 H1039 0.959 . S
C1054 H1040 0.961 . S
C1054 C1053 1.502 . S
C1055 H1041 0.960 . S
C1055 H1042 0.961 . S
C1055 H1043 0.959 . S
C1055 C1053 1.561 . S
C1056 C1053 1.526 . S
C1056 C1057 1.396 . S
C1056 C1061 1.390 . S
C1057 C1051 1.465 . S
C1057 C1056 1.396 . S
C1057 C1058 1.399 . S
C1058 H1044 0.929 . S
C1058 C1057 1.399 . S
C1058 C1059 1.385 . S
C1059 H1045 0.931 . S
C1059 C1058 1.385 . S
C1059 C1060 1.389 . S
C1060 C1059 1.389 . S
C1060 C1061 1.387 . S
C1061 H1046 0.930 . S
C1061 C1056 1.390 . S
C1061 C1060 1.387 . S
H1062 C1074 0.930 . S
H1063 C1076 0.930 . S
H1064 C1077 0.930 . S
H1065 C1081 0.959 . S
H1066 C1081 0.959 . S
H1067 C1081 0.961 . S
H1068 C1082 0.960 . S
H1069 C1082 0.961 . S
H1070 C1082 0.959 . S
H1071 C1085 0.929 . S
H1072 C1086 0.931 . S
H1073 C1088 0.930 . S
C1074 H1062 0.930 . S
C1074 C1075 1.399 . S
C1074 C1079 1.399 . S
C1075 C1074 1.399 . S
C1075 C1076 1.376 . S
C1076 H1063 0.930 . S
C1076 C1075 1.376 . S
C1076 C1077 1.388 . S
C1077 H1064 0.930 . S
C1077 C1076 1.388 . S
C1077 C1078 1.390 . S
C1078 C1077 1.390 . S
C1078 C1079 1.394 . S
C1078 C1084 1.465 . S
C1079 C1074 1.399 . S
C1079 C1078 1.394 . S
C1079 C1080 1.516 . S
C1080 C1079 1.516 . S
C1080 C1081 1.502 . S
C1080 C1082 1.561 . S
C1080 C1083 1.526 . S
C1081 H1065 0.959 . S
C1081 H1066 0.959 . S
C1081 H1067 0.961 . S
C1081 C1080 1.502 . S
C1082 H1068 0.960 . S
C1082 H1069 0.961 . S
C1082 H1070 0.959 . S
C1082 C1080 1.561 . S
C1083 C1080 1.526 . S
C1083 C1084 1.396 . S
C1083 C1088 1.390 . S
C1084 C1078 1.465 . S
C1084 C1083 1.396 . S
C1084 C1085 1.399 . S
C1085 H1071 0.929 . S
C1085 C1084 1.399 . S
C1085 C1086 1.385 . S
C1086 H1072 0.931 . S
C1086 C1085 1.385 . S
C1086 C1087 1.389 . S
C1087 C1086 1.389 . S
C1087 C1088 1.387 . S
C1088 H1073 0.930 . S
C1088 C1083 1.390 . S
C1088 C1087 1.387 . S
H1089 C1101 0.930 . S
H1090 C1103 0.930 . S
H1091 C1104 0.930 . S
H1092 C1108 0.959 . S
H1093 C1108 0.959 . S
H1094 C1108 0.961 . S
H1095 C1109 0.960 . S
H1096 C1109 0.961 . S
H1097 C1109 0.959 . S
H1098 C1112 0.929 . S
H1099 C1113 0.931 . S
H1100 C1115 0.930 . S
C1101 H1089 0.930 . S
C1101 C1102 1.399 . S
C1101 C1106 1.399 . S
C1102 C1101 1.399 . S
C1102 C1103 1.376 . S
C1103 H1090 0.930 . S
C1103 C1102 1.376 . S
C1103 C1104 1.388 . S
C1104 H1091 0.930 . S
C1104 C1103 1.388 . S
C1104 C1105 1.390 . S
C1105 C1104 1.390 . S
C1105 C1106 1.394 . S
C1105 C1111 1.465 . S
C1106 C1101 1.399 . S
C1106 C1105 1.394 . S
C1106 C1107 1.516 . S
C1107 C1106 1.516 . S
C1107 C1108 1.502 . S
C1107 C1109 1.561 . S
C1107 C1110 1.526 . S
C1108 H1092 0.959 . S
C1108 H1093 0.959 . S
C1108 H1094 0.961 . S
C1108 C1107 1.502 . S
C1109 H1095 0.960 . S
C1109 H1096 0.961 . S
C1109 H1097 0.959 . S
C1109 C1107 1.561 . S
C1110 C1107 1.526 . S
C1110 C1111 1.396 . S
C1110 C1115 1.390 . S
C1111 C1105 1.465 . S
C1111 C1110 1.396 . S
C1111 C1112 1.399 . S
C1112 H1098 0.929 . S
C1112 C1111 1.399 . S
C1112 C1113 1.385 . S
C1113 H1099 0.931 . S
C1113 C1112 1.385 . S
C1113 C1114 1.389 . S
C1114 C1113 1.389 . S
C1114 C1115 1.387 . S
C1115 H1100 0.930 . S
C1115 C1110 1.390 . S
C1115 C1114 1.387 . S
H1116 C1128 0.930 . S
H1117 C1130 0.930 . S
H1118 C1131 0.930 . S
H1119 C1135 0.959 . S
H1120 C1135 0.959 . S
H1121 C1135 0.961 . S
H1122 C1136 0.960 . S
H1123 C1136 0.961 . S
H1124 C1136 0.959 . S
H1125 C1139 0.929 . S
H1126 C1140 0.931 . S
H1127 C1142 0.930 . S
C1128 H1116 0.930 . S
C1128 C1129 1.399 . S
C1128 C1133 1.399 . S
C1129 C1128 1.399 . S
C1129 C1130 1.376 . S
C1130 H1117 0.930 . S
C1130 C1129 1.376 . S
C1130 C1131 1.388 . S
C1131 H1118 0.930 . S
C1131 C1130 1.388 . S
C1131 C1132 1.390 . S
C1132 C1131 1.390 . S
C1132 C1133 1.394 . S
C1132 C1138 1.465 . S
C1133 C1128 1.399 . S
C1133 C1132 1.394 . S
C1133 C1134 1.516 . S
C1134 C1133 1.516 . S
C1134 C1135 1.502 . S
C1134 C1136 1.561 . S
C1134 C1137 1.526 . S
C1135 H1119 0.959 . S
C1135 H1120 0.959 . S
C1135 H1121 0.961 . S
C1135 C1134 1.502 . S
C1136 H1122 0.960 . S
C1136 H1123 0.961 . S
C1136 H1124 0.959 . S
C1136 C1134 1.561 . S
C1137 C1134 1.526 . S
C1137 C1138 1.396 . S
C1137 C1142 1.390 . S
C1138 C1132 1.465 . S
C1138 C1137 1.396 . S
C1138 C1139 1.399 . S
C1139 H1125 0.929 . S
C1139 C1138 1.399 . S
C1139 C1140 1.385 . S
C1140 H1126 0.931 . S
C1140 C1139 1.385 . S
C1140 C1141 1.389 . S
C1141 C1140 1.389 . S
C1141 C1142 1.387 . S
C1142 H1127 0.930 . S
C1142 C1137 1.390 . S
C1142 C1141 1.387 . S
H1143 C1155 0.930 . S
H1144 C1157 0.930 . S
H1145 C1158 0.930 . S
H1146 C1162 0.959 . S
H1147 C1162 0.959 . S
H1148 C1162 0.961 . S
H1149 C1163 0.960 . S
H1150 C1163 0.961 . S
H1151 C1163 0.959 . S
H1152 C1166 0.929 . S
H1153 C1167 0.931 . S
H1154 C1169 0.930 . S
C1155 H1143 0.930 . S
C1155 C1156 1.399 . S
C1155 C1160 1.399 . S
C1156 C1155 1.399 . S
C1156 C1157 1.376 . S
C1157 H1144 0.930 . S
C1157 C1156 1.376 . S
C1157 C1158 1.388 . S
C1158 H1145 0.930 . S
C1158 C1157 1.388 . S
C1158 C1159 1.390 . S
C1159 C1158 1.390 . S
C1159 C1160 1.394 . S
C1159 C1165 1.465 . S
C1160 C1155 1.399 . S
C1160 C1159 1.394 . S
C1160 C1161 1.516 . S
C1161 C1160 1.516 . S
C1161 C1162 1.502 . S
C1161 C1163 1.561 . S
C1161 C1164 1.526 . S
C1162 H1146 0.959 . S
C1162 H1147 0.959 . S
C1162 H1148 0.961 . S
C1162 C1161 1.502 . S
C1163 H1149 0.960 . S
C1163 H1150 0.961 . S
C1163 H1151 0.959 . S
C1163 C1161 1.561 . S
C1164 C1161 1.526 . S
C1164 C1165 1.396 . S
C1164 C1169 1.390 . S
C1165 C1159 1.465 . S
C1165 C1164 1.396 . S
C1165 C1166 1.399 . S
C1166 H1152 0.929 . S
C1166 C1165 1.399 . S
C1166 C1167 1.385 . S
C1167 H1153 0.931 . S
C1167 C1166 1.385 . S
C1167 C1168 1.389 . S
C1168 C1167 1.389 . S
C1168 C1169 1.387 . S
C1169 H1154 0.930 . S
C1169 C1164 1.390 . S
C1169 C1168 1.387 . S
H1170 C1182 0.930 . S
H1171 C1184 0.930 . S
H1172 C1185 0.930 . S
H1173 C1189 0.959 . S
H1174 C1189 0.959 . S
H1175 C1189 0.961 . S
H1176 C1190 0.960 . S
H1177 C1190 0.961 . S
H1178 C1190 0.959 . S
H1179 C1193 0.929 . S
H1180 C1194 0.931 . S
H1181 C1196 0.930 . S
C1182 H1170 0.930 . S
C1182 C1183 1.399 . S
C1182 C1187 1.399 . S
C1183 C1182 1.399 . S
C1183 C1184 1.376 . S
C1184 H1171 0.930 . S
C1184 C1183 1.376 . S
C1184 C1185 1.388 . S
C1185 H1172 0.930 . S
C1185 C1184 1.388 . S
C1185 C1186 1.390 . S
C1186 C1185 1.390 . S
C1186 C1187 1.394 . S
C1186 C1192 1.465 . S
C1187 C1182 1.399 . S
C1187 C1186 1.394 . S
C1187 C1188 1.516 . S
C1188 C1187 1.516 . S
C1188 C1189 1.502 . S
C1188 C1190 1.561 . S
C1188 C1191 1.526 . S
C1189 H1173 0.959 . S
C1189 H1174 0.959 . S
C1189 H1175 0.961 . S
C1189 C1188 1.502 . S
C1190 H1176 0.960 . S
C1190 H1177 0.961 . S
C1190 H1178 0.959 . S
C1190 C1188 1.561 . S
C1191 C1188 1.526 . S
C1191 C1192 1.396 . S
C1191 C1196 1.390 . S
C1192 C1186 1.465 . S
C1192 C1191 1.396 . S
C1192 C1193 1.399 . S
C1193 H1179 0.929 . S
C1193 C1192 1.399 . S
C1193 C1194 1.385 . S
C1194 H1180 0.931 . S
C1194 C1193 1.385 . S
C1194 C1195 1.389 . S
C1195 C1194 1.389 . S
C1195 C1196 1.387 . S
C1196 H1181 0.930 . S
C1196 C1191 1.390 . S
C1196 C1195 1.387 . S
H1197 C1209 0.930 . S
H1198 C1211 0.930 . S
H1199 C1212 0.930 . S
H1200 C1216 0.959 . S
H1201 C1216 0.959 . S
H1202 C1216 0.961 . S
H1203 C1217 0.960 . S
H1204 C1217 0.961 . S
H1205 C1217 0.959 . S
H1206 C1220 0.929 . S
H1207 C1221 0.931 . S
H1208 C1223 0.930 . S
C1209 H1197 0.930 . S
C1209 C1210 1.399 . S
C1209 C1214 1.399 . S
C1210 C1209 1.399 . S
C1210 C1211 1.376 . S
C1211 H1198 0.930 . S
C1211 C1210 1.376 . S
C1211 C1212 1.388 . S
C1212 H1199 0.930 . S
C1212 C1211 1.388 . S
C1212 C1213 1.390 . S
C1213 C1212 1.390 . S
C1213 C1214 1.394 . S
C1213 C1219 1.465 . S
C1214 C1209 1.399 . S
C1214 C1213 1.394 . S
C1214 C1215 1.516 . S
C1215 C1214 1.516 . S
C1215 C1216 1.502 . S
C1215 C1217 1.561 . S
C1215 C1218 1.526 . S
C1216 H1200 0.959 . S
C1216 H1201 0.959 . S
C1216 H1202 0.961 . S
C1216 C1215 1.502 . S
C1217 H1203 0.960 . S
C1217 H1204 0.961 . S
C1217 H1205 0.959 . S
C1217 C1215 1.561 . S
C1218 C1215 1.526 . S
C1218 C1219 1.396 . S
C1218 C1223 1.390 . S
C1219 C1213 1.465 . S
C1219 C1218 1.396 . S
C1219 C1220 1.399 . S
C1220 H1206 0.929 . S
C1220 C1219 1.399 . S
C1220 C1221 1.385 . S
C1221 H1207 0.931 . S
C1221 C1220 1.385 . S
C1221 C1222 1.389 . S
C1222 C1221 1.389 . S
C1222 C1223 1.387 . S
C1223 H1208 0.930 . S
C1223 C1218 1.390 . S
C1223 C1222 1.387 . S
C265 C20 1.009 . S
C277 C187 0.942 . S
C292 C209 0.891 . S
C304 C40 1.058 . S
C319 C62 0.902 . S
C331 C229 1.058 . S
C346 C251 0.986 . S
C358 C82 0.964 . S
C373 C104 1.056 . S
C385 C145 0.895 . S
C400 C167 0.891 . S
C412 C124 1.065 . S
C427 C250 1.086 . S
C439 C83 1.193 . S
C454 C103 1.179 . S
C466 C146 1.097 . S
C481 C166 1.081 . S
C493 C125 1.204 . S
C508 C188 1.219 . S
C520 C19 1.142 . S
C535 C208 1.179 . S
C547 C41 1.097 . S
C562 C61 1.126 . S
C574 C230 1.226 . S
C589 C151 1.166 . S
C601 C4 1.290 . S
C616 C175 1.315 . S
C628 C28 1.190 . S
C643 C193 1.271 . S
C655 C46 1.167 . S
C670 C70 1.175 . S
C682 C217 1.245 . S
C697 C88 1.291 . S
C709 C235 1.266 . S
C724 C133 1.251 . S
C736 C112 1.174 . S
C751 C213 0.885 . S
C763 C66 1.056 . S
C778 C100 0.946 . S
C790 C247 0.936 . S
C805 C129 0.870 . S
C817 C108 1.042 . S
C832 C163 1.032 . S
C844 C16 0.875 . S
C859 C24 1.053 . S
C871 C171 0.877 . S
C886 C58 0.984 . S
C898 C205 1.007 . S
C913 C3 1.380 . S
C925 C226 1.302 . S
C940 C37 1.274 . S
C952 C234 1.397 . S
C967 C142 1.398 . S
C979 C45 1.275 . S
C994 C150 1.290 . S
C1006 C79 1.378 . S
C1021 C87 1.370 . S
C1033 C184 1.314 . S
C1048 C192 1.285 . S
C1060 C121 1.392 . S
C1075 C67 1.429 . S
C1087 C154 1.479 . S
C1102 C91 1.451 . S
C1114 C172 1.462 . S
C1129 C196 1.495 . S
C1141 C109 1.398 . S
C1156 C214 1.415 . S
C1168 C7 1.488 . S
C1183 C238 1.473 . S
C1195 C25 1.439 . S
C1210 C130 1.380 . S
C1222 C49 1.494 . S
