# Generated by pormake.
# Topology whw, (6)-cn, num edge types: 1
# Building blocks:
#     Node 0, Type 0, BuildingBlock: CUWYAW_clean_sbu_0, # of connection points: 6
#     Node 1, Type 0, BuildingBlock: CUWYAW_clean_sbu_0, # of connection points: 6
#     Node 2, Type 0, BuildingBlock: CUWYAW_clean_sbu_0, # of connection points: 6
#     Node 3, Type 0, BuildingBlock: CUWYAW_clean_sbu_0, # of connection points: 6
#     Node 4, Type 0, BuildingBlock: CUWYAW_clean_sbu_0, # of connection points: 6
#     Node 5, Type 0, BuildingBlock: CUWYAW_clean_sbu_0, # of connection points: 6
#     Node 6, Type 0, BuildingBlock: CUWYAW_clean_sbu_0, # of connection points: 6
#     Node 7, Type 0, BuildingBlock: CUWYAW_clean_sbu_0, # of connection points: 6
#     Node 8, Type 0, BuildingBlock: CUWYAW_clean_sbu_0, # of connection points: 6
#     Node 9, Type 0, BuildingBlock: CUWYAW_clean_sbu_0, # of connection points: 6
#     Node 10, Type 0, BuildingBlock: CUWYAW_clean_sbu_0, # of connection points: 6
#     Node 11, Type 0, BuildingBlock: CUWYAW_clean_sbu_0, # of connection points: 6
#     Node 12, Type 0, BuildingBlock: CUWYAW_clean_sbu_0, # of connection points: 6
#     Node 13, Type 0, BuildingBlock: CUWYAW_clean_sbu_0, # of connection points: 6
#     Node 14, Type 0, BuildingBlock: CUWYAW_clean_sbu_0, # of connection points: 6
#     Node 15, Type 0, BuildingBlock: CUWYAW_clean_sbu_0, # of connection points: 6
#     Edge 16, Type (0, 0), BuildingBlock: XIVTED_clean_linker_0, # of connection points: 2
#     Edge 17, Type (0, 0), BuildingBlock: XIVTED_clean_linker_0, # of connection points: 2
#     Edge 18, Type (0, 0), BuildingBlock: XIVTED_clean_linker_0, # of connection points: 2
#     Edge 19, Type (0, 0), BuildingBlock: XIVTED_clean_linker_0, # of connection points: 2
#     Edge 20, Type (0, 0), BuildingBlock: XIVTED_clean_linker_0, # of connection points: 2
#     Edge 21, Type (0, 0), BuildingBlock: XIVTED_clean_linker_0, # of connection points: 2
#     Edge 22, Type (0, 0), BuildingBlock: XIVTED_clean_linker_0, # of connection points: 2
#     Edge 23, Type (0, 0), BuildingBlock: XIVTED_clean_linker_0, # of connection points: 2
#     Edge 24, Type (0, 0), BuildingBlock: XIVTED_clean_linker_0, # of connection points: 2
#     Edge 25, Type (0, 0), BuildingBlock: XIVTED_clean_linker_0, # of connection points: 2
#     Edge 26, Type (0, 0), BuildingBlock: XIVTED_clean_linker_0, # of connection points: 2
#     Edge 27, Type (0, 0), BuildingBlock: XIVTED_clean_linker_0, # of connection points: 2
#     Edge 28, Type (0, 0), BuildingBlock: XIVTED_clean_linker_0, # of connection points: 2
#     Edge 29, Type (0, 0), BuildingBlock: XIVTED_clean_linker_0, # of connection points: 2
#     Edge 30, Type (0, 0), BuildingBlock: XIVTED_clean_linker_0, # of connection points: 2
#     Edge 31, Type (0, 0), BuildingBlock: XIVTED_clean_linker_0, # of connection points: 2
#     Edge 32, Type (0, 0), BuildingBlock: XIVTED_clean_linker_0, # of connection points: 2
#     Edge 33, Type (0, 0), BuildingBlock: XIVTED_clean_linker_0, # of connection points: 2
#     Edge 34, Type (0, 0), BuildingBlock: XIVTED_clean_linker_0, # of connection points: 2
#     Edge 35, Type (0, 0), BuildingBlock: XIVTED_clean_linker_0, # of connection points: 2
#     Edge 36, Type (0, 0), BuildingBlock: XIVTED_clean_linker_0, # of connection points: 2
#     Edge 37, Type (0, 0), BuildingBlock: XIVTED_clean_linker_0, # of connection points: 2
#     Edge 38, Type (0, 0), BuildingBlock: XIVTED_clean_linker_0, # of connection points: 2
#     Edge 39, Type (0, 0), BuildingBlock: XIVTED_clean_linker_0, # of connection points: 2
#     Edge 40, Type (0, 0), BuildingBlock: XIVTED_clean_linker_0, # of connection points: 2
#     Edge 41, Type (0, 0), BuildingBlock: XIVTED_clean_linker_0, # of connection points: 2
#     Edge 42, Type (0, 0), BuildingBlock: XIVTED_clean_linker_0, # of connection points: 2
#     Edge 43, Type (0, 0), BuildingBlock: XIVTED_clean_linker_0, # of connection points: 2
#     Edge 44, Type (0, 0), BuildingBlock: XIVTED_clean_linker_0, # of connection points: 2
#     Edge 45, Type (0, 0), BuildingBlock: XIVTED_clean_linker_0, # of connection points: 2
#     Edge 46, Type (0, 0), BuildingBlock: XIVTED_clean_linker_0, # of connection points: 2
#     Edge 47, Type (0, 0), BuildingBlock: XIVTED_clean_linker_0, # of connection points: 2
#     Edge 48, Type (0, 0), BuildingBlock: XIVTED_clean_linker_0, # of connection points: 2
#     Edge 49, Type (0, 0), BuildingBlock: XIVTED_clean_linker_0, # of connection points: 2
#     Edge 50, Type (0, 0), BuildingBlock: XIVTED_clean_linker_0, # of connection points: 2
#     Edge 51, Type (0, 0), BuildingBlock: XIVTED_clean_linker_0, # of connection points: 2
#     Edge 52, Type (0, 0), BuildingBlock: XIVTED_clean_linker_0, # of connection points: 2
#     Edge 53, Type (0, 0), BuildingBlock: XIVTED_clean_linker_0, # of connection points: 2
#     Edge 54, Type (0, 0), BuildingBlock: XIVTED_clean_linker_0, # of connection points: 2
#     Edge 55, Type (0, 0), BuildingBlock: XIVTED_clean_linker_0, # of connection points: 2
#     Edge 56, Type (0, 0), BuildingBlock: XIVTED_clean_linker_0, # of connection points: 2
#     Edge 57, Type (0, 0), BuildingBlock: XIVTED_clean_linker_0, # of connection points: 2
#     Edge 58, Type (0, 0), BuildingBlock: XIVTED_clean_linker_0, # of connection points: 2
#     Edge 59, Type (0, 0), BuildingBlock: XIVTED_clean_linker_0, # of connection points: 2
#     Edge 60, Type (0, 0), BuildingBlock: XIVTED_clean_linker_0, # of connection points: 2
#     Edge 61, Type (0, 0), BuildingBlock: XIVTED_clean_linker_0, # of connection points: 2
#     Edge 62, Type (0, 0), BuildingBlock: XIVTED_clean_linker_0, # of connection points: 2
#     Edge 63, Type (0, 0), BuildingBlock: XIVTED_clean_linker_0, # of connection points: 2
# Relax obj value: 0.472
# Max RMSD: 0.259
# Mean RMSD: 0.229
data_MOF--net-whw--node1-CUWYAW_clean_sbu_0--edge1-XIVTED_clean_linker_0
_symmetry_space_group_name_H-M    P1
_symmetry_Int_Tables_number       1
_symmetry_cell_setting            triclinic
loop_
_symmetry_equiv_pos_as_xyz
'x, y, z'
_cell_length_a     46.564283
_cell_length_b     46.484439
_cell_length_c     33.491158
_cell_angle_alpha  96.954268
_cell_angle_beta   83.988728
_cell_angle_gamma 91.718455
loop_
_atom_site_label
_atom_site_type_symbol
_atom_site_fract_x
_atom_site_fract_y
_atom_site_fract_z
_atom_type_partial_charge
C0 C 0.93241 0.12105 0.19882 0.0
Eu1 Eu 0.98068 0.13496 0.22945 0.0
C2 C 0.92437 0.10365 0.16216 0.0
C3 C 0.94459 0.09848 0.1282 0.0
C4 C 0.93708 0.08117 0.09379 0.0
C5 C 0.90921 0.06865 0.09278 0.0
C6 C 0.88926 0.07332 0.12737 0.0
C7 C 0.89684 0.09069 0.16185 0.0
C8 C -0.00258 0.18461 0.27271 0.0
C9 C 0.03376 0.15786 0.16597 0.0
C10 C 0.08983 0.13437 0.28314 0.0
Eu11 Eu 0.04197 0.13393 0.24985 0.0
C12 C 0.09529 0.13745 0.32577 0.0
C13 C 0.11582 0.12006 0.33851 0.0
C14 C 0.11883 0.1205 0.37969 0.0
C15 C 0.10121 0.1383 0.40866 0.0
C16 C 0.08075 0.15576 0.39555 0.0
C17 C 0.07773 0.15524 0.35457 0.0
C18 C 0.02624 0.08759 0.19965 0.0
C19 C 0.98856 0.13145 0.32266 0.0
O20 O 0.94321 0.1063 0.22435 0.0
O21 O 0.94656 0.1454 0.19401 0.0
O22 O 0.97077 0.17532 0.27364 0.0
O23 O 0.01247 0.16893 0.24566 0.0
O24 O 0.0072 0.14618 0.17036 0.0
O25 O 0.0509 0.15865 0.19536 0.0
O26 O 0.08019 0.15727 0.2698 0.0
O27 O 0.07584 0.11057 0.27144 0.0
O28 O 0.05129 0.10033 0.19657 0.0
O29 O 0.01054 0.09903 0.23028 0.0
O30 O 0.01652 0.13499 0.31229 0.0
O31 O 0.97003 0.12786 0.29511 0.0
H32 H 0.96615 0.10794 0.12823 0.0
H33 H 0.95284 0.07848 0.06751 0.0
H34 H 0.86773 0.06382 0.12764 0.0
H35 H 0.88119 0.09409 0.18822 0.0
H36 H 0.12914 0.10576 0.31666 0.0
H37 H 0.1347 0.10674 0.38883 0.0
H38 H 0.06728 0.17025 0.41689 0.0
H39 H 0.06141 0.16853 0.34549 0.0
C40 C 0.15458 0.62646 0.40229 0.0
Eu41 Eu 0.14569 0.67584 0.4465 0.0
C42 C 0.17158 0.61912 0.36336 0.0
C43 C 0.18212 0.64138 0.34089 0.0
C44 C 0.19939 0.63499 0.30462 0.0
C45 C 0.2065 0.60614 0.29008 0.0
C46 C 0.1964 0.58389 0.31324 0.0
C47 C 0.1791 0.59039 0.34979 0.0
C48 C 0.09952 0.69896 0.4938 0.0
C49 C 0.13106 0.73025 0.39583 0.0
C50 C 0.16397 0.78636 0.52654 0.0
Eu51 Eu 0.15635 0.73732 0.4822 0.0
C52 C 0.16105 0.796 0.57014 0.0
C53 C 0.17712 0.82005 0.58536 0.0
C54 C 0.17509 0.82898 0.62693 0.0
C55 C 0.15699 0.8139 0.65397 0.0
C56 C 0.14125 0.78948 0.63849 0.0
C57 C 0.14328 0.78061 0.59695 0.0
C58 C 0.19905 0.71417 0.42769 0.0
C59 C 0.14943 0.68503 0.54202 0.0
O60 O 0.17009 0.63628 0.43153 0.0
O61 O 0.13148 0.64182 0.40177 0.0
O62 O 0.10413 0.67121 0.48724 0.0
O63 O 0.11712 0.71192 0.47069 0.0
O64 O 0.13761 0.7023 0.39415 0.0
O65 O 0.1337 0.74827 0.42922 0.0
O66 O 0.14001 0.77922 0.51014 0.0
O67 O 0.18471 0.76807 0.51401 0.0
O68 O 0.19008 0.74037 0.42935 0.0
O69 O 0.1857 0.7014 0.45548 0.0
O70 O 0.15061 0.71315 0.5385 0.0
O71 O 0.15022 0.66553 0.50981 0.0
H72 H 0.17674 0.66372 0.35127 0.0
H73 H 0.20617 0.65262 0.28721 0.0
H74 H 0.20157 0.56149 0.30286 0.0
H75 H 0.17152 0.57304 0.36734 0.0
H76 H 0.19125 0.83192 0.56507 0.0
H77 H 0.1877 0.84769 0.6379 0.0
H78 H 0.12675 0.77765 0.65833 0.0
H79 H 0.13081 0.76186 0.58579 0.0
C80 C 0.63716 0.88026 0.53429 0.0
Eu81 Eu 0.58832 0.86303 0.56955 0.0
C82 C 0.64732 0.89894 0.50323 0.0
C83 C 0.67312 0.89254 0.47897 0.0
C84 C 0.68251 0.90942 0.44829 0.0
C85 C 0.66626 0.93315 0.44137 0.0
C86 C 0.64115 0.94038 0.4673 0.0
C87 C 0.63173 0.9233 0.49781 0.0
C88 C 0.57289 0.81393 0.6021 0.0
C89 C 0.53696 0.83693 0.51248 0.0
C90 C 0.47467 0.86058 0.64652 0.0
Eu91 Eu 0.52523 0.86202 0.60529 0.0
C92 C 0.46453 0.85715 0.68863 0.0
C93 C 0.43755 0.86777 0.70547 0.0
C94 C 0.42887 0.86689 0.74656 0.0
C95 C 0.44715 0.85545 0.77138 0.0
C96 C 0.47394 0.84427 0.75401 0.0
C97 C 0.48256 0.84523 0.71305 0.0
C98 C 0.54309 0.90871 0.56711 0.0
C99 C 0.57624 0.86807 0.66729 0.0
O100 O 0.62423 0.89359 0.56766 0.0
O101 O 0.62438 0.85566 0.52226 0.0
O102 O 0.59937 0.82374 0.59857 0.0
O103 O 0.55743 0.82843 0.58356 0.0
O104 O 0.56269 0.85058 0.5133 0.0
O105 O 0.51972 0.83515 0.54609 0.0
O106 O 0.48644 0.83788 0.62466 0.0
O107 O 0.48925 0.88454 0.64134 0.0
O108 O 0.51869 0.89524 0.56268 0.0
O109 O 0.55678 0.89716 0.59123 0.0
O110 O 0.54868 0.8629 0.66203 0.0
O111 O 0.59559 0.87192 0.63633 0.0
H112 H 0.68557 0.87395 0.48297 0.0
H113 H 0.70161 0.90266 0.42848 0.0
H114 H 0.6282 0.9585 0.46299 0.0
H115 H 0.61195 0.92873 0.51661 0.0
H116 H 0.4235 0.87732 0.68706 0.0
H117 H 0.40823 0.87593 0.75911 0.0
H118 H 0.48833 0.83486 0.77208 0.0
H119 H 0.50353 0.83715 0.7006 0.0
C120 C 0.41032 0.34385 0.81185 0.0
Eu121 Eu 0.42978 0.2964 0.83193 0.0
C122 C 0.38898 0.35105 0.78552 0.0
C123 C 0.38644 0.33464 0.74811 0.0
C124 C 0.36664 0.34238 0.72298 0.0
C125 C 0.34889 0.36663 0.73487 0.0
C126 C 0.35002 0.38157 0.77379 0.0
C127 C 0.37001 0.37389 0.79882 0.0
C128 C 0.47868 0.28457 0.86247 0.0
C129 C 0.4588 0.24751 0.75934 0.0
C130 C 0.43703 0.18194 0.8703 0.0
Eu131 Eu 0.43321 0.2329 0.84685 0.0
C132 C 0.43853 0.17184 0.90967 0.0
C133 C 0.42727 0.14444 0.9168 0.0
C134 C 0.42482 0.13633 0.95585 0.0
C135 C 0.43344 0.15569 0.98817 0.0
C136 C 0.44567 0.18273 0.98048 0.0
C137 C 0.44807 0.19076 0.94157 0.0
C138 C 0.38654 0.24681 0.81122 0.0
C139 C 0.42301 0.28269 0.92556 0.0
O140 O 0.39943 0.33167 0.84329 0.0
O141 O 0.4344 0.33193 0.79457 0.0
O142 O 0.46804 0.31042 0.86667 0.0
O143 O 0.46521 0.26807 0.83793 0.0
O144 O 0.44435 0.27236 0.76797 0.0
O145 O 0.46058 0.23001 0.78727 0.0
O146 O 0.45943 0.19672 0.85627 0.0
O147 O 0.41253 0.1937 0.86624 0.0
O148 O 0.40053 0.22297 0.80128 0.0
O149 O 0.39719 0.26185 0.84011 0.0
O150 O 0.42935 0.2555 0.91156 0.0
O151 O 0.41929 0.30209 0.90066 0.0
H152 H 0.40028 0.31633 0.73779 0.0
H153 H 0.36676 0.33042 0.69315 0.0
H154 H 0.33643 0.40005 0.78414 0.0
H155 H 0.37113 0.38624 0.82823 0.0
H156 H 0.41949 0.12975 0.89246 0.0
H157 H 0.41522 0.11542 0.961 0.0
H158 H 0.45305 0.19786 1.00464 0.0
H159 H 0.45657 0.21208 0.93665 0.0
C160 C 0.96572 0.89193 0.84286 0.0
Eu161 Eu 0.98576 0.89127 0.9132 0.0
C162 C 0.96614 0.87884 0.79947 0.0
C163 C 0.97312 0.89616 0.76801 0.0
C164 C 0.96953 0.88556 0.72754 0.0
C165 C 0.95875 0.85723 0.71708 0.0
C166 C 0.95248 0.83968 0.74858 0.0
C167 C 0.95599 0.85032 0.78901 0.0
C168 C -0.0036 0.93267 0.97431 0.0
C169 C 0.05346 0.87627 0.90955 0.0
C170 C 0.03718 0.8555 0.0518 0.0
Eu171 Eu 0.00973 0.86866 0.99142 0.0
C172 C 0.0402 0.84019 0.08857 0.0
C173 C 0.05191 0.81218 0.08443 0.0
C174 C 0.0593 0.79957 0.11823 0.0
C175 C 0.05547 0.81445 0.15775 0.0
C176 C 0.04288 0.84215 0.16191 0.0
C177 C 0.03557 0.8548 0.12805 0.0
C178 C 0.97986 0.83125 0.94159 0.0
C179 C 0.94399 0.88813 0.99528 0.0
O180 O 0.95455 0.87631 0.87094 0.0
O181 O 0.98725 0.90874 0.85457 0.0
O182 O 0.97763 0.93544 0.94885 0.0
O183 O 0.01074 0.90989 0.9637 0.0
O184 O 0.03178 0.88262 0.88986 0.0
O185 O 0.05066 0.87157 0.94811 0.0
O186 O 0.02117 0.87861 0.05418 0.0
O187 O 0.03824 0.84028 1.0161 0.0
O188 O 0.97913 0.82967 0.98018 0.0
O189 O -0.00226 0.8503 0.93181 0.0
O190 O 0.96663 0.88782 1.01625 0.0
O191 O 0.94583 0.8838 0.9553 0.0
H192 H 0.98061 0.91832 0.77484 0.0
H193 H 0.97508 0.89975 0.70445 0.0
H194 H 0.94378 0.81794 0.74233 0.0
H195 H 0.94979 0.83637 0.81221 0.0
H196 H 0.05643 0.80026 0.05469 0.0
H197 H 0.06916 0.77848 0.11289 0.0
H198 H 0.03884 0.85443 0.19145 0.0
H199 H 0.027 0.87648 0.13277 0.0
C200 C 0.44283 0.6387 0.22062 0.0
Eu201 Eu 0.4313 0.68892 0.19973 0.0
C202 C 0.42887 0.621 0.25081 0.0
C203 C 0.44568 0.6046 0.27156 0.0
C204 C 0.43264 0.58911 0.30203 0.0
C205 C 0.40249 0.58965 0.31206 0.0
C206 C 0.38564 0.60533 0.29003 0.0
C207 C 0.39873 0.62106 0.25995 0.0
C208 C 0.46462 0.72619 0.15808 0.0
C209 C 0.4396 0.74432 0.26945 0.0
C210 C 0.38035 0.79021 0.17176 0.0
Eu211 Eu 0.40255 0.7448 0.19436 0.0
C212 C 0.386 0.80353 0.13413 0.0
C213 C 0.36788 0.82483 0.12495 0.0
C214 C 0.37305 0.83635 0.08802 0.0
C215 C 0.39659 0.82684 0.06021 0.0
C216 C 0.41465 0.80557 0.06978 0.0
C217 C 0.40925 0.79392 0.10621 0.0
C218 C 0.37189 0.70955 0.24339 0.0
C219 C 0.41365 0.69689 0.11329 0.0
O220 O 0.42778 0.642 0.19081 0.0
O221 O 0.45535 0.66283 0.23464 0.0
O222 O 0.46802 0.69835 0.15119 0.0
O223 O 0.44745 0.73214 0.18888 0.0
O224 O 0.43757 0.71556 0.26143 0.0
O225 O 0.43021 0.76123 0.24456 0.0
O226 O 0.40181 0.79164 0.19424 0.0
O227 O 0.36823 0.7644 0.16787 0.0
O228 O 0.37385 0.73742 0.25063 0.0
O229 O 0.38493 0.70128 0.20907 0.0
O230 O 0.41097 0.72456 0.12796 0.0
O231 O 0.41643 0.67721 0.1377 0.0
H232 H 0.46896 0.60441 0.26496 0.0
H233 H 0.4464 0.57781 0.31888 0.0
H234 H 0.36239 0.60603 0.29662 0.0
H235 H 0.38528 0.63369 0.24434 0.0
H236 H 0.34965 0.83229 0.14607 0.0
H237 H 0.35878 0.85267 0.08122 0.0
H238 H 0.43256 0.79735 0.04859 0.0
H239 H 0.42303 0.77704 0.11228 0.0
C240 C 0.6608 0.14216 0.42716 0.0
Eu241 Eu 0.60602 0.1433 0.41719 0.0
C242 C 0.67865 0.13333 0.45684 0.0
C243 C 0.66776 0.11372 0.48354 0.0
C244 C 0.68471 0.10585 0.51225 0.0
C245 C 0.71274 0.11763 0.5149 0.0
C246 C 0.7237 0.13695 0.48762 0.0
C247 C 0.70676 0.14467 0.45868 0.0
C248 C 0.57451 0.18789 0.40153 0.0
C249 C 0.55376 0.15962 0.48653 0.0
C250 C 0.49632 0.11345 0.37307 0.0
Eu251 Eu 0.5463 0.12649 0.39869 0.0
C252 C 0.48255 0.11608 0.33649 0.0
C253 C 0.45952 0.09747 0.32631 0.0
C254 C 0.44664 0.09966 0.29096 0.0
C255 C 0.45649 0.12078 0.26591 0.0
C256 C 0.47959 0.13933 0.27627 0.0
C257 C 0.49268 0.13682 0.31112 0.0
C258 C 0.57023 0.09027 0.44391 0.0
C259 C 0.59631 0.1301 0.32149 0.0
O260 O 0.64703 0.12121 0.40711 0.0
O261 O 0.64476 0.1648 0.4389 0.0
O262 O 0.59309 0.19072 0.42813 0.0
O263 O 0.57494 0.1626 0.38403 0.0
O264 O 0.58066 0.14971 0.48045 0.0
O265 O 0.53726 0.15715 0.45635 0.0
O266 O 0.50195 0.13796 0.39495 0.0
O267 O 0.51756 0.09508 0.36882 0.0
O268 O 0.54411 0.09929 0.45029 0.0
O269 O 0.58285 0.10042 0.41333 0.0
O270 O 0.56882 0.12453 0.3337 0.0
O271 O 0.61488 0.13808 0.34829 0.0
H272 H 0.64601 0.10485 0.48259 0.0
H273 H 0.67541 0.09143 0.53343 0.0
H274 H 0.7452 0.14634 0.48904 0.0
H275 H 0.71545 0.15978 0.43809 0.0
H276 H 0.45165 0.08118 0.34555 0.0
H277 H 0.42894 0.08506 0.28332 0.0
H278 H 0.48793 0.15537 0.25691 0.0
H279 H 0.51083 0.1509 0.31812 0.0
C280 C 0.17192 0.33269 0.56642 0.0
Eu281 Eu 0.17285 0.31491 0.63784 0.0
C282 C 0.16028 0.33312 0.52633 0.0
C283 C 0.1799 0.33239 0.49137 0.0
C284 C 0.17068 0.33549 0.45349 0.0
C285 C 0.14129 0.33929 0.44884 0.0
C286 C 0.12148 0.33964 0.48402 0.0
C287 C 0.13084 0.33672 0.52219 0.0
C288 C 0.21901 0.2936 0.66759 0.0
C289 C 0.1457 0.25112 0.64482 0.0
C290 C 0.1494 0.26421 0.78843 0.0
Eu291 Eu 0.16072 0.29239 0.72473 0.0
C292 C 0.13688 0.26052 0.83099 0.0
C293 C 0.10702 0.26299 0.84327 0.0
C294 C 0.09489 0.2546 0.88069 0.0
C295 C 0.11212 0.24327 0.90724 0.0
C296 C 0.14212 0.24171 0.89532 0.0
C297 C 0.1542 0.25009 0.85794 0.0
C298 C 0.12349 0.33173 0.70502 0.0
C299 C 0.19311 0.35316 0.71661 0.0
O300 O 0.15774 0.3453 0.59964 0.0
O301 O 0.18666 0.31031 0.57267 0.0
O302 O 0.22077 0.3143 0.64467 0.0
O303 O 0.19346 0.28383 0.67169 0.0
O304 O 0.14746 0.27365 0.62417 0.0
O305 O 0.15423 0.25206 0.68131 0.0
O306 O 0.17409 0.27803 0.78081 0.0
O307 O 0.13163 0.26599 0.76101 0.0
O308 O 0.13048 0.33051 0.74123 0.0
O309 O 0.13505 0.31097 0.68216 0.0
O310 O 0.1922 0.32954 0.73548 0.0
O311 O 0.1814 0.35429 0.68232 0.0
H312 H 0.20277 0.33014 0.49349 0.0
H313 H 0.18698 0.33572 0.42802 0.0
H314 H 0.09864 0.3421 0.48221 0.0
H315 H 0.11508 0.33758 0.54847 0.0
H316 H 0.09277 0.27067 0.82344 0.0
H317 H 0.07185 0.25678 0.88857 0.0
H318 H 0.15633 0.23286 0.91415 0.0
H319 H 0.17713 0.2473 0.84938 0.0
C320 C 0.93244 0.12863 0.72546 0.0
Eu321 Eu 0.93531 0.18316 0.71481 0.0
C322 C 0.92259 0.11085 0.75749 0.0
C323 C 0.90713 0.12327 0.79318 0.0
C324 C 0.8978 0.10619 0.82363 0.0
C325 C 0.90384 0.07639 0.81887 0.0
C326 C 0.91896 0.06397 0.78265 0.0
C327 C 0.92821 0.08112 0.75211 0.0
C328 C 0.97871 0.21748 0.68813 0.0
C329 C 0.94353 0.23702 0.78147 0.0
C330 C 0.90911 0.29277 0.67939 0.0
Eu331 Eu 0.91612 0.23997 0.69458 0.0
C332 C 0.91089 0.30617 0.64148 0.0
C333 C 0.8948 0.2948 0.60976 0.0
C334 C 0.89866 0.30588 0.57265 0.0
C335 C 0.91883 0.32838 0.56633 0.0
C336 C 0.93447 0.34017 0.59835 0.0
C337 C 0.93046 0.32919 0.63564 0.0
C338 C 0.87267 0.20648 0.72742 0.0
C339 C 0.92532 0.18966 0.61915 0.0
O340 O 0.91201 0.14202 0.71133 0.0
O341 O 0.95541 0.14503 0.73103 0.0
O342 O 0.98168 0.19917 0.71387 0.0
O343 O 0.95442 0.21403 0.67504 0.0
O344 O 0.94 0.20843 0.77637 0.0
O345 O 0.93722 0.253 0.75334 0.0
O346 O 0.93346 0.2836 0.68889 0.0
O347 O 0.8877 0.27448 0.68563 0.0
O348 O 0.87094 0.22046 0.6966 0.0
O349 O 0.89754 0.21042 0.73903 0.0
O350 O 0.92112 0.21771 0.62979 0.0
O351 O 0.92974 0.17252 0.64684 0.0
H352 H 0.9026 0.14624 0.79765 0.0
H353 H 0.88677 0.11657 0.85149 0.0
H354 H 0.92386 0.0411 0.77813 0.0
H355 H 0.93996 0.07125 0.72445 0.0
H356 H 0.87978 0.2768 0.61313 0.0
H357 H 0.88663 0.29603 0.54839 0.0
H358 H 0.95001 0.35766 0.59443 0.0
H359 H 0.94318 0.33818 0.65962 0.0
C360 C 0.67593 0.82124 0.05171 0.0
Eu361 Eu 0.67508 0.80153 0.12215 0.0
C362 C 0.66324 0.82085 1.01212 0.0
C363 C 0.68003 0.81221 0.97541 0.0
C364 C 0.67032 0.81604 0.93795 0.0
C365 C 0.64349 0.82888 0.93579 0.0
C366 C 0.62633 0.83671 0.97261 0.0
C367 C 0.63604 0.83284 1.01004 0.0
C368 C 0.71641 0.78981 0.16872 0.0
C369 C 0.65973 0.73325 0.1236 0.0
C370 C 0.63881 0.75063 0.27151 0.0
Eu371 Eu 0.6525 0.7779 0.2073 0.0
C372 C 0.62346 0.74779 0.31297 0.0
C373 C 0.59625 0.73366 0.31717 0.0
C374 C 0.5837 0.72654 0.35502 0.0
C375 C 0.59788 0.73312 0.39038 0.0
C376 C 0.62474 0.74812 0.38629 0.0
C377 C 0.63733 0.75515 0.34834 0.0
C378 C 0.61578 0.80761 0.17001 0.0
C379 C 0.67538 0.84336 0.20573 0.0
O380 O 0.66055 0.8323 0.08479 0.0
O381 O 0.69221 0.79989 0.05792 0.0
O382 O 0.71977 0.80911 0.14337 0.0
O383 O 0.69294 0.77595 0.16542 0.0
O384 O 0.66537 0.75493 0.10163 0.0
O385 O 0.65568 0.73644 0.16365 0.0
O386 O 0.66207 0.76717 0.26696 0.0
O387 O 0.62367 0.74895 0.24041 0.0
O388 O 0.61463 0.80854 0.20908 0.0
O389 O 0.63401 0.78959 0.15385 0.0
O390 O 0.67426 0.82056 0.22619 0.0
O391 O 0.67029 0.84176 0.16736 0.0
H392 H 0.7012 0.80323 0.97566 0.0
H393 H 0.68412 0.80914 0.91063 0.0
H394 H 0.60574 0.84696 0.97282 0.0
H395 H 0.62253 0.84023 1.03746 0.0
H396 H 0.58498 0.72702 0.29078 0.0
H397 H 0.5633 0.71475 0.35603 0.0
H398 H 0.63638 0.75426 0.41241 0.0
H399 H 0.65842 0.76567 0.34661 0.0
C400 C 0.66408 0.1331 0.905 0.0
Eu401 Eu 0.65199 0.1821 0.94894 0.0
C402 C 0.68234 0.12422 0.86721 0.0
C403 C 0.6706 0.10648 0.83595 0.0
C404 C 0.68701 0.09964 0.79887 0.0
C405 C 0.71548 0.11045 0.79243 0.0
C406 C 0.72756 0.1273 0.82436 0.0
C407 C 0.71115 0.13407 0.86143 0.0
C408 C 0.60352 0.20021 0.9955 0.0
C409 C 0.63205 0.23485 0.89842 0.0
C410 C 0.65955 0.29313 1.03095 0.0
Eu411 Eu 0.65644 0.24419 0.98481 0.0
C412 C 0.65339 0.30148 0.07466 0.0
C413 C 0.6684 0.32487 0.09385 0.0
C414 C 0.6638 0.33193 0.1358 0.0
C415 C 0.64418 0.31557 0.15923 0.0
C416 C 0.62931 0.29201 0.13975 0.0
C417 C 0.63389 0.28504 0.09789 0.0
C418 C 0.70179 0.22522 0.93139 0.0
C419 C 0.65435 0.19253 1.04461 0.0
O420 O 0.67773 0.14338 0.93599 0.0
O421 O 0.64108 0.14789 0.9019 0.0
O422 O 0.61096 0.17319 0.98878 0.0
O423 O 0.61967 0.21491 0.97283 0.0
O424 O 0.64167 0.20779 0.89646 0.0
O425 O 0.63271 0.25296 0.93211 0.0
O426 O 0.63729 0.2853 1.01095 0.0
O427 O 0.68151 0.27595 1.02054 0.0
O428 O 0.69018 0.25028 0.93278 0.0
O429 O 0.68949 0.21134 0.95874 0.0
O430 O 0.65033 0.22008 1.04082 0.0
O431 O 0.65969 0.17339 1.01234 0.0
H432 H 0.64847 0.0986 0.83983 0.0
H433 H 0.67686 0.08703 0.77466 0.0
H434 H 0.74948 0.13576 0.82042 0.0
H435 H 0.72085 0.14746 0.88527 0.0
H436 H 0.68384 0.33753 0.07642 0.0
H437 H 0.67575 0.35004 0.14992 0.0
H438 H 0.61369 0.27927 0.15673 0.0
H439 H 0.6222 0.26679 0.08367 0.0
C440 C 0.90214 0.84306 0.31059 0.0
Eu441 Eu 0.92256 0.79666 0.33263 0.0
C442 C 0.8835 0.84911 0.2802 0.0
C443 C 0.87948 0.87766 0.2734 0.0
C444 C 0.86273 0.88347 0.24323 0.0
C445 C 0.84904 0.86076 0.21974 0.0
C446 C 0.85154 0.83226 0.22925 0.0
C447 C 0.86937 0.82647 0.25817 0.0
C448 C 0.97397 0.7867 0.35793 0.0
C449 C 0.94867 0.74718 0.25935 0.0
C450 C 0.93657 0.68295 0.37074 0.0
Eu451 Eu 0.92939 0.73408 0.34948 0.0
C452 C 0.94348 0.66985 0.40592 0.0
C453 C 0.93888 0.64003 0.40682 0.0
C454 C 0.94407 0.62728 0.44093 0.0
C455 C 0.95414 0.64425 0.47437 0.0
C456 C 0.95894 0.67416 0.47318 0.0
C457 C 0.95346 0.68692 0.43922 0.0
C458 C 0.87952 0.74567 0.31968 0.0
C459 C 0.92181 0.78514 0.42659 0.0
O460 O 0.88944 0.82916 0.33944 0.0
O461 O 0.9278 0.83312 0.29697 0.0
O462 O 0.96206 0.812 0.36404 0.0
O463 O 0.95968 0.76963 0.33516 0.0
O464 O 0.93325 0.77131 0.26856 0.0
O465 O 0.95352 0.73092 0.28756 0.0
O466 O 0.95728 0.69787 0.35282 0.0
O467 O 0.91159 0.69563 0.37463 0.0
O468 O 0.89413 0.72238 0.30841 0.0
O469 O 0.89156 0.76165 0.34634 0.0
O470 O 0.92935 0.75815 0.41302 0.0
O471 O 0.91503 0.80345 0.40165 0.0
H472 H 0.8902 0.89541 0.29038 0.0
H473 H 0.86221 0.90573 0.23709 0.0
H474 H 0.84091 0.81407 0.21325 0.0
H475 H 0.87274 0.80422 0.26265 0.0
H476 H 0.93099 0.62667 0.3813 0.0
H477 H 0.94035 0.60417 0.44112 0.0
H478 H 0.96627 0.68776 0.49888 0.0
H479 H 0.95661 0.71007 0.43911 0.0
C480 C 0.41975 0.62422 0.69632 0.0
Eu481 Eu 0.469 0.63759 0.72457 0.0
C482 C 0.41084 0.60773 0.65952 0.0
C483 C 0.43067 0.60242 0.62516 0.0
C484 C 0.42211 0.58683 0.59007 0.0
C485 C 0.39354 0.57621 0.58873 0.0
C486 C 0.37404 0.5807 0.62384 0.0
C487 C 0.38267 0.59635 0.65901 0.0
C488 C 0.4871 0.68755 0.76518 0.0
C489 C 0.52121 0.65798 0.65749 0.0
C490 C 0.58036 0.63419 0.77004 0.0
Eu491 Eu 0.5306 0.63613 0.74195 0.0
C492 C 0.59025 0.63436 0.81017 0.0
C493 C 0.61294 0.61636 0.81494 0.0
C494 C 0.62122 0.61429 0.85333 0.0
C495 C 0.60691 0.63026 0.88762 0.0
C496 C 0.584 0.64816 0.88262 0.0
C497 C 0.57565 0.65009 0.84424 0.0
C498 C 0.51314 0.58933 0.69378 0.0
C499 C 0.47913 0.63592 0.81744 0.0
O500 O 0.43148 0.60886 0.72028 0.0
O501 O 0.43363 0.64875 0.6919 0.0
O502 O 0.46034 0.67862 0.76781 0.0
O503 O 0.5016 0.67163 0.73774 0.0
O504 O 0.49444 0.64704 0.66372 0.0
O505 O 0.53893 0.6594 0.68622 0.0
O506 O 0.56966 0.65822 0.76145 0.0
O507 O 0.56519 0.61118 0.75849 0.0
O508 O 0.53795 0.60222 0.68865 0.0
O509 O 0.49832 0.60114 0.72503 0.0
O510 O 0.50675 0.64034 0.80563 0.0
O511 O 0.46017 0.6302 0.79068 0.0
H512 H 0.45267 0.61068 0.62529 0.0
H513 H 0.43762 0.58427 0.5635 0.0
H514 H 0.35199 0.57258 0.62389 0.0
H515 H 0.36729 0.59988 0.68565 0.0
H516 H 0.62404 0.60362 0.78895 0.0
H517 H 0.63876 0.60012 0.85617 0.0
H518 H 0.57288 0.66122 0.90824 0.0
H519 H 0.55777 0.66378 0.84123 0.0
C520 C 0.14812 0.36704 1.04562 0.0
Eu521 Eu 0.09419 0.35888 0.07212 0.0
C522 C 0.16429 0.38612 1.01905 0.0
C523 C 0.18846 0.37552 0.99391 0.0
C524 C 0.20224 0.39223 0.96546 0.0
C525 C 0.19206 0.41994 0.9616 0.0
C526 C 0.16886 0.43117 0.98868 0.0
C527 C 0.15507 0.41434 1.01708 0.0
C528 C 0.06472 0.31243 0.09686 0.0
C529 C 0.04075 0.33893 1.01973 0.0
C530 C 0.98421 0.37957 0.15421 0.0
Eu531 Eu 0.03275 0.37224 0.10909 0.0
C532 C 0.97581 0.3742 0.19612 0.0
C533 C 0.95249 0.38877 0.21874 0.0
C534 C 0.94585 0.38516 0.25955 0.0
C535 C 0.96256 0.36699 0.27828 0.0
C536 C 0.98566 0.35209 0.25516 0.0
C537 C -0.00773 0.35574 0.2145 0.0
C538 C 0.05722 0.41087 0.05994 0.0
C539 C 0.08378 0.37054 0.17109 0.0
O540 O 0.13593 0.37972 0.07988 0.0
O541 O 0.13136 0.34732 1.02823 0.0
O542 O 0.08696 0.30989 0.0698 0.0
O543 O 0.06299 0.33819 0.11244 0.0
O544 O 0.06727 0.35075 1.01751 0.0
O545 O 0.0244 0.34047 0.05469 0.0
O546 O -0.01027 0.35641 0.12832 0.0
O547 O 0.0034 0.40047 0.14987 0.0
O548 O 0.03048 0.40236 0.06088 0.0
O549 O 0.06944 0.39948 0.0857 0.0
O550 O 0.0566 0.37641 0.16661 0.0
O551 O 0.10229 0.3625 0.13897 0.0
H552 H 0.19593 0.35381 0.99511 0.0
H553 H 0.21964 0.3825 0.9447 0.0
H554 H 0.16056 0.45243 0.98676 0.0
H555 H 0.13664 0.42295 1.03661 0.0
H556 H 0.93977 0.40332 0.20506 0.0
H557 H 0.92811 0.39715 0.27667 0.0
H558 H -0.00133 0.33759 0.26848 0.0
H559 H 0.01049 0.34443 0.19754 0.0
C560 C 0.44734 0.38179 0.35106 0.0
Eu561 Eu 0.46731 0.38351 0.42198 0.0
C562 C 0.44911 0.36924 0.30721 0.0
C563 C 0.45994 0.3862 0.27668 0.0
C564 C 0.45802 0.37651 0.23548 0.0
C565 C 0.445 0.3495 0.22314 0.0
C566 C 0.43483 0.33221 0.25376 0.0
C567 C 0.43675 0.34194 0.295 0.0
C568 C 0.48247 0.42884 0.47522 0.0
C569 C 0.53434 0.36645 0.41648 0.0
C570 C 0.52206 0.35469 0.56068 0.0
Eu571 Eu 0.49266 0.36694 0.50171 0.0
C572 C 0.52661 0.33983 0.59736 0.0
C573 C 0.53812 0.31171 0.59284 0.0
C574 C 0.54713 0.29946 0.62599 0.0
C575 C 0.54515 0.31479 0.66528 0.0
C576 C 0.53259 0.34255 0.66994 0.0
C577 C 0.52373 0.35487 0.63667 0.0
C578 C 0.45679 0.32787 0.46331 0.0
C579 C 0.4285 0.39129 0.50751 0.0
O580 O 0.43733 0.36544 0.37894 0.0
O581 O 0.46742 0.40025 0.36333 0.0
O582 O 0.46221 0.42985 0.45144 0.0
O583 O 0.49548 0.40504 0.46723 0.0
O584 O 0.51215 0.37113 0.39691 0.0
O585 O 0.53263 0.36576 0.45608 0.0
O586 O 0.50623 0.37798 0.56339 0.0
O587 O 0.52178 0.3389 0.52556 0.0
O588 O 0.45789 0.33172 0.50213 0.0
O589 O 0.47603 0.34342 0.44704 0.0
O590 O 0.45216 0.39123 0.52658 0.0
O591 O 0.42821 0.3834 0.46813 0.0
H592 H 0.46928 0.40747 0.28468 0.0
H593 H 0.46664 0.39042 0.21327 0.0
H594 H 0.42436 0.31147 0.24608 0.0
H595 H 0.42773 0.32832 0.31739 0.0
H596 H 0.54128 0.2994 0.56318 0.0
H597 H 0.55679 0.27829 0.62014 0.0
H598 H 0.52978 0.35518 0.69935 0.0
H599 H 0.51534 0.37663 0.64166 0.0
C600 C 0.14544 0.66554 0.94122 0.0
Eu601 Eu 0.09542 0.65087 0.91597 0.0
C602 C 0.1618 0.65576 0.97179 0.0
C603 C 0.14912 0.63594 0.99699 0.0
C604 C 0.16548 0.62409 1.02325 0.0
C605 C 0.19485 0.63178 1.02463 0.0
C606 C 0.20742 0.65185 0.99946 0.0
C607 C 0.19098 0.66367 0.97305 0.0
C608 C 0.05877 0.68177 0.88094 0.0
C609 C 0.04051 0.65722 0.98639 0.0
C610 C -0.00445 0.59454 0.86935 0.0
Eu611 Eu 0.04012 0.61979 0.89992 0.0
C612 C 0.98626 0.596 0.82924 0.0
C613 C 0.97165 0.57257 0.80936 0.0
C614 C 0.96742 0.57232 0.76851 0.0
C615 C 0.97819 0.59533 0.74731 0.0
C616 C -0.00832 0.6192 0.76793 0.0
C617 C -0.00426 0.61948 0.80842 0.0
C618 C 0.07441 0.59127 0.94238 0.0
C619 C 0.08893 0.63082 0.82362 0.0
O620 O 0.1418 0.6457 0.91103 0.0
O621 O 0.1218 0.67978 0.95432 0.0
O622 O 0.08655 0.68577 0.87592 0.0
O623 O 0.05245 0.66535 0.90743 0.0
O624 O 0.06913 0.65616 0.97862 0.0
O625 O 0.0236 0.64719 0.95814 0.0
O626 O -0.00607 0.61875 0.89383 0.0
O627 O 0.02021 0.58169 0.86878 0.0
O628 O 0.04673 0.59339 0.94974 0.0
O629 O 0.08311 0.60383 0.91173 0.0
O630 O 0.06137 0.62579 0.83571 0.0
O631 O 0.1078 0.63643 0.85024 0.0
H632 H 0.12665 0.62938 0.99593 0.0
H633 H 0.15497 0.6092 1.04288 0.0
H634 H 0.22998 0.65814 0.99986 0.0
H635 H 0.20113 0.67859 0.95317 0.0
H636 H 0.96456 0.55409 0.82491 0.0
H637 H 0.95692 0.55371 0.75312 0.0
H638 H -0.00027 0.63745 0.75246 0.0
H639 H 0.00741 0.63756 0.82295 0.0
H640 H 0.08381 0.18968 0.15107 0.0
H641 H 0.05872 0.21618 0.92364 0.0
H642 H 0.00847 0.15753 0.09403 0.0
H643 H 0.13505 0.24472 0.98099 0.0
H644 H 0.03892 0.19677 0.98588 0.0
H645 H 0.10155 0.21143 0.09007 0.0
C646 C 0.07094 0.18698 0.12571 0.0
C647 C 0.04455 0.1713 0.12809 0.0
C648 C 0.05999 0.20731 0.9849 0.0
C649 C 0.06511 0.19665 0.05702 0.0
C650 C 0.07136 0.21869 0.94923 0.0
C651 C 0.09894 0.23222 0.94624 0.0
C652 C 0.07608 0.20936 1.0185 0.0
C653 C 0.11404 0.23416 0.98094 0.0
C654 C 0.08117 0.19957 0.09067 0.0
C655 C 0.02894 0.16919 0.09391 0.0
N656 N 0.10251 0.22294 1.01519 0.0
N657 N 0.03944 0.18155 0.06001 0.0
H658 H 0.11658 0.70027 0.32333 0.0
H659 H 0.0758 0.8431 0.22749 0.0
H660 H 0.11928 0.78678 0.38609 0.0
H661 H 0.05894 0.75644 0.17164 0.0
H662 H 0.09297 0.82265 0.28423 0.0
H663 H 0.0975 0.71993 0.26653 0.0
C664 C 0.1133 0.72338 0.3253 0.0
C665 C 0.11978 0.74173 0.36003 0.0
C666 C 0.08548 0.80804 0.25963 0.0
C667 C 0.09777 0.76463 0.29429 0.0
C668 C 0.07533 0.81978 0.22698 0.0
C669 C 0.06558 0.80179 0.19385 0.0
C670 C 0.08635 0.7778 0.25981 0.0
C671 C 0.06651 0.77155 0.19561 0.0
C672 C 0.10227 0.73463 0.29273 0.0
C673 C 0.11478 0.77156 0.36031 0.0
N674 N 0.07669 0.76067 0.22765 0.0
N675 N 0.10429 0.78193 0.32823 0.0
H676 H 0.46027 0.80039 0.28426 0.0
H677 H 0.50967 0.78441 0.50223 0.0
H678 H 0.45472 0.71932 0.33523 0.0
H679 H 0.54009 0.85494 0.43568 0.0
H680 H 0.48772 0.76134 0.44289 0.0
H681 H 0.48668 0.8219 0.34052 0.0
C682 C 0.46438 0.78707 0.30735 0.0
C683 C 0.45489 0.75787 0.30478 0.0
C684 C 0.49931 0.78176 0.44098 0.0
C685 C 0.48547 0.78272 0.36991 0.0
C686 C 0.51193 0.795 0.47495 0.0
C687 C 0.52687 0.82174 0.47414 0.0
C688 C 0.50083 0.79552 0.40568 0.0
C689 C 0.52904 0.83426 0.43772 0.0
C690 C 0.47973 0.7994 0.33943 0.0
C691 C 0.46138 0.74186 0.33571 0.0
N692 N 0.51586 0.82129 0.40524 0.0
N693 N 0.47597 0.75449 0.36692 0.0
H694 H 0.44935 0.26322 0.68393 0.0
H695 H 0.57618 0.16366 0.56074 0.0
H696 H 0.50425 0.21086 0.74073 0.0
H697 H 0.50315 0.18966 0.5052 0.0
H698 H 0.55471 0.18766 0.62616 0.0
H699 H 0.47368 0.2438 0.61738 0.0
C700 C 0.4666 0.24791 0.68256 0.0
C701 C 0.47439 0.2385 0.71825 0.0
C702 C 0.54346 0.18818 0.59956 0.0
C703 C 0.50252 0.21623 0.64206 0.0
C704 C 0.55575 0.17446 0.56211 0.0
C705 C 0.54156 0.17438 0.52704 0.0
C706 C 0.51689 0.20244 0.6022 0.0
C707 C 0.51503 0.18895 0.53113 0.0
C708 C 0.4804 0.23668 0.64453 0.0
C709 C 0.49705 0.21853 0.71426 0.0
N710 N 0.5037 0.20236 0.56771 0.0
N711 N 0.51018 0.20818 0.6772 0.0
H712 H 0.84352 0.82225 0.15036 0.0
H713 H 0.929 0.92707 0.06056 0.0
H714 H 0.8275 0.91162 0.19828 0.0
H715 H 0.89433 0.85822 0.9804 0.0
H716 H 0.88437 0.92651 0.1057 0.0
H717 H 0.84871 0.83609 0.08337 0.0
C718 C 0.8402 0.84476 0.14741 0.0
C719 C 0.8379 0.86623 0.18104 0.0
C720 C 0.88599 0.91217 0.07757 0.0
C721 C 0.84507 0.88215 0.10327 0.0
C722 C 0.91162 0.91225 0.05218 0.0
C723 C 0.9154 0.89206 1.01767 0.0
C724 C 0.86472 0.89081 0.06919 0.0
C725 C 0.89222 0.87372 1.00737 0.0
C726 C 0.8432 0.85266 0.10843 0.0
C727 C 0.8323 0.89462 0.17366 0.0
N728 N 0.86812 0.87277 1.03385 0.0
N729 N 0.83769 0.90213 0.13561 0.0
H730 H 0.93783 0.03719 0.8456 0.0
H731 H 0.85772 0.07248 0.06122 0.0
H732 H 0.85438 0.07709 0.87117 0.0
H733 H 0.94045 0.03106 1.03606 0.0
H734 H 0.84871 0.059 0.99118 0.0
H735 H 0.93164 0.01976 0.91174 0.0
C736 C 0.9178 0.04158 0.86463 0.0
C737 C 0.89698 0.05944 0.85345 0.0
C738 C 0.86857 0.05223 1.0011 0.0
C739 C 0.89012 0.04022 0.92961 0.0
C740 C 0.87368 0.05978 1.04131 0.0
C741 C 0.90035 0.05374 0.05421 0.0
C742 C 0.8905 0.03905 0.97352 0.0
C743 C 0.92006 0.03711 1.02696 0.0
C744 C 0.91434 0.03173 0.90257 0.0
C745 C 0.87144 0.06428 0.87928 0.0
N746 N 0.91507 0.03098 0.98761 0.0
N747 N 0.86901 0.05533 0.91658 0.0
H748 H 0.74761 0.15113 0.75405 0.0
H749 H 0.7195 0.06592 0.54409 0.0
H750 H 0.71829 0.06195 0.73673 0.0
H751 H 0.74218 0.15685 0.56358 0.0
H752 H 0.73489 0.05984 0.61004 0.0
H753 H 0.76209 0.1488 0.68174 0.0
C754 C 0.74497 0.13077 0.73523 0.0
C755 C 0.73092 0.10692 0.75123 0.0
C756 C 0.73716 0.081 0.5995 0.0
C757 C 0.74674 0.10439 0.66829 0.0
C758 C 0.7283 0.08448 0.56193 0.0
C759 C 0.72881 0.11208 0.54894 0.0
C760 C 0.74619 0.10539 0.62439 0.0
C761 C 0.74111 0.13524 0.57264 0.0
C762 C 0.75309 0.12952 0.69382 0.0
C763 C 0.72814 0.08113 0.72536 0.0
N764 N 0.74869 0.13151 0.60968 0.0
N765 N 0.73537 0.08073 0.685 0.0
H766 H 0.62758 0.94892 0.39197 0.0
H767 H 0.65011 0.89523 0.20234 0.0
H768 H 0.7191 0.94631 0.40166 0.0
H769 H 0.71631 0.85568 0.25705 0.0
H770 H 0.65467 0.93926 0.2502 0.0
H771 H 0.63722 0.94536 0.3194 0.0
C772 C 0.6499 0.94904 0.37909 0.0
C773 C 0.67252 0.94592 0.40279 0.0
C774 C 0.66868 0.9212 0.25096 0.0
C775 C 0.68363 0.94098 0.31928 0.0
C776 C 0.6661 0.89618 0.22378 0.0
C777 C 0.6821 0.87169 0.22719 0.0
C778 C 0.68746 0.92136 0.28124 0.0
C779 C 0.70288 0.8739 0.25467 0.0
C780 C 0.65546 0.94699 0.33717 0.0
C781 C 0.7009 0.94688 0.38416 0.0
N782 N 0.70469 0.89819 0.28107 0.0
N783 N 0.70566 0.94294 0.34322 0.0
H784 H 0.54017 0.72589 0.42086 0.0
H785 H 0.57604 0.6767 0.63254 0.0
H786 H 0.62665 0.71746 0.45304 0.0
H787 H 0.49116 0.66574 0.59173 0.0
H788 H 0.59372 0.6955 0.56933 0.0
H789 H 0.52108 0.70789 0.48445 0.0
C790 C 0.55532 0.72023 0.44092 0.0
C791 C 0.58538 0.72335 0.4306 0.0
C792 C 0.57122 0.68899 0.574 0.0
C793 C 0.56315 0.70282 0.50486 0.0
C794 C 0.56098 0.67818 0.61037 0.0
C795 C 0.5319 0.66933 0.61799 0.0
C796 C 0.55239 0.69143 0.5444 0.0
C797 C 0.51373 0.67206 0.58752 0.0
C798 C 0.54424 0.71 0.47757 0.0
C799 C 0.60341 0.71607 0.45913 0.0
N800 N 0.5242 0.68288 0.55235 0.0
N801 N 0.5921 0.70627 0.49449 0.0
H802 H 0.61792 0.2038 0.82612 0.0
H803 H 0.5672 0.34422 0.7334 0.0
H804 H 0.61697 0.29037 0.88909 0.0
H805 H 0.55154 0.25696 0.67875 0.0
H806 H 0.58719 0.32456 0.78858 0.0
H807 H 0.59622 0.22227 0.77029 0.0
C808 C 0.61335 0.22667 0.8283 0.0
C809 C 0.61955 0.2454 0.86283 0.0
C810 C 0.57932 0.30963 0.76459 0.0
C811 C 0.59451 0.26691 0.79832 0.0
C812 C 0.56751 0.32092 0.73283 0.0
C813 C 0.55714 0.30255 0.7005 0.0
C814 C 0.58137 0.27948 0.76467 0.0
C815 C 0.55936 0.27239 0.70212 0.0
C816 C 0.60079 0.23722 0.79633 0.0
C817 C 0.61277 0.27487 0.86347 0.0
N818 N 0.57117 0.26195 0.73327 0.0
N819 N 0.60087 0.28456 0.83201 0.0
H820 H 0.05272 0.34689 0.9386 0.0
H821 H 0.95149 0.21557 0.85321 0.0
H822 H 0.00073 0.29459 1.01728 0.0
H823 H 0.96787 0.29186 0.7922 0.0
H824 H 0.97633 0.23946 0.90999 0.0
H825 H 0.02941 0.32197 0.88069 0.0
C826 C 0.03664 0.33008 0.94372 0.0
C827 C 0.02859 0.32312 0.98313 0.0
C828 C 0.97444 0.25095 0.88415 0.0
C829 C 0.00202 0.29415 0.91673 0.0
C830 C 0.96018 0.23731 0.85167 0.0
C831 C 0.95724 0.25163 0.81766 0.0
C832 C 0.98662 0.27895 0.8825 0.0
C833 C 0.96929 0.27986 0.81769 0.0
C834 C 0.0232 0.31595 0.91066 0.0
C835 C 0.00749 0.30103 0.98766 0.0
N836 N 0.98358 0.29239 0.8492 0.0
N837 N -0.00484 0.28733 0.95508 0.0
H838 H 0.92891 0.75213 0.18474 0.0
H839 H 0.0664 0.6723 0.05651 0.0
H840 H 0.00024 0.72074 0.23847 0.0
H841 H 0.98454 0.67565 1.00793 0.0
H842 H 0.04475 0.69677 0.12114 0.0
H843 H 0.95126 0.73143 0.11751 0.0
C844 C 0.94939 0.74128 0.18241 0.0
C845 C 0.96256 0.73804 0.21748 0.0
C846 C 0.03147 0.69212 0.09637 0.0
C847 C 0.98835 0.71443 0.14068 0.0
C848 C 0.04386 0.67809 0.05934 0.0
C849 C 0.02732 0.67152 1.02651 0.0
C850 C 0.00228 0.70017 0.10089 0.0
C851 C -0.00184 0.67989 1.03233 0.0
C852 C 0.96204 0.72927 0.14408 0.0
C853 C 0.98906 0.72355 0.21247 0.0
N854 N 0.98666 0.69379 0.06857 0.0
N855 N 0.001 0.71244 0.17511 0.0
H856 H 0.37545 0.3658 0.50043 0.0
H857 H 0.34482 0.42421 0.72584 0.0
H858 H 0.41977 0.43418 0.56974 0.0
H859 H 0.3209 0.33908 0.67161 0.0
H860 H 0.34571 0.44182 0.66058 0.0
H861 H 0.33407 0.37049 0.55247 0.0
C862 C 0.376 0.38247 0.52593 0.0
C863 C 0.40122 0.39893 0.53191 0.0
C864 C 0.3391 0.41953 0.66322 0.0
C865 C 0.35428 0.40464 0.59068 0.0
C866 C 0.33839 0.40936 0.70076 0.0
C867 C 0.33471 0.37955 0.70367 0.0
C868 C 0.33687 0.39956 0.62869 0.0
C869 C 0.32563 0.36187 0.67012 0.0
C870 C 0.35239 0.38523 0.55543 0.0
C871 C 0.40095 0.42045 0.56494 0.0
N872 N 0.32821 0.37183 0.63343 0.0
N873 N 0.378 0.42236 0.59349 0.0
H874 H 0.34198 0.58496 0.55965 0.0
H875 H 0.35876 0.6115 0.36737 0.0
H876 H 0.42223 0.53958 0.52782 0.0
H877 H 0.41641 0.53908 0.34036 0.0
H878 H 0.34505 0.59694 0.4334 0.0
H879 H 0.33201 0.57652 0.4894 0.0
C880 C 0.35731 0.57272 0.53806 0.0
C881 C 0.38362 0.56407 0.54939 0.0
C882 C 0.35987 0.5834 0.41285 0.0
C883 C 0.37321 0.55608 0.46833 0.0
C884 C 0.36784 0.59185 0.37473 0.0
C885 C 0.38931 0.57689 0.34839 0.0
C886 C 0.37372 0.55995 0.42507 0.0
C887 C 0.40047 0.55183 0.36017 0.0
C888 C 0.35183 0.5684 0.49763 0.0
C889 C 0.4023 0.54786 0.52006 0.0
N890 N 0.39308 0.54457 0.39803 0.0
N891 N 0.3971 0.54505 0.48065 0.0
H892 H 0.25165 0.63555 0.25253 0.0
H893 H 0.19462 0.57625 1.04438 0.0
H894 H 0.19398 0.56193 0.23259 0.0
H895 H 0.23284 0.66102 0.07275 0.0
H896 H 0.21231 0.56102 0.10455 0.0
H897 H 0.26298 0.63416 0.1794 0.0
C898 C 0.24195 0.61862 0.23282 0.0
C899 C 0.22094 0.59955 0.24855 0.0
C900 C 0.21745 0.58273 0.09702 0.0
C901 C 0.23386 0.59782 0.16523 0.0
C902 C 0.2072 0.59149 0.06287 0.0
C903 C 0.21141 0.62025 0.05441 0.0
C904 C 0.23177 0.60295 0.12297 0.0
C905 C 0.22871 0.63878 0.07848 0.0
C906 C 0.2485 0.61779 0.19113 0.0
C907 C 0.20989 0.57741 0.22182 0.0
N908 N 0.2377 0.63001 0.11226 0.0
N909 N 0.21592 0.5776 0.18135 0.0
H910 H 0.24379 0.35932 0.75011 0.0
H911 H 0.15962 0.44842 0.91543 0.0
H912 H 0.16917 0.40658 0.73131 0.0
H913 H 0.24719 0.42337 0.92302 0.0
H914 H 0.17113 0.45115 0.84383 0.0
H915 H 0.25505 0.39716 0.80321 0.0
C916 C 0.23031 0.37825 0.75642 0.0
C917 C 0.2051 0.37962 0.73743 0.0
C918 C 0.18823 0.44598 0.86121 0.0
C919 C 0.21675 0.42216 0.79961 0.0
C920 C 0.18167 0.44457 0.9025 0.0
C921 C 0.20204 0.4339 0.92485 0.0
C922 C 0.21494 0.43572 0.8422 0.0
C923 C 0.23033 0.43 0.90632 0.0
C924 C 0.23669 0.39995 0.78678 0.0
C925 C 0.18853 0.40463 0.74604 0.0
N926 N 0.23571 0.4298 0.86568 0.0
N927 N 0.19404 0.42453 0.77764 0.0
H928 H 0.09718 0.27652 0.13072 0.0
H929 H 0.96264 0.23093 0.27289 0.0
H930 H 0.00981 0.30193 0.12374 0.0
H931 H 0.04988 0.20852 0.28595 0.0
H932 H 0.98111 0.26857 0.23211 0.0
H933 H 0.08133 0.25623 0.19365 0.0
C934 C 0.07444 0.27669 0.14169 0.0
C935 C 0.05453 0.29026 0.12204 0.0
C936 C -0.00367 0.256 0.24482 0.0
C937 C 0.03663 0.26911 0.19475 0.0
C938 C 0.98574 0.23498 0.26907 0.0
C939 C 0.00499 0.21536 0.27976 0.0
C940 C 0.02607 0.257 0.23226 0.0
C941 C 0.03451 0.22238 0.27586 0.0
C942 C 0.06556 0.26606 0.1782 0.0
C943 C 0.02557 0.29111 0.13798 0.0
N944 N 0.04443 0.2417 0.25029 0.0
N945 N 0.01745 0.28081 0.17361 0.0
H946 H -0.00019 0.73507 0.3505 0.0
H947 H 0.08683 0.75405 0.52533 0.0
H948 H 0.98695 0.8143 0.43114 0.0
H949 H 0.04753 0.67158 0.48754 0.0
H950 H 0.0469 0.77848 0.50274 0.0
H951 H 0.01852 0.71277 0.40434 0.0
C952 C 0.001 0.74771 0.37966 0.0
C953 C -0.00867 0.77617 0.38687 0.0
C954 C 0.04622 0.75506 0.50127 0.0
C955 C 0.01245 0.75101 0.44856 0.0
C956 C 0.06888 0.74112 0.51444 0.0
C957 C 0.07094 0.71094 0.50606 0.0
C958 C 0.02628 0.73833 0.47948 0.0
C959 C 0.04705 0.695 0.49306 0.0
C960 C 0.01123 0.73493 0.41051 0.0
C961 C -0.00581 0.79215 0.42462 0.0
N962 N 0.02611 0.70894 0.47826 0.0
N963 N 0.00468 0.77933 0.45431 0.0
H964 H 0.45503 0.73497 0.76198 0.0
H965 H 0.60027 0.80162 0.66616 0.0
H966 H 0.53906 0.70875 0.78511 0.0
H967 H 0.51855 0.79263 0.61564 0.0
H968 H 0.5773 0.78369 0.72793 0.0
H969 H 0.47728 0.77704 0.73327 0.0
C970 C 0.47798 0.739 0.76322 0.0
C971 C 0.49564 0.7179 0.77377 0.0
C972 C 0.56443 0.78602 0.70342 0.0
C973 C 0.52099 0.76483 0.74022 0.0
C974 C 0.57755 0.79565 0.668 0.0
C975 C 0.56104 0.79877 0.63614 0.0
C976 C 0.53477 0.7794 0.70657 0.0
C977 C 0.53177 0.79099 0.63994 0.0
C978 C 0.49072 0.76275 0.74625 0.0
C979 C 0.52507 0.72423 0.77555 0.0
N980 N 0.51953 0.78159 0.67458 0.0
N981 N 0.5372 0.74671 0.75724 0.0
H982 H 0.55392 0.16859 0.98765 0.0
H983 H 0.48752 0.31222 0.93723 0.0
H984 H 0.58632 0.25315 1.03092 0.0
H985 H 0.50256 0.2321 0.85924 0.0
H986 H 0.50507 0.28985 0.9928 0.0
H987 H 0.51136 0.19103 0.96905 0.0
C988 C 0.55124 0.19172 0.99554 0.0
C989 C 0.57405 0.20942 1.00865 0.0
C990 C 0.50398 0.27718 0.96362 0.0
C991 C 0.52639 0.23489 0.98694 0.0
C992 C 0.49463 0.28998 0.93181 0.0
C993 C 0.49337 0.27366 0.89392 0.0
C994 C 0.5119 0.24802 0.95714 0.0
C995 C 0.50262 0.24505 0.88833 0.0
C996 C 0.5271 0.20455 0.98455 0.0
C997 C 0.56943 0.23911 1.01916 0.0
N998 N 0.5115 0.23309 0.91967 0.0
N999 N 0.54644 0.25128 1.00652 0.0
H1000 H 0.94606 0.78329 0.95441 0.0
H1001 H 0.06619 0.72354 0.82897 0.0
H1002 H -0.00967 0.82805 0.85988 0.0
H1003 H 0.00124 0.6722 0.89054 0.0
H1004 H 0.02825 0.75506 0.81507 0.0
H1005 H 0.94891 0.73847 0.90859 0.0
C1006 C 0.95558 0.78381 0.92356 0.0
C1007 C 0.96988 0.80864 0.91162 0.0
C1008 C 0.02206 0.73623 0.83033 0.0
C1009 C 0.97511 0.75761 0.8603 0.0
C1010 C 0.04386 0.71849 0.8386 0.0
C1011 C 0.03681 0.69633 0.86276 0.0
C1012 C -0.0065 0.73207 0.8477 0.0
C1013 C 0.00761 0.68983 0.87318 0.0
C1014 C 0.95726 0.75822 0.89715 0.0
C1015 C 0.98061 0.80869 0.87088 0.0
N1016 N 0.98702 0.70798 0.86635 0.0
N1017 N 0.98415 0.78317 0.84691 0.0
H1018 H 0.61189 0.79721 0.08916 0.0
H1019 H 0.45531 0.78366 0.17149 0.0
H1020 H 0.56806 0.83968 0.19938 0.0
H1021 H 0.50711 0.71996 0.09408 0.0
H1022 H 0.48618 0.82192 0.14673 0.0
H1023 H 0.56626 0.79218 0.05951 0.0
C1024 C 0.59285 0.80669 0.10655 0.0
C1025 C 0.59306 0.81706 0.1477 0.0
C1026 C 0.49026 0.79968 0.13399 0.0
C1027 C 0.54128 0.81104 0.11415 0.0
C1028 C 0.47283 0.77774 0.14846 0.0
C1029 C 0.47954 0.74861 0.13608 0.0
C1030 C 0.51561 0.79228 0.1091 0.0
C1031 C 0.50202 0.74219 0.10558 0.0
C1032 C 0.56682 0.80392 0.08942 0.0
C1033 C 0.56829 0.83006 0.16825 0.0
N1034 N 0.51996 0.76393 0.09398 0.0
N1035 N 0.54297 0.82591 0.15158 0.0
H1036 H 0.55144 0.22393 0.46587 0.0
H1037 H 0.43097 0.28145 0.49652 0.0
H1038 H 0.53926 0.19069 0.34282 0.0
H1039 H 0.46165 0.31034 0.38193 0.0
H1040 H 0.44893 0.23329 0.47137 0.0
H1041 H 0.50387 0.24549 0.47312 0.0
C1042 C 0.53874 0.2214 0.44032 0.0
C1043 C 0.54887 0.20549 0.40383 0.0
C1044 C 0.45033 0.2498 0.45097 0.0
C1045 C 0.49427 0.22899 0.41215 0.0
C1046 C 0.44 0.2773 0.46525 0.0
C1047 C 0.44753 0.30018 0.44236 0.0
C1048 C 0.46832 0.24626 0.41443 0.0
C1049 C 0.45759 0.29341 0.40146 0.0
C1050 C 0.5113 0.23287 0.44476 0.0
C1051 C 0.53166 0.20265 0.37155 0.0
N1052 N 0.46927 0.26708 0.38911 0.0
N1053 N 0.50519 0.21481 0.37615 0.0
H1054 H 0.10151 0.33116 0.63264 0.0
H1055 H 0.00794 0.24379 0.74848 0.0
H1056 H 0.08104 0.35679 0.76014 0.0
H1057 H 0.98285 0.25485 0.63097 0.0
H1058 H 0.02989 0.29189 0.75276 0.0
H1059 H 0.0514 0.31674 0.62727 0.0
C1060 C 0.0861 0.33531 0.65917 0.0
C1061 C 0.09555 0.34265 0.69755 0.0
C1062 C 0.01916 0.28417 0.72623 0.0
C1063 C 0.03902 0.32561 0.69186 0.0
C1064 C 0.00725 0.2564 0.72344 0.0
C1065 C -0.00585 0.24535 0.68904 0.0
C1066 C 0.01906 0.30058 0.69364 0.0
C1067 C -0.00666 0.26267 0.65768 0.0
C1068 C 0.05739 0.32695 0.65612 0.0
C1069 C 0.07473 0.34915 0.73043 0.0
N1070 N 0.00628 0.28933 0.66027 0.0
N1071 N 0.04734 0.33908 0.72736 0.0
H1072 H 0.97279 0.06442 0.18305 0.0
H1073 H 0.04016 0.93603 1.02295 0.0
H1074 H 0.06422 0.05146 0.15401 0.0
H1075 H 0.95882 0.97426 1.01033 0.0
H1076 H 0.04546 0.97099 0.08283 0.0
H1077 H 0.96354 0.0242 0.13059 0.0
C1078 C -0.00919 0.05294 0.16603 0.0
C1079 C 0.01925 0.0615 0.17241 0.0
C1080 C 0.02639 0.97161 0.06703 0.0
C1081 C 0.00901 0.0153 0.11364 0.0
C1082 C 0.02337 0.9517 1.03296 0.0
C1083 C -0.00074 0.95264 1.01146 0.0
C1084 C 0.00493 0.99228 0.07999 0.0
C1085 C 0.97796 0.97318 1.02583 0.0
C1086 C 0.98557 0.03009 0.13617 0.0
C1087 C 0.04193 0.04576 0.14977 0.0
N1088 N 0.98129 0.99226 0.05926 0.0
N1089 N 0.03633 0.02344 0.12151 0.0
H1090 H 0.20536 0.72313 0.34915 0.0
H1091 H 0.36858 0.69096 0.31749 0.0
H1092 H 0.24352 0.67775 0.43461 0.0
H1093 H 0.31933 0.69625 0.2169 0.0
H1094 H 0.32373 0.68142 0.35966 0.0
H1095 H 0.24617 0.70993 0.29899 0.0
C1096 C 0.22226 0.71 0.3571 0.0
C1097 C 0.22127 0.70169 0.39608 0.0
C1098 C 0.32277 0.68368 0.32802 0.0
C1099 C 0.26861 0.68719 0.33916 0.0
C1100 C 0.34838 0.68893 0.30392 0.0
C1101 C 0.34755 0.69407 0.26367 0.0
C1102 C 0.29614 0.68466 0.31203 0.0
C1103 C 0.32084 0.69199 0.24768 0.0
C1104 C 0.24551 0.70236 0.32841 0.0
C1105 C 0.24356 0.68455 0.40482 0.0
N1106 N 0.29612 0.6881 0.27214 0.0
N1107 N 0.26676 0.67845 0.37687 0.0
H1108 H 0.59087 0.03924 0.4025 0.0
H1109 H 0.53656 0.91775 0.48991 0.0
H1110 H 0.56517 0.0811 0.5223 0.0
H1111 H 0.57251 0.95677 0.59747 0.0
H1112 H 0.55187 0.9607 0.45655 0.0
H1113 H 0.59021 0.99235 0.43002 0.0
C1114 C 0.58604 0.03864 0.43474 0.0
C1115 C 0.57806 0.06389 0.46031 0.0
C1116 C 0.55689 0.95965 0.48718 0.0
C1117 C 0.57662 0.01074 0.49164 0.0
C1118 C 0.54785 0.93536 0.50633 0.0
C1119 C 0.55333 0.93388 0.54637 0.0
C1120 C 0.57077 0.98294 0.50868 0.0
C1121 C 0.568 0.95716 0.56648 0.0
C1122 C 0.58522 0.01192 0.4503 0.0
C1123 C 0.57146 0.062 0.50173 0.0
N1124 N 0.57574 0.98103 0.54766 0.0
N1125 N 0.57078 0.03586 0.51614 0.0
H1126 H 0.35863 0.29867 0.8199 0.0
H1127 H 0.2256 0.24358 0.70099 0.0
H1128 H 0.35529 0.21116 0.76073 0.0
H1129 H 0.26563 0.32702 0.68646 0.0
H1130 H 0.26602 0.23188 0.73789 0.0
H1131 H 0.31721 0.31045 0.78547 0.0
C1132 C 0.34924 0.282 0.79968 0.0
C1133 C 0.36073 0.25411 0.79254 0.0
C1134 C 0.26579 0.25274 0.72663 0.0
C1135 C 0.31275 0.26695 0.75471 0.0
C1136 C 0.24283 0.25942 0.70576 0.0
C1137 C 0.24255 0.28617 0.6905 0.0
C1138 C 0.28799 0.27335 0.73324 0.0
C1139 C 0.26526 0.30605 0.6975 0.0
C1140 C 0.32558 0.28867 0.78023 0.0
C1141 C 0.34726 0.23304 0.76673 0.0
N1142 N 0.28698 0.29937 0.71872 0.0
N1143 N 0.32381 0.23982 0.74894 0.0
H1144 H 0.74935 0.19326 0.93955 0.0
H1145 H 0.81643 0.20602 0.71139 0.0
H1146 H 0.70768 0.23406 0.85271 0.0
H1147 H 0.86934 0.19279 0.80564 0.0
H1148 H 0.77342 0.2041 0.75957 0.0
H1149 H 0.79054 0.18176 0.88786 0.0
C1150 C 0.74872 0.19936 0.90946 0.0
C1151 C 0.72524 0.2147 0.90028 0.0
C1152 C 0.7944 0.2013 0.76968 0.0
C1153 C 0.77186 0.20158 0.84129 0.0
C1154 C 0.81898 0.20227 0.74211 0.0
C1155 C 0.84658 0.20003 0.75463 0.0
C1156 C 0.79727 0.19798 0.81022 0.0
C1157 C 0.84849 0.19489 0.79479 0.0
C1158 C 0.7722 0.19292 0.88009 0.0
C1159 C 0.72548 0.22232 0.86101 0.0
N1160 N 0.82419 0.19436 0.8213 0.0
N1161 N 0.74834 0.2157 0.83305 0.0
H1162 H 0.84453 0.79282 0.341 0.0
H1163 H 0.723 0.73943 0.20016 0.0
H1164 H 0.85305 0.71278 0.26116 0.0
H1165 H 0.75823 0.82623 0.19858 0.0
H1166 H 0.76079 0.7285 0.2418 0.0
H1167 H 0.80245 0.80458 0.30744 0.0
C1168 C 0.83746 0.7777 0.31666 0.0
C1169 C 0.85267 0.75218 0.30303 0.0
C1170 C 0.75996 0.74998 0.23258 0.0
C1171 C 0.80429 0.76483 0.26618 0.0
C1172 C 0.73851 0.75623 0.20897 0.0
C1173 C 0.73785 0.78363 0.19569 0.0
C1174 C 0.78019 0.77156 0.24391 0.0
C1175 C 0.75833 0.80473 0.20793 0.0
C1176 C 0.81354 0.78439 0.29771 0.0
C1177 C 0.84221 0.73292 0.2721 0.0
N1178 N 0.77869 0.79831 0.23164 0.0
N1179 N 0.8186 0.73961 0.25471 0.0
H1180 H 0.45957 0.5668 0.67625 0.0
H1181 H 0.52629 0.43353 0.52409 0.0
H1182 H 0.55081 0.55095 0.65231 0.0
H1183 H 0.44624 0.4727 0.50748 0.0
H1184 H 0.53184 0.47003 0.58226 0.0
H1185 H 0.45044 0.52571 0.62506 0.0
C1186 C 0.47755 0.55447 0.66075 0.0
C1187 C 0.50594 0.56246 0.66813 0.0
C1188 C 0.51303 0.47055 0.56592 0.0
C1189 C 0.49582 0.51536 0.61059 0.0
C1190 C 0.50991 0.44977 0.53275 0.0
C1191 C 0.48603 0.45039 0.51069 0.0
C1192 C 0.49189 0.49178 0.57744 0.0
C1193 C 0.46522 0.47174 0.5234 0.0
C1194 C 0.47239 0.53113 0.63149 0.0
C1195 C 0.52857 0.54569 0.64727 0.0
N1196 N 0.46859 0.49162 0.556 0.0
N1197 N 0.52304 0.52295 0.61955 0.0
H1198 H 0.09237 0.58613 1.01534 0.0
H1199 H 0.09732 0.45153 0.08496 0.0
H1200 H 0.08307 0.53868 0.89872 0.0
H1201 H 0.04321 0.42707 0.98919 0.0
H1202 H 0.11307 0.4951 0.05335 0.0
H1203 H 0.09661 0.54037 1.04317 0.0
C1204 C 0.09273 0.56603 0.99519 0.0
C1205 C 0.08805 0.56608 0.95457 0.0
C1206 C 0.09778 0.48021 1.03922 0.0
C1207 C 0.09158 0.51352 0.98634 0.0
C1208 C 0.08896 0.45527 0.05707 0.0
C1209 C 0.06884 0.43587 1.03967 0.0
C1210 C 0.08625 0.48576 1.00382 0.0
C1211 C 0.05861 0.44166 1.00364 0.0
C1212 C 0.09496 0.53984 1.0111 0.0
C1213 C 0.08738 0.53947 0.92999 0.0
N1214 N 0.06739 0.4661 0.98692 0.0
N1215 N 0.08837 0.51421 0.94649 0.0
H1216 H 0.05973 0.14337 0.47355 0.0
H1217 H 0.17575 0.20153 0.62327 0.0
H1218 H 0.15208 0.13864 0.4433 0.0
H1219 H 0.09298 0.23956 0.61951 0.0
H1220 H 0.16224 0.16095 0.5741 0.0
H1221 H 0.06772 0.16033 0.54357 0.0
C1222 C 0.08166 0.14534 0.48175 0.0
C1223 C 0.10533 0.14068 0.45223 0.0
C1224 C 0.14673 0.1777 0.58517 0.0
C1225 C 0.11443 0.15934 0.53217 0.0
C1226 C 0.15436 0.20068 0.61315 0.0
C1227 C 0.13543 0.22371 0.62472 0.0
C1228 C 0.11995 0.17793 0.56945 0.0
C1229 C 0.10811 0.22211 0.61078 0.0
C1230 C 0.08614 0.15477 0.52172 0.0
C1231 C 0.1332 0.1424 0.46488 0.0
N1232 N 0.10123 0.19968 0.58345 0.0
N1233 N 0.13703 0.15221 0.50384 0.0
H1234 H 0.15191 0.78228 0.71879 0.0
H1235 H 0.08141 0.91356 0.86238 0.0
H1236 H 0.15237 0.87011 0.68909 0.0
H1237 H 0.08698 0.82838 0.89893 0.0
H1238 H 0.11742 0.90042 0.80531 0.0
H1239 H 0.13724 0.80018 0.78948 0.0
C1240 C 0.14926 0.80536 0.7272 0.0
C1241 C 0.15283 0.82466 0.69778 0.0
C1242 C 0.11146 0.88474 0.82629 0.0
C1243 C 0.13622 0.8453 0.77866 0.0
C1244 C 0.09108 0.89238 0.85905 0.0
C1245 C 0.08133 0.87196 0.88508 0.0
C1246 C 0.12141 0.85616 0.81884 0.0
C1247 C 0.09418 0.84472 0.87947 0.0
C1248 C 0.1411 0.81559 0.76763 0.0
C1249 C 0.14982 0.85439 0.7106 0.0
N1250 N 0.1131 0.83731 0.84626 0.0
N1251 N 0.14125 0.86372 0.7499 0.0
H1252 H 0.35773 0.83291 1.00596 0.0
H1253 H 0.48123 0.86821 0.83313 0.0
H1254 H 0.4479 0.84505 1.02379 0.0
H1255 H 0.39383 0.84363 0.80993 0.0
H1256 H 0.46773 0.86642 0.90509 0.0
H1257 H 0.36876 0.84433 0.93635 0.0
C1258 C 0.37974 0.8385 0.99541 0.0
C1259 C 0.40201 0.83778 1.0204 0.0
C1260 C 0.45145 0.86153 0.88431 0.0
C1261 C 0.41481 0.85048 0.94102 0.0
C1262 C 0.4592 0.86234 0.84316 0.0
C1263 C 0.43872 0.85569 0.81537 0.0
C1264 C 0.42298 0.85401 0.89794 0.0
C1265 C 0.41029 0.849 0.83028 0.0
C1266 C 0.38607 0.84478 0.95566 0.0
C1267 C 0.43019 0.84496 1.00524 0.0
N1268 N 0.4033 0.84815 0.87056 0.0
N1269 N 0.43582 0.85081 0.96646 0.0
H1270 H 0.44793 0.07756 0.2053 0.0
H1271 H 0.41315 0.19045 0.0561 0.0
H1272 H 0.43692 0.16923 0.24044 0.0
H1273 H 0.44361 0.10398 1.01536 0.0
H1274 H 0.4106 0.17962 0.12582 0.0
H1275 H 0.43472 0.08361 0.13783 0.0
C1276 C 0.4421 0.09882 0.19898 0.0
C1277 C 0.44382 0.12303 0.22798 0.0
C1278 C 0.41761 0.16292 0.10163 0.0
C1279 C 0.42902 0.13014 0.15144 0.0
C1280 C 0.41925 0.16914 0.06188 0.0
C1281 C 0.4292 0.14825 1.03004 0.0
C1282 C 0.42604 0.13564 0.10963 0.0
C1283 C 0.43597 0.12072 1.03909 0.0
C1284 C 0.43477 0.10229 0.16054 0.0
C1285 C 0.43624 0.15014 0.21851 0.0
N1286 N 0.43459 0.11529 0.07819 0.0
N1287 N 0.42941 0.15303 0.18088 0.0
H1288 H 0.91366 0.84046 0.4668 0.0
H1289 H 0.96505 0.80178 0.67635 0.0
H1290 H 0.93723 0.75467 0.48662 0.0
H1291 H 0.93968 0.88745 0.65852 0.0
H1292 H 0.9547 0.78434 0.60735 0.0
H1293 H 0.92242 0.85798 0.53668 0.0
C1294 C 0.92035 0.82517 0.48582 0.0
C1295 C 0.92446 0.79588 0.47037 0.0
C1296 C 0.95139 0.80697 0.61847 0.0
C1297 C 0.93499 0.81609 0.551 0.0
C1298 C 0.95719 0.81701 0.65819 0.0
C1299 C 0.95329 0.8463 0.67398 0.0
C1300 C 0.94147 0.82619 0.59374 0.0
C1301 C 0.94349 0.86482 0.64802 0.0
C1302 C 0.92552 0.83528 0.52583 0.0
C1303 C 0.93352 0.77736 0.49684 0.0
N1304 N 0.93792 0.8545 0.60953 0.0
N1305 N 0.93851 0.78773 0.53548 0.0
H1306 H 0.9065 0.21085 0.55298 0.0
H1307 H 0.01714 0.12418 0.38875 0.0
H1308 H 0.9585 0.14352 0.58473 0.0
H1309 H 0.93518 0.15032 0.35718 0.0
H1310 H -3e-05 0.13631 0.46064 0.0
H1311 H 0.92022 0.19436 0.48099 0.0
C1312 C 0.92056 0.19246 0.5449 0.0
C1313 C 0.93107 0.17842 0.57521 0.0
C1314 C 0.98566 0.1391 0.43796 0.0
C1315 C 0.94764 0.16002 0.49264 0.0
C1316 C -0.00456 0.13216 0.39686 0.0
C1317 C 0.9775 0.13584 0.36662 0.0
C1318 C 0.95801 0.1507 0.44916 0.0
C1319 C 0.94966 0.14666 0.37926 0.0
C1320 C 0.92839 0.18306 0.50378 0.0
C1321 C 0.94951 0.15483 0.56264 0.0
N1322 N 0.94095 0.15404 0.41935 0.0
N1323 N 0.95748 0.14668 0.52254 0.0
H1324 H 0.61685 0.21652 0.10711 0.0
H1325 H 0.64976 0.12285 0.27781 0.0
H1326 H 0.67511 0.14512 0.07535 0.0
H1327 H 0.56303 0.14858 0.26695 0.0
H1328 H 0.66465 0.13626 0.20951 0.0
H1329 H 0.60249 0.19864 0.17223 0.0
C1330 C 0.627 0.1973 0.11397 0.0
C1331 C 0.64747 0.18248 0.08552 0.0
C1332 C 0.64231 0.13861 0.22197 0.0
C1333 C 0.63101 0.1619 0.16078 0.0
C1334 C 0.63376 0.13092 0.2609 0.0
C1335 C 0.60497 0.13421 0.27814 0.0
C1336 C 0.62222 0.15075 0.20058 0.0
C1337 C 0.58532 0.1452 0.25484 0.0
C1338 C 0.61851 0.18695 0.15111 0.0
C1339 C 0.65935 0.15732 0.09625 0.0
N1340 N 0.59438 0.1535 0.21775 0.0
N1341 N 0.65123 0.14802 0.13314 0.0
H1342 H 0.54296 0.85969 0.73822 0.0
H1343 H 0.67687 0.84396 0.8675 0.0
H1344 H 0.63186 0.86939 0.69024 0.0
H1345 H 0.58805 0.82815 0.91162 0.0
H1346 H 0.66095 0.85443 0.80354 0.0
H1347 H 0.55903 0.85015 0.80244 0.0
C1348 C 0.56589 0.86015 0.74113 0.0
C1349 C 0.58596 0.86552 0.70825 0.0
C1350 C 0.64492 0.84866 0.82718 0.0
C1351 C 0.60475 0.85434 0.78273 0.0
C1352 C 0.65403 0.84239 0.86389 0.0
C1353 C 0.63394 0.83496 0.89571 0.0
C1354 C 0.61535 0.84768 0.82167 0.0
C1355 C 0.60454 0.83409 0.88869 0.0
C1356 C 0.57508 0.85455 0.77803 0.0
C1357 C 0.61544 0.86561 0.71448 0.0
N1358 N 0.59624 0.84032 0.85274 0.0
N1359 N 0.62386 0.86008 0.75071 0.0
H1360 H 0.66279 0.62966 0.90605 0.0
H1361 H 0.61519 0.69418 0.13105 0.0
H1362 H 0.57475 0.631 0.96146 0.0
H1363 H 0.6977 0.70797 0.06436 0.0
H1364 H 0.60476 0.65442 0.07897 0.0
H1365 H 0.67953 0.64047 0.9727 0.0
C1366 C 0.64694 0.63147 0.93226 0.0
C1367 C 0.61725 0.63034 0.92803 0.0
C1368 C 0.62554 0.66551 0.07648 0.0
C1369 C 0.63635 0.64351 1.00441 0.0
C1370 C 0.63153 0.68801 0.10625 0.0
C1371 C 0.65706 0.70443 0.10123 0.0
C1372 C 0.64534 0.6597 1.04192 0.0
C1373 C 0.67756 0.69593 0.06869 0.0
C1374 C 0.65655 0.6378 0.97038 0.0
C1375 C 0.59782 0.63282 0.96325 0.0
N1376 N 0.67107 0.67441 1.03986 0.0
N1377 N 0.60768 0.63996 0.99997 0.0
H1378 H 0.56472 0.40554 0.37526 0.0
H1379 H 0.63586 0.27987 0.21931 0.0
H1380 H 0.56464 0.31654 0.39891 0.0
H1381 H 0.63809 0.3701 0.2001 0.0
H1382 H 0.61851 0.29373 0.29031 0.0
H1383 H 0.60114 0.3944 0.31793 0.0
C1384 C 0.57325 0.38384 0.36907 0.0
C1385 C 0.56199 0.36192 0.39167 0.0
C1386 C 0.62326 0.31054 0.27072 0.0
C1387 C 0.60248 0.34856 0.32509 0.0
C1388 C 0.63297 0.30262 0.23011 0.0
C1389 C 0.63791 0.32381 0.20349 0.0
C1390 C 0.61825 0.33984 0.28478 0.0
C1391 C 0.63452 0.353 0.21939 0.0
C1392 C 0.59382 0.37737 0.33615 0.0
C1393 C 0.57316 0.33402 0.38227 0.0
N1394 N 0.6245 0.36009 0.2588 0.0
N1395 N 0.59244 0.32795 0.34906 0.0
H1396 H 0.0011 0.36517 0.3343 0.0
H1397 H 0.87968 0.33877 0.51429 0.0
H1398 H 0.9097 0.3618 0.32167 0.0
H1399 H 0.9712 0.33979 0.52562 0.0
H1400 H 0.89007 0.35043 0.44495 0.0
H1401 H -0.00958 0.35861 0.40555 0.0
C1402 C 0.97877 0.36294 0.34648 0.0
C1403 C 0.95625 0.36383 0.32189 0.0
C1404 C 0.90788 0.34829 0.46268 0.0
C1405 C 0.94385 0.35667 0.40366 0.0
C1406 C 0.90196 0.34157 0.50221 0.0
C1407 C 0.92462 0.33817 0.52569 0.0
C1408 C 0.93668 0.35151 0.4464 0.0
C1409 C 0.95306 0.34246 0.50874 0.0
C1410 C 0.97268 0.35939 0.38726 0.0
C1411 C 0.92772 0.36145 0.33956 0.0
N1412 N 0.95828 0.34871 0.47004 0.0
N1413 N 0.92234 0.35785 0.37932 0.0
H1414 H 0.02156 0.60672 0.69044 0.0
H1415 H 0.9183 0.60729 0.5147 0.0
H1416 H 0.93129 0.58228 0.70479 0.0
H1417 H 0.00111 0.65123 0.51673 0.0
H1418 H 0.92569 0.58849 0.57813 0.0
H1419 H 0.01742 0.61288 0.62006 0.0
C1420 C 0.00089 0.60244 0.67855 0.0
C1421 C 0.97655 0.5946 0.70348 0.0
C1422 C 0.94233 0.60202 0.56443 0.0
C1423 C 0.97164 0.60159 0.62313 0.0
C1424 C 0.93819 0.61264 0.52828 0.0
C1425 C 0.95908 0.631 0.51083 0.0
C1426 C 0.96763 0.60967 0.58284 0.0
C1427 C 0.98437 0.63747 0.52959 0.0
C1428 C -0.00146 0.60593 0.63843 0.0
C1429 C 0.95047 0.58856 0.68647 0.0
N1430 N 0.9879 0.62689 0.56468 0.0
N1431 N 0.94857 0.59258 0.6473 0.0
H1432 H 0.43451 0.38288 0.16297 0.0
H1433 H 0.42968 0.24914 0.98646 0.0
H1434 H 0.44677 0.29394 0.18127 0.0
H1435 H 0.41852 0.338 0.96728 0.0
H1436 H 0.43499 0.26502 0.05765 0.0
H1437 H 0.42834 0.36697 0.092 0.0
C1438 C 0.43617 0.36001 0.15226 0.0
C1439 C 0.44135 0.33989 0.17894 0.0
C1440 C 0.43121 0.2811 1.03804 0.0
C1441 C 0.4337 0.3213 0.09655 0.0
C1442 C 0.42806 0.272 0.99712 0.0
C1443 C 0.42346 0.29212 0.97025 0.0
C1444 C 0.42978 0.31072 0.0529 0.0
C1445 C 0.42178 0.32152 0.9865 0.0
C1446 C 0.43239 0.3509 0.11149 0.0
C1447 C 0.44252 0.31044 0.16258 0.0
N1448 N 0.42498 0.32985 1.02646 0.0
N1449 N 0.4388 0.30215 0.1228 0.0
H1450 H 0.43887 0.72991 0.05617 0.0
H1451 H 0.43011 0.6153 0.86031 0.0
H1452 H 0.40341 0.64432 0.06842 0.0
H1453 H 0.50383 0.67248 0.87517 0.0
H1454 H 0.41241 0.62976 0.93185 0.0
H1455 H 0.45446 0.71412 0.98473 0.0
C1456 C 0.43378 0.70796 1.04371 0.0
C1457 C 0.41956 0.68851 0.06854 0.0
C1458 C 0.43253 0.63897 0.91937 0.0
C1459 C 0.4374 0.67028 0.98624 0.0
C1460 C 0.44268 0.63071 0.87856 0.0
C1461 C 0.46874 0.64236 0.86155 0.0
C1462 C 0.44797 0.65984 0.94312 0.0
C1463 C 0.48388 0.66252 0.88685 0.0
C1464 C 0.44299 0.69889 1.00295 0.0
C1465 C 0.41418 0.66012 0.05053 0.0
N1466 N 0.47315 0.67083 0.92593 0.0
N1467 N 0.42287 0.65194 1.01054 0.0
H1468 H 0.1609 0.71364 0.61583 0.0
H1469 H 0.06167 0.61419 0.75399 0.0
H1470 H 0.12151 0.63505 0.56263 0.0
H1471 H 0.13745 0.65945 0.79483 0.0
H1472 H 0.07722 0.62595 0.68491 0.0
H1473 H 0.14654 0.69891 0.68324 0.0
C1474 C 0.14946 0.69318 0.61823 0.0
C1475 C 0.14288 0.6754 0.58323 0.0
C1476 C 0.09047 0.63306 0.70908 0.0
C1477 C 0.12543 0.65881 0.66075 0.0
C1478 C 0.08162 0.62633 0.74853 0.0
C1479 C 0.09837 0.63546 0.78053 0.0
C1480 C 0.11579 0.64979 0.7017 0.0
C1481 C 0.1239 0.65152 0.77137 0.0
C1482 C 0.14121 0.6848 0.65677 0.0
C1483 C 0.12756 0.64927 0.58857 0.0
N1484 N 0.13157 0.65838 0.73321 0.0
N1485 N 0.11912 0.64194 0.62643 0.0
H1486 H 0.05222 0.38469 0.24547 0.0
H1487 H 0.16527 0.31675 0.37234 0.0
H1488 H 0.13425 0.34988 0.19264 0.0
H1489 H 0.09537 0.37085 0.42998 0.0
H1490 H 0.15177 0.32559 0.30658 0.0
H1491 H 0.0652 0.37704 0.31263 0.0
C1492 C 0.07309 0.37571 0.24784 0.0
C1493 C 0.09222 0.36824 0.21286 0.0
C1494 C 0.13937 0.33559 0.33358 0.0
C1495 C 0.10708 0.35887 0.29035 0.0
C1496 C 0.14719 0.33069 0.37156 0.0
C1497 C 0.13185 0.34329 0.40773 0.0
C1498 C 0.11565 0.35302 0.33089 0.0
C1499 C 0.10794 0.36033 0.40354 0.0
C1500 C 0.08045 0.37127 0.28638 0.0
C1501 C 0.11879 0.35631 0.21838 0.0
N1502 N 0.10066 0.36465 0.36613 0.0
N1503 N 0.12529 0.35192 0.25604 0.0
loop_
_geom_bond_atom_site_label_1
_geom_bond_atom_site_label_2
_geom_bond_distance
_geom_bond_site_symmetry_2
_ccdc_geom_bond_type
C0 Eu1 2.835 . S
C0 C2 1.500 1_455 S
C0 O20 1.257 . S
C0 O21 1.260 . S
Eu1 C0 2.835 . S
Eu1 O20 2.473 . S
Eu1 O21 2.480 . S
Eu1 O22 2.430 . S
Eu1 O23 2.670 . S
Eu1 O24 2.394 . S
Eu1 O29 2.355 . S
Eu1 O31 2.374 . S
C2 C0 1.500 1_655 S
C2 C3 1.377 . S
C2 C7 1.379 . S
C3 C2 1.377 . S
C3 C4 1.395 1_554 S
C3 H32 0.931 . S
C4 C3 1.395 1_556 S
C4 C5 1.383 . S
C4 H33 0.931 . S
C5 C4 1.383 . S
C5 C6 1.394 . S
C6 C5 1.394 . S
C6 C7 1.389 1_556 S
C6 H34 0.931 . S
C7 C2 1.379 . S
C7 C6 1.389 1_554 S
C7 H35 0.918 1_655 S
C8 O22 1.259 . S
C8 O23 1.270 . S
C9 O24 1.251 . S
C9 O25 1.251 . S
C10 Eu11 2.835 . S
C10 C12 1.500 . S
C10 O26 1.257 . S
C10 O27 1.260 . S
Eu11 C10 2.835 . S
Eu11 O23 2.355 . S
Eu11 O25 2.374 . S
Eu11 O26 2.473 . S
Eu11 O27 2.480 . S
Eu11 O28 2.430 . S
Eu11 O29 2.670 . S
Eu11 O30 2.394 . S
C12 C10 1.500 . S
C12 C13 1.377 . S
C12 C17 1.377 . S
C13 C12 1.377 . S
C13 C14 1.395 . S
C13 H36 0.931 . S
C14 C13 1.395 . S
C14 C15 1.383 . S
C14 H37 0.931 . S
C15 C14 1.383 . S
C15 C16 1.394 . S
C16 C15 1.394 . S
C16 C17 1.378 . S
C16 H38 0.931 . S
C17 C12 1.377 . S
C17 C16 1.378 . S
C17 H39 0.931 . S
C18 O28 1.259 . S
C18 O29 1.270 . S
C19 O30 1.251 . S
C19 O31 1.251 . S
O20 C0 1.257 . S
O20 Eu1 2.473 . S
O21 C0 1.260 . S
O21 Eu1 2.480 . S
O22 Eu1 2.430 . S
O22 C8 1.259 . S
O23 Eu1 2.670 . S
O23 C8 1.270 . S
O23 Eu11 2.355 . S
O24 Eu1 2.394 . S
O24 C9 1.251 . S
O25 C9 1.251 . S
O25 Eu11 2.374 . S
O26 C10 1.257 . S
O26 Eu11 2.473 . S
O27 C10 1.260 . S
O27 Eu11 2.480 . S
O28 Eu11 2.430 . S
O28 C18 1.259 . S
O29 Eu1 2.355 . S
O29 Eu11 2.670 . S
O29 C18 1.270 . S
O30 Eu11 2.394 . S
O30 C19 1.251 . S
O31 Eu1 2.374 . S
O31 C19 1.251 . S
H32 C3 0.931 . S
H33 C4 0.931 . S
H34 C6 0.931 . S
H35 C7 0.918 1_455 S
H36 C13 0.931 . S
H37 C14 0.931 . S
H38 C16 0.931 . S
H39 C17 0.931 . S
C40 Eu41 2.835 . S
C40 C42 1.500 . S
C40 O60 1.257 . S
C40 O61 1.260 . S
Eu41 C40 2.835 . S
Eu41 O60 2.473 . S
Eu41 O61 2.480 . S
Eu41 O62 2.430 . S
Eu41 O63 2.670 . S
Eu41 O64 2.394 . S
Eu41 O69 2.355 . S
Eu41 O71 2.374 . S
C42 C40 1.500 . S
C42 C43 1.377 . S
C42 C47 1.377 . S
C43 C42 1.377 . S
C43 C44 1.395 . S
C43 H72 0.931 . S
C44 C43 1.395 . S
C44 C45 1.383 . S
C44 H73 0.931 . S
C45 C44 1.383 . S
C45 C46 1.394 . S
C46 C45 1.394 . S
C46 C47 1.378 . S
C46 H74 0.931 . S
C47 C42 1.377 . S
C47 C46 1.378 . S
C47 H75 0.931 . S
C48 O62 1.259 . S
C48 O63 1.270 . S
C49 O64 1.251 . S
C49 O65 1.251 . S
C50 Eu51 2.835 . S
C50 C52 1.500 . S
C50 O66 1.257 . S
C50 O67 1.260 . S
Eu51 C50 2.835 . S
Eu51 O63 2.355 . S
Eu51 O65 2.374 . S
Eu51 O66 2.473 . S
Eu51 O67 2.480 . S
Eu51 O68 2.430 . S
Eu51 O69 2.670 . S
Eu51 O70 2.394 . S
C52 C50 1.500 . S
C52 C53 1.377 . S
C52 C57 1.377 . S
C53 C52 1.377 . S
C53 C54 1.395 . S
C53 H76 0.931 . S
C54 C53 1.395 . S
C54 C55 1.383 . S
C54 H77 0.931 . S
C55 C54 1.383 . S
C55 C56 1.394 . S
C56 C55 1.394 . S
C56 C57 1.378 . S
C56 H78 0.931 . S
C57 C52 1.377 . S
C57 C56 1.378 . S
C57 H79 0.931 . S
C58 O68 1.259 . S
C58 O69 1.270 . S
C59 O70 1.251 . S
C59 O71 1.251 . S
O60 C40 1.257 . S
O60 Eu41 2.473 . S
O61 C40 1.260 . S
O61 Eu41 2.480 . S
O62 Eu41 2.430 . S
O62 C48 1.259 . S
O63 Eu41 2.670 . S
O63 C48 1.270 . S
O63 Eu51 2.355 . S
O64 Eu41 2.394 . S
O64 C49 1.251 . S
O65 C49 1.251 . S
O65 Eu51 2.374 . S
O66 C50 1.257 . S
O66 Eu51 2.473 . S
O67 C50 1.260 . S
O67 Eu51 2.480 . S
O68 Eu51 2.430 . S
O68 C58 1.259 . S
O69 Eu41 2.355 . S
O69 Eu51 2.670 . S
O69 C58 1.270 . S
O70 Eu51 2.394 . S
O70 C59 1.251 . S
O71 Eu41 2.374 . S
O71 C59 1.251 . S
H72 C43 0.931 . S
H73 C44 0.931 . S
H74 C46 0.931 . S
H75 C47 0.931 . S
H76 C53 0.931 . S
H77 C54 0.931 . S
H78 C56 0.931 . S
H79 C57 0.931 . S
C80 Eu81 2.835 . S
C80 C82 1.500 . S
C80 O100 1.257 . S
C80 O101 1.260 . S
Eu81 C80 2.835 . S
Eu81 O100 2.473 . S
Eu81 O101 2.480 . S
Eu81 O102 2.430 . S
Eu81 O103 2.670 . S
Eu81 O104 2.394 . S
Eu81 O109 2.355 . S
Eu81 O111 2.374 . S
C82 C80 1.500 . S
C82 C83 1.377 . S
C82 C87 1.377 . S
C83 C82 1.377 . S
C83 C84 1.395 . S
C83 H112 0.931 . S
C84 C83 1.395 . S
C84 C85 1.383 . S
C84 H113 0.931 . S
C85 C84 1.383 . S
C85 C86 1.394 . S
C86 C85 1.394 . S
C86 C87 1.378 . S
C86 H114 0.931 . S
C87 C82 1.377 . S
C87 C86 1.378 . S
C87 H115 0.931 . S
C88 O102 1.259 . S
C88 O103 1.270 . S
C89 O104 1.251 . S
C89 O105 1.251 . S
C90 Eu91 2.835 . S
C90 C92 1.500 . S
C90 O106 1.257 . S
C90 O107 1.260 . S
Eu91 C90 2.835 . S
Eu91 O103 2.355 . S
Eu91 O105 2.374 . S
Eu91 O106 2.473 . S
Eu91 O107 2.480 . S
Eu91 O108 2.430 . S
Eu91 O109 2.670 . S
Eu91 O110 2.394 . S
C92 C90 1.500 . S
C92 C93 1.377 . S
C92 C97 1.377 . S
C93 C92 1.377 . S
C93 C94 1.395 . S
C93 H116 0.931 . S
C94 C93 1.395 . S
C94 C95 1.383 . S
C94 H117 0.931 . S
C95 C94 1.383 . S
C95 C96 1.394 . S
C96 C95 1.394 . S
C96 C97 1.378 . S
C96 H118 0.931 . S
C97 C92 1.377 . S
C97 C96 1.378 . S
C97 H119 0.931 . S
C98 O108 1.259 . S
C98 O109 1.270 . S
C99 O110 1.251 . S
C99 O111 1.251 . S
O100 C80 1.257 . S
O100 Eu81 2.473 . S
O101 C80 1.260 . S
O101 Eu81 2.480 . S
O102 Eu81 2.430 . S
O102 C88 1.259 . S
O103 Eu81 2.670 . S
O103 C88 1.270 . S
O103 Eu91 2.355 . S
O104 Eu81 2.394 . S
O104 C89 1.251 . S
O105 C89 1.251 . S
O105 Eu91 2.374 . S
O106 C90 1.257 . S
O106 Eu91 2.473 . S
O107 C90 1.260 . S
O107 Eu91 2.480 . S
O108 Eu91 2.430 . S
O108 C98 1.259 . S
O109 Eu81 2.355 . S
O109 Eu91 2.670 . S
O109 C98 1.270 . S
O110 Eu91 2.394 . S
O110 C99 1.251 . S
O111 Eu81 2.374 . S
O111 C99 1.251 . S
H112 C83 0.931 . S
H113 C84 0.931 . S
H114 C86 0.931 . S
H115 C87 0.931 . S
H116 C93 0.931 . S
H117 C94 0.931 . S
H118 C96 0.931 . S
H119 C97 0.931 . S
C120 Eu121 2.835 . S
C120 C122 1.500 . S
C120 O140 1.257 . S
C120 O141 1.260 . S
Eu121 C120 2.835 . S
Eu121 O140 2.473 . S
Eu121 O141 2.480 . S
Eu121 O142 2.430 . S
Eu121 O143 2.670 . S
Eu121 O144 2.394 . S
Eu121 O149 2.355 . S
Eu121 O151 2.374 . S
C122 C120 1.500 . S
C122 C123 1.377 . S
C122 C127 1.377 . S
C123 C122 1.377 . S
C123 C124 1.395 . S
C123 H152 0.931 . S
C124 C123 1.395 . S
C124 C125 1.383 . S
C124 H153 0.931 . S
C125 C124 1.383 . S
C125 C126 1.394 . S
C126 C125 1.394 . S
C126 C127 1.378 . S
C126 H154 0.931 . S
C127 C122 1.377 . S
C127 C126 1.378 . S
C127 H155 0.931 . S
C128 O142 1.259 . S
C128 O143 1.270 . S
C129 O144 1.251 . S
C129 O145 1.251 . S
C130 Eu131 2.835 . S
C130 C132 1.500 . S
C130 O146 1.257 . S
C130 O147 1.260 . S
Eu131 C130 2.835 . S
Eu131 O143 2.355 . S
Eu131 O145 2.374 . S
Eu131 O146 2.473 . S
Eu131 O147 2.480 . S
Eu131 O148 2.430 . S
Eu131 O149 2.670 . S
Eu131 O150 2.394 . S
C132 C130 1.500 . S
C132 C133 1.377 . S
C132 C137 1.377 . S
C133 C132 1.377 . S
C133 C134 1.395 . S
C133 H156 0.931 . S
C134 C133 1.395 . S
C134 C135 1.383 1_556 S
C134 H157 0.931 . S
C135 C134 1.383 1_554 S
C135 C136 1.394 1_554 S
C136 C135 1.394 1_556 S
C136 C137 1.378 . S
C136 H158 0.931 1_556 S
C137 C132 1.377 . S
C137 C136 1.378 . S
C137 H159 0.931 . S
C138 O148 1.259 . S
C138 O149 1.270 . S
C139 O150 1.251 . S
C139 O151 1.251 . S
O140 C120 1.257 . S
O140 Eu121 2.473 . S
O141 C120 1.260 . S
O141 Eu121 2.480 . S
O142 Eu121 2.430 . S
O142 C128 1.259 . S
O143 Eu121 2.670 . S
O143 C128 1.270 . S
O143 Eu131 2.355 . S
O144 Eu121 2.394 . S
O144 C129 1.251 . S
O145 C129 1.251 . S
O145 Eu131 2.374 . S
O146 C130 1.257 . S
O146 Eu131 2.473 . S
O147 C130 1.260 . S
O147 Eu131 2.480 . S
O148 Eu131 2.430 . S
O148 C138 1.259 . S
O149 Eu121 2.355 . S
O149 Eu131 2.670 . S
O149 C138 1.270 . S
O150 Eu131 2.394 . S
O150 C139 1.251 . S
O151 Eu121 2.374 . S
O151 C139 1.251 . S
H152 C123 0.931 . S
H153 C124 0.931 . S
H154 C126 0.931 . S
H155 C127 0.931 . S
H156 C133 0.931 . S
H157 C134 0.931 . S
H158 C136 0.931 1_554 S
H159 C137 0.931 . S
C160 Eu161 2.835 . S
C160 C162 1.500 . S
C160 O180 1.257 . S
C160 O181 1.260 . S
Eu161 C160 2.835 . S
Eu161 O180 2.473 . S
Eu161 O181 2.480 . S
Eu161 O182 2.430 . S
Eu161 O183 2.670 1_655 S
Eu161 O184 2.394 1_655 S
Eu161 O189 2.355 1_655 S
Eu161 O191 2.374 . S
C162 C160 1.500 . S
C162 C163 1.377 . S
C162 C167 1.377 . S
C163 C162 1.377 . S
C163 C164 1.395 . S
C163 H192 0.931 . S
C164 C163 1.395 . S
C164 C165 1.383 . S
C164 H193 0.931 . S
C165 C164 1.383 . S
C165 C166 1.394 . S
C166 C165 1.394 . S
C166 C167 1.378 . S
C166 H194 0.931 . S
C167 C162 1.377 . S
C167 C166 1.378 . S
C167 H195 0.931 . S
C168 O182 1.259 . S
C168 O183 1.270 1_655 S
C169 O184 1.251 . S
C169 O185 1.251 . S
C170 Eu171 2.835 1_554 S
C170 C172 1.500 . S
C170 O186 1.257 1_554 S
C170 O187 1.260 1_554 S
Eu171 C170 2.835 1_556 S
Eu171 O183 2.355 . S
Eu171 O185 2.374 . S
Eu171 O186 2.473 . S
Eu171 O187 2.480 . S
Eu171 O188 2.430 . S
Eu171 O189 2.670 . S
Eu171 O190 2.395 . S
C172 C170 1.500 . S
C172 C173 1.377 . S
C172 C177 1.377 . S
C173 C172 1.377 . S
C173 C174 1.395 . S
C173 H196 0.931 . S
C174 C173 1.395 . S
C174 C175 1.383 . S
C174 H197 0.931 . S
C175 C174 1.383 . S
C175 C176 1.394 . S
C176 C175 1.394 . S
C176 C177 1.378 . S
C176 H198 0.931 . S
C177 C172 1.377 . S
C177 C176 1.378 . S
C177 H199 0.931 . S
C178 O188 1.259 . S
C178 O189 1.270 . S
C179 O190 1.250 1_655 S
C179 O191 1.251 . S
O180 C160 1.257 . S
O180 Eu161 2.473 . S
O181 C160 1.260 . S
O181 Eu161 2.480 . S
O182 Eu161 2.430 . S
O182 C168 1.259 . S
O183 Eu161 2.670 1_455 S
O183 C168 1.270 1_455 S
O183 Eu171 2.355 . S
O184 Eu161 2.394 1_455 S
O184 C169 1.251 . S
O185 C169 1.251 . S
O185 Eu171 2.374 . S
O186 C170 1.257 1_556 S
O186 Eu171 2.473 . S
O187 C170 1.260 1_556 S
O187 Eu171 2.480 . S
O188 Eu171 2.430 . S
O188 C178 1.259 . S
O189 Eu161 2.355 1_455 S
O189 Eu171 2.670 . S
O189 C178 1.270 . S
O190 Eu171 2.395 . S
O190 C179 1.250 1_455 S
O191 Eu161 2.374 . S
O191 C179 1.251 . S
H192 C163 0.931 . S
H193 C164 0.931 . S
H194 C166 0.931 . S
H195 C167 0.931 . S
H196 C173 0.931 . S
H197 C174 0.931 . S
H198 C176 0.931 . S
H199 C177 0.931 . S
C200 Eu201 2.835 . S
C200 C202 1.500 . S
C200 O220 1.257 . S
C200 O221 1.260 . S
Eu201 C200 2.835 . S
Eu201 O220 2.473 . S
Eu201 O221 2.480 . S
Eu201 O222 2.430 . S
Eu201 O223 2.670 . S
Eu201 O224 2.394 . S
Eu201 O229 2.355 . S
Eu201 O231 2.374 . S
C202 C200 1.500 . S
C202 C203 1.377 . S
C202 C207 1.377 . S
C203 C202 1.377 . S
C203 C204 1.395 . S
C203 H232 0.931 . S
C204 C203 1.395 . S
C204 C205 1.383 . S
C204 H233 0.931 . S
C205 C204 1.383 . S
C205 C206 1.394 . S
C206 C205 1.394 . S
C206 C207 1.378 . S
C206 H234 0.931 . S
C207 C202 1.377 . S
C207 C206 1.378 . S
C207 H235 0.931 . S
C208 O222 1.259 . S
C208 O223 1.270 . S
C209 O224 1.251 . S
C209 O225 1.251 . S
C210 Eu211 2.835 . S
C210 C212 1.500 . S
C210 O226 1.257 . S
C210 O227 1.260 . S
Eu211 C210 2.835 . S
Eu211 O223 2.355 . S
Eu211 O225 2.374 . S
Eu211 O226 2.473 . S
Eu211 O227 2.480 . S
Eu211 O228 2.430 . S
Eu211 O229 2.670 . S
Eu211 O230 2.394 . S
C212 C210 1.500 . S
C212 C213 1.377 . S
C212 C217 1.377 1_554 S
C213 C212 1.377 . S
C213 C214 1.395 1_554 S
C213 H236 0.931 . S
C214 C213 1.395 1_556 S
C214 C215 1.383 . S
C214 H237 0.931 . S
C215 C214 1.383 . S
C215 C216 1.394 . S
C216 C215 1.394 . S
C216 C217 1.378 . S
C216 H238 0.931 . S
C217 C212 1.377 1_556 S
C217 C216 1.378 . S
C217 H239 0.931 1_556 S
C218 O228 1.259 . S
C218 O229 1.270 . S
C219 O230 1.251 . S
C219 O231 1.251 . S
O220 C200 1.257 . S
O220 Eu201 2.473 . S
O221 C200 1.260 . S
O221 Eu201 2.480 . S
O222 Eu201 2.430 . S
O222 C208 1.259 . S
O223 Eu201 2.670 . S
O223 C208 1.270 . S
O223 Eu211 2.355 . S
O224 Eu201 2.394 . S
O224 C209 1.251 . S
O225 C209 1.251 . S
O225 Eu211 2.374 . S
O226 C210 1.257 . S
O226 Eu211 2.473 . S
O227 C210 1.260 . S
O227 Eu211 2.480 . S
O228 Eu211 2.430 . S
O228 C218 1.259 . S
O229 Eu201 2.355 . S
O229 Eu211 2.670 . S
O229 C218 1.270 . S
O230 Eu211 2.394 . S
O230 C219 1.251 . S
O231 Eu201 2.374 . S
O231 C219 1.251 . S
H232 C203 0.931 . S
H233 C204 0.931 . S
H234 C206 0.931 . S
H235 C207 0.931 . S
H236 C213 0.931 . S
H237 C214 0.931 . S
H238 C216 0.931 . S
H239 C217 0.931 1_554 S
C240 Eu241 2.835 . S
C240 C242 1.500 . S
C240 O260 1.257 . S
C240 O261 1.260 . S
Eu241 C240 2.835 . S
Eu241 O260 2.473 . S
Eu241 O261 2.480 . S
Eu241 O262 2.430 . S
Eu241 O263 2.670 . S
Eu241 O264 2.394 . S
Eu241 O269 2.355 . S
Eu241 O271 2.374 . S
C242 C240 1.500 . S
C242 C243 1.377 . S
C242 C247 1.377 . S
C243 C242 1.377 . S
C243 C244 1.395 . S
C243 H272 0.931 . S
C244 C243 1.395 . S
C244 C245 1.383 . S
C244 H273 0.931 . S
C245 C244 1.383 . S
C245 C246 1.394 . S
C246 C245 1.394 . S
C246 C247 1.378 . S
C246 H274 0.931 . S
C247 C242 1.377 . S
C247 C246 1.378 . S
C247 H275 0.931 . S
C248 O262 1.259 . S
C248 O263 1.270 . S
C249 O264 1.251 . S
C249 O265 1.251 . S
C250 Eu251 2.835 . S
C250 C252 1.500 . S
C250 O266 1.257 . S
C250 O267 1.260 . S
Eu251 C250 2.835 . S
Eu251 O263 2.355 . S
Eu251 O265 2.374 . S
Eu251 O266 2.473 . S
Eu251 O267 2.480 . S
Eu251 O268 2.430 . S
Eu251 O269 2.670 . S
Eu251 O270 2.394 . S
C252 C250 1.500 . S
C252 C253 1.377 . S
C252 C257 1.377 . S
C253 C252 1.377 . S
C253 C254 1.395 . S
C253 H276 0.931 . S
C254 C253 1.395 . S
C254 C255 1.383 . S
C254 H277 0.931 . S
C255 C254 1.383 . S
C255 C256 1.394 . S
C256 C255 1.394 . S
C256 C257 1.378 . S
C256 H278 0.931 . S
C257 C252 1.377 . S
C257 C256 1.378 . S
C257 H279 0.931 . S
C258 O268 1.259 . S
C258 O269 1.270 . S
C259 O270 1.251 . S
C259 O271 1.251 . S
O260 C240 1.257 . S
O260 Eu241 2.473 . S
O261 C240 1.260 . S
O261 Eu241 2.480 . S
O262 Eu241 2.430 . S
O262 C248 1.259 . S
O263 Eu241 2.670 . S
O263 C248 1.270 . S
O263 Eu251 2.355 . S
O264 Eu241 2.394 . S
O264 C249 1.251 . S
O265 C249 1.251 . S
O265 Eu251 2.374 . S
O266 C250 1.257 . S
O266 Eu251 2.473 . S
O267 C250 1.260 . S
O267 Eu251 2.480 . S
O268 Eu251 2.430 . S
O268 C258 1.259 . S
O269 Eu241 2.355 . S
O269 Eu251 2.670 . S
O269 C258 1.270 . S
O270 Eu251 2.394 . S
O270 C259 1.251 . S
O271 Eu241 2.374 . S
O271 C259 1.251 . S
H272 C243 0.931 . S
H273 C244 0.931 . S
H274 C246 0.931 . S
H275 C247 0.931 . S
H276 C253 0.931 . S
H277 C254 0.931 . S
H278 C256 0.931 . S
H279 C257 0.931 . S
C280 Eu281 2.835 . S
C280 C282 1.500 . S
C280 O300 1.257 . S
C280 O301 1.260 . S
Eu281 C280 2.835 . S
Eu281 O300 2.473 . S
Eu281 O301 2.480 . S
Eu281 O302 2.430 . S
Eu281 O303 2.670 . S
Eu281 O304 2.394 . S
Eu281 O309 2.355 . S
Eu281 O311 2.374 . S
C282 C280 1.500 . S
C282 C283 1.377 . S
C282 C287 1.377 . S
C283 C282 1.377 . S
C283 C284 1.395 . S
C283 H312 0.931 . S
C284 C283 1.395 . S
C284 C285 1.383 . S
C284 H313 0.931 . S
C285 C284 1.383 . S
C285 C286 1.394 . S
C286 C285 1.394 . S
C286 C287 1.378 . S
C286 H314 0.931 . S
C287 C282 1.377 . S
C287 C286 1.378 . S
C287 H315 0.931 . S
C288 O302 1.259 . S
C288 O303 1.270 . S
C289 O304 1.251 . S
C289 O305 1.251 . S
C290 Eu291 2.835 . S
C290 C292 1.500 . S
C290 O306 1.257 . S
C290 O307 1.260 . S
Eu291 C290 2.835 . S
Eu291 O303 2.355 . S
Eu291 O305 2.374 . S
Eu291 O306 2.473 . S
Eu291 O307 2.480 . S
Eu291 O308 2.430 . S
Eu291 O309 2.670 . S
Eu291 O310 2.394 . S
C292 C290 1.500 . S
C292 C293 1.377 . S
C292 C297 1.377 . S
C293 C292 1.377 . S
C293 C294 1.395 . S
C293 H316 0.931 . S
C294 C293 1.395 . S
C294 C295 1.383 . S
C294 H317 0.931 . S
C295 C294 1.383 . S
C295 C296 1.394 . S
C296 C295 1.394 . S
C296 C297 1.378 . S
C296 H318 0.931 . S
C297 C292 1.377 . S
C297 C296 1.378 . S
C297 H319 0.931 . S
C298 O308 1.259 . S
C298 O309 1.270 . S
C299 O310 1.251 . S
C299 O311 1.251 . S
O300 C280 1.257 . S
O300 Eu281 2.473 . S
O301 C280 1.260 . S
O301 Eu281 2.480 . S
O302 Eu281 2.430 . S
O302 C288 1.259 . S
O303 Eu281 2.670 . S
O303 C288 1.270 . S
O303 Eu291 2.355 . S
O304 Eu281 2.394 . S
O304 C289 1.251 . S
O305 C289 1.251 . S
O305 Eu291 2.374 . S
O306 C290 1.257 . S
O306 Eu291 2.473 . S
O307 C290 1.260 . S
O307 Eu291 2.480 . S
O308 Eu291 2.430 . S
O308 C298 1.259 . S
O309 Eu281 2.355 . S
O309 Eu291 2.670 . S
O309 C298 1.270 . S
O310 Eu291 2.394 . S
O310 C299 1.251 . S
O311 Eu281 2.374 . S
O311 C299 1.251 . S
H312 C283 0.931 . S
H313 C284 0.931 . S
H314 C286 0.931 . S
H315 C287 0.931 . S
H316 C293 0.931 . S
H317 C294 0.931 . S
H318 C296 0.931 . S
H319 C297 0.931 . S
C320 Eu321 2.835 . S
C320 C322 1.500 . S
C320 O340 1.257 . S
C320 O341 1.260 . S
Eu321 C320 2.835 . S
Eu321 O340 2.473 . S
Eu321 O341 2.480 . S
Eu321 O342 2.430 . S
Eu321 O343 2.670 . S
Eu321 O344 2.394 . S
Eu321 O349 2.355 . S
Eu321 O351 2.374 . S
C322 C320 1.500 . S
C322 C323 1.377 . S
C322 C327 1.377 . S
C323 C322 1.377 . S
C323 C324 1.395 . S
C323 H352 0.931 . S
C324 C323 1.395 . S
C324 C325 1.383 . S
C324 H353 0.931 . S
C325 C324 1.383 . S
C325 C326 1.394 . S
C326 C325 1.394 . S
C326 C327 1.378 . S
C326 H354 0.931 . S
C327 C322 1.377 . S
C327 C326 1.378 . S
C327 H355 0.931 . S
C328 O342 1.259 . S
C328 O343 1.270 . S
C329 O344 1.251 . S
C329 O345 1.251 . S
C330 Eu331 2.835 . S
C330 C332 1.500 . S
C330 O346 1.257 . S
C330 O347 1.260 . S
Eu331 C330 2.835 . S
Eu331 O343 2.355 . S
Eu331 O345 2.374 . S
Eu331 O346 2.473 . S
Eu331 O347 2.480 . S
Eu331 O348 2.430 . S
Eu331 O349 2.670 . S
Eu331 O350 2.394 . S
C332 C330 1.500 . S
C332 C333 1.377 . S
C332 C337 1.377 . S
C333 C332 1.377 . S
C333 C334 1.395 . S
C333 H356 0.931 . S
C334 C333 1.395 . S
C334 C335 1.383 . S
C334 H357 0.931 . S
C335 C334 1.383 . S
C335 C336 1.394 . S
C336 C335 1.394 . S
C336 C337 1.378 . S
C336 H358 0.931 . S
C337 C332 1.377 . S
C337 C336 1.378 . S
C337 H359 0.931 . S
C338 O348 1.259 . S
C338 O349 1.270 . S
C339 O350 1.251 . S
C339 O351 1.251 . S
O340 C320 1.257 . S
O340 Eu321 2.473 . S
O341 C320 1.260 . S
O341 Eu321 2.480 . S
O342 Eu321 2.430 . S
O342 C328 1.259 . S
O343 Eu321 2.670 . S
O343 C328 1.270 . S
O343 Eu331 2.355 . S
O344 Eu321 2.394 . S
O344 C329 1.251 . S
O345 C329 1.251 . S
O345 Eu331 2.374 . S
O346 C330 1.257 . S
O346 Eu331 2.473 . S
O347 C330 1.260 . S
O347 Eu331 2.480 . S
O348 Eu331 2.430 . S
O348 C338 1.259 . S
O349 Eu321 2.355 . S
O349 Eu331 2.670 . S
O349 C338 1.270 . S
O350 Eu331 2.394 . S
O350 C339 1.251 . S
O351 Eu321 2.374 . S
O351 C339 1.251 . S
H352 C323 0.931 . S
H353 C324 0.931 . S
H354 C326 0.931 . S
H355 C327 0.931 . S
H356 C333 0.931 . S
H357 C334 0.931 . S
H358 C336 0.931 . S
H359 C337 0.931 . S
C360 Eu361 2.835 . S
C360 C362 1.500 1_554 S
C360 O380 1.257 . S
C360 O381 1.260 . S
Eu361 C360 2.835 . S
Eu361 O380 2.473 . S
Eu361 O381 2.480 . S
Eu361 O382 2.430 . S
Eu361 O383 2.670 . S
Eu361 O384 2.394 . S
Eu361 O389 2.355 . S
Eu361 O391 2.374 . S
C362 C360 1.500 1_556 S
C362 C363 1.377 . S
C362 C367 1.377 . S
C363 C362 1.377 . S
C363 C364 1.395 . S
C363 H392 0.931 . S
C364 C363 1.395 . S
C364 C365 1.383 . S
C364 H393 0.931 . S
C365 C364 1.383 . S
C365 C366 1.394 . S
C366 C365 1.394 . S
C366 C367 1.378 . S
C366 H394 0.931 . S
C367 C362 1.377 . S
C367 C366 1.378 . S
C367 H395 0.931 . S
C368 O382 1.259 . S
C368 O383 1.270 . S
C369 O384 1.251 . S
C369 O385 1.251 . S
C370 Eu371 2.835 . S
C370 C372 1.500 . S
C370 O386 1.257 . S
C370 O387 1.260 . S
Eu371 C370 2.835 . S
Eu371 O383 2.355 . S
Eu371 O385 2.374 . S
Eu371 O386 2.473 . S
Eu371 O387 2.480 . S
Eu371 O388 2.430 . S
Eu371 O389 2.670 . S
Eu371 O390 2.394 . S
C372 C370 1.500 . S
C372 C373 1.377 . S
C372 C377 1.377 . S
C373 C372 1.377 . S
C373 C374 1.395 . S
C373 H396 0.931 . S
C374 C373 1.395 . S
C374 C375 1.383 . S
C374 H397 0.931 . S
C375 C374 1.383 . S
C375 C376 1.394 . S
C376 C375 1.394 . S
C376 C377 1.378 . S
C376 H398 0.931 . S
C377 C372 1.377 . S
C377 C376 1.378 . S
C377 H399 0.931 . S
C378 O388 1.259 . S
C378 O389 1.270 . S
C379 O390 1.251 . S
C379 O391 1.251 . S
O380 C360 1.257 . S
O380 Eu361 2.473 . S
O381 C360 1.260 . S
O381 Eu361 2.480 . S
O382 Eu361 2.430 . S
O382 C368 1.259 . S
O383 Eu361 2.670 . S
O383 C368 1.270 . S
O383 Eu371 2.355 . S
O384 Eu361 2.394 . S
O384 C369 1.251 . S
O385 C369 1.251 . S
O385 Eu371 2.374 . S
O386 C370 1.257 . S
O386 Eu371 2.473 . S
O387 C370 1.260 . S
O387 Eu371 2.480 . S
O388 Eu371 2.430 . S
O388 C378 1.259 . S
O389 Eu361 2.355 . S
O389 Eu371 2.670 . S
O389 C378 1.270 . S
O390 Eu371 2.394 . S
O390 C379 1.251 . S
O391 Eu361 2.374 . S
O391 C379 1.251 . S
H392 C363 0.931 . S
H393 C364 0.931 . S
H394 C366 0.931 . S
H395 C367 0.931 . S
H396 C373 0.931 . S
H397 C374 0.931 . S
H398 C376 0.931 . S
H399 C377 0.931 . S
C400 Eu401 2.835 . S
C400 C402 1.500 . S
C400 O420 1.257 . S
C400 O421 1.260 . S
Eu401 C400 2.835 . S
Eu401 O420 2.473 . S
Eu401 O421 2.480 . S
Eu401 O422 2.430 . S
Eu401 O423 2.670 . S
Eu401 O424 2.394 . S
Eu401 O429 2.355 . S
Eu401 O431 2.374 . S
C402 C400 1.500 . S
C402 C403 1.377 . S
C402 C407 1.377 . S
C403 C402 1.377 . S
C403 C404 1.395 . S
C403 H432 0.931 . S
C404 C403 1.395 . S
C404 C405 1.383 . S
C404 H433 0.931 . S
C405 C404 1.383 . S
C405 C406 1.394 . S
C406 C405 1.394 . S
C406 C407 1.378 . S
C406 H434 0.931 . S
C407 C402 1.377 . S
C407 C406 1.378 . S
C407 H435 0.931 . S
C408 O422 1.259 . S
C408 O423 1.270 . S
C409 O424 1.251 . S
C409 O425 1.251 . S
C410 Eu411 2.835 1_554 S
C410 C412 1.500 . S
C410 O426 1.257 . S
C410 O427 1.260 . S
Eu411 C410 2.835 1_556 S
Eu411 O423 2.355 . S
Eu411 O425 2.374 . S
Eu411 O426 2.473 1_556 S
Eu411 O427 2.480 1_556 S
Eu411 O428 2.430 . S
Eu411 O429 2.670 . S
Eu411 O430 2.394 . S
C412 C410 1.500 . S
C412 C413 1.377 . S
C412 C417 1.377 . S
C413 C412 1.377 . S
C413 C414 1.395 . S
C413 H436 0.931 . S
C414 C413 1.395 . S
C414 C415 1.383 . S
C414 H437 0.931 . S
C415 C414 1.383 . S
C415 C416 1.394 . S
C416 C415 1.394 . S
C416 C417 1.378 . S
C416 H438 0.931 . S
C417 C412 1.377 . S
C417 C416 1.378 . S
C417 H439 0.931 . S
C418 O428 1.259 . S
C418 O429 1.270 . S
C419 O430 1.251 . S
C419 O431 1.251 . S
O420 C400 1.257 . S
O420 Eu401 2.473 . S
O421 C400 1.260 . S
O421 Eu401 2.480 . S
O422 Eu401 2.430 . S
O422 C408 1.259 . S
O423 Eu401 2.670 . S
O423 C408 1.270 . S
O423 Eu411 2.355 . S
O424 Eu401 2.394 . S
O424 C409 1.251 . S
O425 C409 1.251 . S
O425 Eu411 2.374 . S
O426 C410 1.257 . S
O426 Eu411 2.473 1_554 S
O427 C410 1.260 . S
O427 Eu411 2.480 1_554 S
O428 Eu411 2.430 . S
O428 C418 1.259 . S
O429 Eu401 2.355 . S
O429 Eu411 2.670 . S
O429 C418 1.270 . S
O430 Eu411 2.394 . S
O430 C419 1.251 . S
O431 Eu401 2.374 . S
O431 C419 1.251 . S
H432 C403 0.931 . S
H433 C404 0.931 . S
H434 C406 0.931 . S
H435 C407 0.931 . S
H436 C413 0.931 . S
H437 C414 0.931 . S
H438 C416 0.931 . S
H439 C417 0.931 . S
C440 Eu441 2.835 . S
C440 C442 1.500 . S
C440 O460 1.257 . S
C440 O461 1.260 . S
Eu441 C440 2.835 . S
Eu441 O460 2.473 . S
Eu441 O461 2.480 . S
Eu441 O462 2.430 . S
Eu441 O463 2.670 . S
Eu441 O464 2.394 . S
Eu441 O469 2.355 . S
Eu441 O471 2.374 . S
C442 C440 1.500 . S
C442 C443 1.377 . S
C442 C447 1.377 . S
C443 C442 1.377 . S
C443 C444 1.395 . S
C443 H472 0.931 . S
C444 C443 1.395 . S
C444 C445 1.383 . S
C444 H473 0.931 . S
C445 C444 1.383 . S
C445 C446 1.394 . S
C446 C445 1.394 . S
C446 C447 1.378 . S
C446 H474 0.931 . S
C447 C442 1.377 . S
C447 C446 1.378 . S
C447 H475 0.931 . S
C448 O462 1.259 . S
C448 O463 1.270 . S
C449 O464 1.251 . S
C449 O465 1.251 . S
C450 Eu451 2.835 . S
C450 C452 1.500 . S
C450 O466 1.257 . S
C450 O467 1.260 . S
Eu451 C450 2.835 . S
Eu451 O463 2.355 . S
Eu451 O465 2.374 . S
Eu451 O466 2.473 . S
Eu451 O467 2.480 . S
Eu451 O468 2.430 . S
Eu451 O469 2.670 . S
Eu451 O470 2.394 . S
C452 C450 1.500 . S
C452 C453 1.377 . S
C452 C457 1.377 . S
C453 C452 1.377 . S
C453 C454 1.395 . S
C453 H476 0.931 . S
C454 C453 1.395 . S
C454 C455 1.383 . S
C454 H477 0.931 . S
C455 C454 1.383 . S
C455 C456 1.394 . S
C456 C455 1.394 . S
C456 C457 1.378 . S
C456 H478 0.931 . S
C457 C452 1.377 . S
C457 C456 1.378 . S
C457 H479 0.931 . S
C458 O468 1.259 . S
C458 O469 1.270 . S
C459 O470 1.251 . S
C459 O471 1.251 . S
O460 C440 1.257 . S
O460 Eu441 2.473 . S
O461 C440 1.260 . S
O461 Eu441 2.480 . S
O462 Eu441 2.430 . S
O462 C448 1.259 . S
O463 Eu441 2.670 . S
O463 C448 1.270 . S
O463 Eu451 2.355 . S
O464 Eu441 2.394 . S
O464 C449 1.251 . S
O465 C449 1.251 . S
O465 Eu451 2.374 . S
O466 C450 1.257 . S
O466 Eu451 2.473 . S
O467 C450 1.260 . S
O467 Eu451 2.480 . S
O468 Eu451 2.430 . S
O468 C458 1.259 . S
O469 Eu441 2.355 . S
O469 Eu451 2.670 . S
O469 C458 1.270 . S
O470 Eu451 2.394 . S
O470 C459 1.251 . S
O471 Eu441 2.374 . S
O471 C459 1.251 . S
H472 C443 0.931 . S
H473 C444 0.931 . S
H474 C446 0.931 . S
H475 C447 0.931 . S
H476 C453 0.931 . S
H477 C454 0.931 . S
H478 C456 0.931 . S
H479 C457 0.931 . S
C480 Eu481 2.835 . S
C480 C482 1.500 . S
C480 O500 1.257 . S
C480 O501 1.260 . S
Eu481 C480 2.835 . S
Eu481 O500 2.473 . S
Eu481 O501 2.480 . S
Eu481 O502 2.430 . S
Eu481 O503 2.670 . S
Eu481 O504 2.394 . S
Eu481 O509 2.355 . S
Eu481 O511 2.374 . S
C482 C480 1.500 . S
C482 C483 1.377 . S
C482 C487 1.377 . S
C483 C482 1.377 . S
C483 C484 1.395 . S
C483 H512 0.931 . S
C484 C483 1.395 . S
C484 C485 1.383 . S
C484 H513 0.931 . S
C485 C484 1.383 . S
C485 C486 1.394 . S
C486 C485 1.394 . S
C486 C487 1.378 . S
C486 H514 0.931 . S
C487 C482 1.377 . S
C487 C486 1.378 . S
C487 H515 0.931 . S
C488 O502 1.259 . S
C488 O503 1.270 . S
C489 O504 1.251 . S
C489 O505 1.251 . S
C490 Eu491 2.835 . S
C490 C492 1.500 . S
C490 O506 1.257 . S
C490 O507 1.260 . S
Eu491 C490 2.835 . S
Eu491 O503 2.355 . S
Eu491 O505 2.374 . S
Eu491 O506 2.473 . S
Eu491 O507 2.480 . S
Eu491 O508 2.430 . S
Eu491 O509 2.670 . S
Eu491 O510 2.394 . S
C492 C490 1.500 . S
C492 C493 1.377 . S
C492 C497 1.377 . S
C493 C492 1.377 . S
C493 C494 1.395 . S
C493 H516 0.931 . S
C494 C493 1.395 . S
C494 C495 1.383 . S
C494 H517 0.931 . S
C495 C494 1.383 . S
C495 C496 1.394 . S
C496 C495 1.394 . S
C496 C497 1.378 . S
C496 H518 0.931 . S
C497 C492 1.377 . S
C497 C496 1.378 . S
C497 H519 0.931 . S
C498 O508 1.259 . S
C498 O509 1.270 . S
C499 O510 1.251 . S
C499 O511 1.251 . S
O500 C480 1.257 . S
O500 Eu481 2.473 . S
O501 C480 1.260 . S
O501 Eu481 2.480 . S
O502 Eu481 2.430 . S
O502 C488 1.259 . S
O503 Eu481 2.670 . S
O503 C488 1.270 . S
O503 Eu491 2.355 . S
O504 Eu481 2.394 . S
O504 C489 1.251 . S
O505 C489 1.251 . S
O505 Eu491 2.374 . S
O506 C490 1.257 . S
O506 Eu491 2.473 . S
O507 C490 1.260 . S
O507 Eu491 2.480 . S
O508 Eu491 2.430 . S
O508 C498 1.259 . S
O509 Eu481 2.355 . S
O509 Eu491 2.670 . S
O509 C498 1.270 . S
O510 Eu491 2.394 . S
O510 C499 1.251 . S
O511 Eu481 2.374 . S
O511 C499 1.251 . S
H512 C483 0.931 . S
H513 C484 0.931 . S
H514 C486 0.931 . S
H515 C487 0.931 . S
H516 C493 0.931 . S
H517 C494 0.931 . S
H518 C496 0.931 . S
H519 C497 0.931 . S
C520 Eu521 2.835 1_556 S
C520 C522 1.500 . S
C520 O540 1.257 . S
C520 O541 1.260 . S
Eu521 C520 2.835 1_554 S
Eu521 O540 2.473 1_554 S
Eu521 O541 2.480 1_554 S
Eu521 O542 2.430 . S
Eu521 O543 2.670 . S
Eu521 O544 2.394 . S
Eu521 O549 2.355 . S
Eu521 O551 2.374 . S
C522 C520 1.500 . S
C522 C523 1.377 . S
C522 C527 1.377 . S
C523 C522 1.377 . S
C523 C524 1.395 . S
C523 H552 0.931 . S
C524 C523 1.395 . S
C524 C525 1.383 . S
C524 H553 0.931 . S
C525 C524 1.383 . S
C525 C526 1.394 . S
C526 C525 1.394 . S
C526 C527 1.378 . S
C526 H554 0.931 . S
C527 C522 1.377 . S
C527 C526 1.378 . S
C527 H555 0.931 . S
C528 O542 1.259 . S
C528 O543 1.270 . S
C529 O544 1.251 . S
C529 O545 1.251 . S
C530 Eu531 2.835 1_655 S
C530 C532 1.500 . S
C530 O546 1.257 1_655 S
C530 O547 1.260 . S
Eu531 C530 2.835 1_455 S
Eu531 O543 2.355 . S
Eu531 O545 2.374 . S
Eu531 O546 2.473 . S
Eu531 O547 2.480 1_455 S
Eu531 O548 2.430 . S
Eu531 O549 2.670 . S
Eu531 O550 2.394 . S
C532 C530 1.500 . S
C532 C533 1.377 . S
C532 C537 1.377 . S
C533 C532 1.377 . S
C533 C534 1.395 . S
C533 H556 0.931 . S
C534 C533 1.395 . S
C534 C535 1.383 . S
C534 H557 0.931 . S
C535 C534 1.383 . S
C535 C536 1.394 . S
C536 C535 1.394 . S
C536 C537 1.378 . S
C536 H558 0.931 . S
C537 C532 1.377 . S
C537 C536 1.378 . S
C537 H559 0.931 1_655 S
C538 O548 1.259 . S
C538 O549 1.270 . S
C539 O550 1.251 . S
C539 O551 1.251 . S
O540 C520 1.257 . S
O540 Eu521 2.473 1_556 S
O541 C520 1.260 . S
O541 Eu521 2.480 1_556 S
O542 Eu521 2.430 . S
O542 C528 1.259 . S
O543 Eu521 2.670 . S
O543 C528 1.270 . S
O543 Eu531 2.355 . S
O544 Eu521 2.394 . S
O544 C529 1.251 . S
O545 C529 1.251 . S
O545 Eu531 2.374 . S
O546 C530 1.257 1_455 S
O546 Eu531 2.473 . S
O547 C530 1.260 . S
O547 Eu531 2.480 1_655 S
O548 Eu531 2.430 . S
O548 C538 1.259 . S
O549 Eu521 2.355 . S
O549 Eu531 2.670 . S
O549 C538 1.270 . S
O550 Eu531 2.394 . S
O550 C539 1.251 . S
O551 Eu521 2.374 . S
O551 C539 1.251 . S
H552 C523 0.931 . S
H553 C524 0.931 . S
H554 C526 0.931 . S
H555 C527 0.931 . S
H556 C533 0.931 . S
H557 C534 0.931 . S
H558 C536 0.931 . S
H559 C537 0.931 1_455 S
C560 Eu561 2.835 . S
C560 C562 1.500 . S
C560 O580 1.257 . S
C560 O581 1.260 . S
Eu561 C560 2.835 . S
Eu561 O580 2.473 . S
Eu561 O581 2.480 . S
Eu561 O582 2.430 . S
Eu561 O583 2.670 . S
Eu561 O584 2.394 . S
Eu561 O589 2.355 . S
Eu561 O591 2.374 . S
C562 C560 1.500 . S
C562 C563 1.377 . S
C562 C567 1.377 . S
C563 C562 1.377 . S
C563 C564 1.395 . S
C563 H592 0.931 . S
C564 C563 1.395 . S
C564 C565 1.383 . S
C564 H593 0.931 . S
C565 C564 1.383 . S
C565 C566 1.394 . S
C566 C565 1.394 . S
C566 C567 1.378 . S
C566 H594 0.931 . S
C567 C562 1.377 . S
C567 C566 1.378 . S
C567 H595 0.931 . S
C568 O582 1.259 . S
C568 O583 1.270 . S
C569 O584 1.251 . S
C569 O585 1.251 . S
C570 Eu571 2.835 . S
C570 C572 1.500 . S
C570 O586 1.257 . S
C570 O587 1.260 . S
Eu571 C570 2.835 . S
Eu571 O583 2.355 . S
Eu571 O585 2.374 . S
Eu571 O586 2.473 . S
Eu571 O587 2.480 . S
Eu571 O588 2.430 . S
Eu571 O589 2.670 . S
Eu571 O590 2.394 . S
C572 C570 1.500 . S
C572 C573 1.377 . S
C572 C577 1.377 . S
C573 C572 1.377 . S
C573 C574 1.395 . S
C573 H596 0.931 . S
C574 C573 1.395 . S
C574 C575 1.383 . S
C574 H597 0.931 . S
C575 C574 1.383 . S
C575 C576 1.394 . S
C576 C575 1.394 . S
C576 C577 1.378 . S
C576 H598 0.931 . S
C577 C572 1.377 . S
C577 C576 1.378 . S
C577 H599 0.931 . S
C578 O588 1.259 . S
C578 O589 1.270 . S
C579 O590 1.251 . S
C579 O591 1.251 . S
O580 C560 1.257 . S
O580 Eu561 2.473 . S
O581 C560 1.260 . S
O581 Eu561 2.480 . S
O582 Eu561 2.430 . S
O582 C568 1.259 . S
O583 Eu561 2.670 . S
O583 C568 1.270 . S
O583 Eu571 2.355 . S
O584 Eu561 2.394 . S
O584 C569 1.251 . S
O585 C569 1.251 . S
O585 Eu571 2.374 . S
O586 C570 1.257 . S
O586 Eu571 2.473 . S
O587 C570 1.260 . S
O587 Eu571 2.480 . S
O588 Eu571 2.430 . S
O588 C578 1.259 . S
O589 Eu561 2.355 . S
O589 Eu571 2.670 . S
O589 C578 1.270 . S
O590 Eu571 2.394 . S
O590 C579 1.251 . S
O591 Eu561 2.374 . S
O591 C579 1.251 . S
H592 C563 0.931 . S
H593 C564 0.931 . S
H594 C566 0.931 . S
H595 C567 0.931 . S
H596 C573 0.931 . S
H597 C574 0.931 . S
H598 C576 0.931 . S
H599 C577 0.931 . S
C600 Eu601 2.835 . S
C600 C602 1.508 . S
C600 O620 1.257 . S
C600 O621 1.260 . S
Eu601 C600 2.835 . S
Eu601 O620 2.473 . S
Eu601 O621 2.480 . S
Eu601 O622 2.430 . S
Eu601 O623 2.670 . S
Eu601 O624 2.394 . S
Eu601 O629 2.355 . S
Eu601 O631 2.374 . S
C602 C600 1.508 . S
C602 C603 1.373 1_556 S
C602 C607 1.373 1_556 S
C603 C602 1.373 1_554 S
C603 C604 1.395 . S
C603 H632 0.931 . S
C604 C603 1.395 . S
C604 C605 1.383 . S
C604 H633 0.931 . S
C605 C604 1.383 . S
C605 C606 1.394 . S
C606 C605 1.394 . S
C606 C607 1.378 . S
C606 H634 0.931 . S
C607 C602 1.373 1_554 S
C607 C606 1.378 . S
C607 H635 0.931 . S
C608 O622 1.259 . S
C608 O623 1.270 . S
C609 O624 1.251 . S
C609 O625 1.251 . S
C610 Eu611 2.835 . S
C610 C612 1.515 . S
C610 O626 1.257 . S
C610 O627 1.260 . S
Eu611 C610 2.835 . S
Eu611 O623 2.355 . S
Eu611 O625 2.374 . S
Eu611 O626 2.473 . S
Eu611 O627 2.480 . S
Eu611 O628 2.430 . S
Eu611 O629 2.670 . S
Eu611 O630 2.394 . S
C612 C610 1.515 . S
C612 C613 1.363 1_455 S
C612 C617 1.376 . S
C613 C612 1.363 1_655 S
C613 C614 1.395 . S
C613 H636 0.931 . S
C614 C613 1.395 . S
C614 C615 1.383 . S
C614 H637 0.931 . S
C615 C614 1.383 . S
C615 C616 1.394 . S
C616 C615 1.394 . S
C616 C617 1.378 1_655 S
C616 H638 0.931 . S
C617 C612 1.376 . S
C617 C616 1.378 1_455 S
C617 H639 0.931 . S
C618 O628 1.259 . S
C618 O629 1.270 . S
C619 O630 1.251 . S
C619 O631 1.251 . S
O620 C600 1.257 . S
O620 Eu601 2.473 . S
O621 C600 1.260 . S
O621 Eu601 2.480 . S
O622 Eu601 2.430 . S
O622 C608 1.259 . S
O623 Eu601 2.670 . S
O623 C608 1.270 . S
O623 Eu611 2.355 . S
O624 Eu601 2.394 . S
O624 C609 1.251 . S
O625 C609 1.251 . S
O625 Eu611 2.374 . S
O626 C610 1.257 . S
O626 Eu611 2.473 . S
O627 C610 1.260 . S
O627 Eu611 2.480 . S
O628 Eu611 2.430 . S
O628 C618 1.259 . S
O629 Eu601 2.355 . S
O629 Eu611 2.670 . S
O629 C618 1.270 . S
O630 Eu611 2.394 . S
O630 C619 1.251 . S
O631 Eu601 2.374 . S
O631 C619 1.251 . S
H632 C603 0.931 . S
H633 C604 0.931 . S
H634 C606 0.931 . S
H635 C607 0.931 . S
H636 C613 0.931 . S
H637 C614 0.931 . S
H638 C616 0.931 . S
H639 C617 0.931 . S
H640 C646 0.930 . S
H641 C650 0.930 . S
H642 C655 0.929 . S
H643 C653 0.929 . S
H644 C648 0.929 . S
H645 C654 0.929 . S
C646 H640 0.930 . S
C646 C647 1.367 . S
C646 C654 1.378 . S
C647 C646 1.367 . S
C647 C655 1.433 . S
C648 H644 0.929 . S
C648 C650 1.378 . S
C648 C652 1.350 . S
C649 C652 1.463 . S
C649 C654 1.350 1_556 S
C649 N657 1.427 . S
C650 H641 0.930 . S
C650 C648 1.378 . S
C650 C651 1.367 . S
C651 C650 1.367 . S
C651 C653 1.433 . S
C652 C648 1.350 . S
C652 C649 1.463 . S
C652 N656 1.427 . S
C653 H643 0.929 . S
C653 C651 1.433 . S
C653 N656 1.384 . S
C654 H645 0.929 . S
C654 C646 1.378 . S
C654 C649 1.350 1_554 S
C655 H642 0.929 . S
C655 C647 1.433 . S
C655 N657 1.384 1_554 S
N656 C652 1.427 . S
N656 C653 1.384 . S
N657 C649 1.427 . S
N657 C655 1.384 1_556 S
H658 C664 0.930 . S
H659 C668 0.930 . S
H660 C673 0.929 . S
H661 C671 0.929 . S
H662 C666 0.929 . S
H663 C672 0.929 . S
C664 H658 0.930 . S
C664 C665 1.367 . S
C664 C672 1.378 . S
C665 C664 1.367 . S
C665 C673 1.433 . S
C666 H662 0.929 . S
C666 C668 1.378 . S
C666 C670 1.350 . S
C667 C670 1.463 . S
C667 C672 1.350 . S
C667 N675 1.427 . S
C668 H659 0.930 . S
C668 C666 1.378 . S
C668 C669 1.367 . S
C669 C668 1.367 . S
C669 C671 1.433 . S
C670 C666 1.350 . S
C670 C667 1.463 . S
C670 N674 1.427 . S
C671 H661 0.929 . S
C671 C669 1.433 . S
C671 N674 1.384 . S
C672 H663 0.929 . S
C672 C664 1.378 . S
C672 C667 1.350 . S
C673 H660 0.929 . S
C673 C665 1.433 . S
C673 N675 1.384 . S
N674 C670 1.427 . S
N674 C671 1.384 . S
N675 C667 1.427 . S
N675 C673 1.384 . S
H676 C682 0.930 . S
H677 C686 0.930 . S
H678 C691 0.929 . S
H679 C689 0.929 . S
H680 C684 0.929 . S
H681 C690 0.929 . S
C682 H676 0.930 . S
C682 C683 1.367 . S
C682 C690 1.378 . S
C683 C682 1.367 . S
C683 C691 1.433 . S
C684 H680 0.929 . S
C684 C686 1.378 . S
C684 C688 1.350 . S
C685 C688 1.463 . S
C685 C690 1.350 . S
C685 N693 1.427 . S
C686 H677 0.930 . S
C686 C684 1.378 . S
C686 C687 1.367 . S
C687 C686 1.367 . S
C687 C689 1.433 . S
C688 C684 1.350 . S
C688 C685 1.463 . S
C688 N692 1.427 . S
C689 H679 0.929 . S
C689 C687 1.433 . S
C689 N692 1.384 . S
C690 H681 0.929 . S
C690 C682 1.378 . S
C690 C685 1.350 . S
C691 H678 0.929 . S
C691 C683 1.433 . S
C691 N693 1.384 . S
N692 C688 1.427 . S
N692 C689 1.384 . S
N693 C685 1.427 . S
N693 C691 1.384 . S
H694 C700 0.930 . S
H695 C704 0.930 . S
H696 C709 0.929 . S
H697 C707 0.929 . S
H698 C702 0.929 . S
H699 C708 0.929 . S
C700 H694 0.930 . S
C700 C701 1.367 . S
C700 C708 1.378 . S
C701 C700 1.367 . S
C701 C709 1.433 . S
C702 H698 0.929 . S
C702 C704 1.378 . S
C702 C706 1.350 . S
C703 C706 1.463 . S
C703 C708 1.350 . S
C703 N711 1.427 . S
C704 H695 0.930 . S
C704 C702 1.378 . S
C704 C705 1.367 . S
C705 C704 1.367 . S
C705 C707 1.433 . S
C706 C702 1.350 . S
C706 C703 1.463 . S
C706 N710 1.427 . S
C707 H697 0.929 . S
C707 C705 1.433 . S
C707 N710 1.384 . S
C708 H699 0.929 . S
C708 C700 1.378 . S
C708 C703 1.350 . S
C709 H696 0.929 . S
C709 C701 1.433 . S
C709 N711 1.384 . S
N710 C706 1.427 . S
N710 C707 1.384 . S
N711 C703 1.427 . S
N711 C709 1.384 . S
H712 C718 0.930 . S
H713 C722 0.930 . S
H714 C727 0.929 . S
H715 C725 0.929 . S
H716 C720 0.929 . S
H717 C726 0.929 . S
C718 H712 0.930 . S
C718 C719 1.367 . S
C718 C726 1.378 . S
C719 C718 1.367 . S
C719 C727 1.433 . S
C720 H716 0.929 . S
C720 C722 1.378 1_554 S
C720 C724 1.350 . S
C721 C724 1.463 . S
C721 C726 1.350 . S
C721 N729 1.427 . S
C722 H713 0.930 . S
C722 C720 1.378 1_556 S
C722 C723 1.367 . S
C723 C722 1.367 . S
C723 C725 1.433 . S
C724 C720 1.350 . S
C724 C721 1.463 . S
C724 N728 1.427 1_554 S
C725 H715 0.929 . S
C725 C723 1.433 . S
C725 N728 1.384 . S
C726 H717 0.929 . S
C726 C718 1.378 . S
C726 C721 1.350 . S
C727 H714 0.929 . S
C727 C719 1.433 . S
C727 N729 1.384 . S
N728 C724 1.427 1_556 S
N728 C725 1.384 . S
N729 C721 1.427 . S
N729 C727 1.384 . S
H730 C736 0.930 . S
H731 C740 0.930 1_554 S
H732 C745 0.929 . S
H733 C743 0.929 1_455 S
H734 C738 0.929 . S
H735 C744 0.929 . S
C736 H730 0.930 . S
C736 C737 1.367 . S
C736 C744 1.378 . S
C737 C736 1.367 . S
C737 C745 1.433 . S
C738 H734 0.929 . S
C738 C740 1.378 . S
C738 C742 1.350 . S
C739 C742 1.463 . S
C739 C744 1.350 . S
C739 N747 1.427 . S
C740 H731 0.930 1_556 S
C740 C738 1.378 . S
C740 C741 1.367 . S
C741 C740 1.367 . S
C741 C743 1.433 . S
C742 C738 1.350 . S
C742 C739 1.463 . S
C742 N746 1.427 . S
C743 H733 0.929 1_655 S
C743 C741 1.433 . S
C743 N746 1.384 . S
C744 H735 0.929 . S
C744 C736 1.378 . S
C744 C739 1.350 . S
C745 H732 0.929 . S
C745 C737 1.433 . S
C745 N747 1.384 . S
N746 C742 1.427 . S
N746 C743 1.384 . S
N747 C739 1.427 . S
N747 C745 1.384 . S
H748 C754 0.930 . S
H749 C758 0.930 . S
H750 C763 0.929 . S
H751 C761 0.929 . S
H752 C756 0.929 . S
H753 C762 0.929 . S
C754 H748 0.930 . S
C754 C755 1.367 . S
C754 C762 1.378 . S
C755 C754 1.367 . S
C755 C763 1.433 . S
C756 H752 0.929 . S
C756 C758 1.378 . S
C756 C760 1.350 . S
C757 C760 1.463 . S
C757 C762 1.350 . S
C757 N765 1.427 . S
C758 H749 0.930 . S
C758 C756 1.378 . S
C758 C759 1.367 . S
C759 C758 1.367 . S
C759 C761 1.433 . S
C760 C756 1.350 . S
C760 C757 1.463 . S
C760 N764 1.427 . S
C761 H751 0.929 . S
C761 C759 1.433 . S
C761 N764 1.384 . S
C762 H753 0.929 . S
C762 C754 1.378 . S
C762 C757 1.350 . S
C763 H750 0.929 . S
C763 C755 1.433 . S
C763 N765 1.384 . S
N764 C760 1.427 . S
N764 C761 1.384 . S
N765 C757 1.427 . S
N765 C763 1.384 . S
H766 C772 0.930 . S
H767 C776 0.930 . S
H768 C781 0.929 . S
H769 C779 0.929 . S
H770 C774 0.929 . S
H771 C780 0.929 . S
C772 H766 0.930 . S
C772 C773 1.367 . S
C772 C780 1.378 . S
C773 C772 1.367 . S
C773 C781 1.433 . S
C774 H770 0.929 . S
C774 C776 1.378 . S
C774 C778 1.350 . S
C775 C778 1.463 . S
C775 C780 1.350 . S
C775 N783 1.427 . S
C776 H767 0.930 . S
C776 C774 1.378 . S
C776 C777 1.367 . S
C777 C776 1.367 . S
C777 C779 1.433 . S
C778 C774 1.350 . S
C778 C775 1.463 . S
C778 N782 1.427 . S
C779 H769 0.929 . S
C779 C777 1.433 . S
C779 N782 1.384 . S
C780 H771 0.929 . S
C780 C772 1.378 . S
C780 C775 1.350 . S
C781 H768 0.929 . S
C781 C773 1.433 . S
C781 N783 1.384 . S
N782 C778 1.427 . S
N782 C779 1.384 . S
N783 C775 1.427 . S
N783 C781 1.384 . S
H784 C790 0.930 . S
H785 C794 0.930 . S
H786 C799 0.929 . S
H787 C797 0.929 . S
H788 C792 0.929 . S
H789 C798 0.929 . S
C790 H784 0.930 . S
C790 C791 1.367 . S
C790 C798 1.378 . S
C791 C790 1.367 . S
C791 C799 1.433 . S
C792 H788 0.929 . S
C792 C794 1.378 . S
C792 C796 1.350 . S
C793 C796 1.463 . S
C793 C798 1.350 . S
C793 N801 1.427 . S
C794 H785 0.930 . S
C794 C792 1.378 . S
C794 C795 1.367 . S
C795 C794 1.367 . S
C795 C797 1.433 . S
C796 C792 1.350 . S
C796 C793 1.463 . S
C796 N800 1.427 . S
C797 H787 0.929 . S
C797 C795 1.433 . S
C797 N800 1.384 . S
C798 H789 0.929 . S
C798 C790 1.378 . S
C798 C793 1.350 . S
C799 H786 0.929 . S
C799 C791 1.433 . S
C799 N801 1.384 . S
N800 C796 1.427 . S
N800 C797 1.384 . S
N801 C793 1.427 . S
N801 C799 1.384 . S
H802 C808 0.930 . S
H803 C812 0.930 . S
H804 C817 0.929 . S
H805 C815 0.929 . S
H806 C810 0.929 . S
H807 C816 0.929 . S
C808 H802 0.930 . S
C808 C809 1.367 . S
C808 C816 1.378 . S
C809 C808 1.367 . S
C809 C817 1.433 . S
C810 H806 0.929 . S
C810 C812 1.378 . S
C810 C814 1.350 . S
C811 C814 1.463 . S
C811 C816 1.350 . S
C811 N819 1.427 . S
C812 H803 0.930 . S
C812 C810 1.378 . S
C812 C813 1.367 . S
C813 C812 1.367 . S
C813 C815 1.433 . S
C814 C810 1.350 . S
C814 C811 1.463 . S
C814 N818 1.427 . S
C815 H805 0.929 . S
C815 C813 1.433 . S
C815 N818 1.384 . S
C816 H807 0.929 . S
C816 C808 1.378 . S
C816 C811 1.350 . S
C817 H804 0.929 . S
C817 C809 1.433 . S
C817 N819 1.384 . S
N818 C814 1.427 . S
N818 C815 1.384 . S
N819 C811 1.427 . S
N819 C817 1.384 . S
H820 C826 0.930 . S
H821 C830 0.930 . S
H822 C835 0.929 . S
H823 C833 0.929 . S
H824 C828 0.929 . S
H825 C834 0.929 . S
C826 H820 0.930 . S
C826 C827 1.382 . S
C826 C834 1.378 . S
C827 C826 1.382 . S
C827 C835 1.404 1_455 S
C828 H824 0.929 . S
C828 C830 1.378 . S
C828 C832 1.350 . S
C829 C832 1.463 . S
C829 C834 1.350 1_655 S
C829 N837 1.427 . S
C830 H821 0.930 . S
C830 C828 1.378 . S
C830 C831 1.367 . S
C831 C830 1.367 . S
C831 C833 1.433 . S
C832 C828 1.350 . S
C832 C829 1.463 . S
C832 N836 1.427 . S
C833 H823 0.929 . S
C833 C831 1.433 . S
C833 N836 1.384 . S
C834 H825 0.929 . S
C834 C826 1.378 . S
C834 C829 1.350 1_455 S
C835 H822 0.929 . S
C835 C827 1.404 1_655 S
C835 N837 1.384 . S
N836 C832 1.427 . S
N836 C833 1.384 . S
N837 C829 1.427 . S
N837 C835 1.384 . S
H838 C844 0.930 . S
H839 C848 0.930 . S
H840 C853 0.929 . S
H841 C851 0.929 1_556 S
H842 C846 0.929 . S
H843 C852 0.929 . S
C844 H838 0.930 . S
C844 C845 1.367 . S
C844 C852 1.378 . S
C845 C844 1.367 . S
C845 C853 1.433 . S
C846 H842 0.929 . S
C846 C848 1.378 . S
C846 C850 1.350 1_455 S
C847 C850 1.463 . S
C847 C852 1.350 . S
C847 N855 1.427 . S
C848 H839 0.930 . S
C848 C846 1.378 . S
C848 C849 1.344 1_554 S
C849 C848 1.344 1_556 S
C849 C851 1.435 1_456 S
C850 C846 1.350 1_655 S
C850 C847 1.463 . S
C850 N854 1.427 . S
C851 H841 0.929 1_554 S
C851 C849 1.435 1_654 S
C851 N854 1.384 . S
C852 H843 0.929 . S
C852 C844 1.378 . S
C852 C847 1.350 . S
C853 H840 0.929 . S
C853 C845 1.433 . S
C853 N855 1.384 . S
N854 C850 1.427 . S
N854 C851 1.384 . S
N855 C847 1.427 . S
N855 C853 1.384 . S
H856 C862 0.930 . S
H857 C866 0.930 . S
H858 C871 0.929 . S
H859 C869 0.929 . S
H860 C864 0.929 . S
H861 C870 0.929 . S
C862 H856 0.930 . S
C862 C863 1.367 . S
C862 C870 1.378 . S
C863 C862 1.367 . S
C863 C871 1.433 . S
C864 H860 0.929 . S
C864 C866 1.378 . S
C864 C868 1.350 . S
C865 C868 1.463 . S
C865 C870 1.350 . S
C865 N873 1.427 . S
C866 H857 0.930 . S
C866 C864 1.378 . S
C866 C867 1.367 . S
C867 C866 1.367 . S
C867 C869 1.433 . S
C868 C864 1.350 . S
C868 C865 1.463 . S
C868 N872 1.427 . S
C869 H859 0.929 . S
C869 C867 1.433 . S
C869 N872 1.384 . S
C870 H861 0.929 . S
C870 C862 1.378 . S
C870 C865 1.350 . S
C871 H858 0.929 . S
C871 C863 1.433 . S
C871 N873 1.384 . S
N872 C868 1.427 . S
N872 C869 1.384 . S
N873 C865 1.427 . S
N873 C871 1.384 . S
H874 C880 0.930 . S
H875 C884 0.930 . S
H876 C889 0.929 . S
H877 C887 0.929 . S
H878 C882 0.929 . S
H879 C888 0.929 . S
C880 H874 0.930 . S
C880 C881 1.367 . S
C880 C888 1.378 . S
C881 C880 1.367 . S
C881 C889 1.433 . S
C882 H878 0.929 . S
C882 C884 1.378 . S
C882 C886 1.350 . S
C883 C886 1.463 . S
C883 C888 1.350 . S
C883 N891 1.427 . S
C884 H875 0.930 . S
C884 C882 1.378 . S
C884 C885 1.367 . S
C885 C884 1.367 . S
C885 C887 1.433 . S
C886 C882 1.350 . S
C886 C883 1.463 . S
C886 N890 1.427 . S
C887 H877 0.929 . S
C887 C885 1.433 . S
C887 N890 1.384 . S
C888 H879 0.929 . S
C888 C880 1.378 . S
C888 C883 1.350 . S
C889 H876 0.929 . S
C889 C881 1.433 . S
C889 N891 1.384 . S
N890 C886 1.427 . S
N890 C887 1.384 . S
N891 C883 1.427 . S
N891 C889 1.384 . S
H892 C898 0.930 . S
H893 C902 0.930 . S
H894 C907 0.929 . S
H895 C905 0.929 . S
H896 C900 0.929 . S
H897 C906 0.929 . S
C898 H892 0.930 . S
C898 C899 1.367 . S
C898 C906 1.378 . S
C899 C898 1.367 . S
C899 C907 1.433 . S
C900 H896 0.929 . S
C900 C902 1.378 . S
C900 C904 1.350 . S
C901 C904 1.463 . S
C901 C906 1.350 . S
C901 N909 1.427 . S
C902 H893 0.930 . S
C902 C900 1.378 . S
C902 C903 1.367 . S
C903 C902 1.367 . S
C903 C905 1.433 . S
C904 C900 1.350 . S
C904 C901 1.463 . S
C904 N908 1.427 . S
C905 H895 0.929 . S
C905 C903 1.433 . S
C905 N908 1.384 . S
C906 H897 0.929 . S
C906 C898 1.378 . S
C906 C901 1.350 . S
C907 H894 0.929 . S
C907 C899 1.433 . S
C907 N909 1.384 . S
N908 C904 1.427 . S
N908 C905 1.384 . S
N909 C901 1.427 . S
N909 C907 1.384 . S
H910 C916 0.930 . S
H911 C920 0.930 . S
H912 C925 0.929 . S
H913 C923 0.929 . S
H914 C918 0.929 . S
H915 C924 0.929 . S
C916 H910 0.930 . S
C916 C917 1.367 . S
C916 C924 1.378 . S
C917 C916 1.367 . S
C917 C925 1.433 . S
C918 H914 0.929 . S
C918 C920 1.378 . S
C918 C922 1.350 . S
C919 C922 1.463 . S
C919 C924 1.350 . S
C919 N927 1.427 . S
C920 H911 0.930 . S
C920 C918 1.378 . S
C920 C921 1.367 . S
C921 C920 1.367 . S
C921 C923 1.433 . S
C922 C918 1.350 . S
C922 C919 1.463 . S
C922 N926 1.427 . S
C923 H913 0.929 . S
C923 C921 1.433 . S
C923 N926 1.384 . S
C924 H915 0.929 . S
C924 C916 1.378 . S
C924 C919 1.350 . S
C925 H912 0.929 . S
C925 C917 1.433 . S
C925 N927 1.384 . S
N926 C922 1.427 . S
N926 C923 1.384 . S
N927 C919 1.427 . S
N927 C925 1.384 . S
H928 C934 0.930 . S
H929 C938 0.930 . S
H930 C943 0.929 . S
H931 C941 0.929 . S
H932 C936 0.929 . S
H933 C942 0.929 . S
C934 H928 0.930 . S
C934 C935 1.367 . S
C934 C942 1.378 . S
C935 C934 1.367 . S
C935 C943 1.433 . S
C936 H932 0.929 . S
C936 C938 1.378 . S
C936 C940 1.350 . S
C937 C940 1.463 . S
C937 C942 1.350 . S
C937 N945 1.427 . S
C938 H929 0.930 . S
C938 C936 1.378 . S
C938 C939 1.367 . S
C939 C938 1.367 . S
C939 C941 1.433 . S
C940 C936 1.350 . S
C940 C937 1.463 . S
C940 N944 1.427 . S
C941 H931 0.929 . S
C941 C939 1.433 . S
C941 N944 1.384 . S
C942 H933 0.929 . S
C942 C934 1.378 . S
C942 C937 1.350 . S
C943 H930 0.929 . S
C943 C935 1.433 . S
C943 N945 1.384 . S
N944 C940 1.427 . S
N944 C941 1.384 . S
N945 C937 1.427 . S
N945 C943 1.384 . S
H946 C952 0.930 . S
H947 C956 0.930 . S
H948 C961 0.929 . S
H949 C959 0.929 . S
H950 C954 0.929 . S
H951 C960 0.928 1_655 S
C952 H946 0.930 . S
C952 C953 1.367 . S
C952 C960 1.372 1_655 S
C953 C952 1.367 . S
C953 C961 1.433 1_655 S
C954 H950 0.929 . S
C954 C956 1.378 . S
C954 C958 1.350 . S
C955 C958 1.463 . S
C955 C960 1.356 . S
C955 N963 1.427 . S
C956 H947 0.930 . S
C956 C954 1.378 . S
C956 C957 1.367 . S
C957 C956 1.367 . S
C957 C959 1.433 . S
C958 C954 1.350 . S
C958 C955 1.463 . S
C958 N962 1.427 . S
C959 H949 0.929 . S
C959 C957 1.433 . S
C959 N962 1.384 . S
C960 H951 0.928 1_455 S
C960 C952 1.372 1_455 S
C960 C955 1.356 . S
C961 H948 0.929 . S
C961 C953 1.433 1_455 S
C961 N963 1.384 . S
N962 C958 1.427 . S
N962 C959 1.384 . S
N963 C955 1.427 . S
N963 C961 1.384 . S
H964 C970 0.930 . S
H965 C974 0.930 . S
H966 C979 0.929 . S
H967 C977 0.929 . S
H968 C972 0.929 . S
H969 C978 0.929 . S
C970 H964 0.930 . S
C970 C971 1.367 . S
C970 C978 1.378 . S
C971 C970 1.367 . S
C971 C979 1.433 . S
C972 H968 0.929 . S
C972 C974 1.378 . S
C972 C976 1.350 . S
C973 C976 1.463 . S
C973 C978 1.350 . S
C973 N981 1.427 . S
C974 H965 0.930 . S
C974 C972 1.378 . S
C974 C975 1.367 . S
C975 C974 1.367 . S
C975 C977 1.433 . S
C976 C972 1.350 . S
C976 C973 1.463 . S
C976 N980 1.427 . S
C977 H967 0.929 . S
C977 C975 1.433 . S
C977 N980 1.384 . S
C978 H969 0.929 . S
C978 C970 1.378 . S
C978 C973 1.350 . S
C979 H966 0.929 . S
C979 C971 1.433 . S
C979 N981 1.384 . S
N980 C976 1.427 . S
N980 C977 1.384 . S
N981 C973 1.427 . S
N981 C979 1.384 . S
H982 C988 0.930 . S
H983 C992 0.930 . S
H984 C997 0.929 . S
H985 C995 0.929 . S
H986 C990 0.929 . S
H987 C996 0.929 . S
C988 H982 0.930 . S
C988 C989 1.367 . S
C988 C996 1.378 . S
C989 C988 1.367 . S
C989 C997 1.433 . S
C990 H986 0.929 . S
C990 C992 1.378 . S
C990 C994 1.350 . S
C991 C994 1.463 . S
C991 C996 1.350 . S
C991 N999 1.427 . S
C992 H983 0.930 . S
C992 C990 1.378 . S
C992 C993 1.367 . S
C993 C992 1.367 . S
C993 C995 1.433 . S
C994 C990 1.350 . S
C994 C991 1.463 . S
C994 N998 1.427 . S
C995 H985 0.929 . S
C995 C993 1.433 . S
C995 N998 1.384 . S
C996 H987 0.929 . S
C996 C988 1.378 . S
C996 C991 1.350 . S
C997 H984 0.929 . S
C997 C989 1.433 . S
C997 N999 1.384 . S
N998 C994 1.427 . S
N998 C995 1.384 . S
N999 C991 1.427 . S
N999 C997 1.384 . S
H1000 C1006 0.924 1_655 S
H1001 C1010 0.930 . S
H1002 C1015 0.929 . S
H1003 C1013 0.929 . S
H1004 C1008 0.929 . S
H1005 C1014 0.929 . S
C1006 H1000 0.924 1_455 S
C1006 C1007 1.366 . S
C1006 C1014 1.385 . S
C1007 C1006 1.366 . S
C1007 C1015 1.433 . S
C1008 H1004 0.929 . S
C1008 C1010 1.378 . S
C1008 C1012 1.350 . S
C1009 C1012 1.463 . S
C1009 C1014 1.350 . S
C1009 N1017 1.427 . S
C1010 H1001 0.930 . S
C1010 C1008 1.378 . S
C1010 C1011 1.367 . S
C1011 C1010 1.367 . S
C1011 C1013 1.433 . S
C1012 C1008 1.350 . S
C1012 C1009 1.463 . S
C1012 N1016 1.427 . S
C1013 H1003 0.929 . S
C1013 C1011 1.433 . S
C1013 N1016 1.384 . S
C1014 H1005 0.929 . S
C1014 C1006 1.385 . S
C1014 C1009 1.350 . S
C1015 H1002 0.929 . S
C1015 C1007 1.433 . S
C1015 N1017 1.384 . S
N1016 C1012 1.427 . S
N1016 C1013 1.384 . S
N1017 C1009 1.427 . S
N1017 C1015 1.384 . S
H1018 C1024 0.930 . S
H1019 C1028 0.930 . S
H1020 C1033 0.929 . S
H1021 C1031 0.929 . S
H1022 C1026 0.929 . S
H1023 C1032 0.929 . S
C1024 H1018 0.930 . S
C1024 C1025 1.367 . S
C1024 C1032 1.378 . S
C1025 C1024 1.367 . S
C1025 C1033 1.433 . S
C1026 H1022 0.929 . S
C1026 C1028 1.378 . S
C1026 C1030 1.350 . S
C1027 C1030 1.463 . S
C1027 C1032 1.350 . S
C1027 N1035 1.427 . S
C1028 H1019 0.930 . S
C1028 C1026 1.378 . S
C1028 C1029 1.367 . S
C1029 C1028 1.367 . S
C1029 C1031 1.433 . S
C1030 C1026 1.350 . S
C1030 C1027 1.463 . S
C1030 N1034 1.427 . S
C1031 H1021 0.929 . S
C1031 C1029 1.433 . S
C1031 N1034 1.384 . S
C1032 H1023 0.929 . S
C1032 C1024 1.378 . S
C1032 C1027 1.350 . S
C1033 H1020 0.929 . S
C1033 C1025 1.433 . S
C1033 N1035 1.384 . S
N1034 C1030 1.427 . S
N1034 C1031 1.384 . S
N1035 C1027 1.427 . S
N1035 C1033 1.384 . S
H1036 C1042 0.930 . S
H1037 C1046 0.930 . S
H1038 C1051 0.929 . S
H1039 C1049 0.929 . S
H1040 C1044 0.929 . S
H1041 C1050 0.929 . S
C1042 H1036 0.930 . S
C1042 C1043 1.367 . S
C1042 C1050 1.378 . S
C1043 C1042 1.367 . S
C1043 C1051 1.433 . S
C1044 H1040 0.929 . S
C1044 C1046 1.378 . S
C1044 C1048 1.350 . S
C1045 C1048 1.463 . S
C1045 C1050 1.350 . S
C1045 N1053 1.427 . S
C1046 H1037 0.930 . S
C1046 C1044 1.378 . S
C1046 C1047 1.367 . S
C1047 C1046 1.367 . S
C1047 C1049 1.433 . S
C1048 C1044 1.350 . S
C1048 C1045 1.463 . S
C1048 N1052 1.427 . S
C1049 H1039 0.929 . S
C1049 C1047 1.433 . S
C1049 N1052 1.384 . S
C1050 H1041 0.929 . S
C1050 C1042 1.378 . S
C1050 C1045 1.350 . S
C1051 H1038 0.929 . S
C1051 C1043 1.433 . S
C1051 N1053 1.384 . S
N1052 C1048 1.427 . S
N1052 C1049 1.384 . S
N1053 C1045 1.427 . S
N1053 C1051 1.384 . S
H1054 C1060 0.930 . S
H1055 C1064 0.930 . S
H1056 C1069 0.929 . S
H1057 C1067 0.929 . S
H1058 C1062 0.929 . S
H1059 C1068 0.929 . S
C1060 H1054 0.930 . S
C1060 C1061 1.367 . S
C1060 C1068 1.378 . S
C1061 C1060 1.367 . S
C1061 C1069 1.433 . S
C1062 H1058 0.929 . S
C1062 C1064 1.378 1_455 S
C1062 C1066 1.350 . S
C1063 C1066 1.463 . S
C1063 C1068 1.350 . S
C1063 N1071 1.427 . S
C1064 H1055 0.930 . S
C1064 C1062 1.378 1_655 S
C1064 C1065 1.367 . S
C1065 C1064 1.367 . S
C1065 C1067 1.433 . S
C1066 C1062 1.350 . S
C1066 C1063 1.463 . S
C1066 N1070 1.427 . S
C1067 H1057 0.929 . S
C1067 C1065 1.433 . S
C1067 N1070 1.384 1_655 S
C1068 H1059 0.929 . S
C1068 C1060 1.378 . S
C1068 C1063 1.350 . S
C1069 H1056 0.929 . S
C1069 C1061 1.433 . S
C1069 N1071 1.384 . S
N1070 C1066 1.427 . S
N1070 C1067 1.384 1_455 S
N1071 C1063 1.427 . S
N1071 C1069 1.384 . S
H1072 C1078 0.930 . S
H1073 C1082 0.930 . S
H1074 C1087 0.929 . S
H1075 C1085 0.929 1_655 S
H1076 C1080 0.929 1_545 S
H1077 C1086 0.929 . S
C1078 H1072 0.930 . S
C1078 C1079 1.367 . S
C1078 C1086 1.378 1_545 S
C1079 C1078 1.367 . S
C1079 C1087 1.433 . S
C1080 H1076 0.929 1_565 S
C1080 C1082 1.378 . S
C1080 C1084 1.350 1_556 S
C1081 C1084 1.463 1_545 S
C1081 C1086 1.350 1_545 S
C1081 N1089 1.427 . S
C1082 H1073 0.930 . S
C1082 C1080 1.378 . S
C1082 C1083 1.367 . S
C1083 C1082 1.367 . S
C1083 C1085 1.433 . S
C1084 C1080 1.350 1_554 S
C1084 C1081 1.463 1_565 S
C1084 N1088 1.427 . S
C1085 H1075 0.929 1_455 S
C1085 C1083 1.433 . S
C1085 N1088 1.384 1_556 S
C1086 H1077 0.929 . S
C1086 C1078 1.378 1_565 S
C1086 C1081 1.350 1_565 S
C1087 H1074 0.929 . S
C1087 C1079 1.433 . S
C1087 N1089 1.384 . S
N1088 C1084 1.427 . S
N1088 C1085 1.384 1_554 S
N1089 C1081 1.427 . S
N1089 C1087 1.384 . S
H1090 C1096 0.930 . S
H1091 C1100 0.930 . S
H1092 C1105 0.929 . S
H1093 C1103 0.929 . S
H1094 C1098 0.929 . S
H1095 C1104 0.929 . S
C1096 H1090 0.930 . S
C1096 C1097 1.367 . S
C1096 C1104 1.378 . S
C1097 C1096 1.367 . S
C1097 C1105 1.433 . S
C1098 H1094 0.929 . S
C1098 C1100 1.378 . S
C1098 C1102 1.350 . S
C1099 C1102 1.463 . S
C1099 C1104 1.350 . S
C1099 N1107 1.427 . S
C1100 H1091 0.930 . S
C1100 C1098 1.378 . S
C1100 C1101 1.367 . S
C1101 C1100 1.367 . S
C1101 C1103 1.433 . S
C1102 C1098 1.350 . S
C1102 C1099 1.463 . S
C1102 N1106 1.427 . S
C1103 H1093 0.929 . S
C1103 C1101 1.433 . S
C1103 N1106 1.384 . S
C1104 H1095 0.929 . S
C1104 C1096 1.378 . S
C1104 C1099 1.350 . S
C1105 H1092 0.929 . S
C1105 C1097 1.433 . S
C1105 N1107 1.384 . S
N1106 C1102 1.427 . S
N1106 C1103 1.384 . S
N1107 C1099 1.427 . S
N1107 C1105 1.384 . S
H1108 C1114 0.930 1_565 S
H1109 C1118 0.930 . S
H1110 C1123 0.929 . S
H1111 C1121 0.929 . S
H1112 C1116 0.931 . S
H1113 C1122 0.929 . S
C1114 H1108 0.930 1_545 S
C1114 C1115 1.367 . S
C1114 C1122 1.378 1_545 S
C1115 C1114 1.367 . S
C1115 C1123 1.433 . S
C1116 H1112 0.931 . S
C1116 C1118 1.376 1_545 S
C1116 C1120 1.349 1_545 S
C1117 C1120 1.447 1_545 S
C1117 C1122 1.339 1_545 S
C1117 N1125 1.455 . S
C1118 H1109 0.930 . S
C1118 C1116 1.376 1_565 S
C1118 C1119 1.367 . S
C1119 C1118 1.367 . S
C1119 C1121 1.433 . S
C1120 C1116 1.349 1_565 S
C1120 C1117 1.447 1_565 S
C1120 N1124 1.427 . S
C1121 H1111 0.929 . S
C1121 C1119 1.433 . S
C1121 N1124 1.384 . S
C1122 H1113 0.929 . S
C1122 C1114 1.378 1_565 S
C1122 C1117 1.339 1_565 S
C1123 H1110 0.929 . S
C1123 C1115 1.433 . S
C1123 N1125 1.384 . S
N1124 C1120 1.427 . S
N1124 C1121 1.384 . S
N1125 C1117 1.455 . S
N1125 C1123 1.384 . S
H1126 C1132 0.930 . S
H1127 C1136 0.930 . S
H1128 C1141 0.929 . S
H1129 C1139 0.929 . S
H1130 C1134 0.929 . S
H1131 C1140 0.929 . S
C1132 H1126 0.930 . S
C1132 C1133 1.367 . S
C1132 C1140 1.378 . S
C1133 C1132 1.367 . S
C1133 C1141 1.433 . S
C1134 H1130 0.929 . S
C1134 C1136 1.378 . S
C1134 C1138 1.350 . S
C1135 C1138 1.463 . S
C1135 C1140 1.350 . S
C1135 N1143 1.427 . S
C1136 H1127 0.930 . S
C1136 C1134 1.378 . S
C1136 C1137 1.367 . S
C1137 C1136 1.367 . S
C1137 C1139 1.433 . S
C1138 C1134 1.350 . S
C1138 C1135 1.463 . S
C1138 N1142 1.427 . S
C1139 H1129 0.929 . S
C1139 C1137 1.433 . S
C1139 N1142 1.384 . S
C1140 H1131 0.929 . S
C1140 C1132 1.378 . S
C1140 C1135 1.350 . S
C1141 H1128 0.929 . S
C1141 C1133 1.433 . S
C1141 N1143 1.384 . S
N1142 C1138 1.427 . S
N1142 C1139 1.384 . S
N1143 C1135 1.427 . S
N1143 C1141 1.384 . S
H1144 C1150 0.930 . S
H1145 C1154 0.930 . S
H1146 C1159 0.929 . S
H1147 C1157 0.929 . S
H1148 C1152 0.929 . S
H1149 C1158 0.929 . S
C1150 H1144 0.930 . S
C1150 C1151 1.367 . S
C1150 C1158 1.378 . S
C1151 C1150 1.367 . S
C1151 C1159 1.433 . S
C1152 H1148 0.929 . S
C1152 C1154 1.378 . S
C1152 C1156 1.350 . S
C1153 C1156 1.463 . S
C1153 C1158 1.350 . S
C1153 N1161 1.427 . S
C1154 H1145 0.930 . S
C1154 C1152 1.378 . S
C1154 C1155 1.367 . S
C1155 C1154 1.367 . S
C1155 C1157 1.433 . S
C1156 C1152 1.350 . S
C1156 C1153 1.463 . S
C1156 N1160 1.427 . S
C1157 H1147 0.929 . S
C1157 C1155 1.433 . S
C1157 N1160 1.384 . S
C1158 H1149 0.929 . S
C1158 C1150 1.378 . S
C1158 C1153 1.350 . S
C1159 H1146 0.929 . S
C1159 C1151 1.433 . S
C1159 N1161 1.384 . S
N1160 C1156 1.427 . S
N1160 C1157 1.384 . S
N1161 C1153 1.427 . S
N1161 C1159 1.384 . S
H1162 C1168 0.930 . S
H1163 C1172 0.930 . S
H1164 C1177 0.929 . S
H1165 C1175 0.929 . S
H1166 C1170 0.929 . S
H1167 C1176 0.929 . S
C1168 H1162 0.930 . S
C1168 C1169 1.367 . S
C1168 C1176 1.378 . S
C1169 C1168 1.367 . S
C1169 C1177 1.433 . S
C1170 H1166 0.929 . S
C1170 C1172 1.378 . S
C1170 C1174 1.350 . S
C1171 C1174 1.463 . S
C1171 C1176 1.350 . S
C1171 N1179 1.427 . S
C1172 H1163 0.930 . S
C1172 C1170 1.378 . S
C1172 C1173 1.367 . S
C1173 C1172 1.367 . S
C1173 C1175 1.433 . S
C1174 C1170 1.350 . S
C1174 C1171 1.463 . S
C1174 N1178 1.427 . S
C1175 H1165 0.929 . S
C1175 C1173 1.433 . S
C1175 N1178 1.384 . S
C1176 H1167 0.929 . S
C1176 C1168 1.378 . S
C1176 C1171 1.350 . S
C1177 H1164 0.929 . S
C1177 C1169 1.433 . S
C1177 N1179 1.384 . S
N1178 C1174 1.427 . S
N1178 C1175 1.384 . S
N1179 C1171 1.427 . S
N1179 C1177 1.384 . S
H1180 C1186 0.930 . S
H1181 C1190 0.930 . S
H1182 C1195 0.929 . S
H1183 C1193 0.929 . S
H1184 C1188 0.929 . S
H1185 C1194 0.929 . S
C1186 H1180 0.930 . S
C1186 C1187 1.367 . S
C1186 C1194 1.378 . S
C1187 C1186 1.367 . S
C1187 C1195 1.433 . S
C1188 H1184 0.929 . S
C1188 C1190 1.378 . S
C1188 C1192 1.350 . S
C1189 C1192 1.463 . S
C1189 C1194 1.350 . S
C1189 N1197 1.427 . S
C1190 H1181 0.930 . S
C1190 C1188 1.378 . S
C1190 C1191 1.367 . S
C1191 C1190 1.367 . S
C1191 C1193 1.433 . S
C1192 C1188 1.350 . S
C1192 C1189 1.463 . S
C1192 N1196 1.427 . S
C1193 H1183 0.929 . S
C1193 C1191 1.433 . S
C1193 N1196 1.384 . S
C1194 H1185 0.929 . S
C1194 C1186 1.378 . S
C1194 C1189 1.350 . S
C1195 H1182 0.929 . S
C1195 C1187 1.433 . S
C1195 N1197 1.384 . S
N1196 C1192 1.427 . S
N1196 C1193 1.384 . S
N1197 C1189 1.427 . S
N1197 C1195 1.384 . S
H1198 C1204 0.930 . S
H1199 C1208 0.930 . S
H1200 C1213 0.929 . S
H1201 C1211 0.929 . S
H1202 C1206 0.929 . S
H1203 C1212 0.929 . S
C1204 H1198 0.930 . S
C1204 C1205 1.367 . S
C1204 C1212 1.378 . S
C1205 C1204 1.367 . S
C1205 C1213 1.433 . S
C1206 H1202 0.929 . S
C1206 C1208 1.378 1_556 S
C1206 C1210 1.350 . S
C1207 C1210 1.463 . S
C1207 C1212 1.350 . S
C1207 N1215 1.427 . S
C1208 H1199 0.930 . S
C1208 C1206 1.378 1_554 S
C1208 C1209 1.367 . S
C1209 C1208 1.367 . S
C1209 C1211 1.433 . S
C1210 C1206 1.350 . S
C1210 C1207 1.463 . S
C1210 N1214 1.427 1_556 S
C1211 H1201 0.929 . S
C1211 C1209 1.433 . S
C1211 N1214 1.384 . S
C1212 H1203 0.929 . S
C1212 C1204 1.378 . S
C1212 C1207 1.350 . S
C1213 H1200 0.929 . S
C1213 C1205 1.433 . S
C1213 N1215 1.384 . S
N1214 C1210 1.427 1_554 S
N1214 C1211 1.384 . S
N1215 C1207 1.427 . S
N1215 C1213 1.384 . S
H1216 C1222 0.930 . S
H1217 C1226 0.930 . S
H1218 C1231 0.929 . S
H1219 C1229 0.929 . S
H1220 C1224 0.929 . S
H1221 C1230 0.929 . S
C1222 H1216 0.930 . S
C1222 C1223 1.367 . S
C1222 C1230 1.378 . S
C1223 C1222 1.367 . S
C1223 C1231 1.433 . S
C1224 H1220 0.929 . S
C1224 C1226 1.378 . S
C1224 C1228 1.350 . S
C1225 C1228 1.463 . S
C1225 C1230 1.350 . S
C1225 N1233 1.427 . S
C1226 H1217 0.930 . S
C1226 C1224 1.378 . S
C1226 C1227 1.367 . S
C1227 C1226 1.367 . S
C1227 C1229 1.433 . S
C1228 C1224 1.350 . S
C1228 C1225 1.463 . S
C1228 N1232 1.427 . S
C1229 H1219 0.929 . S
C1229 C1227 1.433 . S
C1229 N1232 1.384 . S
C1230 H1221 0.929 . S
C1230 C1222 1.378 . S
C1230 C1225 1.350 . S
C1231 H1218 0.929 . S
C1231 C1223 1.433 . S
C1231 N1233 1.384 . S
N1232 C1228 1.427 . S
N1232 C1229 1.384 . S
N1233 C1225 1.427 . S
N1233 C1231 1.384 . S
H1234 C1240 0.930 . S
H1235 C1244 0.930 . S
H1236 C1249 0.929 . S
H1237 C1247 0.929 . S
H1238 C1242 0.929 . S
H1239 C1248 0.929 . S
C1240 H1234 0.930 . S
C1240 C1241 1.367 . S
C1240 C1248 1.378 . S
C1241 C1240 1.367 . S
C1241 C1249 1.433 . S
C1242 H1238 0.929 . S
C1242 C1244 1.378 . S
C1242 C1246 1.350 . S
C1243 C1246 1.463 . S
C1243 C1248 1.350 . S
C1243 N1251 1.427 . S
C1244 H1235 0.930 . S
C1244 C1242 1.378 . S
C1244 C1245 1.367 . S
C1245 C1244 1.367 . S
C1245 C1247 1.433 . S
C1246 C1242 1.350 . S
C1246 C1243 1.463 . S
C1246 N1250 1.427 . S
C1247 H1237 0.929 . S
C1247 C1245 1.433 . S
C1247 N1250 1.384 . S
C1248 H1239 0.929 . S
C1248 C1240 1.378 . S
C1248 C1243 1.350 . S
C1249 H1236 0.929 . S
C1249 C1241 1.433 . S
C1249 N1251 1.384 . S
N1250 C1246 1.427 . S
N1250 C1247 1.384 . S
N1251 C1243 1.427 . S
N1251 C1249 1.384 . S
H1252 C1258 0.930 . S
H1253 C1262 0.930 . S
H1254 C1267 0.929 . S
H1255 C1265 0.929 . S
H1256 C1260 0.929 . S
H1257 C1266 0.929 . S
C1258 H1252 0.930 . S
C1258 C1259 1.367 . S
C1258 C1266 1.378 . S
C1259 C1258 1.367 . S
C1259 C1267 1.433 . S
C1260 H1256 0.929 . S
C1260 C1262 1.378 . S
C1260 C1264 1.350 . S
C1261 C1264 1.463 . S
C1261 C1266 1.350 . S
C1261 N1269 1.427 . S
C1262 H1253 0.930 . S
C1262 C1260 1.378 . S
C1262 C1263 1.367 . S
C1263 C1262 1.367 . S
C1263 C1265 1.433 . S
C1264 C1260 1.350 . S
C1264 C1261 1.463 . S
C1264 N1268 1.427 . S
C1265 H1255 0.929 . S
C1265 C1263 1.433 . S
C1265 N1268 1.384 . S
C1266 H1257 0.929 . S
C1266 C1258 1.378 . S
C1266 C1261 1.350 . S
C1267 H1254 0.929 . S
C1267 C1259 1.433 . S
C1267 N1269 1.384 . S
N1268 C1264 1.427 . S
N1268 C1265 1.384 . S
N1269 C1261 1.427 . S
N1269 C1267 1.384 . S
H1270 C1276 0.930 . S
H1271 C1280 0.930 . S
H1272 C1285 0.929 . S
H1273 C1283 0.929 1_556 S
H1274 C1278 0.929 . S
H1275 C1284 0.929 . S
C1276 H1270 0.930 . S
C1276 C1277 1.367 . S
C1276 C1284 1.378 . S
C1277 C1276 1.367 . S
C1277 C1285 1.433 . S
C1278 H1274 0.929 . S
C1278 C1280 1.378 . S
C1278 C1282 1.350 . S
C1279 C1282 1.463 . S
C1279 C1284 1.350 . S
C1279 N1287 1.427 . S
C1280 H1271 0.930 . S
C1280 C1278 1.378 . S
C1280 C1281 1.367 . S
C1281 C1280 1.367 . S
C1281 C1283 1.433 . S
C1282 C1278 1.350 . S
C1282 C1279 1.463 . S
C1282 N1286 1.427 . S
C1283 H1273 0.929 1_554 S
C1283 C1281 1.433 . S
C1283 N1286 1.384 . S
C1284 H1275 0.929 . S
C1284 C1276 1.378 . S
C1284 C1279 1.350 . S
C1285 H1272 0.929 . S
C1285 C1277 1.433 . S
C1285 N1287 1.384 . S
N1286 C1282 1.427 . S
N1286 C1283 1.384 . S
N1287 C1279 1.427 . S
N1287 C1285 1.384 . S
H1288 C1294 0.930 . S
H1289 C1298 0.930 . S
H1290 C1303 0.929 . S
H1291 C1301 0.929 . S
H1292 C1296 0.929 . S
H1293 C1302 0.929 . S
C1294 H1288 0.930 . S
C1294 C1295 1.367 . S
C1294 C1302 1.378 . S
C1295 C1294 1.367 . S
C1295 C1303 1.433 . S
C1296 H1292 0.929 . S
C1296 C1298 1.378 . S
C1296 C1300 1.350 . S
C1297 C1300 1.463 . S
C1297 C1302 1.350 . S
C1297 N1305 1.427 . S
C1298 H1289 0.930 . S
C1298 C1296 1.378 . S
C1298 C1299 1.367 . S
C1299 C1298 1.367 . S
C1299 C1301 1.433 . S
C1300 C1296 1.350 . S
C1300 C1297 1.463 . S
C1300 N1304 1.427 . S
C1301 H1291 0.929 . S
C1301 C1299 1.433 . S
C1301 N1304 1.384 . S
C1302 H1293 0.929 . S
C1302 C1294 1.378 . S
C1302 C1297 1.350 . S
C1303 H1290 0.929 . S
C1303 C1295 1.433 . S
C1303 N1305 1.384 . S
N1304 C1300 1.427 . S
N1304 C1301 1.384 . S
N1305 C1297 1.427 . S
N1305 C1303 1.384 . S
H1306 C1312 0.930 . S
H1307 C1316 0.930 . S
H1308 C1321 0.929 . S
H1309 C1319 0.925 1_455 S
H1310 C1314 0.929 . S
H1311 C1320 0.929 . S
C1312 H1306 0.930 . S
C1312 C1313 1.367 . S
C1312 C1320 1.378 . S
C1313 C1312 1.367 . S
C1313 C1321 1.433 . S
C1314 H1310 0.929 . S
C1314 C1316 1.378 . S
C1314 C1318 1.350 . S
C1315 C1318 1.463 . S
C1315 C1320 1.350 . S
C1315 N1323 1.427 . S
C1316 H1307 0.930 . S
C1316 C1314 1.378 . S
C1316 C1317 1.373 . S
C1317 C1316 1.373 . S
C1317 C1319 1.433 . S
C1318 C1314 1.350 . S
C1318 C1315 1.463 . S
C1318 N1322 1.427 . S
C1319 H1309 0.925 1_655 S
C1319 C1317 1.433 . S
C1319 N1322 1.388 . S
C1320 H1311 0.929 . S
C1320 C1312 1.378 . S
C1320 C1315 1.350 . S
C1321 H1308 0.929 . S
C1321 C1313 1.433 . S
C1321 N1323 1.384 . S
N1322 C1318 1.427 . S
N1322 C1319 1.388 . S
N1323 C1315 1.427 . S
N1323 C1321 1.384 . S
H1324 C1330 0.930 . S
H1325 C1334 0.930 . S
H1326 C1339 0.929 . S
H1327 C1337 0.929 . S
H1328 C1332 0.929 . S
H1329 C1338 0.929 . S
C1330 H1324 0.930 . S
C1330 C1331 1.367 . S
C1330 C1338 1.378 . S
C1331 C1330 1.367 . S
C1331 C1339 1.433 . S
C1332 H1328 0.929 . S
C1332 C1334 1.378 . S
C1332 C1336 1.350 . S
C1333 C1336 1.463 . S
C1333 C1338 1.350 . S
C1333 N1341 1.427 . S
C1334 H1325 0.930 . S
C1334 C1332 1.378 . S
C1334 C1335 1.367 . S
C1335 C1334 1.367 . S
C1335 C1337 1.433 . S
C1336 C1332 1.350 . S
C1336 C1333 1.463 . S
C1336 N1340 1.427 . S
C1337 H1327 0.929 . S
C1337 C1335 1.433 . S
C1337 N1340 1.384 . S
C1338 H1329 0.929 . S
C1338 C1330 1.378 . S
C1338 C1333 1.350 . S
C1339 H1326 0.929 . S
C1339 C1331 1.433 . S
C1339 N1341 1.384 . S
N1340 C1336 1.427 . S
N1340 C1337 1.384 . S
N1341 C1333 1.427 . S
N1341 C1339 1.384 . S
H1342 C1348 0.930 . S
H1343 C1352 0.930 . S
H1344 C1357 0.929 . S
H1345 C1355 0.929 . S
H1346 C1350 0.929 . S
H1347 C1356 0.929 . S
C1348 H1342 0.930 . S
C1348 C1349 1.367 . S
C1348 C1356 1.378 . S
C1349 C1348 1.367 . S
C1349 C1357 1.433 . S
C1350 H1346 0.929 . S
C1350 C1352 1.378 . S
C1350 C1354 1.350 . S
C1351 C1354 1.463 . S
C1351 C1356 1.350 . S
C1351 N1359 1.427 . S
C1352 H1343 0.930 . S
C1352 C1350 1.378 . S
C1352 C1353 1.367 . S
C1353 C1352 1.367 . S
C1353 C1355 1.433 . S
C1354 C1350 1.350 . S
C1354 C1351 1.463 . S
C1354 N1358 1.427 . S
C1355 H1345 0.929 . S
C1355 C1353 1.433 . S
C1355 N1358 1.384 . S
C1356 H1347 0.929 . S
C1356 C1348 1.378 . S
C1356 C1351 1.350 . S
C1357 H1344 0.929 . S
C1357 C1349 1.433 . S
C1357 N1359 1.384 . S
N1358 C1354 1.427 . S
N1358 C1355 1.384 . S
N1359 C1351 1.427 . S
N1359 C1357 1.384 . S
H1360 C1366 0.930 . S
H1361 C1370 0.930 . S
H1362 C1375 0.929 . S
H1363 C1373 0.929 . S
H1364 C1368 0.929 . S
H1365 C1374 0.929 . S
C1366 H1360 0.930 . S
C1366 C1367 1.367 . S
C1366 C1374 1.378 . S
C1367 C1366 1.367 . S
C1367 C1375 1.433 . S
C1368 H1364 0.929 . S
C1368 C1370 1.378 1_556 S
C1368 C1372 1.350 . S
C1369 C1372 1.463 . S
C1369 C1374 1.350 . S
C1369 N1377 1.427 . S
C1370 H1361 0.930 . S
C1370 C1368 1.378 1_554 S
C1370 C1371 1.367 . S
C1371 C1370 1.367 . S
C1371 C1373 1.433 . S
C1372 C1368 1.350 . S
C1372 C1369 1.463 . S
C1372 N1376 1.427 . S
C1373 H1363 0.929 . S
C1373 C1371 1.433 . S
C1373 N1376 1.384 1_554 S
C1374 H1365 0.929 . S
C1374 C1366 1.378 . S
C1374 C1369 1.350 . S
C1375 H1362 0.929 . S
C1375 C1367 1.433 . S
C1375 N1377 1.384 . S
N1376 C1372 1.427 . S
N1376 C1373 1.384 1_556 S
N1377 C1369 1.427 . S
N1377 C1375 1.384 . S
H1378 C1384 0.930 . S
H1379 C1388 0.930 . S
H1380 C1393 0.929 . S
H1381 C1391 0.929 . S
H1382 C1386 0.929 . S
H1383 C1392 0.929 . S
C1384 H1378 0.930 . S
C1384 C1385 1.367 . S
C1384 C1392 1.378 . S
C1385 C1384 1.367 . S
C1385 C1393 1.433 . S
C1386 H1382 0.929 . S
C1386 C1388 1.378 . S
C1386 C1390 1.350 . S
C1387 C1390 1.463 . S
C1387 C1392 1.350 . S
C1387 N1395 1.427 . S
C1388 H1379 0.930 . S
C1388 C1386 1.378 . S
C1388 C1389 1.367 . S
C1389 C1388 1.367 . S
C1389 C1391 1.433 . S
C1390 C1386 1.350 . S
C1390 C1387 1.463 . S
C1390 N1394 1.427 . S
C1391 H1381 0.929 . S
C1391 C1389 1.433 . S
C1391 N1394 1.384 . S
C1392 H1383 0.929 . S
C1392 C1384 1.378 . S
C1392 C1387 1.350 . S
C1393 H1380 0.929 . S
C1393 C1385 1.433 . S
C1393 N1395 1.384 . S
N1394 C1390 1.427 . S
N1394 C1391 1.384 . S
N1395 C1387 1.427 . S
N1395 C1393 1.384 . S
H1396 C1402 0.930 . S
H1397 C1406 0.930 . S
H1398 C1411 0.929 . S
H1399 C1409 0.929 . S
H1400 C1404 0.929 . S
H1401 C1410 0.929 . S
C1402 H1396 0.930 . S
C1402 C1403 1.367 . S
C1402 C1410 1.378 . S
C1403 C1402 1.367 . S
C1403 C1411 1.433 . S
C1404 H1400 0.929 . S
C1404 C1406 1.378 . S
C1404 C1408 1.350 . S
C1405 C1408 1.463 . S
C1405 C1410 1.350 . S
C1405 N1413 1.427 . S
C1406 H1397 0.930 . S
C1406 C1404 1.378 . S
C1406 C1407 1.367 . S
C1407 C1406 1.367 . S
C1407 C1409 1.433 . S
C1408 C1404 1.350 . S
C1408 C1405 1.463 . S
C1408 N1412 1.427 . S
C1409 H1399 0.929 . S
C1409 C1407 1.433 . S
C1409 N1412 1.384 . S
C1410 H1401 0.929 . S
C1410 C1402 1.378 . S
C1410 C1405 1.350 . S
C1411 H1398 0.929 . S
C1411 C1403 1.433 . S
C1411 N1413 1.384 . S
N1412 C1408 1.427 . S
N1412 C1409 1.384 . S
N1413 C1405 1.427 . S
N1413 C1411 1.384 . S
H1414 C1420 0.930 1_455 S
H1415 C1424 0.930 . S
H1416 C1429 0.929 . S
H1417 C1427 0.929 . S
H1418 C1422 0.929 . S
H1419 C1428 0.929 . S
C1420 H1414 0.930 1_655 S
C1420 C1421 1.367 . S
C1420 C1428 1.378 . S
C1421 C1420 1.367 . S
C1421 C1429 1.433 . S
C1422 H1418 0.929 . S
C1422 C1424 1.378 . S
C1422 C1426 1.350 . S
C1423 C1426 1.463 . S
C1423 C1428 1.350 . S
C1423 N1431 1.427 . S
C1424 H1415 0.930 . S
C1424 C1422 1.378 . S
C1424 C1425 1.367 . S
C1425 C1424 1.367 . S
C1425 C1427 1.433 . S
C1426 C1422 1.350 . S
C1426 C1423 1.463 . S
C1426 N1430 1.427 . S
C1427 H1417 0.929 . S
C1427 C1425 1.433 . S
C1427 N1430 1.384 . S
C1428 H1419 0.929 . S
C1428 C1420 1.378 . S
C1428 C1423 1.350 . S
C1429 H1416 0.929 . S
C1429 C1421 1.433 . S
C1429 N1431 1.384 . S
N1430 C1426 1.427 . S
N1430 C1427 1.384 . S
N1431 C1423 1.427 . S
N1431 C1429 1.384 . S
H1432 C1438 0.930 . S
H1433 C1442 0.930 . S
H1434 C1447 0.929 . S
H1435 C1445 0.929 . S
H1436 C1440 0.929 . S
H1437 C1446 0.929 . S
C1438 H1432 0.930 . S
C1438 C1439 1.367 . S
C1438 C1446 1.378 . S
C1439 C1438 1.367 . S
C1439 C1447 1.433 . S
C1440 H1436 0.929 . S
C1440 C1442 1.378 1_554 S
C1440 C1444 1.350 . S
C1441 C1444 1.463 . S
C1441 C1446 1.350 . S
C1441 N1449 1.427 . S
C1442 H1433 0.930 . S
C1442 C1440 1.378 1_556 S
C1442 C1443 1.367 . S
C1443 C1442 1.367 . S
C1443 C1445 1.433 . S
C1444 C1440 1.350 . S
C1444 C1441 1.463 . S
C1444 N1448 1.427 1_554 S
C1445 H1435 0.929 . S
C1445 C1443 1.433 . S
C1445 N1448 1.384 . S
C1446 H1437 0.929 . S
C1446 C1438 1.378 . S
C1446 C1441 1.350 . S
C1447 H1434 0.929 . S
C1447 C1439 1.433 . S
C1447 N1449 1.384 . S
N1448 C1444 1.427 1_556 S
N1448 C1445 1.384 . S
N1449 C1441 1.427 . S
N1449 C1447 1.384 . S
H1450 C1456 0.930 . S
H1451 C1460 0.930 . S
H1452 C1465 0.929 . S
H1453 C1463 0.929 . S
H1454 C1458 0.929 . S
H1455 C1464 0.929 . S
C1456 H1450 0.930 . S
C1456 C1457 1.367 . S
C1456 C1464 1.378 . S
C1457 C1456 1.367 . S
C1457 C1465 1.433 . S
C1458 H1454 0.929 . S
C1458 C1460 1.378 . S
C1458 C1462 1.350 . S
C1459 C1462 1.463 . S
C1459 C1464 1.350 . S
C1459 N1467 1.427 . S
C1460 H1451 0.930 . S
C1460 C1458 1.378 . S
C1460 C1461 1.367 . S
C1461 C1460 1.367 . S
C1461 C1463 1.433 . S
C1462 C1458 1.350 . S
C1462 C1459 1.463 . S
C1462 N1466 1.427 . S
C1463 H1453 0.929 . S
C1463 C1461 1.433 . S
C1463 N1466 1.384 . S
C1464 H1455 0.929 . S
C1464 C1456 1.378 . S
C1464 C1459 1.350 . S
C1465 H1452 0.929 . S
C1465 C1457 1.433 . S
C1465 N1467 1.384 . S
N1466 C1462 1.427 . S
N1466 C1463 1.384 . S
N1467 C1459 1.427 . S
N1467 C1465 1.384 . S
H1468 C1474 0.930 . S
H1469 C1478 0.930 . S
H1470 C1483 0.929 . S
H1471 C1481 0.929 . S
H1472 C1476 0.929 . S
H1473 C1482 0.929 . S
C1474 H1468 0.930 . S
C1474 C1475 1.367 . S
C1474 C1482 1.378 . S
C1475 C1474 1.367 . S
C1475 C1483 1.433 . S
C1476 H1472 0.929 . S
C1476 C1478 1.378 . S
C1476 C1480 1.350 . S
C1477 C1480 1.463 . S
C1477 C1482 1.350 . S
C1477 N1485 1.427 . S
C1478 H1469 0.930 . S
C1478 C1476 1.378 . S
C1478 C1479 1.367 . S
C1479 C1478 1.367 . S
C1479 C1481 1.433 . S
C1480 C1476 1.350 . S
C1480 C1477 1.463 . S
C1480 N1484 1.427 . S
C1481 H1471 0.929 . S
C1481 C1479 1.433 . S
C1481 N1484 1.384 . S
C1482 H1473 0.929 . S
C1482 C1474 1.378 . S
C1482 C1477 1.350 . S
C1483 H1470 0.929 . S
C1483 C1475 1.433 . S
C1483 N1485 1.384 . S
N1484 C1480 1.427 . S
N1484 C1481 1.384 . S
N1485 C1477 1.427 . S
N1485 C1483 1.384 . S
H1486 C1492 0.930 . S
H1487 C1496 0.930 . S
H1488 C1501 0.929 . S
H1489 C1499 0.929 . S
H1490 C1494 0.929 . S
H1491 C1500 0.929 . S
C1492 H1486 0.930 . S
C1492 C1493 1.367 . S
C1492 C1500 1.378 . S
C1493 C1492 1.367 . S
C1493 C1501 1.433 . S
C1494 H1490 0.929 . S
C1494 C1496 1.378 . S
C1494 C1498 1.350 . S
C1495 C1498 1.463 . S
C1495 C1500 1.350 . S
C1495 N1503 1.427 . S
C1496 H1487 0.930 . S
C1496 C1494 1.378 . S
C1496 C1497 1.367 . S
C1497 C1496 1.367 . S
C1497 C1499 1.433 . S
C1498 C1494 1.350 . S
C1498 C1495 1.463 . S
C1498 N1502 1.427 . S
C1499 H1489 0.929 . S
C1499 C1497 1.433 . S
C1499 N1502 1.384 . S
C1500 H1491 0.929 . S
C1500 C1492 1.378 . S
C1500 C1495 1.350 . S
C1501 H1488 0.929 . S
C1501 C1493 1.433 . S
C1501 N1503 1.384 . S
N1502 C1498 1.427 . S
N1502 C1499 1.384 . S
N1503 C1495 1.427 . S
N1503 C1501 1.384 . S
C647 C9 2.026 . S
C651 C295 2.046 . S
C665 C49 2.023 . S
C669 C175 2.043 . S
C683 C209 2.676 . S
C687 C89 2.709 . S
C701 C129 2.680 . S
C705 C249 2.659 . S
C719 C445 0.588 . S
C723 C179 0.601 . S
C737 C325 0.862 . S
C741 C5 0.875 . S
C755 C405 0.909 . S
C759 C245 0.853 . S
C773 C85 0.606 . S
C777 C379 0.517 . S
C791 C375 2.043 . S
C795 C489 2.035 . S
C809 C409 2.024 . S
C813 C575 2.044 . S
C827 C529 2.727 1_556 S
C831 C329 2.678 . S
C845 C449 2.683 . S
C849 C609 2.680 . S
C863 C579 0.576 . S
C867 C125 0.603 . S
C881 C485 0.891 . S
C885 C205 0.868 . S
C899 C45 0.906 . S
C903 C605 0.855 . S
C917 C299 0.528 . S
C921 C525 0.630 . S
C935 C528 0.770 . S
C939 C8 0.761 . S
C953 C448 0.801 . S
C957 C48 0.769 . S
C971 C488 0.745 . S
C975 C88 0.767 . S
C989 C408 0.790 . S
C993 C128 0.800 . S
C1007 C178 0.593 . S
C1011 C608 0.489 . S
C1025 C378 0.580 . S
C1029 C208 0.471 . S
C1043 C248 0.461 . S
C1047 C578 0.623 . S
C1061 C298 0.571 . S
C1065 C328 0.478 . S
C1079 C18 1.887 . S
C1083 C168 1.915 1_455 S
C1097 C58 1.790 . S
C1101 C218 1.733 . S
C1115 C258 1.280 . S
C1119 C98 1.344 . S
C1133 C138 1.508 . S
C1137 C288 1.498 . S
C1151 C418 1.796 . S
C1155 C338 1.719 . S
C1169 C458 1.499 . S
C1173 C368 1.488 . S
C1187 C498 1.886 . S
C1191 C568 1.915 . S
C1205 C618 1.253 . S
C1209 C538 1.335 . S
C1223 C15 1.067 . S
C1227 C289 1.100 . S
C1241 C55 1.054 . S
C1245 C169 1.095 . S
C1259 C215 0.453 . S
C1263 C95 0.498 . S
C1277 C255 0.518 . S
C1281 C135 0.541 . S
C1295 C459 2.875 . S
C1299 C165 2.805 . S
C1313 C339 3.594 . S
C1317 C19 3.620 1_655 S
C1331 C419 3.670 1_554 S
C1335 C259 3.644 . S
C1349 C99 2.875 . S
C1353 C365 2.814 . S
C1367 C495 1.067 . S
C1371 C369 1.095 . S
C1385 C569 1.088 . S
C1389 C415 1.043 . S
C1403 C535 0.459 . S
C1407 C335 0.447 . S
C1421 C615 0.502 . S
C1425 C455 0.560 . S
C1439 C565 2.808 . S
C1443 C139 2.875 . S
C1457 C219 3.594 1_556 S
C1461 C499 3.626 . S
C1475 C59 3.670 . S
C1479 C619 3.644 . S
C1493 C539 2.874 . S
C1497 C285 2.817 . S
