# Generated by pormake.
# Topology wjf, (4)-cn, num edge types: 1
# Building blocks:
#     Node 0, Type 0, BuildingBlock: QUQFOY_clean_sbu_3, # of connection points: 4
#     Node 1, Type 0, BuildingBlock: QUQFOY_clean_sbu_3, # of connection points: 4
#     Node 2, Type 0, BuildingBlock: QUQFOY_clean_sbu_3, # of connection points: 4
#     Node 3, Type 0, BuildingBlock: QUQFOY_clean_sbu_3, # of connection points: 4
#     Node 4, Type 0, BuildingBlock: QUQFOY_clean_sbu_3, # of connection points: 4
#     Node 5, Type 0, BuildingBlock: QUQFOY_clean_sbu_3, # of connection points: 4
#     Node 6, Type 0, BuildingBlock: QUQFOY_clean_sbu_3, # of connection points: 4
#     Node 7, Type 0, BuildingBlock: QUQFOY_clean_sbu_3, # of connection points: 4
#     Node 8, Type 0, BuildingBlock: QUQFOY_clean_sbu_3, # of connection points: 4
#     Node 9, Type 0, BuildingBlock: QUQFOY_clean_sbu_3, # of connection points: 4
#     Node 10, Type 0, BuildingBlock: QUQFOY_clean_sbu_3, # of connection points: 4
#     Node 11, Type 0, BuildingBlock: QUQFOY_clean_sbu_3, # of connection points: 4
#     Edge 12, Type (0, 0), BuildingBlock: UVAHIK_clean_linker_0, # of connection points: 2
#     Edge 13, Type (0, 0), BuildingBlock: UVAHIK_clean_linker_0, # of connection points: 2
#     Edge 14, Type (0, 0), BuildingBlock: UVAHIK_clean_linker_0, # of connection points: 2
#     Edge 15, Type (0, 0), BuildingBlock: UVAHIK_clean_linker_0, # of connection points: 2
#     Edge 16, Type (0, 0), BuildingBlock: UVAHIK_clean_linker_0, # of connection points: 2
#     Edge 17, Type (0, 0), BuildingBlock: UVAHIK_clean_linker_0, # of connection points: 2
#     Edge 18, Type (0, 0), BuildingBlock: UVAHIK_clean_linker_0, # of connection points: 2
#     Edge 19, Type (0, 0), BuildingBlock: UVAHIK_clean_linker_0, # of connection points: 2
#     Edge 20, Type (0, 0), BuildingBlock: UVAHIK_clean_linker_0, # of connection points: 2
#     Edge 21, Type (0, 0), BuildingBlock: UVAHIK_clean_linker_0, # of connection points: 2
#     Edge 22, Type (0, 0), BuildingBlock: UVAHIK_clean_linker_0, # of connection points: 2
#     Edge 23, Type (0, 0), BuildingBlock: UVAHIK_clean_linker_0, # of connection points: 2
#     Edge 24, Type (0, 0), BuildingBlock: UVAHIK_clean_linker_0, # of connection points: 2
#     Edge 25, Type (0, 0), BuildingBlock: UVAHIK_clean_linker_0, # of connection points: 2
#     Edge 26, Type (0, 0), BuildingBlock: UVAHIK_clean_linker_0, # of connection points: 2
#     Edge 27, Type (0, 0), BuildingBlock: UVAHIK_clean_linker_0, # of connection points: 2
#     Edge 28, Type (0, 0), BuildingBlock: UVAHIK_clean_linker_0, # of connection points: 2
#     Edge 29, Type (0, 0), BuildingBlock: UVAHIK_clean_linker_0, # of connection points: 2
#     Edge 30, Type (0, 0), BuildingBlock: UVAHIK_clean_linker_0, # of connection points: 2
#     Edge 31, Type (0, 0), BuildingBlock: UVAHIK_clean_linker_0, # of connection points: 2
#     Edge 32, Type (0, 0), BuildingBlock: UVAHIK_clean_linker_0, # of connection points: 2
#     Edge 33, Type (0, 0), BuildingBlock: UVAHIK_clean_linker_0, # of connection points: 2
#     Edge 34, Type (0, 0), BuildingBlock: UVAHIK_clean_linker_0, # of connection points: 2
#     Edge 35, Type (0, 0), BuildingBlock: UVAHIK_clean_linker_0, # of connection points: 2
# Relax obj value: 0.107
# Max RMSD: 0.137
# Mean RMSD: 0.137
data_MOF--net-wjf--node1-QUQFOY_clean_sbu_3--edge1-UVAHIK_clean_linker_0
_symmetry_space_group_name_H-M    P1
_symmetry_Int_Tables_number       1
_symmetry_cell_setting            triclinic
loop_
_symmetry_equiv_pos_as_xyz
'x, y, z'
_cell_length_a     66.630516
_cell_length_b     66.587898
_cell_length_c     36.295675
_cell_angle_alpha  90.123065
_cell_angle_beta   89.99241
_cell_angle_gamma 120.04892
loop_
_atom_site_label
_atom_site_type_symbol
_atom_site_fract_x
_atom_site_fract_y
_atom_site_fract_z
_atom_type_partial_charge
C0 C 0.31446 0.34565 0.12684 0.0
O1 O 0.32441 0.33925 0.10362 0.0
Cd2 Cd 0.34066 0.35709 0.0464 0.0
O3 O 0.31191 0.3631 0.12042 0.0
Cd4 Cd 0.32107 0.39086 0.06834 0.0
C5 C 0.37895 0.41245 0.07682 0.0
O6 O 0.31109 0.36231 0.01954 0.0
O7 O 0.3288 0.39803 0.00255 0.0
O8 O 0.28418 0.38982 0.07634 0.0
C9 C 0.31822 0.37682 -0.00651 0.0
O10 O 0.37556 0.39362 0.06205 0.0
C11 C 0.29257 0.41146 0.07148 0.0
O12 O 0.36201 0.41557 0.08409 0.0
O13 O 0.31446 0.4237 0.06881 0.0
C14 C 0.97171 0.31739 0.46716 0.0
O15 O 0.98966 0.32824 0.44725 0.0
Cd16 Cd 0.99197 0.34603 0.38962 0.0
O17 O 0.95224 0.31483 0.45681 0.0
Cd18 Cd 0.9371 0.3256 0.40195 0.0
C19 C 0.97271 0.3832 0.41643 0.0
O20 O 0.95913 0.31749 0.35677 0.0
O21 O 0.94154 0.33493 0.33655 0.0
O22 O 0.90126 0.2883 0.4061 0.0
C23 C 0.95337 0.32531 0.32954 0.0
O24 O 0.98903 0.3802 0.40467 0.0
C25 C 0.888 0.29639 0.39908 0.0
O26 O 0.9522 0.3661 0.4201 0.0
O27 O 0.89748 0.31827 0.39618 0.0
C28 C 0.64186 0.97552 0.79333 0.0
O29 O 0.65229 0.99354 0.7734 0.0
Cd30 Cd 0.65013 0.99609 0.70828 0.0
O31 O 0.62806 0.95576 0.77903 0.0
Cd32 Cd 0.61413 0.94121 0.71545 0.0
C33 C 0.59233 0.97751 0.70179 0.0
O34 O 0.65236 0.96327 0.6875 0.0
O35 O 0.6242 0.94393 0.6499 0.0
O36 O 0.61042 0.90357 0.72993 0.0
C37 C 0.64582 0.95656 0.65488 0.0
O38 O 0.61304 0.99407 0.69762 0.0
C39 C 0.5906 0.89177 0.71493 0.0
O40 O 0.58825 0.95723 0.71001 0.0
O41 O 0.5812 0.90297 0.70285 0.0
C42 C 0.68197 0.65795 0.12578 0.0
O43 O 0.67307 0.66498 0.10173 0.0
Cd44 Cd 0.6573 0.64695 0.04415 0.0
O45 O 0.68373 0.63997 0.11996 0.0
Cd46 Cd 0.67476 0.61161 0.06882 0.0
C47 C 0.61716 0.5923 0.07501 0.0
O48 O 0.68607 0.63972 0.01923 0.0
O49 O 0.6682 0.6038 0.00297 0.0
O50 O 0.71099 0.61193 0.08034 0.0
C51 C 0.67897 0.62491 -0.00653 0.0
O52 O 0.62154 0.61132 0.05991 0.0
C53 C 0.70231 0.59017 0.07652 0.0
O54 O 0.63342 0.58825 0.08301 0.0
O55 O 0.68048 0.57823 0.07237 0.0
C56 C 0.01552 0.68088 0.46425 0.0
O57 O -5e-05 0.67094 0.43978 0.0
Cd58 Cd 0.00419 0.65584 0.38269 0.0
O59 O 0.03591 0.68412 0.4593 0.0
Cd60 Cd 0.05698 0.67647 0.40947 0.0
C61 C 0.02128 0.61823 0.41548 0.0
O62 O 0.03968 0.68599 0.35824 0.0
O63 O 0.05959 0.66972 0.34412 0.0
O64 O 0.09205 0.71366 0.42075 0.0
C65 C 0.04851 0.67948 0.33339 0.0
O66 O 0.00609 0.62121 0.39903 0.0
C67 C 0.10571 0.70558 0.41881 0.0
O68 O 0.04086 0.63548 0.42437 0.0
O69 O 0.09647 0.68372 0.41573 0.0
C70 C 0.34473 0.01044 0.78928 0.0
O71 O 0.3357 0.99408 0.7658 0.0
Cd72 Cd 0.34139 0.99746 0.70061 0.0
O73 O 0.35853 0.03129 0.77922 0.0
Cd74 Cd 0.37516 0.0516 0.72007 0.0
C75 C 0.39987 0.01853 0.70009 0.0
O76 O 0.33869 0.03096 0.68594 0.0
O77 O 0.36881 0.05497 0.65487 0.0
O78 O 0.3757 0.08657 0.74228 0.0
C79 C 0.34713 0.04135 0.65587 0.0
O80 O 0.37972 0.00195 0.69205 0.0
C81 C 0.39594 0.1004 0.73019 0.0
O82 O 0.40269 0.03773 0.71226 0.0
O83 O 0.40711 0.09131 0.71671 0.0
C84 C 0.65547 0.67988 0.49723 0.0
O85 O 0.66235 0.66902 0.51758 0.0
Cd86 Cd 0.64675 0.65212 0.57585 0.0
O87 O 0.63877 0.68284 0.50728 0.0
Cd88 Cd 0.61272 0.67292 0.56159 0.0
C89 C 0.59033 0.61498 0.54925 0.0
O90 O 0.64257 0.68117 0.60734 0.0
O91 O 0.60747 0.66459 0.62729 0.0
O92 O 0.61449 0.71026 0.55561 0.0
C93 C 0.62887 0.67384 0.63451 0.0
O94 O 0.60944 0.61783 0.5618 0.0
C95 C 0.59303 0.70232 0.56154 0.0
O96 O 0.58735 0.63225 0.54433 0.0
O97 O 0.58049 0.68049 0.56492 0.0
C98 C 0.96776 0.64942 0.83339 0.0
O99 O 0.9862 0.65637 0.85206 0.0
Cd100 Cd 0.98967 0.641 0.90914 0.0
O101 O 0.94847 0.63273 0.84482 0.0
Cd102 Cd 0.93477 0.60724 0.90019 0.0
C103 C 0.96919 0.5843 0.88302 0.0
O104 O 0.9581 0.63757 0.94467 0.0
O105 O 0.94095 0.60253 0.965 0.0
O106 O 0.89887 0.60869 0.89899 0.0
C107 C 0.9529 0.62402 0.97187 0.0
O108 O 0.986 0.60352 0.8943 0.0
C109 C 0.88578 0.58732 0.9062 0.0
O110 O 0.94883 0.58137 0.88026 0.0
O111 O 0.89531 0.57494 0.90792 0.0
C112 C 0.3298 0.97172 0.17816 0.0
O113 O 0.33766 0.99007 0.19747 0.0
Cd114 Cd 0.34303 0.99393 0.26248 0.0
O115 O 0.3239 0.95218 0.1931 0.0
Cd116 Cd 0.32395 0.93889 0.25727 0.0
C117 C 0.3822 0.97538 0.26978 0.0
O118 O 0.30801 0.96156 0.28416 0.0
O119 O 0.317 0.94268 0.32239 0.0
O120 O 0.28997 0.90085 0.24464 0.0
C121 C 0.30789 0.95512 0.31692 0.0
O122 O 0.37818 0.99206 0.2734 0.0
C123 C 0.29821 0.88955 0.26053 0.0
O124 O 0.36587 0.95501 0.2622 0.0
O125 O 0.31896 0.90112 0.27197 0.0
C126 C 0.33659 0.3167 0.4977 0.0
O127 O 0.32977 0.32736 0.51872 0.0
Cd128 Cd 0.34607 0.34417 0.57669 0.0
O129 O 0.35327 0.31359 0.50722 0.0
Cd130 Cd 0.37922 0.32238 0.56163 0.0
C131 C 0.40278 0.38018 0.549 0.0
O132 O 0.34993 0.31504 0.60793 0.0
O133 O 0.38528 0.3316 0.62695 0.0
O134 O 0.37467 0.28393 0.55581 0.0
C135 C 0.36398 0.32252 0.63472 0.0
O136 O 0.38369 0.37746 0.56137 0.0
C137 C 0.3957 0.29031 0.56281 0.0
O138 O 0.40575 0.36285 0.54435 0.0
O139 O 0.40956 0.31198 0.56612 0.0
C140 C 0.02096 0.33505 0.83735 0.0
O141 O 0.00508 0.32826 0.86148 0.0
Cd142 Cd 0.00727 0.34657 0.91874 0.0
O143 O 0.04076 0.35302 0.84288 0.0
Cd144 Cd 0.05989 0.38162 0.89387 0.0
C145 C 0.02157 0.4008 0.88657 0.0
O146 O 0.0432 0.35407 0.94435 0.0
O147 O 0.06064 0.39022 0.95922 0.0
O148 O 0.09644 0.38211 0.88475 0.0
C149 C 0.05075 0.36928 0.96953 0.0
O150 O 0.00697 0.38201 0.90233 0.0
C151 C 0.10903 0.40398 0.88799 0.0
O152 O 0.0418 0.40466 0.87847 0.0
O153 O 0.0986 0.4155 0.89027 0.0
C154 C 0.66631 0.0168 0.18232 0.0
O155 O 0.65962 0.00043 0.20556 0.0
Cd156 Cd 0.65701 0.00293 0.27092 0.0
O157 O 0.67248 0.03744 0.19268 0.0
Cd158 Cd 0.675 0.05708 0.25227 0.0
C159 C 0.61744 0.02123 0.27219 0.0
O160 O 0.69211 0.03761 0.28591 0.0
O161 O 0.68498 0.06076 0.31754 0.0
O162 O 0.70821 0.0937 0.23178 0.0
C163 C 0.69354 0.04758 0.3163 0.0
O164 O 0.62198 0.00529 0.27988 0.0
C165 C 0.69988 0.10611 0.2431 0.0
O166 O 0.63321 0.04083 0.2603 0.0
O167 O 0.67931 0.09543 0.25549 0.0
C168 C 0.31035 0.31435 0.16928 0.0
C169 C 0.3073 0.33346 0.16258 0.0
C170 C 0.30675 0.30469 0.20435 0.0
C171 C 0.2828 0.30261 0.29672 0.0
H172 H 0.33864 0.30387 0.33046 0.0
C173 C 0.31164 0.31754 0.44721 0.0
C174 C 0.32605 0.30945 0.46076 0.0
C175 C 0.30397 0.31335 0.41082 0.0
C176 C 0.32259 0.30271 0.32152 0.0
H177 H 0.29637 0.35625 0.1868 0.0
H178 H 0.2902 0.33936 0.24833 0.0
H179 H 0.33411 0.30932 0.26567 0.0
H180 H 0.34218 0.28899 0.44764 0.0
H181 H 0.32822 0.28107 0.38418 0.0
H182 H 0.27146 0.29643 0.35281 0.0
C183 C 0.29533 0.33189 0.22628 0.0
C184 C 0.32006 0.30595 0.28428 0.0
C185 C 0.29902 0.34166 0.19113 0.0
C186 C 0.33138 0.29575 0.43783 0.0
C187 C 0.32344 0.29129 0.40144 0.0
C188 C 0.28519 0.29905 0.33401 0.0
C189 C 0.29993 0.31383 0.23342 0.0
C190 C 0.30049 0.30665 0.27172 0.0
C191 C 0.31028 0.30071 0.38716 0.0
C192 C 0.3055 0.29987 0.34704 0.0
H193 H 0.3164 0.30737 0.1478 0.0
H194 H 0.31014 0.2906 0.20907 0.0
H195 H 0.26743 0.30281 0.28758 0.0
H196 H 0.30714 0.32812 0.46416 0.0
H197 H 0.29418 0.32119 0.4008 0.0
C198 C 0.99614 0.31557 0.51762 0.0
C199 C 0.974 0.30893 0.50365 0.0
C200 C -0.00118 0.30986 0.55345 0.0
C201 C 0.96893 0.29728 0.64232 0.0
H202 H 0.02237 0.29314 0.67389 0.0
C203 C 0.99294 0.30446 0.79441 0.0
C204 C 0.01544 0.32301 0.80134 0.0
C205 C 0.98641 0.29538 0.75897 0.0
C206 C 0.00727 0.29407 0.66541 0.0
H207 H 0.93716 0.28962 0.51544 0.0
H208 H 0.9418 0.27911 0.57797 0.0
H209 H 0.01219 0.28922 0.60855 0.0
H210 H 0.04926 0.34523 0.7771 0.0
H211 H 0.03777 0.32931 0.71506 0.0
H212 H 0.96432 0.3026 0.69901 0.0
C213 C 0.95715 0.2893 0.56145 0.0
C214 C 0.00147 0.29194 0.62805 0.0
C215 C 0.95447 0.29526 0.5256 0.0
C216 C 0.03176 0.33108 0.77263 0.0
C217 C 0.02524 0.32186 0.73716 0.0
C218 C 0.97454 0.29908 0.67962 0.0
C219 C 0.97942 0.29711 0.57615 0.0
C220 C 0.98276 0.29444 0.61593 0.0
C221 C 0.00227 0.3045 0.72982 0.0
C222 C 0.99421 0.2983 0.69135 0.0
H223 H 0.01158 0.32607 0.50145 0.0
H224 H 0.01626 0.31653 0.56386 0.0
H225 H 0.95462 0.29964 0.63412 0.0
H226 H 0.97998 0.29761 0.81597 0.0
H227 H 0.96867 0.28183 0.75405 0.0
C228 C 0.63616 0.95836 0.85672 0.0
C229 C 0.6458 0.97788 0.83359 0.0
C230 C 0.63988 0.96101 0.89479 0.0
C231 C 0.67796 0.00339 0.96555 0.0
H232 H 0.62583 0.96794 0.03065 0.0
C233 C 0.67525 0.02934 0.11638 0.0
C234 C 0.66617 0.01151 0.14271 0.0
C235 C 0.67425 0.02408 0.0789 0.0
C236 C 0.64063 0.97775 0.01283 0.0
H237 H 0.66691 0.01548 0.83236 0.0
H238 H 0.67291 0.02004 0.89835 0.0
H239 H 0.62123 0.96039 0.96455 0.0
H240 H 0.64927 0.97418 0.15033 0.0
H241 H 0.64747 0.96512 0.08497 0.0
H242 H 0.69711 0.0212 0.01386 0.0
C243 C 0.66292 0.00266 0.88719 0.0
C244 C 0.63802 0.97338 0.97499 0.0
C245 C 0.6593 3e-05 0.84929 0.0
C246 C 0.65639 0.98835 0.13079 0.0
C247 C 0.65525 0.98311 0.09336 0.0
C248 C 0.68051 0.00785 0.00335 0.0
C249 C 0.65325 0.98321 0.91042 0.0
C250 C 0.65657 0.98639 0.95087 0.0
C251 C 0.66402 0.0009 0.06705 0.0
C252 C 0.66178 0.99527 0.02728 0.0
H253 H 0.62576 0.94106 0.84546 0.0
H254 H 0.63237 0.94566 0.91195 0.0
H255 H 0.69272 0.0134 0.94778 0.0
H256 H 0.68293 0.04734 0.12464 0.0
H257 H 0.68096 0.03812 0.05913 0.0
C258 C 0.69698 0.66169 0.19027 0.0
C259 C 0.68867 0.66989 0.16185 0.0
C260 C 0.70021 0.67107 0.2257 0.0
C261 C 0.67409 0.69537 0.28431 0.0
H262 H 0.72216 0.70435 0.35364 0.0
C263 C 0.66072 0.70179 0.43853 0.0
C264 C 0.66611 0.6878 0.46054 0.0
C265 C 0.66898 0.70713 0.40241 0.0
C266 C 0.70859 0.7019 0.33462 0.0
H267 H 0.67894 0.69558 0.14768 0.0
H268 H 0.68438 0.71168 0.20953 0.0
H269 H 0.72719 0.69957 0.28811 0.0
H270 H 0.68538 0.66947 0.4626 0.0
H271 H 0.69894 0.67795 0.39965 0.0
H272 H 0.6547 0.69602 0.33052 0.0
C273 C 0.6882 0.6979 0.20443 0.0
C274 C 0.71154 0.69925 0.29716 0.0
C275 C 0.68509 0.68864 0.16903 0.0
C276 C 0.68083 0.68024 0.44637 0.0
C277 C 0.68884 0.68533 0.41024 0.0
C278 C 0.67101 0.69772 0.32171 0.0
C279 C 0.69509 0.68873 0.23331 0.0
C280 C 0.69403 0.69535 0.27184 0.0
C281 C 0.68255 0.69835 0.38749 0.0
C282 C 0.68789 0.70029 0.34748 0.0
H283 H 0.70005 0.64738 0.1856 0.0
H284 H 0.70538 0.66356 0.24758 0.0
H285 H 0.66017 0.6921 0.26545 0.0
H286 H 0.64967 0.70815 0.44885 0.0
H287 H 0.66417 0.71758 0.38586 0.0
C288 C 0.94928 0.65348 0.7757 0.0
C289 C 0.96922 0.66009 0.79709 0.0
C290 C 0.95124 0.66195 0.73987 0.0
C291 C 0.99385 0.70437 0.67226 0.0
H292 H 0.95802 0.65514 0.6023 0.0
C293 C 0.02541 0.69649 0.52868 0.0
C294 C 0.00917 0.68694 0.49991 0.0
C295 C 0.01842 0.69901 0.56385 0.0
C296 C 0.96783 0.66928 0.62138 0.0
H297 H 0.00672 0.6818 0.79837 0.0
H298 H 0.01016 0.69579 0.73601 0.0
H299 H 0.94872 0.64868 0.66732 0.0
H300 H 0.97322 0.67429 0.48482 0.0
H301 H 0.96111 0.67852 0.54624 0.0
H302 H 0.01399 0.72429 0.62606 0.0
C303 C 0.99295 0.6845 0.74685 0.0
C304 C 0.96244 0.6656 0.65876 0.0
C305 C 0.99098 0.67623 0.78263 0.0
C306 C 0.98615 0.68144 0.50645 0.0
C307 C 0.97916 0.68384 0.54161 0.0
C308 C -0.00059 0.70793 0.63484 0.0
C309 C 0.97317 0.67703 0.72466 0.0
C310 C 0.9759 0.6828 0.6848 0.0
C311 C 0.99506 0.69196 0.57087 0.0
C312 C 0.98688 0.69014 0.60924 0.0
H313 H 0.93223 0.6413 0.78622 0.0
H314 H 0.93561 0.65615 0.72372 0.0
H315 H 0.00423 0.71817 0.69152 0.0
H316 H 0.0433 0.70105 0.52451 0.0
H317 H 0.03102 0.70515 0.58601 0.0
C318 C 0.31813 0.95359 0.11524 0.0
C319 C 0.32773 0.97342 0.13787 0.0
C320 C 0.3166 0.95564 0.07713 0.0
C321 C 0.31874 0.99642 0.00555 0.0
H322 H 0.33739 0.9622 0.94105 0.0
C323 C 0.34744 0.02274 0.85527 0.0
C324 C 0.33951 0.00495 0.82879 0.0
C325 C 0.34308 0.01739 0.89265 0.0
C326 C 0.33183 0.97164 0.95869 0.0
H327 H 0.34319 0.01093 0.13813 0.0
H328 H 0.34091 0.01446 0.0721 0.0
H329 H 0.33472 0.95509 0.00724 0.0
H330 H 0.32048 0.96758 0.82081 0.0
H331 H 0.31304 0.95835 0.88606 0.0
H332 H 0.31657 0.01346 0.95703 0.0
C333 C 0.33412 0.99729 0.08369 0.0
C334 C 0.33024 0.96752 -0.00342 0.0
C335 C 0.3356 0.99525 0.12162 0.0
C336 C 0.32688 0.98172 0.84047 0.0
C337 C 0.32269 0.97639 0.87784 0.0
C338 C 0.32048 0.00063 0.96773 0.0
C339 C 0.32464 0.97755 0.06097 0.0
C340 C 0.32406 0.98017 0.02048 0.0
C341 C 0.33086 0.99416 0.90429 0.0
C342 C 0.32738 0.98853 0.94401 0.0
H343 H 0.31183 0.93652 0.12693 0.0
H344 H 0.30903 0.94009 0.06034 0.0
H345 H 0.31348 0.00612 0.02318 0.0
H346 H 0.35717 0.0408 0.84719 0.0
H347 H 0.34978 0.03143 0.91253 0.0
C348 C 0.14561 0.40225 0.89126 0.0
C349 C 0.13402 0.41479 0.8964 0.0
C350 C 0.16714 0.4097 0.90785 0.0
C351 C 0.19498 0.43563 -0.00723 0.0
H352 H 0.24855 0.43533 0.95172 0.0
C353 C 0.2863 0.44122 0.04037 0.0
C354 C 0.27744 0.42098 0.06182 0.0
C355 C 0.27128 0.44693 0.02244 0.0
C356 C 0.23387 0.43585 0.96349 0.0
H357 H 0.13669 0.4459 0.92053 0.0
H358 H 0.17407 0.45853 0.95017 0.0
H359 H 0.21868 0.43372 0.91045 0.0
H360 H 0.24612 0.39215 0.08424 0.0
H361 H 0.21991 0.40262 0.05388 0.0
H362 H 0.20937 0.4361 0.04587 0.0
C363 C 0.16652 0.44306 0.93316 0.0
C364 C 0.2168 0.43482 0.93992 0.0
C365 C 0.1452 0.43588 0.91598 0.0
C366 C 0.25343 0.40783 0.06788 0.0
C367 C 0.23844 0.41382 0.05053 0.0
C368 C 0.21182 0.43617 0.01635 0.0
C369 C 0.17724 0.42959 0.9303 0.0
C370 C 0.19702 0.43429 0.9544 0.0
C371 C 0.24721 0.43282 0.02638 0.0
C372 C 0.23119 0.43587 0.00191 0.0
H373 H 0.13741 0.38596 0.87633 0.0
H374 H 0.17506 0.39897 0.90536 0.0
H375 H 0.17973 0.43496 0.0046 0.0
H376 H 0.30473 0.45167 0.03506 0.0
H377 H 0.27841 0.46173 0.00409 0.0
C378 C 0.85244 0.25717 0.39761 0.0
C379 C 0.86345 0.2809 0.38915 0.0
C380 C 0.8309 0.24172 0.38216 0.0
C381 C 0.78057 0.21463 0.35468 0.0
H382 H 0.78272 0.21591 0.24777 0.0
C383 C 0.7068 0.14352 0.2702 0.0
C384 C 0.71471 0.13144 0.24828 0.0
C385 C 0.72236 0.16562 0.28373 0.0
C386 C 0.78176 0.21555 0.27757 0.0
H387 H 0.86005 0.30727 0.35938 0.0
H388 H 0.82258 0.28009 0.33173 0.0
H389 H 0.8142 0.24723 0.28313 0.0
H390 H 0.74462 0.13401 0.22019 0.0
H391 H 0.77173 0.17281 0.24333 0.0
H392 H 0.74856 0.18262 0.34926 0.0
C393 C 0.83059 0.27356 0.35052 0.0
C394 C 0.79966 0.23348 0.29778 0.0
C395 C 0.85193 0.28908 0.36655 0.0
C396 C 0.73803 0.14283 0.23713 0.0
C397 C 0.75354 0.16507 0.25032 0.0
C398 C 0.7625 0.19693 0.33451 0.0
C399 C 0.82019 0.24969 0.3575 0.0
C400 C 0.79951 0.23281 0.3365 0.0
C401 C 0.74603 0.17617 0.27513 0.0
C402 C 0.76323 0.19691 0.29578 0.0
H403 H 0.86092 0.25039 0.4149 0.0
H404 H 0.82328 0.22336 0.38781 0.0
H405 H 0.78009 0.21376 0.38449 0.0
H406 H 0.68891 0.13529 0.27916 0.0
H407 H 0.71611 0.17395 0.30248 0.0
C408 C 0.59156 0.85475 0.71935 0.0
C409 C 0.58071 0.86685 0.70648 0.0
C410 C 0.58543 0.83294 0.70493 0.0
C411 C 0.5669 0.80296 0.61798 0.0
H412 H 0.56371 0.75101 0.67117 0.0
C413 C 0.56334 0.70995 0.58995 0.0
C414 C 0.58388 0.718 0.56951 0.0
C415 C 0.55714 0.7256 0.60425 0.0
C416 C 0.5642 0.76522 0.65594 0.0
H417 H 0.5537 0.86479 0.67053 0.0
H418 H 0.54328 0.82684 0.64509 0.0
H419 H 0.56267 0.78226 0.70521 0.0
H420 H 0.61306 0.74842 0.54564 0.0
H421 H 0.6019 0.77567 0.56984 0.0
H422 H 0.5697 0.78656 0.5689 0.0
C423 C 0.55654 0.83429 0.66621 0.0
C424 C 0.56376 0.78313 0.67542 0.0
C425 C 0.56245 0.85596 0.68095 0.0
C426 C 0.59716 0.74174 0.56133 0.0
C427 C 0.59073 0.75732 0.57509 0.0
C428 C 0.5677 0.78525 0.59857 0.0
C429 C 0.56853 0.82295 0.67714 0.0
C430 C 0.56555 0.80238 0.65666 0.0
C431 C 0.57112 0.74948 0.59774 0.0
C432 C 0.56683 0.76645 0.61743 0.0
H433 H 0.60565 0.86267 0.73905 0.0
H434 H 0.59502 0.82461 0.71374 0.0
H435 H 0.56856 0.81773 0.60284 0.0
H436 H 0.55279 0.69175 0.59681 0.0
H437 H 0.54185 0.71913 0.62145 0.0
C438 C 0.7086 0.55911 0.05029 0.0
C439 C 0.71728 0.58002 0.07006 0.0
C440 C 0.72376 0.55252 0.03527 0.0
C441 C 0.78339 0.56295 0.03504 0.0
H442 H 0.7778 0.56082 0.92843 0.0
C443 C 0.85021 0.5908 0.91031 0.0
C444 C 0.86147 0.57819 0.91762 0.0
C445 C 0.82904 0.58466 0.92714 0.0
C446 C 0.77935 0.56103 0.95816 0.0
H447 H 0.74831 0.60919 0.09276 0.0
H448 H 0.77473 0.5973 0.0674 0.0
H449 H 0.74739 0.56074 0.96637 0.0
H450 H 0.8589 0.54856 0.94674 0.0
H451 H 0.82214 0.53823 0.97687 0.0
H452 H 0.81573 0.56396 0.02673 0.0
C453 C 0.75625 0.58619 0.06313 0.0
C454 C 0.76194 0.56084 0.97986 0.0
C455 C 0.74114 0.59302 0.07759 0.0
C456 C 0.85056 0.55855 0.94045 0.0
C457 C 0.82963 0.5527 0.95787 0.0
C458 C 0.80059 0.56267 0.01335 0.0
C459 C 0.74778 0.56647 0.04047 0.0
C460 C 0.76413 0.56247 0.01843 0.0
C461 C 0.81901 0.56606 0.95205 0.0
C462 C 0.79902 0.56239 0.97472 0.0
H463 H 0.69029 0.54873 0.04396 0.0
H464 H 0.71684 0.53715 0.01808 0.0
H465 H 0.78546 0.56426 0.06471 0.0
H466 H 0.85823 0.60602 0.89286 0.0
H467 H 0.82123 0.59531 0.92239 0.0
C468 C 0.141 0.74504 0.41958 0.0
C469 C 0.13089 0.72106 0.41362 0.0
C470 C 0.16332 0.76029 0.40665 0.0
C471 C 0.21469 0.78795 0.38453 0.0
H472 H 0.21742 0.78024 0.27892 0.0
C473 C 0.29074 0.85516 0.29817 0.0
C474 C 0.28326 0.86496 0.27094 0.0
C475 C 0.27504 0.83414 0.3147 0.0
C476 C 0.21702 0.78242 0.30845 0.0
H477 H 0.13683 0.6941 0.39178 0.0
H478 H 0.17567 0.72086 0.3686 0.0
H479 H 0.18522 0.75023 0.31464 0.0
H480 H 0.254 0.85941 0.23736 0.0
H481 H 0.22668 0.82238 0.26571 0.0
H482 H 0.24607 0.82048 0.37817 0.0
C483 C 0.16631 0.72778 0.38336 0.0
C484 C 0.19873 0.76523 0.32891 0.0
C485 C 0.14415 0.7125 0.39685 0.0
C486 C 0.26026 0.85232 0.25831 0.0
C487 C 0.24464 0.83111 0.27449 0.0
C488 C 0.23318 0.80494 0.36417 0.0
C489 C 0.17576 0.75183 0.38709 0.0
C490 C 0.19708 0.76815 0.36696 0.0
C491 C 0.25168 0.82234 0.30385 0.0
C492 C 0.23417 0.80262 0.3258 0.0
H493 H 0.1312 0.75213 0.43243 0.0
H494 H 0.17019 0.77879 0.40974 0.0
H495 H 0.21377 0.79058 0.41381 0.0
H496 H 0.30836 0.86444 0.3085 0.0
H497 H 0.28091 0.8276 0.33706 0.0
C498 C 0.42239 0.13845 0.70054 0.0
C499 C 0.40406 0.12533 0.72499 0.0
C500 C 0.42591 0.15958 0.68689 0.0
C501 C 0.39029 0.18622 0.66823 0.0
H502 H 0.44779 0.23711 0.63069 0.0
C503 C 0.38754 0.24949 0.56609 0.0
C504 C 0.40258 0.27316 0.57312 0.0
C505 C 0.39099 0.23274 0.58332 0.0
C506 C 0.43161 0.22309 0.64117 0.0
H507 H 0.37694 0.12539 0.75788 0.0
H508 H 0.38368 0.16271 0.73528 0.0
H509 H 0.44873 0.20784 0.67004 0.0
H510 H 0.43405 0.29792 0.60145 0.0
H511 H 0.43982 0.26868 0.63213 0.0
H512 H 0.37314 0.20153 0.64031 0.0
C513 C 0.39473 0.15624 0.7254 0.0
C514 C 0.43213 0.20624 0.66357 0.0
C515 C 0.39101 0.13496 0.73868 0.0
C516 C 0.42218 0.27979 0.59542 0.0
C517 C 0.42548 0.26301 0.61305 0.0
C518 C 0.38979 0.20304 0.64612 0.0
C519 C 0.41135 0.16815 0.69779 0.0
C520 C 0.41143 0.18748 0.67713 0.0
C521 C 0.40936 0.23928 0.60839 0.0
C522 C 0.41037 0.22152 0.63186 0.0
H523 H 0.43283 0.13156 0.68952 0.0
H524 H 0.43888 0.16821 0.66571 0.0
H525 H 0.37394 0.17185 0.67748 0.0
H526 H 0.37241 0.24386 0.54873 0.0
H527 H 0.37865 0.21461 0.57819 0.0
C528 C 0.37245 0.33261 0.70112 0.0
C529 C 0.3564 0.32428 0.67205 0.0
C530 C 0.36595 0.33639 0.73574 0.0
C531 C 0.31596 0.3234 0.79484 0.0
H532 H 0.36001 0.38168 0.84099 0.0
C533 C 0.31064 0.34633 0.94666 0.0
C534 C 0.3178 0.36956 0.95506 0.0
C535 C 0.31253 0.33993 0.91077 0.0
C536 C 0.34738 0.36549 0.82827 0.0
H537 H 0.3207 0.31238 0.65665 0.0
H538 H 0.3094 0.31931 0.71724 0.0
H539 H 0.36906 0.37142 0.78154 0.0
H540 H 0.33107 0.40402 0.93231 0.0
H541 H 0.33404 0.39277 0.86952 0.0
H542 H 0.29415 0.31769 0.84163 0.0
C543 C 0.32695 0.32274 0.71327 0.0
C544 C 0.35273 0.35944 0.79449 0.0
C545 C 0.33345 0.31888 0.67859 0.0
C546 C 0.32572 0.38604 0.92668 0.0
C547 C 0.32749 0.37962 0.89079 0.0
C548 C 0.31058 0.32947 0.82876 0.0
C549 C 0.34329 0.33201 0.74191 0.0
C550 C 0.33719 0.33827 0.77759 0.0
C551 C 0.32149 0.35664 0.88269 0.0
C552 C 0.32631 0.35054 0.84584 0.0
H553 H 0.3902 0.33666 0.69696 0.0
H554 H 0.37876 0.34308 0.75757 0.0
H555 H 0.3037 0.30694 0.78242 0.0
H556 H 0.30439 0.33324 0.96802 0.0
H557 H 0.30793 0.32212 0.9054 0.0
C558 C 0.97989 0.32014 0.28692 0.0
C559 C 0.96301 0.32659 0.29259 0.0
C560 C 0.9904 0.32324 0.25252 0.0
C561 C 0.00301 0.35892 0.16969 0.0
H562 H 0.01672 0.31417 0.12505 0.0
C563 C 0.05437 0.38022 0.03583 0.0
C564 C 0.04477 0.36304 0.00844 0.0
C565 C 0.04685 0.37494 0.07218 0.0
C566 C 0.01296 0.32679 0.13721 0.0
H567 H 0.94303 0.34019 0.26646 0.0
H568 H 0.96111 0.34527 0.20633 0.0
H569 H -0.00311 0.30555 0.18454 0.0
H570 H 0.02074 0.32661 -0.00226 0.0
H571 H 0.00719 0.31748 0.06117 0.0
H572 H 0.01828 0.37984 0.12214 0.0
C573 C 0.96662 0.33833 0.22863 0.0
C574 C 0.00178 0.32194 0.17132 0.0
C575 C 0.95618 0.33532 0.26298 0.0
C576 C 0.02838 0.34021 0.01833 0.0
C577 C 0.02073 0.33496 0.05468 0.0
C578 C 0.01411 0.36374 0.13571 0.0
C579 C 0.98416 0.33277 0.22326 0.0
C580 C 0.99649 0.33788 0.18764 0.0
C581 C 0.02946 0.35242 0.08176 0.0
C582 C 0.01908 0.34769 0.11899 0.0
H583 H 0.98546 0.31333 0.3093 0.0
H584 H 0.00396 0.31891 0.2492 0.0
H585 H -0.0005 0.3717 0.1819 0.0
H586 H 0.06728 0.39791 0.02904 0.0
H587 H 0.05424 0.38864 0.09264 0.0
C588 C 0.68289 0.98706 0.62715 0.0
C589 C 0.66193 0.96597 0.62361 0.0
C590 C 0.69648 0.99771 0.59614 0.0
C591 C 0.70694 0.99045 0.49905 0.0
H592 H 0.70437 0.04661 0.4829 0.0
C593 C 0.69681 0.01888 0.35574 0.0
C594 C 0.70165 0.04167 0.34992 0.0
C595 C 0.70108 0.01236 0.39004 0.0
C596 C 0.70612 0.03146 0.48692 0.0
H597 H 0.63968 0.93848 0.5859 0.0
H598 H 0.66367 0.95693 0.53177 0.0
H599 H 0.69612 0.02922 0.54335 0.0
H600 H 0.71691 0.07613 0.37339 0.0
H601 H 0.72594 0.06525 0.43253 0.0
H602 H 0.71667 0.99244 0.4425 0.0
C603 C 0.66949 0.96526 0.5584 0.0
C604 C 0.70125 0.02144 0.52177 0.0
C605 C 0.65567 0.95484 0.58922 0.0
C606 C 0.71266 0.05832 0.37765 0.0
C607 C 0.71765 0.052 0.41157 0.0
C608 C 0.7124 0.0008 0.46427 0.0
C609 C 0.68955 0.98714 0.56141 0.0
C610 C 0.70059 0.00033 0.52766 0.0
C611 C 0.71088 0.02868 0.41888 0.0
C612 C 0.71088 0.0208 0.45727 0.0
H613 H 0.68811 0.99598 0.65343 0.0
H614 H 0.71184 0.01465 0.59897 0.0
H615 H 0.70666 0.9742 0.50318 0.0
H616 H 0.68828 0.00575 0.33462 0.0
H617 H 0.69529 0.99419 0.39442 0.0
C618 C 0.66013 0.67843 0.67763 0.0
C619 C 0.63696 0.67249 0.67164 0.0
C620 C 0.66719 0.67503 0.71213 0.0
C621 C 0.64296 0.63888 0.79412 0.0
H622 H 0.7016 0.68218 0.83991 0.0
C623 C 0.67177 0.61491 0.92679 0.0
C624 C 0.67946 0.63171 0.9548 0.0
C625 C 0.66976 0.62079 0.8907 0.0
C626 C 0.68517 0.66996 0.82742 0.0
H627 H 0.60333 0.65956 0.69737 0.0
H628 H 0.61572 0.65392 0.75766 0.0
H629 H 0.69107 0.69185 0.7807 0.0
H630 H 0.69232 0.66808 0.96685 0.0
H631 H 0.68835 0.67825 0.90387 0.0
H632 H 0.63662 0.61728 0.84101 0.0
C633 C 0.62829 0.6607 0.73553 0.0
C634 C 0.67923 0.67542 0.79348 0.0
C635 C 0.62123 0.66404 0.70109 0.0
C636 C 0.68625 0.65475 0.94578 0.0
C637 C 0.68412 0.66061 0.90968 0.0
C638 C 0.64887 0.63344 0.8279 0.0
C639 C 0.65119 0.66567 0.74116 0.0
C640 C 0.65794 0.66 0.77674 0.0
C641 C 0.67528 0.64354 0.882 0.0
C642 C 0.66996 0.64895 0.84502 0.0
H643 H 0.67264 0.68503 0.6554 0.0
H644 H 0.68492 0.67891 0.71567 0.0
H645 H 0.6266 0.62648 0.78157 0.0
H646 H 0.66671 0.59707 0.93289 0.0
H647 H 0.66334 0.60737 0.86974 0.0
C648 C 0.0535 0.67292 0.26725 0.0
C649 C 0.04286 0.67957 0.29422 0.0
C650 C 0.04642 0.67056 0.2306 0.0
C651 C 0.01183 0.68307 0.16422 0.0
H652 H 0.00148 0.6258 0.11906 0.0
C653 C 0.9794 0.65606 0.01422 0.0
C654 C 0.96303 0.63253 0.00858 0.0
C655 C 0.9901 0.66373 0.04848 0.0
C656 C 0.00415 0.64179 0.13138 0.0
H657 H 0.01737 0.69018 0.30387 0.0
H658 H 0.00463 0.68556 0.23993 0.0
H659 H 0.01965 0.63685 0.17933 0.0
H660 H 0.94429 0.59875 0.03459 0.0
H661 H 0.96272 0.61218 0.09446 0.0
H662 H 0.99549 0.68747 0.11653 0.0
C663 C 0.01863 0.68245 0.24698 0.0
C664 C 0.01489 0.64831 0.16567 0.0
C665 C 0.02583 0.68495 0.28363 0.0
C666 C 0.95702 0.61695 0.03804 0.0
C667 C 0.96766 0.62461 0.07224 0.0
C668 C 0.00103 0.6765 0.12981 0.0
C669 C 0.02846 0.67466 0.22028 0.0
C670 C 0.01867 0.6689 0.18262 0.0
C671 C 0.98458 0.64799 0.07764 0.0
C672 C -0.00317 0.65563 0.11333 0.0
H673 H 0.06691 0.66897 0.27458 0.0
H674 H 0.05463 0.66498 0.21046 0.0
H675 H 0.01468 0.69912 0.17654 0.0
H676 H 0.98434 0.66846 -0.00804 0.0
H677 H 0.00317 0.68183 0.05183 0.0
C678 C 0.30025 0.98509 0.3442 0.0
C679 C 0.30049 0.96421 0.34782 0.0
C680 C 0.29645 0.99535 0.37501 0.0
C681 C 0.27723 0.98695 0.47155 0.0
H682 H 0.33522 0.0436 0.49009 0.0
C683 C 0.31528 0.01315 0.61547 0.0
C684 C 0.33302 0.03591 0.62238 0.0
C685 C 0.30442 0.00722 0.58112 0.0
C686 C 0.31849 0.02831 0.48542 0.0
H687 H 0.29503 0.93664 0.38532 0.0
H688 H 0.28804 0.95441 0.43904 0.0
H689 H 0.32684 0.02702 0.42897 0.0
H690 H 0.35172 0.07089 0.60098 0.0
H691 H 0.33173 0.06099 0.54181 0.0
H692 H 0.26898 0.98794 0.52819 0.0
C693 C 0.29089 0.96288 0.41254 0.0
C694 C 0.31377 0.01875 0.45016 0.0
C695 C 0.29514 0.95286 0.38196 0.0
C696 C 0.33835 0.05309 0.59582 0.0
C697 C 0.32697 0.04734 0.56189 0.0
C698 C 0.28169 0.99681 0.50676 0.0
C699 C 0.29232 0.98457 0.40956 0.0
C700 C 0.29367 0.99744 0.44343 0.0
C701 C 0.31069 0.02411 0.55336 0.0
C702 C 0.30299 0.01694 0.51464 0.0
H703 H 0.30428 0.99414 0.3181 0.0
H704 H 0.29775 0.01215 0.37222 0.0
H705 H 0.26151 0.97055 0.46677 0.0
H706 H 0.31091 -0.00037 0.6357 0.0
H707 H 0.29225 0.9891 0.57576 0.0
C708 C 0.42138 0.42651 0.08316 0.0
C709 C 0.403 0.43117 0.08418 0.0
C710 C 0.44426 0.4444 0.08767 0.0
C711 C 0.48085 0.50634 0.0725 0.0
H712 H 0.52556 0.50049 0.13315 0.0
C713 C 0.57536 0.58057 0.08211 0.0
C714 C 0.59275 0.57451 0.08225 0.0
C715 C 0.55212 0.56366 0.0868 0.0
C716 C 0.51336 0.50232 0.11577 0.0
H717 H 0.39421 0.4582 0.09158 0.0
H718 H 0.4343 0.48952 0.09894 0.0
H719 H 0.48497 0.46969 0.13344 0.0
H720 H 0.59943 0.54598 0.08805 0.0
H721 H 0.55882 0.51632 0.09501 0.0
H722 H 0.50912 0.53839 0.05359 0.0
C723 C 0.4309 0.47198 0.09469 0.0
C724 C 0.49011 0.48472 0.11611 0.0
C725 C 0.40797 0.45404 0.09064 0.0
C726 C 0.58644 0.55122 0.08796 0.0
C727 C 0.56313 0.53423 0.09217 0.0
C728 C 0.5041 0.52379 0.07182 0.0
C729 C 0.44927 0.46736 0.09286 0.0
C730 C 0.47366 0.48652 0.09433 0.0
C731 C 0.54564 0.5402 0.09122 0.0
C732 C 0.52071 0.52197 0.0933 0.0
H733 H 0.41813 0.40907 0.07838 0.0
H734 H 0.4581 0.44038 0.08585 0.0
H735 H 0.4686 0.50801 0.055 0.0
H736 H 0.57968 0.59842 0.07821 0.0
H737 H 0.53922 0.56902 0.08677 0.0
C738 C 0.99375 0.57539 0.4189 0.0
C739 C 0.01634 0.59434 0.4231 0.0
C740 C 0.98928 0.55273 0.42392 0.0
C741 C 0.01763 0.51827 0.41668 0.0
H742 H 0.96384 0.47142 0.46924 0.0
C743 C 0.00065 0.42511 0.42885 0.0
C744 C 0.97765 0.40704 0.42443 0.0
C745 C 0.00562 0.44795 0.43362 0.0
C746 C 0.97882 0.48423 0.45416 0.0
H747 H 0.05185 0.60433 0.43674 0.0
H748 H 0.04403 0.56466 0.4451 0.0
H749 H 0.97201 0.51151 0.46854 0.0
H750 H 0.94177 0.3987 0.42245 0.0
H751 H 0.95046 0.43867 0.42963 0.0
H752 H 0.02409 0.49111 0.40103 0.0
C753 C 0.02983 0.56743 0.43788 0.0
C754 C 0.98352 0.5072 0.45391 0.0
C755 C 0.03427 0.59013 0.43325 0.0
C756 C 0.95966 0.41223 0.42592 0.0
C757 C 0.96466 0.43517 0.43023 0.0
C758 C 0.01282 0.49532 0.4166 0.0
C759 C 0.00734 0.54851 0.43288 0.0
C760 C 0.00292 0.5244 0.43501 0.0
C761 C 0.98775 0.45336 0.43357 0.0
C762 C 0.99329 0.47796 0.43519 0.0
H763 H 0.97952 0.57803 0.41124 0.0
H764 H 0.97182 0.53846 0.41959 0.0
H765 H 0.03249 0.5311 0.40138 0.0
H766 H 0.01489 0.42164 0.4283 0.0
H767 H 0.02355 0.46141 0.43701 0.0
C768 C 0.57713 0.00501 0.69623 0.0
C769 C 0.57286 0.9821 0.69807 0.0
C770 C 0.55876 0.00944 0.69421 0.0
C771 C 0.49746 0.9834 0.66851 0.0
H772 H 0.49778 0.02918 0.7351 0.0
C773 C 0.41683 0.99282 0.69032 0.0
C774 C 0.42009 0.01511 0.69644 0.0
C775 C 0.43581 0.98933 0.68856 0.0
C776 C 0.49756 0.01662 0.71586 0.0
H777 H 0.5459 0.94586 0.69847 0.0
H778 H 0.51383 0.95364 0.69461 0.0
H779 H 0.5303 0.02213 0.73521 0.0
H780 H 0.44591 0.05133 0.70451 0.0
H781 H 0.47905 0.04536 0.70046 0.0
H782 H 0.46488 0.97801 0.64881 0.0
C783 C 0.53143 0.96814 0.69475 0.0
C784 C 0.51618 0.01254 0.71604 0.0
C785 C 0.5498 0.9637 0.69716 0.0
C786 C 0.44279 0.03391 0.70003 0.0
C787 C 0.46179 0.03045 0.69793 0.0
C788 C 0.47893 0.98763 0.66806 0.0
C789 C 0.53574 0.99105 0.69359 0.0
C790 C 0.51625 0.99579 0.69255 0.0
C791 C 0.45853 0.00808 0.69253 0.0
C792 C 0.47866 0.00418 0.69192 0.0
H793 H 0.59468 0.0196 0.69689 0.0
H794 H 0.56258 0.02726 0.693 0.0
H795 H 0.49721 0.97059 0.64978 0.0
H796 H 0.39957 0.97791 0.68766 0.0
H797 H 0.43258 0.97181 0.68496 0.0
C798 C 0.57502 0.57225 0.54298 0.0
C799 C 0.57114 0.59115 0.54169 0.0
C800 C 0.55668 0.5496 0.5383 0.0
C801 C 0.49408 0.51488 0.55107 0.0
H802 H 0.49928 0.46837 0.49404 0.0
C803 C 0.41714 0.42226 0.53829 0.0
C804 C 0.42184 0.40397 0.5412 0.0
C805 C 0.43511 0.44505 0.53376 0.0
C806 C 0.49763 0.4811 0.51035 0.0
H807 H 0.54501 0.60107 0.53338 0.0
H808 H 0.51297 0.56144 0.52541 0.0
H809 H 0.53124 0.50849 0.4942 0.0
H810 H 0.44908 0.39519 0.54057 0.0
H811 H 0.48062 0.43513 0.53363 0.0
H812 H 0.46092 0.48762 0.56823 0.0
C813 C 0.53023 0.56422 0.53024 0.0
C814 C 0.5159 0.50407 0.51033 0.0
C815 C 0.5486 0.58691 0.53464 0.0
C816 C 0.4449 0.4089 0.53834 0.0
C817 C 0.46296 0.4318 0.53419 0.0
C818 C 0.47593 0.49194 0.55132 0.0
C819 C 0.53404 0.54532 0.53248 0.0
C820 C 0.51432 0.52117 0.5308 0.0
C821 C 0.45829 0.45019 0.53246 0.0
C822 C 0.47748 0.47472 0.53105 0.0
H823 H 0.59218 0.57489 0.54822 0.0
H824 H 0.56012 0.53537 0.54048 0.0
H825 H 0.49254 0.52758 0.56765 0.0
H826 H 0.39952 0.41902 0.53988 0.0
H827 H 0.43081 0.45868 0.53163 0.0
C828 C 0.99604 0.56877 0.87235 0.0
C829 C 0.97329 0.56485 0.87485 0.0
C830 C 3e-05 0.55025 0.86759 0.0
C831 C 0.97376 0.48873 0.88801 0.0
H832 H 0.02098 0.49104 0.8228 0.0
C833 C 0.9917 0.4129 0.8805 0.0
C834 C 0.01503 0.41858 0.87872 0.0
C835 C 0.98557 0.4299 0.87524 0.0
C836 C 0.00788 0.4902 0.8414 0.0
H837 H 0.93688 0.53844 0.87316 0.0
H838 H 0.94393 0.50605 0.86517 0.0
H839 H 0.01211 0.52246 0.82183 0.0
H840 H 0.05019 0.44651 0.8693 0.0
H841 H 0.0396 0.47633 0.8612 0.0
H842 H 0.97002 0.45705 0.9087 0.0
C843 C 0.95863 0.52349 0.867 0.0
C844 C 0.00275 0.50815 0.8407 0.0
C845 C 0.95461 0.54205 0.87139 0.0
C846 C 0.03205 0.44155 0.87073 0.0
C847 C 0.02594 0.45863 0.86586 0.0
C848 C 0.97902 0.47091 0.88897 0.0
C849 C 0.98138 0.5274 0.86554 0.0
C850 C 0.98576 0.50767 0.86421 0.0
C851 C 0.00264 0.45307 0.86849 0.0
C852 C 0.99627 0.47149 0.86589 0.0
H853 H 0.01082 0.58613 0.87476 0.0
H854 H 0.01776 0.55376 0.86686 0.0
H855 H 0.96084 0.48807 0.90686 0.0
H856 H 0.97813 0.3953 0.8862 0.0
H857 H 0.96741 0.42486 0.87668 0.0
C858 C 0.57503 0.99396 0.28226 0.0
C859 C 0.59336 0.01662 0.27587 0.0
C860 C 0.55217 0.98937 0.28391 0.0
C861 C 0.51657 0.01642 0.29994 0.0
H862 H 0.47025 0.96464 0.24275 0.0
C863 C 0.42501 0.00272 0.27473 0.0
C864 C 0.40623 0.97986 0.27353 0.0
C865 C 0.44775 0.00698 0.27685 0.0
C866 C 0.48284 0.97894 0.25937 0.0
H867 H 0.60204 0.05231 0.26706 0.0
H868 H 0.56208 0.04425 0.27025 0.0
H869 H 0.51008 0.97246 0.24374 0.0
H870 H 0.39662 0.94355 0.27455 0.0
H871 H 0.43622 0.95098 0.2792 0.0
H872 H 0.48937 0.02282 0.31592 0.0
C873 C 0.56547 0.03008 0.27397 0.0
C874 C 0.50569 0.98344 0.25983 0.0
C875 C 0.58834 0.03466 0.27196 0.0
C876 C 0.4107 0.96137 0.27514 0.0
C877 C 0.43344 0.96564 0.27759 0.0
C878 C 0.49366 0.0118 0.29976 0.0
C879 C 0.54715 0.00735 0.27957 0.0
C880 C 0.5228 0.00229 0.27996 0.0
C881 C 0.45227 0.9885 0.27815 0.0
C882 C 0.47653 0.99307 0.2793 0.0
H883 H 0.57827 0.97966 0.2854 0.0
H884 H 0.53839 0.97172 0.28864 0.0
H885 H 0.52937 0.03092 0.31604 0.0
H886 H 0.4222 0.01737 0.27333 0.0
H887 H 0.46181 0.02481 0.27665 0.0
loop_
_geom_bond_atom_site_label_1
_geom_bond_atom_site_label_2
_geom_bond_distance
_geom_bond_site_symmetry_2
_ccdc_geom_bond_type
C0 O1 1.306 . S
C0 O3 1.160 . S
O1 C0 1.306 . S
O1 Cd2 2.228 . S
Cd2 O1 2.228 . S
Cd2 O6 2.273 . S
Cd2 O10 2.277 . S
O3 C0 1.160 . S
O3 Cd4 2.203 . S
Cd4 O3 2.203 . S
Cd4 O6 2.411 . S
Cd4 O7 2.333 1_554 S
Cd4 O8 2.352 . S
Cd4 O12 2.277 . S
Cd4 O13 2.356 . S
C5 O10 1.209 . S
C5 O12 1.226 . S
O6 Cd2 2.273 . S
O6 Cd4 2.411 . S
O6 C9 1.310 1_554 S
O7 Cd4 2.333 1_556 S
O7 C9 1.214 . S
O8 Cd4 2.352 . S
O8 C11 1.258 . S
C9 O6 1.310 1_556 S
C9 O7 1.214 . S
O10 Cd2 2.277 . S
O10 C5 1.209 . S
C11 O8 1.258 . S
C11 O13 1.282 . S
O12 Cd4 2.277 . S
O12 C5 1.226 . S
O13 Cd4 2.356 . S
O13 C11 1.282 . S
C14 O15 1.306 . S
C14 O17 1.160 . S
O15 C14 1.306 . S
O15 Cd16 2.228 1_655 S
Cd16 O15 2.228 1_455 S
Cd16 O20 2.273 1_455 S
Cd16 O24 2.277 1_455 S
O17 C14 1.160 . S
O17 Cd18 2.203 . S
Cd18 O17 2.203 . S
Cd18 O20 2.411 . S
Cd18 O21 2.333 . S
Cd18 O22 2.352 . S
Cd18 O26 2.277 . S
Cd18 O27 2.356 . S
C19 O24 1.209 . S
C19 O26 1.226 . S
O20 Cd16 2.273 1_655 S
O20 Cd18 2.411 . S
O20 C23 1.320 . S
O21 Cd18 2.333 . S
O21 C23 1.214 . S
O22 Cd18 2.352 . S
O22 C25 1.258 . S
C23 O20 1.320 . S
C23 O21 1.214 . S
O24 Cd16 2.277 1_655 S
O24 C19 1.209 . S
C25 O22 1.258 . S
C25 O27 1.282 . S
O26 Cd18 2.277 . S
O26 C19 1.226 . S
O27 Cd18 2.356 . S
O27 C25 1.282 . S
C28 O29 1.306 . S
C28 O31 1.160 . S
O29 C28 1.306 . S
O29 Cd30 2.228 1_565 S
Cd30 O29 2.228 1_545 S
Cd30 O34 2.273 1_545 S
Cd30 O38 2.277 1_545 S
O31 C28 1.160 . S
O31 Cd32 2.203 . S
Cd32 O31 2.203 . S
Cd32 O34 2.411 . S
Cd32 O35 2.333 . S
Cd32 O36 2.352 . S
Cd32 O40 2.277 . S
Cd32 O41 2.356 . S
C33 O38 1.209 . S
C33 O40 1.226 . S
O34 Cd30 2.273 1_565 S
O34 Cd32 2.411 . S
O34 C37 1.320 . S
O35 Cd32 2.333 . S
O35 C37 1.214 . S
O36 Cd32 2.352 . S
O36 C39 1.258 . S
C37 O34 1.320 . S
C37 O35 1.214 . S
O38 Cd30 2.277 1_565 S
O38 C33 1.209 . S
C39 O36 1.258 . S
C39 O41 1.282 . S
O40 Cd32 2.277 . S
O40 C33 1.226 . S
O41 Cd32 2.356 . S
O41 C39 1.282 . S
C42 O43 1.306 . S
C42 O45 1.160 . S
O43 C42 1.306 . S
O43 Cd44 2.228 . S
Cd44 O43 2.228 . S
Cd44 O48 2.273 . S
Cd44 O52 2.277 . S
O45 C42 1.160 . S
O45 Cd46 2.203 . S
Cd46 O45 2.203 . S
Cd46 O48 2.411 . S
Cd46 O49 2.333 1_554 S
Cd46 O50 2.352 . S
Cd46 O54 2.277 . S
Cd46 O55 2.356 . S
C47 O52 1.209 . S
C47 O54 1.226 . S
O48 Cd44 2.273 . S
O48 Cd46 2.411 . S
O48 C51 1.310 1_554 S
O49 Cd46 2.333 1_556 S
O49 C51 1.214 . S
O50 Cd46 2.352 . S
O50 C53 1.258 . S
C51 O48 1.310 1_556 S
C51 O49 1.214 . S
O52 Cd44 2.277 . S
O52 C47 1.209 . S
C53 O50 1.258 . S
C53 O55 1.282 . S
O54 Cd46 2.277 . S
O54 C47 1.226 . S
O55 Cd46 2.356 . S
O55 C53 1.282 . S
C56 O57 1.306 . S
C56 O59 1.160 . S
O57 C56 1.306 . S
O57 Cd58 2.228 1_455 S
Cd58 O57 2.228 1_655 S
Cd58 O62 2.273 1_655 S
Cd58 O66 2.277 1_655 S
O59 C56 1.160 . S
O59 Cd60 2.203 . S
Cd60 O59 2.203 . S
Cd60 O62 2.411 . S
Cd60 O63 2.333 . S
Cd60 O64 2.352 . S
Cd60 O68 2.277 . S
Cd60 O69 2.356 . S
C61 O66 1.209 . S
C61 O68 1.226 . S
O62 Cd58 2.273 1_455 S
O62 Cd60 2.411 . S
O62 C65 1.320 . S
O63 Cd60 2.333 . S
O63 C65 1.214 . S
O64 Cd60 2.352 . S
O64 C67 1.258 . S
C65 O62 1.320 . S
C65 O63 1.214 . S
O66 Cd58 2.277 1_455 S
O66 C61 1.209 . S
C67 O64 1.258 . S
C67 O69 1.282 . S
O68 Cd60 2.277 . S
O68 C61 1.226 . S
O69 Cd60 2.356 . S
O69 C67 1.282 . S
C70 O71 1.306 . S
C70 O73 1.160 . S
O71 C70 1.306 . S
O71 Cd72 2.228 1_545 S
Cd72 O71 2.228 1_565 S
Cd72 O76 2.273 1_565 S
Cd72 O80 2.277 1_565 S
O73 C70 1.160 . S
O73 Cd74 2.203 . S
Cd74 O73 2.203 . S
Cd74 O76 2.411 . S
Cd74 O77 2.333 . S
Cd74 O78 2.352 . S
Cd74 O82 2.277 . S
Cd74 O83 2.356 . S
C75 O80 1.209 . S
C75 O82 1.226 . S
O76 Cd72 2.273 1_545 S
O76 Cd74 2.411 . S
O76 C79 1.320 . S
O77 Cd74 2.333 . S
O77 C79 1.214 . S
O78 Cd74 2.352 . S
O78 C81 1.258 . S
C79 O76 1.320 . S
C79 O77 1.214 . S
O80 Cd72 2.277 1_545 S
O80 C75 1.209 . S
C81 O78 1.258 . S
C81 O83 1.282 . S
O82 Cd74 2.277 . S
O82 C75 1.226 . S
O83 Cd74 2.356 . S
O83 C81 1.282 . S
C84 O85 1.306 . S
C84 O87 1.160 . S
O85 C84 1.306 . S
O85 Cd86 2.228 . S
Cd86 O85 2.228 . S
Cd86 O90 2.273 . S
Cd86 O94 2.277 . S
O87 C84 1.160 . S
O87 Cd88 2.203 . S
Cd88 O87 2.203 . S
Cd88 O90 2.411 . S
Cd88 O91 2.333 . S
Cd88 O92 2.352 . S
Cd88 O96 2.277 . S
Cd88 O97 2.356 . S
C89 O94 1.209 . S
C89 O96 1.226 . S
O90 Cd86 2.273 . S
O90 Cd88 2.411 . S
O90 C93 1.320 . S
O91 Cd88 2.333 . S
O91 C93 1.214 . S
O92 Cd88 2.352 . S
O92 C95 1.258 . S
C93 O90 1.320 . S
C93 O91 1.214 . S
O94 Cd86 2.277 . S
O94 C89 1.209 . S
C95 O92 1.258 . S
C95 O97 1.282 . S
O96 Cd88 2.277 . S
O96 C89 1.226 . S
O97 Cd88 2.356 . S
O97 C95 1.282 . S
C98 O99 1.306 . S
C98 O101 1.160 . S
O99 C98 1.306 . S
O99 Cd100 2.228 1_655 S
Cd100 O99 2.228 1_455 S
Cd100 O104 2.273 1_455 S
Cd100 O108 2.277 1_455 S
O101 C98 1.160 . S
O101 Cd102 2.203 . S
Cd102 O101 2.203 . S
Cd102 O104 2.411 . S
Cd102 O105 2.333 1_556 S
Cd102 O106 2.352 . S
Cd102 O110 2.277 . S
Cd102 O111 2.356 . S
C103 O108 1.209 . S
C103 O110 1.226 . S
O104 Cd100 2.273 1_655 S
O104 Cd102 2.411 . S
O104 C107 1.310 1_556 S
O105 Cd102 2.333 1_554 S
O105 C107 1.214 . S
O106 Cd102 2.352 . S
O106 C109 1.258 . S
C107 O104 1.310 1_554 S
C107 O105 1.214 . S
O108 Cd100 2.277 1_655 S
O108 C103 1.209 . S
C109 O106 1.258 . S
C109 O111 1.282 . S
O110 Cd102 2.277 . S
O110 C103 1.226 . S
O111 Cd102 2.356 . S
O111 C109 1.282 . S
C112 O113 1.306 . S
C112 O115 1.160 . S
O113 C112 1.306 . S
O113 Cd114 2.228 1_565 S
Cd114 O113 2.228 1_545 S
Cd114 O118 2.273 1_545 S
Cd114 O122 2.277 1_545 S
O115 C112 1.160 . S
O115 Cd116 2.203 . S
Cd116 O115 2.203 . S
Cd116 O118 2.411 . S
Cd116 O119 2.333 . S
Cd116 O120 2.352 . S
Cd116 O124 2.277 . S
Cd116 O125 2.356 . S
C117 O122 1.209 . S
C117 O124 1.226 . S
O118 Cd114 2.273 1_565 S
O118 Cd116 2.411 . S
O118 C121 1.320 . S
O119 Cd116 2.333 . S
O119 C121 1.214 . S
O120 Cd116 2.352 . S
O120 C123 1.258 . S
C121 O118 1.320 . S
C121 O119 1.214 . S
O122 Cd114 2.277 1_565 S
O122 C117 1.209 . S
C123 O120 1.258 . S
C123 O125 1.282 . S
O124 Cd116 2.277 . S
O124 C117 1.226 . S
O125 Cd116 2.356 . S
O125 C123 1.282 . S
C126 O127 1.306 . S
C126 O129 1.160 . S
O127 C126 1.306 . S
O127 Cd128 2.228 . S
Cd128 O127 2.228 . S
Cd128 O132 2.273 . S
Cd128 O136 2.277 . S
O129 C126 1.160 . S
O129 Cd130 2.203 . S
Cd130 O129 2.203 . S
Cd130 O132 2.411 . S
Cd130 O133 2.333 . S
Cd130 O134 2.352 . S
Cd130 O138 2.277 . S
Cd130 O139 2.356 . S
C131 O136 1.209 . S
C131 O138 1.226 . S
O132 Cd128 2.273 . S
O132 Cd130 2.411 . S
O132 C135 1.320 . S
O133 Cd130 2.333 . S
O133 C135 1.214 . S
O134 Cd130 2.352 . S
O134 C137 1.258 . S
C135 O132 1.320 . S
C135 O133 1.214 . S
O136 Cd128 2.277 . S
O136 C131 1.209 . S
C137 O134 1.258 . S
C137 O139 1.282 . S
O138 Cd130 2.277 . S
O138 C131 1.226 . S
O139 Cd130 2.356 . S
O139 C137 1.282 . S
C140 O141 1.306 . S
C140 O143 1.160 . S
O141 C140 1.306 . S
O141 Cd142 2.228 1_455 S
Cd142 O141 2.228 1_655 S
Cd142 O146 2.273 1_655 S
Cd142 O150 2.277 1_655 S
O143 C140 1.160 . S
O143 Cd144 2.203 . S
Cd144 O143 2.203 . S
Cd144 O146 2.411 . S
Cd144 O147 2.333 1_556 S
Cd144 O148 2.352 . S
Cd144 O152 2.277 . S
Cd144 O153 2.356 . S
C145 O150 1.209 . S
C145 O152 1.226 . S
O146 Cd142 2.273 1_455 S
O146 Cd144 2.411 . S
O146 C149 1.310 1_556 S
O147 Cd144 2.333 1_554 S
O147 C149 1.214 . S
O148 Cd144 2.352 . S
O148 C151 1.258 . S
C149 O146 1.310 1_554 S
C149 O147 1.214 . S
O150 Cd142 2.277 1_455 S
O150 C145 1.209 . S
C151 O148 1.258 . S
C151 O153 1.282 . S
O152 Cd144 2.277 . S
O152 C145 1.226 . S
O153 Cd144 2.356 . S
O153 C151 1.282 . S
C154 O155 1.306 . S
C154 O157 1.160 . S
O155 C154 1.306 . S
O155 Cd156 2.228 1_545 S
Cd156 O155 2.228 1_565 S
Cd156 O160 2.273 1_565 S
Cd156 O164 2.277 1_565 S
O157 C154 1.160 . S
O157 Cd158 2.203 . S
Cd158 O157 2.203 . S
Cd158 O160 2.411 . S
Cd158 O161 2.333 . S
Cd158 O162 2.352 . S
Cd158 O166 2.277 . S
Cd158 O167 2.356 . S
C159 O164 1.209 . S
C159 O166 1.226 . S
O160 Cd156 2.273 1_545 S
O160 Cd158 2.411 . S
O160 C163 1.320 . S
O161 Cd158 2.333 . S
O161 C163 1.214 . S
O162 Cd158 2.352 . S
O162 C165 1.258 . S
C163 O160 1.320 . S
C163 O161 1.214 . S
O164 Cd156 2.277 1_545 S
O164 C159 1.209 . S
C165 O162 1.258 . S
C165 O167 1.282 . S
O166 Cd158 2.277 . S
O166 C159 1.226 . S
O167 Cd158 2.356 . S
O167 C165 1.282 . S
C168 C169 1.349 . S
C168 C170 1.327 . S
C168 H193 0.950 . S
C169 C168 1.349 . S
C169 C185 1.349 . S
C170 C168 1.327 . S
C170 C189 1.429 . S
C170 H194 0.950 . S
C171 C188 1.574 . S
C171 C190 1.368 . S
C171 H195 0.949 . S
H172 C176 0.949 . S
C173 C174 1.349 . S
C173 C175 1.327 . S
C173 H196 0.950 . S
C174 C173 1.349 . S
C174 C186 1.349 . S
C175 C173 1.327 . S
C175 C191 1.429 . S
C175 H197 0.950 . S
C176 H172 0.949 . S
C176 C184 1.574 . S
C176 C192 1.368 . S
H177 C185 0.950 . S
H178 C183 0.950 . S
H179 C184 0.949 . S
H180 C186 0.950 . S
H181 C187 0.950 . S
H182 C188 0.949 . S
C183 H178 0.950 . S
C183 C185 1.327 . S
C183 C189 1.429 . S
C184 C176 1.574 . S
C184 H179 0.949 . S
C184 C190 1.368 . S
C185 C169 1.349 . S
C185 H177 0.950 . S
C185 C183 1.327 . S
C186 C174 1.349 . S
C186 H180 0.950 . S
C186 C187 1.327 . S
C187 H181 0.950 . S
C187 C186 1.327 . S
C187 C191 1.429 . S
C188 C171 1.574 . S
C188 H182 0.949 . S
C188 C192 1.368 . S
C189 C170 1.429 . S
C189 C183 1.429 . S
C189 C190 1.523 . S
C190 C171 1.368 . S
C190 C184 1.368 . S
C190 C189 1.523 . S
C191 C175 1.429 . S
C191 C187 1.429 . S
C191 C192 1.523 . S
C192 C176 1.368 . S
C192 C188 1.368 . S
C192 C191 1.523 . S
H193 C168 0.950 . S
H194 C170 0.950 . S
H195 C171 0.949 . S
H196 C173 0.950 . S
H197 C175 0.950 . S
C198 C199 1.349 . S
C198 C200 1.327 1_655 S
C198 H223 0.950 1_655 S
C199 C198 1.349 . S
C199 C215 1.349 . S
C200 C198 1.327 1_455 S
C200 C219 1.429 1_455 S
C200 H224 0.950 . S
C201 C218 1.574 . S
C201 C220 1.368 . S
C201 H225 0.949 . S
H202 C206 0.949 . S
C203 C204 1.349 . S
C203 C205 1.327 1_455 S
C203 H226 0.950 1_455 S
C204 C203 1.349 . S
C204 C216 1.349 . S
C205 C203 1.327 1_655 S
C205 C221 1.429 1_655 S
C205 H227 0.950 . S
C206 H202 0.949 . S
C206 C214 1.574 . S
C206 C222 1.368 . S
H207 C215 0.950 . S
H208 C213 0.950 . S
H209 C214 0.949 . S
H210 C216 0.950 . S
H211 C217 0.950 . S
H212 C218 0.949 . S
C213 H208 0.950 . S
C213 C215 1.327 . S
C213 C219 1.429 . S
C214 C206 1.574 . S
C214 H209 0.949 . S
C214 C220 1.368 1_455 S
C215 C199 1.349 . S
C215 H207 0.950 . S
C215 C213 1.327 . S
C216 C204 1.349 . S
C216 H210 0.950 . S
C216 C217 1.327 . S
C217 H211 0.950 . S
C217 C216 1.327 . S
C217 C221 1.429 . S
C218 C201 1.574 . S
C218 H212 0.949 . S
C218 C222 1.368 1_655 S
C219 C200 1.429 1_655 S
C219 C213 1.429 . S
C219 C220 1.523 . S
C220 C201 1.368 . S
C220 C214 1.368 1_655 S
C220 C219 1.523 . S
C221 C205 1.429 1_455 S
C221 C217 1.429 . S
C221 C222 1.523 . S
C222 C206 1.368 . S
C222 C218 1.368 1_455 S
C222 C221 1.523 . S
H223 C198 0.950 1_455 S
H224 C200 0.950 . S
H225 C201 0.949 . S
H226 C203 0.950 1_655 S
H227 C205 0.950 . S
C228 C229 1.349 . S
C228 C230 1.327 . S
C228 H253 0.950 . S
C229 C228 1.349 . S
C229 C245 1.349 . S
C230 C228 1.327 . S
C230 C249 1.429 . S
C230 H254 0.950 . S
C231 C248 1.574 1_556 S
C231 C250 1.368 1_545 S
C231 H255 0.949 . S
H232 C236 0.949 . S
C233 C234 1.349 . S
C233 C235 1.327 . S
C233 H256 0.950 . S
C234 C233 1.349 . S
C234 C246 1.349 . S
C235 C233 1.327 . S
C235 C251 1.429 . S
C235 H257 0.950 . S
C236 H232 0.949 . S
C236 C244 1.574 1_554 S
C236 C252 1.368 1_565 S
H237 C245 0.950 1_545 S
H238 C243 0.950 . S
H239 C244 0.949 . S
H240 C246 0.950 1_565 S
H241 C247 0.950 . S
H242 C248 0.949 . S
C243 H238 0.950 . S
C243 C245 1.327 1_545 S
C243 C249 1.429 1_545 S
C244 C236 1.574 1_556 S
C244 H239 0.949 . S
C244 C250 1.368 . S
C245 C229 1.349 . S
C245 H237 0.950 1_565 S
C245 C243 1.327 1_565 S
C246 C234 1.349 . S
C246 H240 0.950 1_545 S
C246 C247 1.327 1_545 S
C247 H241 0.950 . S
C247 C246 1.327 1_565 S
C247 C251 1.429 1_565 S
C248 C231 1.574 1_554 S
C248 H242 0.949 . S
C248 C252 1.368 . S
C249 C230 1.429 . S
C249 C243 1.429 1_565 S
C249 C250 1.523 . S
C250 C231 1.368 1_565 S
C250 C244 1.368 . S
C250 C249 1.523 . S
C251 C235 1.429 . S
C251 C247 1.429 1_545 S
C251 C252 1.523 . S
C252 C236 1.368 1_545 S
C252 C248 1.368 . S
C252 C251 1.523 . S
H253 C228 0.950 . S
H254 C230 0.950 . S
H255 C231 0.949 . S
H256 C233 0.950 . S
H257 C235 0.950 . S
C258 C259 1.349 . S
C258 C260 1.327 . S
C258 H283 0.950 . S
C259 C258 1.349 . S
C259 C275 1.349 . S
C260 C258 1.327 . S
C260 C279 1.429 . S
C260 H284 0.950 . S
C261 C278 1.574 . S
C261 C280 1.368 . S
C261 H285 0.949 . S
H262 C266 0.949 . S
C263 C264 1.349 . S
C263 C265 1.327 . S
C263 H286 0.950 . S
C264 C263 1.349 . S
C264 C276 1.349 . S
C265 C263 1.327 . S
C265 C281 1.429 . S
C265 H287 0.950 . S
C266 H262 0.949 . S
C266 C274 1.574 . S
C266 C282 1.368 . S
H267 C275 0.950 . S
H268 C273 0.950 . S
H269 C274 0.949 . S
H270 C276 0.950 . S
H271 C277 0.950 . S
H272 C278 0.949 . S
C273 H268 0.950 . S
C273 C275 1.327 . S
C273 C279 1.429 . S
C274 C266 1.574 . S
C274 H269 0.949 . S
C274 C280 1.368 . S
C275 C259 1.349 . S
C275 H267 0.950 . S
C275 C273 1.327 . S
C276 C264 1.349 . S
C276 H270 0.950 . S
C276 C277 1.327 . S
C277 H271 0.950 . S
C277 C276 1.327 . S
C277 C281 1.429 . S
C278 C261 1.574 . S
C278 H272 0.949 . S
C278 C282 1.368 . S
C279 C260 1.429 . S
C279 C273 1.429 . S
C279 C280 1.523 . S
C280 C261 1.368 . S
C280 C274 1.368 . S
C280 C279 1.523 . S
C281 C265 1.429 . S
C281 C277 1.429 . S
C281 C282 1.523 . S
C282 C266 1.368 . S
C282 C278 1.368 . S
C282 C281 1.523 . S
H283 C258 0.950 . S
H284 C260 0.950 . S
H285 C261 0.949 . S
H286 C263 0.950 . S
H287 C265 0.950 . S
C288 C289 1.349 . S
C288 C290 1.327 . S
C288 H313 0.950 . S
C289 C288 1.349 . S
C289 C305 1.349 1_655 S
C290 C288 1.327 . S
C290 C309 1.429 . S
C290 H314 0.950 . S
C291 C308 1.574 . S
C291 C310 1.368 1_455 S
C291 H315 0.949 . S
H292 C296 0.949 . S
C293 C294 1.349 . S
C293 C295 1.327 . S
C293 H316 0.950 . S
C294 C293 1.349 . S
C294 C306 1.349 1_455 S
C295 C293 1.327 . S
C295 C311 1.429 . S
C295 H317 0.950 . S
C296 H292 0.949 . S
C296 C304 1.574 . S
C296 C312 1.368 1_655 S
H297 C305 0.950 . S
H298 C303 0.950 . S
H299 C304 0.949 . S
H300 C306 0.950 . S
H301 C307 0.950 . S
H302 C308 0.949 . S
C303 H298 0.950 . S
C303 C305 1.327 . S
C303 C309 1.429 1_455 S
C304 C296 1.574 . S
C304 H299 0.949 . S
C304 C310 1.368 . S
C305 C289 1.349 1_455 S
C305 H297 0.950 . S
C305 C303 1.327 . S
C306 C294 1.349 1_655 S
C306 H300 0.950 . S
C306 C307 1.327 . S
C307 H301 0.950 . S
C307 C306 1.327 . S
C307 C311 1.429 1_655 S
C308 C291 1.574 . S
C308 H302 0.949 . S
C308 C312 1.368 . S
C309 C290 1.429 . S
C309 C303 1.429 1_655 S
C309 C310 1.523 . S
C310 C291 1.368 1_655 S
C310 C304 1.368 . S
C310 C309 1.523 . S
C311 C295 1.429 . S
C311 C307 1.429 1_455 S
C311 C312 1.523 . S
C312 C296 1.368 1_455 S
C312 C308 1.368 . S
C312 C311 1.523 . S
H313 C288 0.950 . S
H314 C290 0.950 . S
H315 C291 0.949 . S
H316 C293 0.950 . S
H317 C295 0.950 . S
C318 C319 1.349 . S
C318 C320 1.327 . S
C318 H343 0.950 . S
C319 C318 1.349 . S
C319 C335 1.329 1_565 S
C320 C318 1.327 . S
C320 C339 1.429 . S
C320 H344 0.950 . S
C321 C338 1.574 1_554 S
C321 C340 1.368 1_545 S
C321 H345 0.949 . S
H322 C326 0.949 . S
C323 C324 1.349 . S
C323 C325 1.327 . S
C323 H346 0.950 . S
C324 C323 1.349 . S
C324 C336 1.329 1_545 S
C325 C323 1.327 . S
C325 C341 1.429 . S
C325 H347 0.950 . S
C326 H322 0.949 . S
C326 C334 1.574 1_556 S
C326 C342 1.368 1_565 S
H327 C335 0.964 . S
H328 C333 0.950 . S
H329 C334 0.949 . S
H330 C336 0.963 . S
H331 C337 0.950 . S
H332 C338 0.949 . S
C333 H328 0.950 . S
C333 C335 1.335 . S
C333 C339 1.429 1_545 S
C334 C326 1.574 1_554 S
C334 H329 0.949 . S
C334 C340 1.368 . S
C335 C319 1.329 1_545 S
C335 H327 0.964 . S
C335 C333 1.335 . S
C336 C324 1.329 1_565 S
C336 H330 0.963 . S
C336 C337 1.335 . S
C337 H331 0.950 . S
C337 C336 1.335 . S
C337 C341 1.429 1_565 S
C338 C321 1.574 1_556 S
C338 H332 0.949 . S
C338 C342 1.368 . S
C339 C320 1.429 . S
C339 C333 1.429 1_565 S
C339 C340 1.523 . S
C340 C321 1.368 1_565 S
C340 C334 1.368 . S
C340 C339 1.523 . S
C341 C325 1.429 . S
C341 C337 1.429 1_545 S
C341 C342 1.523 . S
C342 C326 1.368 1_545 S
C342 C338 1.368 . S
C342 C341 1.523 . S
H343 C318 0.950 . S
H344 C320 0.950 . S
H345 C321 0.949 . S
H346 C323 0.950 . S
H347 C325 0.950 . S
C348 C349 1.349 . S
C348 C350 1.327 . S
C348 H373 0.950 . S
C349 C348 1.349 . S
C349 C365 1.349 . S
C350 C348 1.327 . S
C350 C369 1.429 . S
C350 H374 0.950 . S
C351 C368 1.574 . S
C351 C370 1.368 1_554 S
C351 H375 0.949 . S
H352 C356 0.949 . S
C353 C354 1.349 . S
C353 C355 1.327 . S
C353 H376 0.950 . S
C354 C353 1.349 . S
C354 C366 1.349 . S
C355 C353 1.327 . S
C355 C371 1.429 . S
C355 H377 0.950 . S
C356 H352 0.949 . S
C356 C364 1.574 . S
C356 C372 1.368 1_556 S
H357 C365 0.950 . S
H358 C363 0.950 1_554 S
H359 C364 0.949 . S
H360 C366 0.950 . S
H361 C367 0.950 1_556 S
H362 C368 0.949 . S
C363 H358 0.950 1_556 S
C363 C365 1.327 . S
C363 C369 1.429 . S
C364 C356 1.574 . S
C364 H359 0.949 . S
C364 C370 1.368 . S
C365 C349 1.349 . S
C365 H357 0.950 . S
C365 C363 1.327 . S
C366 C354 1.349 . S
C366 H360 0.950 . S
C366 C367 1.327 . S
C367 H361 0.950 1_554 S
C367 C366 1.327 . S
C367 C371 1.429 . S
C368 C351 1.574 . S
C368 H362 0.949 . S
C368 C372 1.368 . S
C369 C350 1.429 . S
C369 C363 1.429 . S
C369 C370 1.523 . S
C370 C351 1.368 1_556 S
C370 C364 1.368 . S
C370 C369 1.523 . S
C371 C355 1.429 . S
C371 C367 1.429 . S
C371 C372 1.523 . S
C372 C356 1.368 1_554 S
C372 C368 1.368 . S
C372 C371 1.523 . S
H373 C348 0.950 . S
H374 C350 0.950 . S
H375 C351 0.949 . S
H376 C353 0.950 . S
H377 C355 0.950 . S
C378 C379 1.349 . S
C378 C380 1.327 . S
C378 H403 0.950 . S
C379 C378 1.349 . S
C379 C395 1.349 . S
C380 C378 1.327 . S
C380 C399 1.429 . S
C380 H404 0.950 . S
C381 C398 1.574 . S
C381 C400 1.368 . S
C381 H405 0.949 . S
H382 C386 0.949 . S
C383 C384 1.349 . S
C383 C385 1.327 . S
C383 H406 0.950 . S
C384 C383 1.349 . S
C384 C396 1.349 . S
C385 C383 1.327 . S
C385 C401 1.429 . S
C385 H407 0.950 . S
C386 H382 0.949 . S
C386 C394 1.574 . S
C386 C402 1.368 . S
H387 C395 0.950 . S
H388 C393 0.950 . S
H389 C394 0.949 . S
H390 C396 0.950 . S
H391 C397 0.950 . S
H392 C398 0.949 . S
C393 H388 0.950 . S
C393 C395 1.327 . S
C393 C399 1.429 . S
C394 C386 1.574 . S
C394 H389 0.949 . S
C394 C400 1.368 . S
C395 C379 1.349 . S
C395 H387 0.950 . S
C395 C393 1.327 . S
C396 C384 1.349 . S
C396 H390 0.950 . S
C396 C397 1.327 . S
C397 H391 0.950 . S
C397 C396 1.327 . S
C397 C401 1.429 . S
C398 C381 1.574 . S
C398 H392 0.949 . S
C398 C402 1.368 . S
C399 C380 1.429 . S
C399 C393 1.429 . S
C399 C400 1.523 . S
C400 C381 1.368 . S
C400 C394 1.368 . S
C400 C399 1.523 . S
C401 C385 1.429 . S
C401 C397 1.429 . S
C401 C402 1.523 . S
C402 C386 1.368 . S
C402 C398 1.368 . S
C402 C401 1.523 . S
H403 C378 0.950 . S
H404 C380 0.950 . S
H405 C381 0.949 . S
H406 C383 0.950 . S
H407 C385 0.950 . S
C408 C409 1.349 . S
C408 C410 1.327 . S
C408 H433 0.950 . S
C409 C408 1.349 . S
C409 C425 1.349 . S
C410 C408 1.327 . S
C410 C429 1.429 . S
C410 H434 0.950 . S
C411 C428 1.574 . S
C411 C430 1.368 . S
C411 H435 0.949 . S
H412 C416 0.949 . S
C413 C414 1.349 . S
C413 C415 1.327 . S
C413 H436 0.950 . S
C414 C413 1.349 . S
C414 C426 1.349 . S
C415 C413 1.327 . S
C415 C431 1.429 . S
C415 H437 0.950 . S
C416 H412 0.949 . S
C416 C424 1.574 . S
C416 C432 1.368 . S
H417 C425 0.950 . S
H418 C423 0.950 . S
H419 C424 0.949 . S
H420 C426 0.950 . S
H421 C427 0.950 . S
H422 C428 0.949 . S
C423 H418 0.950 . S
C423 C425 1.327 . S
C423 C429 1.429 . S
C424 C416 1.574 . S
C424 H419 0.949 . S
C424 C430 1.368 . S
C425 C409 1.349 . S
C425 H417 0.950 . S
C425 C423 1.327 . S
C426 C414 1.349 . S
C426 H420 0.950 . S
C426 C427 1.327 . S
C427 H421 0.950 . S
C427 C426 1.327 . S
C427 C431 1.429 . S
C428 C411 1.574 . S
C428 H422 0.949 . S
C428 C432 1.368 . S
C429 C410 1.429 . S
C429 C423 1.429 . S
C429 C430 1.523 . S
C430 C411 1.368 . S
C430 C424 1.368 . S
C430 C429 1.523 . S
C431 C415 1.429 . S
C431 C427 1.429 . S
C431 C432 1.523 . S
C432 C416 1.368 . S
C432 C428 1.368 . S
C432 C431 1.523 . S
H433 C408 0.950 . S
H434 C410 0.950 . S
H435 C411 0.949 . S
H436 C413 0.950 . S
H437 C415 0.950 . S
C438 C439 1.349 . S
C438 C440 1.327 . S
C438 H463 0.950 . S
C439 C438 1.349 . S
C439 C455 1.349 . S
C440 C438 1.327 . S
C440 C459 1.429 . S
C440 H464 0.950 1_554 S
C441 C458 1.574 . S
C441 C460 1.368 . S
C441 H465 0.949 . S
H442 C446 0.949 . S
C443 C444 1.349 . S
C443 C445 1.327 . S
C443 H466 0.950 . S
C444 C443 1.349 . S
C444 C456 1.349 . S
C445 C443 1.327 . S
C445 C461 1.429 . S
C445 H467 0.950 1_556 S
C446 H442 0.949 . S
C446 C454 1.574 . S
C446 C462 1.368 . S
H447 C455 0.950 . S
H448 C453 0.950 . S
H449 C454 0.949 . S
H450 C456 0.950 . S
H451 C457 0.950 . S
H452 C458 0.949 . S
C453 H448 0.950 . S
C453 C455 1.327 . S
C453 C459 1.429 . S
C454 C446 1.574 . S
C454 H449 0.949 . S
C454 C460 1.368 1_556 S
C455 C439 1.349 . S
C455 H447 0.950 . S
C455 C453 1.327 . S
C456 C444 1.349 . S
C456 H450 0.950 . S
C456 C457 1.327 . S
C457 H451 0.950 . S
C457 C456 1.327 . S
C457 C461 1.429 . S
C458 C441 1.574 . S
C458 H452 0.949 . S
C458 C462 1.368 1_554 S
C459 C440 1.429 . S
C459 C453 1.429 . S
C459 C460 1.523 . S
C460 C441 1.368 . S
C460 C454 1.368 1_554 S
C460 C459 1.523 . S
C461 C445 1.429 . S
C461 C457 1.429 . S
C461 C462 1.523 . S
C462 C446 1.368 . S
C462 C458 1.368 1_556 S
C462 C461 1.523 . S
H463 C438 0.950 . S
H464 C440 0.950 1_556 S
H465 C441 0.949 . S
H466 C443 0.950 . S
H467 C445 0.950 1_554 S
C468 C469 1.349 . S
C468 C470 1.327 . S
C468 H493 0.950 . S
C469 C468 1.349 . S
C469 C485 1.349 . S
C470 C468 1.327 . S
C470 C489 1.429 . S
C470 H494 0.950 . S
C471 C488 1.574 . S
C471 C490 1.368 . S
C471 H495 0.949 . S
H472 C476 0.949 . S
C473 C474 1.349 . S
C473 C475 1.327 . S
C473 H496 0.950 . S
C474 C473 1.349 . S
C474 C486 1.349 . S
C475 C473 1.327 . S
C475 C491 1.429 . S
C475 H497 0.950 . S
C476 H472 0.949 . S
C476 C484 1.574 . S
C476 C492 1.368 . S
H477 C485 0.950 . S
H478 C483 0.950 . S
H479 C484 0.949 . S
H480 C486 0.950 . S
H481 C487 0.950 . S
H482 C488 0.949 . S
C483 H478 0.950 . S
C483 C485 1.327 . S
C483 C489 1.429 . S
C484 C476 1.574 . S
C484 H479 0.949 . S
C484 C490 1.368 . S
C485 C469 1.349 . S
C485 H477 0.950 . S
C485 C483 1.327 . S
C486 C474 1.349 . S
C486 H480 0.950 . S
C486 C487 1.327 . S
C487 H481 0.950 . S
C487 C486 1.327 . S
C487 C491 1.429 . S
C488 C471 1.574 . S
C488 H482 0.949 . S
C488 C492 1.368 . S
C489 C470 1.429 . S
C489 C483 1.429 . S
C489 C490 1.523 . S
C490 C471 1.368 . S
C490 C484 1.368 . S
C490 C489 1.523 . S
C491 C475 1.429 . S
C491 C487 1.429 . S
C491 C492 1.523 . S
C492 C476 1.368 . S
C492 C488 1.368 . S
C492 C491 1.523 . S
H493 C468 0.950 . S
H494 C470 0.950 . S
H495 C471 0.949 . S
H496 C473 0.950 . S
H497 C475 0.950 . S
C498 C499 1.349 . S
C498 C500 1.327 . S
C498 H523 0.950 . S
C499 C498 1.349 . S
C499 C515 1.349 . S
C500 C498 1.327 . S
C500 C519 1.429 . S
C500 H524 0.950 . S
C501 C518 1.574 . S
C501 C520 1.368 . S
C501 H525 0.949 . S
H502 C506 0.949 . S
C503 C504 1.349 . S
C503 C505 1.327 . S
C503 H526 0.950 . S
C504 C503 1.349 . S
C504 C516 1.349 . S
C505 C503 1.327 . S
C505 C521 1.429 . S
C505 H527 0.950 . S
C506 H502 0.949 . S
C506 C514 1.574 . S
C506 C522 1.368 . S
H507 C515 0.950 . S
H508 C513 0.950 . S
H509 C514 0.949 . S
H510 C516 0.950 . S
H511 C517 0.950 . S
H512 C518 0.949 . S
C513 H508 0.950 . S
C513 C515 1.327 . S
C513 C519 1.429 . S
C514 C506 1.574 . S
C514 H509 0.949 . S
C514 C520 1.368 . S
C515 C499 1.349 . S
C515 H507 0.950 . S
C515 C513 1.327 . S
C516 C504 1.349 . S
C516 H510 0.950 . S
C516 C517 1.327 . S
C517 H511 0.950 . S
C517 C516 1.327 . S
C517 C521 1.429 . S
C518 C501 1.574 . S
C518 H512 0.949 . S
C518 C522 1.368 . S
C519 C500 1.429 . S
C519 C513 1.429 . S
C519 C520 1.523 . S
C520 C501 1.368 . S
C520 C514 1.368 . S
C520 C519 1.523 . S
C521 C505 1.429 . S
C521 C517 1.429 . S
C521 C522 1.523 . S
C522 C506 1.368 . S
C522 C518 1.368 . S
C522 C521 1.523 . S
H523 C498 0.950 . S
H524 C500 0.950 . S
H525 C501 0.949 . S
H526 C503 0.950 . S
H527 C505 0.950 . S
C528 C529 1.349 . S
C528 C530 1.327 . S
C528 H553 0.950 . S
C529 C528 1.349 . S
C529 C545 1.349 . S
C530 C528 1.327 . S
C530 C549 1.429 . S
C530 H554 0.950 . S
C531 C548 1.574 . S
C531 C550 1.368 . S
C531 H555 0.949 . S
H532 C536 0.949 . S
C533 C534 1.349 . S
C533 C535 1.327 . S
C533 H556 0.950 . S
C534 C533 1.349 . S
C534 C546 1.349 . S
C535 C533 1.327 . S
C535 C551 1.429 . S
C535 H557 0.950 . S
C536 H532 0.949 . S
C536 C544 1.574 . S
C536 C552 1.368 . S
H537 C545 0.950 . S
H538 C543 0.950 . S
H539 C544 0.949 . S
H540 C546 0.950 . S
H541 C547 0.950 . S
H542 C548 0.949 . S
C543 H538 0.950 . S
C543 C545 1.327 . S
C543 C549 1.429 . S
C544 C536 1.574 . S
C544 H539 0.949 . S
C544 C550 1.368 . S
C545 C529 1.349 . S
C545 H537 0.950 . S
C545 C543 1.327 . S
C546 C534 1.349 . S
C546 H540 0.950 . S
C546 C547 1.327 . S
C547 H541 0.950 . S
C547 C546 1.327 . S
C547 C551 1.429 . S
C548 C531 1.574 . S
C548 H542 0.949 . S
C548 C552 1.368 . S
C549 C530 1.429 . S
C549 C543 1.429 . S
C549 C550 1.523 . S
C550 C531 1.368 . S
C550 C544 1.368 . S
C550 C549 1.523 . S
C551 C535 1.429 . S
C551 C547 1.429 . S
C551 C552 1.523 . S
C552 C536 1.368 . S
C552 C548 1.368 . S
C552 C551 1.523 . S
H553 C528 0.950 . S
H554 C530 0.950 . S
H555 C531 0.949 . S
H556 C533 0.950 . S
H557 C535 0.950 . S
C558 C559 1.349 . S
C558 C560 1.327 . S
C558 H583 0.950 . S
C559 C558 1.349 . S
C559 C575 1.349 1_655 S
C560 C558 1.327 . S
C560 C579 1.429 . S
C560 H584 0.950 . S
C561 C578 1.574 . S
C561 C580 1.368 1_455 S
C561 H585 0.949 . S
H562 C566 0.949 . S
C563 C564 1.349 . S
C563 C565 1.327 . S
C563 H586 0.950 . S
C564 C563 1.349 . S
C564 C576 1.349 1_455 S
C565 C563 1.327 . S
C565 C581 1.429 . S
C565 H587 0.950 . S
C566 H562 0.949 . S
C566 C574 1.574 . S
C566 C582 1.368 1_655 S
H567 C575 0.950 . S
H568 C573 0.950 . S
H569 C574 0.949 . S
H570 C576 0.950 . S
H571 C577 0.950 . S
H572 C578 0.949 . S
C573 H568 0.950 . S
C573 C575 1.327 . S
C573 C579 1.429 1_455 S
C574 C566 1.574 . S
C574 H569 0.949 . S
C574 C580 1.368 . S
C575 C559 1.349 1_455 S
C575 H567 0.950 . S
C575 C573 1.327 . S
C576 C564 1.349 1_655 S
C576 H570 0.950 . S
C576 C577 1.327 . S
C577 H571 0.950 . S
C577 C576 1.327 . S
C577 C581 1.429 1_655 S
C578 C561 1.574 . S
C578 H572 0.949 . S
C578 C582 1.368 . S
C579 C560 1.429 . S
C579 C573 1.429 1_655 S
C579 C580 1.523 . S
C580 C561 1.368 1_655 S
C580 C574 1.368 . S
C580 C579 1.523 . S
C581 C565 1.429 . S
C581 C577 1.429 1_455 S
C581 C582 1.523 . S
C582 C566 1.368 1_455 S
C582 C578 1.368 . S
C582 C581 1.523 . S
H583 C558 0.950 . S
H584 C560 0.950 . S
H585 C561 0.949 . S
H586 C563 0.950 . S
H587 C565 0.950 . S
C588 C589 1.349 1_545 S
C588 C590 1.327 . S
C588 H613 0.950 . S
C589 C588 1.349 1_565 S
C589 C605 1.349 . S
C590 C588 1.327 . S
C590 C609 1.429 1_545 S
C590 H614 0.950 . S
C591 C608 1.574 . S
C591 C610 1.368 . S
C591 H615 0.949 . S
H592 C596 0.949 . S
C593 C594 1.349 1_565 S
C593 C595 1.327 . S
C593 H616 0.950 . S
C594 C593 1.349 1_545 S
C594 C606 1.349 . S
C595 C593 1.327 . S
C595 C611 1.429 1_565 S
C595 H617 0.950 . S
C596 H592 0.949 . S
C596 C604 1.574 . S
C596 C612 1.368 . S
H597 C605 0.950 . S
H598 C603 0.950 . S
H599 C604 0.949 . S
H600 C606 0.950 . S
H601 C607 0.950 . S
H602 C608 0.949 . S
C603 H598 0.950 . S
C603 C605 1.327 . S
C603 C609 1.429 . S
C604 C596 1.574 . S
C604 H599 0.949 . S
C604 C610 1.368 1_545 S
C605 C589 1.349 . S
C605 H597 0.950 . S
C605 C603 1.327 . S
C606 C594 1.349 . S
C606 H600 0.950 . S
C606 C607 1.327 . S
C607 H601 0.950 . S
C607 C606 1.327 . S
C607 C611 1.429 . S
C608 C591 1.574 . S
C608 H602 0.949 . S
C608 C612 1.368 1_565 S
C609 C590 1.429 1_565 S
C609 C603 1.429 . S
C609 C610 1.523 . S
C610 C591 1.368 . S
C610 C604 1.368 1_565 S
C610 C609 1.523 . S
C611 C595 1.429 1_545 S
C611 C607 1.429 . S
C611 C612 1.523 . S
C612 C596 1.368 . S
C612 C608 1.368 1_545 S
C612 C611 1.523 . S
H613 C588 0.950 . S
H614 C590 0.950 . S
H615 C591 0.949 . S
H616 C593 0.950 . S
H617 C595 0.950 . S
C618 C619 1.349 . S
C618 C620 1.327 . S
C618 H643 0.950 . S
C619 C618 1.349 . S
C619 C635 1.349 . S
C620 C618 1.327 . S
C620 C639 1.429 . S
C620 H644 0.950 . S
C621 C638 1.574 . S
C621 C640 1.368 . S
C621 H645 0.949 . S
H622 C626 0.949 . S
C623 C624 1.349 . S
C623 C625 1.327 . S
C623 H646 0.950 . S
C624 C623 1.349 . S
C624 C636 1.349 . S
C625 C623 1.327 . S
C625 C641 1.429 . S
C625 H647 0.950 . S
C626 H622 0.949 . S
C626 C634 1.574 . S
C626 C642 1.368 . S
H627 C635 0.950 . S
H628 C633 0.950 . S
H629 C634 0.949 . S
H630 C636 0.950 . S
H631 C637 0.950 . S
H632 C638 0.949 . S
C633 H628 0.950 . S
C633 C635 1.327 . S
C633 C639 1.429 . S
C634 C626 1.574 . S
C634 H629 0.949 . S
C634 C640 1.368 . S
C635 C619 1.349 . S
C635 H627 0.950 . S
C635 C633 1.327 . S
C636 C624 1.349 . S
C636 H630 0.950 . S
C636 C637 1.327 . S
C637 H631 0.950 . S
C637 C636 1.327 . S
C637 C641 1.429 . S
C638 C621 1.574 . S
C638 H632 0.949 . S
C638 C642 1.368 . S
C639 C620 1.429 . S
C639 C633 1.429 . S
C639 C640 1.523 . S
C640 C621 1.368 . S
C640 C634 1.368 . S
C640 C639 1.523 . S
C641 C625 1.429 . S
C641 C637 1.429 . S
C641 C642 1.523 . S
C642 C626 1.368 . S
C642 C638 1.368 . S
C642 C641 1.523 . S
H643 C618 0.950 . S
H644 C620 0.950 . S
H645 C621 0.949 . S
H646 C623 0.950 . S
H647 C625 0.950 . S
C648 C649 1.349 1_655 S
C648 C650 1.327 . S
C648 H673 0.950 . S
C649 C648 1.349 1_455 S
C649 C665 1.349 . S
C650 C648 1.327 . S
C650 C669 1.429 1_655 S
C650 H674 0.950 . S
C651 C668 1.574 . S
C651 C670 1.368 . S
C651 H675 0.949 . S
H652 C656 0.949 . S
C653 C654 1.349 1_455 S
C653 C655 1.327 . S
C653 H676 0.950 . S
C654 C653 1.349 1_655 S
C654 C666 1.349 . S
C655 C653 1.327 . S
C655 C671 1.429 1_455 S
C655 H677 0.950 . S
C656 H652 0.949 . S
C656 C664 1.574 . S
C656 C672 1.368 . S
H657 C665 0.950 . S
H658 C663 0.950 . S
H659 C664 0.949 . S
H660 C666 0.950 . S
H661 C667 0.950 . S
H662 C668 0.949 . S
C663 H658 0.950 . S
C663 C665 1.327 . S
C663 C669 1.429 . S
C664 C656 1.574 . S
C664 H659 0.949 . S
C664 C670 1.368 1_655 S
C665 C649 1.349 . S
C665 H657 0.950 . S
C665 C663 1.327 . S
C666 C654 1.349 . S
C666 H660 0.950 . S
C666 C667 1.327 . S
C667 H661 0.950 . S
C667 C666 1.327 . S
C667 C671 1.429 . S
C668 C651 1.574 . S
C668 H662 0.949 . S
C668 C672 1.368 1_455 S
C669 C650 1.429 1_455 S
C669 C663 1.429 . S
C669 C670 1.523 . S
C670 C651 1.368 . S
C670 C664 1.368 1_455 S
C670 C669 1.523 . S
C671 C655 1.429 1_655 S
C671 C667 1.429 . S
C671 C672 1.523 . S
C672 C656 1.368 . S
C672 C668 1.368 1_655 S
C672 C671 1.523 . S
H673 C648 0.950 . S
H674 C650 0.950 . S
H675 C651 0.949 . S
H676 C653 0.950 . S
H677 C655 0.950 . S
C678 C679 1.349 1_545 S
C678 C680 1.327 . S
C678 H703 0.950 . S
C679 C678 1.349 1_565 S
C679 C695 1.349 . S
C680 C678 1.327 . S
C680 C699 1.429 1_545 S
C680 H704 0.950 . S
C681 C698 1.574 . S
C681 C700 1.368 . S
C681 H705 0.949 . S
H682 C686 0.949 . S
C683 C684 1.349 1_565 S
C683 C685 1.327 . S
C683 H706 0.950 . S
C684 C683 1.349 1_545 S
C684 C696 1.349 . S
C685 C683 1.327 . S
C685 C701 1.429 1_565 S
C685 H707 0.950 . S
C686 H682 0.949 . S
C686 C694 1.574 . S
C686 C702 1.368 . S
H687 C695 0.950 . S
H688 C693 0.950 . S
H689 C694 0.949 . S
H690 C696 0.950 . S
H691 C697 0.950 . S
H692 C698 0.949 . S
C693 H688 0.950 . S
C693 C695 1.327 . S
C693 C699 1.429 . S
C694 C686 1.574 . S
C694 H689 0.949 . S
C694 C700 1.368 1_545 S
C695 C679 1.349 . S
C695 H687 0.950 . S
C695 C693 1.327 . S
C696 C684 1.349 . S
C696 H690 0.950 . S
C696 C697 1.327 . S
C697 H691 0.950 . S
C697 C696 1.327 . S
C697 C701 1.429 . S
C698 C681 1.574 . S
C698 H692 0.949 . S
C698 C702 1.368 1_565 S
C699 C680 1.429 1_565 S
C699 C693 1.429 . S
C699 C700 1.523 . S
C700 C681 1.368 . S
C700 C694 1.368 1_565 S
C700 C699 1.523 . S
C701 C685 1.429 1_545 S
C701 C697 1.429 . S
C701 C702 1.523 . S
C702 C686 1.368 . S
C702 C698 1.368 1_545 S
C702 C701 1.523 . S
H703 C678 0.950 . S
H704 C680 0.950 . S
H705 C681 0.949 . S
H706 C683 0.950 . S
H707 C685 0.950 . S
C708 C709 1.349 . S
C708 C710 1.327 . S
C708 H733 0.950 . S
C709 C708 1.349 . S
C709 C725 1.349 . S
C710 C708 1.327 . S
C710 C729 1.429 . S
C710 H734 0.950 . S
C711 C728 1.574 . S
C711 C730 1.368 . S
C711 H735 0.949 . S
H712 C716 0.949 . S
C713 C714 1.349 . S
C713 C715 1.327 . S
C713 H736 0.950 . S
C714 C713 1.349 . S
C714 C726 1.349 . S
C715 C713 1.327 . S
C715 C731 1.429 . S
C715 H737 0.950 . S
C716 H712 0.949 . S
C716 C724 1.574 . S
C716 C732 1.368 . S
H717 C725 0.950 . S
H718 C723 0.950 . S
H719 C724 0.949 . S
H720 C726 0.950 . S
H721 C727 0.950 . S
H722 C728 0.949 . S
C723 H718 0.950 . S
C723 C725 1.327 . S
C723 C729 1.429 . S
C724 C716 1.574 . S
C724 H719 0.949 . S
C724 C730 1.368 . S
C725 C709 1.349 . S
C725 H717 0.950 . S
C725 C723 1.327 . S
C726 C714 1.349 . S
C726 H720 0.950 . S
C726 C727 1.327 . S
C727 H721 0.950 . S
C727 C726 1.327 . S
C727 C731 1.429 . S
C728 C711 1.574 . S
C728 H722 0.949 . S
C728 C732 1.368 . S
C729 C710 1.429 . S
C729 C723 1.429 . S
C729 C730 1.523 . S
C730 C711 1.368 . S
C730 C724 1.368 . S
C730 C729 1.523 . S
C731 C715 1.429 . S
C731 C727 1.429 . S
C731 C732 1.523 . S
C732 C716 1.368 . S
C732 C728 1.368 . S
C732 C731 1.523 . S
H733 C708 0.950 . S
H734 C710 0.950 . S
H735 C711 0.949 . S
H736 C713 0.950 . S
H737 C715 0.950 . S
C738 C739 1.349 . S
C738 C740 1.327 . S
C738 H763 0.950 . S
C739 C738 1.349 . S
C739 C755 1.349 . S
C740 C738 1.327 . S
C740 C759 1.429 . S
C740 H764 0.950 1_455 S
C741 C758 1.574 . S
C741 C760 1.368 . S
C741 H765 0.949 . S
H742 C746 0.949 . S
C743 C744 1.349 . S
C743 C745 1.327 . S
C743 H766 0.950 . S
C744 C743 1.349 . S
C744 C756 1.349 . S
C745 C743 1.327 . S
C745 C761 1.429 . S
C745 H767 0.950 1_655 S
C746 H742 0.949 . S
C746 C754 1.574 . S
C746 C762 1.368 . S
H747 C755 0.950 . S
H748 C753 0.950 . S
H749 C754 0.949 . S
H750 C756 0.950 . S
H751 C757 0.950 . S
H752 C758 0.949 . S
C753 H748 0.950 . S
C753 C755 1.327 . S
C753 C759 1.429 . S
C754 C746 1.574 . S
C754 H749 0.949 . S
C754 C760 1.368 1_655 S
C755 C739 1.349 . S
C755 H747 0.950 . S
C755 C753 1.327 . S
C756 C744 1.349 . S
C756 H750 0.950 . S
C756 C757 1.327 . S
C757 H751 0.950 . S
C757 C756 1.327 . S
C757 C761 1.429 . S
C758 C741 1.574 . S
C758 H752 0.949 . S
C758 C762 1.368 1_455 S
C759 C740 1.429 . S
C759 C753 1.429 . S
C759 C760 1.523 . S
C760 C741 1.368 . S
C760 C754 1.368 1_455 S
C760 C759 1.523 . S
C761 C745 1.429 . S
C761 C757 1.429 . S
C761 C762 1.523 . S
C762 C746 1.368 . S
C762 C758 1.368 1_655 S
C762 C761 1.523 . S
H763 C738 0.950 . S
H764 C740 0.950 1_655 S
H765 C741 0.949 . S
H766 C743 0.950 . S
H767 C745 0.950 1_455 S
C768 C769 1.349 . S
C768 C770 1.327 . S
C768 H793 0.950 . S
C769 C768 1.349 . S
C769 C785 1.349 . S
C770 C768 1.327 . S
C770 C789 1.429 . S
C770 H794 0.950 1_565 S
C771 C788 1.574 . S
C771 C790 1.368 . S
C771 H795 0.949 . S
H772 C776 0.949 . S
C773 C774 1.349 . S
C773 C775 1.327 . S
C773 H796 0.950 . S
C774 C773 1.349 . S
C774 C786 1.349 . S
C775 C773 1.327 . S
C775 C791 1.429 . S
C775 H797 0.950 1_545 S
C776 H772 0.949 . S
C776 C784 1.574 . S
C776 C792 1.368 . S
H777 C785 0.950 . S
H778 C783 0.950 . S
H779 C784 0.949 . S
H780 C786 0.950 . S
H781 C787 0.950 . S
H782 C788 0.949 . S
C783 H778 0.950 . S
C783 C785 1.327 . S
C783 C789 1.429 . S
C784 C776 1.574 . S
C784 H779 0.949 . S
C784 C790 1.368 1_545 S
C785 C769 1.349 . S
C785 H777 0.950 . S
C785 C783 1.327 . S
C786 C774 1.349 . S
C786 H780 0.950 . S
C786 C787 1.327 . S
C787 H781 0.950 . S
C787 C786 1.327 . S
C787 C791 1.429 . S
C788 C771 1.574 . S
C788 H782 0.949 . S
C788 C792 1.368 1_565 S
C789 C770 1.429 . S
C789 C783 1.429 . S
C789 C790 1.523 . S
C790 C771 1.368 . S
C790 C784 1.368 1_565 S
C790 C789 1.523 . S
C791 C775 1.429 . S
C791 C787 1.429 . S
C791 C792 1.523 . S
C792 C776 1.368 . S
C792 C788 1.368 1_545 S
C792 C791 1.523 . S
H793 C768 0.950 . S
H794 C770 0.950 1_545 S
H795 C771 0.949 . S
H796 C773 0.950 . S
H797 C775 0.950 1_565 S
C798 C799 1.349 . S
C798 C800 1.327 . S
C798 H823 0.950 . S
C799 C798 1.349 . S
C799 C815 1.349 . S
C800 C798 1.327 . S
C800 C819 1.429 . S
C800 H824 0.950 . S
C801 C818 1.574 . S
C801 C820 1.368 . S
C801 H825 0.949 . S
H802 C806 0.949 . S
C803 C804 1.349 . S
C803 C805 1.327 . S
C803 H826 0.950 . S
C804 C803 1.349 . S
C804 C816 1.349 . S
C805 C803 1.327 . S
C805 C821 1.429 . S
C805 H827 0.950 . S
C806 H802 0.949 . S
C806 C814 1.574 . S
C806 C822 1.368 . S
H807 C815 0.950 . S
H808 C813 0.950 . S
H809 C814 0.949 . S
H810 C816 0.950 . S
H811 C817 0.950 . S
H812 C818 0.949 . S
C813 H808 0.950 . S
C813 C815 1.327 . S
C813 C819 1.429 . S
C814 C806 1.574 . S
C814 H809 0.949 . S
C814 C820 1.368 . S
C815 C799 1.349 . S
C815 H807 0.950 . S
C815 C813 1.327 . S
C816 C804 1.349 . S
C816 H810 0.950 . S
C816 C817 1.327 . S
C817 H811 0.950 . S
C817 C816 1.327 . S
C817 C821 1.429 . S
C818 C801 1.574 . S
C818 H812 0.949 . S
C818 C822 1.368 . S
C819 C800 1.429 . S
C819 C813 1.429 . S
C819 C820 1.523 . S
C820 C801 1.368 . S
C820 C814 1.368 . S
C820 C819 1.523 . S
C821 C805 1.429 . S
C821 C817 1.429 . S
C821 C822 1.523 . S
C822 C806 1.368 . S
C822 C818 1.368 . S
C822 C821 1.523 . S
H823 C798 0.950 . S
H824 C800 0.950 . S
H825 C801 0.949 . S
H826 C803 0.950 . S
H827 C805 0.950 . S
C828 C829 1.349 . S
C828 C830 1.327 . S
C828 H853 0.950 . S
C829 C828 1.349 . S
C829 C845 1.349 . S
C830 C828 1.327 . S
C830 C849 1.429 . S
C830 H854 0.950 1_655 S
C831 C848 1.574 . S
C831 C850 1.368 . S
C831 H855 0.949 . S
H832 C836 0.949 . S
C833 C834 1.349 . S
C833 C835 1.327 . S
C833 H856 0.950 . S
C834 C833 1.349 . S
C834 C846 1.349 . S
C835 C833 1.327 . S
C835 C851 1.429 . S
C835 H857 0.950 1_455 S
C836 H832 0.949 . S
C836 C844 1.574 . S
C836 C852 1.368 . S
H837 C845 0.950 . S
H838 C843 0.950 . S
H839 C844 0.949 . S
H840 C846 0.950 . S
H841 C847 0.950 . S
H842 C848 0.949 . S
C843 H838 0.950 . S
C843 C845 1.327 . S
C843 C849 1.429 . S
C844 C836 1.574 . S
C844 H839 0.949 . S
C844 C850 1.368 1_455 S
C845 C829 1.349 . S
C845 H837 0.950 . S
C845 C843 1.327 . S
C846 C834 1.349 . S
C846 H840 0.950 . S
C846 C847 1.327 . S
C847 H841 0.950 . S
C847 C846 1.327 . S
C847 C851 1.429 . S
C848 C831 1.574 . S
C848 H842 0.949 . S
C848 C852 1.368 1_655 S
C849 C830 1.429 . S
C849 C843 1.429 . S
C849 C850 1.523 . S
C850 C831 1.368 . S
C850 C844 1.368 1_655 S
C850 C849 1.523 . S
C851 C835 1.429 . S
C851 C847 1.429 . S
C851 C852 1.523 . S
C852 C836 1.368 . S
C852 C848 1.368 1_455 S
C852 C851 1.523 . S
H853 C828 0.950 . S
H854 C830 0.950 1_455 S
H855 C831 0.949 . S
H856 C833 0.950 . S
H857 C835 0.950 1_655 S
C858 C859 1.349 . S
C858 C860 1.327 . S
C858 H883 0.950 . S
C859 C858 1.349 . S
C859 C875 1.349 . S
C860 C858 1.327 . S
C860 C879 1.429 . S
C860 H884 0.950 1_545 S
C861 C878 1.574 . S
C861 C880 1.368 . S
C861 H885 0.949 . S
H862 C866 0.949 . S
C863 C864 1.349 . S
C863 C865 1.327 . S
C863 H886 0.950 . S
C864 C863 1.349 . S
C864 C876 1.349 . S
C865 C863 1.327 . S
C865 C881 1.429 . S
C865 H887 0.950 1_565 S
C866 H862 0.949 . S
C866 C874 1.574 . S
C866 C882 1.368 . S
H867 C875 0.950 . S
H868 C873 0.950 . S
H869 C874 0.949 . S
H870 C876 0.950 . S
H871 C877 0.950 . S
H872 C878 0.949 . S
C873 H868 0.950 . S
C873 C875 1.327 . S
C873 C879 1.429 . S
C874 C866 1.574 . S
C874 H869 0.949 . S
C874 C880 1.368 1_565 S
C875 C859 1.349 . S
C875 H867 0.950 . S
C875 C873 1.327 . S
C876 C864 1.349 . S
C876 H870 0.950 . S
C876 C877 1.327 . S
C877 H871 0.950 . S
C877 C876 1.327 . S
C877 C881 1.429 . S
C878 C861 1.574 . S
C878 H872 0.949 . S
C878 C882 1.368 1_545 S
C879 C860 1.429 . S
C879 C873 1.429 . S
C879 C880 1.523 . S
C880 C861 1.368 . S
C880 C874 1.368 1_545 S
C880 C879 1.523 . S
C881 C865 1.429 . S
C881 C877 1.429 . S
C881 C882 1.523 . S
C882 C866 1.368 . S
C882 C878 1.368 1_565 S
C882 C881 1.523 . S
H883 C858 0.950 . S
H884 C860 0.950 1_565 S
H885 C861 0.949 . S
H886 C863 0.950 . S
H887 C865 0.950 1_545 S
C169 C0 1.478 . S
C174 C126 1.478 . S
C199 C14 1.478 . S
C204 C140 1.478 . S
C229 C28 1.478 . S
C234 C154 1.478 . S
C259 C42 1.478 . S
C264 C84 1.478 . S
C289 C98 1.478 . S
C294 C56 1.478 . S
C319 C112 1.478 . S
C324 C70 1.478 . S
C349 C151 1.541 . S
C354 C11 1.541 . S
C379 C25 1.540 . S
C384 C165 1.540 . S
C409 C39 1.541 . S
C414 C95 1.541 . S
C439 C53 1.541 . S
C444 C109 1.541 . S
C469 C67 1.540 . S
C474 C123 1.540 . S
C499 C81 1.541 . S
C504 C137 1.541 . S
C529 C135 0.503 . S
C534 C9 0.510 . S
C559 C23 0.503 . S
C564 C149 0.510 . S
C589 C37 0.503 . S
C594 C163 0.503 . S
C619 C93 0.503 . S
C624 C51 0.510 . S
C649 C65 0.503 . S
C654 C107 0.510 . S
C679 C121 0.503 . S
C684 C79 0.503 . S
C709 C5 1.509 . S
C714 C47 1.509 . S
C739 C61 1.509 . S
C744 C19 1.509 . S
C769 C33 1.509 . S
C774 C75 1.509 . S
C799 C89 1.509 . S
C804 C131 1.509 . S
C829 C103 1.509 . S
C834 C145 1.509 . S
C859 C159 1.509 . S
C864 C117 1.509 . S
