# Generated by pormake.
# Topology why, (6)-cn, num edge types: 1
# Building blocks:
#     Node 0, Type 0, BuildingBlock: FUNLAD_clean_sbu_0, # of connection points: 6
#     Node 1, Type 0, BuildingBlock: FUNLAD_clean_sbu_0, # of connection points: 6
#     Node 2, Type 0, BuildingBlock: FUNLAD_clean_sbu_0, # of connection points: 6
#     Node 3, Type 0, BuildingBlock: FUNLAD_clean_sbu_0, # of connection points: 6
#     Node 4, Type 0, BuildingBlock: FUNLAD_clean_sbu_0, # of connection points: 6
#     Node 5, Type 0, BuildingBlock: FUNLAD_clean_sbu_0, # of connection points: 6
#     Node 6, Type 0, BuildingBlock: FUNLAD_clean_sbu_0, # of connection points: 6
#     Node 7, Type 0, BuildingBlock: FUNLAD_clean_sbu_0, # of connection points: 6
#     Node 8, Type 0, BuildingBlock: FUNLAD_clean_sbu_0, # of connection points: 6
#     Node 9, Type 0, BuildingBlock: FUNLAD_clean_sbu_0, # of connection points: 6
#     Node 10, Type 0, BuildingBlock: FUNLAD_clean_sbu_0, # of connection points: 6
#     Node 11, Type 0, BuildingBlock: FUNLAD_clean_sbu_0, # of connection points: 6
#     Node 12, Type 0, BuildingBlock: FUNLAD_clean_sbu_0, # of connection points: 6
#     Node 13, Type 0, BuildingBlock: FUNLAD_clean_sbu_0, # of connection points: 6
#     Node 14, Type 0, BuildingBlock: FUNLAD_clean_sbu_0, # of connection points: 6
#     Node 15, Type 0, BuildingBlock: FUNLAD_clean_sbu_0, # of connection points: 6
#     Edge 16, Type (0, 0), BuildingBlock: ZUJKAS_clean_linker_0, # of connection points: 2
#     Edge 17, Type (0, 0), BuildingBlock: ZUJKAS_clean_linker_0, # of connection points: 2
#     Edge 18, Type (0, 0), BuildingBlock: ZUJKAS_clean_linker_0, # of connection points: 2
#     Edge 19, Type (0, 0), BuildingBlock: ZUJKAS_clean_linker_0, # of connection points: 2
#     Edge 20, Type (0, 0), BuildingBlock: ZUJKAS_clean_linker_0, # of connection points: 2
#     Edge 21, Type (0, 0), BuildingBlock: ZUJKAS_clean_linker_0, # of connection points: 2
#     Edge 22, Type (0, 0), BuildingBlock: ZUJKAS_clean_linker_0, # of connection points: 2
#     Edge 23, Type (0, 0), BuildingBlock: ZUJKAS_clean_linker_0, # of connection points: 2
#     Edge 24, Type (0, 0), BuildingBlock: ZUJKAS_clean_linker_0, # of connection points: 2
#     Edge 25, Type (0, 0), BuildingBlock: ZUJKAS_clean_linker_0, # of connection points: 2
#     Edge 26, Type (0, 0), BuildingBlock: ZUJKAS_clean_linker_0, # of connection points: 2
#     Edge 27, Type (0, 0), BuildingBlock: ZUJKAS_clean_linker_0, # of connection points: 2
#     Edge 28, Type (0, 0), BuildingBlock: ZUJKAS_clean_linker_0, # of connection points: 2
#     Edge 29, Type (0, 0), BuildingBlock: ZUJKAS_clean_linker_0, # of connection points: 2
#     Edge 30, Type (0, 0), BuildingBlock: ZUJKAS_clean_linker_0, # of connection points: 2
#     Edge 31, Type (0, 0), BuildingBlock: ZUJKAS_clean_linker_0, # of connection points: 2
#     Edge 32, Type (0, 0), BuildingBlock: ZUJKAS_clean_linker_0, # of connection points: 2
#     Edge 33, Type (0, 0), BuildingBlock: ZUJKAS_clean_linker_0, # of connection points: 2
#     Edge 34, Type (0, 0), BuildingBlock: ZUJKAS_clean_linker_0, # of connection points: 2
#     Edge 35, Type (0, 0), BuildingBlock: ZUJKAS_clean_linker_0, # of connection points: 2
#     Edge 36, Type (0, 0), BuildingBlock: ZUJKAS_clean_linker_0, # of connection points: 2
#     Edge 37, Type (0, 0), BuildingBlock: ZUJKAS_clean_linker_0, # of connection points: 2
#     Edge 38, Type (0, 0), BuildingBlock: ZUJKAS_clean_linker_0, # of connection points: 2
#     Edge 39, Type (0, 0), BuildingBlock: ZUJKAS_clean_linker_0, # of connection points: 2
#     Edge 40, Type (0, 0), BuildingBlock: ZUJKAS_clean_linker_0, # of connection points: 2
#     Edge 41, Type (0, 0), BuildingBlock: ZUJKAS_clean_linker_0, # of connection points: 2
#     Edge 42, Type (0, 0), BuildingBlock: ZUJKAS_clean_linker_0, # of connection points: 2
#     Edge 43, Type (0, 0), BuildingBlock: ZUJKAS_clean_linker_0, # of connection points: 2
#     Edge 44, Type (0, 0), BuildingBlock: ZUJKAS_clean_linker_0, # of connection points: 2
#     Edge 45, Type (0, 0), BuildingBlock: ZUJKAS_clean_linker_0, # of connection points: 2
#     Edge 46, Type (0, 0), BuildingBlock: ZUJKAS_clean_linker_0, # of connection points: 2
#     Edge 47, Type (0, 0), BuildingBlock: ZUJKAS_clean_linker_0, # of connection points: 2
#     Edge 48, Type (0, 0), BuildingBlock: ZUJKAS_clean_linker_0, # of connection points: 2
#     Edge 49, Type (0, 0), BuildingBlock: ZUJKAS_clean_linker_0, # of connection points: 2
#     Edge 50, Type (0, 0), BuildingBlock: ZUJKAS_clean_linker_0, # of connection points: 2
#     Edge 51, Type (0, 0), BuildingBlock: ZUJKAS_clean_linker_0, # of connection points: 2
#     Edge 52, Type (0, 0), BuildingBlock: ZUJKAS_clean_linker_0, # of connection points: 2
#     Edge 53, Type (0, 0), BuildingBlock: ZUJKAS_clean_linker_0, # of connection points: 2
#     Edge 54, Type (0, 0), BuildingBlock: ZUJKAS_clean_linker_0, # of connection points: 2
#     Edge 55, Type (0, 0), BuildingBlock: ZUJKAS_clean_linker_0, # of connection points: 2
#     Edge 56, Type (0, 0), BuildingBlock: ZUJKAS_clean_linker_0, # of connection points: 2
#     Edge 57, Type (0, 0), BuildingBlock: ZUJKAS_clean_linker_0, # of connection points: 2
#     Edge 58, Type (0, 0), BuildingBlock: ZUJKAS_clean_linker_0, # of connection points: 2
#     Edge 59, Type (0, 0), BuildingBlock: ZUJKAS_clean_linker_0, # of connection points: 2
#     Edge 60, Type (0, 0), BuildingBlock: ZUJKAS_clean_linker_0, # of connection points: 2
#     Edge 61, Type (0, 0), BuildingBlock: ZUJKAS_clean_linker_0, # of connection points: 2
#     Edge 62, Type (0, 0), BuildingBlock: ZUJKAS_clean_linker_0, # of connection points: 2
#     Edge 63, Type (0, 0), BuildingBlock: ZUJKAS_clean_linker_0, # of connection points: 2
# Relax obj value: 0.422
# Max RMSD: 0.182
# Mean RMSD: 0.182
data_MOF--net-why--node1-FUNLAD_clean_sbu_0--edge1-ZUJKAS_clean_linker_0
_symmetry_space_group_name_H-M    P1
_symmetry_Int_Tables_number       1
_symmetry_cell_setting            triclinic
loop_
_symmetry_equiv_pos_as_xyz
'x, y, z'
_cell_length_a     63.549238
_cell_length_b     63.559602
_cell_length_c     39.784249
_cell_angle_alpha  90.007325
_cell_angle_beta   90.008735
_cell_angle_gamma 89.981398
loop_
_atom_site_label
_atom_site_type_symbol
_atom_site_fract_x
_atom_site_fract_y
_atom_site_fract_z
_atom_type_partial_charge
C0 C 0.3293 0.21671 0.1378 0.0
N1 N 0.35796 0.15775 0.13762 0.0
C2 C 0.36546 0.16174 0.16902 0.0
C3 C 0.36891 0.14525 0.19151 0.0
C4 C 0.36446 0.12453 0.18155 0.0
C5 C 0.35658 0.12093 0.14909 0.0
C6 C 0.35346 0.13784 0.12742 0.0
Zn7 Zn 0.35303 0.18178 0.10504 0.0
C8 C 0.31198 0.1775 0.06998 0.0
N9 N 0.34178 0.23237 0.03757 0.0
C10 C 0.34652 0.25253 0.04616 0.0
C11 C 0.33551 0.22733 0.00588 0.0
C12 C 0.33502 0.24264 0.98084 0.0
C13 C 0.34104 0.26336 0.98845 0.0
C14 C 0.34622 0.26837 0.02185 0.0
Zn15 Zn 0.3467 0.20851 0.07076 0.0
O16 O 0.33776 0.19891 0.1431 0.0
C17 C 0.38794 0.2127 0.10562 0.0
O18 O 0.33089 0.22514 0.10895 0.0
H19 H 0.33186 0.21119 -0.00042 0.0
H20 H 0.36883 0.17773 0.1766 0.0
H21 H 0.3514 0.25616 0.07155 0.0
O22 O 0.38229 0.19523 0.11823 0.0
O23 O 0.37577 0.22203 0.08512 0.0
H24 H 0.34757 0.13504 0.10232 0.0
O25 O 0.36229 0.19129 0.03263 0.0
O26 O 0.36795 0.16462 0.06633 0.0
O27 O 0.31787 0.19471 0.0568 0.0
O28 O 0.32374 0.16853 0.09141 0.0
C29 C 0.36953 0.17291 0.03742 0.0
H30 H 0.37491 0.14865 0.2164 0.0
H31 H 0.35331 0.10515 0.14024 0.0
H32 H 0.33122 0.23796 0.95538 0.0
H33 H 0.35073 0.28421 0.02885 0.0
C34 C 0.52594 0.58101 0.39345 0.0
N35 N 0.5858 0.60786 0.38824 0.0
C36 C 0.58314 0.6157 0.41978 0.0
C37 C 0.60049 0.61869 0.44077 0.0
C38 C 0.62068 0.61344 0.42915 0.0
C39 C 0.62291 0.60526 0.39658 0.0
C40 C 0.60518 0.60262 0.37644 0.0
Zn41 Zn 0.56057 0.60345 0.35771 0.0
C42 C 0.56256 0.56193 0.3233 0.0
N43 N 0.50781 0.59313 0.29402 0.0
C44 C 0.48809 0.59902 0.30345 0.0
C45 C 0.51184 0.58615 0.26235 0.0
C46 C 0.49601 0.58607 0.23814 0.0
C47 C 0.4758 0.59329 0.24654 0.0
C48 C 0.47175 0.59921 0.27996 0.0
Zn49 Zn 0.53273 0.59754 0.32545 0.0
O50 O 0.54414 0.58891 0.39732 0.0
C51 C 0.53061 0.63913 0.35976 0.0
O52 O 0.51674 0.58271 0.36521 0.0
H53 H 0.52764 0.58164 0.25531 0.0
H54 H 0.56755 0.61965 0.42865 0.0
H55 H 0.48525 0.60446 0.3288 0.0
O56 O 0.54827 0.63322 0.37142 0.0
O57 O 0.52057 0.62705 0.34002 0.0
H58 H 0.60694 0.59648 0.35124 0.0
O59 O 0.54934 0.61212 0.28567 0.0
O60 O 0.57695 0.6176 0.31745 0.0
O61 O 0.54513 0.5682 0.31139 0.0
O62 O 0.57257 0.57365 0.34359 0.0
C63 C 0.56798 0.61898 0.28903 0.0
H64 H 0.59813 0.62494 0.46581 0.0
H65 H 0.63824 0.60136 0.38646 0.0
H66 H 0.49996 0.58167 0.21261 0.0
H67 H 0.45632 0.60469 0.28755 0.0
C68 C 0.16258 0.77502 0.63993 0.0
N69 N 0.13563 0.83514 0.63823 0.0
C70 C 0.13103 0.83178 0.67118 0.0
C71 C 0.12818 0.84877 0.69296 0.0
C72 C 0.12967 0.86944 0.68058 0.0
C73 C 0.1345 0.87233 0.64639 0.0
C74 C 0.13766 0.85494 0.62573 0.0
Zn75 Zn 0.13954 0.81036 0.60649 0.0
C76 C 0.18021 0.81278 0.57036 0.0
N77 N 0.14841 0.75836 0.54061 0.0
C78 C 0.14229 0.73852 0.54893 0.0
C79 C 0.15564 0.76295 0.50927 0.0
C80 C 0.15604 0.74753 0.48441 0.0
C81 C 0.14884 0.72717 0.49174 0.0
C82 C 0.14235 0.7226 0.52471 0.0
Zn83 Zn 0.1445 0.78273 0.57331 0.0
O84 O 0.15532 0.79344 0.64447 0.0
C85 C 0.10364 0.78054 0.60952 0.0
O86 O 0.15976 0.76594 0.61184 0.0
H87 H 0.16026 0.77884 0.50306 0.0
H88 H 0.12949 0.8159 0.68061 0.0
H89 H 0.13663 0.73524 0.57403 0.0
O90 O 0.11032 0.79776 0.62177 0.0
O91 O 0.11495 0.77064 0.58843 0.0
H92 H 0.14151 0.85728 0.59953 0.0
O93 O 0.12956 0.79997 0.53466 0.0
O94 O 0.12415 0.82705 0.56758 0.0
O95 O 0.17385 0.79526 0.5589 0.0
O96 O 0.16873 0.82287 0.5909 0.0
C97 C 0.12252 0.81847 0.53889 0.0
H98 H 0.12483 0.84566 0.71917 0.0
H99 H 0.13539 0.88786 0.63532 0.0
H100 H 0.16084 0.75186 0.45922 0.0
H101 H 0.13683 0.70704 0.53145 0.0
C102 C 0.96638 0.41118 0.8897 0.0
N103 N 0.90607 0.38495 0.8852 0.0
C104 C 0.9089 0.37611 0.91601 0.0
C105 C 0.89168 0.37253 0.93701 0.0
C106 C 0.87141 0.37819 0.92617 0.0
C107 C 0.86907 0.38763 0.89448 0.0
C108 C 0.88666 0.39078 0.87427 0.0
Zn109 Zn 0.93095 0.38961 0.85412 0.0
C110 C 0.92909 0.43138 0.82111 0.0
N111 N 0.98302 0.39981 0.78904 0.0
C112 C 0.00293 0.39334 0.79627 0.0
C113 C 0.97789 0.40723 0.75802 0.0
C114 C 0.99261 0.407 0.73219 0.0
C115 C 0.01282 0.39904 0.73826 0.0
C116 C 0.01826 0.39289 0.77102 0.0
Zn117 Zn 0.95872 0.39529 0.82166 0.0
O118 O 0.94818 0.40329 0.8938 0.0
C119 C 0.96073 0.35347 0.85479 0.0
O120 O 0.97524 0.4099 0.86111 0.0
H121 H 0.96198 0.41221 0.75267 0.0
H122 H 0.92451 0.37165 0.92416 0.0
H123 H 0.00663 0.38745 0.82109 0.0
O124 O 0.94305 0.35945 0.86625 0.0
O125 O 0.97105 0.36566 0.83558 0.0
H126 H 0.88478 0.39782 0.84971 0.0
O127 O 0.94174 0.38089 0.78242 0.0
O128 O 0.91378 0.37622 0.81366 0.0
O129 O 0.9461 0.42474 0.80822 0.0
O130 O 0.91924 0.41989 0.84188 0.0
C131 C 0.92291 0.37454 0.78541 0.0
H132 H 0.89417 0.36501 0.96111 0.0
H133 H 0.85379 0.39256 0.88534 0.0
H134 H 0.98794 0.41205 0.70727 0.0
H135 H 0.0337 0.38653 0.77651 0.0
C136 C 0.62193 0.81801 0.96056 0.0
N137 N 0.64649 0.75735 0.95577 0.0
C138 C 0.65395 0.76108 0.98726 0.0
C139 C 0.65422 0.74507 0.01115 0.0
C140 C 0.64665 0.72502 0.00264 0.0
C141 C 0.63996 0.72133 0.9695 0.0
C142 C 0.64004 0.73782 0.9463 0.0
Zn143 Zn 0.64263 0.78241 0.92448 0.0
C144 C 0.60121 0.78105 0.88933 0.0
N145 N 0.63362 0.83557 0.86141 0.0
C146 C 0.63926 0.85476 0.87355 0.0
C147 C 0.62553 0.83333 0.82996 0.0
C148 C 0.62253 0.85094 0.80953 0.0
C149 C 0.62801 0.87098 0.82161 0.0
C150 C 0.63668 0.87271 0.85395 0.0
Zn151 Zn 0.63749 0.81014 0.89166 0.0
O152 O 0.6286 0.79933 0.96427 0.0
C153 C 0.67885 0.81148 0.92674 0.0
O154 O 0.62328 0.82669 0.9319 0.0
H155 H 0.62121 0.8179 0.82083 0.0
H156 H 0.65886 0.77675 0.99436 0.0
H157 H 0.6457 0.85618 0.89861 0.0
O158 O 0.67236 0.79411 0.93854 0.0
O159 O 0.66729 0.82164 0.9064 0.0
H160 H 0.63421 0.73522 0.92109 0.0
O161 O 0.65206 0.79359 0.85224 0.0
O162 O 0.65704 0.76602 0.88453 0.0
O163 O 0.60778 0.79829 0.87706 0.0
O164 O 0.6127 0.77106 0.91005 0.0
C165 C 0.65929 0.77513 0.8563 0.0
H166 H 0.6592 0.7487 0.03653 0.0
H167 H 0.63415 0.70603 0.96188 0.0
H168 H 0.61558 0.84892 0.78489 0.0
H169 H 0.64146 0.88779 0.86407 0.0
C170 C 0.42383 0.37046 0.7046 0.0
N171 N 0.484 0.39643 0.70453 0.0
C172 C 0.47932 0.40328 0.73604 0.0
C173 C 0.49477 0.40372 0.76088 0.0
C174 C 0.51526 0.39697 0.7533 0.0
C175 C 0.51989 0.39082 0.72018 0.0
C176 C 0.50393 0.39069 0.69603 0.0
Zn177 Zn 0.45983 0.39258 0.67142 0.0
C178 C 0.46266 0.35175 0.63511 0.0
N179 N 0.40824 0.38367 0.60503 0.0
C180 C 0.38858 0.38858 0.61595 0.0
C181 C 0.41166 0.3764 0.57332 0.0
C182 C 0.39479 0.3736 0.55127 0.0
C183 C 0.37433 0.3785 0.56198 0.0
C184 C 0.37133 0.38615 0.59473 0.0
Zn185 Zn 0.43271 0.3875 0.63726 0.0
O186 O 0.44228 0.37751 0.70941 0.0
C187 C 0.42996 0.42831 0.67351 0.0
O188 O 0.41552 0.37222 0.67572 0.0
H189 H 0.42746 0.37269 0.56516 0.0
H190 H 0.46335 0.40764 0.74235 0.0
H191 H 0.38622 0.39424 0.6413 0.0
O192 O 0.44724 0.42187 0.68579 0.0
O193 O 0.42022 0.41686 0.65249 0.0
H194 H 0.50729 0.38533 0.67079 0.0
O195 O 0.44993 0.40307 0.59961 0.0
O196 O 0.47687 0.40795 0.63326 0.0
O197 O 0.44553 0.35823 0.62227 0.0
O198 O 0.47212 0.36313 0.65658 0.0
C199 C 0.46818 0.41056 0.60479 0.0
H200 H 0.49041 0.40827 0.78617 0.0
H201 H 0.53554 0.38567 0.71324 0.0
H202 H 0.39772 0.36774 0.52614 0.0
H203 H 0.35575 0.38976 0.60414 0.0
C204 C 0.87107 0.17804 0.45778 0.0
N205 N 0.84343 0.2372 0.45093 0.0
C206 C 0.83654 0.23352 0.48275 0.0
C207 C 0.83611 0.24972 0.50631 0.0
C208 C 0.84289 0.26994 0.49712 0.0
C209 C 0.84877 0.27358 0.46356 0.0
C210 C 0.84893 0.25687 0.44073 0.0
Zn211 Zn 0.84827 0.21185 0.42051 0.0
C212 C 0.88934 0.2144 0.38469 0.0
N213 N 0.85931 0.15795 0.35979 0.0
C214 C 0.85492 0.13867 0.37283 0.0
C215 C 0.86694 0.16014 0.32804 0.0
C216 C 0.87071 0.14242 0.30819 0.0
C217 C 0.8665 0.12229 0.32116 0.0
C218 C 0.85832 0.12059 0.35383 0.0
Zn219 Zn 0.85438 0.18366 0.38909 0.0
O220 O 0.86341 0.1964 0.46059 0.0
C221 C 0.81344 0.18107 0.42495 0.0
O222 O 0.86988 0.1686 0.42971 0.0
H223 H 0.87029 0.17565 0.31821 0.0
H224 H 0.83237 0.21775 0.49043 0.0
H225 H 0.84882 0.13729 0.3981 0.0
O226 O 0.81921 0.19898 0.43562 0.0
O227 O 0.82534 0.17096 0.40506 0.0
H228 H 0.85431 0.25943 0.41526 0.0
O229 O 0.83851 0.19878 0.34933 0.0
O230 O 0.8328 0.2268 0.38032 0.0
O231 O 0.88335 0.19671 0.37331 0.0
O232 O 0.87759 0.22435 0.40507 0.0
C233 C 0.8305 0.21699 0.35272 0.0
H234 H 0.83178 0.24608 0.53199 0.0
H235 H 0.85393 0.28899 0.45537 0.0
H236 H 0.87724 0.14445 0.28327 0.0
H237 H 0.85451 0.10542 0.36464 0.0
C238 C 0.06884 0.62171 0.20574 0.0
N239 N 0.0098 0.59358 0.20685 0.0
C240 C 0.01473 0.58827 0.23902 0.0
C241 C -0.0006 0.5888 0.26403 0.0
C242 C 0.97878 0.59491 0.25589 0.0
C243 C 0.97385 0.59907 0.22211 0.0
C244 C 0.9897 0.59831 0.19783 0.0
Zn245 Zn 0.03384 0.5976 0.17362 0.0
C246 C 0.02932 0.63756 0.13523 0.0
N247 N 0.08495 0.6073 0.10642 0.0
C248 C 0.10494 0.6059 0.11836 0.0
C249 C 0.08107 0.61134 0.07342 0.0
C250 C 0.09771 0.61411 0.05096 0.0
C251 C 0.11857 0.61314 0.06269 0.0
C252 C 0.122 0.60902 0.09699 0.0
Zn253 Zn 0.06064 0.60307 0.13898 0.0
O254 O 0.05042 0.61462 0.21058 0.0
C255 C 0.0652 0.56333 0.17747 0.0
O256 O 0.0774 0.61927 0.17719 0.0
H257 H 0.06504 0.6124 0.06445 0.0
H258 H 0.03083 0.58468 0.24571 0.0
H259 H 0.1077 0.60251 0.14462 0.0
O260 O 0.04808 0.56967 0.19044 0.0
O261 O 0.07402 0.57421 0.15472 0.0
H262 H 0.98615 0.60244 0.17207 0.0
O263 O 0.04374 0.58648 0.10189 0.0
O264 O 0.01768 0.58019 0.13664 0.0
O265 O 0.04702 0.63189 0.12341 0.0
O266 O 0.02003 0.62581 0.15637 0.0
C267 C 0.02611 0.57786 0.10791 0.0
H268 H 0.004 0.58576 0.28978 0.0
H269 H 0.95809 0.60364 0.21474 0.0
H270 H 0.0942 0.61692 0.02472 0.0
H271 H 0.13769 0.60857 0.10754 0.0
C272 C 0.82926 0.7196 0.64216 0.0
N273 N 0.85934 0.661 0.6398 0.0
C274 C 0.86292 0.66443 0.67305 0.0
C275 C 0.86577 0.64753 0.69495 0.0
C276 C 0.86537 0.62684 0.68242 0.0
C277 C 0.8618 0.62385 0.64785 0.0
C278 C 0.85857 0.64118 0.62703 0.0
Zn279 Zn 0.85471 0.6859 0.60847 0.0
C280 C 0.8148 0.68204 0.57049 0.0
N281 N 0.84428 0.73846 0.54426 0.0
C282 C 0.84914 0.75845 0.5537 0.0
C283 C 0.83801 0.73401 0.51235 0.0
C284 C 0.83733 0.74978 0.48809 0.0
C285 C 0.84325 0.77038 0.49663 0.0
C286 C 0.84875 0.77475 0.53013 0.0
Zn287 Zn 0.84883 0.71382 0.57626 0.0
O288 O 0.8375 0.70158 0.64632 0.0
C289 C 0.88895 0.71754 0.61411 0.0
O290 O 0.83196 0.72923 0.61452 0.0
H291 H 0.83439 0.71799 0.50526 0.0
H292 H 0.86352 0.68033 0.68271 0.0
H293 H 0.85405 0.76163 0.57923 0.0
O294 O 0.88312 0.69973 0.62527 0.0
O295 O 0.87732 0.72723 0.59324 0.0
H296 H 0.85556 0.63877 0.60056 0.0
O297 O 0.86544 0.69795 0.53786 0.0
O298 O 0.8715 0.6705 0.5697 0.0
O299 O 0.82054 0.69998 0.55991 0.0
O300 O 0.82636 0.67221 0.59128 0.0
C301 C 0.87329 0.67973 0.54157 0.0
H302 H 0.86812 0.6507 0.72141 0.0
H303 H 0.8618 0.60832 0.63671 0.0
H304 H 0.83333 0.74561 0.46248 0.0
H305 H 0.85327 0.79046 0.53779 0.0
C306 C 0.02314 0.08017 0.8942 0.0
N307 N 0.0828 0.10747 0.89289 0.0
C308 C 0.07975 0.1146 0.92477 0.0
C309 C 0.09677 0.11661 0.94673 0.0
C310 C 0.11701 0.11104 0.93574 0.0
C311 C 0.11965 0.10372 0.90274 0.0
C312 C 0.10226 0.10209 0.88162 0.0
Zn313 Zn 0.05799 0.10386 0.86126 0.0
C314 C 0.06069 0.06347 0.8238 0.0
N315 N 0.0061 0.09521 0.79529 0.0
C316 C 0.9862 0.1004 0.80478 0.0
C317 C 0.01054 0.08945 0.76314 0.0
C318 C 0.9949 0.08987 0.73863 0.0
C319 C 0.97447 0.09634 0.74722 0.0
C320 C 0.97004 0.10107 0.78099 0.0
Zn321 Zn 0.03064 0.09882 0.82769 0.0
O322 O 0.04096 0.08858 0.89956 0.0
C323 C 0.02793 0.13949 0.86465 0.0
O324 O 0.01452 0.0822 0.86555 0.0
H325 H 0.02649 0.08551 0.75607 0.0
H326 H 0.06409 0.11867 0.9332 0.0
H327 H 0.98304 0.10488 0.83052 0.0
O328 O 0.04567 0.13351 0.87593 0.0
O329 O 0.01788 0.12759 0.84464 0.0
H330 H 0.10433 0.09653 0.85615 0.0
O331 O 0.04723 0.11514 0.79004 0.0
O332 O 0.07503 0.11881 0.82207 0.0
O333 O 0.04377 0.07032 0.81089 0.0
O334 O 0.06996 0.0742 0.84625 0.0
C335 C 0.06598 0.12155 0.79395 0.0
H336 H 0.09412 0.12226 0.97206 0.0
H337 H 0.13507 0.09963 0.89313 0.0
H338 H -0.00086 0.08641 0.71285 0.0
H339 H 0.95444 0.10595 0.7887 0.0
C340 C 0.65998 0.27373 0.14022 0.0
N341 N 0.6341 0.33413 0.13857 0.0
C342 C 0.62618 0.33071 0.16986 0.0
C343 C 0.6235 0.34749 0.1921 0.0
C344 C 0.62919 0.36787 0.18201 0.0
C345 C 0.63743 0.37088 0.14964 0.0
C346 C 0.63973 0.35372 0.12821 0.0
Zn347 Zn 0.63826 0.30969 0.10642 0.0
C348 C 0.68013 0.31183 0.07322 0.0
N349 N 0.64826 0.2584 0.03972 0.0
C350 C 0.64219 0.23855 0.04802 0.0
C351 C 0.65577 0.26297 0.00855 0.0
C352 C 0.65649 0.24749 0.98378 0.0
C353 C 0.64936 0.2271 0.99109 0.0
C354 C 0.64261 0.22256 0.02394 0.0
Zn355 Zn 0.64396 0.28258 0.07256 0.0
O356 O 0.65248 0.29201 0.14516 0.0
C357 C 0.60203 0.28044 0.10592 0.0
O358 O 0.6581 0.26526 0.11146 0.0
H359 H 0.66043 0.27887 0.00243 0.0
H360 H 0.62193 0.31496 0.17758 0.0
H361 H 0.63633 0.23527 0.073 0.0
O362 O 0.6083 0.29758 0.11893 0.0
O363 O 0.61399 0.27066 0.08564 0.0
H364 H 0.64594 0.35607 0.10319 0.0
O365 O 0.63008 0.30046 0.03362 0.0
O366 O 0.62447 0.3273 0.06699 0.0
O367 O 0.6738 0.29475 0.06011 0.0
O368 O 0.66823 0.32157 0.09356 0.0
C369 C 0.62329 0.31905 0.03799 0.0
H370 H 0.61717 0.34455 0.21694 0.0
H371 H 0.64164 0.38641 0.14069 0.0
H372 H 0.66151 0.25178 0.95869 0.0
H373 H 0.63717 0.20698 0.03069 0.0
C374 C 0.46951 0.91103 0.39435 0.0
N375 N 0.40937 0.88504 0.38475 0.0
C376 C 0.41126 0.87664 0.41605 0.0
C377 C 0.39339 0.87306 0.43563 0.0
C378 C 0.37345 0.87819 0.4228 0.0
C379 C 0.37205 0.88717 0.39063 0.0
C380 C 0.39028 0.89042 0.37193 0.0
Zn381 Zn 0.43531 0.88965 0.35591 0.0
C382 C 0.43465 0.93159 0.32308 0.0
N383 N 0.48955 0.89995 0.29546 0.0
C384 C 0.50895 0.89318 0.3051 0.0
C385 C 0.48618 0.90799 0.26423 0.0
C386 C 0.50239 0.90845 0.2407 0.0
C387 C 0.52227 0.90045 0.24925 0.0
C388 C 0.52563 0.89326 0.28222 0.0
Zn389 Zn 0.46396 0.89542 0.32546 0.0
O390 O 0.45104 0.90354 0.39691 0.0
C391 C 0.46467 0.8534 0.35833 0.0
O392 O 0.47934 0.90935 0.36665 0.0
H393 H 0.47061 0.9131 0.25694 0.0
H394 H 0.42663 0.87252 0.42571 0.0
H395 H 0.51127 0.88689 0.33008 0.0
O396 O 0.44696 0.85961 0.36934 0.0
O397 O 0.47534 0.86545 0.33942 0.0
H398 H 0.38916 0.89715 0.34703 0.0
O399 O 0.44803 0.8817 0.28424 0.0
O400 O 0.41969 0.87612 0.31426 0.0
O401 O 0.45227 0.92523 0.31205 0.0
O402 O 0.42394 0.9197 0.34217 0.0
C403 C 0.42928 0.87496 0.28633 0.0
H404 H 0.39514 0.8659 0.46017 0.0
H405 H 0.35702 0.89165 0.37999 0.0
H406 H 0.49898 0.91381 0.21544 0.0
H407 H 0.54079 0.8871 0.28988 0.0
C408 C 0.12217 0.31603 0.45714 0.0
N409 N 0.14745 0.25569 0.45576 0.0
C410 C 0.15463 0.2602 0.48715 0.0
C411 C 0.15462 0.24483 0.51209 0.0
C412 C 0.14704 0.2246 0.50476 0.0
C413 C 0.14075 0.22005 0.47167 0.0
C414 C 0.14111 0.23593 0.44739 0.0
Zn415 Zn 0.14368 0.2801 0.4231 0.0
C416 C 0.10273 0.27801 0.38689 0.0
N417 N 0.1352 0.33231 0.35763 0.0
C418 C 0.13797 0.352 0.37018 0.0
C419 C 0.13027 0.32916 0.32473 0.0
C420 C 0.12791 0.34627 0.30305 0.0
C421 C 0.13028 0.36685 0.31549 0.0
C422 C 0.13535 0.36952 0.34963 0.0
Zn423 Zn 0.13887 0.30748 0.38931 0.0
O424 O 0.12873 0.29738 0.46163 0.0
C425 C 0.17967 0.30975 0.42532 0.0
O426 O 0.12412 0.32451 0.42844 0.0
H427 H 0.12817 0.31335 0.31526 0.0
H428 H 0.15943 0.27604 0.49338 0.0
H429 H 0.14208 0.35419 0.39631 0.0
O430 O 0.17313 0.29251 0.43759 0.0
O431 O 0.16829 0.31956 0.40429 0.0
H432 H 0.13551 0.23269 0.42224 0.0
O433 O 0.15401 0.29034 0.35124 0.0
O434 O 0.15889 0.26319 0.38445 0.0
O435 O 0.1094 0.29515 0.37437 0.0
O436 O 0.11405 0.2682 0.40807 0.0
C437 C 0.16135 0.272 0.35604 0.0
H438 H 0.15928 0.24915 0.53735 0.0
H439 H 0.13495 0.20459 0.46494 0.0
H440 H 0.12431 0.34335 0.27688 0.0
H441 H 0.13688 0.385 0.36073 0.0
C442 C 0.92379 0.87239 0.20882 0.0
N443 N 0.98465 0.89681 0.20517 0.0
C444 C 0.98048 0.90438 0.23645 0.0
C445 C 0.99619 0.90484 0.26085 0.0
C446 C 0.0164 0.89737 0.25307 0.0
C447 C 0.02054 0.89056 0.22012 0.0
C448 C 0.00433 0.89043 0.1964 0.0
Zn449 Zn 0.96001 0.89279 0.17308 0.0
C450 C 0.96137 0.85098 0.13934 0.0
N451 N 0.90748 0.88351 0.10891 0.0
C452 C 0.88798 0.88902 0.11988 0.0
C453 C 0.91056 0.87562 0.0775 0.0
C454 C 0.89354 0.87286 0.05578 0.0
C455 C 0.87324 0.87838 0.06651 0.0
C456 C 0.87057 0.88661 0.09898 0.0
Zn457 Zn 0.93233 0.8875 0.14027 0.0
O458 O 0.94254 0.8789 0.21261 0.0
C459 C 0.93095 0.92922 0.17396 0.0
O460 O 0.91517 0.8738 0.18012 0.0
H461 H 0.92624 0.87144 0.0693 0.0
H462 H 0.9647 0.90925 0.24297 0.0
H463 H 0.8859 0.89522 0.14497 0.0
O464 O 0.94819 0.92267 0.18621 0.0
O465 O 0.92077 0.91753 0.15382 0.0
H466 H 0.00728 0.88451 0.17135 0.0
O467 O 0.94955 0.9016 0.10104 0.0
O468 O 0.97691 0.90697 0.13358 0.0
O469 O 0.9441 0.85749 0.12709 0.0
O470 O 0.97156 0.86276 0.15938 0.0
C471 C 0.96796 0.90893 0.10518 0.0
H472 H 0.9922 0.90992 0.28605 0.0
H473 H 0.03597 0.88484 0.21304 0.0
H474 H 0.89624 0.86658 0.03084 0.0
H475 H 0.85512 0.89071 0.10842 0.0
C476 C 0.37112 0.67511 0.95894 0.0
N477 N 0.345 0.73502 0.95446 0.0
C478 C 0.3391 0.73131 0.98678 0.0
C479 C 0.33983 0.7474 0.01054 0.0
C480 C 0.34668 0.76754 0.00098 0.0
C481 C 0.35136 0.77125 0.96696 0.0
C482 C 0.35045 0.75465 0.944 0.0
Zn483 Zn 0.34894 0.70987 0.92335 0.0
C484 C 0.38995 0.71217 0.88703 0.0
N485 N 0.35863 0.65684 0.86018 0.0
C486 C 0.35372 0.63754 0.87264 0.0
C487 C 0.36642 0.65921 0.82856 0.0
C488 C 0.36991 0.64161 0.80829 0.0
C489 C 0.36531 0.62146 0.82077 0.0
C490 C 0.35688 0.61959 0.85325 0.0
Zn491 Zn 0.35441 0.68226 0.89036 0.0
O492 O 0.36426 0.69373 0.96247 0.0
C493 C 0.31339 0.68014 0.9264 0.0
O494 O 0.36921 0.66603 0.93066 0.0
H495 H 0.37018 0.67473 0.81919 0.0
H496 H 0.3349 0.71557 0.9946 0.0
H497 H 0.34749 0.63604 0.89781 0.0
O498 O 0.3199 0.6973 0.939 0.0
O499 O 0.32474 0.67043 0.90521 0.0
H500 H 0.35504 0.75724 0.91815 0.0
O501 O 0.33936 0.69845 0.85105 0.0
O502 O 0.33327 0.72555 0.8839 0.0
O503 O 0.38387 0.69457 0.87541 0.0
O504 O 0.37822 0.72208 0.90747 0.0
C505 C 0.33128 0.71653 0.85555 0.0
H506 H 0.33635 0.7437 0.03652 0.0
H507 H 0.35645 0.7866 0.95844 0.0
H508 H 0.37662 0.64373 0.7835 0.0
H509 H 0.35278 0.60438 0.86365 0.0
C510 C 0.56987 0.12098 0.70643 0.0
N511 N 0.50962 0.09509 0.706 0.0
C512 C 0.51421 0.08843 0.73765 0.0
C513 C 0.4986 0.08785 0.76222 0.0
C514 C 0.47803 0.09417 0.75418 0.0
C515 C 0.47353 0.10007 0.7209 0.0
C516 C 0.48966 0.10043 0.69707 0.0
Zn517 Zn 0.53384 0.09907 0.67311 0.0
C518 C 0.53091 0.14004 0.63696 0.0
N519 N 0.58531 0.10821 0.60663 0.0
C520 C 0.60495 0.10334 0.61776 0.0
C521 C 0.58199 0.11531 0.57481 0.0
C522 C 0.59891 0.1179 0.55281 0.0
C523 C 0.61934 0.11298 0.56371 0.0
C524 C 0.62225 0.10558 0.59662 0.0
Zn525 Zn 0.56079 0.10434 0.63874 0.0
O526 O 0.55147 0.11384 0.71138 0.0
C527 C 0.56364 0.06338 0.67462 0.0
O528 O 0.57796 0.11954 0.67735 0.0
H529 H 0.56621 0.11899 0.56649 0.0
H530 H 0.53019 0.08432 0.74425 0.0
H531 H 0.60723 0.0978 0.6432 0.0
O532 O 0.54635 0.06965 0.68707 0.0
O533 O 0.5733 0.07501 0.6538 0.0
H534 H 0.48638 0.10562 0.67172 0.0
O535 O 0.54362 0.08879 0.60095 0.0
O536 O 0.51675 0.08394 0.63472 0.0
O537 O 0.54795 0.13356 0.62383 0.0
O538 O 0.5216 0.12867 0.65863 0.0
C539 C 0.52537 0.08132 0.60621 0.0
H540 H 0.50289 0.0835 0.78763 0.0
H541 H 0.45783 0.10485 0.71356 0.0
H542 H 0.59605 0.12357 0.52755 0.0
H543 H 0.63779 0.10198 0.60619 0.0
H544 H 0.40429 0.25028 0.0849 0.0
H545 H 0.44055 0.2625 0.09109 0.0
H546 H 0.45584 0.20665 0.14758 0.0
H547 H 0.41951 0.19444 0.14209 0.0
H548 H 0.47454 0.24341 0.1733 0.0
H549 H 0.48752 0.23482 0.03594 0.0
H550 H 0.46591 0.2517 0.04681 0.0
H551 H 0.46473 0.22416 0.05691 0.0
C552 C 0.41529 0.2407 0.09898 0.0
C553 C 0.4091 0.22126 0.11264 0.0
C554 C 0.43601 0.24767 0.10237 0.0
C555 C 0.45092 0.23525 0.11918 0.0
C556 C 0.44456 0.21639 0.13434 0.0
H557 H 0.58523 0.2427 0.08723 0.0
H558 H 0.54889 0.23095 0.09408 0.0
C559 C 0.42381 0.20943 0.13112 0.0
C560 C 0.47338 0.24133 0.11932 0.0
H561 H 0.51504 0.25037 0.06729 0.0
C562 C 0.48345 0.24492 0.15018 0.0
C563 C 0.485 0.24289 0.0891 0.0
C564 C 0.47533 0.238 0.05531 0.0
C565 C 0.50485 0.2504 0.15159 0.0
C566 C 0.51627 0.25261 0.12128 0.0
C567 C 0.50622 0.24876 0.09049 0.0
C568 C 0.5387 0.2589 0.12057 0.0
C569 C 0.51509 0.25337 0.18546 0.0
C570 C 0.54506 0.27842 0.13352 0.0
C571 C 0.56587 0.28513 0.12985 0.0
C572 C 0.58059 0.27254 0.11273 0.0
C573 C 0.57426 0.25279 0.10045 0.0
C574 C 0.55351 0.24605 0.10435 0.0
H575 H 0.50608 0.2454 0.20572 0.0
H576 H 0.53144 0.2472 0.18549 0.0
H577 H 0.51568 0.27041 0.19144 0.0
H578 H 0.53379 0.28879 0.14546 0.0
H579 H 0.57023 0.30047 0.13943 0.0
H580 H 0.55031 0.67108 0.39349 0.0
H581 H 0.53797 0.70729 0.40017 0.0
H582 H 0.47996 0.69131 0.34998 0.0
H583 H 0.49229 0.65522 0.34263 0.0
H584 H 0.49952 0.72524 0.32227 0.0
H585 H 0.49396 0.73481 0.46059 0.0
H586 H 0.51894 0.72497 0.44647 0.0
H587 H 0.49564 0.70935 0.44058 0.0
C588 C 0.53479 0.67519 0.38437 0.0
C589 C 0.52233 0.66032 0.36735 0.0
C590 C 0.5277 0.69585 0.38841 0.0
C591 C 0.50797 0.70191 0.37587 0.0
C592 C 0.49522 0.68691 0.35993 0.0
H593 H 0.4442 0.8223 0.39288 0.0
H594 H 0.45519 0.7856 0.39925 0.0
C595 C 0.50231 0.66631 0.35573 0.0
C596 C 0.50146 0.72425 0.3763 0.0
H597 H 0.49197 0.76621 0.42775 0.0
C598 C 0.49775 0.73416 0.34535 0.0
C599 C 0.49904 0.73578 0.40646 0.0
C600 C 0.5019 0.72566 0.44045 0.0
C601 C 0.49197 0.75538 0.34366 0.0
C602 C 0.49027 0.76712 0.37372 0.0
C603 C 0.49358 0.75718 0.40476 0.0
C604 C 0.48475 0.78969 0.37312 0.0
C605 C 0.48748 0.765 0.3097 0.0
C606 C 0.49807 0.8042 0.35723 0.0
C607 C 0.49183 0.82511 0.3534 0.0
C608 C 0.4722 0.83189 0.36561 0.0
C609 C 0.45937 0.81754 0.38304 0.0
C610 C 0.46562 0.79659 0.38677 0.0
H611 H 0.48446 0.75279 0.29029 0.0
H612 H 0.47366 0.77567 0.31091 0.0
H613 H 0.5013 0.77437 0.30155 0.0
H614 H 0.51307 0.7992 0.34704 0.0
H615 H 0.50217 0.83581 0.34014 0.0
H616 H 0.08494 0.74397 0.58918 0.0
H617 H 0.04826 0.73356 0.59726 0.0
H618 H 0.03714 0.78965 0.65563 0.0
H619 H 0.07389 0.80006 0.64819 0.0
H620 H 0.01712 0.7533 0.68164 0.0
H621 H 0.00161 0.76456 0.54547 0.0
H622 H 0.02268 0.74658 0.55443 0.0
H623 H 0.02529 0.77388 0.56557 0.0
C624 C 0.07478 0.75398 0.60408 0.0
C625 C 0.08226 0.77297 0.61769 0.0
C626 C 0.05382 0.74804 0.60856 0.0
C627 C 0.03995 0.76106 0.62646 0.0
C628 C 0.0476 0.77946 0.64157 0.0
H629 H 0.90487 0.75626 0.5988 0.0
H630 H 0.94103 0.76839 0.60647 0.0
C631 C 0.06859 0.78538 0.63723 0.0
C632 C 0.01723 0.75613 0.62771 0.0
H633 H 0.97423 0.74931 0.57763 0.0
C634 C 0.00767 0.75248 0.65897 0.0
C635 C 0.00492 0.75551 0.59811 0.0
C636 C 0.01406 0.76053 0.564 0.0
C637 C 0.98614 0.74768 0.66132 0.0
C638 C 0.97404 0.74625 0.63155 0.0
C639 C 0.98356 0.75033 0.60041 0.0
C640 C 0.95156 0.7401 0.63166 0.0
C641 C 0.97652 0.74446 0.69559 0.0
C642 C 0.9454 0.72034 0.64389 0.0
C643 C 0.92469 0.71341 0.63975 0.0
C644 C 0.90989 0.72602 0.62287 0.0
C645 C 0.91592 0.74614 0.61181 0.0
C646 C 0.93657 0.7531 0.61617 0.0
H647 H 0.98601 0.75216 0.71557 0.0
H648 H 0.96023 0.75076 0.69659 0.0
H649 H 0.97592 0.72737 0.70117 0.0
H650 H 0.9568 0.70987 0.65526 0.0
H651 H 0.92057 0.69779 0.64842 0.0
H652 H 0.94092 0.32195 0.88934 0.0
H653 H 0.95326 0.2859 0.89777 0.0
H654 H 0.01113 0.30082 0.84643 0.0
H655 H -0.00121 0.33677 0.8373 0.0
H656 H 0.99223 0.26586 0.8215 0.0
H657 H -0.00284 0.2606 0.96042 0.0
H658 H 0.9721 0.26965 0.9454 0.0
H659 H 0.9952 0.28539 0.93845 0.0
C660 C 0.95639 0.31765 0.88022 0.0
C661 C 0.96885 0.33221 0.86253 0.0
C662 C 0.96348 0.29707 0.88529 0.0
C663 C 0.98322 0.29076 0.87311 0.0
C664 C 0.99588 0.30541 0.85616 0.0
H665 H 0.04778 0.17119 0.89888 0.0
H666 H 0.03642 0.20791 0.90348 0.0
C667 C 0.98879 0.32594 0.85095 0.0
C668 C 0.98992 0.26849 0.87534 0.0
H669 H -0.00065 0.22818 0.93014 0.0
C670 C 0.9939 0.25767 0.84527 0.0
C671 C 0.99225 0.25789 0.9064 0.0
C672 C 0.98916 0.26901 0.93954 0.0
C673 C -0.00019 0.23644 0.84533 0.0
C674 C 0.00137 0.22562 0.87629 0.0
C675 C -0.00216 0.2365 0.90646 0.0
C676 C 0.00693 0.20305 0.87747 0.0
C677 C 0.00456 0.22583 0.81223 0.0
C678 C 0.99372 0.18809 0.86246 0.0
C679 C 0.00016 0.16717 0.85966 0.0
C680 C 0.01989 0.16082 0.87205 0.0
C681 C 0.03253 0.1756 0.88895 0.0
C682 C 0.02608 0.19657 0.89163 0.0
H683 H 0.00765 0.23745 0.79195 0.0
H684 H 0.01842 0.21528 0.81448 0.0
H685 H 0.99083 0.21616 0.80458 0.0
H686 H 0.97871 0.19275 0.85191 0.0
H687 H 0.98996 0.15615 0.8468 0.0
H688 H 0.57861 0.7511 0.92227 0.0
H689 H 0.54292 0.73936 0.91014 0.0
H690 H 0.54055 0.78058 0.82402 0.0
H691 H 0.57608 0.79311 0.83693 0.0
H692 H 0.50624 0.78447 0.85867 0.0
H693 H 0.5203 0.69959 0.84219 0.0
H694 H 0.53055 0.70787 0.88197 0.0
H695 H 0.54158 0.71836 0.84369 0.0
C696 C 0.5706 0.7575 0.90052 0.0
C697 C 0.58014 0.773 0.88052 0.0
C698 C 0.55024 0.75062 0.89341 0.0
C699 C 0.5392 0.75869 0.86568 0.0
C700 C 0.54882 0.774 0.84539 0.0
H701 H 0.4156 0.70007 0.83528 0.0
H702 H 0.45112 0.7129 0.82296 0.0
C703 C 0.5691 0.78115 0.8528 0.0
C704 C 0.51707 0.75232 0.85971 0.0
H705 H 0.48484 0.70945 0.85889 0.0
C706 C 0.5016 0.76806 0.85805 0.0
C707 C 0.51095 0.73094 0.85795 0.0
C708 C 0.52679 0.71328 0.85614 0.0
C709 C 0.48014 0.76298 0.85696 0.0
C710 C 0.47398 0.74161 0.85882 0.0
C711 C 0.48949 0.72586 0.85815 0.0
C712 C 0.45177 0.73525 0.86404 0.0
C713 C 0.46434 0.78062 0.85411 0.0
C714 C 0.44032 0.74354 0.89117 0.0
C715 C 0.41998 0.73649 0.89791 0.0
C716 C 0.41085 0.72061 0.87817 0.0
C717 C 0.42226 0.71233 0.85094 0.0
C718 C 0.44253 0.71964 0.84388 0.0
H719 H 0.47105 0.79416 0.84007 0.0
H720 H 0.44974 0.77543 0.84123 0.0
H721 H 0.46022 0.78629 0.87966 0.0
H722 H 0.44734 0.75505 0.90783 0.0
H723 H 0.41169 0.74302 0.91931 0.0
H724 H 0.49317 0.32974 0.6679 0.0
H725 H 0.50485 0.29392 0.65679 0.0
H726 H 0.46302 0.29038 0.57152 0.0
H727 H 0.45061 0.3261 0.58332 0.0
H728 H 0.45906 0.25675 0.60854 0.0
H729 H 0.54388 0.26977 0.58873 0.0
H730 H 0.536 0.28088 0.62814 0.0
H731 H 0.52524 0.29119 0.58955 0.0
C732 C 0.48664 0.32147 0.64649 0.0
C733 C 0.47097 0.33074 0.62647 0.0
C734 C 0.49348 0.30102 0.63998 0.0
C735 C 0.48516 0.28959 0.61287 0.0
C736 C 0.46977 0.29896 0.59243 0.0
H737 H 0.54193 0.16506 0.5839 0.0
H738 H 0.52922 0.20059 0.57155 0.0
C739 C 0.4627 0.31935 0.5992 0.0
C740 C 0.4913 0.2673 0.60783 0.0
H741 H 0.5339 0.23468 0.60688 0.0
C742 C 0.47542 0.25194 0.60752 0.0
C743 C 0.51261 0.26097 0.60566 0.0
C744 C 0.53035 0.27663 0.60264 0.0
C745 C 0.48032 0.23043 0.60725 0.0
C746 C 0.50167 0.22413 0.60848 0.0
C747 C 0.51752 0.23947 0.6066 0.0
C748 C 0.50795 0.20193 0.61401 0.0
C749 C 0.46253 0.21474 0.60591 0.0
C750 C 0.50022 0.19085 0.64193 0.0
C751 C 0.50721 0.17049 0.64875 0.0
C752 C 0.52247 0.16097 0.62823 0.0
C753 C 0.53017 0.17201 0.60019 0.0
C754 C 0.52292 0.1923 0.5931 0.0
H755 H 0.44869 0.22137 0.5925 0.0
H756 H 0.46734 0.19996 0.59316 0.0
H757 H 0.45746 0.21093 0.63189 0.0
H758 H 0.48919 0.19817 0.65909 0.0
H759 H 0.50114 0.16248 0.67075 0.0
H760 H 0.91129 0.24516 0.41698 0.0
H761 H 0.94735 0.25631 0.40636 0.0
H762 H 0.95095 0.21391 0.32181 0.0
H763 H 0.91505 0.20197 0.33327 0.0
H764 H 0.98402 0.20941 0.35898 0.0
H765 H 0.9732 0.29453 0.33922 0.0
H766 H 0.9618 0.28698 0.37857 0.0
H767 H 0.95129 0.27648 0.33992 0.0
C768 C 0.91963 0.23843 0.3958 0.0
C769 C 0.91034 0.22269 0.37595 0.0
C770 C 0.94022 0.24497 0.38956 0.0
C771 C 0.95177 0.23629 0.36284 0.0
C772 C 0.94232 0.22092 0.34245 0.0
H773 H 0.07775 0.28988 0.3342 0.0
H774 H 0.0418 0.27823 0.32222 0.0
C775 C 0.92181 0.21412 0.34901 0.0
C776 C 0.97425 0.24191 0.35827 0.0
H777 H 0.00796 0.28365 0.35765 0.0
C778 C 0.98923 0.22565 0.35805 0.0
C779 C 0.98113 0.26305 0.35624 0.0
C780 C 0.96595 0.2812 0.3531 0.0
C781 C 0.01086 0.22999 0.35785 0.0
C782 C 0.01771 0.25116 0.35914 0.0
C783 C 0.00276 0.2674 0.35731 0.0
C784 C 0.04011 0.25684 0.3645 0.0
C785 C 0.02609 0.21178 0.35641 0.0
C786 C 0.05113 0.24869 0.39219 0.0
C787 C 0.07174 0.25506 0.39876 0.0
C788 C 0.08156 0.27011 0.37824 0.0
C789 C 0.07057 0.27825 0.35046 0.0
C790 C 0.05004 0.27162 0.3436 0.0
H791 H 0.01909 0.19815 0.34295 0.0
H792 H 0.04098 0.21622 0.34365 0.0
H793 H 0.02979 0.20657 0.38236 0.0
H794 H 0.04361 0.23782 0.40936 0.0
H795 H 0.0797 0.24869 0.42058 0.0
H796 H 0.99017 0.65237 0.1504 0.0
H797 H 0.977 0.68816 0.14289 0.0
H798 H 0.03525 0.70579 0.09488 0.0
H799 H 0.04837 0.66988 0.10157 0.0
H800 H 0.99487 0.72182 0.17217 0.0
H801 H 0.9923 0.73385 0.03426 0.0
H802 H 0.99442 0.70809 0.05309 0.0
H803 H 0.01732 0.72451 0.04894 0.0
C804 C 3e-05 0.66375 0.13763 0.0
C805 C 0.02036 0.65833 0.12671 0.0
C806 C 0.99247 0.68419 0.13335 0.0
C807 C 0.00507 0.6996 0.11811 0.0
C808 C 0.02507 0.69405 0.10606 0.0
H809 H -0.00202 0.83264 0.1603 0.0
H810 H 0.00882 0.79606 0.15267 0.0
C811 C 0.03261 0.67354 0.1101 0.0
C812 C -0.0018 0.72186 0.11828 0.0
H813 H 0.98991 0.76481 0.0684 0.0
C814 C 0.99363 0.73116 0.14943 0.0
C815 C -0.00353 0.73398 0.08858 0.0
C816 C 0.00018 0.72456 0.05429 0.0
C817 C 0.98773 0.75233 0.15181 0.0
C818 C 0.98683 0.76468 0.12229 0.0
C819 C 0.99093 0.75533 0.09101 0.0
C820 C 0.98138 0.78727 0.12369 0.0
C821 C 0.9823 0.76124 0.18591 0.0
C822 C 0.9628 0.79459 0.1087 0.0
C823 C 0.9566 0.81553 0.11284 0.0
C824 C 0.96893 0.82947 0.13201 0.0
C825 C 0.98802 0.82227 0.14567 0.0
C826 C 0.99422 0.80137 0.14143 0.0
H827 H 0.9786 0.74864 0.20435 0.0
H828 H 0.99594 0.77027 0.19566 0.0
H829 H 0.96862 0.77206 0.18428 0.0
H830 H 0.95275 0.78394 0.09478 0.0
H831 H 0.94185 0.82061 0.10185 0.0
H832 H 0.14933 0.08339 0.94523 0.0
H833 H 0.18204 0.08955 0.97614 0.0
H834 H 0.15936 0.15069 0.00633 0.0
H835 H 0.12661 0.14457 0.97568 0.0
H836 H 0.20894 0.1208 0.95978 0.0
H837 H 0.18531 0.12908 0.09301 0.0
H838 H 0.16842 0.11726 0.06173 0.0
H839 H 0.16997 0.14544 0.06561 0.0
C840 C 0.15123 0.09801 0.95889 0.0
C841 C 0.13552 0.11357 0.95792 0.0
C842 C 0.16984 0.10145 0.97665 0.0
C843 C 0.17301 0.12046 0.99381 0.0
C844 C 0.15701 0.13569 0.99397 0.0
H845 H 0.28407 0.19195 0.02332 0.0
H846 H 0.25077 0.17595 0.00655 0.0
C847 C 0.13835 0.13222 0.97633 0.0
C848 C 0.19395 0.12552 0.0078 0.0
H849 H 0.21885 0.14412 0.07775 0.0
C850 C 0.21117 0.12557 0.98572 0.0
C851 C 0.19685 0.13154 0.0417 0.0
C852 C 0.17918 0.13063 0.06696 0.0
C853 C 0.23102 0.13244 0.99623 0.0
C854 C 0.23359 0.13976 0.02949 0.0
C855 C 0.21669 0.13874 0.0521 0.0
C856 C 0.25345 0.14953 0.04058 0.0
C857 C 0.24903 0.13212 0.9715 0.0
C858 C 0.26565 0.14016 0.06581 0.0
C859 C 0.2847 0.14928 0.07552 0.0
C860 C 0.2917 0.16798 0.06026 0.0
C861 C 0.27918 0.1775 0.03543 0.0
C862 C 0.2602 0.16835 0.02573 0.0
H863 H 0.24604 0.12098 0.95051 0.0
H864 H 0.25101 0.14808 0.96061 0.0
H865 H 0.26399 0.12767 0.98406 0.0
H866 H 0.26056 0.12567 0.07762 0.0
H867 H 0.29397 0.14162 0.09483 0.0
H868 H 0.5945 0.37643 0.22005 0.0
H869 H 0.58689 0.40888 0.25081 0.0
H870 H 0.64816 0.43309 0.22485 0.0
H871 H 0.65593 0.40065 0.19404 0.0
H872 H 0.60807 0.43181 0.30389 0.0
H873 H 0.60547 0.47449 0.18175 0.0
H874 H 0.60529 0.44616 0.18434 0.0
H875 H 0.62939 0.46041 0.19043 0.0
C876 C 0.60653 0.38847 0.22152 0.0
C877 C 0.6257 0.38616 0.20431 0.0
C878 C 0.60214 0.40698 0.23904 0.0
C879 C 0.61686 0.4234 0.23958 0.0
C880 C 0.6365 0.42066 0.2242 0.0
H881 H 0.59936 0.54358 0.34387 0.0
H882 H 0.61373 0.50963 0.32582 0.0
C883 C 0.64088 0.40219 0.20657 0.0
C884 C 0.61084 0.44402 0.25361 0.0
H885 H 0.59914 0.49435 0.23056 0.0
C886 C 0.60625 0.44557 0.28801 0.0
C887 C 0.60829 0.46177 0.23258 0.0
C888 C 0.61219 0.46071 0.19517 0.0
C889 C 0.59897 0.4645 0.30195 0.0
C890 C 0.59641 0.48221 0.28086 0.0
C891 C 0.60125 0.4807 0.24658 0.0
C892 C 0.58751 0.50218 0.29323 0.0
C893 C 0.59339 0.4653 0.33879 0.0
C894 C 0.56818 0.5092 0.28054 0.0
C895 C 0.55999 0.52854 0.29059 0.0
C896 C 0.57109 0.54125 0.31342 0.0
C897 C 0.59043 0.5341 0.32629 0.0
C898 C 0.59861 0.5147 0.31619 0.0
H899 H 0.59275 0.44936 0.3502 0.0
H900 H 0.60544 0.47463 0.3524 0.0
H901 H 0.57795 0.47314 0.34247 0.0
H902 H 0.55946 0.49973 0.26267 0.0
H903 H 0.54506 0.53358 0.28022 0.0
H904 H 0.36673 0.88383 0.49032 0.0
H905 H 0.33473 0.87558 0.52216 0.0
H906 H 0.30466 0.85427 0.43115 0.0
H907 H 0.33651 0.86211 0.3993 0.0
H908 H 0.28017 0.88275 0.47263 0.0
H909 H 0.31361 0.81451 0.54257 0.0
H910 H 0.328 0.83888 0.54401 0.0
H911 H 0.32577 0.82487 0.50504 0.0
C912 C 0.35334 0.87724 0.47717 0.0
C913 C 0.35413 0.87363 0.4423 0.0
C914 C 0.3351 0.87261 0.49536 0.0
C915 C 0.31747 0.86425 0.47893 0.0
C916 C 0.31814 0.86081 0.44416 0.0
H917 H 0.20887 0.79441 0.52866 0.0
H918 H 0.24263 0.80868 0.51034 0.0
C919 C 0.33631 0.86539 0.42602 0.0
C920 C 0.29823 0.85877 0.49767 0.0
H921 H 0.27784 0.82223 0.55132 0.0
C922 C 0.27964 0.86971 0.4902 0.0
C923 C 0.29774 0.84166 0.52032 0.0
C924 C 0.31727 0.82914 0.52845 0.0
C925 C 0.26034 0.86358 0.50412 0.0
C926 C 0.25978 0.84619 0.52623 0.0
C927 C 0.27846 0.83563 0.53445 0.0
C928 C 0.2397 0.83758 0.53867 0.0
C929 C 0.24057 0.87508 0.49391 0.0
C930 C 0.22705 0.8491 0.56091 0.0
C931 C 0.2077 0.84102 0.57142 0.0
C932 C 0.20078 0.82128 0.55983 0.0
C933 C 0.2137 0.80969 0.53794 0.0
C934 C 0.23302 0.81777 0.52753 0.0
H935 H 0.24332 0.88601 0.47256 0.0
H936 H 0.22808 0.86373 0.48668 0.0
H937 H 0.23467 0.88439 0.51555 0.0
H938 H 0.23211 0.86435 0.57001 0.0
H939 H 0.19813 0.85027 0.58843 0.0
H940 H 0.84822 0.58723 0.67828 0.0
H941 H 0.85757 0.55638 0.71096 0.0
H942 H 0.89894 0.59406 0.7724 0.0
H943 H 0.89133 0.62464 0.73766 0.0
H944 H 0.91841 0.56127 0.7554 0.0
H945 H 0.84082 0.53456 0.79943 0.0
H946 H 0.84025 0.53673 0.75459 0.0
H947 H 0.84443 0.55992 0.77994 0.0
C948 C 0.85944 0.58903 0.69855 0.0
C949 C 0.86917 0.60852 0.70494 0.0
C950 C 0.86439 0.57138 0.71782 0.0
C951 C 0.87862 0.57292 0.74468 0.0
C952 C 0.88778 0.59249 0.75196 0.0
H953 H 0.90256 0.45636 0.85754 0.0
H954 H 0.8909 0.49208 0.84361 0.0
C955 C 0.88323 0.61006 0.73219 0.0
C956 C 0.88562 0.5537 0.76266 0.0
H957 H 0.86787 0.50742 0.79554 0.0
C958 C 0.90731 0.54971 0.76479 0.0
C959 C 0.87128 0.53873 0.77572 0.0
C960 C 0.84793 0.54287 0.77764 0.0
C961 C 0.915 0.53073 0.77778 0.0
C962 C 0.90058 0.5149 0.78747 0.0
C963 C 0.87894 0.51934 0.78731 0.0
C964 C 0.9076 0.49336 0.7962 0.0
C965 C 0.93851 0.52792 0.78084 0.0
C966 C 0.92046 0.48207 0.77387 0.0
C967 C 0.92743 0.46192 0.78205 0.0
C968 C 0.92115 0.45242 0.81227 0.0
C969 C 0.90763 0.46336 0.83408 0.0
C970 C 0.90099 0.48374 0.82617 0.0
H971 H 0.94649 0.54328 0.78476 0.0
H972 H 0.94268 0.51732 0.80199 0.0
H973 H 0.94473 0.52111 0.75716 0.0
H974 H 0.9251 0.48882 0.75001 0.0
H975 H 0.93759 0.4537 0.76455 0.0
H976 H 0.70639 0.79465 0.97196 0.0
H977 H 0.74 0.80934 0.99033 0.0
H978 H 0.73163 0.86204 0.9234 0.0
H979 H 0.69794 0.84746 0.90465 0.0
H980 H 0.77323 0.84251 0.9229 0.0
H981 H 0.74448 0.86288 0.05065 0.0
H982 H 0.73938 0.83621 0.03807 0.0
H983 H 0.72694 0.8575 0.01598 0.0
C984 C 0.71169 0.80934 0.96105 0.0
C985 C 0.69946 0.81997 0.93701 0.0
C986 C 0.73085 0.81771 0.97165 0.0
C987 C 0.73805 0.83685 0.95846 0.0
C988 C 0.72619 0.84728 0.9339 0.0
H989 H 0.83995 0.90476 0.05604 0.0
H990 H 0.80754 0.89709 0.02517 0.0
C991 C 0.70697 0.83894 0.92332 0.0
C992 C 0.75788 0.84603 0.97083 0.0
H993 H 0.78147 0.86431 0.04194 0.0
C994 C 0.77506 0.84749 0.94882 0.0
C995 C 0.75998 0.85279 0.00448 0.0
C996 C 0.74168 0.85248 0.02865 0.0
C997 C 0.79466 0.85479 0.96008 0.0
C998 C 0.79704 0.8605 0.99421 0.0
C999 C 0.7796 0.85981 0.01581 0.0
C1000 C 0.81762 0.86624 0.00875 0.0
C1001 C 0.81265 0.85624 0.93546 0.0
C1002 C 0.83404 0.8515 0.00936 0.0
C1003 C 0.85251 0.85579 0.02705 0.0
C1004 C 0.85474 0.87483 0.04467 0.0
C1005 C 0.83853 0.88986 0.04304 0.0
C1006 C 0.8201 0.88556 0.02528 0.0
H1007 H 0.8069 0.85736 0.90914 0.0
H1008 H 0.82276 0.87007 0.9409 0.0
H1009 H 0.82247 0.84185 0.93751 0.0
H1010 H 0.83222 0.83629 0.99742 0.0
H1011 H 0.86462 0.84381 0.02824 0.0
H1012 H 0.38224 0.58455 0.84279 0.0
H1013 H 0.38975 0.55298 0.81008 0.0
H1014 H 0.36687 0.58354 0.72047 0.0
H1015 H 0.35889 0.61527 0.75323 0.0
H1016 H 0.3599 0.52901 0.76877 0.0
H1017 H 0.42805 0.56205 0.69806 0.0
H1018 H 0.41853 0.57383 0.73647 0.0
H1019 H 0.40384 0.57678 0.69829 0.0
C1020 C 0.37855 0.58453 0.81621 0.0
C1021 C 0.36988 0.60239 0.80062 0.0
C1022 C 0.38294 0.56651 0.79756 0.0
C1023 C 0.37892 0.56605 0.76296 0.0
C1024 C 0.37025 0.58376 0.74716 0.0
H1025 H 0.39278 0.44631 0.65392 0.0
H1026 H 0.37865 0.4805 0.6713 0.0
C1027 C 0.36578 0.60184 0.76586 0.0
C1028 C 0.38404 0.54687 0.74379 0.0
H1029 H 0.42049 0.52618 0.69026 0.0
C1030 C 0.37292 0.52838 0.75117 0.0
C1031 C 0.40112 0.54626 0.7211 0.0
C1032 C 0.41373 0.56571 0.71298 0.0
C1033 C 0.37893 0.50903 0.73727 0.0
C1034 C 0.39638 0.50832 0.71531 0.0
C1035 C 0.40705 0.52692 0.70703 0.0
C1036 C 0.40505 0.48814 0.70338 0.0
C1037 C 0.36727 0.48935 0.74744 0.0
C1038 C 0.42467 0.4814 0.71533 0.0
C1039 C 0.43276 0.46196 0.70555 0.0
C1040 C 0.4214 0.44896 0.68348 0.0
C1041 C 0.40186 0.45593 0.67108 0.0
C1042 C 0.39375 0.47541 0.68098 0.0
H1043 H 0.35607 0.49226 0.76837 0.0
H1044 H 0.35825 0.4833 0.7256 0.0
H1045 H 0.37853 0.47692 0.75527 0.0
H1046 H 0.43358 0.49107 0.73268 0.0
H1047 H 0.44788 0.45709 0.71544 0.0
H1048 H 0.62754 0.14691 0.52378 0.0
H1049 H 0.66004 0.15441 0.49319 0.0
H1050 H 0.68535 0.09439 0.5237 0.0
H1051 H 0.65287 0.08677 0.55437 0.0
H1052 H 0.71072 0.12771 0.54012 0.0
H1053 H 0.68673 0.13265 0.4064 0.0
H1054 H 0.67065 0.14831 0.43381 0.0
H1055 H 0.67066 0.12014 0.43808 0.0
C1056 C 0.63981 0.13508 0.52321 0.0
C1057 C 0.63776 0.11632 0.54161 0.0
C1058 C 0.65834 0.13935 0.50566 0.0
C1059 C 0.67499 0.12485 0.50595 0.0
C1060 C 0.67263 0.10574 0.52312 0.0
H1061 H 0.79546 0.14417 0.40431 0.0
H1062 H 0.76197 0.12913 0.42301 0.0
C1063 C 0.65415 0.10147 0.54075 0.0
C1064 C 0.69565 0.1307 0.49182 0.0
H1065 H 0.72006 0.14806 0.42064 0.0
C1066 C 0.71283 0.1319 0.5139 0.0
C1067 C 0.69835 0.13601 0.45758 0.0
C1068 C 0.68066 0.13403 0.4325 0.0
C1069 C 0.7325 0.13901 0.50291 0.0
C1070 C 0.73491 0.14534 0.46911 0.0
C1071 C 0.718 0.14339 0.44666 0.0
C1072 C 0.75475 0.15466 0.45704 0.0
C1073 C 0.75051 0.13987 0.52761 0.0
C1074 C 0.76149 0.17409 0.46973 0.0
C1075 C 0.78053 0.18274 0.45916 0.0
C1076 C 0.79312 0.17207 0.43565 0.0
C1077 C 0.78614 0.15272 0.42258 0.0
C1078 C 0.76703 0.14412 0.43312 0.0
H1079 H 0.74758 0.12973 0.54987 0.0
H1080 H 0.76546 0.13488 0.51555 0.0
H1081 H 0.75249 0.1563 0.53654 0.0
H1082 H 0.75201 0.18255 0.48791 0.0
H1083 H 0.78542 0.1977 0.46958 0.0
H1084 H 0.15039 0.40507 0.31762 0.0
H1085 H 0.14066 0.43712 0.2881 0.0
H1086 H 0.09402 0.4028 0.23153 0.0
H1087 H 0.10217 0.37106 0.26327 0.0
H1088 H 0.1401 0.45072 0.22646 0.0
H1089 H 0.05779 0.44671 0.27259 0.0
H1090 H 0.07789 0.42892 0.2871 0.0
H1091 H 0.065 0.42448 0.24738 0.0
C1092 C 0.13783 0.40431 0.29928 0.0
C1093 C 0.12666 0.38552 0.29366 0.0
C1094 C 0.1325 0.42264 0.28203 0.0
C1095 C 0.11617 0.4225 0.25832 0.0
C1096 C 0.10619 0.40342 0.25056 0.0
H1097 H 0.08901 0.53626 0.14041 0.0
H1098 H 0.10195 0.50159 0.15757 0.0
C1099 C 0.11114 0.38517 0.2684 0.0
C1100 C 0.10894 0.44259 0.24336 0.0
H1101 H 0.0659 0.47422 0.23518 0.0
C1102 C 0.12387 0.45589 0.22833 0.0
C1103 C 0.08782 0.44944 0.24633 0.0
C1104 C 0.07125 0.43675 0.26452 0.0
C1105 C 0.11837 0.47601 0.21678 0.0
C1106 C 0.09714 0.48263 0.21907 0.0
C1107 C 0.08215 0.46911 0.23335 0.0
C1108 C 0.09012 0.50386 0.20852 0.0
C1109 C 0.13552 0.49022 0.20362 0.0
C1110 C 0.07868 0.51642 0.23111 0.0
C1111 C 0.07072 0.53585 0.22102 0.0
C1112 C 0.0744 0.54325 0.18835 0.0
C1113 C 0.08622 0.53095 0.1659 0.0
C1114 C 0.09373 0.51123 0.17575 0.0
H1115 H 0.15128 0.48532 0.21287 0.0
H1116 H 0.13579 0.48938 0.17577 0.0
H1117 H 0.13281 0.50682 0.21113 0.0
H1118 H 0.0757 0.51108 0.25654 0.0
H1119 H 0.06171 0.5451 0.23882 0.0
H1120 H 0.62954 0.64812 0.46706 0.0
H1121 H 0.66246 0.65611 0.49628 0.0
H1122 H 0.68732 0.59556 0.46763 0.0
H1123 H 0.65441 0.58741 0.4384 0.0
H1124 H 0.68605 0.63487 0.54789 0.0
H1125 H 0.72802 0.63899 0.42528 0.0
H1126 H 0.69969 0.63879 0.4283 0.0
H1127 H 0.7143 0.61481 0.43354 0.0
C1128 C 0.64185 0.63634 0.46755 0.0
C1129 C 0.63953 0.61725 0.45013 0.0
C1130 C 0.66064 0.64094 0.48417 0.0
C1131 C 0.67735 0.62654 0.48359 0.0
C1132 C 0.67468 0.607 0.46781 0.0
H1133 H 0.79717 0.64446 0.58897 0.0
H1134 H 0.76377 0.62958 0.56942 0.0
C1135 C 0.65594 0.60241 0.4511 0.0
C1136 C 0.69801 0.63264 0.4974 0.0
H1137 H 0.74818 0.64481 0.47403 0.0
C1138 C 0.69971 0.63691 0.53188 0.0
C1139 C 0.71564 0.6355 0.47621 0.0
C1140 C 0.7144 0.63197 0.43872 0.0
C1141 C 0.71867 0.64416 0.54577 0.0
C1142 C 0.73629 0.64697 0.52455 0.0
C1143 C 0.73462 0.64247 0.49016 0.0
C1144 C 0.75627 0.65585 0.53698 0.0
C1145 C 0.71956 0.64943 0.58272 0.0
C1146 C 0.76317 0.67533 0.52471 0.0
C1147 C 0.7822 0.6838 0.53561 0.0
C1148 C 0.79473 0.67287 0.55891 0.0
C1149 C 0.78783 0.65327 0.57107 0.0
C1150 C 0.76872 0.64481 0.56011 0.0
H1151 H 0.70364 0.65012 0.59419 0.0
H1152 H 0.72879 0.63719 0.59605 0.0
H1153 H 0.72752 0.66478 0.58673 0.0
H1154 H 0.75376 0.68402 0.50672 0.0
H1155 H 0.78707 0.69892 0.52573 0.0
H1156 H 0.08492 0.03627 0.86002 0.0
H1157 H 0.09801 0.00181 0.84209 0.0
H1158 H 0.06992 0.01115 0.74437 0.0
H1159 H 0.0558 0.04494 0.76288 0.0
H1160 H 0.06177 0.97375 0.76519 0.0
H1161 H 0.14701 0.98782 0.78455 0.0
H1162 H 0.13193 0.99101 0.82229 0.0
H1163 H 0.12781 0.00862 0.78742 0.0
C1164 C 0.08167 0.03095 0.83467 0.0
C1165 C 0.0694 0.04319 0.81277 0.0
C1166 C 0.08928 0.01135 0.82437 0.0
C1167 C 0.0853 0.00404 0.79166 0.0
C1168 C 0.07321 0.01645 0.76973 0.0
H1169 H 0.14797 0.90857 0.67828 0.0
H1170 H 0.13717 0.94003 0.70848 0.0
C1171 C 0.06517 0.03574 0.78028 0.0
C1172 C 0.09291 0.98317 0.78037 0.0
H1173 H 0.13692 0.95303 0.77035 0.0
C1174 C 0.07823 0.96924 0.76626 0.0
C1175 C 0.11441 0.97735 0.78162 0.0
C1176 C 0.13122 0.99206 0.79447 0.0
C1177 C 0.08444 0.94995 0.75246 0.0
C1178 C 0.10585 0.94389 0.75439 0.0
C1179 C 0.12049 0.95759 0.76925 0.0
C1180 C 0.11362 0.92424 0.73865 0.0
C1181 C 0.06809 0.93683 0.73454 0.0
C1182 C 0.1045 0.90472 0.74631 0.0
C1183 C 0.11005 0.88679 0.72809 0.0
C1184 C 0.12534 0.8879 0.70253 0.0
C1185 C 0.13561 0.90719 0.69687 0.0
C1186 C 0.12967 0.9252 0.71451 0.0
H1187 H 0.05417 0.94637 0.72718 0.0
H1188 H 0.07468 0.92946 0.71153 0.0
H1189 H 0.06253 0.92419 0.75158 0.0
H1190 H 0.09258 0.90347 0.76564 0.0
H1191 H 0.10172 0.8723 0.73326 0.0
H1192 H 0.71028 0.29361 0.03406 0.0
H1193 H 0.74468 0.30792 0.01927 0.0
H1194 H 0.73202 0.36322 0.07876 0.0
H1195 H 0.69741 0.34909 0.09364 0.0
H1196 H 0.74585 0.37167 0.01322 0.0
H1197 H 0.79819 0.31442 0.07671 0.0
H1198 H 0.77825 0.30202 0.05161 0.0
H1199 H 0.77074 0.31744 0.08759 0.0
C1200 C 0.71484 0.30875 0.04423 0.0
C1201 C 0.70113 0.32023 0.06499 0.0
C1202 C 0.73458 0.31681 0.03599 0.0
C1203 C 0.74097 0.33643 0.04844 0.0
C1204 C 0.72739 0.34794 0.06923 0.0
H1205 H 0.86737 0.38223 0.99462 0.0
H1206 H 0.8362 0.37448 0.02883 0.0
C1207 C 0.70765 0.33986 0.07762 0.0
C1208 C 0.76119 0.3455 0.03743 0.0
H1209 H 0.8136 0.33455 0.03164 0.0
C1210 C 0.76074 0.3638 0.01776 0.0
C1211 C 0.78058 0.33535 0.04383 0.0
C1212 C 0.78206 0.31633 0.06639 0.0
C1213 C 0.77904 0.37144 0.00243 0.0
C1214 C 0.79811 0.36034 0.00671 0.0
C1215 C 0.79885 0.34287 0.02819 0.0
C1216 C 0.81687 0.36538 0.98651 0.0
C1217 C 0.77773 0.39095 0.98094 0.0
C1218 C 0.81629 0.36243 0.95164 0.0
C1219 C 0.83401 0.36656 0.93217 0.0
C1220 C 0.85268 0.37377 0.94722 0.0
C1221 C 0.85327 0.37655 0.98231 0.0
C1222 C 0.83549 0.37228 0.00185 0.0
H1223 H 0.76388 0.40075 0.98768 0.0
H1224 H 0.7922 0.40062 0.98345 0.0
H1225 H 0.77611 0.38626 0.95419 0.0
H1226 H 0.80215 0.35665 0.93952 0.0
H1227 H 0.83316 0.36377 0.90535 0.0
H1228 H 0.45371 0.96051 0.28272 0.0
H1229 H 0.44002 0.99471 0.26533 0.0
H1230 H 0.38386 0.98421 0.3238 0.0
H1231 H 0.39748 0.94996 0.34168 0.0
H1232 H 0.40181 0.00029 0.23011 0.0
H1233 H 0.40315 0.04434 0.35095 0.0
H1234 H 0.41828 0.02064 0.34424 0.0
H1235 H 0.39049 0.01903 0.35187 0.0
C1236 C 0.43852 0.96552 0.29213 0.0
C1237 C 0.42665 0.95253 0.31352 0.0
C1238 C 0.43075 0.98506 0.28221 0.0
C1239 C 0.41107 0.992 0.29361 0.0
C1240 C 0.39925 0.97923 0.31525 0.0
H1241 H 0.33975 0.09017 0.19325 0.0
H1242 H 0.3494 0.05828 0.22411 0.0
C1243 C 0.407 0.95964 0.32522 0.0
C1244 C 0.40242 0.01199 0.28087 0.0
H1245 H 0.38778 0.06157 0.30414 0.0
C1246 C 0.39868 0.01368 0.24626 0.0
C1247 C 0.39852 0.02937 0.30213 0.0
C1248 C 0.40294 0.02843 0.33936 0.0
C1249 C 0.3912 0.03241 0.23219 0.0
C1250 C 0.38706 0.04974 0.25345 0.0
C1251 C 0.39078 0.0481 0.2881 0.0
C1252 C 0.37987 0.06998 0.23951 0.0
C1253 C 0.38828 0.03368 0.19457 0.0
C1254 C 0.3935 0.0873 0.23928 0.0
C1255 C 0.38807 0.1055 0.22165 0.0
C1256 C 0.36892 0.10656 0.20405 0.0
C1257 C 0.35478 0.08961 0.20607 0.0
C1258 C 0.36021 0.07146 0.22375 0.0
H1259 H 0.39613 0.02045 0.1813 0.0
H1260 H 0.37124 0.03309 0.1886 0.0
H1261 H 0.39463 0.04873 0.18465 0.0
H1262 H 0.40876 0.08636 0.25134 0.0
H1263 H 0.39932 0.11827 0.22038 0.0
H1264 H 0.20717 0.29339 0.47109 0.0
H1265 H 0.24089 0.30812 0.48884 0.0
H1266 H 0.23252 0.36019 0.42067 0.0
H1267 H 0.19876 0.34554 0.40249 0.0
H1268 H 0.27386 0.34092 0.41996 0.0
H1269 H 0.24613 0.36176 0.54808 0.0
H1270 H 0.24112 0.33497 0.53611 0.0
H1271 H 0.2283 0.35601 0.51393 0.0
C1272 C 0.21248 0.30796 0.45982 0.0
C1273 C 0.20024 0.31838 0.43556 0.0
C1274 C 0.23171 0.31636 0.47005 0.0
C1275 C 0.23897 0.33533 0.45631 0.0
C1276 C 0.22706 0.34556 0.4316 0.0
H1277 H 0.3407 0.40442 0.55163 0.0
H1278 H 0.3083 0.39625 0.52108 0.0
C1279 C 0.20778 0.3372 0.42135 0.0
C1280 C 0.25891 0.34455 0.4682 0.0
H1281 H 0.28302 0.36331 0.53855 0.0
C1282 C 0.27588 0.34602 0.44579 0.0
C1283 C 0.26128 0.35145 0.50173 0.0
C1284 C 0.2432 0.35119 0.52633 0.0
C1285 C 0.29554 0.35352 0.45649 0.0
C1286 C 0.29818 0.35944 0.49049 0.0
C1287 C 0.28096 0.35866 0.51251 0.0
C1288 C 0.31882 0.36558 0.50445 0.0
C1289 C 0.31327 0.35503 0.43141 0.0
C1290 C 0.33553 0.35115 0.50473 0.0
C1291 C 0.35403 0.35577 0.52217 0.0
C1292 C 0.35597 0.37479 0.53991 0.0
C1293 C 0.33951 0.38954 0.53849 0.0
C1294 C 0.32107 0.38495 0.52095 0.0
H1295 H 0.30724 0.35602 0.40523 0.0
H1296 H 0.32331 0.36897 0.43645 0.0
H1297 H 0.32322 0.34074 0.43333 0.0
H1298 H 0.33391 0.33592 0.49281 0.0
H1299 H 0.36635 0.34401 0.5232 0.0
H1300 H 0.86018 0.11594 0.25362 0.0
H1301 H 0.86797 0.08409 0.22112 0.0
H1302 H 0.89051 0.05358 0.31095 0.0
H1303 H 0.88336 0.08533 0.34341 0.0
H1304 H 0.90875 0.06275 0.21626 0.0
H1305 H 0.84581 0.01251 0.27007 0.0
H1306 H 0.84515 0.04092 0.2721 0.0
H1307 H 0.86126 0.02624 0.30089 0.0
C1308 C 0.86693 0.1025 0.2664 0.0
C1309 C 0.87101 0.10312 0.30117 0.0
C1310 C 0.87122 0.08431 0.24785 0.0
C1311 C 0.87946 0.06648 0.26384 0.0
C1312 C 0.88373 0.06709 0.29837 0.0
H1313 H 0.95049 0.95925 0.21168 0.0
H1314 H 0.93666 0.99356 0.2282 0.0
C1315 C 0.87957 0.08523 0.31687 0.0
C1316 C 0.88437 0.04729 0.24456 0.0
H1317 H 0.87373 0.99476 0.24136 0.0
C1318 C 0.90091 0.04793 0.22127 0.0
C1319 C 0.87389 0.0281 0.25095 0.0
C1320 C 0.8554 0.02685 0.27463 0.0
C1321 C 0.90805 0.02952 0.20555 0.0
C1322 C 0.89847 0.01011 0.21366 0.0
C1323 C 0.88115 0.00968 0.23547 0.0
C1324 C 0.90712 0.98989 0.20178 0.0
C1325 C 0.92605 0.0309 0.18093 0.0
C1326 C 0.8949 0.97638 0.18191 0.0
C1327 C 0.90273 0.95671 0.17246 0.0
C1328 C 0.92281 0.95019 0.18314 0.0
C1329 C 0.93499 0.96382 0.20302 0.0
C1330 C 0.92719 0.98349 0.21227 0.0
H1331 H 0.92764 0.04702 0.17042 0.0
H1332 H 0.94095 0.02694 0.19405 0.0
H1333 H 0.92392 0.0196 0.1599 0.0
H1334 H 0.87929 0.98103 0.17388 0.0
H1335 H 0.89296 0.94654 0.15719 0.0
H1336 H 0.12047 0.64013 0.00873 0.0
H1337 H 0.15096 0.64848 0.97421 0.0
H1338 H 0.18868 0.60532 0.03239 0.0
H1339 H 0.15791 0.59528 0.06469 0.0
H1340 H 0.18369 0.66745 0.99275 0.0
H1341 H 0.21067 0.59136 0.94296 0.0
H1342 H 0.18529 0.59429 0.96268 0.0
H1343 H 0.20849 0.58937 0.98768 0.0
C1344 C 0.13503 0.63179 0.01345 0.0
C1345 C 0.13665 0.61707 0.03977 0.0
C1346 C 0.15255 0.63677 0.99383 0.0
C1347 C 0.17212 0.62738 0.00036 0.0
C1348 C 0.17368 0.61238 0.02612 0.0
H1349 H 0.29143 0.68753 0.98385 0.0
H1350 H 0.2564 0.67458 -0.00172 0.0
C1351 C 0.15608 0.60701 0.04519 0.0
C1352 C 0.19136 0.63493 0.98303 0.0
H1353 H 0.2378 0.61824 0.94934 0.0
C1354 C 0.19531 0.65667 0.98263 0.0
C1355 C 0.20641 0.62102 0.96908 0.0
C1356 C 0.20233 0.59775 0.96528 0.0
C1357 C 0.21431 0.66476 0.97041 0.0
C1358 C 0.23021 0.65067 0.95978 0.0
C1359 C 0.22582 0.62904 0.95831 0.0
C1360 C 0.25169 0.65798 0.95129 0.0
C1361 C 0.21704 0.68834 0.96906 0.0
C1362 C 0.26118 0.65201 0.92088 0.0
C1363 C 0.28148 0.65884 0.91308 0.0
C1364 C 0.29249 0.67196 0.93541 0.0
C1365 C 0.28314 0.67766 0.96602 0.0
C1366 C 0.26305 0.67044 0.97412 0.0
H1367 H 0.20165 0.69639 0.96576 0.0
H1368 H 0.22386 0.6939 0.99315 0.0
H1369 H 0.2276 0.69314 0.9482 0.0
H1370 H 0.25279 0.64226 0.90301 0.0
H1371 H 0.28835 0.65426 0.88926 0.0
H1372 H 0.60151 0.04644 0.65627 0.0
H1373 H 0.61576 0.01206 0.67224 0.0
H1374 H 0.55976 -0.00072 0.72994 0.0
H1375 H 0.54535 0.03348 0.71414 0.0
H1376 H 0.62308 -0.00202 0.73891 0.0
H1377 H 0.56728 0.94612 0.67113 0.0
H1378 H 0.57072 0.97358 0.66071 0.0
H1379 H 0.5545 0.96606 0.69574 0.0
C1380 C 0.59217 0.03625 0.6722 0.0
C1381 C 0.57229 0.04265 0.68394 0.0
C1382 C 0.60033 0.01664 0.68121 0.0
C1383 C 0.58863 0.00307 0.70173 0.0
C1384 C 0.56881 0.0094 0.71347 0.0
H1385 H 0.61335 0.90897 0.84325 0.0
H1386 H 0.60701 0.94054 0.81002 0.0
C1387 C 0.56069 0.02901 0.70464 0.0
C1388 C 0.59754 0.98281 0.71283 0.0
H1389 H 0.58678 0.9303 0.71638 0.0
C1390 C 0.6154 0.98311 0.73352 0.0
C1391 C 0.58763 0.96347 0.7053 0.0
C1392 C 0.56909 0.96219 0.68172 0.0
C1393 C 0.62281 0.96466 0.7487 0.0
C1394 C 0.61194 0.94559 0.74318 0.0
C1395 C 0.59493 0.94504 0.72076 0.0
C1396 C 0.6167 0.92656 0.76292 0.0
C1397 C 0.64184 0.9658 0.7713 0.0
C1398 C 0.6239 0.90818 0.74721 0.0
C1399 C 0.62772 0.89008 0.76622 0.0
C1400 C 0.62418 0.89009 0.80115 0.0
C1401 C 0.61672 0.90855 0.81658 0.0
C1402 C 0.61304 0.9266 0.79764 0.0
H1403 H 0.65167 0.9798 0.76559 0.0
H1404 H 0.63657 0.96701 0.79783 0.0
H1405 H 0.65167 0.95143 0.76882 0.0
H1406 H 0.62664 0.90789 0.72034 0.0
H1407 H 0.63362 0.87616 0.75364 0.0
H1408 H 0.38522 0.13276 0.03801 0.0
H1409 H 0.40053 0.11335 0.99077 0.0
H1410 H 0.39085 0.16701 0.92627 0.0
H1411 H 0.37533 0.18643 0.97304 0.0
H1412 H 0.3778 0.12782 0.89823 0.0
H1413 H 0.45917 0.12481 0.95015 0.0
H1414 H 0.43854 0.11501 0.97679 0.0
H1415 H 0.4394 0.14248 0.96643 0.0
C1416 C 0.38642 0.14045 0.01379 0.0
C1417 C 0.37918 0.16118 0.00931 0.0
C1418 C 0.39519 0.12935 0.98689 0.0
C1419 C 0.39696 0.13885 0.9552 0.0
C1420 C 0.38961 0.15944 0.95059 0.0
H1421 H 0.45001 0.12628 0.76244 0.0
H1422 H 0.42761 0.13306 0.81091 0.0
C1423 C 0.38083 0.17053 0.97739 0.0
C1424 C 0.40666 0.12758 0.92664 0.0
H1425 H 0.45376 0.10983 0.89693 0.0
C1426 C 0.39436 0.12367 0.89801 0.0
C1427 C 0.42821 0.12208 0.92662 0.0
C1428 C 0.44222 0.12639 0.95649 0.0
C1429 C 0.40322 0.11493 0.8689 0.0
C1430 C 0.42498 0.11032 0.86836 0.0
C1431 C 0.43706 0.11336 0.8975 0.0
C1432 C 0.43603 0.10441 0.83705 0.0
C1433 C 0.38929 0.11096 0.83887 0.0
C1434 C 0.44814 0.08598 0.83559 0.0
C1435 C 0.46099 0.08202 0.80779 0.0
C1436 C 0.46208 0.09654 0.78116 0.0
C1437 C 0.44926 0.11457 0.78218 0.0
C1438 C 0.43642 0.11848 0.80991 0.0
H1439 H 0.37263 0.10871 0.84652 0.0
H1440 H 0.38995 0.12479 0.82187 0.0
H1441 H 0.39455 0.0969 0.82459 0.0
H1442 H 0.44811 0.07498 0.85639 0.0
H1443 H 0.47051 0.06788 0.80758 0.0
H1444 H 0.55346 0.62308 0.22483 0.0
H1445 H 0.57216 0.63727 0.17633 0.0
H1446 H 0.62672 0.64882 0.2381 0.0
H1447 H 0.60804 0.6348 0.28706 0.0
H1448 H 0.61476 0.683 0.19857 0.0
H1449 H 0.61983 0.61044 0.12188 0.0
H1450 H 0.59363 0.61603 0.13614 0.0
H1451 H 0.61388 0.61005 0.16627 0.0
C1452 C 0.56946 0.62857 0.22816 0.0
C1453 C 0.57927 0.62781 0.25981 0.0
C1454 C 0.58019 0.63649 0.20032 0.0
C1455 C 0.60095 0.64367 0.20353 0.0
C1456 C 0.61077 0.64313 0.2351 0.0
H1457 H 0.6736 0.71456 0.05382 0.0
H1458 H 0.66574 0.69254 0.10279 0.0
C1459 C 0.60005 0.63518 0.26302 0.0
C1460 C 0.61185 0.65291 0.17423 0.0
H1461 H 0.62563 0.64303 0.09282 0.0
C1462 C 0.6175 0.67421 0.17561 0.0
C1463 C 0.61538 0.64133 0.1444 0.0
C1464 C 0.61055 0.61814 0.1421 0.0
C1465 C 0.62556 0.68458 0.14731 0.0
C1466 C 0.62838 0.67318 0.11709 0.0
C1467 C 0.62345 0.65168 0.11606 0.0
C1468 C 0.63464 0.68382 0.08562 0.0
C1469 C 0.62996 0.70789 0.14949 0.0
C1470 C 0.62016 0.68529 0.05913 0.0
C1471 C 0.62461 0.69777 0.03118 0.0
C1472 C 0.64365 0.70896 0.02925 0.0
C1473 C 0.65867 0.70638 0.05489 0.0
C1474 C 0.65422 0.69384 0.08283 0.0
H1475 H 0.62323 0.71503 0.1726 0.0
H1476 H 0.64722 0.71049 0.14982 0.0
H1477 H 0.62341 0.71623 0.12729 0.0
H1478 H 0.60497 0.67763 0.06086 0.0
H1479 H 0.61261 0.69959 0.01205 0.0
H1480 H 0.04219 0.8637 0.26344 0.0
H1481 H 0.06387 0.85654 0.31274 0.0
H1482 H 0.0476 0.91714 0.35398 0.0
H1483 H 0.02587 0.92455 0.30446 0.0
H1484 H 0.09793 0.87808 0.34487 0.0
H1485 H 0.02565 0.87436 0.42392 0.0
H1486 H 0.02461 0.87434 0.3786 0.0
H1487 H 0.02986 0.89833 0.40092 0.0
C1488 C 0.04364 0.87577 0.28252 0.0
C1489 C 0.03217 0.89463 0.28019 0.0
C1490 C 0.05596 0.8716 0.31077 0.0
C1491 C 0.057 0.88616 0.33717 0.0
C1492 C 0.04665 0.90556 0.33407 0.0
H1493 H 0.1062 0.85838 0.53861 0.0
H1494 H 0.09187 0.87765 0.49039 0.0
C1495 C 0.03427 0.90975 0.30582 0.0
C1496 C 0.06762 0.88019 0.36879 0.0
H1497 H 0.05767 0.86596 0.44998 0.0
C1498 C 0.08921 0.87566 0.36799 0.0
C1499 C 0.05614 0.87708 0.39887 0.0
C1500 C 0.03276 0.88111 0.40081 0.0
C1501 C 0.09957 0.86759 0.39632 0.0
C1502 C 0.0879 0.86365 0.42592 0.0
C1503 C 0.06652 0.86901 0.42718 0.0
C1504 C 0.09713 0.8524 0.45489 0.0
C1505 C 0.12285 0.86313 0.39422 0.0
C1506 C 0.10442 0.83173 0.45092 0.0
C1507 C 0.11249 0.82068 0.4783 0.0
C1508 C 0.11331 0.83006 0.51028 0.0
C1509 C 0.10578 0.85073 0.51429 0.0
C1510 C 0.09766 0.86177 0.48681 0.0
H1511 H 0.13051 0.87274 0.37436 0.0
H1512 H 0.13077 0.86629 0.41859 0.0
H1513 H 0.12524 0.8463 0.38779 0.0
H1514 H 0.10365 0.82404 0.42664 0.0
H1515 H 0.1181 0.80477 0.47435 0.0
H1516 H 0.81767 0.27954 0.55104 0.0
H1517 H 0.82739 0.30065 0.60016 0.0
H1518 H 0.88574 0.3177 0.55211 0.0
H1519 H 0.87649 0.29628 0.50346 0.0
H1520 H 0.88917 0.29662 0.61577 0.0
H1521 H 0.83424 0.36482 0.62061 0.0
H1522 H 0.82284 0.3393 0.61331 0.0
H1523 H 0.83973 0.35072 0.58214 0.0
C1524 C 0.83239 0.28812 0.5507 0.0
C1525 C 0.84637 0.28611 0.52345 0.0
C1526 C 0.83782 0.30031 0.57863 0.0
C1527 C 0.85723 0.31075 0.57961 0.0
C1528 C 0.87062 0.30983 0.55165 0.0
H1529 H 0.93809 0.37055 0.72177 0.0
H1530 H 0.92056 0.35516 0.67318 0.0
C1531 C 0.86523 0.29768 0.52376 0.0
C1532 C 0.86496 0.32016 0.61123 0.0
H1533 H 0.85763 0.36061 0.66647 0.0
C1534 C 0.88229 0.31062 0.62686 0.0
C1535 C 0.85569 0.33819 0.62579 0.0
C1536 C 0.83716 0.34902 0.60962 0.0
C1537 C 0.89083 0.3188 0.65652 0.0
C1538 C 0.88204 0.33724 0.67054 0.0
C1539 C 0.86433 0.3465 0.65548 0.0
C1540 C 0.89187 0.34761 0.69981 0.0
C1541 C 0.90921 0.30762 0.67264 0.0
C1542 C 0.88127 0.34894 0.73065 0.0
C1543 C 0.89125 0.35779 0.75865 0.0
C1544 C 0.91194 0.3655 0.75603 0.0
C1545 C 0.92224 0.36457 0.72478 0.0
C1546 C 0.91227 0.35577 0.69695 0.0
H1547 H 0.91034 0.29099 0.6642 0.0
H1548 H 0.92402 0.3157 0.66547 0.0
H1549 H 0.90792 0.3079 0.70047 0.0
H1550 H 0.86546 0.34277 0.7332 0.0
H1551 H 0.88287 0.35841 0.78233 0.0
H1552 H 0.60727 0.85854 0.96217 0.0
H1553 H 0.59463 0.87809 0.01128 0.0
H1554 H 0.60509 0.8236 0.07367 0.0
H1555 H 0.6179 0.80404 0.02505 0.0
H1556 H 0.56075 0.86794 0.05269 0.0
H1557 H 0.63484 0.87049 0.12585 0.0
H1558 H 0.63416 0.8642 0.08158 0.0
H1559 H 0.62799 0.84442 0.11239 0.0
C1560 C 0.60691 0.85074 0.98637 0.0
C1561 C 0.61361 0.82975 0.98973 0.0
C1562 C 0.59976 0.86195 0.01437 0.0
C1563 C 0.59937 0.85241 0.04616 0.0
C1564 C 0.60579 0.83141 0.04949 0.0
H1565 H 0.5469 0.86591 0.23917 0.0
H1566 H 0.56818 0.85788 0.18977 0.0
C1567 C 0.61291 0.82019 0.02159 0.0
C1568 C 0.59113 0.8639 0.07567 0.0
H1569 H 0.60301 0.87748 0.15649 0.0
C1570 C 0.57005 0.87041 0.07521 0.0
C1571 C 0.60339 0.86708 0.10491 0.0
C1572 C 0.62642 0.86137 0.10618 0.0
C1573 C 0.56052 0.87894 0.10392 0.0
C1574 C 0.57255 0.88134 0.13361 0.0
C1575 C 0.59386 0.87561 0.13366 0.0
C1576 C 0.56268 0.88787 0.16558 0.0
C1577 C 0.53736 0.88423 0.10278 0.0
C1578 C 0.55335 0.90775 0.16894 0.0
C1579 C 0.5412 0.91243 0.19725 0.0
C1580 C 0.53832 0.89731 0.22267 0.0
C1581 C 0.54896 0.87798 0.22024 0.0
C1582 C 0.56105 0.87331 0.19193 0.0
H1583 H 0.52958 0.87787 0.07993 0.0
H1584 H 0.52916 0.87792 0.12527 0.0
H1585 H 0.5354 0.90158 0.10272 0.0
H1586 H 0.55478 0.91933 0.1491 0.0
H1587 H 0.53344 0.92758 0.19869 0.0
H1588 H 0.38362 0.35477 0.70423 0.0
H1589 H 0.36485 0.33822 0.75115 0.0
H1590 H 0.41892 0.34755 0.81493 0.0
H1591 H 0.43781 0.3639 0.76844 0.0
H1592 H 0.40203 0.30563 0.81351 0.0
H1593 H 0.34102 0.36671 0.83808 0.0
H1594 H 0.34412 0.35781 0.7954 0.0
H1595 H 0.3649 0.37236 0.81515 0.0
C1596 C 0.39148 0.35334 0.72829 0.0
C1597 C 0.41222 0.36059 0.73261 0.0
C1598 C 0.38068 0.34404 0.75507 0.0
C1599 C 0.39046 0.34192 0.78648 0.0
C1600 C 0.4111 0.34916 0.79085 0.0
H1601 H 0.37368 0.29084 0.98159 0.0
H1602 H 0.3829 0.31131 0.93193 0.0
C1603 C 0.42187 0.35847 0.76423 0.0
C1604 C 0.37981 0.33118 0.81462 0.0
H1605 H 0.34065 0.33656 0.87281 0.0
C1606 C 0.38853 0.31231 0.82635 0.0
C1607 C 0.36213 0.33995 0.83107 0.0
C1608 C 0.35247 0.36039 0.81955 0.0
C1609 C 0.38032 0.30214 0.85462 0.0
C1610 C 0.36315 0.31127 0.87183 0.0
C1611 C 0.3539 0.32976 0.85952 0.0
C1612 C 0.35542 0.30206 0.90351 0.0
C1613 C 0.39022 0.28179 0.86619 0.0
C1614 C 0.33642 0.29092 0.90432 0.0
C1615 C 0.33096 0.27929 0.93284 0.0
C1616 C 0.34446 0.27871 0.9609 0.0
C1617 C 0.3628 0.2911 0.96064 0.0
C1618 C 0.3682 0.30269 0.93219 0.0
H1619 H 0.40015 0.27457 0.8463 0.0
H1620 H 0.40035 0.28494 0.88836 0.0
H1621 H 0.37796 0.2703 0.87383 0.0
H1622 H 0.32636 0.29038 0.88235 0.0
H1623 H 0.3166 0.27013 0.93247 0.0
H1624 H 0.94809 0.13 0.74205 0.0
H1625 H 0.92726 0.14039 0.6933 0.0
H1626 H 0.94572 0.08361 0.64181 0.0
H1627 H 0.96618 0.07273 0.69099 0.0
H1628 H 0.94807 0.14639 0.63098 0.0
H1629 H 0.88215 0.08923 0.61999 0.0
H1630 H 0.8962 0.09352 0.65889 0.0
H1631 H 0.90792 0.07814 0.62601 0.0
C1632 C 0.94713 0.11932 0.72089 0.0
C1633 C 0.95885 0.10056 0.72034 0.0
C1634 C 0.93534 0.12537 0.69295 0.0
C1635 C 0.93493 0.11274 0.66407 0.0
C1636 C 0.94563 0.09344 0.66405 0.0
H1637 H 0.8892 0.13894 0.46122 0.0
H1638 H 0.9051 0.12223 0.51066 0.0
C1639 C 0.95745 0.08735 0.69203 0.0
C1640 C 0.9256 0.12106 0.63278 0.0
H1641 H 0.88669 0.11326 0.57498 0.0
C1642 C 0.9346 0.13919 0.61877 0.0
C1643 C 0.90827 0.1114 0.61677 0.0
C1644 C 0.89791 0.09207 0.63121 0.0
C1645 C 0.92667 0.14806 0.58918 0.0
C1646 C 0.909 0.13874 0.57357 0.0
C1647 C 0.90021 0.12035 0.58715 0.0
C1648 C 0.89899 0.14847 0.54388 0.0
C1649 C 0.93738 0.16722 0.57471 0.0
C1650 C 0.89011 0.16859 0.54646 0.0
C1651 C 0.88116 0.17819 0.5184 0.0
C1652 C 0.88078 0.16776 0.48723 0.0
C1653 C 0.88938 0.14742 0.48483 0.0
C1654 C 0.89838 0.13782 0.51301 0.0
H1655 H 0.95377 0.16884 0.5841 0.0
H1656 H 0.93773 0.16657 0.54682 0.0
H1657 H 0.92855 0.18152 0.58229 0.0
H1658 H 0.89011 0.17689 0.57025 0.0
H1659 H 0.87449 0.19378 0.52122 0.0
H1660 H 0.17577 0.71851 0.43966 0.0
H1661 H 0.16822 0.69734 0.38959 0.0
H1662 H 0.10797 0.68018 0.43121 0.0
H1663 H 0.1153 0.70128 0.4811 0.0
H1664 H 0.12935 0.64669 0.39809 0.0
H1665 H 0.12524 0.71952 0.3204 0.0
H1666 H 0.14935 0.71513 0.34298 0.0
H1667 H 0.12549 0.72024 0.36573 0.0
C1668 C 0.16101 0.71003 0.43825 0.0
C1669 C 0.14604 0.71171 0.46419 0.0
C1670 C 0.15673 0.69799 0.40967 0.0
C1671 C 0.13739 0.68755 0.40652 0.0
C1672 C 0.12298 0.68817 0.43319 0.0
H1673 H 0.0552 0.62748 0.27 0.0
H1674 H 0.07471 0.64229 0.31715 0.0
C1675 C 0.12725 0.70015 0.46177 0.0
C1676 C 0.13133 0.67717 0.37472 0.0
H1677 H 0.11677 0.68767 0.29382 0.0
C1678 C 0.12683 0.65558 0.37516 0.0
C1679 C 0.12811 0.68885 0.34486 0.0
C1680 C 0.13213 0.71224 0.34329 0.0
C1681 C 0.11863 0.64543 0.34674 0.0
C1682 C 0.11454 0.6573 0.3174 0.0
C1683 C 0.11992 0.67868 0.31644 0.0
C1684 C 0.10304 0.64827 0.28853 0.0
C1685 C 0.11412 0.62215 0.34849 0.0
C1686 C 0.1123 0.64739 0.25656 0.0
C1687 C 0.10112 0.63902 0.22937 0.0
C1688 C 0.08044 0.63162 0.23377 0.0
C1689 C 0.07112 0.63297 0.26575 0.0
C1690 C 0.0823 0.64126 0.29282 0.0
H1691 H 0.12372 0.61434 0.36823 0.0
H1692 H 0.09729 0.61976 0.35484 0.0
H1693 H 0.11728 0.61439 0.32399 0.0
H1694 H 0.12823 0.65296 0.25276 0.0
H1695 H 0.10873 0.6382 0.20504 0.0
H1696 H 0.89158 0.64066 0.54007 0.0
H1697 H 0.90845 0.62346 0.49193 0.0
H1698 H 0.89499 0.67765 0.43034 0.0
H1699 H 0.8784 0.69503 0.47812 0.0
H1700 H 0.89113 0.61383 0.42761 0.0
H1701 H 0.95858 0.66891 0.41861 0.0
H1702 H 0.94201 0.66735 0.45537 0.0
H1703 H 0.93346 0.68183 0.41901 0.0
C1704 C 0.89233 0.64896 0.51632 0.0
C1705 C 0.88382 0.66929 0.51298 0.0
C1706 C 0.9019 0.63908 0.48887 0.0
C1707 C 0.90318 0.64943 0.4578 0.0
C1708 C 0.89448 0.66958 0.45431 0.0
H1709 H 0.95226 0.62847 0.26058 0.0
H1710 H 0.93177 0.63938 0.30941 0.0
C1711 C 0.88497 0.67946 0.48165 0.0
C1712 C 0.91351 0.63926 0.42877 0.0
H1713 H 0.95311 0.64607 0.37201 0.0
C1714 C 0.9048 0.62072 0.41556 0.0
C1715 C 0.93138 0.6483 0.41332 0.0
C1716 C 0.94205 0.66758 0.42746 0.0
C1717 C 0.91309 0.61138 0.38642 0.0
C1718 C 0.93056 0.6208 0.37049 0.0
C1719 C 0.93954 0.63905 0.38417 0.0
C1720 C 0.93994 0.61221 0.33943 0.0
C1721 C 0.9028 0.59192 0.37231 0.0
C1722 C 0.95084 0.59303 0.33994 0.0
C1723 C 0.96249 0.58666 0.31193 0.0
C1724 C 0.96348 0.59944 0.28309 0.0
C1725 C 0.95161 0.6181 0.28216 0.0
C1726 C 0.94 0.62445 0.31012 0.0
H1727 H 0.88713 0.58896 0.38378 0.0
H1728 H 0.90091 0.59329 0.34464 0.0
H1729 H 0.91297 0.57809 0.3774 0.0
H1730 H 0.95116 0.58351 0.3625 0.0
H1731 H 0.97136 0.57213 0.3133 0.0
H1732 H 0.10686 0.13547 0.79167 0.0
H1733 H 0.12483 0.15209 0.74391 0.0
H1734 H 0.06828 0.14663 0.68465 0.0
H1735 H 0.05022 0.13025 0.73188 0.0
H1736 H 0.13033 0.13579 0.67572 0.0
H1737 H 0.08421 0.20985 0.68014 0.0
H1738 H 0.08554 0.19179 0.71513 0.0
H1739 H 0.06825 0.18654 0.68034 0.0
C1740 C 0.09825 0.1379 0.76849 0.0
C1741 C 0.07707 0.13171 0.76564 0.0
C1742 C 0.10855 0.14731 0.74127 0.0
C1743 C 0.09776 0.15077 0.71102 0.0
C1744 C 0.07675 0.14436 0.70801 0.0
H1745 H 0.11246 0.20006 0.51451 0.0
H1746 H 0.10334 0.18014 0.56486 0.0
C1747 C 0.06648 0.13496 0.73504 0.0
C1748 C 0.10819 0.16113 0.68229 0.0
H1749 H 0.10345 0.20321 0.62973 0.0
C1750 C 0.12472 0.15068 0.66585 0.0
C1751 C 0.10083 0.18057 0.66972 0.0
C1752 C 0.08387 0.19297 0.68741 0.0
C1753 C 0.1334 0.15877 0.63605 0.0
C1754 C 0.12534 0.17772 0.62275 0.0
C1755 C 0.10938 0.18852 0.6399 0.0
C1756 C 0.13265 0.18653 0.59049 0.0
C1757 C 0.15051 0.1467 0.61822 0.0
C1758 C 0.15241 0.1962 0.58803 0.0
C1759 C 0.15773 0.20756 0.55917 0.0
C1760 C 0.14333 0.20943 0.53245 0.0
C1761 C 0.12403 0.19869 0.53438 0.0
C1762 C 0.11872 0.18742 0.56322 0.0
H1763 H 0.15327 0.131 0.62966 0.0
H1764 H 0.14638 0.1446 0.5913 0.0
H1765 H 0.1654 0.1558 0.61934 0.0
H1766 H 0.16326 0.19582 0.60902 0.0
H1767 H 0.17278 0.21554 0.55827 0.0
H1768 H 0.54213 0.36407 0.76311 0.0
H1769 H 0.56404 0.35724 0.81231 0.0
H1770 H 0.54545 0.41676 0.85503 0.0
H1771 H 0.52347 0.42382 0.80567 0.0
H1772 H 0.59729 0.3797 0.84458 0.0
H1773 H 0.5256 0.37278 0.92442 0.0
H1774 H 0.52433 0.37311 0.87912 0.0
H1775 H 0.52879 0.39708 0.90191 0.0
C1776 C 0.54309 0.37597 0.78254 0.0
C1777 C 0.53093 0.39442 0.78063 0.0
C1778 C 0.55554 0.37199 0.81072 0.0
C1779 C 0.55604 0.38633 0.83748 0.0
C1780 C 0.54492 0.40533 0.83486 0.0
H1781 H 0.60641 0.35875 0.0383 0.0
H1782 H 0.59183 0.37812 0.99036 0.0
C1783 C 0.53241 0.40932 0.80669 0.0
C1784 C 0.56703 0.38054 0.86889 0.0
H1785 H 0.55805 0.36558 0.95002 0.0
C1786 C 0.58878 0.37683 0.86777 0.0
C1787 C 0.55584 0.37686 0.89907 0.0
C1788 C 0.53233 0.37999 0.90137 0.0
C1789 C 0.59958 0.36903 0.89588 0.0
C1790 C 0.58823 0.36452 0.92558 0.0
C1791 C 0.56666 0.36907 0.92716 0.0
C1792 C 0.59799 0.35341 0.95428 0.0
C1793 C 0.623 0.36545 0.89342 0.0
C1794 C 0.60597 0.33303 0.94985 0.0
C1795 C 0.6142 0.32192 0.97707 0.0
C1796 C 0.61448 0.33094 0.00934 0.0
C1797 C 0.60643 0.35138 0.01375 0.0
C1798 C 0.59814 0.36248 0.98643 0.0
H1799 H 0.6302 0.37551 0.87369 0.0
H1800 H 0.63091 0.36871 0.91776 0.0
H1801 H 0.62599 0.34879 0.88659 0.0
H1802 H 0.60552 0.32555 0.92539 0.0
H1803 H 0.62023 0.3062 0.9728 0.0
H1804 H 0.38052 0.79392 0.00378 0.0
H1805 H 0.3916 0.81568 0.05105 0.0
H1806 H 0.33555 0.79842 0.10547 0.0
H1807 H 0.3239 0.77704 0.0577 0.0
H1808 H 0.34928 0.8424 0.11289 0.0
H1809 H 0.41231 0.78352 0.13618 0.0
H1810 H 0.4117 0.79404 0.09428 0.0
H1811 H 0.39012 0.7783 0.1091 0.0
C1812 C 0.37017 0.79523 0.02529 0.0
C1813 C 0.3514 0.78357 0.02707 0.0
C1814 C 0.37666 0.80752 0.05243 0.0
C1815 C 0.36457 0.80827 0.08187 0.0
C1816 C 0.34515 0.79786 0.08298 0.0
H1817 H 0.38934 0.85901 0.28171 0.0
H1818 H 0.37245 0.84373 0.23205 0.0
C1819 C 0.3386 0.78557 0.05577 0.0
C1820 C 0.37314 0.81837 0.11236 0.0
H1821 H 0.41314 0.81443 0.16918 0.0
C1822 C 0.36319 0.83631 0.12535 0.0
C1823 C 0.39118 0.81018 0.12858 0.0
C1824 C 0.40189 0.79034 0.11658 0.0
C1825 C 0.37126 0.84671 0.15374 0.0
C1826 C 0.3895 0.83868 0.16959 0.0
C1827 C 0.39922 0.82058 0.1568 0.0
C1828 C 0.39909 0.84891 0.19922 0.0
C1829 C 0.36056 0.86645 0.16604 0.0
C1830 C 0.41975 0.85654 0.19725 0.0
C1831 C 0.42949 0.86509 0.22553 0.0
C1832 C 0.41877 0.86607 0.25641 0.0
C1833 C 0.398 0.8585 0.25828 0.0
C1834 C 0.38826 0.84992 0.2299 0.0
H1835 H 0.34973 0.8731 0.14686 0.0
H1836 H 0.35121 0.86272 0.18883 0.0
H1837 H 0.37235 0.8786 0.17292 0.0
H1838 H 0.42839 0.85576 0.1738 0.0
H1839 H 0.44548 0.87082 0.2232 0.0
H1840 H 0.10541 0.30006 0.5146 0.0
H1841 H 0.0906 0.31952 0.5619 0.0
H1842 H 0.10486 0.37813 0.51206 0.0
H1843 H 0.11882 0.35865 0.46385 0.0
H1844 H 0.10777 0.34662 0.60451 0.0
H1845 H 0.04404 0.38671 0.53335 0.0
H1846 H 0.05966 0.36594 0.51526 0.0
H1847 H 0.07008 0.39219 0.51832 0.0
C1848 C 0.10523 0.31709 0.51361 0.0
C1849 C 0.11301 0.32786 0.48542 0.0
C1850 C 0.09687 0.3282 0.54071 0.0
C1851 C 0.09636 0.35029 0.54035 0.0
C1852 C 0.10457 0.3611 0.51252 0.0
H1853 H 0.05461 0.40929 0.73121 0.0
H1854 H 0.07752 0.40104 0.6831 0.0
C1855 C 0.11259 0.34997 0.48506 0.0
C1856 C 0.087 0.3617 0.56917 0.0
H1857 H 0.04652 0.39418 0.591 0.0
C1858 C 0.09445 0.35714 0.60161 0.0
C1859 C 0.06965 0.37544 0.56523 0.0
C1860 C 0.06024 0.38025 0.53122 0.0
C1861 C 0.08436 0.36505 0.63032 0.0
C1862 C 0.06677 0.37846 0.62636 0.0
C1863 C 0.06006 0.38395 0.5939 0.0
C1864 C 0.05331 0.38464 0.65511 0.0
C1865 C 0.09186 0.35794 0.66449 0.0
C1866 C 0.03207 0.37869 0.65486 0.0
C1867 C 0.01902 0.3837 0.68175 0.0
C1868 C 0.02695 0.39467 0.70962 0.0
C1869 C 0.04821 0.40073 0.71001 0.0
C1870 C 0.06127 0.39595 0.68268 0.0
H1871 H 0.10275 0.34429 0.66279 0.0
H1872 H 0.1004 0.37103 0.67689 0.0
H1873 H 0.07836 0.35348 0.6807 0.0
H1874 H 0.02561 0.36983 0.63399 0.0
H1875 H 0.00277 0.37855 0.68105 0.0
H1876 H 0.93785 0.86745 0.27313 0.0
H1877 H 0.91846 0.85354 0.32122 0.0
H1878 H 0.86374 0.84454 0.25875 0.0
H1879 H 0.88309 0.85824 0.21023 0.0
H1880 H 0.8799 0.86825 0.34991 0.0
H1881 H 0.87404 0.78624 0.30146 0.0
H1882 H 0.89209 0.80522 0.28395 0.0
H1883 H 0.86456 0.80667 0.27412 0.0
C1884 C 0.92172 0.86245 0.26952 0.0
C1885 C 0.91206 0.86379 0.23779 0.0
C1886 C 0.91064 0.8546 0.29707 0.0
C1887 C 0.88976 0.84788 0.29341 0.0
C1888 C 0.87995 0.8494 0.26192 0.0
H1889 H 0.81718 0.77826 0.44316 0.0
H1890 H 0.8249 0.80019 0.39407 0.0
C1891 C 0.89103 0.85725 0.23427 0.0
C1892 C 0.87852 0.839 0.32267 0.0
H1893 H 0.85933 0.79304 0.35446 0.0
C1894 C 0.87521 0.85186 0.35086 0.0
C1895 C 0.87233 0.81765 0.32366 0.0
C1896 C 0.87602 0.80303 0.29434 0.0
C1897 C 0.86628 0.84378 0.38041 0.0
C1898 C 0.86088 0.82222 0.38187 0.0
C1899 C 0.86344 0.80958 0.35322 0.0
C1900 C 0.85445 0.81187 0.41357 0.0
C1901 C 0.86287 0.85833 0.40986 0.0
C1902 C 0.86832 0.81151 0.44101 0.0
C1903 C 0.864 0.79899 0.46897 0.0
C1904 C 0.8458 0.78643 0.46987 0.0
C1905 C 0.83143 0.78761 0.44303 0.0
C1906 C 0.83576 0.80017 0.41507 0.0
H1907 H 0.86109 0.87492 0.40149 0.0
H1908 H 0.84871 0.85378 0.42451 0.0
H1909 H 0.87675 0.85755 0.42673 0.0
H1910 H 0.88308 0.82 0.44004 0.0
H1911 H 0.87557 0.79816 0.48891 0.0
H1912 H 0.37679 0.69043 0.0222 0.0
H1913 H 0.39287 0.67272 0.07008 0.0
H1914 H 0.40357 0.61748 0.0095 0.0
H1915 H 0.38724 0.63507 0.96115 0.0
H1916 H 0.38634 0.60974 0.07611 0.0
H1917 H 0.45676 0.66129 0.07813 0.0
H1918 H 0.4323 0.67544 0.07755 0.0
H1919 H 0.43955 0.65942 0.04213 0.0
C1920 C 0.38258 0.67453 0.01892 0.0
C1921 C 0.38091 0.66421 0.98777 0.0
C1922 C 0.39179 0.66446 0.04632 0.0
C1923 C 0.39962 0.64394 0.04312 0.0
C1924 C 0.39767 0.63338 0.01232 0.0
H1925 H 0.46654 0.56838 0.19207 0.0
H1926 H 0.44609 0.57851 0.14242 0.0
C1927 C 0.38843 0.64347 0.98476 0.0
C1928 C 0.41004 0.63382 0.07208 0.0
H1929 H 0.4509 0.64018 0.12664 0.0
C1930 C 0.40058 0.61619 0.08704 0.0
C1931 C 0.42866 0.64227 0.08602 0.0
C1932 C 0.44006 0.66053 0.06998 0.0
C1933 C 0.40885 0.60733 0.11659 0.0
C1934 C 0.42703 0.61631 0.13113 0.0
C1935 C 0.43679 0.63352 0.11556 0.0
C1936 C 0.43624 0.60848 0.16282 0.0
C1937 C 0.39779 0.58893 0.1327 0.0
C1938 C 0.43711 0.62183 0.19082 0.0
C1939 C 0.44888 0.61621 0.21901 0.0
C1940 C 0.46011 0.59715 0.21961 0.0
C1941 C 0.45821 0.58325 0.19222 0.0
C1942 C 0.4464 0.58891 0.16398 0.0
H1943 H 0.38199 0.58616 0.12159 0.0
H1944 H 0.40738 0.57451 0.12911 0.0
H1945 H 0.39603 0.59153 0.16016 0.0
H1946 H 0.42945 0.63707 0.19024 0.0
H1947 H 0.45022 0.62742 0.2394 0.0
H1948 H 0.67665 0.2186 0.93938 0.0
H1949 H 0.6697 0.19694 0.88961 0.0
H1950 H 0.60954 0.17908 0.93081 0.0
H1951 H 0.61624 0.20068 0.98033 0.0
H1952 H 0.63193 0.14565 0.89845 0.0
H1953 H 0.62631 0.21802 0.81985 0.0
H1954 H 0.65038 0.21423 0.8428 0.0
H1955 H 0.62631 0.21897 0.86517 0.0
C1956 C 0.66204 0.20988 0.93794 0.0
C1957 C 0.64691 0.21149 0.96365 0.0
C1958 C 0.65811 0.19754 0.90955 0.0
C1959 C 0.63897 0.18674 0.90639 0.0
C1960 C 0.62441 0.18733 0.93284 0.0
H1961 H 0.55729 0.12488 0.77162 0.0
H1962 H 0.57721 0.13934 0.81863 0.0
C1963 C 0.62832 0.19961 0.9612 0.0
C1964 C 0.63321 0.17606 0.87472 0.0
H1965 H 0.6181 0.18594 0.79392 0.0
C1966 C 0.62916 0.15437 0.87544 0.0
C1967 C 0.62967 0.18754 0.84477 0.0
C1968 C 0.63323 0.211 0.84292 0.0
C1969 C 0.62106 0.14394 0.84721 0.0
C1970 C 0.61657 0.15562 0.81782 0.0
C1971 C 0.62155 0.17709 0.81657 0.0
C1972 C 0.60499 0.14632 0.78923 0.0
C1973 C 0.61706 0.12058 0.84926 0.0
C1974 C 0.61382 0.14604 0.75692 0.0
C1975 C 0.60239 0.13791 0.72983 0.0
C1976 C 0.58189 0.13013 0.73465 0.0
C1977 C 0.57306 0.13069 0.76704 0.0
C1978 C 0.58449 0.13877 0.79402 0.0
H1979 H 0.62712 0.11304 0.86866 0.0
H1980 H 0.60039 0.11786 0.85634 0.0
H1981 H 0.61998 0.11281 0.8247 0.0
H1982 H 0.62955 0.15204 0.75272 0.0
H1983 H 0.60963 0.13769 0.70518 0.0
H1984 H 0.3228 0.20271 0.20175 0.0
H1985 H 0.2939 0.2125 0.23903 0.0
H1986 H 0.27437 0.26042 0.16891 0.0
H1987 H 0.30313 0.25063 0.13115 0.0
H1988 H 0.28068 0.25137 0.26892 0.0
H1989 H 0.22333 0.21975 0.17614 0.0
H1990 H 0.25119 0.21439 0.1737 0.0
H1991 H 0.24107 0.23941 0.1603 0.0
C1992 C 0.31262 0.21561 0.1945 0.0
C1993 C 0.31504 0.22569 0.16327 0.0
C1994 C 0.29612 0.22115 0.21582 0.0
C1995 C 0.2818 0.23679 0.20621 0.0
C1996 C 0.28509 0.24799 0.17632 0.0
H1997 H 0.16817 0.28587 0.29215 0.0
H1998 H 0.19676 0.27531 0.25479 0.0
C1999 C 0.30161 0.24249 0.15495 0.0
C2000 C 0.26275 0.2404 0.22652 0.0
H2001 H 0.20925 0.23573 0.22492 0.0
C2002 C 0.26506 0.24793 0.25941 0.0
C2003 C 0.24247 0.2357 0.21392 0.0
C2004 C 0.23926 0.22669 0.17919 0.0
C2005 C 0.24748 0.25134 0.27994 0.0
C2006 C 0.22719 0.24669 0.26731 0.0
C2007 C 0.22489 0.23912 0.23445 0.0
C2008 C 0.20815 0.25062 0.28747 0.0
C2009 C 0.25067 0.26034 0.31469 0.0
C2010 C 0.20456 0.23946 0.31731 0.0
C2011 C 0.1882 0.24539 0.33873 0.0
C2012 C 0.17529 0.26261 0.33051 0.0
C2013 C 0.17797 0.27266 0.29931 0.0
C2014 C 0.19428 0.26668 0.27794 0.0
H2015 H 0.26672 0.26697 0.31797 0.0
H2016 H 0.23896 0.27289 0.31993 0.0
H2017 H 0.24847 0.2477 0.3336 0.0
H2018 H 0.21495 0.22675 0.32467 0.0
H2019 H 0.18647 0.23728 0.36251 0.0
H2020 H 0.5419 0.57367 0.45606 0.0
H2021 H 0.5321 0.54512 0.49405 0.0
H2022 H 0.48116 0.52788 0.42795 0.0
H2023 H 0.49067 0.55652 0.38986 0.0
H2024 H 0.47183 0.52554 0.49869 0.0
H2025 H 0.54576 0.48408 0.4636 0.0
H2026 H 0.54901 0.51037 0.47939 0.0
H2027 H 0.53569 0.50621 0.44013 0.0
C2028 C 0.52833 0.5641 0.44992 0.0
C2029 C 0.51724 0.56713 0.41969 0.0
C2030 C 0.52286 0.54773 0.47155 0.0
C2031 C 0.5063 0.53416 0.46322 0.0
C2032 C 0.49415 0.53814 0.43451 0.0
H2033 H 0.45368 0.41926 0.54178 0.0
H2034 H 0.46434 0.44859 0.506 0.0
C2035 C 0.49957 0.55453 0.41286 0.0
C2036 C 0.5025 0.515 0.48317 0.0
H2037 H 0.52435 0.46778 0.50461 0.0
C2038 C 0.48327 0.5129 0.50002 0.0
C2039 C 0.51751 0.49857 0.48462 0.0
C2040 C 0.5381 0.49974 0.46578 0.0
C2041 C 0.47871 0.4948 0.51876 0.0
C2042 C 0.49367 0.47833 0.52002 0.0
C2043 C 0.51296 0.48048 0.50338 0.0
C2044 C 0.48946 0.45882 0.53883 0.0
C2045 C 0.45807 0.49355 0.53743 0.0
C2046 C 0.50096 0.45422 0.56798 0.0
C2047 C 0.49503 0.43738 0.58842 0.0
C2048 C 0.47751 0.42497 0.57988 0.0
C2049 C 0.46711 0.42866 0.54923 0.0
C2050 C 0.47308 0.44547 0.52884 0.0
H2051 H 0.45053 0.50925 0.54003 0.0
H2052 H 0.44712 0.48317 0.5234 0.0
H2053 H 0.46037 0.48675 0.56288 0.0
H2054 H 0.5138 0.4643 0.5758 0.0
H2055 H 0.50339 0.43489 0.61181 0.0
H2056 H 0.17163 0.7903 0.70236 0.0
H2057 H 0.20042 0.77926 0.739 0.0
H2058 H 0.21477 0.72814 0.67151 0.0
H2059 H 0.1861 0.73914 0.63441 0.0
H2060 H 0.21106 0.74002 0.77094 0.0
H2061 H 0.26898 0.76487 0.67388 0.0
H2062 H 0.24161 0.77241 0.6723 0.0
H2063 H 0.24941 0.74633 0.6602 0.0
C2064 C 0.18064 0.77646 0.69558 0.0
C2065 C 0.1768 0.76576 0.66524 0.0
C2066 C 0.19708 0.77021 0.71653 0.0
C2067 C 0.20993 0.75323 0.70744 0.0
C2068 C 0.20521 0.74156 0.6785 0.0
H2069 H 0.32286 0.70067 0.79322 0.0
H2070 H 0.29397 0.71087 0.75613 0.0
C2071 C 0.18874 0.74778 0.65751 0.0
C2072 C 0.22901 0.74862 0.72721 0.0
H2073 H 0.28266 0.74959 0.72343 0.0
C2074 C 0.22672 0.7421 0.76064 0.0
C2075 C 0.24936 0.75151 0.71355 0.0
C2076 C 0.25261 0.75933 0.67811 0.0
C2077 C 0.24436 0.73805 0.78078 0.0
C2078 C 0.26471 0.74102 0.76717 0.0
C2079 C 0.26699 0.74746 0.7337 0.0
C2080 C 0.28379 0.73688 0.78719 0.0
C2081 C 0.2411 0.73023 0.81623 0.0
C2082 C 0.28815 0.74883 0.81597 0.0
C2083 C 0.30467 0.7431 0.83721 0.0
C2084 C 0.31703 0.72533 0.82989 0.0
C2085 C 0.31353 0.71436 0.79968 0.0
C2086 C 0.29703 0.72012 0.77848 0.0
H2087 H 0.22482 0.72439 0.82027 0.0
H2088 H 0.25232 0.71737 0.82224 0.0
H2089 H 0.24395 0.74333 0.8341 0.0
H2090 H 0.27829 0.76209 0.82264 0.0
H2091 H 0.30703 0.75195 0.86018 0.0
H2092 H 0.04052 0.56917 0.04484 0.0
H2093 H 0.02963 0.54019 0.00849 0.0
H2094 H 0.98125 0.52324 0.07951 0.0
H2095 H 0.99186 0.55232 0.11596 0.0
H2096 H 0.03094 0.49788 0.03003 0.0
H2097 H 0.95079 0.52125 0.98834 0.0
H2098 H 0.9694 0.53985 0.00546 0.0
H2099 H 0.95513 0.52254 0.03292 0.0
C2100 C 0.02725 0.55958 0.05242 0.0
C2101 C 0.0171 0.56298 0.08336 0.0
C2102 C 0.02112 0.543 0.03167 0.0
C2103 C 0.00465 0.52966 0.04135 0.0
C2104 C 0.99382 0.53357 0.07142 0.0
H2105 H 0.95141 0.41713 0.95327 0.0
H2106 H 0.96246 0.44414 0.99319 0.0
C2107 C -7e-05 0.55018 0.09222 0.0
C2108 C -0.0 0.51067 0.02135 0.0
H2109 H 0.96169 0.48653 0.97548 0.0
C2110 C 0.01583 0.49539 0.01799 0.0
C2111 C 0.98023 0.50748 0.00599 0.0
C2112 C 0.96293 0.5237 0.00804 0.0
C2113 C 0.01235 0.47686 -0.00029 0.0
C2114 C 0.99264 0.47376 0.98409 0.0
C2115 C 0.97676 0.48896 0.9877 0.0
C2116 C 0.98829 0.45531 0.96264 0.0
C2117 C 0.02966 0.46067 0.99763 0.0
C2118 C -0.0004 0.45229 0.93274 0.0
C2119 C 0.99339 0.43682 0.9099 0.0
C2120 C 0.97564 0.42429 0.9165 0.0
C2121 C 0.96512 0.42657 0.94739 0.0
C2122 C 0.97136 0.44201 0.9702 0.0
H2123 H 0.0413 0.46261 0.01825 0.0
H2124 H 0.02317 0.44446 -0.0013 0.0
H2125 H 0.03811 0.46251 0.9734 0.0
H2126 H 0.01252 0.46263 0.92623 0.0
H2127 H 0.00178 0.43551 0.88629 0.0
H2128 H 0.66751 0.79067 0.79376 0.0
H2129 H 0.69565 0.77965 0.756 0.0
H2130 H 0.71051 0.72796 0.8221 0.0
H2131 H 0.68248 0.73898 0.86035 0.0
H2132 H 0.74438 0.75513 0.80866 0.0
H2133 H 0.70458 0.73043 0.69089 0.0
H2134 H 0.69607 0.75548 0.70676 0.0
H2135 H 0.69102 0.73205 0.7307 0.0
C2136 C 0.67638 0.77662 0.79988 0.0
C2137 C 0.67289 0.7658 0.8302 0.0
C2138 C 0.69241 0.77031 0.77817 0.0
C2139 C 0.70508 0.75298 0.78628 0.0
C2140 C 0.70083 0.74137 0.81547 0.0
H2141 H 0.81994 0.70265 0.70335 0.0
H2142 H 0.79071 0.71219 0.74004 0.0
C2143 C 0.68477 0.74765 0.8372 0.0
C2144 C 0.72419 0.74856 0.76643 0.0
H2145 H 0.74153 0.73634 0.68775 0.0
C2146 C 0.74379 0.75084 0.78229 0.0
C2147 C 0.72328 0.74322 0.73201 0.0
C2148 C 0.70261 0.73996 0.71409 0.0
C2149 C 0.76261 0.74822 0.76443 0.0
C2150 C 0.76171 0.7429 0.73 0.0
C2151 C 0.74211 0.74058 0.71414 0.0
C2152 C 0.78089 0.73886 0.7101 0.0
C2153 C 0.78327 0.75158 0.78235 0.0
C2154 C 0.78516 0.75089 0.68136 0.0
C2155 C 0.80185 0.74547 0.66024 0.0
C2156 C 0.81436 0.72778 0.66743 0.0
C2157 C 0.81062 0.71639 0.69713 0.0
C2158 C 0.79396 0.72184 0.71821 0.0
H2159 H 0.78125 0.76098 0.80567 0.0
H2160 H 0.78996 0.73608 0.78949 0.0
H2161 H 0.79478 0.75967 0.76581 0.0
H2162 H 0.77518 0.76407 0.67474 0.0
H2163 H 0.80428 0.75452 0.63751 0.0
H2164 H 0.66936 0.28896 0.20261 0.0
H2165 H 0.69821 0.27759 0.23885 0.0
H2166 H 0.71096 0.2257 0.17207 0.0
H2167 H 0.68228 0.23705 0.13532 0.0
H2168 H 0.70906 0.23901 0.27157 0.0
H2169 H 0.76555 0.26145 0.17094 0.0
H2170 H 0.73823 0.26919 0.17011 0.0
H2171 H 0.74565 0.24284 0.15886 0.0
C2172 C 0.67799 0.27486 0.19595 0.0
C2173 C 0.67377 0.2641 0.16579 0.0
C2174 C 0.69448 0.26843 0.21668 0.0
C2175 C 0.70696 0.25117 0.20757 0.0
C2176 C 0.70172 0.23935 0.17902 0.0
H2177 H 0.82088 0.19921 0.29213 0.0
H2178 H 0.79142 0.20849 0.25551 0.0
C2179 C 0.68524 0.24577 0.15823 0.0
C2180 C 0.72632 0.24656 0.22665 0.0
H2181 H 0.77991 0.24679 0.22045 0.0
C2182 C 0.72456 0.24068 0.26047 0.0
C2183 C 0.74647 0.24893 0.21196 0.0
C2184 C 0.74922 0.25612 0.17606 0.0
C2185 C 0.7425 0.23682 0.28 0.0
C2186 C 0.76263 0.23929 0.26536 0.0
C2187 C 0.7644 0.24503 0.23149 0.0
C2188 C 0.782 0.23555 0.28484 0.0
C2189 C 0.7398 0.22982 0.316 0.0
C2190 C 0.78697 0.24836 0.31239 0.0
C2191 C 0.80382 0.24318 0.33331 0.0
C2192 C 0.81591 0.22508 0.32693 0.0
C2193 C 0.81179 0.21318 0.29785 0.0
C2194 C 0.79496 0.21841 0.27693 0.0
H2195 H 0.72353 0.22427 0.32112 0.0
H2196 H 0.75098 0.21696 0.3222 0.0
H2197 H 0.74313 0.24326 0.33299 0.0
H2198 H 0.77733 0.26191 0.3184 0.0
H2199 H 0.80665 0.25274 0.3554 0.0
H2200 H 0.98878 0.05468 0.88726 0.0
H2201 H 0.97906 0.02523 0.9235 0.0
H2202 H 0.02807 0.04241 0.99328 0.0
H2203 H 0.03809 0.07177 0.95709 0.0
H2204 H 0.03027 0.00065 0.97033 0.0
H2205 H 0.94997 0.0207 0.01526 0.0
H2206 H 0.9535 0.02281 0.97059 0.0
H2207 H 0.96771 0.04013 -0.00186 0.0
C2208 C -0.00287 0.05255 0.91075 0.0
C2209 C 0.0143 0.06547 0.9192 0.0
C2210 C 0.99153 0.03572 0.93144 0.0
C2211 C 0.00286 0.03171 0.96102 0.0
C2212 C 0.01919 0.04529 0.97049 0.0
H2213 H 0.00321 0.93339 0.10993 0.0
H2214 H 0.01339 0.96174 0.07187 0.0
C2215 C 0.02482 0.06209 0.94983 0.0
C2216 C -0.00097 0.01227 0.98034 0.0
H2217 H 0.96177 0.98582 0.02511 0.0
C2218 C 0.01533 -0.00259 0.98249 0.0
C2219 C 0.97948 0.00811 0.99584 0.0
C2220 C 0.9617 0.02384 0.99517 0.0
C2221 C 0.01253 0.97831 -0.00047 0.0
C2222 C 0.99301 0.97418 0.01511 0.0
C2223 C 0.97669 0.98902 0.01288 0.0
C2224 C 0.98926 0.95496 0.03504 0.0
C2225 C 0.03032 0.9626 0.00024 0.0
C2226 C 0.97262 0.9415 0.02652 0.0
C2227 C 0.9667 0.92534 0.04826 0.0
C2228 C 0.97724 0.9225 0.07901 0.0
C2229 C 0.99481 0.93512 0.08639 0.0
C2230 C 0.00069 0.95132 0.06463 0.0
H2231 H 0.04185 0.96553 0.97978 0.0
H2232 H 0.03876 0.96393 0.02458 0.0
H2233 H 0.02431 0.94626 -0.00211 0.0
H2234 H 0.96364 0.94408 0.00373 0.0
H2235 H 0.95314 0.91584 0.04178 0.0
H2236 H 0.5401 0.07193 0.54359 0.0
H2237 H 0.52914 0.04258 0.50809 0.0
H2238 H 0.47915 0.02805 0.57758 0.0
H2239 H 0.48984 0.05748 0.61321 0.0
H2240 H 0.52965 0.00092 0.53425 0.0
H2241 H 0.45097 0.0231 0.48434 0.0
H2242 H 0.46937 0.04226 0.50049 0.0
H2243 H 0.45434 0.02628 0.52892 0.0
C2244 C 0.52642 0.06285 0.55092 0.0
C2245 C 0.51593 0.06691 0.58136 0.0
C2246 C 0.52024 0.04606 0.53065 0.0
C2247 C 0.5034 0.0332 0.54032 0.0
C2248 C 0.49205 0.03798 0.56955 0.0
H2249 H 0.45214 0.91847 0.45597 0.0
H2250 H 0.46189 0.94634 0.49525 0.0
C2251 C 0.4982 0.0548 0.58988 0.0
C2252 C 0.49918 0.01357 0.52174 0.0
H2253 H 0.46222 0.98808 0.47496 0.0
C2254 C 0.51494 -0.00191 0.52118 0.0
C2255 C 0.47989 0.00994 0.50515 0.0
C2256 C 0.46269 0.02631 0.50443 0.0
C2257 C 0.5119 0.97896 0.50437 0.0
C2258 C 0.49274 0.97545 0.48732 0.0
C2259 C 0.47687 0.99083 0.48825 0.0
C2260 C 0.48909 0.95643 0.46684 0.0
C2261 C 0.52912 0.96261 0.50532 0.0
C2262 C 0.50159 0.9525 0.43848 0.0
C2263 C 0.49615 0.93652 0.41605 0.0
C2264 C 0.47795 0.92441 0.42148 0.0
C2265 C 0.46622 0.92756 0.45102 0.0
C2266 C 0.4717 0.94351 0.47345 0.0
H2267 H 0.53983 0.96504 0.52705 0.0
H2268 H 0.52246 0.94648 0.50674 0.0
H2269 H 0.53863 0.96378 0.48201 0.0
H2270 H 0.51488 0.96252 0.43267 0.0
H2271 H 0.50548 0.93454 0.39348 0.0
loop_
_geom_bond_atom_site_label_1
_geom_bond_atom_site_label_2
_geom_bond_distance
_geom_bond_site_symmetry_2
_ccdc_geom_bond_type
C0 O16 1.251 . S
C0 O18 1.254 . S
N1 C2 1.333 . S
N1 C6 1.307 . S
N1 Zn7 2.020 . S
C2 N1 1.333 . S
C2 C3 1.379 . S
C2 H20 0.952 . S
C3 C2 1.379 . S
C3 C4 1.390 . S
C3 H30 0.949 . S
C4 C3 1.390 . S
C4 C5 1.357 . S
C5 C4 1.357 . S
C5 C6 1.370 . S
C5 H31 0.950 . S
C6 N1 1.307 . S
C6 C5 1.370 . S
C6 H24 0.948 . S
Zn7 N1 2.020 . S
Zn7 O16 2.039 . S
Zn7 O22 2.034 . S
Zn7 O26 2.025 . S
Zn7 O28 2.024 . S
C8 O27 1.246 . S
C8 O28 1.249 . S
N9 C10 1.307 . S
N9 C11 1.333 1_554 S
N9 Zn15 2.020 . S
C10 N9 1.307 . S
C10 C14 1.370 . S
C10 H21 0.948 . S
C11 N9 1.333 1_556 S
C11 C12 1.379 . S
C11 H19 0.952 . S
C12 C11 1.379 . S
C12 C13 1.390 . S
C12 H32 0.949 . S
C13 C12 1.390 . S
C13 C14 1.357 1_556 S
C14 C10 1.370 . S
C14 C13 1.357 1_554 S
C14 H33 0.950 . S
Zn15 N9 2.020 . S
Zn15 O18 2.025 . S
Zn15 O23 2.024 . S
Zn15 O25 2.039 . S
Zn15 O27 2.034 . S
O16 C0 1.251 . S
O16 Zn7 2.039 . S
C17 O22 1.246 . S
C17 O23 1.249 . S
O18 C0 1.254 . S
O18 Zn15 2.025 . S
H19 C11 0.952 . S
H20 C2 0.952 . S
H21 C10 0.948 . S
O22 Zn7 2.034 . S
O22 C17 1.246 . S
O23 Zn15 2.024 . S
O23 C17 1.249 . S
H24 C6 0.948 . S
O25 Zn15 2.039 . S
O25 C29 1.251 . S
O26 Zn7 2.025 . S
O26 C29 1.254 . S
O27 C8 1.246 . S
O27 Zn15 2.034 . S
O28 Zn7 2.024 . S
O28 C8 1.249 . S
C29 O25 1.251 . S
C29 O26 1.254 . S
H30 C3 0.949 . S
H31 C5 0.950 . S
H32 C12 0.949 . S
H33 C14 0.950 . S
C34 O50 1.251 . S
C34 O52 1.254 . S
N35 C36 1.333 . S
N35 C40 1.307 . S
N35 Zn41 2.020 . S
C36 N35 1.333 . S
C36 C37 1.379 . S
C36 H54 0.952 . S
C37 C36 1.379 . S
C37 C38 1.390 . S
C37 H64 0.949 . S
C38 C37 1.390 . S
C38 C39 1.357 . S
C39 C38 1.357 . S
C39 C40 1.370 . S
C39 H65 0.950 . S
C40 N35 1.307 . S
C40 C39 1.370 . S
C40 H58 0.948 . S
Zn41 N35 2.020 . S
Zn41 O50 2.039 . S
Zn41 O56 2.034 . S
Zn41 O60 2.025 . S
Zn41 O62 2.024 . S
C42 O61 1.246 . S
C42 O62 1.249 . S
N43 C44 1.307 . S
N43 C45 1.333 . S
N43 Zn49 2.020 . S
C44 N43 1.307 . S
C44 C48 1.370 . S
C44 H55 0.948 . S
C45 N43 1.333 . S
C45 C46 1.379 . S
C45 H53 0.952 . S
C46 C45 1.379 . S
C46 C47 1.390 . S
C46 H66 0.949 . S
C47 C46 1.390 . S
C47 C48 1.357 . S
C48 C44 1.370 . S
C48 C47 1.357 . S
C48 H67 0.950 . S
Zn49 N43 2.020 . S
Zn49 O52 2.025 . S
Zn49 O57 2.024 . S
Zn49 O59 2.039 . S
Zn49 O61 2.034 . S
O50 C34 1.251 . S
O50 Zn41 2.039 . S
C51 O56 1.246 . S
C51 O57 1.249 . S
O52 C34 1.254 . S
O52 Zn49 2.025 . S
H53 C45 0.952 . S
H54 C36 0.952 . S
H55 C44 0.948 . S
O56 Zn41 2.034 . S
O56 C51 1.246 . S
O57 Zn49 2.024 . S
O57 C51 1.249 . S
H58 C40 0.948 . S
O59 Zn49 2.039 . S
O59 C63 1.251 . S
O60 Zn41 2.025 . S
O60 C63 1.254 . S
O61 C42 1.246 . S
O61 Zn49 2.034 . S
O62 Zn41 2.024 . S
O62 C42 1.249 . S
C63 O59 1.251 . S
C63 O60 1.254 . S
H64 C37 0.949 . S
H65 C39 0.950 . S
H66 C46 0.949 . S
H67 C48 0.950 . S
C68 O84 1.251 . S
C68 O86 1.254 . S
N69 C70 1.333 . S
N69 C74 1.307 . S
N69 Zn75 2.020 . S
C70 N69 1.333 . S
C70 C71 1.379 . S
C70 H88 0.952 . S
C71 C70 1.379 . S
C71 C72 1.390 . S
C71 H98 0.949 . S
C72 C71 1.390 . S
C72 C73 1.357 . S
C73 C72 1.357 . S
C73 C74 1.370 . S
C73 H99 0.950 . S
C74 N69 1.307 . S
C74 C73 1.370 . S
C74 H92 0.948 . S
Zn75 N69 2.020 . S
Zn75 O84 2.039 . S
Zn75 O90 2.034 . S
Zn75 O94 2.025 . S
Zn75 O96 2.024 . S
C76 O95 1.246 . S
C76 O96 1.249 . S
N77 C78 1.307 . S
N77 C79 1.333 . S
N77 Zn83 2.020 . S
C78 N77 1.307 . S
C78 C82 1.370 . S
C78 H89 0.948 . S
C79 N77 1.333 . S
C79 C80 1.379 . S
C79 H87 0.952 . S
C80 C79 1.379 . S
C80 C81 1.390 . S
C80 H100 0.949 . S
C81 C80 1.390 . S
C81 C82 1.357 . S
C82 C78 1.370 . S
C82 C81 1.357 . S
C82 H101 0.950 . S
Zn83 N77 2.020 . S
Zn83 O86 2.025 . S
Zn83 O91 2.024 . S
Zn83 O93 2.039 . S
Zn83 O95 2.034 . S
O84 C68 1.251 . S
O84 Zn75 2.039 . S
C85 O90 1.246 . S
C85 O91 1.249 . S
O86 C68 1.254 . S
O86 Zn83 2.025 . S
H87 C79 0.952 . S
H88 C70 0.952 . S
H89 C78 0.948 . S
O90 Zn75 2.034 . S
O90 C85 1.246 . S
O91 Zn83 2.024 . S
O91 C85 1.249 . S
H92 C74 0.948 . S
O93 Zn83 2.039 . S
O93 C97 1.251 . S
O94 Zn75 2.025 . S
O94 C97 1.254 . S
O95 C76 1.246 . S
O95 Zn83 2.034 . S
O96 Zn75 2.024 . S
O96 C76 1.249 . S
C97 O93 1.251 . S
C97 O94 1.254 . S
H98 C71 0.949 . S
H99 C73 0.950 . S
H100 C80 0.949 . S
H101 C82 0.950 . S
C102 O118 1.251 . S
C102 O120 1.254 . S
N103 C104 1.333 . S
N103 C108 1.307 . S
N103 Zn109 2.020 . S
C104 N103 1.333 . S
C104 C105 1.379 . S
C104 H122 0.952 . S
C105 C104 1.379 . S
C105 C106 1.390 . S
C105 H132 0.949 . S
C106 C105 1.390 . S
C106 C107 1.357 . S
C107 C106 1.357 . S
C107 C108 1.370 . S
C107 H133 0.950 . S
C108 N103 1.307 . S
C108 C107 1.370 . S
C108 H126 0.948 . S
Zn109 N103 2.020 . S
Zn109 O118 2.039 . S
Zn109 O124 2.034 . S
Zn109 O128 2.025 . S
Zn109 O130 2.024 . S
C110 O129 1.246 . S
C110 O130 1.249 . S
N111 C112 1.307 1_655 S
N111 C113 1.333 . S
N111 Zn117 2.020 . S
C112 N111 1.307 1_455 S
C112 C116 1.370 . S
C112 H123 0.948 . S
C113 N111 1.333 . S
C113 C114 1.379 . S
C113 H121 0.952 . S
C114 C113 1.379 . S
C114 C115 1.390 1_655 S
C114 H134 0.949 . S
C115 C114 1.390 1_455 S
C115 C116 1.357 . S
C116 C112 1.370 . S
C116 C115 1.357 . S
C116 H135 0.950 . S
Zn117 N111 2.020 . S
Zn117 O120 2.025 . S
Zn117 O125 2.024 . S
Zn117 O127 2.039 . S
Zn117 O129 2.034 . S
O118 C102 1.251 . S
O118 Zn109 2.039 . S
C119 O124 1.246 . S
C119 O125 1.249 . S
O120 C102 1.254 . S
O120 Zn117 2.025 . S
H121 C113 0.952 . S
H122 C104 0.952 . S
H123 C112 0.948 . S
O124 Zn109 2.034 . S
O124 C119 1.246 . S
O125 Zn117 2.024 . S
O125 C119 1.249 . S
H126 C108 0.948 . S
O127 Zn117 2.039 . S
O127 C131 1.251 . S
O128 Zn109 2.025 . S
O128 C131 1.254 . S
O129 C110 1.246 . S
O129 Zn117 2.034 . S
O130 Zn109 2.024 . S
O130 C110 1.249 . S
C131 O127 1.251 . S
C131 O128 1.254 . S
H132 C105 0.949 . S
H133 C107 0.950 . S
H134 C114 0.949 . S
H135 C116 0.950 . S
C136 O152 1.251 . S
C136 O154 1.254 . S
N137 C138 1.333 1_556 S
N137 C142 1.307 . S
N137 Zn143 2.020 . S
C138 N137 1.333 1_554 S
C138 C139 1.379 . S
C138 H156 0.952 . S
C139 C138 1.379 . S
C139 C140 1.390 . S
C139 H166 0.949 . S
C140 C139 1.390 . S
C140 C141 1.357 1_554 S
C141 C140 1.357 1_556 S
C141 C142 1.370 . S
C141 H167 0.950 . S
C142 N137 1.307 . S
C142 C141 1.370 . S
C142 H160 0.948 . S
Zn143 N137 2.020 . S
Zn143 O152 2.039 . S
Zn143 O158 2.034 . S
Zn143 O162 2.025 . S
Zn143 O164 2.024 . S
C144 O163 1.246 . S
C144 O164 1.249 . S
N145 C146 1.307 . S
N145 C147 1.333 . S
N145 Zn151 2.020 . S
C146 N145 1.307 . S
C146 C150 1.370 . S
C146 H157 0.948 . S
C147 N145 1.333 . S
C147 C148 1.379 . S
C147 H155 0.952 . S
C148 C147 1.379 . S
C148 C149 1.390 . S
C148 H168 0.949 . S
C149 C148 1.390 . S
C149 C150 1.357 . S
C150 C146 1.370 . S
C150 C149 1.357 . S
C150 H169 0.950 . S
Zn151 N145 2.020 . S
Zn151 O154 2.025 . S
Zn151 O159 2.024 . S
Zn151 O161 2.039 . S
Zn151 O163 2.034 . S
O152 C136 1.251 . S
O152 Zn143 2.039 . S
C153 O158 1.246 . S
C153 O159 1.249 . S
O154 C136 1.254 . S
O154 Zn151 2.025 . S
H155 C147 0.952 . S
H156 C138 0.952 . S
H157 C146 0.948 . S
O158 Zn143 2.034 . S
O158 C153 1.246 . S
O159 Zn151 2.024 . S
O159 C153 1.249 . S
H160 C142 0.948 . S
O161 Zn151 2.039 . S
O161 C165 1.251 . S
O162 Zn143 2.025 . S
O162 C165 1.254 . S
O163 C144 1.246 . S
O163 Zn151 2.034 . S
O164 Zn143 2.024 . S
O164 C144 1.249 . S
C165 O161 1.251 . S
C165 O162 1.254 . S
H166 C139 0.949 . S
H167 C141 0.950 . S
H168 C148 0.949 . S
H169 C150 0.950 . S
C170 O186 1.251 . S
C170 O188 1.254 . S
N171 C172 1.333 . S
N171 C176 1.307 . S
N171 Zn177 2.020 . S
C172 N171 1.333 . S
C172 C173 1.379 . S
C172 H190 0.952 . S
C173 C172 1.379 . S
C173 C174 1.390 . S
C173 H200 0.949 . S
C174 C173 1.390 . S
C174 C175 1.357 . S
C175 C174 1.357 . S
C175 C176 1.370 . S
C175 H201 0.950 . S
C176 N171 1.307 . S
C176 C175 1.370 . S
C176 H194 0.948 . S
Zn177 N171 2.020 . S
Zn177 O186 2.039 . S
Zn177 O192 2.034 . S
Zn177 O196 2.025 . S
Zn177 O198 2.024 . S
C178 O197 1.246 . S
C178 O198 1.249 . S
N179 C180 1.307 . S
N179 C181 1.333 . S
N179 Zn185 2.020 . S
C180 N179 1.307 . S
C180 C184 1.370 . S
C180 H191 0.948 . S
C181 N179 1.333 . S
C181 C182 1.379 . S
C181 H189 0.952 . S
C182 C181 1.379 . S
C182 C183 1.390 . S
C182 H202 0.949 . S
C183 C182 1.390 . S
C183 C184 1.357 . S
C184 C180 1.370 . S
C184 C183 1.357 . S
C184 H203 0.950 . S
Zn185 N179 2.020 . S
Zn185 O188 2.025 . S
Zn185 O193 2.024 . S
Zn185 O195 2.039 . S
Zn185 O197 2.034 . S
O186 C170 1.251 . S
O186 Zn177 2.039 . S
C187 O192 1.246 . S
C187 O193 1.249 . S
O188 C170 1.254 . S
O188 Zn185 2.025 . S
H189 C181 0.952 . S
H190 C172 0.952 . S
H191 C180 0.948 . S
O192 Zn177 2.034 . S
O192 C187 1.246 . S
O193 Zn185 2.024 . S
O193 C187 1.249 . S
H194 C176 0.948 . S
O195 Zn185 2.039 . S
O195 C199 1.251 . S
O196 Zn177 2.025 . S
O196 C199 1.254 . S
O197 C178 1.246 . S
O197 Zn185 2.034 . S
O198 Zn177 2.024 . S
O198 C178 1.249 . S
C199 O195 1.251 . S
C199 O196 1.254 . S
H200 C173 0.949 . S
H201 C175 0.950 . S
H202 C182 0.949 . S
H203 C184 0.950 . S
C204 O220 1.251 . S
C204 O222 1.254 . S
N205 C206 1.333 . S
N205 C210 1.307 . S
N205 Zn211 2.020 . S
C206 N205 1.333 . S
C206 C207 1.379 . S
C206 H224 0.952 . S
C207 C206 1.379 . S
C207 C208 1.390 . S
C207 H234 0.949 . S
C208 C207 1.390 . S
C208 C209 1.357 . S
C209 C208 1.357 . S
C209 C210 1.370 . S
C209 H235 0.950 . S
C210 N205 1.307 . S
C210 C209 1.370 . S
C210 H228 0.948 . S
Zn211 N205 2.020 . S
Zn211 O220 2.039 . S
Zn211 O226 2.034 . S
Zn211 O230 2.025 . S
Zn211 O232 2.024 . S
C212 O231 1.246 . S
C212 O232 1.249 . S
N213 C214 1.307 . S
N213 C215 1.333 . S
N213 Zn219 2.020 . S
C214 N213 1.307 . S
C214 C218 1.370 . S
C214 H225 0.948 . S
C215 N213 1.333 . S
C215 C216 1.379 . S
C215 H223 0.952 . S
C216 C215 1.379 . S
C216 C217 1.390 . S
C216 H236 0.949 . S
C217 C216 1.390 . S
C217 C218 1.357 . S
C218 C214 1.370 . S
C218 C217 1.357 . S
C218 H237 0.950 . S
Zn219 N213 2.020 . S
Zn219 O222 2.025 . S
Zn219 O227 2.024 . S
Zn219 O229 2.039 . S
Zn219 O231 2.034 . S
O220 C204 1.251 . S
O220 Zn211 2.039 . S
C221 O226 1.246 . S
C221 O227 1.249 . S
O222 C204 1.254 . S
O222 Zn219 2.025 . S
H223 C215 0.952 . S
H224 C206 0.952 . S
H225 C214 0.948 . S
O226 Zn211 2.034 . S
O226 C221 1.246 . S
O227 Zn219 2.024 . S
O227 C221 1.249 . S
H228 C210 0.948 . S
O229 Zn219 2.039 . S
O229 C233 1.251 . S
O230 Zn211 2.025 . S
O230 C233 1.254 . S
O231 C212 1.246 . S
O231 Zn219 2.034 . S
O232 Zn211 2.024 . S
O232 C212 1.249 . S
C233 O229 1.251 . S
C233 O230 1.254 . S
H234 C207 0.949 . S
H235 C209 0.950 . S
H236 C216 0.949 . S
H237 C218 0.950 . S
C238 O254 1.251 . S
C238 O256 1.254 . S
N239 C240 1.333 . S
N239 C244 1.307 1_455 S
N239 Zn245 2.020 . S
C240 N239 1.333 . S
C240 C241 1.379 . S
C240 H258 0.952 . S
C241 C240 1.379 . S
C241 C242 1.390 1_455 S
C241 H268 0.949 . S
C242 C241 1.390 1_655 S
C242 C243 1.357 . S
C243 C242 1.357 . S
C243 C244 1.370 . S
C243 H269 0.950 . S
C244 N239 1.307 1_655 S
C244 C243 1.370 . S
C244 H262 0.948 . S
Zn245 N239 2.020 . S
Zn245 O254 2.039 . S
Zn245 O260 2.034 . S
Zn245 O264 2.025 . S
Zn245 O266 2.024 . S
C246 O265 1.246 . S
C246 O266 1.249 . S
N247 C248 1.307 . S
N247 C249 1.333 . S
N247 Zn253 2.020 . S
C248 N247 1.307 . S
C248 C252 1.370 . S
C248 H259 0.948 . S
C249 N247 1.333 . S
C249 C250 1.379 . S
C249 H257 0.952 . S
C250 C249 1.379 . S
C250 C251 1.390 . S
C250 H270 0.949 . S
C251 C250 1.390 . S
C251 C252 1.357 . S
C252 C248 1.370 . S
C252 C251 1.357 . S
C252 H271 0.950 . S
Zn253 N247 2.020 . S
Zn253 O256 2.025 . S
Zn253 O261 2.024 . S
Zn253 O263 2.039 . S
Zn253 O265 2.034 . S
O254 C238 1.251 . S
O254 Zn245 2.039 . S
C255 O260 1.246 . S
C255 O261 1.249 . S
O256 C238 1.254 . S
O256 Zn253 2.025 . S
H257 C249 0.952 . S
H258 C240 0.952 . S
H259 C248 0.948 . S
O260 Zn245 2.034 . S
O260 C255 1.246 . S
O261 Zn253 2.024 . S
O261 C255 1.249 . S
H262 C244 0.948 . S
O263 Zn253 2.039 . S
O263 C267 1.251 . S
O264 Zn245 2.025 . S
O264 C267 1.254 . S
O265 C246 1.246 . S
O265 Zn253 2.034 . S
O266 Zn245 2.024 . S
O266 C246 1.249 . S
C267 O263 1.251 . S
C267 O264 1.254 . S
H268 C241 0.949 . S
H269 C243 0.950 . S
H270 C250 0.949 . S
H271 C252 0.950 . S
C272 O288 1.251 . S
C272 O290 1.254 . S
N273 C274 1.333 . S
N273 C278 1.307 . S
N273 Zn279 2.020 . S
C274 N273 1.333 . S
C274 C275 1.379 . S
C274 H292 0.952 . S
C275 C274 1.379 . S
C275 C276 1.390 . S
C275 H302 0.949 . S
C276 C275 1.390 . S
C276 C277 1.357 . S
C277 C276 1.357 . S
C277 C278 1.370 . S
C277 H303 0.950 . S
C278 N273 1.307 . S
C278 C277 1.370 . S
C278 H296 0.948 . S
Zn279 N273 2.020 . S
Zn279 O288 2.039 . S
Zn279 O294 2.034 . S
Zn279 O298 2.025 . S
Zn279 O300 2.024 . S
C280 O299 1.246 . S
C280 O300 1.249 . S
N281 C282 1.307 . S
N281 C283 1.333 . S
N281 Zn287 2.020 . S
C282 N281 1.307 . S
C282 C286 1.370 . S
C282 H293 0.948 . S
C283 N281 1.333 . S
C283 C284 1.379 . S
C283 H291 0.952 . S
C284 C283 1.379 . S
C284 C285 1.390 . S
C284 H304 0.949 . S
C285 C284 1.390 . S
C285 C286 1.357 . S
C286 C282 1.370 . S
C286 C285 1.357 . S
C286 H305 0.950 . S
Zn287 N281 2.020 . S
Zn287 O290 2.025 . S
Zn287 O295 2.024 . S
Zn287 O297 2.039 . S
Zn287 O299 2.034 . S
O288 C272 1.251 . S
O288 Zn279 2.039 . S
C289 O294 1.246 . S
C289 O295 1.249 . S
O290 C272 1.254 . S
O290 Zn287 2.025 . S
H291 C283 0.952 . S
H292 C274 0.952 . S
H293 C282 0.948 . S
O294 Zn279 2.034 . S
O294 C289 1.246 . S
O295 Zn287 2.024 . S
O295 C289 1.249 . S
H296 C278 0.948 . S
O297 Zn287 2.039 . S
O297 C301 1.251 . S
O298 Zn279 2.025 . S
O298 C301 1.254 . S
O299 C280 1.246 . S
O299 Zn287 2.034 . S
O300 Zn279 2.024 . S
O300 C280 1.249 . S
C301 O297 1.251 . S
C301 O298 1.254 . S
H302 C275 0.949 . S
H303 C277 0.950 . S
H304 C284 0.949 . S
H305 C286 0.950 . S
C306 O322 1.251 . S
C306 O324 1.254 . S
N307 C308 1.333 . S
N307 C312 1.307 . S
N307 Zn313 2.020 . S
C308 N307 1.333 . S
C308 C309 1.379 . S
C308 H326 0.952 . S
C309 C308 1.379 . S
C309 C310 1.390 . S
C309 H336 0.949 . S
C310 C309 1.390 . S
C310 C311 1.357 . S
C311 C310 1.357 . S
C311 C312 1.370 . S
C311 H337 0.950 . S
C312 N307 1.307 . S
C312 C311 1.370 . S
C312 H330 0.948 . S
Zn313 N307 2.020 . S
Zn313 O322 2.039 . S
Zn313 O328 2.034 . S
Zn313 O332 2.025 . S
Zn313 O334 2.024 . S
C314 O333 1.246 . S
C314 O334 1.249 . S
N315 C316 1.307 1_455 S
N315 C317 1.333 . S
N315 Zn321 2.020 . S
C316 N315 1.307 1_655 S
C316 C320 1.370 . S
C316 H327 0.948 . S
C317 N315 1.333 . S
C317 C318 1.379 . S
C317 H325 0.952 . S
C318 C317 1.379 . S
C318 C319 1.390 1_455 S
C318 H338 0.949 . S
C319 C318 1.390 1_655 S
C319 C320 1.357 . S
C320 C316 1.370 . S
C320 C319 1.357 . S
C320 H339 0.950 . S
Zn321 N315 2.020 . S
Zn321 O324 2.025 . S
Zn321 O329 2.024 . S
Zn321 O331 2.039 . S
Zn321 O333 2.034 . S
O322 C306 1.251 . S
O322 Zn313 2.039 . S
C323 O328 1.246 . S
C323 O329 1.249 . S
O324 C306 1.254 . S
O324 Zn321 2.025 . S
H325 C317 0.952 . S
H326 C308 0.952 . S
H327 C316 0.948 . S
O328 Zn313 2.034 . S
O328 C323 1.246 . S
O329 Zn321 2.024 . S
O329 C323 1.249 . S
H330 C312 0.948 . S
O331 Zn321 2.039 . S
O331 C335 1.251 . S
O332 Zn313 2.025 . S
O332 C335 1.254 . S
O333 C314 1.246 . S
O333 Zn321 2.034 . S
O334 Zn313 2.024 . S
O334 C314 1.249 . S
C335 O331 1.251 . S
C335 O332 1.254 . S
H336 C309 0.949 . S
H337 C311 0.950 . S
H338 C318 0.949 . S
H339 C320 0.950 . S
C340 O356 1.251 . S
C340 O358 1.254 . S
N341 C342 1.333 . S
N341 C346 1.307 . S
N341 Zn347 2.020 . S
C342 N341 1.333 . S
C342 C343 1.379 . S
C342 H360 0.952 . S
C343 C342 1.379 . S
C343 C344 1.390 . S
C343 H370 0.949 . S
C344 C343 1.390 . S
C344 C345 1.357 . S
C345 C344 1.357 . S
C345 C346 1.370 . S
C345 H371 0.950 . S
C346 N341 1.307 . S
C346 C345 1.370 . S
C346 H364 0.948 . S
Zn347 N341 2.020 . S
Zn347 O356 2.039 . S
Zn347 O362 2.034 . S
Zn347 O366 2.025 . S
Zn347 O368 2.024 . S
C348 O367 1.246 . S
C348 O368 1.249 . S
N349 C350 1.307 . S
N349 C351 1.333 1_554 S
N349 Zn355 2.020 . S
C350 N349 1.307 . S
C350 C354 1.370 . S
C350 H361 0.948 . S
C351 N349 1.333 1_556 S
C351 C352 1.379 . S
C351 H359 0.952 . S
C352 C351 1.379 . S
C352 C353 1.390 . S
C352 H372 0.949 . S
C353 C352 1.390 . S
C353 C354 1.357 1_556 S
C354 C350 1.370 . S
C354 C353 1.357 1_554 S
C354 H373 0.950 . S
Zn355 N349 2.020 . S
Zn355 O358 2.025 . S
Zn355 O363 2.024 . S
Zn355 O365 2.039 . S
Zn355 O367 2.034 . S
O356 C340 1.251 . S
O356 Zn347 2.039 . S
C357 O362 1.246 . S
C357 O363 1.249 . S
O358 C340 1.254 . S
O358 Zn355 2.025 . S
H359 C351 0.952 . S
H360 C342 0.952 . S
H361 C350 0.948 . S
O362 Zn347 2.034 . S
O362 C357 1.246 . S
O363 Zn355 2.024 . S
O363 C357 1.249 . S
H364 C346 0.948 . S
O365 Zn355 2.039 . S
O365 C369 1.251 . S
O366 Zn347 2.025 . S
O366 C369 1.254 . S
O367 C348 1.246 . S
O367 Zn355 2.034 . S
O368 Zn347 2.024 . S
O368 C348 1.249 . S
C369 O365 1.251 . S
C369 O366 1.254 . S
H370 C343 0.949 . S
H371 C345 0.950 . S
H372 C352 0.949 . S
H373 C354 0.950 . S
C374 O390 1.251 . S
C374 O392 1.254 . S
N375 C376 1.333 . S
N375 C380 1.307 . S
N375 Zn381 2.020 . S
C376 N375 1.333 . S
C376 C377 1.379 . S
C376 H394 0.952 . S
C377 C376 1.379 . S
C377 C378 1.390 . S
C377 H404 0.949 . S
C378 C377 1.390 . S
C378 C379 1.357 . S
C379 C378 1.357 . S
C379 C380 1.370 . S
C379 H405 0.950 . S
C380 N375 1.307 . S
C380 C379 1.370 . S
C380 H398 0.948 . S
Zn381 N375 2.020 . S
Zn381 O390 2.039 . S
Zn381 O396 2.034 . S
Zn381 O400 2.025 . S
Zn381 O402 2.024 . S
C382 O401 1.246 . S
C382 O402 1.249 . S
N383 C384 1.307 . S
N383 C385 1.333 . S
N383 Zn389 2.020 . S
C384 N383 1.307 . S
C384 C388 1.370 . S
C384 H395 0.948 . S
C385 N383 1.333 . S
C385 C386 1.379 . S
C385 H393 0.952 . S
C386 C385 1.379 . S
C386 C387 1.390 . S
C386 H406 0.949 . S
C387 C386 1.390 . S
C387 C388 1.357 . S
C388 C384 1.370 . S
C388 C387 1.357 . S
C388 H407 0.950 . S
Zn389 N383 2.020 . S
Zn389 O392 2.025 . S
Zn389 O397 2.024 . S
Zn389 O399 2.039 . S
Zn389 O401 2.034 . S
O390 C374 1.251 . S
O390 Zn381 2.039 . S
C391 O396 1.246 . S
C391 O397 1.249 . S
O392 C374 1.254 . S
O392 Zn389 2.025 . S
H393 C385 0.952 . S
H394 C376 0.952 . S
H395 C384 0.948 . S
O396 Zn381 2.034 . S
O396 C391 1.246 . S
O397 Zn389 2.024 . S
O397 C391 1.249 . S
H398 C380 0.948 . S
O399 Zn389 2.039 . S
O399 C403 1.251 . S
O400 Zn381 2.025 . S
O400 C403 1.254 . S
O401 C382 1.246 . S
O401 Zn389 2.034 . S
O402 Zn381 2.024 . S
O402 C382 1.249 . S
C403 O399 1.251 . S
C403 O400 1.254 . S
H404 C377 0.949 . S
H405 C379 0.950 . S
H406 C386 0.949 . S
H407 C388 0.950 . S
C408 O424 1.251 . S
C408 O426 1.254 . S
N409 C410 1.333 . S
N409 C414 1.307 . S
N409 Zn415 2.020 . S
C410 N409 1.333 . S
C410 C411 1.379 . S
C410 H428 0.952 . S
C411 C410 1.379 . S
C411 C412 1.390 . S
C411 H438 0.949 . S
C412 C411 1.390 . S
C412 C413 1.357 . S
C413 C412 1.357 . S
C413 C414 1.370 . S
C413 H439 0.950 . S
C414 N409 1.307 . S
C414 C413 1.370 . S
C414 H432 0.948 . S
Zn415 N409 2.020 . S
Zn415 O424 2.039 . S
Zn415 O430 2.034 . S
Zn415 O434 2.025 . S
Zn415 O436 2.024 . S
C416 O435 1.246 . S
C416 O436 1.249 . S
N417 C418 1.307 . S
N417 C419 1.333 . S
N417 Zn423 2.020 . S
C418 N417 1.307 . S
C418 C422 1.370 . S
C418 H429 0.948 . S
C419 N417 1.333 . S
C419 C420 1.379 . S
C419 H427 0.952 . S
C420 C419 1.379 . S
C420 C421 1.390 . S
C420 H440 0.949 . S
C421 C420 1.390 . S
C421 C422 1.357 . S
C422 C418 1.370 . S
C422 C421 1.357 . S
C422 H441 0.950 . S
Zn423 N417 2.020 . S
Zn423 O426 2.025 . S
Zn423 O431 2.024 . S
Zn423 O433 2.039 . S
Zn423 O435 2.034 . S
O424 C408 1.251 . S
O424 Zn415 2.039 . S
C425 O430 1.246 . S
C425 O431 1.249 . S
O426 C408 1.254 . S
O426 Zn423 2.025 . S
H427 C419 0.952 . S
H428 C410 0.952 . S
H429 C418 0.948 . S
O430 Zn415 2.034 . S
O430 C425 1.246 . S
O431 Zn423 2.024 . S
O431 C425 1.249 . S
H432 C414 0.948 . S
O433 Zn423 2.039 . S
O433 C437 1.251 . S
O434 Zn415 2.025 . S
O434 C437 1.254 . S
O435 C416 1.246 . S
O435 Zn423 2.034 . S
O436 Zn415 2.024 . S
O436 C416 1.249 . S
C437 O433 1.251 . S
C437 O434 1.254 . S
H438 C411 0.949 . S
H439 C413 0.950 . S
H440 C420 0.949 . S
H441 C422 0.950 . S
C442 O458 1.251 . S
C442 O460 1.254 . S
N443 C444 1.333 . S
N443 C448 1.307 1_655 S
N443 Zn449 2.020 . S
C444 N443 1.333 . S
C444 C445 1.379 . S
C444 H462 0.952 . S
C445 C444 1.379 . S
C445 C446 1.390 1_655 S
C445 H472 0.949 . S
C446 C445 1.390 1_455 S
C446 C447 1.357 . S
C447 C446 1.357 . S
C447 C448 1.370 . S
C447 H473 0.950 . S
C448 N443 1.307 1_455 S
C448 C447 1.370 . S
C448 H466 0.948 . S
Zn449 N443 2.020 . S
Zn449 O458 2.039 . S
Zn449 O464 2.034 . S
Zn449 O468 2.025 . S
Zn449 O470 2.024 . S
C450 O469 1.246 . S
C450 O470 1.249 . S
N451 C452 1.307 . S
N451 C453 1.333 . S
N451 Zn457 2.020 . S
C452 N451 1.307 . S
C452 C456 1.370 . S
C452 H463 0.948 . S
C453 N451 1.333 . S
C453 C454 1.379 . S
C453 H461 0.952 . S
C454 C453 1.379 . S
C454 C455 1.390 . S
C454 H474 0.949 . S
C455 C454 1.390 . S
C455 C456 1.357 . S
C456 C452 1.370 . S
C456 C455 1.357 . S
C456 H475 0.950 . S
Zn457 N451 2.020 . S
Zn457 O460 2.025 . S
Zn457 O465 2.024 . S
Zn457 O467 2.039 . S
Zn457 O469 2.034 . S
O458 C442 1.251 . S
O458 Zn449 2.039 . S
C459 O464 1.246 . S
C459 O465 1.249 . S
O460 C442 1.254 . S
O460 Zn457 2.025 . S
H461 C453 0.952 . S
H462 C444 0.952 . S
H463 C452 0.948 . S
O464 Zn449 2.034 . S
O464 C459 1.246 . S
O465 Zn457 2.024 . S
O465 C459 1.249 . S
H466 C448 0.948 . S
O467 Zn457 2.039 . S
O467 C471 1.251 . S
O468 Zn449 2.025 . S
O468 C471 1.254 . S
O469 C450 1.246 . S
O469 Zn457 2.034 . S
O470 Zn449 2.024 . S
O470 C450 1.249 . S
C471 O467 1.251 . S
C471 O468 1.254 . S
H472 C445 0.949 . S
H473 C447 0.950 . S
H474 C454 0.949 . S
H475 C456 0.950 . S
C476 O492 1.251 . S
C476 O494 1.254 . S
N477 C478 1.333 1_556 S
N477 C482 1.307 . S
N477 Zn483 2.020 . S
C478 N477 1.333 1_554 S
C478 C479 1.379 . S
C478 H496 0.952 . S
C479 C478 1.379 . S
C479 C480 1.390 . S
C479 H506 0.949 . S
C480 C479 1.390 . S
C480 C481 1.357 1_554 S
C481 C480 1.357 1_556 S
C481 C482 1.370 . S
C481 H507 0.950 . S
C482 N477 1.307 . S
C482 C481 1.370 . S
C482 H500 0.948 . S
Zn483 N477 2.020 . S
Zn483 O492 2.039 . S
Zn483 O498 2.034 . S
Zn483 O502 2.025 . S
Zn483 O504 2.024 . S
C484 O503 1.246 . S
C484 O504 1.249 . S
N485 C486 1.307 . S
N485 C487 1.333 . S
N485 Zn491 2.020 . S
C486 N485 1.307 . S
C486 C490 1.370 . S
C486 H497 0.948 . S
C487 N485 1.333 . S
C487 C488 1.379 . S
C487 H495 0.952 . S
C488 C487 1.379 . S
C488 C489 1.390 . S
C488 H508 0.949 . S
C489 C488 1.390 . S
C489 C490 1.357 . S
C490 C486 1.370 . S
C490 C489 1.357 . S
C490 H509 0.950 . S
Zn491 N485 2.020 . S
Zn491 O494 2.025 . S
Zn491 O499 2.024 . S
Zn491 O501 2.039 . S
Zn491 O503 2.034 . S
O492 C476 1.251 . S
O492 Zn483 2.039 . S
C493 O498 1.246 . S
C493 O499 1.249 . S
O494 C476 1.254 . S
O494 Zn491 2.025 . S
H495 C487 0.952 . S
H496 C478 0.952 . S
H497 C486 0.948 . S
O498 Zn483 2.034 . S
O498 C493 1.246 . S
O499 Zn491 2.024 . S
O499 C493 1.249 . S
H500 C482 0.948 . S
O501 Zn491 2.039 . S
O501 C505 1.251 . S
O502 Zn483 2.025 . S
O502 C505 1.254 . S
O503 C484 1.246 . S
O503 Zn491 2.034 . S
O504 Zn483 2.024 . S
O504 C484 1.249 . S
C505 O501 1.251 . S
C505 O502 1.254 . S
H506 C479 0.949 . S
H507 C481 0.950 . S
H508 C488 0.949 . S
H509 C490 0.950 . S
C510 O526 1.251 . S
C510 O528 1.254 . S
N511 C512 1.333 . S
N511 C516 1.307 . S
N511 Zn517 2.020 . S
C512 N511 1.333 . S
C512 C513 1.379 . S
C512 H530 0.952 . S
C513 C512 1.379 . S
C513 C514 1.390 . S
C513 H540 0.949 . S
C514 C513 1.390 . S
C514 C515 1.357 . S
C515 C514 1.357 . S
C515 C516 1.370 . S
C515 H541 0.950 . S
C516 N511 1.307 . S
C516 C515 1.370 . S
C516 H534 0.948 . S
Zn517 N511 2.020 . S
Zn517 O526 2.039 . S
Zn517 O532 2.034 . S
Zn517 O536 2.025 . S
Zn517 O538 2.024 . S
C518 O537 1.246 . S
C518 O538 1.249 . S
N519 C520 1.307 . S
N519 C521 1.333 . S
N519 Zn525 2.020 . S
C520 N519 1.307 . S
C520 C524 1.370 . S
C520 H531 0.948 . S
C521 N519 1.333 . S
C521 C522 1.379 . S
C521 H529 0.952 . S
C522 C521 1.379 . S
C522 C523 1.390 . S
C522 H542 0.949 . S
C523 C522 1.390 . S
C523 C524 1.357 . S
C524 C520 1.370 . S
C524 C523 1.357 . S
C524 H543 0.950 . S
Zn525 N519 2.020 . S
Zn525 O528 2.025 . S
Zn525 O533 2.024 . S
Zn525 O535 2.039 . S
Zn525 O537 2.034 . S
O526 C510 1.251 . S
O526 Zn517 2.039 . S
C527 O532 1.246 . S
C527 O533 1.249 . S
O528 C510 1.254 . S
O528 Zn525 2.025 . S
H529 C521 0.952 . S
H530 C512 0.952 . S
H531 C520 0.948 . S
O532 Zn517 2.034 . S
O532 C527 1.246 . S
O533 Zn525 2.024 . S
O533 C527 1.249 . S
H534 C516 0.948 . S
O535 Zn525 2.039 . S
O535 C539 1.251 . S
O536 Zn517 2.025 . S
O536 C539 1.254 . S
O537 C518 1.246 . S
O537 Zn525 2.034 . S
O538 Zn517 2.024 . S
O538 C518 1.249 . S
C539 O535 1.251 . S
C539 O536 1.254 . S
H540 C513 0.949 . S
H541 C515 0.950 . S
H542 C522 0.949 . S
H543 C524 0.950 . S
H544 C552 0.929 . S
H545 C554 0.930 . S
H546 C556 0.930 . S
H547 C559 0.929 . S
H548 C562 0.930 . S
H549 C564 0.960 . S
H550 C564 0.960 . S
H551 C564 0.960 . S
C552 H544 0.929 . S
C552 C553 1.377 . S
C552 C554 1.384 . S
C553 C552 1.377 . S
C553 C559 1.390 . S
C554 H545 0.930 . S
C554 C552 1.384 . S
C554 C555 1.372 . S
C555 C554 1.372 . S
C555 C556 1.400 . S
C555 C560 1.490 . S
C556 H546 0.930 . S
C556 C555 1.400 . S
C556 C559 1.386 . S
H557 C573 0.930 . S
H558 C574 0.931 . S
C559 H547 0.929 . S
C559 C553 1.390 . S
C559 C556 1.386 . S
C560 C555 1.490 . S
C560 C562 1.395 . S
C560 C563 1.403 . S
H561 C567 0.930 . S
C562 H548 0.930 . S
C562 C560 1.395 . S
C562 C565 1.403 . S
C563 C560 1.403 . S
C563 C564 1.524 . S
C563 C567 1.400 . S
C564 H549 0.960 . S
C564 H550 0.960 . S
C564 H551 0.960 . S
C564 C563 1.524 . S
C565 C562 1.403 . S
C565 C566 1.392 . S
C565 C569 1.495 . S
C566 C565 1.392 . S
C566 C567 1.385 . S
C566 C568 1.478 . S
C567 H561 0.930 . S
C567 C563 1.400 . S
C567 C566 1.385 . S
C568 C566 1.478 . S
C568 C570 1.381 . S
C568 C574 1.383 . S
C569 C565 1.495 . S
C569 H575 0.959 . S
C569 H576 0.961 . S
C569 H577 0.960 . S
C570 C568 1.381 . S
C570 C571 1.394 . S
C570 H578 0.930 . S
C571 C570 1.394 . S
C571 C572 1.383 . S
C571 H579 0.929 . S
C572 C571 1.383 . S
C572 C573 1.377 . S
C573 H557 0.930 . S
C573 C572 1.377 . S
C573 C574 1.379 . S
C574 H558 0.931 . S
C574 C568 1.383 . S
C574 C573 1.379 . S
H575 C569 0.959 . S
H576 C569 0.961 . S
H577 C569 0.960 . S
H578 C570 0.930 . S
H579 C571 0.929 . S
H580 C588 0.929 . S
H581 C590 0.930 . S
H582 C592 0.930 . S
H583 C595 0.929 . S
H584 C598 0.930 . S
H585 C600 0.960 . S
H586 C600 0.960 . S
H587 C600 0.960 . S
C588 H580 0.929 . S
C588 C589 1.377 . S
C588 C590 1.384 . S
C589 C588 1.377 . S
C589 C595 1.390 . S
C590 H581 0.930 . S
C590 C588 1.384 . S
C590 C591 1.372 . S
C591 C590 1.372 . S
C591 C592 1.400 . S
C591 C596 1.490 . S
C592 H582 0.930 . S
C592 C591 1.400 . S
C592 C595 1.386 . S
H593 C609 0.930 . S
H594 C610 0.931 . S
C595 H583 0.929 . S
C595 C589 1.390 . S
C595 C592 1.386 . S
C596 C591 1.490 . S
C596 C598 1.395 . S
C596 C599 1.403 . S
H597 C603 0.930 . S
C598 H584 0.930 . S
C598 C596 1.395 . S
C598 C601 1.403 . S
C599 C596 1.403 . S
C599 C600 1.524 . S
C599 C603 1.400 . S
C600 H585 0.960 . S
C600 H586 0.960 . S
C600 H587 0.960 . S
C600 C599 1.524 . S
C601 C598 1.403 . S
C601 C602 1.392 . S
C601 C605 1.495 . S
C602 C601 1.392 . S
C602 C603 1.385 . S
C602 C604 1.478 . S
C603 H597 0.930 . S
C603 C599 1.400 . S
C603 C602 1.385 . S
C604 C602 1.478 . S
C604 C606 1.381 . S
C604 C610 1.383 . S
C605 C601 1.495 . S
C605 H611 0.959 . S
C605 H612 0.961 . S
C605 H613 0.960 . S
C606 C604 1.381 . S
C606 C607 1.394 . S
C606 H614 0.930 . S
C607 C606 1.394 . S
C607 C608 1.383 . S
C607 H615 0.929 . S
C608 C607 1.383 . S
C608 C609 1.377 . S
C609 H593 0.930 . S
C609 C608 1.377 . S
C609 C610 1.379 . S
C610 H594 0.931 . S
C610 C604 1.383 . S
C610 C609 1.379 . S
H611 C605 0.959 . S
H612 C605 0.961 . S
H613 C605 0.960 . S
H614 C606 0.930 . S
H615 C607 0.929 . S
H616 C624 0.929 . S
H617 C626 0.930 . S
H618 C628 0.930 . S
H619 C631 0.929 . S
H620 C634 0.930 . S
H621 C636 0.960 . S
H622 C636 0.960 . S
H623 C636 0.960 . S
C624 H616 0.929 . S
C624 C625 1.377 . S
C624 C626 1.384 . S
C625 C624 1.377 . S
C625 C631 1.390 . S
C626 H617 0.930 . S
C626 C624 1.384 . S
C626 C627 1.372 . S
C627 C626 1.372 . S
C627 C628 1.400 . S
C627 C632 1.490 . S
C628 H618 0.930 . S
C628 C627 1.400 . S
C628 C631 1.386 . S
H629 C645 0.930 . S
H630 C646 0.931 . S
C631 H619 0.929 . S
C631 C625 1.390 . S
C631 C628 1.386 . S
C632 C627 1.490 . S
C632 C634 1.395 . S
C632 C635 1.403 . S
H633 C639 0.930 . S
C634 H620 0.930 . S
C634 C632 1.395 . S
C634 C637 1.403 1_455 S
C635 C632 1.403 . S
C635 C636 1.524 . S
C635 C639 1.400 1_455 S
C636 H621 0.960 . S
C636 H622 0.960 . S
C636 H623 0.960 . S
C636 C635 1.524 . S
C637 C634 1.403 1_655 S
C637 C638 1.392 . S
C637 C641 1.495 . S
C638 C637 1.392 . S
C638 C639 1.385 . S
C638 C640 1.478 . S
C639 H633 0.930 . S
C639 C635 1.400 1_655 S
C639 C638 1.385 . S
C640 C638 1.478 . S
C640 C642 1.381 . S
C640 C646 1.383 . S
C641 C637 1.495 . S
C641 H647 0.959 . S
C641 H648 0.961 . S
C641 H649 0.960 . S
C642 C640 1.381 . S
C642 C643 1.394 . S
C642 H650 0.930 . S
C643 C642 1.394 . S
C643 C644 1.383 . S
C643 H651 0.929 . S
C644 C643 1.383 . S
C644 C645 1.377 . S
C645 H629 0.930 . S
C645 C644 1.377 . S
C645 C646 1.379 . S
C646 H630 0.931 . S
C646 C640 1.383 . S
C646 C645 1.379 . S
H647 C641 0.959 . S
H648 C641 0.961 . S
H649 C641 0.960 . S
H650 C642 0.930 . S
H651 C643 0.929 . S
H652 C660 0.929 . S
H653 C662 0.930 . S
H654 C664 0.930 1_455 S
H655 C667 0.929 . S
H656 C670 0.930 . S
H657 C672 0.960 . S
H658 C672 0.960 1_655 S
H659 C672 0.960 . S
C660 H652 0.929 . S
C660 C661 1.377 . S
C660 C662 1.384 . S
C661 C660 1.377 . S
C661 C667 1.390 . S
C662 H653 0.930 . S
C662 C660 1.384 . S
C662 C663 1.372 . S
C663 C662 1.372 . S
C663 C664 1.400 . S
C663 C668 1.490 . S
C664 H654 0.930 1_655 S
C664 C663 1.400 . S
C664 C667 1.386 . S
H665 C681 0.930 . S
H666 C682 0.931 . S
C667 H655 0.929 . S
C667 C661 1.390 . S
C667 C664 1.386 . S
C668 C663 1.490 . S
C668 C670 1.395 . S
C668 C671 1.403 1_655 S
H669 C675 0.930 . S
C670 H656 0.930 . S
C670 C668 1.395 . S
C670 C673 1.403 . S
C671 C668 1.403 1_455 S
C671 C672 1.524 . S
C671 C675 1.400 . S
C672 H657 0.960 . S
C672 H658 0.960 1_455 S
C672 H659 0.960 . S
C672 C671 1.524 . S
C673 C670 1.403 . S
C673 C674 1.392 1_655 S
C673 C677 1.495 . S
C674 C673 1.392 1_455 S
C674 C675 1.385 . S
C674 C676 1.478 . S
C675 H669 0.930 . S
C675 C671 1.400 . S
C675 C674 1.385 . S
C676 C674 1.478 . S
C676 C678 1.381 . S
C676 C682 1.383 . S
C677 C673 1.495 . S
C677 H683 0.959 . S
C677 H684 0.961 . S
C677 H685 0.960 . S
C678 C676 1.381 . S
C678 C679 1.394 . S
C678 H686 0.930 1_455 S
C679 C678 1.394 . S
C679 C680 1.383 . S
C679 H687 0.929 . S
C680 C679 1.383 . S
C680 C681 1.377 . S
C681 H665 0.930 . S
C681 C680 1.377 . S
C681 C682 1.379 . S
C682 H666 0.931 . S
C682 C676 1.383 . S
C682 C681 1.379 . S
H683 C677 0.959 . S
H684 C677 0.961 . S
H685 C677 0.960 . S
H686 C678 0.930 1_655 S
H687 C679 0.929 . S
H688 C696 0.929 . S
H689 C698 0.930 . S
H690 C700 0.930 . S
H691 C703 0.929 . S
H692 C706 0.930 . S
H693 C708 0.960 . S
H694 C708 0.960 . S
H695 C708 0.960 . S
C696 H688 0.929 . S
C696 C697 1.377 . S
C696 C698 1.384 . S
C697 C696 1.377 . S
C697 C703 1.390 . S
C698 H689 0.930 . S
C698 C696 1.384 . S
C698 C699 1.372 . S
C699 C698 1.372 . S
C699 C700 1.400 . S
C699 C704 1.490 . S
C700 H690 0.930 . S
C700 C699 1.400 . S
C700 C703 1.386 . S
H701 C717 0.930 . S
H702 C718 0.931 . S
C703 H691 0.929 . S
C703 C697 1.390 . S
C703 C700 1.386 . S
C704 C699 1.490 . S
C704 C706 1.395 . S
C704 C707 1.403 . S
H705 C711 0.930 . S
C706 H692 0.930 . S
C706 C704 1.395 . S
C706 C709 1.403 . S
C707 C704 1.403 . S
C707 C708 1.524 . S
C707 C711 1.400 . S
C708 H693 0.960 . S
C708 H694 0.960 . S
C708 H695 0.960 . S
C708 C707 1.524 . S
C709 C706 1.403 . S
C709 C710 1.392 . S
C709 C713 1.495 . S
C710 C709 1.392 . S
C710 C711 1.385 . S
C710 C712 1.478 . S
C711 H705 0.930 . S
C711 C707 1.400 . S
C711 C710 1.385 . S
C712 C710 1.478 . S
C712 C714 1.381 . S
C712 C718 1.383 . S
C713 C709 1.495 . S
C713 H719 0.959 . S
C713 H720 0.961 . S
C713 H721 0.960 . S
C714 C712 1.381 . S
C714 C715 1.394 . S
C714 H722 0.930 . S
C715 C714 1.394 . S
C715 C716 1.383 . S
C715 H723 0.929 . S
C716 C715 1.383 . S
C716 C717 1.377 . S
C717 H701 0.930 . S
C717 C716 1.377 . S
C717 C718 1.379 . S
C718 H702 0.931 . S
C718 C712 1.383 . S
C718 C717 1.379 . S
H719 C713 0.959 . S
H720 C713 0.961 . S
H721 C713 0.960 . S
H722 C714 0.930 . S
H723 C715 0.929 . S
H724 C732 0.929 . S
H725 C734 0.930 . S
H726 C736 0.930 . S
H727 C739 0.929 . S
H728 C742 0.930 . S
H729 C744 0.960 . S
H730 C744 0.960 . S
H731 C744 0.960 . S
C732 H724 0.929 . S
C732 C733 1.377 . S
C732 C734 1.384 . S
C733 C732 1.377 . S
C733 C739 1.390 . S
C734 H725 0.930 . S
C734 C732 1.384 . S
C734 C735 1.372 . S
C735 C734 1.372 . S
C735 C736 1.400 . S
C735 C740 1.490 . S
C736 H726 0.930 . S
C736 C735 1.400 . S
C736 C739 1.386 . S
H737 C753 0.930 . S
H738 C754 0.931 . S
C739 H727 0.929 . S
C739 C733 1.390 . S
C739 C736 1.386 . S
C740 C735 1.490 . S
C740 C742 1.395 . S
C740 C743 1.403 . S
H741 C747 0.930 . S
C742 H728 0.930 . S
C742 C740 1.395 . S
C742 C745 1.403 . S
C743 C740 1.403 . S
C743 C744 1.524 . S
C743 C747 1.400 . S
C744 H729 0.960 . S
C744 H730 0.960 . S
C744 H731 0.960 . S
C744 C743 1.524 . S
C745 C742 1.403 . S
C745 C746 1.392 . S
C745 C749 1.495 . S
C746 C745 1.392 . S
C746 C747 1.385 . S
C746 C748 1.478 . S
C747 H741 0.930 . S
C747 C743 1.400 . S
C747 C746 1.385 . S
C748 C746 1.478 . S
C748 C750 1.381 . S
C748 C754 1.383 . S
C749 C745 1.495 . S
C749 H755 0.959 . S
C749 H756 0.961 . S
C749 H757 0.960 . S
C750 C748 1.381 . S
C750 C751 1.394 . S
C750 H758 0.930 . S
C751 C750 1.394 . S
C751 C752 1.383 . S
C751 H759 0.929 . S
C752 C751 1.383 . S
C752 C753 1.377 . S
C753 H737 0.930 . S
C753 C752 1.377 . S
C753 C754 1.379 . S
C754 H738 0.931 . S
C754 C748 1.383 . S
C754 C753 1.379 . S
H755 C749 0.959 . S
H756 C749 0.961 . S
H757 C749 0.960 . S
H758 C750 0.930 . S
H759 C751 0.929 . S
H760 C768 0.929 . S
H761 C770 0.930 . S
H762 C772 0.930 . S
H763 C775 0.929 . S
H764 C778 0.930 . S
H765 C780 0.960 . S
H766 C780 0.960 . S
H767 C780 0.960 . S
C768 H760 0.929 . S
C768 C769 1.377 . S
C768 C770 1.384 . S
C769 C768 1.377 . S
C769 C775 1.390 . S
C770 H761 0.930 . S
C770 C768 1.384 . S
C770 C771 1.372 . S
C771 C770 1.372 . S
C771 C772 1.400 . S
C771 C776 1.490 . S
C772 H762 0.930 . S
C772 C771 1.400 . S
C772 C775 1.386 . S
H773 C789 0.930 . S
H774 C790 0.931 . S
C775 H763 0.929 . S
C775 C769 1.390 . S
C775 C772 1.386 . S
C776 C771 1.490 . S
C776 C778 1.395 . S
C776 C779 1.403 . S
H777 C783 0.930 . S
C778 H764 0.930 . S
C778 C776 1.395 . S
C778 C781 1.403 1_655 S
C779 C776 1.403 . S
C779 C780 1.524 . S
C779 C783 1.400 1_655 S
C780 H765 0.960 . S
C780 H766 0.960 . S
C780 H767 0.960 . S
C780 C779 1.524 . S
C781 C778 1.403 1_455 S
C781 C782 1.392 . S
C781 C785 1.495 . S
C782 C781 1.392 . S
C782 C783 1.385 . S
C782 C784 1.478 . S
C783 H777 0.930 . S
C783 C779 1.400 1_455 S
C783 C782 1.385 . S
C784 C782 1.478 . S
C784 C786 1.381 . S
C784 C790 1.383 . S
C785 C781 1.495 . S
C785 H791 0.959 . S
C785 H792 0.961 . S
C785 H793 0.960 . S
C786 C784 1.381 . S
C786 C787 1.394 . S
C786 H794 0.930 . S
C787 C786 1.394 . S
C787 C788 1.383 . S
C787 H795 0.929 . S
C788 C787 1.383 . S
C788 C789 1.377 . S
C789 H773 0.930 . S
C789 C788 1.377 . S
C789 C790 1.379 . S
C790 H774 0.931 . S
C790 C784 1.383 . S
C790 C789 1.379 . S
H791 C785 0.959 . S
H792 C785 0.961 . S
H793 C785 0.960 . S
H794 C786 0.930 . S
H795 C787 0.929 . S
H796 C804 0.929 . S
H797 C806 0.930 1_655 S
H798 C808 0.930 . S
H799 C811 0.929 . S
H800 C814 0.930 . S
H801 C816 0.960 . S
H802 C816 0.960 . S
H803 C816 0.960 . S
C804 H796 0.929 . S
C804 C805 1.377 . S
C804 C806 1.384 . S
C805 C804 1.377 . S
C805 C811 1.390 . S
C806 H797 0.930 1_455 S
C806 C804 1.384 . S
C806 C807 1.372 . S
C807 C806 1.372 . S
C807 C808 1.400 . S
C807 C812 1.490 . S
C808 H798 0.930 . S
C808 C807 1.400 . S
C808 C811 1.386 . S
H809 C825 0.930 . S
H810 C826 0.931 . S
C811 H799 0.929 . S
C811 C805 1.390 . S
C811 C808 1.386 . S
C812 C807 1.490 . S
C812 C814 1.395 1_455 S
C812 C815 1.403 . S
H813 C819 0.930 . S
C814 H800 0.930 . S
C814 C812 1.395 1_655 S
C814 C817 1.403 . S
C815 C812 1.403 . S
C815 C816 1.524 . S
C815 C819 1.400 . S
C816 H801 0.960 . S
C816 H802 0.960 . S
C816 H803 0.960 . S
C816 C815 1.524 . S
C817 C814 1.403 . S
C817 C818 1.392 . S
C817 C821 1.495 . S
C818 C817 1.392 . S
C818 C819 1.385 1_655 S
C818 C820 1.478 . S
C819 H813 0.930 . S
C819 C815 1.400 . S
C819 C818 1.385 1_455 S
C820 C818 1.478 . S
C820 C822 1.381 . S
C820 C826 1.383 . S
C821 C817 1.495 . S
C821 H827 0.959 . S
C821 H828 0.961 . S
C821 H829 0.960 . S
C822 C820 1.381 . S
C822 C823 1.394 . S
C822 H830 0.930 . S
C823 C822 1.394 . S
C823 C824 1.383 . S
C823 H831 0.929 . S
C824 C823 1.383 . S
C824 C825 1.377 . S
C825 H809 0.930 . S
C825 C824 1.377 . S
C825 C826 1.379 . S
C826 H810 0.931 . S
C826 C820 1.383 . S
C826 C825 1.379 . S
H827 C821 0.959 . S
H828 C821 0.961 . S
H829 C821 0.960 . S
H830 C822 0.930 . S
H831 C823 0.929 . S
H832 C840 0.929 . S
H833 C842 0.930 . S
H834 C844 0.930 . S
H835 C847 0.929 . S
H836 C850 0.930 . S
H837 C852 0.960 . S
H838 C852 0.960 . S
H839 C852 0.960 . S
C840 H832 0.929 . S
C840 C841 1.377 . S
C840 C842 1.384 . S
C841 C840 1.377 . S
C841 C847 1.390 . S
C842 H833 0.930 . S
C842 C840 1.384 . S
C842 C843 1.372 . S
C843 C842 1.372 . S
C843 C844 1.400 . S
C843 C848 1.490 . S
C844 H834 0.930 . S
C844 C843 1.400 . S
C844 C847 1.386 . S
H845 C861 0.930 . S
H846 C862 0.931 . S
C847 H835 0.929 . S
C847 C841 1.390 . S
C847 C844 1.386 . S
C848 C843 1.490 . S
C848 C850 1.395 . S
C848 C851 1.403 1_556 S
H849 C855 0.930 . S
C850 H836 0.930 . S
C850 C848 1.395 . S
C850 C853 1.403 . S
C851 C848 1.403 1_554 S
C851 C852 1.524 . S
C851 C855 1.400 . S
C852 H837 0.960 . S
C852 H838 0.960 . S
C852 H839 0.960 . S
C852 C851 1.524 . S
C853 C850 1.403 . S
C853 C854 1.392 1_556 S
C853 C857 1.495 . S
C854 C853 1.392 1_554 S
C854 C855 1.385 . S
C854 C856 1.478 . S
C855 H849 0.930 . S
C855 C851 1.400 . S
C855 C854 1.385 . S
C856 C854 1.478 . S
C856 C858 1.381 . S
C856 C862 1.383 . S
C857 C853 1.495 . S
C857 H863 0.959 . S
C857 H864 0.961 . S
C857 H865 0.960 . S
C858 C856 1.381 . S
C858 C859 1.394 . S
C858 H866 0.930 . S
C859 C858 1.394 . S
C859 C860 1.383 . S
C859 H867 0.929 . S
C860 C859 1.383 . S
C860 C861 1.377 . S
C861 H845 0.930 . S
C861 C860 1.377 . S
C861 C862 1.379 . S
C862 H846 0.931 . S
C862 C856 1.383 . S
C862 C861 1.379 . S
H863 C857 0.959 . S
H864 C857 0.961 . S
H865 C857 0.960 . S
H866 C858 0.930 . S
H867 C859 0.929 . S
H868 C876 0.929 . S
H869 C878 0.930 . S
H870 C880 0.930 . S
H871 C883 0.929 . S
H872 C886 0.930 . S
H873 C888 0.960 . S
H874 C888 0.960 . S
H875 C888 0.960 . S
C876 H868 0.929 . S
C876 C877 1.377 . S
C876 C878 1.384 . S
C877 C876 1.377 . S
C877 C883 1.390 . S
C878 H869 0.930 . S
C878 C876 1.384 . S
C878 C879 1.372 . S
C879 C878 1.372 . S
C879 C880 1.400 . S
C879 C884 1.490 . S
C880 H870 0.930 . S
C880 C879 1.400 . S
C880 C883 1.386 . S
H881 C897 0.930 . S
H882 C898 0.931 . S
C883 H871 0.929 . S
C883 C877 1.390 . S
C883 C880 1.386 . S
C884 C879 1.490 . S
C884 C886 1.395 . S
C884 C887 1.403 . S
H885 C891 0.930 . S
C886 H872 0.930 . S
C886 C884 1.395 . S
C886 C889 1.403 . S
C887 C884 1.403 . S
C887 C888 1.524 . S
C887 C891 1.400 . S
C888 H873 0.960 . S
C888 H874 0.960 . S
C888 H875 0.960 . S
C888 C887 1.524 . S
C889 C886 1.403 . S
C889 C890 1.392 . S
C889 C893 1.495 . S
C890 C889 1.392 . S
C890 C891 1.385 . S
C890 C892 1.478 . S
C891 H885 0.930 . S
C891 C887 1.400 . S
C891 C890 1.385 . S
C892 C890 1.478 . S
C892 C894 1.381 . S
C892 C898 1.383 . S
C893 C889 1.495 . S
C893 H899 0.959 . S
C893 H900 0.961 . S
C893 H901 0.960 . S
C894 C892 1.381 . S
C894 C895 1.394 . S
C894 H902 0.930 . S
C895 C894 1.394 . S
C895 C896 1.383 . S
C895 H903 0.929 . S
C896 C895 1.383 . S
C896 C897 1.377 . S
C897 H881 0.930 . S
C897 C896 1.377 . S
C897 C898 1.379 . S
C898 H882 0.931 . S
C898 C892 1.383 . S
C898 C897 1.379 . S
H899 C893 0.959 . S
H900 C893 0.961 . S
H901 C893 0.960 . S
H902 C894 0.930 . S
H903 C895 0.929 . S
H904 C912 0.929 . S
H905 C914 0.930 . S
H906 C916 0.930 . S
H907 C919 0.929 . S
H908 C922 0.930 . S
H909 C924 0.960 . S
H910 C924 0.960 . S
H911 C924 0.960 . S
C912 H904 0.929 . S
C912 C913 1.377 . S
C912 C914 1.384 . S
C913 C912 1.377 . S
C913 C919 1.390 . S
C914 H905 0.930 . S
C914 C912 1.384 . S
C914 C915 1.372 . S
C915 C914 1.372 . S
C915 C916 1.400 . S
C915 C920 1.490 . S
C916 H906 0.930 . S
C916 C915 1.400 . S
C916 C919 1.386 . S
H917 C933 0.930 . S
H918 C934 0.931 . S
C919 H907 0.929 . S
C919 C913 1.390 . S
C919 C916 1.386 . S
C920 C915 1.490 . S
C920 C922 1.395 . S
C920 C923 1.403 . S
H921 C927 0.930 . S
C922 H908 0.930 . S
C922 C920 1.395 . S
C922 C925 1.403 . S
C923 C920 1.403 . S
C923 C924 1.524 . S
C923 C927 1.400 . S
C924 H909 0.960 . S
C924 H910 0.960 . S
C924 H911 0.960 . S
C924 C923 1.524 . S
C925 C922 1.403 . S
C925 C926 1.392 . S
C925 C929 1.495 . S
C926 C925 1.392 . S
C926 C927 1.385 . S
C926 C928 1.478 . S
C927 H921 0.930 . S
C927 C923 1.400 . S
C927 C926 1.385 . S
C928 C926 1.478 . S
C928 C930 1.381 . S
C928 C934 1.383 . S
C929 C925 1.495 . S
C929 H935 0.959 . S
C929 H936 0.961 . S
C929 H937 0.960 . S
C930 C928 1.381 . S
C930 C931 1.394 . S
C930 H938 0.930 . S
C931 C930 1.394 . S
C931 C932 1.383 . S
C931 H939 0.929 . S
C932 C931 1.383 . S
C932 C933 1.377 . S
C933 H917 0.930 . S
C933 C932 1.377 . S
C933 C934 1.379 . S
C934 H918 0.931 . S
C934 C928 1.383 . S
C934 C933 1.379 . S
H935 C929 0.959 . S
H936 C929 0.961 . S
H937 C929 0.960 . S
H938 C930 0.930 . S
H939 C931 0.929 . S
H940 C948 0.929 . S
H941 C950 0.930 . S
H942 C952 0.930 . S
H943 C955 0.929 . S
H944 C958 0.930 . S
H945 C960 0.960 . S
H946 C960 0.960 . S
H947 C960 0.960 . S
C948 H940 0.929 . S
C948 C949 1.377 . S
C948 C950 1.384 . S
C949 C948 1.377 . S
C949 C955 1.390 . S
C950 H941 0.930 . S
C950 C948 1.384 . S
C950 C951 1.372 . S
C951 C950 1.372 . S
C951 C952 1.400 . S
C951 C956 1.490 . S
C952 H942 0.930 . S
C952 C951 1.400 . S
C952 C955 1.386 . S
H953 C969 0.930 . S
H954 C970 0.931 . S
C955 H943 0.929 . S
C955 C949 1.390 . S
C955 C952 1.386 . S
C956 C951 1.490 . S
C956 C958 1.395 . S
C956 C959 1.403 . S
H957 C963 0.930 . S
C958 H944 0.930 . S
C958 C956 1.395 . S
C958 C961 1.403 . S
C959 C956 1.403 . S
C959 C960 1.524 . S
C959 C963 1.400 . S
C960 H945 0.960 . S
C960 H946 0.960 . S
C960 H947 0.960 . S
C960 C959 1.524 . S
C961 C958 1.403 . S
C961 C962 1.392 . S
C961 C965 1.495 . S
C962 C961 1.392 . S
C962 C963 1.385 . S
C962 C964 1.478 . S
C963 H957 0.930 . S
C963 C959 1.400 . S
C963 C962 1.385 . S
C964 C962 1.478 . S
C964 C966 1.381 . S
C964 C970 1.383 . S
C965 C961 1.495 . S
C965 H971 0.959 . S
C965 H972 0.961 . S
C965 H973 0.960 . S
C966 C964 1.381 . S
C966 C967 1.394 . S
C966 H974 0.930 . S
C967 C966 1.394 . S
C967 C968 1.383 . S
C967 H975 0.929 . S
C968 C967 1.383 . S
C968 C969 1.377 . S
C969 H953 0.930 . S
C969 C968 1.377 . S
C969 C970 1.379 . S
C970 H954 0.931 . S
C970 C964 1.383 . S
C970 C969 1.379 . S
H971 C965 0.959 . S
H972 C965 0.961 . S
H973 C965 0.960 . S
H974 C966 0.930 . S
H975 C967 0.929 . S
H976 C984 0.929 . S
H977 C986 0.930 . S
H978 C988 0.930 1_554 S
H979 C991 0.929 . S
H980 C994 0.930 . S
H981 C996 0.960 . S
H982 C996 0.960 . S
H983 C996 0.960 . S
C984 H976 0.929 . S
C984 C985 1.377 . S
C984 C986 1.384 . S
C985 C984 1.377 . S
C985 C991 1.390 . S
C986 H977 0.930 . S
C986 C984 1.384 . S
C986 C987 1.372 . S
C987 C986 1.372 . S
C987 C988 1.400 . S
C987 C992 1.490 . S
C988 H978 0.930 1_556 S
C988 C987 1.400 . S
C988 C991 1.386 . S
H989 C1005 0.930 . S
H990 C1006 0.931 . S
C991 H979 0.929 . S
C991 C985 1.390 . S
C991 C988 1.386 . S
C992 C987 1.490 . S
C992 C994 1.395 . S
C992 C995 1.403 1_556 S
H993 C999 0.930 . S
C994 H980 0.930 . S
C994 C992 1.395 . S
C994 C997 1.403 . S
C995 C992 1.403 1_554 S
C995 C996 1.524 . S
C995 C999 1.400 . S
C996 H981 0.960 . S
C996 H982 0.960 . S
C996 H983 0.960 . S
C996 C995 1.524 . S
C997 C994 1.403 . S
C997 C998 1.392 1_556 S
C997 C1001 1.495 . S
C998 C997 1.392 1_554 S
C998 C999 1.385 . S
C998 C1000 1.478 . S
C999 H993 0.930 . S
C999 C995 1.400 . S
C999 C998 1.385 . S
C1000 C998 1.478 . S
C1000 C1002 1.381 . S
C1000 C1006 1.383 . S
C1001 C997 1.495 . S
C1001 H1007 0.959 . S
C1001 H1008 0.961 . S
C1001 H1009 0.960 . S
C1002 C1000 1.381 . S
C1002 C1003 1.394 . S
C1002 H1010 0.930 1_554 S
C1003 C1002 1.394 . S
C1003 C1004 1.383 . S
C1003 H1011 0.929 . S
C1004 C1003 1.383 . S
C1004 C1005 1.377 . S
C1005 H989 0.930 . S
C1005 C1004 1.377 . S
C1005 C1006 1.379 . S
C1006 H990 0.931 . S
C1006 C1000 1.383 . S
C1006 C1005 1.379 . S
H1007 C1001 0.959 . S
H1008 C1001 0.961 . S
H1009 C1001 0.960 . S
H1010 C1002 0.930 1_556 S
H1011 C1003 0.929 . S
H1012 C1020 0.929 . S
H1013 C1022 0.930 . S
H1014 C1024 0.930 . S
H1015 C1027 0.929 . S
H1016 C1030 0.930 . S
H1017 C1032 0.960 . S
H1018 C1032 0.960 . S
H1019 C1032 0.960 . S
C1020 H1012 0.929 . S
C1020 C1021 1.377 . S
C1020 C1022 1.384 . S
C1021 C1020 1.377 . S
C1021 C1027 1.390 . S
C1022 H1013 0.930 . S
C1022 C1020 1.384 . S
C1022 C1023 1.372 . S
C1023 C1022 1.372 . S
C1023 C1024 1.400 . S
C1023 C1028 1.490 . S
C1024 H1014 0.930 . S
C1024 C1023 1.400 . S
C1024 C1027 1.386 . S
H1025 C1041 0.930 . S
H1026 C1042 0.931 . S
C1027 H1015 0.929 . S
C1027 C1021 1.390 . S
C1027 C1024 1.386 . S
C1028 C1023 1.490 . S
C1028 C1030 1.395 . S
C1028 C1031 1.403 . S
H1029 C1035 0.930 . S
C1030 H1016 0.930 . S
C1030 C1028 1.395 . S
C1030 C1033 1.403 . S
C1031 C1028 1.403 . S
C1031 C1032 1.524 . S
C1031 C1035 1.400 . S
C1032 H1017 0.960 . S
C1032 H1018 0.960 . S
C1032 H1019 0.960 . S
C1032 C1031 1.524 . S
C1033 C1030 1.403 . S
C1033 C1034 1.392 . S
C1033 C1037 1.495 . S
C1034 C1033 1.392 . S
C1034 C1035 1.385 . S
C1034 C1036 1.478 . S
C1035 H1029 0.930 . S
C1035 C1031 1.400 . S
C1035 C1034 1.385 . S
C1036 C1034 1.478 . S
C1036 C1038 1.381 . S
C1036 C1042 1.383 . S
C1037 C1033 1.495 . S
C1037 H1043 0.959 . S
C1037 H1044 0.961 . S
C1037 H1045 0.960 . S
C1038 C1036 1.381 . S
C1038 C1039 1.394 . S
C1038 H1046 0.930 . S
C1039 C1038 1.394 . S
C1039 C1040 1.383 . S
C1039 H1047 0.929 . S
C1040 C1039 1.383 . S
C1040 C1041 1.377 . S
C1041 H1025 0.930 . S
C1041 C1040 1.377 . S
C1041 C1042 1.379 . S
C1042 H1026 0.931 . S
C1042 C1036 1.383 . S
C1042 C1041 1.379 . S
H1043 C1037 0.959 . S
H1044 C1037 0.961 . S
H1045 C1037 0.960 . S
H1046 C1038 0.930 . S
H1047 C1039 0.929 . S
H1048 C1056 0.929 . S
H1049 C1058 0.930 . S
H1050 C1060 0.930 . S
H1051 C1063 0.929 . S
H1052 C1066 0.930 . S
H1053 C1068 0.960 . S
H1054 C1068 0.960 . S
H1055 C1068 0.960 . S
C1056 H1048 0.929 . S
C1056 C1057 1.377 . S
C1056 C1058 1.384 . S
C1057 C1056 1.377 . S
C1057 C1063 1.390 . S
C1058 H1049 0.930 . S
C1058 C1056 1.384 . S
C1058 C1059 1.372 . S
C1059 C1058 1.372 . S
C1059 C1060 1.400 . S
C1059 C1064 1.490 . S
C1060 H1050 0.930 . S
C1060 C1059 1.400 . S
C1060 C1063 1.386 . S
H1061 C1077 0.930 . S
H1062 C1078 0.931 . S
C1063 H1051 0.929 . S
C1063 C1057 1.390 . S
C1063 C1060 1.386 . S
C1064 C1059 1.490 . S
C1064 C1066 1.395 . S
C1064 C1067 1.403 . S
H1065 C1071 0.930 . S
C1066 H1052 0.930 . S
C1066 C1064 1.395 . S
C1066 C1069 1.403 . S
C1067 C1064 1.403 . S
C1067 C1068 1.524 . S
C1067 C1071 1.400 . S
C1068 H1053 0.960 . S
C1068 H1054 0.960 . S
C1068 H1055 0.960 . S
C1068 C1067 1.524 . S
C1069 C1066 1.403 . S
C1069 C1070 1.392 . S
C1069 C1073 1.495 . S
C1070 C1069 1.392 . S
C1070 C1071 1.385 . S
C1070 C1072 1.478 . S
C1071 H1065 0.930 . S
C1071 C1067 1.400 . S
C1071 C1070 1.385 . S
C1072 C1070 1.478 . S
C1072 C1074 1.381 . S
C1072 C1078 1.383 . S
C1073 C1069 1.495 . S
C1073 H1079 0.959 . S
C1073 H1080 0.961 . S
C1073 H1081 0.960 . S
C1074 C1072 1.381 . S
C1074 C1075 1.394 . S
C1074 H1082 0.930 . S
C1075 C1074 1.394 . S
C1075 C1076 1.383 . S
C1075 H1083 0.929 . S
C1076 C1075 1.383 . S
C1076 C1077 1.377 . S
C1077 H1061 0.930 . S
C1077 C1076 1.377 . S
C1077 C1078 1.379 . S
C1078 H1062 0.931 . S
C1078 C1072 1.383 . S
C1078 C1077 1.379 . S
H1079 C1073 0.959 . S
H1080 C1073 0.961 . S
H1081 C1073 0.960 . S
H1082 C1074 0.930 . S
H1083 C1075 0.929 . S
H1084 C1092 0.929 . S
H1085 C1094 0.930 . S
H1086 C1096 0.930 . S
H1087 C1099 0.929 . S
H1088 C1102 0.930 . S
H1089 C1104 0.960 . S
H1090 C1104 0.960 . S
H1091 C1104 0.960 . S
C1092 H1084 0.929 . S
C1092 C1093 1.377 . S
C1092 C1094 1.384 . S
C1093 C1092 1.377 . S
C1093 C1099 1.390 . S
C1094 H1085 0.930 . S
C1094 C1092 1.384 . S
C1094 C1095 1.372 . S
C1095 C1094 1.372 . S
C1095 C1096 1.400 . S
C1095 C1100 1.490 . S
C1096 H1086 0.930 . S
C1096 C1095 1.400 . S
C1096 C1099 1.386 . S
H1097 C1113 0.930 . S
H1098 C1114 0.931 . S
C1099 H1087 0.929 . S
C1099 C1093 1.390 . S
C1099 C1096 1.386 . S
C1100 C1095 1.490 . S
C1100 C1102 1.395 . S
C1100 C1103 1.403 . S
H1101 C1107 0.930 . S
C1102 H1088 0.930 . S
C1102 C1100 1.395 . S
C1102 C1105 1.403 . S
C1103 C1100 1.403 . S
C1103 C1104 1.524 . S
C1103 C1107 1.400 . S
C1104 H1089 0.960 . S
C1104 H1090 0.960 . S
C1104 H1091 0.960 . S
C1104 C1103 1.524 . S
C1105 C1102 1.403 . S
C1105 C1106 1.392 . S
C1105 C1109 1.495 . S
C1106 C1105 1.392 . S
C1106 C1107 1.385 . S
C1106 C1108 1.478 . S
C1107 H1101 0.930 . S
C1107 C1103 1.400 . S
C1107 C1106 1.385 . S
C1108 C1106 1.478 . S
C1108 C1110 1.381 . S
C1108 C1114 1.383 . S
C1109 C1105 1.495 . S
C1109 H1115 0.959 . S
C1109 H1116 0.961 . S
C1109 H1117 0.960 . S
C1110 C1108 1.381 . S
C1110 C1111 1.394 . S
C1110 H1118 0.930 . S
C1111 C1110 1.394 . S
C1111 C1112 1.383 . S
C1111 H1119 0.929 . S
C1112 C1111 1.383 . S
C1112 C1113 1.377 . S
C1113 H1097 0.930 . S
C1113 C1112 1.377 . S
C1113 C1114 1.379 . S
C1114 H1098 0.931 . S
C1114 C1108 1.383 . S
C1114 C1113 1.379 . S
H1115 C1109 0.959 . S
H1116 C1109 0.961 . S
H1117 C1109 0.960 . S
H1118 C1110 0.930 . S
H1119 C1111 0.929 . S
H1120 C1128 0.929 . S
H1121 C1130 0.930 . S
H1122 C1132 0.930 . S
H1123 C1135 0.929 . S
H1124 C1138 0.930 . S
H1125 C1140 0.960 . S
H1126 C1140 0.960 . S
H1127 C1140 0.960 . S
C1128 H1120 0.929 . S
C1128 C1129 1.377 . S
C1128 C1130 1.384 . S
C1129 C1128 1.377 . S
C1129 C1135 1.390 . S
C1130 H1121 0.930 . S
C1130 C1128 1.384 . S
C1130 C1131 1.372 . S
C1131 C1130 1.372 . S
C1131 C1132 1.400 . S
C1131 C1136 1.490 . S
C1132 H1122 0.930 . S
C1132 C1131 1.400 . S
C1132 C1135 1.386 . S
H1133 C1149 0.930 . S
H1134 C1150 0.931 . S
C1135 H1123 0.929 . S
C1135 C1129 1.390 . S
C1135 C1132 1.386 . S
C1136 C1131 1.490 . S
C1136 C1138 1.395 . S
C1136 C1139 1.403 . S
H1137 C1143 0.930 . S
C1138 H1124 0.930 . S
C1138 C1136 1.395 . S
C1138 C1141 1.403 . S
C1139 C1136 1.403 . S
C1139 C1140 1.524 . S
C1139 C1143 1.400 . S
C1140 H1125 0.960 . S
C1140 H1126 0.960 . S
C1140 H1127 0.960 . S
C1140 C1139 1.524 . S
C1141 C1138 1.403 . S
C1141 C1142 1.392 . S
C1141 C1145 1.495 . S
C1142 C1141 1.392 . S
C1142 C1143 1.385 . S
C1142 C1144 1.478 . S
C1143 H1137 0.930 . S
C1143 C1139 1.400 . S
C1143 C1142 1.385 . S
C1144 C1142 1.478 . S
C1144 C1146 1.381 . S
C1144 C1150 1.383 . S
C1145 C1141 1.495 . S
C1145 H1151 0.959 . S
C1145 H1152 0.961 . S
C1145 H1153 0.960 . S
C1146 C1144 1.381 . S
C1146 C1147 1.394 . S
C1146 H1154 0.930 . S
C1147 C1146 1.394 . S
C1147 C1148 1.383 . S
C1147 H1155 0.929 . S
C1148 C1147 1.383 . S
C1148 C1149 1.377 . S
C1149 H1133 0.930 . S
C1149 C1148 1.377 . S
C1149 C1150 1.379 . S
C1150 H1134 0.931 . S
C1150 C1144 1.383 . S
C1150 C1149 1.379 . S
H1151 C1145 0.959 . S
H1152 C1145 0.961 . S
H1153 C1145 0.960 . S
H1154 C1146 0.930 . S
H1155 C1147 0.929 . S
H1156 C1164 0.929 . S
H1157 C1166 0.930 . S
H1158 C1168 0.930 . S
H1159 C1171 0.929 . S
H1160 C1174 0.930 . S
H1161 C1176 0.960 . S
H1162 C1176 0.960 . S
H1163 C1176 0.960 . S
C1164 H1156 0.929 . S
C1164 C1165 1.377 . S
C1164 C1166 1.384 . S
C1165 C1164 1.377 . S
C1165 C1171 1.390 . S
C1166 H1157 0.930 . S
C1166 C1164 1.384 . S
C1166 C1167 1.372 . S
C1167 C1166 1.372 . S
C1167 C1168 1.400 . S
C1167 C1172 1.487 1_545 S
C1168 H1158 0.930 . S
C1168 C1167 1.400 . S
C1168 C1171 1.386 . S
H1169 C1185 0.930 . S
H1170 C1186 0.931 . S
C1171 H1159 0.929 . S
C1171 C1165 1.390 . S
C1171 C1168 1.386 . S
C1172 C1167 1.487 1_565 S
C1172 C1174 1.397 . S
C1172 C1175 1.403 . S
H1173 C1179 0.930 . S
C1174 H1160 0.930 . S
C1174 C1172 1.397 . S
C1174 C1177 1.403 . S
C1175 C1172 1.403 . S
C1175 C1176 1.524 1_565 S
C1175 C1179 1.400 . S
C1176 H1161 0.960 . S
C1176 H1162 0.960 . S
C1176 H1163 0.960 . S
C1176 C1175 1.524 1_545 S
C1177 C1174 1.403 . S
C1177 C1178 1.392 . S
C1177 C1181 1.495 . S
C1178 C1177 1.392 . S
C1178 C1179 1.385 . S
C1178 C1180 1.478 . S
C1179 H1173 0.930 . S
C1179 C1175 1.400 . S
C1179 C1178 1.385 . S
C1180 C1178 1.478 . S
C1180 C1182 1.381 . S
C1180 C1186 1.383 . S
C1181 C1177 1.495 . S
C1181 H1187 0.959 . S
C1181 H1188 0.961 . S
C1181 H1189 0.960 . S
C1182 C1180 1.381 . S
C1182 C1183 1.394 . S
C1182 H1190 0.930 . S
C1183 C1182 1.394 . S
C1183 C1184 1.383 . S
C1183 H1191 0.929 . S
C1184 C1183 1.383 . S
C1184 C1185 1.377 . S
C1185 H1169 0.930 . S
C1185 C1184 1.377 . S
C1185 C1186 1.379 . S
C1186 H1170 0.931 . S
C1186 C1180 1.383 . S
C1186 C1185 1.379 . S
H1187 C1181 0.959 . S
H1188 C1181 0.961 . S
H1189 C1181 0.960 . S
H1190 C1182 0.930 . S
H1191 C1183 0.929 . S
H1192 C1200 0.929 . S
H1193 C1202 0.930 1_556 S
H1194 C1204 0.930 . S
H1195 C1207 0.929 . S
H1196 C1210 0.930 . S
H1197 C1212 0.960 . S
H1198 C1212 0.960 . S
H1199 C1212 0.960 . S
C1200 H1192 0.929 . S
C1200 C1201 1.377 . S
C1200 C1202 1.384 . S
C1201 C1200 1.377 . S
C1201 C1207 1.390 . S
C1202 H1193 0.930 1_554 S
C1202 C1200 1.384 . S
C1202 C1203 1.372 . S
C1203 C1202 1.372 . S
C1203 C1204 1.400 . S
C1203 C1208 1.490 . S
C1204 H1194 0.930 . S
C1204 C1203 1.400 . S
C1204 C1207 1.386 . S
H1205 C1221 0.930 . S
H1206 C1222 0.931 1_554 S
C1207 H1195 0.929 . S
C1207 C1201 1.390 . S
C1207 C1204 1.386 . S
C1208 C1203 1.490 . S
C1208 C1210 1.395 1_554 S
C1208 C1211 1.403 . S
H1209 C1215 0.930 . S
C1210 H1196 0.930 . S
C1210 C1208 1.395 1_556 S
C1210 C1213 1.403 . S
C1211 C1208 1.403 . S
C1211 C1212 1.524 . S
C1211 C1215 1.400 . S
C1212 H1197 0.960 . S
C1212 H1198 0.960 . S
C1212 H1199 0.960 . S
C1212 C1211 1.524 . S
C1213 C1210 1.403 . S
C1213 C1214 1.392 . S
C1213 C1217 1.495 . S
C1214 C1213 1.392 . S
C1214 C1215 1.385 1_556 S
C1214 C1216 1.478 . S
C1215 H1209 0.930 . S
C1215 C1211 1.400 . S
C1215 C1214 1.385 1_554 S
C1216 C1214 1.478 . S
C1216 C1218 1.381 . S
C1216 C1222 1.383 . S
C1217 C1213 1.495 . S
C1217 H1223 0.959 . S
C1217 H1224 0.961 . S
C1217 H1225 0.960 . S
C1218 C1216 1.381 . S
C1218 C1219 1.394 . S
C1218 H1226 0.930 . S
C1219 C1218 1.394 . S
C1219 C1220 1.383 . S
C1219 H1227 0.929 . S
C1220 C1219 1.383 . S
C1220 C1221 1.377 . S
C1221 H1205 0.930 . S
C1221 C1220 1.377 . S
C1221 C1222 1.379 . S
C1222 H1206 0.931 1_556 S
C1222 C1216 1.383 . S
C1222 C1221 1.379 . S
H1223 C1217 0.959 . S
H1224 C1217 0.961 . S
H1225 C1217 0.960 . S
H1226 C1218 0.930 . S
H1227 C1219 0.929 . S
H1228 C1236 0.929 . S
H1229 C1238 0.930 . S
H1230 C1240 0.930 . S
H1231 C1243 0.929 . S
H1232 C1246 0.930 . S
H1233 C1248 0.960 1_545 S
H1234 C1248 0.960 . S
H1235 C1248 0.960 . S
C1236 H1228 0.929 . S
C1236 C1237 1.377 . S
C1236 C1238 1.384 . S
C1237 C1236 1.377 . S
C1237 C1243 1.390 . S
C1238 H1229 0.930 . S
C1238 C1236 1.384 . S
C1238 C1239 1.372 . S
C1239 C1238 1.372 . S
C1239 C1240 1.400 . S
C1239 C1244 1.490 1_565 S
C1240 H1230 0.930 . S
C1240 C1239 1.400 . S
C1240 C1243 1.386 . S
H1241 C1257 0.930 . S
H1242 C1258 0.931 . S
C1243 H1231 0.929 . S
C1243 C1237 1.390 . S
C1243 C1240 1.386 . S
C1244 C1239 1.490 1_545 S
C1244 C1246 1.395 . S
C1244 C1247 1.403 . S
H1245 C1251 0.930 . S
C1246 H1232 0.930 . S
C1246 C1244 1.395 . S
C1246 C1249 1.403 . S
C1247 C1244 1.403 . S
C1247 C1248 1.524 1_545 S
C1247 C1251 1.400 . S
C1248 H1233 0.960 1_565 S
C1248 H1234 0.960 . S
C1248 H1235 0.960 . S
C1248 C1247 1.524 1_565 S
C1249 C1246 1.403 . S
C1249 C1250 1.392 . S
C1249 C1253 1.495 . S
C1250 C1249 1.392 . S
C1250 C1251 1.385 . S
C1250 C1252 1.478 . S
C1251 H1245 0.930 . S
C1251 C1247 1.400 . S
C1251 C1250 1.385 . S
C1252 C1250 1.478 . S
C1252 C1254 1.381 . S
C1252 C1258 1.383 . S
C1253 C1249 1.495 . S
C1253 H1259 0.959 . S
C1253 H1260 0.961 . S
C1253 H1261 0.960 . S
C1254 C1252 1.381 . S
C1254 C1255 1.394 . S
C1254 H1262 0.930 . S
C1255 C1254 1.394 . S
C1255 C1256 1.383 . S
C1255 H1263 0.929 . S
C1256 C1255 1.383 . S
C1256 C1257 1.377 . S
C1257 H1241 0.930 . S
C1257 C1256 1.377 . S
C1257 C1258 1.379 . S
C1258 H1242 0.931 . S
C1258 C1252 1.383 . S
C1258 C1257 1.379 . S
H1259 C1253 0.959 . S
H1260 C1253 0.961 . S
H1261 C1253 0.960 . S
H1262 C1254 0.930 . S
H1263 C1255 0.929 . S
H1264 C1272 0.929 . S
H1265 C1274 0.930 . S
H1266 C1276 0.930 . S
H1267 C1279 0.929 . S
H1268 C1282 0.930 . S
H1269 C1284 0.960 . S
H1270 C1284 0.960 . S
H1271 C1284 0.960 . S
C1272 H1264 0.929 . S
C1272 C1273 1.377 . S
C1272 C1274 1.384 . S
C1273 C1272 1.377 . S
C1273 C1279 1.390 . S
C1274 H1265 0.930 . S
C1274 C1272 1.384 . S
C1274 C1275 1.372 . S
C1275 C1274 1.372 . S
C1275 C1276 1.400 . S
C1275 C1280 1.490 . S
C1276 H1266 0.930 . S
C1276 C1275 1.400 . S
C1276 C1279 1.386 . S
H1277 C1293 0.930 . S
H1278 C1294 0.931 . S
C1279 H1267 0.929 . S
C1279 C1273 1.390 . S
C1279 C1276 1.386 . S
C1280 C1275 1.490 . S
C1280 C1282 1.395 . S
C1280 C1283 1.403 . S
H1281 C1287 0.930 . S
C1282 H1268 0.930 . S
C1282 C1280 1.395 . S
C1282 C1285 1.403 . S
C1283 C1280 1.403 . S
C1283 C1284 1.524 . S
C1283 C1287 1.400 . S
C1284 H1269 0.960 . S
C1284 H1270 0.960 . S
C1284 H1271 0.960 . S
C1284 C1283 1.524 . S
C1285 C1282 1.403 . S
C1285 C1286 1.392 . S
C1285 C1289 1.495 . S
C1286 C1285 1.392 . S
C1286 C1287 1.385 . S
C1286 C1288 1.478 . S
C1287 H1281 0.930 . S
C1287 C1283 1.400 . S
C1287 C1286 1.385 . S
C1288 C1286 1.478 . S
C1288 C1290 1.381 . S
C1288 C1294 1.383 . S
C1289 C1285 1.495 . S
C1289 H1295 0.959 . S
C1289 H1296 0.961 . S
C1289 H1297 0.960 . S
C1290 C1288 1.381 . S
C1290 C1291 1.394 . S
C1290 H1298 0.930 . S
C1291 C1290 1.394 . S
C1291 C1292 1.383 . S
C1291 H1299 0.929 . S
C1292 C1291 1.383 . S
C1292 C1293 1.377 . S
C1293 H1277 0.930 . S
C1293 C1292 1.377 . S
C1293 C1294 1.379 . S
C1294 H1278 0.931 . S
C1294 C1288 1.383 . S
C1294 C1293 1.379 . S
H1295 C1289 0.959 . S
H1296 C1289 0.961 . S
H1297 C1289 0.960 . S
H1298 C1290 0.930 . S
H1299 C1291 0.929 . S
H1300 C1308 0.929 . S
H1301 C1310 0.930 . S
H1302 C1312 0.930 . S
H1303 C1315 0.929 . S
H1304 C1318 0.930 . S
H1305 C1320 0.960 . S
H1306 C1320 0.960 . S
H1307 C1320 0.960 . S
C1308 H1300 0.929 . S
C1308 C1309 1.377 . S
C1308 C1310 1.384 . S
C1309 C1308 1.377 . S
C1309 C1315 1.390 . S
C1310 H1301 0.930 . S
C1310 C1308 1.384 . S
C1310 C1311 1.372 . S
C1311 C1310 1.372 . S
C1311 C1312 1.400 . S
C1311 C1316 1.490 . S
C1312 H1302 0.930 . S
C1312 C1311 1.400 . S
C1312 C1315 1.386 . S
H1313 C1329 0.930 . S
H1314 C1330 0.931 . S
C1315 H1303 0.929 . S
C1315 C1309 1.390 . S
C1315 C1312 1.386 . S
C1316 C1311 1.490 . S
C1316 C1318 1.395 . S
C1316 C1319 1.403 . S
H1317 C1323 0.893 1_565 S
C1318 H1304 0.930 . S
C1318 C1316 1.395 . S
C1318 C1321 1.403 . S
C1319 C1316 1.403 . S
C1319 C1320 1.524 . S
C1319 C1323 1.436 . S
C1320 H1305 0.960 . S
C1320 H1306 0.960 . S
C1320 H1307 0.960 . S
C1320 C1319 1.524 . S
C1321 C1318 1.403 . S
C1321 C1322 1.429 . S
C1321 C1325 1.495 . S
C1322 C1321 1.429 . S
C1322 C1323 1.385 . S
C1322 C1324 1.440 1_545 S
C1323 H1317 0.893 1_545 S
C1323 C1319 1.436 . S
C1323 C1322 1.385 . S
C1324 C1322 1.440 1_565 S
C1324 C1326 1.381 . S
C1324 C1330 1.383 . S
C1325 C1321 1.495 . S
C1325 H1331 0.959 . S
C1325 H1332 0.961 . S
C1325 H1333 0.960 . S
C1326 C1324 1.381 . S
C1326 C1327 1.394 . S
C1326 H1334 0.930 . S
C1327 C1326 1.394 . S
C1327 C1328 1.383 . S
C1327 H1335 0.929 . S
C1328 C1327 1.383 . S
C1328 C1329 1.377 . S
C1329 H1313 0.930 . S
C1329 C1328 1.377 . S
C1329 C1330 1.379 . S
C1330 H1314 0.931 . S
C1330 C1324 1.383 . S
C1330 C1329 1.379 . S
H1331 C1325 0.959 . S
H1332 C1325 0.961 . S
H1333 C1325 0.960 . S
H1334 C1326 0.930 . S
H1335 C1327 0.929 . S
H1336 C1344 0.929 . S
H1337 C1346 0.930 1_556 S
H1338 C1348 0.930 . S
H1339 C1351 0.929 . S
H1340 C1354 0.930 1_556 S
H1341 C1356 0.960 . S
H1342 C1356 0.960 . S
H1343 C1356 0.960 . S
C1344 H1336 0.929 . S
C1344 C1345 1.377 . S
C1344 C1346 1.384 . S
C1345 C1344 1.377 . S
C1345 C1351 1.390 . S
C1346 H1337 0.930 1_554 S
C1346 C1344 1.384 . S
C1346 C1347 1.372 . S
C1347 C1346 1.372 . S
C1347 C1348 1.400 . S
C1347 C1352 1.490 . S
C1348 H1338 0.930 . S
C1348 C1347 1.400 . S
C1348 C1351 1.386 . S
H1349 C1365 0.940 . S
H1350 C1366 0.931 1_554 S
C1351 H1339 0.929 . S
C1351 C1345 1.390 . S
C1351 C1348 1.386 . S
C1352 C1347 1.490 . S
C1352 C1354 1.396 . S
C1352 C1355 1.403 . S
H1353 C1359 0.930 . S
C1354 H1340 0.930 1_554 S
C1354 C1352 1.396 . S
C1354 C1357 1.402 1_554 S
C1355 C1352 1.403 . S
C1355 C1356 1.524 . S
C1355 C1359 1.400 . S
C1356 H1341 0.960 . S
C1356 H1342 0.960 . S
C1356 H1343 0.960 . S
C1356 C1355 1.524 . S
C1357 C1354 1.402 1_556 S
C1357 C1358 1.392 . S
C1357 C1361 1.495 . S
C1358 C1357 1.392 . S
C1358 C1359 1.385 1_556 S
C1358 C1360 1.478 . S
C1359 H1353 0.930 . S
C1359 C1355 1.400 . S
C1359 C1358 1.385 1_554 S
C1360 C1358 1.478 . S
C1360 C1362 1.381 . S
C1360 C1366 1.383 . S
C1361 C1357 1.495 . S
C1361 H1367 0.959 . S
C1361 H1368 0.961 . S
C1361 H1369 0.960 . S
C1362 C1360 1.381 . S
C1362 C1363 1.394 . S
C1362 H1370 0.930 . S
C1363 C1362 1.394 . S
C1363 C1364 1.383 . S
C1363 H1371 0.929 . S
C1364 C1363 1.383 . S
C1364 C1365 1.377 . S
C1365 H1349 0.940 . S
C1365 C1364 1.377 . S
C1365 C1366 1.379 . S
C1366 H1350 0.931 1_556 S
C1366 C1360 1.383 . S
C1366 C1365 1.379 . S
H1367 C1361 0.959 . S
H1368 C1361 0.961 . S
H1369 C1361 0.960 . S
H1370 C1362 0.930 . S
H1371 C1363 0.929 . S
H1372 C1380 0.929 . S
H1373 C1382 0.930 . S
H1374 C1384 0.930 . S
H1375 C1387 0.929 . S
H1376 C1390 0.979 . S
H1377 C1392 0.960 . S
H1378 C1392 0.960 . S
H1379 C1392 0.960 . S
C1380 H1372 0.929 . S
C1380 C1381 1.377 . S
C1380 C1382 1.384 . S
C1381 C1380 1.377 . S
C1381 C1387 1.390 . S
C1382 H1373 0.930 . S
C1382 C1380 1.384 . S
C1382 C1383 1.372 . S
C1383 C1382 1.372 . S
C1383 C1384 1.400 . S
C1383 C1388 1.538 . S
C1384 H1374 0.930 . S
C1384 C1383 1.400 . S
C1384 C1387 1.386 . S
H1385 C1401 0.930 . S
H1386 C1402 0.931 . S
C1387 H1375 0.929 . S
C1387 C1381 1.390 . S
C1387 C1384 1.386 . S
C1388 C1383 1.538 . S
C1388 C1390 1.395 . S
C1388 C1391 1.356 1_545 S
H1389 C1395 0.930 . S
C1390 H1376 0.979 . S
C1390 C1388 1.395 . S
C1390 C1393 1.357 1_545 S
C1391 C1388 1.356 1_565 S
C1391 C1392 1.524 . S
C1391 C1395 1.400 . S
C1392 H1377 0.960 . S
C1392 H1378 0.960 . S
C1392 H1379 0.960 . S
C1392 C1391 1.524 . S
C1393 C1390 1.357 1_565 S
C1393 C1394 1.392 . S
C1393 C1397 1.495 . S
C1394 C1393 1.392 . S
C1394 C1395 1.385 . S
C1394 C1396 1.478 . S
C1395 H1389 0.930 . S
C1395 C1391 1.400 . S
C1395 C1394 1.385 . S
C1396 C1394 1.478 . S
C1396 C1398 1.381 . S
C1396 C1402 1.383 . S
C1397 C1393 1.495 . S
C1397 H1403 0.959 . S
C1397 H1404 0.961 . S
C1397 H1405 0.960 . S
C1398 C1396 1.381 . S
C1398 C1399 1.394 . S
C1398 H1406 0.930 . S
C1399 C1398 1.394 . S
C1399 C1400 1.383 . S
C1399 H1407 0.929 . S
C1400 C1399 1.383 . S
C1400 C1401 1.377 . S
C1401 H1385 0.930 . S
C1401 C1400 1.377 . S
C1401 C1402 1.379 . S
C1402 H1386 0.931 . S
C1402 C1396 1.383 . S
C1402 C1401 1.379 . S
H1403 C1397 0.959 . S
H1404 C1397 0.961 . S
H1405 C1397 0.960 . S
H1406 C1398 0.930 . S
H1407 C1399 0.929 . S
H1408 C1416 0.929 . S
H1409 C1418 0.930 . S
H1410 C1420 0.930 . S
H1411 C1423 0.932 . S
H1412 C1426 0.930 . S
H1413 C1428 0.960 . S
H1414 C1428 0.960 . S
H1415 C1428 0.960 . S
C1416 H1408 0.929 . S
C1416 C1417 1.377 . S
C1416 C1418 1.384 1_554 S
C1417 C1416 1.377 . S
C1417 C1423 1.390 1_554 S
C1418 H1409 0.930 . S
C1418 C1416 1.384 1_556 S
C1418 C1419 1.372 . S
C1419 C1418 1.372 . S
C1419 C1420 1.400 . S
C1419 C1424 1.490 . S
C1420 H1410 0.930 . S
C1420 C1419 1.400 . S
C1420 C1423 1.386 . S
H1421 C1437 0.930 . S
H1422 C1438 0.931 . S
C1423 H1411 0.932 . S
C1423 C1417 1.390 1_556 S
C1423 C1420 1.386 . S
C1424 C1419 1.490 . S
C1424 C1426 1.395 . S
C1424 C1427 1.403 . S
H1425 C1431 0.930 . S
C1426 H1412 0.930 . S
C1426 C1424 1.395 . S
C1426 C1429 1.403 . S
C1427 C1424 1.403 . S
C1427 C1428 1.524 . S
C1427 C1431 1.400 . S
C1428 H1413 0.960 . S
C1428 H1414 0.960 . S
C1428 H1415 0.960 . S
C1428 C1427 1.524 . S
C1429 C1426 1.403 . S
C1429 C1430 1.392 . S
C1429 C1433 1.495 . S
C1430 C1429 1.392 . S
C1430 C1431 1.385 . S
C1430 C1432 1.478 . S
C1431 H1425 0.930 . S
C1431 C1427 1.400 . S
C1431 C1430 1.385 . S
C1432 C1430 1.478 . S
C1432 C1434 1.381 . S
C1432 C1438 1.383 . S
C1433 C1429 1.495 . S
C1433 H1439 0.959 . S
C1433 H1440 0.961 . S
C1433 H1441 0.960 . S
C1434 C1432 1.381 . S
C1434 C1435 1.394 . S
C1434 H1442 0.930 . S
C1435 C1434 1.394 . S
C1435 C1436 1.383 . S
C1435 H1443 0.929 . S
C1436 C1435 1.383 . S
C1436 C1437 1.377 . S
C1437 H1421 0.930 . S
C1437 C1436 1.377 . S
C1437 C1438 1.379 . S
C1438 H1422 0.931 . S
C1438 C1432 1.383 . S
C1438 C1437 1.379 . S
H1439 C1433 0.959 . S
H1440 C1433 0.961 . S
H1441 C1433 0.960 . S
H1442 C1434 0.930 . S
H1443 C1435 0.929 . S
H1444 C1452 0.929 . S
H1445 C1454 0.930 . S
H1446 C1456 0.930 . S
H1447 C1459 0.929 . S
H1448 C1462 0.930 . S
H1449 C1464 0.960 . S
H1450 C1464 0.960 . S
H1451 C1464 0.960 . S
C1452 H1444 0.929 . S
C1452 C1453 1.377 . S
C1452 C1454 1.384 . S
C1453 C1452 1.377 . S
C1453 C1459 1.390 . S
C1454 H1445 0.930 . S
C1454 C1452 1.384 . S
C1454 C1455 1.372 . S
C1455 C1454 1.372 . S
C1455 C1456 1.400 . S
C1455 C1460 1.490 . S
C1456 H1446 0.930 . S
C1456 C1455 1.400 . S
C1456 C1459 1.386 . S
H1457 C1473 0.930 . S
H1458 C1474 0.931 . S
C1459 H1447 0.929 . S
C1459 C1453 1.390 . S
C1459 C1456 1.386 . S
C1460 C1455 1.490 . S
C1460 C1462 1.395 . S
C1460 C1463 1.403 . S
H1461 C1467 0.930 . S
C1462 H1448 0.930 . S
C1462 C1460 1.395 . S
C1462 C1465 1.403 . S
C1463 C1460 1.403 . S
C1463 C1464 1.524 . S
C1463 C1467 1.400 . S
C1464 H1449 0.960 . S
C1464 H1450 0.960 . S
C1464 H1451 0.960 . S
C1464 C1463 1.524 . S
C1465 C1462 1.403 . S
C1465 C1466 1.392 . S
C1465 C1469 1.495 . S
C1466 C1465 1.392 . S
C1466 C1467 1.385 . S
C1466 C1468 1.478 . S
C1467 H1461 0.930 . S
C1467 C1463 1.400 . S
C1467 C1466 1.385 . S
C1468 C1466 1.478 . S
C1468 C1470 1.381 . S
C1468 C1474 1.383 . S
C1469 C1465 1.495 . S
C1469 H1475 0.959 . S
C1469 H1476 0.961 . S
C1469 H1477 0.960 . S
C1470 C1468 1.381 . S
C1470 C1471 1.394 . S
C1470 H1478 0.930 . S
C1471 C1470 1.394 . S
C1471 C1472 1.383 . S
C1471 H1479 0.929 . S
C1472 C1471 1.383 . S
C1472 C1473 1.377 . S
C1473 H1457 0.930 . S
C1473 C1472 1.377 . S
C1473 C1474 1.379 . S
C1474 H1458 0.931 . S
C1474 C1468 1.383 . S
C1474 C1473 1.379 . S
H1475 C1469 0.959 . S
H1476 C1469 0.961 . S
H1477 C1469 0.960 . S
H1478 C1470 0.930 . S
H1479 C1471 0.929 . S
H1480 C1488 0.929 . S
H1481 C1490 0.930 . S
H1482 C1492 0.930 . S
H1483 C1495 0.929 . S
H1484 C1498 0.930 . S
H1485 C1500 0.960 . S
H1486 C1500 0.960 . S
H1487 C1500 0.960 . S
C1488 H1480 0.929 . S
C1488 C1489 1.377 . S
C1488 C1490 1.384 . S
C1489 C1488 1.377 . S
C1489 C1495 1.390 . S
C1490 H1481 0.930 . S
C1490 C1488 1.384 . S
C1490 C1491 1.372 . S
C1491 C1490 1.372 . S
C1491 C1492 1.400 . S
C1491 C1496 1.490 . S
C1492 H1482 0.930 . S
C1492 C1491 1.400 . S
C1492 C1495 1.386 . S
H1493 C1509 0.930 . S
H1494 C1510 0.931 . S
C1495 H1483 0.929 . S
C1495 C1489 1.390 . S
C1495 C1492 1.386 . S
C1496 C1491 1.490 . S
C1496 C1498 1.395 . S
C1496 C1499 1.403 . S
H1497 C1503 0.930 . S
C1498 H1484 0.930 . S
C1498 C1496 1.395 . S
C1498 C1501 1.403 . S
C1499 C1496 1.403 . S
C1499 C1500 1.524 . S
C1499 C1503 1.400 . S
C1500 H1485 0.960 . S
C1500 H1486 0.960 . S
C1500 H1487 0.960 . S
C1500 C1499 1.524 . S
C1501 C1498 1.403 . S
C1501 C1502 1.392 . S
C1501 C1505 1.495 . S
C1502 C1501 1.392 . S
C1502 C1503 1.385 . S
C1502 C1504 1.478 . S
C1503 H1497 0.930 . S
C1503 C1499 1.400 . S
C1503 C1502 1.385 . S
C1504 C1502 1.478 . S
C1504 C1506 1.381 . S
C1504 C1510 1.383 . S
C1505 C1501 1.495 . S
C1505 H1511 0.959 . S
C1505 H1512 0.961 . S
C1505 H1513 0.960 . S
C1506 C1504 1.381 . S
C1506 C1507 1.394 . S
C1506 H1514 0.930 . S
C1507 C1506 1.394 . S
C1507 C1508 1.383 . S
C1507 H1515 0.929 . S
C1508 C1507 1.383 . S
C1508 C1509 1.377 . S
C1509 H1493 0.930 . S
C1509 C1508 1.377 . S
C1509 C1510 1.379 . S
C1510 H1494 0.931 . S
C1510 C1504 1.383 . S
C1510 C1509 1.379 . S
H1511 C1505 0.959 . S
H1512 C1505 0.961 . S
H1513 C1505 0.960 . S
H1514 C1506 0.930 . S
H1515 C1507 0.929 . S
H1516 C1524 0.929 . S
H1517 C1526 0.930 . S
H1518 C1528 0.930 . S
H1519 C1531 0.929 . S
H1520 C1534 0.930 . S
H1521 C1536 0.960 . S
H1522 C1536 0.960 . S
H1523 C1536 0.960 . S
C1524 H1516 0.929 . S
C1524 C1525 1.377 . S
C1524 C1526 1.384 . S
C1525 C1524 1.377 . S
C1525 C1531 1.390 . S
C1526 H1517 0.930 . S
C1526 C1524 1.384 . S
C1526 C1527 1.372 . S
C1527 C1526 1.372 . S
C1527 C1528 1.400 . S
C1527 C1532 1.490 . S
C1528 H1518 0.930 . S
C1528 C1527 1.400 . S
C1528 C1531 1.386 . S
H1529 C1545 0.930 . S
H1530 C1546 0.931 . S
C1531 H1519 0.929 . S
C1531 C1525 1.390 . S
C1531 C1528 1.386 . S
C1532 C1527 1.490 . S
C1532 C1534 1.395 . S
C1532 C1535 1.403 . S
H1533 C1539 0.930 . S
C1534 H1520 0.930 . S
C1534 C1532 1.395 . S
C1534 C1537 1.403 . S
C1535 C1532 1.403 . S
C1535 C1536 1.524 . S
C1535 C1539 1.400 . S
C1536 H1521 0.960 . S
C1536 H1522 0.960 . S
C1536 H1523 0.960 . S
C1536 C1535 1.524 . S
C1537 C1534 1.403 . S
C1537 C1538 1.392 . S
C1537 C1541 1.495 . S
C1538 C1537 1.392 . S
C1538 C1539 1.385 . S
C1538 C1540 1.478 . S
C1539 H1533 0.930 . S
C1539 C1535 1.400 . S
C1539 C1538 1.385 . S
C1540 C1538 1.478 . S
C1540 C1542 1.381 . S
C1540 C1546 1.383 . S
C1541 C1537 1.495 . S
C1541 H1547 0.959 . S
C1541 H1548 0.961 . S
C1541 H1549 0.960 . S
C1542 C1540 1.381 . S
C1542 C1543 1.394 . S
C1542 H1550 0.930 . S
C1543 C1542 1.394 . S
C1543 C1544 1.383 . S
C1543 H1551 0.929 . S
C1544 C1543 1.383 . S
C1544 C1545 1.377 . S
C1545 H1529 0.930 . S
C1545 C1544 1.377 . S
C1545 C1546 1.379 . S
C1546 H1530 0.931 . S
C1546 C1540 1.383 . S
C1546 C1545 1.379 . S
H1547 C1541 0.959 . S
H1548 C1541 0.961 . S
H1549 C1541 0.960 . S
H1550 C1542 0.930 . S
H1551 C1543 0.929 . S
H1552 C1560 0.929 . S
H1553 C1562 0.930 . S
H1554 C1564 0.930 . S
H1555 C1567 0.929 1_556 S
H1556 C1570 0.930 . S
H1557 C1572 0.960 . S
H1558 C1572 0.960 . S
H1559 C1572 0.960 . S
C1560 H1552 0.929 . S
C1560 C1561 1.377 . S
C1560 C1562 1.384 1_556 S
C1561 C1560 1.377 . S
C1561 C1567 1.390 1_556 S
C1562 H1553 0.930 . S
C1562 C1560 1.384 1_554 S
C1562 C1563 1.372 . S
C1563 C1562 1.372 . S
C1563 C1564 1.400 . S
C1563 C1568 1.490 . S
C1564 H1554 0.930 . S
C1564 C1563 1.400 . S
C1564 C1567 1.386 . S
H1565 C1581 0.930 . S
H1566 C1582 0.931 . S
C1567 H1555 0.929 1_554 S
C1567 C1561 1.390 1_554 S
C1567 C1564 1.386 . S
C1568 C1563 1.490 . S
C1568 C1570 1.395 . S
C1568 C1571 1.403 . S
H1569 C1575 0.930 . S
C1570 H1556 0.930 . S
C1570 C1568 1.395 . S
C1570 C1573 1.403 . S
C1571 C1568 1.403 . S
C1571 C1572 1.524 . S
C1571 C1575 1.400 . S
C1572 H1557 0.960 . S
C1572 H1558 0.960 . S
C1572 H1559 0.960 . S
C1572 C1571 1.524 . S
C1573 C1570 1.403 . S
C1573 C1574 1.392 . S
C1573 C1577 1.495 . S
C1574 C1573 1.392 . S
C1574 C1575 1.385 . S
C1574 C1576 1.478 . S
C1575 H1569 0.930 . S
C1575 C1571 1.400 . S
C1575 C1574 1.385 . S
C1576 C1574 1.478 . S
C1576 C1578 1.381 . S
C1576 C1582 1.383 . S
C1577 C1573 1.495 . S
C1577 H1583 0.959 . S
C1577 H1584 0.961 . S
C1577 H1585 0.960 . S
C1578 C1576 1.381 . S
C1578 C1579 1.394 . S
C1578 H1586 0.930 . S
C1579 C1578 1.394 . S
C1579 C1580 1.383 . S
C1579 H1587 0.929 . S
C1580 C1579 1.383 . S
C1580 C1581 1.377 . S
C1581 H1565 0.930 . S
C1581 C1580 1.377 . S
C1581 C1582 1.379 . S
C1582 H1566 0.931 . S
C1582 C1576 1.383 . S
C1582 C1581 1.379 . S
H1583 C1577 0.959 . S
H1584 C1577 0.961 . S
H1585 C1577 0.960 . S
H1586 C1578 0.930 . S
H1587 C1579 0.929 . S
H1588 C1596 0.929 . S
H1589 C1598 0.930 . S
H1590 C1600 0.930 . S
H1591 C1603 0.929 . S
H1592 C1606 0.930 . S
H1593 C1608 0.960 . S
H1594 C1608 0.960 . S
H1595 C1608 0.960 . S
C1596 H1588 0.929 . S
C1596 C1597 1.377 . S
C1596 C1598 1.384 . S
C1597 C1596 1.377 . S
C1597 C1603 1.390 . S
C1598 H1589 0.930 . S
C1598 C1596 1.384 . S
C1598 C1599 1.372 . S
C1599 C1598 1.372 . S
C1599 C1600 1.400 . S
C1599 C1604 1.490 . S
C1600 H1590 0.930 . S
C1600 C1599 1.400 . S
C1600 C1603 1.386 . S
H1601 C1617 0.930 . S
H1602 C1618 0.931 . S
C1603 H1591 0.929 . S
C1603 C1597 1.390 . S
C1603 C1600 1.386 . S
C1604 C1599 1.490 . S
C1604 C1606 1.395 . S
C1604 C1607 1.403 . S
H1605 C1611 0.930 . S
C1606 H1592 0.930 . S
C1606 C1604 1.395 . S
C1606 C1609 1.403 . S
C1607 C1604 1.403 . S
C1607 C1608 1.524 . S
C1607 C1611 1.400 . S
C1608 H1593 0.960 . S
C1608 H1594 0.960 . S
C1608 H1595 0.960 . S
C1608 C1607 1.524 . S
C1609 C1606 1.403 . S
C1609 C1610 1.392 . S
C1609 C1613 1.495 . S
C1610 C1609 1.392 . S
C1610 C1611 1.385 . S
C1610 C1612 1.478 . S
C1611 H1605 0.930 . S
C1611 C1607 1.400 . S
C1611 C1610 1.385 . S
C1612 C1610 1.478 . S
C1612 C1614 1.381 . S
C1612 C1618 1.383 . S
C1613 C1609 1.495 . S
C1613 H1619 0.959 . S
C1613 H1620 0.961 . S
C1613 H1621 0.960 . S
C1614 C1612 1.381 . S
C1614 C1615 1.394 . S
C1614 H1622 0.930 . S
C1615 C1614 1.394 . S
C1615 C1616 1.383 . S
C1615 H1623 0.929 . S
C1616 C1615 1.383 . S
C1616 C1617 1.377 . S
C1617 H1601 0.930 . S
C1617 C1616 1.377 . S
C1617 C1618 1.379 . S
C1618 H1602 0.931 . S
C1618 C1612 1.383 . S
C1618 C1617 1.379 . S
H1619 C1613 0.959 . S
H1620 C1613 0.961 . S
H1621 C1613 0.960 . S
H1622 C1614 0.930 . S
H1623 C1615 0.929 . S
H1624 C1632 0.929 . S
H1625 C1634 0.930 . S
H1626 C1636 0.930 . S
H1627 C1639 0.929 . S
H1628 C1642 0.930 . S
H1629 C1644 0.960 . S
H1630 C1644 0.960 . S
H1631 C1644 0.960 . S
C1632 H1624 0.929 . S
C1632 C1633 1.377 . S
C1632 C1634 1.384 . S
C1633 C1632 1.377 . S
C1633 C1639 1.390 . S
C1634 H1625 0.930 . S
C1634 C1632 1.384 . S
C1634 C1635 1.372 . S
C1635 C1634 1.372 . S
C1635 C1636 1.400 . S
C1635 C1640 1.490 . S
C1636 H1626 0.930 . S
C1636 C1635 1.400 . S
C1636 C1639 1.386 . S
H1637 C1653 0.930 . S
H1638 C1654 0.931 . S
C1639 H1627 0.929 . S
C1639 C1633 1.390 . S
C1639 C1636 1.386 . S
C1640 C1635 1.490 . S
C1640 C1642 1.395 . S
C1640 C1643 1.403 . S
H1641 C1647 0.930 . S
C1642 H1628 0.930 . S
C1642 C1640 1.395 . S
C1642 C1645 1.403 . S
C1643 C1640 1.403 . S
C1643 C1644 1.524 . S
C1643 C1647 1.400 . S
C1644 H1629 0.960 . S
C1644 H1630 0.960 . S
C1644 H1631 0.960 . S
C1644 C1643 1.524 . S
C1645 C1642 1.403 . S
C1645 C1646 1.392 . S
C1645 C1649 1.495 . S
C1646 C1645 1.392 . S
C1646 C1647 1.385 . S
C1646 C1648 1.478 . S
C1647 H1641 0.930 . S
C1647 C1643 1.400 . S
C1647 C1646 1.385 . S
C1648 C1646 1.478 . S
C1648 C1650 1.381 . S
C1648 C1654 1.383 . S
C1649 C1645 1.495 . S
C1649 H1655 0.959 . S
C1649 H1656 0.961 . S
C1649 H1657 0.960 . S
C1650 C1648 1.381 . S
C1650 C1651 1.394 . S
C1650 H1658 0.930 . S
C1651 C1650 1.394 . S
C1651 C1652 1.383 . S
C1651 H1659 0.929 . S
C1652 C1651 1.383 . S
C1652 C1653 1.377 . S
C1653 H1637 0.930 . S
C1653 C1652 1.377 . S
C1653 C1654 1.379 . S
C1654 H1638 0.931 . S
C1654 C1648 1.383 . S
C1654 C1653 1.379 . S
H1655 C1649 0.959 . S
H1656 C1649 0.961 . S
H1657 C1649 0.960 . S
H1658 C1650 0.930 . S
H1659 C1651 0.929 . S
H1660 C1668 0.929 . S
H1661 C1670 0.930 . S
H1662 C1672 0.930 . S
H1663 C1675 0.929 . S
H1664 C1678 0.930 . S
H1665 C1680 0.960 . S
H1666 C1680 0.960 . S
H1667 C1680 0.960 . S
C1668 H1660 0.929 . S
C1668 C1669 1.377 . S
C1668 C1670 1.384 . S
C1669 C1668 1.377 . S
C1669 C1675 1.390 . S
C1670 H1661 0.930 . S
C1670 C1668 1.384 . S
C1670 C1671 1.372 . S
C1671 C1670 1.372 . S
C1671 C1672 1.400 . S
C1671 C1676 1.490 . S
C1672 H1662 0.930 . S
C1672 C1671 1.400 . S
C1672 C1675 1.386 . S
H1673 C1689 0.930 . S
H1674 C1690 0.931 . S
C1675 H1663 0.929 . S
C1675 C1669 1.390 . S
C1675 C1672 1.386 . S
C1676 C1671 1.490 . S
C1676 C1678 1.395 . S
C1676 C1679 1.403 . S
H1677 C1683 0.930 . S
C1678 H1664 0.930 . S
C1678 C1676 1.395 . S
C1678 C1681 1.403 . S
C1679 C1676 1.403 . S
C1679 C1680 1.524 . S
C1679 C1683 1.400 . S
C1680 H1665 0.960 . S
C1680 H1666 0.960 . S
C1680 H1667 0.960 . S
C1680 C1679 1.524 . S
C1681 C1678 1.403 . S
C1681 C1682 1.392 . S
C1681 C1685 1.495 . S
C1682 C1681 1.392 . S
C1682 C1683 1.385 . S
C1682 C1684 1.478 . S
C1683 H1677 0.930 . S
C1683 C1679 1.400 . S
C1683 C1682 1.385 . S
C1684 C1682 1.478 . S
C1684 C1686 1.381 . S
C1684 C1690 1.383 . S
C1685 C1681 1.495 . S
C1685 H1691 0.959 . S
C1685 H1692 0.961 . S
C1685 H1693 0.960 . S
C1686 C1684 1.381 . S
C1686 C1687 1.394 . S
C1686 H1694 0.930 . S
C1687 C1686 1.394 . S
C1687 C1688 1.383 . S
C1687 H1695 0.929 . S
C1688 C1687 1.383 . S
C1688 C1689 1.377 . S
C1689 H1673 0.930 . S
C1689 C1688 1.377 . S
C1689 C1690 1.379 . S
C1690 H1674 0.931 . S
C1690 C1684 1.383 . S
C1690 C1689 1.379 . S
H1691 C1685 0.959 . S
H1692 C1685 0.961 . S
H1693 C1685 0.960 . S
H1694 C1686 0.930 . S
H1695 C1687 0.929 . S
H1696 C1704 0.929 . S
H1697 C1706 0.930 . S
H1698 C1708 0.930 . S
H1699 C1711 0.929 . S
H1700 C1714 0.930 . S
H1701 C1716 0.960 . S
H1702 C1716 0.960 . S
H1703 C1716 0.960 . S
C1704 H1696 0.929 . S
C1704 C1705 1.377 . S
C1704 C1706 1.384 . S
C1705 C1704 1.377 . S
C1705 C1711 1.390 . S
C1706 H1697 0.930 . S
C1706 C1704 1.384 . S
C1706 C1707 1.372 . S
C1707 C1706 1.372 . S
C1707 C1708 1.400 . S
C1707 C1712 1.490 . S
C1708 H1698 0.930 . S
C1708 C1707 1.400 . S
C1708 C1711 1.386 . S
H1709 C1725 0.930 . S
H1710 C1726 0.931 . S
C1711 H1699 0.929 . S
C1711 C1705 1.390 . S
C1711 C1708 1.386 . S
C1712 C1707 1.490 . S
C1712 C1714 1.395 . S
C1712 C1715 1.403 . S
H1713 C1719 0.930 . S
C1714 H1700 0.930 . S
C1714 C1712 1.395 . S
C1714 C1717 1.403 . S
C1715 C1712 1.403 . S
C1715 C1716 1.524 . S
C1715 C1719 1.400 . S
C1716 H1701 0.960 . S
C1716 H1702 0.960 . S
C1716 H1703 0.960 . S
C1716 C1715 1.524 . S
C1717 C1714 1.403 . S
C1717 C1718 1.392 . S
C1717 C1721 1.495 . S
C1718 C1717 1.392 . S
C1718 C1719 1.385 . S
C1718 C1720 1.478 . S
C1719 H1713 0.930 . S
C1719 C1715 1.400 . S
C1719 C1718 1.385 . S
C1720 C1718 1.478 . S
C1720 C1722 1.381 . S
C1720 C1726 1.383 . S
C1721 C1717 1.495 . S
C1721 H1727 0.959 . S
C1721 H1728 0.961 . S
C1721 H1729 0.960 . S
C1722 C1720 1.381 . S
C1722 C1723 1.394 . S
C1722 H1730 0.930 . S
C1723 C1722 1.394 . S
C1723 C1724 1.383 . S
C1723 H1731 0.929 . S
C1724 C1723 1.383 . S
C1724 C1725 1.377 . S
C1725 H1709 0.930 . S
C1725 C1724 1.377 . S
C1725 C1726 1.379 . S
C1726 H1710 0.931 . S
C1726 C1720 1.383 . S
C1726 C1725 1.379 . S
H1727 C1721 0.959 . S
H1728 C1721 0.961 . S
H1729 C1721 0.960 . S
H1730 C1722 0.930 . S
H1731 C1723 0.929 . S
H1732 C1740 0.929 . S
H1733 C1742 0.930 . S
H1734 C1744 0.930 . S
H1735 C1747 0.929 . S
H1736 C1750 0.930 . S
H1737 C1752 0.960 . S
H1738 C1752 0.960 . S
H1739 C1752 0.960 . S
C1740 H1732 0.929 . S
C1740 C1741 1.377 . S
C1740 C1742 1.384 . S
C1741 C1740 1.377 . S
C1741 C1747 1.390 . S
C1742 H1733 0.930 . S
C1742 C1740 1.384 . S
C1742 C1743 1.372 . S
C1743 C1742 1.372 . S
C1743 C1744 1.400 . S
C1743 C1748 1.490 . S
C1744 H1734 0.930 . S
C1744 C1743 1.400 . S
C1744 C1747 1.386 . S
H1745 C1761 0.930 . S
H1746 C1762 0.931 . S
C1747 H1735 0.929 . S
C1747 C1741 1.390 . S
C1747 C1744 1.386 . S
C1748 C1743 1.490 . S
C1748 C1750 1.395 . S
C1748 C1751 1.403 . S
H1749 C1755 0.930 . S
C1750 H1736 0.930 . S
C1750 C1748 1.395 . S
C1750 C1753 1.403 . S
C1751 C1748 1.403 . S
C1751 C1752 1.524 . S
C1751 C1755 1.400 . S
C1752 H1737 0.960 . S
C1752 H1738 0.960 . S
C1752 H1739 0.960 . S
C1752 C1751 1.524 . S
C1753 C1750 1.403 . S
C1753 C1754 1.392 . S
C1753 C1757 1.495 . S
C1754 C1753 1.392 . S
C1754 C1755 1.385 . S
C1754 C1756 1.478 . S
C1755 H1749 0.930 . S
C1755 C1751 1.400 . S
C1755 C1754 1.385 . S
C1756 C1754 1.478 . S
C1756 C1758 1.381 . S
C1756 C1762 1.383 . S
C1757 C1753 1.495 . S
C1757 H1763 0.959 . S
C1757 H1764 0.961 . S
C1757 H1765 0.960 . S
C1758 C1756 1.381 . S
C1758 C1759 1.394 . S
C1758 H1766 0.930 . S
C1759 C1758 1.394 . S
C1759 C1760 1.383 . S
C1759 H1767 0.929 . S
C1760 C1759 1.383 . S
C1760 C1761 1.377 . S
C1761 H1745 0.930 . S
C1761 C1760 1.377 . S
C1761 C1762 1.379 . S
C1762 H1746 0.931 . S
C1762 C1756 1.383 . S
C1762 C1761 1.379 . S
H1763 C1757 0.959 . S
H1764 C1757 0.961 . S
H1765 C1757 0.960 . S
H1766 C1758 0.930 . S
H1767 C1759 0.929 . S
H1768 C1776 0.929 . S
H1769 C1778 0.930 . S
H1770 C1780 0.930 . S
H1771 C1783 0.929 . S
H1772 C1786 0.930 . S
H1773 C1788 0.960 . S
H1774 C1788 0.960 . S
H1775 C1788 0.960 . S
C1776 H1768 0.929 . S
C1776 C1777 1.377 . S
C1776 C1778 1.384 . S
C1777 C1776 1.377 . S
C1777 C1783 1.390 . S
C1778 H1769 0.930 . S
C1778 C1776 1.384 . S
C1778 C1779 1.372 . S
C1779 C1778 1.372 . S
C1779 C1780 1.400 . S
C1779 C1784 1.490 . S
C1780 H1770 0.930 . S
C1780 C1779 1.400 . S
C1780 C1783 1.386 . S
H1781 C1797 0.930 . S
H1782 C1798 0.931 . S
C1783 H1771 0.929 . S
C1783 C1777 1.390 . S
C1783 C1780 1.386 . S
C1784 C1779 1.490 . S
C1784 C1786 1.395 . S
C1784 C1787 1.403 . S
H1785 C1791 0.930 . S
C1786 H1772 0.930 . S
C1786 C1784 1.395 . S
C1786 C1789 1.403 . S
C1787 C1784 1.403 . S
C1787 C1788 1.524 . S
C1787 C1791 1.400 . S
C1788 H1773 0.960 . S
C1788 H1774 0.960 . S
C1788 H1775 0.960 . S
C1788 C1787 1.524 . S
C1789 C1786 1.403 . S
C1789 C1790 1.392 . S
C1789 C1793 1.495 . S
C1790 C1789 1.392 . S
C1790 C1791 1.385 . S
C1790 C1792 1.478 . S
C1791 H1785 0.930 . S
C1791 C1787 1.400 . S
C1791 C1790 1.385 . S
C1792 C1790 1.478 . S
C1792 C1794 1.381 . S
C1792 C1798 1.383 . S
C1793 C1789 1.495 . S
C1793 H1799 0.959 . S
C1793 H1800 0.961 . S
C1793 H1801 0.960 . S
C1794 C1792 1.381 . S
C1794 C1795 1.394 . S
C1794 H1802 0.930 . S
C1795 C1794 1.394 . S
C1795 C1796 1.383 1_556 S
C1795 H1803 0.929 . S
C1796 C1795 1.383 1_554 S
C1796 C1797 1.377 . S
C1797 H1781 0.930 . S
C1797 C1796 1.377 . S
C1797 C1798 1.379 1_554 S
C1798 H1782 0.931 . S
C1798 C1792 1.383 . S
C1798 C1797 1.379 1_556 S
H1799 C1793 0.959 . S
H1800 C1793 0.961 . S
H1801 C1793 0.960 . S
H1802 C1794 0.930 . S
H1803 C1795 0.929 . S
H1804 C1812 0.929 . S
H1805 C1814 0.930 . S
H1806 C1816 0.930 . S
H1807 C1819 0.929 . S
H1808 C1822 0.930 . S
H1809 C1824 0.960 . S
H1810 C1824 0.960 . S
H1811 C1824 0.960 . S
C1812 H1804 0.929 . S
C1812 C1813 1.377 . S
C1812 C1814 1.384 . S
C1813 C1812 1.377 . S
C1813 C1819 1.390 . S
C1814 H1805 0.930 . S
C1814 C1812 1.384 . S
C1814 C1815 1.372 . S
C1815 C1814 1.372 . S
C1815 C1816 1.400 . S
C1815 C1820 1.490 . S
C1816 H1806 0.930 . S
C1816 C1815 1.400 . S
C1816 C1819 1.386 . S
H1817 C1833 0.930 . S
H1818 C1834 0.931 . S
C1819 H1807 0.929 . S
C1819 C1813 1.390 . S
C1819 C1816 1.386 . S
C1820 C1815 1.490 . S
C1820 C1822 1.395 . S
C1820 C1823 1.403 . S
H1821 C1827 0.930 . S
C1822 H1808 0.930 . S
C1822 C1820 1.395 . S
C1822 C1825 1.403 . S
C1823 C1820 1.403 . S
C1823 C1824 1.524 . S
C1823 C1827 1.400 . S
C1824 H1809 0.960 . S
C1824 H1810 0.960 . S
C1824 H1811 0.960 . S
C1824 C1823 1.524 . S
C1825 C1822 1.403 . S
C1825 C1826 1.392 . S
C1825 C1829 1.495 . S
C1826 C1825 1.392 . S
C1826 C1827 1.385 . S
C1826 C1828 1.478 . S
C1827 H1821 0.930 . S
C1827 C1823 1.400 . S
C1827 C1826 1.385 . S
C1828 C1826 1.478 . S
C1828 C1830 1.381 . S
C1828 C1834 1.383 . S
C1829 C1825 1.495 . S
C1829 H1835 0.959 . S
C1829 H1836 0.961 . S
C1829 H1837 0.960 . S
C1830 C1828 1.381 . S
C1830 C1831 1.394 . S
C1830 H1838 0.930 . S
C1831 C1830 1.394 . S
C1831 C1832 1.383 . S
C1831 H1839 0.929 . S
C1832 C1831 1.383 . S
C1832 C1833 1.377 . S
C1833 H1817 0.930 . S
C1833 C1832 1.377 . S
C1833 C1834 1.379 . S
C1834 H1818 0.931 . S
C1834 C1828 1.383 . S
C1834 C1833 1.379 . S
H1835 C1829 0.959 . S
H1836 C1829 0.961 . S
H1837 C1829 0.960 . S
H1838 C1830 0.930 . S
H1839 C1831 0.929 . S
H1840 C1848 0.929 . S
H1841 C1850 0.930 . S
H1842 C1852 0.930 . S
H1843 C1855 0.929 . S
H1844 C1858 0.930 . S
H1845 C1860 0.960 . S
H1846 C1860 0.960 . S
H1847 C1860 0.960 . S
C1848 H1840 0.929 . S
C1848 C1849 1.377 . S
C1848 C1850 1.384 . S
C1849 C1848 1.377 . S
C1849 C1855 1.390 . S
C1850 H1841 0.930 . S
C1850 C1848 1.384 . S
C1850 C1851 1.372 . S
C1851 C1850 1.372 . S
C1851 C1852 1.400 . S
C1851 C1856 1.490 . S
C1852 H1842 0.930 . S
C1852 C1851 1.400 . S
C1852 C1855 1.386 . S
H1853 C1869 0.930 . S
H1854 C1870 0.931 . S
C1855 H1843 0.929 . S
C1855 C1849 1.390 . S
C1855 C1852 1.386 . S
C1856 C1851 1.490 . S
C1856 C1858 1.395 . S
C1856 C1859 1.403 . S
H1857 C1863 0.930 . S
C1858 H1844 0.930 . S
C1858 C1856 1.395 . S
C1858 C1861 1.403 . S
C1859 C1856 1.403 . S
C1859 C1860 1.524 . S
C1859 C1863 1.400 . S
C1860 H1845 0.960 . S
C1860 H1846 0.960 . S
C1860 H1847 0.960 . S
C1860 C1859 1.524 . S
C1861 C1858 1.403 . S
C1861 C1862 1.392 . S
C1861 C1865 1.495 . S
C1862 C1861 1.392 . S
C1862 C1863 1.385 . S
C1862 C1864 1.478 . S
C1863 H1857 0.930 . S
C1863 C1859 1.400 . S
C1863 C1862 1.385 . S
C1864 C1862 1.478 . S
C1864 C1866 1.381 . S
C1864 C1870 1.383 . S
C1865 C1861 1.495 . S
C1865 H1871 0.959 . S
C1865 H1872 0.961 . S
C1865 H1873 0.960 . S
C1866 C1864 1.381 . S
C1866 C1867 1.394 . S
C1866 H1874 0.930 . S
C1867 C1866 1.394 . S
C1867 C1868 1.383 . S
C1867 H1875 0.929 . S
C1868 C1867 1.383 . S
C1868 C1869 1.377 . S
C1869 H1853 0.930 . S
C1869 C1868 1.377 . S
C1869 C1870 1.379 . S
C1870 H1854 0.931 . S
C1870 C1864 1.383 . S
C1870 C1869 1.379 . S
H1871 C1865 0.959 . S
H1872 C1865 0.961 . S
H1873 C1865 0.960 . S
H1874 C1866 0.930 . S
H1875 C1867 0.929 . S
H1876 C1884 0.929 . S
H1877 C1886 0.930 . S
H1878 C1888 0.930 . S
H1879 C1891 0.929 . S
H1880 C1894 0.930 . S
H1881 C1896 0.960 . S
H1882 C1896 0.960 . S
H1883 C1896 0.960 . S
C1884 H1876 0.929 . S
C1884 C1885 1.377 . S
C1884 C1886 1.384 . S
C1885 C1884 1.377 . S
C1885 C1891 1.390 . S
C1886 H1877 0.930 . S
C1886 C1884 1.384 . S
C1886 C1887 1.372 . S
C1887 C1886 1.372 . S
C1887 C1888 1.400 . S
C1887 C1892 1.490 . S
C1888 H1878 0.930 . S
C1888 C1887 1.400 . S
C1888 C1891 1.386 . S
H1889 C1905 0.930 . S
H1890 C1906 0.931 . S
C1891 H1879 0.929 . S
C1891 C1885 1.390 . S
C1891 C1888 1.386 . S
C1892 C1887 1.490 . S
C1892 C1894 1.395 . S
C1892 C1895 1.403 . S
H1893 C1899 0.930 . S
C1894 H1880 0.930 . S
C1894 C1892 1.395 . S
C1894 C1897 1.403 . S
C1895 C1892 1.403 . S
C1895 C1896 1.524 . S
C1895 C1899 1.400 . S
C1896 H1881 0.960 . S
C1896 H1882 0.960 . S
C1896 H1883 0.960 . S
C1896 C1895 1.524 . S
C1897 C1894 1.403 . S
C1897 C1898 1.392 . S
C1897 C1901 1.495 . S
C1898 C1897 1.392 . S
C1898 C1899 1.385 . S
C1898 C1900 1.478 . S
C1899 H1893 0.930 . S
C1899 C1895 1.400 . S
C1899 C1898 1.385 . S
C1900 C1898 1.478 . S
C1900 C1902 1.381 . S
C1900 C1906 1.383 . S
C1901 C1897 1.495 . S
C1901 H1907 0.959 . S
C1901 H1908 0.961 . S
C1901 H1909 0.960 . S
C1902 C1900 1.381 . S
C1902 C1903 1.394 . S
C1902 H1910 0.930 . S
C1903 C1902 1.394 . S
C1903 C1904 1.383 . S
C1903 H1911 0.929 . S
C1904 C1903 1.383 . S
C1904 C1905 1.377 . S
C1905 H1889 0.930 . S
C1905 C1904 1.377 . S
C1905 C1906 1.379 . S
C1906 H1890 0.931 . S
C1906 C1900 1.383 . S
C1906 C1905 1.379 . S
H1907 C1901 0.959 . S
H1908 C1901 0.961 . S
H1909 C1901 0.960 . S
H1910 C1902 0.930 . S
H1911 C1903 0.929 . S
H1912 C1920 0.929 . S
H1913 C1922 0.930 . S
H1914 C1924 0.930 . S
H1915 C1927 0.929 . S
H1916 C1930 0.930 . S
H1917 C1932 0.960 . S
H1918 C1932 0.960 . S
H1919 C1932 0.960 . S
C1920 H1912 0.929 . S
C1920 C1921 1.377 1_554 S
C1920 C1922 1.384 . S
C1921 C1920 1.377 1_556 S
C1921 C1927 1.390 . S
C1922 H1913 0.930 . S
C1922 C1920 1.384 . S
C1922 C1923 1.372 . S
C1923 C1922 1.372 . S
C1923 C1924 1.400 . S
C1923 C1928 1.490 . S
C1924 H1914 0.930 . S
C1924 C1923 1.400 . S
C1924 C1927 1.386 1_554 S
H1925 C1941 0.930 . S
H1926 C1942 0.931 . S
C1927 H1915 0.929 . S
C1927 C1921 1.390 . S
C1927 C1924 1.386 1_556 S
C1928 C1923 1.490 . S
C1928 C1930 1.395 . S
C1928 C1931 1.403 . S
H1929 C1935 0.930 . S
C1930 H1916 0.930 . S
C1930 C1928 1.395 . S
C1930 C1933 1.403 . S
C1931 C1928 1.403 . S
C1931 C1932 1.524 . S
C1931 C1935 1.400 . S
C1932 H1917 0.960 . S
C1932 H1918 0.960 . S
C1932 H1919 0.960 . S
C1932 C1931 1.524 . S
C1933 C1930 1.403 . S
C1933 C1934 1.392 . S
C1933 C1937 1.495 . S
C1934 C1933 1.392 . S
C1934 C1935 1.385 . S
C1934 C1936 1.478 . S
C1935 H1929 0.930 . S
C1935 C1931 1.400 . S
C1935 C1934 1.385 . S
C1936 C1934 1.478 . S
C1936 C1938 1.381 . S
C1936 C1942 1.383 . S
C1937 C1933 1.495 . S
C1937 H1943 0.959 . S
C1937 H1944 0.961 . S
C1937 H1945 0.960 . S
C1938 C1936 1.381 . S
C1938 C1939 1.394 . S
C1938 H1946 0.930 . S
C1939 C1938 1.394 . S
C1939 C1940 1.383 . S
C1939 H1947 0.929 . S
C1940 C1939 1.383 . S
C1940 C1941 1.377 . S
C1941 H1925 0.930 . S
C1941 C1940 1.377 . S
C1941 C1942 1.379 . S
C1942 H1926 0.931 . S
C1942 C1936 1.383 . S
C1942 C1941 1.379 . S
H1943 C1937 0.959 . S
H1944 C1937 0.961 . S
H1945 C1937 0.960 . S
H1946 C1938 0.930 . S
H1947 C1939 0.929 . S
H1948 C1956 0.929 . S
H1949 C1958 0.930 . S
H1950 C1960 0.930 . S
H1951 C1963 0.929 . S
H1952 C1966 0.930 . S
H1953 C1968 0.960 . S
H1954 C1968 0.960 . S
H1955 C1968 0.960 . S
C1956 H1948 0.929 . S
C1956 C1957 1.377 . S
C1956 C1958 1.384 . S
C1957 C1956 1.377 . S
C1957 C1963 1.390 . S
C1958 H1949 0.930 . S
C1958 C1956 1.384 . S
C1958 C1959 1.372 . S
C1959 C1958 1.372 . S
C1959 C1960 1.400 . S
C1959 C1964 1.490 . S
C1960 H1950 0.930 . S
C1960 C1959 1.400 . S
C1960 C1963 1.386 . S
H1961 C1977 0.930 . S
H1962 C1978 0.931 . S
C1963 H1951 0.929 . S
C1963 C1957 1.390 . S
C1963 C1960 1.386 . S
C1964 C1959 1.490 . S
C1964 C1966 1.395 . S
C1964 C1967 1.403 . S
H1965 C1971 0.930 . S
C1966 H1952 0.930 . S
C1966 C1964 1.395 . S
C1966 C1969 1.403 . S
C1967 C1964 1.403 . S
C1967 C1968 1.524 . S
C1967 C1971 1.400 . S
C1968 H1953 0.960 . S
C1968 H1954 0.960 . S
C1968 H1955 0.960 . S
C1968 C1967 1.524 . S
C1969 C1966 1.403 . S
C1969 C1970 1.392 . S
C1969 C1973 1.495 . S
C1970 C1969 1.392 . S
C1970 C1971 1.385 . S
C1970 C1972 1.478 . S
C1971 H1965 0.930 . S
C1971 C1967 1.400 . S
C1971 C1970 1.385 . S
C1972 C1970 1.478 . S
C1972 C1974 1.381 . S
C1972 C1978 1.383 . S
C1973 C1969 1.495 . S
C1973 H1979 0.959 . S
C1973 H1980 0.961 . S
C1973 H1981 0.960 . S
C1974 C1972 1.381 . S
C1974 C1975 1.394 . S
C1974 H1982 0.930 . S
C1975 C1974 1.394 . S
C1975 C1976 1.383 . S
C1975 H1983 0.929 . S
C1976 C1975 1.383 . S
C1976 C1977 1.377 . S
C1977 H1961 0.930 . S
C1977 C1976 1.377 . S
C1977 C1978 1.379 . S
C1978 H1962 0.931 . S
C1978 C1972 1.383 . S
C1978 C1977 1.379 . S
H1979 C1973 0.959 . S
H1980 C1973 0.961 . S
H1981 C1973 0.960 . S
H1982 C1974 0.930 . S
H1983 C1975 0.929 . S
H1984 C1992 0.929 . S
H1985 C1994 0.930 . S
H1986 C1996 0.930 . S
H1987 C1999 0.929 . S
H1988 C2002 0.930 . S
H1989 C2004 0.960 . S
H1990 C2004 0.960 . S
H1991 C2004 0.960 . S
C1992 H1984 0.929 . S
C1992 C1993 1.377 . S
C1992 C1994 1.384 . S
C1993 C1992 1.377 . S
C1993 C1999 1.390 . S
C1994 H1985 0.930 . S
C1994 C1992 1.384 . S
C1994 C1995 1.372 . S
C1995 C1994 1.372 . S
C1995 C1996 1.400 . S
C1995 C2000 1.490 . S
C1996 H1986 0.930 . S
C1996 C1995 1.400 . S
C1996 C1999 1.386 . S
H1997 C2013 0.930 . S
H1998 C2014 0.931 . S
C1999 H1987 0.929 . S
C1999 C1993 1.390 . S
C1999 C1996 1.386 . S
C2000 C1995 1.490 . S
C2000 C2002 1.395 . S
C2000 C2003 1.403 . S
H2001 C2007 0.930 . S
C2002 H1988 0.930 . S
C2002 C2000 1.395 . S
C2002 C2005 1.403 . S
C2003 C2000 1.403 . S
C2003 C2004 1.524 . S
C2003 C2007 1.400 . S
C2004 H1989 0.960 . S
C2004 H1990 0.960 . S
C2004 H1991 0.960 . S
C2004 C2003 1.524 . S
C2005 C2002 1.403 . S
C2005 C2006 1.392 . S
C2005 C2009 1.495 . S
C2006 C2005 1.392 . S
C2006 C2007 1.385 . S
C2006 C2008 1.478 . S
C2007 H2001 0.930 . S
C2007 C2003 1.400 . S
C2007 C2006 1.385 . S
C2008 C2006 1.478 . S
C2008 C2010 1.381 . S
C2008 C2014 1.383 . S
C2009 C2005 1.495 . S
C2009 H2015 0.959 . S
C2009 H2016 0.961 . S
C2009 H2017 0.960 . S
C2010 C2008 1.381 . S
C2010 C2011 1.394 . S
C2010 H2018 0.930 . S
C2011 C2010 1.394 . S
C2011 C2012 1.383 . S
C2011 H2019 0.929 . S
C2012 C2011 1.383 . S
C2012 C2013 1.377 . S
C2013 H1997 0.930 . S
C2013 C2012 1.377 . S
C2013 C2014 1.379 . S
C2014 H1998 0.931 . S
C2014 C2008 1.383 . S
C2014 C2013 1.379 . S
H2015 C2009 0.959 . S
H2016 C2009 0.961 . S
H2017 C2009 0.960 . S
H2018 C2010 0.930 . S
H2019 C2011 0.929 . S
H2020 C2028 0.929 . S
H2021 C2030 0.930 . S
H2022 C2032 0.930 . S
H2023 C2035 0.929 . S
H2024 C2038 0.930 . S
H2025 C2040 0.960 . S
H2026 C2040 0.960 . S
H2027 C2040 0.960 . S
C2028 H2020 0.929 . S
C2028 C2029 1.377 . S
C2028 C2030 1.384 . S
C2029 C2028 1.377 . S
C2029 C2035 1.390 . S
C2030 H2021 0.930 . S
C2030 C2028 1.384 . S
C2030 C2031 1.372 . S
C2031 C2030 1.372 . S
C2031 C2032 1.400 . S
C2031 C2036 1.490 . S
C2032 H2022 0.930 . S
C2032 C2031 1.400 . S
C2032 C2035 1.386 . S
H2033 C2049 0.930 . S
H2034 C2050 0.931 . S
C2035 H2023 0.929 . S
C2035 C2029 1.390 . S
C2035 C2032 1.386 . S
C2036 C2031 1.490 . S
C2036 C2038 1.395 . S
C2036 C2039 1.403 . S
H2037 C2043 0.930 . S
C2038 H2024 0.930 . S
C2038 C2036 1.395 . S
C2038 C2041 1.403 . S
C2039 C2036 1.403 . S
C2039 C2040 1.524 . S
C2039 C2043 1.400 . S
C2040 H2025 0.960 . S
C2040 H2026 0.960 . S
C2040 H2027 0.960 . S
C2040 C2039 1.524 . S
C2041 C2038 1.403 . S
C2041 C2042 1.392 . S
C2041 C2045 1.495 . S
C2042 C2041 1.392 . S
C2042 C2043 1.385 . S
C2042 C2044 1.478 . S
C2043 H2037 0.930 . S
C2043 C2039 1.400 . S
C2043 C2042 1.385 . S
C2044 C2042 1.478 . S
C2044 C2046 1.381 . S
C2044 C2050 1.383 . S
C2045 C2041 1.495 . S
C2045 H2051 0.959 . S
C2045 H2052 0.961 . S
C2045 H2053 0.960 . S
C2046 C2044 1.381 . S
C2046 C2047 1.394 . S
C2046 H2054 0.930 . S
C2047 C2046 1.394 . S
C2047 C2048 1.383 . S
C2047 H2055 0.929 . S
C2048 C2047 1.383 . S
C2048 C2049 1.377 . S
C2049 H2033 0.930 . S
C2049 C2048 1.377 . S
C2049 C2050 1.379 . S
C2050 H2034 0.931 . S
C2050 C2044 1.383 . S
C2050 C2049 1.379 . S
H2051 C2045 0.959 . S
H2052 C2045 0.961 . S
H2053 C2045 0.960 . S
H2054 C2046 0.930 . S
H2055 C2047 0.929 . S
H2056 C2064 0.929 . S
H2057 C2066 0.930 . S
H2058 C2068 0.930 . S
H2059 C2071 0.929 . S
H2060 C2074 0.930 . S
H2061 C2076 0.960 . S
H2062 C2076 0.960 . S
H2063 C2076 0.960 . S
C2064 H2056 0.929 . S
C2064 C2065 1.377 . S
C2064 C2066 1.384 . S
C2065 C2064 1.377 . S
C2065 C2071 1.390 . S
C2066 H2057 0.930 . S
C2066 C2064 1.384 . S
C2066 C2067 1.372 . S
C2067 C2066 1.372 . S
C2067 C2068 1.400 . S
C2067 C2072 1.490 . S
C2068 H2058 0.930 . S
C2068 C2067 1.400 . S
C2068 C2071 1.386 . S
H2069 C2085 0.930 . S
H2070 C2086 0.931 . S
C2071 H2059 0.929 . S
C2071 C2065 1.390 . S
C2071 C2068 1.386 . S
C2072 C2067 1.490 . S
C2072 C2074 1.395 . S
C2072 C2075 1.403 . S
H2073 C2079 0.930 . S
C2074 H2060 0.930 . S
C2074 C2072 1.395 . S
C2074 C2077 1.403 . S
C2075 C2072 1.403 . S
C2075 C2076 1.524 . S
C2075 C2079 1.400 . S
C2076 H2061 0.960 . S
C2076 H2062 0.960 . S
C2076 H2063 0.960 . S
C2076 C2075 1.524 . S
C2077 C2074 1.403 . S
C2077 C2078 1.392 . S
C2077 C2081 1.495 . S
C2078 C2077 1.392 . S
C2078 C2079 1.385 . S
C2078 C2080 1.478 . S
C2079 H2073 0.930 . S
C2079 C2075 1.400 . S
C2079 C2078 1.385 . S
C2080 C2078 1.478 . S
C2080 C2082 1.381 . S
C2080 C2086 1.383 . S
C2081 C2077 1.495 . S
C2081 H2087 0.959 . S
C2081 H2088 0.961 . S
C2081 H2089 0.960 . S
C2082 C2080 1.381 . S
C2082 C2083 1.394 . S
C2082 H2090 0.930 . S
C2083 C2082 1.394 . S
C2083 C2084 1.383 . S
C2083 H2091 0.929 . S
C2084 C2083 1.383 . S
C2084 C2085 1.377 . S
C2085 H2069 0.930 . S
C2085 C2084 1.377 . S
C2085 C2086 1.379 . S
C2086 H2070 0.931 . S
C2086 C2080 1.383 . S
C2086 C2085 1.379 . S
H2087 C2081 0.959 . S
H2088 C2081 0.961 . S
H2089 C2081 0.960 . S
H2090 C2082 0.930 . S
H2091 C2083 0.929 . S
H2092 C2100 0.929 . S
H2093 C2102 0.930 . S
H2094 C2104 0.930 1_655 S
H2095 C2107 0.929 . S
H2096 C2110 0.930 . S
H2097 C2112 0.960 . S
H2098 C2112 0.960 . S
H2099 C2112 0.960 1_554 S
C2100 H2092 0.929 . S
C2100 C2101 1.377 . S
C2100 C2102 1.384 . S
C2101 C2100 1.377 . S
C2101 C2107 1.390 . S
C2102 H2093 0.930 . S
C2102 C2100 1.384 . S
C2102 C2103 1.372 . S
C2103 C2102 1.372 . S
C2103 C2104 1.400 . S
C2103 C2108 1.490 . S
C2104 H2094 0.930 1_455 S
C2104 C2103 1.400 . S
C2104 C2107 1.386 . S
H2105 C2121 0.930 . S
H2106 C2122 0.931 . S
C2107 H2095 0.929 . S
C2107 C2101 1.390 . S
C2107 C2104 1.386 . S
C2108 C2103 1.490 . S
C2108 C2110 1.395 . S
C2108 C2111 1.403 1_454 S
H2109 C2115 0.930 . S
C2110 H2096 0.930 . S
C2110 C2108 1.395 . S
C2110 C2113 1.403 . S
C2111 C2108 1.403 1_656 S
C2111 C2112 1.524 . S
C2111 C2115 1.400 . S
C2112 H2097 0.960 . S
C2112 H2098 0.960 . S
C2112 H2099 0.960 1_556 S
C2112 C2111 1.524 . S
C2113 C2110 1.403 . S
C2113 C2114 1.392 1_454 S
C2113 C2117 1.495 . S
C2114 C2113 1.392 1_656 S
C2114 C2115 1.385 . S
C2114 C2116 1.478 . S
C2115 H2109 0.930 . S
C2115 C2111 1.400 . S
C2115 C2114 1.385 . S
C2116 C2114 1.478 . S
C2116 C2118 1.381 . S
C2116 C2122 1.383 . S
C2117 C2113 1.495 . S
C2117 H2123 0.959 . S
C2117 H2124 0.961 . S
C2117 H2125 0.960 1_554 S
C2118 C2116 1.381 . S
C2118 C2119 1.394 . S
C2118 H2126 0.930 1_655 S
C2119 C2118 1.394 . S
C2119 C2120 1.383 . S
C2119 H2127 0.929 . S
C2120 C2119 1.383 . S
C2120 C2121 1.377 . S
C2121 H2105 0.930 . S
C2121 C2120 1.377 . S
C2121 C2122 1.379 . S
C2122 H2106 0.931 . S
C2122 C2116 1.383 . S
C2122 C2121 1.379 . S
H2123 C2117 0.959 . S
H2124 C2117 0.961 . S
H2125 C2117 0.960 1_556 S
H2126 C2118 0.930 1_455 S
H2127 C2119 0.929 . S
H2128 C2136 0.929 . S
H2129 C2138 0.930 . S
H2130 C2140 0.930 . S
H2131 C2143 0.929 . S
H2132 C2146 0.930 . S
H2133 C2148 0.960 . S
H2134 C2148 0.960 . S
H2135 C2148 0.960 . S
C2136 H2128 0.929 . S
C2136 C2137 1.377 . S
C2136 C2138 1.384 . S
C2137 C2136 1.377 . S
C2137 C2143 1.390 . S
C2138 H2129 0.930 . S
C2138 C2136 1.384 . S
C2138 C2139 1.372 . S
C2139 C2138 1.372 . S
C2139 C2140 1.400 . S
C2139 C2144 1.490 . S
C2140 H2130 0.930 . S
C2140 C2139 1.400 . S
C2140 C2143 1.386 . S
H2141 C2157 0.930 . S
H2142 C2158 0.931 . S
C2143 H2131 0.929 . S
C2143 C2137 1.390 . S
C2143 C2140 1.386 . S
C2144 C2139 1.490 . S
C2144 C2146 1.395 . S
C2144 C2147 1.403 . S
H2145 C2151 0.930 . S
C2146 H2132 0.930 . S
C2146 C2144 1.395 . S
C2146 C2149 1.403 . S
C2147 C2144 1.403 . S
C2147 C2148 1.524 . S
C2147 C2151 1.400 . S
C2148 H2133 0.960 . S
C2148 H2134 0.960 . S
C2148 H2135 0.960 . S
C2148 C2147 1.524 . S
C2149 C2146 1.403 . S
C2149 C2150 1.392 . S
C2149 C2153 1.495 . S
C2150 C2149 1.392 . S
C2150 C2151 1.385 . S
C2150 C2152 1.478 . S
C2151 H2145 0.930 . S
C2151 C2147 1.400 . S
C2151 C2150 1.385 . S
C2152 C2150 1.478 . S
C2152 C2154 1.381 . S
C2152 C2158 1.383 . S
C2153 C2149 1.495 . S
C2153 H2159 0.959 . S
C2153 H2160 0.961 . S
C2153 H2161 0.960 . S
C2154 C2152 1.381 . S
C2154 C2155 1.394 . S
C2154 H2162 0.930 . S
C2155 C2154 1.394 . S
C2155 C2156 1.383 . S
C2155 H2163 0.929 . S
C2156 C2155 1.383 . S
C2156 C2157 1.377 . S
C2157 H2141 0.930 . S
C2157 C2156 1.377 . S
C2157 C2158 1.379 . S
C2158 H2142 0.931 . S
C2158 C2152 1.383 . S
C2158 C2157 1.379 . S
H2159 C2153 0.959 . S
H2160 C2153 0.961 . S
H2161 C2153 0.960 . S
H2162 C2154 0.930 . S
H2163 C2155 0.929 . S
H2164 C2172 0.929 . S
H2165 C2174 0.930 . S
H2166 C2176 0.930 . S
H2167 C2179 0.929 . S
H2168 C2182 0.930 . S
H2169 C2184 0.960 . S
H2170 C2184 0.960 . S
H2171 C2184 0.960 . S
C2172 H2164 0.929 . S
C2172 C2173 1.377 . S
C2172 C2174 1.384 . S
C2173 C2172 1.377 . S
C2173 C2179 1.390 . S
C2174 H2165 0.930 . S
C2174 C2172 1.384 . S
C2174 C2175 1.372 . S
C2175 C2174 1.372 . S
C2175 C2176 1.400 . S
C2175 C2180 1.490 . S
C2176 H2166 0.930 . S
C2176 C2175 1.400 . S
C2176 C2179 1.386 . S
H2177 C2193 0.930 . S
H2178 C2194 0.931 . S
C2179 H2167 0.929 . S
C2179 C2173 1.390 . S
C2179 C2176 1.386 . S
C2180 C2175 1.490 . S
C2180 C2182 1.395 . S
C2180 C2183 1.403 . S
H2181 C2187 0.930 . S
C2182 H2168 0.930 . S
C2182 C2180 1.395 . S
C2182 C2185 1.403 . S
C2183 C2180 1.403 . S
C2183 C2184 1.524 . S
C2183 C2187 1.400 . S
C2184 H2169 0.960 . S
C2184 H2170 0.960 . S
C2184 H2171 0.960 . S
C2184 C2183 1.524 . S
C2185 C2182 1.403 . S
C2185 C2186 1.392 . S
C2185 C2189 1.495 . S
C2186 C2185 1.392 . S
C2186 C2187 1.385 . S
C2186 C2188 1.478 . S
C2187 H2181 0.930 . S
C2187 C2183 1.400 . S
C2187 C2186 1.385 . S
C2188 C2186 1.478 . S
C2188 C2190 1.381 . S
C2188 C2194 1.383 . S
C2189 C2185 1.495 . S
C2189 H2195 0.959 . S
C2189 H2196 0.961 . S
C2189 H2197 0.960 . S
C2190 C2188 1.381 . S
C2190 C2191 1.394 . S
C2190 H2198 0.930 . S
C2191 C2190 1.394 . S
C2191 C2192 1.383 . S
C2191 H2199 0.929 . S
C2192 C2191 1.383 . S
C2192 C2193 1.377 . S
C2193 H2177 0.930 . S
C2193 C2192 1.377 . S
C2193 C2194 1.379 . S
C2194 H2178 0.931 . S
C2194 C2188 1.383 . S
C2194 C2193 1.379 . S
H2195 C2189 0.959 . S
H2196 C2189 0.961 . S
H2197 C2189 0.960 . S
H2198 C2190 0.930 . S
H2199 C2191 0.929 . S
H2200 C2208 0.929 . S
H2201 C2210 0.930 . S
H2202 C2212 0.930 . S
H2203 C2215 0.929 . S
H2204 C2218 0.930 . S
H2205 C2220 0.960 . S
H2206 C2220 0.960 . S
H2207 C2220 0.960 . S
C2208 H2200 0.929 . S
C2208 C2209 1.377 . S
C2208 C2210 1.384 . S
C2209 C2208 1.377 . S
C2209 C2215 1.390 . S
C2210 H2201 0.930 . S
C2210 C2208 1.384 . S
C2210 C2211 1.372 . S
C2211 C2210 1.372 . S
C2211 C2212 1.400 . S
C2211 C2216 1.490 . S
C2212 H2202 0.930 . S
C2212 C2211 1.400 . S
C2212 C2215 1.386 . S
H2213 C2229 0.930 . S
H2214 C2230 0.931 . S
C2215 H2203 0.929 . S
C2215 C2209 1.390 . S
C2215 C2212 1.386 . S
C2216 C2211 1.490 . S
C2216 C2218 1.395 1_545 S
C2216 C2219 1.403 1_455 S
H2217 C2223 0.930 . S
C2218 H2204 0.930 . S
C2218 C2216 1.395 1_565 S
C2218 C2221 1.403 1_556 S
C2219 C2216 1.403 1_655 S
C2219 C2220 1.524 . S
C2219 C2223 1.400 1_546 S
C2220 H2205 0.960 . S
C2220 H2206 0.960 . S
C2220 H2207 0.960 . S
C2220 C2219 1.524 . S
C2221 C2218 1.403 1_554 S
C2221 C2222 1.392 1_455 S
C2221 C2225 1.495 . S
C2222 C2221 1.392 1_655 S
C2222 C2223 1.385 . S
C2222 C2224 1.478 . S
C2223 H2217 0.930 . S
C2223 C2219 1.400 1_564 S
C2223 C2222 1.385 . S
C2224 C2222 1.478 . S
C2224 C2226 1.381 . S
C2224 C2230 1.383 . S
C2225 C2221 1.495 . S
C2225 H2231 0.959 . S
C2225 H2232 0.961 . S
C2225 H2233 0.960 . S
C2226 C2224 1.381 . S
C2226 C2227 1.394 . S
C2226 H2234 0.930 . S
C2227 C2226 1.394 . S
C2227 C2228 1.383 . S
C2227 H2235 0.929 . S
C2228 C2227 1.383 . S
C2228 C2229 1.377 . S
C2229 H2213 0.930 . S
C2229 C2228 1.377 . S
C2229 C2230 1.379 . S
C2230 H2214 0.931 . S
C2230 C2224 1.383 . S
C2230 C2229 1.379 . S
H2231 C2225 0.959 . S
H2232 C2225 0.961 . S
H2233 C2225 0.960 . S
H2234 C2226 0.930 . S
H2235 C2227 0.929 . S
H2236 C2244 0.929 . S
H2237 C2246 0.930 . S
H2238 C2248 0.930 . S
H2239 C2251 0.929 . S
H2240 C2254 0.930 . S
H2241 C2256 0.960 1_565 S
H2242 C2256 0.960 . S
H2243 C2256 0.960 . S
C2244 H2236 0.929 . S
C2244 C2245 1.377 . S
C2244 C2246 1.384 . S
C2245 C2244 1.377 . S
C2245 C2251 1.390 . S
C2246 H2237 0.930 . S
C2246 C2244 1.384 . S
C2246 C2247 1.372 . S
C2247 C2246 1.372 . S
C2247 C2248 1.400 . S
C2247 C2252 1.490 . S
C2248 H2238 0.930 . S
C2248 C2247 1.400 . S
C2248 C2251 1.386 . S
H2249 C2265 0.930 . S
H2250 C2266 0.931 . S
C2251 H2239 0.929 . S
C2251 C2245 1.390 . S
C2251 C2248 1.386 . S
C2252 C2247 1.490 . S
C2252 C2254 1.395 . S
C2252 C2255 1.403 . S
H2253 C2259 0.930 . S
C2254 H2240 0.930 . S
C2254 C2252 1.395 . S
C2254 C2257 1.366 1_545 S
C2255 C2252 1.403 . S
C2255 C2256 1.524 . S
C2255 C2259 1.400 1_545 S
C2256 H2241 0.960 1_545 S
C2256 H2242 0.960 . S
C2256 H2243 0.960 . S
C2256 C2255 1.524 . S
C2257 C2254 1.366 1_565 S
C2257 C2258 1.426 . S
C2257 C2261 1.500 . S
C2258 C2257 1.426 . S
C2258 C2259 1.385 . S
C2258 C2260 1.478 . S
C2259 H2253 0.930 . S
C2259 C2255 1.400 1_565 S
C2259 C2258 1.385 . S
C2260 C2258 1.478 . S
C2260 C2262 1.381 . S
C2260 C2266 1.383 . S
C2261 C2257 1.500 . S
C2261 H2267 0.959 1_565 S
C2261 H2268 0.961 . S
C2261 H2269 0.964 . S
C2262 C2260 1.381 . S
C2262 C2263 1.394 . S
C2262 H2270 0.930 . S
C2263 C2262 1.394 . S
C2263 C2264 1.383 . S
C2263 H2271 0.929 . S
C2264 C2263 1.383 . S
C2264 C2265 1.377 . S
C2265 H2249 0.930 . S
C2265 C2264 1.377 . S
C2265 C2266 1.379 . S
C2266 H2250 0.931 . S
C2266 C2260 1.383 . S
C2266 C2265 1.379 . S
H2267 C2261 0.959 1_545 S
H2268 C2261 0.961 . S
H2269 C2261 0.964 . S
H2270 C2262 0.930 . S
H2271 C2263 0.929 . S
C553 C17 1.713 . S
C572 C357 1.727 . S
C589 C51 1.719 . S
C608 C391 1.700 . S
C625 C85 1.714 . S
C644 C289 1.726 . S
C661 C119 1.720 . S
C680 C323 1.698 . S
C697 C144 1.713 . S
C716 C484 1.702 . S
C733 C178 1.714 . S
C752 C518 1.701 . S
C769 C212 1.713 . S
C788 C416 1.701 . S
C805 C246 1.719 . S
C824 C450 1.712 . S
C841 C310 0.926 . S
C860 C8 0.922 . S
C877 C344 0.915 . S
C896 C42 0.936 . S
C913 C378 0.926 . S
C932 C76 0.923 . S
C949 C276 0.920 . S
C968 C110 0.930 . S
C985 C153 0.933 . S
C1004 C455 0.952 . S
C1021 C489 0.913 . S
C1040 C187 0.924 . S
C1057 C523 0.919 . S
C1076 C221 0.924 . S
C1093 C421 0.912 . S
C1112 C255 0.926 . S
C1129 C38 0.912 . S
C1148 C280 0.938 . S
C1165 C314 0.932 . S
C1184 C72 0.905 . S
C1201 C348 0.932 . S
C1220 C106 0.915 . S
C1237 C382 0.933 . S
C1256 C4 0.891 . S
C1273 C425 0.932 . S
C1292 C183 0.947 . S
C1309 C217 0.923 . S
C1328 C459 0.939 . S
C1345 C251 0.926 . S
C1364 C493 0.936 . S
C1381 C527 0.933 . S
C1400 C149 0.915 . S
C1417 C29 0.995 . S
C1436 C514 1.002 . S
C1453 C63 0.991 . S
C1472 C140 0.957 . S
C1489 C446 0.966 . S
C1508 C97 0.980 . S
C1525 C208 0.977 . S
C1544 C131 0.995 . S
C1561 C136 0.991 . S
C1580 C387 0.973 . S
C1597 C170 0.995 . S
C1616 C13 0.937 . S
C1633 C319 0.980 . S
C1652 C204 0.988 . S
C1669 C81 0.978 . S
C1688 C238 0.979 . S
C1705 C301 0.995 . S
C1724 C242 1.008 . S
C1741 C335 0.995 . S
C1760 C412 1.005 . S
C1777 C174 0.969 . S
C1796 C369 0.984 . S
C1813 C480 0.971 . S
C1832 C403 0.987 . S
C1849 C408 0.995 . S
C1868 C115 0.955 . S
C1885 C442 0.994 . S
C1904 C285 0.990 . S
C1921 C476 0.991 . S
C1940 C47 1.007 . S
C1957 C353 0.977 . S
C1976 C510 0.979 . S
C1993 C0 2.148 . S
C2012 C437 2.138 . S
C2029 C34 2.148 . S
C2048 C199 2.140 . S
C2065 C68 2.148 . S
C2084 C505 2.138 . S
C2101 C267 2.149 . S
C2120 C102 2.149 . S
C2137 C165 2.148 . S
C2156 C272 2.149 . S
C2173 C340 2.147 . S
C2192 C233 2.143 . S
C2209 C306 2.147 . S
C2228 C471 2.147 . S
C2245 C539 2.149 . S
C2264 C374 2.142 . S
