# Generated by pormake.
# Topology smm, (6)-cn, num edge types: 1
# Building blocks:
#     Node 0, Type 0, BuildingBlock: KUMJIN_clean_sbu_1, # of connection points: 6
#     Node 1, Type 0, BuildingBlock: KUMJIN_clean_sbu_1, # of connection points: 6
#     Node 2, Type 0, BuildingBlock: KUMJIN_clean_sbu_1, # of connection points: 6
#     Node 3, Type 0, BuildingBlock: KUMJIN_clean_sbu_1, # of connection points: 6
#     Node 4, Type 0, BuildingBlock: KUMJIN_clean_sbu_1, # of connection points: 6
#     Node 5, Type 0, BuildingBlock: KUMJIN_clean_sbu_1, # of connection points: 6
#     Node 6, Type 0, BuildingBlock: KUMJIN_clean_sbu_1, # of connection points: 6
#     Node 7, Type 0, BuildingBlock: KUMJIN_clean_sbu_1, # of connection points: 6
#     Node 8, Type 0, BuildingBlock: KUMJIN_clean_sbu_1, # of connection points: 6
#     Edge 9, Type (0, 0), BuildingBlock: OJICUG_clean_linker_0, # of connection points: 2
#     Edge 10, Type (0, 0), BuildingBlock: OJICUG_clean_linker_0, # of connection points: 2
#     Edge 11, Type (0, 0), BuildingBlock: OJICUG_clean_linker_0, # of connection points: 2
#     Edge 12, Type (0, 0), BuildingBlock: OJICUG_clean_linker_0, # of connection points: 2
#     Edge 13, Type (0, 0), BuildingBlock: OJICUG_clean_linker_0, # of connection points: 2
#     Edge 14, Type (0, 0), BuildingBlock: OJICUG_clean_linker_0, # of connection points: 2
#     Edge 15, Type (0, 0), BuildingBlock: OJICUG_clean_linker_0, # of connection points: 2
#     Edge 16, Type (0, 0), BuildingBlock: OJICUG_clean_linker_0, # of connection points: 2
#     Edge 17, Type (0, 0), BuildingBlock: OJICUG_clean_linker_0, # of connection points: 2
#     Edge 18, Type (0, 0), BuildingBlock: OJICUG_clean_linker_0, # of connection points: 2
#     Edge 19, Type (0, 0), BuildingBlock: OJICUG_clean_linker_0, # of connection points: 2
#     Edge 20, Type (0, 0), BuildingBlock: OJICUG_clean_linker_0, # of connection points: 2
#     Edge 21, Type (0, 0), BuildingBlock: OJICUG_clean_linker_0, # of connection points: 2
#     Edge 22, Type (0, 0), BuildingBlock: OJICUG_clean_linker_0, # of connection points: 2
#     Edge 23, Type (0, 0), BuildingBlock: OJICUG_clean_linker_0, # of connection points: 2
#     Edge 24, Type (0, 0), BuildingBlock: OJICUG_clean_linker_0, # of connection points: 2
#     Edge 25, Type (0, 0), BuildingBlock: OJICUG_clean_linker_0, # of connection points: 2
#     Edge 26, Type (0, 0), BuildingBlock: OJICUG_clean_linker_0, # of connection points: 2
#     Edge 27, Type (0, 0), BuildingBlock: OJICUG_clean_linker_0, # of connection points: 2
#     Edge 28, Type (0, 0), BuildingBlock: OJICUG_clean_linker_0, # of connection points: 2
#     Edge 29, Type (0, 0), BuildingBlock: OJICUG_clean_linker_0, # of connection points: 2
#     Edge 30, Type (0, 0), BuildingBlock: OJICUG_clean_linker_0, # of connection points: 2
#     Edge 31, Type (0, 0), BuildingBlock: OJICUG_clean_linker_0, # of connection points: 2
#     Edge 32, Type (0, 0), BuildingBlock: OJICUG_clean_linker_0, # of connection points: 2
#     Edge 33, Type (0, 0), BuildingBlock: OJICUG_clean_linker_0, # of connection points: 2
#     Edge 34, Type (0, 0), BuildingBlock: OJICUG_clean_linker_0, # of connection points: 2
#     Edge 35, Type (0, 0), BuildingBlock: OJICUG_clean_linker_0, # of connection points: 2
# Relax obj value: 0.143
# Max RMSD: 0.242
# Mean RMSD: 0.197
data_MOF--net-smm--node1-KUMJIN_clean_sbu_1--edge1-OJICUG_clean_linker_0
_symmetry_space_group_name_H-M    P1
_symmetry_Int_Tables_number       1
_symmetry_cell_setting            triclinic
loop_
_symmetry_equiv_pos_as_xyz
'x, y, z'
_cell_length_a     45.525493
_cell_length_b     60.445296
_cell_length_c     10.92913
_cell_angle_alpha  96.77116
_cell_angle_beta   97.687888
_cell_angle_gamma 122.77684
loop_
_atom_site_label
_atom_site_type_symbol
_atom_site_fract_x
_atom_site_fract_y
_atom_site_fract_z
_atom_type_partial_charge
Eu0 Eu 1.03615 0.20279 0.09925 0.0
C1 C 0.19476 0.26548 0.32485 0.0
N2 N 0.16977 0.26833 0.3659 0.0
C3 C 0.19564 0.27292 0.58074 0.0
C4 C 0.22031 0.26505 0.41116 0.0
C5 C 0.17036 0.27265 0.49175 0.0
C6 C 0.2205 0.26882 0.54031 0.0
C7 C 0.21841 0.25756 0.15048 0.0
C8 C 0.19405 0.26211 0.1953 0.0
C9 C 0.24376 0.25704 0.2365 0.0
C10 C 0.24484 0.26093 0.36632 0.0
Eu11 Eu 0.13149 0.27086 0.21017 0.0
N12 N 0.16898 0.26247 0.11308 0.0
C13 C 0.21644 0.25344 0.02016 0.0
C14 C 0.16798 0.25955 0.98666 0.0
C15 C 0.19115 0.25445 0.93812 0.0
H16 H 0.15226 0.27693 0.52432 0.0
H17 H 0.18969 0.25147 0.83745 0.0
H18 H 1.01303 0.18639 0.7793 0.0
H19 H 0.95646 0.19949 0.43587 0.0
H20 H 0.14989 0.26151 0.92272 0.0
H21 H 0.23447 0.24964 0.98198 0.0
H22 H 1.00868 0.20428 0.36832 0.0
H23 H 0.19627 0.27673 0.68053 0.0
H24 H 0.26271 0.25365 0.20349 0.0
H25 H 0.26466 0.26054 0.4313 0.0
H26 H 0.9637 0.17604 0.60707 0.0
H27 H 0.23997 0.26892 0.60968 0.0
H28 H 0.90394 0.18853 0.27559 0.0
N29 N 0.98975 0.1916 0.92653 0.0
C30 C 0.96005 0.18875 0.95646 0.0
C31 C 0.96251 0.17994 0.70489 0.0
C32 C 0.93042 0.18168 0.86074 0.0
C33 C 0.99087 0.18641 0.80293 0.0
C34 C 0.93226 0.17781 0.73388 0.0
N35 N 0.98758 0.19867 0.17317 0.0
C36 C 0.98669 0.20063 0.29806 0.0
C37 C 0.92769 0.18804 0.11708 0.0
C38 C 0.95871 0.19199 0.08314 0.0
C39 C 0.92721 0.19123 0.24564 0.0
C40 C 0.95682 0.19747 0.33647 0.0
H41 H 0.91009 0.17242 0.65765 0.0
H42 H 0.87637 0.17214 0.82203 0.0
H43 H 0.8735 0.17652 0.04583 0.0
O44 O 1.03377 0.17258 0.19719 0.0
O45 O 1.0303 0.23806 0.14024 0.0
O46 O 0.08686 0.27814 0.17458 0.0
O47 O 1.00213 0.16045 0.00337 0.0
O48 O 0.06605 0.21729 0.30726 0.0
O49 O 0.09766 0.26339 0.35218 0.0
O50 O 0.1728 0.30807 0.16617 0.0
O51 O 0.12317 0.22965 0.22134 0.0
O52 O 0.08307 0.20576 0.03562 0.0
O53 O 0.16314 0.30843 0.35479 0.0
O54 O 0.10373 0.2646 0.00655 0.0
O55 O 0.06632 0.21826 0.94744 0.0
C56 C 0.05146 0.26458 0.1578 0.0
C57 C 0.98496 0.12659 0.11988 0.0
C58 C 0.97273 0.08341 0.14875 0.0
C59 C 0.93576 0.07273 0.12474 0.0
C60 C 0.94821 0.11597 0.0959 0.0
C61 C 0.92369 0.08908 0.09982 0.0
C62 C 0.99707 0.11065 0.1496 0.0
C63 C 0.07962 0.24049 0.3864 0.0
C64 C 1.01144 0.15281 0.09904 0.0
C65 C 0.89954 0.17785 0.89427 0.0
C66 C 0.89802 0.18062 0.02188 0.0
C67 C 0.10919 0.20964 0.12153 0.0
C68 C 0.18173 0.34783 0.27779 0.0
C69 C 0.20629 0.38939 0.20421 0.0
C70 C 0.18914 0.39708 0.27891 0.0
C71 C 0.164 0.35532 0.35095 0.0
C72 C 0.20268 0.36492 0.20496 0.0
C73 C 0.16776 0.37989 0.35124 0.0
C74 C 0.08204 0.24202 0.91906 0.0
C75 C 0.17991 0.32283 0.27719 0.0
H76 H 0.91614 0.05167 0.12201 0.0
H77 H 0.93855 0.12817 0.07156 0.0
H78 H 0.89522 0.08068 0.08007 0.0
H79 H 1.02573 0.11946 0.16945 0.0
H80 H 0.19207 0.41613 0.28046 0.0
H81 H 0.14749 0.34238 0.40818 0.0
H82 H 0.21686 0.35937 0.15016 0.0
H83 H 0.15424 0.38568 0.40807 0.0
Eu84 Eu 0.954 0.89368 0.09757 0.0
C85 C 1.03389 0.84135 0.97291 0.0
N86 N 1.00071 0.83353 0.90931 0.0
C87 C 1.01488 0.82741 0.71017 0.0
C88 C 0.05909 0.8428 0.90615 0.0
C89 C 0.99053 0.82581 0.78019 0.0
C90 C 0.04937 0.83607 0.77333 0.0
C91 C 0.07695 0.85595 0.17312 0.0
C92 C 1.04285 0.84797 0.10565 0.0
C93 C 0.10175 0.85697 0.10646 0.0
C94 C 0.09295 0.85055 0.9736 0.0
Eu95 Eu 0.96207 0.83074 0.0385 0.0
N96 N 1.01859 0.84735 0.16858 0.0
C97 C 0.08506 0.86247 0.30589 0.0
C98 C 1.02561 0.85218 0.29776 0.0
C99 C 0.05914 0.86033 0.36839 0.0
H100 H 0.9634 0.81771 0.7309 0.0
H101 H 0.06473 0.86447 0.47095 0.0
H102 H 0.9436 0.89745 0.38871 0.0
H103 H 0.87735 0.896 0.6713 0.0
H104 H 1.00526 0.84901 0.34716 0.0
H105 H 0.11101 0.86872 0.361 0.0
H106 H 0.92822 0.89798 0.79631 0.0
H107 H 1.00685 0.82155 0.60761 0.0
H108 H 0.12774 0.8625 0.15716 0.0
H109 H 0.1124 0.85134 0.92382 0.0
H110 H 0.89921 0.89399 0.5042 0.0
H111 H 0.06807 0.83706 0.71873 0.0
H112 H 0.82867 0.89056 0.76701 0.0
N113 N 0.91168 0.88935 0.20895 0.0
C114 C 0.88337 0.88842 0.14443 0.0
C115 C 0.89372 0.89172 0.40287 0.0
C116 C 0.85779 0.88759 0.20668 0.0
C117 C 0.91844 0.89277 0.33708 0.0
C118 C 0.86279 0.88865 0.33712 0.0
N119 N 0.90699 0.89146 0.96128 0.0
C120 C 0.90647 0.8944 0.83905 0.0
C121 C 0.85207 0.88908 0.94915 0.0
C122 C 0.88088 0.88943 0.01724 0.0
C123 C 0.85052 0.89084 0.82249 0.0
C124 C 0.87797 0.89374 0.76773 0.0
H125 H 0.84376 0.88819 0.38849 0.0
H126 H 0.80922 0.88603 0.18513 0.0
H127 H 0.80371 0.88673 0.9575 0.0
O128 O 0.96086 0.93223 0.10414 0.0
O129 O 0.90498 0.85332 0.10624 0.0
O130 O 0.90362 0.82041 0.9709 0.0
O131 O 0.99555 0.92897 0.24756 0.0
O132 O 0.95884 0.88126 0.89841 0.0
O133 O 0.93709 0.83559 0.85733 0.0
O134 O 0.9475 0.79733 0.13843 0.0
O135 O 1.01634 0.87739 0.07729 0.0
O136 O 0.99889 0.9034 0.00157 0.0
O137 O 0.94671 0.79008 0.94359 0.0
O138 O 0.94468 0.83719 0.21571 0.0
O139 O 0.97774 0.88304 0.2594 0.0
C140 C 0.88687 0.83065 0.01955 0.0
C141 C 1.01442 0.97312 0.2181 0.0
C142 C 1.02749 1.01797 0.22321 0.0
C143 C 0.06449 1.02883 0.25313 0.0
C144 C 0.05131 0.98412 0.25046 0.0
C145 C 0.07625 1.01192 0.2666 0.0
C146 C 1.00279 0.99007 0.20451 0.0
C147 C 0.9473 0.8582 0.81994 0.0
C148 C 0.98677 0.94452 0.20626 0.0
C149 C 0.82883 0.88665 0.13811 0.0
C150 C 0.82588 0.88725 0.00964 0.0
C151 C 1.02489 0.90061 0.04131 0.0
C152 C 0.90986 0.7499 0.02389 0.0
C153 C 0.87999 0.70052 0.03458 0.0
C154 C 0.84735 0.69635 0.97651 0.0
C155 C 0.87591 0.74357 0.96876 0.0
C156 C 0.91196 0.72796 0.05715 0.0
C157 C 0.8454 0.71731 0.94464 0.0
C158 C 0.95905 0.86026 0.29581 0.0
C159 C 0.94175 0.77939 0.04229 0.0
H160 H 0.08426 0.05036 0.26802 0.0
H161 H 0.0608 0.97137 0.26383 0.0
H162 H 0.10475 1.02042 0.29096 0.0
H163 H 0.97417 0.9814 0.17927 0.0
H164 H 0.82268 0.67638 0.95591 0.0
H165 H 0.87294 0.75916 0.94292 0.0
H166 H 0.93779 0.73228 0.10145 0.0
H167 H 0.81974 0.71322 0.90037 0.0
Eu168 Eu 0.22152 0.0701 0.03837 0.0
C169 C 0.21855 0.96411 0.08014 0.0
N170 N 0.23825 0.98959 0.15491 0.0
C171 C 0.23448 0.97216 0.34209 0.0
C172 C 0.20574 0.94153 0.13509 0.0
C173 C 0.24706 0.99396 0.28361 0.0
C174 C 0.21371 0.94582 0.26756 0.0
C175 C 0.18851 0.93417 0.8699 0.0
C176 C 0.21011 0.96049 0.9481 0.0
C177 C 0.17628 0.91176 0.92477 0.0
C178 C 0.18509 0.91545 0.05662 0.0
Eu179 Eu 0.26132 1.02433 0.0454 0.0
N180 N 0.22226 0.98258 0.89666 0.0
C181 C 0.18 0.93108 0.73845 0.0
C182 C 0.21526 0.97963 0.76822 0.0
C183 C 0.19359 0.95391 0.68747 0.0
H184 H 0.26516 1.01417 0.34083 0.0
H185 H 0.18792 0.9517 0.58571 0.0
H186 H 0.21805 0.08057 0.74344 0.0
H187 H 0.30345 0.1416 0.49726 0.0
H188 H 0.22709 0.99683 0.72643 0.0
H189 H 0.16341 0.91118 0.67538 0.0
H190 H 0.25963 0.09697 0.35746 0.0
H191 H 0.24147 0.97571 0.44439 0.0
H192 H 0.16007 0.89146 0.86572 0.0
H193 H 0.1758 0.89798 0.09716 0.0
H194 H 0.24546 0.11904 0.64032 0.0
H195 H 0.20417 0.92896 0.31316 0.0
H196 H 0.33169 0.18215 0.40792 0.0
N197 N 0.24779 0.10467 0.92887 0.0
C198 C 0.27011 0.13012 0.00399 0.0
C199 C 0.25293 0.1224 0.74241 0.0
C200 C 0.28561 0.15276 0.94929 0.0
C201 C 0.2381 0.10056 0.80058 0.0
C202 C 0.27691 0.1486 0.81698 0.0
N203 N 0.2651 0.11115 0.18705 0.0
C204 C 0.27286 0.11399 0.31525 0.0
C205 C 0.30371 0.1596 0.21402 0.0
C206 C 0.27915 0.13344 0.13597 0.0
C207 C 0.31286 0.1624 0.34498 0.0
C208 C 0.29722 0.13953 0.39572 0.0
H209 H 0.28838 0.16549 0.7715 0.0
H210 H 0.32193 0.19636 0.98722 0.0
H211 H 0.33768 0.20235 0.21807 0.0
O212 O 0.19705 0.08881 0.13347 0.0
O213 O 0.2826 0.09215 0.02384 0.0
O214 O 0.30766 0.06906 0.0789 0.0
O215 O 0.17891 0.07163 0.93015 0.0
O216 O 0.21901 0.05219 0.21094 0.0
O217 O 0.26808 0.0497 0.23243 0.0
O218 O 0.29218 1.01329 0.94637 0.0
O219 O 0.20003 0.99973 0.04598 0.0
O220 O 0.17513 1.02462 0.03106 0.0
O221 O 0.30621 1.02496 0.15064 0.0
O222 O 0.26049 0.04157 0.87202 0.0
O223 O 0.21068 0.04315 0.8505 0.0
C224 C 0.31118 0.09098 0.05151 0.0
C225 C 0.14934 0.09162 0.01348 0.0
C226 C 0.12917 0.1225 0.02765 0.0
C227 C 0.09479 0.10047 0.95928 0.0
C228 C 0.11449 0.07052 0.94608 0.0
C229 C 0.08763 0.07495 0.91902 0.0
C230 C 0.15676 0.11789 0.05632 0.0
C231 C 0.24185 0.04856 0.27679 0.0
C232 C 0.17738 0.08567 0.02622 0.0
C233 C 0.30972 0.17874 0.02767 0.0
C234 C 0.31872 0.18214 0.15932 0.0
C235 C 0.17179 1.0013 0.03798 0.0
C236 C 0.31917 0.99452 0.05676 0.0
C237 C 0.35218 0.97451 0.01009 0.0
C238 C 0.33452 0.9559 0.08377 0.0
C239 C 0.30254 0.97586 0.13159 0.0
C240 C 0.34403 0.99364 0.99482 0.0
C241 C 0.30964 0.95642 0.14298 0.0
C242 C 0.23579 0.04303 0.80352 0.0
C243 C 0.31264 1.01595 0.05035 0.0
H244 H 0.07315 0.1031 0.93539 0.0
H245 H 0.10808 0.05045 0.91232 0.0
H246 H 0.06092 0.05842 0.86614 0.0
H247 H 0.18377 0.13461 0.10584 0.0
H248 H 0.3408 0.94138 0.09862 0.0
H249 H 0.28486 0.97668 0.18489 0.0
H250 H 0.358 1.0084 0.93986 0.0
H251 H 0.29663 0.94224 0.20127 0.0
Eu252 Eu 0.83654 0.53237 0.09785 0.0
C253 C 0.67375 0.4807 0.89418 0.0
N254 N 0.7032 0.50186 0.8676 0.0
C255 C 0.67371 0.4871 0.64719 0.0
C256 C 0.64325 0.46146 0.79608 0.0
C257 C 0.70341 0.50558 0.7469 0.0
C258 C 0.64359 0.46483 0.67156 0.0
C259 C 0.64437 0.45563 0.04792 0.0
C260 C 0.67432 0.47789 0.01969 0.0
C261 C 0.61373 0.43686 0.95039 0.0
C262 C 0.61327 0.43966 0.82503 0.0
Eu263 Eu 0.74876 0.53355 0.04579 0.0
N264 N 0.70424 0.49648 0.11331 0.0
C265 C 0.64612 0.45276 0.17339 0.0
C266 C 0.7054 0.49435 0.23635 0.0
C267 C 0.67683 0.47212 0.26767 0.0
H268 H 0.72575 0.52338 0.72784 0.0
H269 H 0.67828 0.47012 0.36487 0.0
H270 H 0.85846 0.53701 0.41146 0.0
H271 H 0.91979 0.59268 0.7975 0.0
H272 H 0.72768 0.50993 0.31123 0.0
H273 H 0.62383 0.43579 0.19869 0.0
H274 H 0.86614 0.55406 0.84448 0.0
H275 H 0.67377 0.49042 0.55217 0.0
H276 H 0.59013 0.42005 0.97076 0.0
H277 H 0.58949 0.42483 0.75098 0.0
H278 H 0.90806 0.56816 0.59619 0.0
H279 H 0.62056 0.45058 0.59387 0.0
H280 H 0.97187 0.62699 0.97199 0.0
N281 N 0.88246 0.56138 0.28252 0.0
C282 C 0.91313 0.58285 0.26419 0.0
C283 C 0.90953 0.57305 0.50428 0.0
C284 C 0.9427 0.60108 0.36716 0.0
C285 C 0.88094 0.55564 0.39945 0.0
C286 C 0.94032 0.59618 0.48868 0.0
N287 N 0.88689 0.56777 0.04388 0.0
C288 C 0.88843 0.56936 0.92127 0.0
C289 C 0.947 0.60791 0.1187 0.0
C290 C 0.91556 0.58602 0.14138 0.0
C291 C 0.94827 0.61035 0.99338 0.0
C292 C 0.9189 0.59094 0.89434 0.0
H293 H 0.96255 0.60957 0.57014 0.0
H294 H 0.99691 0.63739 0.4232 0.0
H295 H 1.0005 0.64355 0.20581 0.0
O296 O 0.84779 0.50699 0.97722 0.0
O297 O 0.84916 0.5763 0.09225 0.0
O298 O 0.79815 0.57669 0.08734 0.0
O299 O 0.86214 0.51379 0.17936 0.0
O300 O 0.80397 0.52068 0.89535 0.0
O301 O 0.78166 0.54702 0.89907 0.0
O302 O 0.71929 0.54593 0.14267 0.0
O303 O 0.74336 0.49366 0.97668 0.0
O304 O 0.78443 0.49529 0.12675 0.0
O305 O 0.72102 0.54884 0.94791 0.0
O306 O 0.78115 0.54809 0.25096 0.0
O307 O 0.80561 0.52348 0.25103 0.0
C308 C 0.83294 0.58945 0.09445 0.0
C309 C 0.894 0.50124 0.06864 0.0
C310 C 0.92553 0.47843 0.08823 0.0
C311 C 0.95638 0.50179 0.07205 0.0
C312 C 0.92547 0.52414 0.05397 0.0
C313 C 0.95636 0.52438 0.05592 0.0
C314 C 0.89425 0.4784 0.08776 0.0
C315 C 0.79427 0.53483 0.84063 0.0
C316 C 0.86176 0.50173 0.07241 0.0
C317 C 0.974 0.62311 0.34519 0.0
C318 C 0.9761 0.62656 0.22134 0.0
C319 C 0.75245 0.48123 0.04791 0.0
C320 C 0.71339 0.5794 0.07049 0.0
C321 C 0.71909 0.61606 0.21519 0.0
C322 C 0.70941 0.62428 0.1112 0.0
C323 C 0.7043 0.58815 0.96744 0.0
C324 C 0.72135 0.59373 0.19459 0.0
C325 C 0.70234 0.61046 0.98792 0.0
C326 C 0.79617 0.53779 0.31147 0.0
C327 C 0.71049 0.55374 0.04627 0.0
H328 H 0.98084 0.50268 0.07329 0.0
H329 H 0.92624 0.54197 0.04203 0.0
H330 H 0.98056 0.54225 0.04505 0.0
H331 H 0.87023 0.46069 0.10101 0.0
H332 H 0.70706 0.64125 0.12555 0.0
H333 H 0.69764 0.57725 0.87089 0.0
H334 H 0.72759 0.58687 0.2752 0.0
H335 H 0.69445 0.61663 0.90793 0.0
Eu336 Eu 0.53835 0.24454 0.07116 0.0
C337 C 0.59367 0.17283 0.91582 0.0
N338 N 0.56156 0.16807 0.86066 0.0
C339 C 0.56835 0.15598 0.65463 0.0
C340 C 0.61452 0.16938 0.84112 0.0
C341 C 0.54852 0.15952 0.73242 0.0
C342 C 0.60153 0.16099 0.70915 0.0
C343 C 0.63982 0.18748 0.10606 0.0
C344 C 0.60627 0.18198 0.04724 0.0
C345 C 0.66008 0.1833 0.03195 0.0
C346 C 0.64758 0.17444 0.89999 0.0
Eu347 Eu 0.52993 0.17428 -0.0006 0.0
N348 N 0.58631 0.18625 0.11685 0.0
C349 C 0.65209 0.19712 0.23775 0.0
C350 C 0.59807 0.19529 0.24547 0.0
C351 C 0.63125 0.20119 0.30747 0.0
H352 H 0.52245 0.15489 0.6904 0.0
H353 H 0.6405 0.20851 0.40945 0.0
H354 H 0.54585 0.26486 0.3782 0.0
H355 H 0.44426 0.23111 0.65263 0.0
H356 H 0.58196 0.19767 0.30166 0.0
H357 H 0.67747 0.20129 0.28681 0.0
H358 H 0.49826 0.23593 0.76647 0.0
H359 H 0.5579 0.14915 0.55283 0.0
H360 H 0.68561 0.18701 0.07564 0.0
H361 H 0.66374 0.1716 0.8442 0.0
H362 H 0.51105 0.27226 0.51289 0.0
H363 H 0.61678 0.15813 0.64867 0.0
H364 H 0.40447 0.23548 0.77177 0.0
N365 N 0.50882 0.25429 0.20595 0.0
C366 C 0.47844 0.25175 0.14882 0.0
C367 C 0.50148 0.26637 0.41071 0.0
C368 C 0.45797 0.25613 0.22161 0.0
C369 C 0.52092 0.26189 0.33454 0.0
C370 C 0.46974 0.26333 0.35405 0.0
N371 N 0.4882 0.24081 0.94926 0.0
C372 C 0.48067 0.23679 0.82027 0.0
C373 C 0.43691 0.24279 0.95528 0.0
C374 C 0.4679 0.24492 0.01699 0.0
C375 C 0.42799 0.23718 0.82266 0.0
C376 C 0.45027 0.23456 0.75503 0.0
H377 H 0.45474 0.26685 0.41329 0.0
H378 H 0.41044 0.25649 0.21463 0.0
H379 H 0.39213 0.24498 0.98168 0.0
O380 O 0.57083 0.27783 0.97907 0.0
O381 O 0.4811 0.20511 0.07387 0.0
O382 O 0.47599 0.16914 0.9477 0.0
O383 O 0.57213 0.2872 0.17548 0.0
O384 O 0.54163 0.22933 0.87611 0.0
O385 O 0.50654 0.18263 0.82844 0.0
O386 O 0.51136 0.14261 0.10329 0.0
O387 O 0.57999 0.21265 0.97524 0.0
O388 O 0.58704 0.24323 0.13832 0.0
O389 O 0.50189 0.13185 0.89861 0.0
O390 O 0.52105 0.18636 0.18946 0.0
O391 O 0.55522 0.23287 0.2429 0.0
C392 C 0.46184 0.17865 0.01686 0.0
C393 C 0.59202 0.3239 0.06947 0.0
C394 C 0.63209 0.3722 0.0582 0.0
C395 C 0.6024 0.37384 0.05476 0.0
C396 C 0.56349 0.32688 0.06439 0.0
C397 C 0.56874 0.35162 0.05776 0.0
C398 C 0.62676 0.34685 0.06695 0.0
C399 C 0.5235 0.20583 0.79382 0.0
C400 C 0.58526 0.29708 0.08123 0.0
C401 C 0.42661 0.25333 0.16027 0.0
C402 C 0.41615 0.24673 0.02756 0.0
C403 C 0.60091 0.23579 0.0585 0.0
C404 C 0.50055 0.10009 0.01563 0.0
C405 C 0.50832 0.07352 0.15265 0.0
C406 C 0.49177 0.05154 0.04766 0.0
C407 C 0.48458 0.07801 0.91173 0.0
C408 C 0.5128 0.09778 0.13553 0.0
C409 C 0.48024 0.05389 0.92785 0.0
C410 C 0.53574 0.20934 0.27214 0.0
C411 C 0.49822 0.12319 0.00292 0.0
H412 H 0.60531 0.39263 0.04994 0.0
H413 H 0.53703 0.31 0.06657 0.0
H414 H 0.54645 0.35364 0.05484 0.0
H415 H 0.64912 0.3449 0.0703 0.0
H416 H 0.48807 0.03267 0.05803 0.0
H417 H 0.47423 0.07905 0.81895 0.0
H418 H 0.52422 0.11439 0.21722 0.0
H419 H 0.46731 0.03681 0.84764 0.0
Eu420 Eu 0.9155 0.33159 0.14883 0.0
C421 C 1.03227 0.4464 0.14922 0.0
N422 N 1.02991 0.42344 0.10239 0.0
C423 C 0.04424 0.43822 0.91142 0.0
C424 C 1.0386 0.4654 0.07462 0.0
C425 C 1.03836 0.42019 0.98942 0.0
C426 C 0.04364 0.46066 0.95315 0.0
C427 C 1.03289 0.47548 0.32532 0.0
C428 C 1.03002 0.45169 0.27427 0.0
C429 C 1.03771 0.49381 0.2492 0.0
C430 C 1.04066 0.48883 0.12447 0.0
Eu431 Eu 1.02012 0.39482 0.24411 0.0
N432 N 1.02467 0.43342 0.34577 0.0
C433 C 1.03104 0.48023 0.45184 0.0
C434 C 1.0243 0.43837 0.47059 0.0
C435 C 1.02704 0.46172 0.52505 0.0
H436 H 1.04206 0.40434 0.96119 0.0
H437 H 1.02607 0.46542 0.62329 0.0
H438 H 0.91267 0.31628 0.43677 0.0
H439 H 0.87251 0.26562 0.68334 0.0
H440 H 1.02114 0.42396 0.52671 0.0
H441 H 1.03311 0.49829 0.49433 0.0
H442 H 0.8945 0.30819 0.8337 0.0
H443 H 0.05009 0.43515 0.82057 0.0
H444 H 1.03972 0.51212 0.28649 0.0
H445 H 0.04512 0.50347 0.06794 0.0
H446 H 0.90608 0.27983 0.53387 0.0
H447 H 0.04861 0.47478 0.89306 0.0
H448 H 0.86152 0.22583 0.76302 0.0
N449 N 0.90659 0.2969 0.2513 0.0
C450 C 0.89468 0.27291 0.17363 0.0
C451 C 0.90311 0.27763 0.43263 0.0
C452 C 0.88786 0.25059 0.22399 0.0
C453 C 0.9085 0.29889 0.37798 0.0
C454 C 0.89309 0.25342 0.35551 0.0
N455 N 0.89582 0.29248 0.99689 0.0
C456 C 0.89017 0.29102 0.86965 0.0
C457 C 0.87656 0.24601 0.96034 0.0
C458 C 0.88891 0.2706 0.04296 0.0
C459 C 0.87112 0.24442 0.82963 0.0
C460 C 0.87765 0.26695 0.7842 0.0
H461 H 0.88843 0.23681 0.39802 0.0
H462 H 0.86973 0.2087 0.17918 0.0
H463 H 0.85964 0.20466 0.94768 0.0
O464 O 0.85983 0.31115 0.03999 0.0
O465 O 0.9557 0.319 0.14697 0.0
O466 O 1.0143 0.35531 0.24384 0.0
O467 O 0.87416 0.33032 0.23674 0.0
O468 O 0.93771 0.35207 0.9912 0.0
O469 O 0.99795 0.36816 0.04255 0.0
O470 O 0.06873 0.41856 0.40077 0.0
O471 O 0.97402 0.39993 0.26208 0.0
O472 O 0.92881 0.37031 0.09013 0.0
O473 O 0.07249 0.4068 0.21297 0.0
O474 O 1.00054 0.3716 0.39538 0.0
O475 O 0.94108 0.35712 0.35264 0.0
C476 C 0.99029 0.32946 0.19262 0.0
C477 C 0.8135 0.29303 0.15143 0.0
C478 C 0.74908 0.27055 0.14422 0.0
C479 C 0.749 0.24963 0.18797 0.0
C480 C 0.81215 0.27156 0.19363 0.0
C481 C 0.78015 0.25004 0.21163 0.0
C482 C 0.78161 0.29241 0.12552 0.0
C483 C 0.96806 0.35944 0.95877 0.0
C484 C 0.84809 0.31591 0.13506 0.0
C485 C 0.87547 0.22608 0.14179 0.0
C486 C 0.86975 0.22379 0.01035 0.0
C487 C 0.94813 0.39422 0.16742 0.0
C488 C 0.12276 0.44834 0.33989 0.0
C489 C 0.18412 0.48535 0.45062 0.0
C490 C 0.18654 0.49809 0.3495 0.0
C491 C 0.12582 0.46175 0.24068 0.0
C492 C 0.15207 0.46041 0.44613 0.0
C493 C 0.15748 0.48641 0.24562 0.0
C494 C 0.9707 0.36379 0.43152 0.0
C495 C 0.09021 0.42106 0.32794 0.0
H496 H 0.72459 0.2328 0.20329 0.0
H497 H 0.83585 0.27142 0.21334 0.0
H498 H 0.77949 0.2336 0.2444 0.0
H499 H 0.78212 0.30871 0.09145 0.0
H500 H 0.21119 0.51709 0.35068 0.0
H501 H 0.10407 0.45295 0.15759 0.0
H502 H 0.15036 0.45015 0.52256 0.0
H503 H 0.15967 0.49631 0.1677 0.0
Eu504 Eu 0.43476 0.89587 0.75633 0.0
C505 C 0.60636 0.98662 0.02659 0.0
N506 N 0.57641 0.98505 0.0445 0.0
C507 C 0.6035 1.00507 0.26598 0.0
C508 C 0.63615 0.99729 0.12908 0.0
C509 C 0.57472 0.99447 0.16125 0.0
C510 C 0.63429 1.00635 0.25001 0.0
C511 C 0.63852 0.98 0.88231 0.0
C512 C 0.60759 0.97816 0.90472 0.0
C513 C 0.66803 0.99018 0.98448 0.0
C514 C 0.66688 0.99883 0.10747 0.0
Eu515 Eu 0.52907 0.96622 0.86332 0.0
N516 N 0.5786 0.96832 0.80776 0.0
C517 C 0.639 0.97184 0.7576 0.0
C518 C 0.57957 0.96164 0.68538 0.0
C519 C 0.6095 0.96285 0.65861 0.0
H520 H 0.55145 0.99432 0.17295 0.0
H521 H 0.60987 0.95698 0.56165 0.0
H522 H 0.41578 0.89021 0.44128 0.0
H523 H 0.3684 0.90591 0.11966 0.0
H524 H 0.55725 0.9552 0.60847 0.0
H525 H 0.66221 0.97283 0.73652 0.0
H526 H 0.41657 0.90576 0.04315 0.0
H527 H 0.60204 1.01244 0.35863 0.0
H528 H 0.69203 0.99169 0.96919 0.0
H529 H 0.69001 1.0069 0.18507 0.0
H530 H 0.36639 0.88258 0.27954 0.0
H531 H 0.65664 1.0147 0.3312 0.0
H532 H 0.3163 0.89735 0.96684 0.0
N533 N 0.39492 0.89554 0.59637 0.0
C534 C 0.36654 0.89378 0.63407 0.0
C535 C 0.36655 0.88646 0.37882 0.0
C536 C 0.33729 0.88895 0.54393 0.0
C537 C 0.39501 0.89139 0.47109 0.0
C538 C 0.33768 0.88543 0.41527 0.0
N539 N 0.39461 0.90084 0.84962 0.0
C540 C 0.39534 0.90374 0.97583 0.0
C541 C 0.33736 0.8951 0.80326 0.0
C542 C 0.36643 0.89656 0.76331 0.0
C543 C 0.33824 0.89847 0.93282 0.0
C544 C 0.36755 0.90318 0.01945 0.0
H545 H 0.31547 0.88133 0.34316 0.0
H546 H 0.28552 0.88339 0.51618 0.0
H547 H 0.28577 0.88907 0.74265 0.0
O548 O 0.39505 0.85949 0.80848 0.0
O549 O 0.44071 0.93576 0.74545 0.0
O550 O 0.48197 0.96246 0.92801 0.0
O551 O 0.40317 0.85711 0.61679 0.0
O552 O 0.46393 0.90452 0.96148 0.0
O553 O 0.5002 0.95117 0.01909 0.0
O554 O 0.52666 0.99099 0.73829 0.0
O555 O 0.53648 0.93128 0.8438 0.0
O556 O 0.47995 0.8906 0.80269 0.0
O557 O 0.56086 1.01029 0.93185 0.0
O558 O 0.49855 0.94963 0.65687 0.0
O559 O 0.46878 0.90367 0.61317 0.0
C560 C 0.45291 0.95519 0.84597 0.0
C561 C 0.3672 0.81591 0.67999 0.0
C562 C 0.36551 0.77881 0.74811 0.0
C563 C 0.33011 0.7608 0.67506 0.0
C564 C 0.33205 0.79796 0.6057 0.0
C565 C 0.31358 0.77041 0.60288 0.0
C566 C 0.38417 0.80635 0.74966 0.0
C567 C 0.48514 0.92741 0.04803 0.0
C568 C 0.38373 0.84465 0.69409 0.0
C569 C 0.30827 0.88722 0.58426 0.0
C570 C 0.30836 0.89036 0.7133 0.0
C571 C 0.51533 0.90476 0.82882 0.0
C572 C 0.55842 0.03977 0.80281 0.0
C573 C 0.55364 0.06612 0.65847 0.0
C574 C 0.57028 0.08858 0.76135 0.0
C575 C 0.57516 0.06241 0.90429 0.0
C576 C 0.54803 0.04183 0.68024 0.0
C577 C 0.58109 0.08672 0.88329 0.0
C578 C 0.48658 0.92671 0.57917 0.0
C579 C 0.54795 1.01326 0.82596 0.0
H580 H 0.31539 0.73944 0.67403 0.0
H581 H 0.3186 0.80538 0.5527 0.0
H582 H 0.28627 0.75662 0.54662 0.0
H583 H 0.41118 0.82039 0.80885 0.0
H584 H 0.57435 0.10741 0.74799 0.0
H585 H 0.58275 0.06114 0.00015 0.0
H586 H 0.53529 1.02441 0.60163 0.0
H587 H 0.59353 0.10403 0.96205 0.0
Eu588 Eu 0.37112 0.61943 0.90932 0.0
C589 C 0.46839 0.56868 0.83973 0.0
N590 N 0.44061 0.56742 0.76715 0.0
C591 C 0.45734 0.55827 0.57817 0.0
C592 C 0.49203 0.56498 0.78355 0.0
C593 C 0.43451 0.56194 0.63783 0.0
C594 C 0.48622 0.55978 0.65124 0.0
C595 C 0.50333 0.57694 0.04887 0.0
C596 C 0.47379 0.57437 0.97103 0.0
C597 C 0.52674 0.57311 0.99304 0.0
C598 C 0.52109 0.56712 0.86086 0.0
Eu599 Eu 0.40082 0.56948 0.87816 0.0
N600 N 0.45178 0.57929 0.02271 0.0
C601 C 0.509 0.58396 0.18065 0.0
C602 C 0.4568 0.5856 0.15113 0.0
C603 C 0.48558 0.58826 0.23191 0.0
H604 H 0.41135 0.55928 0.5795 0.0
H605 H 0.48943 0.59335 0.33367 0.0
H606 H 0.33696 0.60273 0.16039 0.0
H607 H 0.31135 0.62641 0.45665 0.0
H608 H 0.43851 0.58814 0.19255 0.0
H609 H 0.53143 0.5862 0.24356 0.0
H610 H 0.36034 0.63394 0.61935 0.0
H611 H 0.45235 0.55392 0.47574 0.0
H612 H 0.5496 0.57509 0.05138 0.0
H613 H 0.53962 0.5645 0.81932 0.0
H614 H 0.27988 0.58654 0.22364 0.0
H615 H 0.50388 0.55694 0.60463 0.0
H616 H 0.25056 0.60591 0.49557 0.0
N617 N 0.31639 0.60072 0.97062 0.0
C618 C 0.28889 0.59775 0.88708 0.0
C619 C 0.2818 0.58912 0.12801 0.0
C620 C 0.25585 0.58896 0.91961 0.0
C621 C 0.31393 0.59778 0.09143 0.0
C622 C 0.25246 0.58437 0.04122 0.0
N623 N 0.32697 0.61445 0.74451 0.0
C624 C 0.33364 0.62333 0.6355 0.0
C625 C 0.26557 0.6008 0.68132 0.0
C626 C 0.29397 0.60401 0.76974 0.0
C627 C 0.27174 0.6082 0.56608 0.0
C628 C 0.30599 0.61972 0.54362 0.0
H629 H 0.22761 0.57778 0.06998 0.0
H630 H 0.2019 0.57852 0.85396 0.0
H631 H 0.21022 0.58855 0.64495 0.0
O632 O 0.36978 0.65484 0.91974 0.0
O633 O 0.32897 0.5742 0.88878 0.0
O634 O 0.34902 0.55733 0.75215 0.0
O635 O 0.39536 0.64986 0.08671 0.0
O636 O 0.39047 0.61806 0.72732 0.0
O637 O 0.38436 0.57696 0.69002 0.0
O638 O 0.36846 0.53488 0.95927 0.0
O639 O 0.44773 0.61477 0.94968 0.0
O640 O 0.42543 0.63747 0.86119 0.0
O641 O 0.39041 0.53065 0.79684 0.0
O642 O 0.37859 0.57289 0.04708 0.0
O643 O 0.4019 0.61737 0.08064 0.0
C644 C 0.32241 0.55535 0.79436 0.0
C645 C 0.41602 0.6942 0.06634 0.0
C646 C 0.43013 0.73797 0.04395 0.0
C647 C 0.46691 0.74925 0.08891 0.0
C648 C 0.45268 0.7053 0.1126 0.0
C649 C 0.47804 0.73296 0.12529 0.0
C650 C 0.40503 0.71069 0.03642 0.0
C651 C 0.38778 0.59797 0.65179 0.0
C652 C 0.38807 0.66539 0.03738 0.0
C653 C 0.22751 0.5854 0.83088 0.0
C654 C 0.23226 0.5911 0.71181 0.0
C655 C 0.45242 0.63628 0.91089 0.0
C656 C 0.3556 0.49066 0.87525 0.0
C657 C 0.31141 0.4497 0.93205 0.0
C658 C 0.32257 0.43552 0.86324 0.0
C659 C 0.36651 0.47637 0.80641 0.0
C660 C 0.32819 0.47731 0.93809 0.0
C661 C 0.35004 0.44888 0.80086 0.0
C662 C 0.38897 0.59547 0.12272 0.0
C663 C 0.37165 0.51915 0.87733 0.0
H664 H 0.48685 0.77034 0.09315 0.0
H665 H 0.46168 0.69266 0.1359 0.0
H666 H 0.50637 0.74159 0.15937 0.0
H667 H 0.37668 0.70166 0.9973 0.0
H668 H 0.31029 0.4142 0.85864 0.0
H669 H 0.38767 0.48641 0.75682 0.0
H670 H 0.31922 0.48824 0.98885 0.0
H671 H 0.35853 0.4379 0.74797 0.0
Eu672 Eu 0.66074 0.78977 0.93984 0.0
C673 C 0.59638 0.67233 0.94676 0.0
N674 N 0.62811 0.69392 0.02061 0.0
C675 C 0.61114 0.67799 0.20669 0.0
C676 C 0.56949 0.65413 0.00188 0.0
C677 C 0.6368 0.69592 0.1476 0.0
C678 C 0.57686 0.65744 0.13383 0.0
C679 C 0.5573 0.64708 0.73666 0.0
C680 C 0.59027 0.66888 0.81556 0.0
C681 C 0.52967 0.63007 0.792 0.0
C682 C 0.53569 0.63406 0.92425 0.0
Eu683 Eu 0.66615 0.72559 0.91295 0.0
N684 N 0.61565 0.68801 0.76569 0.0
C685 C 0.55236 0.64418 0.60507 0.0
C686 C 0.61187 0.6849 0.63761 0.0
C687 C 0.58006 0.66292 0.55523 0.0
H688 H 0.6636 0.71113 0.2032 0.0
H689 H 0.57662 0.66069 0.45365 0.0
H690 H 0.67611 0.80461 0.66144 0.0
H691 H 0.73683 0.85126 0.42296 0.0
H692 H 0.63311 0.69959 0.59927 0.0
H693 H 0.52728 0.62765 0.54148 0.0
H694 H 0.6947 0.80902 0.26608 0.0
H695 H 0.61782 0.68013 0.30808 0.0
H696 H 0.50313 0.61483 0.73352 0.0
H697 H 0.51374 0.62283 0.9671 0.0
H698 H 0.70702 0.84552 0.57949 0.0
H699 H 0.55665 0.64388 0.1797 0.0
H700 H 0.76676 0.89454 0.35662 0.0
N701 N 0.69971 0.82542 0.85464 0.0
C702 C 0.72029 0.84973 0.93845 0.0
C703 C 0.71188 0.84703 0.68047 0.0
C704 C 0.7371 0.87388 0.89542 0.0
C705 C 0.69492 0.8237 0.72728 0.0
C706 C 0.73315 0.87227 0.76477 0.0
N707 N 0.70522 0.82694 0.10643 0.0
C708 C 0.70947 0.82708 0.2327 0.0
C709 C 0.74475 0.87557 0.15635 0.0
C710 C 0.72348 0.85051 0.06767 0.0
C711 C 0.74967 0.87573 0.28555 0.0
C712 C 0.7327 0.85133 0.32348 0.0
H713 H 0.74569 0.89037 0.72799 0.0
H714 H 0.76978 0.9176 0.95228 0.0
H715 H 0.77722 0.91909 0.18072 0.0
O716 O 0.64172 0.81461 0.00823 0.0
O717 O 0.71626 0.79692 0.92341 0.0
O718 O 0.7143 0.76608 0.02847 0.0
O719 O 0.62606 0.7956 0.80989 0.0
O720 O 0.64909 0.76961 0.10772 0.0
O721 O 0.6818 0.75075 0.11164 0.0
O722 O 0.69823 0.71783 0.80639 0.0
O723 O 0.61306 0.72076 0.83728 0.0
O724 O 0.61172 0.75157 0.9732 0.0
O725 O 0.68572 0.70191 0.97671 0.0
O726 O 0.67982 0.74788 0.75449 0.0
O727 O 0.6424 0.7625 0.74474 0.0
C728 C 0.73271 0.78658 0.97743 0.0
C729 C 0.58966 0.80868 0.88186 0.0
C730 C 0.55445 0.82835 0.85907 0.0
C731 C 0.5231 0.80188 0.82264 0.0
C732 C 0.55767 0.78278 0.85262 0.0
C733 C 0.52465 0.77944 0.82204 0.0
C734 C 0.58808 0.83161 0.8862 0.0
C735 C 0.66356 0.75849 0.16501 0.0
C736 C 0.62439 0.81154 0.89573 0.0
C737 C 0.75685 0.89884 0.98364 0.0
C738 C 0.761 0.89968 0.1137 0.0
C739 C 0.59598 0.72668 0.90762 0.0
C740 C 0.72103 0.69157 0.86659 0.0
C741 C 0.73489 0.66612 0.72468 0.0
C742 C 0.75174 0.66257 0.83081 0.0
C743 C 0.73806 0.68803 0.97154 0.0
C744 C 0.7203 0.68125 0.74405 0.0
C745 C 0.75388 0.67395 0.95343 0.0
C746 C 0.66083 0.75503 0.69108 0.0
C747 C 0.70122 0.70384 0.88323 0.0
H748 H 0.49714 0.79858 0.7933 0.0
H749 H 0.5583 0.76505 0.84912 0.0
H750 H 0.50011 0.75931 0.79561 0.0
H751 H 0.61274 0.85171 0.91032 0.0
H752 H 0.76261 0.65057 0.81932 0.0
H753 H 0.73881 0.69589 0.06712 0.0
H754 H 0.70739 0.68439 0.66372 0.0
H755 H 0.76711 0.67129 0.0346 0.0
C756 C 0.22523 0.39578 0.00187 0.0
C757 C 0.22954 0.40687 0.12851 0.0
H758 H 0.24781 0.40093 0.83981 0.0
C759 C 0.25922 0.43315 0.18692 0.0
H760 H 0.20234 0.37552 0.95519 0.0
C761 C 0.2855 0.44752 0.12165 0.0
C762 C 0.28223 0.43573 0.9973 0.0
H763 H 0.26316 0.44186 0.28513 0.0
H764 H 0.30913 0.46728 0.17051 0.0
C765 C 0.25135 0.41013 0.93665 0.0
C766 C 0.82853 0.82451 0.91364 0.0
C767 C 0.84609 0.81566 0.98955 0.0
H768 H 0.78057 0.82361 0.8527 0.0
C769 C 0.82529 0.79641 0.05665 0.0
H770 H 0.84316 0.83884 0.85832 0.0
C771 C 0.78888 0.78695 0.05047 0.0
C772 C 0.7718 0.79687 0.97976 0.0
H773 H 0.83755 0.78924 0.11759 0.0
H774 H 0.77432 0.77218 0.10444 0.0
C775 C 0.79236 0.81565 0.91006 0.0
C776 C 0.37646 0.96486 0.83223 0.0
C777 C 0.38118 0.97477 0.96122 0.0
H778 H 0.39601 0.95131 0.69334 0.0
C779 C 0.41145 0.98077 0.04853 0.0
H780 H 0.35295 0.95964 0.76341 0.0
C781 C 0.43559 0.97565 0.00944 0.0
C782 C 0.42992 0.96417 0.88182 0.0
H783 H 0.41541 0.98818 0.1486 0.0
H784 H 0.45776 0.97951 0.08081 0.0
C785 C 0.40083 0.95978 0.79266 0.0
C786 C 0.39672 0.16276 0.04408 0.0
C787 C 0.42315 0.15753 0.03055 0.0
H788 H 0.34207 0.14709 0.05777 0.0
C789 C 0.41171 0.13037 0.02575 0.0
H790 H 0.40343 0.18301 0.04799 0.0
C791 C 0.37648 0.10977 0.034 0.0
C792 C 0.34959 0.11455 0.04484 0.0
H793 H 0.43041 0.12482 0.01639 0.0
H794 H 0.37022 0.08964 0.02996 0.0
C795 C 0.36084 0.14176 0.04922 0.0
C796 C 0.98257 0.28364 0.13706 0.0
C797 C 1.0047 0.31194 0.18402 0.0
H798 H 0.97934 0.2466 0.09207 0.0
C799 C 1.04215 0.32407 0.2215 0.0
H800 H 0.95383 0.27333 0.10601 0.0
C801 C 0.05687 0.3088 0.21199 0.0
C802 C 1.03492 0.28058 0.16569 0.0
H803 H 0.06062 0.34571 0.25785 0.0
H804 H 0.08574 0.3193 0.24197 0.0
C805 C 0.99739 0.26821 0.12886 0.0
C806 C 0.85096 0.66085 0.14301 0.0
C807 C 0.87667 0.67537 0.07316 0.0
H808 H 0.81817 0.62428 0.20458 0.0
C809 C 0.89132 0.66185 0.02021 0.0
H810 H 0.83812 0.66962 0.1841 0.0
C811 C 0.87967 0.63494 0.03315 0.0
C812 C 0.85244 0.62014 0.09815 0.0
H813 H 0.91031 0.67138 0.96239 0.0
H814 H 0.8905 0.6252 0.98558 0.0
C815 C 0.83918 0.63428 0.15439 0.0
C816 C 0.27998 0.51588 0.61229 0.0
C817 C 0.28515 0.53382 0.72089 0.0
H818 H 0.24334 0.48584 0.44349 0.0
C819 C 0.25481 0.53171 0.75137 0.0
H820 H 0.30243 0.51629 0.58685 0.0
C821 C 0.22079 0.51427 0.66773 0.0
C822 C 0.21653 0.49803 0.55469 0.0
H823 H 0.25745 0.54409 0.83727 0.0
H824 H 0.19829 0.51449 0.68801 0.0
C825 C 0.24608 0.49821 0.53027 0.0
C826 C 0.75882 0.65142 0.56212 0.0
C827 C 0.7312 0.65332 0.594 0.0
H828 H 0.77651 0.63793 0.41609 0.0
C829 C 0.69976 0.64284 0.49973 0.0
H830 H 0.78354 0.65956 0.63192 0.0
C831 C 0.69628 0.63123 0.37632 0.0
C832 C 0.72379 0.62931 0.34503 0.0
H833 H 0.67748 0.64322 0.52132 0.0
H834 H 0.67171 0.62319 0.30574 0.0
C835 C 0.75498 0.63927 0.43876 0.0
C836 C 0.55305 0.09254 0.36128 0.0
C837 C 0.52004 0.07115 0.28103 0.0
H838 H 0.58968 0.10755 0.54221 0.0
C839 C 0.49806 0.04798 0.32572 0.0
H840 H 0.57077 0.11051 0.329 0.0
C841 C 0.50882 0.04636 0.44837 0.0
C842 C 0.54185 0.06784 0.52868 0.0
H843 H 0.47222 1.03138 0.26697 0.0
H844 H 0.49101 1.02845 0.48093 0.0
C845 C 0.56383 0.0909 0.48359 0.0
C846 C 0.12368 0.15835 0.95651 0.0
C847 C 0.13428 0.14962 0.05693 0.0
H848 H 0.10744 0.18353 0.89813 0.0
C849 C 0.14131 0.16359 0.18174 0.0
H850 H 0.11795 0.14817 0.85926 0.0
C851 C 0.1355 0.18442 0.20442 0.0
C852 C 0.12183 0.1913 0.10286 0.0
H853 H 0.14899 0.15727 0.26163 0.0
H854 H 0.13954 0.19389 0.30125 0.0
C855 C 0.11729 0.17856 0.97892 0.0
C856 C 1.02968 0.05546 0.14109 0.0
C857 C 1.01414 0.03527 0.20869 0.0
H858 H 1.02783 0.08549 0.06342 0.0
C859 C 0.98462 1.03079 0.25658 0.0
H860 H 0.0521 0.05905 0.10248 0.0
C861 C 0.97095 0.04626 0.23681 0.0
C862 C 0.98638 0.06637 0.16802 0.0
H863 H 0.97225 1.01546 0.31034 0.0
H864 H 0.94868 0.04272 0.27694 0.0
C865 C 1.01576 0.07063 0.11953 0.0
C866 C 0.09581 0.92687 0.0645 0.0
C867 C 0.06357 0.92574 0.04407 0.0
H868 H 0.15299 0.94994 0.07926 0.0
C869 C 0.06821 0.95021 0.02206 0.0
H870 H 0.09487 0.90923 0.08129 0.0
C871 C 0.10217 0.974 0.02137 0.0
C872 C 0.13442 0.97522 0.0405 0.0
H873 H 0.0451 0.9513 0.00539 0.0
H874 H 0.10292 0.99159 0.00479 0.0
C875 C 0.12991 0.95077 0.0624 0.0
C876 C 0.93891 0.4443 0.01473 0.0
C877 C 0.92726 0.45472 0.10419 0.0
H878 H 0.9539 0.41689 0.9637 0.0
C879 C 0.92159 0.4444 0.21419 0.0
H880 H 0.94397 0.45196 0.92973 0.0
C881 C 0.92865 0.42494 0.2358 0.0
C882 C 0.9405 0.41478 0.14622 0.0
H883 H 0.91303 0.45212 0.28566 0.0
H884 H 0.9248 0.41777 0.32241 0.0
C885 C 0.9448 0.4243 0.03437 0.0
C886 C 0.72579 0.44004 0.14997 0.0
C887 C 0.72484 0.45165 0.04557 0.0
H888 H 0.69803 0.40589 0.23606 0.0
C889 C 0.69546 0.43498 0.94007 0.0
H890 H 0.74777 0.45201 0.23341 0.0
C891 C 0.66708 0.40862 0.94167 0.0
C892 C 0.66693 0.39739 0.04793 0.0
H893 H 0.69368 0.44267 0.85681 0.0
H894 H 0.64418 0.39732 0.8609 0.0
C895 C 0.69727 0.41338 0.15128 0.0
C896 C 0.65441 0.24448 0.97607 0.0
C897 C 0.64071 0.24968 0.07584 0.0
H898 H 0.6996 0.24745 0.9193 0.0
C899 C 0.66493 0.26574 0.19362 0.0
H900 H 0.63667 0.23233 0.88381 0.0
C901 C 0.70125 0.27456 0.2134 0.0
C902 C 0.71426 0.26797 0.11531 0.0
H903 H 0.6554 0.27006 0.27266 0.0
H904 H 0.71872 0.28524 0.30737 0.0
C905 C 0.69061 0.2534 0.9957 0.0
C906 C 0.52213 0.84916 0.92007 0.0
C907 C 0.55022 0.8515 0.86915 0.0
H908 H 0.48963 0.86385 0.94664 0.0
C909 C 0.57059 0.87425 0.8182 0.0
H910 H 0.50641 0.8325 0.96341 0.0
C911 C 0.56107 0.89292 0.81026 0.0
C912 C 0.53088 0.8889 0.85223 0.0
H913 H 0.59254 0.87682 0.77871 0.0
H914 H 0.576 0.9095 0.76549 0.0
C915 C 0.51248 0.86728 0.91065 0.0
C916 C 0.43131 0.76394 0.8845 0.0
C917 C 0.41712 0.75252 0.98384 0.0
H918 H 0.42579 0.78131 0.73055 0.0
C919 C 0.38586 0.75 0.00623 0.0
H920 H 0.4539 0.76438 0.86169 0.0
C921 C 0.36859 0.75816 0.92771 0.0
C922 C 0.38286 0.7694 0.82795 0.0
H923 H 0.37401 0.74066 0.081 0.0
H924 H 0.34417 0.7557 0.94459 0.0
C925 C 0.41463 0.77274 0.80791 0.0
C926 C 0.54886 0.6992 0.02545 0.0
C927 C 0.55836 0.70508 0.91012 0.0
H928 H 0.50845 0.67211 0.11638 0.0
C929 C 0.5324 0.6885 0.79636 0.0
H930 H 0.56835 0.71144 0.11462 0.0
C931 C 0.49802 0.66643 0.79756 0.0
C932 C 0.48917 0.65966 0.91229 0.0
H933 H 0.53888 0.69241 0.7061 0.0
H934 H 0.47866 0.65406 0.70818 0.0
C935 C 0.51478 0.6765 0.02649 0.0
C936 C 0.07456 0.21947 0.69939 0.0
C937 C 0.08209 0.2424 0.78351 0.0
H938 H 0.06724 0.20074 0.50934 0.0
C939 C 0.08938 0.26503 0.73622 0.0
H940 H 0.06998 0.20195 0.73294 0.0
C941 C 0.08829 0.26443 0.60682 0.0
C942 C 0.07992 0.24118 0.52267 0.0
H943 H 0.09552 0.28303 0.79877 0.0
H944 H 0.09392 0.28213 0.5726 0.0
C945 C 0.07312 0.21877 0.57074 0.0
C946 C 0.92671 0.8355 0.58738 0.0
C947 C 0.94954 0.85881 0.68531 0.0
H948 H 0.91157 0.81778 0.38859 0.0
C949 C 0.97592 0.88269 0.65436 0.0
H950 H 0.90619 0.81679 0.60786 0.0
C951 C 0.97955 0.88317 0.52897 0.0
C952 C 0.95637 0.85994 0.4306 0.0
H953 H 0.99434 0.90096 0.72765 0.0
H954 H 1.00036 0.90181 0.50887 0.0
C955 C 0.92999 0.83608 0.46172 0.0
C956 C 0.26904 0.05286 0.62918 0.0
C957 C 0.23693 0.04434 0.66827 0.0
H958 H 0.29608 0.06133 0.47706 0.0
C959 C 0.20652 0.03716 0.57712 0.0
H960 H 0.29313 0.05873 0.69669 0.0
C961 C 0.20825 0.03857 0.45061 0.0
C962 C 0.24037 0.04707 0.41164 0.0
H963 H 0.18133 1.03037 0.60342 0.0
H964 H 0.18422 0.03275 0.38287 0.0
C965 C 0.27079 0.05436 0.50297 0.0
C966 C 0.79797 0.51786 0.49954 0.0
C967 C 0.7959 0.53739 0.44747 0.0
H968 H 0.79965 0.50197 0.66355 0.0
C969 C 0.79302 0.55593 0.52595 0.0
H970 H 0.79936 0.5028 0.4414 0.0
C971 C 0.79276 0.55519 0.65362 0.0
C972 C 0.79529 0.53586 0.7058 0.0
H973 H 0.79115 0.57108 0.48892 0.0
H974 H 0.79062 0.56984 0.71159 0.0
C975 C 0.79801 0.51727 0.62714 0.0
C976 C 0.5568 0.23089 0.50535 0.0
C977 C 0.53267 0.20825 0.40551 0.0
H978 H 0.57273 0.24786 0.70446 0.0
C979 C 0.5053 0.18449 0.43423 0.0
H980 H 0.57861 0.24932 0.48733 0.0
C981 C 0.50193 0.18355 0.55968 0.0
C982 C 0.52599 0.2063 0.6594 0.0
H983 H 0.48616 0.16666 0.35948 0.0
H984 H 0.48041 0.16506 0.57841 0.0
C985 C 0.55341 0.22997 0.63028 0.0
C986 C 0.99624 0.36148 0.64504 0.0
C987 C 0.97082 0.36345 0.56755 0.0
H988 H 1.0148 0.3579 0.82817 0.0
C989 C 0.94456 0.36395 0.61987 0.0
H990 H 1.01661 0.36076 0.60737 0.0
C991 C 0.94362 0.3624 0.74616 0.0
C992 C 0.96894 0.36034 0.82373 0.0
H993 H 0.92461 0.36549 0.56303 0.0
H994 H 0.92318 0.3631 0.78337 0.0
C995 C 0.99514 0.35973 0.7714 0.0
C996 C 0.47942 0.90394 0.3576 0.0
C997 C 0.48708 0.92669 0.44344 0.0
H998 H 0.47293 0.8863 0.16482 0.0
C999 C 0.49425 0.94951 0.39782 0.0
H1000 H 0.47379 0.88606 0.38983 0.0
C1001 C 0.49346 0.94954 0.26988 0.0
C1002 C 0.48595 0.9269 0.18382 0.0
H1003 H 0.49979 0.96729 0.46038 0.0
H1004 H 0.49799 0.96721 0.23823 0.0
C1005 C 0.47882 0.90404 0.22888 0.0
C1006 C 0.37053 0.57238 0.30034 0.0
C1007 C 0.38825 0.59645 0.25819 0.0
H1008 H 0.3558 0.55407 0.45687 0.0
C1009 C 0.40476 0.62127 0.34609 0.0
H1010 H 0.35715 0.55293 0.23495 0.0
C1011 C 0.40405 0.62194 0.47412 0.0
C1012 C 0.38693 0.59782 0.51621 0.0
H1013 H 0.41857 0.64019 0.31639 0.0
H1014 H 0.41754 0.64129 0.5404 0.0
C1015 C 0.36979 0.57306 0.42769 0.0
C1016 C 0.63425 0.75566 0.47543 0.0
C1017 C 0.66057 0.75498 0.55523 0.0
H1018 H 0.61458 0.75733 0.28945 0.0
C1019 C 0.68759 0.75524 0.50525 0.0
H1020 H 0.61298 0.75539 0.511 0.0
C1021 C 0.68868 0.75663 0.37914 0.0
C1022 C 0.66247 0.75736 0.29928 0.0
H1023 H 0.7084 0.75493 0.56429 0.0
H1024 H 0.71026 0.75728 0.34432 0.0
C1025 C 0.63524 0.75689 0.34877 0.0
loop_
_geom_bond_atom_site_label_1
_geom_bond_atom_site_label_2
_geom_bond_distance
_geom_bond_site_symmetry_2
_ccdc_geom_bond_type
Eu0 N29 2.600 1_454 S
Eu0 N35 2.562 1_455 S
Eu0 O44 2.462 1_455 S
Eu0 O45 2.380 . S
Eu0 O47 2.432 1_455 S
Eu0 O48 2.291 . S
Eu0 O52 2.335 . S
Eu0 O55 2.372 1_554 S
Eu0 C64 2.787 1_455 S
C1 N2 1.365 . S
C1 C4 1.405 . S
C1 C8 1.448 . S
N2 C1 1.365 . S
N2 C5 1.319 . S
N2 Eu11 2.600 . S
C3 C5 1.397 . S
C3 C6 1.367 . S
C3 H23 0.931 . S
C4 C1 1.405 . S
C4 C6 1.403 . S
C4 C10 1.439 . S
C5 N2 1.319 . S
C5 C3 1.397 . S
C5 H16 0.930 . S
C6 C3 1.367 . S
C6 C4 1.403 . S
C6 H27 0.929 . S
C7 C8 1.430 . S
C7 C9 1.387 . S
C7 C13 1.404 . S
C8 C1 1.448 . S
C8 C7 1.430 . S
C8 N12 1.351 . S
C9 C7 1.387 . S
C9 C10 1.374 . S
C9 H24 0.931 . S
C10 C4 1.439 . S
C10 C9 1.374 . S
C10 H25 0.931 . S
Eu11 N2 2.600 . S
Eu11 N12 2.562 . S
Eu11 O46 2.335 . S
Eu11 O49 2.372 . S
Eu11 O50 2.462 . S
Eu11 O51 2.373 . S
Eu11 O53 2.432 . S
Eu11 O54 2.291 . S
Eu11 C75 2.787 . S
N12 C8 1.351 . S
N12 Eu11 2.562 . S
N12 C14 1.325 . S
C13 C7 1.404 . S
C13 C15 1.366 . S
C13 H21 0.930 . S
C14 N12 1.325 . S
C14 C15 1.416 . S
C14 H20 0.931 . S
C15 C13 1.366 . S
C15 C14 1.416 . S
C15 H17 0.930 1_554 S
H16 C5 0.930 . S
H17 C15 0.930 1_556 S
H18 C33 0.930 . S
H19 C40 0.930 . S
H20 C14 0.931 . S
H21 C13 0.930 . S
H22 C36 0.929 . S
H23 C3 0.931 . S
H24 C9 0.931 . S
H25 C10 0.931 . S
H26 C31 0.931 . S
H27 C6 0.929 . S
H28 C39 0.930 . S
N29 Eu0 2.600 1_656 S
N29 C30 1.365 . S
N29 C33 1.319 . S
C30 N29 1.365 . S
C30 C32 1.405 . S
C30 C38 1.448 1_556 S
C31 H26 0.931 . S
C31 C33 1.397 . S
C31 C34 1.367 . S
C32 C30 1.405 . S
C32 C34 1.403 . S
C32 C65 1.439 . S
C33 H18 0.930 . S
C33 N29 1.319 . S
C33 C31 1.397 . S
C34 C31 1.367 . S
C34 C32 1.403 . S
C34 H41 0.929 . S
N35 Eu0 2.562 1_655 S
N35 C36 1.325 . S
N35 C38 1.351 . S
C36 H22 0.929 . S
C36 N35 1.325 . S
C36 C40 1.416 . S
C37 C38 1.430 . S
C37 C39 1.404 . S
C37 C66 1.387 . S
C38 C30 1.448 1_554 S
C38 N35 1.351 . S
C38 C37 1.430 . S
C39 H28 0.930 . S
C39 C37 1.404 . S
C39 C40 1.366 . S
C40 H19 0.930 . S
C40 C36 1.416 . S
C40 C39 1.366 . S
H41 C34 0.929 . S
H42 C65 0.931 . S
H43 C66 0.931 . S
O44 Eu0 2.462 1_655 S
O44 C64 1.252 . S
O45 Eu0 2.380 . S
O45 C56 1.249 . S
O46 Eu11 2.335 . S
O46 C56 1.264 . S
O47 Eu0 2.432 1_655 S
O47 C64 1.268 . S
O48 Eu0 2.291 . S
O48 C63 1.255 . S
O49 Eu11 2.372 . S
O49 C63 1.257 . S
O50 Eu11 2.462 . S
O50 C75 1.252 . S
O51 Eu11 2.373 . S
O51 C67 1.249 . S
O52 Eu0 2.335 . S
O52 C67 1.264 . S
O53 Eu11 2.432 . S
O53 C75 1.268 . S
O54 Eu11 2.291 . S
O54 C74 1.255 1_554 S
O55 Eu0 2.372 1_556 S
O55 C74 1.257 . S
C56 O45 1.249 . S
C56 O46 1.264 . S
C57 C60 1.382 1_554 S
C57 C62 1.390 . S
C57 C64 1.506 . S
C58 C59 1.398 . S
C58 C62 1.392 . S
C59 C58 1.398 . S
C59 C61 1.372 1_554 S
C59 H76 0.931 . S
C60 C57 1.382 1_556 S
C60 C61 1.390 . S
C60 H77 0.931 . S
C61 C59 1.372 1_556 S
C61 C60 1.390 . S
C61 H78 0.929 . S
C62 C57 1.390 . S
C62 C58 1.392 . S
C62 H79 0.930 . S
C63 O48 1.255 . S
C63 O49 1.257 . S
C64 Eu0 2.787 1_655 S
C64 O44 1.252 . S
C64 O47 1.268 . S
C64 C57 1.506 . S
C65 C32 1.439 . S
C65 H42 0.931 . S
C65 C66 1.374 1_556 S
C66 C37 1.387 . S
C66 H43 0.931 . S
C66 C65 1.374 1_554 S
C67 O51 1.249 . S
C67 O52 1.264 . S
C68 C71 1.382 . S
C68 C72 1.390 . S
C68 C75 1.506 . S
C69 C70 1.398 . S
C69 C72 1.392 . S
C70 C69 1.398 . S
C70 C73 1.372 . S
C70 H80 0.931 . S
C71 C68 1.382 . S
C71 C73 1.390 . S
C71 H81 0.931 . S
C72 C68 1.390 . S
C72 C69 1.392 . S
C72 H82 0.930 . S
C73 C70 1.372 . S
C73 C71 1.390 . S
C73 H83 0.929 . S
C74 O54 1.255 1_556 S
C74 O55 1.257 . S
C75 Eu11 2.787 . S
C75 O50 1.252 . S
C75 O53 1.268 . S
C75 C68 1.506 . S
H76 C59 0.931 . S
H77 C60 0.931 . S
H78 C61 0.929 . S
H79 C62 0.930 . S
H80 C70 0.931 . S
H81 C71 0.931 . S
H82 C72 0.930 . S
H83 C73 0.929 . S
Eu84 N113 2.600 . S
Eu84 N119 2.562 . S
Eu84 O128 2.462 . S
Eu84 O129 2.373 . S
Eu84 O131 2.432 . S
Eu84 O132 2.291 1_554 S
Eu84 O136 2.335 . S
Eu84 O139 2.372 . S
Eu84 C148 2.787 . S
C85 N86 1.365 . S
C85 C88 1.405 . S
C85 C92 1.448 1_556 S
N86 C85 1.365 . S
N86 C89 1.319 . S
N86 Eu95 2.600 1_556 S
C87 C89 1.397 . S
C87 C90 1.367 . S
C87 H107 0.931 . S
C88 C85 1.405 . S
C88 C90 1.403 . S
C88 C94 1.439 1_655 S
C89 N86 1.319 . S
C89 C87 1.397 . S
C89 H100 0.930 . S
C90 C87 1.367 . S
C90 C88 1.403 . S
C90 H111 0.928 . S
C91 C92 1.430 1_455 S
C91 C93 1.387 . S
C91 C97 1.404 . S
C92 C85 1.448 1_554 S
C92 C91 1.430 1_655 S
C92 N96 1.351 . S
C93 C91 1.387 . S
C93 C94 1.374 1_554 S
C93 H108 0.931 . S
C94 C88 1.439 1_455 S
C94 C93 1.374 1_556 S
C94 H109 0.931 . S
Eu95 N86 2.600 1_554 S
Eu95 N96 2.562 . S
Eu95 O130 2.335 . S
Eu95 O133 2.372 1_554 S
Eu95 O134 2.462 . S
Eu95 O135 2.373 . S
Eu95 O137 2.432 1_554 S
Eu95 O138 2.291 . S
Eu95 C159 2.787 . S
N96 C92 1.351 . S
N96 Eu95 2.562 . S
N96 C98 1.325 . S
C97 C91 1.404 . S
C97 C99 1.366 . S
C97 H105 0.930 . S
C98 N96 1.325 . S
C98 C99 1.416 1_655 S
C98 H104 0.929 . S
C99 C97 1.366 . S
C99 C98 1.416 1_455 S
C99 H101 0.930 . S
H100 C89 0.930 . S
H101 C99 0.930 . S
H102 C117 0.930 . S
H103 C124 0.930 . S
H104 C98 0.929 . S
H105 C97 0.930 . S
H106 C120 0.929 . S
H107 C87 0.931 . S
H108 C93 0.931 . S
H109 C94 0.931 . S
H110 C115 0.931 . S
H111 C90 0.928 . S
H112 C123 0.930 . S
N113 Eu84 2.600 . S
N113 C114 1.365 . S
N113 C117 1.319 . S
C114 N113 1.365 . S
C114 C116 1.405 . S
C114 C122 1.448 . S
C115 H110 0.931 . S
C115 C117 1.397 . S
C115 C118 1.367 . S
C116 C114 1.405 . S
C116 C118 1.403 . S
C116 C149 1.439 . S
C117 H102 0.930 . S
C117 N113 1.319 . S
C117 C115 1.397 . S
C118 C115 1.367 . S
C118 C116 1.403 . S
C118 H125 0.929 . S
N119 Eu84 2.562 . S
N119 C120 1.325 1_554 S
N119 C122 1.351 . S
C120 H106 0.929 . S
C120 N119 1.325 1_556 S
C120 C124 1.416 . S
C121 C122 1.430 . S
C121 C123 1.404 1_554 S
C121 C150 1.387 . S
C122 C114 1.448 . S
C122 N119 1.351 . S
C122 C121 1.430 . S
C123 H112 0.930 . S
C123 C121 1.404 1_556 S
C123 C124 1.366 . S
C124 H103 0.930 . S
C124 C120 1.416 . S
C124 C123 1.366 . S
H125 C118 0.929 . S
H126 C149 0.931 . S
H127 C150 0.931 . S
O128 Eu84 2.462 . S
O128 C148 1.252 . S
O129 Eu84 2.373 . S
O129 C140 1.249 . S
O130 Eu95 2.335 . S
O130 C140 1.264 . S
O131 Eu84 2.432 . S
O131 C148 1.268 . S
O132 Eu84 2.291 1_556 S
O132 C147 1.255 . S
O133 Eu95 2.372 1_556 S
O133 C147 1.257 . S
O134 Eu95 2.462 . S
O134 C159 1.252 . S
O135 Eu95 2.373 . S
O135 C151 1.249 . S
O136 Eu84 2.335 . S
O136 C151 1.264 . S
O137 Eu95 2.432 1_556 S
O137 C159 1.268 1_556 S
O138 Eu95 2.291 . S
O138 C158 1.255 . S
O139 Eu84 2.372 . S
O139 C158 1.257 . S
C140 O129 1.249 . S
C140 O130 1.264 . S
C141 C144 1.382 . S
C141 C146 1.390 . S
C141 C148 1.506 . S
C142 C143 1.398 . S
C142 C146 1.392 . S
C143 C142 1.398 . S
C143 C145 1.372 . S
C143 H160 0.931 1_565 S
C144 C141 1.382 . S
C144 C145 1.390 . S
C144 H161 0.931 . S
C145 C143 1.372 . S
C145 C144 1.390 . S
C145 H162 0.929 . S
C146 C141 1.390 . S
C146 C142 1.392 . S
C146 H163 0.930 1_554 S
C147 O132 1.255 . S
C147 O133 1.257 . S
C148 Eu84 2.787 . S
C148 O128 1.252 . S
C148 O131 1.268 . S
C148 C141 1.506 . S
C149 C116 1.439 . S
C149 H126 0.931 . S
C149 C150 1.374 . S
C150 C121 1.387 . S
C150 H127 0.931 . S
C150 C149 1.374 . S
C151 O135 1.249 . S
C151 O136 1.264 . S
C152 C155 1.382 1_554 S
C152 C156 1.390 . S
C152 C159 1.506 . S
C153 C154 1.398 . S
C153 C156 1.392 . S
C154 C153 1.398 . S
C154 C157 1.372 1_554 S
C154 H164 0.931 . S
C155 C152 1.382 1_556 S
C155 C157 1.390 . S
C155 H165 0.931 . S
C156 C152 1.390 . S
C156 C153 1.392 . S
C156 H166 0.930 . S
C157 C154 1.372 1_556 S
C157 C155 1.390 . S
C157 H167 0.929 . S
C158 O138 1.255 . S
C158 O139 1.257 . S
C159 Eu95 2.787 . S
C159 O134 1.252 . S
C159 O137 1.268 1_554 S
C159 C152 1.506 . S
H160 C143 0.931 1_545 S
H161 C144 0.931 . S
H162 C145 0.929 . S
H163 C146 0.930 1_556 S
H164 C154 0.931 . S
H165 C155 0.931 . S
H166 C156 0.930 . S
H167 C157 0.929 . S
Eu168 N197 2.600 . S
Eu168 N203 2.562 1_556 S
Eu168 O212 2.462 1_556 S
Eu168 O213 2.373 . S
Eu168 O215 2.432 . S
Eu168 O216 2.291 1_556 S
Eu168 O220 2.335 . S
Eu168 O223 2.372 . S
Eu168 C232 2.787 1_556 S
C169 N170 1.365 . S
C169 C172 1.405 . S
C169 C176 1.448 1_554 S
N170 C169 1.365 . S
N170 C173 1.319 . S
N170 Eu179 2.600 . S
C171 C173 1.397 . S
C171 C174 1.367 . S
C171 H191 0.931 . S
C172 C169 1.405 . S
C172 C174 1.403 . S
C172 C178 1.439 . S
C173 N170 1.319 . S
C173 C171 1.397 . S
C173 H184 0.930 . S
C174 C171 1.367 . S
C174 C172 1.403 . S
C174 H195 0.929 . S
C175 C176 1.430 . S
C175 C177 1.387 . S
C175 C181 1.404 . S
C176 C169 1.448 1_556 S
C176 C175 1.430 . S
C176 N180 1.351 . S
C177 C175 1.387 . S
C177 C178 1.374 1_556 S
C177 H192 0.931 . S
C178 C172 1.439 . S
C178 C177 1.374 1_554 S
C178 H193 0.931 . S
Eu179 N170 2.600 . S
Eu179 N180 2.562 1_554 S
Eu179 O214 2.335 1_565 S
Eu179 O217 2.372 1_565 S
Eu179 O218 2.462 1_554 S
Eu179 O219 2.373 . S
Eu179 O221 2.432 . S
Eu179 O222 2.291 1_564 S
Eu179 C243 2.787 . S
N180 C176 1.351 . S
N180 Eu179 2.562 1_556 S
N180 C182 1.325 . S
C181 C175 1.404 . S
C181 C183 1.366 . S
C181 H189 0.930 . S
C182 N180 1.325 . S
C182 C183 1.416 . S
C182 H188 0.929 . S
C183 C181 1.366 . S
C183 C182 1.416 . S
C183 H185 0.930 . S
H184 C173 0.930 . S
H185 C183 0.930 . S
H186 C201 0.930 . S
H187 C208 0.930 . S
H188 C182 0.929 . S
H189 C181 0.930 . S
H190 C204 0.929 . S
H191 C171 0.931 . S
H192 C177 0.931 . S
H193 C178 0.931 . S
H194 C199 0.931 . S
H195 C174 0.929 . S
H196 C207 0.930 . S
N197 Eu168 2.600 . S
N197 C198 1.365 . S
N197 C201 1.319 . S
C198 N197 1.365 . S
C198 C200 1.405 . S
C198 C206 1.448 1_556 S
C199 H194 0.931 . S
C199 C201 1.397 . S
C199 C202 1.367 . S
C200 C198 1.405 . S
C200 C202 1.403 . S
C200 C233 1.439 . S
C201 H186 0.930 . S
C201 N197 1.319 . S
C201 C199 1.397 . S
C202 C199 1.367 . S
C202 C200 1.403 . S
C202 H209 0.929 . S
N203 Eu168 2.562 1_554 S
N203 C204 1.325 . S
N203 C206 1.351 . S
C204 H190 0.929 . S
C204 N203 1.325 . S
C204 C208 1.416 . S
C205 C206 1.430 . S
C205 C207 1.404 . S
C205 C234 1.387 . S
C206 C198 1.448 1_554 S
C206 N203 1.351 . S
C206 C205 1.430 . S
C207 H196 0.930 . S
C207 C205 1.404 . S
C207 C208 1.366 . S
C208 H187 0.930 . S
C208 C204 1.416 . S
C208 C207 1.366 . S
H209 C202 0.929 . S
H210 C233 0.931 . S
H211 C234 0.931 . S
O212 Eu168 2.462 1_554 S
O212 C232 1.252 . S
O213 Eu168 2.373 . S
O213 C224 1.249 1_556 S
O214 Eu179 2.335 1_545 S
O214 C224 1.264 . S
O215 Eu168 2.432 . S
O215 C232 1.268 1_556 S
O216 Eu168 2.291 1_554 S
O216 C231 1.255 . S
O217 Eu179 2.372 1_545 S
O217 C231 1.257 . S
O218 Eu179 2.462 1_556 S
O218 C243 1.252 1_556 S
O219 Eu179 2.373 . S
O219 C235 1.249 1_554 S
O220 Eu168 2.335 . S
O220 C235 1.264 1_545 S
O221 Eu179 2.432 . S
O221 C243 1.268 . S
O222 Eu179 2.291 1_546 S
O222 C242 1.255 . S
O223 Eu168 2.372 . S
O223 C242 1.257 . S
C224 O213 1.249 1_554 S
C224 O214 1.264 . S
C225 C228 1.382 1_554 S
C225 C230 1.390 . S
C225 C232 1.506 . S
C226 C227 1.398 . S
C226 C230 1.392 . S
C227 C226 1.398 . S
C227 C229 1.372 1_554 S
C227 H244 0.931 . S
C228 C225 1.382 1_556 S
C228 C229 1.390 . S
C228 H245 0.931 . S
C229 C227 1.372 1_556 S
C229 C228 1.390 . S
C229 H246 0.929 . S
C230 C225 1.390 . S
C230 C226 1.392 . S
C230 H247 0.930 . S
C231 O216 1.255 . S
C231 O217 1.257 . S
C232 Eu168 2.787 1_554 S
C232 O212 1.252 . S
C232 O215 1.268 1_554 S
C232 C225 1.506 . S
C233 C200 1.439 . S
C233 H210 0.931 . S
C233 C234 1.374 1_556 S
C234 C205 1.387 . S
C234 H211 0.931 . S
C234 C233 1.374 1_554 S
C235 O219 1.249 1_556 S
C235 O220 1.264 1_565 S
C236 C239 1.382 1_556 S
C236 C240 1.390 . S
C236 C243 1.506 1_556 S
C237 C238 1.398 . S
C237 C240 1.392 . S
C238 C237 1.398 . S
C238 C241 1.372 1_556 S
C238 H248 0.931 . S
C239 C236 1.382 1_554 S
C239 C241 1.390 . S
C239 H249 0.931 . S
C240 C236 1.390 . S
C240 C237 1.392 . S
C240 H250 0.930 . S
C241 C238 1.372 1_554 S
C241 C239 1.390 . S
C241 H251 0.929 . S
C242 O222 1.255 . S
C242 O223 1.257 . S
C243 Eu179 2.787 . S
C243 O218 1.252 1_554 S
C243 O221 1.268 . S
C243 C236 1.506 1_554 S
H244 C227 0.931 . S
H245 C228 0.931 . S
H246 C229 0.929 . S
H247 C230 0.930 . S
H248 C238 0.931 . S
H249 C239 0.931 . S
H250 C240 0.930 . S
H251 C241 0.929 . S
Eu252 N281 2.600 . S
Eu252 N287 2.562 . S
Eu252 O296 2.457 1_554 S
Eu252 O297 2.373 . S
Eu252 O299 2.432 . S
Eu252 O300 2.291 1_554 S
Eu252 O304 2.335 . S
Eu252 O307 2.372 . S
Eu252 C316 2.787 . S
C253 N254 1.365 . S
C253 C256 1.405 . S
C253 C260 1.448 1_556 S
N254 C253 1.365 . S
N254 C257 1.319 . S
N254 Eu263 2.600 1_556 S
C255 C257 1.397 . S
C255 C258 1.367 . S
C255 H275 0.931 . S
C256 C253 1.405 . S
C256 C258 1.403 . S
C256 C262 1.439 . S
C257 N254 1.319 . S
C257 C255 1.397 . S
C257 H268 0.930 . S
C258 C255 1.367 . S
C258 C256 1.403 . S
C258 H279 0.929 . S
C259 C260 1.430 . S
C259 C261 1.387 1_554 S
C259 C265 1.404 . S
C260 C253 1.448 1_554 S
C260 C259 1.430 . S
C260 N264 1.351 . S
C261 C259 1.387 1_556 S
C261 C262 1.374 . S
C261 H276 0.931 . S
C262 C256 1.439 . S
C262 C261 1.374 . S
C262 H277 0.931 . S
Eu263 N254 2.600 1_554 S
Eu263 N264 2.562 . S
Eu263 O298 2.335 . S
Eu263 O301 2.372 1_554 S
Eu263 O302 2.462 . S
Eu263 O303 2.373 . S
Eu263 O305 2.432 1_554 S
Eu263 O306 2.291 . S
Eu263 C327 2.787 . S
N264 C260 1.351 . S
N264 Eu263 2.562 . S
N264 C266 1.325 . S
C265 C259 1.404 . S
C265 C267 1.366 . S
C265 H273 0.930 . S
C266 N264 1.325 . S
C266 C267 1.416 . S
C266 H272 0.929 . S
C267 C265 1.366 . S
C267 C266 1.416 . S
C267 H269 0.930 . S
H268 C257 0.930 . S
H269 C267 0.930 . S
H270 C285 0.930 . S
H271 C292 0.930 . S
H272 C266 0.929 . S
H273 C265 0.930 . S
H274 C288 0.929 . S
H275 C255 0.931 . S
H276 C261 0.931 . S
H277 C262 0.931 . S
H278 C283 0.931 . S
H279 C258 0.929 . S
H280 C291 0.930 1_556 S
N281 Eu252 2.600 . S
N281 C282 1.365 . S
N281 C285 1.319 . S
C282 N281 1.365 . S
C282 C284 1.405 . S
C282 C290 1.448 . S
C283 H278 0.931 . S
C283 C285 1.397 . S
C283 C286 1.367 . S
C284 C282 1.405 . S
C284 C286 1.403 . S
C284 C317 1.439 . S
C285 H270 0.930 . S
C285 N281 1.319 . S
C285 C283 1.397 . S
C286 C283 1.367 . S
C286 C284 1.403 . S
C286 H293 0.929 . S
N287 Eu252 2.562 . S
N287 C288 1.325 1_554 S
N287 C290 1.351 . S
C288 H274 0.929 . S
C288 N287 1.325 1_556 S
C288 C292 1.416 . S
C289 C290 1.430 . S
C289 C291 1.404 . S
C289 C318 1.387 . S
C290 C282 1.448 . S
C290 N287 1.351 . S
C290 C289 1.430 . S
C291 H280 0.930 1_554 S
C291 C289 1.404 . S
C291 C292 1.366 1_554 S
C292 H271 0.930 . S
C292 C288 1.416 . S
C292 C291 1.366 1_556 S
H293 C286 0.929 . S
H294 C317 0.931 . S
H295 C318 0.931 . S
O296 Eu252 2.457 1_556 S
O296 C316 1.245 1_556 S
O297 Eu252 2.373 . S
O297 C308 1.249 . S
O298 Eu263 2.335 . S
O298 C308 1.264 . S
O299 Eu252 2.432 . S
O299 C316 1.268 . S
O300 Eu252 2.291 1_556 S
O300 C315 1.255 . S
O301 Eu263 2.372 1_556 S
O301 C315 1.257 . S
O302 Eu263 2.462 . S
O302 C327 1.252 . S
O303 Eu263 2.373 . S
O303 C319 1.249 . S
O304 Eu252 2.335 . S
O304 C319 1.264 . S
O305 Eu263 2.432 1_556 S
O305 C327 1.268 1_556 S
O306 Eu263 2.291 . S
O306 C326 1.255 . S
O307 Eu252 2.372 . S
O307 C326 1.257 . S
C308 O297 1.249 . S
C308 O298 1.264 . S
C309 C312 1.382 . S
C309 C314 1.390 1_554 S
C309 C316 1.506 . S
C310 C311 1.398 1_556 S
C310 C314 1.392 . S
C311 C310 1.398 1_554 S
C311 C313 1.372 . S
C311 H328 0.931 . S
C312 C309 1.382 . S
C312 C313 1.390 . S
C312 H329 0.931 . S
C313 C311 1.372 . S
C313 C312 1.390 . S
C313 H330 0.929 . S
C314 C309 1.390 1_556 S
C314 C310 1.392 . S
C314 H331 0.930 . S
C315 O300 1.255 . S
C315 O301 1.257 . S
C316 Eu252 2.787 . S
C316 O296 1.245 1_554 S
C316 O299 1.268 . S
C316 C309 1.506 . S
C317 C284 1.439 . S
C317 H294 0.931 . S
C317 C318 1.374 . S
C318 C289 1.387 . S
C318 H295 0.931 . S
C318 C317 1.374 . S
C319 O303 1.249 . S
C319 O304 1.264 . S
C320 C323 1.382 . S
C320 C324 1.390 . S
C320 C327 1.506 . S
C321 C322 1.398 . S
C321 C324 1.392 . S
C322 C321 1.398 . S
C322 C325 1.372 . S
C322 H332 0.931 . S
C323 C320 1.382 . S
C323 C325 1.390 . S
C323 H333 0.931 1_554 S
C324 C320 1.390 . S
C324 C321 1.392 . S
C324 H334 0.930 . S
C325 C322 1.372 . S
C325 C323 1.390 . S
C325 H335 0.929 1_554 S
C326 O306 1.255 . S
C326 O307 1.257 . S
C327 Eu263 2.787 . S
C327 O302 1.252 . S
C327 O305 1.268 1_554 S
C327 C320 1.506 . S
H328 C311 0.931 . S
H329 C312 0.931 . S
H330 C313 0.929 . S
H331 C314 0.930 . S
H332 C322 0.931 . S
H333 C323 0.931 1_556 S
H334 C324 0.930 . S
H335 C325 0.929 1_556 S
Eu336 N365 2.600 . S
Eu336 N371 2.562 1_554 S
Eu336 O380 2.462 1_554 S
Eu336 O381 2.373 . S
Eu336 O383 2.432 . S
Eu336 O384 2.291 1_554 S
Eu336 O388 2.335 . S
Eu336 O391 2.372 . S
Eu336 C400 2.787 . S
C337 N338 1.365 . S
C337 C340 1.405 . S
C337 C344 1.448 1_556 S
N338 C337 1.365 . S
N338 C341 1.319 . S
N338 Eu347 2.600 . S
C339 C341 1.397 . S
C339 C342 1.367 . S
C339 H359 0.931 . S
C340 C337 1.405 . S
C340 C342 1.403 . S
C340 C346 1.439 . S
C341 N338 1.319 . S
C341 C339 1.397 . S
C341 H352 0.930 . S
C342 C339 1.367 . S
C342 C340 1.403 . S
C342 H363 0.929 . S
C343 C344 1.430 . S
C343 C345 1.387 . S
C343 C349 1.404 . S
C344 C337 1.448 1_554 S
C344 C343 1.430 . S
C344 N348 1.351 . S
C345 C343 1.387 . S
C345 C346 1.374 1_554 S
C345 H360 0.931 . S
C346 C340 1.439 . S
C346 C345 1.374 1_556 S
C346 H361 0.931 . S
Eu347 N338 2.600 . S
Eu347 N348 2.562 1_556 S
Eu347 O382 2.335 . S
Eu347 O385 2.372 . S
Eu347 O386 2.462 1_556 S
Eu347 O387 2.373 . S
Eu347 O389 2.432 . S
Eu347 O390 2.291 1_556 S
Eu347 C411 2.787 1_556 S
N348 C344 1.351 . S
N348 Eu347 2.562 1_554 S
N348 C350 1.325 . S
C349 C343 1.404 . S
C349 C351 1.366 . S
C349 H357 0.930 . S
C350 N348 1.325 . S
C350 C351 1.416 . S
C350 H356 0.929 . S
C351 C349 1.366 . S
C351 C350 1.416 . S
C351 H353 0.930 . S
H352 C341 0.930 . S
H353 C351 0.930 . S
H354 C369 0.930 . S
H355 C376 0.930 . S
H356 C350 0.929 . S
H357 C349 0.930 . S
H358 C372 0.929 . S
H359 C339 0.931 . S
H360 C345 0.931 . S
H361 C346 0.931 . S
H362 C367 0.931 . S
H363 C342 0.929 . S
H364 C375 0.930 . S
N365 Eu336 2.600 . S
N365 C366 1.365 . S
N365 C369 1.319 . S
C366 N365 1.365 . S
C366 C368 1.405 . S
C366 C374 1.448 1_554 S
C367 H362 0.931 . S
C367 C369 1.397 . S
C367 C370 1.367 . S
C368 C366 1.405 . S
C368 C370 1.403 . S
C368 C401 1.439 . S
C369 H354 0.930 . S
C369 N365 1.319 . S
C369 C367 1.397 . S
C370 C367 1.367 . S
C370 C368 1.403 . S
C370 H377 0.929 . S
N371 Eu336 2.562 1_556 S
N371 C372 1.325 . S
N371 C374 1.351 . S
C372 H358 0.929 . S
C372 N371 1.325 . S
C372 C376 1.416 . S
C373 C374 1.430 . S
C373 C375 1.404 . S
C373 C402 1.387 . S
C374 C366 1.448 1_556 S
C374 N371 1.351 . S
C374 C373 1.430 . S
C375 H364 0.930 . S
C375 C373 1.404 . S
C375 C376 1.366 . S
C376 H355 0.930 . S
C376 C372 1.416 . S
C376 C375 1.366 . S
H377 C370 0.929 . S
H378 C401 0.931 . S
H379 C402 0.931 . S
O380 Eu336 2.462 1_556 S
O380 C400 1.252 1_556 S
O381 Eu336 2.373 . S
O381 C392 1.249 1_554 S
O382 Eu347 2.335 . S
O382 C392 1.264 . S
O383 Eu336 2.432 . S
O383 C400 1.268 . S
O384 Eu336 2.291 1_556 S
O384 C399 1.255 . S
O385 Eu347 2.372 . S
O385 C399 1.257 . S
O386 Eu347 2.462 1_554 S
O386 C411 1.252 . S
O387 Eu347 2.373 . S
O387 C403 1.249 1_556 S
O388 Eu336 2.335 . S
O388 C403 1.264 . S
O389 Eu347 2.432 . S
O389 C411 1.268 1_556 S
O390 Eu347 2.291 1_554 S
O390 C410 1.255 . S
O391 Eu336 2.372 . S
O391 C410 1.257 . S
C392 O381 1.249 1_556 S
C392 O382 1.264 . S
C393 C396 1.382 . S
C393 C398 1.390 1_554 S
C393 C400 1.506 . S
C394 C395 1.398 . S
C394 C398 1.392 . S
C395 C394 1.398 . S
C395 C397 1.372 1_556 S
C395 H412 0.931 . S
C396 C393 1.382 . S
C396 C397 1.390 . S
C396 H413 0.931 . S
C397 C395 1.372 1_554 S
C397 C396 1.390 . S
C397 H414 0.929 . S
C398 C393 1.390 1_556 S
C398 C394 1.392 . S
C398 H415 0.930 . S
C399 O384 1.255 . S
C399 O385 1.257 . S
C400 Eu336 2.787 . S
C400 O380 1.252 1_554 S
C400 O383 1.268 . S
C400 C393 1.506 . S
C401 C368 1.439 . S
C401 H378 0.931 . S
C401 C402 1.374 1_554 S
C402 C373 1.387 . S
C402 H379 0.931 . S
C402 C401 1.374 1_556 S
C403 O387 1.249 1_554 S
C403 O388 1.264 . S
C404 C407 1.382 1_554 S
C404 C408 1.390 . S
C404 C411 1.506 . S
C405 C406 1.398 . S
C405 C408 1.392 . S
C406 C405 1.398 . S
C406 C409 1.372 1_554 S
C406 H416 0.931 . S
C407 C404 1.382 1_556 S
C407 C409 1.390 . S
C407 H417 0.931 . S
C408 C404 1.390 . S
C408 C405 1.392 . S
C408 H418 0.930 . S
C409 C406 1.372 1_556 S
C409 C407 1.390 . S
C409 H419 0.929 . S
C410 O390 1.255 . S
C410 O391 1.257 . S
C411 Eu347 2.787 1_554 S
C411 O386 1.252 . S
C411 O389 1.268 1_554 S
C411 C404 1.506 . S
H412 C395 0.931 . S
H413 C396 0.931 . S
H414 C397 0.929 . S
H415 C398 0.930 . S
H416 C406 0.931 . S
H417 C407 0.931 . S
H418 C408 0.930 . S
H419 C409 0.929 . S
Eu420 N449 2.600 . S
Eu420 N455 2.562 . S
Eu420 O464 2.462 1_554 S
Eu420 O465 2.373 . S
Eu420 O467 2.432 . S
Eu420 O468 2.291 1_554 S
Eu420 O472 2.335 . S
Eu420 O475 2.372 . S
Eu420 C484 2.787 . S
C421 N422 1.365 . S
C421 C424 1.405 . S
C421 C428 1.448 . S
N422 C421 1.365 . S
N422 C425 1.319 1_554 S
N422 Eu431 2.600 . S
C423 C425 1.397 . S
C423 C426 1.367 . S
C423 H443 0.931 . S
C424 C421 1.405 . S
C424 C426 1.403 1_554 S
C424 C430 1.439 1_655 S
C425 N422 1.319 1_556 S
C425 C423 1.397 . S
C425 H436 0.930 . S
C426 C423 1.367 . S
C426 C424 1.403 1_556 S
C426 H447 0.929 1_655 S
C427 C428 1.422 . S
C427 C429 1.391 1_655 S
C427 C433 1.400 . S
C428 C421 1.448 . S
C428 C427 1.422 . S
C428 N432 1.351 . S
C429 C427 1.391 1_455 S
C429 C430 1.374 . S
C429 H444 0.931 . S
C430 C424 1.439 1_455 S
C430 C429 1.374 . S
C430 H445 0.931 . S
Eu431 N422 2.600 . S
Eu431 N432 2.562 . S
Eu431 O466 2.335 . S
Eu431 O469 2.372 1_554 S
Eu431 O470 2.462 1_655 S
Eu431 O471 2.373 . S
Eu431 O473 2.432 1_655 S
Eu431 O474 2.291 . S
Eu431 C495 2.787 1_655 S
N432 C428 1.351 . S
N432 Eu431 2.562 . S
N432 C434 1.325 . S
C433 C427 1.400 . S
C433 C435 1.357 . S
C433 H441 0.949 1_655 S
C434 N432 1.325 . S
C434 C435 1.416 . S
C434 H440 0.929 . S
C435 C433 1.357 . S
C435 C434 1.416 . S
C435 H437 0.930 . S
H436 C425 0.930 . S
H437 C435 0.930 . S
H438 C453 0.930 . S
H439 C460 0.930 . S
H440 C434 0.929 . S
H441 C433 0.949 1_455 S
H442 C456 0.929 . S
H443 C423 0.931 . S
H444 C429 0.931 . S
H445 C430 0.931 . S
H446 C451 0.931 . S
H447 C426 0.929 1_455 S
H448 C459 0.930 . S
N449 Eu420 2.600 . S
N449 C450 1.365 . S
N449 C453 1.319 . S
C450 N449 1.365 . S
C450 C452 1.405 . S
C450 C458 1.448 . S
C451 H446 0.931 . S
C451 C453 1.397 . S
C451 C454 1.367 . S
C452 C450 1.405 . S
C452 C454 1.403 . S
C452 C485 1.439 . S
C453 H438 0.930 . S
C453 N449 1.319 . S
C453 C451 1.397 . S
C454 C451 1.367 . S
C454 C452 1.403 . S
C454 H461 0.929 . S
N455 Eu420 2.562 . S
N455 C456 1.325 1_554 S
N455 C458 1.351 . S
C456 H442 0.929 . S
C456 N455 1.325 1_556 S
C456 C460 1.416 . S
C457 C458 1.430 . S
C457 C459 1.404 1_554 S
C457 C486 1.387 . S
C458 C450 1.448 . S
C458 N455 1.351 . S
C458 C457 1.430 . S
C459 H448 0.930 . S
C459 C457 1.404 1_556 S
C459 C460 1.366 . S
C460 H439 0.930 . S
C460 C456 1.416 . S
C460 C459 1.366 . S
H461 C454 0.929 . S
H462 C485 0.931 . S
H463 C486 0.931 . S
O464 Eu420 2.462 1_556 S
O464 C484 1.252 1_556 S
O465 Eu420 2.373 . S
O465 C476 1.249 . S
O466 Eu431 2.335 . S
O466 C476 1.264 . S
O467 Eu420 2.432 . S
O467 C484 1.268 . S
O468 Eu420 2.291 1_556 S
O468 C483 1.255 . S
O469 Eu431 2.372 1_556 S
O469 C483 1.257 . S
O470 Eu431 2.462 1_455 S
O470 C495 1.252 . S
O471 Eu431 2.373 . S
O471 C487 1.249 . S
O472 Eu420 2.335 . S
O472 C487 1.264 . S
O473 Eu431 2.432 1_455 S
O473 C495 1.268 . S
O474 Eu431 2.291 . S
O474 C494 1.255 . S
O475 Eu420 2.372 . S
O475 C494 1.257 . S
C476 O465 1.249 . S
C476 O466 1.264 . S
C477 C480 1.382 . S
C477 C482 1.390 1_554 S
C477 C484 1.506 . S
C478 C479 1.398 . S
C478 C482 1.392 . S
C479 C478 1.398 . S
C479 C481 1.372 1_556 S
C479 H496 0.931 . S
C480 C477 1.382 . S
C480 C481 1.390 . S
C480 H497 0.931 . S
C481 C479 1.372 1_554 S
C481 C480 1.390 . S
C481 H498 0.929 . S
C482 C477 1.390 1_556 S
C482 C478 1.392 . S
C482 H499 0.930 . S
C483 O468 1.255 . S
C483 O469 1.257 . S
C484 Eu420 2.787 . S
C484 O464 1.252 1_554 S
C484 O467 1.268 . S
C484 C477 1.506 . S
C485 C452 1.439 . S
C485 H462 0.931 . S
C485 C486 1.374 . S
C486 C457 1.387 . S
C486 H463 0.931 . S
C486 C485 1.374 . S
C487 O471 1.249 . S
C487 O472 1.264 . S
C488 C491 1.382 . S
C488 C492 1.390 . S
C488 C495 1.506 . S
C489 C490 1.398 . S
C489 C492 1.392 . S
C490 C489 1.398 . S
C490 C493 1.372 . S
C490 H500 0.931 . S
C491 C488 1.382 . S
C491 C493 1.390 . S
C491 H501 0.931 . S
C492 C488 1.390 . S
C492 C489 1.392 . S
C492 H502 0.930 . S
C493 C490 1.372 . S
C493 C491 1.390 . S
C493 H503 0.929 . S
C494 O474 1.255 . S
C494 O475 1.257 . S
C495 Eu431 2.787 1_455 S
C495 O470 1.252 . S
C495 O473 1.268 . S
C495 C488 1.506 . S
H496 C479 0.931 . S
H497 C480 0.931 . S
H498 C481 0.929 . S
H499 C482 0.930 . S
H500 C490 0.931 . S
H501 C491 0.931 . S
H502 C492 0.930 . S
H503 C493 0.929 . S
Eu504 N533 2.600 . S
Eu504 N539 2.562 . S
Eu504 O548 2.462 . S
Eu504 O549 2.373 . S
Eu504 O551 2.432 . S
Eu504 O552 2.291 . S
Eu504 O556 2.335 . S
Eu504 O559 2.372 . S
Eu504 C568 2.787 . S
C505 N506 1.365 . S
C505 C508 1.405 . S
C505 C512 1.448 1_554 S
N506 C505 1.365 . S
N506 C509 1.319 . S
N506 Eu515 2.600 1_554 S
C507 C509 1.397 . S
C507 C510 1.367 . S
C507 H527 0.931 . S
C508 C505 1.405 . S
C508 C510 1.403 . S
C508 C514 1.439 . S
C509 N506 1.319 . S
C509 C507 1.397 . S
C509 H520 0.930 . S
C510 C507 1.367 . S
C510 C508 1.403 . S
C510 H531 0.929 . S
C511 C512 1.430 . S
C511 C513 1.387 . S
C511 C517 1.404 . S
C512 C505 1.448 1_556 S
C512 C511 1.430 . S
C512 N516 1.351 . S
C513 C511 1.387 . S
C513 C514 1.374 1_556 S
C513 H528 0.931 . S
C514 C508 1.439 . S
C514 C513 1.374 1_554 S
C514 H529 0.931 . S
Eu515 N506 2.600 1_556 S
Eu515 N516 2.562 . S
Eu515 O550 2.335 . S
Eu515 O553 2.372 1_556 S
Eu515 O554 2.462 . S
Eu515 O555 2.373 . S
Eu515 O557 2.432 . S
Eu515 O558 2.291 . S
Eu515 C579 2.787 . S
N516 C512 1.351 . S
N516 Eu515 2.562 . S
N516 C518 1.325 . S
C517 C511 1.404 . S
C517 C519 1.366 . S
C517 H525 0.930 . S
C518 N516 1.325 . S
C518 C519 1.416 . S
C518 H524 0.929 . S
C519 C517 1.366 . S
C519 C518 1.416 . S
C519 H521 0.930 . S
H520 C509 0.930 . S
H521 C519 0.930 . S
H522 C537 0.930 . S
H523 C544 0.930 . S
H524 C518 0.929 . S
H525 C517 0.930 . S
H526 C540 0.929 1_554 S
H527 C507 0.931 . S
H528 C513 0.931 . S
H529 C514 0.931 . S
H530 C535 0.931 . S
H531 C510 0.929 . S
H532 C543 0.930 . S
N533 Eu504 2.600 . S
N533 C534 1.365 . S
N533 C537 1.319 . S
C534 N533 1.365 . S
C534 C536 1.405 . S
C534 C542 1.448 . S
C535 H530 0.931 . S
C535 C537 1.397 . S
C535 C538 1.367 . S
C536 C534 1.405 . S
C536 C538 1.403 . S
C536 C569 1.439 . S
C537 H522 0.930 . S
C537 N533 1.319 . S
C537 C535 1.397 . S
C538 C535 1.367 . S
C538 C536 1.403 . S
C538 H545 0.929 . S
N539 Eu504 2.562 . S
N539 C540 1.325 . S
N539 C542 1.351 . S
C540 H526 0.929 1_556 S
C540 N539 1.325 . S
C540 C544 1.416 1_556 S
C541 C542 1.430 . S
C541 C543 1.404 . S
C541 C570 1.387 . S
C542 C534 1.448 . S
C542 N539 1.351 . S
C542 C541 1.430 . S
C543 H532 0.930 . S
C543 C541 1.404 . S
C543 C544 1.366 1_556 S
C544 H523 0.930 . S
C544 C540 1.416 1_554 S
C544 C543 1.366 1_554 S
H545 C538 0.929 . S
H546 C569 0.931 . S
H547 C570 0.931 . S
O548 Eu504 2.462 . S
O548 C568 1.252 . S
O549 Eu504 2.373 . S
O549 C560 1.249 . S
O550 Eu515 2.335 . S
O550 C560 1.264 . S
O551 Eu504 2.432 . S
O551 C568 1.268 . S
O552 Eu504 2.291 . S
O552 C567 1.255 1_556 S
O553 Eu515 2.372 1_554 S
O553 C567 1.257 . S
O554 Eu515 2.462 . S
O554 C579 1.252 . S
O555 Eu515 2.373 . S
O555 C571 1.249 . S
O556 Eu504 2.335 . S
O556 C571 1.264 . S
O557 Eu515 2.432 . S
O557 C579 1.268 . S
O558 Eu515 2.291 . S
O558 C578 1.255 . S
O559 Eu504 2.372 . S
O559 C578 1.257 . S
C560 O549 1.249 . S
C560 O550 1.264 . S
C561 C564 1.382 . S
C561 C566 1.390 . S
C561 C568 1.506 . S
C562 C563 1.398 . S
C562 C566 1.392 . S
C563 C562 1.398 . S
C563 C565 1.372 . S
C563 H580 0.931 . S
C564 C561 1.382 . S
C564 C565 1.390 . S
C564 H581 0.931 . S
C565 C563 1.372 . S
C565 C564 1.390 . S
C565 H582 0.929 . S
C566 C561 1.390 . S
C566 C562 1.392 . S
C566 H583 0.930 . S
C567 O552 1.255 1_554 S
C567 O553 1.257 . S
C568 Eu504 2.787 . S
C568 O548 1.252 . S
C568 O551 1.268 . S
C568 C561 1.506 . S
C569 C536 1.439 . S
C569 H546 0.931 . S
C569 C570 1.374 . S
C570 C541 1.387 . S
C570 H547 0.931 . S
C570 C569 1.374 . S
C571 O555 1.249 . S
C571 O556 1.264 . S
C572 C575 1.382 . S
C572 C576 1.390 . S
C572 C579 1.506 1_545 S
C573 C574 1.398 . S
C573 C576 1.392 . S
C574 C573 1.398 . S
C574 C577 1.372 . S
C574 H584 0.931 . S
C575 C572 1.382 . S
C575 C577 1.390 . S
C575 H585 0.931 1_556 S
C576 C572 1.390 . S
C576 C573 1.392 . S
C576 H586 0.930 . S
C577 C574 1.372 . S
C577 C575 1.390 . S
C577 H587 0.929 1_556 S
C578 O558 1.255 . S
C578 O559 1.257 . S
C579 Eu515 2.787 . S
C579 O554 1.252 . S
C579 O557 1.268 . S
C579 C572 1.506 1_565 S
H580 C563 0.931 . S
H581 C564 0.931 . S
H582 C565 0.929 . S
H583 C566 0.930 . S
H584 C574 0.931 . S
H585 C575 0.931 1_554 S
H586 C576 0.930 . S
H587 C577 0.929 1_554 S
Eu588 N617 2.600 1_556 S
Eu588 N623 2.562 . S
Eu588 O632 2.462 . S
Eu588 O633 2.373 . S
Eu588 O635 2.432 1_556 S
Eu588 O636 2.291 . S
Eu588 O640 2.335 1_556 S
Eu588 O643 2.372 1_556 S
Eu588 C652 2.787 . S
C589 N590 1.365 . S
C589 C592 1.405 . S
C589 C596 1.448 . S
N590 C589 1.365 . S
N590 C593 1.319 . S
N590 Eu599 2.600 . S
C591 C593 1.397 . S
C591 C594 1.367 . S
C591 H611 0.931 . S
C592 C589 1.405 . S
C592 C594 1.403 . S
C592 C598 1.439 . S
C593 N590 1.319 . S
C593 C591 1.397 . S
C593 H604 0.930 . S
C594 C591 1.367 . S
C594 C592 1.403 . S
C594 H615 0.929 . S
C595 C596 1.430 1_554 S
C595 C597 1.387 . S
C595 C601 1.404 . S
C596 C589 1.448 . S
C596 C595 1.430 1_556 S
C596 N600 1.351 1_556 S
C597 C595 1.387 . S
C597 C598 1.374 1_554 S
C597 H612 0.931 . S
C598 C592 1.439 . S
C598 C597 1.374 1_556 S
C598 H613 0.931 . S
Eu599 N590 2.600 . S
Eu599 N600 2.562 1_556 S
Eu599 O634 2.335 . S
Eu599 O637 2.372 . S
Eu599 O638 2.462 1_556 S
Eu599 O639 2.373 . S
Eu599 O641 2.432 . S
Eu599 O642 2.291 1_556 S
Eu599 C663 2.787 . S
N600 C596 1.351 1_554 S
N600 Eu599 2.562 1_554 S
N600 C602 1.325 . S
C601 C595 1.404 . S
C601 C603 1.366 . S
C601 H609 0.930 . S
C602 N600 1.325 . S
C602 C603 1.416 . S
C602 H608 0.929 . S
C603 C601 1.366 . S
C603 C602 1.416 . S
C603 H605 0.930 . S
H604 C593 0.930 . S
H605 C603 0.930 . S
H606 C621 0.930 . S
H607 C628 0.930 . S
H608 C602 0.929 . S
H609 C601 0.930 . S
H610 C624 0.929 . S
H611 C591 0.931 . S
H612 C597 0.931 . S
H613 C598 0.931 . S
H614 C619 0.931 . S
H615 C594 0.929 . S
H616 C627 0.930 . S
N617 Eu588 2.600 1_554 S
N617 C618 1.365 . S
N617 C621 1.319 . S
C618 N617 1.365 . S
C618 C620 1.405 . S
C618 C626 1.448 1_554 S
C619 H614 0.931 . S
C619 C621 1.397 . S
C619 C622 1.367 . S
C620 C618 1.405 . S
C620 C622 1.403 . S
C620 C653 1.439 1_554 S
C621 H606 0.930 . S
C621 N617 1.319 . S
C621 C619 1.397 . S
C622 C619 1.367 . S
C622 C620 1.403 . S
C622 H629 0.929 . S
N623 Eu588 2.562 . S
N623 C624 1.325 . S
N623 C626 1.351 . S
C624 H610 0.929 . S
C624 N623 1.325 . S
C624 C628 1.416 . S
C625 C626 1.430 . S
C625 C627 1.404 . S
C625 C654 1.387 . S
C626 C618 1.448 1_556 S
C626 N623 1.351 . S
C626 C625 1.430 . S
C627 H616 0.930 . S
C627 C625 1.404 . S
C627 C628 1.366 . S
C628 H607 0.930 . S
C628 C624 1.416 . S
C628 C627 1.366 . S
H629 C622 0.929 . S
H630 C653 0.931 1_554 S
H631 C654 0.931 . S
O632 Eu588 2.462 . S
O632 C652 1.252 . S
O633 Eu588 2.373 . S
O633 C644 1.249 . S
O634 Eu599 2.335 . S
O634 C644 1.264 . S
O635 Eu588 2.432 1_554 S
O635 C652 1.268 1_554 S
O636 Eu588 2.291 . S
O636 C651 1.255 . S
O637 Eu599 2.372 . S
O637 C651 1.257 . S
O638 Eu599 2.462 1_554 S
O638 C663 1.252 1_554 S
O639 Eu599 2.373 . S
O639 C655 1.249 . S
O640 Eu588 2.335 1_554 S
O640 C655 1.264 1_554 S
O641 Eu599 2.432 . S
O641 C663 1.268 . S
O642 Eu599 2.291 1_554 S
O642 C662 1.255 . S
O643 Eu588 2.372 1_554 S
O643 C662 1.257 . S
C644 O633 1.249 . S
C644 O634 1.264 . S
C645 C648 1.382 1_556 S
C645 C650 1.390 . S
C645 C652 1.506 . S
C646 C647 1.398 . S
C646 C650 1.392 . S
C647 C646 1.398 . S
C647 C649 1.372 1_556 S
C647 H664 0.931 . S
C648 C645 1.382 1_554 S
C648 C649 1.390 . S
C648 H665 0.931 . S
C649 C647 1.372 1_554 S
C649 C648 1.390 . S
C649 H666 0.929 . S
C650 C645 1.390 . S
C650 C646 1.392 . S
C650 H667 0.930 . S
C651 O636 1.255 . S
C651 O637 1.257 . S
C652 Eu588 2.787 . S
C652 O632 1.252 . S
C652 O635 1.268 1_556 S
C652 C645 1.506 . S
C653 C620 1.439 1_556 S
C653 H630 0.931 1_556 S
C653 C654 1.374 . S
C654 C625 1.387 . S
C654 H631 0.931 . S
C654 C653 1.374 . S
C655 O639 1.249 . S
C655 O640 1.264 1_556 S
C656 C659 1.382 . S
C656 C660 1.390 1_556 S
C656 C663 1.506 . S
C657 C658 1.398 1_554 S
C657 C660 1.392 . S
C658 C657 1.398 1_556 S
C658 C661 1.372 . S
C658 H668 0.931 . S
C659 C656 1.382 . S
C659 C661 1.390 . S
C659 H669 0.931 . S
C660 C656 1.390 1_554 S
C660 C657 1.392 . S
C660 H670 0.930 . S
C661 C658 1.372 . S
C661 C659 1.390 . S
C661 H671 0.929 . S
C662 O642 1.255 . S
C662 O643 1.257 . S
C663 Eu599 2.787 . S
C663 O638 1.252 1_556 S
C663 O641 1.268 . S
C663 C656 1.506 . S
H664 C647 0.931 . S
H665 C648 0.931 . S
H666 C649 0.929 . S
H667 C650 0.930 . S
H668 C658 0.931 . S
H669 C659 0.931 . S
H670 C660 0.930 . S
H671 C661 0.929 . S
Eu672 N701 2.600 . S
Eu672 N707 2.562 1_556 S
Eu672 O716 2.462 1_556 S
Eu672 O717 2.373 . S
Eu672 O719 2.432 . S
Eu672 O720 2.291 1_556 S
Eu672 O724 2.335 . S
Eu672 O727 2.372 . S
Eu672 C736 2.787 . S
C673 N674 1.365 1_556 S
C673 C676 1.405 1_556 S
C673 C680 1.448 . S
N674 C673 1.365 1_554 S
N674 C677 1.319 . S
N674 Eu683 2.600 1_554 S
C675 C677 1.397 . S
C675 C678 1.367 . S
C675 H695 0.931 . S
C676 C673 1.405 1_554 S
C676 C678 1.403 . S
C676 C682 1.439 1_554 S
C677 N674 1.319 . S
C677 C675 1.397 . S
C677 H688 0.930 . S
C678 C675 1.367 . S
C678 C676 1.403 . S
C678 H699 0.929 . S
C679 C680 1.430 . S
C679 C681 1.387 . S
C679 C685 1.404 . S
C680 C673 1.448 . S
C680 C679 1.430 . S
C680 N684 1.351 . S
C681 C679 1.387 . S
C681 C682 1.374 . S
C681 H696 0.931 . S
C682 C676 1.439 1_556 S
C682 C681 1.374 . S
C682 H697 0.931 . S
Eu683 N674 2.600 1_556 S
Eu683 N684 2.562 . S
Eu683 O718 2.335 . S
Eu683 O721 2.372 1_556 S
Eu683 O722 2.462 . S
Eu683 O723 2.373 . S
Eu683 O725 2.432 . S
Eu683 O726 2.291 . S
Eu683 C747 2.787 . S
N684 C680 1.351 . S
N684 Eu683 2.562 . S
N684 C686 1.325 . S
C685 C679 1.404 . S
C685 C687 1.366 . S
C685 H693 0.930 . S
C686 N684 1.325 . S
C686 C687 1.416 . S
C686 H692 0.929 . S
C687 C685 1.366 . S
C687 C686 1.416 . S
C687 H689 0.930 . S
H688 C677 0.930 . S
H689 C687 0.930 . S
H690 C705 0.930 . S
H691 C712 0.930 . S
H692 C686 0.929 . S
H693 C685 0.930 . S
H694 C708 0.929 . S
H695 C675 0.931 . S
H696 C681 0.931 . S
H697 C682 0.931 . S
H698 C703 0.931 . S
H699 C678 0.929 . S
H700 C711 0.930 . S
N701 Eu672 2.600 . S
N701 C702 1.365 . S
N701 C705 1.319 . S
C702 N701 1.365 . S
C702 C704 1.405 . S
C702 C710 1.448 . S
C703 H698 0.931 . S
C703 C705 1.397 . S
C703 C706 1.367 . S
C704 C702 1.405 . S
C704 C706 1.403 . S
C704 C737 1.439 . S
C705 H690 0.930 . S
C705 N701 1.319 . S
C705 C703 1.397 . S
C706 C703 1.367 . S
C706 C704 1.403 . S
C706 H713 0.929 . S
N707 Eu672 2.562 1_554 S
N707 C708 1.325 . S
N707 C710 1.351 1_554 S
C708 H694 0.929 . S
C708 N707 1.325 . S
C708 C712 1.416 . S
C709 C710 1.430 1_554 S
C709 C711 1.404 . S
C709 C738 1.387 1_554 S
C710 C702 1.448 . S
C710 N707 1.351 1_556 S
C710 C709 1.430 1_556 S
C711 H700 0.930 . S
C711 C709 1.404 . S
C711 C712 1.366 . S
C712 H691 0.930 . S
C712 C708 1.416 . S
C712 C711 1.366 . S
H713 C706 0.929 . S
H714 C737 0.931 . S
H715 C738 0.931 1_554 S
O716 Eu672 2.462 1_554 S
O716 C736 1.252 1_554 S
O717 Eu672 2.373 . S
O717 C728 1.249 . S
O718 Eu683 2.335 . S
O718 C728 1.264 . S
O719 Eu672 2.432 . S
O719 C736 1.268 . S
O720 Eu672 2.291 1_554 S
O720 C735 1.255 . S
O721 Eu683 2.372 1_554 S
O721 C735 1.257 . S
O722 Eu683 2.462 . S
O722 C747 1.252 . S
O723 Eu683 2.373 . S
O723 C739 1.249 . S
O724 Eu672 2.335 . S
O724 C739 1.264 . S
O725 Eu683 2.432 . S
O725 C747 1.268 . S
O726 Eu683 2.291 . S
O726 C746 1.255 . S
O727 Eu672 2.372 . S
O727 C746 1.257 . S
C728 O717 1.249 . S
C728 O718 1.264 . S
C729 C732 1.382 . S
C729 C734 1.390 1_556 S
C729 C736 1.506 . S
C730 C731 1.398 1_554 S
C730 C734 1.392 . S
C731 C730 1.398 1_556 S
C731 C733 1.372 . S
C731 H748 0.931 1_556 S
C732 C729 1.382 . S
C732 C733 1.390 . S
C732 H749 0.931 . S
C733 C731 1.372 . S
C733 C732 1.390 . S
C733 H750 0.929 . S
C734 C729 1.390 1_554 S
C734 C730 1.392 . S
C734 H751 0.930 . S
C735 O720 1.255 . S
C735 O721 1.257 . S
C736 Eu672 2.787 . S
C736 O716 1.252 1_556 S
C736 O719 1.268 . S
C736 C729 1.506 . S
C737 C704 1.439 . S
C737 H714 0.931 . S
C737 C738 1.374 . S
C738 C709 1.387 1_556 S
C738 H715 0.931 1_556 S
C738 C737 1.374 . S
C739 O723 1.249 . S
C739 O724 1.264 . S
C740 C743 1.382 . S
C740 C744 1.390 . S
C740 C747 1.506 . S
C741 C742 1.398 . S
C741 C744 1.392 . S
C742 C741 1.398 . S
C742 C745 1.372 . S
C742 H752 0.931 . S
C743 C740 1.382 . S
C743 C745 1.390 . S
C743 H753 0.931 . S
C744 C740 1.390 . S
C744 C741 1.392 . S
C744 H754 0.930 . S
C745 C742 1.372 . S
C745 C743 1.390 . S
C745 H755 0.929 . S
C746 O726 1.255 . S
C746 O727 1.257 . S
C747 Eu683 2.787 . S
C747 O722 1.252 . S
C747 O725 1.268 . S
C747 C740 1.506 . S
H748 C731 0.931 1_554 S
H749 C732 0.931 . S
H750 C733 0.929 . S
H751 C734 0.930 . S
H752 C742 0.931 . S
H753 C743 0.931 . S
H754 C744 0.930 . S
H755 C745 0.929 . S
C756 C757 1.387 1_556 S
C756 H760 0.950 . S
C756 C765 1.390 . S
C757 C756 1.387 1_554 S
C757 C759 1.387 . S
H758 C765 0.950 . S
C759 C757 1.387 . S
C759 C761 1.390 . S
C759 H763 0.950 . S
H760 C756 0.950 . S
C761 C759 1.390 . S
C761 C762 1.387 . S
C761 H764 0.950 . S
C762 C761 1.387 . S
C762 C765 1.387 1_554 S
H763 C759 0.950 . S
H764 C761 0.950 . S
C765 C756 1.390 . S
C765 H758 0.950 . S
C765 C762 1.387 1_556 S
C766 C767 1.387 1_556 S
C766 H770 0.950 . S
C766 C775 1.390 . S
C767 C766 1.387 1_554 S
C767 C769 1.387 . S
H768 C775 0.950 . S
C769 C767 1.387 . S
C769 C771 1.390 . S
C769 H773 0.950 . S
H770 C766 0.950 . S
C771 C769 1.390 . S
C771 C772 1.387 1_554 S
C771 H774 0.950 . S
C772 C771 1.387 1_556 S
C772 C775 1.387 . S
H773 C769 0.950 . S
H774 C771 0.950 . S
C775 C766 1.390 . S
C775 H768 0.950 . S
C775 C772 1.387 . S
C776 C777 1.387 . S
C776 H780 0.950 . S
C776 C785 1.390 . S
C777 C776 1.387 . S
C777 C779 1.387 . S
H778 C785 0.950 . S
C779 C777 1.387 . S
C779 C781 1.390 . S
C779 H783 0.950 . S
H780 C776 0.950 . S
C781 C779 1.390 . S
C781 C782 1.387 . S
C781 H784 0.950 . S
C782 C781 1.387 . S
C782 C785 1.387 . S
H783 C779 0.950 . S
H784 C781 0.950 . S
C785 C776 1.390 . S
C785 H778 0.950 . S
C785 C782 1.387 . S
C786 C787 1.387 1_554 S
C786 H790 0.950 . S
C786 C795 1.390 . S
C787 C786 1.387 1_556 S
C787 C789 1.387 . S
H788 C795 0.950 . S
C789 C787 1.387 . S
C789 C791 1.390 . S
C789 H793 0.950 . S
H790 C786 0.950 . S
C791 C789 1.390 . S
C791 C792 1.387 1_556 S
C791 H794 0.950 . S
C792 C791 1.387 1_554 S
C792 C795 1.387 . S
H793 C789 0.950 . S
H794 C791 0.950 . S
C795 C786 1.390 . S
C795 H788 0.950 . S
C795 C792 1.387 . S
C796 C797 1.387 . S
C796 H800 0.950 1_554 S
C796 C805 1.390 . S
C797 C796 1.387 . S
C797 C799 1.387 . S
H798 C805 0.950 1_556 S
C799 C797 1.387 . S
C799 C801 1.390 1_655 S
C799 H803 0.950 . S
H800 C796 0.950 1_556 S
C801 C799 1.390 1_455 S
C801 C802 1.387 1_455 S
C801 H804 0.950 . S
C802 C801 1.387 1_655 S
C802 C805 1.387 . S
H803 C799 0.950 . S
H804 C801 0.950 . S
C805 C796 1.390 . S
C805 H798 0.950 1_554 S
C805 C802 1.387 . S
C806 C807 1.387 . S
C806 H810 0.950 . S
C806 C815 1.390 . S
C807 C806 1.387 . S
C807 C809 1.387 . S
H808 C815 0.950 . S
C809 C807 1.387 . S
C809 C811 1.390 . S
C809 H813 0.950 . S
H810 C806 0.950 . S
C811 C809 1.390 . S
C811 C812 1.387 . S
C811 H814 0.950 1_554 S
C812 C811 1.387 . S
C812 C815 1.387 . S
H813 C809 0.950 . S
H814 C811 0.950 1_556 S
C815 C806 1.390 . S
C815 H808 0.950 . S
C815 C812 1.387 . S
C816 C817 1.387 . S
C816 H820 0.950 . S
C816 C825 1.390 . S
C817 C816 1.387 . S
C817 C819 1.387 . S
H818 C825 0.950 . S
C819 C817 1.387 . S
C819 C821 1.390 . S
C819 H823 0.950 . S
H820 C816 0.950 . S
C821 C819 1.390 . S
C821 C822 1.387 . S
C821 H824 0.950 . S
C822 C821 1.387 . S
C822 C825 1.387 . S
H823 C819 0.950 . S
H824 C821 0.950 . S
C825 C816 1.390 . S
C825 H818 0.950 . S
C825 C822 1.387 . S
C826 C827 1.387 . S
C826 H830 0.950 . S
C826 C835 1.390 . S
C827 C826 1.387 . S
C827 C829 1.387 . S
H828 C835 0.950 . S
C829 C827 1.387 . S
C829 C831 1.390 . S
C829 H833 0.950 . S
H830 C826 0.950 . S
C831 C829 1.390 . S
C831 C832 1.387 . S
C831 H834 0.950 . S
C832 C831 1.387 . S
C832 C835 1.387 . S
H833 C829 0.950 . S
H834 C831 0.950 . S
C835 C826 1.390 . S
C835 H828 0.950 . S
C835 C832 1.387 . S
C836 C837 1.387 . S
C836 H840 0.950 . S
C836 C845 1.390 . S
C837 C836 1.387 . S
C837 C839 1.387 . S
H838 C845 0.950 . S
C839 C837 1.387 . S
C839 C841 1.390 . S
C839 H843 0.950 . S
H840 C836 0.950 . S
C841 C839 1.390 . S
C841 C842 1.387 . S
C841 H844 0.950 . S
C842 C841 1.387 . S
C842 C845 1.387 . S
H843 C839 0.950 . S
H844 C841 0.950 . S
C845 C836 1.390 . S
C845 H838 0.950 . S
C845 C842 1.387 . S
C846 C847 1.387 . S
C846 H850 0.950 . S
C846 C855 1.390 . S
C847 C846 1.387 . S
C847 C849 1.387 . S
H848 C855 0.950 . S
C849 C847 1.387 . S
C849 C851 1.390 . S
C849 H853 0.950 . S
H850 C846 0.950 . S
C851 C849 1.390 . S
C851 C852 1.387 . S
C851 H854 0.950 . S
C852 C851 1.387 . S
C852 C855 1.387 . S
H853 C849 0.950 . S
H854 C851 0.950 . S
C855 C846 1.390 . S
C855 H848 0.950 . S
C855 C852 1.387 . S
C856 C857 1.387 1_545 S
C856 H860 0.950 1_554 S
C856 C865 1.390 . S
C857 C856 1.387 1_565 S
C857 C859 1.387 . S
H858 C865 0.950 . S
C859 C857 1.387 . S
C859 C861 1.369 1_565 S
C859 H863 0.950 . S
H860 C856 0.950 1_556 S
C861 C859 1.369 1_545 S
C861 C862 1.412 . S
C861 H864 0.948 1_545 S
C862 C861 1.412 . S
C862 C865 1.387 . S
H863 C859 0.950 . S
H864 C861 0.948 1_565 S
C865 C856 1.390 . S
C865 H858 0.950 . S
C865 C862 1.387 . S
C866 C867 1.387 1_556 S
C866 H870 0.950 . S
C866 C875 1.390 . S
C867 C866 1.387 1_554 S
C867 C869 1.387 . S
H868 C875 0.950 . S
C869 C867 1.387 . S
C869 C871 1.390 . S
C869 H873 0.950 . S
H870 C866 0.950 . S
C871 C869 1.390 . S
C871 C872 1.387 . S
C871 H874 0.950 . S
C872 C871 1.387 . S
C872 C875 1.387 1_554 S
H873 C869 0.950 . S
H874 C871 0.950 . S
C875 C866 1.390 . S
C875 H868 0.950 . S
C875 C872 1.387 1_556 S
C876 C877 1.387 . S
C876 H880 0.950 . S
C876 C885 1.390 1_556 S
C877 C876 1.387 . S
C877 C879 1.387 1_556 S
H878 C885 0.950 . S
C879 C877 1.387 1_554 S
C879 C881 1.390 . S
C879 H883 0.950 . S
H880 C876 0.950 . S
C881 C879 1.390 . S
C881 C882 1.387 . S
C881 H884 0.950 . S
C882 C881 1.387 . S
C882 C885 1.387 . S
H883 C879 0.950 . S
H884 C881 0.950 . S
C885 C876 1.390 1_554 S
C885 H878 0.950 . S
C885 C882 1.387 . S
C886 C887 1.387 1_554 S
C886 H890 0.950 . S
C886 C895 1.390 1_554 S
C887 C886 1.387 1_556 S
C887 C889 1.387 . S
H888 C895 0.950 1_554 S
C889 C887 1.387 . S
C889 C891 1.390 . S
C889 H893 0.950 . S
H890 C886 0.950 . S
C891 C889 1.390 . S
C891 C892 1.387 . S
C891 H894 0.950 . S
C892 C891 1.387 . S
C892 C895 1.387 . S
H893 C889 0.950 . S
H894 C891 0.950 . S
C895 C886 1.390 1_556 S
C895 H888 0.950 1_556 S
C895 C892 1.387 . S
C896 C897 1.387 . S
C896 H900 0.950 . S
C896 C905 1.390 . S
C897 C896 1.387 . S
C897 C899 1.387 1_556 S
H898 C905 0.950 . S
C899 C897 1.387 1_554 S
C899 C901 1.390 1_554 S
C899 H903 0.950 . S
H900 C896 0.950 . S
C901 C899 1.390 1_556 S
C901 C902 1.387 . S
C901 H904 0.950 . S
C902 C901 1.387 . S
C902 C905 1.387 . S
H903 C899 0.950 . S
H904 C901 0.950 . S
C905 C896 1.390 . S
C905 H898 0.950 . S
C905 C902 1.387 . S
C906 C907 1.387 1_556 S
C906 H910 0.950 . S
C906 C915 1.390 . S
C907 C906 1.387 1_554 S
C907 C909 1.387 . S
H908 C915 0.950 . S
C909 C907 1.387 . S
C909 C911 1.390 . S
C909 H913 0.950 . S
H910 C906 0.950 . S
C911 C909 1.390 . S
C911 C912 1.387 1_554 S
C911 H914 0.950 . S
C912 C911 1.387 1_556 S
C912 C915 1.387 . S
H913 C909 0.950 . S
H914 C911 0.950 . S
C915 C906 1.390 . S
C915 H908 0.950 . S
C915 C912 1.387 . S
C916 C917 1.387 . S
C916 H920 0.950 . S
C916 C925 1.390 . S
C917 C916 1.387 . S
C917 C919 1.387 . S
H918 C925 0.950 . S
C919 C917 1.387 . S
C919 C921 1.390 . S
C919 H923 0.950 . S
H920 C916 0.950 . S
C921 C919 1.390 . S
C921 C922 1.387 . S
C921 H924 0.950 . S
C922 C921 1.387 . S
C922 C925 1.387 . S
H923 C919 0.950 . S
H924 C921 0.950 . S
C925 C916 1.390 . S
C925 H918 0.950 . S
C925 C922 1.387 . S
C926 C927 1.387 1_554 S
C926 H930 0.950 . S
C926 C935 1.390 . S
C927 C926 1.387 1_556 S
C927 C929 1.387 . S
H928 C935 0.950 . S
C929 C927 1.387 . S
C929 C931 1.390 . S
C929 H933 0.950 . S
H930 C926 0.950 . S
C931 C929 1.390 . S
C931 C932 1.387 . S
C931 H934 0.950 . S
C932 C931 1.387 . S
C932 C935 1.387 1_556 S
H933 C929 0.950 . S
H934 C931 0.950 . S
C935 C926 1.390 . S
C935 H928 0.950 . S
C935 C932 1.387 1_554 S
C936 C937 1.387 . S
C936 H940 0.950 . S
C936 C945 1.390 . S
C937 C936 1.387 . S
C937 C939 1.387 . S
H938 C945 0.950 . S
C939 C937 1.387 . S
C939 C941 1.390 . S
C939 H943 0.950 . S
H940 C936 0.950 . S
C941 C939 1.390 . S
C941 C942 1.387 . S
C941 H944 0.950 . S
C942 C941 1.387 . S
C942 C945 1.387 . S
H943 C939 0.950 . S
H944 C941 0.950 . S
C945 C936 1.390 . S
C945 H938 0.950 . S
C945 C942 1.387 . S
C946 C947 1.387 . S
C946 H950 0.950 . S
C946 C955 1.390 . S
C947 C946 1.387 . S
C947 C949 1.387 . S
H948 C955 0.950 . S
C949 C947 1.387 . S
C949 C951 1.390 . S
C949 H953 0.950 . S
H950 C946 0.950 . S
C951 C949 1.390 . S
C951 C952 1.387 . S
C951 H954 0.950 . S
C952 C951 1.387 . S
C952 C955 1.387 . S
H953 C949 0.950 . S
H954 C951 0.950 . S
C955 C946 1.390 . S
C955 H948 0.950 . S
C955 C952 1.387 . S
C956 C957 1.387 . S
C956 H960 0.950 . S
C956 C965 1.390 . S
C957 C956 1.387 . S
C957 C959 1.387 . S
H958 C965 0.950 . S
C959 C957 1.387 . S
C959 C961 1.390 . S
C959 H963 0.950 . S
H960 C956 0.950 . S
C961 C959 1.390 . S
C961 C962 1.387 . S
C961 H964 0.950 . S
C962 C961 1.387 . S
C962 C965 1.387 . S
H963 C959 0.950 . S
H964 C961 0.950 . S
C965 C956 1.390 . S
C965 H958 0.950 . S
C965 C962 1.387 . S
C966 C967 1.387 . S
C966 H970 0.950 . S
C966 C975 1.390 . S
C967 C966 1.387 . S
C967 C969 1.387 . S
H968 C975 0.950 . S
C969 C967 1.387 . S
C969 C971 1.390 . S
C969 H973 0.950 . S
H970 C966 0.950 . S
C971 C969 1.390 . S
C971 C972 1.387 . S
C971 H974 0.950 . S
C972 C971 1.387 . S
C972 C975 1.387 . S
H973 C969 0.950 . S
H974 C971 0.950 . S
C975 C966 1.390 . S
C975 H968 0.950 . S
C975 C972 1.387 . S
C976 C977 1.387 . S
C976 H980 0.950 . S
C976 C985 1.390 . S
C977 C976 1.387 . S
C977 C979 1.387 . S
H978 C985 0.950 . S
C979 C977 1.387 . S
C979 C981 1.390 . S
C979 H983 0.950 . S
H980 C976 0.950 . S
C981 C979 1.390 . S
C981 C982 1.387 . S
C981 H984 0.950 . S
C982 C981 1.387 . S
C982 C985 1.387 . S
H983 C979 0.950 . S
H984 C981 0.950 . S
C985 C976 1.390 . S
C985 H978 0.950 . S
C985 C982 1.387 . S
C986 C987 1.387 . S
C986 H990 0.950 . S
C986 C995 1.390 . S
C987 C986 1.387 . S
C987 C989 1.387 . S
H988 C995 0.950 . S
C989 C987 1.387 . S
C989 C991 1.390 . S
C989 H993 0.950 . S
H990 C986 0.950 . S
C991 C989 1.390 . S
C991 C992 1.387 . S
C991 H994 0.950 . S
C992 C991 1.387 . S
C992 C995 1.387 . S
H993 C989 0.950 . S
H994 C991 0.950 . S
C995 C986 1.390 . S
C995 H988 0.950 . S
C995 C992 1.387 . S
C996 C997 1.387 . S
C996 H1000 0.950 . S
C996 C1005 1.390 . S
C997 C996 1.387 . S
C997 C999 1.387 . S
H998 C1005 0.950 . S
C999 C997 1.387 . S
C999 C1001 1.390 . S
C999 H1003 0.950 . S
H1000 C996 0.950 . S
C1001 C999 1.390 . S
C1001 C1002 1.387 . S
C1001 H1004 0.950 . S
C1002 C1001 1.387 . S
C1002 C1005 1.387 . S
H1003 C999 0.950 . S
H1004 C1001 0.950 . S
C1005 C996 1.390 . S
C1005 H998 0.950 . S
C1005 C1002 1.387 . S
C1006 C1007 1.387 . S
C1006 H1010 0.950 . S
C1006 C1015 1.390 . S
C1007 C1006 1.387 . S
C1007 C1009 1.387 . S
H1008 C1015 0.950 . S
C1009 C1007 1.387 . S
C1009 C1011 1.390 . S
C1009 H1013 0.950 . S
H1010 C1006 0.950 . S
C1011 C1009 1.390 . S
C1011 C1012 1.387 . S
C1011 H1014 0.950 . S
C1012 C1011 1.387 . S
C1012 C1015 1.387 . S
H1013 C1009 0.950 . S
H1014 C1011 0.950 . S
C1015 C1006 1.390 . S
C1015 H1008 0.950 . S
C1015 C1012 1.387 . S
C1016 C1017 1.387 . S
C1016 H1020 0.950 . S
C1016 C1025 1.390 . S
C1017 C1016 1.387 . S
C1017 C1019 1.387 . S
H1018 C1025 0.950 . S
C1019 C1017 1.387 . S
C1019 C1021 1.390 . S
C1019 H1023 0.950 . S
H1020 C1016 0.950 . S
C1021 C1019 1.390 . S
C1021 C1022 1.387 . S
C1021 H1024 0.950 . S
C1022 C1021 1.387 . S
C1022 C1025 1.387 . S
H1023 C1019 0.950 . S
H1024 C1021 0.950 . S
C1025 C1016 1.390 . S
C1025 H1018 0.950 . S
C1025 C1022 1.387 . S
C757 C69 1.213 . S
C762 C657 1.266 . S
C767 C140 2.273 . S
C772 C728 2.292 . S
C777 C237 1.231 . S
C782 C560 1.513 . S
C787 C392 2.539 . S
C792 C224 2.568 . S
C797 C476 2.387 . S
C802 C56 2.373 1_655 S
C807 C153 1.906 . S
C812 C308 2.212 . S
C817 C644 1.828 . S
C822 C489 1.686 . S
C827 C741 1.340 . S
C832 C321 1.379 . S
C837 C405 1.977 . S
C842 C573 2.041 . S
C847 C226 1.538 . S
C852 C67 1.947 . S
C857 C142 1.423 . S
C862 C58 1.468 . S
C867 C151 3.079 1_455 S
C872 C235 3.117 1_554 S
C877 C310 1.728 . S
C882 C487 2.285 . S
C887 C319 2.135 1_556 S
C892 C394 1.689 . S
C897 C403 2.238 1_556 S
C902 C478 1.638 . S
C907 C730 1.849 . S
C912 C571 2.458 . S
C917 C646 0.894 . S
C922 C562 0.968 . S
C927 C739 2.138 . S
C932 C655 2.131 . S
C937 C74 1.514 . S
C942 C63 1.514 . S
C947 C147 1.569 . S
C952 C158 1.569 . S
C957 C242 1.642 . S
C962 C231 1.642 . S
C967 C326 1.542 . S
C972 C315 1.542 . S
C977 C410 1.553 . S
C982 C399 1.553 . S
C987 C494 1.573 . S
C992 C483 1.573 . S
C997 C578 1.528 . S
C1002 C567 1.528 . S
C1007 C662 1.511 . S
C1012 C651 1.511 . S
C1017 C746 1.567 . S
C1022 C735 1.567 . S
