# Generated by pormake.
# Topology vcm, (7)-cn, num edge types: 1
# Building blocks:
#     Node 0, Type 0, BuildingBlock: HICVOG_clean_sbu_0, # of connection points: 7
#     Node 1, Type 0, BuildingBlock: HICVOG_clean_sbu_0, # of connection points: 7
#     Node 2, Type 0, BuildingBlock: HICVOG_clean_sbu_0, # of connection points: 7
#     Node 3, Type 0, BuildingBlock: HICVOG_clean_sbu_0, # of connection points: 7
#     Node 4, Type 0, BuildingBlock: HICVOG_clean_sbu_0, # of connection points: 7
#     Node 5, Type 0, BuildingBlock: HICVOG_clean_sbu_0, # of connection points: 7
#     Node 6, Type 0, BuildingBlock: HICVOG_clean_sbu_0, # of connection points: 7
#     Node 7, Type 0, BuildingBlock: HICVOG_clean_sbu_0, # of connection points: 7
#     Edge 8, Type (0, 0), BuildingBlock: AJUNOK_clean_linker_0, # of connection points: 2
#     Edge 9, Type (0, 0), BuildingBlock: AJUNOK_clean_linker_0, # of connection points: 2
#     Edge 10, Type (0, 0), BuildingBlock: AJUNOK_clean_linker_0, # of connection points: 2
#     Edge 11, Type (0, 0), BuildingBlock: AJUNOK_clean_linker_0, # of connection points: 2
#     Edge 12, Type (0, 0), BuildingBlock: AJUNOK_clean_linker_0, # of connection points: 2
#     Edge 13, Type (0, 0), BuildingBlock: AJUNOK_clean_linker_0, # of connection points: 2
#     Edge 14, Type (0, 0), BuildingBlock: AJUNOK_clean_linker_0, # of connection points: 2
#     Edge 15, Type (0, 0), BuildingBlock: AJUNOK_clean_linker_0, # of connection points: 2
#     Edge 16, Type (0, 0), BuildingBlock: AJUNOK_clean_linker_0, # of connection points: 2
#     Edge 17, Type (0, 0), BuildingBlock: AJUNOK_clean_linker_0, # of connection points: 2
#     Edge 18, Type (0, 0), BuildingBlock: AJUNOK_clean_linker_0, # of connection points: 2
#     Edge 19, Type (0, 0), BuildingBlock: AJUNOK_clean_linker_0, # of connection points: 2
#     Edge 20, Type (0, 0), BuildingBlock: AJUNOK_clean_linker_0, # of connection points: 2
#     Edge 21, Type (0, 0), BuildingBlock: AJUNOK_clean_linker_0, # of connection points: 2
#     Edge 22, Type (0, 0), BuildingBlock: AJUNOK_clean_linker_0, # of connection points: 2
#     Edge 23, Type (0, 0), BuildingBlock: AJUNOK_clean_linker_0, # of connection points: 2
#     Edge 24, Type (0, 0), BuildingBlock: AJUNOK_clean_linker_0, # of connection points: 2
#     Edge 25, Type (0, 0), BuildingBlock: AJUNOK_clean_linker_0, # of connection points: 2
#     Edge 26, Type (0, 0), BuildingBlock: AJUNOK_clean_linker_0, # of connection points: 2
#     Edge 27, Type (0, 0), BuildingBlock: AJUNOK_clean_linker_0, # of connection points: 2
#     Edge 28, Type (0, 0), BuildingBlock: AJUNOK_clean_linker_0, # of connection points: 2
#     Edge 29, Type (0, 0), BuildingBlock: AJUNOK_clean_linker_0, # of connection points: 2
#     Edge 30, Type (0, 0), BuildingBlock: AJUNOK_clean_linker_0, # of connection points: 2
#     Edge 31, Type (0, 0), BuildingBlock: AJUNOK_clean_linker_0, # of connection points: 2
#     Edge 32, Type (0, 0), BuildingBlock: AJUNOK_clean_linker_0, # of connection points: 2
#     Edge 33, Type (0, 0), BuildingBlock: AJUNOK_clean_linker_0, # of connection points: 2
#     Edge 34, Type (0, 0), BuildingBlock: AJUNOK_clean_linker_0, # of connection points: 2
#     Edge 35, Type (0, 0), BuildingBlock: AJUNOK_clean_linker_0, # of connection points: 2
# Relax obj value: 0.289
# Max RMSD: 0.261
# Mean RMSD: 0.261
data_MOF--net-vcm--node1-HICVOG_clean_sbu_0--edge1-AJUNOK_clean_linker_0
_symmetry_space_group_name_H-M    P1
_symmetry_Int_Tables_number       1
_symmetry_cell_setting            triclinic
loop_
_symmetry_equiv_pos_as_xyz
'x, y, z'
_cell_length_a     31.810019
_cell_length_b     26.14035
_cell_length_c     18.820248
_cell_angle_alpha  89.856055
_cell_angle_beta   89.95887
_cell_angle_gamma 90.006347
loop_
_atom_site_label
_atom_site_type_symbol
_atom_site_fract_x
_atom_site_fract_y
_atom_site_fract_z
_atom_type_partial_charge
Zn0 Zn 0.02558 0.29592 0.18687 0.0
C1 C 0.07704 0.40126 0.0675 0.0
N2 N 0.06756 0.36982 1.01342 0.0
C3 C 0.05838 0.32589 0.04783 0.0
N4 N 0.06148 0.33053 0.1189 0.0
N5 N 0.07417 0.37772 0.13093 0.0
C6 C 0.08239 0.48668 0.27531 0.0
O7 O 0.05379 0.45516 0.30039 0.0
O8 O 0.02755 0.21892 0.17827 0.0
Zn9 Zn 0.11177 0.39491 0.20716 0.0
N10 N 0.96767 0.32013 0.17389 0.0
C11 C 0.92044 0.3731 0.10867 0.0
C12 C 0.96081 0.35499 0.12134 0.0
C13 C 0.93524 0.30313 0.21528 0.0
N14 N 0.88834 0.35659 0.15005 0.0
C15 C 0.89424 0.32237 0.20374 0.0
O16 O 0.10166 0.35534 0.29726 0.0
C17 C 0.07398 0.32618 0.32438 0.0
O18 O 0.04422 0.30673 0.28821 0.0
H19 H 0.98633 0.36895 0.08914 0.0
H20 H 0.94144 0.27487 0.256 0.0
C21 C 0.20098 0.38772 0.2204 0.0
C22 C 0.24165 0.37099 0.20203 0.0
C23 C 0.21472 0.33902 0.09314 0.0
C24 C 0.1744 0.35386 0.11293 0.0
N25 N 0.16823 0.37791 0.1761 0.0
N26 N 0.24719 0.34752 0.13817 0.0
H27 H 0.19494 0.4081 0.26923 0.0
C28 C 0.06132 0.19692 0.19784 0.0
O29 O 0.09437 0.22523 0.21212 0.0
O30 O 0.10964 0.46986 0.23179 0.0
H31 H 0.1484 0.34558 0.07826 0.0
H32 H 0.91468 0.40058 0.06671 0.0
H33 H 0.22009 0.31996 0.04298 0.0
Zn34 Zn 0.52276 0.61232 0.70476 0.0
C35 C 0.57981 0.68906 0.55207 0.0
N36 N 0.57171 0.64784 0.51208 0.0
C37 C 0.55992 0.61276 0.56045 0.0
N38 N 0.55994 0.63216 0.6271 0.0
N39 N 0.57367 0.67979 0.6218 0.0
C40 C 0.57977 0.80861 0.70524 0.0
O41 O 0.54457 0.78326 0.71517 0.0
O42 O 0.52815 0.53779 0.73396 0.0
Zn43 Zn 0.61087 0.70738 0.69299 0.0
N44 N 0.46576 0.62715 0.67243 0.0
C45 C 0.42144 0.66804 0.58772 0.0
C46 C 0.46125 0.65423 0.61104 0.0
C47 C 0.4316 0.61367 0.71195 0.0
N48 N 0.38757 0.65542 0.6276 0.0
C49 C 0.39104 0.62864 0.68947 0.0
O50 O 0.5922 0.6944 0.79396 0.0
C51 C 0.55984 0.67812 0.82687 0.0
O52 O 0.53121 0.65235 0.79612 0.0
H53 H 0.4882 0.66594 0.58054 0.0
H54 H 0.43637 0.5922 0.76044 0.0
C55 C 0.70139 0.69726 0.71381 0.0
C56 C 0.74176 0.67838 0.69712 0.0
C57 C 0.71181 0.62658 0.60704 0.0
C58 C 0.67207 0.64484 0.62416 0.0
N59 N 0.66741 0.68031 0.67641 0.0
N60 N 0.74555 0.64359 0.64384 0.0
H61 H 0.69703 0.72526 0.75543 0.0
C62 C 0.55933 0.52229 0.77042 0.0
O63 O 0.58948 0.55479 0.7857 0.0
O64 O 0.61281 0.78411 0.68836 0.0
H65 H 0.64532 0.63064 0.59544 0.0
H66 H 0.4175 0.68962 0.53903 0.0
H67 H 0.71582 0.59871 0.56518 0.0
Zn68 Zn 0.02316 0.71257 0.87587 0.0
C69 C 0.07516 0.61821 1.00953 0.0
N70 N 0.06334 0.65314 0.05781 0.0
C71 C 0.05453 0.69419 1.01761 0.0
N72 N 0.06027 0.68496 0.94783 0.0
N73 N 0.07444 0.6375 0.94274 0.0
C74 C 0.07586 0.5238 0.79923 0.0
O75 O 0.04544 0.55448 0.77885 0.0
O76 O 1.01939 0.78918 0.87957 0.0
Zn77 Zn 0.11017 0.61617 0.86409 0.0
N78 N 0.96713 0.68374 0.88997 0.0
C79 C 0.9227 0.6267 0.95422 0.0
C80 C 0.96229 0.64705 0.94073 0.0
C81 C 0.93362 0.70033 0.85107 0.0
N82 N 0.88947 0.64282 0.91518 0.0
C83 C 0.89355 0.67879 0.8632 0.0
O84 O 0.10153 0.65459 0.7715 0.0
C85 C 0.07367 0.68197 0.74143 0.0
O86 O 0.04275 0.70075 0.77541 0.0
H87 H 0.98877 0.63362 0.97106 0.0
H88 H 0.93827 0.73012 0.81185 0.0
C89 C 0.19998 0.61556 0.85017 0.0
C90 C 0.24132 0.63088 0.86671 0.0
C91 C 0.21563 0.67115 0.97116 0.0
C92 C 0.17473 0.65806 0.95262 0.0
N93 N 0.16763 0.63043 0.89265 0.0
N94 N 0.24774 0.65781 0.92762 0.0
H95 H 0.19306 0.59252 0.80406 0.0
C96 C 0.0526 0.81559 0.87153 0.0
O97 O 0.08933 0.79265 0.87236 0.0
O98 O 0.10501 0.54134 0.8384 0.0
H99 H 0.14897 0.67055 0.98554 0.0
H100 H 0.91845 0.59787 0.99494 0.0
H101 H 0.22177 0.69289 1.01889 0.0
Zn102 Zn 0.61201 0.29449 0.38057 0.0
C103 C 0.55743 0.39627 0.50068 0.0
N104 N 0.56749 0.36463 0.55445 0.0
C105 C 0.57772 0.32134 0.51963 0.0
N106 N 0.57483 0.32662 0.44859 0.0
N107 N 0.56107 0.37345 0.43702 0.0
C108 C 0.55053 0.48066 0.2928 0.0
O109 O 0.57984 0.44949 0.26951 0.0
O110 O 0.61 0.2174 0.38662 0.0
Zn111 Zn 0.52232 0.38869 0.36176 0.0
N112 N 0.66965 0.31871 0.3979 0.0
C113 C 0.71487 0.37018 0.46904 0.0
C114 C 0.67492 0.35275 0.4518 0.0
C115 C 0.70339 0.30234 0.35911 0.0
N116 N 0.74829 0.35382 0.43083 0.0
C117 C 0.74409 0.3204 0.37598 0.0
O118 O 0.53341 0.3488 0.27242 0.0
C119 C 0.56298 0.32335 0.24383 0.0
O120 O 0.59482 0.30746 0.27853 0.0
H121 H 0.64845 0.36668 0.48157 0.0
H122 H 0.69856 0.27557 0.31612 0.0
C123 C 0.43191 0.38247 0.3565 0.0
C124 C 0.39187 0.36531 0.37864 0.0
C125 C 0.42364 0.32571 0.47898 0.0
C126 C 0.46296 0.34191 0.45601 0.0
N127 N 0.4665 0.36984 0.39524 0.0
N128 N 0.38932 0.33733 0.43964 0.0
H129 H 0.43601 0.40522 0.30897 0.0
C130 C 0.57574 0.1957 0.36909 0.0
O131 O 0.54247 0.22414 0.3568 0.0
O132 O 0.52292 0.46359 0.33564 0.0
H133 H 0.49031 0.33166 0.48631 0.0
H134 H 0.71929 0.39701 0.51207 0.0
H135 H 0.42044 0.30332 0.52713 0.0
Zn136 Zn 0.52323 0.79571 0.1931 0.0
C137 C 0.57472 0.89104 0.06034 0.0
N138 N 0.56355 0.85592 1.01189 0.0
C139 C 0.55509 0.8147 0.05198 0.0
N140 N 0.56039 0.82404 0.12182 0.0
N141 N 0.57398 0.87174 0.12712 0.0
C142 C 0.57316 0.984 0.27287 0.0
O143 O 0.5446 0.95112 0.29436 0.0
O144 O 0.52017 0.71906 0.18752 0.0
Zn145 Zn 0.60926 0.89373 0.20608 0.0
N146 N 0.467 0.82414 0.17895 0.0
C147 C 0.42235 0.88016 0.1135 0.0
C148 C 0.462 0.86017 0.12733 0.0
C149 C 0.43356 0.80793 0.21845 0.0
N150 N 0.38919 0.86439 0.15305 0.0
C151 C 0.39341 0.82912 0.2059 0.0
O152 O 0.60084 0.8545 0.29816 0.0
C153 C 0.5733 0.82638 0.32789 0.0
O154 O 0.54263 0.80721 0.29375 0.0
H155 H 0.48839 0.87335 0.09654 0.0
H156 H 0.4383 0.77873 0.25847 0.0
C157 C 0.69919 0.89499 0.22094 0.0
C158 C 0.74069 0.88039 0.20408 0.0
C159 C 0.71556 0.84173 0.09815 0.0
C160 C 0.67453 0.85411 0.11687 0.0
N161 N 0.66705 0.88065 0.17769 0.0
N162 N 0.74744 0.85461 0.14231 0.0
H163 H 0.692 0.91706 0.26786 0.0
C164 C 0.55318 0.69379 0.20222 0.0
O165 O 0.58894 0.71836 0.20962 0.0
O166 O 0.60261 0.96855 0.23251 0.0
H167 H 0.64899 0.84188 0.08338 0.0
H168 H 0.41799 0.90844 0.07208 0.0
H169 H 0.72197 0.82088 0.04975 0.0
Zn170 Zn 1.02153 0.11961 0.70699 0.0
C171 C 0.07754 0.18602 0.54828 0.0
N172 N 0.06727 0.14255 0.5139 0.0
C173 C 0.05664 0.11142 0.56796 0.0
N174 N 0.05998 0.13474 0.63127 0.0
N175 N 0.07406 0.18136 0.61935 0.0
C176 C 0.07764 0.31255 0.70135 0.0
O177 O 0.04363 0.28556 0.71426 0.0
O178 O 1.02264 0.0446 0.73288 0.0
Zn179 Zn 0.11161 0.21273 0.68713 0.0
N180 N 0.96569 0.13824 0.67359 0.0
C181 C 0.92292 0.18249 0.58995 0.0
C182 C 0.96222 0.16633 0.61294 0.0
C183 C 0.93105 0.1255 0.71225 0.0
N184 N 0.88855 0.17076 0.6292 0.0
C185 C 0.89104 0.14268 0.69011 0.0
O186 O 0.09444 0.20029 0.78928 0.0
C187 C 0.06244 0.18511 0.82426 0.0
O188 O 0.03259 0.15997 0.79603 0.0
H189 H 0.98962 0.17679 0.58279 0.0
H190 H 0.93511 0.1027 0.75973 0.0
C191 C 0.20272 0.20428 0.70815 0.0
C192 C 0.24332 0.18582 0.69157 0.0
C193 C 0.21392 0.13521 0.5996 0.0
C194 C 0.17403 0.15301 0.61663 0.0
N195 N 0.16893 0.18765 0.66983 0.0
N196 N 0.24741 0.15181 0.63739 0.0
H197 H 0.19799 0.23156 0.75058 0.0
C198 C 0.04859 0.02823 0.77902 0.0
O199 O 0.07547 0.06054 0.80708 0.0
O200 O 0.11081 0.28964 0.68109 0.0
H201 H 0.14748 0.13893 0.58725 0.0
H202 H 0.91977 0.20498 0.54189 0.0
H203 H 0.21824 0.10792 0.55711 0.0
Zn204 Zn 0.52447 0.21224 0.88087 0.0
C205 C 0.57578 0.10772 1.00115 0.0
N206 N 0.56626 0.13941 0.05494 0.0
C207 C 0.55715 0.18318 1.02013 0.0
N208 N 0.56039 0.17821 0.94912 0.0
N209 N 0.57307 0.13096 0.93751 0.0
C210 C 0.58145 0.02176 0.79361 0.0
O211 O 0.55264 0.05315 0.76901 0.0
O212 O 0.52599 0.28913 0.88956 0.0
Zn213 Zn 0.61084 0.11352 0.86154 0.0
N214 N 0.4667 0.18757 0.89367 0.0
C215 C 0.41954 0.1345 0.95902 0.0
C216 C 0.45986 0.15285 0.94642 0.0
C217 C 0.4343 0.20423 0.85203 0.0
N218 N 0.38746 0.1507 0.91744 0.0
C219 C 0.39335 0.18481 0.86358 0.0
O220 O 0.60097 0.15279 0.7712 0.0
C221 C 0.57337 0.18188 0.74381 0.0
O222 O 0.54351 0.2014 0.77974 0.0
H223 H 0.48536 0.13921 0.97886 0.0
H224 H 0.44046 0.23238 0.81115 0.0
C225 C 0.70004 0.12059 0.84841 0.0
C226 C 0.74069 0.13731 0.86674 0.0
C227 C 0.7137 0.16944 0.97554 0.0
C228 C 0.67339 0.15461 0.95579 0.0
N229 N 0.66726 0.13049 0.89267 0.0
N230 N 0.7462 0.16087 0.93053 0.0
H231 H 0.69402 0.10015 0.79962 0.0
C232 C 0.55997 0.31138 0.87166 0.0
O233 O 0.59336 0.28337 0.8585 0.0
O234 O 0.60875 0.03859 0.83696 0.0
H235 H 0.64735 0.16292 0.99044 0.0
H236 H 0.4138 0.10712 1.00112 0.0
H237 H 0.71903 0.18857 1.02565 0.0
Zn238 Zn 0.11053 0.80146 0.37577 0.0
C239 C 0.0588 0.89494 0.50963 0.0
N240 N 0.07071 0.85967 0.55762 0.0
C241 C 0.07938 0.81888 0.51716 0.0
N242 N 0.07338 0.82856 0.44752 0.0
N243 N 0.05927 0.87606 0.44268 0.0
C244 C 0.05966 0.98637 0.30111 0.0
O245 O 0.09044 0.95418 0.28826 0.0
O246 O 0.11288 0.72471 0.3797 0.0
Zn247 Zn 1.02206 0.89609 0.36518 0.0
N248 N 0.16694 0.82893 0.39213 0.0
C249 C 0.21089 0.88367 0.46068 0.0
C250 C 0.17128 0.86494 0.44373 0.0
C251 C 0.20112 0.81181 0.3553 0.0
N252 N 0.24482 0.86653 0.4244 0.0
C253 C 0.24136 0.83114 0.37182 0.0
O254 O 0.03025 0.85599 0.27387 0.0
C255 C 0.05898 0.83062 0.24265 0.0
O256 O 0.0916 0.81471 0.27504 0.0
H257 H 0.14437 0.87918 0.47207 0.0
H258 H 0.19699 0.78332 0.31426 0.0
C259 C 0.93085 0.89558 0.35892 0.0
C260 C 0.89026 0.88062 0.38142 0.0
C261 C 0.92071 0.8401 0.48222 0.0
C262 C 0.96053 0.85379 0.45875 0.0
N263 N 0.96504 0.88144 0.39784 0.0
N264 N 0.8868 0.8533 0.44286 0.0
H265 H 0.93566 0.91752 0.31084 0.0
C266 C 0.07987 0.69992 0.36349 0.0
O267 O 0.04442 0.72491 0.35465 0.0
O268 O 0.0277 0.97063 0.33548 0.0
H269 H 0.9875 0.84151 0.48871 0.0
H270 H 0.21466 0.912 0.502 0.0
H271 H 0.91676 0.8181 0.53057 0.0
C272 C 0.3187 0.38221 0.21996 0.0
C273 C 0.27849 0.37624 0.25004 0.0
C274 C 0.35508 0.38079 0.26173 0.0
C275 C 0.35293 0.37377 0.33592 0.0
H276 H 0.32229 0.38654 0.163 0.0
H277 H 0.38496 0.38285 0.23449 0.0
S278 S 0.25502 0.35761 0.44189 0.0
N279 N 0.23864 0.3628 0.35906 0.0
N280 N 0.30661 0.36328 0.43815 0.0
C281 C 0.31268 0.36971 0.36713 0.0
C282 C 0.27561 0.37029 0.32428 0.0
C283 C 0.31829 0.61726 0.84957 0.0
C284 C 0.27798 0.62148 0.81921 0.0
C285 C 0.35467 0.61679 0.80759 0.0
C286 C 0.35241 0.62002 0.73298 0.0
H287 H 0.32199 0.6163 0.90679 0.0
H288 H 0.38464 0.61672 0.83468 0.0
S289 S 0.25441 0.62832 0.6259 0.0
N290 N 0.23807 0.62782 0.70906 0.0
N291 N 0.30604 0.62358 0.63013 0.0
C292 C 0.31212 0.62139 0.70161 0.0
C293 C 0.27505 0.62283 0.74452 0.0
C294 C 0.77877 0.69171 0.81312 0.0
C295 C 0.77993 0.69168 0.73848 0.0
C296 C 0.81601 0.69136 0.85301 0.0
C297 C 0.85581 0.69142 0.81997 0.0
H298 H 0.7491 0.68819 0.84096 0.0
H299 H 0.81359 0.68838 0.91031 0.0
S300 S 0.87548 0.69832 0.62569 0.0
N301 N 0.82378 0.69748 0.63303 0.0
N302 N 0.89374 0.69609 0.70772 0.0
C303 C 0.85729 0.69537 0.74542 0.0
C304 C 0.81934 0.69559 0.70483 0.0
C305 C 0.81704 0.30766 0.21752 0.0
C306 C 0.85727 0.30927 0.24898 0.0
C307 C 0.78025 0.30688 0.25876 0.0
C308 C 0.78219 0.30796 0.33336 0.0
H309 H 0.81385 0.30965 0.16026 0.0
H310 H 0.75025 0.30915 0.23177 0.0
S311 S 0.87936 0.30582 0.44266 0.0
N312 N 0.89654 0.30751 0.3599 0.0
N313 N 0.82757 0.30487 0.43721 0.0
C314 C 0.82216 0.30569 0.36556 0.0
C315 C 0.85966 0.30654 0.32355 0.0
C316 C 0.85386 0.89441 0.26376 0.0
C317 C 0.85158 0.88974 0.33825 0.0
C318 C 0.81752 0.89446 0.22179 0.0
C319 C 0.77721 0.88931 0.25197 0.0
H320 H 0.88381 0.89523 0.23661 0.0
H321 H 0.82126 0.89654 0.16462 0.0
S322 S 0.7535 0.87864 0.44495 0.0
N323 N 0.80511 0.88388 0.44092 0.0
N324 N 0.73723 0.88059 0.36182 0.0
C325 C 0.77422 0.88654 0.32658 0.0
C326 C 0.81126 0.88747 0.36954 0.0
C327 C 0.81774 0.12594 0.84881 0.0
C328 C 0.77756 0.13195 0.81874 0.0
C329 C 0.85415 0.12726 0.80703 0.0
C330 C 0.85206 0.13423 0.73284 0.0
H331 H 0.82128 0.12166 0.90578 0.0
H332 H 0.88401 0.12519 0.83426 0.0
S333 S 0.75426 0.15046 0.62687 0.0
N334 N 0.73781 0.14536 0.70971 0.0
N335 N 0.80584 0.14471 0.6306 0.0
C336 C 0.81185 0.13832 0.70162 0.0
C337 C 0.77474 0.13784 0.74449 0.0
C338 C 0.31619 0.19947 0.84975 0.0
C339 C 0.35643 0.19766 0.81825 0.0
C340 C 0.27943 0.20004 0.80854 0.0
C341 C 0.28141 0.1985 0.73396 0.0
H342 H 0.31298 0.19781 0.90703 0.0
H343 H 0.24941 0.19796 0.83557 0.0
S344 S 0.3786 0.19999 0.62453 0.0
N345 N 0.39576 0.19881 0.70728 0.0
N346 N 0.32682 0.20094 0.63001 0.0
C347 C 0.32139 0.20055 0.70167 0.0
C348 C 0.35886 0.19997 0.74365 0.0
C349 C 0.27868 0.81601 0.25638 0.0
C350 C 0.27974 0.8176 0.33099 0.0
C351 C 0.31596 0.8159 0.2165 0.0
C352 C 0.35572 0.81691 0.24955 0.0
H353 H 0.24902 0.81862 0.22836 0.0
H354 H 0.3136 0.81767 0.15911 0.0
S355 S 0.37527 0.81441 0.44397 0.0
N356 N 0.32356 0.81453 0.43662 0.0
N357 N 0.39358 0.81504 0.36187 0.0
C358 C 0.35715 0.81457 0.3242 0.0
C359 C 0.31916 0.81483 0.36478 0.0
C360 C 0.04632 0.61397 0.35118 0.0
C361 C 0.08222 0.64502 0.34478 0.0
C362 C 0.04681 0.56275 0.32912 0.0
C363 C 0.08294 0.54092 0.29835 0.0
H364 H 1.01756 0.62937 0.37337 0.0
H365 H 1.01837 0.54037 0.33524 0.0
S366 S 0.18502 0.60646 0.26832 0.0
N367 N 0.15493 0.65041 0.30534 0.0
N368 N 0.15564 0.55458 0.26266 0.0
C369 C 0.11905 0.57167 0.29142 0.0
C370 C 0.11877 0.62356 0.31506 0.0
C371 C 0.52295 0.38955 0.82696 0.0
C372 C 0.55997 0.36643 0.85239 0.0
C373 C 0.52319 0.43969 0.80012 0.0
C374 C 0.56029 0.4691 0.79871 0.0
H375 H 0.49377 0.36821 0.82554 0.0
H376 H 0.49394 0.45545 0.78032 0.0
S377 S 0.66524 0.42697 0.86258 0.0
N378 N 0.63446 0.37707 0.87643 0.0
N379 N 0.63489 0.47155 0.82737 0.0
C380 C 0.59733 0.44681 0.82572 0.0
C381 C 0.59716 0.39547 0.85216 0.0
C382 C 0.04107 0.44707 0.74528 0.0
C383 C 0.0774 0.47014 0.77347 0.0
C384 C 0.04166 0.39645 0.72055 0.0
C385 C 0.07881 0.36728 0.72156 0.0
H386 H 1.01169 0.46797 0.74328 0.0
H387 H 1.01272 0.37996 0.7007 0.0
S388 S 0.18273 0.40971 0.78899 0.0
N389 N 0.15176 0.45967 0.80051 0.0
N390 N 0.15294 0.36509 0.7529 0.0
C391 C 0.11556 0.39008 0.74842 0.0
C392 C 0.11481 0.4413 0.77477 0.0
C393 C 0.58654 0.60775 0.21542 0.0
C394 C 0.55065 0.63884 0.22125 0.0
C395 C 0.58603 0.55661 0.2381 0.0
C396 C 0.54985 0.53481 0.26892 0.0
H397 H 0.61538 0.62309 0.1933 0.0
H398 H 0.61451 0.53428 0.23245 0.0
S399 S 0.44769 0.60036 0.29759 0.0
N400 N 0.47785 0.64424 0.26023 0.0
N401 N 0.47707 0.5485 0.304 0.0
C402 C 0.51371 0.56554 0.27522 0.0
C403 C 0.51403 0.6174 0.25099 0.0
C404 C 0.61001 0.06708 0.29605 0.0
C405 C 0.57299 0.03756 0.29934 0.0
C406 C 0.61111 0.11744 0.32168 0.0
C407 C 0.57503 0.14067 0.35038 0.0
H408 H 0.63853 0.05117 0.2737 0.0
H409 H 0.64016 0.13882 0.31688 0.0
S410 S 0.47041 0.0801 0.37281 0.0
N411 N 0.49956 0.03521 0.33573 0.0
N412 N 0.50151 0.13022 0.38208 0.0
C413 C 0.53791 0.11164 0.35451 0.0
C414 C 0.53693 0.06004 0.32952 0.0
C415 C 0.08015 0.90501 0.87292 0.0
C416 C 0.04978 0.86984 0.84983 0.0
C417 C 0.07934 0.95608 0.84989 0.0
C418 C 0.04861 0.97371 0.80171 0.0
H419 H 0.10462 0.89302 0.90934 0.0
H420 H 0.10326 0.9818 0.86979 0.0
S421 S 0.96436 0.89483 0.72016 0.0
N422 N 0.98942 0.85498 0.77353 0.0
N423 N 0.98828 0.95052 0.72891 0.0
C424 C 1.01856 0.93838 0.77701 0.0
C425 C 1.01902 0.88659 0.80145 0.0
C426 C 0.54546 0.89396 0.71955 0.0
C427 C 0.58187 0.8636 0.72358 0.0
C428 C 0.54575 0.94517 0.74166 0.0
C429 C 0.58222 0.96765 0.77019 0.0
H430 H 0.51642 0.878 0.69927 0.0
H431 H 0.51691 0.96699 0.73749 0.0
S432 S 0.68587 0.90438 0.79271 0.0
N433 N 0.65555 0.85978 0.75781 0.0
N434 N 0.65589 0.95559 0.80063 0.0
C435 C 0.61889 0.93768 0.7745 0.0
C436 C 0.61879 0.88583 0.75077 0.0
C437 C 0.02371 0.11826 0.23989 0.0
C438 C 0.06125 0.14191 0.21766 0.0
C439 C 0.02361 0.06824 0.26726 0.0
C440 C 0.06093 0.03947 0.27245 0.0
H441 H 0.99428 0.13908 0.23835 0.0
H442 H 0.99393 0.05206 0.28445 0.0
S443 S 0.1674 0.08311 0.21823 0.0
N444 N 0.13657 0.13237 0.20084 0.0
N445 N 0.1364 0.0382 0.25099 0.0
C446 C 0.09856 0.06228 0.24872 0.0
C447 C 0.09871 0.11348 0.2217 0.0
C448 C 1.0187 0.27359 0.96179 0.0
C449 C 0.05234 0.27778 1.00956 0.0
C450 C 1.02008 0.23837 0.90583 0.0
C451 C 0.05587 0.20778 0.89479 0.0
H452 H 0.99275 0.30039 0.96438 0.0
H453 H 0.99494 0.23884 0.86701 0.0
S454 S 0.14989 0.20057 1.0102 0.0
N455 N 0.11995 0.24458 0.04759 0.0
N456 N 0.1236 0.1801 0.94009 0.0
C457 C 0.0882 0.20892 0.94537 0.0
C458 C 0.08614 0.2436 1.00356 0.0
C459 C 0.62028 0.74559 0.47227 0.0
C460 C 0.58609 0.73936 0.51882 0.0
C461 C 0.61795 0.77954 0.41446 0.0
C462 C 0.58079 0.80692 0.40043 0.0
H463 H 0.64722 0.72038 0.47633 0.0
H464 H 0.64352 0.77998 0.37637 0.0
S465 S 0.48532 0.80994 0.51297 0.0
N466 N 0.51674 0.76881 0.55327 0.0
N467 N 0.51148 0.83086 0.44279 0.0
C468 C 0.54813 0.80475 0.4505 0.0
C469 C 0.55107 0.77142 0.51044 0.0
C470 C 0.08576 0.80672 0.12264 0.0
C471 C 0.05172 0.8109 0.17005 0.0
C472 C 0.08363 0.7744 0.06333 0.0
C473 C 0.04781 0.74433 0.05066 0.0
H474 H 0.11535 0.82532 0.13463 0.0
H475 H 0.11196 0.76824 1.03246 0.0
S476 S 0.94838 0.7466 0.15272 0.0
N477 N 0.97913 0.7876 0.19453 0.0
N478 N 0.9761 0.72506 0.08484 0.0
C479 C 1.01226 0.752 0.09337 0.0
C480 C 1.01398 0.7858 0.15281 0.0
C481 C 0.6177 0.27051 0.60715 0.0
C482 C 0.58486 0.27313 0.55753 0.0
C483 C 0.61619 0.23551 0.66359 0.0
C484 C 0.58109 0.20352 0.67305 0.0
H485 H 0.64281 0.29852 0.60577 0.0
H486 H 0.64044 0.23727 0.70396 0.0
S487 S 0.48982 0.19144 0.55258 0.0
N488 N 0.51919 0.23652 0.51606 0.0
N489 N 0.51523 0.17258 0.62458 0.0
C490 C 0.54986 0.20288 0.62066 0.0
C491 C 0.55209 0.23731 0.56199 0.0
C492 C 0.58479 0.73497 1.00567 0.0
C493 C 0.54874 0.76451 1.01887 0.0
C494 C 0.58696 0.70261 0.94638 0.0
C495 C 0.55274 0.69786 0.89953 0.0
H496 H 0.61318 0.74155 0.03614 0.0
H497 H 0.61667 0.68443 0.93398 0.0
S498 S 0.44886 0.76067 0.91834 0.0
N499 N 0.47669 0.78271 0.98573 0.0
N500 N 0.47982 0.72007 0.87614 0.0
C501 C 0.51485 0.72244 0.9173 0.0
C502 C 0.51308 0.75629 0.97669 0.0
C503 C 0.11748 0.23569 0.45929 0.0
C504 C 0.08507 0.23394 0.50984 0.0
C505 C 0.1162 0.27089 0.40309 0.0
C506 C 0.08172 0.304 0.39479 0.0
H507 H 0.14206 0.20698 0.45989 0.0
H508 H 0.14007 0.26855 0.36208 0.0
S509 S 0.99171 0.31831 0.5177 0.0
N510 N 1.02048 0.27229 0.55322 0.0
N511 N 1.01687 0.33664 0.44512 0.0
C512 C 0.05092 0.30534 0.44797 0.0
C513 C 0.05297 0.27068 0.50641 0.0
C514 C 0.51797 0.23622 0.10594 0.0
C515 C 0.55154 0.23152 0.05803 0.0
C516 C 0.51985 0.27125 0.16208 0.0
C517 C 0.55603 0.30113 0.17315 0.0
H518 H 0.49172 0.20985 0.1034 0.0
H519 H 0.49474 0.27109 0.20104 0.0
S520 S 0.65 0.30704 0.05727 0.0
N521 N 0.6195 0.26365 1.01981 0.0
N522 N 0.62402 0.32778 0.12762 0.0
C523 C 0.58827 0.2996 0.12236 0.0
C524 C 0.58573 0.26512 0.064 0.0
C525 C 0.1203 0.76223 0.59597 0.0
C526 C 0.08593 0.76846 0.54987 0.0
C527 C 0.11813 0.72842 0.65397 0.0
C528 C 0.08098 0.70118 0.66866 0.0
H529 H 0.14724 0.78742 0.59149 0.0
H530 H 0.14384 0.72803 0.69173 0.0
S531 S 0.98512 0.69801 0.55727 0.0
N532 N 1.01644 0.73901 0.51641 0.0
N533 N 1.0115 0.67722 0.62723 0.0
C534 C 0.04815 0.70326 0.61895 0.0
C535 C 0.05092 0.73644 0.55882 0.0
C536 C 0.10948 0.47865 1.01107 0.0
C537 C 0.08057 0.4569 0.05892 0.0
C538 C 0.10914 0.53155 0.99705 0.0
C539 C 0.07885 0.5635 1.02828 0.0
H540 H 0.13223 0.45465 0.9842 0.0
H541 H 0.1326 0.5474 0.96179 0.0
S542 S 0.9955 0.52396 0.15545 0.0
N543 N 1.02117 0.47072 0.13737 0.0
N544 N 1.01943 0.56929 0.10957 0.0
C545 C 0.05032 0.54194 0.07714 0.0
C546 C 0.05127 0.48869 0.0924 0.0
C547 C 0.52612 0.52595 0.57339 0.0
C548 C 0.55615 0.55814 0.54168 0.0
C549 C 0.52553 0.4732 0.5587 0.0
C550 C 0.55391 0.45185 0.50974 0.0
H551 H 0.50299 0.54155 0.60935 0.0
H552 H 0.503 0.44898 0.58589 0.0
S553 S 0.63826 0.51964 0.41183 0.0
N554 N 0.61485 0.56455 0.45892 0.0
N555 N 0.61262 0.46632 0.42992 0.0
C556 C 0.58297 0.48391 0.47588 0.0
C557 C 0.58419 0.53698 0.49182 0.0
C558 C 0.60798 0.97802 0.07309 0.0
C559 C 0.57804 0.94574 0.04162 0.0
C560 C 0.60818 0.03084 0.0586 0.0
C561 C 0.57942 0.05218 1.01024 0.0
H562 H 0.63127 0.9625 0.10888 0.0
H563 H 0.63071 0.0551 0.0855 0.0
S564 S 0.49486 0.98426 0.91377 0.0
N565 N 0.51887 0.93924 0.96006 0.0
N566 N 0.52028 0.03772 0.93159 0.0
C567 C 0.55033 0.0201 0.97682 0.0
C568 C 0.54957 0.96692 0.99244 0.0
C569 C 0.02476 0.03453 0.51009 0.0
C570 C 0.05266 0.05584 0.55976 0.0
C571 C 0.02516 0.98171 0.496 0.0
C572 C 0.05456 0.9494 0.52902 0.0
H573 H 1.00284 0.05883 0.48173 0.0
H574 H 1.00244 0.96618 0.45933 0.0
S575 S 0.13473 0.98759 0.66229 0.0
N576 N 0.10989 0.04113 0.64239 0.0
N577 N 0.11173 0.94271 0.61464 0.0
C578 C 0.08187 0.97046 0.58005 0.0
C579 C 0.08085 0.02363 0.59532 0.0
loop_
_geom_bond_atom_site_label_1
_geom_bond_atom_site_label_2
_geom_bond_distance
_geom_bond_site_symmetry_2
_ccdc_geom_bond_type
Zn0 N4 2.020 . S
Zn0 O8 2.019 . S
Zn0 N10 2.119 1_455 S
Zn0 O18 1.975 . S
C1 N2 1.334 . S
C1 N5 1.336 . S
N2 C1 1.334 . S
N2 C3 1.334 . S
C3 N2 1.334 . S
C3 N4 1.336 . S
N4 Zn0 2.020 . S
N4 C3 1.336 . S
N4 N5 1.354 . S
N5 C1 1.336 . S
N5 N4 1.354 . S
N5 Zn9 2.020 . S
C6 O7 1.244 . S
C6 O30 1.257 . S
O7 C6 1.244 . S
O8 Zn0 2.019 . S
O8 C28 1.257 . S
Zn9 N5 2.020 . S
Zn9 O16 1.975 . S
Zn9 N25 2.119 . S
Zn9 O30 2.019 . S
N10 Zn0 2.119 1_655 S
N10 C12 1.334 . S
N10 C13 1.328 . S
C11 C12 1.391 . S
C11 N14 1.329 . S
C11 H32 0.930 . S
C12 N10 1.334 . S
C12 C11 1.391 . S
C12 H19 0.930 . S
C13 N10 1.328 . S
C13 C15 1.392 . S
C13 H20 0.930 . S
N14 C11 1.329 . S
N14 C15 1.331 . S
C15 C13 1.392 . S
C15 N14 1.331 . S
O16 Zn9 1.975 . S
O16 C17 1.252 . S
C17 O16 1.252 . S
C17 O18 1.252 . S
O18 Zn0 1.975 . S
O18 C17 1.252 . S
H19 C12 0.930 . S
H20 C13 0.930 . S
C21 C22 1.392 . S
C21 N25 1.328 . S
C21 H27 0.930 . S
C22 C21 1.392 . S
C22 N26 1.331 . S
C23 C24 1.391 . S
C23 N26 1.329 . S
C23 H33 0.930 . S
C24 C23 1.391 . S
C24 N25 1.334 . S
C24 H31 0.930 . S
N25 Zn9 2.119 . S
N25 C21 1.328 . S
N25 C24 1.334 . S
N26 C22 1.331 . S
N26 C23 1.329 . S
H27 C21 0.930 . S
C28 O8 1.257 . S
C28 O29 1.244 . S
O29 C28 1.244 . S
O30 C6 1.257 . S
O30 Zn9 2.019 . S
H31 C24 0.930 . S
H32 C11 0.930 . S
H33 C23 0.930 . S
Zn34 N38 2.020 . S
Zn34 O42 2.019 . S
Zn34 N44 2.119 . S
Zn34 O52 1.975 . S
C35 N36 1.334 . S
C35 N39 1.336 . S
N36 C35 1.334 . S
N36 C37 1.334 . S
C37 N36 1.334 . S
C37 N38 1.336 . S
N38 Zn34 2.020 . S
N38 C37 1.336 . S
N38 N39 1.354 . S
N39 C35 1.336 . S
N39 N38 1.354 . S
N39 Zn43 2.020 . S
C40 O41 1.244 . S
C40 O64 1.257 . S
O41 C40 1.244 . S
O42 Zn34 2.019 . S
O42 C62 1.257 . S
Zn43 N39 2.020 . S
Zn43 O50 1.975 . S
Zn43 N59 2.119 . S
Zn43 O64 2.019 . S
N44 Zn34 2.119 . S
N44 C46 1.334 . S
N44 C47 1.328 . S
C45 C46 1.391 . S
C45 N48 1.329 . S
C45 H66 0.930 . S
C46 N44 1.334 . S
C46 C45 1.391 . S
C46 H53 0.930 . S
C47 N44 1.328 . S
C47 C49 1.392 . S
C47 H54 0.930 . S
N48 C45 1.329 . S
N48 C49 1.331 . S
C49 C47 1.392 . S
C49 N48 1.331 . S
O50 Zn43 1.975 . S
O50 C51 1.252 . S
C51 O50 1.252 . S
C51 O52 1.252 . S
O52 Zn34 1.975 . S
O52 C51 1.252 . S
H53 C46 0.930 . S
H54 C47 0.930 . S
C55 C56 1.392 . S
C55 N59 1.328 . S
C55 H61 0.930 . S
C56 C55 1.392 . S
C56 N60 1.331 . S
C57 C58 1.391 . S
C57 N60 1.329 . S
C57 H67 0.930 . S
C58 C57 1.391 . S
C58 N59 1.334 . S
C58 H65 0.930 . S
N59 Zn43 2.119 . S
N59 C55 1.328 . S
N59 C58 1.334 . S
N60 C56 1.331 . S
N60 C57 1.329 . S
H61 C55 0.930 . S
C62 O42 1.257 . S
C62 O63 1.244 . S
O63 C62 1.244 . S
O64 C40 1.257 . S
O64 Zn43 2.019 . S
H65 C58 0.930 . S
H66 C45 0.930 . S
H67 C57 0.930 . S
Zn68 N72 2.020 . S
Zn68 O76 2.019 . S
Zn68 N78 2.119 1_455 S
Zn68 O86 1.975 . S
C69 N70 1.334 . S
C69 N73 1.336 . S
N70 C69 1.334 . S
N70 C71 1.334 . S
C71 N70 1.334 . S
C71 N72 1.336 . S
N72 Zn68 2.020 . S
N72 C71 1.336 . S
N72 N73 1.354 . S
N73 C69 1.336 . S
N73 N72 1.354 . S
N73 Zn77 2.020 . S
C74 O75 1.244 . S
C74 O98 1.257 . S
O75 C74 1.244 . S
O76 Zn68 2.019 . S
O76 C96 1.257 . S
Zn77 N73 2.020 . S
Zn77 O84 1.975 . S
Zn77 N93 2.119 . S
Zn77 O98 2.019 . S
N78 Zn68 2.119 1_655 S
N78 C80 1.334 . S
N78 C81 1.328 . S
C79 C80 1.391 . S
C79 N82 1.329 . S
C79 H100 0.930 . S
C80 N78 1.334 . S
C80 C79 1.391 . S
C80 H87 0.930 . S
C81 N78 1.328 . S
C81 C83 1.392 . S
C81 H88 0.930 . S
N82 C79 1.329 . S
N82 C83 1.331 . S
C83 C81 1.392 . S
C83 N82 1.331 . S
O84 Zn77 1.975 . S
O84 C85 1.252 . S
C85 O84 1.252 . S
C85 O86 1.252 . S
O86 Zn68 1.975 . S
O86 C85 1.252 . S
H87 C80 0.930 . S
H88 C81 0.930 . S
C89 C90 1.392 . S
C89 N93 1.328 . S
C89 H95 0.930 . S
C90 C89 1.392 . S
C90 N94 1.331 . S
C91 C92 1.391 . S
C91 N94 1.329 . S
C91 H101 0.930 . S
C92 C91 1.391 . S
C92 N93 1.334 . S
C92 H99 0.930 . S
N93 Zn77 2.119 . S
N93 C89 1.328 . S
N93 C92 1.334 . S
N94 C90 1.331 . S
N94 C91 1.329 . S
H95 C89 0.930 . S
C96 O76 1.257 . S
C96 O97 1.244 . S
O97 C96 1.244 . S
O98 C74 1.257 . S
O98 Zn77 2.019 . S
H99 C92 0.930 . S
H100 C79 0.930 . S
H101 C91 0.930 . S
Zn102 N106 2.020 . S
Zn102 O110 2.019 . S
Zn102 N112 2.119 . S
Zn102 O120 1.975 . S
C103 N104 1.334 . S
C103 N107 1.336 . S
N104 C103 1.334 . S
N104 C105 1.334 . S
C105 N104 1.334 . S
C105 N106 1.336 . S
N106 Zn102 2.020 . S
N106 C105 1.336 . S
N106 N107 1.354 . S
N107 C103 1.336 . S
N107 N106 1.354 . S
N107 Zn111 2.020 . S
C108 O109 1.244 . S
C108 O132 1.257 . S
O109 C108 1.244 . S
O110 Zn102 2.019 . S
O110 C130 1.257 . S
Zn111 N107 2.020 . S
Zn111 O118 1.975 . S
Zn111 N127 2.119 . S
Zn111 O132 2.019 . S
N112 Zn102 2.119 . S
N112 C114 1.334 . S
N112 C115 1.328 . S
C113 C114 1.391 . S
C113 N116 1.329 . S
C113 H134 0.930 . S
C114 N112 1.334 . S
C114 C113 1.391 . S
C114 H121 0.930 . S
C115 N112 1.328 . S
C115 C117 1.392 . S
C115 H122 0.930 . S
N116 C113 1.329 . S
N116 C117 1.331 . S
C117 C115 1.392 . S
C117 N116 1.331 . S
O118 Zn111 1.975 . S
O118 C119 1.252 . S
C119 O118 1.252 . S
C119 O120 1.252 . S
O120 Zn102 1.975 . S
O120 C119 1.252 . S
H121 C114 0.930 . S
H122 C115 0.930 . S
C123 C124 1.392 . S
C123 N127 1.328 . S
C123 H129 0.930 . S
C124 C123 1.392 . S
C124 N128 1.331 . S
C125 C126 1.391 . S
C125 N128 1.329 . S
C125 H135 0.930 . S
C126 C125 1.391 . S
C126 N127 1.334 . S
C126 H133 0.930 . S
N127 Zn111 2.119 . S
N127 C123 1.328 . S
N127 C126 1.334 . S
N128 C124 1.331 . S
N128 C125 1.329 . S
H129 C123 0.930 . S
C130 O110 1.257 . S
C130 O131 1.244 . S
O131 C130 1.244 . S
O132 C108 1.257 . S
O132 Zn111 2.019 . S
H133 C126 0.930 . S
H134 C113 0.930 . S
H135 C125 0.930 . S
Zn136 N140 2.020 . S
Zn136 O144 2.019 . S
Zn136 N146 2.119 . S
Zn136 O154 1.975 . S
C137 N138 1.334 . S
C137 N141 1.336 . S
N138 C137 1.334 . S
N138 C139 1.334 . S
C139 N138 1.334 . S
C139 N140 1.336 . S
N140 Zn136 2.020 . S
N140 C139 1.336 . S
N140 N141 1.354 . S
N141 C137 1.336 . S
N141 N140 1.354 . S
N141 Zn145 2.020 . S
C142 O143 1.244 . S
C142 O166 1.257 . S
O143 C142 1.244 . S
O144 Zn136 2.019 . S
O144 C164 1.257 . S
Zn145 N141 2.020 . S
Zn145 O152 1.975 . S
Zn145 N161 2.119 . S
Zn145 O166 2.019 . S
N146 Zn136 2.119 . S
N146 C148 1.334 . S
N146 C149 1.328 . S
C147 C148 1.391 . S
C147 N150 1.329 . S
C147 H168 0.930 . S
C148 N146 1.334 . S
C148 C147 1.391 . S
C148 H155 0.930 . S
C149 N146 1.328 . S
C149 C151 1.392 . S
C149 H156 0.930 . S
N150 C147 1.329 . S
N150 C151 1.331 . S
C151 C149 1.392 . S
C151 N150 1.331 . S
O152 Zn145 1.975 . S
O152 C153 1.252 . S
C153 O152 1.252 . S
C153 O154 1.252 . S
O154 Zn136 1.975 . S
O154 C153 1.252 . S
H155 C148 0.930 . S
H156 C149 0.930 . S
C157 C158 1.392 . S
C157 N161 1.328 . S
C157 H163 0.930 . S
C158 C157 1.392 . S
C158 N162 1.331 . S
C159 C160 1.391 . S
C159 N162 1.329 . S
C159 H169 0.930 . S
C160 C159 1.391 . S
C160 N161 1.334 . S
C160 H167 0.930 . S
N161 Zn145 2.119 . S
N161 C157 1.328 . S
N161 C160 1.334 . S
N162 C158 1.331 . S
N162 C159 1.329 . S
H163 C157 0.930 . S
C164 O144 1.257 . S
C164 O165 1.244 . S
O165 C164 1.244 . S
O166 C142 1.257 . S
O166 Zn145 2.019 . S
H167 C160 0.930 . S
H168 C147 0.930 . S
H169 C159 0.930 . S
Zn170 N174 2.020 . S
Zn170 O178 2.019 1_455 S
Zn170 N180 2.119 1_455 S
Zn170 O188 1.975 . S
C171 N172 1.334 . S
C171 N175 1.336 . S
N172 C171 1.334 . S
N172 C173 1.334 . S
C173 N172 1.334 . S
C173 N174 1.336 . S
N174 Zn170 2.020 . S
N174 C173 1.336 . S
N174 N175 1.354 . S
N175 C171 1.336 . S
N175 N174 1.354 . S
N175 Zn179 2.020 . S
C176 O177 1.244 . S
C176 O200 1.257 . S
O177 C176 1.244 . S
O178 Zn170 2.019 1_655 S
O178 C198 1.257 1_655 S
Zn179 N175 2.020 . S
Zn179 O186 1.975 . S
Zn179 N195 2.119 . S
Zn179 O200 2.019 . S
N180 Zn170 2.119 1_655 S
N180 C182 1.334 . S
N180 C183 1.328 . S
C181 C182 1.391 . S
C181 N184 1.329 . S
C181 H202 0.930 . S
C182 N180 1.334 . S
C182 C181 1.391 . S
C182 H189 0.930 . S
C183 N180 1.328 . S
C183 C185 1.392 . S
C183 H190 0.930 . S
N184 C181 1.329 . S
N184 C185 1.331 . S
C185 C183 1.392 . S
C185 N184 1.331 . S
O186 Zn179 1.975 . S
O186 C187 1.252 . S
C187 O186 1.252 . S
C187 O188 1.252 . S
O188 Zn170 1.975 . S
O188 C187 1.252 . S
H189 C182 0.930 . S
H190 C183 0.930 . S
C191 C192 1.392 . S
C191 N195 1.328 . S
C191 H197 0.930 . S
C192 C191 1.392 . S
C192 N196 1.331 . S
C193 C194 1.391 . S
C193 N196 1.329 . S
C193 H203 0.930 . S
C194 C193 1.391 . S
C194 N195 1.334 . S
C194 H201 0.930 . S
N195 Zn179 2.119 . S
N195 C191 1.328 . S
N195 C194 1.334 . S
N196 C192 1.331 . S
N196 C193 1.329 . S
H197 C191 0.930 . S
C198 O178 1.257 1_455 S
C198 O199 1.244 . S
O199 C198 1.244 . S
O200 C176 1.257 . S
O200 Zn179 2.019 . S
H201 C194 0.930 . S
H202 C181 0.930 . S
H203 C193 0.930 . S
Zn204 N208 2.020 . S
Zn204 O212 2.019 . S
Zn204 N214 2.119 . S
Zn204 O222 1.975 . S
C205 N206 1.334 . S
C205 N209 1.336 . S
N206 C205 1.334 . S
N206 C207 1.334 . S
C207 N206 1.334 . S
C207 N208 1.336 . S
N208 Zn204 2.020 . S
N208 C207 1.336 . S
N208 N209 1.354 . S
N209 C205 1.336 . S
N209 N208 1.354 . S
N209 Zn213 2.020 . S
C210 O211 1.244 . S
C210 O234 1.257 . S
O211 C210 1.244 . S
O212 Zn204 2.019 . S
O212 C232 1.257 . S
Zn213 N209 2.020 . S
Zn213 O220 1.975 . S
Zn213 N229 2.119 . S
Zn213 O234 2.019 . S
N214 Zn204 2.119 . S
N214 C216 1.334 . S
N214 C217 1.328 . S
C215 C216 1.391 . S
C215 N218 1.329 . S
C215 H236 0.930 . S
C216 N214 1.334 . S
C216 C215 1.391 . S
C216 H223 0.930 . S
C217 N214 1.328 . S
C217 C219 1.392 . S
C217 H224 0.930 . S
N218 C215 1.329 . S
N218 C219 1.331 . S
C219 C217 1.392 . S
C219 N218 1.331 . S
O220 Zn213 1.975 . S
O220 C221 1.252 . S
C221 O220 1.252 . S
C221 O222 1.252 . S
O222 Zn204 1.975 . S
O222 C221 1.252 . S
H223 C216 0.930 . S
H224 C217 0.930 . S
C225 C226 1.392 . S
C225 N229 1.328 . S
C225 H231 0.930 . S
C226 C225 1.392 . S
C226 N230 1.331 . S
C227 C228 1.391 . S
C227 N230 1.329 . S
C227 H237 0.930 . S
C228 C227 1.391 . S
C228 N229 1.334 . S
C228 H235 0.930 . S
N229 Zn213 2.119 . S
N229 C225 1.328 . S
N229 C228 1.334 . S
N230 C226 1.331 . S
N230 C227 1.329 . S
H231 C225 0.930 . S
C232 O212 1.257 . S
C232 O233 1.244 . S
O233 C232 1.244 . S
O234 C210 1.257 . S
O234 Zn213 2.019 . S
H235 C228 0.930 . S
H236 C215 0.930 . S
H237 C227 0.930 . S
Zn238 N242 2.020 . S
Zn238 O246 2.019 . S
Zn238 N248 2.119 . S
Zn238 O256 1.975 . S
C239 N240 1.334 . S
C239 N243 1.336 . S
N240 C239 1.334 . S
N240 C241 1.334 . S
C241 N240 1.334 . S
C241 N242 1.336 . S
N242 Zn238 2.020 . S
N242 C241 1.336 . S
N242 N243 1.354 . S
N243 C239 1.336 . S
N243 N242 1.354 . S
N243 Zn247 2.020 . S
C244 O245 1.244 . S
C244 O268 1.257 1_455 S
O245 C244 1.244 . S
O246 Zn238 2.019 . S
O246 C266 1.257 . S
Zn247 N243 2.020 . S
Zn247 O254 1.975 . S
Zn247 N263 2.119 1_455 S
Zn247 O268 2.019 1_455 S
N248 Zn238 2.119 . S
N248 C250 1.334 . S
N248 C251 1.328 . S
C249 C250 1.391 . S
C249 N252 1.329 . S
C249 H270 0.930 . S
C250 N248 1.334 . S
C250 C249 1.391 . S
C250 H257 0.930 . S
C251 N248 1.328 . S
C251 C253 1.392 . S
C251 H258 0.930 . S
N252 C249 1.329 . S
N252 C253 1.331 . S
C253 C251 1.392 . S
C253 N252 1.331 . S
O254 Zn247 1.975 . S
O254 C255 1.252 . S
C255 O254 1.252 . S
C255 O256 1.252 . S
O256 Zn238 1.975 . S
O256 C255 1.252 . S
H257 C250 0.930 . S
H258 C251 0.930 . S
C259 C260 1.392 . S
C259 N263 1.328 . S
C259 H265 0.930 . S
C260 C259 1.392 . S
C260 N264 1.331 . S
C261 C262 1.391 . S
C261 N264 1.329 . S
C261 H271 0.930 . S
C262 C261 1.391 . S
C262 N263 1.334 . S
C262 H269 0.930 . S
N263 Zn247 2.119 1_655 S
N263 C259 1.328 . S
N263 C262 1.334 . S
N264 C260 1.331 . S
N264 C261 1.329 . S
H265 C259 0.930 . S
C266 O246 1.257 . S
C266 O267 1.244 . S
O267 C266 1.244 . S
O268 C244 1.257 1_655 S
O268 Zn247 2.019 1_655 S
H269 C262 0.930 . S
H270 C249 0.930 . S
H271 C261 0.930 . S
C272 C273 1.369 . S
C272 C274 1.419 . S
C272 H276 0.930 . S
C273 C272 1.369 . S
C273 C282 1.429 . S
C274 C272 1.419 . S
C274 C275 1.363 . S
C274 H277 0.929 . S
C275 C274 1.363 . S
C275 C281 1.428 . S
H276 C272 0.930 . S
H277 C274 0.929 . S
S278 N279 1.613 . S
S278 N280 1.610 . S
N279 S278 1.613 . S
N279 C282 1.350 . S
N280 S278 1.610 . S
N280 C281 1.351 . S
C281 C275 1.428 . S
C281 N280 1.351 . S
C281 C282 1.434 . S
C282 C273 1.429 . S
C282 N279 1.350 . S
C282 C281 1.434 . S
C283 C284 1.369 . S
C283 C285 1.419 . S
C283 H287 0.930 . S
C284 C283 1.369 . S
C284 C293 1.429 . S
C285 C283 1.419 . S
C285 C286 1.363 . S
C285 H288 0.929 . S
C286 C285 1.363 . S
C286 C292 1.428 . S
H287 C283 0.930 . S
H288 C285 0.929 . S
S289 N290 1.613 . S
S289 N291 1.610 . S
N290 S289 1.613 . S
N290 C293 1.350 . S
N291 S289 1.610 . S
N291 C292 1.351 . S
C292 C286 1.428 . S
C292 N291 1.351 . S
C292 C293 1.434 . S
C293 C284 1.429 . S
C293 N290 1.350 . S
C293 C292 1.434 . S
C294 C295 1.369 . S
C294 C296 1.419 . S
C294 H298 0.930 . S
C295 C294 1.369 . S
C295 C304 1.429 . S
C296 C294 1.419 . S
C296 C297 1.363 . S
C296 H299 0.929 . S
C297 C296 1.363 . S
C297 C303 1.428 . S
H298 C294 0.930 . S
H299 C296 0.929 . S
S300 N301 1.613 . S
S300 N302 1.610 . S
N301 S300 1.613 . S
N301 C304 1.350 . S
N302 S300 1.610 . S
N302 C303 1.351 . S
C303 C297 1.428 . S
C303 N302 1.351 . S
C303 C304 1.434 . S
C304 C295 1.429 . S
C304 N301 1.350 . S
C304 C303 1.434 . S
C305 C306 1.369 . S
C305 C307 1.419 . S
C305 H309 0.930 . S
C306 C305 1.369 . S
C306 C315 1.429 . S
C307 C305 1.419 . S
C307 C308 1.363 . S
C307 H310 0.929 . S
C308 C307 1.363 . S
C308 C314 1.428 . S
H309 C305 0.930 . S
H310 C307 0.929 . S
S311 N312 1.613 . S
S311 N313 1.610 . S
N312 S311 1.613 . S
N312 C315 1.350 . S
N313 S311 1.610 . S
N313 C314 1.351 . S
C314 C308 1.428 . S
C314 N313 1.351 . S
C314 C315 1.434 . S
C315 C306 1.429 . S
C315 N312 1.350 . S
C315 C314 1.434 . S
C316 C317 1.369 . S
C316 C318 1.419 . S
C316 H320 0.930 . S
C317 C316 1.369 . S
C317 C326 1.429 . S
C318 C316 1.419 . S
C318 C319 1.363 . S
C318 H321 0.929 . S
C319 C318 1.363 . S
C319 C325 1.428 . S
H320 C316 0.930 . S
H321 C318 0.929 . S
S322 N323 1.613 1_545 S
S322 N324 1.610 1_545 S
N323 S322 1.613 1_565 S
N323 C326 1.350 . S
N324 S322 1.610 1_565 S
N324 C325 1.351 . S
C325 C319 1.428 . S
C325 N324 1.351 . S
C325 C326 1.434 . S
C326 C317 1.429 . S
C326 N323 1.350 . S
C326 C325 1.434 . S
C327 C328 1.369 . S
C327 C329 1.419 . S
C327 H331 0.930 . S
C328 C327 1.369 . S
C328 C337 1.429 . S
C329 C327 1.419 . S
C329 C330 1.363 . S
C329 H332 0.929 . S
C330 C329 1.363 . S
C330 C336 1.428 . S
H331 C327 0.930 . S
H332 C329 0.929 . S
S333 N334 1.613 . S
S333 N335 1.610 . S
N334 S333 1.613 . S
N334 C337 1.350 . S
N335 S333 1.610 . S
N335 C336 1.351 . S
C336 C330 1.428 . S
C336 N335 1.351 . S
C336 C337 1.434 . S
C337 C328 1.429 . S
C337 N334 1.350 . S
C337 C336 1.434 . S
C338 C339 1.369 . S
C338 C340 1.419 . S
C338 H342 0.930 . S
C339 C338 1.369 . S
C339 C348 1.429 . S
C340 C338 1.419 . S
C340 C341 1.363 . S
C340 H343 0.929 . S
C341 C340 1.363 . S
C341 C347 1.428 . S
H342 C338 0.930 . S
H343 C340 0.929 . S
S344 N345 1.613 . S
S344 N346 1.610 . S
N345 S344 1.613 . S
N345 C348 1.350 . S
N346 S344 1.610 . S
N346 C347 1.351 . S
C347 C341 1.428 . S
C347 N346 1.351 . S
C347 C348 1.434 . S
C348 C339 1.429 . S
C348 N345 1.350 . S
C348 C347 1.434 . S
C349 C350 1.369 . S
C349 C351 1.419 . S
C349 H353 0.930 . S
C350 C349 1.369 . S
C350 C359 1.429 . S
C351 C349 1.419 . S
C351 C352 1.363 . S
C351 H354 0.929 . S
C352 C351 1.363 . S
C352 C358 1.428 . S
H353 C349 0.930 . S
H354 C351 0.929 . S
S355 N356 1.613 . S
S355 N357 1.610 . S
N356 S355 1.613 . S
N356 C359 1.350 . S
N357 S355 1.610 . S
N357 C358 1.351 . S
C358 C352 1.428 . S
C358 N357 1.351 . S
C358 C359 1.434 . S
C359 C350 1.429 . S
C359 N356 1.350 . S
C359 C358 1.434 . S
C360 C361 1.369 . S
C360 C362 1.419 . S
C360 H364 0.930 . S
C361 C360 1.369 . S
C361 C370 1.429 . S
C362 C360 1.419 . S
C362 C363 1.363 . S
C362 H365 0.929 . S
C363 C362 1.363 . S
C363 C369 1.428 . S
H364 C360 0.930 . S
H365 C362 0.929 . S
S366 N367 1.613 . S
S366 N368 1.610 . S
N367 S366 1.613 . S
N367 C370 1.350 . S
N368 S366 1.610 . S
N368 C369 1.351 . S
C369 C363 1.428 . S
C369 N368 1.351 . S
C369 C370 1.434 . S
C370 C361 1.429 . S
C370 N367 1.350 . S
C370 C369 1.434 . S
C371 C372 1.369 . S
C371 C373 1.419 . S
C371 H375 0.930 . S
C372 C371 1.369 . S
C372 C381 1.429 . S
C373 C371 1.419 . S
C373 C374 1.363 . S
C373 H376 0.929 . S
C374 C373 1.363 . S
C374 C380 1.428 . S
H375 C371 0.930 . S
H376 C373 0.929 . S
S377 N378 1.613 . S
S377 N379 1.610 . S
N378 S377 1.613 . S
N378 C381 1.350 . S
N379 S377 1.610 . S
N379 C380 1.351 . S
C380 C374 1.428 . S
C380 N379 1.351 . S
C380 C381 1.434 . S
C381 C372 1.429 . S
C381 N378 1.350 . S
C381 C380 1.434 . S
C382 C383 1.369 . S
C382 C384 1.419 . S
C382 H386 0.930 . S
C383 C382 1.369 . S
C383 C392 1.429 . S
C384 C382 1.419 . S
C384 C385 1.363 . S
C384 H387 0.929 . S
C385 C384 1.363 . S
C385 C391 1.428 . S
H386 C382 0.930 . S
H387 C384 0.929 . S
S388 N389 1.613 . S
S388 N390 1.610 . S
N389 S388 1.613 . S
N389 C392 1.350 . S
N390 S388 1.610 . S
N390 C391 1.351 . S
C391 C385 1.428 . S
C391 N390 1.351 . S
C391 C392 1.434 . S
C392 C383 1.429 . S
C392 N389 1.350 . S
C392 C391 1.434 . S
C393 C394 1.369 . S
C393 C395 1.419 . S
C393 H397 0.930 . S
C394 C393 1.369 . S
C394 C403 1.429 . S
C395 C393 1.419 . S
C395 C396 1.363 . S
C395 H398 0.929 . S
C396 C395 1.363 . S
C396 C402 1.428 . S
H397 C393 0.930 . S
H398 C395 0.929 . S
S399 N400 1.613 . S
S399 N401 1.610 . S
N400 S399 1.613 . S
N400 C403 1.350 . S
N401 S399 1.610 . S
N401 C402 1.351 . S
C402 C396 1.428 . S
C402 N401 1.351 . S
C402 C403 1.434 . S
C403 C394 1.429 . S
C403 N400 1.350 . S
C403 C402 1.434 . S
C404 C405 1.369 . S
C404 C406 1.419 . S
C404 H408 0.930 . S
C405 C404 1.369 . S
C405 C414 1.429 . S
C406 C404 1.419 . S
C406 C407 1.363 . S
C406 H409 0.929 . S
C407 C406 1.363 . S
C407 C413 1.428 . S
H408 C404 0.930 . S
H409 C406 0.929 . S
S410 N411 1.613 . S
S410 N412 1.610 . S
N411 S410 1.613 . S
N411 C414 1.350 . S
N412 S410 1.610 . S
N412 C413 1.351 . S
C413 C407 1.428 . S
C413 N412 1.351 . S
C413 C414 1.434 . S
C414 C405 1.429 . S
C414 N411 1.350 . S
C414 C413 1.434 . S
C415 C416 1.369 . S
C415 C417 1.419 . S
C415 H419 0.930 . S
C416 C415 1.369 . S
C416 C425 1.429 . S
C417 C415 1.419 . S
C417 C418 1.363 . S
C417 H420 0.929 . S
C418 C417 1.363 . S
C418 C424 1.428 . S
H419 C415 0.930 . S
H420 C417 0.929 . S
S421 N422 1.613 1_655 S
S421 N423 1.610 . S
N422 S421 1.613 1_455 S
N422 C425 1.350 . S
N423 S421 1.610 . S
N423 C424 1.351 1_655 S
C424 C418 1.428 . S
C424 N423 1.351 1_455 S
C424 C425 1.434 . S
C425 C416 1.429 . S
C425 N422 1.350 . S
C425 C424 1.434 . S
C426 C427 1.369 . S
C426 C428 1.419 . S
C426 H430 0.930 . S
C427 C426 1.369 . S
C427 C436 1.429 . S
C428 C426 1.419 . S
C428 C429 1.363 . S
C428 H431 0.929 . S
C429 C428 1.363 . S
C429 C435 1.428 . S
H430 C426 0.930 . S
H431 C428 0.929 . S
S432 N433 1.613 . S
S432 N434 1.610 . S
N433 S432 1.613 . S
N433 C436 1.350 . S
N434 S432 1.610 . S
N434 C435 1.351 . S
C435 C429 1.428 . S
C435 N434 1.351 . S
C435 C436 1.434 . S
C436 C427 1.429 . S
C436 N433 1.350 . S
C436 C435 1.434 . S
C437 C438 1.369 1_655 S
C437 C439 1.419 . S
C437 H441 0.930 . S
C438 C437 1.369 1_455 S
C438 C447 1.429 . S
C439 C437 1.419 . S
C439 C440 1.363 1_655 S
C439 H442 0.929 . S
C440 C439 1.363 1_455 S
C440 C446 1.428 . S
H441 C437 0.930 . S
H442 C439 0.929 . S
S443 N444 1.613 . S
S443 N445 1.610 . S
N444 S443 1.613 . S
N444 C447 1.350 . S
N445 S443 1.610 . S
N445 C446 1.351 . S
C446 C440 1.428 . S
C446 N445 1.351 . S
C446 C447 1.434 . S
C447 C438 1.429 . S
C447 N444 1.350 . S
C447 C446 1.434 . S
C448 C449 1.369 1_656 S
C448 C450 1.419 1_655 S
C448 H452 0.930 1_556 S
C449 C448 1.369 1_454 S
C449 C458 1.429 1_554 S
C450 C448 1.419 1_455 S
C450 C451 1.363 . S
C450 H453 0.929 1_455 S
C451 C450 1.363 . S
C451 C457 1.428 . S
H452 C448 0.930 1_554 S
H453 C450 0.929 1_655 S
S454 N455 1.613 . S
S454 N456 1.610 . S
N455 S454 1.613 . S
N455 C458 1.350 . S
N456 S454 1.610 . S
N456 C457 1.351 . S
C457 C451 1.428 . S
C457 N456 1.351 . S
C457 C458 1.434 . S
C458 C449 1.429 1_556 S
C458 N455 1.350 . S
C458 C457 1.434 . S
C459 C460 1.369 . S
C459 C461 1.419 . S
C459 H463 0.930 . S
C460 C459 1.369 . S
C460 C469 1.429 . S
C461 C459 1.419 . S
C461 C462 1.363 . S
C461 H464 0.929 . S
C462 C461 1.363 . S
C462 C468 1.428 . S
H463 C459 0.930 . S
H464 C461 0.929 . S
S465 N466 1.613 . S
S465 N467 1.610 . S
N466 S465 1.613 . S
N466 C469 1.350 . S
N467 S465 1.610 . S
N467 C468 1.351 . S
C468 C462 1.428 . S
C468 N467 1.351 . S
C468 C469 1.434 . S
C469 C460 1.429 . S
C469 N466 1.350 . S
C469 C468 1.434 . S
C470 C471 1.369 . S
C470 C472 1.419 1_554 S
C470 H474 0.930 . S
C471 C470 1.369 . S
C471 C480 1.429 . S
C472 C470 1.419 1_556 S
C472 C473 1.363 . S
C472 H475 0.929 . S
C473 C472 1.363 . S
C473 C479 1.428 1_556 S
H474 C470 0.930 . S
H475 C472 0.929 . S
S476 N477 1.613 . S
S476 N478 1.610 . S
N477 S476 1.613 . S
N477 C480 1.350 . S
N478 S476 1.610 . S
N478 C479 1.351 . S
C479 C473 1.428 1_554 S
C479 N478 1.351 . S
C479 C480 1.434 . S
C480 C471 1.429 . S
C480 N477 1.350 . S
C480 C479 1.434 . S
C481 C482 1.369 . S
C481 C483 1.419 . S
C481 H485 0.930 . S
C482 C481 1.369 . S
C482 C491 1.429 . S
C483 C481 1.419 . S
C483 C484 1.363 . S
C483 H486 0.929 . S
C484 C483 1.363 . S
C484 C490 1.428 . S
H485 C481 0.930 . S
H486 C483 0.929 . S
S487 N488 1.613 . S
S487 N489 1.610 . S
N488 S487 1.613 . S
N488 C491 1.350 . S
N489 S487 1.610 . S
N489 C490 1.351 . S
C490 C484 1.428 . S
C490 N489 1.351 . S
C490 C491 1.434 . S
C491 C482 1.429 . S
C491 N488 1.350 . S
C491 C490 1.434 . S
C492 C493 1.369 . S
C492 C494 1.419 1_554 S
C492 H496 0.930 . S
C493 C492 1.369 . S
C493 C502 1.429 1_554 S
C494 C492 1.419 1_556 S
C494 C495 1.363 . S
C494 H497 0.929 . S
C495 C494 1.363 . S
C495 C501 1.428 . S
H496 C492 0.930 . S
H497 C494 0.929 . S
S498 N499 1.613 . S
S498 N500 1.610 . S
N499 S498 1.613 . S
N499 C502 1.350 . S
N500 S498 1.610 . S
N500 C501 1.351 . S
C501 C495 1.428 . S
C501 N500 1.351 . S
C501 C502 1.434 . S
C502 C493 1.429 1_556 S
C502 N499 1.350 . S
C502 C501 1.434 . S
C503 C504 1.369 . S
C503 C505 1.419 . S
C503 H507 0.930 . S
C504 C503 1.369 . S
C504 C513 1.429 . S
C505 C503 1.419 . S
C505 C506 1.363 . S
C505 H508 0.929 . S
C506 C505 1.363 . S
C506 C512 1.428 . S
H507 C503 0.930 . S
H508 C505 0.929 . S
S509 N510 1.613 . S
S509 N511 1.610 . S
N510 S509 1.613 . S
N510 C513 1.350 . S
N511 S509 1.610 . S
N511 C512 1.351 . S
C512 C506 1.428 . S
C512 N511 1.351 . S
C512 C513 1.434 . S
C513 C504 1.429 . S
C513 N510 1.350 . S
C513 C512 1.434 . S
C514 C515 1.369 1_554 S
C514 C516 1.419 . S
C514 H518 0.930 . S
C515 C514 1.369 1_556 S
C515 C524 1.429 . S
C516 C514 1.419 . S
C516 C517 1.363 . S
C516 H519 0.929 . S
C517 C516 1.363 . S
C517 C523 1.428 . S
H518 C514 0.930 . S
H519 C516 0.929 . S
S520 N521 1.613 . S
S520 N522 1.610 1_556 S
N521 S520 1.613 . S
N521 C524 1.350 . S
N522 S520 1.610 1_554 S
N522 C523 1.351 . S
C523 C517 1.428 . S
C523 N522 1.351 . S
C523 C524 1.434 1_554 S
C524 C515 1.429 . S
C524 N521 1.350 . S
C524 C523 1.434 1_556 S
C525 C526 1.369 . S
C525 C527 1.419 . S
C525 H529 0.930 . S
C526 C525 1.369 . S
C526 C535 1.429 . S
C527 C525 1.419 . S
C527 C528 1.363 . S
C527 H530 0.929 . S
C528 C527 1.363 . S
C528 C534 1.428 . S
H529 C525 0.930 . S
H530 C527 0.929 . S
S531 N532 1.613 . S
S531 N533 1.610 . S
N532 S531 1.613 . S
N532 C535 1.350 1_655 S
N533 S531 1.610 . S
N533 C534 1.351 1_655 S
C534 C528 1.428 . S
C534 N533 1.351 1_455 S
C534 C535 1.434 . S
C535 C526 1.429 . S
C535 N532 1.350 1_455 S
C535 C534 1.434 . S
C536 C537 1.369 1_556 S
C536 C538 1.419 . S
C536 H540 0.930 . S
C537 C536 1.369 1_554 S
C537 C546 1.429 . S
C538 C536 1.419 . S
C538 C539 1.363 . S
C538 H541 0.929 . S
C539 C538 1.363 . S
C539 C545 1.428 1_556 S
H540 C536 0.930 . S
H541 C538 0.929 . S
S542 N543 1.613 . S
S542 N544 1.610 . S
N543 S542 1.613 . S
N543 C546 1.350 . S
N544 S542 1.610 . S
N544 C545 1.351 . S
C545 C539 1.428 1_554 S
C545 N544 1.351 . S
C545 C546 1.434 . S
C546 C537 1.429 . S
C546 N543 1.350 . S
C546 C545 1.434 . S
C547 C548 1.369 . S
C547 C549 1.419 . S
C547 H551 0.930 . S
C548 C547 1.369 . S
C548 C557 1.429 . S
C549 C547 1.419 . S
C549 C550 1.363 . S
C549 H552 0.929 . S
C550 C549 1.363 . S
C550 C556 1.428 . S
H551 C547 0.930 . S
H552 C549 0.929 . S
S553 N554 1.613 . S
S553 N555 1.610 . S
N554 S553 1.613 . S
N554 C557 1.350 . S
N555 S553 1.610 . S
N555 C556 1.351 . S
C556 C550 1.428 . S
C556 N555 1.351 . S
C556 C557 1.434 . S
C557 C548 1.429 . S
C557 N554 1.350 . S
C557 C556 1.434 . S
C558 C559 1.369 . S
C558 C560 1.419 1_565 S
C558 H562 0.930 . S
C559 C558 1.369 . S
C559 C568 1.429 1_554 S
C560 C558 1.419 1_545 S
C560 C561 1.363 1_554 S
C560 H563 0.929 . S
C561 C560 1.363 1_556 S
C561 C567 1.428 . S
H562 C558 0.930 . S
H563 C560 0.929 . S
S564 N565 1.613 . S
S564 N566 1.610 1_565 S
N565 S564 1.613 . S
N565 C568 1.350 . S
N566 S564 1.610 1_545 S
N566 C567 1.351 . S
C567 C561 1.428 . S
C567 N566 1.351 . S
C567 C568 1.434 1_545 S
C568 C559 1.429 1_556 S
C568 N565 1.350 . S
C568 C567 1.434 1_565 S
C569 C570 1.369 1_655 S
C569 C571 1.419 1_545 S
C569 H573 0.930 . S
C570 C569 1.369 1_455 S
C570 C579 1.429 . S
C571 C569 1.419 1_565 S
C571 C572 1.363 1_655 S
C571 H574 0.929 . S
C572 C571 1.363 1_455 S
C572 C578 1.428 . S
H573 C569 0.930 . S
H574 C571 0.929 . S
S575 N576 1.598 1_565 S
S575 N577 1.610 . S
N576 S575 1.598 1_545 S
N576 C579 1.351 . S
N577 S575 1.610 . S
N577 C578 1.351 . S
C578 C572 1.428 . S
C578 N577 1.351 . S
C578 C579 1.434 1_565 S
C579 C570 1.429 . S
C579 N576 1.351 . S
C579 C578 1.434 1_545 S
C273 C22 1.382 . S
C275 C124 1.379 . S
C284 C90 1.386 . S
C286 C49 1.384 . S
C295 C56 1.934 . S
C297 C83 1.931 . S
C306 C15 1.932 . S
C308 C117 1.934 . S
C317 C260 1.384 . S
C319 C158 1.384 . S
C328 C226 1.376 . S
C330 C185 1.376 . S
C339 C219 1.930 . S
C341 C192 1.933 . S
C350 C253 1.934 . S
C352 C151 1.931 . S
C361 C266 1.096 . S
C363 C6 1.114 . S
C372 C232 1.104 . S
C374 C62 1.112 . S
C383 C74 1.115 . S
C385 C176 1.100 . S
C394 C164 1.099 . S
C396 C108 1.115 . S
C405 C142 1.112 1_545 S
C407 C130 1.103 . S
C416 C96 1.096 . S
C418 C198 1.114 1_565 S
C427 C40 1.100 . S
C429 C210 1.115 1_565 S
C438 C28 1.101 . S
C440 C244 1.112 1_545 S
C449 C3 1.584 . S
C451 C187 1.654 . S
C460 C35 1.585 . S
C462 C153 1.656 . S
C471 C255 1.653 . S
C473 C71 1.586 . S
C482 C105 1.584 . S
C484 C221 1.656 . S
C493 C139 1.590 . S
C495 C51 1.653 . S
C504 C171 1.588 . S
C506 C17 1.658 . S
C515 C207 1.592 . S
C517 C119 1.658 . S
C526 C241 1.585 . S
C528 C85 1.656 . S
C537 C1 2.017 . S
C539 C69 2.015 . S
C548 C37 2.014 . S
C550 C103 2.016 . S
C559 C137 2.014 . S
C561 C205 2.017 . S
C570 C173 2.016 . S
C572 C239 2.015 . S
