# Generated by pormake.
# Topology uot, (4)-cn, num edge types: 1
# Building blocks:
#     Node 0, Type 0, BuildingBlock: QUQFOY_clean_sbu_1, # of connection points: 4
#     Node 1, Type 0, BuildingBlock: QUQFOY_clean_sbu_1, # of connection points: 4
#     Node 2, Type 0, BuildingBlock: QUQFOY_clean_sbu_1, # of connection points: 4
#     Node 3, Type 0, BuildingBlock: QUQFOY_clean_sbu_1, # of connection points: 4
#     Node 4, Type 0, BuildingBlock: QUQFOY_clean_sbu_1, # of connection points: 4
#     Node 5, Type 0, BuildingBlock: QUQFOY_clean_sbu_1, # of connection points: 4
#     Node 6, Type 0, BuildingBlock: QUQFOY_clean_sbu_1, # of connection points: 4
#     Node 7, Type 0, BuildingBlock: QUQFOY_clean_sbu_1, # of connection points: 4
#     Node 8, Type 0, BuildingBlock: QUQFOY_clean_sbu_1, # of connection points: 4
#     Node 9, Type 0, BuildingBlock: QUQFOY_clean_sbu_1, # of connection points: 4
#     Node 10, Type 0, BuildingBlock: QUQFOY_clean_sbu_1, # of connection points: 4
#     Node 11, Type 0, BuildingBlock: QUQFOY_clean_sbu_1, # of connection points: 4
#     Node 12, Type 0, BuildingBlock: QUQFOY_clean_sbu_1, # of connection points: 4
#     Node 13, Type 0, BuildingBlock: QUQFOY_clean_sbu_1, # of connection points: 4
#     Node 14, Type 0, BuildingBlock: QUQFOY_clean_sbu_1, # of connection points: 4
#     Node 15, Type 0, BuildingBlock: QUQFOY_clean_sbu_1, # of connection points: 4
#     Edge 16, Type (0, 0), BuildingBlock: MIFKUJ_clean_linker_0, # of connection points: 2
#     Edge 17, Type (0, 0), BuildingBlock: MIFKUJ_clean_linker_0, # of connection points: 2
#     Edge 18, Type (0, 0), BuildingBlock: MIFKUJ_clean_linker_0, # of connection points: 2
#     Edge 19, Type (0, 0), BuildingBlock: MIFKUJ_clean_linker_0, # of connection points: 2
#     Edge 20, Type (0, 0), BuildingBlock: MIFKUJ_clean_linker_0, # of connection points: 2
#     Edge 21, Type (0, 0), BuildingBlock: MIFKUJ_clean_linker_0, # of connection points: 2
#     Edge 22, Type (0, 0), BuildingBlock: MIFKUJ_clean_linker_0, # of connection points: 2
#     Edge 23, Type (0, 0), BuildingBlock: MIFKUJ_clean_linker_0, # of connection points: 2
#     Edge 24, Type (0, 0), BuildingBlock: MIFKUJ_clean_linker_0, # of connection points: 2
#     Edge 25, Type (0, 0), BuildingBlock: MIFKUJ_clean_linker_0, # of connection points: 2
#     Edge 26, Type (0, 0), BuildingBlock: MIFKUJ_clean_linker_0, # of connection points: 2
#     Edge 27, Type (0, 0), BuildingBlock: MIFKUJ_clean_linker_0, # of connection points: 2
#     Edge 28, Type (0, 0), BuildingBlock: MIFKUJ_clean_linker_0, # of connection points: 2
#     Edge 29, Type (0, 0), BuildingBlock: MIFKUJ_clean_linker_0, # of connection points: 2
#     Edge 30, Type (0, 0), BuildingBlock: MIFKUJ_clean_linker_0, # of connection points: 2
#     Edge 31, Type (0, 0), BuildingBlock: MIFKUJ_clean_linker_0, # of connection points: 2
#     Edge 32, Type (0, 0), BuildingBlock: MIFKUJ_clean_linker_0, # of connection points: 2
#     Edge 33, Type (0, 0), BuildingBlock: MIFKUJ_clean_linker_0, # of connection points: 2
#     Edge 34, Type (0, 0), BuildingBlock: MIFKUJ_clean_linker_0, # of connection points: 2
#     Edge 35, Type (0, 0), BuildingBlock: MIFKUJ_clean_linker_0, # of connection points: 2
#     Edge 36, Type (0, 0), BuildingBlock: MIFKUJ_clean_linker_0, # of connection points: 2
#     Edge 37, Type (0, 0), BuildingBlock: MIFKUJ_clean_linker_0, # of connection points: 2
#     Edge 38, Type (0, 0), BuildingBlock: MIFKUJ_clean_linker_0, # of connection points: 2
#     Edge 39, Type (0, 0), BuildingBlock: MIFKUJ_clean_linker_0, # of connection points: 2
#     Edge 40, Type (0, 0), BuildingBlock: MIFKUJ_clean_linker_0, # of connection points: 2
#     Edge 41, Type (0, 0), BuildingBlock: MIFKUJ_clean_linker_0, # of connection points: 2
#     Edge 42, Type (0, 0), BuildingBlock: MIFKUJ_clean_linker_0, # of connection points: 2
#     Edge 43, Type (0, 0), BuildingBlock: MIFKUJ_clean_linker_0, # of connection points: 2
#     Edge 44, Type (0, 0), BuildingBlock: MIFKUJ_clean_linker_0, # of connection points: 2
#     Edge 45, Type (0, 0), BuildingBlock: MIFKUJ_clean_linker_0, # of connection points: 2
#     Edge 46, Type (0, 0), BuildingBlock: MIFKUJ_clean_linker_0, # of connection points: 2
#     Edge 47, Type (0, 0), BuildingBlock: MIFKUJ_clean_linker_0, # of connection points: 2
# Relax obj value: 0.055
# Max RMSD: 0.082
# Mean RMSD: 0.082
data_MOF--net-uot--node1-QUQFOY_clean_sbu_1--edge1-MIFKUJ_clean_linker_0
_symmetry_space_group_name_H-M    P1
_symmetry_Int_Tables_number       1
_symmetry_cell_setting            triclinic
loop_
_symmetry_equiv_pos_as_xyz
'x, y, z'
_cell_length_a     59.8064
_cell_length_b     59.822413
_cell_length_c     57.187535
_cell_angle_alpha  89.96925
_cell_angle_beta   89.983785
_cell_angle_gamma 89.975988
loop_
_atom_site_label
_atom_site_type_symbol
_atom_site_fract_x
_atom_site_fract_y
_atom_site_fract_z
_atom_type_partial_charge
O0 O 0.17459 0.40218 0.3124 0.0
Cd1 Cd 0.20262 0.42197 0.31658 0.0
Cd2 Cd 0.17523 0.44088 0.35034 0.0
O3 O 0.15454 0.41428 0.34224 0.0
O4 O 0.22702 0.4052 0.30055 0.0
O5 O 0.22697 0.41169 0.33859 0.0
C6 C 0.23642 0.40256 0.32065 0.0
C7 C 0.17772 0.45354 0.38907 0.0
C8 C 0.15707 0.40112 0.32496 0.0
C9 C 0.18837 0.46874 0.30769 0.0
O10 O 0.17665 0.46631 0.32605 0.0
O11 O 0.20153 0.45329 0.3011 0.0
O12 O 0.16009 0.45672 0.37661 0.0
O13 O 0.19389 0.44221 0.37993 0.0
O14 O 0.40203 0.83032 0.69268 0.0
Cd15 Cd 0.4237 0.80426 0.68546 0.0
Cd16 Cd 0.43755 0.83414 0.65306 0.0
O17 O 0.40871 0.85125 0.66174 0.0
O18 O 0.40992 0.77806 0.70152 0.0
O19 O 0.41381 0.78003 0.66315 0.0
C20 C 0.40655 0.76929 0.68124 0.0
C21 C 0.44903 0.83012 0.6141 0.0
C22 C 0.39769 0.84748 0.68035 0.0
C23 C 0.46858 0.82371 0.69335 0.0
O24 O 0.4634 0.83684 0.67673 0.0
O25 O 0.45587 0.80741 0.69859 0.0
O26 O 0.44939 0.84921 0.62451 0.0
O27 O 0.4412 0.81322 0.62555 0.0
O28 O 0.83018 0.60457 0.3121 0.0
Cd29 Cd 0.804 0.58318 0.3197 0.0
Cd30 Cd 0.83351 0.56961 0.35218 0.0
O31 O 0.85085 0.59823 0.34329 0.0
O32 O 0.77751 0.59708 0.30424 0.0
O33 O 0.78032 0.59324 0.34257 0.0
C34 C 0.76921 0.60054 0.32474 0.0
C35 C 0.82901 0.55849 0.39119 0.0
C36 C 0.8473 0.60897 0.32446 0.0
C37 C 0.82328 0.53822 0.3122 0.0
O38 O 0.83634 0.54355 0.32881 0.0
O39 O 0.80698 0.55089 0.30681 0.0
O40 O 0.84823 0.55797 0.38101 0.0
O41 O 0.81227 0.5663 0.37947 0.0
O42 O 0.60326 0.17415 0.69462 0.0
Cd43 Cd 0.58251 0.20126 0.68946 0.0
Cd44 Cd 0.56531 0.17405 0.6555 0.0
O45 O 0.59245 0.15418 0.66426 0.0
O46 O 0.59797 0.22708 0.7044 0.0
O47 O 0.59171 0.22502 0.66634 0.0
C48 C 0.60023 0.23569 0.68385 0.0
C49 C 0.55432 0.17751 0.61626 0.0
C50 C 0.6051 0.1568 0.68194 0.0
C51 C 0.5359 0.18565 0.69717 0.0
O52 O 0.53891 0.17415 0.67875 0.0
O53 O 0.55099 0.19901 0.70424 0.0
O54 O 0.55213 0.15904 0.62759 0.0
O55 O 0.56364 0.19407 0.62696 0.0
O56 O 0.17706 0.60158 0.69659 0.0
Cd57 Cd 0.2048 0.58146 0.6919 0.0
Cd58 Cd 0.17696 0.56251 0.65883 0.0
O59 O 0.15613 0.58874 0.66779 0.0
O60 O 0.2299 0.59812 0.70681 0.0
O61 O 0.22864 0.59091 0.66893 0.0
C62 C 0.23878 0.60016 0.68638 0.0
C63 C 0.17913 0.55081 0.61973 0.0
C64 C 0.15909 0.60223 0.6847 0.0
C65 C 0.19082 0.53453 0.70099 0.0
O66 O 0.17902 0.53678 0.68267 0.0
O67 O 0.20375 0.55019 0.70755 0.0
O68 O 0.16167 0.54718 0.63232 0.0
O69 O 0.19534 0.56196 0.62903 0.0
O70 O 0.60555 0.83133 0.31172 0.0
Cd71 Cd 0.58436 0.80493 0.31874 0.0
Cd72 Cd 0.56956 0.83406 0.3517 0.0
O73 O 0.59742 0.85246 0.34212 0.0
O74 O 0.59872 0.7786 0.30346 0.0
O75 O 0.59412 0.7812 0.34171 0.0
C76 C 0.60178 0.7702 0.32398 0.0
C77 C 0.55938 0.83023 0.3911 0.0
C78 C 0.60891 0.84886 0.32379 0.0
C79 C 0.53853 0.82273 0.31146 0.0
O80 O 0.54291 0.83524 0.32884 0.0
O81 O 0.55233 0.80769 0.3052 0.0
O82 O 0.55775 0.84906 0.3803 0.0
O83 O 0.56768 0.81351 0.37974 0.0
O84 O 0.82779 0.40491 0.69568 0.0
Cd85 Cd 0.80036 0.4247 0.68914 0.0
Cd86 Cd 0.82814 0.44199 0.65537 0.0
O87 O 0.84884 0.41605 0.66622 0.0
O88 O 0.77462 0.40897 0.70397 0.0
O89 O 0.77728 0.41435 0.66581 0.0
C90 C 0.76646 0.40601 0.68333 0.0
C91 C 0.82553 0.45098 0.61552 0.0
C92 C 0.84581 0.40358 0.68399 0.0
C93 C 0.81383 0.4722 0.69548 0.0
O94 O 0.82556 0.46942 0.67717 0.0
O95 O 0.80154 0.45651 0.7032 0.0
O96 O 0.84352 0.45451 0.62731 0.0
O97 O 0.80902 0.44145 0.62616 0.0
O98 O 0.40216 0.17087 0.3123 0.0
Cd99 Cd 0.42303 0.19767 0.3187 0.0
Cd100 Cd 0.43853 0.16947 0.35202 0.0
O101 O 0.41052 0.15088 0.34348 0.0
O102 O 0.4084 0.22331 0.30251 0.0
O103 O 0.41258 0.22178 0.34087 0.0
C104 C 0.40492 0.23216 0.32273 0.0
C105 C 0.44874 0.17466 0.3912 0.0
C106 C 0.3989 0.1538 0.32511 0.0
C107 C 0.46908 0.18042 0.31139 0.0
O108 O 0.46497 0.1679 0.32885 0.0
O109 O 0.45507 0.19529 0.30522 0.0
O110 O 0.45041 0.15546 0.38114 0.0
O111 O 0.44051 0.19101 0.37917 0.0
O112 O 0.67475 0.90466 0.81081 0.0
Cd113 Cd 0.70229 0.92471 0.8168 0.0
Cd114 Cd 0.674 0.94306 0.84886 0.0
O115 O 0.65331 0.9169 0.83944 0.0
O116 O 0.72725 0.90871 0.80088 0.0
O117 O 0.72631 0.91408 0.83908 0.0
C118 C 0.73626 0.90562 0.82109 0.0
C119 C 0.67859 0.95258 0.88829 0.0
C120 C 0.65657 0.90377 0.82229 0.0
C121 C 0.68789 0.97178 0.80787 0.0
O122 O 0.67529 0.96934 0.82559 0.0
O123 O 0.70138 0.95633 0.80197 0.0
O124 O 0.65999 0.95595 0.87749 0.0
O125 O 0.69466 0.94317 0.87683 0.0
O126 O 0.90584 0.33173 0.1958 0.0
Cd127 Cd 0.92579 0.3041 0.18975 0.0
Cd128 Cd 0.94503 0.33266 0.1583 0.0
O129 O 0.91909 0.35359 0.16796 0.0
O130 O 0.90956 0.27834 0.20393 0.0
O131 O 0.91573 0.28134 0.16592 0.0
C132 C 0.90704 0.27038 0.18316 0.0
C133 C 0.9559 0.32989 0.11899 0.0
C134 C 0.9055 0.35016 0.18471 0.0
C135 C 0.97285 0.31744 0.19968 0.0
O136 O 0.97088 0.33007 0.18193 0.0
O137 O 0.95704 0.30433 0.20539 0.0
O138 O 0.95972 0.34759 0.13116 0.0
O139 O 0.94505 0.3138 0.12892 0.0
O140 O 0.33031 0.10087 0.8105 0.0
Cd141 Cd 0.30198 0.08159 0.81385 0.0
Cd142 Cd 0.32842 0.06015 0.8474 0.0
O143 O 0.3511 0.08469 0.83754 0.0
O144 O 0.27806 0.09928 0.79816 0.0
O145 O 0.27738 0.09121 0.83587 0.0
C146 C 0.26827 0.10107 0.81815 0.0
C147 C 0.32644 0.0495 0.88689 0.0
C148 C 0.3486 0.09945 0.82171 0.0
C149 C 0.31269 0.03351 0.80508 0.0
O150 O 0.32329 0.03414 0.82433 0.0
O151 O 0.3026 0.05075 0.79747 0.0
O152 O 0.34337 0.04454 0.87399 0.0
O153 O 0.31068 0.0613 0.87759 0.0
O154 O 0.10263 0.67015 0.1895 0.0
Cd155 Cd 0.08276 0.6982 0.18691 0.0
Cd156 Cd 0.06072 0.67141 0.1542 0.0
O157 O 0.08542 0.64878 0.16367 0.0
O158 O 0.10044 0.72171 0.2032 0.0
O159 O 0.09239 0.72336 0.16554 0.0
C160 C 0.10237 0.73193 0.18346 0.0
C161 C 0.05015 0.67468 0.11486 0.0
C162 C 0.10084 0.65169 0.17868 0.0
C163 C 0.03467 0.68698 0.19668 0.0
O164 O 0.03496 0.67617 0.17756 0.0
O165 O 0.05202 0.69724 0.20377 0.0
O166 O 0.04571 0.65706 0.12693 0.0
O167 O 0.06137 0.69042 0.12491 0.0
O168 O 0.67436 0.10259 0.19199 0.0
Cd169 Cd 0.7031 0.08378 0.18955 0.0
Cd170 Cd 0.67723 0.0607 0.15692 0.0
O171 O 0.65352 0.08432 0.16653 0.0
O172 O 0.72595 0.10304 0.20492 0.0
O173 O 0.72799 0.09315 0.16773 0.0
C174 C 0.73613 0.10431 0.1851 0.0
C175 C 0.67989 0.04992 0.11755 0.0
C176 C 0.65587 0.09992 0.18143 0.0
C177 C 0.6937 0.03563 0.19987 0.0
O178 O 0.68332 0.03535 0.18048 0.0
O179 O 0.70303 0.05344 0.20711 0.0
O180 O 0.66289 0.04472 0.13024 0.0
O181 O 0.69538 0.06192 0.12703 0.0
O182 O 0.10327 0.3327 0.81338 0.0
Cd183 Cd 0.08256 0.30522 0.81499 0.0
Cd184 Cd 0.06083 0.33209 0.84806 0.0
O185 O 0.08596 0.35437 0.8389 0.0
O186 O 0.09983 0.28113 0.79906 0.0
O187 O 0.09066 0.27964 0.83647 0.0
C188 C 0.10076 0.27074 0.81879 0.0
C189 C 0.04964 0.32943 0.88731 0.0
C190 C 0.10165 0.35116 0.82424 0.0
C191 C 0.03495 0.31758 0.8049 0.0
O192 O 0.03523 0.32766 0.82444 0.0
O193 O 0.05224 0.30741 0.79749 0.0
O194 O 0.0451 0.3467 0.87475 0.0
O195 O 0.06134 0.3137 0.87782 0.0
O196 O 0.33345 0.90426 0.19297 0.0
Cd197 Cd 0.30433 0.92253 0.19015 0.0
Cd198 Cd 0.33089 0.94704 0.15911 0.0
O199 O 0.35481 0.92371 0.1689 0.0
O200 O 0.28169 0.90318 0.20579 0.0
O201 O 0.27975 0.91219 0.16839 0.0
C202 C 0.27158 0.90138 0.186 0.0
C203 C 0.32838 0.95818 0.11985 0.0
C204 C 0.35224 0.90761 0.18321 0.0
C205 C 0.31263 0.97075 0.20192 0.0
O206 O 0.32375 0.97178 0.18301 0.0
O207 O 0.3033 0.95259 0.20813 0.0
O208 O 0.34489 0.96405 0.13292 0.0
O209 O 0.31338 0.94526 0.12888 0.0
O210 O 0.90679 0.67749 0.80568 0.0
Cd211 Cd 0.92654 0.70441 0.81465 0.0
Cd212 Cd 0.94169 0.67487 0.84699 0.0
O213 O 0.91509 0.65559 0.83545 0.0
O214 O 0.91174 0.7305 0.79949 0.0
O215 O 0.91476 0.727 0.83784 0.0
C216 C 0.90742 0.73816 0.82007 0.0
C217 C 0.94983 0.6779 0.88693 0.0
C218 C 0.90393 0.65938 0.81693 0.0
C219 C 0.97357 0.68944 0.80872 0.0
O220 O 0.9694 0.67612 0.82549 0.0
O221 O 0.95902 0.70367 0.80228 0.0
O222 O 0.95285 0.6595 0.87566 0.0
O223 O 0.9413 0.69459 0.87568 0.0
H224 H 0.25718 0.3882 0.36084 0.0
H225 H 0.2881 0.36142 0.36399 0.0
H226 H 0.29214 0.35802 0.28876 0.0
H227 H 0.2612 0.38436 0.2855 0.0
H228 H 0.29064 0.31738 0.30705 0.0
H229 H 0.33217 0.38492 0.32223 0.0
H230 H 0.34077 0.42005 0.3429 0.0
H231 H 0.34936 0.38382 0.40712 0.0
H232 H 0.34052 0.3485 0.38687 0.0
H233 H 0.38928 0.25846 0.28743 0.0
H234 H 0.36299 0.2895 0.29019 0.0
H235 H 0.36251 0.28336 0.36532 0.0
H236 H 0.38918 0.25224 0.36274 0.0
H237 H 0.3616 0.32784 0.35063 0.0
H238 H 0.32125 0.26038 0.33546 0.0
H239 H 0.31274 0.22511 0.31502 0.0
H240 H 0.30142 0.26122 0.2512 0.0
H241 H 0.31019 0.29669 0.27118 0.0
C242 C 0.26487 0.38197 0.34499 0.0
C243 C 0.25665 0.38835 0.32292 0.0
C244 C 0.28258 0.36669 0.34681 0.0
C245 C 0.29249 0.3577 0.3266 0.0
C246 C 0.28471 0.36463 0.3046 0.0
C247 C 0.26703 0.37976 0.30277 0.0
C248 C 0.31004 0.34009 0.32808 0.0
C249 C 0.30626 0.31983 0.31635 0.0
C250 C 0.3301 0.34289 0.34092 0.0
C251 C 0.33544 0.3641 0.35309 0.0
C252 C 0.3357 0.38447 0.3408 0.0
C253 C 0.34066 0.40441 0.35243 0.0
C254 C 0.34554 0.40418 0.37632 0.0
C255 C 0.34554 0.38399 0.38862 0.0
C256 C 0.34057 0.364 0.37707 0.0
C257 C 0.38384 0.26384 0.3046 0.0
C258 C 0.39118 0.25271 0.32486 0.0
C259 C 0.36875 0.28158 0.30613 0.0
C260 C 0.36047 0.28849 0.32793 0.0
C261 C 0.36862 0.27823 0.34831 0.0
C262 C 0.38383 0.26044 0.3468 0.0
C263 C 0.34236 0.30549 0.32907 0.0
C264 C 0.34594 0.32547 0.34139 0.0
C265 C 0.32201 0.30247 0.31683 0.0
C266 C 0.31656 0.28118 0.30478 0.0
C267 C 0.3171 0.26078 0.31703 0.0
C268 C 0.31221 0.24076 0.30553 0.0
C269 C 0.30659 0.24092 0.28182 0.0
C270 C 0.30579 0.26112 0.26957 0.0
C271 C 0.3107 0.28119 0.28097 0.0
H272 H 0.3028 0.22539 0.27295 0.0
H273 H 0.34938 0.41963 0.38529 0.0
H274 H 0.38873 0.74418 0.71638 0.0
H275 H 0.36425 0.71185 0.71304 0.0
H276 H 0.36997 0.71431 0.63788 0.0
H277 H 0.39428 0.7472 0.64109 0.0
H278 H 0.32749 0.70978 0.65045 0.0
H279 H 0.39505 0.67203 0.67014 0.0
H280 H 0.42956 0.66456 0.69241 0.0
H281 H 0.39085 0.65237 0.75436 0.0
H282 H 0.35612 0.66006 0.73256 0.0
H283 H 0.26018 0.611 0.64535 0.0
H284 H 0.29245 0.63585 0.64042 0.0
H285 H 0.29569 0.64513 0.71514 0.0
H286 H 0.26384 0.6202 0.7202 0.0
H287 H 0.33678 0.64056 0.69726 0.0
H288 H 0.27037 0.68363 0.67907 0.0
H289 H 0.23563 0.69187 0.65748 0.0
H290 H 0.27242 0.69433 0.59303 0.0
H291 H 0.30735 0.68583 0.61424 0.0
C292 C 0.38505 0.73773 0.69911 0.0
C293 C 0.39351 0.7483 0.67899 0.0
C294 C 0.3711 0.71911 0.69723 0.0
C295 C 0.36545 0.7104 0.67522 0.0
C296 C 0.37416 0.72067 0.65507 0.0
C297 C 0.38812 0.73941 0.65693 0.0
C298 C 0.34937 0.69146 0.67345 0.0
C299 C 0.32979 0.69442 0.66026 0.0
C300 C 0.35211 0.67154 0.68656 0.0
C301 C 0.37297 0.66675 0.69972 0.0
C302 C 0.3939 0.66789 0.68855 0.0
C303 C 0.4135 0.6636 0.70108 0.0
C304 C 0.4124 0.65803 0.72479 0.0
C305 C 0.39168 0.65669 0.73599 0.0
C306 C 0.37203 0.66098 0.72354 0.0
C307 C 0.26793 0.61816 0.66073 0.0
C308 C 0.25934 0.61369 0.68316 0.0
C309 C 0.28631 0.63244 0.65788 0.0
C310 C 0.29636 0.64259 0.6774 0.0
C311 C 0.28825 0.63753 0.69982 0.0
C312 C 0.26995 0.6233 0.70267 0.0
C313 C 0.31475 0.65916 0.67472 0.0
C314 C 0.33473 0.65574 0.6871 0.0
C315 C 0.31237 0.67868 0.66092 0.0
C316 C 0.2914 0.68383 0.64819 0.0
C317 C 0.27101 0.68576 0.66027 0.0
C318 C 0.25129 0.6905 0.64811 0.0
C319 C 0.2518 0.69355 0.62389 0.0
C320 C 0.27204 0.69192 0.61179 0.0
C321 C 0.2918 0.68715 0.62386 0.0
H322 H 0.23652 0.69723 0.6145 0.0
H323 H 0.4276 0.65472 0.73446 0.0
H324 H 0.61925 0.7438 0.28967 0.0
H325 H 0.64361 0.71144 0.29407 0.0
H326 H 0.63864 0.71667 0.36912 0.0
H327 H 0.61438 0.74951 0.36483 0.0
H328 H 0.68121 0.71167 0.35588 0.0
H329 H 0.61302 0.67357 0.33939 0.0
H330 H 0.57813 0.66543 0.31808 0.0
H331 H 0.61582 0.65013 0.25621 0.0
H332 H 0.65093 0.65847 0.27704 0.0
H333 H 0.74845 0.61347 0.36545 0.0
H334 H 0.71613 0.63842 0.36946 0.0
H335 H 0.71113 0.64302 0.29436 0.0
H336 H 0.74297 0.6179 0.29023 0.0
H337 H 0.67059 0.64034 0.3131 0.0
H338 H 0.73758 0.68361 0.32752 0.0
H339 H 0.77281 0.69267 0.34784 0.0
H340 H 0.73734 0.69882 0.41282 0.0
H341 H 0.70193 0.68951 0.39291 0.0
C342 C 0.62308 0.73796 0.30715 0.0
C343 C 0.61482 0.74927 0.32691 0.0
C344 C 0.63696 0.71933 0.30964 0.0
C345 C 0.6428 0.71139 0.33193 0.0
C346 C 0.63431 0.72242 0.35174 0.0
C347 C 0.62038 0.74114 0.34926 0.0
C348 C 0.6588 0.69244 0.33433 0.0
C349 C 0.67864 0.69587 0.34696 0.0
C350 C 0.65571 0.67196 0.32234 0.0
C351 C 0.63462 0.66678 0.30976 0.0
C352 C 0.61387 0.66861 0.3212 0.0
C353 C 0.59405 0.66394 0.30921 0.0
C354 C 0.59476 0.6573 0.2858 0.0
C355 C 0.6153 0.65527 0.27434 0.0
C356 C 0.63517 0.65994 0.28625 0.0
C357 C 0.74027 0.61958 0.3498 0.0
C358 C 0.74839 0.61378 0.32752 0.0
C359 C 0.72187 0.63394 0.35212 0.0
C360 C 0.71136 0.64289 0.3322 0.0
C361 C 0.71892 0.63638 0.30999 0.0
C362 C 0.73722 0.62203 0.30766 0.0
C363 C 0.69315 0.65978 0.33421 0.0
C364 C 0.67294 0.65598 0.32238 0.0
C365 C 0.69593 0.67996 0.34684 0.0
C366 C 0.71718 0.6856 0.35879 0.0
C367 C 0.73733 0.68672 0.34618 0.0
C368 C 0.75732 0.69193 0.35761 0.0
C369 C 0.75732 0.69624 0.38162 0.0
C370 C 0.73732 0.69542 0.39424 0.0
C371 C 0.71729 0.69019 0.38289 0.0
H372 H 0.77281 0.70028 0.39045 0.0
H373 H 0.57939 0.6537 0.27654 0.0
H374 H 0.61375 0.25518 0.6427 0.0
H375 H 0.63837 0.28766 0.63799 0.0
H376 H 0.64122 0.29541 0.71291 0.0
H377 H 0.61662 0.26322 0.71774 0.0
H378 H 0.63749 0.33555 0.69131 0.0
H379 H 0.68268 0.26882 0.68356 0.0
H380 H 0.69336 0.23266 0.66611 0.0
H381 H 0.70198 0.2643 0.59929 0.0
H382 H 0.69106 0.30061 0.61631 0.0
H383 H 0.739 0.38934 0.71716 0.0
H384 H 0.70723 0.36429 0.71236 0.0
H385 H 0.71562 0.36639 0.63748 0.0
H386 H 0.74777 0.39147 0.64217 0.0
H387 H 0.71104 0.32397 0.65303 0.0
H388 H 0.67104 0.39207 0.66277 0.0
H389 H 0.66111 0.42806 0.68102 0.0
H390 H 0.64307 0.39413 0.74445 0.0
H391 H 0.65319 0.35794 0.72671 0.0
C392 C 0.61941 0.26398 0.65814 0.0
C393 C 0.61332 0.25652 0.6806 0.0
C394 C 0.63355 0.28248 0.65543 0.0
C395 C 0.64184 0.29383 0.67512 0.0
C396 C 0.63505 0.28693 0.69747 0.0
C397 C 0.62102 0.26844 0.70019 0.0
C398 C 0.6584 0.31224 0.67276 0.0
C399 C 0.6536 0.33302 0.68301 0.0
C400 C 0.6792 0.30915 0.66137 0.0
C401 C 0.68578 0.28735 0.65113 0.0
C402 C 0.68666 0.26802 0.66511 0.0
C403 C 0.6928 0.24751 0.6553 0.0
C404 C 0.69827 0.24617 0.63159 0.0
C405 C 0.69768 0.26535 0.61765 0.0
C406 C 0.69153 0.2859 0.62736 0.0
C407 C 0.73398 0.38472 0.69962 0.0
C408 C 0.74595 0.39243 0.68004 0.0
C409 C 0.7157 0.37044 0.6969 0.0
C410 C 0.70886 0.3636 0.67454 0.0
C411 C 0.72055 0.37151 0.65489 0.0
C412 C 0.73886 0.3859 0.6576 0.0
C413 C 0.69033 0.34717 0.67203 0.0
C414 C 0.69477 0.32673 0.66092 0.0
C415 C 0.66922 0.35056 0.68269 0.0
C416 C 0.66302 0.37229 0.69343 0.0
C417 C 0.66511 0.39229 0.68067 0.0
C418 C 0.65942 0.41272 0.69092 0.0
C419 C 0.6515 0.41338 0.71389 0.0
C420 C 0.64921 0.39359 0.72665 0.0
C421 C 0.65489 0.37311 0.7165 0.0
H422 H 0.64711 0.42922 0.7218 0.0
H423 H 0.70302 0.23028 0.62403 0.0
H424 H 0.75714 0.89139 0.86129 0.0
H425 H 0.78844 0.86502 0.86437 0.0
H426 H 0.79251 0.86184 0.78914 0.0
H427 H 0.76129 0.88783 0.78593 0.0
H428 H 0.79118 0.82099 0.80775 0.0
H429 H 0.83205 0.8891 0.82188 0.0
H430 H 0.84053 0.92446 0.84216 0.0
H431 H 0.85047 0.88876 0.90649 0.0
H432 H 0.84176 0.8532 0.88664 0.0
H433 H 0.89092 0.765 0.78566 0.0
H434 H 0.86399 0.79535 0.78949 0.0
H435 H 0.86417 0.78731 0.86441 0.0
H436 H 0.89142 0.75676 0.86076 0.0
H437 H 0.86265 0.83262 0.85007 0.0
H438 H 0.82327 0.76445 0.83557 0.0
H439 H 0.81508 0.72906 0.81522 0.0
H440 H 0.80199 0.76507 0.75171 0.0
H441 H 0.81043 0.80066 0.77159 0.0
C442 C 0.76491 0.88529 0.84543 0.0
C443 C 0.75664 0.89164 0.82337 0.0
C444 C 0.78284 0.87025 0.84721 0.0
C445 C 0.79284 0.86143 0.82697 0.0
C446 C 0.785 0.86832 0.80499 0.0
C447 C 0.76715 0.88325 0.8032 0.0
C448 C 0.81057 0.84403 0.82839 0.0
C449 C 0.80689 0.82368 0.8168 0.0
C450 C 0.83077 0.84717 0.84089 0.0
C451 C 0.836 0.86852 0.85283 0.0
C452 C 0.83584 0.88881 0.8404 0.0
C453 C 0.84073 0.90889 0.8518 0.0
C454 C 0.84596 0.90887 0.87561 0.0
C455 C 0.84638 0.88876 0.88805 0.0
C456 C 0.84148 0.86864 0.87673 0.0
C457 C 0.88549 0.76979 0.80302 0.0
C458 C 0.89318 0.75828 0.8229 0.0
C459 C 0.87004 0.78716 0.80516 0.0
C460 C 0.86181 0.79336 0.8272 0.0
C461 C 0.87027 0.78272 0.84723 0.0
C462 C 0.88579 0.76526 0.84511 0.0
C463 C 0.8434 0.80995 0.8289 0.0
C464 C 0.84687 0.82999 0.84114 0.0
C465 C 0.82291 0.80658 0.81703 0.0
C466 C 0.81767 0.78521 0.80504 0.0
C467 C 0.81881 0.76481 0.81722 0.0
C468 C 0.8141 0.74472 0.80578 0.0
C469 C 0.80807 0.74481 0.78217 0.0
C470 C 0.80668 0.76501 0.76998 0.0
C471 C 0.81141 0.78516 0.78134 0.0
H472 H 0.80442 0.72924 0.77334 0.0
H473 H 0.84975 0.92442 0.88441 0.0
H474 H 0.76771 0.10422 0.15012 0.0
H475 H 0.79951 0.12999 0.14565 0.0
H476 H 0.78001 0.16401 0.20888 0.0
H477 H 0.74876 0.13819 0.21379 0.0
H478 H 0.78843 0.19243 0.16761 0.0
H479 H 0.82043 0.1327 0.2147 0.0
H480 H 0.83073 0.09349 0.22252 0.0
H481 H 0.87089 0.09233 0.16027 0.0
H482 H 0.86054 0.13148 0.15191 0.0
H483 H 0.89638 0.23851 0.21526 0.0
H484 H 0.8703 0.20737 0.21067 0.0
H485 H 0.86021 0.22535 0.13842 0.0
H486 H 0.88667 0.25645 0.14278 0.0
H487 H 0.86745 0.16974 0.17958 0.0
H488 H 0.80186 0.2217 0.13134 0.0
H489 H 0.79126 0.26116 0.12525 0.0
H490 H 0.81787 0.27813 0.19268 0.0
H491 H 0.82833 0.23874 0.19927 0.0
C492 C 0.77031 0.11713 0.1631 0.0
C493 C 0.75578 0.11913 0.18234 0.0
C494 C 0.78844 0.13181 0.16053 0.0
C495 C 0.792 0.14891 0.17691 0.0
C496 C 0.77748 0.15096 0.19603 0.0
C497 C 0.7597 0.13609 0.19885 0.0
C498 C 0.81074 0.16492 0.17436 0.0
C499 C 0.80573 0.18743 0.16991 0.0
C500 C 0.83327 0.15839 0.1775 0.0
C501 C 0.83948 0.1349 0.18252 0.0
C502 C 0.83126 0.12401 0.20255 0.0
C503 C 0.83715 0.10181 0.20711 0.0
C504 C 0.85139 0.09039 0.19185 0.0
C505 C 0.85982 0.10117 0.17204 0.0
C506 C 0.85395 0.12337 0.16739 0.0
C507 C 0.88891 0.23562 0.19827 0.0
C508 C 0.89347 0.25 0.17941 0.0
C509 C 0.87411 0.21775 0.19566 0.0
C510 C 0.86326 0.21412 0.17426 0.0
C511 C 0.86842 0.2279 0.15509 0.0
C512 C 0.88354 0.24562 0.1576 0.0
C513 C 0.84512 0.19728 0.17285 0.0
C514 C 0.85021 0.17465 0.17665 0.0
C515 C 0.82261 0.20369 0.16921 0.0
C516 C 0.81612 0.22735 0.16563 0.0
C517 C 0.80539 0.23386 0.14486 0.0
C518 C 0.79941 0.25621 0.14133 0.0
C519 C 0.80397 0.27216 0.15852 0.0
C520 C 0.81444 0.26578 0.17933 0.0
C521 C 0.82042 0.24346 0.18296 0.0
H522 H 0.79935 0.28946 0.15575 0.0
H523 H 0.85594 0.07321 0.19542 0.0
H524 H 0.10856 0.24564 0.85827 0.0
H525 H 0.13294 0.21283 0.86188 0.0
H526 H 0.1477 0.2164 0.78813 0.0
H527 H 0.12321 0.24873 0.78432 0.0
H528 H 0.14189 0.17412 0.80104 0.0
H529 H 0.18341 0.23797 0.83022 0.0
H530 H 0.18983 0.27015 0.85633 0.0
H531 H 0.18724 0.22677 0.91612 0.0
H532 H 0.18052 0.19437 0.89035 0.0
H533 H 0.24653 0.12411 0.78391 0.0
H534 H 0.21437 0.14875 0.78786 0.0
H535 H 0.21113 0.13417 0.86166 0.0
H536 H 0.24383 0.10963 0.85791 0.0
H537 H 0.20741 0.17808 0.85405 0.0
H538 H 0.17161 0.11321 0.82359 0.0
H539 H 0.1661 0.08136 0.79687 0.0
H540 H 0.15829 0.12653 0.73907 0.0
H541 H 0.16406 0.15866 0.76538 0.0
C542 C 0.11683 0.23927 0.8428 0.0
C543 C 0.11402 0.24988 0.82103 0.0
C544 C 0.13084 0.22058 0.8449 0.0
C545 C 0.14239 0.21228 0.82532 0.0
C546 C 0.13899 0.22245 0.80349 0.0
C547 C 0.12501 0.24103 0.80137 0.0
C548 C 0.15868 0.19357 0.82738 0.0
C549 C 0.15626 0.17502 0.81257 0.0
C550 C 0.1771 0.19437 0.84293 0.0
C551 C 0.18119 0.21382 0.85839 0.0
C552 C 0.18404 0.23533 0.84894 0.0
C553 C 0.18776 0.2536 0.86368 0.0
C554 C 0.18887 0.25051 0.88787 0.0
C555 C 0.18633 0.22914 0.89738 0.0
C556 C 0.18257 0.21082 0.88272 0.0
C557 C 0.23891 0.12592 0.80098 0.0
C558 C 0.24775 0.11483 0.82059 0.0
C559 C 0.22039 0.13997 0.80319 0.0
C560 C 0.21007 0.1431 0.825 0.0
C561 C 0.21874 0.13194 0.84463 0.0
C562 C 0.23738 0.11787 0.84245 0.0
C563 C 0.19095 0.15891 0.82722 0.0
C564 C 0.19283 0.17692 0.84283 0.0
C565 C 0.17206 0.15764 0.81235 0.0
C566 C 0.16839 0.13835 0.79647 0.0
C567 C 0.16885 0.11636 0.80516 0.0
C568 C 0.16566 0.09825 0.79008 0.0
C569 C 0.16188 0.10192 0.76628 0.0
C570 C 0.16122 0.12371 0.75751 0.0
C571 C 0.16441 0.14188 0.77251 0.0
H572 H 0.15942 0.08788 0.75464 0.0
H573 H 0.19176 0.26467 0.89925 0.0
H574 H 0.2462 0.89303 0.1468 0.0
H575 H 0.21542 0.86612 0.14298 0.0
H576 H 0.22198 0.84909 0.21595 0.0
H577 H 0.25256 0.8757 0.2199 0.0
H578 H 0.22116 0.81225 0.18842 0.0
H579 H 0.17875 0.88037 0.19708 0.0
H580 H 0.16721 0.9187 0.18677 0.0
H581 H 0.14682 0.89628 0.11872 0.0
H582 H 0.15853 0.85783 0.12853 0.0
H583 H 0.12564 0.75243 0.21828 0.0
H584 H 0.15242 0.78291 0.21481 0.0
H585 H 0.13906 0.7875 0.14088 0.0
H586 H 0.11198 0.75675 0.14418 0.0
H587 H 0.14367 0.82992 0.16344 0.0
H588 H 0.18379 0.76123 0.15592 0.0
H589 H 0.19487 0.72287 0.16666 0.0
H590 H 0.21978 0.7465 0.23257 0.0
H591 H 0.20853 0.78497 0.22238 0.0
C592 C 0.24092 0.88369 0.16206 0.0
C593 C 0.25189 0.88648 0.18364 0.0
C594 C 0.22331 0.86836 0.15986 0.0
C595 C 0.2164 0.85558 0.17919 0.0
C596 C 0.22708 0.85868 0.20078 0.0
C597 C 0.24454 0.87399 0.20301 0.0
C598 C 0.19874 0.83824 0.177 0.0
C599 C 0.20418 0.81618 0.18312 0.0
C600 C 0.17677 0.8432 0.16936 0.0
C601 C 0.16977 0.86629 0.16343 0.0
C602 C 0.17201 0.88365 0.17983 0.0
C603 C 0.16539 0.90539 0.1741 0.0
C604 C 0.15636 0.90994 0.15208 0.0
C605 C 0.15386 0.89274 0.13576 0.0
C606 C 0.16047 0.87097 0.1414 0.0
C607 C 0.12815 0.76001 0.20128 0.0
C608 C 0.11678 0.752 0.18146 0.0
C609 C 0.14353 0.77743 0.19933 0.0
C610 C 0.14795 0.78726 0.17754 0.0
C611 C 0.13592 0.78008 0.15785 0.0
C612 C 0.1205 0.7625 0.15977 0.0
C613 C 0.16603 0.80414 0.17546 0.0
C614 C 0.16072 0.82601 0.16848 0.0
C615 C 0.1882 0.79906 0.18229 0.0
C616 C 0.19515 0.77596 0.18845 0.0
C617 C 0.19147 0.75822 0.17278 0.0
C618 C 0.19781 0.73646 0.17876 0.0
C619 C 0.20798 0.73224 0.2003 0.0
C620 C 0.21189 0.74979 0.21589 0.0
C621 C 0.20555 0.77158 0.21001 0.0
H622 H 0.21288 0.71538 0.2049 0.0
H623 H 0.15124 0.92678 0.14768 0.0
H624 H 0.15866 0.50246 0.31525 0.0
H625 H 0.14988 0.53375 0.28986 0.0
H626 H 0.20167 0.51314 0.24193 0.0
H627 H 0.21012 0.481 0.2671 0.0
H628 H 0.16999 0.56865 0.27561 0.0
H629 H 0.18579 0.52754 0.18602 0.0
H630 H 0.18672 0.48999 0.16813 0.0
H631 H 0.14075 0.46589 0.22003 0.0
H632 H 0.13936 0.50333 0.23802 0.0
H633 H 0.14322 0.65373 0.19629 0.0
H634 H 0.16489 0.6231 0.21333 0.0
H635 H 0.11231 0.5768 0.19529 0.0
H636 H 0.09126 0.60715 0.17704 0.0
H637 H 0.14933 0.55567 0.19272 0.0
H638 H 0.11635 0.60393 0.25086 0.0
H639 H 0.10923 0.63981 0.27077 0.0
H640 H 0.17929 0.64656 0.28559 0.0
H641 H 0.18685 0.61082 0.26551 0.0
C642 C 0.16837 0.50456 0.29941 0.0
C643 C 0.18502 0.48906 0.29317 0.0
C644 C 0.16334 0.52259 0.28489 0.0
C645 C 0.17491 0.52576 0.2638 0.0
C646 C 0.19222 0.51086 0.2579 0.0
C647 C 0.19713 0.49256 0.27238 0.0
C648 C 0.16806 0.5443 0.24795 0.0
C649 C 0.1657 0.56582 0.25742 0.0
C650 C 0.16213 0.54066 0.22427 0.0
C651 C 0.16273 0.51814 0.21352 0.0
C652 C 0.17587 0.51422 0.19357 0.0
C653 C 0.17647 0.49296 0.18342 0.0
C654 C 0.16388 0.47554 0.193 0.0
C655 C 0.15058 0.47936 0.21269 0.0
C656 C 0.14989 0.50059 0.22288 0.0
C657 C 0.13654 0.63691 0.19553 0.0
C658 C 0.11545 0.63285 0.18556 0.0
C659 C 0.14887 0.61943 0.20539 0.0
C660 C 0.13998 0.59769 0.20625 0.0
C661 C 0.11954 0.5934 0.19498 0.0
C662 C 0.10747 0.61078 0.18456 0.0
C663 C 0.15082 0.57989 0.22056 0.0
C664 C 0.15402 0.55858 0.21079 0.0
C665 C 0.1567 0.58346 0.24429 0.0
C666 C 0.15219 0.60487 0.25646 0.0
C667 C 0.13025 0.61315 0.25825 0.0
C668 C 0.12613 0.63344 0.26957 0.0
C669 C 0.14381 0.64549 0.27938 0.0
C670 C 0.16563 0.63723 0.27794 0.0
C671 C 0.16983 0.61696 0.2666 0.0
H672 H 0.14059 0.6612 0.28814 0.0
H673 H 0.16438 0.4591 0.18513 0.0
H674 H 0.49173 0.79551 0.72272 0.0
H675 H 0.52469 0.80459 0.74641 0.0
H676 H 0.5229 0.87235 0.72046 0.0
H677 H 0.49093 0.86313 0.6961 0.0
H678 H 0.56293 0.8607 0.72115 0.0
H679 H 0.50341 0.85572 0.77707 0.0
H680 H 0.47206 0.83793 0.79804 0.0
H681 H 0.51589 0.78596 0.82222 0.0
H682 H 0.54745 0.80331 0.80114 0.0
H683 H 0.61257 0.90419 0.83571 0.0
H684 H 0.58134 0.88557 0.81624 0.0
H685 H 0.62753 0.85188 0.77026 0.0
H686 H 0.6588 0.87078 0.78926 0.0
H687 H 0.56607 0.84464 0.80621 0.0
H688 H 0.60777 0.85463 0.71507 0.0
H689 H 0.63559 0.87892 0.69577 0.0
H690 H 0.62111 0.93148 0.74461 0.0
H691 H 0.59298 0.90769 0.76387 0.0
C692 C 0.4985 0.81229 0.72202 0.0
C693 C 0.48877 0.82857 0.70747 0.0
C694 C 0.51725 0.81752 0.73568 0.0
C695 C 0.52623 0.83926 0.73549 0.0
C696 C 0.51647 0.85543 0.72088 0.0
C697 C 0.49811 0.85012 0.70694 0.0
C698 C 0.54579 0.84546 0.75026 0.0
C699 C 0.56359 0.857 0.73971 0.0
C700 C 0.54663 0.84113 0.77463 0.0
C701 C 0.52772 0.83067 0.78732 0.0
C702 C 0.50631 0.84041 0.78672 0.0
C703 C 0.48852 0.83042 0.79864 0.0
C704 C 0.49197 0.81079 0.81139 0.0
C705 C 0.51324 0.80114 0.8123 0.0
C706 C 0.53108 0.81105 0.80038 0.0
C707 C 0.61614 0.89247 0.82178 0.0
C708 C 0.63817 0.88927 0.81379 0.0
C709 C 0.59824 0.88178 0.81069 0.0
C710 C 0.60206 0.86766 0.79149 0.0
C711 C 0.62416 0.86302 0.78477 0.0
C712 C 0.64203 0.87383 0.79569 0.0
C713 C 0.583 0.85979 0.777 0.0
C714 C 0.56542 0.84798 0.78758 0.0
C715 C 0.5818 0.86473 0.75282 0.0
C716 C 0.5985 0.87925 0.74108 0.0
C717 C 0.61049 0.8714 0.72162 0.0
C718 C 0.6263 0.88509 0.71068 0.0
C719 C 0.63017 0.90672 0.71899 0.0
C720 C 0.61816 0.91473 0.7382 0.0
C721 C 0.6023 0.90114 0.74914 0.0
H722 H 0.64243 0.91728 0.71053 0.0
H723 H 0.47817 0.80308 0.82062 0.0
H724 H 0.90628 0.39425 0.17165 0.0
H725 H 0.88724 0.42539 0.19085 0.0
H726 H 0.85267 0.37904 0.23593 0.0
H727 H 0.87197 0.34785 0.21718 0.0
H728 H 0.84596 0.44051 0.19997 0.0
H729 H 0.85427 0.39878 0.29126 0.0
H730 H 0.87822 0.37094 0.31102 0.0
H731 H 0.9317 0.38549 0.26326 0.0
H732 H 0.90826 0.41364 0.24357 0.0
H733 H 0.79542 0.51502 0.28254 0.0
H734 H 0.80478 0.48196 0.2591 0.0
H735 H 0.87219 0.48368 0.28604 0.0
H736 H 0.86268 0.51574 0.31011 0.0
H737 H 0.86043 0.44364 0.28533 0.0
H738 H 0.85642 0.50314 0.2292 0.0
H739 H 0.83892 0.53445 0.2079 0.0
H740 H 0.78734 0.4906 0.18297 0.0
H741 H 0.8044 0.45908 0.20437 0.0
C742 C 0.8943 0.39062 0.18533 0.0
C743 C 0.89094 0.36856 0.19313 0.0
C744 C 0.88336 0.40847 0.19625 0.0
C745 C 0.86884 0.40459 0.21512 0.0
C746 C 0.86411 0.38246 0.22168 0.0
C747 C 0.87515 0.36464 0.21091 0.0
C748 C 0.86061 0.4236 0.22947 0.0
C749 C 0.84895 0.44116 0.21866 0.0
C750 C 0.86508 0.42478 0.25375 0.0
C751 C 0.87939 0.40809 0.26577 0.0
C752 C 0.87116 0.39607 0.28506 0.0
C753 C 0.88466 0.38025 0.29625 0.0
C754 C 0.90645 0.3764 0.28836 0.0
C755 C 0.91483 0.38843 0.26934 0.0
C756 C 0.90143 0.40431 0.25815 0.0
C757 C 0.81217 0.50821 0.28352 0.0
C758 C 0.82826 0.51795 0.29826 0.0
C759 C 0.81757 0.4894 0.27 0.0
C760 C 0.8393 0.48038 0.27055 0.0
C761 C 0.85527 0.49014 0.28535 0.0
C762 C 0.8498 0.50856 0.29913 0.0
C763 C 0.84571 0.46078 0.25592 0.0
C764 C 0.85707 0.44298 0.2667 0.0
C765 C 0.84181 0.45993 0.23148 0.0
C766 C 0.83154 0.47882 0.21859 0.0
C767 C 0.84125 0.50022 0.21931 0.0
C768 C 0.83143 0.51799 0.2072 0.0
C769 C 0.81199 0.51453 0.19415 0.0
C770 C 0.80237 0.49327 0.19313 0.0
C771 C 0.81212 0.47544 0.20523 0.0
H772 H 0.80441 0.52831 0.18478 0.0
H773 H 0.91686 0.36412 0.29702 0.0
H774 H 0.49897 0.16176 0.68473 0.0
H775 H 0.46713 0.15172 0.70912 0.0
H776 H 0.4945 0.1902 0.76609 0.0
H777 H 0.52648 0.20063 0.74158 0.0
H778 H 0.46823 0.12756 0.74791 0.0
H779 H 0.44982 0.20731 0.8012 0.0
H780 H 0.45281 0.24828 0.79721 0.0
H781 H 0.44725 0.24245 0.7226 0.0
H782 H 0.44394 0.2015 0.72617 0.0
H783 H 0.39229 0.09669 0.83614 0.0
H784 H 0.42452 0.11609 0.81933 0.0
H785 H 0.38066 0.15334 0.77389 0.0
H786 H 0.34837 0.13425 0.79068 0.0
H787 H 0.41613 0.17902 0.7887 0.0
H788 H 0.4033 0.10617 0.75454 0.0
H789 H 0.39825 0.06526 0.75566 0.0
H790 H 0.4633 0.05761 0.78645 0.0
H791 H 0.46858 0.09853 0.7858 0.0
C792 C 0.49815 0.16836 0.70235 0.0
C793 C 0.51538 0.18192 0.71123 0.0
C794 C 0.47994 0.16253 0.71631 0.0
C795 C 0.47845 0.17011 0.73947 0.0
C796 C 0.4952 0.18429 0.74821 0.0
C797 C 0.51348 0.19022 0.73417 0.0
C798 C 0.45993 0.16203 0.75461 0.0
C799 C 0.45695 0.13886 0.75692 0.0
C800 C 0.44513 0.17672 0.76633 0.0
C801 C 0.4469 0.20133 0.76396 0.0
C802 C 0.44918 0.21479 0.78395 0.0
C803 C 0.45093 0.238 0.78176 0.0
C804 C 0.4503 0.24796 0.75966 0.0
C805 C 0.44784 0.23472 0.7397 0.0
C806 C 0.44606 0.2115 0.7418 0.0
C807 C 0.38943 0.10934 0.82293 0.0
C808 C 0.36774 0.11367 0.81453 0.0
C809 C 0.40789 0.12039 0.81331 0.0
C810 C 0.405 0.13592 0.79513 0.0
C811 C 0.38328 0.14141 0.78788 0.0
C812 C 0.36484 0.13035 0.79743 0.0
C813 C 0.4245 0.14461 0.78187 0.0
C814 C 0.42767 0.1678 0.77994 0.0
C815 C 0.43932 0.12999 0.77011 0.0
C816 C 0.43623 0.10539 0.77037 0.0
C817 C 0.41645 0.09576 0.76171 0.0
C818 C 0.41356 0.07258 0.76223 0.0
C819 C 0.43042 0.05885 0.77118 0.0
C820 C 0.45023 0.06827 0.77956 0.0
C821 C 0.45319 0.09145 0.77912 0.0
H822 H 0.42815 0.0409 0.77157 0.0
H823 H 0.45167 0.26593 0.758 0.0
H824 H 0.21328 0.5224 0.74117 0.0
H825 H 0.20616 0.48958 0.76588 0.0
H826 H 0.15389 0.46863 0.71876 0.0
H827 H 0.1613 0.50059 0.69384 0.0
H828 H 0.17126 0.47741 0.79016 0.0
H829 H 0.14804 0.41442 0.71592 0.0
H830 H 0.16028 0.40541 0.67584 0.0
H831 H 0.22467 0.43419 0.68979 0.0
H832 H 0.21294 0.44308 0.73005 0.0
H833 H 0.09393 0.39605 0.82723 0.0
H834 H 0.11673 0.42603 0.81087 0.0
H835 H 0.16728 0.37797 0.79134 0.0
H836 H 0.14388 0.34781 0.80655 0.0
H837 H 0.16054 0.40174 0.75662 0.0
H838 H 0.17528 0.42038 0.83527 0.0
H839 H 0.16742 0.42834 0.87676 0.0
H840 H 0.12849 0.48566 0.85709 0.0
H841 H 0.13583 0.47788 0.81546 0.0
C842 C 0.20051 0.51058 0.73593 0.0
C843 C 0.18798 0.51409 0.71542 0.0
C844 C 0.19639 0.4919 0.75012 0.0
C845 C 0.1797 0.47641 0.74404 0.0
C846 C 0.16724 0.47996 0.72358 0.0
C847 C 0.17146 0.49839 0.70935 0.0
C848 C 0.17436 0.45699 0.75933 0.0
C849 C 0.16911 0.46079 0.78293 0.0
C850 C 0.17226 0.43512 0.75014 0.0
C851 C 0.17955 0.42953 0.726 0.0
C852 C 0.16486 0.41869 0.7105 0.0
C853 C 0.1717 0.41364 0.68772 0.0
C854 C 0.19322 0.41926 0.68026 0.0
C855 C 0.20798 0.4299 0.69557 0.0
C856 C 0.20123 0.43497 0.71836 0.0
C857 C 0.11011 0.39194 0.81987 0.0
C858 C 0.11707 0.36958 0.81806 0.0
C859 C 0.12325 0.40915 0.81061 0.0
C860 C 0.14392 0.40441 0.79995 0.0
C861 C 0.15139 0.38214 0.79931 0.0
C862 C 0.13803 0.36489 0.80808 0.0
C863 C 0.1565 0.42226 0.78734 0.0
C864 C 0.16307 0.41818 0.76413 0.0
C865 C 0.16049 0.44364 0.79716 0.0
C866 C 0.15602 0.44845 0.8222 0.0
C867 C 0.16491 0.4346 0.83978 0.0
C868 C 0.16057 0.43909 0.86333 0.0
C869 C 0.14744 0.45747 0.86956 0.0
C870 C 0.13866 0.47142 0.85224 0.0
C871 C 0.14294 0.467 0.82866 0.0
H872 H 0.14409 0.46092 0.88781 0.0
H873 H 0.19847 0.41535 0.66261 0.0
H874 H 0.35188 0.86627 0.2035 0.0
H875 H 0.38336 0.84668 0.22146 0.0
H876 H 0.42787 0.8992 0.19892 0.0
H877 H 0.39659 0.91841 0.1801 0.0
H878 H 0.44946 0.86129 0.19783 0.0
H879 H 0.40365 0.89911 0.2544 0.0
H880 H 0.36855 0.90845 0.27484 0.0
H881 H 0.36134 0.84002 0.29628 0.0
H882 H 0.3963 0.83023 0.27572 0.0
H883 H 0.50748 0.85539 0.31867 0.0
H884 H 0.47583 0.86522 0.29409 0.0
H885 H 0.49076 0.80984 0.24837 0.0
H886 H 0.52312 0.8002 0.27268 0.0
H887 H 0.43893 0.84642 0.28249 0.0
H888 H 0.4761 0.82423 0.19214 0.0
H889 H 0.51295 0.82088 0.17301 0.0
H890 H 0.54073 0.86788 0.22172 0.0
H891 H 0.504 0.87171 0.24092 0.0
C892 C 0.36846 0.87343 0.20197 0.0
C893 C 0.37171 0.89402 0.19061 0.0
C894 C 0.38643 0.86225 0.21233 0.0
C895 C 0.40792 0.87173 0.21208 0.0
C896 C 0.41145 0.89157 0.19945 0.0
C897 C 0.39353 0.90257 0.18871 0.0
C898 C 0.42621 0.86211 0.22659 0.0
C899 C 0.44711 0.85786 0.2163 0.0
C900 C 0.42337 0.85805 0.25083 0.0
C901 C 0.40243 0.8639 0.26332 0.0
C902 C 0.3945 0.88603 0.26336 0.0
C903 C 0.37464 0.89141 0.27498 0.0
C904 C 0.36268 0.87482 0.28679 0.0
C905 C 0.3706 0.85284 0.28708 0.0
C906 C 0.39043 0.84737 0.27546 0.0
C907 C 0.50404 0.84514 0.30349 0.0
C908 C 0.51799 0.82706 0.2976 0.0
C909 C 0.48582 0.85078 0.28944 0.0
C910 C 0.48099 0.83846 0.26919 0.0
C911 C 0.49436 0.81985 0.26368 0.0
C912 C 0.51278 0.81427 0.27768 0.0
C913 C 0.46226 0.84567 0.25379 0.0
C914 C 0.44123 0.84946 0.26394 0.0
C915 C 0.46526 0.85007 0.22964 0.0
C916 C 0.48738 0.84801 0.21813 0.0
C917 C 0.49007 0.83387 0.19872 0.0
C918 C 0.51093 0.83189 0.18787 0.0
C919 C 0.52919 0.84409 0.1962 0.0
C920 C 0.5266 0.85837 0.21535 0.0
C921 C 0.50577 0.86043 0.22623 0.0
H922 H 0.54533 0.84252 0.18779 0.0
H923 H 0.34731 0.87901 0.29578 0.0
H924 H 0.80995 0.47827 0.74267 0.0
H925 H 0.82031 0.51155 0.76498 0.0
H926 H 0.83299 0.54703 0.70055 0.0
H927 H 0.82385 0.51342 0.67834 0.0
H928 H 0.86614 0.55261 0.72666 0.0
H929 H 0.7875 0.55901 0.74024 0.0
H930 H 0.74987 0.54667 0.7522 0.0
H931 H 0.77354 0.53501 0.82203 0.0
H932 H 0.81141 0.54701 0.81041 0.0
H933 H 0.88304 0.65952 0.77448 0.0
H934 H 0.8629 0.62884 0.75592 0.0
H935 H 0.87101 0.58875 0.81799 0.0
H936 H 0.89151 0.61939 0.83678 0.0
H937 H 0.82672 0.58594 0.79455 0.0
H938 H 0.90611 0.57968 0.77853 0.0
H939 H 0.94283 0.59316 0.76491 0.0
H940 H 0.91532 0.60657 0.69698 0.0
H941 H 0.87834 0.5935 0.71032 0.0
C942 C 0.81452 0.49333 0.7333 0.0
C943 C 0.8162 0.49325 0.70878 0.0
C944 C 0.82037 0.51242 0.74607 0.0
C945 C 0.82738 0.53197 0.73452 0.0
C946 C 0.82782 0.53217 0.70994 0.0
C947 C 0.82251 0.51298 0.69723 0.0
C948 C 0.8363 0.55145 0.74784 0.0
C949 C 0.85721 0.56007 0.74121 0.0
C950 C 0.8251 0.56094 0.76733 0.0
C951 C 0.80235 0.5537 0.77438 0.0
C952 C 0.78473 0.55365 0.7581 0.0
C953 C 0.76335 0.54675 0.76483 0.0
C954 C 0.75933 0.54001 0.78785 0.0
C955 C 0.77669 0.54021 0.8042 0.0
C956 C 0.79811 0.54708 0.79755 0.0
C957 C 0.88029 0.64435 0.7844 0.0
C958 C 0.88909 0.64187 0.80708 0.0
C959 C 0.86877 0.62682 0.77372 0.0
C960 C 0.86565 0.60651 0.78552 0.0
C961 C 0.87326 0.60434 0.80862 0.0
C962 C 0.88503 0.62183 0.81928 0.0
C963 C 0.85615 0.58706 0.77294 0.0
C964 C 0.83536 0.57842 0.77984 0.0
C965 C 0.86721 0.57772 0.75341 0.0
C966 C 0.88941 0.58582 0.7455 0.0
C967 C 0.90784 0.58573 0.76077 0.0
C968 C 0.92871 0.59325 0.75308 0.0
C969 C 0.9314 0.60075 0.7301 0.0
C970 C 0.91321 0.60078 0.71478 0.0
C971 C 0.89229 0.59331 0.72239 0.0
H972 H 0.94758 0.60645 0.72409 0.0
H973 H 0.74276 0.53467 0.79302 0.0
H974 H 0.65618 0.14072 0.20283 0.0
H975 H 0.62456 0.15987 0.22104 0.0
H976 H 0.58011 0.10834 0.19609 0.0
H977 H 0.61154 0.08962 0.17701 0.0
H978 H 0.5586 0.14631 0.19645 0.0
H979 H 0.60437 0.10631 0.25159 0.0
H980 H 0.63946 0.09641 0.27177 0.0
H981 H 0.646 0.16393 0.29628 0.0
H982 H 0.61107 0.17429 0.27597 0.0
H983 H 0.49982 0.1472 0.31721 0.0
H984 H 0.53155 0.13822 0.29231 0.0
H985 H 0.51703 0.1955 0.249 0.0
H986 H 0.48464 0.20428 0.27358 0.0
H987 H 0.56856 0.15753 0.28178 0.0
H988 H 0.5321 0.18365 0.19234 0.0
H989 H 0.49539 0.18799 0.17313 0.0
H990 H 0.46712 0.13894 0.21932 0.0
H991 H 0.5037 0.13411 0.23858 0.0
C992 C 0.63959 0.13373 0.20079 0.0
C993 C 0.63639 0.11351 0.18872 0.0
C994 C 0.62154 0.14464 0.2113 0.0
C995 C 0.60003 0.13524 0.2105 0.0
C996 C 0.59655 0.11589 0.19708 0.0
C997 C 0.61455 0.10517 0.18618 0.0
C998 C 0.58167 0.1443 0.2253 0.0
C999 C 0.56083 0.14894 0.21508 0.0
C1000 C 0.58436 0.14733 0.24972 0.0
C1001 C 0.60527 0.14112 0.26206 0.0
C1002 C 0.61338 0.11907 0.26116 0.0
C1003 C 0.63322 0.11337 0.27263 0.0
C1004 C 0.64498 0.12955 0.28524 0.0
C1005 C 0.63689 0.15143 0.28647 0.0
C1006 C 0.61707 0.15723 0.27499 0.0
C1007 C 0.50338 0.15802 0.30249 0.0
C1008 C 0.48955 0.1764 0.29734 0.0
C1009 C 0.52162 0.15287 0.28826 0.0
C1010 C 0.52659 0.166 0.26858 0.0
C1011 C 0.51332 0.18487 0.26383 0.0
C1012 C 0.49488 0.18994 0.27799 0.0
C1013 C 0.54541 0.15945 0.253 0.0
C1014 C 0.56639 0.15527 0.26309 0.0
C1015 C 0.54258 0.15612 0.22864 0.0
C1016 C 0.52056 0.15875 0.21707 0.0
C1017 C 0.51805 0.17377 0.19835 0.0
C1018 C 0.49727 0.17631 0.18746 0.0
C1019 C 0.47892 0.16381 0.19506 0.0
C1020 C 0.48132 0.14868 0.21351 0.0
C1021 C 0.50207 0.14605 0.22444 0.0
H1022 H 0.46285 0.16582 0.18662 0.0
H1023 H 0.66034 0.12511 0.29411 0.0
H1024 H 0.65701 0.00501 0.81262 0.0
H1025 H 0.64934 0.03564 0.78573 0.0
H1026 H 0.70452 0.01514 0.74224 0.0
H1027 H 0.71231 0.98402 0.76908 0.0
H1028 H 0.70014 0.06345 0.74919 0.0
H1029 H 0.65859 1.00085 0.72227 0.0
H1030 H 0.63417 0.96788 0.72607 0.0
H1031 H 0.58121 0.00939 0.75229 0.0
H1032 H 0.60543 0.04262 0.74885 0.0
H1033 H 0.61276 0.11664 0.66016 0.0
H1034 H 0.63394 0.08481 0.67536 0.0
H1035 H 0.65239 0.12352 0.73599 0.0
H1036 H 0.63182 0.15546 0.72071 0.0
H1037 H 0.62488 0.06221 0.71267 0.0
H1038 H 0.6997 0.10512 0.76057 0.0
H1039 H 0.72562 0.13658 0.75417 0.0
H1040 H 0.71497 0.13214 0.68007 0.0
H1041 H 0.68924 0.10045 0.68598 0.0
C1042 C 0.66776 0.00707 0.79753 0.0
C1043 C 0.6852 0.99191 0.79295 0.0
C1044 C 0.66329 0.0246 0.78215 0.0
C1045 C 0.67622 0.02748 0.76192 0.0
C1046 C 0.69435 0.01312 0.75778 0.0
C1047 C 0.69873 0.99536 0.7731 0.0
C1048 C 0.66972 0.0448 0.74469 0.0
C1049 C 0.68378 0.06321 0.74102 0.0
C1050 C 0.64865 0.04405 0.73351 0.0
C1051 C 0.63389 0.02419 0.73545 0.0
C1052 C 0.64179 0.00293 0.729 0.0
C1053 C 0.62797 0.98419 0.73107 0.0
C1054 C 0.60616 0.98651 0.73949 0.0
C1055 C 0.59811 0.00761 0.74578 0.0
C1056 C 0.61186 0.02641 0.74373 0.0
C1057 C 0.62172 0.11854 0.67647 0.0
C1058 C 0.62046 0.1386 0.68925 0.0
C1059 C 0.63379 0.10029 0.68519 0.0
C1060 C 0.64487 0.10174 0.7068 0.0
C1061 C 0.64437 0.12205 0.71909 0.0
C1062 C 0.63243 0.14031 0.71035 0.0
C1063 C 0.65494 0.08152 0.71773 0.0
C1064 C 0.64144 0.06248 0.72038 0.0
C1065 C 0.67673 0.08156 0.72749 0.0
C1066 C 0.69241 0.10048 0.72376 0.0
C1067 C 0.70298 0.11076 0.7429 0.0
C1068 C 0.71762 0.12866 0.73936 0.0
C1069 C 0.7219 0.13639 0.71673 0.0
C1070 C 0.71158 0.12619 0.69759 0.0
C1071 C 0.69694 0.10828 0.70104 0.0
H1072 H 0.73322 0.15026 0.71403 0.0
H1073 H 0.5955 0.97198 0.7411 0.0
H1074 H 0.11661 0.39474 0.34668 0.0
H1075 H 0.08472 0.37327 0.33212 0.0
H1076 H 0.12367 0.35236 0.2725 0.0
H1077 H 0.15565 0.37322 0.28715 0.0
H1078 H 0.06239 0.3811 0.29441 0.0
H1079 H 0.10524 0.30436 0.24969 0.0
H1080 H 0.13644 0.27842 0.2574 0.0
H1081 H 0.13138 0.29169 0.33099 0.0
H1082 H 0.09995 0.31746 0.32378 0.0
H1083 H 0.00733 0.34678 0.19439 0.0
H1084 H 0.0376 0.3544 0.22168 0.0
H1085 H 0.01436 0.30155 0.26679 0.0
H1086 H 0.98354 0.29383 0.23954 0.0
H1087 H 0.06352 0.30473 0.26051 0.0
H1088 H 1.0009 0.34764 0.28523 0.0
H1089 H 0.96818 0.37218 0.2801 0.0
H1090 H 0.01043 0.42384 0.25241 0.0
H1091 H 0.04343 0.39948 0.25721 0.0
C1092 C 0.11854 0.38519 0.33072 0.0
C1093 C 0.13869 0.38583 0.31803 0.0
C1094 C 0.10026 0.37295 0.32239 0.0
C1095 C 0.10177 0.36107 0.30126 0.0
C1096 C 0.12214 0.361 0.28906 0.0
C1097 C 0.14043 0.37311 0.29742 0.0
C1098 C 0.08156 0.35076 0.29061 0.0
C1099 C 0.06263 0.36429 0.2873 0.0
C1100 C 0.08154 0.32866 0.28165 0.0
C1101 C 0.10031 0.31297 0.28615 0.0
C1102 C 0.11069 0.30165 0.26753 0.0
C1103 C 0.12844 0.287 0.27181 0.0
C1104 C 0.13592 0.28345 0.29466 0.0
C1105 C 0.12562 0.29451 0.31329 0.0
C1106 C 0.10786 0.30917 0.30911 0.0
C1107 C 0.00871 0.3365 0.20992 0.0
C1108 C 0.99284 0.31979 0.21484 0.0
C1109 C 0.02604 0.34093 0.22552 0.0
C1110 C 0.02804 0.32869 0.24631 0.0
C1111 C 0.01303 0.31119 0.25081 0.0
C1112 C 0.99544 0.30684 0.23525 0.0
C1113 C 0.04506 0.33543 0.26374 0.0
C1114 C 0.0633 0.32133 0.26813 0.0
C1115 C 0.04431 0.35681 0.27419 0.0
C1116 C 0.0246 0.37167 0.27143 0.0
C1117 C 0.00319 0.36418 0.27789 0.0
C1118 C 0.98459 0.37807 0.27507 0.0
C1119 C 0.98719 0.39955 0.26585 0.0
C1120 C 0.00843 0.4072 0.25953 0.0
C1121 C 0.0271 0.39337 0.26235 0.0
H1122 H 0.97276 0.41027 0.26366 0.0
H1123 H 0.14967 0.2721 0.29793 0.0
H1124 H 0.31024 0.02988 0.75745 0.0
H1125 H 0.31888 0.99687 0.73387 0.0
H1126 H 0.32633 0.95773 0.79684 0.0
H1127 H 0.31876 0.99088 0.82039 0.0
H1128 H 0.36039 0.9513 0.77138 0.0
H1129 H 0.28167 0.95098 0.75553 0.0
H1130 H 0.24546 0.96665 0.74299 0.0
H1131 H 0.27208 0.97898 0.67444 0.0
H1132 H 0.30855 0.96365 0.68667 0.0
H1133 H 0.37388 0.84604 0.72109 0.0
H1134 H 0.35327 0.87655 0.7394 0.0
H1135 H 0.36472 0.91795 0.67887 0.0
H1136 H 0.38558 0.88748 0.6603 0.0
H1137 H 0.32035 0.92297 0.70144 0.0
H1138 H 0.3995 0.92425 0.719 0.0
H1139 H 0.43498 0.90725 0.73194 0.0
H1140 H 0.40581 0.892 0.79869 0.0
H1141 H 0.37003 0.9086 0.78598 0.0
C1142 C 0.31327 0.01411 0.76621 0.0
C1143 C 0.31395 0.01297 0.79075 0.0
C1144 C 0.31815 0.9952 0.75271 0.0
C1145 C 0.32322 0.97468 0.76351 0.0
C1146 C 0.32265 0.97334 0.78804 0.0
C1147 C 0.31824 0.9923 0.8015 0.0
C1148 C 0.33117 0.95518 0.74961 0.0
C1149 C 0.35132 0.94495 0.75635 0.0
C1150 C 0.31983 0.94717 0.7295 0.0
C1151 C 0.29791 0.95636 0.72209 0.0
C1152 C 0.27986 0.9572 0.73784 0.0
C1153 C 0.25928 0.96598 0.73077 0.0
C1154 C 0.25649 0.97386 0.70795 0.0
C1155 C 0.27427 0.9729 0.69213 0.0
C1156 C 0.29489 0.96414 0.69911 0.0
C1157 C 0.37167 0.86144 0.71138 0.0
C1158 C 0.3817 0.8644 0.68933 0.0
C1159 C 0.35984 0.87885 0.7219 0.0
C1160 C 0.35771 0.89955 0.71058 0.0
C1161 C 0.36619 0.90208 0.68786 0.0
C1162 C 0.37818 0.88466 0.67733 0.0
C1163 C 0.34911 0.91913 0.72365 0.0
C1164 C 0.32912 0.92938 0.71662 0.0
C1165 C 0.36043 0.92714 0.74366 0.0
C1166 C 0.38203 0.91746 0.75145 0.0
C1167 C 0.40061 0.91712 0.73637 0.0
C1168 C 0.42077 0.90757 0.74367 0.0
C1169 C 0.42263 0.89849 0.7661 0.0
C1170 C 0.40434 0.89901 0.7813 0.0
C1171 C 0.38411 0.90849 0.77406 0.0
H1172 H 0.43826 0.89111 0.77172 0.0
H1173 H 0.24054 0.98066 0.70252 0.0
H1174 H 0.84641 0.63201 0.28321 0.0
H1175 H 0.87745 0.65144 0.26446 0.0
H1176 H 0.91839 0.64051 0.32541 0.0
H1177 H 0.88739 0.62082 0.34443 0.0
H1178 H 0.9246 0.68419 0.3013 0.0
H1179 H 0.92402 0.60448 0.28671 0.0
H1180 H 0.90611 0.56906 0.2751 0.0
H1181 H 0.8916 0.59634 0.20731 0.0
H1182 H 0.90911 0.63207 0.21868 0.0
H1183 H 0.03157 0.6905 0.24433 0.0
H1184 H 0.99864 0.68296 0.26852 0.0
H1185 H 0.95884 0.67426 0.20621 0.0
H1186 H 0.99187 0.68074 0.1821 0.0
H1187 H 0.95204 0.64113 0.23292 0.0
H1188 H 0.95334 0.72036 0.24586 0.0
H1189 H 0.9698 0.7566 0.25705 0.0
H1190 H 0.98184 0.73195 0.32644 0.0
H1191 H 0.96571 0.69545 0.31558 0.0
C1192 C 0.86182 0.63412 0.29292 0.0
C1193 C 0.86449 0.62453 0.31523 0.0
C1194 C 0.87954 0.64528 0.28215 0.0
C1195 C 0.90025 0.64716 0.29346 0.0
C1196 C 0.90251 0.63921 0.31642 0.0
C1197 C 0.88479 0.62789 0.32721 0.0
C1198 C 0.9201 0.6548 0.28017 0.0
C1199 C 0.93083 0.67475 0.28647 0.0
C1200 C 0.92788 0.64261 0.26062 0.0
C1201 C 0.91767 0.62101 0.25363 0.0
C1202 C 0.91686 0.60298 0.26939 0.0
C1203 C 0.9068 0.58284 0.26285 0.0
C1204 C 0.89767 0.58047 0.2405 0.0
C1205 C 0.89865 0.59821 0.22462 0.0
C1206 C 0.90865 0.6184 0.2311 0.0
C1207 C 0.01568 0.68739 0.23584 0.0
C1208 C 0.0143 0.68608 0.21134 0.0
C1209 C 0.99682 0.68315 0.24968 0.0
C1210 C 0.97613 0.67808 0.23925 0.0
C1211 C 0.97459 0.67795 0.21473 0.0
C1212 C 0.99348 0.68173 0.20094 0.0
C1213 C 0.95658 0.67097 0.25358 0.0
C1214 C 0.94591 0.65084 0.2476 0.0
C1215 C 0.94883 0.68316 0.27325 0.0
C1216 C 0.95852 0.7051 0.27983 0.0
C1217 C 0.95966 0.72261 0.26345 0.0
C1218 C 0.9689 0.74321 0.26975 0.0
C1219 C 0.97691 0.74655 0.29242 0.0
C1220 C 0.97565 0.72932 0.30887 0.0
C1221 C 0.96644 0.70868 0.30267 0.0
H1222 H 0.98406 0.76251 0.29726 0.0
H1223 H 0.88988 0.56487 0.23547 0.0
H1224 H 0.69077 0.9924 0.18568 0.0
H1225 H 0.6826 0.95973 0.20979 0.0
H1226 H 0.68498 1.00072 0.2718 0.0
H1227 H 0.69417 0.0334 0.2477 0.0
H1228 H 0.6999 0.95982 0.28176 0.0
H1229 H 0.63519 0.98978 0.24457 0.0
H1230 H 0.61218 0.00369 0.21188 0.0
H1231 H 0.61587 0.93944 0.17867 0.0
H1232 H 0.63919 0.92523 0.21102 0.0
H1233 H 0.62065 0.88874 0.34433 0.0
H1234 H 0.64137 0.91961 0.32625 0.0
H1235 H 0.65228 0.8795 0.2647 0.0
H1236 H 0.63193 0.8486 0.28256 0.0
H1237 H 0.63067 0.92094 0.25666 0.0
H1238 H 0.69521 0.8915 0.29707 0.0
H1239 H 0.71632 0.87921 0.3318 0.0
H1240 H 0.70979 0.94463 0.36191 0.0
H1241 H 0.68834 0.95722 0.32748 0.0
C1242 C 0.69004 0.99436 0.2045 0.0
C1243 C 0.69285 0.01547 0.2148 0.0
C1244 C 0.68526 0.9757 0.21826 0.0
C1245 C 0.68251 0.97789 0.24255 0.0
C1246 C 0.68686 0.99865 0.25308 0.0
C1247 C 0.69211 0.01731 0.23931 0.0
C1248 C 0.67323 0.959 0.25643 0.0
C1249 C 0.68464 0.95146 0.27642 0.0
C1250 C 0.65327 0.94808 0.24954 0.0
C1251 C 0.63911 0.95651 0.23011 0.0
C1252 C 0.63122 0.97866 0.23022 0.0
C1253 C 0.61811 0.9866 0.21176 0.0
C1254 C 0.61261 0.97247 0.19318 0.0
C1255 C 0.62017 0.95036 0.19306 0.0
C1256 C 0.63332 0.94236 0.21146 0.0
C1257 C 0.62787 0.88632 0.32715 0.0
C1258 C 0.62443 0.86623 0.31483 0.0
C1259 C 0.63974 0.90396 0.31688 0.0
C1260 C 0.64827 0.90183 0.29412 0.0
C1261 C 0.64579 0.88147 0.28227 0.0
C1262 C 0.63415 0.8638 0.29256 0.0
C1263 C 0.65762 0.92141 0.28158 0.0
C1264 C 0.646 0.92923 0.26193 0.0
C1265 C 0.67704 0.93278 0.28913 0.0
C1266 C 0.68996 0.92523 0.3098 0.0
C1267 C 0.69808 0.9032 0.31119 0.0
C1268 C 0.71015 0.8962 0.3308 0.0
C1269 C 0.71434 0.91111 0.34908 0.0
C1270 C 0.70651 0.93308 0.34775 0.0
C1271 C 0.69441 0.94017 0.32819 0.0
H1272 H 0.72369 0.90565 0.36425 0.0
H1273 H 0.60246 0.97865 0.1789 0.0
H1274 H 0.88587 0.39365 0.66263 0.0
H1275 H 0.91777 0.37369 0.67983 0.0
H1276 H 0.87941 0.36147 0.74235 0.0
H1277 H 0.84749 0.38092 0.72535 0.0
H1278 H 0.9218 0.38456 0.74831 0.0
H1279 H 0.88977 0.31933 0.71114 0.0
H1280 H 0.87594 0.29761 0.6775 0.0
H1281 H 0.9403 0.3025 0.64458 0.0
H1282 H 0.95442 0.32455 0.67791 0.0
H1283 H 0.99208 0.32326 0.81944 0.0
H1284 H 0.95963 0.33269 0.79556 0.0
H1285 H 0.99979 0.32715 0.73313 0.0
H1286 H 0.03225 0.31675 0.75704 0.0
H1287 H 0.95814 0.31363 0.72416 0.0
H1288 H 0.99099 0.37804 0.75884 0.0
H1289 H 0.00636 0.40137 0.79052 0.0
H1290 H 0.94265 0.40103 0.82516 0.0
H1291 H 0.92697 0.3774 0.79384 0.0
C1292 C 0.88409 0.38635 0.67986 0.0
C1293 C 0.86415 0.38904 0.69265 0.0
C1294 C 0.90231 0.37492 0.68962 0.0
C1295 C 0.90091 0.36619 0.71236 0.0
C1296 C 0.88079 0.36811 0.72477 0.0
C1297 C 0.86254 0.37922 0.71497 0.0
C1298 C 0.9209 0.35696 0.72423 0.0
C1299 C 0.9296 0.36891 0.74322 0.0
C1300 C 0.93156 0.33706 0.71691 0.0
C1301 C 0.92307 0.32382 0.69689 0.0
C1302 C 0.90091 0.31598 0.69662 0.0
C1303 C 0.89303 0.30356 0.67763 0.0
C1304 C 0.90721 0.29874 0.65888 0.0
C1305 C 0.92932 0.30628 0.6591 0.0
C1306 C 0.93727 0.31873 0.67804 0.0
C1307 C 0.99391 0.32363 0.8006 0.0
C1308 C 0.01475 0.31953 0.79012 0.0
C1309 C 0.97537 0.32912 0.78695 0.0
C1310 C 0.97741 0.33128 0.76259 0.0
C1311 C 0.99784 0.32575 0.75191 0.0
C1312 C 0.01638 0.31981 0.76558 0.0
C1313 C 0.9587 0.34095 0.74873 0.0
C1314 C 0.95037 0.32928 0.72927 0.0
C1315 C 0.94856 0.36143 0.75528 0.0
C1316 C 0.95786 0.37578 0.77409 0.0
C1317 C 0.98029 0.38281 0.77329 0.0
C1318 C 0.98906 0.3961 0.79117 0.0
C1319 C 0.9755 0.40263 0.80986 0.0
C1320 C 0.95313 0.39593 0.81068 0.0
C1321 C 0.9443 0.38261 0.79286 0.0
H1322 H 0.98232 0.41292 0.82369 0.0
H1323 H 0.90108 0.28911 0.6442 0.0
H1324 H 0.37661 0.15162 0.28354 0.0
H1325 H 0.3544 0.12082 0.26848 0.0
H1326 H 0.3624 0.0855 0.33377 0.0
H1327 H 0.38547 0.11612 0.34874 0.0
H1328 H 0.37106 0.05859 0.30001 0.0
H1329 H 0.31032 0.10714 0.31514 0.0
H1330 H 0.28888 0.14234 0.31529 0.0
H1331 H 0.28693 0.14194 0.24024 0.0
H1332 H 0.30865 0.1069 0.2396 0.0
H1333 H 0.30611 0.97143 0.24932 0.0
H1334 H 0.31278 0.00296 0.27583 0.0
H1335 H 0.32605 0.0457 0.2167 0.0
H1336 H 0.31971 0.01432 0.19017 0.0
H1337 H 0.30124 0.06682 0.25394 0.0
H1338 H 0.36828 0.02178 0.24079 0.0
H1339 H 0.38917 0.98622 0.24133 0.0
H1340 H 0.37743 0.97992 0.31512 0.0
H1341 H 0.35617 0.01532 0.31493 0.0
C1342 C 0.37339 0.1375 0.2949 0.0
C1343 C 0.38292 0.13635 0.31735 0.0
C1344 C 0.36049 0.11989 0.28629 0.0
C1345 C 0.35641 0.10087 0.30006 0.0
C1346 C 0.36526 0.09999 0.32281 0.0
C1347 C 0.37841 0.11754 0.33137 0.0
C1348 C 0.34471 0.08122 0.28979 0.0
C1349 C 0.35547 0.06035 0.2905 0.0
C1350 C 0.32445 0.08339 0.27709 0.0
C1351 C 0.31124 0.10442 0.27733 0.0
C1352 C 0.30545 0.11462 0.29866 0.0
C1353 C 0.29322 0.13455 0.29883 0.0
C1354 C 0.28657 0.14439 0.27779 0.0
C1355 C 0.29209 0.13429 0.25653 0.0
C1356 C 0.30433 0.11438 0.25625 0.0
C1357 C 0.30992 0.98767 0.24195 0.0
C1358 C 0.31258 0.99037 0.21767 0.0
C1359 C 0.31378 0.00563 0.25712 0.0
C1360 C 0.32006 0.02658 0.24819 0.0
C1361 C 0.32118 0.02967 0.22392 0.0
C1362 C 0.31766 0.0117 0.2088 0.0
C1363 C 0.32789 0.04465 0.26391 0.0
C1364 C 0.31648 0.06513 0.26407 0.0
C1365 C 0.3474 0.04211 0.27763 0.0
C1366 C 0.36042 0.02102 0.27779 0.0
C1367 C 0.37001 0.01272 0.25709 0.0
C1368 C 0.38194 0.99261 0.25734 0.0
C1369 C 0.38456 0.98077 0.27823 0.0
C1370 C 0.37534 0.98908 0.29894 0.0
C1371 C 0.36336 0.00916 0.29878 0.0
H1372 H 0.39378 0.9652 0.27838 0.0
H1373 H 0.27712 0.15982 0.27796 0.0
H1374 H 0.11647 0.60461 0.66722 0.0
H1375 H 0.08489 0.62544 0.68342 0.0
H1376 H 0.12822 0.65419 0.73564 0.0
H1377 H 0.15989 0.63367 0.71945 0.0
H1378 H 0.06833 0.61935 0.72585 0.0
H1379 H 0.10746 0.70439 0.75366 0.0
H1380 H 0.13537 0.73131 0.73899 0.0
H1381 H 0.12468 0.70811 0.66885 0.0
H1382 H 0.09649 0.68128 0.68303 0.0
H1383 H 0.00923 0.66297 0.81973 0.0
H1384 H 0.04122 0.65388 0.79507 0.0
H1385 H 0.01775 0.70004 0.74259 0.0
H1386 H 0.98562 0.70946 0.76732 0.0
H1387 H 0.06457 0.69977 0.7468 0.0
H1388 H 0.00449 0.64801 0.73719 0.0
H1389 H 0.97543 0.62207 0.7511 0.0
H1390 H 0.02583 0.57907 0.78002 0.0
H1391 H 0.05522 0.60521 0.76705 0.0
C1392 C 0.1194 0.61571 0.68185 0.0
C1393 C 0.14071 0.61731 0.69213 0.0
C1394 C 0.1013 0.62757 0.69113 0.0
C1395 C 0.10417 0.64141 0.71073 0.0
C1396 C 0.12563 0.64386 0.72034 0.0
C1397 C 0.14372 0.63198 0.71111 0.0
C1398 C 0.08448 0.65139 0.72265 0.0
C1399 C 0.06747 0.63696 0.73026 0.0
C1400 C 0.08319 0.67443 0.7282 0.0
C1401 C 0.09998 0.69068 0.71947 0.0
C1402 C 0.11099 0.7051 0.7351 0.0
C1403 C 0.12687 0.72033 0.72687 0.0
C1404 C 0.13184 0.72138 0.70301 0.0
C1405 C 0.12088 0.70723 0.68733 0.0
C1406 C 0.10497 0.69198 0.69547 0.0
C1407 C 0.01099 0.6715 0.80312 0.0
C1408 C 0.99466 0.68672 0.79536 0.0
C1409 C 0.02932 0.66627 0.78904 0.0
C1410 C 0.03163 0.67599 0.76684 0.0
C1411 C 0.01621 0.6923 0.75964 0.0
C1412 C 0.99784 0.69761 0.77378 0.0
C1413 C 0.04896 0.66755 0.75052 0.0
C1414 C 0.06544 0.68221 0.74215 0.0
C1415 C 0.04966 0.64474 0.74395 0.0
C1416 C 0.03206 0.62868 0.75129 0.0
C1417 C 0.00939 0.63311 0.74666 0.0
C1418 C 0.99284 0.61835 0.75437 0.0
C1419 C 0.99876 0.59888 0.76637 0.0
C1420 C 0.02126 0.59416 0.77071 0.0
C1421 C 0.03787 0.60897 0.76323 0.0
H1422 H 0.98593 0.58746 0.7723 0.0
H1423 H 0.14415 0.73317 0.69668 0.0
H1424 H 0.20642 0.56414 0.58364 0.0
H1425 H 0.20755 0.54888 0.54379 0.0
H1426 H 0.1574 0.50028 0.56279 0.0
H1427 H 0.1554 0.51614 0.60192 0.0
H1428 H 0.21809 0.51162 0.52457 0.0
H1429 H 0.12394 0.48713 0.51919 0.0
H1430 H 0.08759 0.50049 0.53405 0.0
H1431 H 0.11438 0.56665 0.54181 0.0
H1432 H 0.15079 0.55376 0.52671 0.0
H1433 H 0.20286 0.43956 0.42655 0.0
H1434 H 0.20461 0.45669 0.46549 0.0
H1435 H 0.1595 0.50865 0.4425 0.0
H1436 H 0.15664 0.4908 0.4044 0.0
H1437 H 0.1472 0.49824 0.48186 0.0
H1438 H 0.2194 0.51555 0.45127 0.0
H1439 H 0.25623 0.50806 0.43349 0.0
H1440 H 0.27414 0.46689 0.4921 0.0
H1441 H 0.2373 0.4739 0.5101 0.0
C1442 C 0.19557 0.55029 0.57919 0.0
C1443 C 0.18057 0.54158 0.59577 0.0
C1444 C 0.19629 0.54151 0.55646 0.0
C1445 C 0.18223 0.52368 0.55004 0.0
C1446 C 0.16792 0.51446 0.56697 0.0
C1447 C 0.16685 0.52351 0.58942 0.0
C1448 C 0.18222 0.51475 0.5257 0.0
C1449 C 0.2026 0.50877 0.51518 0.0
C1450 C 0.16208 0.51147 0.51311 0.0
C1451 C 0.14016 0.51941 0.52203 0.0
C1452 C 0.12205 0.50454 0.52398 0.0
C1453 C 0.10143 0.51203 0.53246 0.0
C1454 C 0.0987 0.53439 0.53893 0.0
C1455 C 0.11654 0.54932 0.53687 0.0
C1456 C 0.13718 0.54193 0.52838 0.0
C1457 C 0.19333 0.45462 0.42993 0.0
C1458 C 0.17951 0.46377 0.41253 0.0
C1459 C 0.19446 0.46454 0.45212 0.0
C1460 C 0.1824 0.48422 0.45703 0.0
C1461 C 0.16887 0.49344 0.4394 0.0
C1462 C 0.16726 0.48322 0.41754 0.0
C1463 C 0.18309 0.49495 0.4806 0.0
C1464 C 0.16277 0.50117 0.49109 0.0
C1465 C 0.20334 0.49932 0.49266 0.0
C1466 C 0.22551 0.49508 0.48192 0.0
C1467 C 0.23114 0.50477 0.46029 0.0
C1468 C 0.25202 0.50063 0.45019 0.0
C1469 C 0.26749 0.48696 0.46163 0.0
C1470 C 0.26213 0.47745 0.48324 0.0
C1471 C 0.24126 0.48152 0.49341 0.0
H1472 H 0.28365 0.48377 0.45378 0.0
H1473 H 0.08273 0.54014 0.54551 0.0
H1474 H 0.5528 0.7917 0.41639 0.0
H1475 H 0.53529 0.78822 0.45506 0.0
H1476 H 0.52857 0.85992 0.45878 0.0
H1477 H 0.54601 0.86352 0.42041 0.0
H1478 H 0.54296 0.84244 0.49999 0.0
H1479 H 0.48468 0.82742 0.44332 0.0
H1480 H 0.46757 0.80723 0.41027 0.0
H1481 H 0.47056 0.74586 0.44912 0.0
H1482 H 0.48797 0.76566 0.48231 0.0
H1483 H 0.46155 0.86342 0.58437 0.0
H1484 H 0.48111 0.85993 0.54716 0.0
H1485 H 0.4789 0.78807 0.55298 0.0
H1486 H 0.45877 0.79145 0.59023 0.0
H1487 H 0.4715 0.80108 0.50849 0.0
H1488 H 0.52659 0.81642 0.56655 0.0
H1489 H 0.54366 0.83638 0.59976 0.0
H1490 H 0.54742 0.89637 0.5587 0.0
H1491 H 0.53007 0.87686 0.52533 0.0
C1492 C 0.5478 0.80672 0.42558 0.0
C1493 C 0.55074 0.82788 0.41529 0.0
C1494 C 0.53769 0.8047 0.44761 0.0
C1495 C 0.5304 0.82381 0.45971 0.0
C1496 C 0.53402 0.84495 0.44977 0.0
C1497 C 0.54397 0.84696 0.42778 0.0
C1498 C 0.51852 0.82205 0.48248 0.0
C1499 C 0.52727 0.83351 0.50181 0.0
C1500 C 0.49838 0.80984 0.48507 0.0
C1501 C 0.48787 0.79796 0.46517 0.0
C1502 C 0.48186 0.80958 0.44473 0.0
C1503 C 0.47208 0.79822 0.42599 0.0
C1504 C 0.46805 0.77526 0.42756 0.0
C1505 C 0.47373 0.76363 0.44791 0.0
C1506 C 0.48355 0.77491 0.46669 0.0
C1507 C 0.46501 0.84684 0.57768 0.0
C1508 C 0.45875 0.82771 0.59037 0.0
C1509 C 0.47633 0.84487 0.55643 0.0
C1510 C 0.48197 0.82375 0.54751 0.0
C1511 C 0.47489 0.80456 0.5596 0.0
C1512 C 0.46337 0.80651 0.58087 0.0
C1513 C 0.49569 0.82194 0.52587 0.0
C1514 C 0.48732 0.80979 0.50678 0.0
C1515 C 0.51628 0.83344 0.5235 0.0
C1516 C 0.52688 0.84521 0.54349 0.0
C1517 C 0.53092 0.83391 0.56464 0.0
C1518 C 0.54067 0.84514 0.5835 0.0
C1519 C 0.54658 0.86764 0.58136 0.0
C1520 C 0.54281 0.87895 0.56034 0.0
C1521 C 0.53305 0.8678 0.54144 0.0
H1522 H 0.55412 0.8763 0.59597 0.0
H1523 H 0.46046 0.7665 0.41304 0.0
H1524 H 0.86191 0.54639 0.42159 0.0
H1525 H 0.85792 0.52705 0.45888 0.0
H1526 H 0.78614 0.52877 0.45176 0.0
H1527 H 0.79002 0.5487 0.41445 0.0
H1528 H 0.79808 0.53645 0.49626 0.0
H1529 H 0.81532 0.4811 0.43914 0.0
H1530 H 0.83612 0.46391 0.40655 0.0
H1531 H 0.89531 0.46108 0.44892 0.0
H1532 H 0.87496 0.47856 0.48168 0.0
H1533 H 0.78771 0.45559 0.58869 0.0
H1534 H 0.78495 0.47238 0.5496 0.0
H1535 H 0.85649 0.48138 0.54828 0.0
H1536 H 0.85936 0.46476 0.58713 0.0
H1537 H 0.8402 0.46561 0.50644 0.0
H1538 H 0.82308 0.52422 0.56213 0.0
H1539 H 0.80188 0.54126 0.59454 0.0
H1540 H 0.74143 0.53695 0.5543 0.0
H1541 H 0.76225 0.51959 0.52175 0.0
C1542 C 0.84524 0.54286 0.42801 0.0
C1543 C 0.82627 0.54894 0.41494 0.0
C1544 C 0.84299 0.53166 0.4493 0.0
C1545 C 0.82174 0.52595 0.45788 0.0
C1546 C 0.80271 0.53284 0.4454 0.0
C1547 C 0.80495 0.54425 0.4241 0.0
C1548 C 0.81965 0.51239 0.47961 0.0
C1549 C 0.80696 0.52076 0.49832 0.0
C1550 C 0.83135 0.49196 0.48243 0.0
C1551 C 0.84364 0.4813 0.46282 0.0
C1552 C 0.83282 0.47695 0.44147 0.0
C1553 C 0.84452 0.46714 0.42296 0.0
C1554 C 0.86704 0.46144 0.42565 0.0
C1555 C 0.87788 0.46551 0.44686 0.0
C1556 C 0.86625 0.47535 0.46542 0.0
C1557 C 0.80285 0.4609 0.57993 0.0
C1558 C 0.82374 0.45891 0.59104 0.0
C1559 C 0.80124 0.4706 0.55766 0.0
C1560 C 0.8205 0.47833 0.54612 0.0
C1561 C 0.84141 0.47556 0.55685 0.0
C1562 C 0.84301 0.46609 0.5791 0.0
C1563 C 0.81908 0.48994 0.52319 0.0
C1564 C 0.8311 0.48116 0.50424 0.0
C1565 C 0.80666 0.50988 0.52012 0.0
C1566 C 0.79417 0.52037 0.53964 0.0
C1567 C 0.80524 0.52673 0.56028 0.0
C1568 C 0.79329 0.53648 0.57865 0.0
C1569 C 0.7703 0.54012 0.57651 0.0
C1570 C 0.75922 0.53408 0.55595 0.0
C1571 C 0.77109 0.52429 0.53754 0.0
H1572 H 0.76109 0.54767 0.59076 0.0
H1573 H 0.87607 0.45385 0.4113 0.0
H1574 H 0.45837 0.21397 0.4138 0.0
H1575 H 0.47542 0.21838 0.4526 0.0
H1576 H 0.47516 0.14682 0.46171 0.0
H1577 H 0.45837 0.14228 0.42309 0.0
H1578 H 0.46085 0.16982 0.50133 0.0
H1579 H 0.52179 0.17182 0.44551 0.0
H1580 H 0.54208 0.18654 0.41126 0.0
H1581 H 0.54659 0.25096 0.44402 0.0
H1582 H 0.52603 0.23667 0.47835 0.0
H1583 H 0.53764 0.14435 0.58877 0.0
H1584 H 0.51904 0.14793 0.55107 0.0
H1585 H 0.53073 0.21907 0.55176 0.0
H1586 H 0.54982 0.21555 0.58961 0.0
H1587 H 0.53717 0.20169 0.50832 0.0
H1588 H 0.47971 0.19913 0.56581 0.0
H1589 H 0.45942 0.1848 0.60022 0.0
H1590 H 0.44753 0.12269 0.56475 0.0
H1591 H 0.46805 0.13652 0.53024 0.0
C1592 C 0.46173 0.19922 0.4242 0.0
C1593 C 0.45708 0.17778 0.41536 0.0
C1594 C 0.47157 0.20176 0.44629 0.0
C1595 C 0.47671 0.18291 0.45995 0.0
C1596 C 0.47135 0.16158 0.45146 0.0
C1597 C 0.4618 0.15902 0.42935 0.0
C1598 C 0.48821 0.1851 0.48285 0.0
C1599 C 0.47757 0.17669 0.50286 0.0
C1600 C 0.50976 0.19468 0.48494 0.0
C1601 C 0.52213 0.20326 0.46435 0.0
C1602 C 0.52692 0.18918 0.44531 0.0
C1603 C 0.53851 0.19743 0.42591 0.0
C1604 C 0.54555 0.21969 0.42543 0.0
C1605 C 0.54108 0.23373 0.44439 0.0
C1606 C 0.52947 0.22556 0.46382 0.0
C1607 C 0.53645 0.16077 0.58088 0.0
C1608 C 0.54508 0.1797 0.59231 0.0
C1609 C 0.52569 0.1628 0.55934 0.0
C1610 C 0.52303 0.18383 0.5488 0.0
C1611 C 0.53244 0.20269 0.55965 0.0
C1612 C 0.54335 0.20065 0.58126 0.0
C1613 C 0.51001 0.1859 0.52675 0.0
C1614 C 0.52032 0.19512 0.50691 0.0
C1615 C 0.48806 0.17719 0.52481 0.0
C1616 C 0.47557 0.16882 0.54549 0.0
C1617 C 0.47291 0.18236 0.5654 0.0
C1618 C 0.46135 0.17433 0.58492 0.0
C1619 C 0.45223 0.15283 0.58469 0.0
C1620 C 0.45461 0.13934 0.56491 0.0
C1621 C 0.46619 0.14727 0.54535 0.0
H1622 H 0.44328 0.14665 0.59982 0.0
H1623 H 0.55453 0.22605 0.4104 0.0
H1624 H 0.71695 0.04902 0.08916 0.0
H1625 H 0.7202 0.03169 0.05046 0.0
H1626 H 0.65016 0.01447 0.05252 0.0
H1627 H 0.64701 0.03107 0.09128 0.0
H1628 H 0.67266 0.98005 0.03865 0.0
H1629 H 0.67199 0.05802 0.01781 0.0
H1630 H 0.68485 0.09717 0.01865 0.0
H1631 H 0.74955 0.0768 0.99401 0.0
H1632 H 0.73714 0.03746 0.9933 0.0
H1633 H 0.64579 0.96255 0.91956 0.0
H1634 H 0.64997 0.97768 0.95898 0.0
H1635 H 0.7217 0.97592 0.95165 0.0
H1636 H 0.71765 0.96034 0.91209 0.0
H1637 H 0.70322 0.018 0.96845 0.0
H1638 H 0.7011 0.93972 0.98592 0.0
H1639 H 0.68623 0.90134 0.9839 0.0
H1640 H 0.62427 0.92349 0.01396 0.0
H1641 H 0.63866 0.96209 0.01585 0.0
C1642 C 0.70222 0.04172 0.08123 0.0
C1643 C 0.68173 0.04139 0.0933 0.0
C1644 C 0.70408 0.03185 0.05908 0.0
C1645 C 0.6854 0.0218 0.04845 0.0
C1646 C 0.66486 0.02195 0.06035 0.0
C1647 C 0.66306 0.03155 0.08251 0.0
C1648 C 0.68714 0.0105 0.02531 0.0
C1649 C 0.67918 0.98848 0.0233 0.0
C1650 C 0.69622 0.02116 0.00532 0.0
C1651 C 0.70372 0.04478 0.00578 0.0
C1652 C 0.68902 0.06187 0.01277 0.0
C1653 C 0.69621 0.08409 0.01318 0.0
C1654 C 0.71802 0.08946 0.00647 0.0
C1655 C 0.73267 0.07261 0.99926 0.0
C1656 C 0.72557 0.05035 0.99883 0.0
C1657 C 0.66248 0.96517 0.92638 0.0
C1658 C 0.6814 0.96021 0.91274 0.0
C1659 C 0.66483 0.9738 0.94892 0.0
C1660 C 0.68614 0.97788 0.95823 0.0
C1661 C 0.70512 0.97287 0.94475 0.0
C1662 C 0.70277 0.96386 0.92225 0.0
C1663 C 0.68828 0.98788 0.98186 0.0
C1664 C 0.69697 0.00958 0.98393 0.0
C1665 C 0.6796 0.97706 1.00187 0.0
C1666 C 0.67091 0.95384 1.00085 0.0
C1667 C 0.68424 0.93645 0.99192 0.0
C1668 C 0.67591 0.91465 0.99083 0.0
C1669 C 0.6543 0.90999 0.99875 0.0
C1670 C 0.641 0.92713 0.00782 0.0
C1671 C 0.64925 0.94897 0.00893 0.0
H1672 H 0.64788 0.8931 0.9979 0.0
H1673 H 0.72356 0.10668 0.00679 0.0
H1674 H 0.02168 0.3584 0.90952 0.0
H1675 H 0.00587 0.35523 0.94867 0.0
H1676 H 0.04122 0.29318 0.9591 0.0
H1677 H 0.05725 0.29623 0.91968 0.0
H1678 H 0.97884 0.32337 0.96767 0.0
H1679 H 0.05538 0.29141 0.01836 0.0
H1680 H 0.09659 0.29216 0.01599 0.0
H1681 H 0.09382 0.35433 0.97853 0.0
H1682 H 0.05264 0.35408 0.98095 0.0
H1683 H 0.94775 0.29692 0.08657 0.0
H1684 H 0.96364 0.29377 0.04708 0.0
H1685 H 1.00006 0.35513 0.05769 0.0
H1686 H 0.98427 0.35847 0.09684 0.0
H1687 H 0.02649 0.32192 0.03865 0.0
H1688 H 0.95413 0.35594 0.02579 0.0
H1689 H 0.91301 0.35801 0.02822 0.0
H1690 H 0.90751 0.29651 0.98998 0.0
H1691 H 0.94864 0.29393 0.98759 0.0
C1692 C 0.02621 0.34408 0.92011 0.0
C1693 C 0.04081 0.32759 0.91148 0.0
C1694 C 0.01701 0.34224 0.94246 0.0
C1695 C 0.02233 0.32399 0.95682 0.0
C1696 C 0.03698 0.30748 0.94835 0.0
C1697 C 0.04612 0.30925 0.92584 0.0
C1698 C 0.01264 0.32262 0.9807 0.0
C1699 C 0.98927 0.32283 0.98318 0.0
C1700 C 0.0262 0.32208 1.00096 0.0
C1701 C 0.05095 0.32256 0.99959 0.0
C1702 C 0.06359 0.30525 0.00966 0.0
C1703 C 0.08693 0.30559 0.00831 0.0
C1704 C 0.09781 0.32324 0.99703 0.0
C1705 C 0.08537 0.34062 0.98717 0.0
C1706 C 0.06203 0.34037 0.98849 0.0
C1707 C 0.95908 0.30976 0.08043 0.0
C1708 C 0.96467 0.32798 0.09482 0.0
C1709 C 0.96815 0.30794 0.05789 0.0
C1710 C 0.98307 0.32421 0.04948 0.0
C1711 C 0.98869 0.34233 0.06387 0.0
C1712 C 0.97951 0.34427 0.08621 0.0
C1713 C 0.99271 0.32276 0.0256 0.0
C1714 C 0.01607 0.32201 0.02312 0.0
C1715 C 0.97914 0.32306 0.00535 0.0
C1716 C 0.95444 0.3246 0.00676 0.0
C1717 C 0.94415 0.34276 0.01809 0.0
C1718 C 0.92085 0.34405 0.01942 0.0
C1719 C 0.90765 0.32737 0.00933 0.0
C1720 C 0.91775 0.30939 0.99783 0.0
C1721 C 0.94105 0.30801 0.99647 0.0
H1722 H 0.88961 0.3284 0.01037 0.0
H1723 H 0.11588 0.32346 0.99599 0.0
H1724 H 0.29407 0.05799 0.91993 0.0
H1725 H 0.29164 0.04248 0.95962 0.0
H1726 H 0.35298 0.00614 0.94823 0.0
H1727 H 0.35552 0.02144 0.90882 0.0
H1728 H 0.3213 0.97977 0.9682 0.0
H1729 H 0.35319 0.05304 0.98015 0.0
H1730 H 0.35426 0.09416 0.97735 0.0
H1731 H 0.29278 0.09853 0.01589 0.0
H1732 H 0.29121 0.05738 0.01866 0.0
H1733 H 0.35642 0.98729 0.09792 0.0
H1734 H 0.35324 1.00262 0.05857 0.0
H1735 H 0.29299 0.9645 0.0474 0.0
H1736 H 0.29612 0.94889 0.08697 0.0
H1737 H 0.3212 0.02808 0.03868 0.0
H1738 H 0.29199 0.95 0.98853 0.0
H1739 H 0.29427 0.90889 0.99126 0.0
H1740 H 0.35603 0.91421 0.02913 0.0
H1741 H 0.35425 0.95531 0.02636 0.0
C1742 C 0.30706 0.04677 0.92594 0.0
C1743 C 0.32502 0.04102 0.91122 0.0
C1744 C 0.30566 0.03791 0.9486 0.0
C1745 C 0.32214 0.02313 0.95688 0.0
C1746 C 0.34001 0.0174 0.94218 0.0
C1747 C 0.3415 0.0263 0.91967 0.0
C1748 C 0.3211 0.01368 0.98089 0.0
C1749 C 0.32108 0.99034 0.98362 0.0
C1750 C 0.32102 0.02743 1.00101 0.0
C1751 C 0.32195 0.05214 0.99937 0.0
C1752 C 0.3398 0.06276 0.98785 0.0
C1753 C 0.34052 0.08608 0.98631 0.0
C1754 C 0.32356 0.09895 0.99637 0.0
C1755 C 0.30588 0.08853 0.00806 0.0
C1756 C 0.30507 0.06522 0.00964 0.0
C1757 C 0.3425 0.98205 0.08712 0.0
C1758 C 0.32656 0.96678 0.09559 0.0
C1759 C 0.34065 0.99097 0.06464 0.0
C1760 C 0.32291 0.98472 0.05001 0.0
C1761 C 0.30692 0.96944 0.05834 0.0
C1762 C 0.30873 0.96054 0.08095 0.0
C1763 C 0.32149 0.99416 0.026 0.0
C1764 C 0.32102 0.0175 0.02328 0.0
C1765 C 0.32146 0.98041 0.00588 0.0
C1766 C 0.32282 0.95572 0.00749 0.0
C1767 C 0.30607 0.94238 0.9974 0.0
C1768 C 0.30728 0.91908 0.99895 0.0
C1769 C 0.32524 0.90894 0.01045 0.0
C1770 C 0.34208 0.92208 0.02033 0.0
C1771 C 0.34096 0.94538 0.0188 0.0
H1772 H 0.32614 0.89091 0.01164 0.0
H1773 H 0.32415 0.117 0.99516 0.0
H1774 H 0.96092 0.64413 0.91668 0.0
H1775 H 0.97635 0.64713 0.95605 0.0
H1776 H 0.9717 0.71897 0.95229 0.0
H1777 H 0.95605 0.7161 0.91269 0.0
H1778 H 0.01373 0.70333 0.96777 0.0
H1779 H 0.93647 0.69278 0.9865 0.0
H1780 H 0.89954 0.67458 0.98433 0.0
H1781 H 0.92793 0.61335 0.00993 0.0
H1782 H 0.96511 0.63108 0.01194 0.0
H1783 H 0.04585 0.71286 0.08859 0.0
H1784 H 0.02775 0.7166 0.05033 0.0
H1785 H 0.01702 0.64528 0.04836 0.0
H1786 H 0.03431 0.64161 0.08677 0.0
H1787 H 0.9805 0.6651 0.03645 0.0
H1788 H 0.05778 0.67337 0.01421 0.0
H1789 H 0.09546 0.69007 0.01529 0.0
H1790 H 0.06817 0.7537 0.99541 0.0
H1791 H 0.03026 0.73743 0.9945 0.0
C1792 C 0.96293 0.66058 0.92428 0.0
C1793 C 0.95722 0.67988 0.91157 0.0
C1794 C 0.97173 0.66226 0.94682 0.0
C1795 C 0.9751 0.68327 0.95714 0.0
C1796 C 0.96921 0.7026 0.94464 0.0
C1797 C 0.96015 0.70093 0.9221 0.0
C1798 C 0.98546 0.68478 0.98068 0.0
C1799 C 0.0063 0.69536 0.98294 0.0
C1800 C 0.97599 0.67393 1.00029 0.0
C1801 C 0.95362 0.66323 0.9992 0.0
C1802 C 0.93488 0.67538 0.9915 0.0
C1803 C 0.91389 0.66516 0.99033 0.0
C1804 C 0.9114 0.64281 0.99694 0.0
C1805 C 0.92989 0.63065 0.0048 0.0
C1806 C 0.95091 0.64079 0.00598 0.0
C1807 C 0.03985 0.69797 0.07984 0.0
C1808 C 0.04148 0.67695 0.09071 0.0
C1809 C 0.02954 0.70011 0.05794 0.0
C1810 C 0.02105 0.6812 0.04633 0.0
C1811 C 0.02326 0.66015 0.05697 0.0
C1812 C 0.03326 0.65806 0.07892 0.0
C1813 C 0.00914 0.68317 0.02353 0.0
C1814 C 0.98792 0.67328 0.0214 0.0
C1815 C 0.0184 0.69445 0.00401 0.0
C1816 C 0.04117 0.70425 0.00456 0.0
C1817 C 0.05979 0.69097 0.01026 0.0
C1818 C 0.08119 0.70034 0.01081 0.0
C1819 C 0.0842 0.72295 0.0055 0.0
C1820 C 0.06581 0.7362 0.99957 0.0
C1821 C 0.04437 0.72691 0.99902 0.0
H1822 H 0.10078 0.73017 0.00593 0.0
H1823 H 0.89514 0.63493 0.99602 0.0
loop_
_geom_bond_atom_site_label_1
_geom_bond_atom_site_label_2
_geom_bond_distance
_geom_bond_site_symmetry_2
_ccdc_geom_bond_type
O0 Cd1 2.223 . S
O0 C8 1.315 . S
Cd1 O0 2.223 . S
Cd1 O4 2.297 . S
Cd1 O5 2.439 . S
Cd1 O11 2.240 . S
Cd2 O3 2.240 . S
Cd2 O10 2.223 . S
Cd2 O12 2.297 . S
Cd2 O13 2.439 . S
O3 Cd2 2.240 . S
O3 C8 1.279 . S
O4 Cd1 2.297 . S
O4 C6 1.247 . S
O5 Cd1 2.439 . S
O5 C6 1.208 . S
C6 O4 1.247 . S
C6 O5 1.208 . S
C7 O12 1.247 . S
C7 O13 1.208 . S
C8 O0 1.315 . S
C8 O3 1.279 . S
C9 O10 1.315 . S
C9 O11 1.279 . S
O10 Cd2 2.223 . S
O10 C9 1.315 . S
O11 Cd1 2.240 . S
O11 C9 1.279 . S
O12 Cd2 2.297 . S
O12 C7 1.247 . S
O13 Cd2 2.439 . S
O13 C7 1.208 . S
O14 Cd15 2.223 . S
O14 C22 1.315 . S
Cd15 O14 2.223 . S
Cd15 O18 2.297 . S
Cd15 O19 2.439 . S
Cd15 O25 2.240 . S
Cd16 O17 2.240 . S
Cd16 O24 2.223 . S
Cd16 O26 2.297 . S
Cd16 O27 2.439 . S
O17 Cd16 2.240 . S
O17 C22 1.279 . S
O18 Cd15 2.297 . S
O18 C20 1.247 . S
O19 Cd15 2.439 . S
O19 C20 1.208 . S
C20 O18 1.247 . S
C20 O19 1.208 . S
C21 O26 1.247 . S
C21 O27 1.208 . S
C22 O14 1.315 . S
C22 O17 1.279 . S
C23 O24 1.315 . S
C23 O25 1.279 . S
O24 Cd16 2.223 . S
O24 C23 1.315 . S
O25 Cd15 2.240 . S
O25 C23 1.279 . S
O26 Cd16 2.297 . S
O26 C21 1.247 . S
O27 Cd16 2.439 . S
O27 C21 1.208 . S
O28 Cd29 2.223 . S
O28 C36 1.315 . S
Cd29 O28 2.223 . S
Cd29 O32 2.297 . S
Cd29 O33 2.439 . S
Cd29 O39 2.240 . S
Cd30 O31 2.240 . S
Cd30 O38 2.223 . S
Cd30 O40 2.297 . S
Cd30 O41 2.439 . S
O31 Cd30 2.240 . S
O31 C36 1.279 . S
O32 Cd29 2.297 . S
O32 C34 1.247 . S
O33 Cd29 2.439 . S
O33 C34 1.208 . S
C34 O32 1.247 . S
C34 O33 1.208 . S
C35 O40 1.247 . S
C35 O41 1.208 . S
C36 O28 1.315 . S
C36 O31 1.279 . S
C37 O38 1.315 . S
C37 O39 1.279 . S
O38 Cd30 2.223 . S
O38 C37 1.315 . S
O39 Cd29 2.240 . S
O39 C37 1.279 . S
O40 Cd30 2.297 . S
O40 C35 1.247 . S
O41 Cd30 2.439 . S
O41 C35 1.208 . S
O42 Cd43 2.223 . S
O42 C50 1.315 . S
Cd43 O42 2.223 . S
Cd43 O46 2.297 . S
Cd43 O47 2.439 . S
Cd43 O53 2.240 . S
Cd44 O45 2.240 . S
Cd44 O52 2.223 . S
Cd44 O54 2.297 . S
Cd44 O55 2.439 . S
O45 Cd44 2.240 . S
O45 C50 1.279 . S
O46 Cd43 2.297 . S
O46 C48 1.247 . S
O47 Cd43 2.439 . S
O47 C48 1.208 . S
C48 O46 1.247 . S
C48 O47 1.208 . S
C49 O54 1.247 . S
C49 O55 1.208 . S
C50 O42 1.315 . S
C50 O45 1.279 . S
C51 O52 1.315 . S
C51 O53 1.279 . S
O52 Cd44 2.223 . S
O52 C51 1.315 . S
O53 Cd43 2.240 . S
O53 C51 1.279 . S
O54 Cd44 2.297 . S
O54 C49 1.247 . S
O55 Cd44 2.439 . S
O55 C49 1.208 . S
O56 Cd57 2.223 . S
O56 C64 1.315 . S
Cd57 O56 2.223 . S
Cd57 O60 2.297 . S
Cd57 O61 2.439 . S
Cd57 O67 2.240 . S
Cd58 O59 2.240 . S
Cd58 O66 2.223 . S
Cd58 O68 2.297 . S
Cd58 O69 2.439 . S
O59 Cd58 2.240 . S
O59 C64 1.279 . S
O60 Cd57 2.297 . S
O60 C62 1.247 . S
O61 Cd57 2.439 . S
O61 C62 1.208 . S
C62 O60 1.247 . S
C62 O61 1.208 . S
C63 O68 1.247 . S
C63 O69 1.208 . S
C64 O56 1.315 . S
C64 O59 1.279 . S
C65 O66 1.315 . S
C65 O67 1.279 . S
O66 Cd58 2.223 . S
O66 C65 1.315 . S
O67 Cd57 2.240 . S
O67 C65 1.279 . S
O68 Cd58 2.297 . S
O68 C63 1.247 . S
O69 Cd58 2.439 . S
O69 C63 1.208 . S
O70 Cd71 2.223 . S
O70 C78 1.315 . S
Cd71 O70 2.223 . S
Cd71 O74 2.297 . S
Cd71 O75 2.439 . S
Cd71 O81 2.240 . S
Cd72 O73 2.240 . S
Cd72 O80 2.223 . S
Cd72 O82 2.297 . S
Cd72 O83 2.439 . S
O73 Cd72 2.240 . S
O73 C78 1.279 . S
O74 Cd71 2.297 . S
O74 C76 1.247 . S
O75 Cd71 2.439 . S
O75 C76 1.208 . S
C76 O74 1.247 . S
C76 O75 1.208 . S
C77 O82 1.247 . S
C77 O83 1.208 . S
C78 O70 1.315 . S
C78 O73 1.279 . S
C79 O80 1.315 . S
C79 O81 1.279 . S
O80 Cd72 2.223 . S
O80 C79 1.315 . S
O81 Cd71 2.240 . S
O81 C79 1.279 . S
O82 Cd72 2.297 . S
O82 C77 1.247 . S
O83 Cd72 2.439 . S
O83 C77 1.208 . S
O84 Cd85 2.223 . S
O84 C92 1.315 . S
Cd85 O84 2.223 . S
Cd85 O88 2.297 . S
Cd85 O89 2.439 . S
Cd85 O95 2.240 . S
Cd86 O87 2.240 . S
Cd86 O94 2.223 . S
Cd86 O96 2.297 . S
Cd86 O97 2.439 . S
O87 Cd86 2.240 . S
O87 C92 1.279 . S
O88 Cd85 2.297 . S
O88 C90 1.247 . S
O89 Cd85 2.439 . S
O89 C90 1.208 . S
C90 O88 1.247 . S
C90 O89 1.208 . S
C91 O96 1.247 . S
C91 O97 1.208 . S
C92 O84 1.315 . S
C92 O87 1.279 . S
C93 O94 1.315 . S
C93 O95 1.279 . S
O94 Cd86 2.223 . S
O94 C93 1.315 . S
O95 Cd85 2.240 . S
O95 C93 1.279 . S
O96 Cd86 2.297 . S
O96 C91 1.247 . S
O97 Cd86 2.439 . S
O97 C91 1.208 . S
O98 Cd99 2.223 . S
O98 C106 1.315 . S
Cd99 O98 2.223 . S
Cd99 O102 2.297 . S
Cd99 O103 2.439 . S
Cd99 O109 2.240 . S
Cd100 O101 2.240 . S
Cd100 O108 2.223 . S
Cd100 O110 2.297 . S
Cd100 O111 2.439 . S
O101 Cd100 2.240 . S
O101 C106 1.279 . S
O102 Cd99 2.297 . S
O102 C104 1.247 . S
O103 Cd99 2.439 . S
O103 C104 1.208 . S
C104 O102 1.247 . S
C104 O103 1.208 . S
C105 O110 1.247 . S
C105 O111 1.208 . S
C106 O98 1.315 . S
C106 O101 1.279 . S
C107 O108 1.315 . S
C107 O109 1.279 . S
O108 Cd100 2.223 . S
O108 C107 1.315 . S
O109 Cd99 2.240 . S
O109 C107 1.279 . S
O110 Cd100 2.297 . S
O110 C105 1.247 . S
O111 Cd100 2.439 . S
O111 C105 1.208 . S
O112 Cd113 2.223 . S
O112 C120 1.315 . S
Cd113 O112 2.223 . S
Cd113 O116 2.297 . S
Cd113 O117 2.439 . S
Cd113 O123 2.240 . S
Cd114 O115 2.240 . S
Cd114 O122 2.223 . S
Cd114 O124 2.297 . S
Cd114 O125 2.439 . S
O115 Cd114 2.240 . S
O115 C120 1.279 . S
O116 Cd113 2.297 . S
O116 C118 1.247 . S
O117 Cd113 2.439 . S
O117 C118 1.208 . S
C118 O116 1.247 . S
C118 O117 1.208 . S
C119 O124 1.247 . S
C119 O125 1.208 . S
C120 O112 1.315 . S
C120 O115 1.279 . S
C121 O122 1.315 . S
C121 O123 1.279 . S
O122 Cd114 2.223 . S
O122 C121 1.315 . S
O123 Cd113 2.240 . S
O123 C121 1.279 . S
O124 Cd114 2.297 . S
O124 C119 1.247 . S
O125 Cd114 2.439 . S
O125 C119 1.208 . S
O126 Cd127 2.223 . S
O126 C134 1.315 . S
Cd127 O126 2.223 . S
Cd127 O130 2.297 . S
Cd127 O131 2.439 . S
Cd127 O137 2.240 . S
Cd128 O129 2.240 . S
Cd128 O136 2.223 . S
Cd128 O138 2.297 . S
Cd128 O139 2.439 . S
O129 Cd128 2.240 . S
O129 C134 1.279 . S
O130 Cd127 2.297 . S
O130 C132 1.247 . S
O131 Cd127 2.439 . S
O131 C132 1.208 . S
C132 O130 1.247 . S
C132 O131 1.208 . S
C133 O138 1.247 . S
C133 O139 1.208 . S
C134 O126 1.315 . S
C134 O129 1.279 . S
C135 O136 1.315 . S
C135 O137 1.279 . S
O136 Cd128 2.223 . S
O136 C135 1.315 . S
O137 Cd127 2.240 . S
O137 C135 1.279 . S
O138 Cd128 2.297 . S
O138 C133 1.247 . S
O139 Cd128 2.439 . S
O139 C133 1.208 . S
O140 Cd141 2.223 . S
O140 C148 1.315 . S
Cd141 O140 2.223 . S
Cd141 O144 2.297 . S
Cd141 O145 2.439 . S
Cd141 O151 2.240 . S
Cd142 O143 2.240 . S
Cd142 O150 2.223 . S
Cd142 O152 2.297 . S
Cd142 O153 2.439 . S
O143 Cd142 2.240 . S
O143 C148 1.279 . S
O144 Cd141 2.297 . S
O144 C146 1.247 . S
O145 Cd141 2.439 . S
O145 C146 1.208 . S
C146 O144 1.247 . S
C146 O145 1.208 . S
C147 O152 1.247 . S
C147 O153 1.208 . S
C148 O140 1.315 . S
C148 O143 1.279 . S
C149 O150 1.315 . S
C149 O151 1.279 . S
O150 Cd142 2.223 . S
O150 C149 1.315 . S
O151 Cd141 2.240 . S
O151 C149 1.279 . S
O152 Cd142 2.297 . S
O152 C147 1.247 . S
O153 Cd142 2.439 . S
O153 C147 1.208 . S
O154 Cd155 2.223 . S
O154 C162 1.315 . S
Cd155 O154 2.223 . S
Cd155 O158 2.297 . S
Cd155 O159 2.439 . S
Cd155 O165 2.240 . S
Cd156 O157 2.240 . S
Cd156 O164 2.223 . S
Cd156 O166 2.297 . S
Cd156 O167 2.439 . S
O157 Cd156 2.240 . S
O157 C162 1.279 . S
O158 Cd155 2.297 . S
O158 C160 1.247 . S
O159 Cd155 2.439 . S
O159 C160 1.208 . S
C160 O158 1.247 . S
C160 O159 1.208 . S
C161 O166 1.247 . S
C161 O167 1.208 . S
C162 O154 1.315 . S
C162 O157 1.279 . S
C163 O164 1.315 . S
C163 O165 1.279 . S
O164 Cd156 2.223 . S
O164 C163 1.315 . S
O165 Cd155 2.240 . S
O165 C163 1.279 . S
O166 Cd156 2.297 . S
O166 C161 1.247 . S
O167 Cd156 2.439 . S
O167 C161 1.208 . S
O168 Cd169 2.223 . S
O168 C176 1.315 . S
Cd169 O168 2.223 . S
Cd169 O172 2.297 . S
Cd169 O173 2.439 . S
Cd169 O179 2.240 . S
Cd170 O171 2.240 . S
Cd170 O178 2.223 . S
Cd170 O180 2.297 . S
Cd170 O181 2.439 . S
O171 Cd170 2.240 . S
O171 C176 1.279 . S
O172 Cd169 2.297 . S
O172 C174 1.247 . S
O173 Cd169 2.439 . S
O173 C174 1.208 . S
C174 O172 1.247 . S
C174 O173 1.208 . S
C175 O180 1.247 . S
C175 O181 1.208 . S
C176 O168 1.315 . S
C176 O171 1.279 . S
C177 O178 1.315 . S
C177 O179 1.279 . S
O178 Cd170 2.223 . S
O178 C177 1.315 . S
O179 Cd169 2.240 . S
O179 C177 1.279 . S
O180 Cd170 2.297 . S
O180 C175 1.247 . S
O181 Cd170 2.439 . S
O181 C175 1.208 . S
O182 Cd183 2.223 . S
O182 C190 1.315 . S
Cd183 O182 2.223 . S
Cd183 O186 2.297 . S
Cd183 O187 2.439 . S
Cd183 O193 2.240 . S
Cd184 O185 2.240 . S
Cd184 O192 2.223 . S
Cd184 O194 2.297 . S
Cd184 O195 2.439 . S
O185 Cd184 2.240 . S
O185 C190 1.279 . S
O186 Cd183 2.297 . S
O186 C188 1.247 . S
O187 Cd183 2.439 . S
O187 C188 1.208 . S
C188 O186 1.247 . S
C188 O187 1.208 . S
C189 O194 1.247 . S
C189 O195 1.208 . S
C190 O182 1.315 . S
C190 O185 1.279 . S
C191 O192 1.315 . S
C191 O193 1.279 . S
O192 Cd184 2.223 . S
O192 C191 1.315 . S
O193 Cd183 2.240 . S
O193 C191 1.279 . S
O194 Cd184 2.297 . S
O194 C189 1.247 . S
O195 Cd184 2.439 . S
O195 C189 1.208 . S
O196 Cd197 2.223 . S
O196 C204 1.315 . S
Cd197 O196 2.223 . S
Cd197 O200 2.297 . S
Cd197 O201 2.439 . S
Cd197 O207 2.240 . S
Cd198 O199 2.240 . S
Cd198 O206 2.223 . S
Cd198 O208 2.297 . S
Cd198 O209 2.439 . S
O199 Cd198 2.240 . S
O199 C204 1.279 . S
O200 Cd197 2.297 . S
O200 C202 1.247 . S
O201 Cd197 2.439 . S
O201 C202 1.208 . S
C202 O200 1.247 . S
C202 O201 1.208 . S
C203 O208 1.247 . S
C203 O209 1.208 . S
C204 O196 1.315 . S
C204 O199 1.279 . S
C205 O206 1.315 . S
C205 O207 1.279 . S
O206 Cd198 2.223 . S
O206 C205 1.315 . S
O207 Cd197 2.240 . S
O207 C205 1.279 . S
O208 Cd198 2.297 . S
O208 C203 1.247 . S
O209 Cd198 2.439 . S
O209 C203 1.208 . S
O210 Cd211 2.223 . S
O210 C218 1.315 . S
Cd211 O210 2.223 . S
Cd211 O214 2.297 . S
Cd211 O215 2.439 . S
Cd211 O221 2.240 . S
Cd212 O213 2.240 . S
Cd212 O220 2.223 . S
Cd212 O222 2.297 . S
Cd212 O223 2.439 . S
O213 Cd212 2.240 . S
O213 C218 1.279 . S
O214 Cd211 2.297 . S
O214 C216 1.247 . S
O215 Cd211 2.439 . S
O215 C216 1.208 . S
C216 O214 1.247 . S
C216 O215 1.208 . S
C217 O222 1.247 . S
C217 O223 1.208 . S
C218 O210 1.315 . S
C218 O213 1.279 . S
C219 O220 1.315 . S
C219 O221 1.279 . S
O220 Cd212 2.223 . S
O220 C219 1.315 . S
O221 Cd211 2.240 . S
O221 C219 1.279 . S
O222 Cd212 2.297 . S
O222 C217 1.247 . S
O223 Cd212 2.439 . S
O223 C217 1.208 . S
H224 C242 0.951 . S
H225 C244 0.951 . S
H226 C246 0.950 . S
H227 C247 0.950 . S
H228 C249 0.950 . S
H229 C252 0.950 . S
H230 C253 0.950 . S
H231 C255 0.950 . S
H232 C256 0.950 . S
H233 C257 0.951 . S
H234 C259 0.951 . S
H235 C261 0.950 . S
H236 C262 0.950 . S
H237 C264 0.950 . S
H238 C267 0.950 . S
H239 C268 0.950 . S
H240 C270 0.950 . S
H241 C271 0.950 . S
C242 H224 0.951 . S
C242 C243 1.366 . S
C242 C244 1.388 . S
C243 C242 1.366 . S
C243 C247 1.385 . S
C244 H225 0.951 . S
C244 C242 1.388 . S
C244 C245 1.366 . S
C245 C244 1.366 . S
C245 C246 1.414 . S
C245 C248 1.499 . S
C246 H226 0.950 . S
C246 C245 1.414 . S
C246 C247 1.374 . S
C247 H227 0.950 . S
C247 C243 1.385 . S
C247 C246 1.374 . S
C248 C245 1.499 . S
C248 C249 1.373 . S
C248 C250 1.389 . S
C249 H228 0.950 . S
C249 C248 1.373 . S
C249 C265 1.377 . S
C250 C248 1.389 . S
C250 C251 1.524 . S
C250 C264 1.377 . S
C251 C250 1.524 . S
C251 C252 1.397 . S
C251 C256 1.363 . S
C252 H229 0.950 . S
C252 C251 1.397 . S
C252 C253 1.334 . S
C253 H230 0.950 . S
C253 C252 1.334 . S
C253 C254 1.287 . S
C254 C253 1.287 . S
C254 C255 1.524 . S
C254 H273 0.913 . S
C255 H231 0.950 . S
C255 C254 1.524 . S
C255 C256 1.415 . S
C256 H232 0.950 . S
C256 C251 1.363 . S
C256 C255 1.415 . S
C257 H233 0.951 . S
C257 C258 1.366 . S
C257 C259 1.388 . S
C258 C257 1.366 . S
C258 C262 1.385 . S
C259 H234 0.951 . S
C259 C257 1.388 . S
C259 C260 1.366 . S
C260 C259 1.366 . S
C260 C261 1.414 . S
C260 C263 1.499 . S
C261 H235 0.950 . S
C261 C260 1.414 . S
C261 C262 1.374 . S
C262 H236 0.950 . S
C262 C258 1.385 . S
C262 C261 1.374 . S
C263 C260 1.499 . S
C263 C264 1.373 . S
C263 C265 1.389 . S
C264 H237 0.950 . S
C264 C250 1.377 . S
C264 C263 1.373 . S
C265 C249 1.377 . S
C265 C263 1.389 . S
C265 C266 1.524 . S
C266 C265 1.524 . S
C266 C267 1.397 . S
C266 C271 1.363 . S
C267 H238 0.950 . S
C267 C266 1.397 . S
C267 C268 1.334 . S
C268 H239 0.950 . S
C268 C267 1.334 . S
C268 C269 1.287 . S
C269 C268 1.287 . S
C269 C270 1.524 . S
C269 H272 0.999 . S
C270 H240 0.950 . S
C270 C269 1.524 . S
C270 C271 1.415 . S
C271 H241 0.950 . S
C271 C266 1.363 . S
C271 C270 1.415 . S
H272 C269 0.999 . S
H273 C254 0.913 . S
H274 C292 0.951 . S
H275 C294 0.951 . S
H276 C296 0.950 . S
H277 C297 0.950 . S
H278 C299 0.950 . S
H279 C302 0.950 . S
H280 C303 0.950 . S
H281 C305 0.950 . S
H282 C306 0.950 . S
H283 C307 0.951 . S
H284 C309 0.951 . S
H285 C311 0.950 . S
H286 C312 0.950 . S
H287 C314 0.950 . S
H288 C317 0.950 . S
H289 C318 0.950 . S
H290 C320 0.950 . S
H291 C321 0.950 . S
C292 H274 0.951 . S
C292 C293 1.366 . S
C292 C294 1.388 . S
C293 C292 1.366 . S
C293 C297 1.385 . S
C294 H275 0.951 . S
C294 C292 1.388 . S
C294 C295 1.366 . S
C295 C294 1.366 . S
C295 C296 1.414 . S
C295 C298 1.499 . S
C296 H276 0.950 . S
C296 C295 1.414 . S
C296 C297 1.374 . S
C297 H277 0.950 . S
C297 C293 1.385 . S
C297 C296 1.374 . S
C298 C295 1.499 . S
C298 C299 1.373 . S
C298 C300 1.389 . S
C299 H278 0.950 . S
C299 C298 1.373 . S
C299 C315 1.377 . S
C300 C298 1.389 . S
C300 C301 1.524 . S
C300 C314 1.377 . S
C301 C300 1.524 . S
C301 C302 1.397 . S
C301 C306 1.363 . S
C302 H279 0.950 . S
C302 C301 1.397 . S
C302 C303 1.334 . S
C303 H280 0.950 . S
C303 C302 1.334 . S
C303 C304 1.287 . S
C304 C303 1.287 . S
C304 C305 1.524 . S
C304 H323 0.913 . S
C305 H281 0.950 . S
C305 C304 1.524 . S
C305 C306 1.415 . S
C306 H282 0.950 . S
C306 C301 1.363 . S
C306 C305 1.415 . S
C307 H283 0.951 . S
C307 C308 1.366 . S
C307 C309 1.388 . S
C308 C307 1.366 . S
C308 C312 1.385 . S
C309 H284 0.951 . S
C309 C307 1.388 . S
C309 C310 1.366 . S
C310 C309 1.366 . S
C310 C311 1.414 . S
C310 C313 1.499 . S
C311 H285 0.950 . S
C311 C310 1.414 . S
C311 C312 1.374 . S
C312 H286 0.950 . S
C312 C308 1.385 . S
C312 C311 1.374 . S
C313 C310 1.499 . S
C313 C314 1.373 . S
C313 C315 1.389 . S
C314 H287 0.950 . S
C314 C300 1.377 . S
C314 C313 1.373 . S
C315 C299 1.377 . S
C315 C313 1.389 . S
C315 C316 1.524 . S
C316 C315 1.524 . S
C316 C317 1.397 . S
C316 C321 1.363 . S
C317 H288 0.950 . S
C317 C316 1.397 . S
C317 C318 1.334 . S
C318 H289 0.950 . S
C318 C317 1.334 . S
C318 C319 1.287 . S
C319 C318 1.287 . S
C319 C320 1.524 . S
C319 H322 0.999 . S
C320 H290 0.950 . S
C320 C319 1.524 . S
C320 C321 1.415 . S
C321 H291 0.950 . S
C321 C316 1.363 . S
C321 C320 1.415 . S
H322 C319 0.999 . S
H323 C304 0.913 . S
H324 C342 0.951 . S
H325 C344 0.951 . S
H326 C346 0.950 . S
H327 C347 0.950 . S
H328 C349 0.950 . S
H329 C352 0.950 . S
H330 C353 0.950 . S
H331 C355 0.950 . S
H332 C356 0.950 . S
H333 C357 0.951 . S
H334 C359 0.951 . S
H335 C361 0.950 . S
H336 C362 0.950 . S
H337 C364 0.950 . S
H338 C367 0.950 . S
H339 C368 0.950 . S
H340 C370 0.950 . S
H341 C371 0.950 . S
C342 H324 0.951 . S
C342 C343 1.366 . S
C342 C344 1.388 . S
C343 C342 1.366 . S
C343 C347 1.385 . S
C344 H325 0.951 . S
C344 C342 1.388 . S
C344 C345 1.366 . S
C345 C344 1.366 . S
C345 C346 1.414 . S
C345 C348 1.499 . S
C346 H326 0.950 . S
C346 C345 1.414 . S
C346 C347 1.374 . S
C347 H327 0.950 . S
C347 C343 1.385 . S
C347 C346 1.374 . S
C348 C345 1.499 . S
C348 C349 1.373 . S
C348 C350 1.389 . S
C349 H328 0.950 . S
C349 C348 1.373 . S
C349 C365 1.377 . S
C350 C348 1.389 . S
C350 C351 1.524 . S
C350 C364 1.377 . S
C351 C350 1.524 . S
C351 C352 1.397 . S
C351 C356 1.363 . S
C352 H329 0.950 . S
C352 C351 1.397 . S
C352 C353 1.334 . S
C353 H330 0.950 . S
C353 C352 1.334 . S
C353 C354 1.287 . S
C354 C353 1.287 . S
C354 C355 1.524 . S
C354 H373 0.913 . S
C355 H331 0.950 . S
C355 C354 1.524 . S
C355 C356 1.415 . S
C356 H332 0.950 . S
C356 C351 1.363 . S
C356 C355 1.415 . S
C357 H333 0.951 . S
C357 C358 1.366 . S
C357 C359 1.388 . S
C358 C357 1.366 . S
C358 C362 1.385 . S
C359 H334 0.951 . S
C359 C357 1.388 . S
C359 C360 1.366 . S
C360 C359 1.366 . S
C360 C361 1.414 . S
C360 C363 1.499 . S
C361 H335 0.950 . S
C361 C360 1.414 . S
C361 C362 1.374 . S
C362 H336 0.950 . S
C362 C358 1.385 . S
C362 C361 1.374 . S
C363 C360 1.499 . S
C363 C364 1.373 . S
C363 C365 1.389 . S
C364 H337 0.950 . S
C364 C350 1.377 . S
C364 C363 1.373 . S
C365 C349 1.377 . S
C365 C363 1.389 . S
C365 C366 1.524 . S
C366 C365 1.524 . S
C366 C367 1.397 . S
C366 C371 1.363 . S
C367 H338 0.950 . S
C367 C366 1.397 . S
C367 C368 1.334 . S
C368 H339 0.950 . S
C368 C367 1.334 . S
C368 C369 1.287 . S
C369 C368 1.287 . S
C369 C370 1.524 . S
C369 H372 0.999 . S
C370 H340 0.950 . S
C370 C369 1.524 . S
C370 C371 1.415 . S
C371 H341 0.950 . S
C371 C366 1.363 . S
C371 C370 1.415 . S
H372 C369 0.999 . S
H373 C354 0.913 . S
H374 C392 0.951 . S
H375 C394 0.951 . S
H376 C396 0.950 . S
H377 C397 0.950 . S
H378 C399 0.950 . S
H379 C402 0.950 . S
H380 C403 0.950 . S
H381 C405 0.950 . S
H382 C406 0.950 . S
H383 C407 0.951 . S
H384 C409 0.951 . S
H385 C411 0.950 . S
H386 C412 0.950 . S
H387 C414 0.950 . S
H388 C417 0.950 . S
H389 C418 0.950 . S
H390 C420 0.950 . S
H391 C421 0.950 . S
C392 H374 0.951 . S
C392 C393 1.366 . S
C392 C394 1.388 . S
C393 C392 1.366 . S
C393 C397 1.385 . S
C394 H375 0.951 . S
C394 C392 1.388 . S
C394 C395 1.366 . S
C395 C394 1.366 . S
C395 C396 1.414 . S
C395 C398 1.499 . S
C396 H376 0.950 . S
C396 C395 1.414 . S
C396 C397 1.374 . S
C397 H377 0.950 . S
C397 C393 1.385 . S
C397 C396 1.374 . S
C398 C395 1.499 . S
C398 C399 1.373 . S
C398 C400 1.389 . S
C399 H378 0.950 . S
C399 C398 1.373 . S
C399 C415 1.377 . S
C400 C398 1.389 . S
C400 C401 1.524 . S
C400 C414 1.377 . S
C401 C400 1.524 . S
C401 C402 1.397 . S
C401 C406 1.363 . S
C402 H379 0.950 . S
C402 C401 1.397 . S
C402 C403 1.334 . S
C403 H380 0.950 . S
C403 C402 1.334 . S
C403 C404 1.287 . S
C404 C403 1.287 . S
C404 C405 1.524 . S
C404 H423 0.913 . S
C405 H381 0.950 . S
C405 C404 1.524 . S
C405 C406 1.415 . S
C406 H382 0.950 . S
C406 C401 1.363 . S
C406 C405 1.415 . S
C407 H383 0.951 . S
C407 C408 1.366 . S
C407 C409 1.388 . S
C408 C407 1.366 . S
C408 C412 1.385 . S
C409 H384 0.951 . S
C409 C407 1.388 . S
C409 C410 1.366 . S
C410 C409 1.366 . S
C410 C411 1.414 . S
C410 C413 1.499 . S
C411 H385 0.950 . S
C411 C410 1.414 . S
C411 C412 1.374 . S
C412 H386 0.950 . S
C412 C408 1.385 . S
C412 C411 1.374 . S
C413 C410 1.499 . S
C413 C414 1.373 . S
C413 C415 1.389 . S
C414 H387 0.950 . S
C414 C400 1.377 . S
C414 C413 1.373 . S
C415 C399 1.377 . S
C415 C413 1.389 . S
C415 C416 1.524 . S
C416 C415 1.524 . S
C416 C417 1.397 . S
C416 C421 1.363 . S
C417 H388 0.950 . S
C417 C416 1.397 . S
C417 C418 1.334 . S
C418 H389 0.950 . S
C418 C417 1.334 . S
C418 C419 1.287 . S
C419 C418 1.287 . S
C419 C420 1.524 . S
C419 H422 0.999 . S
C420 H390 0.950 . S
C420 C419 1.524 . S
C420 C421 1.415 . S
C421 H391 0.950 . S
C421 C416 1.363 . S
C421 C420 1.415 . S
H422 C419 0.999 . S
H423 C404 0.913 . S
H424 C442 0.951 . S
H425 C444 0.951 . S
H426 C446 0.950 . S
H427 C447 0.950 . S
H428 C449 0.950 . S
H429 C452 0.950 . S
H430 C453 0.950 . S
H431 C455 0.950 . S
H432 C456 0.950 . S
H433 C457 0.951 . S
H434 C459 0.951 . S
H435 C461 0.950 . S
H436 C462 0.950 . S
H437 C464 0.950 . S
H438 C467 0.950 . S
H439 C468 0.950 . S
H440 C470 0.950 . S
H441 C471 0.950 . S
C442 H424 0.951 . S
C442 C443 1.366 . S
C442 C444 1.388 . S
C443 C442 1.366 . S
C443 C447 1.385 . S
C444 H425 0.951 . S
C444 C442 1.388 . S
C444 C445 1.366 . S
C445 C444 1.366 . S
C445 C446 1.414 . S
C445 C448 1.499 . S
C446 H426 0.950 . S
C446 C445 1.414 . S
C446 C447 1.374 . S
C447 H427 0.950 . S
C447 C443 1.385 . S
C447 C446 1.374 . S
C448 C445 1.499 . S
C448 C449 1.373 . S
C448 C450 1.389 . S
C449 H428 0.950 . S
C449 C448 1.373 . S
C449 C465 1.377 . S
C450 C448 1.389 . S
C450 C451 1.524 . S
C450 C464 1.377 . S
C451 C450 1.524 . S
C451 C452 1.397 . S
C451 C456 1.363 . S
C452 H429 0.950 . S
C452 C451 1.397 . S
C452 C453 1.334 . S
C453 H430 0.950 . S
C453 C452 1.334 . S
C453 C454 1.287 . S
C454 C453 1.287 . S
C454 C455 1.524 . S
C454 H473 0.913 . S
C455 H431 0.950 . S
C455 C454 1.524 . S
C455 C456 1.415 . S
C456 H432 0.950 . S
C456 C451 1.363 . S
C456 C455 1.415 . S
C457 H433 0.951 . S
C457 C458 1.366 . S
C457 C459 1.388 . S
C458 C457 1.366 . S
C458 C462 1.385 . S
C459 H434 0.951 . S
C459 C457 1.388 . S
C459 C460 1.366 . S
C460 C459 1.366 . S
C460 C461 1.414 . S
C460 C463 1.499 . S
C461 H435 0.950 . S
C461 C460 1.414 . S
C461 C462 1.374 . S
C462 H436 0.950 . S
C462 C458 1.385 . S
C462 C461 1.374 . S
C463 C460 1.499 . S
C463 C464 1.373 . S
C463 C465 1.389 . S
C464 H437 0.950 . S
C464 C450 1.377 . S
C464 C463 1.373 . S
C465 C449 1.377 . S
C465 C463 1.389 . S
C465 C466 1.524 . S
C466 C465 1.524 . S
C466 C467 1.397 . S
C466 C471 1.363 . S
C467 H438 0.950 . S
C467 C466 1.397 . S
C467 C468 1.334 . S
C468 H439 0.950 . S
C468 C467 1.334 . S
C468 C469 1.287 . S
C469 C468 1.287 . S
C469 C470 1.524 . S
C469 H472 0.999 . S
C470 H440 0.950 . S
C470 C469 1.524 . S
C470 C471 1.415 . S
C471 H441 0.950 . S
C471 C466 1.363 . S
C471 C470 1.415 . S
H472 C469 0.999 . S
H473 C454 0.913 . S
H474 C492 0.951 . S
H475 C494 0.951 . S
H476 C496 0.950 . S
H477 C497 0.950 . S
H478 C499 0.950 . S
H479 C502 0.950 . S
H480 C503 0.950 . S
H481 C505 0.950 . S
H482 C506 0.950 . S
H483 C507 0.951 . S
H484 C509 0.951 . S
H485 C511 0.950 . S
H486 C512 0.950 . S
H487 C514 0.950 . S
H488 C517 0.950 . S
H489 C518 0.950 . S
H490 C520 0.950 . S
H491 C521 0.950 . S
C492 H474 0.951 . S
C492 C493 1.366 . S
C492 C494 1.388 . S
C493 C492 1.366 . S
C493 C497 1.385 . S
C494 H475 0.951 . S
C494 C492 1.388 . S
C494 C495 1.366 . S
C495 C494 1.366 . S
C495 C496 1.414 . S
C495 C498 1.499 . S
C496 H476 0.950 . S
C496 C495 1.414 . S
C496 C497 1.374 . S
C497 H477 0.950 . S
C497 C493 1.385 . S
C497 C496 1.374 . S
C498 C495 1.499 . S
C498 C499 1.373 . S
C498 C500 1.389 . S
C499 H478 0.950 . S
C499 C498 1.373 . S
C499 C515 1.377 . S
C500 C498 1.389 . S
C500 C501 1.524 . S
C500 C514 1.377 . S
C501 C500 1.524 . S
C501 C502 1.397 . S
C501 C506 1.363 . S
C502 H479 0.950 . S
C502 C501 1.397 . S
C502 C503 1.334 . S
C503 H480 0.950 . S
C503 C502 1.334 . S
C503 C504 1.287 . S
C504 C503 1.287 . S
C504 C505 1.524 . S
C504 H523 0.913 . S
C505 H481 0.950 . S
C505 C504 1.524 . S
C505 C506 1.415 . S
C506 H482 0.950 . S
C506 C501 1.363 . S
C506 C505 1.415 . S
C507 H483 0.951 . S
C507 C508 1.366 . S
C507 C509 1.388 . S
C508 C507 1.366 . S
C508 C512 1.385 . S
C509 H484 0.951 . S
C509 C507 1.388 . S
C509 C510 1.366 . S
C510 C509 1.366 . S
C510 C511 1.414 . S
C510 C513 1.499 . S
C511 H485 0.950 . S
C511 C510 1.414 . S
C511 C512 1.374 . S
C512 H486 0.950 . S
C512 C508 1.385 . S
C512 C511 1.374 . S
C513 C510 1.499 . S
C513 C514 1.373 . S
C513 C515 1.389 . S
C514 H487 0.950 . S
C514 C500 1.377 . S
C514 C513 1.373 . S
C515 C499 1.377 . S
C515 C513 1.389 . S
C515 C516 1.524 . S
C516 C515 1.524 . S
C516 C517 1.397 . S
C516 C521 1.363 . S
C517 H488 0.950 . S
C517 C516 1.397 . S
C517 C518 1.334 . S
C518 H489 0.950 . S
C518 C517 1.334 . S
C518 C519 1.287 . S
C519 C518 1.287 . S
C519 C520 1.524 . S
C519 H522 0.999 . S
C520 H490 0.950 . S
C520 C519 1.524 . S
C520 C521 1.415 . S
C521 H491 0.950 . S
C521 C516 1.363 . S
C521 C520 1.415 . S
H522 C519 0.999 . S
H523 C504 0.913 . S
H524 C542 0.951 . S
H525 C544 0.951 . S
H526 C546 0.950 . S
H527 C547 0.950 . S
H528 C549 0.950 . S
H529 C552 0.950 . S
H530 C553 0.950 . S
H531 C555 0.950 . S
H532 C556 0.950 . S
H533 C557 0.951 . S
H534 C559 0.951 . S
H535 C561 0.950 . S
H536 C562 0.950 . S
H537 C564 0.950 . S
H538 C567 0.950 . S
H539 C568 0.950 . S
H540 C570 0.950 . S
H541 C571 0.950 . S
C542 H524 0.951 . S
C542 C543 1.366 . S
C542 C544 1.388 . S
C543 C542 1.366 . S
C543 C547 1.385 . S
C544 H525 0.951 . S
C544 C542 1.388 . S
C544 C545 1.366 . S
C545 C544 1.366 . S
C545 C546 1.414 . S
C545 C548 1.499 . S
C546 H526 0.950 . S
C546 C545 1.414 . S
C546 C547 1.374 . S
C547 H527 0.950 . S
C547 C543 1.385 . S
C547 C546 1.374 . S
C548 C545 1.499 . S
C548 C549 1.373 . S
C548 C550 1.389 . S
C549 H528 0.950 . S
C549 C548 1.373 . S
C549 C565 1.377 . S
C550 C548 1.389 . S
C550 C551 1.524 . S
C550 C564 1.377 . S
C551 C550 1.524 . S
C551 C552 1.397 . S
C551 C556 1.363 . S
C552 H529 0.950 . S
C552 C551 1.397 . S
C552 C553 1.334 . S
C553 H530 0.950 . S
C553 C552 1.334 . S
C553 C554 1.287 . S
C554 C553 1.287 . S
C554 C555 1.524 . S
C554 H573 0.913 . S
C555 H531 0.950 . S
C555 C554 1.524 . S
C555 C556 1.415 . S
C556 H532 0.950 . S
C556 C551 1.363 . S
C556 C555 1.415 . S
C557 H533 0.951 . S
C557 C558 1.366 . S
C557 C559 1.388 . S
C558 C557 1.366 . S
C558 C562 1.385 . S
C559 H534 0.951 . S
C559 C557 1.388 . S
C559 C560 1.366 . S
C560 C559 1.366 . S
C560 C561 1.414 . S
C560 C563 1.499 . S
C561 H535 0.950 . S
C561 C560 1.414 . S
C561 C562 1.374 . S
C562 H536 0.950 . S
C562 C558 1.385 . S
C562 C561 1.374 . S
C563 C560 1.499 . S
C563 C564 1.373 . S
C563 C565 1.389 . S
C564 H537 0.950 . S
C564 C550 1.377 . S
C564 C563 1.373 . S
C565 C549 1.377 . S
C565 C563 1.389 . S
C565 C566 1.524 . S
C566 C565 1.524 . S
C566 C567 1.397 . S
C566 C571 1.363 . S
C567 H538 0.950 . S
C567 C566 1.397 . S
C567 C568 1.334 . S
C568 H539 0.950 . S
C568 C567 1.334 . S
C568 C569 1.287 . S
C569 C568 1.287 . S
C569 C570 1.524 . S
C569 H572 0.999 . S
C570 H540 0.950 . S
C570 C569 1.524 . S
C570 C571 1.415 . S
C571 H541 0.950 . S
C571 C566 1.363 . S
C571 C570 1.415 . S
H572 C569 0.999 . S
H573 C554 0.913 . S
H574 C592 0.951 . S
H575 C594 0.951 . S
H576 C596 0.950 . S
H577 C597 0.950 . S
H578 C599 0.950 . S
H579 C602 0.950 . S
H580 C603 0.950 . S
H581 C605 0.950 . S
H582 C606 0.950 . S
H583 C607 0.951 . S
H584 C609 0.951 . S
H585 C611 0.950 . S
H586 C612 0.950 . S
H587 C614 0.950 . S
H588 C617 0.950 . S
H589 C618 0.950 . S
H590 C620 0.950 . S
H591 C621 0.950 . S
C592 H574 0.951 . S
C592 C593 1.366 . S
C592 C594 1.388 . S
C593 C592 1.366 . S
C593 C597 1.385 . S
C594 H575 0.951 . S
C594 C592 1.388 . S
C594 C595 1.366 . S
C595 C594 1.366 . S
C595 C596 1.414 . S
C595 C598 1.499 . S
C596 H576 0.950 . S
C596 C595 1.414 . S
C596 C597 1.374 . S
C597 H577 0.950 . S
C597 C593 1.385 . S
C597 C596 1.374 . S
C598 C595 1.499 . S
C598 C599 1.373 . S
C598 C600 1.389 . S
C599 H578 0.950 . S
C599 C598 1.373 . S
C599 C615 1.377 . S
C600 C598 1.389 . S
C600 C601 1.524 . S
C600 C614 1.377 . S
C601 C600 1.524 . S
C601 C602 1.397 . S
C601 C606 1.363 . S
C602 H579 0.950 . S
C602 C601 1.397 . S
C602 C603 1.334 . S
C603 H580 0.950 . S
C603 C602 1.334 . S
C603 C604 1.287 . S
C604 C603 1.287 . S
C604 C605 1.524 . S
C604 H623 0.913 . S
C605 H581 0.950 . S
C605 C604 1.524 . S
C605 C606 1.415 . S
C606 H582 0.950 . S
C606 C601 1.363 . S
C606 C605 1.415 . S
C607 H583 0.951 . S
C607 C608 1.366 . S
C607 C609 1.388 . S
C608 C607 1.366 . S
C608 C612 1.385 . S
C609 H584 0.951 . S
C609 C607 1.388 . S
C609 C610 1.366 . S
C610 C609 1.366 . S
C610 C611 1.414 . S
C610 C613 1.499 . S
C611 H585 0.950 . S
C611 C610 1.414 . S
C611 C612 1.374 . S
C612 H586 0.950 . S
C612 C608 1.385 . S
C612 C611 1.374 . S
C613 C610 1.499 . S
C613 C614 1.373 . S
C613 C615 1.389 . S
C614 H587 0.950 . S
C614 C600 1.377 . S
C614 C613 1.373 . S
C615 C599 1.377 . S
C615 C613 1.389 . S
C615 C616 1.524 . S
C616 C615 1.524 . S
C616 C617 1.397 . S
C616 C621 1.363 . S
C617 H588 0.950 . S
C617 C616 1.397 . S
C617 C618 1.334 . S
C618 H589 0.950 . S
C618 C617 1.334 . S
C618 C619 1.287 . S
C619 C618 1.287 . S
C619 C620 1.524 . S
C619 H622 0.999 . S
C620 H590 0.950 . S
C620 C619 1.524 . S
C620 C621 1.415 . S
C621 H591 0.950 . S
C621 C616 1.363 . S
C621 C620 1.415 . S
H622 C619 0.999 . S
H623 C604 0.913 . S
H624 C642 0.951 . S
H625 C644 0.951 . S
H626 C646 0.950 . S
H627 C647 0.950 . S
H628 C649 0.950 . S
H629 C652 0.950 . S
H630 C653 0.950 . S
H631 C655 0.950 . S
H632 C656 0.950 . S
H633 C657 0.951 . S
H634 C659 0.951 . S
H635 C661 0.950 . S
H636 C662 0.950 . S
H637 C664 0.950 . S
H638 C667 0.950 . S
H639 C668 0.950 . S
H640 C670 0.950 . S
H641 C671 0.950 . S
C642 H624 0.951 . S
C642 C643 1.366 . S
C642 C644 1.388 . S
C643 C642 1.366 . S
C643 C647 1.385 . S
C644 H625 0.951 . S
C644 C642 1.388 . S
C644 C645 1.366 . S
C645 C644 1.366 . S
C645 C646 1.414 . S
C645 C648 1.499 . S
C646 H626 0.950 . S
C646 C645 1.414 . S
C646 C647 1.374 . S
C647 H627 0.950 . S
C647 C643 1.385 . S
C647 C646 1.374 . S
C648 C645 1.499 . S
C648 C649 1.373 . S
C648 C650 1.389 . S
C649 H628 0.950 . S
C649 C648 1.373 . S
C649 C665 1.377 . S
C650 C648 1.389 . S
C650 C651 1.524 . S
C650 C664 1.377 . S
C651 C650 1.524 . S
C651 C652 1.397 . S
C651 C656 1.363 . S
C652 H629 0.950 . S
C652 C651 1.397 . S
C652 C653 1.334 . S
C653 H630 0.950 . S
C653 C652 1.334 . S
C653 C654 1.287 . S
C654 C653 1.287 . S
C654 C655 1.524 . S
C654 H673 0.913 . S
C655 H631 0.950 . S
C655 C654 1.524 . S
C655 C656 1.415 . S
C656 H632 0.950 . S
C656 C651 1.363 . S
C656 C655 1.415 . S
C657 H633 0.951 . S
C657 C658 1.366 . S
C657 C659 1.388 . S
C658 C657 1.366 . S
C658 C662 1.385 . S
C659 H634 0.951 . S
C659 C657 1.388 . S
C659 C660 1.366 . S
C660 C659 1.366 . S
C660 C661 1.414 . S
C660 C663 1.499 . S
C661 H635 0.950 . S
C661 C660 1.414 . S
C661 C662 1.374 . S
C662 H636 0.950 . S
C662 C658 1.385 . S
C662 C661 1.374 . S
C663 C660 1.499 . S
C663 C664 1.373 . S
C663 C665 1.389 . S
C664 H637 0.950 . S
C664 C650 1.377 . S
C664 C663 1.373 . S
C665 C649 1.377 . S
C665 C663 1.389 . S
C665 C666 1.524 . S
C666 C665 1.524 . S
C666 C667 1.397 . S
C666 C671 1.363 . S
C667 H638 0.950 . S
C667 C666 1.397 . S
C667 C668 1.334 . S
C668 H639 0.950 . S
C668 C667 1.334 . S
C668 C669 1.287 . S
C669 C668 1.287 . S
C669 C670 1.524 . S
C669 H672 0.999 . S
C670 H640 0.950 . S
C670 C669 1.524 . S
C670 C671 1.415 . S
C671 H641 0.950 . S
C671 C666 1.363 . S
C671 C670 1.415 . S
H672 C669 0.999 . S
H673 C654 0.913 . S
H674 C692 0.951 . S
H675 C694 0.951 . S
H676 C696 0.950 . S
H677 C697 0.950 . S
H678 C699 0.950 . S
H679 C702 0.950 . S
H680 C703 0.950 . S
H681 C705 0.950 . S
H682 C706 0.950 . S
H683 C707 0.951 . S
H684 C709 0.951 . S
H685 C711 0.950 . S
H686 C712 0.950 . S
H687 C714 0.950 . S
H688 C717 0.950 . S
H689 C718 0.950 . S
H690 C720 0.950 . S
H691 C721 0.950 . S
C692 H674 0.951 . S
C692 C693 1.366 . S
C692 C694 1.388 . S
C693 C692 1.366 . S
C693 C697 1.385 . S
C694 H675 0.951 . S
C694 C692 1.388 . S
C694 C695 1.366 . S
C695 C694 1.366 . S
C695 C696 1.414 . S
C695 C698 1.499 . S
C696 H676 0.950 . S
C696 C695 1.414 . S
C696 C697 1.374 . S
C697 H677 0.950 . S
C697 C693 1.385 . S
C697 C696 1.374 . S
C698 C695 1.499 . S
C698 C699 1.373 . S
C698 C700 1.389 . S
C699 H678 0.950 . S
C699 C698 1.373 . S
C699 C715 1.377 . S
C700 C698 1.389 . S
C700 C701 1.524 . S
C700 C714 1.377 . S
C701 C700 1.524 . S
C701 C702 1.397 . S
C701 C706 1.363 . S
C702 H679 0.950 . S
C702 C701 1.397 . S
C702 C703 1.334 . S
C703 H680 0.950 . S
C703 C702 1.334 . S
C703 C704 1.287 . S
C704 C703 1.287 . S
C704 C705 1.524 . S
C704 H723 0.913 . S
C705 H681 0.950 . S
C705 C704 1.524 . S
C705 C706 1.415 . S
C706 H682 0.950 . S
C706 C701 1.363 . S
C706 C705 1.415 . S
C707 H683 0.951 . S
C707 C708 1.366 . S
C707 C709 1.388 . S
C708 C707 1.366 . S
C708 C712 1.385 . S
C709 H684 0.951 . S
C709 C707 1.388 . S
C709 C710 1.366 . S
C710 C709 1.366 . S
C710 C711 1.414 . S
C710 C713 1.499 . S
C711 H685 0.950 . S
C711 C710 1.414 . S
C711 C712 1.374 . S
C712 H686 0.950 . S
C712 C708 1.385 . S
C712 C711 1.374 . S
C713 C710 1.499 . S
C713 C714 1.373 . S
C713 C715 1.389 . S
C714 H687 0.950 . S
C714 C700 1.377 . S
C714 C713 1.373 . S
C715 C699 1.377 . S
C715 C713 1.389 . S
C715 C716 1.524 . S
C716 C715 1.524 . S
C716 C717 1.397 . S
C716 C721 1.363 . S
C717 H688 0.950 . S
C717 C716 1.397 . S
C717 C718 1.334 . S
C718 H689 0.950 . S
C718 C717 1.334 . S
C718 C719 1.287 . S
C719 C718 1.287 . S
C719 C720 1.524 . S
C719 H722 0.999 . S
C720 H690 0.950 . S
C720 C719 1.524 . S
C720 C721 1.415 . S
C721 H691 0.950 . S
C721 C716 1.363 . S
C721 C720 1.415 . S
H722 C719 0.999 . S
H723 C704 0.913 . S
H724 C742 0.951 . S
H725 C744 0.951 . S
H726 C746 0.950 . S
H727 C747 0.950 . S
H728 C749 0.950 . S
H729 C752 0.950 . S
H730 C753 0.950 . S
H731 C755 0.950 . S
H732 C756 0.950 . S
H733 C757 0.951 . S
H734 C759 0.951 . S
H735 C761 0.950 . S
H736 C762 0.950 . S
H737 C764 0.950 . S
H738 C767 0.950 . S
H739 C768 0.950 . S
H740 C770 0.950 . S
H741 C771 0.950 . S
C742 H724 0.951 . S
C742 C743 1.366 . S
C742 C744 1.388 . S
C743 C742 1.366 . S
C743 C747 1.385 . S
C744 H725 0.951 . S
C744 C742 1.388 . S
C744 C745 1.366 . S
C745 C744 1.366 . S
C745 C746 1.414 . S
C745 C748 1.499 . S
C746 H726 0.950 . S
C746 C745 1.414 . S
C746 C747 1.374 . S
C747 H727 0.950 . S
C747 C743 1.385 . S
C747 C746 1.374 . S
C748 C745 1.499 . S
C748 C749 1.373 . S
C748 C750 1.389 . S
C749 H728 0.950 . S
C749 C748 1.373 . S
C749 C765 1.377 . S
C750 C748 1.389 . S
C750 C751 1.524 . S
C750 C764 1.377 . S
C751 C750 1.524 . S
C751 C752 1.397 . S
C751 C756 1.363 . S
C752 H729 0.950 . S
C752 C751 1.397 . S
C752 C753 1.334 . S
C753 H730 0.950 . S
C753 C752 1.334 . S
C753 C754 1.287 . S
C754 C753 1.287 . S
C754 C755 1.524 . S
C754 H773 0.913 . S
C755 H731 0.950 . S
C755 C754 1.524 . S
C755 C756 1.415 . S
C756 H732 0.950 . S
C756 C751 1.363 . S
C756 C755 1.415 . S
C757 H733 0.951 . S
C757 C758 1.366 . S
C757 C759 1.388 . S
C758 C757 1.366 . S
C758 C762 1.385 . S
C759 H734 0.951 . S
C759 C757 1.388 . S
C759 C760 1.366 . S
C760 C759 1.366 . S
C760 C761 1.414 . S
C760 C763 1.499 . S
C761 H735 0.950 . S
C761 C760 1.414 . S
C761 C762 1.374 . S
C762 H736 0.950 . S
C762 C758 1.385 . S
C762 C761 1.374 . S
C763 C760 1.499 . S
C763 C764 1.373 . S
C763 C765 1.389 . S
C764 H737 0.950 . S
C764 C750 1.377 . S
C764 C763 1.373 . S
C765 C749 1.377 . S
C765 C763 1.389 . S
C765 C766 1.524 . S
C766 C765 1.524 . S
C766 C767 1.397 . S
C766 C771 1.363 . S
C767 H738 0.950 . S
C767 C766 1.397 . S
C767 C768 1.334 . S
C768 H739 0.950 . S
C768 C767 1.334 . S
C768 C769 1.287 . S
C769 C768 1.287 . S
C769 C770 1.524 . S
C769 H772 0.999 . S
C770 H740 0.950 . S
C770 C769 1.524 . S
C770 C771 1.415 . S
C771 H741 0.950 . S
C771 C766 1.363 . S
C771 C770 1.415 . S
H772 C769 0.999 . S
H773 C754 0.913 . S
H774 C792 0.951 . S
H775 C794 0.951 . S
H776 C796 0.950 . S
H777 C797 0.950 . S
H778 C799 0.950 . S
H779 C802 0.950 . S
H780 C803 0.950 . S
H781 C805 0.950 . S
H782 C806 0.950 . S
H783 C807 0.951 . S
H784 C809 0.951 . S
H785 C811 0.950 . S
H786 C812 0.950 . S
H787 C814 0.950 . S
H788 C817 0.950 . S
H789 C818 0.950 . S
H790 C820 0.950 . S
H791 C821 0.950 . S
C792 H774 0.951 . S
C792 C793 1.366 . S
C792 C794 1.388 . S
C793 C792 1.366 . S
C793 C797 1.385 . S
C794 H775 0.951 . S
C794 C792 1.388 . S
C794 C795 1.366 . S
C795 C794 1.366 . S
C795 C796 1.414 . S
C795 C798 1.499 . S
C796 H776 0.950 . S
C796 C795 1.414 . S
C796 C797 1.374 . S
C797 H777 0.950 . S
C797 C793 1.385 . S
C797 C796 1.374 . S
C798 C795 1.499 . S
C798 C799 1.373 . S
C798 C800 1.389 . S
C799 H778 0.950 . S
C799 C798 1.373 . S
C799 C815 1.377 . S
C800 C798 1.389 . S
C800 C801 1.524 . S
C800 C814 1.377 . S
C801 C800 1.524 . S
C801 C802 1.397 . S
C801 C806 1.363 . S
C802 H779 0.950 . S
C802 C801 1.397 . S
C802 C803 1.334 . S
C803 H780 0.950 . S
C803 C802 1.334 . S
C803 C804 1.287 . S
C804 C803 1.287 . S
C804 C805 1.524 . S
C804 H823 0.913 . S
C805 H781 0.950 . S
C805 C804 1.524 . S
C805 C806 1.415 . S
C806 H782 0.950 . S
C806 C801 1.363 . S
C806 C805 1.415 . S
C807 H783 0.951 . S
C807 C808 1.366 . S
C807 C809 1.388 . S
C808 C807 1.366 . S
C808 C812 1.385 . S
C809 H784 0.951 . S
C809 C807 1.388 . S
C809 C810 1.366 . S
C810 C809 1.366 . S
C810 C811 1.414 . S
C810 C813 1.499 . S
C811 H785 0.950 . S
C811 C810 1.414 . S
C811 C812 1.374 . S
C812 H786 0.950 . S
C812 C808 1.385 . S
C812 C811 1.374 . S
C813 C810 1.499 . S
C813 C814 1.373 . S
C813 C815 1.389 . S
C814 H787 0.950 . S
C814 C800 1.377 . S
C814 C813 1.373 . S
C815 C799 1.377 . S
C815 C813 1.389 . S
C815 C816 1.524 . S
C816 C815 1.524 . S
C816 C817 1.397 . S
C816 C821 1.363 . S
C817 H788 0.950 . S
C817 C816 1.397 . S
C817 C818 1.334 . S
C818 H789 0.950 . S
C818 C817 1.334 . S
C818 C819 1.287 . S
C819 C818 1.287 . S
C819 C820 1.524 . S
C819 H822 0.999 . S
C820 H790 0.950 . S
C820 C819 1.524 . S
C820 C821 1.415 . S
C821 H791 0.950 . S
C821 C816 1.363 . S
C821 C820 1.415 . S
H822 C819 0.999 . S
H823 C804 0.913 . S
H824 C842 0.951 . S
H825 C844 0.951 . S
H826 C846 0.950 . S
H827 C847 0.950 . S
H828 C849 0.950 . S
H829 C852 0.950 . S
H830 C853 0.950 . S
H831 C855 0.950 . S
H832 C856 0.950 . S
H833 C857 0.951 . S
H834 C859 0.951 . S
H835 C861 0.950 . S
H836 C862 0.950 . S
H837 C864 0.950 . S
H838 C867 0.950 . S
H839 C868 0.950 . S
H840 C870 0.950 . S
H841 C871 0.950 . S
C842 H824 0.951 . S
C842 C843 1.366 . S
C842 C844 1.388 . S
C843 C842 1.366 . S
C843 C847 1.385 . S
C844 H825 0.951 . S
C844 C842 1.388 . S
C844 C845 1.366 . S
C845 C844 1.366 . S
C845 C846 1.414 . S
C845 C848 1.499 . S
C846 H826 0.950 . S
C846 C845 1.414 . S
C846 C847 1.374 . S
C847 H827 0.950 . S
C847 C843 1.385 . S
C847 C846 1.374 . S
C848 C845 1.499 . S
C848 C849 1.373 . S
C848 C850 1.389 . S
C849 H828 0.950 . S
C849 C848 1.373 . S
C849 C865 1.377 . S
C850 C848 1.389 . S
C850 C851 1.524 . S
C850 C864 1.377 . S
C851 C850 1.524 . S
C851 C852 1.397 . S
C851 C856 1.363 . S
C852 H829 0.950 . S
C852 C851 1.397 . S
C852 C853 1.334 . S
C853 H830 0.950 . S
C853 C852 1.334 . S
C853 C854 1.287 . S
C854 C853 1.287 . S
C854 C855 1.524 . S
C854 H873 0.913 . S
C855 H831 0.950 . S
C855 C854 1.524 . S
C855 C856 1.415 . S
C856 H832 0.950 . S
C856 C851 1.363 . S
C856 C855 1.415 . S
C857 H833 0.951 . S
C857 C858 1.366 . S
C857 C859 1.388 . S
C858 C857 1.366 . S
C858 C862 1.385 . S
C859 H834 0.951 . S
C859 C857 1.388 . S
C859 C860 1.366 . S
C860 C859 1.366 . S
C860 C861 1.414 . S
C860 C863 1.499 . S
C861 H835 0.950 . S
C861 C860 1.414 . S
C861 C862 1.374 . S
C862 H836 0.950 . S
C862 C858 1.385 . S
C862 C861 1.374 . S
C863 C860 1.499 . S
C863 C864 1.373 . S
C863 C865 1.389 . S
C864 H837 0.950 . S
C864 C850 1.377 . S
C864 C863 1.373 . S
C865 C849 1.377 . S
C865 C863 1.389 . S
C865 C866 1.524 . S
C866 C865 1.524 . S
C866 C867 1.397 . S
C866 C871 1.363 . S
C867 H838 0.950 . S
C867 C866 1.397 . S
C867 C868 1.334 . S
C868 H839 0.950 . S
C868 C867 1.334 . S
C868 C869 1.287 . S
C869 C868 1.287 . S
C869 C870 1.524 . S
C869 H872 0.999 . S
C870 H840 0.950 . S
C870 C869 1.524 . S
C870 C871 1.415 . S
C871 H841 0.950 . S
C871 C866 1.363 . S
C871 C870 1.415 . S
H872 C869 0.999 . S
H873 C854 0.913 . S
H874 C892 0.951 . S
H875 C894 0.951 . S
H876 C896 0.950 . S
H877 C897 0.950 . S
H878 C899 0.950 . S
H879 C902 0.950 . S
H880 C903 0.950 . S
H881 C905 0.950 . S
H882 C906 0.950 . S
H883 C907 0.951 . S
H884 C909 0.951 . S
H885 C911 0.950 . S
H886 C912 0.950 . S
H887 C914 0.950 . S
H888 C917 0.950 . S
H889 C918 0.950 . S
H890 C920 0.950 . S
H891 C921 0.950 . S
C892 H874 0.951 . S
C892 C893 1.366 . S
C892 C894 1.388 . S
C893 C892 1.366 . S
C893 C897 1.385 . S
C894 H875 0.951 . S
C894 C892 1.388 . S
C894 C895 1.366 . S
C895 C894 1.366 . S
C895 C896 1.414 . S
C895 C898 1.499 . S
C896 H876 0.950 . S
C896 C895 1.414 . S
C896 C897 1.374 . S
C897 H877 0.950 . S
C897 C893 1.385 . S
C897 C896 1.374 . S
C898 C895 1.499 . S
C898 C899 1.373 . S
C898 C900 1.389 . S
C899 H878 0.950 . S
C899 C898 1.373 . S
C899 C915 1.377 . S
C900 C898 1.389 . S
C900 C901 1.524 . S
C900 C914 1.377 . S
C901 C900 1.524 . S
C901 C902 1.397 . S
C901 C906 1.363 . S
C902 H879 0.950 . S
C902 C901 1.397 . S
C902 C903 1.334 . S
C903 H880 0.950 . S
C903 C902 1.334 . S
C903 C904 1.287 . S
C904 C903 1.287 . S
C904 C905 1.524 . S
C904 H923 0.913 . S
C905 H881 0.950 . S
C905 C904 1.524 . S
C905 C906 1.415 . S
C906 H882 0.950 . S
C906 C901 1.363 . S
C906 C905 1.415 . S
C907 H883 0.951 . S
C907 C908 1.366 . S
C907 C909 1.388 . S
C908 C907 1.366 . S
C908 C912 1.385 . S
C909 H884 0.951 . S
C909 C907 1.388 . S
C909 C910 1.366 . S
C910 C909 1.366 . S
C910 C911 1.414 . S
C910 C913 1.499 . S
C911 H885 0.950 . S
C911 C910 1.414 . S
C911 C912 1.374 . S
C912 H886 0.950 . S
C912 C908 1.385 . S
C912 C911 1.374 . S
C913 C910 1.499 . S
C913 C914 1.373 . S
C913 C915 1.389 . S
C914 H887 0.950 . S
C914 C900 1.377 . S
C914 C913 1.373 . S
C915 C899 1.377 . S
C915 C913 1.389 . S
C915 C916 1.524 . S
C916 C915 1.524 . S
C916 C917 1.397 . S
C916 C921 1.363 . S
C917 H888 0.950 . S
C917 C916 1.397 . S
C917 C918 1.334 . S
C918 H889 0.950 . S
C918 C917 1.334 . S
C918 C919 1.287 . S
C919 C918 1.287 . S
C919 C920 1.524 . S
C919 H922 0.999 . S
C920 H890 0.950 . S
C920 C919 1.524 . S
C920 C921 1.415 . S
C921 H891 0.950 . S
C921 C916 1.363 . S
C921 C920 1.415 . S
H922 C919 0.999 . S
H923 C904 0.913 . S
H924 C942 0.951 . S
H925 C944 0.951 . S
H926 C946 0.950 . S
H927 C947 0.950 . S
H928 C949 0.950 . S
H929 C952 0.950 . S
H930 C953 0.950 . S
H931 C955 0.950 . S
H932 C956 0.950 . S
H933 C957 0.951 . S
H934 C959 0.951 . S
H935 C961 0.950 . S
H936 C962 0.950 . S
H937 C964 0.950 . S
H938 C967 0.950 . S
H939 C968 0.950 . S
H940 C970 0.950 . S
H941 C971 0.950 . S
C942 H924 0.951 . S
C942 C943 1.366 . S
C942 C944 1.388 . S
C943 C942 1.366 . S
C943 C947 1.385 . S
C944 H925 0.951 . S
C944 C942 1.388 . S
C944 C945 1.366 . S
C945 C944 1.366 . S
C945 C946 1.414 . S
C945 C948 1.499 . S
C946 H926 0.950 . S
C946 C945 1.414 . S
C946 C947 1.374 . S
C947 H927 0.950 . S
C947 C943 1.385 . S
C947 C946 1.374 . S
C948 C945 1.499 . S
C948 C949 1.373 . S
C948 C950 1.389 . S
C949 H928 0.950 . S
C949 C948 1.373 . S
C949 C965 1.377 . S
C950 C948 1.389 . S
C950 C951 1.524 . S
C950 C964 1.377 . S
C951 C950 1.524 . S
C951 C952 1.397 . S
C951 C956 1.363 . S
C952 H929 0.950 . S
C952 C951 1.397 . S
C952 C953 1.334 . S
C953 H930 0.950 . S
C953 C952 1.334 . S
C953 C954 1.287 . S
C954 C953 1.287 . S
C954 C955 1.524 . S
C954 H973 0.913 . S
C955 H931 0.950 . S
C955 C954 1.524 . S
C955 C956 1.415 . S
C956 H932 0.950 . S
C956 C951 1.363 . S
C956 C955 1.415 . S
C957 H933 0.951 . S
C957 C958 1.366 . S
C957 C959 1.388 . S
C958 C957 1.366 . S
C958 C962 1.385 . S
C959 H934 0.951 . S
C959 C957 1.388 . S
C959 C960 1.366 . S
C960 C959 1.366 . S
C960 C961 1.414 . S
C960 C963 1.499 . S
C961 H935 0.950 . S
C961 C960 1.414 . S
C961 C962 1.374 . S
C962 H936 0.950 . S
C962 C958 1.385 . S
C962 C961 1.374 . S
C963 C960 1.499 . S
C963 C964 1.373 . S
C963 C965 1.389 . S
C964 H937 0.950 . S
C964 C950 1.377 . S
C964 C963 1.373 . S
C965 C949 1.377 . S
C965 C963 1.389 . S
C965 C966 1.524 . S
C966 C965 1.524 . S
C966 C967 1.397 . S
C966 C971 1.363 . S
C967 H938 0.950 . S
C967 C966 1.397 . S
C967 C968 1.334 . S
C968 H939 0.950 . S
C968 C967 1.334 . S
C968 C969 1.287 . S
C969 C968 1.287 . S
C969 C970 1.524 . S
C969 H972 0.999 . S
C970 H940 0.950 . S
C970 C969 1.524 . S
C970 C971 1.415 . S
C971 H941 0.950 . S
C971 C966 1.363 . S
C971 C970 1.415 . S
H972 C969 0.999 . S
H973 C954 0.913 . S
H974 C992 0.951 . S
H975 C994 0.951 . S
H976 C996 0.950 . S
H977 C997 0.950 . S
H978 C999 0.950 . S
H979 C1002 0.950 . S
H980 C1003 0.950 . S
H981 C1005 0.950 . S
H982 C1006 0.950 . S
H983 C1007 0.951 . S
H984 C1009 0.951 . S
H985 C1011 0.950 . S
H986 C1012 0.950 . S
H987 C1014 0.950 . S
H988 C1017 0.950 . S
H989 C1018 0.950 . S
H990 C1020 0.950 . S
H991 C1021 0.950 . S
C992 H974 0.951 . S
C992 C993 1.366 . S
C992 C994 1.388 . S
C993 C992 1.366 . S
C993 C997 1.385 . S
C994 H975 0.951 . S
C994 C992 1.388 . S
C994 C995 1.366 . S
C995 C994 1.366 . S
C995 C996 1.414 . S
C995 C998 1.499 . S
C996 H976 0.950 . S
C996 C995 1.414 . S
C996 C997 1.374 . S
C997 H977 0.950 . S
C997 C993 1.385 . S
C997 C996 1.374 . S
C998 C995 1.499 . S
C998 C999 1.373 . S
C998 C1000 1.389 . S
C999 H978 0.950 . S
C999 C998 1.373 . S
C999 C1015 1.377 . S
C1000 C998 1.389 . S
C1000 C1001 1.524 . S
C1000 C1014 1.377 . S
C1001 C1000 1.524 . S
C1001 C1002 1.397 . S
C1001 C1006 1.363 . S
C1002 H979 0.950 . S
C1002 C1001 1.397 . S
C1002 C1003 1.334 . S
C1003 H980 0.950 . S
C1003 C1002 1.334 . S
C1003 C1004 1.287 . S
C1004 C1003 1.287 . S
C1004 C1005 1.524 . S
C1004 H1023 0.913 . S
C1005 H981 0.950 . S
C1005 C1004 1.524 . S
C1005 C1006 1.415 . S
C1006 H982 0.950 . S
C1006 C1001 1.363 . S
C1006 C1005 1.415 . S
C1007 H983 0.951 . S
C1007 C1008 1.366 . S
C1007 C1009 1.388 . S
C1008 C1007 1.366 . S
C1008 C1012 1.385 . S
C1009 H984 0.951 . S
C1009 C1007 1.388 . S
C1009 C1010 1.366 . S
C1010 C1009 1.366 . S
C1010 C1011 1.414 . S
C1010 C1013 1.499 . S
C1011 H985 0.950 . S
C1011 C1010 1.414 . S
C1011 C1012 1.374 . S
C1012 H986 0.950 . S
C1012 C1008 1.385 . S
C1012 C1011 1.374 . S
C1013 C1010 1.499 . S
C1013 C1014 1.373 . S
C1013 C1015 1.389 . S
C1014 H987 0.950 . S
C1014 C1000 1.377 . S
C1014 C1013 1.373 . S
C1015 C999 1.377 . S
C1015 C1013 1.389 . S
C1015 C1016 1.524 . S
C1016 C1015 1.524 . S
C1016 C1017 1.397 . S
C1016 C1021 1.363 . S
C1017 H988 0.950 . S
C1017 C1016 1.397 . S
C1017 C1018 1.334 . S
C1018 H989 0.950 . S
C1018 C1017 1.334 . S
C1018 C1019 1.287 . S
C1019 C1018 1.287 . S
C1019 C1020 1.524 . S
C1019 H1022 0.999 . S
C1020 H990 0.950 . S
C1020 C1019 1.524 . S
C1020 C1021 1.415 . S
C1021 H991 0.950 . S
C1021 C1016 1.363 . S
C1021 C1020 1.415 . S
H1022 C1019 0.999 . S
H1023 C1004 0.913 . S
H1024 C1042 0.951 . S
H1025 C1044 0.951 . S
H1026 C1046 0.950 . S
H1027 C1047 0.950 . S
H1028 C1049 0.950 . S
H1029 C1052 0.950 . S
H1030 C1053 0.950 . S
H1031 C1055 0.950 . S
H1032 C1056 0.950 . S
H1033 C1057 0.951 . S
H1034 C1059 0.951 . S
H1035 C1061 0.950 . S
H1036 C1062 0.950 . S
H1037 C1064 0.950 . S
H1038 C1067 0.950 . S
H1039 C1068 0.950 . S
H1040 C1070 0.950 . S
H1041 C1071 0.950 . S
C1042 H1024 0.951 . S
C1042 C1043 1.366 . S
C1042 C1044 1.388 1_565 S
C1043 C1042 1.366 . S
C1043 C1047 1.385 . S
C1044 H1025 0.951 . S
C1044 C1042 1.388 1_545 S
C1044 C1045 1.366 . S
C1045 C1044 1.366 . S
C1045 C1046 1.414 . S
C1045 C1048 1.499 . S
C1046 H1026 0.950 . S
C1046 C1045 1.414 . S
C1046 C1047 1.374 1_545 S
C1047 H1027 0.950 . S
C1047 C1043 1.385 . S
C1047 C1046 1.374 1_565 S
C1048 C1045 1.499 . S
C1048 C1049 1.373 . S
C1048 C1050 1.389 . S
C1049 H1028 0.950 . S
C1049 C1048 1.373 . S
C1049 C1065 1.377 . S
C1050 C1048 1.389 . S
C1050 C1051 1.524 . S
C1050 C1064 1.377 . S
C1051 C1050 1.524 . S
C1051 C1052 1.397 . S
C1051 C1056 1.363 . S
C1052 H1029 0.950 . S
C1052 C1051 1.397 . S
C1052 C1053 1.334 1_545 S
C1053 H1030 0.950 . S
C1053 C1052 1.334 1_565 S
C1053 C1054 1.287 . S
C1054 C1053 1.287 . S
C1054 C1055 1.524 1_565 S
C1054 H1073 0.913 . S
C1055 H1031 0.950 . S
C1055 C1054 1.524 1_545 S
C1055 C1056 1.415 . S
C1056 H1032 0.950 . S
C1056 C1051 1.363 . S
C1056 C1055 1.415 . S
C1057 H1033 0.951 . S
C1057 C1058 1.366 . S
C1057 C1059 1.388 . S
C1058 C1057 1.366 . S
C1058 C1062 1.385 . S
C1059 H1034 0.951 . S
C1059 C1057 1.388 . S
C1059 C1060 1.366 . S
C1060 C1059 1.366 . S
C1060 C1061 1.414 . S
C1060 C1063 1.499 . S
C1061 H1035 0.950 . S
C1061 C1060 1.414 . S
C1061 C1062 1.374 . S
C1062 H1036 0.950 . S
C1062 C1058 1.385 . S
C1062 C1061 1.374 . S
C1063 C1060 1.499 . S
C1063 C1064 1.373 . S
C1063 C1065 1.389 . S
C1064 H1037 0.950 . S
C1064 C1050 1.377 . S
C1064 C1063 1.373 . S
C1065 C1049 1.377 . S
C1065 C1063 1.389 . S
C1065 C1066 1.524 . S
C1066 C1065 1.524 . S
C1066 C1067 1.397 . S
C1066 C1071 1.363 . S
C1067 H1038 0.950 . S
C1067 C1066 1.397 . S
C1067 C1068 1.334 . S
C1068 H1039 0.950 . S
C1068 C1067 1.334 . S
C1068 C1069 1.287 . S
C1069 C1068 1.287 . S
C1069 C1070 1.524 . S
C1069 H1072 0.999 . S
C1070 H1040 0.950 . S
C1070 C1069 1.524 . S
C1070 C1071 1.415 . S
C1071 H1041 0.950 . S
C1071 C1066 1.363 . S
C1071 C1070 1.415 . S
H1072 C1069 0.999 . S
H1073 C1054 0.913 . S
H1074 C1092 0.951 . S
H1075 C1094 0.951 . S
H1076 C1096 0.950 . S
H1077 C1097 0.950 . S
H1078 C1099 0.950 . S
H1079 C1102 0.950 . S
H1080 C1103 0.950 . S
H1081 C1105 0.950 . S
H1082 C1106 0.950 . S
H1083 C1107 0.951 . S
H1084 C1109 0.951 . S
H1085 C1111 0.950 . S
H1086 C1112 0.950 . S
H1087 C1114 0.950 . S
H1088 C1117 0.950 . S
H1089 C1118 0.950 . S
H1090 C1120 0.950 . S
H1091 C1121 0.950 . S
C1092 H1074 0.951 . S
C1092 C1093 1.366 . S
C1092 C1094 1.388 . S
C1093 C1092 1.366 . S
C1093 C1097 1.385 . S
C1094 H1075 0.951 . S
C1094 C1092 1.388 . S
C1094 C1095 1.366 . S
C1095 C1094 1.366 . S
C1095 C1096 1.414 . S
C1095 C1098 1.499 . S
C1096 H1076 0.950 . S
C1096 C1095 1.414 . S
C1096 C1097 1.374 . S
C1097 H1077 0.950 . S
C1097 C1093 1.385 . S
C1097 C1096 1.374 . S
C1098 C1095 1.499 . S
C1098 C1099 1.373 . S
C1098 C1100 1.389 . S
C1099 H1078 0.950 . S
C1099 C1098 1.373 . S
C1099 C1115 1.377 . S
C1100 C1098 1.389 . S
C1100 C1101 1.524 . S
C1100 C1114 1.377 . S
C1101 C1100 1.524 . S
C1101 C1102 1.397 . S
C1101 C1106 1.363 . S
C1102 H1079 0.950 . S
C1102 C1101 1.397 . S
C1102 C1103 1.334 . S
C1103 H1080 0.950 . S
C1103 C1102 1.334 . S
C1103 C1104 1.287 . S
C1104 C1103 1.287 . S
C1104 C1105 1.524 . S
C1104 H1123 0.913 . S
C1105 H1081 0.950 . S
C1105 C1104 1.524 . S
C1105 C1106 1.415 . S
C1106 H1082 0.950 . S
C1106 C1101 1.363 . S
C1106 C1105 1.415 . S
C1107 H1083 0.951 . S
C1107 C1108 1.366 . S
C1107 C1109 1.388 1_655 S
C1108 C1107 1.366 . S
C1108 C1112 1.385 . S
C1109 H1084 0.951 . S
C1109 C1107 1.388 1_455 S
C1109 C1110 1.366 . S
C1110 C1109 1.366 . S
C1110 C1111 1.414 . S
C1110 C1113 1.499 . S
C1111 H1085 0.950 . S
C1111 C1110 1.414 . S
C1111 C1112 1.374 1_455 S
C1112 H1086 0.950 . S
C1112 C1108 1.385 . S
C1112 C1111 1.374 1_655 S
C1113 C1110 1.499 . S
C1113 C1114 1.373 . S
C1113 C1115 1.389 . S
C1114 H1087 0.950 . S
C1114 C1100 1.377 . S
C1114 C1113 1.373 . S
C1115 C1099 1.377 . S
C1115 C1113 1.389 . S
C1115 C1116 1.524 . S
C1116 C1115 1.524 . S
C1116 C1117 1.397 . S
C1116 C1121 1.363 . S
C1117 H1088 0.950 . S
C1117 C1116 1.397 . S
C1117 C1118 1.334 1_455 S
C1118 H1089 0.950 . S
C1118 C1117 1.334 1_655 S
C1118 C1119 1.287 . S
C1119 C1118 1.287 . S
C1119 C1120 1.524 1_655 S
C1119 H1122 0.999 . S
C1120 H1090 0.950 . S
C1120 C1119 1.524 1_455 S
C1120 C1121 1.415 . S
C1121 H1091 0.950 . S
C1121 C1116 1.363 . S
C1121 C1120 1.415 . S
H1122 C1119 0.999 . S
H1123 C1104 0.913 . S
H1124 C1142 0.951 . S
H1125 C1144 0.951 . S
H1126 C1146 0.950 . S
H1127 C1147 0.950 . S
H1128 C1149 0.950 . S
H1129 C1152 0.950 . S
H1130 C1153 0.950 . S
H1131 C1155 0.950 . S
H1132 C1156 0.950 . S
H1133 C1157 0.951 . S
H1134 C1159 0.951 . S
H1135 C1161 0.950 . S
H1136 C1162 0.950 . S
H1137 C1164 0.950 . S
H1138 C1167 0.950 . S
H1139 C1168 0.950 . S
H1140 C1170 0.950 . S
H1141 C1171 0.950 . S
C1142 H1124 0.951 . S
C1142 C1143 1.366 . S
C1142 C1144 1.388 1_545 S
C1143 C1142 1.366 . S
C1143 C1147 1.385 1_545 S
C1144 H1125 0.951 . S
C1144 C1142 1.388 1_565 S
C1144 C1145 1.366 . S
C1145 C1144 1.366 . S
C1145 C1146 1.414 . S
C1145 C1148 1.499 . S
C1146 H1126 0.950 . S
C1146 C1145 1.414 . S
C1146 C1147 1.374 . S
C1147 H1127 0.950 . S
C1147 C1143 1.385 1_565 S
C1147 C1146 1.374 . S
C1148 C1145 1.499 . S
C1148 C1149 1.373 . S
C1148 C1150 1.389 . S
C1149 H1128 0.950 . S
C1149 C1148 1.373 . S
C1149 C1165 1.377 . S
C1150 C1148 1.389 . S
C1150 C1151 1.524 . S
C1150 C1164 1.377 . S
C1151 C1150 1.524 . S
C1151 C1152 1.397 . S
C1151 C1156 1.363 . S
C1152 H1129 0.950 . S
C1152 C1151 1.397 . S
C1152 C1153 1.334 . S
C1153 H1130 0.950 . S
C1153 C1152 1.334 . S
C1153 C1154 1.287 . S
C1154 C1153 1.287 . S
C1154 C1155 1.524 . S
C1154 H1173 0.934 . S
C1155 H1131 0.950 . S
C1155 C1154 1.524 . S
C1155 C1156 1.415 . S
C1156 H1132 0.950 . S
C1156 C1151 1.363 . S
C1156 C1155 1.415 . S
C1157 H1133 0.951 . S
C1157 C1158 1.366 . S
C1157 C1159 1.388 . S
C1158 C1157 1.366 . S
C1158 C1162 1.385 . S
C1159 H1134 0.951 . S
C1159 C1157 1.388 . S
C1159 C1160 1.366 . S
C1160 C1159 1.366 . S
C1160 C1161 1.414 . S
C1160 C1163 1.499 . S
C1161 H1135 0.950 . S
C1161 C1160 1.414 . S
C1161 C1162 1.374 . S
C1162 H1136 0.950 . S
C1162 C1158 1.385 . S
C1162 C1161 1.374 . S
C1163 C1160 1.499 . S
C1163 C1164 1.373 . S
C1163 C1165 1.389 . S
C1164 H1137 0.950 . S
C1164 C1150 1.377 . S
C1164 C1163 1.373 . S
C1165 C1149 1.377 . S
C1165 C1163 1.389 . S
C1165 C1166 1.524 . S
C1166 C1165 1.524 . S
C1166 C1167 1.397 . S
C1166 C1171 1.363 . S
C1167 H1138 0.950 . S
C1167 C1166 1.397 . S
C1167 C1168 1.334 . S
C1168 H1139 0.950 . S
C1168 C1167 1.334 . S
C1168 C1169 1.287 . S
C1169 C1168 1.287 . S
C1169 C1170 1.524 . S
C1169 H1172 0.999 . S
C1170 H1140 0.950 . S
C1170 C1169 1.524 . S
C1170 C1171 1.415 . S
C1171 H1141 0.950 . S
C1171 C1166 1.363 . S
C1171 C1170 1.415 . S
H1172 C1169 0.999 . S
H1173 C1154 0.934 . S
H1174 C1192 0.951 . S
H1175 C1194 0.951 . S
H1176 C1196 0.950 . S
H1177 C1197 0.950 . S
H1178 C1199 0.950 . S
H1179 C1202 0.950 . S
H1180 C1203 0.950 . S
H1181 C1205 0.950 . S
H1182 C1206 0.950 . S
H1183 C1207 0.951 . S
H1184 C1209 0.951 . S
H1185 C1211 0.950 . S
H1186 C1212 0.950 . S
H1187 C1214 0.950 . S
H1188 C1217 0.950 . S
H1189 C1218 0.950 . S
H1190 C1220 0.950 . S
H1191 C1221 0.950 . S
C1192 H1174 0.951 . S
C1192 C1193 1.366 . S
C1192 C1194 1.388 . S
C1193 C1192 1.366 . S
C1193 C1197 1.385 . S
C1194 H1175 0.951 . S
C1194 C1192 1.388 . S
C1194 C1195 1.366 . S
C1195 C1194 1.366 . S
C1195 C1196 1.414 . S
C1195 C1198 1.499 . S
C1196 H1176 0.950 . S
C1196 C1195 1.414 . S
C1196 C1197 1.374 . S
C1197 H1177 0.950 . S
C1197 C1193 1.385 . S
C1197 C1196 1.374 . S
C1198 C1195 1.499 . S
C1198 C1199 1.373 . S
C1198 C1200 1.389 . S
C1199 H1178 0.950 . S
C1199 C1198 1.373 . S
C1199 C1215 1.377 . S
C1200 C1198 1.389 . S
C1200 C1201 1.524 . S
C1200 C1214 1.377 . S
C1201 C1200 1.524 . S
C1201 C1202 1.397 . S
C1201 C1206 1.363 . S
C1202 H1179 0.950 . S
C1202 C1201 1.397 . S
C1202 C1203 1.334 . S
C1203 H1180 0.950 . S
C1203 C1202 1.334 . S
C1203 C1204 1.287 . S
C1204 C1203 1.287 . S
C1204 C1205 1.524 . S
C1204 H1223 0.913 . S
C1205 H1181 0.950 . S
C1205 C1204 1.524 . S
C1205 C1206 1.415 . S
C1206 H1182 0.950 . S
C1206 C1201 1.363 . S
C1206 C1205 1.415 . S
C1207 H1183 0.951 . S
C1207 C1208 1.366 . S
C1207 C1209 1.388 1_455 S
C1208 C1207 1.366 . S
C1208 C1212 1.385 1_455 S
C1209 H1184 0.951 . S
C1209 C1207 1.388 1_655 S
C1209 C1210 1.366 . S
C1210 C1209 1.366 . S
C1210 C1211 1.414 . S
C1210 C1213 1.499 . S
C1211 H1185 0.950 . S
C1211 C1210 1.414 . S
C1211 C1212 1.374 . S
C1212 H1186 0.950 . S
C1212 C1208 1.385 1_655 S
C1212 C1211 1.374 . S
C1213 C1210 1.499 . S
C1213 C1214 1.373 . S
C1213 C1215 1.389 . S
C1214 H1187 0.950 . S
C1214 C1200 1.377 . S
C1214 C1213 1.373 . S
C1215 C1199 1.377 . S
C1215 C1213 1.389 . S
C1215 C1216 1.524 . S
C1216 C1215 1.524 . S
C1216 C1217 1.397 . S
C1216 C1221 1.363 . S
C1217 H1188 0.950 . S
C1217 C1216 1.397 . S
C1217 C1218 1.334 . S
C1218 H1189 0.950 . S
C1218 C1217 1.334 . S
C1218 C1219 1.287 . S
C1219 C1218 1.287 . S
C1219 C1220 1.524 . S
C1219 H1222 0.999 . S
C1220 H1190 0.950 . S
C1220 C1219 1.524 . S
C1220 C1221 1.415 . S
C1221 H1191 0.950 . S
C1221 C1216 1.363 . S
C1221 C1220 1.415 . S
H1222 C1219 0.999 . S
H1223 C1204 0.913 . S
H1224 C1242 0.951 . S
H1225 C1244 0.951 . S
H1226 C1246 0.950 . S
H1227 C1247 0.950 . S
H1228 C1249 0.950 . S
H1229 C1252 0.950 . S
H1230 C1253 0.950 1_545 S
H1231 C1255 0.950 . S
H1232 C1256 0.950 . S
H1233 C1257 0.951 . S
H1234 C1259 0.951 . S
H1235 C1261 0.950 . S
H1236 C1262 0.950 . S
H1237 C1264 0.950 . S
H1238 C1267 0.950 . S
H1239 C1268 0.950 . S
H1240 C1270 0.950 . S
H1241 C1271 0.950 . S
C1242 H1224 0.951 . S
C1242 C1243 1.366 1_565 S
C1242 C1244 1.388 . S
C1243 C1242 1.366 1_545 S
C1243 C1247 1.385 . S
C1244 H1225 0.951 . S
C1244 C1242 1.388 . S
C1244 C1245 1.366 . S
C1245 C1244 1.366 . S
C1245 C1246 1.414 . S
C1245 C1248 1.499 . S
C1246 H1226 0.950 . S
C1246 C1245 1.414 . S
C1246 C1247 1.374 1_565 S
C1247 H1227 0.950 . S
C1247 C1243 1.385 . S
C1247 C1246 1.374 1_545 S
C1248 C1245 1.499 . S
C1248 C1249 1.373 . S
C1248 C1250 1.389 . S
C1249 H1228 0.950 . S
C1249 C1248 1.373 . S
C1249 C1265 1.377 . S
C1250 C1248 1.389 . S
C1250 C1251 1.524 . S
C1250 C1264 1.377 . S
C1251 C1250 1.524 . S
C1251 C1252 1.397 . S
C1251 C1256 1.363 . S
C1252 H1229 0.950 . S
C1252 C1251 1.397 . S
C1252 C1253 1.334 . S
C1253 H1230 0.950 1_565 S
C1253 C1252 1.334 . S
C1253 C1254 1.287 . S
C1254 C1253 1.287 . S
C1254 C1255 1.524 . S
C1254 H1273 0.913 . S
C1255 H1231 0.950 . S
C1255 C1254 1.524 . S
C1255 C1256 1.415 . S
C1256 H1232 0.950 . S
C1256 C1251 1.363 . S
C1256 C1255 1.415 . S
C1257 H1233 0.951 . S
C1257 C1258 1.366 . S
C1257 C1259 1.388 . S
C1258 C1257 1.366 . S
C1258 C1262 1.385 . S
C1259 H1234 0.951 . S
C1259 C1257 1.388 . S
C1259 C1260 1.366 . S
C1260 C1259 1.366 . S
C1260 C1261 1.414 . S
C1260 C1263 1.499 . S
C1261 H1235 0.950 . S
C1261 C1260 1.414 . S
C1261 C1262 1.374 . S
C1262 H1236 0.950 . S
C1262 C1258 1.385 . S
C1262 C1261 1.374 . S
C1263 C1260 1.499 . S
C1263 C1264 1.373 . S
C1263 C1265 1.389 . S
C1264 H1237 0.950 . S
C1264 C1250 1.377 . S
C1264 C1263 1.373 . S
C1265 C1249 1.377 . S
C1265 C1263 1.389 . S
C1265 C1266 1.524 . S
C1266 C1265 1.524 . S
C1266 C1267 1.397 . S
C1266 C1271 1.363 . S
C1267 H1238 0.950 . S
C1267 C1266 1.397 . S
C1267 C1268 1.334 . S
C1268 H1239 0.950 . S
C1268 C1267 1.334 . S
C1268 C1269 1.287 . S
C1269 C1268 1.287 . S
C1269 C1270 1.524 . S
C1269 H1272 0.999 . S
C1270 H1240 0.950 . S
C1270 C1269 1.524 . S
C1270 C1271 1.415 . S
C1271 H1241 0.950 . S
C1271 C1266 1.363 . S
C1271 C1270 1.415 . S
H1272 C1269 0.999 . S
H1273 C1254 0.913 . S
H1274 C1292 0.951 . S
H1275 C1294 0.951 . S
H1276 C1296 0.950 . S
H1277 C1297 0.950 . S
H1278 C1299 0.950 . S
H1279 C1302 0.950 . S
H1280 C1303 0.950 . S
H1281 C1305 0.950 . S
H1282 C1306 0.950 . S
H1283 C1307 0.951 . S
H1284 C1309 0.951 . S
H1285 C1311 0.950 . S
H1286 C1312 0.950 . S
H1287 C1314 0.950 . S
H1288 C1317 0.950 . S
H1289 C1318 0.950 1_455 S
H1290 C1320 0.950 . S
H1291 C1321 0.950 . S
C1292 H1274 0.951 . S
C1292 C1293 1.366 . S
C1292 C1294 1.388 . S
C1293 C1292 1.366 . S
C1293 C1297 1.385 . S
C1294 H1275 0.951 . S
C1294 C1292 1.388 . S
C1294 C1295 1.366 . S
C1295 C1294 1.366 . S
C1295 C1296 1.414 . S
C1295 C1298 1.499 . S
C1296 H1276 0.950 . S
C1296 C1295 1.414 . S
C1296 C1297 1.374 . S
C1297 H1277 0.950 . S
C1297 C1293 1.385 . S
C1297 C1296 1.374 . S
C1298 C1295 1.499 . S
C1298 C1299 1.373 . S
C1298 C1300 1.389 . S
C1299 H1278 0.950 . S
C1299 C1298 1.373 . S
C1299 C1315 1.377 . S
C1300 C1298 1.389 . S
C1300 C1301 1.524 . S
C1300 C1314 1.377 . S
C1301 C1300 1.524 . S
C1301 C1302 1.397 . S
C1301 C1306 1.363 . S
C1302 H1279 0.950 . S
C1302 C1301 1.397 . S
C1302 C1303 1.334 . S
C1303 H1280 0.950 . S
C1303 C1302 1.334 . S
C1303 C1304 1.287 . S
C1304 C1303 1.287 . S
C1304 C1305 1.524 . S
C1304 H1323 0.913 . S
C1305 H1281 0.950 . S
C1305 C1304 1.524 . S
C1305 C1306 1.415 . S
C1306 H1282 0.950 . S
C1306 C1301 1.363 . S
C1306 C1305 1.415 . S
C1307 H1283 0.951 . S
C1307 C1308 1.366 1_655 S
C1307 C1309 1.388 . S
C1308 C1307 1.366 1_455 S
C1308 C1312 1.385 . S
C1309 H1284 0.951 . S
C1309 C1307 1.388 . S
C1309 C1310 1.366 . S
C1310 C1309 1.366 . S
C1310 C1311 1.414 . S
C1310 C1313 1.499 . S
C1311 H1285 0.950 . S
C1311 C1310 1.414 . S
C1311 C1312 1.374 1_655 S
C1312 H1286 0.950 . S
C1312 C1308 1.385 . S
C1312 C1311 1.374 1_455 S
C1313 C1310 1.499 . S
C1313 C1314 1.373 . S
C1313 C1315 1.389 . S
C1314 H1287 0.950 . S
C1314 C1300 1.377 . S
C1314 C1313 1.373 . S
C1315 C1299 1.377 . S
C1315 C1313 1.389 . S
C1315 C1316 1.524 . S
C1316 C1315 1.524 . S
C1316 C1317 1.397 . S
C1316 C1321 1.363 . S
C1317 H1288 0.950 . S
C1317 C1316 1.397 . S
C1317 C1318 1.334 . S
C1318 H1289 0.950 1_655 S
C1318 C1317 1.334 . S
C1318 C1319 1.287 . S
C1319 C1318 1.287 . S
C1319 C1320 1.524 . S
C1319 H1322 0.999 . S
C1320 H1290 0.950 . S
C1320 C1319 1.524 . S
C1320 C1321 1.415 . S
C1321 H1291 0.950 . S
C1321 C1316 1.363 . S
C1321 C1320 1.415 . S
H1322 C1319 0.999 . S
H1323 C1304 0.913 . S
H1324 C1342 0.951 . S
H1325 C1344 0.951 . S
H1326 C1346 0.950 . S
H1327 C1347 0.950 . S
H1328 C1349 0.950 . S
H1329 C1352 0.950 . S
H1330 C1353 0.950 . S
H1331 C1355 0.950 . S
H1332 C1356 0.950 . S
H1333 C1357 0.951 . S
H1334 C1359 0.951 . S
H1335 C1361 0.950 . S
H1336 C1362 0.950 . S
H1337 C1364 0.950 . S
H1338 C1367 0.950 . S
H1339 C1368 0.950 . S
H1340 C1370 0.950 . S
H1341 C1371 0.950 . S
C1342 H1324 0.951 . S
C1342 C1343 1.366 . S
C1342 C1344 1.388 . S
C1343 C1342 1.366 . S
C1343 C1347 1.385 . S
C1344 H1325 0.951 . S
C1344 C1342 1.388 . S
C1344 C1345 1.366 . S
C1345 C1344 1.366 . S
C1345 C1346 1.414 . S
C1345 C1348 1.499 . S
C1346 H1326 0.950 . S
C1346 C1345 1.414 . S
C1346 C1347 1.374 . S
C1347 H1327 0.950 . S
C1347 C1343 1.385 . S
C1347 C1346 1.374 . S
C1348 C1345 1.499 . S
C1348 C1349 1.373 . S
C1348 C1350 1.389 . S
C1349 H1328 0.950 . S
C1349 C1348 1.373 . S
C1349 C1365 1.377 . S
C1350 C1348 1.389 . S
C1350 C1351 1.524 . S
C1350 C1364 1.377 . S
C1351 C1350 1.524 . S
C1351 C1352 1.397 . S
C1351 C1356 1.363 . S
C1352 H1329 0.950 . S
C1352 C1351 1.397 . S
C1352 C1353 1.334 . S
C1353 H1330 0.950 . S
C1353 C1352 1.334 . S
C1353 C1354 1.287 . S
C1354 C1353 1.287 . S
C1354 C1355 1.524 . S
C1354 H1373 0.913 . S
C1355 H1331 0.950 . S
C1355 C1354 1.524 . S
C1355 C1356 1.415 . S
C1356 H1332 0.950 . S
C1356 C1351 1.363 . S
C1356 C1355 1.415 . S
C1357 H1333 0.951 . S
C1357 C1358 1.366 . S
C1357 C1359 1.388 1_565 S
C1358 C1357 1.366 . S
C1358 C1362 1.385 1_565 S
C1359 H1334 0.951 . S
C1359 C1357 1.388 1_545 S
C1359 C1360 1.366 . S
C1360 C1359 1.366 . S
C1360 C1361 1.414 . S
C1360 C1363 1.499 . S
C1361 H1335 0.950 . S
C1361 C1360 1.414 . S
C1361 C1362 1.374 . S
C1362 H1336 0.950 . S
C1362 C1358 1.385 1_545 S
C1362 C1361 1.374 . S
C1363 C1360 1.499 . S
C1363 C1364 1.373 . S
C1363 C1365 1.389 . S
C1364 H1337 0.950 . S
C1364 C1350 1.377 . S
C1364 C1363 1.373 . S
C1365 C1349 1.377 . S
C1365 C1363 1.389 . S
C1365 C1366 1.524 . S
C1366 C1365 1.524 . S
C1366 C1367 1.397 . S
C1366 C1371 1.363 . S
C1367 H1338 0.950 . S
C1367 C1366 1.397 . S
C1367 C1368 1.334 . S
C1368 H1339 0.950 . S
C1368 C1367 1.334 . S
C1368 C1369 1.287 . S
C1369 C1368 1.287 . S
C1369 C1370 1.524 . S
C1369 H1372 0.999 1_545 S
C1370 H1340 0.950 . S
C1370 C1369 1.524 . S
C1370 C1371 1.415 . S
C1371 H1341 0.950 . S
C1371 C1366 1.363 . S
C1371 C1370 1.415 . S
H1372 C1369 0.999 1_565 S
H1373 C1354 0.913 . S
H1374 C1392 0.951 . S
H1375 C1394 0.951 . S
H1376 C1396 0.950 . S
H1377 C1397 0.950 . S
H1378 C1399 0.950 . S
H1379 C1402 0.950 . S
H1380 C1403 0.950 . S
H1381 C1405 0.950 . S
H1382 C1406 0.950 . S
H1383 C1407 0.952 1_655 S
H1384 C1409 0.951 . S
H1385 C1411 0.950 . S
H1386 C1412 0.950 . S
H1387 C1414 0.950 . S
H1388 C1417 0.950 . S
H1389 C1418 0.950 . S
H1390 C1420 0.950 . S
H1391 C1421 0.950 . S
C1392 H1374 0.951 . S
C1392 C1393 1.366 . S
C1392 C1394 1.388 . S
C1393 C1392 1.366 . S
C1393 C1397 1.385 . S
C1394 H1375 0.951 . S
C1394 C1392 1.388 . S
C1394 C1395 1.366 . S
C1395 C1394 1.366 . S
C1395 C1396 1.414 . S
C1395 C1398 1.499 . S
C1396 H1376 0.950 . S
C1396 C1395 1.414 . S
C1396 C1397 1.374 . S
C1397 H1377 0.950 . S
C1397 C1393 1.385 . S
C1397 C1396 1.374 . S
C1398 C1395 1.499 . S
C1398 C1399 1.373 . S
C1398 C1400 1.389 . S
C1399 H1378 0.950 . S
C1399 C1398 1.373 . S
C1399 C1415 1.377 . S
C1400 C1398 1.389 . S
C1400 C1401 1.524 . S
C1400 C1414 1.377 . S
C1401 C1400 1.524 . S
C1401 C1402 1.397 . S
C1401 C1406 1.363 . S
C1402 H1379 0.950 . S
C1402 C1401 1.397 . S
C1402 C1403 1.334 . S
C1403 H1380 0.950 . S
C1403 C1402 1.334 . S
C1403 C1404 1.287 . S
C1404 C1403 1.287 . S
C1404 C1405 1.524 . S
C1404 H1423 0.913 . S
C1405 H1381 0.950 . S
C1405 C1404 1.524 . S
C1405 C1406 1.415 . S
C1406 H1382 0.950 . S
C1406 C1401 1.363 . S
C1406 C1405 1.415 . S
C1407 H1383 0.952 1_455 S
C1407 C1408 1.369 1_455 S
C1407 C1409 1.384 . S
C1408 C1407 1.369 1_655 S
C1408 C1412 1.385 . S
C1409 H1384 0.951 . S
C1409 C1407 1.384 . S
C1409 C1410 1.366 . S
C1410 C1409 1.366 . S
C1410 C1411 1.414 . S
C1410 C1413 1.499 . S
C1411 H1385 0.950 . S
C1411 C1410 1.414 . S
C1411 C1412 1.374 1_455 S
C1412 H1386 0.950 . S
C1412 C1408 1.385 . S
C1412 C1411 1.374 1_655 S
C1413 C1410 1.499 . S
C1413 C1414 1.373 . S
C1413 C1415 1.389 . S
C1414 H1387 0.950 . S
C1414 C1400 1.377 . S
C1414 C1413 1.373 . S
C1415 C1399 1.377 . S
C1415 C1413 1.389 . S
C1415 C1416 1.524 . S
C1416 C1415 1.524 . S
C1416 C1417 1.397 . S
C1416 C1421 1.363 . S
C1417 H1388 0.950 . S
C1417 C1416 1.397 . S
C1417 C1418 1.334 1_455 S
C1418 H1389 0.950 . S
C1418 C1417 1.334 1_655 S
C1418 C1419 1.287 1_655 S
C1419 C1418 1.287 1_455 S
C1419 C1420 1.524 . S
C1419 H1422 0.999 1_455 S
C1420 H1390 0.950 . S
C1420 C1419 1.524 . S
C1420 C1421 1.415 . S
C1421 H1391 0.950 . S
C1421 C1416 1.363 . S
C1421 C1420 1.415 . S
H1422 C1419 0.999 1_655 S
H1423 C1404 0.913 . S
H1424 C1442 0.951 . S
H1425 C1444 0.951 . S
H1426 C1446 0.950 . S
H1427 C1447 0.950 . S
H1428 C1449 0.950 . S
H1429 C1452 0.950 . S
H1430 C1453 0.950 . S
H1431 C1455 0.950 . S
H1432 C1456 0.950 . S
H1433 C1457 0.951 . S
H1434 C1459 0.951 . S
H1435 C1461 0.950 . S
H1436 C1462 0.950 . S
H1437 C1464 0.950 . S
H1438 C1467 0.950 . S
H1439 C1468 0.950 . S
H1440 C1470 0.950 . S
H1441 C1471 0.950 . S
C1442 H1424 0.951 . S
C1442 C1443 1.366 . S
C1442 C1444 1.388 . S
C1443 C1442 1.366 . S
C1443 C1447 1.385 . S
C1444 H1425 0.951 . S
C1444 C1442 1.388 . S
C1444 C1445 1.366 . S
C1445 C1444 1.366 . S
C1445 C1446 1.414 . S
C1445 C1448 1.499 . S
C1446 H1426 0.950 . S
C1446 C1445 1.414 . S
C1446 C1447 1.374 . S
C1447 H1427 0.950 . S
C1447 C1443 1.385 . S
C1447 C1446 1.374 . S
C1448 C1445 1.499 . S
C1448 C1449 1.373 . S
C1448 C1450 1.389 . S
C1449 H1428 0.950 . S
C1449 C1448 1.373 . S
C1449 C1465 1.377 . S
C1450 C1448 1.389 . S
C1450 C1451 1.524 . S
C1450 C1464 1.377 . S
C1451 C1450 1.524 . S
C1451 C1452 1.397 . S
C1451 C1456 1.363 . S
C1452 H1429 0.950 . S
C1452 C1451 1.397 . S
C1452 C1453 1.334 . S
C1453 H1430 0.950 . S
C1453 C1452 1.334 . S
C1453 C1454 1.287 . S
C1454 C1453 1.287 . S
C1454 C1455 1.524 . S
C1454 H1473 0.913 . S
C1455 H1431 0.950 . S
C1455 C1454 1.524 . S
C1455 C1456 1.415 . S
C1456 H1432 0.950 . S
C1456 C1451 1.363 . S
C1456 C1455 1.415 . S
C1457 H1433 0.951 . S
C1457 C1458 1.366 . S
C1457 C1459 1.388 . S
C1458 C1457 1.366 . S
C1458 C1462 1.385 . S
C1459 H1434 0.951 . S
C1459 C1457 1.388 . S
C1459 C1460 1.366 . S
C1460 C1459 1.366 . S
C1460 C1461 1.414 . S
C1460 C1463 1.499 . S
C1461 H1435 0.950 . S
C1461 C1460 1.414 . S
C1461 C1462 1.374 . S
C1462 H1436 0.950 . S
C1462 C1458 1.385 . S
C1462 C1461 1.374 . S
C1463 C1460 1.499 . S
C1463 C1464 1.373 . S
C1463 C1465 1.389 . S
C1464 H1437 0.950 . S
C1464 C1450 1.377 . S
C1464 C1463 1.373 . S
C1465 C1449 1.377 . S
C1465 C1463 1.389 . S
C1465 C1466 1.524 . S
C1466 C1465 1.524 . S
C1466 C1467 1.397 . S
C1466 C1471 1.363 . S
C1467 H1438 0.950 . S
C1467 C1466 1.397 . S
C1467 C1468 1.334 . S
C1468 H1439 0.950 . S
C1468 C1467 1.334 . S
C1468 C1469 1.287 . S
C1469 C1468 1.287 . S
C1469 C1470 1.524 . S
C1469 H1472 0.999 . S
C1470 H1440 0.950 . S
C1470 C1469 1.524 . S
C1470 C1471 1.415 . S
C1471 H1441 0.950 . S
C1471 C1466 1.363 . S
C1471 C1470 1.415 . S
H1472 C1469 0.999 . S
H1473 C1454 0.913 . S
H1474 C1492 0.951 . S
H1475 C1494 0.951 . S
H1476 C1496 0.950 . S
H1477 C1497 0.950 . S
H1478 C1499 0.950 . S
H1479 C1502 0.950 . S
H1480 C1503 0.950 . S
H1481 C1505 0.950 . S
H1482 C1506 0.950 . S
H1483 C1507 0.951 . S
H1484 C1509 0.951 . S
H1485 C1511 0.950 . S
H1486 C1512 0.950 . S
H1487 C1514 0.950 . S
H1488 C1517 0.950 . S
H1489 C1518 0.950 . S
H1490 C1520 0.950 . S
H1491 C1521 0.950 . S
C1492 H1474 0.951 . S
C1492 C1493 1.366 . S
C1492 C1494 1.388 . S
C1493 C1492 1.366 . S
C1493 C1497 1.385 . S
C1494 H1475 0.951 . S
C1494 C1492 1.388 . S
C1494 C1495 1.366 . S
C1495 C1494 1.366 . S
C1495 C1496 1.414 . S
C1495 C1498 1.499 . S
C1496 H1476 0.950 . S
C1496 C1495 1.414 . S
C1496 C1497 1.374 . S
C1497 H1477 0.950 . S
C1497 C1493 1.385 . S
C1497 C1496 1.374 . S
C1498 C1495 1.499 . S
C1498 C1499 1.373 . S
C1498 C1500 1.389 . S
C1499 H1478 0.950 . S
C1499 C1498 1.373 . S
C1499 C1515 1.377 . S
C1500 C1498 1.389 . S
C1500 C1501 1.524 . S
C1500 C1514 1.377 . S
C1501 C1500 1.524 . S
C1501 C1502 1.397 . S
C1501 C1506 1.363 . S
C1502 H1479 0.950 . S
C1502 C1501 1.397 . S
C1502 C1503 1.334 . S
C1503 H1480 0.950 . S
C1503 C1502 1.334 . S
C1503 C1504 1.287 . S
C1504 C1503 1.287 . S
C1504 C1505 1.524 . S
C1504 H1523 0.913 . S
C1505 H1481 0.950 . S
C1505 C1504 1.524 . S
C1505 C1506 1.415 . S
C1506 H1482 0.950 . S
C1506 C1501 1.363 . S
C1506 C1505 1.415 . S
C1507 H1483 0.951 . S
C1507 C1508 1.366 . S
C1507 C1509 1.388 . S
C1508 C1507 1.366 . S
C1508 C1512 1.385 . S
C1509 H1484 0.951 . S
C1509 C1507 1.388 . S
C1509 C1510 1.366 . S
C1510 C1509 1.366 . S
C1510 C1511 1.414 . S
C1510 C1513 1.499 . S
C1511 H1485 0.950 . S
C1511 C1510 1.414 . S
C1511 C1512 1.374 . S
C1512 H1486 0.950 . S
C1512 C1508 1.385 . S
C1512 C1511 1.374 . S
C1513 C1510 1.499 . S
C1513 C1514 1.373 . S
C1513 C1515 1.389 . S
C1514 H1487 0.950 . S
C1514 C1500 1.377 . S
C1514 C1513 1.373 . S
C1515 C1499 1.377 . S
C1515 C1513 1.389 . S
C1515 C1516 1.524 . S
C1516 C1515 1.524 . S
C1516 C1517 1.397 . S
C1516 C1521 1.363 . S
C1517 H1488 0.950 . S
C1517 C1516 1.397 . S
C1517 C1518 1.334 . S
C1518 H1489 0.950 . S
C1518 C1517 1.334 . S
C1518 C1519 1.287 . S
C1519 C1518 1.287 . S
C1519 C1520 1.524 . S
C1519 H1522 0.999 . S
C1520 H1490 0.950 . S
C1520 C1519 1.524 . S
C1520 C1521 1.415 . S
C1521 H1491 0.950 . S
C1521 C1516 1.363 . S
C1521 C1520 1.415 . S
H1522 C1519 0.999 . S
H1523 C1504 0.913 . S
H1524 C1542 0.951 . S
H1525 C1544 0.951 . S
H1526 C1546 0.950 . S
H1527 C1547 0.950 . S
H1528 C1549 0.950 . S
H1529 C1552 0.950 . S
H1530 C1553 0.950 . S
H1531 C1555 0.950 . S
H1532 C1556 0.950 . S
H1533 C1557 0.951 . S
H1534 C1559 0.951 . S
H1535 C1561 0.950 . S
H1536 C1562 0.950 . S
H1537 C1564 0.950 . S
H1538 C1567 0.950 . S
H1539 C1568 0.950 . S
H1540 C1570 0.950 . S
H1541 C1571 0.950 . S
C1542 H1524 0.951 . S
C1542 C1543 1.366 . S
C1542 C1544 1.388 . S
C1543 C1542 1.366 . S
C1543 C1547 1.385 . S
C1544 H1525 0.951 . S
C1544 C1542 1.388 . S
C1544 C1545 1.366 . S
C1545 C1544 1.366 . S
C1545 C1546 1.414 . S
C1545 C1548 1.499 . S
C1546 H1526 0.950 . S
C1546 C1545 1.414 . S
C1546 C1547 1.374 . S
C1547 H1527 0.950 . S
C1547 C1543 1.385 . S
C1547 C1546 1.374 . S
C1548 C1545 1.499 . S
C1548 C1549 1.373 . S
C1548 C1550 1.389 . S
C1549 H1528 0.950 . S
C1549 C1548 1.373 . S
C1549 C1565 1.377 . S
C1550 C1548 1.389 . S
C1550 C1551 1.524 . S
C1550 C1564 1.377 . S
C1551 C1550 1.524 . S
C1551 C1552 1.397 . S
C1551 C1556 1.363 . S
C1552 H1529 0.950 . S
C1552 C1551 1.397 . S
C1552 C1553 1.334 . S
C1553 H1530 0.950 . S
C1553 C1552 1.334 . S
C1553 C1554 1.287 . S
C1554 C1553 1.287 . S
C1554 C1555 1.524 . S
C1554 H1573 0.913 . S
C1555 H1531 0.950 . S
C1555 C1554 1.524 . S
C1555 C1556 1.415 . S
C1556 H1532 0.950 . S
C1556 C1551 1.363 . S
C1556 C1555 1.415 . S
C1557 H1533 0.951 . S
C1557 C1558 1.366 . S
C1557 C1559 1.388 . S
C1558 C1557 1.366 . S
C1558 C1562 1.385 . S
C1559 H1534 0.951 . S
C1559 C1557 1.388 . S
C1559 C1560 1.366 . S
C1560 C1559 1.366 . S
C1560 C1561 1.414 . S
C1560 C1563 1.499 . S
C1561 H1535 0.950 . S
C1561 C1560 1.414 . S
C1561 C1562 1.374 . S
C1562 H1536 0.950 . S
C1562 C1558 1.385 . S
C1562 C1561 1.374 . S
C1563 C1560 1.499 . S
C1563 C1564 1.373 . S
C1563 C1565 1.389 . S
C1564 H1537 0.950 . S
C1564 C1550 1.377 . S
C1564 C1563 1.373 . S
C1565 C1549 1.377 . S
C1565 C1563 1.389 . S
C1565 C1566 1.524 . S
C1566 C1565 1.524 . S
C1566 C1567 1.397 . S
C1566 C1571 1.363 . S
C1567 H1538 0.950 . S
C1567 C1566 1.397 . S
C1567 C1568 1.334 . S
C1568 H1539 0.950 . S
C1568 C1567 1.334 . S
C1568 C1569 1.287 . S
C1569 C1568 1.287 . S
C1569 C1570 1.524 . S
C1569 H1572 0.999 . S
C1570 H1540 0.950 . S
C1570 C1569 1.524 . S
C1570 C1571 1.415 . S
C1571 H1541 0.950 . S
C1571 C1566 1.363 . S
C1571 C1570 1.415 . S
H1572 C1569 0.999 . S
H1573 C1554 0.913 . S
H1574 C1592 0.951 . S
H1575 C1594 0.951 . S
H1576 C1596 0.950 . S
H1577 C1597 0.950 . S
H1578 C1599 0.950 . S
H1579 C1602 0.950 . S
H1580 C1603 0.950 . S
H1581 C1605 0.950 . S
H1582 C1606 0.950 . S
H1583 C1607 0.951 . S
H1584 C1609 0.951 . S
H1585 C1611 0.950 . S
H1586 C1612 0.950 . S
H1587 C1614 0.950 . S
H1588 C1617 0.950 . S
H1589 C1618 0.950 . S
H1590 C1620 0.950 . S
H1591 C1621 0.950 . S
C1592 H1574 0.951 . S
C1592 C1593 1.366 . S
C1592 C1594 1.388 . S
C1593 C1592 1.366 . S
C1593 C1597 1.385 . S
C1594 H1575 0.951 . S
C1594 C1592 1.388 . S
C1594 C1595 1.366 . S
C1595 C1594 1.366 . S
C1595 C1596 1.414 . S
C1595 C1598 1.499 . S
C1596 H1576 0.950 . S
C1596 C1595 1.414 . S
C1596 C1597 1.374 . S
C1597 H1577 0.950 . S
C1597 C1593 1.385 . S
C1597 C1596 1.374 . S
C1598 C1595 1.499 . S
C1598 C1599 1.373 . S
C1598 C1600 1.389 . S
C1599 H1578 0.950 . S
C1599 C1598 1.373 . S
C1599 C1615 1.377 . S
C1600 C1598 1.389 . S
C1600 C1601 1.524 . S
C1600 C1614 1.377 . S
C1601 C1600 1.524 . S
C1601 C1602 1.397 . S
C1601 C1606 1.363 . S
C1602 H1579 0.950 . S
C1602 C1601 1.397 . S
C1602 C1603 1.334 . S
C1603 H1580 0.950 . S
C1603 C1602 1.334 . S
C1603 C1604 1.287 . S
C1604 C1603 1.287 . S
C1604 C1605 1.524 . S
C1604 H1623 0.913 . S
C1605 H1581 0.950 . S
C1605 C1604 1.524 . S
C1605 C1606 1.415 . S
C1606 H1582 0.950 . S
C1606 C1601 1.363 . S
C1606 C1605 1.415 . S
C1607 H1583 0.951 . S
C1607 C1608 1.366 . S
C1607 C1609 1.388 . S
C1608 C1607 1.366 . S
C1608 C1612 1.385 . S
C1609 H1584 0.951 . S
C1609 C1607 1.388 . S
C1609 C1610 1.366 . S
C1610 C1609 1.366 . S
C1610 C1611 1.414 . S
C1610 C1613 1.499 . S
C1611 H1585 0.950 . S
C1611 C1610 1.414 . S
C1611 C1612 1.374 . S
C1612 H1586 0.950 . S
C1612 C1608 1.385 . S
C1612 C1611 1.374 . S
C1613 C1610 1.499 . S
C1613 C1614 1.373 . S
C1613 C1615 1.389 . S
C1614 H1587 0.950 . S
C1614 C1600 1.377 . S
C1614 C1613 1.373 . S
C1615 C1599 1.377 . S
C1615 C1613 1.389 . S
C1615 C1616 1.524 . S
C1616 C1615 1.524 . S
C1616 C1617 1.397 . S
C1616 C1621 1.363 . S
C1617 H1588 0.950 . S
C1617 C1616 1.397 . S
C1617 C1618 1.334 . S
C1618 H1589 0.950 . S
C1618 C1617 1.334 . S
C1618 C1619 1.287 . S
C1619 C1618 1.287 . S
C1619 C1620 1.524 . S
C1619 H1622 0.999 . S
C1620 H1590 0.950 . S
C1620 C1619 1.524 . S
C1620 C1621 1.415 . S
C1621 H1591 0.950 . S
C1621 C1616 1.363 . S
C1621 C1620 1.415 . S
H1622 C1619 0.999 . S
H1623 C1604 0.913 . S
H1624 C1642 0.951 . S
H1625 C1644 0.951 . S
H1626 C1646 0.950 1_565 S
H1627 C1647 0.950 . S
H1628 C1649 0.950 . S
H1629 C1652 0.950 . S
H1630 C1653 0.950 . S
H1631 C1655 0.950 . S
H1632 C1656 0.950 . S
H1633 C1657 0.951 . S
H1634 C1659 0.951 . S
H1635 C1661 0.950 1_545 S
H1636 C1662 0.950 . S
H1637 C1664 0.950 . S
H1638 C1667 0.950 . S
H1639 C1668 0.950 . S
H1640 C1670 0.950 . S
H1641 C1671 0.950 . S
C1642 H1624 0.951 . S
C1642 C1643 1.366 . S
C1642 C1644 1.388 . S
C1643 C1642 1.366 . S
C1643 C1647 1.385 . S
C1644 H1625 0.951 . S
C1644 C1642 1.388 . S
C1644 C1645 1.366 . S
C1645 C1644 1.366 . S
C1645 C1646 1.414 . S
C1645 C1648 1.499 . S
C1646 H1626 0.950 1_545 S
C1646 C1645 1.414 . S
C1646 C1647 1.374 . S
C1647 H1627 0.950 . S
C1647 C1643 1.385 . S
C1647 C1646 1.374 . S
C1648 C1645 1.499 . S
C1648 C1649 1.373 1_545 S
C1648 C1650 1.389 . S
C1649 H1628 0.950 . S
C1649 C1648 1.373 1_565 S
C1649 C1665 1.377 1_554 S
C1650 C1648 1.389 . S
C1650 C1651 1.524 . S
C1650 C1664 1.377 1_554 S
C1651 C1650 1.524 . S
C1651 C1652 1.397 . S
C1651 C1656 1.363 1_554 S
C1652 H1629 0.950 . S
C1652 C1651 1.397 . S
C1652 C1653 1.334 . S
C1653 H1630 0.950 . S
C1653 C1652 1.334 . S
C1653 C1654 1.287 . S
C1654 C1653 1.287 . S
C1654 C1655 1.524 1_554 S
C1654 H1673 0.913 . S
C1655 H1631 0.950 . S
C1655 C1654 1.524 1_556 S
C1655 C1656 1.415 . S
C1656 H1632 0.950 . S
C1656 C1651 1.363 1_556 S
C1656 C1655 1.415 . S
C1657 H1633 0.951 . S
C1657 C1658 1.366 . S
C1657 C1659 1.388 . S
C1658 C1657 1.366 . S
C1658 C1662 1.385 . S
C1659 H1634 0.951 . S
C1659 C1657 1.388 . S
C1659 C1660 1.366 . S
C1660 C1659 1.366 . S
C1660 C1661 1.414 . S
C1660 C1663 1.499 . S
C1661 H1635 0.950 1_565 S
C1661 C1660 1.414 . S
C1661 C1662 1.374 . S
C1662 H1636 0.950 . S
C1662 C1658 1.385 . S
C1662 C1661 1.374 . S
C1663 C1660 1.499 . S
C1663 C1664 1.373 1_565 S
C1663 C1665 1.389 . S
C1664 H1637 0.950 . S
C1664 C1650 1.377 1_556 S
C1664 C1663 1.373 1_545 S
C1665 C1649 1.377 1_556 S
C1665 C1663 1.389 . S
C1665 C1666 1.524 . S
C1666 C1665 1.524 . S
C1666 C1667 1.397 . S
C1666 C1671 1.363 1_556 S
C1667 H1638 0.950 . S
C1667 C1666 1.397 . S
C1667 C1668 1.334 . S
C1668 H1639 0.950 . S
C1668 C1667 1.334 . S
C1668 C1669 1.287 . S
C1669 C1668 1.287 . S
C1669 C1670 1.524 1_556 S
C1669 H1672 0.999 . S
C1670 H1640 0.950 . S
C1670 C1669 1.524 1_554 S
C1670 C1671 1.415 . S
C1671 H1641 0.950 . S
C1671 C1666 1.363 1_554 S
C1671 C1670 1.415 . S
H1672 C1669 0.999 . S
H1673 C1654 0.913 . S
H1674 C1692 0.951 . S
H1675 C1694 0.951 . S
H1676 C1696 0.950 1_655 S
H1677 C1697 0.979 . S
H1678 C1699 0.950 . S
H1679 C1702 0.950 . S
H1680 C1703 0.950 . S
H1681 C1705 0.950 . S
H1682 C1706 0.950 . S
H1683 C1707 0.951 . S
H1684 C1709 0.951 . S
H1685 C1711 0.950 1_455 S
H1686 C1712 0.979 . S
H1687 C1714 0.950 . S
H1688 C1717 0.950 . S
H1689 C1718 0.950 . S
H1690 C1720 0.950 . S
H1691 C1721 0.950 . S
C1692 H1674 0.951 . S
C1692 C1693 1.366 . S
C1692 C1694 1.388 . S
C1693 C1692 1.366 . S
C1693 C1697 1.385 . S
C1694 H1675 0.951 . S
C1694 C1692 1.388 . S
C1694 C1695 1.366 . S
C1695 C1694 1.366 . S
C1695 C1696 1.414 . S
C1695 C1698 1.499 . S
C1696 H1676 0.950 1_455 S
C1696 C1695 1.414 . S
C1696 C1697 1.374 . S
C1697 H1677 0.979 . S
C1697 C1693 1.385 . S
C1697 C1696 1.374 . S
C1698 C1695 1.499 . S
C1698 C1699 1.373 1_455 S
C1698 C1700 1.389 . S
C1699 H1678 0.950 . S
C1699 C1698 1.373 1_655 S
C1699 C1715 1.377 1_556 S
C1700 C1698 1.389 . S
C1700 C1701 1.524 . S
C1700 C1714 1.377 1_556 S
C1701 C1700 1.524 . S
C1701 C1702 1.397 . S
C1701 C1706 1.363 1_556 S
C1702 H1679 0.950 . S
C1702 C1701 1.397 . S
C1702 C1703 1.334 . S
C1703 H1680 0.950 . S
C1703 C1702 1.334 . S
C1703 C1704 1.287 . S
C1704 C1703 1.287 . S
C1704 C1705 1.524 1_556 S
C1704 H1723 0.913 . S
C1705 H1681 0.950 . S
C1705 C1704 1.524 1_554 S
C1705 C1706 1.415 . S
C1706 H1682 0.950 . S
C1706 C1701 1.363 1_554 S
C1706 C1705 1.415 . S
C1707 H1683 0.951 . S
C1707 C1708 1.366 . S
C1707 C1709 1.388 . S
C1708 C1707 1.366 . S
C1708 C1712 1.385 . S
C1709 H1684 0.951 . S
C1709 C1707 1.388 . S
C1709 C1710 1.366 . S
C1710 C1709 1.366 . S
C1710 C1711 1.414 . S
C1710 C1713 1.499 . S
C1711 H1685 0.950 1_655 S
C1711 C1710 1.414 . S
C1711 C1712 1.374 . S
C1712 H1686 0.979 . S
C1712 C1708 1.385 . S
C1712 C1711 1.374 . S
C1713 C1710 1.499 . S
C1713 C1714 1.373 1_655 S
C1713 C1715 1.389 . S
C1714 H1687 0.950 . S
C1714 C1700 1.377 1_554 S
C1714 C1713 1.373 1_455 S
C1715 C1699 1.377 1_554 S
C1715 C1713 1.389 . S
C1715 C1716 1.524 . S
C1716 C1715 1.524 . S
C1716 C1717 1.397 . S
C1716 C1721 1.363 1_554 S
C1717 H1688 0.950 . S
C1717 C1716 1.397 . S
C1717 C1718 1.334 . S
C1718 H1689 0.950 . S
C1718 C1717 1.334 . S
C1718 C1719 1.287 . S
C1719 C1718 1.287 . S
C1719 C1720 1.524 1_554 S
C1719 H1722 0.999 . S
C1720 H1690 0.950 . S
C1720 C1719 1.524 1_556 S
C1720 C1721 1.415 . S
C1721 H1691 0.950 . S
C1721 C1716 1.363 1_556 S
C1721 C1720 1.415 . S
H1722 C1719 0.999 . S
H1723 C1704 0.913 . S
H1724 C1742 0.951 . S
H1725 C1744 0.951 . S
H1726 C1746 0.950 1_565 S
H1727 C1747 0.950 . S
H1728 C1749 0.950 . S
H1729 C1752 0.950 . S
H1730 C1753 0.950 . S
H1731 C1755 0.950 . S
H1732 C1756 0.950 . S
H1733 C1757 0.951 . S
H1734 C1759 0.951 . S
H1735 C1761 0.950 1_545 S
H1736 C1762 0.950 . S
H1737 C1764 0.950 . S
H1738 C1767 0.950 . S
H1739 C1768 0.950 . S
H1740 C1770 0.950 . S
H1741 C1771 0.950 . S
C1742 H1724 0.951 . S
C1742 C1743 1.366 . S
C1742 C1744 1.388 . S
C1743 C1742 1.366 . S
C1743 C1747 1.385 . S
C1744 H1725 0.951 . S
C1744 C1742 1.388 . S
C1744 C1745 1.366 . S
C1745 C1744 1.366 . S
C1745 C1746 1.414 . S
C1745 C1748 1.499 . S
C1746 H1726 0.950 1_545 S
C1746 C1745 1.414 . S
C1746 C1747 1.374 . S
C1747 H1727 0.950 . S
C1747 C1743 1.385 . S
C1747 C1746 1.374 . S
C1748 C1745 1.499 . S
C1748 C1749 1.373 1_545 S
C1748 C1750 1.389 . S
C1749 H1728 0.950 . S
C1749 C1748 1.373 1_565 S
C1749 C1765 1.377 1_556 S
C1750 C1748 1.389 . S
C1750 C1751 1.524 . S
C1750 C1764 1.377 1_556 S
C1751 C1750 1.524 . S
C1751 C1752 1.397 . S
C1751 C1756 1.363 1_556 S
C1752 H1729 0.950 . S
C1752 C1751 1.397 . S
C1752 C1753 1.334 . S
C1753 H1730 0.950 . S
C1753 C1752 1.334 . S
C1753 C1754 1.287 . S
C1754 C1753 1.287 . S
C1754 C1755 1.524 1_556 S
C1754 H1773 0.913 . S
C1755 H1731 0.950 . S
C1755 C1754 1.524 1_554 S
C1755 C1756 1.415 . S
C1756 H1732 0.950 . S
C1756 C1751 1.363 1_554 S
C1756 C1755 1.415 . S
C1757 H1733 0.951 . S
C1757 C1758 1.366 . S
C1757 C1759 1.388 . S
C1758 C1757 1.366 . S
C1758 C1762 1.385 . S
C1759 H1734 0.951 . S
C1759 C1757 1.388 . S
C1759 C1760 1.366 . S
C1760 C1759 1.366 . S
C1760 C1761 1.414 . S
C1760 C1763 1.499 . S
C1761 H1735 0.950 1_565 S
C1761 C1760 1.414 . S
C1761 C1762 1.374 . S
C1762 H1736 0.950 . S
C1762 C1758 1.385 . S
C1762 C1761 1.374 . S
C1763 C1760 1.499 . S
C1763 C1764 1.373 1_565 S
C1763 C1765 1.389 . S
C1764 H1737 0.950 . S
C1764 C1750 1.377 1_554 S
C1764 C1763 1.373 1_545 S
C1765 C1749 1.377 1_554 S
C1765 C1763 1.389 . S
C1765 C1766 1.524 . S
C1766 C1765 1.524 . S
C1766 C1767 1.397 . S
C1766 C1771 1.363 1_554 S
C1767 H1738 0.950 . S
C1767 C1766 1.397 . S
C1767 C1768 1.334 . S
C1768 H1739 0.950 . S
C1768 C1767 1.334 . S
C1768 C1769 1.287 . S
C1769 C1768 1.287 . S
C1769 C1770 1.524 1_554 S
C1769 H1772 0.999 . S
C1770 H1740 0.950 . S
C1770 C1769 1.524 1_556 S
C1770 C1771 1.415 . S
C1771 H1741 0.950 . S
C1771 C1766 1.363 1_556 S
C1771 C1770 1.415 . S
H1772 C1769 0.999 . S
H1773 C1754 0.913 . S
H1774 C1792 0.951 . S
H1775 C1794 0.951 . S
H1776 C1796 0.950 . S
H1777 C1797 0.950 . S
H1778 C1799 0.950 . S
H1779 C1802 0.950 . S
H1780 C1803 0.950 . S
H1781 C1805 0.950 . S
H1782 C1806 0.950 . S
H1783 C1807 0.951 . S
H1784 C1809 0.951 . S
H1785 C1811 0.950 . S
H1786 C1812 0.950 . S
H1787 C1814 0.950 . S
H1788 C1817 0.950 . S
H1789 C1818 0.950 . S
H1790 C1820 0.950 . S
H1791 C1821 0.950 . S
C1792 H1774 0.951 . S
C1792 C1793 1.366 . S
C1792 C1794 1.388 . S
C1793 C1792 1.366 . S
C1793 C1797 1.385 . S
C1794 H1775 0.951 . S
C1794 C1792 1.388 . S
C1794 C1795 1.366 . S
C1795 C1794 1.366 . S
C1795 C1796 1.414 . S
C1795 C1798 1.499 . S
C1796 H1776 0.950 . S
C1796 C1795 1.414 . S
C1796 C1797 1.374 . S
C1797 H1777 0.950 . S
C1797 C1793 1.385 . S
C1797 C1796 1.374 . S
C1798 C1795 1.499 . S
C1798 C1799 1.373 1_655 S
C1798 C1800 1.389 . S
C1799 H1778 0.950 . S
C1799 C1798 1.373 1_455 S
C1799 C1815 1.377 1_556 S
C1800 C1798 1.389 . S
C1800 C1801 1.524 . S
C1800 C1814 1.377 1_556 S
C1801 C1800 1.524 . S
C1801 C1802 1.397 . S
C1801 C1806 1.363 . S
C1802 H1779 0.950 . S
C1802 C1801 1.397 . S
C1802 C1803 1.334 . S
C1803 H1780 0.950 . S
C1803 C1802 1.334 . S
C1803 C1804 1.287 . S
C1804 C1803 1.287 . S
C1804 C1805 1.524 . S
C1804 H1823 0.913 . S
C1805 H1781 0.950 . S
C1805 C1804 1.524 . S
C1805 C1806 1.415 . S
C1806 H1782 0.950 . S
C1806 C1801 1.363 . S
C1806 C1805 1.415 . S
C1807 H1783 0.951 . S
C1807 C1808 1.366 . S
C1807 C1809 1.388 . S
C1808 C1807 1.366 . S
C1808 C1812 1.385 . S
C1809 H1784 0.951 . S
C1809 C1807 1.388 . S
C1809 C1810 1.366 . S
C1810 C1809 1.366 . S
C1810 C1811 1.414 . S
C1810 C1813 1.499 . S
C1811 H1785 0.950 . S
C1811 C1810 1.414 . S
C1811 C1812 1.374 . S
C1812 H1786 0.950 . S
C1812 C1808 1.385 . S
C1812 C1811 1.374 . S
C1813 C1810 1.499 . S
C1813 C1814 1.373 1_455 S
C1813 C1815 1.389 . S
C1814 H1787 0.950 . S
C1814 C1800 1.377 1_554 S
C1814 C1813 1.373 1_655 S
C1815 C1799 1.377 1_554 S
C1815 C1813 1.389 . S
C1815 C1816 1.524 . S
C1816 C1815 1.524 . S
C1816 C1817 1.397 . S
C1816 C1821 1.363 . S
C1817 H1788 0.950 . S
C1817 C1816 1.397 . S
C1817 C1818 1.334 . S
C1818 H1789 0.950 . S
C1818 C1817 1.334 . S
C1818 C1819 1.287 . S
C1819 C1818 1.287 . S
C1819 C1820 1.524 . S
C1819 H1822 0.999 . S
C1820 H1790 0.950 . S
C1820 C1819 1.524 . S
C1820 C1821 1.415 . S
C1821 H1791 0.950 . S
C1821 C1816 1.363 . S
C1821 C1820 1.415 . S
H1822 C1819 0.999 . S
H1823 C1804 0.913 . S
C243 C6 1.306 . S
C258 C104 1.306 . S
C293 C20 1.306 . S
C308 C62 1.306 . S
C343 C76 1.306 . S
C358 C34 1.306 . S
C393 C48 1.306 . S
C408 C90 1.306 . S
C443 C118 1.306 . S
C458 C216 1.306 . S
C493 C174 1.306 . S
C508 C132 1.306 . S
C543 C188 1.306 . S
C558 C146 1.306 . S
C593 C202 1.306 . S
C608 C160 1.306 . S
C643 C9 1.446 . S
C658 C162 1.479 . S
C693 C23 1.446 . S
C708 C120 1.479 . S
C743 C134 1.479 . S
C758 C37 1.446 . S
C793 C51 1.446 . S
C808 C148 1.479 . S
C843 C65 1.447 . S
C858 C190 1.479 . S
C893 C204 1.479 . S
C908 C79 1.446 . S
C943 C93 1.446 . S
C958 C218 1.479 . S
C993 C176 1.479 . S
C1008 C107 1.446 . S
C1043 C121 1.447 . S
C1058 C50 1.479 . S
C1093 C8 1.479 . S
C1108 C135 1.446 . S
C1143 C149 1.446 . S
C1158 C22 1.479 . S
C1193 C36 1.479 . S
C1208 C163 1.446 . S
C1243 C177 1.447 . S
C1258 C78 1.479 . S
C1293 C92 1.479 . S
C1308 C191 1.447 . S
C1343 C106 1.479 . S
C1358 C205 1.447 . S
C1393 C64 1.479 . S
C1408 C219 1.447 . S
C1443 C63 1.597 . S
C1458 C7 1.597 . S
C1493 C77 1.597 . S
C1508 C21 1.597 . S
C1543 C35 1.597 . S
C1558 C91 1.597 . S
C1593 C105 1.597 . S
C1608 C49 1.597 . S
C1643 C175 1.597 . S
C1658 C119 1.597 . S
C1693 C189 1.597 . S
C1708 C133 1.597 . S
C1743 C147 1.597 . S
C1758 C203 1.597 . S
C1793 C217 1.597 . S
C1808 C161 1.597 . S
