# Generated by pormake.
# Topology rob, (6)-cn, num edge types: 1
# Building blocks:
#     Node 0, Type 0, BuildingBlock: CIFDUS_clean_sbu_1, # of connection points: 6
#     Node 1, Type 0, BuildingBlock: CIFDUS_clean_sbu_1, # of connection points: 6
#     Node 2, Type 0, BuildingBlock: CIFDUS_clean_sbu_1, # of connection points: 6
#     Node 3, Type 0, BuildingBlock: CIFDUS_clean_sbu_1, # of connection points: 6
#     Edge 4, Type (0, 0), BuildingBlock: FUNLAD_clean_linker_1, # of connection points: 2
#     Edge 5, Type (0, 0), BuildingBlock: FUNLAD_clean_linker_1, # of connection points: 2
#     Edge 6, Type (0, 0), BuildingBlock: FUNLAD_clean_linker_1, # of connection points: 2
#     Edge 7, Type (0, 0), BuildingBlock: FUNLAD_clean_linker_1, # of connection points: 2
#     Edge 8, Type (0, 0), BuildingBlock: FUNLAD_clean_linker_1, # of connection points: 2
#     Edge 9, Type (0, 0), BuildingBlock: FUNLAD_clean_linker_1, # of connection points: 2
#     Edge 10, Type (0, 0), BuildingBlock: FUNLAD_clean_linker_1, # of connection points: 2
#     Edge 11, Type (0, 0), BuildingBlock: FUNLAD_clean_linker_1, # of connection points: 2
#     Edge 12, Type (0, 0), BuildingBlock: FUNLAD_clean_linker_1, # of connection points: 2
#     Edge 13, Type (0, 0), BuildingBlock: FUNLAD_clean_linker_1, # of connection points: 2
#     Edge 14, Type (0, 0), BuildingBlock: FUNLAD_clean_linker_1, # of connection points: 2
#     Edge 15, Type (0, 0), BuildingBlock: FUNLAD_clean_linker_1, # of connection points: 2
# Relax obj value: 0.212
# Max RMSD: 0.230
# Mean RMSD: 0.230
data_MOF--net-rob--node1-CIFDUS_clean_sbu_1--edge1-FUNLAD_clean_linker_1
_symmetry_space_group_name_H-M    P1
_symmetry_Int_Tables_number       1
_symmetry_cell_setting            triclinic
loop_
_symmetry_equiv_pos_as_xyz
'x, y, z'
_cell_length_a     16.146978
_cell_length_b     26.804012
_cell_length_c     27.280532
_cell_angle_alpha  108.65503
_cell_angle_beta   89.908316
_cell_angle_gamma 90.767171
loop_
_atom_site_label
_atom_site_type_symbol
_atom_site_fract_x
_atom_site_fract_y
_atom_site_fract_z
_atom_type_partial_charge
O0 O 0.17293 0.29082 0.93928 0.0
Mn1 Mn 0.22972 0.28631 0.00656 0.0
O2 O 0.21618 0.21917 0.87546 0.0
Mn3 Mn 0.27762 0.18912 0.91623 0.0
O4 O 0.2861 0.28287 0.07471 0.0
O5 O 0.23242 0.3653 0.03585 0.0
Mn6 Mn 0.18433 0.38749 0.09651 0.0
O7 O 0.11358 0.28113 0.04006 0.0
O8 O 0.24537 0.35685 0.13717 0.0
O9 O 0.34524 0.29326 0.97305 0.0
O10 O 0.38569 0.21281 0.92678 0.0
O11 O 0.2255 0.44682 0.08315 0.0
O12 O 0.0763 0.36333 0.08538 0.0
C13 C 0.20965 0.15608 0.96576 0.0
C14 C 0.17615 0.26222 0.89136 0.0
C15 C 0.28378 0.31303 0.12231 0.0
C16 C 0.25571 0.41317 0.04199 0.0
C17 C 0.0609 0.31408 0.0675 0.0
C18 C 0.39906 0.26209 0.9449 0.0
O19 O 0.22624 0.20613 0.97647 0.0
O20 O 0.2436 0.1265 0.92356 0.0
O21 O 0.67506 0.77365 0.92482 0.0
Mn22 Mn 0.73623 0.77288 0.99235 0.0
O23 O 0.7226 0.70214 0.86192 0.0
Mn24 Mn 0.7892 0.67392 0.90212 0.0
O25 O 0.79711 0.77112 0.05935 0.0
O26 O 0.73216 0.85211 0.02201 0.0
Mn27 Mn 0.68468 0.87066 0.08316 0.0
O28 O 0.62329 0.7629 0.0272 0.0
O29 O 0.75112 0.84209 0.12312 0.0
O30 O 0.84937 0.78268 0.95805 0.0
O31 O 0.89489 0.70259 0.91252 0.0
O32 O 0.71776 0.93236 0.07199 0.0
O33 O 0.57863 0.84299 0.07279 0.0
C34 C 0.72222 0.64565 0.95679 0.0
C35 C 0.67889 0.74384 0.87719 0.0
C36 C 0.79403 0.80015 0.10715 0.0
C37 C 0.75026 0.90128 0.03007 0.0
C38 C 0.56832 0.79327 0.0553 0.0
C39 C 0.90489 0.75237 0.93052 0.0
O40 O 0.74142 0.69415 0.96303 0.0
O41 O 0.75452 0.61319 0.91564 0.0
O42 O 0.18017 0.7788 0.56572 0.0
Mn43 Mn 0.23703 0.77963 0.49707 0.0
O44 O 0.23619 0.8498 0.62659 0.0
Mn45 Mn 0.2967 0.87871 0.58372 0.0
O46 O 0.29415 0.78154 0.4288 0.0
O47 O 0.23467 0.69967 0.46886 0.0
Mn48 Mn 0.18383 0.67998 0.40863 0.0
O49 O 0.12253 0.78671 0.46282 0.0
O50 O 0.24784 0.70825 0.36684 0.0
O51 O 0.35104 0.772 0.53114 0.0
O52 O 0.4024 0.85278 0.56903 0.0
O53 O 0.21642 0.61884 0.41908 0.0
O54 O 0.07781 0.70517 0.42001 0.0
C55 C 0.2237 0.90873 0.53408 0.0
C56 C 0.18984 0.80844 0.6131 0.0
C57 C 0.29006 0.75124 0.38142 0.0
C58 C 0.25133 0.65032 0.46034 0.0
C59 C 0.06741 0.75466 0.43557 0.0
C60 C 0.40994 0.80316 0.55462 0.0
O61 O 0.24046 0.85942 0.52525 0.0
O62 O 0.26135 0.94005 0.57431 0.0
O63 O 0.68077 0.27809 0.57336 0.0
Mn64 Mn 0.7351 0.28287 0.50516 0.0
O65 O 0.71615 0.35384 0.63583 0.0
Mn66 Mn 0.77958 0.38396 0.59534 0.0
O67 O 0.78918 0.28722 0.43663 0.0
O68 O 0.73747 0.20304 0.47599 0.0
Mn69 Mn 0.68489 0.18316 0.41617 0.0
O70 O 0.61857 0.28767 0.47277 0.0
O71 O 0.74466 0.21349 0.37451 0.0
O72 O 0.85157 0.27921 0.5384 0.0
O73 O 0.88749 0.36149 0.586 0.0
O74 O 0.72182 0.12227 0.42546 0.0
O75 O 0.5774 0.20605 0.42735 0.0
C76 C 0.71282 0.41083 0.54093 0.0
C77 C 0.68 0.30872 0.62068 0.0
C78 C 0.78423 0.25745 0.389 0.0
C79 C 0.7562 0.15391 0.46685 0.0
C80 C 0.56441 0.25522 0.44528 0.0
C81 C 0.90323 0.31264 0.56753 0.0
O82 O 0.73266 0.36237 0.53395 0.0
O83 O 0.74292 0.44369 0.5831 0.0
H84 H 0.60563 0.65572 0.00139 0.0
C85 C 0.65453 0.62821 0.98436 0.0
H86 H 0.69694 0.5506 0.96357 0.0
H87 H 0.35384 0.54989 0.10505 0.0
H88 H 0.41349 0.62348 0.17225 0.0
H89 H 0.54674 0.66316 0.15909 0.0
H90 H 0.62058 0.62948 0.07835 0.0
C91 C 0.6466 0.57693 0.98078 0.0
C92 C 0.5671 0.55211 0.9907 0.0
C93 C 0.52623 0.57062 0.03917 0.0
C94 C 0.45 0.54675 0.04706 0.0
C95 C 0.41081 0.56662 0.096 0.0
C96 C 0.44483 0.60872 0.1354 0.0
C97 C 0.51977 0.63109 0.12798 0.0
C98 C 0.5609 0.61183 0.08093 0.0
H99 H 0.37265 0.40021 0.99747 0.0
C100 C 0.32462 0.42862 0.01383 0.0
H101 H 0.28499 0.50672 0.03306 0.0
H102 H 0.62836 0.50568 0.89251 0.0
H103 H 0.56846 0.43237 0.82523 0.0
H104 H 0.43616 0.39188 0.83875 0.0
H105 H 0.36288 0.425 0.91972 0.0
C106 C 0.33466 0.47954 0.0165 0.0
C107 C 0.41541 0.50323 0.007 0.0
C108 C 0.4566 0.48444 0.95865 0.0
C109 C 0.53267 0.50847 0.95069 0.0
C110 C 0.57161 0.48881 0.90166 0.0
C111 C 0.53752 0.44678 0.86224 0.0
C112 C 0.46305 0.42401 0.86984 0.0
C113 C 0.42219 0.44299 0.91701 0.0
H114 H 0.34724 0.65674 0.52118 0.0
C115 C 0.31733 0.63041 0.48683 0.0
H116 H 0.31334 0.55487 0.43053 0.0
H117 H 0.70016 0.54426 0.49904 0.0
H118 H 0.72501 0.6231 0.47558 0.0
H119 H 0.60891 0.6711 0.45382 0.0
H120 H 0.46764 0.64106 0.45586 0.0
C121 C 0.34449 0.58056 0.4648 0.0
C122 C 0.41503 0.55589 0.48357 0.0
C123 C 0.4977 0.57378 0.48152 0.0
C124 C 0.56493 0.54562 0.49342 0.0
C125 C 0.64678 0.56443 0.49106 0.0
C126 C 0.66201 0.60943 0.47729 0.0
C127 C 0.59666 0.63645 0.46504 0.0
C128 C 0.51551 0.61885 0.46672 0.0
H129 H 0.62426 0.40025 0.47543 0.0
C130 C 0.64978 0.42812 0.51049 0.0
H131 H 0.64642 0.50479 0.56446 0.0
H132 H 0.26495 0.50981 0.48989 0.0
H133 H 0.2404 0.43026 0.51198 0.0
H134 H 0.35657 0.38199 0.53324 0.0
H135 H 0.49756 0.41258 0.53215 0.0
C136 C 0.61936 0.47739 0.52957 0.0
C137 C 0.55009 0.4992 0.50675 0.0
C138 C 0.46755 0.48055 0.50754 0.0
C139 C 0.40027 0.50879 0.49576 0.0
C140 C 0.31846 0.48966 0.4977 0.0
C141 C 0.30335 0.44419 0.51069 0.0
C142 C 0.36873 0.41704 0.52266 0.0
C143 C 0.44979 0.43501 0.52159 0.0
H144 H 0.10687 0.15938 0.02168 0.0
C145 C 0.14466 0.13342 0.99143 0.0
H146 H 0.16422 0.05611 0.9413 0.0
H147 H 0.91791 0.9883 0.10261 0.0
H148 H 0.02443 1.02308 0.16754 0.0
H149 H 0.14543 0.07129 0.14944 0.0
H150 H 0.159 0.0874 0.06726 0.0
C151 C 0.12687 0.08114 0.97248 0.0
C152 C 0.05129 0.05509 0.98548 0.0
C153 C 0.04343 0.04703 0.03414 0.0
C154 C 0.97438 1.01797 0.04406 0.0
C155 C 0.96857 1.0103 0.093 0.0
C156 C 0.02958 0.02973 0.13054 0.0
C157 C 0.09766 0.05699 0.12038 0.0
C158 C 0.10462 0.06599 0.073 0.0
H159 H 0.85314 0.89333 0.97346 0.0
C160 C 0.81612 0.92109 0.00274 0.0
H161 H 0.79991 0.99993 0.04967 0.0
H162 H 0.04903 0.06029 0.88677 0.0
H163 H 0.94835 1.01933 0.81967 0.0
H164 H 0.83012 0.96809 0.83672 0.0
H165 H 0.81178 0.95757 0.92107 0.0
C166 C 0.83612 0.97302 0.01912 0.0
C167 C 0.91382 0.99605 0.00506 0.0
C168 C 0.92347 1.00213 0.95568 0.0
C169 C -0.00798 0.03169 0.94591 0.0
C170 C -0.00081 0.03763 0.89627 0.0
C171 C 0.94152 1.01457 0.85741 0.0
C172 C 0.87489 0.98577 0.86702 0.0
C173 C 0.86524 0.9799 0.91563 0.0
H174 H 0.84921 0.16055 0.52941 0.0
C175 C 0.82241 0.13455 0.49374 0.0
H176 H 0.82467 0.06037 0.43548 0.0
H177 H 0.20685 0.05227 0.51303 0.0
H178 H 0.23126 0.13516 0.49729 0.0
H179 H 0.11556 0.18429 0.47679 0.0
H180 H 0.97507 0.1512 0.47233 0.0
C181 C 0.85285 0.08563 0.4711 0.0
C182 C 0.9224 0.06107 0.4911 0.0
C183 C 0.00478 0.08083 0.49301 0.0
C184 C 0.07187 0.05203 0.50425 0.0
C185 C 0.15343 0.07266 0.50548 0.0
C186 C 0.16851 0.12008 0.49612 0.0
C187 C 0.10339 0.14773 0.48458 0.0
C188 C 0.0226 0.12833 0.48252 0.0
H189 H 0.12783 0.9031 0.47339 0.0
C190 C 0.15634 0.92877 0.50863 0.0
H191 H 0.15693 1.00276 0.56719 0.0
H192 H 0.77281 1.01205 0.4912 0.0
H193 H 0.74827 0.92931 0.50727 0.0
H194 H 0.86389 0.88031 0.52807 0.0
H195 H 0.00441 0.91336 0.53248 0.0
C196 C 0.12721 0.9779 0.53195 0.0
C197 C 0.05725 1.0031 0.513 0.0
C198 C 0.97482 0.98348 0.51135 0.0
C199 C 0.90776 1.01225 0.50005 0.0
C200 C 0.82618 0.99166 0.49885 0.0
C201 C 0.81104 0.94435 0.50839 0.0
C202 C 0.87612 0.91677 0.52009 0.0
C203 C 0.95693 0.93612 0.52208 0.0
H204 H 0.46451 0.3108 0.44207 0.0
C205 C 0.49885 0.27631 0.42007 0.0
H206 H 0.53074 0.22421 0.34684 0.0
H207 H 0.24771 0.22883 0.20004 0.0
H208 H 0.22418 0.14351 0.21126 0.0
H209 H 0.29516 0.11969 0.28005 0.0
H210 H 0.39151 0.18055 0.33796 0.0
C211 C 0.49314 0.25757 0.36799 0.0
C212 C 0.43781 0.27806 0.33534 0.0
C213 C 0.38073 0.24252 0.30194 0.0
C214 C 0.33978 0.25636 0.26204 0.0
C215 C 0.28233 0.22001 0.23003 0.0
C216 C 0.26743 0.1711 0.23634 0.0
C217 C 0.3076 0.15756 0.27506 0.0
C218 C 0.36325 0.19275 0.30776 0.0
H219 H 0.36633 0.26219 0.15039 0.0
C220 C 0.32624 0.29618 0.16254 0.0
H221 H 0.27431 0.35531 0.22576 0.0
H222 H 0.54364 0.3564 0.39235 0.0
H223 H 0.563 0.44275 0.38396 0.0
H224 H 0.48852 0.46795 0.31683 0.0
H225 H 0.39478 0.40648 0.25734 0.0
C226 C 0.31404 0.32115 0.21354 0.0
C227 C 0.35603 0.306 0.25544 0.0
C228 C 0.40942 0.34288 0.29086 0.0
C229 C 0.45128 0.3287 0.33038 0.0
C230 C 0.50788 0.36533 0.36294 0.0
C231 C 0.52018 0.41513 0.3583 0.0
C232 C 0.47828 0.4293 0.32048 0.0
C233 C 0.42424 0.39363 0.28673 0.0
H234 H 0.50579 0.7273 0.07326 0.0
C235 C 0.50407 0.76955 0.08021 0.0
H236 H 0.46047 0.84252 0.12887 0.0
H237 H 0.22493 0.70018 0.2305 0.0
H238 H 0.146 0.67727 0.15087 0.0
H239 H 0.1977 0.70029 0.07561 0.0
H240 H 0.32856 0.74729 0.08 0.0
C241 C 0.45989 0.80005 0.12041 0.0
C242 C 0.43218 0.78075 0.16331 0.0
C243 C 0.35756 0.75156 0.15957 0.0
C244 C 0.32886 0.7373 0.20274 0.0
C245 C 0.25142 0.71069 0.19865 0.0
C246 C 0.20503 0.69755 0.15318 0.0
C247 C 0.23405 0.7106 0.11084 0.0
C248 C 0.30926 0.73746 0.11383 0.0
H249 H 0.34811 0.80961 0.34977 0.0
C250 C 0.33174 0.76822 0.341 0.0
H251 H 0.32894 0.69284 0.285 0.0
H252 H 0.57704 0.83838 0.18401 0.0
H253 H 0.65657 0.86163 0.26345 0.0
H254 H 0.61378 0.83018 0.33533 0.0
H255 H 0.4903 0.77643 0.32866 0.0
C256 C 0.34598 0.7341 0.29338 0.0
C257 C 0.37637 0.75084 0.24917 0.0
C258 C 0.45256 0.77881 0.25226 0.0
C259 C 0.47917 0.795 0.20984 0.0
C260 C 0.55359 0.82498 0.21488 0.0
C261 C 0.6002 0.83848 0.26022 0.0
C262 C 0.5759 0.82099 0.30079 0.0
C263 C 0.504 0.79065 0.29667 0.0
H264 H 0.57611 0.78261 0.84984 0.0
C265 C 0.62944 0.75738 0.83756 0.0
H266 H 0.70301 0.71342 0.77516 0.0
H267 H 0.45588 0.65972 0.59109 0.0
H268 H 0.48025 0.57394 0.59974 0.0
H269 H 0.5592 0.56505 0.67357 0.0
H270 H 0.61211 0.64204 0.74037 0.0
C271 C 0.64925 0.73841 0.78688 0.0
C272 C 0.59665 0.74509 0.74434 0.0
C273 C 0.56579 0.69953 0.70546 0.0
C274 C 0.5196 0.70452 0.66286 0.0
C275 C 0.49031 0.65829 0.62458 0.0
C276 C 0.5044 0.6087 0.62879 0.0
C277 C 0.54864 0.60374 0.6705 0.0
C278 C 0.57904 0.64839 0.70848 0.0
H279 H 0.53634 0.79909 0.58406 0.0
C280 C 0.47366 0.78327 0.58199 0.0
H281 H 0.38505 0.7463 0.61618 0.0
H282 H 0.65381 0.84068 0.80828 0.0
H283 H 0.6183 0.92654 0.80408 0.0
H284 H 0.52468 0.93538 0.73609 0.0
H285 H 0.46874 0.85844 0.67095 0.0
C286 C 0.44906 0.7596 0.61646 0.0
C287 C 0.50302 0.75501 0.65927 0.0
C288 C 0.53117 0.80073 0.69918 0.0
C289 C 0.58046 0.79571 0.74067 0.0
C290 C 0.61291 0.84196 0.77745 0.0
C291 C 0.59336 0.89166 0.77536 0.0
C292 C 0.54103 0.89663 0.73694 0.0
C293 C 0.50997 0.85192 0.69934 0.0
H294 H 0.62709 0.24798 0.65123 0.0
C295 C 0.63959 0.28991 0.66039 0.0
H296 H 0.63469 0.36502 0.71667 0.0
H297 H 0.3923 0.21413 0.8138 0.0
H298 H 0.31548 0.18956 0.73334 0.0
H299 H 0.35964 0.22096 0.66169 0.0
H300 H 0.48151 0.27628 0.66975 0.0
C301 C 0.6215 0.32319 0.70782 0.0
C302 C 0.59142 0.30518 0.75136 0.0
C303 C 0.51693 0.27526 0.74701 0.0
C304 C 0.48986 0.25864 0.7891 0.0
C305 C 0.41638 0.22763 0.78315 0.0
C306 C 0.37123 0.21339 0.73721 0.0
C307 C 0.39628 0.23088 0.69678 0.0
C308 C 0.46731 0.26215 0.70173 0.0
H309 H 0.46503 0.32735 0.92772 0.0
C310 C 0.4646 0.28497 0.92004 0.0
H311 H 0.50399 0.21162 0.86993 0.0
H312 H 0.73835 0.36082 0.77295 0.0
H313 H 0.8132 0.38659 0.85416 0.0
H314 H 0.76157 0.36164 0.92835 0.0
H315 H 0.63491 0.31001 0.92136 0.0
C316 C 0.50681 0.25416 0.87901 0.0
C317 C 0.53509 0.27383 0.83636 0.0
C318 C 0.60787 0.30503 0.84135 0.0
C319 C 0.63671 0.32015 0.79868 0.0
C320 C 0.71192 0.34937 0.80427 0.0
C321 C 0.75597 0.3642 0.85067 0.0
C322 C 0.72698 0.35009 0.89241 0.0
C323 C 0.65409 0.32059 0.88794 0.0
H324 H 0.87888 0.74885 0.13292 0.0
C325 C 0.83977 0.78326 0.14608 0.0
H326 H 0.78903 0.84107 0.21088 0.0
H327 H 0.82123 0.7122 0.36541 0.0
H328 H 0.68277 0.6834 0.33304 0.0
H329 H 0.62925 0.70084 0.25549 0.0
H330 H 0.71255 0.74905 0.2111 0.0
C331 C 0.8304 0.80789 0.19719 0.0
C332 C 0.86889 0.78875 0.23729 0.0
C333 C 0.81985 0.7603 0.26265 0.0
C334 C 0.85207 0.74833 0.30603 0.0
C335 C 0.80061 0.72116 0.33146 0.0
C336 C 0.72099 0.70449 0.31336 0.0
C337 C 0.69077 0.71443 0.2698 0.0
C338 C 0.73906 0.74235 0.24484 0.0
H339 H -0.00167 0.81801 0.41812 0.0
C340 C 0.00416 0.77558 0.40823 0.0
H341 H 0.97685 0.70127 0.35312 0.0
H342 H 0.98086 0.84039 0.19493 0.0
H343 H 0.12597 0.85716 0.21829 0.0
H344 H 0.18628 0.82895 0.288 0.0
H345 H 0.10191 0.78546 0.33571 0.0
C346 C 0.97082 0.74372 0.36357 0.0
C347 C 0.9346 0.76292 0.32278 0.0
C348 C -0.01406 0.78773 0.29464 0.0
C349 C 0.95224 0.80187 0.25274 0.0
C350 C 0.00378 0.828 0.22638 0.0
C351 C 0.08718 0.83781 0.23934 0.0
C352 C 0.12107 0.82209 0.2787 0.0
C353 C 0.07146 0.7974 0.30614 0.0
H354 H 0.85934 0.31175 0.35945 0.0
C355 C 0.82345 0.27524 0.34823 0.0
H356 H 0.77781 0.21102 0.28582 0.0
H357 H 0.83311 0.37225 0.15235 0.0
H358 H 0.70743 0.41283 0.19501 0.0
H359 H 0.64544 0.38574 0.26543 0.0
H360 H 0.70888 0.31814 0.29387 0.0
C361 C 0.81295 0.24781 0.29764 0.0
C362 C 0.85044 0.26472 0.2556 0.0
C363 C 0.81281 0.30441 0.23962 0.0
C364 C 0.84863 0.31997 0.19897 0.0
C365 C 0.8092 0.35943 0.1835 0.0
C366 C 0.7368 0.38284 0.20746 0.0
C367 C 0.70188 0.36759 0.24711 0.0
C368 C 0.73907 0.32882 0.26314 0.0
H369 H 0.9723 0.25231 0.07338 0.0
C370 C -0.0089 0.29328 0.09075 0.0
H371 H -0.01265 0.36069 0.15727 0.0
H372 H 0.93146 0.18303 0.27293 0.0
H373 H 0.05599 0.14131 0.22999 0.0
H374 H 0.12342 0.17202 0.16326 0.0
H375 H 0.06878 0.24382 0.14 0.0
C376 C 0.96732 0.32 0.1395 0.0
C377 C 0.92233 0.29609 0.17449 0.0
C378 C 0.95896 0.25539 0.18991 0.0
C379 C 0.92153 0.23888 0.22957 0.0
C380 C 0.95774 0.19734 0.24335 0.0
C381 C 0.02934 0.17314 0.21917 0.0
C382 C 0.06736 0.19037 0.18176 0.0
C383 C 0.03395 0.23149 0.16791 0.0
H384 H 0.97823 0.25009 0.58183 0.0
C385 C 0.97058 0.29247 0.59256 0.0
H386 H -0.00247 0.36648 0.64832 0.0
H387 H -0.00686 0.22709 0.80508 0.0
H388 H 0.84682 0.21443 0.78415 0.0
H389 H 0.78681 0.24447 0.71555 0.0
H390 H 0.87256 0.28602 0.66677 0.0
C391 C 0.005 0.32407 0.63691 0.0
C392 C 0.04128 0.30396 0.677 0.0
C393 C -0.01089 0.28063 0.70602 0.0
C394 C 0.02283 0.26545 0.74725 0.0
C395 C 0.97035 0.24051 0.77427 0.0
C396 C 0.88622 0.23294 0.76263 0.0
C397 C 0.85248 0.24971 0.72391 0.0
C398 C 0.90288 0.27326 0.69586 0.0
H399 H 0.09432 0.3149 0.86545 0.0
C400 C 0.13353 0.28054 0.85235 0.0
H401 H 0.18697 0.22381 0.7878 0.0
H402 H 0.15653 0.35079 0.63183 0.0
H403 H 0.29831 0.37416 0.66065 0.0
H404 H 0.35318 0.35446 0.73671 0.0
H405 H 0.2678 0.30939 0.78317 0.0
C406 C 0.145 0.2567 0.80129 0.0
C407 C 0.10734 0.27606 0.76114 0.0
C408 C 0.15788 0.30241 0.7344 0.0
C409 C 0.12524 0.31558 0.69179 0.0
C410 C 0.17775 0.3409 0.66515 0.0
C411 C 0.25922 0.35445 0.68122 0.0
C412 C 0.29021 0.34319 0.72393 0.0
C413 C 0.24065 0.31714 0.75013 0.0
H414 H 0.1042 0.76032 0.64394 0.0
C415 C 0.14681 0.79382 0.65459 0.0
H416 H 0.20625 0.85246 0.71615 0.0
H417 H 0.88047 0.78647 0.83282 0.0
H418 H 0.79929 0.82798 0.78293 0.0
H419 H 0.86471 0.8614 0.7177 0.0
H420 H 0.01221 0.85201 0.70108 0.0
C421 C 0.16128 0.82026 0.70501 0.0
C422 C 0.12256 0.80453 0.74749 0.0
C423 C 0.03691 0.81228 0.75825 0.0
C424 C -8e-05 0.79533 0.79772 0.0
C425 C 0.91309 0.80048 0.80509 0.0
C426 C 0.86529 0.82405 0.77641 0.0
C427 C 0.9021 0.84268 0.73954 0.0
C428 C -0.01319 0.83682 0.73027 0.0
H429 H 0.97678 0.81946 0.92083 0.0
C430 C 0.97149 0.77674 0.90808 0.0
H431 H 0.00424 0.70576 0.85049 0.0
H432 H 0.28961 0.78711 0.73897 0.0
H433 H 0.37335 0.75041 0.79243 0.0
H434 H 0.31018 0.72406 0.86303 0.0
H435 H 0.1626 0.73417 0.88048 0.0
C436 C 0.00984 0.74844 0.86425 0.0
C437 C 0.04965 0.77284 0.82802 0.0
C438 C 0.13596 0.76745 0.81876 0.0
C439 C 0.17247 0.78322 0.77843 0.0
C440 C 0.25871 0.77637 0.76945 0.0
C441 C 0.30752 0.75523 0.79979 0.0
C442 C 0.27193 0.74033 0.83948 0.0
C443 C 0.18719 0.74619 0.84899 0.0
loop_
_geom_bond_atom_site_label_1
_geom_bond_atom_site_label_2
_geom_bond_distance
_geom_bond_site_symmetry_2
_ccdc_geom_bond_type
O0 Mn1 2.153 1_556 S
O0 C14 1.244 . S
Mn1 O0 2.153 1_554 S
Mn1 O4 2.169 . S
Mn1 O5 2.223 . S
Mn1 O7 2.172 . S
Mn1 O9 2.151 1_554 S
Mn1 O19 2.220 1_554 S
O2 Mn3 2.087 . S
O2 C14 1.256 . S
Mn3 O2 2.087 . S
Mn3 O10 2.089 . S
Mn3 O19 2.290 . S
Mn3 O20 2.251 . S
O4 Mn1 2.169 . S
O4 C15 1.239 . S
O5 Mn1 2.223 . S
O5 Mn6 2.290 . S
O5 C16 1.278 . S
Mn6 O5 2.290 . S
Mn6 O8 2.089 . S
Mn6 O11 2.251 . S
Mn6 O12 2.087 . S
O7 Mn1 2.172 . S
O7 C17 1.244 . S
O8 Mn6 2.089 . S
O8 C15 1.256 . S
O9 Mn1 2.151 1_556 S
O9 C18 1.239 . S
O10 Mn3 2.089 . S
O10 C18 1.256 . S
O11 Mn6 2.251 . S
O11 C16 1.241 . S
O12 Mn6 2.087 . S
O12 C17 1.256 . S
C13 O19 1.278 . S
C13 O20 1.241 . S
C14 O0 1.244 . S
C14 O2 1.256 . S
C15 O4 1.239 . S
C15 O8 1.256 . S
C16 O5 1.278 . S
C16 O11 1.241 . S
C17 O7 1.244 . S
C17 O12 1.256 . S
C18 O9 1.239 . S
C18 O10 1.256 . S
O19 Mn1 2.220 1_556 S
O19 Mn3 2.290 . S
O19 C13 1.278 . S
O20 Mn3 2.251 . S
O20 C13 1.241 . S
O21 Mn22 2.153 1_556 S
O21 C35 1.244 . S
Mn22 O21 2.153 1_554 S
Mn22 O25 2.169 . S
Mn22 O26 2.223 . S
Mn22 O28 2.172 . S
Mn22 O30 2.151 1_554 S
Mn22 O40 2.220 1_554 S
O23 Mn24 2.087 . S
O23 C35 1.256 . S
Mn24 O23 2.087 . S
Mn24 O31 2.089 . S
Mn24 O40 2.290 . S
Mn24 O41 2.251 . S
O25 Mn22 2.169 . S
O25 C36 1.239 . S
O26 Mn22 2.223 . S
O26 Mn27 2.290 . S
O26 C37 1.278 . S
Mn27 O26 2.290 . S
Mn27 O29 2.089 . S
Mn27 O32 2.251 . S
Mn27 O33 2.087 . S
O28 Mn22 2.172 . S
O28 C38 1.244 . S
O29 Mn27 2.089 . S
O29 C36 1.256 . S
O30 Mn22 2.151 1_556 S
O30 C39 1.239 . S
O31 Mn24 2.089 . S
O31 C39 1.256 . S
O32 Mn27 2.251 . S
O32 C37 1.241 . S
O33 Mn27 2.087 . S
O33 C38 1.256 . S
C34 O40 1.278 . S
C34 O41 1.241 . S
C35 O21 1.244 . S
C35 O23 1.256 . S
C36 O25 1.239 . S
C36 O29 1.256 . S
C37 O26 1.278 . S
C37 O32 1.241 . S
C38 O28 1.244 . S
C38 O33 1.256 . S
C39 O30 1.239 . S
C39 O31 1.256 . S
O40 Mn22 2.220 1_556 S
O40 Mn24 2.290 . S
O40 C34 1.278 . S
O41 Mn24 2.251 . S
O41 C34 1.241 . S
O42 Mn43 2.163 . S
O42 C56 1.244 . S
Mn43 O42 2.163 . S
Mn43 O46 2.160 . S
Mn43 O47 2.221 . S
Mn43 O49 2.163 . S
Mn43 O51 2.160 . S
Mn43 O61 2.221 . S
O44 Mn45 2.087 . S
O44 C56 1.256 . S
Mn45 O44 2.087 . S
Mn45 O52 2.089 . S
Mn45 O61 2.290 . S
Mn45 O62 2.251 . S
O46 Mn43 2.160 . S
O46 C57 1.239 . S
O47 Mn43 2.221 . S
O47 Mn48 2.290 . S
O47 C58 1.278 . S
Mn48 O47 2.290 . S
Mn48 O50 2.089 . S
Mn48 O53 2.251 . S
Mn48 O54 2.087 . S
O49 Mn43 2.163 . S
O49 C59 1.244 . S
O50 Mn48 2.089 . S
O50 C57 1.256 . S
O51 Mn43 2.160 . S
O51 C60 1.239 . S
O52 Mn45 2.089 . S
O52 C60 1.256 . S
O53 Mn48 2.251 . S
O53 C58 1.241 . S
O54 Mn48 2.087 . S
O54 C59 1.256 . S
C55 O61 1.278 . S
C55 O62 1.241 . S
C56 O42 1.244 . S
C56 O44 1.256 . S
C57 O46 1.239 . S
C57 O50 1.256 . S
C58 O47 1.278 . S
C58 O53 1.241 . S
C59 O49 1.244 . S
C59 O54 1.256 . S
C60 O51 1.239 . S
C60 O52 1.256 . S
O61 Mn43 2.221 . S
O61 Mn45 2.290 . S
O61 C55 1.278 . S
O62 Mn45 2.251 . S
O62 C55 1.241 . S
O63 Mn64 2.163 . S
O63 C77 1.244 . S
Mn64 O63 2.163 . S
Mn64 O67 2.160 . S
Mn64 O68 2.221 . S
Mn64 O70 2.163 . S
Mn64 O72 2.160 . S
Mn64 O82 2.221 . S
O65 Mn66 2.087 . S
O65 C77 1.256 . S
Mn66 O65 2.087 . S
Mn66 O73 2.089 . S
Mn66 O82 2.290 . S
Mn66 O83 2.251 . S
O67 Mn64 2.160 . S
O67 C78 1.239 . S
O68 Mn64 2.221 . S
O68 Mn69 2.290 . S
O68 C79 1.278 . S
Mn69 O68 2.290 . S
Mn69 O71 2.089 . S
Mn69 O74 2.251 . S
Mn69 O75 2.087 . S
O70 Mn64 2.163 . S
O70 C80 1.244 . S
O71 Mn69 2.089 . S
O71 C78 1.256 . S
O72 Mn64 2.160 . S
O72 C81 1.239 . S
O73 Mn66 2.089 . S
O73 C81 1.256 . S
O74 Mn69 2.251 . S
O74 C79 1.241 . S
O75 Mn69 2.087 . S
O75 C80 1.256 . S
C76 O82 1.278 . S
C76 O83 1.241 . S
C77 O63 1.244 . S
C77 O65 1.256 . S
C78 O67 1.239 . S
C78 O71 1.256 . S
C79 O68 1.278 . S
C79 O74 1.241 . S
C80 O70 1.244 . S
C80 O75 1.256 . S
C81 O72 1.239 . S
C81 O73 1.256 . S
O82 Mn64 2.221 . S
O82 Mn66 2.290 . S
O82 C76 1.278 . S
O83 Mn66 2.251 . S
O83 C76 1.241 . S
H84 C85 0.951 . S
C85 H84 0.951 . S
C85 C91 1.265 1_556 S
H86 C91 0.950 . S
H87 C95 0.949 . S
H88 C96 0.950 . S
H89 C97 0.951 . S
H90 C98 0.951 . S
C91 C85 1.265 1_554 S
C91 H86 0.950 . S
C91 C92 1.478 . S
C92 C91 1.478 . S
C92 C93 1.397 . S
C92 C109 1.394 1_554 S
C93 C92 1.397 . S
C93 C94 1.438 . S
C93 C98 1.429 . S
C94 C93 1.438 . S
C94 C95 1.428 . S
C94 C107 1.394 1_554 S
C95 H87 0.949 . S
C95 C94 1.428 . S
C95 C96 1.345 . S
C96 H88 0.950 . S
C96 C95 1.345 . S
C96 C97 1.424 . S
C97 H89 0.951 . S
C97 C96 1.424 . S
C97 C98 1.347 . S
C98 H90 0.951 . S
C98 C93 1.429 . S
C98 C97 1.347 . S
H99 C100 0.951 . S
C100 H99 0.951 . S
C100 C106 1.265 1_554 S
H101 C106 0.950 . S
H102 C110 0.949 . S
H103 C111 0.950 . S
H104 C112 0.951 . S
H105 C113 0.951 . S
C106 C100 1.265 1_556 S
C106 H101 0.950 . S
C106 C107 1.478 . S
C107 C94 1.394 1_556 S
C107 C106 1.478 . S
C107 C108 1.397 . S
C108 C107 1.397 . S
C108 C109 1.438 . S
C108 C113 1.429 . S
C109 C92 1.394 1_556 S
C109 C108 1.438 . S
C109 C110 1.428 . S
C110 H102 0.949 . S
C110 C109 1.428 . S
C110 C111 1.345 . S
C111 H103 0.950 . S
C111 C110 1.345 . S
C111 C112 1.424 . S
C112 H104 0.951 . S
C112 C111 1.424 . S
C112 C113 1.347 . S
C113 H105 0.951 . S
C113 C108 1.429 . S
C113 C112 1.347 . S
H114 C115 0.951 . S
C115 H114 0.951 . S
C115 C121 1.265 . S
H116 C121 0.950 . S
H117 C125 0.949 . S
H118 C126 0.950 . S
H119 C127 0.951 . S
H120 C128 0.951 . S
C121 C115 1.265 . S
C121 H116 0.950 . S
C121 C122 1.478 . S
C122 C121 1.478 . S
C122 C123 1.397 . S
C122 C139 1.394 . S
C123 C122 1.397 . S
C123 C124 1.438 . S
C123 C128 1.429 . S
C124 C123 1.438 . S
C124 C125 1.428 . S
C124 C137 1.394 . S
C125 H117 0.949 . S
C125 C124 1.428 . S
C125 C126 1.345 . S
C126 H118 0.950 . S
C126 C125 1.345 . S
C126 C127 1.424 . S
C127 H119 0.951 . S
C127 C126 1.424 . S
C127 C128 1.347 . S
C128 H120 0.951 . S
C128 C123 1.429 . S
C128 C127 1.347 . S
H129 C130 0.951 . S
C130 H129 0.951 . S
C130 C136 1.265 . S
H131 C136 0.950 . S
H132 C140 0.949 . S
H133 C141 0.950 . S
H134 C142 0.951 . S
H135 C143 0.951 . S
C136 C130 1.265 . S
C136 H131 0.950 . S
C136 C137 1.478 . S
C137 C124 1.394 . S
C137 C136 1.478 . S
C137 C138 1.397 . S
C138 C137 1.397 . S
C138 C139 1.438 . S
C138 C143 1.429 . S
C139 C122 1.394 . S
C139 C138 1.438 . S
C139 C140 1.428 . S
C140 H132 0.949 . S
C140 C139 1.428 . S
C140 C141 1.345 . S
C141 H133 0.950 . S
C141 C140 1.345 . S
C141 C142 1.424 . S
C142 H134 0.951 . S
C142 C141 1.424 . S
C142 C143 1.347 . S
C143 H135 0.951 . S
C143 C138 1.429 . S
C143 C142 1.347 . S
H144 C145 0.951 . S
C145 H144 0.951 . S
C145 C151 1.266 1_554 S
H146 C151 0.949 . S
H147 C155 0.949 . S
H148 C156 0.950 . S
H149 C157 0.951 1_545 S
H150 C158 0.951 . S
C151 C145 1.266 1_556 S
C151 H146 0.949 . S
C151 C152 1.475 1_556 S
C152 C151 1.475 1_554 S
C152 C153 1.406 . S
C152 C169 1.386 1_454 S
C153 C152 1.406 . S
C153 C154 1.438 1_445 S
C153 C158 1.429 . S
C154 C153 1.438 1_665 S
C154 C155 1.428 . S
C154 C167 1.394 . S
C155 H147 0.949 . S
C155 C154 1.428 . S
C155 C156 1.345 1_655 S
C156 H148 0.950 . S
C156 C155 1.345 1_455 S
C156 C157 1.424 . S
C157 H149 0.951 1_565 S
C157 C156 1.424 . S
C157 C158 1.347 1_565 S
C158 H150 0.951 . S
C158 C153 1.429 . S
C158 C157 1.347 1_545 S
H159 C160 0.951 1_556 S
C160 H159 0.951 1_554 S
C160 C166 1.265 . S
H161 C166 0.950 . S
H162 C170 0.949 1_455 S
H163 C171 0.950 . S
H164 C172 0.951 . S
H165 C173 0.951 . S
C166 C160 1.265 . S
C166 H161 0.950 . S
C166 C167 1.478 . S
C167 C154 1.394 . S
C167 C166 1.478 . S
C167 C168 1.397 1_554 S
C168 C167 1.397 1_556 S
C168 C169 1.438 1_565 S
C168 C173 1.429 . S
C169 C152 1.386 1_656 S
C169 C168 1.438 1_545 S
C169 C170 1.428 . S
C170 H162 0.949 1_655 S
C170 C169 1.428 . S
C170 C171 1.345 . S
C171 H163 0.950 . S
C171 C170 1.345 . S
C171 C172 1.424 . S
C172 H164 0.951 . S
C172 C171 1.424 . S
C172 C173 1.347 1_545 S
C173 H165 0.951 . S
C173 C168 1.429 . S
C173 C172 1.347 1_565 S
H174 C175 0.951 . S
C175 H174 0.951 . S
C175 C181 1.265 . S
H176 C181 0.950 . S
H177 C185 0.949 . S
H178 C186 0.950 . S
H179 C187 0.951 . S
H180 C188 0.951 . S
C181 C175 1.265 . S
C181 H176 0.950 . S
C181 C182 1.478 . S
C182 C181 1.478 . S
C182 C183 1.397 . S
C182 C199 1.394 . S
C183 C182 1.397 . S
C183 C184 1.438 1_645 S
C183 C188 1.429 . S
C184 C183 1.438 1_465 S
C184 C185 1.428 . S
C184 C197 1.394 . S
C185 H177 0.949 . S
C185 C184 1.428 . S
C185 C186 1.345 1_565 S
C186 H178 0.950 . S
C186 C185 1.345 1_545 S
C186 C187 1.424 . S
C187 H179 0.951 . S
C187 C186 1.424 . S
C187 C188 1.347 1_455 S
C188 H180 0.951 . S
C188 C183 1.429 . S
C188 C187 1.347 1_655 S
H189 C190 0.951 . S
C190 H189 0.951 . S
C190 C196 1.265 . S
H191 C196 0.950 . S
H192 C200 0.949 . S
H193 C201 0.950 . S
H194 C202 0.951 . S
H195 C203 0.951 . S
C196 C190 1.265 . S
C196 H191 0.950 . S
C196 C197 1.478 . S
C197 C184 1.394 . S
C197 C196 1.478 . S
C197 C198 1.397 1_455 S
C198 C197 1.397 1_655 S
C198 C199 1.438 1_565 S
C198 C203 1.429 . S
C199 C182 1.394 . S
C199 C198 1.438 1_545 S
C199 C200 1.428 . S
C200 H192 0.949 . S
C200 C199 1.428 . S
C200 C201 1.345 1_545 S
C201 H193 0.950 . S
C201 C200 1.345 1_565 S
C201 C202 1.424 . S
C202 H194 0.951 . S
C202 C201 1.424 . S
C202 C203 1.347 . S
C203 H195 0.951 . S
C203 C198 1.429 . S
C203 C202 1.347 . S
H204 C205 0.951 . S
C205 H204 0.951 . S
C205 C211 1.265 . S
H206 C211 0.950 . S
H207 C215 0.949 . S
H208 C216 0.950 . S
H209 C217 0.951 . S
H210 C218 0.951 . S
C211 C205 1.265 . S
C211 H206 0.950 . S
C211 C212 1.478 . S
C212 C211 1.478 . S
C212 C213 1.397 . S
C212 C229 1.394 . S
C213 C212 1.397 . S
C213 C214 1.438 . S
C213 C218 1.429 . S
C214 C213 1.438 . S
C214 C215 1.428 . S
C214 C227 1.394 . S
C215 H207 0.949 . S
C215 C214 1.428 . S
C215 C216 1.345 . S
C216 H208 0.950 . S
C216 C215 1.345 . S
C216 C217 1.424 . S
C217 H209 0.951 . S
C217 C216 1.424 . S
C217 C218 1.347 . S
C218 H210 0.951 . S
C218 C213 1.429 . S
C218 C217 1.347 . S
H219 C220 0.951 . S
C220 H219 0.951 . S
C220 C226 1.265 . S
H221 C226 0.950 . S
H222 C230 0.949 . S
H223 C231 0.950 . S
H224 C232 0.951 . S
H225 C233 0.951 . S
C226 C220 1.265 . S
C226 H221 0.950 . S
C226 C227 1.478 . S
C227 C214 1.394 . S
C227 C226 1.478 . S
C227 C228 1.397 . S
C228 C227 1.397 . S
C228 C229 1.438 . S
C228 C233 1.429 . S
C229 C212 1.394 . S
C229 C228 1.438 . S
C229 C230 1.428 . S
C230 H222 0.949 . S
C230 C229 1.428 . S
C230 C231 1.345 . S
C231 H223 0.950 . S
C231 C230 1.345 . S
C231 C232 1.424 . S
C232 H224 0.951 . S
C232 C231 1.424 . S
C232 C233 1.347 . S
C233 H225 0.951 . S
C233 C228 1.429 . S
C233 C232 1.347 . S
H234 C235 0.951 . S
C235 H234 0.951 . S
C235 C241 1.265 . S
H236 C241 0.950 . S
H237 C245 0.949 . S
H238 C246 0.950 . S
H239 C247 0.951 . S
H240 C248 0.951 . S
C241 C235 1.265 . S
C241 H236 0.950 . S
C241 C242 1.478 . S
C242 C241 1.478 . S
C242 C243 1.397 . S
C242 C259 1.394 . S
C243 C242 1.397 . S
C243 C244 1.438 . S
C243 C248 1.429 . S
C244 C243 1.438 . S
C244 C245 1.428 . S
C244 C257 1.394 . S
C245 H237 0.949 . S
C245 C244 1.428 . S
C245 C246 1.345 . S
C246 H238 0.950 . S
C246 C245 1.345 . S
C246 C247 1.424 . S
C247 H239 0.951 . S
C247 C246 1.424 . S
C247 C248 1.347 . S
C248 H240 0.951 . S
C248 C243 1.429 . S
C248 C247 1.347 . S
H249 C250 0.951 . S
C250 H249 0.951 . S
C250 C256 1.265 . S
H251 C256 0.950 . S
H252 C260 0.949 . S
H253 C261 0.950 . S
H254 C262 0.951 . S
H255 C263 0.951 . S
C256 C250 1.265 . S
C256 H251 0.950 . S
C256 C257 1.478 . S
C257 C244 1.394 . S
C257 C256 1.478 . S
C257 C258 1.397 . S
C258 C257 1.397 . S
C258 C259 1.438 . S
C258 C263 1.429 . S
C259 C242 1.394 . S
C259 C258 1.438 . S
C259 C260 1.428 . S
C260 H252 0.949 . S
C260 C259 1.428 . S
C260 C261 1.345 . S
C261 H253 0.950 . S
C261 C260 1.345 . S
C261 C262 1.424 . S
C262 H254 0.951 . S
C262 C261 1.424 . S
C262 C263 1.347 . S
C263 H255 0.951 . S
C263 C258 1.429 . S
C263 C262 1.347 . S
H264 C265 0.951 . S
C265 H264 0.951 . S
C265 C271 1.265 . S
H266 C271 0.950 . S
H267 C275 0.949 . S
H268 C276 0.950 . S
H269 C277 0.951 . S
H270 C278 0.951 . S
C271 C265 1.265 . S
C271 H266 0.950 . S
C271 C272 1.478 . S
C272 C271 1.478 . S
C272 C273 1.397 . S
C272 C289 1.394 . S
C273 C272 1.397 . S
C273 C274 1.438 . S
C273 C278 1.429 . S
C274 C273 1.438 . S
C274 C275 1.428 . S
C274 C287 1.394 . S
C275 H267 0.949 . S
C275 C274 1.428 . S
C275 C276 1.345 . S
C276 H268 0.950 . S
C276 C275 1.345 . S
C276 C277 1.424 . S
C277 H269 0.951 . S
C277 C276 1.424 . S
C277 C278 1.347 . S
C278 H270 0.951 . S
C278 C273 1.429 . S
C278 C277 1.347 . S
H279 C280 0.951 . S
C280 H279 0.951 . S
C280 C286 1.265 . S
H281 C286 0.950 . S
H282 C290 0.949 . S
H283 C291 0.950 . S
H284 C292 0.951 . S
H285 C293 0.951 . S
C286 C280 1.265 . S
C286 H281 0.950 . S
C286 C287 1.478 . S
C287 C274 1.394 . S
C287 C286 1.478 . S
C287 C288 1.397 . S
C288 C287 1.397 . S
C288 C289 1.438 . S
C288 C293 1.429 . S
C289 C272 1.394 . S
C289 C288 1.438 . S
C289 C290 1.428 . S
C290 H282 0.949 . S
C290 C289 1.428 . S
C290 C291 1.345 . S
C291 H283 0.950 . S
C291 C290 1.345 . S
C291 C292 1.424 . S
C292 H284 0.951 . S
C292 C291 1.424 . S
C292 C293 1.347 . S
C293 H285 0.951 . S
C293 C288 1.429 . S
C293 C292 1.347 . S
H294 C295 0.951 . S
C295 H294 0.951 . S
C295 C301 1.265 . S
H296 C301 0.950 . S
H297 C305 0.949 . S
H298 C306 0.950 . S
H299 C307 0.951 . S
H300 C308 0.951 . S
C301 C295 1.265 . S
C301 H296 0.950 . S
C301 C302 1.478 . S
C302 C301 1.478 . S
C302 C303 1.397 . S
C302 C319 1.394 . S
C303 C302 1.397 . S
C303 C304 1.438 . S
C303 C308 1.429 . S
C304 C303 1.438 . S
C304 C305 1.428 . S
C304 C317 1.394 . S
C305 H297 0.949 . S
C305 C304 1.428 . S
C305 C306 1.345 . S
C306 H298 0.950 . S
C306 C305 1.345 . S
C306 C307 1.424 . S
C307 H299 0.951 . S
C307 C306 1.424 . S
C307 C308 1.347 . S
C308 H300 0.951 . S
C308 C303 1.429 . S
C308 C307 1.347 . S
H309 C310 0.951 . S
C310 H309 0.951 . S
C310 C316 1.265 . S
H311 C316 0.950 . S
H312 C320 0.949 . S
H313 C321 0.950 . S
H314 C322 0.951 . S
H315 C323 0.951 . S
C316 C310 1.265 . S
C316 H311 0.950 . S
C316 C317 1.478 . S
C317 C304 1.394 . S
C317 C316 1.478 . S
C317 C318 1.397 . S
C318 C317 1.397 . S
C318 C319 1.438 . S
C318 C323 1.429 . S
C319 C302 1.394 . S
C319 C318 1.438 . S
C319 C320 1.428 . S
C320 H312 0.949 . S
C320 C319 1.428 . S
C320 C321 1.345 . S
C321 H313 0.950 . S
C321 C320 1.345 . S
C321 C322 1.424 . S
C322 H314 0.951 . S
C322 C321 1.424 . S
C322 C323 1.347 . S
C323 H315 0.951 . S
C323 C318 1.429 . S
C323 C322 1.347 . S
H324 C325 0.951 . S
C325 H324 0.951 . S
C325 C331 1.265 . S
H326 C331 0.950 . S
H327 C335 0.949 . S
H328 C336 0.950 . S
H329 C337 0.951 . S
H330 C338 0.951 . S
C331 C325 1.265 . S
C331 H326 0.950 . S
C331 C332 1.478 . S
C332 C331 1.478 . S
C332 C333 1.397 . S
C332 C349 1.394 1_655 S
C333 C332 1.397 . S
C333 C334 1.438 1_655 S
C333 C338 1.429 . S
C334 C333 1.438 1_455 S
C334 C335 1.428 . S
C334 C347 1.394 . S
C335 H327 0.949 . S
C335 C334 1.428 . S
C335 C336 1.345 1_455 S
C336 H328 0.950 . S
C336 C335 1.345 1_655 S
C336 C337 1.424 . S
C337 H329 0.951 . S
C337 C336 1.424 . S
C337 C338 1.347 . S
C338 H330 0.951 . S
C338 C333 1.429 . S
C338 C337 1.347 . S
H339 C340 0.951 . S
C340 H339 0.951 . S
C340 C346 1.265 . S
H341 C346 0.950 . S
H342 C350 0.949 1_655 S
H343 C351 0.950 . S
H344 C352 0.951 . S
H345 C353 0.951 . S
C346 C340 1.265 . S
C346 H341 0.950 . S
C346 C347 1.478 . S
C347 C334 1.394 . S
C347 C346 1.478 . S
C347 C348 1.397 . S
C348 C347 1.397 . S
C348 C349 1.438 . S
C348 C353 1.429 . S
C349 C332 1.394 1_455 S
C349 C348 1.438 . S
C349 C350 1.428 . S
C350 H342 0.949 1_455 S
C350 C349 1.428 . S
C350 C351 1.345 . S
C351 H343 0.950 . S
C351 C350 1.345 . S
C351 C352 1.424 . S
C352 H344 0.951 . S
C352 C351 1.424 . S
C352 C353 1.347 . S
C353 H345 0.951 . S
C353 C348 1.429 . S
C353 C352 1.347 . S
H354 C355 0.951 . S
C355 H354 0.951 . S
C355 C361 1.265 . S
H356 C361 0.950 . S
H357 C365 0.949 . S
H358 C366 0.950 . S
H359 C367 0.951 . S
H360 C368 0.951 . S
C361 C355 1.265 . S
C361 H356 0.950 . S
C361 C362 1.478 . S
C362 C361 1.478 . S
C362 C363 1.397 . S
C362 C379 1.389 1_655 S
C363 C362 1.397 . S
C363 C364 1.438 1_655 S
C363 C368 1.429 . S
C364 C363 1.438 1_455 S
C364 C365 1.428 . S
C364 C377 1.394 . S
C365 H357 0.949 . S
C365 C364 1.428 . S
C365 C366 1.345 1_455 S
C366 H358 0.950 . S
C366 C365 1.345 1_655 S
C366 C367 1.424 . S
C367 H359 0.951 . S
C367 C366 1.424 . S
C367 C368 1.347 . S
C368 H360 0.951 . S
C368 C363 1.429 . S
C368 C367 1.347 . S
H369 C370 0.951 . S
C370 H369 0.951 . S
C370 C376 1.265 . S
H371 C376 0.950 . S
H372 C380 0.949 . S
H373 C381 0.950 . S
H374 C382 0.951 . S
H375 C383 0.951 . S
C376 C370 1.265 . S
C376 H371 0.950 . S
C376 C377 1.478 . S
C377 C364 1.394 . S
C377 C376 1.478 . S
C377 C378 1.397 . S
C378 C377 1.397 . S
C378 C379 1.443 . S
C378 C383 1.429 . S
C379 C362 1.389 1_455 S
C379 C378 1.443 . S
C379 C380 1.427 1_455 S
C380 H372 0.949 . S
C380 C379 1.427 1_655 S
C380 C381 1.345 1_655 S
C381 H373 0.950 . S
C381 C380 1.345 1_455 S
C381 C382 1.424 . S
C382 H374 0.951 . S
C382 C381 1.424 . S
C382 C383 1.347 . S
C383 H375 0.951 . S
C383 C378 1.429 . S
C383 C382 1.347 . S
H384 C385 0.951 . S
C385 H384 0.951 . S
C385 C391 1.265 . S
H386 C391 0.950 1_455 S
H387 C395 0.949 . S
H388 C396 0.950 . S
H389 C397 0.951 . S
H390 C398 0.951 . S
C391 C385 1.265 . S
C391 H386 0.950 1_655 S
C391 C392 1.478 . S
C392 C391 1.478 . S
C392 C393 1.397 . S
C392 C409 1.394 1_655 S
C393 C392 1.397 . S
C393 C394 1.438 1_655 S
C393 C398 1.429 . S
C394 C393 1.438 1_455 S
C394 C395 1.428 . S
C394 C407 1.394 . S
C395 H387 0.949 . S
C395 C394 1.428 . S
C395 C396 1.345 1_455 S
C396 H388 0.950 . S
C396 C395 1.345 1_655 S
C396 C397 1.424 . S
C397 H389 0.951 . S
C397 C396 1.424 . S
C397 C398 1.347 . S
C398 H390 0.951 . S
C398 C393 1.429 . S
C398 C397 1.347 . S
H399 C400 0.951 . S
C400 H399 0.951 . S
C400 C406 1.265 . S
H401 C406 0.950 . S
H402 C410 0.949 . S
H403 C411 0.950 . S
H404 C412 0.951 . S
H405 C413 0.951 . S
C406 C400 1.265 . S
C406 H401 0.950 . S
C406 C407 1.478 . S
C407 C394 1.394 . S
C407 C406 1.478 . S
C407 C408 1.397 . S
C408 C407 1.397 . S
C408 C409 1.438 . S
C408 C413 1.429 . S
C409 C392 1.394 1_455 S
C409 C408 1.438 . S
C409 C410 1.428 . S
C410 H402 0.949 . S
C410 C409 1.428 . S
C410 C411 1.345 . S
C411 H403 0.950 . S
C411 C410 1.345 . S
C411 C412 1.424 . S
C412 H404 0.951 . S
C412 C411 1.424 . S
C412 C413 1.347 . S
C413 H405 0.951 . S
C413 C408 1.429 . S
C413 C412 1.347 . S
H414 C415 0.951 . S
C415 H414 0.951 . S
C415 C421 1.265 . S
H416 C421 0.950 . S
H417 C425 0.949 . S
H418 C426 0.950 . S
H419 C427 0.951 . S
H420 C428 0.951 . S
C421 C415 1.265 . S
C421 H416 0.950 . S
C421 C422 1.478 . S
C422 C421 1.478 . S
C422 C423 1.397 . S
C422 C439 1.394 . S
C423 C422 1.397 . S
C423 C424 1.438 . S
C423 C428 1.429 . S
C424 C423 1.438 . S
C424 C425 1.428 1_455 S
C424 C437 1.394 1_455 S
C425 H417 0.949 . S
C425 C424 1.428 1_655 S
C425 C426 1.345 1_655 S
C426 H418 0.950 . S
C426 C425 1.345 1_455 S
C426 C427 1.424 . S
C427 H419 0.951 . S
C427 C426 1.424 . S
C427 C428 1.347 . S
C428 H420 0.951 . S
C428 C423 1.429 . S
C428 C427 1.347 . S
H429 C430 0.951 . S
C430 H429 0.951 . S
C430 C436 1.265 . S
H431 C436 0.950 . S
H432 C440 0.949 . S
H433 C441 0.950 . S
H434 C442 0.951 . S
H435 C443 0.951 . S
C436 C430 1.265 . S
C436 H431 0.950 . S
C436 C437 1.478 . S
C437 C424 1.394 1_655 S
C437 C436 1.478 . S
C437 C438 1.397 . S
C438 C437 1.397 . S
C438 C439 1.438 1_655 S
C438 C443 1.429 . S
C439 C422 1.394 . S
C439 C438 1.438 1_455 S
C439 C440 1.428 . S
C440 H432 0.949 . S
C440 C439 1.428 . S
C440 C441 1.345 1_455 S
C441 H433 0.950 . S
C441 C440 1.345 1_655 S
C441 C442 1.424 . S
C442 H434 0.951 . S
C442 C441 1.424 . S
C442 C443 1.347 . S
C443 H435 0.951 . S
C443 C438 1.429 . S
C443 C442 1.347 . S
C85 C34 1.310 . S
C100 C16 1.306 . S
C115 C58 1.411 . S
C130 C76 1.413 . S
C145 C13 1.385 1_554 S
C160 C37 1.380 . S
C175 C79 1.406 . S
C190 C55 1.408 . S
C205 C80 1.029 . S
C220 C15 1.002 . S
C235 C38 0.892 . S
C250 C57 0.880 . S
C265 C35 0.867 . S
C280 C60 0.934 . S
C295 C77 0.944 . S
C310 C18 0.885 . S
C325 C36 0.986 . S
C340 C59 1.023 . S
C355 C78 0.977 . S
C370 C17 1.020 . S
C385 C81 0.915 . S
C400 C14 0.996 . S
C415 C56 0.992 . S
C430 C39 1.045 . S
