# Generated by pormake.
# Topology uox, (4)-cn, num edge types: 1
# Building blocks:
#     Node 0, Type 0, BuildingBlock: ICAMEG_clean_sbu_1, # of connection points: 4
#     Node 1, Type 0, BuildingBlock: ICAMEG_clean_sbu_1, # of connection points: 4
#     Node 2, Type 0, BuildingBlock: ICAMEG_clean_sbu_1, # of connection points: 4
#     Node 3, Type 0, BuildingBlock: ICAMEG_clean_sbu_1, # of connection points: 4
#     Node 4, Type 0, BuildingBlock: ICAMEG_clean_sbu_1, # of connection points: 4
#     Node 5, Type 0, BuildingBlock: ICAMEG_clean_sbu_1, # of connection points: 4
#     Node 6, Type 0, BuildingBlock: ICAMEG_clean_sbu_1, # of connection points: 4
#     Node 7, Type 0, BuildingBlock: ICAMEG_clean_sbu_1, # of connection points: 4
#     Node 8, Type 0, BuildingBlock: ICAMEG_clean_sbu_1, # of connection points: 4
#     Node 9, Type 0, BuildingBlock: ICAMEG_clean_sbu_1, # of connection points: 4
#     Node 10, Type 0, BuildingBlock: ICAMEG_clean_sbu_1, # of connection points: 4
#     Node 11, Type 0, BuildingBlock: ICAMEG_clean_sbu_1, # of connection points: 4
#     Node 12, Type 0, BuildingBlock: ICAMEG_clean_sbu_1, # of connection points: 4
#     Node 13, Type 0, BuildingBlock: ICAMEG_clean_sbu_1, # of connection points: 4
#     Node 14, Type 0, BuildingBlock: ICAMEG_clean_sbu_1, # of connection points: 4
#     Node 15, Type 0, BuildingBlock: ICAMEG_clean_sbu_1, # of connection points: 4
#     Node 16, Type 0, BuildingBlock: ICAMEG_clean_sbu_1, # of connection points: 4
#     Node 17, Type 0, BuildingBlock: ICAMEG_clean_sbu_1, # of connection points: 4
#     Node 18, Type 0, BuildingBlock: ICAMEG_clean_sbu_1, # of connection points: 4
#     Node 19, Type 0, BuildingBlock: ICAMEG_clean_sbu_1, # of connection points: 4
#     Node 20, Type 0, BuildingBlock: ICAMEG_clean_sbu_1, # of connection points: 4
#     Node 21, Type 0, BuildingBlock: ICAMEG_clean_sbu_1, # of connection points: 4
#     Node 22, Type 0, BuildingBlock: ICAMEG_clean_sbu_1, # of connection points: 4
#     Node 23, Type 0, BuildingBlock: ICAMEG_clean_sbu_1, # of connection points: 4
#     Node 24, Type 0, BuildingBlock: ICAMEG_clean_sbu_1, # of connection points: 4
#     Node 25, Type 0, BuildingBlock: ICAMEG_clean_sbu_1, # of connection points: 4
#     Node 26, Type 0, BuildingBlock: ICAMEG_clean_sbu_1, # of connection points: 4
#     Node 27, Type 0, BuildingBlock: ICAMEG_clean_sbu_1, # of connection points: 4
#     Node 28, Type 0, BuildingBlock: ICAMEG_clean_sbu_1, # of connection points: 4
#     Node 29, Type 0, BuildingBlock: ICAMEG_clean_sbu_1, # of connection points: 4
#     Node 30, Type 0, BuildingBlock: ICAMEG_clean_sbu_1, # of connection points: 4
#     Node 31, Type 0, BuildingBlock: ICAMEG_clean_sbu_1, # of connection points: 4
#     Edge 32, Type (0, 0), BuildingBlock: UVAHIK_clean_linker_0, # of connection points: 2
#     Edge 33, Type (0, 0), BuildingBlock: UVAHIK_clean_linker_0, # of connection points: 2
#     Edge 34, Type (0, 0), BuildingBlock: UVAHIK_clean_linker_0, # of connection points: 2
#     Edge 35, Type (0, 0), BuildingBlock: UVAHIK_clean_linker_0, # of connection points: 2
#     Edge 36, Type (0, 0), BuildingBlock: UVAHIK_clean_linker_0, # of connection points: 2
#     Edge 37, Type (0, 0), BuildingBlock: UVAHIK_clean_linker_0, # of connection points: 2
#     Edge 38, Type (0, 0), BuildingBlock: UVAHIK_clean_linker_0, # of connection points: 2
#     Edge 39, Type (0, 0), BuildingBlock: UVAHIK_clean_linker_0, # of connection points: 2
#     Edge 40, Type (0, 0), BuildingBlock: UVAHIK_clean_linker_0, # of connection points: 2
#     Edge 41, Type (0, 0), BuildingBlock: UVAHIK_clean_linker_0, # of connection points: 2
#     Edge 42, Type (0, 0), BuildingBlock: UVAHIK_clean_linker_0, # of connection points: 2
#     Edge 43, Type (0, 0), BuildingBlock: UVAHIK_clean_linker_0, # of connection points: 2
#     Edge 44, Type (0, 0), BuildingBlock: UVAHIK_clean_linker_0, # of connection points: 2
#     Edge 45, Type (0, 0), BuildingBlock: UVAHIK_clean_linker_0, # of connection points: 2
#     Edge 46, Type (0, 0), BuildingBlock: UVAHIK_clean_linker_0, # of connection points: 2
#     Edge 47, Type (0, 0), BuildingBlock: UVAHIK_clean_linker_0, # of connection points: 2
#     Edge 48, Type (0, 0), BuildingBlock: UVAHIK_clean_linker_0, # of connection points: 2
#     Edge 49, Type (0, 0), BuildingBlock: UVAHIK_clean_linker_0, # of connection points: 2
#     Edge 50, Type (0, 0), BuildingBlock: UVAHIK_clean_linker_0, # of connection points: 2
#     Edge 51, Type (0, 0), BuildingBlock: UVAHIK_clean_linker_0, # of connection points: 2
#     Edge 52, Type (0, 0), BuildingBlock: UVAHIK_clean_linker_0, # of connection points: 2
#     Edge 53, Type (0, 0), BuildingBlock: UVAHIK_clean_linker_0, # of connection points: 2
#     Edge 54, Type (0, 0), BuildingBlock: UVAHIK_clean_linker_0, # of connection points: 2
#     Edge 55, Type (0, 0), BuildingBlock: UVAHIK_clean_linker_0, # of connection points: 2
#     Edge 56, Type (0, 0), BuildingBlock: UVAHIK_clean_linker_0, # of connection points: 2
#     Edge 57, Type (0, 0), BuildingBlock: UVAHIK_clean_linker_0, # of connection points: 2
#     Edge 58, Type (0, 0), BuildingBlock: UVAHIK_clean_linker_0, # of connection points: 2
#     Edge 59, Type (0, 0), BuildingBlock: UVAHIK_clean_linker_0, # of connection points: 2
#     Edge 60, Type (0, 0), BuildingBlock: UVAHIK_clean_linker_0, # of connection points: 2
#     Edge 61, Type (0, 0), BuildingBlock: UVAHIK_clean_linker_0, # of connection points: 2
#     Edge 62, Type (0, 0), BuildingBlock: UVAHIK_clean_linker_0, # of connection points: 2
#     Edge 63, Type (0, 0), BuildingBlock: UVAHIK_clean_linker_0, # of connection points: 2
#     Edge 64, Type (0, 0), BuildingBlock: UVAHIK_clean_linker_0, # of connection points: 2
#     Edge 65, Type (0, 0), BuildingBlock: UVAHIK_clean_linker_0, # of connection points: 2
#     Edge 66, Type (0, 0), BuildingBlock: UVAHIK_clean_linker_0, # of connection points: 2
#     Edge 67, Type (0, 0), BuildingBlock: UVAHIK_clean_linker_0, # of connection points: 2
#     Edge 68, Type (0, 0), BuildingBlock: UVAHIK_clean_linker_0, # of connection points: 2
#     Edge 69, Type (0, 0), BuildingBlock: UVAHIK_clean_linker_0, # of connection points: 2
#     Edge 70, Type (0, 0), BuildingBlock: UVAHIK_clean_linker_0, # of connection points: 2
#     Edge 71, Type (0, 0), BuildingBlock: UVAHIK_clean_linker_0, # of connection points: 2
#     Edge 72, Type (0, 0), BuildingBlock: UVAHIK_clean_linker_0, # of connection points: 2
#     Edge 73, Type (0, 0), BuildingBlock: UVAHIK_clean_linker_0, # of connection points: 2
#     Edge 74, Type (0, 0), BuildingBlock: UVAHIK_clean_linker_0, # of connection points: 2
#     Edge 75, Type (0, 0), BuildingBlock: UVAHIK_clean_linker_0, # of connection points: 2
#     Edge 76, Type (0, 0), BuildingBlock: UVAHIK_clean_linker_0, # of connection points: 2
#     Edge 77, Type (0, 0), BuildingBlock: UVAHIK_clean_linker_0, # of connection points: 2
#     Edge 78, Type (0, 0), BuildingBlock: UVAHIK_clean_linker_0, # of connection points: 2
#     Edge 79, Type (0, 0), BuildingBlock: UVAHIK_clean_linker_0, # of connection points: 2
#     Edge 80, Type (0, 0), BuildingBlock: UVAHIK_clean_linker_0, # of connection points: 2
#     Edge 81, Type (0, 0), BuildingBlock: UVAHIK_clean_linker_0, # of connection points: 2
#     Edge 82, Type (0, 0), BuildingBlock: UVAHIK_clean_linker_0, # of connection points: 2
#     Edge 83, Type (0, 0), BuildingBlock: UVAHIK_clean_linker_0, # of connection points: 2
#     Edge 84, Type (0, 0), BuildingBlock: UVAHIK_clean_linker_0, # of connection points: 2
#     Edge 85, Type (0, 0), BuildingBlock: UVAHIK_clean_linker_0, # of connection points: 2
#     Edge 86, Type (0, 0), BuildingBlock: UVAHIK_clean_linker_0, # of connection points: 2
#     Edge 87, Type (0, 0), BuildingBlock: UVAHIK_clean_linker_0, # of connection points: 2
#     Edge 88, Type (0, 0), BuildingBlock: UVAHIK_clean_linker_0, # of connection points: 2
#     Edge 89, Type (0, 0), BuildingBlock: UVAHIK_clean_linker_0, # of connection points: 2
#     Edge 90, Type (0, 0), BuildingBlock: UVAHIK_clean_linker_0, # of connection points: 2
#     Edge 91, Type (0, 0), BuildingBlock: UVAHIK_clean_linker_0, # of connection points: 2
#     Edge 92, Type (0, 0), BuildingBlock: UVAHIK_clean_linker_0, # of connection points: 2
#     Edge 93, Type (0, 0), BuildingBlock: UVAHIK_clean_linker_0, # of connection points: 2
#     Edge 94, Type (0, 0), BuildingBlock: UVAHIK_clean_linker_0, # of connection points: 2
#     Edge 95, Type (0, 0), BuildingBlock: UVAHIK_clean_linker_0, # of connection points: 2
# Relax obj value: 0.069
# Max RMSD: 0.117
# Mean RMSD: 0.117
data_MOF--net-uox--node1-ICAMEG_clean_sbu_1--edge1-UVAHIK_clean_linker_0
_symmetry_space_group_name_H-M    P1
_symmetry_Int_Tables_number       1
_symmetry_cell_setting            triclinic
loop_
_symmetry_equiv_pos_as_xyz
'x, y, z'
_cell_length_a     61.613121
_cell_length_b     61.623617
_cell_length_c     107.1742
_cell_angle_alpha  90.000984
_cell_angle_beta   89.99998
_cell_angle_gamma 89.99411
loop_
_atom_site_label
_atom_site_type_symbol
_atom_site_fract_x
_atom_site_fract_y
_atom_site_fract_z
_atom_type_partial_charge
Co0 Co 0.42669 0.04638 0.14849 0.0
Co1 Co 0.42204 0.07772 0.17518 0.0
O2 O 0.41778 0.05059 0.16591 0.0
C3 C 0.37984 0.03428 0.14789 0.0
O4 O 0.37546 0.05153 0.15463 0.0
C5 C 0.44136 0.04409 0.19196 0.0
O6 O 0.44922 0.03398 0.18218 0.0
O7 O 0.45323 0.07914 0.17017 0.0
O8 O 0.45432 0.06246 0.15153 0.0
H9 H 0.4479 0.15443 0.18079 0.0
H10 H 0.4133 0.00857 0.16372 0.0
O11 O 0.39936 0.02992 0.14489 0.0
H12 H 0.48857 0.99308 0.15087 0.0
H13 H 0.43563 0.00349 0.10881 0.0
H14 H 0.447 0.0743 0.12924 0.0
H15 H 0.47031 0.02666 0.14407 0.0
H16 H 0.42493 0.00906 0.13076 0.0
O17 O 0.43024 0.06135 0.19065 0.0
H18 H 0.44225 0.12018 0.16934 0.0
H19 H 0.41075 0.09274 0.20087 0.0
H20 H 0.45812 0.06938 0.10731 0.0
H21 H 0.43082 0.97463 0.17062 0.0
H22 H 0.45244 0.03377 0.09695 0.0
H23 H 0.46876 0.96675 0.16422 0.0
O24 O 0.41217 0.07391 0.14319 0.0
H25 H 0.355 0.04081 0.19132 0.0
H26 H 0.38527 0.10934 0.17517 0.0
H27 H 0.3465 0.10749 0.18077 0.0
H28 H 0.33113 0.07303 0.18893 0.0
H29 H 0.39365 0.04334 0.18549 0.0
H30 H 0.41622 0.12663 0.21269 0.0
H31 H 0.43485 0.1578 0.20263 0.0
O32 O 0.41383 0.09504 0.16022 0.0
C33 C 0.46313 0.07359 0.1602 0.0
C34 C 0.43971 0.14098 0.18527 0.0
C35 C 0.42196 0.12536 0.20318 0.0
N36 N 0.42609 0.10451 0.1844 0.0
C37 C 0.43642 0.12156 0.17882 0.0
C38 C 0.41896 0.10619 0.19644 0.0
C39 C 0.4324 0.14285 0.19752 0.0
C40 C 0.42975 0.00517 0.16082 0.0
N41 N 0.4408 0.01962 0.15352 0.0
C42 C 0.43961 0.98596 0.16479 0.0
C43 C 0.46091 0.98157 0.16122 0.0
C44 C 0.47205 0.99634 0.15374 0.0
C45 C 0.46167 0.0154 0.14997 0.0
C46 C 0.43821 0.01908 0.11323 0.0
C47 C 0.44458 0.05872 0.12481 0.0
C48 C 0.43213 0.02235 0.12564 0.0
N49 N 0.43544 0.04196 0.13129 0.0
C50 C 0.45086 0.05605 0.11239 0.0
C51 C 0.44765 0.03607 0.10658 0.0
C52 C 0.40955 0.09208 0.14871 0.0
C53 C 0.36151 0.05593 0.1878 0.0
C54 C 0.37869 0.09427 0.17866 0.0
C55 C 0.35674 0.09333 0.18185 0.0
C56 C 0.34812 0.07401 0.18644 0.0
N57 N 0.39173 0.07648 0.18003 0.0
C58 C 0.3834 0.05748 0.18453 0.0
Co59 Co 0.20609 0.17671 0.39874 0.0
Co60 Co 0.17415 0.17305 0.42518 0.0
O61 O 0.20163 0.1686 0.41625 0.0
C62 C 0.2195 0.13025 0.39885 0.0
O63 O 0.20196 0.12563 0.40528 0.0
C64 C 0.20733 0.1929 0.44203 0.0
O65 O 0.21744 0.2007 0.43223 0.0
O66 O 0.17291 0.20414 0.41988 0.0
O67 O 0.1889 0.20381 0.40107 0.0
H68 H 0.09731 0.19911 0.42979 0.0
H69 H 0.24423 0.16552 0.41429 0.0
O70 O 0.22362 0.1498 0.39581 0.0
H71 H 0.25648 0.24098 0.40069 0.0
H72 H 0.24993 0.18518 0.35938 0.0
H73 H 0.17798 0.19464 0.3788 0.0
H74 H 0.22378 0.22108 0.394 0.0
H75 H 0.24405 0.17552 0.38146 0.0
O76 O 0.19012 0.1817 0.44072 0.0
H77 H 0.13189 0.19307 0.41873 0.0
H78 H 0.15841 0.16261 0.45085 0.0
H79 H 0.18318 0.20466 0.35672 0.0
H80 H 0.2773 0.18475 0.4211 0.0
H81 H 0.21937 0.19994 0.34687 0.0
H82 H 0.28355 0.22278 0.41432 0.0
O83 O 0.17932 0.16097 0.39354 0.0
H84 H 0.21092 0.10653 0.44213 0.0
H85 H 0.14247 0.13634 0.42561 0.0
H86 H 0.14426 0.09776 0.43159 0.0
H87 H 0.17869 0.08262 0.43995 0.0
H88 H 0.20843 0.14498 0.43589 0.0
H89 H 0.12419 0.16849 0.46229 0.0
H90 H 0.09331 0.18678 0.45174 0.0
O91 O 0.15719 0.16422 0.41009 0.0
C92 C 0.17803 0.21328 0.4096 0.0
C93 C 0.11063 0.19106 0.43448 0.0
C94 C 0.12573 0.17391 0.45273 0.0
N95 N 0.1471 0.17737 0.4341 0.0
C96 C 0.13023 0.18755 0.42825 0.0
C97 C 0.14508 0.17067 0.44621 0.0
C98 C 0.1084 0.18416 0.4468 0.0
C99 C 0.24695 0.182 0.41121 0.0
N100 N 0.23212 0.19214 0.40374 0.0
C101 C 0.26566 0.19283 0.41513 0.0
C102 C 0.26913 0.21418 0.41134 0.0
C103 C 0.25394 0.22441 0.40371 0.0
C104 C 0.23541 0.21308 0.39999 0.0
C105 C 0.23409 0.18734 0.36357 0.0
C106 C 0.1938 0.19264 0.37459 0.0
C107 C 0.23065 0.18185 0.37606 0.0
N108 N 0.21072 0.18463 0.38143 0.0
C109 C 0.19664 0.1983 0.36208 0.0
C110 C 0.21694 0.19563 0.35656 0.0
C111 C 0.16085 0.15885 0.39878 0.0
C112 C 0.19582 0.11294 0.43851 0.0
C113 C 0.15753 0.12985 0.42914 0.0
C114 C 0.15843 0.108 0.43257 0.0
C115 C 0.17774 0.09952 0.43727 0.0
N116 N 0.17532 0.1429 0.43037 0.0
C117 C 0.19429 0.13471 0.435 0.0
Co118 Co 0.0809 0.95489 0.64728 0.0
Co119 Co 0.08314 0.92371 0.674 0.0
O120 O 0.08814 0.95094 0.66495 0.0
C121 C 0.12719 0.969 0.64801 0.0
O122 O 0.13185 0.95153 0.65451 0.0
C123 C 0.0626 0.95717 0.69033 0.0
O124 O 0.0547 0.96666 0.68035 0.0
O125 O 0.05222 0.92269 0.66834 0.0
O126 O 0.0539 0.93741 0.64922 0.0
H127 H 0.05619 0.84724 0.67887 0.0
H128 H 0.09068 0.9935 0.66275 0.0
O129 O 0.1077 0.97276 0.6447 0.0
H130 H 0.01584 0.00438 0.64769 0.0
H131 H 0.07392 0.99773 0.60746 0.0
H132 H 0.06456 0.92606 0.62721 0.0
H133 H 0.03658 0.97185 0.64159 0.0
H134 H 0.08245 0.99248 0.62974 0.0
O135 O 0.07415 0.94013 0.68932 0.0
H136 H 0.06293 0.88151 0.66763 0.0
H137 H 0.09254 0.90844 0.6999 0.0
H138 H 0.05567 0.93063 0.60493 0.0
H139 H 0.0706 0.02641 0.66898 0.0
H140 H 0.06034 0.96668 0.59491 0.0
H141 H 0.03287 0.03196 0.66147 0.0
O142 O 0.09723 0.92818 0.6426 0.0
H143 H 0.14943 0.9602 0.69143 0.0
H144 H 0.11951 0.89167 0.67512 0.0
H145 H 0.1579 0.89322 0.68154 0.0
H146 H 0.17309 0.92769 0.68979 0.0
H147 H 0.11118 0.95795 0.68477 0.0
H148 H 0.08595 0.87454 0.71152 0.0
H149 H 0.06772 0.8436 0.70098 0.0
O150 O 0.09232 0.9063 0.65913 0.0
C151 C 0.0438 0.92714 0.65776 0.0
C152 C 0.0642 0.86058 0.68356 0.0
C153 C 0.08087 0.87591 0.70188 0.0
N154 N 0.07824 0.8969 0.68307 0.0
C155 C 0.06811 0.88 0.67723 0.0
C156 C 0.08451 0.89509 0.69526 0.0
C157 C 0.07066 0.85856 0.69596 0.0
C158 C 0.07435 0.99593 0.65934 0.0
N159 N 0.06485 0.98081 0.65178 0.0
C160 C 0.06303 0.01454 0.66295 0.0
C161 C 0.04184 0.01763 0.65874 0.0
C162 C 0.03227 0.00215 0.65103 0.0
C163 C 0.04407 0.98372 0.64763 0.0
C164 C 0.07179 0.98195 0.61172 0.0
C165 C 0.06654 0.94182 0.62293 0.0
C166 C 0.07664 0.97887 0.62433 0.0
N167 N 0.07389 0.95901 0.62979 0.0
C168 C 0.06152 0.9443 0.61031 0.0
C169 C 0.06416 0.96452 0.60469 0.0
C170 C 0.09861 0.90972 0.64795 0.0
C171 C 0.143 0.94508 0.68786 0.0
C172 C 0.12604 0.90674 0.6786 0.0
C173 C 0.14777 0.90751 0.68228 0.0
C174 C 0.15627 0.92685 0.68692 0.0
N175 N 0.11312 0.9247 0.67953 0.0
C176 C 0.12134 0.9437 0.6841 0.0
Co177 Co 0.29833 0.83001 0.89745 0.0
Co178 Co 0.32864 0.83177 0.92441 0.0
O179 O 0.30167 0.83713 0.91518 0.0
C180 C 0.28388 0.87612 0.89809 0.0
O181 O 0.30119 0.88088 0.90469 0.0
C182 C 0.29462 0.81238 0.94083 0.0
O183 O 0.28505 0.80436 0.9309 0.0
O184 O 0.32897 0.80076 0.91899 0.0
O185 O 0.31618 0.80319 0.89944 0.0
H186 H 0.40436 0.80303 0.92991 0.0
H187 H 0.25908 0.83916 0.91253 0.0
O188 O 0.28023 0.8566 0.8948 0.0
H189 H 0.24969 0.76431 0.89717 0.0
H190 H 0.25665 0.82286 0.85723 0.0
H191 H 0.32798 0.81452 0.87755 0.0
H192 H 0.28217 0.7855 0.89149 0.0
H193 H 0.26117 0.83114 0.8796 0.0
O194 O 0.31184 0.82362 0.93974 0.0
H195 H 0.3704 0.81024 0.91845 0.0
H196 H 0.34385 0.84168 0.95025 0.0
H197 H 0.32415 0.8059 0.85519 0.0
H198 H 0.22622 0.81862 0.91833 0.0
H199 H 0.28828 0.81006 0.84488 0.0
H200 H 0.22141 0.78089 0.91067 0.0
O201 O 0.32497 0.8467 0.89311 0.0
H202 H 0.29384 0.89937 0.94131 0.0
H203 H 0.36148 0.86745 0.92496 0.0
H204 H 0.36087 0.90602 0.93106 0.0
H205 H 0.32687 0.92222 0.93933 0.0
H206 H 0.29513 0.8609 0.93498 0.0
H207 H 0.37745 0.83465 0.96208 0.0
H208 H 0.40804 0.81526 0.95189 0.0
O209 O 0.34649 0.84001 0.90955 0.0
C210 C 0.32562 0.79276 0.90817 0.0
C211 C 0.39117 0.81154 0.93444 0.0
C212 C 0.37606 0.82926 0.9525 0.0
N213 N 0.35521 0.82649 0.93364 0.0
C214 C 0.37192 0.81572 0.92799 0.0
C215 C 0.35705 0.83315 0.94576 0.0
C216 C 0.39321 0.81839 0.94678 0.0
C217 C 0.25699 0.82282 0.90906 0.0
N218 N 0.27248 0.81357 0.90165 0.0
C219 C 0.2384 0.81124 0.91242 0.0
C220 C 0.23573 0.79006 0.90813 0.0
C221 C 0.2516 0.78074 0.90057 0.0
C222 C 0.26999 0.7928 0.89742 0.0
C223 C 0.27236 0.82094 0.86162 0.0
C224 C 0.31229 0.81625 0.87315 0.0
C225 C 0.27503 0.82565 0.87428 0.0
N226 N 0.29479 0.82316 0.8799 0.0
C227 C 0.31023 0.8114 0.86048 0.0
C228 C 0.29011 0.81376 0.8547 0.0
C229 C 0.34344 0.84701 0.89848 0.0
C230 C 0.30876 0.89249 0.93774 0.0
C231 C 0.3466 0.8744 0.92848 0.0
C232 C 0.34637 0.89623 0.93196 0.0
C233 C 0.32729 0.90531 0.93661 0.0
N234 N 0.32837 0.86192 0.92963 0.0
C235 C 0.30961 0.8707 0.93419 0.0
Co236 Co 0.4233 0.95647 0.36 0.0
Co237 Co 0.42093 0.92501 0.33339 0.0
O238 O 0.41599 0.95235 0.34235 0.0
C239 C 0.37703 0.97063 0.35929 0.0
O240 O 0.37232 0.95316 0.35282 0.0
C241 C 0.44139 0.95828 0.31692 0.0
O242 O 0.44931 0.96788 0.32686 0.0
O243 O 0.45186 0.92402 0.33901 0.0
O244 O 0.45026 0.93892 0.35808 0.0
H245 H 0.44779 0.84845 0.32877 0.0
H246 H 0.41352 0.99495 0.34441 0.0
O247 O 0.39655 0.9744 0.36255 0.0
H248 H 0.48845 0.00583 0.35933 0.0
H249 H 0.43052 0.99971 0.39966 0.0
H250 H 0.43961 0.92781 0.38014 0.0
H251 H 0.46768 0.9734 0.36557 0.0
H252 H 0.42192 0.99426 0.37741 0.0
O253 O 0.42987 0.94124 0.318 0.0
H254 H 0.44113 0.88286 0.33989 0.0
H255 H 0.4114 0.90946 0.30757 0.0
H256 H 0.44857 0.93258 0.4024 0.0
H257 H 0.43364 0.02775 0.33805 0.0
H258 H 0.44403 0.96874 0.41231 0.0
H259 H 0.47141 0.0333 0.34549 0.0
O260 O 0.40692 0.92986 0.36478 0.0
H261 H 0.35459 0.96133 0.31589 0.0
H262 H 0.38452 0.89299 0.33248 0.0
H263 H 0.34611 0.8945 0.3261 0.0
H264 H 0.33091 0.92886 0.31771 0.0
H265 H 0.39287 0.95913 0.32252 0.0
H266 H 0.41792 0.87541 0.29606 0.0
H267 H 0.43616 0.84458 0.30669 0.0
O268 O 0.41179 0.90778 0.34834 0.0
C269 C 0.46032 0.92857 0.34956 0.0
C270 C 0.43977 0.86175 0.32405 0.0
C271 C 0.42303 0.87689 0.30569 0.0
N272 N 0.42576 0.89809 0.32442 0.0
C273 C 0.43591 0.88125 0.33031 0.0
C274 C 0.41944 0.89615 0.31224 0.0
C275 C 0.43326 0.85959 0.31166 0.0
C276 C 0.42987 0.99738 0.34779 0.0
N277 N 0.43938 0.98232 0.35538 0.0
C278 C 0.44122 0.01593 0.34411 0.0
C279 C 0.46242 0.01901 0.34827 0.0
C280 C 0.472 0.00359 0.35603 0.0
C281 C 0.46018 0.98522 0.3595 0.0
C282 C 0.4326 0.98388 0.39545 0.0
C283 C 0.4377 0.94362 0.38437 0.0
C284 C 0.4277 0.98068 0.38286 0.0
N285 N 0.43038 0.96076 0.37746 0.0
C286 C 0.44275 0.94621 0.39699 0.0
C287 C 0.44018 0.9665 0.40254 0.0
C288 C 0.4055 0.91136 0.35951 0.0
C289 C 0.36103 0.94626 0.31952 0.0
C290 C 0.378 0.90803 0.32894 0.0
C291 C 0.35625 0.90877 0.32528 0.0
C292 C 0.34774 0.92805 0.32056 0.0
N293 N 0.39092 0.92596 0.32791 0.0
C294 C 0.3827 0.9449 0.32326 0.0
Co295 Co 0.30044 0.17416 0.60963 0.0
Co296 Co 0.33017 0.1717 0.58244 0.0
O297 O 0.30339 0.16678 0.59192 0.0
C298 C 0.28588 0.12809 0.60914 0.0
O299 O 0.30305 0.12336 0.60241 0.0
C300 C 0.29596 0.19154 0.56635 0.0
O301 O 0.28681 0.19967 0.57637 0.0
O302 O 0.33109 0.20273 0.5878 0.0
O303 O 0.31828 0.20095 0.60737 0.0
H304 H 0.40615 0.19927 0.57624 0.0
H305 H 0.26087 0.16485 0.59486 0.0
O306 O 0.28236 0.14759 0.61252 0.0
H307 H 0.25187 0.2399 0.60996 0.0
H308 H 0.25966 0.1818 0.65012 0.0
H309 H 0.33049 0.19003 0.62923 0.0
H310 H 0.28445 0.21875 0.61551 0.0
H311 H 0.2637 0.17319 0.62776 0.0
O312 O 0.31306 0.18006 0.56726 0.0
H313 H 0.3724 0.19261 0.58801 0.0
H314 H 0.34452 0.16149 0.55648 0.0
H315 H 0.32714 0.19898 0.65158 0.0
H316 H 0.22791 0.18534 0.5892 0.0
H317 H 0.29152 0.19488 0.66217 0.0
H318 H 0.22329 0.22318 0.59674 0.0
O319 O 0.32716 0.1575 0.61389 0.0
H320 H 0.2939 0.10456 0.56599 0.0
H321 H 0.36247 0.13554 0.58162 0.0
H322 H 0.36111 0.09695 0.5756 0.0
H323 H 0.32663 0.08122 0.56769 0.0
H324 H 0.29594 0.14303 0.57223 0.0
H325 H 0.37789 0.16798 0.54434 0.0
H326 H 0.40904 0.18692 0.55424 0.0
O327 O 0.3483 0.16325 0.59716 0.0
C328 C 0.32778 0.21107 0.59853 0.0
C329 C 0.39271 0.19095 0.57183 0.0
C330 C 0.37684 0.17341 0.55392 0.0
N331 N 0.35656 0.17655 0.57297 0.0
C332 C 0.37358 0.18709 0.57846 0.0
C333 C 0.35796 0.16983 0.56084 0.0
C334 C 0.39431 0.18403 0.55948 0.0
C335 C 0.25887 0.18123 0.59828 0.0
N336 N 0.27452 0.19056 0.60554 0.0
C337 C 0.24022 0.19279 0.595 0.0
C338 C 0.23766 0.21403 0.59921 0.0
C339 C 0.25369 0.22343 0.60662 0.0
C340 C 0.27214 0.21139 0.6097 0.0
C341 C 0.27525 0.1837 0.6456 0.0
C342 C 0.31491 0.18833 0.63375 0.0
C343 C 0.27765 0.17881 0.63295 0.0
N344 N 0.29728 0.18127 0.62717 0.0
C345 C 0.31312 0.19337 0.64642 0.0
C346 C 0.29313 0.19104 0.65236 0.0
C347 C 0.34546 0.15666 0.60834 0.0
C348 C 0.30902 0.11123 0.5694 0.0
C349 C 0.34739 0.1288 0.57826 0.0
C350 C 0.34673 0.10695 0.57482 0.0
C351 C 0.32739 0.09814 0.57037 0.0
N352 N 0.32931 0.14154 0.57727 0.0
C353 C 0.3103 0.13302 0.57291 0.0
Co354 Co 0.07813 0.04673 0.85853 0.0
Co355 Co 0.07936 0.07799 0.83189 0.0
O356 O 0.08524 0.05083 0.84085 0.0
C357 C 0.12463 0.03337 0.85787 0.0
O358 O 0.1291 0.05092 0.85142 0.0
C359 C 0.06082 0.04397 0.81509 0.0
O360 O 0.05341 0.03358 0.8249 0.0
O361 O 0.04835 0.07764 0.83734 0.0
O362 O 0.05086 0.06387 0.85665 0.0
H363 H 0.04935 0.15337 0.82722 0.0
H364 H 0.0884 0.00822 0.84308 0.0
O365 O 0.10516 0.02925 0.86107 0.0
H366 H 0.01379 0.9963 0.85825 0.0
H367 H 0.07192 0.00377 0.89835 0.0
H368 H 0.06156 0.07533 0.87864 0.0
H369 H 0.03405 0.02917 0.86427 0.0
H370 H 0.08021 0.00913 0.87605 0.0
O371 O 0.07141 0.06156 0.8164 0.0
H372 H 0.05717 0.11918 0.83831 0.0
H373 H 0.0889 0.09416 0.8062 0.0
H374 H 0.05291 0.07065 0.90094 0.0
H375 H 0.0688 0.97498 0.83694 0.0
H376 H 0.05808 0.03465 0.91095 0.0
H377 H 0.03119 0.9689 0.84451 0.0
O378 O 0.09414 0.07363 0.86318 0.0
H379 H 0.14748 0.0448 0.8146 0.0
H380 H 0.11449 0.11144 0.83158 0.0
H381 H 0.15305 0.11164 0.82544 0.0
H382 H 0.16979 0.07814 0.81685 0.0
H383 H 0.10902 0.04528 0.82099 0.0
H384 H 0.08125 0.128 0.79473 0.0
H385 H 0.06142 0.15793 0.80526 0.0
O386 O 0.0874 0.09551 0.84691 0.0
C387 C 0.04028 0.07346 0.84804 0.0
C388 C 0.05805 0.14046 0.82254 0.0
C389 C 0.07594 0.12622 0.8043 0.0
N390 N 0.0736 0.10475 0.82294 0.0
C391 C 0.06258 0.12109 0.82878 0.0
C392 C 0.08017 0.10707 0.81083 0.0
C393 C 0.06481 0.14301 0.81021 0.0
C394 C 0.07211 0.00558 0.84651 0.0
N395 N 0.06241 0.02059 0.85405 0.0
C396 C 0.06107 0.98677 0.84296 0.0
C397 C 0.03995 0.98339 0.84719 0.0
C398 C 0.03017 0.99877 0.85489 0.0
C399 C 0.0417 0.0174 0.85823 0.0
C400 C 0.06957 0.01952 0.8941 0.0
C401 C 0.06376 0.05959 0.88291 0.0
C402 C 0.07428 0.02267 0.88148 0.0
N403 N 0.07126 0.0425 0.87603 0.0
C404 C 0.05887 0.05705 0.89555 0.0
C405 C 0.0618 0.03686 0.90116 0.0
C406 C 0.09435 0.09223 0.85797 0.0
C407 C 0.14036 0.05951 0.81831 0.0
C408 C 0.12167 0.09678 0.82792 0.0
C409 C 0.1435 0.09701 0.82442 0.0
C410 C 0.15288 0.07821 0.81959 0.0
N411 N 0.1095 0.07838 0.82663 0.0
C412 C 0.11857 0.0599 0.8219 0.0
Co413 Co 0.20571 0.83071 0.10937 0.0
Co414 Co 0.1749 0.83235 0.0826 0.0
O415 O 0.20203 0.83782 0.09165 0.0
C416 C 0.22002 0.87687 0.10861 0.0
O417 O 0.2025 0.88156 0.10217 0.0
C418 C 0.20877 0.81347 0.06581 0.0
O419 O 0.21901 0.80579 0.0756 0.0
O420 O 0.17493 0.80132 0.08797 0.0
O421 O 0.18789 0.80381 0.10748 0.0
H422 H 0.09928 0.8031 0.07762 0.0
H423 H 0.2447 0.83997 0.09408 0.0
O424 O 0.2238 0.85737 0.11189 0.0
H425 H 0.25456 0.76516 0.10941 0.0
H426 H 0.24811 0.82376 0.14935 0.0
H427 H 0.17647 0.81511 0.12944 0.0
H428 H 0.22209 0.78625 0.11524 0.0
H429 H 0.24317 0.83202 0.12701 0.0
O430 O 0.19136 0.82435 0.06713 0.0
H431 H 0.13344 0.81048 0.08883 0.0
H432 H 0.15903 0.84231 0.0569 0.0
H433 H 0.18073 0.8065 0.15178 0.0
H434 H 0.27756 0.81954 0.08815 0.0
H435 H 0.21676 0.81082 0.16188 0.0
H436 H 0.2826 0.78183 0.0958 0.0
O437 O 0.1791 0.84734 0.11387 0.0
H438 H 0.20891 0.90025 0.06559 0.0
H439 H 0.14181 0.86782 0.08234 0.0
H440 H 0.14205 0.90643 0.07631 0.0
H441 H 0.17578 0.92288 0.06784 0.0
H442 H 0.20799 0.86174 0.07185 0.0
H443 H 0.12521 0.83511 0.04531 0.0
H444 H 0.09501 0.81545 0.05569 0.0
O445 O 0.1573 0.8404 0.0976 0.0
C446 C 0.17846 0.79332 0.09877 0.0
C447 C 0.1123 0.81173 0.073 0.0
C448 C 0.12687 0.82967 0.05486 0.0
N449 N 0.14816 0.82693 0.07356 0.0
C450 C 0.13166 0.81601 0.07931 0.0
C451 C 0.146 0.83366 0.06147 0.0
C452 C 0.10992 0.81865 0.0607 0.0
C453 C 0.24689 0.82364 0.09755 0.0
N454 N 0.23153 0.81434 0.10503 0.0
C455 C 0.26548 0.81212 0.09411 0.0
C456 C 0.26828 0.79095 0.09839 0.0
C457 C 0.25254 0.78158 0.10602 0.0
C458 C 0.23415 0.79358 0.10925 0.0
C459 C 0.23234 0.82177 0.14505 0.0
C460 C 0.19223 0.8169 0.13375 0.0
C461 C 0.22943 0.82646 0.13241 0.0
N462 N 0.20959 0.82388 0.1269 0.0
C463 C 0.19453 0.81206 0.14641 0.0
C464 C 0.21474 0.81451 0.15207 0.0
C465 C 0.16052 0.84749 0.10863 0.0
C466 C 0.1941 0.89326 0.06924 0.0
C467 C 0.15657 0.87488 0.07873 0.0
C468 C 0.15659 0.89674 0.07529 0.0
C469 C 0.17552 0.90595 0.07052 0.0
N470 N 0.17486 0.86252 0.07743 0.0
C471 C 0.19346 0.87144 0.07276 0.0
Co472 Co 0.58041 0.95514 0.86018 0.0
Co473 Co 0.58291 0.92511 0.83313 0.0
O474 O 0.5878 0.95202 0.84247 0.0
C475 C 0.62633 0.97007 0.85957 0.0
O476 O 0.6312 0.95284 0.85292 0.0
C477 C 0.56307 0.95899 0.81686 0.0
O478 O 0.55474 0.96816 0.82683 0.0
O479 O 0.55186 0.92434 0.83843 0.0
O480 O 0.55377 0.93706 0.85802 0.0
H481 H 0.55524 0.8491 0.82725 0.0
H482 H 0.58936 0.99458 0.84522 0.0
O483 O 0.60682 0.97346 0.86296 0.0
H484 H 0.51424 0.00315 0.86033 0.0
H485 H 0.57245 0.99641 0.90048 0.0
H486 H 0.56492 0.92521 0.87993 0.0
H487 H 0.53569 0.97084 0.86602 0.0
H488 H 0.58106 0.99214 0.87814 0.0
O489 O 0.57468 0.942 0.81787 0.0
H490 H 0.56189 0.88301 0.83887 0.0
H491 H 0.59326 0.91036 0.80727 0.0
H492 H 0.55597 0.92879 0.90227 0.0
H493 H 0.56856 0.02727 0.83942 0.0
H494 H 0.55972 0.9646 0.91269 0.0
H495 H 0.5307 0.03168 0.84696 0.0
O496 O 0.5973 0.92862 0.86452 0.0
H497 H 0.65021 0.96099 0.81659 0.0
H498 H 0.61904 0.89275 0.83257 0.0
H499 H 0.65767 0.89394 0.82661 0.0
H500 H 0.67349 0.92825 0.81853 0.0
H501 H 0.6117 0.95911 0.82278 0.0
H502 H 0.58677 0.87682 0.79528 0.0
H503 H 0.56772 0.84586 0.80529 0.0
O504 O 0.59124 0.9072 0.84796 0.0
C505 C 0.54361 0.92759 0.84919 0.0
C506 C 0.56362 0.86246 0.82279 0.0
C507 C 0.58129 0.87802 0.80484 0.0
N508 N 0.57807 0.89859 0.82378 0.0
C509 C 0.56748 0.88168 0.82933 0.0
C510 C 0.58486 0.89699 0.81167 0.0
C511 C 0.5706 0.86066 0.81047 0.0
C512 C 0.57296 0.99649 0.84864 0.0
N513 N 0.56378 0.98086 0.85598 0.0
C514 C 0.56124 0.01499 0.84528 0.0
C515 C 0.53998 0.01743 0.8495 0.0
C516 C 0.53073 1.00142 0.85699 0.0
C517 C 0.54293 0.98313 0.86014 0.0
C518 C 0.57071 0.98074 0.89604 0.0
C519 C 0.56646 0.94088 0.88438 0.0
C520 C 0.57559 0.97821 0.88339 0.0
N521 N 0.57332 0.95848 0.87771 0.0
C522 C 0.56143 0.94279 0.89704 0.0
C523 C 0.56356 0.96288 0.90288 0.0
C524 C 0.598 0.91022 0.85908 0.0
C525 C 0.6435 0.94593 0.82008 0.0
C526 C 0.62582 0.90776 0.82913 0.0
C527 C 0.64769 0.90832 0.82573 0.0
C528 C 0.65656 0.92757 0.82118 0.0
N529 N 0.61311 0.92584 0.82801 0.0
C530 C 0.62168 0.94475 0.82355 0.0
Co531 Co 0.79843 0.83036 0.60838 0.0
Co532 Co 0.83045 0.83239 0.582 0.0
O533 O 0.80308 0.83757 0.5908 0.0
C534 C 0.78597 0.87705 0.6082 0.0
O535 O 0.80501 0.88157 0.60335 0.0
C536 C 0.79719 0.81207 0.56552 0.0
O537 O 0.78771 0.80409 0.57548 0.0
O538 O 0.8311 0.80152 0.5877 0.0
O539 O 0.81576 0.80313 0.60668 0.0
H540 H 0.90684 0.80486 0.57777 0.0
H541 H 0.76045 0.84061 0.59244 0.0
O542 O 0.78077 0.85745 0.61055 0.0
H543 H 0.7482 0.76592 0.60739 0.0
H544 H 0.75383 0.8244 0.6476 0.0
H545 H 0.82616 0.81371 0.62888 0.0
H546 H 0.78079 0.78627 0.61384 0.0
H547 H 0.76019 0.83275 0.62539 0.0
O548 O 0.81427 0.82355 0.56657 0.0
H549 H 0.87235 0.81189 0.58873 0.0
H550 H 0.8464 0.84161 0.55623 0.0
H551 H 0.82049 0.805 0.6511 0.0
H552 H 0.72753 0.82092 0.58586 0.0
H553 H 0.7841 0.81034 0.6606 0.0
H554 H 0.72128 0.78327 0.59331 0.0
O555 O 0.82526 0.84621 0.61341 0.0
H556 H 0.79491 0.89908 0.56442 0.0
H557 H 0.86284 0.86844 0.58114 0.0
H558 H 0.86178 0.90685 0.57476 0.0
H559 H 0.82762 0.92241 0.5663 0.0
H560 H 0.79667 0.86078 0.57105 0.0
H561 H 0.88053 0.83473 0.54488 0.0
H562 H 0.91109 0.81631 0.55568 0.0
O563 O 0.84752 0.84141 0.59704 0.0
C564 C 0.82637 0.7931 0.59824 0.0
C565 C 0.89367 0.81296 0.57297 0.0
C566 C 0.87889 0.82969 0.55451 0.0
N567 N 0.85744 0.82727 0.57316 0.0
C568 C 0.87412 0.81703 0.57914 0.0
C569 C 0.85958 0.83349 0.56098 0.0
C570 C 0.89603 0.81937 0.56057 0.0
C571 C 0.75773 0.82431 0.59583 0.0
N572 N 0.77248 0.81464 0.60355 0.0
C573 C 0.73911 0.81321 0.59202 0.0
C574 C 0.73563 0.79207 0.59619 0.0
C575 C 0.75074 0.78232 0.60408 0.0
C576 C 0.7692 0.7939 0.60767 0.0
C577 C 0.76974 0.82195 0.64356 0.0
C578 C 0.81024 0.81593 0.63293 0.0
C579 C 0.77345 0.82668 0.63099 0.0
N580 N 0.79348 0.82351 0.62582 0.0
C581 C 0.80715 0.81104 0.64552 0.0
C582 C 0.78673 0.81406 0.65085 0.0
C583 C 0.84387 0.84751 0.60823 0.0
C584 C 0.80989 0.89249 0.56808 0.0
C585 C 0.8479 0.87512 0.57756 0.0
C586 C 0.84741 0.89686 0.57391 0.0
C587 C 0.82824 0.90558 0.56915 0.0
N588 N 0.82984 0.86238 0.57649 0.0
C589 C 0.811 0.8708 0.57182 0.0
Co590 Co 0.92553 0.04834 0.35929 0.0
Co591 Co 0.92397 0.07935 0.33256 0.0
O592 O 0.91833 0.05222 0.3416 0.0
C593 C 0.87916 0.03458 0.35862 0.0
O594 O 0.87459 0.05204 0.3521 0.0
C595 C 0.94271 0.04539 0.3158 0.0
O596 O 0.95023 0.03507 0.32561 0.0
O597 O 0.95499 0.07922 0.33795 0.0
O598 O 0.9527 0.06565 0.35732 0.0
H599 H 0.95351 0.15486 0.32764 0.0
H600 H 0.9155 0.00963 0.34394 0.0
O601 O 0.89864 0.03067 0.3619 0.0
H602 H 0.99023 0.99835 0.35909 0.0
H603 H 0.93216 0.00576 0.39922 0.0
H604 H 0.94202 0.07721 0.37929 0.0
H605 H 0.96975 0.03113 0.36504 0.0
H606 H 0.92374 0.01088 0.37692 0.0
O607 O 0.93196 0.06288 0.3171 0.0
H608 H 0.94595 0.12071 0.33884 0.0
H609 H 0.91417 0.09528 0.30685 0.0
H610 H 0.9508 0.07277 0.40159 0.0
H611 H 0.93532 0.97647 0.33788 0.0
H612 H 0.94588 0.03683 0.41171 0.0
H613 H 0.97299 0.97071 0.34544 0.0
O614 O 0.90934 0.07517 0.36389 0.0
H615 H 0.856 0.04559 0.31546 0.0
H616 H 0.8886 0.11256 0.33224 0.0
H617 H 0.85001 0.11246 0.32616 0.0
H618 H 0.83347 0.0788 0.31768 0.0
H619 H 0.89449 0.04637 0.32178 0.0
H620 H 0.92154 0.12907 0.29528 0.0
H621 H 0.94127 0.15919 0.3057 0.0
O622 O 0.91591 0.09692 0.34754 0.0
C623 C 0.96317 0.07519 0.34864 0.0
C624 C 0.94484 0.14187 0.32301 0.0
C625 C 0.92693 0.12739 0.30484 0.0
N626 N 0.92951 0.10608 0.32354 0.0
C627 C 0.94047 0.12252 0.32931 0.0
C628 C 0.92284 0.10827 0.31144 0.0
C629 C 0.93799 0.14429 0.3107 0.0
C630 C 0.93181 0.00713 0.34737 0.0
N631 N 0.94143 0.02227 0.35486 0.0
C632 C 0.94299 0.98837 0.34386 0.0
C633 C 0.96414 0.98516 0.34809 0.0
C634 C 0.97383 1.00068 0.35574 0.0
C635 C 0.96217 0.01925 0.35904 0.0
C636 C 0.9344 0.02149 0.39492 0.0
C637 C 0.93993 0.06149 0.38361 0.0
C638 C 0.92961 0.0245 0.3823 0.0
N639 N 0.9325 0.0443 0.37679 0.0
C640 C 0.94489 0.05909 0.39625 0.0
C641 C 0.9421 0.03893 0.40192 0.0
C642 C 0.90901 0.09372 0.35862 0.0
C643 C 0.86303 0.06037 0.31912 0.0
C644 C 0.88151 0.09783 0.32862 0.0
C645 C 0.85966 0.09788 0.32515 0.0
C646 C 0.85039 0.079 0.32038 0.0
N647 N 0.8938 0.0795 0.32735 0.0
C648 C 0.88483 0.06093 0.32267 0.0
Co649 Co 0.70473 0.17506 0.10938 0.0
Co650 Co 0.67275 0.17309 0.08317 0.0
O651 O 0.70021 0.16746 0.09184 0.0
C652 C 0.71911 0.12892 0.10881 0.0
O653 O 0.70131 0.12403 0.10268 0.0
C654 C 0.70609 0.19142 0.06612 0.0
O655 O 0.71551 0.20012 0.0759 0.0
O656 O 0.67362 0.20425 0.08811 0.0
O657 O 0.68674 0.20193 0.10758 0.0
H658 H 0.59761 0.20383 0.07873 0.0
H659 H 0.74298 0.16562 0.09354 0.0
O660 O 0.72302 0.14851 0.11184 0.0
H661 H 0.75337 0.24074 0.10823 0.0
H662 H 0.74883 0.18303 0.14868 0.0
H663 H 0.67633 0.19104 0.12974 0.0
H664 H 0.72128 0.21967 0.11473 0.0
H665 H 0.74295 0.17425 0.12649 0.0
O666 O 0.68893 0.18012 0.06742 0.0
H667 H 0.63203 0.19616 0.08962 0.0
H668 H 0.65569 0.16243 0.05785 0.0
H669 H 0.68152 0.20017 0.15194 0.0
H670 H 0.77544 0.18603 0.08691 0.0
H671 H 0.71799 0.19618 0.16156 0.0
H672 H 0.78075 0.2239 0.09424 0.0
O673 O 0.67844 0.15839 0.11429 0.0
H674 H 0.70427 0.10378 0.06642 0.0
H675 H 0.63901 0.13835 0.08417 0.0
H676 H 0.63806 0.09951 0.07866 0.0
H677 H 0.67084 0.08198 0.06969 0.0
H678 H 0.70457 0.14255 0.07217 0.0
H679 H 0.62159 0.16988 0.04657 0.0
H680 H 0.59223 0.19065 0.05704 0.0
O681 O 0.65559 0.16605 0.09858 0.0
C682 C 0.67733 0.2124 0.09884 0.0
C683 C 0.61026 0.1947 0.07408 0.0
C684 C 0.62373 0.17567 0.05603 0.0
N685 N 0.64578 0.17871 0.07442 0.0
C686 C 0.62976 0.19026 0.08021 0.0
C687 C 0.64301 0.17154 0.06245 0.0
C688 C 0.60725 0.18732 0.06191 0.0
C689 C 0.7453 0.18201 0.09687 0.0
N690 N 0.73029 0.19141 0.10454 0.0
C691 C 0.76366 0.19352 0.09304 0.0
C692 C 0.7666 0.21478 0.09714 0.0
C693 C 0.75124 0.22425 0.10498 0.0
C694 C 0.73306 0.21226 0.10859 0.0
C695 C 0.73287 0.18487 0.1446 0.0
C696 C 0.69227 0.18938 0.13384 0.0
C697 C 0.72943 0.17989 0.13204 0.0
N698 N 0.70935 0.18229 0.1268 0.0
C699 C 0.6951 0.19452 0.14642 0.0
C700 C 0.71556 0.19226 0.15181 0.0
C701 C 0.65949 0.15868 0.1095 0.0
C702 C 0.68986 0.11125 0.07029 0.0
C703 C 0.65337 0.13083 0.08031 0.0
C704 C 0.65271 0.10884 0.07718 0.0
C705 C 0.67111 0.09902 0.07214 0.0
N706 N 0.67181 0.14272 0.07844 0.0
C707 C 0.68991 0.13321 0.07351 0.0
Co708 Co 0.58323 0.04907 0.6493 0.0
Co709 Co 0.58385 0.08044 0.67587 0.0
O710 O 0.58978 0.05325 0.66703 0.0
C711 C 0.62986 0.03593 0.64964 0.0
O712 O 0.63481 0.05493 0.65441 0.0
C713 C 0.56437 0.04672 0.69246 0.0
O714 O 0.55697 0.03655 0.68257 0.0
O715 O 0.55304 0.08023 0.6701 0.0
O716 O 0.55608 0.06664 0.65075 0.0
H717 H 0.55416 0.15601 0.68014 0.0
H718 H 0.5924 0.01058 0.66504 0.0
O719 O 0.61015 0.03111 0.64734 0.0
H720 H 0.51825 0.99949 0.64894 0.0
H721 H 0.57838 0.00551 0.60964 0.0
H722 H 0.56773 0.07748 0.62881 0.0
H723 H 0.53917 0.03204 0.64308 0.0
H724 H 0.58588 0.01121 0.63201 0.0
O725 O 0.57533 0.06411 0.69128 0.0
H726 H 0.56214 0.12174 0.66916 0.0
H727 H 0.59266 0.09663 0.70164 0.0
H728 H 0.55988 0.07245 0.60643 0.0
H729 H 0.57214 0.97766 0.67102 0.0
H730 H 0.56519 0.03625 0.59671 0.0
H731 H 0.53476 0.97199 0.66298 0.0
O732 O 0.5996 0.07585 0.64472 0.0
H733 H 0.65132 0.04678 0.69367 0.0
H734 H 0.61911 0.11372 0.67661 0.0
H735 H 0.65749 0.11369 0.6831 0.0
H736 H 0.67384 0.08004 0.69174 0.0
H737 H 0.61303 0.0475 0.68695 0.0
H738 H 0.58484 0.13055 0.71299 0.0
H739 H 0.56553 0.16057 0.70222 0.0
O740 O 0.59245 0.09782 0.66091 0.0
C741 C 0.54532 0.07631 0.65927 0.0
C742 C 0.56263 0.14307 0.68492 0.0
C743 C 0.57983 0.12877 0.70337 0.0
N744 N 0.57797 0.10726 0.68472 0.0
C745 C 0.56724 0.12365 0.67875 0.0
C746 C 0.58416 0.10958 0.6969 0.0
C747 C 0.569 0.14561 0.69731 0.0
C748 C 0.57623 0.00812 0.66141 0.0
N749 N 0.56702 0.02318 0.6537 0.0
C750 C 0.5648 0.98949 0.66487 0.0
C751 C 0.54381 0.98634 0.66037 0.0
C752 C 0.53453 1.00178 0.6525 0.0
C753 C 0.54643 0.02022 0.64926 0.0
C754 C 0.57595 0.02135 0.61378 0.0
C755 C 0.56995 0.06164 0.62467 0.0
C756 C 0.5802 0.02469 0.62644 0.0
N757 N 0.57705 0.04462 0.63174 0.0
C758 C 0.56554 0.05891 0.61198 0.0
C759 C 0.56854 0.0386 0.60653 0.0
C760 C 0.59971 0.09448 0.64992 0.0
C761 C 0.64438 0.06155 0.68995 0.0
C762 C 0.62612 0.099 0.68029 0.0
C763 C 0.64785 0.09909 0.68399 0.0
C764 C 0.65701 0.08021 0.68884 0.0
N765 N 0.61383 0.08064 0.68142 0.0
C766 C 0.62269 0.06207 0.68616 0.0
Co767 Co 0.70558 0.83053 0.39799 0.0
Co768 Co 0.67476 0.8342 0.42481 0.0
O769 O 0.70199 0.8383 0.41562 0.0
C770 C 0.72025 0.87653 0.39833 0.0
O771 O 0.7029 0.88141 0.40488 0.0
C772 C 0.70813 0.81373 0.44131 0.0
O773 O 0.7179 0.80586 0.43142 0.0
O774 O 0.67299 0.8032 0.41943 0.0
O775 O 0.68752 0.80396 0.40022 0.0
H776 H 0.59773 0.80914 0.43015 0.0
H777 H 0.74469 0.84003 0.41313 0.0
O778 O 0.72387 0.85695 0.39514 0.0
H779 H 0.75375 0.76451 0.39882 0.0
H780 H 0.74794 0.82172 0.35812 0.0
H781 H 0.67622 0.81446 0.37811 0.0
H782 H 0.7215 0.78569 0.39272 0.0
H783 H 0.74306 0.83086 0.38035 0.0
O784 O 0.69107 0.82521 0.44017 0.0
H785 H 0.63205 0.81478 0.41875 0.0
H786 H 0.65994 0.84467 0.45066 0.0
H787 H 0.68041 0.80497 0.35588 0.0
H788 H 0.77733 0.81951 0.41934 0.0
H789 H 0.71649 0.80858 0.34574 0.0
H790 H 0.78197 0.78144 0.41221 0.0
O791 O 0.67915 0.84723 0.39325 0.0
H792 H 0.71292 0.90007 0.44156 0.0
H793 H 0.64359 0.87133 0.42565 0.0
H794 H 0.64608 0.90984 0.43171 0.0
H795 H 0.68095 0.92444 0.43976 0.0
H796 H 0.70973 0.86171 0.43524 0.0
H797 H 0.626 0.83917 0.46243 0.0
H798 H 0.59456 0.82137 0.45215 0.0
O799 O 0.6574 0.84336 0.40991 0.0
C800 C 0.67704 0.79442 0.40889 0.0
C801 C 0.61129 0.81697 0.43472 0.0
C802 C 0.62717 0.8338 0.45284 0.0
N803 N 0.64793 0.83017 0.434 0.0
C804 C 0.63075 0.82026 0.4283 0.0
C805 C 0.64637 0.83682 0.44613 0.0
C806 C 0.60953 0.82382 0.44707 0.0
C807 C 0.74671 0.82354 0.40989 0.0
N808 N 0.73125 0.8141 0.40254 0.0
C809 C 0.76518 0.81197 0.41348 0.0
C810 C 0.76775 0.7906 0.40949 0.0
C811 C 0.75191 0.78109 0.40199 0.0
C812 C 0.73364 0.79314 0.3986 0.0
C813 C 0.73215 0.82003 0.36244 0.0
C814 C 0.692 0.81594 0.37378 0.0
C815 C 0.72928 0.82521 0.37502 0.0
N816 N 0.70941 0.82301 0.38055 0.0
C817 C 0.69426 0.8106 0.36119 0.0
C818 C 0.7145 0.81265 0.3555 0.0
C819 C 0.6608 0.84916 0.39864 0.0
C820 C 0.69763 0.8939 0.43807 0.0
C821 C 0.65883 0.87759 0.42904 0.0
C822 C 0.66014 0.89939 0.43252 0.0
C823 C 0.6797 0.90757 0.43705 0.0
N824 N 0.67649 0.86429 0.43006 0.0
C825 C 0.69571 0.87218 0.43452 0.0
Co826 Co 0.92378 0.95544 0.14759 0.0
Co827 Co 0.92158 0.92546 0.17467 0.0
O828 O 0.91649 0.95234 0.16532 0.0
C829 C 0.87776 0.97016 0.1482 0.0
O830 O 0.87298 0.95299 0.15492 0.0
C831 C 0.94133 0.95941 0.19095 0.0
O832 O 0.94956 0.96869 0.18099 0.0
O833 O 0.95262 0.92485 0.16932 0.0
O834 O 0.95053 0.93749 0.14973 0.0
H835 H 0.94973 0.84962 0.18054 0.0
H836 H 0.9147 0.99487 0.16253 0.0
O837 O 0.89726 0.97363 0.14481 0.0
H838 H 0.9897 0.00376 0.14731 0.0
H839 H 0.93139 0.99662 0.10724 0.0
H840 H 0.93932 0.92551 0.12784 0.0
H841 H 0.9684 0.97134 0.14167 0.0
H842 H 0.9229 0.99238 0.1296 0.0
O843 O 0.92978 0.94238 0.18993 0.0
H844 H 0.94285 0.88348 0.16892 0.0
H845 H 0.91138 0.91065 0.20054 0.0
H846 H 0.94815 0.92906 0.10549 0.0
H847 H 0.93536 0.02767 0.16828 0.0
H848 H 0.9442 0.96482 0.09504 0.0
H849 H 0.97317 0.03224 0.16068 0.0
O850 O 0.907 0.92882 0.1433 0.0
H851 H 0.85415 0.96097 0.1913 0.0
H852 H 0.88564 0.89291 0.17527 0.0
H853 H 0.84703 0.89389 0.18128 0.0
H854 H 0.83104 0.92811 0.18939 0.0
H855 H 0.89265 0.9593 0.18505 0.0
H856 H 0.91809 0.87716 0.21253 0.0
H857 H 0.93731 0.8463 0.20251 0.0
O858 O 0.91331 0.90749 0.15986 0.0
C859 C 0.9608 0.9281 0.15854 0.0
C860 C 0.94128 0.86292 0.185 0.0
C861 C 0.92355 0.87839 0.20296 0.0
N862 N 0.92661 0.89897 0.18402 0.0
C863 C 0.9373 0.88212 0.17846 0.0
C864 C 0.91985 0.89734 0.19613 0.0
C865 C 0.93433 0.86108 0.19733 0.0
C866 C 0.93107 0.99685 0.15908 0.0
N867 N 0.94029 0.98125 0.15174 0.0
C868 C 0.94272 0.01541 0.16241 0.0
C869 C 0.96394 0.01794 0.15817 0.0
C870 C 0.97324 1.00196 0.15067 0.0
C871 C 0.96112 0.9836 0.14755 0.0
C872 C 0.93322 0.98096 0.11169 0.0
C873 C 0.93769 0.94116 0.12338 0.0
C874 C 0.9284 0.97845 0.12434 0.0
N875 N 0.93078 0.95875 0.13005 0.0
C876 C 0.94265 0.94305 0.11072 0.0
C877 C 0.94041 0.96312 0.10486 0.0
C878 C 0.90647 0.91043 0.14875 0.0
C879 C 0.86093 0.94595 0.1878 0.0
C880 C 0.87878 0.90788 0.17872 0.0
C881 C 0.85692 0.90832 0.18215 0.0
C882 C 0.84797 0.92752 0.18671 0.0
N883 N 0.8914 0.92602 0.17982 0.0
C884 C 0.88274 0.94489 0.18429 0.0
Co885 Co 0.79825 0.17592 0.89873 0.0
Co886 Co 0.82943 0.1714 0.92538 0.0
O887 O 0.80208 0.16771 0.91626 0.0
C888 C 0.78376 0.12992 0.89888 0.0
O889 O 0.80121 0.12508 0.90533 0.0
C890 C 0.79623 0.19174 0.94201 0.0
O891 O 0.78649 0.19977 0.93215 0.0
O892 O 0.8315 0.20245 0.92016 0.0
O893 O 0.81629 0.20248 0.90113 0.0
H894 H 0.90677 0.19556 0.93063 0.0
H895 H 0.75934 0.16593 0.91394 0.0
O896 O 0.78 0.1495 0.89574 0.0
H897 H 0.74993 0.24178 0.90031 0.0
H898 H 0.75539 0.18552 0.8591 0.0
H899 H 0.82729 0.19269 0.87888 0.0
H900 H 0.78217 0.22085 0.8939 0.0
H901 H 0.76058 0.17584 0.88123 0.0
O902 O 0.81331 0.1803 0.94083 0.0
H903 H 0.8723 0.19044 0.91929 0.0
H904 H 0.84434 0.16041 0.95114 0.0
H905 H 0.82279 0.20272 0.85676 0.0
H906 H 0.72671 0.18621 0.92044 0.0
H907 H 0.78663 0.19915 0.84672 0.0
H908 H 0.72189 0.22444 0.91365 0.0
O909 O 0.82463 0.15939 0.89373 0.0
H910 H 0.79077 0.10562 0.94189 0.0
H911 H 0.86024 0.13395 0.92593 0.0
H912 H 0.85741 0.09537 0.9318 0.0
H913 H 0.82247 0.08097 0.93987 0.0
H914 H 0.79428 0.14405 0.93578 0.0
H915 H 0.87843 0.16538 0.96285 0.0
H916 H 0.90998 0.18299 0.95257 0.0
O917 O 0.84655 0.16227 0.91038 0.0
C918 C 0.82714 0.21164 0.90978 0.0
C919 C 0.89316 0.1878 0.9352 0.0
C920 C 0.87724 0.17089 0.95329 0.0
N921 N 0.85638 0.175 0.93452 0.0
C922 C 0.87362 0.18481 0.92882 0.0
C923 C 0.85796 0.16817 0.94662 0.0
C924 C 0.89494 0.18077 0.94751 0.0
C925 C 0.75724 0.18249 0.91084 0.0
N926 N 0.7726 0.19217 0.90352 0.0
C927 C 0.73878 0.19392 0.9146 0.0
C928 C 0.73611 0.21539 0.9108 0.0
C929 C 0.75184 0.22513 0.90333 0.0
C930 C 0.7701 0.21322 0.89977 0.0
C931 C 0.77122 0.18719 0.86337 0.0
C932 C 0.81147 0.19123 0.8746 0.0
C933 C 0.77426 0.1817 0.8759 0.0
N934 N 0.79418 0.18387 0.88137 0.0
C935 C 0.80904 0.19687 0.86206 0.0
C936 C 0.78875 0.19485 0.85643 0.0
C937 C 0.84297 0.15695 0.89905 0.0
C938 C 0.80608 0.1117 0.9384 0.0
C939 C 0.84496 0.12778 0.92934 0.0
C940 C 0.84347 0.10594 0.9327 0.0
C941 C 0.82387 0.09788 0.93724 0.0
N942 N 0.82744 0.14124 0.93048 0.0
C943 C 0.80819 0.13346 0.93496 0.0
Co944 Co 0.92252 0.54863 0.64951 0.0
Co945 Co 0.92208 0.5805 0.67589 0.0
O946 O 0.91556 0.55338 0.66712 0.0
C947 C 0.87545 0.53697 0.6494 0.0
O948 O 0.87086 0.55617 0.65403 0.0
C949 C 0.94072 0.54655 0.69252 0.0
O950 O 0.94856 0.5368 0.68261 0.0
O951 O 0.95301 0.57944 0.67035 0.0
O952 O 0.95023 0.56519 0.65115 0.0
H953 H 0.95363 0.65531 0.68014 0.0
H954 H 0.91156 0.5109 0.66546 0.0
O955 O 0.89508 0.53157 0.64735 0.0
H956 H 0.98568 0.49674 0.65013 0.0
H957 H 0.92705 0.50428 0.61012 0.0
H958 H 0.93985 0.57607 0.62907 0.0
H959 H 0.96608 0.52983 0.64379 0.0
H960 H 0.91902 0.51062 0.63237 0.0
O961 O 0.92982 0.56399 0.6914 0.0
H962 H 0.94498 0.62117 0.66921 0.0
H963 H 0.91323 0.59713 0.70155 0.0
H964 H 0.94826 0.5704 0.60681 0.0
H965 H 0.93049 0.47747 0.67193 0.0
H966 H 0.94186 0.53428 0.5972 0.0
H967 H 0.96785 0.47025 0.66428 0.0
O968 O 0.90725 0.57589 0.64461 0.0
H969 H 0.85335 0.54896 0.6934 0.0
H970 H 0.88773 0.61473 0.67621 0.0
H971 H 0.84923 0.61585 0.68244 0.0
H972 H 0.8318 0.5828 0.69114 0.0
H973 H 0.89178 0.54852 0.68693 0.0
H974 H 0.92169 0.63093 0.71287 0.0
H975 H 0.94196 0.66036 0.70213 0.0
O976 O 0.91427 0.59793 0.66079 0.0
C977 C 0.961 0.5748 0.65969 0.0
C978 C 0.94473 0.64264 0.68491 0.0
C979 C 0.92684 0.62894 0.70328 0.0
N980 N 0.92849 0.60724 0.6847 0.0
C981 C 0.93975 0.62329 0.67875 0.0
C982 C 0.92214 0.60982 0.69684 0.0
C983 C 0.9382 0.64545 0.69725 0.0
C984 C 0.92773 0.50776 0.662 0.0
N985 N 0.93766 0.52227 0.65423 0.0
C986 C 0.9384 0.48885 0.66573 0.0
C987 C 0.95938 0.48483 0.66145 0.0
C988 C 0.9694 0.4997 0.65352 0.0
C989 C 0.95824 0.51845 0.65 0.0
C990 C 0.92995 0.52008 0.61421 0.0
C991 C 0.93714 0.56028 0.62497 0.0
C992 C 0.9254 0.52378 0.6268 0.0
N993 N 0.92912 0.54366 0.63204 0.0
C994 C 0.94187 0.55718 0.61235 0.0
C995 C 0.93826 0.53691 0.60696 0.0
C996 C 0.90736 0.59459 0.64973 0.0
C997 C 0.86077 0.56348 0.68964 0.0
C998 C 0.88024 0.60026 0.67992 0.0
C999 C 0.85845 0.60101 0.68347 0.0
C1000 C 0.84868 0.58246 0.68836 0.0
N1001 N 0.89201 0.58159 0.68123 0.0
C1002 C 0.88254 0.56335 0.686 0.0
Co1003 Co 0.70661 0.67329 0.8988 0.0
Co1004 Co 0.67586 0.67181 0.92559 0.0
O1005 O 0.70297 0.66629 0.91653 0.0
C1006 C 0.72076 0.62712 0.89969 0.0
O1007 O 0.70322 0.6226 0.90615 0.0
C1008 C 0.70978 0.6908 0.94228 0.0
O1009 O 0.72003 0.69834 0.93246 0.0
O1010 O 0.67586 0.70279 0.92015 0.0
O1011 O 0.68884 0.70023 0.90065 0.0
H1012 H 0.60025 0.70108 0.93059 0.0
H1013 H 0.74564 0.66404 0.91406 0.0
O1014 O 0.72463 0.64656 0.89633 0.0
H1015 H 0.75557 0.73874 0.89857 0.0
H1016 H 0.74892 0.67987 0.85877 0.0
H1017 H 0.67736 0.68885 0.87873 0.0
H1018 H 0.72304 0.71768 0.89283 0.0
H1019 H 0.74401 0.67175 0.88113 0.0
O1020 O 0.69236 0.67993 0.94102 0.0
H1021 H 0.63437 0.69362 0.91935 0.0
H1022 H 0.66008 0.66203 0.95133 0.0
H1023 H 0.68158 0.69732 0.85637 0.0
H1024 H 0.77855 0.68444 0.91992 0.0
H1025 H 0.71758 0.69284 0.84624 0.0
H1026 H 0.78363 0.7221 0.91219 0.0
O1027 O 0.67997 0.65667 0.89435 0.0
H1028 H 0.70995 0.60406 0.94275 0.0
H1029 H 0.6428 0.63632 0.92596 0.0
H1030 H 0.64309 0.59776 0.93208 0.0
H1031 H 0.67684 0.58138 0.94057 0.0
H1032 H 0.70899 0.64252 0.93639 0.0
H1033 H 0.6263 0.66931 0.96295 0.0
H1034 H 0.59605 0.6889 0.95255 0.0
O1035 O 0.65823 0.66364 0.91064 0.0
C1036 C 0.6794 0.71075 0.90935 0.0
C1037 C 0.61328 0.69248 0.93521 0.0
C1038 C 0.62792 0.67468 0.95338 0.0
N1039 N 0.64915 0.67728 0.93465 0.0
C1040 C 0.63263 0.68817 0.92889 0.0
C1041 C 0.64703 0.67064 0.94676 0.0
C1042 C 0.61095 0.68566 0.94754 0.0
C1043 C 0.74785 0.68034 0.91056 0.0
N1044 N 0.73247 0.68963 0.90308 0.0
C1045 C 0.76647 0.69185 0.91395 0.0
C1046 C 0.76929 0.71299 0.90963 0.0
C1047 C 0.75354 0.72234 0.902 0.0
C1048 C 0.73512 0.71036 0.89881 0.0
C1049 C 0.73317 0.68193 0.86308 0.0
C1050 C 0.69311 0.68698 0.87441 0.0
C1051 C 0.73028 0.67732 0.87573 0.0
N1052 N 0.71046 0.67999 0.88125 0.0
C1053 C 0.69538 0.69175 0.86173 0.0
C1054 C 0.71558 0.68921 0.85606 0.0
C1055 C 0.66142 0.6565 0.89962 0.0
C1056 C 0.69514 0.61101 0.93909 0.0
C1057 C 0.65758 0.6293 0.92958 0.0
C1058 C 0.65762 0.60746 0.93307 0.0
C1059 C 0.67656 0.59829 0.93785 0.0
N1060 N 0.67585 0.64167 0.93084 0.0
C1061 C 0.69447 0.6328 0.93552 0.0
Co1062 Co 0.57755 0.45697 0.1485 0.0
Co1063 Co 0.58209 0.42584 0.17526 0.0
O1064 O 0.58636 0.45288 0.16594 0.0
C1065 C 0.62437 0.46906 0.14803 0.0
O1066 O 0.62866 0.45179 0.15477 0.0
C1067 C 0.56217 0.45944 0.19171 0.0
O1068 O 0.55389 0.46879 0.18179 0.0
O1069 O 0.55095 0.42427 0.17017 0.0
O1070 O 0.54991 0.44089 0.15152 0.0
H1071 H 0.55643 0.34912 0.18109 0.0
H1072 H 0.59078 0.49484 0.16374 0.0
O1073 O 0.60489 0.47343 0.14495 0.0
H1074 H 0.51559 0.51021 0.15068 0.0
H1075 H 0.56886 0.49964 0.10873 0.0
H1076 H 0.55737 0.42894 0.12926 0.0
H1077 H 0.53395 0.47665 0.14393 0.0
H1078 H 0.57942 0.49419 0.13071 0.0
O1079 O 0.57375 0.44244 0.19063 0.0
H1080 H 0.56207 0.38325 0.16952 0.0
H1081 H 0.59317 0.41117 0.20104 0.0
H1082 H 0.54638 0.43373 0.1073 0.0
H1083 H 0.57314 0.52874 0.17059 0.0
H1084 H 0.55213 0.46929 0.09689 0.0
H1085 H 0.53524 0.53657 0.16409 0.0
O1086 O 0.5921 0.42941 0.1433 0.0
H1087 H 0.64893 0.46306 0.19146 0.0
H1088 H 0.61893 0.39431 0.17546 0.0
H1089 H 0.65765 0.39631 0.18114 0.0
H1090 H 0.67289 0.43087 0.18923 0.0
H1091 H 0.61033 0.46039 0.18555 0.0
H1092 H 0.5877 0.37741 0.21299 0.0
H1093 H 0.56927 0.34605 0.20299 0.0
O1094 O 0.59046 0.4084 0.16038 0.0
C1095 C 0.54109 0.42977 0.16018 0.0
C1096 C 0.56452 0.36265 0.18554 0.0
C1097 C 0.58204 0.37854 0.20345 0.0
N1098 N 0.57804 0.39915 0.18458 0.0
C1099 C 0.56781 0.382 0.17903 0.0
C1100 C 0.58505 0.39764 0.19665 0.0
C1101 C 0.57172 0.36095 0.19783 0.0
C1102 C 0.57434 0.49821 0.16079 0.0
N1103 N 0.56339 0.48375 0.15346 0.0
C1104 C 0.56442 0.5174 0.16474 0.0
C1105 C 0.54314 0.52176 0.1611 0.0
C1106 C 0.5321 0.50697 0.15359 0.0
C1107 C 0.54253 0.48794 0.14985 0.0
C1108 C 0.56625 0.48407 0.11317 0.0
C1109 C 0.55981 0.4445 0.12481 0.0
C1110 C 0.57225 0.48088 0.1256 0.0
N1111 N 0.56891 0.4613 0.13128 0.0
C1112 C 0.55361 0.4471 0.11237 0.0
C1113 C 0.55685 0.46704 0.10653 0.0
C1114 C 0.59476 0.41129 0.14886 0.0
C1115 C 0.64247 0.44789 0.18797 0.0
C1116 C 0.62545 0.40943 0.17891 0.0
C1117 C 0.64738 0.41045 0.18216 0.0
C1118 C 0.65591 0.42984 0.1867 0.0
N1119 N 0.61237 0.4272 0.18019 0.0
C1120 C 0.62061 0.44626 0.18465 0.0
Co1121 Co 0.79871 0.33016 0.39753 0.0
Co1122 Co 0.83065 0.33184 0.42373 0.0
O1123 O 0.80326 0.33782 0.41506 0.0
C1124 C 0.78473 0.37642 0.39805 0.0
O1125 O 0.80254 0.38118 0.40421 0.0
C1126 C 0.79698 0.31458 0.44101 0.0
O1127 O 0.787 0.30614 0.43134 0.0
O1128 O 0.82917 0.30064 0.41892 0.0
O1129 O 0.81646 0.30314 0.39938 0.0
H1130 H 0.90523 0.29979 0.42822 0.0
H1131 H 0.76047 0.34005 0.41328 0.0
O1132 O 0.78068 0.35686 0.39501 0.0
H1133 H 0.74947 0.26494 0.39872 0.0
H1134 H 0.75463 0.32241 0.3582 0.0
H1135 H 0.82703 0.31389 0.3772 0.0
H1136 H 0.7818 0.28567 0.39224 0.0
H1137 H 0.76054 0.33122 0.38039 0.0
O1138 O 0.81445 0.32531 0.43954 0.0
H1139 H 0.87091 0.30794 0.41734 0.0
H1140 H 0.84802 0.34255 0.44899 0.0
H1141 H 0.8218 0.30471 0.355 0.0
H1142 H 0.72778 0.31999 0.41988 0.0
H1143 H 0.78538 0.30896 0.34536 0.0
H1144 H 0.72216 0.28213 0.41262 0.0
O1145 O 0.82518 0.34656 0.39261 0.0
H1146 H 0.80043 0.40191 0.44023 0.0
H1147 H 0.86501 0.36596 0.42256 0.0
H1148 H 0.86667 0.40484 0.42792 0.0
H1149 H 0.83423 0.42306 0.43684 0.0
H1150 H 0.79941 0.36309 0.43463 0.0
H1151 H 0.88202 0.33463 0.46024 0.0
H1152 H 0.91096 0.31318 0.44983 0.0
O1153 O 0.84788 0.33837 0.40828 0.0
C1154 C 0.82556 0.29254 0.40817 0.0
C1155 C 0.89278 0.30922 0.43284 0.0
C1156 C 0.87974 0.32875 0.45082 0.0
N1157 N 0.85755 0.32586 0.43248 0.0
C1158 C 0.87333 0.31393 0.42672 0.0
C1159 C 0.8605 0.33315 0.44441 0.0
C1160 C 0.89597 0.31672 0.44497 0.0
C1161 C 0.75802 0.32366 0.40998 0.0
N1162 N 0.77299 0.31408 0.40236 0.0
C1163 C 0.73953 0.31235 0.41379 0.0
C1164 C 0.73641 0.29109 0.40973 0.0
C1165 C 0.75174 0.28143 0.40195 0.0
C1166 C 0.77005 0.29323 0.39835 0.0
C1167 C 0.77056 0.32045 0.3623 0.0
C1168 C 0.8111 0.31566 0.37309 0.0
C1169 C 0.77402 0.32545 0.37486 0.0
N1170 N 0.79407 0.32291 0.38011 0.0
C1171 C 0.80825 0.31049 0.36051 0.0
C1172 C 0.78782 0.3129 0.35511 0.0
C1173 C 0.84413 0.34585 0.39738 0.0
C1174 C 0.81469 0.39414 0.43638 0.0
C1175 C 0.85079 0.37379 0.4264 0.0
C1176 C 0.85186 0.3958 0.42945 0.0
C1177 C 0.83365 0.406 0.43446 0.0
N1178 N 0.83214 0.36225 0.42834 0.0
C1179 C 0.81423 0.37215 0.43324 0.0
Co1180 Co 0.92663 0.4563 0.86055 0.0
Co1181 Co 0.92179 0.42497 0.83389 0.0
O1182 O 0.91751 0.45206 0.84318 0.0
C1183 C 0.87977 0.46832 0.86127 0.0
O1184 O 0.87538 0.45107 0.85454 0.0
C1185 C 0.94078 0.4587 0.8171 0.0
O1186 O 0.94888 0.46863 0.82688 0.0
O1187 O 0.95306 0.42371 0.83875 0.0
O1188 O 0.95427 0.4403 0.8574 0.0
H1189 H 0.948 0.34842 0.82809 0.0
H1190 H 0.91293 0.49406 0.84537 0.0
O1191 O 0.8993 0.47268 0.86425 0.0
H1192 H 0.98832 0.50978 0.8579 0.0
H1193 H 0.93592 0.49925 0.90018 0.0
H1194 H 0.94728 0.42846 0.87973 0.0
H1195 H 0.97025 0.47616 0.86479 0.0
H1196 H 0.92496 0.49363 0.87829 0.0
O1197 O 0.92966 0.44145 0.8184 0.0
H1198 H 0.94232 0.38261 0.8396 0.0
H1199 H 0.91023 0.40996 0.80824 0.0
H1200 H 0.95866 0.43344 0.90161 0.0
H1201 H 0.93027 0.52804 0.83838 0.0
H1202 H 0.95298 0.46904 0.91198 0.0
H1203 H 0.96827 0.53603 0.84461 0.0
O1204 O 0.91229 0.42872 0.86591 0.0
H1205 H 0.8543 0.46148 0.81805 0.0
H1206 H 0.88521 0.39315 0.83409 0.0
H1207 H 0.84635 0.39477 0.82867 0.0
H1208 H 0.83066 0.42913 0.82056 0.0
H1209 H 0.89304 0.45918 0.8237 0.0
H1210 H 0.91573 0.37613 0.79636 0.0
H1211 H 0.93466 0.34503 0.80631 0.0
O1212 O 0.91391 0.40758 0.84889 0.0
C1213 C 0.96304 0.42926 0.84869 0.0
C1214 C 0.93968 0.36183 0.82367 0.0
C1215 C 0.92159 0.3774 0.80585 0.0
N1216 N 0.92585 0.39822 0.82463 0.0
C1217 C 0.93637 0.38122 0.83015 0.0
C1218 C 0.91858 0.39654 0.81262 0.0
C1219 C 0.93221 0.35995 0.81144 0.0
C1220 C 0.92941 0.49751 0.8482 0.0
N1221 N 0.94059 0.48311 0.85546 0.0
C1222 C 0.93917 0.51674 0.84418 0.0
C1223 C 0.9605 0.5212 0.84766 0.0
C1224 C 0.97177 0.50646 0.8551 0.0
C1225 C 0.9615 0.48739 0.85892 0.0
C1226 C 0.9385 0.48367 0.89576 0.0
C1227 C 0.94486 0.44404 0.88416 0.0
C1228 C 0.93227 0.48037 0.88338 0.0
N1229 N 0.93558 0.46077 0.87772 0.0
C1230 C 0.95129 0.44674 0.89656 0.0
C1231 C 0.94808 0.46672 0.90237 0.0
C1232 C 0.90975 0.41052 0.86041 0.0
C1233 C 0.86096 0.44641 0.82155 0.0
C1234 C 0.87849 0.40817 0.83062 0.0
C1235 C 0.85648 0.40898 0.82753 0.0
C1236 C 0.8477 0.42826 0.82297 0.0
N1237 N 0.8914 0.42604 0.82918 0.0
C1238 C 0.8829 0.44498 0.82472 0.0
Co1239 Co 0.79924 0.67262 0.11044 0.0
Co1240 Co 0.82962 0.67052 0.08351 0.0
O1241 O 0.80265 0.66531 0.09274 0.0
C1242 C 0.78487 0.62651 0.10978 0.0
O1243 O 0.80229 0.62184 0.10325 0.0
C1244 C 0.79577 0.69013 0.06712 0.0
O1245 O 0.78644 0.69839 0.07706 0.0
O1246 O 0.82999 0.70156 0.08884 0.0
O1247 O 0.81704 0.69948 0.10837 0.0
H1248 H 0.90538 0.69905 0.07793 0.0
H1249 H 0.76009 0.66327 0.09531 0.0
O1250 O 0.78118 0.64599 0.11313 0.0
H1251 H 0.75046 0.73822 0.11046 0.0
H1252 H 0.75741 0.68 0.15059 0.0
H1253 H 0.82876 0.68844 0.13032 0.0
H1254 H 0.78295 0.71713 0.11626 0.0
H1255 H 0.76204 0.67148 0.12826 0.0
O1256 O 0.81282 0.67861 0.06819 0.0
H1257 H 0.87142 0.69201 0.08942 0.0
H1258 H 0.84479 0.66037 0.0577 0.0
H1259 H 0.82481 0.6973 0.15264 0.0
H1260 H 0.72723 0.6837 0.08939 0.0
H1261 H 0.78893 0.69309 0.16292 0.0
H1262 H 0.7223 0.72149 0.09695 0.0
O1263 O 0.82591 0.65603 0.11488 0.0
H1264 H 0.79468 0.60288 0.06678 0.0
H1265 H 0.86237 0.63476 0.08308 0.0
H1266 H 0.86168 0.59613 0.07709 0.0
H1267 H 0.82765 0.57995 0.06885 0.0
H1268 H 0.79606 0.6414 0.073 0.0
H1269 H 0.8784 0.66725 0.04584 0.0
H1270 H 0.90903 0.68664 0.05598 0.0
O1271 O 0.84744 0.66238 0.0984 0.0
C1272 C 0.82651 0.70976 0.09959 0.0
C1273 C 0.89218 0.69053 0.07342 0.0
C1274 C 0.87702 0.67271 0.05541 0.0
N1275 N 0.85619 0.67567 0.07427 0.0
C1276 C 0.87292 0.68645 0.07989 0.0
C1277 C 0.85801 0.66891 0.06216 0.0
C1278 C 0.8942 0.68358 0.0611 0.0
C1279 C 0.75794 0.67962 0.09874 0.0
N1280 N 0.77337 0.68896 0.10616 0.0
C1281 C 0.73935 0.69115 0.09531 0.0
C1282 C 0.73662 0.71236 0.09954 0.0
C1283 C 0.75242 0.72176 0.10711 0.0
C1284 C 0.77082 0.70976 0.11033 0.0
C1285 C 0.77312 0.68194 0.14621 0.0
C1286 C 0.81306 0.68669 0.1347 0.0
C1287 C 0.77585 0.67711 0.13357 0.0
N1288 N 0.79561 0.67963 0.12797 0.0
C1289 C 0.81094 0.69168 0.14736 0.0
C1290 C 0.7908 0.68929 0.15312 0.0
C1291 C 0.84438 0.65557 0.10951 0.0
C1292 C 0.80962 0.60975 0.07033 0.0
C1293 C 0.84748 0.62782 0.07957 0.0
C1294 C 0.8472 0.60595 0.07615 0.0
C1295 C 0.82811 0.59689 0.07152 0.0
N1296 N 0.82928 0.64033 0.07837 0.0
C1297 C 0.81052 0.63156 0.07383 0.0
Co1298 Co 0.5796 0.54957 0.35996 0.0
Co1299 Co 0.58189 0.58013 0.3331 0.0
O1300 O 0.58704 0.55308 0.34228 0.0
C1301 C 0.62573 0.53524 0.35939 0.0
O1302 O 0.63041 0.55256 0.35278 0.0
C1303 C 0.5629 0.54621 0.31642 0.0
O1304 O 0.55508 0.53618 0.32624 0.0
O1305 O 0.5508 0.58043 0.33834 0.0
O1306 O 0.55275 0.56737 0.35785 0.0
H1307 H 0.55332 0.65592 0.32768 0.0
H1308 H 0.58917 0.51044 0.34486 0.0
O1309 O 0.60623 0.53154 0.36271 0.0
H1310 H 0.51405 0.50074 0.35973 0.0
H1311 H 0.57193 0.50754 0.40002 0.0
H1312 H 0.56363 0.57898 0.37985 0.0
H1313 H 0.53503 0.53326 0.36559 0.0
H1314 H 0.5806 0.51228 0.37772 0.0
O1315 O 0.57392 0.56354 0.31767 0.0
H1316 H 0.5603 0.62184 0.33907 0.0
H1317 H 0.59227 0.59558 0.30737 0.0
H1318 H 0.55461 0.57493 0.40215 0.0
H1319 H 0.56886 0.47754 0.33889 0.0
H1320 H 0.55874 0.53899 0.41238 0.0
H1321 H 0.53099 0.47258 0.34631 0.0
O1322 O 0.59614 0.57621 0.3645 0.0
H1323 H 0.64969 0.54538 0.31643 0.0
H1324 H 0.61765 0.6129 0.33286 0.0
H1325 H 0.65633 0.61227 0.32697 0.0
H1326 H 0.67259 0.57832 0.31866 0.0
H1327 H 0.61112 0.54668 0.32256 0.0
H1328 H 0.58547 0.62929 0.2956 0.0
H1329 H 0.56594 0.65979 0.30578 0.0
O1330 O 0.5899 0.59783 0.34805 0.0
C1331 C 0.54253 0.57691 0.34906 0.0
C1332 C 0.5619 0.64276 0.32316 0.0
C1333 C 0.57992 0.62781 0.30515 0.0
N1334 N 0.5768 0.60679 0.32392 0.0
C1335 C 0.56594 0.62345 0.32957 0.0
C1336 C 0.58368 0.60874 0.31185 0.0
C1337 C 0.56897 0.64492 0.31086 0.0
C1338 C 0.57278 0.50828 0.34823 0.0
N1339 N 0.56333 0.52371 0.35559 0.0
C1340 C 0.56132 0.48967 0.34477 0.0
C1341 C 0.54006 0.48691 0.34892 0.0
C1342 C 0.53054 0.50272 0.35644 0.0
C1343 C 0.54248 0.52114 0.35969 0.0
C1344 C 0.57001 0.52327 0.39566 0.0
C1345 C 0.56534 0.56326 0.38421 0.0
C1346 C 0.57493 0.52606 0.38304 0.0
N1347 N 0.57245 0.54585 0.37746 0.0
C1348 C 0.56027 0.56108 0.39685 0.0
C1349 C 0.56261 0.54092 0.40259 0.0
C1350 C 0.59662 0.59471 0.35917 0.0
C1351 C 0.64279 0.56027 0.32002 0.0
C1352 C 0.62462 0.59804 0.32932 0.0
C1353 C 0.64652 0.5978 0.32596 0.0
C1354 C 0.65563 0.57876 0.32129 0.0
N1355 N 0.61213 0.57986 0.32804 0.0
C1356 C 0.62094 0.56113 0.32346 0.0
Co1357 Co 0.70637 0.33273 0.60825 0.0
Co1358 Co 0.67353 0.33205 0.58241 0.0
O1359 O 0.70092 0.3393 0.59068 0.0
C1360 C 0.71815 0.37968 0.60773 0.0
O1361 O 0.69872 0.38406 0.60337 0.0
C1362 C 0.70721 0.31457 0.56531 0.0
O1363 O 0.71714 0.30655 0.57512 0.0
O1364 O 0.67604 0.3012 0.5878 0.0
O1365 O 0.6894 0.30504 0.60713 0.0
H1366 H 0.5998 0.29767 0.5792 0.0
H1367 H 0.74363 0.34286 0.59175 0.0
O1368 O 0.72373 0.36012 0.60988 0.0
H1369 H 0.75762 0.26905 0.6076 0.0
H1370 H 0.75228 0.3289 0.64706 0.0
H1371 H 0.67954 0.31651 0.62924 0.0
H1372 H 0.72493 0.28914 0.61414 0.0
H1373 H 0.74511 0.33633 0.62482 0.0
O1374 O 0.68959 0.32514 0.56661 0.0
H1375 H 0.63413 0.30742 0.58962 0.0
H1376 H 0.65526 0.34075 0.55712 0.0
H1377 H 0.68604 0.3087 0.6515 0.0
H1378 H 0.77666 0.32344 0.58509 0.0
H1379 H 0.72264 0.3149 0.66054 0.0
H1380 H 0.78379 0.28622 0.593 0.0
O1381 O 0.6795 0.34845 0.61322 0.0
H1382 H 0.70132 0.40214 0.5646 0.0
H1383 H 0.63815 0.36514 0.58319 0.0
H1384 H 0.63519 0.40366 0.57721 0.0
H1385 H 0.66692 0.42241 0.56781 0.0
H1386 H 0.70362 0.36366 0.57081 0.0
H1387 H 0.62122 0.33121 0.54632 0.0
H1388 H 0.59317 0.30959 0.55739 0.0
O1389 O 0.65654 0.33898 0.5979 0.0
C1390 C 0.68028 0.29376 0.59863 0.0
C1391 C 0.61186 0.30716 0.57429 0.0
C1392 C 0.6239 0.32596 0.55583 0.0
N1393 N 0.6466 0.32479 0.57402 0.0
C1394 C 0.63131 0.31278 0.58015 0.0
C1395 C 0.64316 0.33127 0.56199 0.0
C1396 C 0.60817 0.31383 0.56205 0.0
C1397 C 0.74674 0.32676 0.59534 0.0
N1398 N 0.7324 0.31719 0.60335 0.0
C1399 C 0.76542 0.31581 0.59148 0.0
C1400 C 0.76938 0.29491 0.59591 0.0
C1401 C 0.7547 0.28526 0.60409 0.0
C1402 C 0.73617 0.29669 0.60773 0.0
C1403 C 0.73628 0.32609 0.64322 0.0
C1404 C 0.69554 0.31911 0.63309 0.0
C1405 C 0.73211 0.33029 0.63064 0.0
N1406 N 0.71197 0.32665 0.62571 0.0
C1407 C 0.69911 0.31472 0.64571 0.0
C1408 C 0.71964 0.31822 0.65078 0.0
C1409 C 0.66045 0.34712 0.60863 0.0
C1410 C 0.68736 0.39413 0.56865 0.0
C1411 C 0.65204 0.37319 0.57913 0.0
C1412 C 0.65026 0.395 0.57574 0.0
C1413 C 0.66806 0.4055 0.57047 0.0
N1414 N 0.67101 0.36213 0.57728 0.0
C1415 C 0.68854 0.37233 0.57214 0.0
Co1416 Co 0.07761 0.45679 0.35938 0.0
Co1417 Co 0.08393 0.4246 0.3331 0.0
O1418 O 0.08717 0.45207 0.34215 0.0
C1419 C 0.1244 0.46886 0.36029 0.0
O1420 O 0.12886 0.4515 0.35367 0.0
C1421 C 0.06299 0.45719 0.31639 0.0
O1422 O 0.05459 0.4666 0.32626 0.0
O1423 O 0.05283 0.42194 0.3382 0.0
O1424 O 0.05015 0.44065 0.35614 0.0
H1425 H 0.06128 0.34677 0.32808 0.0
H1426 H 0.09157 0.49409 0.34391 0.0
O1427 O 0.10484 0.47332 0.36315 0.0
H1428 H 0.01584 0.50997 0.35566 0.0
H1429 H 0.06725 0.50085 0.39852 0.0
H1430 H 0.05647 0.42948 0.37864 0.0
H1431 H 0.03385 0.47665 0.36308 0.0
H1432 H 0.0788 0.49461 0.37677 0.0
O1433 O 0.07491 0.44043 0.31758 0.0
H1434 H 0.06571 0.38143 0.33931 0.0
H1435 H 0.09533 0.40964 0.30741 0.0
H1436 H 0.04451 0.43507 0.40036 0.0
H1437 H 0.07428 0.52774 0.33638 0.0
H1438 H 0.04989 0.47097 0.41045 0.0
H1439 H 0.03611 0.53581 0.34222 0.0
O1440 O 0.09189 0.42943 0.36513 0.0
H1441 H 0.14925 0.46422 0.31675 0.0
H1442 H 0.12186 0.39441 0.33273 0.0
H1443 H 0.16047 0.39782 0.32702 0.0
H1444 H 0.1744 0.43294 0.31894 0.0
H1445 H 0.11081 0.46012 0.32271 0.0
H1446 H 0.09105 0.37535 0.29581 0.0
H1447 H 0.07399 0.34358 0.30616 0.0
O1448 O 0.09311 0.40797 0.34818 0.0
C1449 C 0.04217 0.42837 0.34773 0.0
C1450 C 0.06879 0.36048 0.32348 0.0
C1451 C 0.08547 0.37653 0.30536 0.0
N1452 N 0.08088 0.39749 0.32406 0.0
C1453 C 0.0714 0.38012 0.3298 0.0
C1454 C 0.0878 0.39592 0.31197 0.0
C1455 C 0.07591 0.35871 0.31118 0.0
C1456 C 0.07501 0.49758 0.34657 0.0
N1457 N 0.06372 0.4834 0.35391 0.0
C1458 C 0.06528 0.51662 0.34224 0.0
C1459 C 0.04385 0.52112 0.3455 0.0
C1460 C 0.03246 0.50662 0.35303 0.0
C1461 C 0.04271 0.48772 0.35716 0.0
C1462 C 0.0648 0.48514 0.39422 0.0
C1463 C 0.05876 0.44518 0.38294 0.0
C1464 C 0.07136 0.4815 0.38193 0.0
N1465 N 0.06821 0.46173 0.37642 0.0
C1466 C 0.052 0.44824 0.39525 0.0
C1467 C 0.05504 0.46837 0.40091 0.0
C1468 C 0.09613 0.41139 0.3598 0.0
C1469 C 0.14338 0.44883 0.32025 0.0
C1470 C 0.12783 0.40976 0.32932 0.0
C1471 C 0.14969 0.41158 0.32604 0.0
C1472 C 0.15749 0.43128 0.3215 0.0
N1473 N 0.1141 0.42705 0.3281 0.0
C1474 C 0.12161 0.44639 0.3236 0.0
Co1475 Co 0.29954 0.32822 0.10929 0.0
Co1476 Co 0.33163 0.33025 0.08314 0.0
O1477 O 0.30415 0.33595 0.09178 0.0
C1478 C 0.28541 0.37444 0.10884 0.0
O1479 O 0.30325 0.37927 0.10273 0.0
C1480 C 0.29815 0.31257 0.0659 0.0
O1481 O 0.28832 0.30406 0.0756 0.0
O1482 O 0.33054 0.29905 0.08797 0.0
O1483 O 0.31742 0.30128 0.10743 0.0
H1484 H 0.40661 0.29912 0.07873 0.0
H1485 H 0.26134 0.338 0.09348 0.0
O1486 O 0.28138 0.35484 0.11181 0.0
H1487 H 0.2506 0.26278 0.10792 0.0
H1488 H 0.2553 0.32016 0.14853 0.0
H1489 H 0.32781 0.31195 0.12963 0.0
H1490 H 0.2828 0.28363 0.11449 0.0
H1491 H 0.26128 0.32908 0.12637 0.0
O1492 O 0.31552 0.32348 0.06732 0.0
H1493 H 0.37217 0.30687 0.08958 0.0
H1494 H 0.34891 0.34109 0.05788 0.0
H1495 H 0.32251 0.30267 0.15181 0.0
H1496 H 0.22877 0.31782 0.0868 0.0
H1497 H 0.28603 0.30676 0.1614 0.0
H1498 H 0.22329 0.2799 0.094 0.0
O1499 O 0.32588 0.34474 0.11428 0.0
H1500 H 0.30061 0.39992 0.06657 0.0
H1501 H 0.36558 0.36479 0.0843 0.0
H1502 H 0.36679 0.40368 0.07893 0.0
H1503 H 0.33415 0.42149 0.06997 0.0
H1504 H 0.30004 0.3611 0.07219 0.0
H1505 H 0.38303 0.33355 0.04665 0.0
H1506 H 0.41221 0.3125 0.0571 0.0
O1507 O 0.34876 0.33705 0.0986 0.0
C1508 C 0.32679 0.29083 0.09867 0.0
C1509 C 0.39405 0.30837 0.07409 0.0
C1510 C 0.3808 0.32767 0.05608 0.0
N1511 N 0.35862 0.32457 0.07441 0.0
C1512 C 0.37454 0.31286 0.0802 0.0
C1513 C 0.3615 0.33185 0.06248 0.0
C1514 C 0.39717 0.31586 0.06195 0.0
C1515 C 0.25894 0.32158 0.09676 0.0
N1516 N 0.27391 0.31204 0.10439 0.0
C1517 C 0.24052 0.3102 0.0929 0.0
C1518 C 0.23748 0.28892 0.09692 0.0
C1519 C 0.25281 0.27929 0.10472 0.0
C1520 C 0.27105 0.29116 0.10837 0.0
C1521 C 0.27125 0.31826 0.14446 0.0
C1522 C 0.31186 0.31365 0.13372 0.0
C1523 C 0.27475 0.32333 0.13191 0.0
N1524 N 0.29484 0.32088 0.12669 0.0
C1525 C 0.30897 0.30842 0.14629 0.0
C1526 C 0.28851 0.31074 0.15167 0.0
C1527 C 0.34484 0.34439 0.10951 0.0
C1528 C 0.31495 0.39233 0.07043 0.0
C1529 C 0.35128 0.37243 0.08045 0.0
C1530 C 0.35208 0.39445 0.07739 0.0
C1531 C 0.33377 0.40443 0.07236 0.0
N1532 N 0.33278 0.36067 0.07851 0.0
C1533 C 0.31475 0.37034 0.07359 0.0
Co1534 Co 0.42483 0.54674 0.86235 0.0
Co1535 Co 0.42336 0.57448 0.83437 0.0
O1536 O 0.41792 0.54841 0.84447 0.0
C1537 C 0.3788 0.53226 0.86169 0.0
O1538 O 0.37439 0.54887 0.85444 0.0
C1539 C 0.43554 0.53639 0.81787 0.0
O1540 O 0.43316 0.52277 0.82716 0.0
O1541 O 0.45421 0.57533 0.83998 0.0
O1542 O 0.45167 0.56443 0.8599 0.0
H1543 H 0.45197 0.64976 0.82706 0.0
H1544 H 0.41554 0.50528 0.8493 0.0
O1545 O 0.39814 0.52899 0.86543 0.0
H1546 H 0.49072 0.4985 0.86459 0.0
H1547 H 0.43127 0.50915 0.90391 0.0
H1548 H 0.44011 0.57829 0.88131 0.0
H1549 H 0.46957 0.53169 0.86869 0.0
H1550 H 0.42329 0.51145 0.8814 0.0
O1551 O 0.43243 0.55666 0.81943 0.0
H1552 H 0.44451 0.61679 0.83937 0.0
H1553 H 0.41426 0.58744 0.808 0.0
H1554 H 0.44842 0.57668 0.9038 0.0
H1555 H 0.43601 0.47164 0.84519 0.0
H1556 H 0.44401 0.54191 0.91525 0.0
H1557 H 0.47392 0.46814 0.8528 0.0
O1558 O 0.40807 0.57365 0.86573 0.0
H1559 H 0.35523 0.53842 0.81875 0.0
H1560 H 0.38819 0.60749 0.8321 0.0
H1561 H 0.34977 0.60677 0.82576 0.0
H1562 H 0.33304 0.57206 0.81896 0.0
H1563 H 0.39346 0.53981 0.82532 0.0
H1564 H 0.42158 0.62002 0.79533 0.0
H1565 H 0.44048 0.65152 0.80487 0.0
O1566 O 0.41456 0.59362 0.84864 0.0
C1567 C 0.46214 0.57301 0.8509 0.0
C1568 C 0.44367 0.63617 0.82281 0.0
C1569 C 0.42664 0.61946 0.80499 0.0
N1570 N 0.42883 0.60026 0.82445 0.0
C1571 C 0.43934 0.61747 0.82974 0.0
C1572 C 0.42259 0.60103 0.81221 0.0
C1573 C 0.43723 0.63714 0.81035 0.0
C1574 C 0.43197 0.50382 0.85274 0.0
N1575 N 0.44136 0.5205 0.85916 0.0
C1576 C 0.44351 0.48476 0.85033 0.0
C1577 C 0.46479 0.48282 0.85459 0.0
C1578 C 0.47424 0.49986 0.86119 0.0
C1579 C 0.46221 0.51868 0.86341 0.0
C1580 C 0.4333 0.52438 0.89902 0.0
C1581 C 0.43828 0.56307 0.88621 0.0
C1582 C 0.42878 0.52579 0.88627 0.0
N1583 N 0.43142 0.54494 0.88002 0.0
C1584 C 0.44296 0.56227 0.89895 0.0
C1585 C 0.44046 0.54276 0.90537 0.0
C1586 C 0.40756 0.59155 0.85979 0.0
C1587 C 0.36237 0.55368 0.8216 0.0
C1588 C 0.38107 0.59231 0.82918 0.0
C1589 C 0.35929 0.59201 0.82557 0.0
C1590 C 0.34992 0.57254 0.82176 0.0
N1591 N 0.39326 0.57377 0.82892 0.0
C1592 C 0.38411 0.5546 0.82526 0.0
Co1593 Co 0.20491 0.67109 0.60776 0.0
Co1594 Co 0.17146 0.6701 0.58195 0.0
O1595 O 0.19918 0.66423 0.59024 0.0
C1596 C 0.21653 0.62412 0.60726 0.0
O1597 O 0.19705 0.6198 0.60295 0.0
C1598 C 0.20427 0.68998 0.565 0.0
O1599 O 0.21456 0.69747 0.57482 0.0
O1600 O 0.17174 0.70088 0.58781 0.0
O1601 O 0.18814 0.69872 0.60647 0.0
H1602 H 0.09544 0.69918 0.57921 0.0
H1603 H 0.2418 0.66031 0.5911 0.0
O1604 O 0.22214 0.64364 0.60948 0.0
H1605 H 0.25647 0.73445 0.60624 0.0
H1606 H 0.25158 0.67548 0.64625 0.0
H1607 H 0.17866 0.68825 0.62876 0.0
H1608 H 0.22381 0.7147 0.61315 0.0
H1609 H 0.24392 0.66754 0.62413 0.0
O1610 O 0.18698 0.67891 0.5663 0.0
H1611 H 0.13035 0.69129 0.58953 0.0
H1612 H 0.15399 0.66165 0.55642 0.0
H1613 H 0.18565 0.69657 0.6509 0.0
H1614 H 0.27479 0.67939 0.58406 0.0
H1615 H 0.22234 0.69019 0.65979 0.0
H1616 H 0.28225 0.71676 0.5916 0.0
O1617 O 0.17804 0.65571 0.61318 0.0
H1618 H 0.20477 0.60304 0.56343 0.0
H1619 H 0.13832 0.63471 0.58142 0.0
H1620 H 0.1383 0.59639 0.57482 0.0
H1621 H 0.17171 0.58032 0.56571 0.0
H1622 H 0.2041 0.64124 0.57029 0.0
H1623 H 0.11941 0.6694 0.54572 0.0
H1624 H 0.08981 0.68821 0.55714 0.0
O1625 O 0.15502 0.66113 0.59722 0.0
C1626 C 0.17735 0.70911 0.59825 0.0
C1627 C 0.10819 0.69092 0.57414 0.0
C1628 C 0.12166 0.67423 0.55534 0.0
N1629 N 0.14412 0.67589 0.57362 0.0
C1630 C 0.12797 0.68635 0.57995 0.0
C1631 C 0.14122 0.66994 0.56144 0.0
C1632 C 0.10505 0.68478 0.56176 0.0
C1633 C 0.24505 0.67649 0.59453 0.0
N1634 N 0.23093 0.68634 0.60256 0.0
C1635 C 0.26371 0.68724 0.59046 0.0
C1636 C 0.26787 0.70823 0.59468 0.0
C1637 C 0.2534 0.71817 0.60288 0.0
C1638 C 0.23489 0.70693 0.60674 0.0
C1639 C 0.23554 0.67838 0.64248 0.0
C1640 C 0.1947 0.68555 0.63253 0.0
C1641 C 0.23109 0.67387 0.62997 0.0
N1642 N 0.2109 0.6776 0.62513 0.0
C1643 C 0.19855 0.69024 0.64509 0.0
C1644 C 0.21913 0.68663 0.65007 0.0
C1645 C 0.15916 0.65477 0.60831 0.0
C1646 C 0.19011 0.60986 0.56737 0.0
C1647 C 0.15294 0.6278 0.57757 0.0
C1648 C 0.15282 0.60611 0.57379 0.0
C1649 C 0.17156 0.59711 0.56867 0.0
N1650 N 0.17119 0.6402 0.57627 0.0
C1651 C 0.18962 0.63149 0.57125 0.0
Co1652 Co 0.08155 0.54827 0.1482 0.0
Co1653 Co 0.08387 0.57847 0.1752 0.0
O1654 O 0.08895 0.5515 0.16591 0.0
C1655 C 0.1276 0.5336 0.14872 0.0
O1656 O 0.13243 0.55078 0.15541 0.0
C1657 C 0.06476 0.54438 0.19174 0.0
O1658 O 0.05699 0.53443 0.18187 0.0
O1659 O 0.0528 0.57894 0.16994 0.0
O1660 O 0.0548 0.56619 0.15036 0.0
H1661 H 0.0556 0.6543 0.18089 0.0
H1662 H 0.09084 0.50888 0.16313 0.0
O1663 O 0.10807 0.53011 0.14539 0.0
H1664 H 0.0157 0.49983 0.14815 0.0
H1665 H 0.0737 0.50683 0.10795 0.0
H1666 H 0.06582 0.57805 0.12843 0.0
H1667 H 0.03689 0.5323 0.14245 0.0
H1668 H 0.08234 0.51121 0.13028 0.0
O1669 O 0.07579 0.56172 0.19056 0.0
H1670 H 0.06248 0.62034 0.16937 0.0
H1671 H 0.09422 0.59356 0.20101 0.0
H1672 H 0.05683 0.57436 0.10611 0.0
H1673 H 0.07031 0.47602 0.16893 0.0
H1674 H 0.06076 0.53854 0.09572 0.0
H1675 H 0.03243 0.47138 0.16146 0.0
O1676 O 0.09827 0.57487 0.14381 0.0
H1677 H 0.15149 0.54323 0.19177 0.0
H1678 H 0.11976 0.6111 0.17563 0.0
H1679 H 0.15841 0.61024 0.18156 0.0
H1680 H 0.17451 0.57612 0.18973 0.0
H1681 H 0.11295 0.54477 0.18561 0.0
H1682 H 0.08751 0.62716 0.2129 0.0
H1683 H 0.06815 0.65786 0.20282 0.0
O1684 O 0.09202 0.59633 0.16032 0.0
C1685 C 0.04456 0.57561 0.15918 0.0
C1686 C 0.0641 0.64106 0.18537 0.0
C1687 C 0.08199 0.62581 0.20334 0.0
N1688 N 0.07886 0.60504 0.18448 0.0
C1689 C 0.06809 0.62181 0.17889 0.0
C1690 C 0.08569 0.60681 0.19657 0.0
C1691 C 0.07113 0.64304 0.19768 0.0
C1692 C 0.07444 0.50686 0.15974 0.0
N1693 N 0.06511 0.52245 0.15243 0.0
C1694 C 0.06286 0.48827 0.1631 0.0
C1695 C 0.0416 0.4857 0.15892 0.0
C1696 C 0.03219 0.50167 0.15147 0.0
C1697 C 0.04425 0.52005 0.14831 0.0
C1698 C 0.07188 0.52251 0.11237 0.0
C1699 C 0.06744 0.56238 0.124 0.0
C1700 C 0.07679 0.5251 0.12501 0.0
N1701 N 0.07442 0.54483 0.13068 0.0
C1702 C 0.06239 0.5604 0.11135 0.0
C1703 C 0.06462 0.54031 0.10552 0.0
C1704 C 0.09879 0.59331 0.1492 0.0
C1705 C 0.14465 0.5582 0.18825 0.0
C1706 C 0.12666 0.59617 0.17911 0.0
C1707 C 0.14855 0.5958 0.1825 0.0
C1708 C 0.15757 0.57666 0.18709 0.0
N1709 N 0.11409 0.57801 0.18029 0.0
C1710 C 0.12282 0.55919 0.18479 0.0
Co1711 Co 0.20494 0.32779 0.89882 0.0
Co1712 Co 0.17301 0.32892 0.92503 0.0
O1713 O 0.20043 0.33494 0.91641 0.0
C1714 C 0.21919 0.37391 0.89977 0.0
O1715 O 0.20128 0.37863 0.90584 0.0
C1716 C 0.20667 0.31087 0.942 0.0
O1717 O 0.21623 0.30246 0.93218 0.0
O1718 O 0.17422 0.29786 0.91989 0.0
O1719 O 0.18695 0.30088 0.90037 0.0
H1720 H 0.09816 0.29743 0.92925 0.0
H1721 H 0.24324 0.33684 0.91469 0.0
O1722 O 0.22319 0.3544 0.89661 0.0
H1723 H 0.25362 0.26211 0.89934 0.0
H1724 H 0.249 0.32095 0.85943 0.0
H1725 H 0.17651 0.31244 0.87831 0.0
H1726 H 0.22148 0.28333 0.89307 0.0
H1727 H 0.24314 0.32908 0.88171 0.0
O1728 O 0.18927 0.32181 0.94075 0.0
H1729 H 0.13252 0.30561 0.91842 0.0
H1730 H 0.15584 0.33895 0.95042 0.0
H1731 H 0.18168 0.30395 0.85602 0.0
H1732 H 0.27576 0.31628 0.92108 0.0
H1733 H 0.21815 0.30819 0.84644 0.0
H1734 H 0.28106 0.27861 0.91342 0.0
O1735 O 0.17863 0.34457 0.89408 0.0
H1736 H 0.20384 0.39827 0.94216 0.0
H1737 H 0.13891 0.36334 0.92425 0.0
H1738 H 0.13756 0.40207 0.92998 0.0
H1739 H 0.17018 0.41977 0.93903 0.0
H1740 H 0.20454 0.35961 0.93619 0.0
H1741 H 0.1218 0.33098 0.96163 0.0
H1742 H 0.09263 0.31015 0.95101 0.0
O1743 O 0.15579 0.33609 0.90965 0.0
C1744 C 0.17776 0.29008 0.90905 0.0
C1745 C 0.11072 0.30658 0.93396 0.0
C1746 C 0.12399 0.32538 0.95214 0.0
N1747 N 0.14609 0.32289 0.93374 0.0
C1748 C 0.13018 0.31131 0.92787 0.0
C1749 C 0.14325 0.32981 0.94575 0.0
C1750 C 0.10763 0.3137 0.94618 0.0
C1751 C 0.24556 0.32053 0.91121 0.0
N1752 N 0.23052 0.31133 0.90349 0.0
C1753 C 0.26395 0.30894 0.91491 0.0
C1754 C 0.26689 0.28779 0.91063 0.0
C1755 C 0.25149 0.27852 0.90274 0.0
C1756 C 0.23328 0.29058 0.89925 0.0
C1757 C 0.23305 0.31899 0.8635 0.0
C1758 C 0.19245 0.3142 0.87423 0.0
C1759 C 0.22962 0.32361 0.87611 0.0
N1760 N 0.20954 0.32106 0.88133 0.0
C1761 C 0.19527 0.30942 0.86159 0.0
C1762 C 0.21573 0.31183 0.85622 0.0
C1763 C 0.15966 0.34391 0.89883 0.0
C1764 C 0.1895 0.39072 0.93826 0.0
C1765 C 0.1532 0.37093 0.92815 0.0
C1766 C 0.15231 0.39286 0.9314 0.0
C1767 C 0.17062 0.40278 0.93649 0.0
N1768 N 0.17177 0.3592 0.92994 0.0
C1769 C 0.18978 0.36882 0.93491 0.0
Co1770 Co 0.42486 0.45783 0.64646 0.0
Co1771 Co 0.4221 0.42695 0.67341 0.0
O1772 O 0.41676 0.45378 0.66402 0.0
C1773 C 0.37757 0.46828 0.64568 0.0
O1774 O 0.37344 0.44959 0.65107 0.0
C1775 C 0.43877 0.46249 0.69001 0.0
O1776 O 0.44305 0.47453 0.68023 0.0
O1777 O 0.45308 0.42636 0.66803 0.0
O1778 O 0.45295 0.44226 0.64915 0.0
H1779 H 0.45036 0.35109 0.67904 0.0
H1780 H 0.41117 0.49626 0.66116 0.0
O1781 O 0.39706 0.47381 0.64332 0.0
H1782 H 0.48591 0.51219 0.64749 0.0
H1783 H 0.43086 0.50016 0.6064 0.0
H1784 H 0.44499 0.43006 0.62705 0.0
H1785 H 0.46816 0.47787 0.64155 0.0
H1786 H 0.42125 0.49473 0.62852 0.0
O1787 O 0.43057 0.44366 0.68876 0.0
H1788 H 0.44329 0.385 0.66751 0.0
H1789 H 0.41222 0.41199 0.69931 0.0
H1790 H 0.45501 0.43485 0.60495 0.0
H1791 H 0.42815 0.53098 0.66712 0.0
H1792 H 0.44794 0.47012 0.59447 0.0
H1793 H 0.46584 0.53908 0.66034 0.0
O1794 O 0.41075 0.4299 0.64153 0.0
H1795 H 0.35453 0.46233 0.68996 0.0
H1796 H 0.38633 0.39426 0.67415 0.0
H1797 H 0.34773 0.3951 0.68021 0.0
H1798 H 0.3316 0.42932 0.68822 0.0
H1799 H 0.393 0.4608 0.68368 0.0
H1800 H 0.41912 0.37844 0.71121 0.0
H1801 H 0.43825 0.34766 0.70106 0.0
O1802 O 0.41378 0.40914 0.65863 0.0
C1803 C 0.4624 0.4317 0.65784 0.0
C1804 C 0.44196 0.36437 0.68356 0.0
C1805 C 0.42445 0.37973 0.70162 0.0
N1806 N 0.42724 0.40041 0.6827 0.0
C1807 C 0.43786 0.38359 0.67706 0.0
C1808 C 0.42064 0.39871 0.69484 0.0
C1809 C 0.43518 0.36246 0.69591 0.0
C1810 C 0.4275 0.49975 0.65806 0.0
N1811 N 0.43869 0.48498 0.65106 0.0
C1812 C 0.43706 0.5194 0.66152 0.0
C1813 C 0.45822 0.52392 0.65773 0.0
C1814 C 0.4695 0.50882 0.65054 0.0
C1815 C 0.45942 0.48933 0.64727 0.0
C1816 C 0.43405 0.48473 0.61087 0.0
C1817 C 0.44198 0.44549 0.62258 0.0
C1818 C 0.4286 0.48154 0.62338 0.0
N1819 N 0.43269 0.46213 0.6291 0.0
C1820 C 0.44764 0.44809 0.61005 0.0
C1821 C 0.44365 0.46787 0.60418 0.0
C1822 C 0.40891 0.41176 0.64717 0.0
C1823 C 0.36138 0.44731 0.68652 0.0
C1824 C 0.37942 0.40922 0.67758 0.0
C1825 C 0.35756 0.40959 0.68103 0.0
C1826 C 0.34852 0.42879 0.68553 0.0
N1827 N 0.39195 0.42743 0.67862 0.0
C1828 C 0.38318 0.44632 0.683 0.0
Co1829 Co 0.29698 0.67402 0.39756 0.0
Co1830 Co 0.3275 0.67291 0.42448 0.0
O1831 O 0.30065 0.6669 0.41526 0.0
C1832 C 0.28375 0.62751 0.39832 0.0
O1833 O 0.30118 0.62323 0.40493 0.0
C1834 C 0.29302 0.69171 0.44073 0.0
O1835 O 0.28357 0.6996 0.43073 0.0
O1836 O 0.32711 0.70391 0.41904 0.0
O1837 O 0.31392 0.70141 0.39959 0.0
H1838 H 0.40254 0.70335 0.42996 0.0
H1839 H 0.25819 0.66358 0.41276 0.0
O1840 O 0.2797 0.64689 0.39491 0.0
H1841 H 0.24621 0.73809 0.39744 0.0
H1842 H 0.25498 0.67994 0.35739 0.0
H1843 H 0.32597 0.69081 0.3777 0.0
H1844 H 0.27929 0.71796 0.39164 0.0
H1845 H 0.25985 0.67165 0.37973 0.0
O1846 O 0.31044 0.68073 0.43977 0.0
H1847 H 0.36876 0.69533 0.4185 0.0
H1848 H 0.34287 0.66349 0.45034 0.0
H1849 H 0.32178 0.69946 0.35536 0.0
H1850 H 0.22474 0.68305 0.41867 0.0
H1851 H 0.28608 0.69403 0.34506 0.0
H1852 H 0.21863 0.72061 0.41103 0.0
O1853 O 0.32411 0.65818 0.39315 0.0
H1854 H 0.29427 0.60458 0.44145 0.0
H1855 H 0.36115 0.638 0.42507 0.0
H1856 H 0.36144 0.59944 0.43121 0.0
H1857 H 0.32782 0.58249 0.43949 0.0
H1858 H 0.29466 0.64305 0.43508 0.0
H1859 H 0.37628 0.67132 0.46218 0.0
H1860 H 0.40645 0.69131 0.45197 0.0
O1861 O 0.34552 0.66502 0.40962 0.0
C1862 C 0.32318 0.71201 0.40832 0.0
C1863 C 0.38953 0.69457 0.4345 0.0
C1864 C 0.37478 0.67662 0.45259 0.0
N1865 N 0.35392 0.67883 0.43371 0.0
C1866 C 0.37039 0.68994 0.42805 0.0
C1867 C 0.35588 0.67228 0.44585 0.0
C1868 C 0.39171 0.68783 0.44685 0.0
C1869 C 0.25553 0.67984 0.40929 0.0
N1870 N 0.27064 0.68959 0.40184 0.0
C1871 C 0.23661 0.69082 0.41272 0.0
C1872 C 0.23321 0.7119 0.40845 0.0
C1873 C 0.24869 0.72173 0.40083 0.0
C1874 C 0.26743 0.71028 0.39761 0.0
C1875 C 0.27061 0.6824 0.36178 0.0
C1876 C 0.31036 0.6885 0.3733 0.0
C1877 C 0.27348 0.67769 0.37442 0.0
N1878 N 0.29315 0.68086 0.38003 0.0
C1879 C 0.30809 0.69338 0.36064 0.0
C1880 C 0.28806 0.69032 0.35487 0.0
C1881 C 0.34258 0.6581 0.39852 0.0
C1882 C 0.30903 0.61179 0.43788 0.0
C1883 C 0.34644 0.63072 0.4286 0.0
C1884 C 0.34671 0.6089 0.4321 0.0
C1885 C 0.32785 0.5994 0.43676 0.0
N1886 N 0.32792 0.64278 0.42973 0.0
C1887 C 0.30937 0.63358 0.4343 0.0
C1888 C 0.44989 0.9895 0.30261 0.0
C1889 C 0.44506 0.96741 0.3043 0.0
C1890 C 0.45173 0.99821 0.29057 0.0
C1891 C 0.46235 0.9843 0.25778 0.0
H1892 H 0.42645 0.03412 0.25002 0.0
C1893 C 0.44862 0.01332 0.20682 0.0
C1894 C 0.44483 0.03549 0.20472 0.0
C1895 C 0.4503 0.00526 0.21903 0.0
C1896 C 0.43697 0.02049 0.252 0.0
H1897 H 0.43916 0.93697 0.29469 0.0
H1898 H 0.44287 0.95208 0.27375 0.0
H1899 H 0.42741 0.02018 0.27124 0.0
H1900 H 0.4409 0.06675 0.21371 0.0
H1901 H 0.44486 0.05304 0.23481 0.0
H1902 H 0.47232 0.98476 0.23866 0.0
C1903 C 0.44505 0.96269 0.28171 0.0
C1904 C 0.43742 0.01246 0.26421 0.0
C1905 C 0.4428 0.95409 0.29371 0.0
C1906 C 0.44352 0.04952 0.21503 0.0
C1907 C 0.44562 0.04157 0.22717 0.0
C1908 C 0.46223 0.99256 0.2456 0.0
C1909 C 0.44922 0.98489 0.28 0.0
C1910 C 0.44994 0.99417 0.2672 0.0
C1911 C 0.44862 0.01926 0.22941 0.0
C1912 C 0.44939 0.0107 0.24249 0.0
H1913 H 0.45165 1.00018 0.31058 0.0
H1914 H 0.45503 0.01537 0.2895 0.0
H1915 H 0.47227 0.97024 0.25986 0.0
H1916 H 0.44958 0.0021 0.19906 0.0
H1917 H 0.45231 0.98795 0.22029 0.0
C1918 C 0.26426 0.20005 0.55238 0.0
C1919 C 0.28639 0.19513 0.55383 0.0
C1920 C 0.25518 0.20199 0.54043 0.0
C1921 C 0.26818 0.21309 0.50759 0.0
H1922 H 0.21812 0.17741 0.50001 0.0
C1923 C 0.23824 0.20013 0.45678 0.0
C1924 C 0.21605 0.19632 0.45477 0.0
C1925 C 0.24648 0.20167 0.46896 0.0
C1926 C 0.23181 0.18788 0.50195 0.0
H1927 H 0.31649 0.18915 0.5439 0.0
H1928 H 0.30075 0.19307 0.52312 0.0
H1929 H 0.23256 0.17799 0.52113 0.0
H1930 H 0.18492 0.19216 0.46388 0.0
H1931 H 0.19894 0.19589 0.48494 0.0
H1932 H 0.26729 0.2234 0.48854 0.0
C1933 C 0.29039 0.19522 0.5312 0.0
C1934 C 0.24013 0.1881 0.5141 0.0
C1935 C 0.29936 0.19285 0.5431 0.0
C1936 C 0.20217 0.19483 0.46513 0.0
C1937 C 0.21029 0.19679 0.47725 0.0
C1938 C 0.25963 0.2132 0.49548 0.0
C1939 C 0.26816 0.19952 0.52972 0.0
C1940 C 0.25852 0.20052 0.51702 0.0
C1941 C 0.23263 0.19982 0.47939 0.0
C1942 C 0.24141 0.20042 0.49243 0.0
H1943 H 0.25385 0.20182 0.56046 0.0
H1944 H 0.238 0.20539 0.53955 0.0
H1945 H 0.2823 0.22295 0.50962 0.0
H1946 H 0.24936 0.2012 0.44898 0.0
H1947 H 0.2638 0.2037 0.47014 0.0
C1948 C 0.0586 0.04925 0.79201 0.0
C1949 C 0.05755 0.03525 0.80234 0.0
C1950 C 0.0567 0.0412 0.77988 0.0
C1951 C 0.04108 0.9918 0.76153 0.0
H1952 H 0.07551 0.01984 0.73587 0.0
C1953 C 0.06119 0.95321 0.71355 0.0
C1954 C 0.05884 0.9664 0.70292 0.0
C1955 C 0.05881 0.9619 0.72552 0.0
C1956 C 0.06561 0.01199 0.7429 0.0
H1957 H 0.05348 1.00179 0.80804 0.0
H1958 H 0.05108 0.98749 0.78683 0.0
H1959 H 0.07611 0.03396 0.75706 0.0
H1960 H 0.05194 0.99904 0.69653 0.0
H1961 H 0.04828 0.0144 0.71755 0.0
H1962 H 0.03149 0.9692 0.74731 0.0
C1963 C 0.05274 0.00485 0.78807 0.0
C1964 C 0.06585 0.02013 0.75509 0.0
C1965 C 0.05423 0.013 0.80027 0.0
C1966 C 0.05378 0.98846 0.70453 0.0
C1967 C 0.05179 0.99726 0.71655 0.0
C1968 C 0.04115 0.98345 0.74937 0.0
C1969 C 0.05416 0.01882 0.77768 0.0
C1970 C 0.05358 0.01018 0.76461 0.0
C1971 C 0.05438 0.98407 0.72716 0.0
C1972 C 0.05343 0.99346 0.73993 0.0
H1973 H 0.06086 0.06654 0.7933 0.0
H1974 H 0.05726 0.05264 0.77222 0.0
H1975 H 0.0311 0.98387 0.76848 0.0
H1976 H 0.06502 0.93613 0.71263 0.0
H1977 H 0.06105 0.95139 0.73352 0.0
C1978 C 0.26324 0.80431 0.95512 0.0
C1979 C 0.28538 0.80898 0.95345 0.0
C1980 C 0.25449 0.80263 0.96717 0.0
C1981 C 0.26836 0.7921 0.99998 0.0
H1982 H 0.2186 0.82812 0.0077 0.0
C1983 C 0.23952 0.80622 0.05093 0.0
C1984 C 0.21735 0.80999 0.05305 0.0
C1985 C 0.24754 0.80448 0.03871 0.0
C1986 C 0.23222 0.81756 0.00573 0.0
H1987 H 0.31582 0.81476 0.96307 0.0
H1988 H 0.30063 0.81131 0.984 0.0
H1989 H 0.23251 0.82701 0.98647 0.0
H1990 H 0.18604 0.81382 0.04408 0.0
H1991 H 0.1997 0.80978 0.02297 0.0
H1992 H 0.26793 0.78226 0.01913 0.0
C1993 C 0.29003 0.80915 0.97604 0.0
C1994 C 0.24023 0.81704 0.99352 0.0
C1995 C 0.29868 0.81125 0.96404 0.0
C1996 C 0.20328 0.81122 0.04275 0.0
C1997 C 0.21119 0.80908 0.0306 0.0
C1998 C 0.26013 0.79232 0.01217 0.0
C1999 C 0.2678 0.80512 0.97774 0.0
C2000 C 0.2585 0.80447 0.99054 0.0
C2001 C 0.23351 0.80608 0.02835 0.0
C2002 C 0.24202 0.80521 0.01526 0.0
H2003 H 0.25259 0.80255 0.94715 0.0
H2004 H 0.2373 0.79942 0.96822 0.0
H2005 H 0.2824 0.78214 0.99792 0.0
H2006 H 0.25077 0.80532 0.05868 0.0
H2007 H 0.26485 0.80247 0.03743 0.0
C2008 C 0.56212 0.95538 0.79363 0.0
C2009 C 0.55956 0.96842 0.80431 0.0
C2010 C 0.55991 0.96424 0.7817 0.0
C2011 C 0.56709 0.01443 0.76458 0.0
H2012 H 0.53283 0.98675 0.73873 0.0
C2013 C 0.56149 0.05197 0.7155 0.0
C2014 C 0.56061 0.038 0.70516 0.0
C2015 C 0.55918 0.0439 0.72761 0.0
C2016 C 0.54274 0.99456 0.74576 0.0
H2017 H 0.55249 1.00095 0.81083 0.0
H2018 H 0.54917 0.01661 0.78985 0.0
H2019 H 0.53274 0.97192 0.75985 0.0
H2020 H 0.55641 0.00461 0.69937 0.0
H2021 H 0.5533 0.99026 0.72054 0.0
H2022 H 0.57802 0.03641 0.75054 0.0
C2023 C 0.55268 0.99946 0.7908 0.0
C2024 C 0.54254 0.98612 0.75789 0.0
C2025 C 0.55448 0.9905 0.80278 0.0
C2026 C 0.55703 0.01578 0.70717 0.0
C2027 C 0.55513 0.0076 0.71933 0.0
C2028 C 0.56761 0.02265 0.75242 0.0
C2029 C 0.55547 0.98641 0.78014 0.0
C2030 C 0.55473 0.99596 0.76742 0.0
C2031 C 0.55639 0.02154 0.72976 0.0
C2032 C 0.55545 0.01285 0.7428 0.0
H2033 H 0.56595 0.93829 0.7945 0.0
H2034 H 0.5623 0.95384 0.77366 0.0
H2035 H 0.57692 0.02214 0.77169 0.0
H2036 H 0.56395 0.06924 0.71425 0.0
H2037 H 0.55962 0.05531 0.73529 0.0
C2038 C 0.70327 0.81137 0.46442 0.0
C2039 C 0.717 0.80998 0.45398 0.0
C2040 C 0.71153 0.80912 0.47649 0.0
C2041 C 0.76096 0.79204 0.49443 0.0
H2042 H 0.7343 0.82689 0.52038 0.0
C2043 C 0.80085 0.81098 0.54227 0.0
C2044 C 0.78778 0.8086 0.55295 0.0
C2045 C 0.79194 0.8089 0.53033 0.0
C2046 C 0.74177 0.81688 0.51326 0.0
H2047 H 0.75019 0.80493 0.44801 0.0
H2048 H 0.76489 0.80193 0.4691 0.0
H2049 H 0.71975 0.82804 0.4993 0.0
H2050 H 0.75514 0.802 0.55946 0.0
H2051 H 0.73942 0.79893 0.5385 0.0
H2052 H 0.78365 0.78181 0.50845 0.0
C2053 C 0.74757 0.80411 0.468 0.0
C2054 C 0.73338 0.81742 0.50114 0.0
C2055 C 0.73919 0.80594 0.45588 0.0
C2056 C 0.76563 0.80384 0.55142 0.0
C2057 C 0.75662 0.80218 0.53944 0.0
C2058 C 0.76959 0.79182 0.50653 0.0
C2059 C 0.73388 0.80588 0.47851 0.0
C2060 C 0.74281 0.805 0.49151 0.0
C2061 C 0.76969 0.8048 0.52878 0.0
C2062 C 0.76006 0.80423 0.51606 0.0
H2063 H 0.68603 0.8142 0.46326 0.0
H2064 H 0.70028 0.80995 0.48423 0.0
H2065 H 0.7685 0.78192 0.4874 0.0
H2066 H 0.81799 0.81458 0.54313 0.0
H2067 H 0.80236 0.81115 0.52229 0.0
C2068 C 0.94949 0.01455 0.30092 0.0
C2069 C 0.94615 0.03678 0.30305 0.0
C2070 C 0.95108 0.00652 0.28871 0.0
C2071 C 0.9381 0.02212 0.25577 0.0
H2072 H 0.97246 0.97126 0.24787 0.0
C2073 C 0.95015 0.99069 0.20516 0.0
C2074 C 0.94499 0.96866 0.20354 0.0
C2075 C 0.95216 0.99946 0.21718 0.0
C2076 C 0.96281 0.98549 0.24996 0.0
H2077 H 0.94293 0.06817 0.2941 0.0
H2078 H 0.94672 0.05447 0.27299 0.0
H2079 H 0.97284 0.98575 0.26907 0.0
H2080 H 0.93867 0.93839 0.21323 0.0
H2081 H 0.94267 0.9536 0.23412 0.0
H2082 H 0.92844 0.02198 0.23655 0.0
C2083 C 0.9472 0.04296 0.28061 0.0
C2084 C 0.96287 0.99374 0.26214 0.0
C2085 C 0.94521 0.05089 0.29277 0.0
C2086 C 0.94255 0.95546 0.21416 0.0
C2087 C 0.94497 0.96412 0.22613 0.0
C2088 C 0.93834 0.01409 0.24357 0.0
C2089 C 0.94974 0.0206 0.27835 0.0
C2090 C 0.95035 0.01209 0.26527 0.0
C2091 C 0.94951 0.98625 0.22778 0.0
C2092 C 0.95052 0.99558 0.24055 0.0
H2093 H 0.95016 0.00328 0.30867 0.0
H2094 H 0.95274 0.98918 0.28742 0.0
H2095 H 0.92783 0.03594 0.25778 0.0
H2096 H 0.95206 1.00126 0.19716 0.0
H2097 H 0.95575 0.01658 0.2182 0.0
C2098 C 0.76487 0.19869 0.95648 0.0
C2099 C 0.78715 0.19507 0.95467 0.0
C2100 C 0.75627 0.20002 0.96858 0.0
C2101 C 0.77019 0.18607 1.00167 0.0
H2102 H 0.71917 0.22058 0.00903 0.0
C2103 C 0.73755 0.19937 0.05191 0.0
C2104 C 0.71549 0.19421 0.05349 0.0
C2105 C 0.74652 0.20087 0.03992 0.0
C2106 C 0.73343 0.21087 0.00708 0.0
H2107 H 0.81804 0.19104 0.96405 0.0
H2108 H 0.80339 0.19447 0.98499 0.0
H2109 H 0.73456 0.22119 0.98804 0.0
H2110 H 0.68543 0.18724 0.04374 0.0
H2111 H 0.70101 0.19043 0.02285 0.0
H2112 H 0.76925 0.17626 0.02086 0.0
C2113 C 0.79225 0.19535 0.9772 0.0
C2114 C 0.7422 0.21106 0.99502 0.0
C2115 C 0.80074 0.19358 0.96515 0.0
C2116 C 0.7025 0.19115 0.04284 0.0
C2117 C 0.71137 0.19309 0.03088 0.0
C2118 C 0.76166 0.18622 0.01377 0.0
C2119 C 0.76981 0.19816 0.97914 0.0
C2120 C 0.76066 0.19853 0.99209 0.0
C2121 C 0.73352 0.19771 0.02929 0.0
C2122 C 0.7431 0.19848 0.01658 0.0
H2123 H 0.75398 0.19975 0.94857 0.0
H2124 H 0.73889 0.20188 0.9696 0.0
H2125 H 0.78405 0.17576 0.99982 0.0
H2126 H 0.74798 0.20174 0.05993 0.0
H2127 H 0.76363 0.20453 0.03895 0.0
C2128 C 0.94842 0.51503 0.70675 0.0
C2129 C 0.94393 0.53721 0.70513 0.0
C2130 C 0.95006 0.50617 0.71876 0.0
C2131 C 0.96103 0.51956 0.75155 0.0
H2132 H 0.92473 0.46999 0.7592 0.0
C2133 C 0.94791 0.48971 0.80239 0.0
C2134 C 0.94401 0.46753 0.80437 0.0
C2135 C 0.9494 0.498 0.79023 0.0
C2136 C 0.93536 0.48355 0.75724 0.0
H2137 H 0.93837 0.56762 0.71483 0.0
H2138 H 0.94175 0.55223 0.73573 0.0
H2139 H 0.92554 0.48428 0.73805 0.0
H2140 H 0.93962 0.43648 0.79521 0.0
H2141 H 0.94324 0.45059 0.77417 0.0
H2142 H 0.97127 0.51867 0.77061 0.0
C2143 C 0.94381 0.54168 0.72773 0.0
C2144 C 0.93571 0.49179 0.74508 0.0
C2145 C 0.94175 0.55044 0.71576 0.0
C2146 C 0.94235 0.45372 0.79398 0.0
C2147 C 0.94426 0.46189 0.78188 0.0
C2148 C 0.96099 0.5111 0.76368 0.0
C2149 C 0.9477 0.51941 0.72937 0.0
C2150 C 0.94839 0.50998 0.74212 0.0
C2151 C 0.9474 0.48423 0.77977 0.0
C2152 C 0.94802 0.49304 0.76675 0.0
H2153 H 0.95011 0.50442 0.69874 0.0
H2154 H 0.95316 0.48895 0.71976 0.0
H2155 H 0.97108 0.53354 0.7495 0.0
H2156 H 0.94913 0.50077 0.81021 0.0
H2157 H 0.95153 0.51532 0.78906 0.0
C2158 C 0.79975 0.69122 0.04391 0.0
C2159 C 0.78654 0.69372 0.05452 0.0
C2160 C 0.79111 0.69358 0.03193 0.0
C2161 C 0.74115 0.68685 0.0145 0.0
H2162 H 0.76944 0.72127 0.98895 0.0
C2163 C 0.7043 0.69344 0.96531 0.0
C2164 C 0.7184 0.69434 0.95502 0.0
C2165 C 0.71224 0.69553 0.97746 0.0
C2166 C 0.76147 0.71132 0.99589 0.0
H2167 H 0.75393 0.70083 0.06088 0.0
H2168 H 0.73864 0.70442 0.03983 0.0
H2169 H 0.78395 0.72098 0.01015 0.0
H2170 H 0.7519 0.69838 0.94938 0.0
H2171 H 0.76602 0.70109 0.97063 0.0
H2172 H 0.71931 0.67626 1.00031 0.0
C2173 C 0.75575 0.70083 0.04086 0.0
C2174 C 0.76972 0.71131 0.00807 0.0
C2175 C 0.76451 0.69887 0.05289 0.0
C2176 C 0.74063 0.69774 0.95714 0.0
C2177 C 0.74868 0.69941 0.96934 0.0
C2178 C 0.73311 0.68655 1.0023 0.0
C2179 C 0.76897 0.69812 0.03027 0.0
C2180 C 0.75965 0.69906 0.01749 0.0
C2181 C 0.7346 0.6981 0.97971 0.0
C2182 C 0.74313 0.69878 0.99279 0.0
H2183 H 0.81683 0.68734 0.04485 0.0
H2184 H 0.80164 0.69124 0.02395 0.0
H2185 H 0.73327 0.67698 0.02153 0.0
H2186 H 0.68702 0.69114 0.96398 0.0
H2187 H 0.70074 0.69507 0.98509 0.0
C2188 C 0.56058 0.55148 0.29335 0.0
C2189 C 0.5594 0.53751 0.30369 0.0
C2190 C 0.55842 0.54345 0.28123 0.0
C2191 C 0.54186 0.49429 0.26295 0.0
H2192 H 0.57642 0.52183 0.23718 0.0
C2193 C 0.56118 0.45551 0.21493 0.0
C2194 C 0.5587 0.4687 0.20431 0.0
C2195 C 0.55901 0.46421 0.2269 0.0
C2196 C 0.56649 0.51413 0.24425 0.0
H2197 H 0.55483 0.50414 0.30943 0.0
H2198 H 0.55201 0.48985 0.28823 0.0
H2199 H 0.57748 0.53592 0.25836 0.0
H2200 H 0.55182 0.50136 0.19794 0.0
H2201 H 0.54858 0.51675 0.21898 0.0
H2202 H 0.5318 0.47184 0.24877 0.0
C2203 C 0.55396 0.50717 0.28946 0.0
C2204 C 0.56698 0.52225 0.25643 0.0
C2205 C 0.55569 0.51531 0.30164 0.0
C2206 C 0.55375 0.49078 0.20594 0.0
C2207 C 0.552 0.4996 0.21796 0.0
C2208 C 0.54169 0.48595 0.25079 0.0
C2209 C 0.5555 0.52112 0.27905 0.0
C2210 C 0.55467 0.51248 0.26599 0.0
C2211 C 0.5547 0.4864 0.22856 0.0
C2212 C 0.554 0.49579 0.24132 0.0
H2213 H 0.56313 0.56874 0.29463 0.0
H2214 H 0.55908 0.55488 0.27357 0.0
H2215 H 0.53184 0.4865 0.26993 0.0
H2216 H 0.56491 0.4384 0.21399 0.0
H2217 H 0.56134 0.4537 0.23489 0.0
C2218 C 0.73889 0.30778 0.55108 0.0
C2219 C 0.71664 0.31199 0.55268 0.0
C2220 C 0.74786 0.30656 0.53908 0.0
C2221 C 0.73499 0.29572 0.5063 0.0
H2222 H 0.78421 0.33263 0.49883 0.0
C2223 C 0.76575 0.30806 0.45563 0.0
C2224 C 0.78793 0.31212 0.45375 0.0
C2225 C 0.75721 0.30694 0.46774 0.0
C2226 C 0.77076 0.32185 0.50075 0.0
H2227 H 0.68626 0.31757 0.54296 0.0
H2228 H 0.70186 0.31486 0.52206 0.0
H2229 H 0.76953 0.3318 0.51991 0.0
H2230 H 0.81873 0.3173 0.46306 0.0
H2231 H 0.80419 0.31431 0.48405 0.0
H2232 H 0.73643 0.28525 0.48729 0.0
C2233 C 0.71236 0.31273 0.53007 0.0
C2234 C 0.76229 0.3215 0.51285 0.0
C2235 C 0.70348 0.31438 0.54204 0.0
C2236 C 0.80149 0.31442 0.4642 0.0
C2237 C 0.79307 0.31288 0.47628 0.0
C2238 C 0.7437 0.29574 0.49423 0.0
C2239 C 0.73468 0.30906 0.52846 0.0
C2240 C 0.74423 0.30856 0.51574 0.0
C2241 C 0.77074 0.30945 0.47827 0.0
C2242 C 0.76165 0.30893 0.49123 0.0
H2243 H 0.74946 0.30595 0.55909 0.0
H2244 H 0.76512 0.30362 0.5381 0.0
H2245 H 0.72114 0.28547 0.50831 0.0
H2246 H 0.75487 0.30636 0.44775 0.0
H2247 H 0.7399 0.30462 0.46881 0.0
C2248 C 0.06232 0.45312 0.29316 0.0
C2249 C 0.05951 0.46631 0.30375 0.0
C2250 C 0.06027 0.46177 0.28116 0.0
C2251 C 0.06765 0.51176 0.26386 0.0
H2252 H 0.03361 0.48402 0.23795 0.0
C2253 C 0.06221 0.54943 0.21482 0.0
C2254 C 0.06118 0.53555 0.20444 0.0
C2255 C 0.05996 0.54129 0.22691 0.0
C2256 C 0.04348 0.49184 0.24499 0.0
H2257 H 0.05216 0.49891 0.31005 0.0
H2258 H 0.04913 0.51421 0.28898 0.0
H2259 H 0.03338 0.46922 0.25909 0.0
H2260 H 0.0568 0.50221 0.19858 0.0
H2261 H 0.05384 0.48772 0.21973 0.0
H2262 H 0.0787 0.53372 0.24985 0.0
C2263 C 0.05271 0.4971 0.29004 0.0
C2264 C 0.04318 0.48341 0.25714 0.0
C2265 C 0.05433 0.48833 0.30207 0.0
C2266 C 0.05754 0.51332 0.20641 0.0
C2267 C 0.05573 0.50506 0.21856 0.0
C2268 C 0.06828 0.51995 0.2517 0.0
C2269 C 0.05576 0.48391 0.27946 0.0
C2270 C 0.05526 0.49331 0.26669 0.0
C2271 C 0.05711 0.51891 0.22902 0.0
C2272 C 0.05618 0.51016 0.24205 0.0
H2273 H 0.06626 0.43607 0.29414 0.0
H2274 H 0.06287 0.45127 0.27319 0.0
H2275 H 0.0774 0.5195 0.271 0.0
H2276 H 0.0647 0.56671 0.2136 0.0
H2277 H 0.06049 0.55265 0.23461 0.0
C2278 C 0.26682 0.30576 0.0514 0.0
C2279 C 0.289 0.31 0.05319 0.0
C2280 C 0.25816 0.30449 0.03932 0.0
C2281 C 0.27124 0.31906 0.00619 0.0
H2282 H 0.22162 0.28243 0.99903 0.0
C2283 C 0.23856 0.30406 0.95608 0.0
C2284 C 0.21631 0.30839 0.95459 0.0
C2285 C 0.24774 0.30301 0.96803 0.0
C2286 C 0.23548 0.29274 1.00092 0.0
H2287 H 0.31964 0.31538 0.04376 0.0
H2288 H 0.3049 0.31211 0.02283 0.0
H2289 H 0.23723 0.28253 0.01996 0.0
H2290 H 0.18614 0.31436 0.96445 0.0
H2291 H 0.20211 0.31192 0.98527 0.0
H2292 H 0.26971 0.32873 0.98698 0.0
C2293 C 0.29387 0.31065 0.03064 0.0
C2294 C 0.24437 0.29296 0.01295 0.0
C2295 C 0.30242 0.31235 0.04268 0.0
C2296 C 0.20335 0.31107 0.96528 0.0
C2297 C 0.21245 0.30957 0.97721 0.0
C2298 C 0.2626 0.31851 0.99412 0.0
C2299 C 0.27154 0.30701 0.02874 0.0
C2300 C 0.2623 0.30626 0.01581 0.0
C2301 C 0.23477 0.30579 0.97871 0.0
C2302 C 0.24454 0.30549 0.99138 0.0
H2303 H 0.25604 0.30403 0.05932 0.0
H2304 H 0.24085 0.30203 0.03833 0.0
H2305 H 0.28468 0.32992 0.00798 0.0
H2306 H 0.24896 0.30202 0.94802 0.0
H2307 H 0.26499 0.3 0.96893 0.0
C2308 C 0.4507 0.54045 0.79633 0.0
C2309 C 0.43912 0.5281 0.80509 0.0
C2310 C 0.45297 0.53322 0.78401 0.0
C2311 C 0.44308 0.48446 0.76342 0.0
H2312 H 0.44944 0.52734 0.73728 0.0
C2313 C 0.4501 0.4573 0.71213 0.0
C2314 C 0.44221 0.47101 0.70273 0.0
C2315 C 0.45194 0.46467 0.72442 0.0
C2316 C 0.44729 0.51505 0.74437 0.0
H2317 H 0.42051 0.49872 0.80783 0.0
H2318 H 0.42309 0.48676 0.7863 0.0
H2319 H 0.4472 0.53899 0.75874 0.0
H2320 H 0.42991 0.50312 0.69872 0.0
H2321 H 0.43154 0.51565 0.72025 0.0
H2322 H 0.44116 0.46069 0.74907 0.0
C2323 C 0.43148 0.50149 0.7889 0.0
C2324 C 0.4465 0.52177 0.75685 0.0
C2325 C 0.42983 0.5084 0.80131 0.0
C2326 C 0.43631 0.49232 0.7058 0.0
C2327 C 0.43741 0.4995 0.7182 0.0
C2328 C 0.44317 0.47781 0.75095 0.0
C2329 C 0.44307 0.51378 0.78 0.0
C2330 C 0.44439 0.50659 0.76662 0.0
C2331 C 0.4451 0.48573 0.72777 0.0
C2332 C 0.44535 0.49296 0.74117 0.0
H2333 H 0.4581 0.5557 0.79903 0.0
H2334 H 0.46253 0.54299 0.77768 0.0
H2335 H 0.44194 0.47206 0.77053 0.0
H2336 H 0.45492 0.44081 0.70995 0.0
H2337 H 0.45867 0.45367 0.73127 0.0
C2338 C 0.19904 0.69215 0.5419 0.0
C2339 C 0.21292 0.6936 0.55227 0.0
C2340 C 0.20713 0.69437 0.52979 0.0
C2341 C 0.25623 0.7117 0.51166 0.0
H2342 H 0.22975 0.67646 0.48582 0.0
C2343 C 0.29638 0.6928 0.46398 0.0
C2344 C 0.28338 0.69494 0.45326 0.0
C2345 C 0.28735 0.69483 0.47589 0.0
C2346 C 0.23715 0.68658 0.49291 0.0
H2347 H 0.2462 0.69869 0.55807 0.0
H2348 H 0.26059 0.70167 0.53692 0.0
H2349 H 0.21526 0.67537 0.50693 0.0
H2350 H 0.25071 0.70105 0.44664 0.0
H2351 H 0.23477 0.70406 0.46755 0.0
H2352 H 0.27878 0.72201 0.49759 0.0
C2353 C 0.24328 0.69946 0.5381 0.0
C2354 C 0.2288 0.68606 0.50505 0.0
C2355 C 0.23508 0.69764 0.55026 0.0
C2356 C 0.26115 0.69939 0.45472 0.0
C2357 C 0.25202 0.70101 0.46667 0.0
C2358 C 0.2648 0.71191 0.49956 0.0
C2359 C 0.22944 0.69766 0.52766 0.0
C2360 C 0.23821 0.6986 0.51464 0.0
C2361 C 0.26504 0.69867 0.47737 0.0
C2362 C 0.25536 0.69933 0.49007 0.0
H2363 H 0.18182 0.6893 0.54314 0.0
H2364 H 0.19579 0.69348 0.52209 0.0
H2365 H 0.26372 0.72191 0.51866 0.0
H2366 H 0.31359 0.68945 0.46318 0.0
H2367 H 0.29774 0.69279 0.48396 0.0
C2368 C 0.36672 0.00386 0.13443 0.0
C2369 C 0.36227 0.01965 0.14355 0.0
C2370 C 0.35061 0.98958 0.13041 0.0
C2371 C 0.29099 0.98025 0.12992 0.0
H2372 H 0.30889 0.92093 0.12366 0.0
C2373 C 0.25209 0.88932 0.12099 0.0
C2374 C 0.23541 0.89414 0.11248 0.0
C2375 C 0.26674 0.90529 0.12477 0.0
C2376 C 0.30349 0.93736 0.12546 0.0
H2377 H 0.33717 0.03296 0.15548 0.0
H2378 H 0.30899 0.00758 0.14864 0.0
H2379 H 0.33543 0.94729 0.13063 0.0
H2380 H 0.221 0.91971 0.10132 0.0
H2381 H 0.24699 0.94762 0.10773 0.0
H2382 H 0.2588 0.96995 0.1251 0.0
C2383 C 0.32495 0.00652 0.14446 0.0
C2384 C 0.31884 0.95262 0.12931 0.0
C2385 C 0.34113 0.021 0.14843 0.0
C2386 C 0.23366 0.91545 0.10789 0.0
C2387 C 0.24848 0.93148 0.11163 0.0
C2388 C 0.27554 0.96489 0.12611 0.0
C2389 C 0.32957 0.99047 0.13547 0.0
C2390 C 0.31286 0.9743 0.13155 0.0
C2391 C 0.2653 0.92655 0.12007 0.0
C2392 C 0.2816 0.94321 0.12387 0.0
H2393 H 0.38273 0.0025 0.13033 0.0
H2394 H 0.35468 0.97783 0.12327 0.0
H2395 H 0.28581 0.99683 0.13145 0.0
H2396 H 0.25383 0.87317 0.12484 0.0
H2397 H 0.27913 0.90095 0.13149 0.0
C2398 C 0.25079 0.11755 0.38591 0.0
C2399 C 0.23452 0.11285 0.3947 0.0
C2400 C 0.26516 0.10148 0.38191 0.0
C2401 C 0.27382 0.0418 0.38073 0.0
H2402 H 0.3335 0.05924 0.3752 0.0
C2403 C 0.36457 0.00229 0.37199 0.0
C2404 C 0.35978 0.98596 0.36325 0.0
C2405 C 0.34866 0.01693 0.37585 0.0
C2406 C 0.31697 0.05396 0.3768 0.0
H2407 H 0.22053 0.08742 0.40613 0.0
H2408 H 0.24607 0.05935 0.39936 0.0
H2409 H 0.30727 0.0858 0.38231 0.0
H2410 H 0.33432 0.97218 0.35177 0.0
H2411 H 0.3065 0.9982 0.3583 0.0
H2412 H 0.28388 0.0097 0.37557 0.0
C2413 C 0.24744 0.07545 0.39539 0.0
C2414 C 0.30179 0.06933 0.38072 0.0
C2415 C 0.23287 0.09157 0.39934 0.0
C2416 C 0.33854 0.98456 0.35852 0.0
C2417 C 0.32257 0.99939 0.36233 0.0
C2418 C 0.28911 0.02633 0.37685 0.0
C2419 C 0.26388 0.08027 0.38668 0.0
C2420 C 0.27998 0.06353 0.3827 0.0
C2421 C 0.32749 0.01588 0.37099 0.0
C2422 C 0.31091 0.03222 0.37486 0.0
H2423 H 0.25241 0.13368 0.382 0.0
H2424 H 0.27723 0.10574 0.37499 0.0
H2425 H 0.25714 0.03676 0.38204 0.0
H2426 H 0.38066 0.00374 0.37597 0.0
H2427 H 0.35298 0.02903 0.38274 0.0
C2428 C 0.13968 1.00096 0.63555 0.0
C2429 C 0.14447 0.98438 0.64414 0.0
C2430 C 0.15564 0.01562 0.63178 0.0
C2431 C 0.21525 0.02458 0.63062 0.0
H2432 H 0.19757 0.08434 0.62568 0.0
C2433 C 0.25447 0.11556 0.62207 0.0
C2434 C 0.2706 0.11084 0.61319 0.0
C2435 C 0.23991 0.09961 0.62599 0.0
C2436 C 0.20291 0.06778 0.62712 0.0
H2437 H 0.16997 0.97019 0.65544 0.0
H2438 H 0.19786 0.99621 0.64904 0.0
H2439 H 0.17117 0.05785 0.63269 0.0
H2440 H 0.28409 0.08548 0.60151 0.0
H2441 H 0.25824 0.05763 0.60816 0.0
H2442 H 0.24724 0.03483 0.62538 0.0
C2443 C 0.18176 0.9976 0.64507 0.0
C2444 C 0.18764 0.05246 0.63099 0.0
C2445 C 0.16574 0.98276 0.6488 0.0
C2446 C 0.27188 0.08965 0.60838 0.0
C2447 C 0.25714 0.07365 0.61225 0.0
C2448 C 0.23062 0.03999 0.6268 0.0
C2449 C 0.17685 0.01432 0.63656 0.0
C2450 C 0.19352 0.03062 0.63274 0.0
C2451 C 0.24086 0.07848 0.62106 0.0
C2452 C 0.22464 0.06182 0.625 0.0
H2453 H 0.12356 0.0026 0.63164 0.0
H2454 H 0.15132 0.02792 0.625 0.0
H2455 H 0.22034 0.00788 0.63176 0.0
H2456 H 0.25312 0.13163 0.62609 0.0
H2457 H 0.22796 0.10387 0.63298 0.0
C2458 C 0.16337 0.0201 0.85729 0.0
C2459 C 0.1421 0.01837 0.86194 0.0
C2460 C 0.17953 0.00556 0.8612 0.0
C2461 C 0.18573 0.95114 0.87574 0.0
H2462 H 0.24521 0.96919 0.88132 0.0
C2463 C 0.26991 0.91459 0.89869 0.0
C2464 C 0.26866 0.89334 0.89396 0.0
C2465 C 0.25519 0.93054 0.89471 0.0
C2466 C 0.22862 0.96393 0.87991 0.0
H2467 H 0.12135 1.00035 0.87462 0.0
H2468 H 0.14934 0.97557 0.88156 0.0
H2469 H 0.21819 0.99588 0.8747 0.0
H2470 H 0.25132 0.87242 0.88106 0.0
H2471 H 0.22625 0.90007 0.87399 0.0
H2472 H 0.19578 0.91945 0.8813 0.0
C2473 C 0.15356 0.98769 0.87466 0.0
C2474 C 0.21319 0.97918 0.87595 0.0
C2475 C 0.13746 1.00204 0.8707 0.0
C2476 C 0.25263 0.88852 0.88504 0.0
C2477 C 0.23812 0.90441 0.88101 0.0
C2478 C 0.20105 0.936 0.87975 0.0
C2479 C 0.17476 0.98905 0.86988 0.0
C2480 C 0.19151 0.97297 0.87384 0.0
C2481 C 0.239 0.92558 0.88587 0.0
C2482 C 0.22274 0.94211 0.88185 0.0
H2483 H 0.16747 0.0325 0.85053 0.0
H2484 H 0.19564 0.00698 0.85724 0.0
H2485 H 0.1693 0.94563 0.87404 0.0
H2486 H 0.28206 0.91883 0.90557 0.0
H2487 H 0.25624 0.94661 0.89874 0.0
C2488 C 0.77011 0.09138 0.89942 0.0
C2489 C 0.76848 0.11269 0.89483 0.0
C2490 C 0.75544 0.07535 0.89552 0.0
C2491 C 0.72906 0.04187 0.88083 0.0
H2492 H 0.66922 0.05905 0.87562 0.0
C2493 C 0.66461 0.98446 0.85869 0.0
C2494 C 0.64343 0.98558 0.86352 0.0
C2495 C 0.68046 0.99942 0.86247 0.0
C2496 C 0.6858 0.05385 0.87713 0.0
H2497 H 0.75042 0.13371 0.88232 0.0
H2498 H 0.72535 0.10588 0.87538 0.0
H2499 H 0.69541 0.08569 0.88271 0.0
H2500 H 0.62248 0.00301 0.87636 0.0
H2501 H 0.64998 0.02856 0.88309 0.0
H2502 H 0.71913 0.00978 0.87561 0.0
C2503 C 0.73754 0.10155 0.88222 0.0
C2504 C 0.70095 0.06926 0.88104 0.0
C2505 C 0.75204 0.11753 0.88616 0.0
C2506 C 0.63855 1.00178 0.87232 0.0
C2507 C 0.65434 0.01656 0.87615 0.0
C2508 C 0.71382 0.02636 0.87697 0.0
C2509 C 0.73889 0.08027 0.88691 0.0
C2510 C 0.72281 0.06354 0.88292 0.0
C2511 C 0.67547 0.01576 0.87121 0.0
C2512 C 0.69196 0.03216 0.87509 0.0
H2513 H 0.78257 0.08713 0.90612 0.0
H2514 H 0.75684 0.05922 0.89944 0.0
H2515 H 0.74578 0.0369 0.88206 0.0
H2516 H 0.66889 0.97219 0.85188 0.0
H2517 H 0.69649 0.99843 0.85837 0.0
C2518 C 0.64155 0.99878 0.64309 0.0
C2519 C 0.64709 0.02027 0.64613 0.0
C2520 C 0.65731 0.98421 0.63891 0.0
C2521 C 0.71694 0.97496 0.63697 0.0
H2522 H 0.69967 0.93404 0.61132 0.0
C2523 C 0.77741 0.9164 0.61217 0.0
C2524 C 0.77058 0.89465 0.61151 0.0
C2525 C 0.76298 0.93269 0.61599 0.0
C2526 C 0.70472 0.94531 0.61852 0.0
H2527 H 0.6737 0.04317 0.64738 0.0
H2528 H 0.70124 0.01782 0.63981 0.0
H2529 H 0.67363 0.9606 0.61895 0.0
H2530 H 0.74311 0.87306 0.61409 0.0
H2531 H 0.71801 0.90144 0.62055 0.0
H2532 H 0.74821 0.95963 0.63635 0.0
C2533 C 0.68471 0.01213 0.64084 0.0
C2534 C 0.68976 0.96049 0.62296 0.0
C2535 C 0.66891 0.0267 0.64516 0.0
C2536 C 0.74893 0.88964 0.6145 0.0
C2537 C 0.73449 0.90592 0.61816 0.0
C2538 C 0.73201 0.95986 0.63242 0.0
C2539 C 0.67906 0.99075 0.6375 0.0
C2540 C 0.69552 0.97532 0.63239 0.0
C2541 C 0.74136 0.9276 0.61904 0.0
C2542 C 0.72595 0.94466 0.62328 0.0
H2543 H 0.62493 0.99319 0.64386 0.0
H2544 H 0.65238 0.96777 0.63677 0.0
H2545 H 0.72195 0.98596 0.64431 0.0
H2546 H 0.79399 0.92079 0.60996 0.0
H2547 H 0.76869 0.94929 0.6165 0.0
C2548 C 0.73421 0.91498 0.39888 0.0
C2549 C 0.73556 0.89369 0.39422 0.0
C2550 C 0.74894 0.93091 0.39492 0.0
C2551 C 0.77549 0.96427 0.38016 0.0
H2552 H 0.83499 0.94631 0.37453 0.0
C2553 C 0.84057 0.02095 0.35786 0.0
C2554 C 0.86179 0.01939 0.36259 0.0
C2555 C 0.82449 0.00624 0.36168 0.0
C2556 C 0.81851 0.95173 0.37616 0.0
H2557 H 0.75313 0.87265 0.3815 0.0
H2558 H 0.77827 0.90029 0.37445 0.0
H2559 H 0.80857 0.91998 0.3817 0.0
H2560 H 0.88256 1.00147 0.37531 0.0
H2561 H 0.85471 0.97639 0.3821 0.0
H2562 H 0.78578 0.99627 0.37498 0.0
C2563 C 0.76628 0.90468 0.3814 0.0
C2564 C 0.80322 0.93649 0.38012 0.0
C2565 C 0.75174 0.88879 0.38541 0.0
C2566 C 0.86648 0.00304 0.37134 0.0
C2567 C 0.85047 0.98852 0.3752 0.0
C2568 C 0.79088 0.9796 0.37625 0.0
C2569 C 0.76526 0.92592 0.38617 0.0
C2570 C 0.78148 0.94249 0.38214 0.0
C2571 C 0.82931 0.98973 0.37035 0.0
C2572 C 0.81262 0.97352 0.37424 0.0
H2573 H 0.72194 0.91928 0.40568 0.0
H2574 H 0.74778 0.94703 0.39889 0.0
H2575 H 0.75886 0.96945 0.38151 0.0
H2576 H 0.83643 0.03335 0.35111 0.0
H2577 H 0.80843 0.00755 0.35766 0.0
C2578 C 0.75143 0.11673 0.12107 0.0
C2579 C 0.73458 0.11173 0.1127 0.0
C2580 C 0.76607 0.1008 0.12493 0.0
C2581 C 0.77447 0.04114 0.12676 0.0
H2582 H 0.83447 0.05841 0.13119 0.0
C2583 C 0.86527 1.00138 0.13513 0.0
C2584 C 0.86056 0.98549 0.14415 0.0
C2585 C 0.84937 0.01598 0.13119 0.0
C2586 C 0.81785 0.05318 0.12989 0.0
H2587 H 0.71989 0.08592 0.10186 0.0
H2588 H 0.74587 0.05809 0.10839 0.0
H2589 H 0.80811 0.08482 0.12404 0.0
H2590 H 0.83528 0.97245 0.15605 0.0
H2591 H 0.80753 0.99839 0.14938 0.0
H2592 H 0.78452 0.00923 0.13226 0.0
C2593 C 0.7475 0.07433 0.11213 0.0
C2594 C 0.8026 0.06847 0.12595 0.0
C2595 C 0.73268 0.0903 0.10832 0.0
C2596 C 0.83944 0.98448 0.14908 0.0
C2597 C 0.8235 0.99927 0.14519 0.0
C2598 C 0.78981 0.02575 0.13065 0.0
C2599 C 0.76446 0.07941 0.12045 0.0
C2600 C 0.78067 0.06274 0.12438 0.0
C2601 C 0.82831 0.01531 0.13624 0.0
C2602 C 0.81173 0.03157 0.13226 0.0
H2603 H 0.75328 0.13298 0.12476 0.0
H2604 H 0.77857 0.10528 0.13155 0.0
H2605 H 0.7577 0.03617 0.12577 0.0
H2606 H 0.88128 0.00251 0.13101 0.0
H2607 H 0.85361 0.02773 0.12409 0.0
C2608 C 0.72654 0.41906 0.61179 0.0
C2609 C 0.73353 0.39739 0.61085 0.0
C2610 C 0.74099 0.4354 0.61553 0.0
C2611 C 0.79935 0.44827 0.61755 0.0
H2612 H 0.78268 0.48825 0.6438 0.0
C2613 C 0.86311 0.50017 0.64261 0.0
C2614 C 0.85793 0.5217 0.64576 0.0
C2615 C 0.84714 0.48597 0.6383 0.0
C2616 C 0.78751 0.47744 0.63634 0.0
H2617 H 0.76132 0.37601 0.61285 0.0
H2618 H 0.78641 0.40444 0.61919 0.0
H2619 H 0.75622 0.46217 0.63578 0.0
H2620 H 0.83171 0.54503 0.64711 0.0
H2621 H 0.80376 0.52027 0.63935 0.0
H2622 H 0.83051 0.46344 0.61798 0.0
C2623 C 0.7698 0.40884 0.61705 0.0
C2624 C 0.77234 0.46248 0.63175 0.0
C2625 C 0.75536 0.39252 0.61347 0.0
C2626 C 0.83622 0.52853 0.64479 0.0
C2627 C 0.82019 0.5143 0.64037 0.0
C2628 C 0.81443 0.46328 0.62205 0.0
C2629 C 0.76277 0.43044 0.61822 0.0
C2630 C 0.77821 0.4475 0.62244 0.0
C2631 C 0.82552 0.4929 0.6369 0.0
C2632 C 0.80887 0.47783 0.63167 0.0
H2633 H 0.70981 0.42334 0.60987 0.0
H2634 H 0.73514 0.45193 0.61626 0.0
H2635 H 0.80426 0.43719 0.61023 0.0
H2636 H 0.87962 0.49426 0.64338 0.0
H2637 H 0.8518 0.46948 0.63605 0.0
C2638 C 0.8667 0.49884 0.87466 0.0
C2639 C 0.86223 0.48303 0.86556 0.0
C2640 C 0.85064 0.51327 0.87858 0.0
C2641 C 0.81916 0.55049 0.87942 0.0
H2642 H 0.75897 0.53364 0.88356 0.0
C2643 C 0.75278 0.61434 0.88738 0.0
C2644 C 0.73605 0.60972 0.89589 0.0
C2645 C 0.76734 0.59823 0.88367 0.0
C2646 C 0.77575 0.53857 0.88256 0.0
H2647 H 0.83717 0.4698 0.85358 0.0
H2648 H 0.80909 0.49541 0.86026 0.0
H2649 H 0.78583 0.50649 0.87738 0.0
H2650 H 0.72146 0.58438 0.90714 0.0
H2651 H 0.74728 0.55623 0.90085 0.0
H2652 H 0.80939 0.58232 0.88491 0.0
C2653 C 0.82502 0.49639 0.8645 0.0
C2654 C 0.79111 0.52305 0.87885 0.0
C2655 C 0.84113 0.48178 0.86061 0.0
C2656 C 0.73416 0.58847 0.90056 0.0
C2657 C 0.74888 0.57231 0.89689 0.0
C2658 C 0.80389 0.56591 0.88316 0.0
C2659 C 0.82966 0.51248 0.87345 0.0
C2660 C 0.81304 0.52882 0.87725 0.0
C2661 C 0.76575 0.57704 0.88844 0.0
C2662 C 0.78195 0.56023 0.88473 0.0
H2663 H 0.88268 0.50013 0.8788 0.0
H2664 H 0.85472 0.52505 0.8857 0.0
H2665 H 0.83579 0.55567 0.87811 0.0
H2666 H 0.75463 0.63044 0.88347 0.0
H2667 H 0.77978 0.60242 0.87695 0.0
C2668 C 0.75288 0.614 0.12221 0.0
C2669 C 0.76947 0.60924 0.11363 0.0
C2670 C 0.73817 0.59804 0.12592 0.0
C2671 C 0.729 0.53848 0.12687 0.0
H2672 H 0.6692 0.5563 0.13151 0.0
C2673 C 0.63764 0.49974 0.13481 0.0
C2674 C 0.642 0.48374 0.14382 0.0
C2675 C 0.65383 0.51406 0.13092 0.0
C2676 C 0.68577 0.55092 0.13015 0.0
H2677 H 0.78364 0.58381 0.10227 0.0
H2678 H 0.75755 0.55593 0.10856 0.0
H2679 H 0.6959 0.58268 0.12474 0.0
H2680 H 0.66699 0.47011 0.15571 0.0
H2681 H 0.69528 0.49553 0.1491 0.0
H2682 H 0.71855 0.50648 0.13197 0.0
C2683 C 0.75618 0.572 0.11258 0.0
C2684 C 0.7012 0.56618 0.12643 0.0
C2685 C 0.77107 0.58801 0.10891 0.0
C2686 C 0.66311 0.48223 0.14874 0.0
C2687 C 0.67935 0.49674 0.14489 0.0
C2688 C 0.71347 0.52312 0.13056 0.0
C2689 C 0.73944 0.57687 0.12108 0.0
C2690 C 0.72306 0.56024 0.12479 0.0
C2691 C 0.67483 0.51298 0.13602 0.0
C2692 C 0.69163 0.52916 0.13223 0.0
H2693 H 0.75127 0.63009 0.12616 0.0
H2694 H 0.72584 0.60232 0.13269 0.0
H2695 H 0.74571 0.53335 0.12581 0.0
H2696 H 0.62166 0.50124 0.13069 0.0
H2697 H 0.64983 0.52598 0.12386 0.0
C2698 C 0.77123 0.41505 0.39868 0.0
C2699 C 0.76935 0.3937 0.39418 0.0
C2700 C 0.75642 0.43108 0.39494 0.0
C2701 C 0.72937 0.46446 0.3805 0.0
H2702 H 0.66941 0.44707 0.37601 0.0
C2703 C 0.66413 0.52117 0.35846 0.0
C2704 C 0.64302 0.51999 0.3634 0.0
C2705 C 0.68015 0.50641 0.36229 0.0
C2706 C 0.68602 0.45234 0.37733 0.0
H2707 H 0.75073 0.37265 0.38197 0.0
H2708 H 0.72546 0.40044 0.3753 0.0
H2709 H 0.69586 0.42063 0.383 0.0
H2710 H 0.62241 0.50274 0.3765 0.0
H2711 H 0.65021 0.47759 0.38331 0.0
H2712 H 0.7192 0.49643 0.37517 0.0
C2713 C 0.73793 0.40481 0.38197 0.0
C2714 C 0.70132 0.43703 0.38118 0.0
C2715 C 0.75256 0.38884 0.38576 0.0
C2716 C 0.63841 0.50399 0.37237 0.0
C2717 C 0.65438 0.48943 0.37625 0.0
C2718 C 0.71397 0.47987 0.3767 0.0
C2719 C 0.73949 0.42612 0.38658 0.0
C2720 C 0.72323 0.44281 0.38276 0.0
C2721 C 0.67542 0.49025 0.37119 0.0
C2722 C 0.69207 0.474 0.37507 0.0
H2723 H 0.78398 0.41933 0.40519 0.0
H2724 H 0.75801 0.44725 0.39879 0.0
H2725 H 0.74612 0.46947 0.3815 0.0
H2726 H 0.66821 0.53329 0.35153 0.0
H2727 H 0.69611 0.50742 0.3581 0.0
C2728 C 0.13741 0.49959 0.37356 0.0
C2729 C 0.14194 0.48356 0.3646 0.0
C2730 C 0.15352 0.51393 0.37751 0.0
C2731 C 0.18536 0.55087 0.37831 0.0
H2732 H 0.24534 0.53359 0.38287 0.0
C2733 C 0.25211 0.61436 0.38583 0.0
C2734 C 0.26863 0.60996 0.39452 0.0
C2735 C 0.23754 0.59822 0.38222 0.0
C2736 C 0.22862 0.53864 0.38175 0.0
H2737 H 0.16715 0.46986 0.35289 0.0
H2738 H 0.1953 0.49534 0.35961 0.0
H2739 H 0.21831 0.50652 0.3768 0.0
H2740 H 0.28289 0.58494 0.40614 0.0
H2741 H 0.25704 0.5567 0.4 0.0
H2742 H 0.19535 0.58275 0.38356 0.0
C2743 C 0.1793 0.49655 0.36372 0.0
C2744 C 0.21316 0.52317 0.37811 0.0
C2745 C 0.16314 0.48202 0.35981 0.0
C2746 C 0.27035 0.58886 0.39942 0.0
C2747 C 0.25561 0.57265 0.39585 0.0
C2748 C 0.20072 0.56624 0.38198 0.0
C2749 C 0.17462 0.51285 0.37254 0.0
C2750 C 0.19131 0.5291 0.37635 0.0
C2751 C 0.2389 0.5772 0.38726 0.0
C2752 C 0.22259 0.56041 0.38369 0.0
H2753 H 0.12135 0.5011 0.37757 0.0
H2754 H 0.1494 0.5259 0.38453 0.0
H2755 H 0.16879 0.55618 0.37688 0.0
H2756 H 0.25041 0.63034 0.38174 0.0
H2757 H 0.22524 0.60224 0.37538 0.0
C2758 C 0.25322 0.38673 0.12117 0.0
C2759 C 0.27007 0.39169 0.11279 0.0
C2760 C 0.23869 0.40271 0.12508 0.0
C2761 C 0.2306 0.4624 0.12703 0.0
H2762 H 0.17053 0.44538 0.13149 0.0
C2763 C 0.13998 0.50247 0.13555 0.0
C2764 C 0.14476 0.51828 0.14461 0.0
C2765 C 0.15583 0.48785 0.13157 0.0
C2766 C 0.18717 0.45054 0.13019 0.0
H2767 H 0.28485 0.41748 0.10198 0.0
H2768 H 0.25905 0.44541 0.1086 0.0
H2769 H 0.19674 0.41889 0.12426 0.0
H2770 H 0.1701 0.53117 0.15652 0.0
H2771 H 0.19776 0.50519 0.14976 0.0
H2772 H 0.22071 0.49433 0.13261 0.0
C2773 C 0.25735 0.42916 0.11231 0.0
C2774 C 0.20233 0.43521 0.1262 0.0
C2775 C 0.27207 0.41313 0.10845 0.0
C2776 C 0.16589 0.5192 0.14952 0.0
C2777 C 0.18178 0.50438 0.14559 0.0
C2778 C 0.21534 0.47784 0.13097 0.0
C2779 C 0.24039 0.42412 0.12064 0.0
C2780 C 0.22428 0.44085 0.12462 0.0
C2781 C 0.17689 0.48842 0.1366 0.0
C2782 C 0.1934 0.47211 0.13259 0.0
H2783 H 0.25129 0.37046 0.12483 0.0
H2784 H 0.2262 0.39826 0.13171 0.0
H2785 H 0.24738 0.4673 0.12604 0.0
H2786 H 0.12396 0.50142 0.13144 0.0
H2787 H 0.15153 0.47617 0.12443 0.0
C2788 C 0.34059 0.51783 0.86046 0.0
C2789 C 0.36141 0.51725 0.86581 0.0
C2790 C 0.32451 0.5032 0.86434 0.0
C2791 C 0.29021 0.47721 0.87869 0.0
H2792 H 0.30864 0.41854 0.88632 0.0
C2793 C 0.23245 0.41261 0.90043 0.0
C2794 C 0.23472 0.39118 0.89612 0.0
C2795 C 0.24734 0.42867 0.89684 0.0
C2796 C 0.30311 0.43478 0.88413 0.0
H2797 H 0.38143 0.50125 0.87972 0.0
H2798 H 0.35349 0.47629 0.88661 0.0
H2799 H 0.33519 0.44498 0.87945 0.0
H2800 H 0.25423 0.36997 0.88445 0.0
H2801 H 0.27968 0.39779 0.87807 0.0
H2802 H 0.25792 0.46663 0.88302 0.0
C2803 C 0.34962 0.48757 0.87919 0.0
C2804 C 0.31845 0.45009 0.88034 0.0
C2805 C 0.36566 0.50202 0.87527 0.0
C2806 C 0.25205 0.38623 0.88807 0.0
C2807 C 0.26678 0.40222 0.88445 0.0
C2808 C 0.27479 0.4618 0.88244 0.0
C2809 C 0.3289 0.48776 0.8737 0.0
C2810 C 0.31226 0.47153 0.8776 0.0
C2811 C 0.26477 0.42362 0.88885 0.0
C2812 C 0.28105 0.44035 0.88516 0.0
H2813 H 0.33681 0.52935 0.85314 0.0
H2814 H 0.30881 0.50368 0.85981 0.0
H2815 H 0.28487 0.49361 0.87677 0.0
H2816 H 0.21929 0.41695 0.90665 0.0
H2817 H 0.2454 0.44493 0.90051 0.0
C2818 C 0.33799 0.47605 0.64169 0.0
C2819 C 0.35971 0.48304 0.6419 0.0
C2820 C 0.3215 0.48993 0.63745 0.0
C2821 C 0.31365 0.54025 0.61866 0.0
H2822 H 0.25703 0.54182 0.63442 0.0
C2823 C 0.25409 0.61122 0.61211 0.0
C2824 C 0.23207 0.60638 0.61004 0.0
C2825 C 0.26878 0.59485 0.61525 0.0
C2826 C 0.27269 0.54136 0.62983 0.0
H2827 H 0.38099 0.51039 0.63827 0.0
H2828 H 0.35243 0.53456 0.63127 0.0
H2829 H 0.28428 0.51588 0.6417 0.0
H2830 H 0.20827 0.58048 0.6096 0.0
H2831 H 0.23406 0.5518 0.61527 0.0
H2832 H 0.30227 0.56616 0.60706 0.0
C2833 C 0.34806 0.5182 0.63397 0.0
C2834 C 0.28831 0.52648 0.63398 0.0
C2835 C 0.36448 0.50434 0.63809 0.0
C2836 C 0.22513 0.58472 0.6111 0.0
C2837 C 0.23984 0.56833 0.61442 0.0
C2838 C 0.29814 0.55522 0.61461 0.0
C2839 C 0.32638 0.51114 0.63341 0.0
C2840 C 0.30914 0.52596 0.62857 0.0
C2841 C 0.26183 0.57325 0.61653 0.0
C2842 C 0.27759 0.55615 0.62025 0.0
H2843 H 0.33377 0.45973 0.64455 0.0
H2844 H 0.30502 0.48386 0.63709 0.0
H2845 H 0.32926 0.53998 0.61402 0.0
H2846 H 0.26001 0.62772 0.61137 0.0
H2847 H 0.28557 0.5992 0.61693 0.0
C2848 C 0.39846 0.11042 0.12855 0.0
C2849 C 0.40137 0.11109 0.14158 0.0
C2850 C 0.39149 0.12895 0.12204 0.0
C2851 C 0.38823 0.18889 0.12579 0.0
H2852 H 0.34422 0.1865 0.09995 0.0
C2853 C 0.33462 0.26122 0.11397 0.0
C2854 C 0.33485 0.26867 0.10156 0.0
C2855 C 0.34365 0.24122 0.11709 0.0
C2856 C 0.35673 0.18731 0.10703 0.0
H2857 H 0.39874 0.13184 0.15792 0.0
H2858 H 0.38623 0.16341 0.14676 0.0
H2859 H 0.35862 0.15264 0.1088 0.0
H2860 H 0.3441 0.26033 0.08261 0.0
H2861 H 0.35953 0.2248 0.08815 0.0
H2862 H 0.38558 0.22344 0.12448 0.0
C2863 C 0.38982 0.14888 0.14146 0.0
C2864 C 0.36502 0.16798 0.11208 0.0
C2865 C 0.39682 0.13057 0.14791 0.0
C2866 C 0.3437 0.25513 0.09226 0.0
C2867 C 0.35247 0.23481 0.0954 0.0
C2868 C 0.3798 0.20806 0.12087 0.0
C2869 C 0.38734 0.14848 0.12843 0.0
C2870 C 0.38042 0.16859 0.12179 0.0
C2871 C 0.35288 0.22794 0.10789 0.0
C2872 C 0.36362 0.20748 0.11168 0.0
H2873 H 0.40185 0.09572 0.12337 0.0
H2874 H 0.38978 0.1281 0.11199 0.0
H2875 H 0.40053 0.19001 0.13298 0.0
H2876 H 0.32793 0.27106 0.12141 0.0
H2877 H 0.3436 0.23617 0.12678 0.0
C2878 C 0.12356 0.14278 0.3977 0.0
C2879 C 0.14257 0.14945 0.39152 0.0
C2880 C 0.10643 0.13349 0.39109 0.0
C2881 C 0.07779 0.13236 0.36215 0.0
H2882 H 0.05721 0.07617 0.37333 0.0
C2883 C 0.99895 0.09234 0.34253 0.0
C2884 C 0.98569 0.08225 0.35152 0.0
C2885 C 0.02 0.09924 0.34564 0.0
C2886 C 0.0626 0.09194 0.37012 0.0
H2887 H 0.15804 0.1522 0.37338 0.0
H2888 H 0.12749 0.13644 0.36175 0.0
H2889 H 0.09039 0.09124 0.38213 0.0
H2890 H 0.98433 0.07172 0.37086 0.0
H2891 H 0.02023 0.08406 0.37625 0.0
H2892 H 0.0493 0.1337 0.35068 0.0
C2893 C 0.12628 0.13814 0.37179 0.0
C2894 C 0.08171 0.10045 0.37511 0.0
C2895 C 0.14373 0.14707 0.37846 0.0
C2896 C 0.994 0.07924 0.36362 0.0
C2897 C 0.01482 0.08619 0.36671 0.0
C2898 C 0.0584 0.12397 0.35727 0.0
C2899 C 0.10761 0.13104 0.3781 0.0
C2900 C 0.0892 0.12094 0.37139 0.0
C2901 C 0.02819 0.09621 0.35779 0.0
C2902 C 0.05024 0.10391 0.36148 0.0
H2903 H 0.12186 0.14458 0.40769 0.0
H2904 H 0.09208 0.12837 0.39614 0.0
H2905 H 0.08325 0.14826 0.35918 0.0
H2906 H 0.99309 0.09496 0.33312 0.0
H2907 H 0.02989 0.10682 0.33851 0.0
C2908 C 0.11403 0.87213 0.64734 0.0
C2909 C 0.10796 0.89112 0.64095 0.0
C2910 C 0.12296 0.85455 0.64095 0.0
C2911 C 0.12334 0.82523 0.61219 0.0
H2912 H 0.17857 0.80265 0.62369 0.0
C2913 C 0.16068 0.74527 0.59251 0.0
C2914 C 0.17075 0.73169 0.60134 0.0
C2915 C 0.15435 0.76642 0.59575 0.0
C2916 C 0.16303 0.80857 0.62041 0.0
H2917 H 0.10599 0.90615 0.62266 0.0
H2918 H 0.12108 0.87484 0.61141 0.0
H2919 H 0.1646 0.83641 0.63236 0.0
H2920 H 0.1818 0.72983 0.62057 0.0
H2921 H 0.17031 0.76592 0.62623 0.0
H2922 H 0.12108 0.79676 0.60079 0.0
C2923 C 0.1192 0.87397 0.62145 0.0
C2924 C 0.15516 0.82802 0.62532 0.0
C2925 C 0.11067 0.89187 0.6279 0.0
C2926 C 0.17428 0.73977 0.61345 0.0
C2927 C 0.16783 0.76069 0.61669 0.0
C2928 C 0.13105 0.8055 0.60741 0.0
C2929 C 0.12562 0.85527 0.62797 0.0
C2930 C 0.13506 0.83629 0.62145 0.0
C2931 C 0.15786 0.77441 0.60791 0.0
C2932 C 0.15076 0.79663 0.61171 0.0
H2933 H 0.11196 0.87074 0.65733 0.0
H2934 H 0.12755 0.8402 0.64617 0.0
H2935 H 0.10771 0.83128 0.60912 0.0
H2936 H 0.15772 0.7396 0.5831 0.0
H2937 H 0.14686 0.77655 0.58871 0.0
C2938 C 0.50749 0.91183 0.84257 0.0
C2939 C 0.5216 0.91911 0.85203 0.0
C2940 C 0.48706 0.90321 0.84562 0.0
C2941 C 0.45992 0.87386 0.87027 0.0
H2942 H 0.40532 0.8998 0.86019 0.0
C2943 C 0.38261 0.85757 0.8978 0.0
C2944 C 0.36266 0.85525 0.89158 0.0
C2945 C 0.40109 0.86437 0.89142 0.0
C2946 C 0.42039 0.89209 0.8629 0.0
H2947 H 0.52505 0.92315 0.87209 0.0
H2948 H 0.48999 0.90773 0.87728 0.0
H2949 H 0.43951 0.91327 0.85132 0.0
H2950 H 0.34659 0.85852 0.87365 0.0
H2951 H 0.37919 0.87017 0.86241 0.0
H2952 H 0.44125 0.85275 0.88183 0.0
C2953 C 0.49464 0.90882 0.86754 0.0
C2954 C 0.43992 0.89983 0.85783 0.0
C2955 C 0.51474 0.91773 0.86453 0.0
C2956 C 0.36167 0.8602 0.87876 0.0
C2957 C 0.38034 0.86692 0.87232 0.0
C2958 C 0.44052 0.86598 0.8752 0.0
C2959 C 0.48068 0.90134 0.85816 0.0
C2960 C 0.45985 0.89117 0.86178 0.0
C2961 C 0.40034 0.86884 0.87857 0.0
C2962 C 0.42054 0.87547 0.87193 0.0
H2963 H 0.51225 0.91272 0.83286 0.0
H2964 H 0.47649 0.89752 0.83823 0.0
H2965 H 0.47511 0.86677 0.87334 0.0
H2966 H 0.3841 0.85401 0.90766 0.0
H2967 H 0.41603 0.86621 0.89664 0.0
C2968 C 0.33943 0.74811 0.41459 0.0
C2969 C 0.33001 0.73461 0.40549 0.0
C2970 C 0.34607 0.76927 0.41155 0.0
C2971 C 0.33913 0.81156 0.38684 0.0
H2972 H 0.3943 0.83357 0.39881 0.0
C2973 C 0.39011 0.87376 0.36024 0.0
C2974 C 0.39597 0.89291 0.36656 0.0
C2975 C 0.38081 0.85641 0.36666 0.0
C2976 C 0.37871 0.82772 0.39556 0.0
H2977 H 0.32043 0.73291 0.38599 0.0
H2978 H 0.33237 0.769 0.38071 0.0
H2979 H 0.38009 0.79929 0.40707 0.0
H2980 H 0.39726 0.9084 0.38474 0.0
H2981 H 0.3815 0.87748 0.39604 0.0
H2982 H 0.33845 0.8393 0.3748 0.0
C2983 C 0.33414 0.76369 0.39029 0.0
C2984 C 0.37052 0.80814 0.40029 0.0
C2985 C 0.32743 0.74277 0.39332 0.0
C2986 C 0.39276 0.89399 0.37956 0.0
C2987 C 0.38383 0.87633 0.38604 0.0
C2988 C 0.34747 0.83085 0.382 0.0
C2989 C 0.34347 0.77732 0.39933 0.0
C2990 C 0.3509 0.7995 0.39572 0.0
C2991 C 0.37757 0.85751 0.37959 0.0
C2992 C 0.36755 0.83884 0.3861 0.0
H2993 H 0.34169 0.74237 0.42405 0.0
H2994 H 0.3531 0.77934 0.41877 0.0
H2995 H 0.32368 0.8058 0.38335 0.0
H2996 H 0.39258 0.87211 0.3503 0.0
H2997 H 0.37634 0.84196 0.3615 0.0
C2998 C 0.3641 0.14409 0.62806 0.0
C2999 C 0.3647 0.1482 0.61514 0.0
C3000 C 0.3828 0.13715 0.63439 0.0
C3001 C 0.44291 0.13564 0.63065 0.0
H3002 H 0.44112 0.09137 0.65635 0.0
C3003 C 0.51669 0.08439 0.64341 0.0
C3004 C 0.52329 0.08428 0.65599 0.0
C3005 C 0.49668 0.09302 0.63996 0.0
C3006 C 0.44177 0.10395 0.6493 0.0
H3007 H 0.38549 0.14771 0.59877 0.0
H3008 H 0.41744 0.13503 0.6096 0.0
H3009 H 0.40713 0.10483 0.64725 0.0
H3010 H 0.51349 0.0926 0.67484 0.0
H3011 H 0.47792 0.10729 0.66871 0.0
H3012 H 0.4775 0.13401 0.63227 0.0
C3013 C 0.40281 0.13773 0.61498 0.0
C3014 C 0.42235 0.1117 0.6441 0.0
C3015 C 0.3843 0.14481 0.60871 0.0
C3016 C 0.50895 0.09248 0.66508 0.0
C3017 C 0.48862 0.10083 0.6616 0.0
C3018 C 0.46221 0.12772 0.6357 0.0
C3019 C 0.40247 0.13411 0.62793 0.0
C3020 C 0.42273 0.12728 0.63447 0.0
C3021 C 0.48252 0.10148 0.64897 0.0
C3022 C 0.46185 0.11151 0.64489 0.0
H3023 H 0.34931 0.14662 0.63333 0.0
H3024 H 0.38195 0.13463 0.64438 0.0
H3025 H 0.44388 0.14811 0.62355 0.0
H3026 H 0.52717 0.07821 0.63613 0.0
H3027 H 0.49226 0.09315 0.63017 0.0
C3028 C 0.10795 0.10992 0.87776 0.0
C3029 C 0.10267 0.11128 0.865 0.0
C3030 C 0.11509 0.12834 0.88428 0.0
C3031 C 0.11546 0.18867 0.88179 0.0
H3032 H 0.16286 0.18588 0.90555 0.0
C3033 C 0.16876 0.26151 0.89335 0.0
C3034 C 0.16962 0.26807 0.90591 0.0
C3035 C 0.15978 0.24157 0.89005 0.0
C3036 C 0.14941 0.18678 0.89906 0.0
H3037 H 0.10117 0.13314 0.84911 0.0
H3038 H 0.11416 0.16461 0.86024 0.0
H3039 H 0.14851 0.15227 0.89643 0.0
H3040 H 0.16234 0.2583 0.92491 0.0
H3041 H 0.14704 0.22286 0.91904 0.0
H3042 H 0.11714 0.22317 0.88393 0.0
C3043 C 0.11225 0.14959 0.86537 0.0
C3044 C 0.14115 0.16759 0.89385 0.0
C3045 C 0.10499 0.13136 0.85892 0.0
C3046 C 0.16187 0.25377 0.91515 0.0
C3047 C 0.15319 0.23352 0.91182 0.0
C3048 C 0.12388 0.20774 0.88684 0.0
C3049 C 0.11715 0.14846 0.87817 0.0
C3050 C 0.12443 0.16837 0.88489 0.0
C3051 C 0.15174 0.22749 0.89921 0.0
C3052 C 0.14121 0.20701 0.89531 0.0
H3053 H 0.10627 0.09474 0.88275 0.0
H3054 H 0.11862 0.12689 0.89414 0.0
H3055 H 0.10216 0.1899 0.87522 0.0
H3056 H 0.17456 0.27197 0.88595 0.0
H3057 H 0.15899 0.23718 0.88026 0.0
C3058 C 0.14257 0.86083 0.12842 0.0
C3059 C 0.14137 0.85567 0.11563 0.0
C3060 C 0.12398 0.86756 0.13494 0.0
C3061 C 0.06371 0.86636 0.13242 0.0
H3062 H 0.06497 0.91405 0.15603 0.0
C3063 C 0.9896 0.91826 0.14315 0.0
C3064 C 0.98282 0.91967 0.15567 0.0
C3065 C 0.00968 0.90936 0.1401 0.0
C3066 C 0.0645 0.90049 0.1496 0.0
H3067 H 0.11961 0.85403 0.0997 0.0
H3068 H 0.08783 0.86624 0.11085 0.0
H3069 H 0.09906 0.90051 0.14706 0.0
H3070 H 0.99232 0.91335 0.17482 0.0
H3071 H 0.02806 0.89818 0.16937 0.0
H3072 H 0.02916 0.86711 0.13444 0.0
C3073 C 0.10287 0.86457 0.11598 0.0
C3074 C 0.08397 0.89271 0.14447 0.0
C3075 C 0.12127 0.85776 0.10953 0.0
C3076 C 0.99701 0.91244 0.1651 0.0
C3077 C 0.01744 0.90383 0.16201 0.0
C3078 C 0.04437 0.87428 0.1374 0.0
C3079 C 0.10384 0.86927 0.12881 0.0
C3080 C 0.08372 0.87594 0.13553 0.0
C3081 C 0.02373 0.90193 0.14945 0.0
C3082 C 0.04453 0.89173 0.1458 0.0
H3083 H 0.15775 0.85933 0.13343 0.0
H3084 H 0.1253 0.87098 0.14482 0.0
H3085 H 0.06291 0.85301 0.12586 0.0
H3086 H 0.97921 0.92363 0.13561 0.0
H3087 H 0.01426 0.90822 0.13035 0.0
C3088 C 0.66329 0.74694 0.91557 0.0
C3089 C 0.67119 0.73278 0.9063 0.0
C3090 C 0.65472 0.76728 0.9123 0.0
C3091 C 0.62651 0.79387 0.88702 0.0
H3092 H 0.65062 0.8489 0.89778 0.0
C3093 C 0.60939 0.87127 0.85966 0.0
C3094 C 0.60643 0.89106 0.86597 0.0
C3095 C 0.61642 0.85284 0.86601 0.0
C3096 C 0.64342 0.8337 0.89486 0.0
H3097 H 0.67648 0.72923 0.88634 0.0
H3098 H 0.66115 0.76416 0.88076 0.0
H3099 H 0.66431 0.81493 0.9068 0.0
H3100 H 0.60876 0.90688 0.88401 0.0
H3101 H 0.62074 0.87437 0.8952 0.0
H3102 H 0.60562 0.8122 0.87514 0.0
C3103 C 0.66171 0.75959 0.89052 0.0
C3104 C 0.65129 0.8143 0.90002 0.0
C3105 C 0.67056 0.73957 0.89376 0.0
C3106 C 0.61094 0.89194 0.87884 0.0
C3107 C 0.61787 0.87332 0.88525 0.0
C3108 C 0.61848 0.81315 0.882 0.0
C3109 C 0.65354 0.77356 0.89971 0.0
C3110 C 0.64329 0.79422 0.89585 0.0
C3111 C 0.62046 0.85346 0.87892 0.0
C3112 C 0.6273 0.8333 0.88554 0.0
H3113 H 0.66358 0.74225 0.9253 0.0
H3114 H 0.64849 0.77785 0.91954 0.0
H3115 H 0.61991 0.77858 0.88377 0.0
H3116 H 0.60618 0.86987 0.84976 0.0
H3117 H 0.61878 0.83805 0.86073 0.0
C3118 C 0.00794 0.91014 0.66393 0.0
C3119 C 0.02129 0.91999 0.6549 0.0
C3120 C 0.98675 0.90357 0.66088 0.0
C3121 C 0.9441 0.91193 0.63655 0.0
H3122 H 0.92193 0.85626 0.64759 0.0
C3123 C 0.88154 0.86267 0.60921 0.0
C3124 C 0.86234 0.85667 0.61542 0.0
C3125 C 0.89896 0.87151 0.61577 0.0
C3126 C 0.92782 0.87198 0.6446 0.0
H3127 H 0.02274 0.93026 0.63551 0.0
H3128 H 0.98662 0.91846 0.63023 0.0
H3129 H 0.95641 0.86982 0.65596 0.0
H3130 H 0.8468 0.85469 0.63357 0.0
H3131 H 0.87785 0.86967 0.64512 0.0
H3132 H 0.9162 0.91343 0.62465 0.0
C3133 C 0.99205 0.91632 0.63976 0.0
C3134 C 0.94752 0.8798 0.6494 0.0
C3135 C 0.01299 0.92295 0.64279 0.0
C3136 C 0.86125 0.85932 0.62847 0.0
C3137 C 0.87899 0.86778 0.63509 0.0
C3138 C 0.92469 0.90398 0.63164 0.0
C3139 C 0.97852 0.90669 0.64874 0.0
C3140 C 0.95622 0.8996 0.64514 0.0
C3141 C 0.89788 0.87416 0.62874 0.0
C3142 C 0.91664 0.88373 0.6354 0.0
H3143 H 0.0138 0.90758 0.67334 0.0
H3144 H 0.97676 0.89626 0.66805 0.0
H3145 H 0.94992 0.92753 0.63331 0.0
H3146 H 0.88318 0.86065 0.59923 0.0
H3147 H 0.91346 0.8761 0.61069 0.0
C3148 C 0.8342 0.26332 0.39279 0.0
C3149 C 0.83354 0.27037 0.40528 0.0
C3150 C 0.84313 0.24326 0.38971 0.0
C3151 C 0.85363 0.18882 0.39915 0.0
H3152 H 0.90123 0.19149 0.37552 0.0
C3153 C 0.89531 0.11161 0.37833 0.0
C3154 C 0.90062 0.11282 0.36557 0.0
C3155 C 0.88813 0.1301 0.38478 0.0
C3156 C 0.88785 0.19038 0.38204 0.0
H3157 H 0.84108 0.26132 0.42436 0.0
H3158 H 0.85629 0.22565 0.41887 0.0
H3159 H 0.88615 0.22492 0.38396 0.0
H3160 H 0.90213 0.13451 0.34961 0.0
H3161 H 0.8891 0.16609 0.3606 0.0
H3162 H 0.85454 0.15427 0.39672 0.0
C3163 C 0.85003 0.23603 0.41155 0.0
C3164 C 0.87937 0.20954 0.38694 0.0
C3165 C 0.84139 0.25642 0.41466 0.0
C3166 C 0.89829 0.13283 0.35942 0.0
C3167 C 0.89101 0.15113 0.36579 0.0
C3168 C 0.86195 0.16953 0.39409 0.0
C3169 C 0.85131 0.22953 0.39901 0.0
C3170 C 0.8619 0.20898 0.39532 0.0
C3171 C 0.88609 0.15015 0.37858 0.0
C3172 C 0.87879 0.17015 0.38521 0.0
H3173 H 0.82831 0.27351 0.38529 0.0
H3174 H 0.84382 0.2385 0.37998 0.0
H3175 H 0.84009 0.18806 0.40558 0.0
H3176 H 0.89699 0.09648 0.38339 0.0
H3177 H 0.88457 0.12878 0.39464 0.0
C3178 C 0.61951 0.1554 0.11333 0.0
C3179 C 0.64091 0.15048 0.11694 0.0
C3180 C 0.60187 0.14768 0.1202 0.0
C3181 C 0.58514 0.10341 0.14048 0.0
H3182 H 0.53589 0.14061 0.14769 0.0
C3183 C 0.49845 0.07171 0.14866 0.0
C3184 C 0.48573 0.08117 0.15812 0.0
C3185 C 0.519 0.07986 0.14584 0.0
C3186 C 0.54962 0.13008 0.1459 0.0
H3187 H 0.66046 0.13353 0.13067 0.0
H3188 H 0.62946 0.11963 0.14255 0.0
H3189 H 0.56877 0.15615 0.13853 0.0
H3190 H 0.48499 0.1065 0.17218 0.0
H3191 H 0.5209 0.12105 0.16701 0.0
H3192 H 0.56568 0.07721 0.14743 0.0
C3193 C 0.62648 0.12963 0.13441 0.0
C3194 C 0.56835 0.13893 0.14056 0.0
C3195 C 0.6442 0.13764 0.12763 0.0
C3196 C 0.49435 0.09876 0.16487 0.0
C3197 C 0.51486 0.10716 0.16189 0.0
C3198 C 0.56629 0.0945 0.14567 0.0
C3199 C 0.60513 0.13461 0.13077 0.0
C3200 C 0.58617 0.12563 0.1376 0.0
C3201 C 0.5273 0.09789 0.15226 0.0
C3202 C 0.5482 0.10769 0.14824 0.0
H3203 H 0.61632 0.16528 0.10517 0.0
H3204 H 0.58561 0.15156 0.11707 0.0
H3205 H 0.59856 0.09274 0.13825 0.0
H3206 H 0.49238 0.05825 0.14321 0.0
H3207 H 0.52806 0.07254 0.13826 0.0
C3208 C 0.67281 0.26503 0.61454 0.0
C3209 C 0.67302 0.27151 0.60195 0.0
C3210 C 0.66446 0.2449 0.618 0.0
C3211 C 0.65448 0.18976 0.60908 0.0
H3212 H 0.60797 0.1923 0.63341 0.0
C3213 C 0.61347 0.11239 0.63021 0.0
C3214 C 0.60827 0.11354 0.64298 0.0
C3215 C 0.62065 0.13091 0.62378 0.0
C3216 C 0.62109 0.19122 0.62672 0.0
H3217 H 0.66531 0.26135 0.58307 0.0
H3218 H 0.65114 0.22561 0.58922 0.0
H3219 H 0.62257 0.22576 0.62476 0.0
H3220 H 0.60703 0.13513 0.659 0.0
H3221 H 0.62014 0.1667 0.64806 0.0
H3222 H 0.65374 0.15519 0.61149 0.0
C3223 C 0.65729 0.23647 0.59633 0.0
C3224 C 0.62931 0.21041 0.6217 0.0
C3225 C 0.66534 0.25691 0.59285 0.0
C3226 C 0.61079 0.1335 0.64918 0.0
C3227 C 0.61811 0.1518 0.64283 0.0
C3228 C 0.64644 0.17044 0.61426 0.0
C3229 C 0.65642 0.23053 0.60897 0.0
C3230 C 0.64634 0.2099 0.61303 0.0
C3231 C 0.62284 0.15092 0.63001 0.0
C3232 C 0.62999 0.17099 0.62339 0.0
H3233 H 0.67859 0.27574 0.62183 0.0
H3234 H 0.66409 0.24059 0.62781 0.0
H3235 H 0.66767 0.18901 0.60241 0.0
H3236 H 0.61165 0.09731 0.62513 0.0
H3237 H 0.62406 0.12964 0.6139 0.0
C3238 C 0.49115 0.92447 0.36452 0.0
C3239 C 0.48283 0.92144 0.35242 0.0
C3240 C 0.51211 0.91788 0.36755 0.0
C3241 C 0.55667 0.88138 0.35794 0.0
H3242 H 0.58808 0.91532 0.38251 0.0
C3243 C 0.64293 0.86061 0.37849 0.0
C3244 C 0.64229 0.85853 0.39157 0.0
C3245 C 0.6251 0.8691 0.37196 0.0
C3246 C 0.57956 0.90577 0.37558 0.0
H3247 H 0.49029 0.90893 0.334 0.0
H3248 H 0.52736 0.89768 0.33928 0.0
H3249 H 0.55425 0.92923 0.3739 0.0
H3250 H 0.62216 0.86358 0.40796 0.0
H3251 H 0.5917 0.87905 0.39666 0.0
H3252 H 0.58234 0.85793 0.35974 0.0
C3253 C 0.51738 0.90502 0.34644 0.0
C3254 C 0.56009 0.91362 0.3707 0.0
C3255 C 0.49617 0.91154 0.3434 0.0
C3256 C 0.62346 0.86516 0.39794 0.0
C3257 C 0.60594 0.87402 0.39147 0.0
C3258 C 0.57642 0.87366 0.36271 0.0
C3259 C 0.52563 0.90822 0.35857 0.0
C3260 C 0.54795 0.9012 0.36216 0.0
C3261 C 0.60655 0.87607 0.37844 0.0
C3262 C 0.58764 0.88551 0.37186 0.0
H3263 H 0.48142 0.93181 0.3718 0.0
H3264 H 0.51757 0.92009 0.37707 0.0
H3265 H 0.54777 0.87134 0.35142 0.0
H3266 H 0.6571 0.85549 0.37327 0.0
H3267 H 0.62589 0.87051 0.3619 0.0
C3268 C 0.84228 0.74592 0.09306 0.0
C3269 C 0.83475 0.73185 0.10247 0.0
C3270 C 0.85076 0.76639 0.09615 0.0
C3271 C 0.87935 0.79366 0.12105 0.0
H3272 H 0.85409 0.84824 0.11037 0.0
C3273 C 0.89553 0.87136 0.14824 0.0
C3274 C 0.89818 0.89117 0.1419 0.0
C3275 C 0.8887 0.85282 0.14192 0.0
C3276 C 0.86161 0.83317 0.11326 0.0
H3277 H 0.83009 0.72852 0.12249 0.0
H3278 H 0.84527 0.76365 0.12776 0.0
H3279 H 0.84071 0.81399 0.10155 0.0
H3280 H 0.89547 0.90692 0.12386 0.0
H3281 H 0.8838 0.87421 0.11273 0.0
H3282 H 0.90022 0.81239 0.13272 0.0
C3283 C 0.84448 0.75894 0.11803 0.0
C3284 C 0.85392 0.81361 0.10821 0.0
C3285 C 0.83571 0.7388 0.11496 0.0
C3286 C 0.89353 0.89196 0.12905 0.0
C3287 C 0.88679 0.87323 0.12267 0.0
C3288 C 0.88719 0.81309 0.12595 0.0
C3289 C 0.85223 0.77285 0.10869 0.0
C3290 C 0.86233 0.79369 0.11236 0.0
C3291 C 0.88455 0.85336 0.12903 0.0
C3292 C 0.87795 0.83308 0.12246 0.0
H3293 H 0.84172 0.7411 0.08334 0.0
H3294 H 0.85666 0.77691 0.0888 0.0
H3295 H 0.88626 0.77849 0.12427 0.0
H3296 H 0.89886 0.87002 0.15813 0.0
H3297 H 0.88661 0.838 0.14722 0.0
C3298 C 0.0096 0.07717 0.86315 0.0
C3299 C 0.01777 0.08045 0.85103 0.0
C3300 C 0.98885 0.08411 0.86638 0.0
C3301 C 0.94526 0.12225 0.85741 0.0
H3302 H 0.9135 0.08912 0.8822 0.0
C3303 C 0.86028 0.14553 0.87874 0.0
C3304 C 0.86119 0.14736 0.89183 0.0
C3305 C 0.87774 0.13663 0.87207 0.0
C3306 C 0.92213 0.09846 0.87521 0.0
H3307 H 0.01018 0.0936 0.83278 0.0
H3308 H 0.97347 0.10543 0.83841 0.0
H3309 H 0.94654 0.07415 0.87317 0.0
H3310 H 0.88143 0.14145 0.90808 0.0
H3311 H 0.91124 0.12528 0.89652 0.0
H3312 H 0.92047 0.14654 0.85956 0.0
C3313 C 0.98343 0.09766 0.84543 0.0
C3314 C 0.94115 0.09 0.87009 0.0
C3315 C 0.00442 0.09078 0.84218 0.0
C3316 C 0.87994 0.1401 0.89806 0.0
C3317 C 0.89708 0.13082 0.89144 0.0
C3318 C 0.92595 0.13059 0.86242 0.0
C3319 C 0.97539 0.09438 0.8576 0.0
C3320 C 0.95342 0.10209 0.86146 0.0
C3321 C 0.89617 0.12899 0.8784 0.0
C3322 C 0.91462 0.11903 0.87165 0.0
H3323 H 0.01934 0.06947 0.8703 0.0
H3324 H 0.98357 0.08179 0.87593 0.0
H3325 H 0.95429 0.13208 0.85084 0.0
H3326 H 0.84618 0.15113 0.87363 0.0
H3327 H 0.87672 0.13539 0.862 0.0
C3328 C 0.83414 0.76385 0.61377 0.0
C3329 C 0.83449 0.77103 0.6013 0.0
C3330 C 0.84299 0.74384 0.61705 0.0
C3331 C 0.85418 0.68957 0.60807 0.0
H3332 H 0.90089 0.69236 0.63228 0.0
C3333 C 0.89431 0.61232 0.62981 0.0
C3334 C 0.89941 0.61369 0.64259 0.0
C3335 C 0.88753 0.63079 0.6232 0.0
C3336 C 0.88774 0.69121 0.62561 0.0
H3337 H 0.84381 0.76226 0.58244 0.0
H3338 H 0.85886 0.72667 0.58825 0.0
H3339 H 0.88631 0.72574 0.62346 0.0
H3340 H 0.90097 0.63568 0.65842 0.0
H3341 H 0.88857 0.66722 0.64716 0.0
H3342 H 0.85474 0.65506 0.61073 0.0
C3343 C 0.85188 0.73692 0.59541 0.0
C3344 C 0.87956 0.71034 0.62048 0.0
C3345 C 0.84334 0.75727 0.59212 0.0
C3346 C 0.89728 0.63387 0.6486 0.0
C3347 C 0.89036 0.65215 0.64207 0.0
C3348 C 0.86217 0.67031 0.61336 0.0
C3349 C 0.85208 0.73028 0.60795 0.0
C3350 C 0.86244 0.70973 0.61188 0.0
C3351 C 0.88564 0.651 0.62925 0.0
C3352 C 0.87869 0.67096 0.62245 0.0
H3353 H 0.82749 0.77389 0.62112 0.0
H3354 H 0.84288 0.73898 0.62677 0.0
H3355 H 0.84087 0.68877 0.60149 0.0
H3356 H 0.89586 0.59707 0.62486 0.0
H3357 H 0.88413 0.62931 0.61333 0.0
C3358 C 0.64351 0.64254 0.87997 0.0
C3359 C 0.64228 0.64815 0.89269 0.0
C3360 C 0.62496 0.63552 0.87352 0.0
C3361 C 0.56471 0.63658 0.87598 0.0
H3362 H 0.56621 0.58765 0.85323 0.0
C3363 C 0.49075 0.58396 0.86616 0.0
C3364 C 0.48412 0.58163 0.85367 0.0
C3365 C 0.51078 0.59311 0.86907 0.0
C3366 C 0.56567 0.60154 0.85942 0.0
H3367 H 0.62048 0.65034 0.90858 0.0
H3368 H 0.58875 0.63767 0.89757 0.0
H3369 H 0.60023 0.60183 0.86195 0.0
H3370 H 0.49383 0.58661 0.83441 0.0
H3371 H 0.52946 0.60224 0.83962 0.0
H3372 H 0.53016 0.63556 0.87398 0.0
C3373 C 0.60381 0.63918 0.89242 0.0
C3374 C 0.5851 0.60968 0.8644 0.0
C3375 C 0.62218 0.64626 0.8988 0.0
C3376 C 0.49841 0.58822 0.84412 0.0
C3377 C 0.51877 0.59709 0.84708 0.0
C3378 C 0.54541 0.6283 0.87115 0.0
C3379 C 0.60482 0.63398 0.87967 0.0
C3380 C 0.58476 0.62692 0.87304 0.0
C3381 C 0.52491 0.59991 0.8596 0.0
C3382 C 0.54565 0.61039 0.86308 0.0
H3383 H 0.65871 0.64387 0.87495 0.0
H3384 H 0.6263 0.63171 0.86369 0.0
H3385 H 0.56385 0.65026 0.88231 0.0
H3386 H 0.4803 0.5791 0.87378 0.0
H3387 H 0.51525 0.59495 0.8788 0.0
C3388 C 0.60764 0.37285 0.14814 0.0
C3389 C 0.60298 0.39226 0.14177 0.0
C3390 C 0.61464 0.35451 0.14172 0.0
C3391 C 0.63918 0.33523 0.11231 0.0
H3392 H 0.6187 0.27983 0.12485 0.0
C3393 C 0.66045 0.24814 0.09248 0.0
C3394 C 0.66922 0.23453 0.10176 0.0
C3395 C 0.65169 0.26845 0.09565 0.0
C3396 C 0.62446 0.29519 0.12121 0.0
H3397 H 0.60232 0.40749 0.12352 0.0
H3398 H 0.61436 0.37505 0.1122 0.0
H3399 H 0.60386 0.31331 0.13335 0.0
H3400 H 0.67603 0.23199 0.12162 0.0
H3401 H 0.66039 0.26687 0.12704 0.0
H3402 H 0.65985 0.31665 0.10013 0.0
C3403 C 0.61275 0.37428 0.12225 0.0
C3404 C 0.6161 0.31439 0.12612 0.0
C3405 C 0.60579 0.39284 0.12873 0.0
C3406 C 0.66939 0.24189 0.1142 0.0
C3407 C 0.66038 0.26188 0.11735 0.0
C3408 C 0.6474 0.31587 0.10726 0.0
C3409 C 0.61699 0.35481 0.12868 0.0
C3410 C 0.62387 0.33467 0.12207 0.0
C3411 C 0.65123 0.27524 0.10816 0.0
C3412 C 0.64055 0.29573 0.11196 0.0
H3413 H 0.6058 0.37166 0.15816 0.0
H3414 H 0.6183 0.34002 0.14704 0.0
H3415 H 0.64554 0.35055 0.10898 0.0
H3416 H 0.6601 0.24301 0.08282 0.0
H3417 H 0.6447 0.27853 0.08841 0.0
C3418 C 0.8842 0.34878 0.39379 0.0
C3419 C 0.8629 0.35361 0.38993 0.0
C3420 C 0.90203 0.35606 0.38693 0.0
C3421 C 0.91934 0.39909 0.36587 0.0
H3422 H 0.96906 0.36163 0.36036 0.0
C3423 C 0.00609 0.43086 0.3584 0.0
C3424 C 0.01956 0.42065 0.34957 0.0
C3425 C 0.98544 0.42276 0.36101 0.0
C3426 C 0.95521 0.37222 0.36166 0.0
H3427 H 0.84375 0.36989 0.37576 0.0
H3428 H 0.87508 0.38298 0.36387 0.0
H3429 H 0.9358 0.34661 0.36932 0.0
H3430 H 0.02154 0.39402 0.33638 0.0
H3431 H 0.9854 0.3796 0.34114 0.0
H3432 H 0.939 0.42485 0.3586 0.0
C3433 C 0.87783 0.37342 0.3722 0.0
C3434 C 0.93625 0.36367 0.36689 0.0
C3435 C 0.85991 0.36588 0.37899 0.0
C3436 C 0.01159 0.40234 0.3432 0.0
C3437 C 0.99095 0.39402 0.34596 0.0
C3438 C 0.93839 0.40769 0.36077 0.0
C3439 C 0.89908 0.36855 0.3761 0.0
C3440 C 0.91826 0.37709 0.36928 0.0
C3441 C 0.97775 0.40406 0.35498 0.0
C3442 C 0.95667 0.39444 0.35883 0.0
H3443 H 0.88717 0.33933 0.40214 0.0
H3444 H 0.91819 0.35229 0.39027 0.0
H3445 H 0.90579 0.40985 0.36765 0.0
H3446 H 0.01162 0.44493 0.36353 0.0
H3447 H 0.9758 0.4307 0.36813 0.0
C3448 C 0.8975 0.37188 0.86132 0.0
C3449 C 0.90188 0.39144 0.8676 0.0
C3450 C 0.89085 0.3535 0.86783 0.0
C3451 C 0.86655 0.33426 0.8973 0.0
H3452 H 0.88748 0.27895 0.88486 0.0
C3453 C 0.84558 0.24641 0.91656 0.0
C3454 C 0.83591 0.23364 0.90717 0.0
C3455 C 0.85468 0.2667 0.91365 0.0
C3456 C 0.88165 0.29429 0.8885 0.0
H3457 H 0.90241 0.40689 0.88579 0.0
H3458 H 0.89092 0.37441 0.89727 0.0
H3459 H 0.90219 0.31252 0.87637 0.0
H3460 H 0.82799 0.23256 0.8874 0.0
H3461 H 0.84427 0.26733 0.88241 0.0
H3462 H 0.84587 0.31557 0.90941 0.0
C3463 C 0.89252 0.37354 0.88722 0.0
C3464 C 0.88992 0.31353 0.88358 0.0
C3465 C 0.89914 0.39213 0.88064 0.0
C3466 C 0.83529 0.24179 0.8949 0.0
C3467 C 0.84466 0.26173 0.892 0.0
C3468 C 0.85843 0.31486 0.90235 0.0
C3469 C 0.88854 0.35392 0.88087 0.0
C3470 C 0.88193 0.33377 0.88757 0.0
C3471 C 0.8546 0.27428 0.90129 0.0
C3472 C 0.86546 0.29476 0.89769 0.0
H3473 H 0.89929 0.37059 0.8513 0.0
H3474 H 0.88739 0.3389 0.86257 0.0
H3475 H 0.86002 0.34954 0.90057 0.0
H3476 H 0.84628 0.24066 0.9261 0.0
H3477 H 0.86229 0.27616 0.92095 0.0
C3478 C 0.00844 0.59148 0.16574 0.0
C3479 C 0.02251 0.58398 0.15632 0.0
C3480 C 0.988 0.60005 0.16266 0.0
C3481 C 0.96085 0.62894 0.13784 0.0
H3482 H 0.9062 0.60334 0.14811 0.0
C3483 C 0.88353 0.64492 0.11024 0.0
C3484 C 0.86359 0.6474 0.11646 0.0
C3485 C 0.902 0.63818 0.11665 0.0
C3486 C 0.92129 0.61096 0.14534 0.0
H3487 H 0.02586 0.57949 0.13628 0.0
H3488 H 0.9908 0.59483 0.13103 0.0
H3489 H 0.94038 0.58996 0.15705 0.0
H3490 H 0.84754 0.64451 0.1344 0.0
H3491 H 0.88012 0.63298 0.1457 0.0
H3492 H 0.94221 0.64988 0.12615 0.0
C3493 C 0.99549 0.59394 0.14077 0.0
C3494 C 0.9408 0.60327 0.15046 0.0
C3495 C 0.01559 0.58508 0.14382 0.0
C3496 C 0.8626 0.64269 0.1293 0.0
C3497 C 0.88126 0.63604 0.13578 0.0
C3498 C 0.94146 0.63677 0.13287 0.0
C3499 C 0.98157 0.60165 0.15011 0.0
C3500 C 0.96075 0.6118 0.14644 0.0
C3501 C 0.90126 0.63395 0.12953 0.0
C3502 C 0.92146 0.6274 0.13621 0.0
H3503 H 0.01324 0.59082 0.17545 0.0
H3504 H 0.97747 0.60592 0.17001 0.0
H3505 H 0.97604 0.63594 0.13471 0.0
H3506 H 0.88502 0.64828 0.10036 0.0
H3507 H 0.91693 0.63621 0.11144 0.0
C3508 C 0.60722 0.63385 0.36001 0.0
C3509 C 0.6047 0.61388 0.36618 0.0
C3510 C 0.61388 0.6523 0.36647 0.0
C3511 C 0.64084 0.67141 0.39528 0.0
H3512 H 0.61616 0.72626 0.38458 0.0
C3513 C 0.66011 0.75884 0.41554 0.0
C3514 C 0.66838 0.77245 0.40612 0.0
C3515 C 0.65137 0.73844 0.41252 0.0
C3516 C 0.62305 0.71104 0.38774 0.0
H3517 H 0.60742 0.59774 0.38411 0.0
H3518 H 0.61881 0.63027 0.3955 0.0
H3519 H 0.60216 0.69249 0.37597 0.0
H3520 H 0.67406 0.77505 0.38614 0.0
H3521 H 0.6584 0.74008 0.38099 0.0
H3522 H 0.66181 0.69042 0.40705 0.0
C3523 C 0.61584 0.63147 0.38557 0.0
C3524 C 0.6152 0.69168 0.38274 0.0
C3525 C 0.60928 0.61284 0.37904 0.0
C3526 C 0.66787 0.76512 0.39368 0.0
C3527 C 0.65884 0.74508 0.39068 0.0
C3528 C 0.64854 0.69089 0.40043 0.0
C3529 C 0.61798 0.65149 0.37937 0.0
C3530 C 0.62449 0.67165 0.38609 0.0
C3531 C 0.65039 0.73161 0.40003 0.0
C3532 C 0.64011 0.71086 0.39639 0.0
H3533 H 0.60396 0.63539 0.35012 0.0
H3534 H 0.6159 0.66725 0.36129 0.0
H3535 H 0.6484 0.65631 0.39806 0.0
H3536 H 0.66031 0.76396 0.42521 0.0
H3537 H 0.64491 0.72826 0.41988 0.0
C3538 C 0.62051 0.34894 0.61283 0.0
C3539 C 0.64176 0.35525 0.616 0.0
C3540 C 0.60272 0.35689 0.61948 0.0
C3541 C 0.58462 0.40334 0.63763 0.0
H3542 H 0.537 0.36552 0.64703 0.0
C3543 C 0.49701 0.43312 0.64554 0.0
C3544 C 0.48508 0.42448 0.65558 0.0
C3545 C 0.5177 0.42529 0.64272 0.0
C3546 C 0.55026 0.37626 0.64461 0.0
H3547 H 0.6609 0.37485 0.62871 0.0
H3548 H 0.62959 0.38911 0.6402 0.0
H3549 H 0.57028 0.34993 0.63841 0.0
H3550 H 0.48587 0.40093 0.67063 0.0
H3551 H 0.52198 0.38696 0.6655 0.0
H3552 H 0.5643 0.42973 0.64344 0.0
C3553 C 0.62686 0.37786 0.63259 0.0
C3554 C 0.56923 0.36736 0.63958 0.0
C3555 C 0.64476 0.36963 0.62605 0.0
C3556 C 0.4946 0.40803 0.66287 0.0
C3557 C 0.51523 0.39995 0.6599 0.0
C3558 C 0.56553 0.41227 0.6425 0.0
C3559 C 0.60566 0.37157 0.62936 0.0
C3560 C 0.58647 0.38083 0.63586 0.0
C3561 C 0.52691 0.40839 0.64973 0.0
C3562 C 0.54802 0.39885 0.64587 0.0
H3563 H 0.61757 0.33785 0.60518 0.0
H3564 H 0.58657 0.35194 0.61668 0.0
H3565 H 0.59758 0.41413 0.63478 0.0
H3566 H 0.49024 0.4457 0.63967 0.0
H3567 H 0.52617 0.43193 0.63472 0.0
C3568 C 0.10434 0.39336 0.38045 0.0
C3569 C 0.10534 0.39334 0.36731 0.0
C3570 C 0.11287 0.37594 0.38733 0.0
C3571 C 0.15393 0.33372 0.38577 0.0
H3572 H 0.11713 0.29758 0.40651 0.0
C3573 C 0.17579 0.24558 0.39553 0.0
C3574 C 0.17082 0.23589 0.40707 0.0
C3575 C 0.16878 0.26651 0.39275 0.0
C3576 C 0.12779 0.30772 0.40098 0.0
H3577 H 0.11605 0.3748 0.35121 0.0
H3578 H 0.13144 0.34513 0.36317 0.0
H3579 H 0.10298 0.33175 0.39805 0.0
H3580 H 0.1545 0.24094 0.42478 0.0
H3581 H 0.14243 0.27791 0.41992 0.0
H3582 H 0.17869 0.30995 0.38851 0.0
C3583 C 0.12398 0.35852 0.36812 0.0
C3584 C 0.11964 0.32725 0.39614 0.0
C3585 C 0.11511 0.37558 0.36128 0.0
C3586 C 0.15867 0.24789 0.41581 0.0
C3587 C 0.15166 0.26903 0.413 0.0
C3588 C 0.16214 0.31445 0.39072 0.0
C3589 C 0.12296 0.35849 0.38119 0.0
C3590 C 0.13245 0.34001 0.38815 0.0
C3591 C 0.15668 0.2786 0.40142 0.0
C3592 C 0.14894 0.30076 0.398 0.0
H3593 H 0.09677 0.40669 0.3854 0.0
H3594 H 0.11187 0.37622 0.39742 0.0
H3595 H 0.1642 0.34343 0.37976 0.0
H3596 H 0.18493 0.23692 0.38848 0.0
H3597 H 0.17251 0.27302 0.38361 0.0
C3598 C 0.38482 0.34757 0.11339 0.0
C3599 C 0.36342 0.35255 0.11698 0.0
C3600 C 0.40245 0.35531 0.12026 0.0
C3601 C 0.41915 0.39973 0.14045 0.0
H3602 H 0.46842 0.36261 0.14774 0.0
C3603 C 0.5058 0.43154 0.14861 0.0
C3604 C 0.51851 0.42215 0.15809 0.0
C3605 C 0.48527 0.42336 0.14578 0.0
C3606 C 0.45468 0.37312 0.14593 0.0
H3607 H 0.34385 0.36959 0.13066 0.0
H3608 H 0.37484 0.38352 0.14253 0.0
H3609 H 0.43555 0.34699 0.13862 0.0
H3610 H 0.51924 0.39689 0.17219 0.0
H3611 H 0.48335 0.38228 0.16703 0.0
H3612 H 0.43858 0.42599 0.14734 0.0
C3613 C 0.37783 0.37347 0.13442 0.0
C3614 C 0.43595 0.36422 0.14061 0.0
C3615 C 0.36011 0.36544 0.12765 0.0
C3616 C 0.50989 0.40459 0.16487 0.0
C3617 C 0.4894 0.39615 0.16188 0.0
C3618 C 0.43799 0.40868 0.14562 0.0
C3619 C 0.39918 0.36846 0.1308 0.0
C3620 C 0.41813 0.37749 0.13762 0.0
C3621 C 0.47697 0.40536 0.15223 0.0
C3622 C 0.45609 0.39553 0.14822 0.0
H3623 H 0.38801 0.33765 0.10525 0.0
H3624 H 0.41872 0.3514 0.11714 0.0
H3625 H 0.40572 0.41038 0.13818 0.0
H3626 H 0.51187 0.44499 0.14314 0.0
H3627 H 0.47622 0.43063 0.13819 0.0
C3628 C 0.33449 0.76396 0.89258 0.0
C3629 C 0.334 0.77079 0.90511 0.0
C3630 C 0.3434 0.74399 0.88931 0.0
C3631 C 0.3544 0.68941 0.89919 0.0
H3632 H 0.39855 0.69088 0.8734 0.0
C3633 C 0.39473 0.61121 0.87907 0.0
C3634 C 0.39908 0.6112 0.86618 0.0
C3635 C 0.38773 0.63018 0.88508 0.0
C3636 C 0.38608 0.69009 0.88051 0.0
H3637 H 0.342 0.76146 0.92409 0.0
H3638 H 0.3572 0.72593 0.91828 0.0
H3639 H 0.38436 0.72471 0.88181 0.0
H3640 H 0.39897 0.63116 0.84948 0.0
H3641 H 0.38614 0.66368 0.85976 0.0
H3642 H 0.35535 0.65475 0.89748 0.0
C3643 C 0.3508 0.73643 0.91106 0.0
C3644 C 0.37811 0.7095 0.88539 0.0
C3645 C 0.34216 0.75674 0.91435 0.0
C3646 C 0.39588 0.63048 0.85942 0.0
C3647 C 0.38871 0.64929 0.86537 0.0
C3648 C 0.36219 0.66988 0.89417 0.0
C3649 C 0.35179 0.7301 0.89847 0.0
C3650 C 0.36192 0.70937 0.89459 0.0
C3651 C 0.38481 0.64953 0.8783 0.0
C3652 C 0.37779 0.67001 0.88455 0.0
H3653 H 0.32835 0.77421 0.88517 0.0
H3654 H 0.34376 0.73938 0.87956 0.0
H3655 H 0.34182 0.68893 0.90624 0.0
H3656 H 0.39712 0.59668 0.88459 0.0
H3657 H 0.38504 0.62977 0.89506 0.0
C3658 C 0.99177 0.57781 0.64457 0.0
C3659 C 0.98366 0.58126 0.65668 0.0
C3660 C 0.01269 0.58431 0.64135 0.0
C3661 C 0.05707 0.62151 0.65049 0.0
H3662 H 0.08808 0.58824 0.62546 0.0
C3663 C 0.14273 0.64232 0.62869 0.0
C3664 C 0.14095 0.64559 0.61572 0.0
C3665 C 0.1253 0.63366 0.6355 0.0
C3666 C 0.07968 0.59757 0.63254 0.0
H3667 H 0.99152 0.5942 0.67495 0.0
H3668 H 0.02846 0.60521 0.66936 0.0
H3669 H 0.05478 0.57373 0.63444 0.0
H3670 H 0.11917 0.64257 0.59987 0.0
H3671 H 0.08943 0.62675 0.61163 0.0
H3672 H 0.08234 0.64533 0.64845 0.0
C3673 C 0.01837 0.59769 0.66232 0.0
C3674 C 0.0605 0.5894 0.63762 0.0
C3675 C 0.99722 0.59127 0.66554 0.0
C3676 C 0.12135 0.64006 0.60977 0.0
C3677 C 0.10424 0.63102 0.61651 0.0
C3678 C 0.07655 0.62954 0.64552 0.0
C3679 C 0.02635 0.59428 0.65015 0.0
C3680 C 0.04848 0.6016 0.64632 0.0
C3681 C 0.10603 0.62771 0.6294 0.0
C3682 C 0.08761 0.6179 0.63623 0.0
H3683 H 0.98187 0.57033 0.63742 0.0
H3684 H 0.01793 0.5819 0.63181 0.0
H3685 H 0.04825 0.63142 0.65711 0.0
H3686 H 0.15751 0.64657 0.63359 0.0
H3687 H 0.12698 0.63127 0.64547 0.0
C3688 C 0.10976 0.63238 0.14854 0.0
C3689 C 0.10703 0.61251 0.14228 0.0
C3690 C 0.11658 0.65085 0.14215 0.0
C3691 C 0.14336 0.67014 0.11327 0.0
H3692 H 0.11919 0.72504 0.12425 0.0
C3693 C 0.16254 0.75705 0.09252 0.0
C3694 C 0.17028 0.77127 0.10181 0.0
C3695 C 0.15409 0.73664 0.09578 0.0
C3696 C 0.12597 0.70981 0.12104 0.0
H3697 H 0.10955 0.59661 0.12427 0.0
H3698 H 0.12116 0.62919 0.11301 0.0
H3699 H 0.10527 0.69131 0.13293 0.0
H3700 H 0.17536 0.77489 0.12178 0.0
H3701 H 0.16023 0.73988 0.12733 0.0
H3702 H 0.16408 0.6891 0.10133 0.0
C3703 C 0.11827 0.63027 0.12296 0.0
C3704 C 0.11816 0.69047 0.12607 0.0
C3705 C 0.11156 0.61161 0.12941 0.0
C3706 C 0.16956 0.7645 0.11434 0.0
C3707 C 0.16083 0.74443 0.11757 0.0
C3708 C 0.15102 0.68961 0.10809 0.0
C3709 C 0.12062 0.65019 0.12925 0.0
C3710 C 0.12723 0.6704 0.12259 0.0
C3711 C 0.15286 0.73038 0.10837 0.0
C3712 C 0.14279 0.70961 0.11222 0.0
H3713 H 0.10653 0.6338 0.15844 0.0
H3714 H 0.11875 0.66571 0.1474 0.0
H3715 H 0.15076 0.65501 0.11038 0.0
H3716 H 0.1629 0.76172 0.08278 0.0
H3717 H 0.14801 0.72602 0.08852 0.0
C3718 C 0.11966 0.34712 0.89504 0.0
C3719 C 0.14104 0.35219 0.89146 0.0
C3720 C 0.10199 0.35491 0.88822 0.0
C3721 C 0.08516 0.39947 0.86814 0.0
H3722 H 0.03596 0.36229 0.86081 0.0
C3723 C 0.99843 0.43115 0.86013 0.0
C3724 C 0.98568 0.42174 0.85068 0.0
C3725 C 0.01901 0.42301 0.8629 0.0
C3726 C 0.04968 0.37281 0.86263 0.0
H3727 H 0.16052 0.36946 0.87783 0.0
H3728 H 0.12948 0.38345 0.86603 0.0
H3729 H 0.06887 0.34668 0.86989 0.0
H3730 H 0.9849 0.39653 0.83655 0.0
H3731 H 0.02087 0.382 0.8416 0.0
H3732 H 0.06567 0.42572 0.86129 0.0
C3733 C 0.12654 0.3733 0.87411 0.0
C3734 C 0.06843 0.36392 0.86793 0.0
C3735 C 0.14429 0.36524 0.88084 0.0
C3736 C 0.99429 0.40423 0.84386 0.0
C3737 C 0.01483 0.39584 0.84678 0.0
C3738 C 0.0663 0.40841 0.86299 0.0
C3739 C 0.10521 0.36818 0.87772 0.0
C3740 C 0.08622 0.37722 0.87094 0.0
C3741 C 0.0273 0.40504 0.85641 0.0
C3742 C 0.04822 0.39523 0.86038 0.0
H3743 H 0.11651 0.33708 0.90313 0.0
H3744 H 0.08575 0.35092 0.89132 0.0
H3745 H 0.09857 0.41013 0.87042 0.0
H3746 H 0.99237 0.44455 0.86564 0.0
H3747 H 0.0281 0.43028 0.87048 0.0
C3748 C 0.34442 0.24681 0.5919 0.0
C3749 C 0.33625 0.23313 0.60133 0.0
C3750 C 0.35318 0.2672 0.59492 0.0
C3751 C 0.38109 0.29461 0.62014 0.0
H3752 H 0.35838 0.3494 0.60804 0.0
C3753 C 0.39717 0.37292 0.64671 0.0
C3754 C 0.40098 0.39241 0.64024 0.0
C3755 C 0.39043 0.35433 0.64042 0.0
C3756 C 0.3652 0.33425 0.61133 0.0
H3757 H 0.33068 0.23047 0.62131 0.0
H3758 H 0.34631 0.26544 0.62647 0.0
H3759 H 0.34457 0.31516 0.59941 0.0
H3760 H 0.40042 0.40751 0.62196 0.0
H3761 H 0.38884 0.37468 0.61087 0.0
H3762 H 0.40165 0.31326 0.63204 0.0
C3763 C 0.34585 0.26048 0.61677 0.0
C3764 C 0.35726 0.31469 0.6064 0.0
C3765 C 0.33682 0.24043 0.61377 0.0
C3766 C 0.3976 0.39281 0.62725 0.0
C3767 C 0.3909 0.37401 0.6209 0.0
C3768 C 0.38917 0.31402 0.62494 0.0
C3769 C 0.35428 0.27399 0.60743 0.0
C3770 C 0.36471 0.29472 0.61105 0.0
C3771 C 0.38748 0.35447 0.62742 0.0
C3772 C 0.38082 0.33411 0.62093 0.0
H3773 H 0.34418 0.24173 0.58223 0.0
H3774 H 0.35961 0.27738 0.58756 0.0
H3775 H 0.3873 0.27941 0.62376 0.0
H3776 H 0.39947 0.37186 0.65671 0.0
H3777 H 0.3874 0.33979 0.64583 0.0
C3778 C 0.51353 0.58625 0.36444 0.0
C3779 C 0.52048 0.58526 0.35194 0.0
C3780 C 0.49347 0.59521 0.3675 0.0
C3781 C 0.4389 0.60496 0.35791 0.0
H3782 H 0.44071 0.65201 0.38193 0.0
C3783 C 0.36091 0.64498 0.37882 0.0
C3784 C 0.36189 0.65006 0.39161 0.0
C3785 C 0.37958 0.63821 0.3724 0.0
C3786 C 0.43984 0.63877 0.3753 0.0
H3787 H 0.51131 0.59237 0.33282 0.0
H3788 H 0.47562 0.60763 0.33829 0.0
H3789 H 0.47442 0.63764 0.37343 0.0
H3790 H 0.38337 0.65159 0.40767 0.0
H3791 H 0.4153 0.63927 0.3967 0.0
H3792 H 0.40432 0.60529 0.36029 0.0
C3793 C 0.48609 0.6016 0.34563 0.0
C3794 C 0.45916 0.6307 0.37036 0.0
C3795 C 0.50648 0.59294 0.34253 0.0
C3796 C 0.38187 0.64791 0.39783 0.0
C3797 C 0.40036 0.64104 0.39148 0.0
C3798 C 0.41945 0.61286 0.363 0.0
C3799 C 0.47964 0.60311 0.35817 0.0
C3800 C 0.45891 0.61342 0.36185 0.0
C3801 C 0.3996 0.63635 0.37865 0.0
C3802 C 0.41976 0.62949 0.37203 0.0
H3803 H 0.52376 0.58053 0.37196 0.0
H3804 H 0.48877 0.59605 0.37724 0.0
H3805 H 0.43836 0.59154 0.35139 0.0
H3806 H 0.34582 0.64653 0.37371 0.0
H3807 H 0.37841 0.63483 0.36251 0.0
loop_
_geom_bond_atom_site_label_1
_geom_bond_atom_site_label_2
_geom_bond_distance
_geom_bond_site_symmetry_2
_ccdc_geom_bond_type
Co0 O2 2.143 . S
Co0 O8 2.074 . S
Co0 O11 2.093 . S
Co0 O24 2.097 . S
Co0 N41 2.151 . S
Co0 N49 2.214 . S
Co1 O2 2.160 . S
Co1 O7 2.058 . S
Co1 O17 2.057 . S
Co1 O32 2.037 . S
Co1 N36 2.145 . S
Co1 N57 2.257 . S
O2 Co0 2.143 . S
O2 Co1 2.160 . S
C3 O4 1.278 . S
C3 O11 1.224 . S
O4 C3 1.278 . S
C5 O6 1.245 . S
C5 O17 1.232 . S
O6 C5 1.245 . S
O7 Co1 2.058 . S
O7 C33 1.269 . S
O8 Co0 2.074 . S
O8 C33 1.257 . S
H9 C34 0.930 . S
H10 C40 0.930 . S
O11 Co0 2.093 . S
O11 C3 1.224 . S
H12 C44 0.929 . S
H13 C46 0.930 . S
H14 C47 0.930 . S
H15 C45 0.929 . S
H16 C48 0.928 . S
O17 Co1 2.057 . S
O17 C5 1.232 . S
H18 C37 0.929 . S
H19 C38 0.929 . S
H20 C50 0.931 . S
H21 C42 0.929 . S
H22 C51 0.930 . S
H23 C43 0.931 . S
O24 Co0 2.097 . S
O24 C52 1.214 . S
H25 C53 0.929 . S
H26 C54 0.929 . S
H27 C55 0.930 . S
H28 C56 0.929 . S
H29 C58 0.930 . S
H30 C35 0.930 . S
H31 C39 0.930 . S
O32 Co1 2.037 . S
O32 C52 1.234 . S
C33 O7 1.269 . S
C33 O8 1.257 . S
C34 H9 0.930 . S
C34 C37 1.388 . S
C34 C39 1.418 . S
C35 H30 0.930 . S
C35 C38 1.404 . S
C35 C39 1.353 . S
N36 Co1 2.145 . S
N36 C37 1.397 . S
N36 C38 1.334 . S
C37 H18 0.929 . S
C37 C34 1.388 . S
C37 N36 1.397 . S
C38 H19 0.929 . S
C38 C35 1.404 . S
C38 N36 1.334 . S
C39 H31 0.930 . S
C39 C34 1.418 . S
C39 C35 1.353 . S
C40 H10 0.930 . S
C40 N41 1.330 1_565 S
C40 C42 1.446 . S
N41 Co0 2.151 . S
N41 C40 1.330 1_545 S
N41 C45 1.418 . S
C42 H21 0.929 . S
C42 C40 1.446 . S
C42 C43 1.332 . S
C43 H23 0.931 . S
C43 C42 1.332 . S
C43 C44 1.267 . S
C44 H12 0.929 . S
C44 C43 1.267 . S
C44 C45 1.251 1_565 S
C45 H15 0.929 . S
C45 N41 1.418 . S
C45 C44 1.251 1_545 S
C46 H13 0.930 . S
C46 C48 1.406 . S
C46 C51 1.261 . S
C47 H14 0.930 . S
C47 N49 1.325 . S
C47 C50 1.357 . S
C48 H16 0.928 . S
C48 C46 1.406 . S
C48 N49 1.261 . S
N49 Co0 2.214 . S
N49 C47 1.325 . S
N49 C48 1.261 . S
C50 H20 0.931 . S
C50 C47 1.357 . S
C50 C51 1.312 . S
C51 H22 0.930 . S
C51 C46 1.261 . S
C51 C50 1.312 . S
C52 O24 1.214 . S
C52 O32 1.234 . S
C53 H25 0.929 . S
C53 C56 1.391 . S
C53 C58 1.391 . S
C54 H26 0.929 . S
C54 C55 1.390 . S
C54 N57 1.391 . S
C55 H27 0.930 . S
C55 C54 1.390 . S
C55 C56 1.392 . S
C56 H28 0.929 . S
C56 C53 1.391 . S
C56 C55 1.392 . S
N57 Co1 2.257 . S
N57 C54 1.391 . S
N57 C58 1.388 . S
C58 H29 0.930 . S
C58 C53 1.391 . S
C58 N57 1.388 . S
Co59 O61 2.143 . S
Co59 O67 2.074 . S
Co59 O70 2.093 . S
Co59 O83 2.097 . S
Co59 N100 2.151 . S
Co59 N108 2.214 . S
Co60 O61 2.160 . S
Co60 O66 2.058 . S
Co60 O76 2.057 . S
Co60 O91 2.037 . S
Co60 N95 2.145 . S
Co60 N116 2.257 . S
O61 Co59 2.143 . S
O61 Co60 2.160 . S
C62 O63 1.278 . S
C62 O70 1.224 . S
O63 C62 1.278 . S
C64 O65 1.245 . S
C64 O76 1.232 . S
O65 C64 1.245 . S
O66 Co60 2.058 . S
O66 C92 1.269 . S
O67 Co59 2.074 . S
O67 C92 1.257 . S
H68 C93 0.930 . S
H69 C99 0.930 . S
O70 Co59 2.093 . S
O70 C62 1.224 . S
H71 C103 0.929 . S
H72 C105 0.930 . S
H73 C106 0.930 . S
H74 C104 0.929 . S
H75 C107 0.928 . S
O76 Co60 2.057 . S
O76 C64 1.232 . S
H77 C96 0.929 . S
H78 C97 0.929 . S
H79 C109 0.931 . S
H80 C101 0.929 . S
H81 C110 0.930 . S
H82 C102 0.931 . S
O83 Co59 2.097 . S
O83 C111 1.214 . S
H84 C112 0.929 . S
H85 C113 0.929 . S
H86 C114 0.930 . S
H87 C115 0.929 . S
H88 C117 0.930 . S
H89 C94 0.930 . S
H90 C98 0.930 . S
O91 Co60 2.037 . S
O91 C111 1.234 . S
C92 O66 1.269 . S
C92 O67 1.257 . S
C93 H68 0.930 . S
C93 C96 1.388 . S
C93 C98 1.418 . S
C94 H89 0.930 . S
C94 C97 1.404 . S
C94 C98 1.353 . S
N95 Co60 2.145 . S
N95 C96 1.397 . S
N95 C97 1.334 . S
C96 H77 0.929 . S
C96 C93 1.388 . S
C96 N95 1.397 . S
C97 H78 0.929 . S
C97 C94 1.404 . S
C97 N95 1.334 . S
C98 H90 0.930 . S
C98 C93 1.418 . S
C98 C94 1.353 . S
C99 H69 0.930 . S
C99 N100 1.330 . S
C99 C101 1.446 . S
N100 Co59 2.151 . S
N100 C99 1.330 . S
N100 C104 1.418 . S
C101 H80 0.929 . S
C101 C99 1.446 . S
C101 C102 1.332 . S
C102 H82 0.931 . S
C102 C101 1.332 . S
C102 C103 1.267 . S
C103 H71 0.929 . S
C103 C102 1.267 . S
C103 C104 1.251 . S
C104 H74 0.929 . S
C104 N100 1.418 . S
C104 C103 1.251 . S
C105 H72 0.930 . S
C105 C107 1.406 . S
C105 C110 1.261 . S
C106 H73 0.930 . S
C106 N108 1.325 . S
C106 C109 1.357 . S
C107 H75 0.928 . S
C107 C105 1.406 . S
C107 N108 1.261 . S
N108 Co59 2.214 . S
N108 C106 1.325 . S
N108 C107 1.261 . S
C109 H79 0.931 . S
C109 C106 1.357 . S
C109 C110 1.312 . S
C110 H81 0.930 . S
C110 C105 1.261 . S
C110 C109 1.312 . S
C111 O83 1.214 . S
C111 O91 1.234 . S
C112 H84 0.929 . S
C112 C115 1.391 . S
C112 C117 1.391 . S
C113 H85 0.929 . S
C113 C114 1.390 . S
C113 N116 1.391 . S
C114 H86 0.930 . S
C114 C113 1.390 . S
C114 C115 1.392 . S
C115 H87 0.929 . S
C115 C112 1.391 . S
C115 C114 1.392 . S
N116 Co60 2.257 . S
N116 C113 1.391 . S
N116 C117 1.388 . S
C117 H88 0.930 . S
C117 C112 1.391 . S
C117 N116 1.388 . S
Co118 O120 2.143 . S
Co118 O126 2.074 . S
Co118 O129 2.093 . S
Co118 O142 2.097 . S
Co118 N159 2.151 . S
Co118 N167 2.214 . S
Co119 O120 2.160 . S
Co119 O125 2.058 . S
Co119 O135 2.057 . S
Co119 O150 2.037 . S
Co119 N154 2.145 . S
Co119 N175 2.257 . S
O120 Co118 2.143 . S
O120 Co119 2.160 . S
C121 O122 1.278 . S
C121 O129 1.224 . S
O122 C121 1.278 . S
C123 O124 1.245 . S
C123 O135 1.232 . S
O124 C123 1.245 . S
O125 Co119 2.058 . S
O125 C151 1.269 . S
O126 Co118 2.074 . S
O126 C151 1.257 . S
H127 C152 0.930 . S
H128 C158 0.930 . S
O129 Co118 2.093 . S
O129 C121 1.224 . S
H130 C162 0.929 . S
H131 C164 0.930 . S
H132 C165 0.930 . S
H133 C163 0.929 . S
H134 C166 0.928 . S
O135 Co119 2.057 . S
O135 C123 1.232 . S
H136 C155 0.929 . S
H137 C156 0.929 . S
H138 C168 0.931 . S
H139 C160 0.929 . S
H140 C169 0.930 . S
H141 C161 0.931 . S
O142 Co118 2.097 . S
O142 C170 1.214 . S
H143 C171 0.929 . S
H144 C172 0.929 . S
H145 C173 0.930 . S
H146 C174 0.929 . S
H147 C176 0.930 . S
H148 C153 0.930 . S
H149 C157 0.930 . S
O150 Co119 2.037 . S
O150 C170 1.234 . S
C151 O125 1.269 . S
C151 O126 1.257 . S
C152 H127 0.930 . S
C152 C155 1.388 . S
C152 C157 1.418 . S
C153 H148 0.930 . S
C153 C156 1.404 . S
C153 C157 1.353 . S
N154 Co119 2.145 . S
N154 C155 1.397 . S
N154 C156 1.334 . S
C155 H136 0.929 . S
C155 C152 1.388 . S
C155 N154 1.397 . S
C156 H137 0.929 . S
C156 C153 1.404 . S
C156 N154 1.334 . S
C157 H149 0.930 . S
C157 C152 1.418 . S
C157 C153 1.353 . S
C158 H128 0.930 . S
C158 N159 1.330 1_545 S
C158 C160 1.446 . S
N159 Co118 2.151 . S
N159 C158 1.330 1_565 S
N159 C163 1.418 . S
C160 H139 0.929 . S
C160 C158 1.446 . S
C160 C161 1.332 . S
C161 H141 0.931 . S
C161 C160 1.332 . S
C161 C162 1.267 . S
C162 H130 0.929 . S
C162 C161 1.267 . S
C162 C163 1.251 1_545 S
C163 H133 0.929 . S
C163 N159 1.418 . S
C163 C162 1.251 1_565 S
C164 H131 0.930 . S
C164 C166 1.406 . S
C164 C169 1.261 . S
C165 H132 0.930 . S
C165 N167 1.325 . S
C165 C168 1.357 . S
C166 H134 0.928 . S
C166 C164 1.406 . S
C166 N167 1.261 . S
N167 Co118 2.214 . S
N167 C165 1.325 . S
N167 C166 1.261 . S
C168 H138 0.931 . S
C168 C165 1.357 . S
C168 C169 1.312 . S
C169 H140 0.930 . S
C169 C164 1.261 . S
C169 C168 1.312 . S
C170 O142 1.214 . S
C170 O150 1.234 . S
C171 H143 0.929 . S
C171 C174 1.391 . S
C171 C176 1.391 . S
C172 H144 0.929 . S
C172 C173 1.390 . S
C172 N175 1.391 . S
C173 H145 0.930 . S
C173 C172 1.390 . S
C173 C174 1.392 . S
C174 H146 0.929 . S
C174 C171 1.391 . S
C174 C173 1.392 . S
N175 Co119 2.257 . S
N175 C172 1.391 . S
N175 C176 1.388 . S
C176 H147 0.930 . S
C176 C171 1.391 . S
C176 N175 1.388 . S
Co177 O179 2.143 . S
Co177 O185 2.074 . S
Co177 O188 2.093 . S
Co177 O201 2.097 . S
Co177 N218 2.151 . S
Co177 N226 2.214 . S
Co178 O179 2.160 . S
Co178 O184 2.058 . S
Co178 O194 2.057 . S
Co178 O209 2.037 . S
Co178 N213 2.145 . S
Co178 N234 2.257 . S
O179 Co177 2.143 . S
O179 Co178 2.160 . S
C180 O181 1.278 . S
C180 O188 1.224 . S
O181 C180 1.278 . S
C182 O183 1.245 . S
C182 O194 1.232 . S
O183 C182 1.245 . S
O184 Co178 2.058 . S
O184 C210 1.269 . S
O185 Co177 2.074 . S
O185 C210 1.257 . S
H186 C211 0.930 . S
H187 C217 0.930 . S
O188 Co177 2.093 . S
O188 C180 1.224 . S
H189 C221 0.929 . S
H190 C223 0.930 . S
H191 C224 0.930 . S
H192 C222 0.929 . S
H193 C225 0.928 . S
O194 Co178 2.057 . S
O194 C182 1.232 . S
H195 C214 0.929 . S
H196 C215 0.929 . S
H197 C227 0.931 . S
H198 C219 0.929 . S
H199 C228 0.930 . S
H200 C220 0.931 . S
O201 Co177 2.097 . S
O201 C229 1.214 . S
H202 C230 0.929 . S
H203 C231 0.929 . S
H204 C232 0.930 . S
H205 C233 0.929 . S
H206 C235 0.930 . S
H207 C212 0.930 . S
H208 C216 0.930 . S
O209 Co178 2.037 . S
O209 C229 1.234 . S
C210 O184 1.269 . S
C210 O185 1.257 . S
C211 H186 0.930 . S
C211 C214 1.388 . S
C211 C216 1.418 . S
C212 H207 0.930 . S
C212 C215 1.404 . S
C212 C216 1.353 . S
N213 Co178 2.145 . S
N213 C214 1.397 . S
N213 C215 1.334 . S
C214 H195 0.929 . S
C214 C211 1.388 . S
C214 N213 1.397 . S
C215 H196 0.929 . S
C215 C212 1.404 . S
C215 N213 1.334 . S
C216 H208 0.930 . S
C216 C211 1.418 . S
C216 C212 1.353 . S
C217 H187 0.930 . S
C217 N218 1.330 . S
C217 C219 1.446 . S
N218 Co177 2.151 . S
N218 C217 1.330 . S
N218 C222 1.418 . S
C219 H198 0.929 . S
C219 C217 1.446 . S
C219 C220 1.332 . S
C220 H200 0.931 . S
C220 C219 1.332 . S
C220 C221 1.267 . S
C221 H189 0.929 . S
C221 C220 1.267 . S
C221 C222 1.251 . S
C222 H192 0.929 . S
C222 N218 1.418 . S
C222 C221 1.251 . S
C223 H190 0.930 . S
C223 C225 1.406 . S
C223 C228 1.261 . S
C224 H191 0.930 . S
C224 N226 1.325 . S
C224 C227 1.357 . S
C225 H193 0.928 . S
C225 C223 1.406 . S
C225 N226 1.261 . S
N226 Co177 2.214 . S
N226 C224 1.325 . S
N226 C225 1.261 . S
C227 H197 0.931 . S
C227 C224 1.357 . S
C227 C228 1.312 . S
C228 H199 0.930 . S
C228 C223 1.261 . S
C228 C227 1.312 . S
C229 O201 1.214 . S
C229 O209 1.234 . S
C230 H202 0.929 . S
C230 C233 1.391 . S
C230 C235 1.391 . S
C231 H203 0.929 . S
C231 C232 1.390 . S
C231 N234 1.391 . S
C232 H204 0.930 . S
C232 C231 1.390 . S
C232 C233 1.392 . S
C233 H205 0.929 . S
C233 C230 1.391 . S
C233 C232 1.392 . S
N234 Co178 2.257 . S
N234 C231 1.391 . S
N234 C235 1.388 . S
C235 H206 0.930 . S
C235 C230 1.391 . S
C235 N234 1.388 . S
Co236 O238 2.143 . S
Co236 O244 2.074 . S
Co236 O247 2.093 . S
Co236 O260 2.097 . S
Co236 N277 2.151 . S
Co236 N285 2.214 . S
Co237 O238 2.160 . S
Co237 O243 2.058 . S
Co237 O253 2.057 . S
Co237 O268 2.037 . S
Co237 N272 2.145 . S
Co237 N293 2.257 . S
O238 Co236 2.143 . S
O238 Co237 2.160 . S
C239 O240 1.278 . S
C239 O247 1.224 . S
O240 C239 1.278 . S
C241 O242 1.245 . S
C241 O253 1.232 . S
O242 C241 1.245 . S
O243 Co237 2.058 . S
O243 C269 1.269 . S
O244 Co236 2.074 . S
O244 C269 1.257 . S
H245 C270 0.930 . S
H246 C276 0.930 . S
O247 Co236 2.093 . S
O247 C239 1.224 . S
H248 C280 0.929 . S
H249 C282 0.930 . S
H250 C283 0.930 . S
H251 C281 0.929 . S
H252 C284 0.928 . S
O253 Co237 2.057 . S
O253 C241 1.232 . S
H254 C273 0.929 . S
H255 C274 0.929 . S
H256 C286 0.931 . S
H257 C278 0.929 . S
H258 C287 0.930 . S
H259 C279 0.931 . S
O260 Co236 2.097 . S
O260 C288 1.214 . S
H261 C289 0.929 . S
H262 C290 0.929 . S
H263 C291 0.930 . S
H264 C292 0.929 . S
H265 C294 0.930 . S
H266 C271 0.930 . S
H267 C275 0.930 . S
O268 Co237 2.037 . S
O268 C288 1.234 . S
C269 O243 1.269 . S
C269 O244 1.257 . S
C270 H245 0.930 . S
C270 C273 1.388 . S
C270 C275 1.418 . S
C271 H266 0.930 . S
C271 C274 1.404 . S
C271 C275 1.353 . S
N272 Co237 2.145 . S
N272 C273 1.397 . S
N272 C274 1.334 . S
C273 H254 0.929 . S
C273 C270 1.388 . S
C273 N272 1.397 . S
C274 H255 0.929 . S
C274 C271 1.404 . S
C274 N272 1.334 . S
C275 H267 0.930 . S
C275 C270 1.418 . S
C275 C271 1.353 . S
C276 H246 0.930 . S
C276 N277 1.330 1_545 S
C276 C278 1.446 . S
N277 Co236 2.151 . S
N277 C276 1.330 1_565 S
N277 C281 1.418 . S
C278 H257 0.929 . S
C278 C276 1.446 . S
C278 C279 1.332 . S
C279 H259 0.931 . S
C279 C278 1.332 . S
C279 C280 1.267 . S
C280 H248 0.929 . S
C280 C279 1.267 . S
C280 C281 1.251 1_545 S
C281 H251 0.929 . S
C281 N277 1.418 . S
C281 C280 1.251 1_565 S
C282 H249 0.930 . S
C282 C284 1.406 . S
C282 C287 1.261 . S
C283 H250 0.930 . S
C283 N285 1.325 . S
C283 C286 1.357 . S
C284 H252 0.928 . S
C284 C282 1.406 . S
C284 N285 1.261 . S
N285 Co236 2.214 . S
N285 C283 1.325 . S
N285 C284 1.261 . S
C286 H256 0.931 . S
C286 C283 1.357 . S
C286 C287 1.312 . S
C287 H258 0.930 . S
C287 C282 1.261 . S
C287 C286 1.312 . S
C288 O260 1.214 . S
C288 O268 1.234 . S
C289 H261 0.929 . S
C289 C292 1.391 . S
C289 C294 1.391 . S
C290 H262 0.929 . S
C290 C291 1.390 . S
C290 N293 1.391 . S
C291 H263 0.930 . S
C291 C290 1.390 . S
C291 C292 1.392 . S
C292 H264 0.929 . S
C292 C289 1.391 . S
C292 C291 1.392 . S
N293 Co237 2.257 . S
N293 C290 1.391 . S
N293 C294 1.388 . S
C294 H265 0.930 . S
C294 C289 1.391 . S
C294 N293 1.388 . S
Co295 O297 2.143 . S
Co295 O303 2.074 . S
Co295 O306 2.093 . S
Co295 O319 2.097 . S
Co295 N336 2.151 . S
Co295 N344 2.214 . S
Co296 O297 2.160 . S
Co296 O302 2.058 . S
Co296 O312 2.057 . S
Co296 O327 2.037 . S
Co296 N331 2.145 . S
Co296 N352 2.257 . S
O297 Co295 2.143 . S
O297 Co296 2.160 . S
C298 O299 1.278 . S
C298 O306 1.224 . S
O299 C298 1.278 . S
C300 O301 1.245 . S
C300 O312 1.232 . S
O301 C300 1.245 . S
O302 Co296 2.058 . S
O302 C328 1.269 . S
O303 Co295 2.074 . S
O303 C328 1.257 . S
H304 C329 0.930 . S
H305 C335 0.930 . S
O306 Co295 2.093 . S
O306 C298 1.224 . S
H307 C339 0.929 . S
H308 C341 0.930 . S
H309 C342 0.930 . S
H310 C340 0.929 . S
H311 C343 0.928 . S
O312 Co296 2.057 . S
O312 C300 1.232 . S
H313 C332 0.929 . S
H314 C333 0.929 . S
H315 C345 0.931 . S
H316 C337 0.929 . S
H317 C346 0.930 . S
H318 C338 0.931 . S
O319 Co295 2.097 . S
O319 C347 1.214 . S
H320 C348 0.929 . S
H321 C349 0.929 . S
H322 C350 0.930 . S
H323 C351 0.929 . S
H324 C353 0.930 . S
H325 C330 0.930 . S
H326 C334 0.930 . S
O327 Co296 2.037 . S
O327 C347 1.234 . S
C328 O302 1.269 . S
C328 O303 1.257 . S
C329 H304 0.930 . S
C329 C332 1.388 . S
C329 C334 1.418 . S
C330 H325 0.930 . S
C330 C333 1.404 . S
C330 C334 1.353 . S
N331 Co296 2.145 . S
N331 C332 1.397 . S
N331 C333 1.334 . S
C332 H313 0.929 . S
C332 C329 1.388 . S
C332 N331 1.397 . S
C333 H314 0.929 . S
C333 C330 1.404 . S
C333 N331 1.334 . S
C334 H326 0.930 . S
C334 C329 1.418 . S
C334 C330 1.353 . S
C335 H305 0.930 . S
C335 N336 1.330 . S
C335 C337 1.446 . S
N336 Co295 2.151 . S
N336 C335 1.330 . S
N336 C340 1.418 . S
C337 H316 0.929 . S
C337 C335 1.446 . S
C337 C338 1.332 . S
C338 H318 0.931 . S
C338 C337 1.332 . S
C338 C339 1.267 . S
C339 H307 0.929 . S
C339 C338 1.267 . S
C339 C340 1.251 . S
C340 H310 0.929 . S
C340 N336 1.418 . S
C340 C339 1.251 . S
C341 H308 0.930 . S
C341 C343 1.406 . S
C341 C346 1.261 . S
C342 H309 0.930 . S
C342 N344 1.325 . S
C342 C345 1.357 . S
C343 H311 0.928 . S
C343 C341 1.406 . S
C343 N344 1.261 . S
N344 Co295 2.214 . S
N344 C342 1.325 . S
N344 C343 1.261 . S
C345 H315 0.931 . S
C345 C342 1.357 . S
C345 C346 1.312 . S
C346 H317 0.930 . S
C346 C341 1.261 . S
C346 C345 1.312 . S
C347 O319 1.214 . S
C347 O327 1.234 . S
C348 H320 0.929 . S
C348 C351 1.391 . S
C348 C353 1.391 . S
C349 H321 0.929 . S
C349 C350 1.390 . S
C349 N352 1.391 . S
C350 H322 0.930 . S
C350 C349 1.390 . S
C350 C351 1.392 . S
C351 H323 0.929 . S
C351 C348 1.391 . S
C351 C350 1.392 . S
N352 Co296 2.257 . S
N352 C349 1.391 . S
N352 C353 1.388 . S
C353 H324 0.930 . S
C353 C348 1.391 . S
C353 N352 1.388 . S
Co354 O356 2.143 . S
Co354 O362 2.074 . S
Co354 O365 2.093 . S
Co354 O378 2.097 . S
Co354 N395 2.151 . S
Co354 N403 2.214 . S
Co355 O356 2.160 . S
Co355 O361 2.058 . S
Co355 O371 2.057 . S
Co355 O386 2.037 . S
Co355 N390 2.145 . S
Co355 N411 2.257 . S
O356 Co354 2.143 . S
O356 Co355 2.160 . S
C357 O358 1.278 . S
C357 O365 1.224 . S
O358 C357 1.278 . S
C359 O360 1.245 . S
C359 O371 1.232 . S
O360 C359 1.245 . S
O361 Co355 2.058 . S
O361 C387 1.269 . S
O362 Co354 2.074 . S
O362 C387 1.257 . S
H363 C388 0.930 . S
H364 C394 0.930 . S
O365 Co354 2.093 . S
O365 C357 1.224 . S
H366 C398 0.929 . S
H367 C400 0.930 . S
H368 C401 0.930 . S
H369 C399 0.929 . S
H370 C402 0.928 . S
O371 Co355 2.057 . S
O371 C359 1.232 . S
H372 C391 0.929 . S
H373 C392 0.929 . S
H374 C404 0.931 . S
H375 C396 0.929 . S
H376 C405 0.930 . S
H377 C397 0.931 . S
O378 Co354 2.097 . S
O378 C406 1.214 . S
H379 C407 0.929 . S
H380 C408 0.929 . S
H381 C409 0.930 . S
H382 C410 0.929 . S
H383 C412 0.930 . S
H384 C389 0.930 . S
H385 C393 0.930 . S
O386 Co355 2.037 . S
O386 C406 1.234 . S
C387 O361 1.269 . S
C387 O362 1.257 . S
C388 H363 0.930 . S
C388 C391 1.388 . S
C388 C393 1.418 . S
C389 H384 0.930 . S
C389 C392 1.404 . S
C389 C393 1.353 . S
N390 Co355 2.145 . S
N390 C391 1.397 . S
N390 C392 1.334 . S
C391 H372 0.929 . S
C391 C388 1.388 . S
C391 N390 1.397 . S
C392 H373 0.929 . S
C392 C389 1.404 . S
C392 N390 1.334 . S
C393 H385 0.930 . S
C393 C388 1.418 . S
C393 C389 1.353 . S
C394 H364 0.930 . S
C394 N395 1.330 1_565 S
C394 C396 1.446 . S
N395 Co354 2.151 . S
N395 C394 1.330 1_545 S
N395 C399 1.418 . S
C396 H375 0.929 . S
C396 C394 1.446 . S
C396 C397 1.332 . S
C397 H377 0.931 . S
C397 C396 1.332 . S
C397 C398 1.267 . S
C398 H366 0.929 . S
C398 C397 1.267 . S
C398 C399 1.251 1_565 S
C399 H369 0.929 . S
C399 N395 1.418 . S
C399 C398 1.251 1_545 S
C400 H367 0.930 . S
C400 C402 1.406 . S
C400 C405 1.261 . S
C401 H368 0.930 . S
C401 N403 1.325 . S
C401 C404 1.357 . S
C402 H370 0.928 . S
C402 C400 1.406 . S
C402 N403 1.261 . S
N403 Co354 2.214 . S
N403 C401 1.325 . S
N403 C402 1.261 . S
C404 H374 0.931 . S
C404 C401 1.357 . S
C404 C405 1.312 . S
C405 H376 0.930 . S
C405 C400 1.261 . S
C405 C404 1.312 . S
C406 O378 1.214 . S
C406 O386 1.234 . S
C407 H379 0.929 . S
C407 C410 1.391 . S
C407 C412 1.391 . S
C408 H380 0.929 . S
C408 C409 1.390 . S
C408 N411 1.391 . S
C409 H381 0.930 . S
C409 C408 1.390 . S
C409 C410 1.392 . S
C410 H382 0.929 . S
C410 C407 1.391 . S
C410 C409 1.392 . S
N411 Co355 2.257 . S
N411 C408 1.391 . S
N411 C412 1.388 . S
C412 H383 0.930 . S
C412 C407 1.391 . S
C412 N411 1.388 . S
Co413 O415 2.143 . S
Co413 O421 2.074 . S
Co413 O424 2.093 . S
Co413 O437 2.097 . S
Co413 N454 2.151 . S
Co413 N462 2.214 . S
Co414 O415 2.160 . S
Co414 O420 2.058 . S
Co414 O430 2.057 . S
Co414 O445 2.037 . S
Co414 N449 2.145 . S
Co414 N470 2.257 . S
O415 Co413 2.143 . S
O415 Co414 2.160 . S
C416 O417 1.278 . S
C416 O424 1.224 . S
O417 C416 1.278 . S
C418 O419 1.245 . S
C418 O430 1.232 . S
O419 C418 1.245 . S
O420 Co414 2.058 . S
O420 C446 1.269 . S
O421 Co413 2.074 . S
O421 C446 1.257 . S
H422 C447 0.930 . S
H423 C453 0.930 . S
O424 Co413 2.093 . S
O424 C416 1.224 . S
H425 C457 0.929 . S
H426 C459 0.930 . S
H427 C460 0.930 . S
H428 C458 0.929 . S
H429 C461 0.928 . S
O430 Co414 2.057 . S
O430 C418 1.232 . S
H431 C450 0.929 . S
H432 C451 0.929 . S
H433 C463 0.931 . S
H434 C455 0.929 . S
H435 C464 0.930 . S
H436 C456 0.931 . S
O437 Co413 2.097 . S
O437 C465 1.214 . S
H438 C466 0.929 . S
H439 C467 0.929 . S
H440 C468 0.930 . S
H441 C469 0.929 . S
H442 C471 0.930 . S
H443 C448 0.930 . S
H444 C452 0.930 . S
O445 Co414 2.037 . S
O445 C465 1.234 . S
C446 O420 1.269 . S
C446 O421 1.257 . S
C447 H422 0.930 . S
C447 C450 1.388 . S
C447 C452 1.418 . S
C448 H443 0.930 . S
C448 C451 1.404 . S
C448 C452 1.353 . S
N449 Co414 2.145 . S
N449 C450 1.397 . S
N449 C451 1.334 . S
C450 H431 0.929 . S
C450 C447 1.388 . S
C450 N449 1.397 . S
C451 H432 0.929 . S
C451 C448 1.404 . S
C451 N449 1.334 . S
C452 H444 0.930 . S
C452 C447 1.418 . S
C452 C448 1.353 . S
C453 H423 0.930 . S
C453 N454 1.330 . S
C453 C455 1.446 . S
N454 Co413 2.151 . S
N454 C453 1.330 . S
N454 C458 1.418 . S
C455 H434 0.929 . S
C455 C453 1.446 . S
C455 C456 1.332 . S
C456 H436 0.931 . S
C456 C455 1.332 . S
C456 C457 1.267 . S
C457 H425 0.929 . S
C457 C456 1.267 . S
C457 C458 1.251 . S
C458 H428 0.929 . S
C458 N454 1.418 . S
C458 C457 1.251 . S
C459 H426 0.930 . S
C459 C461 1.406 . S
C459 C464 1.261 . S
C460 H427 0.930 . S
C460 N462 1.325 . S
C460 C463 1.357 . S
C461 H429 0.928 . S
C461 C459 1.406 . S
C461 N462 1.261 . S
N462 Co413 2.214 . S
N462 C460 1.325 . S
N462 C461 1.261 . S
C463 H433 0.931 . S
C463 C460 1.357 . S
C463 C464 1.312 . S
C464 H435 0.930 . S
C464 C459 1.261 . S
C464 C463 1.312 . S
C465 O437 1.214 . S
C465 O445 1.234 . S
C466 H438 0.929 . S
C466 C469 1.391 . S
C466 C471 1.391 . S
C467 H439 0.929 . S
C467 C468 1.390 . S
C467 N470 1.391 . S
C468 H440 0.930 . S
C468 C467 1.390 . S
C468 C469 1.392 . S
C469 H441 0.929 . S
C469 C466 1.391 . S
C469 C468 1.392 . S
N470 Co414 2.257 . S
N470 C467 1.391 . S
N470 C471 1.388 . S
C471 H442 0.930 . S
C471 C466 1.391 . S
C471 N470 1.388 . S
Co472 O474 2.143 . S
Co472 O480 2.074 . S
Co472 O483 2.093 . S
Co472 O496 2.097 . S
Co472 N513 2.151 . S
Co472 N521 2.214 . S
Co473 O474 2.160 . S
Co473 O479 2.058 . S
Co473 O489 2.057 . S
Co473 O504 2.037 . S
Co473 N508 2.145 . S
Co473 N529 2.257 . S
O474 Co472 2.143 . S
O474 Co473 2.160 . S
C475 O476 1.278 . S
C475 O483 1.224 . S
O476 C475 1.278 . S
C477 O478 1.245 . S
C477 O489 1.232 . S
O478 C477 1.245 . S
O479 Co473 2.058 . S
O479 C505 1.269 . S
O480 Co472 2.074 . S
O480 C505 1.257 . S
H481 C506 0.930 . S
H482 C512 0.930 . S
O483 Co472 2.093 . S
O483 C475 1.224 . S
H484 C516 0.929 . S
H485 C518 0.930 . S
H486 C519 0.930 . S
H487 C517 0.929 . S
H488 C520 0.928 . S
O489 Co473 2.057 . S
O489 C477 1.232 . S
H490 C509 0.929 . S
H491 C510 0.929 . S
H492 C522 0.931 . S
H493 C514 0.929 . S
H494 C523 0.930 . S
H495 C515 0.931 . S
O496 Co472 2.097 . S
O496 C524 1.214 . S
H497 C525 0.929 . S
H498 C526 0.929 . S
H499 C527 0.930 . S
H500 C528 0.929 . S
H501 C530 0.930 . S
H502 C507 0.930 . S
H503 C511 0.930 . S
O504 Co473 2.037 . S
O504 C524 1.234 . S
C505 O479 1.269 . S
C505 O480 1.257 . S
C506 H481 0.930 . S
C506 C509 1.388 . S
C506 C511 1.418 . S
C507 H502 0.930 . S
C507 C510 1.404 . S
C507 C511 1.353 . S
N508 Co473 2.145 . S
N508 C509 1.397 . S
N508 C510 1.334 . S
C509 H490 0.929 . S
C509 C506 1.388 . S
C509 N508 1.397 . S
C510 H491 0.929 . S
C510 C507 1.404 . S
C510 N508 1.334 . S
C511 H503 0.930 . S
C511 C506 1.418 . S
C511 C507 1.353 . S
C512 H482 0.930 . S
C512 N513 1.330 1_545 S
C512 C514 1.446 . S
N513 Co472 2.151 . S
N513 C512 1.330 1_565 S
N513 C517 1.418 . S
C514 H493 0.929 . S
C514 C512 1.446 . S
C514 C515 1.332 . S
C515 H495 0.931 . S
C515 C514 1.332 . S
C515 C516 1.267 . S
C516 H484 0.929 . S
C516 C515 1.267 . S
C516 C517 1.251 1_545 S
C517 H487 0.929 . S
C517 N513 1.418 . S
C517 C516 1.251 1_565 S
C518 H485 0.930 . S
C518 C520 1.406 . S
C518 C523 1.261 . S
C519 H486 0.930 . S
C519 N521 1.325 . S
C519 C522 1.357 . S
C520 H488 0.928 . S
C520 C518 1.406 . S
C520 N521 1.261 . S
N521 Co472 2.214 . S
N521 C519 1.325 . S
N521 C520 1.261 . S
C522 H492 0.931 . S
C522 C519 1.357 . S
C522 C523 1.312 . S
C523 H494 0.930 . S
C523 C518 1.261 . S
C523 C522 1.312 . S
C524 O496 1.214 . S
C524 O504 1.234 . S
C525 H497 0.929 . S
C525 C528 1.391 . S
C525 C530 1.391 . S
C526 H498 0.929 . S
C526 C527 1.390 . S
C526 N529 1.391 . S
C527 H499 0.930 . S
C527 C526 1.390 . S
C527 C528 1.392 . S
C528 H500 0.929 . S
C528 C525 1.391 . S
C528 C527 1.392 . S
N529 Co473 2.257 . S
N529 C526 1.391 . S
N529 C530 1.388 . S
C530 H501 0.930 . S
C530 C525 1.391 . S
C530 N529 1.388 . S
Co531 O533 2.143 . S
Co531 O539 2.074 . S
Co531 O542 2.093 . S
Co531 O555 2.097 . S
Co531 N572 2.151 . S
Co531 N580 2.214 . S
Co532 O533 2.160 . S
Co532 O538 2.058 . S
Co532 O548 2.057 . S
Co532 O563 2.037 . S
Co532 N567 2.145 . S
Co532 N588 2.257 . S
O533 Co531 2.143 . S
O533 Co532 2.160 . S
C534 O535 1.278 . S
C534 O542 1.224 . S
O535 C534 1.278 . S
C536 O537 1.245 . S
C536 O548 1.232 . S
O537 C536 1.245 . S
O538 Co532 2.058 . S
O538 C564 1.269 . S
O539 Co531 2.074 . S
O539 C564 1.257 . S
H540 C565 0.930 . S
H541 C571 0.930 . S
O542 Co531 2.093 . S
O542 C534 1.224 . S
H543 C575 0.929 . S
H544 C577 0.930 . S
H545 C578 0.930 . S
H546 C576 0.929 . S
H547 C579 0.928 . S
O548 Co532 2.057 . S
O548 C536 1.232 . S
H549 C568 0.929 . S
H550 C569 0.929 . S
H551 C581 0.931 . S
H552 C573 0.929 . S
H553 C582 0.930 . S
H554 C574 0.931 . S
O555 Co531 2.097 . S
O555 C583 1.214 . S
H556 C584 0.929 . S
H557 C585 0.929 . S
H558 C586 0.930 . S
H559 C587 0.929 . S
H560 C589 0.930 . S
H561 C566 0.930 . S
H562 C570 0.930 . S
O563 Co532 2.037 . S
O563 C583 1.234 . S
C564 O538 1.269 . S
C564 O539 1.257 . S
C565 H540 0.930 . S
C565 C568 1.388 . S
C565 C570 1.418 . S
C566 H561 0.930 . S
C566 C569 1.404 . S
C566 C570 1.353 . S
N567 Co532 2.145 . S
N567 C568 1.397 . S
N567 C569 1.334 . S
C568 H549 0.929 . S
C568 C565 1.388 . S
C568 N567 1.397 . S
C569 H550 0.929 . S
C569 C566 1.404 . S
C569 N567 1.334 . S
C570 H562 0.930 . S
C570 C565 1.418 . S
C570 C566 1.353 . S
C571 H541 0.930 . S
C571 N572 1.330 . S
C571 C573 1.446 . S
N572 Co531 2.151 . S
N572 C571 1.330 . S
N572 C576 1.418 . S
C573 H552 0.929 . S
C573 C571 1.446 . S
C573 C574 1.332 . S
C574 H554 0.931 . S
C574 C573 1.332 . S
C574 C575 1.267 . S
C575 H543 0.929 . S
C575 C574 1.267 . S
C575 C576 1.251 . S
C576 H546 0.929 . S
C576 N572 1.418 . S
C576 C575 1.251 . S
C577 H544 0.930 . S
C577 C579 1.406 . S
C577 C582 1.261 . S
C578 H545 0.930 . S
C578 N580 1.325 . S
C578 C581 1.357 . S
C579 H547 0.928 . S
C579 C577 1.406 . S
C579 N580 1.261 . S
N580 Co531 2.214 . S
N580 C578 1.325 . S
N580 C579 1.261 . S
C581 H551 0.931 . S
C581 C578 1.357 . S
C581 C582 1.312 . S
C582 H553 0.930 . S
C582 C577 1.261 . S
C582 C581 1.312 . S
C583 O555 1.214 . S
C583 O563 1.234 . S
C584 H556 0.929 . S
C584 C587 1.391 . S
C584 C589 1.391 . S
C585 H557 0.929 . S
C585 C586 1.390 . S
C585 N588 1.391 . S
C586 H558 0.930 . S
C586 C585 1.390 . S
C586 C587 1.392 . S
C587 H559 0.929 . S
C587 C584 1.391 . S
C587 C586 1.392 . S
N588 Co532 2.257 . S
N588 C585 1.391 . S
N588 C589 1.388 . S
C589 H560 0.930 . S
C589 C584 1.391 . S
C589 N588 1.388 . S
Co590 O592 2.143 . S
Co590 O598 2.074 . S
Co590 O601 2.093 . S
Co590 O614 2.097 . S
Co590 N631 2.151 . S
Co590 N639 2.214 . S
Co591 O592 2.160 . S
Co591 O597 2.058 . S
Co591 O607 2.057 . S
Co591 O622 2.037 . S
Co591 N626 2.145 . S
Co591 N647 2.257 . S
O592 Co590 2.143 . S
O592 Co591 2.160 . S
C593 O594 1.278 . S
C593 O601 1.224 . S
O594 C593 1.278 . S
C595 O596 1.245 . S
C595 O607 1.232 . S
O596 C595 1.245 . S
O597 Co591 2.058 . S
O597 C623 1.269 . S
O598 Co590 2.074 . S
O598 C623 1.257 . S
H599 C624 0.930 . S
H600 C630 0.930 . S
O601 Co590 2.093 . S
O601 C593 1.224 . S
H602 C634 0.929 . S
H603 C636 0.930 . S
H604 C637 0.930 . S
H605 C635 0.929 . S
H606 C638 0.928 . S
O607 Co591 2.057 . S
O607 C595 1.232 . S
H608 C627 0.929 . S
H609 C628 0.929 . S
H610 C640 0.931 . S
H611 C632 0.929 . S
H612 C641 0.930 . S
H613 C633 0.931 . S
O614 Co590 2.097 . S
O614 C642 1.214 . S
H615 C643 0.929 . S
H616 C644 0.929 . S
H617 C645 0.930 . S
H618 C646 0.929 . S
H619 C648 0.930 . S
H620 C625 0.930 . S
H621 C629 0.930 . S
O622 Co591 2.037 . S
O622 C642 1.234 . S
C623 O597 1.269 . S
C623 O598 1.257 . S
C624 H599 0.930 . S
C624 C627 1.388 . S
C624 C629 1.418 . S
C625 H620 0.930 . S
C625 C628 1.404 . S
C625 C629 1.353 . S
N626 Co591 2.145 . S
N626 C627 1.397 . S
N626 C628 1.334 . S
C627 H608 0.929 . S
C627 C624 1.388 . S
C627 N626 1.397 . S
C628 H609 0.929 . S
C628 C625 1.404 . S
C628 N626 1.334 . S
C629 H621 0.930 . S
C629 C624 1.418 . S
C629 C625 1.353 . S
C630 H600 0.930 . S
C630 N631 1.330 1_565 S
C630 C632 1.446 . S
N631 Co590 2.151 . S
N631 C630 1.330 1_545 S
N631 C635 1.418 . S
C632 H611 0.929 . S
C632 C630 1.446 . S
C632 C633 1.332 . S
C633 H613 0.931 . S
C633 C632 1.332 . S
C633 C634 1.267 . S
C634 H602 0.929 . S
C634 C633 1.267 . S
C634 C635 1.251 1_565 S
C635 H605 0.929 . S
C635 N631 1.418 . S
C635 C634 1.251 1_545 S
C636 H603 0.930 . S
C636 C638 1.406 . S
C636 C641 1.261 . S
C637 H604 0.930 . S
C637 N639 1.325 . S
C637 C640 1.357 . S
C638 H606 0.928 . S
C638 C636 1.406 . S
C638 N639 1.261 . S
N639 Co590 2.214 . S
N639 C637 1.325 . S
N639 C638 1.261 . S
C640 H610 0.931 . S
C640 C637 1.357 . S
C640 C641 1.312 . S
C641 H612 0.930 . S
C641 C636 1.261 . S
C641 C640 1.312 . S
C642 O614 1.214 . S
C642 O622 1.234 . S
C643 H615 0.929 . S
C643 C646 1.391 . S
C643 C648 1.391 . S
C644 H616 0.929 . S
C644 C645 1.390 . S
C644 N647 1.391 . S
C645 H617 0.930 . S
C645 C644 1.390 . S
C645 C646 1.392 . S
C646 H618 0.929 . S
C646 C643 1.391 . S
C646 C645 1.392 . S
N647 Co591 2.257 . S
N647 C644 1.391 . S
N647 C648 1.388 . S
C648 H619 0.930 . S
C648 C643 1.391 . S
C648 N647 1.388 . S
Co649 O651 2.143 . S
Co649 O657 2.074 . S
Co649 O660 2.093 . S
Co649 O673 2.097 . S
Co649 N690 2.151 . S
Co649 N698 2.214 . S
Co650 O651 2.160 . S
Co650 O656 2.058 . S
Co650 O666 2.057 . S
Co650 O681 2.037 . S
Co650 N685 2.145 . S
Co650 N706 2.257 . S
O651 Co649 2.143 . S
O651 Co650 2.160 . S
C652 O653 1.278 . S
C652 O660 1.224 . S
O653 C652 1.278 . S
C654 O655 1.245 . S
C654 O666 1.232 . S
O655 C654 1.245 . S
O656 Co650 2.058 . S
O656 C682 1.269 . S
O657 Co649 2.074 . S
O657 C682 1.257 . S
H658 C683 0.930 . S
H659 C689 0.930 . S
O660 Co649 2.093 . S
O660 C652 1.224 . S
H661 C693 0.929 . S
H662 C695 0.930 . S
H663 C696 0.930 . S
H664 C694 0.929 . S
H665 C697 0.928 . S
O666 Co650 2.057 . S
O666 C654 1.232 . S
H667 C686 0.929 . S
H668 C687 0.929 . S
H669 C699 0.931 . S
H670 C691 0.929 . S
H671 C700 0.930 . S
H672 C692 0.931 . S
O673 Co649 2.097 . S
O673 C701 1.214 . S
H674 C702 0.929 . S
H675 C703 0.929 . S
H676 C704 0.930 . S
H677 C705 0.929 . S
H678 C707 0.930 . S
H679 C684 0.930 . S
H680 C688 0.930 . S
O681 Co650 2.037 . S
O681 C701 1.234 . S
C682 O656 1.269 . S
C682 O657 1.257 . S
C683 H658 0.930 . S
C683 C686 1.388 . S
C683 C688 1.418 . S
C684 H679 0.930 . S
C684 C687 1.404 . S
C684 C688 1.353 . S
N685 Co650 2.145 . S
N685 C686 1.397 . S
N685 C687 1.334 . S
C686 H667 0.929 . S
C686 C683 1.388 . S
C686 N685 1.397 . S
C687 H668 0.929 . S
C687 C684 1.404 . S
C687 N685 1.334 . S
C688 H680 0.930 . S
C688 C683 1.418 . S
C688 C684 1.353 . S
C689 H659 0.930 . S
C689 N690 1.330 . S
C689 C691 1.446 . S
N690 Co649 2.151 . S
N690 C689 1.330 . S
N690 C694 1.418 . S
C691 H670 0.929 . S
C691 C689 1.446 . S
C691 C692 1.332 . S
C692 H672 0.931 . S
C692 C691 1.332 . S
C692 C693 1.267 . S
C693 H661 0.929 . S
C693 C692 1.267 . S
C693 C694 1.251 . S
C694 H664 0.929 . S
C694 N690 1.418 . S
C694 C693 1.251 . S
C695 H662 0.930 . S
C695 C697 1.406 . S
C695 C700 1.261 . S
C696 H663 0.930 . S
C696 N698 1.325 . S
C696 C699 1.357 . S
C697 H665 0.928 . S
C697 C695 1.406 . S
C697 N698 1.261 . S
N698 Co649 2.214 . S
N698 C696 1.325 . S
N698 C697 1.261 . S
C699 H669 0.931 . S
C699 C696 1.357 . S
C699 C700 1.312 . S
C700 H671 0.930 . S
C700 C695 1.261 . S
C700 C699 1.312 . S
C701 O673 1.214 . S
C701 O681 1.234 . S
C702 H674 0.929 . S
C702 C705 1.391 . S
C702 C707 1.391 . S
C703 H675 0.929 . S
C703 C704 1.390 . S
C703 N706 1.391 . S
C704 H676 0.930 . S
C704 C703 1.390 . S
C704 C705 1.392 . S
C705 H677 0.929 . S
C705 C702 1.391 . S
C705 C704 1.392 . S
N706 Co650 2.257 . S
N706 C703 1.391 . S
N706 C707 1.388 . S
C707 H678 0.930 . S
C707 C702 1.391 . S
C707 N706 1.388 . S
Co708 O710 2.143 . S
Co708 O716 2.074 . S
Co708 O719 2.093 . S
Co708 O732 2.097 . S
Co708 N749 2.151 . S
Co708 N757 2.214 . S
Co709 O710 2.160 . S
Co709 O715 2.058 . S
Co709 O725 2.057 . S
Co709 O740 2.037 . S
Co709 N744 2.145 . S
Co709 N765 2.257 . S
O710 Co708 2.143 . S
O710 Co709 2.160 . S
C711 O712 1.278 . S
C711 O719 1.224 . S
O712 C711 1.278 . S
C713 O714 1.245 . S
C713 O725 1.232 . S
O714 C713 1.245 . S
O715 Co709 2.058 . S
O715 C741 1.269 . S
O716 Co708 2.074 . S
O716 C741 1.257 . S
H717 C742 0.930 . S
H718 C748 0.930 . S
O719 Co708 2.093 . S
O719 C711 1.224 . S
H720 C752 0.929 . S
H721 C754 0.930 . S
H722 C755 0.930 . S
H723 C753 0.929 . S
H724 C756 0.928 . S
O725 Co709 2.057 . S
O725 C713 1.232 . S
H726 C745 0.929 . S
H727 C746 0.929 . S
H728 C758 0.931 . S
H729 C750 0.929 . S
H730 C759 0.930 . S
H731 C751 0.931 . S
O732 Co708 2.097 . S
O732 C760 1.214 . S
H733 C761 0.929 . S
H734 C762 0.929 . S
H735 C763 0.930 . S
H736 C764 0.929 . S
H737 C766 0.930 . S
H738 C743 0.930 . S
H739 C747 0.930 . S
O740 Co709 2.037 . S
O740 C760 1.234 . S
C741 O715 1.269 . S
C741 O716 1.257 . S
C742 H717 0.930 . S
C742 C745 1.388 . S
C742 C747 1.418 . S
C743 H738 0.930 . S
C743 C746 1.404 . S
C743 C747 1.353 . S
N744 Co709 2.145 . S
N744 C745 1.397 . S
N744 C746 1.334 . S
C745 H726 0.929 . S
C745 C742 1.388 . S
C745 N744 1.397 . S
C746 H727 0.929 . S
C746 C743 1.404 . S
C746 N744 1.334 . S
C747 H739 0.930 . S
C747 C742 1.418 . S
C747 C743 1.353 . S
C748 H718 0.930 . S
C748 N749 1.330 1_565 S
C748 C750 1.446 . S
N749 Co708 2.151 . S
N749 C748 1.330 1_545 S
N749 C753 1.418 . S
C750 H729 0.929 . S
C750 C748 1.446 . S
C750 C751 1.332 . S
C751 H731 0.931 . S
C751 C750 1.332 . S
C751 C752 1.267 . S
C752 H720 0.929 . S
C752 C751 1.267 . S
C752 C753 1.251 1_565 S
C753 H723 0.929 . S
C753 N749 1.418 . S
C753 C752 1.251 1_545 S
C754 H721 0.930 . S
C754 C756 1.406 . S
C754 C759 1.261 . S
C755 H722 0.930 . S
C755 N757 1.325 . S
C755 C758 1.357 . S
C756 H724 0.928 . S
C756 C754 1.406 . S
C756 N757 1.261 . S
N757 Co708 2.214 . S
N757 C755 1.325 . S
N757 C756 1.261 . S
C758 H728 0.931 . S
C758 C755 1.357 . S
C758 C759 1.312 . S
C759 H730 0.930 . S
C759 C754 1.261 . S
C759 C758 1.312 . S
C760 O732 1.214 . S
C760 O740 1.234 . S
C761 H733 0.929 . S
C761 C764 1.391 . S
C761 C766 1.391 . S
C762 H734 0.929 . S
C762 C763 1.390 . S
C762 N765 1.391 . S
C763 H735 0.930 . S
C763 C762 1.390 . S
C763 C764 1.392 . S
C764 H736 0.929 . S
C764 C761 1.391 . S
C764 C763 1.392 . S
N765 Co709 2.257 . S
N765 C762 1.391 . S
N765 C766 1.388 . S
C766 H737 0.930 . S
C766 C761 1.391 . S
C766 N765 1.388 . S
Co767 O769 2.143 . S
Co767 O775 2.074 . S
Co767 O778 2.093 . S
Co767 O791 2.097 . S
Co767 N808 2.151 . S
Co767 N816 2.214 . S
Co768 O769 2.160 . S
Co768 O774 2.058 . S
Co768 O784 2.057 . S
Co768 O799 2.037 . S
Co768 N803 2.145 . S
Co768 N824 2.257 . S
O769 Co767 2.143 . S
O769 Co768 2.160 . S
C770 O771 1.278 . S
C770 O778 1.224 . S
O771 C770 1.278 . S
C772 O773 1.245 . S
C772 O784 1.232 . S
O773 C772 1.245 . S
O774 Co768 2.058 . S
O774 C800 1.269 . S
O775 Co767 2.074 . S
O775 C800 1.257 . S
H776 C801 0.930 . S
H777 C807 0.930 . S
O778 Co767 2.093 . S
O778 C770 1.224 . S
H779 C811 0.929 . S
H780 C813 0.930 . S
H781 C814 0.930 . S
H782 C812 0.929 . S
H783 C815 0.928 . S
O784 Co768 2.057 . S
O784 C772 1.232 . S
H785 C804 0.929 . S
H786 C805 0.929 . S
H787 C817 0.931 . S
H788 C809 0.929 . S
H789 C818 0.930 . S
H790 C810 0.931 . S
O791 Co767 2.097 . S
O791 C819 1.214 . S
H792 C820 0.929 . S
H793 C821 0.929 . S
H794 C822 0.930 . S
H795 C823 0.929 . S
H796 C825 0.930 . S
H797 C802 0.930 . S
H798 C806 0.930 . S
O799 Co768 2.037 . S
O799 C819 1.234 . S
C800 O774 1.269 . S
C800 O775 1.257 . S
C801 H776 0.930 . S
C801 C804 1.388 . S
C801 C806 1.418 . S
C802 H797 0.930 . S
C802 C805 1.404 . S
C802 C806 1.353 . S
N803 Co768 2.145 . S
N803 C804 1.397 . S
N803 C805 1.334 . S
C804 H785 0.929 . S
C804 C801 1.388 . S
C804 N803 1.397 . S
C805 H786 0.929 . S
C805 C802 1.404 . S
C805 N803 1.334 . S
C806 H798 0.930 . S
C806 C801 1.418 . S
C806 C802 1.353 . S
C807 H777 0.930 . S
C807 N808 1.330 . S
C807 C809 1.446 . S
N808 Co767 2.151 . S
N808 C807 1.330 . S
N808 C812 1.418 . S
C809 H788 0.929 . S
C809 C807 1.446 . S
C809 C810 1.332 . S
C810 H790 0.931 . S
C810 C809 1.332 . S
C810 C811 1.267 . S
C811 H779 0.929 . S
C811 C810 1.267 . S
C811 C812 1.251 . S
C812 H782 0.929 . S
C812 N808 1.418 . S
C812 C811 1.251 . S
C813 H780 0.930 . S
C813 C815 1.406 . S
C813 C818 1.261 . S
C814 H781 0.930 . S
C814 N816 1.325 . S
C814 C817 1.357 . S
C815 H783 0.928 . S
C815 C813 1.406 . S
C815 N816 1.261 . S
N816 Co767 2.214 . S
N816 C814 1.325 . S
N816 C815 1.261 . S
C817 H787 0.931 . S
C817 C814 1.357 . S
C817 C818 1.312 . S
C818 H789 0.930 . S
C818 C813 1.261 . S
C818 C817 1.312 . S
C819 O791 1.214 . S
C819 O799 1.234 . S
C820 H792 0.929 . S
C820 C823 1.391 . S
C820 C825 1.391 . S
C821 H793 0.929 . S
C821 C822 1.390 . S
C821 N824 1.391 . S
C822 H794 0.930 . S
C822 C821 1.390 . S
C822 C823 1.392 . S
C823 H795 0.929 . S
C823 C820 1.391 . S
C823 C822 1.392 . S
N824 Co768 2.257 . S
N824 C821 1.391 . S
N824 C825 1.388 . S
C825 H796 0.930 . S
C825 C820 1.391 . S
C825 N824 1.388 . S
Co826 O828 2.143 . S
Co826 O834 2.074 . S
Co826 O837 2.093 . S
Co826 O850 2.097 . S
Co826 N867 2.151 . S
Co826 N875 2.214 . S
Co827 O828 2.160 . S
Co827 O833 2.058 . S
Co827 O843 2.057 . S
Co827 O858 2.037 . S
Co827 N862 2.145 . S
Co827 N883 2.257 . S
O828 Co826 2.143 . S
O828 Co827 2.160 . S
C829 O830 1.278 . S
C829 O837 1.224 . S
O830 C829 1.278 . S
C831 O832 1.245 . S
C831 O843 1.232 . S
O832 C831 1.245 . S
O833 Co827 2.058 . S
O833 C859 1.269 . S
O834 Co826 2.074 . S
O834 C859 1.257 . S
H835 C860 0.930 . S
H836 C866 0.930 . S
O837 Co826 2.093 . S
O837 C829 1.224 . S
H838 C870 0.929 . S
H839 C872 0.930 . S
H840 C873 0.930 . S
H841 C871 0.929 . S
H842 C874 0.928 . S
O843 Co827 2.057 . S
O843 C831 1.232 . S
H844 C863 0.929 . S
H845 C864 0.929 . S
H846 C876 0.931 . S
H847 C868 0.929 . S
H848 C877 0.930 . S
H849 C869 0.931 . S
O850 Co826 2.097 . S
O850 C878 1.214 . S
H851 C879 0.929 . S
H852 C880 0.929 . S
H853 C881 0.930 . S
H854 C882 0.929 . S
H855 C884 0.930 . S
H856 C861 0.930 . S
H857 C865 0.930 . S
O858 Co827 2.037 . S
O858 C878 1.234 . S
C859 O833 1.269 . S
C859 O834 1.257 . S
C860 H835 0.930 . S
C860 C863 1.388 . S
C860 C865 1.418 . S
C861 H856 0.930 . S
C861 C864 1.404 . S
C861 C865 1.353 . S
N862 Co827 2.145 . S
N862 C863 1.397 . S
N862 C864 1.334 . S
C863 H844 0.929 . S
C863 C860 1.388 . S
C863 N862 1.397 . S
C864 H845 0.929 . S
C864 C861 1.404 . S
C864 N862 1.334 . S
C865 H857 0.930 . S
C865 C860 1.418 . S
C865 C861 1.353 . S
C866 H836 0.930 . S
C866 N867 1.330 1_545 S
C866 C868 1.446 . S
N867 Co826 2.151 . S
N867 C866 1.330 1_565 S
N867 C871 1.418 . S
C868 H847 0.929 . S
C868 C866 1.446 . S
C868 C869 1.332 . S
C869 H849 0.931 . S
C869 C868 1.332 . S
C869 C870 1.267 . S
C870 H838 0.929 . S
C870 C869 1.267 . S
C870 C871 1.251 1_545 S
C871 H841 0.929 . S
C871 N867 1.418 . S
C871 C870 1.251 1_565 S
C872 H839 0.930 . S
C872 C874 1.406 . S
C872 C877 1.261 . S
C873 H840 0.930 . S
C873 N875 1.325 . S
C873 C876 1.357 . S
C874 H842 0.928 . S
C874 C872 1.406 . S
C874 N875 1.261 . S
N875 Co826 2.214 . S
N875 C873 1.325 . S
N875 C874 1.261 . S
C876 H846 0.931 . S
C876 C873 1.357 . S
C876 C877 1.312 . S
C877 H848 0.930 . S
C877 C872 1.261 . S
C877 C876 1.312 . S
C878 O850 1.214 . S
C878 O858 1.234 . S
C879 H851 0.929 . S
C879 C882 1.391 . S
C879 C884 1.391 . S
C880 H852 0.929 . S
C880 C881 1.390 . S
C880 N883 1.391 . S
C881 H853 0.930 . S
C881 C880 1.390 . S
C881 C882 1.392 . S
C882 H854 0.929 . S
C882 C879 1.391 . S
C882 C881 1.392 . S
N883 Co827 2.257 . S
N883 C880 1.391 . S
N883 C884 1.388 . S
C884 H855 0.930 . S
C884 C879 1.391 . S
C884 N883 1.388 . S
Co885 O887 2.143 . S
Co885 O893 2.074 . S
Co885 O896 2.093 . S
Co885 O909 2.097 . S
Co885 N926 2.151 . S
Co885 N934 2.214 . S
Co886 O887 2.160 . S
Co886 O892 2.058 . S
Co886 O902 2.057 . S
Co886 O917 2.037 . S
Co886 N921 2.145 . S
Co886 N942 2.257 . S
O887 Co885 2.143 . S
O887 Co886 2.160 . S
C888 O889 1.278 . S
C888 O896 1.224 . S
O889 C888 1.278 . S
C890 O891 1.245 . S
C890 O902 1.232 . S
O891 C890 1.245 . S
O892 Co886 2.058 . S
O892 C918 1.269 . S
O893 Co885 2.074 . S
O893 C918 1.257 . S
H894 C919 0.930 . S
H895 C925 0.930 . S
O896 Co885 2.093 . S
O896 C888 1.224 . S
H897 C929 0.929 . S
H898 C931 0.930 . S
H899 C932 0.930 . S
H900 C930 0.929 . S
H901 C933 0.928 . S
O902 Co886 2.057 . S
O902 C890 1.232 . S
H903 C922 0.929 . S
H904 C923 0.929 . S
H905 C935 0.931 . S
H906 C927 0.929 . S
H907 C936 0.930 . S
H908 C928 0.931 . S
O909 Co885 2.097 . S
O909 C937 1.214 . S
H910 C938 0.929 . S
H911 C939 0.929 . S
H912 C940 0.930 . S
H913 C941 0.929 . S
H914 C943 0.930 . S
H915 C920 0.930 . S
H916 C924 0.930 . S
O917 Co886 2.037 . S
O917 C937 1.234 . S
C918 O892 1.269 . S
C918 O893 1.257 . S
C919 H894 0.930 . S
C919 C922 1.388 . S
C919 C924 1.418 . S
C920 H915 0.930 . S
C920 C923 1.404 . S
C920 C924 1.353 . S
N921 Co886 2.145 . S
N921 C922 1.397 . S
N921 C923 1.334 . S
C922 H903 0.929 . S
C922 C919 1.388 . S
C922 N921 1.397 . S
C923 H904 0.929 . S
C923 C920 1.404 . S
C923 N921 1.334 . S
C924 H916 0.930 . S
C924 C919 1.418 . S
C924 C920 1.353 . S
C925 H895 0.930 . S
C925 N926 1.330 . S
C925 C927 1.446 . S
N926 Co885 2.151 . S
N926 C925 1.330 . S
N926 C930 1.418 . S
C927 H906 0.929 . S
C927 C925 1.446 . S
C927 C928 1.332 . S
C928 H908 0.931 . S
C928 C927 1.332 . S
C928 C929 1.267 . S
C929 H897 0.929 . S
C929 C928 1.267 . S
C929 C930 1.251 . S
C930 H900 0.929 . S
C930 N926 1.418 . S
C930 C929 1.251 . S
C931 H898 0.930 . S
C931 C933 1.406 . S
C931 C936 1.261 . S
C932 H899 0.930 . S
C932 N934 1.325 . S
C932 C935 1.357 . S
C933 H901 0.928 . S
C933 C931 1.406 . S
C933 N934 1.261 . S
N934 Co885 2.214 . S
N934 C932 1.325 . S
N934 C933 1.261 . S
C935 H905 0.931 . S
C935 C932 1.357 . S
C935 C936 1.312 . S
C936 H907 0.930 . S
C936 C931 1.261 . S
C936 C935 1.312 . S
C937 O909 1.214 . S
C937 O917 1.234 . S
C938 H910 0.929 . S
C938 C941 1.391 . S
C938 C943 1.391 . S
C939 H911 0.929 . S
C939 C940 1.390 . S
C939 N942 1.391 . S
C940 H912 0.930 . S
C940 C939 1.390 . S
C940 C941 1.392 . S
C941 H913 0.929 . S
C941 C938 1.391 . S
C941 C940 1.392 . S
N942 Co886 2.257 . S
N942 C939 1.391 . S
N942 C943 1.388 . S
C943 H914 0.930 . S
C943 C938 1.391 . S
C943 N942 1.388 . S
Co944 O946 2.143 . S
Co944 O952 2.074 . S
Co944 O955 2.093 . S
Co944 O968 2.097 . S
Co944 N985 2.151 . S
Co944 N993 2.214 . S
Co945 O946 2.160 . S
Co945 O951 2.058 . S
Co945 O961 2.057 . S
Co945 O976 2.037 . S
Co945 N980 2.145 . S
Co945 N1001 2.257 . S
O946 Co944 2.143 . S
O946 Co945 2.160 . S
C947 O948 1.278 . S
C947 O955 1.224 . S
O948 C947 1.278 . S
C949 O950 1.245 . S
C949 O961 1.232 . S
O950 C949 1.245 . S
O951 Co945 2.058 . S
O951 C977 1.269 . S
O952 Co944 2.074 . S
O952 C977 1.257 . S
H953 C978 0.930 . S
H954 C984 0.930 . S
O955 Co944 2.093 . S
O955 C947 1.224 . S
H956 C988 0.929 . S
H957 C990 0.930 . S
H958 C991 0.930 . S
H959 C989 0.929 . S
H960 C992 0.928 . S
O961 Co945 2.057 . S
O961 C949 1.232 . S
H962 C981 0.929 . S
H963 C982 0.929 . S
H964 C994 0.931 . S
H965 C986 0.929 . S
H966 C995 0.930 . S
H967 C987 0.931 . S
O968 Co944 2.097 . S
O968 C996 1.214 . S
H969 C997 0.929 . S
H970 C998 0.929 . S
H971 C999 0.930 . S
H972 C1000 0.929 . S
H973 C1002 0.930 . S
H974 C979 0.930 . S
H975 C983 0.930 . S
O976 Co945 2.037 . S
O976 C996 1.234 . S
C977 O951 1.269 . S
C977 O952 1.257 . S
C978 H953 0.930 . S
C978 C981 1.388 . S
C978 C983 1.418 . S
C979 H974 0.930 . S
C979 C982 1.404 . S
C979 C983 1.353 . S
N980 Co945 2.145 . S
N980 C981 1.397 . S
N980 C982 1.334 . S
C981 H962 0.929 . S
C981 C978 1.388 . S
C981 N980 1.397 . S
C982 H963 0.929 . S
C982 C979 1.404 . S
C982 N980 1.334 . S
C983 H975 0.930 . S
C983 C978 1.418 . S
C983 C979 1.353 . S
C984 H954 0.930 . S
C984 N985 1.330 . S
C984 C986 1.446 . S
N985 Co944 2.151 . S
N985 C984 1.330 . S
N985 C989 1.418 . S
C986 H965 0.929 . S
C986 C984 1.446 . S
C986 C987 1.332 . S
C987 H967 0.931 . S
C987 C986 1.332 . S
C987 C988 1.267 . S
C988 H956 0.929 . S
C988 C987 1.267 . S
C988 C989 1.251 . S
C989 H959 0.929 . S
C989 N985 1.418 . S
C989 C988 1.251 . S
C990 H957 0.930 . S
C990 C992 1.406 . S
C990 C995 1.261 . S
C991 H958 0.930 . S
C991 N993 1.325 . S
C991 C994 1.357 . S
C992 H960 0.928 . S
C992 C990 1.406 . S
C992 N993 1.261 . S
N993 Co944 2.214 . S
N993 C991 1.325 . S
N993 C992 1.261 . S
C994 H964 0.931 . S
C994 C991 1.357 . S
C994 C995 1.312 . S
C995 H966 0.930 . S
C995 C990 1.261 . S
C995 C994 1.312 . S
C996 O968 1.214 . S
C996 O976 1.234 . S
C997 H969 0.929 . S
C997 C1000 1.391 . S
C997 C1002 1.391 . S
C998 H970 0.929 . S
C998 C999 1.390 . S
C998 N1001 1.391 . S
C999 H971 0.930 . S
C999 C998 1.390 . S
C999 C1000 1.392 . S
C1000 H972 0.929 . S
C1000 C997 1.391 . S
C1000 C999 1.392 . S
N1001 Co945 2.257 . S
N1001 C998 1.391 . S
N1001 C1002 1.388 . S
C1002 H973 0.930 . S
C1002 C997 1.391 . S
C1002 N1001 1.388 . S
Co1003 O1005 2.143 . S
Co1003 O1011 2.074 . S
Co1003 O1014 2.093 . S
Co1003 O1027 2.097 . S
Co1003 N1044 2.151 . S
Co1003 N1052 2.214 . S
Co1004 O1005 2.160 . S
Co1004 O1010 2.058 . S
Co1004 O1020 2.057 . S
Co1004 O1035 2.037 . S
Co1004 N1039 2.145 . S
Co1004 N1060 2.257 . S
O1005 Co1003 2.143 . S
O1005 Co1004 2.160 . S
C1006 O1007 1.278 . S
C1006 O1014 1.224 . S
O1007 C1006 1.278 . S
C1008 O1009 1.245 . S
C1008 O1020 1.232 . S
O1009 C1008 1.245 . S
O1010 Co1004 2.058 . S
O1010 C1036 1.269 . S
O1011 Co1003 2.074 . S
O1011 C1036 1.257 . S
H1012 C1037 0.930 . S
H1013 C1043 0.930 . S
O1014 Co1003 2.093 . S
O1014 C1006 1.224 . S
H1015 C1047 0.929 . S
H1016 C1049 0.930 . S
H1017 C1050 0.930 . S
H1018 C1048 0.929 . S
H1019 C1051 0.928 . S
O1020 Co1004 2.057 . S
O1020 C1008 1.232 . S
H1021 C1040 0.929 . S
H1022 C1041 0.929 . S
H1023 C1053 0.931 . S
H1024 C1045 0.929 . S
H1025 C1054 0.930 . S
H1026 C1046 0.931 . S
O1027 Co1003 2.097 . S
O1027 C1055 1.214 . S
H1028 C1056 0.929 . S
H1029 C1057 0.929 . S
H1030 C1058 0.930 . S
H1031 C1059 0.929 . S
H1032 C1061 0.930 . S
H1033 C1038 0.930 . S
H1034 C1042 0.930 . S
O1035 Co1004 2.037 . S
O1035 C1055 1.234 . S
C1036 O1010 1.269 . S
C1036 O1011 1.257 . S
C1037 H1012 0.930 . S
C1037 C1040 1.388 . S
C1037 C1042 1.418 . S
C1038 H1033 0.930 . S
C1038 C1041 1.404 . S
C1038 C1042 1.353 . S
N1039 Co1004 2.145 . S
N1039 C1040 1.397 . S
N1039 C1041 1.334 . S
C1040 H1021 0.929 . S
C1040 C1037 1.388 . S
C1040 N1039 1.397 . S
C1041 H1022 0.929 . S
C1041 C1038 1.404 . S
C1041 N1039 1.334 . S
C1042 H1034 0.930 . S
C1042 C1037 1.418 . S
C1042 C1038 1.353 . S
C1043 H1013 0.930 . S
C1043 N1044 1.330 . S
C1043 C1045 1.446 . S
N1044 Co1003 2.151 . S
N1044 C1043 1.330 . S
N1044 C1048 1.418 . S
C1045 H1024 0.929 . S
C1045 C1043 1.446 . S
C1045 C1046 1.332 . S
C1046 H1026 0.931 . S
C1046 C1045 1.332 . S
C1046 C1047 1.267 . S
C1047 H1015 0.929 . S
C1047 C1046 1.267 . S
C1047 C1048 1.251 . S
C1048 H1018 0.929 . S
C1048 N1044 1.418 . S
C1048 C1047 1.251 . S
C1049 H1016 0.930 . S
C1049 C1051 1.406 . S
C1049 C1054 1.261 . S
C1050 H1017 0.930 . S
C1050 N1052 1.325 . S
C1050 C1053 1.357 . S
C1051 H1019 0.928 . S
C1051 C1049 1.406 . S
C1051 N1052 1.261 . S
N1052 Co1003 2.214 . S
N1052 C1050 1.325 . S
N1052 C1051 1.261 . S
C1053 H1023 0.931 . S
C1053 C1050 1.357 . S
C1053 C1054 1.312 . S
C1054 H1025 0.930 . S
C1054 C1049 1.261 . S
C1054 C1053 1.312 . S
C1055 O1027 1.214 . S
C1055 O1035 1.234 . S
C1056 H1028 0.929 . S
C1056 C1059 1.391 . S
C1056 C1061 1.391 . S
C1057 H1029 0.929 . S
C1057 C1058 1.390 . S
C1057 N1060 1.391 . S
C1058 H1030 0.930 . S
C1058 C1057 1.390 . S
C1058 C1059 1.392 . S
C1059 H1031 0.929 . S
C1059 C1056 1.391 . S
C1059 C1058 1.392 . S
N1060 Co1004 2.257 . S
N1060 C1057 1.391 . S
N1060 C1061 1.388 . S
C1061 H1032 0.930 . S
C1061 C1056 1.391 . S
C1061 N1060 1.388 . S
Co1062 O1064 2.143 . S
Co1062 O1070 2.074 . S
Co1062 O1073 2.093 . S
Co1062 O1086 2.097 . S
Co1062 N1103 2.151 . S
Co1062 N1111 2.214 . S
Co1063 O1064 2.160 . S
Co1063 O1069 2.058 . S
Co1063 O1079 2.057 . S
Co1063 O1094 2.037 . S
Co1063 N1098 2.145 . S
Co1063 N1119 2.257 . S
O1064 Co1062 2.143 . S
O1064 Co1063 2.160 . S
C1065 O1066 1.278 . S
C1065 O1073 1.224 . S
O1066 C1065 1.278 . S
C1067 O1068 1.245 . S
C1067 O1079 1.232 . S
O1068 C1067 1.245 . S
O1069 Co1063 2.058 . S
O1069 C1095 1.269 . S
O1070 Co1062 2.074 . S
O1070 C1095 1.257 . S
H1071 C1096 0.930 . S
H1072 C1102 0.930 . S
O1073 Co1062 2.093 . S
O1073 C1065 1.224 . S
H1074 C1106 0.929 . S
H1075 C1108 0.930 . S
H1076 C1109 0.930 . S
H1077 C1107 0.929 . S
H1078 C1110 0.928 . S
O1079 Co1063 2.057 . S
O1079 C1067 1.232 . S
H1080 C1099 0.929 . S
H1081 C1100 0.929 . S
H1082 C1112 0.931 . S
H1083 C1104 0.929 . S
H1084 C1113 0.930 . S
H1085 C1105 0.931 . S
O1086 Co1062 2.097 . S
O1086 C1114 1.214 . S
H1087 C1115 0.929 . S
H1088 C1116 0.929 . S
H1089 C1117 0.930 . S
H1090 C1118 0.929 . S
H1091 C1120 0.930 . S
H1092 C1097 0.930 . S
H1093 C1101 0.930 . S
O1094 Co1063 2.037 . S
O1094 C1114 1.234 . S
C1095 O1069 1.269 . S
C1095 O1070 1.257 . S
C1096 H1071 0.930 . S
C1096 C1099 1.388 . S
C1096 C1101 1.418 . S
C1097 H1092 0.930 . S
C1097 C1100 1.404 . S
C1097 C1101 1.353 . S
N1098 Co1063 2.145 . S
N1098 C1099 1.397 . S
N1098 C1100 1.334 . S
C1099 H1080 0.929 . S
C1099 C1096 1.388 . S
C1099 N1098 1.397 . S
C1100 H1081 0.929 . S
C1100 C1097 1.404 . S
C1100 N1098 1.334 . S
C1101 H1093 0.930 . S
C1101 C1096 1.418 . S
C1101 C1097 1.353 . S
C1102 H1072 0.930 . S
C1102 N1103 1.330 . S
C1102 C1104 1.446 . S
N1103 Co1062 2.151 . S
N1103 C1102 1.330 . S
N1103 C1107 1.418 . S
C1104 H1083 0.929 . S
C1104 C1102 1.446 . S
C1104 C1105 1.332 . S
C1105 H1085 0.931 . S
C1105 C1104 1.332 . S
C1105 C1106 1.267 . S
C1106 H1074 0.929 . S
C1106 C1105 1.267 . S
C1106 C1107 1.251 . S
C1107 H1077 0.929 . S
C1107 N1103 1.418 . S
C1107 C1106 1.251 . S
C1108 H1075 0.930 . S
C1108 C1110 1.406 . S
C1108 C1113 1.261 . S
C1109 H1076 0.930 . S
C1109 N1111 1.325 . S
C1109 C1112 1.357 . S
C1110 H1078 0.928 . S
C1110 C1108 1.406 . S
C1110 N1111 1.261 . S
N1111 Co1062 2.214 . S
N1111 C1109 1.325 . S
N1111 C1110 1.261 . S
C1112 H1082 0.931 . S
C1112 C1109 1.357 . S
C1112 C1113 1.312 . S
C1113 H1084 0.930 . S
C1113 C1108 1.261 . S
C1113 C1112 1.312 . S
C1114 O1086 1.214 . S
C1114 O1094 1.234 . S
C1115 H1087 0.929 . S
C1115 C1118 1.391 . S
C1115 C1120 1.391 . S
C1116 H1088 0.929 . S
C1116 C1117 1.390 . S
C1116 N1119 1.391 . S
C1117 H1089 0.930 . S
C1117 C1116 1.390 . S
C1117 C1118 1.392 . S
C1118 H1090 0.929 . S
C1118 C1115 1.391 . S
C1118 C1117 1.392 . S
N1119 Co1063 2.257 . S
N1119 C1116 1.391 . S
N1119 C1120 1.388 . S
C1120 H1091 0.930 . S
C1120 C1115 1.391 . S
C1120 N1119 1.388 . S
Co1121 O1123 2.143 . S
Co1121 O1129 2.074 . S
Co1121 O1132 2.093 . S
Co1121 O1145 2.097 . S
Co1121 N1162 2.151 . S
Co1121 N1170 2.214 . S
Co1122 O1123 2.160 . S
Co1122 O1128 2.058 . S
Co1122 O1138 2.057 . S
Co1122 O1153 2.037 . S
Co1122 N1157 2.145 . S
Co1122 N1178 2.257 . S
O1123 Co1121 2.143 . S
O1123 Co1122 2.160 . S
C1124 O1125 1.278 . S
C1124 O1132 1.224 . S
O1125 C1124 1.278 . S
C1126 O1127 1.245 . S
C1126 O1138 1.232 . S
O1127 C1126 1.245 . S
O1128 Co1122 2.058 . S
O1128 C1154 1.269 . S
O1129 Co1121 2.074 . S
O1129 C1154 1.257 . S
H1130 C1155 0.930 . S
H1131 C1161 0.930 . S
O1132 Co1121 2.093 . S
O1132 C1124 1.224 . S
H1133 C1165 0.929 . S
H1134 C1167 0.930 . S
H1135 C1168 0.930 . S
H1136 C1166 0.929 . S
H1137 C1169 0.928 . S
O1138 Co1122 2.057 . S
O1138 C1126 1.232 . S
H1139 C1158 0.929 . S
H1140 C1159 0.929 . S
H1141 C1171 0.931 . S
H1142 C1163 0.929 . S
H1143 C1172 0.930 . S
H1144 C1164 0.931 . S
O1145 Co1121 2.097 . S
O1145 C1173 1.214 . S
H1146 C1174 0.929 . S
H1147 C1175 0.929 . S
H1148 C1176 0.930 . S
H1149 C1177 0.929 . S
H1150 C1179 0.930 . S
H1151 C1156 0.930 . S
H1152 C1160 0.930 . S
O1153 Co1122 2.037 . S
O1153 C1173 1.234 . S
C1154 O1128 1.269 . S
C1154 O1129 1.257 . S
C1155 H1130 0.930 . S
C1155 C1158 1.388 . S
C1155 C1160 1.418 . S
C1156 H1151 0.930 . S
C1156 C1159 1.404 . S
C1156 C1160 1.353 . S
N1157 Co1122 2.145 . S
N1157 C1158 1.397 . S
N1157 C1159 1.334 . S
C1158 H1139 0.929 . S
C1158 C1155 1.388 . S
C1158 N1157 1.397 . S
C1159 H1140 0.929 . S
C1159 C1156 1.404 . S
C1159 N1157 1.334 . S
C1160 H1152 0.930 . S
C1160 C1155 1.418 . S
C1160 C1156 1.353 . S
C1161 H1131 0.930 . S
C1161 N1162 1.330 . S
C1161 C1163 1.446 . S
N1162 Co1121 2.151 . S
N1162 C1161 1.330 . S
N1162 C1166 1.418 . S
C1163 H1142 0.929 . S
C1163 C1161 1.446 . S
C1163 C1164 1.332 . S
C1164 H1144 0.931 . S
C1164 C1163 1.332 . S
C1164 C1165 1.267 . S
C1165 H1133 0.929 . S
C1165 C1164 1.267 . S
C1165 C1166 1.251 . S
C1166 H1136 0.929 . S
C1166 N1162 1.418 . S
C1166 C1165 1.251 . S
C1167 H1134 0.930 . S
C1167 C1169 1.406 . S
C1167 C1172 1.261 . S
C1168 H1135 0.930 . S
C1168 N1170 1.325 . S
C1168 C1171 1.357 . S
C1169 H1137 0.928 . S
C1169 C1167 1.406 . S
C1169 N1170 1.261 . S
N1170 Co1121 2.214 . S
N1170 C1168 1.325 . S
N1170 C1169 1.261 . S
C1171 H1141 0.931 . S
C1171 C1168 1.357 . S
C1171 C1172 1.312 . S
C1172 H1143 0.930 . S
C1172 C1167 1.261 . S
C1172 C1171 1.312 . S
C1173 O1145 1.214 . S
C1173 O1153 1.234 . S
C1174 H1146 0.929 . S
C1174 C1177 1.391 . S
C1174 C1179 1.391 . S
C1175 H1147 0.929 . S
C1175 C1176 1.390 . S
C1175 N1178 1.391 . S
C1176 H1148 0.930 . S
C1176 C1175 1.390 . S
C1176 C1177 1.392 . S
C1177 H1149 0.929 . S
C1177 C1174 1.391 . S
C1177 C1176 1.392 . S
N1178 Co1122 2.257 . S
N1178 C1175 1.391 . S
N1178 C1179 1.388 . S
C1179 H1150 0.930 . S
C1179 C1174 1.391 . S
C1179 N1178 1.388 . S
Co1180 O1182 2.143 . S
Co1180 O1188 2.074 . S
Co1180 O1191 2.093 . S
Co1180 O1204 2.097 . S
Co1180 N1221 2.151 . S
Co1180 N1229 2.214 . S
Co1181 O1182 2.160 . S
Co1181 O1187 2.058 . S
Co1181 O1197 2.057 . S
Co1181 O1212 2.037 . S
Co1181 N1216 2.145 . S
Co1181 N1237 2.257 . S
O1182 Co1180 2.143 . S
O1182 Co1181 2.160 . S
C1183 O1184 1.278 . S
C1183 O1191 1.224 . S
O1184 C1183 1.278 . S
C1185 O1186 1.245 . S
C1185 O1197 1.232 . S
O1186 C1185 1.245 . S
O1187 Co1181 2.058 . S
O1187 C1213 1.269 . S
O1188 Co1180 2.074 . S
O1188 C1213 1.257 . S
H1189 C1214 0.930 . S
H1190 C1220 0.930 . S
O1191 Co1180 2.093 . S
O1191 C1183 1.224 . S
H1192 C1224 0.929 . S
H1193 C1226 0.930 . S
H1194 C1227 0.930 . S
H1195 C1225 0.929 . S
H1196 C1228 0.928 . S
O1197 Co1181 2.057 . S
O1197 C1185 1.232 . S
H1198 C1217 0.929 . S
H1199 C1218 0.929 . S
H1200 C1230 0.931 . S
H1201 C1222 0.929 . S
H1202 C1231 0.930 . S
H1203 C1223 0.931 . S
O1204 Co1180 2.097 . S
O1204 C1232 1.214 . S
H1205 C1233 0.929 . S
H1206 C1234 0.929 . S
H1207 C1235 0.930 . S
H1208 C1236 0.929 . S
H1209 C1238 0.930 . S
H1210 C1215 0.930 . S
H1211 C1219 0.930 . S
O1212 Co1181 2.037 . S
O1212 C1232 1.234 . S
C1213 O1187 1.269 . S
C1213 O1188 1.257 . S
C1214 H1189 0.930 . S
C1214 C1217 1.388 . S
C1214 C1219 1.418 . S
C1215 H1210 0.930 . S
C1215 C1218 1.404 . S
C1215 C1219 1.353 . S
N1216 Co1181 2.145 . S
N1216 C1217 1.397 . S
N1216 C1218 1.334 . S
C1217 H1198 0.929 . S
C1217 C1214 1.388 . S
C1217 N1216 1.397 . S
C1218 H1199 0.929 . S
C1218 C1215 1.404 . S
C1218 N1216 1.334 . S
C1219 H1211 0.930 . S
C1219 C1214 1.418 . S
C1219 C1215 1.353 . S
C1220 H1190 0.930 . S
C1220 N1221 1.330 . S
C1220 C1222 1.446 . S
N1221 Co1180 2.151 . S
N1221 C1220 1.330 . S
N1221 C1225 1.418 . S
C1222 H1201 0.929 . S
C1222 C1220 1.446 . S
C1222 C1223 1.332 . S
C1223 H1203 0.931 . S
C1223 C1222 1.332 . S
C1223 C1224 1.267 . S
C1224 H1192 0.929 . S
C1224 C1223 1.267 . S
C1224 C1225 1.251 . S
C1225 H1195 0.929 . S
C1225 N1221 1.418 . S
C1225 C1224 1.251 . S
C1226 H1193 0.930 . S
C1226 C1228 1.406 . S
C1226 C1231 1.261 . S
C1227 H1194 0.930 . S
C1227 N1229 1.325 . S
C1227 C1230 1.357 . S
C1228 H1196 0.928 . S
C1228 C1226 1.406 . S
C1228 N1229 1.261 . S
N1229 Co1180 2.214 . S
N1229 C1227 1.325 . S
N1229 C1228 1.261 . S
C1230 H1200 0.931 . S
C1230 C1227 1.357 . S
C1230 C1231 1.312 . S
C1231 H1202 0.930 . S
C1231 C1226 1.261 . S
C1231 C1230 1.312 . S
C1232 O1204 1.214 . S
C1232 O1212 1.234 . S
C1233 H1205 0.929 . S
C1233 C1236 1.391 . S
C1233 C1238 1.391 . S
C1234 H1206 0.929 . S
C1234 C1235 1.390 . S
C1234 N1237 1.391 . S
C1235 H1207 0.930 . S
C1235 C1234 1.390 . S
C1235 C1236 1.392 . S
C1236 H1208 0.929 . S
C1236 C1233 1.391 . S
C1236 C1235 1.392 . S
N1237 Co1181 2.257 . S
N1237 C1234 1.391 . S
N1237 C1238 1.388 . S
C1238 H1209 0.930 . S
C1238 C1233 1.391 . S
C1238 N1237 1.388 . S
Co1239 O1241 2.143 . S
Co1239 O1247 2.074 . S
Co1239 O1250 2.093 . S
Co1239 O1263 2.097 . S
Co1239 N1280 2.151 . S
Co1239 N1288 2.214 . S
Co1240 O1241 2.160 . S
Co1240 O1246 2.058 . S
Co1240 O1256 2.057 . S
Co1240 O1271 2.037 . S
Co1240 N1275 2.145 . S
Co1240 N1296 2.257 . S
O1241 Co1239 2.143 . S
O1241 Co1240 2.160 . S
C1242 O1243 1.278 . S
C1242 O1250 1.224 . S
O1243 C1242 1.278 . S
C1244 O1245 1.245 . S
C1244 O1256 1.232 . S
O1245 C1244 1.245 . S
O1246 Co1240 2.058 . S
O1246 C1272 1.269 . S
O1247 Co1239 2.074 . S
O1247 C1272 1.257 . S
H1248 C1273 0.930 . S
H1249 C1279 0.930 . S
O1250 Co1239 2.093 . S
O1250 C1242 1.224 . S
H1251 C1283 0.929 . S
H1252 C1285 0.930 . S
H1253 C1286 0.930 . S
H1254 C1284 0.929 . S
H1255 C1287 0.928 . S
O1256 Co1240 2.057 . S
O1256 C1244 1.232 . S
H1257 C1276 0.929 . S
H1258 C1277 0.929 . S
H1259 C1289 0.931 . S
H1260 C1281 0.929 . S
H1261 C1290 0.930 . S
H1262 C1282 0.931 . S
O1263 Co1239 2.097 . S
O1263 C1291 1.214 . S
H1264 C1292 0.929 . S
H1265 C1293 0.929 . S
H1266 C1294 0.930 . S
H1267 C1295 0.929 . S
H1268 C1297 0.930 . S
H1269 C1274 0.930 . S
H1270 C1278 0.930 . S
O1271 Co1240 2.037 . S
O1271 C1291 1.234 . S
C1272 O1246 1.269 . S
C1272 O1247 1.257 . S
C1273 H1248 0.930 . S
C1273 C1276 1.388 . S
C1273 C1278 1.418 . S
C1274 H1269 0.930 . S
C1274 C1277 1.404 . S
C1274 C1278 1.353 . S
N1275 Co1240 2.145 . S
N1275 C1276 1.397 . S
N1275 C1277 1.334 . S
C1276 H1257 0.929 . S
C1276 C1273 1.388 . S
C1276 N1275 1.397 . S
C1277 H1258 0.929 . S
C1277 C1274 1.404 . S
C1277 N1275 1.334 . S
C1278 H1270 0.930 . S
C1278 C1273 1.418 . S
C1278 C1274 1.353 . S
C1279 H1249 0.930 . S
C1279 N1280 1.330 . S
C1279 C1281 1.446 . S
N1280 Co1239 2.151 . S
N1280 C1279 1.330 . S
N1280 C1284 1.418 . S
C1281 H1260 0.929 . S
C1281 C1279 1.446 . S
C1281 C1282 1.332 . S
C1282 H1262 0.931 . S
C1282 C1281 1.332 . S
C1282 C1283 1.267 . S
C1283 H1251 0.929 . S
C1283 C1282 1.267 . S
C1283 C1284 1.251 . S
C1284 H1254 0.929 . S
C1284 N1280 1.418 . S
C1284 C1283 1.251 . S
C1285 H1252 0.930 . S
C1285 C1287 1.406 . S
C1285 C1290 1.261 . S
C1286 H1253 0.930 . S
C1286 N1288 1.325 . S
C1286 C1289 1.357 . S
C1287 H1255 0.928 . S
C1287 C1285 1.406 . S
C1287 N1288 1.261 . S
N1288 Co1239 2.214 . S
N1288 C1286 1.325 . S
N1288 C1287 1.261 . S
C1289 H1259 0.931 . S
C1289 C1286 1.357 . S
C1289 C1290 1.312 . S
C1290 H1261 0.930 . S
C1290 C1285 1.261 . S
C1290 C1289 1.312 . S
C1291 O1263 1.214 . S
C1291 O1271 1.234 . S
C1292 H1264 0.929 . S
C1292 C1295 1.391 . S
C1292 C1297 1.391 . S
C1293 H1265 0.929 . S
C1293 C1294 1.390 . S
C1293 N1296 1.391 . S
C1294 H1266 0.930 . S
C1294 C1293 1.390 . S
C1294 C1295 1.392 . S
C1295 H1267 0.929 . S
C1295 C1292 1.391 . S
C1295 C1294 1.392 . S
N1296 Co1240 2.257 . S
N1296 C1293 1.391 . S
N1296 C1297 1.388 . S
C1297 H1268 0.930 . S
C1297 C1292 1.391 . S
C1297 N1296 1.388 . S
Co1298 O1300 2.143 . S
Co1298 O1306 2.074 . S
Co1298 O1309 2.093 . S
Co1298 O1322 2.097 . S
Co1298 N1339 2.151 . S
Co1298 N1347 2.214 . S
Co1299 O1300 2.160 . S
Co1299 O1305 2.058 . S
Co1299 O1315 2.057 . S
Co1299 O1330 2.037 . S
Co1299 N1334 2.145 . S
Co1299 N1355 2.257 . S
O1300 Co1298 2.143 . S
O1300 Co1299 2.160 . S
C1301 O1302 1.278 . S
C1301 O1309 1.224 . S
O1302 C1301 1.278 . S
C1303 O1304 1.245 . S
C1303 O1315 1.232 . S
O1304 C1303 1.245 . S
O1305 Co1299 2.058 . S
O1305 C1331 1.269 . S
O1306 Co1298 2.074 . S
O1306 C1331 1.257 . S
H1307 C1332 0.930 . S
H1308 C1338 0.930 . S
O1309 Co1298 2.093 . S
O1309 C1301 1.224 . S
H1310 C1342 0.929 . S
H1311 C1344 0.930 . S
H1312 C1345 0.930 . S
H1313 C1343 0.929 . S
H1314 C1346 0.928 . S
O1315 Co1299 2.057 . S
O1315 C1303 1.232 . S
H1316 C1335 0.929 . S
H1317 C1336 0.929 . S
H1318 C1348 0.931 . S
H1319 C1340 0.929 . S
H1320 C1349 0.930 . S
H1321 C1341 0.931 . S
O1322 Co1298 2.097 . S
O1322 C1350 1.214 . S
H1323 C1351 0.929 . S
H1324 C1352 0.929 . S
H1325 C1353 0.930 . S
H1326 C1354 0.929 . S
H1327 C1356 0.930 . S
H1328 C1333 0.930 . S
H1329 C1337 0.930 . S
O1330 Co1299 2.037 . S
O1330 C1350 1.234 . S
C1331 O1305 1.269 . S
C1331 O1306 1.257 . S
C1332 H1307 0.930 . S
C1332 C1335 1.388 . S
C1332 C1337 1.418 . S
C1333 H1328 0.930 . S
C1333 C1336 1.404 . S
C1333 C1337 1.353 . S
N1334 Co1299 2.145 . S
N1334 C1335 1.397 . S
N1334 C1336 1.334 . S
C1335 H1316 0.929 . S
C1335 C1332 1.388 . S
C1335 N1334 1.397 . S
C1336 H1317 0.929 . S
C1336 C1333 1.404 . S
C1336 N1334 1.334 . S
C1337 H1329 0.930 . S
C1337 C1332 1.418 . S
C1337 C1333 1.353 . S
C1338 H1308 0.930 . S
C1338 N1339 1.330 . S
C1338 C1340 1.446 . S
N1339 Co1298 2.151 . S
N1339 C1338 1.330 . S
N1339 C1343 1.418 . S
C1340 H1319 0.929 . S
C1340 C1338 1.446 . S
C1340 C1341 1.332 . S
C1341 H1321 0.931 . S
C1341 C1340 1.332 . S
C1341 C1342 1.267 . S
C1342 H1310 0.929 . S
C1342 C1341 1.267 . S
C1342 C1343 1.251 . S
C1343 H1313 0.929 . S
C1343 N1339 1.418 . S
C1343 C1342 1.251 . S
C1344 H1311 0.930 . S
C1344 C1346 1.406 . S
C1344 C1349 1.261 . S
C1345 H1312 0.930 . S
C1345 N1347 1.325 . S
C1345 C1348 1.357 . S
C1346 H1314 0.928 . S
C1346 C1344 1.406 . S
C1346 N1347 1.261 . S
N1347 Co1298 2.214 . S
N1347 C1345 1.325 . S
N1347 C1346 1.261 . S
C1348 H1318 0.931 . S
C1348 C1345 1.357 . S
C1348 C1349 1.312 . S
C1349 H1320 0.930 . S
C1349 C1344 1.261 . S
C1349 C1348 1.312 . S
C1350 O1322 1.214 . S
C1350 O1330 1.234 . S
C1351 H1323 0.929 . S
C1351 C1354 1.391 . S
C1351 C1356 1.391 . S
C1352 H1324 0.929 . S
C1352 C1353 1.390 . S
C1352 N1355 1.391 . S
C1353 H1325 0.930 . S
C1353 C1352 1.390 . S
C1353 C1354 1.392 . S
C1354 H1326 0.929 . S
C1354 C1351 1.391 . S
C1354 C1353 1.392 . S
N1355 Co1299 2.257 . S
N1355 C1352 1.391 . S
N1355 C1356 1.388 . S
C1356 H1327 0.930 . S
C1356 C1351 1.391 . S
C1356 N1355 1.388 . S
Co1357 O1359 2.143 . S
Co1357 O1365 2.074 . S
Co1357 O1368 2.093 . S
Co1357 O1381 2.097 . S
Co1357 N1398 2.151 . S
Co1357 N1406 2.214 . S
Co1358 O1359 2.160 . S
Co1358 O1364 2.058 . S
Co1358 O1374 2.057 . S
Co1358 O1389 2.037 . S
Co1358 N1393 2.145 . S
Co1358 N1414 2.257 . S
O1359 Co1357 2.143 . S
O1359 Co1358 2.160 . S
C1360 O1361 1.278 . S
C1360 O1368 1.224 . S
O1361 C1360 1.278 . S
C1362 O1363 1.245 . S
C1362 O1374 1.232 . S
O1363 C1362 1.245 . S
O1364 Co1358 2.058 . S
O1364 C1390 1.269 . S
O1365 Co1357 2.074 . S
O1365 C1390 1.257 . S
H1366 C1391 0.930 . S
H1367 C1397 0.930 . S
O1368 Co1357 2.093 . S
O1368 C1360 1.224 . S
H1369 C1401 0.929 . S
H1370 C1403 0.930 . S
H1371 C1404 0.930 . S
H1372 C1402 0.929 . S
H1373 C1405 0.928 . S
O1374 Co1358 2.057 . S
O1374 C1362 1.232 . S
H1375 C1394 0.929 . S
H1376 C1395 0.929 . S
H1377 C1407 0.931 . S
H1378 C1399 0.929 . S
H1379 C1408 0.930 . S
H1380 C1400 0.931 . S
O1381 Co1357 2.097 . S
O1381 C1409 1.214 . S
H1382 C1410 0.929 . S
H1383 C1411 0.929 . S
H1384 C1412 0.930 . S
H1385 C1413 0.929 . S
H1386 C1415 0.930 . S
H1387 C1392 0.930 . S
H1388 C1396 0.930 . S
O1389 Co1358 2.037 . S
O1389 C1409 1.234 . S
C1390 O1364 1.269 . S
C1390 O1365 1.257 . S
C1391 H1366 0.930 . S
C1391 C1394 1.388 . S
C1391 C1396 1.418 . S
C1392 H1387 0.930 . S
C1392 C1395 1.404 . S
C1392 C1396 1.353 . S
N1393 Co1358 2.145 . S
N1393 C1394 1.397 . S
N1393 C1395 1.334 . S
C1394 H1375 0.929 . S
C1394 C1391 1.388 . S
C1394 N1393 1.397 . S
C1395 H1376 0.929 . S
C1395 C1392 1.404 . S
C1395 N1393 1.334 . S
C1396 H1388 0.930 . S
C1396 C1391 1.418 . S
C1396 C1392 1.353 . S
C1397 H1367 0.930 . S
C1397 N1398 1.330 . S
C1397 C1399 1.446 . S
N1398 Co1357 2.151 . S
N1398 C1397 1.330 . S
N1398 C1402 1.418 . S
C1399 H1378 0.929 . S
C1399 C1397 1.446 . S
C1399 C1400 1.332 . S
C1400 H1380 0.931 . S
C1400 C1399 1.332 . S
C1400 C1401 1.267 . S
C1401 H1369 0.929 . S
C1401 C1400 1.267 . S
C1401 C1402 1.251 . S
C1402 H1372 0.929 . S
C1402 N1398 1.418 . S
C1402 C1401 1.251 . S
C1403 H1370 0.930 . S
C1403 C1405 1.406 . S
C1403 C1408 1.261 . S
C1404 H1371 0.930 . S
C1404 N1406 1.325 . S
C1404 C1407 1.357 . S
C1405 H1373 0.928 . S
C1405 C1403 1.406 . S
C1405 N1406 1.261 . S
N1406 Co1357 2.214 . S
N1406 C1404 1.325 . S
N1406 C1405 1.261 . S
C1407 H1377 0.931 . S
C1407 C1404 1.357 . S
C1407 C1408 1.312 . S
C1408 H1379 0.930 . S
C1408 C1403 1.261 . S
C1408 C1407 1.312 . S
C1409 O1381 1.214 . S
C1409 O1389 1.234 . S
C1410 H1382 0.929 . S
C1410 C1413 1.391 . S
C1410 C1415 1.391 . S
C1411 H1383 0.929 . S
C1411 C1412 1.390 . S
C1411 N1414 1.391 . S
C1412 H1384 0.930 . S
C1412 C1411 1.390 . S
C1412 C1413 1.392 . S
C1413 H1385 0.929 . S
C1413 C1410 1.391 . S
C1413 C1412 1.392 . S
N1414 Co1358 2.257 . S
N1414 C1411 1.391 . S
N1414 C1415 1.388 . S
C1415 H1386 0.930 . S
C1415 C1410 1.391 . S
C1415 N1414 1.388 . S
Co1416 O1418 2.143 . S
Co1416 O1424 2.074 . S
Co1416 O1427 2.093 . S
Co1416 O1440 2.097 . S
Co1416 N1457 2.151 . S
Co1416 N1465 2.214 . S
Co1417 O1418 2.160 . S
Co1417 O1423 2.058 . S
Co1417 O1433 2.057 . S
Co1417 O1448 2.037 . S
Co1417 N1452 2.145 . S
Co1417 N1473 2.257 . S
O1418 Co1416 2.143 . S
O1418 Co1417 2.160 . S
C1419 O1420 1.278 . S
C1419 O1427 1.224 . S
O1420 C1419 1.278 . S
C1421 O1422 1.245 . S
C1421 O1433 1.232 . S
O1422 C1421 1.245 . S
O1423 Co1417 2.058 . S
O1423 C1449 1.269 . S
O1424 Co1416 2.074 . S
O1424 C1449 1.257 . S
H1425 C1450 0.930 . S
H1426 C1456 0.930 . S
O1427 Co1416 2.093 . S
O1427 C1419 1.224 . S
H1428 C1460 0.929 . S
H1429 C1462 0.930 . S
H1430 C1463 0.930 . S
H1431 C1461 0.929 . S
H1432 C1464 0.928 . S
O1433 Co1417 2.057 . S
O1433 C1421 1.232 . S
H1434 C1453 0.929 . S
H1435 C1454 0.929 . S
H1436 C1466 0.931 . S
H1437 C1458 0.929 . S
H1438 C1467 0.930 . S
H1439 C1459 0.931 . S
O1440 Co1416 2.097 . S
O1440 C1468 1.214 . S
H1441 C1469 0.929 . S
H1442 C1470 0.929 . S
H1443 C1471 0.930 . S
H1444 C1472 0.929 . S
H1445 C1474 0.930 . S
H1446 C1451 0.930 . S
H1447 C1455 0.930 . S
O1448 Co1417 2.037 . S
O1448 C1468 1.234 . S
C1449 O1423 1.269 . S
C1449 O1424 1.257 . S
C1450 H1425 0.930 . S
C1450 C1453 1.388 . S
C1450 C1455 1.418 . S
C1451 H1446 0.930 . S
C1451 C1454 1.404 . S
C1451 C1455 1.353 . S
N1452 Co1417 2.145 . S
N1452 C1453 1.397 . S
N1452 C1454 1.334 . S
C1453 H1434 0.929 . S
C1453 C1450 1.388 . S
C1453 N1452 1.397 . S
C1454 H1435 0.929 . S
C1454 C1451 1.404 . S
C1454 N1452 1.334 . S
C1455 H1447 0.930 . S
C1455 C1450 1.418 . S
C1455 C1451 1.353 . S
C1456 H1426 0.930 . S
C1456 N1457 1.330 . S
C1456 C1458 1.446 . S
N1457 Co1416 2.151 . S
N1457 C1456 1.330 . S
N1457 C1461 1.418 . S
C1458 H1437 0.929 . S
C1458 C1456 1.446 . S
C1458 C1459 1.332 . S
C1459 H1439 0.931 . S
C1459 C1458 1.332 . S
C1459 C1460 1.267 . S
C1460 H1428 0.929 . S
C1460 C1459 1.267 . S
C1460 C1461 1.251 . S
C1461 H1431 0.929 . S
C1461 N1457 1.418 . S
C1461 C1460 1.251 . S
C1462 H1429 0.930 . S
C1462 C1464 1.406 . S
C1462 C1467 1.261 . S
C1463 H1430 0.930 . S
C1463 N1465 1.325 . S
C1463 C1466 1.357 . S
C1464 H1432 0.928 . S
C1464 C1462 1.406 . S
C1464 N1465 1.261 . S
N1465 Co1416 2.214 . S
N1465 C1463 1.325 . S
N1465 C1464 1.261 . S
C1466 H1436 0.931 . S
C1466 C1463 1.357 . S
C1466 C1467 1.312 . S
C1467 H1438 0.930 . S
C1467 C1462 1.261 . S
C1467 C1466 1.312 . S
C1468 O1440 1.214 . S
C1468 O1448 1.234 . S
C1469 H1441 0.929 . S
C1469 C1472 1.391 . S
C1469 C1474 1.391 . S
C1470 H1442 0.929 . S
C1470 C1471 1.390 . S
C1470 N1473 1.391 . S
C1471 H1443 0.930 . S
C1471 C1470 1.390 . S
C1471 C1472 1.392 . S
C1472 H1444 0.929 . S
C1472 C1469 1.391 . S
C1472 C1471 1.392 . S
N1473 Co1417 2.257 . S
N1473 C1470 1.391 . S
N1473 C1474 1.388 . S
C1474 H1445 0.930 . S
C1474 C1469 1.391 . S
C1474 N1473 1.388 . S
Co1475 O1477 2.143 . S
Co1475 O1483 2.074 . S
Co1475 O1486 2.093 . S
Co1475 O1499 2.097 . S
Co1475 N1516 2.151 . S
Co1475 N1524 2.214 . S
Co1476 O1477 2.160 . S
Co1476 O1482 2.058 . S
Co1476 O1492 2.057 . S
Co1476 O1507 2.037 . S
Co1476 N1511 2.145 . S
Co1476 N1532 2.257 . S
O1477 Co1475 2.143 . S
O1477 Co1476 2.160 . S
C1478 O1479 1.278 . S
C1478 O1486 1.224 . S
O1479 C1478 1.278 . S
C1480 O1481 1.245 . S
C1480 O1492 1.232 . S
O1481 C1480 1.245 . S
O1482 Co1476 2.058 . S
O1482 C1508 1.269 . S
O1483 Co1475 2.074 . S
O1483 C1508 1.257 . S
H1484 C1509 0.930 . S
H1485 C1515 0.930 . S
O1486 Co1475 2.093 . S
O1486 C1478 1.224 . S
H1487 C1519 0.929 . S
H1488 C1521 0.930 . S
H1489 C1522 0.930 . S
H1490 C1520 0.929 . S
H1491 C1523 0.928 . S
O1492 Co1476 2.057 . S
O1492 C1480 1.232 . S
H1493 C1512 0.929 . S
H1494 C1513 0.929 . S
H1495 C1525 0.931 . S
H1496 C1517 0.929 . S
H1497 C1526 0.930 . S
H1498 C1518 0.931 . S
O1499 Co1475 2.097 . S
O1499 C1527 1.214 . S
H1500 C1528 0.929 . S
H1501 C1529 0.929 . S
H1502 C1530 0.930 . S
H1503 C1531 0.929 . S
H1504 C1533 0.930 . S
H1505 C1510 0.930 . S
H1506 C1514 0.930 . S
O1507 Co1476 2.037 . S
O1507 C1527 1.234 . S
C1508 O1482 1.269 . S
C1508 O1483 1.257 . S
C1509 H1484 0.930 . S
C1509 C1512 1.388 . S
C1509 C1514 1.418 . S
C1510 H1505 0.930 . S
C1510 C1513 1.404 . S
C1510 C1514 1.353 . S
N1511 Co1476 2.145 . S
N1511 C1512 1.397 . S
N1511 C1513 1.334 . S
C1512 H1493 0.929 . S
C1512 C1509 1.388 . S
C1512 N1511 1.397 . S
C1513 H1494 0.929 . S
C1513 C1510 1.404 . S
C1513 N1511 1.334 . S
C1514 H1506 0.930 . S
C1514 C1509 1.418 . S
C1514 C1510 1.353 . S
C1515 H1485 0.930 . S
C1515 N1516 1.330 . S
C1515 C1517 1.446 . S
N1516 Co1475 2.151 . S
N1516 C1515 1.330 . S
N1516 C1520 1.418 . S
C1517 H1496 0.929 . S
C1517 C1515 1.446 . S
C1517 C1518 1.332 . S
C1518 H1498 0.931 . S
C1518 C1517 1.332 . S
C1518 C1519 1.267 . S
C1519 H1487 0.929 . S
C1519 C1518 1.267 . S
C1519 C1520 1.251 . S
C1520 H1490 0.929 . S
C1520 N1516 1.418 . S
C1520 C1519 1.251 . S
C1521 H1488 0.930 . S
C1521 C1523 1.406 . S
C1521 C1526 1.261 . S
C1522 H1489 0.930 . S
C1522 N1524 1.325 . S
C1522 C1525 1.357 . S
C1523 H1491 0.928 . S
C1523 C1521 1.406 . S
C1523 N1524 1.261 . S
N1524 Co1475 2.214 . S
N1524 C1522 1.325 . S
N1524 C1523 1.261 . S
C1525 H1495 0.931 . S
C1525 C1522 1.357 . S
C1525 C1526 1.312 . S
C1526 H1497 0.930 . S
C1526 C1521 1.261 . S
C1526 C1525 1.312 . S
C1527 O1499 1.214 . S
C1527 O1507 1.234 . S
C1528 H1500 0.929 . S
C1528 C1531 1.391 . S
C1528 C1533 1.391 . S
C1529 H1501 0.929 . S
C1529 C1530 1.390 . S
C1529 N1532 1.391 . S
C1530 H1502 0.930 . S
C1530 C1529 1.390 . S
C1530 C1531 1.392 . S
C1531 H1503 0.929 . S
C1531 C1528 1.391 . S
C1531 C1530 1.392 . S
N1532 Co1476 2.257 . S
N1532 C1529 1.391 . S
N1532 C1533 1.388 . S
C1533 H1504 0.930 . S
C1533 C1528 1.391 . S
C1533 N1532 1.388 . S
Co1534 O1536 2.143 . S
Co1534 O1542 2.074 . S
Co1534 O1545 2.093 . S
Co1534 O1558 2.097 . S
Co1534 N1575 2.151 . S
Co1534 N1583 2.214 . S
Co1535 O1536 2.160 . S
Co1535 O1541 2.058 . S
Co1535 O1551 2.057 . S
Co1535 O1566 2.037 . S
Co1535 N1570 2.145 . S
Co1535 N1591 2.257 . S
O1536 Co1534 2.143 . S
O1536 Co1535 2.160 . S
C1537 O1538 1.278 . S
C1537 O1545 1.224 . S
O1538 C1537 1.278 . S
C1539 O1540 1.245 . S
C1539 O1551 1.232 . S
O1540 C1539 1.245 . S
O1541 Co1535 2.058 . S
O1541 C1567 1.269 . S
O1542 Co1534 2.074 . S
O1542 C1567 1.257 . S
H1543 C1568 0.930 . S
H1544 C1574 0.930 . S
O1545 Co1534 2.093 . S
O1545 C1537 1.224 . S
H1546 C1578 0.929 . S
H1547 C1580 0.930 . S
H1548 C1581 0.930 . S
H1549 C1579 0.929 . S
H1550 C1582 0.928 . S
O1551 Co1535 2.057 . S
O1551 C1539 1.232 . S
H1552 C1571 0.929 . S
H1553 C1572 0.929 . S
H1554 C1584 0.931 . S
H1555 C1576 0.929 . S
H1556 C1585 0.930 . S
H1557 C1577 0.931 . S
O1558 Co1534 2.097 . S
O1558 C1586 1.214 . S
H1559 C1587 0.929 . S
H1560 C1588 0.929 . S
H1561 C1589 0.930 . S
H1562 C1590 0.929 . S
H1563 C1592 0.930 . S
H1564 C1569 0.930 . S
H1565 C1573 0.930 . S
O1566 Co1535 2.037 . S
O1566 C1586 1.234 . S
C1567 O1541 1.269 . S
C1567 O1542 1.257 . S
C1568 H1543 0.930 . S
C1568 C1571 1.388 . S
C1568 C1573 1.418 . S
C1569 H1564 0.930 . S
C1569 C1572 1.404 . S
C1569 C1573 1.353 . S
N1570 Co1535 2.145 . S
N1570 C1571 1.397 . S
N1570 C1572 1.334 . S
C1571 H1552 0.929 . S
C1571 C1568 1.388 . S
C1571 N1570 1.397 . S
C1572 H1553 0.929 . S
C1572 C1569 1.404 . S
C1572 N1570 1.334 . S
C1573 H1565 0.930 . S
C1573 C1568 1.418 . S
C1573 C1569 1.353 . S
C1574 H1544 0.930 . S
C1574 N1575 1.330 . S
C1574 C1576 1.446 . S
N1575 Co1534 2.151 . S
N1575 C1574 1.330 . S
N1575 C1579 1.418 . S
C1576 H1555 0.929 . S
C1576 C1574 1.446 . S
C1576 C1577 1.332 . S
C1577 H1557 0.931 . S
C1577 C1576 1.332 . S
C1577 C1578 1.267 . S
C1578 H1546 0.929 . S
C1578 C1577 1.267 . S
C1578 C1579 1.251 . S
C1579 H1549 0.929 . S
C1579 N1575 1.418 . S
C1579 C1578 1.251 . S
C1580 H1547 0.930 . S
C1580 C1582 1.406 . S
C1580 C1585 1.261 . S
C1581 H1548 0.930 . S
C1581 N1583 1.325 . S
C1581 C1584 1.357 . S
C1582 H1550 0.928 . S
C1582 C1580 1.406 . S
C1582 N1583 1.261 . S
N1583 Co1534 2.214 . S
N1583 C1581 1.325 . S
N1583 C1582 1.261 . S
C1584 H1554 0.931 . S
C1584 C1581 1.357 . S
C1584 C1585 1.312 . S
C1585 H1556 0.930 . S
C1585 C1580 1.261 . S
C1585 C1584 1.312 . S
C1586 O1558 1.214 . S
C1586 O1566 1.234 . S
C1587 H1559 0.929 . S
C1587 C1590 1.391 . S
C1587 C1592 1.391 . S
C1588 H1560 0.929 . S
C1588 C1589 1.390 . S
C1588 N1591 1.391 . S
C1589 H1561 0.930 . S
C1589 C1588 1.390 . S
C1589 C1590 1.392 . S
C1590 H1562 0.929 . S
C1590 C1587 1.391 . S
C1590 C1589 1.392 . S
N1591 Co1535 2.257 . S
N1591 C1588 1.391 . S
N1591 C1592 1.388 . S
C1592 H1563 0.930 . S
C1592 C1587 1.391 . S
C1592 N1591 1.388 . S
Co1593 O1595 2.143 . S
Co1593 O1601 2.074 . S
Co1593 O1604 2.093 . S
Co1593 O1617 2.097 . S
Co1593 N1634 2.151 . S
Co1593 N1642 2.214 . S
Co1594 O1595 2.160 . S
Co1594 O1600 2.058 . S
Co1594 O1610 2.057 . S
Co1594 O1625 2.037 . S
Co1594 N1629 2.145 . S
Co1594 N1650 2.257 . S
O1595 Co1593 2.143 . S
O1595 Co1594 2.160 . S
C1596 O1597 1.278 . S
C1596 O1604 1.224 . S
O1597 C1596 1.278 . S
C1598 O1599 1.245 . S
C1598 O1610 1.232 . S
O1599 C1598 1.245 . S
O1600 Co1594 2.058 . S
O1600 C1626 1.269 . S
O1601 Co1593 2.074 . S
O1601 C1626 1.257 . S
H1602 C1627 0.930 . S
H1603 C1633 0.930 . S
O1604 Co1593 2.093 . S
O1604 C1596 1.224 . S
H1605 C1637 0.929 . S
H1606 C1639 0.930 . S
H1607 C1640 0.930 . S
H1608 C1638 0.929 . S
H1609 C1641 0.928 . S
O1610 Co1594 2.057 . S
O1610 C1598 1.232 . S
H1611 C1630 0.929 . S
H1612 C1631 0.929 . S
H1613 C1643 0.931 . S
H1614 C1635 0.929 . S
H1615 C1644 0.930 . S
H1616 C1636 0.931 . S
O1617 Co1593 2.097 . S
O1617 C1645 1.214 . S
H1618 C1646 0.929 . S
H1619 C1647 0.929 . S
H1620 C1648 0.930 . S
H1621 C1649 0.929 . S
H1622 C1651 0.930 . S
H1623 C1628 0.930 . S
H1624 C1632 0.930 . S
O1625 Co1594 2.037 . S
O1625 C1645 1.234 . S
C1626 O1600 1.269 . S
C1626 O1601 1.257 . S
C1627 H1602 0.930 . S
C1627 C1630 1.388 . S
C1627 C1632 1.418 . S
C1628 H1623 0.930 . S
C1628 C1631 1.404 . S
C1628 C1632 1.353 . S
N1629 Co1594 2.145 . S
N1629 C1630 1.397 . S
N1629 C1631 1.334 . S
C1630 H1611 0.929 . S
C1630 C1627 1.388 . S
C1630 N1629 1.397 . S
C1631 H1612 0.929 . S
C1631 C1628 1.404 . S
C1631 N1629 1.334 . S
C1632 H1624 0.930 . S
C1632 C1627 1.418 . S
C1632 C1628 1.353 . S
C1633 H1603 0.930 . S
C1633 N1634 1.330 . S
C1633 C1635 1.446 . S
N1634 Co1593 2.151 . S
N1634 C1633 1.330 . S
N1634 C1638 1.418 . S
C1635 H1614 0.929 . S
C1635 C1633 1.446 . S
C1635 C1636 1.332 . S
C1636 H1616 0.931 . S
C1636 C1635 1.332 . S
C1636 C1637 1.267 . S
C1637 H1605 0.929 . S
C1637 C1636 1.267 . S
C1637 C1638 1.251 . S
C1638 H1608 0.929 . S
C1638 N1634 1.418 . S
C1638 C1637 1.251 . S
C1639 H1606 0.930 . S
C1639 C1641 1.406 . S
C1639 C1644 1.261 . S
C1640 H1607 0.930 . S
C1640 N1642 1.325 . S
C1640 C1643 1.357 . S
C1641 H1609 0.928 . S
C1641 C1639 1.406 . S
C1641 N1642 1.261 . S
N1642 Co1593 2.214 . S
N1642 C1640 1.325 . S
N1642 C1641 1.261 . S
C1643 H1613 0.931 . S
C1643 C1640 1.357 . S
C1643 C1644 1.312 . S
C1644 H1615 0.930 . S
C1644 C1639 1.261 . S
C1644 C1643 1.312 . S
C1645 O1617 1.214 . S
C1645 O1625 1.234 . S
C1646 H1618 0.929 . S
C1646 C1649 1.391 . S
C1646 C1651 1.391 . S
C1647 H1619 0.929 . S
C1647 C1648 1.390 . S
C1647 N1650 1.391 . S
C1648 H1620 0.930 . S
C1648 C1647 1.390 . S
C1648 C1649 1.392 . S
C1649 H1621 0.929 . S
C1649 C1646 1.391 . S
C1649 C1648 1.392 . S
N1650 Co1594 2.257 . S
N1650 C1647 1.391 . S
N1650 C1651 1.388 . S
C1651 H1622 0.930 . S
C1651 C1646 1.391 . S
C1651 N1650 1.388 . S
Co1652 O1654 2.143 . S
Co1652 O1660 2.074 . S
Co1652 O1663 2.093 . S
Co1652 O1676 2.097 . S
Co1652 N1693 2.151 . S
Co1652 N1701 2.214 . S
Co1653 O1654 2.160 . S
Co1653 O1659 2.058 . S
Co1653 O1669 2.057 . S
Co1653 O1684 2.037 . S
Co1653 N1688 2.145 . S
Co1653 N1709 2.257 . S
O1654 Co1652 2.143 . S
O1654 Co1653 2.160 . S
C1655 O1656 1.278 . S
C1655 O1663 1.224 . S
O1656 C1655 1.278 . S
C1657 O1658 1.245 . S
C1657 O1669 1.232 . S
O1658 C1657 1.245 . S
O1659 Co1653 2.058 . S
O1659 C1685 1.269 . S
O1660 Co1652 2.074 . S
O1660 C1685 1.257 . S
H1661 C1686 0.930 . S
H1662 C1692 0.930 . S
O1663 Co1652 2.093 . S
O1663 C1655 1.224 . S
H1664 C1696 0.929 . S
H1665 C1698 0.930 . S
H1666 C1699 0.930 . S
H1667 C1697 0.929 . S
H1668 C1700 0.928 . S
O1669 Co1653 2.057 . S
O1669 C1657 1.232 . S
H1670 C1689 0.929 . S
H1671 C1690 0.929 . S
H1672 C1702 0.931 . S
H1673 C1694 0.929 . S
H1674 C1703 0.930 . S
H1675 C1695 0.931 . S
O1676 Co1652 2.097 . S
O1676 C1704 1.214 . S
H1677 C1705 0.929 . S
H1678 C1706 0.929 . S
H1679 C1707 0.930 . S
H1680 C1708 0.929 . S
H1681 C1710 0.930 . S
H1682 C1687 0.930 . S
H1683 C1691 0.930 . S
O1684 Co1653 2.037 . S
O1684 C1704 1.234 . S
C1685 O1659 1.269 . S
C1685 O1660 1.257 . S
C1686 H1661 0.930 . S
C1686 C1689 1.388 . S
C1686 C1691 1.418 . S
C1687 H1682 0.930 . S
C1687 C1690 1.404 . S
C1687 C1691 1.353 . S
N1688 Co1653 2.145 . S
N1688 C1689 1.397 . S
N1688 C1690 1.334 . S
C1689 H1670 0.929 . S
C1689 C1686 1.388 . S
C1689 N1688 1.397 . S
C1690 H1671 0.929 . S
C1690 C1687 1.404 . S
C1690 N1688 1.334 . S
C1691 H1683 0.930 . S
C1691 C1686 1.418 . S
C1691 C1687 1.353 . S
C1692 H1662 0.930 . S
C1692 N1693 1.330 . S
C1692 C1694 1.446 . S
N1693 Co1652 2.151 . S
N1693 C1692 1.330 . S
N1693 C1697 1.418 . S
C1694 H1673 0.929 . S
C1694 C1692 1.446 . S
C1694 C1695 1.332 . S
C1695 H1675 0.931 . S
C1695 C1694 1.332 . S
C1695 C1696 1.267 . S
C1696 H1664 0.929 . S
C1696 C1695 1.267 . S
C1696 C1697 1.251 . S
C1697 H1667 0.929 . S
C1697 N1693 1.418 . S
C1697 C1696 1.251 . S
C1698 H1665 0.930 . S
C1698 C1700 1.406 . S
C1698 C1703 1.261 . S
C1699 H1666 0.930 . S
C1699 N1701 1.325 . S
C1699 C1702 1.357 . S
C1700 H1668 0.928 . S
C1700 C1698 1.406 . S
C1700 N1701 1.261 . S
N1701 Co1652 2.214 . S
N1701 C1699 1.325 . S
N1701 C1700 1.261 . S
C1702 H1672 0.931 . S
C1702 C1699 1.357 . S
C1702 C1703 1.312 . S
C1703 H1674 0.930 . S
C1703 C1698 1.261 . S
C1703 C1702 1.312 . S
C1704 O1676 1.214 . S
C1704 O1684 1.234 . S
C1705 H1677 0.929 . S
C1705 C1708 1.391 . S
C1705 C1710 1.391 . S
C1706 H1678 0.929 . S
C1706 C1707 1.390 . S
C1706 N1709 1.391 . S
C1707 H1679 0.930 . S
C1707 C1706 1.390 . S
C1707 C1708 1.392 . S
C1708 H1680 0.929 . S
C1708 C1705 1.391 . S
C1708 C1707 1.392 . S
N1709 Co1653 2.257 . S
N1709 C1706 1.391 . S
N1709 C1710 1.388 . S
C1710 H1681 0.930 . S
C1710 C1705 1.391 . S
C1710 N1709 1.388 . S
Co1711 O1713 2.143 . S
Co1711 O1719 2.074 . S
Co1711 O1722 2.093 . S
Co1711 O1735 2.097 . S
Co1711 N1752 2.151 . S
Co1711 N1760 2.214 . S
Co1712 O1713 2.160 . S
Co1712 O1718 2.058 . S
Co1712 O1728 2.057 . S
Co1712 O1743 2.037 . S
Co1712 N1747 2.145 . S
Co1712 N1768 2.257 . S
O1713 Co1711 2.143 . S
O1713 Co1712 2.160 . S
C1714 O1715 1.278 . S
C1714 O1722 1.224 . S
O1715 C1714 1.278 . S
C1716 O1717 1.245 . S
C1716 O1728 1.232 . S
O1717 C1716 1.245 . S
O1718 Co1712 2.058 . S
O1718 C1744 1.269 . S
O1719 Co1711 2.074 . S
O1719 C1744 1.257 . S
H1720 C1745 0.930 . S
H1721 C1751 0.930 . S
O1722 Co1711 2.093 . S
O1722 C1714 1.224 . S
H1723 C1755 0.929 . S
H1724 C1757 0.930 . S
H1725 C1758 0.930 . S
H1726 C1756 0.929 . S
H1727 C1759 0.928 . S
O1728 Co1712 2.057 . S
O1728 C1716 1.232 . S
H1729 C1748 0.929 . S
H1730 C1749 0.929 . S
H1731 C1761 0.931 . S
H1732 C1753 0.929 . S
H1733 C1762 0.930 . S
H1734 C1754 0.931 . S
O1735 Co1711 2.097 . S
O1735 C1763 1.214 . S
H1736 C1764 0.929 . S
H1737 C1765 0.929 . S
H1738 C1766 0.930 . S
H1739 C1767 0.929 . S
H1740 C1769 0.930 . S
H1741 C1746 0.930 . S
H1742 C1750 0.930 . S
O1743 Co1712 2.037 . S
O1743 C1763 1.234 . S
C1744 O1718 1.269 . S
C1744 O1719 1.257 . S
C1745 H1720 0.930 . S
C1745 C1748 1.388 . S
C1745 C1750 1.418 . S
C1746 H1741 0.930 . S
C1746 C1749 1.404 . S
C1746 C1750 1.353 . S
N1747 Co1712 2.145 . S
N1747 C1748 1.397 . S
N1747 C1749 1.334 . S
C1748 H1729 0.929 . S
C1748 C1745 1.388 . S
C1748 N1747 1.397 . S
C1749 H1730 0.929 . S
C1749 C1746 1.404 . S
C1749 N1747 1.334 . S
C1750 H1742 0.930 . S
C1750 C1745 1.418 . S
C1750 C1746 1.353 . S
C1751 H1721 0.930 . S
C1751 N1752 1.330 . S
C1751 C1753 1.446 . S
N1752 Co1711 2.151 . S
N1752 C1751 1.330 . S
N1752 C1756 1.418 . S
C1753 H1732 0.929 . S
C1753 C1751 1.446 . S
C1753 C1754 1.332 . S
C1754 H1734 0.931 . S
C1754 C1753 1.332 . S
C1754 C1755 1.267 . S
C1755 H1723 0.929 . S
C1755 C1754 1.267 . S
C1755 C1756 1.251 . S
C1756 H1726 0.929 . S
C1756 N1752 1.418 . S
C1756 C1755 1.251 . S
C1757 H1724 0.930 . S
C1757 C1759 1.406 . S
C1757 C1762 1.261 . S
C1758 H1725 0.930 . S
C1758 N1760 1.325 . S
C1758 C1761 1.357 . S
C1759 H1727 0.928 . S
C1759 C1757 1.406 . S
C1759 N1760 1.261 . S
N1760 Co1711 2.214 . S
N1760 C1758 1.325 . S
N1760 C1759 1.261 . S
C1761 H1731 0.931 . S
C1761 C1758 1.357 . S
C1761 C1762 1.312 . S
C1762 H1733 0.930 . S
C1762 C1757 1.261 . S
C1762 C1761 1.312 . S
C1763 O1735 1.214 . S
C1763 O1743 1.234 . S
C1764 H1736 0.929 . S
C1764 C1767 1.391 . S
C1764 C1769 1.391 . S
C1765 H1737 0.929 . S
C1765 C1766 1.390 . S
C1765 N1768 1.391 . S
C1766 H1738 0.930 . S
C1766 C1765 1.390 . S
C1766 C1767 1.392 . S
C1767 H1739 0.929 . S
C1767 C1764 1.391 . S
C1767 C1766 1.392 . S
N1768 Co1712 2.257 . S
N1768 C1765 1.391 . S
N1768 C1769 1.388 . S
C1769 H1740 0.930 . S
C1769 C1764 1.391 . S
C1769 N1768 1.388 . S
Co1770 O1772 2.143 . S
Co1770 O1778 2.074 . S
Co1770 O1781 2.093 . S
Co1770 O1794 2.097 . S
Co1770 N1811 2.151 . S
Co1770 N1819 2.214 . S
Co1771 O1772 2.160 . S
Co1771 O1777 2.058 . S
Co1771 O1787 2.057 . S
Co1771 O1802 2.037 . S
Co1771 N1806 2.145 . S
Co1771 N1827 2.257 . S
O1772 Co1770 2.143 . S
O1772 Co1771 2.160 . S
C1773 O1774 1.278 . S
C1773 O1781 1.224 . S
O1774 C1773 1.278 . S
C1775 O1776 1.245 . S
C1775 O1787 1.232 . S
O1776 C1775 1.245 . S
O1777 Co1771 2.058 . S
O1777 C1803 1.269 . S
O1778 Co1770 2.074 . S
O1778 C1803 1.257 . S
H1779 C1804 0.930 . S
H1780 C1810 0.930 . S
O1781 Co1770 2.093 . S
O1781 C1773 1.224 . S
H1782 C1814 0.929 . S
H1783 C1816 0.930 . S
H1784 C1817 0.930 . S
H1785 C1815 0.929 . S
H1786 C1818 0.928 . S
O1787 Co1771 2.057 . S
O1787 C1775 1.232 . S
H1788 C1807 0.929 . S
H1789 C1808 0.929 . S
H1790 C1820 0.931 . S
H1791 C1812 0.929 . S
H1792 C1821 0.930 . S
H1793 C1813 0.931 . S
O1794 Co1770 2.097 . S
O1794 C1822 1.214 . S
H1795 C1823 0.929 . S
H1796 C1824 0.929 . S
H1797 C1825 0.930 . S
H1798 C1826 0.929 . S
H1799 C1828 0.930 . S
H1800 C1805 0.930 . S
H1801 C1809 0.930 . S
O1802 Co1771 2.037 . S
O1802 C1822 1.234 . S
C1803 O1777 1.269 . S
C1803 O1778 1.257 . S
C1804 H1779 0.930 . S
C1804 C1807 1.388 . S
C1804 C1809 1.418 . S
C1805 H1800 0.930 . S
C1805 C1808 1.404 . S
C1805 C1809 1.353 . S
N1806 Co1771 2.145 . S
N1806 C1807 1.397 . S
N1806 C1808 1.334 . S
C1807 H1788 0.929 . S
C1807 C1804 1.388 . S
C1807 N1806 1.397 . S
C1808 H1789 0.929 . S
C1808 C1805 1.404 . S
C1808 N1806 1.334 . S
C1809 H1801 0.930 . S
C1809 C1804 1.418 . S
C1809 C1805 1.353 . S
C1810 H1780 0.930 . S
C1810 N1811 1.330 . S
C1810 C1812 1.446 . S
N1811 Co1770 2.151 . S
N1811 C1810 1.330 . S
N1811 C1815 1.418 . S
C1812 H1791 0.929 . S
C1812 C1810 1.446 . S
C1812 C1813 1.332 . S
C1813 H1793 0.931 . S
C1813 C1812 1.332 . S
C1813 C1814 1.267 . S
C1814 H1782 0.929 . S
C1814 C1813 1.267 . S
C1814 C1815 1.251 . S
C1815 H1785 0.929 . S
C1815 N1811 1.418 . S
C1815 C1814 1.251 . S
C1816 H1783 0.930 . S
C1816 C1818 1.406 . S
C1816 C1821 1.261 . S
C1817 H1784 0.930 . S
C1817 N1819 1.325 . S
C1817 C1820 1.357 . S
C1818 H1786 0.928 . S
C1818 C1816 1.406 . S
C1818 N1819 1.261 . S
N1819 Co1770 2.214 . S
N1819 C1817 1.325 . S
N1819 C1818 1.261 . S
C1820 H1790 0.931 . S
C1820 C1817 1.357 . S
C1820 C1821 1.312 . S
C1821 H1792 0.930 . S
C1821 C1816 1.261 . S
C1821 C1820 1.312 . S
C1822 O1794 1.214 . S
C1822 O1802 1.234 . S
C1823 H1795 0.929 . S
C1823 C1826 1.391 . S
C1823 C1828 1.391 . S
C1824 H1796 0.929 . S
C1824 C1825 1.390 . S
C1824 N1827 1.391 . S
C1825 H1797 0.930 . S
C1825 C1824 1.390 . S
C1825 C1826 1.392 . S
C1826 H1798 0.929 . S
C1826 C1823 1.391 . S
C1826 C1825 1.392 . S
N1827 Co1771 2.257 . S
N1827 C1824 1.391 . S
N1827 C1828 1.388 . S
C1828 H1799 0.930 . S
C1828 C1823 1.391 . S
C1828 N1827 1.388 . S
Co1829 O1831 2.143 . S
Co1829 O1837 2.074 . S
Co1829 O1840 2.093 . S
Co1829 O1853 2.097 . S
Co1829 N1870 2.151 . S
Co1829 N1878 2.214 . S
Co1830 O1831 2.160 . S
Co1830 O1836 2.058 . S
Co1830 O1846 2.057 . S
Co1830 O1861 2.037 . S
Co1830 N1865 2.145 . S
Co1830 N1886 2.257 . S
O1831 Co1829 2.143 . S
O1831 Co1830 2.160 . S
C1832 O1833 1.278 . S
C1832 O1840 1.224 . S
O1833 C1832 1.278 . S
C1834 O1835 1.245 . S
C1834 O1846 1.232 . S
O1835 C1834 1.245 . S
O1836 Co1830 2.058 . S
O1836 C1862 1.269 . S
O1837 Co1829 2.074 . S
O1837 C1862 1.257 . S
H1838 C1863 0.930 . S
H1839 C1869 0.930 . S
O1840 Co1829 2.093 . S
O1840 C1832 1.224 . S
H1841 C1873 0.929 . S
H1842 C1875 0.930 . S
H1843 C1876 0.930 . S
H1844 C1874 0.929 . S
H1845 C1877 0.928 . S
O1846 Co1830 2.057 . S
O1846 C1834 1.232 . S
H1847 C1866 0.929 . S
H1848 C1867 0.929 . S
H1849 C1879 0.931 . S
H1850 C1871 0.929 . S
H1851 C1880 0.930 . S
H1852 C1872 0.931 . S
O1853 Co1829 2.097 . S
O1853 C1881 1.214 . S
H1854 C1882 0.929 . S
H1855 C1883 0.929 . S
H1856 C1884 0.930 . S
H1857 C1885 0.929 . S
H1858 C1887 0.930 . S
H1859 C1864 0.930 . S
H1860 C1868 0.930 . S
O1861 Co1830 2.037 . S
O1861 C1881 1.234 . S
C1862 O1836 1.269 . S
C1862 O1837 1.257 . S
C1863 H1838 0.930 . S
C1863 C1866 1.388 . S
C1863 C1868 1.418 . S
C1864 H1859 0.930 . S
C1864 C1867 1.404 . S
C1864 C1868 1.353 . S
N1865 Co1830 2.145 . S
N1865 C1866 1.397 . S
N1865 C1867 1.334 . S
C1866 H1847 0.929 . S
C1866 C1863 1.388 . S
C1866 N1865 1.397 . S
C1867 H1848 0.929 . S
C1867 C1864 1.404 . S
C1867 N1865 1.334 . S
C1868 H1860 0.930 . S
C1868 C1863 1.418 . S
C1868 C1864 1.353 . S
C1869 H1839 0.930 . S
C1869 N1870 1.330 . S
C1869 C1871 1.446 . S
N1870 Co1829 2.151 . S
N1870 C1869 1.330 . S
N1870 C1874 1.418 . S
C1871 H1850 0.929 . S
C1871 C1869 1.446 . S
C1871 C1872 1.332 . S
C1872 H1852 0.931 . S
C1872 C1871 1.332 . S
C1872 C1873 1.267 . S
C1873 H1841 0.929 . S
C1873 C1872 1.267 . S
C1873 C1874 1.251 . S
C1874 H1844 0.929 . S
C1874 N1870 1.418 . S
C1874 C1873 1.251 . S
C1875 H1842 0.930 . S
C1875 C1877 1.406 . S
C1875 C1880 1.261 . S
C1876 H1843 0.930 . S
C1876 N1878 1.325 . S
C1876 C1879 1.357 . S
C1877 H1845 0.928 . S
C1877 C1875 1.406 . S
C1877 N1878 1.261 . S
N1878 Co1829 2.214 . S
N1878 C1876 1.325 . S
N1878 C1877 1.261 . S
C1879 H1849 0.931 . S
C1879 C1876 1.357 . S
C1879 C1880 1.312 . S
C1880 H1851 0.930 . S
C1880 C1875 1.261 . S
C1880 C1879 1.312 . S
C1881 O1853 1.214 . S
C1881 O1861 1.234 . S
C1882 H1854 0.929 . S
C1882 C1885 1.391 . S
C1882 C1887 1.391 . S
C1883 H1855 0.929 . S
C1883 C1884 1.390 . S
C1883 N1886 1.391 . S
C1884 H1856 0.930 . S
C1884 C1883 1.390 . S
C1884 C1885 1.392 . S
C1885 H1857 0.929 . S
C1885 C1882 1.391 . S
C1885 C1884 1.392 . S
N1886 Co1830 2.257 . S
N1886 C1883 1.391 . S
N1886 C1887 1.388 . S
C1887 H1858 0.930 . S
C1887 C1882 1.391 . S
C1887 N1886 1.388 . S
C1888 C1889 1.349 . S
C1888 C1890 1.327 1_565 S
C1888 H1913 0.950 1_565 S
C1889 C1888 1.349 . S
C1889 C1905 1.349 . S
C1890 C1888 1.327 1_545 S
C1890 C1909 1.429 1_545 S
C1890 H1914 0.950 . S
C1891 C1908 1.574 . S
C1891 C1910 1.368 . S
C1891 H1915 0.949 . S
H1892 C1896 0.949 . S
C1893 C1894 1.349 . S
C1893 C1895 1.327 1_545 S
C1893 H1916 0.950 1_545 S
C1894 C1893 1.349 . S
C1894 C1906 1.349 . S
C1895 C1893 1.327 1_565 S
C1895 C1911 1.429 1_565 S
C1895 H1917 0.950 . S
C1896 H1892 0.949 . S
C1896 C1904 1.574 . S
C1896 C1912 1.368 . S
H1897 C1905 0.950 . S
H1898 C1903 0.950 . S
H1899 C1904 0.949 . S
H1900 C1906 0.950 . S
H1901 C1907 0.950 . S
H1902 C1908 0.949 . S
C1903 H1898 0.950 . S
C1903 C1905 1.327 . S
C1903 C1909 1.429 . S
C1904 C1896 1.574 . S
C1904 H1899 0.949 . S
C1904 C1910 1.368 1_545 S
C1905 C1889 1.349 . S
C1905 H1897 0.950 . S
C1905 C1903 1.327 . S
C1906 C1894 1.349 . S
C1906 H1900 0.950 . S
C1906 C1907 1.327 . S
C1907 H1901 0.950 . S
C1907 C1906 1.327 . S
C1907 C1911 1.429 . S
C1908 C1891 1.574 . S
C1908 H1902 0.949 . S
C1908 C1912 1.368 1_565 S
C1909 C1890 1.429 1_565 S
C1909 C1903 1.429 . S
C1909 C1910 1.523 . S
C1910 C1891 1.368 . S
C1910 C1904 1.368 1_565 S
C1910 C1909 1.523 . S
C1911 C1895 1.429 1_545 S
C1911 C1907 1.429 . S
C1911 C1912 1.523 . S
C1912 C1896 1.368 . S
C1912 C1908 1.368 1_545 S
C1912 C1911 1.523 . S
H1913 C1888 0.950 1_545 S
H1914 C1890 0.950 . S
H1915 C1891 0.949 . S
H1916 C1893 0.950 1_565 S
H1917 C1895 0.950 . S
C1918 C1919 1.349 . S
C1918 C1920 1.327 . S
C1918 H1943 0.950 . S
C1919 C1918 1.349 . S
C1919 C1935 1.349 . S
C1920 C1918 1.327 . S
C1920 C1939 1.429 . S
C1920 H1944 0.950 . S
C1921 C1938 1.574 . S
C1921 C1940 1.368 . S
C1921 H1945 0.949 . S
H1922 C1926 0.949 . S
C1923 C1924 1.349 . S
C1923 C1925 1.327 . S
C1923 H1946 0.950 . S
C1924 C1923 1.349 . S
C1924 C1936 1.349 . S
C1925 C1923 1.327 . S
C1925 C1941 1.429 . S
C1925 H1947 0.950 . S
C1926 H1922 0.949 . S
C1926 C1934 1.574 . S
C1926 C1942 1.368 . S
H1927 C1935 0.950 . S
H1928 C1933 0.950 . S
H1929 C1934 0.949 . S
H1930 C1936 0.950 . S
H1931 C1937 0.950 . S
H1932 C1938 0.949 . S
C1933 H1928 0.950 . S
C1933 C1935 1.327 . S
C1933 C1939 1.429 . S
C1934 C1926 1.574 . S
C1934 H1929 0.949 . S
C1934 C1940 1.368 . S
C1935 C1919 1.349 . S
C1935 H1927 0.950 . S
C1935 C1933 1.327 . S
C1936 C1924 1.349 . S
C1936 H1930 0.950 . S
C1936 C1937 1.327 . S
C1937 H1931 0.950 . S
C1937 C1936 1.327 . S
C1937 C1941 1.429 . S
C1938 C1921 1.574 . S
C1938 H1932 0.949 . S
C1938 C1942 1.368 . S
C1939 C1920 1.429 . S
C1939 C1933 1.429 . S
C1939 C1940 1.523 . S
C1940 C1921 1.368 . S
C1940 C1934 1.368 . S
C1940 C1939 1.523 . S
C1941 C1925 1.429 . S
C1941 C1937 1.429 . S
C1941 C1942 1.523 . S
C1942 C1926 1.368 . S
C1942 C1938 1.368 . S
C1942 C1941 1.523 . S
H1943 C1918 0.950 . S
H1944 C1920 0.950 . S
H1945 C1921 0.949 . S
H1946 C1923 0.950 . S
H1947 C1925 0.950 . S
C1948 C1949 1.349 . S
C1948 C1950 1.327 . S
C1948 H1973 0.950 . S
C1949 C1948 1.349 . S
C1949 C1965 1.349 . S
C1950 C1948 1.327 . S
C1950 C1969 1.429 . S
C1950 H1974 0.950 . S
C1951 C1968 1.574 . S
C1951 C1970 1.368 1_565 S
C1951 H1975 0.949 . S
H1952 C1956 0.949 . S
C1953 C1954 1.349 . S
C1953 C1955 1.327 . S
C1953 H1976 0.950 . S
C1954 C1953 1.349 . S
C1954 C1966 1.349 . S
C1955 C1953 1.327 . S
C1955 C1971 1.429 . S
C1955 H1977 0.950 . S
C1956 H1952 0.949 . S
C1956 C1964 1.574 . S
C1956 C1972 1.368 1_545 S
H1957 C1965 0.950 1_565 S
H1958 C1963 0.950 . S
H1959 C1964 0.949 . S
H1960 C1966 0.950 1_545 S
H1961 C1967 0.950 . S
H1962 C1968 0.949 . S
C1963 H1958 0.950 . S
C1963 C1965 1.327 1_565 S
C1963 C1969 1.429 1_565 S
C1964 C1956 1.574 . S
C1964 H1959 0.949 . S
C1964 C1970 1.368 . S
C1965 C1949 1.349 . S
C1965 H1957 0.950 1_545 S
C1965 C1963 1.327 1_545 S
C1966 C1954 1.349 . S
C1966 H1960 0.950 1_565 S
C1966 C1967 1.327 1_565 S
C1967 H1961 0.950 . S
C1967 C1966 1.327 1_545 S
C1967 C1971 1.429 1_545 S
C1968 C1951 1.574 . S
C1968 H1962 0.949 . S
C1968 C1972 1.368 . S
C1969 C1950 1.429 . S
C1969 C1963 1.429 1_545 S
C1969 C1970 1.523 . S
C1970 C1951 1.368 1_545 S
C1970 C1964 1.368 . S
C1970 C1969 1.523 . S
C1971 C1955 1.429 . S
C1971 C1967 1.429 1_565 S
C1971 C1972 1.523 . S
C1972 C1956 1.368 1_565 S
C1972 C1968 1.368 . S
C1972 C1971 1.523 . S
H1973 C1948 0.950 . S
H1974 C1950 0.950 . S
H1975 C1951 0.949 . S
H1976 C1953 0.950 . S
H1977 C1955 0.950 . S
C1978 C1979 1.349 . S
C1978 C1980 1.327 . S
C1978 H2003 0.950 . S
C1979 C1978 1.349 . S
C1979 C1995 1.349 . S
C1980 C1978 1.327 . S
C1980 C1999 1.429 . S
C1980 H2004 0.950 . S
C1981 C1998 1.574 1_556 S
C1981 C2000 1.368 . S
C1981 H2005 0.949 . S
H1982 C1986 0.949 . S
C1983 C1984 1.349 . S
C1983 C1985 1.327 . S
C1983 H2006 0.950 . S
C1984 C1983 1.349 . S
C1984 C1996 1.349 . S
C1985 C1983 1.327 . S
C1985 C2001 1.429 . S
C1985 H2007 0.950 . S
C1986 H1982 0.949 . S
C1986 C1994 1.574 1_554 S
C1986 C2002 1.368 . S
H1987 C1995 0.950 . S
H1988 C1993 0.950 . S
H1989 C1994 0.949 . S
H1990 C1996 0.950 . S
H1991 C1997 0.950 . S
H1992 C1998 0.949 . S
C1993 H1988 0.950 . S
C1993 C1995 1.327 . S
C1993 C1999 1.429 . S
C1994 C1986 1.574 1_556 S
C1994 H1989 0.949 . S
C1994 C2000 1.368 . S
C1995 C1979 1.349 . S
C1995 H1987 0.950 . S
C1995 C1993 1.327 . S
C1996 C1984 1.349 . S
C1996 H1990 0.950 . S
C1996 C1997 1.327 . S
C1997 H1991 0.950 . S
C1997 C1996 1.327 . S
C1997 C2001 1.429 . S
C1998 C1981 1.574 1_554 S
C1998 H1992 0.949 . S
C1998 C2002 1.368 . S
C1999 C1980 1.429 . S
C1999 C1993 1.429 . S
C1999 C2000 1.523 . S
C2000 C1981 1.368 . S
C2000 C1994 1.368 . S
C2000 C1999 1.523 . S
C2001 C1985 1.429 . S
C2001 C1997 1.429 . S
C2001 C2002 1.523 . S
C2002 C1986 1.368 . S
C2002 C1998 1.368 . S
C2002 C2001 1.523 . S
H2003 C1978 0.950 . S
H2004 C1980 0.950 . S
H2005 C1981 0.949 . S
H2006 C1983 0.950 . S
H2007 C1985 0.950 . S
C2008 C2009 1.349 . S
C2008 C2010 1.327 . S
C2008 H2033 0.950 . S
C2009 C2008 1.349 . S
C2009 C2025 1.349 . S
C2010 C2008 1.327 . S
C2010 C2029 1.429 . S
C2010 H2034 0.950 . S
C2011 C2028 1.574 . S
C2011 C2030 1.368 1_545 S
C2011 H2035 0.949 . S
H2012 C2016 0.949 . S
C2013 C2014 1.349 . S
C2013 C2015 1.327 . S
C2013 H2036 0.950 . S
C2014 C2013 1.349 . S
C2014 C2026 1.349 . S
C2015 C2013 1.327 . S
C2015 C2031 1.429 . S
C2015 H2037 0.950 . S
C2016 H2012 0.949 . S
C2016 C2024 1.574 . S
C2016 C2032 1.368 1_565 S
H2017 C2025 0.950 . S
H2018 C2023 0.950 . S
H2019 C2024 0.949 . S
H2020 C2026 0.950 . S
H2021 C2027 0.950 . S
H2022 C2028 0.949 . S
C2023 H2018 0.950 . S
C2023 C2025 1.327 . S
C2023 C2029 1.429 . S
C2024 C2016 1.574 . S
C2024 H2019 0.949 . S
C2024 C2030 1.368 . S
C2025 C2009 1.349 . S
C2025 H2017 0.950 . S
C2025 C2023 1.327 . S
C2026 C2014 1.349 . S
C2026 H2020 0.950 . S
C2026 C2027 1.327 . S
C2027 H2021 0.950 . S
C2027 C2026 1.327 . S
C2027 C2031 1.429 . S
C2028 C2011 1.574 . S
C2028 H2022 0.949 . S
C2028 C2032 1.368 . S
C2029 C2010 1.429 . S
C2029 C2023 1.429 . S
C2029 C2030 1.523 . S
C2030 C2011 1.368 1_565 S
C2030 C2024 1.368 . S
C2030 C2029 1.523 . S
C2031 C2015 1.429 . S
C2031 C2027 1.429 . S
C2031 C2032 1.523 . S
C2032 C2016 1.368 1_545 S
C2032 C2028 1.368 . S
C2032 C2031 1.523 . S
H2033 C2008 0.950 . S
H2034 C2010 0.950 . S
H2035 C2011 0.949 . S
H2036 C2013 0.950 . S
H2037 C2015 0.950 . S
C2038 C2039 1.349 . S
C2038 C2040 1.327 . S
C2038 H2063 0.950 . S
C2039 C2038 1.349 . S
C2039 C2055 1.349 . S
C2040 C2038 1.327 . S
C2040 C2059 1.429 . S
C2040 H2064 0.950 . S
C2041 C2058 1.574 . S
C2041 C2060 1.368 . S
C2041 H2065 0.949 . S
H2042 C2046 0.949 . S
C2043 C2044 1.349 . S
C2043 C2045 1.327 . S
C2043 H2066 0.950 . S
C2044 C2043 1.349 . S
C2044 C2056 1.349 . S
C2045 C2043 1.327 . S
C2045 C2061 1.429 . S
C2045 H2067 0.950 . S
C2046 H2042 0.949 . S
C2046 C2054 1.574 . S
C2046 C2062 1.368 . S
H2047 C2055 0.950 . S
H2048 C2053 0.950 . S
H2049 C2054 0.949 . S
H2050 C2056 0.950 . S
H2051 C2057 0.950 . S
H2052 C2058 0.949 . S
C2053 H2048 0.950 . S
C2053 C2055 1.327 . S
C2053 C2059 1.429 . S
C2054 C2046 1.574 . S
C2054 H2049 0.949 . S
C2054 C2060 1.368 . S
C2055 C2039 1.349 . S
C2055 H2047 0.950 . S
C2055 C2053 1.327 . S
C2056 C2044 1.349 . S
C2056 H2050 0.950 . S
C2056 C2057 1.327 . S
C2057 H2051 0.950 . S
C2057 C2056 1.327 . S
C2057 C2061 1.429 . S
C2058 C2041 1.574 . S
C2058 H2052 0.949 . S
C2058 C2062 1.368 . S
C2059 C2040 1.429 . S
C2059 C2053 1.429 . S
C2059 C2060 1.523 . S
C2060 C2041 1.368 . S
C2060 C2054 1.368 . S
C2060 C2059 1.523 . S
C2061 C2045 1.429 . S
C2061 C2057 1.429 . S
C2061 C2062 1.523 . S
C2062 C2046 1.368 . S
C2062 C2058 1.368 . S
C2062 C2061 1.523 . S
H2063 C2038 0.950 . S
H2064 C2040 0.950 . S
H2065 C2041 0.949 . S
H2066 C2043 0.950 . S
H2067 C2045 0.950 . S
C2068 C2069 1.349 . S
C2068 C2070 1.327 1_545 S
C2068 H2093 0.950 1_545 S
C2069 C2068 1.349 . S
C2069 C2085 1.349 . S
C2070 C2068 1.327 1_565 S
C2070 C2089 1.429 1_565 S
C2070 H2094 0.950 . S
C2071 C2088 1.574 . S
C2071 C2090 1.368 . S
C2071 H2095 0.949 . S
H2072 C2076 0.949 . S
C2073 C2074 1.349 . S
C2073 C2075 1.327 1_565 S
C2073 H2096 0.950 1_565 S
C2074 C2073 1.349 . S
C2074 C2086 1.349 . S
C2075 C2073 1.327 1_545 S
C2075 C2091 1.429 1_545 S
C2075 H2097 0.950 . S
C2076 H2072 0.949 . S
C2076 C2084 1.574 . S
C2076 C2092 1.368 . S
H2077 C2085 0.950 . S
H2078 C2083 0.950 . S
H2079 C2084 0.949 . S
H2080 C2086 0.950 . S
H2081 C2087 0.950 . S
H2082 C2088 0.949 . S
C2083 H2078 0.950 . S
C2083 C2085 1.327 . S
C2083 C2089 1.429 . S
C2084 C2076 1.574 . S
C2084 H2079 0.949 . S
C2084 C2090 1.368 1_565 S
C2085 C2069 1.349 . S
C2085 H2077 0.950 . S
C2085 C2083 1.327 . S
C2086 C2074 1.349 . S
C2086 H2080 0.950 . S
C2086 C2087 1.327 . S
C2087 H2081 0.950 . S
C2087 C2086 1.327 . S
C2087 C2091 1.429 . S
C2088 C2071 1.574 . S
C2088 H2082 0.949 . S
C2088 C2092 1.368 1_545 S
C2089 C2070 1.429 1_545 S
C2089 C2083 1.429 . S
C2089 C2090 1.523 . S
C2090 C2071 1.368 . S
C2090 C2084 1.368 1_545 S
C2090 C2089 1.523 . S
C2091 C2075 1.429 1_565 S
C2091 C2087 1.429 . S
C2091 C2092 1.523 . S
C2092 C2076 1.368 . S
C2092 C2088 1.368 1_565 S
C2092 C2091 1.523 . S
H2093 C2068 0.950 1_565 S
H2094 C2070 0.950 . S
H2095 C2071 0.949 . S
H2096 C2073 0.950 1_545 S
H2097 C2075 0.950 . S
C2098 C2099 1.349 . S
C2098 C2100 1.327 . S
C2098 H2123 0.950 . S
C2099 C2098 1.349 . S
C2099 C2115 1.349 . S
C2100 C2098 1.327 . S
C2100 C2119 1.429 . S
C2100 H2124 0.950 . S
C2101 C2118 1.574 1_556 S
C2101 C2120 1.368 . S
C2101 H2125 0.949 . S
H2102 C2106 0.949 . S
C2103 C2104 1.349 . S
C2103 C2105 1.327 . S
C2103 H2126 0.950 . S
C2104 C2103 1.349 . S
C2104 C2116 1.349 . S
C2105 C2103 1.327 . S
C2105 C2121 1.429 . S
C2105 H2127 0.950 . S
C2106 H2102 0.949 . S
C2106 C2114 1.574 1_554 S
C2106 C2122 1.368 . S
H2107 C2115 0.950 . S
H2108 C2113 0.950 . S
H2109 C2114 0.949 . S
H2110 C2116 0.950 . S
H2111 C2117 0.950 . S
H2112 C2118 0.949 . S
C2113 H2108 0.950 . S
C2113 C2115 1.327 . S
C2113 C2119 1.429 . S
C2114 C2106 1.574 1_556 S
C2114 H2109 0.949 . S
C2114 C2120 1.368 . S
C2115 C2099 1.349 . S
C2115 H2107 0.950 . S
C2115 C2113 1.327 . S
C2116 C2104 1.349 . S
C2116 H2110 0.950 . S
C2116 C2117 1.327 . S
C2117 H2111 0.950 . S
C2117 C2116 1.327 . S
C2117 C2121 1.429 . S
C2118 C2101 1.574 1_554 S
C2118 H2112 0.949 . S
C2118 C2122 1.368 . S
C2119 C2100 1.429 . S
C2119 C2113 1.429 . S
C2119 C2120 1.523 . S
C2120 C2101 1.368 . S
C2120 C2114 1.368 . S
C2120 C2119 1.523 . S
C2121 C2105 1.429 . S
C2121 C2117 1.429 . S
C2121 C2122 1.523 . S
C2122 C2106 1.368 . S
C2122 C2118 1.368 . S
C2122 C2121 1.523 . S
H2123 C2098 0.950 . S
H2124 C2100 0.950 . S
H2125 C2101 0.949 . S
H2126 C2103 0.950 . S
H2127 C2105 0.950 . S
C2128 C2129 1.349 . S
C2128 C2130 1.327 . S
C2128 H2153 0.950 . S
C2129 C2128 1.349 . S
C2129 C2145 1.349 . S
C2130 C2128 1.327 . S
C2130 C2149 1.429 . S
C2130 H2154 0.950 . S
C2131 C2148 1.574 . S
C2131 C2150 1.368 . S
C2131 H2155 0.949 . S
H2132 C2136 0.949 . S
C2133 C2134 1.349 . S
C2133 C2135 1.327 . S
C2133 H2156 0.950 . S
C2134 C2133 1.349 . S
C2134 C2146 1.349 . S
C2135 C2133 1.327 . S
C2135 C2151 1.429 . S
C2135 H2157 0.950 . S
C2136 H2132 0.949 . S
C2136 C2144 1.574 . S
C2136 C2152 1.368 . S
H2137 C2145 0.950 . S
H2138 C2143 0.950 . S
H2139 C2144 0.949 . S
H2140 C2146 0.950 . S
H2141 C2147 0.950 . S
H2142 C2148 0.949 . S
C2143 H2138 0.950 . S
C2143 C2145 1.327 . S
C2143 C2149 1.429 . S
C2144 C2136 1.574 . S
C2144 H2139 0.949 . S
C2144 C2150 1.368 . S
C2145 C2129 1.349 . S
C2145 H2137 0.950 . S
C2145 C2143 1.327 . S
C2146 C2134 1.349 . S
C2146 H2140 0.950 . S
C2146 C2147 1.327 . S
C2147 H2141 0.950 . S
C2147 C2146 1.327 . S
C2147 C2151 1.429 . S
C2148 C2131 1.574 . S
C2148 H2142 0.949 . S
C2148 C2152 1.368 . S
C2149 C2130 1.429 . S
C2149 C2143 1.429 . S
C2149 C2150 1.523 . S
C2150 C2131 1.368 . S
C2150 C2144 1.368 . S
C2150 C2149 1.523 . S
C2151 C2135 1.429 . S
C2151 C2147 1.429 . S
C2151 C2152 1.523 . S
C2152 C2136 1.368 . S
C2152 C2148 1.368 . S
C2152 C2151 1.523 . S
H2153 C2128 0.950 . S
H2154 C2130 0.950 . S
H2155 C2131 0.949 . S
H2156 C2133 0.950 . S
H2157 C2135 0.950 . S
C2158 C2159 1.349 . S
C2158 C2160 1.327 . S
C2158 H2183 0.950 . S
C2159 C2158 1.349 . S
C2159 C2175 1.349 . S
C2160 C2158 1.327 . S
C2160 C2179 1.429 . S
C2160 H2184 0.950 . S
C2161 C2178 1.574 1_554 S
C2161 C2180 1.368 . S
C2161 H2185 0.949 . S
H2162 C2166 0.949 . S
C2163 C2164 1.349 . S
C2163 C2165 1.327 . S
C2163 H2186 0.950 . S
C2164 C2163 1.349 . S
C2164 C2176 1.349 . S
C2165 C2163 1.327 . S
C2165 C2181 1.429 . S
C2165 H2187 0.950 . S
C2166 H2162 0.949 . S
C2166 C2174 1.574 1_556 S
C2166 C2182 1.368 . S
H2167 C2175 0.950 . S
H2168 C2173 0.950 . S
H2169 C2174 0.949 . S
H2170 C2176 0.950 . S
H2171 C2177 0.950 . S
H2172 C2178 0.949 . S
C2173 H2168 0.950 . S
C2173 C2175 1.327 . S
C2173 C2179 1.429 . S
C2174 C2166 1.574 1_554 S
C2174 H2169 0.949 . S
C2174 C2180 1.368 . S
C2175 C2159 1.349 . S
C2175 H2167 0.950 . S
C2175 C2173 1.327 . S
C2176 C2164 1.349 . S
C2176 H2170 0.950 . S
C2176 C2177 1.327 . S
C2177 H2171 0.950 . S
C2177 C2176 1.327 . S
C2177 C2181 1.429 . S
C2178 C2161 1.574 1_556 S
C2178 H2172 0.949 . S
C2178 C2182 1.368 . S
C2179 C2160 1.429 . S
C2179 C2173 1.429 . S
C2179 C2180 1.523 . S
C2180 C2161 1.368 . S
C2180 C2174 1.368 . S
C2180 C2179 1.523 . S
C2181 C2165 1.429 . S
C2181 C2177 1.429 . S
C2181 C2182 1.523 . S
C2182 C2166 1.368 . S
C2182 C2178 1.368 . S
C2182 C2181 1.523 . S
H2183 C2158 0.950 . S
H2184 C2160 0.950 . S
H2185 C2161 0.949 . S
H2186 C2163 0.950 . S
H2187 C2165 0.950 . S
C2188 C2189 1.349 . S
C2188 C2190 1.327 . S
C2188 H2213 0.950 . S
C2189 C2188 1.349 . S
C2189 C2205 1.349 . S
C2190 C2188 1.327 . S
C2190 C2209 1.429 . S
C2190 H2214 0.950 . S
C2191 C2208 1.574 . S
C2191 C2210 1.368 . S
C2191 H2215 0.949 . S
H2192 C2196 0.949 . S
C2193 C2194 1.349 . S
C2193 C2195 1.327 . S
C2193 H2216 0.950 . S
C2194 C2193 1.349 . S
C2194 C2206 1.349 . S
C2195 C2193 1.327 . S
C2195 C2211 1.429 . S
C2195 H2217 0.950 . S
C2196 H2192 0.949 . S
C2196 C2204 1.574 . S
C2196 C2212 1.368 . S
H2197 C2205 0.950 . S
H2198 C2203 0.950 . S
H2199 C2204 0.949 . S
H2200 C2206 0.950 . S
H2201 C2207 0.950 . S
H2202 C2208 0.949 . S
C2203 H2198 0.950 . S
C2203 C2205 1.327 . S
C2203 C2209 1.429 . S
C2204 C2196 1.574 . S
C2204 H2199 0.949 . S
C2204 C2210 1.368 . S
C2205 C2189 1.349 . S
C2205 H2197 0.950 . S
C2205 C2203 1.327 . S
C2206 C2194 1.349 . S
C2206 H2200 0.950 . S
C2206 C2207 1.327 . S
C2207 H2201 0.950 . S
C2207 C2206 1.327 . S
C2207 C2211 1.429 . S
C2208 C2191 1.574 . S
C2208 H2202 0.949 . S
C2208 C2212 1.368 . S
C2209 C2190 1.429 . S
C2209 C2203 1.429 . S
C2209 C2210 1.523 . S
C2210 C2191 1.368 . S
C2210 C2204 1.368 . S
C2210 C2209 1.523 . S
C2211 C2195 1.429 . S
C2211 C2207 1.429 . S
C2211 C2212 1.523 . S
C2212 C2196 1.368 . S
C2212 C2208 1.368 . S
C2212 C2211 1.523 . S
H2213 C2188 0.950 . S
H2214 C2190 0.950 . S
H2215 C2191 0.949 . S
H2216 C2193 0.950 . S
H2217 C2195 0.950 . S
C2218 C2219 1.349 . S
C2218 C2220 1.327 . S
C2218 H2243 0.950 . S
C2219 C2218 1.349 . S
C2219 C2235 1.349 . S
C2220 C2218 1.327 . S
C2220 C2239 1.429 . S
C2220 H2244 0.950 . S
C2221 C2238 1.574 . S
C2221 C2240 1.368 . S
C2221 H2245 0.949 . S
H2222 C2226 0.949 . S
C2223 C2224 1.349 . S
C2223 C2225 1.327 . S
C2223 H2246 0.950 . S
C2224 C2223 1.349 . S
C2224 C2236 1.349 . S
C2225 C2223 1.327 . S
C2225 C2241 1.429 . S
C2225 H2247 0.950 . S
C2226 H2222 0.949 . S
C2226 C2234 1.574 . S
C2226 C2242 1.368 . S
H2227 C2235 0.950 . S
H2228 C2233 0.950 . S
H2229 C2234 0.949 . S
H2230 C2236 0.950 . S
H2231 C2237 0.950 . S
H2232 C2238 0.949 . S
C2233 H2228 0.950 . S
C2233 C2235 1.327 . S
C2233 C2239 1.429 . S
C2234 C2226 1.574 . S
C2234 H2229 0.949 . S
C2234 C2240 1.368 . S
C2235 C2219 1.349 . S
C2235 H2227 0.950 . S
C2235 C2233 1.327 . S
C2236 C2224 1.349 . S
C2236 H2230 0.950 . S
C2236 C2237 1.327 . S
C2237 H2231 0.950 . S
C2237 C2236 1.327 . S
C2237 C2241 1.429 . S
C2238 C2221 1.574 . S
C2238 H2232 0.949 . S
C2238 C2242 1.368 . S
C2239 C2220 1.429 . S
C2239 C2233 1.429 . S
C2239 C2240 1.523 . S
C2240 C2221 1.368 . S
C2240 C2234 1.368 . S
C2240 C2239 1.523 . S
C2241 C2225 1.429 . S
C2241 C2237 1.429 . S
C2241 C2242 1.523 . S
C2242 C2226 1.368 . S
C2242 C2238 1.368 . S
C2242 C2241 1.523 . S
H2243 C2218 0.950 . S
H2244 C2220 0.950 . S
H2245 C2221 0.949 . S
H2246 C2223 0.950 . S
H2247 C2225 0.950 . S
C2248 C2249 1.349 . S
C2248 C2250 1.327 . S
C2248 H2273 0.950 . S
C2249 C2248 1.349 . S
C2249 C2265 1.349 . S
C2250 C2248 1.327 . S
C2250 C2269 1.429 . S
C2250 H2274 0.950 . S
C2251 C2268 1.574 . S
C2251 C2270 1.368 . S
C2251 H2275 0.949 . S
H2252 C2256 0.949 . S
C2253 C2254 1.349 . S
C2253 C2255 1.327 . S
C2253 H2276 0.950 . S
C2254 C2253 1.349 . S
C2254 C2266 1.349 . S
C2255 C2253 1.327 . S
C2255 C2271 1.429 . S
C2255 H2277 0.950 . S
C2256 H2252 0.949 . S
C2256 C2264 1.574 . S
C2256 C2272 1.368 . S
H2257 C2265 0.950 . S
H2258 C2263 0.950 . S
H2259 C2264 0.949 . S
H2260 C2266 0.950 . S
H2261 C2267 0.950 . S
H2262 C2268 0.949 . S
C2263 H2258 0.950 . S
C2263 C2265 1.327 . S
C2263 C2269 1.429 . S
C2264 C2256 1.574 . S
C2264 H2259 0.949 . S
C2264 C2270 1.368 . S
C2265 C2249 1.349 . S
C2265 H2257 0.950 . S
C2265 C2263 1.327 . S
C2266 C2254 1.349 . S
C2266 H2260 0.950 . S
C2266 C2267 1.327 . S
C2267 H2261 0.950 . S
C2267 C2266 1.327 . S
C2267 C2271 1.429 . S
C2268 C2251 1.574 . S
C2268 H2262 0.949 . S
C2268 C2272 1.368 . S
C2269 C2250 1.429 . S
C2269 C2263 1.429 . S
C2269 C2270 1.523 . S
C2270 C2251 1.368 . S
C2270 C2264 1.368 . S
C2270 C2269 1.523 . S
C2271 C2255 1.429 . S
C2271 C2267 1.429 . S
C2271 C2272 1.523 . S
C2272 C2256 1.368 . S
C2272 C2268 1.368 . S
C2272 C2271 1.523 . S
H2273 C2248 0.950 . S
H2274 C2250 0.950 . S
H2275 C2251 0.949 . S
H2276 C2253 0.950 . S
H2277 C2255 0.950 . S
C2278 C2279 1.349 . S
C2278 C2280 1.327 . S
C2278 H2303 0.950 . S
C2279 C2278 1.349 . S
C2279 C2295 1.349 . S
C2280 C2278 1.327 . S
C2280 C2299 1.429 . S
C2280 H2304 0.950 . S
C2281 C2298 1.574 1_554 S
C2281 C2300 1.368 . S
C2281 H2305 0.949 . S
H2282 C2286 0.949 . S
C2283 C2284 1.349 . S
C2283 C2285 1.327 . S
C2283 H2306 0.950 . S
C2284 C2283 1.349 . S
C2284 C2296 1.349 . S
C2285 C2283 1.327 . S
C2285 C2301 1.429 . S
C2285 H2307 0.950 . S
C2286 H2282 0.949 . S
C2286 C2294 1.574 1_556 S
C2286 C2302 1.368 . S
H2287 C2295 0.950 . S
H2288 C2293 0.950 . S
H2289 C2294 0.949 . S
H2290 C2296 0.950 . S
H2291 C2297 0.950 . S
H2292 C2298 0.949 . S
C2293 H2288 0.950 . S
C2293 C2295 1.327 . S
C2293 C2299 1.429 . S
C2294 C2286 1.574 1_554 S
C2294 H2289 0.949 . S
C2294 C2300 1.368 . S
C2295 C2279 1.349 . S
C2295 H2287 0.950 . S
C2295 C2293 1.327 . S
C2296 C2284 1.349 . S
C2296 H2290 0.950 . S
C2296 C2297 1.327 . S
C2297 H2291 0.950 . S
C2297 C2296 1.327 . S
C2297 C2301 1.429 . S
C2298 C2281 1.574 1_556 S
C2298 H2292 0.949 . S
C2298 C2302 1.368 . S
C2299 C2280 1.429 . S
C2299 C2293 1.429 . S
C2299 C2300 1.523 . S
C2300 C2281 1.368 . S
C2300 C2294 1.368 . S
C2300 C2299 1.523 . S
C2301 C2285 1.429 . S
C2301 C2297 1.429 . S
C2301 C2302 1.523 . S
C2302 C2286 1.368 . S
C2302 C2298 1.368 . S
C2302 C2301 1.523 . S
H2303 C2278 0.950 . S
H2304 C2280 0.950 . S
H2305 C2281 0.949 . S
H2306 C2283 0.950 . S
H2307 C2285 0.950 . S
C2308 C2309 1.349 . S
C2308 C2310 1.327 . S
C2308 H2333 0.950 . S
C2309 C2308 1.349 . S
C2309 C2325 1.349 . S
C2310 C2308 1.327 . S
C2310 C2329 1.429 . S
C2310 H2334 0.950 . S
C2311 C2328 1.574 . S
C2311 C2330 1.368 . S
C2311 H2335 0.949 . S
H2312 C2316 0.949 . S
C2313 C2314 1.349 . S
C2313 C2315 1.327 . S
C2313 H2336 0.950 . S
C2314 C2313 1.349 . S
C2314 C2326 1.349 . S
C2315 C2313 1.327 . S
C2315 C2331 1.429 . S
C2315 H2337 0.950 . S
C2316 H2312 0.949 . S
C2316 C2324 1.574 . S
C2316 C2332 1.368 . S
H2317 C2325 0.950 . S
H2318 C2323 0.950 . S
H2319 C2324 0.949 . S
H2320 C2326 0.950 . S
H2321 C2327 0.950 . S
H2322 C2328 0.949 . S
C2323 H2318 0.950 . S
C2323 C2325 1.327 . S
C2323 C2329 1.429 . S
C2324 C2316 1.574 . S
C2324 H2319 0.949 . S
C2324 C2330 1.368 . S
C2325 C2309 1.349 . S
C2325 H2317 0.950 . S
C2325 C2323 1.327 . S
C2326 C2314 1.349 . S
C2326 H2320 0.950 . S
C2326 C2327 1.327 . S
C2327 H2321 0.950 . S
C2327 C2326 1.327 . S
C2327 C2331 1.429 . S
C2328 C2311 1.574 . S
C2328 H2322 0.949 . S
C2328 C2332 1.368 . S
C2329 C2310 1.429 . S
C2329 C2323 1.429 . S
C2329 C2330 1.523 . S
C2330 C2311 1.368 . S
C2330 C2324 1.368 . S
C2330 C2329 1.523 . S
C2331 C2315 1.429 . S
C2331 C2327 1.429 . S
C2331 C2332 1.523 . S
C2332 C2316 1.368 . S
C2332 C2328 1.368 . S
C2332 C2331 1.523 . S
H2333 C2308 0.950 . S
H2334 C2310 0.950 . S
H2335 C2311 0.949 . S
H2336 C2313 0.950 . S
H2337 C2315 0.950 . S
C2338 C2339 1.349 . S
C2338 C2340 1.327 . S
C2338 H2363 0.950 . S
C2339 C2338 1.349 . S
C2339 C2355 1.349 . S
C2340 C2338 1.327 . S
C2340 C2359 1.429 . S
C2340 H2364 0.950 . S
C2341 C2358 1.574 . S
C2341 C2360 1.368 . S
C2341 H2365 0.949 . S
H2342 C2346 0.949 . S
C2343 C2344 1.349 . S
C2343 C2345 1.327 . S
C2343 H2366 0.950 . S
C2344 C2343 1.349 . S
C2344 C2356 1.349 . S
C2345 C2343 1.327 . S
C2345 C2361 1.429 . S
C2345 H2367 0.950 . S
C2346 H2342 0.949 . S
C2346 C2354 1.574 . S
C2346 C2362 1.368 . S
H2347 C2355 0.950 . S
H2348 C2353 0.950 . S
H2349 C2354 0.949 . S
H2350 C2356 0.950 . S
H2351 C2357 0.950 . S
H2352 C2358 0.949 . S
C2353 H2348 0.950 . S
C2353 C2355 1.327 . S
C2353 C2359 1.429 . S
C2354 C2346 1.574 . S
C2354 H2349 0.949 . S
C2354 C2360 1.368 . S
C2355 C2339 1.349 . S
C2355 H2347 0.950 . S
C2355 C2353 1.327 . S
C2356 C2344 1.349 . S
C2356 H2350 0.950 . S
C2356 C2357 1.327 . S
C2357 H2351 0.950 . S
C2357 C2356 1.327 . S
C2357 C2361 1.429 . S
C2358 C2341 1.574 . S
C2358 H2352 0.949 . S
C2358 C2362 1.368 . S
C2359 C2340 1.429 . S
C2359 C2353 1.429 . S
C2359 C2360 1.523 . S
C2360 C2341 1.368 . S
C2360 C2354 1.368 . S
C2360 C2359 1.523 . S
C2361 C2345 1.429 . S
C2361 C2357 1.429 . S
C2361 C2362 1.523 . S
C2362 C2346 1.368 . S
C2362 C2358 1.368 . S
C2362 C2361 1.523 . S
H2363 C2338 0.950 . S
H2364 C2340 0.950 . S
H2365 C2341 0.949 . S
H2366 C2343 0.950 . S
H2367 C2345 0.950 . S
C2368 C2369 1.349 . S
C2368 C2370 1.327 . S
C2368 H2393 0.951 . S
C2369 C2368 1.349 . S
C2369 C2385 1.349 . S
C2370 C2368 1.327 . S
C2370 C2389 1.429 . S
C2370 H2394 0.950 . S
C2371 C2388 1.574 . S
C2371 C2390 1.368 . S
C2371 H2395 0.949 . S
H2372 C2376 0.949 . S
C2373 C2374 1.349 . S
C2373 C2375 1.327 . S
C2373 H2396 0.950 . S
C2374 C2373 1.349 . S
C2374 C2386 1.349 . S
C2375 C2373 1.327 . S
C2375 C2391 1.429 . S
C2375 H2397 0.950 . S
C2376 H2372 0.949 . S
C2376 C2384 1.574 . S
C2376 C2392 1.368 . S
H2377 C2385 0.950 . S
H2378 C2383 0.950 . S
H2379 C2384 0.949 . S
H2380 C2386 0.950 . S
H2381 C2387 0.950 . S
H2382 C2388 0.949 . S
C2383 H2378 0.950 . S
C2383 C2385 1.327 . S
C2383 C2389 1.429 . S
C2384 C2376 1.574 . S
C2384 H2379 0.949 . S
C2384 C2390 1.368 . S
C2385 C2369 1.349 . S
C2385 H2377 0.950 . S
C2385 C2383 1.327 . S
C2386 C2374 1.349 . S
C2386 H2380 0.950 . S
C2386 C2387 1.327 . S
C2387 H2381 0.950 . S
C2387 C2386 1.327 . S
C2387 C2391 1.429 . S
C2388 C2371 1.574 . S
C2388 H2382 0.949 . S
C2388 C2392 1.368 . S
C2389 C2370 1.429 . S
C2389 C2383 1.429 . S
C2389 C2390 1.523 . S
C2390 C2371 1.368 . S
C2390 C2384 1.368 . S
C2390 C2389 1.523 . S
C2391 C2375 1.429 . S
C2391 C2387 1.429 . S
C2391 C2392 1.523 . S
C2392 C2376 1.368 . S
C2392 C2388 1.368 . S
C2392 C2391 1.523 . S
H2393 C2368 0.951 . S
H2394 C2370 0.950 . S
H2395 C2371 0.949 . S
H2396 C2373 0.950 . S
H2397 C2375 0.950 . S
C2398 C2399 1.349 . S
C2398 C2400 1.327 . S
C2398 H2423 0.950 . S
C2399 C2398 1.349 . S
C2399 C2415 1.349 . S
C2400 C2398 1.327 . S
C2400 C2419 1.429 . S
C2400 H2424 0.950 . S
C2401 C2418 1.574 . S
C2401 C2420 1.368 . S
C2401 H2425 0.949 . S
H2402 C2406 0.949 . S
C2403 C2404 1.349 1_565 S
C2403 C2405 1.327 1_565 S
C2403 H2426 0.950 . S
C2404 C2403 1.349 1_545 S
C2404 C2416 1.349 . S
C2405 C2403 1.327 1_545 S
C2405 C2421 1.429 . S
C2405 H2427 0.950 . S
C2406 H2402 0.949 . S
C2406 C2414 1.574 . S
C2406 C2422 1.368 . S
H2407 C2415 0.950 . S
H2408 C2413 0.950 . S
H2409 C2414 0.949 . S
H2410 C2416 0.950 . S
H2411 C2417 0.950 . S
H2412 C2418 0.949 . S
C2413 H2408 0.950 . S
C2413 C2415 1.327 . S
C2413 C2419 1.429 . S
C2414 C2406 1.574 . S
C2414 H2409 0.949 . S
C2414 C2420 1.368 . S
C2415 C2399 1.349 . S
C2415 H2407 0.950 . S
C2415 C2413 1.327 . S
C2416 C2404 1.349 . S
C2416 H2410 0.950 . S
C2416 C2417 1.327 . S
C2417 H2411 0.950 . S
C2417 C2416 1.327 . S
C2417 C2421 1.429 . S
C2418 C2401 1.574 . S
C2418 H2412 0.949 . S
C2418 C2422 1.368 . S
C2419 C2400 1.429 . S
C2419 C2413 1.429 . S
C2419 C2420 1.523 . S
C2420 C2401 1.368 . S
C2420 C2414 1.368 . S
C2420 C2419 1.523 . S
C2421 C2405 1.429 . S
C2421 C2417 1.429 . S
C2421 C2422 1.523 . S
C2422 C2406 1.368 . S
C2422 C2418 1.368 . S
C2422 C2421 1.523 . S
H2423 C2398 0.950 . S
H2424 C2400 0.950 . S
H2425 C2401 0.949 . S
H2426 C2403 0.950 . S
H2427 C2405 0.950 . S
C2428 C2429 1.349 . S
C2428 C2430 1.327 . S
C2428 H2453 0.950 . S
C2429 C2428 1.349 . S
C2429 C2445 1.349 . S
C2430 C2428 1.327 . S
C2430 C2449 1.429 . S
C2430 H2454 0.950 . S
C2431 C2448 1.574 . S
C2431 C2450 1.368 . S
C2431 H2455 0.949 . S
H2432 C2436 0.949 . S
C2433 C2434 1.349 . S
C2433 C2435 1.327 . S
C2433 H2456 0.950 . S
C2434 C2433 1.349 . S
C2434 C2446 1.349 . S
C2435 C2433 1.327 . S
C2435 C2451 1.429 . S
C2435 H2457 0.950 . S
C2436 H2432 0.949 . S
C2436 C2444 1.574 . S
C2436 C2452 1.368 . S
H2437 C2445 0.950 1_565 S
H2438 C2443 0.950 . S
H2439 C2444 0.949 . S
H2440 C2446 0.950 . S
H2441 C2447 0.950 . S
H2442 C2448 0.949 . S
C2443 H2438 0.950 . S
C2443 C2445 1.327 . S
C2443 C2449 1.429 . S
C2444 C2436 1.574 . S
C2444 H2439 0.949 . S
C2444 C2450 1.368 . S
C2445 C2429 1.349 . S
C2445 H2437 0.950 1_545 S
C2445 C2443 1.327 . S
C2446 C2434 1.349 . S
C2446 H2440 0.950 . S
C2446 C2447 1.327 . S
C2447 H2441 0.950 . S
C2447 C2446 1.327 . S
C2447 C2451 1.429 . S
C2448 C2431 1.574 . S
C2448 H2442 0.949 . S
C2448 C2452 1.368 . S
C2449 C2430 1.429 . S
C2449 C2443 1.429 . S
C2449 C2450 1.523 . S
C2450 C2431 1.368 . S
C2450 C2444 1.368 . S
C2450 C2449 1.523 . S
C2451 C2435 1.429 . S
C2451 C2447 1.429 . S
C2451 C2452 1.523 . S
C2452 C2436 1.368 . S
C2452 C2448 1.368 . S
C2452 C2451 1.523 . S
H2453 C2428 0.950 . S
H2454 C2430 0.950 . S
H2455 C2431 0.949 . S
H2456 C2433 0.950 . S
H2457 C2435 0.950 . S
C2458 C2459 1.349 . S
C2458 C2460 1.327 . S
C2458 H2483 0.950 . S
C2459 C2458 1.349 . S
C2459 C2475 1.349 . S
C2460 C2458 1.327 . S
C2460 C2479 1.429 . S
C2460 H2484 0.950 . S
C2461 C2478 1.574 . S
C2461 C2480 1.368 . S
C2461 H2485 0.949 . S
H2462 C2466 0.949 . S
C2463 C2464 1.349 . S
C2463 C2465 1.327 . S
C2463 H2486 0.950 . S
C2464 C2463 1.349 . S
C2464 C2476 1.349 . S
C2465 C2463 1.327 . S
C2465 C2481 1.429 . S
C2465 H2487 0.950 . S
C2466 H2462 0.949 . S
C2466 C2474 1.574 . S
C2466 C2482 1.368 . S
H2467 C2475 0.950 . S
H2468 C2473 0.950 . S
H2469 C2474 0.949 . S
H2470 C2476 0.950 . S
H2471 C2477 0.950 . S
H2472 C2478 0.949 . S
C2473 H2468 0.950 . S
C2473 C2475 1.327 . S
C2473 C2479 1.429 . S
C2474 C2466 1.574 . S
C2474 H2469 0.949 . S
C2474 C2480 1.368 . S
C2475 C2459 1.349 . S
C2475 H2467 0.950 . S
C2475 C2473 1.327 . S
C2476 C2464 1.349 . S
C2476 H2470 0.950 . S
C2476 C2477 1.327 . S
C2477 H2471 0.950 . S
C2477 C2476 1.327 . S
C2477 C2481 1.429 . S
C2478 C2461 1.574 . S
C2478 H2472 0.949 . S
C2478 C2482 1.368 . S
C2479 C2460 1.429 . S
C2479 C2473 1.429 . S
C2479 C2480 1.523 . S
C2480 C2461 1.368 . S
C2480 C2474 1.368 . S
C2480 C2479 1.523 . S
C2481 C2465 1.429 . S
C2481 C2477 1.429 . S
C2481 C2482 1.523 . S
C2482 C2466 1.368 . S
C2482 C2478 1.368 . S
C2482 C2481 1.523 . S
H2483 C2458 0.950 . S
H2484 C2460 0.950 . S
H2485 C2461 0.949 . S
H2486 C2463 0.950 . S
H2487 C2465 0.950 . S
C2488 C2489 1.349 . S
C2488 C2490 1.327 . S
C2488 H2513 0.950 . S
C2489 C2488 1.349 . S
C2489 C2505 1.349 . S
C2490 C2488 1.327 . S
C2490 C2509 1.429 . S
C2490 H2514 0.950 . S
C2491 C2508 1.574 . S
C2491 C2510 1.368 . S
C2491 H2515 0.949 . S
H2492 C2496 0.949 . S
C2493 C2494 1.349 . S
C2493 C2495 1.327 . S
C2493 H2516 0.950 . S
C2494 C2493 1.349 . S
C2494 C2506 1.349 . S
C2495 C2493 1.327 . S
C2495 C2511 1.429 . S
C2495 H2517 0.950 . S
C2496 H2492 0.949 . S
C2496 C2504 1.574 . S
C2496 C2512 1.368 . S
H2497 C2505 0.950 . S
H2498 C2503 0.950 . S
H2499 C2504 0.949 . S
H2500 C2506 0.950 . S
H2501 C2507 0.950 . S
H2502 C2508 0.949 . S
C2503 H2498 0.950 . S
C2503 C2505 1.327 . S
C2503 C2509 1.429 . S
C2504 C2496 1.574 . S
C2504 H2499 0.949 . S
C2504 C2510 1.368 . S
C2505 C2489 1.349 . S
C2505 H2497 0.950 . S
C2505 C2503 1.327 . S
C2506 C2494 1.349 . S
C2506 H2500 0.950 . S
C2506 C2507 1.327 . S
C2507 H2501 0.950 . S
C2507 C2506 1.327 . S
C2507 C2511 1.429 . S
C2508 C2491 1.574 . S
C2508 H2502 0.949 . S
C2508 C2512 1.368 . S
C2509 C2490 1.429 . S
C2509 C2503 1.429 . S
C2509 C2510 1.523 . S
C2510 C2491 1.368 . S
C2510 C2504 1.368 . S
C2510 C2509 1.523 . S
C2511 C2495 1.429 . S
C2511 C2507 1.429 . S
C2511 C2512 1.523 . S
C2512 C2496 1.368 . S
C2512 C2508 1.368 . S
C2512 C2511 1.523 . S
H2513 C2488 0.950 . S
H2514 C2490 0.950 . S
H2515 C2491 0.949 . S
H2516 C2493 0.950 . S
H2517 C2495 0.950 . S
C2518 C2519 1.349 . S
C2518 C2520 1.327 . S
C2518 H2543 0.950 . S
C2519 C2518 1.349 . S
C2519 C2535 1.349 1_565 S
C2520 C2518 1.327 . S
C2520 C2539 1.429 . S
C2520 H2544 0.950 . S
C2521 C2538 1.574 . S
C2521 C2540 1.368 . S
C2521 H2545 0.949 . S
H2522 C2526 0.949 . S
C2523 C2524 1.349 . S
C2523 C2525 1.327 . S
C2523 H2546 0.950 . S
C2524 C2523 1.349 . S
C2524 C2536 1.349 . S
C2525 C2523 1.327 . S
C2525 C2541 1.429 . S
C2525 H2547 0.950 . S
C2526 H2522 0.949 . S
C2526 C2534 1.574 . S
C2526 C2542 1.368 . S
H2527 C2535 0.950 . S
H2528 C2533 0.950 . S
H2529 C2534 0.949 . S
H2530 C2536 0.950 . S
H2531 C2537 0.950 . S
H2532 C2538 0.949 . S
C2533 H2528 0.950 . S
C2533 C2535 1.327 1_565 S
C2533 C2539 1.429 . S
C2534 C2526 1.574 . S
C2534 H2529 0.949 . S
C2534 C2540 1.368 . S
C2535 C2519 1.349 1_545 S
C2535 H2527 0.950 . S
C2535 C2533 1.327 1_545 S
C2536 C2524 1.349 . S
C2536 H2530 0.950 . S
C2536 C2537 1.327 . S
C2537 H2531 0.950 . S
C2537 C2536 1.327 . S
C2537 C2541 1.429 . S
C2538 C2521 1.574 . S
C2538 H2532 0.949 . S
C2538 C2542 1.368 . S
C2539 C2520 1.429 . S
C2539 C2533 1.429 . S
C2539 C2540 1.523 . S
C2540 C2521 1.368 . S
C2540 C2534 1.368 . S
C2540 C2539 1.523 . S
C2541 C2525 1.429 . S
C2541 C2537 1.429 . S
C2541 C2542 1.523 . S
C2542 C2526 1.368 . S
C2542 C2538 1.368 . S
C2542 C2541 1.523 . S
H2543 C2518 0.950 . S
H2544 C2520 0.950 . S
H2545 C2521 0.949 . S
H2546 C2523 0.950 . S
H2547 C2525 0.950 . S
C2548 C2549 1.349 . S
C2548 C2550 1.327 . S
C2548 H2573 0.950 . S
C2549 C2548 1.349 . S
C2549 C2565 1.349 . S
C2550 C2548 1.327 . S
C2550 C2569 1.429 . S
C2550 H2574 0.950 . S
C2551 C2568 1.574 . S
C2551 C2570 1.368 . S
C2551 H2575 0.949 . S
H2552 C2556 0.949 . S
C2553 C2554 1.349 . S
C2553 C2555 1.327 . S
C2553 H2576 0.950 1_565 S
C2554 C2553 1.349 . S
C2554 C2566 1.349 . S
C2555 C2553 1.327 . S
C2555 C2571 1.429 . S
C2555 H2577 0.950 . S
C2556 H2552 0.949 . S
C2556 C2564 1.574 . S
C2556 C2572 1.368 . S
H2557 C2565 0.950 . S
H2558 C2563 0.950 . S
H2559 C2564 0.949 . S
H2560 C2566 0.950 . S
H2561 C2567 0.950 . S
H2562 C2568 0.949 . S
C2563 H2558 0.950 . S
C2563 C2565 1.327 . S
C2563 C2569 1.429 . S
C2564 C2556 1.574 . S
C2564 H2559 0.949 . S
C2564 C2570 1.368 . S
C2565 C2549 1.349 . S
C2565 H2557 0.950 . S
C2565 C2563 1.327 . S
C2566 C2554 1.349 . S
C2566 H2560 0.950 . S
C2566 C2567 1.327 . S
C2567 H2561 0.950 . S
C2567 C2566 1.327 . S
C2567 C2571 1.429 . S
C2568 C2551 1.574 . S
C2568 H2562 0.949 . S
C2568 C2572 1.368 . S
C2569 C2550 1.429 . S
C2569 C2563 1.429 . S
C2569 C2570 1.523 . S
C2570 C2551 1.368 . S
C2570 C2564 1.368 . S
C2570 C2569 1.523 . S
C2571 C2555 1.429 . S
C2571 C2567 1.429 . S
C2571 C2572 1.523 . S
C2572 C2556 1.368 . S
C2572 C2568 1.368 . S
C2572 C2571 1.523 . S
H2573 C2548 0.950 . S
H2574 C2550 0.950 . S
H2575 C2551 0.949 . S
H2576 C2553 0.950 1_545 S
H2577 C2555 0.950 . S
C2578 C2579 1.349 . S
C2578 C2580 1.327 . S
C2578 H2603 0.950 . S
C2579 C2578 1.349 . S
C2579 C2595 1.349 . S
C2580 C2578 1.327 . S
C2580 C2599 1.429 . S
C2580 H2604 0.950 . S
C2581 C2598 1.574 . S
C2581 C2600 1.368 . S
C2581 H2605 0.949 . S
H2582 C2586 0.949 . S
C2583 C2584 1.349 . S
C2583 C2585 1.327 . S
C2583 H2606 0.950 1_545 S
C2584 C2583 1.349 . S
C2584 C2596 1.349 . S
C2585 C2583 1.327 . S
C2585 C2601 1.429 . S
C2585 H2607 0.950 . S
C2586 H2582 0.949 . S
C2586 C2594 1.574 . S
C2586 C2602 1.368 . S
H2587 C2595 0.950 . S
H2588 C2593 0.950 . S
H2589 C2594 0.949 . S
H2590 C2596 0.950 . S
H2591 C2597 0.950 . S
H2592 C2598 0.949 . S
C2593 H2588 0.950 . S
C2593 C2595 1.327 . S
C2593 C2599 1.429 . S
C2594 C2586 1.574 . S
C2594 H2589 0.949 . S
C2594 C2600 1.368 . S
C2595 C2579 1.349 . S
C2595 H2587 0.950 . S
C2595 C2593 1.327 . S
C2596 C2584 1.349 . S
C2596 H2590 0.950 . S
C2596 C2597 1.327 . S
C2597 H2591 0.950 . S
C2597 C2596 1.327 . S
C2597 C2601 1.429 . S
C2598 C2581 1.574 . S
C2598 H2592 0.949 . S
C2598 C2602 1.368 . S
C2599 C2580 1.429 . S
C2599 C2593 1.429 . S
C2599 C2600 1.523 . S
C2600 C2581 1.368 . S
C2600 C2594 1.368 . S
C2600 C2599 1.523 . S
C2601 C2585 1.429 . S
C2601 C2597 1.429 . S
C2601 C2602 1.523 . S
C2602 C2586 1.368 . S
C2602 C2598 1.368 . S
C2602 C2601 1.523 . S
H2603 C2578 0.950 . S
H2604 C2580 0.950 . S
H2605 C2581 0.949 . S
H2606 C2583 0.950 1_565 S
H2607 C2585 0.950 . S
C2608 C2609 1.349 . S
C2608 C2610 1.327 . S
C2608 H2633 0.950 . S
C2609 C2608 1.349 . S
C2609 C2625 1.349 . S
C2610 C2608 1.327 . S
C2610 C2629 1.429 . S
C2610 H2634 0.950 . S
C2611 C2628 1.574 . S
C2611 C2630 1.368 . S
C2611 H2635 0.949 . S
H2612 C2616 0.949 . S
C2613 C2614 1.349 . S
C2613 C2615 1.327 . S
C2613 H2636 0.950 . S
C2614 C2613 1.349 . S
C2614 C2626 1.349 . S
C2615 C2613 1.327 . S
C2615 C2631 1.429 . S
C2615 H2637 0.950 . S
C2616 H2612 0.949 . S
C2616 C2624 1.574 . S
C2616 C2632 1.368 . S
H2617 C2625 0.950 . S
H2618 C2623 0.950 . S
H2619 C2624 0.949 . S
H2620 C2626 0.950 . S
H2621 C2627 0.950 . S
H2622 C2628 0.949 . S
C2623 H2618 0.950 . S
C2623 C2625 1.327 . S
C2623 C2629 1.429 . S
C2624 C2616 1.574 . S
C2624 H2619 0.949 . S
C2624 C2630 1.368 . S
C2625 C2609 1.349 . S
C2625 H2617 0.950 . S
C2625 C2623 1.327 . S
C2626 C2614 1.349 . S
C2626 H2620 0.950 . S
C2626 C2627 1.327 . S
C2627 H2621 0.950 . S
C2627 C2626 1.327 . S
C2627 C2631 1.429 . S
C2628 C2611 1.574 . S
C2628 H2622 0.949 . S
C2628 C2632 1.368 . S
C2629 C2610 1.429 . S
C2629 C2623 1.429 . S
C2629 C2630 1.523 . S
C2630 C2611 1.368 . S
C2630 C2624 1.368 . S
C2630 C2629 1.523 . S
C2631 C2615 1.429 . S
C2631 C2627 1.429 . S
C2631 C2632 1.523 . S
C2632 C2616 1.368 . S
C2632 C2628 1.368 . S
C2632 C2631 1.523 . S
H2633 C2608 0.950 . S
H2634 C2610 0.950 . S
H2635 C2611 0.949 . S
H2636 C2613 0.950 . S
H2637 C2615 0.950 . S
C2638 C2639 1.349 . S
C2638 C2640 1.327 . S
C2638 H2663 0.950 . S
C2639 C2638 1.349 . S
C2639 C2655 1.349 . S
C2640 C2638 1.327 . S
C2640 C2659 1.429 . S
C2640 H2664 0.950 . S
C2641 C2658 1.574 . S
C2641 C2660 1.368 . S
C2641 H2665 0.949 . S
H2642 C2646 0.949 . S
C2643 C2644 1.349 . S
C2643 C2645 1.327 . S
C2643 H2666 0.950 . S
C2644 C2643 1.349 . S
C2644 C2656 1.349 . S
C2645 C2643 1.327 . S
C2645 C2661 1.429 . S
C2645 H2667 0.950 . S
C2646 H2642 0.949 . S
C2646 C2654 1.574 . S
C2646 C2662 1.368 . S
H2647 C2655 0.950 . S
H2648 C2653 0.950 . S
H2649 C2654 0.949 . S
H2650 C2656 0.950 . S
H2651 C2657 0.950 . S
H2652 C2658 0.949 . S
C2653 H2648 0.950 . S
C2653 C2655 1.327 . S
C2653 C2659 1.429 . S
C2654 C2646 1.574 . S
C2654 H2649 0.949 . S
C2654 C2660 1.368 . S
C2655 C2639 1.349 . S
C2655 H2647 0.950 . S
C2655 C2653 1.327 . S
C2656 C2644 1.349 . S
C2656 H2650 0.950 . S
C2656 C2657 1.327 . S
C2657 H2651 0.950 . S
C2657 C2656 1.327 . S
C2657 C2661 1.429 . S
C2658 C2641 1.574 . S
C2658 H2652 0.949 . S
C2658 C2662 1.368 . S
C2659 C2640 1.429 . S
C2659 C2653 1.429 . S
C2659 C2660 1.523 . S
C2660 C2641 1.368 . S
C2660 C2654 1.368 . S
C2660 C2659 1.523 . S
C2661 C2645 1.429 . S
C2661 C2657 1.429 . S
C2661 C2662 1.523 . S
C2662 C2646 1.368 . S
C2662 C2658 1.368 . S
C2662 C2661 1.523 . S
H2663 C2638 0.950 . S
H2664 C2640 0.950 . S
H2665 C2641 0.949 . S
H2666 C2643 0.950 . S
H2667 C2645 0.950 . S
C2668 C2669 1.349 . S
C2668 C2670 1.327 . S
C2668 H2693 0.950 . S
C2669 C2668 1.349 . S
C2669 C2685 1.349 . S
C2670 C2668 1.327 . S
C2670 C2689 1.429 . S
C2670 H2694 0.950 . S
C2671 C2688 1.574 . S
C2671 C2690 1.368 . S
C2671 H2695 0.949 . S
H2672 C2676 0.949 . S
C2673 C2674 1.349 . S
C2673 C2675 1.327 . S
C2673 H2696 0.950 . S
C2674 C2673 1.349 . S
C2674 C2686 1.349 . S
C2675 C2673 1.327 . S
C2675 C2691 1.429 . S
C2675 H2697 0.950 . S
C2676 H2672 0.949 . S
C2676 C2684 1.574 . S
C2676 C2692 1.368 . S
H2677 C2685 0.950 . S
H2678 C2683 0.950 . S
H2679 C2684 0.949 . S
H2680 C2686 0.950 . S
H2681 C2687 0.950 . S
H2682 C2688 0.949 . S
C2683 H2678 0.950 . S
C2683 C2685 1.327 . S
C2683 C2689 1.429 . S
C2684 C2676 1.574 . S
C2684 H2679 0.949 . S
C2684 C2690 1.368 . S
C2685 C2669 1.349 . S
C2685 H2677 0.950 . S
C2685 C2683 1.327 . S
C2686 C2674 1.349 . S
C2686 H2680 0.950 . S
C2686 C2687 1.327 . S
C2687 H2681 0.950 . S
C2687 C2686 1.327 . S
C2687 C2691 1.429 . S
C2688 C2671 1.574 . S
C2688 H2682 0.949 . S
C2688 C2692 1.368 . S
C2689 C2670 1.429 . S
C2689 C2683 1.429 . S
C2689 C2690 1.523 . S
C2690 C2671 1.368 . S
C2690 C2684 1.368 . S
C2690 C2689 1.523 . S
C2691 C2675 1.429 . S
C2691 C2687 1.429 . S
C2691 C2692 1.523 . S
C2692 C2676 1.368 . S
C2692 C2688 1.368 . S
C2692 C2691 1.523 . S
H2693 C2668 0.950 . S
H2694 C2670 0.950 . S
H2695 C2671 0.949 . S
H2696 C2673 0.950 . S
H2697 C2675 0.950 . S
C2698 C2699 1.349 . S
C2698 C2700 1.327 . S
C2698 H2723 0.950 . S
C2699 C2698 1.349 . S
C2699 C2715 1.349 . S
C2700 C2698 1.327 . S
C2700 C2719 1.429 . S
C2700 H2724 0.950 . S
C2701 C2718 1.574 . S
C2701 C2720 1.368 . S
C2701 H2725 0.949 . S
H2702 C2706 0.949 . S
C2703 C2704 1.349 . S
C2703 C2705 1.327 . S
C2703 H2726 0.950 . S
C2704 C2703 1.349 . S
C2704 C2716 1.349 . S
C2705 C2703 1.327 . S
C2705 C2721 1.429 . S
C2705 H2727 0.950 . S
C2706 H2702 0.949 . S
C2706 C2714 1.574 . S
C2706 C2722 1.368 . S
H2707 C2715 0.950 . S
H2708 C2713 0.950 . S
H2709 C2714 0.949 . S
H2710 C2716 0.950 . S
H2711 C2717 0.950 . S
H2712 C2718 0.949 . S
C2713 H2708 0.950 . S
C2713 C2715 1.327 . S
C2713 C2719 1.429 . S
C2714 C2706 1.574 . S
C2714 H2709 0.949 . S
C2714 C2720 1.368 . S
C2715 C2699 1.349 . S
C2715 H2707 0.950 . S
C2715 C2713 1.327 . S
C2716 C2704 1.349 . S
C2716 H2710 0.950 . S
C2716 C2717 1.327 . S
C2717 H2711 0.950 . S
C2717 C2716 1.327 . S
C2717 C2721 1.429 . S
C2718 C2701 1.574 . S
C2718 H2712 0.949 . S
C2718 C2722 1.368 . S
C2719 C2700 1.429 . S
C2719 C2713 1.429 . S
C2719 C2720 1.523 . S
C2720 C2701 1.368 . S
C2720 C2714 1.368 . S
C2720 C2719 1.523 . S
C2721 C2705 1.429 . S
C2721 C2717 1.429 . S
C2721 C2722 1.523 . S
C2722 C2706 1.368 . S
C2722 C2718 1.368 . S
C2722 C2721 1.523 . S
H2723 C2698 0.950 . S
H2724 C2700 0.950 . S
H2725 C2701 0.949 . S
H2726 C2703 0.950 . S
H2727 C2705 0.950 . S
C2728 C2729 1.349 . S
C2728 C2730 1.327 . S
C2728 H2753 0.950 . S
C2729 C2728 1.349 . S
C2729 C2745 1.349 . S
C2730 C2728 1.327 . S
C2730 C2749 1.429 . S
C2730 H2754 0.950 . S
C2731 C2748 1.574 . S
C2731 C2750 1.368 . S
C2731 H2755 0.949 . S
H2732 C2736 0.949 . S
C2733 C2734 1.349 . S
C2733 C2735 1.327 . S
C2733 H2756 0.950 . S
C2734 C2733 1.349 . S
C2734 C2746 1.349 . S
C2735 C2733 1.327 . S
C2735 C2751 1.429 . S
C2735 H2757 0.950 . S
C2736 H2732 0.949 . S
C2736 C2744 1.574 . S
C2736 C2752 1.368 . S
H2737 C2745 0.950 . S
H2738 C2743 0.950 . S
H2739 C2744 0.949 . S
H2740 C2746 0.950 . S
H2741 C2747 0.950 . S
H2742 C2748 0.949 . S
C2743 H2738 0.950 . S
C2743 C2745 1.327 . S
C2743 C2749 1.429 . S
C2744 C2736 1.574 . S
C2744 H2739 0.949 . S
C2744 C2750 1.368 . S
C2745 C2729 1.349 . S
C2745 H2737 0.950 . S
C2745 C2743 1.327 . S
C2746 C2734 1.349 . S
C2746 H2740 0.950 . S
C2746 C2747 1.327 . S
C2747 H2741 0.950 . S
C2747 C2746 1.327 . S
C2747 C2751 1.429 . S
C2748 C2731 1.574 . S
C2748 H2742 0.949 . S
C2748 C2752 1.368 . S
C2749 C2730 1.429 . S
C2749 C2743 1.429 . S
C2749 C2750 1.523 . S
C2750 C2731 1.368 . S
C2750 C2744 1.368 . S
C2750 C2749 1.523 . S
C2751 C2735 1.429 . S
C2751 C2747 1.429 . S
C2751 C2752 1.523 . S
C2752 C2736 1.368 . S
C2752 C2748 1.368 . S
C2752 C2751 1.523 . S
H2753 C2728 0.950 . S
H2754 C2730 0.950 . S
H2755 C2731 0.949 . S
H2756 C2733 0.950 . S
H2757 C2735 0.950 . S
C2758 C2759 1.349 . S
C2758 C2760 1.327 . S
C2758 H2783 0.950 . S
C2759 C2758 1.349 . S
C2759 C2775 1.349 . S
C2760 C2758 1.327 . S
C2760 C2779 1.429 . S
C2760 H2784 0.950 . S
C2761 C2778 1.574 . S
C2761 C2780 1.368 . S
C2761 H2785 0.949 . S
H2762 C2766 0.949 . S
C2763 C2764 1.349 . S
C2763 C2765 1.327 . S
C2763 H2786 0.950 . S
C2764 C2763 1.349 . S
C2764 C2776 1.349 . S
C2765 C2763 1.327 . S
C2765 C2781 1.429 . S
C2765 H2787 0.950 . S
C2766 H2762 0.949 . S
C2766 C2774 1.574 . S
C2766 C2782 1.368 . S
H2767 C2775 0.950 . S
H2768 C2773 0.950 . S
H2769 C2774 0.949 . S
H2770 C2776 0.950 . S
H2771 C2777 0.950 . S
H2772 C2778 0.949 . S
C2773 H2768 0.950 . S
C2773 C2775 1.327 . S
C2773 C2779 1.429 . S
C2774 C2766 1.574 . S
C2774 H2769 0.949 . S
C2774 C2780 1.368 . S
C2775 C2759 1.349 . S
C2775 H2767 0.950 . S
C2775 C2773 1.327 . S
C2776 C2764 1.349 . S
C2776 H2770 0.950 . S
C2776 C2777 1.327 . S
C2777 H2771 0.950 . S
C2777 C2776 1.327 . S
C2777 C2781 1.429 . S
C2778 C2761 1.574 . S
C2778 H2772 0.949 . S
C2778 C2782 1.368 . S
C2779 C2760 1.429 . S
C2779 C2773 1.429 . S
C2779 C2780 1.523 . S
C2780 C2761 1.368 . S
C2780 C2774 1.368 . S
C2780 C2779 1.523 . S
C2781 C2765 1.429 . S
C2781 C2777 1.429 . S
C2781 C2782 1.523 . S
C2782 C2766 1.368 . S
C2782 C2778 1.368 . S
C2782 C2781 1.523 . S
H2783 C2758 0.950 . S
H2784 C2760 0.950 . S
H2785 C2761 0.949 . S
H2786 C2763 0.950 . S
H2787 C2765 0.950 . S
C2788 C2789 1.349 . S
C2788 C2790 1.327 . S
C2788 H2813 0.950 . S
C2789 C2788 1.349 . S
C2789 C2805 1.349 . S
C2790 C2788 1.327 . S
C2790 C2809 1.429 . S
C2790 H2814 0.950 . S
C2791 C2808 1.574 . S
C2791 C2810 1.368 . S
C2791 H2815 0.949 . S
H2792 C2796 0.949 . S
C2793 C2794 1.349 . S
C2793 C2795 1.327 . S
C2793 H2816 0.950 . S
C2794 C2793 1.349 . S
C2794 C2806 1.349 . S
C2795 C2793 1.327 . S
C2795 C2811 1.429 . S
C2795 H2817 0.950 . S
C2796 H2792 0.949 . S
C2796 C2804 1.574 . S
C2796 C2812 1.368 . S
H2797 C2805 0.950 . S
H2798 C2803 0.950 . S
H2799 C2804 0.949 . S
H2800 C2806 0.950 . S
H2801 C2807 0.950 . S
H2802 C2808 0.949 . S
C2803 H2798 0.950 . S
C2803 C2805 1.327 . S
C2803 C2809 1.429 . S
C2804 C2796 1.574 . S
C2804 H2799 0.949 . S
C2804 C2810 1.368 . S
C2805 C2789 1.349 . S
C2805 H2797 0.950 . S
C2805 C2803 1.327 . S
C2806 C2794 1.349 . S
C2806 H2800 0.950 . S
C2806 C2807 1.327 . S
C2807 H2801 0.950 . S
C2807 C2806 1.327 . S
C2807 C2811 1.429 . S
C2808 C2791 1.574 . S
C2808 H2802 0.949 . S
C2808 C2812 1.368 . S
C2809 C2790 1.429 . S
C2809 C2803 1.429 . S
C2809 C2810 1.523 . S
C2810 C2791 1.368 . S
C2810 C2804 1.368 . S
C2810 C2809 1.523 . S
C2811 C2795 1.429 . S
C2811 C2807 1.429 . S
C2811 C2812 1.523 . S
C2812 C2796 1.368 . S
C2812 C2808 1.368 . S
C2812 C2811 1.523 . S
H2813 C2788 0.950 . S
H2814 C2790 0.950 . S
H2815 C2791 0.949 . S
H2816 C2793 0.950 . S
H2817 C2795 0.950 . S
C2818 C2819 1.349 . S
C2818 C2820 1.327 . S
C2818 H2843 0.950 . S
C2819 C2818 1.349 . S
C2819 C2835 1.349 . S
C2820 C2818 1.327 . S
C2820 C2839 1.429 . S
C2820 H2844 0.950 . S
C2821 C2838 1.574 . S
C2821 C2840 1.368 . S
C2821 H2845 0.949 . S
H2822 C2826 0.949 . S
C2823 C2824 1.349 . S
C2823 C2825 1.327 . S
C2823 H2846 0.950 . S
C2824 C2823 1.349 . S
C2824 C2836 1.349 . S
C2825 C2823 1.327 . S
C2825 C2841 1.429 . S
C2825 H2847 0.950 . S
C2826 H2822 0.949 . S
C2826 C2834 1.574 . S
C2826 C2842 1.368 . S
H2827 C2835 0.950 . S
H2828 C2833 0.950 . S
H2829 C2834 0.949 . S
H2830 C2836 0.950 . S
H2831 C2837 0.950 . S
H2832 C2838 0.949 . S
C2833 H2828 0.950 . S
C2833 C2835 1.327 . S
C2833 C2839 1.429 . S
C2834 C2826 1.574 . S
C2834 H2829 0.949 . S
C2834 C2840 1.368 . S
C2835 C2819 1.349 . S
C2835 H2827 0.950 . S
C2835 C2833 1.327 . S
C2836 C2824 1.349 . S
C2836 H2830 0.950 . S
C2836 C2837 1.327 . S
C2837 H2831 0.950 . S
C2837 C2836 1.327 . S
C2837 C2841 1.429 . S
C2838 C2821 1.574 . S
C2838 H2832 0.949 . S
C2838 C2842 1.368 . S
C2839 C2820 1.429 . S
C2839 C2833 1.429 . S
C2839 C2840 1.523 . S
C2840 C2821 1.368 . S
C2840 C2834 1.368 . S
C2840 C2839 1.523 . S
C2841 C2825 1.429 . S
C2841 C2837 1.429 . S
C2841 C2842 1.523 . S
C2842 C2826 1.368 . S
C2842 C2838 1.368 . S
C2842 C2841 1.523 . S
H2843 C2818 0.950 . S
H2844 C2820 0.950 . S
H2845 C2821 0.949 . S
H2846 C2823 0.950 . S
H2847 C2825 0.950 . S
C2848 C2849 1.349 . S
C2848 C2850 1.327 . S
C2848 H2873 0.950 . S
C2849 C2848 1.349 . S
C2849 C2865 1.349 . S
C2850 C2848 1.327 . S
C2850 C2869 1.429 . S
C2850 H2874 0.950 . S
C2851 C2868 1.574 . S
C2851 C2870 1.368 . S
C2851 H2875 0.949 . S
H2852 C2856 0.949 . S
C2853 C2854 1.349 . S
C2853 C2855 1.327 . S
C2853 H2876 0.950 . S
C2854 C2853 1.349 . S
C2854 C2866 1.349 . S
C2855 C2853 1.327 . S
C2855 C2871 1.429 . S
C2855 H2877 0.950 . S
C2856 H2852 0.949 . S
C2856 C2864 1.574 . S
C2856 C2872 1.368 . S
H2857 C2865 0.950 . S
H2858 C2863 0.950 . S
H2859 C2864 0.949 . S
H2860 C2866 0.950 . S
H2861 C2867 0.950 . S
H2862 C2868 0.949 . S
C2863 H2858 0.950 . S
C2863 C2865 1.327 . S
C2863 C2869 1.429 . S
C2864 C2856 1.574 . S
C2864 H2859 0.949 . S
C2864 C2870 1.368 . S
C2865 C2849 1.349 . S
C2865 H2857 0.950 . S
C2865 C2863 1.327 . S
C2866 C2854 1.349 . S
C2866 H2860 0.950 . S
C2866 C2867 1.327 . S
C2867 H2861 0.950 . S
C2867 C2866 1.327 . S
C2867 C2871 1.429 . S
C2868 C2851 1.574 . S
C2868 H2862 0.949 . S
C2868 C2872 1.368 . S
C2869 C2850 1.429 . S
C2869 C2863 1.429 . S
C2869 C2870 1.523 . S
C2870 C2851 1.368 . S
C2870 C2864 1.368 . S
C2870 C2869 1.523 . S
C2871 C2855 1.429 . S
C2871 C2867 1.429 . S
C2871 C2872 1.523 . S
C2872 C2856 1.368 . S
C2872 C2868 1.368 . S
C2872 C2871 1.523 . S
H2873 C2848 0.950 . S
H2874 C2850 0.950 . S
H2875 C2851 0.949 . S
H2876 C2853 0.950 . S
H2877 C2855 0.950 . S
C2878 C2879 1.349 . S
C2878 C2880 1.327 . S
C2878 H2903 0.950 . S
C2879 C2878 1.349 . S
C2879 C2895 1.349 . S
C2880 C2878 1.327 . S
C2880 C2899 1.429 . S
C2880 H2904 0.950 . S
C2881 C2898 1.574 . S
C2881 C2900 1.368 . S
C2881 H2905 0.949 . S
H2882 C2886 0.949 . S
C2883 C2884 1.349 1_455 S
C2883 C2885 1.327 . S
C2883 H2906 0.950 . S
C2884 C2883 1.349 1_655 S
C2884 C2896 1.349 . S
C2885 C2883 1.327 . S
C2885 C2901 1.429 . S
C2885 H2907 0.950 . S
C2886 H2882 0.949 . S
C2886 C2894 1.574 . S
C2886 C2902 1.368 . S
H2887 C2895 0.950 . S
H2888 C2893 0.950 . S
H2889 C2894 0.949 . S
H2890 C2896 0.950 . S
H2891 C2897 0.950 . S
H2892 C2898 0.949 . S
C2893 H2888 0.950 . S
C2893 C2895 1.327 . S
C2893 C2899 1.429 . S
C2894 C2886 1.574 . S
C2894 H2889 0.949 . S
C2894 C2900 1.368 . S
C2895 C2879 1.349 . S
C2895 H2887 0.950 . S
C2895 C2893 1.327 . S
C2896 C2884 1.349 . S
C2896 H2890 0.950 . S
C2896 C2897 1.327 1_655 S
C2897 H2891 0.950 . S
C2897 C2896 1.327 1_455 S
C2897 C2901 1.429 . S
C2898 C2881 1.574 . S
C2898 H2892 0.949 . S
C2898 C2902 1.368 . S
C2899 C2880 1.429 . S
C2899 C2893 1.429 . S
C2899 C2900 1.523 . S
C2900 C2881 1.368 . S
C2900 C2894 1.368 . S
C2900 C2899 1.523 . S
C2901 C2885 1.429 . S
C2901 C2897 1.429 . S
C2901 C2902 1.523 . S
C2902 C2886 1.368 . S
C2902 C2898 1.368 . S
C2902 C2901 1.523 . S
H2903 C2878 0.950 . S
H2904 C2880 0.950 . S
H2905 C2881 0.949 . S
H2906 C2883 0.950 . S
H2907 C2885 0.950 . S
C2908 C2909 1.349 . S
C2908 C2910 1.327 . S
C2908 H2933 0.950 . S
C2909 C2908 1.349 . S
C2909 C2925 1.349 . S
C2910 C2908 1.327 . S
C2910 C2929 1.429 . S
C2910 H2934 0.950 . S
C2911 C2928 1.574 . S
C2911 C2930 1.368 . S
C2911 H2935 0.949 . S
H2912 C2916 0.949 . S
C2913 C2914 1.349 . S
C2913 C2915 1.327 . S
C2913 H2936 0.950 . S
C2914 C2913 1.349 . S
C2914 C2926 1.349 . S
C2915 C2913 1.327 . S
C2915 C2931 1.429 . S
C2915 H2937 0.950 . S
C2916 H2912 0.949 . S
C2916 C2924 1.574 . S
C2916 C2932 1.368 . S
H2917 C2925 0.950 . S
H2918 C2923 0.950 . S
H2919 C2924 0.949 . S
H2920 C2926 0.950 . S
H2921 C2927 0.950 . S
H2922 C2928 0.949 . S
C2923 H2918 0.950 . S
C2923 C2925 1.327 . S
C2923 C2929 1.429 . S
C2924 C2916 1.574 . S
C2924 H2919 0.949 . S
C2924 C2930 1.368 . S
C2925 C2909 1.349 . S
C2925 H2917 0.950 . S
C2925 C2923 1.327 . S
C2926 C2914 1.349 . S
C2926 H2920 0.950 . S
C2926 C2927 1.327 . S
C2927 H2921 0.950 . S
C2927 C2926 1.327 . S
C2927 C2931 1.429 . S
C2928 C2911 1.574 . S
C2928 H2922 0.949 . S
C2928 C2932 1.368 . S
C2929 C2910 1.429 . S
C2929 C2923 1.429 . S
C2929 C2930 1.523 . S
C2930 C2911 1.368 . S
C2930 C2924 1.368 . S
C2930 C2929 1.523 . S
C2931 C2915 1.429 . S
C2931 C2927 1.429 . S
C2931 C2932 1.523 . S
C2932 C2916 1.368 . S
C2932 C2928 1.368 . S
C2932 C2931 1.523 . S
H2933 C2908 0.950 . S
H2934 C2910 0.950 . S
H2935 C2911 0.949 . S
H2936 C2913 0.950 . S
H2937 C2915 0.950 . S
C2938 C2939 1.349 . S
C2938 C2940 1.327 . S
C2938 H2963 0.950 . S
C2939 C2938 1.349 . S
C2939 C2955 1.349 . S
C2940 C2938 1.327 . S
C2940 C2959 1.429 . S
C2940 H2964 0.950 . S
C2941 C2958 1.574 . S
C2941 C2960 1.368 . S
C2941 H2965 0.949 . S
H2942 C2946 0.949 . S
C2943 C2944 1.349 . S
C2943 C2945 1.327 . S
C2943 H2966 0.950 . S
C2944 C2943 1.349 . S
C2944 C2956 1.349 . S
C2945 C2943 1.327 . S
C2945 C2961 1.429 . S
C2945 H2967 0.950 . S
C2946 H2942 0.949 . S
C2946 C2954 1.574 . S
C2946 C2962 1.368 . S
H2947 C2955 0.950 . S
H2948 C2953 0.950 . S
H2949 C2954 0.949 . S
H2950 C2956 0.950 . S
H2951 C2957 0.950 . S
H2952 C2958 0.949 . S
C2953 H2948 0.950 . S
C2953 C2955 1.327 . S
C2953 C2959 1.429 . S
C2954 C2946 1.574 . S
C2954 H2949 0.949 . S
C2954 C2960 1.368 . S
C2955 C2939 1.349 . S
C2955 H2947 0.950 . S
C2955 C2953 1.327 . S
C2956 C2944 1.349 . S
C2956 H2950 0.950 . S
C2956 C2957 1.327 . S
C2957 H2951 0.950 . S
C2957 C2956 1.327 . S
C2957 C2961 1.429 . S
C2958 C2941 1.574 . S
C2958 H2952 0.949 . S
C2958 C2962 1.368 . S
C2959 C2940 1.429 . S
C2959 C2953 1.429 . S
C2959 C2960 1.523 . S
C2960 C2941 1.368 . S
C2960 C2954 1.368 . S
C2960 C2959 1.523 . S
C2961 C2945 1.429 . S
C2961 C2957 1.429 . S
C2961 C2962 1.523 . S
C2962 C2946 1.368 . S
C2962 C2958 1.368 . S
C2962 C2961 1.523 . S
H2963 C2938 0.950 . S
H2964 C2940 0.950 . S
H2965 C2941 0.949 . S
H2966 C2943 0.950 . S
H2967 C2945 0.950 . S
C2968 C2969 1.349 . S
C2968 C2970 1.327 . S
C2968 H2993 0.950 . S
C2969 C2968 1.349 . S
C2969 C2985 1.349 . S
C2970 C2968 1.327 . S
C2970 C2989 1.429 . S
C2970 H2994 0.950 . S
C2971 C2988 1.574 . S
C2971 C2990 1.368 . S
C2971 H2995 0.949 . S
H2972 C2976 0.949 . S
C2973 C2974 1.349 . S
C2973 C2975 1.327 . S
C2973 H2996 0.950 . S
C2974 C2973 1.349 . S
C2974 C2986 1.349 . S
C2975 C2973 1.327 . S
C2975 C2991 1.429 . S
C2975 H2997 0.950 . S
C2976 H2972 0.949 . S
C2976 C2984 1.574 . S
C2976 C2992 1.368 . S
H2977 C2985 0.950 . S
H2978 C2983 0.950 . S
H2979 C2984 0.949 . S
H2980 C2986 0.950 . S
H2981 C2987 0.950 . S
H2982 C2988 0.949 . S
C2983 H2978 0.950 . S
C2983 C2985 1.327 . S
C2983 C2989 1.429 . S
C2984 C2976 1.574 . S
C2984 H2979 0.949 . S
C2984 C2990 1.368 . S
C2985 C2969 1.349 . S
C2985 H2977 0.950 . S
C2985 C2983 1.327 . S
C2986 C2974 1.349 . S
C2986 H2980 0.950 . S
C2986 C2987 1.327 . S
C2987 H2981 0.950 . S
C2987 C2986 1.327 . S
C2987 C2991 1.429 . S
C2988 C2971 1.574 . S
C2988 H2982 0.949 . S
C2988 C2992 1.368 . S
C2989 C2970 1.429 . S
C2989 C2983 1.429 . S
C2989 C2990 1.523 . S
C2990 C2971 1.368 . S
C2990 C2984 1.368 . S
C2990 C2989 1.523 . S
C2991 C2975 1.429 . S
C2991 C2987 1.429 . S
C2991 C2992 1.523 . S
C2992 C2976 1.368 . S
C2992 C2988 1.368 . S
C2992 C2991 1.523 . S
H2993 C2968 0.950 . S
H2994 C2970 0.950 . S
H2995 C2971 0.949 . S
H2996 C2973 0.950 . S
H2997 C2975 0.950 . S
C2998 C2999 1.349 . S
C2998 C3000 1.327 . S
C2998 H3023 0.950 . S
C2999 C2998 1.349 . S
C2999 C3015 1.349 . S
C3000 C2998 1.327 . S
C3000 C3019 1.429 . S
C3000 H3024 0.950 . S
C3001 C3018 1.574 . S
C3001 C3020 1.368 . S
C3001 H3025 0.949 . S
H3002 C3006 0.949 . S
C3003 C3004 1.349 . S
C3003 C3005 1.327 . S
C3003 H3026 0.950 . S
C3004 C3003 1.349 . S
C3004 C3016 1.349 . S
C3005 C3003 1.327 . S
C3005 C3021 1.429 . S
C3005 H3027 0.950 . S
C3006 H3002 0.949 . S
C3006 C3014 1.574 . S
C3006 C3022 1.368 . S
H3007 C3015 0.950 . S
H3008 C3013 0.950 . S
H3009 C3014 0.949 . S
H3010 C3016 0.950 . S
H3011 C3017 0.950 . S
H3012 C3018 0.949 . S
C3013 H3008 0.950 . S
C3013 C3015 1.327 . S
C3013 C3019 1.429 . S
C3014 C3006 1.574 . S
C3014 H3009 0.949 . S
C3014 C3020 1.368 . S
C3015 C2999 1.349 . S
C3015 H3007 0.950 . S
C3015 C3013 1.327 . S
C3016 C3004 1.349 . S
C3016 H3010 0.950 . S
C3016 C3017 1.327 . S
C3017 H3011 0.950 . S
C3017 C3016 1.327 . S
C3017 C3021 1.429 . S
C3018 C3001 1.574 . S
C3018 H3012 0.949 . S
C3018 C3022 1.368 . S
C3019 C3000 1.429 . S
C3019 C3013 1.429 . S
C3019 C3020 1.523 . S
C3020 C3001 1.368 . S
C3020 C3014 1.368 . S
C3020 C3019 1.523 . S
C3021 C3005 1.429 . S
C3021 C3017 1.429 . S
C3021 C3022 1.523 . S
C3022 C3006 1.368 . S
C3022 C3018 1.368 . S
C3022 C3021 1.523 . S
H3023 C2998 0.950 . S
H3024 C3000 0.950 . S
H3025 C3001 0.949 . S
H3026 C3003 0.950 . S
H3027 C3005 0.950 . S
C3028 C3029 1.349 . S
C3028 C3030 1.327 . S
C3028 H3053 0.950 . S
C3029 C3028 1.349 . S
C3029 C3045 1.349 . S
C3030 C3028 1.327 . S
C3030 C3049 1.429 . S
C3030 H3054 0.950 . S
C3031 C3048 1.574 . S
C3031 C3050 1.368 . S
C3031 H3055 0.949 . S
H3032 C3036 0.949 . S
C3033 C3034 1.349 . S
C3033 C3035 1.327 . S
C3033 H3056 0.950 . S
C3034 C3033 1.349 . S
C3034 C3046 1.349 . S
C3035 C3033 1.327 . S
C3035 C3051 1.429 . S
C3035 H3057 0.950 . S
C3036 H3032 0.949 . S
C3036 C3044 1.574 . S
C3036 C3052 1.368 . S
H3037 C3045 0.950 . S
H3038 C3043 0.950 . S
H3039 C3044 0.949 . S
H3040 C3046 0.950 . S
H3041 C3047 0.950 . S
H3042 C3048 0.949 . S
C3043 H3038 0.950 . S
C3043 C3045 1.327 . S
C3043 C3049 1.429 . S
C3044 C3036 1.574 . S
C3044 H3039 0.949 . S
C3044 C3050 1.368 . S
C3045 C3029 1.349 . S
C3045 H3037 0.950 . S
C3045 C3043 1.327 . S
C3046 C3034 1.349 . S
C3046 H3040 0.950 . S
C3046 C3047 1.327 . S
C3047 H3041 0.950 . S
C3047 C3046 1.327 . S
C3047 C3051 1.429 . S
C3048 C3031 1.574 . S
C3048 H3042 0.949 . S
C3048 C3052 1.368 . S
C3049 C3030 1.429 . S
C3049 C3043 1.429 . S
C3049 C3050 1.523 . S
C3050 C3031 1.368 . S
C3050 C3044 1.368 . S
C3050 C3049 1.523 . S
C3051 C3035 1.429 . S
C3051 C3047 1.429 . S
C3051 C3052 1.523 . S
C3052 C3036 1.368 . S
C3052 C3048 1.368 . S
C3052 C3051 1.523 . S
H3053 C3028 0.950 . S
H3054 C3030 0.950 . S
H3055 C3031 0.949 . S
H3056 C3033 0.950 . S
H3057 C3035 0.950 . S
C3058 C3059 1.349 . S
C3058 C3060 1.327 . S
C3058 H3083 0.950 . S
C3059 C3058 1.349 . S
C3059 C3075 1.349 . S
C3060 C3058 1.327 . S
C3060 C3079 1.429 . S
C3060 H3084 0.950 . S
C3061 C3078 1.574 . S
C3061 C3080 1.368 . S
C3061 H3085 0.949 . S
H3062 C3066 0.949 . S
C3063 C3064 1.349 . S
C3063 C3065 1.327 1_655 S
C3063 H3086 0.950 . S
C3064 C3063 1.349 . S
C3064 C3076 1.349 . S
C3065 C3063 1.327 1_455 S
C3065 C3081 1.429 . S
C3065 H3087 0.950 . S
C3066 H3062 0.949 . S
C3066 C3074 1.574 . S
C3066 C3082 1.368 . S
H3067 C3075 0.950 . S
H3068 C3073 0.950 . S
H3069 C3074 0.949 . S
H3070 C3076 0.950 . S
H3071 C3077 0.950 . S
H3072 C3078 0.949 . S
C3073 H3068 0.950 . S
C3073 C3075 1.327 . S
C3073 C3079 1.429 . S
C3074 C3066 1.574 . S
C3074 H3069 0.949 . S
C3074 C3080 1.368 . S
C3075 C3059 1.349 . S
C3075 H3067 0.950 . S
C3075 C3073 1.327 . S
C3076 C3064 1.349 . S
C3076 H3070 0.950 . S
C3076 C3077 1.327 1_655 S
C3077 H3071 0.950 . S
C3077 C3076 1.327 1_455 S
C3077 C3081 1.429 . S
C3078 C3061 1.574 . S
C3078 H3072 0.949 . S
C3078 C3082 1.368 . S
C3079 C3060 1.429 . S
C3079 C3073 1.429 . S
C3079 C3080 1.523 . S
C3080 C3061 1.368 . S
C3080 C3074 1.368 . S
C3080 C3079 1.523 . S
C3081 C3065 1.429 . S
C3081 C3077 1.429 . S
C3081 C3082 1.523 . S
C3082 C3066 1.368 . S
C3082 C3078 1.368 . S
C3082 C3081 1.523 . S
H3083 C3058 0.950 . S
H3084 C3060 0.950 . S
H3085 C3061 0.949 . S
H3086 C3063 0.950 . S
H3087 C3065 0.950 . S
C3088 C3089 1.349 . S
C3088 C3090 1.327 . S
C3088 H3113 0.950 . S
C3089 C3088 1.349 . S
C3089 C3105 1.349 . S
C3090 C3088 1.327 . S
C3090 C3109 1.429 . S
C3090 H3114 0.950 . S
C3091 C3108 1.574 . S
C3091 C3110 1.368 . S
C3091 H3115 0.949 . S
H3092 C3096 0.949 . S
C3093 C3094 1.349 . S
C3093 C3095 1.327 . S
C3093 H3116 0.950 . S
C3094 C3093 1.349 . S
C3094 C3106 1.349 . S
C3095 C3093 1.327 . S
C3095 C3111 1.429 . S
C3095 H3117 0.950 . S
C3096 H3092 0.949 . S
C3096 C3104 1.574 . S
C3096 C3112 1.368 . S
H3097 C3105 0.950 . S
H3098 C3103 0.950 . S
H3099 C3104 0.949 . S
H3100 C3106 0.950 . S
H3101 C3107 0.950 . S
H3102 C3108 0.949 . S
C3103 H3098 0.950 . S
C3103 C3105 1.327 . S
C3103 C3109 1.429 . S
C3104 C3096 1.574 . S
C3104 H3099 0.949 . S
C3104 C3110 1.368 . S
C3105 C3089 1.349 . S
C3105 H3097 0.950 . S
C3105 C3103 1.327 . S
C3106 C3094 1.349 . S
C3106 H3100 0.950 . S
C3106 C3107 1.327 . S
C3107 H3101 0.950 . S
C3107 C3106 1.327 . S
C3107 C3111 1.429 . S
C3108 C3091 1.574 . S
C3108 H3102 0.949 . S
C3108 C3112 1.368 . S
C3109 C3090 1.429 . S
C3109 C3103 1.429 . S
C3109 C3110 1.523 . S
C3110 C3091 1.368 . S
C3110 C3104 1.368 . S
C3110 C3109 1.523 . S
C3111 C3095 1.429 . S
C3111 C3107 1.429 . S
C3111 C3112 1.523 . S
C3112 C3096 1.368 . S
C3112 C3108 1.368 . S
C3112 C3111 1.523 . S
H3113 C3088 0.950 . S
H3114 C3090 0.950 . S
H3115 C3091 0.949 . S
H3116 C3093 0.950 . S
H3117 C3095 0.950 . S
C3118 C3119 1.349 1_655 S
C3118 C3120 1.327 . S
C3118 H3143 0.950 . S
C3119 C3118 1.349 1_455 S
C3119 C3135 1.349 . S
C3120 C3118 1.327 . S
C3120 C3139 1.429 . S
C3120 H3144 0.950 . S
C3121 C3138 1.574 . S
C3121 C3140 1.368 . S
C3121 H3145 0.949 . S
H3122 C3126 0.949 . S
C3123 C3124 1.349 . S
C3123 C3125 1.327 . S
C3123 H3146 0.950 . S
C3124 C3123 1.349 . S
C3124 C3136 1.349 . S
C3125 C3123 1.327 . S
C3125 C3141 1.429 . S
C3125 H3147 0.950 . S
C3126 H3122 0.949 . S
C3126 C3134 1.574 . S
C3126 C3142 1.368 . S
H3127 C3135 0.950 . S
H3128 C3133 0.950 . S
H3129 C3134 0.949 . S
H3130 C3136 0.950 . S
H3131 C3137 0.950 . S
H3132 C3138 0.949 . S
C3133 H3128 0.950 . S
C3133 C3135 1.327 1_655 S
C3133 C3139 1.429 . S
C3134 C3126 1.574 . S
C3134 H3129 0.949 . S
C3134 C3140 1.368 . S
C3135 C3119 1.349 . S
C3135 H3127 0.950 . S
C3135 C3133 1.327 1_455 S
C3136 C3124 1.349 . S
C3136 H3130 0.950 . S
C3136 C3137 1.327 . S
C3137 H3131 0.950 . S
C3137 C3136 1.327 . S
C3137 C3141 1.429 . S
C3138 C3121 1.574 . S
C3138 H3132 0.949 . S
C3138 C3142 1.368 . S
C3139 C3120 1.429 . S
C3139 C3133 1.429 . S
C3139 C3140 1.523 . S
C3140 C3121 1.368 . S
C3140 C3134 1.368 . S
C3140 C3139 1.523 . S
C3141 C3125 1.429 . S
C3141 C3137 1.429 . S
C3141 C3142 1.523 . S
C3142 C3126 1.368 . S
C3142 C3138 1.368 . S
C3142 C3141 1.523 . S
H3143 C3118 0.950 . S
H3144 C3120 0.950 . S
H3145 C3121 0.949 . S
H3146 C3123 0.950 . S
H3147 C3125 0.950 . S
C3148 C3149 1.349 . S
C3148 C3150 1.327 . S
C3148 H3173 0.950 . S
C3149 C3148 1.349 . S
C3149 C3165 1.349 . S
C3150 C3148 1.327 . S
C3150 C3169 1.429 . S
C3150 H3174 0.950 . S
C3151 C3168 1.574 . S
C3151 C3170 1.368 . S
C3151 H3175 0.949 . S
H3152 C3156 0.949 . S
C3153 C3154 1.349 . S
C3153 C3155 1.327 . S
C3153 H3176 0.950 . S
C3154 C3153 1.349 . S
C3154 C3166 1.349 . S
C3155 C3153 1.327 . S
C3155 C3171 1.429 . S
C3155 H3177 0.950 . S
C3156 H3152 0.949 . S
C3156 C3164 1.574 . S
C3156 C3172 1.368 . S
H3157 C3165 0.950 . S
H3158 C3163 0.950 . S
H3159 C3164 0.949 . S
H3160 C3166 0.950 . S
H3161 C3167 0.950 . S
H3162 C3168 0.949 . S
C3163 H3158 0.950 . S
C3163 C3165 1.327 . S
C3163 C3169 1.429 . S
C3164 C3156 1.574 . S
C3164 H3159 0.949 . S
C3164 C3170 1.368 . S
C3165 C3149 1.349 . S
C3165 H3157 0.950 . S
C3165 C3163 1.327 . S
C3166 C3154 1.349 . S
C3166 H3160 0.950 . S
C3166 C3167 1.327 . S
C3167 H3161 0.950 . S
C3167 C3166 1.327 . S
C3167 C3171 1.429 . S
C3168 C3151 1.574 . S
C3168 H3162 0.949 . S
C3168 C3172 1.368 . S
C3169 C3150 1.429 . S
C3169 C3163 1.429 . S
C3169 C3170 1.523 . S
C3170 C3151 1.368 . S
C3170 C3164 1.368 . S
C3170 C3169 1.523 . S
C3171 C3155 1.429 . S
C3171 C3167 1.429 . S
C3171 C3172 1.523 . S
C3172 C3156 1.368 . S
C3172 C3168 1.368 . S
C3172 C3171 1.523 . S
H3173 C3148 0.950 . S
H3174 C3150 0.950 . S
H3175 C3151 0.949 . S
H3176 C3153 0.950 . S
H3177 C3155 0.950 . S
C3178 C3179 1.349 . S
C3178 C3180 1.327 . S
C3178 H3203 0.950 . S
C3179 C3178 1.349 . S
C3179 C3195 1.349 . S
C3180 C3178 1.327 . S
C3180 C3199 1.429 . S
C3180 H3204 0.950 . S
C3181 C3198 1.574 . S
C3181 C3200 1.368 . S
C3181 H3205 0.949 . S
H3182 C3186 0.949 . S
C3183 C3184 1.349 . S
C3183 C3185 1.327 . S
C3183 H3206 0.950 . S
C3184 C3183 1.349 . S
C3184 C3196 1.349 . S
C3185 C3183 1.327 . S
C3185 C3201 1.429 . S
C3185 H3207 0.950 . S
C3186 H3182 0.949 . S
C3186 C3194 1.574 . S
C3186 C3202 1.368 . S
H3187 C3195 0.950 . S
H3188 C3193 0.950 . S
H3189 C3194 0.949 . S
H3190 C3196 0.950 . S
H3191 C3197 0.950 . S
H3192 C3198 0.949 . S
C3193 H3188 0.950 . S
C3193 C3195 1.327 . S
C3193 C3199 1.429 . S
C3194 C3186 1.574 . S
C3194 H3189 0.949 . S
C3194 C3200 1.368 . S
C3195 C3179 1.349 . S
C3195 H3187 0.950 . S
C3195 C3193 1.327 . S
C3196 C3184 1.349 . S
C3196 H3190 0.950 . S
C3196 C3197 1.327 . S
C3197 H3191 0.950 . S
C3197 C3196 1.327 . S
C3197 C3201 1.429 . S
C3198 C3181 1.574 . S
C3198 H3192 0.949 . S
C3198 C3202 1.368 . S
C3199 C3180 1.429 . S
C3199 C3193 1.429 . S
C3199 C3200 1.523 . S
C3200 C3181 1.368 . S
C3200 C3194 1.368 . S
C3200 C3199 1.523 . S
C3201 C3185 1.429 . S
C3201 C3197 1.429 . S
C3201 C3202 1.523 . S
C3202 C3186 1.368 . S
C3202 C3198 1.368 . S
C3202 C3201 1.523 . S
H3203 C3178 0.950 . S
H3204 C3180 0.950 . S
H3205 C3181 0.949 . S
H3206 C3183 0.950 . S
H3207 C3185 0.950 . S
C3208 C3209 1.349 . S
C3208 C3210 1.327 . S
C3208 H3233 0.950 . S
C3209 C3208 1.349 . S
C3209 C3225 1.349 . S
C3210 C3208 1.327 . S
C3210 C3229 1.429 . S
C3210 H3234 0.950 . S
C3211 C3228 1.574 . S
C3211 C3230 1.368 . S
C3211 H3235 0.949 . S
H3212 C3216 0.949 . S
C3213 C3214 1.349 . S
C3213 C3215 1.327 . S
C3213 H3236 0.950 . S
C3214 C3213 1.349 . S
C3214 C3226 1.349 . S
C3215 C3213 1.327 . S
C3215 C3231 1.429 . S
C3215 H3237 0.950 . S
C3216 H3212 0.949 . S
C3216 C3224 1.574 . S
C3216 C3232 1.368 . S
H3217 C3225 0.950 . S
H3218 C3223 0.950 . S
H3219 C3224 0.949 . S
H3220 C3226 0.950 . S
H3221 C3227 0.950 . S
H3222 C3228 0.949 . S
C3223 H3218 0.950 . S
C3223 C3225 1.327 . S
C3223 C3229 1.429 . S
C3224 C3216 1.574 . S
C3224 H3219 0.949 . S
C3224 C3230 1.368 . S
C3225 C3209 1.349 . S
C3225 H3217 0.950 . S
C3225 C3223 1.327 . S
C3226 C3214 1.349 . S
C3226 H3220 0.950 . S
C3226 C3227 1.327 . S
C3227 H3221 0.950 . S
C3227 C3226 1.327 . S
C3227 C3231 1.429 . S
C3228 C3211 1.574 . S
C3228 H3222 0.949 . S
C3228 C3232 1.368 . S
C3229 C3210 1.429 . S
C3229 C3223 1.429 . S
C3229 C3230 1.523 . S
C3230 C3211 1.368 . S
C3230 C3224 1.368 . S
C3230 C3229 1.523 . S
C3231 C3215 1.429 . S
C3231 C3227 1.429 . S
C3231 C3232 1.523 . S
C3232 C3216 1.368 . S
C3232 C3228 1.368 . S
C3232 C3231 1.523 . S
H3233 C3208 0.950 . S
H3234 C3210 0.950 . S
H3235 C3211 0.949 . S
H3236 C3213 0.950 . S
H3237 C3215 0.950 . S
C3238 C3239 1.349 . S
C3238 C3240 1.327 . S
C3238 H3263 0.950 . S
C3239 C3238 1.349 . S
C3239 C3255 1.349 . S
C3240 C3238 1.327 . S
C3240 C3259 1.429 . S
C3240 H3264 0.950 . S
C3241 C3258 1.574 . S
C3241 C3260 1.368 . S
C3241 H3265 0.949 . S
H3242 C3246 0.949 . S
C3243 C3244 1.349 . S
C3243 C3245 1.327 . S
C3243 H3266 0.950 . S
C3244 C3243 1.349 . S
C3244 C3256 1.349 . S
C3245 C3243 1.327 . S
C3245 C3261 1.429 . S
C3245 H3267 0.950 . S
C3246 H3242 0.949 . S
C3246 C3254 1.574 . S
C3246 C3262 1.368 . S
H3247 C3255 0.950 . S
H3248 C3253 0.950 . S
H3249 C3254 0.949 . S
H3250 C3256 0.950 . S
H3251 C3257 0.950 . S
H3252 C3258 0.949 . S
C3253 H3248 0.950 . S
C3253 C3255 1.327 . S
C3253 C3259 1.429 . S
C3254 C3246 1.574 . S
C3254 H3249 0.949 . S
C3254 C3260 1.368 . S
C3255 C3239 1.349 . S
C3255 H3247 0.950 . S
C3255 C3253 1.327 . S
C3256 C3244 1.349 . S
C3256 H3250 0.950 . S
C3256 C3257 1.327 . S
C3257 H3251 0.950 . S
C3257 C3256 1.327 . S
C3257 C3261 1.429 . S
C3258 C3241 1.574 . S
C3258 H3252 0.949 . S
C3258 C3262 1.368 . S
C3259 C3240 1.429 . S
C3259 C3253 1.429 . S
C3259 C3260 1.523 . S
C3260 C3241 1.368 . S
C3260 C3254 1.368 . S
C3260 C3259 1.523 . S
C3261 C3245 1.429 . S
C3261 C3257 1.429 . S
C3261 C3262 1.523 . S
C3262 C3246 1.368 . S
C3262 C3258 1.368 . S
C3262 C3261 1.523 . S
H3263 C3238 0.950 . S
H3264 C3240 0.950 . S
H3265 C3241 0.949 . S
H3266 C3243 0.950 . S
H3267 C3245 0.950 . S
C3268 C3269 1.349 . S
C3268 C3270 1.327 . S
C3268 H3293 0.950 . S
C3269 C3268 1.349 . S
C3269 C3285 1.349 . S
C3270 C3268 1.327 . S
C3270 C3289 1.429 . S
C3270 H3294 0.950 . S
C3271 C3288 1.574 . S
C3271 C3290 1.368 . S
C3271 H3295 0.949 . S
H3272 C3276 0.949 . S
C3273 C3274 1.349 . S
C3273 C3275 1.327 . S
C3273 H3296 0.950 . S
C3274 C3273 1.349 . S
C3274 C3286 1.349 . S
C3275 C3273 1.327 . S
C3275 C3291 1.429 . S
C3275 H3297 0.950 . S
C3276 H3272 0.949 . S
C3276 C3284 1.574 . S
C3276 C3292 1.368 . S
H3277 C3285 0.950 . S
H3278 C3283 0.950 . S
H3279 C3284 0.949 . S
H3280 C3286 0.950 . S
H3281 C3287 0.950 . S
H3282 C3288 0.949 . S
C3283 H3278 0.950 . S
C3283 C3285 1.327 . S
C3283 C3289 1.429 . S
C3284 C3276 1.574 . S
C3284 H3279 0.949 . S
C3284 C3290 1.368 . S
C3285 C3269 1.349 . S
C3285 H3277 0.950 . S
C3285 C3283 1.327 . S
C3286 C3274 1.349 . S
C3286 H3280 0.950 . S
C3286 C3287 1.327 . S
C3287 H3281 0.950 . S
C3287 C3286 1.327 . S
C3287 C3291 1.429 . S
C3288 C3271 1.574 . S
C3288 H3282 0.949 . S
C3288 C3292 1.368 . S
C3289 C3270 1.429 . S
C3289 C3283 1.429 . S
C3289 C3290 1.523 . S
C3290 C3271 1.368 . S
C3290 C3284 1.368 . S
C3290 C3289 1.523 . S
C3291 C3275 1.429 . S
C3291 C3287 1.429 . S
C3291 C3292 1.523 . S
C3292 C3276 1.368 . S
C3292 C3288 1.368 . S
C3292 C3291 1.523 . S
H3293 C3268 0.950 . S
H3294 C3270 0.950 . S
H3295 C3271 0.949 . S
H3296 C3273 0.950 . S
H3297 C3275 0.950 . S
C3298 C3299 1.349 . S
C3298 C3300 1.327 1_455 S
C3298 H3323 0.950 . S
C3299 C3298 1.349 . S
C3299 C3315 1.349 1_455 S
C3300 C3298 1.327 1_655 S
C3300 C3319 1.429 . S
C3300 H3324 0.950 . S
C3301 C3318 1.574 . S
C3301 C3320 1.368 . S
C3301 H3325 0.949 . S
H3302 C3306 0.949 . S
C3303 C3304 1.349 . S
C3303 C3305 1.327 . S
C3303 H3326 0.950 . S
C3304 C3303 1.349 . S
C3304 C3316 1.349 . S
C3305 C3303 1.327 . S
C3305 C3321 1.429 . S
C3305 H3327 0.950 . S
C3306 H3302 0.949 . S
C3306 C3314 1.574 . S
C3306 C3322 1.368 . S
H3307 C3315 0.939 1_455 S
H3308 C3313 0.950 . S
H3309 C3314 0.949 . S
H3310 C3316 0.950 . S
H3311 C3317 0.950 . S
H3312 C3318 0.949 . S
C3313 H3308 0.950 . S
C3313 C3315 1.327 . S
C3313 C3319 1.429 . S
C3314 C3306 1.574 . S
C3314 H3309 0.949 . S
C3314 C3320 1.368 . S
C3315 C3299 1.349 1_655 S
C3315 H3307 0.939 1_655 S
C3315 C3313 1.327 . S
C3316 C3304 1.349 . S
C3316 H3310 0.950 . S
C3316 C3317 1.327 . S
C3317 H3311 0.950 . S
C3317 C3316 1.327 . S
C3317 C3321 1.429 . S
C3318 C3301 1.574 . S
C3318 H3312 0.949 . S
C3318 C3322 1.368 . S
C3319 C3300 1.429 . S
C3319 C3313 1.429 . S
C3319 C3320 1.523 . S
C3320 C3301 1.368 . S
C3320 C3314 1.368 . S
C3320 C3319 1.523 . S
C3321 C3305 1.429 . S
C3321 C3317 1.429 . S
C3321 C3322 1.523 . S
C3322 C3306 1.368 . S
C3322 C3318 1.368 . S
C3322 C3321 1.523 . S
H3323 C3298 0.950 . S
H3324 C3300 0.950 . S
H3325 C3301 0.949 . S
H3326 C3303 0.950 . S
H3327 C3305 0.950 . S
C3328 C3329 1.349 . S
C3328 C3330 1.327 . S
C3328 H3353 0.950 . S
C3329 C3328 1.349 . S
C3329 C3345 1.349 . S
C3330 C3328 1.327 . S
C3330 C3349 1.429 . S
C3330 H3354 0.950 . S
C3331 C3348 1.574 . S
C3331 C3350 1.368 . S
C3331 H3355 0.949 . S
H3332 C3336 0.949 . S
C3333 C3334 1.349 . S
C3333 C3335 1.327 . S
C3333 H3356 0.950 . S
C3334 C3333 1.349 . S
C3334 C3346 1.349 . S
C3335 C3333 1.327 . S
C3335 C3351 1.429 . S
C3335 H3357 0.950 . S
C3336 H3332 0.949 . S
C3336 C3344 1.574 . S
C3336 C3352 1.368 . S
H3337 C3345 0.950 . S
H3338 C3343 0.950 . S
H3339 C3344 0.949 . S
H3340 C3346 0.950 . S
H3341 C3347 0.950 . S
H3342 C3348 0.949 . S
C3343 H3338 0.950 . S
C3343 C3345 1.327 . S
C3343 C3349 1.429 . S
C3344 C3336 1.574 . S
C3344 H3339 0.949 . S
C3344 C3350 1.368 . S
C3345 C3329 1.349 . S
C3345 H3337 0.950 . S
C3345 C3343 1.327 . S
C3346 C3334 1.349 . S
C3346 H3340 0.950 . S
C3346 C3347 1.327 . S
C3347 H3341 0.950 . S
C3347 C3346 1.327 . S
C3347 C3351 1.429 . S
C3348 C3331 1.574 . S
C3348 H3342 0.949 . S
C3348 C3352 1.368 . S
C3349 C3330 1.429 . S
C3349 C3343 1.429 . S
C3349 C3350 1.523 . S
C3350 C3331 1.368 . S
C3350 C3344 1.368 . S
C3350 C3349 1.523 . S
C3351 C3335 1.429 . S
C3351 C3347 1.429 . S
C3351 C3352 1.523 . S
C3352 C3336 1.368 . S
C3352 C3348 1.368 . S
C3352 C3351 1.523 . S
H3353 C3328 0.950 . S
H3354 C3330 0.950 . S
H3355 C3331 0.949 . S
H3356 C3333 0.950 . S
H3357 C3335 0.950 . S
C3358 C3359 1.349 . S
C3358 C3360 1.327 . S
C3358 H3383 0.950 . S
C3359 C3358 1.349 . S
C3359 C3375 1.349 . S
C3360 C3358 1.327 . S
C3360 C3379 1.429 . S
C3360 H3384 0.950 . S
C3361 C3378 1.574 . S
C3361 C3380 1.368 . S
C3361 H3385 0.949 . S
H3362 C3366 0.949 . S
C3363 C3364 1.349 . S
C3363 C3365 1.327 . S
C3363 H3386 0.950 . S
C3364 C3363 1.349 . S
C3364 C3376 1.349 . S
C3365 C3363 1.327 . S
C3365 C3381 1.429 . S
C3365 H3387 0.950 . S
C3366 H3362 0.949 . S
C3366 C3374 1.574 . S
C3366 C3382 1.368 . S
H3367 C3375 0.950 . S
H3368 C3373 0.950 . S
H3369 C3374 0.949 . S
H3370 C3376 0.950 . S
H3371 C3377 0.950 . S
H3372 C3378 0.949 . S
C3373 H3368 0.950 . S
C3373 C3375 1.327 . S
C3373 C3379 1.429 . S
C3374 C3366 1.574 . S
C3374 H3369 0.949 . S
C3374 C3380 1.368 . S
C3375 C3359 1.349 . S
C3375 H3367 0.950 . S
C3375 C3373 1.327 . S
C3376 C3364 1.349 . S
C3376 H3370 0.950 . S
C3376 C3377 1.327 . S
C3377 H3371 0.950 . S
C3377 C3376 1.327 . S
C3377 C3381 1.429 . S
C3378 C3361 1.574 . S
C3378 H3372 0.949 . S
C3378 C3382 1.368 . S
C3379 C3360 1.429 . S
C3379 C3373 1.429 . S
C3379 C3380 1.523 . S
C3380 C3361 1.368 . S
C3380 C3374 1.368 . S
C3380 C3379 1.523 . S
C3381 C3365 1.429 . S
C3381 C3377 1.429 . S
C3381 C3382 1.523 . S
C3382 C3366 1.368 . S
C3382 C3378 1.368 . S
C3382 C3381 1.523 . S
H3383 C3358 0.950 . S
H3384 C3360 0.950 . S
H3385 C3361 0.949 . S
H3386 C3363 0.950 . S
H3387 C3365 0.950 . S
C3388 C3389 1.349 . S
C3388 C3390 1.327 . S
C3388 H3413 0.950 . S
C3389 C3388 1.349 . S
C3389 C3405 1.349 . S
C3390 C3388 1.327 . S
C3390 C3409 1.429 . S
C3390 H3414 0.950 . S
C3391 C3408 1.574 . S
C3391 C3410 1.368 . S
C3391 H3415 0.949 . S
H3392 C3396 0.949 . S
C3393 C3394 1.349 . S
C3393 C3395 1.327 . S
C3393 H3416 0.950 . S
C3394 C3393 1.349 . S
C3394 C3406 1.349 . S
C3395 C3393 1.327 . S
C3395 C3411 1.429 . S
C3395 H3417 0.950 . S
C3396 H3392 0.949 . S
C3396 C3404 1.574 . S
C3396 C3412 1.368 . S
H3397 C3405 0.950 . S
H3398 C3403 0.950 . S
H3399 C3404 0.949 . S
H3400 C3406 0.950 . S
H3401 C3407 0.950 . S
H3402 C3408 0.949 . S
C3403 H3398 0.950 . S
C3403 C3405 1.327 . S
C3403 C3409 1.429 . S
C3404 C3396 1.574 . S
C3404 H3399 0.949 . S
C3404 C3410 1.368 . S
C3405 C3389 1.349 . S
C3405 H3397 0.950 . S
C3405 C3403 1.327 . S
C3406 C3394 1.349 . S
C3406 H3400 0.950 . S
C3406 C3407 1.327 . S
C3407 H3401 0.950 . S
C3407 C3406 1.327 . S
C3407 C3411 1.429 . S
C3408 C3391 1.574 . S
C3408 H3402 0.949 . S
C3408 C3412 1.368 . S
C3409 C3390 1.429 . S
C3409 C3403 1.429 . S
C3409 C3410 1.523 . S
C3410 C3391 1.368 . S
C3410 C3404 1.368 . S
C3410 C3409 1.523 . S
C3411 C3395 1.429 . S
C3411 C3407 1.429 . S
C3411 C3412 1.523 . S
C3412 C3396 1.368 . S
C3412 C3408 1.368 . S
C3412 C3411 1.523 . S
H3413 C3388 0.950 . S
H3414 C3390 0.950 . S
H3415 C3391 0.949 . S
H3416 C3393 0.950 . S
H3417 C3395 0.950 . S
C3418 C3419 1.349 . S
C3418 C3420 1.327 . S
C3418 H3443 0.950 . S
C3419 C3418 1.349 . S
C3419 C3435 1.349 . S
C3420 C3418 1.327 . S
C3420 C3439 1.429 . S
C3420 H3444 0.950 . S
C3421 C3438 1.574 . S
C3421 C3440 1.368 . S
C3421 H3445 0.949 . S
H3422 C3426 0.949 . S
C3423 C3424 1.349 1_655 S
C3423 C3425 1.327 . S
C3423 H3446 0.959 . S
C3424 C3423 1.349 1_455 S
C3424 C3436 1.349 . S
C3425 C3423 1.327 . S
C3425 C3441 1.429 . S
C3425 H3447 0.950 . S
C3426 H3422 0.949 . S
C3426 C3434 1.574 . S
C3426 C3442 1.368 . S
H3427 C3435 0.950 . S
H3428 C3433 0.950 . S
H3429 C3434 0.949 . S
H3430 C3436 0.950 . S
H3431 C3437 0.950 . S
H3432 C3438 0.949 . S
C3433 H3428 0.950 . S
C3433 C3435 1.327 . S
C3433 C3439 1.429 . S
C3434 C3426 1.574 . S
C3434 H3429 0.949 . S
C3434 C3440 1.368 . S
C3435 C3419 1.349 . S
C3435 H3427 0.950 . S
C3435 C3433 1.327 . S
C3436 C3424 1.349 . S
C3436 H3430 0.950 . S
C3436 C3437 1.327 1_455 S
C3437 H3431 0.950 . S
C3437 C3436 1.327 1_655 S
C3437 C3441 1.429 . S
C3438 C3421 1.574 . S
C3438 H3432 0.949 . S
C3438 C3442 1.368 . S
C3439 C3420 1.429 . S
C3439 C3433 1.429 . S
C3439 C3440 1.523 . S
C3440 C3421 1.368 . S
C3440 C3434 1.368 . S
C3440 C3439 1.523 . S
C3441 C3425 1.429 . S
C3441 C3437 1.429 . S
C3441 C3442 1.523 . S
C3442 C3426 1.368 . S
C3442 C3438 1.368 . S
C3442 C3441 1.523 . S
H3443 C3418 0.950 . S
H3444 C3420 0.950 . S
H3445 C3421 0.949 . S
H3446 C3423 0.959 . S
H3447 C3425 0.950 . S
C3448 C3449 1.349 . S
C3448 C3450 1.327 . S
C3448 H3473 0.950 . S
C3449 C3448 1.349 . S
C3449 C3465 1.349 . S
C3450 C3448 1.327 . S
C3450 C3469 1.429 . S
C3450 H3474 0.950 . S
C3451 C3468 1.574 . S
C3451 C3470 1.368 . S
C3451 H3475 0.949 . S
H3452 C3456 0.949 . S
C3453 C3454 1.349 . S
C3453 C3455 1.327 . S
C3453 H3476 0.950 . S
C3454 C3453 1.349 . S
C3454 C3466 1.349 . S
C3455 C3453 1.327 . S
C3455 C3471 1.429 . S
C3455 H3477 0.950 . S
C3456 H3452 0.949 . S
C3456 C3464 1.574 . S
C3456 C3472 1.368 . S
H3457 C3465 0.950 . S
H3458 C3463 0.950 . S
H3459 C3464 0.949 . S
H3460 C3466 0.950 . S
H3461 C3467 0.950 . S
H3462 C3468 0.949 . S
C3463 H3458 0.950 . S
C3463 C3465 1.327 . S
C3463 C3469 1.429 . S
C3464 C3456 1.574 . S
C3464 H3459 0.949 . S
C3464 C3470 1.368 . S
C3465 C3449 1.349 . S
C3465 H3457 0.950 . S
C3465 C3463 1.327 . S
C3466 C3454 1.349 . S
C3466 H3460 0.950 . S
C3466 C3467 1.327 . S
C3467 H3461 0.950 . S
C3467 C3466 1.327 . S
C3467 C3471 1.429 . S
C3468 C3451 1.574 . S
C3468 H3462 0.949 . S
C3468 C3472 1.368 . S
C3469 C3450 1.429 . S
C3469 C3463 1.429 . S
C3469 C3470 1.523 . S
C3470 C3451 1.368 . S
C3470 C3464 1.368 . S
C3470 C3469 1.523 . S
C3471 C3455 1.429 . S
C3471 C3467 1.429 . S
C3471 C3472 1.523 . S
C3472 C3456 1.368 . S
C3472 C3468 1.368 . S
C3472 C3471 1.523 . S
H3473 C3448 0.950 . S
H3474 C3450 0.950 . S
H3475 C3451 0.949 . S
H3476 C3453 0.950 . S
H3477 C3455 0.950 . S
C3478 C3479 1.349 1_655 S
C3478 C3480 1.327 . S
C3478 H3503 0.950 . S
C3479 C3478 1.349 1_455 S
C3479 C3495 1.349 . S
C3480 C3478 1.327 . S
C3480 C3499 1.429 . S
C3480 H3504 0.950 . S
C3481 C3498 1.574 . S
C3481 C3500 1.368 . S
C3481 H3505 0.949 . S
H3482 C3486 0.949 . S
C3483 C3484 1.349 . S
C3483 C3485 1.327 . S
C3483 H3506 0.950 . S
C3484 C3483 1.349 . S
C3484 C3496 1.349 . S
C3485 C3483 1.327 . S
C3485 C3501 1.429 . S
C3485 H3507 0.950 . S
C3486 H3482 0.949 . S
C3486 C3494 1.574 . S
C3486 C3502 1.368 . S
H3487 C3495 0.950 . S
H3488 C3493 0.950 . S
H3489 C3494 0.949 . S
H3490 C3496 0.950 . S
H3491 C3497 0.950 . S
H3492 C3498 0.949 . S
C3493 H3488 0.950 . S
C3493 C3495 1.327 1_655 S
C3493 C3499 1.429 . S
C3494 C3486 1.574 . S
C3494 H3489 0.949 . S
C3494 C3500 1.368 . S
C3495 C3479 1.349 . S
C3495 H3487 0.950 . S
C3495 C3493 1.327 1_455 S
C3496 C3484 1.349 . S
C3496 H3490 0.950 . S
C3496 C3497 1.327 . S
C3497 H3491 0.950 . S
C3497 C3496 1.327 . S
C3497 C3501 1.429 . S
C3498 C3481 1.574 . S
C3498 H3492 0.949 . S
C3498 C3502 1.368 . S
C3499 C3480 1.429 . S
C3499 C3493 1.429 . S
C3499 C3500 1.523 . S
C3500 C3481 1.368 . S
C3500 C3494 1.368 . S
C3500 C3499 1.523 . S
C3501 C3485 1.429 . S
C3501 C3497 1.429 . S
C3501 C3502 1.523 . S
C3502 C3486 1.368 . S
C3502 C3498 1.368 . S
C3502 C3501 1.523 . S
H3503 C3478 0.950 . S
H3504 C3480 0.950 . S
H3505 C3481 0.949 . S
H3506 C3483 0.950 . S
H3507 C3485 0.950 . S
C3508 C3509 1.349 . S
C3508 C3510 1.327 . S
C3508 H3533 0.950 . S
C3509 C3508 1.349 . S
C3509 C3525 1.349 . S
C3510 C3508 1.327 . S
C3510 C3529 1.429 . S
C3510 H3534 0.950 . S
C3511 C3528 1.574 . S
C3511 C3530 1.368 . S
C3511 H3535 0.949 . S
H3512 C3516 0.949 . S
C3513 C3514 1.349 . S
C3513 C3515 1.327 . S
C3513 H3536 0.950 . S
C3514 C3513 1.349 . S
C3514 C3526 1.349 . S
C3515 C3513 1.327 . S
C3515 C3531 1.429 . S
C3515 H3537 0.950 . S
C3516 H3512 0.949 . S
C3516 C3524 1.574 . S
C3516 C3532 1.368 . S
H3517 C3525 0.950 . S
H3518 C3523 0.950 . S
H3519 C3524 0.949 . S
H3520 C3526 0.950 . S
H3521 C3527 0.950 . S
H3522 C3528 0.949 . S
C3523 H3518 0.950 . S
C3523 C3525 1.327 . S
C3523 C3529 1.429 . S
C3524 C3516 1.574 . S
C3524 H3519 0.949 . S
C3524 C3530 1.368 . S
C3525 C3509 1.349 . S
C3525 H3517 0.950 . S
C3525 C3523 1.327 . S
C3526 C3514 1.349 . S
C3526 H3520 0.950 . S
C3526 C3527 1.327 . S
C3527 H3521 0.950 . S
C3527 C3526 1.327 . S
C3527 C3531 1.429 . S
C3528 C3511 1.574 . S
C3528 H3522 0.949 . S
C3528 C3532 1.368 . S
C3529 C3510 1.429 . S
C3529 C3523 1.429 . S
C3529 C3530 1.523 . S
C3530 C3511 1.368 . S
C3530 C3524 1.368 . S
C3530 C3529 1.523 . S
C3531 C3515 1.429 . S
C3531 C3527 1.429 . S
C3531 C3532 1.523 . S
C3532 C3516 1.368 . S
C3532 C3528 1.368 . S
C3532 C3531 1.523 . S
H3533 C3508 0.950 . S
H3534 C3510 0.950 . S
H3535 C3511 0.949 . S
H3536 C3513 0.950 . S
H3537 C3515 0.950 . S
C3538 C3539 1.349 . S
C3538 C3540 1.327 . S
C3538 H3563 0.950 . S
C3539 C3538 1.349 . S
C3539 C3555 1.349 . S
C3540 C3538 1.327 . S
C3540 C3559 1.429 . S
C3540 H3564 0.950 . S
C3541 C3558 1.574 . S
C3541 C3560 1.368 . S
C3541 H3565 0.949 . S
H3542 C3546 0.949 . S
C3543 C3544 1.349 . S
C3543 C3545 1.327 . S
C3543 H3566 0.950 . S
C3544 C3543 1.349 . S
C3544 C3556 1.349 . S
C3545 C3543 1.327 . S
C3545 C3561 1.429 . S
C3545 H3567 0.950 . S
C3546 H3542 0.949 . S
C3546 C3554 1.574 . S
C3546 C3562 1.368 . S
H3547 C3555 0.950 . S
H3548 C3553 0.950 . S
H3549 C3554 0.949 . S
H3550 C3556 0.950 . S
H3551 C3557 0.950 . S
H3552 C3558 0.949 . S
C3553 H3548 0.950 . S
C3553 C3555 1.327 . S
C3553 C3559 1.429 . S
C3554 C3546 1.574 . S
C3554 H3549 0.949 . S
C3554 C3560 1.368 . S
C3555 C3539 1.349 . S
C3555 H3547 0.950 . S
C3555 C3553 1.327 . S
C3556 C3544 1.349 . S
C3556 H3550 0.950 . S
C3556 C3557 1.327 . S
C3557 H3551 0.950 . S
C3557 C3556 1.327 . S
C3557 C3561 1.429 . S
C3558 C3541 1.574 . S
C3558 H3552 0.949 . S
C3558 C3562 1.368 . S
C3559 C3540 1.429 . S
C3559 C3553 1.429 . S
C3559 C3560 1.523 . S
C3560 C3541 1.368 . S
C3560 C3554 1.368 . S
C3560 C3559 1.523 . S
C3561 C3545 1.429 . S
C3561 C3557 1.429 . S
C3561 C3562 1.523 . S
C3562 C3546 1.368 . S
C3562 C3558 1.368 . S
C3562 C3561 1.523 . S
H3563 C3538 0.950 . S
H3564 C3540 0.950 . S
H3565 C3541 0.949 . S
H3566 C3543 0.950 . S
H3567 C3545 0.950 . S
C3568 C3569 1.349 . S
C3568 C3570 1.327 . S
C3568 H3593 0.950 . S
C3569 C3568 1.349 . S
C3569 C3585 1.349 . S
C3570 C3568 1.327 . S
C3570 C3589 1.429 . S
C3570 H3594 0.950 . S
C3571 C3588 1.574 . S
C3571 C3590 1.368 . S
C3571 H3595 0.949 . S
H3572 C3576 0.949 . S
C3573 C3574 1.349 . S
C3573 C3575 1.327 . S
C3573 H3596 0.950 . S
C3574 C3573 1.349 . S
C3574 C3586 1.349 . S
C3575 C3573 1.327 . S
C3575 C3591 1.429 . S
C3575 H3597 0.950 . S
C3576 H3572 0.949 . S
C3576 C3584 1.574 . S
C3576 C3592 1.368 . S
H3577 C3585 0.950 . S
H3578 C3583 0.950 . S
H3579 C3584 0.949 . S
H3580 C3586 0.950 . S
H3581 C3587 0.950 . S
H3582 C3588 0.949 . S
C3583 H3578 0.950 . S
C3583 C3585 1.327 . S
C3583 C3589 1.429 . S
C3584 C3576 1.574 . S
C3584 H3579 0.949 . S
C3584 C3590 1.368 . S
C3585 C3569 1.349 . S
C3585 H3577 0.950 . S
C3585 C3583 1.327 . S
C3586 C3574 1.349 . S
C3586 H3580 0.950 . S
C3586 C3587 1.327 . S
C3587 H3581 0.950 . S
C3587 C3586 1.327 . S
C3587 C3591 1.429 . S
C3588 C3571 1.574 . S
C3588 H3582 0.949 . S
C3588 C3592 1.368 . S
C3589 C3570 1.429 . S
C3589 C3583 1.429 . S
C3589 C3590 1.523 . S
C3590 C3571 1.368 . S
C3590 C3584 1.368 . S
C3590 C3589 1.523 . S
C3591 C3575 1.429 . S
C3591 C3587 1.429 . S
C3591 C3592 1.523 . S
C3592 C3576 1.368 . S
C3592 C3588 1.368 . S
C3592 C3591 1.523 . S
H3593 C3568 0.950 . S
H3594 C3570 0.950 . S
H3595 C3571 0.949 . S
H3596 C3573 0.950 . S
H3597 C3575 0.950 . S
C3598 C3599 1.349 . S
C3598 C3600 1.327 . S
C3598 H3623 0.950 . S
C3599 C3598 1.349 . S
C3599 C3615 1.349 . S
C3600 C3598 1.327 . S
C3600 C3619 1.429 . S
C3600 H3624 0.950 . S
C3601 C3618 1.574 . S
C3601 C3620 1.368 . S
C3601 H3625 0.949 . S
H3602 C3606 0.949 . S
C3603 C3604 1.349 . S
C3603 C3605 1.327 . S
C3603 H3626 0.950 . S
C3604 C3603 1.349 . S
C3604 C3616 1.349 . S
C3605 C3603 1.327 . S
C3605 C3621 1.429 . S
C3605 H3627 0.950 . S
C3606 H3602 0.949 . S
C3606 C3614 1.574 . S
C3606 C3622 1.368 . S
H3607 C3615 0.950 . S
H3608 C3613 0.950 . S
H3609 C3614 0.949 . S
H3610 C3616 0.950 . S
H3611 C3617 0.950 . S
H3612 C3618 0.949 . S
C3613 H3608 0.950 . S
C3613 C3615 1.327 . S
C3613 C3619 1.429 . S
C3614 C3606 1.574 . S
C3614 H3609 0.949 . S
C3614 C3620 1.368 . S
C3615 C3599 1.349 . S
C3615 H3607 0.950 . S
C3615 C3613 1.327 . S
C3616 C3604 1.349 . S
C3616 H3610 0.950 . S
C3616 C3617 1.327 . S
C3617 H3611 0.950 . S
C3617 C3616 1.327 . S
C3617 C3621 1.429 . S
C3618 C3601 1.574 . S
C3618 H3612 0.949 . S
C3618 C3622 1.368 . S
C3619 C3600 1.429 . S
C3619 C3613 1.429 . S
C3619 C3620 1.523 . S
C3620 C3601 1.368 . S
C3620 C3614 1.368 . S
C3620 C3619 1.523 . S
C3621 C3605 1.429 . S
C3621 C3617 1.429 . S
C3621 C3622 1.523 . S
C3622 C3606 1.368 . S
C3622 C3618 1.368 . S
C3622 C3621 1.523 . S
H3623 C3598 0.950 . S
H3624 C3600 0.950 . S
H3625 C3601 0.949 . S
H3626 C3603 0.950 . S
H3627 C3605 0.950 . S
C3628 C3629 1.349 . S
C3628 C3630 1.327 . S
C3628 H3653 0.950 . S
C3629 C3628 1.349 . S
C3629 C3645 1.349 . S
C3630 C3628 1.327 . S
C3630 C3649 1.429 . S
C3630 H3654 0.950 . S
C3631 C3648 1.574 . S
C3631 C3650 1.368 . S
C3631 H3655 0.949 . S
H3632 C3636 0.949 . S
C3633 C3634 1.349 . S
C3633 C3635 1.327 . S
C3633 H3656 0.950 . S
C3634 C3633 1.349 . S
C3634 C3646 1.349 . S
C3635 C3633 1.327 . S
C3635 C3651 1.429 . S
C3635 H3657 0.950 . S
C3636 H3632 0.949 . S
C3636 C3644 1.574 . S
C3636 C3652 1.368 . S
H3637 C3645 0.950 . S
H3638 C3643 0.950 . S
H3639 C3644 0.949 . S
H3640 C3646 0.950 . S
H3641 C3647 0.950 . S
H3642 C3648 0.949 . S
C3643 H3638 0.950 . S
C3643 C3645 1.327 . S
C3643 C3649 1.429 . S
C3644 C3636 1.574 . S
C3644 H3639 0.949 . S
C3644 C3650 1.368 . S
C3645 C3629 1.349 . S
C3645 H3637 0.950 . S
C3645 C3643 1.327 . S
C3646 C3634 1.349 . S
C3646 H3640 0.950 . S
C3646 C3647 1.327 . S
C3647 H3641 0.950 . S
C3647 C3646 1.327 . S
C3647 C3651 1.429 . S
C3648 C3631 1.574 . S
C3648 H3642 0.949 . S
C3648 C3652 1.368 . S
C3649 C3630 1.429 . S
C3649 C3643 1.429 . S
C3649 C3650 1.523 . S
C3650 C3631 1.368 . S
C3650 C3644 1.368 . S
C3650 C3649 1.523 . S
C3651 C3635 1.429 . S
C3651 C3647 1.429 . S
C3651 C3652 1.523 . S
C3652 C3636 1.368 . S
C3652 C3648 1.368 . S
C3652 C3651 1.523 . S
H3653 C3628 0.950 . S
H3654 C3630 0.950 . S
H3655 C3631 0.949 . S
H3656 C3633 0.950 . S
H3657 C3635 0.950 . S
C3658 C3659 1.349 . S
C3658 C3660 1.327 1_655 S
C3658 H3683 0.950 . S
C3659 C3658 1.349 . S
C3659 C3675 1.370 . S
C3660 C3658 1.327 1_455 S
C3660 C3679 1.429 . S
C3660 H3684 0.950 . S
C3661 C3678 1.574 . S
C3661 C3680 1.368 . S
C3661 H3685 0.949 . S
H3662 C3666 0.949 . S
C3663 C3664 1.349 . S
C3663 C3665 1.327 . S
C3663 H3686 0.950 . S
C3664 C3663 1.349 . S
C3664 C3676 1.349 . S
C3665 C3663 1.327 . S
C3665 C3681 1.429 . S
C3665 H3687 0.950 . S
C3666 H3662 0.949 . S
C3666 C3674 1.574 . S
C3666 C3682 1.368 . S
H3667 C3675 0.968 . S
H3668 C3673 0.950 . S
H3669 C3674 0.949 . S
H3670 C3676 0.950 . S
H3671 C3677 0.950 . S
H3672 C3678 0.949 . S
C3673 H3668 0.950 . S
C3673 C3675 1.289 1_455 S
C3673 C3679 1.429 . S
C3674 C3666 1.574 . S
C3674 H3669 0.949 . S
C3674 C3680 1.368 . S
C3675 C3659 1.370 . S
C3675 H3667 0.968 . S
C3675 C3673 1.289 1_655 S
C3676 C3664 1.349 . S
C3676 H3670 0.950 . S
C3676 C3677 1.327 . S
C3677 H3671 0.950 . S
C3677 C3676 1.327 . S
C3677 C3681 1.429 . S
C3678 C3661 1.574 . S
C3678 H3672 0.949 . S
C3678 C3682 1.368 . S
C3679 C3660 1.429 . S
C3679 C3673 1.429 . S
C3679 C3680 1.523 . S
C3680 C3661 1.368 . S
C3680 C3674 1.368 . S
C3680 C3679 1.523 . S
C3681 C3665 1.429 . S
C3681 C3677 1.429 . S
C3681 C3682 1.523 . S
C3682 C3666 1.368 . S
C3682 C3678 1.368 . S
C3682 C3681 1.523 . S
H3683 C3658 0.950 . S
H3684 C3660 0.950 . S
H3685 C3661 0.949 . S
H3686 C3663 0.950 . S
H3687 C3665 0.950 . S
C3688 C3689 1.349 . S
C3688 C3690 1.327 . S
C3688 H3713 0.950 . S
C3689 C3688 1.349 . S
C3689 C3705 1.349 . S
C3690 C3688 1.327 . S
C3690 C3709 1.429 . S
C3690 H3714 0.950 . S
C3691 C3708 1.574 . S
C3691 C3710 1.368 . S
C3691 H3715 0.949 . S
H3692 C3696 0.949 . S
C3693 C3694 1.349 . S
C3693 C3695 1.327 . S
C3693 H3716 0.950 . S
C3694 C3693 1.349 . S
C3694 C3706 1.349 . S
C3695 C3693 1.327 . S
C3695 C3711 1.429 . S
C3695 H3717 0.950 . S
C3696 H3692 0.949 . S
C3696 C3704 1.574 . S
C3696 C3712 1.368 . S
H3697 C3705 0.950 . S
H3698 C3703 0.950 . S
H3699 C3704 0.949 . S
H3700 C3706 0.950 . S
H3701 C3707 0.950 . S
H3702 C3708 0.949 . S
C3703 H3698 0.950 . S
C3703 C3705 1.327 . S
C3703 C3709 1.429 . S
C3704 C3696 1.574 . S
C3704 H3699 0.949 . S
C3704 C3710 1.368 . S
C3705 C3689 1.349 . S
C3705 H3697 0.950 . S
C3705 C3703 1.327 . S
C3706 C3694 1.349 . S
C3706 H3700 0.950 . S
C3706 C3707 1.327 . S
C3707 H3701 0.950 . S
C3707 C3706 1.327 . S
C3707 C3711 1.429 . S
C3708 C3691 1.574 . S
C3708 H3702 0.949 . S
C3708 C3712 1.368 . S
C3709 C3690 1.429 . S
C3709 C3703 1.429 . S
C3709 C3710 1.523 . S
C3710 C3691 1.368 . S
C3710 C3704 1.368 . S
C3710 C3709 1.523 . S
C3711 C3695 1.429 . S
C3711 C3707 1.429 . S
C3711 C3712 1.523 . S
C3712 C3696 1.368 . S
C3712 C3708 1.368 . S
C3712 C3711 1.523 . S
H3713 C3688 0.950 . S
H3714 C3690 0.950 . S
H3715 C3691 0.949 . S
H3716 C3693 0.950 . S
H3717 C3695 0.950 . S
C3718 C3719 1.349 . S
C3718 C3720 1.327 . S
C3718 H3743 0.950 . S
C3719 C3718 1.349 . S
C3719 C3735 1.349 . S
C3720 C3718 1.327 . S
C3720 C3739 1.429 . S
C3720 H3744 0.950 . S
C3721 C3738 1.574 . S
C3721 C3740 1.368 . S
C3721 H3745 0.949 . S
H3722 C3726 0.949 . S
C3723 C3724 1.349 1_455 S
C3723 C3725 1.327 . S
C3723 H3746 0.950 . S
C3724 C3723 1.349 1_655 S
C3724 C3736 1.349 . S
C3725 C3723 1.327 . S
C3725 C3741 1.429 . S
C3725 H3747 0.950 . S
C3726 H3722 0.949 . S
C3726 C3734 1.574 . S
C3726 C3742 1.368 . S
H3727 C3735 0.950 . S
H3728 C3733 0.950 . S
H3729 C3734 0.949 . S
H3730 C3736 0.950 . S
H3731 C3737 0.950 . S
H3732 C3738 0.949 . S
C3733 H3728 0.950 . S
C3733 C3735 1.327 . S
C3733 C3739 1.429 . S
C3734 C3726 1.574 . S
C3734 H3729 0.949 . S
C3734 C3740 1.368 . S
C3735 C3719 1.349 . S
C3735 H3727 0.950 . S
C3735 C3733 1.327 . S
C3736 C3724 1.349 . S
C3736 H3730 0.950 . S
C3736 C3737 1.327 1_655 S
C3737 H3731 0.950 . S
C3737 C3736 1.327 1_455 S
C3737 C3741 1.429 . S
C3738 C3721 1.574 . S
C3738 H3732 0.949 . S
C3738 C3742 1.368 . S
C3739 C3720 1.429 . S
C3739 C3733 1.429 . S
C3739 C3740 1.523 . S
C3740 C3721 1.368 . S
C3740 C3734 1.368 . S
C3740 C3739 1.523 . S
C3741 C3725 1.429 . S
C3741 C3737 1.429 . S
C3741 C3742 1.523 . S
C3742 C3726 1.368 . S
C3742 C3738 1.368 . S
C3742 C3741 1.523 . S
H3743 C3718 0.950 . S
H3744 C3720 0.950 . S
H3745 C3721 0.949 . S
H3746 C3723 0.950 . S
H3747 C3725 0.950 . S
C3748 C3749 1.349 . S
C3748 C3750 1.327 . S
C3748 H3773 0.950 . S
C3749 C3748 1.349 . S
C3749 C3765 1.349 . S
C3750 C3748 1.327 . S
C3750 C3769 1.429 . S
C3750 H3774 0.950 . S
C3751 C3768 1.574 . S
C3751 C3770 1.368 . S
C3751 H3775 0.949 . S
H3752 C3756 0.949 . S
C3753 C3754 1.349 . S
C3753 C3755 1.327 . S
C3753 H3776 0.950 . S
C3754 C3753 1.349 . S
C3754 C3766 1.349 . S
C3755 C3753 1.327 . S
C3755 C3771 1.429 . S
C3755 H3777 0.950 . S
C3756 H3752 0.949 . S
C3756 C3764 1.574 . S
C3756 C3772 1.368 . S
H3757 C3765 0.950 . S
H3758 C3763 0.950 . S
H3759 C3764 0.949 . S
H3760 C3766 0.950 . S
H3761 C3767 0.950 . S
H3762 C3768 0.949 . S
C3763 H3758 0.950 . S
C3763 C3765 1.327 . S
C3763 C3769 1.429 . S
C3764 C3756 1.574 . S
C3764 H3759 0.949 . S
C3764 C3770 1.368 . S
C3765 C3749 1.349 . S
C3765 H3757 0.950 . S
C3765 C3763 1.327 . S
C3766 C3754 1.349 . S
C3766 H3760 0.950 . S
C3766 C3767 1.327 . S
C3767 H3761 0.950 . S
C3767 C3766 1.327 . S
C3767 C3771 1.429 . S
C3768 C3751 1.574 . S
C3768 H3762 0.949 . S
C3768 C3772 1.368 . S
C3769 C3750 1.429 . S
C3769 C3763 1.429 . S
C3769 C3770 1.523 . S
C3770 C3751 1.368 . S
C3770 C3764 1.368 . S
C3770 C3769 1.523 . S
C3771 C3755 1.429 . S
C3771 C3767 1.429 . S
C3771 C3772 1.523 . S
C3772 C3756 1.368 . S
C3772 C3768 1.368 . S
C3772 C3771 1.523 . S
H3773 C3748 0.950 . S
H3774 C3750 0.950 . S
H3775 C3751 0.949 . S
H3776 C3753 0.950 . S
H3777 C3755 0.950 . S
C3778 C3779 1.349 . S
C3778 C3780 1.327 . S
C3778 H3803 0.950 . S
C3779 C3778 1.349 . S
C3779 C3795 1.349 . S
C3780 C3778 1.327 . S
C3780 C3799 1.429 . S
C3780 H3804 0.950 . S
C3781 C3798 1.574 . S
C3781 C3800 1.368 . S
C3781 H3805 0.949 . S
H3782 C3786 0.949 . S
C3783 C3784 1.349 . S
C3783 C3785 1.327 . S
C3783 H3806 0.950 . S
C3784 C3783 1.349 . S
C3784 C3796 1.349 . S
C3785 C3783 1.327 . S
C3785 C3801 1.429 . S
C3785 H3807 0.950 . S
C3786 H3782 0.949 . S
C3786 C3794 1.574 . S
C3786 C3802 1.368 . S
H3787 C3795 0.950 . S
H3788 C3793 0.950 . S
H3789 C3794 0.949 . S
H3790 C3796 0.950 . S
H3791 C3797 0.950 . S
H3792 C3798 0.949 . S
C3793 H3788 0.950 . S
C3793 C3795 1.327 . S
C3793 C3799 1.429 . S
C3794 C3786 1.574 . S
C3794 H3789 0.949 . S
C3794 C3800 1.368 . S
C3795 C3779 1.349 . S
C3795 H3787 0.950 . S
C3795 C3793 1.327 . S
C3796 C3784 1.349 . S
C3796 H3790 0.950 . S
C3796 C3797 1.327 . S
C3797 H3791 0.950 . S
C3797 C3796 1.327 . S
C3797 C3801 1.429 . S
C3798 C3781 1.574 . S
C3798 H3792 0.949 . S
C3798 C3802 1.368 . S
C3799 C3780 1.429 . S
C3799 C3793 1.429 . S
C3799 C3800 1.523 . S
C3800 C3781 1.368 . S
C3800 C3794 1.368 . S
C3800 C3799 1.523 . S
C3801 C3785 1.429 . S
C3801 C3797 1.429 . S
C3801 C3802 1.523 . S
C3802 C3786 1.368 . S
C3802 C3798 1.368 . S
C3802 C3801 1.523 . S
H3803 C3778 0.950 . S
H3804 C3780 0.950 . S
H3805 C3781 0.949 . S
H3806 C3783 0.950 . S
H3807 C3785 0.950 . S
C1889 C241 1.608 . S
C1894 C5 1.608 . S
C1919 C300 1.608 . S
C1924 C64 1.608 . S
C1949 C359 1.608 . S
C1954 C123 1.608 . S
C1979 C182 1.608 . S
C1984 C418 1.608 . S
C2009 C477 1.608 . S
C2014 C713 1.608 . S
C2039 C772 1.608 . S
C2044 C536 1.608 . S
C2069 C595 1.608 . S
C2074 C831 1.608 . S
C2099 C890 1.608 . S
C2104 C654 1.608 . S
C2129 C949 1.608 . S
C2134 C1185 1.608 . S
C2159 C1244 1.608 . S
C2164 C1008 1.608 . S
C2189 C1303 1.608 . S
C2194 C1067 1.608 . S
C2219 C1362 1.608 . S
C2224 C1126 1.608 . S
C2249 C1421 1.608 . S
C2254 C1657 1.608 . S
C2279 C1480 1.608 . S
C2284 C1716 1.608 . S
C2309 C1539 1.608 . S
C2314 C1775 1.608 . S
C2339 C1598 1.608 . S
C2344 C1834 1.608 . S
C2369 C3 1.399 1_565 S
C2374 C416 1.399 . S
C2399 C62 1.398 . S
C2404 C239 1.398 1_545 S
C2429 C121 1.398 1_545 S
C2434 C298 1.398 . S
C2459 C357 1.398 1_565 S
C2464 C180 1.398 . S
C2489 C888 1.399 . S
C2494 C475 1.399 1_545 S
C2519 C711 1.398 1_565 S
C2524 C534 1.398 . S
C2549 C770 1.398 . S
C2554 C593 1.398 1_565 S
C2579 C652 1.398 . S
C2584 C829 1.398 1_545 S
C2609 C1360 1.399 . S
C2614 C947 1.399 . S
C2639 C1183 1.398 . S
C2644 C1006 1.398 . S
C2669 C1242 1.398 . S
C2674 C1065 1.398 . S
C2699 C1124 1.398 . S
C2704 C1301 1.398 . S
C2729 C1419 1.399 . S
C2734 C1832 1.399 . S
C2759 C1478 1.398 . S
C2764 C1655 1.398 . S
C2789 C1537 1.398 . S
C2794 C1714 1.398 . S
C2819 C1773 1.398 . S
C2824 C1596 1.398 . S
C2849 C52 1.607 . S
C2854 C1508 1.606 . S
C2879 C111 1.607 . S
C2884 C623 1.606 . S
C2909 C170 1.607 . S
C2914 C1626 1.606 . S
C2939 C505 1.606 . S
C2944 C229 1.607 . S
C2969 C1862 1.606 . S
C2974 C288 1.607 . S
C2999 C347 1.607 . S
C3004 C741 1.606 . S
C3029 C406 1.607 . S
C3034 C1744 1.606 . S
C3059 C465 1.607 . S
C3064 C859 1.606 . S
C3089 C1036 1.606 . S
C3094 C524 1.607 . S
C3119 C151 1.606 . S
C3124 C583 1.607 . S
C3149 C1154 1.606 . S
C3154 C642 1.607 . S
C3179 C701 1.607 . S
C3184 C33 1.606 . S
C3209 C1390 1.606 . S
C3214 C760 1.607 . S
C3239 C269 1.606 . S
C3244 C819 1.607 . S
C3269 C1272 1.606 . S
C3274 C878 1.607 . S
C3299 C387 1.606 . S
C3304 C937 1.607 . S
C3329 C564 1.606 . S
C3334 C996 1.607 . S
C3359 C1055 1.607 . S
C3364 C1567 1.606 . S
C3389 C1114 1.607 . S
C3394 C682 1.606 . S
C3419 C1173 1.607 . S
C3424 C1449 1.606 . S
C3449 C1232 1.607 . S
C3454 C918 1.606 . S
C3479 C1685 1.606 . S
C3484 C1291 1.607 . S
C3509 C1350 1.607 . S
C3514 C800 1.606 . S
C3539 C1409 1.607 . S
C3544 C1803 1.606 . S
C3569 C1468 1.607 . S
C3574 C92 1.606 . S
C3599 C1527 1.607 . S
C3604 C1095 1.606 . S
C3629 C210 1.606 . S
C3634 C1586 1.607 . S
C3659 C977 1.606 . S
C3664 C1645 1.607 . S
C3689 C1704 1.607 . S
C3694 C446 1.606 . S
C3719 C1763 1.607 . S
C3724 C1213 1.606 . S
C3749 C328 1.606 . S
C3754 C1822 1.607 . S
C3779 C1331 1.606 . S
C3784 C1881 1.607 . S
