# Generated by pormake.
# Topology uot, (4)-cn, num edge types: 1
# Building blocks:
#     Node 0, Type 0, BuildingBlock: KUFVIS_clean_sbu_0, # of connection points: 4
#     Node 1, Type 0, BuildingBlock: KUFVIS_clean_sbu_0, # of connection points: 4
#     Node 2, Type 0, BuildingBlock: KUFVIS_clean_sbu_0, # of connection points: 4
#     Node 3, Type 0, BuildingBlock: KUFVIS_clean_sbu_0, # of connection points: 4
#     Node 4, Type 0, BuildingBlock: KUFVIS_clean_sbu_0, # of connection points: 4
#     Node 5, Type 0, BuildingBlock: KUFVIS_clean_sbu_0, # of connection points: 4
#     Node 6, Type 0, BuildingBlock: KUFVIS_clean_sbu_0, # of connection points: 4
#     Node 7, Type 0, BuildingBlock: KUFVIS_clean_sbu_0, # of connection points: 4
#     Node 8, Type 0, BuildingBlock: KUFVIS_clean_sbu_0, # of connection points: 4
#     Node 9, Type 0, BuildingBlock: KUFVIS_clean_sbu_0, # of connection points: 4
#     Node 10, Type 0, BuildingBlock: KUFVIS_clean_sbu_0, # of connection points: 4
#     Node 11, Type 0, BuildingBlock: KUFVIS_clean_sbu_0, # of connection points: 4
#     Node 12, Type 0, BuildingBlock: KUFVIS_clean_sbu_0, # of connection points: 4
#     Node 13, Type 0, BuildingBlock: KUFVIS_clean_sbu_0, # of connection points: 4
#     Node 14, Type 0, BuildingBlock: KUFVIS_clean_sbu_0, # of connection points: 4
#     Node 15, Type 0, BuildingBlock: KUFVIS_clean_sbu_0, # of connection points: 4
#     Edge 16, Type (0, 0), BuildingBlock: UVAHIK_clean_linker_0, # of connection points: 2
#     Edge 17, Type (0, 0), BuildingBlock: UVAHIK_clean_linker_0, # of connection points: 2
#     Edge 18, Type (0, 0), BuildingBlock: UVAHIK_clean_linker_0, # of connection points: 2
#     Edge 19, Type (0, 0), BuildingBlock: UVAHIK_clean_linker_0, # of connection points: 2
#     Edge 20, Type (0, 0), BuildingBlock: UVAHIK_clean_linker_0, # of connection points: 2
#     Edge 21, Type (0, 0), BuildingBlock: UVAHIK_clean_linker_0, # of connection points: 2
#     Edge 22, Type (0, 0), BuildingBlock: UVAHIK_clean_linker_0, # of connection points: 2
#     Edge 23, Type (0, 0), BuildingBlock: UVAHIK_clean_linker_0, # of connection points: 2
#     Edge 24, Type (0, 0), BuildingBlock: UVAHIK_clean_linker_0, # of connection points: 2
#     Edge 25, Type (0, 0), BuildingBlock: UVAHIK_clean_linker_0, # of connection points: 2
#     Edge 26, Type (0, 0), BuildingBlock: UVAHIK_clean_linker_0, # of connection points: 2
#     Edge 27, Type (0, 0), BuildingBlock: UVAHIK_clean_linker_0, # of connection points: 2
#     Edge 28, Type (0, 0), BuildingBlock: UVAHIK_clean_linker_0, # of connection points: 2
#     Edge 29, Type (0, 0), BuildingBlock: UVAHIK_clean_linker_0, # of connection points: 2
#     Edge 30, Type (0, 0), BuildingBlock: UVAHIK_clean_linker_0, # of connection points: 2
#     Edge 31, Type (0, 0), BuildingBlock: UVAHIK_clean_linker_0, # of connection points: 2
#     Edge 32, Type (0, 0), BuildingBlock: UVAHIK_clean_linker_0, # of connection points: 2
#     Edge 33, Type (0, 0), BuildingBlock: UVAHIK_clean_linker_0, # of connection points: 2
#     Edge 34, Type (0, 0), BuildingBlock: UVAHIK_clean_linker_0, # of connection points: 2
#     Edge 35, Type (0, 0), BuildingBlock: UVAHIK_clean_linker_0, # of connection points: 2
#     Edge 36, Type (0, 0), BuildingBlock: UVAHIK_clean_linker_0, # of connection points: 2
#     Edge 37, Type (0, 0), BuildingBlock: UVAHIK_clean_linker_0, # of connection points: 2
#     Edge 38, Type (0, 0), BuildingBlock: UVAHIK_clean_linker_0, # of connection points: 2
#     Edge 39, Type (0, 0), BuildingBlock: UVAHIK_clean_linker_0, # of connection points: 2
#     Edge 40, Type (0, 0), BuildingBlock: UVAHIK_clean_linker_0, # of connection points: 2
#     Edge 41, Type (0, 0), BuildingBlock: UVAHIK_clean_linker_0, # of connection points: 2
#     Edge 42, Type (0, 0), BuildingBlock: UVAHIK_clean_linker_0, # of connection points: 2
#     Edge 43, Type (0, 0), BuildingBlock: UVAHIK_clean_linker_0, # of connection points: 2
#     Edge 44, Type (0, 0), BuildingBlock: UVAHIK_clean_linker_0, # of connection points: 2
#     Edge 45, Type (0, 0), BuildingBlock: UVAHIK_clean_linker_0, # of connection points: 2
#     Edge 46, Type (0, 0), BuildingBlock: UVAHIK_clean_linker_0, # of connection points: 2
#     Edge 47, Type (0, 0), BuildingBlock: UVAHIK_clean_linker_0, # of connection points: 2
# Relax obj value: 0.078
# Max RMSD: 0.115
# Mean RMSD: 0.115
data_MOF--net-uot--node1-KUFVIS_clean_sbu_0--edge1-UVAHIK_clean_linker_0
_symmetry_space_group_name_H-M    P1
_symmetry_Int_Tables_number       1
_symmetry_cell_setting            triclinic
loop_
_symmetry_equiv_pos_as_xyz
'x, y, z'
_cell_length_a     56.611578
_cell_length_b     56.614848
_cell_length_c     52.270538
_cell_angle_alpha  90.013917
_cell_angle_beta   90.001225
_cell_angle_gamma 89.996304
loop_
_atom_site_label
_atom_site_type_symbol
_atom_site_fract_x
_atom_site_fract_y
_atom_site_fract_z
_atom_type_partial_charge
Mn0 Mn 0.20844 0.45146 0.31861 0.0
Mn1 Mn 0.19598 0.40011 0.3483 0.0
C2 C 0.18639 0.42306 0.29784 0.0
C3 C 0.19893 0.49076 0.31078 0.0
C4 C 0.24421 0.41218 0.32638 0.0
O5 O 0.21552 0.45833 0.35607 0.0
O6 O 0.20254 0.4247 0.3745 0.0
C7 C 0.15088 0.41287 0.37336 0.0
N8 N 0.16325 0.39873 0.35709 0.0
C9 C 0.12867 0.37554 0.34781 0.0
C10 C 0.11559 0.38976 0.36459 0.0
C11 C 0.12674 0.40853 0.37739 0.0
C12 C 0.15271 0.38061 0.3447 0.0
H13 H 0.15938 0.42737 0.38314 0.0
C14 C 0.21081 0.44576 0.37572 0.0
O15 O 0.22039 0.48306 0.30791 0.0
O16 O 0.18321 0.47573 0.31857 0.0
N17 N 0.18911 0.37499 0.32493 0.0
C18 C 0.20389 0.36386 0.30826 0.0
C19 C 0.19529 0.34512 0.29331 0.0
C20 C 0.17163 0.33797 0.29573 0.0
C21 C 0.15681 0.34957 0.31316 0.0
C22 C 0.16642 0.36798 0.32772 0.0
H23 H 0.22207 0.36931 0.30626 0.0
O24 O 0.19704 0.43942 0.28481 0.0
O25 O 0.18881 0.42409 0.32252 0.0
O26 O 0.23849 0.43161 0.31576 0.0
O27 O 0.22993 0.39967 0.33962 0.0
C28 C 0.13274 0.34391 0.31629 0.0
C29 C 0.11869 0.35688 0.33359 0.0
H30 H 0.09693 0.38658 0.36761 0.0
H31 H 0.11673 0.41966 0.39027 0.0
H32 H 0.20683 0.33628 0.27987 0.0
H33 H 0.16499 0.32368 0.28397 0.0
H34 H 0.12479 0.32983 0.3052 0.0
H35 H 0.10013 0.35259 0.33555 0.0
Mn36 Mn 0.44803 0.79125 0.68133 0.0
Mn37 Mn 0.39669 0.79823 0.64965 0.0
C38 C 0.41722 0.81115 0.70059 0.0
C39 C 0.48609 0.80467 0.68962 0.0
C40 C 0.4125 0.75188 0.67348 0.0
O41 O 0.45646 0.7837 0.64439 0.0
O42 O 0.42253 0.79355 0.62444 0.0
C43 C 0.40569 0.84377 0.62366 0.0
N44 N 0.39234 0.83042 0.6398 0.0
C45 C 0.36519 0.86249 0.64668 0.0
C46 C 0.37856 0.87655 0.63001 0.0
C47 C 0.39893 0.86716 0.6185 0.0
C48 C 0.37272 0.83928 0.65099 0.0
H49 H 0.42139 0.83661 0.61483 0.0
C50 C 0.44422 0.78699 0.62417 0.0
O51 O 0.4804 0.78269 0.69325 0.0
O52 O 0.46978 0.81861 0.68095 0.0
N53 N 0.37035 0.80312 0.67199 0.0
C54 C 0.36039 0.78779 0.68894 0.0
C55 C 0.34036 0.79479 0.70286 0.0
C56 C 0.3307 0.81738 0.69909 0.0
C57 C 0.34117 0.83277 0.68141 0.0
C58 C 0.36104 0.82479 0.668 0.0
H59 H 0.36773 0.77041 0.69192 0.0
O60 O 0.43419 0.80245 0.71437 0.0
O61 O 0.41908 0.80822 0.67602 0.0
O62 O 0.4309 0.75959 0.68478 0.0
O63 O 0.39928 0.76463 0.65928 0.0
C64 C 0.33293 0.85588 0.67691 0.0
C65 C 0.34496 0.87075 0.6596 0.0
H66 H 0.37349 0.89464 0.6261 0.0
H67 H 0.40942 0.87793 0.60572 0.0
H68 H 0.33241 0.78282 0.71652 0.0
H69 H 0.31536 0.82278 0.71001 0.0
H70 H 0.31759 0.86254 0.68699 0.0
H71 H 0.33869 0.88862 0.65665 0.0
Mn72 Mn 0.79042 0.5474 0.31803 0.0
Mn73 Mn 0.80273 0.59862 0.34806 0.0
C74 C 0.81239 0.57597 0.29747 0.0
C75 C 0.80005 0.50818 0.30995 0.0
C76 C 0.75454 0.58651 0.32611 0.0
O77 O 0.78336 0.54031 0.35542 0.0
O78 O 0.79624 0.57388 0.37409 0.0
C79 C 0.84786 0.58591 0.37309 0.0
N80 N 0.83545 0.60007 0.35688 0.0
C81 C 0.86995 0.62345 0.34779 0.0
C82 C 0.88307 0.6092 0.36451 0.0
C83 C 0.87197 0.59033 0.37718 0.0
C84 C 0.84594 0.6183 0.34462 0.0
H85 H 0.83941 0.57133 0.38276 0.0
C86 C 0.78802 0.5528 0.37516 0.0
O87 O 0.77857 0.51583 0.30711 0.0
O88 O 0.81572 0.52322 0.31783 0.0
N89 N 0.80953 0.62388 0.32485 0.0
C90 C 0.79472 0.63503 0.30822 0.0
C91 C 0.80327 0.65387 0.2934 0.0
C92 C 0.8269 0.6611 0.29589 0.0
C93 C 0.84175 0.64947 0.31327 0.0
C94 C 0.83219 0.63095 0.3277 0.0
H95 H 0.77657 0.62952 0.30618 0.0
O96 O 0.80179 0.55967 0.28431 0.0
O97 O 0.80996 0.5748 0.32214 0.0
O98 O 0.7603 0.56716 0.31533 0.0
O99 O 0.7688 0.599 0.33939 0.0
C100 C 0.86579 0.65521 0.31646 0.0
C101 C 0.87988 0.64221 0.33371 0.0
H102 H 0.90171 0.61244 0.36757 0.0
H103 H 0.88201 0.57918 0.39001 0.0
H104 H 0.79171 0.66273 0.27999 0.0
H105 H 0.83349 0.67546 0.28422 0.0
H106 H 0.8737 0.66937 0.30546 0.0
H107 H 0.89842 0.64657 0.33572 0.0
Mn108 Mn 0.55006 0.20733 0.68172 0.0
Mn109 Mn 0.60061 0.19834 0.64909 0.0
C110 C 0.58067 0.18698 0.70077 0.0
C111 C 0.51166 0.19568 0.69116 0.0
C112 C 0.58663 0.24549 0.67235 0.0
O113 O 0.54113 0.21444 0.6448 0.0
O114 O 0.57443 0.20336 0.62438 0.0
C115 C 0.58972 0.15263 0.62429 0.0
N116 N 0.60383 0.16588 0.63975 0.0
C117 C 0.63045 0.1333 0.64624 0.0
C118 C 0.61628 0.11933 0.63025 0.0
C119 C 0.59579 0.12903 0.6193 0.0
C120 C 0.62353 0.15672 0.65046 0.0
H121 H 0.57395 0.16004 0.61585 0.0
C122 C 0.55294 0.2105 0.62442 0.0
O123 O 0.51838 0.21746 0.69405 0.0
O124 O 0.52718 0.1808 0.68259 0.0
N125 N 0.62732 0.19309 0.67079 0.0
C126 C 0.63817 0.20845 0.68707 0.0
C127 C 0.65849 0.20122 0.70034 0.0
C128 C 0.66754 0.17838 0.69658 0.0
C129 C 0.65618 0.16296 0.67957 0.0
C130 C 0.63603 0.17117 0.66683 0.0
H131 H 0.63133 0.22605 0.68998 0.0
O132 O 0.56418 0.19638 0.7147 0.0
O133 O 0.57843 0.18939 0.67616 0.0
O134 O 0.56821 0.23845 0.68409 0.0
O135 O 0.59924 0.23217 0.65811 0.0
C136 C 0.66382 0.13965 0.67508 0.0
C137 C 0.65092 0.1248 0.6585 0.0
H138 H 0.62085 0.10109 0.62644 0.0
H139 H 0.58471 0.11832 0.60704 0.0
H140 H 0.66714 0.21321 0.71347 0.0
H141 H 0.68312 0.17281 0.70699 0.0
H142 H 0.67939 0.13284 0.68461 0.0
H143 H 0.65674 0.10677 0.65557 0.0
Mn144 Mn 0.20705 0.55031 0.68167 0.0
Mn145 Mn 0.20056 0.60133 0.64927 0.0
C146 C 0.18776 0.58164 0.70066 0.0
C147 C 0.19319 0.51251 0.69048 0.0
C148 C 0.24681 0.58531 0.67315 0.0
O149 O 0.21432 0.54129 0.64482 0.0
O150 O 0.2049 0.5751 0.62443 0.0
C151 C 0.1548 0.59235 0.62371 0.0
N152 N 0.16836 0.60584 0.6395 0.0
C153 C 0.13657 0.63339 0.6461 0.0
C154 C 0.1223 0.61987 0.62977 0.0
C155 C 0.13144 0.59924 0.61858 0.0
C156 C 0.15974 0.62571 0.65039 0.0
H157 H 0.16176 0.57645 0.61513 0.0
C158 C 0.21117 0.55334 0.62445 0.0
O159 O 0.21526 0.51796 0.69394 0.0
O160 O 0.17941 0.52892 0.68174 0.0
N161 N 0.19604 0.62807 0.67113 0.0
C162 C 0.21159 0.63821 0.68773 0.0
C163 C 0.20488 0.65857 0.70126 0.0
C164 C 0.18235 0.66836 0.69746 0.0
C165 C 0.16674 0.65772 0.68013 0.0
C166 C 0.17444 0.63753 0.66709 0.0
H167 H 0.22893 0.63077 0.69072 0.0
O168 O 0.19626 0.56468 0.71458 0.0
O169 O 0.19044 0.57945 0.67608 0.0
O170 O 0.23895 0.56709 0.68468 0.0
O171 O 0.23416 0.59852 0.65884 0.0
C172 C 0.14367 0.66609 0.67563 0.0
C173 C 0.12858 0.6539 0.65868 0.0
H174 H 0.10423 0.62505 0.62589 0.0
H175 H 0.12049 0.58865 0.60607 0.0
H176 H 0.21702 0.66665 0.71464 0.0
H177 H 0.17717 0.68395 0.7081 0.0
H178 H 0.13723 0.68167 0.68543 0.0
H179 H 0.11075 0.66028 0.65573 0.0
Mn180 Mn 0.54926 0.79222 0.31891 0.0
Mn181 Mn 0.60035 0.80182 0.35036 0.0
C182 C 0.57944 0.8126 0.29903 0.0
C183 C 0.51068 0.80364 0.30996 0.0
C184 C 0.58628 0.75438 0.32791 0.0
O185 O 0.54098 0.78543 0.3561 0.0
O186 O 0.57468 0.7967 0.37562 0.0
C187 C 0.58954 0.84757 0.3751 0.0
N188 N 0.60348 0.83434 0.35943 0.0
C189 C 0.6299 0.867 0.35244 0.0
C190 C 0.6159 0.88096 0.36862 0.0
C191 C 0.5956 0.87122 0.37992 0.0
C192 C 0.62299 0.84355 0.34837 0.0
H193 H 0.57394 0.84012 0.38383 0.0
C194 C 0.55323 0.78946 0.37615 0.0
O195 O 0.51743 0.78185 0.30725 0.0
O196 O 0.52626 0.81865 0.31814 0.0
N197 N 0.62664 0.80714 0.32809 0.0
C198 C 0.63732 0.79178 0.3117 0.0
C199 C 0.65743 0.79905 0.29807 0.0
C200 C 0.66646 0.82192 0.30163 0.0
C201 C 0.65528 0.83734 0.31879 0.0
C202 C 0.63532 0.82911 0.33184 0.0
H203 H 0.63051 0.77415 0.30895 0.0
O204 O 0.56279 0.80293 0.28554 0.0
O205 O 0.57762 0.8104 0.3237 0.0
O206 O 0.56754 0.76113 0.31657 0.0
O207 O 0.5991 0.76797 0.34161 0.0
C208 C 0.66294 0.86066 0.32315 0.0
C209 C 0.65021 0.87552 0.33988 0.0
H210 H 0.62047 0.89922 0.37233 0.0
H211 H 0.58465 0.88191 0.39234 0.0
H212 H 0.66594 0.78705 0.28485 0.0
H213 H 0.68189 0.82751 0.29098 0.0
H214 H 0.67839 0.86748 0.3134 0.0
H215 H 0.65603 0.89356 0.3427 0.0
Mn216 Mn 0.7923 0.44813 0.68081 0.0
Mn217 Mn 0.79942 0.3971 0.64857 0.0
C218 C 0.81167 0.41699 0.70004 0.0
C219 C 0.80589 0.48603 0.68955 0.0
C220 C 0.75285 0.41289 0.67195 0.0
O221 O 0.7852 0.45697 0.6439 0.0
O222 O 0.79514 0.42324 0.62363 0.0
C223 C 0.84535 0.40627 0.62346 0.0
N224 N 0.83172 0.39274 0.63914 0.0
C225 C 0.86356 0.36533 0.64604 0.0
C226 C 0.87791 0.37888 0.62983 0.0
C227 C 0.86877 0.39947 0.61855 0.0
C228 C 0.84033 0.37292 0.65013 0.0
H229 H 0.83838 0.42213 0.6148 0.0
C230 C 0.78863 0.44493 0.62357 0.0
O231 O 0.78384 0.48048 0.69291 0.0
O232 O 0.81982 0.46966 0.68098 0.0
N233 N 0.80388 0.37043 0.67053 0.0
C234 C 0.78825 0.36025 0.687 0.0
C235 C 0.79494 0.33994 0.70062 0.0
C236 C 0.81753 0.33022 0.69702 0.0
C237 C 0.83324 0.3409 0.67981 0.0
C238 C 0.82556 0.36105 0.6667 0.0
H239 H 0.77087 0.36762 0.68983 0.0
O240 O 0.80297 0.43394 0.71385 0.0
O241 O 0.80914 0.4191 0.67544 0.0
O242 O 0.76049 0.43115 0.68359 0.0
O243 O 0.76573 0.39975 0.65778 0.0
C244 C 0.85636 0.3326 0.6755 0.0
C245 C 0.87153 0.34484 0.65868 0.0
H246 H 0.89603 0.37377 0.62611 0.0
H247 H 0.87977 0.41009 0.60613 0.0
H248 H 0.78274 0.33182 0.7139 0.0
H249 H 0.82269 0.31467 0.70771 0.0
H250 H 0.86278 0.31705 0.68536 0.0
H251 H 0.88941 0.33852 0.65589 0.0
Mn252 Mn 0.44841 0.20553 0.31946 0.0
Mn253 Mn 0.39667 0.19729 0.35001 0.0
C254 C 0.41814 0.18561 0.29921 0.0
C255 C 0.48673 0.19263 0.31151 0.0
C256 C 0.4122 0.24428 0.3275 0.0
O257 O 0.45622 0.21249 0.35672 0.0
O258 O 0.42204 0.20199 0.37577 0.0
C259 C 0.40598 0.15148 0.37532 0.0
N260 N 0.39266 0.1649 0.35921 0.0
C261 C 0.36592 0.13264 0.3515 0.0
C262 C 0.37927 0.11851 0.36812 0.0
C263 C 0.39942 0.12796 0.38002 0.0
C264 C 0.37327 0.15598 0.34762 0.0
H265 H 0.42149 0.1587 0.38447 0.0
C266 C 0.44362 0.20881 0.3766 0.0
O267 O 0.48088 0.21463 0.30828 0.0
O268 O 0.47044 0.1784 0.31962 0.0
N269 N 0.37072 0.19239 0.32716 0.0
C270 C 0.36077 0.20784 0.31033 0.0
C271 C 0.34096 0.20082 0.29605 0.0
C272 C 0.33149 0.17809 0.29938 0.0
C273 C 0.34194 0.16257 0.31695 0.0
C274 C 0.36161 0.17056 0.33069 0.0
H275 H 0.36796 0.22533 0.30772 0.0
O276 O 0.43519 0.1948 0.28593 0.0
O277 O 0.4196 0.18809 0.32387 0.0
O278 O 0.43094 0.23709 0.31644 0.0
O279 O 0.3989 0.23103 0.34105 0.0
C280 C 0.33386 0.13934 0.32105 0.0
C281 C 0.34588 0.12437 0.33826 0.0
H282 H 0.37434 0.10032 0.37171 0.0
H283 H 0.40988 0.11713 0.39278 0.0
H284 H 0.33303 0.21289 0.28249 0.0
H285 H 0.31631 0.17269 0.2882 0.0
H286 H 0.31866 0.13269 0.31073 0.0
H287 H 0.33975 0.10641 0.34089 0.0
Mn288 Mn 0.70751 0.95142 0.81806 0.0
Mn289 Mn 0.69453 0.90095 0.84916 0.0
C290 C 0.68564 0.92258 0.79784 0.0
C291 C 0.69799 0.99054 0.80927 0.0
C292 C 0.74306 0.91231 0.82755 0.0
O293 O 0.7143 0.95916 0.85533 0.0
O294 O 0.70079 0.92622 0.87472 0.0
C295 C 0.64912 0.91441 0.87311 0.0
N296 N 0.66168 0.89984 0.85747 0.0
C297 C 0.62718 0.87648 0.84831 0.0
C298 C 0.6139 0.89115 0.86446 0.0
C299 C 0.62492 0.91021 0.87687 0.0
C300 C 0.65127 0.88142 0.84546 0.0
H301 H 0.65751 0.92914 0.88258 0.0
C302 C 0.70925 0.94723 0.87534 0.0
O303 O 0.71949 0.98283 0.80666 0.0
O304 O 0.68226 0.97561 0.81722 0.0
N305 N 0.68793 0.87524 0.82646 0.0
C306 C 0.70292 0.86367 0.81036 0.0
C307 C 0.69448 0.84459 0.79582 0.0
C308 C 0.67077 0.83755 0.79806 0.0
C309 C 0.65574 0.8496 0.81491 0.0
C310 C 0.6652 0.86835 0.82908 0.0
H311 H 0.72113 0.86904 0.8085 0.0
O312 O 0.69641 0.93862 0.78448 0.0
O313 O 0.68779 0.92421 0.82251 0.0
O314 O 0.73756 0.93143 0.81613 0.0
O315 O 0.72856 0.90027 0.841 0.0
C316 C 0.63162 0.84407 0.8178 0.0
C317 C 0.61735 0.8575 0.83449 0.0
H318 H 0.59519 0.88808 0.86726 0.0
H319 H 0.61475 0.92168 0.88925 0.0
H320 H 0.70618 0.8354 0.78282 0.0
H321 H 0.66426 0.82299 0.7866 0.0
H322 H 0.62378 0.82975 0.80699 0.0
H323 H 0.59876 0.85329 0.83627 0.0
Mn324 Mn 0.94785 0.29268 0.18126 0.0
Mn325 Mn 0.89682 0.29997 0.14907 0.0
C326 C 0.91674 0.31207 0.20054 0.0
C327 C 0.98578 0.30621 0.19011 0.0
C328 C 0.91248 0.25332 0.17233 0.0
O329 O 0.95669 0.28566 0.14432 0.0
O330 O 0.92294 0.29563 0.12412 0.0
C331 C 0.90611 0.34589 0.12399 0.0
N332 N 0.89255 0.33229 0.13967 0.0
C333 C 0.86519 0.36418 0.14656 0.0
C334 C 0.87878 0.3785 0.13037 0.0
C335 C 0.89936 0.36932 0.11909 0.0
C336 C 0.87274 0.34094 0.15065 0.0
H337 H 0.92196 0.33889 0.11534 0.0
C338 C 0.94463 0.28911 0.12401 0.0
O339 O 0.98019 0.28414 0.19336 0.0
O340 O 0.96944 0.32016 0.18156 0.0
N341 N 0.87016 0.3045 0.17104 0.0
C342 C 0.85994 0.28889 0.1875 0.0
C343 C 0.83963 0.29561 0.20112 0.0
C344 C 0.82997 0.31822 0.19752 0.0
C345 C 0.84069 0.33391 0.18032 0.0
C346 C 0.86083 0.32619 0.16721 0.0
H347 H 0.86728 0.27148 0.19033 0.0
O348 O 0.93366 0.30329 0.21433 0.0
O349 O 0.91885 0.30959 0.17593 0.0
O350 O 0.9308 0.26088 0.18393 0.0
O351 O 0.89936 0.26628 0.15824 0.0
C352 C 0.83243 0.35704 0.17601 0.0
C353 C 0.84471 0.37219 0.1592 0.0
H354 H 0.8737 0.39662 0.12664 0.0
H355 H 0.91001 0.3803 0.10667 0.0
H356 H 0.83148 0.28342 0.21439 0.0
H357 H 0.81441 0.32341 0.2082 0.0
H358 H 0.81687 0.36348 0.18585 0.0
H359 H 0.83842 0.39007 0.1564 0.0
Mn360 Mn 0.29174 0.04915 0.81744 0.0
Mn361 Mn 0.30197 0.09963 0.84977 0.0
C362 C 0.3127 0.07924 0.79817 0.0
C363 C 0.3026 0.01052 0.80796 0.0
C364 C 0.25437 0.08648 0.82702 0.0
O365 O 0.2847 0.04052 0.85446 0.0
O366 O 0.2966 0.07367 0.87465 0.0
C367 C 0.34759 0.08813 0.87441 0.0
N368 N 0.33452 0.10233 0.85887 0.0
C369 C 0.36747 0.12844 0.85214 0.0
C370 C 0.38127 0.11417 0.86818 0.0
C371 C 0.3713 0.09388 0.8793 0.0
C372 C 0.34395 0.12185 0.84803 0.0
H373 H 0.33997 0.07254 0.88299 0.0
C374 C 0.289 0.05233 0.87476 0.0
O375 O 0.28093 0.01764 0.80526 0.0
O376 O 0.31782 0.02577 0.81642 0.0
N377 N 0.30757 0.12608 0.82781 0.0
C378 C 0.29236 0.13701 0.81144 0.0
C379 C 0.29988 0.1571 0.79795 0.0
C380 C 0.32286 0.16584 0.80159 0.0
C381 C 0.33813 0.15438 0.81868 0.0
C382 C 0.32965 0.13447 0.83162 0.0
H383 H 0.27466 0.13041 0.80862 0.0
O384 O 0.30281 0.06297 0.78434 0.0
O385 O 0.31032 0.07713 0.82278 0.0
O386 O 0.26093 0.0679 0.81526 0.0
O387 O 0.26808 0.09886 0.84104 0.0
C388 C 0.36155 0.16172 0.82307 0.0
C389 C 0.37624 0.14872 0.83973 0.0
H390 H 0.39959 0.11849 0.87192 0.0
H391 H 0.38187 0.08272 0.89161 0.0
H392 H 0.288 0.16581 0.78476 0.0
H393 H 0.32864 0.18125 0.79103 0.0
H394 H 0.36858 0.17712 0.8134 0.0
H395 H 0.39436 0.1543 0.84258 0.0
Mn396 Mn 0.05138 0.70606 0.1817 0.0
Mn397 Mn 0.10244 0.69873 0.14958 0.0
C398 C 0.08251 0.68678 0.20109 0.0
C399 C 0.01346 0.69255 0.19057 0.0
C400 C 0.08666 0.74544 0.17261 0.0
O401 O 0.04254 0.71289 0.14472 0.0
O402 O 0.07632 0.70288 0.12458 0.0
C403 C 0.09327 0.65267 0.12473 0.0
N404 N 0.10679 0.66638 0.14035 0.0
C405 C 0.13421 0.63457 0.14745 0.0
C406 C 0.12066 0.62014 0.13131 0.0
C407 C 0.10007 0.62922 0.11996 0.0
C408 C 0.12661 0.65782 0.15141 0.0
H409 H 0.07742 0.65959 0.11602 0.0
C410 C 0.05462 0.70935 0.12444 0.0
O411 O 0.01903 0.71463 0.19373 0.0
O412 O 0.02982 0.67856 0.18211 0.0
N413 N 0.12908 0.69436 0.17161 0.0
C414 C 0.13925 0.71007 0.18802 0.0
C415 C 0.15954 0.70344 0.20171 0.0
C416 C 0.16926 0.68084 0.19824 0.0
C417 C 0.1586 0.66506 0.18109 0.0
C418 C 0.13846 0.67267 0.16791 0.0
H419 H 0.13186 0.72747 0.19075 0.0
O420 O 0.06557 0.6956 0.21484 0.0
O421 O 0.08041 0.68916 0.17647 0.0
O422 O 0.06837 0.73788 0.18425 0.0
O423 O 0.09981 0.73246 0.15857 0.0
C424 C 0.16691 0.64192 0.17691 0.0
C425 C 0.15469 0.62666 0.16016 0.0
H426 H 0.12578 0.60201 0.12769 0.0
H427 H 0.08946 0.61816 0.10758 0.0
H428 H 0.16764 0.71571 0.21494 0.0
H429 H 0.18481 0.67573 0.20897 0.0
H430 H 0.18246 0.63555 0.18682 0.0
H431 H 0.16101 0.60878 0.15746 0.0
Mn432 Mn 0.70835 0.04735 0.18207 0.0
Mn433 Mn 0.69683 0.09883 0.1522 0.0
C434 C 0.68678 0.07619 0.20272 0.0
C435 C 0.69805 0.00826 0.18986 0.0
C436 C 0.7448 0.08598 0.17426 0.0
O437 O 0.71538 0.04027 0.14467 0.0
O438 O 0.70304 0.07407 0.12609 0.0
C439 C 0.65158 0.08676 0.12707 0.0
N440 N 0.66415 0.10073 0.14334 0.0
C441 C 0.62991 0.12445 0.15256 0.0
C442 C 0.61663 0.1104 0.13578 0.0
C443 C 0.62751 0.09146 0.12301 0.0
C444 C 0.65387 0.11902 0.15569 0.0
H445 H 0.65986 0.07211 0.11734 0.0
C446 C 0.71095 0.05286 0.12497 0.0
O447 O 0.71964 0.01554 0.19286 0.0
O448 O 0.68265 0.0236 0.18203 0.0
N449 N 0.69033 0.12411 0.1755 0.0
C450 C 0.70526 0.13503 0.19218 0.0
C451 C 0.69692 0.15391 0.2071 0.0
C452 C 0.67338 0.16141 0.20464 0.0
C453 C 0.6584 0.15002 0.1872 0.0
C454 C 0.66776 0.13146 0.17267 0.0
H455 H 0.72335 0.1293 0.1942 0.0
O456 O 0.69709 0.05967 0.21581 0.0
O457 O 0.68922 0.07506 0.17805 0.0
O458 O 0.73875 0.06668 0.18495 0.0
O459 O 0.73076 0.0987 0.16097 0.0
C460 C 0.63442 0.15604 0.18405 0.0
C461 C 0.62019 0.14326 0.16674 0.0
H462 H 0.59802 0.11386 0.13274 0.0
H463 H 0.61735 0.08046 0.11014 0.0
H464 H 0.70859 0.16258 0.22055 0.0
H465 H 0.66694 0.1758 0.21639 0.0
H466 H 0.62667 0.17023 0.19513 0.0
H467 H 0.6017 0.14783 0.16477 0.0
Mn468 Mn 0.04657 0.29044 0.81812 0.0
Mn469 Mn 0.09779 0.30288 0.8481 0.0
C470 C 0.07516 0.31231 0.79746 0.0
C471 C 0.00736 0.30007 0.80997 0.0
C472 C 0.08568 0.2546 0.82637 0.0
O473 O 0.03946 0.28355 0.85556 0.0
O474 O 0.07304 0.29648 0.87415 0.0
C475 C 0.08505 0.3481 0.87291 0.0
N476 N 0.09923 0.33563 0.85677 0.0
C477 C 0.12262 0.37009 0.84755 0.0
C478 C 0.10836 0.38327 0.8642 0.0
C479 C 0.08947 0.37223 0.8769 0.0
C480 C 0.11747 0.34606 0.84448 0.0
H481 H 0.07046 0.33969 0.88262 0.0
C482 C 0.05195 0.28827 0.87526 0.0
O483 O 0.01499 0.27857 0.80724 0.0
O484 O 0.0224 0.31576 0.81779 0.0
N485 N 0.12306 0.30958 0.82487 0.0
C486 C 0.13424 0.2947 0.80834 0.0
C487 C 0.1531 0.30319 0.7935 0.0
C488 C 0.16033 0.32682 0.79589 0.0
C489 C 0.14868 0.34175 0.81319 0.0
C490 C 0.13014 0.33225 0.82763 0.0
H491 H 0.12872 0.27654 0.80637 0.0
O492 O 0.05886 0.30166 0.78435 0.0
O493 O 0.07397 0.31 0.82214 0.0
O494 O 0.06632 0.26031 0.81557 0.0
O495 O 0.09817 0.26892 0.83957 0.0
C496 C 0.15443 0.36579 0.81628 0.0
C497 C 0.14141 0.37995 0.83345 0.0
H498 H 0.1116 0.40192 0.86719 0.0
H499 H 0.07831 0.38232 0.88968 0.0
H500 H 0.16198 0.29157 0.78016 0.0
H501 H 0.17472 0.33336 0.78421 0.0
H502 H 0.1686 0.37366 0.80527 0.0
H503 H 0.14577 0.39849 0.83539 0.0
Mn504 Mn 0.2917 0.94913 0.18039 0.0
Mn505 Mn 0.30125 0.89769 0.14961 0.0
C506 C 0.31244 0.91932 0.20047 0.0
C507 C 0.30292 0.98786 0.18886 0.0
C508 C 0.25393 0.91186 0.17227 0.0
O509 O 0.28465 0.95694 0.14313 0.0
O510 O 0.29581 0.923 0.124 0.0
C511 C 0.34673 0.90831 0.12421 0.0
N512 N 0.33371 0.89457 0.14028 0.0
C513 C 0.3666 0.86849 0.14752 0.0
C514 C 0.38034 0.88229 0.13094 0.0
C515 C 0.37037 0.90232 0.1193 0.0
C516 C 0.34313 0.8753 0.15164 0.0
H517 H 0.33911 0.92371 0.11524 0.0
C518 C 0.28856 0.94445 0.12322 0.0
O519 O 0.28119 0.981 0.19173 0.0
O520 O 0.31799 0.97231 0.18072 0.0
N521 N 0.3069 0.87178 0.1723 0.0
C522 C 0.29175 0.86133 0.1891 0.0
C523 C 0.29928 0.84155 0.20311 0.0
C524 C 0.32219 0.8326 0.19953 0.0
C525 C 0.33738 0.84355 0.18199 0.0
C526 C 0.3289 0.86318 0.16854 0.0
H527 H 0.27411 0.86809 0.19187 0.0
O528 O 0.30272 0.93603 0.21384 0.0
O529 O 0.30999 0.92083 0.17581 0.0
O530 O 0.26072 0.93076 0.18324 0.0
O531 O 0.26743 0.89889 0.15864 0.0
C532 C 0.36074 0.83599 0.17761 0.0
C533 C 0.37537 0.8485 0.16045 0.0
H534 H 0.39861 0.87778 0.12717 0.0
H535 H 0.3809 0.91312 0.10657 0.0
H536 H 0.28745 0.83322 0.21664 0.0
H537 H 0.32798 0.81743 0.21049 0.0
H538 H 0.36777 0.82081 0.18767 0.0
H539 H 0.39343 0.84276 0.15762 0.0
Mn540 Mn 0.95232 0.70746 0.81845 0.0
Mn541 Mn 0.90134 0.69412 0.84845 0.0
C542 C 0.92382 0.68567 0.79753 0.0
C543 C 0.99158 0.69816 0.80999 0.0
C544 C 0.91289 0.74282 0.82749 0.0
O545 O 0.95953 0.71388 0.85596 0.0
O546 O 0.92614 0.70041 0.87448 0.0
C547 C 0.91467 0.64869 0.87242 0.0
N548 N 0.90027 0.66123 0.85658 0.0
C549 C 0.87717 0.62668 0.84694 0.0
C550 C 0.89166 0.61341 0.86327 0.0
C551 C 0.91051 0.62446 0.87603 0.0
C552 C 0.88207 0.65079 0.84423 0.0
H553 H 0.92923 0.65711 0.88216 0.0
C554 C 0.94716 0.7088 0.87564 0.0
O555 O 0.98383 0.71965 0.80762 0.0
O556 O 0.97663 0.6823 0.81761 0.0
N557 N 0.87601 0.68748 0.82527 0.0
C558 C 0.86458 0.70248 0.80908 0.0
C559 C 0.8457 0.69402 0.79424 0.0
C560 C 0.83872 0.67028 0.79628 0.0
C561 C 0.85063 0.65523 0.81323 0.0
C562 C 0.86917 0.66471 0.8277 0.0
H563 H 0.8699 0.72072 0.80739 0.0
O564 O 0.93999 0.69663 0.78454 0.0
O565 O 0.92509 0.68763 0.82224 0.0
O566 O 0.93229 0.73749 0.81654 0.0
O567 O 0.90059 0.72817 0.84047 0.0
C568 C 0.84513 0.63109 0.81597 0.0
C569 C 0.8584 0.61682 0.8328 0.0
H570 H 0.88862 0.59469 0.86597 0.0
H571 H 0.92185 0.61431 0.88856 0.0
H572 H 0.83662 0.70574 0.78117 0.0
H573 H 0.82432 0.66376 0.7846 0.0
H574 H 0.83097 0.62324 0.80493 0.0
H575 H 0.85423 0.59822 0.83446 0.0
C576 C 0.28194 0.40811 0.30147 0.0
C577 C 0.26864 0.4035 0.32364 0.0
C578 C 0.30447 0.39822 0.29851 0.0
C579 C 0.33983 0.35646 0.29322 0.0
H580 H 0.38273 0.35256 0.35091 0.0
C581 C 0.39269 0.28008 0.34482 0.0
C582 C 0.40501 0.26917 0.32476 0.0
C583 C 0.38345 0.30267 0.34184 0.0
C584 C 0.37116 0.35373 0.33446 0.0
H585 H 0.2688 0.386 0.36053 0.0
H586 H 0.30805 0.36919 0.35559 0.0
H587 H 0.35149 0.38229 0.35079 0.0
H588 H 0.4182 0.27361 0.28614 0.0
H589 H 0.40133 0.31333 0.28062 0.0
H590 H 0.35827 0.32663 0.27786 0.0
C591 C 0.30115 0.3803 0.34045 0.0
C592 C 0.35333 0.37072 0.33438 0.0
C593 C 0.27858 0.38971 0.34317 0.0
C594 C 0.40879 0.2817 0.30191 0.0
C595 C 0.39912 0.30432 0.29874 0.0
C596 C 0.35764 0.33934 0.29334 0.0
C597 C 0.31419 0.38414 0.31798 0.0
C598 C 0.33674 0.37137 0.31443 0.0
C599 C 0.38606 0.31485 0.3186 0.0
C600 C 0.37259 0.33699 0.31466 0.0
H601 H 0.27461 0.41865 0.2861 0.0
H602 H 0.31416 0.4013 0.28096 0.0
H603 H 0.32721 0.35657 0.27764 0.0
H604 H 0.38967 0.27089 0.36271 0.0
H605 H 0.37316 0.31009 0.35736 0.0
C606 C 0.40924 0.71509 0.7001 0.0
C607 C 0.40568 0.72694 0.67679 0.0
C608 C 0.40009 0.69233 0.70371 0.0
C609 C 0.37482 0.64104 0.66908 0.0
H610 H 0.3283 0.63933 0.72348 0.0
C611 C 0.28356 0.60351 0.6564 0.0
C612 C 0.27178 0.59202 0.67646 0.0
C613 C 0.30629 0.61229 0.65989 0.0
C614 C 0.34166 0.63907 0.70865 0.0
H615 H 0.39122 0.7239 0.63853 0.0
H616 H 0.37566 0.68434 0.64464 0.0
H617 H 0.35862 0.66996 0.72356 0.0
H618 H 0.27477 0.57987 0.71564 0.0
H619 H 0.31465 0.59602 0.72205 0.0
H620 H 0.35678 0.61127 0.65313 0.0
C621 C 0.38538 0.69246 0.66018 0.0
C622 C 0.35904 0.65663 0.7087 0.0
C623 C 0.39406 0.71523 0.65676 0.0
C624 C 0.28354 0.58863 0.69986 0.0
C625 C 0.30626 0.59787 0.70353 0.0
C626 C 0.3575 0.62352 0.66904 0.0
C627 C 0.3878 0.68096 0.68384 0.0
C628 C 0.37487 0.65857 0.6881 0.0
C629 C 0.31768 0.6101 0.68365 0.0
C630 C 0.33993 0.62326 0.68801 0.0
H631 H 0.4181 0.72381 0.71585 0.0
H632 H 0.40209 0.68385 0.72216 0.0
H633 H 0.38709 0.64194 0.6532 0.0
H634 H 0.27496 0.60622 0.63811 0.0
H635 H 0.31443 0.62196 0.64433 0.0
C636 C 0.58972 0.71673 0.30274 0.0
C637 C 0.59399 0.72963 0.32525 0.0
C638 C 0.59943 0.69412 0.29965 0.0
C639 C 0.62787 0.64519 0.33537 0.0
H640 H 0.67096 0.64144 0.27784 0.0
C641 C 0.72022 0.60883 0.3432 0.0
C642 C 0.73006 0.59508 0.32357 0.0
C643 C 0.69761 0.61817 0.34069 0.0
C644 C 0.65856 0.64179 0.29363 0.0
H645 H 0.61039 0.7286 0.36272 0.0
H646 H 0.62699 0.68939 0.35751 0.0
H647 H 0.64009 0.67159 0.27824 0.0
H648 H 0.72383 0.57986 0.28611 0.0
H649 H 0.68419 0.59707 0.28133 0.0
H650 H 0.64752 0.61663 0.35168 0.0
C651 C 0.61626 0.69655 0.34219 0.0
C652 C 0.64088 0.65903 0.29385 0.0
C653 C 0.60698 0.71914 0.34508 0.0
C654 C 0.7166 0.59039 0.30154 0.0
C655 C 0.69401 0.6002 0.29879 0.0
C656 C 0.64554 0.62804 0.33517 0.0
C657 C 0.61303 0.68398 0.31929 0.0
C658 C 0.62628 0.66172 0.31541 0.0
C659 C 0.68441 0.61428 0.31834 0.0
C660 C 0.66185 0.62707 0.31497 0.0
H661 H 0.57978 0.72447 0.28715 0.0
H662 H 0.59676 0.68481 0.28179 0.0
H663 H 0.61656 0.64664 0.35202 0.0
H664 H 0.73012 0.61259 0.36047 0.0
H665 H 0.69082 0.62929 0.35588 0.0
C666 C 0.6066 0.28127 0.65534 0.0
C667 C 0.59416 0.27028 0.67526 0.0
C668 C 0.6155 0.30401 0.65839 0.0
C669 C 0.64061 0.34119 0.70645 0.0
H670 H 0.64361 0.38545 0.64992 0.0
C671 C 0.71573 0.40957 0.69801 0.0
C672 C 0.72788 0.40604 0.67488 0.0
C673 C 0.69302 0.40019 0.70135 0.0
C674 C 0.64268 0.3735 0.66608 0.0
H675 H 0.58064 0.27464 0.71378 0.0
H676 H 0.59702 0.31451 0.71943 0.0
H677 H 0.61365 0.35444 0.64991 0.0
H678 H 0.7254 0.39149 0.63662 0.0
H679 H 0.68601 0.37547 0.64227 0.0
H680 H 0.67085 0.35909 0.7216 0.0
C681 C 0.59949 0.3055 0.70135 0.0
C682 C 0.62556 0.35579 0.66607 0.0
C683 C 0.59014 0.28278 0.6981 0.0
C684 C 0.7165 0.3943 0.65472 0.0
C685 C 0.69381 0.38536 0.65788 0.0
C686 C 0.65781 0.35891 0.70643 0.0
C687 C 0.61245 0.31619 0.68157 0.0
C688 C 0.62525 0.33869 0.68551 0.0
C689 C 0.68203 0.38767 0.68139 0.0
C690 C 0.65983 0.37434 0.68549 0.0
H691 H 0.60982 0.27211 0.63747 0.0
H692 H 0.62575 0.31163 0.64296 0.0
H693 H 0.64079 0.32819 0.72165 0.0
H694 H 0.72418 0.41854 0.71386 0.0
H695 H 0.68432 0.40216 0.71969 0.0
C696 C 0.7814 0.90792 0.80374 0.0
C697 C 0.76746 0.90336 0.82546 0.0
C698 C 0.80381 0.89762 0.80133 0.0
C699 C 0.83879 0.85586 0.79593 0.0
H700 H 0.87908 0.84823 0.85538 0.0
C701 C 0.88961 0.77632 0.84502 0.0
C702 C 0.9039 0.76721 0.82543 0.0
C703 C 0.8797 0.79872 0.84284 0.0
C704 C 0.86824 0.85046 0.83847 0.0
H705 H 0.76644 0.88555 0.86217 0.0
H706 H 0.80535 0.86794 0.85812 0.0
H707 H 0.84856 0.87869 0.85538 0.0
H708 H 0.91952 0.77456 0.78841 0.0
H709 H 0.90142 0.81385 0.78425 0.0
H710 H 0.85745 0.8265 0.77975 0.0
C711 C 0.7991 0.87936 0.84293 0.0
C712 C 0.8508 0.86785 0.83847 0.0
C713 C 0.77669 0.88923 0.84512 0.0
C714 C 0.90859 0.78122 0.80381 0.0
C715 C 0.89825 0.80361 0.80141 0.0
C716 C 0.85629 0.83841 0.79592 0.0
C717 C 0.81276 0.88312 0.82087 0.0
C718 C 0.8351 0.86984 0.81778 0.0
C719 C 0.88359 0.81245 0.82088 0.0
C720 C 0.87027 0.83476 0.81778 0.0
H721 H 0.77466 0.91872 0.78827 0.0
H722 H 0.81398 0.9007 0.7841 0.0
H723 H 0.82688 0.85698 0.77975 0.0
H724 H 0.88583 0.766 0.86199 0.0
H725 H 0.86816 0.80489 0.85797 0.0
C726 C 0.77961 0.10759 0.15728 0.0
C727 C 0.76936 0.09427 0.17699 0.0
C728 C 0.80225 0.11682 0.16002 0.0
C729 C 0.85434 0.12648 0.16649 0.0
H730 H 0.85874 0.17128 0.22241 0.0
C731 C 0.90912 0.21613 0.19829 0.0
C732 C 0.9055 0.22838 0.17523 0.0
C733 C 0.89958 0.19348 0.20164 0.0
C734 C 0.85826 0.15838 0.20711 0.0
H735 H 0.77488 0.07968 0.21487 0.0
H736 H 0.81456 0.09672 0.22005 0.0
H737 H 0.82776 0.14128 0.22279 0.0
H738 H 0.8906 0.22613 0.13711 0.0
H739 H 0.87429 0.18688 0.14278 0.0
H740 H 0.88381 0.14453 0.14994 0.0
C741 C 0.80505 0.09958 0.20233 0.0
C742 C 0.84049 0.14122 0.20732 0.0
C743 C 0.78244 0.08986 0.19936 0.0
C744 C 0.8935 0.21716 0.15515 0.0
C745 C 0.88438 0.19454 0.15832 0.0
C746 C 0.87212 0.14353 0.16632 0.0
C747 C 0.81505 0.11326 0.1827 0.0
C748 C 0.83759 0.12604 0.18629 0.0
C749 C 0.88679 0.18265 0.18177 0.0
C750 C 0.87336 0.16051 0.18588 0.0
H751 H 0.76999 0.11113 0.13976 0.0
H752 H 0.80936 0.12763 0.14474 0.0
H753 H 0.85265 0.11472 0.15023 0.0
H754 H 0.91829 0.22446 0.21408 0.0
H755 H 0.90165 0.1847 0.21991 0.0
C756 C 0.08964 0.21661 0.8019 0.0
C757 C 0.09431 0.23013 0.82389 0.0
C758 C 0.09959 0.19408 0.79915 0.0
C759 C 0.12806 0.14591 0.83548 0.0
H760 H 0.17113 0.14063 0.77809 0.0
C761 C 0.21942 0.10757 0.84442 0.0
C762 C 0.22968 0.09447 0.82453 0.0
C763 C 0.19684 0.11693 0.84176 0.0
C764 C 0.15872 0.14137 0.79384 0.0
H765 H 0.11189 0.23035 0.86074 0.0
H766 H 0.12885 0.19116 0.85615 0.0
H767 H 0.14076 0.17128 0.77794 0.0
H768 H 0.22412 0.08022 0.7865 0.0
H769 H 0.18447 0.09732 0.78154 0.0
H770 H 0.14703 0.11711 0.8522 0.0
C771 C 0.11764 0.19785 0.84099 0.0
C772 C 0.14134 0.15893 0.79375 0.0
C773 C 0.10815 0.2204 0.8435 0.0
C774 C 0.21657 0.09024 0.80215 0.0
C775 C 0.19397 0.10001 0.79929 0.0
C776 C 0.14535 0.12838 0.83555 0.0
C777 C 0.11379 0.1846 0.81866 0.0
C778 C 0.12678 0.16216 0.81524 0.0
C779 C 0.18404 0.11366 0.81902 0.0
C780 C 0.1617 0.12685 0.8154 0.0
H781 H 0.07904 0.22376 0.78648 0.0
H782 H 0.09649 0.18422 0.78171 0.0
H783 H 0.11677 0.14784 0.85209 0.0
H784 H 0.22904 0.11096 0.86197 0.0
H785 H 0.18984 0.12769 0.85713 0.0
C786 C 0.21834 0.89145 0.15546 0.0
C787 C 0.22917 0.90425 0.17521 0.0
C788 C 0.1956 0.88255 0.1585 0.0
C789 C 0.14374 0.87271 0.16596 0.0
H790 H 0.14024 0.82788 0.2219 0.0
C791 C 0.08989 0.78275 0.1984 0.0
C792 C 0.09351 0.77042 0.17538 0.0
C793 C 0.09925 0.80548 0.2016 0.0
C794 C 0.14047 0.84079 0.20661 0.0
H795 H 0.22456 0.9184 0.21343 0.0
H796 H 0.18469 0.90198 0.21912 0.0
H797 H 0.1711 0.85798 0.22184 0.0
H798 H 0.10825 0.77263 0.13718 0.0
H799 H 0.12424 0.81206 0.1426 0.0
H800 H 0.11418 0.85449 0.14981 0.0
C801 C 0.19382 0.89924 0.20115 0.0
C802 C 0.15816 0.85802 0.20657 0.0
C803 C 0.21654 0.90861 0.19789 0.0
C804 C 0.10536 0.78166 0.1552 0.0
C805 C 0.11429 0.80437 0.15822 0.0
C806 C 0.12605 0.85557 0.16603 0.0
C807 C 0.18327 0.88595 0.18153 0.0
C808 C 0.16075 0.8732 0.1855 0.0
C809 C 0.11186 0.81633 0.18162 0.0
C810 C 0.12514 0.83857 0.18559 0.0
H811 H 0.22761 0.88797 0.13771 0.0
H812 H 0.18809 0.87205 0.1432 0.0
H813 H 0.14517 0.88448 0.14969 0.0
H814 H 0.08084 0.77441 0.21427 0.0
H815 H 0.09719 0.81432 0.21985 0.0
C816 C 0.16981 0.52382 0.31097 0.0
C817 C 0.19215 0.51514 0.30401 0.0
C818 C 0.16217 0.54584 0.30228 0.0
C819 C 0.1539 0.59754 0.28871 0.0
H820 H 0.15865 0.60488 0.21515 0.0
C821 C 0.11217 0.67659 0.23461 0.0
C822 C 0.09928 0.67023 0.21277 0.0
C823 C 0.12697 0.66013 0.24652 0.0
C824 C 0.15737 0.60321 0.23573 0.0
H825 H 0.22441 0.52308 0.28338 0.0
H826 H 0.21086 0.56156 0.26786 0.0
H827 H 0.17894 0.57219 0.23608 0.0
H828 H 0.09009 0.64155 0.1873 0.0
H829 H 0.11603 0.6128 0.20782 0.0
H830 H 0.13161 0.62811 0.2882 0.0
C831 C 0.19932 0.55126 0.28007 0.0
C832 C 0.16913 0.5846 0.24774 0.0
C833 C 0.20709 0.52932 0.28902 0.0
C834 C 0.10067 0.64705 0.20351 0.0
C835 C 0.11547 0.63064 0.21529 0.0
C836 C 0.14233 0.61633 0.27672 0.0
C837 C 0.17661 0.55953 0.28624 0.0
C838 C 0.16704 0.58123 0.27426 0.0
C839 C 0.12878 0.63698 0.23692 0.0
C840 C 0.14347 0.619 0.25002 0.0
H841 H 0.15794 0.51333 0.32258 0.0
H842 H 0.14449 0.55163 0.30715 0.0
H843 H 0.1521 0.5954 0.30921 0.0
H844 H 0.11086 0.6943 0.24236 0.0
H845 H 0.13697 0.66547 0.2632 0.0
C846 C 0.52503 0.80128 0.7122 0.0
C847 C 0.50963 0.81402 0.69627 0.0
C848 C 0.54602 0.81161 0.7209 0.0
C849 C 0.57045 0.87078 0.73289 0.0
H850 H 0.62936 0.83748 0.74447 0.0
C851 C 0.67196 0.89411 0.76451 0.0
C852 C 0.66711 0.90829 0.78586 0.0
C853 C 0.65376 0.8814 0.7527 0.0
C854 C 0.61307 0.84703 0.74111 0.0
H855 H 0.50485 0.84682 0.67548 0.0
H856 H 0.54156 0.86455 0.69008 0.0
H857 H 0.59633 0.81703 0.72377 0.0
H858 H 0.63969 0.92182 0.81067 0.0
H859 H 0.60795 0.89955 0.79038 0.0
H860 H 0.58707 0.90079 0.74984 0.0
C861 C 0.53719 0.8469 0.69654 0.0
C862 C 0.59411 0.83528 0.72951 0.0
C863 C 0.5162 0.83669 0.68806 0.0
C864 C 0.64385 0.9104 0.79465 0.0
C865 C 0.62569 0.89788 0.78284 0.0
C866 C 0.58931 0.88246 0.7444 0.0
C867 C 0.552 0.83479 0.71368 0.0
C868 C 0.57258 0.84706 0.72529 0.0
C869 C 0.63041 0.88327 0.76171 0.0
C870 C 0.61077 0.87072 0.74879 0.0
H871 H 0.52041 0.78375 0.71881 0.0
H872 H 0.55698 0.80185 0.73419 0.0
H873 H 0.55402 0.8803 0.73037 0.0
H874 H 0.68979 0.89273 0.75714 0.0
H875 H 0.65785 0.87055 0.73622 0.0
C876 C 0.89857 0.35181 0.20283 0.0
C877 C 0.89996 0.32866 0.21215 0.0
C878 C 0.88377 0.36825 0.21454 0.0
C879 C 0.84186 0.39574 0.23487 0.0
H880 H 0.847 0.40365 0.30836 0.0
C881 C 0.79199 0.46965 0.28807 0.0
C882 C 0.8069 0.48383 0.3031 0.0
C883 C 0.79981 0.44772 0.27909 0.0
C884 C 0.84523 0.40149 0.28786 0.0
H885 H 0.88835 0.30467 0.24178 0.0
H886 H 0.8622 0.33354 0.26251 0.0
H887 H 0.86752 0.37092 0.28743 0.0
H888 H 0.84109 0.48569 0.32171 0.0
H889 H 0.85461 0.44741 0.30625 0.0
H890 H 0.82028 0.42676 0.23514 0.0
C891 C 0.87223 0.33884 0.24583 0.0
C892 C 0.85682 0.38269 0.27591 0.0
C893 C 0.88704 0.32235 0.23399 0.0
C894 C 0.82925 0.47519 0.31006 0.0
C895 C 0.83693 0.45319 0.30136 0.0
C896 C 0.83007 0.41437 0.24684 0.0
C897 C 0.87042 0.36196 0.23617 0.0
C898 C 0.85573 0.37998 0.24921 0.0
C899 C 0.82252 0.43948 0.2853 0.0
C900 C 0.83212 0.41777 0.27336 0.0
H901 H 0.90918 0.35727 0.18662 0.0
H902 H 0.88321 0.38607 0.20703 0.0
H903 H 0.84061 0.39405 0.21429 0.0
H904 H 0.77467 0.47587 0.28242 0.0
H905 H 0.7883 0.43741 0.26687 0.0
C906 C 0.47311 0.20222 0.71352 0.0
C907 C 0.48771 0.18783 0.69836 0.0
C908 C 0.45138 0.19377 0.72234 0.0
C909 C 0.40581 0.1482 0.71237 0.0
H910 H 0.39772 0.15155 0.78592 0.0
C911 C 0.35335 0.09528 0.79603 0.0
C912 C 0.3302 0.09508 0.78657 0.0
C913 C 0.37054 0.10936 0.78455 0.0
C914 C 0.39957 0.15066 0.76534 0.0
H915 H 0.49054 0.15384 0.67946 0.0
H916 H 0.4525 0.13922 0.69464 0.0
H917 H 0.43085 0.17187 0.76591 0.0
H918 H 0.30696 0.108 0.75688 0.0
H919 H 0.33717 0.13288 0.73654 0.0
H920 H 0.37482 0.12646 0.71194 0.0
C921 C 0.45787 0.15697 0.69975 0.0
C922 C 0.41846 0.16242 0.75387 0.0
C923 C 0.47971 0.16528 0.69122 0.0
C924 C 0.32465 0.10838 0.76476 0.0
C925 C 0.3419 0.12247 0.75315 0.0
C926 C 0.38668 0.1367 0.72383 0.0
C927 C 0.44372 0.17094 0.71582 0.0
C928 C 0.42205 0.16089 0.72734 0.0
C929 C 0.36501 0.12316 0.76302 0.0
C930 C 0.38367 0.13742 0.75051 0.0
H931 H 0.47881 0.21969 0.71929 0.0
H932 H 0.44072 0.20493 0.73459 0.0
H933 H 0.40815 0.14683 0.69185 0.0
H934 H 0.35821 0.08436 0.81222 0.0
H935 H 0.38831 0.10908 0.79223 0.0
C936 C 0.1608 0.48279 0.68927 0.0
C937 C 0.18362 0.48908 0.69725 0.0
C938 C 0.15049 0.46182 0.69767 0.0
C939 C 0.16205 0.40443 0.7296 0.0
H940 H 0.09675 0.41155 0.75068 0.0
C941 C 0.08731 0.35412 0.79461 0.0
C942 C 0.08922 0.33098 0.7854 0.0
C943 C 0.09975 0.37239 0.78293 0.0
C944 C 0.11502 0.40928 0.74502 0.0
H945 H 0.21402 0.47787 0.71933 0.0
H946 H 0.19576 0.44132 0.73457 0.0
H947 H 0.11731 0.44479 0.73166 0.0
H948 H 0.1043 0.30865 0.75608 0.0
H949 H 0.12635 0.3408 0.73537 0.0
H950 H 0.15973 0.36895 0.74386 0.0
C951 C 0.18595 0.45249 0.72153 0.0
C952 C 0.12673 0.42825 0.73378 0.0
C953 C 0.19638 0.47346 0.71291 0.0
C954 C 0.10307 0.32638 0.76375 0.0
C955 C 0.11571 0.3447 0.75206 0.0
C956 C 0.15027 0.38535 0.74092 0.0
C957 C 0.16266 0.44675 0.71449 0.0
C958 C 0.15038 0.4261 0.72591 0.0
C959 C 0.11409 0.36791 0.76153 0.0
C960 C 0.12665 0.38767 0.74885 0.0
H961 H 0.15064 0.49431 0.67691 0.0
H962 H 0.13275 0.45765 0.69137 0.0
H963 H 0.18024 0.40218 0.72364 0.0
H964 H 0.07615 0.35809 0.8109 0.0
H965 H 0.09827 0.39002 0.79081 0.0
C966 C 0.32424 0.89093 0.23468 0.0
C967 C 0.32984 0.90364 0.21247 0.0
C968 C 0.3414 0.87697 0.24663 0.0
C969 C 0.39884 0.848 0.23503 0.0
H970 H 0.40737 0.85311 0.30844 0.0
C971 C 0.47877 0.83408 0.3096 0.0
C972 C 0.48668 0.81141 0.30281 0.0
C973 C 0.45697 0.84237 0.30092 0.0
C974 C 0.40504 0.85138 0.28796 0.0
H975 H 0.35786 0.91345 0.18642 0.0
H976 H 0.38781 0.88897 0.20702 0.0
H977 H 0.37425 0.87341 0.28787 0.0
H978 H 0.47766 0.77931 0.2824 0.0
H979 H 0.43962 0.794 0.26686 0.0
H980 H 0.42993 0.82653 0.23497 0.0
C981 C 0.37006 0.88904 0.21477 0.0
C982 C 0.38603 0.86285 0.27622 0.0
C983 C 0.35296 0.90299 0.20294 0.0
C984 C 0.47202 0.79687 0.2879 0.0
C985 C 0.45032 0.80529 0.27894 0.0
C986 C 0.41762 0.8363 0.24679 0.0
C987 C 0.36447 0.87582 0.23671 0.0
C988 C 0.38304 0.86166 0.24955 0.0
C989 C 0.44277 0.82825 0.28506 0.0
C990 C 0.42119 0.83827 0.27329 0.0
H991 H 0.30658 0.89167 0.24261 0.0
H992 H 0.33662 0.86701 0.26354 0.0
H993 H 0.397 0.84674 0.21448 0.0
H994 H 0.48965 0.84565 0.32116 0.0
H995 H 0.45168 0.86022 0.30573 0.0
C996 C 0.80265 0.52499 0.71216 0.0
C997 C 0.81531 0.50954 0.69621 0.0
C998 C 0.81304 0.54599 0.72076 0.0
C999 C 0.8723 0.5704 0.73231 0.0
H1000 H 0.83916 0.62941 0.74379 0.0
C1001 C 0.89579 0.67196 0.76375 0.0
C1002 C 0.90983 0.66711 0.7852 0.0
C1003 C 0.88317 0.65375 0.75184 0.0
C1004 C 0.84866 0.61309 0.74044 0.0
H1005 H 0.84802 0.50466 0.67528 0.0
H1006 H 0.86585 0.54139 0.68967 0.0
H1007 H 0.81854 0.59633 0.72338 0.0
H1008 H 0.92327 0.63968 0.81006 0.0
H1009 H 0.90118 0.60793 0.78957 0.0
H1010 H 0.90242 0.58703 0.749 0.0
C1011 C 0.84822 0.53705 0.69624 0.0
C1012 C 0.83682 0.5941 0.72902 0.0
C1013 C 0.83796 0.51605 0.68788 0.0
C1014 C 0.91196 0.64383 0.79394 0.0
C1015 C 0.89954 0.62568 0.78203 0.0
C1016 C 0.88408 0.58929 0.74364 0.0
C1017 C 0.8362 0.55193 0.71338 0.0
C1018 C 0.84854 0.57253 0.72484 0.0
C1019 C 0.88499 0.63041 0.76086 0.0
C1020 C 0.87239 0.61078 0.74799 0.0
H1021 H 0.78513 0.5204 0.71885 0.0
H1022 H 0.80334 0.55701 0.73404 0.0
H1023 H 0.88178 0.55394 0.72982 0.0
H1024 H 0.89439 0.6898 0.75644 0.0
H1025 H 0.87236 0.65784 0.73534 0.0
C1026 C 0.67297 0.10411 0.23655 0.0
C1027 C 0.66827 0.09048 0.21475 0.0
C1028 C 0.65475 0.1168 0.24838 0.0
C1029 C 0.61417 0.15136 0.26017 0.0
H1030 H 0.55489 0.11814 0.26953 0.0
C1031 C 0.52586 0.19664 0.28939 0.0
C1032 C 0.51042 0.18358 0.30496 0.0
C1033 C 0.54694 0.18652 0.28062 0.0
C1034 C 0.57138 0.12763 0.26738 0.0
H1035 H 0.64106 0.07791 0.18908 0.0
H1036 H 0.6093 0.10012 0.20943 0.0
H1037 H 0.588 0.09792 0.24983 0.0
H1038 H 0.50565 0.15042 0.32508 0.0
H1039 H 0.54249 0.13306 0.31035 0.0
H1040 H 0.5974 0.18106 0.27808 0.0
C1041 C 0.62695 0.10139 0.2173 0.0
C1042 C 0.59028 0.11612 0.25575 0.0
C1043 C 0.64512 0.0889 0.20548 0.0
C1044 C 0.51704 0.16081 0.31279 0.0
C1045 C 0.5381 0.15081 0.30424 0.0
C1046 C 0.59516 0.16295 0.27187 0.0
C1047 C 0.63153 0.11544 0.23891 0.0
C1048 C 0.61183 0.12784 0.25189 0.0
C1049 C 0.55295 0.16324 0.28741 0.0
C1050 C 0.57355 0.15117 0.27561 0.0
H1051 H 0.6907 0.10508 0.24427 0.0
H1052 H 0.65872 0.12722 0.26521 0.0
H1053 H 0.63054 0.16088 0.25723 0.0
H1054 H 0.52119 0.21425 0.28307 0.0
H1055 H 0.55795 0.19653 0.2676 0.0
C1056 C 0.70578 0.02875 0.78661 0.0
C1057 C 0.69118 0.01485 0.80227 0.0
C1058 C 0.69787 0.05064 0.7776 0.0
C1059 C 0.65308 0.09732 0.78728 0.0
H1060 H 0.65532 0.10371 0.71348 0.0
C1061 C 0.59805 0.14688 0.70316 0.0
C1062 C 0.59721 0.17012 0.71233 0.0
C1063 C 0.6128 0.13028 0.71471 0.0
C1064 C 0.65474 0.10232 0.73412 0.0
H1065 H 0.65749 0.01345 0.82196 0.0
H1066 H 0.64383 0.05164 0.80647 0.0
H1067 H 0.67607 0.07113 0.73404 0.0
H1068 H 0.60971 0.19412 0.74152 0.0
H1069 H 0.63579 0.165 0.76191 0.0
H1070 H 0.63105 0.12807 0.78725 0.0
C1071 C 0.66132 0.04568 0.8011 0.0
C1072 C 0.66678 0.08377 0.7459 0.0
C1073 C 0.66908 0.02373 0.80981 0.0
C1074 C 0.61058 0.17635 0.73387 0.0
C1075 C 0.62536 0.15972 0.74551 0.0
C1076 C 0.64125 0.11606 0.77549 0.0
C1077 C 0.67539 0.05911 0.78443 0.0
C1078 C 0.66559 0.08075 0.77254 0.0
C1079 C 0.62666 0.13651 0.73598 0.0
C1080 C 0.64149 0.11842 0.74873 0.0
H1081 H 0.7229 0.02234 0.78051 0.0
H1082 H 0.70911 0.06073 0.76488 0.0
H1083 H 0.65197 0.09544 0.80786 0.0
H1084 H 0.58712 0.1415 0.68718 0.0
H1085 H 0.61295 0.11241 0.7073 0.0
C1086 C 0.17221 0.39535 0.26398 0.0
C1087 C 0.16768 0.4091 0.28574 0.0
C1088 C 0.15385 0.38282 0.25223 0.0
C1089 C 0.11311 0.3484 0.24091 0.0
H1090 H 0.05375 0.38154 0.23185 0.0
C1091 C 0.02483 0.3027 0.21252 0.0
C1092 C 0.00928 0.3156 0.19692 0.0
C1093 C 0.04584 0.313 0.22123 0.0
C1094 C 0.07026 0.37207 0.23392 0.0
H1095 H 0.14062 0.42207 0.31137 0.0
H1096 H 0.10861 0.40014 0.29116 0.0
H1097 H 0.08703 0.40192 0.25102 0.0
H1098 H 0.00421 0.34869 0.17676 0.0
H1099 H 0.04093 0.36636 0.19139 0.0
H1100 H 0.0962 0.31856 0.22343 0.0
C1101 C 0.12623 0.39867 0.28325 0.0
C1102 C 0.08926 0.38368 0.24524 0.0
C1103 C 0.14454 0.411 0.295 0.0
C1104 C 0.01568 0.33843 0.18908 0.0
C1105 C 0.03668 0.34861 0.19757 0.0
C1106 C 0.094 0.33671 0.22951 0.0
C1107 C 0.13065 0.38443 0.26174 0.0
C1108 C 0.11085 0.37198 0.249 0.0
C1109 C 0.05168 0.3363 0.21435 0.0
C1110 C 0.07236 0.34846 0.22588 0.0
H1111 H 0.18993 0.39414 0.25627 0.0
H1112 H 0.1577 0.37226 0.23546 0.0
H1113 H 0.12949 0.33888 0.24379 0.0
H1114 H 0.02033 0.28505 0.21884 0.0
H1115 H 0.05696 0.30308 0.23423 0.0
C1116 C 0.2951 0.97192 0.78601 0.0
C1117 C 0.31 0.98644 0.80066 0.0
C1118 C 0.30308 0.95003 0.77711 0.0
C1119 C 0.33294 0.91608 0.74515 0.0
H1120 H 0.37069 0.87342 0.78639 0.0
C1121 C 0.39981 0.85125 0.70195 0.0
C1122 C 0.4009 0.82833 0.71196 0.0
C1123 C 0.3855 0.86828 0.71339 0.0
C1124 C 0.35992 0.88497 0.7747 0.0
H1125 H 0.3445 0.98902 0.81849 0.0
H1126 H 0.35834 0.95078 0.80314 0.0
H1127 H 0.3509 0.90697 0.80663 0.0
H1128 H 0.38928 0.80536 0.74252 0.0
H1129 H 0.36404 0.8353 0.76281 0.0
H1130 H 0.34263 0.89468 0.7131 0.0
C1131 C 0.34051 0.95628 0.79852 0.0
C1132 C 0.34876 0.90425 0.78625 0.0
C1133 C 0.33264 0.97825 0.80715 0.0
C1134 C 0.3882 0.82285 0.73421 0.0
C1135 C 0.37389 0.83995 0.74579 0.0
C1136 C 0.34431 0.89698 0.73357 0.0
C1137 C 0.32599 0.94216 0.783 0.0
C1138 C 0.3355 0.92021 0.7715 0.0
C1139 C 0.37239 0.86283 0.73544 0.0
C1140 C 0.35825 0.88147 0.74815 0.0
H1141 H 0.27754 0.97776 0.78073 0.0
H1142 H 0.29148 0.9394 0.76531 0.0
H1143 H 0.32301 0.92821 0.73326 0.0
H1144 H 0.41027 0.85608 0.68539 0.0
H1145 H 0.38516 0.8859 0.70533 0.0
C1146 C 0.85423 0.58807 0.29486 0.0
C1147 C 0.83113 0.59 0.28551 0.0
C1148 C 0.87258 0.60044 0.28324 0.0
C1149 C 0.90968 0.61539 0.24542 0.0
H1150 H 0.90294 0.68051 0.22359 0.0
C1151 C 0.98351 0.66039 0.1895 0.0
C1152 C 0.98994 0.68321 0.19733 0.0
C1153 C 0.96246 0.65028 0.19793 0.0
C1154 C 0.90509 0.66235 0.22968 0.0
H1155 H 0.80898 0.60506 0.25602 0.0
H1156 H 0.84129 0.62698 0.23543 0.0
H1157 H 0.86955 0.66028 0.24385 0.0
H1158 H 0.9789 0.71383 0.21918 0.0
H1159 H 0.94219 0.6959 0.23447 0.0
H1160 H 0.94522 0.61743 0.23215 0.0
C1161 C 0.84508 0.61638 0.25217 0.0
C1162 C 0.88592 0.65072 0.24102 0.0
C1163 C 0.82667 0.60382 0.2638 0.0
C1164 C 0.97438 0.69617 0.21287 0.0
C1165 C 0.95332 0.68594 0.22152 0.0
C1166 C 0.92873 0.62695 0.23417 0.0
C1167 C 0.86824 0.61472 0.26176 0.0
C1168 C 0.88811 0.62714 0.24911 0.0
C1169 C 0.94744 0.66264 0.21464 0.0
C1170 C 0.92671 0.65055 0.22612 0.0
H1171 H 0.8581 0.57694 0.31119 0.0
H1172 H 0.89018 0.59894 0.29122 0.0
H1173 H 0.91185 0.59714 0.2512 0.0
H1174 H 0.99498 0.65008 0.17723 0.0
H1175 H 0.95818 0.63252 0.19174 0.0
C1176 C 0.66846 0.97564 0.18895 0.0
C1177 C 0.69076 0.984 0.1965 0.0
C1178 C 0.66028 0.95378 0.19751 0.0
C1179 C 0.6651 0.91555 0.25258 0.0
H1180 H 0.62869 0.87165 0.21143 0.0
C1181 C 0.60866 0.82328 0.26523 0.0
C1182 C 0.59562 0.82952 0.28701 0.0
C1183 C 0.62321 0.83994 0.25328 0.0
C1184 C 0.63906 0.88356 0.22312 0.0
H1185 H 0.72241 0.97566 0.21803 0.0
H1186 H 0.70787 0.93747 0.23338 0.0
H1187 H 0.64991 0.90406 0.19069 0.0
H1188 H 0.58581 0.85817 0.31225 0.0
H1189 H 0.61125 0.88729 0.2916 0.0
H1190 H 0.65351 0.89582 0.28505 0.0
C1191 C 0.69681 0.94788 0.22078 0.0
C1192 C 0.65107 0.90217 0.21127 0.0
C1193 C 0.70514 0.96965 0.21193 0.0
C1194 C 0.5965 0.85279 0.29607 0.0
C1195 C 0.61101 0.86941 0.28422 0.0
C1196 C 0.65287 0.89717 0.26443 0.0
C1197 C 0.67412 0.93996 0.21402 0.0
C1198 C 0.66389 0.91855 0.22595 0.0
C1199 C 0.6246 0.86316 0.26276 0.0
C1200 C 0.63941 0.8812 0.24989 0.0
H1201 H 0.65703 0.98628 0.17696 0.0
H1202 H 0.64263 0.94823 0.19218 0.0
H1203 H 0.67461 0.92807 0.26439 0.0
H1204 H 0.60776 0.80549 0.25766 0.0
H1205 H 0.63345 0.83464 0.23675 0.0
C1206 C 0.85135 0.39868 0.70232 0.0
C1207 C 0.82819 0.40014 0.71163 0.0
C1208 C 0.86774 0.38383 0.71405 0.0
C1209 C 0.89514 0.3419 0.73448 0.0
H1210 H 0.9029 0.34712 0.80798 0.0
C1211 C 0.96888 0.29202 0.78796 0.0
C1212 C 0.98303 0.30692 0.80303 0.0
C1213 C 0.94699 0.29985 0.7789 0.0
C1214 C 0.90078 0.34533 0.78748 0.0
H1215 H 0.80414 0.3886 0.74124 0.0
H1216 H 0.83292 0.36239 0.762 0.0
H1217 H 0.87025 0.36766 0.78696 0.0
H1218 H 0.98487 0.34113 0.82161 0.0
H1219 H 0.94666 0.35468 0.80599 0.0
H1220 H 0.92614 0.32029 0.73485 0.0
C1221 C 0.83827 0.37239 0.74531 0.0
C1222 C 0.88202 0.35694 0.77547 0.0
C1223 C 0.82183 0.38725 0.73346 0.0
C1224 C 0.97439 0.32929 0.80994 0.0
C1225 C 0.95243 0.33699 0.80114 0.0
C1226 C 0.91373 0.33011 0.74651 0.0
C1227 C 0.86139 0.37052 0.73568 0.0
C1228 C 0.87937 0.35581 0.74877 0.0
C1229 C 0.93875 0.32257 0.78505 0.0
C1230 C 0.91708 0.33218 0.77304 0.0
H1231 H 0.85685 0.40926 0.68611 0.0
H1232 H 0.88556 0.38323 0.70655 0.0
H1233 H 0.89349 0.34063 0.7139 0.0
H1234 H 0.9751 0.27468 0.78236 0.0
H1235 H 0.93671 0.28833 0.76664 0.0
C1236 C 0.38976 0.17423 0.26482 0.0
C1237 C 0.40219 0.16848 0.28717 0.0
C1238 C 0.3757 0.15724 0.25271 0.0
C1239 C 0.36178 0.11259 0.22296 0.0
H1240 H 0.32433 0.06917 0.26359 0.0
C1241 C 0.33333 0.01982 0.18945 0.0
C1242 C 0.31057 0.01193 0.19589 0.0
C1243 C 0.34149 0.04167 0.19814 0.0
C1244 C 0.33442 0.08136 0.25193 0.0
H1245 H 0.4114 0.14036 0.31335 0.0
H1246 H 0.3867 0.11073 0.29251 0.0
H1247 H 0.34427 0.10216 0.28435 0.0
H1248 H 0.27815 0.02109 0.21565 0.0
H1249 H 0.29259 0.05921 0.23117 0.0
H1250 H 0.35262 0.09111 0.19065 0.0
C1251 C 0.38707 0.12846 0.28476 0.0
C1252 C 0.34596 0.10015 0.26385 0.0
C1253 C 0.40113 0.14539 0.29672 0.0
C1254 C 0.2958 0.02669 0.21043 0.0
C1255 C 0.30406 0.04844 0.21938 0.0
C1256 C 0.35046 0.09358 0.21107 0.0
C1257 C 0.37417 0.1342 0.26265 0.0
C1258 C 0.36005 0.11575 0.24957 0.0
C1259 C 0.32712 0.05595 0.21366 0.0
C1260 C 0.33696 0.07759 0.22552 0.0
H1261 H 0.39083 0.19186 0.25686 0.0
H1262 H 0.366 0.16211 0.23565 0.0
H1263 H 0.37268 0.12422 0.2115 0.0
H1264 H 0.34509 0.00886 0.17819 0.0
H1265 H 0.35941 0.04691 0.19364 0.0
C1266 C 0.14816 0.60018 0.70257 0.0
C1267 C 0.17124 0.59861 0.71207 0.0
C1268 C 0.13175 0.61512 0.71416 0.0
C1269 C 0.11723 0.64202 0.77554 0.0
H1270 H 0.07316 0.67856 0.73476 0.0
C1271 C 0.02997 0.70648 0.78787 0.0
C1272 C 0.01593 0.69148 0.80295 0.0
C1273 C 0.05191 0.69879 0.77877 0.0
C1274 C 0.08556 0.66878 0.74646 0.0
H1275 H 0.19515 0.61009 0.74185 0.0
H1276 H 0.16635 0.63646 0.76235 0.0
H1277 H 0.10598 0.65833 0.71393 0.0
H1278 H 0.01434 0.65725 0.82148 0.0
H1279 H 0.05261 0.64396 0.80582 0.0
H1280 H 0.09621 0.65177 0.80797 0.0
C1281 C 0.16107 0.62647 0.74563 0.0
C1282 C 0.10424 0.65704 0.73451 0.0
C1283 C 0.17752 0.61152 0.73393 0.0
C1284 C 0.02473 0.66917 0.8098 0.0
C1285 C 0.04673 0.66161 0.80099 0.0
C1286 C 0.0984 0.65357 0.78747 0.0
C1287 C 0.13801 0.62842 0.73583 0.0
C1288 C 0.11998 0.64315 0.74885 0.0
C1289 C 0.06031 0.67612 0.78491 0.0
C1290 C 0.0821 0.66667 0.77297 0.0
H1291 H 0.14271 0.58959 0.68633 0.0
H1292 H 0.11398 0.61578 0.70653 0.0
H1293 H 0.12898 0.63132 0.78707 0.0
H1294 H 0.02363 0.72378 0.7823 0.0
H1295 H 0.06211 0.71038 0.76653 0.0
C1296 C 0.21657 0.51683 0.59776 0.0
C1297 C 0.21444 0.54154 0.59939 0.0
C1298 C 0.2186 0.50575 0.57395 0.0
C1299 C 0.2344 0.51625 0.50651 0.0
H1300 H 0.1932 0.46299 0.49302 0.0
C1301 C 0.21765 0.4806 0.40452 0.0
C1302 C 0.21443 0.45615 0.40143 0.0
C1303 C 0.21969 0.49042 0.42897 0.0
C1304 C 0.20514 0.47757 0.49655 0.0
H1305 H 0.21339 0.57398 0.57723 0.0
H1306 H 0.21699 0.55461 0.53584 0.0
H1307 H 0.19353 0.48092 0.53535 0.0
H1308 H 0.21177 0.42274 0.42162 0.0
H1309 H 0.21588 0.43977 0.46406 0.0
H1310 H 0.24605 0.51293 0.46773 0.0
C1311 C 0.21715 0.54385 0.55298 0.0
C1312 C 0.20528 0.48786 0.52082 0.0
C1313 C 0.21491 0.55491 0.57672 0.0
C1314 C 0.21396 0.44169 0.42329 0.0
C1315 C 0.2162 0.45147 0.44768 0.0
C1316 C 0.2344 0.50585 0.48226 0.0
C1317 C 0.21878 0.51915 0.55133 0.0
C1318 C 0.21974 0.50743 0.52599 0.0
C1319 C 0.21875 0.47599 0.45086 0.0
C1320 C 0.21961 0.4865 0.47692 0.0
H1321 H 0.21627 0.50598 0.61482 0.0
H1322 H 0.22002 0.48668 0.57324 0.0
H1323 H 0.24593 0.53116 0.51006 0.0
H1324 H 0.21798 0.49227 0.38811 0.0
H1325 H 0.22133 0.50941 0.43071 0.0
C1326 C 0.55625 0.78543 0.42368 0.0
C1327 C 0.54216 0.78601 0.40154 0.0
C1328 C 0.54597 0.78313 0.4478 0.0
C1329 C 0.49057 0.76626 0.481 0.0
H1330 H 0.51655 0.80478 0.53556 0.0
C1331 C 0.44221 0.78415 0.57638 0.0
C1332 C 0.45573 0.78376 0.59897 0.0
C1333 C 0.45308 0.78223 0.5525 0.0
C1334 C 0.50929 0.79368 0.52061 0.0
H1335 H 0.50617 0.78429 0.3874 0.0
H1336 H 0.48815 0.78082 0.42962 0.0
H1337 H 0.53464 0.80578 0.49335 0.0
H1338 H 0.49132 0.7806 0.61408 0.0
H1339 H 0.51027 0.77734 0.5723 0.0
H1340 H 0.46484 0.75467 0.50832 0.0
C1341 C 0.50722 0.78171 0.42827 0.0
C1342 C 0.51966 0.79422 0.49641 0.0
C1343 C 0.51753 0.78382 0.40406 0.0
C1344 C 0.48036 0.78098 0.5971 0.0
C1345 C 0.49124 0.77924 0.57318 0.0
C1346 C 0.48009 0.76586 0.50521 0.0
C1347 C 0.52132 0.78158 0.45044 0.0
C1348 C 0.51042 0.78055 0.47628 0.0
C1349 C 0.47773 0.78004 0.55064 0.0
C1350 C 0.48932 0.77962 0.52523 0.0
H1351 H 0.5753 0.78678 0.42245 0.0
H1352 H 0.5574 0.78258 0.4644 0.0
H1353 H 0.48322 0.75526 0.46604 0.0
H1354 H 0.4232 0.7862 0.57707 0.0
H1355 H 0.44224 0.78313 0.53546 0.0
C1356 C 0.7816 0.51777 0.40376 0.0
C1357 C 0.7844 0.54228 0.40078 0.0
C1358 C 0.77962 0.50785 0.42815 0.0
C1359 C 0.79375 0.52082 0.49579 0.0
H1360 H 0.75399 0.46642 0.50906 0.0
C1361 C 0.78274 0.48132 0.59685 0.0
C1362 C 0.78535 0.45666 0.59849 0.0
C1363 C 0.78058 0.49234 0.57305 0.0
C1364 C 0.76523 0.48157 0.50557 0.0
H1365 H 0.78632 0.57569 0.42109 0.0
H1366 H 0.7823 0.55847 0.46345 0.0
H1367 H 0.7536 0.48474 0.46677 0.0
H1368 H 0.78717 0.42423 0.57634 0.0
H1369 H 0.78337 0.44353 0.53493 0.0
H1370 H 0.80534 0.51764 0.5346 0.0
C1371 C 0.78229 0.54682 0.44702 0.0
C1372 C 0.76507 0.49201 0.48135 0.0
C1373 C 0.78447 0.5567 0.42269 0.0
C1374 C 0.78526 0.44327 0.57581 0.0
C1375 C 0.78291 0.45428 0.55207 0.0
C1376 C 0.79376 0.51049 0.52003 0.0
C1377 C 0.7802 0.52224 0.45009 0.0
C1378 C 0.77949 0.51165 0.47611 0.0
C1379 C 0.78078 0.47894 0.55042 0.0
C1380 C 0.77967 0.49064 0.5251 0.0
H1381 H 0.78158 0.50615 0.38729 0.0
H1382 H 0.77833 0.48883 0.42982 0.0
H1383 H 0.80541 0.53564 0.49233 0.0
H1384 H 0.78272 0.49217 0.61392 0.0
H1385 H 0.77877 0.51138 0.57233 0.0
C1386 C 0.44022 0.21284 0.42414 0.0
C1387 C 0.45447 0.21216 0.40212 0.0
C1388 C 0.45033 0.21513 0.44835 0.0
C1389 C 0.50567 0.23186 0.48183 0.0
H1390 H 0.47944 0.19359 0.53643 0.0
C1391 C 0.55442 0.21318 0.57662 0.0
C1392 C 0.54115 0.21376 0.59937 0.0
C1393 C 0.54333 0.21525 0.55289 0.0
C1394 C 0.48676 0.20462 0.52147 0.0
H1395 H 0.49059 0.21364 0.38832 0.0
H1396 H 0.50829 0.21709 0.43066 0.0
H1397 H 0.46128 0.19274 0.49423 0.0
H1398 H 0.50577 0.21737 0.61494 0.0
H1399 H 0.48642 0.22086 0.57336 0.0
H1400 H 0.53156 0.24321 0.50909 0.0
C1401 C 0.48923 0.2163 0.42916 0.0
C1402 C 0.47635 0.20417 0.49727 0.0
C1403 C 0.47909 0.2142 0.40487 0.0
C1404 C 0.51654 0.21684 0.59781 0.0
C1405 C 0.50542 0.21872 0.57402 0.0
C1406 C 0.51619 0.23218 0.50601 0.0
C1407 C 0.47497 0.21659 0.4512 0.0
C1408 C 0.48573 0.2177 0.47711 0.0
C1409 C 0.5187 0.21778 0.55133 0.0
C1410 C 0.5069 0.21846 0.52603 0.0
H1411 H 0.42117 0.21158 0.42273 0.0
H1412 H 0.43879 0.21577 0.46486 0.0
H1413 H 0.51312 0.24279 0.46686 0.0
H1414 H 0.57341 0.21091 0.57708 0.0
H1415 H 0.55399 0.21423 0.53571 0.0
C1416 C 0.71511 0.05682 0.07751 0.0
C1417 C 0.71444 0.04233 0.09933 0.0
C1418 C 0.71718 0.04694 0.05315 0.0
C1419 C 0.73253 0.99154 0.01874 0.0
H1420 H 0.6944 0.01935 0.96495 0.0
C1421 C 0.71163 0.94473 0.92313 0.0
C1422 C 0.71281 0.95837 0.90068 0.0
C1423 C 0.71408 0.95531 0.94711 0.0
C1424 C 0.70537 0.01157 0.97969 0.0
H1425 H 0.71576 0.00606 0.11267 0.0
H1426 H 0.71874 0.98878 0.0701 0.0
H1427 H 0.69438 0.03702 0.00738 0.0
H1428 H 0.71781 0.99386 0.88589 0.0
H1429 H 0.72189 0.01232 0.92787 0.0
H1430 H 0.74289 0.96564 0.99101 0.0
C1431 C 0.71817 0.00783 0.07184 0.0
C1432 C 0.70543 0.02172 0.00402 0.0
C1433 C 0.71634 0.01773 0.09626 0.0
C1434 C 0.71681 0.98282 0.90278 0.0
C1435 C 0.71904 0.99342 0.9268 0.0
C1436 C 0.73229 0.98126 0.99443 0.0
C1437 C 0.71836 0.02231 0.04996 0.0
C1438 C 0.71895 0.0118 0.02389 0.0
C1439 C 0.71754 0.97979 0.94919 0.0
C1440 C 0.71865 0.99114 0.9747 0.0
H1441 H 0.71397 0.07585 0.0792 0.0
H1442 H 0.71779 0.05866 0.0368 0.0
H1443 H 0.74343 0.98365 0.03346 0.0
H1444 H 0.70864 0.92585 0.92224 0.0
H1445 H 0.71264 0.9444 0.96407 0.0
C1446 C 0.01695 0.28195 0.90395 0.0
C1447 C 0.04147 0.28472 0.90092 0.0
C1448 C 0.00707 0.28002 0.92837 0.0
C1449 C 0.02019 0.29419 0.99597 0.0
H1450 H 0.96582 0.25445 0.00943 0.0
C1451 C 0.98096 0.28321 0.09718 0.0
C1452 C 0.9563 0.28582 0.0989 0.0
C1453 C 0.99193 0.28105 0.07334 0.0
C1454 C 0.98096 0.26568 0.00589 0.0
H1455 H 0.07491 0.28664 0.92115 0.0
H1456 H 0.05776 0.2827 0.96355 0.0
H1457 H 0.98401 0.25405 0.96708 0.0
H1458 H 0.92382 0.28763 0.07685 0.0
H1459 H 0.943 0.28382 0.03538 0.0
H1460 H 0.01712 0.30579 0.0348 0.0
C1461 C 0.04607 0.28267 0.94715 0.0
C1462 C 0.99133 0.26552 0.98163 0.0
C1463 C 0.05592 0.28481 0.92279 0.0
C1464 C 0.94285 0.28573 0.07627 0.0
C1465 C 0.9538 0.28337 0.05248 0.0
C1466 C 0.00993 0.29421 0.02025 0.0
C1467 C 0.0215 0.28061 0.95028 0.0
C1468 C 0.01097 0.27993 0.97632 0.0
C1469 C 0.97846 0.28124 0.05076 0.0
C1470 C 0.99009 0.28012 0.02539 0.0
H1471 H 0.0053 0.28191 0.88751 0.0
H1472 H 0.98805 0.27874 0.93008 0.0
H1473 H 0.03501 0.30585 0.99246 0.0
H1474 H 0.99186 0.2832 0.11421 0.0
H1475 H 0.01096 0.27924 0.07256 0.0
C1476 C 0.28214 0.01622 0.90165 0.0
C1477 C 0.28555 0.04077 0.8999 0.0
C1478 C 0.28002 0.00532 0.92554 0.0
C1479 C 0.26634 0.01675 0.99336 0.0
H1480 H 0.30507 0.96147 0.00583 0.0
C1481 C 0.28322 0.97987 0.09488 0.0
C1482 C 0.28511 0.95525 0.09771 0.0
C1483 C 0.28129 0.98996 0.07055 0.0
C1484 C 0.29382 0.97665 0.00259 0.0
H1485 H 0.28875 0.07316 0.92192 0.0
H1486 H 0.285 0.05411 0.96344 0.0
H1487 H 0.30471 0.97937 0.9635 0.0
H1488 H 0.28548 0.92189 0.07722 0.0
H1489 H 0.28156 0.93939 0.03503 0.0
H1490 H 0.25542 0.01404 0.03244 0.0
C1491 C 0.28391 0.04333 0.94635 0.0
C1492 C 0.29366 0.98691 0.97832 0.0
C1493 C 0.28623 0.05421 0.92253 0.0
C1494 C 0.28435 0.94094 0.07574 0.0
C1495 C 0.28222 0.95099 0.05149 0.0
C1496 C 0.26636 0.00638 0.01762 0.0
C1497 C 0.28104 0.01876 0.94812 0.0
C1498 C 0.28008 0.00717 0.97351 0.0
C1499 C 0.28101 0.97563 0.04855 0.0
C1500 C 0.28024 0.98629 0.02257 0.0
H1501 H 0.28153 0.00534 0.88462 0.0
H1502 H 0.27763 0.98635 0.92635 0.0
H1503 H 0.25551 0.03223 0.99008 0.0
H1504 H 0.28384 0.99141 0.1114 0.0
H1505 H 0.28067 0.00902 0.06897 0.0
C1506 C 0.98215 0.71527 0.9043 0.0
C1507 C 0.95767 0.71222 0.90131 0.0
C1508 C 0.99206 0.71722 0.92872 0.0
C1509 C 0.97924 0.7028 0.99635 0.0
H1510 H 0.03302 0.74338 0.00974 0.0
C1511 C 0.01825 0.71472 0.09756 0.0
C1512 C 0.04293 0.71243 0.09931 0.0
C1513 C 0.00727 0.71663 0.0737 0.0
C1514 C 0.01805 0.73191 0.00622 0.0
H1515 H 0.9243 0.70972 0.92161 0.0
H1516 H 0.94147 0.71369 0.96399 0.0
H1517 H 0.01481 0.74344 0.9674 0.0
H1518 H 0.07545 0.71094 0.07729 0.0
H1519 H 0.05625 0.71434 0.03579 0.0
H1520 H 0.98248 0.69133 0.0352 0.0
C1521 C 0.95313 0.71394 0.94756 0.0
C1522 C 0.00767 0.73187 0.98196 0.0
C1523 C 0.94326 0.71178 0.92322 0.0
C1524 C 0.0564 0.7126 0.07668 0.0
C1525 C 0.04543 0.71471 0.05288 0.0
C1526 C 0.9895 0.70298 0.02063 0.0
C1527 C 0.97767 0.71635 0.95065 0.0
C1528 C 0.98825 0.71717 0.97668 0.0
C1529 C 0.02075 0.71652 0.05113 0.0
C1530 C 0.00913 0.71738 0.02575 0.0
H1531 H 0.99376 0.71558 0.88784 0.0
H1532 H 0.01106 0.71875 0.93039 0.0
H1533 H 0.9646 0.69092 0.99286 0.0
H1534 H 0.00734 0.71466 0.11458 0.0
H1535 H 0.98821 0.71819 0.07289 0.0
loop_
_geom_bond_atom_site_label_1
_geom_bond_atom_site_label_2
_geom_bond_distance
_geom_bond_site_symmetry_2
_ccdc_geom_bond_type
Mn0 O5 2.095 . S
Mn0 O15 2.162 . S
Mn0 O16 2.297 . S
Mn0 O24 2.385 . S
Mn0 O25 2.209 . S
Mn0 O26 2.094 . S
Mn1 O6 2.121 . S
Mn1 N8 2.257 . S
Mn1 N17 2.282 . S
Mn1 O25 2.215 . S
Mn1 O27 2.117 . S
C2 O24 1.234 . S
C2 O25 1.283 . S
C3 O15 1.281 . S
C3 O16 1.236 . S
C4 O26 1.240 . S
C4 O27 1.264 . S
O5 Mn0 2.095 . S
O5 C14 1.250 . S
O6 Mn1 2.121 . S
O6 C14 1.258 . S
C7 N8 1.326 . S
C7 C11 1.460 . S
C7 H13 0.929 . S
N8 Mn1 2.257 . S
N8 C7 1.326 . S
N8 C12 1.362 . S
C9 C10 1.258 . S
C9 C12 1.431 . S
C9 C29 1.449 . S
C10 C9 1.258 . S
C10 C11 1.477 . S
C10 H30 0.931 . S
C11 C7 1.460 . S
C11 C10 1.477 . S
C11 H31 0.930 . S
C12 N8 1.362 . S
C12 C9 1.431 . S
C12 C22 1.476 . S
H13 C7 0.929 . S
C14 O5 1.250 . S
C14 O6 1.258 . S
O15 Mn0 2.162 . S
O15 C3 1.281 . S
O16 Mn0 2.297 . S
O16 C3 1.236 . S
N17 Mn1 2.282 . S
N17 C18 1.328 . S
N17 C22 1.318 . S
C18 N17 1.328 . S
C18 C19 1.457 . S
C18 H23 0.929 . S
C19 C18 1.457 . S
C19 C20 1.291 . S
C19 H32 0.931 . S
C20 C19 1.291 . S
C20 C21 1.373 . S
C20 H33 0.929 . S
C21 C20 1.373 . S
C21 C22 1.396 . S
C21 C28 1.403 . S
C22 C12 1.476 . S
C22 N17 1.318 . S
C22 C21 1.396 . S
H23 C18 0.929 . S
O24 Mn0 2.385 . S
O24 C2 1.234 . S
O25 Mn0 2.209 . S
O25 Mn1 2.215 . S
O25 C2 1.283 . S
O26 Mn0 2.094 . S
O26 C4 1.240 . S
O27 Mn1 2.117 . S
O27 C4 1.264 . S
C28 C21 1.403 . S
C28 C29 1.399 . S
C28 H34 0.929 . S
C29 C9 1.449 . S
C29 C28 1.399 . S
C29 H35 0.930 . S
H30 C10 0.931 . S
H31 C11 0.930 . S
H32 C19 0.931 . S
H33 C20 0.929 . S
H34 C28 0.929 . S
H35 C29 0.930 . S
Mn36 O41 2.095 . S
Mn36 O51 2.162 . S
Mn36 O52 2.297 . S
Mn36 O60 2.385 . S
Mn36 O61 2.209 . S
Mn36 O62 2.094 . S
Mn37 O42 2.121 . S
Mn37 N44 2.257 . S
Mn37 N53 2.282 . S
Mn37 O61 2.215 . S
Mn37 O63 2.117 . S
C38 O60 1.234 . S
C38 O61 1.283 . S
C39 O51 1.281 . S
C39 O52 1.236 . S
C40 O62 1.240 . S
C40 O63 1.264 . S
O41 Mn36 2.095 . S
O41 C50 1.250 . S
O42 Mn37 2.121 . S
O42 C50 1.258 . S
C43 N44 1.326 . S
C43 C47 1.460 . S
C43 H49 0.929 . S
N44 Mn37 2.257 . S
N44 C43 1.326 . S
N44 C48 1.362 . S
C45 C46 1.258 . S
C45 C48 1.431 . S
C45 C65 1.449 . S
C46 C45 1.258 . S
C46 C47 1.477 . S
C46 H66 0.931 . S
C47 C43 1.460 . S
C47 C46 1.477 . S
C47 H67 0.930 . S
C48 N44 1.362 . S
C48 C45 1.431 . S
C48 C58 1.476 . S
H49 C43 0.929 . S
C50 O41 1.250 . S
C50 O42 1.258 . S
O51 Mn36 2.162 . S
O51 C39 1.281 . S
O52 Mn36 2.297 . S
O52 C39 1.236 . S
N53 Mn37 2.282 . S
N53 C54 1.328 . S
N53 C58 1.318 . S
C54 N53 1.328 . S
C54 C55 1.457 . S
C54 H59 0.929 . S
C55 C54 1.457 . S
C55 C56 1.291 . S
C55 H68 0.931 . S
C56 C55 1.291 . S
C56 C57 1.373 . S
C56 H69 0.929 . S
C57 C56 1.373 . S
C57 C58 1.396 . S
C57 C64 1.403 . S
C58 C48 1.476 . S
C58 N53 1.318 . S
C58 C57 1.396 . S
H59 C54 0.929 . S
O60 Mn36 2.385 . S
O60 C38 1.234 . S
O61 Mn36 2.209 . S
O61 Mn37 2.215 . S
O61 C38 1.283 . S
O62 Mn36 2.094 . S
O62 C40 1.240 . S
O63 Mn37 2.117 . S
O63 C40 1.264 . S
C64 C57 1.403 . S
C64 C65 1.399 . S
C64 H70 0.929 . S
C65 C45 1.449 . S
C65 C64 1.399 . S
C65 H71 0.930 . S
H66 C46 0.931 . S
H67 C47 0.930 . S
H68 C55 0.931 . S
H69 C56 0.929 . S
H70 C64 0.929 . S
H71 C65 0.930 . S
Mn72 O77 2.095 . S
Mn72 O87 2.162 . S
Mn72 O88 2.297 . S
Mn72 O96 2.385 . S
Mn72 O97 2.209 . S
Mn72 O98 2.094 . S
Mn73 O78 2.121 . S
Mn73 N80 2.257 . S
Mn73 N89 2.282 . S
Mn73 O97 2.215 . S
Mn73 O99 2.117 . S
C74 O96 1.234 . S
C74 O97 1.283 . S
C75 O87 1.281 . S
C75 O88 1.236 . S
C76 O98 1.240 . S
C76 O99 1.264 . S
O77 Mn72 2.095 . S
O77 C86 1.250 . S
O78 Mn73 2.121 . S
O78 C86 1.258 . S
C79 N80 1.326 . S
C79 C83 1.460 . S
C79 H85 0.929 . S
N80 Mn73 2.257 . S
N80 C79 1.326 . S
N80 C84 1.362 . S
C81 C82 1.258 . S
C81 C84 1.431 . S
C81 C101 1.449 . S
C82 C81 1.258 . S
C82 C83 1.477 . S
C82 H102 0.931 . S
C83 C79 1.460 . S
C83 C82 1.477 . S
C83 H103 0.930 . S
C84 N80 1.362 . S
C84 C81 1.431 . S
C84 C94 1.476 . S
H85 C79 0.929 . S
C86 O77 1.250 . S
C86 O78 1.258 . S
O87 Mn72 2.162 . S
O87 C75 1.281 . S
O88 Mn72 2.297 . S
O88 C75 1.236 . S
N89 Mn73 2.282 . S
N89 C90 1.328 . S
N89 C94 1.318 . S
C90 N89 1.328 . S
C90 C91 1.457 . S
C90 H95 0.929 . S
C91 C90 1.457 . S
C91 C92 1.291 . S
C91 H104 0.931 . S
C92 C91 1.291 . S
C92 C93 1.373 . S
C92 H105 0.929 . S
C93 C92 1.373 . S
C93 C94 1.396 . S
C93 C100 1.403 . S
C94 C84 1.476 . S
C94 N89 1.318 . S
C94 C93 1.396 . S
H95 C90 0.929 . S
O96 Mn72 2.385 . S
O96 C74 1.234 . S
O97 Mn72 2.209 . S
O97 Mn73 2.215 . S
O97 C74 1.283 . S
O98 Mn72 2.094 . S
O98 C76 1.240 . S
O99 Mn73 2.117 . S
O99 C76 1.264 . S
C100 C93 1.403 . S
C100 C101 1.399 . S
C100 H106 0.929 . S
C101 C81 1.449 . S
C101 C100 1.399 . S
C101 H107 0.930 . S
H102 C82 0.931 . S
H103 C83 0.930 . S
H104 C91 0.931 . S
H105 C92 0.929 . S
H106 C100 0.929 . S
H107 C101 0.930 . S
Mn108 O113 2.095 . S
Mn108 O123 2.162 . S
Mn108 O124 2.297 . S
Mn108 O132 2.385 . S
Mn108 O133 2.209 . S
Mn108 O134 2.094 . S
Mn109 O114 2.121 . S
Mn109 N116 2.257 . S
Mn109 N125 2.282 . S
Mn109 O133 2.215 . S
Mn109 O135 2.117 . S
C110 O132 1.234 . S
C110 O133 1.283 . S
C111 O123 1.281 . S
C111 O124 1.236 . S
C112 O134 1.240 . S
C112 O135 1.264 . S
O113 Mn108 2.095 . S
O113 C122 1.250 . S
O114 Mn109 2.121 . S
O114 C122 1.258 . S
C115 N116 1.326 . S
C115 C119 1.460 . S
C115 H121 0.929 . S
N116 Mn109 2.257 . S
N116 C115 1.326 . S
N116 C120 1.362 . S
C117 C118 1.258 . S
C117 C120 1.431 . S
C117 C137 1.449 . S
C118 C117 1.258 . S
C118 C119 1.477 . S
C118 H138 0.931 . S
C119 C115 1.460 . S
C119 C118 1.477 . S
C119 H139 0.930 . S
C120 N116 1.362 . S
C120 C117 1.431 . S
C120 C130 1.476 . S
H121 C115 0.929 . S
C122 O113 1.250 . S
C122 O114 1.258 . S
O123 Mn108 2.162 . S
O123 C111 1.281 . S
O124 Mn108 2.297 . S
O124 C111 1.236 . S
N125 Mn109 2.282 . S
N125 C126 1.328 . S
N125 C130 1.318 . S
C126 N125 1.328 . S
C126 C127 1.457 . S
C126 H131 0.929 . S
C127 C126 1.457 . S
C127 C128 1.291 . S
C127 H140 0.931 . S
C128 C127 1.291 . S
C128 C129 1.373 . S
C128 H141 0.929 . S
C129 C128 1.373 . S
C129 C130 1.396 . S
C129 C136 1.403 . S
C130 C120 1.476 . S
C130 N125 1.318 . S
C130 C129 1.396 . S
H131 C126 0.929 . S
O132 Mn108 2.385 . S
O132 C110 1.234 . S
O133 Mn108 2.209 . S
O133 Mn109 2.215 . S
O133 C110 1.283 . S
O134 Mn108 2.094 . S
O134 C112 1.240 . S
O135 Mn109 2.117 . S
O135 C112 1.264 . S
C136 C129 1.403 . S
C136 C137 1.399 . S
C136 H142 0.929 . S
C137 C117 1.449 . S
C137 C136 1.399 . S
C137 H143 0.930 . S
H138 C118 0.931 . S
H139 C119 0.930 . S
H140 C127 0.931 . S
H141 C128 0.929 . S
H142 C136 0.929 . S
H143 C137 0.930 . S
Mn144 O149 2.095 . S
Mn144 O159 2.162 . S
Mn144 O160 2.297 . S
Mn144 O168 2.385 . S
Mn144 O169 2.209 . S
Mn144 O170 2.094 . S
Mn145 O150 2.121 . S
Mn145 N152 2.257 . S
Mn145 N161 2.282 . S
Mn145 O169 2.215 . S
Mn145 O171 2.117 . S
C146 O168 1.234 . S
C146 O169 1.283 . S
C147 O159 1.281 . S
C147 O160 1.236 . S
C148 O170 1.240 . S
C148 O171 1.264 . S
O149 Mn144 2.095 . S
O149 C158 1.250 . S
O150 Mn145 2.121 . S
O150 C158 1.258 . S
C151 N152 1.326 . S
C151 C155 1.460 . S
C151 H157 0.929 . S
N152 Mn145 2.257 . S
N152 C151 1.326 . S
N152 C156 1.362 . S
C153 C154 1.258 . S
C153 C156 1.431 . S
C153 C173 1.449 . S
C154 C153 1.258 . S
C154 C155 1.477 . S
C154 H174 0.931 . S
C155 C151 1.460 . S
C155 C154 1.477 . S
C155 H175 0.930 . S
C156 N152 1.362 . S
C156 C153 1.431 . S
C156 C166 1.476 . S
H157 C151 0.929 . S
C158 O149 1.250 . S
C158 O150 1.258 . S
O159 Mn144 2.162 . S
O159 C147 1.281 . S
O160 Mn144 2.297 . S
O160 C147 1.236 . S
N161 Mn145 2.282 . S
N161 C162 1.328 . S
N161 C166 1.318 . S
C162 N161 1.328 . S
C162 C163 1.457 . S
C162 H167 0.929 . S
C163 C162 1.457 . S
C163 C164 1.291 . S
C163 H176 0.931 . S
C164 C163 1.291 . S
C164 C165 1.373 . S
C164 H177 0.929 . S
C165 C164 1.373 . S
C165 C166 1.396 . S
C165 C172 1.403 . S
C166 C156 1.476 . S
C166 N161 1.318 . S
C166 C165 1.396 . S
H167 C162 0.929 . S
O168 Mn144 2.385 . S
O168 C146 1.234 . S
O169 Mn144 2.209 . S
O169 Mn145 2.215 . S
O169 C146 1.283 . S
O170 Mn144 2.094 . S
O170 C148 1.240 . S
O171 Mn145 2.117 . S
O171 C148 1.264 . S
C172 C165 1.403 . S
C172 C173 1.399 . S
C172 H178 0.929 . S
C173 C153 1.449 . S
C173 C172 1.399 . S
C173 H179 0.930 . S
H174 C154 0.931 . S
H175 C155 0.930 . S
H176 C163 0.931 . S
H177 C164 0.929 . S
H178 C172 0.929 . S
H179 C173 0.930 . S
Mn180 O185 2.095 . S
Mn180 O195 2.162 . S
Mn180 O196 2.297 . S
Mn180 O204 2.385 . S
Mn180 O205 2.209 . S
Mn180 O206 2.094 . S
Mn181 O186 2.121 . S
Mn181 N188 2.257 . S
Mn181 N197 2.282 . S
Mn181 O205 2.215 . S
Mn181 O207 2.117 . S
C182 O204 1.234 . S
C182 O205 1.283 . S
C183 O195 1.281 . S
C183 O196 1.236 . S
C184 O206 1.240 . S
C184 O207 1.264 . S
O185 Mn180 2.095 . S
O185 C194 1.250 . S
O186 Mn181 2.121 . S
O186 C194 1.258 . S
C187 N188 1.326 . S
C187 C191 1.460 . S
C187 H193 0.929 . S
N188 Mn181 2.257 . S
N188 C187 1.326 . S
N188 C192 1.362 . S
C189 C190 1.258 . S
C189 C192 1.431 . S
C189 C209 1.449 . S
C190 C189 1.258 . S
C190 C191 1.477 . S
C190 H210 0.931 . S
C191 C187 1.460 . S
C191 C190 1.477 . S
C191 H211 0.930 . S
C192 N188 1.362 . S
C192 C189 1.431 . S
C192 C202 1.476 . S
H193 C187 0.929 . S
C194 O185 1.250 . S
C194 O186 1.258 . S
O195 Mn180 2.162 . S
O195 C183 1.281 . S
O196 Mn180 2.297 . S
O196 C183 1.236 . S
N197 Mn181 2.282 . S
N197 C198 1.328 . S
N197 C202 1.318 . S
C198 N197 1.328 . S
C198 C199 1.457 . S
C198 H203 0.929 . S
C199 C198 1.457 . S
C199 C200 1.291 . S
C199 H212 0.931 . S
C200 C199 1.291 . S
C200 C201 1.373 . S
C200 H213 0.929 . S
C201 C200 1.373 . S
C201 C202 1.396 . S
C201 C208 1.403 . S
C202 C192 1.476 . S
C202 N197 1.318 . S
C202 C201 1.396 . S
H203 C198 0.929 . S
O204 Mn180 2.385 . S
O204 C182 1.234 . S
O205 Mn180 2.209 . S
O205 Mn181 2.215 . S
O205 C182 1.283 . S
O206 Mn180 2.094 . S
O206 C184 1.240 . S
O207 Mn181 2.117 . S
O207 C184 1.264 . S
C208 C201 1.403 . S
C208 C209 1.399 . S
C208 H214 0.929 . S
C209 C189 1.449 . S
C209 C208 1.399 . S
C209 H215 0.930 . S
H210 C190 0.931 . S
H211 C191 0.930 . S
H212 C199 0.931 . S
H213 C200 0.929 . S
H214 C208 0.929 . S
H215 C209 0.930 . S
Mn216 O221 2.095 . S
Mn216 O231 2.162 . S
Mn216 O232 2.297 . S
Mn216 O240 2.385 . S
Mn216 O241 2.209 . S
Mn216 O242 2.094 . S
Mn217 O222 2.121 . S
Mn217 N224 2.257 . S
Mn217 N233 2.282 . S
Mn217 O241 2.215 . S
Mn217 O243 2.117 . S
C218 O240 1.234 . S
C218 O241 1.283 . S
C219 O231 1.281 . S
C219 O232 1.236 . S
C220 O242 1.240 . S
C220 O243 1.264 . S
O221 Mn216 2.095 . S
O221 C230 1.250 . S
O222 Mn217 2.121 . S
O222 C230 1.258 . S
C223 N224 1.326 . S
C223 C227 1.460 . S
C223 H229 0.929 . S
N224 Mn217 2.257 . S
N224 C223 1.326 . S
N224 C228 1.362 . S
C225 C226 1.258 . S
C225 C228 1.431 . S
C225 C245 1.449 . S
C226 C225 1.258 . S
C226 C227 1.477 . S
C226 H246 0.931 . S
C227 C223 1.460 . S
C227 C226 1.477 . S
C227 H247 0.930 . S
C228 N224 1.362 . S
C228 C225 1.431 . S
C228 C238 1.476 . S
H229 C223 0.929 . S
C230 O221 1.250 . S
C230 O222 1.258 . S
O231 Mn216 2.162 . S
O231 C219 1.281 . S
O232 Mn216 2.297 . S
O232 C219 1.236 . S
N233 Mn217 2.282 . S
N233 C234 1.328 . S
N233 C238 1.318 . S
C234 N233 1.328 . S
C234 C235 1.457 . S
C234 H239 0.929 . S
C235 C234 1.457 . S
C235 C236 1.291 . S
C235 H248 0.931 . S
C236 C235 1.291 . S
C236 C237 1.373 . S
C236 H249 0.929 . S
C237 C236 1.373 . S
C237 C238 1.396 . S
C237 C244 1.403 . S
C238 C228 1.476 . S
C238 N233 1.318 . S
C238 C237 1.396 . S
H239 C234 0.929 . S
O240 Mn216 2.385 . S
O240 C218 1.234 . S
O241 Mn216 2.209 . S
O241 Mn217 2.215 . S
O241 C218 1.283 . S
O242 Mn216 2.094 . S
O242 C220 1.240 . S
O243 Mn217 2.117 . S
O243 C220 1.264 . S
C244 C237 1.403 . S
C244 C245 1.399 . S
C244 H250 0.929 . S
C245 C225 1.449 . S
C245 C244 1.399 . S
C245 H251 0.930 . S
H246 C226 0.931 . S
H247 C227 0.930 . S
H248 C235 0.931 . S
H249 C236 0.929 . S
H250 C244 0.929 . S
H251 C245 0.930 . S
Mn252 O257 2.095 . S
Mn252 O267 2.162 . S
Mn252 O268 2.297 . S
Mn252 O276 2.385 . S
Mn252 O277 2.209 . S
Mn252 O278 2.094 . S
Mn253 O258 2.121 . S
Mn253 N260 2.257 . S
Mn253 N269 2.282 . S
Mn253 O277 2.215 . S
Mn253 O279 2.117 . S
C254 O276 1.234 . S
C254 O277 1.283 . S
C255 O267 1.281 . S
C255 O268 1.236 . S
C256 O278 1.240 . S
C256 O279 1.264 . S
O257 Mn252 2.095 . S
O257 C266 1.250 . S
O258 Mn253 2.121 . S
O258 C266 1.258 . S
C259 N260 1.326 . S
C259 C263 1.460 . S
C259 H265 0.929 . S
N260 Mn253 2.257 . S
N260 C259 1.326 . S
N260 C264 1.362 . S
C261 C262 1.258 . S
C261 C264 1.431 . S
C261 C281 1.449 . S
C262 C261 1.258 . S
C262 C263 1.477 . S
C262 H282 0.931 . S
C263 C259 1.460 . S
C263 C262 1.477 . S
C263 H283 0.930 . S
C264 N260 1.362 . S
C264 C261 1.431 . S
C264 C274 1.476 . S
H265 C259 0.929 . S
C266 O257 1.250 . S
C266 O258 1.258 . S
O267 Mn252 2.162 . S
O267 C255 1.281 . S
O268 Mn252 2.297 . S
O268 C255 1.236 . S
N269 Mn253 2.282 . S
N269 C270 1.328 . S
N269 C274 1.318 . S
C270 N269 1.328 . S
C270 C271 1.457 . S
C270 H275 0.929 . S
C271 C270 1.457 . S
C271 C272 1.291 . S
C271 H284 0.931 . S
C272 C271 1.291 . S
C272 C273 1.373 . S
C272 H285 0.929 . S
C273 C272 1.373 . S
C273 C274 1.396 . S
C273 C280 1.403 . S
C274 C264 1.476 . S
C274 N269 1.318 . S
C274 C273 1.396 . S
H275 C270 0.929 . S
O276 Mn252 2.385 . S
O276 C254 1.234 . S
O277 Mn252 2.209 . S
O277 Mn253 2.215 . S
O277 C254 1.283 . S
O278 Mn252 2.094 . S
O278 C256 1.240 . S
O279 Mn253 2.117 . S
O279 C256 1.264 . S
C280 C273 1.403 . S
C280 C281 1.399 . S
C280 H286 0.929 . S
C281 C261 1.449 . S
C281 C280 1.399 . S
C281 H287 0.930 . S
H282 C262 0.931 . S
H283 C263 0.930 . S
H284 C271 0.931 . S
H285 C272 0.929 . S
H286 C280 0.929 . S
H287 C281 0.930 . S
Mn288 O293 2.095 . S
Mn288 O303 2.162 . S
Mn288 O304 2.297 . S
Mn288 O312 2.385 . S
Mn288 O313 2.209 . S
Mn288 O314 2.094 . S
Mn289 O294 2.121 . S
Mn289 N296 2.257 . S
Mn289 N305 2.282 . S
Mn289 O313 2.215 . S
Mn289 O315 2.117 . S
C290 O312 1.234 . S
C290 O313 1.283 . S
C291 O303 1.281 . S
C291 O304 1.236 . S
C292 O314 1.240 . S
C292 O315 1.264 . S
O293 Mn288 2.095 . S
O293 C302 1.250 . S
O294 Mn289 2.121 . S
O294 C302 1.258 . S
C295 N296 1.326 . S
C295 C299 1.460 . S
C295 H301 0.929 . S
N296 Mn289 2.257 . S
N296 C295 1.326 . S
N296 C300 1.362 . S
C297 C298 1.258 . S
C297 C300 1.431 . S
C297 C317 1.449 . S
C298 C297 1.258 . S
C298 C299 1.477 . S
C298 H318 0.931 . S
C299 C295 1.460 . S
C299 C298 1.477 . S
C299 H319 0.930 . S
C300 N296 1.362 . S
C300 C297 1.431 . S
C300 C310 1.476 . S
H301 C295 0.929 . S
C302 O293 1.250 . S
C302 O294 1.258 . S
O303 Mn288 2.162 . S
O303 C291 1.281 . S
O304 Mn288 2.297 . S
O304 C291 1.236 . S
N305 Mn289 2.282 . S
N305 C306 1.328 . S
N305 C310 1.318 . S
C306 N305 1.328 . S
C306 C307 1.457 . S
C306 H311 0.929 . S
C307 C306 1.457 . S
C307 C308 1.291 . S
C307 H320 0.931 . S
C308 C307 1.291 . S
C308 C309 1.373 . S
C308 H321 0.929 . S
C309 C308 1.373 . S
C309 C310 1.396 . S
C309 C316 1.403 . S
C310 C300 1.476 . S
C310 N305 1.318 . S
C310 C309 1.396 . S
H311 C306 0.929 . S
O312 Mn288 2.385 . S
O312 C290 1.234 . S
O313 Mn288 2.209 . S
O313 Mn289 2.215 . S
O313 C290 1.283 . S
O314 Mn288 2.094 . S
O314 C292 1.240 . S
O315 Mn289 2.117 . S
O315 C292 1.264 . S
C316 C309 1.403 . S
C316 C317 1.399 . S
C316 H322 0.929 . S
C317 C297 1.449 . S
C317 C316 1.399 . S
C317 H323 0.930 . S
H318 C298 0.931 . S
H319 C299 0.930 . S
H320 C307 0.931 . S
H321 C308 0.929 . S
H322 C316 0.929 . S
H323 C317 0.930 . S
Mn324 O329 2.095 . S
Mn324 O339 2.162 . S
Mn324 O340 2.297 . S
Mn324 O348 2.385 . S
Mn324 O349 2.209 . S
Mn324 O350 2.094 . S
Mn325 O330 2.121 . S
Mn325 N332 2.257 . S
Mn325 N341 2.282 . S
Mn325 O349 2.215 . S
Mn325 O351 2.117 . S
C326 O348 1.234 . S
C326 O349 1.283 . S
C327 O339 1.281 . S
C327 O340 1.236 . S
C328 O350 1.240 . S
C328 O351 1.264 . S
O329 Mn324 2.095 . S
O329 C338 1.250 . S
O330 Mn325 2.121 . S
O330 C338 1.258 . S
C331 N332 1.326 . S
C331 C335 1.460 . S
C331 H337 0.929 . S
N332 Mn325 2.257 . S
N332 C331 1.326 . S
N332 C336 1.362 . S
C333 C334 1.258 . S
C333 C336 1.431 . S
C333 C353 1.449 . S
C334 C333 1.258 . S
C334 C335 1.477 . S
C334 H354 0.931 . S
C335 C331 1.460 . S
C335 C334 1.477 . S
C335 H355 0.930 . S
C336 N332 1.362 . S
C336 C333 1.431 . S
C336 C346 1.476 . S
H337 C331 0.929 . S
C338 O329 1.250 . S
C338 O330 1.258 . S
O339 Mn324 2.162 . S
O339 C327 1.281 . S
O340 Mn324 2.297 . S
O340 C327 1.236 . S
N341 Mn325 2.282 . S
N341 C342 1.328 . S
N341 C346 1.318 . S
C342 N341 1.328 . S
C342 C343 1.457 . S
C342 H347 0.929 . S
C343 C342 1.457 . S
C343 C344 1.291 . S
C343 H356 0.931 . S
C344 C343 1.291 . S
C344 C345 1.373 . S
C344 H357 0.929 . S
C345 C344 1.373 . S
C345 C346 1.396 . S
C345 C352 1.403 . S
C346 C336 1.476 . S
C346 N341 1.318 . S
C346 C345 1.396 . S
H347 C342 0.929 . S
O348 Mn324 2.385 . S
O348 C326 1.234 . S
O349 Mn324 2.209 . S
O349 Mn325 2.215 . S
O349 C326 1.283 . S
O350 Mn324 2.094 . S
O350 C328 1.240 . S
O351 Mn325 2.117 . S
O351 C328 1.264 . S
C352 C345 1.403 . S
C352 C353 1.399 . S
C352 H358 0.929 . S
C353 C333 1.449 . S
C353 C352 1.399 . S
C353 H359 0.930 . S
H354 C334 0.931 . S
H355 C335 0.930 . S
H356 C343 0.931 . S
H357 C344 0.929 . S
H358 C352 0.929 . S
H359 C353 0.930 . S
Mn360 O365 2.095 . S
Mn360 O375 2.162 . S
Mn360 O376 2.297 . S
Mn360 O384 2.385 . S
Mn360 O385 2.209 . S
Mn360 O386 2.094 . S
Mn361 O366 2.121 . S
Mn361 N368 2.257 . S
Mn361 N377 2.282 . S
Mn361 O385 2.215 . S
Mn361 O387 2.117 . S
C362 O384 1.234 . S
C362 O385 1.283 . S
C363 O375 1.281 . S
C363 O376 1.236 . S
C364 O386 1.240 . S
C364 O387 1.264 . S
O365 Mn360 2.095 . S
O365 C374 1.250 . S
O366 Mn361 2.121 . S
O366 C374 1.258 . S
C367 N368 1.326 . S
C367 C371 1.460 . S
C367 H373 0.929 . S
N368 Mn361 2.257 . S
N368 C367 1.326 . S
N368 C372 1.362 . S
C369 C370 1.258 . S
C369 C372 1.431 . S
C369 C389 1.449 . S
C370 C369 1.258 . S
C370 C371 1.477 . S
C370 H390 0.931 . S
C371 C367 1.460 . S
C371 C370 1.477 . S
C371 H391 0.930 . S
C372 N368 1.362 . S
C372 C369 1.431 . S
C372 C382 1.476 . S
H373 C367 0.929 . S
C374 O365 1.250 . S
C374 O366 1.258 . S
O375 Mn360 2.162 . S
O375 C363 1.281 . S
O376 Mn360 2.297 . S
O376 C363 1.236 . S
N377 Mn361 2.282 . S
N377 C378 1.328 . S
N377 C382 1.318 . S
C378 N377 1.328 . S
C378 C379 1.457 . S
C378 H383 0.929 . S
C379 C378 1.457 . S
C379 C380 1.291 . S
C379 H392 0.931 . S
C380 C379 1.291 . S
C380 C381 1.373 . S
C380 H393 0.929 . S
C381 C380 1.373 . S
C381 C382 1.396 . S
C381 C388 1.403 . S
C382 C372 1.476 . S
C382 N377 1.318 . S
C382 C381 1.396 . S
H383 C378 0.929 . S
O384 Mn360 2.385 . S
O384 C362 1.234 . S
O385 Mn360 2.209 . S
O385 Mn361 2.215 . S
O385 C362 1.283 . S
O386 Mn360 2.094 . S
O386 C364 1.240 . S
O387 Mn361 2.117 . S
O387 C364 1.264 . S
C388 C381 1.403 . S
C388 C389 1.399 . S
C388 H394 0.929 . S
C389 C369 1.449 . S
C389 C388 1.399 . S
C389 H395 0.930 . S
H390 C370 0.931 . S
H391 C371 0.930 . S
H392 C379 0.931 . S
H393 C380 0.929 . S
H394 C388 0.929 . S
H395 C389 0.930 . S
Mn396 O401 2.095 . S
Mn396 O411 2.162 . S
Mn396 O412 2.297 . S
Mn396 O420 2.385 . S
Mn396 O421 2.209 . S
Mn396 O422 2.094 . S
Mn397 O402 2.121 . S
Mn397 N404 2.257 . S
Mn397 N413 2.282 . S
Mn397 O421 2.215 . S
Mn397 O423 2.117 . S
C398 O420 1.234 . S
C398 O421 1.283 . S
C399 O411 1.281 . S
C399 O412 1.236 . S
C400 O422 1.240 . S
C400 O423 1.264 . S
O401 Mn396 2.095 . S
O401 C410 1.250 . S
O402 Mn397 2.121 . S
O402 C410 1.258 . S
C403 N404 1.326 . S
C403 C407 1.460 . S
C403 H409 0.929 . S
N404 Mn397 2.257 . S
N404 C403 1.326 . S
N404 C408 1.362 . S
C405 C406 1.258 . S
C405 C408 1.431 . S
C405 C425 1.449 . S
C406 C405 1.258 . S
C406 C407 1.477 . S
C406 H426 0.931 . S
C407 C403 1.460 . S
C407 C406 1.477 . S
C407 H427 0.930 . S
C408 N404 1.362 . S
C408 C405 1.431 . S
C408 C418 1.476 . S
H409 C403 0.929 . S
C410 O401 1.250 . S
C410 O402 1.258 . S
O411 Mn396 2.162 . S
O411 C399 1.281 . S
O412 Mn396 2.297 . S
O412 C399 1.236 . S
N413 Mn397 2.282 . S
N413 C414 1.328 . S
N413 C418 1.318 . S
C414 N413 1.328 . S
C414 C415 1.457 . S
C414 H419 0.929 . S
C415 C414 1.457 . S
C415 C416 1.291 . S
C415 H428 0.931 . S
C416 C415 1.291 . S
C416 C417 1.373 . S
C416 H429 0.929 . S
C417 C416 1.373 . S
C417 C418 1.396 . S
C417 C424 1.403 . S
C418 C408 1.476 . S
C418 N413 1.318 . S
C418 C417 1.396 . S
H419 C414 0.929 . S
O420 Mn396 2.385 . S
O420 C398 1.234 . S
O421 Mn396 2.209 . S
O421 Mn397 2.215 . S
O421 C398 1.283 . S
O422 Mn396 2.094 . S
O422 C400 1.240 . S
O423 Mn397 2.117 . S
O423 C400 1.264 . S
C424 C417 1.403 . S
C424 C425 1.399 . S
C424 H430 0.929 . S
C425 C405 1.449 . S
C425 C424 1.399 . S
C425 H431 0.930 . S
H426 C406 0.931 . S
H427 C407 0.930 . S
H428 C415 0.931 . S
H429 C416 0.929 . S
H430 C424 0.929 . S
H431 C425 0.930 . S
Mn432 O437 2.095 . S
Mn432 O447 2.162 . S
Mn432 O448 2.297 . S
Mn432 O456 2.385 . S
Mn432 O457 2.209 . S
Mn432 O458 2.094 . S
Mn433 O438 2.121 . S
Mn433 N440 2.257 . S
Mn433 N449 2.282 . S
Mn433 O457 2.215 . S
Mn433 O459 2.117 . S
C434 O456 1.234 . S
C434 O457 1.283 . S
C435 O447 1.281 . S
C435 O448 1.236 . S
C436 O458 1.240 . S
C436 O459 1.264 . S
O437 Mn432 2.095 . S
O437 C446 1.250 . S
O438 Mn433 2.121 . S
O438 C446 1.258 . S
C439 N440 1.326 . S
C439 C443 1.460 . S
C439 H445 0.929 . S
N440 Mn433 2.257 . S
N440 C439 1.326 . S
N440 C444 1.362 . S
C441 C442 1.258 . S
C441 C444 1.431 . S
C441 C461 1.449 . S
C442 C441 1.258 . S
C442 C443 1.477 . S
C442 H462 0.931 . S
C443 C439 1.460 . S
C443 C442 1.477 . S
C443 H463 0.930 . S
C444 N440 1.362 . S
C444 C441 1.431 . S
C444 C454 1.476 . S
H445 C439 0.929 . S
C446 O437 1.250 . S
C446 O438 1.258 . S
O447 Mn432 2.162 . S
O447 C435 1.281 . S
O448 Mn432 2.297 . S
O448 C435 1.236 . S
N449 Mn433 2.282 . S
N449 C450 1.328 . S
N449 C454 1.318 . S
C450 N449 1.328 . S
C450 C451 1.457 . S
C450 H455 0.929 . S
C451 C450 1.457 . S
C451 C452 1.291 . S
C451 H464 0.931 . S
C452 C451 1.291 . S
C452 C453 1.373 . S
C452 H465 0.929 . S
C453 C452 1.373 . S
C453 C454 1.396 . S
C453 C460 1.403 . S
C454 C444 1.476 . S
C454 N449 1.318 . S
C454 C453 1.396 . S
H455 C450 0.929 . S
O456 Mn432 2.385 . S
O456 C434 1.234 . S
O457 Mn432 2.209 . S
O457 Mn433 2.215 . S
O457 C434 1.283 . S
O458 Mn432 2.094 . S
O458 C436 1.240 . S
O459 Mn433 2.117 . S
O459 C436 1.264 . S
C460 C453 1.403 . S
C460 C461 1.399 . S
C460 H466 0.929 . S
C461 C441 1.449 . S
C461 C460 1.399 . S
C461 H467 0.930 . S
H462 C442 0.931 . S
H463 C443 0.930 . S
H464 C451 0.931 . S
H465 C452 0.929 . S
H466 C460 0.929 . S
H467 C461 0.930 . S
Mn468 O473 2.095 . S
Mn468 O483 2.162 . S
Mn468 O484 2.297 . S
Mn468 O492 2.385 . S
Mn468 O493 2.209 . S
Mn468 O494 2.094 . S
Mn469 O474 2.121 . S
Mn469 N476 2.257 . S
Mn469 N485 2.282 . S
Mn469 O493 2.215 . S
Mn469 O495 2.117 . S
C470 O492 1.234 . S
C470 O493 1.283 . S
C471 O483 1.281 . S
C471 O484 1.236 . S
C472 O494 1.240 . S
C472 O495 1.264 . S
O473 Mn468 2.095 . S
O473 C482 1.250 . S
O474 Mn469 2.121 . S
O474 C482 1.258 . S
C475 N476 1.326 . S
C475 C479 1.460 . S
C475 H481 0.929 . S
N476 Mn469 2.257 . S
N476 C475 1.326 . S
N476 C480 1.362 . S
C477 C478 1.258 . S
C477 C480 1.431 . S
C477 C497 1.449 . S
C478 C477 1.258 . S
C478 C479 1.477 . S
C478 H498 0.931 . S
C479 C475 1.460 . S
C479 C478 1.477 . S
C479 H499 0.930 . S
C480 N476 1.362 . S
C480 C477 1.431 . S
C480 C490 1.476 . S
H481 C475 0.929 . S
C482 O473 1.250 . S
C482 O474 1.258 . S
O483 Mn468 2.162 . S
O483 C471 1.281 . S
O484 Mn468 2.297 . S
O484 C471 1.236 . S
N485 Mn469 2.282 . S
N485 C486 1.328 . S
N485 C490 1.318 . S
C486 N485 1.328 . S
C486 C487 1.457 . S
C486 H491 0.929 . S
C487 C486 1.457 . S
C487 C488 1.291 . S
C487 H500 0.931 . S
C488 C487 1.291 . S
C488 C489 1.373 . S
C488 H501 0.929 . S
C489 C488 1.373 . S
C489 C490 1.396 . S
C489 C496 1.403 . S
C490 C480 1.476 . S
C490 N485 1.318 . S
C490 C489 1.396 . S
H491 C486 0.929 . S
O492 Mn468 2.385 . S
O492 C470 1.234 . S
O493 Mn468 2.209 . S
O493 Mn469 2.215 . S
O493 C470 1.283 . S
O494 Mn468 2.094 . S
O494 C472 1.240 . S
O495 Mn469 2.117 . S
O495 C472 1.264 . S
C496 C489 1.403 . S
C496 C497 1.399 . S
C496 H502 0.929 . S
C497 C477 1.449 . S
C497 C496 1.399 . S
C497 H503 0.930 . S
H498 C478 0.931 . S
H499 C479 0.930 . S
H500 C487 0.931 . S
H501 C488 0.929 . S
H502 C496 0.929 . S
H503 C497 0.930 . S
Mn504 O509 2.095 . S
Mn504 O519 2.162 . S
Mn504 O520 2.297 . S
Mn504 O528 2.385 . S
Mn504 O529 2.209 . S
Mn504 O530 2.094 . S
Mn505 O510 2.121 . S
Mn505 N512 2.257 . S
Mn505 N521 2.282 . S
Mn505 O529 2.215 . S
Mn505 O531 2.117 . S
C506 O528 1.234 . S
C506 O529 1.283 . S
C507 O519 1.281 . S
C507 O520 1.236 . S
C508 O530 1.240 . S
C508 O531 1.264 . S
O509 Mn504 2.095 . S
O509 C518 1.250 . S
O510 Mn505 2.121 . S
O510 C518 1.258 . S
C511 N512 1.326 . S
C511 C515 1.460 . S
C511 H517 0.929 . S
N512 Mn505 2.257 . S
N512 C511 1.326 . S
N512 C516 1.362 . S
C513 C514 1.258 . S
C513 C516 1.431 . S
C513 C533 1.449 . S
C514 C513 1.258 . S
C514 C515 1.477 . S
C514 H534 0.931 . S
C515 C511 1.460 . S
C515 C514 1.477 . S
C515 H535 0.930 . S
C516 N512 1.362 . S
C516 C513 1.431 . S
C516 C526 1.476 . S
H517 C511 0.929 . S
C518 O509 1.250 . S
C518 O510 1.258 . S
O519 Mn504 2.162 . S
O519 C507 1.281 . S
O520 Mn504 2.297 . S
O520 C507 1.236 . S
N521 Mn505 2.282 . S
N521 C522 1.328 . S
N521 C526 1.318 . S
C522 N521 1.328 . S
C522 C523 1.457 . S
C522 H527 0.929 . S
C523 C522 1.457 . S
C523 C524 1.291 . S
C523 H536 0.931 . S
C524 C523 1.291 . S
C524 C525 1.373 . S
C524 H537 0.929 . S
C525 C524 1.373 . S
C525 C526 1.396 . S
C525 C532 1.403 . S
C526 C516 1.476 . S
C526 N521 1.318 . S
C526 C525 1.396 . S
H527 C522 0.929 . S
O528 Mn504 2.385 . S
O528 C506 1.234 . S
O529 Mn504 2.209 . S
O529 Mn505 2.215 . S
O529 C506 1.283 . S
O530 Mn504 2.094 . S
O530 C508 1.240 . S
O531 Mn505 2.117 . S
O531 C508 1.264 . S
C532 C525 1.403 . S
C532 C533 1.399 . S
C532 H538 0.929 . S
C533 C513 1.449 . S
C533 C532 1.399 . S
C533 H539 0.930 . S
H534 C514 0.931 . S
H535 C515 0.930 . S
H536 C523 0.931 . S
H537 C524 0.929 . S
H538 C532 0.929 . S
H539 C533 0.930 . S
Mn540 O545 2.095 . S
Mn540 O555 2.162 . S
Mn540 O556 2.297 . S
Mn540 O564 2.385 . S
Mn540 O565 2.209 . S
Mn540 O566 2.094 . S
Mn541 O546 2.121 . S
Mn541 N548 2.257 . S
Mn541 N557 2.282 . S
Mn541 O565 2.215 . S
Mn541 O567 2.117 . S
C542 O564 1.234 . S
C542 O565 1.283 . S
C543 O555 1.281 . S
C543 O556 1.236 . S
C544 O566 1.240 . S
C544 O567 1.264 . S
O545 Mn540 2.095 . S
O545 C554 1.250 . S
O546 Mn541 2.121 . S
O546 C554 1.258 . S
C547 N548 1.326 . S
C547 C551 1.460 . S
C547 H553 0.929 . S
N548 Mn541 2.257 . S
N548 C547 1.326 . S
N548 C552 1.362 . S
C549 C550 1.258 . S
C549 C552 1.431 . S
C549 C569 1.449 . S
C550 C549 1.258 . S
C550 C551 1.477 . S
C550 H570 0.931 . S
C551 C547 1.460 . S
C551 C550 1.477 . S
C551 H571 0.930 . S
C552 N548 1.362 . S
C552 C549 1.431 . S
C552 C562 1.476 . S
H553 C547 0.929 . S
C554 O545 1.250 . S
C554 O546 1.258 . S
O555 Mn540 2.162 . S
O555 C543 1.281 . S
O556 Mn540 2.297 . S
O556 C543 1.236 . S
N557 Mn541 2.282 . S
N557 C558 1.328 . S
N557 C562 1.318 . S
C558 N557 1.328 . S
C558 C559 1.457 . S
C558 H563 0.929 . S
C559 C558 1.457 . S
C559 C560 1.291 . S
C559 H572 0.931 . S
C560 C559 1.291 . S
C560 C561 1.373 . S
C560 H573 0.929 . S
C561 C560 1.373 . S
C561 C562 1.396 . S
C561 C568 1.403 . S
C562 C552 1.476 . S
C562 N557 1.318 . S
C562 C561 1.396 . S
H563 C558 0.929 . S
O564 Mn540 2.385 . S
O564 C542 1.234 . S
O565 Mn540 2.209 . S
O565 Mn541 2.215 . S
O565 C542 1.283 . S
O566 Mn540 2.094 . S
O566 C544 1.240 . S
O567 Mn541 2.117 . S
O567 C544 1.264 . S
C568 C561 1.403 . S
C568 C569 1.399 . S
C568 H574 0.929 . S
C569 C549 1.449 . S
C569 C568 1.399 . S
C569 H575 0.930 . S
H570 C550 0.931 . S
H571 C551 0.930 . S
H572 C559 0.931 . S
H573 C560 0.929 . S
H574 C568 0.929 . S
H575 C569 0.930 . S
C576 C577 1.349 . S
C576 C578 1.327 . S
C576 H601 0.950 . S
C577 C576 1.349 . S
C577 C593 1.349 . S
C578 C576 1.327 . S
C578 C597 1.429 . S
C578 H602 0.950 . S
C579 C596 1.574 . S
C579 C598 1.368 . S
C579 H603 0.949 . S
H580 C584 0.949 . S
C581 C582 1.349 . S
C581 C583 1.327 . S
C581 H604 0.950 . S
C582 C581 1.349 . S
C582 C594 1.349 . S
C583 C581 1.327 . S
C583 C599 1.429 . S
C583 H605 0.950 . S
C584 H580 0.949 . S
C584 C592 1.574 . S
C584 C600 1.368 . S
H585 C593 0.950 . S
H586 C591 0.950 . S
H587 C592 0.949 . S
H588 C594 0.950 . S
H589 C595 0.950 . S
H590 C596 0.949 . S
C591 H586 0.950 . S
C591 C593 1.327 . S
C591 C597 1.429 . S
C592 C584 1.574 . S
C592 H587 0.949 . S
C592 C598 1.368 . S
C593 C577 1.349 . S
C593 H585 0.950 . S
C593 C591 1.327 . S
C594 C582 1.349 . S
C594 H588 0.950 . S
C594 C595 1.327 . S
C595 H589 0.950 . S
C595 C594 1.327 . S
C595 C599 1.429 . S
C596 C579 1.574 . S
C596 H590 0.949 . S
C596 C600 1.368 . S
C597 C578 1.429 . S
C597 C591 1.429 . S
C597 C598 1.523 . S
C598 C579 1.368 . S
C598 C592 1.368 . S
C598 C597 1.523 . S
C599 C583 1.429 . S
C599 C595 1.429 . S
C599 C600 1.523 . S
C600 C584 1.368 . S
C600 C596 1.368 . S
C600 C599 1.523 . S
H601 C576 0.950 . S
H602 C578 0.950 . S
H603 C579 0.949 . S
H604 C581 0.950 . S
H605 C583 0.950 . S
C606 C607 1.349 . S
C606 C608 1.327 . S
C606 H631 0.950 . S
C607 C606 1.349 . S
C607 C623 1.349 . S
C608 C606 1.327 . S
C608 C627 1.429 . S
C608 H632 0.950 . S
C609 C626 1.574 . S
C609 C628 1.368 . S
C609 H633 0.949 . S
H610 C614 0.949 . S
C611 C612 1.349 . S
C611 C613 1.327 . S
C611 H634 0.950 . S
C612 C611 1.349 . S
C612 C624 1.349 . S
C613 C611 1.327 . S
C613 C629 1.429 . S
C613 H635 0.950 . S
C614 H610 0.949 . S
C614 C622 1.574 . S
C614 C630 1.368 . S
H615 C623 0.950 . S
H616 C621 0.950 . S
H617 C622 0.949 . S
H618 C624 0.950 . S
H619 C625 0.950 . S
H620 C626 0.949 . S
C621 H616 0.950 . S
C621 C623 1.327 . S
C621 C627 1.429 . S
C622 C614 1.574 . S
C622 H617 0.949 . S
C622 C628 1.368 . S
C623 C607 1.349 . S
C623 H615 0.950 . S
C623 C621 1.327 . S
C624 C612 1.349 . S
C624 H618 0.950 . S
C624 C625 1.327 . S
C625 H619 0.950 . S
C625 C624 1.327 . S
C625 C629 1.429 . S
C626 C609 1.574 . S
C626 H620 0.949 . S
C626 C630 1.368 . S
C627 C608 1.429 . S
C627 C621 1.429 . S
C627 C628 1.523 . S
C628 C609 1.368 . S
C628 C622 1.368 . S
C628 C627 1.523 . S
C629 C613 1.429 . S
C629 C625 1.429 . S
C629 C630 1.523 . S
C630 C614 1.368 . S
C630 C626 1.368 . S
C630 C629 1.523 . S
H631 C606 0.950 . S
H632 C608 0.950 . S
H633 C609 0.949 . S
H634 C611 0.950 . S
H635 C613 0.950 . S
C636 C637 1.349 . S
C636 C638 1.327 . S
C636 H661 0.950 . S
C637 C636 1.349 . S
C637 C653 1.349 . S
C638 C636 1.327 . S
C638 C657 1.429 . S
C638 H662 0.950 . S
C639 C656 1.574 . S
C639 C658 1.368 . S
C639 H663 0.949 . S
H640 C644 0.949 . S
C641 C642 1.349 . S
C641 C643 1.327 . S
C641 H664 0.950 . S
C642 C641 1.349 . S
C642 C654 1.349 . S
C643 C641 1.327 . S
C643 C659 1.429 . S
C643 H665 0.950 . S
C644 H640 0.949 . S
C644 C652 1.574 . S
C644 C660 1.368 . S
H645 C653 0.950 . S
H646 C651 0.950 . S
H647 C652 0.949 . S
H648 C654 0.950 . S
H649 C655 0.950 . S
H650 C656 0.949 . S
C651 H646 0.950 . S
C651 C653 1.327 . S
C651 C657 1.429 . S
C652 C644 1.574 . S
C652 H647 0.949 . S
C652 C658 1.368 . S
C653 C637 1.349 . S
C653 H645 0.950 . S
C653 C651 1.327 . S
C654 C642 1.349 . S
C654 H648 0.950 . S
C654 C655 1.327 . S
C655 H649 0.950 . S
C655 C654 1.327 . S
C655 C659 1.429 . S
C656 C639 1.574 . S
C656 H650 0.949 . S
C656 C660 1.368 . S
C657 C638 1.429 . S
C657 C651 1.429 . S
C657 C658 1.523 . S
C658 C639 1.368 . S
C658 C652 1.368 . S
C658 C657 1.523 . S
C659 C643 1.429 . S
C659 C655 1.429 . S
C659 C660 1.523 . S
C660 C644 1.368 . S
C660 C656 1.368 . S
C660 C659 1.523 . S
H661 C636 0.950 . S
H662 C638 0.950 . S
H663 C639 0.949 . S
H664 C641 0.950 . S
H665 C643 0.950 . S
C666 C667 1.349 . S
C666 C668 1.327 . S
C666 H691 0.950 . S
C667 C666 1.349 . S
C667 C683 1.349 . S
C668 C666 1.327 . S
C668 C687 1.429 . S
C668 H692 0.950 . S
C669 C686 1.574 . S
C669 C688 1.368 . S
C669 H693 0.949 . S
H670 C674 0.949 . S
C671 C672 1.349 . S
C671 C673 1.327 . S
C671 H694 0.950 . S
C672 C671 1.349 . S
C672 C684 1.349 . S
C673 C671 1.327 . S
C673 C689 1.429 . S
C673 H695 0.950 . S
C674 H670 0.949 . S
C674 C682 1.574 . S
C674 C690 1.368 . S
H675 C683 0.950 . S
H676 C681 0.950 . S
H677 C682 0.949 . S
H678 C684 0.950 . S
H679 C685 0.950 . S
H680 C686 0.949 . S
C681 H676 0.950 . S
C681 C683 1.327 . S
C681 C687 1.429 . S
C682 C674 1.574 . S
C682 H677 0.949 . S
C682 C688 1.368 . S
C683 C667 1.349 . S
C683 H675 0.950 . S
C683 C681 1.327 . S
C684 C672 1.349 . S
C684 H678 0.950 . S
C684 C685 1.327 . S
C685 H679 0.950 . S
C685 C684 1.327 . S
C685 C689 1.429 . S
C686 C669 1.574 . S
C686 H680 0.949 . S
C686 C690 1.368 . S
C687 C668 1.429 . S
C687 C681 1.429 . S
C687 C688 1.523 . S
C688 C669 1.368 . S
C688 C682 1.368 . S
C688 C687 1.523 . S
C689 C673 1.429 . S
C689 C685 1.429 . S
C689 C690 1.523 . S
C690 C674 1.368 . S
C690 C686 1.368 . S
C690 C689 1.523 . S
H691 C666 0.950 . S
H692 C668 0.950 . S
H693 C669 0.949 . S
H694 C671 0.950 . S
H695 C673 0.950 . S
C696 C697 1.349 . S
C696 C698 1.327 . S
C696 H721 0.950 . S
C697 C696 1.349 . S
C697 C713 1.349 . S
C698 C696 1.327 . S
C698 C717 1.429 . S
C698 H722 0.950 . S
C699 C716 1.574 . S
C699 C718 1.368 . S
C699 H723 0.949 . S
H700 C704 0.949 . S
C701 C702 1.349 . S
C701 C703 1.327 . S
C701 H724 0.950 . S
C702 C701 1.349 . S
C702 C714 1.349 . S
C703 C701 1.327 . S
C703 C719 1.429 . S
C703 H725 0.950 . S
C704 H700 0.949 . S
C704 C712 1.574 . S
C704 C720 1.368 . S
H705 C713 0.950 . S
H706 C711 0.950 . S
H707 C712 0.949 . S
H708 C714 0.950 . S
H709 C715 0.950 . S
H710 C716 0.949 . S
C711 H706 0.950 . S
C711 C713 1.327 . S
C711 C717 1.429 . S
C712 C704 1.574 . S
C712 H707 0.949 . S
C712 C718 1.368 . S
C713 C697 1.349 . S
C713 H705 0.950 . S
C713 C711 1.327 . S
C714 C702 1.349 . S
C714 H708 0.950 . S
C714 C715 1.327 . S
C715 H709 0.950 . S
C715 C714 1.327 . S
C715 C719 1.429 . S
C716 C699 1.574 . S
C716 H710 0.949 . S
C716 C720 1.368 . S
C717 C698 1.429 . S
C717 C711 1.429 . S
C717 C718 1.523 . S
C718 C699 1.368 . S
C718 C712 1.368 . S
C718 C717 1.523 . S
C719 C703 1.429 . S
C719 C715 1.429 . S
C719 C720 1.523 . S
C720 C704 1.368 . S
C720 C716 1.368 . S
C720 C719 1.523 . S
H721 C696 0.950 . S
H722 C698 0.950 . S
H723 C699 0.949 . S
H724 C701 0.950 . S
H725 C703 0.950 . S
C726 C727 1.349 . S
C726 C728 1.327 . S
C726 H751 0.950 . S
C727 C726 1.349 . S
C727 C743 1.349 . S
C728 C726 1.327 . S
C728 C747 1.429 . S
C728 H752 0.950 . S
C729 C746 1.574 . S
C729 C748 1.368 . S
C729 H753 0.949 . S
H730 C734 0.949 . S
C731 C732 1.349 . S
C731 C733 1.327 . S
C731 H754 0.950 . S
C732 C731 1.349 . S
C732 C744 1.349 . S
C733 C731 1.327 . S
C733 C749 1.429 . S
C733 H755 0.950 . S
C734 H730 0.949 . S
C734 C742 1.574 . S
C734 C750 1.368 . S
H735 C743 0.950 . S
H736 C741 0.950 . S
H737 C742 0.949 . S
H738 C744 0.950 . S
H739 C745 0.950 . S
H740 C746 0.949 . S
C741 H736 0.950 . S
C741 C743 1.327 . S
C741 C747 1.429 . S
C742 C734 1.574 . S
C742 H737 0.949 . S
C742 C748 1.368 . S
C743 C727 1.349 . S
C743 H735 0.950 . S
C743 C741 1.327 . S
C744 C732 1.349 . S
C744 H738 0.950 . S
C744 C745 1.327 . S
C745 H739 0.950 . S
C745 C744 1.327 . S
C745 C749 1.429 . S
C746 C729 1.574 . S
C746 H740 0.949 . S
C746 C750 1.368 . S
C747 C728 1.429 . S
C747 C741 1.429 . S
C747 C748 1.523 . S
C748 C729 1.368 . S
C748 C742 1.368 . S
C748 C747 1.523 . S
C749 C733 1.429 . S
C749 C745 1.429 . S
C749 C750 1.523 . S
C750 C734 1.368 . S
C750 C746 1.368 . S
C750 C749 1.523 . S
H751 C726 0.950 . S
H752 C728 0.950 . S
H753 C729 0.949 . S
H754 C731 0.950 . S
H755 C733 0.950 . S
C756 C757 1.349 . S
C756 C758 1.327 . S
C756 H781 0.950 . S
C757 C756 1.349 . S
C757 C773 1.349 . S
C758 C756 1.327 . S
C758 C777 1.429 . S
C758 H782 0.950 . S
C759 C776 1.574 . S
C759 C778 1.368 . S
C759 H783 0.949 . S
H760 C764 0.949 . S
C761 C762 1.349 . S
C761 C763 1.327 . S
C761 H784 0.950 . S
C762 C761 1.349 . S
C762 C774 1.349 . S
C763 C761 1.327 . S
C763 C779 1.429 . S
C763 H785 0.950 . S
C764 H760 0.949 . S
C764 C772 1.574 . S
C764 C780 1.368 . S
H765 C773 0.950 . S
H766 C771 0.950 . S
H767 C772 0.949 . S
H768 C774 0.950 . S
H769 C775 0.950 . S
H770 C776 0.949 . S
C771 H766 0.950 . S
C771 C773 1.327 . S
C771 C777 1.429 . S
C772 C764 1.574 . S
C772 H767 0.949 . S
C772 C778 1.368 . S
C773 C757 1.349 . S
C773 H765 0.950 . S
C773 C771 1.327 . S
C774 C762 1.349 . S
C774 H768 0.950 . S
C774 C775 1.327 . S
C775 H769 0.950 . S
C775 C774 1.327 . S
C775 C779 1.429 . S
C776 C759 1.574 . S
C776 H770 0.949 . S
C776 C780 1.368 . S
C777 C758 1.429 . S
C777 C771 1.429 . S
C777 C778 1.523 . S
C778 C759 1.368 . S
C778 C772 1.368 . S
C778 C777 1.523 . S
C779 C763 1.429 . S
C779 C775 1.429 . S
C779 C780 1.523 . S
C780 C764 1.368 . S
C780 C776 1.368 . S
C780 C779 1.523 . S
H781 C756 0.950 . S
H782 C758 0.950 . S
H783 C759 0.949 . S
H784 C761 0.950 . S
H785 C763 0.950 . S
C786 C787 1.349 . S
C786 C788 1.327 . S
C786 H811 0.950 . S
C787 C786 1.349 . S
C787 C803 1.349 . S
C788 C786 1.327 . S
C788 C807 1.429 . S
C788 H812 0.950 . S
C789 C806 1.574 . S
C789 C808 1.368 . S
C789 H813 0.949 . S
H790 C794 0.949 . S
C791 C792 1.349 . S
C791 C793 1.327 . S
C791 H814 0.950 . S
C792 C791 1.349 . S
C792 C804 1.349 . S
C793 C791 1.327 . S
C793 C809 1.429 . S
C793 H815 0.950 . S
C794 H790 0.949 . S
C794 C802 1.574 . S
C794 C810 1.368 . S
H795 C803 0.950 . S
H796 C801 0.950 . S
H797 C802 0.949 . S
H798 C804 0.950 . S
H799 C805 0.950 . S
H800 C806 0.949 . S
C801 H796 0.950 . S
C801 C803 1.327 . S
C801 C807 1.429 . S
C802 C794 1.574 . S
C802 H797 0.949 . S
C802 C808 1.368 . S
C803 C787 1.349 . S
C803 H795 0.950 . S
C803 C801 1.327 . S
C804 C792 1.349 . S
C804 H798 0.950 . S
C804 C805 1.327 . S
C805 H799 0.950 . S
C805 C804 1.327 . S
C805 C809 1.429 . S
C806 C789 1.574 . S
C806 H800 0.949 . S
C806 C810 1.368 . S
C807 C788 1.429 . S
C807 C801 1.429 . S
C807 C808 1.523 . S
C808 C789 1.368 . S
C808 C802 1.368 . S
C808 C807 1.523 . S
C809 C793 1.429 . S
C809 C805 1.429 . S
C809 C810 1.523 . S
C810 C794 1.368 . S
C810 C806 1.368 . S
C810 C809 1.523 . S
H811 C786 0.950 . S
H812 C788 0.950 . S
H813 C789 0.949 . S
H814 C791 0.950 . S
H815 C793 0.950 . S
C816 C817 1.349 . S
C816 C818 1.327 . S
C816 H841 0.950 . S
C817 C816 1.349 . S
C817 C833 1.349 . S
C818 C816 1.327 . S
C818 C837 1.429 . S
C818 H842 0.950 . S
C819 C836 1.574 . S
C819 C838 1.368 . S
C819 H843 0.949 . S
H820 C824 0.949 . S
C821 C822 1.349 . S
C821 C823 1.327 . S
C821 H844 0.950 . S
C822 C821 1.349 . S
C822 C834 1.349 . S
C823 C821 1.327 . S
C823 C839 1.429 . S
C823 H845 0.950 . S
C824 H820 0.949 . S
C824 C832 1.574 . S
C824 C840 1.368 . S
H825 C833 0.950 . S
H826 C831 0.950 . S
H827 C832 0.949 . S
H828 C834 0.950 . S
H829 C835 0.950 . S
H830 C836 0.949 . S
C831 H826 0.950 . S
C831 C833 1.327 . S
C831 C837 1.429 . S
C832 C824 1.574 . S
C832 H827 0.949 . S
C832 C838 1.368 . S
C833 C817 1.349 . S
C833 H825 0.950 . S
C833 C831 1.327 . S
C834 C822 1.349 . S
C834 H828 0.950 . S
C834 C835 1.327 . S
C835 H829 0.950 . S
C835 C834 1.327 . S
C835 C839 1.429 . S
C836 C819 1.574 . S
C836 H830 0.949 . S
C836 C840 1.368 . S
C837 C818 1.429 . S
C837 C831 1.429 . S
C837 C838 1.523 . S
C838 C819 1.368 . S
C838 C832 1.368 . S
C838 C837 1.523 . S
C839 C823 1.429 . S
C839 C835 1.429 . S
C839 C840 1.523 . S
C840 C824 1.368 . S
C840 C836 1.368 . S
C840 C839 1.523 . S
H841 C816 0.950 . S
H842 C818 0.950 . S
H843 C819 0.949 . S
H844 C821 0.950 . S
H845 C823 0.950 . S
C846 C847 1.349 . S
C846 C848 1.327 . S
C846 H871 0.950 . S
C847 C846 1.349 . S
C847 C863 1.349 . S
C848 C846 1.327 . S
C848 C867 1.429 . S
C848 H872 0.950 . S
C849 C866 1.574 . S
C849 C868 1.368 . S
C849 H873 0.949 . S
H850 C854 0.949 . S
C851 C852 1.349 . S
C851 C853 1.327 . S
C851 H874 0.950 . S
C852 C851 1.349 . S
C852 C864 1.349 . S
C853 C851 1.327 . S
C853 C869 1.429 . S
C853 H875 0.950 . S
C854 H850 0.949 . S
C854 C862 1.574 . S
C854 C870 1.368 . S
H855 C863 0.950 . S
H856 C861 0.950 . S
H857 C862 0.949 . S
H858 C864 0.950 . S
H859 C865 0.950 . S
H860 C866 0.949 . S
C861 H856 0.950 . S
C861 C863 1.327 . S
C861 C867 1.429 . S
C862 C854 1.574 . S
C862 H857 0.949 . S
C862 C868 1.368 . S
C863 C847 1.349 . S
C863 H855 0.950 . S
C863 C861 1.327 . S
C864 C852 1.349 . S
C864 H858 0.950 . S
C864 C865 1.327 . S
C865 H859 0.950 . S
C865 C864 1.327 . S
C865 C869 1.429 . S
C866 C849 1.574 . S
C866 H860 0.949 . S
C866 C870 1.368 . S
C867 C848 1.429 . S
C867 C861 1.429 . S
C867 C868 1.523 . S
C868 C849 1.368 . S
C868 C862 1.368 . S
C868 C867 1.523 . S
C869 C853 1.429 . S
C869 C865 1.429 . S
C869 C870 1.523 . S
C870 C854 1.368 . S
C870 C866 1.368 . S
C870 C869 1.523 . S
H871 C846 0.950 . S
H872 C848 0.950 . S
H873 C849 0.949 . S
H874 C851 0.950 . S
H875 C853 0.950 . S
C876 C877 1.349 . S
C876 C878 1.327 . S
C876 H901 0.950 . S
C877 C876 1.349 . S
C877 C893 1.349 . S
C878 C876 1.327 . S
C878 C897 1.429 . S
C878 H902 0.950 . S
C879 C896 1.574 . S
C879 C898 1.368 . S
C879 H903 0.949 . S
H880 C884 0.949 . S
C881 C882 1.349 . S
C881 C883 1.327 . S
C881 H904 0.950 . S
C882 C881 1.349 . S
C882 C894 1.349 . S
C883 C881 1.327 . S
C883 C899 1.429 . S
C883 H905 0.950 . S
C884 H880 0.949 . S
C884 C892 1.574 . S
C884 C900 1.368 . S
H885 C893 0.950 . S
H886 C891 0.950 . S
H887 C892 0.949 . S
H888 C894 0.950 . S
H889 C895 0.950 . S
H890 C896 0.949 . S
C891 H886 0.950 . S
C891 C893 1.327 . S
C891 C897 1.429 . S
C892 C884 1.574 . S
C892 H887 0.949 . S
C892 C898 1.368 . S
C893 C877 1.349 . S
C893 H885 0.950 . S
C893 C891 1.327 . S
C894 C882 1.349 . S
C894 H888 0.950 . S
C894 C895 1.327 . S
C895 H889 0.950 . S
C895 C894 1.327 . S
C895 C899 1.429 . S
C896 C879 1.574 . S
C896 H890 0.949 . S
C896 C900 1.368 . S
C897 C878 1.429 . S
C897 C891 1.429 . S
C897 C898 1.523 . S
C898 C879 1.368 . S
C898 C892 1.368 . S
C898 C897 1.523 . S
C899 C883 1.429 . S
C899 C895 1.429 . S
C899 C900 1.523 . S
C900 C884 1.368 . S
C900 C896 1.368 . S
C900 C899 1.523 . S
H901 C876 0.950 . S
H902 C878 0.950 . S
H903 C879 0.949 . S
H904 C881 0.950 . S
H905 C883 0.950 . S
C906 C907 1.349 . S
C906 C908 1.327 . S
C906 H931 0.950 . S
C907 C906 1.349 . S
C907 C923 1.349 . S
C908 C906 1.327 . S
C908 C927 1.429 . S
C908 H932 0.950 . S
C909 C926 1.574 . S
C909 C928 1.368 . S
C909 H933 0.949 . S
H910 C914 0.949 . S
C911 C912 1.349 . S
C911 C913 1.327 . S
C911 H934 0.950 . S
C912 C911 1.349 . S
C912 C924 1.349 . S
C913 C911 1.327 . S
C913 C929 1.429 . S
C913 H935 0.950 . S
C914 H910 0.949 . S
C914 C922 1.574 . S
C914 C930 1.368 . S
H915 C923 0.950 . S
H916 C921 0.950 . S
H917 C922 0.949 . S
H918 C924 0.950 . S
H919 C925 0.950 . S
H920 C926 0.949 . S
C921 H916 0.950 . S
C921 C923 1.327 . S
C921 C927 1.429 . S
C922 C914 1.574 . S
C922 H917 0.949 . S
C922 C928 1.368 . S
C923 C907 1.349 . S
C923 H915 0.950 . S
C923 C921 1.327 . S
C924 C912 1.349 . S
C924 H918 0.950 . S
C924 C925 1.327 . S
C925 H919 0.950 . S
C925 C924 1.327 . S
C925 C929 1.429 . S
C926 C909 1.574 . S
C926 H920 0.949 . S
C926 C930 1.368 . S
C927 C908 1.429 . S
C927 C921 1.429 . S
C927 C928 1.523 . S
C928 C909 1.368 . S
C928 C922 1.368 . S
C928 C927 1.523 . S
C929 C913 1.429 . S
C929 C925 1.429 . S
C929 C930 1.523 . S
C930 C914 1.368 . S
C930 C926 1.368 . S
C930 C929 1.523 . S
H931 C906 0.950 . S
H932 C908 0.950 . S
H933 C909 0.949 . S
H934 C911 0.950 . S
H935 C913 0.950 . S
C936 C937 1.349 . S
C936 C938 1.327 . S
C936 H961 0.950 . S
C937 C936 1.349 . S
C937 C953 1.349 . S
C938 C936 1.327 . S
C938 C957 1.429 . S
C938 H962 0.950 . S
C939 C956 1.574 . S
C939 C958 1.368 . S
C939 H963 0.949 . S
H940 C944 0.949 . S
C941 C942 1.349 . S
C941 C943 1.327 . S
C941 H964 0.950 . S
C942 C941 1.349 . S
C942 C954 1.349 . S
C943 C941 1.327 . S
C943 C959 1.429 . S
C943 H965 0.950 . S
C944 H940 0.949 . S
C944 C952 1.574 . S
C944 C960 1.368 . S
H945 C953 0.950 . S
H946 C951 0.950 . S
H947 C952 0.949 . S
H948 C954 0.950 . S
H949 C955 0.950 . S
H950 C956 0.949 . S
C951 H946 0.950 . S
C951 C953 1.327 . S
C951 C957 1.429 . S
C952 C944 1.574 . S
C952 H947 0.949 . S
C952 C958 1.368 . S
C953 C937 1.349 . S
C953 H945 0.950 . S
C953 C951 1.327 . S
C954 C942 1.349 . S
C954 H948 0.950 . S
C954 C955 1.327 . S
C955 H949 0.950 . S
C955 C954 1.327 . S
C955 C959 1.429 . S
C956 C939 1.574 . S
C956 H950 0.949 . S
C956 C960 1.368 . S
C957 C938 1.429 . S
C957 C951 1.429 . S
C957 C958 1.523 . S
C958 C939 1.368 . S
C958 C952 1.368 . S
C958 C957 1.523 . S
C959 C943 1.429 . S
C959 C955 1.429 . S
C959 C960 1.523 . S
C960 C944 1.368 . S
C960 C956 1.368 . S
C960 C959 1.523 . S
H961 C936 0.950 . S
H962 C938 0.950 . S
H963 C939 0.949 . S
H964 C941 0.950 . S
H965 C943 0.950 . S
C966 C967 1.349 . S
C966 C968 1.327 . S
C966 H991 0.950 . S
C967 C966 1.349 . S
C967 C983 1.349 . S
C968 C966 1.327 . S
C968 C987 1.429 . S
C968 H992 0.950 . S
C969 C986 1.574 . S
C969 C988 1.368 . S
C969 H993 0.949 . S
H970 C974 0.949 . S
C971 C972 1.349 . S
C971 C973 1.327 . S
C971 H994 0.950 . S
C972 C971 1.349 . S
C972 C984 1.349 . S
C973 C971 1.327 . S
C973 C989 1.429 . S
C973 H995 0.950 . S
C974 H970 0.949 . S
C974 C982 1.574 . S
C974 C990 1.368 . S
H975 C983 0.950 . S
H976 C981 0.950 . S
H977 C982 0.949 . S
H978 C984 0.950 . S
H979 C985 0.950 . S
H980 C986 0.949 . S
C981 H976 0.950 . S
C981 C983 1.327 . S
C981 C987 1.429 . S
C982 C974 1.574 . S
C982 H977 0.949 . S
C982 C988 1.368 . S
C983 C967 1.349 . S
C983 H975 0.950 . S
C983 C981 1.327 . S
C984 C972 1.349 . S
C984 H978 0.950 . S
C984 C985 1.327 . S
C985 H979 0.950 . S
C985 C984 1.327 . S
C985 C989 1.429 . S
C986 C969 1.574 . S
C986 H980 0.949 . S
C986 C990 1.368 . S
C987 C968 1.429 . S
C987 C981 1.429 . S
C987 C988 1.523 . S
C988 C969 1.368 . S
C988 C982 1.368 . S
C988 C987 1.523 . S
C989 C973 1.429 . S
C989 C985 1.429 . S
C989 C990 1.523 . S
C990 C974 1.368 . S
C990 C986 1.368 . S
C990 C989 1.523 . S
H991 C966 0.950 . S
H992 C968 0.950 . S
H993 C969 0.949 . S
H994 C971 0.950 . S
H995 C973 0.950 . S
C996 C997 1.349 . S
C996 C998 1.327 . S
C996 H1021 0.950 . S
C997 C996 1.349 . S
C997 C1013 1.349 . S
C998 C996 1.327 . S
C998 C1017 1.429 . S
C998 H1022 0.950 . S
C999 C1016 1.574 . S
C999 C1018 1.368 . S
C999 H1023 0.949 . S
H1000 C1004 0.949 . S
C1001 C1002 1.349 . S
C1001 C1003 1.327 . S
C1001 H1024 0.950 . S
C1002 C1001 1.349 . S
C1002 C1014 1.349 . S
C1003 C1001 1.327 . S
C1003 C1019 1.429 . S
C1003 H1025 0.950 . S
C1004 H1000 0.949 . S
C1004 C1012 1.574 . S
C1004 C1020 1.368 . S
H1005 C1013 0.950 . S
H1006 C1011 0.950 . S
H1007 C1012 0.949 . S
H1008 C1014 0.950 . S
H1009 C1015 0.950 . S
H1010 C1016 0.949 . S
C1011 H1006 0.950 . S
C1011 C1013 1.327 . S
C1011 C1017 1.429 . S
C1012 C1004 1.574 . S
C1012 H1007 0.949 . S
C1012 C1018 1.368 . S
C1013 C997 1.349 . S
C1013 H1005 0.950 . S
C1013 C1011 1.327 . S
C1014 C1002 1.349 . S
C1014 H1008 0.950 . S
C1014 C1015 1.327 . S
C1015 H1009 0.950 . S
C1015 C1014 1.327 . S
C1015 C1019 1.429 . S
C1016 C999 1.574 . S
C1016 H1010 0.949 . S
C1016 C1020 1.368 . S
C1017 C998 1.429 . S
C1017 C1011 1.429 . S
C1017 C1018 1.523 . S
C1018 C999 1.368 . S
C1018 C1012 1.368 . S
C1018 C1017 1.523 . S
C1019 C1003 1.429 . S
C1019 C1015 1.429 . S
C1019 C1020 1.523 . S
C1020 C1004 1.368 . S
C1020 C1016 1.368 . S
C1020 C1019 1.523 . S
H1021 C996 0.950 . S
H1022 C998 0.950 . S
H1023 C999 0.949 . S
H1024 C1001 0.950 . S
H1025 C1003 0.950 . S
C1026 C1027 1.349 . S
C1026 C1028 1.327 . S
C1026 H1051 0.950 . S
C1027 C1026 1.349 . S
C1027 C1043 1.349 . S
C1028 C1026 1.327 . S
C1028 C1047 1.429 . S
C1028 H1052 0.950 . S
C1029 C1046 1.574 . S
C1029 C1048 1.368 . S
C1029 H1053 0.949 . S
H1030 C1034 0.949 . S
C1031 C1032 1.349 . S
C1031 C1033 1.327 . S
C1031 H1054 0.950 . S
C1032 C1031 1.349 . S
C1032 C1044 1.349 . S
C1033 C1031 1.327 . S
C1033 C1049 1.429 . S
C1033 H1055 0.950 . S
C1034 H1030 0.949 . S
C1034 C1042 1.574 . S
C1034 C1050 1.368 . S
H1035 C1043 0.950 . S
H1036 C1041 0.950 . S
H1037 C1042 0.949 . S
H1038 C1044 0.950 . S
H1039 C1045 0.950 . S
H1040 C1046 0.949 . S
C1041 H1036 0.950 . S
C1041 C1043 1.327 . S
C1041 C1047 1.429 . S
C1042 C1034 1.574 . S
C1042 H1037 0.949 . S
C1042 C1048 1.368 . S
C1043 C1027 1.349 . S
C1043 H1035 0.950 . S
C1043 C1041 1.327 . S
C1044 C1032 1.349 . S
C1044 H1038 0.950 . S
C1044 C1045 1.327 . S
C1045 H1039 0.950 . S
C1045 C1044 1.327 . S
C1045 C1049 1.429 . S
C1046 C1029 1.574 . S
C1046 H1040 0.949 . S
C1046 C1050 1.368 . S
C1047 C1028 1.429 . S
C1047 C1041 1.429 . S
C1047 C1048 1.523 . S
C1048 C1029 1.368 . S
C1048 C1042 1.368 . S
C1048 C1047 1.523 . S
C1049 C1033 1.429 . S
C1049 C1045 1.429 . S
C1049 C1050 1.523 . S
C1050 C1034 1.368 . S
C1050 C1046 1.368 . S
C1050 C1049 1.523 . S
H1051 C1026 0.950 . S
H1052 C1028 0.950 . S
H1053 C1029 0.949 . S
H1054 C1031 0.950 . S
H1055 C1033 0.950 . S
C1056 C1057 1.349 . S
C1056 C1058 1.327 . S
C1056 H1081 0.950 . S
C1057 C1056 1.349 . S
C1057 C1073 1.349 . S
C1058 C1056 1.327 . S
C1058 C1077 1.429 . S
C1058 H1082 0.950 . S
C1059 C1076 1.574 . S
C1059 C1078 1.368 . S
C1059 H1083 0.949 . S
H1060 C1064 0.949 . S
C1061 C1062 1.349 . S
C1061 C1063 1.327 . S
C1061 H1084 0.950 . S
C1062 C1061 1.349 . S
C1062 C1074 1.349 . S
C1063 C1061 1.327 . S
C1063 C1079 1.429 . S
C1063 H1085 0.950 . S
C1064 H1060 0.949 . S
C1064 C1072 1.574 . S
C1064 C1080 1.368 . S
H1065 C1073 0.950 1_565 S
H1066 C1071 0.950 . S
H1067 C1072 0.949 . S
H1068 C1074 0.950 . S
H1069 C1075 0.950 . S
H1070 C1076 0.949 . S
C1071 H1066 0.950 . S
C1071 C1073 1.327 . S
C1071 C1077 1.429 . S
C1072 C1064 1.574 . S
C1072 H1067 0.949 . S
C1072 C1078 1.368 . S
C1073 C1057 1.349 . S
C1073 H1065 0.950 1_545 S
C1073 C1071 1.327 . S
C1074 C1062 1.349 . S
C1074 H1068 0.950 . S
C1074 C1075 1.327 . S
C1075 H1069 0.950 . S
C1075 C1074 1.327 . S
C1075 C1079 1.429 . S
C1076 C1059 1.574 . S
C1076 H1070 0.949 . S
C1076 C1080 1.368 . S
C1077 C1058 1.429 . S
C1077 C1071 1.429 . S
C1077 C1078 1.523 . S
C1078 C1059 1.368 . S
C1078 C1072 1.368 . S
C1078 C1077 1.523 . S
C1079 C1063 1.429 . S
C1079 C1075 1.429 . S
C1079 C1080 1.523 . S
C1080 C1064 1.368 . S
C1080 C1076 1.368 . S
C1080 C1079 1.523 . S
H1081 C1056 0.950 . S
H1082 C1058 0.950 . S
H1083 C1059 0.949 . S
H1084 C1061 0.950 . S
H1085 C1063 0.950 . S
C1086 C1087 1.349 . S
C1086 C1088 1.327 . S
C1086 H1111 0.950 . S
C1087 C1086 1.349 . S
C1087 C1103 1.349 . S
C1088 C1086 1.327 . S
C1088 C1107 1.429 . S
C1088 H1112 0.950 . S
C1089 C1106 1.574 . S
C1089 C1108 1.368 . S
C1089 H1113 0.949 . S
H1090 C1094 0.949 . S
C1091 C1092 1.349 . S
C1091 C1093 1.327 . S
C1091 H1114 0.950 . S
C1092 C1091 1.349 . S
C1092 C1104 1.349 . S
C1093 C1091 1.327 . S
C1093 C1109 1.429 . S
C1093 H1115 0.950 . S
C1094 H1090 0.949 . S
C1094 C1102 1.574 . S
C1094 C1110 1.368 . S
H1095 C1103 0.950 . S
H1096 C1101 0.950 . S
H1097 C1102 0.949 . S
H1098 C1104 0.950 . S
H1099 C1105 0.950 . S
H1100 C1106 0.949 . S
C1101 H1096 0.950 . S
C1101 C1103 1.327 . S
C1101 C1107 1.429 . S
C1102 C1094 1.574 . S
C1102 H1097 0.949 . S
C1102 C1108 1.368 . S
C1103 C1087 1.349 . S
C1103 H1095 0.950 . S
C1103 C1101 1.327 . S
C1104 C1092 1.349 . S
C1104 H1098 0.950 . S
C1104 C1105 1.327 . S
C1105 H1099 0.950 . S
C1105 C1104 1.327 . S
C1105 C1109 1.429 . S
C1106 C1089 1.574 . S
C1106 H1100 0.949 . S
C1106 C1110 1.368 . S
C1107 C1088 1.429 . S
C1107 C1101 1.429 . S
C1107 C1108 1.523 . S
C1108 C1089 1.368 . S
C1108 C1102 1.368 . S
C1108 C1107 1.523 . S
C1109 C1093 1.429 . S
C1109 C1105 1.429 . S
C1109 C1110 1.523 . S
C1110 C1094 1.368 . S
C1110 C1106 1.368 . S
C1110 C1109 1.523 . S
H1111 C1086 0.950 . S
H1112 C1088 0.950 . S
H1113 C1089 0.949 . S
H1114 C1091 0.950 . S
H1115 C1093 0.950 . S
C1116 C1117 1.349 . S
C1116 C1118 1.327 . S
C1116 H1141 0.950 . S
C1117 C1116 1.349 . S
C1117 C1133 1.349 . S
C1118 C1116 1.327 . S
C1118 C1137 1.429 . S
C1118 H1142 0.950 . S
C1119 C1136 1.574 . S
C1119 C1138 1.368 . S
C1119 H1143 0.949 . S
H1120 C1124 0.949 . S
C1121 C1122 1.349 . S
C1121 C1123 1.327 . S
C1121 H1144 0.950 . S
C1122 C1121 1.349 . S
C1122 C1134 1.349 . S
C1123 C1121 1.327 . S
C1123 C1139 1.429 . S
C1123 H1145 0.950 . S
C1124 H1120 0.949 . S
C1124 C1132 1.574 . S
C1124 C1140 1.368 . S
H1125 C1133 0.950 . S
H1126 C1131 0.950 . S
H1127 C1132 0.949 . S
H1128 C1134 0.950 . S
H1129 C1135 0.950 . S
H1130 C1136 0.949 . S
C1131 H1126 0.950 . S
C1131 C1133 1.327 . S
C1131 C1137 1.429 . S
C1132 C1124 1.574 . S
C1132 H1127 0.949 . S
C1132 C1138 1.368 . S
C1133 C1117 1.349 . S
C1133 H1125 0.950 . S
C1133 C1131 1.327 . S
C1134 C1122 1.349 . S
C1134 H1128 0.950 . S
C1134 C1135 1.327 . S
C1135 H1129 0.950 . S
C1135 C1134 1.327 . S
C1135 C1139 1.429 . S
C1136 C1119 1.574 . S
C1136 H1130 0.949 . S
C1136 C1140 1.368 . S
C1137 C1118 1.429 . S
C1137 C1131 1.429 . S
C1137 C1138 1.523 . S
C1138 C1119 1.368 . S
C1138 C1132 1.368 . S
C1138 C1137 1.523 . S
C1139 C1123 1.429 . S
C1139 C1135 1.429 . S
C1139 C1140 1.523 . S
C1140 C1124 1.368 . S
C1140 C1136 1.368 . S
C1140 C1139 1.523 . S
H1141 C1116 0.950 . S
H1142 C1118 0.950 . S
H1143 C1119 0.949 . S
H1144 C1121 0.950 . S
H1145 C1123 0.950 . S
C1146 C1147 1.349 . S
C1146 C1148 1.327 . S
C1146 H1171 0.950 . S
C1147 C1146 1.349 . S
C1147 C1163 1.349 . S
C1148 C1146 1.327 . S
C1148 C1167 1.429 . S
C1148 H1172 0.950 . S
C1149 C1166 1.574 . S
C1149 C1168 1.368 . S
C1149 H1173 0.949 . S
H1150 C1154 0.949 . S
C1151 C1152 1.349 . S
C1151 C1153 1.327 . S
C1151 H1174 0.950 . S
C1152 C1151 1.349 . S
C1152 C1164 1.349 . S
C1153 C1151 1.327 . S
C1153 C1169 1.429 . S
C1153 H1175 0.950 . S
C1154 H1150 0.949 . S
C1154 C1162 1.574 . S
C1154 C1170 1.368 . S
H1155 C1163 0.950 . S
H1156 C1161 0.950 . S
H1157 C1162 0.949 . S
H1158 C1164 0.950 . S
H1159 C1165 0.950 . S
H1160 C1166 0.949 . S
C1161 H1156 0.950 . S
C1161 C1163 1.327 . S
C1161 C1167 1.429 . S
C1162 C1154 1.574 . S
C1162 H1157 0.949 . S
C1162 C1168 1.368 . S
C1163 C1147 1.349 . S
C1163 H1155 0.950 . S
C1163 C1161 1.327 . S
C1164 C1152 1.349 . S
C1164 H1158 0.950 . S
C1164 C1165 1.327 . S
C1165 H1159 0.950 . S
C1165 C1164 1.327 . S
C1165 C1169 1.429 . S
C1166 C1149 1.574 . S
C1166 H1160 0.949 . S
C1166 C1170 1.368 . S
C1167 C1148 1.429 . S
C1167 C1161 1.429 . S
C1167 C1168 1.523 . S
C1168 C1149 1.368 . S
C1168 C1162 1.368 . S
C1168 C1167 1.523 . S
C1169 C1153 1.429 . S
C1169 C1165 1.429 . S
C1169 C1170 1.523 . S
C1170 C1154 1.368 . S
C1170 C1166 1.368 . S
C1170 C1169 1.523 . S
H1171 C1146 0.950 . S
H1172 C1148 0.950 . S
H1173 C1149 0.949 . S
H1174 C1151 0.950 . S
H1175 C1153 0.950 . S
C1176 C1177 1.349 . S
C1176 C1178 1.327 . S
C1176 H1201 0.950 1_565 S
C1177 C1176 1.349 . S
C1177 C1193 1.349 . S
C1178 C1176 1.327 . S
C1178 C1197 1.429 . S
C1178 H1202 0.950 . S
C1179 C1196 1.574 . S
C1179 C1198 1.368 . S
C1179 H1203 0.949 . S
H1180 C1184 0.949 . S
C1181 C1182 1.349 . S
C1181 C1183 1.327 . S
C1181 H1204 0.950 . S
C1182 C1181 1.349 . S
C1182 C1194 1.349 . S
C1183 C1181 1.327 . S
C1183 C1199 1.429 . S
C1183 H1205 0.950 . S
C1184 H1180 0.949 . S
C1184 C1192 1.574 . S
C1184 C1200 1.368 . S
H1185 C1193 0.950 . S
H1186 C1191 0.950 . S
H1187 C1192 0.949 . S
H1188 C1194 0.950 . S
H1189 C1195 0.950 . S
H1190 C1196 0.949 . S
C1191 H1186 0.950 . S
C1191 C1193 1.327 . S
C1191 C1197 1.429 . S
C1192 C1184 1.574 . S
C1192 H1187 0.949 . S
C1192 C1198 1.368 . S
C1193 C1177 1.349 . S
C1193 H1185 0.950 . S
C1193 C1191 1.327 . S
C1194 C1182 1.349 . S
C1194 H1188 0.950 . S
C1194 C1195 1.327 . S
C1195 H1189 0.950 . S
C1195 C1194 1.327 . S
C1195 C1199 1.429 . S
C1196 C1179 1.574 . S
C1196 H1190 0.949 . S
C1196 C1200 1.368 . S
C1197 C1178 1.429 . S
C1197 C1191 1.429 . S
C1197 C1198 1.523 . S
C1198 C1179 1.368 . S
C1198 C1192 1.368 . S
C1198 C1197 1.523 . S
C1199 C1183 1.429 . S
C1199 C1195 1.429 . S
C1199 C1200 1.523 . S
C1200 C1184 1.368 . S
C1200 C1196 1.368 . S
C1200 C1199 1.523 . S
H1201 C1176 0.950 1_545 S
H1202 C1178 0.950 . S
H1203 C1179 0.949 . S
H1204 C1181 0.950 . S
H1205 C1183 0.950 . S
C1206 C1207 1.349 . S
C1206 C1208 1.327 . S
C1206 H1231 0.950 . S
C1207 C1206 1.349 . S
C1207 C1223 1.349 . S
C1208 C1206 1.327 . S
C1208 C1227 1.429 . S
C1208 H1232 0.950 . S
C1209 C1226 1.574 . S
C1209 C1228 1.368 . S
C1209 H1233 0.949 . S
H1210 C1214 0.949 . S
C1211 C1212 1.349 . S
C1211 C1213 1.327 . S
C1211 H1234 0.950 . S
C1212 C1211 1.349 . S
C1212 C1224 1.349 . S
C1213 C1211 1.327 . S
C1213 C1229 1.429 . S
C1213 H1235 0.950 . S
C1214 H1210 0.949 . S
C1214 C1222 1.574 . S
C1214 C1230 1.368 . S
H1215 C1223 0.950 . S
H1216 C1221 0.950 . S
H1217 C1222 0.949 . S
H1218 C1224 0.950 . S
H1219 C1225 0.950 . S
H1220 C1226 0.949 . S
C1221 H1216 0.950 . S
C1221 C1223 1.327 . S
C1221 C1227 1.429 . S
C1222 C1214 1.574 . S
C1222 H1217 0.949 . S
C1222 C1228 1.368 . S
C1223 C1207 1.349 . S
C1223 H1215 0.950 . S
C1223 C1221 1.327 . S
C1224 C1212 1.349 . S
C1224 H1218 0.950 . S
C1224 C1225 1.327 . S
C1225 H1219 0.950 . S
C1225 C1224 1.327 . S
C1225 C1229 1.429 . S
C1226 C1209 1.574 . S
C1226 H1220 0.949 . S
C1226 C1230 1.368 . S
C1227 C1208 1.429 . S
C1227 C1221 1.429 . S
C1227 C1228 1.523 . S
C1228 C1209 1.368 . S
C1228 C1222 1.368 . S
C1228 C1227 1.523 . S
C1229 C1213 1.429 . S
C1229 C1225 1.429 . S
C1229 C1230 1.523 . S
C1230 C1214 1.368 . S
C1230 C1226 1.368 . S
C1230 C1229 1.523 . S
H1231 C1206 0.950 . S
H1232 C1208 0.950 . S
H1233 C1209 0.949 . S
H1234 C1211 0.950 . S
H1235 C1213 0.950 . S
C1236 C1237 1.349 . S
C1236 C1238 1.327 . S
C1236 H1261 0.950 . S
C1237 C1236 1.349 . S
C1237 C1253 1.349 . S
C1238 C1236 1.327 . S
C1238 C1257 1.429 . S
C1238 H1262 0.950 . S
C1239 C1256 1.574 . S
C1239 C1258 1.368 . S
C1239 H1263 0.949 . S
H1240 C1244 0.949 . S
C1241 C1242 1.349 . S
C1241 C1243 1.327 . S
C1241 H1264 0.950 1_545 S
C1242 C1241 1.349 . S
C1242 C1254 1.349 . S
C1243 C1241 1.327 . S
C1243 C1259 1.429 . S
C1243 H1265 0.950 . S
C1244 H1240 0.949 . S
C1244 C1252 1.574 . S
C1244 C1260 1.368 . S
H1245 C1253 0.950 . S
H1246 C1251 0.950 . S
H1247 C1252 0.949 . S
H1248 C1254 0.950 . S
H1249 C1255 0.950 . S
H1250 C1256 0.949 . S
C1251 H1246 0.950 . S
C1251 C1253 1.327 . S
C1251 C1257 1.429 . S
C1252 C1244 1.574 . S
C1252 H1247 0.949 . S
C1252 C1258 1.368 . S
C1253 C1237 1.349 . S
C1253 H1245 0.950 . S
C1253 C1251 1.327 . S
C1254 C1242 1.349 . S
C1254 H1248 0.950 . S
C1254 C1255 1.327 . S
C1255 H1249 0.950 . S
C1255 C1254 1.327 . S
C1255 C1259 1.429 . S
C1256 C1239 1.574 . S
C1256 H1250 0.949 . S
C1256 C1260 1.368 . S
C1257 C1238 1.429 . S
C1257 C1251 1.429 . S
C1257 C1258 1.523 . S
C1258 C1239 1.368 . S
C1258 C1252 1.368 . S
C1258 C1257 1.523 . S
C1259 C1243 1.429 . S
C1259 C1255 1.429 . S
C1259 C1260 1.523 . S
C1260 C1244 1.368 . S
C1260 C1256 1.368 . S
C1260 C1259 1.523 . S
H1261 C1236 0.950 . S
H1262 C1238 0.950 . S
H1263 C1239 0.949 . S
H1264 C1241 0.950 1_565 S
H1265 C1243 0.950 . S
C1266 C1267 1.349 . S
C1266 C1268 1.327 . S
C1266 H1291 0.950 . S
C1267 C1266 1.349 . S
C1267 C1283 1.349 . S
C1268 C1266 1.327 . S
C1268 C1287 1.429 . S
C1268 H1292 0.950 . S
C1269 C1286 1.574 . S
C1269 C1288 1.368 . S
C1269 H1293 0.949 . S
H1270 C1274 0.949 . S
C1271 C1272 1.349 . S
C1271 C1273 1.327 . S
C1271 H1294 0.950 . S
C1272 C1271 1.349 . S
C1272 C1284 1.349 . S
C1273 C1271 1.327 . S
C1273 C1289 1.429 . S
C1273 H1295 0.950 . S
C1274 H1270 0.949 . S
C1274 C1282 1.574 . S
C1274 C1290 1.368 . S
H1275 C1283 0.950 . S
H1276 C1281 0.950 . S
H1277 C1282 0.949 . S
H1278 C1284 0.950 . S
H1279 C1285 0.950 . S
H1280 C1286 0.949 . S
C1281 H1276 0.950 . S
C1281 C1283 1.327 . S
C1281 C1287 1.429 . S
C1282 C1274 1.574 . S
C1282 H1277 0.949 . S
C1282 C1288 1.368 . S
C1283 C1267 1.349 . S
C1283 H1275 0.950 . S
C1283 C1281 1.327 . S
C1284 C1272 1.349 . S
C1284 H1278 0.950 . S
C1284 C1285 1.327 . S
C1285 H1279 0.950 . S
C1285 C1284 1.327 . S
C1285 C1289 1.429 . S
C1286 C1269 1.574 . S
C1286 H1280 0.949 . S
C1286 C1290 1.368 . S
C1287 C1268 1.429 . S
C1287 C1281 1.429 . S
C1287 C1288 1.523 . S
C1288 C1269 1.368 . S
C1288 C1282 1.368 . S
C1288 C1287 1.523 . S
C1289 C1273 1.429 . S
C1289 C1285 1.429 . S
C1289 C1290 1.523 . S
C1290 C1274 1.368 . S
C1290 C1286 1.368 . S
C1290 C1289 1.523 . S
H1291 C1266 0.950 . S
H1292 C1268 0.950 . S
H1293 C1269 0.949 . S
H1294 C1271 0.950 . S
H1295 C1273 0.950 . S
C1296 C1297 1.349 . S
C1296 C1298 1.327 . S
C1296 H1321 0.950 . S
C1297 C1296 1.349 . S
C1297 C1313 1.349 . S
C1298 C1296 1.327 . S
C1298 C1317 1.429 . S
C1298 H1322 0.950 . S
C1299 C1316 1.574 . S
C1299 C1318 1.368 . S
C1299 H1323 0.949 . S
H1300 C1304 0.949 . S
C1301 C1302 1.349 . S
C1301 C1303 1.327 . S
C1301 H1324 0.950 . S
C1302 C1301 1.349 . S
C1302 C1314 1.349 . S
C1303 C1301 1.327 . S
C1303 C1319 1.429 . S
C1303 H1325 0.950 . S
C1304 H1300 0.949 . S
C1304 C1312 1.574 . S
C1304 C1320 1.368 . S
H1305 C1313 0.950 . S
H1306 C1311 0.950 . S
H1307 C1312 0.949 . S
H1308 C1314 0.950 . S
H1309 C1315 0.950 . S
H1310 C1316 0.949 . S
C1311 H1306 0.950 . S
C1311 C1313 1.327 . S
C1311 C1317 1.429 . S
C1312 C1304 1.574 . S
C1312 H1307 0.949 . S
C1312 C1318 1.368 . S
C1313 C1297 1.349 . S
C1313 H1305 0.950 . S
C1313 C1311 1.327 . S
C1314 C1302 1.349 . S
C1314 H1308 0.950 . S
C1314 C1315 1.327 . S
C1315 H1309 0.950 . S
C1315 C1314 1.327 . S
C1315 C1319 1.429 . S
C1316 C1299 1.574 . S
C1316 H1310 0.949 . S
C1316 C1320 1.368 . S
C1317 C1298 1.429 . S
C1317 C1311 1.429 . S
C1317 C1318 1.523 . S
C1318 C1299 1.368 . S
C1318 C1312 1.368 . S
C1318 C1317 1.523 . S
C1319 C1303 1.429 . S
C1319 C1315 1.429 . S
C1319 C1320 1.523 . S
C1320 C1304 1.368 . S
C1320 C1316 1.368 . S
C1320 C1319 1.523 . S
H1321 C1296 0.950 . S
H1322 C1298 0.950 . S
H1323 C1299 0.949 . S
H1324 C1301 0.950 . S
H1325 C1303 0.950 . S
C1326 C1327 1.349 . S
C1326 C1328 1.327 . S
C1326 H1351 0.950 . S
C1327 C1326 1.349 . S
C1327 C1343 1.349 . S
C1328 C1326 1.327 . S
C1328 C1347 1.429 . S
C1328 H1352 0.950 . S
C1329 C1346 1.574 . S
C1329 C1348 1.368 . S
C1329 H1353 0.949 . S
H1330 C1334 0.949 . S
C1331 C1332 1.349 . S
C1331 C1333 1.327 . S
C1331 H1354 0.950 . S
C1332 C1331 1.349 . S
C1332 C1344 1.349 . S
C1333 C1331 1.327 . S
C1333 C1349 1.429 . S
C1333 H1355 0.950 . S
C1334 H1330 0.949 . S
C1334 C1342 1.574 . S
C1334 C1350 1.368 . S
H1335 C1343 0.950 . S
H1336 C1341 0.950 . S
H1337 C1342 0.949 . S
H1338 C1344 0.950 . S
H1339 C1345 0.950 . S
H1340 C1346 0.949 . S
C1341 H1336 0.950 . S
C1341 C1343 1.327 . S
C1341 C1347 1.429 . S
C1342 C1334 1.574 . S
C1342 H1337 0.949 . S
C1342 C1348 1.368 . S
C1343 C1327 1.349 . S
C1343 H1335 0.950 . S
C1343 C1341 1.327 . S
C1344 C1332 1.349 . S
C1344 H1338 0.950 . S
C1344 C1345 1.327 . S
C1345 H1339 0.950 . S
C1345 C1344 1.327 . S
C1345 C1349 1.429 . S
C1346 C1329 1.574 . S
C1346 H1340 0.949 . S
C1346 C1350 1.368 . S
C1347 C1328 1.429 . S
C1347 C1341 1.429 . S
C1347 C1348 1.523 . S
C1348 C1329 1.368 . S
C1348 C1342 1.368 . S
C1348 C1347 1.523 . S
C1349 C1333 1.429 . S
C1349 C1345 1.429 . S
C1349 C1350 1.523 . S
C1350 C1334 1.368 . S
C1350 C1346 1.368 . S
C1350 C1349 1.523 . S
H1351 C1326 0.950 . S
H1352 C1328 0.950 . S
H1353 C1329 0.949 . S
H1354 C1331 0.950 . S
H1355 C1333 0.950 . S
C1356 C1357 1.349 . S
C1356 C1358 1.327 . S
C1356 H1381 0.950 . S
C1357 C1356 1.349 . S
C1357 C1373 1.349 . S
C1358 C1356 1.327 . S
C1358 C1377 1.429 . S
C1358 H1382 0.950 . S
C1359 C1376 1.574 . S
C1359 C1378 1.368 . S
C1359 H1383 0.949 . S
H1360 C1364 0.949 . S
C1361 C1362 1.349 . S
C1361 C1363 1.327 . S
C1361 H1384 0.950 . S
C1362 C1361 1.349 . S
C1362 C1374 1.349 . S
C1363 C1361 1.327 . S
C1363 C1379 1.429 . S
C1363 H1385 0.950 . S
C1364 H1360 0.949 . S
C1364 C1372 1.574 . S
C1364 C1380 1.368 . S
H1365 C1373 0.950 . S
H1366 C1371 0.950 . S
H1367 C1372 0.949 . S
H1368 C1374 0.950 . S
H1369 C1375 0.950 . S
H1370 C1376 0.949 . S
C1371 H1366 0.950 . S
C1371 C1373 1.327 . S
C1371 C1377 1.429 . S
C1372 C1364 1.574 . S
C1372 H1367 0.949 . S
C1372 C1378 1.368 . S
C1373 C1357 1.349 . S
C1373 H1365 0.950 . S
C1373 C1371 1.327 . S
C1374 C1362 1.349 . S
C1374 H1368 0.950 . S
C1374 C1375 1.327 . S
C1375 H1369 0.950 . S
C1375 C1374 1.327 . S
C1375 C1379 1.429 . S
C1376 C1359 1.574 . S
C1376 H1370 0.949 . S
C1376 C1380 1.368 . S
C1377 C1358 1.429 . S
C1377 C1371 1.429 . S
C1377 C1378 1.523 . S
C1378 C1359 1.368 . S
C1378 C1372 1.368 . S
C1378 C1377 1.523 . S
C1379 C1363 1.429 . S
C1379 C1375 1.429 . S
C1379 C1380 1.523 . S
C1380 C1364 1.368 . S
C1380 C1376 1.368 . S
C1380 C1379 1.523 . S
H1381 C1356 0.950 . S
H1382 C1358 0.950 . S
H1383 C1359 0.949 . S
H1384 C1361 0.950 . S
H1385 C1363 0.950 . S
C1386 C1387 1.349 . S
C1386 C1388 1.327 . S
C1386 H1411 0.950 . S
C1387 C1386 1.349 . S
C1387 C1403 1.349 . S
C1388 C1386 1.327 . S
C1388 C1407 1.429 . S
C1388 H1412 0.950 . S
C1389 C1406 1.574 . S
C1389 C1408 1.368 . S
C1389 H1413 0.949 . S
H1390 C1394 0.949 . S
C1391 C1392 1.349 . S
C1391 C1393 1.327 . S
C1391 H1414 0.950 . S
C1392 C1391 1.349 . S
C1392 C1404 1.349 . S
C1393 C1391 1.327 . S
C1393 C1409 1.429 . S
C1393 H1415 0.950 . S
C1394 H1390 0.949 . S
C1394 C1402 1.574 . S
C1394 C1410 1.368 . S
H1395 C1403 0.950 . S
H1396 C1401 0.950 . S
H1397 C1402 0.949 . S
H1398 C1404 0.950 . S
H1399 C1405 0.950 . S
H1400 C1406 0.949 . S
C1401 H1396 0.950 . S
C1401 C1403 1.327 . S
C1401 C1407 1.429 . S
C1402 C1394 1.574 . S
C1402 H1397 0.949 . S
C1402 C1408 1.368 . S
C1403 C1387 1.349 . S
C1403 H1395 0.950 . S
C1403 C1401 1.327 . S
C1404 C1392 1.349 . S
C1404 H1398 0.950 . S
C1404 C1405 1.327 . S
C1405 H1399 0.950 . S
C1405 C1404 1.327 . S
C1405 C1409 1.429 . S
C1406 C1389 1.574 . S
C1406 H1400 0.949 . S
C1406 C1410 1.368 . S
C1407 C1388 1.429 . S
C1407 C1401 1.429 . S
C1407 C1408 1.523 . S
C1408 C1389 1.368 . S
C1408 C1402 1.368 . S
C1408 C1407 1.523 . S
C1409 C1393 1.429 . S
C1409 C1405 1.429 . S
C1409 C1410 1.523 . S
C1410 C1394 1.368 . S
C1410 C1406 1.368 . S
C1410 C1409 1.523 . S
H1411 C1386 0.950 . S
H1412 C1388 0.950 . S
H1413 C1389 0.949 . S
H1414 C1391 0.950 . S
H1415 C1393 0.950 . S
C1416 C1417 1.349 . S
C1416 C1418 1.327 . S
C1416 H1441 0.950 . S
C1417 C1416 1.349 . S
C1417 C1433 1.349 . S
C1418 C1416 1.327 . S
C1418 C1437 1.429 . S
C1418 H1442 0.950 . S
C1419 C1436 1.574 1_554 S
C1419 C1438 1.368 1_565 S
C1419 H1443 0.949 . S
H1420 C1424 0.949 . S
C1421 C1422 1.349 . S
C1421 C1423 1.327 . S
C1421 H1444 0.950 . S
C1422 C1421 1.349 . S
C1422 C1434 1.349 . S
C1423 C1421 1.327 . S
C1423 C1439 1.429 . S
C1423 H1445 0.950 . S
C1424 H1420 0.949 . S
C1424 C1432 1.574 1_556 S
C1424 C1440 1.368 1_545 S
H1425 C1433 0.950 1_565 S
H1426 C1431 0.950 . S
H1427 C1432 0.949 . S
H1428 C1434 0.950 1_545 S
H1429 C1435 0.950 . S
H1430 C1436 0.949 . S
C1431 H1426 0.950 . S
C1431 C1433 1.327 1_565 S
C1431 C1437 1.429 1_565 S
C1432 C1424 1.574 1_554 S
C1432 H1427 0.949 . S
C1432 C1438 1.368 . S
C1433 C1417 1.349 . S
C1433 H1425 0.950 1_545 S
C1433 C1431 1.327 1_545 S
C1434 C1422 1.349 . S
C1434 H1428 0.950 1_565 S
C1434 C1435 1.327 1_565 S
C1435 H1429 0.950 . S
C1435 C1434 1.327 1_545 S
C1435 C1439 1.429 1_545 S
C1436 C1419 1.574 1_556 S
C1436 H1430 0.949 . S
C1436 C1440 1.368 . S
C1437 C1418 1.429 . S
C1437 C1431 1.429 1_545 S
C1437 C1438 1.523 . S
C1438 C1419 1.368 1_545 S
C1438 C1432 1.368 . S
C1438 C1437 1.523 . S
C1439 C1423 1.429 . S
C1439 C1435 1.429 1_565 S
C1439 C1440 1.523 . S
C1440 C1424 1.368 1_565 S
C1440 C1436 1.368 . S
C1440 C1439 1.523 . S
H1441 C1416 0.950 . S
H1442 C1418 0.950 . S
H1443 C1419 0.949 . S
H1444 C1421 0.950 . S
H1445 C1423 0.950 . S
C1446 C1447 1.349 . S
C1446 C1448 1.327 . S
C1446 H1471 0.950 . S
C1447 C1446 1.349 . S
C1447 C1463 1.349 . S
C1448 C1446 1.327 . S
C1448 C1467 1.429 . S
C1448 H1472 0.950 1_455 S
C1449 C1466 1.574 1_556 S
C1449 C1468 1.368 . S
C1449 H1473 0.949 . S
H1450 C1454 0.949 . S
C1451 C1452 1.349 . S
C1451 C1453 1.327 . S
C1451 H1474 0.950 . S
C1452 C1451 1.349 . S
C1452 C1464 1.349 . S
C1453 C1451 1.327 . S
C1453 C1469 1.429 . S
C1453 H1475 0.950 1_655 S
C1454 H1450 0.949 . S
C1454 C1462 1.574 1_554 S
C1454 C1470 1.368 . S
H1455 C1463 0.950 . S
H1456 C1461 0.950 . S
H1457 C1462 0.949 . S
H1458 C1464 0.950 . S
H1459 C1465 0.950 . S
H1460 C1466 0.949 . S
C1461 H1456 0.950 . S
C1461 C1463 1.327 . S
C1461 C1467 1.429 . S
C1462 C1454 1.574 1_556 S
C1462 H1457 0.949 . S
C1462 C1468 1.368 1_655 S
C1463 C1447 1.349 . S
C1463 H1455 0.950 . S
C1463 C1461 1.327 . S
C1464 C1452 1.349 . S
C1464 H1458 0.950 . S
C1464 C1465 1.327 . S
C1465 H1459 0.950 . S
C1465 C1464 1.327 . S
C1465 C1469 1.429 . S
C1466 C1449 1.574 1_554 S
C1466 H1460 0.949 . S
C1466 C1470 1.368 1_455 S
C1467 C1448 1.429 . S
C1467 C1461 1.429 . S
C1467 C1468 1.523 . S
C1468 C1449 1.368 . S
C1468 C1462 1.368 1_455 S
C1468 C1467 1.523 . S
C1469 C1453 1.429 . S
C1469 C1465 1.429 . S
C1469 C1470 1.523 . S
C1470 C1454 1.368 . S
C1470 C1466 1.368 1_655 S
C1470 C1469 1.523 . S
H1471 C1446 0.950 . S
H1472 C1448 0.950 1_655 S
H1473 C1449 0.949 . S
H1474 C1451 0.950 . S
H1475 C1453 0.950 1_455 S
C1476 C1477 1.349 . S
C1476 C1478 1.327 . S
C1476 H1501 0.952 . S
C1477 C1476 1.349 . S
C1477 C1493 1.349 . S
C1478 C1476 1.327 . S
C1478 C1497 1.429 . S
C1478 H1502 0.950 1_545 S
C1479 C1496 1.574 1_556 S
C1479 C1498 1.368 . S
C1479 H1503 0.949 . S
H1480 C1484 0.949 . S
C1481 C1482 1.349 . S
C1481 C1483 1.327 . S
C1481 H1504 0.952 . S
C1482 C1481 1.349 . S
C1482 C1494 1.349 . S
C1483 C1481 1.327 . S
C1483 C1499 1.429 . S
C1483 H1505 0.950 1_565 S
C1484 H1480 0.949 . S
C1484 C1492 1.574 1_554 S
C1484 C1500 1.368 . S
H1485 C1493 0.950 . S
H1486 C1491 0.950 . S
H1487 C1492 0.949 . S
H1488 C1494 0.950 . S
H1489 C1495 0.950 . S
H1490 C1496 0.949 . S
C1491 H1486 0.950 . S
C1491 C1493 1.327 . S
C1491 C1497 1.429 . S
C1492 C1484 1.574 1_556 S
C1492 H1487 0.949 . S
C1492 C1498 1.368 1_565 S
C1493 C1477 1.349 . S
C1493 H1485 0.950 . S
C1493 C1491 1.327 . S
C1494 C1482 1.349 . S
C1494 H1488 0.950 . S
C1494 C1495 1.327 . S
C1495 H1489 0.950 . S
C1495 C1494 1.327 . S
C1495 C1499 1.429 . S
C1496 C1479 1.574 1_554 S
C1496 H1490 0.949 . S
C1496 C1500 1.368 1_545 S
C1497 C1478 1.429 . S
C1497 C1491 1.429 . S
C1497 C1498 1.523 . S
C1498 C1479 1.368 . S
C1498 C1492 1.368 1_545 S
C1498 C1497 1.523 . S
C1499 C1483 1.429 . S
C1499 C1495 1.429 . S
C1499 C1500 1.523 . S
C1500 C1484 1.368 . S
C1500 C1496 1.368 1_565 S
C1500 C1499 1.523 . S
H1501 C1476 0.952 . S
H1502 C1478 0.950 1_565 S
H1503 C1479 0.949 . S
H1504 C1481 0.952 . S
H1505 C1483 0.950 1_545 S
C1506 C1507 1.349 . S
C1506 C1508 1.327 . S
C1506 H1531 0.950 . S
C1507 C1506 1.349 . S
C1507 C1523 1.349 . S
C1508 C1506 1.327 . S
C1508 C1527 1.429 . S
C1508 H1532 0.950 1_655 S
C1509 C1526 1.574 1_556 S
C1509 C1528 1.368 . S
C1509 H1533 0.949 . S
H1510 C1514 0.949 . S
C1511 C1512 1.349 . S
C1511 C1513 1.327 . S
C1511 H1534 0.950 . S
C1512 C1511 1.349 . S
C1512 C1524 1.349 . S
C1513 C1511 1.327 . S
C1513 C1529 1.429 . S
C1513 H1535 0.950 1_455 S
C1514 H1510 0.949 . S
C1514 C1522 1.574 1_554 S
C1514 C1530 1.368 . S
H1515 C1523 0.950 . S
H1516 C1521 0.950 . S
H1517 C1522 0.949 . S
H1518 C1524 0.950 . S
H1519 C1525 0.950 . S
H1520 C1526 0.949 . S
C1521 H1516 0.950 . S
C1521 C1523 1.327 . S
C1521 C1527 1.429 . S
C1522 C1514 1.574 1_556 S
C1522 H1517 0.949 . S
C1522 C1528 1.368 1_455 S
C1523 C1507 1.349 . S
C1523 H1515 0.950 . S
C1523 C1521 1.327 . S
C1524 C1512 1.349 . S
C1524 H1518 0.950 . S
C1524 C1525 1.327 . S
C1525 H1519 0.950 . S
C1525 C1524 1.327 . S
C1525 C1529 1.429 . S
C1526 C1509 1.574 1_554 S
C1526 H1520 0.949 . S
C1526 C1530 1.368 1_655 S
C1527 C1508 1.429 . S
C1527 C1521 1.429 . S
C1527 C1528 1.523 . S
C1528 C1509 1.368 . S
C1528 C1522 1.368 1_655 S
C1528 C1527 1.523 . S
C1529 C1513 1.429 . S
C1529 C1525 1.429 . S
C1529 C1530 1.523 . S
C1530 C1514 1.368 . S
C1530 C1526 1.368 1_455 S
C1530 C1529 1.523 . S
H1531 C1506 0.950 . S
H1532 C1508 0.950 1_455 S
H1533 C1509 0.949 . S
H1534 C1511 0.950 . S
H1535 C1513 0.950 1_655 S
C577 C4 1.125 . S
C582 C256 1.125 . S
C607 C40 1.125 . S
C612 C148 1.125 . S
C637 C184 1.125 . S
C642 C76 1.125 . S
C667 C112 1.125 . S
C672 C220 1.125 . S
C697 C292 1.125 . S
C702 C544 1.125 . S
C727 C436 1.125 . S
C732 C328 1.125 . S
C757 C472 1.125 . S
C762 C364 1.125 . S
C787 C508 1.125 . S
C792 C400 1.125 . S
C817 C3 1.289 . S
C822 C398 1.295 . S
C847 C39 1.289 . S
C852 C290 1.295 . S
C877 C326 1.295 . S
C882 C75 1.289 . S
C907 C111 1.289 . S
C912 C362 1.295 . S
C937 C147 1.289 . S
C942 C470 1.295 . S
C967 C506 1.295 . S
C972 C183 1.289 . S
C997 C219 1.289 . S
C1002 C542 1.295 . S
C1027 C434 1.295 . S
C1032 C255 1.289 . S
C1057 C291 1.289 1_545 S
C1062 C110 1.295 . S
C1087 C2 1.295 . S
C1092 C327 1.289 1_455 S
C1117 C363 1.289 1_565 S
C1122 C38 1.295 . S
C1147 C74 1.295 . S
C1152 C399 1.289 1_655 S
C1177 C435 1.289 1_565 S
C1182 C182 1.295 . S
C1207 C218 1.295 . S
C1212 C471 1.289 1_655 S
C1237 C254 1.295 . S
C1242 C507 1.289 1_545 S
C1267 C146 1.295 . S
C1272 C543 1.289 1_455 S
C1297 C158 1.586 . S
C1302 C14 1.586 . S
C1327 C194 1.586 . S
C1332 C50 1.586 . S
C1357 C86 1.586 . S
C1362 C230 1.586 . S
C1387 C266 1.586 . S
C1392 C122 1.586 . S
C1417 C446 1.586 . S
C1422 C302 1.586 . S
C1447 C482 1.586 . S
C1452 C338 1.586 . S
C1477 C374 1.586 . S
C1482 C518 1.586 . S
C1507 C554 1.586 . S
C1512 C410 1.586 . S
