# Generated by pormake.
# Topology upa, (4)-cn, num edge types: 1
# Building blocks:
#     Node 0, Type 0, BuildingBlock: QUQFOY_clean_sbu_3, # of connection points: 4
#     Node 1, Type 0, BuildingBlock: QUQFOY_clean_sbu_3, # of connection points: 4
#     Node 2, Type 0, BuildingBlock: QUQFOY_clean_sbu_3, # of connection points: 4
#     Node 3, Type 0, BuildingBlock: QUQFOY_clean_sbu_3, # of connection points: 4
#     Node 4, Type 0, BuildingBlock: QUQFOY_clean_sbu_3, # of connection points: 4
#     Node 5, Type 0, BuildingBlock: QUQFOY_clean_sbu_3, # of connection points: 4
#     Node 6, Type 0, BuildingBlock: QUQFOY_clean_sbu_3, # of connection points: 4
#     Node 7, Type 0, BuildingBlock: QUQFOY_clean_sbu_3, # of connection points: 4
#     Edge 8, Type (0, 0), BuildingBlock: MIFKUJ_clean_linker_0, # of connection points: 2
#     Edge 9, Type (0, 0), BuildingBlock: MIFKUJ_clean_linker_0, # of connection points: 2
#     Edge 10, Type (0, 0), BuildingBlock: MIFKUJ_clean_linker_0, # of connection points: 2
#     Edge 11, Type (0, 0), BuildingBlock: MIFKUJ_clean_linker_0, # of connection points: 2
#     Edge 12, Type (0, 0), BuildingBlock: MIFKUJ_clean_linker_0, # of connection points: 2
#     Edge 13, Type (0, 0), BuildingBlock: MIFKUJ_clean_linker_0, # of connection points: 2
#     Edge 14, Type (0, 0), BuildingBlock: MIFKUJ_clean_linker_0, # of connection points: 2
#     Edge 15, Type (0, 0), BuildingBlock: MIFKUJ_clean_linker_0, # of connection points: 2
#     Edge 16, Type (0, 0), BuildingBlock: MIFKUJ_clean_linker_0, # of connection points: 2
#     Edge 17, Type (0, 0), BuildingBlock: MIFKUJ_clean_linker_0, # of connection points: 2
#     Edge 18, Type (0, 0), BuildingBlock: MIFKUJ_clean_linker_0, # of connection points: 2
#     Edge 19, Type (0, 0), BuildingBlock: MIFKUJ_clean_linker_0, # of connection points: 2
#     Edge 20, Type (0, 0), BuildingBlock: MIFKUJ_clean_linker_0, # of connection points: 2
#     Edge 21, Type (0, 0), BuildingBlock: MIFKUJ_clean_linker_0, # of connection points: 2
#     Edge 22, Type (0, 0), BuildingBlock: MIFKUJ_clean_linker_0, # of connection points: 2
#     Edge 23, Type (0, 0), BuildingBlock: MIFKUJ_clean_linker_0, # of connection points: 2
# Relax obj value: 0.209
# Max RMSD: 0.130
# Mean RMSD: 0.130
data_MOF--net-upa--node1-QUQFOY_clean_sbu_3--edge1-MIFKUJ_clean_linker_0
_symmetry_space_group_name_H-M    P1
_symmetry_Int_Tables_number       1
_symmetry_cell_setting            triclinic
loop_
_symmetry_equiv_pos_as_xyz
'x, y, z'
_cell_length_a     35.293288
_cell_length_b     34.977358
_cell_length_c     58.795001
_cell_angle_alpha  90.093582
_cell_angle_beta   90.223704
_cell_angle_gamma 89.854844
loop_
_atom_site_label
_atom_site_type_symbol
_atom_site_fract_x
_atom_site_fract_y
_atom_site_fract_z
_atom_type_partial_charge
C0 C 0.07834 0.25992 0.31499 0.0
O1 O 0.07383 0.26549 0.33616 0.0
Cd2 Cd 0.11259 0.24217 0.36651 0.0
O3 O 0.10848 0.24387 0.30757 0.0
Cd4 Cd 0.1684 0.21734 0.32525 0.0
C5 C 0.10955 0.14992 0.34682 0.0
O6 O 0.17656 0.2577 0.35908 0.0
O7 O 0.2056 0.20367 0.35953 0.0
O8 O 0.21348 0.24301 0.29696 0.0
C9 C 0.19895 0.23518 0.36939 0.0
O10 O 0.10152 0.1736 0.36259 0.0
C11 C 0.22984 0.211 0.29368 0.0
O12 O 0.13139 0.15923 0.33054 0.0
O13 O 0.21606 0.18228 0.30389 0.0
C14 C 0.20689 0.5924 0.81001 0.0
O15 O 0.19438 0.58624 0.8299 0.0
Cd16 Cd 0.22051 0.61607 0.8631 0.0
O17 O 0.22885 0.62065 0.80619 0.0
Cd18 Cd 0.2562 0.67704 0.82719 0.0
C19 C 0.31418 0.60697 0.84622 0.0
O20 O 0.2144 0.68353 0.86028 0.0
O21 O 0.26963 0.70961 0.86278 0.0
O22 O 0.23224 0.72551 0.8004 0.0
C23 C 0.23773 0.70332 0.87181 0.0
O24 O 0.28664 0.59646 0.85868 0.0
C25 C 0.26432 0.74117 0.79735 0.0
O26 O 0.31104 0.63548 0.83285 0.0
O27 O 0.29257 0.72579 0.80723 0.0
C28 C 0.88664 0.70917 0.31084 0.0
O29 O 0.89177 0.70235 0.33184 0.0
Cd30 Cd 0.85651 0.73166 0.36214 0.0
O31 O 0.85799 0.7286 0.30421 0.0
Cd32 Cd 0.80133 0.76019 0.32172 0.0
C33 C 0.86606 0.82316 0.34138 0.0
O34 O 0.79032 0.72431 0.35684 0.0
O35 O 0.76922 0.7822 0.35589 0.0
O36 O 0.75189 0.73105 0.29811 0.0
C37 C 0.77179 0.75083 0.36658 0.0
O38 O 0.87278 0.79902 0.35712 0.0
C39 C 0.73906 0.76243 0.29032 0.0
O40 O 0.84299 0.81567 0.32523 0.0
O41 O 0.75656 0.79267 0.29613 0.0
C42 C 0.76191 0.38409 0.80759 0.0
O43 O 0.77505 0.38872 0.82752 0.0
Cd44 Cd 0.74154 0.36156 0.85901 0.0
O45 O 0.73763 0.35789 0.80364 0.0
Cd46 Cd 0.70715 0.30306 0.82412 0.0
C47 C 0.64971 0.3747 0.83899 0.0
O48 O 0.74181 0.29339 0.86013 0.0
O49 O 0.68235 0.27867 0.85951 0.0
O50 O 0.73573 0.24931 0.80363 0.0
C51 C 0.71345 0.27919 0.8704 0.0
O52 O 0.67698 0.38464 0.85198 0.0
C53 C 0.70486 0.23683 0.79529 0.0
O54 O 0.65239 0.3454 0.82617 0.0
O55 O 0.67509 0.25604 0.79959 0.0
C56 C 0.57812 0.20561 0.16761 0.0
O57 O 0.5735 0.19846 0.14659 0.0
Cd58 Cd 0.60981 0.2242 0.116 0.0
O59 O 0.60734 0.2239 0.17449 0.0
Cd60 Cd 0.66583 0.25253 0.15676 0.0
C61 C 0.60304 0.31698 0.13589 0.0
O62 O 0.67549 0.21415 0.12215 0.0
O63 O 0.70013 0.27037 0.12272 0.0
O64 O 0.71111 0.22509 0.18451 0.0
C65 C 0.69549 0.23913 0.11217 0.0
O66 O 0.59482 0.29183 0.12095 0.0
C67 C 0.72777 0.25667 0.18839 0.0
O68 O 0.62691 0.30988 0.15169 0.0
O69 O 0.71424 0.28611 0.17865 0.0
C70 C 0.26084 0.08694 0.66751 0.0
O71 O 0.26563 0.08094 0.64641 0.0
Cd72 Cd 0.23453 0.11483 0.6167 0.0
O73 O 0.24262 0.11646 0.67431 0.0
Cd74 Cd 0.21058 0.1741 0.65643 0.0
C75 C 0.1449 0.10943 0.64029 0.0
O76 O 0.24574 0.18128 0.621 0.0
O77 O 0.19068 0.20783 0.62171 0.0
O78 O 0.24234 0.22425 0.67873 0.0
C79 C 0.22121 0.20183 0.61097 0.0
O80 O 0.16925 0.0984 0.62573 0.0
C81 C 0.21212 0.23804 0.68715 0.0
O82 O 0.152 0.13669 0.65406 0.0
O83 O 0.18145 0.22089 0.68223 0.0
C84 C 0.38319 0.76704 0.17205 0.0
O85 O 0.38703 0.77932 0.15188 0.0
Cd86 Cd 0.35646 0.74843 0.12041 0.0
O87 O 0.35673 0.74356 0.17682 0.0
Cd88 Cd 0.30071 0.71237 0.15798 0.0
C89 C 0.37067 0.65512 0.13916 0.0
O90 O 0.28948 0.75016 0.12363 0.0
O91 O 0.27003 0.69164 0.12297 0.0
O92 O 0.25022 0.74128 0.18062 0.0
C93 C 0.27224 0.72369 0.11299 0.0
O94 O 0.37874 0.68287 0.12602 0.0
C95 C 0.23801 0.71011 0.18886 0.0
O96 O 0.34329 0.65753 0.15321 0.0
O97 O 0.25614 0.67986 0.18368 0.0
C98 C 0.69887 0.88369 0.67171 0.0
O99 O 0.68635 0.88891 0.65168 0.0
Cd100 Cd 0.71956 0.86224 0.61991 0.0
O101 O 0.72299 0.85724 0.67565 0.0
Cd102 Cd 0.75519 0.80323 0.65515 0.0
C103 C 0.81048 0.87712 0.64093 0.0
O104 O 0.72008 0.7941 0.61936 0.0
O105 O 0.77941 0.77874 0.61949 0.0
O106 O 0.72817 0.74984 0.67658 0.0
C107 C 0.74816 0.77984 0.60878 0.0
O108 O 0.78338 0.8864 0.62763 0.0
C109 C 0.75971 0.73708 0.68388 0.0
O110 O 0.80831 0.84763 0.65359 0.0
O111 O 0.7891 0.756 0.67857 0.0
H112 H 0.07291 0.11446 0.3817 0.0
H113 H 0.03377 0.05703 0.37953 0.0
H114 H 0.06147 0.04437 0.30853 0.0
H115 H 0.10085 0.10178 0.31052 0.0
H116 H 0.98352 0.04194 0.3176 0.0
H117 H 0.09855 0.98355 0.34496 0.0
H118 H 0.15328 0.97701 0.37087 0.0
H119 H 0.07817 0.9601 0.42723 0.0
H120 H 0.02296 0.96707 0.40169 0.0
H121 H 0.89205 0.8617 0.30439 0.0
H122 H 0.93509 0.91638 0.3042 0.0
H123 H 0.93176 0.92027 0.3776 0.0
H124 H 0.89047 0.86429 0.3778 0.0
H125 H 3e-05 0.92653 0.36556 0.0
H126 H 0.88531 0.98742 0.34055 0.0
H127 H 0.8289 -0.00178 0.3165 0.0
H128 H 0.89998 0.01498 0.25827 0.0
H129 H 0.95681 0.00368 0.28189 0.0
C130 C 0.07113 0.09916 0.36569 0.0
C131 C 0.08997 0.11265 0.34628 0.0
C132 C 0.04881 0.06634 0.3645 0.0
C133 C 0.04484 0.04651 0.34388 0.0
C134 C 0.06427 0.05934 0.32459 0.0
C135 C 0.08693 0.09196 0.32582 0.0
C136 C 0.01887 0.01352 0.34226 0.0
C137 C -0.01267 0.01634 0.32778 0.0
C138 C 0.02342 0.98086 0.3561 0.0
C139 C 0.05661 0.97613 0.37143 0.0
C140 C 0.0937 0.97869 0.3629 0.0
C141 C 0.12481 0.97486 0.37752 0.0
C142 C 0.11921 0.96823 0.40069 0.0
C143 C 0.08247 0.96527 0.40928 0.0
C144 C 0.05126 0.9691 0.39473 0.0
C145 C 0.90008 0.87468 0.32043 0.0
C146 C 0.88788 0.85899 0.34111 0.0
C147 C 0.92462 0.90599 0.32033 0.0
C148 C 0.93644 0.92284 0.34088 0.0
C149 C 0.92324 0.90774 0.36151 0.0
C150 C 0.8995 0.8759 0.36163 0.0
C151 C 0.96399 0.95492 0.34108 0.0
C152 C -0.00398 0.95195 0.35527 0.0
C153 C 0.95949 0.98777 0.32723 0.0
C154 C 0.9253 -0.0058 0.31295 0.0
C155 C 0.8889 -0.00699 0.32257 0.0
C156 C 0.85685 -0.0007 0.30902 0.0
C157 C 0.86085 0.00714 0.28586 0.0
C158 C 0.89692 0.0088 0.2762 0.0
C159 C 0.92905 0.00245 0.28966 0.0
H160 H 0.836 0.01203 0.27541 0.0
H161 H 0.14333 0.96532 0.41198 0.0
H162 H 0.38543 0.62906 0.83372 0.0
H163 H 0.4425 0.5893 0.83216 0.0
H164 H 0.37814 0.49223 0.85549 0.0
H165 H 0.32166 0.5322 0.85806 0.0
H166 H 0.44142 0.49003 0.87529 0.0
H167 H 0.40509 0.50547 0.79784 0.0
H168 H 0.38667 0.53978 0.76289 0.0
H169 H 0.49417 0.59703 0.7624 0.0
H170 H 0.51299 0.56332 0.79754 0.0
H171 H 0.57755 0.35221 0.82843 0.0
H172 H 0.51989 0.39176 0.82919 0.0
H173 H 0.58634 0.48987 0.84853 0.0
H174 H 0.64378 0.4505 0.84854 0.0
H175 H 0.52201 0.48876 0.80629 0.0
H176 H 0.55192 0.47241 0.88839 0.0
H177 H 0.56683 0.43093 0.92114 0.0
H178 H 0.46539 0.36642 0.90891 0.0
H179 H 0.45023 0.40724 0.87585 0.0
C180 C 0.3836 0.59929 0.83862 0.0
C181 C 0.34916 0.58376 0.84606 0.0
C182 C 0.41613 0.57649 0.83757 0.0
C183 C 0.41453 0.5375 0.84329 0.0
C184 C 0.3802 0.52218 0.85101 0.0
C185 C 0.3479 0.54509 0.85248 0.0
C186 C 0.4486 0.51266 0.84141 0.0
C187 C 0.45869 0.48965 0.86006 0.0
C188 C 0.47134 0.51181 0.82158 0.0
C189 C 0.46024 0.53216 0.80044 0.0
C190 C 0.42465 0.52559 0.79036 0.0
C191 C 0.41417 0.54488 0.77051 0.0
C192 C 0.4392 0.57067 0.76046 0.0
C193 C 0.47479 0.5771 0.77022 0.0
C194 C 0.48539 0.55786 0.7901 0.0
C195 C 0.57981 0.38222 0.83279 0.0
C196 C 0.61502 0.39827 0.83858 0.0
C197 C 0.54697 0.40468 0.83321 0.0
C198 C 0.54914 0.44353 0.83895 0.0
C199 C 0.58431 0.45985 0.84412 0.0
C200 C 0.61696 0.43731 0.84421 0.0
C201 C 0.51455 0.46708 0.84017 0.0
C202 C 0.50446 0.48953 0.8214 0.0
C203 C 0.49127 0.46674 0.85959 0.0
C204 C 0.50024 0.4425 0.87953 0.0
C205 C 0.53304 0.44912 0.89255 0.0
C206 C 0.54148 0.4258 0.9112 0.0
C207 C 0.51714 0.39597 0.91706 0.0
C208 C 0.48425 0.38948 0.90432 0.0
C209 C 0.47572 0.4127 0.88565 0.0
H210 H 0.52371 0.37795 0.9315 0.0
H211 H 0.43105 0.5856 0.74509 0.0
H212 H 0.54361 0.33719 0.10861 0.0
H213 H 0.50673 0.39601 0.10965 0.0
H214 H 0.57863 0.43961 0.16319 0.0
H215 H 0.61522 0.38004 0.16277 0.0
H216 H 0.50712 0.45333 0.17283 0.0
H217 H 0.58591 0.47202 0.10814 0.0
H218 H 0.61562 0.4545 0.07167 0.0
H219 H 0.50613 0.44986 0.03972 0.0
H220 H 0.47569 0.4667 0.07609 0.0
H221 H 0.44158 0.64881 0.12152 0.0
H222 H 0.48308 0.59314 0.12164 0.0
H223 H 0.39658 0.52739 0.15533 0.0
H224 H 0.35517 0.58369 0.15597 0.0
H225 H 0.47983 0.52744 0.10275 0.0
H226 H 0.43747 0.45903 0.18906 0.0
H227 H 0.41361 0.47914 0.22663 0.0
H228 H 0.46105 0.59086 0.21701 0.0
H229 H 0.48564 0.57114 0.17955 0.0
C230 C 0.55186 0.35932 0.12053 0.0
C231 C 0.58249 0.35391 0.13558 0.0
C232 C 0.53074 0.39304 0.12105 0.0
C233 C 0.54016 0.42241 0.13631 0.0
C234 C 0.57087 0.41729 0.15127 0.0
C235 C 0.59186 0.38332 0.15092 0.0
C236 C 0.5174 0.45809 0.13686 0.0
C237 C 0.50121 0.46963 0.15753 0.0
C238 C 0.51024 0.4797 0.11696 0.0
C239 C 0.5285 0.47036 0.09491 0.0
C240 C 0.56815 0.46707 0.09337 0.0
C241 C 0.58512 0.45726 0.07271 0.0
C242 C 0.56277 0.45101 0.0534 0.0
C243 C 0.52341 0.45469 0.05469 0.0
C244 C 0.50627 0.4644 0.07532 0.0
C245 C 0.43124 0.62249 0.1289 0.0
C246 C 0.39502 0.62064 0.13873 0.0
C247 C 0.45506 0.59063 0.12893 0.0
C248 C 0.44317 0.55611 0.13865 0.0
C249 C 0.4067 0.55392 0.14812 0.0
C250 C 0.38298 0.58604 0.14838 0.0
C251 C 0.46906 0.52255 0.13871 0.0
C252 C 0.48577 0.51129 0.1181 0.0
C253 C 0.4775 0.50183 0.1588 0.0
C254 C 0.46308 0.51375 0.18141 0.0
C255 C 0.44293 0.48784 0.19501 0.0
C256 C 0.42926 0.49916 0.21628 0.0
C257 C 0.43571 0.53629 0.22418 0.0
C258 C 0.45597 0.56214 0.21086 0.0
C259 C 0.46975 0.55092 0.18961 0.0
H260 H 0.42507 0.54501 0.24063 0.0
H261 H 0.57597 0.44334 0.03744 0.0
H262 H 0.07313 0.1369 0.6475 0.0
H263 H 0.01434 0.09959 0.64873 0.0
H264 H 0.07924 -0.00443 0.6405 0.0
H265 H 0.13711 0.03296 0.63757 0.0
H266 H 0.0239 -0.01023 0.61519 0.0
H267 H 0.03545 0.02967 0.69319 0.0
H268 H 0.04101 0.07463 0.72537 0.0
H269 H 0.93475 0.12622 0.70689 0.0
H270 H 0.92888 0.08201 0.67435 0.0
H271 H 0.88262 0.85762 0.6537 0.0
H272 H 0.93839 0.89946 0.65487 0.0
H273 H 0.86959 -0.00534 0.633 0.0
H274 H 0.81405 0.953 0.63119 0.0
H275 H 0.92369 0.00611 0.67333 0.0
H276 H 0.91532 0.96351 0.59466 0.0
H277 H 0.91027 0.91402 0.56488 0.0
H278 H 0.01345 0.86216 0.58866 0.0
H279 H 0.01878 0.91107 0.61881 0.0
C280 C 0.07457 0.10606 0.64598 0.0
C281 C 0.10941 0.08772 0.64226 0.0
C282 C 0.04108 0.08469 0.64687 0.0
C283 C 0.0422 0.04455 0.64496 0.0
C284 C 0.07736 0.02642 0.64182 0.0
C285 C 0.11048 0.04778 0.64019 0.0
C286 C 0.00701 0.02116 0.64519 0.0
C287 C 0.00241 -0.00681 0.62818 0.0
C288 C 0.97822 0.02587 0.66176 0.0
C289 C 0.98198 0.05283 0.68115 0.0
C290 C 0.01347 0.05086 0.69584 0.0
C291 C 0.01664 0.07618 0.71417 0.0
C292 C -0.01167 0.10337 0.71812 0.0
C293 C 0.95673 0.10525 0.70377 0.0
C294 C 0.95347 0.08007 0.68538 0.0
C295 C 0.87943 0.88748 0.64919 0.0
C296 C 0.84412 0.90202 0.64219 0.0
C297 C 0.91119 0.91127 0.64989 0.0
C298 C 0.90787 0.95001 0.64404 0.0
C299 C 0.87254 0.96482 0.63762 0.0
C300 C 0.84099 0.94093 0.63644 0.0
C301 C 0.94162 0.97482 0.64375 0.0
C302 C 0.9456 0.00298 0.66056 0.0
C303 C 0.97026 0.96987 0.62735 0.0
C304 C 0.96721 0.94067 0.60913 0.0
C305 C 0.93673 0.94134 0.59367 0.0
C306 C 0.93386 0.91344 0.5767 0.0
C307 C 0.96146 0.88489 0.57492 0.0
C308 C -0.00794 0.88426 0.59008 0.0
C309 C -0.00497 0.91207 0.6071 0.0
H310 H 0.95919 0.86332 0.56177 0.0
H311 H -0.00918 0.1229 0.73234 0.0
H312 H 0.25287 0.19722 0.39368 0.0
H313 H 0.2624 0.19808 0.43485 0.0
H314 H 0.17481 0.28361 0.44153 0.0
H315 H 0.16597 0.28372 0.40017 0.0
H316 H 0.22962 0.29656 0.47176 0.0
H317 H 0.15541 0.1889 0.44934 0.0
H318 H 0.13982 0.13077 0.42747 0.0
H319 H 0.23837 0.07446 0.45452 0.0
H320 H 0.25489 0.13251 0.47628 0.0
H321 H 0.17609 0.24992 0.58623 0.0
H322 H 0.17831 0.26181 0.54523 0.0
H323 H 0.27557 0.18758 0.53956 0.0
H324 H 0.27372 0.17573 0.58058 0.0
H325 H 0.21691 0.17012 0.50911 0.0
H326 H 0.28755 0.28054 0.53356 0.0
H327 H 0.29828 0.33924 0.55593 0.0
H328 H 0.19949 0.39065 0.52591 0.0
H329 H 0.18786 0.33203 0.50358 0.0
C330 C 0.23608 0.21668 0.40388 0.0
C331 C 0.20839 0.24009 0.39374 0.0
C332 C 0.24143 0.21703 0.42742 0.0
C333 C 0.21867 0.24021 0.44134 0.0
C334 C 0.19255 0.26532 0.43114 0.0
C335 C 0.18752 0.26535 0.40751 0.0
C336 C 0.22044 0.23631 0.4665 0.0
C337 C 0.22649 0.26898 0.47994 0.0
C338 C 0.21656 0.20027 0.47721 0.0
C339 C 0.2066 0.1652 0.46426 0.0
C340 C 0.17392 0.16422 0.45049 0.0
C341 C 0.16489 0.13128 0.43814 0.0
C342 C 0.18814 0.09897 0.43957 0.0
C343 C 0.22042 0.09953 0.45341 0.0
C344 C 0.22962 0.13244 0.46576 0.0
C345 C 0.19824 0.2365 0.57629 0.0
C346 C 0.22467 0.21181 0.58662 0.0
C347 C 0.19954 0.24343 0.55289 0.0
C348 C 0.22717 0.22566 0.53939 0.0
C349 C 0.25405 0.2016 0.54971 0.0
C350 C 0.25302 0.19497 0.57315 0.0
C351 C 0.22655 0.23024 0.51432 0.0
C352 C 0.22037 0.19766 0.5009 0.0
C353 C 0.22958 0.26641 0.50373 0.0
C354 C 0.23665 0.30175 0.51705 0.0
C355 C 0.26794 0.30424 0.53187 0.0
C356 C 0.27422 0.33753 0.54451 0.0
C357 C 0.24953 0.36862 0.54238 0.0
C358 C 0.21857 0.36653 0.52755 0.0
C359 C 0.21215 0.33329 0.51488 0.0
H360 H 0.25444 0.39436 0.55219 0.0
H361 H 0.1811 0.07349 0.42999 0.0
H362 H 0.26731 0.76271 0.8956 0.0
H363 H 0.2652 0.77304 0.93668 0.0
H364 H 0.19486 0.67307 0.94406 0.0
H365 H 0.19527 0.66393 0.9027 0.0
H366 H 0.1745 0.72333 0.97425 0.0
H367 H 0.29395 0.67064 0.95155 0.0
H368 H 0.35335 0.6669 0.92969 0.0
H369 H 0.38809 0.77549 0.9567 0.0
H370 H 0.32863 0.78011 0.9785 0.0
H371 H 0.23144 0.6734 0.08728 0.0
H372 H 0.21821 0.67669 0.0465 0.0
H373 H 0.27483 0.78564 0.04305 0.0
H374 H 0.28826 0.78255 0.08393 0.0
H375 H 0.30063 0.7339 0.01128 0.0
H376 H 0.18009 0.78127 0.03706 0.0
H377 H 0.12143 0.77953 0.05967 0.0
H378 H 0.08993 0.67364 0.02785 0.0
H379 H 0.14867 0.67446 0.00527 0.0
C380 C 0.25082 0.74338 0.90598 0.0
C381 C 0.23171 0.71236 0.89605 0.0
C382 C 0.24983 0.74912 0.92946 0.0
C383 C 0.23083 0.72317 0.9436 0.0
C384 C 0.20993 0.69336 0.93356 0.0
C385 C 0.21016 0.68814 0.90994 0.0
C386 C 0.23479 0.72576 0.96878 0.0
C387 C 0.2021 0.72531 0.98234 0.0
C388 C 0.27078 0.72871 0.97944 0.0
C389 C 0.30668 0.7259 0.96647 0.0
C390 C 0.31415 0.69383 0.95271 0.0
C391 C 0.34784 0.69154 0.94035 0.0
C392 C 0.37443 0.72098 0.94176 0.0
C393 C 0.36744 0.75273 0.9556 0.0
C394 C 0.33377 0.75519 0.96797 0.0
C395 C 0.24067 0.69831 0.07791 0.0
C396 C 0.26102 0.72766 0.08882 0.0
C397 C 0.23291 0.70022 0.05462 0.0
C398 C 0.24534 0.73151 0.04177 0.0
C399 C 0.26491 0.76129 0.05269 0.0
C400 C 0.27246 0.75953 0.07605 0.0
C401 C 0.2404 0.73169 0.01669 0.0
C402 C 0.27301 0.73236 0.00316 0.0
C403 C 0.20444 0.72815 0.00616 0.0
C404 C 0.16894 0.72779 0.01959 0.0
C405 C 0.16079 0.75747 0.035 0.0
C406 C 0.12749 0.75668 0.04779 0.0
C407 C 0.102 0.72646 0.04524 0.0
C408 C 0.1097 0.69702 0.02983 0.0
C409 C 0.14297 0.69766 0.017 0.0
H410 H 0.07625 0.72589 0.05517 0.0
H411 H 0.40049 0.71916 0.93217 0.0
H412 H 0.68622 0.78072 0.58029 0.0
H413 H 0.68567 0.77051 0.53895 0.0
H414 H 0.80612 0.74956 0.54038 0.0
H415 H 0.80692 0.75941 0.58144 0.0
H416 H 0.78578 0.80218 0.50805 0.0
H417 H 0.74829 0.67696 0.53253 0.0
H418 H 0.70894 0.63026 0.55302 0.0
H419 H 0.61116 0.66594 0.5148 0.0
H420 H 0.64987 0.71327 0.49431 0.0
H421 H 0.78266 0.69104 0.39605 0.0
H422 H 0.77282 0.69129 0.43731 0.0
H423 H 0.72774 0.80578 0.43332 0.0
H424 H 0.73747 0.80585 0.39223 0.0
H425 H 0.71055 0.70414 0.46687 0.0
H426 H 0.76973 0.85665 0.47629 0.0
H427 H 0.81143 0.90097 0.45553 0.0
H428 H 0.87132 0.80586 0.42643 0.0
H429 H 0.83044 0.76102 0.44733 0.0
C430 C 0.71249 0.77356 0.5718 0.0
C431 C 0.74662 0.77101 0.58414 0.0
C432 C 0.71212 0.76768 0.54821 0.0
C433 C 0.74589 0.75932 0.53662 0.0
C434 C 0.77979 0.75611 0.54898 0.0
C435 C 0.78013 0.76165 0.57249 0.0
C436 C 0.7465 0.75551 0.51149 0.0
C437 C 0.76922 0.78081 0.49908 0.0
C438 C 0.7252 0.72738 0.49979 0.0
C439 C 0.7019 0.69894 0.51206 0.0
C440 C 0.71833 0.6751 0.52864 0.0
C441 C 0.69616 0.64846 0.54023 0.0
C442 C 0.65755 0.64521 0.53526 0.0
C443 C 0.64106 0.66853 0.51866 0.0
C444 C 0.66311 0.69525 0.50704 0.0
C445 C 0.77008 0.71602 0.40391 0.0
C446 C 0.7613 0.7486 0.39091 0.0
C447 C 0.76434 0.71605 0.42746 0.0
C448 C 0.74997 0.74871 0.43836 0.0
C449 C 0.73921 0.78043 0.42525 0.0
C450 C 0.74483 0.7804 0.40176 0.0
C451 C 0.74945 0.7511 0.46354 0.0
C452 C 0.72684 0.72563 0.47591 0.0
C453 C 0.7712 0.7788 0.4753 0.0
C454 C 0.79675 0.80551 0.4632 0.0
C455 C 0.79194 0.84522 0.46557 0.0
C456 C 0.81542 0.87042 0.45376 0.0
C457 C 0.84392 0.85624 0.43961 0.0
C458 C 0.84916 0.81681 0.43734 0.0
C459 C 0.82583 0.79149 0.44915 0.0
H460 H 0.86198 0.87579 0.43043 0.0
H461 H 0.64043 0.62456 0.54424 0.0
H462 H 0.77544 0.27527 0.89877 0.0
H463 H 0.77567 0.26239 0.93984 0.0
H464 H 0.65432 0.24856 0.93829 0.0
H465 H 0.65382 0.26097 0.89749 0.0
H466 H 0.67811 0.29774 0.97212 0.0
H467 H 0.70714 0.17225 0.94387 0.0
H468 H 0.74302 0.12448 0.92177 0.0
H469 H 0.84356 0.15035 0.9601 0.0
H470 H 0.80839 0.19871 0.98223 0.0
H471 H 0.67798 0.18143 0.08217 0.0
H472 H 0.68533 0.18252 0.04067 0.0
H473 H 0.74034 0.29218 0.04537 0.0
H474 H 0.73335 0.29132 0.08662 0.0
H475 H 0.748 0.19198 0.00993 0.0
H476 H 0.69775 0.34885 0.00461 0.0
H477 H 0.65945 0.39458 0.02686 0.0
H478 H 0.5957 0.30186 0.05516 0.0
H479 H 0.6331 0.25567 0.03277 0.0
C480 C 0.74889 0.26915 0.90717 0.0
C481 C 0.71463 0.26922 0.89488 0.0
C482 C 0.74907 0.26173 0.9306 0.0
C483 C 0.71498 0.25453 0.94208 0.0
C484 C 0.6809 0.25414 0.92977 0.0
C485 C 0.68073 0.26114 0.90641 0.0
C486 C 0.71437 0.24882 0.96708 0.0
C487 C 0.69348 0.27467 0.98036 0.0
C488 C 0.73402 0.21844 0.9778 0.0
C489 C 0.75523 0.18939 0.96454 0.0
C490 C 0.73699 0.16801 0.94745 0.0
C491 C 0.75718 0.14077 0.93495 0.0
C492 C 0.79557 0.13446 0.93949 0.0
C493 C 0.81383 0.15531 0.95658 0.0
C494 C 0.79378 0.18262 0.96912 0.0
C495 C 0.69228 0.20541 0.07439 0.0
C496 C 0.70466 0.23649 0.08766 0.0
C497 C 0.69653 0.20594 0.0507 0.0
C498 C 0.71294 0.23766 0.03999 0.0
C499 C 0.72726 0.26763 0.05332 0.0
C500 C 0.7232 0.26705 0.0769 0.0
C501 C 0.71224 0.24123 0.01488 0.0
C502 C 0.73282 0.21511 0.00162 0.0
C503 C 0.69195 0.27115 0.00409 0.0
C504 C 0.66855 0.29878 0.01719 0.0
C505 C 0.67543 0.33824 0.01549 0.0
C506 C 0.65387 0.36424 0.02813 0.0
C507 C 0.62525 0.35112 0.04248 0.0
C508 C 0.61797 0.31198 0.04411 0.0
C509 C 0.63935 0.28588 0.03145 0.0
H510 H 0.60868 0.37128 0.0523 0.0
H511 H 0.81115 0.11335 0.92979 0.0
H512 H 0.57329 0.2211 0.21351 0.0
H513 H 0.51683 0.21665 0.2375 0.0
H514 H 0.45364 0.17055 0.18083 0.0
H515 H 0.5098 0.17342 0.15724 0.0
H516 H 0.45359 0.25258 0.23485 0.0
H517 H 0.38094 0.11715 0.19654 0.0
H518 H 0.39922 0.0538 0.18165 0.0
H519 H 0.50264 0.05772 0.22028 0.0
H520 H 0.48476 0.12084 0.23564 0.0
H521 H 0.25862 0.26088 0.2621 0.0
H522 H 0.31926 0.25599 0.24212 0.0
H523 H 0.3429 0.14973 0.27672 0.0
H524 H 0.28164 0.15343 0.29553 0.0
H525 H 0.36649 0.14167 0.23744 0.0
H526 H 0.38373 0.24128 0.29208 0.0
H527 H 0.36981 0.30176 0.31203 0.0
H528 H 0.38518 0.36405 0.24989 0.0
H529 H 0.39873 0.30386 0.2295 0.0
C530 C 0.54762 0.20912 0.20634 0.0
C531 C 0.54627 0.19756 0.18341 0.0
C532 C 0.51522 0.20688 0.22003 0.0
C533 C 0.48082 0.19308 0.21109 0.0
C534 C 0.47983 0.18056 0.1884 0.0
C535 C 0.51216 0.18238 0.17483 0.0
C536 C 0.44533 0.1939 0.22482 0.0
C537 C 0.43468 0.22821 0.23553 0.0
C538 C 0.42076 0.16202 0.22615 0.0
C539 C 0.43163 0.12391 0.21709 0.0
C540 C 0.40751 0.10443 0.20193 0.0
C541 C 0.41782 0.06857 0.19339 0.0
C542 C 0.45212 0.0518 0.19996 0.0
C543 C 0.47614 0.07081 0.21514 0.0
C544 C 0.46596 0.10665 0.22374 0.0
C545 C 0.27665 0.23633 0.26523 0.0
C546 C 0.2653 0.20753 0.28037 0.0
C547 C 0.31154 0.2337 0.25398 0.0
C548 C 0.33631 0.20285 0.2582 0.0
C549 C 0.32453 0.17383 0.27306 0.0
C550 C 0.28939 0.17599 0.28385 0.0
C551 C 0.37442 0.20053 0.24724 0.0
C552 C 0.38549 0.16597 0.23694 0.0
C553 C 0.39997 0.23176 0.24702 0.0
C554 C 0.3919 0.26802 0.25923 0.0
C555 C 0.3839 0.26785 0.28264 0.0
C556 C 0.37611 0.30208 0.29403 0.0
C557 C 0.37652 0.33671 0.28222 0.0
C558 C 0.38482 0.33719 0.259 0.0
C559 C 0.39259 0.30304 0.24753 0.0
H560 H 0.37048 0.36318 0.29107 0.0
H561 H 0.46005 0.02404 0.19332 0.0
H562 H 0.32536 0.78887 0.79625 0.0
H563 H 0.33022 0.85095 0.77759 0.0
H564 H 0.21783 0.83667 0.74968 0.0
H565 H 0.21225 0.77521 0.76917 0.0
H566 H 0.33162 0.87508 0.73721 0.0
H567 H 0.17289 0.92029 0.74334 0.0
H568 H 0.11873 0.91129 0.76917 0.0
H569 H 0.19515 0.88988 0.82474 0.0
H570 H 0.24975 0.89927 0.79933 0.0
H571 H 0.28822 0.01612 0.65718 0.0
H572 H 0.29496 0.96158 0.68216 0.0
H573 H 0.26496 0.0319 0.73976 0.0
H574 H 0.25609 0.08679 0.71437 0.0
H575 H 0.2279 0.97053 0.74278 0.0
H576 H 0.35844 -0.00685 0.73094 0.0
H577 H 0.41718 0.00613 0.70977 0.0
H578 H 0.40543 0.89969 0.67398 0.0
H579 H 0.34637 0.88626 0.69473 0.0
C580 C 0.30171 0.79887 0.78607 0.0
C581 C 0.26833 0.77717 0.78428 0.0
C582 C 0.30453 0.83445 0.77538 0.0
C583 C 0.27417 0.84904 0.76251 0.0
C584 C 0.24132 0.82667 0.76 0.0
C585 C 0.23825 0.79133 0.77099 0.0
C586 C 0.27696 0.88748 0.75166 0.0
C587 C 0.30897 0.89598 0.7385 0.0
C588 C 0.24811 0.91549 0.75391 0.0
C589 C 0.2154 0.91014 0.76936 0.0
C590 C 0.17814 0.91382 0.76109 0.0
C591 C 0.14736 0.90862 0.77566 0.0
C592 C 0.1535 0.89991 0.79857 0.0
C593 C 0.19043 0.8965 0.80698 0.0
C594 C 0.2213 0.90171 0.79249 0.0
C595 C 0.28367 0.02043 0.67521 0.0
C596 C 0.27155 0.05607 0.6837 0.0
C597 C 0.28781 -0.011 0.68959 0.0
C598 C 0.281 -0.00757 0.71301 0.0
C599 C 0.27039 0.02838 0.72176 0.0
C600 C 0.26559 0.05987 0.70725 0.0
C601 C 0.28212 0.95775 0.72779 0.0
C602 C 0.25078 0.94986 0.74167 0.0
C603 C 0.31226 0.9309 0.72687 0.0
C604 C 0.34782 0.93882 0.71432 0.0
C605 C 0.36824 0.97262 0.71845 0.0
C606 C 0.40163 0.98004 0.70654 0.0
C607 C 0.415 0.95378 0.69052 0.0
C608 C 0.39504 0.92001 0.6864 0.0
C609 C 0.36164 0.91244 0.69827 0.0
H610 H 0.44084 0.95959 0.68131 0.0
H611 H 0.12964 0.89587 0.80981 0.0
H612 H 0.71065 0.82268 0.26583 0.0
H613 H 0.64936 0.82663 0.24636 0.0
H614 H 0.6249 0.71048 0.26605 0.0
H615 H 0.68674 0.70589 0.2846 0.0
H616 H 0.60067 0.72001 0.22563 0.0
H617 H 0.58732 0.79282 0.29431 0.0
H618 H 0.60341 0.84278 0.32235 0.0
H619 H 0.58529 0.92952 0.27184 0.0
H620 H 0.56956 0.88001 0.2434 0.0
H621 H 0.40245 0.72406 0.20912 0.0
H622 H 0.46181 0.727 0.23065 0.0
H623 H 0.49407 0.82823 0.19387 0.0
H624 H 0.43502 0.82516 0.1719 0.0
H625 H 0.51346 0.82777 0.24261 0.0
H626 H 0.5241 0.75115 0.17448 0.0
H627 H 0.50617 0.69908 0.14829 0.0
H628 H 0.52823 0.61644 0.20066 0.0
H629 H 0.54496 0.66807 0.22738 0.0
C630 C 0.69235 0.79786 0.26578 0.0
C631 C 0.70353 0.764 0.2768 0.0
C632 C 0.65712 0.80026 0.25483 0.0
C633 C 0.63194 0.76916 0.25514 0.0
C634 C 0.64363 0.73497 0.26559 0.0
C635 C 0.67907 0.73235 0.2762 0.0
C636 C 0.59337 0.7721 0.24477 0.0
C637 C 0.58152 0.74336 0.22964 0.0
C638 C 0.56833 0.80285 0.24961 0.0
C639 C 0.57765 0.83269 0.26668 0.0
C640 C 0.58703 0.82253 0.28914 0.0
C641 C 0.59604 0.85077 0.30511 0.0
C642 C 0.59547 0.88929 0.29886 0.0
C643 C 0.58578 0.89967 0.27664 0.0
C644 C 0.57678 0.87153 0.2606 0.0
C645 C 0.4216 0.74762 0.20603 0.0
C646 C 0.41406 0.77429 0.18869 0.0
C647 C 0.45565 0.74909 0.21827 0.0
C648 C 0.4825 0.77754 0.21363 0.0
C649 C 0.47374 0.80599 0.19765 0.0
C650 C 0.43998 0.80419 0.18513 0.0
C651 C 0.52098 0.77552 0.22383 0.0
C652 C 0.53275 0.80446 0.23877 0.0
C653 C 0.54574 0.74463 0.21913 0.0
C654 C 0.5353 0.71357 0.20305 0.0
C655 C 0.52455 0.72193 0.18053 0.0
C656 C 0.51461 0.69247 0.16557 0.0
C657 C 0.51584 0.65448 0.17282 0.0
C658 C 0.52699 0.64587 0.19507 0.0
C659 C 0.53664 0.67523 0.21015 0.0
H660 H 0.50839 0.63173 0.16116 0.0
H661 H 0.60246 0.91111 0.31125 0.0
H662 H 0.75819 0.18031 0.79412 0.0
H663 H 0.75415 0.1184 0.77512 0.0
H664 H 0.64467 0.14931 0.74768 0.0
H665 H 0.64784 0.21066 0.7677 0.0
H666 H 0.64071 0.08048 0.76091 0.0
H667 H 0.73076 0.14673 0.71531 0.0
H668 H 0.78824 0.18359 0.70632 0.0
H669 H 0.85792 0.09274 0.73235 0.0
H670 H 0.80082 0.05556 0.74185 0.0
H671 H 0.6435 0.93879 0.6715 0.0
H672 H 0.64095 -0.00387 0.69534 0.0
H673 H 0.736 0.95474 0.73452 0.0
H674 H 0.73857 0.89715 0.71095 0.0
H675 H 0.74675 0.02768 0.71547 0.0
H676 H 0.653 0.96114 0.75942 0.0
H677 H 0.59391 0.92496 0.76504 0.0
H678 H 0.52932 0.01846 0.73765 0.0
H679 H 0.5881 0.05503 0.73158 0.0
C680 C 0.73339 0.17406 0.78388 0.0
C681 C 0.70342 0.20048 0.78231 0.0
C682 C 0.73115 0.13863 0.77291 0.0
C683 C 0.69936 0.12917 0.75956 0.0
C684 C 0.66952 0.15576 0.75783 0.0
C685 C 0.67143 0.19094 0.76919 0.0
C686 C 0.6968 0.09123 0.74797 0.0
C687 C 0.66377 0.06928 0.75072 0.0
C688 C 0.72704 0.07599 0.73493 0.0
C689 C 0.76145 0.09853 0.72953 0.0
C690 C 0.75832 0.13476 0.71933 0.0
C691 C 0.79084 0.15569 0.71411 0.0
C692 C 0.8267 0.14057 0.71882 0.0
C693 C 0.83011 0.10446 0.72875 0.0
C694 C 0.79768 0.08344 0.73406 0.0
C695 C 0.66319 0.94133 0.68559 0.0
C696 C 0.69134 0.91338 0.68923 0.0
C697 C 0.66171 0.97418 0.69919 0.0
C698 C 0.68846 0.97981 0.7166 0.0
C699 C 0.71517 0.95099 0.72113 0.0
C700 C 0.71638 0.91792 0.70772 0.0
C701 C 0.6909 0.01721 0.72855 0.0
C702 C 0.72386 0.03902 0.72576 0.0
C703 C 0.66038 0.03258 0.74112 0.0
C704 C 0.625 0.01068 0.74485 0.0
C705 C 0.62623 0.97387 0.75441 0.0
C706 C 0.59278 0.95331 0.75772 0.0
C707 C 0.55789 0.96936 0.75166 0.0
C708 C 0.55637 0.00605 0.74232 0.0
C709 C 0.58974 0.02672 0.73897 0.0
H710 H 0.53203 0.9534 0.75423 0.0
H711 H 0.85184 0.15678 0.71473 0.0
H712 H 0.01245 0.29702 0.32517 0.0
H713 H 0.95402 0.29793 0.30316 0.0
H714 H 0.01028 0.23993 0.24793 0.0
H715 H 0.06901 0.23783 0.27029 0.0
H716 H 0.92904 0.32603 0.26627 0.0
H717 H 0.94814 0.17777 0.22228 0.0
H718 H 0.97941 0.11581 0.22971 0.0
H719 H 0.97747 0.13834 0.3015 0.0
H720 H 0.94571 0.20014 0.29453 0.0
H721 H 0.7838 0.30935 0.18488 0.0
H722 H 0.84405 0.31123 0.20519 0.0
H723 H 0.81153 0.21164 0.24372 0.0
H724 H 0.75205 0.20821 0.22211 0.0
H725 H 0.88011 0.20379 0.23514 0.0
H726 H 0.81144 0.30871 0.26585 0.0
H727 H 0.77334 0.36792 0.26575 0.0
H728 H 0.86399 0.42782 0.23296 0.0
H729 H 0.90246 0.36883 0.2326 0.0
C730 C 0.01272 0.28486 0.30821 0.0
C731 C 0.0455 0.26702 0.29962 0.0
C732 C 0.97913 0.28546 0.2956 0.0
C733 C 0.97737 0.26835 0.27402 0.0
C734 C 0.01065 0.25261 0.26474 0.0
C735 C 0.04437 0.25181 0.27745 0.0
C736 C 0.94032 0.26596 0.2618 0.0
C737 C 0.91846 0.29931 0.25936 0.0
C738 C 0.92568 0.23089 0.2535 0.0
C739 C 0.945 0.19383 0.25783 0.0
C740 C 0.95436 0.16948 0.23964 0.0
C741 C 0.97214 0.13438 0.24378 0.0
C742 C 0.98054 0.12321 0.26606 0.0
C743 C 0.9711 0.1471 0.28425 0.0
C744 C 0.95326 0.18219 0.28021 0.0
C745 C 0.78936 0.288 0.1978 0.0
C746 C 0.76302 0.25885 0.20208 0.0
C747 C 0.82386 0.28919 0.20953 0.0
C748 C 0.83233 0.26211 0.22647 0.0
C749 C 0.80588 0.23295 0.23079 0.0
C750 C 0.77174 0.23112 0.21855 0.0
C751 C 0.8689 0.26402 0.23936 0.0
C752 C 0.89072 0.23058 0.24192 0.0
C753 C 0.88268 0.29867 0.24881 0.0
C754 C 0.85968 0.33425 0.24901 0.0
C755 C 0.82314 0.33445 0.25848 0.0
C756 C 0.8015 0.36798 0.25853 0.0
C757 C 0.8162 0.40158 0.2493 0.0
C758 C 0.85262 0.40176 0.24007 0.0
C759 C 0.87437 0.36829 0.23996 0.0
H760 H 0.79939 0.42751 0.24935 0.0
H761 H -0.00574 0.09601 0.26923 0.0
H762 H 0.15506 0.26748 0.71327 0.0
H763 H 0.15331 0.32947 0.7325 0.0
H764 H 0.26672 0.3531 0.7093 0.0
H765 H 0.26916 0.29042 0.6909 0.0
H766 H 0.2606 0.37888 0.7499 0.0
H767 H 0.18432 0.39194 0.68315 0.0
H768 H 0.13364 0.37565 0.65585 0.0
H769 H 0.04995 0.39284 0.7077 0.0
H770 H 0.1002 0.40876 0.73541 0.0
H771 H 0.25095 0.57773 0.7728 0.0
H772 H 0.25033 0.51979 0.74936 0.0
H773 H 0.15081 0.48043 0.78447 0.0
H774 H 0.15145 0.53801 0.80816 0.0
H775 H 0.15096 0.46509 0.73623 0.0
H776 H 0.23103 0.45037 0.80293 0.0
H777 H 0.28338 0.46912 0.8285 0.0
H778 H 0.3624 0.45804 0.77353 0.0
H779 H 0.31039 0.43986 0.74752 0.0
C780 C 0.17976 0.28573 0.71247 0.0
C781 C 0.21219 0.27407 0.70048 0.0
C782 C 0.17863 0.32137 0.7233 0.0
C783 C 0.20953 0.34657 0.72192 0.0
C784 C 0.24241 0.3344 0.71057 0.0
C785 C 0.24378 0.29849 0.70004 0.0
C786 C 0.20747 0.38566 0.7321 0.0
C787 C 0.23685 0.39784 0.74657 0.0
C788 C 0.17638 0.4106 0.72803 0.0
C789 C 0.14606 0.4012 0.71141 0.0
C790 C 0.15513 0.392 0.68877 0.0
C791 C 0.12648 0.38286 0.67322 0.0
C792 C 0.08861 0.38312 0.68005 0.0
C793 C 0.0793 0.39261 0.70244 0.0
C794 C 0.10785 0.40173 0.71807 0.0
C795 C 0.22828 0.5573 0.77511 0.0
C796 C 0.20133 0.56242 0.79244 0.0
C797 C 0.22814 0.52406 0.7618 0.0
C798 C 0.20083 0.49561 0.76541 0.0
C799 C 0.1722 0.50199 0.78147 0.0
C800 C 0.17261 0.53493 0.79499 0.0
C801 C 0.2039 0.45787 0.75394 0.0
C802 C 0.17473 0.44604 0.73931 0.0
C803 C 0.23544 0.43352 0.75756 0.0
C804 C 0.26676 0.44412 0.77323 0.0
C805 C 0.25952 0.45225 0.79625 0.0
C806 C 0.28913 0.46273 0.81083 0.0
C807 C 0.32616 0.46482 0.80264 0.0
C808 C 0.33368 0.45645 0.77984 0.0
C809 C 0.30415 0.44604 0.76518 0.0
H810 H 0.34903 0.47274 0.81398 0.0
H811 H 0.06646 0.37604 0.66799 0.0
H812 H 0.21486 0.65469 0.21861 0.0
H813 H 0.15463 0.65151 0.23903 0.0
H814 H 0.11999 0.75828 0.20851 0.0
H815 H 0.18099 0.76264 0.18932 0.0
H816 H 0.09631 0.75936 0.24843 0.0
H817 H 0.08857 0.66398 0.18994 0.0
H818 H 0.10862 0.60733 0.16799 0.0
H819 H 0.10079 0.53794 0.22796 0.0
H820 H 0.08114 0.59429 0.25033 0.0
H821 H 0.90004 0.74172 0.26937 0.0
H822 H 0.95855 0.73782 0.24728 0.0
H823 H 0.00294 0.65393 0.29399 0.0
H824 H 0.94472 0.65796 0.31639 0.0
H825 H 0.02025 0.64028 0.24603 0.0
H826 H 0.0264 0.73979 0.30358 0.0
H827 H 0.00213 0.79735 0.32302 0.0
H828 H 0.00886 0.86062 0.26065 0.0
H829 H 0.03257 0.80321 0.24075 0.0
C830 C 0.19448 0.67761 0.21646 0.0
C831 C 0.20264 0.70888 0.20235 0.0
C832 C 0.15983 0.67562 0.22796 0.0
C833 C 0.13207 0.70418 0.22495 0.0
C834 C 0.14067 0.73579 0.21118 0.0
C835 C 0.17564 0.73827 0.20017 0.0
C836 C 0.09409 0.7013 0.236 0.0
C837 C 0.07963 0.73339 0.24756 0.0
C838 C 0.07208 0.66738 0.23527 0.0
C839 C 0.08375 0.63342 0.22185 0.0
C840 C 0.09136 0.63668 0.19847 0.0
C841 C 0.10262 0.60463 0.18595 0.0
C842 C 0.10607 0.56908 0.19658 0.0
C843 C 0.09816 0.5655 0.21975 0.0
C844 C 0.08693 0.59748 0.23236 0.0
C845 C 0.92177 0.72164 0.27463 0.0
C846 C 0.91776 0.70031 0.29474 0.0
C847 C 0.9553 0.71964 0.26204 0.0
C848 C -0.01477 0.69596 0.26919 0.0
C849 C 0.98021 0.67245 0.28824 0.0
C850 C 0.9469 0.67481 0.30101 0.0
C851 C 0.02286 0.69827 0.25809 0.0
C852 C 0.03714 0.66614 0.24669 0.0
C853 C 0.04438 0.73234 0.25854 0.0
C854 C 0.03091 0.76709 0.27063 0.0
C855 C 0.02245 0.7659 0.29398 0.0
C856 C 0.00882 0.7985 0.30508 0.0
C857 C 0.00386 0.8326 0.29307 0.0
C858 C 0.01266 0.83418 0.26993 0.0
C859 C 0.02621 0.80162 0.25873 0.0
H860 H -0.0067 0.8578 0.30169 0.0
H861 H 0.1148 0.5443 0.18686 0.0
H862 H 0.82334 0.43145 0.80425 0.0
H863 H 0.82874 0.48872 0.78066 0.0
H864 H 0.72032 0.46376 0.74991 0.0
H865 H 0.71596 0.40545 0.77243 0.0
H866 H 0.76038 0.49532 0.71977 0.0
H867 H 0.73349 0.5278 0.79745 0.0
H868 H 0.7439 0.5288 0.83895 0.0
H869 H 0.85124 0.58395 0.82944 0.0
H870 H 0.84166 0.58284 0.78784 0.0
H871 H 0.70363 0.68477 0.69114 0.0
H872 H 0.7089 0.62285 0.71023 0.0
H873 H 0.82664 0.64491 0.72485 0.0
H874 H 0.82171 0.70686 0.7056 0.0
H875 H 0.78565 0.61539 0.76219 0.0
H876 H 0.80612 0.58644 0.68289 0.0
H877 H 0.78969 0.5874 0.64209 0.0
H878 H 0.68627 0.52752 0.65593 0.0
H879 H 0.70184 0.52668 0.69688 0.0
C880 C 0.80115 0.43769 0.79202 0.0
C881 C 0.76916 0.41398 0.79029 0.0
C882 C 0.80402 0.47072 0.77871 0.0
C883 C 0.77434 0.48146 0.76399 0.0
C884 C 0.74355 0.45644 0.7612 0.0
C885 C 0.74112 0.42293 0.77408 0.0
C886 C 0.77413 0.51956 0.75251 0.0
C887 C 0.76561 0.52151 0.72916 0.0
C888 C 0.78128 0.55403 0.76455 0.0
C889 C 0.78705 0.55485 0.78954 0.0
C890 C 0.75942 0.53991 0.80421 0.0
C891 C 0.76516 0.54053 0.82775 0.0
C892 C 0.79826 0.55633 0.83683 0.0
C893 C 0.82565 0.57165 0.82239 0.0
C894 C 0.82007 0.57106 0.79883 0.0
C895 C 0.73061 0.6766 0.69853 0.0
C896 C 0.76228 0.70075 0.69682 0.0
C897 C 0.73361 0.64109 0.70933 0.0
C898 C 0.76827 0.62908 0.71874 0.0
C899 C 0.79967 0.65356 0.71763 0.0
C900 C 0.79679 0.68894 0.70662 0.0
C901 C 0.77171 0.59091 0.72966 0.0
C902 C 0.78074 0.58906 0.75287 0.0
C903 C 0.76418 0.55667 0.71762 0.0
C904 C 0.75501 0.55677 0.69297 0.0
C905 C 0.77975 0.57371 0.67725 0.0
C906 C 0.77061 0.57419 0.6541 0.0
C907 C 0.73692 0.5576 0.64643 0.0
C908 C 0.71235 0.54038 0.6619 0.0
C909 C 0.72134 0.53986 0.68508 0.0
H910 H 0.72988 0.55802 0.6285 0.0
H911 H 0.80265 0.55678 0.85505 0.0
loop_
_geom_bond_atom_site_label_1
_geom_bond_atom_site_label_2
_geom_bond_distance
_geom_bond_site_symmetry_2
_ccdc_geom_bond_type
C0 O1 1.306 . S
C0 O3 1.160 . S
O1 C0 1.306 . S
O1 Cd2 2.228 . S
Cd2 O1 2.228 . S
Cd2 O6 2.273 . S
Cd2 O10 2.277 . S
O3 C0 1.160 . S
O3 Cd4 2.203 . S
Cd4 O3 2.203 . S
Cd4 O6 2.411 . S
Cd4 O7 2.333 . S
Cd4 O8 2.352 . S
Cd4 O12 2.277 . S
Cd4 O13 2.356 . S
C5 O10 1.209 . S
C5 O12 1.226 . S
O6 Cd2 2.273 . S
O6 Cd4 2.411 . S
O6 C9 1.320 . S
O7 Cd4 2.333 . S
O7 C9 1.214 . S
O8 Cd4 2.352 . S
O8 C11 1.258 . S
C9 O6 1.320 . S
C9 O7 1.214 . S
O10 Cd2 2.277 . S
O10 C5 1.209 . S
C11 O8 1.258 . S
C11 O13 1.282 . S
O12 Cd4 2.277 . S
O12 C5 1.226 . S
O13 Cd4 2.356 . S
O13 C11 1.282 . S
C14 O15 1.306 . S
C14 O17 1.160 . S
O15 C14 1.306 . S
O15 Cd16 2.228 . S
Cd16 O15 2.228 . S
Cd16 O20 2.273 . S
Cd16 O24 2.277 . S
O17 C14 1.160 . S
O17 Cd18 2.203 . S
Cd18 O17 2.203 . S
Cd18 O20 2.411 . S
Cd18 O21 2.333 . S
Cd18 O22 2.352 . S
Cd18 O26 2.277 . S
Cd18 O27 2.356 . S
C19 O24 1.209 . S
C19 O26 1.226 . S
O20 Cd16 2.273 . S
O20 Cd18 2.411 . S
O20 C23 1.320 . S
O21 Cd18 2.333 . S
O21 C23 1.214 . S
O22 Cd18 2.352 . S
O22 C25 1.258 . S
C23 O20 1.320 . S
C23 O21 1.214 . S
O24 Cd16 2.277 . S
O24 C19 1.209 . S
C25 O22 1.258 . S
C25 O27 1.282 . S
O26 Cd18 2.277 . S
O26 C19 1.226 . S
O27 Cd18 2.356 . S
O27 C25 1.282 . S
C28 O29 1.306 . S
C28 O31 1.160 . S
O29 C28 1.306 . S
O29 Cd30 2.228 . S
Cd30 O29 2.228 . S
Cd30 O34 2.273 . S
Cd30 O38 2.277 . S
O31 C28 1.160 . S
O31 Cd32 2.203 . S
Cd32 O31 2.203 . S
Cd32 O34 2.411 . S
Cd32 O35 2.333 . S
Cd32 O36 2.352 . S
Cd32 O40 2.277 . S
Cd32 O41 2.356 . S
C33 O38 1.209 . S
C33 O40 1.226 . S
O34 Cd30 2.273 . S
O34 Cd32 2.411 . S
O34 C37 1.320 . S
O35 Cd32 2.333 . S
O35 C37 1.214 . S
O36 Cd32 2.352 . S
O36 C39 1.258 . S
C37 O34 1.320 . S
C37 O35 1.214 . S
O38 Cd30 2.277 . S
O38 C33 1.209 . S
C39 O36 1.258 . S
C39 O41 1.282 . S
O40 Cd32 2.277 . S
O40 C33 1.226 . S
O41 Cd32 2.356 . S
O41 C39 1.282 . S
C42 O43 1.306 . S
C42 O45 1.160 . S
O43 C42 1.306 . S
O43 Cd44 2.228 . S
Cd44 O43 2.228 . S
Cd44 O48 2.273 . S
Cd44 O52 2.277 . S
O45 C42 1.160 . S
O45 Cd46 2.203 . S
Cd46 O45 2.203 . S
Cd46 O48 2.411 . S
Cd46 O49 2.333 . S
Cd46 O50 2.352 . S
Cd46 O54 2.277 . S
Cd46 O55 2.356 . S
C47 O52 1.209 . S
C47 O54 1.226 . S
O48 Cd44 2.273 . S
O48 Cd46 2.411 . S
O48 C51 1.320 . S
O49 Cd46 2.333 . S
O49 C51 1.214 . S
O50 Cd46 2.352 . S
O50 C53 1.258 . S
C51 O48 1.320 . S
C51 O49 1.214 . S
O52 Cd44 2.277 . S
O52 C47 1.209 . S
C53 O50 1.258 . S
C53 O55 1.282 . S
O54 Cd46 2.277 . S
O54 C47 1.226 . S
O55 Cd46 2.356 . S
O55 C53 1.282 . S
C56 O57 1.306 . S
C56 O59 1.160 . S
O57 C56 1.306 . S
O57 Cd58 2.228 . S
Cd58 O57 2.228 . S
Cd58 O62 2.273 . S
Cd58 O66 2.277 . S
O59 C56 1.160 . S
O59 Cd60 2.203 . S
Cd60 O59 2.203 . S
Cd60 O62 2.411 . S
Cd60 O63 2.333 . S
Cd60 O64 2.352 . S
Cd60 O68 2.277 . S
Cd60 O69 2.356 . S
C61 O66 1.209 . S
C61 O68 1.226 . S
O62 Cd58 2.273 . S
O62 Cd60 2.411 . S
O62 C65 1.320 . S
O63 Cd60 2.333 . S
O63 C65 1.214 . S
O64 Cd60 2.352 . S
O64 C67 1.258 . S
C65 O62 1.320 . S
C65 O63 1.214 . S
O66 Cd58 2.277 . S
O66 C61 1.209 . S
C67 O64 1.258 . S
C67 O69 1.282 . S
O68 Cd60 2.277 . S
O68 C61 1.226 . S
O69 Cd60 2.356 . S
O69 C67 1.282 . S
C70 O71 1.306 . S
C70 O73 1.160 . S
O71 C70 1.306 . S
O71 Cd72 2.228 . S
Cd72 O71 2.228 . S
Cd72 O76 2.273 . S
Cd72 O80 2.277 . S
O73 C70 1.160 . S
O73 Cd74 2.203 . S
Cd74 O73 2.203 . S
Cd74 O76 2.411 . S
Cd74 O77 2.333 . S
Cd74 O78 2.352 . S
Cd74 O82 2.277 . S
Cd74 O83 2.356 . S
C75 O80 1.209 . S
C75 O82 1.226 . S
O76 Cd72 2.273 . S
O76 Cd74 2.411 . S
O76 C79 1.320 . S
O77 Cd74 2.333 . S
O77 C79 1.214 . S
O78 Cd74 2.352 . S
O78 C81 1.258 . S
C79 O76 1.320 . S
C79 O77 1.214 . S
O80 Cd72 2.277 . S
O80 C75 1.209 . S
C81 O78 1.258 . S
C81 O83 1.282 . S
O82 Cd74 2.277 . S
O82 C75 1.226 . S
O83 Cd74 2.356 . S
O83 C81 1.282 . S
C84 O85 1.306 . S
C84 O87 1.160 . S
O85 C84 1.306 . S
O85 Cd86 2.228 . S
Cd86 O85 2.228 . S
Cd86 O90 2.273 . S
Cd86 O94 2.277 . S
O87 C84 1.160 . S
O87 Cd88 2.203 . S
Cd88 O87 2.203 . S
Cd88 O90 2.411 . S
Cd88 O91 2.333 . S
Cd88 O92 2.352 . S
Cd88 O96 2.277 . S
Cd88 O97 2.356 . S
C89 O94 1.209 . S
C89 O96 1.226 . S
O90 Cd86 2.273 . S
O90 Cd88 2.411 . S
O90 C93 1.320 . S
O91 Cd88 2.333 . S
O91 C93 1.214 . S
O92 Cd88 2.352 . S
O92 C95 1.258 . S
C93 O90 1.320 . S
C93 O91 1.214 . S
O94 Cd86 2.277 . S
O94 C89 1.209 . S
C95 O92 1.258 . S
C95 O97 1.282 . S
O96 Cd88 2.277 . S
O96 C89 1.226 . S
O97 Cd88 2.356 . S
O97 C95 1.282 . S
C98 O99 1.306 . S
C98 O101 1.160 . S
O99 C98 1.306 . S
O99 Cd100 2.228 . S
Cd100 O99 2.228 . S
Cd100 O104 2.273 . S
Cd100 O108 2.277 . S
O101 C98 1.160 . S
O101 Cd102 2.203 . S
Cd102 O101 2.203 . S
Cd102 O104 2.411 . S
Cd102 O105 2.333 . S
Cd102 O106 2.352 . S
Cd102 O110 2.277 . S
Cd102 O111 2.356 . S
C103 O108 1.209 . S
C103 O110 1.226 . S
O104 Cd100 2.273 . S
O104 Cd102 2.411 . S
O104 C107 1.320 . S
O105 Cd102 2.333 . S
O105 C107 1.214 . S
O106 Cd102 2.352 . S
O106 C109 1.258 . S
C107 O104 1.320 . S
C107 O105 1.214 . S
O108 Cd100 2.277 . S
O108 C103 1.209 . S
C109 O106 1.258 . S
C109 O111 1.282 . S
O110 Cd102 2.277 . S
O110 C103 1.226 . S
O111 Cd102 2.356 . S
O111 C109 1.282 . S
H112 C130 0.951 . S
H113 C132 0.951 . S
H114 C134 0.950 . S
H115 C135 0.950 . S
H116 C137 0.950 . S
H117 C140 0.950 . S
H118 C141 0.950 . S
H119 C143 0.950 . S
H120 C144 0.950 1_655 S
H121 C145 0.951 . S
H122 C147 0.951 . S
H123 C149 0.950 . S
H124 C150 0.950 . S
H125 C152 0.950 . S
H126 C155 0.950 . S
H127 C156 0.950 . S
H128 C158 0.950 . S
H129 C159 0.950 1_455 S
C130 H112 0.951 . S
C130 C131 1.366 . S
C130 C132 1.388 . S
C131 C130 1.366 . S
C131 C135 1.385 . S
C132 H113 0.951 . S
C132 C130 1.388 . S
C132 C133 1.366 . S
C133 C132 1.366 . S
C133 C134 1.414 . S
C133 C136 1.499 . S
C134 H114 0.950 . S
C134 C133 1.414 . S
C134 C135 1.374 . S
C135 H115 0.950 . S
C135 C131 1.385 . S
C135 C134 1.374 . S
C136 C133 1.499 . S
C136 C137 1.373 . S
C136 C138 1.389 . S
C137 H116 0.950 . S
C137 C136 1.373 . S
C137 C153 1.377 1_445 S
C138 C136 1.389 . S
C138 C139 1.524 . S
C138 C152 1.377 1_445 S
C139 C138 1.524 . S
C139 C140 1.397 . S
C139 C144 1.363 . S
C140 H117 0.950 . S
C140 C139 1.397 . S
C140 C141 1.334 . S
C141 H118 0.950 . S
C141 C140 1.334 . S
C141 C142 1.287 . S
C142 C141 1.287 . S
C142 C143 1.524 . S
C142 H161 0.913 . S
C143 H119 0.950 . S
C143 C142 1.524 . S
C143 C144 1.415 . S
C144 H120 0.950 1_455 S
C144 C139 1.363 . S
C144 C143 1.415 . S
C145 H121 0.951 . S
C145 C146 1.366 . S
C145 C147 1.388 . S
C146 C145 1.366 . S
C146 C150 1.385 . S
C147 H122 0.951 . S
C147 C145 1.388 . S
C147 C148 1.366 . S
C148 C147 1.366 . S
C148 C149 1.414 . S
C148 C151 1.499 . S
C149 H123 0.950 . S
C149 C148 1.414 . S
C149 C150 1.374 . S
C150 H124 0.950 . S
C150 C146 1.385 . S
C150 C149 1.374 . S
C151 C148 1.499 . S
C151 C152 1.373 . S
C151 C153 1.389 . S
C152 H125 0.950 . S
C152 C138 1.377 1_665 S
C152 C151 1.373 . S
C153 C137 1.377 1_665 S
C153 C151 1.389 . S
C153 C154 1.524 . S
C154 C153 1.524 . S
C154 C155 1.397 . S
C154 C159 1.363 . S
C155 H126 0.950 . S
C155 C154 1.397 . S
C155 C156 1.334 . S
C156 H127 0.950 . S
C156 C155 1.334 . S
C156 C157 1.287 . S
C157 C156 1.287 . S
C157 C158 1.524 . S
C157 H160 0.999 . S
C158 H128 0.950 . S
C158 C157 1.524 . S
C158 C159 1.415 . S
C159 H129 0.950 1_655 S
C159 C154 1.363 . S
C159 C158 1.415 . S
H160 C157 0.999 . S
H161 C142 0.913 . S
H162 C180 0.951 . S
H163 C182 0.951 . S
H164 C184 0.950 . S
H165 C185 0.950 . S
H166 C187 0.950 . S
H167 C190 0.950 . S
H168 C191 0.950 . S
H169 C193 0.950 . S
H170 C194 0.950 . S
H171 C195 0.951 . S
H172 C197 0.951 . S
H173 C199 0.950 . S
H174 C200 0.950 . S
H175 C202 0.950 . S
H176 C205 0.950 . S
H177 C206 0.950 . S
H178 C208 0.950 . S
H179 C209 0.950 . S
C180 H162 0.951 . S
C180 C181 1.366 . S
C180 C182 1.388 . S
C181 C180 1.366 . S
C181 C185 1.385 . S
C182 H163 0.951 . S
C182 C180 1.388 . S
C182 C183 1.366 . S
C183 C182 1.366 . S
C183 C184 1.414 . S
C183 C186 1.499 . S
C184 H164 0.950 . S
C184 C183 1.414 . S
C184 C185 1.374 . S
C185 H165 0.950 . S
C185 C181 1.385 . S
C185 C184 1.374 . S
C186 C183 1.499 . S
C186 C187 1.373 . S
C186 C188 1.389 . S
C187 H166 0.950 . S
C187 C186 1.373 . S
C187 C203 1.377 . S
C188 C186 1.389 . S
C188 C189 1.524 . S
C188 C202 1.377 . S
C189 C188 1.524 . S
C189 C190 1.397 . S
C189 C194 1.363 . S
C190 H167 0.950 . S
C190 C189 1.397 . S
C190 C191 1.334 . S
C191 H168 0.950 . S
C191 C190 1.334 . S
C191 C192 1.287 . S
C192 C191 1.287 . S
C192 C193 1.524 . S
C192 H211 0.913 . S
C193 H169 0.950 . S
C193 C192 1.524 . S
C193 C194 1.415 . S
C194 H170 0.950 . S
C194 C189 1.363 . S
C194 C193 1.415 . S
C195 H171 0.951 . S
C195 C196 1.366 . S
C195 C197 1.388 . S
C196 C195 1.366 . S
C196 C200 1.385 . S
C197 H172 0.951 . S
C197 C195 1.388 . S
C197 C198 1.366 . S
C198 C197 1.366 . S
C198 C199 1.414 . S
C198 C201 1.499 . S
C199 H173 0.950 . S
C199 C198 1.414 . S
C199 C200 1.374 . S
C200 H174 0.950 . S
C200 C196 1.385 . S
C200 C199 1.374 . S
C201 C198 1.499 . S
C201 C202 1.373 . S
C201 C203 1.389 . S
C202 H175 0.950 . S
C202 C188 1.377 . S
C202 C201 1.373 . S
C203 C187 1.377 . S
C203 C201 1.389 . S
C203 C204 1.524 . S
C204 C203 1.524 . S
C204 C205 1.397 . S
C204 C209 1.363 . S
C205 H176 0.950 . S
C205 C204 1.397 . S
C205 C206 1.334 . S
C206 H177 0.950 . S
C206 C205 1.334 . S
C206 C207 1.287 . S
C207 C206 1.287 . S
C207 C208 1.524 . S
C207 H210 0.999 . S
C208 H178 0.950 . S
C208 C207 1.524 . S
C208 C209 1.415 . S
C209 H179 0.950 . S
C209 C204 1.363 . S
C209 C208 1.415 . S
H210 C207 0.999 . S
H211 C192 0.913 . S
H212 C230 0.951 . S
H213 C232 0.951 . S
H214 C234 0.950 . S
H215 C235 0.950 . S
H216 C237 0.950 . S
H217 C240 0.950 . S
H218 C241 0.950 . S
H219 C243 0.950 . S
H220 C244 0.950 . S
H221 C245 0.951 . S
H222 C247 0.951 . S
H223 C249 0.950 . S
H224 C250 0.950 . S
H225 C252 0.950 . S
H226 C255 0.950 . S
H227 C256 0.950 . S
H228 C258 0.950 . S
H229 C259 0.950 . S
C230 H212 0.951 . S
C230 C231 1.366 . S
C230 C232 1.388 . S
C231 C230 1.366 . S
C231 C235 1.385 . S
C232 H213 0.951 . S
C232 C230 1.388 . S
C232 C233 1.366 . S
C233 C232 1.366 . S
C233 C234 1.414 . S
C233 C236 1.499 . S
C234 H214 0.950 . S
C234 C233 1.414 . S
C234 C235 1.374 . S
C235 H215 0.950 . S
C235 C231 1.385 . S
C235 C234 1.374 . S
C236 C233 1.499 . S
C236 C237 1.373 . S
C236 C238 1.389 . S
C237 H216 0.950 . S
C237 C236 1.373 . S
C237 C253 1.377 . S
C238 C236 1.389 . S
C238 C239 1.524 . S
C238 C252 1.377 . S
C239 C238 1.524 . S
C239 C240 1.397 . S
C239 C244 1.363 . S
C240 H217 0.950 . S
C240 C239 1.397 . S
C240 C241 1.334 . S
C241 H218 0.950 . S
C241 C240 1.334 . S
C241 C242 1.287 . S
C242 C241 1.287 . S
C242 C243 1.524 . S
C242 H261 0.913 . S
C243 H219 0.950 . S
C243 C242 1.524 . S
C243 C244 1.415 . S
C244 H220 0.950 . S
C244 C239 1.363 . S
C244 C243 1.415 . S
C245 H221 0.951 . S
C245 C246 1.366 . S
C245 C247 1.388 . S
C246 C245 1.366 . S
C246 C250 1.385 . S
C247 H222 0.951 . S
C247 C245 1.388 . S
C247 C248 1.366 . S
C248 C247 1.366 . S
C248 C249 1.414 . S
C248 C251 1.499 . S
C249 H223 0.950 . S
C249 C248 1.414 . S
C249 C250 1.374 . S
C250 H224 0.950 . S
C250 C246 1.385 . S
C250 C249 1.374 . S
C251 C248 1.499 . S
C251 C252 1.373 . S
C251 C253 1.389 . S
C252 H225 0.950 . S
C252 C238 1.377 . S
C252 C251 1.373 . S
C253 C237 1.377 . S
C253 C251 1.389 . S
C253 C254 1.524 . S
C254 C253 1.524 . S
C254 C255 1.397 . S
C254 C259 1.363 . S
C255 H226 0.950 . S
C255 C254 1.397 . S
C255 C256 1.334 . S
C256 H227 0.950 . S
C256 C255 1.334 . S
C256 C257 1.287 . S
C257 C256 1.287 . S
C257 C258 1.524 . S
C257 H260 0.999 . S
C258 H228 0.950 . S
C258 C257 1.524 . S
C258 C259 1.415 . S
C259 H229 0.950 . S
C259 C254 1.363 . S
C259 C258 1.415 . S
H260 C257 0.999 . S
H261 C242 0.913 . S
H262 C280 0.951 . S
H263 C282 0.951 . S
H264 C284 0.950 . S
H265 C285 0.950 . S
H266 C287 0.950 . S
H267 C290 0.950 . S
H268 C291 0.950 . S
H269 C293 0.950 . S
H270 C294 0.950 . S
H271 C295 0.951 . S
H272 C297 0.951 . S
H273 C299 0.950 . S
H274 C300 0.950 . S
H275 C302 0.950 . S
H276 C305 0.950 . S
H277 C306 0.950 . S
H278 C308 0.950 . S
H279 C309 0.950 . S
C280 H262 0.951 . S
C280 C281 1.366 . S
C280 C282 1.388 . S
C281 C280 1.366 . S
C281 C285 1.385 . S
C282 H263 0.951 . S
C282 C280 1.388 . S
C282 C283 1.366 . S
C283 C282 1.366 . S
C283 C284 1.414 . S
C283 C286 1.499 . S
C284 H264 0.950 . S
C284 C283 1.414 . S
C284 C285 1.374 . S
C285 H265 0.950 . S
C285 C281 1.385 . S
C285 C284 1.374 . S
C286 C283 1.499 . S
C286 C287 1.373 1_545 S
C286 C288 1.382 1_455 S
C287 H266 0.950 . S
C287 C286 1.373 1_565 S
C287 C303 1.383 . S
C288 C286 1.382 1_655 S
C288 C289 1.525 . S
C288 C302 1.383 . S
C289 C288 1.525 . S
C289 C290 1.397 1_655 S
C289 C294 1.363 . S
C290 H267 0.950 . S
C290 C289 1.397 1_455 S
C290 C291 1.334 . S
C291 H268 0.950 . S
C291 C290 1.334 . S
C291 C292 1.287 1_455 S
C292 C291 1.287 1_655 S
C292 C293 1.524 . S
C292 H311 0.913 . S
C293 H269 0.950 . S
C293 C292 1.524 . S
C293 C294 1.415 . S
C294 H270 0.950 . S
C294 C289 1.363 . S
C294 C293 1.415 . S
C295 H271 0.951 . S
C295 C296 1.366 . S
C295 C297 1.388 . S
C296 C295 1.366 . S
C296 C300 1.385 . S
C297 H272 0.951 . S
C297 C295 1.388 . S
C297 C298 1.366 . S
C298 C297 1.366 . S
C298 C299 1.414 . S
C298 C301 1.499 . S
C299 H273 0.950 . S
C299 C298 1.414 . S
C299 C300 1.374 . S
C300 H274 0.950 . S
C300 C296 1.385 . S
C300 C299 1.374 . S
C301 C298 1.499 . S
C301 C302 1.373 1_565 S
C301 C303 1.382 1_655 S
C302 H275 0.950 . S
C302 C288 1.383 . S
C302 C301 1.373 1_545 S
C303 C287 1.383 . S
C303 C301 1.382 1_455 S
C303 C304 1.525 . S
C304 C303 1.525 . S
C304 C305 1.397 1_455 S
C304 C309 1.363 . S
C305 H276 0.950 . S
C305 C304 1.397 1_655 S
C305 C306 1.334 . S
C306 H277 0.950 . S
C306 C305 1.334 . S
C306 C307 1.287 1_655 S
C307 C306 1.287 1_455 S
C307 C308 1.524 . S
C307 H310 0.999 . S
C308 H278 0.950 . S
C308 C307 1.524 . S
C308 C309 1.415 . S
C309 H279 0.950 . S
C309 C304 1.363 . S
C309 C308 1.415 . S
H310 C307 0.999 . S
H311 C292 0.913 . S
H312 C330 0.951 . S
H313 C332 0.951 . S
H314 C334 0.950 . S
H315 C335 0.950 . S
H316 C337 0.950 . S
H317 C340 0.950 . S
H318 C341 0.950 . S
H319 C343 0.950 . S
H320 C344 0.950 . S
H321 C345 0.951 . S
H322 C347 0.951 . S
H323 C349 0.950 . S
H324 C350 0.950 . S
H325 C352 0.950 . S
H326 C355 0.950 . S
H327 C356 0.950 . S
H328 C358 0.950 . S
H329 C359 0.950 . S
C330 H312 0.951 . S
C330 C331 1.366 . S
C330 C332 1.388 . S
C331 C330 1.366 . S
C331 C335 1.385 . S
C332 H313 0.951 . S
C332 C330 1.388 . S
C332 C333 1.366 . S
C333 C332 1.366 . S
C333 C334 1.414 . S
C333 C336 1.499 . S
C334 H314 0.950 . S
C334 C333 1.414 . S
C334 C335 1.374 . S
C335 H315 0.950 . S
C335 C331 1.385 . S
C335 C334 1.374 . S
C336 C333 1.499 . S
C336 C337 1.373 . S
C336 C338 1.389 . S
C337 H316 0.950 . S
C337 C336 1.373 . S
C337 C353 1.377 . S
C338 C336 1.389 . S
C338 C339 1.524 . S
C338 C352 1.377 . S
C339 C338 1.524 . S
C339 C340 1.397 . S
C339 C344 1.363 . S
C340 H317 0.950 . S
C340 C339 1.397 . S
C340 C341 1.334 . S
C341 H318 0.950 . S
C341 C340 1.334 . S
C341 C342 1.287 . S
C342 C341 1.287 . S
C342 C343 1.524 . S
C342 H361 0.913 . S
C343 H319 0.950 . S
C343 C342 1.524 . S
C343 C344 1.415 . S
C344 H320 0.950 . S
C344 C339 1.363 . S
C344 C343 1.415 . S
C345 H321 0.951 . S
C345 C346 1.366 . S
C345 C347 1.388 . S
C346 C345 1.366 . S
C346 C350 1.385 . S
C347 H322 0.951 . S
C347 C345 1.388 . S
C347 C348 1.366 . S
C348 C347 1.366 . S
C348 C349 1.414 . S
C348 C351 1.499 . S
C349 H323 0.950 . S
C349 C348 1.414 . S
C349 C350 1.374 . S
C350 H324 0.950 . S
C350 C346 1.385 . S
C350 C349 1.374 . S
C351 C348 1.499 . S
C351 C352 1.373 . S
C351 C353 1.389 . S
C352 H325 0.950 . S
C352 C338 1.377 . S
C352 C351 1.373 . S
C353 C337 1.377 . S
C353 C351 1.389 . S
C353 C354 1.524 . S
C354 C353 1.524 . S
C354 C355 1.397 . S
C354 C359 1.363 . S
C355 H326 0.950 . S
C355 C354 1.397 . S
C355 C356 1.334 . S
C356 H327 0.950 . S
C356 C355 1.334 . S
C356 C357 1.287 . S
C357 C356 1.287 . S
C357 C358 1.524 . S
C357 H360 0.999 . S
C358 H328 0.950 . S
C358 C357 1.524 . S
C358 C359 1.415 . S
C359 H329 0.950 . S
C359 C354 1.363 . S
C359 C358 1.415 . S
H360 C357 0.999 . S
H361 C342 0.913 . S
H362 C380 0.951 . S
H363 C382 0.951 . S
H364 C384 0.950 . S
H365 C385 0.950 . S
H366 C387 0.950 . S
H367 C390 0.950 . S
H368 C391 0.950 . S
H369 C393 0.950 . S
H370 C394 0.950 . S
H371 C395 0.951 . S
H372 C397 0.951 . S
H373 C399 0.950 . S
H374 C400 0.950 . S
H375 C402 0.950 . S
H376 C405 0.950 . S
H377 C406 0.950 . S
H378 C408 0.950 . S
H379 C409 0.950 . S
C380 H362 0.951 . S
C380 C381 1.366 . S
C380 C382 1.388 . S
C381 C380 1.366 . S
C381 C385 1.385 . S
C382 H363 0.951 . S
C382 C380 1.388 . S
C382 C383 1.366 . S
C383 C382 1.366 . S
C383 C384 1.414 . S
C383 C386 1.499 . S
C384 H364 0.950 . S
C384 C383 1.414 . S
C384 C385 1.374 . S
C385 H365 0.950 . S
C385 C381 1.385 . S
C385 C384 1.374 . S
C386 C383 1.499 . S
C386 C387 1.373 . S
C386 C388 1.389 . S
C387 H366 0.950 . S
C387 C386 1.373 . S
C387 C403 1.377 1_556 S
C388 C386 1.389 . S
C388 C389 1.524 . S
C388 C402 1.377 1_556 S
C389 C388 1.524 . S
C389 C390 1.397 . S
C389 C394 1.363 . S
C390 H367 0.950 . S
C390 C389 1.397 . S
C390 C391 1.334 . S
C391 H368 0.950 . S
C391 C390 1.334 . S
C391 C392 1.287 . S
C392 C391 1.287 . S
C392 C393 1.524 . S
C392 H411 0.913 . S
C393 H369 0.950 . S
C393 C392 1.524 . S
C393 C394 1.415 . S
C394 H370 0.950 . S
C394 C389 1.363 . S
C394 C393 1.415 . S
C395 H371 0.951 . S
C395 C396 1.366 . S
C395 C397 1.388 . S
C396 C395 1.366 . S
C396 C400 1.385 . S
C397 H372 0.951 . S
C397 C395 1.388 . S
C397 C398 1.366 . S
C398 C397 1.366 . S
C398 C399 1.414 . S
C398 C401 1.499 . S
C399 H373 0.950 . S
C399 C398 1.414 . S
C399 C400 1.374 . S
C400 H374 0.950 . S
C400 C396 1.385 . S
C400 C399 1.374 . S
C401 C398 1.499 . S
C401 C402 1.373 . S
C401 C403 1.389 . S
C402 H375 0.950 . S
C402 C388 1.377 1_554 S
C402 C401 1.373 . S
C403 C387 1.377 1_554 S
C403 C401 1.389 . S
C403 C404 1.524 . S
C404 C403 1.524 . S
C404 C405 1.397 . S
C404 C409 1.363 . S
C405 H376 0.950 . S
C405 C404 1.397 . S
C405 C406 1.334 . S
C406 H377 0.950 . S
C406 C405 1.334 . S
C406 C407 1.287 . S
C407 C406 1.287 . S
C407 C408 1.524 . S
C407 H410 0.999 . S
C408 H378 0.950 . S
C408 C407 1.524 . S
C408 C409 1.415 . S
C409 H379 0.950 . S
C409 C404 1.363 . S
C409 C408 1.415 . S
H410 C407 0.999 . S
H411 C392 0.913 . S
H412 C430 0.951 . S
H413 C432 0.951 . S
H414 C434 0.950 . S
H415 C435 0.950 . S
H416 C437 0.950 . S
H417 C440 0.950 . S
H418 C441 0.950 . S
H419 C443 0.950 . S
H420 C444 0.950 . S
H421 C445 0.951 . S
H422 C447 0.951 . S
H423 C449 0.950 . S
H424 C450 0.950 . S
H425 C452 0.950 . S
H426 C455 0.950 . S
H427 C456 0.950 . S
H428 C458 0.950 . S
H429 C459 0.950 . S
C430 H412 0.951 . S
C430 C431 1.366 . S
C430 C432 1.388 . S
C431 C430 1.366 . S
C431 C435 1.385 . S
C432 H413 0.951 . S
C432 C430 1.388 . S
C432 C433 1.366 . S
C433 C432 1.366 . S
C433 C434 1.414 . S
C433 C436 1.499 . S
C434 H414 0.950 . S
C434 C433 1.414 . S
C434 C435 1.374 . S
C435 H415 0.950 . S
C435 C431 1.385 . S
C435 C434 1.374 . S
C436 C433 1.499 . S
C436 C437 1.373 . S
C436 C438 1.389 . S
C437 H416 0.950 . S
C437 C436 1.373 . S
C437 C453 1.377 . S
C438 C436 1.389 . S
C438 C439 1.524 . S
C438 C452 1.377 . S
C439 C438 1.524 . S
C439 C440 1.397 . S
C439 C444 1.363 . S
C440 H417 0.950 . S
C440 C439 1.397 . S
C440 C441 1.334 . S
C441 H418 0.950 . S
C441 C440 1.334 . S
C441 C442 1.287 . S
C442 C441 1.287 . S
C442 C443 1.524 . S
C442 H461 0.913 . S
C443 H419 0.950 . S
C443 C442 1.524 . S
C443 C444 1.415 . S
C444 H420 0.950 . S
C444 C439 1.363 . S
C444 C443 1.415 . S
C445 H421 0.951 . S
C445 C446 1.366 . S
C445 C447 1.388 . S
C446 C445 1.366 . S
C446 C450 1.385 . S
C447 H422 0.951 . S
C447 C445 1.388 . S
C447 C448 1.366 . S
C448 C447 1.366 . S
C448 C449 1.414 . S
C448 C451 1.499 . S
C449 H423 0.950 . S
C449 C448 1.414 . S
C449 C450 1.374 . S
C450 H424 0.950 . S
C450 C446 1.385 . S
C450 C449 1.374 . S
C451 C448 1.499 . S
C451 C452 1.373 . S
C451 C453 1.389 . S
C452 H425 0.950 . S
C452 C438 1.377 . S
C452 C451 1.373 . S
C453 C437 1.377 . S
C453 C451 1.389 . S
C453 C454 1.524 . S
C454 C453 1.524 . S
C454 C455 1.397 . S
C454 C459 1.363 . S
C455 H426 0.950 . S
C455 C454 1.397 . S
C455 C456 1.334 . S
C456 H427 0.950 . S
C456 C455 1.334 . S
C456 C457 1.287 . S
C457 C456 1.287 . S
C457 C458 1.524 . S
C457 H460 0.999 . S
C458 H428 0.950 . S
C458 C457 1.524 . S
C458 C459 1.415 . S
C459 H429 0.950 . S
C459 C454 1.363 . S
C459 C458 1.415 . S
H460 C457 0.999 . S
H461 C442 0.913 . S
H462 C480 0.951 . S
H463 C482 0.951 . S
H464 C484 0.950 . S
H465 C485 0.950 . S
H466 C487 0.950 . S
H467 C490 0.950 . S
H468 C491 0.950 . S
H469 C493 0.950 . S
H470 C494 0.950 . S
H471 C495 0.951 . S
H472 C497 0.951 . S
H473 C499 0.950 . S
H474 C500 0.950 . S
H475 C502 0.950 . S
H476 C505 0.950 . S
H477 C506 0.950 . S
H478 C508 0.950 . S
H479 C509 0.950 . S
C480 H462 0.951 . S
C480 C481 1.366 . S
C480 C482 1.388 . S
C481 C480 1.366 . S
C481 C485 1.385 . S
C482 H463 0.951 . S
C482 C480 1.388 . S
C482 C483 1.366 . S
C483 C482 1.366 . S
C483 C484 1.414 . S
C483 C486 1.499 . S
C484 H464 0.950 . S
C484 C483 1.414 . S
C484 C485 1.374 . S
C485 H465 0.950 . S
C485 C481 1.385 . S
C485 C484 1.374 . S
C486 C483 1.499 . S
C486 C487 1.373 . S
C486 C488 1.389 . S
C487 H466 0.950 . S
C487 C486 1.373 . S
C487 C503 1.377 1_556 S
C488 C486 1.389 . S
C488 C489 1.524 . S
C488 C502 1.377 1_556 S
C489 C488 1.524 . S
C489 C490 1.397 . S
C489 C494 1.363 . S
C490 H467 0.950 . S
C490 C489 1.397 . S
C490 C491 1.334 . S
C491 H468 0.950 . S
C491 C490 1.334 . S
C491 C492 1.287 . S
C492 C491 1.287 . S
C492 C493 1.524 . S
C492 H511 0.913 . S
C493 H469 0.950 . S
C493 C492 1.524 . S
C493 C494 1.415 . S
C494 H470 0.950 . S
C494 C489 1.363 . S
C494 C493 1.415 . S
C495 H471 0.951 . S
C495 C496 1.366 . S
C495 C497 1.388 . S
C496 C495 1.366 . S
C496 C500 1.385 . S
C497 H472 0.951 . S
C497 C495 1.388 . S
C497 C498 1.366 . S
C498 C497 1.366 . S
C498 C499 1.414 . S
C498 C501 1.499 . S
C499 H473 0.950 . S
C499 C498 1.414 . S
C499 C500 1.374 . S
C500 H474 0.950 . S
C500 C496 1.385 . S
C500 C499 1.374 . S
C501 C498 1.499 . S
C501 C502 1.373 . S
C501 C503 1.389 . S
C502 H475 0.950 . S
C502 C488 1.377 1_554 S
C502 C501 1.373 . S
C503 C487 1.377 1_554 S
C503 C501 1.389 . S
C503 C504 1.524 . S
C504 C503 1.524 . S
C504 C505 1.397 . S
C504 C509 1.363 . S
C505 H476 0.950 . S
C505 C504 1.397 . S
C505 C506 1.334 . S
C506 H477 0.950 . S
C506 C505 1.334 . S
C506 C507 1.287 . S
C507 C506 1.287 . S
C507 C508 1.524 . S
C507 H510 0.999 . S
C508 H478 0.950 . S
C508 C507 1.524 . S
C508 C509 1.415 . S
C509 H479 0.950 . S
C509 C504 1.363 . S
C509 C508 1.415 . S
H510 C507 0.999 . S
H511 C492 0.913 . S
H512 C530 0.951 . S
H513 C532 0.951 . S
H514 C534 0.950 . S
H515 C535 0.950 . S
H516 C537 0.950 . S
H517 C540 0.950 . S
H518 C541 0.950 . S
H519 C543 0.950 . S
H520 C544 0.950 . S
H521 C545 0.951 . S
H522 C547 0.951 . S
H523 C549 0.950 . S
H524 C550 0.950 . S
H525 C552 0.950 . S
H526 C555 0.950 . S
H527 C556 0.950 . S
H528 C558 0.950 . S
H529 C559 0.950 . S
C530 H512 0.951 . S
C530 C531 1.366 . S
C530 C532 1.388 . S
C531 C530 1.366 . S
C531 C535 1.385 . S
C532 H513 0.951 . S
C532 C530 1.388 . S
C532 C533 1.366 . S
C533 C532 1.366 . S
C533 C534 1.414 . S
C533 C536 1.499 . S
C534 H514 0.950 . S
C534 C533 1.414 . S
C534 C535 1.374 . S
C535 H515 0.950 . S
C535 C531 1.385 . S
C535 C534 1.374 . S
C536 C533 1.499 . S
C536 C537 1.373 . S
C536 C538 1.389 . S
C537 H516 0.950 . S
C537 C536 1.373 . S
C537 C553 1.377 . S
C538 C536 1.389 . S
C538 C539 1.524 . S
C538 C552 1.377 . S
C539 C538 1.524 . S
C539 C540 1.397 . S
C539 C544 1.363 . S
C540 H517 0.950 . S
C540 C539 1.397 . S
C540 C541 1.334 . S
C541 H518 0.950 . S
C541 C540 1.334 . S
C541 C542 1.287 . S
C542 C541 1.287 . S
C542 C543 1.524 . S
C542 H561 0.913 . S
C543 H519 0.950 . S
C543 C542 1.524 . S
C543 C544 1.415 . S
C544 H520 0.950 . S
C544 C539 1.363 . S
C544 C543 1.415 . S
C545 H521 0.951 . S
C545 C546 1.366 . S
C545 C547 1.388 . S
C546 C545 1.366 . S
C546 C550 1.385 . S
C547 H522 0.951 . S
C547 C545 1.388 . S
C547 C548 1.366 . S
C548 C547 1.366 . S
C548 C549 1.414 . S
C548 C551 1.499 . S
C549 H523 0.950 . S
C549 C548 1.414 . S
C549 C550 1.374 . S
C550 H524 0.950 . S
C550 C546 1.385 . S
C550 C549 1.374 . S
C551 C548 1.499 . S
C551 C552 1.373 . S
C551 C553 1.389 . S
C552 H525 0.950 . S
C552 C538 1.377 . S
C552 C551 1.373 . S
C553 C537 1.377 . S
C553 C551 1.389 . S
C553 C554 1.524 . S
C554 C553 1.524 . S
C554 C555 1.397 . S
C554 C559 1.363 . S
C555 H526 0.950 . S
C555 C554 1.397 . S
C555 C556 1.334 . S
C556 H527 0.950 . S
C556 C555 1.334 . S
C556 C557 1.287 . S
C557 C556 1.287 . S
C557 C558 1.524 . S
C557 H560 0.999 . S
C558 H528 0.950 . S
C558 C557 1.524 . S
C558 C559 1.415 . S
C559 H529 0.950 . S
C559 C554 1.363 . S
C559 C558 1.415 . S
H560 C557 0.999 . S
H561 C542 0.913 . S
H562 C580 0.951 . S
H563 C582 0.951 . S
H564 C584 0.950 . S
H565 C585 0.950 . S
H566 C587 0.950 . S
H567 C590 0.950 . S
H568 C591 0.950 . S
H569 C593 0.950 . S
H570 C594 0.950 . S
H571 C595 0.951 . S
H572 C597 0.951 . S
H573 C599 0.950 . S
H574 C600 0.950 . S
H575 C602 0.950 . S
H576 C605 0.950 . S
H577 C606 0.950 . S
H578 C608 0.950 . S
H579 C609 0.950 . S
C580 H562 0.951 . S
C580 C581 1.366 . S
C580 C582 1.388 . S
C581 C580 1.366 . S
C581 C585 1.385 . S
C582 H563 0.951 . S
C582 C580 1.388 . S
C582 C583 1.366 . S
C583 C582 1.366 . S
C583 C584 1.414 . S
C583 C586 1.499 . S
C584 H564 0.950 . S
C584 C583 1.414 . S
C584 C585 1.374 . S
C585 H565 0.950 . S
C585 C581 1.385 . S
C585 C584 1.374 . S
C586 C583 1.499 . S
C586 C587 1.373 . S
C586 C588 1.389 . S
C587 H566 0.950 . S
C587 C586 1.373 . S
C587 C603 1.377 . S
C588 C586 1.389 . S
C588 C589 1.524 . S
C588 C602 1.377 . S
C589 C588 1.524 . S
C589 C590 1.397 . S
C589 C594 1.363 . S
C590 H567 0.950 . S
C590 C589 1.397 . S
C590 C591 1.334 . S
C591 H568 0.950 . S
C591 C590 1.334 . S
C591 C592 1.287 . S
C592 C591 1.287 . S
C592 C593 1.524 . S
C592 H611 0.913 . S
C593 H569 0.950 . S
C593 C592 1.524 . S
C593 C594 1.415 . S
C594 H570 0.950 . S
C594 C589 1.363 . S
C594 C593 1.415 . S
C595 H571 0.951 . S
C595 C596 1.346 1_565 S
C595 C597 1.408 . S
C596 C595 1.346 1_545 S
C596 C600 1.385 . S
C597 H572 0.951 . S
C597 C595 1.408 . S
C597 C598 1.366 . S
C598 C597 1.366 . S
C598 C599 1.414 . S
C598 C601 1.499 . S
C599 H573 0.950 . S
C599 C598 1.414 . S
C599 C600 1.374 1_565 S
C600 H574 0.950 . S
C600 C596 1.385 . S
C600 C599 1.374 1_545 S
C601 C598 1.499 . S
C601 C602 1.373 . S
C601 C603 1.389 . S
C602 H575 0.950 . S
C602 C588 1.377 . S
C602 C601 1.373 . S
C603 C587 1.377 . S
C603 C601 1.389 . S
C603 C604 1.524 . S
C604 C603 1.524 . S
C604 C605 1.397 . S
C604 C609 1.363 . S
C605 H576 0.950 . S
C605 C604 1.397 . S
C605 C606 1.334 . S
C606 H577 0.950 . S
C606 C605 1.334 . S
C606 C607 1.287 . S
C607 C606 1.287 . S
C607 C608 1.524 . S
C607 H610 0.999 . S
C608 H578 0.950 . S
C608 C607 1.524 . S
C608 C609 1.415 . S
C609 H579 0.950 . S
C609 C604 1.363 . S
C609 C608 1.415 . S
H610 C607 0.999 . S
H611 C592 0.913 . S
H612 C630 0.951 . S
H613 C632 0.951 . S
H614 C634 0.950 . S
H615 C635 0.950 . S
H616 C637 0.950 . S
H617 C640 0.950 . S
H618 C641 0.950 . S
H619 C643 0.950 . S
H620 C644 0.950 . S
H621 C645 0.951 . S
H622 C647 0.951 . S
H623 C649 0.950 . S
H624 C650 0.950 . S
H625 C652 0.950 . S
H626 C655 0.950 . S
H627 C656 0.950 . S
H628 C658 0.950 . S
H629 C659 0.950 . S
C630 H612 0.951 . S
C630 C631 1.366 . S
C630 C632 1.388 . S
C631 C630 1.366 . S
C631 C635 1.385 . S
C632 H613 0.951 . S
C632 C630 1.388 . S
C632 C633 1.366 . S
C633 C632 1.366 . S
C633 C634 1.414 . S
C633 C636 1.499 . S
C634 H614 0.950 . S
C634 C633 1.414 . S
C634 C635 1.374 . S
C635 H615 0.950 . S
C635 C631 1.385 . S
C635 C634 1.374 . S
C636 C633 1.499 . S
C636 C637 1.373 . S
C636 C638 1.389 . S
C637 H616 0.950 . S
C637 C636 1.373 . S
C637 C653 1.377 . S
C638 C636 1.389 . S
C638 C639 1.524 . S
C638 C652 1.377 . S
C639 C638 1.524 . S
C639 C640 1.397 . S
C639 C644 1.363 . S
C640 H617 0.950 . S
C640 C639 1.397 . S
C640 C641 1.334 . S
C641 H618 0.950 . S
C641 C640 1.334 . S
C641 C642 1.287 . S
C642 C641 1.287 . S
C642 C643 1.524 . S
C642 H661 0.913 . S
C643 H619 0.950 . S
C643 C642 1.524 . S
C643 C644 1.415 . S
C644 H620 0.950 . S
C644 C639 1.363 . S
C644 C643 1.415 . S
C645 H621 0.951 . S
C645 C646 1.366 . S
C645 C647 1.388 . S
C646 C645 1.366 . S
C646 C650 1.385 . S
C647 H622 0.951 . S
C647 C645 1.388 . S
C647 C648 1.366 . S
C648 C647 1.366 . S
C648 C649 1.414 . S
C648 C651 1.499 . S
C649 H623 0.950 . S
C649 C648 1.414 . S
C649 C650 1.374 . S
C650 H624 0.950 . S
C650 C646 1.385 . S
C650 C649 1.374 . S
C651 C648 1.499 . S
C651 C652 1.373 . S
C651 C653 1.389 . S
C652 H625 0.950 . S
C652 C638 1.377 . S
C652 C651 1.373 . S
C653 C637 1.377 . S
C653 C651 1.389 . S
C653 C654 1.524 . S
C654 C653 1.524 . S
C654 C655 1.397 . S
C654 C659 1.363 . S
C655 H626 0.950 . S
C655 C654 1.397 . S
C655 C656 1.334 . S
C656 H627 0.950 . S
C656 C655 1.334 . S
C656 C657 1.287 . S
C657 C656 1.287 . S
C657 C658 1.524 . S
C657 H660 0.999 . S
C658 H628 0.950 . S
C658 C657 1.524 . S
C658 C659 1.415 . S
C659 H629 0.950 . S
C659 C654 1.363 . S
C659 C658 1.415 . S
H660 C657 0.999 . S
H661 C642 0.913 . S
H662 C680 0.951 . S
H663 C682 0.951 . S
H664 C684 0.950 . S
H665 C685 0.950 . S
H666 C687 0.950 . S
H667 C690 0.950 . S
H668 C691 0.950 . S
H669 C693 0.950 . S
H670 C694 0.950 . S
H671 C695 0.951 . S
H672 C697 0.951 . S
H673 C699 0.950 . S
H674 C700 0.950 . S
H675 C702 0.950 . S
H676 C705 0.950 . S
H677 C706 0.950 1_565 S
H678 C708 0.950 . S
H679 C709 0.950 . S
C680 H662 0.951 . S
C680 C681 1.366 . S
C680 C682 1.388 . S
C681 C680 1.366 . S
C681 C685 1.385 . S
C682 H663 0.951 . S
C682 C680 1.388 . S
C682 C683 1.366 . S
C683 C682 1.366 . S
C683 C684 1.414 . S
C683 C686 1.499 . S
C684 H664 0.950 . S
C684 C683 1.414 . S
C684 C685 1.374 . S
C685 H665 0.950 . S
C685 C681 1.385 . S
C685 C684 1.374 . S
C686 C683 1.499 . S
C686 C687 1.373 . S
C686 C688 1.389 . S
C687 H666 0.950 . S
C687 C686 1.373 . S
C687 C703 1.377 . S
C688 C686 1.389 . S
C688 C689 1.524 . S
C688 C702 1.377 . S
C689 C688 1.524 . S
C689 C690 1.397 . S
C689 C694 1.363 . S
C690 H667 0.950 . S
C690 C689 1.397 . S
C690 C691 1.334 . S
C691 H668 0.950 . S
C691 C690 1.334 . S
C691 C692 1.287 . S
C692 C691 1.287 . S
C692 C693 1.524 . S
C692 H711 0.913 . S
C693 H669 0.950 . S
C693 C692 1.524 . S
C693 C694 1.415 . S
C694 H670 0.950 . S
C694 C689 1.363 . S
C694 C693 1.415 . S
C695 H671 0.951 . S
C695 C696 1.366 . S
C695 C697 1.388 1_565 S
C696 C695 1.366 . S
C696 C700 1.385 . S
C697 H672 0.951 . S
C697 C695 1.388 1_545 S
C697 C698 1.366 . S
C698 C697 1.366 . S
C698 C699 1.414 . S
C698 C701 1.499 . S
C699 H673 0.950 . S
C699 C698 1.414 . S
C699 C700 1.374 1_545 S
C700 H674 0.950 . S
C700 C696 1.385 . S
C700 C699 1.374 1_565 S
C701 C698 1.499 . S
C701 C702 1.373 . S
C701 C703 1.389 . S
C702 H675 0.950 . S
C702 C688 1.377 . S
C702 C701 1.373 . S
C703 C687 1.377 . S
C703 C701 1.389 . S
C703 C704 1.524 . S
C704 C703 1.524 . S
C704 C705 1.397 . S
C704 C709 1.363 . S
C705 H676 0.950 . S
C705 C704 1.397 . S
C705 C706 1.334 . S
C706 H677 0.950 1_545 S
C706 C705 1.334 . S
C706 C707 1.287 . S
C707 C706 1.287 . S
C707 C708 1.524 . S
C707 H710 0.999 . S
C708 H678 0.950 . S
C708 C707 1.524 . S
C708 C709 1.415 . S
C709 H679 0.950 . S
C709 C704 1.363 . S
C709 C708 1.415 . S
H710 C707 0.999 . S
H711 C692 0.913 . S
H712 C730 0.952 . S
H713 C732 0.951 . S
H714 C734 0.950 . S
H715 C735 0.950 . S
H716 C737 0.950 . S
H717 C740 0.950 . S
H718 C741 0.953 1_455 S
H719 C743 0.950 . S
H720 C744 0.950 . S
H721 C745 0.951 . S
H722 C747 0.951 . S
H723 C749 0.950 . S
H724 C750 0.950 . S
H725 C752 0.950 . S
H726 C755 0.950 . S
H727 C756 0.950 . S
H728 C758 0.950 . S
H729 C759 0.950 . S
C730 H712 0.952 . S
C730 C731 1.377 . S
C730 C732 1.376 1_455 S
C731 C730 1.377 . S
C731 C735 1.385 . S
C732 H713 0.951 . S
C732 C730 1.376 1_655 S
C732 C733 1.366 . S
C733 C732 1.366 . S
C733 C734 1.414 . S
C733 C736 1.499 . S
C734 H714 0.950 . S
C734 C733 1.414 . S
C734 C735 1.374 1_655 S
C735 H715 0.950 . S
C735 C731 1.385 . S
C735 C734 1.374 1_455 S
C736 C733 1.499 . S
C736 C737 1.373 . S
C736 C738 1.389 . S
C737 H716 0.950 . S
C737 C736 1.373 . S
C737 C753 1.377 . S
C738 C736 1.389 . S
C738 C739 1.524 . S
C738 C752 1.377 . S
C739 C738 1.524 . S
C739 C740 1.397 . S
C739 C744 1.363 . S
C740 H717 0.950 . S
C740 C739 1.397 . S
C740 C741 1.334 . S
C741 H718 0.953 1_655 S
C741 C740 1.334 . S
C741 C742 1.287 . S
C742 C741 1.287 . S
C742 C743 1.524 . S
C742 H761 0.913 . S
C743 H719 0.950 . S
C743 C742 1.524 . S
C743 C744 1.415 . S
C744 H720 0.950 . S
C744 C739 1.363 . S
C744 C743 1.415 . S
C745 H721 0.951 . S
C745 C746 1.366 . S
C745 C747 1.388 . S
C746 C745 1.366 . S
C746 C750 1.385 . S
C747 H722 0.951 . S
C747 C745 1.388 . S
C747 C748 1.366 . S
C748 C747 1.366 . S
C748 C749 1.414 . S
C748 C751 1.499 . S
C749 H723 0.950 . S
C749 C748 1.414 . S
C749 C750 1.374 . S
C750 H724 0.950 . S
C750 C746 1.385 . S
C750 C749 1.374 . S
C751 C748 1.499 . S
C751 C752 1.373 . S
C751 C753 1.389 . S
C752 H725 0.950 . S
C752 C738 1.377 . S
C752 C751 1.373 . S
C753 C737 1.377 . S
C753 C751 1.389 . S
C753 C754 1.524 . S
C754 C753 1.524 . S
C754 C755 1.397 . S
C754 C759 1.363 . S
C755 H726 0.950 . S
C755 C754 1.397 . S
C755 C756 1.334 . S
C756 H727 0.950 . S
C756 C755 1.334 . S
C756 C757 1.287 . S
C757 C756 1.287 . S
C757 C758 1.524 . S
C757 H760 0.999 . S
C758 H728 0.950 . S
C758 C757 1.524 . S
C758 C759 1.415 . S
C759 H729 0.950 . S
C759 C754 1.363 . S
C759 C758 1.415 . S
H760 C757 0.999 . S
H761 C742 0.913 . S
H762 C780 0.951 . S
H763 C782 0.951 . S
H764 C784 0.950 . S
H765 C785 0.950 . S
H766 C787 0.950 . S
H767 C790 0.950 . S
H768 C791 0.950 . S
H769 C793 0.950 . S
H770 C794 0.950 . S
H771 C795 0.951 . S
H772 C797 0.951 . S
H773 C799 0.950 . S
H774 C800 0.950 . S
H775 C802 0.950 . S
H776 C805 0.950 . S
H777 C806 0.950 . S
H778 C808 0.950 . S
H779 C809 0.950 . S
C780 H762 0.951 . S
C780 C781 1.366 . S
C780 C782 1.388 . S
C781 C780 1.366 . S
C781 C785 1.385 . S
C782 H763 0.951 . S
C782 C780 1.388 . S
C782 C783 1.366 . S
C783 C782 1.366 . S
C783 C784 1.414 . S
C783 C786 1.499 . S
C784 H764 0.950 . S
C784 C783 1.414 . S
C784 C785 1.374 . S
C785 H765 0.950 . S
C785 C781 1.385 . S
C785 C784 1.374 . S
C786 C783 1.499 . S
C786 C787 1.373 . S
C786 C788 1.389 . S
C787 H766 0.950 . S
C787 C786 1.373 . S
C787 C803 1.377 . S
C788 C786 1.389 . S
C788 C789 1.524 . S
C788 C802 1.377 . S
C789 C788 1.524 . S
C789 C790 1.397 . S
C789 C794 1.363 . S
C790 H767 0.950 . S
C790 C789 1.397 . S
C790 C791 1.334 . S
C791 H768 0.950 . S
C791 C790 1.334 . S
C791 C792 1.287 . S
C792 C791 1.287 . S
C792 C793 1.524 . S
C792 H811 0.913 . S
C793 H769 0.950 . S
C793 C792 1.524 . S
C793 C794 1.415 . S
C794 H770 0.950 . S
C794 C789 1.363 . S
C794 C793 1.415 . S
C795 H771 0.951 . S
C795 C796 1.366 . S
C795 C797 1.388 . S
C796 C795 1.366 . S
C796 C800 1.385 . S
C797 H772 0.951 . S
C797 C795 1.388 . S
C797 C798 1.366 . S
C798 C797 1.366 . S
C798 C799 1.414 . S
C798 C801 1.499 . S
C799 H773 0.950 . S
C799 C798 1.414 . S
C799 C800 1.374 . S
C800 H774 0.950 . S
C800 C796 1.385 . S
C800 C799 1.374 . S
C801 C798 1.499 . S
C801 C802 1.373 . S
C801 C803 1.389 . S
C802 H775 0.950 . S
C802 C788 1.377 . S
C802 C801 1.373 . S
C803 C787 1.377 . S
C803 C801 1.389 . S
C803 C804 1.524 . S
C804 C803 1.524 . S
C804 C805 1.397 . S
C804 C809 1.363 . S
C805 H776 0.950 . S
C805 C804 1.397 . S
C805 C806 1.334 . S
C806 H777 0.950 . S
C806 C805 1.334 . S
C806 C807 1.287 . S
C807 C806 1.287 . S
C807 C808 1.524 . S
C807 H810 0.999 . S
C808 H778 0.950 . S
C808 C807 1.524 . S
C808 C809 1.415 . S
C809 H779 0.950 . S
C809 C804 1.363 . S
C809 C808 1.415 . S
H810 C807 0.999 . S
H811 C792 0.913 . S
H812 C830 0.951 . S
H813 C832 0.951 . S
H814 C834 0.950 . S
H815 C835 0.950 . S
H816 C837 0.950 . S
H817 C840 0.950 . S
H818 C841 0.950 . S
H819 C843 0.950 . S
H820 C844 0.950 . S
H821 C845 0.951 . S
H822 C847 0.951 . S
H823 C849 0.950 . S
H824 C850 0.950 . S
H825 C852 0.950 . S
H826 C855 0.950 . S
H827 C856 0.950 . S
H828 C858 0.950 . S
H829 C859 0.950 . S
C830 H812 0.951 . S
C830 C831 1.366 . S
C830 C832 1.388 . S
C831 C830 1.366 . S
C831 C835 1.385 . S
C832 H813 0.951 . S
C832 C830 1.388 . S
C832 C833 1.366 . S
C833 C832 1.366 . S
C833 C834 1.414 . S
C833 C836 1.499 . S
C834 H814 0.950 . S
C834 C833 1.414 . S
C834 C835 1.374 . S
C835 H815 0.950 . S
C835 C831 1.385 . S
C835 C834 1.374 . S
C836 C833 1.499 . S
C836 C837 1.373 . S
C836 C838 1.389 . S
C837 H816 0.950 . S
C837 C836 1.373 . S
C837 C853 1.377 . S
C838 C836 1.389 . S
C838 C839 1.524 . S
C838 C852 1.377 . S
C839 C838 1.524 . S
C839 C840 1.397 . S
C839 C844 1.363 . S
C840 H817 0.950 . S
C840 C839 1.397 . S
C840 C841 1.334 . S
C841 H818 0.950 . S
C841 C840 1.334 . S
C841 C842 1.287 . S
C842 C841 1.287 . S
C842 C843 1.524 . S
C842 H861 0.913 . S
C843 H819 0.950 . S
C843 C842 1.524 . S
C843 C844 1.415 . S
C844 H820 0.950 . S
C844 C839 1.363 . S
C844 C843 1.415 . S
C845 H821 0.951 . S
C845 C846 1.366 . S
C845 C847 1.388 1_655 S
C846 C845 1.366 . S
C846 C850 1.385 1_655 S
C847 H822 0.951 . S
C847 C845 1.388 1_455 S
C847 C848 1.366 . S
C848 C847 1.366 . S
C848 C849 1.414 . S
C848 C851 1.499 . S
C849 H823 0.950 . S
C849 C848 1.414 . S
C849 C850 1.374 . S
C850 H824 0.950 . S
C850 C846 1.385 1_455 S
C850 C849 1.374 . S
C851 C848 1.499 . S
C851 C852 1.373 . S
C851 C853 1.389 . S
C852 H825 0.950 . S
C852 C838 1.377 . S
C852 C851 1.373 . S
C853 C837 1.377 . S
C853 C851 1.389 . S
C853 C854 1.524 . S
C854 C853 1.524 . S
C854 C855 1.397 . S
C854 C859 1.363 . S
C855 H826 0.950 . S
C855 C854 1.397 . S
C855 C856 1.334 . S
C856 H827 0.950 . S
C856 C855 1.334 . S
C856 C857 1.287 . S
C857 C856 1.287 . S
C857 C858 1.524 . S
C857 H860 0.999 . S
C858 H828 0.950 . S
C858 C857 1.524 . S
C858 C859 1.415 . S
C859 H829 0.950 . S
C859 C854 1.363 . S
C859 C858 1.415 . S
H860 C857 0.999 . S
H861 C842 0.913 . S
H862 C880 0.951 . S
H863 C882 0.951 . S
H864 C884 0.950 . S
H865 C885 0.950 . S
H866 C887 0.950 . S
H867 C890 0.950 . S
H868 C891 0.950 . S
H869 C893 0.950 . S
H870 C894 0.950 . S
H871 C895 0.951 . S
H872 C897 0.951 . S
H873 C899 0.950 . S
H874 C900 0.950 . S
H875 C902 0.950 . S
H876 C905 0.950 . S
H877 C906 0.950 . S
H878 C908 0.950 . S
H879 C909 0.950 . S
C880 H862 0.951 . S
C880 C881 1.366 . S
C880 C882 1.388 . S
C881 C880 1.366 . S
C881 C885 1.385 . S
C882 H863 0.951 . S
C882 C880 1.388 . S
C882 C883 1.366 . S
C883 C882 1.366 . S
C883 C884 1.414 . S
C883 C886 1.499 . S
C884 H864 0.950 . S
C884 C883 1.414 . S
C884 C885 1.374 . S
C885 H865 0.950 . S
C885 C881 1.385 . S
C885 C884 1.374 . S
C886 C883 1.499 . S
C886 C887 1.373 . S
C886 C888 1.389 . S
C887 H866 0.950 . S
C887 C886 1.373 . S
C887 C903 1.377 . S
C888 C886 1.389 . S
C888 C889 1.524 . S
C888 C902 1.377 . S
C889 C888 1.524 . S
C889 C890 1.397 . S
C889 C894 1.363 . S
C890 H867 0.950 . S
C890 C889 1.397 . S
C890 C891 1.334 . S
C891 H868 0.950 . S
C891 C890 1.334 . S
C891 C892 1.287 . S
C892 C891 1.287 . S
C892 C893 1.524 . S
C892 H911 0.913 . S
C893 H869 0.950 . S
C893 C892 1.524 . S
C893 C894 1.415 . S
C894 H870 0.950 . S
C894 C889 1.363 . S
C894 C893 1.415 . S
C895 H871 0.951 . S
C895 C896 1.366 . S
C895 C897 1.388 . S
C896 C895 1.366 . S
C896 C900 1.385 . S
C897 H872 0.951 . S
C897 C895 1.388 . S
C897 C898 1.366 . S
C898 C897 1.366 . S
C898 C899 1.414 . S
C898 C901 1.499 . S
C899 H873 0.950 . S
C899 C898 1.414 . S
C899 C900 1.374 . S
C900 H874 0.950 . S
C900 C896 1.385 . S
C900 C899 1.374 . S
C901 C898 1.499 . S
C901 C902 1.373 . S
C901 C903 1.389 . S
C902 H875 0.950 . S
C902 C888 1.377 . S
C902 C901 1.373 . S
C903 C887 1.377 . S
C903 C901 1.389 . S
C903 C904 1.524 . S
C904 C903 1.524 . S
C904 C905 1.397 . S
C904 C909 1.363 . S
C905 H876 0.950 . S
C905 C904 1.397 . S
C905 C906 1.334 . S
C906 H877 0.950 . S
C906 C905 1.334 . S
C906 C907 1.287 . S
C907 C906 1.287 . S
C907 C908 1.524 . S
C907 H910 0.999 . S
C908 H878 0.950 . S
C908 C907 1.524 . S
C908 C909 1.415 . S
C909 H879 0.950 . S
C909 C904 1.363 . S
C909 C908 1.415 . S
H910 C907 0.999 . S
H911 C892 0.913 . S
C131 C5 0.208 . S
C146 C33 0.208 . S
C181 C19 0.208 . S
C196 C47 0.208 . S
C231 C61 0.208 . S
C246 C89 0.209 . S
C281 C75 0.208 . S
C296 C103 0.208 . S
C331 C9 1.318 . S
C346 C79 1.318 . S
C381 C23 1.318 . S
C396 C93 1.318 . S
C431 C107 1.318 . S
C446 C37 1.318 . S
C481 C51 1.318 . S
C496 C65 1.318 . S
C531 C56 1.693 . S
C546 C11 1.738 . S
C581 C25 1.738 . S
C596 C70 1.694 . S
C631 C39 1.739 . S
C646 C84 1.694 . S
C681 C53 1.738 . S
C696 C98 1.693 . S
C731 C0 1.694 . S
C746 C67 1.739 . S
C781 C81 1.739 . S
C796 C14 1.694 . S
C831 C95 1.739 . S
C846 C28 1.694 . S
C881 C42 1.694 . S
C896 C109 1.738 . S
