# Generated by pormake.
# Topology fnt, (5)-cn, num edge types: 1
# Building blocks:
#     Node 0, Type 0, BuildingBlock: XOMCOT_clean_sbu_1, # of connection points: 5
#     Node 1, Type 0, BuildingBlock: XOMCOT_clean_sbu_1, # of connection points: 5
#     Node 2, Type 0, BuildingBlock: XOMCOT_clean_sbu_1, # of connection points: 5
#     Node 3, Type 0, BuildingBlock: XOMCOT_clean_sbu_1, # of connection points: 5
#     Node 4, Type 0, BuildingBlock: XOMCOT_clean_sbu_1, # of connection points: 5
#     Node 5, Type 0, BuildingBlock: XOMCOT_clean_sbu_1, # of connection points: 5
#     Edge 6, Type (0, 0), BuildingBlock: KIFKEQ_clean_linker_1, # of connection points: 2
#     Edge 7, Type (0, 0), BuildingBlock: KIFKEQ_clean_linker_1, # of connection points: 2
#     Edge 8, Type (0, 0), BuildingBlock: KIFKEQ_clean_linker_1, # of connection points: 2
#     Edge 9, Type (0, 0), BuildingBlock: KIFKEQ_clean_linker_1, # of connection points: 2
#     Edge 10, Type (0, 0), BuildingBlock: KIFKEQ_clean_linker_1, # of connection points: 2
#     Edge 11, Type (0, 0), BuildingBlock: KIFKEQ_clean_linker_1, # of connection points: 2
#     Edge 12, Type (0, 0), BuildingBlock: KIFKEQ_clean_linker_1, # of connection points: 2
#     Edge 13, Type (0, 0), BuildingBlock: KIFKEQ_clean_linker_1, # of connection points: 2
#     Edge 14, Type (0, 0), BuildingBlock: KIFKEQ_clean_linker_1, # of connection points: 2
#     Edge 15, Type (0, 0), BuildingBlock: KIFKEQ_clean_linker_1, # of connection points: 2
#     Edge 16, Type (0, 0), BuildingBlock: KIFKEQ_clean_linker_1, # of connection points: 2
#     Edge 17, Type (0, 0), BuildingBlock: KIFKEQ_clean_linker_1, # of connection points: 2
#     Edge 18, Type (0, 0), BuildingBlock: KIFKEQ_clean_linker_1, # of connection points: 2
#     Edge 19, Type (0, 0), BuildingBlock: KIFKEQ_clean_linker_1, # of connection points: 2
#     Edge 20, Type (0, 0), BuildingBlock: KIFKEQ_clean_linker_1, # of connection points: 2
# Relax obj value: 0.138
# Max RMSD: 0.169
# Mean RMSD: 0.169
data_MOF--net-fnt--node1-XOMCOT_clean_sbu_1--edge1-KIFKEQ_clean_linker_1
_symmetry_space_group_name_H-M    P1
_symmetry_Int_Tables_number       1
_symmetry_cell_setting            triclinic
loop_
_symmetry_equiv_pos_as_xyz
'x, y, z'
_cell_length_a     28.128993
_cell_length_b     28.188737
_cell_length_c     47.600263
_cell_angle_alpha  89.914883
_cell_angle_beta   90.334331
_cell_angle_gamma 120.17614
loop_
_atom_site_label
_atom_site_type_symbol
_atom_site_fract_x
_atom_site_fract_y
_atom_site_fract_z
_atom_type_partial_charge
C0 C 0.21986 0.3634 0.10254 0.0
C1 C 0.20463 0.35746 0.13034 0.0
N2 N 0.16065 0.30693 0.1339 0.0
N3 N 0.18603 0.31676 0.08858 0.0
C4 C 0.15068 0.28299 0.10826 0.0
H5 H 0.25138 0.40055 0.09278 0.0
Co6 Co 0.18354 0.30893 0.04959 0.0
C7 C 0.09435 0.19676 1.03833 0.0
O8 O 0.07762 0.2173 1.01836 0.0
N9 N 0.18177 0.30129 1.00963 0.0
C10 C 0.17459 0.30913 0.96345 0.0
C11 C 0.17006 0.32762 0.98936 0.0
C12 C 0.19413 0.26749 0.99516 0.0
N13 N 0.18956 0.27109 0.96702 0.0
O14 O 0.2502 0.30625 0.05119 0.0
H15 H 0.15932 0.35886 0.99256 0.0
H16 H 0.2056 0.2402 1.0052 0.0
O17 O 0.13698 0.22864 0.05301 0.0
C18 C 0.28704 0.3546 1.04396 0.0
O19 O 0.27167 0.38923 1.03555 0.0
N20 N 0.12425 0.32102 0.0492 0.0
C21 C 0.05964 0.36905 0.05499 0.0
C22 C 0.03888 0.31414 0.06273 0.0
C23 C 0.07234 0.29074 0.0599 0.0
C24 C 0.14534 0.37519 1.04339 0.0
C25 C 0.11344 0.39958 1.04528 0.0
H26 H 0.05741 0.24972 0.06769 0.0
H27 H 0.18799 0.40012 1.03762 0.0
H28 H 0.11661 0.24252 0.10361 0.0
H29 H 0.22229 0.38928 0.14621 0.0
H30 H 0.16864 0.32381 0.94346 0.0
H31 H -0.00198 0.29023 0.07144 0.0
H32 H 0.13157 0.44278 1.04033 0.0
C33 C 0.853 0.23106 0.43429 0.0
C34 C 0.8425 0.21848 0.46231 0.0
N35 N 0.84938 0.17546 0.46801 0.0
N36 N 0.8666 0.19633 0.42227 0.0
C37 C 0.86469 0.16326 0.44343 0.0
H38 H 0.8471 0.26099 0.42296 0.0
Co39 Co 0.8697 0.18962 0.38344 0.0
C40 C 0.8926 0.10015 0.37443 0.0
O41 O 0.8537 0.08168 0.35518 0.0
N42 N 0.87298 0.18371 0.34352 0.0
C43 C 0.85338 0.16992 0.2978 0.0
C44 C 0.83185 0.16328 0.32425 0.0
C45 C 0.91923 0.2022 0.32792 0.0
N46 N 0.90846 0.19474 0.30002 0.0
O47 O 0.93914 0.25693 0.38321 0.0
H48 H 0.78855 0.1443 0.3286 0.0
H49 H 0.96021 0.22194 0.33688 0.0
O50 O 0.90429 0.14386 0.38816 0.0
C51 C 0.92765 0.29299 0.37451 0.0
O52 O 0.87758 0.27671 0.3655 0.0
N53 N 0.79803 0.13033 0.385 0.0
C54 C 0.68772 0.07279 0.40003 0.0
C55 C 0.72165 0.05046 0.40529 0.0
C56 C 0.77743 0.08058 0.39806 0.0
C57 C 0.76489 0.15154 0.37949 0.0
C58 C 0.70967 0.12316 0.38623 0.0
H59 H 0.80414 0.06571 0.40499 0.0
H60 H 0.78223 0.19234 0.37088 0.0
H61 H 0.86954 0.12789 0.44041 0.0
H62 H 0.82804 0.23764 0.477 0.0
H63 H 0.82998 0.15699 0.27841 0.0
H64 H 0.70611 0.01197 0.41641 0.0
H65 H 0.68478 0.14162 0.38156 0.0
C66 C 0.63237 0.87367 0.76961 0.0
C67 C 0.63609 0.862 0.79733 0.0
N68 N 0.67941 0.85424 0.80029 0.0
N69 N 0.67335 0.87375 0.75508 0.0
C70 C 0.70145 0.86195 0.77433 0.0
H71 H 0.60041 0.87946 0.76044 0.0
Co72 Co 0.68023 0.87907 0.7161 0.0
C73 C 0.79325 0.90246 0.70408 0.0
O74 O 0.77321 0.86991 0.68213 0.0
N75 N 0.68633 0.88456 0.67624 0.0
C76 C 0.66881 0.86841 0.63048 0.0
C77 C 0.65567 0.84591 0.65688 0.0
C78 C 0.718 0.93029 0.66086 0.0
N79 N 0.70796 0.92147 0.633 0.0
O80 O 0.68535 0.94985 0.71788 0.0
H81 H 0.62425 0.80428 0.66134 0.0
H82 H 0.74629 0.96984 0.67003 0.0
O83 O 0.76096 0.91052 0.71972 0.0
C84 C 0.63853 0.94141 0.70919 0.0
O85 O 0.60315 0.89286 0.69905 0.0
N86 N 0.6647 0.80657 0.71534 0.0
C87 C 0.60966 0.69277 0.7183 0.0
C88 C 0.66725 0.72314 0.72046 0.0
C89 C 0.69423 0.7807 0.71968 0.0
C90 C 0.60882 0.77716 0.71403 0.0
C91 C 0.58059 0.72053 0.71511 0.0
H92 H 0.73787 0.80357 0.72362 0.0
H93 H 0.58582 0.79823 0.71215 0.0
H94 H 0.73552 0.85608 0.76908 0.0
H95 H 0.60818 0.85833 0.81385 0.0
H96 H 0.6503 0.84754 0.61092 0.0
H97 H 0.69075 0.7027 0.72366 0.0
H98 H 0.53613 0.69858 0.71337 0.0
C99 C 0.74424 0.62651 0.10669 0.0
C100 C 0.76067 0.6338 0.1344 0.0
N101 N 0.80709 0.6829 0.13703 0.0
N102 N 0.77972 0.67096 0.09185 0.0
C103 C 0.81729 0.70478 0.11092 0.0
H104 H 0.71096 0.58948 0.09759 0.0
Co105 Co 0.78223 0.67483 0.05273 0.0
C106 C 0.87014 0.7867 1.03936 0.0
O107 O 0.88662 0.76523 1.0199 0.0
N108 N 0.78394 0.67808 1.01274 0.0
C109 C 0.78973 0.66376 0.96723 0.0
C110 C 0.79506 0.64896 0.99406 0.0
C111 C 0.77118 0.70975 0.99652 0.0
N112 N 0.77481 0.7022 0.96871 0.0
O113 O 0.71528 0.67719 0.05246 0.0
H114 H 0.80578 0.61822 0.99915 0.0
H115 H 0.76011 0.73839 1.0051 0.0
O116 O 0.82834 0.75541 0.05446 0.0
C117 C 0.6785 0.62825 0.04591 0.0
O118 O 0.69387 0.59283 1.03926 0.0
N119 N 0.84179 0.66317 0.05434 0.0
C120 C 0.90465 0.61504 0.06667 0.0
C121 C 0.92766 0.672 0.06917 0.0
C122 C 0.89482 0.69536 0.06358 0.0
C123 C 0.81949 0.60789 0.05212 0.0
C124 C 0.85017 0.58311 0.05774 0.0
H125 H 0.91131 0.73819 0.06833 0.0
H126 H 0.7766 0.5824 0.04669 0.0
H127 H 0.85318 0.74337 0.10547 0.0
H128 H 0.7422 0.60341 0.15084 0.0
H129 H 0.79523 0.64642 0.9481 0.0
H130 H 0.96952 0.6976 0.07657 0.0
H131 H 0.83104 0.539 0.05546 0.0
C132 C 0.11535 0.74737 0.43774 0.0
C133 C 0.12364 0.76098 0.4658 0.0
N134 N 0.11906 0.80586 0.46976 0.0
N135 N 0.10505 0.78308 0.42402 0.0
C136 C 0.10716 0.81797 0.44411 0.0
H137 H 0.12045 0.71587 0.42767 0.0
Co138 Co 0.10311 0.78832 0.38503 0.0
C139 C 0.08019 0.87756 0.37404 0.0
O140 O 0.1188 0.89522 0.35487 0.0
N141 N 0.10073 0.79277 0.3451 0.0
C142 C 0.11981 0.8028 0.2994 0.0
C143 C 0.14131 0.80867 0.32598 0.0
C144 C 0.05491 0.77744 0.32936 0.0
N145 N 0.06533 0.78296 0.30147 0.0
O146 O 0.03348 0.72112 0.3844 0.0
H147 H 0.18411 0.82367 0.33054 0.0
H148 H 0.0144 0.76158 0.33826 0.0
O149 O 0.06869 0.83441 0.38824 0.0
C150 C 0.04552 0.68488 0.3769 0.0
O151 O 0.09623 0.70092 0.36946 0.0
N152 N 0.17485 0.84764 0.38698 0.0
C153 C 0.28551 0.907 0.40193 0.0
C154 C 0.25149 0.92954 0.40598 0.0
C155 C 0.19554 0.89853 0.39883 0.0
C156 C 0.208 0.82608 0.3828 0.0
C157 C 0.26335 0.85525 0.38953 0.0
H158 H 0.16891 0.91398 0.40479 0.0
H159 H 0.19067 0.78455 0.3752 0.0
H160 H 0.10309 0.85342 0.43976 0.0
H161 H 0.1363 0.74186 0.4816 0.0
H162 H 0.14283 0.81286 0.28004 0.0
H163 H 0.26719 0.96913 0.41603 0.0
H164 H 0.28827 0.83654 0.38584 0.0
C165 C 0.37195 0.1924 0.76094 0.0
C166 C 0.36595 0.20466 0.78804 0.0
N167 N 0.31728 0.16456 0.7977 0.0
N168 N 0.32741 0.14456 0.75326 0.0
C169 C 0.29453 0.12848 0.77614 0.0
H170 H 0.40599 0.21775 0.74726 0.0
Co171 Co 0.31969 0.11546 0.71685 0.0
C172 C 0.20171 0.07686 0.70652 0.0
O173 O 0.21662 0.10792 0.68398 0.0
N174 N 0.31505 0.08616 0.68037 0.0
C175 C 0.34825 0.06853 0.64184 0.0
C176 C 0.36129 0.09537 0.66714 0.0
C177 C 0.27396 0.05067 0.66302 0.0
N178 N 0.29321 0.04058 0.63911 0.0
O179 O 0.32997 0.05749 0.73148 0.0
H180 H 0.40244 0.12032 0.67545 0.0
H181 H 0.23077 0.03142 0.66775 0.0
O182 O 0.23797 0.07285 0.72126 0.0
C183 C 0.38196 0.07991 0.73545 0.0
O184 O 0.41295 0.1326 0.73043 0.0
N185 N 0.31843 0.17763 0.70259 0.0
C186 C 0.35394 0.28876 0.69656 0.0
C187 C 0.30839 0.25542 0.71334 0.0
C188 C 0.29128 0.19982 0.71615 0.0
C189 C 0.35945 0.20886 0.6842 0.0
C190 C 0.37721 0.2642 0.68052 0.0
H191 H 0.26024 0.17627 0.73161 0.0
H192 H 0.38353 0.19346 0.67471 0.0
H193 H 0.25453 0.09166 0.77683 0.0
H194 H 0.3943 0.24162 0.79934 0.0
H195 H 0.37714 0.06872 0.62686 0.0
H196 H 0.28935 0.27303 0.72608 0.0
H197 H 0.4132 0.28865 0.66775 0.0
H198 H 0.34005 0.39945 0.09246 0.0
H199 H 0.36524 0.36867 1.00681 0.0
H200 H 0.43426 0.47529 0.09519 0.0
H201 H 0.46098 0.44207 1.00979 0.0
H202 H 0.60233 0.61064 1.00632 0.0
H203 H 0.50646 0.53753 1.00858 0.0
H204 H 0.52871 0.51293 0.09634 0.0
H205 H 0.62303 0.58855 0.09416 0.0
C206 C 0.36692 0.40696 0.07474 0.0
C207 C 0.34581 0.37776 0.04957 0.0
C208 C 0.42091 0.45101 0.07613 0.0
C209 C 0.45511 0.46631 0.0524 0.0
C210 C 0.43537 0.43307 1.02817 0.0
C211 C 0.38103 0.38974 1.02667 0.0
C212 C 0.58551 0.59158 1.02641 0.0
C213 C 0.61955 0.60586 0.05018 0.0
C214 C 0.5311 0.54839 1.02758 0.0
C215 C 0.51011 0.51758 0.0524 0.0
C216 C 0.54306 0.53528 0.07681 0.0
C217 C 0.59712 0.57923 0.0757 0.0
H218 H 0.98727 0.37083 0.33613 0.0
H219 H 0.93936 0.347 0.42305 0.0
H220 H 0.0098 0.46624 0.33914 0.0
H221 H 0.95749 0.44078 0.42587 0.0
H222 H 0.0322 0.6287 0.4248 0.0
H223 H 0.01329 0.53461 0.42652 0.0
H224 H 0.96217 0.51324 0.33932 0.0
H225 H 0.98546 0.60899 0.33746 0.0
C226 C 0.98366 0.38682 0.3562 0.0
C227 C 0.96281 0.35205 0.3795 0.0
C228 C -0.00523 0.44102 0.35777 0.0
C229 C 0.98356 0.46114 0.38248 0.0
C230 C 0.96673 0.42728 0.40644 0.0
C231 C 0.95687 0.37347 0.40498 0.0
C232 C 0.01475 0.60307 0.40637 0.0
C233 C 0.00943 0.62576 0.38112 0.0
C234 C 0.00443 0.54906 0.40721 0.0
C235 C 0.98778 0.51628 0.38281 0.0
C236 C 0.97704 0.53762 0.3583 0.0
C237 C 0.98857 0.59201 0.35737 0.0
H238 H 0.36388 0.98535 0.70991 0.0
H239 H 0.46861 0.10913 0.76984 0.0
H240 H 0.43232 0.95634 0.70563 0.0
H241 H 0.53736 0.08127 0.76528 0.0
H242 H 0.63391 0.98596 0.75935 0.0
H243 H 0.56579 0.01291 0.77074 0.0
H244 H 0.52189 0.0015 0.68287 0.0
H245 H 0.58876 0.97362 0.67186 0.0
C246 C 0.40041 0.0047 0.72304 0.0
C247 C 0.41086 0.04916 0.74031 0.0
C248 C 0.44025 0.98906 0.72016 0.0
C249 C 0.49109 0.01759 0.73454 0.0
C250 C 0.49896 0.05855 0.75383 0.0
C251 C 0.45935 0.07426 0.75658 0.0
C252 C 0.61134 0.99165 0.74243 0.0
C253 C 0.61701 0.97846 0.71469 0.0
C254 C 0.57162 0.00612 0.74896 0.0
C255 C 0.53703 0.00753 0.72782 0.0
C256 C 0.54639 -0.00107 0.69981 0.0
C257 C 0.58571 0.98438 0.69337 0.0
H258 H 0.62407 0.62088 0.68623 0.0
H259 H 0.52319 0.62928 0.75178 0.0
H260 H 0.55986 0.52209 0.6815 0.0
H261 H 0.45834 0.53164 0.74656 0.0
H262 H 0.37995 0.34501 0.74572 0.0
H263 H 0.44572 0.44171 0.75303 0.0
H264 H 0.46609 0.46529 0.66322 0.0
H265 H 0.40043 0.3678 0.65593 0.0
C266 C 0.58881 0.60127 0.69999 0.0
C267 C 0.57828 0.63235 0.71928 0.0
C268 C 0.55162 0.5451 0.697 0.0
C269 C 0.50356 0.51934 0.71333 0.0
C270 C 0.49496 0.55013 0.73372 0.0
C271 C 0.53201 0.60601 0.7367 0.0
C272 C 0.39721 0.37111 0.72749 0.0
C273 C 0.38473 0.349 0.70022 0.0
C274 C 0.43533 0.42646 0.7317 0.0
C275 C 0.46166 0.46096 0.70872 0.0
C276 C 0.44743 0.43938 0.68137 0.0
C277 C 0.40937 0.38386 0.67716 0.0
H278 H 0.00355 0.63836 1.04534 0.0
H279 H 0.87466 0.52806 0.10117 0.0
H280 H 0.04169 0.57719 1.04567 0.0
H281 H 0.91146 0.4661 0.10087 0.0
H282 H 0.01796 0.38295 0.10369 0.0
H283 H 0.98693 0.449 0.11175 0.0
H284 H 0.00362 0.48701 1.02306 0.0
H285 H 0.03535 0.42204 1.01533 0.0
C286 C 0.98447 0.60188 0.05831 0.0
C287 C 0.93595 0.58729 0.07289 0.0
C288 C 0.00566 0.5665 0.0582 0.0
C289 C 0.97853 0.51621 0.07268 0.0
C290 C 0.93305 0.50439 0.08943 0.0
C291 C 0.91197 0.53973 0.08955 0.0
C292 C 0.01344 0.40451 0.08595 0.0
C293 C 0.0286 0.3976 0.05892 0.0
C294 C -0.00363 0.44263 0.09055 0.0
C295 C -0.00566 0.47414 0.06813 0.0
C296 C 0.00651 0.46461 1.04087 0.0
C297 C 0.02364 0.42681 1.03633 0.0
H298 H 0.33711 0.8636 0.43178 0.0
H299 H 0.36469 0.01358 0.39259 0.0
H300 H 0.43594 0.90326 0.43862 0.0
H301 H 0.46378 0.05361 0.39973 0.0
H302 H 0.63825 0.12031 0.42779 0.0
H303 H 0.54 0.0818 0.43561 0.0
H304 H 0.5091 0.92654 0.40193 0.0
H305 H 0.60759 0.96538 0.39379 0.0
C306 C 0.3644 0.90542 0.42504 0.0
C307 C 0.34359 0.93531 0.41115 0.0
C308 C 0.42079 0.92798 0.42896 0.0
C309 C 0.45735 0.98107 0.41936 0.0
C310 C 0.43634 0.01258 0.40746 0.0
C311 C 0.37976 0.98982 0.40338 0.0
C312 C 0.61043 0.07773 0.42236 0.0
C313 C 0.63015 0.04598 0.40965 0.0
C314 C 0.55437 0.05582 0.42687 0.0
C315 C 0.51708 0.00157 0.41904 0.0
C316 C 0.53714 0.96851 0.40829 0.0
C317 C 0.59337 0.99059 0.40363 0.0
H318 H 0.98622 0.12915 1.02655 0.0
H319 H 0.12718 0.1303 0.06378 0.0
H320 H 0.93203 0.03005 1.03245 0.0
H321 H 0.07261 0.03021 0.06941 0.0
H322 H 0.97752 0.85444 1.02653 0.0
H323 H 0.0318 0.95365 1.03207 0.0
H324 H 0.89282 0.95392 0.06987 0.0
H325 H 0.83817 0.85371 0.06463 0.0
C326 C 0.00554 0.10822 1.03621 0.0
C327 C 0.06116 0.13739 1.04444 0.0
C328 C 0.97426 0.05149 1.03984 0.0
C329 C -0.00194 0.02242 0.05138 0.0
C330 C 0.05331 0.05168 0.06038 0.0
C331 C 0.08446 0.10883 0.05721 0.0
C332 C 0.95855 0.87549 1.03627 0.0
C333 C 0.90334 0.84636 1.04487 0.0
C334 C -0.01009 0.93229 1.03969 0.0
C335 C 0.96659 0.96149 0.05141 0.0
C336 C 0.91175 0.93233 0.06071 0.0
C337 C 0.88054 0.87512 0.05774 0.0
H338 H 0.9813 0.84539 0.39997 0.0
H339 H 0.11972 0.98497 0.36152 0.0
H340 H 0.93588 0.8998 0.40578 0.0
H341 H 0.07487 0.0389 0.36747 0.0
H342 H -0.00557 0.13462 0.39817 0.0
H343 H 0.04061 0.08071 0.40355 0.0
H344 H 0.89667 0.93813 0.3703 0.0
H345 H 0.8511 0.99154 0.36478 0.0
C346 C 0.00227 0.88775 0.39311 0.0
C347 C 0.05376 0.91062 0.38 0.0
C348 C 0.97631 0.91886 0.39637 0.0
C349 C 0.00185 0.97371 0.38709 0.0
C350 C 0.05434 -0.00294 0.37512 0.0
C351 C 0.07977 0.96585 0.37146 0.0
C352 C 0.97255 0.0916 0.39241 0.0
C353 C 0.91942 0.06753 0.38077 0.0
C354 C -0.00104 0.06079 0.39539 0.0
C355 C 0.97225 0.00512 0.38732 0.0
C356 C 0.91818 0.98065 0.37698 0.0
C357 C 0.89228 0.01152 0.37357 0.0
H358 H 0.13323 0.97192 0.72598 0.0
H359 H 0.13858 0.12361 0.70549 0.0
H360 H 0.03282 0.92707 0.73178 0.0
H361 H 0.03943 0.07964 0.71158 0.0
H362 H 0.86013 0.99187 0.73736 0.0
H363 H 0.95956 0.03259 0.74522 0.0
H364 H 0.9583 0.9044 0.69517 0.0
H365 H 0.86003 0.86433 0.68717 0.0
C366 C 0.11315 -0.0041 0.72346 0.0
C367 C 0.14345 0.05102 0.71511 0.0
C368 C 0.05578 0.97031 0.7266 0.0
C369 C 0.02811 -0.00019 0.72206 0.0
C370 C 0.05931 0.05583 0.7155 0.0
C371 C 0.11611 0.08092 0.71182 0.0
C372 C 0.88108 0.97216 0.72835 0.0
C373 C 0.85228 0.92534 0.71133 0.0
C374 C 0.93795 -0.00458 0.73282 0.0
C375 C 0.96685 0.97165 0.72084 0.0
C376 C 0.93735 0.9234 0.70498 0.0
C377 C 0.88098 0.9008 0.70014 0.0
H378 H 0.14606 0.24867 0.91451 0.0
H379 H 0.2575 0.22852 0.9693 0.0
H380 H 0.17241 0.21154 0.87555 0.0
H381 H 0.28211 0.18866 0.93047 0.0
H382 H 0.37232 0.20875 0.84611 0.0
H383 H 0.33566 0.22398 0.889 0.0
H384 H 0.17156 0.13468 0.85386 0.0
H385 H 0.20909 0.12161 0.81021 0.0
C386 C 0.17585 0.23581 0.91834 0.0
C387 C 0.20041 0.24264 0.94498 0.0
C388 C 0.19036 0.2136 0.89602 0.0
C389 C 0.2297 0.1973 0.89971 0.0
C390 C 0.25226 0.20153 0.92673 0.0
C391 C 0.23778 0.22392 0.9491 0.0
C392 C 0.32836 0.19207 0.84757 0.0
C393 C 0.29377 0.16483 0.82453 0.0
C394 C 0.30715 0.20018 0.87237 0.0
C395 C 0.2506 0.18105 0.87492 0.0
C396 C 0.21546 0.15081 0.85247 0.0
C397 C 0.23682 0.14274 0.82755 0.0
H398 H 0.05146 0.23184 0.1359 0.0
H399 H 0.19159 0.33658 0.1882 0.0
H400 H -0.00736 0.20294 0.17695 0.0
H401 H 0.132 0.30912 0.22931 0.0
H402 H 0.01124 0.2078 0.3007 0.0
H403 H 0.07437 0.23269 0.26099 0.0
H404 H 0.95601 0.24462 0.20772 0.0
H405 H 0.89354 0.22001 0.24704 0.0
C406 C 0.07 0.24831 0.15616 0.0
C407 C 0.12647 0.28674 0.15861 0.0
C408 C 0.036 0.23224 0.17973 0.0
C409 C 0.05739 0.25417 0.20644 0.0
C410 C 0.11415 0.29124 0.2091 0.0
C411 C 0.14824 0.30739 0.18547 0.0
C412 C -0.00105 0.21612 0.28055 0.0
C413 C 0.94696 0.21122 0.27705 0.0
C414 C 0.0351 0.23034 0.25778 0.0
C415 C 0.02 0.23995 0.23103 0.0
C416 C 0.96849 0.23611 0.22778 0.0
C417 C 0.93256 0.22197 0.25042 0.0
H418 H 0.89531 0.11958 0.49085 0.0
H419 H 0.76497 0.15619 0.50208 0.0
H420 H 0.86365 0.06031 0.53259 0.0
H421 H 0.73347 0.09726 0.5434 0.0
H422 H 0.65315 0.92799 0.58796 0.0
H423 H 0.6907 -0.00754 0.54889 0.0
H424 H 0.85156 0.06851 0.5876 0.0
H425 H 0.81341 0.0038 0.62714 0.0
C426 C 0.8602 0.1152 0.50232 0.0
C427 C 0.83284 0.14275 0.49327 0.0
C428 C 0.84234 0.08167 0.52625 0.0
C429 C 0.7961 0.07423 0.5412 0.0
C430 C 0.76911 0.10213 0.53224 0.0
C431 C 0.78745 0.13623 0.5087 0.0
C432 C 0.69652 0.95843 0.58812 0.0
C433 C 0.73043 0.96088 0.61052 0.0
C434 C 0.71794 -0.00448 0.56586 0.0
C435 C 0.77403 0.03546 0.56521 0.0
C436 C 0.80821 0.03793 0.58754 0.0
C437 C 0.78642 0.00133 0.61018 0.0
H438 H 0.61392 0.79615 0.84384 0.0
H439 H 0.78061 0.87051 0.81356 0.0
H440 H 0.63941 0.76325 0.88521 0.0
H441 H 0.80642 0.83785 0.85523 0.0
H442 H 0.81453 0.71497 0.91569 0.0
H443 H 0.79258 0.75399 0.87559 0.0
H444 H 0.69097 0.79102 0.92837 0.0
H445 H 0.71096 0.74954 0.96833 0.0
C446 C 0.65627 0.80627 0.84617 0.0
C447 C 0.69521 0.83615 0.82527 0.0
C448 C 0.67095 0.78737 0.87 0.0
C449 C 0.72503 0.79787 0.87369 0.0
C450 C 0.76417 0.82826 0.85294 0.0
C451 C 0.74942 0.84705 0.82902 0.0
C452 C 0.78716 0.73099 0.9188 0.0
C453 C 0.76415 0.72848 0.94533 0.0
C454 C 0.77515 0.75415 0.89579 0.0
C455 C 0.73989 0.77567 0.89863 0.0
C456 C 0.71772 0.77421 0.92528 0.0
C457 C 0.7297 0.75094 0.94833 0.0
H458 H 0.91805 0.75067 0.13756 0.0
H459 H 0.77841 0.65912 0.19179 0.0
H460 H 0.97928 0.77766 0.17801 0.0
H461 H 0.84014 0.68442 0.23228 0.0
H462 H 0.96757 0.78095 0.30204 0.0
H463 H 0.9039 0.76005 0.26259 0.0
H464 H 0.01194 0.73291 0.20944 0.0
H465 H 0.07511 0.75368 0.24859 0.0
C466 C 0.90019 0.73678 0.15812 0.0
C467 C 0.84307 0.70254 0.16131 0.0
C468 C 0.9355 0.75167 0.18134 0.0
C469 C 0.91478 0.73273 0.20842 0.0
C470 C 0.85755 0.69998 0.21178 0.0
C471 C 0.82216 0.68504 0.18851 0.0
C472 C 0.97748 0.77015 0.28198 0.0
C473 C 0.02677 0.76945 0.2785 0.0
C474 C 0.94101 0.75822 0.25935 0.0
C475 C 0.95302 0.74533 0.23273 0.0
C476 C 0.00194 0.74396 0.22943 0.0
C477 C 0.03825 0.75586 0.25196 0.0
H478 H 0.32609 0.05642 0.58505 0.0
H479 H 0.19048 0.9505 0.63873 0.0
H480 H 0.2775 -0.00053 0.54477 0.0
H481 H 0.14074 0.89376 0.59796 0.0
H482 H 0.11173 0.7719 0.5237 0.0
H483 H 0.14885 0.82969 0.56544 0.0
H484 H 0.19825 0.97379 0.51449 0.0
H485 H 0.16288 0.91635 0.47278 0.0
C486 C 0.28578 0.02093 0.58826 0.0
C487 C 0.26245 0.00778 0.6152 0.0
C488 C 0.25754 0.98862 0.56504 0.0
C489 C 0.20509 0.94209 0.56807 0.0
C490 C 0.18123 0.92916 0.59495 0.0
C491 C 0.20951 0.96187 0.61826 0.0
C492 C 0.13023 0.81589 0.52146 0.0
C493 C 0.13459 0.83938 0.49482 0.0
C494 C 0.15104 0.84899 0.54543 0.0
C495 C 0.17695 0.90642 0.54329 0.0
C496 C 0.1792 0.92973 0.51683 0.0
C497 C 0.15827 0.89667 0.49291 0.0
loop_
_geom_bond_atom_site_label_1
_geom_bond_atom_site_label_2
_geom_bond_distance
_geom_bond_site_symmetry_2
_ccdc_geom_bond_type
C0 C1 1.351 . S
C0 N3 1.368 . S
C0 H5 0.931 . S
C1 C0 1.351 . S
C1 N2 1.373 . S
C1 H29 0.930 . S
N2 C1 1.373 . S
N2 C4 1.340 . S
N3 C0 1.368 . S
N3 C4 1.321 . S
N3 Co6 2.135 . S
C4 N2 1.340 . S
C4 N3 1.321 . S
C4 H28 0.930 . S
H5 C0 0.931 . S
Co6 N3 2.135 . S
Co6 N9 2.121 1_554 S
Co6 O14 2.055 . S
Co6 O17 2.039 . S
Co6 N20 2.140 . S
C7 O8 1.227 . S
C7 O17 1.265 . S
O8 C7 1.227 . S
N9 Co6 2.121 1_556 S
N9 C11 1.375 . S
N9 C12 1.313 . S
C10 C11 1.338 . S
C10 N13 1.377 . S
C10 H30 0.930 . S
C11 N9 1.375 . S
C11 C10 1.338 . S
C11 H15 0.931 . S
C12 N9 1.313 . S
C12 N13 1.344 . S
C12 H16 0.930 . S
N13 C10 1.377 . S
N13 C12 1.344 . S
O14 Co6 2.055 . S
O14 C18 1.253 . S
H15 C11 0.931 . S
H16 C12 0.930 . S
O17 Co6 2.039 . S
O17 C7 1.265 . S
C18 O14 1.253 . S
C18 O19 1.227 . S
O19 C18 1.227 . S
N20 Co6 2.140 . S
N20 C23 1.346 . S
N20 C24 1.345 1_554 S
C21 C22 1.387 1_556 S
C21 C25 1.391 . S
C22 C21 1.387 1_554 S
C22 C23 1.369 . S
C22 H31 0.929 . S
C23 N20 1.346 . S
C23 C22 1.369 . S
C23 H26 0.928 . S
C24 N20 1.345 1_556 S
C24 C25 1.371 . S
C24 H27 0.931 . S
C25 C21 1.391 . S
C25 C24 1.371 . S
C25 H32 0.930 . S
H26 C23 0.928 . S
H27 C24 0.931 . S
H28 C4 0.930 . S
H29 C1 0.930 . S
H30 C10 0.930 . S
H31 C22 0.929 . S
H32 C25 0.930 . S
C33 C34 1.351 . S
C33 N36 1.368 . S
C33 H38 0.931 . S
C34 C33 1.351 . S
C34 N35 1.373 . S
C34 H62 0.930 . S
N35 C34 1.373 . S
N35 C37 1.340 . S
N36 C33 1.368 . S
N36 C37 1.321 . S
N36 Co39 2.135 . S
C37 N35 1.340 . S
C37 N36 1.321 . S
C37 H61 0.930 . S
H38 C33 0.931 . S
Co39 N36 2.135 . S
Co39 N42 2.121 . S
Co39 O47 2.055 . S
Co39 O50 2.039 . S
Co39 N53 2.140 . S
C40 O41 1.227 . S
C40 O50 1.265 . S
O41 C40 1.227 . S
N42 Co39 2.121 . S
N42 C44 1.375 . S
N42 C45 1.313 . S
C43 C44 1.338 . S
C43 N46 1.377 . S
C43 H63 0.930 . S
C44 N42 1.375 . S
C44 C43 1.338 . S
C44 H48 0.931 . S
C45 N42 1.313 . S
C45 N46 1.344 . S
C45 H49 0.930 . S
N46 C43 1.377 . S
N46 C45 1.344 . S
O47 Co39 2.055 . S
O47 C51 1.253 . S
H48 C44 0.931 . S
H49 C45 0.930 . S
O50 Co39 2.039 . S
O50 C40 1.265 . S
C51 O47 1.253 . S
C51 O52 1.227 . S
O52 C51 1.227 . S
N53 Co39 2.140 . S
N53 C56 1.346 . S
N53 C57 1.345 . S
C54 C55 1.387 . S
C54 C58 1.391 . S
C55 C54 1.387 . S
C55 C56 1.369 . S
C55 H64 0.929 . S
C56 N53 1.346 . S
C56 C55 1.369 . S
C56 H59 0.928 . S
C57 N53 1.345 . S
C57 C58 1.371 . S
C57 H60 0.931 . S
C58 C54 1.391 . S
C58 C57 1.371 . S
C58 H65 0.930 . S
H59 C56 0.928 . S
H60 C57 0.931 . S
H61 C37 0.930 . S
H62 C34 0.930 . S
H63 C43 0.930 . S
H64 C55 0.929 . S
H65 C58 0.930 . S
C66 C67 1.351 . S
C66 N69 1.368 . S
C66 H71 0.931 . S
C67 C66 1.351 . S
C67 N68 1.373 . S
C67 H95 0.930 . S
N68 C67 1.373 . S
N68 C70 1.340 . S
N69 C66 1.368 . S
N69 C70 1.321 . S
N69 Co72 2.135 . S
C70 N68 1.340 . S
C70 N69 1.321 . S
C70 H94 0.930 . S
H71 C66 0.931 . S
Co72 N69 2.135 . S
Co72 N75 2.121 . S
Co72 O80 2.055 . S
Co72 O83 2.039 . S
Co72 N86 2.140 . S
C73 O74 1.227 . S
C73 O83 1.265 . S
O74 C73 1.227 . S
N75 Co72 2.121 . S
N75 C77 1.375 . S
N75 C78 1.313 . S
C76 C77 1.338 . S
C76 N79 1.377 . S
C76 H96 0.930 . S
C77 N75 1.375 . S
C77 C76 1.338 . S
C77 H81 0.931 . S
C78 N75 1.313 . S
C78 N79 1.344 . S
C78 H82 0.930 . S
N79 C76 1.377 . S
N79 C78 1.344 . S
O80 Co72 2.055 . S
O80 C84 1.253 . S
H81 C77 0.931 . S
H82 C78 0.930 . S
O83 Co72 2.039 . S
O83 C73 1.265 . S
C84 O80 1.253 . S
C84 O85 1.227 . S
O85 C84 1.227 . S
N86 Co72 2.140 . S
N86 C89 1.346 . S
N86 C90 1.345 . S
C87 C88 1.387 . S
C87 C91 1.391 . S
C88 C87 1.387 . S
C88 C89 1.369 . S
C88 H97 0.929 . S
C89 N86 1.346 . S
C89 C88 1.369 . S
C89 H92 0.928 . S
C90 N86 1.345 . S
C90 C91 1.371 . S
C90 H93 0.931 . S
C91 C87 1.391 . S
C91 C90 1.371 . S
C91 H98 0.930 . S
H92 C89 0.928 . S
H93 C90 0.931 . S
H94 C70 0.930 . S
H95 C67 0.930 . S
H96 C76 0.930 . S
H97 C88 0.929 . S
H98 C91 0.930 . S
C99 C100 1.351 . S
C99 N102 1.368 . S
C99 H104 0.931 . S
C100 C99 1.351 . S
C100 N101 1.373 . S
C100 H128 0.930 . S
N101 C100 1.373 . S
N101 C103 1.340 . S
N102 C99 1.368 . S
N102 C103 1.321 . S
N102 Co105 2.135 . S
C103 N101 1.340 . S
C103 N102 1.321 . S
C103 H127 0.930 . S
H104 C99 0.931 . S
Co105 N102 2.135 . S
Co105 N108 2.121 1_554 S
Co105 O113 2.055 . S
Co105 O116 2.039 . S
Co105 N119 2.140 . S
C106 O107 1.227 . S
C106 O116 1.265 . S
O107 C106 1.227 . S
N108 Co105 2.121 1_556 S
N108 C110 1.375 . S
N108 C111 1.313 . S
C109 C110 1.338 . S
C109 N112 1.377 . S
C109 H129 0.930 . S
C110 N108 1.375 . S
C110 C109 1.338 . S
C110 H114 0.931 . S
C111 N108 1.313 . S
C111 N112 1.344 . S
C111 H115 0.930 . S
N112 C109 1.377 . S
N112 C111 1.344 . S
O113 Co105 2.055 . S
O113 C117 1.253 . S
H114 C110 0.931 . S
H115 C111 0.930 . S
O116 Co105 2.039 . S
O116 C106 1.265 . S
C117 O113 1.253 . S
C117 O118 1.227 . S
O118 C117 1.227 . S
N119 Co105 2.140 . S
N119 C122 1.346 . S
N119 C123 1.345 1_554 S
C120 C121 1.387 1_556 S
C120 C124 1.391 . S
C121 C120 1.387 1_554 S
C121 C122 1.369 . S
C121 H130 0.929 . S
C122 N119 1.346 . S
C122 C121 1.369 . S
C122 H125 0.928 . S
C123 N119 1.345 1_556 S
C123 C124 1.371 . S
C123 H126 0.931 . S
C124 C120 1.391 . S
C124 C123 1.371 . S
C124 H131 0.930 . S
H125 C122 0.928 . S
H126 C123 0.931 . S
H127 C103 0.930 . S
H128 C100 0.930 . S
H129 C109 0.930 . S
H130 C121 0.929 . S
H131 C124 0.930 . S
C132 C133 1.351 . S
C132 N135 1.368 . S
C132 H137 0.931 . S
C133 C132 1.351 . S
C133 N134 1.373 . S
C133 H161 0.930 . S
N134 C133 1.373 . S
N134 C136 1.340 . S
N135 C132 1.368 . S
N135 C136 1.321 . S
N135 Co138 2.135 . S
C136 N134 1.340 . S
C136 N135 1.321 . S
C136 H160 0.930 . S
H137 C132 0.931 . S
Co138 N135 2.135 . S
Co138 N141 2.121 . S
Co138 O146 2.055 . S
Co138 O149 2.039 . S
Co138 N152 2.140 . S
C139 O140 1.227 . S
C139 O149 1.265 . S
O140 C139 1.227 . S
N141 Co138 2.121 . S
N141 C143 1.375 . S
N141 C144 1.313 . S
C142 C143 1.338 . S
C142 N145 1.377 . S
C142 H162 0.930 . S
C143 N141 1.375 . S
C143 C142 1.338 . S
C143 H147 0.931 . S
C144 N141 1.313 . S
C144 N145 1.344 . S
C144 H148 0.930 . S
N145 C142 1.377 . S
N145 C144 1.344 . S
O146 Co138 2.055 . S
O146 C150 1.253 . S
H147 C143 0.931 . S
H148 C144 0.930 . S
O149 Co138 2.039 . S
O149 C139 1.265 . S
C150 O146 1.253 . S
C150 O151 1.227 . S
O151 C150 1.227 . S
N152 Co138 2.140 . S
N152 C155 1.346 . S
N152 C156 1.345 . S
C153 C154 1.387 . S
C153 C157 1.391 . S
C154 C153 1.387 . S
C154 C155 1.369 . S
C154 H163 0.929 . S
C155 N152 1.346 . S
C155 C154 1.369 . S
C155 H158 0.928 . S
C156 N152 1.345 . S
C156 C157 1.371 . S
C156 H159 0.931 . S
C157 C153 1.391 . S
C157 C156 1.371 . S
C157 H164 0.930 . S
H158 C155 0.928 . S
H159 C156 0.931 . S
H160 C136 0.930 . S
H161 C133 0.930 . S
H162 C142 0.930 . S
H163 C154 0.929 . S
H164 C157 0.930 . S
C165 C166 1.351 . S
C165 N168 1.368 . S
C165 H170 0.931 . S
C166 C165 1.351 . S
C166 N167 1.373 . S
C166 H194 0.930 . S
N167 C166 1.373 . S
N167 C169 1.340 . S
N168 C165 1.368 . S
N168 C169 1.321 . S
N168 Co171 2.135 . S
C169 N167 1.340 . S
C169 N168 1.321 . S
C169 H193 0.930 . S
H170 C165 0.931 . S
Co171 N168 2.135 . S
Co171 N174 2.121 . S
Co171 O179 2.055 . S
Co171 O182 2.039 . S
Co171 N185 2.140 . S
C172 O173 1.227 . S
C172 O182 1.265 . S
O173 C172 1.227 . S
N174 Co171 2.121 . S
N174 C176 1.375 . S
N174 C177 1.313 . S
C175 C176 1.338 . S
C175 N178 1.377 . S
C175 H195 0.930 . S
C176 N174 1.375 . S
C176 C175 1.338 . S
C176 H180 0.931 . S
C177 N174 1.313 . S
C177 N178 1.344 . S
C177 H181 0.930 . S
N178 C175 1.377 . S
N178 C177 1.344 . S
O179 Co171 2.055 . S
O179 C183 1.253 . S
H180 C176 0.931 . S
H181 C177 0.930 . S
O182 Co171 2.039 . S
O182 C172 1.265 . S
C183 O179 1.253 . S
C183 O184 1.227 . S
O184 C183 1.227 . S
N185 Co171 2.140 . S
N185 C188 1.346 . S
N185 C189 1.345 . S
C186 C187 1.387 . S
C186 C190 1.391 . S
C187 C186 1.387 . S
C187 C188 1.369 . S
C187 H196 0.929 . S
C188 N185 1.346 . S
C188 C187 1.369 . S
C188 H191 0.928 . S
C189 N185 1.345 . S
C189 C190 1.371 . S
C189 H192 0.931 . S
C190 C186 1.391 . S
C190 C189 1.371 . S
C190 H197 0.930 . S
H191 C188 0.928 . S
H192 C189 0.931 . S
H193 C169 0.930 . S
H194 C166 0.930 . S
H195 C175 0.930 . S
H196 C187 0.929 . S
H197 C190 0.930 . S
H198 C206 0.950 . S
H199 C211 0.950 . S
H200 C208 0.950 . S
H201 C210 0.950 . S
H202 C212 0.961 . S
H203 C214 0.950 . S
H204 C216 0.950 . S
H205 C217 0.950 . S
C206 H198 0.950 . S
C206 C207 1.386 . S
C206 C208 1.391 . S
C207 C206 1.386 . S
C207 C211 1.393 . S
C208 H200 0.950 . S
C208 C206 1.391 . S
C208 C209 1.400 . S
C209 C208 1.400 . S
C209 C210 1.398 . S
C209 C215 1.491 . S
C210 H201 0.950 . S
C210 C209 1.398 . S
C210 C211 1.391 . S
C211 H199 0.950 . S
C211 C207 1.393 . S
C211 C210 1.391 . S
C212 H202 0.961 . S
C212 C213 1.386 . S
C212 C214 1.391 . S
C213 C212 1.386 . S
C213 C217 1.393 . S
C214 H203 0.950 . S
C214 C212 1.391 . S
C214 C215 1.400 . S
C215 C209 1.491 . S
C215 C214 1.400 . S
C215 C216 1.398 . S
C216 H204 0.950 . S
C216 C215 1.398 . S
C216 C217 1.391 . S
C217 H205 0.950 . S
C217 C213 1.393 . S
C217 C216 1.391 . S
H218 C226 0.950 . S
H219 C231 0.950 . S
H220 C228 0.950 . S
H221 C230 0.950 . S
H222 C232 0.950 . S
H223 C234 0.950 . S
H224 C236 0.950 . S
H225 C237 0.950 . S
C226 H218 0.950 . S
C226 C227 1.386 . S
C226 C228 1.391 . S
C227 C226 1.386 . S
C227 C231 1.393 . S
C228 H220 0.950 . S
C228 C226 1.391 . S
C228 C229 1.400 . S
C229 C228 1.400 . S
C229 C230 1.398 . S
C229 C235 1.491 1_655 S
C230 H221 0.950 . S
C230 C229 1.398 . S
C230 C231 1.391 . S
C231 H219 0.950 . S
C231 C227 1.393 . S
C231 C230 1.391 . S
C232 H222 0.950 . S
C232 C233 1.386 . S
C232 C234 1.391 . S
C233 C232 1.386 . S
C233 C237 1.393 . S
C234 H223 0.950 . S
C234 C232 1.391 . S
C234 C235 1.400 . S
C235 C229 1.491 1_455 S
C235 C234 1.400 . S
C235 C236 1.398 . S
C236 H224 0.950 . S
C236 C235 1.398 . S
C236 C237 1.391 . S
C237 H225 0.950 . S
C237 C233 1.393 . S
C237 C236 1.391 . S
H238 C246 0.950 . S
H239 C251 0.950 . S
H240 C248 0.950 1_565 S
H241 C250 0.950 . S
H242 C252 0.950 . S
H243 C254 0.950 1_545 S
H244 C256 0.950 . S
H245 C257 0.950 . S
C246 H238 0.950 . S
C246 C247 1.386 . S
C246 C248 1.391 . S
C247 C246 1.386 . S
C247 C251 1.393 . S
C248 H240 0.950 1_545 S
C248 C246 1.391 . S
C248 C249 1.400 . S
C249 C248 1.400 . S
C249 C250 1.398 . S
C249 C255 1.491 1_545 S
C250 H241 0.950 . S
C250 C249 1.398 . S
C250 C251 1.391 . S
C251 H239 0.950 . S
C251 C247 1.393 . S
C251 C250 1.391 . S
C252 H242 0.950 . S
C252 C253 1.386 . S
C252 C254 1.391 . S
C253 C252 1.386 . S
C253 C257 1.393 . S
C254 H243 0.950 1_565 S
C254 C252 1.391 . S
C254 C255 1.400 . S
C255 C249 1.491 1_565 S
C255 C254 1.400 . S
C255 C256 1.398 . S
C256 H244 0.950 . S
C256 C255 1.398 . S
C256 C257 1.391 . S
C257 H245 0.950 . S
C257 C253 1.393 . S
C257 C256 1.391 . S
H258 C266 0.950 . S
H259 C271 0.950 . S
H260 C268 0.950 . S
H261 C270 0.950 . S
H262 C272 0.950 . S
H263 C274 0.950 . S
H264 C276 0.950 . S
H265 C277 0.950 . S
C266 H258 0.950 . S
C266 C267 1.386 . S
C266 C268 1.391 . S
C267 C266 1.386 . S
C267 C271 1.393 . S
C268 H260 0.950 . S
C268 C266 1.391 . S
C268 C269 1.400 . S
C269 C268 1.400 . S
C269 C270 1.398 . S
C269 C275 1.491 . S
C270 H261 0.950 . S
C270 C269 1.398 . S
C270 C271 1.391 . S
C271 H259 0.950 . S
C271 C267 1.393 . S
C271 C270 1.391 . S
C272 H262 0.950 . S
C272 C273 1.386 . S
C272 C274 1.391 . S
C273 C272 1.386 . S
C273 C277 1.393 . S
C274 H263 0.950 . S
C274 C272 1.391 . S
C274 C275 1.400 . S
C275 C269 1.491 . S
C275 C274 1.400 . S
C275 C276 1.398 . S
C276 H264 0.950 . S
C276 C275 1.398 . S
C276 C277 1.391 . S
C277 H265 0.950 . S
C277 C273 1.393 . S
C277 C276 1.391 . S
H278 C286 0.950 . S
H279 C291 0.950 . S
H280 C288 0.950 . S
H281 C290 0.950 . S
H282 C292 0.950 . S
H283 C294 0.950 . S
H284 C296 0.950 . S
H285 C297 0.950 . S
C286 H278 0.950 . S
C286 C287 1.386 . S
C286 C288 1.391 . S
C287 C286 1.386 . S
C287 C291 1.393 1_556 S
C288 H280 0.950 . S
C288 C286 1.391 . S
C288 C289 1.400 . S
C289 C288 1.400 . S
C289 C290 1.398 1_656 S
C289 C295 1.491 1_655 S
C290 H281 0.950 . S
C290 C289 1.398 1_454 S
C290 C291 1.391 1_455 S
C291 H279 0.950 . S
C291 C287 1.393 1_554 S
C291 C290 1.391 1_655 S
C292 H282 0.950 . S
C292 C293 1.386 1_554 S
C292 C294 1.391 . S
C293 C292 1.386 1_556 S
C293 C297 1.393 . S
C294 H283 0.950 . S
C294 C292 1.391 . S
C294 C295 1.400 1_554 S
C295 C289 1.491 1_455 S
C295 C294 1.400 1_556 S
C295 C296 1.398 1_455 S
C296 H284 0.950 . S
C296 C295 1.398 1_655 S
C296 C297 1.391 1_655 S
C297 H285 0.950 . S
C297 C293 1.393 . S
C297 C296 1.391 1_455 S
H298 C306 0.950 . S
H299 C311 0.950 . S
H300 C308 0.950 . S
H301 C310 0.950 . S
H302 C312 0.950 . S
H303 C314 0.950 . S
H304 C316 0.950 . S
H305 C317 0.950 . S
C306 H298 0.950 . S
C306 C307 1.386 . S
C306 C308 1.391 . S
C307 C306 1.386 . S
C307 C311 1.393 1_565 S
C308 H300 0.950 . S
C308 C306 1.391 . S
C308 C309 1.400 . S
C309 C308 1.400 . S
C309 C310 1.398 1_565 S
C309 C315 1.491 1_565 S
C310 H301 0.950 . S
C310 C309 1.398 1_545 S
C310 C311 1.391 . S
C311 H299 0.950 . S
C311 C307 1.393 1_545 S
C311 C310 1.391 . S
C312 H302 0.950 . S
C312 C313 1.386 . S
C312 C314 1.391 . S
C313 C312 1.386 . S
C313 C317 1.393 1_545 S
C314 H303 0.950 . S
C314 C312 1.391 . S
C314 C315 1.400 . S
C315 C309 1.491 1_545 S
C315 C314 1.400 . S
C315 C316 1.398 1_545 S
C316 H304 0.950 . S
C316 C315 1.398 1_565 S
C316 C317 1.391 . S
C317 H305 0.950 . S
C317 C313 1.393 1_565 S
C317 C316 1.391 . S
H318 C326 0.950 . S
H319 C331 0.950 . S
H320 C328 0.950 1_655 S
H321 C330 0.950 . S
H322 C332 0.950 . S
H323 C334 0.950 1_455 S
H324 C336 0.950 . S
H325 C337 0.950 . S
C326 H318 0.950 . S
C326 C327 1.386 . S
C326 C328 1.391 . S
C327 C326 1.386 . S
C327 C331 1.393 1_554 S
C328 H320 0.950 1_455 S
C328 C326 1.391 . S
C328 C329 1.400 . S
C329 C328 1.400 . S
C329 C330 1.398 1_554 S
C329 C335 1.491 1_445 S
C330 H321 0.950 . S
C330 C329 1.398 1_556 S
C330 C331 1.391 . S
C331 H319 0.950 . S
C331 C327 1.393 1_556 S
C331 C330 1.391 . S
C332 H322 0.950 . S
C332 C333 1.386 1_556 S
C332 C334 1.391 . S
C333 C332 1.386 1_554 S
C333 C337 1.393 . S
C334 H323 0.950 1_655 S
C334 C332 1.391 . S
C334 C335 1.400 1_556 S
C335 C329 1.491 1_665 S
C335 C334 1.400 1_554 S
C335 C336 1.398 . S
C336 H324 0.950 . S
C336 C335 1.398 . S
C336 C337 1.391 . S
C337 H325 0.950 . S
C337 C333 1.393 . S
C337 C336 1.391 . S
H338 C346 0.950 . S
H339 C351 0.950 . S
H340 C348 0.950 1_655 S
H341 C350 0.950 . S
H342 C352 0.950 . S
H343 C354 0.950 1_455 S
H344 C356 0.950 . S
H345 C357 0.950 . S
C346 H338 0.950 . S
C346 C347 1.386 . S
C346 C348 1.391 . S
C347 C346 1.386 . S
C347 C351 1.393 . S
C348 H340 0.950 1_455 S
C348 C346 1.391 . S
C348 C349 1.400 . S
C349 C348 1.400 . S
C349 C350 1.398 1_565 S
C349 C355 1.491 1_465 S
C350 H341 0.950 . S
C350 C349 1.398 1_545 S
C350 C351 1.391 1_545 S
C351 H339 0.950 . S
C351 C347 1.393 . S
C351 C350 1.391 1_565 S
C352 H342 0.950 . S
C352 C353 1.386 . S
C352 C354 1.391 . S
C353 C352 1.386 . S
C353 C357 1.393 . S
C354 H343 0.950 1_655 S
C354 C352 1.391 . S
C354 C355 1.400 . S
C355 C349 1.491 1_645 S
C355 C354 1.400 . S
C355 C356 1.398 1_545 S
C356 H344 0.950 . S
C356 C355 1.398 1_565 S
C356 C357 1.391 1_565 S
C357 H345 0.950 . S
C357 C353 1.393 . S
C357 C356 1.391 1_545 S
H358 C366 0.950 . S
H359 C371 0.950 . S
H360 C368 0.950 . S
H361 C370 0.950 . S
H362 C372 0.950 . S
H363 C374 0.950 . S
H364 C376 0.950 . S
H365 C377 0.950 . S
C366 H358 0.950 . S
C366 C367 1.386 . S
C366 C368 1.391 . S
C367 C366 1.386 . S
C367 C371 1.393 . S
C368 H360 0.950 . S
C368 C366 1.391 . S
C368 C369 1.400 . S
C369 C368 1.400 . S
C369 C370 1.398 . S
C369 C375 1.491 1_445 S
C370 H361 0.950 . S
C370 C369 1.398 . S
C370 C371 1.391 . S
C371 H359 0.950 . S
C371 C367 1.393 . S
C371 C370 1.391 . S
C372 H362 0.950 . S
C372 C373 1.386 . S
C372 C374 1.391 . S
C373 C372 1.386 . S
C373 C377 1.393 . S
C374 H363 0.950 . S
C374 C372 1.391 . S
C374 C375 1.400 . S
C375 C369 1.491 1_665 S
C375 C374 1.400 . S
C375 C376 1.398 . S
C376 H364 0.950 . S
C376 C375 1.398 . S
C376 C377 1.391 . S
C377 H365 0.950 . S
C377 C373 1.393 . S
C377 C376 1.391 . S
H378 C386 0.950 . S
H379 C391 0.950 . S
H380 C388 0.950 . S
H381 C390 0.950 . S
H382 C392 0.950 . S
H383 C394 0.950 . S
H384 C396 0.950 . S
H385 C397 0.950 . S
C386 H378 0.950 . S
C386 C387 1.386 . S
C386 C388 1.391 . S
C387 C386 1.386 . S
C387 C391 1.393 . S
C388 H380 0.950 . S
C388 C386 1.391 . S
C388 C389 1.400 . S
C389 C388 1.400 . S
C389 C390 1.398 . S
C389 C395 1.491 . S
C390 H381 0.950 . S
C390 C389 1.398 . S
C390 C391 1.391 . S
C391 H379 0.950 . S
C391 C387 1.393 . S
C391 C390 1.391 . S
C392 H382 0.950 . S
C392 C393 1.386 . S
C392 C394 1.391 . S
C393 C392 1.386 . S
C393 C397 1.393 . S
C394 H383 0.950 . S
C394 C392 1.391 . S
C394 C395 1.400 . S
C395 C389 1.491 . S
C395 C394 1.400 . S
C395 C396 1.398 . S
C396 H384 0.950 . S
C396 C395 1.398 . S
C396 C397 1.391 . S
C397 H385 0.950 . S
C397 C393 1.393 . S
C397 C396 1.391 . S
H398 C406 0.950 . S
H399 C411 0.950 . S
H400 C408 0.950 1_655 S
H401 C410 0.950 . S
H402 C412 0.952 . S
H403 C414 0.950 . S
H404 C416 0.950 . S
H405 C417 0.950 . S
C406 H398 0.950 . S
C406 C407 1.386 . S
C406 C408 1.391 . S
C407 C406 1.386 . S
C407 C411 1.393 . S
C408 H400 0.950 1_455 S
C408 C406 1.391 . S
C408 C409 1.400 . S
C409 C408 1.400 . S
C409 C410 1.398 . S
C409 C415 1.491 . S
C410 H401 0.950 . S
C410 C409 1.398 . S
C410 C411 1.391 . S
C411 H399 0.950 . S
C411 C407 1.393 . S
C411 C410 1.391 . S
C412 H402 0.952 . S
C412 C413 1.377 1_455 S
C412 C414 1.398 . S
C413 C412 1.377 1_655 S
C413 C417 1.393 . S
C414 H403 0.950 . S
C414 C412 1.398 . S
C414 C415 1.400 . S
C415 C409 1.491 . S
C415 C414 1.400 . S
C415 C416 1.398 1_455 S
C416 H404 0.950 . S
C416 C415 1.398 1_655 S
C416 C417 1.391 . S
C417 H405 0.950 . S
C417 C413 1.393 . S
C417 C416 1.391 . S
H418 C426 0.950 . S
H419 C431 0.950 . S
H420 C428 0.950 . S
H421 C430 0.950 . S
H422 C432 0.950 . S
H423 C434 0.950 . S
H424 C436 0.950 1_545 S
H425 C437 0.950 . S
C426 H418 0.950 . S
C426 C427 1.386 . S
C426 C428 1.391 . S
C427 C426 1.386 . S
C427 C431 1.393 . S
C428 H420 0.950 . S
C428 C426 1.391 . S
C428 C429 1.400 . S
C429 C428 1.400 . S
C429 C430 1.398 . S
C429 C435 1.491 . S
C430 H421 0.950 . S
C430 C429 1.398 . S
C430 C431 1.391 . S
C431 H419 0.950 . S
C431 C427 1.393 . S
C431 C430 1.391 . S
C432 H422 0.950 . S
C432 C433 1.386 . S
C432 C434 1.391 . S
C433 C432 1.386 . S
C433 C437 1.393 . S
C434 H423 0.950 . S
C434 C432 1.391 . S
C434 C435 1.400 1_565 S
C435 C429 1.491 . S
C435 C434 1.400 1_545 S
C435 C436 1.398 1_545 S
C436 H424 0.950 1_565 S
C436 C435 1.398 1_565 S
C436 C437 1.391 . S
C437 H425 0.950 . S
C437 C433 1.393 . S
C437 C436 1.391 . S
H438 C446 0.950 . S
H439 C451 0.950 . S
H440 C448 0.950 . S
H441 C450 0.950 . S
H442 C452 0.950 . S
H443 C454 0.950 . S
H444 C456 0.950 . S
H445 C457 0.950 . S
C446 H438 0.950 . S
C446 C447 1.386 . S
C446 C448 1.391 . S
C447 C446 1.386 . S
C447 C451 1.393 . S
C448 H440 0.950 . S
C448 C446 1.391 . S
C448 C449 1.400 . S
C449 C448 1.400 . S
C449 C450 1.398 . S
C449 C455 1.491 . S
C450 H441 0.950 . S
C450 C449 1.398 . S
C450 C451 1.391 . S
C451 H439 0.950 . S
C451 C447 1.393 . S
C451 C450 1.391 . S
C452 H442 0.950 . S
C452 C453 1.386 . S
C452 C454 1.391 . S
C453 C452 1.386 . S
C453 C457 1.393 . S
C454 H443 0.950 . S
C454 C452 1.391 . S
C454 C455 1.400 . S
C455 C449 1.491 . S
C455 C454 1.400 . S
C455 C456 1.398 . S
C456 H444 0.950 . S
C456 C455 1.398 . S
C456 C457 1.391 . S
C457 H445 0.950 . S
C457 C453 1.393 . S
C457 C456 1.391 . S
H458 C466 0.950 . S
H459 C471 0.950 . S
H460 C468 0.950 1_455 S
H461 C470 0.950 . S
H462 C472 0.950 . S
H463 C474 0.950 . S
H464 C476 0.950 . S
H465 C477 0.950 . S
C466 H458 0.950 . S
C466 C467 1.386 . S
C466 C468 1.391 . S
C467 C466 1.386 . S
C467 C471 1.393 . S
C468 H460 0.950 1_655 S
C468 C466 1.391 . S
C468 C469 1.400 . S
C469 C468 1.400 . S
C469 C470 1.398 . S
C469 C475 1.491 . S
C470 H461 0.950 . S
C470 C469 1.398 . S
C470 C471 1.391 . S
C471 H459 0.950 . S
C471 C467 1.393 . S
C471 C470 1.391 . S
C472 H462 0.950 . S
C472 C473 1.386 1_655 S
C472 C474 1.391 . S
C473 C472 1.386 1_455 S
C473 C477 1.393 . S
C474 H463 0.950 . S
C474 C472 1.391 . S
C474 C475 1.400 . S
C475 C469 1.491 . S
C475 C474 1.400 . S
C475 C476 1.398 1_655 S
C476 H464 0.950 . S
C476 C475 1.398 1_455 S
C476 C477 1.391 . S
C477 H465 0.950 . S
C477 C473 1.393 . S
C477 C476 1.391 . S
H478 C486 0.950 . S
H479 C491 0.950 . S
H480 C488 0.950 . S
H481 C490 0.950 . S
H482 C492 0.950 . S
H483 C494 0.950 . S
H484 C496 0.950 1_545 S
H485 C497 0.950 . S
C486 H478 0.950 . S
C486 C487 1.386 . S
C486 C488 1.391 . S
C487 C486 1.386 . S
C487 C491 1.393 1_545 S
C488 H480 0.950 . S
C488 C486 1.391 . S
C488 C489 1.400 1_545 S
C489 C488 1.400 1_565 S
C489 C490 1.398 . S
C489 C495 1.491 . S
C490 H481 0.950 . S
C490 C489 1.398 . S
C490 C491 1.391 . S
C491 H479 0.950 . S
C491 C487 1.393 1_565 S
C491 C490 1.391 . S
C492 H482 0.950 . S
C492 C493 1.386 . S
C492 C494 1.391 . S
C493 C492 1.386 . S
C493 C497 1.393 . S
C494 H483 0.950 . S
C494 C492 1.391 . S
C494 C495 1.400 . S
C495 C489 1.491 . S
C495 C494 1.400 . S
C495 C496 1.398 . S
C496 H484 0.950 1_565 S
C496 C495 1.398 . S
C496 C497 1.391 . S
C497 H485 0.950 . S
C497 C493 1.393 . S
C497 C496 1.391 . S
C207 C18 1.653 . S
C213 C117 1.648 . S
C227 C51 1.645 . S
C233 C150 1.644 . S
C247 C183 1.643 . S
C253 C84 1.645 . S
C267 C87 0.932 . S
C273 C186 0.937 . S
C287 C120 0.937 . S
C293 C21 0.932 . S
C307 C153 0.937 . S
C313 C54 0.927 . S
C327 C7 0.713 . S
C333 C106 0.709 . S
C347 C139 0.708 . S
C353 C40 0.713 . S
C367 C172 0.712 . S
C373 C73 0.714 . S
C387 N13 1.668 . S
C393 N167 1.772 . S
C407 N2 1.771 . S
C413 N46 1.668 . S
C427 N35 1.765 . S
C433 N79 1.652 . S
C447 N68 1.768 . S
C453 N112 1.642 . S
C467 N101 1.773 . S
C473 N145 1.667 . S
C487 N178 1.668 . S
C493 N134 1.772 . S
