# Generated by pormake.
# Topology vbb, (4)-cn, num edge types: 1
# Building blocks:
#     Node 0, Type 0, BuildingBlock: QUQFOY_clean_sbu_1, # of connection points: 4
#     Node 1, Type 0, BuildingBlock: QUQFOY_clean_sbu_1, # of connection points: 4
#     Node 2, Type 0, BuildingBlock: QUQFOY_clean_sbu_1, # of connection points: 4
#     Node 3, Type 0, BuildingBlock: QUQFOY_clean_sbu_1, # of connection points: 4
#     Node 4, Type 0, BuildingBlock: QUQFOY_clean_sbu_1, # of connection points: 4
#     Node 5, Type 0, BuildingBlock: QUQFOY_clean_sbu_1, # of connection points: 4
#     Node 6, Type 0, BuildingBlock: QUQFOY_clean_sbu_1, # of connection points: 4
#     Node 7, Type 0, BuildingBlock: QUQFOY_clean_sbu_1, # of connection points: 4
#     Node 8, Type 0, BuildingBlock: QUQFOY_clean_sbu_1, # of connection points: 4
#     Node 9, Type 0, BuildingBlock: QUQFOY_clean_sbu_1, # of connection points: 4
#     Node 10, Type 0, BuildingBlock: QUQFOY_clean_sbu_1, # of connection points: 4
#     Node 11, Type 0, BuildingBlock: QUQFOY_clean_sbu_1, # of connection points: 4
#     Node 12, Type 0, BuildingBlock: QUQFOY_clean_sbu_1, # of connection points: 4
#     Node 13, Type 0, BuildingBlock: QUQFOY_clean_sbu_1, # of connection points: 4
#     Node 14, Type 0, BuildingBlock: QUQFOY_clean_sbu_1, # of connection points: 4
#     Node 15, Type 0, BuildingBlock: QUQFOY_clean_sbu_1, # of connection points: 4
#     Node 16, Type 0, BuildingBlock: QUQFOY_clean_sbu_1, # of connection points: 4
#     Node 17, Type 0, BuildingBlock: QUQFOY_clean_sbu_1, # of connection points: 4
#     Node 18, Type 0, BuildingBlock: QUQFOY_clean_sbu_1, # of connection points: 4
#     Node 19, Type 0, BuildingBlock: QUQFOY_clean_sbu_1, # of connection points: 4
#     Node 20, Type 0, BuildingBlock: QUQFOY_clean_sbu_1, # of connection points: 4
#     Node 21, Type 0, BuildingBlock: QUQFOY_clean_sbu_1, # of connection points: 4
#     Node 22, Type 0, BuildingBlock: QUQFOY_clean_sbu_1, # of connection points: 4
#     Node 23, Type 0, BuildingBlock: QUQFOY_clean_sbu_1, # of connection points: 4
#     Node 24, Type 0, BuildingBlock: QUQFOY_clean_sbu_1, # of connection points: 4
#     Node 25, Type 0, BuildingBlock: QUQFOY_clean_sbu_1, # of connection points: 4
#     Node 26, Type 0, BuildingBlock: QUQFOY_clean_sbu_1, # of connection points: 4
#     Node 27, Type 0, BuildingBlock: QUQFOY_clean_sbu_1, # of connection points: 4
#     Node 28, Type 0, BuildingBlock: QUQFOY_clean_sbu_1, # of connection points: 4
#     Node 29, Type 0, BuildingBlock: QUQFOY_clean_sbu_1, # of connection points: 4
#     Node 30, Type 0, BuildingBlock: QUQFOY_clean_sbu_1, # of connection points: 4
#     Node 31, Type 0, BuildingBlock: QUQFOY_clean_sbu_1, # of connection points: 4
#     Edge 32, Type (0, 0), BuildingBlock: EZIPEK_clean_linker_0, # of connection points: 2
#     Edge 33, Type (0, 0), BuildingBlock: EZIPEK_clean_linker_0, # of connection points: 2
#     Edge 34, Type (0, 0), BuildingBlock: EZIPEK_clean_linker_0, # of connection points: 2
#     Edge 35, Type (0, 0), BuildingBlock: EZIPEK_clean_linker_0, # of connection points: 2
#     Edge 36, Type (0, 0), BuildingBlock: EZIPEK_clean_linker_0, # of connection points: 2
#     Edge 37, Type (0, 0), BuildingBlock: EZIPEK_clean_linker_0, # of connection points: 2
#     Edge 38, Type (0, 0), BuildingBlock: EZIPEK_clean_linker_0, # of connection points: 2
#     Edge 39, Type (0, 0), BuildingBlock: EZIPEK_clean_linker_0, # of connection points: 2
#     Edge 40, Type (0, 0), BuildingBlock: EZIPEK_clean_linker_0, # of connection points: 2
#     Edge 41, Type (0, 0), BuildingBlock: EZIPEK_clean_linker_0, # of connection points: 2
#     Edge 42, Type (0, 0), BuildingBlock: EZIPEK_clean_linker_0, # of connection points: 2
#     Edge 43, Type (0, 0), BuildingBlock: EZIPEK_clean_linker_0, # of connection points: 2
#     Edge 44, Type (0, 0), BuildingBlock: EZIPEK_clean_linker_0, # of connection points: 2
#     Edge 45, Type (0, 0), BuildingBlock: EZIPEK_clean_linker_0, # of connection points: 2
#     Edge 46, Type (0, 0), BuildingBlock: EZIPEK_clean_linker_0, # of connection points: 2
#     Edge 47, Type (0, 0), BuildingBlock: EZIPEK_clean_linker_0, # of connection points: 2
#     Edge 48, Type (0, 0), BuildingBlock: EZIPEK_clean_linker_0, # of connection points: 2
#     Edge 49, Type (0, 0), BuildingBlock: EZIPEK_clean_linker_0, # of connection points: 2
#     Edge 50, Type (0, 0), BuildingBlock: EZIPEK_clean_linker_0, # of connection points: 2
#     Edge 51, Type (0, 0), BuildingBlock: EZIPEK_clean_linker_0, # of connection points: 2
#     Edge 52, Type (0, 0), BuildingBlock: EZIPEK_clean_linker_0, # of connection points: 2
#     Edge 53, Type (0, 0), BuildingBlock: EZIPEK_clean_linker_0, # of connection points: 2
#     Edge 54, Type (0, 0), BuildingBlock: EZIPEK_clean_linker_0, # of connection points: 2
#     Edge 55, Type (0, 0), BuildingBlock: EZIPEK_clean_linker_0, # of connection points: 2
#     Edge 56, Type (0, 0), BuildingBlock: EZIPEK_clean_linker_0, # of connection points: 2
#     Edge 57, Type (0, 0), BuildingBlock: EZIPEK_clean_linker_0, # of connection points: 2
#     Edge 58, Type (0, 0), BuildingBlock: EZIPEK_clean_linker_0, # of connection points: 2
#     Edge 59, Type (0, 0), BuildingBlock: EZIPEK_clean_linker_0, # of connection points: 2
#     Edge 60, Type (0, 0), BuildingBlock: EZIPEK_clean_linker_0, # of connection points: 2
#     Edge 61, Type (0, 0), BuildingBlock: EZIPEK_clean_linker_0, # of connection points: 2
#     Edge 62, Type (0, 0), BuildingBlock: EZIPEK_clean_linker_0, # of connection points: 2
#     Edge 63, Type (0, 0), BuildingBlock: EZIPEK_clean_linker_0, # of connection points: 2
#     Edge 64, Type (0, 0), BuildingBlock: EZIPEK_clean_linker_0, # of connection points: 2
#     Edge 65, Type (0, 0), BuildingBlock: EZIPEK_clean_linker_0, # of connection points: 2
#     Edge 66, Type (0, 0), BuildingBlock: EZIPEK_clean_linker_0, # of connection points: 2
#     Edge 67, Type (0, 0), BuildingBlock: EZIPEK_clean_linker_0, # of connection points: 2
#     Edge 68, Type (0, 0), BuildingBlock: EZIPEK_clean_linker_0, # of connection points: 2
#     Edge 69, Type (0, 0), BuildingBlock: EZIPEK_clean_linker_0, # of connection points: 2
#     Edge 70, Type (0, 0), BuildingBlock: EZIPEK_clean_linker_0, # of connection points: 2
#     Edge 71, Type (0, 0), BuildingBlock: EZIPEK_clean_linker_0, # of connection points: 2
#     Edge 72, Type (0, 0), BuildingBlock: EZIPEK_clean_linker_0, # of connection points: 2
#     Edge 73, Type (0, 0), BuildingBlock: EZIPEK_clean_linker_0, # of connection points: 2
#     Edge 74, Type (0, 0), BuildingBlock: EZIPEK_clean_linker_0, # of connection points: 2
#     Edge 75, Type (0, 0), BuildingBlock: EZIPEK_clean_linker_0, # of connection points: 2
#     Edge 76, Type (0, 0), BuildingBlock: EZIPEK_clean_linker_0, # of connection points: 2
#     Edge 77, Type (0, 0), BuildingBlock: EZIPEK_clean_linker_0, # of connection points: 2
#     Edge 78, Type (0, 0), BuildingBlock: EZIPEK_clean_linker_0, # of connection points: 2
#     Edge 79, Type (0, 0), BuildingBlock: EZIPEK_clean_linker_0, # of connection points: 2
#     Edge 80, Type (0, 0), BuildingBlock: EZIPEK_clean_linker_0, # of connection points: 2
#     Edge 81, Type (0, 0), BuildingBlock: EZIPEK_clean_linker_0, # of connection points: 2
#     Edge 82, Type (0, 0), BuildingBlock: EZIPEK_clean_linker_0, # of connection points: 2
#     Edge 83, Type (0, 0), BuildingBlock: EZIPEK_clean_linker_0, # of connection points: 2
#     Edge 84, Type (0, 0), BuildingBlock: EZIPEK_clean_linker_0, # of connection points: 2
#     Edge 85, Type (0, 0), BuildingBlock: EZIPEK_clean_linker_0, # of connection points: 2
#     Edge 86, Type (0, 0), BuildingBlock: EZIPEK_clean_linker_0, # of connection points: 2
#     Edge 87, Type (0, 0), BuildingBlock: EZIPEK_clean_linker_0, # of connection points: 2
#     Edge 88, Type (0, 0), BuildingBlock: EZIPEK_clean_linker_0, # of connection points: 2
#     Edge 89, Type (0, 0), BuildingBlock: EZIPEK_clean_linker_0, # of connection points: 2
#     Edge 90, Type (0, 0), BuildingBlock: EZIPEK_clean_linker_0, # of connection points: 2
#     Edge 91, Type (0, 0), BuildingBlock: EZIPEK_clean_linker_0, # of connection points: 2
#     Edge 92, Type (0, 0), BuildingBlock: EZIPEK_clean_linker_0, # of connection points: 2
#     Edge 93, Type (0, 0), BuildingBlock: EZIPEK_clean_linker_0, # of connection points: 2
#     Edge 94, Type (0, 0), BuildingBlock: EZIPEK_clean_linker_0, # of connection points: 2
#     Edge 95, Type (0, 0), BuildingBlock: EZIPEK_clean_linker_0, # of connection points: 2
# Relax obj value: 0.078
# Max RMSD: 0.233
# Mean RMSD: 0.233
data_MOF--net-vbb--node1-QUQFOY_clean_sbu_1--edge1-EZIPEK_clean_linker_0
_symmetry_space_group_name_H-M    P1
_symmetry_Int_Tables_number       1
_symmetry_cell_setting            triclinic
loop_
_symmetry_equiv_pos_as_xyz
'x, y, z'
_cell_length_a     32.33458
_cell_length_b     28.696229
_cell_length_c     79.49403
_cell_angle_alpha  89.742325
_cell_angle_beta   90.141069
_cell_angle_gamma 89.848452
loop_
_atom_site_label
_atom_site_type_symbol
_atom_site_fract_x
_atom_site_fract_y
_atom_site_fract_z
_atom_type_partial_charge
O0 O 0.51139 0.02957 0.07287 0.0
Cd1 Cd 0.49831 0.03339 0.09769 0.0
Cd2 Cd 0.45627 0.10384 0.09099 0.0
O3 O 0.45295 0.06712 0.0677 0.0
O4 O 0.49078 0.96871 0.10773 0.0
O5 O 0.43853 1.01415 0.10005 0.0
C6 C 0.45137 0.97432 0.10545 0.0
C7 C 0.41892 0.12165 0.11546 0.0
C8 C 0.48398 0.04316 0.06252 0.0
C9 C 0.53633 0.12761 0.10253 0.0
O10 O 0.50927 0.14041 0.09189 0.0
O11 O 0.53408 0.08701 0.10931 0.0
O12 O 0.40966 0.14155 0.10126 0.0
O13 O 0.44526 0.08795 0.11526 0.0
O14 O 0.74303 0.30773 0.07087 0.0
Cd15 Cd 0.7424 0.31688 0.09637 0.0
Cd16 Cd 0.77291 0.22827 0.0956 0.0
O17 O 0.78584 0.24718 0.0702 0.0
O18 O 0.75903 0.38418 0.10116 0.0
O19 O 0.79915 0.32333 0.1061 0.0
C20 C 0.795 0.36781 0.10534 0.0
C21 C 0.80533 0.20127 0.12042 0.0
C22 C 0.76447 0.27874 0.06257 0.0
C23 C 0.68309 0.24121 0.10359 0.0
O24 O 0.71172 0.21573 0.09776 0.0
O25 O 0.68984 0.28417 0.10694 0.0
O26 O 0.79997 0.17319 0.10789 0.0
O27 O 0.79779 0.24474 0.11788 0.0
O28 O 0.48313 0.2796 0.2323 0.0
Cd29 Cd 0.47914 0.29066 0.20682 0.0
Cd30 Cd 0.45712 0.19785 0.20911 0.0
O31 O 0.44925 0.21272 0.2349 0.0
O32 O 0.46379 0.35912 0.20328 0.0
O33 O 0.42183 0.30071 0.19772 0.0
C34 C 0.42738 0.34486 0.19895 0.0
C35 C 0.42088 0.17538 0.18502 0.0
C36 C 0.4683 0.24738 0.24149 0.0
C37 C 0.54292 0.22162 0.19741 0.0
O38 O 0.51838 0.19289 0.2042 0.0
O39 O 0.53187 0.26386 0.19466 0.0
O40 O 0.43313 0.14397 0.19569 0.0
O41 O 0.42267 0.21821 0.18965 0.0
O42 O 0.73439 0.0309 0.23414 0.0
Cd43 Cd 0.74764 0.03677 0.20947 0.0
Cd44 Cd 0.78011 0.11354 0.21494 0.0
O45 O 0.7869 0.0782 0.23884 0.0
O46 O 0.76893 0.97532 0.19986 0.0
O47 O 0.81002 0.03263 0.20767 0.0
C48 C 0.80613 0.99057 0.20243 0.0
C49 C 0.81178 0.1349 0.18937 0.0
C50 C 0.75935 0.04968 0.24436 0.0
C51 C 0.69786 0.12477 0.20417 0.0
O52 O 0.72414 0.14266 0.21406 0.0
O53 O 0.70459 0.08417 0.19795 0.0
O54 O 0.82078 0.15665 0.20318 0.0
O55 O 0.78912 0.09824 0.19042 0.0
O56 O 0.49839 0.01875 0.98363 0.0
Cd57 Cd 0.509 0.01692 0.95858 0.0
Cd58 Cd 0.54424 0.94023 0.96358 0.0
O59 O 0.55189 0.97178 0.98767 0.0
O60 O 0.5219 0.08085 0.94912 0.0
O61 O 0.56987 0.02833 0.95548 0.0
C62 C 0.56066 0.06994 0.95066 0.0
C63 C 0.57873 0.91793 0.939 0.0
C64 C 0.52392 0.99912 0.99351 0.0
C65 C 0.46023 0.93131 0.95261 0.0
O66 O 0.48724 0.91284 0.96214 0.0
O67 O 0.4662 0.9722 0.94658 0.0
O68 O 0.58433 0.8948 0.95288 0.0
O69 O 0.55828 0.95642 0.93968 0.0
O70 O 0.27248 0.73549 0.98103 0.0
Cd71 Cd 0.26305 0.73708 0.95566 0.0
Cd72 Cd 0.22545 0.81302 0.96055 0.0
O73 O 0.21884 0.78216 0.98489 0.0
O74 O 0.25257 0.67244 0.94646 0.0
O75 O 0.20308 0.72407 0.95141 0.0
C76 C 0.21352 0.68244 0.9472 0.0
C77 C 0.18509 0.83872 0.9374 0.0
C78 C 0.24687 0.75488 0.99086 0.0
C79 C 0.30953 0.82408 0.94931 0.0
O80 O 0.28215 0.84175 0.95873 0.0
O81 O 0.30482 0.78286 0.94354 0.0
O82 O 0.18349 0.85973 0.95176 0.0
O83 O 0.20586 0.80039 0.93681 0.0
O84 O 0.49537 0.77269 0.81826 0.0
Cd85 Cd 0.49593 0.76311 0.84341 0.0
Cd86 Cd 0.53793 0.84234 0.84401 0.0
O87 O 0.54987 0.81946 0.81878 0.0
O88 O 0.50088 0.69401 0.84856 0.0
O89 O 0.55277 0.74382 0.85056 0.0
C90 C 0.53992 0.7015 0.85103 0.0
C91 C 0.57192 0.85751 0.86962 0.0
C92 C 0.52378 0.79437 0.8106 0.0
C93 C 0.44869 0.84797 0.85241 0.0
O94 O 0.48006 0.86888 0.84655 0.0
O95 O 0.45017 0.80393 0.85497 0.0
O96 O 0.57355 0.88762 0.85745 0.0
O97 O 0.55714 0.81701 0.86624 0.0
O98 O 0.23899 1.00982 0.82117 0.0
Cd99 Cd 0.23251 0.01767 0.84665 0.0
Cd100 Cd 0.21306 0.9262 0.84374 0.0
O101 O 0.20415 0.94387 0.81803 0.0
O102 O 0.21565 0.08513 0.85058 0.0
O103 O 0.17374 0.02535 0.8542 0.0
C104 C 0.17882 0.06971 0.85358 0.0
C105 C 0.18042 0.90156 0.86857 0.0
C106 C 0.22326 0.97902 0.81171 0.0
C107 C 0.29637 0.94872 0.8565 0.0
O108 O 0.27417 0.92095 0.84814 0.0
O109 O 0.28331 0.98965 0.86009 0.0
O110 O 0.19077 0.87123 0.85728 0.0
O111 O 0.18171 0.9448 0.86426 0.0
O112 O 0.49842 0.50243 0.56769 0.0
Cd113 Cd 0.49848 0.49204 0.59312 0.0
Cd114 Cd 0.46748 0.58061 0.59254 0.0
O115 O 0.4564 0.56377 0.56683 0.0
O116 O 0.48436 0.42415 0.59837 0.0
O117 O 0.44145 0.48306 0.60221 0.0
C118 C 0.4477 0.43883 0.60222 0.0
C119 C 0.4352 0.60458 0.61755 0.0
C120 C 0.47797 0.53245 0.55929 0.0
C121 C 0.55707 0.56775 0.60111 0.0
O122 O 0.52835 0.5935 0.5954 0.0
O123 O 0.55054 0.52449 0.60407 0.0
O124 O 0.44091 0.63431 0.60546 0.0
O125 O 0.4414 0.56128 0.61427 0.0
O126 O 0.74679 0.75117 0.5676 0.0
Cd127 Cd 0.7591 0.75525 0.59236 0.0
Cd128 Cd 0.79283 0.67619 0.58999 0.0
O129 O 0.80234 0.70671 0.56534 0.0
O130 O 0.7758 0.82118 0.59909 0.0
O131 O 0.82089 0.76494 0.59425 0.0
C132 C 0.81401 0.80804 0.59756 0.0
C133 C 0.823 0.66338 0.61701 0.0
C134 C 0.77401 0.73219 0.55846 0.0
C135 C 0.7098 0.67069 0.60085 0.0
O136 O 0.73529 0.65079 0.5912 0.0
O137 O 0.71662 0.71243 0.60587 0.0
O138 O 0.8285 0.63365 0.60496 0.0
O139 O 0.80526 0.70193 0.61302 0.0
O140 O 0.52947 0.76384 0.72999 0.0
Cd141 Cd 0.51533 0.75567 0.70552 0.0
Cd142 Cd 0.47683 0.68255 0.71147 0.0
O143 O 0.47502 0.71953 0.73516 0.0
O144 O 0.49841 0.81641 0.69401 0.0
O145 O 0.4535 0.76644 0.70474 0.0
C146 C 0.46047 0.80586 0.69759 0.0
C147 C 0.43945 0.66616 0.68671 0.0
C148 C 0.50371 0.74706 0.74035 0.0
C149 C 0.55763 0.66187 0.70022 0.0
O150 O 0.52938 0.64588 0.70964 0.0
O151 O 0.55467 0.70379 0.69459 0.0
O152 O 0.43003 0.64577 0.70078 0.0
O153 O 0.46631 0.69914 0.68712 0.0
O154 O 0.75666 0.48687 0.72809 0.0
Cd155 Cd 0.76686 0.48289 0.70273 0.0
Cd156 Cd 0.79278 0.56758 0.70668 0.0
O157 O 0.79991 0.54551 0.73194 0.0
O158 O 0.78693 0.41797 0.69657 0.0
O159 O 0.82722 0.48004 0.69725 0.0
C160 C 0.82366 0.43562 0.69557 0.0
C161 C 0.83311 0.6038 0.68566 0.0
C162 C 0.77589 0.51406 0.73793 0.0
C163 C 0.70847 0.55745 0.69323 0.0
O164 O 0.73252 0.58208 0.70207 0.0
O165 O 0.71892 0.51601 0.68909 0.0
O166 O 0.82323 0.62541 0.69932 0.0
O167 O 0.82423 0.56014 0.68496 0.0
O168 O 0.48988 0.53877 0.47949 0.0
Cd169 Cd 0.49328 0.5434 0.45413 0.0
Cd170 Cd 0.53077 0.46284 0.45605 0.0
O171 O 0.5414 0.48774 0.48102 0.0
O172 O 0.50268 0.61003 0.44653 0.0
O173 O 0.55202 0.55654 0.44803 0.0
C174 C 0.54155 0.59929 0.44556 0.0
C175 C 0.56422 0.44029 0.4311 0.0
C176 C 0.51542 0.51523 0.48821 0.0
C177 C 0.44194 0.46094 0.44784 0.0
O178 O 0.47213 0.43967 0.45461 0.0
O179 O 0.44577 0.50349 0.44325 0.0
O180 O 0.56501 0.41314 0.44417 0.0
O181 O 0.5499 0.48184 0.43304 0.0
O182 O 0.26349 0.25258 0.48231 0.0
Cd183 Cd 0.24743 0.26029 0.45786 0.0
Cd184 Cd 0.21447 0.33642 0.46446 0.0
O185 O 0.21225 0.30085 0.48829 0.0
O186 O 0.22579 0.20066 0.44703 0.0
O187 O 0.18512 0.25533 0.45737 0.0
C188 C 0.18878 0.21492 0.45062 0.0
C189 C 0.17778 0.3558 0.43966 0.0
C190 C 0.24044 0.27197 0.49311 0.0
C191 C 0.2937 0.35057 0.45195 0.0
O192 O 0.26924 0.36744 0.46276 0.0
O193 O 0.28713 0.30995 0.44578 0.0
O194 O 0.16937 0.37629 0.45377 0.0
O195 O 0.20331 0.32139 0.44004 0.0
O196 O 0.49617 0.2514 0.32154 0.0
Cd197 Cd 0.50763 0.25517 0.34663 0.0
Cd198 Cd 0.54089 0.33335 0.34042 0.0
O199 O 0.54677 0.30107 0.31634 0.0
O200 O 0.52508 0.19217 0.35628 0.0
O201 O 0.56896 0.24869 0.35024 0.0
C202 C 0.56299 0.2063 0.35496 0.0
C203 C 0.57512 0.36337 0.36397 0.0
C204 C 0.51938 0.27212 0.31109 0.0
C205 C 0.45714 0.34108 0.35187 0.0
O206 O 0.48358 0.35921 0.34211 0.0
O207 O 0.4639 0.30051 0.35817 0.0
O208 O 0.57874 0.38362 0.34942 0.0
O209 O 0.55764 0.32312 0.36451 0.0
O210 O 0.24655 0.50193 0.32045 0.0
Cd211 Cd 0.24291 0.51333 0.34576 0.0
Cd212 Cd 0.21667 0.42306 0.34458 0.0
O213 O 0.2055 0.44015 0.31897 0.0
O214 O 0.23055 0.58239 0.34913 0.0
O215 O 0.18497 0.52637 0.35324 0.0
C216 C 0.19297 0.57012 0.35245 0.0
C217 C 0.18187 0.40489 0.36964 0.0
C218 C 0.22657 0.47246 0.31178 0.0
C219 C 0.303 0.44083 0.35598 0.0
O220 O 0.27803 0.41377 0.34861 0.0
O221 O 0.2931 0.48324 0.35886 0.0
O222 O 0.19033 0.37216 0.35899 0.0
O223 O 0.18685 0.44714 0.36464 0.0
O224 O 0.99878 1.01108 0.567 0.0
Cd225 Cd 0.99923 0.99697 0.59217 0.0
Cd226 Cd 0.97282 0.08477 0.59309 0.0
O227 O 0.95845 0.07362 0.56753 0.0
O228 O 0.98925 0.92779 0.59473 0.0
O229 O 0.94297 0.98155 0.6013 0.0
C230 C 0.95196 0.93824 0.59926 0.0
C231 C 0.93953 0.10425 0.61814 0.0
C232 C 0.97847 0.04258 0.55932 0.0
C233 C 0.06179 0.0663 0.60129 0.0
O234 O 0.03453 0.09469 0.59598 0.0
O235 O 0.05286 0.02336 0.60354 0.0
O236 O 0.94634 0.13602 0.60686 0.0
O237 O 0.94598 0.06142 0.61406 0.0
O238 O 0.25355 0.25276 0.57305 0.0
Cd239 Cd 0.26383 0.25004 0.59821 0.0
Cd240 Cd 0.30172 0.17634 0.59312 0.0
O241 O 0.31 0.21049 0.56946 0.0
O242 O 0.27272 0.31432 0.60794 0.0
O243 O 0.32389 0.26611 0.60162 0.0
C244 C 0.31205 0.30705 0.60618 0.0
C245 C 0.3349 0.15469 0.61826 0.0
C246 C 0.28071 0.23579 0.56334 0.0
C247 C 0.21879 0.16102 0.60326 0.0
O248 O 0.24587 0.14521 0.59328 0.0
O249 O 0.22347 0.20139 0.60981 0.0
O250 O 0.34357 0.13364 0.60429 0.0
O251 O 0.31259 0.19193 0.61742 0.0
O252 O 0.02334 0.26101 0.73063 0.0
Cd253 Cd 0.01257 0.25382 0.70579 0.0
Cd254 Cd 0.97069 0.1827 0.71218 0.0
O255 O 0.96578 0.22132 0.73509 0.0
O256 O 0.00312 0.31594 0.69391 0.0
O257 O 0.95231 0.27081 0.70292 0.0
C258 C 0.9639 0.30967 0.69636 0.0
C259 C 0.93591 0.16399 0.68721 0.0
C260 C 0.99541 0.24693 0.74057 0.0
C261 C 0.05216 0.15883 0.70242 0.0
O262 O 0.02334 0.14553 0.71209 0.0
O263 O 0.05045 0.19959 0.69571 0.0
O264 O 0.92557 0.14412 0.70127 0.0
O265 O 0.96196 0.19777 0.68774 0.0
O266 O 0.25603 0.98078 0.73268 0.0
Cd267 Cd 0.25984 0.97315 0.7071 0.0
Cd268 Cd 0.28569 0.06595 0.71071 0.0
O269 O 0.2923 0.04573 0.73633 0.0
O270 O 0.27789 0.90589 0.70258 0.0
O271 O 0.31727 0.96724 0.69822 0.0
C272 C 0.31384 0.92276 0.69888 0.0
C273 C 0.3239 0.09288 0.68747 0.0
C274 C 0.2724 1.0107 0.74235 0.0
C275 C 0.19918 0.04671 0.69796 0.0
O276 O 0.22464 0.07345 0.70522 0.0
O277 O 0.20851 1.00416 0.69493 0.0
O278 O 0.31114 0.12225 0.69866 0.0
O279 O 0.32133 0.04938 0.69116 0.0
O280 O 0.98636 0.041 0.47871 0.0
Cd281 Cd 0.99548 0.04033 0.45341 0.0
Cd282 Cd 0.03164 0.96391 0.45855 0.0
O283 O 0.04039 0.99468 0.4825 0.0
O284 O 0.00669 0.10509 0.44445 0.0
O285 O 0.05561 0.05248 0.44936 0.0
C286 C 0.04563 0.09457 0.44541 0.0
C287 C 0.06658 0.93689 0.43493 0.0
C288 C 0.01239 0.02166 0.48848 0.0
C289 C 0.94703 0.95534 0.44756 0.0
O290 O 0.97417 0.93733 0.45714 0.0
O291 O 0.95275 0.99602 0.44135 0.0
O292 O 0.07076 0.91564 0.44927 0.0
O293 O 0.04817 0.97677 0.43471 0.0
O294 O 0.76327 0.75319 0.47688 0.0
Cd295 Cd 0.74642 0.76215 0.45267 0.0
Cd296 Cd 0.71381 0.83927 0.45938 0.0
O297 O 0.71229 0.80165 0.48302 0.0
O298 O 0.72303 0.70275 0.44229 0.0
O299 O 0.68409 0.75877 0.45282 0.0
C300 C 0.6866 0.71786 0.44638 0.0
C301 C 0.67324 0.85696 0.43498 0.0
C302 C 0.74012 0.7721 0.48774 0.0
C303 C 0.79449 0.8514 0.44719 0.0
O304 O 0.76884 0.86956 0.45729 0.0
O305 O 0.78768 0.81084 0.44101 0.0
O306 O 0.66632 0.87736 0.44921 0.0
O307 O 0.70105 0.82475 0.43502 0.0
O308 O 0.99844 0.76017 0.31865 0.0
Cd309 Cd 1.00088 0.74995 0.34404 0.0
Cd310 Cd 0.02823 0.83681 0.34314 0.0
O311 O 0.04093 0.82065 0.31776 0.0
O312 O 0.01395 0.682 0.34838 0.0
O313 O 0.0588 0.73912 0.35221 0.0
C314 C 0.05135 0.69511 0.35172 0.0
C315 C 0.0623 0.86285 0.36733 0.0
C316 C 0.01935 0.78951 0.31026 0.0
C317 C 0.93979 0.82123 0.35254 0.0
O318 O 0.96673 0.84799 0.34615 0.0
O319 O 0.9487 0.77873 0.35581 0.0
O320 O 0.05479 0.89151 0.35506 0.0
O321 O 0.05623 0.8191 0.36471 0.0
O322 O 0.75194 0.019 0.3244 0.0
Cd323 Cd 0.74221 1.01308 0.34955 0.0
Cd324 Cd 0.70287 0.93962 0.34289 0.0
O325 O 0.69623 0.97652 0.31966 0.0
O326 O 0.73649 0.07721 0.35988 0.0
O327 O 0.68316 0.0319 0.35384 0.0
C328 C 0.69682 0.07185 0.35862 0.0
C329 C 0.66701 0.91775 0.36737 0.0
C330 C 0.72508 1.00334 0.31426 0.0
C331 C 0.78519 0.92139 0.3536 0.0
O332 O 0.75797 0.90704 0.34338 0.0
O333 O 0.78144 0.96155 0.36045 0.0
O334 O 0.65905 0.89774 0.35313 0.0
O335 O 0.69085 0.95368 0.36712 0.0
O336 O 0.01507 0.52453 0.07332 0.0
Cd337 Cd 0.99843 0.5331 0.09752 0.0
Cd338 Cd 0.96476 0.6071 0.09003 0.0
O339 O 0.96039 0.56721 0.06714 0.0
O340 O 0.97787 0.4737 0.10899 0.0
O341 O 0.93573 0.52676 0.09818 0.0
C342 C 0.94048 0.48705 0.10549 0.0
C343 C 0.93081 0.63128 0.11449 0.0
C344 C 0.98991 0.54008 0.06243 0.0
C345 C 0.04653 0.62226 0.10108 0.0
O346 O 0.01974 0.63865 0.09097 0.0
O347 O 0.04025 0.58246 0.10807 0.0
O348 O 0.92174 0.65014 0.10007 0.0
O349 O 0.95434 0.59504 0.11463 0.0
O350 O 0.2695 0.76639 0.07009 0.0
Cd351 Cd 0.27066 0.77998 0.09547 0.0
Cd352 Cd 0.29029 0.68747 0.09564 0.0
O353 O 0.30185 0.6981 0.06973 0.0
O354 O 0.28435 0.84893 0.09789 0.0
O355 O 0.32696 0.79238 0.10542 0.0
C356 C 0.32051 0.83622 0.10319 0.0
C357 C 0.32368 0.66779 0.1209 0.0
C358 C 0.28486 0.7325 0.06195 0.0
C359 C 0.2044 0.71393 0.10545 0.0
O360 O 0.22845 0.6834 0.09944 0.0
O361 O 0.21656 0.75596 0.10749 0.0
O362 O 0.3131 0.63539 0.11045 0.0
O363 O 0.32177 0.71025 0.11562 0.0
O364 O 0.00227 0.8024 0.23105 0.0
Cd365 Cd 1.00067 0.81365 0.20565 0.0
Cd366 Cd 0.97564 0.72527 0.20646 0.0
O367 O 0.96298 0.73924 0.23193 0.0
O368 O 0.98821 0.88217 0.2023 0.0
O369 O 0.94343 0.8261 0.19681 0.0
C370 C 0.951 0.8699 0.19828 0.0
C371 C 0.94077 0.70098 0.18226 0.0
C372 C 0.98301 0.77161 0.23942 0.0
C373 C 0.06387 0.74435 0.19725 0.0
O374 O 0.03746 0.71653 0.20339 0.0
O375 O 0.05418 0.78678 0.19421 0.0
O376 O 0.94973 0.67116 0.194 0.0
O377 O 0.94627 0.74455 0.18543 0.0
O378 O 0.22528 0.51746 0.23145 0.0
Cd379 Cd 0.24057 0.53035 0.20732 0.0
Cd380 Cd 0.28471 0.59684 0.21567 0.0
O381 O 0.28363 0.55303 0.23799 0.0
O382 O 0.25206 0.47069 0.19426 0.0
O383 O 0.30112 0.51219 0.20652 0.0
C384 C 0.29063 0.4755 0.19837 0.0
C385 C 0.32157 0.61308 0.19057 0.0
C386 C 0.25247 0.5278 0.24234 0.0
C387 C 0.20754 0.63007 0.20502 0.0
O388 O 0.23557 0.63963 0.21563 0.0
O389 O 0.20764 0.59024 0.19767 0.0
O390 O 0.33426 0.62932 0.20489 0.0
O391 O 0.29132 0.58413 0.19075 0.0
O392 O 0.99964 0.52094 0.98151 0.0
Cd393 Cd 0.01263 0.51469 0.95687 0.0
Cd394 Cd 0.04543 0.43746 0.96286 0.0
O395 O 0.05216 0.47321 0.98634 0.0
O396 O 0.03412 0.57535 0.9466 0.0
O397 O 0.07492 0.51844 0.95547 0.0
C398 C 0.07119 0.56007 0.94963 0.0
C399 C 0.0784 0.41505 0.93793 0.0
C400 C 0.02465 0.50193 0.99175 0.0
C401 C 0.9628 0.42694 0.95214 0.0
O402 O 0.98938 0.40888 0.96195 0.0
O403 O 0.96941 0.46744 0.94573 0.0
O404 O 0.08642 0.39343 0.95195 0.0
O405 O 0.05594 0.45208 0.9385 0.0
O406 O 0.75378 0.26559 0.9823 0.0
Cd407 Cd 0.75139 0.25211 0.95709 0.0
Cd408 Cd 0.72151 0.34196 0.95737 0.0
O409 O 0.70971 0.32489 0.98297 0.0
O410 O 0.73742 0.18311 0.95467 0.0
O411 O 0.69463 0.24041 0.9482 0.0
C412 C 0.70067 0.19656 0.9503 0.0
C413 C 0.68567 0.36175 0.93251 0.0
C414 C 0.73225 0.29445 0.99062 0.0
C415 C 0.80952 0.32575 0.94694 0.0
O416 O 0.78297 0.35241 0.95362 0.0
O417 O 0.80142 0.28273 0.94436 0.0
O418 O 0.69401 0.39373 0.94345 0.0
O419 O 0.69188 0.31926 0.93699 0.0
O420 O 0.99461 0.26557 0.81866 0.0
Cd421 Cd 0.99526 0.25866 0.84391 0.0
Cd422 Cd 0.03318 0.34038 0.84334 0.0
O423 O 0.04572 0.31704 0.81841 0.0
O424 O 0.00164 0.19043 0.85025 0.0
O425 O 0.05275 0.24146 0.85091 0.0
C426 C 0.04065 0.19903 0.85227 0.0
C427 C 0.06688 0.35605 0.86887 0.0
C428 C 0.02108 0.28934 0.81064 0.0
C429 C 0.94402 0.34195 0.85138 0.0
O430 O 0.97448 0.36414 0.84533 0.0
O431 O 0.94748 0.29844 0.85472 0.0
O432 O 0.06827 0.38622 0.85671 0.0
O433 O 0.05177 0.31567 0.86561 0.0
O434 O 0.74592 0.52135 0.81781 0.0
Cd435 Cd 0.73378 0.52222 0.84295 0.0
Cd436 Cd 0.70849 0.43993 0.83885 0.0
O437 O 0.70098 0.4646 0.81377 0.0
O438 O 0.71407 0.58661 0.84991 0.0
O439 O 0.67238 0.52633 0.84683 0.0
C440 C 0.67678 0.57021 0.84955 0.0
C441 C 0.67281 0.41335 0.86277 0.0
C442 C 0.72561 0.4956 0.80786 0.0
C443 C 0.79038 0.44344 0.85181 0.0
O444 O 0.76751 0.42062 0.8419 0.0
O445 O 0.77959 0.48429 0.85664 0.0
O446 O 0.67265 0.38956 0.84896 0.0
O447 O 0.68871 0.45442 0.86222 0.0
C448 C 0.38733 0.11357 0.14437 0.0
C449 C 0.40725 0.14173 0.13208 0.0
C450 C 0.43499 0.19124 0.15435 0.0
C451 C 0.4139 0.16443 0.1668 0.0
N452 N 0.36289 0.10604 0.17322 0.0
N453 N 0.43852 0.2158 0.12529 0.0
C454 C 0.38777 0.12734 0.16167 0.0
C455 C 0.42659 0.18371 0.13706 0.0
N456 N 0.36851 0.07334 0.13945 0.0
N457 N 0.46611 0.22099 0.15882 0.0
H458 H 0.43364 0.21173 0.11245 0.0
H459 H 0.44901 0.24895 0.12844 0.0
H460 H 0.47751 0.22397 0.17101 0.0
H461 H 0.48454 0.23844 0.15013 0.0
H462 H 0.35711 0.04859 0.14784 0.0
H463 H 0.36567 0.06414 0.12681 0.0
H464 H 0.34053 0.0815 0.17009 0.0
H465 H 0.36213 0.11597 0.18582 0.0
C466 C 0.8451 0.13962 0.16055 0.0
C467 C 0.81645 0.1571 0.17252 0.0
C468 C 0.77885 0.19741 0.14996 0.0
C469 C 0.80968 0.18415 0.13815 0.0
N470 N 0.87507 0.14712 0.13258 0.0
N471 N 0.76079 0.21025 0.17903 0.0
C472 C 0.84373 0.15643 0.14354 0.0
C473 C 0.78519 0.18881 0.16735 0.0
N474 N 0.87298 0.10632 0.16539 0.0
N475 N 0.74183 0.21512 0.14448 0.0
H476 H 0.76362 0.20444 0.19193 0.0
H477 H 0.74039 0.23724 0.17604 0.0
H478 H 0.73438 0.21916 0.13181 0.0
H479 H 0.71657 0.22041 0.15237 0.0
H480 H 0.89172 0.0883 0.15698 0.0
H481 H 0.87574 0.09504 0.17785 0.0
H482 H 0.90261 0.13091 0.13611 0.0
H483 H 0.87467 0.15873 0.12012 0.0
C484 C 0.61267 0.89565 0.89353 0.0
C485 C 0.57725 0.87126 0.88768 0.0
C486 C 0.55161 0.86615 0.9167 0.0
C487 C 0.58383 0.89572 0.92224 0.0
N488 N 0.64297 0.94306 0.91571 0.0
N489 N 0.50694 0.8472 0.89356 0.0
C490 C 0.61388 0.91177 0.91058 0.0
C491 C 0.54521 0.85988 0.89924 0.0
N492 N 0.64541 0.90244 0.883 0.0
N493 N 0.52594 0.8451 0.92806 0.0
H494 H 0.49897 0.84673 0.88088 0.0
H495 H 0.48143 0.84346 0.90143 0.0
H496 H 0.52857 0.84938 0.94102 0.0
H497 H 0.50459 0.81964 0.92466 0.0
H498 H 0.67354 0.91626 0.88694 0.0
H499 H 0.64553 0.89063 0.87061 0.0
H500 H 0.66286 0.96017 0.90747 0.0
H501 H 0.64553 0.95371 0.92821 0.0
C502 C 0.15066 0.84861 0.89144 0.0
C503 C 0.17411 0.88844 0.88675 0.0
C504 C 0.18452 0.90545 0.9168 0.0
C505 C 0.17021 0.86048 0.92123 0.0
N506 N 0.13617 0.78988 0.91281 0.0
N507 N 0.22191 0.94871 0.89592 0.0
C508 C 0.15204 0.8323 0.90852 0.0
C509 C 0.19297 0.91561 0.89967 0.0
N510 N 0.12625 0.82722 0.87977 0.0
N511 N 0.19068 0.93867 0.92878 0.0
H512 H 0.23307 0.95497 0.88389 0.0
H513 H 0.2392 0.96563 0.90514 0.0
H514 H 0.18222 0.93431 0.94129 0.0
H515 H 0.19837 0.97298 0.92578 0.0
H516 H 0.10572 0.8005 0.88268 0.0
H517 H 0.12351 0.83932 0.86743 0.0
H518 H 0.12679 0.76527 0.90402 0.0
H519 H 0.13353 0.77901 0.92531 0.0
C520 C 0.46286 0.60206 0.64704 0.0
C521 C 0.43249 0.6193 0.63557 0.0
C522 C 0.40188 0.66502 0.65864 0.0
C523 C 0.43044 0.64455 0.67012 0.0
N524 N 0.48124 0.58481 0.67586 0.0
N525 N 0.36945 0.66234 0.63093 0.0
C526 C 0.45826 0.60984 0.66451 0.0
C527 C 0.40081 0.64945 0.64151 0.0
N528 N 0.49824 0.58155 0.64122 0.0
N529 N 0.37633 0.69972 0.66409 0.0
H530 H 0.36806 0.65146 0.61844 0.0
H531 H 0.34346 0.68084 0.6348 0.0
H532 H 0.37532 0.7099 0.67667 0.0
H533 H 0.35768 0.71958 0.65612 0.0
H534 H 0.52334 0.5733 0.64893 0.0
H535 H 0.50497 0.57814 0.6285 0.0
H536 H 0.49891 0.55588 0.67252 0.0
H537 H 0.47944 0.58975 0.68881 0.0
C538 C 0.82175 0.66893 0.66522 0.0
C539 C 0.84477 0.62899 0.66978 0.0
C540 C 0.86551 0.62215 0.64002 0.0
C541 C 0.83276 0.65291 0.63523 0.0
N542 N 0.77209 0.69579 0.6451 0.0
N543 N 0.89256 0.56912 0.66136 0.0
C544 C 0.80898 0.67417 0.6483 0.0
C545 C 0.86804 0.60609 0.65709 0.0
N546 N 0.81113 0.70146 0.6769 0.0
N547 N 0.89501 0.60975 0.62863 0.0
H548 H 0.89791 0.55968 0.67388 0.0
H549 H 0.90632 0.54738 0.65252 0.0
H550 H 0.89609 0.6236 0.6165 0.0
H551 H 0.92109 0.59021 0.63182 0.0
H552 H 0.7957 0.73221 0.67367 0.0
H553 H 0.82332 0.70125 0.68904 0.0
H554 H 0.75318 0.7084 0.65468 0.0
H555 H 0.75707 0.69478 0.63356 0.0
C556 C 0.53806 0.42921 0.40166 0.0
C557 C 0.5703 0.42213 0.41363 0.0
C558 C 0.60927 0.3784 0.39221 0.0
C559 C 0.57868 0.38986 0.37999 0.0
N560 N 0.51856 0.43575 0.37245 0.0
N561 N 0.63949 0.39544 0.4196 0.0
C562 C 0.54496 0.41886 0.38449 0.0
C563 C 0.60686 0.39824 0.40871 0.0
N564 N 0.49937 0.44203 0.40683 0.0
N565 N 0.64011 0.34795 0.38812 0.0
H566 H 0.6386 0.40975 0.43163 0.0
H567 H 0.66835 0.38227 0.41626 0.0
H568 H 0.64359 0.33483 0.37598 0.0
H569 H 0.66076 0.33403 0.39689 0.0
H570 H 0.47373 0.44251 0.39887 0.0
H571 H 0.49149 0.44618 0.41942 0.0
H572 H 0.49599 0.46075 0.37496 0.0
H573 H 0.52166 0.42867 0.35969 0.0
C574 C 0.1937 0.42322 0.40038 0.0
C575 C 0.1739 0.39519 0.38794 0.0
C576 C 0.14753 0.34486 0.41067 0.0
C577 C 0.16541 0.37482 0.42288 0.0
N578 N 0.19279 0.45111 0.42898 0.0
N579 N 0.12343 0.33578 0.38189 0.0
C580 C 0.18347 0.41724 0.41758 0.0
C581 C 0.14809 0.35792 0.39327 0.0
N582 N 0.22545 0.45242 0.39615 0.0
N583 N 0.1308 0.30346 0.4157 0.0
H584 H 0.12198 0.34561 0.36925 0.0
H585 H 0.10149 0.31096 0.38528 0.0
H586 H 0.1276 0.29451 0.42838 0.0
H587 H 0.12189 0.27747 0.40735 0.0
H588 H 0.24261 0.47075 0.40503 0.0
H589 H 0.23887 0.45353 0.38428 0.0
H590 H 0.20289 0.48417 0.42541 0.0
H591 H 0.18569 0.44846 0.4417 0.0
C592 C 0.90101 0.14522 0.64177 0.0
C593 C 0.93416 0.11651 0.63624 0.0
C594 C 0.95777 0.10767 0.66547 0.0
C595 C 0.92857 0.14148 0.67067 0.0
N596 N 0.87296 0.19409 0.66403 0.0
N597 N 0.99994 0.07979 0.64269 0.0
C598 C 0.90014 0.16063 0.65888 0.0
C599 C 0.96388 0.09979 0.64808 0.0
N600 N 0.87018 0.15697 0.63076 0.0
N601 N 0.98055 0.08368 0.67718 0.0
H602 H 0.00761 0.07598 0.63007 0.0
H603 H 0.02459 0.07197 0.65069 0.0
H604 H 0.97743 0.08875 0.69009 0.0
H605 H 0.99939 0.05543 0.67417 0.0
H606 H 0.84329 0.17437 0.63426 0.0
H607 H 0.87013 0.14607 0.61825 0.0
H608 H 0.85413 0.21308 0.65585 0.0
H609 H 0.87062 0.20415 0.6766 0.0
C610 C 0.31919 0.09232 0.63941 0.0
C611 C 0.34213 0.13273 0.63514 0.0
C612 C 0.36018 0.14243 0.66518 0.0
C613 C 0.33168 0.1068 0.66953 0.0
N614 N 0.27697 0.05504 0.6604 0.0
N615 N 0.38561 0.19605 0.64375 0.0
C616 C 0.30968 0.08328 0.65654 0.0
C617 C 0.36308 0.15766 0.64801 0.0
N618 N 0.30527 0.06293 0.62716 0.0
N619 N 0.38515 0.16074 0.67735 0.0
H620 H 0.39088 0.20545 0.63124 0.0
H621 H 0.3979 0.21911 0.6525 0.0
H622 H 0.38389 0.1499 0.68988 0.0
H623 H 0.40918 0.18381 0.67487 0.0
H624 H 0.29266 0.03033 0.62979 0.0
H625 H 0.30998 0.06828 0.61437 0.0
H626 H 0.25761 0.04038 0.65139 0.0
H627 H 0.26554 0.05059 0.67252 0.0
C628 C 0.09983 0.90984 0.38976 0.0
C629 C 0.06711 0.87973 0.38498 0.0
C630 C 0.04267 0.87776 0.41423 0.0
C631 C 0.07223 0.91211 0.41867 0.0
N632 N 0.12679 0.9643 0.41045 0.0
N633 N 0.00096 0.8456 0.39202 0.0
C634 C 0.1003 0.92911 0.40636 0.0
C635 C 0.03705 0.86614 0.39707 0.0
N636 N 0.13077 0.91919 0.3786 0.0
N637 N 0.01876 0.85695 0.42627 0.0
H638 H 0.99378 0.83885 0.37951 0.0
H639 H 0.97584 0.84042 0.39999 0.0
H640 H 0.01947 0.86569 0.43895 0.0
H641 H 1.00055 0.8278 0.42387 0.0
H642 H 0.15752 0.93731 0.38176 0.0
H643 H 0.13108 0.90559 0.36645 0.0
H644 H 0.14471 0.98206 0.40166 0.0
H645 H 0.12925 0.97728 0.42266 0.0
C646 C 0.65347 0.83698 0.40549 0.0
C647 C 0.65362 0.87083 0.41843 0.0
C648 C 0.6402 0.93027 0.39664 0.0
C649 C 0.65323 0.89863 0.38403 0.0
N650 N 0.67432 0.81967 0.37713 0.0
N651 N 0.64058 0.95132 0.42607 0.0
C652 C 0.65949 0.85105 0.38851 0.0
C653 C 0.64422 0.91789 0.41401 0.0
N654 N 0.64768 0.79119 0.40951 0.0
N655 N 0.62303 0.97183 0.39194 0.0
H656 H 0.63756 0.94398 0.43881 0.0
H657 H 0.64059 0.98686 0.42331 0.0
H658 H 0.6189 0.98108 0.37932 0.0
H659 H 0.60874 0.99428 0.4004 0.0
H660 H 0.64409 0.76531 0.40047 0.0
H661 H 0.64125 0.78055 0.42181 0.0
H662 H 0.68376 0.78618 0.38057 0.0
H663 H 0.68056 0.82763 0.36463 0.0
C664 C 0.96055 0.70279 0.15178 0.0
C665 C 0.93357 0.68591 0.16453 0.0
C666 C 0.89932 0.6363 0.1435 0.0
C667 C 0.92443 0.65604 0.13069 0.0
N668 N 0.97217 0.71628 0.12217 0.0
N669 N 0.87292 0.64209 0.17207 0.0
C670 C 0.95231 0.69242 0.13468 0.0
C671 C 0.90154 0.65425 0.16025 0.0
N672 N 0.99639 0.72522 0.15601 0.0
N673 N 0.8741 0.59972 0.13968 0.0
H674 H 0.87375 0.65486 0.18434 0.0
H675 H 0.84669 0.62249 0.1694 0.0
H676 H 0.87038 0.58768 0.1274 0.0
H677 H 0.85853 0.58012 0.14871 0.0
H678 H 0.01938 0.73333 0.14732 0.0
H679 H 0.00589 0.73069 0.16836 0.0
H680 H 0.98944 0.74626 0.12438 0.0
H681 H 0.96825 0.70921 0.10943 0.0
C682 C 0.31377 0.67517 0.1689 0.0
C683 C 0.33387 0.63365 0.17406 0.0
C684 C 0.35665 0.62114 0.14482 0.0
C685 C 0.33007 0.65776 0.13931 0.0
N686 N 0.27688 0.71419 0.14655 0.0
N687 N 0.37564 0.56711 0.16734 0.0
C688 C 0.30744 0.68393 0.15147 0.0
C689 C 0.35593 0.60674 0.16212 0.0
N690 N 0.29931 0.70564 0.18069 0.0
N691 N 0.38307 0.60088 0.13363 0.0
H692 H 0.37712 0.55738 0.18 0.0
H693 H 0.38923 0.54331 0.15919 0.0
H694 H 0.38484 0.61144 0.12108 0.0
H695 H 0.40565 0.57666 0.13702 0.0
H696 H 0.28821 0.73878 0.17769 0.0
H697 H 0.30241 0.69992 0.19359 0.0
H698 H 0.25704 0.73068 0.15494 0.0
H699 H 0.2675 0.71897 0.13415 0.0
C700 C 0.10994 0.39246 0.89238 0.0
C701 C 0.07357 0.36932 0.88684 0.0
C702 C 0.05011 0.36324 0.9161 0.0
C703 C 0.08306 0.3921 0.92135 0.0
N704 N 0.14274 0.43808 0.91445 0.0
N705 N 0.00343 0.34592 0.89341 0.0
C706 C 0.11268 0.40779 0.90947 0.0
C707 C 0.04224 0.3579 0.89871 0.0
N708 N 0.14205 0.39882 0.8815 0.0
N709 N 0.02525 0.34207 0.92771 0.0
H710 H 0.99448 0.34634 0.88083 0.0
H711 H 0.97854 0.34172 0.90157 0.0
H712 H 0.02963 0.34541 0.94064 0.0
H713 H 0.00306 0.31736 0.9245 0.0
H714 H 0.17074 0.41171 0.88518 0.0
H715 H 0.14104 0.38756 0.86905 0.0
H716 H 0.16251 0.45493 0.90609 0.0
H717 H 0.14635 0.44802 0.92698 0.0
C718 C 0.69688 0.34663 0.90164 0.0
C719 C 0.67628 0.37254 0.9144 0.0
C720 C 0.64369 0.42031 0.89219 0.0
C721 C 0.66305 0.39254 0.87964 0.0
N722 N 0.69312 0.31735 0.87332 0.0
N723 N 0.62233 0.42719 0.92142 0.0
C724 C 0.68427 0.35153 0.88465 0.0
C725 C 0.64723 0.4074 0.90957 0.0
N726 N 0.73088 0.32003 0.90537 0.0
N727 N 0.62222 0.45926 0.88745 0.0
H728 H 0.6234 0.41757 0.93407 0.0
H729 H 0.59812 0.44984 0.91848 0.0
H730 H 0.61611 0.46713 0.87485 0.0
H731 H 0.61178 0.48423 0.89592 0.0
H732 H 0.74859 0.3037 0.89616 0.0
H733 H 0.74493 0.3193 0.91716 0.0
H734 H 0.70632 0.28559 0.87686 0.0
H735 H 0.68185 0.31749 0.86106 0.0
C736 C 0.35526 0.9049 0.11728 0.0
C737 C 0.35546 0.86996 0.10467 0.0
C738 C 0.42123 0.90076 0.09366 0.0
C739 C 0.42157 0.93486 0.10655 0.0
N740 N 0.39374 0.96443 0.13237 0.0
N741 N 0.39129 0.83038 0.08218 0.0
C742 C 0.38988 0.9355 0.11886 0.0
C743 C 0.38947 0.86641 0.09337 0.0
N744 N 0.32178 0.90912 0.12763 0.0
N745 N 0.44991 0.90289 0.08104 0.0
H746 H 0.36724 0.80689 0.08031 0.0
H747 H 0.41762 0.82202 0.07531 0.0
H748 H 0.47421 0.92667 0.08087 0.0
H749 H 0.44821 0.88333 0.07006 0.0
H750 H 0.31736 0.93694 0.13579 0.0
H751 H 0.297 0.88593 0.1274 0.0
H752 H 0.37425 0.9635 0.14276 0.0
H753 H 0.41888 0.9868 0.13385 0.0
C754 C 0.83872 0.43024 0.11939 0.0
C755 C 0.83259 0.39793 0.10611 0.0
C756 C 0.89626 0.42541 0.09257 0.0
C757 C 0.90454 0.45469 0.10647 0.0
N758 N 0.8861 0.48263 0.13391 0.0
N759 N 0.86032 0.35859 0.08166 0.0
C760 C 0.87641 0.45643 0.12015 0.0
C761 C 0.86294 0.39346 0.09328 0.0
N762 N 0.80852 0.4359 0.1312 0.0
N763 N 0.9188 0.43003 0.07815 0.0
H764 H 0.83562 0.33557 0.08083 0.0
H765 H 0.88439 0.35018 0.07352 0.0
H766 H 0.94256 0.4541 0.07694 0.0
H767 H 0.91114 0.41379 0.06687 0.0
H768 H 0.80893 0.46189 0.14028 0.0
H769 H 0.7816 0.41594 0.13133 0.0
H770 H 0.86906 0.48256 0.14499 0.0
H771 H 0.91312 0.50236 0.13462 0.0
C772 C 0.35961 0.37326 0.21048 0.0
C773 C 0.39103 0.37694 0.19801 0.0
C774 C 0.35017 0.43739 0.18339 0.0
C775 C 0.32128 0.43708 0.19676 0.0
N776 N 0.29847 0.40669 0.22344 0.0
N777 N 0.41766 0.41354 0.17297 0.0
C778 C 0.32576 0.40513 0.21031 0.0
C779 C 0.38666 0.40928 0.18453 0.0
N780 N 0.36216 0.3393 0.22259 0.0
N781 N 0.34195 0.46373 0.16941 0.0
H782 H 0.44389 0.39228 0.17309 0.0
H783 H 0.41866 0.43971 0.16388 0.0
H784 H 0.31551 0.48451 0.16837 0.0
H785 H 0.35921 0.46214 0.1584 0.0
H786 H 0.33795 0.33057 0.2306 0.0
H787 H 0.38783 0.31775 0.2242 0.0
H788 H 0.30281 0.38916 0.2348 0.0
H789 H 0.27209 0.42769 0.2234 0.0
C790 C 0.85374 0.93807 0.18549 0.0
C791 C 0.84364 0.96011 0.20097 0.0
C792 C 0.90462 0.92362 0.21433 0.0
C793 C 0.91594 0.90368 0.1987 0.0
N794 N 0.90459 0.89517 0.16899 0.0
N795 N 0.86295 0.97869 0.22968 0.0
C796 C 0.89125 0.91165 0.18416 0.0
C797 C 0.8703 0.95458 0.21518 0.0
N798 N 0.82765 0.94276 0.17202 0.0
N799 N 0.92493 0.91046 0.22874 0.0
H800 H 0.83611 0.99756 0.23198 0.0
H801 H 0.88472 0.98213 0.23927 0.0
H802 H 0.95027 0.88798 0.22894 0.0
H803 H 0.91458 0.91846 0.24078 0.0
H804 H 0.83032 0.92363 0.16099 0.0
H805 H 0.8019 0.96467 0.17206 0.0
H806 H 0.89055 0.90292 0.15753 0.0
H807 H 0.93191 0.87609 0.1677 0.0
C808 C 0.66325 0.12629 0.93848 0.0
C809 C 0.66457 0.16419 0.94992 0.0
C810 C 0.59636 0.14171 0.9611 0.0
C811 C 0.59416 0.10518 0.94916 0.0
N812 N 0.62225 0.06553 0.92515 0.0
N813 N 0.63062 0.21101 0.97113 0.0
C814 C 0.62684 0.09818 0.9375 0.0
C815 C 0.63045 0.17295 0.96081 0.0
N816 N 0.69675 0.11727 0.92854 0.0
N817 N 0.56734 0.14466 0.97358 0.0
H818 H 0.6565 0.23167 0.97325 0.0
H819 H 0.60432 0.22361 0.97715 0.0
H820 H 0.54158 0.12307 0.97435 0.0
H821 H 0.57023 0.16607 0.98404 0.0
H822 H 0.7 0.08742 0.92129 0.0
H823 H 0.72267 0.13877 0.92814 0.0
H824 H 0.64292 0.06086 0.91529 0.0
H825 H 0.59577 0.04508 0.924 0.0
C826 C 0.15228 0.64579 0.9326 0.0
C827 C 0.18098 0.64605 0.94615 0.0
C828 C 0.13654 0.59288 0.96208 0.0
C829 C 0.10874 0.59015 0.94817 0.0
N830 N 0.09468 0.60671 0.91895 0.0
N831 N 0.20495 0.6121 0.97224 0.0
C832 C 0.11784 0.61464 0.93305 0.0
C833 C 0.17467 0.61678 0.9603 0.0
N834 N 0.15785 0.67558 0.91935 0.0
N835 N 0.12542 0.57545 0.97746 0.0
H836 H 0.23274 0.63036 0.9719 0.0
H837 H 0.20406 0.58703 0.98175 0.0
H838 H 0.09742 0.55894 0.97975 0.0
H839 H 0.14205 0.58165 0.98846 0.0
H840 H 0.1359 0.68083 0.90993 0.0
H841 H 0.18383 0.69689 0.91826 0.0
H842 H 0.1021 0.61988 0.90712 0.0
H843 H 0.06994 0.58349 0.91875 0.0
C844 C 0.59662 0.65776 0.8661 0.0
C845 C 0.57084 0.66301 0.85173 0.0
C846 C 0.61115 0.60316 0.83697 0.0
C847 C 0.63961 0.60117 0.85069 0.0
N848 N 0.66018 0.62682 0.87829 0.0
N849 N 0.55707 0.64617 0.82254 0.0
C850 C 0.63254 0.62863 0.86526 0.0
C851 C 0.57866 0.63671 0.837 0.0
N852 N 0.58596 0.67984 0.88068 0.0
N853 N 0.61524 0.57342 0.82367 0.0
H854 H 0.53296 0.67027 0.82182 0.0
H855 H 0.56513 0.63306 0.8108 0.0
H856 H 0.64041 0.55134 0.82199 0.0
H857 H 0.59221 0.56847 0.81468 0.0
H858 H 0.60093 0.67473 0.89214 0.0
H859 H 0.5597 0.70089 0.88163 0.0
H860 H 0.65983 0.64961 0.88843 0.0
H861 H 0.6849 0.60342 0.87869 0.0
C862 C 0.07822 0.12983 0.84047 0.0
C863 C 0.07225 0.16146 0.85394 0.0
C864 C 0.13719 0.1343 0.86709 0.0
C865 C 0.14207 0.10121 0.85401 0.0
N866 N 0.11415 0.06266 0.82946 0.0
N867 N 0.09185 0.18924 0.88132 0.0
C868 C 0.1114 0.09724 0.8412 0.0
C869 C 0.10063 0.16238 0.86762 0.0
N870 N 0.05419 0.13318 0.82631 0.0
N871 N 0.16757 0.139 0.87894 0.0
H872 H 0.06504 0.20942 0.88216 0.0
H873 H 0.10901 0.18869 0.89241 0.0
H874 H 0.19349 0.11732 0.87947 0.0
H875 H 0.16841 0.16583 0.88769 0.0
H876 H 0.06063 0.11564 0.81518 0.0
H877 H 0.02963 0.15646 0.82499 0.0
H878 H 0.08988 0.05369 0.82147 0.0
H879 H 0.13971 0.04087 0.82821 0.0
C880 C 0.37788 0.41028 0.59296 0.0
C881 C 0.41187 0.40653 0.60431 0.0
C882 C 0.37742 0.34094 0.61855 0.0
C883 C 0.34322 0.34529 0.60735 0.0
N884 N 0.30726 0.39026 0.58603 0.0
N885 N 0.44122 0.37408 0.62961 0.0
C886 C 0.34219 0.38212 0.59535 0.0
C887 C 0.4109 0.37337 0.61759 0.0
N888 N 0.38069 0.43874 0.57916 0.0
N889 N 0.37774 0.30563 0.63013 0.0
H890 H 0.46591 0.39739 0.62923 0.0
H891 H 0.44062 0.35413 0.64056 0.0
H892 H 0.35222 0.28415 0.63215 0.0
H893 H 0.40343 0.29668 0.63736 0.0
H894 H 0.35979 0.43822 0.56917 0.0
H895 H 0.4059 0.46024 0.57681 0.0
H896 H 0.30271 0.42023 0.57883 0.0
H897 H 0.28118 0.36915 0.58635 0.0
C898 C 0.87616 0.84572 0.58412 0.0
C899 C 0.84943 0.8414 0.59829 0.0
C900 C 0.89392 0.8958 0.61401 0.0
C901 C 0.91834 0.90279 0.59939 0.0
N902 N 0.92719 0.892 0.5695 0.0
N903 N 0.83122 0.86431 0.62647 0.0
C904 C 0.90818 0.87955 0.58422 0.0
C905 C 0.85771 0.86729 0.61314 0.0
N906 N 0.87123 0.81759 0.57042 0.0
N907 N 0.90637 0.91504 0.62889 0.0
H908 H 0.80633 0.84132 0.62684 0.0
H909 H 0.83251 0.88616 0.63687 0.0
H910 H 0.93287 0.9355 0.62993 0.0
H911 H 0.89261 0.90795 0.64043 0.0
H912 H 0.89337 0.81443 0.56099 0.0
H913 H 0.84656 0.79491 0.56881 0.0
H914 H 0.9172 0.88099 0.5577 0.0
H915 H 0.95049 0.91691 0.56872 0.0
C916 C 0.39539 0.83505 0.68363 0.0
C917 C 0.42605 0.84014 0.69628 0.0
C918 C 0.38426 0.90079 0.7099 0.0
C919 C 0.35193 0.89326 0.69797 0.0
N920 N 0.32534 0.85183 0.674 0.0
N921 N 0.44888 0.87431 0.72231 0.0
C922 C 0.35711 0.85991 0.68497 0.0
C923 C 0.42047 0.87249 0.70952 0.0
N924 N 0.40357 0.8073 0.6701 0.0
N925 N 0.38032 0.93493 0.72176 0.0
H926 H 0.47662 0.85569 0.72222 0.0
H927 H 0.44415 0.89196 0.73355 0.0
H928 H 0.35295 0.95305 0.72395 0.0
H929 H 0.40477 0.94702 0.72906 0.0
H930 H 0.38467 0.80514 0.65953 0.0
H931 H 0.43129 0.7889 0.66888 0.0
H932 H 0.32508 0.82472 0.66536 0.0
H933 H 0.29787 0.87096 0.67411 0.0
C934 C 0.86639 0.37312 0.68122 0.0
C935 C 0.86151 0.40573 0.69446 0.0
C936 C 0.93034 0.38417 0.70538 0.0
C937 C 0.93255 0.34717 0.69365 0.0
N938 N 0.9025 0.30484 0.67062 0.0
N939 N 0.88613 0.43639 0.72097 0.0
C940 C 0.90049 0.34127 0.68159 0.0
C941 C 0.89299 0.41011 0.70692 0.0
N942 N 0.83923 0.37363 0.66802 0.0
N943 N 0.96372 0.39426 0.71529 0.0
H944 H 0.85879 0.45462 0.72313 0.0
H945 H 0.90577 0.4363 0.73137 0.0
H946 H 0.9912 0.37527 0.71503 0.0
H947 H 0.96552 0.42404 0.72269 0.0
H948 H 0.84315 0.35397 0.65716 0.0
H949 H 0.81442 0.39685 0.66727 0.0
H950 H 0.87822 0.29532 0.66275 0.0
H951 H 0.92814 0.28277 0.66991 0.0
C952 C 0.58277 0.66394 0.45815 0.0
C953 C 0.57459 0.63509 0.44411 0.0
C954 C 0.63774 0.66441 0.43039 0.0
C955 C 0.64855 0.68841 0.44537 0.0
N956 N 0.63493 0.70174 0.47491 0.0
N957 N 0.59575 0.60441 0.41731 0.0
C958 C 0.62185 0.68602 0.45958 0.0
C959 C 0.60258 0.6343 0.43035 0.0
N960 N 0.55363 0.66972 0.47041 0.0
N961 N 0.65991 0.67179 0.41601 0.0
H962 H 0.56905 0.58423 0.41636 0.0
H963 H 0.61743 0.59789 0.40794 0.0
H964 H 0.68516 0.69423 0.41545 0.0
H965 H 0.65104 0.65907 0.4043 0.0
H966 H 0.55615 0.69468 0.47983 0.0
H967 H 0.52524 0.65272 0.47046 0.0
H968 H 0.61886 0.69576 0.48606 0.0
H969 H 0.66399 0.71604 0.477 0.0
C970 C 0.10932 0.12972 0.43216 0.0
C971 C 0.07852 0.13063 0.44486 0.0
C972 C 0.12177 0.18265 0.46167 0.0
C973 C 0.15121 0.18523 0.4484 0.0
N974 N 0.16775 0.16918 0.41939 0.0
N975 N 0.0514 0.16666 0.46995 0.0
C976 C 0.14359 0.16094 0.43315 0.0
C977 C 0.08327 0.16032 0.45892 0.0
N978 N 0.10605 0.09878 0.41922 0.0
N979 N 0.13153 0.19836 0.47741 0.0
H980 H 0.02311 0.14962 0.46898 0.0
H981 H 0.0518 0.19205 0.47928 0.0
H982 H 0.16013 0.21242 0.48052 0.0
H983 H 0.11306 0.1924 0.48792 0.0
H984 H 0.12983 0.09255 0.41069 0.0
H985 H 0.0803 0.07737 0.41762 0.0
H986 H 0.16122 0.15584 0.40752 0.0
H987 H 0.19197 0.19309 0.41942 0.0
C988 C 0.63727 0.1134 0.37273 0.0
C989 C 0.66741 0.1118 0.35978 0.0
C990 C 0.6288 0.17096 0.34382 0.0
C991 C 0.59913 0.17404 0.35699 0.0
N992 N 0.57977 0.1552 0.38546 0.0
N993 N 0.69744 0.14762 0.33517 0.0
C994 C 0.60466 0.14718 0.3719 0.0
C995 C 0.66509 0.14362 0.34613 0.0
N996 N 0.63989 0.08248 0.38579 0.0
N997 N 0.6211 0.19139 0.32854 0.0
H998 H 0.72406 0.1272 0.33592 0.0
H999 H 0.69947 0.17408 0.3262 0.0
H1000 H 0.5945 0.21051 0.32586 0.0
H1001 H 0.63903 0.18536 0.3179 0.0
H1002 H 0.61681 0.0782 0.39476 0.0
H1003 H 0.66486 0.05968 0.38727 0.0
H1004 H 0.58446 0.14012 0.39724 0.0
H1005 H 0.55628 0.18017 0.38535 0.0
C1006 C 0.13066 0.60399 0.33822 0.0
C1007 C 0.15803 0.60397 0.35224 0.0
C1008 C 0.11261 0.65949 0.36683 0.0
C1009 C 0.08641 0.66133 0.35244 0.0
N1010 N 0.07467 0.64209 0.32325 0.0
N1011 N 0.17837 0.63493 0.37906 0.0
C1012 C 0.09637 0.63513 0.33786 0.0
C1013 C 0.15004 0.63286 0.3663 0.0
N1014 N 0.1374 0.57403 0.32515 0.0
N1015 N 0.1008 0.68189 0.38119 0.0
H1016 H 0.20534 0.6149 0.37918 0.0
H1017 H 0.17675 0.65854 0.38893 0.0
H1018 H 0.0734 0.70102 0.38202 0.0
H1019 H 0.1162 0.67874 0.39264 0.0
H1020 H 0.11557 0.56726 0.31583 0.0
H1021 H 0.1641 0.55385 0.324 0.0
H1022 H 0.0837 0.62878 0.31166 0.0
H1023 H 0.04934 0.66442 0.32223 0.0
C1024 C 0.47655 0.99219 0.0371 0.0
C1025 C 0.49134 0.03402 0.04435 0.0
C1026 C 0.53203 0.05027 1.01882 0.0
C1027 C 0.51857 1.00746 1.01185 0.0
N1028 N 0.48271 0.93456 1.01485 0.0
N1029 N 0.53502 0.10179 0.04299 0.0
C1030 C 0.49222 0.97745 1.02119 0.0
C1031 C 0.5196 0.06279 0.03541 0.0
N1032 N 0.44679 0.96722 0.04532 0.0
N1033 N 0.55614 0.07929 1.00934 0.0
H1034 H 0.52421 0.11388 0.05454 0.0
H1035 H 0.55939 0.12141 0.03825 0.0
H1036 H 0.56825 0.06943 0.99772 0.0
H1037 H 0.56321 0.11342 1.0126 0.0
H1038 H 0.43179 0.93844 0.04028 0.0
H1039 H 0.43462 0.97759 0.05687 0.0
H1040 H 0.46648 0.90912 1.02143 0.0
H1041 H 0.49397 0.92283 1.00333 0.0
C1042 C 0.77077 0.3217 0.03497 0.0
C1043 C 0.75988 0.28029 0.04381 0.0
C1044 C 0.72758 0.24983 1.01797 0.0
C1045 C 0.73641 0.29237 1.00939 0.0
N1046 N 0.76331 0.37067 1.01011 0.0
N1047 N 0.72249 0.20769 0.04443 0.0
C1048 C 0.75686 0.32895 1.01806 0.0
C1049 C 0.73707 0.24494 0.03545 0.0
N1050 N 0.79594 0.3534 0.04263 0.0
N1051 N 0.71032 0.21366 1.00931 0.0
H1052 H 0.72956 0.20186 0.05706 0.0
H1053 H 0.70107 0.18402 0.03974 0.0
H1054 H 0.6994 0.21695 0.99702 0.0
H1055 H 0.70852 0.17978 1.01398 0.0
H1056 H 0.80903 0.38197 0.03658 0.0
H1057 H 0.80676 0.34894 0.05487 0.0
H1058 H 0.77346 0.40057 1.01619 0.0
H1059 H 0.75595 0.37671 0.99753 0.0
C1060 C 0.4669 0.29133 0.26871 0.0
C1061 C 0.4776 0.25005 0.25991 0.0
C1062 C 0.51649 0.22285 0.28479 0.0
C1063 C 0.50958 0.26636 0.29283 0.0
N1064 N 0.48211 0.34457 0.29151 0.0
N1065 N 0.51962 0.18042 0.25853 0.0
C1066 C 0.48612 0.30144 0.28445 0.0
C1067 C 0.50414 0.21668 0.26769 0.0
N1068 N 0.4371 0.32015 0.26222 0.0
N1069 N 0.53446 0.18705 0.29354 0.0
H1070 H 0.51171 0.17444 0.24601 0.0
H1071 H 0.54299 0.15844 0.26293 0.0
H1072 H 0.54527 0.1906 0.30582 0.0
H1073 H 0.5359 0.15304 0.28905 0.0
H1074 H 0.42467 0.34836 0.26869 0.0
H1075 H 0.42167 0.31295 0.251 0.0
H1076 H 0.46919 0.37305 0.28524 0.0
H1077 H 0.49469 0.35316 0.30316 0.0
C1078 C 0.73646 0.07275 0.27351 0.0
C1079 C 0.75403 0.03874 0.26265 0.0
C1080 C 0.75085 0.9807 0.2856 0.0
C1081 C 0.73063 1.01369 0.296 0.0
N1082 N 0.69852 0.08863 0.2993 0.0
N1083 N 0.77161 0.95815 0.25753 0.0
C1084 C 0.722 0.05913 0.28979 0.0
C1085 C 0.75934 0.99207 0.26847 0.0
N1086 N 0.73322 0.118 0.2682 0.0
N1087 N 0.76338 0.93894 0.29227 0.0
H1088 H 0.77963 0.96493 0.24508 0.0
H1089 H 0.7711 0.92273 0.26043 0.0
H1090 H 0.75656 0.92856 0.30454 0.0
H1091 H 0.783 0.91594 0.28605 0.0
H1092 H 0.72481 0.14542 0.27601 0.0
H1093 H 0.74164 0.12897 0.25617 0.0
H1094 H 0.68757 0.12077 0.2951 0.0
H1095 H 0.68672 0.07897 0.31101 0.0
C1096 C 0.23891 0.71031 1.01819 0.0
C1097 C 0.25411 0.74979 1.00935 0.0
C1098 C 0.29707 0.77015 0.03386 0.0
C1099 C 0.27909 0.73326 0.04326 0.0
N1100 N 0.22841 0.67188 0.04513 0.0
N1101 N 0.29356 0.82088 1.00935 0.0
C1102 C 0.24899 0.70405 0.03559 0.0
C1103 C 0.28201 0.78076 1.01739 0.0
N1104 N 0.21513 0.6785 1.00988 0.0
N1105 N 0.32947 0.79427 0.04061 0.0
H1106 H 0.28322 0.82975 0.99731 0.0
H1107 H 0.31051 0.84726 1.01506 0.0
H1108 H 0.34163 0.78649 0.05246 0.0
H1109 H 0.34681 0.81864 0.03396 0.0
H1110 H 0.20716 0.64618 1.01489 0.0
H1111 H 0.20523 0.68348 0.99749 0.0
H1112 H 0.20272 0.65355 0.04086 0.0
H1113 H 0.23529 0.66558 0.05776 0.0
C1114 C 0.54397 0.74155 0.76751 0.0
C1115 C 0.50899 0.75903 0.7585 0.0
C1116 C 0.49257 0.81011 0.78236 0.0
C1117 C 0.52472 0.78903 0.79196 0.0
N1118 N 0.57914 0.73215 0.7944 0.0
N1119 N 0.44808 0.80742 0.75766 0.0
C1120 C 0.55019 0.75435 0.78467 0.0
C1121 C 0.48271 0.79263 0.76604 0.0
N1122 N 0.57144 0.71278 0.75961 0.0
N1123 N 0.47206 0.84763 0.78885 0.0
H1124 H 0.44043 0.79601 0.74561 0.0
H1125 H 0.42537 0.8284 0.76299 0.0
H1126 H 0.47959 0.86163 0.80055 0.0
H1127 H 0.4506 0.8675 0.78216 0.0
H1128 H 0.59998 0.70329 0.76467 0.0
H1129 H 0.56674 0.70032 0.74747 0.0
H1130 H 0.59518 0.70249 0.79064 0.0
H1131 H 0.58567 0.74209 0.80673 0.0
C1132 C 0.28085 0.96791 0.76995 0.0
C1133 C 0.26324 1.00563 0.76071 0.0
C1134 C 0.21315 0.01824 0.78363 0.0
C1135 C 0.23275 0.98288 0.79336 0.0
N1136 N 0.28881 0.92811 0.7968 0.0
N1137 N 0.21481 0.06951 0.75918 0.0
C1138 C 0.26746 0.95865 0.78675 0.0
C1139 C 0.23013 0.03177 0.76775 0.0
N1140 N 0.31001 0.94032 0.76253 0.0
N1141 N 0.17737 0.03776 0.78945 0.0
H1142 H 0.22556 0.07963 0.74736 0.0
H1143 H 0.19353 0.09289 0.76416 0.0
H1144 H 0.16388 0.02739 0.80075 0.0
H1145 H 0.15906 0.06085 0.78257 0.0
H1146 H 0.32023 0.90879 0.7676 0.0
H1147 H 0.32254 0.94787 0.75078 0.0
H1148 H 0.31735 0.91385 0.7936 0.0
H1149 H 0.2792 0.919 0.80889 0.0
C1150 C 0.51791 0.56131 0.51508 0.0
C1151 C 0.51094 0.51808 0.50687 0.0
C1152 C 0.47376 0.48967 0.53186 0.0
C1153 C 0.48335 0.53144 0.54058 0.0
N1154 N 0.51905 0.60516 0.54114 0.0
N1155 N 0.48679 0.43876 0.50813 0.0
C1156 C 0.5064 0.56695 0.53231 0.0
C1157 C 0.49043 0.48148 0.51553 0.0
N1158 N 0.53536 0.59723 0.50627 0.0
N1159 N 0.44711 0.45856 0.53903 0.0
H1160 H 0.49752 0.43166 0.49606 0.0
H1161 H 0.47616 0.4092 0.51438 0.0
H1162 H 0.43348 0.46445 0.55068 0.0
H1163 H 0.43522 0.42961 0.53286 0.0
H1164 H 0.53638 0.63142 0.51058 0.0
H1165 H 0.54741 0.5931 0.4942 0.0
H1166 H 0.54027 0.6293 0.53658 0.0
H1167 H 0.51022 0.61154 0.55351 0.0
C1168 C 0.76225 0.70457 0.52862 0.0
C1169 C 0.77138 0.74147 0.5399 0.0
C1170 C 0.76244 0.79813 0.51665 0.0
C1171 C 0.74865 0.76191 0.50592 0.0
N1172 N 0.73263 0.68071 0.50189 0.0
N1173 N 0.7762 0.82438 0.54498 0.0
C1174 C 0.74819 0.71507 0.51194 0.0
C1175 C 0.77033 0.78849 0.53398 0.0
N1176 N 0.76658 0.65938 0.53387 0.0
N1177 N 0.77032 0.84139 0.51012 0.0
H1178 H 0.7849 0.81954 0.55749 0.0
H1179 H 0.77001 0.85908 0.54198 0.0
H1180 H 0.76538 0.85013 0.49753 0.0
H1181 H 0.7854 0.86753 0.51677 0.0
H1182 H 0.76525 0.63091 0.52583 0.0
H1183 H 0.77452 0.65007 0.54614 0.0
H1184 H 0.72649 0.647 0.50604 0.0
H1185 H 0.72284 0.68661 0.48958 0.0
C1186 C 0.72351 0.53811 0.78007 0.0
C1187 C 0.73584 0.49841 0.78958 0.0
C1188 C 0.77644 0.47013 0.76547 0.0
C1189 C 0.76602 0.5111 0.75626 0.0
N1190 N 0.73184 0.5859 0.75496 0.0
N1191 N 0.77942 0.43049 0.79249 0.0
C1192 C 0.74034 0.54575 0.76367 0.0
C1193 C 0.76362 0.46534 0.78256 0.0
N1194 N 0.69462 0.56778 0.78661 0.0
N1195 N 0.79822 0.43535 0.75779 0.0
H1196 H 0.77022 0.42496 0.8049 0.0
H1197 H 0.80376 0.40896 0.78888 0.0
H1198 H 0.81052 0.4387 0.74574 0.0
H1199 H 0.80221 0.40222 0.76295 0.0
H1200 H 0.6807 0.59485 0.77993 0.0
H1201 H 0.68215 0.56324 0.79857 0.0
H1202 H 0.71721 0.61476 0.76014 0.0
H1203 H 0.74151 0.59182 0.74264 0.0
C1204 C 0.26763 0.29905 0.5212 0.0
C1205 C 0.24961 0.26322 0.51131 0.0
C1206 C 0.26089 0.20714 0.53454 0.0
C1207 C 0.27555 0.24387 0.54488 0.0
N1208 N 0.29079 0.32523 0.54867 0.0
N1209 N 0.22664 0.18382 0.50865 0.0
C1210 C 0.27826 0.28996 0.53835 0.0
C1211 C 0.24589 0.21734 0.51799 0.0
N1212 N 0.27673 0.34109 0.51393 0.0
N1213 N 0.26124 0.16242 0.54057 0.0
H1214 H 0.21629 0.18964 0.4964 0.0
H1215 H 0.21836 0.15119 0.51325 0.0
H1216 H 0.27016 0.15377 0.5528 0.0
H1217 H 0.25537 0.13323 0.53324 0.0
H1218 H 0.29427 0.36674 0.51977 0.0
H1219 H 0.26945 0.34933 0.50148 0.0
H1220 H 0.2882 0.36041 0.54558 0.0
H1221 H 0.30231 0.31929 0.56076 0.0
C1222 C 0.19841 0.49972 0.28405 0.0
C1223 C 0.23017 0.47684 0.29313 0.0
C1224 C 0.276 0.48307 0.26838 0.0
C1225 C 0.24602 0.51138 0.2601 0.0
N1226 N 0.18061 0.55221 0.26125 0.0
N1227 N 0.29989 0.44738 0.29446 0.0
C1228 C 0.20755 0.52077 0.26821 0.0
C1229 C 0.26914 0.46855 0.28538 0.0
N1230 N 0.15945 0.50159 0.29063 0.0
N1231 N 0.31026 0.46853 0.25982 0.0
H1232 H 0.29491 0.43304 0.30637 0.0
H1233 H 0.33055 0.44564 0.29053 0.0
H1234 H 0.31643 0.47848 0.24745 0.0
H1235 H 0.33097 0.44374 0.26444 0.0
H1236 H 0.13379 0.51371 0.28397 0.0
H1237 H 0.15203 0.48676 0.30223 0.0
H1238 H 0.15435 0.56457 0.26735 0.0
H1239 H 0.18657 0.56961 0.25002 0.0
C1240 C 0.98082 0.99377 0.5154 0.0
C1241 C 0.00594 0.02682 0.5069 0.0
C1242 C 0.0081 0.07501 0.53244 0.0
C1243 C 0.98137 0.04291 0.54064 0.0
N1244 N 0.9355 0.97742 0.53903 0.0
N1245 N 0.03966 0.10147 0.50635 0.0
C1246 C 0.96573 1.00396 0.53179 0.0
C1247 C 0.0183 0.06835 0.51514 0.0
N1248 N 0.97203 0.95217 0.50788 0.0
N1249 N 0.02526 0.11064 0.5414 0.0
H1250 H 0.05013 0.09609 0.49411 0.0
H1251 H 0.04537 0.13486 0.51085 0.0
H1252 H 0.01726 0.11774 0.55383 0.0
H1253 H 0.04891 0.13175 0.53687 0.0
H1254 H 0.95731 0.92468 0.51398 0.0
H1255 H 0.98254 0.9435 0.4959 0.0
H1256 H 0.9198 0.95098 0.53279 0.0
H1257 H 0.92325 0.98504 0.55084 0.0
C1258 C 0.99075 0.30346 0.76462 0.0
C1259 C 1.00022 0.25799 0.75873 0.0
C1260 C 0.03451 0.23982 0.78562 0.0
C1261 C 0.0215 0.2834 0.79208 0.0
N1262 N 0.98496 0.35593 0.78844 0.0
N1263 N 0.02755 0.18104 0.76391 0.0
C1264 C 0.99932 0.31526 0.78171 0.0
C1265 C 0.02113 0.22564 0.76933 0.0
N1266 N 0.97378 0.33539 0.7538 0.0
N1267 N 0.06044 0.21248 0.79505 0.0
H1268 H 0.01832 0.16954 0.75206 0.0
H1269 H 0.03896 0.15436 0.77154 0.0
H1270 H 0.07112 0.22258 0.80689 0.0
H1271 H 0.07435 0.18215 0.79067 0.0
H1272 H 0.97049 0.37062 0.75657 0.0
H1273 H 0.9646 0.32691 0.7416 0.0
H1274 H 0.9642 0.3781 0.78234 0.0
H1275 H 0.99255 0.36663 0.80058 0.0
C1276 C 0.9701 0.80807 0.26744 0.0
C1277 C 0.9889 0.77204 0.25799 0.0
C1278 C 0.03165 0.75046 0.28252 0.0
C1279 C 0.01454 0.78832 0.29164 0.0
N1280 N 0.97167 0.85706 0.29229 0.0
N1281 N 0.04018 0.71131 0.2557 0.0
C1282 C 0.98509 0.8184 0.2839 0.0
C1283 C 0.02026 0.74366 0.26535 0.0
N1284 N 0.93687 0.83129 0.26079 0.0
N1285 N 0.05862 0.72081 0.29043 0.0
H1286 H 0.03155 0.70399 0.24334 0.0
H1287 H 0.06648 0.69319 0.25955 0.0
H1288 H 0.07032 0.72731 0.30244 0.0
H1289 H 0.06838 0.68919 0.28544 0.0
H1290 H 0.91902 0.85514 0.26743 0.0
H1291 H 0.92472 0.82338 0.24897 0.0
H1292 H 0.95322 0.88286 0.28689 0.0
H1293 H 0.98173 0.86541 0.30438 0.0
C1294 C 0.00913 0.47417 1.02116 0.0
C1295 C 0.01886 0.51129 1.01005 0.0
C1296 C 0.00535 0.56761 0.03279 0.0
C1297 C 0.99835 0.53009 0.04424 0.0
N1298 N 0.00431 0.44699 0.04979 0.0
N1299 N 0.03153 0.59317 1.00566 0.0
C1300 C 0.00361 0.48325 0.03859 0.0
C1301 C 0.01818 0.558 1.01596 0.0
N1302 N 0.00258 0.43037 1.01498 0.0
N1303 N 1.0007 0.61267 0.03803 0.0
H1304 H 0.04046 0.58785 0.99324 0.0
H1305 H 0.03688 0.62709 1.00967 0.0
H1306 H 0.99689 0.62212 0.05056 0.0
H1307 H 0.99908 0.64103 0.02984 0.0
H1308 H 0.99014 0.40338 1.02215 0.0
H1309 H 0.0055 0.42189 1.0023 0.0
H1310 H 0.01313 0.4133 0.04649 0.0
H1311 H 1.0001 0.45071 0.06264 0.0
C1312 C 0.59987 0.15999 0.08962 0.0
C1313 C 0.57412 0.1566 0.10394 0.0
C1314 C 0.61681 0.21539 0.11824 0.0
C1315 C 0.64101 0.22021 0.10348 0.0
N1316 N 0.6456 0.20921 0.0735 0.0
N1317 N 0.5515 0.18986 0.1301 0.0
C1318 C 0.62925 0.1963 0.08865 0.0
C1319 C 0.58058 0.1869 0.11778 0.0
N1320 N 0.59694 0.12782 0.07704 0.0
N1321 N 0.62904 0.23636 0.13279 0.0
H1322 H 0.52547 0.16844 0.13046 0.0
H1323 H 0.55174 0.21633 0.13901 0.0
H1324 H 0.65492 0.25786 0.13345 0.0
H1325 H 0.61476 0.23031 0.14432 0.0
H1326 H 0.61763 0.12633 0.06702 0.0
H1327 H 0.57654 0.09974 0.07752 0.0
H1328 H 0.6355 0.19565 0.06206 0.0
H1329 H 0.66574 0.23741 0.07226 0.0
C1330 C 0.6024 0.18041 0.18336 0.0
C1331 C 0.58679 0.20683 0.19699 0.0
C1332 C 0.63957 0.17298 0.21536 0.0
C1333 C 0.65849 0.15085 0.20134 0.0
N1334 N 0.66241 0.14305 0.17111 0.0
N1335 N 0.5964 0.23631 0.22504 0.0
C1336 C 0.64132 0.15733 0.18502 0.0
C1337 C 0.60786 0.20626 0.21259 0.0
N1338 N 0.57926 0.17551 0.16914 0.0
N1339 N 0.64955 0.15971 0.23142 0.0
H1340 H 0.57288 0.26092 0.22343 0.0
H1341 H 0.61298 0.23986 0.23622 0.0
H1342 H 0.66959 0.13213 0.23414 0.0
H1343 H 0.63392 0.17192 0.24197 0.0
H1344 H 0.58691 0.1521 0.15965 0.0
H1345 H 0.55105 0.19267 0.1675 0.0
H1346 H 0.65266 0.15087 0.1589 0.0
H1347 H 0.69155 0.12751 0.17175 0.0
C1348 C 0.40162 0.89773 0.93497 0.0
C1349 C 0.42004 0.9067 0.95087 0.0
C1350 C 0.3715 0.85292 0.96423 0.0
C1351 C 0.35013 0.84782 0.94879 0.0
N1352 N 0.33966 0.87331 0.92021 0.0
N1353 N 0.41307 0.90424 0.98115 0.0
C1354 C 0.36369 0.87242 0.93432 0.0
C1355 C 0.40222 0.88757 0.96567 0.0
N1356 N 0.42084 0.91161 0.92053 0.0
N1357 N 0.3626 0.82443 0.97756 0.0
H1358 H 0.43302 0.93241 0.98271 0.0
H1359 H 0.39832 0.8941 0.99221 0.0
H1360 H 0.34083 0.79774 0.97685 0.0
H1361 H 0.37987 0.82421 0.98865 0.0
H1362 H 0.41049 0.90219 0.9086 0.0
H1363 H 0.44896 0.92931 0.92051 0.0
H1364 H 0.34534 0.89611 0.91026 0.0
H1365 H 0.31237 0.85418 0.91917 0.0
C1366 C 0.38354 0.86759 0.86909 0.0
C1367 C 0.41024 0.87605 0.85522 0.0
C1368 C 0.36956 0.94598 0.8482 0.0
C1369 C 0.33911 0.93276 0.85993 0.0
N1370 N 0.31414 0.87651 0.88004 0.0
N1371 N 0.41906 0.91603 0.82848 0.0
C1372 C 0.34538 0.89239 0.87005 0.0
C1373 C 0.40099 0.91363 0.84399 0.0
N1374 N 0.39463 0.83698 0.88151 0.0
N1375 N 0.36706 0.98818 0.84026 0.0
H1376 H 0.43779 0.88965 0.82371 0.0
H1377 H 0.41063 0.94064 0.81941 0.0
H1378 H 0.3439 1.01238 0.84293 0.0
H1379 H 0.3904 1.00077 0.83245 0.0
H1380 H 0.37723 0.832 0.89238 0.0
H1381 H 0.42306 0.81995 0.88186 0.0
H1382 H 0.31469 0.84385 0.88583 0.0
H1383 H 0.28677 0.89517 0.88178 0.0
C1384 C 0.64161 0.65063 0.58905 0.0
C1385 C 0.6691 0.64794 0.60287 0.0
C1386 C 0.6245 0.5888 0.61603 0.0
C1387 C 0.59901 0.58904 0.60148 0.0
N1388 N 0.59294 0.60825 0.57197 0.0
N1389 N 0.6925 0.60558 0.62737 0.0
C1390 C 0.61046 0.6165 0.58733 0.0
C1391 C 0.66228 0.61445 0.61579 0.0
N1392 N 0.64557 0.68545 0.57737 0.0
N1393 N 0.61237 0.56551 0.63017 0.0
H1394 H 0.72003 0.62438 0.62781 0.0
H1395 H 0.69139 0.57712 0.63554 0.0
H1396 H 0.58523 0.54608 0.63073 0.0
H1397 H 0.62797 0.56814 0.64162 0.0
H1398 H 0.62393 0.69127 0.56785 0.0
H1399 H 0.6682 0.7112 0.5782 0.0
H1400 H 0.60271 0.62455 0.56094 0.0
H1401 H 0.57232 0.5809 0.56994 0.0
C1402 C 0.6153 0.63181 0.68114 0.0
C1403 C 0.5948 0.63187 0.69698 0.0
C1404 C 0.64018 0.56787 0.70621 0.0
C1405 C 0.66525 0.57424 0.69188 0.0
N1406 N 0.68029 0.61822 0.6668 0.0
N1407 N 0.59764 0.60764 0.72631 0.0
C1408 C 0.65379 0.60781 0.67958 0.0
C1409 C 0.60958 0.6016 0.70997 0.0
N1410 N 0.59771 0.653 0.66747 0.0
N1411 N 0.64708 0.53095 0.71677 0.0
H1412 H 0.57956 0.6355 0.73028 0.0
H1413 H 0.61052 0.58889 0.7363 0.0
H1414 H 0.66982 0.50593 0.71446 0.0
H1415 H 0.62744 0.52278 0.72673 0.0
H1416 H 0.61026 0.65069 0.65543 0.0
H1417 H 0.56844 0.66824 0.66778 0.0
H1418 H 0.67563 0.64643 0.6587 0.0
H1419 H 0.70814 0.60036 0.6651 0.0
C1420 C 0.37569 0.43214 0.43388 0.0
C1421 C 0.40131 0.43683 0.4483 0.0
C1422 C 0.36058 0.37779 0.46308 0.0
C1423 C 0.33305 0.37549 0.44927 0.0
N1424 N 0.30862 0.40847 0.42317 0.0
N1425 N 0.40826 0.42629 0.47837 0.0
C1426 C 0.3389 0.40491 0.43508 0.0
C1427 C 0.39083 0.41317 0.46343 0.0
N1428 N 0.38688 0.45226 0.41899 0.0
N1429 N 0.35773 0.34622 0.47597 0.0
H1430 H 0.42812 0.45475 0.47938 0.0
H1431 H 0.39904 0.41284 0.48996 0.0
H1432 H 0.33593 0.31946 0.47612 0.0
H1433 H 0.37955 0.34388 0.48561 0.0
H1434 H 0.37123 0.44638 0.40774 0.0
H1435 H 0.41336 0.47253 0.41767 0.0
H1436 H 0.30861 0.43446 0.41399 0.0
H1437 H 0.28206 0.38786 0.42335 0.0
C1438 C 0.39813 0.37214 0.37002 0.0
C1439 C 0.41735 0.36677 0.35409 0.0
C1440 C 0.36935 0.42444 0.34219 0.0
C1441 C 0.34623 0.42412 0.35723 0.0
N1442 N 0.33409 0.3898 0.38445 0.0
N1443 N 0.4112 0.37734 0.32392 0.0
C1444 C 0.35934 0.3958 0.37093 0.0
C1445 C 0.4003 0.39023 0.33984 0.0
N1446 N 0.41712 0.3563 0.3843 0.0
N1447 N 0.36067 0.45626 0.32984 0.0
H1448 H 0.43004 0.3486 0.32149 0.0
H1449 H 0.3971 0.39102 0.31317 0.0
H1450 H 0.33778 0.48169 0.33115 0.0
H1451 H 0.37895 0.46013 0.31914 0.0
H1452 H 0.40576 0.36321 0.3963 0.0
H1453 H 0.4461 0.34034 0.38424 0.0
H1454 H 0.34011 0.3653 0.39388 0.0
H1455 H 0.30586 0.4072 0.38555 0.0
C1456 C 0.12984 0.0812 0.61651 0.0
C1457 C 0.10502 0.08376 0.6018 0.0
C1458 C 0.15261 0.14044 0.58939 0.0
C1459 C 0.17839 0.1369 0.60376 0.0
N1460 N 0.19727 0.09539 0.62901 0.0
N1461 N 0.10115 0.10245 0.57222 0.0
C1462 C 0.16877 0.10467 0.61677 0.0
C1463 C 0.11901 0.10938 0.58762 0.0
N1464 N 0.11577 0.05794 0.63037 0.0
N1465 N 0.15991 0.17385 0.57744 0.0
H1466 H 0.07807 0.07768 0.57026 0.0
H1467 H 0.11251 0.11699 0.56113 0.0
H1468 H 0.1843 0.19746 0.57824 0.0
H1469 H 0.13955 0.18091 0.56757 0.0
H1470 H 0.13104 0.05802 0.6419 0.0
H1471 H 0.08755 0.0405 0.63059 0.0
H1472 H 0.19452 0.06726 0.63724 0.0
H1473 H 0.22515 0.11344 0.62998 0.0
C1474 C 0.14371 0.09299 0.683 0.0
C1475 C 0.15619 0.0646 0.69677 0.0
C1476 C 0.10417 0.10222 0.71436 0.0
C1477 C 0.0885 0.12718 0.70016 0.0
N1478 N 0.08789 0.13653 0.66991 0.0
N1479 N 0.1416 0.03437 0.72439 0.0
C1480 C 0.10658 0.11969 0.68412 0.0
C1481 C 0.13357 0.06614 0.71194 0.0
N1482 N 0.16825 0.09623 0.66916 0.0
N1483 N 0.09393 0.11552 0.73032 0.0
H1484 H 0.16346 1.00783 0.72301 0.0
H1485 H 0.12373 0.03164 0.73524 0.0
H1486 H 0.07639 0.14515 0.73288 0.0
H1487 H 0.10741 0.10095 0.74105 0.0
H1488 H 0.16366 0.12142 0.65985 0.0
H1489 H 0.19447 0.0755 0.66765 0.0
H1490 H 0.0983 0.12866 0.65785 0.0
H1491 H 0.05971 0.15424 0.6701 0.0
C1492 C 0.88845 0.91574 0.46171 0.0
C1493 C 0.90651 0.93135 0.44646 0.0
C1494 C 0.84976 0.89474 0.43083 0.0
C1495 C 0.83554 0.87397 0.44597 0.0
N1496 N 0.84811 0.85585 0.47524 0.0
N1497 N 0.90784 0.92938 0.41611 0.0
C1498 C 0.85718 0.88159 0.46121 0.0
C1499 C 0.88817 0.91918 0.43084 0.0
N1500 N 0.89978 0.9352 0.4767 0.0
N1501 N 0.82586 0.89312 0.41671 0.0
H1502 H 0.93601 0.94696 0.41569 0.0
H1503 H 0.89774 0.91709 0.40448 0.0
H1504 H 0.79779 0.87531 0.41632 0.0
H1505 H 0.83244 0.91268 0.40597 0.0
H1506 H 0.88496 0.92765 0.48801 0.0
H1507 H 0.92037 0.96304 0.47749 0.0
H1508 H 0.86554 0.85748 0.48627 0.0
H1509 H 0.82612 0.82929 0.47524 0.0
C1510 C 0.87316 0.84116 0.36804 0.0
C1511 C 0.89676 0.83948 0.35302 0.0
C1512 C 0.84951 0.89514 0.33961 0.0
C1513 C 0.82472 0.89539 0.35427 0.0
N1514 N 0.80629 0.85824 0.38041 0.0
N1515 N 0.89842 0.85157 0.32297 0.0
C1516 C 0.8345 0.86531 0.36794 0.0
C1517 C 0.88205 0.86239 0.33832 0.0
N1518 N 0.88809 0.82145 0.38248 0.0
N1519 N 0.84242 0.92667 0.32697 0.0
H1520 H 0.92077 0.82562 0.32146 0.0
H1521 H 0.88644 0.86422 0.31165 0.0
H1522 H 0.81903 0.95174 0.32746 0.0
H1523 H 0.8622 0.93079 0.31674 0.0
H1524 H 0.87409 0.82608 0.39415 0.0
H1525 H 0.91583 0.80291 0.38291 0.0
H1526 H 0.80964 0.83205 0.38944 0.0
H1527 H 0.77814 0.87608 0.38087 0.0
C1528 C 0.14718 0.66994 0.11987 0.0
C1529 C 0.16034 0.70041 0.10683 0.0
C1530 C 0.10271 0.67404 0.08951 0.0
C1531 C 0.08595 0.64874 0.10339 0.0
N1532 N 0.08861 0.63314 0.13333 0.0
N1533 N 0.14495 0.73893 0.08055 0.0
C1534 C 0.10699 0.64986 0.1191 0.0
C1535 C 0.13561 0.70564 0.09227 0.0
N1536 N 0.17365 0.6583 0.13258 0.0
N1537 N 0.09036 0.66473 0.0734 0.0
H1538 H 0.16951 0.76207 0.08201 0.0
H1539 H 0.12577 0.74634 0.07032 0.0
H1540 H 0.07082 0.63723 0.07032 0.0
H1541 H 0.10426 0.67977 0.06289 0.0
H1542 H 0.16726 0.6319 0.14125 0.0
H1543 H 0.20307 0.67278 0.13366 0.0
H1544 H 0.10213 0.63575 0.1452 0.0
H1545 H 0.05814 0.62142 0.13359 0.0
C1546 C 0.12263 0.71824 0.21453 0.0
C1547 C 0.10747 0.72854 0.19826 0.0
C1548 C 0.16448 0.68319 0.18624 0.0
C1549 C 0.17344 0.66452 0.20244 0.0
N1550 N 0.15737 0.662 0.23217 0.0
N1551 N 0.11423 0.72272 0.16829 0.0
C1552 C 0.15192 0.68194 0.21669 0.0
C1553 C 0.12877 0.71202 0.18396 0.0
N1554 N 0.10841 0.74301 0.22798 0.0
N1555 N 0.19098 0.67528 0.17325 0.0
H1556 H 0.08908 0.74506 0.16643 0.0
H1557 H 0.12627 0.7084 0.15733 0.0
H1558 H 0.21712 0.6541 0.17439 0.0
H1559 H 0.18938 0.69422 0.16209 0.0
H1560 H 0.12109 0.74015 0.24 0.0
H1561 H 0.08694 0.77003 0.22662 0.0
H1562 H 0.13914 0.67012 0.24255 0.0
H1563 H 0.17723 0.63404 0.23431 0.0
C1564 C 0.87433 0.34485 0.96171 0.0
C1565 C 0.85232 0.34387 0.94633 0.0
C1566 C 0.90446 0.39547 0.93373 0.0
C1567 C 0.92312 0.40129 0.94979 0.0
N1568 N 0.91619 0.3922 0.97997 0.0
N1569 N 0.84147 0.37646 0.91871 0.0
C1570 C 0.90548 0.37878 0.96405 0.0
C1571 C 0.86596 0.3715 0.93258 0.0
N1572 N 0.86455 0.31436 0.97433 0.0
N1573 N 0.92384 0.41104 0.91955 0.0
H1574 H 0.81392 0.35808 0.91722 0.0
H1575 H 0.84737 0.40111 0.90935 0.0
H1576 H 0.95272 0.42706 0.91977 0.0
H1577 H 0.91294 0.40397 0.90748 0.0
H1578 H 0.88208 0.31108 0.98529 0.0
H1579 H 0.84149 0.28921 0.97309 0.0
H1580 H 0.90152 0.37959 0.99072 0.0
H1581 H 0.93569 0.4203 0.98238 0.0
C1582 C 0.89317 0.39858 0.83921 0.0
C1583 C 0.90377 0.36737 0.85251 0.0
C1584 C 0.83932 0.3892 0.86685 0.0
C1585 C 0.83243 0.42466 0.85464 0.0
N1586 N 0.85735 0.46916 0.83103 0.0
N1587 N 0.88897 0.33731 0.88029 0.0
C1588 C 0.8613 0.4317 0.84159 0.0
C1589 C 0.87741 0.36379 0.86676 0.0
N1590 N 0.91113 0.39409 0.82373 0.0
N1591 N 0.80896 0.37882 0.87815 0.0
H1592 H 0.9171 0.3197 0.88101 0.0
H1593 H 0.87201 0.33547 0.89137 0.0
H1594 H 0.78177 0.39835 0.87907 0.0
H1595 H 0.80975 0.34927 0.88579 0.0
H1596 H 0.90181 0.41337 0.81324 0.0
H1597 H 0.93121 0.36686 0.82076 0.0
H1598 H 0.87969 0.47798 0.82214 0.0
H1599 H 0.83388 0.49392 0.83232 0.0
loop_
_geom_bond_atom_site_label_1
_geom_bond_atom_site_label_2
_geom_bond_distance
_geom_bond_site_symmetry_2
_ccdc_geom_bond_type
O0 Cd1 2.223 1_545 S
O0 C8 1.315 . S
Cd1 O0 2.223 1_565 S
Cd1 O4 2.297 . S
Cd1 O5 2.439 . S
Cd1 O11 2.240 1_565 S
Cd2 O3 2.240 . S
Cd2 O10 2.223 . S
Cd2 O12 2.297 . S
Cd2 O13 2.439 . S
O3 Cd2 2.240 . S
O3 C8 1.279 . S
O4 Cd1 2.297 . S
O4 C6 1.247 . S
O5 Cd1 2.439 . S
O5 C6 1.208 . S
C6 O4 1.247 . S
C6 O5 1.208 . S
C7 O12 1.247 . S
C7 O13 1.208 . S
C8 O0 1.315 . S
C8 O3 1.279 . S
C9 O10 1.315 . S
C9 O11 1.279 . S
O10 Cd2 2.223 . S
O10 C9 1.315 . S
O11 Cd1 2.240 1_545 S
O11 C9 1.279 . S
O12 Cd2 2.297 . S
O12 C7 1.247 . S
O13 Cd2 2.439 . S
O13 C7 1.208 . S
O14 Cd15 2.223 . S
O14 C22 1.315 . S
Cd15 O14 2.223 . S
Cd15 O18 2.297 . S
Cd15 O19 2.439 . S
Cd15 O25 2.240 . S
Cd16 O17 2.240 . S
Cd16 O24 2.223 . S
Cd16 O26 2.297 . S
Cd16 O27 2.439 . S
O17 Cd16 2.240 . S
O17 C22 1.279 . S
O18 Cd15 2.297 . S
O18 C20 1.247 . S
O19 Cd15 2.439 . S
O19 C20 1.208 . S
C20 O18 1.247 . S
C20 O19 1.208 . S
C21 O26 1.247 . S
C21 O27 1.208 . S
C22 O14 1.315 . S
C22 O17 1.279 . S
C23 O24 1.315 . S
C23 O25 1.279 . S
O24 Cd16 2.223 . S
O24 C23 1.315 . S
O25 Cd15 2.240 . S
O25 C23 1.279 . S
O26 Cd16 2.297 . S
O26 C21 1.247 . S
O27 Cd16 2.439 . S
O27 C21 1.208 . S
O28 Cd29 2.223 . S
O28 C36 1.315 . S
Cd29 O28 2.223 . S
Cd29 O32 2.297 . S
Cd29 O33 2.439 . S
Cd29 O39 2.240 . S
Cd30 O31 2.240 . S
Cd30 O38 2.223 . S
Cd30 O40 2.297 . S
Cd30 O41 2.439 . S
O31 Cd30 2.240 . S
O31 C36 1.279 . S
O32 Cd29 2.297 . S
O32 C34 1.247 . S
O33 Cd29 2.439 . S
O33 C34 1.208 . S
C34 O32 1.247 . S
C34 O33 1.208 . S
C35 O40 1.247 . S
C35 O41 1.208 . S
C36 O28 1.315 . S
C36 O31 1.279 . S
C37 O38 1.315 . S
C37 O39 1.279 . S
O38 Cd30 2.223 . S
O38 C37 1.315 . S
O39 Cd29 2.240 . S
O39 C37 1.279 . S
O40 Cd30 2.297 . S
O40 C35 1.247 . S
O41 Cd30 2.439 . S
O41 C35 1.208 . S
O42 Cd43 2.223 1_545 S
O42 C50 1.315 . S
Cd43 O42 2.223 1_565 S
Cd43 O46 2.297 . S
Cd43 O47 2.439 . S
Cd43 O53 2.240 1_565 S
Cd44 O45 2.240 . S
Cd44 O52 2.223 . S
Cd44 O54 2.297 . S
Cd44 O55 2.439 . S
O45 Cd44 2.240 . S
O45 C50 1.279 . S
O46 Cd43 2.297 . S
O46 C48 1.247 . S
O47 Cd43 2.439 . S
O47 C48 1.208 . S
C48 O46 1.247 . S
C48 O47 1.208 . S
C49 O54 1.247 . S
C49 O55 1.208 . S
C50 O42 1.315 . S
C50 O45 1.279 . S
C51 O52 1.315 . S
C51 O53 1.279 . S
O52 Cd44 2.223 . S
O52 C51 1.315 . S
O53 Cd43 2.240 1_545 S
O53 C51 1.279 . S
O54 Cd44 2.297 . S
O54 C49 1.247 . S
O55 Cd44 2.439 . S
O55 C49 1.208 . S
O56 Cd57 2.223 1_565 S
O56 C64 1.315 . S
Cd57 O56 2.223 1_545 S
Cd57 O60 2.297 . S
Cd57 O61 2.439 . S
Cd57 O67 2.240 1_545 S
Cd58 O59 2.240 . S
Cd58 O66 2.223 . S
Cd58 O68 2.297 . S
Cd58 O69 2.439 . S
O59 Cd58 2.240 . S
O59 C64 1.279 . S
O60 Cd57 2.297 . S
O60 C62 1.247 . S
O61 Cd57 2.439 . S
O61 C62 1.208 . S
C62 O60 1.247 . S
C62 O61 1.208 . S
C63 O68 1.247 . S
C63 O69 1.208 . S
C64 O56 1.315 . S
C64 O59 1.279 . S
C65 O66 1.315 . S
C65 O67 1.279 . S
O66 Cd58 2.223 . S
O66 C65 1.315 . S
O67 Cd57 2.240 1_565 S
O67 C65 1.279 . S
O68 Cd58 2.297 . S
O68 C63 1.247 . S
O69 Cd58 2.439 . S
O69 C63 1.208 . S
O70 Cd71 2.223 . S
O70 C78 1.315 . S
Cd71 O70 2.223 . S
Cd71 O74 2.297 . S
Cd71 O75 2.439 . S
Cd71 O81 2.240 . S
Cd72 O73 2.240 . S
Cd72 O80 2.223 . S
Cd72 O82 2.297 . S
Cd72 O83 2.439 . S
O73 Cd72 2.240 . S
O73 C78 1.279 . S
O74 Cd71 2.297 . S
O74 C76 1.247 . S
O75 Cd71 2.439 . S
O75 C76 1.208 . S
C76 O74 1.247 . S
C76 O75 1.208 . S
C77 O82 1.247 . S
C77 O83 1.208 . S
C78 O70 1.315 . S
C78 O73 1.279 . S
C79 O80 1.315 . S
C79 O81 1.279 . S
O80 Cd72 2.223 . S
O80 C79 1.315 . S
O81 Cd71 2.240 . S
O81 C79 1.279 . S
O82 Cd72 2.297 . S
O82 C77 1.247 . S
O83 Cd72 2.439 . S
O83 C77 1.208 . S
O84 Cd85 2.223 . S
O84 C92 1.315 . S
Cd85 O84 2.223 . S
Cd85 O88 2.297 . S
Cd85 O89 2.439 . S
Cd85 O95 2.240 . S
Cd86 O87 2.240 . S
Cd86 O94 2.223 . S
Cd86 O96 2.297 . S
Cd86 O97 2.439 . S
O87 Cd86 2.240 . S
O87 C92 1.279 . S
O88 Cd85 2.297 . S
O88 C90 1.247 . S
O89 Cd85 2.439 . S
O89 C90 1.208 . S
C90 O88 1.247 . S
C90 O89 1.208 . S
C91 O96 1.247 . S
C91 O97 1.208 . S
C92 O84 1.315 . S
C92 O87 1.279 . S
C93 O94 1.315 . S
C93 O95 1.279 . S
O94 Cd86 2.223 . S
O94 C93 1.315 . S
O95 Cd85 2.240 . S
O95 C93 1.279 . S
O96 Cd86 2.297 . S
O96 C91 1.247 . S
O97 Cd86 2.439 . S
O97 C91 1.208 . S
O98 Cd99 2.223 1_565 S
O98 C106 1.315 . S
Cd99 O98 2.223 1_545 S
Cd99 O102 2.297 . S
Cd99 O103 2.439 . S
Cd99 O109 2.240 1_545 S
Cd100 O101 2.240 . S
Cd100 O108 2.223 . S
Cd100 O110 2.297 . S
Cd100 O111 2.439 . S
O101 Cd100 2.240 . S
O101 C106 1.279 . S
O102 Cd99 2.297 . S
O102 C104 1.247 . S
O103 Cd99 2.439 . S
O103 C104 1.208 . S
C104 O102 1.247 . S
C104 O103 1.208 . S
C105 O110 1.247 . S
C105 O111 1.208 . S
C106 O98 1.315 . S
C106 O101 1.279 . S
C107 O108 1.315 . S
C107 O109 1.279 . S
O108 Cd100 2.223 . S
O108 C107 1.315 . S
O109 Cd99 2.240 1_565 S
O109 C107 1.279 . S
O110 Cd100 2.297 . S
O110 C105 1.247 . S
O111 Cd100 2.439 . S
O111 C105 1.208 . S
O112 Cd113 2.223 . S
O112 C120 1.315 . S
Cd113 O112 2.223 . S
Cd113 O116 2.297 . S
Cd113 O117 2.439 . S
Cd113 O123 2.240 . S
Cd114 O115 2.240 . S
Cd114 O122 2.223 . S
Cd114 O124 2.297 . S
Cd114 O125 2.439 . S
O115 Cd114 2.240 . S
O115 C120 1.279 . S
O116 Cd113 2.297 . S
O116 C118 1.247 . S
O117 Cd113 2.439 . S
O117 C118 1.208 . S
C118 O116 1.247 . S
C118 O117 1.208 . S
C119 O124 1.247 . S
C119 O125 1.208 . S
C120 O112 1.315 . S
C120 O115 1.279 . S
C121 O122 1.315 . S
C121 O123 1.279 . S
O122 Cd114 2.223 . S
O122 C121 1.315 . S
O123 Cd113 2.240 . S
O123 C121 1.279 . S
O124 Cd114 2.297 . S
O124 C119 1.247 . S
O125 Cd114 2.439 . S
O125 C119 1.208 . S
O126 Cd127 2.223 . S
O126 C134 1.315 . S
Cd127 O126 2.223 . S
Cd127 O130 2.297 . S
Cd127 O131 2.439 . S
Cd127 O137 2.240 . S
Cd128 O129 2.240 . S
Cd128 O136 2.223 . S
Cd128 O138 2.297 . S
Cd128 O139 2.439 . S
O129 Cd128 2.240 . S
O129 C134 1.279 . S
O130 Cd127 2.297 . S
O130 C132 1.247 . S
O131 Cd127 2.439 . S
O131 C132 1.208 . S
C132 O130 1.247 . S
C132 O131 1.208 . S
C133 O138 1.247 . S
C133 O139 1.208 . S
C134 O126 1.315 . S
C134 O129 1.279 . S
C135 O136 1.315 . S
C135 O137 1.279 . S
O136 Cd128 2.223 . S
O136 C135 1.315 . S
O137 Cd127 2.240 . S
O137 C135 1.279 . S
O138 Cd128 2.297 . S
O138 C133 1.247 . S
O139 Cd128 2.439 . S
O139 C133 1.208 . S
O140 Cd141 2.223 . S
O140 C148 1.315 . S
Cd141 O140 2.223 . S
Cd141 O144 2.297 . S
Cd141 O145 2.439 . S
Cd141 O151 2.240 . S
Cd142 O143 2.240 . S
Cd142 O150 2.223 . S
Cd142 O152 2.297 . S
Cd142 O153 2.439 . S
O143 Cd142 2.240 . S
O143 C148 1.279 . S
O144 Cd141 2.297 . S
O144 C146 1.247 . S
O145 Cd141 2.439 . S
O145 C146 1.208 . S
C146 O144 1.247 . S
C146 O145 1.208 . S
C147 O152 1.247 . S
C147 O153 1.208 . S
C148 O140 1.315 . S
C148 O143 1.279 . S
C149 O150 1.315 . S
C149 O151 1.279 . S
O150 Cd142 2.223 . S
O150 C149 1.315 . S
O151 Cd141 2.240 . S
O151 C149 1.279 . S
O152 Cd142 2.297 . S
O152 C147 1.247 . S
O153 Cd142 2.439 . S
O153 C147 1.208 . S
O154 Cd155 2.223 . S
O154 C162 1.315 . S
Cd155 O154 2.223 . S
Cd155 O158 2.297 . S
Cd155 O159 2.439 . S
Cd155 O165 2.240 . S
Cd156 O157 2.240 . S
Cd156 O164 2.223 . S
Cd156 O166 2.297 . S
Cd156 O167 2.439 . S
O157 Cd156 2.240 . S
O157 C162 1.279 . S
O158 Cd155 2.297 . S
O158 C160 1.247 . S
O159 Cd155 2.439 . S
O159 C160 1.208 . S
C160 O158 1.247 . S
C160 O159 1.208 . S
C161 O166 1.247 . S
C161 O167 1.208 . S
C162 O154 1.315 . S
C162 O157 1.279 . S
C163 O164 1.315 . S
C163 O165 1.279 . S
O164 Cd156 2.223 . S
O164 C163 1.315 . S
O165 Cd155 2.240 . S
O165 C163 1.279 . S
O166 Cd156 2.297 . S
O166 C161 1.247 . S
O167 Cd156 2.439 . S
O167 C161 1.208 . S
O168 Cd169 2.223 . S
O168 C176 1.315 . S
Cd169 O168 2.223 . S
Cd169 O172 2.297 . S
Cd169 O173 2.439 . S
Cd169 O179 2.240 . S
Cd170 O171 2.240 . S
Cd170 O178 2.223 . S
Cd170 O180 2.297 . S
Cd170 O181 2.439 . S
O171 Cd170 2.240 . S
O171 C176 1.279 . S
O172 Cd169 2.297 . S
O172 C174 1.247 . S
O173 Cd169 2.439 . S
O173 C174 1.208 . S
C174 O172 1.247 . S
C174 O173 1.208 . S
C175 O180 1.247 . S
C175 O181 1.208 . S
C176 O168 1.315 . S
C176 O171 1.279 . S
C177 O178 1.315 . S
C177 O179 1.279 . S
O178 Cd170 2.223 . S
O178 C177 1.315 . S
O179 Cd169 2.240 . S
O179 C177 1.279 . S
O180 Cd170 2.297 . S
O180 C175 1.247 . S
O181 Cd170 2.439 . S
O181 C175 1.208 . S
O182 Cd183 2.223 . S
O182 C190 1.315 . S
Cd183 O182 2.223 . S
Cd183 O186 2.297 . S
Cd183 O187 2.439 . S
Cd183 O193 2.240 . S
Cd184 O185 2.240 . S
Cd184 O192 2.223 . S
Cd184 O194 2.297 . S
Cd184 O195 2.439 . S
O185 Cd184 2.240 . S
O185 C190 1.279 . S
O186 Cd183 2.297 . S
O186 C188 1.247 . S
O187 Cd183 2.439 . S
O187 C188 1.208 . S
C188 O186 1.247 . S
C188 O187 1.208 . S
C189 O194 1.247 . S
C189 O195 1.208 . S
C190 O182 1.315 . S
C190 O185 1.279 . S
C191 O192 1.315 . S
C191 O193 1.279 . S
O192 Cd184 2.223 . S
O192 C191 1.315 . S
O193 Cd183 2.240 . S
O193 C191 1.279 . S
O194 Cd184 2.297 . S
O194 C189 1.247 . S
O195 Cd184 2.439 . S
O195 C189 1.208 . S
O196 Cd197 2.223 . S
O196 C204 1.315 . S
Cd197 O196 2.223 . S
Cd197 O200 2.297 . S
Cd197 O201 2.439 . S
Cd197 O207 2.240 . S
Cd198 O199 2.240 . S
Cd198 O206 2.223 . S
Cd198 O208 2.297 . S
Cd198 O209 2.439 . S
O199 Cd198 2.240 . S
O199 C204 1.279 . S
O200 Cd197 2.297 . S
O200 C202 1.247 . S
O201 Cd197 2.439 . S
O201 C202 1.208 . S
C202 O200 1.247 . S
C202 O201 1.208 . S
C203 O208 1.247 . S
C203 O209 1.208 . S
C204 O196 1.315 . S
C204 O199 1.279 . S
C205 O206 1.315 . S
C205 O207 1.279 . S
O206 Cd198 2.223 . S
O206 C205 1.315 . S
O207 Cd197 2.240 . S
O207 C205 1.279 . S
O208 Cd198 2.297 . S
O208 C203 1.247 . S
O209 Cd198 2.439 . S
O209 C203 1.208 . S
O210 Cd211 2.223 . S
O210 C218 1.315 . S
Cd211 O210 2.223 . S
Cd211 O214 2.297 . S
Cd211 O215 2.439 . S
Cd211 O221 2.240 . S
Cd212 O213 2.240 . S
Cd212 O220 2.223 . S
Cd212 O222 2.297 . S
Cd212 O223 2.439 . S
O213 Cd212 2.240 . S
O213 C218 1.279 . S
O214 Cd211 2.297 . S
O214 C216 1.247 . S
O215 Cd211 2.439 . S
O215 C216 1.208 . S
C216 O214 1.247 . S
C216 O215 1.208 . S
C217 O222 1.247 . S
C217 O223 1.208 . S
C218 O210 1.315 . S
C218 O213 1.279 . S
C219 O220 1.315 . S
C219 O221 1.279 . S
O220 Cd212 2.223 . S
O220 C219 1.315 . S
O221 Cd211 2.240 . S
O221 C219 1.279 . S
O222 Cd212 2.297 . S
O222 C217 1.247 . S
O223 Cd212 2.439 . S
O223 C217 1.208 . S
O224 Cd225 2.223 1_545 S
O224 C232 1.315 . S
Cd225 O224 2.223 1_565 S
Cd225 O228 2.297 . S
Cd225 O229 2.439 . S
Cd225 O235 2.240 1_665 S
Cd226 O227 2.240 . S
Cd226 O234 2.223 1_655 S
Cd226 O236 2.297 . S
Cd226 O237 2.439 . S
O227 Cd226 2.240 . S
O227 C232 1.279 . S
O228 Cd225 2.297 . S
O228 C230 1.247 . S
O229 Cd225 2.439 . S
O229 C230 1.208 . S
C230 O228 1.247 . S
C230 O229 1.208 . S
C231 O236 1.247 . S
C231 O237 1.208 . S
C232 O224 1.315 . S
C232 O227 1.279 . S
C233 O234 1.315 . S
C233 O235 1.279 . S
O234 Cd226 2.223 1_455 S
O234 C233 1.315 . S
O235 Cd225 2.240 1_445 S
O235 C233 1.279 . S
O236 Cd226 2.297 . S
O236 C231 1.247 . S
O237 Cd226 2.439 . S
O237 C231 1.208 . S
O238 Cd239 2.223 . S
O238 C246 1.315 . S
Cd239 O238 2.223 . S
Cd239 O242 2.297 . S
Cd239 O243 2.439 . S
Cd239 O249 2.240 . S
Cd240 O241 2.240 . S
Cd240 O248 2.223 . S
Cd240 O250 2.297 . S
Cd240 O251 2.439 . S
O241 Cd240 2.240 . S
O241 C246 1.279 . S
O242 Cd239 2.297 . S
O242 C244 1.247 . S
O243 Cd239 2.439 . S
O243 C244 1.208 . S
C244 O242 1.247 . S
C244 O243 1.208 . S
C245 O250 1.247 . S
C245 O251 1.208 . S
C246 O238 1.315 . S
C246 O241 1.279 . S
C247 O248 1.315 . S
C247 O249 1.279 . S
O248 Cd240 2.223 . S
O248 C247 1.315 . S
O249 Cd239 2.240 . S
O249 C247 1.279 . S
O250 Cd240 2.297 . S
O250 C245 1.247 . S
O251 Cd240 2.439 . S
O251 C245 1.208 . S
O252 Cd253 2.223 . S
O252 C260 1.315 . S
Cd253 O252 2.223 . S
Cd253 O256 2.297 . S
Cd253 O257 2.439 . S
Cd253 O263 2.240 1_655 S
Cd254 O255 2.240 . S
Cd254 O262 2.223 1_655 S
Cd254 O264 2.297 . S
Cd254 O265 2.439 . S
O255 Cd254 2.240 . S
O255 C260 1.279 . S
O256 Cd253 2.297 . S
O256 C258 1.247 . S
O257 Cd253 2.439 . S
O257 C258 1.208 . S
C258 O256 1.247 . S
C258 O257 1.208 . S
C259 O264 1.247 . S
C259 O265 1.208 . S
C260 O252 1.315 . S
C260 O255 1.279 . S
C261 O262 1.315 . S
C261 O263 1.279 . S
O262 Cd254 2.223 1_455 S
O262 C261 1.315 . S
O263 Cd253 2.240 1_455 S
O263 C261 1.279 . S
O264 Cd254 2.297 . S
O264 C259 1.247 . S
O265 Cd254 2.439 . S
O265 C259 1.208 . S
O266 Cd267 2.223 1_545 S
O266 C274 1.315 . S
Cd267 O266 2.223 1_565 S
Cd267 O270 2.297 . S
Cd267 O271 2.439 . S
Cd267 O277 2.240 1_565 S
Cd268 O269 2.240 . S
Cd268 O276 2.223 . S
Cd268 O278 2.297 . S
Cd268 O279 2.439 . S
O269 Cd268 2.240 . S
O269 C274 1.279 . S
O270 Cd267 2.297 . S
O270 C272 1.247 . S
O271 Cd267 2.439 . S
O271 C272 1.208 . S
C272 O270 1.247 . S
C272 O271 1.208 . S
C273 O278 1.247 . S
C273 O279 1.208 . S
C274 O266 1.315 . S
C274 O269 1.279 . S
C275 O276 1.315 . S
C275 O277 1.279 . S
O276 Cd268 2.223 . S
O276 C275 1.315 . S
O277 Cd267 2.240 1_545 S
O277 C275 1.279 . S
O278 Cd268 2.297 . S
O278 C273 1.247 . S
O279 Cd268 2.439 . S
O279 C273 1.208 . S
O280 Cd281 2.223 1_565 S
O280 C288 1.315 . S
Cd281 O280 2.223 1_545 S
Cd281 O284 2.297 . S
Cd281 O285 2.439 . S
Cd281 O291 2.240 1_445 S
Cd282 O283 2.240 . S
Cd282 O290 2.223 1_455 S
Cd282 O292 2.297 . S
Cd282 O293 2.439 . S
O283 Cd282 2.240 . S
O283 C288 1.279 . S
O284 Cd281 2.297 . S
O284 C286 1.247 . S
O285 Cd281 2.439 . S
O285 C286 1.208 . S
C286 O284 1.247 . S
C286 O285 1.208 . S
C287 O292 1.247 . S
C287 O293 1.208 . S
C288 O280 1.315 . S
C288 O283 1.279 . S
C289 O290 1.315 . S
C289 O291 1.279 . S
O290 Cd282 2.223 1_655 S
O290 C289 1.315 . S
O291 Cd281 2.240 1_665 S
O291 C289 1.279 . S
O292 Cd282 2.297 . S
O292 C287 1.247 . S
O293 Cd282 2.439 . S
O293 C287 1.208 . S
O294 Cd295 2.223 . S
O294 C302 1.315 . S
Cd295 O294 2.223 . S
Cd295 O298 2.297 . S
Cd295 O299 2.439 . S
Cd295 O305 2.240 . S
Cd296 O297 2.240 . S
Cd296 O304 2.223 . S
Cd296 O306 2.297 . S
Cd296 O307 2.439 . S
O297 Cd296 2.240 . S
O297 C302 1.279 . S
O298 Cd295 2.297 . S
O298 C300 1.247 . S
O299 Cd295 2.439 . S
O299 C300 1.208 . S
C300 O298 1.247 . S
C300 O299 1.208 . S
C301 O306 1.247 . S
C301 O307 1.208 . S
C302 O294 1.315 . S
C302 O297 1.279 . S
C303 O304 1.315 . S
C303 O305 1.279 . S
O304 Cd296 2.223 . S
O304 C303 1.315 . S
O305 Cd295 2.240 . S
O305 C303 1.279 . S
O306 Cd296 2.297 . S
O306 C301 1.247 . S
O307 Cd296 2.439 . S
O307 C301 1.208 . S
O308 Cd309 2.223 . S
O308 C316 1.315 . S
Cd309 O308 2.223 . S
Cd309 O312 2.297 . S
Cd309 O313 2.439 . S
Cd309 O319 2.240 1_455 S
Cd310 O311 2.240 . S
Cd310 O318 2.223 1_455 S
Cd310 O320 2.297 . S
Cd310 O321 2.439 . S
O311 Cd310 2.240 . S
O311 C316 1.279 . S
O312 Cd309 2.297 . S
O312 C314 1.247 . S
O313 Cd309 2.439 . S
O313 C314 1.208 . S
C314 O312 1.247 . S
C314 O313 1.208 . S
C315 O320 1.247 . S
C315 O321 1.208 . S
C316 O308 1.315 . S
C316 O311 1.279 . S
C317 O318 1.315 . S
C317 O319 1.279 . S
O318 Cd310 2.223 1_655 S
O318 C317 1.315 . S
O319 Cd309 2.240 1_655 S
O319 C317 1.279 . S
O320 Cd310 2.297 . S
O320 C315 1.247 . S
O321 Cd310 2.439 . S
O321 C315 1.208 . S
O322 Cd323 2.223 1_565 S
O322 C330 1.315 . S
Cd323 O322 2.223 1_545 S
Cd323 O326 2.297 . S
Cd323 O327 2.439 . S
Cd323 O333 2.240 1_545 S
Cd324 O325 2.240 . S
Cd324 O332 2.223 . S
Cd324 O334 2.297 . S
Cd324 O335 2.439 . S
O325 Cd324 2.240 . S
O325 C330 1.279 . S
O326 Cd323 2.297 . S
O326 C328 1.247 . S
O327 Cd323 2.439 . S
O327 C328 1.208 . S
C328 O326 1.247 . S
C328 O327 1.208 . S
C329 O334 1.247 . S
C329 O335 1.208 . S
C330 O322 1.315 . S
C330 O325 1.279 . S
C331 O332 1.315 . S
C331 O333 1.279 . S
O332 Cd324 2.223 . S
O332 C331 1.315 . S
O333 Cd323 2.240 1_565 S
O333 C331 1.279 . S
O334 Cd324 2.297 . S
O334 C329 1.247 . S
O335 Cd324 2.439 . S
O335 C329 1.208 . S
O336 Cd337 2.223 . S
O336 C344 1.315 . S
Cd337 O336 2.223 . S
Cd337 O340 2.297 . S
Cd337 O341 2.439 . S
Cd337 O347 2.240 1_655 S
Cd338 O339 2.240 . S
Cd338 O346 2.223 1_655 S
Cd338 O348 2.297 . S
Cd338 O349 2.439 . S
O339 Cd338 2.240 . S
O339 C344 1.279 . S
O340 Cd337 2.297 . S
O340 C342 1.247 . S
O341 Cd337 2.439 . S
O341 C342 1.208 . S
C342 O340 1.247 . S
C342 O341 1.208 . S
C343 O348 1.247 . S
C343 O349 1.208 . S
C344 O336 1.315 . S
C344 O339 1.279 . S
C345 O346 1.315 . S
C345 O347 1.279 . S
O346 Cd338 2.223 1_455 S
O346 C345 1.315 . S
O347 Cd337 2.240 1_455 S
O347 C345 1.279 . S
O348 Cd338 2.297 . S
O348 C343 1.247 . S
O349 Cd338 2.439 . S
O349 C343 1.208 . S
O350 Cd351 2.223 . S
O350 C358 1.315 . S
Cd351 O350 2.223 . S
Cd351 O354 2.297 . S
Cd351 O355 2.439 . S
Cd351 O361 2.240 . S
Cd352 O353 2.240 . S
Cd352 O360 2.223 . S
Cd352 O362 2.297 . S
Cd352 O363 2.439 . S
O353 Cd352 2.240 . S
O353 C358 1.279 . S
O354 Cd351 2.297 . S
O354 C356 1.247 . S
O355 Cd351 2.439 . S
O355 C356 1.208 . S
C356 O354 1.247 . S
C356 O355 1.208 . S
C357 O362 1.247 . S
C357 O363 1.208 . S
C358 O350 1.315 . S
C358 O353 1.279 . S
C359 O360 1.315 . S
C359 O361 1.279 . S
O360 Cd352 2.223 . S
O360 C359 1.315 . S
O361 Cd351 2.240 . S
O361 C359 1.279 . S
O362 Cd352 2.297 . S
O362 C357 1.247 . S
O363 Cd352 2.439 . S
O363 C357 1.208 . S
O364 Cd365 2.223 . S
O364 C372 1.315 . S
Cd365 O364 2.223 . S
Cd365 O368 2.297 . S
Cd365 O369 2.439 . S
Cd365 O375 2.240 1_655 S
Cd366 O367 2.240 . S
Cd366 O374 2.223 1_655 S
Cd366 O376 2.297 . S
Cd366 O377 2.439 . S
O367 Cd366 2.240 . S
O367 C372 1.279 . S
O368 Cd365 2.297 . S
O368 C370 1.247 . S
O369 Cd365 2.439 . S
O369 C370 1.208 . S
C370 O368 1.247 . S
C370 O369 1.208 . S
C371 O376 1.247 . S
C371 O377 1.208 . S
C372 O364 1.315 . S
C372 O367 1.279 . S
C373 O374 1.315 . S
C373 O375 1.279 . S
O374 Cd366 2.223 1_455 S
O374 C373 1.315 . S
O375 Cd365 2.240 1_455 S
O375 C373 1.279 . S
O376 Cd366 2.297 . S
O376 C371 1.247 . S
O377 Cd366 2.439 . S
O377 C371 1.208 . S
O378 Cd379 2.223 . S
O378 C386 1.315 . S
Cd379 O378 2.223 . S
Cd379 O382 2.297 . S
Cd379 O383 2.439 . S
Cd379 O389 2.240 . S
Cd380 O381 2.240 . S
Cd380 O388 2.223 . S
Cd380 O390 2.297 . S
Cd380 O391 2.439 . S
O381 Cd380 2.240 . S
O381 C386 1.279 . S
O382 Cd379 2.297 . S
O382 C384 1.247 . S
O383 Cd379 2.439 . S
O383 C384 1.208 . S
C384 O382 1.247 . S
C384 O383 1.208 . S
C385 O390 1.247 . S
C385 O391 1.208 . S
C386 O378 1.315 . S
C386 O381 1.279 . S
C387 O388 1.315 . S
C387 O389 1.279 . S
O388 Cd380 2.223 . S
O388 C387 1.315 . S
O389 Cd379 2.240 . S
O389 C387 1.279 . S
O390 Cd380 2.297 . S
O390 C385 1.247 . S
O391 Cd380 2.439 . S
O391 C385 1.208 . S
O392 Cd393 2.223 . S
O392 C400 1.315 . S
Cd393 O392 2.223 . S
Cd393 O396 2.297 . S
Cd393 O397 2.439 . S
Cd393 O403 2.240 1_455 S
Cd394 O395 2.240 . S
Cd394 O402 2.223 1_455 S
Cd394 O404 2.297 . S
Cd394 O405 2.439 . S
O395 Cd394 2.240 . S
O395 C400 1.279 . S
O396 Cd393 2.297 . S
O396 C398 1.247 . S
O397 Cd393 2.439 . S
O397 C398 1.208 . S
C398 O396 1.247 . S
C398 O397 1.208 . S
C399 O404 1.247 . S
C399 O405 1.208 . S
C400 O392 1.315 . S
C400 O395 1.279 . S
C401 O402 1.315 . S
C401 O403 1.279 . S
O402 Cd394 2.223 1_655 S
O402 C401 1.315 . S
O403 Cd393 2.240 1_655 S
O403 C401 1.279 . S
O404 Cd394 2.297 . S
O404 C399 1.247 . S
O405 Cd394 2.439 . S
O405 C399 1.208 . S
O406 Cd407 2.223 . S
O406 C414 1.315 . S
Cd407 O406 2.223 . S
Cd407 O410 2.297 . S
Cd407 O411 2.439 . S
Cd407 O417 2.240 . S
Cd408 O409 2.240 . S
Cd408 O416 2.223 . S
Cd408 O418 2.297 . S
Cd408 O419 2.439 . S
O409 Cd408 2.240 . S
O409 C414 1.279 . S
O410 Cd407 2.297 . S
O410 C412 1.247 . S
O411 Cd407 2.439 . S
O411 C412 1.208 . S
C412 O410 1.247 . S
C412 O411 1.208 . S
C413 O418 1.247 . S
C413 O419 1.208 . S
C414 O406 1.315 . S
C414 O409 1.279 . S
C415 O416 1.315 . S
C415 O417 1.279 . S
O416 Cd408 2.223 . S
O416 C415 1.315 . S
O417 Cd407 2.240 . S
O417 C415 1.279 . S
O418 Cd408 2.297 . S
O418 C413 1.247 . S
O419 Cd408 2.439 . S
O419 C413 1.208 . S
O420 Cd421 2.223 . S
O420 C428 1.315 . S
Cd421 O420 2.223 . S
Cd421 O424 2.297 . S
Cd421 O425 2.439 . S
Cd421 O431 2.240 1_455 S
Cd422 O423 2.240 . S
Cd422 O430 2.223 1_455 S
Cd422 O432 2.297 . S
Cd422 O433 2.439 . S
O423 Cd422 2.240 . S
O423 C428 1.279 . S
O424 Cd421 2.297 . S
O424 C426 1.247 . S
O425 Cd421 2.439 . S
O425 C426 1.208 . S
C426 O424 1.247 . S
C426 O425 1.208 . S
C427 O432 1.247 . S
C427 O433 1.208 . S
C428 O420 1.315 . S
C428 O423 1.279 . S
C429 O430 1.315 . S
C429 O431 1.279 . S
O430 Cd422 2.223 1_655 S
O430 C429 1.315 . S
O431 Cd421 2.240 1_655 S
O431 C429 1.279 . S
O432 Cd422 2.297 . S
O432 C427 1.247 . S
O433 Cd422 2.439 . S
O433 C427 1.208 . S
O434 Cd435 2.223 . S
O434 C442 1.315 . S
Cd435 O434 2.223 . S
Cd435 O438 2.297 . S
Cd435 O439 2.439 . S
Cd435 O445 2.240 . S
Cd436 O437 2.240 . S
Cd436 O444 2.223 . S
Cd436 O446 2.297 . S
Cd436 O447 2.439 . S
O437 Cd436 2.240 . S
O437 C442 1.279 . S
O438 Cd435 2.297 . S
O438 C440 1.247 . S
O439 Cd435 2.439 . S
O439 C440 1.208 . S
C440 O438 1.247 . S
C440 O439 1.208 . S
C441 O446 1.247 . S
C441 O447 1.208 . S
C442 O434 1.315 . S
C442 O437 1.279 . S
C443 O444 1.315 . S
C443 O445 1.279 . S
O444 Cd436 2.223 . S
O444 C443 1.315 . S
O445 Cd435 2.240 . S
O445 C443 1.279 . S
O446 Cd436 2.297 . S
O446 C441 1.247 . S
O447 Cd436 2.439 . S
O447 C441 1.208 . S
C448 C449 1.363 . S
C448 C454 1.379 . S
C448 N456 1.356 . S
C449 C448 1.363 . S
C449 C455 1.363 . S
C450 C451 1.363 . S
C450 C455 1.379 . S
C450 N457 1.356 . S
C451 C450 1.363 . S
C451 C454 1.363 . S
N452 C454 1.356 . S
N452 H464 0.984 . S
N452 H465 0.985 . S
N453 C455 1.356 . S
N453 H458 0.984 . S
N453 H459 0.985 . S
C454 C448 1.379 . S
C454 C451 1.363 . S
C454 N452 1.356 . S
C455 C449 1.363 . S
C455 C450 1.379 . S
C455 N453 1.356 . S
N456 C448 1.356 . S
N456 H462 0.984 . S
N456 H463 0.984 . S
N457 C450 1.356 . S
N457 H460 0.984 . S
N457 H461 0.985 . S
H458 N453 0.984 . S
H459 N453 0.985 . S
H460 N457 0.984 . S
H461 N457 0.985 . S
H462 N456 0.984 . S
H463 N456 0.984 . S
H464 N452 0.984 . S
H465 N452 0.985 . S
C466 C467 1.363 . S
C466 C472 1.379 . S
C466 N474 1.356 . S
C467 C466 1.363 . S
C467 C473 1.363 . S
C468 C469 1.363 . S
C468 C473 1.379 . S
C468 N475 1.356 . S
C469 C468 1.363 . S
C469 C472 1.363 . S
N470 C472 1.356 . S
N470 H482 0.984 . S
N470 H483 0.985 . S
N471 C473 1.356 . S
N471 H476 0.984 . S
N471 H477 0.985 . S
C472 C466 1.379 . S
C472 C469 1.363 . S
C472 N470 1.356 . S
C473 C467 1.363 . S
C473 C468 1.379 . S
C473 N471 1.356 . S
N474 C466 1.356 . S
N474 H480 0.984 . S
N474 H481 0.984 . S
N475 C468 1.356 . S
N475 H478 0.984 . S
N475 H479 0.985 . S
H476 N471 0.984 . S
H477 N471 0.985 . S
H478 N475 0.984 . S
H479 N475 0.985 . S
H480 N474 0.984 . S
H481 N474 0.984 . S
H482 N470 0.984 . S
H483 N470 0.985 . S
C484 C485 1.363 . S
C484 C490 1.379 . S
C484 N492 1.356 . S
C485 C484 1.363 . S
C485 C491 1.363 . S
C486 C487 1.363 . S
C486 C491 1.379 . S
C486 N493 1.356 . S
C487 C486 1.363 . S
C487 C490 1.363 . S
N488 C490 1.356 . S
N488 H500 0.984 . S
N488 H501 0.985 . S
N489 C491 1.356 . S
N489 H494 0.984 . S
N489 H495 0.985 . S
C490 C484 1.379 . S
C490 C487 1.363 . S
C490 N488 1.356 . S
C491 C485 1.363 . S
C491 C486 1.379 . S
C491 N489 1.356 . S
N492 C484 1.356 . S
N492 H498 0.984 . S
N492 H499 0.984 . S
N493 C486 1.356 . S
N493 H496 0.984 . S
N493 H497 0.985 . S
H494 N489 0.984 . S
H495 N489 0.985 . S
H496 N493 0.984 . S
H497 N493 0.985 . S
H498 N492 0.984 . S
H499 N492 0.984 . S
H500 N488 0.984 . S
H501 N488 0.985 . S
C502 C503 1.363 . S
C502 C508 1.379 . S
C502 N510 1.356 . S
C503 C502 1.363 . S
C503 C509 1.363 . S
C504 C505 1.363 . S
C504 C509 1.379 . S
C504 N511 1.356 . S
C505 C504 1.363 . S
C505 C508 1.363 . S
N506 C508 1.356 . S
N506 H518 0.984 . S
N506 H519 0.985 . S
N507 C509 1.356 . S
N507 H512 0.984 . S
N507 H513 0.985 . S
C508 C502 1.379 . S
C508 C505 1.363 . S
C508 N506 1.356 . S
C509 C503 1.363 . S
C509 C504 1.379 . S
C509 N507 1.356 . S
N510 C502 1.356 . S
N510 H516 0.984 . S
N510 H517 0.984 . S
N511 C504 1.356 . S
N511 H514 0.984 . S
N511 H515 0.985 . S
H512 N507 0.984 . S
H513 N507 0.985 . S
H514 N511 0.984 . S
H515 N511 0.985 . S
H516 N510 0.984 . S
H517 N510 0.984 . S
H518 N506 0.984 . S
H519 N506 0.985 . S
C520 C521 1.363 . S
C520 C526 1.379 . S
C520 N528 1.356 . S
C521 C520 1.363 . S
C521 C527 1.363 . S
C522 C523 1.363 . S
C522 C527 1.379 . S
C522 N529 1.356 . S
C523 C522 1.363 . S
C523 C526 1.363 . S
N524 C526 1.356 . S
N524 H536 0.984 . S
N524 H537 0.985 . S
N525 C527 1.356 . S
N525 H530 0.984 . S
N525 H531 0.985 . S
C526 C520 1.379 . S
C526 C523 1.363 . S
C526 N524 1.356 . S
C527 C521 1.363 . S
C527 C522 1.379 . S
C527 N525 1.356 . S
N528 C520 1.356 . S
N528 H534 0.984 . S
N528 H535 0.984 . S
N529 C522 1.356 . S
N529 H532 0.984 . S
N529 H533 0.985 . S
H530 N525 0.984 . S
H531 N525 0.985 . S
H532 N529 0.984 . S
H533 N529 0.985 . S
H534 N528 0.984 . S
H535 N528 0.984 . S
H536 N524 0.984 . S
H537 N524 0.985 . S
C538 C539 1.363 . S
C538 C544 1.379 . S
C538 N546 1.356 . S
C539 C538 1.363 . S
C539 C545 1.363 . S
C540 C541 1.363 . S
C540 C545 1.379 . S
C540 N547 1.356 . S
C541 C540 1.363 . S
C541 C544 1.363 . S
N542 C544 1.356 . S
N542 H554 0.984 . S
N542 H555 0.985 . S
N543 C545 1.356 . S
N543 H548 0.984 . S
N543 H549 0.985 . S
C544 C538 1.379 . S
C544 C541 1.363 . S
C544 N542 1.356 . S
C545 C539 1.363 . S
C545 C540 1.379 . S
C545 N543 1.356 . S
N546 C538 1.356 . S
N546 H552 0.984 . S
N546 H553 0.984 . S
N547 C540 1.356 . S
N547 H550 0.984 . S
N547 H551 0.985 . S
H548 N543 0.984 . S
H549 N543 0.985 . S
H550 N547 0.984 . S
H551 N547 0.985 . S
H552 N546 0.984 . S
H553 N546 0.984 . S
H554 N542 0.984 . S
H555 N542 0.985 . S
C556 C557 1.363 . S
C556 C562 1.379 . S
C556 N564 1.356 . S
C557 C556 1.363 . S
C557 C563 1.363 . S
C558 C559 1.363 . S
C558 C563 1.379 . S
C558 N565 1.356 . S
C559 C558 1.363 . S
C559 C562 1.363 . S
N560 C562 1.356 . S
N560 H572 0.984 . S
N560 H573 0.985 . S
N561 C563 1.356 . S
N561 H566 0.984 . S
N561 H567 0.985 . S
C562 C556 1.379 . S
C562 C559 1.363 . S
C562 N560 1.356 . S
C563 C557 1.363 . S
C563 C558 1.379 . S
C563 N561 1.356 . S
N564 C556 1.356 . S
N564 H570 0.984 . S
N564 H571 0.984 . S
N565 C558 1.356 . S
N565 H568 0.984 . S
N565 H569 0.985 . S
H566 N561 0.984 . S
H567 N561 0.985 . S
H568 N565 0.984 . S
H569 N565 0.985 . S
H570 N564 0.984 . S
H571 N564 0.984 . S
H572 N560 0.984 . S
H573 N560 0.985 . S
C574 C575 1.363 . S
C574 C580 1.379 . S
C574 N582 1.356 . S
C575 C574 1.363 . S
C575 C581 1.363 . S
C576 C577 1.363 . S
C576 C581 1.379 . S
C576 N583 1.356 . S
C577 C576 1.363 . S
C577 C580 1.363 . S
N578 C580 1.356 . S
N578 H590 0.984 . S
N578 H591 0.985 . S
N579 C581 1.356 . S
N579 H584 0.984 . S
N579 H585 0.985 . S
C580 C574 1.379 . S
C580 C577 1.363 . S
C580 N578 1.356 . S
C581 C575 1.363 . S
C581 C576 1.379 . S
C581 N579 1.356 . S
N582 C574 1.356 . S
N582 H588 0.984 . S
N582 H589 0.984 . S
N583 C576 1.356 . S
N583 H586 0.984 . S
N583 H587 0.985 . S
H584 N579 0.984 . S
H585 N579 0.985 . S
H586 N583 0.984 . S
H587 N583 0.985 . S
H588 N582 0.984 . S
H589 N582 0.984 . S
H590 N578 0.984 . S
H591 N578 0.985 . S
C592 C593 1.363 . S
C592 C598 1.379 . S
C592 N600 1.356 . S
C593 C592 1.363 . S
C593 C599 1.363 . S
C594 C595 1.363 . S
C594 C599 1.379 . S
C594 N601 1.356 . S
C595 C594 1.363 . S
C595 C598 1.363 . S
N596 C598 1.356 . S
N596 H608 0.984 . S
N596 H609 0.985 . S
N597 C599 1.356 . S
N597 H602 0.984 . S
N597 H603 0.967 1_655 S
C598 C592 1.379 . S
C598 C595 1.363 . S
C598 N596 1.356 . S
C599 C593 1.363 . S
C599 C594 1.379 . S
C599 N597 1.356 . S
N600 C592 1.356 . S
N600 H606 0.984 . S
N600 H607 0.984 . S
N601 C594 1.356 . S
N601 H604 0.984 . S
N601 H605 0.985 1_655 S
H602 N597 0.984 . S
H603 N597 0.967 1_455 S
H604 N601 0.984 . S
H605 N601 0.985 1_455 S
H606 N600 0.984 . S
H607 N600 0.984 . S
H608 N596 0.984 . S
H609 N596 0.985 . S
C610 C611 1.363 . S
C610 C616 1.379 . S
C610 N618 1.356 . S
C611 C610 1.363 . S
C611 C617 1.363 . S
C612 C613 1.363 . S
C612 C617 1.379 . S
C612 N619 1.356 . S
C613 C612 1.363 . S
C613 C616 1.363 . S
N614 C616 1.356 . S
N614 H626 0.984 . S
N614 H627 0.985 . S
N615 C617 1.356 . S
N615 H620 0.984 . S
N615 H621 0.985 . S
C616 C610 1.379 . S
C616 C613 1.363 . S
C616 N614 1.356 . S
C617 C611 1.363 . S
C617 C612 1.379 . S
C617 N615 1.356 . S
N618 C610 1.356 . S
N618 H624 0.984 . S
N618 H625 0.984 . S
N619 C612 1.356 . S
N619 H622 0.984 . S
N619 H623 0.985 . S
H620 N615 0.984 . S
H621 N615 0.985 . S
H622 N619 0.984 . S
H623 N619 0.985 . S
H624 N618 0.984 . S
H625 N618 0.984 . S
H626 N614 0.984 . S
H627 N614 0.985 . S
C628 C629 1.363 . S
C628 C634 1.379 . S
C628 N636 1.356 . S
C629 C628 1.363 . S
C629 C635 1.363 . S
C630 C631 1.363 . S
C630 C635 1.379 . S
C630 N637 1.356 . S
C631 C630 1.363 . S
C631 C634 1.363 . S
N632 C634 1.356 . S
N632 H644 0.984 . S
N632 H645 0.985 . S
N633 C635 1.356 . S
N633 H638 0.984 . S
N633 H639 0.985 . S
C634 C628 1.379 . S
C634 C631 1.363 . S
C634 N632 1.356 . S
C635 C629 1.363 . S
C635 C630 1.379 . S
C635 N633 1.356 . S
N636 C628 1.356 . S
N636 H642 0.984 . S
N636 H643 0.984 . S
N637 C630 1.356 . S
N637 H640 0.984 . S
N637 H641 0.985 . S
H638 N633 0.984 . S
H639 N633 0.985 . S
H640 N637 0.984 . S
H641 N637 0.985 . S
H642 N636 0.984 . S
H643 N636 0.984 . S
H644 N632 0.984 . S
H645 N632 0.985 . S
C646 C647 1.363 . S
C646 C652 1.379 . S
C646 N654 1.356 . S
C647 C646 1.363 . S
C647 C653 1.363 . S
C648 C649 1.363 . S
C648 C653 1.379 . S
C648 N655 1.356 . S
C649 C648 1.363 . S
C649 C652 1.363 . S
N650 C652 1.356 . S
N650 H662 0.984 . S
N650 H663 0.985 . S
N651 C653 1.356 . S
N651 H656 0.984 . S
N651 H657 0.985 . S
C652 C646 1.379 . S
C652 C649 1.363 . S
C652 N650 1.356 . S
C653 C647 1.363 . S
C653 C648 1.379 . S
C653 N651 1.356 . S
N654 C646 1.356 . S
N654 H660 0.984 . S
N654 H661 0.984 . S
N655 C648 1.356 . S
N655 H658 0.984 . S
N655 H659 0.985 . S
H656 N651 0.984 . S
H657 N651 0.985 . S
H658 N655 0.984 . S
H659 N655 0.985 . S
H660 N654 0.984 . S
H661 N654 0.984 . S
H662 N650 0.984 . S
H663 N650 0.985 . S
C664 C665 1.363 . S
C664 C670 1.379 . S
C664 N672 1.356 . S
C665 C664 1.363 . S
C665 C671 1.363 . S
C666 C667 1.363 . S
C666 C671 1.379 . S
C666 N673 1.356 . S
C667 C666 1.363 . S
C667 C670 1.363 . S
N668 C670 1.356 . S
N668 H680 0.984 . S
N668 H681 0.985 . S
N669 C671 1.356 . S
N669 H674 0.984 . S
N669 H675 0.985 . S
C670 C664 1.379 . S
C670 C667 1.363 . S
C670 N668 1.356 . S
C671 C665 1.363 . S
C671 C666 1.379 . S
C671 N669 1.356 . S
N672 C664 1.356 . S
N672 H678 0.984 . S
N672 H679 0.984 . S
N673 C666 1.356 . S
N673 H676 0.984 . S
N673 H677 0.985 . S
H674 N669 0.984 . S
H675 N669 0.985 . S
H676 N673 0.984 . S
H677 N673 0.985 . S
H678 N672 0.984 . S
H679 N672 0.984 . S
H680 N668 0.984 . S
H681 N668 0.985 . S
C682 C683 1.363 . S
C682 C688 1.379 . S
C682 N690 1.356 . S
C683 C682 1.363 . S
C683 C689 1.363 . S
C684 C685 1.363 . S
C684 C689 1.379 . S
C684 N691 1.356 . S
C685 C684 1.363 . S
C685 C688 1.363 . S
N686 C688 1.356 . S
N686 H698 0.984 . S
N686 H699 0.985 . S
N687 C689 1.356 . S
N687 H692 0.984 . S
N687 H693 0.985 . S
C688 C682 1.379 . S
C688 C685 1.363 . S
C688 N686 1.356 . S
C689 C683 1.363 . S
C689 C684 1.379 . S
C689 N687 1.356 . S
N690 C682 1.356 . S
N690 H696 0.984 . S
N690 H697 0.984 . S
N691 C684 1.356 . S
N691 H694 0.984 . S
N691 H695 0.985 . S
H692 N687 0.984 . S
H693 N687 0.985 . S
H694 N691 0.984 . S
H695 N691 0.985 . S
H696 N690 0.984 . S
H697 N690 0.984 . S
H698 N686 0.984 . S
H699 N686 0.985 . S
C700 C701 1.363 . S
C700 C706 1.379 . S
C700 N708 1.356 . S
C701 C700 1.363 . S
C701 C707 1.363 . S
C702 C703 1.363 . S
C702 C707 1.379 . S
C702 N709 1.356 . S
C703 C702 1.363 . S
C703 C706 1.363 . S
N704 C706 1.356 . S
N704 H716 0.984 . S
N704 H717 0.985 . S
N705 C707 1.356 . S
N705 H710 0.984 . S
N705 H711 0.985 . S
C706 C700 1.379 . S
C706 C703 1.363 . S
C706 N704 1.356 . S
C707 C701 1.363 . S
C707 C702 1.379 . S
C707 N705 1.356 . S
N708 C700 1.356 . S
N708 H714 0.984 . S
N708 H715 0.984 . S
N709 C702 1.356 . S
N709 H712 0.984 . S
N709 H713 0.985 . S
H710 N705 0.984 . S
H711 N705 0.985 . S
H712 N709 0.984 . S
H713 N709 0.985 . S
H714 N708 0.984 . S
H715 N708 0.984 . S
H716 N704 0.984 . S
H717 N704 0.985 . S
C718 C719 1.363 . S
C718 C724 1.379 . S
C718 N726 1.356 . S
C719 C718 1.363 . S
C719 C725 1.363 . S
C720 C721 1.363 . S
C720 C725 1.379 . S
C720 N727 1.356 . S
C721 C720 1.363 . S
C721 C724 1.363 . S
N722 C724 1.356 . S
N722 H734 0.984 . S
N722 H735 0.985 . S
N723 C725 1.356 . S
N723 H728 0.984 . S
N723 H729 0.985 . S
C724 C718 1.379 . S
C724 C721 1.363 . S
C724 N722 1.356 . S
C725 C719 1.363 . S
C725 C720 1.379 . S
C725 N723 1.356 . S
N726 C718 1.356 . S
N726 H732 0.984 . S
N726 H733 0.984 . S
N727 C720 1.356 . S
N727 H730 0.984 . S
N727 H731 0.985 . S
H728 N723 0.984 . S
H729 N723 0.985 . S
H730 N727 0.984 . S
H731 N727 0.985 . S
H732 N726 0.984 . S
H733 N726 0.984 . S
H734 N722 0.984 . S
H735 N722 0.985 . S
C736 C737 1.363 . S
C736 C742 1.379 . S
C736 N744 1.356 . S
C737 C736 1.363 . S
C737 C743 1.363 . S
C738 C739 1.363 . S
C738 C743 1.379 . S
C738 N745 1.356 . S
C739 C738 1.363 . S
C739 C742 1.363 . S
N740 C742 1.356 . S
N740 H752 0.984 . S
N740 H753 0.985 . S
N741 C743 1.356 . S
N741 H746 0.984 . S
N741 H747 0.985 . S
C742 C736 1.379 . S
C742 C739 1.363 . S
C742 N740 1.356 . S
C743 C737 1.363 . S
C743 C738 1.379 . S
C743 N741 1.356 . S
N744 C736 1.356 . S
N744 H750 0.984 . S
N744 H751 0.984 . S
N745 C738 1.356 . S
N745 H748 0.984 . S
N745 H749 0.985 . S
H746 N741 0.984 . S
H747 N741 0.985 . S
H748 N745 0.984 . S
H749 N745 0.985 . S
H750 N744 0.984 . S
H751 N744 0.984 . S
H752 N740 0.984 . S
H753 N740 0.985 . S
C754 C755 1.363 . S
C754 C760 1.379 . S
C754 N762 1.356 . S
C755 C754 1.363 . S
C755 C761 1.363 . S
C756 C757 1.363 . S
C756 C761 1.379 . S
C756 N763 1.356 . S
C757 C756 1.363 . S
C757 C760 1.363 . S
N758 C760 1.356 . S
N758 H770 0.984 . S
N758 H771 0.985 . S
N759 C761 1.356 . S
N759 H764 0.984 . S
N759 H765 0.985 . S
C760 C754 1.379 . S
C760 C757 1.363 . S
C760 N758 1.356 . S
C761 C755 1.363 . S
C761 C756 1.379 . S
C761 N759 1.356 . S
N762 C754 1.356 . S
N762 H768 0.984 . S
N762 H769 0.984 . S
N763 C756 1.356 . S
N763 H766 0.984 . S
N763 H767 0.985 . S
H764 N759 0.984 . S
H765 N759 0.985 . S
H766 N763 0.984 . S
H767 N763 0.985 . S
H768 N762 0.984 . S
H769 N762 0.984 . S
H770 N758 0.984 . S
H771 N758 0.985 . S
C772 C773 1.363 . S
C772 C778 1.379 . S
C772 N780 1.356 . S
C773 C772 1.363 . S
C773 C779 1.363 . S
C774 C775 1.363 . S
C774 C779 1.379 . S
C774 N781 1.356 . S
C775 C774 1.363 . S
C775 C778 1.363 . S
N776 C778 1.356 . S
N776 H788 0.984 . S
N776 H789 0.985 . S
N777 C779 1.356 . S
N777 H782 0.984 . S
N777 H783 0.985 . S
C778 C772 1.379 . S
C778 C775 1.363 . S
C778 N776 1.356 . S
C779 C773 1.363 . S
C779 C774 1.379 . S
C779 N777 1.356 . S
N780 C772 1.356 . S
N780 H786 0.984 . S
N780 H787 0.984 . S
N781 C774 1.356 . S
N781 H784 0.984 . S
N781 H785 0.985 . S
H782 N777 0.984 . S
H783 N777 0.985 . S
H784 N781 0.984 . S
H785 N781 0.985 . S
H786 N780 0.984 . S
H787 N780 0.984 . S
H788 N776 0.984 . S
H789 N776 0.985 . S
C790 C791 1.363 . S
C790 C796 1.379 . S
C790 N798 1.356 . S
C791 C790 1.363 . S
C791 C797 1.363 . S
C792 C793 1.363 . S
C792 C797 1.379 . S
C792 N799 1.356 . S
C793 C792 1.363 . S
C793 C796 1.363 . S
N794 C796 1.356 . S
N794 H806 0.984 . S
N794 H807 0.985 . S
N795 C797 1.356 . S
N795 H800 0.984 . S
N795 H801 0.985 . S
C796 C790 1.379 . S
C796 C793 1.363 . S
C796 N794 1.356 . S
C797 C791 1.363 . S
C797 C792 1.379 . S
C797 N795 1.356 . S
N798 C790 1.356 . S
N798 H804 0.984 . S
N798 H805 0.984 . S
N799 C792 1.356 . S
N799 H802 0.984 . S
N799 H803 0.985 . S
H800 N795 0.984 . S
H801 N795 0.985 . S
H802 N799 0.984 . S
H803 N799 0.985 . S
H804 N798 0.984 . S
H805 N798 0.984 . S
H806 N794 0.984 . S
H807 N794 0.985 . S
C808 C809 1.363 . S
C808 C814 1.379 . S
C808 N816 1.356 . S
C809 C808 1.363 . S
C809 C815 1.363 . S
C810 C811 1.363 . S
C810 C815 1.379 . S
C810 N817 1.356 . S
C811 C810 1.363 . S
C811 C814 1.363 . S
N812 C814 1.356 . S
N812 H824 0.984 . S
N812 H825 0.985 . S
N813 C815 1.356 . S
N813 H818 0.984 . S
N813 H819 0.985 . S
C814 C808 1.379 . S
C814 C811 1.363 . S
C814 N812 1.356 . S
C815 C809 1.363 . S
C815 C810 1.379 . S
C815 N813 1.356 . S
N816 C808 1.356 . S
N816 H822 0.984 . S
N816 H823 0.984 . S
N817 C810 1.356 . S
N817 H820 0.984 . S
N817 H821 0.985 . S
H818 N813 0.984 . S
H819 N813 0.985 . S
H820 N817 0.984 . S
H821 N817 0.985 . S
H822 N816 0.984 . S
H823 N816 0.984 . S
H824 N812 0.984 . S
H825 N812 0.985 . S
C826 C827 1.363 . S
C826 C832 1.379 . S
C826 N834 1.356 . S
C827 C826 1.363 . S
C827 C833 1.363 . S
C828 C829 1.363 . S
C828 C833 1.379 . S
C828 N835 1.356 . S
C829 C828 1.363 . S
C829 C832 1.363 . S
N830 C832 1.356 . S
N830 H842 0.984 . S
N830 H843 0.985 . S
N831 C833 1.356 . S
N831 H836 0.984 . S
N831 H837 0.985 . S
C832 C826 1.379 . S
C832 C829 1.363 . S
C832 N830 1.356 . S
C833 C827 1.363 . S
C833 C828 1.379 . S
C833 N831 1.356 . S
N834 C826 1.356 . S
N834 H840 0.984 . S
N834 H841 0.984 . S
N835 C828 1.356 . S
N835 H838 0.984 . S
N835 H839 0.985 . S
H836 N831 0.984 . S
H837 N831 0.985 . S
H838 N835 0.984 . S
H839 N835 0.985 . S
H840 N834 0.984 . S
H841 N834 0.984 . S
H842 N830 0.984 . S
H843 N830 0.985 . S
C844 C845 1.363 . S
C844 C850 1.379 . S
C844 N852 1.356 . S
C845 C844 1.363 . S
C845 C851 1.363 . S
C846 C847 1.363 . S
C846 C851 1.379 . S
C846 N853 1.356 . S
C847 C846 1.363 . S
C847 C850 1.363 . S
N848 C850 1.356 . S
N848 H860 0.984 . S
N848 H861 0.985 . S
N849 C851 1.356 . S
N849 H854 0.984 . S
N849 H855 0.985 . S
C850 C844 1.379 . S
C850 C847 1.363 . S
C850 N848 1.356 . S
C851 C845 1.363 . S
C851 C846 1.379 . S
C851 N849 1.356 . S
N852 C844 1.356 . S
N852 H858 0.984 . S
N852 H859 0.984 . S
N853 C846 1.356 . S
N853 H856 0.984 . S
N853 H857 0.985 . S
H854 N849 0.984 . S
H855 N849 0.985 . S
H856 N853 0.984 . S
H857 N853 0.985 . S
H858 N852 0.984 . S
H859 N852 0.984 . S
H860 N848 0.984 . S
H861 N848 0.985 . S
C862 C863 1.363 . S
C862 C868 1.379 . S
C862 N870 1.356 . S
C863 C862 1.363 . S
C863 C869 1.363 . S
C864 C865 1.363 . S
C864 C869 1.379 . S
C864 N871 1.356 . S
C865 C864 1.363 . S
C865 C868 1.363 . S
N866 C868 1.356 . S
N866 H878 0.984 . S
N866 H879 0.985 . S
N867 C869 1.356 . S
N867 H872 0.984 . S
N867 H873 0.985 . S
C868 C862 1.379 . S
C868 C865 1.363 . S
C868 N866 1.356 . S
C869 C863 1.363 . S
C869 C864 1.379 . S
C869 N867 1.356 . S
N870 C862 1.356 . S
N870 H876 0.984 . S
N870 H877 0.984 . S
N871 C864 1.356 . S
N871 H874 0.984 . S
N871 H875 0.985 . S
H872 N867 0.984 . S
H873 N867 0.985 . S
H874 N871 0.984 . S
H875 N871 0.985 . S
H876 N870 0.984 . S
H877 N870 0.984 . S
H878 N866 0.984 . S
H879 N866 0.985 . S
C880 C881 1.363 . S
C880 C886 1.379 . S
C880 N888 1.356 . S
C881 C880 1.363 . S
C881 C887 1.363 . S
C882 C883 1.363 . S
C882 C887 1.379 . S
C882 N889 1.356 . S
C883 C882 1.363 . S
C883 C886 1.363 . S
N884 C886 1.356 . S
N884 H896 0.984 . S
N884 H897 0.985 . S
N885 C887 1.356 . S
N885 H890 0.984 . S
N885 H891 0.985 . S
C886 C880 1.379 . S
C886 C883 1.363 . S
C886 N884 1.356 . S
C887 C881 1.363 . S
C887 C882 1.379 . S
C887 N885 1.356 . S
N888 C880 1.356 . S
N888 H894 0.984 . S
N888 H895 0.984 . S
N889 C882 1.356 . S
N889 H892 0.984 . S
N889 H893 0.985 . S
H890 N885 0.984 . S
H891 N885 0.985 . S
H892 N889 0.984 . S
H893 N889 0.985 . S
H894 N888 0.984 . S
H895 N888 0.984 . S
H896 N884 0.984 . S
H897 N884 0.985 . S
C898 C899 1.363 . S
C898 C904 1.379 . S
C898 N906 1.356 . S
C899 C898 1.363 . S
C899 C905 1.363 . S
C900 C901 1.363 . S
C900 C905 1.379 . S
C900 N907 1.356 . S
C901 C900 1.363 . S
C901 C904 1.363 . S
N902 C904 1.356 . S
N902 H914 0.984 . S
N902 H915 0.985 . S
N903 C905 1.356 . S
N903 H908 0.984 . S
N903 H909 0.985 . S
C904 C898 1.379 . S
C904 C901 1.363 . S
C904 N902 1.356 . S
C905 C899 1.363 . S
C905 C900 1.379 . S
C905 N903 1.356 . S
N906 C898 1.356 . S
N906 H912 0.984 . S
N906 H913 0.984 . S
N907 C900 1.356 . S
N907 H910 0.984 . S
N907 H911 0.985 . S
H908 N903 0.984 . S
H909 N903 0.985 . S
H910 N907 0.984 . S
H911 N907 0.985 . S
H912 N906 0.984 . S
H913 N906 0.984 . S
H914 N902 0.984 . S
H915 N902 0.985 . S
C916 C917 1.363 . S
C916 C922 1.379 . S
C916 N924 1.356 . S
C917 C916 1.363 . S
C917 C923 1.363 . S
C918 C919 1.363 . S
C918 C923 1.379 . S
C918 N925 1.356 . S
C919 C918 1.363 . S
C919 C922 1.363 . S
N920 C922 1.356 . S
N920 H932 0.984 . S
N920 H933 0.985 . S
N921 C923 1.356 . S
N921 H926 0.984 . S
N921 H927 0.985 . S
C922 C916 1.379 . S
C922 C919 1.363 . S
C922 N920 1.356 . S
C923 C917 1.363 . S
C923 C918 1.379 . S
C923 N921 1.356 . S
N924 C916 1.356 . S
N924 H930 0.984 . S
N924 H931 0.984 . S
N925 C918 1.356 . S
N925 H928 0.984 . S
N925 H929 0.985 . S
H926 N921 0.984 . S
H927 N921 0.985 . S
H928 N925 0.984 . S
H929 N925 0.985 . S
H930 N924 0.984 . S
H931 N924 0.984 . S
H932 N920 0.984 . S
H933 N920 0.985 . S
C934 C935 1.363 . S
C934 C940 1.379 . S
C934 N942 1.356 . S
C935 C934 1.363 . S
C935 C941 1.363 . S
C936 C937 1.363 . S
C936 C941 1.379 . S
C936 N943 1.356 . S
C937 C936 1.363 . S
C937 C940 1.363 . S
N938 C940 1.356 . S
N938 H950 0.984 . S
N938 H951 0.985 . S
N939 C941 1.356 . S
N939 H944 0.984 . S
N939 H945 0.985 . S
C940 C934 1.379 . S
C940 C937 1.363 . S
C940 N938 1.356 . S
C941 C935 1.363 . S
C941 C936 1.379 . S
C941 N939 1.356 . S
N942 C934 1.356 . S
N942 H948 0.984 . S
N942 H949 0.984 . S
N943 C936 1.356 . S
N943 H946 0.984 . S
N943 H947 0.985 . S
H944 N939 0.984 . S
H945 N939 0.985 . S
H946 N943 0.984 . S
H947 N943 0.985 . S
H948 N942 0.984 . S
H949 N942 0.984 . S
H950 N938 0.984 . S
H951 N938 0.985 . S
C952 C953 1.363 . S
C952 C958 1.379 . S
C952 N960 1.356 . S
C953 C952 1.363 . S
C953 C959 1.363 . S
C954 C955 1.363 . S
C954 C959 1.379 . S
C954 N961 1.356 . S
C955 C954 1.363 . S
C955 C958 1.363 . S
N956 C958 1.356 . S
N956 H968 0.984 . S
N956 H969 0.985 . S
N957 C959 1.356 . S
N957 H962 0.984 . S
N957 H963 0.985 . S
C958 C952 1.379 . S
C958 C955 1.363 . S
C958 N956 1.356 . S
C959 C953 1.363 . S
C959 C954 1.379 . S
C959 N957 1.356 . S
N960 C952 1.356 . S
N960 H966 0.984 . S
N960 H967 0.984 . S
N961 C954 1.356 . S
N961 H964 0.984 . S
N961 H965 0.985 . S
H962 N957 0.984 . S
H963 N957 0.985 . S
H964 N961 0.984 . S
H965 N961 0.985 . S
H966 N960 0.984 . S
H967 N960 0.984 . S
H968 N956 0.984 . S
H969 N956 0.985 . S
C970 C971 1.363 . S
C970 C976 1.379 . S
C970 N978 1.356 . S
C971 C970 1.363 . S
C971 C977 1.363 . S
C972 C973 1.363 . S
C972 C977 1.379 . S
C972 N979 1.356 . S
C973 C972 1.363 . S
C973 C976 1.363 . S
N974 C976 1.356 . S
N974 H986 0.984 . S
N974 H987 0.985 . S
N975 C977 1.356 . S
N975 H980 0.984 . S
N975 H981 0.985 . S
C976 C970 1.379 . S
C976 C973 1.363 . S
C976 N974 1.356 . S
C977 C971 1.363 . S
C977 C972 1.379 . S
C977 N975 1.356 . S
N978 C970 1.356 . S
N978 H984 0.984 . S
N978 H985 0.984 . S
N979 C972 1.356 . S
N979 H982 0.984 . S
N979 H983 0.985 . S
H980 N975 0.984 . S
H981 N975 0.985 . S
H982 N979 0.984 . S
H983 N979 0.985 . S
H984 N978 0.984 . S
H985 N978 0.984 . S
H986 N974 0.984 . S
H987 N974 0.985 . S
C988 C989 1.363 . S
C988 C994 1.379 . S
C988 N996 1.356 . S
C989 C988 1.363 . S
C989 C995 1.363 . S
C990 C991 1.363 . S
C990 C995 1.379 . S
C990 N997 1.356 . S
C991 C990 1.363 . S
C991 C994 1.363 . S
N992 C994 1.356 . S
N992 H1004 0.984 . S
N992 H1005 0.985 . S
N993 C995 1.356 . S
N993 H998 0.984 . S
N993 H999 0.985 . S
C994 C988 1.379 . S
C994 C991 1.363 . S
C994 N992 1.356 . S
C995 C989 1.363 . S
C995 C990 1.379 . S
C995 N993 1.356 . S
N996 C988 1.356 . S
N996 H1002 0.984 . S
N996 H1003 0.984 . S
N997 C990 1.356 . S
N997 H1000 0.984 . S
N997 H1001 0.985 . S
H998 N993 0.984 . S
H999 N993 0.985 . S
H1000 N997 0.984 . S
H1001 N997 0.985 . S
H1002 N996 0.984 . S
H1003 N996 0.984 . S
H1004 N992 0.984 . S
H1005 N992 0.985 . S
C1006 C1007 1.363 . S
C1006 C1012 1.379 . S
C1006 N1014 1.356 . S
C1007 C1006 1.363 . S
C1007 C1013 1.363 . S
C1008 C1009 1.363 . S
C1008 C1013 1.379 . S
C1008 N1015 1.356 . S
C1009 C1008 1.363 . S
C1009 C1012 1.363 . S
N1010 C1012 1.356 . S
N1010 H1022 0.984 . S
N1010 H1023 0.985 . S
N1011 C1013 1.356 . S
N1011 H1016 0.984 . S
N1011 H1017 0.985 . S
C1012 C1006 1.379 . S
C1012 C1009 1.363 . S
C1012 N1010 1.356 . S
C1013 C1007 1.363 . S
C1013 C1008 1.379 . S
C1013 N1011 1.356 . S
N1014 C1006 1.356 . S
N1014 H1020 0.984 . S
N1014 H1021 0.984 . S
N1015 C1008 1.356 . S
N1015 H1018 0.984 . S
N1015 H1019 0.985 . S
H1016 N1011 0.984 . S
H1017 N1011 0.985 . S
H1018 N1015 0.984 . S
H1019 N1015 0.985 . S
H1020 N1014 0.984 . S
H1021 N1014 0.984 . S
H1022 N1010 0.984 . S
H1023 N1010 0.985 . S
C1024 C1025 1.363 1_556 S
C1024 C1030 1.379 1_545 S
C1024 N1032 1.356 . S
C1025 C1024 1.363 1_554 S
C1025 C1031 1.363 . S
C1026 C1027 1.363 1_554 S
C1026 C1031 1.379 1_565 S
C1026 N1033 1.356 . S
C1027 C1026 1.363 1_556 S
C1027 C1030 1.363 . S
N1028 C1030 1.356 . S
N1028 H1040 0.984 . S
N1028 H1041 0.985 . S
N1029 C1031 1.356 . S
N1029 H1034 0.984 . S
N1029 H1035 0.985 . S
C1030 C1024 1.379 1_565 S
C1030 C1027 1.363 . S
C1030 N1028 1.356 . S
C1031 C1025 1.363 . S
C1031 C1026 1.379 1_545 S
C1031 N1029 1.356 . S
N1032 C1024 1.356 . S
N1032 H1038 0.984 . S
N1032 H1039 0.984 1_556 S
N1033 C1026 1.356 . S
N1033 H1036 0.984 1_554 S
N1033 H1037 0.985 . S
H1034 N1029 0.984 . S
H1035 N1029 0.985 . S
H1036 N1033 0.984 1_556 S
H1037 N1033 0.985 . S
H1038 N1032 0.984 . S
H1039 N1032 0.984 1_554 S
H1040 N1028 0.984 . S
H1041 N1028 0.985 . S
C1042 C1043 1.363 . S
C1042 C1048 1.379 . S
C1042 N1050 1.356 . S
C1043 C1042 1.363 . S
C1043 C1049 1.363 1_554 S
C1044 C1045 1.363 . S
C1044 C1049 1.379 . S
C1044 N1051 1.356 . S
C1045 C1044 1.363 . S
C1045 C1048 1.363 1_556 S
N1046 C1048 1.356 . S
N1046 H1058 0.984 . S
N1046 H1059 0.985 1_554 S
N1047 C1049 1.356 . S
N1047 H1052 0.984 1_556 S
N1047 H1053 0.985 . S
C1048 C1042 1.379 . S
C1048 C1045 1.363 1_554 S
C1048 N1046 1.356 . S
C1049 C1043 1.363 1_556 S
C1049 C1044 1.379 . S
C1049 N1047 1.356 . S
N1050 C1042 1.356 . S
N1050 H1056 0.984 . S
N1050 H1057 0.984 . S
N1051 C1044 1.356 . S
N1051 H1054 0.984 . S
N1051 H1055 0.985 . S
H1052 N1047 0.984 1_554 S
H1053 N1047 0.985 . S
H1054 N1051 0.984 . S
H1055 N1051 0.985 . S
H1056 N1050 0.984 . S
H1057 N1050 0.984 . S
H1058 N1046 0.984 . S
H1059 N1046 0.985 1_556 S
C1060 C1061 1.363 . S
C1060 C1066 1.379 . S
C1060 N1068 1.356 . S
C1061 C1060 1.363 . S
C1061 C1067 1.363 . S
C1062 C1063 1.363 . S
C1062 C1067 1.379 . S
C1062 N1069 1.356 . S
C1063 C1062 1.363 . S
C1063 C1066 1.363 . S
N1064 C1066 1.356 . S
N1064 H1076 0.984 . S
N1064 H1077 0.985 . S
N1065 C1067 1.356 . S
N1065 H1070 0.984 . S
N1065 H1071 0.985 . S
C1066 C1060 1.379 . S
C1066 C1063 1.363 . S
C1066 N1064 1.356 . S
C1067 C1061 1.363 . S
C1067 C1062 1.379 . S
C1067 N1065 1.356 . S
N1068 C1060 1.356 . S
N1068 H1074 0.984 . S
N1068 H1075 0.984 . S
N1069 C1062 1.356 . S
N1069 H1072 0.984 . S
N1069 H1073 0.985 . S
H1070 N1065 0.984 . S
H1071 N1065 0.985 . S
H1072 N1069 0.984 . S
H1073 N1069 0.985 . S
H1074 N1068 0.984 . S
H1075 N1068 0.984 . S
H1076 N1064 0.984 . S
H1077 N1064 0.985 . S
C1078 C1079 1.363 . S
C1078 C1084 1.379 . S
C1078 N1086 1.356 . S
C1079 C1078 1.363 . S
C1079 C1085 1.363 1_545 S
C1080 C1081 1.363 . S
C1080 C1085 1.379 . S
C1080 N1087 1.356 . S
C1081 C1080 1.363 . S
C1081 C1084 1.363 1_565 S
N1082 C1084 1.354 1_565 S
N1082 H1094 0.971 1_565 S
N1082 H1095 1.001 . S
N1083 C1085 1.354 1_545 S
N1083 H1088 0.999 . S
N1083 H1089 0.972 1_545 S
C1084 C1078 1.379 . S
C1084 C1081 1.363 1_545 S
C1084 N1082 1.354 1_545 S
C1085 C1079 1.363 1_565 S
C1085 C1080 1.379 . S
C1085 N1083 1.354 1_565 S
N1086 C1078 1.356 . S
N1086 H1092 0.984 . S
N1086 H1093 0.984 . S
N1087 C1080 1.356 . S
N1087 H1090 0.984 . S
N1087 H1091 0.985 . S
H1088 N1083 0.999 . S
H1089 N1083 0.972 1_565 S
H1090 N1087 0.984 . S
H1091 N1087 0.985 . S
H1092 N1086 0.984 . S
H1093 N1086 0.984 . S
H1094 N1082 0.971 1_545 S
H1095 N1082 1.001 . S
C1096 C1097 1.363 . S
C1096 C1102 1.379 . S
C1096 N1104 1.356 . S
C1097 C1096 1.363 . S
C1097 C1103 1.363 1_556 S
C1098 C1099 1.363 . S
C1098 C1103 1.379 . S
C1098 N1105 1.356 . S
C1099 C1098 1.363 . S
C1099 C1102 1.363 1_554 S
N1100 C1102 1.356 . S
N1100 H1112 0.984 . S
N1100 H1113 0.985 1_556 S
N1101 C1103 1.356 . S
N1101 H1106 0.984 1_554 S
N1101 H1107 0.985 . S
C1102 C1096 1.379 . S
C1102 C1099 1.363 1_556 S
C1102 N1100 1.356 . S
C1103 C1097 1.363 1_554 S
C1103 C1098 1.379 . S
C1103 N1101 1.356 . S
N1104 C1096 1.356 . S
N1104 H1110 0.984 . S
N1104 H1111 0.984 . S
N1105 C1098 1.356 . S
N1105 H1108 0.984 . S
N1105 H1109 0.985 . S
H1106 N1101 0.984 1_556 S
H1107 N1101 0.985 . S
H1108 N1105 0.984 . S
H1109 N1105 0.985 . S
H1110 N1104 0.984 . S
H1111 N1104 0.984 . S
H1112 N1100 0.984 . S
H1113 N1100 0.985 1_554 S
C1114 C1115 1.363 . S
C1114 C1120 1.379 . S
C1114 N1122 1.356 . S
C1115 C1114 1.363 . S
C1115 C1121 1.363 . S
C1116 C1117 1.363 . S
C1116 C1121 1.379 . S
C1116 N1123 1.356 . S
C1117 C1116 1.363 . S
C1117 C1120 1.363 . S
N1118 C1120 1.356 . S
N1118 H1130 0.984 . S
N1118 H1131 0.985 . S
N1119 C1121 1.356 . S
N1119 H1124 0.984 . S
N1119 H1125 0.985 . S
C1120 C1114 1.379 . S
C1120 C1117 1.363 . S
C1120 N1118 1.356 . S
C1121 C1115 1.363 . S
C1121 C1116 1.379 . S
C1121 N1119 1.356 . S
N1122 C1114 1.356 . S
N1122 H1128 0.984 . S
N1122 H1129 0.984 . S
N1123 C1116 1.356 . S
N1123 H1126 0.984 . S
N1123 H1127 0.985 . S
H1124 N1119 0.984 . S
H1125 N1119 0.985 . S
H1126 N1123 0.984 . S
H1127 N1123 0.985 . S
H1128 N1122 0.984 . S
H1129 N1122 0.984 . S
H1130 N1118 0.984 . S
H1131 N1118 0.985 . S
C1132 C1133 1.363 1_565 S
C1132 C1138 1.379 . S
C1132 N1140 1.356 . S
C1133 C1132 1.363 1_545 S
C1133 C1139 1.363 . S
C1134 C1135 1.363 1_545 S
C1134 C1139 1.379 . S
C1134 N1141 1.356 . S
C1135 C1134 1.363 1_565 S
C1135 C1138 1.363 . S
N1136 C1138 1.356 . S
N1136 H1148 0.984 . S
N1136 H1149 0.985 . S
N1137 C1139 1.356 . S
N1137 H1142 0.984 . S
N1137 H1143 0.985 . S
C1138 C1132 1.379 . S
C1138 C1135 1.363 . S
C1138 N1136 1.356 . S
C1139 C1133 1.363 . S
C1139 C1134 1.379 . S
C1139 N1137 1.356 . S
N1140 C1132 1.356 . S
N1140 H1146 0.984 . S
N1140 H1147 0.984 1_565 S
N1141 C1134 1.356 . S
N1141 H1144 0.984 1_545 S
N1141 H1145 0.985 . S
H1142 N1137 0.984 . S
H1143 N1137 0.985 . S
H1144 N1141 0.984 1_565 S
H1145 N1141 0.985 . S
H1146 N1140 0.984 . S
H1147 N1140 0.984 1_545 S
H1148 N1136 0.984 . S
H1149 N1136 0.985 . S
C1150 C1151 1.363 . S
C1150 C1156 1.379 . S
C1150 N1158 1.356 . S
C1151 C1150 1.363 . S
C1151 C1157 1.363 . S
C1152 C1153 1.363 . S
C1152 C1157 1.379 . S
C1152 N1159 1.356 . S
C1153 C1152 1.363 . S
C1153 C1156 1.363 . S
N1154 C1156 1.356 . S
N1154 H1166 0.984 . S
N1154 H1167 0.985 . S
N1155 C1157 1.356 . S
N1155 H1160 0.984 . S
N1155 H1161 0.985 . S
C1156 C1150 1.379 . S
C1156 C1153 1.363 . S
C1156 N1154 1.356 . S
C1157 C1151 1.363 . S
C1157 C1152 1.379 . S
C1157 N1155 1.356 . S
N1158 C1150 1.356 . S
N1158 H1164 0.984 . S
N1158 H1165 0.984 . S
N1159 C1152 1.356 . S
N1159 H1162 0.984 . S
N1159 H1163 0.985 . S
H1160 N1155 0.984 . S
H1161 N1155 0.985 . S
H1162 N1159 0.984 . S
H1163 N1159 0.985 . S
H1164 N1158 0.984 . S
H1165 N1158 0.984 . S
H1166 N1154 0.984 . S
H1167 N1154 0.985 . S
C1168 C1169 1.363 . S
C1168 C1174 1.379 . S
C1168 N1176 1.356 . S
C1169 C1168 1.363 . S
C1169 C1175 1.363 . S
C1170 C1171 1.363 . S
C1170 C1175 1.379 . S
C1170 N1177 1.356 . S
C1171 C1170 1.363 . S
C1171 C1174 1.363 . S
N1172 C1174 1.356 . S
N1172 H1184 0.984 . S
N1172 H1185 0.985 . S
N1173 C1175 1.356 . S
N1173 H1178 0.984 . S
N1173 H1179 0.985 . S
C1174 C1168 1.379 . S
C1174 C1171 1.363 . S
C1174 N1172 1.356 . S
C1175 C1169 1.363 . S
C1175 C1170 1.379 . S
C1175 N1173 1.356 . S
N1176 C1168 1.356 . S
N1176 H1182 0.984 . S
N1176 H1183 0.984 . S
N1177 C1170 1.356 . S
N1177 H1180 0.984 . S
N1177 H1181 0.985 . S
H1178 N1173 0.984 . S
H1179 N1173 0.985 . S
H1180 N1177 0.984 . S
H1181 N1177 0.985 . S
H1182 N1176 0.984 . S
H1183 N1176 0.984 . S
H1184 N1172 0.984 . S
H1185 N1172 0.985 . S
C1186 C1187 1.363 . S
C1186 C1192 1.379 . S
C1186 N1194 1.356 . S
C1187 C1186 1.363 . S
C1187 C1193 1.363 . S
C1188 C1189 1.363 . S
C1188 C1193 1.379 . S
C1188 N1195 1.356 . S
C1189 C1188 1.363 . S
C1189 C1192 1.363 . S
N1190 C1192 1.356 . S
N1190 H1202 0.984 . S
N1190 H1203 0.985 . S
N1191 C1193 1.356 . S
N1191 H1196 0.984 . S
N1191 H1197 0.985 . S
C1192 C1186 1.379 . S
C1192 C1189 1.363 . S
C1192 N1190 1.356 . S
C1193 C1187 1.363 . S
C1193 C1188 1.379 . S
C1193 N1191 1.356 . S
N1194 C1186 1.356 . S
N1194 H1200 0.984 . S
N1194 H1201 0.984 . S
N1195 C1188 1.356 . S
N1195 H1198 0.984 . S
N1195 H1199 0.985 . S
H1196 N1191 0.984 . S
H1197 N1191 0.985 . S
H1198 N1195 0.984 . S
H1199 N1195 0.985 . S
H1200 N1194 0.984 . S
H1201 N1194 0.984 . S
H1202 N1190 0.984 . S
H1203 N1190 0.985 . S
C1204 C1205 1.363 . S
C1204 C1210 1.379 . S
C1204 N1212 1.356 . S
C1205 C1204 1.363 . S
C1205 C1211 1.363 . S
C1206 C1207 1.363 . S
C1206 C1211 1.379 . S
C1206 N1213 1.356 . S
C1207 C1206 1.363 . S
C1207 C1210 1.363 . S
N1208 C1210 1.356 . S
N1208 H1220 0.984 . S
N1208 H1221 0.985 . S
N1209 C1211 1.356 . S
N1209 H1214 0.984 . S
N1209 H1215 0.985 . S
C1210 C1204 1.379 . S
C1210 C1207 1.363 . S
C1210 N1208 1.356 . S
C1211 C1205 1.363 . S
C1211 C1206 1.379 . S
C1211 N1209 1.356 . S
N1212 C1204 1.356 . S
N1212 H1218 0.984 . S
N1212 H1219 0.984 . S
N1213 C1206 1.356 . S
N1213 H1216 0.984 . S
N1213 H1217 0.985 . S
H1214 N1209 0.984 . S
H1215 N1209 0.985 . S
H1216 N1213 0.984 . S
H1217 N1213 0.985 . S
H1218 N1212 0.984 . S
H1219 N1212 0.984 . S
H1220 N1208 0.984 . S
H1221 N1208 0.985 . S
C1222 C1223 1.363 . S
C1222 C1228 1.379 . S
C1222 N1230 1.356 . S
C1223 C1222 1.363 . S
C1223 C1229 1.363 . S
C1224 C1225 1.363 . S
C1224 C1229 1.379 . S
C1224 N1231 1.356 . S
C1225 C1224 1.363 . S
C1225 C1228 1.363 . S
N1226 C1228 1.356 . S
N1226 H1238 0.984 . S
N1226 H1239 0.985 . S
N1227 C1229 1.356 . S
N1227 H1232 0.984 . S
N1227 H1233 0.985 . S
C1228 C1222 1.379 . S
C1228 C1225 1.363 . S
C1228 N1226 1.356 . S
C1229 C1223 1.363 . S
C1229 C1224 1.379 . S
C1229 N1227 1.356 . S
N1230 C1222 1.356 . S
N1230 H1236 0.984 . S
N1230 H1237 0.984 . S
N1231 C1224 1.356 . S
N1231 H1234 0.984 . S
N1231 H1235 0.985 . S
H1232 N1227 0.984 . S
H1233 N1227 0.985 . S
H1234 N1231 0.984 . S
H1235 N1231 0.985 . S
H1236 N1230 0.984 . S
H1237 N1230 0.984 . S
H1238 N1226 0.984 . S
H1239 N1226 0.985 . S
C1240 C1241 1.363 . S
C1240 C1246 1.379 1_455 S
C1240 N1248 1.356 . S
C1241 C1240 1.363 . S
C1241 C1247 1.363 1_565 S
C1242 C1243 1.363 . S
C1242 C1247 1.379 1_655 S
C1242 N1249 1.356 . S
C1243 C1242 1.363 . S
C1243 C1246 1.363 1_545 S
N1244 C1246 1.356 . S
N1244 H1256 0.984 . S
N1244 H1257 0.985 1_565 S
N1245 C1247 1.356 . S
N1245 H1250 0.984 1_545 S
N1245 H1251 0.985 . S
C1246 C1240 1.379 1_655 S
C1246 C1243 1.363 1_565 S
C1246 N1244 1.356 . S
C1247 C1241 1.363 1_545 S
C1247 C1242 1.379 1_455 S
C1247 N1245 1.356 . S
N1248 C1240 1.356 . S
N1248 H1254 0.984 . S
N1248 H1255 0.984 . S
N1249 C1242 1.356 . S
N1249 H1252 0.984 . S
N1249 H1253 0.985 . S
H1250 N1245 0.984 1_565 S
H1251 N1245 0.985 . S
H1252 N1249 0.984 . S
H1253 N1249 0.985 . S
H1254 N1248 0.984 . S
H1255 N1248 0.984 . S
H1256 N1244 0.984 . S
H1257 N1244 0.985 1_545 S
C1258 C1259 1.363 . S
C1258 C1264 1.379 . S
C1258 N1266 1.356 . S
C1259 C1258 1.363 . S
C1259 C1265 1.363 1_655 S
C1260 C1261 1.363 . S
C1260 C1265 1.379 . S
C1260 N1267 1.356 . S
C1261 C1260 1.363 . S
C1261 C1264 1.363 1_455 S
N1262 C1264 1.356 . S
N1262 H1274 0.984 . S
N1262 H1275 0.985 1_655 S
N1263 C1265 1.356 . S
N1263 H1268 0.984 1_455 S
N1263 H1269 0.985 . S
C1264 C1258 1.379 . S
C1264 C1261 1.363 1_655 S
C1264 N1262 1.356 . S
C1265 C1259 1.363 1_455 S
C1265 C1260 1.379 . S
C1265 N1263 1.356 . S
N1266 C1258 1.356 . S
N1266 H1272 0.984 . S
N1266 H1273 0.984 . S
N1267 C1260 1.356 . S
N1267 H1270 0.984 . S
N1267 H1271 0.985 . S
H1268 N1263 0.984 1_655 S
H1269 N1263 0.985 . S
H1270 N1267 0.984 . S
H1271 N1267 0.985 . S
H1272 N1266 0.984 . S
H1273 N1266 0.984 . S
H1274 N1262 0.984 . S
H1275 N1262 0.985 1_455 S
C1276 C1277 1.363 . S
C1276 C1282 1.379 . S
C1276 N1284 1.356 . S
C1277 C1276 1.363 . S
C1277 C1283 1.363 1_655 S
C1278 C1279 1.363 . S
C1278 C1283 1.379 . S
C1278 N1285 1.356 . S
C1279 C1278 1.363 . S
C1279 C1282 1.363 1_455 S
N1280 C1282 1.356 . S
N1280 H1292 0.984 . S
N1280 H1293 0.985 . S
N1281 C1283 1.356 . S
N1281 H1286 0.984 . S
N1281 H1287 0.985 . S
C1282 C1276 1.379 . S
C1282 C1279 1.363 1_655 S
C1282 N1280 1.356 . S
C1283 C1277 1.363 1_455 S
C1283 C1278 1.379 . S
C1283 N1281 1.356 . S
N1284 C1276 1.356 . S
N1284 H1290 0.984 . S
N1284 H1291 0.984 . S
N1285 C1278 1.356 . S
N1285 H1288 0.984 . S
N1285 H1289 0.985 . S
H1286 N1281 0.984 . S
H1287 N1281 0.985 . S
H1288 N1285 0.984 . S
H1289 N1285 0.985 . S
H1290 N1284 0.984 . S
H1291 N1284 0.984 . S
H1292 N1280 0.984 . S
H1293 N1280 0.985 . S
C1294 C1295 1.363 1_554 S
C1294 C1300 1.379 1_455 S
C1294 N1302 1.356 . S
C1295 C1294 1.363 1_556 S
C1295 C1301 1.363 . S
C1296 C1297 1.363 1_556 S
C1296 C1301 1.379 1_655 S
C1296 N1303 1.356 . S
C1297 C1296 1.363 1_554 S
C1297 C1300 1.363 . S
N1298 C1300 1.356 . S
N1298 H1310 0.984 . S
N1298 H1311 0.985 . S
N1299 C1301 1.356 . S
N1299 H1304 0.984 . S
N1299 H1305 0.985 . S
C1300 C1294 1.379 1_655 S
C1300 C1297 1.363 . S
C1300 N1298 1.356 . S
C1301 C1295 1.363 . S
C1301 C1296 1.379 1_455 S
C1301 N1299 1.356 . S
N1302 C1294 1.356 . S
N1302 H1308 0.984 . S
N1302 H1309 0.984 1_554 S
N1303 C1296 1.356 . S
N1303 H1306 0.984 1_556 S
N1303 H1307 0.985 . S
H1304 N1299 0.984 . S
H1305 N1299 0.985 . S
H1306 N1303 0.984 1_554 S
H1307 N1303 0.985 . S
H1308 N1302 0.984 . S
H1309 N1302 0.984 1_556 S
H1310 N1298 0.984 . S
H1311 N1298 0.985 . S
C1312 C1313 1.363 . S
C1312 C1318 1.379 . S
C1312 N1320 1.356 . S
C1313 C1312 1.363 . S
C1313 C1319 1.363 . S
C1314 C1315 1.363 . S
C1314 C1319 1.379 . S
C1314 N1321 1.356 . S
C1315 C1314 1.363 . S
C1315 C1318 1.363 . S
N1316 C1318 1.356 . S
N1316 H1328 0.984 . S
N1316 H1329 0.985 . S
N1317 C1319 1.356 . S
N1317 H1322 0.984 . S
N1317 H1323 0.985 . S
C1318 C1312 1.379 . S
C1318 C1315 1.363 . S
C1318 N1316 1.356 . S
C1319 C1313 1.363 . S
C1319 C1314 1.379 . S
C1319 N1317 1.356 . S
N1320 C1312 1.356 . S
N1320 H1326 0.984 . S
N1320 H1327 0.984 . S
N1321 C1314 1.356 . S
N1321 H1324 0.984 . S
N1321 H1325 0.985 . S
H1322 N1317 0.984 . S
H1323 N1317 0.985 . S
H1324 N1321 0.984 . S
H1325 N1321 0.985 . S
H1326 N1320 0.984 . S
H1327 N1320 0.984 . S
H1328 N1316 0.984 . S
H1329 N1316 0.985 . S
C1330 C1331 1.363 . S
C1330 C1336 1.379 . S
C1330 N1338 1.356 . S
C1331 C1330 1.363 . S
C1331 C1337 1.363 . S
C1332 C1333 1.363 . S
C1332 C1337 1.379 . S
C1332 N1339 1.356 . S
C1333 C1332 1.363 . S
C1333 C1336 1.363 . S
N1334 C1336 1.356 . S
N1334 H1346 0.984 . S
N1334 H1347 0.985 . S
N1335 C1337 1.356 . S
N1335 H1340 0.984 . S
N1335 H1341 0.985 . S
C1336 C1330 1.379 . S
C1336 C1333 1.363 . S
C1336 N1334 1.356 . S
C1337 C1331 1.363 . S
C1337 C1332 1.379 . S
C1337 N1335 1.356 . S
N1338 C1330 1.356 . S
N1338 H1344 0.984 . S
N1338 H1345 0.984 . S
N1339 C1332 1.356 . S
N1339 H1342 0.984 . S
N1339 H1343 0.985 . S
H1340 N1335 0.984 . S
H1341 N1335 0.985 . S
H1342 N1339 0.984 . S
H1343 N1339 0.985 . S
H1344 N1338 0.984 . S
H1345 N1338 0.984 . S
H1346 N1334 0.984 . S
H1347 N1334 0.985 . S
C1348 C1349 1.363 . S
C1348 C1354 1.379 . S
C1348 N1356 1.356 . S
C1349 C1348 1.363 . S
C1349 C1355 1.363 . S
C1350 C1351 1.363 . S
C1350 C1355 1.379 . S
C1350 N1357 1.356 . S
C1351 C1350 1.363 . S
C1351 C1354 1.363 . S
N1352 C1354 1.356 . S
N1352 H1364 0.984 . S
N1352 H1365 0.985 . S
N1353 C1355 1.356 . S
N1353 H1358 0.984 . S
N1353 H1359 0.985 . S
C1354 C1348 1.379 . S
C1354 C1351 1.363 . S
C1354 N1352 1.356 . S
C1355 C1349 1.363 . S
C1355 C1350 1.379 . S
C1355 N1353 1.356 . S
N1356 C1348 1.356 . S
N1356 H1362 0.984 . S
N1356 H1363 0.984 . S
N1357 C1350 1.356 . S
N1357 H1360 0.984 . S
N1357 H1361 0.985 . S
H1358 N1353 0.984 . S
H1359 N1353 0.985 . S
H1360 N1357 0.984 . S
H1361 N1357 0.985 . S
H1362 N1356 0.984 . S
H1363 N1356 0.984 . S
H1364 N1352 0.984 . S
H1365 N1352 0.985 . S
C1366 C1367 1.363 . S
C1366 C1372 1.379 . S
C1366 N1374 1.356 . S
C1367 C1366 1.363 . S
C1367 C1373 1.363 . S
C1368 C1369 1.363 . S
C1368 C1373 1.379 . S
C1368 N1375 1.356 . S
C1369 C1368 1.363 . S
C1369 C1372 1.363 . S
N1370 C1372 1.356 . S
N1370 H1382 0.984 . S
N1370 H1383 0.985 . S
N1371 C1373 1.356 . S
N1371 H1376 0.984 . S
N1371 H1377 0.985 . S
C1372 C1366 1.379 . S
C1372 C1369 1.363 . S
C1372 N1370 1.356 . S
C1373 C1367 1.363 . S
C1373 C1368 1.379 . S
C1373 N1371 1.356 . S
N1374 C1366 1.356 . S
N1374 H1380 0.984 . S
N1374 H1381 0.984 . S
N1375 C1368 1.356 . S
N1375 H1378 0.984 . S
N1375 H1379 0.985 . S
H1376 N1371 0.984 . S
H1377 N1371 0.985 . S
H1378 N1375 0.984 . S
H1379 N1375 0.985 . S
H1380 N1374 0.984 . S
H1381 N1374 0.984 . S
H1382 N1370 0.984 . S
H1383 N1370 0.985 . S
C1384 C1385 1.363 . S
C1384 C1390 1.379 . S
C1384 N1392 1.356 . S
C1385 C1384 1.363 . S
C1385 C1391 1.363 . S
C1386 C1387 1.363 . S
C1386 C1391 1.379 . S
C1386 N1393 1.356 . S
C1387 C1386 1.363 . S
C1387 C1390 1.363 . S
N1388 C1390 1.356 . S
N1388 H1400 0.984 . S
N1388 H1401 0.985 . S
N1389 C1391 1.356 . S
N1389 H1394 0.984 . S
N1389 H1395 0.985 . S
C1390 C1384 1.379 . S
C1390 C1387 1.363 . S
C1390 N1388 1.356 . S
C1391 C1385 1.363 . S
C1391 C1386 1.379 . S
C1391 N1389 1.356 . S
N1392 C1384 1.356 . S
N1392 H1398 0.984 . S
N1392 H1399 0.984 . S
N1393 C1386 1.356 . S
N1393 H1396 0.984 . S
N1393 H1397 0.985 . S
H1394 N1389 0.984 . S
H1395 N1389 0.985 . S
H1396 N1393 0.984 . S
H1397 N1393 0.985 . S
H1398 N1392 0.984 . S
H1399 N1392 0.984 . S
H1400 N1388 0.984 . S
H1401 N1388 0.985 . S
C1402 C1403 1.363 . S
C1402 C1408 1.379 . S
C1402 N1410 1.356 . S
C1403 C1402 1.363 . S
C1403 C1409 1.363 . S
C1404 C1405 1.363 . S
C1404 C1409 1.379 . S
C1404 N1411 1.356 . S
C1405 C1404 1.363 . S
C1405 C1408 1.363 . S
N1406 C1408 1.356 . S
N1406 H1418 0.984 . S
N1406 H1419 0.985 . S
N1407 C1409 1.356 . S
N1407 H1412 0.984 . S
N1407 H1413 0.985 . S
C1408 C1402 1.379 . S
C1408 C1405 1.363 . S
C1408 N1406 1.356 . S
C1409 C1403 1.363 . S
C1409 C1404 1.379 . S
C1409 N1407 1.356 . S
N1410 C1402 1.356 . S
N1410 H1416 0.984 . S
N1410 H1417 0.984 . S
N1411 C1404 1.356 . S
N1411 H1414 0.984 . S
N1411 H1415 0.985 . S
H1412 N1407 0.984 . S
H1413 N1407 0.985 . S
H1414 N1411 0.984 . S
H1415 N1411 0.985 . S
H1416 N1410 0.984 . S
H1417 N1410 0.984 . S
H1418 N1406 0.984 . S
H1419 N1406 0.985 . S
C1420 C1421 1.363 . S
C1420 C1426 1.379 . S
C1420 N1428 1.356 . S
C1421 C1420 1.363 . S
C1421 C1427 1.363 . S
C1422 C1423 1.363 . S
C1422 C1427 1.379 . S
C1422 N1429 1.356 . S
C1423 C1422 1.363 . S
C1423 C1426 1.363 . S
N1424 C1426 1.356 . S
N1424 H1436 0.984 . S
N1424 H1437 0.985 . S
N1425 C1427 1.356 . S
N1425 H1430 0.984 . S
N1425 H1431 0.985 . S
C1426 C1420 1.379 . S
C1426 C1423 1.363 . S
C1426 N1424 1.356 . S
C1427 C1421 1.363 . S
C1427 C1422 1.379 . S
C1427 N1425 1.356 . S
N1428 C1420 1.356 . S
N1428 H1434 0.984 . S
N1428 H1435 0.984 . S
N1429 C1422 1.356 . S
N1429 H1432 0.984 . S
N1429 H1433 0.985 . S
H1430 N1425 0.984 . S
H1431 N1425 0.985 . S
H1432 N1429 0.984 . S
H1433 N1429 0.985 . S
H1434 N1428 0.984 . S
H1435 N1428 0.984 . S
H1436 N1424 0.984 . S
H1437 N1424 0.985 . S
C1438 C1439 1.363 . S
C1438 C1444 1.379 . S
C1438 N1446 1.356 . S
C1439 C1438 1.363 . S
C1439 C1445 1.363 . S
C1440 C1441 1.363 . S
C1440 C1445 1.379 . S
C1440 N1447 1.356 . S
C1441 C1440 1.363 . S
C1441 C1444 1.363 . S
N1442 C1444 1.356 . S
N1442 H1454 0.984 . S
N1442 H1455 0.985 . S
N1443 C1445 1.356 . S
N1443 H1448 0.984 . S
N1443 H1449 0.985 . S
C1444 C1438 1.379 . S
C1444 C1441 1.363 . S
C1444 N1442 1.356 . S
C1445 C1439 1.363 . S
C1445 C1440 1.379 . S
C1445 N1443 1.356 . S
N1446 C1438 1.356 . S
N1446 H1452 0.984 . S
N1446 H1453 0.984 . S
N1447 C1440 1.356 . S
N1447 H1450 0.984 . S
N1447 H1451 0.985 . S
H1448 N1443 0.984 . S
H1449 N1443 0.985 . S
H1450 N1447 0.984 . S
H1451 N1447 0.985 . S
H1452 N1446 0.984 . S
H1453 N1446 0.984 . S
H1454 N1442 0.984 . S
H1455 N1442 0.985 . S
C1456 C1457 1.363 . S
C1456 C1462 1.379 . S
C1456 N1464 1.356 . S
C1457 C1456 1.363 . S
C1457 C1463 1.363 . S
C1458 C1459 1.363 . S
C1458 C1463 1.379 . S
C1458 N1465 1.356 . S
C1459 C1458 1.363 . S
C1459 C1462 1.363 . S
N1460 C1462 1.356 . S
N1460 H1472 0.984 . S
N1460 H1473 0.985 . S
N1461 C1463 1.356 . S
N1461 H1466 0.984 . S
N1461 H1467 0.985 . S
C1462 C1456 1.379 . S
C1462 C1459 1.363 . S
C1462 N1460 1.356 . S
C1463 C1457 1.363 . S
C1463 C1458 1.379 . S
C1463 N1461 1.356 . S
N1464 C1456 1.356 . S
N1464 H1470 0.984 . S
N1464 H1471 0.984 . S
N1465 C1458 1.356 . S
N1465 H1468 0.984 . S
N1465 H1469 0.985 . S
H1466 N1461 0.984 . S
H1467 N1461 0.985 . S
H1468 N1465 0.984 . S
H1469 N1465 0.985 . S
H1470 N1464 0.984 . S
H1471 N1464 0.984 . S
H1472 N1460 0.984 . S
H1473 N1460 0.985 . S
C1474 C1475 1.363 . S
C1474 C1480 1.379 . S
C1474 N1482 1.356 . S
C1475 C1474 1.363 . S
C1475 C1481 1.363 . S
C1476 C1477 1.363 . S
C1476 C1481 1.379 . S
C1476 N1483 1.356 . S
C1477 C1476 1.363 . S
C1477 C1480 1.363 . S
N1478 C1480 1.356 . S
N1478 H1490 0.984 . S
N1478 H1491 0.985 . S
N1479 C1481 1.356 . S
N1479 H1484 0.984 . S
N1479 H1485 0.985 . S
C1480 C1474 1.379 . S
C1480 C1477 1.363 . S
C1480 N1478 1.356 . S
C1481 C1475 1.363 . S
C1481 C1476 1.379 . S
C1481 N1479 1.356 . S
N1482 C1474 1.356 . S
N1482 H1488 0.984 . S
N1482 H1489 0.984 . S
N1483 C1476 1.356 . S
N1483 H1486 0.984 . S
N1483 H1487 0.985 . S
H1484 N1479 0.984 . S
H1485 N1479 0.985 . S
H1486 N1483 0.984 . S
H1487 N1483 0.985 . S
H1488 N1482 0.984 . S
H1489 N1482 0.984 . S
H1490 N1478 0.984 . S
H1491 N1478 0.985 . S
C1492 C1493 1.363 . S
C1492 C1498 1.379 . S
C1492 N1500 1.356 . S
C1493 C1492 1.363 . S
C1493 C1499 1.363 . S
C1494 C1495 1.363 . S
C1494 C1499 1.379 . S
C1494 N1501 1.356 . S
C1495 C1494 1.363 . S
C1495 C1498 1.363 . S
N1496 C1498 1.356 . S
N1496 H1508 0.984 . S
N1496 H1509 0.985 . S
N1497 C1499 1.356 . S
N1497 H1502 0.984 . S
N1497 H1503 0.985 . S
C1498 C1492 1.379 . S
C1498 C1495 1.363 . S
C1498 N1496 1.356 . S
C1499 C1493 1.363 . S
C1499 C1494 1.379 . S
C1499 N1497 1.356 . S
N1500 C1492 1.356 . S
N1500 H1506 0.984 . S
N1500 H1507 0.984 . S
N1501 C1494 1.356 . S
N1501 H1504 0.984 . S
N1501 H1505 0.985 . S
H1502 N1497 0.984 . S
H1503 N1497 0.985 . S
H1504 N1501 0.984 . S
H1505 N1501 0.985 . S
H1506 N1500 0.984 . S
H1507 N1500 0.984 . S
H1508 N1496 0.984 . S
H1509 N1496 0.985 . S
C1510 C1511 1.363 . S
C1510 C1516 1.379 . S
C1510 N1518 1.356 . S
C1511 C1510 1.363 . S
C1511 C1517 1.363 . S
C1512 C1513 1.363 . S
C1512 C1517 1.379 . S
C1512 N1519 1.356 . S
C1513 C1512 1.363 . S
C1513 C1516 1.363 . S
N1514 C1516 1.356 . S
N1514 H1526 0.984 . S
N1514 H1527 0.985 . S
N1515 C1517 1.356 . S
N1515 H1520 0.984 . S
N1515 H1521 0.985 . S
C1516 C1510 1.379 . S
C1516 C1513 1.363 . S
C1516 N1514 1.356 . S
C1517 C1511 1.363 . S
C1517 C1512 1.379 . S
C1517 N1515 1.356 . S
N1518 C1510 1.356 . S
N1518 H1524 0.984 . S
N1518 H1525 0.984 . S
N1519 C1512 1.356 . S
N1519 H1522 0.984 . S
N1519 H1523 0.985 . S
H1520 N1515 0.984 . S
H1521 N1515 0.985 . S
H1522 N1519 0.984 . S
H1523 N1519 0.985 . S
H1524 N1518 0.984 . S
H1525 N1518 0.984 . S
H1526 N1514 0.984 . S
H1527 N1514 0.985 . S
C1528 C1529 1.363 . S
C1528 C1534 1.379 . S
C1528 N1536 1.356 . S
C1529 C1528 1.363 . S
C1529 C1535 1.363 . S
C1530 C1531 1.363 . S
C1530 C1535 1.379 . S
C1530 N1537 1.356 . S
C1531 C1530 1.363 . S
C1531 C1534 1.363 . S
N1532 C1534 1.356 . S
N1532 H1544 0.984 . S
N1532 H1545 0.985 . S
N1533 C1535 1.356 . S
N1533 H1538 0.984 . S
N1533 H1539 0.985 . S
C1534 C1528 1.379 . S
C1534 C1531 1.363 . S
C1534 N1532 1.356 . S
C1535 C1529 1.363 . S
C1535 C1530 1.379 . S
C1535 N1533 1.356 . S
N1536 C1528 1.356 . S
N1536 H1542 0.984 . S
N1536 H1543 0.984 . S
N1537 C1530 1.356 . S
N1537 H1540 0.984 . S
N1537 H1541 0.985 . S
H1538 N1533 0.984 . S
H1539 N1533 0.985 . S
H1540 N1537 0.984 . S
H1541 N1537 0.985 . S
H1542 N1536 0.984 . S
H1543 N1536 0.984 . S
H1544 N1532 0.984 . S
H1545 N1532 0.985 . S
C1546 C1547 1.363 . S
C1546 C1552 1.379 . S
C1546 N1554 1.356 . S
C1547 C1546 1.363 . S
C1547 C1553 1.363 . S
C1548 C1549 1.363 . S
C1548 C1553 1.379 . S
C1548 N1555 1.356 . S
C1549 C1548 1.363 . S
C1549 C1552 1.363 . S
N1550 C1552 1.356 . S
N1550 H1562 0.984 . S
N1550 H1563 0.985 . S
N1551 C1553 1.356 . S
N1551 H1556 0.984 . S
N1551 H1557 0.985 . S
C1552 C1546 1.379 . S
C1552 C1549 1.363 . S
C1552 N1550 1.356 . S
C1553 C1547 1.363 . S
C1553 C1548 1.379 . S
C1553 N1551 1.356 . S
N1554 C1546 1.356 . S
N1554 H1560 0.984 . S
N1554 H1561 0.984 . S
N1555 C1548 1.356 . S
N1555 H1558 0.984 . S
N1555 H1559 0.985 . S
H1556 N1551 0.984 . S
H1557 N1551 0.985 . S
H1558 N1555 0.984 . S
H1559 N1555 0.985 . S
H1560 N1554 0.984 . S
H1561 N1554 0.984 . S
H1562 N1550 0.984 . S
H1563 N1550 0.985 . S
C1564 C1565 1.363 . S
C1564 C1570 1.379 . S
C1564 N1572 1.356 . S
C1565 C1564 1.363 . S
C1565 C1571 1.363 . S
C1566 C1567 1.363 . S
C1566 C1571 1.379 . S
C1566 N1573 1.356 . S
C1567 C1566 1.363 . S
C1567 C1570 1.363 . S
N1568 C1570 1.356 . S
N1568 H1580 0.984 . S
N1568 H1581 0.985 . S
N1569 C1571 1.356 . S
N1569 H1574 0.984 . S
N1569 H1575 0.985 . S
C1570 C1564 1.379 . S
C1570 C1567 1.363 . S
C1570 N1568 1.356 . S
C1571 C1565 1.363 . S
C1571 C1566 1.379 . S
C1571 N1569 1.356 . S
N1572 C1564 1.356 . S
N1572 H1578 0.984 . S
N1572 H1579 0.984 . S
N1573 C1566 1.356 . S
N1573 H1576 0.984 . S
N1573 H1577 0.985 . S
H1574 N1569 0.984 . S
H1575 N1569 0.985 . S
H1576 N1573 0.984 . S
H1577 N1573 0.985 . S
H1578 N1572 0.984 . S
H1579 N1572 0.984 . S
H1580 N1568 0.984 . S
H1581 N1568 0.985 . S
C1582 C1583 1.363 . S
C1582 C1588 1.379 . S
C1582 N1590 1.356 . S
C1583 C1582 1.363 . S
C1583 C1589 1.363 . S
C1584 C1585 1.363 . S
C1584 C1589 1.379 . S
C1584 N1591 1.356 . S
C1585 C1584 1.363 . S
C1585 C1588 1.363 . S
N1586 C1588 1.356 . S
N1586 H1598 0.984 . S
N1586 H1599 0.985 . S
N1587 C1589 1.356 . S
N1587 H1592 0.984 . S
N1587 H1593 0.985 . S
C1588 C1582 1.379 . S
C1588 C1585 1.363 . S
C1588 N1586 1.356 . S
C1589 C1583 1.363 . S
C1589 C1584 1.379 . S
C1589 N1587 1.356 . S
N1590 C1582 1.356 . S
N1590 H1596 0.984 . S
N1590 H1597 0.984 . S
N1591 C1584 1.356 . S
N1591 H1594 0.984 . S
N1591 H1595 0.985 . S
H1592 N1587 0.984 . S
H1593 N1587 0.985 . S
H1594 N1591 0.984 . S
H1595 N1591 0.985 . S
H1596 N1590 0.984 . S
H1597 N1590 0.984 . S
H1598 N1586 0.984 . S
H1599 N1586 0.985 . S
C449 C7 1.852 . S
C451 C35 1.853 . S
C467 C49 1.854 . S
C469 C21 1.854 . S
C485 C91 1.853 . S
C487 C63 1.852 . S
C503 C105 1.854 . S
C505 C77 1.854 . S
C521 C119 1.853 . S
C523 C147 1.854 . S
C539 C161 1.853 . S
C541 C133 1.854 . S
C557 C175 1.853 . S
C559 C203 1.854 . S
C575 C217 1.853 . S
C577 C189 1.853 . S
C593 C231 1.853 . S
C595 C259 1.854 . S
C611 C245 1.853 . S
C613 C273 1.853 . S
C629 C315 1.854 . S
C631 C287 1.853 . S
C647 C301 1.853 . S
C649 C329 1.853 . S
C665 C371 1.853 . S
C667 C343 1.852 . S
C683 C385 1.854 . S
C685 C357 1.854 . S
C701 C427 1.853 . S
C703 C399 1.852 . S
C719 C413 1.854 . S
C721 C441 1.854 . S
C737 C356 1.274 . S
C739 C6 1.274 . S
C755 C20 1.274 . S
C757 C342 1.274 . S
C773 C34 1.274 . S
C775 C384 1.274 . S
C791 C48 1.274 . S
C793 C370 1.274 . S
C809 C412 1.274 . S
C811 C62 1.274 . S
C827 C76 1.274 . S
C829 C398 1.274 . S
C845 C90 1.274 . S
C847 C440 1.274 . S
C863 C426 1.274 . S
C865 C104 1.274 . S
C881 C118 1.274 . S
C883 C244 1.274 . S
C899 C132 1.274 . S
C901 C230 1.274 . S
C917 C146 1.274 . S
C919 C272 1.274 . S
C935 C160 1.274 . S
C937 C258 1.274 . S
C953 C174 1.274 . S
C955 C300 1.274 . S
C971 C286 1.274 . S
C973 C188 1.274 . S
C989 C328 1.274 . S
C991 C202 1.274 . S
C1007 C216 1.274 . S
C1009 C314 1.274 . S
C1025 C8 1.488 . S
C1027 C64 1.488 . S
C1043 C22 1.485 . S
C1045 C414 1.485 . S
C1061 C36 1.484 . S
C1063 C204 1.483 . S
C1079 C50 1.490 . S
C1081 C330 1.490 . S
C1097 C78 1.485 . S
C1099 C358 1.485 . S
C1115 C148 1.483 . S
C1117 C92 1.484 . S
C1133 C274 1.490 . S
C1135 C106 1.490 . S
C1151 C176 1.490 . S
C1153 C120 1.490 . S
C1169 C134 1.483 . S
C1171 C302 1.483 . S
C1187 C442 1.490 . S
C1189 C162 1.490 . S
C1205 C190 1.483 . S
C1207 C246 1.483 . S
C1223 C218 1.490 . S
C1225 C386 1.490 . S
C1241 C288 1.490 . S
C1243 C232 1.490 . S
C1259 C260 1.484 . S
C1261 C428 1.484 . S
C1277 C372 1.484 . S
C1279 C316 1.484 . S
C1295 C400 1.488 . S
C1297 C344 1.488 . S
C1313 C9 1.567 . S
C1315 C23 1.567 . S
C1331 C37 1.567 . S
C1333 C51 1.567 . S
C1349 C65 1.567 . S
C1351 C79 1.567 . S
C1367 C93 1.567 . S
C1369 C107 1.567 . S
C1385 C135 1.567 . S
C1387 C121 1.567 . S
C1403 C149 1.567 . S
C1405 C163 1.567 . S
C1421 C177 1.567 . S
C1423 C191 1.567 . S
C1439 C205 1.567 . S
C1441 C219 1.567 . S
C1457 C233 1.567 . S
C1459 C247 1.567 . S
C1475 C275 1.567 . S
C1477 C261 1.567 . S
C1493 C289 1.567 . S
C1495 C303 1.567 . S
C1511 C317 1.567 . S
C1513 C331 1.567 . S
C1529 C359 1.567 . S
C1531 C345 1.567 . S
C1547 C373 1.567 . S
C1549 C387 1.567 . S
C1565 C415 1.567 . S
C1567 C401 1.567 . S
C1583 C429 1.567 . S
C1585 C443 1.567 . S
