# Generated by pormake.
# Topology afw, (4)-cn, num edge types: 1
# Building blocks:
#     Node 0, Type 0, BuildingBlock: NAHDIM_clean_sbu_0, # of connection points: 4
#     Node 1, Type 0, BuildingBlock: NAHDIM_clean_sbu_0, # of connection points: 4
#     Node 2, Type 0, BuildingBlock: NAHDIM_clean_sbu_0, # of connection points: 4
#     Node 3, Type 0, BuildingBlock: NAHDIM_clean_sbu_0, # of connection points: 4
#     Node 4, Type 0, BuildingBlock: NAHDIM_clean_sbu_0, # of connection points: 4
#     Node 5, Type 0, BuildingBlock: NAHDIM_clean_sbu_0, # of connection points: 4
#     Node 6, Type 0, BuildingBlock: NAHDIM_clean_sbu_0, # of connection points: 4
#     Node 7, Type 0, BuildingBlock: NAHDIM_clean_sbu_0, # of connection points: 4
#     Node 8, Type 0, BuildingBlock: NAHDIM_clean_sbu_0, # of connection points: 4
#     Edge 9, Type (0, 0), BuildingBlock: EZIPEK_clean_linker_0, # of connection points: 2
#     Edge 10, Type (0, 0), BuildingBlock: EZIPEK_clean_linker_0, # of connection points: 2
#     Edge 11, Type (0, 0), BuildingBlock: EZIPEK_clean_linker_0, # of connection points: 2
#     Edge 12, Type (0, 0), BuildingBlock: EZIPEK_clean_linker_0, # of connection points: 2
#     Edge 13, Type (0, 0), BuildingBlock: EZIPEK_clean_linker_0, # of connection points: 2
#     Edge 14, Type (0, 0), BuildingBlock: EZIPEK_clean_linker_0, # of connection points: 2
#     Edge 15, Type (0, 0), BuildingBlock: EZIPEK_clean_linker_0, # of connection points: 2
#     Edge 16, Type (0, 0), BuildingBlock: EZIPEK_clean_linker_0, # of connection points: 2
#     Edge 17, Type (0, 0), BuildingBlock: EZIPEK_clean_linker_0, # of connection points: 2
#     Edge 18, Type (0, 0), BuildingBlock: EZIPEK_clean_linker_0, # of connection points: 2
#     Edge 19, Type (0, 0), BuildingBlock: EZIPEK_clean_linker_0, # of connection points: 2
#     Edge 20, Type (0, 0), BuildingBlock: EZIPEK_clean_linker_0, # of connection points: 2
#     Edge 21, Type (0, 0), BuildingBlock: EZIPEK_clean_linker_0, # of connection points: 2
#     Edge 22, Type (0, 0), BuildingBlock: EZIPEK_clean_linker_0, # of connection points: 2
#     Edge 23, Type (0, 0), BuildingBlock: EZIPEK_clean_linker_0, # of connection points: 2
#     Edge 24, Type (0, 0), BuildingBlock: EZIPEK_clean_linker_0, # of connection points: 2
#     Edge 25, Type (0, 0), BuildingBlock: EZIPEK_clean_linker_0, # of connection points: 2
#     Edge 26, Type (0, 0), BuildingBlock: EZIPEK_clean_linker_0, # of connection points: 2
# Relax obj value: 0.262
# Max RMSD: 0.265
# Mean RMSD: 0.246
data_MOF--net-afw--node1-NAHDIM_clean_sbu_0--edge1-EZIPEK_clean_linker_0
_symmetry_space_group_name_H-M    P1
_symmetry_Int_Tables_number       1
_symmetry_cell_setting            triclinic
loop_
_symmetry_equiv_pos_as_xyz
'x, y, z'
_cell_length_a     29.062955
_cell_length_b     30.296083
_cell_length_c     26.425661
_cell_angle_alpha  92.594872
_cell_angle_beta   90.695652
_cell_angle_gamma 118.84485
loop_
_atom_site_label
_atom_site_type_symbol
_atom_site_fract_x
_atom_site_fract_y
_atom_site_fract_z
_atom_type_partial_charge
C0 C 0.02311 0.29124 0.90908 0.0
O1 O 0.04651 0.31115 0.95345 0.0
O2 O 0.04672 0.18455 0.96096 0.0
Zn3 Zn 0.98614 0.19962 0.96015 0.0
O4 O 0.97845 0.22871 0.02703 0.0
C5 C 0.9237 0.10117 -0.0179 0.0
O6 O 0.96175 0.11896 0.01719 0.0
O7 O -0.00666 0.24383 0.90297 0.0
C8 C 0.01466 0.25422 0.06031 0.0
O9 O 0.06367 0.26692 0.05118 0.0
C10 C 0.09615 0.21204 0.95866 0.0
O11 O 0.11717 0.26127 0.95768 0.0
O12 O 0.92231 0.13114 0.95071 0.0
C13 C 0.79432 0.76102 0.1096 0.0
O14 O 0.84386 0.79612 0.11062 0.0
O15 O 0.8732 0.79874 0.00897 0.0
Zn16 Zn 0.79833 0.78661 0.00667 0.0
O17 O 0.75411 0.73977 0.94828 0.0
C18 C 0.83369 0.88895 -0.01922 0.0
O19 O 0.86594 0.87944 0.95404 0.0
O20 O 0.76592 0.75164 0.06952 0.0
C21 C 0.75252 0.75512 0.90477 0.0
O22 O 0.78344 0.80237 0.89536 0.0
C23 C 0.90253 0.80487 0.97178 0.0
O24 O 0.88278 0.79795 0.92531 0.0
O25 O 0.7989 0.85416 0.00574 0.0
C26 C 0.2701 0.96588 0.91607 0.0
O27 O 0.27496 0.95154 0.96106 0.0
O28 O 0.1448 0.95396 -0.01899 0.0
Zn29 Zn 0.21857 0.00956 0.97227 0.0
O30 O 0.26593 0.02073 0.03221 0.0
C31 C 0.17415 0.07192 0.9465 0.0
O32 O 0.13653 0.02887 0.92654 0.0
O33 O 0.24761 0.99252 0.911 0.0
C34 C 0.25099 0.02181 0.07686 0.0
O35 O 0.20251 0.01221 0.08416 0.0
C36 C 0.12844 0.90723 -0.0142 0.0
O37 O 0.16199 0.88999 -0.01107 0.0
O38 O 0.21527 0.0739 0.96604 0.0
C39 C 0.72212 0.61996 0.26719 0.0
O40 O 0.73768 0.63753 0.31416 0.0
O41 O 0.73868 0.50629 0.31587 0.0
Zn42 Zn 0.6824 0.52655 0.31379 0.0
O43 O 0.67947 0.56192 0.37855 0.0
C44 C 0.60927 0.4245 0.32637 0.0
O45 O 0.65056 0.42861 0.35134 0.0
O46 O 0.69623 0.5726 0.25699 0.0
C47 C 0.67856 0.54499 0.42176 0.0
O48 O 0.68399 0.50479 0.42598 0.0
C49 C 0.78769 0.53247 0.32604 0.0
O50 O 0.80857 0.58084 0.33902 0.0
O51 O 0.61237 0.4624 0.30458 0.0
C52 C 0.45579 0.1188 0.43381 0.0
O53 O 0.49441 0.16555 0.43735 0.0
O54 O 0.54049 0.12559 0.32208 0.0
Zn55 Zn 0.47139 0.12557 0.32595 0.0
O56 O 0.4198 0.08476 0.26915 0.0
C57 C 0.4609 0.21897 0.33593 0.0
O58 O 0.41289 0.19179 0.35124 0.0
O59 O 0.43916 0.09584 0.39067 0.0
C60 C 0.41852 0.10603 0.22934 0.0
O61 O 0.45329 0.15342 0.22431 0.0
C62 C 0.57344 0.15387 0.29109 0.0
O63 O 0.55914 0.17679 0.25847 0.0
O64 O 0.48894 0.19848 0.32493 0.0
C65 C -0.00571 0.37149 0.39048 0.0
O66 O 0.00532 0.40118 0.35262 0.0
O67 O 0.88878 0.38224 0.33812 0.0
Zn68 Zn 0.90228 0.32317 0.33154 0.0
O69 O 0.93642 0.32269 0.2665 0.0
C70 C 0.7973 0.25636 0.30209 0.0
O71 O 0.81124 0.2882 0.26596 0.0
O72 O 0.9502 0.33152 0.39014 0.0
C73 C 0.93471 0.28178 0.2506 0.0
O74 O 0.91127 0.24166 0.2772 0.0
C75 C 0.88309 0.40513 0.3015 0.0
O76 O 0.88972 0.39284 0.25491 0.0
O77 O 0.83177 0.26066 0.33487 0.0
C78 C 0.36625 0.97974 0.59018 0.0
O79 O 0.3411 0.98352 0.62967 0.0
O80 O 0.40505 0.86229 0.63487 0.0
Zn81 Zn 0.35582 0.89126 0.63654 0.0
O82 O 0.35688 0.9228 0.705 0.0
C83 C 0.27526 0.79562 0.59466 0.0
O84 O 0.31428 0.80055 0.56653 0.0
O85 O 0.37547 0.94289 0.58467 0.0
C86 C 0.33404 0.89334 0.73996 0.0
O87 O 0.31418 0.84442 0.7311 0.0
C88 C 0.43968 0.87029 0.66906 0.0
O89 O 0.44792 0.90239 0.70765 0.0
O90 O 0.28297 0.83236 0.62504 0.0
C91 C 0.08839 0.4142 0.73591 0.0
O92 O 0.08544 0.39063 0.69205 0.0
O93 O 0.21975 0.50689 0.67894 0.0
Zn94 Zn 0.14623 0.49677 0.67624 0.0
O95 O 0.10538 0.45448 0.61438 0.0
C96 C 0.18837 0.59567 0.64324 0.0
O97 O 0.2219 0.58215 0.62523 0.0
O98 O 0.11146 0.46218 0.73926 0.0
C99 C 0.1258 0.45838 0.57151 0.0
O100 O 0.17623 0.48873 0.56707 0.0
C101 C 0.23499 0.47473 0.66903 0.0
O102 O 0.20097 0.42786 0.6548 0.0
O103 O 0.15078 0.56517 0.66927 0.0
C104 C 0.6101 0.61941 0.59275 0.0
O105 O 0.60288 0.59654 0.63524 0.0
O106 O 0.49084 0.59841 0.65228 0.0
Zn107 Zn 0.55881 0.66271 0.64701 0.0
O108 O 0.60578 0.68044 0.70912 0.0
C109 C 0.53835 0.74447 0.67297 0.0
O110 O 0.55269 0.73889 0.71849 0.0
O111 O 0.59476 0.65181 0.58794 0.0
C112 C 0.60051 0.65001 0.74283 0.0
O113 O 0.56188 0.60333 0.73896 0.0
C114 C 0.45683 0.59688 0.68281 0.0
O115 O 0.4693 0.63482 0.71606 0.0
O116 O 0.54027 0.71779 0.63537 0.0
C117 C 0.1674 0.14343 0.9098 0.0
C118 C 0.165 0.11577 0.95247 0.0
C119 C 0.12906 0.16107 0.00294 0.0
C120 C 0.12914 0.18707 0.95957 0.0
N121 N 0.15981 0.21305 0.87616 0.0
N122 N 0.15386 0.10426 0.04213 0.0
C123 C 0.15238 0.1817 0.91445 0.0
C124 C 0.14951 0.12686 1e-05 0.0
N125 N 0.18244 0.13185 0.86448 0.0
N126 N 0.10765 0.16803 0.04637 0.0
H127 H 0.16626 0.07721 0.04109 0.0
H128 H 0.14845 0.11435 0.07883 0.0
H129 H 0.09621 0.19568 0.05083 0.0
H130 H 0.09966 0.14578 0.07735 0.0
H131 H 0.1792 0.14609 0.83032 0.0
H132 H 0.19615 0.10581 0.86054 0.0
H133 H 0.18042 0.21416 0.8439 0.0
H134 H 0.14929 0.24139 0.87861 0.0
C135 C 0.84649 0.96317 0.9342 0.0
C136 C 0.83979 0.94048 -0.01881 0.0
C137 C 0.86603 0.02251 0.02483 0.0
C138 C 0.88569 0.04632 -0.02104 0.0
N139 N 0.89767 0.03785 0.88894 0.0
N140 N 0.84553 0.94975 0.07292 0.0
C141 C 0.87582 0.01642 0.93298 0.0
C142 C 0.84902 0.97015 0.02714 0.0
N143 N 0.82505 0.93361 0.89069 0.0
N144 N 0.86388 0.05012 0.06616 0.0
H145 H 0.83371 0.91178 0.07692 0.0
H146 H 0.85816 0.97148 0.10704 0.0
H147 H 0.87488 0.08834 0.06499 0.0
H148 H 0.84589 0.03395 0.09937 0.0
H149 H 0.82497 0.94826 0.85577 0.0
H150 H 0.80198 0.89452 0.89098 0.0
H151 H 0.89636 0.01664 0.85624 0.0
H152 H 0.92096 0.07645 0.88565 0.0
C153 C 0.9873 0.80527 0.95281 0.0
C154 C 0.96012 0.82603 -0.01919 0.0
C155 C 0.04333 0.88731 0.02383 0.0
C156 C 0.07109 0.87339 -0.01124 0.0
N157 N 0.06941 0.82094 0.91628 0.0
N158 N 0.96515 0.89379 0.03769 0.0
C159 C 0.04316 0.83242 0.95257 0.0
C160 C 0.98869 0.86859 0.01543 0.0
N161 N 0.95989 0.75909 0.92747 0.0
N162 N 0.06925 0.91824 0.06554 0.0
H163 H 0.92597 0.88406 0.03122 0.0
H164 H 0.98617 0.92809 0.05863 0.0
H165 H 0.10907 0.93105 0.07356 0.0
H166 H 0.05006 0.92604 0.09483 0.0
H167 H 0.97796 0.7401 0.91035 0.0
H168 H 0.91909 0.73738 0.92824 0.0
H169 H 0.05045 0.79548 0.88542 0.0
H170 H 0.11022 0.83942 0.91479 0.0
C171 C 0.88708 0.48909 0.29046 0.0
C172 C 0.86242 0.44081 0.31103 0.0
C173 C 0.80117 0.46227 0.35381 0.0
C174 C 0.81939 0.50617 0.32616 0.0
N175 N 0.87694 0.55946 0.26365 0.0
N176 N 0.78792 0.3775 0.35357 0.0
C177 C 0.862 0.51949 0.29353 0.0
C178 C 0.81746 0.42634 0.3407 0.0
N179 N 0.93497 0.50649 0.26926 0.0
N180 N 0.76868 0.45517 0.39311 0.0
H181 H 0.79574 0.34865 0.34166 0.0
H182 H 0.75201 0.36444 0.37096 0.0
H183 H 0.75793 0.4821 0.40503 0.0
H184 H 0.75773 0.42574 0.41727 0.0
H185 H 0.95698 0.54328 0.25808 0.0
H186 H 0.95506 0.48578 0.26745 0.0
H187 H 0.90357 0.56712 0.23494 0.0
H188 H 0.85993 0.58287 0.26495 0.0
C189 C 0.50447 0.30576 0.37844 0.0
C190 C 0.48477 0.27427 0.33346 0.0
C191 C 0.5377 0.3455 0.28189 0.0
C192 C 0.55947 0.37644 0.32701 0.0
N193 N 0.55233 0.39125 0.41611 0.0
N194 N 0.46843 0.26663 0.24333 0.0
C195 C 0.53888 0.35819 0.37467 0.0
C196 C 0.49667 0.29515 0.2854 0.0
N197 N 0.49279 0.28516 0.42461 0.0
N198 N 0.55837 0.36295 0.2362 0.0
H199 H 0.4371 0.23026 0.24569 0.0
H200 H 0.47214 0.28065 0.20748 0.0
H201 H 0.58794 0.39982 0.23199 0.0
H202 H 0.54842 0.34007 0.20289 0.0
H203 H 0.5112 0.30506 0.45859 0.0
H204 H 0.46632 0.24717 0.42875 0.0
H205 H 0.53531 0.3812 0.45111 0.0
H206 H 0.57691 0.42998 0.41398 0.0
C207 C 0.65749 0.20553 0.34179 0.0
C208 C 0.63006 0.17121 0.29989 0.0
C209 C 0.71335 0.18472 0.26513 0.0
C210 C 0.74081 0.21988 0.30645 0.0
N211 N 0.73923 0.25393 0.39062 0.0
N212 N 0.62957 0.11961 0.22785 0.0
C213 C 0.71292 0.22663 0.34717 0.0
C214 C 0.65738 0.158 0.26351 0.0
N215 N 0.63113 0.22098 0.37442 0.0
N216 N 0.74105 0.17793 0.22693 0.0
H217 H 0.58855 0.09957 0.22608 0.0
H218 H 0.64667 0.1049 0.2027 0.0
H219 H 0.78195 0.19411 0.2289 0.0
H220 H 0.72399 0.15775 0.19274 0.0
H221 H 0.64979 0.25099 0.40137 0.0
H222 H 0.59052 0.2066 0.37231 0.0
H223 H 0.72045 0.25513 0.42355 0.0
H224 H 0.77993 0.27208 0.39576 0.0
C225 C 0.43421 0.7852 0.66567 0.0
C226 C 0.46564 0.83858 0.66835 0.0
C227 C 0.54547 0.83038 0.67382 0.0
C228 C 0.51409 0.77717 0.6671 0.0
N229 N 0.42935 0.70422 0.6468 0.0
N230 N 0.551 0.91226 0.66584 0.0
C231 C 0.45873 0.75471 0.65956 0.0
C232 C 0.52131 0.86135 0.67002 0.0
N233 N 0.3812 0.76348 0.6722 0.0
N234 N 0.5983 0.85128 0.68413 0.0
H235 H 0.53465 0.936 0.66222 0.0
H236 H 0.59148 0.93042 0.66151 0.0
H237 H 0.61784 0.83005 0.68421 0.0
H238 H 0.62225 0.88917 0.69543 0.0
H239 H 0.35725 0.72497 0.67602 0.0
H240 H 0.36167 0.7842 0.67923 0.0
H241 H 0.3898 0.68704 0.63524 0.0
H242 H 0.44529 0.68004 0.64329 0.0
C243 C 0.20992 0.73017 0.64963 0.0
C244 C 0.23043 0.7439 0.60101 0.0
C245 C 0.19691 0.65447 0.57625 0.0
C246 C 0.19263 0.64408 0.62843 0.0
N247 N 0.1939 0.67252 0.71577 0.0
N248 N 0.22922 0.71813 0.51357 0.0
C249 C 0.1976 0.68168 0.66545 0.0
C250 C 0.21866 0.70541 0.56263 0.0
N251 N 0.2006 0.76252 0.67977 0.0
N252 N 0.17974 0.61553 0.54016 0.0
H253 H 0.23983 0.75442 0.50265 0.0
H254 H 0.22784 0.69344 0.48416 0.0
H255 H 0.16247 0.57789 0.54936 0.0
H256 H 0.1784 0.61982 0.50142 0.0
H257 H 0.18293 0.7531 0.71459 0.0
H258 H 0.20303 0.79533 0.66624 0.0
H259 H 0.20325 0.7008 0.74426 0.0
H260 H 0.18531 0.6377 0.72928 0.0
C261 C 0.31941 0.50239 0.71794 0.0
C262 C 0.29197 0.49243 0.67055 0.0
C263 C 0.37356 0.546 0.62936 0.0
C264 C 0.40152 0.55621 0.67686 0.0
N265 N 0.40364 0.5338 0.76289 0.0
N266 N 0.29379 0.49119 0.57959 0.0
C267 C 0.37519 0.53097 0.72012 0.0
C268 C 0.31955 0.50937 0.62567 0.0
N269 N 0.29194 0.48591 0.76095 0.0
N270 N 0.39688 0.57406 0.58885 0.0
H271 H 0.25413 0.46418 0.57597 0.0
H272 H 0.3129 0.49869 0.54539 0.0
H273 H 0.43558 0.60312 0.5897 0.0
H274 H 0.37624 0.57189 0.5555 0.0
H275 H 0.30904 0.49708 0.79737 0.0
H276 H 0.25125 0.46266 0.76008 0.0
H277 H 0.38707 0.51278 0.79421 0.0
H278 H 0.44465 0.55364 0.76516 0.0
C279 C 0.07424 0.31892 0.83073 0.0
C280 C 0.03871 0.32262 0.86471 0.0
C281 C 0.03432 0.38627 0.81368 0.0
C282 C 0.07285 0.38509 0.78199 0.0
N283 N 0.13941 0.3603 0.7685 0.0
N284 N 0.9902 0.36426 0.89345 0.0
C285 C 0.09554 0.35413 0.79272 0.0
C286 C 0.02052 0.35789 0.85782 0.0
N287 N 0.08758 0.28161 0.83442 0.0
N288 N 0.00931 0.41263 0.80041 0.0
H289 H 0.97743 0.3425 0.92501 0.0
H290 H 0.98055 0.39319 0.89355 0.0
H291 H 0.01831 0.43369 0.76832 0.0
H292 H 0.97697 0.41061 0.81889 0.0
H293 H 0.10829 0.27357 0.80693 0.0
H294 H 0.07438 0.25585 0.86267 0.0
H295 H 0.16099 0.34262 0.77865 0.0
H296 H 0.1578 0.38736 0.74203 0.0
C297 C 0.65901 0.71122 0.87263 0.0
C298 C 0.71175 0.72164 0.86658 0.0
C299 C 0.68737 0.67399 0.78441 0.0
C300 C 0.63643 0.66887 0.78784 0.0
N301 N 0.57298 0.68349 0.8328 0.0
N302 N 0.77765 0.71487 0.81753 0.0
C303 C 0.62174 0.68708 0.83162 0.0
C304 C 0.72633 0.70328 0.82278 0.0
N305 N 0.64475 0.72484 0.91737 0.0
N306 N 0.69797 0.65009 0.74477 0.0
H307 H 0.8066 0.73395 0.84612 0.0
H308 H 0.79231 0.70783 0.7842 0.0
H309 H 0.66997 0.62822 0.7163 0.0
H310 H 0.73274 0.64835 0.742 0.0
H311 H 0.60599 0.71339 0.92634 0.0
H312 H 0.6714 0.74514 0.94733 0.0
H313 H 0.56185 0.70157 0.86053 0.0
H314 H 0.54402 0.6644 0.80423 0.0
C315 C 0.26667 0.90547 0.78637 0.0
C316 C 0.31854 0.9126 0.78501 0.0
C317 C 0.34035 0.95932 0.86756 0.0
C318 C 0.28701 0.94774 0.87104 0.0
N319 N 0.19704 0.90117 0.83851 0.0
N320 N 0.40324 0.94026 0.82604 0.0
C321 C 0.24945 0.91848 0.83172 0.0
C322 C 0.35505 0.93783 0.82613 0.0
N323 N 0.23435 0.88777 0.74378 0.0
N324 N 0.37725 0.99243 0.90265 0.0
H325 H 0.41542 0.92557 0.79582 0.0
H326 H 0.42947 0.95328 0.85729 0.0
H327 H 0.36809 0.00952 0.93312 0.0
H328 H 0.41749 0.00638 0.89925 0.0
H329 H 0.19813 0.88689 0.74105 0.0
H330 H 0.2458 0.87847 0.70946 0.0
H331 H 0.16761 0.87502 0.81337 0.0
H332 H 0.18247 0.909 0.87158 0.0
C333 C 0.33781 0.101 0.18998 0.0
C334 C 0.37268 0.08089 0.1936 0.0
C335 C 0.32011 0.01511 0.12812 0.0
C336 C 0.29026 0.04 0.11941 0.0
N337 N 0.2771 0.11228 0.13613 0.0
N338 N 0.40038 0.02128 0.16406 0.0
C339 C 0.3005 0.08431 0.14893 0.0
C340 C 0.36461 0.03833 0.16234 0.0
N341 N 0.33928 0.13499 0.22666 0.0
N342 N 0.30509 0.96877 0.10465 0.0
H343 H 0.43307 0.03707 0.18915 0.0
H344 H 0.39979 0.99398 0.13825 0.0
H345 H 0.27214 0.95036 0.08001 0.0
H346 H 0.32222 0.94658 0.11311 0.0
H347 H 0.31136 0.14718 0.22847 0.0
H348 H 0.36491 0.14669 0.2584 0.0
H349 H 0.28781 0.14776 0.15321 0.0
H350 H 0.25082 0.10274 0.1052 0.0
C351 C 0.96994 0.29231 0.11188 0.0
C352 C 0.00018 0.26702 0.1101 0.0
C353 C -0.00389 0.26134 0.20216 0.0
C354 C 0.95912 0.27922 0.2026 0.0
N355 N 0.90422 0.30442 0.15612 0.0
N356 N 0.03481 0.2196 0.15264 0.0
C357 C 0.94446 0.29316 0.15706 0.0
C358 C 0.01175 0.24968 0.15502 0.0
N359 N 0.96636 0.31632 0.07065 0.0
N360 N 0.01743 0.25677 0.24671 0.0
H361 H 0.04555 0.2087 0.11883 0.0
H362 H 0.03867 0.20149 0.1837 0.0
H363 H 0.00809 0.26634 0.28206 0.0
H364 H 0.04838 0.24862 0.24833 0.0
H365 H 0.94906 0.3395 0.07149 0.0
H366 H 0.98545 0.31733 0.0372 0.0
H367 H 0.88837 0.30953 0.12275 0.0
H368 H 0.88308 0.30381 0.18789 0.0
C369 C 0.72039 0.69037 0.2227 0.0
C370 C 0.73924 0.65519 0.22605 0.0
C371 C 0.79062 0.68704 0.15065 0.0
C372 C 0.77531 0.72495 0.14986 0.0
N373 N 0.73085 0.76716 0.18731 0.0
N374 N 0.79873 0.62502 0.19905 0.0
C375 C 0.74156 0.72787 0.18649 0.0
C376 C 0.776 0.65472 0.19151 0.0
N377 N 0.68104 0.68676 0.25299 0.0
N378 N 0.81792 0.68102 0.11155 0.0
H379 H 0.78918 0.60075 0.22858 0.0
H380 H 0.83026 0.62745 0.17872 0.0
H381 H 0.8301 0.70438 0.08115 0.0
H382 H 0.82483 0.65042 0.10701 0.0
H383 H 0.66175 0.70783 0.24894 0.0
H384 H 0.66461 0.65968 0.27986 0.0
H385 H 0.71118 0.77464 0.21626 0.0
H386 H 0.74502 0.79468 0.16068 0.0
C387 C 0.09797 0.39907 0.49414 0.0
C388 C 0.09146 0.43467 0.52573 0.0
C389 C 0.01684 0.42293 0.47192 0.0
C390 C 0.0264 0.391 0.43791 0.0
N391 N 0.07842 0.35207 0.41262 0.0
N392 N 0.05135 0.48771 0.54011 0.0
C393 C 0.06767 0.37995 0.44786 0.0
C394 C 0.05252 0.44843 0.51357 0.0
N395 N 0.13172 0.38231 0.50931 0.0
N396 N 0.97317 0.42838 0.46478 0.0
H397 H 0.07715 0.50812 0.57059 0.0
H398 H 0.028 0.50328 0.52911 0.0
H399 H 0.94659 0.4113 0.43398 0.0
H400 H 0.96083 0.44636 0.49152 0.0
H401 H 0.13439 0.3527 0.4906 0.0
H402 H 0.15429 0.39536 0.54311 0.0
H403 H 0.11152 0.3473 0.41491 0.0
H404 H 0.05581 0.33621 0.37911 0.0
C405 C 0.69764 0.59175 0.50652 0.0
C406 C 0.66161 0.56474 0.46541 0.0
C407 C 0.59132 0.57158 0.5092 0.0
C408 C 0.62826 0.6017 0.54856 0.0
N409 N 0.717 0.64541 0.58366 0.0
N410 N 0.57547 0.53175 0.42462 0.0
C411 C 0.68157 0.61302 0.54709 0.0
C412 C 0.60888 0.55571 0.46576 0.0
N413 N 0.74696 0.59666 0.50682 0.0
N414 N 0.53896 0.55592 0.51463 0.0
H415 H 0.58491 0.51548 0.39369 0.0
H416 H 0.53913 0.53021 0.41967 0.0
H417 H 0.52435 0.56669 0.54592 0.0
H418 H 0.50926 0.52904 0.49029 0.0
H419 H 0.77324 0.61095 0.53799 0.0
H420 H 0.76084 0.58364 0.47661 0.0
H421 H 0.75742 0.65946 0.58228 0.0
H422 H 0.70632 0.66127 0.6141 0.0
C423 C 0.44491 0.04809 0.552 0.0
C424 C 0.38948 0.02109 0.55527 0.0
C425 C 0.38016 0.06971 0.4882 0.0
C426 C 0.43457 0.09044 0.47953 0.0
N427 N 0.51846 0.09554 0.49953 0.0
N428 N 0.30326 0.00339 0.52512 0.0
C429 C 0.46713 0.07919 0.51083 0.0
C430 C 0.35671 0.03155 0.52345 0.0
N431 N 0.47633 0.04473 0.58886 0.0
N432 N 0.35123 0.08713 0.46319 0.0
H433 H 0.28467 0.97535 0.55067 0.0
H434 H 0.27733 0.00529 0.49891 0.0
H435 H 0.36758 0.11545 0.43751 0.0
H436 H 0.31254 0.07708 0.47127 0.0
H437 H 0.51701 0.06748 0.59128 0.0
H438 H 0.46134 0.02279 0.62004 0.0
H439 H 0.54207 0.08329 0.51738 0.0
H440 H 0.53653 0.11819 0.46956 0.0
loop_
_geom_bond_atom_site_label_1
_geom_bond_atom_site_label_2
_geom_bond_distance
_geom_bond_site_symmetry_2
_ccdc_geom_bond_type
C0 O1 1.160 . S
C0 O7 1.185 . S
O1 C0 1.160 . S
O2 Zn3 1.899 1_556 S
O2 C10 1.274 1_556 S
Zn3 O2 1.899 1_554 S
Zn3 O4 2.032 . S
Zn3 O7 2.086 1_554 S
Zn3 O12 1.977 1_454 S
O4 Zn3 2.032 . S
O4 C8 1.278 1_455 S
C5 O6 1.203 . S
C5 O12 1.267 1_554 S
O6 C5 1.203 . S
O7 C0 1.185 . S
O7 Zn3 2.086 1_556 S
C8 O4 1.278 1_655 S
C8 O9 1.211 . S
O9 C8 1.211 . S
C10 O2 1.274 1_554 S
C10 O11 1.273 . S
O11 C10 1.273 . S
O12 Zn3 1.977 1_656 S
O12 C5 1.267 1_556 S
C13 O14 1.160 . S
C13 O20 1.185 . S
O14 C13 1.160 . S
O15 Zn16 1.899 . S
O15 C23 1.284 1_554 S
Zn16 O15 1.899 . S
Zn16 O17 2.032 1_554 S
Zn16 O20 2.086 . S
Zn16 O25 1.977 . S
O17 Zn16 2.032 1_556 S
O17 C21 1.278 . S
C18 O19 1.203 1_554 S
C18 O25 1.267 . S
O19 C18 1.203 1_556 S
O20 C13 1.185 . S
O20 Zn16 2.086 . S
C21 O17 1.278 . S
C21 O22 1.211 . S
O22 C21 1.211 . S
C23 O15 1.284 1_556 S
C23 O24 1.273 . S
O24 C23 1.273 . S
O25 Zn16 1.977 . S
O25 C18 1.267 . S
C26 O27 1.160 . S
C26 O33 1.185 1_565 S
O27 C26 1.160 . S
O28 Zn29 1.899 1_565 S
O28 C36 1.284 1_556 S
Zn29 O28 1.899 1_545 S
Zn29 O30 2.032 1_556 S
Zn29 O33 2.086 . S
Zn29 O38 1.977 . S
O30 Zn29 2.032 1_554 S
O30 C34 1.278 . S
C31 O32 1.203 . S
C31 O38 1.267 1_554 S
O32 C31 1.203 . S
O33 C26 1.185 1_545 S
O33 Zn29 2.086 . S
C34 O30 1.278 . S
C34 O35 1.211 . S
O35 C34 1.211 . S
C36 O28 1.284 1_554 S
C36 O37 1.273 . S
O37 C36 1.273 . S
O38 Zn29 1.977 . S
O38 C31 1.267 1_556 S
C39 O40 1.160 . S
C39 O46 1.185 . S
O40 C39 1.160 . S
O41 Zn42 1.899 . S
O41 C49 1.284 . S
Zn42 O41 1.899 . S
Zn42 O43 2.032 . S
Zn42 O46 2.086 . S
Zn42 O51 1.977 . S
O43 Zn42 2.032 . S
O43 C47 1.278 . S
C44 O45 1.203 . S
C44 O51 1.267 . S
O45 C44 1.203 . S
O46 C39 1.185 . S
O46 Zn42 2.086 . S
C47 O43 1.278 . S
C47 O48 1.211 . S
O48 C47 1.211 . S
C49 O41 1.284 . S
C49 O50 1.273 . S
O50 C49 1.273 . S
O51 Zn42 1.977 . S
O51 C44 1.267 . S
C52 O53 1.160 . S
C52 O59 1.185 . S
O53 C52 1.160 . S
O54 Zn55 1.899 . S
O54 C62 1.284 . S
Zn55 O54 1.899 . S
Zn55 O56 2.032 . S
Zn55 O59 2.086 . S
Zn55 O64 1.977 . S
O56 Zn55 2.032 . S
O56 C60 1.278 . S
C57 O58 1.203 . S
C57 O64 1.267 . S
O58 C57 1.203 . S
O59 C52 1.185 . S
O59 Zn55 2.086 . S
C60 O56 1.278 . S
C60 O61 1.211 . S
O61 C60 1.211 . S
C62 O54 1.284 . S
C62 O63 1.273 . S
O63 C62 1.273 . S
O64 Zn55 1.977 . S
O64 C57 1.267 . S
C65 O66 1.160 . S
C65 O72 1.185 . S
O66 C65 1.160 . S
O67 Zn68 1.899 . S
O67 C75 1.284 . S
Zn68 O67 1.899 . S
Zn68 O69 2.032 . S
Zn68 O72 2.086 . S
Zn68 O77 1.977 . S
O69 Zn68 2.032 . S
O69 C73 1.278 . S
C70 O71 1.203 . S
C70 O77 1.267 . S
O71 C70 1.203 . S
O72 C65 1.185 . S
O72 Zn68 2.086 . S
C73 O69 1.278 . S
C73 O74 1.211 . S
O74 C73 1.211 . S
C75 O67 1.284 . S
C75 O76 1.273 . S
O76 C75 1.273 . S
O77 Zn68 1.977 . S
O77 C70 1.267 . S
C78 O79 1.160 . S
C78 O85 1.185 . S
O79 C78 1.160 . S
O80 Zn81 1.899 . S
O80 C88 1.284 . S
Zn81 O80 1.899 . S
Zn81 O82 2.032 . S
Zn81 O85 2.086 . S
Zn81 O90 1.977 . S
O82 Zn81 2.032 . S
O82 C86 1.278 . S
C83 O84 1.203 . S
C83 O90 1.267 . S
O84 C83 1.203 . S
O85 C78 1.185 . S
O85 Zn81 2.086 . S
C86 O82 1.278 . S
C86 O87 1.211 . S
O87 C86 1.211 . S
C88 O80 1.284 . S
C88 O89 1.273 . S
O89 C88 1.273 . S
O90 Zn81 1.977 . S
O90 C83 1.267 . S
C91 O92 1.160 . S
C91 O98 1.185 . S
O92 C91 1.160 . S
O93 Zn94 1.899 . S
O93 C101 1.284 . S
Zn94 O93 1.899 . S
Zn94 O95 2.032 . S
Zn94 O98 2.086 . S
Zn94 O103 1.977 . S
O95 Zn94 2.032 . S
O95 C99 1.278 . S
C96 O97 1.203 . S
C96 O103 1.267 . S
O97 C96 1.203 . S
O98 C91 1.185 . S
O98 Zn94 2.086 . S
C99 O95 1.278 . S
C99 O100 1.211 . S
O100 C99 1.211 . S
C101 O93 1.284 . S
C101 O102 1.273 . S
O102 C101 1.273 . S
O103 Zn94 1.977 . S
O103 C96 1.267 . S
C104 O105 1.160 . S
C104 O111 1.185 . S
O105 C104 1.160 . S
O106 Zn107 1.899 . S
O106 C114 1.284 . S
Zn107 O106 1.899 . S
Zn107 O108 2.032 . S
Zn107 O111 2.086 . S
Zn107 O116 1.977 . S
O108 Zn107 2.032 . S
O108 C112 1.278 . S
C109 O110 1.203 . S
C109 O116 1.267 . S
O110 C109 1.203 . S
O111 C104 1.185 . S
O111 Zn107 2.086 . S
C112 O108 1.278 . S
C112 O113 1.211 . S
O113 C112 1.211 . S
C114 O106 1.284 . S
C114 O115 1.273 . S
O115 C114 1.273 . S
O116 Zn107 1.977 . S
O116 C109 1.267 . S
C117 C118 1.363 1_556 S
C117 C123 1.379 . S
C117 N125 1.356 . S
C118 C117 1.363 1_554 S
C118 C124 1.363 . S
C119 C120 1.363 . S
C119 C124 1.379 . S
C119 N126 1.356 . S
C120 C119 1.363 . S
C120 C123 1.363 1_554 S
N121 C123 1.356 . S
N121 H133 0.984 . S
N121 H134 0.985 1_556 S
N122 C124 1.356 . S
N122 H127 0.984 . S
N122 H128 0.985 . S
C123 C117 1.379 . S
C123 C120 1.363 1_556 S
C123 N121 1.356 . S
C124 C118 1.363 . S
C124 C119 1.379 . S
C124 N122 1.356 . S
N125 C117 1.356 . S
N125 H131 0.984 . S
N125 H132 0.984 . S
N126 C119 1.356 . S
N126 H129 0.984 . S
N126 H130 0.985 . S
H127 N122 0.984 . S
H128 N122 0.985 . S
H129 N126 0.984 . S
H130 N126 0.985 . S
H131 N125 0.984 . S
H132 N125 0.984 . S
H133 N121 0.984 . S
H134 N121 0.985 1_554 S
C135 C136 1.363 1_556 S
C135 C141 1.379 1_565 S
C135 N143 1.356 . S
C136 C135 1.363 1_554 S
C136 C142 1.378 . S
C137 C138 1.363 . S
C137 C142 1.362 1_545 S
C137 N144 1.356 . S
C138 C137 1.363 . S
C138 C141 1.363 1_554 S
N139 C141 1.356 . S
N139 H151 0.984 . S
N139 H152 0.985 . S
N140 C142 1.364 . S
N140 H145 0.984 . S
N140 H146 0.985 . S
C141 C135 1.379 1_545 S
C141 C138 1.363 1_556 S
C141 N139 1.356 . S
C142 C136 1.378 . S
C142 C137 1.362 1_565 S
C142 N140 1.364 . S
N143 C135 1.356 . S
N143 H149 0.984 . S
N143 H150 0.984 . S
N144 C137 1.356 . S
N144 H147 0.984 . S
N144 H148 0.985 . S
H145 N140 0.984 . S
H146 N140 0.985 . S
H147 N144 0.984 . S
H148 N144 0.985 . S
H149 N143 0.984 . S
H150 N143 0.984 . S
H151 N139 0.984 . S
H152 N139 0.985 . S
C153 C154 1.363 1_455 S
C153 C159 1.379 . S
C153 N161 1.356 1_455 S
C154 C153 1.363 1_655 S
C154 C160 1.363 1_556 S
C155 C156 1.363 . S
C155 C160 1.379 1_455 S
C155 N162 1.356 . S
C156 C155 1.363 . S
C156 C159 1.363 1_554 S
N157 C159 1.356 . S
N157 H169 0.984 . S
N157 H170 0.985 . S
N158 C160 1.356 . S
N158 H163 0.984 . S
N158 H164 0.985 . S
C159 C153 1.379 . S
C159 C156 1.363 1_556 S
C159 N157 1.356 . S
C160 C154 1.363 1_554 S
C160 C155 1.379 1_655 S
C160 N158 1.356 . S
N161 C153 1.356 1_655 S
N161 H167 0.984 . S
N161 H168 0.984 . S
N162 C155 1.356 . S
N162 H165 0.984 . S
N162 H166 0.985 . S
H163 N158 0.984 . S
H164 N158 0.985 . S
H165 N162 0.984 . S
H166 N162 0.985 . S
H167 N161 0.984 . S
H168 N161 0.984 . S
H169 N157 0.984 . S
H170 N157 0.985 . S
C171 C172 1.363 . S
C171 C177 1.379 . S
C171 N179 1.356 . S
C172 C171 1.363 . S
C172 C178 1.363 . S
C173 C174 1.363 . S
C173 C178 1.379 . S
C173 N180 1.356 . S
C174 C173 1.363 . S
C174 C177 1.363 . S
N175 C177 1.356 . S
N175 H187 0.984 . S
N175 H188 0.985 . S
N176 C178 1.356 . S
N176 H181 0.984 . S
N176 H182 0.985 . S
C177 C171 1.379 . S
C177 C174 1.363 . S
C177 N175 1.356 . S
C178 C172 1.363 . S
C178 C173 1.379 . S
C178 N176 1.356 . S
N179 C171 1.356 . S
N179 H185 0.984 . S
N179 H186 0.984 . S
N180 C173 1.356 . S
N180 H183 0.984 . S
N180 H184 0.985 . S
H181 N176 0.984 . S
H182 N176 0.985 . S
H183 N180 0.984 . S
H184 N180 0.985 . S
H185 N179 0.984 . S
H186 N179 0.984 . S
H187 N175 0.984 . S
H188 N175 0.985 . S
C189 C190 1.363 . S
C189 C195 1.379 . S
C189 N197 1.356 . S
C190 C189 1.363 . S
C190 C196 1.363 . S
C191 C192 1.363 . S
C191 C196 1.379 . S
C191 N198 1.356 . S
C192 C191 1.363 . S
C192 C195 1.363 . S
N193 C195 1.356 . S
N193 H205 0.984 . S
N193 H206 0.985 . S
N194 C196 1.356 . S
N194 H199 0.984 . S
N194 H200 0.985 . S
C195 C189 1.379 . S
C195 C192 1.363 . S
C195 N193 1.356 . S
C196 C190 1.363 . S
C196 C191 1.379 . S
C196 N194 1.356 . S
N197 C189 1.356 . S
N197 H203 0.984 . S
N197 H204 0.984 . S
N198 C191 1.356 . S
N198 H201 0.984 . S
N198 H202 0.985 . S
H199 N194 0.984 . S
H200 N194 0.985 . S
H201 N198 0.984 . S
H202 N198 0.985 . S
H203 N197 0.984 . S
H204 N197 0.984 . S
H205 N193 0.984 . S
H206 N193 0.985 . S
C207 C208 1.363 . S
C207 C213 1.379 . S
C207 N215 1.356 . S
C208 C207 1.363 . S
C208 C214 1.363 . S
C209 C210 1.363 . S
C209 C214 1.379 . S
C209 N216 1.356 . S
C210 C209 1.363 . S
C210 C213 1.363 . S
N211 C213 1.356 . S
N211 H223 0.984 . S
N211 H224 0.985 . S
N212 C214 1.356 . S
N212 H217 0.984 . S
N212 H218 0.985 . S
C213 C207 1.379 . S
C213 C210 1.363 . S
C213 N211 1.356 . S
C214 C208 1.363 . S
C214 C209 1.379 . S
C214 N212 1.356 . S
N215 C207 1.356 . S
N215 H221 0.984 . S
N215 H222 0.984 . S
N216 C209 1.356 . S
N216 H219 0.984 . S
N216 H220 0.985 . S
H217 N212 0.984 . S
H218 N212 0.985 . S
H219 N216 0.984 . S
H220 N216 0.985 . S
H221 N215 0.984 . S
H222 N215 0.984 . S
H223 N211 0.984 . S
H224 N211 0.985 . S
C225 C226 1.363 . S
C225 C231 1.379 . S
C225 N233 1.356 . S
C226 C225 1.363 . S
C226 C232 1.363 . S
C227 C228 1.363 . S
C227 C232 1.379 . S
C227 N234 1.356 . S
C228 C227 1.363 . S
C228 C231 1.363 . S
N229 C231 1.356 . S
N229 H241 0.984 . S
N229 H242 0.985 . S
N230 C232 1.356 . S
N230 H235 0.984 . S
N230 H236 0.985 . S
C231 C225 1.379 . S
C231 C228 1.363 . S
C231 N229 1.356 . S
C232 C226 1.363 . S
C232 C227 1.379 . S
C232 N230 1.356 . S
N233 C225 1.356 . S
N233 H239 0.984 . S
N233 H240 0.984 . S
N234 C227 1.356 . S
N234 H237 0.984 . S
N234 H238 0.985 . S
H235 N230 0.984 . S
H236 N230 0.985 . S
H237 N234 0.984 . S
H238 N234 0.985 . S
H239 N233 0.984 . S
H240 N233 0.984 . S
H241 N229 0.984 . S
H242 N229 0.985 . S
C243 C244 1.363 . S
C243 C249 1.379 . S
C243 N251 1.356 . S
C244 C243 1.363 . S
C244 C250 1.363 . S
C245 C246 1.363 . S
C245 C250 1.379 . S
C245 N252 1.356 . S
C246 C245 1.363 . S
C246 C249 1.363 . S
N247 C249 1.356 . S
N247 H259 0.984 . S
N247 H260 0.985 . S
N248 C250 1.356 . S
N248 H253 0.984 . S
N248 H254 0.985 . S
C249 C243 1.379 . S
C249 C246 1.363 . S
C249 N247 1.356 . S
C250 C244 1.363 . S
C250 C245 1.379 . S
C250 N248 1.356 . S
N251 C243 1.356 . S
N251 H257 0.984 . S
N251 H258 0.984 . S
N252 C245 1.356 . S
N252 H255 0.984 . S
N252 H256 0.985 . S
H253 N248 0.984 . S
H254 N248 0.985 . S
H255 N252 0.984 . S
H256 N252 0.985 . S
H257 N251 0.984 . S
H258 N251 0.984 . S
H259 N247 0.984 . S
H260 N247 0.985 . S
C261 C262 1.363 . S
C261 C267 1.379 . S
C261 N269 1.356 . S
C262 C261 1.363 . S
C262 C268 1.363 . S
C263 C264 1.363 . S
C263 C268 1.379 . S
C263 N270 1.356 . S
C264 C263 1.363 . S
C264 C267 1.363 . S
N265 C267 1.356 . S
N265 H277 0.984 . S
N265 H278 0.985 . S
N266 C268 1.356 . S
N266 H271 0.984 . S
N266 H272 0.985 . S
C267 C261 1.379 . S
C267 C264 1.363 . S
C267 N265 1.356 . S
C268 C262 1.363 . S
C268 C263 1.379 . S
C268 N266 1.356 . S
N269 C261 1.356 . S
N269 H275 0.984 . S
N269 H276 0.984 . S
N270 C263 1.356 . S
N270 H273 0.984 . S
N270 H274 0.985 . S
H271 N266 0.984 . S
H272 N266 0.985 . S
H273 N270 0.984 . S
H274 N270 0.985 . S
H275 N269 0.984 . S
H276 N269 0.984 . S
H277 N265 0.984 . S
H278 N265 0.985 . S
C279 C280 1.363 . S
C279 C285 1.379 . S
C279 N287 1.356 . S
C280 C279 1.363 . S
C280 C286 1.363 . S
C281 C282 1.363 . S
C281 C286 1.379 . S
C281 N288 1.356 . S
C282 C281 1.363 . S
C282 C285 1.363 . S
N283 C285 1.356 . S
N283 H295 0.984 . S
N283 H296 0.985 . S
N284 C286 1.356 1_655 S
N284 H289 0.984 . S
N284 H290 0.985 . S
C285 C279 1.379 . S
C285 C282 1.363 . S
C285 N283 1.356 . S
C286 C280 1.363 . S
C286 C281 1.379 . S
C286 N284 1.356 1_455 S
N287 C279 1.356 . S
N287 H293 0.984 . S
N287 H294 0.984 . S
N288 C281 1.356 . S
N288 H291 0.984 . S
N288 H292 0.985 . S
H289 N284 0.984 . S
H290 N284 0.985 . S
H291 N288 0.984 . S
H292 N288 0.985 . S
H293 N287 0.984 . S
H294 N287 0.984 . S
H295 N283 0.984 . S
H296 N283 0.985 . S
C297 C298 1.363 . S
C297 C303 1.379 . S
C297 N305 1.356 . S
C298 C297 1.363 . S
C298 C304 1.363 . S
C299 C300 1.363 . S
C299 C304 1.379 . S
C299 N306 1.356 . S
C300 C299 1.363 . S
C300 C303 1.363 . S
N301 C303 1.356 . S
N301 H313 0.984 . S
N301 H314 0.985 . S
N302 C304 1.356 . S
N302 H307 0.984 . S
N302 H308 0.985 . S
C303 C297 1.379 . S
C303 C300 1.363 . S
C303 N301 1.356 . S
C304 C298 1.363 . S
C304 C299 1.379 . S
C304 N302 1.356 . S
N305 C297 1.356 . S
N305 H311 0.984 . S
N305 H312 0.984 . S
N306 C299 1.356 . S
N306 H309 0.984 . S
N306 H310 0.985 . S
H307 N302 0.984 . S
H308 N302 0.985 . S
H309 N306 0.984 . S
H310 N306 0.985 . S
H311 N305 0.984 . S
H312 N305 0.984 . S
H313 N301 0.984 . S
H314 N301 0.985 . S
C315 C316 1.363 . S
C315 C321 1.379 . S
C315 N323 1.356 . S
C316 C315 1.363 . S
C316 C322 1.363 . S
C317 C318 1.363 . S
C317 C322 1.379 . S
C317 N324 1.356 1_565 S
C318 C317 1.363 . S
C318 C321 1.363 . S
N319 C321 1.356 . S
N319 H331 0.984 . S
N319 H332 0.985 . S
N320 C322 1.356 . S
N320 H325 0.984 . S
N320 H326 0.985 1_565 S
C321 C315 1.379 . S
C321 C318 1.363 . S
C321 N319 1.356 . S
C322 C316 1.363 . S
C322 C317 1.379 . S
C322 N320 1.356 . S
N323 C315 1.356 . S
N323 H329 0.984 . S
N323 H330 0.984 . S
N324 C317 1.356 1_545 S
N324 H327 0.984 . S
N324 H328 0.985 . S
H325 N320 0.984 . S
H326 N320 0.985 1_545 S
H327 N324 0.984 . S
H328 N324 0.985 . S
H329 N323 0.984 . S
H330 N323 0.984 . S
H331 N319 0.984 . S
H332 N319 0.985 . S
C333 C334 1.363 . S
C333 C339 1.379 . S
C333 N341 1.356 . S
C334 C333 1.363 . S
C334 C340 1.363 . S
C335 C336 1.363 . S
C335 C340 1.379 . S
C335 N342 1.356 1_545 S
C336 C335 1.363 . S
C336 C339 1.363 . S
N337 C339 1.356 . S
N337 H349 0.984 . S
N337 H350 0.985 . S
N338 C340 1.356 . S
N338 H343 0.984 . S
N338 H344 0.985 . S
C339 C333 1.379 . S
C339 C336 1.363 . S
C339 N337 1.356 . S
C340 C334 1.363 . S
C340 C335 1.379 . S
C340 N338 1.356 . S
N341 C333 1.356 . S
N341 H347 0.984 . S
N341 H348 0.984 . S
N342 C335 1.356 1_565 S
N342 H345 0.984 . S
N342 H346 0.985 . S
H343 N338 0.984 . S
H344 N338 0.985 . S
H345 N342 0.984 . S
H346 N342 0.985 . S
H347 N341 0.984 . S
H348 N341 0.984 . S
H349 N337 0.984 . S
H350 N337 0.985 . S
C351 C352 1.363 1_455 S
C351 C357 1.378 1_455 S
C351 N359 1.356 . S
C352 C351 1.363 1_655 S
C352 C358 1.363 . S
C353 C354 1.363 . S
C353 C358 1.379 . S
C353 N360 1.356 . S
C354 C353 1.363 . S
C354 C357 1.364 . S
N355 C357 1.356 1_455 S
N355 H367 0.984 . S
N355 H368 0.985 1_455 S
N356 C358 1.356 . S
N356 H361 0.984 . S
N356 H362 0.985 . S
C357 C351 1.378 1_655 S
C357 C354 1.364 . S
C357 N355 1.356 1_655 S
C358 C352 1.363 . S
C358 C353 1.379 . S
C358 N356 1.356 . S
N359 C351 1.356 . S
N359 H365 0.984 . S
N359 H366 0.984 . S
N360 C353 1.356 . S
N360 H363 0.984 . S
N360 H364 0.985 . S
H361 N356 0.984 . S
H362 N356 0.985 . S
H363 N360 0.984 . S
H364 N360 0.985 . S
H365 N359 0.984 . S
H366 N359 0.984 . S
H367 N355 0.984 . S
H368 N355 0.985 1_655 S
C369 C370 1.363 . S
C369 C375 1.379 . S
C369 N377 1.356 . S
C370 C369 1.363 . S
C370 C376 1.363 . S
C371 C372 1.363 . S
C371 C376 1.379 . S
C371 N378 1.356 . S
C372 C371 1.363 . S
C372 C375 1.363 . S
N373 C375 1.356 . S
N373 H385 0.984 . S
N373 H386 0.985 . S
N374 C376 1.356 . S
N374 H379 0.984 . S
N374 H380 0.985 . S
C375 C369 1.379 . S
C375 C372 1.363 . S
C375 N373 1.356 . S
C376 C370 1.363 . S
C376 C371 1.379 . S
C376 N374 1.356 . S
N377 C369 1.356 . S
N377 H383 0.984 . S
N377 H384 0.984 . S
N378 C371 1.356 . S
N378 H381 0.984 . S
N378 H382 0.985 . S
H379 N374 0.984 . S
H380 N374 0.985 . S
H381 N378 0.984 . S
H382 N378 0.985 . S
H383 N377 0.984 . S
H384 N377 0.984 . S
H385 N373 0.984 . S
H386 N373 0.985 . S
C387 C388 1.363 . S
C387 C393 1.379 . S
C387 N395 1.356 . S
C388 C387 1.363 . S
C388 C394 1.363 . S
C389 C390 1.363 . S
C389 C394 1.379 . S
C389 N396 1.356 1_455 S
C390 C389 1.363 . S
C390 C393 1.363 . S
N391 C393 1.356 1_655 S
N391 H403 0.984 1_655 S
N391 H404 0.985 . S
N392 C394 1.356 . S
N392 H397 0.984 . S
N392 H398 0.985 . S
C393 C387 1.379 . S
C393 C390 1.363 . S
C393 N391 1.356 1_455 S
C394 C388 1.363 . S
C394 C389 1.379 . S
C394 N392 1.356 . S
N395 C387 1.356 . S
N395 H401 0.984 . S
N395 H402 0.984 . S
N396 C389 1.356 1_655 S
N396 H399 0.984 . S
N396 H400 0.985 1_655 S
H397 N392 0.984 . S
H398 N392 0.985 . S
H399 N396 0.984 . S
H400 N396 0.985 1_455 S
H401 N395 0.984 . S
H402 N395 0.984 . S
H403 N391 0.984 1_455 S
H404 N391 0.985 . S
C405 C406 1.363 . S
C405 C411 1.379 . S
C405 N413 1.356 . S
C406 C405 1.363 . S
C406 C412 1.363 . S
C407 C408 1.363 . S
C407 C412 1.379 . S
C407 N414 1.356 . S
C408 C407 1.363 . S
C408 C411 1.363 . S
N409 C411 1.356 . S
N409 H421 0.984 . S
N409 H422 0.985 . S
N410 C412 1.356 . S
N410 H415 0.984 . S
N410 H416 0.985 . S
C411 C405 1.379 . S
C411 C408 1.363 . S
C411 N409 1.356 . S
C412 C406 1.363 . S
C412 C407 1.379 . S
C412 N410 1.356 . S
N413 C405 1.356 . S
N413 H419 0.984 . S
N413 H420 0.984 . S
N414 C407 1.356 . S
N414 H417 0.984 . S
N414 H418 0.985 . S
H415 N410 0.984 . S
H416 N410 0.985 . S
H417 N414 0.984 . S
H418 N414 0.985 . S
H419 N413 0.984 . S
H420 N413 0.984 . S
H421 N409 0.984 . S
H422 N409 0.985 . S
C423 C424 1.363 . S
C423 C429 1.379 1_565 S
C423 N431 1.356 . S
C424 C423 1.363 . S
C424 C430 1.363 1_565 S
C425 C426 1.363 . S
C425 C430 1.379 . S
C425 N432 1.356 . S
C426 C425 1.363 . S
C426 C429 1.363 . S
N427 C429 1.356 . S
N427 H439 0.984 1_545 S
N427 H440 0.985 . S
N428 C430 1.356 . S
N428 H433 0.984 1_545 S
N428 H434 0.985 . S
C429 C423 1.379 1_545 S
C429 C426 1.363 . S
C429 N427 1.356 . S
C430 C424 1.363 1_545 S
C430 C425 1.379 . S
C430 N428 1.356 . S
N431 C423 1.356 . S
N431 H437 0.984 . S
N431 H438 0.984 . S
N432 C425 1.356 . S
N432 H435 0.984 . S
N432 H436 0.985 . S
H433 N428 0.984 1_565 S
H434 N428 0.985 . S
H435 N432 0.984 . S
H436 N432 0.985 . S
H437 N431 0.984 . S
H438 N431 0.984 . S
H439 N427 0.984 1_565 S
H440 N427 0.985 . S
C118 C31 1.148 . S
C120 C10 1.244 . S
C136 C18 1.153 . S
C138 C5 1.145 . S
C154 C23 1.259 . S
C156 C36 1.260 . S
C172 C75 1.250 . S
C174 C49 1.245 . S
C190 C57 1.108 . S
C192 C44 1.126 . S
C208 C62 1.244 . S
C210 C70 1.148 . S
C226 C88 1.229 . S
C228 C109 1.141 . S
C244 C83 1.081 . S
C246 C96 1.089 . S
C262 C101 1.241 . S
C264 C114 1.243 . S
C280 C0 1.342 . S
C282 C91 1.363 . S
C298 C21 1.352 . S
C300 C112 1.349 . S
C316 C86 1.305 . S
C318 C26 1.313 . S
C334 C60 1.305 . S
C336 C34 1.314 . S
C352 C8 1.336 . S
C354 C73 1.345 . S
C370 C39 1.350 . S
C372 C13 1.338 . S
C388 C99 1.327 . S
C390 C65 1.322 1_455 S
C406 C47 1.354 . S
C408 C104 1.351 . S
C424 C78 1.365 . S
C426 C52 1.352 . S
