# Generated by pormake.
# Topology unb, (4)-cn, num edge types: 1
# Building blocks:
#     Node 0, Type 0, BuildingBlock: QUQFOY_clean_sbu_1, # of connection points: 4
#     Node 1, Type 0, BuildingBlock: QUQFOY_clean_sbu_1, # of connection points: 4
#     Node 2, Type 0, BuildingBlock: QUQFOY_clean_sbu_1, # of connection points: 4
#     Node 3, Type 0, BuildingBlock: QUQFOY_clean_sbu_1, # of connection points: 4
#     Node 4, Type 0, BuildingBlock: QUQFOY_clean_sbu_1, # of connection points: 4
#     Node 5, Type 0, BuildingBlock: QUQFOY_clean_sbu_1, # of connection points: 4
#     Node 6, Type 0, BuildingBlock: QUQFOY_clean_sbu_1, # of connection points: 4
#     Node 7, Type 0, BuildingBlock: QUQFOY_clean_sbu_1, # of connection points: 4
#     Node 8, Type 0, BuildingBlock: QUQFOY_clean_sbu_1, # of connection points: 4
#     Node 9, Type 0, BuildingBlock: QUQFOY_clean_sbu_1, # of connection points: 4
#     Node 10, Type 0, BuildingBlock: QUQFOY_clean_sbu_1, # of connection points: 4
#     Node 11, Type 0, BuildingBlock: QUQFOY_clean_sbu_1, # of connection points: 4
#     Node 12, Type 0, BuildingBlock: QUQFOY_clean_sbu_1, # of connection points: 4
#     Node 13, Type 0, BuildingBlock: QUQFOY_clean_sbu_1, # of connection points: 4
#     Node 14, Type 0, BuildingBlock: QUQFOY_clean_sbu_1, # of connection points: 4
#     Node 15, Type 0, BuildingBlock: QUQFOY_clean_sbu_1, # of connection points: 4
#     Node 16, Type 0, BuildingBlock: QUQFOY_clean_sbu_1, # of connection points: 4
#     Node 17, Type 0, BuildingBlock: QUQFOY_clean_sbu_1, # of connection points: 4
#     Edge 18, Type (0, 0), BuildingBlock: OJICUG_clean_linker_0, # of connection points: 2
#     Edge 19, Type (0, 0), BuildingBlock: OJICUG_clean_linker_0, # of connection points: 2
#     Edge 20, Type (0, 0), BuildingBlock: OJICUG_clean_linker_0, # of connection points: 2
#     Edge 21, Type (0, 0), BuildingBlock: OJICUG_clean_linker_0, # of connection points: 2
#     Edge 22, Type (0, 0), BuildingBlock: OJICUG_clean_linker_0, # of connection points: 2
#     Edge 23, Type (0, 0), BuildingBlock: OJICUG_clean_linker_0, # of connection points: 2
#     Edge 24, Type (0, 0), BuildingBlock: OJICUG_clean_linker_0, # of connection points: 2
#     Edge 25, Type (0, 0), BuildingBlock: OJICUG_clean_linker_0, # of connection points: 2
#     Edge 26, Type (0, 0), BuildingBlock: OJICUG_clean_linker_0, # of connection points: 2
#     Edge 27, Type (0, 0), BuildingBlock: OJICUG_clean_linker_0, # of connection points: 2
#     Edge 28, Type (0, 0), BuildingBlock: OJICUG_clean_linker_0, # of connection points: 2
#     Edge 29, Type (0, 0), BuildingBlock: OJICUG_clean_linker_0, # of connection points: 2
#     Edge 30, Type (0, 0), BuildingBlock: OJICUG_clean_linker_0, # of connection points: 2
#     Edge 31, Type (0, 0), BuildingBlock: OJICUG_clean_linker_0, # of connection points: 2
#     Edge 32, Type (0, 0), BuildingBlock: OJICUG_clean_linker_0, # of connection points: 2
#     Edge 33, Type (0, 0), BuildingBlock: OJICUG_clean_linker_0, # of connection points: 2
#     Edge 34, Type (0, 0), BuildingBlock: OJICUG_clean_linker_0, # of connection points: 2
#     Edge 35, Type (0, 0), BuildingBlock: OJICUG_clean_linker_0, # of connection points: 2
#     Edge 36, Type (0, 0), BuildingBlock: OJICUG_clean_linker_0, # of connection points: 2
#     Edge 37, Type (0, 0), BuildingBlock: OJICUG_clean_linker_0, # of connection points: 2
#     Edge 38, Type (0, 0), BuildingBlock: OJICUG_clean_linker_0, # of connection points: 2
#     Edge 39, Type (0, 0), BuildingBlock: OJICUG_clean_linker_0, # of connection points: 2
#     Edge 40, Type (0, 0), BuildingBlock: OJICUG_clean_linker_0, # of connection points: 2
#     Edge 41, Type (0, 0), BuildingBlock: OJICUG_clean_linker_0, # of connection points: 2
#     Edge 42, Type (0, 0), BuildingBlock: OJICUG_clean_linker_0, # of connection points: 2
#     Edge 43, Type (0, 0), BuildingBlock: OJICUG_clean_linker_0, # of connection points: 2
#     Edge 44, Type (0, 0), BuildingBlock: OJICUG_clean_linker_0, # of connection points: 2
#     Edge 45, Type (0, 0), BuildingBlock: OJICUG_clean_linker_0, # of connection points: 2
#     Edge 46, Type (0, 0), BuildingBlock: OJICUG_clean_linker_0, # of connection points: 2
#     Edge 47, Type (0, 0), BuildingBlock: OJICUG_clean_linker_0, # of connection points: 2
#     Edge 48, Type (0, 0), BuildingBlock: OJICUG_clean_linker_0, # of connection points: 2
#     Edge 49, Type (0, 0), BuildingBlock: OJICUG_clean_linker_0, # of connection points: 2
#     Edge 50, Type (0, 0), BuildingBlock: OJICUG_clean_linker_0, # of connection points: 2
#     Edge 51, Type (0, 0), BuildingBlock: OJICUG_clean_linker_0, # of connection points: 2
#     Edge 52, Type (0, 0), BuildingBlock: OJICUG_clean_linker_0, # of connection points: 2
#     Edge 53, Type (0, 0), BuildingBlock: OJICUG_clean_linker_0, # of connection points: 2
# Relax obj value: 0.075
# Max RMSD: 0.094
# Mean RMSD: 0.094
data_MOF--net-unb--node1-QUQFOY_clean_sbu_1--edge1-OJICUG_clean_linker_0
_symmetry_space_group_name_H-M    P1
_symmetry_Int_Tables_number       1
_symmetry_cell_setting            triclinic
loop_
_symmetry_equiv_pos_as_xyz
'x, y, z'
_cell_length_a     48.203255
_cell_length_b     48.321301
_cell_length_c     20.372965
_cell_angle_alpha  89.378579
_cell_angle_beta   90.199845
_cell_angle_gamma 119.59461
loop_
_atom_site_label
_atom_site_type_symbol
_atom_site_fract_x
_atom_site_fract_y
_atom_site_fract_z
_atom_type_partial_charge
O0 O 0.1773 0.24571 0.08294 0.0
Cd1 Cd 0.15433 0.27138 0.10165 0.0
Cd2 Cd 0.10806 0.21787 0.05671 0.0
O3 O 0.13468 0.19843 0.08892 0.0
O4 O 0.18298 0.30518 0.16397 0.0
O5 O 0.13347 0.26853 0.18918 0.0
C6 C 0.16031 0.29254 0.20684 0.0
C7 C 0.05295 0.19002 0.05684 0.0
C8 C 0.16469 0.2156 0.08345 0.0
C9 C 0.13608 0.27341 0.96676 0.0
O10 O 0.12414 0.24354 0.9718 0.0
O11 O 0.14588 0.29067 1.01773 0.0
O12 O 0.06913 0.17999 1.02487 0.0
O13 O 0.06802 0.21476 0.09331 0.0
O14 O 0.71312 0.91048 0.05311 0.0
Cd15 Cd 0.68253 0.86297 0.07532 0.0
Cd16 Cd 0.73043 0.85756 1.01936 0.0
O17 O 0.7543 0.90619 1.01976 0.0
O18 O 0.65438 0.86319 0.1468 0.0
O19 O 0.68538 0.84165 0.15904 0.0
C20 C 0.66511 0.84879 0.18387 0.0
C21 C 0.75827 0.8302 0.03593 0.0
C22 C 0.74149 0.92315 0.03112 0.0
C23 C 0.6677 0.83104 0.94725 0.0
O24 O 0.69668 0.83793 0.94816 0.0
O25 O 0.65538 0.83692 0.99657 0.0
O26 O 0.76217 0.84683 0.98359 0.0
O27 O 0.73946 0.83019 0.08094 0.0
O28 O 0.05872 0.79804 0.14941 0.0
Cd29 Cd 0.1076 0.82155 0.16371 0.0
Cd30 Cd 0.09891 0.8658 0.11153 0.0
O31 O 0.05333 0.84056 0.14589 0.0
O32 O 0.11448 0.79418 0.2282 0.0
O33 O 0.12713 0.844 0.24861 0.0
C34 C 0.12513 0.81759 0.26861 0.0
C35 C 0.1288 0.92049 0.11185 0.0
C36 C 0.04089 0.81053 0.14752 0.0
C37 C 0.12667 0.837 1.02678 0.0
O38 O 0.10808 0.84852 0.02848 0.0
O39 O 0.13429 0.82824 0.07972 0.0
O40 O 0.10252 0.90618 0.07951 0.0
O41 O 0.13693 0.90379 0.14884 0.0
O42 O 0.26732 0.17533 0.98343 0.0
Cd43 Cd 0.29846 0.15912 0.96071 0.0
Cd44 Cd 0.24569 0.10424 1.01395 0.0
O45 O 0.2235 0.12875 0.98372 0.0
O46 O 0.3288 0.19122 0.89626 0.0
O47 O 0.29844 0.14021 0.87274 0.0
C48 C 0.31911 0.16869 0.85389 0.0
C49 C 0.21104 0.05035 0.03603 0.0
C50 C 0.23714 0.15881 0.98714 0.0
C51 C 0.30666 0.14166 0.09323 0.0
O52 O 0.27678 0.12323 0.09032 0.0
O53 O 0.32248 0.15602 0.04197 0.0
O54 O 0.20887 0.07226 0.06641 0.0
O55 O 0.23239 0.05868 0.99077 0.0
O56 O 0.79416 0.0718 0.94817 0.0
Cd57 Cd 0.81732 0.12009 0.92595 0.0
Cd58 Cd 0.86652 0.11523 0.97838 0.0
O59 O 0.83843 0.06911 0.95035 0.0
O60 O 0.79282 0.12898 0.85766 0.0
O61 O 0.84073 0.13463 0.83994 0.0
C62 C 0.81626 0.13606 0.81793 0.0
C63 C 0.92101 0.13446 0.98843 0.0
C64 C 0.8082 0.0554 0.95154 0.0
C65 C 0.83742 0.14634 0.05697 0.0
O66 O 0.85144 0.13004 0.05705 0.0
O67 O 0.825 0.14965 1.00447 0.0
O68 O 0.90074 0.11051 1.02245 0.0
O69 O 0.91046 0.14667 0.9452 0.0
O70 O 0.89917 0.70636 0.05073 0.0
Cd71 Cd 0.85275 0.67267 0.03144 0.0
Cd72 Cd 0.84101 0.72039 0.07442 0.0
O73 O 0.88985 0.74461 0.08187 0.0
O74 O 0.85489 0.64452 0.96226 0.0
O75 O 0.83174 0.67379 0.94607 0.0
C76 C 0.84072 0.65465 0.92282 0.0
C77 C 0.81787 0.75261 0.05909 0.0
C78 C 0.90909 0.73426 0.07229 0.0
C79 C 0.81658 0.65983 0.15646 0.0
O80 O 0.8178 0.68622 0.14481 0.0
O81 O 0.82862 0.64857 0.11638 0.0
O82 O 0.83166 0.75252 0.11295 0.0
O83 O 0.81761 0.73472 1.01228 0.0
O84 O 0.84047 0.59092 0.48049 0.0
Cd85 Cd 0.83241 0.6246 0.52884 0.0
Cd86 Cd 0.76838 0.58091 0.41693 0.0
O87 O 0.80173 0.56703 0.40537 0.0
O88 O 0.85922 0.64221 0.60948 0.0
O89 O 0.80632 0.61481 0.61172 0.0
C90 C 0.833 0.63034 0.64302 0.0
C91 C 0.71898 0.55046 0.37198 0.0
C92 C 0.82759 0.57181 0.4324 0.0
C93 C 0.80637 0.64568 0.43531 0.0
O94 O 0.78344 0.62225 0.46402 0.0
O95 O 0.83285 0.65831 0.46502 0.0
O96 O 0.74124 0.57365 0.33842 0.0
O97 O 0.72485 0.54566 0.43188 0.0
O98 O 0.39609 0.25747 0.43933 0.0
Cd99 Cd 0.37132 0.21053 0.4718 0.0
Cd100 Cd 0.42461 0.21278 0.42947 0.0
O101 O 0.44327 0.26086 0.43555 0.0
O102 O 0.34198 0.2071 0.54424 0.0
O103 O 0.38035 0.19473 0.55663 0.0
C104 C 0.35711 0.19729 0.58169 0.0
C105 C 0.45912 0.19175 0.43018 0.0
C106 C 0.42593 0.27367 0.42854 0.0
C107 C 0.36444 0.17949 0.34778 0.0
O108 O 0.39455 0.19329 0.35174 0.0
O109 O 0.34796 0.17945 0.39642 0.0
O110 O 0.46175 0.21286 0.38816 0.0
O111 O 0.43832 0.1842 0.4764 0.0
O112 O 0.73472 0.13179 0.41088 0.0
Cd113 Cd 0.78243 0.15716 0.43685 0.0
Cd114 Cd 0.77486 0.20386 0.39078 0.0
O115 O 0.72855 0.17381 0.41777 0.0
O116 O 0.79271 0.13355 0.50489 0.0
O117 O 0.7941 0.17936 0.52369 0.0
C118 C 0.79741 0.15588 0.54526 0.0
C119 C 0.79665 0.25866 0.39477 0.0
C120 C 0.71666 0.14403 0.41041 0.0
C121 C 0.80793 0.17954 0.30645 0.0
O122 O 0.78963 0.19137 0.30797 0.0
O123 O 0.81331 0.16837 0.35872 0.0
O124 O 0.77248 0.24151 0.35827 0.0
O125 O 0.80743 0.24457 0.43271 0.0
O126 O 0.91872 0.51883 0.32002 0.0
Cd127 Cd 0.94429 0.49593 0.29905 0.0
Cd128 Cd 0.89076 0.44868 0.34971 0.0
O129 O 0.87139 0.47597 0.32017 0.0
O130 O 0.97726 0.52403 0.2333 0.0
O131 O 0.9407 0.47425 0.21248 0.0
C132 C 0.9645 0.50085 0.19236 0.0
C133 C 0.86082 0.39353 0.34971 0.0
C134 C 0.88854 0.506 0.32291 0.0
C135 C 0.94886 0.47783 0.43373 0.0
O136 O 0.91868 0.46434 0.43166 0.0
O137 O 0.96525 0.4887 0.38135 0.0
O138 O 0.85267 0.41026 0.38494 0.0
O139 O 0.88508 0.4081 0.31101 0.0
O140 O 0.46234 0.4059 0.27163 0.0
Cd141 Cd 0.48239 0.4524 0.23652 0.0
Cd142 Cd 0.53549 0.45355 0.2778 0.0
O143 O 0.50774 0.4055 0.26803 0.0
O144 O 0.45694 0.4577 0.16506 0.0
O145 O 0.50557 0.46457 0.15014 0.0
C146 C 0.48074 0.46475 0.12629 0.0
C147 C 0.59073 0.47414 0.28128 0.0
C148 C 0.47793 0.39117 0.27899 0.0
C149 C 0.50708 0.48534 0.3588 0.0
O150 O 0.52391 0.47194 0.35613 0.0
O151 O 0.49059 0.48469 0.30948 0.0
O152 O 0.57168 0.45266 0.32161 0.0
O153 O 0.57832 0.48262 0.23453 0.0
O154 O 0.58498 0.06367 0.24589 0.0
Cd155 Cd 0.54286 0.03182 0.19637 0.0
Cd156 Cd 0.52477 0.07794 0.306 0.0
O157 O 0.57089 0.08849 0.3203 0.0
O158 O 0.55074 0.01305 0.11587 0.0
O159 O 0.52771 0.04303 0.11296 0.0
C160 C 0.53756 0.02623 0.08195 0.0
C161 C 0.50807 0.11106 0.34808 0.0
C162 C 0.59138 0.08245 0.29469 0.0
C163 C 0.49571 0.01287 0.2889 0.0
O164 O 0.49709 0.03675 0.25965 0.0
O165 O 0.50875 -0.00079 0.25985 0.0
O166 O 0.50561 0.08735 0.38274 0.0
O167 O 0.51911 0.11502 0.28877 0.0
O168 O 0.5213 0.94662 0.67526 0.0
Cd169 Cd 0.51183 0.98289 0.69365 0.0
Cd170 Cd 0.45123 0.93886 0.64842 0.0
O171 O 0.47348 0.91226 0.63845 0.0
O172 O 0.54312 0.00977 0.76285 0.0
O173 O 0.49088 0.98401 0.77881 0.0
C174 C 0.51926 0.00151 0.80215 0.0
C175 C 0.39603 0.90772 0.66288 0.0
C176 C 0.50217 0.91978 0.65064 0.0
C177 C 0.49032 -0.00102 0.56826 0.0
O178 O 0.46371 0.97441 0.58028 0.0
O179 O 0.51365 0.00768 0.60787 0.0
O180 O 0.40956 0.90876 0.60816 0.0
O181 O 0.41382 0.9245 0.71061 0.0
O182 O 0.06005 0.58154 0.79332 0.0
Cd183 Cd 0.02746 0.53435 0.81433 0.0
Cd184 Cd 0.07795 0.52946 0.75023 0.0
O185 O 0.1018 0.57761 0.76199 0.0
O186 O -0.00088 0.53674 0.88309 0.0
O187 O 0.02716 0.51237 0.89988 0.0
C188 C 0.00777 0.52126 0.92224 0.0
C189 C 0.10924 0.50573 0.73205 0.0
C190 C 0.08894 0.59441 0.77428 0.0
C191 C 0.01267 0.50512 0.68381 0.0
O192 O 0.04176 0.51239 0.68372 0.0
O193 O 9e-05 0.50946 0.73464 0.0
O194 O 0.10837 0.5255 0.69082 0.0
O195 O 0.09354 0.50043 0.78621 0.0
O196 O 0.40444 0.46437 0.7201 0.0
Cd197 Cd 0.45242 0.48959 0.74381 0.0
Cd198 Cd 0.44349 0.53664 0.69936 0.0
O199 O 0.39822 0.50619 0.73108 0.0
O200 O 0.46284 0.4656 0.81086 0.0
O201 O 0.46385 0.51111 0.83129 0.0
C202 C 0.46695 0.48739 0.85219 0.0
C203 C 0.4618 0.591 0.69386 0.0
C204 C 0.38629 0.47647 0.72277 0.0
C205 C 0.47646 0.51278 0.61293 0.0
O206 O 0.45736 0.52361 0.61629 0.0
O207 O 0.48294 0.50188 0.66428 0.0
O208 O 0.43706 0.57116 0.6618 0.0
O209 O 0.47512 0.57996 0.73323 0.0
O210 O 0.57832 0.84552 0.57365 0.0
Cd211 Cd 0.60164 0.81983 0.55937 0.0
Cd212 Cd 0.54686 0.77735 0.61375 0.0
O213 O 0.52932 0.80532 0.57848 0.0
O214 O 0.63667 0.84752 0.49718 0.0
O215 O 0.5991 0.79869 0.4726 0.0
C216 C 0.62384 0.82505 0.45473 0.0
C217 C 0.51777 0.72247 0.6193 0.0
C218 C 0.54844 0.83507 0.57608 0.0
C219 C 0.60457 0.80445 0.69699 0.0
O220 O 0.57481 0.7943 0.69502 0.0
O221 O 0.62081 0.81206 0.6441 0.0
O222 O 0.50874 0.73965 0.65056 0.0
O223 O 0.54195 0.73639 0.58013 0.0
O224 O 0.13884 0.73866 0.67035 0.0
Cd225 Cd 0.1539 0.78578 0.64782 0.0
Cd226 Cd 0.20644 0.79131 0.70503 0.0
O227 O 0.1847 0.74278 0.70042 0.0
O228 O 0.12382 0.78364 0.57791 0.0
O229 O 0.17609 0.80712 0.56285 0.0
C230 C 0.14807 0.79854 0.53945 0.0
C231 C 0.26087 0.82288 0.68764 0.0
C232 C 0.15497 0.72586 0.69012 0.0
C233 C 0.16778 0.81495 0.77766 0.0
O234 O 0.18969 0.80765 0.77798 0.0
O235 O 0.15119 0.81096 0.72635 0.0
O236 O 0.24985 0.80497 0.73897 0.0
O237 O 0.24086 0.8217 0.64388 0.0
O238 O 0.2443 0.37972 0.60986 0.0
Cd239 Cd 0.19715 0.3488 0.58626 0.0
Cd240 Cd 0.1901 0.3987 0.64508 0.0
O241 O 0.23863 0.4201 0.64238 0.0
O242 O 0.19828 0.32155 0.51443 0.0
O243 O 0.17633 0.35221 0.50263 0.0
C244 C 0.18387 0.33234 0.47755 0.0
C245 C 0.17038 0.43356 0.66384 0.0
C246 C 0.25616 0.40784 0.63181 0.0
C247 C 0.16245 0.33293 0.7117 0.0
O248 O 0.1684 0.36152 0.70915 0.0
O249 O 0.17032 0.32114 0.66457 0.0
O250 O 0.18722 0.42886 0.70647 0.0
O251 O 0.16562 0.41951 0.60815 0.0
C252 C 0.20122 0.32171 0.37034 0.0
C253 C 0.17756 0.32305 0.40787 0.0
H254 H 0.21449 0.31198 0.27678 0.0
C255 C 0.14812 0.31496 0.37851 0.0
H256 H 0.22414 0.32792 0.39181 0.0
C257 C 0.14217 0.30474 0.31308 0.0
C258 C 0.16606 0.30376 0.27544 0.0
H259 H 0.12948 0.31571 0.40663 0.0
H260 H 0.11908 0.29791 0.29174 0.0
C261 C 0.19574 0.31274 0.30451 0.0
C262 C 0.64544 0.86065 0.35686 0.0
C263 C 0.63554 0.83076 0.38616 0.0
H264 H 0.66166 0.88928 0.26935 0.0
C265 C 0.63597 0.8067 0.34872 0.0
H266 H 0.64511 0.87953 0.38443 0.0
C267 C 0.64654 0.81268 0.28319 0.0
C268 C 0.65551 0.84236 0.25363 0.0
H269 H 0.62841 0.78345 0.37023 0.0
H270 H 0.64685 0.79392 0.25516 0.0
C271 C 0.65475 0.86619 0.291 0.0
C272 C 0.16343 0.83283 0.43752 0.0
C273 C 0.14332 0.80386 0.46978 0.0
H274 H 0.17285 0.86038 0.34831 0.0
C275 C 0.11791 0.77956 0.43511 0.0
H276 H 0.18313 0.85193 0.46341 0.0
C277 C 0.11279 0.78394 0.36925 0.0
C278 C 0.13225 0.81312 0.33726 0.0
H279 H 0.10217 0.75696 0.45882 0.0
H280 H 0.09301 0.7647 0.34375 0.0
C281 C 0.15752 0.83767 0.37199 0.0
C282 C 0.34592 0.16262 0.68196 0.0
C283 C 0.34836 0.19002 0.65173 0.0
H284 H 0.3337 0.13373 0.76975 0.0
C285 C 0.3417 0.2104 0.68865 0.0
H286 H 0.35082 0.14648 0.6543 0.0
C287 C 0.33311 0.20376 0.75482 0.0
C288 C 0.32981 0.17597 0.78477 0.0
H289 H 0.34347 0.2317 0.66647 0.0
H290 H 0.32822 0.21999 0.78219 0.0
C291 C 0.33607 0.1553 0.74771 0.0
C292 C 0.82242 0.13853 0.63253 0.0
C293 C 0.80491 0.15363 0.61491 0.0
H294 H 0.84063 0.12205 0.71092 0.0
C295 C 0.79289 0.16474 0.66465 0.0
H296 H 0.83198 0.12979 0.59509 0.0
C297 C 0.79703 0.15947 0.7308 0.0
C298 C 0.81418 0.14398 0.74841 0.0
H299 H 0.77916 0.17629 0.6524 0.0
H300 H 0.78656 0.16725 0.76822 0.0
C301 C 0.82748 0.13422 0.69869 0.0
C302 C 0.86021 0.64128 0.82064 0.0
C303 C 0.83724 0.64646 0.852 0.0
H304 H 0.87725 0.63291 0.72995 0.0
C305 C 0.81219 0.64531 0.81431 0.0
H306 H 0.87994 0.64228 0.84817 0.0
C307 C 0.81014 0.63898 0.74674 0.0
C308 C 0.83374 0.63483 0.71516 0.0
H309 H 0.79419 0.64926 0.83707 0.0
H310 H 0.79066 0.63831 0.71883 0.0
C311 C 0.85877 0.63607 0.75287 0.0
C312 C -0.01511 0.53468 0.09149 0.0
C313 C 0.97581 0.50554 0.12348 0.0
H314 H 0.00121 0.56199 1.00231 0.0
C315 C 0.97738 0.48134 0.08883 0.0
H316 H -0.01626 0.55368 0.11689 0.0
C317 C -0.01154 0.48651 1.02365 0.0
C318 C -0.00312 0.51549 0.99144 0.0
H319 H 0.97054 0.45866 0.11244 0.0
H320 H -0.01018 0.46769 0.99805 0.0
C321 C -0.00525 0.53939 1.02588 0.0
C322 C 0.46256 0.48827 0.03756 0.0
C323 C 0.47924 0.47247 0.05636 0.0
H324 H 0.44655 0.50633 0.95811 0.0
C325 C 0.49345 0.46319 1.00763 0.0
H326 H 0.4515 0.4958 0.07421 0.0
C327 C 0.48985 0.46843 0.94111 0.0
C328 C 0.47296 0.48404 0.92231 0.0
H329 H 0.50636 0.45089 1.02082 0.0
H330 H 0.50012 0.46011 0.90433 0.0
C331 C 0.4599 0.49447 0.97123 0.0
C332 C 0.50656 0.01953 0.97782 0.0
C333 C 0.5335 0.02171 1.00975 0.0
H334 H 0.48047 0.01068 0.88734 0.0
C335 C 0.55612 0.01842 0.97235 0.0
H336 H 0.48864 0.02179 1.00545 0.0
C337 C 0.55196 0.01311 0.90461 0.0
C338 C 0.52455 0.00988 0.87292 0.0
H339 H 0.57713 0.02003 0.9955 0.0
H340 H 0.56978 0.0105 0.87736 0.0
C341 C 0.50185 0.0131 0.9103 0.0
C342 C 0.14492 0.3186 0.89297 0.0
C343 C 0.13974 0.28761 0.90083 0.0
H344 H 0.155 0.35677 0.82668 0.0
C345 C 0.13879 0.27025 0.84491 0.0
H346 H 0.14539 0.33234 0.93504 0.0
C347 C 0.14464 0.28428 0.78251 0.0
C348 C 0.15103 0.31575 0.7749 0.0
H349 H 0.1347 0.24616 0.84952 0.0
H350 H 0.14515 0.27087 0.74073 0.0
C351 C 0.15019 0.33242 0.83061 0.0
C352 C 0.60314 0.80674 0.81928 0.0
C353 C 0.61994 0.80841 0.76156 0.0
H354 H 0.60495 0.81242 0.92357 0.0
C355 C 0.65149 0.81465 0.76637 0.0
H356 H 0.57866 0.80181 0.81722 0.0
C357 C 0.66634 0.82023 0.82745 0.0
C358 C 0.65006 0.82011 0.8849 0.0
H359 H 0.66491 0.81576 0.72291 0.0
H360 H 0.69104 0.82584 0.82914 0.0
C361 C 0.61811 0.8127 0.88034 0.0
C362 C 0.12488 0.83673 0.90418 0.0
C363 C 0.13868 0.83355 0.96274 0.0
H364 H 0.12332 0.8335 0.79935 0.0
C365 C 0.16374 0.82677 0.95941 0.0
H366 H 0.10554 0.8421 0.9052 0.0
C367 C 0.17418 0.82237 0.89876 0.0
C368 C 0.15952 0.82422 0.84024 0.0
H369 H 0.17505 0.82453 1.00357 0.0
H370 H 0.19313 0.81644 0.89815 0.0
C371 C 0.13507 0.83194 0.84344 0.0
C372 C 0.31641 0.14841 0.27743 0.0
C373 C 0.34959 0.1666 0.28371 0.0
H374 H 0.2769 0.12582 0.21223 0.0
C375 C 0.36882 0.17447 0.22699 0.0
H376 H 0.30103 0.14191 0.32013 0.0
C377 C 0.35507 0.16566 0.16494 0.0
C378 C 0.32184 0.14839 0.15849 0.0
H379 H 0.39457 0.1885 0.23012 0.0
H380 H 0.37041 0.17295 0.12209 0.0
C381 C 0.30268 0.13919 0.21547 0.0
C382 C 0.8162 0.17516 0.12322 0.0
C383 C 0.83363 0.15904 0.11977 0.0
H384 H 0.7948 0.19475 0.18523 0.0
C385 C 0.84565 0.15299 0.178 0.0
H386 H 0.80686 0.18038 0.07925 0.0
C387 C 0.83865 0.16107 0.23876 0.0
C388 C 0.81964 0.1755 0.24249 0.0
H389 H 0.85948 0.14088 0.17702 0.0
H390 H 0.84713 0.1549 0.28282 0.0
C391 C 0.80935 0.1834 0.18404 0.0
C392 C 0.78489 0.65061 0.25867 0.0
C393 C 0.80858 0.64766 0.22445 0.0
H394 H 0.76566 0.65215 0.35269 0.0
C395 C 0.83013 0.64171 0.2601 0.0
H396 H 0.76831 0.65569 0.23237 0.0
C397 C 0.82949 0.64116 0.32879 0.0
C398 C 0.80686 0.64584 0.36289 0.0
H399 H 0.84905 0.64004 0.23515 0.0
H400 H 0.84705 0.63764 0.35529 0.0
C401 C 0.78375 0.64922 0.32732 0.0
C402 C 0.94736 0.47894 0.55634 0.0
C403 C 0.9645 0.48225 0.49813 0.0
H404 H 0.94907 0.48364 0.66104 0.0
C405 C -0.00325 0.49084 0.50218 0.0
H406 H 0.92237 0.47232 0.55474 0.0
C407 C 0.01181 0.49681 0.56303 0.0
C408 C -0.00492 0.49482 0.62116 0.0
H409 H 0.01047 0.49333 0.45832 0.0
H410 H 0.03695 0.50402 0.56405 0.0
C411 C 0.96257 0.48539 0.61729 0.0
C412 C 0.4765 0.5176 0.4908 0.0
C413 C 0.48833 0.5103 0.54783 0.0
H414 H 0.47323 0.5156 0.38601 0.0
C415 C 0.50952 0.4985 0.54144 0.0
H416 H 0.4603 0.52702 0.49398 0.0
C417 C 0.51721 0.49233 0.47936 0.0
C418 C 0.50358 0.49753 0.42254 0.0
H419 H 0.51926 0.49294 0.58435 0.0
H420 H 0.53265 0.48202 0.47629 0.0
C421 C 0.48393 0.51114 0.42877 0.0
C422 C 0.46998 0.01063 0.46493 0.0
C423 C 0.49542 0.01112 0.49999 0.0
H424 H 0.45033 0.01093 0.37026 0.0
C425 C 0.52205 0.01457 0.46506 0.0
H426 H 0.44897 0.00753 0.4906 0.0
C427 C 0.52215 0.01506 0.39634 0.0
C428 C 0.49592 0.01282 0.3614 0.0
H429 H 0.5417 0.01435 0.4906 0.0
H430 H 0.54249 0.01664 0.3705 0.0
C431 C 0.47046 0.01194 0.39623 0.0
C432 C 0.21641 0.21993 0.0487 0.0
C433 C 0.18382 0.20086 0.06359 0.0
H434 H 0.25869 0.22179 1.01113 0.0
C435 C 0.16876 0.1681 0.0508 0.0
H436 H 0.22865 0.24533 0.05723 0.0
C437 C 0.18581 0.15474 1.02323 0.0
C438 C 0.21838 0.17378 1.00818 0.0
H439 H 0.14359 0.15277 0.06088 0.0
H440 H 0.17347 0.12934 1.01462 0.0
C441 C 0.23352 0.20653 1.02129 0.0
C442 C 0.75833 0.00663 0.98862 0.0
C443 C 0.79013 0.02097 0.96688 0.0
H444 H 0.7182 0.96466 0.0275 0.0
C445 C 0.80578 0.00296 0.96711 0.0
H446 H 0.74572 0.01997 0.98977 0.0
C447 C 0.79017 0.97145 0.98927 0.0
C448 C 0.75855 0.95719 1.01196 0.0
H449 H 0.83034 0.01332 0.95101 0.0
H450 H 0.80298 0.95829 0.98858 0.0
C451 C 0.74272 0.97507 1.01115 0.0
C452 C 0.96261 0.74023 0.09663 0.0
C453 C 0.94279 0.75384 0.09198 0.0
H454 H 0.00884 0.74718 0.11982 0.0
C455 C 0.95491 0.78573 0.11028 0.0
H456 H 0.95387 0.71559 0.08385 0.0
C457 C -0.01355 0.80385 0.13125 0.0
C458 C 0.00643 0.79037 0.13483 0.0
H459 H 0.94014 0.79682 0.10787 0.0
H460 H -0.00466 0.82859 0.14339 0.0
C461 C -0.00597 0.75825 0.11816 0.0
C462 C 0.79301 0.78191 0.10923 0.0
C463 C 0.80253 0.77233 0.05265 0.0
H464 H 0.77109 0.80747 0.14828 0.0
C465 C 0.79752 0.782 0.99075 0.0
H466 H 0.79647 0.77461 0.15762 0.0
C467 C 0.78363 0.80135 0.9856 0.0
C468 C 0.77385 0.8107 0.04217 0.0
H469 H 0.80472 0.77499 0.94648 0.0
H470 H 0.78009 0.80859 0.9372 0.0
C471 C 0.77845 0.80063 0.10399 0.0
C472 C 0.18275 0.96507 0.08483 0.0
C473 C 0.15054 0.95437 0.09934 0.0
H474 H 0.2271 0.00399 0.05031 0.0
C475 C 0.13837 0.97524 0.09224 0.0
H476 H 0.19237 0.94905 0.0887 0.0
C477 C 0.15822 0.00656 0.0715 0.0
C478 C 0.19016 0.01702 0.05505 0.0
H479 H 0.11346 0.96723 0.10227 0.0
H480 H 0.14847 0.02246 0.06708 0.0
C481 C 0.20236 -0.00386 0.06181 0.0
C482 C 0.97385 0.18186 1.00962 0.0
C483 C 0.95505 0.14876 1.00345 0.0
H484 H 0.0197 0.22086 0.03489 0.0
C485 C 0.96811 0.12919 1.01863 0.0
H486 H 0.96395 0.19728 0.99932 0.0
C487 C -7e-05 0.14262 0.03784 0.0
C488 C 0.01865 0.17567 0.04476 0.0
H489 H 0.9538 0.10355 1.0149 0.0
H490 H 0.00995 0.12722 0.04725 0.0
C491 C 0.00538 0.19522 0.03113 0.0
C492 C 0.82589 0.5278 0.36649 0.0
C493 C 0.84361 0.55547 0.40366 0.0
H494 H 0.82631 0.49069 0.3109 0.0
C495 C 0.87672 0.56816 0.4093 0.0
H496 H 0.80034 0.51755 0.36081 0.0
C497 C 0.89171 0.55316 0.37916 0.0
C498 C 0.87377 0.5249 0.34383 0.0
H499 H 0.89104 0.58974 0.43668 0.0
H500 H 0.91716 0.56302 0.3858 0.0
C501 C 0.84077 0.51254 0.33735 0.0
C502 C 0.43194 0.3454 0.33734 0.0
C503 C 0.4634 0.35991 0.31331 0.0
H504 H 0.39553 0.30715 0.39414 0.0
C505 C 0.48261 0.34656 0.33036 0.0
H506 H 0.41665 0.35533 0.32602 0.0
C507 C 0.47088 0.31962 0.37066 0.0
C508 C 0.43942 0.30495 0.39455 0.0
H509 H 0.50709 0.35723 0.31356 0.0
H510 H 0.48641 0.30996 0.38194 0.0
C511 C 0.42003 0.31813 0.37739 0.0
C512 C 0.63254 0.12307 0.36809 0.0
C513 C 0.62327 0.09719 0.32563 0.0
H514 H 0.66901 0.15767 0.42923 0.0
C515 C 0.644 0.08493 0.31626 0.0
H516 H 0.61708 0.133 0.37689 0.0
C517 C 0.6737 0.09882 0.34762 0.0
C518 C 0.68329 0.12543 0.38812 0.0
H519 H 0.63733 0.06472 0.28469 0.0
H520 H 0.68966 0.08957 0.33788 0.0
C521 C 0.66222 0.1371 0.39864 0.0
C522 C 0.50836 0.16262 0.34378 0.0
C523 C 0.4985 0.13326 0.3752 0.0
H524 H 0.50458 0.20468 0.33831 0.0
C525 C 0.47891 0.1252 0.43117 0.0
H526 H 0.52395 0.16977 0.30133 0.0
C527 C 0.46762 0.1453 0.45252 0.0
C528 C 0.47605 0.17382 0.41847 0.0
H529 H 0.47119 0.10278 0.4567 0.0
H530 H 0.4511 0.13775 0.49343 0.0
C531 C 0.49743 0.18276 0.36541 0.0
C532 C 0.84645 0.3105 0.38061 0.0
C533 C 0.81315 0.2934 0.38751 0.0
H534 H 0.88763 0.35582 0.36004 0.0
C535 C 0.79551 0.3092 0.37981 0.0
H536 H 0.8604 0.29857 0.38516 0.0
C537 C 0.81106 0.34187 0.36677 0.0
C538 C 0.84429 0.35886 0.35847 0.0
H539 H 0.76974 0.29628 0.38418 0.0
H540 H 0.79713 0.35383 0.3625 0.0
C541 C 0.86189 0.34297 0.36514 0.0
C542 C 0.63661 0.48088 0.34844 0.0
C543 C 0.62521 0.49117 0.2953 0.0
H544 H 0.67497 0.49175 0.41458 0.0
C545 C 0.64599 0.51999 0.26333 0.0
H546 H 0.62129 0.45867 0.3739 0.0
C547 C 0.67707 0.53902 0.28677 0.0
C548 C 0.68753 0.52957 0.3428 0.0
H549 H 0.63781 0.52855 0.2224 0.0
H550 H 0.69237 0.56167 0.26283 0.0
C551 C 0.66732 0.49996 0.37218 0.0
C552 C 0.50358 0.84648 0.59166 0.0
C553 C 0.5365 0.8574 0.58855 0.0
H554 H 0.46688 0.85754 0.61442 0.0
C555 C 0.55799 0.88909 0.60538 0.0
H556 H 0.48642 0.82215 0.57938 0.0
C557 C 0.54681 0.90914 0.62672 0.0
C558 C 0.51391 0.89808 0.6309 0.0
H559 H 0.58351 0.89821 0.60405 0.0
H560 H 0.56401 0.93336 0.6397 0.0
C561 C 0.4924 0.86668 0.61231 0.0
C562 C 0.10515 0.67609 0.72097 0.0
C563 C 0.13824 0.69192 0.70957 0.0
H564 H 0.06386 0.63327 0.75237 0.0
C565 C 0.15528 0.67584 0.72255 0.0
H566 H 0.09138 0.68796 0.7124 0.0
C567 C 0.13944 0.64438 0.74552 0.0
C568 C 0.10635 0.62861 0.75701 0.0
H569 H 0.18084 0.68752 0.71481 0.0
H570 H 0.15308 0.63235 0.75392 0.0
C571 C 0.08944 0.64488 0.74492 0.0
C572 C 0.33986 0.42677 0.67895 0.0
C573 C 0.3523 0.45757 0.70448 0.0
H574 H 0.29988 0.38703 0.63447 0.0
C575 C 0.33302 0.47184 0.70485 0.0
H576 H 0.35425 0.41526 0.6773 0.0
C577 C 0.30223 0.45597 0.67944 0.0
C578 C 0.28982 0.42534 0.65319 0.0
H579 H 0.34187 0.49561 0.72373 0.0
H580 H 0.28812 0.46779 0.68074 0.0
C581 C 0.3089 0.4108 0.65348 0.0
C582 C 0.14592 0.4668 0.63168 0.0
C583 C 0.15578 0.45304 0.68072 0.0
H584 H 0.12396 0.49494 0.60992 0.0
C585 C 0.15092 0.45731 0.74708 0.0
H586 H 0.14941 0.46384 0.58027 0.0
C587 C 0.13585 0.47454 0.7641 0.0
C588 C 0.1261 0.4884 0.71509 0.0
H589 H 0.15813 0.44673 0.78593 0.0
H590 H 0.1319 0.47705 0.81548 0.0
C591 C 0.13153 0.48467 0.64876 0.0
C592 C 0.50921 0.64334 0.66837 0.0
C593 C 0.47622 0.62511 0.67919 0.0
H594 H 0.54806 0.68844 0.63759 0.0
C595 C 0.45676 0.63868 0.66768 0.0
H596 H 0.52453 0.63307 0.67571 0.0
C597 C 0.47022 0.67037 0.647 0.0
C598 C 0.50311 0.68841 0.63486 0.0
H599 H 0.43118 0.62481 0.67493 0.0
H600 H 0.45494 0.68072 0.64002 0.0
C601 C 0.52251 0.67468 0.64538 0.0
C602 C 0.30899 0.85728 0.61951 0.0
C603 C 0.29535 0.84497 0.6811 0.0
H604 H 0.35183 0.88673 0.56561 0.0
C605 C 0.31487 0.85435 0.73719 0.0
H606 H 0.29445 0.85052 0.57561 0.0
C607 C 0.34755 0.87559 0.73174 0.0
C608 C 0.3613 0.88724 0.66994 0.0
H609 H 0.30485 0.84544 0.78545 0.0
H610 H 0.36212 0.88227 0.77559 0.0
C611 C 0.34177 0.87797 0.6139 0.0
loop_
_geom_bond_atom_site_label_1
_geom_bond_atom_site_label_2
_geom_bond_distance
_geom_bond_site_symmetry_2
_ccdc_geom_bond_type
O0 Cd1 2.223 . S
O0 C8 1.315 . S
Cd1 O0 2.223 . S
Cd1 O4 2.297 . S
Cd1 O5 2.439 . S
Cd1 O11 2.240 1_554 S
Cd2 O3 2.240 . S
Cd2 O10 2.223 1_554 S
Cd2 O12 2.297 1_554 S
Cd2 O13 2.439 . S
O3 Cd2 2.240 . S
O3 C8 1.279 . S
O4 Cd1 2.297 . S
O4 C6 1.247 . S
O5 Cd1 2.439 . S
O5 C6 1.208 . S
C6 O4 1.247 . S
C6 O5 1.208 . S
C7 O12 1.247 1_554 S
C7 O13 1.208 . S
C8 O0 1.315 . S
C8 O3 1.279 . S
C9 O10 1.315 . S
C9 O11 1.279 . S
O10 Cd2 2.223 1_556 S
O10 C9 1.315 . S
O11 Cd1 2.240 1_556 S
O11 C9 1.279 . S
O12 Cd2 2.297 1_556 S
O12 C7 1.247 1_556 S
O13 Cd2 2.439 . S
O13 C7 1.208 . S
O14 Cd15 2.223 . S
O14 C22 1.315 . S
Cd15 O14 2.223 . S
Cd15 O18 2.297 . S
Cd15 O19 2.439 . S
Cd15 O25 2.240 1_554 S
Cd16 O17 2.240 . S
Cd16 O24 2.223 1_554 S
Cd16 O26 2.297 1_554 S
Cd16 O27 2.439 . S
O17 Cd16 2.240 . S
O17 C22 1.279 . S
O18 Cd15 2.297 . S
O18 C20 1.247 . S
O19 Cd15 2.439 . S
O19 C20 1.208 . S
C20 O18 1.247 . S
C20 O19 1.208 . S
C21 O26 1.247 1_554 S
C21 O27 1.208 . S
C22 O14 1.315 . S
C22 O17 1.279 . S
C23 O24 1.315 . S
C23 O25 1.279 . S
O24 Cd16 2.223 1_556 S
O24 C23 1.315 . S
O25 Cd15 2.240 1_556 S
O25 C23 1.279 . S
O26 Cd16 2.297 1_556 S
O26 C21 1.247 1_556 S
O27 Cd16 2.439 . S
O27 C21 1.208 . S
O28 Cd29 2.223 . S
O28 C36 1.315 . S
Cd29 O28 2.223 . S
Cd29 O32 2.297 . S
Cd29 O33 2.439 . S
Cd29 O39 2.240 1_554 S
Cd30 O31 2.240 . S
Cd30 O38 2.223 1_554 S
Cd30 O40 2.297 1_554 S
Cd30 O41 2.439 . S
O31 Cd30 2.240 . S
O31 C36 1.279 . S
O32 Cd29 2.297 . S
O32 C34 1.247 . S
O33 Cd29 2.439 . S
O33 C34 1.208 . S
C34 O32 1.247 . S
C34 O33 1.208 . S
C35 O40 1.247 1_554 S
C35 O41 1.208 . S
C36 O28 1.315 . S
C36 O31 1.279 . S
C37 O38 1.315 . S
C37 O39 1.279 . S
O38 Cd30 2.223 1_556 S
O38 C37 1.315 . S
O39 Cd29 2.240 1_556 S
O39 C37 1.279 . S
O40 Cd30 2.297 1_556 S
O40 C35 1.247 1_556 S
O41 Cd30 2.439 . S
O41 C35 1.208 . S
O42 Cd43 2.223 . S
O42 C50 1.315 . S
Cd43 O42 2.223 . S
Cd43 O46 2.297 . S
Cd43 O47 2.439 . S
Cd43 O53 2.240 1_556 S
Cd44 O45 2.240 . S
Cd44 O52 2.223 1_556 S
Cd44 O54 2.297 1_556 S
Cd44 O55 2.439 . S
O45 Cd44 2.240 . S
O45 C50 1.279 . S
O46 Cd43 2.297 . S
O46 C48 1.247 . S
O47 Cd43 2.439 . S
O47 C48 1.208 . S
C48 O46 1.247 . S
C48 O47 1.208 . S
C49 O54 1.247 1_556 S
C49 O55 1.208 . S
C50 O42 1.315 . S
C50 O45 1.279 . S
C51 O52 1.315 . S
C51 O53 1.279 . S
O52 Cd44 2.223 1_554 S
O52 C51 1.315 . S
O53 Cd43 2.240 1_554 S
O53 C51 1.279 . S
O54 Cd44 2.297 1_554 S
O54 C49 1.247 1_554 S
O55 Cd44 2.439 . S
O55 C49 1.208 . S
O56 Cd57 2.223 . S
O56 C64 1.315 . S
Cd57 O56 2.223 . S
Cd57 O60 2.297 . S
Cd57 O61 2.439 . S
Cd57 O67 2.240 1_556 S
Cd58 O59 2.240 . S
Cd58 O66 2.223 1_556 S
Cd58 O68 2.297 1_556 S
Cd58 O69 2.439 . S
O59 Cd58 2.240 . S
O59 C64 1.279 . S
O60 Cd57 2.297 . S
O60 C62 1.247 . S
O61 Cd57 2.439 . S
O61 C62 1.208 . S
C62 O60 1.247 . S
C62 O61 1.208 . S
C63 O68 1.247 1_556 S
C63 O69 1.208 . S
C64 O56 1.315 . S
C64 O59 1.279 . S
C65 O66 1.315 . S
C65 O67 1.279 . S
O66 Cd58 2.223 1_554 S
O66 C65 1.315 . S
O67 Cd57 2.240 1_554 S
O67 C65 1.279 . S
O68 Cd58 2.297 1_554 S
O68 C63 1.247 1_554 S
O69 Cd58 2.439 . S
O69 C63 1.208 . S
O70 Cd71 2.223 . S
O70 C78 1.315 . S
Cd71 O70 2.223 . S
Cd71 O74 2.297 . S
Cd71 O75 2.439 . S
Cd71 O81 2.240 1_556 S
Cd72 O73 2.240 . S
Cd72 O80 2.223 1_556 S
Cd72 O82 2.297 1_556 S
Cd72 O83 2.439 . S
O73 Cd72 2.240 . S
O73 C78 1.279 . S
O74 Cd71 2.297 . S
O74 C76 1.247 . S
O75 Cd71 2.439 . S
O75 C76 1.208 . S
C76 O74 1.247 . S
C76 O75 1.208 . S
C77 O82 1.247 1_556 S
C77 O83 1.208 . S
C78 O70 1.315 . S
C78 O73 1.279 . S
C79 O80 1.315 . S
C79 O81 1.279 . S
O80 Cd72 2.223 1_554 S
O80 C79 1.315 . S
O81 Cd71 2.240 1_554 S
O81 C79 1.279 . S
O82 Cd72 2.297 1_554 S
O82 C77 1.247 1_554 S
O83 Cd72 2.439 . S
O83 C77 1.208 . S
O84 Cd85 2.223 . S
O84 C92 1.315 . S
Cd85 O84 2.223 . S
Cd85 O88 2.297 . S
Cd85 O89 2.439 . S
Cd85 O95 2.240 . S
Cd86 O87 2.240 . S
Cd86 O94 2.223 . S
Cd86 O96 2.297 . S
Cd86 O97 2.439 . S
O87 Cd86 2.240 . S
O87 C92 1.279 . S
O88 Cd85 2.297 . S
O88 C90 1.247 . S
O89 Cd85 2.439 . S
O89 C90 1.208 . S
C90 O88 1.247 . S
C90 O89 1.208 . S
C91 O96 1.247 . S
C91 O97 1.208 . S
C92 O84 1.315 . S
C92 O87 1.279 . S
C93 O94 1.315 . S
C93 O95 1.279 . S
O94 Cd86 2.223 . S
O94 C93 1.315 . S
O95 Cd85 2.240 . S
O95 C93 1.279 . S
O96 Cd86 2.297 . S
O96 C91 1.247 . S
O97 Cd86 2.439 . S
O97 C91 1.208 . S
O98 Cd99 2.223 . S
O98 C106 1.315 . S
Cd99 O98 2.223 . S
Cd99 O102 2.297 . S
Cd99 O103 2.439 . S
Cd99 O109 2.240 . S
Cd100 O101 2.240 . S
Cd100 O108 2.223 . S
Cd100 O110 2.297 . S
Cd100 O111 2.439 . S
O101 Cd100 2.240 . S
O101 C106 1.279 . S
O102 Cd99 2.297 . S
O102 C104 1.247 . S
O103 Cd99 2.439 . S
O103 C104 1.208 . S
C104 O102 1.247 . S
C104 O103 1.208 . S
C105 O110 1.247 . S
C105 O111 1.208 . S
C106 O98 1.315 . S
C106 O101 1.279 . S
C107 O108 1.315 . S
C107 O109 1.279 . S
O108 Cd100 2.223 . S
O108 C107 1.315 . S
O109 Cd99 2.240 . S
O109 C107 1.279 . S
O110 Cd100 2.297 . S
O110 C105 1.247 . S
O111 Cd100 2.439 . S
O111 C105 1.208 . S
O112 Cd113 2.223 . S
O112 C120 1.315 . S
Cd113 O112 2.223 . S
Cd113 O116 2.297 . S
Cd113 O117 2.439 . S
Cd113 O123 2.240 . S
Cd114 O115 2.240 . S
Cd114 O122 2.223 . S
Cd114 O124 2.297 . S
Cd114 O125 2.439 . S
O115 Cd114 2.240 . S
O115 C120 1.279 . S
O116 Cd113 2.297 . S
O116 C118 1.247 . S
O117 Cd113 2.439 . S
O117 C118 1.208 . S
C118 O116 1.247 . S
C118 O117 1.208 . S
C119 O124 1.247 . S
C119 O125 1.208 . S
C120 O112 1.315 . S
C120 O115 1.279 . S
C121 O122 1.315 . S
C121 O123 1.279 . S
O122 Cd114 2.223 . S
O122 C121 1.315 . S
O123 Cd113 2.240 . S
O123 C121 1.279 . S
O124 Cd114 2.297 . S
O124 C119 1.247 . S
O125 Cd114 2.439 . S
O125 C119 1.208 . S
O126 Cd127 2.223 1_655 S
O126 C134 1.315 . S
Cd127 O126 2.223 1_455 S
Cd127 O130 2.297 . S
Cd127 O131 2.439 1_455 S
Cd127 O137 2.240 1_455 S
Cd128 O129 2.240 . S
Cd128 O136 2.223 . S
Cd128 O138 2.297 . S
Cd128 O139 2.439 . S
O129 Cd128 2.240 . S
O129 C134 1.279 . S
O130 Cd127 2.297 . S
O130 C132 1.247 1_455 S
O131 Cd127 2.439 1_655 S
O131 C132 1.208 . S
C132 O130 1.247 1_655 S
C132 O131 1.208 . S
C133 O138 1.247 . S
C133 O139 1.208 . S
C134 O126 1.315 . S
C134 O129 1.279 . S
C135 O136 1.315 . S
C135 O137 1.279 . S
O136 Cd128 2.223 . S
O136 C135 1.315 . S
O137 Cd127 2.240 1_655 S
O137 C135 1.279 . S
O138 Cd128 2.297 . S
O138 C133 1.247 . S
O139 Cd128 2.439 . S
O139 C133 1.208 . S
O140 Cd141 2.223 . S
O140 C148 1.315 . S
Cd141 O140 2.223 . S
Cd141 O144 2.297 . S
Cd141 O145 2.439 . S
Cd141 O151 2.240 . S
Cd142 O143 2.240 . S
Cd142 O150 2.223 . S
Cd142 O152 2.297 . S
Cd142 O153 2.439 . S
O143 Cd142 2.240 . S
O143 C148 1.279 . S
O144 Cd141 2.297 . S
O144 C146 1.247 . S
O145 Cd141 2.439 . S
O145 C146 1.208 . S
C146 O144 1.247 . S
C146 O145 1.208 . S
C147 O152 1.247 . S
C147 O153 1.208 . S
C148 O140 1.315 . S
C148 O143 1.279 . S
C149 O150 1.315 . S
C149 O151 1.279 . S
O150 Cd142 2.223 . S
O150 C149 1.315 . S
O151 Cd141 2.240 . S
O151 C149 1.279 . S
O152 Cd142 2.297 . S
O152 C147 1.247 . S
O153 Cd142 2.439 . S
O153 C147 1.208 . S
O154 Cd155 2.223 . S
O154 C162 1.315 . S
Cd155 O154 2.223 . S
Cd155 O158 2.297 . S
Cd155 O159 2.439 . S
Cd155 O165 2.240 . S
Cd156 O157 2.240 . S
Cd156 O164 2.223 . S
Cd156 O166 2.297 . S
Cd156 O167 2.439 . S
O157 Cd156 2.240 . S
O157 C162 1.279 . S
O158 Cd155 2.297 . S
O158 C160 1.247 . S
O159 Cd155 2.439 . S
O159 C160 1.208 . S
C160 O158 1.247 . S
C160 O159 1.208 . S
C161 O166 1.247 . S
C161 O167 1.208 . S
C162 O154 1.315 . S
C162 O157 1.279 . S
C163 O164 1.315 . S
C163 O165 1.279 . S
O164 Cd156 2.223 . S
O164 C163 1.315 . S
O165 Cd155 2.240 . S
O165 C163 1.279 . S
O166 Cd156 2.297 . S
O166 C161 1.247 . S
O167 Cd156 2.439 . S
O167 C161 1.208 . S
O168 Cd169 2.223 1_565 S
O168 C176 1.315 . S
Cd169 O168 2.223 1_545 S
Cd169 O172 2.297 . S
Cd169 O173 2.439 1_545 S
Cd169 O179 2.240 1_545 S
Cd170 O171 2.240 . S
Cd170 O178 2.223 . S
Cd170 O180 2.297 . S
Cd170 O181 2.439 . S
O171 Cd170 2.240 . S
O171 C176 1.279 . S
O172 Cd169 2.297 . S
O172 C174 1.247 1_545 S
O173 Cd169 2.439 1_565 S
O173 C174 1.208 . S
C174 O172 1.247 1_565 S
C174 O173 1.208 . S
C175 O180 1.247 . S
C175 O181 1.208 . S
C176 O168 1.315 . S
C176 O171 1.279 . S
C177 O178 1.315 . S
C177 O179 1.279 . S
O178 Cd170 2.223 . S
O178 C177 1.315 . S
O179 Cd169 2.240 1_565 S
O179 C177 1.279 . S
O180 Cd170 2.297 . S
O180 C175 1.247 . S
O181 Cd170 2.439 . S
O181 C175 1.208 . S
O182 Cd183 2.223 . S
O182 C190 1.315 . S
Cd183 O182 2.223 . S
Cd183 O186 2.297 . S
Cd183 O187 2.439 . S
Cd183 O193 2.240 . S
Cd184 O185 2.240 . S
Cd184 O192 2.223 . S
Cd184 O194 2.297 . S
Cd184 O195 2.439 . S
O185 Cd184 2.240 . S
O185 C190 1.279 . S
O186 Cd183 2.297 . S
O186 C188 1.247 . S
O187 Cd183 2.439 . S
O187 C188 1.208 . S
C188 O186 1.247 . S
C188 O187 1.208 . S
C189 O194 1.247 . S
C189 O195 1.208 . S
C190 O182 1.315 . S
C190 O185 1.279 . S
C191 O192 1.315 . S
C191 O193 1.279 . S
O192 Cd184 2.223 . S
O192 C191 1.315 . S
O193 Cd183 2.240 . S
O193 C191 1.279 . S
O194 Cd184 2.297 . S
O194 C189 1.247 . S
O195 Cd184 2.439 . S
O195 C189 1.208 . S
O196 Cd197 2.223 . S
O196 C204 1.315 . S
Cd197 O196 2.223 . S
Cd197 O200 2.297 . S
Cd197 O201 2.439 . S
Cd197 O207 2.240 . S
Cd198 O199 2.240 . S
Cd198 O206 2.223 . S
Cd198 O208 2.297 . S
Cd198 O209 2.439 . S
O199 Cd198 2.240 . S
O199 C204 1.279 . S
O200 Cd197 2.297 . S
O200 C202 1.247 . S
O201 Cd197 2.439 . S
O201 C202 1.208 . S
C202 O200 1.247 . S
C202 O201 1.208 . S
C203 O208 1.247 . S
C203 O209 1.208 . S
C204 O196 1.315 . S
C204 O199 1.279 . S
C205 O206 1.315 . S
C205 O207 1.279 . S
O206 Cd198 2.223 . S
O206 C205 1.315 . S
O207 Cd197 2.240 . S
O207 C205 1.279 . S
O208 Cd198 2.297 . S
O208 C203 1.247 . S
O209 Cd198 2.439 . S
O209 C203 1.208 . S
O210 Cd211 2.223 . S
O210 C218 1.315 . S
Cd211 O210 2.223 . S
Cd211 O214 2.297 . S
Cd211 O215 2.439 . S
Cd211 O221 2.240 . S
Cd212 O213 2.240 . S
Cd212 O220 2.223 . S
Cd212 O222 2.297 . S
Cd212 O223 2.439 . S
O213 Cd212 2.240 . S
O213 C218 1.279 . S
O214 Cd211 2.297 . S
O214 C216 1.247 . S
O215 Cd211 2.439 . S
O215 C216 1.208 . S
C216 O214 1.247 . S
C216 O215 1.208 . S
C217 O222 1.247 . S
C217 O223 1.208 . S
C218 O210 1.315 . S
C218 O213 1.279 . S
C219 O220 1.315 . S
C219 O221 1.279 . S
O220 Cd212 2.223 . S
O220 C219 1.315 . S
O221 Cd211 2.240 . S
O221 C219 1.279 . S
O222 Cd212 2.297 . S
O222 C217 1.247 . S
O223 Cd212 2.439 . S
O223 C217 1.208 . S
O224 Cd225 2.223 . S
O224 C232 1.315 . S
Cd225 O224 2.223 . S
Cd225 O228 2.297 . S
Cd225 O229 2.439 . S
Cd225 O235 2.240 . S
Cd226 O227 2.240 . S
Cd226 O234 2.223 . S
Cd226 O236 2.297 . S
Cd226 O237 2.439 . S
O227 Cd226 2.240 . S
O227 C232 1.279 . S
O228 Cd225 2.297 . S
O228 C230 1.247 . S
O229 Cd225 2.439 . S
O229 C230 1.208 . S
C230 O228 1.247 . S
C230 O229 1.208 . S
C231 O236 1.247 . S
C231 O237 1.208 . S
C232 O224 1.315 . S
C232 O227 1.279 . S
C233 O234 1.315 . S
C233 O235 1.279 . S
O234 Cd226 2.223 . S
O234 C233 1.315 . S
O235 Cd225 2.240 . S
O235 C233 1.279 . S
O236 Cd226 2.297 . S
O236 C231 1.247 . S
O237 Cd226 2.439 . S
O237 C231 1.208 . S
O238 Cd239 2.223 . S
O238 C246 1.315 . S
Cd239 O238 2.223 . S
Cd239 O242 2.297 . S
Cd239 O243 2.439 . S
Cd239 O249 2.240 . S
Cd240 O241 2.240 . S
Cd240 O248 2.223 . S
Cd240 O250 2.297 . S
Cd240 O251 2.439 . S
O241 Cd240 2.240 . S
O241 C246 1.279 . S
O242 Cd239 2.297 . S
O242 C244 1.247 . S
O243 Cd239 2.439 . S
O243 C244 1.208 . S
C244 O242 1.247 . S
C244 O243 1.208 . S
C245 O250 1.247 . S
C245 O251 1.208 . S
C246 O238 1.315 . S
C246 O241 1.279 . S
C247 O248 1.315 . S
C247 O249 1.279 . S
O248 Cd240 2.223 . S
O248 C247 1.315 . S
O249 Cd239 2.240 . S
O249 C247 1.279 . S
O250 Cd240 2.297 . S
O250 C245 1.247 . S
O251 Cd240 2.439 . S
O251 C245 1.208 . S
C252 C253 1.387 . S
C252 H256 0.950 . S
C252 C261 1.390 . S
C253 C252 1.387 . S
C253 C255 1.387 . S
H254 C261 0.950 . S
C255 C253 1.387 . S
C255 C257 1.390 . S
C255 H259 0.950 . S
H256 C252 0.950 . S
C257 C255 1.390 . S
C257 C258 1.387 . S
C257 H260 0.950 . S
C258 C257 1.387 . S
C258 C261 1.387 . S
H259 C255 0.950 . S
H260 C257 0.950 . S
C261 C252 1.390 . S
C261 H254 0.950 . S
C261 C258 1.387 . S
C262 C263 1.387 . S
C262 H266 0.950 . S
C262 C271 1.390 . S
C263 C262 1.387 . S
C263 C265 1.387 . S
H264 C271 0.950 . S
C265 C263 1.387 . S
C265 C267 1.390 . S
C265 H269 0.950 . S
H266 C262 0.950 . S
C267 C265 1.390 . S
C267 C268 1.387 . S
C267 H270 0.950 . S
C268 C267 1.387 . S
C268 C271 1.387 . S
H269 C265 0.950 . S
H270 C267 0.950 . S
C271 C262 1.390 . S
C271 H264 0.950 . S
C271 C268 1.387 . S
C272 C273 1.387 . S
C272 H276 0.950 . S
C272 C281 1.390 . S
C273 C272 1.387 . S
C273 C275 1.387 . S
H274 C281 0.950 . S
C275 C273 1.387 . S
C275 C277 1.390 . S
C275 H279 0.950 . S
H276 C272 0.950 . S
C277 C275 1.390 . S
C277 C278 1.387 . S
C277 H280 0.950 . S
C278 C277 1.387 . S
C278 C281 1.387 . S
H279 C275 0.950 . S
H280 C277 0.950 . S
C281 C272 1.390 . S
C281 H274 0.950 . S
C281 C278 1.387 . S
C282 C283 1.387 . S
C282 H286 0.950 . S
C282 C291 1.390 . S
C283 C282 1.387 . S
C283 C285 1.387 . S
H284 C291 0.950 . S
C285 C283 1.387 . S
C285 C287 1.390 . S
C285 H289 0.950 . S
H286 C282 0.950 . S
C287 C285 1.390 . S
C287 C288 1.387 . S
C287 H290 0.950 . S
C288 C287 1.387 . S
C288 C291 1.387 . S
H289 C285 0.950 . S
H290 C287 0.950 . S
C291 C282 1.390 . S
C291 H284 0.950 . S
C291 C288 1.387 . S
C292 C293 1.387 . S
C292 H296 0.950 . S
C292 C301 1.390 . S
C293 C292 1.387 . S
C293 C295 1.387 . S
H294 C301 0.950 . S
C295 C293 1.387 . S
C295 C297 1.390 . S
C295 H299 0.950 . S
H296 C292 0.950 . S
C297 C295 1.390 . S
C297 C298 1.387 . S
C297 H300 0.950 . S
C298 C297 1.387 . S
C298 C301 1.387 . S
H299 C295 0.950 . S
H300 C297 0.950 . S
C301 C292 1.390 . S
C301 H294 0.950 . S
C301 C298 1.387 . S
C302 C303 1.387 . S
C302 H306 0.950 . S
C302 C311 1.390 . S
C303 C302 1.387 . S
C303 C305 1.387 . S
H304 C311 0.950 . S
C305 C303 1.387 . S
C305 C307 1.390 . S
C305 H309 0.950 . S
H306 C302 0.950 . S
C307 C305 1.390 . S
C307 C308 1.387 . S
C307 H310 0.950 . S
C308 C307 1.387 . S
C308 C311 1.387 . S
H309 C305 0.950 . S
H310 C307 0.950 . S
C311 C302 1.390 . S
C311 H304 0.950 . S
C311 C308 1.387 . S
C312 C313 1.387 1_455 S
C312 H316 0.950 . S
C312 C321 1.390 1_554 S
C313 C312 1.387 1_655 S
C313 C315 1.387 . S
H314 C321 0.950 . S
C315 C313 1.387 . S
C315 C317 1.390 1_554 S
C315 H319 0.950 . S
H316 C312 0.950 . S
C317 C315 1.390 1_556 S
C317 C318 1.387 1_655 S
C317 H320 0.950 . S
C318 C317 1.387 1_455 S
C318 C321 1.387 . S
H319 C315 0.950 . S
H320 C317 0.950 . S
C321 C312 1.390 1_556 S
C321 H314 0.950 . S
C321 C318 1.387 . S
C322 C323 1.387 . S
C322 H326 0.950 . S
C322 C331 1.390 1_554 S
C323 C322 1.387 . S
C323 C325 1.387 . S
H324 C331 0.950 . S
C325 C323 1.387 . S
C325 C327 1.390 1_554 S
C325 H329 0.950 . S
H326 C322 0.950 . S
C327 C325 1.390 1_556 S
C327 C328 1.387 . S
C327 H330 0.950 . S
C328 C327 1.387 . S
C328 C331 1.387 . S
H329 C325 0.950 . S
H330 C327 0.950 . S
C331 C322 1.390 1_556 S
C331 H324 0.950 . S
C331 C328 1.387 . S
C332 C333 1.387 . S
C332 H336 0.950 . S
C332 C341 1.390 1_554 S
C333 C332 1.387 . S
C333 C335 1.387 . S
H334 C341 0.950 1_565 S
C335 C333 1.387 . S
C335 C337 1.390 1_554 S
C335 H339 0.950 . S
H336 C332 0.950 . S
C337 C335 1.390 1_556 S
C337 C338 1.387 1_545 S
C337 H340 0.950 1_545 S
C338 C337 1.387 1_565 S
C338 C341 1.387 1_565 S
H339 C335 0.950 . S
H340 C337 0.950 1_565 S
C341 C332 1.390 1_556 S
C341 H334 0.950 1_545 S
C341 C338 1.387 1_545 S
C342 C343 1.387 . S
C342 H346 0.950 . S
C342 C351 1.390 . S
C343 C342 1.387 . S
C343 C345 1.387 . S
H344 C351 0.950 . S
C345 C343 1.387 . S
C345 C347 1.390 . S
C345 H349 0.950 . S
H346 C342 0.950 . S
C347 C345 1.390 . S
C347 C348 1.387 . S
C347 H350 0.950 . S
C348 C347 1.387 . S
C348 C351 1.387 . S
H349 C345 0.950 . S
H350 C347 0.950 . S
C351 C342 1.390 . S
C351 H344 0.950 . S
C351 C348 1.387 . S
C352 C353 1.387 . S
C352 H356 0.950 . S
C352 C361 1.390 . S
C353 C352 1.387 . S
C353 C355 1.387 . S
H354 C361 0.950 . S
C355 C353 1.387 . S
C355 C357 1.390 . S
C355 H359 0.950 . S
H356 C352 0.950 . S
C357 C355 1.390 . S
C357 C358 1.387 . S
C357 H360 0.950 . S
C358 C357 1.387 . S
C358 C361 1.387 . S
H359 C355 0.950 . S
H360 C357 0.950 . S
C361 C352 1.390 . S
C361 H354 0.950 . S
C361 C358 1.387 . S
C362 C363 1.387 . S
C362 H366 0.950 . S
C362 C371 1.390 . S
C363 C362 1.387 . S
C363 C365 1.387 . S
H364 C371 0.950 . S
C365 C363 1.387 . S
C365 C367 1.390 . S
C365 H369 0.950 . S
H366 C362 0.950 . S
C367 C365 1.390 . S
C367 C368 1.387 . S
C367 H370 0.950 . S
C368 C367 1.387 . S
C368 C371 1.387 . S
H369 C365 0.950 . S
H370 C367 0.950 . S
C371 C362 1.390 . S
C371 H364 0.950 . S
C371 C368 1.387 . S
C372 C373 1.387 . S
C372 H376 0.950 . S
C372 C381 1.390 . S
C373 C372 1.387 . S
C373 C375 1.387 . S
H374 C381 0.950 . S
C375 C373 1.387 . S
C375 C377 1.390 . S
C375 H379 0.950 . S
H376 C372 0.950 . S
C377 C375 1.390 . S
C377 C378 1.387 . S
C377 H380 0.950 . S
C378 C377 1.387 . S
C378 C381 1.387 . S
H379 C375 0.950 . S
H380 C377 0.950 . S
C381 C372 1.390 . S
C381 H374 0.950 . S
C381 C378 1.387 . S
C382 C383 1.387 . S
C382 H386 0.950 . S
C382 C391 1.390 . S
C383 C382 1.387 . S
C383 C385 1.387 . S
H384 C391 0.950 . S
C385 C383 1.387 . S
C385 C387 1.390 . S
C385 H389 0.950 . S
H386 C382 0.950 . S
C387 C385 1.390 . S
C387 C388 1.387 . S
C387 H390 0.950 . S
C388 C387 1.387 . S
C388 C391 1.387 . S
H389 C385 0.950 . S
H390 C387 0.950 . S
C391 C382 1.390 . S
C391 H384 0.950 . S
C391 C388 1.387 . S
C392 C393 1.387 . S
C392 H396 0.950 . S
C392 C401 1.390 . S
C393 C392 1.387 . S
C393 C395 1.387 . S
H394 C401 0.950 . S
C395 C393 1.387 . S
C395 C397 1.390 . S
C395 H399 0.950 . S
H396 C392 0.950 . S
C397 C395 1.390 . S
C397 C398 1.387 . S
C397 H400 0.950 . S
C398 C397 1.387 . S
C398 C401 1.387 . S
H399 C395 0.950 . S
H400 C397 0.950 . S
C401 C392 1.390 . S
C401 H394 0.950 . S
C401 C398 1.387 . S
C402 C403 1.387 . S
C402 H406 0.950 . S
C402 C411 1.390 1_655 S
C403 C402 1.387 . S
C403 C405 1.387 1_655 S
H404 C411 0.950 . S
C405 C403 1.387 1_455 S
C405 C407 1.390 . S
C405 H409 0.950 . S
H406 C402 0.950 . S
C407 C405 1.390 . S
C407 C408 1.387 . S
C407 H410 0.950 . S
C408 C407 1.387 . S
C408 C411 1.387 . S
H409 C405 0.950 . S
H410 C407 0.950 . S
C411 C402 1.390 1_455 S
C411 H404 0.950 . S
C411 C408 1.387 . S
C412 C413 1.387 . S
C412 H416 0.950 . S
C412 C421 1.390 . S
C413 C412 1.387 . S
C413 C415 1.387 . S
H414 C421 0.950 . S
C415 C413 1.387 . S
C415 C417 1.390 . S
C415 H419 0.950 . S
H416 C412 0.950 . S
C417 C415 1.390 . S
C417 C418 1.387 . S
C417 H420 0.950 . S
C418 C417 1.387 . S
C418 C421 1.387 . S
H419 C415 0.950 . S
H420 C417 0.950 . S
C421 C412 1.390 . S
C421 H414 0.950 . S
C421 C418 1.387 . S
C422 C423 1.381 1_545 S
C422 H426 0.953 1_545 S
C422 C431 1.393 . S
C423 C422 1.381 1_565 S
C423 C425 1.397 1_565 S
H424 C431 0.950 . S
C425 C423 1.397 1_545 S
C425 C427 1.398 . S
C425 H429 0.932 1_545 S
H426 C422 0.953 1_565 S
C427 C425 1.398 . S
C427 C428 1.387 . S
C427 H430 0.950 . S
C428 C427 1.387 . S
C428 C431 1.387 . S
H429 C425 0.932 1_565 S
H430 C427 0.950 . S
C431 C422 1.393 . S
C431 H424 0.950 . S
C431 C428 1.387 . S
C432 C433 1.387 . S
C432 H436 0.950 . S
C432 C441 1.390 . S
C433 C432 1.387 . S
C433 C435 1.387 1_554 S
H434 C441 0.950 . S
C435 C433 1.387 1_556 S
C435 C437 1.390 . S
C435 H439 0.950 . S
H436 C432 0.950 . S
C437 C435 1.390 . S
C437 C438 1.387 . S
C437 H440 0.950 . S
C438 C437 1.387 . S
C438 C441 1.387 1_556 S
H439 C435 0.950 . S
H440 C437 0.950 . S
C441 C432 1.390 . S
C441 H434 0.950 . S
C441 C438 1.387 1_554 S
C442 C443 1.387 . S
C442 H446 0.950 . S
C442 C451 1.390 1_546 S
C443 C442 1.387 . S
C443 C445 1.387 . S
H444 C451 0.950 . S
C445 C443 1.387 . S
C445 C447 1.390 1_546 S
C445 H449 0.950 . S
H446 C442 0.950 . S
C447 C445 1.390 1_564 S
C447 C448 1.387 . S
C447 H450 0.950 . S
C448 C447 1.387 . S
C448 C451 1.387 . S
H449 C445 0.950 . S
H450 C447 0.950 . S
C451 C442 1.390 1_564 S
C451 H444 0.950 . S
C451 C448 1.387 . S
C452 C453 1.387 1_554 S
C452 H456 0.950 . S
C452 C461 1.390 1_655 S
C453 C452 1.387 1_556 S
C453 C455 1.387 . S
H454 C461 0.950 . S
C455 C453 1.387 . S
C455 C457 1.390 1_655 S
C455 H459 0.950 . S
H456 C452 0.950 . S
C457 C455 1.390 1_455 S
C457 C458 1.387 1_556 S
C457 H460 0.950 . S
C458 C457 1.387 1_554 S
C458 C461 1.387 . S
H459 C455 0.950 . S
H460 C457 0.950 . S
C461 C452 1.390 1_455 S
C461 H454 0.950 . S
C461 C458 1.387 . S
C462 C463 1.387 1_554 S
C462 H466 0.950 . S
C462 C471 1.390 . S
C463 C462 1.387 1_556 S
C463 C465 1.387 . S
H464 C471 0.950 . S
C465 C463 1.387 . S
C465 C467 1.390 . S
C465 H469 0.950 . S
H466 C462 0.950 . S
C467 C465 1.390 . S
C467 C468 1.387 1_556 S
C467 H470 0.950 . S
C468 C467 1.387 1_554 S
C468 C471 1.387 . S
H469 C465 0.950 . S
H470 C467 0.950 . S
C471 C462 1.390 . S
C471 H464 0.950 . S
C471 C468 1.387 . S
C472 C473 1.387 . S
C472 H476 0.950 . S
C472 C481 1.390 1_564 S
C473 C472 1.387 . S
C473 C475 1.387 . S
H474 C481 0.950 . S
C475 C473 1.387 . S
C475 C477 1.390 1_564 S
C475 H479 0.950 . S
H476 C472 0.950 . S
C477 C475 1.390 1_546 S
C477 C478 1.387 . S
C477 H480 0.950 . S
C478 C477 1.387 . S
C478 C481 1.387 . S
H479 C475 0.950 . S
H480 C477 0.950 . S
C481 C472 1.390 1_546 S
C481 H474 0.950 . S
C481 C478 1.387 . S
C482 C483 1.387 . S
C482 H486 0.950 . S
C482 C491 1.390 1_656 S
C483 C482 1.387 . S
C483 C485 1.387 . S
H484 C491 0.950 . S
C485 C483 1.387 . S
C485 C487 1.390 1_656 S
C485 H489 0.950 . S
H486 C482 0.950 . S
C487 C485 1.390 1_454 S
C487 C488 1.387 . S
C487 H490 0.950 . S
C488 C487 1.387 . S
C488 C491 1.387 . S
H489 C485 0.950 . S
H490 C487 0.950 . S
C491 C482 1.390 1_454 S
C491 H484 0.950 . S
C491 C488 1.387 . S
C492 C493 1.387 . S
C492 H496 0.950 . S
C492 C501 1.390 . S
C493 C492 1.387 . S
C493 C495 1.387 . S
H494 C501 0.950 . S
C495 C493 1.387 . S
C495 C497 1.390 . S
C495 H499 0.950 . S
H496 C492 0.950 . S
C497 C495 1.390 . S
C497 C498 1.387 . S
C497 H500 0.950 . S
C498 C497 1.387 . S
C498 C501 1.387 . S
H499 C495 0.950 . S
H500 C497 0.950 . S
C501 C492 1.390 . S
C501 H494 0.950 . S
C501 C498 1.387 . S
C502 C503 1.387 . S
C502 H506 0.950 . S
C502 C511 1.390 . S
C503 C502 1.387 . S
C503 C505 1.387 . S
H504 C511 0.950 . S
C505 C503 1.387 . S
C505 C507 1.390 . S
C505 H509 0.950 . S
H506 C502 0.950 . S
C507 C505 1.390 . S
C507 C508 1.387 . S
C507 H510 0.950 . S
C508 C507 1.387 . S
C508 C511 1.387 . S
H509 C505 0.950 . S
H510 C507 0.950 . S
C511 C502 1.390 . S
C511 H504 0.950 . S
C511 C508 1.387 . S
C512 C513 1.387 . S
C512 H516 0.950 . S
C512 C521 1.390 . S
C513 C512 1.387 . S
C513 C515 1.387 . S
H514 C521 0.950 . S
C515 C513 1.387 . S
C515 C517 1.390 . S
C515 H519 0.950 . S
H516 C512 0.950 . S
C517 C515 1.390 . S
C517 C518 1.387 . S
C517 H520 0.950 . S
C518 C517 1.387 . S
C518 C521 1.387 . S
H519 C515 0.950 . S
H520 C517 0.950 . S
C521 C512 1.390 . S
C521 H514 0.950 . S
C521 C518 1.387 . S
C522 C523 1.387 . S
C522 H526 0.950 . S
C522 C531 1.390 . S
C523 C522 1.387 . S
C523 C525 1.387 . S
H524 C531 0.950 . S
C525 C523 1.387 . S
C525 C527 1.390 . S
C525 H529 0.950 . S
H526 C522 0.950 . S
C527 C525 1.390 . S
C527 C528 1.387 . S
C527 H530 0.950 . S
C528 C527 1.387 . S
C528 C531 1.387 . S
H529 C525 0.950 . S
H530 C527 0.950 . S
C531 C522 1.390 . S
C531 H524 0.950 . S
C531 C528 1.387 . S
C532 C533 1.387 . S
C532 H536 0.950 . S
C532 C541 1.390 . S
C533 C532 1.387 . S
C533 C535 1.387 . S
H534 C541 0.950 . S
C535 C533 1.387 . S
C535 C537 1.390 . S
C535 H539 0.950 . S
H536 C532 0.950 . S
C537 C535 1.390 . S
C537 C538 1.387 . S
C537 H540 0.950 . S
C538 C537 1.387 . S
C538 C541 1.387 . S
H539 C535 0.950 . S
H540 C537 0.950 . S
C541 C532 1.390 . S
C541 H534 0.950 . S
C541 C538 1.387 . S
C542 C543 1.387 . S
C542 H546 0.950 . S
C542 C551 1.390 . S
C543 C542 1.387 . S
C543 C545 1.387 . S
H544 C551 0.950 . S
C545 C543 1.387 . S
C545 C547 1.390 . S
C545 H549 0.950 . S
H546 C542 0.950 . S
C547 C545 1.390 . S
C547 C548 1.387 . S
C547 H550 0.950 . S
C548 C547 1.387 . S
C548 C551 1.387 . S
H549 C545 0.950 . S
H550 C547 0.950 . S
C551 C542 1.390 . S
C551 H544 0.950 . S
C551 C548 1.387 . S
C552 C553 1.387 . S
C552 H556 0.950 . S
C552 C561 1.390 . S
C553 C552 1.387 . S
C553 C555 1.387 . S
H554 C561 0.950 . S
C555 C553 1.387 . S
C555 C557 1.390 . S
C555 H559 0.950 . S
H556 C552 0.950 . S
C557 C555 1.390 . S
C557 C558 1.387 . S
C557 H560 0.950 . S
C558 C557 1.387 . S
C558 C561 1.387 . S
H559 C555 0.950 . S
H560 C557 0.950 . S
C561 C552 1.390 . S
C561 H554 0.950 . S
C561 C558 1.387 . S
C562 C563 1.387 . S
C562 H566 0.950 . S
C562 C571 1.390 . S
C563 C562 1.387 . S
C563 C565 1.387 . S
H564 C571 0.950 . S
C565 C563 1.387 . S
C565 C567 1.390 . S
C565 H569 0.950 . S
H566 C562 0.950 . S
C567 C565 1.390 . S
C567 C568 1.387 . S
C567 H570 0.950 . S
C568 C567 1.387 . S
C568 C571 1.387 . S
H569 C565 0.950 . S
H570 C567 0.950 . S
C571 C562 1.390 . S
C571 H564 0.950 . S
C571 C568 1.387 . S
C572 C573 1.387 . S
C572 H576 0.950 . S
C572 C581 1.390 . S
C573 C572 1.387 . S
C573 C575 1.387 . S
H574 C581 0.950 . S
C575 C573 1.387 . S
C575 C577 1.390 . S
C575 H579 0.950 . S
H576 C572 0.950 . S
C577 C575 1.390 . S
C577 C578 1.387 . S
C577 H580 0.950 . S
C578 C577 1.387 . S
C578 C581 1.387 . S
H579 C575 0.950 . S
H580 C577 0.950 . S
C581 C572 1.390 . S
C581 H574 0.950 . S
C581 C578 1.387 . S
C582 C583 1.387 . S
C582 H586 0.950 . S
C582 C591 1.390 . S
C583 C582 1.387 . S
C583 C585 1.387 . S
H584 C591 0.950 . S
C585 C583 1.387 . S
C585 C587 1.390 . S
C585 H589 0.950 . S
H586 C582 0.950 . S
C587 C585 1.390 . S
C587 C588 1.387 . S
C587 H590 0.950 . S
C588 C587 1.387 . S
C588 C591 1.387 . S
H589 C585 0.950 . S
H590 C587 0.950 . S
C591 C582 1.390 . S
C591 H584 0.950 . S
C591 C588 1.387 . S
C592 C593 1.387 . S
C592 H596 0.950 . S
C592 C601 1.390 . S
C593 C592 1.387 . S
C593 C595 1.387 . S
H594 C601 0.950 . S
C595 C593 1.387 . S
C595 C597 1.390 . S
C595 H599 0.950 . S
H596 C592 0.950 . S
C597 C595 1.390 . S
C597 C598 1.387 . S
C597 H600 0.950 . S
C598 C597 1.387 . S
C598 C601 1.387 . S
H599 C595 0.950 . S
H600 C597 0.950 . S
C601 C592 1.390 . S
C601 H594 0.950 . S
C601 C598 1.387 . S
C602 C603 1.387 . S
C602 H606 0.950 . S
C602 C611 1.390 . S
C603 C602 1.387 . S
C603 C605 1.387 . S
H604 C611 0.950 . S
C605 C603 1.387 . S
C605 C607 1.390 . S
C605 H609 0.950 . S
H606 C602 0.950 . S
C607 C605 1.390 . S
C607 C608 1.387 . S
C607 H610 0.950 . S
C608 C607 1.387 . S
C608 C611 1.387 . S
H609 C605 0.950 . S
H610 C607 0.950 . S
C611 C602 1.390 . S
C611 H604 0.950 . S
C611 C608 1.387 . S
C253 C244 1.595 . S
C258 C6 1.595 . S
C263 C216 1.595 . S
C268 C20 1.595 . S
C273 C230 1.594 . S
C278 C34 1.594 . S
C283 C104 1.594 . S
C288 C48 1.594 . S
C293 C118 1.594 . S
C298 C62 1.595 . S
C303 C76 1.595 . S
C308 C90 1.595 . S
C313 C132 1.595 . S
C318 C188 1.595 . S
C323 C146 1.594 . S
C328 C202 1.594 . S
C333 C160 1.594 . S
C338 C174 1.594 . S
C343 C9 1.083 . S
C348 C247 1.083 . S
C353 C219 1.086 . S
C358 C23 1.084 . S
C363 C37 1.084 . S
C368 C233 1.083 . S
C373 C107 1.087 . S
C378 C51 1.087 . S
C383 C65 1.083 . S
C388 C121 1.084 . S
C393 C79 1.083 . S
C398 C93 1.083 . S
C403 C135 1.083 . S
C408 C191 1.083 . S
C413 C205 1.084 . S
C418 C149 1.083 . S
C423 C177 1.083 . S
C428 C163 1.083 . S
C433 C8 1.743 . S
C438 C50 1.744 . S
C443 C64 1.744 . S
C448 C22 1.744 . S
C453 C78 1.744 . S
C458 C36 1.744 . S
C463 C77 1.649 . S
C468 C21 1.648 . S
C473 C35 1.649 . S
C478 C49 1.649 . S
C483 C63 1.649 . S
C488 C7 1.649 . S
C493 C92 1.743 . S
C498 C134 1.744 . S
C503 C148 1.744 . S
C508 C106 1.744 . S
C513 C162 1.744 . S
C518 C120 1.744 . S
C523 C161 1.647 . S
C528 C105 1.649 . S
C533 C119 1.649 . S
C538 C133 1.649 . S
C543 C147 1.649 . S
C548 C91 1.647 . S
C553 C218 1.744 . S
C558 C176 1.743 . S
C563 C232 1.744 . S
C568 C190 1.744 . S
C573 C204 1.744 . S
C578 C246 1.744 . S
C583 C245 1.647 . S
C588 C189 1.649 . S
C593 C203 1.649 . S
C598 C217 1.649 . S
C603 C231 1.648 . S
C608 C175 1.650 . S
