# Generated by pormake.
# Topology ato, (4)-cn, num edge types: 1
# Building blocks:
#     Node 0, Type 0, BuildingBlock: AZAVOO_clean_sbu_0, # of connection points: 4
#     Node 1, Type 0, BuildingBlock: AZAVOO_clean_sbu_0, # of connection points: 4
#     Node 2, Type 0, BuildingBlock: AZAVOO_clean_sbu_0, # of connection points: 4
#     Node 3, Type 0, BuildingBlock: AZAVOO_clean_sbu_0, # of connection points: 4
#     Node 4, Type 0, BuildingBlock: AZAVOO_clean_sbu_0, # of connection points: 4
#     Node 5, Type 0, BuildingBlock: AZAVOO_clean_sbu_0, # of connection points: 4
#     Node 6, Type 0, BuildingBlock: AZAVOO_clean_sbu_0, # of connection points: 4
#     Node 7, Type 0, BuildingBlock: AZAVOO_clean_sbu_0, # of connection points: 4
#     Node 8, Type 0, BuildingBlock: AZAVOO_clean_sbu_0, # of connection points: 4
#     Node 9, Type 0, BuildingBlock: AZAVOO_clean_sbu_0, # of connection points: 4
#     Node 10, Type 0, BuildingBlock: AZAVOO_clean_sbu_0, # of connection points: 4
#     Node 11, Type 0, BuildingBlock: AZAVOO_clean_sbu_0, # of connection points: 4
#     Node 12, Type 0, BuildingBlock: AZAVOO_clean_sbu_0, # of connection points: 4
#     Node 13, Type 0, BuildingBlock: AZAVOO_clean_sbu_0, # of connection points: 4
#     Node 14, Type 0, BuildingBlock: AZAVOO_clean_sbu_0, # of connection points: 4
#     Node 15, Type 0, BuildingBlock: AZAVOO_clean_sbu_0, # of connection points: 4
#     Node 16, Type 0, BuildingBlock: AZAVOO_clean_sbu_0, # of connection points: 4
#     Node 17, Type 0, BuildingBlock: AZAVOO_clean_sbu_0, # of connection points: 4
#     Node 18, Type 0, BuildingBlock: AZAVOO_clean_sbu_0, # of connection points: 4
#     Node 19, Type 0, BuildingBlock: AZAVOO_clean_sbu_0, # of connection points: 4
#     Node 20, Type 0, BuildingBlock: AZAVOO_clean_sbu_0, # of connection points: 4
#     Node 21, Type 0, BuildingBlock: AZAVOO_clean_sbu_0, # of connection points: 4
#     Node 22, Type 0, BuildingBlock: AZAVOO_clean_sbu_0, # of connection points: 4
#     Node 23, Type 0, BuildingBlock: AZAVOO_clean_sbu_0, # of connection points: 4
#     Node 24, Type 0, BuildingBlock: AZAVOO_clean_sbu_0, # of connection points: 4
#     Node 25, Type 0, BuildingBlock: AZAVOO_clean_sbu_0, # of connection points: 4
#     Node 26, Type 0, BuildingBlock: AZAVOO_clean_sbu_0, # of connection points: 4
#     Node 27, Type 0, BuildingBlock: AZAVOO_clean_sbu_0, # of connection points: 4
#     Node 28, Type 0, BuildingBlock: AZAVOO_clean_sbu_0, # of connection points: 4
#     Node 29, Type 0, BuildingBlock: AZAVOO_clean_sbu_0, # of connection points: 4
#     Node 30, Type 0, BuildingBlock: AZAVOO_clean_sbu_0, # of connection points: 4
#     Node 31, Type 0, BuildingBlock: AZAVOO_clean_sbu_0, # of connection points: 4
#     Node 32, Type 0, BuildingBlock: AZAVOO_clean_sbu_0, # of connection points: 4
#     Node 33, Type 0, BuildingBlock: AZAVOO_clean_sbu_0, # of connection points: 4
#     Node 34, Type 0, BuildingBlock: AZAVOO_clean_sbu_0, # of connection points: 4
#     Node 35, Type 0, BuildingBlock: AZAVOO_clean_sbu_0, # of connection points: 4
#     Edge 36, Type (0, 0), BuildingBlock: XIVTED_clean_linker_0, # of connection points: 2
#     Edge 37, Type (0, 0), BuildingBlock: XIVTED_clean_linker_0, # of connection points: 2
#     Edge 38, Type (0, 0), BuildingBlock: XIVTED_clean_linker_0, # of connection points: 2
#     Edge 39, Type (0, 0), BuildingBlock: XIVTED_clean_linker_0, # of connection points: 2
#     Edge 40, Type (0, 0), BuildingBlock: XIVTED_clean_linker_0, # of connection points: 2
#     Edge 41, Type (0, 0), BuildingBlock: XIVTED_clean_linker_0, # of connection points: 2
#     Edge 42, Type (0, 0), BuildingBlock: XIVTED_clean_linker_0, # of connection points: 2
#     Edge 43, Type (0, 0), BuildingBlock: XIVTED_clean_linker_0, # of connection points: 2
#     Edge 44, Type (0, 0), BuildingBlock: XIVTED_clean_linker_0, # of connection points: 2
#     Edge 45, Type (0, 0), BuildingBlock: XIVTED_clean_linker_0, # of connection points: 2
#     Edge 46, Type (0, 0), BuildingBlock: XIVTED_clean_linker_0, # of connection points: 2
#     Edge 47, Type (0, 0), BuildingBlock: XIVTED_clean_linker_0, # of connection points: 2
#     Edge 48, Type (0, 0), BuildingBlock: XIVTED_clean_linker_0, # of connection points: 2
#     Edge 49, Type (0, 0), BuildingBlock: XIVTED_clean_linker_0, # of connection points: 2
#     Edge 50, Type (0, 0), BuildingBlock: XIVTED_clean_linker_0, # of connection points: 2
#     Edge 51, Type (0, 0), BuildingBlock: XIVTED_clean_linker_0, # of connection points: 2
#     Edge 52, Type (0, 0), BuildingBlock: XIVTED_clean_linker_0, # of connection points: 2
#     Edge 53, Type (0, 0), BuildingBlock: XIVTED_clean_linker_0, # of connection points: 2
#     Edge 54, Type (0, 0), BuildingBlock: XIVTED_clean_linker_0, # of connection points: 2
#     Edge 55, Type (0, 0), BuildingBlock: XIVTED_clean_linker_0, # of connection points: 2
#     Edge 56, Type (0, 0), BuildingBlock: XIVTED_clean_linker_0, # of connection points: 2
#     Edge 57, Type (0, 0), BuildingBlock: XIVTED_clean_linker_0, # of connection points: 2
#     Edge 58, Type (0, 0), BuildingBlock: XIVTED_clean_linker_0, # of connection points: 2
#     Edge 59, Type (0, 0), BuildingBlock: XIVTED_clean_linker_0, # of connection points: 2
#     Edge 60, Type (0, 0), BuildingBlock: XIVTED_clean_linker_0, # of connection points: 2
#     Edge 61, Type (0, 0), BuildingBlock: XIVTED_clean_linker_0, # of connection points: 2
#     Edge 62, Type (0, 0), BuildingBlock: XIVTED_clean_linker_0, # of connection points: 2
#     Edge 63, Type (0, 0), BuildingBlock: XIVTED_clean_linker_0, # of connection points: 2
#     Edge 64, Type (0, 0), BuildingBlock: XIVTED_clean_linker_0, # of connection points: 2
#     Edge 65, Type (0, 0), BuildingBlock: XIVTED_clean_linker_0, # of connection points: 2
#     Edge 66, Type (0, 0), BuildingBlock: XIVTED_clean_linker_0, # of connection points: 2
#     Edge 67, Type (0, 0), BuildingBlock: XIVTED_clean_linker_0, # of connection points: 2
#     Edge 68, Type (0, 0), BuildingBlock: XIVTED_clean_linker_0, # of connection points: 2
#     Edge 69, Type (0, 0), BuildingBlock: XIVTED_clean_linker_0, # of connection points: 2
#     Edge 70, Type (0, 0), BuildingBlock: XIVTED_clean_linker_0, # of connection points: 2
#     Edge 71, Type (0, 0), BuildingBlock: XIVTED_clean_linker_0, # of connection points: 2
#     Edge 72, Type (0, 0), BuildingBlock: XIVTED_clean_linker_0, # of connection points: 2
#     Edge 73, Type (0, 0), BuildingBlock: XIVTED_clean_linker_0, # of connection points: 2
#     Edge 74, Type (0, 0), BuildingBlock: XIVTED_clean_linker_0, # of connection points: 2
#     Edge 75, Type (0, 0), BuildingBlock: XIVTED_clean_linker_0, # of connection points: 2
#     Edge 76, Type (0, 0), BuildingBlock: XIVTED_clean_linker_0, # of connection points: 2
#     Edge 77, Type (0, 0), BuildingBlock: XIVTED_clean_linker_0, # of connection points: 2
#     Edge 78, Type (0, 0), BuildingBlock: XIVTED_clean_linker_0, # of connection points: 2
#     Edge 79, Type (0, 0), BuildingBlock: XIVTED_clean_linker_0, # of connection points: 2
#     Edge 80, Type (0, 0), BuildingBlock: XIVTED_clean_linker_0, # of connection points: 2
#     Edge 81, Type (0, 0), BuildingBlock: XIVTED_clean_linker_0, # of connection points: 2
#     Edge 82, Type (0, 0), BuildingBlock: XIVTED_clean_linker_0, # of connection points: 2
#     Edge 83, Type (0, 0), BuildingBlock: XIVTED_clean_linker_0, # of connection points: 2
#     Edge 84, Type (0, 0), BuildingBlock: XIVTED_clean_linker_0, # of connection points: 2
#     Edge 85, Type (0, 0), BuildingBlock: XIVTED_clean_linker_0, # of connection points: 2
#     Edge 86, Type (0, 0), BuildingBlock: XIVTED_clean_linker_0, # of connection points: 2
#     Edge 87, Type (0, 0), BuildingBlock: XIVTED_clean_linker_0, # of connection points: 2
#     Edge 88, Type (0, 0), BuildingBlock: XIVTED_clean_linker_0, # of connection points: 2
#     Edge 89, Type (0, 0), BuildingBlock: XIVTED_clean_linker_0, # of connection points: 2
#     Edge 90, Type (0, 0), BuildingBlock: XIVTED_clean_linker_0, # of connection points: 2
#     Edge 91, Type (0, 0), BuildingBlock: XIVTED_clean_linker_0, # of connection points: 2
#     Edge 92, Type (0, 0), BuildingBlock: XIVTED_clean_linker_0, # of connection points: 2
#     Edge 93, Type (0, 0), BuildingBlock: XIVTED_clean_linker_0, # of connection points: 2
#     Edge 94, Type (0, 0), BuildingBlock: XIVTED_clean_linker_0, # of connection points: 2
#     Edge 95, Type (0, 0), BuildingBlock: XIVTED_clean_linker_0, # of connection points: 2
#     Edge 96, Type (0, 0), BuildingBlock: XIVTED_clean_linker_0, # of connection points: 2
#     Edge 97, Type (0, 0), BuildingBlock: XIVTED_clean_linker_0, # of connection points: 2
#     Edge 98, Type (0, 0), BuildingBlock: XIVTED_clean_linker_0, # of connection points: 2
#     Edge 99, Type (0, 0), BuildingBlock: XIVTED_clean_linker_0, # of connection points: 2
#     Edge 100, Type (0, 0), BuildingBlock: XIVTED_clean_linker_0, # of connection points: 2
#     Edge 101, Type (0, 0), BuildingBlock: XIVTED_clean_linker_0, # of connection points: 2
#     Edge 102, Type (0, 0), BuildingBlock: XIVTED_clean_linker_0, # of connection points: 2
#     Edge 103, Type (0, 0), BuildingBlock: XIVTED_clean_linker_0, # of connection points: 2
#     Edge 104, Type (0, 0), BuildingBlock: XIVTED_clean_linker_0, # of connection points: 2
#     Edge 105, Type (0, 0), BuildingBlock: XIVTED_clean_linker_0, # of connection points: 2
#     Edge 106, Type (0, 0), BuildingBlock: XIVTED_clean_linker_0, # of connection points: 2
#     Edge 107, Type (0, 0), BuildingBlock: XIVTED_clean_linker_0, # of connection points: 2
# Relax obj value: 0.065
# Max RMSD: 0.093
# Mean RMSD: 0.093
data_MOF--net-ato--node1-AZAVOO_clean_sbu_0--edge1-XIVTED_clean_linker_0
_symmetry_space_group_name_H-M    P1
_symmetry_Int_Tables_number       1
_symmetry_cell_setting            triclinic
loop_
_symmetry_equiv_pos_as_xyz
'x, y, z'
_cell_length_a     100.46762
_cell_length_b     100.4936
_cell_length_c     25.168094
_cell_angle_alpha  90.040932
_cell_angle_beta   90.007079
_cell_angle_gamma 120.00094
loop_
_atom_site_label
_atom_site_type_symbol
_atom_site_fract_x
_atom_site_fract_y
_atom_site_fract_z
_atom_type_partial_charge
Mg0 Mg 0.24007 0.04717 0.22572 0.0
O1 O 0.26307 0.05313 0.18721 0.0
O2 O 0.26136 0.03154 0.15596 0.0
Mg3 Mg 0.23704 0.0117 0.17209 0.0
C4 C 0.26899 0.04601 0.16412 0.0
C5 C 0.2434 0.07492 0.29115 0.0
O6 O 0.22986 0.06399 0.30717 0.0
O7 O 0.24603 0.0369 0.29729 0.0
O8 O 0.24236 0.015 0.26037 0.0
O9 O 0.23047 0.04881 0.14633 0.0
O10 O 0.22833 0.02759 0.1802 0.0
C11 C 0.24551 0.0239 0.30038 0.0
C12 C 0.22569 0.03427 0.14179 0.0
O13 O 0.25112 0.07148 0.25969 0.0
Mg14 Mg 0.95456 0.20519 0.24401 0.0
O15 O 0.94649 0.22122 0.21003 0.0
O16 O 0.9675 0.24279 0.18476 0.0
Mg17 Mg 0.9886 0.24002 0.19473 0.0
C18 C 0.95298 0.23486 0.19143 0.0
C19 C 0.92947 0.17931 0.31234 0.0
O20 O 0.942 0.17968 0.3295 0.0
O21 O 0.96406 0.22049 0.31771 0.0
O22 O 0.98578 0.23999 0.28445 0.0
O23 O 0.95386 0.19476 0.16406 0.0
O24 O 0.97405 0.21509 0.19761 0.0
C25 C 0.97685 0.23304 0.32348 0.0
C26 C 0.9681 0.20545 0.15943 0.0
O27 O 0.93078 0.1894 0.279 0.0
Mg28 Mg 0.8118 0.76367 0.23091 0.0
O29 O 0.79428 0.73997 0.19753 0.0
O30 O 0.77402 0.74131 0.16809 0.0
Mg31 Mg 0.77879 0.76592 0.17841 0.0
C32 C 0.78087 0.73373 0.17696 0.0
C33 C 0.83622 0.76155 0.29995 0.0
O34 O 0.83748 0.77449 0.31706 0.0
O35 O 0.7964 0.759 0.30417 0.0
O36 O 0.77795 0.76235 0.26742 0.0
O37 O 0.82223 0.7722 0.1495 0.0
O38 O 0.80337 0.77454 0.18424 0.0
C39 C 0.7841 0.75983 0.30767 0.0
C40 C 0.81241 0.7769 0.14519 0.0
O41 O 0.82576 0.75358 0.2664 0.0
Mg42 Mg 0.04425 0.23897 0.75487 0.0
O43 O 0.04929 0.26151 0.79461 0.0
O44 O 0.02747 0.25908 0.82656 0.0
Mg45 Mg 0.00822 0.23459 0.80857 0.0
C46 C 0.04192 0.26705 0.81832 0.0
C47 C 0.0734 0.24369 0.6947 0.0
O48 O 0.06336 0.22973 0.679 0.0
O49 O 0.03387 0.24498 0.68375 0.0
O50 O 0.0118 0.2407 0.72099 0.0
O51 O 0.04617 0.22943 0.8337 0.0
O52 O 0.02463 0.22652 0.79962 0.0
C53 C 0.02079 0.24429 0.68107 0.0
C54 C 0.03155 0.22421 0.83813 0.0
O55 O 0.0688 0.25107 0.72304 0.0
Mg56 Mg 0.75748 0.80335 0.74599 0.0
O57 O 0.73322 0.78639 0.77695 0.0
O58 O 0.73318 0.76493 0.80023 0.0
Mg59 Mg 0.75738 0.76851 0.79173 0.0
C60 C 0.72626 0.77255 0.79381 0.0
C61 C 0.75738 0.82914 0.67891 0.0
O62 O 0.76968 0.82924 0.66063 0.0
O63 O 0.75263 0.78891 0.67033 0.0
O64 O 0.75507 0.76941 0.70229 0.0
O65 O 0.76649 0.8129 0.82779 0.0
O66 O 0.76716 0.79334 0.79123 0.0
C67 C 0.7532 0.77656 0.66369 0.0
C68 C 0.77038 0.80243 0.83081 0.0
O69 O 0.74901 0.81894 0.7126 0.0
Mg70 Mg 0.20264 0.95592 0.73635 0.0
O71 O 0.21882 0.94839 0.77272 0.0
O72 O 0.24013 0.96962 0.79839 0.0
Mg73 Mg 0.23718 0.99049 0.78466 0.0
C74 C 0.23233 0.95507 0.79249 0.0
C75 C 0.17769 0.92972 0.66688 0.0
O76 O 0.1778 0.94177 0.6462 0.0
O77 O 0.21801 0.96508 0.66266 0.0
O78 O 0.23738 0.987 0.69538 0.0
O79 O 0.19217 0.95563 0.81594 0.0
O80 O 0.21226 0.97578 0.78119 0.0
C81 C 0.23056 0.97786 0.65665 0.0
C82 C 0.20272 0.96995 0.81967 0.0
O83 O 0.18739 0.93178 0.70299 0.0
Mg84 Mg 0.76098 0.95589 0.74678 0.0
O85 O 0.7372 0.94873 0.78178 0.0
O86 O 0.73723 0.97016 0.8053 0.0
Mg87 Mg 0.76117 0.99084 0.79176 0.0
C88 C 0.73037 0.95558 0.80019 0.0
C89 C 0.76003 0.92909 0.68208 0.0
O90 O 0.7727 0.94086 0.66379 0.0
O91 O 0.75508 0.96479 0.6717 0.0
O92 O 0.75768 0.9869 0.70264 0.0
O93 O 0.77098 0.95599 0.82721 0.0
O94 O 0.77123 0.97599 0.79039 0.0
C95 C 0.75541 0.97759 0.66457 0.0
C96 C 0.77484 0.97035 0.8297 0.0
O97 O 0.75191 0.93154 0.71505 0.0
Mg98 Mg 0.05168 0.8079 0.73758 0.0
O99 O 0.05794 0.79069 0.7733 0.0
O100 O 0.03622 0.77033 0.8014 0.0
Mg101 Mg 0.01627 0.77481 0.7887 0.0
C102 C 0.05072 0.77729 0.79387 0.0
C103 C 0.07834 0.83233 0.66926 0.0
O104 O 0.06662 0.83344 0.65153 0.0
O105 O 0.04148 0.79225 0.66467 0.0
O106 O 0.01945 0.77373 0.69982 0.0
O107 O 0.05312 0.81873 0.81767 0.0
O108 O 0.03213 0.79945 0.78335 0.0
C109 C 0.02844 0.7799 0.66028 0.0
C110 C 0.03862 0.80879 0.82195 0.0
O111 O 0.07585 0.82195 0.70309 0.0
Mg112 Mg 0.20009 0.2458 0.74061 0.0
O113 O 0.21678 0.27085 0.76666 0.0
O114 O 0.23894 0.27211 0.78859 0.0
Mg115 Mg 0.23697 0.24874 0.77706 0.0
C116 C 0.23069 0.27839 0.78294 0.0
C117 C 0.17837 0.26005 0.73535 0.0
O118 O 0.18476 0.26558 0.78173 0.0
O119 O 0.21267 0.25002 0.6612 0.0
O120 O 0.23448 0.2511 0.68844 0.0
O121 O 0.19325 0.23845 0.826 0.0
O122 O 0.21209 0.23782 0.78326 0.0
C123 C 0.22589 0.25154 0.65194 0.0
C124 C 0.20438 0.23544 0.82606 0.0
O125 O 0.1828 0.25226 0.70843 0.0
Mg126 Mg 0.95954 0.76157 0.2264 0.0
O127 O 0.95227 0.73798 0.18936 0.0
O128 O 0.97355 0.73849 0.16074 0.0
Mg129 Mg 0.99422 0.76241 0.17485 0.0
C130 C 0.95903 0.73143 0.16799 0.0
C131 C 0.93355 0.75974 0.29814 0.0
O132 O 0.94566 0.77169 0.31865 0.0
O133 O 0.9692 0.75534 0.29875 0.0
O134 O 0.99096 0.75808 0.26378 0.0
O135 O 0.95867 0.77159 0.14701 0.0
O136 O 0.97917 0.77215 0.18084 0.0
C137 C 0.982 0.75552 0.30323 0.0
C138 C 0.97303 0.77558 0.14265 0.0
O139 O 0.93551 0.75226 0.26116 0.0
Mg140 Mg 0.25944 0.20673 0.22493 0.0
O141 O 0.28485 0.22363 0.2043 0.0
O142 O 0.2867 0.24631 0.18733 0.0
Mg143 Mg 0.26305 0.2441 0.19204 0.0
C144 C 0.29279 0.23788 0.19248 0.0
C145 C 0.25688 0.17955 0.29099 0.0
O146 O 0.24578 0.18124 0.31149 0.0
O147 O 0.26218 0.21822 0.30566 0.0
O148 O 0.26296 0.24007 0.281 0.0
O149 O 0.25288 0.20045 0.13915 0.0
O150 O 0.25215 0.21927 0.18146 0.0
C151 C 0.26285 0.23098 0.31662 0.0
C152 C 0.24982 0.21153 0.13864 0.0
O153 O 0.26547 0.18901 0.25572 0.0
Mg154 Mg 0.81537 0.04821 0.23345 0.0
O155 O 0.79757 0.05342 0.19663 0.0
O156 O 0.77814 0.03149 0.16536 0.0
Mg157 Mg 0.78365 0.01226 0.17941 0.0
C158 C 0.78447 0.04591 0.17407 0.0
C159 C 0.83798 0.07544 0.30523 0.0
O160 O 0.83956 0.06421 0.32492 0.0
O161 O 0.79942 0.0372 0.30532 0.0
O162 O 0.78171 0.0151 0.26797 0.0
O163 O 0.82653 0.05052 0.15327 0.0
O164 O 0.80805 0.02889 0.18711 0.0
C165 C 0.7873 0.02392 0.30824 0.0
C166 C 0.81717 0.03589 0.14853 0.0
O167 O 0.82807 0.0724 0.26886 0.0
Mg168 Mg 0.91775 0.38005 0.55315 0.0
O169 O 0.9422 0.38831 0.52243 0.0
O170 O 0.94354 0.36754 0.49965 0.0
Mg171 Mg 0.91974 0.34623 0.5079 0.0
C172 C 0.94979 0.38205 0.50584 0.0
C173 C 0.91658 0.40582 0.61795 0.0
O174 O 0.90403 0.3936 0.63467 0.0
O175 O 0.92298 0.3709 0.62916 0.0
O176 O 0.92152 0.34933 0.59753 0.0
O177 O 0.90853 0.38006 0.47126 0.0
O178 O 0.90884 0.36033 0.50788 0.0
C179 C 0.92287 0.3582 0.63607 0.0
C180 C 0.90523 0.36586 0.46829 0.0
O181 O 0.92541 0.40403 0.58623 0.0
Mg182 Mg 0.62376 0.53111 0.57492 0.0
O183 O 0.61598 0.54748 0.54328 0.0
O184 O 0.63604 0.56805 0.50719 0.0
Mg185 Mg 0.65724 0.56545 0.51941 0.0
C186 C 0.62184 0.56039 0.5195 0.0
C187 C 0.59752 0.50457 0.63921 0.0
O188 O 0.6092 0.50268 0.65113 0.0
O189 O 0.63406 0.54683 0.64756 0.0
O190 O 0.65469 0.56639 0.60892 0.0
O191 O 0.6222 0.52094 0.49311 0.0
O192 O 0.64295 0.54063 0.52697 0.0
C193 C 0.64655 0.55982 0.64995 0.0
C194 C 0.63651 0.53141 0.48812 0.0
O195 O 0.59993 0.51606 0.61105 0.0
Mg196 Mg 0.47749 0.09316 0.5645 0.0
O197 O 0.45965 0.06836 0.53956 0.0
O198 O 0.43793 0.06826 0.51972 0.0
Mg199 Mg 0.44125 0.09215 0.53227 0.0
C200 C 0.44562 0.06136 0.52442 0.0
C201 C 0.50369 0.09324 0.62914 0.0
O202 O 0.50281 0.10466 0.65094 0.0
O203 O 0.46572 0.08952 0.64537 0.0
O204 O 0.44422 0.08944 0.62026 0.0
O205 O 0.48374 0.09999 0.47864 0.0
O206 O 0.46596 0.10201 0.52335 0.0
C207 C 0.45279 0.08853 0.65582 0.0
C208 C 0.47308 0.10365 0.47958 0.0
O209 O 0.49408 0.08534 0.59311 0.0
Mg210 Mg 0.71735 0.58726 0.08679 0.0
O211 O 0.72529 0.61171 0.11702 0.0
O212 O 0.7043 0.61253 0.14073 0.0
Mg213 Mg 0.68324 0.58855 0.133 0.0
C214 C 0.71881 0.61906 0.13393 0.0
C215 C 0.7431 0.58598 0.0232 0.0
O216 O 0.73091 0.57307 0.00864 0.0
O217 O 0.70783 0.59215 0.01097 0.0
O218 O 0.68621 0.59039 0.04334 0.0
O219 O 0.71787 0.57841 0.16879 0.0
O220 O 0.69774 0.57811 0.13278 0.0
C221 C 0.69503 0.59187 0.00451 0.0
C222 C 0.7036 0.57485 0.17232 0.0
O223 O 0.7413 0.59516 0.05308 0.0
Mg224 Mg 0.41648 0.13114 0.08257 0.0
O225 O 0.39105 0.11378 0.1011 0.0
O226 O 0.38962 0.0913 0.11853 0.0
Mg227 Mg 0.41354 0.09411 0.11618 0.0
C228 C 0.38328 0.09949 0.11254 0.0
C229 C 0.41907 0.15843 0.01715 0.0
O230 O 0.43072 0.15734 -0.00133 0.0
O231 O 0.41466 0.11992 0.00187 0.0
O232 O 0.41426 0.09829 0.02717 0.0
O233 O 0.4223 0.13735 0.16884 0.0
O234 O 0.42383 0.11887 0.12723 0.0
C235 C 0.41443 0.10735 -0.00874 0.0
C236 C 0.42567 0.12648 0.17005 0.0
O237 O 0.41014 0.14854 0.05074 0.0
Mg238 Mg 0.86194 0.28655 0.06746 0.0
O239 O 0.87972 0.28116 0.10345 0.0
O240 O 0.89942 0.30306 0.1338 0.0
Mg241 Mg 0.89417 0.32246 0.11991 0.0
C242 C 0.89291 0.28861 0.12543 0.0
C243 C 0.83803 0.25907 -0.00011 0.0
O244 O 0.83607 0.27027 0.98215 0.0
O245 O 0.87758 0.29726 -0.0055 0.0
O246 O 0.89557 0.3193 0.0314 0.0
O247 O 0.85124 0.28465 0.14831 0.0
O248 O 0.8697 0.30606 0.11322 0.0
C249 C 0.88978 0.31048 -0.00878 0.0
C250 C 0.86074 0.29926 0.15235 0.0
O251 O 0.84871 0.26223 0.03328 0.0
Mg252 Mg 0.43622 0.29044 0.08339 0.0
O253 O 0.41304 0.28478 0.11974 0.0
O254 O 0.41504 0.30645 0.15141 0.0
Mg255 Mg 0.4396 0.32606 0.13718 0.0
C256 C 0.40721 0.29203 0.1425 0.0
C257 C 0.43253 0.26299 0.01495 0.0
O258 O 0.44574 0.27411 -0.00278 0.0
O259 O 0.43108 0.30118 0.0111 0.0
O260 O 0.43488 0.32306 0.0486 0.0
O261 O 0.445 0.28834 0.16399 0.0
O262 O 0.4479 0.30984 0.12975 0.0
C263 C 0.4319 0.31432 0.00823 0.0
C264 C 0.45001 0.30292 0.16865 0.0
O265 O 0.42511 0.26621 0.04858 0.0
Mg266 Mg 0.72081 0.12845 0.06859 0.0
O267 O 0.72928 0.11235 0.09891 0.0
O268 O 0.70843 0.09018 0.12071 0.0
Mg269 Mg 0.68704 0.09251 0.11258 0.0
C270 C 0.72296 0.09845 0.11496 0.0
C271 C 0.74575 0.15522 0.00229 0.0
O272 O 0.73311 0.15462 0.98507 0.0
O273 O 0.71183 0.11424 -0.00765 0.0
O274 O 0.69021 0.09401 0.02282 0.0
O275 O 0.72092 0.13765 0.15031 0.0
O276 O 0.70113 0.1175 0.1142 0.0
C277 C 0.69919 0.10166 0.98473 0.0
C278 C 0.70675 0.1267 0.15374 0.0
O279 O 0.74461 0.14509 0.03514 0.0
Mg280 Mg 0.86834 0.58462 0.08133 0.0
O281 O 0.8863 0.6097 0.10227 0.0
O282 O 0.9085 0.61043 0.11885 0.0
Mg283 Mg 0.90512 0.58636 0.11123 0.0
C284 C 0.90057 0.61708 0.11436 0.0
C285 C 0.84104 0.584 0.02033 0.0
O286 O 0.84097 0.57194 -0.00025 0.0
O287 O 0.87925 0.58706 -0.00079 0.0
O288 O 0.90086 0.58718 0.02315 0.0
O289 O 0.86275 0.57827 0.16799 0.0
O290 O 0.88043 0.57634 0.12245 0.0
C291 C 0.89191 0.58754 0.9879 0.0
C292 C 0.87339 0.57458 0.16647 0.0
O293 O 0.85147 0.59223 0.05364 0.0
Mg294 Mg 0.63026 0.09804 0.55841 0.0
O295 O 0.62213 0.07394 0.52606 0.0
O296 O 0.64164 0.07323 0.48627 0.0
Mg297 Mg 0.66301 0.09701 0.49741 0.0
C298 C 0.62759 0.06678 0.50058 0.0
C299 C 0.60447 0.09798 0.62714 0.0
O300 O 0.61615 0.11155 0.63925 0.0
O301 O 0.64118 0.09248 0.62872 0.0
O302 O 0.66133 0.09334 0.58696 0.0
O303 O 0.6277 0.10636 0.47752 0.0
O304 O 0.64893 0.1077 0.50815 0.0
C305 C 0.65358 0.09179 0.62906 0.0
C306 C 0.64194 0.11021 0.47046 0.0
O307 O 0.60679 0.08912 0.59741 0.0
Mg308 Mg 0.91788 0.53279 0.56336 0.0
O309 O 0.94297 0.55085 0.54279 0.0
O310 O 0.9436 0.57302 0.52675 0.0
Mg311 Mg 0.9195 0.56955 0.53456 0.0
C312 C 0.95031 0.56513 0.53102 0.0
C313 C 0.91678 0.50493 0.62121 0.0
O314 O 0.90435 0.50448 0.63992 0.0
O315 O 0.92035 0.54355 0.64586 0.0
O316 O 0.92044 0.56516 0.62241 0.0
O317 O 0.91161 0.52739 0.47653 0.0
O318 O 0.90957 0.54492 0.52266 0.0
C319 C 0.92084 0.5562 0.65746 0.0
C320 C 0.9079 0.53801 0.47839 0.0
O321 O 0.92548 0.51585 0.59028 0.0
Mg322 Mg 0.47072 0.38281 0.5696 0.0
O323 O 0.45425 0.39052 0.53645 0.0
O324 O 0.43266 0.36916 0.51359 0.0
Mg325 Mg 0.43557 0.34821 0.52496 0.0
C326 C 0.44048 0.38374 0.51881 0.0
C327 C 0.49668 0.4083 0.63687 0.0
O328 O 0.49632 0.39585 0.65489 0.0
O329 O 0.45621 0.37374 0.64523 0.0
O330 O 0.43653 0.35172 0.6145 0.0
O331 O 0.48039 0.38286 0.48858 0.0
O332 O 0.46048 0.36292 0.52492 0.0
C333 C 0.44382 0.36091 0.65262 0.0
C334 C 0.46972 0.36857 0.48561 0.0
O335 O 0.48669 0.40685 0.60283 0.0
Mg336 Mg 0.58145 0.7138 0.89776 0.0
O337 O 0.6051 0.72076 0.8622 0.0
O338 O 0.60454 0.69949 0.83318 0.0
Mg339 Mg 0.58043 0.67902 0.84625 0.0
C340 C 0.61167 0.71398 0.84113 0.0
C341 C 0.58296 0.74043 0.96501 0.0
O342 O 0.5701 0.72872 0.98241 0.0
O343 O 0.58735 0.704 0.97076 0.0
O344 O 0.58474 0.68238 0.93507 0.0
O345 O 0.57199 0.7149 0.81743 0.0
O346 O 0.57083 0.69419 0.85191 0.0
C347 C 0.58723 0.69123 0.97482 0.0
C348 C 0.56784 0.7005 0.81314 0.0
O349 O 0.59104 0.73795 0.93196 0.0
Mg350 Mg 0.28589 0.86409 0.90756 0.0
O351 O 0.27976 0.88234 0.88046 0.0
O352 O 0.30176 0.90366 0.86083 0.0
Mg353 Mg 0.3218 0.89949 0.87381 0.0
C354 C 0.28715 0.89633 0.86512 0.0
C355 C 0.25882 0.83861 0.97221 0.0
O356 O 0.27066 0.83871 -0.00518 0.0
O357 O 0.29442 0.87625 0.98774 0.0
O358 O 0.31638 0.89706 0.96207 0.0
O359 O 0.28633 0.85697 0.82273 0.0
O360 O 0.30636 0.87479 0.86647 0.0
C361 C 0.30675 0.88889 -0.00214 0.0
C362 C 0.3008 0.86723 0.82343 0.0
O363 O 0.26124 0.84839 0.93601 0.0
Mg364 Mg 0.1274 0.41427 0.89983 0.0
O365 O 0.11035 0.38925 0.8767 0.0
O366 O 0.08781 0.38778 0.8603 0.0
Mg367 Mg 0.0907 0.41179 0.86399 0.0
C368 C 0.09608 0.38149 0.86509 0.0
C369 C 0.15493 0.41626 0.96285 0.0
O370 O 0.15458 0.4283 0.9814 0.0
O371 O 0.11519 0.411 0.97945 0.0
O372 O 0.0945 0.41222 0.95313 0.0
O373 O 0.13469 0.42166 0.81533 0.0
O374 O 0.11556 0.42228 0.85568 0.0
C375 C 0.10301 0.4116 -0.01035 0.0
C376 C 0.12383 0.42505 0.81398 0.0
O377 O 0.1445 0.40737 0.93061 0.0
Mg378 Mg 0.38522 0.91516 0.42375 0.0
O379 O 0.39258 0.93989 0.45003 0.0
O380 O 0.37125 0.94057 0.4694 0.0
Mg381 Mg 0.35041 0.91673 0.45801 0.0
C382 C 0.38583 0.94717 0.46494 0.0
C383 C 0.41184 0.91487 0.36163 0.0
O384 O 0.3999 0.90253 0.34223 0.0
O385 O 0.37682 0.91892 0.34366 0.0
O386 O 0.35532 0.91873 0.36932 0.0
O387 O 0.38458 0.90756 0.50856 0.0
O388 O 0.3649 0.90635 0.46549 0.0
C389 C 0.36466 0.91954 0.33337 0.0
C390 C 0.37027 0.90396 0.50826 0.0
O391 O 0.4096 0.92312 0.39469 0.0
Mg392 Mg 0.09466 0.47697 0.42119 0.0
O393 O 0.07064 0.45823 0.44783 0.0
O394 O 0.07258 0.43832 0.47748 0.0
Mg395 Mg 0.09775 0.44438 0.4729 0.0
C396 C 0.0646 0.44465 0.46685 0.0
C397 C 0.09208 0.50012 0.3467 0.0
O398 O 0.10449 0.5005 0.32813 0.0
O399 O 0.09236 0.46282 0.34627 0.0
O400 O 0.09609 0.44464 0.38336 0.0
O401 O 0.10064 0.48615 0.50543 0.0
O402 O 0.10519 0.46871 0.47017 0.0
C403 C 0.09406 0.45102 0.34277 0.0
C404 C 0.1059 0.47679 0.5104 0.0
O405 O 0.08453 0.49059 0.38332 0.0
Mg406 Mg 0.53791 0.6216 0.40561 0.0
O407 O 0.55344 0.61279 0.43769 0.0
O408 O 0.57472 0.63259 0.47162 0.0
Mg409 Mg 0.57312 0.65435 0.46001 0.0
C410 C 0.5665 0.61834 0.46046 0.0
C411 C 0.5107 0.59633 0.34121 0.0
O412 O 0.50975 0.60855 0.3292 0.0
O413 O 0.55362 0.63124 0.33313 0.0
O414 O 0.57367 0.65184 0.37007 0.0
O415 O 0.52761 0.62069 0.4863 0.0
O416 O 0.54816 0.6408 0.45361 0.0
C417 C 0.56671 0.64357 0.32963 0.0
C418 C 0.53854 0.6348 0.4917 0.0
O419 O 0.52193 0.59799 0.36943 0.0
Mg420 Mg 0.09426 0.62455 0.41394 0.0
O421 O 0.07091 0.61739 0.45241 0.0
O422 O 0.07172 0.63848 0.48456 0.0
Mg423 Mg 0.09565 0.65907 0.46965 0.0
C424 C 0.06454 0.62403 0.47584 0.0
C425 C 0.09228 0.59823 0.34374 0.0
O426 O 0.10506 0.61001 0.32616 0.0
O427 O 0.08781 0.63465 0.34325 0.0
O428 O 0.09062 0.65611 0.38111 0.0
O429 O 0.10419 0.62304 0.49278 0.0
O430 O 0.10523 0.64395 0.46061 0.0
C431 C 0.08785 0.64741 0.34071 0.0
C432 C 0.10835 0.63741 0.4983 0.0
O433 O 0.08439 0.60057 0.37805 0.0
Mg434 Mg 0.38401 0.47276 0.40942 0.0
O435 O 0.39084 0.45489 0.43508 0.0
O436 O 0.36915 0.43326 0.45489 0.0
Mg437 Mg 0.34869 0.43688 0.44408 0.0
C438 C 0.38375 0.44086 0.45009 0.0
C439 C 0.4105 0.4991 0.34546 0.0
O440 O 0.39844 0.49921 0.32577 0.0
O441 O 0.37517 0.46067 0.32922 0.0
O442 O 0.35349 0.43961 0.35531 0.0
O443 O 0.38379 0.47978 0.49457 0.0
O444 O 0.36376 0.46165 0.45184 0.0
C445 C 0.36286 0.44799 0.31921 0.0
C446 C 0.36939 0.4693 0.49467 0.0
O447 O 0.40842 0.4889 0.37955 0.0
Mg448 Mg 0.53963 0.91975 0.42048 0.0
O449 O 0.55629 0.94497 0.44276 0.0
O450 O 0.57853 0.94707 0.46913 0.0
Mg451 Mg 0.57681 0.9237 0.45921 0.0
C452 C 0.57001 0.95288 0.46029 0.0
C453 C 0.51202 0.91756 0.35655 0.0
O454 O 0.51226 0.90544 0.33816 0.0
O455 O 0.55199 0.92319 0.34141 0.0
O456 O 0.57396 0.92478 0.36963 0.0
O457 O 0.53275 0.9128 0.5059 0.0
O458 O 0.55181 0.91221 0.46481 0.0
C459 C 0.56518 0.92459 0.33255 0.0
C460 C 0.54383 0.90974 0.50704 0.0
O461 O 0.5224 0.92636 0.38908 0.0
Mg462 Mg 0.28402 0.42334 0.89189 0.0
O463 O 0.27781 0.39889 0.86536 0.0
O464 O 0.29979 0.3995 0.84582 0.0
Mg465 Mg 0.31989 0.42371 0.85835 0.0
C466 C 0.28518 0.39225 0.8501 0.0
C467 C 0.2567 0.42223 0.95376 0.0
O468 O 0.26836 0.43471 0.97371 0.0
O469 O 0.29268 0.42001 0.97233 0.0
O470 O 0.31465 0.42115 0.94682 0.0
O471 O 0.28437 0.43066 0.80686 0.0
O472 O 0.30447 0.43301 0.85038 0.0
C473 C 0.30508 0.41984 0.98266 0.0
C474 C 0.29884 0.43486 0.80728 0.0
O475 O 0.25937 0.41434 0.92041 0.0
Mg476 Mg 0.58493 0.86641 0.90627 0.0
O477 O 0.60949 0.8843 0.87952 0.0
O478 O 0.60941 0.90598 0.86067 0.0
Mg479 Mg 0.58546 0.90242 0.87427 0.0
C480 C 0.61638 0.89834 0.86457 0.0
C481 C 0.58574 0.84041 0.96993 0.0
O482 O 0.57435 0.841 -0.00674 0.0
O483 O 0.589 0.87841 0.98684 0.0
O484 O 0.58852 0.89964 0.96223 0.0
O485 O 0.57731 0.85968 0.82136 0.0
O486 O 0.57561 0.87767 0.86595 0.0
C487 C 0.58977 0.89123 -0.00244 0.0
C488 C 0.57348 0.87022 0.82258 0.0
O489 O 0.59322 0.85009 0.93364 0.0
Mg490 Mg 0.13342 0.71504 0.90569 0.0
O491 O 0.11718 0.72267 0.87069 0.0
O492 O 0.096 0.70161 0.84303 0.0
Mg493 Mg 0.09919 0.68079 0.8539 0.0
C494 C 0.10369 0.71611 0.85067 0.0
C495 C 0.15918 0.74104 0.97268 0.0
O496 O 0.16003 0.72903 0.9886 0.0
O497 O 0.11774 0.70523 0.97849 0.0
O498 O 0.09854 0.6836 0.94336 0.0
O499 O 0.14417 0.71611 0.82601 0.0
O500 O 0.12406 0.69559 0.85893 0.0
C501 C 0.10514 0.69241 0.98302 0.0
C502 C 0.1337 0.70181 0.82093 0.0
O503 O 0.1485 0.73898 0.94083 0.0
H504 H 0.22054 0.9626 0.56125 0.0
H505 H 0.25408 0.03891 0.39689 0.0
H506 H 0.25368 0.0064 0.62887 0.0
H507 H 0.24052 0.99521 0.32212 0.0
H508 H 0.2536 0.02736 0.4832 0.0
H509 H 0.22733 0.97419 0.47274 0.0
C510 C 0.2294 0.97454 0.55752 0.0
C511 C 0.23637 0.98356 0.60264 0.0
C512 C 0.25095 0.02042 0.44762 0.0
C513 C 0.24394 0.99691 0.50199 0.0
C514 C 0.25118 0.02699 0.39848 0.0
C515 C 0.24717 0.018 0.35225 0.0
C516 C 0.24642 0.00474 0.45039 0.0
C517 C 0.24358 1.00259 0.35665 0.0
C518 C 0.23327 0.98115 0.50706 0.0
C519 C 0.24786 0.999 0.59533 0.0
N520 N 0.24305 0.9964 0.40491 0.0
N521 N 0.25106 0.00526 0.54605 0.0
H522 H 0.99237 0.24032 0.66087 0.0
H523 H 0.00568 0.25576 0.35082 0.0
H524 H 0.03572 0.25325 0.5845 0.0
H525 H 0.96179 0.22318 0.41913 0.0
H526 H 0.01686 0.26171 0.43954 0.0
H527 H 0.98156 0.2409 0.57514 0.0
C528 C 0.99972 0.24347 0.62623 0.0
C529 C 0.01497 0.24651 0.62987 0.0
C530 C 0.00475 0.25343 0.435 0.0
C531 C 1.00254 0.24729 0.53168 0.0
C532 C 0.99828 0.25005 0.38446 0.0
C533 C 0.98277 0.23873 0.37739 0.0
C534 C 0.99562 0.24564 0.47882 0.0
C535 C 0.97381 0.23183 0.42264 0.0
C536 C 0.99347 0.24375 0.57733 0.0
C537 C 0.02388 0.25065 0.58348 0.0
N538 N 0.98041 0.23533 0.47156 0.0
N539 N 0.01748 0.25083 0.53605 0.0
H540 H 0.7907 0.7518 0.40484 0.0
H541 H 0.74931 0.78748 0.56805 0.0
H542 H 0.76164 0.76663 0.32953 0.0
H543 H 0.75874 0.75353 0.63597 0.0
H544 H 0.75462 0.78091 0.47985 0.0
H545 H 0.78025 0.75338 0.49125 0.0
C546 C 0.78207 0.75524 0.40637 0.0
C547 C 0.77714 0.75918 0.35994 0.0
C548 C 0.75529 0.77479 0.51418 0.0
C549 C 0.76536 0.76118 0.45803 0.0
C550 C 0.75226 0.77852 0.56443 0.0
C551 C 0.75375 0.77119 0.60955 0.0
C552 C 0.7601 0.76389 0.50938 0.0
C553 C 0.75757 0.75961 0.60243 0.0
C554 C 0.77608 0.75609 0.45553 0.0
C555 C 0.76586 0.76353 0.36421 0.0
N556 N 0.76088 0.7565 0.5534 0.0
N557 N 0.76051 0.76461 0.41243 0.0
H558 H 0.75146 0.96232 0.56982 0.0
H559 H 0.79265 0.03884 0.40462 0.0
H560 H 0.75993 0.00568 0.63508 0.0
H561 H 0.76498 0.99456 0.32982 0.0
H562 H 0.78149 0.02703 0.49058 0.0
H563 H 0.75667 0.97379 0.48108 0.0
C564 C 0.75414 0.97413 0.5655 0.0
C565 C 0.75547 0.98309 0.61009 0.0
C566 C 0.77777 0.02 0.45505 0.0
C567 C 0.76173 0.99631 0.50921 0.0
C568 C 0.78416 0.02672 0.40614 0.0
C569 C 0.77986 0.01769 0.36002 0.0
C570 C 0.76725 0.00414 0.45772 0.0
C571 C 0.76874 1.00201 0.36428 0.0
C572 C 0.75713 0.98068 0.5149 0.0
C573 C 0.75893 0.99835 0.602 0.0
N574 N 0.76299 0.9957 0.41233 0.0
N575 N 0.76223 0.00456 0.55266 0.0
H576 H 0.04342 0.78782 0.56384 0.0
H577 H 0.96696 0.74904 0.3994 0.0
H578 H 0.99974 0.75648 0.63626 0.0
H579 H 0.01053 0.76042 0.32808 0.0
H580 H 0.97862 0.75201 0.48724 0.0
H581 H 0.03175 0.77844 0.47631 0.0
C582 C 0.03148 0.77886 0.56144 0.0
C583 C 0.02253 0.77309 0.60744 0.0
C584 C 0.98551 0.7536 0.45218 0.0
C585 C 0.00912 0.76253 0.50795 0.0
C586 C 0.97887 0.75193 0.40213 0.0
C587 C 0.98781 0.75468 0.3563 0.0
C588 C 1.00122 0.75834 0.45619 0.0
C589 C 1.0032 0.75833 0.36224 0.0
C590 C 0.02484 0.77349 0.51159 0.0
C591 C 0.00709 0.76141 0.60196 0.0
N592 N 0.00949 0.76032 0.41126 0.0
N593 N 1.00081 0.7567 0.55311 0.0
H594 H 0.27695 0.25866 0.36655 0.0
H595 H 0.20887 0.23267 0.57147 0.0
H596 H 0.24242 0.2111 0.38817 0.0
H597 H 0.25437 0.26932 0.61077 0.0
H598 H 0.21925 0.22762 0.49046 0.0
H599 H 0.26777 0.26521 0.44733 0.0
C600 C 0.26771 0.24957 0.38923 0.0
C601 C 0.2605 0.23432 0.37135 0.0
C602 C 0.22687 0.23692 0.51653 0.0
C603 C 0.24952 0.2418 0.46121 0.0
C604 C 0.22093 0.23998 0.56199 0.0
C605 C 0.23082 0.25145 0.5973 0.0
C606 C 0.2427 0.24559 0.50627 0.0
C607 C 0.24643 0.26041 0.58413 0.0
C608 C 0.2624 0.25333 0.43474 0.0
C609 C 0.24841 0.22295 0.40131 0.0
N610 N 0.25194 0.25728 0.53952 0.0
N611 N 0.24308 0.22697 0.44442 0.0
H612 H 0.92628 0.37295 0.73164 0.0
H613 H 0.88362 0.29584 0.89394 0.0
H614 H 0.9171 0.32959 0.66416 0.0
H615 H 0.91256 0.33965 0.97005 0.0
H616 H 0.89459 0.30784 0.80794 0.0
H617 H 0.92039 0.361 0.8197 0.0
C618 C 0.92327 0.36103 0.73535 0.0
C619 C 0.92204 0.35225 0.69035 0.0
C620 C 0.89861 0.31471 0.84377 0.0
C621 C 0.915 0.33849 0.79038 0.0
C622 C 0.89233 0.30788 0.8927 0.0
C623 C 0.89706 0.31674 0.93924 0.0
C624 C 0.90944 0.3305 0.84157 0.0
C625 C 0.90847 0.33233 0.9353 0.0
C626 C 0.9199 0.35421 0.78552 0.0
C627 C 0.91811 0.33682 0.69759 0.0
N628 N 0.9141 0.33875 0.8873 0.0
N629 N 0.91447 0.33036 0.74653 0.0
H630 H 0.63232 0.55301 0.74773 0.0
H631 H 0.70963 0.59555 0.90842 0.0
H632 H 0.6756 0.583 0.67045 0.0
H633 H 0.66636 0.58611 0.97739 0.0
H634 H 0.69753 0.59001 0.82047 0.0
H635 H 0.64454 0.56373 0.83368 0.0
C636 C 0.6443 0.56192 0.74875 0.0
C637 C 0.65294 0.56704 0.70189 0.0
C638 C 0.6908 0.58939 0.85499 0.0
C639 C 0.66697 0.57911 0.7995 0.0
C640 C 0.6977 0.59255 0.90509 0.0
C641 C 0.68898 0.59114 0.95044 0.0
C642 C 0.67507 0.58452 0.8506 0.0
C643 C 0.67354 0.58724 0.94369 0.0
C644 C 0.65125 0.56806 0.79765 0.0
C645 C 0.66846 0.57866 0.7055 0.0
N646 N 0.66701 0.58381 0.89482 0.0
N647 N 0.67503 0.58414 0.7535 0.0
H648 H 0.4697 0.10783 0.73551 0.0
H649 H 0.40126 0.07971 0.94115 0.0
H650 H 0.42477 0.06984 0.69841 0.0
H651 H 0.43501 0.12759 0.92073 0.0
H652 H 0.41106 0.0736 0.86101 0.0
H653 H 0.45917 0.11242 0.81714 0.0
C654 C 0.45777 0.10013 0.74566 0.0
C655 C 0.44805 0.0884 0.71085 0.0
C656 C 0.41613 0.08545 0.87373 0.0
C657 C 0.43598 0.09373 0.80245 0.0
C658 C 0.41047 0.08895 0.91889 0.0
C659 C 0.41726 0.10417 0.93688 0.0
C660 C 0.42894 0.09721 0.84765 0.0
C661 C 0.42933 0.11575 0.90746 0.0
C662 C 0.45172 0.10292 0.79146 0.0
C663 C 0.43258 0.07894 0.72475 0.0
N664 N 0.43499 0.11199 0.86461 0.0
N665 N 0.42697 0.08182 0.7696 0.0
H666 H 0.45538 0.3761 0.74731 0.0
H667 H 0.4225 0.29943 0.91166 0.0
H668 H 0.42108 0.33239 0.68242 0.0
H669 H 0.43844 0.34353 0.98697 0.0
H670 H 0.42267 0.31117 0.82596 0.0
H671 H 0.44994 0.36447 0.83581 0.0
C672 C 0.44655 0.36417 0.7517 0.0
C673 C 0.43883 0.35519 0.70724 0.0
C674 C 0.42594 0.31816 0.86155 0.0
C675 C 0.43283 0.34178 0.80783 0.0
C676 C 0.4259 0.31149 0.9103 0.0
C677 C 0.43055 0.3205 0.95651 0.0
C678 C 0.43093 0.33396 0.85913 0.0
C679 C 0.4348 0.3361 0.95246 0.0
C680 C 0.44347 0.35753 0.80214 0.0
C681 C 0.42745 0.33976 0.71539 0.0
N682 N 0.43508 0.34236 0.90458 0.0
N683 N 0.42499 0.33347 0.76456 0.0
H684 H 0.67097 0.07832 0.95471 0.0
H685 H 0.68294 0.09828 0.64714 0.0
H686 H 0.71402 0.11395 0.89008 0.0
H687 H 0.63941 0.08231 0.72642 0.0
H688 H 0.69454 0.09803 0.73179 0.0
H689 H 0.65975 0.07355 0.86617 0.0
C690 C 0.67819 0.08498 0.92185 0.0
C691 C 0.69345 0.09677 0.93008 0.0
C692 C 0.68243 0.09446 0.73046 0.0
C693 C 0.68055 0.09121 0.82876 0.0
C694 C 0.67574 0.09453 0.68222 0.0
C695 C 0.66015 0.0904 0.67977 0.0
C696 C 0.67346 0.09001 0.77651 0.0
C697 C 0.65147 0.0857 0.72662 0.0
C698 C 0.67169 0.08226 0.87143 0.0
C699 C 0.70219 0.10488 0.88572 0.0
N700 N 0.65826 0.08564 0.77328 0.0
N701 N 0.69556 0.10201 0.83685 0.0
H702 H 0.90026 0.53749 0.73133 0.0
H703 H 0.91916 0.60443 0.93792 0.0
H704 H 0.9372 0.58381 0.70579 0.0
H705 H 0.87352 0.56581 0.91668 0.0
H706 H 0.92764 0.5964 0.85913 0.0
H707 H 0.89262 0.5463 0.81066 0.0
C708 C 0.90709 0.54938 0.74368 0.0
C709 C 0.91942 0.55996 0.7126 0.0
C710 C 0.9157 0.58985 0.8711 0.0
C711 C 0.91055 0.57013 0.80143 0.0
C712 C 0.91083 0.59454 0.91544 0.0
C713 C 0.8956 0.58587 0.93296 0.0
C714 C 0.90534 0.57616 0.84523 0.0
C715 C 0.88528 0.57294 0.90357 0.0
C716 C 0.90255 0.55445 0.78807 0.0
C717 C 0.92769 0.57533 0.72919 0.0
N718 N 0.89041 0.56829 0.86147 0.0
N719 N 0.92307 0.57999 0.77246 0.0
H720 H 0.55847 0.62902 0.23265 0.0
H721 H 0.59337 0.70585 0.072 0.0
H722 H 0.58961 0.67258 0.30633 0.0
H723 H 0.58356 0.66308 -0.00232 0.0
H724 H 0.5915 0.69408 0.15907 0.0
H725 H 0.56683 0.64121 0.14543 0.0
C726 C 0.5672 0.64105 0.23052 0.0
C727 C 0.57322 0.6498 0.27682 0.0
C728 C 0.59 0.68742 0.12346 0.0
C729 C 0.58257 0.66382 0.17771 0.0
C730 C 0.59103 0.6941 0.07388 0.0
C731 C 0.58842 0.68541 0.02747 0.0
C732 C 0.58605 0.6719 0.12638 0.0
C733 C 0.58551 0.67023 0.0323 0.0
C734 C 0.57198 0.64799 0.18085 0.0
C735 C 0.58457 0.66537 0.27173 0.0
N736 N 0.58414 0.66388 0.08086 0.0
N737 N 0.58867 0.67195 0.22306 0.0
H738 H 0.36523 0.90108 0.25569 0.0
H739 H 0.31722 0.91689 0.04294 0.0
H740 H 0.35088 0.93415 0.28859 0.0
H741 H 0.30923 0.87131 0.07422 0.0
H742 H 0.33285 0.92607 0.12403 0.0
H743 H 0.34936 0.89334 0.17504 0.0
C744 C 0.35917 0.90708 0.24485 0.0
C745 C 0.35934 0.91828 0.27839 0.0
C746 C 0.32741 0.91401 0.11357 0.0
C747 C 0.34108 0.90933 0.18767 0.0
C748 C 0.31838 0.90876 0.06794 0.0
C749 C 0.3118 0.89331 0.05277 0.0
C750 C 0.33026 0.90383 0.14278 0.0
C751 C 0.3139 0.88323 0.0854 0.0
C752 C 0.34992 0.90246 0.19962 0.0
C753 C 0.35103 0.92549 0.2634 0.0
N754 N 0.32323 0.88874 0.12853 0.0
N755 N 0.34217 0.92087 0.21901 0.0
H756 H 0.08237 0.45394 0.24712 0.0
H757 H 0.11846 0.41249 0.08102 0.0
H758 H 0.10657 0.43325 0.32008 0.0
H759 H 0.08019 0.41677 0.02375 0.0
H760 H 0.11536 0.42126 0.16839 0.0
H761 H 0.08303 0.44221 0.16214 0.0
C762 C 0.08781 0.44697 0.24524 0.0
C763 C 0.09435 0.44451 0.29063 0.0
C764 C 0.10755 0.42009 0.13671 0.0
C765 C 0.09521 0.43121 0.19438 0.0
C766 C 0.10927 0.41502 0.08695 0.0
C767 C 0.09969 0.41403 0.0448 0.0
C768 C 0.09633 0.42438 0.14397 0.0
C769 C 0.08795 0.41747 0.05487 0.0
C770 C 0.0881 0.44021 0.19702 0.0
C771 C 0.10125 0.43536 0.28617 0.0
N772 N 0.08675 0.42271 0.10322 0.0
N773 N 0.10157 0.42912 0.23888 0.0
H774 H 0.09206 0.6759 0.31983 0.0
H775 H 0.08172 0.66373 0.00769 0.0
H776 H 0.08019 0.6328 0.24347 0.0
H777 H 0.11407 0.70714 0.07976 0.0
H778 H 0.0742 0.65239 0.09574 0.0
H779 H 0.09312 0.6871 0.23323 0.0
C780 C 0.08944 0.66867 0.28499 0.0
C781 C 0.08625 0.65339 0.28894 0.0
C782 C 0.08279 0.66443 0.09214 0.0
C783 C 0.08735 0.66627 0.18984 0.0
C784 C 0.08708 0.67099 0.04196 0.0
C785 C 0.09877 0.68641 0.03622 0.0
C786 C 0.09004 0.67338 0.13695 0.0
C787 C 0.10516 0.69519 0.08226 0.0
C788 C 0.09011 0.67515 0.23562 0.0
C789 C 0.08286 0.64466 0.24226 0.0
N790 N 0.10077 0.6885 0.13086 0.0
N791 N 0.08359 0.65127 0.19443 0.0
H792 H 0.35147 0.42002 0.27275 0.0
H793 H 0.30489 0.43833 0.06103 0.0
H794 H 0.36062 0.46613 0.24435 0.0
H795 H 0.31819 0.40454 0.02683 0.0
H796 H 0.32054 0.44541 0.14222 0.0
H797 H 0.33577 0.4115 0.19166 0.0
C798 C 0.35052 0.4284 0.24844 0.0
C799 C 0.35748 0.44381 0.2644 0.0
C800 C 0.31979 0.43627 0.11725 0.0
C801 C 0.33896 0.43405 0.1743 0.0
C802 C 0.31065 0.43204 0.0717 0.0
C803 C 0.31024 0.4208 0.03772 0.0
C804 C 0.32825 0.42898 0.12904 0.0
C805 C 0.31821 0.41322 0.05242 0.0
C806 C 0.34146 0.42352 0.20279 0.0
C807 C 0.35566 0.45422 0.23258 0.0
N808 N 0.32694 0.41746 0.09712 0.0
N809 N 0.3463 0.44909 0.18938 0.0
H810 H 0.59356 0.93948 0.28733 0.0
H811 H 0.57133 0.8733 0.07711 0.0
H812 H 0.54655 0.90459 0.25747 0.0
H813 H 0.60684 0.91956 0.04091 0.0
H814 H 0.56551 0.88279 0.15878 0.0
H815 H 0.60144 0.93121 0.20725 0.0
C816 C 0.58488 0.93036 0.26305 0.0
C817 C 0.56939 0.92279 0.27837 0.0
C818 C 0.57476 0.89077 0.1333 0.0
C819 C 0.57837 0.91282 0.18942 0.0
C820 C 0.57827 0.88534 0.08747 0.0
C821 C 0.58959 0.8957 0.05278 0.0
C822 C 0.58287 0.90657 0.14455 0.0
C823 C 0.59805 0.91126 0.06708 0.0
C824 C 0.58939 0.92556 0.21797 0.0
C825 C 0.55857 0.91086 0.24637 0.0
N826 N 0.59449 0.91628 0.11202 0.0
N827 N 0.56331 0.90603 0.20377 0.0
H828 H 0.21984 1.00102 0.82644 0.0
H829 H 0.2056 0.00389 0.13457 0.0
H830 H 0.1885 0.961 0.91705 0.0
H831 H 0.23045 0.04456 0.03846 0.0
H832 H 0.19758 0.98821 0.05444 0.0
H833 H 0.22269 0.0172 0.90234 0.0
C834 C 0.21358 0.99561 0.86248 0.0
C835 C 0.20411 0.97959 0.86581 0.0
C836 C 0.2046 1.00057 0.05061 0.0
C837 C 0.20723 0.99816 0.95285 0.0
C838 C 0.20918 0.00953 0.09632 0.0
C839 C 0.21883 0.0255 0.0929 0.0
C840 C 0.20991 0.0076 0.00108 0.0
C841 C 0.22303 0.03227 0.04262 0.0
C842 C 0.21511 0.00491 0.90566 0.0
C843 C 0.19603 0.97328 0.91305 0.0
N844 N 0.21873 0.02323 -0.0015 0.0
N845 N 0.1979 0.98259 0.95501 0.0
H846 H 0.99907 0.22326 0.15037 0.0
H847 H 1.00139 0.20341 0.84723 0.0
H848 H 0.95897 0.18983 0.06448 0.0
H849 H 0.04217 0.23065 0.94079 0.0
H850 H 0.98589 0.19658 0.92773 0.0
H851 H 0.01509 0.22502 0.07539 0.0
C852 C 0.9936 0.21634 0.11551 0.0
C853 C 0.9776 0.20656 0.11326 0.0
C854 C 0.99824 0.20384 0.93096 0.0
C855 C 0.996 0.20839 0.02736 0.0
C856 C 0.00709 0.20772 0.88507 0.0
C857 C 0.02302 0.21772 0.8876 0.0
C858 C 0.00535 0.21022 0.97964 0.0
C859 C 0.0299 0.22291 0.93735 0.0
C860 C 1.00281 0.21724 0.07289 0.0
C861 C 0.97123 0.19763 0.06757 0.0
N862 N 0.02096 0.2193 0.98153 0.0
N863 N 0.98046 0.19886 0.02612 0.0
H864 H 0.77535 0.81614 0.92915 0.0
H865 H 0.81791 0.7724 0.04133 0.0
H866 H 0.78435 0.78534 0.83632 0.0
H867 H 0.80193 0.79681 0.13933 0.0
H868 H 0.80995 0.78099 0.96216 0.0
H869 H 0.78893 0.81269 0.00417 0.0
C870 C 0.78015 0.80866 0.92462 0.0
C871 C 0.77846 0.80078 0.87694 0.0
C872 C 0.80837 0.7846 0.00106 0.0
C873 C 0.79412 0.79694 0.96173 0.0
C874 C 0.813 0.77979 0.04601 0.0
C875 C 0.81032 0.78373 0.09659 0.0
C876 C 0.80115 0.79345 0.00724 0.0
C877 C 0.80393 0.79331 0.10084 0.0
C878 C 0.78794 0.80673 0.96723 0.0
C879 C 0.78508 0.79138 0.87279 0.0
N880 N 0.79943 0.79774 0.05679 0.0
N881 N 0.79256 0.78968 0.91468 0.0
H882 H 0.78838 1.00144 0.83481 0.0
H883 H 0.80887 0.00601 0.14107 0.0
H884 H 0.78078 0.96207 0.92726 0.0
H885 H 0.82099 0.046 0.04506 0.0
H886 H 0.80095 0.99014 0.06141 0.0
H887 H 0.80203 0.01809 0.90937 0.0
C888 C 0.78951 0.99626 0.87099 0.0
C889 C 0.78317 0.98028 0.87522 0.0
C890 C 0.80553 1.0024 0.05744 0.0
C891 C 0.79904 0.99941 0.9607 0.0
C892 C 0.81008 0.01147 0.10286 0.0
C893 C 0.81542 0.02728 0.09941 0.0
C894 C 0.80609 0.00914 0.00817 0.0
C895 C 0.81691 0.03384 0.0492 0.0
C896 C 0.79745 0.00583 0.91341 0.0
C897 C 0.78534 0.9743 0.92257 0.0
N898 N 0.81201 0.02466 0.00541 0.0
N899 N 0.79299 0.98388 0.96373 0.0
H900 H 0.04882 0.81886 0.92367 0.0
H901 H 0.96322 0.77727 0.04199 0.0
H902 H 0.00771 0.79541 0.8283 0.0
H903 H 1.00406 0.79157 0.13637 0.0
H904 H 0.97957 0.78855 0.96342 0.0
H905 H 0.03266 0.81361 0.0029 0.0
C906 C 0.03643 0.81277 0.91941 0.0
C907 C 0.02956 0.8073 0.86977 0.0
C908 C 0.98492 0.78929 0.00151 0.0
C909 C 0.0111 0.80134 0.95937 0.0
C910 C 0.9756 0.78288 0.04619 0.0
C911 C 0.9823 0.78324 0.09531 0.0
C912 C 1.00098 0.79617 0.00645 0.0
C913 C 0.9984 0.79076 0.0989 0.0
C914 C 0.02722 0.80974 0.96446 0.0
C915 C 0.01346 0.79955 0.86613 0.0
N916 N 0.00719 0.79684 0.05502 0.0
N917 N 0.00477 0.79671 0.91036 0.0
H918 H 0.23802 0.23066 0.13495 0.0
H919 H 0.21883 0.21897 0.82689 0.0
H920 H 0.24571 0.19976 0.03745 0.0
H921 H 0.20077 0.24007 0.93188 0.0
H922 H 0.22927 0.21237 0.90304 0.0
H923 H 0.22544 0.23523 0.06039 0.0
C924 C 0.23722 0.22494 0.09763 0.0
C925 C 0.24309 0.21492 0.09219 0.0
C926 C 0.22293 0.21833 0.90965 0.0
C927 C 0.22844 0.21998 0.00685 0.0
C928 C 0.21699 0.22214 0.86623 0.0
C929 C 0.20905 0.2302 0.87327 0.0
C930 C 0.22111 0.22278 0.96061 0.0
C931 C 0.20683 0.23386 0.92493 0.0
C932 C 0.22986 0.22745 0.05525 0.0
C933 C 0.24144 0.20764 0.0432 0.0
N934 N 0.21302 0.23027 0.96682 0.0
N935 N 0.23431 0.21037 0.00224 0.0
H936 H 0.89292 0.33493 0.46227 0.0
H937 H 0.86916 0.32918 0.15911 0.0
H938 H 0.89846 0.37382 0.37146 0.0
H939 H 0.85785 0.28955 0.25605 0.0
H940 H 0.87799 0.34539 0.23794 0.0
H941 H 0.87894 0.31807 0.38862 0.0
C942 C 0.89131 0.33997 0.42658 0.0
C943 C 0.89711 0.35588 0.42263 0.0
C944 C 0.87338 0.33314 0.24231 0.0
C945 C 0.88083 0.33648 0.33822 0.0
C946 C 0.8683 0.32387 0.19738 0.0
C947 C 0.86292 0.30806 0.2013 0.0
C948 C 0.8733 0.32658 0.29149 0.0
C949 C 0.86192 0.3017 0.25156 0.0
C950 C 0.88315 0.33026 0.38472 0.0
C951 C 0.89433 0.36165 0.37591 0.0
N952 N 0.86733 0.31106 0.2948 0.0
N953 N 0.88646 0.35194 0.33527 0.0
H954 H 0.71244 0.56951 0.26976 0.0
H955 H 0.62635 0.52615 0.38434 0.0
H956 H 0.67259 0.56167 0.1796 0.0
H957 H 0.66702 0.54276 0.48133 0.0
H958 H 0.6428 0.53484 0.30484 0.0
H959 H 0.69555 0.55586 0.34495 0.0
C960 C 0.70018 0.56496 0.26586 0.0
C961 C 0.69394 0.56696 0.21882 0.0
C962 C 0.64807 0.53639 0.34359 0.0
C963 C 0.67459 0.5512 0.30384 0.0
C964 C 0.63868 0.53134 0.3887 0.0
C965 C 0.6454 0.53395 0.43913 0.0
C966 C 0.66417 0.54393 0.34944 0.0
C967 C 0.66143 0.54076 0.44298 0.0
C968 C 0.69054 0.55714 0.30858 0.0
C969 C 0.67794 0.56067 0.21554 0.0
N970 N 0.67028 0.54561 0.3988 0.0
N971 N 0.66882 0.55311 0.25749 0.0
H972 H 0.42921 0.13836 0.27089 0.0
H973 H 0.47631 0.09838 0.37425 0.0
H974 H 0.4379 0.10776 0.17556 0.0
H975 H 0.45824 0.11983 0.4777 0.0
H976 H 0.46511 0.10456 0.29797 0.0
H977 H 0.44219 0.13401 0.34574 0.0
C978 C 0.43371 0.13065 0.26586 0.0
C979 C 0.43232 0.1233 0.21719 0.0
C980 C 0.46368 0.10796 0.33744 0.0
C981 C 0.44738 0.11849 0.30182 0.0
C982 C 0.47015 0.10452 0.38075 0.0
C983 C 0.46803 0.10846 0.43214 0.0
C984 C 0.45523 0.11549 0.34593 0.0
C985 C 0.45994 0.11639 0.43865 0.0
C986 C 0.44117 0.12821 0.3084 0.0
C987 C 0.43851 0.11352 0.21258 0.0
N988 N 0.4538 0.11961 0.3961 0.0
N989 N 0.4458 0.11144 0.25428 0.0
H990 H 0.47161 0.33276 0.17729 0.0
H991 H 0.45142 0.33756 0.47892 0.0
H992 H 0.44239 0.29284 0.27166 0.0
H993 H 0.4849 0.37678 0.38975 0.0
H994 H 0.44912 0.32089 0.40528 0.0
H995 H 0.47839 0.3487 0.25668 0.0
C996 C 0.46685 0.32733 0.21516 0.0
C997 C 0.45635 0.31152 0.21816 0.0
C998 C 0.457 0.33313 0.40175 0.0
C999 C 0.46377 0.32974 0.30895 0.0
C1000 C 0.45822 0.34271 0.4436 0.0
C1001 C 0.46819 0.35866 0.44009 0.0
C1002 C 0.46576 0.33949 0.35575 0.0
C1003 C 0.47696 0.36459 0.39386 0.0
C1004 C 0.47069 0.33644 0.2604 0.0
C1005 C 0.45055 0.305 0.26791 0.0
N1006 N 0.47546 0.35499 0.35326 0.0
N1007 N 0.45415 0.31421 0.31144 0.0
H1008 H 0.67597 0.10706 0.16337 0.0
H1009 H 0.67129 0.13247 0.45843 0.0
H1010 H 0.71485 0.14304 0.24718 0.0
H1011 H 0.6314 0.10037 0.36913 0.0
H1012 H 0.68698 0.13806 0.37887 0.0
H1013 H 0.65932 0.10527 0.23642 0.0
C1014 C 0.68106 0.1145 0.19742 0.0
C1015 C 0.6969 0.12508 0.19954 0.0
C1016 C 0.67477 0.12998 0.37618 0.0
C1017 C 0.67775 0.12325 0.28301 0.0
C1018 C 0.6658 0.12686 0.42148 0.0
C1019 C 0.65009 0.11595 0.41999 0.0
C1020 C 0.66803 0.1219 0.32921 0.0
C1021 C 0.64348 0.10894 0.37153 0.0
C1022 C 0.67147 0.11357 0.23888 0.0
C1023 C 0.70274 0.13462 0.24416 0.0
N1024 N 0.65257 0.11186 0.32801 0.0
N1025 N 0.69316 0.13343 0.28431 0.0
H1026 H 0.89347 0.55467 0.47962 0.0
H1027 H 0.89023 0.56033 0.16553 0.0
H1028 H 0.90889 0.53161 0.37238 0.0
H1029 H 0.86629 0.57489 0.27214 0.0
H1030 H 0.89793 0.55059 0.24074 0.0
H1031 H 0.88426 0.56291 0.40434 0.0
C1032 C 0.89499 0.55138 0.44008 0.0
C1033 C 0.90214 0.54258 0.43212 0.0
C1034 C 0.89097 0.55588 0.24781 0.0
C1035 C 0.89147 0.55194 0.34564 0.0
C1036 C 0.88665 0.56156 0.20493 0.0
C1037 C 0.87775 0.56862 0.21273 0.0
C1038 C 0.88647 0.55732 0.29913 0.0
C1039 C 0.87321 0.56961 0.26448 0.0
C1040 C 0.88961 0.55602 0.39714 0.0
C1041 C 0.90351 0.53843 0.38017 0.0
N1042 N 0.87772 0.56409 0.30591 0.0
N1043 N 0.8983 0.54326 0.33871 0.0
H1044 H 0.52577 0.62512 0.59103 0.0
H1045 H 0.56911 0.71063 0.71066 0.0
H1046 H 0.55524 0.66576 0.49981 0.0
H1047 H 0.55042 0.6696 0.80657 0.0
H1048 H 0.55939 0.69441 0.63092 0.0
H1049 H 0.53029 0.64149 0.66933 0.0
C1050 C 0.53311 0.63745 0.58748 0.0
C1051 C 0.54036 0.64408 0.53932 0.0
C1052 C 0.55732 0.689 0.66958 0.0
C1053 C 0.54539 0.66278 0.62774 0.0
C1054 C 0.56281 0.69824 0.7149 0.0
C1055 C 0.56077 0.69141 0.7649 0.0
C1056 C 0.54965 0.6729 0.67475 0.0
C1057 C 0.55247 0.67531 0.76849 0.0
C1058 C 0.53568 0.64677 0.63197 0.0
C1059 C 0.54966 0.66013 0.53653 0.0
N1060 N 0.54729 0.66659 0.72401 0.0
N1061 N 0.55195 0.66892 0.58014 0.0
H1062 H 0.33189 0.88212 0.82313 0.0
H1063 H 0.33917 0.89002 0.50926 0.0
H1064 H 0.29273 0.86077 0.718 0.0
H1065 H 0.37808 0.90276 0.61237 0.0
H1066 H 0.32208 0.87955 0.58515 0.0
H1067 H 0.34894 0.88985 0.74669 0.0
C1068 C 0.32687 0.87905 0.7838 0.0
C1069 C 0.31086 0.87096 0.77673 0.0
C1070 C 0.33433 0.88457 0.59128 0.0
C1071 C 0.33038 0.8798 0.68897 0.0
C1072 C 0.34415 0.89068 0.54803 0.0
C1073 C 0.36012 0.89747 0.55471 0.0
C1074 C 0.34049 0.88534 0.64183 0.0
C1075 C 0.36586 0.89772 0.60562 0.0
C1076 C 0.33663 0.88341 0.7402 0.0
C1077 C 0.305 0.86706 0.72506 0.0
N1078 N 0.35603 0.89183 0.64745 0.0
N1079 N 0.31479 0.87166 0.68296 0.0
H1080 H 0.13967 0.43365 0.71978 0.0
H1081 H 0.09394 0.47442 0.6105 0.0
H1082 H 0.10344 0.43535 0.80639 0.0
H1083 H 0.12922 0.47131 0.52324 0.0
H1084 H 0.09923 0.46274 0.68758 0.0
H1085 H 0.13727 0.44918 0.64971 0.0
C1086 C 0.13111 0.43713 0.72377 0.0
C1087 C 0.12163 0.43303 0.76864 0.0
C1088 C 0.10598 0.46487 0.6518 0.0
C1089 C 0.11899 0.45101 0.68939 0.0
C1090 C 0.10309 0.4717 0.60825 0.0
C1091 C 0.11113 0.47371 0.56082 0.0
C1092 C 0.11697 0.46011 0.6473 0.0
C1093 C 0.12272 0.46981 0.55927 0.0
C1094 C 0.12981 0.4461 0.68404 0.0
C1095 C 0.11085 0.43803 0.77214 0.0
N1096 N 0.12519 0.46306 0.60166 0.0
N1097 N 0.10982 0.44675 0.73307 0.0
H1098 H 0.14757 0.71176 0.72345 0.0
H1099 H 0.10583 0.62668 0.60052 0.0
H1100 H 0.11733 0.67078 0.81186 0.0
H1101 H 0.12663 0.66813 0.50657 0.0
H1102 H 0.11467 0.64253 0.68136 0.0
H1103 H 0.14434 0.69565 0.64567 0.0
C1104 C 0.14031 0.69941 0.72649 0.0
C1105 C 0.13248 0.69261 0.77368 0.0
C1106 C 0.11743 0.64811 0.64292 0.0
C1107 C 0.1289 0.67419 0.68574 0.0
C1108 C 0.11247 0.63908 0.59699 0.0
C1109 C 0.11531 0.64616 0.54717 0.0
C1110 C 0.12537 0.66424 0.63853 0.0
C1111 C 0.12397 0.66225 0.54446 0.0
C1112 C 0.13849 0.69023 0.68228 0.0
C1113 C 0.12333 0.67653 0.77584 0.0
N1114 N 0.1286 0.67076 0.58951 0.0
N1115 N 0.12174 0.66787 0.73244 0.0
H1116 H 0.2905 0.43405 0.70258 0.0
H1117 H 0.37775 0.47765 0.59897 0.0
H1118 H 0.32997 0.45018 0.8056 0.0
H1119 H 0.33828 0.45298 0.49679 0.0
H1120 H 0.36035 0.47056 0.67551 0.0
H1121 H 0.30791 0.44391 0.62599 0.0
C1122 C 0.30279 0.43969 0.70904 0.0
C1123 C 0.3088 0.44111 0.76026 0.0
C1124 C 0.35554 0.46673 0.63622 0.0
C1125 C 0.32871 0.45244 0.67353 0.0
C1126 C 0.36546 0.47078 0.59269 0.0
C1127 C 0.35945 0.4657 0.54173 0.0
C1128 C 0.33956 0.45769 0.62837 0.0
C1129 C 0.34343 0.45692 0.53558 0.0
C1130 C 0.31272 0.44529 0.66547 0.0
C1131 C 0.32483 0.4486 0.76662 0.0
N1132 N 0.33405 0.45318 0.57835 0.0
N1133 N 0.33422 0.45395 0.72378 0.0
H1134 H 0.55782 0.88568 0.82255 0.0
H1135 H 0.56189 0.89684 0.51003 0.0
H1136 H 0.57558 0.86439 0.71699 0.0
H1137 H 0.53364 0.90761 0.61016 0.0
H1138 H 0.56778 0.88582 0.58597 0.0
H1139 H 0.54943 0.89438 0.74604 0.0
C1140 C 0.55994 0.88281 0.78312 0.0
C1141 C 0.56758 0.87445 0.77593 0.0
C1142 C 0.56027 0.89054 0.59145 0.0
C1143 C 0.55798 0.88442 0.68825 0.0
C1144 C 0.55698 0.89698 0.54819 0.0
C1145 C 0.54739 0.90333 0.55397 0.0
C1146 C 0.55403 0.89054 0.64118 0.0
C1147 C 0.54116 0.90292 0.60413 0.0
C1148 C 0.55506 0.88773 0.73952 0.0
C1149 C 0.56979 0.87085 0.72415 0.0
N1150 N 0.54469 0.8967 0.64607 0.0
N1151 N 0.56514 0.87601 0.68211 0.0
H1152 H 0.36272 0.06871 0.11677 0.0
H1153 H 0.28904 0.07718 0.16914 0.0
H1154 H 0.36509 0.11281 0.1193 0.0
H1155 H 0.28683 0.0344 0.1278 0.0
H1156 H 0.31681 0.09063 0.15351 0.0
H1157 H 0.33491 0.05612 0.12458 0.0
C1158 C 0.35741 0.07578 0.11909 0.0
C1159 C 0.36632 0.09188 0.11756 0.0
C1160 C 0.3102 0.07832 0.14748 0.0
C1161 C 0.33428 0.07743 0.1265 0.0
C1162 C 0.29434 0.07062 0.15639 0.0
C1163 C 0.28555 0.05459 0.15007 0.0
C1164 C 0.31735 0.06992 0.13267 0.0
C1165 C 0.29308 0.04673 0.13333 0.0
C1166 C 0.34148 0.06855 0.12327 0.0
C1167 C 0.3587 0.10038 0.12035 0.0
N1168 N 0.30853 0.05445 0.12567 0.0
N1169 N 0.34311 0.09305 0.125 0.0
H1170 H 0.92299 0.30117 0.15582 0.0
H1171 H 0.92144 0.22128 0.18704 0.0
H1172 H 0.88228 0.2575 0.12454 0.0
H1173 H 0.96305 0.26516 0.17094 0.0
H1174 H 0.90639 0.23407 0.17267 0.0
H1175 H 0.93727 0.28784 0.17172 0.0
C1176 C 0.917 0.28877 0.15264 0.0
C1177 C 0.90139 0.28047 0.13862 0.0
C1178 C 0.91882 0.24084 0.17211 0.0
C1179 C 0.91778 0.2651 0.1567 0.0
C1180 C 0.92742 0.23357 0.18031 0.0
C1181 C 0.94356 0.24214 0.18014 0.0
C1182 C 0.9264 0.25682 0.1644 0.0
C1183 C 0.95066 0.25804 0.17122 0.0
C1184 C 0.92521 0.28116 0.16144 0.0
C1185 C 0.8943 0.26438 0.13503 0.0
N1186 N 0.94205 0.26485 0.16404 0.0
N1187 N 0.90255 0.25722 0.14404 0.0
H1188 H 0.70869 0.63935 0.15254 0.0
H1189 H 0.79196 0.71362 0.18046 0.0
H1190 H 0.75036 0.63728 0.13429 0.0
H1191 H 0.7505 0.7154 0.15165 0.0
H1192 H 0.77717 0.68561 0.17053 0.0
H1193 H 0.72408 0.66717 0.16117 0.0
C1194 C 0.72109 0.64471 0.15069 0.0
C1195 C 0.72821 0.6359 0.14258 0.0
C1196 C 0.77137 0.69218 0.1661 0.0
C1197 C 0.74595 0.66791 0.15229 0.0
C1198 C 0.77979 0.70816 0.17173 0.0
C1199 C 0.77248 0.71692 0.16695 0.0
C1200 C 0.75549 0.68488 0.1563 0.0
C1201 C 0.75667 0.70918 0.15559 0.0
C1202 C 0.72987 0.66064 0.1553 0.0
C1203 C 0.74436 0.64359 0.14037 0.0
N1204 N 0.74872 0.69364 0.15106 0.0
N1205 N 0.75269 0.65916 0.14528 0.0
H1206 H 0.02967 0.28442 0.85415 0.0
H1207 H 0.10975 0.36367 0.85884 0.0
H1208 H 0.07294 0.28757 0.81367 0.0
H1209 H 0.06532 0.36064 0.85942 0.0
H1210 H 0.09688 0.33561 0.85219 0.0
H1211 H 0.04309 0.31216 0.86801 0.0
C1212 C 0.04201 0.29089 0.84868 0.0
C1213 C 0.05015 0.28361 0.83236 0.0
C1214 C 0.08998 0.34112 0.85372 0.0
C1215 C 0.06559 0.31547 0.84792 0.0
C1216 C 0.09731 0.35714 0.85749 0.0
C1217 C 0.08862 0.36457 0.85945 0.0
C1218 C 0.07385 0.33247 0.8525 0.0
C1219 C 0.07252 0.35547 0.85767 0.0
C1220 C 0.04966 0.30677 0.85631 0.0
C1221 C 0.06616 0.29268 0.82593 0.0
N1222 N 0.06568 0.33993 0.85447 0.0
N1223 N 0.07335 0.30814 0.83357 0.0
H1224 H 0.70727 0.78501 0.79628 0.0
H1225 H 0.6306 0.70306 0.81101 0.0
H1226 H 0.7067 0.74189 0.8102 0.0
H1227 H 0.63094 0.74534 0.84538 0.0
H1228 H 0.65838 0.71762 0.79946 0.0
H1229 H 0.6792 0.77111 0.80534 0.0
C1230 C 0.70129 0.77266 0.80148 0.0
C1231 C 0.70941 0.76463 0.80255 0.0
C1232 C 0.65238 0.72373 0.80942 0.0
C1233 C 0.67732 0.74868 0.81211 0.0
C1234 C 0.63647 0.71542 0.81572 0.0
C1235 C 0.62837 0.72295 0.82946 0.0
C1236 C 0.66032 0.73973 0.81646 0.0
C1237 C 0.63669 0.73903 0.83502 0.0
C1238 C 0.68527 0.76474 0.80661 0.0
C1239 C 0.70101 0.74861 0.80934 0.0
N1240 N 0.65223 0.74689 0.82854 0.0
N1241 N 0.68546 0.74119 0.81352 0.0
H1242 H 0.21924 0.92354 0.79397 0.0
H1243 H 0.29932 0.92701 0.84616 0.0
H1244 H 0.26214 0.96546 0.822 0.0
H1245 H 0.25583 0.88478 0.85876 0.0
H1246 H 0.28565 0.94088 0.83037 0.0
H1247 H 0.23217 0.9088 0.81212 0.0
C1248 C 0.23134 0.92966 0.80416 0.0
C1249 C 0.23961 0.9458 0.80634 0.0
C1250 C 0.27906 0.92859 0.83664 0.0
C1251 C 0.25445 0.92899 0.8266 0.0
C1252 C 0.28688 0.9206 0.84544 0.0
C1253 C 0.27874 0.90465 0.85387 0.0
C1254 C 0.26294 0.92062 0.83579 0.0
C1255 C 0.26259 0.89707 0.85257 0.0
C1256 C 0.23869 0.92122 0.81453 0.0
C1257 C 0.25526 0.95306 0.81983 0.0
N1258 N 0.25521 0.90512 0.84356 0.0
N1259 N 0.26216 0.94462 0.82909 0.0
H1260 H 0.71161 0.9241 0.80197 0.0
H1261 H 0.63534 0.92889 0.84458 0.0
H1262 H 0.71108 0.96637 0.82675 0.0
H1263 H 0.63578 0.88631 0.86045 0.0
H1264 H 0.66297 0.94238 0.83068 0.0
H1265 H 0.6838 0.90969 0.81767 0.0
C1266 C 0.7057 0.93036 0.81097 0.0
C1267 C 0.71375 0.9465 0.81294 0.0
C1268 C 0.65706 0.93008 0.83723 0.0
C1269 C 0.68193 0.93008 0.83032 0.0
C1270 C 0.64121 0.92232 0.84494 0.0
C1271 C 0.63315 0.90639 0.85382 0.0
C1272 C 0.66502 0.92192 0.83796 0.0
C1273 C 0.6415 0.89859 0.85387 0.0
C1274 C 0.68982 0.92211 0.81991 0.0
C1275 C 0.70544 0.95396 0.82481 0.0
N1276 N 0.65699 0.90643 0.84597 0.0
N1277 N 0.69002 0.9457 0.8327 0.0
H1278 H 0.08199 0.78866 0.79448 0.0
H1279 H 0.07356 0.70573 0.82579 0.0
H1280 H 0.03868 0.74693 0.81885 0.0
H1281 H 0.11674 0.7476 0.85067 0.0
H1282 H 0.06103 0.72092 0.81342 0.0
H1283 H 0.09533 0.77407 0.80736 0.0
C1284 C 0.07528 0.77647 0.80283 0.0
C1285 C 0.05916 0.76903 0.80555 0.0
C1286 C 0.07325 0.7268 0.82154 0.0
C1287 C 0.07435 0.75228 0.81951 0.0
C1288 C 0.08046 0.71813 0.82828 0.0
C1289 C 0.09625 0.72537 0.83942 0.0
C1290 C 0.08187 0.74287 0.82544 0.0
C1291 C 0.10453 0.74151 0.84232 0.0
C1292 C 0.08291 0.76817 0.81015 0.0
C1293 C 0.0511 0.7532 0.8165 0.0
N1294 N 0.09724 0.74973 0.8353 0.0
N1295 N 0.05876 0.74537 0.82268 0.0
H1296 H 0.21711 0.29647 0.78459 0.0
H1297 H 0.29731 0.37388 0.82807 0.0
H1298 H 0.26076 0.29853 0.80598 0.0
H1299 H 0.25381 0.37236 0.84608 0.0
H1300 H 0.28366 0.34638 0.81195 0.0
H1301 H 0.2299 0.32432 0.8004 0.0
C1302 C 0.22933 0.30273 0.79269 0.0
C1303 C 0.23785 0.2951 0.7939 0.0
C1304 C 0.27706 0.35201 0.81945 0.0
C1305 C 0.25251 0.32688 0.81152 0.0
C1306 C 0.28486 0.36779 0.82849 0.0
C1307 C 0.27672 0.37552 0.83862 0.0
C1308 C 0.26093 0.34376 0.82014 0.0
C1309 C 0.26057 0.36689 0.83861 0.0
C1310 C 0.23661 0.3186 0.80175 0.0
C1311 C 0.25367 0.30382 0.80466 0.0
N1312 N 0.25318 0.35145 0.82945 0.0
N1313 N 0.26044 0.31919 0.81278 0.0
H1314 H 0.96976 0.7129 0.13124 0.0
H1315 H 0.88785 0.6358 0.1225 0.0
H1316 H 0.9277 0.71199 0.17455 0.0
H1317 H 0.93145 0.63704 0.12138 0.0
H1318 H 0.90165 0.66388 0.13209 0.0
H1319 H 0.95518 0.6853 0.11624 0.0
C1320 C 0.95743 0.70694 0.13727 0.0
C1321 C 0.94999 0.71484 0.15455 0.0
C1322 C 0.90814 0.65795 0.1298 0.0
C1323 C 0.93318 0.68304 0.13754 0.0
C1324 C 0.90029 0.64194 0.1243 0.0
C1325 C 0.90848 0.634 0.1213 0.0
C1326 C 0.92428 0.66607 0.13165 0.0
C1327 C 0.9246 0.64259 0.12381 0.0
C1328 C 0.94912 0.69112 0.1289 0.0
C1329 C 0.93395 0.7064 0.1615 0.0
N1330 N 0.93193 0.65811 0.12864 0.0
N1331 N 0.92608 0.69094 0.15309 0.0
H1332 H 0.38974 0.30402 0.17916 0.0
H1333 H 0.31046 0.22398 0.18513 0.0
H1334 H 0.38666 0.26099 0.13537 0.0
H1335 H 0.31377 0.26852 0.18693 0.0
H1336 H 0.33853 0.23676 0.17675 0.0
H1337 H 0.36206 0.29049 0.19367 0.0
C1338 C 0.38328 0.2917 0.17296 0.0
C1339 C 0.39059 0.28367 0.15567 0.0
C1340 C 0.33306 0.24369 0.17895 0.0
C1341 C 0.35875 0.26809 0.17209 0.0
C1342 C 0.31705 0.23642 0.18376 0.0
C1343 C 0.3097 0.24517 0.18652 0.0
C1344 C 0.34177 0.25981 0.17756 0.0
C1345 C 0.31886 0.26126 0.18461 0.0
C1346 C 0.36744 0.28399 0.18103 0.0
C1347 C 0.38154 0.26769 0.14841 0.0
N1348 N 0.33437 0.26802 0.18042 0.0
N1349 N 0.36608 0.26042 0.15655 0.0
H1350 H 0.75452 0.11254 0.12082 0.0
H1351 H 0.75459 0.03316 0.14104 0.0
H1352 H 0.71339 0.06802 0.12981 0.0
H1353 H 0.7946 0.0769 0.17767 0.0
H1354 H 0.73998 0.04621 0.12606 0.0
H1355 H 0.76998 0.10007 0.13269 0.0
C1356 C 0.74873 0.10017 0.12543 0.0
C1357 C 0.73261 0.09133 0.12443 0.0
C1358 C 0.75197 0.05296 0.13728 0.0
C1359 C 0.75023 0.07702 0.13732 0.0
C1360 C 0.76036 0.04553 0.14556 0.0
C1361 C 0.77586 0.05392 0.16089 0.0
C1362 C 0.7591 0.06895 0.14391 0.0
C1363 C 0.78267 0.06995 0.16615 0.0
C1364 C 0.75757 0.09308 0.13221 0.0
C1365 C 0.72576 0.07534 0.13057 0.0
N1366 N 0.77424 0.07695 0.15769 0.0
N1367 N 0.7346 0.06872 0.13647 0.0
H1368 H 0.04691 0.41399 0.48916 0.0
H1369 H 0.96729 0.41362 0.50376 0.0
H1370 H 0.04365 0.45465 0.46088 0.0
H1371 H 0.97069 0.37262 0.48832 0.0
H1372 H 0.99527 0.42918 0.49454 0.0
H1373 H 0.01902 0.39901 0.49702 0.0
C1374 C 0.04036 0.41981 0.48489 0.0
C1375 C 0.04769 0.43564 0.47427 0.0
C1376 C 0.98985 0.41677 0.49292 0.0
C1377 C 0.01562 0.41846 0.48314 0.0
C1378 C 0.97388 0.40788 0.49817 0.0
C1379 C 0.96658 0.39176 0.49685 0.0
C1380 C 0.9986 0.4095 0.48695 0.0
C1381 C 0.97575 0.38499 0.48948 0.0
C1382 C 0.02439 0.41121 0.4891 0.0
C1383 C 0.03851 0.44248 0.46895 0.0
N1384 N 0.99125 0.39388 0.48517 0.0
N1385 N 0.02295 0.43386 0.47355 0.0
H1386 H 0.60073 0.56072 0.5863 0.0
H1387 H 0.56567 0.59649 0.39443 0.0
H1388 H 0.62114 0.57598 0.43149 0.0
H1389 H 0.58217 0.61745 0.5479 0.0
H1390 H 0.57842 0.58126 0.40778 0.0
H1391 H 0.5861 0.57408 0.57288 0.0
C1392 C 0.60193 0.56668 0.54921 0.0
C1393 C 0.61212 0.5673 0.50986 0.0
C1394 C 0.57907 0.5891 0.43856 0.0
C1395 C 0.59529 0.58217 0.49414 0.0
C1396 C 0.57176 0.59768 0.43124 0.0
C1397 C 0.57291 0.6082 0.47022 0.0
C1398 C 0.5871 0.59072 0.48585 0.0
C1399 C 0.58108 0.60948 0.51696 0.0
C1400 C 0.59369 0.57433 0.54182 0.0
C1401 C 0.61342 0.57531 0.46274 0.0
N1402 N 0.58777 0.60071 0.52378 0.0
N1403 N 0.60497 0.58234 0.45589 0.0
H1404 H 0.45769 0.04196 0.52265 0.0
H1405 H 0.37519 0.96685 0.48637 0.0
H1406 H 0.41517 0.04235 0.50313 0.0
H1407 H 0.41739 0.96582 0.46733 0.0
H1408 H 0.39008 0.99443 0.50037 0.0
H1409 H 0.44356 0.01402 0.50879 0.0
C1410 C 0.44543 0.03622 0.51532 0.0
C1411 C 0.43763 0.04457 0.51412 0.0
C1412 C 0.39613 0.98821 0.49312 0.0
C1413 C 0.42144 0.01266 0.49876 0.0
C1414 C 0.38761 0.97239 0.4853 0.0
C1415 C 0.39501 0.96393 0.47549 0.0
C1416 C 0.41224 0.99575 0.49149 0.0
C1417 C 0.41118 0.97186 0.47461 0.0
C1418 C 0.43739 0.02029 0.5074 0.0
C1419 C 0.42173 0.03649 0.50441 0.0
N1420 N 0.41927 0.98735 0.48256 0.0
N1421 N 0.4142 0.02104 0.49739 0.0
H1422 H 0.6263 0.04992 0.41316 0.0
H1423 H 0.58552 0.96991 0.54659 0.0
H1424 H 0.60655 0.04588 0.5686 0.0
H1425 H 0.57 0.97356 0.39045 0.0
H1426 H 0.59826 0.99802 0.55571 0.0
H1427 H 0.61048 0.02183 0.40256 0.0
C1428 C 0.61859 0.04312 0.44482 0.0
C1429 C 0.61763 0.05015 0.49168 0.0
C1430 C 0.59195 0.9926 0.51971 0.0
C1431 C 0.60004 0.01831 0.48048 0.0
C1432 C 0.58474 0.97666 0.51447 0.0
C1433 C 0.57666 0.96953 0.46792 0.0
C1434 C 0.59152 1.00142 0.47729 0.0
C1435 C 0.57601 0.97871 0.42716 0.0
C1436 C 0.60958 0.0272 0.43868 0.0
C1437 C 0.6075 0.04087 0.53169 0.0
N1438 N 0.5836 0.99427 0.43236 0.0
N1439 N 0.59928 0.02537 0.5256 0.0
H1440 H 0.9691 0.55254 0.52135 0.0
H1441 H 0.04613 0.63455 0.51553 0.0
H1442 H 0.9702 0.59605 0.52596 0.0
H1443 H 0.04513 0.59276 0.46784 0.0
H1444 H 0.01855 0.61986 0.53132 0.0
H1445 H 0.99719 0.56645 0.51178 0.0
C1446 C 0.97521 0.56498 0.52034 0.0
C1447 C 0.96723 0.57312 0.52424 0.0
C1448 C 0.02436 0.61388 0.51755 0.0
C1449 C 0.99931 0.58904 0.51396 0.0
C1450 C 0.04016 0.62226 0.50873 0.0
C1451 C 0.04801 0.61493 0.48994 0.0
C1452 C 0.01626 0.59799 0.50785 0.0
C1453 C 0.03956 0.59893 0.48203 0.0
C1454 C 0.99122 0.5729 0.51485 0.0
C1455 C 0.97579 0.58925 0.52275 0.0
N1456 N 0.02413 0.591 0.49089 0.0
N1457 N 0.99131 0.59664 0.51791 0.0
H1458 H 0.37221 0.41031 0.46959 0.0
H1459 H 0.45323 0.41527 0.51696 0.0
H1460 H 0.4152 0.45296 0.45475 0.0
H1461 H 0.4104 0.37299 0.49251 0.0
H1462 H 0.43987 0.42969 0.49992 0.0
H1463 H 0.38636 0.39691 0.485 0.0
C1464 C 0.38465 0.41691 0.4697 0.0
C1465 C 0.3925 0.43283 0.46075 0.0
C1466 C 0.43347 0.41726 0.4981 0.0
C1467 C 0.40887 0.41741 0.47844 0.0
C1468 C 0.44107 0.40901 0.50784 0.0
C1469 C 0.43295 0.39286 0.50625 0.0
C1470 C 0.41762 0.40929 0.48725 0.0
C1471 C 0.41719 0.3854 0.49418 0.0
C1472 C 0.39274 0.4092 0.47832 0.0
C1473 C 0.40866 0.44068 0.46133 0.0
N1474 N 0.41008 0.39366 0.48546 0.0
N1475 N 0.41633 0.43289 0.47015 0.0
H1476 H 0.26855 0.10078 0.25197 0.0
H1477 H 0.23956 0.15663 0.36158 0.0
H1478 H 0.22948 0.0863 0.3557 0.0
H1479 H 0.27607 0.17044 0.24684 0.0
H1480 H 0.2386 0.132 0.37132 0.0
H1481 H 0.27427 0.12736 0.26116 0.0
C1482 C 0.2613 0.1032 0.2773 0.0
C1483 C 0.24839 0.09124 0.30256 0.0
C1484 C 0.24694 0.14047 0.3444 0.0
C1485 C 0.25484 0.12166 0.31297 0.0
C1486 C 0.24751 0.15457 0.33888 0.0
C1487 C 0.25777 0.16557 0.30279 0.0
C1488 C 0.25665 0.13728 0.31352 0.0
C1489 C 0.26788 0.16227 0.2748 0.0
C1490 C 0.26455 0.11838 0.28239 0.0
C1491 C 0.23946 0.0951 0.33502 0.0
N1492 N 0.26695 0.14836 0.28033 0.0
N1493 N 0.24276 0.10994 0.33887 0.0
H1494 H 0.86119 0.08601 0.37863 0.0
H1495 H 0.90141 0.17219 0.27038 0.0
H1496 H 0.8406 0.1018 0.26244 0.0
H1497 H 0.92274 0.1554 0.37973 0.0
H1498 H 0.87733 0.14777 0.27858 0.0
H1499 H 0.88192 0.11245 0.39091 0.0
C1500 C 0.8609 0.09505 0.35617 0.0
C1501 C 0.84923 0.09162 0.31888 0.0
C1502 C 0.88722 0.1495 0.30132 0.0
C1503 C 0.87306 0.12198 0.33247 0.0
C1504 C 0.90098 0.16348 0.2968 0.0
C1505 C 0.91421 0.16579 0.32382 0.0
C1506 C 0.88668 0.13774 0.33303 0.0
C1507 C 0.91291 0.15409 0.35765 0.0
C1508 C 0.87278 0.11017 0.36316 0.0
C1509 C 0.84943 0.10387 0.29128 0.0
N1510 N 0.89946 0.14053 0.3608 0.0
N1511 N 0.86126 0.11847 0.29815 0.0
H1512 H 0.92538 0.77447 0.37166 0.0
H1513 H 0.83983 0.73816 0.25932 0.0
H1514 H 0.90602 0.73834 0.25414 0.0
H1515 H 0.86063 0.77659 0.36771 0.0
H1516 H 0.86227 0.73494 0.26907 0.0
H1517 H 0.9002 0.77221 0.38271 0.0
C1518 C 0.91579 0.7659 0.34867 0.0
C1519 C 0.9179 0.75674 0.31132 0.0
C1520 C 0.86184 0.74396 0.29124 0.0
C1521 C 0.88899 0.75418 0.3235 0.0
C1522 C 0.84899 0.74578 0.28583 0.0
C1523 C 0.84843 0.75781 0.31214 0.0
C1524 C 0.87423 0.75425 0.32316 0.0
C1525 C 0.86063 0.76726 0.34615 0.0
C1526 C 0.9014 0.76465 0.35494 0.0
C1527 C 0.90499 0.74576 0.28303 0.0
N1528 N 0.87309 0.76539 0.3502 0.0
N1529 N 0.89114 0.74492 0.28922 0.0
H1530 H 0.09748 0.26915 0.74046 0.0
H1531 H 0.15939 0.24574 0.65044 0.0
H1532 H 0.08737 0.23129 0.63524 0.0
H1533 H 0.16602 0.27615 0.78165 0.0
H1534 H 0.13496 0.24444 0.63056 0.0
H1535 H 0.12447 0.27588 0.74141 0.0
C1536 C 0.10096 0.2624 0.71681 0.0
C1537 C 0.09008 0.24949 0.68829 0.0
C1538 C 0.14185 0.25153 0.66334 0.0
C1539 C 0.12097 0.25712 0.68948 0.0
C1540 C 0.15583 0.25232 0.67465 0.0
C1541 C 0.1647 0.26091 0.71829 0.0
C1542 C 0.13669 0.25942 0.69569 0.0
C1543 C 0.1595 0.26924 0.74802 0.0
C1544 C 0.11637 0.26622 0.7176 0.0
C1545 C 0.09531 0.24123 0.65827 0.0
N1546 N 0.14578 0.26819 0.73645 0.0
N1547 N 0.11035 0.2451 0.66005 0.0
H1548 H 0.77336 0.85299 0.60996 0.0
H1549 H 0.73689 0.90202 0.72321 0.0
H1550 H 0.73587 0.83524 0.72215 0.0
H1551 H 0.7755 0.91989 0.6157 0.0
H1552 H 0.7338 0.87641 0.71324 0.0
H1553 H 0.77169 0.87629 0.60139 0.0
C1554 C 0.76463 0.85389 0.63231 0.0
C1555 C 0.75487 0.84219 0.66735 0.0
C1556 C 0.74284 0.88591 0.69137 0.0
C1557 C 0.75298 0.86899 0.65807 0.0
C1558 C 0.7446 0.90054 0.69693 0.0
C1559 C 0.7566 0.91319 0.67075 0.0
C1560 C 0.75317 0.88389 0.65945 0.0
C1561 C 0.76618 0.91053 0.63708 0.0
C1562 C 0.7637 0.86724 0.62746 0.0
C1563 C 0.74371 0.844 0.69495 0.0
N1564 N 0.76435 0.89623 0.63283 0.0
N1565 N 0.7432 0.85722 0.6902 0.0
H1566 H 0.15444 0.92133 0.59468 0.0
H1567 H 0.10537 0.83625 0.71079 0.0
H1568 H 0.1716 0.90236 0.71211 0.0
H1569 H 0.08764 0.85651 0.60066 0.0
H1570 H 0.131 0.85871 0.70052 0.0
H1571 H 0.1314 0.89615 0.58519 0.0
C1572 C 0.15347 0.91183 0.618 0.0
C1573 C 0.1649 0.91405 0.65482 0.0
C1574 C 0.12154 0.85816 0.6781 0.0
C1575 C 0.13842 0.88515 0.64443 0.0
C1576 C 0.10689 0.8453 0.68382 0.0
C1577 C 0.09426 0.84457 0.6571 0.0
C1578 C 0.12359 0.87039 0.64548 0.0
C1579 C 0.09697 0.85663 0.62252 0.0
C1580 C 0.14028 0.89744 0.61261 0.0
C1581 C 0.16304 0.90124 0.68358 0.0
N1582 N 0.11129 0.86909 0.61816 0.0
N1583 N 0.14997 0.8874 0.67825 0.0
H1584 H 0.89995 0.41363 0.68411 0.0
H1585 H 0.93938 0.50025 0.57927 0.0
H1586 H 0.93874 0.43352 0.5773 0.0
H1587 H 0.90005 0.47962 0.68364 0.0
H1588 H 0.94144 0.47706 0.58674 0.0
H1589 H 0.90198 0.43876 0.69326 0.0
C1590 C 0.90902 0.42332 0.66301 0.0
C1591 C 0.91908 0.42139 0.62941 0.0
C1592 C 0.93245 0.47767 0.60843 0.0
C1593 C 0.92139 0.45027 0.63936 0.0
C1594 C 0.93129 0.49093 0.60427 0.0
C1595 C 0.91942 0.49184 0.63041 0.0
C1596 C 0.92166 0.46521 0.63889 0.0
C1597 C 0.9093 0.47941 0.66237 0.0
C1598 C 0.91016 0.43768 0.6682 0.0
C1599 C 0.93066 0.43442 0.60339 0.0
N1600 N 0.91058 0.46659 0.66532 0.0
N1601 N 0.9314 0.44826 0.60847 0.0
H1602 H 0.52042 0.41518 0.70536 0.0
H1603 H 0.57037 0.50203 0.60489 0.0
H1604 H 0.50337 0.43642 0.59668 0.0
H1605 H 0.58836 0.47874 0.69935 0.0
H1606 H 0.54459 0.47967 0.61385 0.0
H1607 H 0.544 0.43984 0.71593 0.0
C1608 C 0.52154 0.42507 0.68419 0.0
C1609 C 0.50995 0.42365 0.64952 0.0
C1610 C 0.55415 0.47953 0.63312 0.0
C1611 C 0.53706 0.45198 0.6612 0.0
C1612 C 0.56888 0.49232 0.62819 0.0
C1613 C 0.5816 0.4922 0.65087 0.0
C1614 C 0.55211 0.46653 0.66101 0.0
C1615 C 0.57894 0.4793 0.68072 0.0
C1616 C 0.53505 0.43916 0.69018 0.0
C1617 C 0.51204 0.43693 0.62351 0.0
N1618 N 0.56454 0.46695 0.6845 0.0
N1619 N 0.5254 0.4505 0.62943 0.0
H1620 H 0.57734 0.07336 0.59309 0.0
H1621 H 0.52713 0.10936 0.69954 0.0
H1622 H 0.59534 0.11429 0.6896 0.0
H1623 H 0.51068 0.07244 0.58516 0.0
H1624 H 0.55069 0.10818 0.70946 0.0
H1625 H 0.55155 0.0698 0.60322 0.0
C1626 C 0.57585 0.08147 0.61711 0.0
C1627 C 0.58858 0.09427 0.63995 0.0
C1628 C 0.54186 0.10023 0.68259 0.0
C1629 C 0.55907 0.09029 0.65141 0.0
C1630 C 0.52837 0.10087 0.67695 0.0
C1631 C 0.51697 0.09112 0.64088 0.0
C1632 C 0.54402 0.08978 0.65192 0.0
C1633 C 0.51921 0.08027 0.61306 0.0
C1634 C 0.56112 0.07946 0.6227 0.0
C1635 C 0.58591 0.10435 0.67079 0.0
N1636 N 0.53254 0.08 0.61875 0.0
N1637 N 0.57149 0.10223 0.67518 0.0
H1638 H 0.77084 0.60885 0.06124 0.0
H1639 H 0.81655 0.56808 0.95357 0.0
H1640 H 0.75092 0.56869 0.9605 0.0
H1641 H 0.83576 0.606 0.06425 0.0
H1642 H 0.79374 0.57065 0.94534 0.0
H1643 H 0.79587 0.61048 0.05229 0.0
C1644 C 0.77175 0.6005 0.03661 0.0
C1645 C 0.75869 0.5885 0.01206 0.0
C1646 C 0.80299 0.5785 0.97109 0.0
C1647 C 0.78732 0.59025 0.00196 0.0
C1648 C 0.81606 0.57706 0.97576 0.0
C1649 C 0.82805 0.58672 0.01014 0.0
C1650 C 0.80183 0.58967 0.00111 0.0
C1651 C 0.82676 0.59821 0.03757 0.0
C1652 C 0.78605 0.60141 0.03168 0.0
C1653 C 0.76062 0.57805 0.98057 0.0
N1654 N 0.81383 0.59927 0.03284 0.0
N1655 N 0.7746 0.57908 0.97682 0.0
H1656 H 0.39864 0.16637 0.05815 0.0
H1657 H 0.44596 0.25207 0.94624 0.0
H1658 H 0.43696 0.18217 0.95008 0.0
H1659 H 0.40825 0.23686 0.0567 0.0
H1660 H 0.44028 0.22556 0.93696 0.0
H1661 H 0.39946 0.19097 0.04799 0.0
C1662 C 0.40709 0.17492 0.0317 0.0
C1663 C 0.41788 0.17226 0.00548 0.0
C1664 C 0.43313 0.22798 0.96279 0.0
C1665 C 0.41895 0.20051 -0.00603 0.0
C1666 C 0.43635 0.24314 0.96805 0.0
C1667 C 0.4277 0.24675 0.00285 0.0
C1668 C 0.42122 0.21631 -0.00722 0.0
C1669 C 0.41532 0.23464 0.02974 0.0
C1670 C 0.40757 0.18899 0.02602 0.0
C1671 C 0.42851 0.18375 0.97154 0.0
N1672 N 0.41256 0.22 0.02463 0.0
N1673 N 0.42888 0.19741 0.96723 0.0
H1674 H 0.77401 0.16262 0.04321 0.0
H1675 H 0.81378 0.24839 0.93084 0.0
H1676 H 0.75207 0.17909 0.93526 0.0
H1677 H 0.83563 0.23278 0.04256 0.0
H1678 H 0.79265 0.22202 0.92175 0.0
H1679 H 0.79806 0.18702 0.03327 0.0
C1680 C 0.77429 0.17126 0.0168 0.0
C1681 C 0.76092 0.16886 -0.00945 0.0
C1682 C 0.80214 0.22431 0.94783 0.0
C1683 C 0.78841 0.19687 0.97931 0.0
C1684 C 0.81425 0.23939 0.95299 0.0
C1685 C 0.82643 0.24287 0.98804 0.0
C1686 C 0.80212 0.21257 0.97817 0.0
C1687 C 0.82643 0.23068 0.01535 0.0
C1688 C 0.78803 0.18522 0.01126 0.0
C1689 C 0.76202 0.18047 0.95673 0.0
N1690 N 0.81437 0.21611 0.01033 0.0
N1691 N 0.77546 0.19401 0.95253 0.0
H1692 H 0.60604 0.7674 0.9232 0.0
H1693 H 0.57093 0.81712 0.04188 0.0
H1694 H 0.56794 0.7498 0.03286 0.0
H1695 H 0.60617 0.83369 0.92125 0.0
H1696 H 0.57272 0.79386 0.04999 0.0
H1697 H 0.60923 0.79304 0.93311 0.0
C1698 C 0.59848 0.76895 0.94997 0.0
C1699 C 0.58657 0.75636 0.97672 0.0
C1700 C 0.58017 0.80264 0.02211 0.0
C1701 C 0.59011 0.7857 0.98796 0.0
C1702 C 0.57918 0.81597 0.0175 0.0
C1703 C 0.58827 0.82732 0.98032 0.0
C1704 C 0.5903 0.80059 0.98919 0.0
C1705 C 0.59884 0.8252 0.95014 0.0
C1706 C 0.60028 0.7836 0.95547 0.0
C1707 C 0.57718 0.75911 0.01101 0.0
N1708 N 0.59944 0.81203 0.95484 0.0
N1709 N 0.57906 0.77344 0.01523 0.0
H1710 H 0.16393 0.76844 0.93194 0.0
H1711 H 0.24982 0.81525 0.0442 0.0
H1712 H 0.18379 0.74948 0.0387 0.0
H1713 H 0.23175 0.83298 0.9255 0.0
H1714 H 0.22431 0.7927 0.0539 0.0
H1715 H 0.18714 0.7936 0.94064 0.0
C1716 C 0.17306 0.7696 0.95787 0.0
C1717 C 0.17198 0.75676 0.98409 0.0
C1718 C 0.22588 0.80159 0.02609 0.0
C1719 C 0.19864 0.78554 -0.00608 0.0
C1720 C 0.24046 0.8145 0.02057 0.0
C1721 C 0.24301 0.82596 0.98346 0.0
C1722 C 0.21371 0.80005 -0.00581 0.0
C1723 C 0.23037 0.82438 0.95429 0.0
C1724 C 0.18634 0.78397 0.96265 0.0
C1725 C 0.18417 0.759 0.01727 0.0
N1726 N 0.21631 0.81159 0.95988 0.0
N1727 N 0.19703 0.77306 0.02081 0.0
H1728 H 0.17927 0.43331 0.02899 0.0
H1729 H 0.22983 0.399 0.91163 0.0
H1730 H 0.16177 0.3954 0.91844 0.0
H1731 H 0.24712 0.43733 0.02035 0.0
H1732 H 0.204 0.39532 0.92224 0.0
H1733 H 0.20319 0.43268 0.03517 0.0
C1734 C 0.18037 0.42472 0.00646 0.0
C1735 C 0.16853 0.4145 0.97266 0.0
C1736 C 0.21342 0.40444 0.94419 0.0
C1737 C 0.19603 0.41382 0.97919 0.0
C1738 C 0.22818 0.40653 0.93822 0.0
C1739 C 0.24072 0.41861 0.96468 0.0
C1740 C 0.21115 0.4145 0.97678 0.0
C1741 C 0.23785 0.42796 -0.00123 0.0
C1742 C 0.19407 0.42439 0.00995 0.0
C1743 C 0.17061 0.40357 0.94475 0.0
N1744 N 0.22342 0.42579 0.00344 0.0
N1745 N 0.18416 0.40363 0.94818 0.0
H1746 H 0.43911 0.93799 0.40151 0.0
H1747 H 0.48744 0.90038 0.29137 0.0
H1748 H 0.42056 0.89861 0.29717 0.0
H1749 H 0.50596 0.93928 0.39787 0.0
H1750 H 0.46392 0.90175 0.28365 0.0
H1751 H 0.46458 0.94078 0.3914 0.0
C1752 C 0.44041 0.93003 0.37598 0.0
C1753 C 0.42762 0.91793 0.35066 0.0
C1754 C 0.47319 0.91009 0.3083 0.0
C1755 C 0.45677 0.92101 0.33917 0.0
C1756 C 0.48665 0.90933 0.31268 0.0
C1757 C 0.49865 0.91961 0.34584 0.0
C1758 C 0.47164 0.92116 0.3375 0.0
C1759 C 0.49698 0.93103 0.37216 0.0
C1760 C 0.45497 0.93162 0.37029 0.0
C1761 C 0.43004 0.90803 0.31785 0.0
N1762 N 0.48367 0.93139 0.36787 0.0
N1763 N 0.44429 0.9097 0.31348 0.0
H1764 H 0.06903 0.57109 0.38382 0.0
H1765 H 0.10665 0.52297 0.27307 0.0
H1766 H 0.10747 0.58915 0.27554 0.0
H1767 H 0.06996 0.50554 0.38841 0.0
H1768 H 0.1039 0.54558 0.26115 0.0
H1769 H 0.06607 0.54555 0.37362 0.0
C1770 C 0.0767 0.56966 0.35724 0.0
C1771 C 0.08868 0.58235 0.33113 0.0
C1772 C 0.09631 0.53673 0.28859 0.0
C1773 C 0.08541 0.55314 0.31961 0.0
C1774 C 0.09785 0.52377 0.29535 0.0
C1775 C 0.08869 0.51243 0.33244 0.0
C1776 C 0.08557 0.53842 0.31932 0.0
C1777 C 0.07739 0.51406 0.35978 0.0
C1778 C 0.07503 0.55506 0.35155 0.0
C1779 C 0.0982 0.57975 0.29697 0.0
N1780 N 0.07629 0.52691 0.3532 0.0
N1781 N 0.09647 0.56549 0.29271 0.0
H1782 H 0.50617 0.56847 0.37628 0.0
H1783 H 0.41877 0.52324 0.27754 0.0
H1784 H 0.48513 0.58872 0.28131 0.0
H1785 H 0.43804 0.5042 0.38645 0.0
H1786 H 0.4442 0.54582 0.26672 0.0
H1787 H 0.48265 0.54352 0.36835 0.0
C1788 C 0.49671 0.56765 0.35307 0.0
C1789 C 0.49758 0.58078 0.32995 0.0
C1790 C 0.44291 0.53665 0.29262 0.0
C1791 C 0.47056 0.55224 0.32105 0.0
C1792 C 0.42837 0.52372 0.29877 0.0
C1793 C 0.42619 0.51186 0.33348 0.0
C1794 C 0.45542 0.5378 0.32144 0.0
C1795 C 0.43913 0.5131 0.35959 0.0
C1796 C 0.48325 0.55339 0.34875 0.0
C1797 C 0.48494 0.57897 0.30026 0.0
N1798 N 0.45316 0.52591 0.35344 0.0
N1799 N 0.47193 0.56501 0.29708 0.0
loop_
_geom_bond_atom_site_label_1
_geom_bond_atom_site_label_2
_geom_bond_distance
_geom_bond_site_symmetry_2
_ccdc_geom_bond_type
Mg0 O1 2.028 . S
Mg0 O7 1.986 . S
Mg0 O9 2.114 . S
Mg0 O10 2.251 . S
Mg0 O13 2.010 . S
O1 Mg0 2.028 . S
O1 C4 1.250 . S
O2 Mg3 2.028 . S
O2 C4 1.248 . S
Mg3 O2 2.028 . S
Mg3 O8 2.032 . S
Mg3 O10 2.079 . S
C4 O1 1.250 . S
C4 O2 1.248 . S
C5 O6 1.264 . S
C5 O13 1.249 . S
O6 C5 1.264 . S
O7 Mg0 1.986 . S
O7 C11 1.246 . S
O8 Mg3 2.032 . S
O8 C11 1.259 . S
O9 Mg0 2.114 . S
O9 C12 1.252 . S
O10 Mg0 2.251 . S
O10 Mg3 2.079 . S
O10 C12 1.273 . S
C11 O7 1.246 . S
C11 O8 1.259 . S
C12 O9 1.252 . S
C12 O10 1.273 . S
O13 Mg0 2.010 . S
O13 C5 1.249 . S
Mg14 O15 2.028 . S
Mg14 O21 1.986 . S
Mg14 O23 2.114 . S
Mg14 O24 2.251 . S
Mg14 O27 2.010 . S
O15 Mg14 2.028 . S
O15 C18 1.250 . S
O16 Mg17 2.028 . S
O16 C18 1.248 . S
Mg17 O16 2.028 . S
Mg17 O22 2.032 . S
Mg17 O24 2.079 . S
C18 O15 1.250 . S
C18 O16 1.248 . S
C19 O20 1.264 . S
C19 O27 1.249 . S
O20 C19 1.264 . S
O21 Mg14 1.986 . S
O21 C25 1.246 . S
O22 Mg17 2.032 . S
O22 C25 1.259 . S
O23 Mg14 2.114 . S
O23 C26 1.252 . S
O24 Mg14 2.251 . S
O24 Mg17 2.079 . S
O24 C26 1.273 . S
C25 O21 1.246 . S
C25 O22 1.259 . S
C26 O23 1.252 . S
C26 O24 1.273 . S
O27 Mg14 2.010 . S
O27 C19 1.249 . S
Mg28 O29 2.028 . S
Mg28 O35 1.986 . S
Mg28 O37 2.114 . S
Mg28 O38 2.251 . S
Mg28 O41 2.010 . S
O29 Mg28 2.028 . S
O29 C32 1.250 . S
O30 Mg31 2.028 . S
O30 C32 1.248 . S
Mg31 O30 2.028 . S
Mg31 O36 2.032 . S
Mg31 O38 2.079 . S
C32 O29 1.250 . S
C32 O30 1.248 . S
C33 O34 1.264 . S
C33 O41 1.249 . S
O34 C33 1.264 . S
O35 Mg28 1.986 . S
O35 C39 1.246 . S
O36 Mg31 2.032 . S
O36 C39 1.259 . S
O37 Mg28 2.114 . S
O37 C40 1.252 . S
O38 Mg28 2.251 . S
O38 Mg31 2.079 . S
O38 C40 1.273 . S
C39 O35 1.246 . S
C39 O36 1.259 . S
C40 O37 1.252 . S
C40 O38 1.273 . S
O41 Mg28 2.010 . S
O41 C33 1.249 . S
Mg42 O43 2.028 . S
Mg42 O49 1.986 . S
Mg42 O51 2.114 . S
Mg42 O52 2.251 . S
Mg42 O55 2.010 . S
O43 Mg42 2.028 . S
O43 C46 1.250 . S
O44 Mg45 2.028 . S
O44 C46 1.248 . S
Mg45 O44 2.028 . S
Mg45 O50 2.032 . S
Mg45 O52 2.079 . S
C46 O43 1.250 . S
C46 O44 1.248 . S
C47 O48 1.264 . S
C47 O55 1.249 . S
O48 C47 1.264 . S
O49 Mg42 1.986 . S
O49 C53 1.246 . S
O50 Mg45 2.032 . S
O50 C53 1.259 . S
O51 Mg42 2.114 . S
O51 C54 1.252 . S
O52 Mg42 2.251 . S
O52 Mg45 2.079 . S
O52 C54 1.273 . S
C53 O49 1.246 . S
C53 O50 1.259 . S
C54 O51 1.252 . S
C54 O52 1.273 . S
O55 Mg42 2.010 . S
O55 C47 1.249 . S
Mg56 O57 2.028 . S
Mg56 O63 1.986 . S
Mg56 O65 2.114 . S
Mg56 O66 2.251 . S
Mg56 O69 2.010 . S
O57 Mg56 2.028 . S
O57 C60 1.250 . S
O58 Mg59 2.028 . S
O58 C60 1.248 . S
Mg59 O58 2.028 . S
Mg59 O64 2.032 . S
Mg59 O66 2.079 . S
C60 O57 1.250 . S
C60 O58 1.248 . S
C61 O62 1.264 . S
C61 O69 1.249 . S
O62 C61 1.264 . S
O63 Mg56 1.986 . S
O63 C67 1.246 . S
O64 Mg59 2.032 . S
O64 C67 1.259 . S
O65 Mg56 2.114 . S
O65 C68 1.252 . S
O66 Mg56 2.251 . S
O66 Mg59 2.079 . S
O66 C68 1.273 . S
C67 O63 1.246 . S
C67 O64 1.259 . S
C68 O65 1.252 . S
C68 O66 1.273 . S
O69 Mg56 2.010 . S
O69 C61 1.249 . S
Mg70 O71 2.028 . S
Mg70 O77 1.986 . S
Mg70 O79 2.114 . S
Mg70 O80 2.251 . S
Mg70 O83 2.010 . S
O71 Mg70 2.028 . S
O71 C74 1.250 . S
O72 Mg73 2.028 . S
O72 C74 1.248 . S
Mg73 O72 2.028 . S
Mg73 O78 2.032 . S
Mg73 O80 2.079 . S
C74 O71 1.250 . S
C74 O72 1.248 . S
C75 O76 1.264 . S
C75 O83 1.249 . S
O76 C75 1.264 . S
O77 Mg70 1.986 . S
O77 C81 1.246 . S
O78 Mg73 2.032 . S
O78 C81 1.259 . S
O79 Mg70 2.114 . S
O79 C82 1.252 . S
O80 Mg70 2.251 . S
O80 Mg73 2.079 . S
O80 C82 1.273 . S
C81 O77 1.246 . S
C81 O78 1.259 . S
C82 O79 1.252 . S
C82 O80 1.273 . S
O83 Mg70 2.010 . S
O83 C75 1.249 . S
Mg84 O85 2.028 . S
Mg84 O91 1.986 . S
Mg84 O93 2.114 . S
Mg84 O94 2.251 . S
Mg84 O97 2.010 . S
O85 Mg84 2.028 . S
O85 C88 1.250 . S
O86 Mg87 2.028 . S
O86 C88 1.248 . S
Mg87 O86 2.028 . S
Mg87 O92 2.032 . S
Mg87 O94 2.079 . S
C88 O85 1.250 . S
C88 O86 1.248 . S
C89 O90 1.264 . S
C89 O97 1.249 . S
O90 C89 1.264 . S
O91 Mg84 1.986 . S
O91 C95 1.246 . S
O92 Mg87 2.032 . S
O92 C95 1.259 . S
O93 Mg84 2.114 . S
O93 C96 1.252 . S
O94 Mg84 2.251 . S
O94 Mg87 2.079 . S
O94 C96 1.273 . S
C95 O91 1.246 . S
C95 O92 1.259 . S
C96 O93 1.252 . S
C96 O94 1.273 . S
O97 Mg84 2.010 . S
O97 C89 1.249 . S
Mg98 O99 2.028 . S
Mg98 O105 1.986 . S
Mg98 O107 2.114 . S
Mg98 O108 2.251 . S
Mg98 O111 2.010 . S
O99 Mg98 2.028 . S
O99 C102 1.250 . S
O100 Mg101 2.028 . S
O100 C102 1.248 . S
Mg101 O100 2.028 . S
Mg101 O106 2.032 . S
Mg101 O108 2.079 . S
C102 O99 1.250 . S
C102 O100 1.248 . S
C103 O104 1.264 . S
C103 O111 1.249 . S
O104 C103 1.264 . S
O105 Mg98 1.986 . S
O105 C109 1.246 . S
O106 Mg101 2.032 . S
O106 C109 1.259 . S
O107 Mg98 2.114 . S
O107 C110 1.252 . S
O108 Mg98 2.251 . S
O108 Mg101 2.079 . S
O108 C110 1.273 . S
C109 O105 1.246 . S
C109 O106 1.259 . S
C110 O107 1.252 . S
C110 O108 1.273 . S
O111 Mg98 2.010 . S
O111 C103 1.249 . S
Mg112 O113 2.028 . S
Mg112 O119 1.986 . S
Mg112 O121 2.114 . S
Mg112 O122 2.251 . S
Mg112 O125 2.010 . S
O113 Mg112 2.028 . S
O113 C116 1.250 . S
O114 Mg115 2.028 . S
O114 C116 1.248 . S
Mg115 O114 2.028 . S
Mg115 O120 2.032 . S
Mg115 O122 2.079 . S
C116 O113 1.250 . S
C116 O114 1.248 . S
C117 O118 1.264 . S
C117 O125 1.249 . S
O118 C117 1.264 . S
O119 Mg112 1.986 . S
O119 C123 1.246 . S
O120 Mg115 2.032 . S
O120 C123 1.259 . S
O121 Mg112 2.114 . S
O121 C124 1.252 . S
O122 Mg112 2.251 . S
O122 Mg115 2.079 . S
O122 C124 1.273 . S
C123 O119 1.246 . S
C123 O120 1.259 . S
C124 O121 1.252 . S
C124 O122 1.273 . S
O125 Mg112 2.010 . S
O125 C117 1.249 . S
Mg126 O127 2.028 . S
Mg126 O133 1.986 . S
Mg126 O135 2.114 . S
Mg126 O136 2.251 . S
Mg126 O139 2.010 . S
O127 Mg126 2.028 . S
O127 C130 1.250 . S
O128 Mg129 2.028 . S
O128 C130 1.248 . S
Mg129 O128 2.028 . S
Mg129 O134 2.032 . S
Mg129 O136 2.079 . S
C130 O127 1.250 . S
C130 O128 1.248 . S
C131 O132 1.264 . S
C131 O139 1.249 . S
O132 C131 1.264 . S
O133 Mg126 1.986 . S
O133 C137 1.246 . S
O134 Mg129 2.032 . S
O134 C137 1.259 . S
O135 Mg126 2.114 . S
O135 C138 1.252 . S
O136 Mg126 2.251 . S
O136 Mg129 2.079 . S
O136 C138 1.273 . S
C137 O133 1.246 . S
C137 O134 1.259 . S
C138 O135 1.252 . S
C138 O136 1.273 . S
O139 Mg126 2.010 . S
O139 C131 1.249 . S
Mg140 O141 2.028 . S
Mg140 O147 1.986 . S
Mg140 O149 2.114 . S
Mg140 O150 2.251 . S
Mg140 O153 2.010 . S
O141 Mg140 2.028 . S
O141 C144 1.250 . S
O142 Mg143 2.028 . S
O142 C144 1.248 . S
Mg143 O142 2.028 . S
Mg143 O148 2.032 . S
Mg143 O150 2.079 . S
C144 O141 1.250 . S
C144 O142 1.248 . S
C145 O146 1.264 . S
C145 O153 1.249 . S
O146 C145 1.264 . S
O147 Mg140 1.986 . S
O147 C151 1.246 . S
O148 Mg143 2.032 . S
O148 C151 1.259 . S
O149 Mg140 2.114 . S
O149 C152 1.252 . S
O150 Mg140 2.251 . S
O150 Mg143 2.079 . S
O150 C152 1.273 . S
C151 O147 1.246 . S
C151 O148 1.259 . S
C152 O149 1.252 . S
C152 O150 1.273 . S
O153 Mg140 2.010 . S
O153 C145 1.249 . S
Mg154 O155 2.028 . S
Mg154 O161 1.986 . S
Mg154 O163 2.114 . S
Mg154 O164 2.251 . S
Mg154 O167 2.010 . S
O155 Mg154 2.028 . S
O155 C158 1.250 . S
O156 Mg157 2.028 . S
O156 C158 1.248 . S
Mg157 O156 2.028 . S
Mg157 O162 2.032 . S
Mg157 O164 2.079 . S
C158 O155 1.250 . S
C158 O156 1.248 . S
C159 O160 1.264 . S
C159 O167 1.249 . S
O160 C159 1.264 . S
O161 Mg154 1.986 . S
O161 C165 1.246 . S
O162 Mg157 2.032 . S
O162 C165 1.259 . S
O163 Mg154 2.114 . S
O163 C166 1.252 . S
O164 Mg154 2.251 . S
O164 Mg157 2.079 . S
O164 C166 1.273 . S
C165 O161 1.246 . S
C165 O162 1.259 . S
C166 O163 1.252 . S
C166 O164 1.273 . S
O167 Mg154 2.010 . S
O167 C159 1.249 . S
Mg168 O169 2.028 . S
Mg168 O175 1.986 . S
Mg168 O177 2.114 . S
Mg168 O178 2.251 . S
Mg168 O181 2.010 . S
O169 Mg168 2.028 . S
O169 C172 1.250 . S
O170 Mg171 2.028 . S
O170 C172 1.248 . S
Mg171 O170 2.028 . S
Mg171 O176 2.032 . S
Mg171 O178 2.079 . S
C172 O169 1.250 . S
C172 O170 1.248 . S
C173 O174 1.264 . S
C173 O181 1.249 . S
O174 C173 1.264 . S
O175 Mg168 1.986 . S
O175 C179 1.246 . S
O176 Mg171 2.032 . S
O176 C179 1.259 . S
O177 Mg168 2.114 . S
O177 C180 1.252 . S
O178 Mg168 2.251 . S
O178 Mg171 2.079 . S
O178 C180 1.273 . S
C179 O175 1.246 . S
C179 O176 1.259 . S
C180 O177 1.252 . S
C180 O178 1.273 . S
O181 Mg168 2.010 . S
O181 C173 1.249 . S
Mg182 O183 2.028 . S
Mg182 O189 1.986 . S
Mg182 O191 2.114 . S
Mg182 O192 2.251 . S
Mg182 O195 2.010 . S
O183 Mg182 2.028 . S
O183 C186 1.250 . S
O184 Mg185 2.028 . S
O184 C186 1.248 . S
Mg185 O184 2.028 . S
Mg185 O190 2.032 . S
Mg185 O192 2.079 . S
C186 O183 1.250 . S
C186 O184 1.248 . S
C187 O188 1.264 . S
C187 O195 1.249 . S
O188 C187 1.264 . S
O189 Mg182 1.986 . S
O189 C193 1.246 . S
O190 Mg185 2.032 . S
O190 C193 1.259 . S
O191 Mg182 2.114 . S
O191 C194 1.252 . S
O192 Mg182 2.251 . S
O192 Mg185 2.079 . S
O192 C194 1.273 . S
C193 O189 1.246 . S
C193 O190 1.259 . S
C194 O191 1.252 . S
C194 O192 1.273 . S
O195 Mg182 2.010 . S
O195 C187 1.249 . S
Mg196 O197 2.028 . S
Mg196 O203 1.986 . S
Mg196 O205 2.114 . S
Mg196 O206 2.251 . S
Mg196 O209 2.010 . S
O197 Mg196 2.028 . S
O197 C200 1.250 . S
O198 Mg199 2.028 . S
O198 C200 1.248 . S
Mg199 O198 2.028 . S
Mg199 O204 2.032 . S
Mg199 O206 2.079 . S
C200 O197 1.250 . S
C200 O198 1.248 . S
C201 O202 1.264 . S
C201 O209 1.249 . S
O202 C201 1.264 . S
O203 Mg196 1.986 . S
O203 C207 1.246 . S
O204 Mg199 2.032 . S
O204 C207 1.259 . S
O205 Mg196 2.114 . S
O205 C208 1.252 . S
O206 Mg196 2.251 . S
O206 Mg199 2.079 . S
O206 C208 1.273 . S
C207 O203 1.246 . S
C207 O204 1.259 . S
C208 O205 1.252 . S
C208 O206 1.273 . S
O209 Mg196 2.010 . S
O209 C201 1.249 . S
Mg210 O211 2.028 . S
Mg210 O217 1.986 . S
Mg210 O219 2.114 . S
Mg210 O220 2.251 . S
Mg210 O223 2.010 . S
O211 Mg210 2.028 . S
O211 C214 1.250 . S
O212 Mg213 2.028 . S
O212 C214 1.248 . S
Mg213 O212 2.028 . S
Mg213 O218 2.032 . S
Mg213 O220 2.079 . S
C214 O211 1.250 . S
C214 O212 1.248 . S
C215 O216 1.264 . S
C215 O223 1.249 . S
O216 C215 1.264 . S
O217 Mg210 1.986 . S
O217 C221 1.246 . S
O218 Mg213 2.032 . S
O218 C221 1.259 . S
O219 Mg210 2.114 . S
O219 C222 1.252 . S
O220 Mg210 2.251 . S
O220 Mg213 2.079 . S
O220 C222 1.273 . S
C221 O217 1.246 . S
C221 O218 1.259 . S
C222 O219 1.252 . S
C222 O220 1.273 . S
O223 Mg210 2.010 . S
O223 C215 1.249 . S
Mg224 O225 2.028 . S
Mg224 O231 1.986 . S
Mg224 O233 2.114 . S
Mg224 O234 2.251 . S
Mg224 O237 2.010 . S
O225 Mg224 2.028 . S
O225 C228 1.250 . S
O226 Mg227 2.028 . S
O226 C228 1.248 . S
Mg227 O226 2.028 . S
Mg227 O232 2.032 . S
Mg227 O234 2.079 . S
C228 O225 1.250 . S
C228 O226 1.248 . S
C229 O230 1.264 . S
C229 O237 1.249 . S
O230 C229 1.264 . S
O231 Mg224 1.986 . S
O231 C235 1.246 . S
O232 Mg227 2.032 . S
O232 C235 1.259 . S
O233 Mg224 2.114 . S
O233 C236 1.252 . S
O234 Mg224 2.251 . S
O234 Mg227 2.079 . S
O234 C236 1.273 . S
C235 O231 1.246 . S
C235 O232 1.259 . S
C236 O233 1.252 . S
C236 O234 1.273 . S
O237 Mg224 2.010 . S
O237 C229 1.249 . S
Mg238 O239 2.028 . S
Mg238 O245 1.986 . S
Mg238 O247 2.114 . S
Mg238 O248 2.251 . S
Mg238 O251 2.010 . S
O239 Mg238 2.028 . S
O239 C242 1.250 . S
O240 Mg241 2.028 . S
O240 C242 1.248 . S
Mg241 O240 2.028 . S
Mg241 O246 2.032 . S
Mg241 O248 2.079 . S
C242 O239 1.250 . S
C242 O240 1.248 . S
C243 O244 1.264 . S
C243 O251 1.249 . S
O244 C243 1.264 . S
O245 Mg238 1.986 . S
O245 C249 1.246 . S
O246 Mg241 2.032 . S
O246 C249 1.259 . S
O247 Mg238 2.114 . S
O247 C250 1.252 . S
O248 Mg238 2.251 . S
O248 Mg241 2.079 . S
O248 C250 1.273 . S
C249 O245 1.246 . S
C249 O246 1.259 . S
C250 O247 1.252 . S
C250 O248 1.273 . S
O251 Mg238 2.010 . S
O251 C243 1.249 . S
Mg252 O253 2.028 . S
Mg252 O259 1.986 . S
Mg252 O261 2.114 . S
Mg252 O262 2.251 . S
Mg252 O265 2.010 . S
O253 Mg252 2.028 . S
O253 C256 1.250 . S
O254 Mg255 2.028 . S
O254 C256 1.248 . S
Mg255 O254 2.028 . S
Mg255 O260 2.032 . S
Mg255 O262 2.079 . S
C256 O253 1.250 . S
C256 O254 1.248 . S
C257 O258 1.264 . S
C257 O265 1.249 . S
O258 C257 1.264 . S
O259 Mg252 1.986 . S
O259 C263 1.246 . S
O260 Mg255 2.032 . S
O260 C263 1.259 . S
O261 Mg252 2.114 . S
O261 C264 1.252 . S
O262 Mg252 2.251 . S
O262 Mg255 2.079 . S
O262 C264 1.273 . S
C263 O259 1.246 . S
C263 O260 1.259 . S
C264 O261 1.252 . S
C264 O262 1.273 . S
O265 Mg252 2.010 . S
O265 C257 1.249 . S
Mg266 O267 2.028 . S
Mg266 O273 1.986 . S
Mg266 O275 2.114 . S
Mg266 O276 2.251 . S
Mg266 O279 2.010 . S
O267 Mg266 2.028 . S
O267 C270 1.250 . S
O268 Mg269 2.028 . S
O268 C270 1.248 . S
Mg269 O268 2.028 . S
Mg269 O274 2.032 . S
Mg269 O276 2.079 . S
C270 O267 1.250 . S
C270 O268 1.248 . S
C271 O272 1.264 . S
C271 O279 1.249 . S
O272 C271 1.264 . S
O273 Mg266 1.986 . S
O273 C277 1.246 . S
O274 Mg269 2.032 . S
O274 C277 1.259 . S
O275 Mg266 2.114 . S
O275 C278 1.252 . S
O276 Mg266 2.251 . S
O276 Mg269 2.079 . S
O276 C278 1.273 . S
C277 O273 1.246 . S
C277 O274 1.259 . S
C278 O275 1.252 . S
C278 O276 1.273 . S
O279 Mg266 2.010 . S
O279 C271 1.249 . S
Mg280 O281 2.028 . S
Mg280 O287 1.986 . S
Mg280 O289 2.114 . S
Mg280 O290 2.251 . S
Mg280 O293 2.010 . S
O281 Mg280 2.028 . S
O281 C284 1.250 . S
O282 Mg283 2.028 . S
O282 C284 1.248 . S
Mg283 O282 2.028 . S
Mg283 O288 2.032 . S
Mg283 O290 2.079 . S
C284 O281 1.250 . S
C284 O282 1.248 . S
C285 O286 1.264 . S
C285 O293 1.249 . S
O286 C285 1.264 . S
O287 Mg280 1.986 . S
O287 C291 1.246 . S
O288 Mg283 2.032 . S
O288 C291 1.259 . S
O289 Mg280 2.114 . S
O289 C292 1.252 . S
O290 Mg280 2.251 . S
O290 Mg283 2.079 . S
O290 C292 1.273 . S
C291 O287 1.246 . S
C291 O288 1.259 . S
C292 O289 1.252 . S
C292 O290 1.273 . S
O293 Mg280 2.010 . S
O293 C285 1.249 . S
Mg294 O295 2.028 . S
Mg294 O301 1.986 . S
Mg294 O303 2.114 . S
Mg294 O304 2.251 . S
Mg294 O307 2.010 . S
O295 Mg294 2.028 . S
O295 C298 1.250 . S
O296 Mg297 2.028 . S
O296 C298 1.248 . S
Mg297 O296 2.028 . S
Mg297 O302 2.032 . S
Mg297 O304 2.079 . S
C298 O295 1.250 . S
C298 O296 1.248 . S
C299 O300 1.264 . S
C299 O307 1.249 . S
O300 C299 1.264 . S
O301 Mg294 1.986 . S
O301 C305 1.246 . S
O302 Mg297 2.032 . S
O302 C305 1.259 . S
O303 Mg294 2.114 . S
O303 C306 1.252 . S
O304 Mg294 2.251 . S
O304 Mg297 2.079 . S
O304 C306 1.273 . S
C305 O301 1.246 . S
C305 O302 1.259 . S
C306 O303 1.252 . S
C306 O304 1.273 . S
O307 Mg294 2.010 . S
O307 C299 1.249 . S
Mg308 O309 2.028 . S
Mg308 O315 1.986 . S
Mg308 O317 2.114 . S
Mg308 O318 2.251 . S
Mg308 O321 2.010 . S
O309 Mg308 2.028 . S
O309 C312 1.250 . S
O310 Mg311 2.028 . S
O310 C312 1.248 . S
Mg311 O310 2.028 . S
Mg311 O316 2.032 . S
Mg311 O318 2.079 . S
C312 O309 1.250 . S
C312 O310 1.248 . S
C313 O314 1.264 . S
C313 O321 1.249 . S
O314 C313 1.264 . S
O315 Mg308 1.986 . S
O315 C319 1.246 . S
O316 Mg311 2.032 . S
O316 C319 1.259 . S
O317 Mg308 2.114 . S
O317 C320 1.252 . S
O318 Mg308 2.251 . S
O318 Mg311 2.079 . S
O318 C320 1.273 . S
C319 O315 1.246 . S
C319 O316 1.259 . S
C320 O317 1.252 . S
C320 O318 1.273 . S
O321 Mg308 2.010 . S
O321 C313 1.249 . S
Mg322 O323 2.028 . S
Mg322 O329 1.986 . S
Mg322 O331 2.114 . S
Mg322 O332 2.251 . S
Mg322 O335 2.010 . S
O323 Mg322 2.028 . S
O323 C326 1.250 . S
O324 Mg325 2.028 . S
O324 C326 1.248 . S
Mg325 O324 2.028 . S
Mg325 O330 2.032 . S
Mg325 O332 2.079 . S
C326 O323 1.250 . S
C326 O324 1.248 . S
C327 O328 1.264 . S
C327 O335 1.249 . S
O328 C327 1.264 . S
O329 Mg322 1.986 . S
O329 C333 1.246 . S
O330 Mg325 2.032 . S
O330 C333 1.259 . S
O331 Mg322 2.114 . S
O331 C334 1.252 . S
O332 Mg322 2.251 . S
O332 Mg325 2.079 . S
O332 C334 1.273 . S
C333 O329 1.246 . S
C333 O330 1.259 . S
C334 O331 1.252 . S
C334 O332 1.273 . S
O335 Mg322 2.010 . S
O335 C327 1.249 . S
Mg336 O337 2.028 . S
Mg336 O343 1.986 . S
Mg336 O345 2.114 . S
Mg336 O346 2.251 . S
Mg336 O349 2.010 . S
O337 Mg336 2.028 . S
O337 C340 1.250 . S
O338 Mg339 2.028 . S
O338 C340 1.248 . S
Mg339 O338 2.028 . S
Mg339 O344 2.032 . S
Mg339 O346 2.079 . S
C340 O337 1.250 . S
C340 O338 1.248 . S
C341 O342 1.264 . S
C341 O349 1.249 . S
O342 C341 1.264 . S
O343 Mg336 1.986 . S
O343 C347 1.246 . S
O344 Mg339 2.032 . S
O344 C347 1.259 . S
O345 Mg336 2.114 . S
O345 C348 1.252 . S
O346 Mg336 2.251 . S
O346 Mg339 2.079 . S
O346 C348 1.273 . S
C347 O343 1.246 . S
C347 O344 1.259 . S
C348 O345 1.252 . S
C348 O346 1.273 . S
O349 Mg336 2.010 . S
O349 C341 1.249 . S
Mg350 O351 2.028 . S
Mg350 O357 1.986 . S
Mg350 O359 2.114 . S
Mg350 O360 2.251 . S
Mg350 O363 2.010 . S
O351 Mg350 2.028 . S
O351 C354 1.250 . S
O352 Mg353 2.028 . S
O352 C354 1.248 . S
Mg353 O352 2.028 . S
Mg353 O358 2.032 . S
Mg353 O360 2.079 . S
C354 O351 1.250 . S
C354 O352 1.248 . S
C355 O356 1.264 . S
C355 O363 1.249 . S
O356 C355 1.264 . S
O357 Mg350 1.986 . S
O357 C361 1.246 . S
O358 Mg353 2.032 . S
O358 C361 1.259 . S
O359 Mg350 2.114 . S
O359 C362 1.252 . S
O360 Mg350 2.251 . S
O360 Mg353 2.079 . S
O360 C362 1.273 . S
C361 O357 1.246 . S
C361 O358 1.259 . S
C362 O359 1.252 . S
C362 O360 1.273 . S
O363 Mg350 2.010 . S
O363 C355 1.249 . S
Mg364 O365 2.028 . S
Mg364 O371 1.986 . S
Mg364 O373 2.114 . S
Mg364 O374 2.251 . S
Mg364 O377 2.010 . S
O365 Mg364 2.028 . S
O365 C368 1.250 . S
O366 Mg367 2.028 . S
O366 C368 1.248 . S
Mg367 O366 2.028 . S
Mg367 O372 2.032 . S
Mg367 O374 2.079 . S
C368 O365 1.250 . S
C368 O366 1.248 . S
C369 O370 1.264 . S
C369 O377 1.249 . S
O370 C369 1.264 . S
O371 Mg364 1.986 . S
O371 C375 1.246 . S
O372 Mg367 2.032 . S
O372 C375 1.259 . S
O373 Mg364 2.114 . S
O373 C376 1.252 . S
O374 Mg364 2.251 . S
O374 Mg367 2.079 . S
O374 C376 1.273 . S
C375 O371 1.246 . S
C375 O372 1.259 . S
C376 O373 1.252 . S
C376 O374 1.273 . S
O377 Mg364 2.010 . S
O377 C369 1.249 . S
Mg378 O379 2.028 . S
Mg378 O385 1.986 . S
Mg378 O387 2.114 . S
Mg378 O388 2.251 . S
Mg378 O391 2.010 . S
O379 Mg378 2.028 . S
O379 C382 1.250 . S
O380 Mg381 2.028 . S
O380 C382 1.248 . S
Mg381 O380 2.028 . S
Mg381 O386 2.032 . S
Mg381 O388 2.079 . S
C382 O379 1.250 . S
C382 O380 1.248 . S
C383 O384 1.264 . S
C383 O391 1.249 . S
O384 C383 1.264 . S
O385 Mg378 1.986 . S
O385 C389 1.246 . S
O386 Mg381 2.032 . S
O386 C389 1.259 . S
O387 Mg378 2.114 . S
O387 C390 1.252 . S
O388 Mg378 2.251 . S
O388 Mg381 2.079 . S
O388 C390 1.273 . S
C389 O385 1.246 . S
C389 O386 1.259 . S
C390 O387 1.252 . S
C390 O388 1.273 . S
O391 Mg378 2.010 . S
O391 C383 1.249 . S
Mg392 O393 2.028 . S
Mg392 O399 1.986 . S
Mg392 O401 2.114 . S
Mg392 O402 2.251 . S
Mg392 O405 2.010 . S
O393 Mg392 2.028 . S
O393 C396 1.250 . S
O394 Mg395 2.028 . S
O394 C396 1.248 . S
Mg395 O394 2.028 . S
Mg395 O400 2.032 . S
Mg395 O402 2.079 . S
C396 O393 1.250 . S
C396 O394 1.248 . S
C397 O398 1.264 . S
C397 O405 1.249 . S
O398 C397 1.264 . S
O399 Mg392 1.986 . S
O399 C403 1.246 . S
O400 Mg395 2.032 . S
O400 C403 1.259 . S
O401 Mg392 2.114 . S
O401 C404 1.252 . S
O402 Mg392 2.251 . S
O402 Mg395 2.079 . S
O402 C404 1.273 . S
C403 O399 1.246 . S
C403 O400 1.259 . S
C404 O401 1.252 . S
C404 O402 1.273 . S
O405 Mg392 2.010 . S
O405 C397 1.249 . S
Mg406 O407 2.028 . S
Mg406 O413 1.986 . S
Mg406 O415 2.114 . S
Mg406 O416 2.251 . S
Mg406 O419 2.010 . S
O407 Mg406 2.028 . S
O407 C410 1.250 . S
O408 Mg409 2.028 . S
O408 C410 1.248 . S
Mg409 O408 2.028 . S
Mg409 O414 2.032 . S
Mg409 O416 2.079 . S
C410 O407 1.250 . S
C410 O408 1.248 . S
C411 O412 1.264 . S
C411 O419 1.249 . S
O412 C411 1.264 . S
O413 Mg406 1.986 . S
O413 C417 1.246 . S
O414 Mg409 2.032 . S
O414 C417 1.259 . S
O415 Mg406 2.114 . S
O415 C418 1.252 . S
O416 Mg406 2.251 . S
O416 Mg409 2.079 . S
O416 C418 1.273 . S
C417 O413 1.246 . S
C417 O414 1.259 . S
C418 O415 1.252 . S
C418 O416 1.273 . S
O419 Mg406 2.010 . S
O419 C411 1.249 . S
Mg420 O421 2.028 . S
Mg420 O427 1.986 . S
Mg420 O429 2.114 . S
Mg420 O430 2.251 . S
Mg420 O433 2.010 . S
O421 Mg420 2.028 . S
O421 C424 1.250 . S
O422 Mg423 2.028 . S
O422 C424 1.248 . S
Mg423 O422 2.028 . S
Mg423 O428 2.032 . S
Mg423 O430 2.079 . S
C424 O421 1.250 . S
C424 O422 1.248 . S
C425 O426 1.264 . S
C425 O433 1.249 . S
O426 C425 1.264 . S
O427 Mg420 1.986 . S
O427 C431 1.246 . S
O428 Mg423 2.032 . S
O428 C431 1.259 . S
O429 Mg420 2.114 . S
O429 C432 1.252 . S
O430 Mg420 2.251 . S
O430 Mg423 2.079 . S
O430 C432 1.273 . S
C431 O427 1.246 . S
C431 O428 1.259 . S
C432 O429 1.252 . S
C432 O430 1.273 . S
O433 Mg420 2.010 . S
O433 C425 1.249 . S
Mg434 O435 2.028 . S
Mg434 O441 1.986 . S
Mg434 O443 2.114 . S
Mg434 O444 2.251 . S
Mg434 O447 2.010 . S
O435 Mg434 2.028 . S
O435 C438 1.250 . S
O436 Mg437 2.028 . S
O436 C438 1.248 . S
Mg437 O436 2.028 . S
Mg437 O442 2.032 . S
Mg437 O444 2.079 . S
C438 O435 1.250 . S
C438 O436 1.248 . S
C439 O440 1.264 . S
C439 O447 1.249 . S
O440 C439 1.264 . S
O441 Mg434 1.986 . S
O441 C445 1.246 . S
O442 Mg437 2.032 . S
O442 C445 1.259 . S
O443 Mg434 2.114 . S
O443 C446 1.252 . S
O444 Mg434 2.251 . S
O444 Mg437 2.079 . S
O444 C446 1.273 . S
C445 O441 1.246 . S
C445 O442 1.259 . S
C446 O443 1.252 . S
C446 O444 1.273 . S
O447 Mg434 2.010 . S
O447 C439 1.249 . S
Mg448 O449 2.028 . S
Mg448 O455 1.986 . S
Mg448 O457 2.114 . S
Mg448 O458 2.251 . S
Mg448 O461 2.010 . S
O449 Mg448 2.028 . S
O449 C452 1.250 . S
O450 Mg451 2.028 . S
O450 C452 1.248 . S
Mg451 O450 2.028 . S
Mg451 O456 2.032 . S
Mg451 O458 2.079 . S
C452 O449 1.250 . S
C452 O450 1.248 . S
C453 O454 1.264 . S
C453 O461 1.249 . S
O454 C453 1.264 . S
O455 Mg448 1.986 . S
O455 C459 1.246 . S
O456 Mg451 2.032 . S
O456 C459 1.259 . S
O457 Mg448 2.114 . S
O457 C460 1.252 . S
O458 Mg448 2.251 . S
O458 Mg451 2.079 . S
O458 C460 1.273 . S
C459 O455 1.246 . S
C459 O456 1.259 . S
C460 O457 1.252 . S
C460 O458 1.273 . S
O461 Mg448 2.010 . S
O461 C453 1.249 . S
Mg462 O463 2.028 . S
Mg462 O469 1.986 . S
Mg462 O471 2.114 . S
Mg462 O472 2.251 . S
Mg462 O475 2.010 . S
O463 Mg462 2.028 . S
O463 C466 1.250 . S
O464 Mg465 2.028 . S
O464 C466 1.248 . S
Mg465 O464 2.028 . S
Mg465 O470 2.032 . S
Mg465 O472 2.079 . S
C466 O463 1.250 . S
C466 O464 1.248 . S
C467 O468 1.264 . S
C467 O475 1.249 . S
O468 C467 1.264 . S
O469 Mg462 1.986 . S
O469 C473 1.246 . S
O470 Mg465 2.032 . S
O470 C473 1.259 . S
O471 Mg462 2.114 . S
O471 C474 1.252 . S
O472 Mg462 2.251 . S
O472 Mg465 2.079 . S
O472 C474 1.273 . S
C473 O469 1.246 . S
C473 O470 1.259 . S
C474 O471 1.252 . S
C474 O472 1.273 . S
O475 Mg462 2.010 . S
O475 C467 1.249 . S
Mg476 O477 2.028 . S
Mg476 O483 1.986 . S
Mg476 O485 2.114 . S
Mg476 O486 2.251 . S
Mg476 O489 2.010 . S
O477 Mg476 2.028 . S
O477 C480 1.250 . S
O478 Mg479 2.028 . S
O478 C480 1.248 . S
Mg479 O478 2.028 . S
Mg479 O484 2.032 . S
Mg479 O486 2.079 . S
C480 O477 1.250 . S
C480 O478 1.248 . S
C481 O482 1.264 . S
C481 O489 1.249 . S
O482 C481 1.264 . S
O483 Mg476 1.986 . S
O483 C487 1.246 . S
O484 Mg479 2.032 . S
O484 C487 1.259 . S
O485 Mg476 2.114 . S
O485 C488 1.252 . S
O486 Mg476 2.251 . S
O486 Mg479 2.079 . S
O486 C488 1.273 . S
C487 O483 1.246 . S
C487 O484 1.259 . S
C488 O485 1.252 . S
C488 O486 1.273 . S
O489 Mg476 2.010 . S
O489 C481 1.249 . S
Mg490 O491 2.028 . S
Mg490 O497 1.986 . S
Mg490 O499 2.114 . S
Mg490 O500 2.251 . S
Mg490 O503 2.010 . S
O491 Mg490 2.028 . S
O491 C494 1.250 . S
O492 Mg493 2.028 . S
O492 C494 1.248 . S
Mg493 O492 2.028 . S
Mg493 O498 2.032 . S
Mg493 O500 2.079 . S
C494 O491 1.250 . S
C494 O492 1.248 . S
C495 O496 1.264 . S
C495 O503 1.249 . S
O496 C495 1.264 . S
O497 Mg490 1.986 . S
O497 C501 1.246 . S
O498 Mg493 2.032 . S
O498 C501 1.259 . S
O499 Mg490 2.114 . S
O499 C502 1.252 . S
O500 Mg490 2.251 . S
O500 Mg493 2.079 . S
O500 C502 1.273 . S
C501 O497 1.246 . S
C501 O498 1.259 . S
C502 O499 1.252 . S
C502 O500 1.273 . S
O503 Mg490 2.010 . S
O503 C495 1.249 . S
H504 C510 0.930 . S
H505 C514 0.930 . S
H506 C519 0.929 . S
H507 C517 0.929 . S
H508 C512 0.929 . S
H509 C518 0.929 . S
C510 H504 0.930 . S
C510 C511 1.367 . S
C510 C518 1.378 . S
C511 C510 1.367 . S
C511 C519 1.433 . S
C512 H508 0.929 . S
C512 C514 1.378 . S
C512 C516 1.350 . S
C513 C516 1.463 1_565 S
C513 C518 1.350 . S
C513 N521 1.426 1_565 S
C514 H505 0.930 . S
C514 C512 1.378 . S
C514 C515 1.367 . S
C515 C514 1.367 . S
C515 C517 1.433 . S
C516 C512 1.350 . S
C516 C513 1.463 1_545 S
C516 N520 1.426 1_545 S
C517 H507 0.929 . S
C517 C515 1.433 . S
C517 N520 1.356 1_545 S
C518 H509 0.929 . S
C518 C510 1.378 . S
C518 C513 1.350 . S
C519 H506 0.929 . S
C519 C511 1.433 . S
C519 N521 1.356 1_565 S
N520 C516 1.426 1_565 S
N520 C517 1.356 1_565 S
N521 C513 1.426 1_545 S
N521 C519 1.356 1_545 S
H522 C528 0.930 . S
H523 C532 0.930 . S
H524 C537 0.929 . S
H525 C535 0.929 . S
H526 C530 0.929 . S
H527 C536 0.929 . S
C528 H522 0.930 . S
C528 C529 1.367 . S
C528 C536 1.378 1_455 S
C529 C528 1.367 . S
C529 C537 1.433 . S
C530 H526 0.929 . S
C530 C532 1.378 1_455 S
C530 C534 1.350 1_455 S
C531 C534 1.463 1_455 S
C531 C536 1.350 1_455 S
C531 N539 1.427 . S
C532 H523 0.930 . S
C532 C530 1.378 1_655 S
C532 C533 1.367 . S
C533 C532 1.367 . S
C533 C535 1.433 . S
C534 C530 1.350 1_655 S
C534 C531 1.463 1_655 S
C534 N538 1.427 . S
C535 H525 0.929 . S
C535 C533 1.433 . S
C535 N538 1.384 . S
C536 H527 0.929 . S
C536 C528 1.378 1_655 S
C536 C531 1.350 1_655 S
C537 H524 0.929 . S
C537 C529 1.433 . S
C537 N539 1.384 . S
N538 C534 1.427 . S
N538 C535 1.384 . S
N539 C531 1.427 . S
N539 C537 1.384 . S
H540 C546 0.930 . S
H541 C550 0.930 . S
H542 C555 0.929 . S
H543 C553 0.929 . S
H544 C548 0.929 . S
H545 C554 0.929 . S
C546 H540 0.930 . S
C546 C547 1.367 . S
C546 C554 1.378 . S
C547 C546 1.367 . S
C547 C555 1.433 . S
C548 H544 0.929 . S
C548 C550 1.378 . S
C548 C552 1.350 . S
C549 C552 1.463 . S
C549 C554 1.350 . S
C549 N557 1.427 . S
C550 H541 0.930 . S
C550 C548 1.378 . S
C550 C551 1.367 . S
C551 C550 1.367 . S
C551 C553 1.433 . S
C552 C548 1.350 . S
C552 C549 1.463 . S
C552 N556 1.427 . S
C553 H543 0.929 . S
C553 C551 1.433 . S
C553 N556 1.384 . S
C554 H545 0.929 . S
C554 C546 1.378 . S
C554 C549 1.350 . S
C555 H542 0.929 . S
C555 C547 1.433 . S
C555 N557 1.384 . S
N556 C552 1.427 . S
N556 C553 1.384 . S
N557 C549 1.427 . S
N557 C555 1.384 . S
H558 C564 0.930 . S
H559 C568 0.930 . S
H560 C573 0.929 . S
H561 C571 0.929 . S
H562 C566 0.929 . S
H563 C572 0.929 . S
C564 H558 0.930 . S
C564 C565 1.367 . S
C564 C572 1.378 . S
C565 C564 1.367 . S
C565 C573 1.433 . S
C566 H562 0.929 . S
C566 C568 1.378 . S
C566 C570 1.350 . S
C567 C570 1.463 1_565 S
C567 C572 1.350 . S
C567 N575 1.427 1_565 S
C568 H559 0.930 . S
C568 C566 1.378 . S
C568 C569 1.367 . S
C569 C568 1.367 . S
C569 C571 1.433 . S
C570 C566 1.350 . S
C570 C567 1.463 1_545 S
C570 N574 1.427 1_545 S
C571 H561 0.929 . S
C571 C569 1.433 . S
C571 N574 1.384 1_545 S
C572 H563 0.929 . S
C572 C564 1.378 . S
C572 C567 1.350 . S
C573 H560 0.929 . S
C573 C565 1.433 . S
C573 N575 1.384 1_565 S
N574 C570 1.427 1_565 S
N574 C571 1.384 1_565 S
N575 C567 1.427 1_545 S
N575 C573 1.384 1_545 S
H576 C582 0.930 . S
H577 C586 0.930 . S
H578 C591 0.929 . S
H579 C589 0.929 . S
H580 C584 0.929 . S
H581 C590 0.929 . S
C582 H576 0.930 . S
C582 C583 1.367 . S
C582 C590 1.378 . S
C583 C582 1.367 . S
C583 C591 1.433 . S
C584 H580 0.929 . S
C584 C586 1.378 . S
C584 C588 1.350 . S
C585 C588 1.463 1_455 S
C585 C590 1.350 . S
C585 N593 1.427 1_455 S
C586 H577 0.930 . S
C586 C584 1.378 . S
C586 C587 1.367 . S
C587 C586 1.367 . S
C587 C589 1.433 . S
C588 C584 1.350 . S
C588 C585 1.463 1_655 S
C588 N592 1.427 1_655 S
C589 H579 0.929 . S
C589 C587 1.433 . S
C589 N592 1.384 1_655 S
C590 H581 0.929 . S
C590 C582 1.378 . S
C590 C585 1.350 . S
C591 H578 0.929 . S
C591 C583 1.433 . S
C591 N593 1.384 1_455 S
N592 C588 1.427 1_455 S
N592 C589 1.384 1_455 S
N593 C585 1.427 1_655 S
N593 C591 1.384 1_655 S
H594 C600 0.930 . S
H595 C604 0.930 . S
H596 C609 0.929 . S
H597 C607 0.929 . S
H598 C602 0.929 . S
H599 C608 0.929 . S
C600 H594 0.930 . S
C600 C601 1.367 . S
C600 C608 1.378 . S
C601 C600 1.367 . S
C601 C609 1.433 . S
C602 H598 0.929 . S
C602 C604 1.378 . S
C602 C606 1.350 . S
C603 C606 1.463 . S
C603 C608 1.350 . S
C603 N611 1.427 . S
C604 H595 0.930 . S
C604 C602 1.378 . S
C604 C605 1.367 . S
C605 C604 1.367 . S
C605 C607 1.433 . S
C606 C602 1.350 . S
C606 C603 1.463 . S
C606 N610 1.427 . S
C607 H597 0.929 . S
C607 C605 1.433 . S
C607 N610 1.384 . S
C608 H599 0.929 . S
C608 C600 1.378 . S
C608 C603 1.350 . S
C609 H596 0.929 . S
C609 C601 1.433 . S
C609 N611 1.384 . S
N610 C606 1.427 . S
N610 C607 1.384 . S
N611 C603 1.427 . S
N611 C609 1.384 . S
H612 C618 0.930 . S
H613 C622 0.930 . S
H614 C627 0.929 . S
H615 C625 0.929 . S
H616 C620 0.929 . S
H617 C626 0.929 . S
C618 H612 0.930 . S
C618 C619 1.367 . S
C618 C626 1.378 . S
C619 C618 1.367 . S
C619 C627 1.433 . S
C620 H616 0.929 . S
C620 C622 1.378 . S
C620 C624 1.350 . S
C621 C624 1.463 . S
C621 C626 1.350 . S
C621 N629 1.427 . S
C622 H613 0.930 . S
C622 C620 1.378 . S
C622 C623 1.367 . S
C623 C622 1.367 . S
C623 C625 1.433 . S
C624 C620 1.350 . S
C624 C621 1.463 . S
C624 N628 1.427 . S
C625 H615 0.929 . S
C625 C623 1.433 . S
C625 N628 1.384 . S
C626 H617 0.929 . S
C626 C618 1.378 . S
C626 C621 1.350 . S
C627 H614 0.929 . S
C627 C619 1.433 . S
C627 N629 1.384 . S
N628 C624 1.427 . S
N628 C625 1.384 . S
N629 C621 1.427 . S
N629 C627 1.384 . S
H630 C636 0.930 . S
H631 C640 0.930 . S
H632 C645 0.929 . S
H633 C643 0.929 . S
H634 C638 0.929 . S
H635 C644 0.929 . S
C636 H630 0.930 . S
C636 C637 1.367 . S
C636 C644 1.378 . S
C637 C636 1.367 . S
C637 C645 1.433 . S
C638 H634 0.929 . S
C638 C640 1.378 . S
C638 C642 1.350 . S
C639 C642 1.463 . S
C639 C644 1.350 . S
C639 N647 1.427 . S
C640 H631 0.930 . S
C640 C638 1.378 . S
C640 C641 1.367 . S
C641 C640 1.367 . S
C641 C643 1.433 . S
C642 C638 1.350 . S
C642 C639 1.463 . S
C642 N646 1.427 . S
C643 H633 0.929 . S
C643 C641 1.433 . S
C643 N646 1.384 . S
C644 H635 0.929 . S
C644 C636 1.378 . S
C644 C639 1.350 . S
C645 H632 0.929 . S
C645 C637 1.433 . S
C645 N647 1.384 . S
N646 C642 1.427 . S
N646 C643 1.384 . S
N647 C639 1.427 . S
N647 C645 1.384 . S
H648 C654 0.930 . S
H649 C658 0.930 . S
H650 C663 0.929 . S
H651 C661 0.929 . S
H652 C656 0.929 . S
H653 C662 0.929 . S
C654 H648 0.930 . S
C654 C655 1.367 . S
C654 C662 1.378 . S
C655 C654 1.367 . S
C655 C663 1.433 . S
C656 H652 0.929 . S
C656 C658 1.378 . S
C656 C660 1.350 . S
C657 C660 1.463 . S
C657 C662 1.350 . S
C657 N665 1.427 . S
C658 H649 0.930 . S
C658 C656 1.378 . S
C658 C659 1.367 . S
C659 C658 1.367 . S
C659 C661 1.433 . S
C660 C656 1.350 . S
C660 C657 1.463 . S
C660 N664 1.427 . S
C661 H651 0.929 . S
C661 C659 1.433 . S
C661 N664 1.384 . S
C662 H653 0.929 . S
C662 C654 1.378 . S
C662 C657 1.350 . S
C663 H650 0.929 . S
C663 C655 1.433 . S
C663 N665 1.384 . S
N664 C660 1.427 . S
N664 C661 1.384 . S
N665 C657 1.427 . S
N665 C663 1.384 . S
H666 C672 0.930 . S
H667 C676 0.930 . S
H668 C681 0.929 . S
H669 C679 0.929 . S
H670 C674 0.929 . S
H671 C680 0.929 . S
C672 H666 0.930 . S
C672 C673 1.367 . S
C672 C680 1.378 . S
C673 C672 1.367 . S
C673 C681 1.433 . S
C674 H670 0.929 . S
C674 C676 1.378 . S
C674 C678 1.350 . S
C675 C678 1.463 . S
C675 C680 1.350 . S
C675 N683 1.427 . S
C676 H667 0.930 . S
C676 C674 1.378 . S
C676 C677 1.367 . S
C677 C676 1.367 . S
C677 C679 1.433 . S
C678 C674 1.350 . S
C678 C675 1.463 . S
C678 N682 1.427 . S
C679 H669 0.929 . S
C679 C677 1.433 . S
C679 N682 1.384 . S
C680 H671 0.929 . S
C680 C672 1.378 . S
C680 C675 1.350 . S
C681 H668 0.929 . S
C681 C673 1.433 . S
C681 N683 1.384 . S
N682 C678 1.427 . S
N682 C679 1.384 . S
N683 C675 1.427 . S
N683 C681 1.384 . S
H684 C690 0.930 . S
H685 C694 0.930 . S
H686 C699 0.929 . S
H687 C697 0.929 . S
H688 C692 0.929 . S
H689 C698 0.929 . S
C690 H684 0.930 . S
C690 C691 1.367 . S
C690 C698 1.378 . S
C691 C690 1.367 . S
C691 C699 1.433 . S
C692 H688 0.929 . S
C692 C694 1.378 . S
C692 C696 1.350 . S
C693 C696 1.463 . S
C693 C698 1.350 . S
C693 N701 1.427 . S
C694 H685 0.930 . S
C694 C692 1.378 . S
C694 C695 1.367 . S
C695 C694 1.367 . S
C695 C697 1.433 . S
C696 C692 1.350 . S
C696 C693 1.463 . S
C696 N700 1.427 . S
C697 H687 0.929 . S
C697 C695 1.433 . S
C697 N700 1.384 . S
C698 H689 0.929 . S
C698 C690 1.378 . S
C698 C693 1.350 . S
C699 H686 0.929 . S
C699 C691 1.433 . S
C699 N701 1.384 . S
N700 C696 1.427 . S
N700 C697 1.384 . S
N701 C693 1.427 . S
N701 C699 1.384 . S
H702 C708 0.930 . S
H703 C712 0.930 . S
H704 C717 0.929 . S
H705 C715 0.929 . S
H706 C710 0.929 . S
H707 C716 0.929 . S
C708 H702 0.930 . S
C708 C709 1.367 . S
C708 C716 1.378 . S
C709 C708 1.367 . S
C709 C717 1.433 . S
C710 H706 0.929 . S
C710 C712 1.378 . S
C710 C714 1.350 . S
C711 C714 1.463 . S
C711 C716 1.350 . S
C711 N719 1.427 . S
C712 H703 0.930 . S
C712 C710 1.378 . S
C712 C713 1.367 . S
C713 C712 1.367 . S
C713 C715 1.433 . S
C714 C710 1.350 . S
C714 C711 1.463 . S
C714 N718 1.427 . S
C715 H705 0.929 . S
C715 C713 1.433 . S
C715 N718 1.384 . S
C716 H707 0.929 . S
C716 C708 1.378 . S
C716 C711 1.350 . S
C717 H704 0.929 . S
C717 C709 1.433 . S
C717 N719 1.384 . S
N718 C714 1.427 . S
N718 C715 1.384 . S
N719 C711 1.427 . S
N719 C717 1.384 . S
H720 C726 0.930 . S
H721 C730 0.930 . S
H722 C735 0.929 . S
H723 C733 0.929 . S
H724 C728 0.929 . S
H725 C734 0.929 . S
C726 H720 0.930 . S
C726 C727 1.367 . S
C726 C734 1.378 . S
C727 C726 1.367 . S
C727 C735 1.433 . S
C728 H724 0.929 . S
C728 C730 1.378 . S
C728 C732 1.350 . S
C729 C732 1.463 . S
C729 C734 1.350 . S
C729 N737 1.427 . S
C730 H721 0.930 . S
C730 C728 1.378 . S
C730 C731 1.367 . S
C731 C730 1.367 . S
C731 C733 1.433 . S
C732 C728 1.350 . S
C732 C729 1.463 . S
C732 N736 1.427 . S
C733 H723 0.929 . S
C733 C731 1.433 . S
C733 N736 1.384 . S
C734 H725 0.929 . S
C734 C726 1.378 . S
C734 C729 1.350 . S
C735 H722 0.929 . S
C735 C727 1.433 . S
C735 N737 1.384 . S
N736 C732 1.427 . S
N736 C733 1.384 . S
N737 C729 1.427 . S
N737 C735 1.384 . S
H738 C744 0.930 . S
H739 C748 0.930 . S
H740 C753 0.929 . S
H741 C751 0.929 . S
H742 C746 0.929 . S
H743 C752 0.929 . S
C744 H738 0.930 . S
C744 C745 1.367 . S
C744 C752 1.378 . S
C745 C744 1.367 . S
C745 C753 1.433 . S
C746 H742 0.929 . S
C746 C748 1.378 . S
C746 C750 1.350 . S
C747 C750 1.463 . S
C747 C752 1.350 . S
C747 N755 1.427 . S
C748 H739 0.930 . S
C748 C746 1.378 . S
C748 C749 1.367 . S
C749 C748 1.367 . S
C749 C751 1.433 . S
C750 C746 1.350 . S
C750 C747 1.463 . S
C750 N754 1.427 . S
C751 H741 0.929 . S
C751 C749 1.433 . S
C751 N754 1.384 . S
C752 H743 0.929 . S
C752 C744 1.378 . S
C752 C747 1.350 . S
C753 H740 0.929 . S
C753 C745 1.433 . S
C753 N755 1.384 . S
N754 C750 1.427 . S
N754 C751 1.384 . S
N755 C747 1.427 . S
N755 C753 1.384 . S
H756 C762 0.930 . S
H757 C766 0.930 . S
H758 C771 0.929 . S
H759 C769 0.929 . S
H760 C764 0.929 . S
H761 C770 0.929 . S
C762 H756 0.930 . S
C762 C763 1.367 . S
C762 C770 1.378 . S
C763 C762 1.367 . S
C763 C771 1.433 . S
C764 H760 0.929 . S
C764 C766 1.378 . S
C764 C768 1.350 . S
C765 C768 1.463 . S
C765 C770 1.350 . S
C765 N773 1.427 . S
C766 H757 0.930 . S
C766 C764 1.378 . S
C766 C767 1.367 . S
C767 C766 1.367 . S
C767 C769 1.433 . S
C768 C764 1.350 . S
C768 C765 1.463 . S
C768 N772 1.427 . S
C769 H759 0.929 . S
C769 C767 1.433 . S
C769 N772 1.384 . S
C770 H761 0.929 . S
C770 C762 1.378 . S
C770 C765 1.350 . S
C771 H758 0.929 . S
C771 C763 1.433 . S
C771 N773 1.384 . S
N772 C768 1.427 . S
N772 C769 1.384 . S
N773 C765 1.427 . S
N773 C771 1.384 . S
H774 C780 0.930 . S
H775 C784 0.930 . S
H776 C789 0.929 . S
H777 C787 0.929 . S
H778 C782 0.929 . S
H779 C788 0.929 . S
C780 H774 0.930 . S
C780 C781 1.367 . S
C780 C788 1.378 . S
C781 C780 1.367 . S
C781 C789 1.433 . S
C782 H778 0.929 . S
C782 C784 1.378 . S
C782 C786 1.350 . S
C783 C786 1.463 . S
C783 C788 1.350 . S
C783 N791 1.427 . S
C784 H775 0.930 . S
C784 C782 1.378 . S
C784 C785 1.367 . S
C785 C784 1.367 . S
C785 C787 1.433 . S
C786 C782 1.350 . S
C786 C783 1.463 . S
C786 N790 1.427 . S
C787 H777 0.929 . S
C787 C785 1.433 . S
C787 N790 1.384 . S
C788 H779 0.929 . S
C788 C780 1.378 . S
C788 C783 1.350 . S
C789 H776 0.929 . S
C789 C781 1.433 . S
C789 N791 1.384 . S
N790 C786 1.427 . S
N790 C787 1.384 . S
N791 C783 1.427 . S
N791 C789 1.384 . S
H792 C798 0.930 . S
H793 C802 0.930 . S
H794 C807 0.929 . S
H795 C805 0.929 . S
H796 C800 0.929 . S
H797 C806 0.929 . S
C798 H792 0.930 . S
C798 C799 1.367 . S
C798 C806 1.378 . S
C799 C798 1.367 . S
C799 C807 1.433 . S
C800 H796 0.929 . S
C800 C802 1.378 . S
C800 C804 1.350 . S
C801 C804 1.463 . S
C801 C806 1.350 . S
C801 N809 1.427 . S
C802 H793 0.930 . S
C802 C800 1.378 . S
C802 C803 1.367 . S
C803 C802 1.367 . S
C803 C805 1.433 . S
C804 C800 1.350 . S
C804 C801 1.463 . S
C804 N808 1.427 . S
C805 H795 0.929 . S
C805 C803 1.433 . S
C805 N808 1.384 . S
C806 H797 0.929 . S
C806 C798 1.378 . S
C806 C801 1.350 . S
C807 H794 0.929 . S
C807 C799 1.433 . S
C807 N809 1.384 . S
N808 C804 1.427 . S
N808 C805 1.384 . S
N809 C801 1.427 . S
N809 C807 1.384 . S
H810 C816 0.930 . S
H811 C820 0.930 . S
H812 C825 0.929 . S
H813 C823 0.929 . S
H814 C818 0.929 . S
H815 C824 0.929 . S
C816 H810 0.930 . S
C816 C817 1.367 . S
C816 C824 1.378 . S
C817 C816 1.367 . S
C817 C825 1.433 . S
C818 H814 0.929 . S
C818 C820 1.378 . S
C818 C822 1.350 . S
C819 C822 1.463 . S
C819 C824 1.350 . S
C819 N827 1.427 . S
C820 H811 0.930 . S
C820 C818 1.378 . S
C820 C821 1.367 . S
C821 C820 1.367 . S
C821 C823 1.433 . S
C822 C818 1.350 . S
C822 C819 1.463 . S
C822 N826 1.427 . S
C823 H813 0.929 . S
C823 C821 1.433 . S
C823 N826 1.384 . S
C824 H815 0.929 . S
C824 C816 1.378 . S
C824 C819 1.350 . S
C825 H812 0.929 . S
C825 C817 1.433 . S
C825 N827 1.384 . S
N826 C822 1.427 . S
N826 C823 1.384 . S
N827 C819 1.427 . S
N827 C825 1.384 . S
H828 C834 0.930 . S
H829 C838 0.930 . S
H830 C843 0.929 . S
H831 C841 0.929 . S
H832 C836 0.929 1_565 S
H833 C842 0.929 1_545 S
C834 H828 0.930 . S
C834 C835 1.367 . S
C834 C842 1.378 . S
C835 C834 1.367 . S
C835 C843 1.433 . S
C836 H832 0.929 1_545 S
C836 C838 1.378 . S
C836 C840 1.350 . S
C837 C840 1.463 1_566 S
C837 C842 1.350 . S
C837 N845 1.427 . S
C838 H829 0.930 . S
C838 C836 1.378 . S
C838 C839 1.367 . S
C839 C838 1.367 . S
C839 C841 1.433 . S
C840 C836 1.350 . S
C840 C837 1.463 1_544 S
C840 N844 1.427 . S
C841 H831 0.929 . S
C841 C839 1.433 . S
C841 N844 1.384 . S
C842 H833 0.929 1_565 S
C842 C834 1.378 . S
C842 C837 1.350 . S
C843 H830 0.929 . S
C843 C835 1.433 . S
C843 N845 1.384 . S
N844 C840 1.427 . S
N844 C841 1.384 . S
N845 C837 1.427 . S
N845 C843 1.384 . S
H846 C852 0.930 . S
H847 C856 0.930 . S
H848 C861 0.929 . S
H849 C859 0.929 . S
H850 C854 0.935 . S
H851 C860 0.935 . S
C852 H846 0.930 . S
C852 C853 1.367 . S
C852 C860 1.371 1_655 S
C853 C852 1.367 . S
C853 C861 1.433 . S
C854 H850 0.935 . S
C854 C856 1.372 1_655 S
C854 C858 1.350 1_655 S
C855 C858 1.463 1_654 S
C855 C860 1.350 1_655 S
C855 N863 1.427 . S
C856 H847 0.930 . S
C856 C854 1.372 1_455 S
C856 C857 1.367 . S
C857 C856 1.367 . S
C857 C859 1.433 . S
C858 C854 1.350 1_455 S
C858 C855 1.463 1_456 S
C858 N862 1.427 . S
C859 H849 0.929 . S
C859 C857 1.433 . S
C859 N862 1.384 . S
C860 H851 0.935 . S
C860 C852 1.371 1_455 S
C860 C855 1.350 1_455 S
C861 H848 0.929 . S
C861 C853 1.433 . S
C861 N863 1.384 . S
N862 C858 1.427 . S
N862 C859 1.384 . S
N863 C855 1.427 . S
N863 C861 1.384 . S
H864 C870 0.930 . S
H865 C874 0.930 . S
H866 C879 0.929 . S
H867 C877 0.929 . S
H868 C872 0.929 . S
H869 C878 0.929 . S
C870 H864 0.930 . S
C870 C871 1.367 . S
C870 C878 1.378 . S
C871 C870 1.367 . S
C871 C879 1.433 . S
C872 H868 0.929 . S
C872 C874 1.378 . S
C872 C876 1.350 . S
C873 C876 1.463 1_556 S
C873 C878 1.350 . S
C873 N881 1.427 . S
C874 H865 0.930 . S
C874 C872 1.378 . S
C874 C875 1.367 . S
C875 C874 1.367 . S
C875 C877 1.433 . S
C876 C872 1.350 . S
C876 C873 1.463 1_554 S
C876 N880 1.427 . S
C877 H867 0.929 . S
C877 C875 1.433 . S
C877 N880 1.384 . S
C878 H869 0.929 . S
C878 C870 1.378 . S
C878 C873 1.350 . S
C879 H866 0.929 . S
C879 C871 1.433 . S
C879 N881 1.384 . S
N880 C876 1.427 . S
N880 C877 1.384 . S
N881 C873 1.427 . S
N881 C879 1.384 . S
H882 C888 0.930 . S
H883 C892 0.930 . S
H884 C897 0.929 . S
H885 C895 0.929 . S
H886 C890 0.875 1_565 S
H887 C896 0.875 1_545 S
C888 H882 0.930 . S
C888 C889 1.367 . S
C888 C896 1.406 . S
C889 C888 1.367 . S
C889 C897 1.433 . S
C890 H886 0.875 1_545 S
C890 C892 1.405 . S
C890 C894 1.378 . S
C891 C894 1.463 1_566 S
C891 C896 1.378 . S
C891 N899 1.427 . S
C892 H883 0.930 . S
C892 C890 1.405 . S
C892 C893 1.367 . S
C893 C892 1.367 . S
C893 C895 1.433 . S
C894 C890 1.378 . S
C894 C891 1.463 1_544 S
C894 N898 1.427 . S
C895 H885 0.929 . S
C895 C893 1.433 . S
C895 N898 1.384 . S
C896 H887 0.875 1_565 S
C896 C888 1.406 . S
C896 C891 1.378 . S
C897 H884 0.929 . S
C897 C889 1.433 . S
C897 N899 1.384 . S
N898 C894 1.427 . S
N898 C895 1.384 . S
N899 C891 1.427 . S
N899 C897 1.384 . S
H900 C906 0.930 . S
H901 C910 0.930 . S
H902 C915 0.929 . S
H903 C913 0.929 . S
H904 C908 0.929 1_556 S
H905 C914 0.929 1_554 S
C906 H900 0.930 . S
C906 C907 1.367 . S
C906 C914 1.378 . S
C907 C906 1.367 . S
C907 C915 1.433 . S
C908 H904 0.929 1_554 S
C908 C910 1.378 . S
C908 C912 1.350 . S
C909 C912 1.463 1_456 S
C909 C914 1.350 . S
C909 N917 1.427 1_455 S
C910 H901 0.930 . S
C910 C908 1.378 . S
C910 C911 1.367 . S
C911 C910 1.367 . S
C911 C913 1.433 . S
C912 C908 1.350 . S
C912 C909 1.463 1_654 S
C912 N916 1.427 1_655 S
C913 H903 0.929 . S
C913 C911 1.433 . S
C913 N916 1.384 1_655 S
C914 H905 0.929 1_556 S
C914 C906 1.378 . S
C914 C909 1.350 . S
C915 H902 0.929 . S
C915 C907 1.433 . S
C915 N917 1.384 1_455 S
N916 C912 1.427 1_455 S
N916 C913 1.384 1_455 S
N917 C909 1.427 1_655 S
N917 C915 1.384 1_655 S
H918 C924 0.930 . S
H919 C928 0.930 . S
H920 C933 0.929 . S
H921 C931 0.929 . S
H922 C926 0.929 . S
H923 C932 0.929 . S
C924 H918 0.930 . S
C924 C925 1.367 . S
C924 C932 1.378 . S
C925 C924 1.367 . S
C925 C933 1.433 . S
C926 H922 0.929 . S
C926 C928 1.378 . S
C926 C930 1.350 . S
C927 C930 1.463 1_554 S
C927 C932 1.350 . S
C927 N935 1.427 . S
C928 H919 0.930 . S
C928 C926 1.378 . S
C928 C929 1.367 . S
C929 C928 1.367 . S
C929 C931 1.433 . S
C930 C926 1.350 . S
C930 C927 1.463 1_556 S
C930 N934 1.427 . S
C931 H921 0.929 . S
C931 C929 1.433 . S
C931 N934 1.384 . S
C932 H923 0.929 . S
C932 C924 1.378 . S
C932 C927 1.350 . S
C933 H920 0.929 . S
C933 C925 1.433 . S
C933 N935 1.384 . S
N934 C930 1.427 . S
N934 C931 1.384 . S
N935 C927 1.427 . S
N935 C933 1.384 . S
H936 C942 0.930 . S
H937 C946 0.930 . S
H938 C951 0.929 . S
H939 C949 0.929 . S
H940 C944 0.929 . S
H941 C950 0.929 . S
C942 H936 0.930 . S
C942 C943 1.367 . S
C942 C950 1.378 . S
C943 C942 1.367 . S
C943 C951 1.433 . S
C944 H940 0.929 . S
C944 C946 1.378 . S
C944 C948 1.350 . S
C945 C948 1.463 . S
C945 C950 1.350 . S
C945 N953 1.427 . S
C946 H937 0.930 . S
C946 C944 1.378 . S
C946 C947 1.367 . S
C947 C946 1.367 . S
C947 C949 1.433 . S
C948 C944 1.350 . S
C948 C945 1.463 . S
C948 N952 1.427 . S
C949 H939 0.929 . S
C949 C947 1.433 . S
C949 N952 1.384 . S
C950 H941 0.929 . S
C950 C942 1.378 . S
C950 C945 1.350 . S
C951 H938 0.929 . S
C951 C943 1.433 . S
C951 N953 1.384 . S
N952 C948 1.427 . S
N952 C949 1.384 . S
N953 C945 1.427 . S
N953 C951 1.384 . S
H954 C960 0.930 . S
H955 C964 0.930 . S
H956 C969 0.929 . S
H957 C967 0.929 . S
H958 C962 0.929 . S
H959 C968 0.929 . S
C960 H954 0.930 . S
C960 C961 1.367 . S
C960 C968 1.378 . S
C961 C960 1.367 . S
C961 C969 1.433 . S
C962 H958 0.929 . S
C962 C964 1.378 . S
C962 C966 1.350 . S
C963 C966 1.463 . S
C963 C968 1.350 . S
C963 N971 1.427 . S
C964 H955 0.930 . S
C964 C962 1.378 . S
C964 C965 1.367 . S
C965 C964 1.367 . S
C965 C967 1.433 . S
C966 C962 1.350 . S
C966 C963 1.463 . S
C966 N970 1.427 . S
C967 H957 0.929 . S
C967 C965 1.433 . S
C967 N970 1.384 . S
C968 H959 0.929 . S
C968 C960 1.378 . S
C968 C963 1.350 . S
C969 H956 0.929 . S
C969 C961 1.433 . S
C969 N971 1.384 . S
N970 C966 1.427 . S
N970 C967 1.384 . S
N971 C963 1.427 . S
N971 C969 1.384 . S
H972 C978 0.930 . S
H973 C982 0.930 . S
H974 C987 0.929 . S
H975 C985 0.929 . S
H976 C980 0.929 . S
H977 C986 0.929 . S
C978 H972 0.930 . S
C978 C979 1.367 . S
C978 C986 1.378 . S
C979 C978 1.367 . S
C979 C987 1.433 . S
C980 H976 0.929 . S
C980 C982 1.378 . S
C980 C984 1.350 . S
C981 C984 1.463 . S
C981 C986 1.350 . S
C981 N989 1.427 . S
C982 H973 0.930 . S
C982 C980 1.378 . S
C982 C983 1.367 . S
C983 C982 1.367 . S
C983 C985 1.433 . S
C984 C980 1.350 . S
C984 C981 1.463 . S
C984 N988 1.427 . S
C985 H975 0.929 . S
C985 C983 1.433 . S
C985 N988 1.384 . S
C986 H977 0.929 . S
C986 C978 1.378 . S
C986 C981 1.350 . S
C987 H974 0.929 . S
C987 C979 1.433 . S
C987 N989 1.384 . S
N988 C984 1.427 . S
N988 C985 1.384 . S
N989 C981 1.427 . S
N989 C987 1.384 . S
H990 C996 0.930 . S
H991 C1000 0.930 . S
H992 C1005 0.929 . S
H993 C1003 0.929 . S
H994 C998 0.929 . S
H995 C1004 0.929 . S
C996 H990 0.930 . S
C996 C997 1.367 . S
C996 C1004 1.378 . S
C997 C996 1.367 . S
C997 C1005 1.433 . S
C998 H994 0.929 . S
C998 C1000 1.378 . S
C998 C1002 1.350 . S
C999 C1002 1.463 . S
C999 C1004 1.350 . S
C999 N1007 1.427 . S
C1000 H991 0.930 . S
C1000 C998 1.378 . S
C1000 C1001 1.367 . S
C1001 C1000 1.367 . S
C1001 C1003 1.433 . S
C1002 C998 1.350 . S
C1002 C999 1.463 . S
C1002 N1006 1.427 . S
C1003 H993 0.929 . S
C1003 C1001 1.433 . S
C1003 N1006 1.384 . S
C1004 H995 0.929 . S
C1004 C996 1.378 . S
C1004 C999 1.350 . S
C1005 H992 0.929 . S
C1005 C997 1.433 . S
C1005 N1007 1.384 . S
N1006 C1002 1.427 . S
N1006 C1003 1.384 . S
N1007 C999 1.427 . S
N1007 C1005 1.384 . S
H1008 C1014 0.930 . S
H1009 C1018 0.930 . S
H1010 C1023 0.929 . S
H1011 C1021 0.929 . S
H1012 C1016 0.929 . S
H1013 C1022 0.929 . S
C1014 H1008 0.930 . S
C1014 C1015 1.367 . S
C1014 C1022 1.378 . S
C1015 C1014 1.367 . S
C1015 C1023 1.433 . S
C1016 H1012 0.929 . S
C1016 C1018 1.378 . S
C1016 C1020 1.350 . S
C1017 C1020 1.463 . S
C1017 C1022 1.350 . S
C1017 N1025 1.427 . S
C1018 H1009 0.930 . S
C1018 C1016 1.378 . S
C1018 C1019 1.367 . S
C1019 C1018 1.367 . S
C1019 C1021 1.433 . S
C1020 C1016 1.350 . S
C1020 C1017 1.463 . S
C1020 N1024 1.427 . S
C1021 H1011 0.929 . S
C1021 C1019 1.433 . S
C1021 N1024 1.384 . S
C1022 H1013 0.929 . S
C1022 C1014 1.378 . S
C1022 C1017 1.350 . S
C1023 H1010 0.929 . S
C1023 C1015 1.433 . S
C1023 N1025 1.384 . S
N1024 C1020 1.427 . S
N1024 C1021 1.384 . S
N1025 C1017 1.427 . S
N1025 C1023 1.384 . S
H1026 C1032 0.930 . S
H1027 C1036 0.930 . S
H1028 C1041 0.929 . S
H1029 C1039 0.929 . S
H1030 C1034 0.929 . S
H1031 C1040 0.929 . S
C1032 H1026 0.930 . S
C1032 C1033 1.367 . S
C1032 C1040 1.378 . S
C1033 C1032 1.367 . S
C1033 C1041 1.433 . S
C1034 H1030 0.929 . S
C1034 C1036 1.378 . S
C1034 C1038 1.350 . S
C1035 C1038 1.463 . S
C1035 C1040 1.350 . S
C1035 N1043 1.427 . S
C1036 H1027 0.930 . S
C1036 C1034 1.378 . S
C1036 C1037 1.367 . S
C1037 C1036 1.367 . S
C1037 C1039 1.433 . S
C1038 C1034 1.350 . S
C1038 C1035 1.463 . S
C1038 N1042 1.427 . S
C1039 H1029 0.929 . S
C1039 C1037 1.433 . S
C1039 N1042 1.384 . S
C1040 H1031 0.929 . S
C1040 C1032 1.378 . S
C1040 C1035 1.350 . S
C1041 H1028 0.929 . S
C1041 C1033 1.433 . S
C1041 N1043 1.384 . S
N1042 C1038 1.427 . S
N1042 C1039 1.384 . S
N1043 C1035 1.427 . S
N1043 C1041 1.384 . S
H1044 C1050 0.930 . S
H1045 C1054 0.930 . S
H1046 C1059 0.929 . S
H1047 C1057 0.929 . S
H1048 C1052 0.929 . S
H1049 C1058 0.929 . S
C1050 H1044 0.930 . S
C1050 C1051 1.367 . S
C1050 C1058 1.378 . S
C1051 C1050 1.367 . S
C1051 C1059 1.433 . S
C1052 H1048 0.929 . S
C1052 C1054 1.378 . S
C1052 C1056 1.350 . S
C1053 C1056 1.463 . S
C1053 C1058 1.350 . S
C1053 N1061 1.427 . S
C1054 H1045 0.930 . S
C1054 C1052 1.378 . S
C1054 C1055 1.367 . S
C1055 C1054 1.367 . S
C1055 C1057 1.433 . S
C1056 C1052 1.350 . S
C1056 C1053 1.463 . S
C1056 N1060 1.427 . S
C1057 H1047 0.929 . S
C1057 C1055 1.433 . S
C1057 N1060 1.384 . S
C1058 H1049 0.929 . S
C1058 C1050 1.378 . S
C1058 C1053 1.350 . S
C1059 H1046 0.929 . S
C1059 C1051 1.433 . S
C1059 N1061 1.384 . S
N1060 C1056 1.427 . S
N1060 C1057 1.384 . S
N1061 C1053 1.427 . S
N1061 C1059 1.384 . S
H1062 C1068 0.930 . S
H1063 C1072 0.930 . S
H1064 C1077 0.929 . S
H1065 C1075 0.929 . S
H1066 C1070 0.929 . S
H1067 C1076 0.929 . S
C1068 H1062 0.930 . S
C1068 C1069 1.367 . S
C1068 C1076 1.378 . S
C1069 C1068 1.367 . S
C1069 C1077 1.433 . S
C1070 H1066 0.929 . S
C1070 C1072 1.378 . S
C1070 C1074 1.350 . S
C1071 C1074 1.463 . S
C1071 C1076 1.350 . S
C1071 N1079 1.427 . S
C1072 H1063 0.930 . S
C1072 C1070 1.378 . S
C1072 C1073 1.367 . S
C1073 C1072 1.367 . S
C1073 C1075 1.433 . S
C1074 C1070 1.350 . S
C1074 C1071 1.463 . S
C1074 N1078 1.427 . S
C1075 H1065 0.929 . S
C1075 C1073 1.433 . S
C1075 N1078 1.384 . S
C1076 H1067 0.929 . S
C1076 C1068 1.378 . S
C1076 C1071 1.350 . S
C1077 H1064 0.929 . S
C1077 C1069 1.433 . S
C1077 N1079 1.384 . S
N1078 C1074 1.427 . S
N1078 C1075 1.384 . S
N1079 C1071 1.427 . S
N1079 C1077 1.384 . S
H1080 C1086 0.930 . S
H1081 C1090 0.930 . S
H1082 C1095 0.929 . S
H1083 C1093 0.929 . S
H1084 C1088 0.929 . S
H1085 C1094 0.929 . S
C1086 H1080 0.930 . S
C1086 C1087 1.367 . S
C1086 C1094 1.378 . S
C1087 C1086 1.367 . S
C1087 C1095 1.433 . S
C1088 H1084 0.929 . S
C1088 C1090 1.378 . S
C1088 C1092 1.350 . S
C1089 C1092 1.463 . S
C1089 C1094 1.350 . S
C1089 N1097 1.427 . S
C1090 H1081 0.930 . S
C1090 C1088 1.378 . S
C1090 C1091 1.367 . S
C1091 C1090 1.367 . S
C1091 C1093 1.433 . S
C1092 C1088 1.350 . S
C1092 C1089 1.463 . S
C1092 N1096 1.427 . S
C1093 H1083 0.929 . S
C1093 C1091 1.433 . S
C1093 N1096 1.384 . S
C1094 H1085 0.929 . S
C1094 C1086 1.378 . S
C1094 C1089 1.350 . S
C1095 H1082 0.929 . S
C1095 C1087 1.433 . S
C1095 N1097 1.384 . S
N1096 C1092 1.427 . S
N1096 C1093 1.384 . S
N1097 C1089 1.427 . S
N1097 C1095 1.384 . S
H1098 C1104 0.930 . S
H1099 C1108 0.930 . S
H1100 C1113 0.929 . S
H1101 C1111 0.929 . S
H1102 C1106 0.929 . S
H1103 C1112 0.929 . S
C1104 H1098 0.930 . S
C1104 C1105 1.367 . S
C1104 C1112 1.378 . S
C1105 C1104 1.367 . S
C1105 C1113 1.433 . S
C1106 H1102 0.929 . S
C1106 C1108 1.378 . S
C1106 C1110 1.350 . S
C1107 C1110 1.463 . S
C1107 C1112 1.350 . S
C1107 N1115 1.427 . S
C1108 H1099 0.930 . S
C1108 C1106 1.378 . S
C1108 C1109 1.367 . S
C1109 C1108 1.367 . S
C1109 C1111 1.433 . S
C1110 C1106 1.350 . S
C1110 C1107 1.463 . S
C1110 N1114 1.427 . S
C1111 H1101 0.929 . S
C1111 C1109 1.433 . S
C1111 N1114 1.384 . S
C1112 H1103 0.929 . S
C1112 C1104 1.378 . S
C1112 C1107 1.350 . S
C1113 H1100 0.929 . S
C1113 C1105 1.433 . S
C1113 N1115 1.384 . S
N1114 C1110 1.427 . S
N1114 C1111 1.384 . S
N1115 C1107 1.427 . S
N1115 C1113 1.384 . S
H1116 C1122 0.930 . S
H1117 C1126 0.930 . S
H1118 C1131 0.929 . S
H1119 C1129 0.929 . S
H1120 C1124 0.929 . S
H1121 C1130 0.929 . S
C1122 H1116 0.930 . S
C1122 C1123 1.367 . S
C1122 C1130 1.378 . S
C1123 C1122 1.367 . S
C1123 C1131 1.433 . S
C1124 H1120 0.929 . S
C1124 C1126 1.378 . S
C1124 C1128 1.350 . S
C1125 C1128 1.463 . S
C1125 C1130 1.350 . S
C1125 N1133 1.427 . S
C1126 H1117 0.930 . S
C1126 C1124 1.378 . S
C1126 C1127 1.367 . S
C1127 C1126 1.367 . S
C1127 C1129 1.433 . S
C1128 C1124 1.350 . S
C1128 C1125 1.463 . S
C1128 N1132 1.427 . S
C1129 H1119 0.929 . S
C1129 C1127 1.433 . S
C1129 N1132 1.384 . S
C1130 H1121 0.929 . S
C1130 C1122 1.378 . S
C1130 C1125 1.350 . S
C1131 H1118 0.929 . S
C1131 C1123 1.433 . S
C1131 N1133 1.384 . S
N1132 C1128 1.427 . S
N1132 C1129 1.384 . S
N1133 C1125 1.427 . S
N1133 C1131 1.384 . S
H1134 C1140 0.930 . S
H1135 C1144 0.930 . S
H1136 C1149 0.929 . S
H1137 C1147 0.929 . S
H1138 C1142 0.929 . S
H1139 C1148 0.929 . S
C1140 H1134 0.930 . S
C1140 C1141 1.367 . S
C1140 C1148 1.378 . S
C1141 C1140 1.367 . S
C1141 C1149 1.433 . S
C1142 H1138 0.929 . S
C1142 C1144 1.378 . S
C1142 C1146 1.350 . S
C1143 C1146 1.463 . S
C1143 C1148 1.350 . S
C1143 N1151 1.427 . S
C1144 H1135 0.930 . S
C1144 C1142 1.378 . S
C1144 C1145 1.367 . S
C1145 C1144 1.367 . S
C1145 C1147 1.433 . S
C1146 C1142 1.350 . S
C1146 C1143 1.463 . S
C1146 N1150 1.427 . S
C1147 H1137 0.929 . S
C1147 C1145 1.433 . S
C1147 N1150 1.384 . S
C1148 H1139 0.929 . S
C1148 C1140 1.378 . S
C1148 C1143 1.350 . S
C1149 H1136 0.929 . S
C1149 C1141 1.433 . S
C1149 N1151 1.384 . S
N1150 C1146 1.427 . S
N1150 C1147 1.384 . S
N1151 C1143 1.427 . S
N1151 C1149 1.384 . S
H1152 C1158 0.930 . S
H1153 C1162 0.930 . S
H1154 C1167 0.929 . S
H1155 C1165 0.929 . S
H1156 C1160 0.929 . S
H1157 C1166 0.929 . S
C1158 H1152 0.930 . S
C1158 C1159 1.367 . S
C1158 C1166 1.378 . S
C1159 C1158 1.367 . S
C1159 C1167 1.433 . S
C1160 H1156 0.929 . S
C1160 C1162 1.378 . S
C1160 C1164 1.350 . S
C1161 C1164 1.463 . S
C1161 C1166 1.350 . S
C1161 N1169 1.427 . S
C1162 H1153 0.930 . S
C1162 C1160 1.378 . S
C1162 C1163 1.367 . S
C1163 C1162 1.367 . S
C1163 C1165 1.433 . S
C1164 C1160 1.350 . S
C1164 C1161 1.463 . S
C1164 N1168 1.427 . S
C1165 H1155 0.929 . S
C1165 C1163 1.433 . S
C1165 N1168 1.384 . S
C1166 H1157 0.929 . S
C1166 C1158 1.378 . S
C1166 C1161 1.350 . S
C1167 H1154 0.929 . S
C1167 C1159 1.433 . S
C1167 N1169 1.384 . S
N1168 C1164 1.427 . S
N1168 C1165 1.384 . S
N1169 C1161 1.427 . S
N1169 C1167 1.384 . S
H1170 C1176 0.930 . S
H1171 C1180 0.930 . S
H1172 C1185 0.929 . S
H1173 C1183 0.929 . S
H1174 C1178 0.929 . S
H1175 C1184 0.929 . S
C1176 H1170 0.930 . S
C1176 C1177 1.367 . S
C1176 C1184 1.378 . S
C1177 C1176 1.367 . S
C1177 C1185 1.433 . S
C1178 H1174 0.929 . S
C1178 C1180 1.378 . S
C1178 C1182 1.350 . S
C1179 C1182 1.463 . S
C1179 C1184 1.350 . S
C1179 N1187 1.427 . S
C1180 H1171 0.930 . S
C1180 C1178 1.378 . S
C1180 C1181 1.367 . S
C1181 C1180 1.367 . S
C1181 C1183 1.433 . S
C1182 C1178 1.350 . S
C1182 C1179 1.463 . S
C1182 N1186 1.427 . S
C1183 H1173 0.929 . S
C1183 C1181 1.433 . S
C1183 N1186 1.384 . S
C1184 H1175 0.929 . S
C1184 C1176 1.378 . S
C1184 C1179 1.350 . S
C1185 H1172 0.929 . S
C1185 C1177 1.433 . S
C1185 N1187 1.384 . S
N1186 C1182 1.427 . S
N1186 C1183 1.384 . S
N1187 C1179 1.427 . S
N1187 C1185 1.384 . S
H1188 C1194 0.930 . S
H1189 C1198 0.930 . S
H1190 C1203 0.929 . S
H1191 C1201 0.929 . S
H1192 C1196 0.929 . S
H1193 C1202 0.929 . S
C1194 H1188 0.930 . S
C1194 C1195 1.367 . S
C1194 C1202 1.378 . S
C1195 C1194 1.367 . S
C1195 C1203 1.433 . S
C1196 H1192 0.929 . S
C1196 C1198 1.378 . S
C1196 C1200 1.350 . S
C1197 C1200 1.463 . S
C1197 C1202 1.350 . S
C1197 N1205 1.427 . S
C1198 H1189 0.930 . S
C1198 C1196 1.378 . S
C1198 C1199 1.367 . S
C1199 C1198 1.367 . S
C1199 C1201 1.433 . S
C1200 C1196 1.350 . S
C1200 C1197 1.463 . S
C1200 N1204 1.427 . S
C1201 H1191 0.929 . S
C1201 C1199 1.433 . S
C1201 N1204 1.384 . S
C1202 H1193 0.929 . S
C1202 C1194 1.378 . S
C1202 C1197 1.350 . S
C1203 H1190 0.929 . S
C1203 C1195 1.433 . S
C1203 N1205 1.384 . S
N1204 C1200 1.427 . S
N1204 C1201 1.384 . S
N1205 C1197 1.427 . S
N1205 C1203 1.384 . S
H1206 C1212 0.930 . S
H1207 C1216 0.930 . S
H1208 C1221 0.929 . S
H1209 C1219 0.929 . S
H1210 C1214 0.929 . S
H1211 C1220 0.929 . S
C1212 H1206 0.930 . S
C1212 C1213 1.367 . S
C1212 C1220 1.378 . S
C1213 C1212 1.367 . S
C1213 C1221 1.433 . S
C1214 H1210 0.929 . S
C1214 C1216 1.378 . S
C1214 C1218 1.350 . S
C1215 C1218 1.463 . S
C1215 C1220 1.350 . S
C1215 N1223 1.427 . S
C1216 H1207 0.930 . S
C1216 C1214 1.378 . S
C1216 C1217 1.367 . S
C1217 C1216 1.367 . S
C1217 C1219 1.433 . S
C1218 C1214 1.350 . S
C1218 C1215 1.463 . S
C1218 N1222 1.427 . S
C1219 H1209 0.929 . S
C1219 C1217 1.433 . S
C1219 N1222 1.384 . S
C1220 H1211 0.929 . S
C1220 C1212 1.378 . S
C1220 C1215 1.350 . S
C1221 H1208 0.929 . S
C1221 C1213 1.433 . S
C1221 N1223 1.384 . S
N1222 C1218 1.427 . S
N1222 C1219 1.384 . S
N1223 C1215 1.427 . S
N1223 C1221 1.384 . S
H1224 C1230 0.930 . S
H1225 C1234 0.930 . S
H1226 C1239 0.929 . S
H1227 C1237 0.929 . S
H1228 C1232 0.929 . S
H1229 C1238 0.929 . S
C1230 H1224 0.930 . S
C1230 C1231 1.367 . S
C1230 C1238 1.378 . S
C1231 C1230 1.367 . S
C1231 C1239 1.433 . S
C1232 H1228 0.929 . S
C1232 C1234 1.378 . S
C1232 C1236 1.350 . S
C1233 C1236 1.463 . S
C1233 C1238 1.350 . S
C1233 N1241 1.427 . S
C1234 H1225 0.930 . S
C1234 C1232 1.378 . S
C1234 C1235 1.367 . S
C1235 C1234 1.367 . S
C1235 C1237 1.433 . S
C1236 C1232 1.350 . S
C1236 C1233 1.463 . S
C1236 N1240 1.427 . S
C1237 H1227 0.929 . S
C1237 C1235 1.433 . S
C1237 N1240 1.384 . S
C1238 H1229 0.929 . S
C1238 C1230 1.378 . S
C1238 C1233 1.350 . S
C1239 H1226 0.929 . S
C1239 C1231 1.433 . S
C1239 N1241 1.384 . S
N1240 C1236 1.427 . S
N1240 C1237 1.384 . S
N1241 C1233 1.427 . S
N1241 C1239 1.384 . S
H1242 C1248 0.930 . S
H1243 C1252 0.930 . S
H1244 C1257 0.929 . S
H1245 C1255 0.929 . S
H1246 C1250 0.929 . S
H1247 C1256 0.929 . S
C1248 H1242 0.930 . S
C1248 C1249 1.367 . S
C1248 C1256 1.378 . S
C1249 C1248 1.367 . S
C1249 C1257 1.433 . S
C1250 H1246 0.929 . S
C1250 C1252 1.378 . S
C1250 C1254 1.350 . S
C1251 C1254 1.463 . S
C1251 C1256 1.350 . S
C1251 N1259 1.427 . S
C1252 H1243 0.930 . S
C1252 C1250 1.378 . S
C1252 C1253 1.367 . S
C1253 C1252 1.367 . S
C1253 C1255 1.433 . S
C1254 C1250 1.350 . S
C1254 C1251 1.463 . S
C1254 N1258 1.427 . S
C1255 H1245 0.929 . S
C1255 C1253 1.433 . S
C1255 N1258 1.384 . S
C1256 H1247 0.929 . S
C1256 C1248 1.378 . S
C1256 C1251 1.350 . S
C1257 H1244 0.929 . S
C1257 C1249 1.433 . S
C1257 N1259 1.384 . S
N1258 C1254 1.427 . S
N1258 C1255 1.384 . S
N1259 C1251 1.427 . S
N1259 C1257 1.384 . S
H1260 C1266 0.930 . S
H1261 C1270 0.930 . S
H1262 C1275 0.929 . S
H1263 C1273 0.929 . S
H1264 C1268 0.929 . S
H1265 C1274 0.929 . S
C1266 H1260 0.930 . S
C1266 C1267 1.367 . S
C1266 C1274 1.378 . S
C1267 C1266 1.367 . S
C1267 C1275 1.433 . S
C1268 H1264 0.929 . S
C1268 C1270 1.378 . S
C1268 C1272 1.350 . S
C1269 C1272 1.463 . S
C1269 C1274 1.350 . S
C1269 N1277 1.427 . S
C1270 H1261 0.930 . S
C1270 C1268 1.378 . S
C1270 C1271 1.367 . S
C1271 C1270 1.367 . S
C1271 C1273 1.433 . S
C1272 C1268 1.350 . S
C1272 C1269 1.463 . S
C1272 N1276 1.427 . S
C1273 H1263 0.929 . S
C1273 C1271 1.433 . S
C1273 N1276 1.384 . S
C1274 H1265 0.929 . S
C1274 C1266 1.378 . S
C1274 C1269 1.350 . S
C1275 H1262 0.929 . S
C1275 C1267 1.433 . S
C1275 N1277 1.384 . S
N1276 C1272 1.427 . S
N1276 C1273 1.384 . S
N1277 C1269 1.427 . S
N1277 C1275 1.384 . S
H1278 C1284 0.930 . S
H1279 C1288 0.930 . S
H1280 C1293 0.929 . S
H1281 C1291 0.929 . S
H1282 C1286 0.929 . S
H1283 C1292 0.929 . S
C1284 H1278 0.930 . S
C1284 C1285 1.367 . S
C1284 C1292 1.378 . S
C1285 C1284 1.367 . S
C1285 C1293 1.433 . S
C1286 H1282 0.929 . S
C1286 C1288 1.378 . S
C1286 C1290 1.350 . S
C1287 C1290 1.463 . S
C1287 C1292 1.350 . S
C1287 N1295 1.427 . S
C1288 H1279 0.930 . S
C1288 C1286 1.378 . S
C1288 C1289 1.367 . S
C1289 C1288 1.367 . S
C1289 C1291 1.433 . S
C1290 C1286 1.350 . S
C1290 C1287 1.463 . S
C1290 N1294 1.427 . S
C1291 H1281 0.929 . S
C1291 C1289 1.433 . S
C1291 N1294 1.384 . S
C1292 H1283 0.929 . S
C1292 C1284 1.378 . S
C1292 C1287 1.350 . S
C1293 H1280 0.929 . S
C1293 C1285 1.433 . S
C1293 N1295 1.384 . S
N1294 C1290 1.427 . S
N1294 C1291 1.384 . S
N1295 C1287 1.427 . S
N1295 C1293 1.384 . S
H1296 C1302 0.930 . S
H1297 C1306 0.930 . S
H1298 C1311 0.929 . S
H1299 C1309 0.929 . S
H1300 C1304 0.929 . S
H1301 C1310 0.929 . S
C1302 H1296 0.930 . S
C1302 C1303 1.367 . S
C1302 C1310 1.378 . S
C1303 C1302 1.367 . S
C1303 C1311 1.433 . S
C1304 H1300 0.929 . S
C1304 C1306 1.378 . S
C1304 C1308 1.350 . S
C1305 C1308 1.463 . S
C1305 C1310 1.350 . S
C1305 N1313 1.427 . S
C1306 H1297 0.930 . S
C1306 C1304 1.378 . S
C1306 C1307 1.367 . S
C1307 C1306 1.367 . S
C1307 C1309 1.433 . S
C1308 C1304 1.350 . S
C1308 C1305 1.463 . S
C1308 N1312 1.427 . S
C1309 H1299 0.929 . S
C1309 C1307 1.433 . S
C1309 N1312 1.384 . S
C1310 H1301 0.929 . S
C1310 C1302 1.378 . S
C1310 C1305 1.350 . S
C1311 H1298 0.929 . S
C1311 C1303 1.433 . S
C1311 N1313 1.384 . S
N1312 C1308 1.427 . S
N1312 C1309 1.384 . S
N1313 C1305 1.427 . S
N1313 C1311 1.384 . S
H1314 C1320 0.930 . S
H1315 C1324 0.930 . S
H1316 C1329 0.929 . S
H1317 C1327 0.929 . S
H1318 C1322 0.929 . S
H1319 C1328 0.929 . S
C1320 H1314 0.930 . S
C1320 C1321 1.367 . S
C1320 C1328 1.378 . S
C1321 C1320 1.367 . S
C1321 C1329 1.433 . S
C1322 H1318 0.929 . S
C1322 C1324 1.378 . S
C1322 C1326 1.350 . S
C1323 C1326 1.463 . S
C1323 C1328 1.350 . S
C1323 N1331 1.427 . S
C1324 H1315 0.930 . S
C1324 C1322 1.378 . S
C1324 C1325 1.367 . S
C1325 C1324 1.367 . S
C1325 C1327 1.433 . S
C1326 C1322 1.350 . S
C1326 C1323 1.463 . S
C1326 N1330 1.427 . S
C1327 H1317 0.929 . S
C1327 C1325 1.433 . S
C1327 N1330 1.384 . S
C1328 H1319 0.929 . S
C1328 C1320 1.378 . S
C1328 C1323 1.350 . S
C1329 H1316 0.929 . S
C1329 C1321 1.433 . S
C1329 N1331 1.384 . S
N1330 C1326 1.427 . S
N1330 C1327 1.384 . S
N1331 C1323 1.427 . S
N1331 C1329 1.384 . S
H1332 C1338 0.930 . S
H1333 C1342 0.930 . S
H1334 C1347 0.929 . S
H1335 C1345 0.929 . S
H1336 C1340 0.929 . S
H1337 C1346 0.929 . S
C1338 H1332 0.930 . S
C1338 C1339 1.367 . S
C1338 C1346 1.378 . S
C1339 C1338 1.367 . S
C1339 C1347 1.433 . S
C1340 H1336 0.929 . S
C1340 C1342 1.378 . S
C1340 C1344 1.350 . S
C1341 C1344 1.463 . S
C1341 C1346 1.350 . S
C1341 N1349 1.427 . S
C1342 H1333 0.930 . S
C1342 C1340 1.378 . S
C1342 C1343 1.367 . S
C1343 C1342 1.367 . S
C1343 C1345 1.433 . S
C1344 C1340 1.350 . S
C1344 C1341 1.463 . S
C1344 N1348 1.427 . S
C1345 H1335 0.929 . S
C1345 C1343 1.433 . S
C1345 N1348 1.384 . S
C1346 H1337 0.929 . S
C1346 C1338 1.378 . S
C1346 C1341 1.350 . S
C1347 H1334 0.929 . S
C1347 C1339 1.433 . S
C1347 N1349 1.384 . S
N1348 C1344 1.427 . S
N1348 C1345 1.384 . S
N1349 C1341 1.427 . S
N1349 C1347 1.384 . S
H1350 C1356 0.930 . S
H1351 C1360 0.930 . S
H1352 C1365 0.929 . S
H1353 C1363 0.929 . S
H1354 C1358 0.929 . S
H1355 C1364 0.929 . S
C1356 H1350 0.930 . S
C1356 C1357 1.367 . S
C1356 C1364 1.378 . S
C1357 C1356 1.367 . S
C1357 C1365 1.433 . S
C1358 H1354 0.929 . S
C1358 C1360 1.378 . S
C1358 C1362 1.350 . S
C1359 C1362 1.463 . S
C1359 C1364 1.350 . S
C1359 N1367 1.427 . S
C1360 H1351 0.930 . S
C1360 C1358 1.378 . S
C1360 C1361 1.367 . S
C1361 C1360 1.367 . S
C1361 C1363 1.433 . S
C1362 C1358 1.350 . S
C1362 C1359 1.463 . S
C1362 N1366 1.427 . S
C1363 H1353 0.929 . S
C1363 C1361 1.433 . S
C1363 N1366 1.384 . S
C1364 H1355 0.929 . S
C1364 C1356 1.378 . S
C1364 C1359 1.350 . S
C1365 H1352 0.929 . S
C1365 C1357 1.433 . S
C1365 N1367 1.384 . S
N1366 C1362 1.427 . S
N1366 C1363 1.384 . S
N1367 C1359 1.427 . S
N1367 C1365 1.384 . S
H1368 C1374 0.930 . S
H1369 C1378 0.930 . S
H1370 C1383 0.929 . S
H1371 C1381 0.929 . S
H1372 C1376 0.929 . S
H1373 C1382 0.929 . S
C1374 H1368 0.930 . S
C1374 C1375 1.367 . S
C1374 C1382 1.378 . S
C1375 C1374 1.367 . S
C1375 C1383 1.433 . S
C1376 H1372 0.929 . S
C1376 C1378 1.378 . S
C1376 C1380 1.350 . S
C1377 C1380 1.463 1_455 S
C1377 C1382 1.350 . S
C1377 N1385 1.427 . S
C1378 H1369 0.930 . S
C1378 C1376 1.378 . S
C1378 C1379 1.367 . S
C1379 C1378 1.367 . S
C1379 C1381 1.433 . S
C1380 C1376 1.350 . S
C1380 C1377 1.463 1_655 S
C1380 N1384 1.427 . S
C1381 H1371 0.929 . S
C1381 C1379 1.433 . S
C1381 N1384 1.384 . S
C1382 H1373 0.929 . S
C1382 C1374 1.378 . S
C1382 C1377 1.350 . S
C1383 H1370 0.929 . S
C1383 C1375 1.433 . S
C1383 N1385 1.384 . S
N1384 C1380 1.427 . S
N1384 C1381 1.384 . S
N1385 C1377 1.427 . S
N1385 C1383 1.384 . S
H1386 C1392 0.930 . S
H1387 C1396 0.930 . S
H1388 C1401 0.929 . S
H1389 C1399 0.929 . S
H1390 C1394 0.929 . S
H1391 C1400 0.929 . S
C1392 H1386 0.930 . S
C1392 C1393 1.367 . S
C1392 C1400 1.378 . S
C1393 C1392 1.367 . S
C1393 C1401 1.433 . S
C1394 H1390 0.929 . S
C1394 C1396 1.378 . S
C1394 C1398 1.350 . S
C1395 C1398 1.463 . S
C1395 C1400 1.350 . S
C1395 N1403 1.427 . S
C1396 H1387 0.930 . S
C1396 C1394 1.378 . S
C1396 C1397 1.367 . S
C1397 C1396 1.367 . S
C1397 C1399 1.433 . S
C1398 C1394 1.350 . S
C1398 C1395 1.463 . S
C1398 N1402 1.427 . S
C1399 H1389 0.929 . S
C1399 C1397 1.433 . S
C1399 N1402 1.384 . S
C1400 H1391 0.929 . S
C1400 C1392 1.378 . S
C1400 C1395 1.350 . S
C1401 H1388 0.929 . S
C1401 C1393 1.433 . S
C1401 N1403 1.384 . S
N1402 C1398 1.427 . S
N1402 C1399 1.384 . S
N1403 C1395 1.427 . S
N1403 C1401 1.384 . S
H1404 C1410 0.930 . S
H1405 C1414 0.930 . S
H1406 C1419 0.929 . S
H1407 C1417 0.929 . S
H1408 C1412 0.929 . S
H1409 C1418 0.929 . S
C1410 H1404 0.930 . S
C1410 C1411 1.367 . S
C1410 C1418 1.378 . S
C1411 C1410 1.367 . S
C1411 C1419 1.433 . S
C1412 H1408 0.929 . S
C1412 C1414 1.378 . S
C1412 C1416 1.350 . S
C1413 C1416 1.463 1_545 S
C1413 C1418 1.350 . S
C1413 N1421 1.427 . S
C1414 H1405 0.930 . S
C1414 C1412 1.378 . S
C1414 C1415 1.367 . S
C1415 C1414 1.367 . S
C1415 C1417 1.433 . S
C1416 C1412 1.350 . S
C1416 C1413 1.463 1_565 S
C1416 N1420 1.427 . S
C1417 H1407 0.929 . S
C1417 C1415 1.433 . S
C1417 N1420 1.384 . S
C1418 H1409 0.929 . S
C1418 C1410 1.378 . S
C1418 C1413 1.350 . S
C1419 H1406 0.929 . S
C1419 C1411 1.433 . S
C1419 N1421 1.384 . S
N1420 C1416 1.427 . S
N1420 C1417 1.384 . S
N1421 C1413 1.427 . S
N1421 C1419 1.384 . S
H1422 C1428 0.930 . S
H1423 C1432 0.930 . S
H1424 C1437 0.929 . S
H1425 C1435 0.929 . S
H1426 C1430 0.929 . S
H1427 C1436 0.929 . S
C1428 H1422 0.930 . S
C1428 C1429 1.367 . S
C1428 C1436 1.378 . S
C1429 C1428 1.367 . S
C1429 C1437 1.433 . S
C1430 H1426 0.929 . S
C1430 C1432 1.378 . S
C1430 C1434 1.350 . S
C1431 C1434 1.463 1_545 S
C1431 C1436 1.350 . S
C1431 N1439 1.427 . S
C1432 H1423 0.930 . S
C1432 C1430 1.378 . S
C1432 C1433 1.367 . S
C1433 C1432 1.367 . S
C1433 C1435 1.433 . S
C1434 C1430 1.350 . S
C1434 C1431 1.463 1_565 S
C1434 N1438 1.427 . S
C1435 H1425 0.929 . S
C1435 C1433 1.433 . S
C1435 N1438 1.384 . S
C1436 H1427 0.929 . S
C1436 C1428 1.378 . S
C1436 C1431 1.350 . S
C1437 H1424 0.929 . S
C1437 C1429 1.433 . S
C1437 N1439 1.384 . S
N1438 C1434 1.427 . S
N1438 C1435 1.384 . S
N1439 C1431 1.427 . S
N1439 C1437 1.384 . S
H1440 C1446 0.930 . S
H1441 C1450 0.930 . S
H1442 C1455 0.929 . S
H1443 C1453 0.929 . S
H1444 C1448 0.929 . S
H1445 C1454 0.929 . S
C1446 H1440 0.930 . S
C1446 C1447 1.367 . S
C1446 C1454 1.378 . S
C1447 C1446 1.367 . S
C1447 C1455 1.433 . S
C1448 H1444 0.929 . S
C1448 C1450 1.378 . S
C1448 C1452 1.350 . S
C1449 C1452 1.463 1_655 S
C1449 C1454 1.350 . S
C1449 N1457 1.427 . S
C1450 H1441 0.930 . S
C1450 C1448 1.378 . S
C1450 C1451 1.367 . S
C1451 C1450 1.367 . S
C1451 C1453 1.433 . S
C1452 C1448 1.350 . S
C1452 C1449 1.463 1_455 S
C1452 N1456 1.427 . S
C1453 H1443 0.929 . S
C1453 C1451 1.433 . S
C1453 N1456 1.384 . S
C1454 H1445 0.929 . S
C1454 C1446 1.378 . S
C1454 C1449 1.350 . S
C1455 H1442 0.929 . S
C1455 C1447 1.433 . S
C1455 N1457 1.384 . S
N1456 C1452 1.427 . S
N1456 C1453 1.384 . S
N1457 C1449 1.427 . S
N1457 C1455 1.384 . S
H1458 C1464 0.930 . S
H1459 C1468 0.930 . S
H1460 C1473 0.929 . S
H1461 C1471 0.929 . S
H1462 C1466 0.929 . S
H1463 C1472 0.929 . S
C1464 H1458 0.930 . S
C1464 C1465 1.367 . S
C1464 C1472 1.378 . S
C1465 C1464 1.367 . S
C1465 C1473 1.433 . S
C1466 H1462 0.929 . S
C1466 C1468 1.378 . S
C1466 C1470 1.350 . S
C1467 C1470 1.463 . S
C1467 C1472 1.350 . S
C1467 N1475 1.427 . S
C1468 H1459 0.930 . S
C1468 C1466 1.378 . S
C1468 C1469 1.367 . S
C1469 C1468 1.367 . S
C1469 C1471 1.433 . S
C1470 C1466 1.350 . S
C1470 C1467 1.463 . S
C1470 N1474 1.427 . S
C1471 H1461 0.929 . S
C1471 C1469 1.433 . S
C1471 N1474 1.384 . S
C1472 H1463 0.929 . S
C1472 C1464 1.378 . S
C1472 C1467 1.350 . S
C1473 H1460 0.929 . S
C1473 C1465 1.433 . S
C1473 N1475 1.384 . S
N1474 C1470 1.427 . S
N1474 C1471 1.384 . S
N1475 C1467 1.427 . S
N1475 C1473 1.384 . S
H1476 C1482 0.930 . S
H1477 C1486 0.930 . S
H1478 C1491 0.929 . S
H1479 C1489 0.929 . S
H1480 C1484 0.929 . S
H1481 C1490 0.929 . S
C1482 H1476 0.930 . S
C1482 C1483 1.367 . S
C1482 C1490 1.378 . S
C1483 C1482 1.367 . S
C1483 C1491 1.433 . S
C1484 H1480 0.929 . S
C1484 C1486 1.378 . S
C1484 C1488 1.350 . S
C1485 C1488 1.463 . S
C1485 C1490 1.350 . S
C1485 N1493 1.427 . S
C1486 H1477 0.930 . S
C1486 C1484 1.378 . S
C1486 C1487 1.367 . S
C1487 C1486 1.367 . S
C1487 C1489 1.433 . S
C1488 C1484 1.350 . S
C1488 C1485 1.463 . S
C1488 N1492 1.427 . S
C1489 H1479 0.929 . S
C1489 C1487 1.433 . S
C1489 N1492 1.384 . S
C1490 H1481 0.929 . S
C1490 C1482 1.378 . S
C1490 C1485 1.350 . S
C1491 H1478 0.929 . S
C1491 C1483 1.433 . S
C1491 N1493 1.384 . S
N1492 C1488 1.427 . S
N1492 C1489 1.384 . S
N1493 C1485 1.427 . S
N1493 C1491 1.384 . S
H1494 C1500 0.930 . S
H1495 C1504 0.930 . S
H1496 C1509 0.929 . S
H1497 C1507 0.929 . S
H1498 C1502 0.929 . S
H1499 C1508 0.929 . S
C1500 H1494 0.930 . S
C1500 C1501 1.367 . S
C1500 C1508 1.378 . S
C1501 C1500 1.367 . S
C1501 C1509 1.433 . S
C1502 H1498 0.929 . S
C1502 C1504 1.378 . S
C1502 C1506 1.350 . S
C1503 C1506 1.463 . S
C1503 C1508 1.350 . S
C1503 N1511 1.427 . S
C1504 H1495 0.930 . S
C1504 C1502 1.378 . S
C1504 C1505 1.367 . S
C1505 C1504 1.367 . S
C1505 C1507 1.433 . S
C1506 C1502 1.350 . S
C1506 C1503 1.463 . S
C1506 N1510 1.427 . S
C1507 H1497 0.929 . S
C1507 C1505 1.433 . S
C1507 N1510 1.384 . S
C1508 H1499 0.929 . S
C1508 C1500 1.378 . S
C1508 C1503 1.350 . S
C1509 H1496 0.929 . S
C1509 C1501 1.433 . S
C1509 N1511 1.384 . S
N1510 C1506 1.427 . S
N1510 C1507 1.384 . S
N1511 C1503 1.427 . S
N1511 C1509 1.384 . S
H1512 C1518 0.930 . S
H1513 C1522 0.930 . S
H1514 C1527 0.929 . S
H1515 C1525 0.929 . S
H1516 C1520 0.929 . S
H1517 C1526 0.929 . S
C1518 H1512 0.930 . S
C1518 C1519 1.367 . S
C1518 C1526 1.378 . S
C1519 C1518 1.367 . S
C1519 C1527 1.433 . S
C1520 H1516 0.929 . S
C1520 C1522 1.378 . S
C1520 C1524 1.350 . S
C1521 C1524 1.463 . S
C1521 C1526 1.350 . S
C1521 N1529 1.427 . S
C1522 H1513 0.930 . S
C1522 C1520 1.378 . S
C1522 C1523 1.367 . S
C1523 C1522 1.367 . S
C1523 C1525 1.433 . S
C1524 C1520 1.350 . S
C1524 C1521 1.463 . S
C1524 N1528 1.427 . S
C1525 H1515 0.929 . S
C1525 C1523 1.433 . S
C1525 N1528 1.384 . S
C1526 H1517 0.929 . S
C1526 C1518 1.378 . S
C1526 C1521 1.350 . S
C1527 H1514 0.929 . S
C1527 C1519 1.433 . S
C1527 N1529 1.384 . S
N1528 C1524 1.427 . S
N1528 C1525 1.384 . S
N1529 C1521 1.427 . S
N1529 C1527 1.384 . S
H1530 C1536 0.930 . S
H1531 C1540 0.930 . S
H1532 C1545 0.929 . S
H1533 C1543 0.929 . S
H1534 C1538 0.929 . S
H1535 C1544 0.929 . S
C1536 H1530 0.930 . S
C1536 C1537 1.367 . S
C1536 C1544 1.378 . S
C1537 C1536 1.367 . S
C1537 C1545 1.433 . S
C1538 H1534 0.929 . S
C1538 C1540 1.378 . S
C1538 C1542 1.350 . S
C1539 C1542 1.463 . S
C1539 C1544 1.350 . S
C1539 N1547 1.427 . S
C1540 H1531 0.930 . S
C1540 C1538 1.378 . S
C1540 C1541 1.367 . S
C1541 C1540 1.367 . S
C1541 C1543 1.433 . S
C1542 C1538 1.350 . S
C1542 C1539 1.463 . S
C1542 N1546 1.427 . S
C1543 H1533 0.929 . S
C1543 C1541 1.433 . S
C1543 N1546 1.384 . S
C1544 H1535 0.929 . S
C1544 C1536 1.378 . S
C1544 C1539 1.350 . S
C1545 H1532 0.929 . S
C1545 C1537 1.433 . S
C1545 N1547 1.384 . S
N1546 C1542 1.427 . S
N1546 C1543 1.384 . S
N1547 C1539 1.427 . S
N1547 C1545 1.384 . S
H1548 C1554 0.930 . S
H1549 C1558 0.930 . S
H1550 C1563 0.929 . S
H1551 C1561 0.929 . S
H1552 C1556 0.929 . S
H1553 C1562 0.929 . S
C1554 H1548 0.930 . S
C1554 C1555 1.367 . S
C1554 C1562 1.378 . S
C1555 C1554 1.367 . S
C1555 C1563 1.433 . S
C1556 H1552 0.929 . S
C1556 C1558 1.378 . S
C1556 C1560 1.350 . S
C1557 C1560 1.463 . S
C1557 C1562 1.350 . S
C1557 N1565 1.427 . S
C1558 H1549 0.930 . S
C1558 C1556 1.378 . S
C1558 C1559 1.367 . S
C1559 C1558 1.367 . S
C1559 C1561 1.433 . S
C1560 C1556 1.350 . S
C1560 C1557 1.463 . S
C1560 N1564 1.427 . S
C1561 H1551 0.929 . S
C1561 C1559 1.433 . S
C1561 N1564 1.384 . S
C1562 H1553 0.929 . S
C1562 C1554 1.378 . S
C1562 C1557 1.350 . S
C1563 H1550 0.929 . S
C1563 C1555 1.433 . S
C1563 N1565 1.384 . S
N1564 C1560 1.427 . S
N1564 C1561 1.384 . S
N1565 C1557 1.427 . S
N1565 C1563 1.384 . S
H1566 C1572 0.930 . S
H1567 C1576 0.930 . S
H1568 C1581 0.929 . S
H1569 C1579 0.929 . S
H1570 C1574 0.929 . S
H1571 C1580 0.929 . S
C1572 H1566 0.930 . S
C1572 C1573 1.367 . S
C1572 C1580 1.378 . S
C1573 C1572 1.367 . S
C1573 C1581 1.433 . S
C1574 H1570 0.929 . S
C1574 C1576 1.378 . S
C1574 C1578 1.350 . S
C1575 C1578 1.463 . S
C1575 C1580 1.350 . S
C1575 N1583 1.427 . S
C1576 H1567 0.930 . S
C1576 C1574 1.378 . S
C1576 C1577 1.367 . S
C1577 C1576 1.367 . S
C1577 C1579 1.433 . S
C1578 C1574 1.350 . S
C1578 C1575 1.463 . S
C1578 N1582 1.427 . S
C1579 H1569 0.929 . S
C1579 C1577 1.433 . S
C1579 N1582 1.384 . S
C1580 H1571 0.929 . S
C1580 C1572 1.378 . S
C1580 C1575 1.350 . S
C1581 H1568 0.929 . S
C1581 C1573 1.433 . S
C1581 N1583 1.384 . S
N1582 C1578 1.427 . S
N1582 C1579 1.384 . S
N1583 C1575 1.427 . S
N1583 C1581 1.384 . S
H1584 C1590 0.930 . S
H1585 C1594 0.930 . S
H1586 C1599 0.929 . S
H1587 C1597 0.929 . S
H1588 C1592 0.929 . S
H1589 C1598 0.929 . S
C1590 H1584 0.930 . S
C1590 C1591 1.367 . S
C1590 C1598 1.378 . S
C1591 C1590 1.367 . S
C1591 C1599 1.433 . S
C1592 H1588 0.929 . S
C1592 C1594 1.378 . S
C1592 C1596 1.350 . S
C1593 C1596 1.463 . S
C1593 C1598 1.350 . S
C1593 N1601 1.427 . S
C1594 H1585 0.930 . S
C1594 C1592 1.378 . S
C1594 C1595 1.367 . S
C1595 C1594 1.367 . S
C1595 C1597 1.433 . S
C1596 C1592 1.350 . S
C1596 C1593 1.463 . S
C1596 N1600 1.427 . S
C1597 H1587 0.929 . S
C1597 C1595 1.433 . S
C1597 N1600 1.384 . S
C1598 H1589 0.929 . S
C1598 C1590 1.378 . S
C1598 C1593 1.350 . S
C1599 H1586 0.929 . S
C1599 C1591 1.433 . S
C1599 N1601 1.384 . S
N1600 C1596 1.427 . S
N1600 C1597 1.384 . S
N1601 C1593 1.427 . S
N1601 C1599 1.384 . S
H1602 C1608 0.930 . S
H1603 C1612 0.930 . S
H1604 C1617 0.929 . S
H1605 C1615 0.929 . S
H1606 C1610 0.929 . S
H1607 C1616 0.929 . S
C1608 H1602 0.930 . S
C1608 C1609 1.367 . S
C1608 C1616 1.378 . S
C1609 C1608 1.367 . S
C1609 C1617 1.433 . S
C1610 H1606 0.929 . S
C1610 C1612 1.378 . S
C1610 C1614 1.350 . S
C1611 C1614 1.463 . S
C1611 C1616 1.350 . S
C1611 N1619 1.427 . S
C1612 H1603 0.930 . S
C1612 C1610 1.378 . S
C1612 C1613 1.367 . S
C1613 C1612 1.367 . S
C1613 C1615 1.433 . S
C1614 C1610 1.350 . S
C1614 C1611 1.463 . S
C1614 N1618 1.427 . S
C1615 H1605 0.929 . S
C1615 C1613 1.433 . S
C1615 N1618 1.384 . S
C1616 H1607 0.929 . S
C1616 C1608 1.378 . S
C1616 C1611 1.350 . S
C1617 H1604 0.929 . S
C1617 C1609 1.433 . S
C1617 N1619 1.384 . S
N1618 C1614 1.427 . S
N1618 C1615 1.384 . S
N1619 C1611 1.427 . S
N1619 C1617 1.384 . S
H1620 C1626 0.930 . S
H1621 C1630 0.930 . S
H1622 C1635 0.929 . S
H1623 C1633 0.929 . S
H1624 C1628 0.929 . S
H1625 C1634 0.929 . S
C1626 H1620 0.930 . S
C1626 C1627 1.367 . S
C1626 C1634 1.378 . S
C1627 C1626 1.367 . S
C1627 C1635 1.433 . S
C1628 H1624 0.929 . S
C1628 C1630 1.378 . S
C1628 C1632 1.350 . S
C1629 C1632 1.463 . S
C1629 C1634 1.350 . S
C1629 N1637 1.427 . S
C1630 H1621 0.930 . S
C1630 C1628 1.378 . S
C1630 C1631 1.367 . S
C1631 C1630 1.367 . S
C1631 C1633 1.433 . S
C1632 C1628 1.350 . S
C1632 C1629 1.463 . S
C1632 N1636 1.427 . S
C1633 H1623 0.929 . S
C1633 C1631 1.433 . S
C1633 N1636 1.384 . S
C1634 H1625 0.929 . S
C1634 C1626 1.378 . S
C1634 C1629 1.350 . S
C1635 H1622 0.929 . S
C1635 C1627 1.433 . S
C1635 N1637 1.384 . S
N1636 C1632 1.427 . S
N1636 C1633 1.384 . S
N1637 C1629 1.427 . S
N1637 C1635 1.384 . S
H1638 C1644 0.930 . S
H1639 C1648 0.930 . S
H1640 C1653 0.929 . S
H1641 C1651 0.929 . S
H1642 C1646 0.929 . S
H1643 C1652 0.929 . S
C1644 H1638 0.930 . S
C1644 C1645 1.367 . S
C1644 C1652 1.378 . S
C1645 C1644 1.367 . S
C1645 C1653 1.433 . S
C1646 H1642 0.929 . S
C1646 C1648 1.378 . S
C1646 C1650 1.350 . S
C1647 C1650 1.463 . S
C1647 C1652 1.350 . S
C1647 N1655 1.427 . S
C1648 H1639 0.930 . S
C1648 C1646 1.378 . S
C1648 C1649 1.367 . S
C1649 C1648 1.367 . S
C1649 C1651 1.433 . S
C1650 C1646 1.350 . S
C1650 C1647 1.463 . S
C1650 N1654 1.427 . S
C1651 H1641 0.929 . S
C1651 C1649 1.433 . S
C1651 N1654 1.384 . S
C1652 H1643 0.929 . S
C1652 C1644 1.378 . S
C1652 C1647 1.350 . S
C1653 H1640 0.929 . S
C1653 C1645 1.433 . S
C1653 N1655 1.384 . S
N1654 C1650 1.427 . S
N1654 C1651 1.384 . S
N1655 C1647 1.427 . S
N1655 C1653 1.384 . S
H1656 C1662 0.930 . S
H1657 C1666 0.930 . S
H1658 C1671 0.929 . S
H1659 C1669 0.929 . S
H1660 C1664 0.929 . S
H1661 C1670 0.929 . S
C1662 H1656 0.930 . S
C1662 C1663 1.367 . S
C1662 C1670 1.378 . S
C1663 C1662 1.367 . S
C1663 C1671 1.433 . S
C1664 H1660 0.929 . S
C1664 C1666 1.378 . S
C1664 C1668 1.350 . S
C1665 C1668 1.463 . S
C1665 C1670 1.350 . S
C1665 N1673 1.427 . S
C1666 H1657 0.930 . S
C1666 C1664 1.378 . S
C1666 C1667 1.367 . S
C1667 C1666 1.367 . S
C1667 C1669 1.433 . S
C1668 C1664 1.350 . S
C1668 C1665 1.463 . S
C1668 N1672 1.427 . S
C1669 H1659 0.929 . S
C1669 C1667 1.433 . S
C1669 N1672 1.384 . S
C1670 H1661 0.929 . S
C1670 C1662 1.378 . S
C1670 C1665 1.350 . S
C1671 H1658 0.929 . S
C1671 C1663 1.433 . S
C1671 N1673 1.384 . S
N1672 C1668 1.427 . S
N1672 C1669 1.384 . S
N1673 C1665 1.427 . S
N1673 C1671 1.384 . S
H1674 C1680 0.930 . S
H1675 C1684 0.930 . S
H1676 C1689 0.929 . S
H1677 C1687 0.929 . S
H1678 C1682 0.929 . S
H1679 C1688 0.929 . S
C1680 H1674 0.930 . S
C1680 C1681 1.367 . S
C1680 C1688 1.378 . S
C1681 C1680 1.367 . S
C1681 C1689 1.433 . S
C1682 H1678 0.929 . S
C1682 C1684 1.378 . S
C1682 C1686 1.350 . S
C1683 C1686 1.463 . S
C1683 C1688 1.350 . S
C1683 N1691 1.427 . S
C1684 H1675 0.930 . S
C1684 C1682 1.378 . S
C1684 C1685 1.367 . S
C1685 C1684 1.367 . S
C1685 C1687 1.433 . S
C1686 C1682 1.350 . S
C1686 C1683 1.463 . S
C1686 N1690 1.427 . S
C1687 H1677 0.929 . S
C1687 C1685 1.433 . S
C1687 N1690 1.384 . S
C1688 H1679 0.929 . S
C1688 C1680 1.378 . S
C1688 C1683 1.350 . S
C1689 H1676 0.929 . S
C1689 C1681 1.433 . S
C1689 N1691 1.384 . S
N1690 C1686 1.427 . S
N1690 C1687 1.384 . S
N1691 C1683 1.427 . S
N1691 C1689 1.384 . S
H1692 C1698 0.930 . S
H1693 C1702 0.930 . S
H1694 C1707 0.929 . S
H1695 C1705 0.929 . S
H1696 C1700 0.929 . S
H1697 C1706 0.929 . S
C1698 H1692 0.930 . S
C1698 C1699 1.367 . S
C1698 C1706 1.378 . S
C1699 C1698 1.367 . S
C1699 C1707 1.433 . S
C1700 H1696 0.929 . S
C1700 C1702 1.378 . S
C1700 C1704 1.350 . S
C1701 C1704 1.463 . S
C1701 C1706 1.350 . S
C1701 N1709 1.427 . S
C1702 H1693 0.930 . S
C1702 C1700 1.378 . S
C1702 C1703 1.367 . S
C1703 C1702 1.367 . S
C1703 C1705 1.433 . S
C1704 C1700 1.350 . S
C1704 C1701 1.463 . S
C1704 N1708 1.427 . S
C1705 H1695 0.929 . S
C1705 C1703 1.433 . S
C1705 N1708 1.384 . S
C1706 H1697 0.929 . S
C1706 C1698 1.378 . S
C1706 C1701 1.350 . S
C1707 H1694 0.929 . S
C1707 C1699 1.433 . S
C1707 N1709 1.384 . S
N1708 C1704 1.427 . S
N1708 C1705 1.384 . S
N1709 C1701 1.427 . S
N1709 C1707 1.384 . S
H1710 C1716 0.930 . S
H1711 C1720 0.930 . S
H1712 C1725 0.929 . S
H1713 C1723 0.929 . S
H1714 C1718 0.929 . S
H1715 C1724 0.929 . S
C1716 H1710 0.930 . S
C1716 C1717 1.367 . S
C1716 C1724 1.378 . S
C1717 C1716 1.367 . S
C1717 C1725 1.433 . S
C1718 H1714 0.929 . S
C1718 C1720 1.378 . S
C1718 C1722 1.350 . S
C1719 C1722 1.463 . S
C1719 C1724 1.350 . S
C1719 N1727 1.427 . S
C1720 H1711 0.930 . S
C1720 C1718 1.378 . S
C1720 C1721 1.367 . S
C1721 C1720 1.367 . S
C1721 C1723 1.433 . S
C1722 C1718 1.350 . S
C1722 C1719 1.463 . S
C1722 N1726 1.427 . S
C1723 H1713 0.929 . S
C1723 C1721 1.433 . S
C1723 N1726 1.384 . S
C1724 H1715 0.929 . S
C1724 C1716 1.378 . S
C1724 C1719 1.350 . S
C1725 H1712 0.929 . S
C1725 C1717 1.433 . S
C1725 N1727 1.384 . S
N1726 C1722 1.427 . S
N1726 C1723 1.384 . S
N1727 C1719 1.427 . S
N1727 C1725 1.384 . S
H1728 C1734 0.930 . S
H1729 C1738 0.930 . S
H1730 C1743 0.929 . S
H1731 C1741 0.929 . S
H1732 C1736 0.929 . S
H1733 C1742 0.929 . S
C1734 H1728 0.930 . S
C1734 C1735 1.367 . S
C1734 C1742 1.378 . S
C1735 C1734 1.367 . S
C1735 C1743 1.433 . S
C1736 H1732 0.929 . S
C1736 C1738 1.378 . S
C1736 C1740 1.350 . S
C1737 C1740 1.463 . S
C1737 C1742 1.350 . S
C1737 N1745 1.427 . S
C1738 H1729 0.930 . S
C1738 C1736 1.378 . S
C1738 C1739 1.367 . S
C1739 C1738 1.367 . S
C1739 C1741 1.433 . S
C1740 C1736 1.350 . S
C1740 C1737 1.463 . S
C1740 N1744 1.427 . S
C1741 H1731 0.929 . S
C1741 C1739 1.433 . S
C1741 N1744 1.384 . S
C1742 H1733 0.929 . S
C1742 C1734 1.378 . S
C1742 C1737 1.350 . S
C1743 H1730 0.929 . S
C1743 C1735 1.433 . S
C1743 N1745 1.384 . S
N1744 C1740 1.427 . S
N1744 C1741 1.384 . S
N1745 C1737 1.427 . S
N1745 C1743 1.384 . S
H1746 C1752 0.930 . S
H1747 C1756 0.930 . S
H1748 C1761 0.929 . S
H1749 C1759 0.929 . S
H1750 C1754 0.929 . S
H1751 C1760 0.929 . S
C1752 H1746 0.930 . S
C1752 C1753 1.367 . S
C1752 C1760 1.378 . S
C1753 C1752 1.367 . S
C1753 C1761 1.433 . S
C1754 H1750 0.929 . S
C1754 C1756 1.378 . S
C1754 C1758 1.350 . S
C1755 C1758 1.463 . S
C1755 C1760 1.350 . S
C1755 N1763 1.427 . S
C1756 H1747 0.930 . S
C1756 C1754 1.378 . S
C1756 C1757 1.367 . S
C1757 C1756 1.367 . S
C1757 C1759 1.433 . S
C1758 C1754 1.350 . S
C1758 C1755 1.463 . S
C1758 N1762 1.427 . S
C1759 H1749 0.929 . S
C1759 C1757 1.433 . S
C1759 N1762 1.384 . S
C1760 H1751 0.929 . S
C1760 C1752 1.378 . S
C1760 C1755 1.350 . S
C1761 H1748 0.929 . S
C1761 C1753 1.433 . S
C1761 N1763 1.384 . S
N1762 C1758 1.427 . S
N1762 C1759 1.384 . S
N1763 C1755 1.427 . S
N1763 C1761 1.384 . S
H1764 C1770 0.930 . S
H1765 C1774 0.930 . S
H1766 C1779 0.929 . S
H1767 C1777 0.929 . S
H1768 C1772 0.929 . S
H1769 C1778 0.929 . S
C1770 H1764 0.930 . S
C1770 C1771 1.367 . S
C1770 C1778 1.378 . S
C1771 C1770 1.367 . S
C1771 C1779 1.433 . S
C1772 H1768 0.929 . S
C1772 C1774 1.378 . S
C1772 C1776 1.350 . S
C1773 C1776 1.463 . S
C1773 C1778 1.350 . S
C1773 N1781 1.427 . S
C1774 H1765 0.930 . S
C1774 C1772 1.378 . S
C1774 C1775 1.367 . S
C1775 C1774 1.367 . S
C1775 C1777 1.433 . S
C1776 C1772 1.350 . S
C1776 C1773 1.463 . S
C1776 N1780 1.427 . S
C1777 H1767 0.929 . S
C1777 C1775 1.433 . S
C1777 N1780 1.384 . S
C1778 H1769 0.929 . S
C1778 C1770 1.378 . S
C1778 C1773 1.350 . S
C1779 H1766 0.929 . S
C1779 C1771 1.433 . S
C1779 N1781 1.384 . S
N1780 C1776 1.427 . S
N1780 C1777 1.384 . S
N1781 C1773 1.427 . S
N1781 C1779 1.384 . S
H1782 C1788 0.930 . S
H1783 C1792 0.930 . S
H1784 C1797 0.929 . S
H1785 C1795 0.929 . S
H1786 C1790 0.929 . S
H1787 C1796 0.929 . S
C1788 H1782 0.930 . S
C1788 C1789 1.367 . S
C1788 C1796 1.378 . S
C1789 C1788 1.367 . S
C1789 C1797 1.433 . S
C1790 H1786 0.929 . S
C1790 C1792 1.378 . S
C1790 C1794 1.350 . S
C1791 C1794 1.463 . S
C1791 C1796 1.350 . S
C1791 N1799 1.427 . S
C1792 H1783 0.930 . S
C1792 C1790 1.378 . S
C1792 C1793 1.367 . S
C1793 C1792 1.367 . S
C1793 C1795 1.433 . S
C1794 C1790 1.350 . S
C1794 C1791 1.463 . S
C1794 N1798 1.427 . S
C1795 H1785 0.929 . S
C1795 C1793 1.433 . S
C1795 N1798 1.384 . S
C1796 H1787 0.929 . S
C1796 C1788 1.378 . S
C1796 C1791 1.350 . S
C1797 H1784 0.929 . S
C1797 C1789 1.433 . S
C1797 N1799 1.384 . S
N1798 C1794 1.427 . S
N1798 C1795 1.384 . S
N1799 C1791 1.427 . S
N1799 C1797 1.384 . S
C511 C81 1.570 . S
C515 C11 1.566 . S
C529 C53 1.563 . S
C533 C25 1.560 . S
C547 C39 1.566 . S
C551 C67 1.570 . S
C565 C95 1.567 . S
C569 C165 1.569 . S
C583 C109 1.569 . S
C587 C137 1.567 . S
C601 C151 1.561 . S
C605 C123 1.567 . S
C619 C179 1.569 . S
C623 C249 1.567 1_556 S
C637 C193 1.569 . S
C641 C221 1.568 1_556 S
C655 C207 1.565 . S
C659 C235 1.560 1_556 S
C673 C333 1.570 . S
C677 C263 1.566 1_556 S
C691 C277 1.560 1_556 S
C695 C305 1.563 . S
C709 C319 1.570 . S
C713 C291 1.566 1_556 S
C727 C417 1.570 . S
C731 C347 1.566 1_554 S
C745 C389 1.568 . S
C749 C361 1.561 1_554 S
C763 C403 1.570 . S
C767 C375 1.565 1_554 S
C781 C431 1.563 . S
C785 C501 1.560 1_554 S
C799 C445 1.560 . S
C803 C473 1.564 1_554 S
C817 C459 1.561 . S
C821 C487 1.568 1_554 S
C835 C82 1.047 . S
C839 C12 1.050 . S
C853 C26 1.047 . S
C857 C54 1.049 . S
C871 C68 1.048 . S
C875 C40 1.045 . S
C889 C96 1.047 . S
C893 C166 1.050 . S
C907 C110 1.045 . S
C911 C138 1.047 . S
C925 C152 1.046 . S
C929 C124 1.049 . S
C943 C180 1.049 . S
C947 C250 1.049 . S
C961 C222 1.047 . S
C965 C194 1.045 . S
C979 C236 1.046 . S
C983 C208 1.045 . S
C997 C264 1.048 . S
C1001 C334 1.045 . S
C1015 C278 1.046 . S
C1019 C306 1.049 . S
C1033 C320 1.049 . S
C1037 C292 1.048 . S
C1051 C418 1.049 . S
C1055 C348 1.046 . S
C1069 C362 1.050 . S
C1073 C390 1.047 . S
C1087 C376 1.048 . S
C1091 C404 1.045 . S
C1105 C502 1.047 . S
C1109 C432 1.045 . S
C1123 C474 1.045 . S
C1127 C446 1.047 . S
C1141 C488 1.047 . S
C1145 C460 1.049 . S
C1159 C228 1.496 . S
C1163 C4 1.505 . S
C1177 C242 1.496 . S
C1181 C18 1.505 . S
C1195 C214 1.499 . S
C1199 C32 1.506 . S
C1213 C46 1.496 . S
C1217 C368 1.505 . S
C1231 C60 1.505 . S
C1235 C340 1.496 . S
C1249 C74 1.501 . S
C1253 C354 1.497 . S
C1267 C88 1.502 . S
C1271 C480 1.497 . S
C1285 C102 1.503 . S
C1289 C494 1.496 . S
C1303 C116 1.501 . S
C1307 C466 1.497 . S
C1321 C130 1.497 . S
C1325 C284 1.501 . S
C1339 C256 1.497 . S
C1343 C144 1.506 . S
C1357 C270 1.507 . S
C1361 C158 1.498 . S
C1375 C396 1.499 . S
C1379 C172 1.506 . S
C1393 C186 1.504 . S
C1397 C410 1.504 . S
C1411 C200 1.506 . S
C1415 C382 1.497 . S
C1429 C298 1.498 . S
C1433 C452 1.500 . S
C1447 C312 1.507 . S
C1451 C424 1.498 . S
C1465 C438 1.496 . S
C1469 C326 1.505 . S
C1483 C5 1.288 . S
C1487 C145 1.261 . S
C1501 C159 1.263 . S
C1505 C19 1.287 . S
C1519 C131 1.262 . S
C1523 C33 1.287 . S
C1537 C47 1.281 . S
C1541 C117 1.268 . S
C1555 C61 1.261 . S
C1559 C89 1.288 . S
C1573 C75 1.263 . S
C1577 C103 1.287 . S
C1591 C173 1.275 . S
C1595 C313 1.275 . S
C1609 C327 1.271 . S
C1613 C187 1.279 . S
C1627 C299 1.288 . S
C1631 C201 1.261 . S
C1645 C215 1.273 . S
C1649 C285 1.276 . S
C1663 C229 1.274 . S
C1667 C257 1.275 . S
C1681 C271 1.288 . S
C1685 C243 1.261 . S
C1699 C341 1.283 . S
C1703 C481 1.266 . S
C1717 C495 1.288 . S
C1721 C355 1.261 . S
C1735 C369 1.263 . S
C1739 C467 1.286 . S
C1753 C383 1.286 . S
C1757 C453 1.263 . S
C1771 C425 1.279 . S
C1775 C397 1.271 . S
C1789 C411 1.277 . S
C1793 C439 1.273 . S
