# Generated by pormake.
# Topology pcl, (4)-cn, num edge types: 1
# Building blocks:
#     Node 0, Type 0, BuildingBlock: KUFVIS_clean_sbu_0, # of connection points: 4
#     Node 1, Type 0, BuildingBlock: KUFVIS_clean_sbu_0, # of connection points: 4
#     Node 2, Type 0, BuildingBlock: KUFVIS_clean_sbu_0, # of connection points: 4
#     Node 3, Type 0, BuildingBlock: KUFVIS_clean_sbu_0, # of connection points: 4
#     Node 4, Type 0, BuildingBlock: KUFVIS_clean_sbu_0, # of connection points: 4
#     Node 5, Type 0, BuildingBlock: KUFVIS_clean_sbu_0, # of connection points: 4
#     Node 6, Type 0, BuildingBlock: KUFVIS_clean_sbu_0, # of connection points: 4
#     Node 7, Type 0, BuildingBlock: KUFVIS_clean_sbu_0, # of connection points: 4
#     Node 8, Type 0, BuildingBlock: KUFVIS_clean_sbu_0, # of connection points: 4
#     Node 9, Type 0, BuildingBlock: KUFVIS_clean_sbu_0, # of connection points: 4
#     Node 10, Type 0, BuildingBlock: KUFVIS_clean_sbu_0, # of connection points: 4
#     Node 11, Type 0, BuildingBlock: KUFVIS_clean_sbu_0, # of connection points: 4
#     Node 12, Type 0, BuildingBlock: KUFVIS_clean_sbu_0, # of connection points: 4
#     Node 13, Type 0, BuildingBlock: KUFVIS_clean_sbu_0, # of connection points: 4
#     Node 14, Type 0, BuildingBlock: KUFVIS_clean_sbu_0, # of connection points: 4
#     Node 15, Type 0, BuildingBlock: KUFVIS_clean_sbu_0, # of connection points: 4
#     Edge 16, Type (0, 0), BuildingBlock: EZIPEK_clean_linker_0, # of connection points: 2
#     Edge 17, Type (0, 0), BuildingBlock: EZIPEK_clean_linker_0, # of connection points: 2
#     Edge 18, Type (0, 0), BuildingBlock: EZIPEK_clean_linker_0, # of connection points: 2
#     Edge 19, Type (0, 0), BuildingBlock: EZIPEK_clean_linker_0, # of connection points: 2
#     Edge 20, Type (0, 0), BuildingBlock: EZIPEK_clean_linker_0, # of connection points: 2
#     Edge 21, Type (0, 0), BuildingBlock: EZIPEK_clean_linker_0, # of connection points: 2
#     Edge 22, Type (0, 0), BuildingBlock: EZIPEK_clean_linker_0, # of connection points: 2
#     Edge 23, Type (0, 0), BuildingBlock: EZIPEK_clean_linker_0, # of connection points: 2
#     Edge 24, Type (0, 0), BuildingBlock: EZIPEK_clean_linker_0, # of connection points: 2
#     Edge 25, Type (0, 0), BuildingBlock: EZIPEK_clean_linker_0, # of connection points: 2
#     Edge 26, Type (0, 0), BuildingBlock: EZIPEK_clean_linker_0, # of connection points: 2
#     Edge 27, Type (0, 0), BuildingBlock: EZIPEK_clean_linker_0, # of connection points: 2
#     Edge 28, Type (0, 0), BuildingBlock: EZIPEK_clean_linker_0, # of connection points: 2
#     Edge 29, Type (0, 0), BuildingBlock: EZIPEK_clean_linker_0, # of connection points: 2
#     Edge 30, Type (0, 0), BuildingBlock: EZIPEK_clean_linker_0, # of connection points: 2
#     Edge 31, Type (0, 0), BuildingBlock: EZIPEK_clean_linker_0, # of connection points: 2
#     Edge 32, Type (0, 0), BuildingBlock: EZIPEK_clean_linker_0, # of connection points: 2
#     Edge 33, Type (0, 0), BuildingBlock: EZIPEK_clean_linker_0, # of connection points: 2
#     Edge 34, Type (0, 0), BuildingBlock: EZIPEK_clean_linker_0, # of connection points: 2
#     Edge 35, Type (0, 0), BuildingBlock: EZIPEK_clean_linker_0, # of connection points: 2
#     Edge 36, Type (0, 0), BuildingBlock: EZIPEK_clean_linker_0, # of connection points: 2
#     Edge 37, Type (0, 0), BuildingBlock: EZIPEK_clean_linker_0, # of connection points: 2
#     Edge 38, Type (0, 0), BuildingBlock: EZIPEK_clean_linker_0, # of connection points: 2
#     Edge 39, Type (0, 0), BuildingBlock: EZIPEK_clean_linker_0, # of connection points: 2
#     Edge 40, Type (0, 0), BuildingBlock: EZIPEK_clean_linker_0, # of connection points: 2
#     Edge 41, Type (0, 0), BuildingBlock: EZIPEK_clean_linker_0, # of connection points: 2
#     Edge 42, Type (0, 0), BuildingBlock: EZIPEK_clean_linker_0, # of connection points: 2
#     Edge 43, Type (0, 0), BuildingBlock: EZIPEK_clean_linker_0, # of connection points: 2
#     Edge 44, Type (0, 0), BuildingBlock: EZIPEK_clean_linker_0, # of connection points: 2
#     Edge 45, Type (0, 0), BuildingBlock: EZIPEK_clean_linker_0, # of connection points: 2
#     Edge 46, Type (0, 0), BuildingBlock: EZIPEK_clean_linker_0, # of connection points: 2
#     Edge 47, Type (0, 0), BuildingBlock: EZIPEK_clean_linker_0, # of connection points: 2
# Relax obj value: 0.078
# Max RMSD: 0.060
# Mean RMSD: 0.059
data_MOF--net-pcl--node1-KUFVIS_clean_sbu_0--edge1-EZIPEK_clean_linker_0
_symmetry_space_group_name_H-M    P1
_symmetry_Int_Tables_number       1
_symmetry_cell_setting            triclinic
loop_
_symmetry_equiv_pos_as_xyz
'x, y, z'
_cell_length_a     38.020328
_cell_length_b     31.059935
_cell_length_c     30.586514
_cell_angle_alpha  90.143522
_cell_angle_beta   89.986522
_cell_angle_gamma 89.91086
loop_
_atom_site_label
_atom_site_type_symbol
_atom_site_fract_x
_atom_site_fract_y
_atom_site_fract_z
_atom_type_partial_charge
Mn0 Mn 0.17585 0.34006 0.07867 0.0
Mn1 Mn 0.25788 0.36657 0.11123 0.0
C2 C 0.19345 0.32226 0.14922 0.0
C3 C 0.11536 0.35144 0.07466 0.0
C4 C 0.24227 0.29813 0.04244 0.0
O5 O 0.18833 0.39078 0.03901 0.0
O6 O 0.24042 0.41133 0.06881 0.0
C7 C 0.25865 0.45172 0.15451 0.0
N8 N 0.26093 0.40803 0.15748 0.0
C9 C 0.28139 0.41314 0.23184 0.0
C10 C 0.27671 0.45791 0.2304 0.0
C11 C 0.26562 0.47732 0.19138 0.0
C12 C 0.27363 0.3893 0.19413 0.0
H13 H 0.25263 0.46701 0.12392 0.0
C14 C 0.21395 0.41731 0.04308 0.0
O15 O 0.13143 0.32705 0.04656 0.0
O16 O 0.13469 0.37185 0.10283 0.0
N17 N 0.27411 0.32581 0.1537 0.0
C18 C 0.27898 0.28255 0.1492 0.0
C19 C 0.29037 0.25825 0.18516 0.0
C20 C 0.29694 0.27868 0.22532 0.0
C21 C 0.29185 0.32323 0.22919 0.0
C22 C 0.27983 0.34564 0.19241 0.0
H23 H 0.27412 0.26661 0.1185 0.0
O24 O 0.17061 0.29916 0.128 0.0
O25 O 0.20856 0.35215 0.12589 0.0
O26 O 0.20896 0.29887 0.0456 0.0
O27 O 0.26202 0.3236 0.06374 0.0
C28 C 0.29848 0.34631 0.26802 0.0
C29 C 0.29364 0.39131 0.2692 0.0
H30 H 0.2822 0.47773 0.25877 0.0
H31 H 0.2631 0.51198 0.18947 0.0
H32 H 0.29422 0.22386 0.18187 0.0
H33 H 0.30599 0.25988 0.25291 0.0
H34 H 0.30778 0.32984 0.29699 0.0
H35 H 0.29939 0.40884 0.299 0.0
Mn36 Mn 0.86314 0.67146 0.57672 0.0
Mn37 Mn 0.78053 0.6439 0.60733 0.0
C38 C 0.84295 0.69138 0.64568 0.0
C39 C 0.92448 0.663 0.57579 0.0
C40 C 0.79656 0.71021 0.53733 0.0
O41 O 0.85292 0.61862 0.5388 0.0
O42 O 0.79956 0.59893 0.56596 0.0
C43 C 0.77929 0.55959 0.6517 0.0
N44 N 0.77686 0.60329 0.65407 0.0
C45 C 0.75459 0.59923 0.72771 0.0
C46 C 0.75981 0.55453 0.72711 0.0
C47 C 0.77182 0.53456 0.6887 0.0
C48 C 0.76304 0.62249 0.68996 0.0
H49 H 0.78555 0.54389 0.62138 0.0
C50 C 0.82693 0.59243 0.54174 0.0
O51 O 0.90834 0.68546 0.54631 0.0
O52 O 0.90501 0.64287 0.60389 0.0
N53 N 0.76286 0.68517 0.64861 0.0
C54 C 0.75784 0.72831 0.64335 0.0
C55 C 0.74529 0.7531 0.67849 0.0
C56 C 0.73781 0.73329 0.71863 0.0
C57 C 0.7432 0.68889 0.72332 0.0
C58 C 0.75638 0.66598 0.68736 0.0
H59 H 0.76354 0.7438 0.61268 0.0
O60 O 0.86535 0.71478 0.62431 0.0
O61 O 0.82932 0.65991 0.62305 0.0
O62 O 0.82986 0.70969 0.54059 0.0
O63 O 0.77676 0.68569 0.55941 0.0
C64 C 0.73582 0.66643 0.76221 0.0
C65 C 0.74112 0.62154 0.76423 0.0
H66 H 0.75388 0.53516 0.75556 0.0
H67 H 0.77454 0.49989 0.68728 0.0
H68 H 0.7413 0.78738 0.6746 0.0
H69 H 0.72788 0.75246 0.74558 0.0
H70 H 0.7256 0.68328 0.79055 0.0
H71 H 0.73479 0.60448 0.79405 0.0
Mn72 Mn 0.17324 0.6655 0.92961 0.0
Mn73 Mn 0.25559 0.6398 0.89667 0.0
C74 C 0.19153 0.68563 0.86 0.0
C75 C 0.11252 0.65502 0.93218 0.0
C76 C 0.23959 0.706 0.96743 0.0
O77 O 0.18556 0.61339 0.96762 0.0
O78 O 0.23808 0.59402 0.93776 0.0
C79 C 0.25665 0.55594 0.85089 0.0
N80 N 0.259 0.59968 0.84926 0.0
C81 C 0.28017 0.59661 0.77507 0.0
C82 C 0.27545 0.55185 0.77512 0.0
C83 C 0.26398 0.53138 0.81338 0.0
C84 C 0.27208 0.61939 0.81338 0.0
H85 H 0.25033 0.53982 0.88092 0.0
C86 C 0.21149 0.58721 0.96309 0.0
O87 O 0.12841 0.67842 0.96123 0.0
O88 O 0.13207 0.63471 0.90413 0.0
N89 N 0.27192 0.68177 0.85555 0.0
C90 C 0.27633 0.72496 0.86125 0.0
C91 C 0.28794 0.75025 0.82614 0.0
C92 C 0.29511 0.73089 0.78558 0.0
C93 C 0.29037 0.68642 0.78044 0.0
C94 C 0.27815 0.66298 0.81642 0.0
H95 H 0.27087 0.74011 0.89225 0.0
O96 O 0.16846 0.70803 0.88165 0.0
O97 O 0.20633 0.65477 0.88233 0.0
O98 O 0.20627 0.70535 0.96431 0.0
O99 O 0.25942 0.68132 0.94526 0.0
C100 C 0.29744 0.66443 0.74107 0.0
C101 C 0.29273 0.61947 0.73854 0.0
H102 H 0.2812 0.53283 0.74625 0.0
H103 H 0.26143 0.49669 0.81423 0.0
H104 H 0.29144 0.78458 0.83038 0.0
H105 H 0.3043 0.75046 0.75864 0.0
H106 H 0.30693 0.68169 0.7127 0.0
H107 H 0.29877 0.60278 0.70831 0.0
Mn108 Mn 0.86323 0.34592 0.42454 0.0
Mn109 Mn 0.78494 0.37764 0.38329 0.0
C110 C 0.84981 0.32919 0.35281 0.0
C111 C 0.92402 0.35452 0.43339 0.0
C112 C 0.79244 0.30832 0.45323 0.0
O113 O 0.84958 0.39707 0.46326 0.0
O114 O 0.80057 0.42097 0.4281 0.0
C115 C 0.78863 0.46347 0.34213 0.0
N116 N 0.78506 0.41999 0.33789 0.0
C117 C 0.76604 0.42787 0.26314 0.0
C118 C 0.77214 0.47227 0.26597 0.0
C119 C 0.78309 0.49021 0.30584 0.0
C120 C 0.77208 0.40285 0.30049 0.0
H121 H 0.79459 0.47781 0.37325 0.0
C122 C 0.82534 0.4251 0.45665 0.0
O123 O 0.90591 0.33073 0.46 0.0
O124 O 0.90649 0.37614 0.40453 0.0
N125 N 0.77139 0.33792 0.3381 0.0
C126 C 0.77257 0.29406 0.33851 0.0
C127 C 0.76318 0.27082 0.30089 0.0
C128 C 0.75413 0.2929 0.26252 0.0
C129 C 0.75593 0.33795 0.26173 0.0
C130 C 0.76556 0.35927 0.30033 0.0
H131 H 0.7817 0.27698 0.36703 0.0
O132 O 0.87071 0.30499 0.37568 0.0
O133 O 0.83443 0.3602 0.37451 0.0
O134 O 0.82597 0.30617 0.45328 0.0
O135 O 0.7761 0.33537 0.42985 0.0
C136 C 0.74981 0.36239 0.22375 0.0
C137 C 0.75434 0.40743 0.22464 0.0
H138 H 0.76792 0.49295 0.23799 0.0
H139 H 0.78667 0.52466 0.30882 0.0
H140 H 0.76355 0.23598 0.30124 0.0
H141 H 0.74715 0.2749 0.23341 0.0
H142 H 0.74205 0.34682 0.19353 0.0
H143 H 0.74965 0.42591 0.19521 0.0
Mn144 Mn 0.88412 0.66539 0.90478 0.0
Mn145 Mn 0.91753 0.58842 0.83817 0.0
C146 C 0.88367 0.67507 0.82905 0.0
C147 C 0.83809 0.69882 0.94307 0.0
C148 C 0.96359 0.64609 0.89088 0.0
O149 O 0.88211 0.6133 0.94391 0.0
O150 O 0.9088 0.56621 0.89841 0.0
C151 C 0.85694 0.52859 0.83607 0.0
N152 N 0.88131 0.55279 0.81471 0.0
C153 C 0.86951 0.51653 0.74672 0.0
C154 C 0.84401 0.49147 0.76783 0.0
C155 C 0.8374 0.49793 0.8126 0.0
C156 C 0.88703 0.54784 0.77139 0.0
H157 H 0.85282 0.53226 0.87079 0.0
C158 C 0.89442 0.57622 0.93499 0.0
O159 O 0.87066 0.7041 0.95441 0.0
O160 O 0.83201 0.67382 0.90992 0.0
N161 N 0.92706 0.60388 0.77899 0.0
C162 C 0.95094 0.63258 0.76326 0.0
C163 C 0.95919 0.63226 0.71851 0.0
C164 C 0.94357 0.60163 0.69075 0.0
C165 C 0.91912 0.57233 0.7078 0.0
C166 C 0.91119 0.57509 0.75239 0.0
H167 H 0.96404 0.65496 0.78489 0.0
O168 O 0.88426 0.70767 0.8557 0.0
O169 O 0.88535 0.63734 0.84751 0.0
O170 O 0.93872 0.66502 0.91169 0.0
O171 O 0.95805 0.62136 0.85863 0.0
C172 C 0.90261 0.54015 0.68251 0.0
C173 C 0.87786 0.51221 0.70199 0.0
H174 H 0.82929 0.46732 0.74999 0.0
H175 H 0.81784 0.47864 0.82916 0.0
H176 H 0.97829 0.65472 0.7057 0.0
H177 H 0.95082 0.60062 0.65653 0.0
H178 H 0.90844 0.53692 0.64799 0.0
H179 H 0.865 0.48796 0.68224 0.0
Mn180 Mn 0.15307 0.34921 0.40933 0.0
Mn181 Mn 0.11794 0.4276 0.34557 0.0
C182 C 0.15362 0.34121 0.33332 0.0
C183 C 0.20027 0.31766 0.44702 0.0
C184 C 0.07358 0.36702 0.39943 0.0
O185 O 0.15254 0.4008 0.44997 0.0
O186 O 0.13104 0.45159 0.40421 0.0
C187 C 0.17646 0.48915 0.33398 0.0
N188 N 0.15217 0.46205 0.31638 0.0
C189 C 0.15951 0.49365 0.24518 0.0
C190 C 0.18523 0.52119 0.26238 0.0
C191 C 0.19398 0.51864 0.30692 0.0
C192 C 0.14401 0.46376 0.27338 0.0
H193 H 0.18185 0.48887 0.3685 0.0
C194 C 0.14332 0.43931 0.44129 0.0
O195 O 0.16789 0.31019 0.45784 0.0
O196 O 0.20553 0.34403 0.41485 0.0
N197 N 0.10445 0.40885 0.28844 0.0
C198 C 0.08047 0.37838 0.27675 0.0
C199 C 0.07081 0.37421 0.2326 0.0
C200 C 0.08518 0.40217 0.20128 0.0
C201 C 0.10963 0.43347 0.21426 0.0
C202 C 0.11918 0.435 0.25842 0.0
H203 H 0.06863 0.35774 0.30101 0.0
O204 O 0.15491 0.30815 0.35918 0.0
O205 O 0.15063 0.3785 0.35288 0.0
O206 O 0.09871 0.34464 0.41548 0.0
O207 O 0.07848 0.39711 0.37216 0.0
C208 C 0.12452 0.46365 0.18533 0.0
C209 C 0.14907 0.4941 0.20095 0.0
H210 H 0.19841 0.5444 0.24171 0.0
H211 H 0.21353 0.54008 0.32058 0.0
H212 H 0.05179 0.35013 0.22287 0.0
H213 H 0.07709 0.39949 0.16747 0.0
H214 H 0.11733 0.46369 0.15106 0.0
H215 H 0.16026 0.51727 0.17863 0.0
Mn216 Mn 0.88635 0.34927 0.09257 0.0
Mn217 Mn 0.9196 0.43044 0.15468 0.0
C218 C 0.88652 0.34319 0.16831 0.0
C219 C 0.84 0.31446 0.05655 0.0
C220 C 0.96552 0.36889 0.10485 0.0
O221 O 0.88482 0.39924 0.05058 0.0
O222 O 0.9085 0.45033 0.0942 0.0
C223 C 0.8589 0.49016 0.15832 0.0
N224 N 0.88385 0.46633 0.17912 0.0
C225 C 0.87396 0.50426 0.24678 0.0
C226 C 0.84783 0.52884 0.2262 0.0
C227 C 0.83998 0.52139 0.18191 0.0
C228 C 0.89101 0.47254 0.22198 0.0
H229 H 0.85389 0.48578 0.12389 0.0
C230 C 0.89512 0.43749 0.05796 0.0
O231 O 0.87252 0.30805 0.04542 0.0
O232 O 0.83416 0.34166 0.08796 0.0
N233 N 0.93132 0.41676 0.21377 0.0
C234 C 0.95544 0.3881 0.2292 0.0
C235 C 0.96438 0.38882 0.27378 0.0
C236 C 0.9493 0.41988 0.3016 0.0
C237 C 0.92486 0.4494 0.28474 0.0
C238 C 0.91601 0.446 0.24044 0.0
H239 H 0.96797 0.36523 0.2075 0.0
O240 O 0.88618 0.30948 0.14317 0.0
O241 O 0.88806 0.38025 0.14828 0.0
O242 O 0.94086 0.34735 0.08653 0.0
O243 O 0.95995 0.39816 0.13295 0.0
C244 C 0.9088 0.48195 0.31009 0.0
C245 C 0.88344 0.50947 0.29108 0.0
H246 H 0.83355 0.55341 0.24411 0.0
H247 H 0.81995 0.54036 0.16577 0.0
H248 H 0.98341 0.36611 0.28649 0.0
H249 H 0.9567 0.4208 0.3358 0.0
H250 H 0.91529 0.48561 0.34438 0.0
H251 H 0.8708 0.53383 0.31104 0.0
Mn252 Mn 0.15293 0.66744 0.59881 0.0
Mn253 Mn 0.11459 0.5915 0.66276 0.0
C254 C 0.15424 0.67487 0.675 0.0
C255 C 0.20094 0.69707 0.56098 0.0
C256 C 0.07333 0.65603 0.60889 0.0
O257 O 0.14887 0.61553 0.55782 0.0
O258 O 0.12754 0.56651 0.60544 0.0
C259 C 0.17146 0.5276 0.67503 0.0
N260 N 0.14743 0.55538 0.69236 0.0
C261 C 0.15303 0.52318 0.7635 0.0
C262 C 0.17818 0.49455 0.74657 0.0
C263 C 0.18773 0.49713 0.70225 0.0
C264 C 0.13876 0.55391 0.73518 0.0
H265 H 0.17779 0.52835 0.64061 0.0
C266 C 0.13911 0.57733 0.56774 0.0
O267 O 0.16873 0.70611 0.55067 0.0
O268 O 0.20559 0.66931 0.59215 0.0
N269 N 0.10129 0.61105 0.71968 0.0
C270 C 0.07792 0.64235 0.73109 0.0
C271 C 0.06784 0.64682 0.77503 0.0
C272 C 0.0811 0.61816 0.80645 0.0
C273 C 0.10482 0.58583 0.79382 0.0
C274 C 0.11481 0.584 0.74983 0.0
H275 H 0.06678 0.66322 0.70673 0.0
O276 O 0.15738 0.70792 0.64941 0.0
O277 O 0.14934 0.63813 0.65517 0.0
O278 O 0.09939 0.67723 0.59407 0.0
O279 O 0.07647 0.62423 0.63467 0.0
C280 C 0.11849 0.55491 0.82292 0.0
C281 C 0.1423 0.52331 0.80764 0.0
H282 H 0.19048 0.4707 0.76735 0.0
H283 H 0.20704 0.47508 0.68892 0.0
H284 H 0.04928 0.6716 0.7845 0.0
H285 H 0.07263 0.62103 0.84001 0.0
H286 H 0.11093 0.55516 0.85707 0.0
H287 H 0.15275 0.49982 0.83026 0.0
Mn288 Mn 0.67126 0.84087 0.07431 0.0
Mn289 Mn 0.75118 0.87186 0.11097 0.0
C290 C 0.68733 0.82434 0.14561 0.0
C291 C 0.61047 0.84975 0.06784 0.0
C292 C 0.74038 0.80043 0.04427 0.0
O293 O 0.68421 0.89044 0.03354 0.0
O294 O 0.73507 0.91182 0.06387 0.0
C295 C 0.74223 0.9596 0.14739 0.0
N296 N 0.75007 0.91714 0.15342 0.0
C297 C 0.76905 0.93071 0.22728 0.0
C298 C 0.76032 0.97428 0.22219 0.0
C299 C 0.74697 0.9888 0.18202 0.0
C300 C 0.76392 0.90312 0.19156 0.0
H301 H 0.73236 0.97113 0.11647 0.0
C302 C 0.71008 0.91661 0.03591 0.0
O303 O 0.62784 0.82544 0.04084 0.0
O304 O 0.62864 0.87175 0.09591 0.0
N305 N 0.76729 0.83607 0.15772 0.0
C306 C 0.77351 0.79288 0.15765 0.0
C307 C 0.78559 0.77291 0.19596 0.0
C308 C 0.7914 0.79761 0.2338 0.0
C309 C 0.78477 0.84202 0.23309 0.0
C310 C 0.77229 0.86001 0.19413 0.0
H311 H 0.76915 0.77382 0.12865 0.0
O312 O 0.66533 0.8005 0.12397 0.0
O313 O 0.70204 0.85494 0.12282 0.0
O314 O 0.70692 0.80098 0.04381 0.0
O315 O 0.75874 0.8258 0.06755 0.0
C316 C 0.78992 0.86911 0.26955 0.0
C317 C 0.78242 0.91351 0.26651 0.0
H318 H 0.76377 0.99687 0.24889 0.0
H319 H 0.74036 0.02243 0.17775 0.0
H320 H 0.79052 0.73859 0.19627 0.0
H321 H 0.80086 0.78212 0.26324 0.0
H322 H 0.79963 0.85614 0.3001 0.0
H323 H 0.78648 0.93401 0.29475 0.0
Mn324 Mn 0.36585 0.17201 0.57646 0.0
Mn325 Mn 0.28542 0.14392 0.61333 0.0
C326 C 0.35018 0.18972 0.64771 0.0
C327 C 0.4264 0.16165 0.57034 0.0
C328 C 0.29744 0.21486 0.54689 0.0
O329 O 0.35225 0.12209 0.53616 0.0
O330 O 0.30014 0.10395 0.56517 0.0
C331 C 0.29359 0.05569 0.64837 0.0
N332 N 0.28619 0.09819 0.65505 0.0
C333 C 0.26832 0.08446 0.72925 0.0
C334 C 0.27652 0.04078 0.72343 0.0
C335 C 0.28908 0.02633 0.68276 0.0
C336 C 0.27313 0.11219 0.69371 0.0
H337 H 0.30295 0.04424 0.61711 0.0
C338 C 0.32512 0.09778 0.53741 0.0
O339 O 0.40961 0.18625 0.54316 0.0
O340 O 0.40776 0.14019 0.59825 0.0
N341 N 0.27039 0.17961 0.6609 0.0
C342 C 0.26488 0.22294 0.66157 0.0
C343 C 0.25371 0.24286 0.70044 0.0
C344 C 0.2481 0.21798 0.73809 0.0
C345 C 0.25399 0.17342 0.7366 0.0
C346 C 0.2655 0.15546 0.69707 0.0
H347 H 0.26912 0.24214 0.63274 0.0
O348 O 0.37243 0.21286 0.62584 0.0
O349 O 0.33492 0.15926 0.62509 0.0
O350 O 0.33084 0.21247 0.54562 0.0
O351 O 0.27854 0.19075 0.57078 0.0
C352 C 0.24909 0.14617 0.77286 0.0
C353 C 0.25592 0.10165 0.76906 0.0
H354 H 0.27335 0.01809 0.74997 0.0
H355 H 0.2953 0.99264 0.67793 0.0
H356 H 0.24935 0.27729 0.70135 0.0
H357 H 0.23939 0.23344 0.76798 0.0
H358 H 0.24013 0.15912 0.80384 0.0
H359 H 0.25213 0.08104 0.79718 0.0
Mn360 Mn 0.67466 0.16749 0.928 0.0
Mn361 Mn 0.75595 0.13931 0.89241 0.0
C362 C 0.69246 0.18738 0.85796 0.0
C363 C 0.61352 0.1585 0.93269 0.0
C364 C 0.74274 0.20736 0.96194 0.0
O365 O 0.68666 0.11514 0.96599 0.0
O366 O 0.73913 0.09651 0.93609 0.0
C367 C 0.74919 0.05352 0.85089 0.0
N368 N 0.75669 0.09633 0.84756 0.0
C369 C 0.77956 0.08661 0.77479 0.0
C370 C 0.77123 0.0427 0.77707 0.0
C371 C 0.75599 0.0261 0.8153 0.0
C372 C 0.77198 0.11245 0.81119 0.0
H373 H 0.73801 0.04031 0.88039 0.0
C374 C 0.71278 0.08924 0.96135 0.0
O375 O 0.63054 0.18167 0.9609 0.0
O376 O 0.63204 0.1382 0.90362 0.0
N377 N 0.77276 0.17784 0.84844 0.0
C378 C 0.77814 0.22111 0.85101 0.0
C379 C 0.79144 0.24316 0.81457 0.0
C380 C 0.79938 0.22041 0.77605 0.0
C381 C 0.79358 0.17587 0.77418 0.0
C382 C 0.77966 0.1558 0.81127 0.0
H383 H 0.77224 0.23867 0.88058 0.0
O384 O 0.67017 0.2103 0.8802 0.0
O385 O 0.70677 0.15583 0.87972 0.0
O386 O 0.70932 0.2061 0.96157 0.0
O387 O 0.76184 0.18311 0.93835 0.0
C388 C 0.80103 0.15061 0.73698 0.0
C389 C 0.79442 0.10593 0.73747 0.0
H390 H 0.77629 0.02148 0.74962 0.0
H391 H 0.74963 0.99222 0.81738 0.0
H392 H 0.79573 0.27756 0.81624 0.0
H393 H 0.80988 0.23746 0.7481 0.0
H394 H 0.81192 0.1652 0.70785 0.0
H395 H 0.80029 0.08683 0.70869 0.0
Mn396 Mn 0.36491 0.84668 0.43291 0.0
Mn397 Mn 0.28357 0.87071 0.39513 0.0
C398 C 0.34912 0.82501 0.36285 0.0
C399 C 0.42539 0.85814 0.43765 0.0
C400 C 0.29755 0.80443 0.46603 0.0
O401 O 0.35093 0.89936 0.46973 0.0
O402 O 0.2983 0.91525 0.43867 0.0
C403 C 0.28838 0.9559 0.35228 0.0
N404 N 0.28281 0.91259 0.34938 0.0
C405 C 0.26458 0.91892 0.27427 0.0
C406 C 0.27119 0.96329 0.27611 0.0
C407 C 0.28292 0.98189 0.31538 0.0
C408 C 0.27032 0.89465 0.31216 0.0
H409 H 0.2971 0.97056 0.3824 0.0
C410 C 0.32419 0.9241 0.46423 0.0
O411 O 0.40906 0.83504 0.4665 0.0
O412 O 0.40634 0.87762 0.40867 0.0
N413 N 0.26899 0.83047 0.35123 0.0
C414 C 0.26428 0.78715 0.35465 0.0
C415 C 0.2536 0.76347 0.31784 0.0
C416 C 0.24763 0.7846 0.27797 0.0
C417 C 0.25263 0.82923 0.27523 0.0
C418 C 0.26375 0.85103 0.31288 0.0
H419 H 0.26876 0.77077 0.38517 0.0
O420 O 0.37169 0.80328 0.38578 0.0
O421 O 0.33336 0.85605 0.38403 0.0
O422 O 0.33093 0.80708 0.46627 0.0
O423 O 0.27809 0.82755 0.44178 0.0
C424 C 0.24711 0.85289 0.23658 0.0
C425 C 0.25272 0.89777 0.23623 0.0
H426 H 0.26728 0.98339 0.24763 0.0
H427 H 0.28778 0.01617 0.31719 0.0
H428 H 0.24988 0.72901 0.32021 0.0
H429 H 0.23925 0.76625 0.24968 0.0
H430 H 0.23846 0.83691 0.20697 0.0
H431 H 0.24829 0.91564 0.20636 0.0
Mn432 Mn 0.38413 0.15847 0.90739 0.0
Mn433 Mn 0.42625 0.08828 0.84073 0.0
C434 C 0.38673 0.17179 0.83251 0.0
C435 C 0.33515 0.18761 0.94403 0.0
C436 C 0.46503 0.14832 0.89973 0.0
O437 O 0.38328 0.10294 0.94253 0.0
O438 O 0.41597 0.06135 0.89855 0.0
C439 C 0.36734 0.027 0.82688 0.0
N440 N 0.39349 0.05224 0.81073 0.0
C441 C 0.38753 0.02112 0.73901 0.0
C442 C 0.36142 0.99356 0.75523 0.0
C443 C 0.35077 0.99717 0.79913 0.0
C444 C 0.40234 0.05095 0.76797 0.0
H445 H 0.35946 0.02953 0.86073 0.0
C446 C 0.39911 0.0675 0.93425 0.0
O447 O 0.36695 0.19356 0.95781 0.0
O448 O 0.33129 0.16325 0.90977 0.0
N449 N 0.43849 0.10909 0.78405 0.0
C450 C 0.46094 0.14141 0.77301 0.0
C451 C 0.47087 0.14643 0.72906 0.0
C452 C 0.45839 0.11744 0.6973 0.0
C453 C 0.43556 0.08416 0.70963 0.0
C454 C 0.42585 0.08156 0.75366 0.0
H455 H 0.47142 0.16281 0.79768 0.0
O456 O 0.3838 0.20315 0.86048 0.0
O457 O 0.39035 0.13359 0.8495 0.0
O458 O 0.43788 0.16447 0.91813 0.0
O459 O 0.46354 0.12174 0.86831 0.0
C460 C 0.42205 0.05343 0.68008 0.0
C461 C 0.39816 0.02179 0.69479 0.0
H462 H 0.34871 0.97038 0.73399 0.0
H463 H 0.33009 0.9767 0.81162 0.0
H464 H 0.48864 0.17203 0.71981 0.0
H465 H 0.46656 0.12099 0.66362 0.0
H466 H 0.42932 0.05437 0.64584 0.0
H467 H 0.38717 0.99913 0.67156 0.0
Mn468 Mn 0.6538 0.85246 0.40637 0.0
Mn469 Mn 0.6172 0.92912 0.34223 0.0
C470 C 0.65195 0.84297 0.33072 0.0
C471 C 0.70117 0.81866 0.44157 0.0
C472 C 0.57374 0.87005 0.39635 0.0
O473 O 0.65654 0.90444 0.4459 0.0
O474 O 0.62748 0.95121 0.40249 0.0
C475 C 0.67631 0.99097 0.33762 0.0
N476 N 0.6519 0.96595 0.31725 0.0
C477 C 0.66107 1.00245 0.24886 0.0
C478 C 0.68654 0.02839 0.26902 0.0
C479 C 0.6945 0.02224 0.31345 0.0
C480 C 0.64475 0.97081 0.27424 0.0
H481 H 0.68148 0.98749 0.37212 0.0
C482 C 0.6432 0.94124 0.43823 0.0
O483 O 0.66903 0.81335 0.45461 0.0
O484 O 0.70615 0.84435 0.4088 0.0
N485 N 0.60604 0.91366 0.28335 0.0
C486 C 0.58266 0.88386 0.26839 0.0
C487 C 0.57368 0.88336 0.22382 0.0
C488 C 0.58791 0.91439 0.19551 0.0
C489 C 0.61158 0.94508 0.21187 0.0
C490 C 0.62053 0.94292 0.25621 0.0
H491 H 0.57073 0.861 0.29043 0.0
O492 O 0.65247 0.8104 0.35722 0.0
O493 O 0.65045 0.88077 0.34938 0.0
O494 O 0.59949 0.85181 0.41598 0.0
O495 O 0.57794 0.89512 0.36419 0.0
C496 C 0.62683 0.97759 0.18596 0.0
C497 C 0.65152 1.00632 0.20446 0.0
H498 H 0.70024 0.05298 0.25066 0.0
H499 H 0.71407 0.04219 0.32924 0.0
H500 H 0.55525 0.85974 0.2115 0.0
H501 H 0.58044 0.91438 0.16133 0.0
H502 H 0.62027 0.98027 0.15161 0.0
H503 H 0.66358 0.03061 0.18403 0.0
Mn504 Mn 0.38251 0.84427 0.10146 0.0
Mn505 Mn 0.42152 0.922 0.16286 0.0
C506 C 0.38433 0.83682 0.17719 0.0
C507 C 0.33381 0.81377 0.06586 0.0
C508 C 0.46187 0.86055 0.10453 0.0
O509 O 0.38334 0.89613 0.06125 0.0
O510 O 0.40391 0.94808 0.10679 0.0
C511 C 0.3654 0.98415 0.18634 0.0
N512 N 0.39079 0.95585 0.19868 0.0
C513 C 0.39093 0.98455 0.27201 0.0
C514 C 0.36458 0.01382 0.25995 0.0
C515 C 0.35143 0.0132 0.21705 0.0
C516 C 0.40302 0.95553 0.24024 0.0
H517 H 0.35619 0.98461 0.15335 0.0
C518 C 0.39223 0.93501 0.06943 0.0
O519 O 0.36575 0.80551 0.05378 0.0
O520 O 0.32972 0.84077 0.09797 0.0
N521 N 0.43963 0.90025 0.21688 0.0
C522 C 0.46355 0.86825 0.22364 0.0
C523 C 0.4767 0.86127 0.26597 0.0
C524 C 0.46575 0.88791 0.30062 0.0
C525 C 0.44124 0.92079 0.29273 0.0
C526 C 0.42822 0.92522 0.25015 0.0
H527 H 0.47267 0.84842 0.19688 0.0
O528 O 0.38114 0.80357 0.15165 0.0
O529 O 0.38772 0.8738 0.15739 0.0
O530 O 0.43622 0.83671 0.0928 0.0
O531 O 0.45825 0.89264 0.12975 0.0
C532 C 0.42945 0.94961 0.32527 0.0
C533 C 0.40462 0.98182 0.31478 0.0
H534 H 0.35393 0.03647 0.28349 0.0
H535 H 0.331 0.03557 0.20748 0.0
H536 H 0.49571 0.83594 0.27174 0.0
H537 H 0.47641 0.88293 0.33306 0.0
H538 H 0.43928 0.94729 0.35842 0.0
H539 H 0.39554 1.0036 0.3401 0.0
Mn540 Mn 0.65487 0.16718 0.59774 0.0
Mn541 Mn 0.61983 0.08925 0.6615 0.0
C542 C 0.65445 0.17529 0.6735 0.0
C543 C 0.70109 0.20132 0.56054 0.0
C544 C 0.5751 0.14925 0.60975 0.0
O545 O 0.65673 0.11585 0.55716 0.0
O546 O 0.62917 0.06801 0.60074 0.0
C547 C 0.67942 0.02772 0.66366 0.0
N548 N 0.65515 0.05227 0.68501 0.0
C549 C 0.66529 0.01442 0.75244 0.0
C550 C 0.69068 0.98903 0.73131 0.0
C551 C 0.69807 0.99608 0.68686 0.0
C552 C 0.64858 0.04658 0.72805 0.0
H553 H 0.68409 0.03185 0.62914 0.0
C554 C 0.64396 0.07876 0.56465 0.0
O555 O 0.66843 0.20662 0.54955 0.0
O556 O 0.70728 0.1754 0.59288 0.0
N557 N 0.6096 0.10387 0.72086 0.0
C558 C 0.58635 0.13338 0.73686 0.0
C559 C 0.57793 0.13303 0.7816 0.0
C560 C 0.59258 0.10145 0.80898 0.0
C561 C 0.61622 0.07118 0.79158 0.0
C562 C 0.62458 0.07417 0.74713 0.0
H563 H 0.57405 0.15661 0.71549 0.0
O564 O 0.6546 0.20843 0.6477 0.0
O565 O 0.65274 0.13784 0.65414 0.0
O566 O 0.60043 0.16815 0.59008 0.0
O567 O 0.57992 0.12325 0.64102 0.0
C568 C 0.63184 0.03814 0.81651 0.0
C569 C 0.65634 0.00974 0.79697 0.0
H570 H 0.70475 0.96417 0.74891 0.0
H571 H 0.71755 0.97652 0.6703 0.0
H572 H 0.55955 0.15636 0.79475 0.0
H573 H 0.58539 0.10065 0.84324 0.0
H574 H 0.62564 0.03475 0.85087 0.0
H575 H 0.66873 0.98509 0.81669 0.0
C576 C 0.0559 0.31723 0.08604 0.0
C577 C 0.07637 0.35444 0.0765 0.0
C578 C 0.02322 0.39922 0.07893 0.0
C579 C 1.00303 0.36261 0.09186 0.0
N580 N 1.00111 0.28835 0.11434 0.0
N581 N 0.08049 0.43098 0.06547 0.0
C582 C 0.01949 0.32184 0.0965 0.0
C583 C 0.06022 0.3954 0.07323 0.0
N584 N 0.07135 0.27744 0.08618 0.0
N585 N 1.0069 0.43774 0.07113 0.0
H586 H 0.10694 0.42923 0.05654 0.0
H587 H 0.07178 0.46249 0.06971 0.0
H588 H 0.98029 0.44322 0.07662 0.0
H589 H 1.01899 0.46387 0.05618 0.0
H590 H 0.05721 0.24878 0.08693 0.0
H591 H 0.09833 0.27255 0.08299 0.0
H592 H 1.01253 0.25935 0.12373 0.0
H593 H 0.97474 0.29055 0.12339 0.0
C594 C 0.97814 0.69293 0.61322 0.0
C595 C 0.9634 0.66524 0.58086 0.0
C596 C 0.02281 0.64371 0.55802 0.0
C597 C 0.03704 0.66643 0.59418 0.0
N598 N 0.02992 0.71578 0.65395 0.0
N599 N 0.97104 0.6132 0.52317 0.0
C600 C 1.01513 0.69225 0.62094 0.0
C601 C 0.9856 0.6407 0.55306 0.0
N602 N 0.95678 0.72054 0.63585 0.0
N603 N 0.04511 0.62575 0.52802 0.0
H604 H 0.94395 0.61076 0.5183 0.0
H605 H 0.98547 0.59081 0.50522 0.0
H606 H 0.07239 0.6283 0.53062 0.0
H607 H 0.03685 0.61176 0.49884 0.0
H608 H 0.96572 0.74403 0.65739 0.0
H609 H 0.92973 0.72191 0.63109 0.0
H610 H 1.01573 0.73099 0.67864 0.0
H611 H 0.0571 0.7193 0.65708 0.0
C612 C 1.01774 0.69047 0.90923 0.0
C613 C 1.00101 0.64965 0.90592 0.0
C614 C 0.05599 0.61455 0.93002 0.0
C615 C 0.07357 0.65442 0.92812 0.0
N616 N 0.07274 0.73003 0.91012 0.0
N617 N 1.00724 0.57144 0.90607 0.0
C618 C 0.0548 0.69248 0.91679 0.0
C619 C 0.02094 0.61133 0.91434 0.0
N620 N 0.99863 0.72737 0.90373 0.0
N621 N 0.07263 0.57964 0.94775 0.0
H622 H 0.98117 0.56557 0.89791 0.0
H623 H 0.02256 0.54361 0.90507 0.0
H624 H 0.09832 0.58093 0.95974 0.0
H625 H 0.05987 0.55079 0.95471 0.0
H626 H 1.00823 0.75785 0.91143 0.0
H627 H 0.97247 0.72768 0.89366 0.0
H628 H 0.06146 0.75744 0.89648 0.0
H629 H 0.09974 0.73307 0.91493 0.0
C630 C 1.01763 0.39796 0.43065 0.0
C631 C 0.0365 0.36127 0.41485 0.0
C632 C 0.98274 0.31768 0.42199 0.0
C633 C 0.96326 0.35541 0.43311 0.0
N634 N 0.96147 0.43168 0.44696 0.0
N635 N 0.03602 0.28754 0.39026 0.0
C636 C 0.98063 0.39551 0.43738 0.0
C637 C 1.01895 0.32125 0.40986 0.0
N638 N 0.03524 0.43521 0.4401 0.0
N639 N 0.96652 0.27843 0.42197 0.0
H640 H 0.06219 0.28899 0.38023 0.0
H641 H 0.02366 0.25922 0.38057 0.0
H642 H 0.93971 0.27437 0.42744 0.0
H643 H 0.98003 0.24935 0.41952 0.0
H644 H 0.02417 0.46107 0.45689 0.0
H645 H 0.06195 0.43945 0.4343 0.0
H646 H 0.97109 0.46287 0.44384 0.0
H647 H 0.9351 0.43071 0.45632 0.0
C648 C 0.51694 0.81527 0.0962 0.0
C649 C 0.49806 0.85364 0.08704 0.0
C650 C 0.55264 0.88833 0.0619 0.0
C651 C 0.57136 0.84969 0.06984 0.0
N652 N 0.57073 0.77396 0.08793 0.0
N653 N 0.49637 0.92355 0.05263 0.0
C654 C 0.5532 0.81225 0.08436 0.0
C655 C 0.5155 0.8891 0.06709 0.0
N656 N 0.50107 0.783 0.11924 0.0
N657 N 0.57051 0.92484 0.05065 0.0
H658 H 0.46928 0.92608 0.05683 0.0
H659 H 0.50673 0.94796 0.03326 0.0
H660 H 0.59744 0.92513 0.04438 0.0
H661 H 0.55918 0.95537 0.05019 0.0
H662 H 0.51452 0.75665 0.13196 0.0
H663 H 0.47474 0.78395 0.12867 0.0
H664 H 0.55816 0.74466 0.09316 0.0
H665 H 0.59767 0.77069 0.08272 0.0
C666 C 0.51795 0.11648 0.5835 0.0
C667 C 0.53799 0.15411 0.59414 0.0
C668 C 0.48448 0.19807 0.58569 0.0
C669 C 0.46541 0.16072 0.57285 0.0
N670 N 0.46572 0.08692 0.54939 0.0
N671 N 0.54096 0.2316 0.60002 0.0
C672 C 0.48277 0.12078 0.56863 0.0
C673 C 0.52155 0.19524 0.59291 0.0
N674 N 0.53182 0.07617 0.58884 0.0
N675 N 0.46684 0.23559 0.59415 0.0
H676 H 0.56723 0.23109 0.60963 0.0
H677 H 0.53154 0.26252 0.59398 0.0
H678 H 0.43986 0.23924 0.58949 0.0
H679 H 0.47835 0.26228 0.60897 0.0
H680 H 0.51663 0.04829 0.58822 0.0
H681 H 0.55803 0.06996 0.59612 0.0
H682 H 0.47818 0.05826 0.54068 0.0
H683 H 0.43992 0.08911 0.53799 0.0
C684 C 0.55782 0.19148 0.90352 0.0
C685 C 0.57445 0.15976 0.93 0.0
C686 C 0.51721 0.12613 0.94436 0.0
C687 C 0.50079 0.15724 0.91702 0.0
N688 N 0.50329 0.22372 0.87742 0.0
N689 N 0.57028 0.10146 0.98129 0.0
C690 C 0.5205 0.19139 0.89892 0.0
C691 C 0.55415 0.12855 0.95235 0.0
N692 N 0.5779 0.22074 0.88148 0.0
N693 N 0.49747 0.09342 0.96134 0.0
H694 H 0.59734 0.10197 0.98699 0.0
H695 H 0.55694 0.0803 0.0017 0.0
H696 H 0.47015 0.09247 0.95853 0.0
H697 H 0.50792 0.06662 0.97703 0.0
H698 H 0.56825 0.24119 0.85741 0.0
H699 H 0.60496 0.22335 0.88581 0.0
H700 H 0.51533 0.25176 0.86651 0.0
H701 H 0.47602 0.22406 0.87352 0.0
C702 C 0.48144 0.89943 0.43731 0.0
C703 C 0.46436 0.85928 0.43464 0.0
C704 C 0.52063 0.82435 0.41554 0.0
C705 C 0.53682 0.8655 0.41276 0.0
N706 N 0.53023 0.94356 0.41548 0.0
N707 N 0.46616 0.78369 0.41634 0.0
C708 C 0.51658 0.90339 0.42218 0.0
C709 C 0.48362 0.8216 0.42313 0.0
N710 N 0.46424 0.93381 0.45548 0.0
N711 N 0.54022 0.78787 0.40954 0.0
H712 H 0.43925 0.78007 0.42151 0.0
H713 H 0.47774 0.7565 0.40247 0.0
H714 H 0.56645 0.78817 0.39975 0.0
H715 H 0.53102 0.75713 0.4167 0.0
H716 H 0.47648 0.96289 0.46298 0.0
H717 H 0.43855 0.93179 0.46735 0.0
H718 H 0.51489 0.97137 0.41516 0.0
H719 H 0.5564 0.94964 0.40797 0.0
C720 C 0.17415 0.2907 0.22162 0.0
C721 C 0.18812 0.32623 0.19802 0.0
C722 C 0.18724 0.36701 0.26672 0.0
C723 C 0.16511 0.3361 0.2866 0.0
N724 N 0.13229 0.26997 0.27721 0.0
N725 N 0.19452 0.40403 0.19887 0.0
C726 C 0.15708 0.29815 0.26247 0.0
C727 C 0.19117 0.36619 0.22064 0.0
N728 N 0.17749 0.24986 0.20561 0.0
N729 N 0.20494 0.39656 0.29128 0.0
H730 H 0.18827 0.40782 0.16605 0.0
H731 H 0.19952 0.43285 0.21486 0.0
H732 H 0.20669 0.39474 0.32521 0.0
H733 H 0.22097 0.42005 0.27768 0.0
H734 H 0.16965 0.22284 0.22327 0.0
H735 H 0.19196 0.2429 0.17746 0.0
H736 H 0.12395 0.24361 0.25876 0.0
H737 H 0.11718 0.27576 0.30507 0.0
C738 C 0.84454 0.64962 0.71806 0.0
C739 C 0.84799 0.68886 0.69452 0.0
C740 C 0.87905 0.71841 0.75839 0.0
C741 C 0.87086 0.68101 0.78309 0.0
N742 N 0.82992 0.62177 0.78926 0.0
N743 N 0.8587 0.76544 0.70066 0.0
C744 C 0.84815 0.65019 0.76404 0.0
C745 C 0.86197 0.72497 0.71743 0.0
N746 N 0.84148 0.61107 0.6974 0.0
N747 N 0.90399 0.74674 0.77251 0.0
H748 H 0.84411 0.77178 0.6725 0.0
H749 H 0.86668 0.79283 0.71776 0.0
H750 H 0.91906 0.74161 0.80048 0.0
H751 H 0.91241 0.77259 0.75351 0.0
H752 H 0.83616 0.5829 0.71424 0.0
H753 H 0.84864 0.6059 0.66503 0.0
H754 H 0.81364 0.5982 0.77614 0.0
H755 H 0.82783 0.62492 0.82308 0.0
C756 C 0.17423 0.72087 0.78871 0.0
C757 C 0.18721 0.68396 0.81102 0.0
C758 C 0.18696 0.64609 0.74067 0.0
C759 C 0.16558 0.67841 0.72177 0.0
N760 N 0.13418 0.74542 0.73259 0.0
N761 N 0.19336 0.6062 0.80696 0.0
C762 C 0.15792 0.71571 0.74706 0.0
C763 C 0.19036 0.64495 0.78677 0.0
N764 N 0.17783 0.76086 0.80673 0.0
N765 N 0.20426 0.61691 0.7151 0.0
H766 H 0.18662 0.60103 0.83944 0.0
H767 H 0.19883 0.57804 0.78998 0.0
H768 H 0.20596 0.61976 0.68123 0.0
H769 H 0.22 0.59259 0.72781 0.0
H770 H 0.1708 0.78888 0.79015 0.0
H771 H 0.19176 0.76612 0.83565 0.0
H772 H 0.12591 0.77131 0.7518 0.0
H773 H 0.11986 0.7415 0.70379 0.0
C774 C 0.885 0.30124 0.23957 0.0
C775 C 0.876 0.33861 0.21507 0.0
C776 C 0.85299 0.3706 0.28137 0.0
C777 C 0.85593 0.33131 0.30445 0.0
N778 N 0.86605 0.25452 0.2982 0.0
N779 N 0.8353 0.39944 0.21332 0.0
C780 C 0.86915 0.29493 0.28129 0.0
C781 C 0.85474 0.37009 0.23565 0.0
N782 N 0.90957 0.27276 0.22452 0.0
N783 N 0.85069 0.40917 0.30202 0.0
H784 H 0.83151 0.39875 0.17956 0.0
H785 H 0.83151 0.39875 0.17956 0.0
H786 H 0.85815 0.41409 0.33437 0.0
H787 H 0.84468 0.43698 0.28476 0.0
H788 H 0.91839 0.24686 0.2432 0.0
H789 H 0.92416 0.27797 0.19617 0.0
H790 H 0.87345 0.22705 0.28078 0.0
H791 H 0.8521 0.24828 0.32686 0.0
C792 C 0.65436 0.7984 0.26045 0.0
C793 C 0.66277 0.8367 0.284 0.0
C794 C 0.68464 0.86736 0.2165 0.0
C795 C 0.68218 0.82746 0.19424 0.0
N796 N 0.67309 0.75076 0.20201 0.0
N797 N 0.70233 0.89861 0.28356 0.0
C798 C 0.6698 0.79144 0.21843 0.0
C799 C 0.68331 0.86806 0.26228 0.0
N800 N 0.63057 0.76967 0.27656 0.0
N801 N 0.68573 0.90542 0.19499 0.0
H802 H 0.70645 0.89906 0.31726 0.0
H803 H 0.70645 0.89906 0.31726 0.0
H804 H 0.67783 0.9092 0.16266 0.0
H805 H 0.69085 0.93392 0.21164 0.0
H806 H 0.62203 0.74308 0.25861 0.0
H807 H 0.61625 0.77515 0.30509 0.0
H808 H 0.66643 0.7235 0.22002 0.0
H809 H 0.68639 0.74426 0.17289 0.0
C810 C 0.38312 0.21677 0.76273 0.0
C811 C 0.3753 0.17834 0.78608 0.0
C812 C 0.35309 0.14715 0.71871 0.0
C813 C 0.35558 0.18691 0.69637 0.0
N814 N 0.36454 0.26368 0.7038 0.0
N815 N 0.33658 0.11573 0.78607 0.0
C816 C 0.36789 0.22319 0.72048 0.0
C817 C 0.35494 0.1466 0.76449 0.0
N818 N 0.40606 0.24626 0.77946 0.0
N819 N 0.35112 0.10901 0.6972 0.0
H820 H 0.333 0.11524 0.81987 0.0
H821 H 0.333 0.11524 0.81987 0.0
H822 H 0.35859 0.10487 0.66475 0.0
H823 H 0.34532 0.08074 0.71378 0.0
H824 H 0.41453 0.27292 0.76172 0.0
H825 H 0.41957 0.24157 0.80871 0.0
H826 H 0.37096 0.2912 0.72166 0.0
H827 H 0.35142 0.26981 0.6745 0.0
C828 C 0.67443 0.22292 0.78685 0.0
C829 C 0.68773 0.18614 0.80911 0.0
C830 C 0.68824 0.14858 0.7389 0.0
C831 C 0.6664 0.18027 0.71989 0.0
N832 N 0.63377 0.2465 0.73098 0.0
N833 N 0.69254 0.10841 0.80493 0.0
C834 C 0.65813 0.21745 0.74519 0.0
C835 C 0.69091 0.14726 0.7849 0.0
N836 N 0.67756 0.26294 0.80489 0.0
N837 N 0.70641 0.11994 0.71368 0.0
H838 H 0.68461 0.10331 0.83703 0.0
H839 H 0.69743 0.08028 0.78769 0.0
H840 H 0.70947 0.12368 0.68004 0.0
H841 H 0.72163 0.09537 0.7268 0.0
H842 H 0.67014 0.29082 0.78833 0.0
H843 H 0.69151 0.26843 0.83375 0.0
H844 H 0.62525 0.2722 0.75029 0.0
H845 H 0.61916 0.24212 0.70249 0.0
C846 C 0.38324 0.79555 0.24901 0.0
C847 C 0.37435 0.83283 0.22431 0.0
C848 C 0.3518 0.86562 0.29069 0.0
C849 C 0.35494 0.82657 0.31425 0.0
N850 N 0.36571 0.74991 0.30935 0.0
N851 N 0.33468 0.89463 0.22241 0.0
C852 C 0.36814 0.78996 0.2914 0.0
C853 C 0.35357 0.86483 0.2449 0.0
N854 N 0.40697 0.76637 0.23328 0.0
N855 N 0.34917 0.90435 0.31101 0.0
H856 H 0.33122 0.89421 0.18859 0.0
H857 H 0.33122 0.89421 0.18859 0.0
H858 H 0.35674 0.90971 0.34325 0.0
H859 H 0.34262 0.9319 0.29359 0.0
H860 H 0.4161 0.7406 0.2519 0.0
H861 H 0.42047 0.77071 0.20395 0.0
H862 H 0.37283 0.72208 0.29237 0.0
H863 H 0.35266 0.74424 0.33879 0.0
C864 C 0.28937 0.19661 0.00322 0.0
C865 C 0.30536 0.21176 0.96427 0.0
C866 C 0.27581 0.28165 0.97335 0.0
C867 C 0.25981 0.2667 0.01244 0.0
N868 N 0.24498 0.20736 0.05953 0.0
N869 N 0.30735 0.26422 0.90651 0.0
C870 C 0.26439 0.22317 0.02559 0.0
C871 C 0.29632 0.25282 0.94742 0.0
N872 N 0.29904 0.15743 0.01959 0.0
N873 N 0.27245 0.32395 0.96185 0.0
H874 H 0.32256 0.24399 0.88685 0.0
H875 H 0.29889 0.29186 0.89044 0.0
H876 H 0.25672 0.34553 0.97919 0.0
H877 H 0.2868 0.33833 0.93686 0.0
H878 H 0.29175 0.14642 0.05039 0.0
H879 H 0.31604 0.13661 0.00302 0.0
H880 H 0.24461 0.17502 0.06835 0.0
H881 H 0.22695 0.2261 0.07691 0.0
C882 C 0.76094 0.72456 0.46978 0.0
C883 C 0.77878 0.74086 0.50711 0.0
C884 C 0.74876 0.81059 0.49834 0.0
C885 C 0.73056 0.79391 0.46154 0.0
N886 N 0.72505 0.73942 0.40585 0.0
N887 N 0.79543 0.80136 0.55196 0.0
C888 C 0.73859 0.75227 0.44518 0.0
C889 C 0.77471 0.7847 0.51958 0.0
N890 N 0.76448 0.68208 0.4588 0.0
N891 N 0.74023 0.85059 0.51388 0.0
H892 H 0.81401 0.78305 0.56877 0.0
H893 H 0.7962 0.83388 0.56014 0.0
H894 H 0.72238 0.87084 0.49811 0.0
H895 H 0.74934 0.86302 0.54339 0.0
H896 H 0.749 0.66662 0.43552 0.0
H897 H 0.78192 0.66148 0.47474 0.0
H898 H 0.73255 0.71128 0.3898 0.0
H899 H 0.70835 0.75877 0.38726 0.0
C900 C 0.29633 0.74779 0.06125 0.0
C901 C 0.30383 0.78987 0.0461 0.0
C902 C 0.26047 0.78069 0.98706 0.0
C903 C 0.25721 0.73645 0.99821 0.0
N904 N 0.27275 0.67704 0.04497 0.0
N905 N 0.29382 0.84716 0.99485 0.0
C906 C 0.27509 0.7199 0.03536 0.0
C907 C 0.28572 0.8068 0.00939 0.0
N908 N 0.30936 0.73468 0.10071 0.0
N909 N 0.23974 0.79753 0.95484 0.0
H910 H 0.31116 0.86746 0.01144 0.0
H911 H 0.28487 0.85985 0.96542 0.0
H912 H 0.22175 0.77912 0.93716 0.0
H913 H 0.23838 0.83022 0.94767 0.0
H914 H 0.30218 0.70603 0.11585 0.0
H915 H 0.32498 0.75438 0.12036 0.0
H916 H 0.28838 0.66172 0.06814 0.0
H917 H 0.2564 0.65606 0.02783 0.0
C918 C 0.75442 0.25087 0.55485 0.0
C919 C 0.72951 0.22287 0.53502 0.0
C920 C 0.74283 0.25369 0.46381 0.0
C921 C 0.77081 0.27889 0.48189 0.0
N922 N 0.80467 0.29825 0.54612 0.0
N923 N 0.71026 0.18726 0.46944 0.0
C924 C 0.77749 0.27585 0.5278 0.0
C925 C 0.72748 0.22067 0.48912 0.0
N926 N 0.75459 0.25589 0.59925 0.0
N927 N 0.72826 0.26287 0.42415 0.0
H928 H 0.69926 0.16195 0.48718 0.0
H929 H 0.71069 0.18231 0.4357 0.0
H930 H 0.73277 0.29114 0.40732 0.0
H931 H 0.70665 0.24627 0.41166 0.0
H932 H 0.76907 0.27953 0.61535 0.0
H933 H 0.73827 0.23844 0.62003 0.0
H934 H 0.8135 0.29293 0.57788 0.0
H935 H 0.81943 0.321 0.52924 0.0
C936 C 0.76837 0.72877 0.02807 0.0
C937 C 0.75984 0.7711 0.01431 0.0
C938 C 0.79699 0.76184 0.94912 0.0
C939 C 0.80918 0.72199 0.96597 0.0
N940 N 0.80748 0.66702 0.02131 0.0
N941 N 0.76603 0.82904 0.96268 0.0
C942 C 0.79492 0.70512 0.00528 0.0
C943 C 0.7739 0.78777 0.97481 0.0
N944 N 0.75079 0.71124 0.06269 0.0
N945 N 0.8073 0.77468 0.90834 0.0
H946 H 0.74771 0.84805 0.97928 0.0
H947 H 0.77874 0.84531 0.93753 0.0
H948 H 0.82477 0.75697 0.88907 0.0
H949 H 0.79665 0.80106 0.89212 0.0
H950 H 0.75337 0.67932 0.07241 0.0
H951 H 0.73124 0.72789 0.07974 0.0
H952 H 0.80124 0.65503 0.05208 0.0
H953 H 0.8258 0.64815 0.00454 0.0
C954 C 0.26994 0.28694 0.53167 0.0
C955 C 0.2786 0.24485 0.51709 0.0
C956 C 0.24239 0.25552 0.45137 0.0
C957 C 0.22978 0.29489 0.46911 0.0
N958 N 0.2307 0.34864 0.52595 0.0
N959 N 0.2731 0.188 0.46384 0.0
C960 C 0.24357 0.31098 0.50908 0.0
C961 C 0.26513 0.22904 0.47684 0.0
N962 N 0.28725 0.3039 0.56686 0.0
N963 N 0.23275 0.24365 0.40999 0.0
H964 H 0.29104 0.16855 0.48046 0.0
H965 H 0.26078 0.17233 0.43793 0.0
H966 H 0.21571 0.26191 0.39077 0.0
H967 H 0.24368 0.21764 0.39328 0.0
H968 H 0.28453 0.33564 0.57727 0.0
H969 H 0.30679 0.287 0.58359 0.0
H970 H 0.23656 0.35994 0.55716 0.0
H971 H 0.21252 0.36779 0.50936 0.0
C972 C 0.78844 0.30818 0.00515 0.0
C973 C 0.81108 0.28901 0.03651 0.0
C974 C 0.78033 0.22003 0.02754 0.0
C975 C 0.76138 0.23745 0.99182 0.0
N976 N 0.74672 0.29762 0.94578 0.0
N977 N 0.82917 0.22696 0.07813 0.0
C978 C 0.76481 0.28164 0.98081 0.0
C979 C 0.80701 0.24503 0.04808 0.0
N980 N 0.78972 0.35168 0.99858 0.0
N981 N 0.77209 0.17976 0.04228 0.0
H982 H 0.84766 0.24471 0.09572 0.0
H983 H 0.83056 0.19405 0.08421 0.0
H984 H 0.75208 0.1613 0.02834 0.0
H985 H 0.78252 0.16618 0.07052 0.0
H986 H 0.77173 0.36849 0.97945 0.0
H987 H 0.8075 0.37169 0.01476 0.0
H988 H 0.75105 0.32794 0.93246 0.0
H989 H 0.72826 0.27953 0.92847 0.0
C990 C 0.25287 0.70313 0.50969 0.0
C991 C 0.23061 0.72204 0.54174 0.0
C992 C 0.26103 0.79131 0.53254 0.0
C993 C 0.27943 0.77414 0.49619 0.0
N994 N 0.29436 0.71398 0.45004 0.0
N995 N 0.21336 0.78381 0.58469 0.0
C996 C 0.27621 0.72987 0.48515 0.0
C997 C 0.2349 0.766 0.5537 0.0
N998 N 0.25144 0.65971 0.50263 0.0
N999 N 0.26926 0.83167 0.54725 0.0
H1000 H 0.19554 0.76583 0.60298 0.0
H1001 H 0.21189 0.81669 0.59108 0.0
H1002 H 0.2888 0.8504 0.53277 0.0
H1003 H 0.2593 0.84514 0.57588 0.0
H1004 H 0.26892 0.64293 0.48271 0.0
H1005 H 0.23398 0.63976 0.51925 0.0
H1006 H 0.29035 0.68354 0.43671 0.0
H1007 H 0.31274 0.73221 0.43283 0.0
C1008 C 0.20495 0.50669 0.95736 0.0
C1009 C 0.20872 0.54392 0.98408 0.0
C1010 C 0.20539 0.49754 0.04867 0.0
C1011 C 0.21025 0.46048 0.02196 0.0
N1012 N 0.21431 0.42984 0.94967 0.0
N1013 N 0.21244 0.57469 0.05635 0.0
C1014 C 0.20981 0.46503 0.97587 0.0
C1015 C 0.20881 0.53935 0.03014 0.0
N1016 N 0.19423 0.51097 0.915 0.0
N1017 N 0.1949 0.49289 0.09106 0.0
H1018 H 0.21321 0.60593 0.0441 0.0
H1019 H 0.21685 0.57262 0.08992 0.0
H1020 H 0.18998 0.46288 0.10504 0.0
H1021 H 0.18773 0.51884 0.11073 0.0
H1022 H 0.1879 0.48483 0.89513 0.0
H1023 H 0.18837 0.54082 0.90116 0.0
H1024 H 0.21825 0.432 0.91602 0.0
H1025 H 0.21629 0.3987 0.96201 0.0
C1026 C 0.8329 0.54628 0.47351 0.0
C1027 C 0.83018 0.54971 0.5196 0.0
C1028 C 0.8259 0.47098 0.52511 0.0
C1029 C 0.82873 0.46751 0.47911 0.0
N1030 N 0.85011 0.50057 0.41296 0.0
N1031 N 0.84065 0.51414 0.58832 0.0
C1032 C 0.83666 0.50481 0.45415 0.0
C1033 C 0.83146 0.51169 0.54529 0.0
N1034 N 0.83141 0.58226 0.44806 0.0
N1035 N 0.81742 0.4358 0.54959 0.0
H1036 H 0.84718 0.54323 0.60342 0.0
H1037 H 0.84518 0.48699 0.60743 0.0
H1038 H 0.81331 0.40542 0.5359 0.0
H1039 H 0.81179 0.43776 0.5829 0.0
H1040 H 0.82954 0.58093 0.41408 0.0
H1041 H 0.82963 0.61323 0.46106 0.0
H1042 H 0.85953 0.52653 0.39493 0.0
H1043 H 0.85506 0.47061 0.39867 0.0
C1044 C 0.92384 0.48256 0.00213 0.0
C1045 C 0.89253 0.46929 0.02255 0.0
C1046 C 0.86024 0.52548 0.98326 0.0
C1047 C 0.89291 0.54237 0.96865 0.0
N1048 N 0.95579 0.54441 0.97718 0.0
N1049 N 0.83039 0.47886 0.03505 0.0
C1050 C 0.92477 0.52301 0.98177 0.0
C1051 C 0.86041 0.49094 0.01386 0.0
N1052 N 0.95224 0.4558 1.00059 0.0
N1053 N 0.82937 0.54132 0.96702 0.0
H1054 H 0.82943 0.45229 0.05583 0.0
H1055 H 0.80707 0.49645 0.03379 0.0
H1056 H 0.8283 0.56673 0.94484 0.0
H1057 H 0.805 0.52731 0.97314 0.0
H1058 H 0.975 0.46329 0.98315 0.0
H1059 H 0.95111 0.42433 0.01245 0.0
H1060 H 0.97957 0.5324 0.98909 0.0
H1061 H 0.95658 0.57638 0.9668 0.0
C1062 C 0.11578 0.47613 0.50497 0.0
C1063 C 0.14495 0.47157 0.47681 0.0
C1064 C 0.17322 0.53326 0.5125 0.0
C1065 C 0.1411 0.54245 0.53457 0.0
N1066 N 0.07952 0.52558 0.54569 0.0
N1067 N 0.20271 0.49396 0.4543 0.0
C1068 C 0.11173 0.51465 0.52914 0.0
C1069 C 0.17403 0.49982 0.48051 0.0
N1070 N 0.09267 0.44293 0.51014 0.0
N1071 N 0.20338 0.55421 0.52421 0.0
H1072 H 0.20569 0.46689 0.43435 0.0
H1073 H 0.22283 0.51649 0.45131 0.0
H1074 H 0.20434 0.57686 0.54936 0.0
H1075 H 0.22814 0.54618 0.51211 0.0
H1076 H 0.07271 0.44319 0.53352 0.0
H1077 H 0.09577 0.41341 0.49424 0.0
H1078 H 0.05672 0.50832 0.53859 0.0
H1079 H 0.0748 0.5541 0.5627 0.0
C1080 C 0.74087 0.0266 1.00006 0.0
C1081 C 0.71068 0.04505 0.98048 0.0
C1082 C 0.67966 0.97582 0.98926 0.0
C1083 C 0.71059 0.95715 0.00826 0.0
N1084 N 0.77409 0.96105 0.00881 0.0
N1085 N 0.65594 0.03152 0.94255 0.0
C1086 C 0.74229 0.98144 0.00677 0.0
C1087 C 0.6812 0.01825 0.97143 0.0
N1088 N 0.76827 0.05207 0.01279 0.0
N1089 N 0.64878 0.95362 0.98677 0.0
H1090 H 0.65697 0.06062 0.92585 0.0
H1091 H 0.63597 0.01154 0.93108 0.0
H1092 H 0.6469 0.9203 0.98684 0.0
H1093 H 0.62463 0.96897 0.98233 0.0
H1094 H 0.78958 0.04027 0.03059 0.0
H1095 H 0.76786 0.0855 0.00961 0.0
H1096 H 0.79792 0.97713 0.00477 0.0
H1097 H 0.77632 0.92755 0.00799 0.0
C1098 C 0.353 0.99729 0.47008 0.0
C1099 C 0.32527 0.96893 0.48231 0.0
C1100 C 0.29288 0.03107 0.51124 0.0
C1101 C 0.32362 0.05716 0.50946 0.0
N1102 N 0.38208 0.06581 0.47841 0.0
N1103 N 0.26967 0.95909 0.51881 0.0
C1104 C 0.35355 0.04046 0.48653 0.0
C1105 C 0.29551 0.98595 0.50422 0.0
N1106 N 0.37723 0.98442 0.4396 0.0
N1107 N 0.26057 0.04975 0.51607 0.0
H1108 H 0.27085 0.92575 0.51487 0.0
H1109 H 0.249 0.96971 0.53849 0.0
H1110 H 0.23718 0.03236 0.51452 0.0
H1111 H 0.25702 0.08304 0.51465 0.0
H1112 H 0.39587 1.00488 0.42591 0.0
H1113 H 0.3767 0.95447 0.42427 0.0
H1114 H 0.40685 0.05323 0.4712 0.0
H1115 H 0.38065 0.09917 0.47617 0.0
C1116 C 0.37766 0.00796 0.03954 0.0
C1117 C 0.39151 0.96641 0.03267 0.0
C1118 C 0.40558 0.98759 0.95753 0.0
C1119 C 0.39823 0.03197 0.96793 0.0
N1120 N 0.39054 0.08246 0.02852 0.0
N1121 N 0.42597 0.91948 0.98575 0.0
C1122 C 0.38817 0.04178 0.0118 0.0
C1123 C 0.40769 0.95696 0.99194 0.0
N1124 N 0.353 0.01489 0.07099 0.0
N1125 N 0.4091 0.9731 0.91554 0.0
H1126 H 0.4285 0.89557 0.0093 0.0
H1127 H 0.4417 0.9141 0.95833 0.0
H1128 H 0.40726 0.99169 0.88774 0.0
H1129 H 0.41017 0.94039 0.90783 0.0
H1130 H 0.34116 0.04487 0.07581 0.0
H1131 H 0.34066 0.98905 0.0863 0.0
H1132 H 0.38428 0.08935 0.06103 0.0
H1133 H 0.40398 0.10721 0.01281 0.0
C1134 C 0.61341 0.03034 0.51249 0.0
C1135 C 0.64539 0.04597 0.52964 0.0
C1136 C 0.67759 0.99343 0.48488 0.0
C1137 C 0.645 0.97457 0.4727 0.0
N1138 N 0.58316 0.96695 0.48747 0.0
N1139 N 0.70846 0.03971 0.53618 0.0
C1140 C 0.61321 0.99066 0.49015 0.0
C1141 C 0.67779 0.02685 0.51694 0.0
N1142 N 0.5835 0.05439 0.51565 0.0
N1143 N 0.70803 0.98033 0.46516 0.0
H1144 H 0.70963 0.0647 0.55897 0.0
H1145 H 0.7323 0.02373 0.53174 0.0
H1146 H 0.70891 0.95547 0.4422 0.0
H1147 H 0.73198 0.99607 0.46931 0.0
H1148 H 0.55991 0.04541 0.50082 0.0
H1149 H 0.58377 0.08561 0.52834 0.0
H1150 H 0.55973 0.97626 0.50255 0.0
H1151 H 0.58318 0.93563 0.47502 0.0
loop_
_geom_bond_atom_site_label_1
_geom_bond_atom_site_label_2
_geom_bond_distance
_geom_bond_site_symmetry_2
_ccdc_geom_bond_type
Mn0 O5 2.095 . S
Mn0 O15 2.162 . S
Mn0 O16 2.297 . S
Mn0 O24 2.385 . S
Mn0 O25 2.209 . S
Mn0 O26 2.094 . S
Mn1 O6 2.121 . S
Mn1 N8 2.257 . S
Mn1 N17 2.282 . S
Mn1 O25 2.215 . S
Mn1 O27 2.117 . S
C2 O24 1.234 . S
C2 O25 1.283 . S
C3 O15 1.281 . S
C3 O16 1.236 . S
C4 O26 1.240 . S
C4 O27 1.264 . S
O5 Mn0 2.095 . S
O5 C14 1.250 . S
O6 Mn1 2.121 . S
O6 C14 1.258 . S
C7 N8 1.326 . S
C7 C11 1.460 . S
C7 H13 0.929 . S
N8 Mn1 2.257 . S
N8 C7 1.326 . S
N8 C12 1.362 . S
C9 C10 1.258 . S
C9 C12 1.431 . S
C9 C29 1.449 . S
C10 C9 1.258 . S
C10 C11 1.477 . S
C10 H30 0.931 . S
C11 C7 1.460 . S
C11 C10 1.477 . S
C11 H31 0.930 . S
C12 N8 1.362 . S
C12 C9 1.431 . S
C12 C22 1.476 . S
H13 C7 0.929 . S
C14 O5 1.250 . S
C14 O6 1.258 . S
O15 Mn0 2.162 . S
O15 C3 1.281 . S
O16 Mn0 2.297 . S
O16 C3 1.236 . S
N17 Mn1 2.282 . S
N17 C18 1.328 . S
N17 C22 1.318 . S
C18 N17 1.328 . S
C18 C19 1.457 . S
C18 H23 0.929 . S
C19 C18 1.457 . S
C19 C20 1.291 . S
C19 H32 0.931 . S
C20 C19 1.291 . S
C20 C21 1.373 . S
C20 H33 0.929 . S
C21 C20 1.373 . S
C21 C22 1.396 . S
C21 C28 1.403 . S
C22 C12 1.476 . S
C22 N17 1.318 . S
C22 C21 1.396 . S
H23 C18 0.929 . S
O24 Mn0 2.385 . S
O24 C2 1.234 . S
O25 Mn0 2.209 . S
O25 Mn1 2.215 . S
O25 C2 1.283 . S
O26 Mn0 2.094 . S
O26 C4 1.240 . S
O27 Mn1 2.117 . S
O27 C4 1.264 . S
C28 C21 1.403 . S
C28 C29 1.399 . S
C28 H34 0.929 . S
C29 C9 1.449 . S
C29 C28 1.399 . S
C29 H35 0.930 . S
H30 C10 0.931 . S
H31 C11 0.930 . S
H32 C19 0.931 . S
H33 C20 0.929 . S
H34 C28 0.929 . S
H35 C29 0.930 . S
Mn36 O41 2.095 . S
Mn36 O51 2.162 . S
Mn36 O52 2.297 . S
Mn36 O60 2.385 . S
Mn36 O61 2.209 . S
Mn36 O62 2.094 . S
Mn37 O42 2.121 . S
Mn37 N44 2.257 . S
Mn37 N53 2.282 . S
Mn37 O61 2.215 . S
Mn37 O63 2.117 . S
C38 O60 1.234 . S
C38 O61 1.283 . S
C39 O51 1.281 . S
C39 O52 1.236 . S
C40 O62 1.240 . S
C40 O63 1.264 . S
O41 Mn36 2.095 . S
O41 C50 1.250 . S
O42 Mn37 2.121 . S
O42 C50 1.258 . S
C43 N44 1.326 . S
C43 C47 1.460 . S
C43 H49 0.929 . S
N44 Mn37 2.257 . S
N44 C43 1.326 . S
N44 C48 1.362 . S
C45 C46 1.258 . S
C45 C48 1.431 . S
C45 C65 1.449 . S
C46 C45 1.258 . S
C46 C47 1.477 . S
C46 H66 0.931 . S
C47 C43 1.460 . S
C47 C46 1.477 . S
C47 H67 0.930 . S
C48 N44 1.362 . S
C48 C45 1.431 . S
C48 C58 1.476 . S
H49 C43 0.929 . S
C50 O41 1.250 . S
C50 O42 1.258 . S
O51 Mn36 2.162 . S
O51 C39 1.281 . S
O52 Mn36 2.297 . S
O52 C39 1.236 . S
N53 Mn37 2.282 . S
N53 C54 1.328 . S
N53 C58 1.318 . S
C54 N53 1.328 . S
C54 C55 1.457 . S
C54 H59 0.929 . S
C55 C54 1.457 . S
C55 C56 1.291 . S
C55 H68 0.931 . S
C56 C55 1.291 . S
C56 C57 1.373 . S
C56 H69 0.929 . S
C57 C56 1.373 . S
C57 C58 1.396 . S
C57 C64 1.403 . S
C58 C48 1.476 . S
C58 N53 1.318 . S
C58 C57 1.396 . S
H59 C54 0.929 . S
O60 Mn36 2.385 . S
O60 C38 1.234 . S
O61 Mn36 2.209 . S
O61 Mn37 2.215 . S
O61 C38 1.283 . S
O62 Mn36 2.094 . S
O62 C40 1.240 . S
O63 Mn37 2.117 . S
O63 C40 1.264 . S
C64 C57 1.403 . S
C64 C65 1.399 . S
C64 H70 0.929 . S
C65 C45 1.449 . S
C65 C64 1.399 . S
C65 H71 0.930 . S
H66 C46 0.931 . S
H67 C47 0.930 . S
H68 C55 0.931 . S
H69 C56 0.929 . S
H70 C64 0.929 . S
H71 C65 0.930 . S
Mn72 O77 2.095 . S
Mn72 O87 2.162 . S
Mn72 O88 2.297 . S
Mn72 O96 2.385 . S
Mn72 O97 2.209 . S
Mn72 O98 2.094 . S
Mn73 O78 2.121 . S
Mn73 N80 2.257 . S
Mn73 N89 2.282 . S
Mn73 O97 2.215 . S
Mn73 O99 2.117 . S
C74 O96 1.234 . S
C74 O97 1.283 . S
C75 O87 1.281 . S
C75 O88 1.236 . S
C76 O98 1.240 . S
C76 O99 1.264 . S
O77 Mn72 2.095 . S
O77 C86 1.250 . S
O78 Mn73 2.121 . S
O78 C86 1.258 . S
C79 N80 1.326 . S
C79 C83 1.460 . S
C79 H85 0.929 . S
N80 Mn73 2.257 . S
N80 C79 1.326 . S
N80 C84 1.362 . S
C81 C82 1.258 . S
C81 C84 1.431 . S
C81 C101 1.449 . S
C82 C81 1.258 . S
C82 C83 1.477 . S
C82 H102 0.931 . S
C83 C79 1.460 . S
C83 C82 1.477 . S
C83 H103 0.930 . S
C84 N80 1.362 . S
C84 C81 1.431 . S
C84 C94 1.476 . S
H85 C79 0.929 . S
C86 O77 1.250 . S
C86 O78 1.258 . S
O87 Mn72 2.162 . S
O87 C75 1.281 . S
O88 Mn72 2.297 . S
O88 C75 1.236 . S
N89 Mn73 2.282 . S
N89 C90 1.328 . S
N89 C94 1.318 . S
C90 N89 1.328 . S
C90 C91 1.457 . S
C90 H95 0.929 . S
C91 C90 1.457 . S
C91 C92 1.291 . S
C91 H104 0.931 . S
C92 C91 1.291 . S
C92 C93 1.373 . S
C92 H105 0.929 . S
C93 C92 1.373 . S
C93 C94 1.396 . S
C93 C100 1.403 . S
C94 C84 1.476 . S
C94 N89 1.318 . S
C94 C93 1.396 . S
H95 C90 0.929 . S
O96 Mn72 2.385 . S
O96 C74 1.234 . S
O97 Mn72 2.209 . S
O97 Mn73 2.215 . S
O97 C74 1.283 . S
O98 Mn72 2.094 . S
O98 C76 1.240 . S
O99 Mn73 2.117 . S
O99 C76 1.264 . S
C100 C93 1.403 . S
C100 C101 1.399 . S
C100 H106 0.929 . S
C101 C81 1.449 . S
C101 C100 1.399 . S
C101 H107 0.930 . S
H102 C82 0.931 . S
H103 C83 0.930 . S
H104 C91 0.931 . S
H105 C92 0.929 . S
H106 C100 0.929 . S
H107 C101 0.930 . S
Mn108 O113 2.095 . S
Mn108 O123 2.162 . S
Mn108 O124 2.297 . S
Mn108 O132 2.385 . S
Mn108 O133 2.209 . S
Mn108 O134 2.094 . S
Mn109 O114 2.121 . S
Mn109 N116 2.257 . S
Mn109 N125 2.282 . S
Mn109 O133 2.215 . S
Mn109 O135 2.117 . S
C110 O132 1.234 . S
C110 O133 1.283 . S
C111 O123 1.281 . S
C111 O124 1.236 . S
C112 O134 1.240 . S
C112 O135 1.264 . S
O113 Mn108 2.095 . S
O113 C122 1.250 . S
O114 Mn109 2.121 . S
O114 C122 1.258 . S
C115 N116 1.326 . S
C115 C119 1.460 . S
C115 H121 0.929 . S
N116 Mn109 2.257 . S
N116 C115 1.326 . S
N116 C120 1.362 . S
C117 C118 1.258 . S
C117 C120 1.431 . S
C117 C137 1.449 . S
C118 C117 1.258 . S
C118 C119 1.477 . S
C118 H138 0.931 . S
C119 C115 1.460 . S
C119 C118 1.477 . S
C119 H139 0.930 . S
C120 N116 1.362 . S
C120 C117 1.431 . S
C120 C130 1.476 . S
H121 C115 0.929 . S
C122 O113 1.250 . S
C122 O114 1.258 . S
O123 Mn108 2.162 . S
O123 C111 1.281 . S
O124 Mn108 2.297 . S
O124 C111 1.236 . S
N125 Mn109 2.282 . S
N125 C126 1.328 . S
N125 C130 1.318 . S
C126 N125 1.328 . S
C126 C127 1.457 . S
C126 H131 0.929 . S
C127 C126 1.457 . S
C127 C128 1.291 . S
C127 H140 0.931 . S
C128 C127 1.291 . S
C128 C129 1.373 . S
C128 H141 0.929 . S
C129 C128 1.373 . S
C129 C130 1.396 . S
C129 C136 1.403 . S
C130 C120 1.476 . S
C130 N125 1.318 . S
C130 C129 1.396 . S
H131 C126 0.929 . S
O132 Mn108 2.385 . S
O132 C110 1.234 . S
O133 Mn108 2.209 . S
O133 Mn109 2.215 . S
O133 C110 1.283 . S
O134 Mn108 2.094 . S
O134 C112 1.240 . S
O135 Mn109 2.117 . S
O135 C112 1.264 . S
C136 C129 1.403 . S
C136 C137 1.399 . S
C136 H142 0.929 . S
C137 C117 1.449 . S
C137 C136 1.399 . S
C137 H143 0.930 . S
H138 C118 0.931 . S
H139 C119 0.930 . S
H140 C127 0.931 . S
H141 C128 0.929 . S
H142 C136 0.929 . S
H143 C137 0.930 . S
Mn144 O149 2.095 . S
Mn144 O159 2.162 . S
Mn144 O160 2.297 . S
Mn144 O168 2.385 . S
Mn144 O169 2.209 . S
Mn144 O170 2.094 . S
Mn145 O150 2.121 . S
Mn145 N152 2.257 . S
Mn145 N161 2.282 . S
Mn145 O169 2.215 . S
Mn145 O171 2.117 . S
C146 O168 1.234 . S
C146 O169 1.283 . S
C147 O159 1.281 . S
C147 O160 1.236 . S
C148 O170 1.240 . S
C148 O171 1.264 . S
O149 Mn144 2.095 . S
O149 C158 1.250 . S
O150 Mn145 2.121 . S
O150 C158 1.258 . S
C151 N152 1.326 . S
C151 C155 1.460 . S
C151 H157 0.929 . S
N152 Mn145 2.257 . S
N152 C151 1.326 . S
N152 C156 1.362 . S
C153 C154 1.258 . S
C153 C156 1.431 . S
C153 C173 1.449 . S
C154 C153 1.258 . S
C154 C155 1.477 . S
C154 H174 0.931 . S
C155 C151 1.460 . S
C155 C154 1.477 . S
C155 H175 0.930 . S
C156 N152 1.362 . S
C156 C153 1.431 . S
C156 C166 1.476 . S
H157 C151 0.929 . S
C158 O149 1.250 . S
C158 O150 1.258 . S
O159 Mn144 2.162 . S
O159 C147 1.281 . S
O160 Mn144 2.297 . S
O160 C147 1.236 . S
N161 Mn145 2.282 . S
N161 C162 1.328 . S
N161 C166 1.318 . S
C162 N161 1.328 . S
C162 C163 1.457 . S
C162 H167 0.929 . S
C163 C162 1.457 . S
C163 C164 1.291 . S
C163 H176 0.931 . S
C164 C163 1.291 . S
C164 C165 1.373 . S
C164 H177 0.929 . S
C165 C164 1.373 . S
C165 C166 1.396 . S
C165 C172 1.403 . S
C166 C156 1.476 . S
C166 N161 1.318 . S
C166 C165 1.396 . S
H167 C162 0.929 . S
O168 Mn144 2.385 . S
O168 C146 1.234 . S
O169 Mn144 2.209 . S
O169 Mn145 2.215 . S
O169 C146 1.283 . S
O170 Mn144 2.094 . S
O170 C148 1.240 . S
O171 Mn145 2.117 . S
O171 C148 1.264 . S
C172 C165 1.403 . S
C172 C173 1.399 . S
C172 H178 0.929 . S
C173 C153 1.449 . S
C173 C172 1.399 . S
C173 H179 0.930 . S
H174 C154 0.931 . S
H175 C155 0.930 . S
H176 C163 0.931 . S
H177 C164 0.929 . S
H178 C172 0.929 . S
H179 C173 0.930 . S
Mn180 O185 2.095 . S
Mn180 O195 2.162 . S
Mn180 O196 2.297 . S
Mn180 O204 2.385 . S
Mn180 O205 2.209 . S
Mn180 O206 2.094 . S
Mn181 O186 2.121 . S
Mn181 N188 2.257 . S
Mn181 N197 2.282 . S
Mn181 O205 2.215 . S
Mn181 O207 2.117 . S
C182 O204 1.234 . S
C182 O205 1.283 . S
C183 O195 1.281 . S
C183 O196 1.236 . S
C184 O206 1.240 . S
C184 O207 1.264 . S
O185 Mn180 2.095 . S
O185 C194 1.250 . S
O186 Mn181 2.121 . S
O186 C194 1.258 . S
C187 N188 1.326 . S
C187 C191 1.460 . S
C187 H193 0.929 . S
N188 Mn181 2.257 . S
N188 C187 1.326 . S
N188 C192 1.362 . S
C189 C190 1.258 . S
C189 C192 1.431 . S
C189 C209 1.449 . S
C190 C189 1.258 . S
C190 C191 1.477 . S
C190 H210 0.931 . S
C191 C187 1.460 . S
C191 C190 1.477 . S
C191 H211 0.930 . S
C192 N188 1.362 . S
C192 C189 1.431 . S
C192 C202 1.476 . S
H193 C187 0.929 . S
C194 O185 1.250 . S
C194 O186 1.258 . S
O195 Mn180 2.162 . S
O195 C183 1.281 . S
O196 Mn180 2.297 . S
O196 C183 1.236 . S
N197 Mn181 2.282 . S
N197 C198 1.328 . S
N197 C202 1.318 . S
C198 N197 1.328 . S
C198 C199 1.457 . S
C198 H203 0.929 . S
C199 C198 1.457 . S
C199 C200 1.291 . S
C199 H212 0.931 . S
C200 C199 1.291 . S
C200 C201 1.373 . S
C200 H213 0.929 . S
C201 C200 1.373 . S
C201 C202 1.396 . S
C201 C208 1.403 . S
C202 C192 1.476 . S
C202 N197 1.318 . S
C202 C201 1.396 . S
H203 C198 0.929 . S
O204 Mn180 2.385 . S
O204 C182 1.234 . S
O205 Mn180 2.209 . S
O205 Mn181 2.215 . S
O205 C182 1.283 . S
O206 Mn180 2.094 . S
O206 C184 1.240 . S
O207 Mn181 2.117 . S
O207 C184 1.264 . S
C208 C201 1.403 . S
C208 C209 1.399 . S
C208 H214 0.929 . S
C209 C189 1.449 . S
C209 C208 1.399 . S
C209 H215 0.930 . S
H210 C190 0.931 . S
H211 C191 0.930 . S
H212 C199 0.931 . S
H213 C200 0.929 . S
H214 C208 0.929 . S
H215 C209 0.930 . S
Mn216 O221 2.095 . S
Mn216 O231 2.162 . S
Mn216 O232 2.297 . S
Mn216 O240 2.385 . S
Mn216 O241 2.209 . S
Mn216 O242 2.094 . S
Mn217 O222 2.121 . S
Mn217 N224 2.257 . S
Mn217 N233 2.282 . S
Mn217 O241 2.215 . S
Mn217 O243 2.117 . S
C218 O240 1.234 . S
C218 O241 1.283 . S
C219 O231 1.281 . S
C219 O232 1.236 . S
C220 O242 1.240 . S
C220 O243 1.264 . S
O221 Mn216 2.095 . S
O221 C230 1.250 . S
O222 Mn217 2.121 . S
O222 C230 1.258 . S
C223 N224 1.326 . S
C223 C227 1.460 . S
C223 H229 0.929 . S
N224 Mn217 2.257 . S
N224 C223 1.326 . S
N224 C228 1.362 . S
C225 C226 1.258 . S
C225 C228 1.431 . S
C225 C245 1.449 . S
C226 C225 1.258 . S
C226 C227 1.477 . S
C226 H246 0.931 . S
C227 C223 1.460 . S
C227 C226 1.477 . S
C227 H247 0.930 . S
C228 N224 1.362 . S
C228 C225 1.431 . S
C228 C238 1.476 . S
H229 C223 0.929 . S
C230 O221 1.250 . S
C230 O222 1.258 . S
O231 Mn216 2.162 . S
O231 C219 1.281 . S
O232 Mn216 2.297 . S
O232 C219 1.236 . S
N233 Mn217 2.282 . S
N233 C234 1.328 . S
N233 C238 1.318 . S
C234 N233 1.328 . S
C234 C235 1.457 . S
C234 H239 0.929 . S
C235 C234 1.457 . S
C235 C236 1.291 . S
C235 H248 0.931 . S
C236 C235 1.291 . S
C236 C237 1.373 . S
C236 H249 0.929 . S
C237 C236 1.373 . S
C237 C238 1.396 . S
C237 C244 1.403 . S
C238 C228 1.476 . S
C238 N233 1.318 . S
C238 C237 1.396 . S
H239 C234 0.929 . S
O240 Mn216 2.385 . S
O240 C218 1.234 . S
O241 Mn216 2.209 . S
O241 Mn217 2.215 . S
O241 C218 1.283 . S
O242 Mn216 2.094 . S
O242 C220 1.240 . S
O243 Mn217 2.117 . S
O243 C220 1.264 . S
C244 C237 1.403 . S
C244 C245 1.399 . S
C244 H250 0.929 . S
C245 C225 1.449 . S
C245 C244 1.399 . S
C245 H251 0.930 . S
H246 C226 0.931 . S
H247 C227 0.930 . S
H248 C235 0.931 . S
H249 C236 0.929 . S
H250 C244 0.929 . S
H251 C245 0.930 . S
Mn252 O257 2.095 . S
Mn252 O267 2.162 . S
Mn252 O268 2.297 . S
Mn252 O276 2.385 . S
Mn252 O277 2.209 . S
Mn252 O278 2.094 . S
Mn253 O258 2.121 . S
Mn253 N260 2.257 . S
Mn253 N269 2.282 . S
Mn253 O277 2.215 . S
Mn253 O279 2.117 . S
C254 O276 1.234 . S
C254 O277 1.283 . S
C255 O267 1.281 . S
C255 O268 1.236 . S
C256 O278 1.240 . S
C256 O279 1.264 . S
O257 Mn252 2.095 . S
O257 C266 1.250 . S
O258 Mn253 2.121 . S
O258 C266 1.258 . S
C259 N260 1.326 . S
C259 C263 1.460 . S
C259 H265 0.929 . S
N260 Mn253 2.257 . S
N260 C259 1.326 . S
N260 C264 1.362 . S
C261 C262 1.258 . S
C261 C264 1.431 . S
C261 C281 1.449 . S
C262 C261 1.258 . S
C262 C263 1.477 . S
C262 H282 0.931 . S
C263 C259 1.460 . S
C263 C262 1.477 . S
C263 H283 0.930 . S
C264 N260 1.362 . S
C264 C261 1.431 . S
C264 C274 1.476 . S
H265 C259 0.929 . S
C266 O257 1.250 . S
C266 O258 1.258 . S
O267 Mn252 2.162 . S
O267 C255 1.281 . S
O268 Mn252 2.297 . S
O268 C255 1.236 . S
N269 Mn253 2.282 . S
N269 C270 1.328 . S
N269 C274 1.318 . S
C270 N269 1.328 . S
C270 C271 1.457 . S
C270 H275 0.929 . S
C271 C270 1.457 . S
C271 C272 1.291 . S
C271 H284 0.931 . S
C272 C271 1.291 . S
C272 C273 1.373 . S
C272 H285 0.929 . S
C273 C272 1.373 . S
C273 C274 1.396 . S
C273 C280 1.403 . S
C274 C264 1.476 . S
C274 N269 1.318 . S
C274 C273 1.396 . S
H275 C270 0.929 . S
O276 Mn252 2.385 . S
O276 C254 1.234 . S
O277 Mn252 2.209 . S
O277 Mn253 2.215 . S
O277 C254 1.283 . S
O278 Mn252 2.094 . S
O278 C256 1.240 . S
O279 Mn253 2.117 . S
O279 C256 1.264 . S
C280 C273 1.403 . S
C280 C281 1.399 . S
C280 H286 0.929 . S
C281 C261 1.449 . S
C281 C280 1.399 . S
C281 H287 0.930 . S
H282 C262 0.931 . S
H283 C263 0.930 . S
H284 C271 0.931 . S
H285 C272 0.929 . S
H286 C280 0.929 . S
H287 C281 0.930 . S
Mn288 O293 2.095 . S
Mn288 O303 2.162 . S
Mn288 O304 2.297 . S
Mn288 O312 2.385 . S
Mn288 O313 2.209 . S
Mn288 O314 2.094 . S
Mn289 O294 2.121 . S
Mn289 N296 2.257 . S
Mn289 N305 2.282 . S
Mn289 O313 2.215 . S
Mn289 O315 2.117 . S
C290 O312 1.234 . S
C290 O313 1.283 . S
C291 O303 1.281 . S
C291 O304 1.236 . S
C292 O314 1.240 . S
C292 O315 1.264 . S
O293 Mn288 2.095 . S
O293 C302 1.250 . S
O294 Mn289 2.121 . S
O294 C302 1.258 . S
C295 N296 1.326 . S
C295 C299 1.470 . S
C295 H301 0.929 . S
N296 Mn289 2.257 . S
N296 C295 1.326 . S
N296 C300 1.362 . S
C297 C298 1.258 . S
C297 C300 1.431 . S
C297 C317 1.449 . S
C298 C297 1.258 . S
C298 C299 1.484 . S
C298 H318 0.931 . S
C299 C295 1.470 . S
C299 C298 1.484 . S
C299 H319 0.914 1_565 S
C300 N296 1.362 . S
C300 C297 1.431 . S
C300 C310 1.476 . S
H301 C295 0.929 . S
C302 O293 1.250 . S
C302 O294 1.258 . S
O303 Mn288 2.162 . S
O303 C291 1.281 . S
O304 Mn288 2.297 . S
O304 C291 1.236 . S
N305 Mn289 2.282 . S
N305 C306 1.328 . S
N305 C310 1.318 . S
C306 N305 1.328 . S
C306 C307 1.457 . S
C306 H311 0.929 . S
C307 C306 1.457 . S
C307 C308 1.291 . S
C307 H320 0.931 . S
C308 C307 1.291 . S
C308 C309 1.373 . S
C308 H321 0.929 . S
C309 C308 1.373 . S
C309 C310 1.396 . S
C309 C316 1.403 . S
C310 C300 1.476 . S
C310 N305 1.318 . S
C310 C309 1.396 . S
H311 C306 0.929 . S
O312 Mn288 2.385 . S
O312 C290 1.234 . S
O313 Mn288 2.209 . S
O313 Mn289 2.215 . S
O313 C290 1.283 . S
O314 Mn288 2.094 . S
O314 C292 1.240 . S
O315 Mn289 2.117 . S
O315 C292 1.264 . S
C316 C309 1.403 . S
C316 C317 1.399 . S
C316 H322 0.929 . S
C317 C297 1.449 . S
C317 C316 1.399 . S
C317 H323 0.930 . S
H318 C298 0.931 . S
H319 C299 0.914 1_545 S
H320 C307 0.931 . S
H321 C308 0.929 . S
H322 C316 0.929 . S
H323 C317 0.930 . S
Mn324 O329 2.095 . S
Mn324 O339 2.162 . S
Mn324 O340 2.297 . S
Mn324 O348 2.385 . S
Mn324 O349 2.209 . S
Mn324 O350 2.094 . S
Mn325 O330 2.121 . S
Mn325 N332 2.257 . S
Mn325 N341 2.282 . S
Mn325 O349 2.215 . S
Mn325 O351 2.117 . S
C326 O348 1.234 . S
C326 O349 1.283 . S
C327 O339 1.281 . S
C327 O340 1.236 . S
C328 O350 1.240 . S
C328 O351 1.264 . S
O329 Mn324 2.095 . S
O329 C338 1.250 . S
O330 Mn325 2.121 . S
O330 C338 1.258 . S
C331 N332 1.326 . S
C331 C335 1.470 . S
C331 H337 0.929 . S
N332 Mn325 2.257 . S
N332 C331 1.326 . S
N332 C336 1.362 . S
C333 C334 1.258 . S
C333 C336 1.431 . S
C333 C353 1.449 . S
C334 C333 1.258 . S
C334 C335 1.484 . S
C334 H354 0.931 . S
C335 C331 1.470 . S
C335 C334 1.484 . S
C335 H355 0.914 1_545 S
C336 N332 1.362 . S
C336 C333 1.431 . S
C336 C346 1.476 . S
H337 C331 0.929 . S
C338 O329 1.250 . S
C338 O330 1.258 . S
O339 Mn324 2.162 . S
O339 C327 1.281 . S
O340 Mn324 2.297 . S
O340 C327 1.236 . S
N341 Mn325 2.282 . S
N341 C342 1.328 . S
N341 C346 1.318 . S
C342 N341 1.328 . S
C342 C343 1.457 . S
C342 H347 0.929 . S
C343 C342 1.457 . S
C343 C344 1.291 . S
C343 H356 0.931 . S
C344 C343 1.291 . S
C344 C345 1.373 . S
C344 H357 0.929 . S
C345 C344 1.373 . S
C345 C346 1.396 . S
C345 C352 1.403 . S
C346 C336 1.476 . S
C346 N341 1.318 . S
C346 C345 1.396 . S
H347 C342 0.929 . S
O348 Mn324 2.385 . S
O348 C326 1.234 . S
O349 Mn324 2.209 . S
O349 Mn325 2.215 . S
O349 C326 1.283 . S
O350 Mn324 2.094 . S
O350 C328 1.240 . S
O351 Mn325 2.117 . S
O351 C328 1.264 . S
C352 C345 1.403 . S
C352 C353 1.399 . S
C352 H358 0.929 . S
C353 C333 1.449 . S
C353 C352 1.399 . S
C353 H359 0.930 . S
H354 C334 0.931 . S
H355 C335 0.914 1_565 S
H356 C343 0.931 . S
H357 C344 0.929 . S
H358 C352 0.929 . S
H359 C353 0.930 . S
Mn360 O365 2.095 . S
Mn360 O375 2.162 . S
Mn360 O376 2.297 . S
Mn360 O384 2.385 . S
Mn360 O385 2.209 . S
Mn360 O386 2.094 . S
Mn361 O366 2.121 . S
Mn361 N368 2.257 . S
Mn361 N377 2.282 . S
Mn361 O385 2.215 . S
Mn361 O387 2.117 . S
C362 O384 1.234 . S
C362 O385 1.283 . S
C363 O375 1.281 . S
C363 O376 1.236 . S
C364 O386 1.240 . S
C364 O387 1.264 . S
O365 Mn360 2.095 . S
O365 C374 1.250 . S
O366 Mn361 2.121 . S
O366 C374 1.258 . S
C367 N368 1.326 . S
C367 C371 1.470 . S
C367 H373 0.929 . S
N368 Mn361 2.257 . S
N368 C367 1.326 . S
N368 C372 1.362 . S
C369 C370 1.258 . S
C369 C372 1.431 . S
C369 C389 1.449 . S
C370 C369 1.258 . S
C370 C371 1.484 . S
C370 H390 0.931 . S
C371 C367 1.470 . S
C371 C370 1.484 . S
C371 H391 0.914 1_545 S
C372 N368 1.362 . S
C372 C369 1.431 . S
C372 C382 1.476 . S
H373 C367 0.929 . S
C374 O365 1.250 . S
C374 O366 1.258 . S
O375 Mn360 2.162 . S
O375 C363 1.281 . S
O376 Mn360 2.297 . S
O376 C363 1.236 . S
N377 Mn361 2.282 . S
N377 C378 1.328 . S
N377 C382 1.318 . S
C378 N377 1.328 . S
C378 C379 1.457 . S
C378 H383 0.929 . S
C379 C378 1.457 . S
C379 C380 1.291 . S
C379 H392 0.931 . S
C380 C379 1.291 . S
C380 C381 1.373 . S
C380 H393 0.929 . S
C381 C380 1.373 . S
C381 C382 1.396 . S
C381 C388 1.403 . S
C382 C372 1.476 . S
C382 N377 1.318 . S
C382 C381 1.396 . S
H383 C378 0.929 . S
O384 Mn360 2.385 . S
O384 C362 1.234 . S
O385 Mn360 2.209 . S
O385 Mn361 2.215 . S
O385 C362 1.283 . S
O386 Mn360 2.094 . S
O386 C364 1.240 . S
O387 Mn361 2.117 . S
O387 C364 1.264 . S
C388 C381 1.403 . S
C388 C389 1.399 . S
C388 H394 0.929 . S
C389 C369 1.449 . S
C389 C388 1.399 . S
C389 H395 0.930 . S
H390 C370 0.931 . S
H391 C371 0.914 1_565 S
H392 C379 0.931 . S
H393 C380 0.929 . S
H394 C388 0.929 . S
H395 C389 0.930 . S
Mn396 O401 2.095 . S
Mn396 O411 2.162 . S
Mn396 O412 2.297 . S
Mn396 O420 2.385 . S
Mn396 O421 2.209 . S
Mn396 O422 2.094 . S
Mn397 O402 2.121 . S
Mn397 N404 2.257 . S
Mn397 N413 2.282 . S
Mn397 O421 2.215 . S
Mn397 O423 2.117 . S
C398 O420 1.234 . S
C398 O421 1.283 . S
C399 O411 1.281 . S
C399 O412 1.236 . S
C400 O422 1.240 . S
C400 O423 1.264 . S
O401 Mn396 2.095 . S
O401 C410 1.250 . S
O402 Mn397 2.121 . S
O402 C410 1.258 . S
C403 N404 1.326 . S
C403 C407 1.470 . S
C403 H409 0.929 . S
N404 Mn397 2.257 . S
N404 C403 1.326 . S
N404 C408 1.362 . S
C405 C406 1.258 . S
C405 C408 1.431 . S
C405 C425 1.449 . S
C406 C405 1.258 . S
C406 C407 1.484 . S
C406 H426 0.931 . S
C407 C403 1.470 . S
C407 C406 1.484 . S
C407 H427 0.914 1_565 S
C408 N404 1.362 . S
C408 C405 1.431 . S
C408 C418 1.476 . S
H409 C403 0.929 . S
C410 O401 1.250 . S
C410 O402 1.258 . S
O411 Mn396 2.162 . S
O411 C399 1.281 . S
O412 Mn396 2.297 . S
O412 C399 1.236 . S
N413 Mn397 2.282 . S
N413 C414 1.328 . S
N413 C418 1.318 . S
C414 N413 1.328 . S
C414 C415 1.457 . S
C414 H419 0.929 . S
C415 C414 1.457 . S
C415 C416 1.291 . S
C415 H428 0.931 . S
C416 C415 1.291 . S
C416 C417 1.373 . S
C416 H429 0.929 . S
C417 C416 1.373 . S
C417 C418 1.396 . S
C417 C424 1.403 . S
C418 C408 1.476 . S
C418 N413 1.318 . S
C418 C417 1.396 . S
H419 C414 0.929 . S
O420 Mn396 2.385 . S
O420 C398 1.234 . S
O421 Mn396 2.209 . S
O421 Mn397 2.215 . S
O421 C398 1.283 . S
O422 Mn396 2.094 . S
O422 C400 1.240 . S
O423 Mn397 2.117 . S
O423 C400 1.264 . S
C424 C417 1.403 . S
C424 C425 1.399 . S
C424 H430 0.929 . S
C425 C405 1.449 . S
C425 C424 1.399 . S
C425 H431 0.930 . S
H426 C406 0.931 . S
H427 C407 0.914 1_545 S
H428 C415 0.931 . S
H429 C416 0.929 . S
H430 C424 0.929 . S
H431 C425 0.930 . S
Mn432 O437 2.095 . S
Mn432 O447 2.162 . S
Mn432 O448 2.297 . S
Mn432 O456 2.385 . S
Mn432 O457 2.209 . S
Mn432 O458 2.094 . S
Mn433 O438 2.121 . S
Mn433 N440 2.257 . S
Mn433 N449 2.282 . S
Mn433 O457 2.215 . S
Mn433 O459 2.117 . S
C434 O456 1.234 . S
C434 O457 1.283 . S
C435 O447 1.281 . S
C435 O448 1.236 . S
C436 O458 1.240 . S
C436 O459 1.264 . S
O437 Mn432 2.095 . S
O437 C446 1.250 . S
O438 Mn433 2.121 . S
O438 C446 1.258 . S
C439 N440 1.326 . S
C439 C443 1.460 1_545 S
C439 H445 0.929 . S
N440 Mn433 2.257 . S
N440 C439 1.326 . S
N440 C444 1.362 . S
C441 C442 1.258 1_545 S
C441 C444 1.431 . S
C441 C461 1.449 . S
C442 C441 1.258 1_565 S
C442 C443 1.477 . S
C442 H462 0.931 . S
C443 C439 1.460 1_565 S
C443 C442 1.477 . S
C443 H463 0.930 . S
C444 N440 1.362 . S
C444 C441 1.431 . S
C444 C454 1.476 . S
H445 C439 0.929 . S
C446 O437 1.250 . S
C446 O438 1.258 . S
O447 Mn432 2.162 . S
O447 C435 1.281 . S
O448 Mn432 2.297 . S
O448 C435 1.236 . S
N449 Mn433 2.282 . S
N449 C450 1.328 . S
N449 C454 1.318 . S
C450 N449 1.328 . S
C450 C451 1.457 . S
C450 H455 0.929 . S
C451 C450 1.457 . S
C451 C452 1.291 . S
C451 H464 0.931 . S
C452 C451 1.291 . S
C452 C453 1.373 . S
C452 H465 0.929 . S
C453 C452 1.373 . S
C453 C454 1.396 . S
C453 C460 1.403 . S
C454 C444 1.476 . S
C454 N449 1.318 . S
C454 C453 1.396 . S
H455 C450 0.929 . S
O456 Mn432 2.385 . S
O456 C434 1.234 . S
O457 Mn432 2.209 . S
O457 Mn433 2.215 . S
O457 C434 1.283 . S
O458 Mn432 2.094 . S
O458 C436 1.240 . S
O459 Mn433 2.117 . S
O459 C436 1.264 . S
C460 C453 1.403 . S
C460 C461 1.399 . S
C460 H466 0.929 . S
C461 C441 1.449 . S
C461 C460 1.399 . S
C461 H467 0.930 . S
H462 C442 0.931 . S
H463 C443 0.930 . S
H464 C451 0.931 . S
H465 C452 0.929 . S
H466 C460 0.929 . S
H467 C461 0.930 . S
Mn468 O473 2.095 . S
Mn468 O483 2.162 . S
Mn468 O484 2.297 . S
Mn468 O492 2.385 . S
Mn468 O493 2.209 . S
Mn468 O494 2.094 . S
Mn469 O474 2.121 . S
Mn469 N476 2.257 . S
Mn469 N485 2.282 . S
Mn469 O493 2.215 . S
Mn469 O495 2.117 . S
C470 O492 1.234 . S
C470 O493 1.283 . S
C471 O483 1.281 . S
C471 O484 1.236 . S
C472 O494 1.240 . S
C472 O495 1.264 . S
O473 Mn468 2.095 . S
O473 C482 1.250 . S
O474 Mn469 2.121 . S
O474 C482 1.258 . S
C475 N476 1.326 . S
C475 C479 1.460 1_565 S
C475 H481 0.929 . S
N476 Mn469 2.257 . S
N476 C475 1.326 . S
N476 C480 1.362 . S
C477 C478 1.258 1_565 S
C477 C480 1.431 . S
C477 C497 1.449 . S
C478 C477 1.258 1_545 S
C478 C479 1.477 . S
C478 H498 0.931 . S
C479 C475 1.460 1_545 S
C479 C478 1.477 . S
C479 H499 0.930 . S
C480 N476 1.362 . S
C480 C477 1.431 . S
C480 C490 1.476 . S
H481 C475 0.929 . S
C482 O473 1.250 . S
C482 O474 1.258 . S
O483 Mn468 2.162 . S
O483 C471 1.281 . S
O484 Mn468 2.297 . S
O484 C471 1.236 . S
N485 Mn469 2.282 . S
N485 C486 1.328 . S
N485 C490 1.318 . S
C486 N485 1.328 . S
C486 C487 1.457 . S
C486 H491 0.929 . S
C487 C486 1.457 . S
C487 C488 1.291 . S
C487 H500 0.931 . S
C488 C487 1.291 . S
C488 C489 1.373 . S
C488 H501 0.929 . S
C489 C488 1.373 . S
C489 C490 1.396 . S
C489 C496 1.403 . S
C490 C480 1.476 . S
C490 N485 1.318 . S
C490 C489 1.396 . S
H491 C486 0.929 . S
O492 Mn468 2.385 . S
O492 C470 1.234 . S
O493 Mn468 2.209 . S
O493 Mn469 2.215 . S
O493 C470 1.283 . S
O494 Mn468 2.094 . S
O494 C472 1.240 . S
O495 Mn469 2.117 . S
O495 C472 1.264 . S
C496 C489 1.403 . S
C496 C497 1.399 . S
C496 H502 0.929 . S
C497 C477 1.449 . S
C497 C496 1.399 . S
C497 H503 0.930 . S
H498 C478 0.931 . S
H499 C479 0.930 . S
H500 C487 0.931 . S
H501 C488 0.929 . S
H502 C496 0.929 . S
H503 C497 0.930 . S
Mn504 O509 2.095 . S
Mn504 O519 2.162 . S
Mn504 O520 2.297 . S
Mn504 O528 2.385 . S
Mn504 O529 2.209 . S
Mn504 O530 2.094 . S
Mn505 O510 2.121 . S
Mn505 N512 2.257 . S
Mn505 N521 2.282 . S
Mn505 O529 2.215 . S
Mn505 O531 2.117 . S
C506 O528 1.234 . S
C506 O529 1.283 . S
C507 O519 1.281 . S
C507 O520 1.236 . S
C508 O530 1.240 . S
C508 O531 1.264 . S
O509 Mn504 2.095 . S
O509 C518 1.250 . S
O510 Mn505 2.121 . S
O510 C518 1.258 . S
C511 N512 1.326 . S
C511 C515 1.460 1_565 S
C511 H517 0.929 . S
N512 Mn505 2.257 . S
N512 C511 1.326 . S
N512 C516 1.362 . S
C513 C514 1.258 1_565 S
C513 C516 1.431 . S
C513 C533 1.449 . S
C514 C513 1.258 1_545 S
C514 C515 1.477 . S
C514 H534 0.931 . S
C515 C511 1.460 1_545 S
C515 C514 1.477 . S
C515 H535 0.930 . S
C516 N512 1.362 . S
C516 C513 1.431 . S
C516 C526 1.476 . S
H517 C511 0.929 . S
C518 O509 1.250 . S
C518 O510 1.258 . S
O519 Mn504 2.162 . S
O519 C507 1.281 . S
O520 Mn504 2.297 . S
O520 C507 1.236 . S
N521 Mn505 2.282 . S
N521 C522 1.328 . S
N521 C526 1.318 . S
C522 N521 1.328 . S
C522 C523 1.457 . S
C522 H527 0.929 . S
C523 C522 1.457 . S
C523 C524 1.291 . S
C523 H536 0.931 . S
C524 C523 1.291 . S
C524 C525 1.373 . S
C524 H537 0.929 . S
C525 C524 1.373 . S
C525 C526 1.396 . S
C525 C532 1.403 . S
C526 C516 1.476 . S
C526 N521 1.318 . S
C526 C525 1.396 . S
H527 C522 0.929 . S
O528 Mn504 2.385 . S
O528 C506 1.234 . S
O529 Mn504 2.209 . S
O529 Mn505 2.215 . S
O529 C506 1.283 . S
O530 Mn504 2.094 . S
O530 C508 1.240 . S
O531 Mn505 2.117 . S
O531 C508 1.264 . S
C532 C525 1.403 . S
C532 C533 1.399 . S
C532 H538 0.929 . S
C533 C513 1.449 . S
C533 C532 1.399 . S
C533 H539 0.930 . S
H534 C514 0.931 . S
H535 C515 0.930 . S
H536 C523 0.931 . S
H537 C524 0.929 . S
H538 C532 0.929 . S
H539 C533 0.930 . S
Mn540 O545 2.095 . S
Mn540 O555 2.162 . S
Mn540 O556 2.297 . S
Mn540 O564 2.385 . S
Mn540 O565 2.209 . S
Mn540 O566 2.094 . S
Mn541 O546 2.121 . S
Mn541 N548 2.257 . S
Mn541 N557 2.282 . S
Mn541 O565 2.215 . S
Mn541 O567 2.117 . S
C542 O564 1.234 . S
C542 O565 1.283 . S
C543 O555 1.281 . S
C543 O556 1.236 . S
C544 O566 1.240 . S
C544 O567 1.264 . S
O545 Mn540 2.095 . S
O545 C554 1.250 . S
O546 Mn541 2.121 . S
O546 C554 1.258 . S
C547 N548 1.326 . S
C547 C551 1.460 1_545 S
C547 H553 0.929 . S
N548 Mn541 2.257 . S
N548 C547 1.326 . S
N548 C552 1.362 . S
C549 C550 1.258 1_545 S
C549 C552 1.431 . S
C549 C569 1.449 . S
C550 C549 1.258 1_565 S
C550 C551 1.477 . S
C550 H570 0.931 . S
C551 C547 1.460 1_565 S
C551 C550 1.477 . S
C551 H571 0.930 . S
C552 N548 1.362 . S
C552 C549 1.431 . S
C552 C562 1.476 . S
H553 C547 0.929 . S
C554 O545 1.250 . S
C554 O546 1.258 . S
O555 Mn540 2.162 . S
O555 C543 1.281 . S
O556 Mn540 2.297 . S
O556 C543 1.236 . S
N557 Mn541 2.282 . S
N557 C558 1.328 . S
N557 C562 1.318 . S
C558 N557 1.328 . S
C558 C559 1.457 . S
C558 H563 0.929 . S
C559 C558 1.457 . S
C559 C560 1.291 . S
C559 H572 0.931 . S
C560 C559 1.291 . S
C560 C561 1.373 . S
C560 H573 0.929 . S
C561 C560 1.373 . S
C561 C562 1.396 . S
C561 C568 1.403 . S
C562 C552 1.476 . S
C562 N557 1.318 . S
C562 C561 1.396 . S
H563 C558 0.929 . S
O564 Mn540 2.385 . S
O564 C542 1.234 . S
O565 Mn540 2.209 . S
O565 Mn541 2.215 . S
O565 C542 1.283 . S
O566 Mn540 2.094 . S
O566 C544 1.240 . S
O567 Mn541 2.117 . S
O567 C544 1.264 . S
C568 C561 1.403 . S
C568 C569 1.399 . S
C568 H574 0.929 . S
C569 C549 1.449 . S
C569 C568 1.399 . S
C569 H575 0.930 . S
H570 C550 0.931 . S
H571 C551 0.930 . S
H572 C559 0.931 . S
H573 C560 0.929 . S
H574 C568 0.929 . S
H575 C569 0.930 . S
C576 C577 1.363 . S
C576 C582 1.379 1_455 S
C576 N584 1.356 . S
C577 C576 1.363 . S
C577 C583 1.363 . S
C578 C579 1.363 . S
C578 C583 1.379 1_655 S
C578 N585 1.356 . S
C579 C578 1.363 . S
C579 C582 1.363 . S
N580 C582 1.356 . S
N580 H592 0.984 . S
N580 H593 0.985 . S
N581 C583 1.356 . S
N581 H586 0.984 . S
N581 H587 0.985 . S
C582 C576 1.379 1_655 S
C582 C579 1.363 . S
C582 N580 1.356 . S
C583 C577 1.363 . S
C583 C578 1.379 1_455 S
C583 N581 1.356 . S
N584 C576 1.356 . S
N584 H590 0.984 . S
N584 H591 0.984 . S
N585 C578 1.356 . S
N585 H588 0.984 . S
N585 H589 0.985 . S
H586 N581 0.984 . S
H587 N581 0.985 . S
H588 N585 0.984 . S
H589 N585 0.985 . S
H590 N584 0.984 . S
H591 N584 0.984 . S
H592 N580 0.984 . S
H593 N580 0.985 . S
C594 C595 1.363 . S
C594 C600 1.379 1_655 S
C594 N602 1.356 . S
C595 C594 1.363 . S
C595 C601 1.363 . S
C596 C597 1.363 . S
C596 C601 1.379 1_455 S
C596 N603 1.356 . S
C597 C596 1.363 . S
C597 C600 1.363 . S
N598 C600 1.356 . S
N598 H610 0.984 . S
N598 H611 0.985 . S
N599 C601 1.356 . S
N599 H604 0.984 . S
N599 H605 0.985 . S
C600 C594 1.379 1_455 S
C600 C597 1.363 . S
C600 N598 1.356 . S
C601 C595 1.363 . S
C601 C596 1.379 1_655 S
C601 N599 1.356 . S
N602 C594 1.356 . S
N602 H608 0.984 . S
N602 H609 0.984 . S
N603 C596 1.356 . S
N603 H606 0.984 . S
N603 H607 0.985 . S
H604 N599 0.984 . S
H605 N599 0.985 . S
H606 N603 0.984 . S
H607 N603 0.985 . S
H608 N602 0.984 . S
H609 N602 0.984 . S
H610 N598 0.984 . S
H611 N598 0.985 . S
C612 C613 1.363 . S
C612 C618 1.379 1_655 S
C612 N620 1.356 . S
C613 C612 1.363 . S
C613 C619 1.363 . S
C614 C615 1.363 . S
C614 C619 1.379 1_455 S
C614 N621 1.356 . S
C615 C614 1.363 . S
C615 C618 1.363 . S
N616 C618 1.356 . S
N616 H628 0.992 . S
N616 H629 0.985 . S
N617 C619 1.356 . S
N617 H622 0.984 . S
N617 H623 0.985 . S
C618 C612 1.379 1_455 S
C618 C615 1.363 . S
C618 N616 1.356 . S
C619 C613 1.363 . S
C619 C614 1.379 1_655 S
C619 N617 1.356 . S
N620 C612 1.356 . S
N620 H626 0.983 1_556 S
N620 H627 0.984 . S
N621 C614 1.356 . S
N621 H624 0.984 . S
N621 H625 0.985 . S
H622 N617 0.984 . S
H623 N617 0.985 . S
H624 N621 0.984 . S
H625 N621 0.985 . S
H626 N620 0.983 1_554 S
H627 N620 0.984 . S
H628 N616 0.992 . S
H629 N616 0.985 . S
C630 C631 1.363 . S
C630 C636 1.379 1_455 S
C630 N638 1.356 . S
C631 C630 1.363 . S
C631 C637 1.363 . S
C632 C633 1.363 . S
C632 C637 1.379 1_655 S
C632 N639 1.356 . S
C633 C632 1.363 . S
C633 C636 1.363 . S
N634 C636 1.356 . S
N634 H646 0.984 . S
N634 H647 0.985 . S
N635 C637 1.356 . S
N635 H640 0.984 . S
N635 H641 0.985 . S
C636 C630 1.379 1_655 S
C636 C633 1.363 . S
C636 N634 1.356 . S
C637 C631 1.363 . S
C637 C632 1.379 1_455 S
C637 N635 1.356 . S
N638 C630 1.356 . S
N638 H644 0.984 . S
N638 H645 0.984 . S
N639 C632 1.356 . S
N639 H642 0.984 . S
N639 H643 0.985 . S
H640 N635 0.984 . S
H641 N635 0.985 . S
H642 N639 0.984 . S
H643 N639 0.985 . S
H644 N638 0.984 . S
H645 N638 0.984 . S
H646 N634 0.984 . S
H647 N634 0.985 . S
C648 C649 1.363 . S
C648 C654 1.379 . S
C648 N656 1.356 . S
C649 C648 1.363 . S
C649 C655 1.363 . S
C650 C651 1.363 . S
C650 C655 1.379 . S
C650 N657 1.356 . S
C651 C650 1.363 . S
C651 C654 1.363 . S
N652 C654 1.356 . S
N652 H664 0.984 . S
N652 H665 0.985 . S
N653 C655 1.356 . S
N653 H658 0.984 . S
N653 H659 0.985 . S
C654 C648 1.379 . S
C654 C651 1.363 . S
C654 N652 1.356 . S
C655 C649 1.363 . S
C655 C650 1.379 . S
C655 N653 1.356 . S
N656 C648 1.356 . S
N656 H662 0.984 . S
N656 H663 0.984 . S
N657 C650 1.356 . S
N657 H660 0.984 . S
N657 H661 0.985 . S
H658 N653 0.984 . S
H659 N653 0.985 . S
H660 N657 0.984 . S
H661 N657 0.985 . S
H662 N656 0.984 . S
H663 N656 0.984 . S
H664 N652 0.984 . S
H665 N652 0.985 . S
C666 C667 1.363 . S
C666 C672 1.379 . S
C666 N674 1.356 . S
C667 C666 1.363 . S
C667 C673 1.363 . S
C668 C669 1.363 . S
C668 C673 1.379 . S
C668 N675 1.356 . S
C669 C668 1.363 . S
C669 C672 1.363 . S
N670 C672 1.356 . S
N670 H682 0.984 . S
N670 H683 0.985 . S
N671 C673 1.356 . S
N671 H676 0.984 . S
N671 H677 0.985 . S
C672 C666 1.379 . S
C672 C669 1.363 . S
C672 N670 1.356 . S
C673 C667 1.363 . S
C673 C668 1.379 . S
C673 N671 1.356 . S
N674 C666 1.356 . S
N674 H680 0.984 . S
N674 H681 0.984 . S
N675 C668 1.356 . S
N675 H678 0.984 . S
N675 H679 0.985 . S
H676 N671 0.984 . S
H677 N671 0.985 . S
H678 N675 0.984 . S
H679 N675 0.985 . S
H680 N674 0.984 . S
H681 N674 0.984 . S
H682 N670 0.984 . S
H683 N670 0.985 . S
C684 C685 1.363 . S
C684 C690 1.379 . S
C684 N692 1.356 . S
C685 C684 1.363 . S
C685 C691 1.363 . S
C686 C687 1.363 . S
C686 C691 1.379 . S
C686 N693 1.356 . S
C687 C686 1.363 . S
C687 C690 1.363 . S
N688 C690 1.356 . S
N688 H700 0.984 1_556 S
N688 H701 0.985 . S
N689 C691 1.356 . S
N689 H694 0.984 . S
N689 H695 0.985 . S
C690 C684 1.379 . S
C690 C687 1.363 . S
C690 N688 1.356 . S
C691 C685 1.363 . S
C691 C686 1.379 . S
C691 N689 1.356 . S
N692 C684 1.356 . S
N692 H698 0.984 1_556 S
N692 H699 0.984 . S
N693 C686 1.356 . S
N693 H696 0.984 . S
N693 H697 0.985 . S
H694 N689 0.984 . S
H695 N689 0.985 . S
H696 N693 0.984 . S
H697 N693 0.985 . S
H698 N692 0.984 1_554 S
H699 N692 0.984 . S
H700 N688 0.984 1_554 S
H701 N688 0.985 . S
C702 C703 1.363 . S
C702 C708 1.379 . S
C702 N710 1.356 . S
C703 C702 1.363 . S
C703 C709 1.363 . S
C704 C705 1.363 . S
C704 C709 1.379 . S
C704 N711 1.356 . S
C705 C704 1.363 . S
C705 C708 1.363 . S
N706 C708 1.356 . S
N706 H718 0.984 . S
N706 H719 0.985 . S
N707 C709 1.356 . S
N707 H712 0.984 . S
N707 H713 0.985 . S
C708 C702 1.379 . S
C708 C705 1.363 . S
C708 N706 1.356 . S
C709 C703 1.363 . S
C709 C704 1.379 . S
C709 N707 1.356 . S
N710 C702 1.356 . S
N710 H716 0.984 . S
N710 H717 0.984 . S
N711 C704 1.356 . S
N711 H714 0.984 . S
N711 H715 0.985 . S
H712 N707 0.984 . S
H713 N707 0.985 . S
H714 N711 0.984 . S
H715 N711 0.985 . S
H716 N710 0.984 . S
H717 N710 0.984 . S
H718 N706 0.984 . S
H719 N706 0.985 . S
C720 C721 1.363 . S
C720 C726 1.379 . S
C720 N728 1.356 . S
C721 C720 1.363 . S
C721 C727 1.363 . S
C722 C723 1.363 . S
C722 C727 1.379 . S
C722 N729 1.356 . S
C723 C722 1.363 . S
C723 C726 1.363 . S
N724 C726 1.356 . S
N724 H736 0.984 . S
N724 H737 0.985 . S
N725 C727 1.356 . S
N725 H730 0.984 . S
N725 H731 0.985 . S
C726 C720 1.379 . S
C726 C723 1.363 . S
C726 N724 1.356 . S
C727 C721 1.363 . S
C727 C722 1.379 . S
C727 N725 1.356 . S
N728 C720 1.356 . S
N728 H734 0.984 . S
N728 H735 0.984 . S
N729 C722 1.356 . S
N729 H732 0.984 . S
N729 H733 0.985 . S
H730 N725 0.984 . S
H731 N725 0.985 . S
H732 N729 0.984 . S
H733 N729 0.985 . S
H734 N728 0.984 . S
H735 N728 0.984 . S
H736 N724 0.984 . S
H737 N724 0.985 . S
C738 C739 1.363 . S
C738 C744 1.379 . S
C738 N746 1.356 . S
C739 C738 1.363 . S
C739 C745 1.363 . S
C740 C741 1.363 . S
C740 C745 1.379 . S
C740 N747 1.356 . S
C741 C740 1.363 . S
C741 C744 1.363 . S
N742 C744 1.356 . S
N742 H754 0.984 . S
N742 H755 0.985 . S
N743 C745 1.356 . S
N743 H748 0.984 . S
N743 H749 0.985 . S
C744 C738 1.379 . S
C744 C741 1.363 . S
C744 N742 1.356 . S
C745 C739 1.363 . S
C745 C740 1.379 . S
C745 N743 1.356 . S
N746 C738 1.356 . S
N746 H752 0.984 . S
N746 H753 0.984 . S
N747 C740 1.356 . S
N747 H750 0.984 . S
N747 H751 0.985 . S
H748 N743 0.984 . S
H749 N743 0.985 . S
H750 N747 0.984 . S
H751 N747 0.985 . S
H752 N746 0.984 . S
H753 N746 0.984 . S
H754 N742 0.984 . S
H755 N742 0.985 . S
C756 C757 1.363 . S
C756 C762 1.379 . S
C756 N764 1.356 . S
C757 C756 1.363 . S
C757 C763 1.363 . S
C758 C759 1.363 . S
C758 C763 1.379 . S
C758 N765 1.356 . S
C759 C758 1.363 . S
C759 C762 1.363 . S
N760 C762 1.356 . S
N760 H772 0.984 . S
N760 H773 0.985 . S
N761 C763 1.356 . S
N761 H766 0.984 . S
N761 H767 0.985 . S
C762 C756 1.379 . S
C762 C759 1.363 . S
C762 N760 1.356 . S
C763 C757 1.363 . S
C763 C758 1.379 . S
C763 N761 1.356 . S
N764 C756 1.356 . S
N764 H770 0.984 . S
N764 H771 0.984 . S
N765 C758 1.356 . S
N765 H768 0.984 . S
N765 H769 0.985 . S
H766 N761 0.984 . S
H767 N761 0.985 . S
H768 N765 0.984 . S
H769 N765 0.985 . S
H770 N764 0.984 . S
H771 N764 0.984 . S
H772 N760 0.984 . S
H773 N760 0.985 . S
C774 C775 1.363 . S
C774 C780 1.379 . S
C774 N782 1.356 . S
C775 C774 1.363 . S
C775 C781 1.363 . S
C776 C777 1.363 . S
C776 C781 1.379 . S
C776 N783 1.356 . S
C777 C776 1.363 . S
C777 C780 1.363 . S
N778 C780 1.356 . S
N778 H790 0.984 . S
N778 H791 0.985 . S
N779 C781 1.356 . S
N779 H784 0.984 . S
N779 H785 0.985 . S
C780 C774 1.379 . S
C780 C777 1.363 . S
C780 N778 1.356 . S
C781 C775 1.363 . S
C781 C776 1.379 . S
C781 N779 1.356 . S
N782 C774 1.356 . S
N782 H788 0.984 . S
N782 H789 0.984 . S
N783 C776 1.356 . S
N783 H786 0.984 . S
N783 H787 0.985 . S
H784 N779 0.984 . S
H785 N779 0.985 . S
H786 N783 0.984 . S
H787 N783 0.985 . S
H788 N782 0.984 . S
H789 N782 0.984 . S
H790 N778 0.984 . S
H791 N778 0.985 . S
C792 C793 1.363 . S
C792 C798 1.379 . S
C792 N800 1.356 . S
C793 C792 1.363 . S
C793 C799 1.363 . S
C794 C795 1.363 . S
C794 C799 1.379 . S
C794 N801 1.356 . S
C795 C794 1.363 . S
C795 C798 1.363 . S
N796 C798 1.356 . S
N796 H808 0.984 . S
N796 H809 0.985 . S
N797 C799 1.356 . S
N797 H802 0.984 . S
N797 H803 0.985 . S
C798 C792 1.379 . S
C798 C795 1.363 . S
C798 N796 1.356 . S
C799 C793 1.363 . S
C799 C794 1.379 . S
C799 N797 1.356 . S
N800 C792 1.356 . S
N800 H806 0.984 . S
N800 H807 0.984 . S
N801 C794 1.356 . S
N801 H804 0.984 . S
N801 H805 0.985 . S
H802 N797 0.984 . S
H803 N797 0.985 . S
H804 N801 0.984 . S
H805 N801 0.985 . S
H806 N800 0.984 . S
H807 N800 0.984 . S
H808 N796 0.984 . S
H809 N796 0.985 . S
C810 C811 1.363 . S
C810 C816 1.379 . S
C810 N818 1.356 . S
C811 C810 1.363 . S
C811 C817 1.363 . S
C812 C813 1.363 . S
C812 C817 1.379 . S
C812 N819 1.356 . S
C813 C812 1.363 . S
C813 C816 1.363 . S
N814 C816 1.356 . S
N814 H826 0.984 . S
N814 H827 0.985 . S
N815 C817 1.356 . S
N815 H820 0.984 . S
N815 H821 0.985 . S
C816 C810 1.379 . S
C816 C813 1.363 . S
C816 N814 1.356 . S
C817 C811 1.363 . S
C817 C812 1.379 . S
C817 N815 1.356 . S
N818 C810 1.356 . S
N818 H824 0.984 . S
N818 H825 0.984 . S
N819 C812 1.356 . S
N819 H822 0.984 . S
N819 H823 0.985 . S
H820 N815 0.984 . S
H821 N815 0.985 . S
H822 N819 0.984 . S
H823 N819 0.985 . S
H824 N818 0.984 . S
H825 N818 0.984 . S
H826 N814 0.984 . S
H827 N814 0.985 . S
C828 C829 1.363 . S
C828 C834 1.379 . S
C828 N836 1.356 . S
C829 C828 1.363 . S
C829 C835 1.363 . S
C830 C831 1.363 . S
C830 C835 1.379 . S
C830 N837 1.356 . S
C831 C830 1.363 . S
C831 C834 1.363 . S
N832 C834 1.356 . S
N832 H844 0.984 . S
N832 H845 0.985 . S
N833 C835 1.356 . S
N833 H838 0.984 . S
N833 H839 0.985 . S
C834 C828 1.379 . S
C834 C831 1.363 . S
C834 N832 1.356 . S
C835 C829 1.363 . S
C835 C830 1.379 . S
C835 N833 1.356 . S
N836 C828 1.356 . S
N836 H842 0.984 . S
N836 H843 0.984 . S
N837 C830 1.356 . S
N837 H840 0.984 . S
N837 H841 0.985 . S
H838 N833 0.984 . S
H839 N833 0.985 . S
H840 N837 0.984 . S
H841 N837 0.985 . S
H842 N836 0.984 . S
H843 N836 0.984 . S
H844 N832 0.984 . S
H845 N832 0.985 . S
C846 C847 1.363 . S
C846 C852 1.379 . S
C846 N854 1.356 . S
C847 C846 1.363 . S
C847 C853 1.363 . S
C848 C849 1.363 . S
C848 C853 1.379 . S
C848 N855 1.356 . S
C849 C848 1.363 . S
C849 C852 1.363 . S
N850 C852 1.356 . S
N850 H862 0.984 . S
N850 H863 0.985 . S
N851 C853 1.356 . S
N851 H856 0.984 . S
N851 H857 0.985 . S
C852 C846 1.379 . S
C852 C849 1.363 . S
C852 N850 1.356 . S
C853 C847 1.363 . S
C853 C848 1.379 . S
C853 N851 1.356 . S
N854 C846 1.356 . S
N854 H860 0.984 . S
N854 H861 0.984 . S
N855 C848 1.356 . S
N855 H858 0.984 . S
N855 H859 0.985 . S
H856 N851 0.984 . S
H857 N851 0.985 . S
H858 N855 0.984 . S
H859 N855 0.985 . S
H860 N854 0.984 . S
H861 N854 0.984 . S
H862 N850 0.984 . S
H863 N850 0.985 . S
C864 C865 1.363 1_554 S
C864 C870 1.379 . S
C864 N872 1.356 . S
C865 C864 1.363 1_556 S
C865 C871 1.363 . S
C866 C867 1.363 1_556 S
C866 C871 1.379 . S
C866 N873 1.356 . S
C867 C866 1.363 1_554 S
C867 C870 1.363 . S
N868 C870 1.356 . S
N868 H880 0.984 . S
N868 H881 0.985 . S
N869 C871 1.356 . S
N869 H874 0.984 . S
N869 H875 0.985 . S
C870 C864 1.379 . S
C870 C867 1.363 . S
C870 N868 1.356 . S
C871 C865 1.363 . S
C871 C866 1.379 . S
C871 N869 1.356 . S
N872 C864 1.356 . S
N872 H878 0.984 . S
N872 H879 0.984 1_554 S
N873 C866 1.356 . S
N873 H876 0.984 1_556 S
N873 H877 0.985 . S
H874 N869 0.984 . S
H875 N869 0.985 . S
H876 N873 0.984 1_554 S
H877 N873 0.985 . S
H878 N872 0.984 . S
H879 N872 0.984 1_556 S
H880 N868 0.984 . S
H881 N868 0.985 . S
C882 C883 1.363 . S
C882 C888 1.379 . S
C882 N890 1.356 . S
C883 C882 1.363 . S
C883 C889 1.363 . S
C884 C885 1.363 . S
C884 C889 1.379 . S
C884 N891 1.356 . S
C885 C884 1.363 . S
C885 C888 1.363 . S
N886 C888 1.356 . S
N886 H898 0.984 . S
N886 H899 0.985 . S
N887 C889 1.356 . S
N887 H892 0.984 . S
N887 H893 0.985 . S
C888 C882 1.379 . S
C888 C885 1.363 . S
C888 N886 1.356 . S
C889 C883 1.363 . S
C889 C884 1.379 . S
C889 N887 1.356 . S
N890 C882 1.356 . S
N890 H896 0.984 . S
N890 H897 0.984 . S
N891 C884 1.356 . S
N891 H894 0.984 . S
N891 H895 0.985 . S
H892 N887 0.984 . S
H893 N887 0.985 . S
H894 N891 0.984 . S
H895 N891 0.985 . S
H896 N890 0.984 . S
H897 N890 0.984 . S
H898 N886 0.984 . S
H899 N886 0.985 . S
C900 C901 1.363 . S
C900 C906 1.379 . S
C900 N908 1.356 . S
C901 C900 1.363 . S
C901 C907 1.363 1_554 S
C902 C903 1.363 . S
C902 C907 1.379 . S
C902 N909 1.356 . S
C903 C902 1.363 . S
C903 C906 1.363 1_556 S
N904 C906 1.356 . S
N904 H916 0.984 . S
N904 H917 0.985 . S
N905 C907 1.356 . S
N905 H910 0.984 . S
N905 H911 0.985 . S
C906 C900 1.379 . S
C906 C903 1.363 1_554 S
C906 N904 1.356 . S
C907 C901 1.363 1_556 S
C907 C902 1.379 . S
C907 N905 1.356 . S
N908 C900 1.356 . S
N908 H914 0.984 . S
N908 H915 0.984 . S
N909 C902 1.356 . S
N909 H912 0.984 . S
N909 H913 0.985 . S
H910 N905 0.984 . S
H911 N905 0.985 . S
H912 N909 0.984 . S
H913 N909 0.985 . S
H914 N908 0.984 . S
H915 N908 0.984 . S
H916 N904 0.984 . S
H917 N904 0.985 . S
C918 C919 1.363 . S
C918 C924 1.379 . S
C918 N926 1.356 . S
C919 C918 1.363 . S
C919 C925 1.363 . S
C920 C921 1.363 . S
C920 C925 1.379 . S
C920 N927 1.356 . S
C921 C920 1.363 . S
C921 C924 1.363 . S
N922 C924 1.356 . S
N922 H934 0.984 . S
N922 H935 0.985 . S
N923 C925 1.356 . S
N923 H928 0.984 . S
N923 H929 0.985 . S
C924 C918 1.379 . S
C924 C921 1.363 . S
C924 N922 1.356 . S
C925 C919 1.363 . S
C925 C920 1.379 . S
C925 N923 1.356 . S
N926 C918 1.356 . S
N926 H932 0.984 . S
N926 H933 0.984 . S
N927 C920 1.356 . S
N927 H930 0.984 . S
N927 H931 0.985 . S
H928 N923 0.984 . S
H929 N923 0.985 . S
H930 N927 0.984 . S
H931 N927 0.985 . S
H932 N926 0.984 . S
H933 N926 0.984 . S
H934 N922 0.984 . S
H935 N922 0.985 . S
C936 C937 1.363 . S
C936 C942 1.379 . S
C936 N944 1.356 . S
C937 C936 1.363 . S
C937 C943 1.363 1_554 S
C938 C939 1.363 . S
C938 C943 1.379 . S
C938 N945 1.356 . S
C939 C938 1.363 . S
C939 C942 1.363 1_556 S
N940 C942 1.356 . S
N940 H952 0.984 . S
N940 H953 0.998 . S
N941 C943 1.356 . S
N941 H946 0.989 . S
N941 H947 0.985 . S
C942 C936 1.379 . S
C942 C939 1.363 1_554 S
C942 N940 1.356 . S
C943 C937 1.363 1_556 S
C943 C938 1.379 . S
C943 N941 1.356 . S
N944 C936 1.356 . S
N944 H950 0.984 . S
N944 H951 0.984 . S
N945 C938 1.356 . S
N945 H948 0.984 . S
N945 H949 0.985 . S
H946 N941 0.989 . S
H947 N941 0.985 . S
H948 N945 0.984 . S
H949 N945 0.985 . S
H950 N944 0.984 . S
H951 N944 0.984 . S
H952 N940 0.984 . S
H953 N940 0.998 . S
C954 C955 1.363 . S
C954 C960 1.379 . S
C954 N962 1.356 . S
C955 C954 1.363 . S
C955 C961 1.363 . S
C956 C957 1.363 . S
C956 C961 1.379 . S
C956 N963 1.356 . S
C957 C956 1.363 . S
C957 C960 1.363 . S
N958 C960 1.356 . S
N958 H970 0.984 . S
N958 H971 0.985 . S
N959 C961 1.356 . S
N959 H964 0.984 . S
N959 H965 0.985 . S
C960 C954 1.379 . S
C960 C957 1.363 . S
C960 N958 1.356 . S
C961 C955 1.363 . S
C961 C956 1.379 . S
C961 N959 1.356 . S
N962 C954 1.356 . S
N962 H968 0.984 . S
N962 H969 0.984 . S
N963 C956 1.356 . S
N963 H966 0.984 . S
N963 H967 0.985 . S
H964 N959 0.984 . S
H965 N959 0.985 . S
H966 N963 0.984 . S
H967 N963 0.985 . S
H968 N962 0.984 . S
H969 N962 0.984 . S
H970 N958 0.984 . S
H971 N958 0.985 . S
C972 C973 1.363 . S
C972 C978 1.379 1_554 S
C972 N980 1.356 . S
C973 C972 1.363 . S
C973 C979 1.363 . S
C974 C975 1.363 . S
C974 C979 1.379 1_556 S
C974 N981 1.356 . S
C975 C974 1.363 . S
C975 C978 1.363 . S
N976 C978 1.356 . S
N976 H988 0.984 . S
N976 H989 0.985 . S
N977 C979 1.356 . S
N977 H982 0.984 . S
N977 H983 0.985 . S
C978 C972 1.379 1_556 S
C978 C975 1.363 . S
C978 N976 1.356 . S
C979 C973 1.363 . S
C979 C974 1.379 1_554 S
C979 N977 1.356 . S
N980 C972 1.356 . S
N980 H986 0.984 . S
N980 H987 0.984 . S
N981 C974 1.356 . S
N981 H984 0.984 . S
N981 H985 0.985 . S
H982 N977 0.984 . S
H983 N977 0.985 . S
H984 N981 0.984 . S
H985 N981 0.985 . S
H986 N980 0.984 . S
H987 N980 0.984 . S
H988 N976 0.984 . S
H989 N976 0.985 . S
C990 C991 1.363 . S
C990 C996 1.379 . S
C990 N998 1.356 . S
C991 C990 1.363 . S
C991 C997 1.363 . S
C992 C993 1.363 . S
C992 C997 1.379 . S
C992 N999 1.356 . S
C993 C992 1.363 . S
C993 C996 1.363 . S
N994 C996 1.356 . S
N994 H1006 0.984 . S
N994 H1007 0.985 . S
N995 C997 1.356 . S
N995 H1000 0.984 . S
N995 H1001 0.985 . S
C996 C990 1.379 . S
C996 C993 1.363 . S
C996 N994 1.356 . S
C997 C991 1.363 . S
C997 C992 1.379 . S
C997 N995 1.356 . S
N998 C990 1.356 . S
N998 H1004 0.984 . S
N998 H1005 0.984 . S
N999 C992 1.356 . S
N999 H1002 0.984 . S
N999 H1003 0.985 . S
H1000 N995 0.984 . S
H1001 N995 0.985 . S
H1002 N999 0.984 . S
H1003 N999 0.985 . S
H1004 N998 0.984 . S
H1005 N998 0.984 . S
H1006 N994 0.984 . S
H1007 N994 0.985 . S
C1008 C1009 1.363 . S
C1008 C1014 1.379 . S
C1008 N1016 1.356 . S
C1009 C1008 1.363 . S
C1009 C1015 1.363 1_556 S
C1010 C1011 1.363 . S
C1010 C1015 1.379 . S
C1010 N1017 1.356 . S
C1011 C1010 1.363 . S
C1011 C1014 1.363 1_554 S
N1012 C1014 1.356 . S
N1012 H1024 0.984 . S
N1012 H1025 0.985 . S
N1013 C1015 1.356 . S
N1013 H1018 0.984 . S
N1013 H1019 0.985 . S
C1014 C1008 1.379 . S
C1014 C1011 1.363 1_556 S
C1014 N1012 1.356 . S
C1015 C1009 1.363 1_554 S
C1015 C1010 1.379 . S
C1015 N1013 1.356 . S
N1016 C1008 1.356 . S
N1016 H1022 0.984 . S
N1016 H1023 0.984 . S
N1017 C1010 1.356 . S
N1017 H1020 0.984 . S
N1017 H1021 0.985 . S
H1018 N1013 0.984 . S
H1019 N1013 0.985 . S
H1020 N1017 0.984 . S
H1021 N1017 0.985 . S
H1022 N1016 0.984 . S
H1023 N1016 0.984 . S
H1024 N1012 0.984 . S
H1025 N1012 0.985 . S
C1026 C1027 1.363 . S
C1026 C1032 1.379 . S
C1026 N1034 1.356 . S
C1027 C1026 1.363 . S
C1027 C1033 1.363 . S
C1028 C1029 1.363 . S
C1028 C1033 1.379 . S
C1028 N1035 1.356 . S
C1029 C1028 1.363 . S
C1029 C1032 1.363 . S
N1030 C1032 1.356 . S
N1030 H1042 0.984 . S
N1030 H1043 0.985 . S
N1031 C1033 1.356 . S
N1031 H1036 0.984 . S
N1031 H1037 0.985 . S
C1032 C1026 1.379 . S
C1032 C1029 1.363 . S
C1032 N1030 1.356 . S
C1033 C1027 1.363 . S
C1033 C1028 1.379 . S
C1033 N1031 1.356 . S
N1034 C1026 1.356 . S
N1034 H1040 0.984 . S
N1034 H1041 0.984 . S
N1035 C1028 1.356 . S
N1035 H1038 0.984 . S
N1035 H1039 0.985 . S
H1036 N1031 0.984 . S
H1037 N1031 0.985 . S
H1038 N1035 0.984 . S
H1039 N1035 0.985 . S
H1040 N1034 0.984 . S
H1041 N1034 0.984 . S
H1042 N1030 0.984 . S
H1043 N1030 0.985 . S
C1044 C1045 1.363 1_556 S
C1044 C1050 1.379 . S
C1044 N1052 1.356 . S
C1045 C1044 1.363 1_554 S
C1045 C1051 1.363 . S
C1046 C1047 1.363 1_554 S
C1046 C1051 1.379 . S
C1046 N1053 1.356 . S
C1047 C1046 1.363 1_556 S
C1047 C1050 1.363 . S
N1048 C1050 1.356 . S
N1048 H1060 0.984 . S
N1048 H1061 0.985 . S
N1049 C1051 1.356 . S
N1049 H1054 0.984 . S
N1049 H1055 0.985 . S
C1050 C1044 1.379 . S
C1050 C1047 1.363 . S
C1050 N1048 1.356 . S
C1051 C1045 1.363 . S
C1051 C1046 1.379 . S
C1051 N1049 1.356 . S
N1052 C1044 1.356 . S
N1052 H1058 0.984 . S
N1052 H1059 0.984 . S
N1053 C1046 1.356 . S
N1053 H1056 0.984 . S
N1053 H1057 0.985 . S
H1054 N1049 0.984 . S
H1055 N1049 0.985 . S
H1056 N1053 0.984 . S
H1057 N1053 0.985 . S
H1058 N1052 0.984 . S
H1059 N1052 0.984 . S
H1060 N1048 0.984 . S
H1061 N1048 0.985 . S
C1062 C1063 1.363 . S
C1062 C1068 1.379 . S
C1062 N1070 1.356 . S
C1063 C1062 1.363 . S
C1063 C1069 1.363 . S
C1064 C1065 1.363 . S
C1064 C1069 1.379 . S
C1064 N1071 1.356 . S
C1065 C1064 1.363 . S
C1065 C1068 1.363 . S
N1066 C1068 1.356 . S
N1066 H1078 0.984 . S
N1066 H1079 0.985 . S
N1067 C1069 1.356 . S
N1067 H1072 0.984 . S
N1067 H1073 0.985 . S
C1068 C1062 1.379 . S
C1068 C1065 1.363 . S
C1068 N1066 1.356 . S
C1069 C1063 1.363 . S
C1069 C1064 1.379 . S
C1069 N1067 1.356 . S
N1070 C1062 1.356 . S
N1070 H1076 0.984 . S
N1070 H1077 0.984 . S
N1071 C1064 1.356 . S
N1071 H1074 0.984 . S
N1071 H1075 0.985 . S
H1072 N1067 0.984 . S
H1073 N1067 0.985 . S
H1074 N1071 0.984 . S
H1075 N1071 0.985 . S
H1076 N1070 0.984 . S
H1077 N1070 0.984 . S
H1078 N1066 0.984 . S
H1079 N1066 0.985 . S
C1080 C1081 1.363 1_554 S
C1080 C1086 1.379 1_545 S
C1080 N1088 1.356 . S
C1081 C1080 1.363 1_556 S
C1081 C1087 1.363 . S
C1082 C1083 1.363 1_556 S
C1082 C1087 1.379 1_565 S
C1082 N1089 1.356 . S
C1083 C1082 1.363 1_554 S
C1083 C1086 1.363 . S
N1084 C1086 1.356 . S
N1084 H1096 0.984 . S
N1084 H1097 0.985 . S
N1085 C1087 1.356 . S
N1085 H1090 0.984 . S
N1085 H1091 0.985 . S
C1086 C1080 1.379 1_565 S
C1086 C1083 1.363 . S
C1086 N1084 1.356 . S
C1087 C1081 1.363 . S
C1087 C1082 1.379 1_545 S
C1087 N1085 1.356 . S
N1088 C1080 1.356 . S
N1088 H1094 0.984 . S
N1088 H1095 0.984 . S
N1089 C1082 1.356 . S
N1089 H1092 0.984 . S
N1089 H1093 0.985 . S
H1090 N1085 0.984 . S
H1091 N1085 0.985 . S
H1092 N1089 0.984 . S
H1093 N1089 0.985 . S
H1094 N1088 0.984 . S
H1095 N1088 0.984 . S
H1096 N1084 0.984 . S
H1097 N1084 0.985 . S
C1098 C1099 1.363 . S
C1098 C1104 1.379 1_565 S
C1098 N1106 1.356 . S
C1099 C1098 1.363 . S
C1099 C1105 1.363 . S
C1100 C1101 1.363 . S
C1100 C1105 1.379 1_545 S
C1100 N1107 1.356 . S
C1101 C1100 1.363 . S
C1101 C1104 1.363 . S
N1102 C1104 1.356 . S
N1102 H1114 0.984 . S
N1102 H1115 0.985 . S
N1103 C1105 1.356 . S
N1103 H1108 0.984 . S
N1103 H1109 0.985 . S
C1104 C1098 1.379 1_545 S
C1104 C1101 1.363 . S
C1104 N1102 1.356 . S
C1105 C1099 1.363 . S
C1105 C1100 1.379 1_565 S
C1105 N1103 1.356 . S
N1106 C1098 1.356 . S
N1106 H1112 0.984 . S
N1106 H1113 0.984 . S
N1107 C1100 1.356 . S
N1107 H1110 0.984 . S
N1107 H1111 0.985 . S
H1108 N1103 0.984 . S
H1109 N1103 0.985 . S
H1110 N1107 0.984 . S
H1111 N1107 0.985 . S
H1112 N1106 0.984 . S
H1113 N1106 0.984 . S
H1114 N1102 0.984 . S
H1115 N1102 0.985 . S
C1116 C1117 1.363 . S
C1116 C1122 1.379 1_565 S
C1116 N1124 1.356 . S
C1117 C1116 1.363 . S
C1117 C1123 1.363 1_554 S
C1118 C1119 1.363 . S
C1118 C1123 1.379 1_545 S
C1118 N1125 1.356 . S
C1119 C1118 1.363 . S
C1119 C1122 1.363 1_556 S
N1120 C1122 1.356 . S
N1120 H1132 0.984 . S
N1120 H1133 0.985 . S
N1121 C1123 1.356 . S
N1121 H1126 0.984 . S
N1121 H1127 0.985 . S
C1122 C1116 1.379 1_545 S
C1122 C1119 1.363 1_554 S
C1122 N1120 1.356 . S
C1123 C1117 1.363 1_556 S
C1123 C1118 1.379 1_565 S
C1123 N1121 1.356 . S
N1124 C1116 1.356 . S
N1124 H1130 0.984 . S
N1124 H1131 0.984 . S
N1125 C1118 1.356 . S
N1125 H1128 0.984 . S
N1125 H1129 0.985 . S
H1126 N1121 0.984 . S
H1127 N1121 0.985 . S
H1128 N1125 0.984 . S
H1129 N1125 0.985 . S
H1130 N1124 0.984 . S
H1131 N1124 0.984 . S
H1132 N1120 0.984 . S
H1133 N1120 0.985 . S
C1134 C1135 1.363 . S
C1134 C1140 1.379 1_545 S
C1134 N1142 1.356 . S
C1135 C1134 1.363 . S
C1135 C1141 1.363 . S
C1136 C1137 1.363 . S
C1136 C1141 1.379 1_565 S
C1136 N1143 1.356 . S
C1137 C1136 1.363 . S
C1137 C1140 1.363 . S
N1138 C1140 1.356 . S
N1138 H1150 0.984 . S
N1138 H1151 0.985 . S
N1139 C1141 1.356 . S
N1139 H1144 0.984 . S
N1139 H1145 0.985 . S
C1140 C1134 1.379 1_565 S
C1140 C1137 1.363 . S
C1140 N1138 1.356 . S
C1141 C1135 1.363 . S
C1141 C1136 1.379 1_545 S
C1141 N1139 1.356 . S
N1142 C1134 1.356 . S
N1142 H1148 0.984 . S
N1142 H1149 0.984 . S
N1143 C1136 1.356 . S
N1143 H1146 0.984 . S
N1143 H1147 0.985 . S
H1144 N1139 0.984 . S
H1145 N1139 0.985 . S
H1146 N1143 0.984 . S
H1147 N1143 0.985 . S
H1148 N1142 0.984 . S
H1149 N1142 0.984 . S
H1150 N1138 0.984 . S
H1151 N1138 0.985 . S
C577 C3 1.461 . S
C579 C220 1.446 . S
C595 C39 1.461 . S
C597 C256 1.446 . S
C613 C148 1.446 . S
C615 C75 1.461 . S
C631 C184 1.446 . S
C633 C111 1.461 . S
C649 C508 1.446 . S
C651 C291 1.461 . S
C667 C544 1.446 . S
C669 C327 1.461 . S
C685 C363 1.461 . S
C687 C436 1.446 . S
C703 C399 1.461 . S
C705 C472 1.446 . S
C721 C2 1.465 . S
C723 C182 1.468 . S
C739 C38 1.465 . S
C741 C146 1.468 . S
C757 C74 1.465 . S
C759 C254 1.468 . S
C775 C218 1.468 . S
C777 C110 1.465 . S
C793 C470 1.468 . S
C795 C290 1.465 . S
C811 C434 1.468 . S
C813 C326 1.465 . S
C829 C362 1.465 . S
C831 C542 1.468 . S
C847 C506 1.468 . S
C849 C398 1.465 . S
C865 C435 1.382 . S
C867 C4 1.385 . S
C883 C40 1.385 . S
C885 C471 1.382 . S
C901 C507 1.382 . S
C903 C76 1.385 . S
C919 C543 1.382 . S
C921 C112 1.385 . S
C937 C292 1.385 . S
C939 C147 1.382 . S
C955 C328 1.385 . S
C957 C183 1.382 . S
C973 C219 1.382 . S
C975 C364 1.385 . S
C991 C255 1.382 . S
C993 C400 1.385 . S
C1009 C86 1.441 . S
C1011 C14 1.441 . S
C1027 C50 1.441 . S
C1029 C122 1.441 . S
C1045 C230 1.411 . S
C1047 C158 1.411 . S
C1063 C194 1.411 . S
C1065 C266 1.411 . S
C1081 C374 1.441 . S
C1083 C302 1.441 . S
C1099 C410 1.441 . S
C1101 C338 1.441 . S
C1117 C518 1.411 . S
C1119 C446 1.411 . S
C1135 C554 1.411 . S
C1137 C482 1.411 . S
