# Generated by pormake.
# Topology wlu, (5)-cn, num edge types: 1
# Building blocks:
#     Node 0, Type 0, BuildingBlock: XOMCOT_clean_sbu_0, # of connection points: 5
#     Node 1, Type 0, BuildingBlock: XOMCOT_clean_sbu_0, # of connection points: 5
#     Node 2, Type 0, BuildingBlock: XOMCOT_clean_sbu_0, # of connection points: 5
#     Node 3, Type 0, BuildingBlock: XOMCOT_clean_sbu_0, # of connection points: 5
#     Node 4, Type 0, BuildingBlock: XOMCOT_clean_sbu_0, # of connection points: 5
#     Node 5, Type 0, BuildingBlock: XOMCOT_clean_sbu_0, # of connection points: 5
#     Node 6, Type 0, BuildingBlock: XOMCOT_clean_sbu_0, # of connection points: 5
#     Node 7, Type 0, BuildingBlock: XOMCOT_clean_sbu_0, # of connection points: 5
#     Node 8, Type 0, BuildingBlock: XOMCOT_clean_sbu_0, # of connection points: 5
#     Node 9, Type 0, BuildingBlock: XOMCOT_clean_sbu_0, # of connection points: 5
#     Node 10, Type 0, BuildingBlock: XOMCOT_clean_sbu_0, # of connection points: 5
#     Node 11, Type 0, BuildingBlock: XOMCOT_clean_sbu_0, # of connection points: 5
#     Node 12, Type 0, BuildingBlock: XOMCOT_clean_sbu_0, # of connection points: 5
#     Node 13, Type 0, BuildingBlock: XOMCOT_clean_sbu_0, # of connection points: 5
#     Node 14, Type 0, BuildingBlock: XOMCOT_clean_sbu_0, # of connection points: 5
#     Node 15, Type 0, BuildingBlock: XOMCOT_clean_sbu_0, # of connection points: 5
#     Node 16, Type 0, BuildingBlock: XOMCOT_clean_sbu_0, # of connection points: 5
#     Node 17, Type 0, BuildingBlock: XOMCOT_clean_sbu_0, # of connection points: 5
#     Node 18, Type 0, BuildingBlock: XOMCOT_clean_sbu_0, # of connection points: 5
#     Node 19, Type 0, BuildingBlock: XOMCOT_clean_sbu_0, # of connection points: 5
#     Node 20, Type 0, BuildingBlock: XOMCOT_clean_sbu_0, # of connection points: 5
#     Node 21, Type 0, BuildingBlock: XOMCOT_clean_sbu_0, # of connection points: 5
#     Node 22, Type 0, BuildingBlock: XOMCOT_clean_sbu_0, # of connection points: 5
#     Node 23, Type 0, BuildingBlock: XOMCOT_clean_sbu_0, # of connection points: 5
#     Node 24, Type 0, BuildingBlock: XOMCOT_clean_sbu_0, # of connection points: 5
#     Node 25, Type 0, BuildingBlock: XOMCOT_clean_sbu_0, # of connection points: 5
#     Node 26, Type 0, BuildingBlock: XOMCOT_clean_sbu_0, # of connection points: 5
#     Node 27, Type 0, BuildingBlock: XOMCOT_clean_sbu_0, # of connection points: 5
#     Node 28, Type 0, BuildingBlock: XOMCOT_clean_sbu_0, # of connection points: 5
#     Node 29, Type 0, BuildingBlock: XOMCOT_clean_sbu_0, # of connection points: 5
#     Node 30, Type 0, BuildingBlock: XOMCOT_clean_sbu_0, # of connection points: 5
#     Node 31, Type 0, BuildingBlock: XOMCOT_clean_sbu_0, # of connection points: 5
#     Node 32, Type 0, BuildingBlock: XOMCOT_clean_sbu_0, # of connection points: 5
#     Node 33, Type 0, BuildingBlock: XOMCOT_clean_sbu_0, # of connection points: 5
#     Node 34, Type 0, BuildingBlock: XOMCOT_clean_sbu_0, # of connection points: 5
#     Node 35, Type 0, BuildingBlock: XOMCOT_clean_sbu_0, # of connection points: 5
#     Edge 36, Type (0, 0), None
#     Edge 37, Type (0, 0), None
#     Edge 38, Type (0, 0), None
#     Edge 39, Type (0, 0), None
#     Edge 40, Type (0, 0), None
#     Edge 41, Type (0, 0), None
#     Edge 42, Type (0, 0), None
#     Edge 43, Type (0, 0), None
#     Edge 44, Type (0, 0), None
#     Edge 45, Type (0, 0), None
#     Edge 46, Type (0, 0), None
#     Edge 47, Type (0, 0), None
#     Edge 48, Type (0, 0), None
#     Edge 49, Type (0, 0), None
#     Edge 50, Type (0, 0), None
#     Edge 51, Type (0, 0), None
#     Edge 52, Type (0, 0), None
#     Edge 53, Type (0, 0), None
#     Edge 54, Type (0, 0), None
#     Edge 55, Type (0, 0), None
#     Edge 56, Type (0, 0), None
#     Edge 57, Type (0, 0), None
#     Edge 58, Type (0, 0), None
#     Edge 59, Type (0, 0), None
#     Edge 60, Type (0, 0), None
#     Edge 61, Type (0, 0), None
#     Edge 62, Type (0, 0), None
#     Edge 63, Type (0, 0), None
#     Edge 64, Type (0, 0), None
#     Edge 65, Type (0, 0), None
#     Edge 66, Type (0, 0), None
#     Edge 67, Type (0, 0), None
#     Edge 68, Type (0, 0), None
#     Edge 69, Type (0, 0), None
#     Edge 70, Type (0, 0), None
#     Edge 71, Type (0, 0), None
#     Edge 72, Type (0, 0), None
#     Edge 73, Type (0, 0), None
#     Edge 74, Type (0, 0), None
#     Edge 75, Type (0, 0), None
#     Edge 76, Type (0, 0), None
#     Edge 77, Type (0, 0), None
#     Edge 78, Type (0, 0), None
#     Edge 79, Type (0, 0), None
#     Edge 80, Type (0, 0), None
#     Edge 81, Type (0, 0), None
#     Edge 82, Type (0, 0), None
#     Edge 83, Type (0, 0), None
#     Edge 84, Type (0, 0), None
#     Edge 85, Type (0, 0), None
#     Edge 86, Type (0, 0), None
#     Edge 87, Type (0, 0), None
#     Edge 88, Type (0, 0), None
#     Edge 89, Type (0, 0), None
#     Edge 90, Type (0, 0), None
#     Edge 91, Type (0, 0), None
#     Edge 92, Type (0, 0), None
#     Edge 93, Type (0, 0), None
#     Edge 94, Type (0, 0), None
#     Edge 95, Type (0, 0), None
#     Edge 96, Type (0, 0), None
#     Edge 97, Type (0, 0), None
#     Edge 98, Type (0, 0), None
#     Edge 99, Type (0, 0), None
#     Edge 100, Type (0, 0), None
#     Edge 101, Type (0, 0), None
#     Edge 102, Type (0, 0), None
#     Edge 103, Type (0, 0), None
#     Edge 104, Type (0, 0), None
#     Edge 105, Type (0, 0), None
#     Edge 106, Type (0, 0), None
#     Edge 107, Type (0, 0), None
#     Edge 108, Type (0, 0), None
#     Edge 109, Type (0, 0), None
#     Edge 110, Type (0, 0), None
#     Edge 111, Type (0, 0), None
#     Edge 112, Type (0, 0), None
#     Edge 113, Type (0, 0), None
#     Edge 114, Type (0, 0), None
#     Edge 115, Type (0, 0), None
#     Edge 116, Type (0, 0), None
#     Edge 117, Type (0, 0), None
#     Edge 118, Type (0, 0), None
#     Edge 119, Type (0, 0), None
#     Edge 120, Type (0, 0), None
#     Edge 121, Type (0, 0), None
#     Edge 122, Type (0, 0), None
#     Edge 123, Type (0, 0), None
#     Edge 124, Type (0, 0), None
#     Edge 125, Type (0, 0), None
# Relax obj value: 0.123
# Max RMSD: 0.159
# Mean RMSD: 0.157
data_MOF--net-wlu--node1-XOMCOT_clean_sbu_0--edge1-none
_symmetry_space_group_name_H-M    P1
_symmetry_Int_Tables_number       1
_symmetry_cell_setting            triclinic
loop_
_symmetry_equiv_pos_as_xyz
'x, y, z'
_cell_length_a     32.939129
_cell_length_b     32.939722
_cell_length_c     28.767345
_cell_angle_alpha  90.000596
_cell_angle_beta   89.999689
_cell_angle_gamma 120.00118
loop_
_atom_site_label
_atom_site_type_symbol
_atom_site_fract_x
_atom_site_fract_y
_atom_site_fract_z
_atom_type_partial_charge
Co0 Co 0.32823 0.2276 1.01055 0.0
C1 C 0.30584 0.13128 0.97973 0.0
C2 C 0.2435 0.13134 0.99989 0.0
C3 C 0.23236 0.08554 0.9923 0.0
N4 N 0.29012 0.16039 0.99387 0.0
N5 N 0.27164 0.08553 0.97973 0.0
H6 H 0.34236 0.14272 0.97325 0.0
H7 H 0.21843 0.14155 1.00966 0.0
C8 C 0.23714 0.21733 0.05161 0.0
O9 O 0.23578 0.18787 0.08323 0.0
N10 N 0.36634 0.2941 0.02635 0.0
C11 C 0.41352 0.31824 0.03133 0.0
C12 C 0.42672 0.36067 0.05186 0.0
C13 C 0.3518 0.32298 0.04353 0.0
N14 N 0.38784 0.36313 0.05992 0.0
C15 C 0.35081 0.18451 0.08368 0.0
C16 C 0.35544 0.24542 0.15202 0.0
C17 C 0.37908 0.22038 0.15919 0.0
C18 C 0.37382 0.1874 0.1253 0.0
C19 C 0.33109 0.23993 0.11067 0.0
N20 N 0.33172 0.21228 0.07553 0.0
H21 H 0.35247 0.16294 0.05654 0.0
H22 H 0.31478 0.26088 0.10607 0.0
H23 H 0.43681 0.3047 0.02468 0.0
H24 H 0.31557 0.3132 0.0489 0.0
O25 O 0.38442 0.22809 0.99103 0.0
O26 O 0.34184 0.24541 0.94461 0.0
O27 O 0.26901 0.23273 0.01983 0.0
C28 C 0.38004 0.24323 0.95092 0.0
H29 H 0.19816 0.05462 0.99647 0.0
H30 H 0.46133 0.3853 0.06482 0.0
H31 H 0.35729 0.27093 0.17682 0.0
H32 H 0.38888 0.16504 0.12968 0.0
Co33 Co 0.86942 0.12004 1.01055 0.0
C34 C 0.96574 0.19397 0.97974 0.0
C35 C 0.96566 0.13155 0.99983 0.0
C36 C 1.01147 0.16622 0.99225 0.0
N37 N 0.93661 0.14913 0.99385 0.0
N38 N 1.01148 0.20551 0.97972 0.0
H39 H 0.9543 0.21906 0.97329 0.0
H40 H 0.95544 0.09625 1.00956 0.0
C41 C 0.8797 0.03923 0.05159 0.0
O42 O 0.90917 0.06734 0.0832 0.0
N43 N 0.80292 0.09166 0.02635 0.0
C44 C 0.77878 0.1147 0.03133 0.0
C45 C 0.73635 0.08547 0.05185 0.0
C46 C 0.77403 0.04823 0.04353 0.0
N47 N 0.73388 0.04413 0.05991 0.0
C48 C 0.91252 0.18572 0.08367 0.0
C49 C 0.85162 0.12944 0.15202 0.0
C50 C 0.87666 0.17811 0.15919 0.0
C51 C 0.90964 0.20583 0.1253 0.0
C52 C 0.8571 0.11058 0.11067 0.0
N53 N 0.88474 0.13885 0.07552 0.0
H54 H 0.93408 0.20894 0.05653 0.0
H55 H 0.83614 0.07331 0.10606 0.0
H56 H 0.79232 0.15153 0.02468 0.0
H57 H 0.78381 1.02179 0.0489 0.0
O58 O 0.86893 0.17575 0.99103 0.0
O59 O 0.85159 0.11583 0.9446 0.0
O60 O 0.86428 0.05569 0.01982 0.0
C61 C 0.85378 0.15622 0.95091 0.0
H62 H 1.04238 0.16292 0.99639 0.0
H63 H 0.71172 0.09545 0.06482 0.0
H64 H 0.82611 0.10577 0.17682 0.0
H65 H 0.932 0.24326 0.12967 0.0
Co66 Co 0.97697 0.76878 1.01054 0.0
C67 C 0.90303 0.79116 0.97976 0.0
C68 C 0.96547 0.85352 0.9998 0.0
C69 C 0.9308 0.86466 0.99223 0.0
N70 N 0.94789 0.80689 0.99385 0.0
N71 N 0.89149 0.82537 0.97973 0.0
H72 H 0.87794 0.75463 0.97333 0.0
H73 H 1.00078 0.8786 1.00951 0.0
C74 C 1.05777 0.85988 0.05158 0.0
O75 O 1.02966 0.86125 0.08318 0.0
N76 N 1.00536 0.73067 0.02634 0.0
C77 C 0.98232 0.68349 0.03132 0.0
C78 C 1.01155 0.67029 0.05185 0.0
C79 C 1.04878 0.74521 0.04353 0.0
N80 N 1.05289 0.70916 0.05991 0.0
C81 C 0.9113 0.74618 0.08367 0.0
C82 C 0.9676 0.74159 0.15201 0.0
C83 C 0.91893 0.71794 0.15919 0.0
C84 C 0.89119 0.72318 0.1253 0.0
C85 C 0.98645 0.76594 0.11066 0.0
N86 N 0.95817 0.76529 0.07552 0.0
H87 H 0.88807 0.74451 0.05654 0.0
H88 H 1.02372 0.78226 0.10606 0.0
H89 H 0.94549 0.6602 0.02466 0.0
H90 H 0.07522 0.78143 0.0489 0.0
O91 O 0.92126 0.71258 0.99102 0.0
O92 O 0.98118 0.75516 0.9446 0.0
O93 O 1.04132 0.82799 0.01981 0.0
C94 C 0.94079 0.71697 0.95091 0.0
H95 H 0.93411 0.89887 0.99635 0.0
H96 H 1.00156 0.63567 0.06481 0.0
H97 H 0.99127 0.73976 0.17681 0.0
H98 H 0.85377 0.70811 0.12968 0.0
Co99 Co 0.2473 0.29165 0.49747 0.0
C100 C 0.32598 0.32835 0.43164 0.0
C101 C 0.34897 0.32589 0.50095 0.0
C102 C 0.38736 0.34489 0.4717 0.0
N103 N 0.31074 0.31623 0.47571 0.0
N104 N 0.37246 0.34608 0.42831 0.0
H105 H 0.30423 0.32702 0.40287 0.0
H106 H 0.34919 0.32148 0.53819 0.0
C107 C 0.25373 0.3428 0.58574 0.0
O108 O 0.21932 0.30306 0.60147 0.0
N109 N 0.1825 0.26631 0.51822 0.0
C110 C 0.15517 0.22558 0.5409 0.0
C111 C 0.11135 0.22041 0.54773 0.0
C112 C 0.15468 0.28525 0.51178 0.0
N113 N 0.11103 0.25764 0.52871 0.0
C114 C 0.21048 0.30874 0.41625 0.0
C115 C 0.27107 0.4048 0.41383 0.0
C116 C 0.24428 0.38173 0.3748 0.0
C117 C 0.21246 0.33362 0.37665 0.0
C118 C 0.26836 0.37846 0.45284 0.0
N119 N 0.2395 0.33084 0.45284 0.0
H120 H 0.18739 0.27121 0.41672 0.0
H121 H 0.29243 0.39599 0.48107 0.0
H122 H 0.16585 0.20085 0.55153 0.0
H123 H 0.16571 0.31831 0.49447 0.0
O124 O 0.2291 0.23718 0.45834 0.0
O125 O 0.25333 0.2435 0.53111 0.0
O126 O 0.27089 0.3442 0.54561 0.0
C127 C 0.2413 0.21962 0.49227 0.0
H128 H 0.42366 0.36018 0.48205 0.0
H129 H 0.08148 0.19057 0.56353 0.0
H130 H 0.29574 0.44213 0.41312 0.0
H131 H 0.19054 0.31523 0.34707 0.0
Co132 Co 0.80536 0.97506 0.49747 0.0
C133 C 0.76867 1.01704 0.43164 0.0
C134 C 0.77112 0.0425 0.50094 0.0
C135 C 0.75213 0.06189 0.47168 0.0
N136 N 0.78078 1.01392 0.4757 0.0
N137 N 0.75094 0.04579 0.4283 0.0
H138 H 0.76999 0.99662 0.40287 0.0
H139 H 0.77553 0.04713 0.53818 0.0
C140 C 0.75421 0.93034 0.58574 0.0
O141 O 0.79395 0.93568 0.60148 0.0
N142 N 0.83069 0.9356 0.51822 0.0
C143 C 0.87142 0.949 0.5409 0.0
C144 C 0.87658 0.91034 0.54773 0.0
C145 C 0.81174 0.88883 0.51178 0.0
N146 N 0.83935 0.87279 0.52872 0.0
C147 C 0.78826 0.92115 0.41625 0.0
C148 C 0.69221 0.88569 0.41384 0.0
C149 C 0.71528 0.88196 0.37481 0.0
C150 C 0.76338 0.89825 0.37665 0.0
C151 C 0.71854 0.90931 0.45284 0.0
N152 N 0.76616 0.92807 0.45285 0.0
H153 H 0.82579 0.93559 0.41672 0.0
H154 H 0.70101 0.91585 0.48107 0.0
H155 H 0.89615 0.9844 0.55153 0.0
H156 H 0.77867 0.8668 0.49449 0.0
O157 O 0.85983 1.01133 0.45835 0.0
O158 O 0.8535 1.02924 0.53111 0.0
O159 O 0.7528 0.9461 0.54562 0.0
C160 C 0.87739 0.04109 0.49228 0.0
H161 H 0.73685 0.08291 0.48203 0.0
H162 H 0.90642 0.91031 0.56352 0.0
H163 H 0.65487 0.87302 0.41312 0.0
H164 H 0.78178 0.89472 0.34707 0.0
Co165 Co 0.12193 0.8497 0.49749 0.0
C166 C 0.07996 0.77103 0.43165 0.0
C167 C 1.0545 0.74803 0.50095 0.0
C168 C 1.03511 0.70964 0.47169 0.0
N169 N 0.08308 0.78626 0.47572 0.0
N170 N 1.05121 0.72455 0.42831 0.0
H171 H 0.10038 0.79278 0.40288 0.0
H172 H 1.04987 0.74781 0.53819 0.0
C173 C 0.16667 0.84328 0.58575 0.0
O174 O 0.16137 0.8777 0.60148 0.0
N175 N 0.16139 0.9145 0.51824 0.0
C176 C 0.14799 0.94183 0.54092 0.0
C177 C 0.18665 0.98566 0.54774 0.0
C178 C 0.20816 0.94233 0.51178 0.0
N179 N 0.2242 0.98597 0.52871 0.0
C180 C 0.17585 0.88651 0.41627 0.0
C181 C 0.21132 0.82593 0.41386 0.0
C182 C 0.21504 0.85271 0.37483 0.0
C183 C 0.19875 0.88453 0.37667 0.0
C184 C 0.18769 0.82864 0.45286 0.0
N185 N 0.16893 0.8575 0.45286 0.0
H186 H 0.16141 0.9096 0.41673 0.0
H187 H 0.18115 0.80457 0.48109 0.0
H188 H 0.11259 0.93114 0.55156 0.0
H189 H 0.23019 0.93129 0.49448 0.0
O190 O 0.08567 0.8679 0.45835 0.0
O191 O 0.06775 0.84367 0.53112 0.0
O192 O 0.15089 0.82611 0.54563 0.0
C193 C 1.0559 0.8557 0.49228 0.0
H194 H 1.0141 0.67335 0.48204 0.0
H195 H 0.18668 1.01552 0.56353 0.0
H196 H 0.22398 0.80126 0.41315 0.0
H197 H 0.20228 0.90645 0.34708 0.0
Co198 Co 0.78006 0.85424 1.00866 0.0
C199 C 0.83379 0.95856 0.02468 0.0
C200 C 0.85055 0.9218 0.07563 0.0
C201 C 0.87559 0.96933 0.08544 0.0
N202 N 0.82379 0.91474 0.03763 0.0
N203 N 0.86472 0.99227 0.05336 0.0
H204 H 0.81949 0.96674 0.99496 0.0
H205 H 0.85161 0.89432 0.09521 0.0
C206 C 0.84762 0.81947 0.97455 0.0
O207 O 0.81444 0.77981 0.95793 0.0
N208 N 0.73376 0.79507 0.97771 0.0
C209 C 0.70035 0.79461 0.94999 0.0
C210 C 0.67729 0.75368 0.9263 0.0
C211 C 0.72533 0.75007 0.97451 0.0
N212 N 0.69323 0.72559 0.94081 0.0
C213 C 0.75106 0.90569 0.95169 0.0
C214 C 0.77698 0.88277 0.86903 0.0
C215 C 0.74117 0.89431 0.86855 0.0
C216 C 0.73105 0.90933 0.91041 0.0
C217 C 0.79555 0.87876 0.91132 0.0
N218 N 0.77975 0.88677 0.95219 0.0
H219 H 0.73859 0.91236 0.98392 0.0
H220 H 0.81857 0.86434 0.91103 0.0
H221 H 0.69097 0.82137 0.94812 0.0
H222 H 0.74095 0.73517 0.99684 0.0
O223 O 0.72812 0.85355 0.04228 0.0
O224 O 0.76954 0.82237 0.06828 0.0
O225 O 0.83868 0.8512 0.98895 0.0
C226 C 0.73607 0.83165 0.07547 0.0
H227 H 0.8994 0.98558 0.11433 0.0
H228 H 0.64836 0.74381 0.90251 0.0
H229 H 0.78855 0.8738 0.83746 0.0
H230 H 0.7044 0.91923 0.91272 0.0
Co231 Co 0.24278 0.94523 1.00868 0.0
C232 C 0.13845 0.89464 0.02468 0.0
C233 C 0.1752 0.94818 0.07562 0.0
C234 C 0.12767 0.92569 0.08542 0.0
N235 N 0.18227 0.92846 0.03764 0.0
N236 N 0.10474 0.89187 0.05335 0.0
H237 H 0.13028 0.87214 0.99498 0.0
H238 H 0.20268 0.97673 0.09519 0.0
C239 C 0.27753 0.04755 0.97451 0.0
O240 O 0.31714 0.05401 0.95777 0.0
N241 N 0.30195 0.95809 0.97776 0.0
C242 C 0.3024 0.92506 0.95015 0.0
C243 C 0.34331 0.94289 0.92643 0.0
C244 C 0.34693 0.99467 0.97446 0.0
N245 N 0.3714 0.98697 0.9408 0.0
C246 C 0.19135 0.86479 0.9517 0.0
C247 C 0.21431 0.91363 0.86905 0.0
C248 C 0.20276 0.86628 0.86857 0.0
C249 C 0.18773 0.84114 0.91042 0.0
C250 C 0.21831 0.93621 0.91133 0.0
N251 N 0.21027 0.9124 0.9522 0.0
H252 H 0.18466 0.84564 0.98393 0.0
H253 H 0.23272 0.97365 0.91104 0.0
H254 H 0.27565 0.88891 0.9484 0.0
H255 H 0.36184 1.02526 0.9967 0.0
O256 O 0.24344 0.89398 0.04232 0.0
O257 O 0.27463 0.96657 0.06832 0.0
O258 O 0.24584 1.00689 0.98898 0.0
C259 C 0.26534 0.92382 0.07551 0.0
H260 H 0.11141 0.93326 0.1143 0.0
H261 H 0.35316 0.92376 0.9027 0.0
H262 H 0.22329 0.93418 0.83747 0.0
H263 H 0.17782 0.80459 0.91274 0.0
Co264 Co 0.15179 0.31696 1.00865 0.0
C265 C 0.20237 0.26322 0.02468 0.0
C266 C 0.14887 0.24649 0.07564 0.0
C267 C 0.17136 0.22145 0.08546 0.0
N268 N 0.16857 0.27324 0.03763 0.0
N269 N 0.20516 0.23231 0.05337 0.0
H270 H 0.22485 0.27751 0.99495 0.0
H271 H 0.12034 0.24544 0.09523 0.0
C272 C 1.04946 0.24938 0.97453 0.0
O273 O 1.04299 0.28256 0.95789 0.0
N274 N 0.13891 0.36325 0.97769 0.0
C275 C 0.17188 0.39666 0.94998 0.0
C276 C 0.154 0.41972 0.92629 0.0
C277 C 0.10235 0.37168 0.97449 0.0
N278 N 0.10997 0.40377 0.94078 0.0
C279 C 0.23224 0.34595 0.95169 0.0
C280 C 0.18341 0.32003 0.86903 0.0
C281 C 0.23077 0.35585 0.86856 0.0
C282 C 0.2559 0.36597 0.91041 0.0
C283 C 0.16083 0.30146 0.91132 0.0
N284 N 0.18463 0.31726 0.95219 0.0
H285 H 0.25139 0.35843 0.98392 0.0
H286 H 0.12339 0.27843 0.91102 0.0
H287 H 0.20802 0.40604 0.94812 0.0
H288 H 0.07182 0.35605 0.99681 0.0
O289 O 0.20303 0.3689 0.04228 0.0
O290 O 0.13043 0.32748 0.06827 0.0
O291 O 0.09013 0.25834 0.98894 0.0
C292 C 0.17319 0.36096 0.07546 0.0
H293 H 0.16381 0.19765 0.11436 0.0
H294 H 0.17308 0.44865 0.9025 0.0
H295 H 0.16287 0.30845 0.83746 0.0
H296 H 0.29245 0.39262 0.91273 0.0
Co297 Co 0.87243 0.76581 0.51969 0.0
C298 C 0.97565 0.82796 0.51494 0.0
C299 C 0.9442 0.82668 0.4494 0.0
C300 C 0.99239 0.84898 0.44389 0.0
N301 N 0.93341 0.81235 0.49395 0.0
N302 N 1.01179 0.84848 0.48505 0.0
H303 H 0.98061 0.82215 0.55082 0.0
H304 H 0.91898 0.81843 0.42181 0.0
C305 C 0.83384 0.82936 0.52227 0.0
O306 O 0.8008 0.79942 0.49441 0.0
N307 N 0.81455 0.71755 0.5491 0.0
C308 C 0.81371 0.67872 0.56543 0.0
C309 C 0.77777 0.65607 0.59599 0.0
C310 C 0.77676 0.7166 0.56966 0.0
N311 N 0.7537 0.67902 0.59863 0.0
C312 C 0.92293 0.73995 0.58137 0.0
C313 C 0.90029 0.77156 0.66107 0.0
C314 C 0.91664 0.74001 0.66456 0.0
C315 C 0.93038 0.72597 0.62455 0.0
C316 C 0.89293 0.7844 0.6172 0.0
N317 N 0.90208 0.76672 0.57806 0.0
H318 H 0.9304 0.72627 0.55043 0.0
H319 H 0.87562 0.80474 0.61549 0.0
H320 H 0.83867 0.66778 0.55668 0.0
H321 H 0.76567 0.74192 0.56333 0.0
O322 O 0.87645 0.71623 0.48552 0.0
O323 O 0.84229 0.7544 0.45891 0.0
O324 O 0.86336 0.81925 0.53968 0.0
C325 C 0.85333 0.72226 0.45215 0.0
H326 H 1.01112 0.86066 0.41125 0.0
H327 H 0.76723 0.62246 0.61196 0.0
H328 H 0.88914 0.78258 0.69166 0.0
H329 H 0.94338 0.70161 0.62656 0.0
Co330 Co 0.33119 0.12605 0.51969 0.0
C331 C 0.26905 0.16712 0.51493 0.0
C332 C 0.27034 0.13695 0.44939 0.0
C333 C 0.24804 0.16285 0.44388 0.0
N334 N 0.28467 0.1405 0.49394 0.0
N335 N 0.24853 0.18274 0.48503 0.0
H336 H 0.27485 0.17788 0.55081 0.0
H337 H 0.2786 0.11998 0.4218 0.0
C338 C 0.26763 1.02391 0.52226 0.0
O339 O 0.29756 1.0208 0.49439 0.0
N340 N 0.37944 0.11642 0.54913 0.0
C341 C 0.41826 0.15439 0.56549 0.0
C342 C 0.44089 0.14106 0.59605 0.0
C343 C 0.38035 0.07955 0.56967 0.0
N344 N 0.41791 0.09403 0.59866 0.0
C345 C 0.35705 0.2024 0.58138 0.0
C346 C 0.32541 0.14815 0.66107 0.0
C347 C 0.35697 0.19604 0.66457 0.0
C348 C 0.37102 0.22383 0.62456 0.0
C349 C 0.31258 0.12795 0.6172 0.0
N350 N 0.33027 0.15479 0.57807 0.0
H351 H 0.37073 0.22355 0.55044 0.0
H352 H 0.29223 0.0903 0.61549 0.0
H353 H 0.42923 0.1903 0.55675 0.0
H354 H 0.35503 0.04316 0.5633 0.0
O355 O 0.38079 0.17965 0.48554 0.0
O356 O 0.34262 0.10732 0.45892 0.0
O357 O 0.27773 0.06353 0.53967 0.0
C358 C 0.37476 0.1505 0.45218 0.0
H359 H 0.23637 0.16989 0.41123 0.0
H360 H 0.47451 0.1641 0.61202 0.0
H361 H 0.31439 0.12597 0.69166 0.0
H362 H 0.39539 0.26119 0.62657 0.0
Co363 Co 0.97095 0.22455 0.51971 0.0
C364 C 0.92989 0.12134 0.51494 0.0
C365 C 0.96006 0.1528 0.44941 0.0
C366 C 0.93416 0.10461 0.44389 0.0
N367 N 0.95651 0.16359 0.49395 0.0
N368 N 0.91427 0.0852 0.48504 0.0
H369 H 0.91912 0.11638 0.55082 0.0
H370 H 0.97703 0.17803 0.42181 0.0
C371 C 0.0731 0.26314 0.52227 0.0
O372 O 0.0762 0.29618 0.49441 0.0
N373 N 0.98058 0.28243 0.54914 0.0
C374 C 0.9426 0.28328 0.56549 0.0
C375 C 0.95592 0.31923 0.59606 0.0
C376 C 1.01744 0.32021 0.56969 0.0
N377 N 1.00295 0.34328 0.59867 0.0
C378 C 0.8946 0.17405 0.58139 0.0
C379 C 0.94886 0.19668 0.66109 0.0
C380 C 0.90096 0.18034 0.66458 0.0
C381 C 0.87318 0.1666 0.62458 0.0
C382 C 0.96906 0.20404 0.61721 0.0
N383 N 0.94222 0.19489 0.57808 0.0
H384 H 0.87345 0.16658 0.55045 0.0
H385 H 1.00671 0.22135 0.6155 0.0
H386 H 0.9067 0.25832 0.55675 0.0
H387 H 1.05384 0.33129 0.56333 0.0
O388 O 0.91735 0.22055 0.48556 0.0
O389 O 0.98968 0.25471 0.45894 0.0
O390 O 1.03348 0.23363 0.53968 0.0
C391 C 0.9465 0.24367 0.45219 0.0
H392 H 0.92712 0.08589 0.41124 0.0
H393 H 0.93287 0.32979 0.61202 0.0
H394 H 0.97103 0.20784 0.69168 0.0
H395 H 0.83581 0.1536 0.62658 0.0
Co396 Co 0.99494 0.56113 0.34381 0.0
C397 C 0.97269 0.46479 0.31326 0.0
C398 C 0.91024 0.46486 0.33296 0.0
C399 C 0.89914 0.41905 0.32545 0.0
N400 N 0.9569 0.4939 0.32719 0.0
N401 N 0.93849 0.41904 0.31316 0.0
H402 H 1.00924 0.47623 0.30696 0.0
H403 H 0.88512 0.47509 0.34246 0.0
C404 C 0.90376 0.55064 0.3848 0.0
O405 O 0.90239 0.5211 0.41634 0.0
N406 N 1.033 0.62765 0.35955 0.0
C407 C 0.08018 0.65182 0.36456 0.0
C408 C 0.09334 0.69419 0.38522 0.0
C409 C 1.0184 0.65645 0.37684 0.0
N410 N 1.05442 0.69653 0.39337 0.0
C411 C 1.01785 0.51838 0.41699 0.0
C412 C 1.02223 0.57928 0.48521 0.0
C413 C 1.04616 0.55455 0.49238 0.0
C414 C 1.04103 0.52155 0.45856 0.0
C415 C 0.99772 0.57352 0.44392 0.0
N416 N 0.9985 0.54591 0.40881 0.0
H417 H 1.01959 0.49683 0.38989 0.0
H418 H 0.98119 0.59428 0.4393 0.0
H419 H 0.1035 0.63833 0.35784 0.0
H420 H 0.98217 0.64664 0.38219 0.0
O421 O 1.05117 0.56168 0.32429 0.0
O422 O 1.0085 0.57887 0.27784 0.0
O423 O 0.93569 0.56618 0.35308 0.0
C424 C 1.04673 0.57674 0.28416 0.0
H425 H 0.86491 0.38814 0.32944 0.0
H426 H 0.12795 0.71883 0.3982 0.0
H427 H 1.02394 0.60475 0.50999 0.0
H428 H 1.05631 0.49938 0.46296 0.0
Co429 Co 0.53589 0.45323 0.34381 0.0
C430 C 0.63224 0.52731 0.31327 0.0
C431 C 0.63215 0.46478 0.33291 0.0
C432 C 0.67796 0.49949 0.3254 0.0
N433 N 0.60311 0.4824 0.32717 0.0
N434 N 0.67798 0.53885 0.31315 0.0
H435 H 0.62079 0.55243 0.307 0.0
H436 H 0.62192 0.42942 0.34239 0.0
C437 C 0.54639 0.37254 0.38479 0.0
O438 O 0.57594 0.40071 0.41632 0.0
N439 N 0.46938 0.42477 0.35957 0.0
C440 C 0.4452 0.44779 0.36457 0.0
C441 C 0.40283 0.41858 0.38522 0.0
C442 C 0.44057 0.38137 0.37685 0.0
N443 N 0.40049 0.37731 0.39337 0.0
C444 C 0.57867 0.51889 0.41698 0.0
C445 C 0.51778 0.46238 0.48522 0.0
C446 C 0.54253 0.51105 0.49239 0.0
C447 C 0.57553 0.53891 0.45856 0.0
C448 C 0.52352 0.44362 0.44392 0.0
N449 N 0.55112 0.472 0.40881 0.0
H450 H 0.60022 0.54218 0.38988 0.0
H451 H 0.50275 0.40634 0.43931 0.0
H452 H 0.4587 0.48459 0.35785 0.0
H453 H 0.45037 0.35495 0.3822 0.0
O454 O 0.53535 0.50891 0.32429 0.0
O455 O 0.51814 0.44904 0.27785 0.0
O456 O 0.53084 0.38892 0.35308 0.0
C457 C 0.52027 0.4894 0.28416 0.0
H458 H 0.70888 0.49616 0.32937 0.0
H459 H 0.37819 0.42855 0.3982 0.0
H460 H 0.49232 0.43863 0.51001 0.0
H461 H 0.59771 0.57636 0.46296 0.0
Co462 Co 0.64379 0.10206 0.3438 0.0
C463 C 0.56969 0.12431 0.31329 0.0
C464 C 0.63224 0.18677 0.33289 0.0
C465 C 0.59753 0.19787 0.32539 0.0
N466 N 0.61461 0.1401 0.32718 0.0
N467 N 0.55816 0.15852 0.31317 0.0
H468 H 0.54457 0.08775 0.30704 0.0
H469 H 0.66761 0.2119 0.34234 0.0
C470 C 0.72447 0.19326 0.38478 0.0
O471 O 0.69629 0.19464 0.41629 0.0
N472 N 0.67225 0.06401 0.35954 0.0
C473 C 0.64924 1.01682 0.36454 0.0
C474 C 0.67845 1.00366 0.38519 0.0
C475 C 0.71565 0.0786 0.37683 0.0
N476 N 0.71971 0.04258 0.39335 0.0
C477 C 0.57814 0.07914 0.41698 0.0
C478 C 0.63468 0.07479 0.4852 0.0
C479 C 0.58601 0.05083 0.49237 0.0
C480 C 0.55813 0.05595 0.45855 0.0
C481 C 0.65342 0.0993 0.4439 0.0
N482 N 0.62503 0.09851 0.4088 0.0
H483 H 0.55483 0.07738 0.38989 0.0
H484 H 0.69071 0.11585 0.43929 0.0
H485 H 0.61244 0.9935 0.35781 0.0
H486 H 0.74207 0.11483 0.38219 0.0
O487 O 0.58811 0.04583 0.32428 0.0
O488 O 0.64796 0.0885 0.27783 0.0
O489 O 0.70809 0.16132 0.35307 0.0
C490 C 0.60761 0.05027 0.28414 0.0
H491 H 0.60086 0.23212 0.32934 0.0
H492 H 0.66848 0.96906 0.39817 0.0
H493 H 0.65845 0.07309 0.50998 0.0
H494 H 0.52068 0.04066 0.46296 0.0
Co495 Co 0.91406 0.62493 0.8308 0.0
C496 C 0.99284 0.66165 0.7651 0.0
C497 C 1.01574 0.65925 0.83447 0.0
C498 C 1.05419 0.67835 0.8053 0.0
N499 N 0.97753 0.6495 0.80914 0.0
N500 N 1.03935 0.67951 0.76188 0.0
H501 H 0.97114 0.66031 0.73629 0.0
H502 H 1.01589 0.65487 0.87172 0.0
C503 C 0.92033 0.67612 0.91901 0.0
O504 O 0.88583 0.63642 0.93471 0.0
N505 N 0.84924 0.59963 0.85144 0.0
C506 C 0.82183 0.5589 0.87408 0.0
C507 C 0.77804 0.55382 0.88088 0.0
C508 C 0.8215 0.61868 0.84501 0.0
N509 N 0.77783 0.59112 0.8619 0.0
C510 C 0.87737 0.6421 0.74953 0.0
C511 C 0.93798 0.73815 0.74718 0.0
C512 C 0.9112 0.71511 0.70813 0.0
C513 C 0.87938 0.667 0.70994 0.0
C514 C 0.93523 0.71178 0.78618 0.0
N515 N 0.90636 0.66417 0.78615 0.0
H516 H 0.85426 0.60457 0.74998 0.0
H517 H 0.95928 0.72929 0.81442 0.0
H518 H 0.83244 0.53412 0.8847 0.0
H519 H 0.83261 0.65177 0.82775 0.0
O520 O 0.89588 0.57047 0.79166 0.0
O521 O 0.92002 0.57673 0.86445 0.0
O522 O 0.93761 0.67748 0.87896 0.0
C523 C 0.90802 0.55287 0.82559 0.0
H524 H 0.09047 0.69374 0.81573 0.0
H525 H 0.74813 0.52401 0.89665 0.0
H526 H 0.96265 0.77548 0.7465 0.0
H527 H 0.85746 0.64863 0.68035 0.0
Co528 Co 0.47206 0.30853 0.83081 0.0
C529 C 0.43535 0.35059 0.7651 0.0
C530 C 0.43775 0.37589 0.83447 0.0
C531 C 0.41866 0.39525 0.80529 0.0
N532 N 0.4475 0.34743 0.80914 0.0
N533 N 0.41751 0.37925 0.76188 0.0
H534 H 0.4367 0.33023 0.73629 0.0
H535 H 0.44213 0.38043 0.87172 0.0
C536 C 0.42088 0.26361 0.91902 0.0
O537 O 0.46058 0.26883 0.93472 0.0
N538 N 0.49735 0.269 0.85145 0.0
C539 C 0.53809 0.28232 0.87407 0.0
C540 C 0.54316 0.2436 0.88088 0.0
C541 C 0.4783 0.22222 0.84501 0.0
N542 N 0.50585 0.20609 0.8619 0.0
C543 C 0.45489 0.25466 0.74954 0.0
C544 C 0.35884 0.21924 0.74719 0.0
C545 C 0.38188 0.2155 0.70814 0.0
C546 C 0.42998 0.23177 0.70995 0.0
C547 C 0.3852 0.24285 0.78619 0.0
N548 N 0.43282 0.26159 0.78616 0.0
H549 H 0.49242 0.26909 0.74998 0.0
H550 H 0.3677 0.2494 0.81443 0.0
H551 H 0.56288 0.31772 0.88469 0.0
H552 H 0.4452 0.20024 0.82776 0.0
O553 O 0.52653 0.34481 0.79166 0.0
O554 O 0.52027 0.36269 0.86445 0.0
O555 O 0.41952 0.27953 0.87897 0.0
C556 C 0.54413 0.37455 0.8256 0.0
H557 H 0.40327 0.41614 0.81572 0.0
H558 H 0.57298 0.24351 0.89663 0.0
H559 H 0.32151 0.20658 0.74651 0.0
H560 H 0.44835 0.22823 0.68036 0.0
Co561 Co 0.78846 0.18294 0.83081 0.0
C562 C 0.7464 0.10417 0.7651 0.0
C563 C 0.7211 0.08126 0.83446 0.0
C564 C 0.70175 0.04282 0.80529 0.0
N565 N 0.74956 0.11947 0.80914 0.0
N566 N 0.71775 0.05766 0.76187 0.0
H567 H 0.76677 0.12588 0.73629 0.0
H568 H 0.71656 0.0811 0.87172 0.0
C569 C 0.8334 0.17668 0.91902 0.0
O570 O 0.8282 0.21118 0.93471 0.0
N571 N 0.82799 0.24776 0.85145 0.0
C572 C 0.81466 0.27517 0.87408 0.0
C573 C 0.85338 0.31896 0.88088 0.0
C574 C 0.87477 0.2755 0.84501 0.0
N575 N 0.89089 0.31917 0.8619 0.0
C576 C 0.84233 0.21963 0.74955 0.0
C577 C 0.87776 0.15902 0.7472 0.0
C578 C 0.8815 0.18579 0.70815 0.0
C579 C 0.86523 0.21762 0.70996 0.0
C580 C 0.85414 0.16176 0.78619 0.0
N581 N 0.8354 0.19064 0.78617 0.0
H582 H 0.8279 0.24274 0.74999 0.0
H583 H 0.84759 0.13772 0.81444 0.0
H584 H 0.77927 0.26456 0.88471 0.0
H585 H 0.89675 0.26438 0.82775 0.0
O586 O 0.75218 0.20113 0.79167 0.0
O587 O 0.73429 0.17698 0.86445 0.0
O588 O 0.81745 0.15939 0.87897 0.0
C589 C 0.72244 0.18898 0.8256 0.0
H590 H 0.68086 1.00653 0.81571 0.0
H591 H 0.85348 0.34888 0.89664 0.0
H592 H 0.89042 0.13434 0.74652 0.0
H593 H 0.86877 0.23953 0.68036 0.0
Co594 Co 0.44678 0.18749 0.34209 0.0
C595 C 0.50047 0.29184 0.358 0.0
C596 C 0.51747 0.25517 0.40884 0.0
C597 C 0.5425 0.30272 0.4186 0.0
N598 N 0.49057 0.24805 0.37094 0.0
N599 N 0.53147 0.32559 0.38658 0.0
H600 H 0.48603 0.29996 0.32835 0.0
H601 H 0.51864 0.22773 0.42838 0.0
C602 C 0.51426 0.15259 0.30808 0.0
O603 O 0.48102 0.11283 0.2917 0.0
N604 N 0.40039 0.12828 0.31127 0.0
C605 C 0.36693 0.12781 0.28362 0.0
C606 C 0.34381 0.08685 0.25998 0.0
C607 C 0.39193 0.08327 0.30809 0.0
N608 N 0.35977 0.05877 0.27445 0.0
C609 C 0.41776 0.23885 0.285 0.0
C610 C 0.44357 0.21575 0.20238 0.0
C611 C 0.40784 0.2274 0.20187 0.0
C612 C 0.39775 0.24247 0.2437 0.0
C613 C 0.46215 0.21178 0.24469 0.0
N614 N 0.44642 0.21991 0.28555 0.0
H615 H 0.40529 0.24557 0.31721 0.0
H616 H 0.48512 0.19731 0.24443 0.0
H617 H 0.35756 0.15458 0.28177 0.0
H618 H 0.40753 0.06836 0.33042 0.0
O619 O 0.39491 0.18691 0.37575 0.0
O620 O 0.43633 0.15575 0.40178 0.0
O621 O 0.50536 0.18439 0.32235 0.0
C622 C 0.40289 0.16507 0.40897 0.0
H623 H 0.5664 0.31902 0.44741 0.0
H624 H 0.31483 0.07697 0.23623 0.0
H625 H 0.45509 0.20669 0.17082 0.0
H626 H 0.37113 0.25242 0.246 0.0
Co627 Co 0.90952 0.2787 0.3421 0.0
C628 C 0.80518 0.22805 0.35799 0.0
C629 C 0.84183 0.28172 0.40882 0.0
C630 C 0.79429 0.2592 0.41858 0.0
N631 N 0.84896 0.26194 0.37093 0.0
N632 N 0.77142 0.2253 0.38657 0.0
H633 H 0.79706 0.20547 0.32836 0.0
H634 H 0.86927 0.31033 0.42837 0.0
C635 C 0.94441 0.38108 0.30805 0.0
O636 O 0.98413 0.38758 0.29157 0.0
N637 N 0.96874 0.29152 0.3113 0.0
C638 C 0.96921 0.25848 0.28372 0.0
C639 C 1.01015 0.27629 0.26006 0.0
C640 C 1.01373 0.32808 0.30806 0.0
N641 N 1.03823 0.32037 0.27444 0.0
C642 C 0.85818 0.19832 0.285 0.0
C643 C 0.88131 0.24725 0.20238 0.0
C644 C 0.86965 0.19986 0.20187 0.0
C645 C 0.85457 0.1747 0.2437 0.0
C646 C 0.88527 0.26979 0.24469 0.0
N647 N 0.87712 0.24593 0.28555 0.0
H648 H 0.85145 0.17914 0.31721 0.0
H649 H 0.89974 0.30724 0.24443 0.0
H650 H 0.94244 0.22233 0.28194 0.0
H651 H 1.02864 0.35864 0.33032 0.0
O652 O 0.91009 0.22741 0.37576 0.0
O653 O 0.94126 0.29999 0.4018 0.0
O654 O 0.91264 0.34039 0.32236 0.0
C655 C 0.93193 0.25722 0.40899 0.0
H656 H 0.77798 0.26681 0.44739 0.0
H657 H 1.02002 0.25715 0.23636 0.0
H658 H 0.89037 0.26782 0.17083 0.0
H659 H 0.84462 0.13814 0.246 0.0
Co660 Co 0.81832 0.65024 0.34207 0.0
C661 C 0.86897 0.59655 0.35799 0.0
C662 C 0.81532 0.57958 0.40885 0.0
C663 C 0.83784 0.55455 0.41861 0.0
N664 N 0.83509 0.60646 0.37093 0.0
N665 N 0.87172 0.56556 0.38659 0.0
H666 H 0.89153 0.61097 0.32834 0.0
H667 H 0.78672 0.57842 0.4284 0.0
C668 C 0.71594 0.58274 0.30806 0.0
O669 O 0.70942 0.61598 0.29167 0.0
N670 N 0.80549 0.69661 0.31124 0.0
C671 C 0.83848 0.73007 0.28357 0.0
C672 C 0.82063 0.75318 0.25993 0.0
C673 C 0.76895 0.70508 0.30806 0.0
N674 N 0.7766 0.73723 0.27441 0.0
C675 C 0.89872 0.67926 0.28499 0.0
C676 C 0.8498 0.65343 0.20237 0.0
C677 C 0.89718 0.68917 0.20186 0.0
C678 C 0.92235 0.69927 0.2437 0.0
C679 C 0.82725 0.63485 0.24468 0.0
N680 N 0.85111 0.65059 0.28554 0.0
H681 H 0.9179 0.69173 0.31721 0.0
H682 H 0.78981 0.61187 0.24441 0.0
H683 H 0.87462 0.73944 0.28172 0.0
H684 H 0.73843 0.68947 0.3304 0.0
O685 O 0.86961 0.70212 0.37573 0.0
O686 O 0.79702 0.6607 0.40175 0.0
O687 O 0.75664 0.59166 0.32233 0.0
C688 C 0.83979 0.69414 0.40895 0.0
H689 H 0.83025 0.53066 0.44744 0.0
H690 H 0.83973 0.78215 0.23618 0.0
H691 H 0.82923 0.6419 0.17081 0.0
H692 H 0.95891 0.72589 0.24599 0.0
Co693 Co 0.53886 0.09909 0.85265 0.0
C694 C 0.64213 0.1612 0.84818 0.0
C695 C 0.61081 0.1602 0.78264 0.0
C696 C 0.65901 0.18245 0.7772 0.0
N697 N 0.59992 0.14572 0.82713 0.0
N698 N 0.67833 0.18179 0.81835 0.0
H699 H 0.647 0.15523 0.88403 0.0
H700 H 0.58565 0.15207 0.75501 0.0
C701 C 0.50025 0.16262 0.85544 0.0
O702 O 0.46716 0.13272 0.8276 0.0
N703 N 0.48088 0.05068 0.88184 0.0
C704 C 0.4801 1.01177 0.89783 0.0
C705 C 0.44411 0.98879 0.92824 0.0
C706 C 0.44297 0.04948 0.90245 0.0
N707 N 0.4199 1.01159 0.93106 0.0
C708 C 0.58917 0.073 0.91438 0.0
C709 C 0.56652 0.10457 0.9941 0.0
C710 C 0.58288 0.07303 0.99758 0.0
C711 C 0.5966 0.05899 0.95756 0.0
C712 C 0.55916 0.11743 0.95024 0.0
N713 N 0.56835 0.0998 0.91108 0.0
H714 H 0.59666 0.05935 0.88343 0.0
H715 H 0.54186 0.13778 0.94855 0.0
H716 H 0.50518 1.00101 0.88901 0.0
H717 H 0.43185 0.07482 0.89644 0.0
O718 O 0.54298 0.04965 0.81832 0.0
O719 O 0.50887 0.08789 0.7918 0.0
O720 O 0.52975 0.15246 0.87279 0.0
C721 C 0.51992 0.05577 0.78496 0.0
H722 H 0.67779 0.19422 0.74459 0.0
H723 H 0.43375 0.95517 0.9441 0.0
H724 H 0.55538 0.11559 0.0247 0.0
H725 H 0.60961 1.03463 0.95955 0.0
Co726 Co 0.99791 0.45919 0.85267 0.0
C727 C 0.9358 0.50035 0.84818 0.0
C728 C 0.93683 0.47004 0.78263 0.0
C729 C 0.91457 0.49599 0.77719 0.0
N730 N 0.9513 0.47363 0.82713 0.0
N731 N 0.91522 0.51596 0.81835 0.0
H732 H 0.94176 0.51118 0.88403 0.0
H733 H 0.94496 0.45301 0.75501 0.0
C734 C 0.93436 0.35705 0.85544 0.0
O735 O 0.96426 0.35387 0.82759 0.0
N736 N 1.0463 0.44961 0.88188 0.0
C737 C 0.08521 0.48773 0.8979 0.0
C738 C 0.10817 0.47469 0.92831 0.0
C739 C 1.04749 0.41288 0.90247 0.0
N740 N 0.08536 0.42768 0.93109 0.0
C741 C 1.02399 0.53558 0.9144 0.0
C742 C 0.99241 0.48136 0.99411 0.0
C743 C 1.02395 0.52925 0.9976 0.0
C744 C 1.03799 0.55702 0.95758 0.0
C745 C 0.97955 0.46114 0.95025 0.0
N746 N 0.99719 0.48797 0.9111 0.0
H747 H 1.03764 0.55673 0.88345 0.0
H748 H 0.95921 0.42349 0.94856 0.0
H749 H 0.09599 0.52358 0.8891 0.0
H750 H 1.02215 0.37643 0.89642 0.0
O751 O 1.04737 0.51275 0.81836 0.0
O752 O 1.00913 0.4404 0.79182 0.0
O753 O 0.94453 0.3967 0.87279 0.0
C754 C 1.04126 0.48358 0.78499 0.0
H755 H 0.9028 0.50299 0.74458 0.0
H756 H 0.14179 0.49793 0.94418 0.0
H757 H 0.98139 0.45919 0.02471 0.0
H758 H 0.06236 0.59439 0.95958 0.0
Co759 Co 0.6378 0.55812 0.8527 0.0
C760 C 0.59666 0.45485 0.84819 0.0
C761 C 0.62695 0.48619 0.78265 0.0
C762 C 0.60101 0.43799 0.7772 0.0
N763 N 0.62337 0.49706 0.82715 0.0
N764 N 0.58104 0.41866 0.81836 0.0
H765 H 0.58583 0.44997 0.88404 0.0
H766 H 0.64398 0.51136 0.75502 0.0
C767 C 0.73995 0.59672 0.85545 0.0
O768 O 0.74313 0.6298 0.8276 0.0
N769 N 0.64738 0.61608 0.88191 0.0
C770 C 0.60927 0.61687 0.89795 0.0
C771 C 0.62232 0.65287 0.92836 0.0
C772 C 0.68412 0.654 0.90249 0.0
N773 N 0.66933 0.67707 0.93113 0.0
C774 C 0.56142 0.50778 0.91443 0.0
C775 C 0.61565 0.53045 0.99414 0.0
C776 C 0.56775 0.51409 0.99763 0.0
C777 C 0.53998 0.50035 0.95761 0.0
C778 C 0.63586 0.5378 0.95027 0.0
N779 N 0.60903 0.52861 0.91112 0.0
H780 H 0.54027 0.50029 0.88348 0.0
H781 H 0.67351 0.55511 0.94858 0.0
H782 H 0.57342 0.59179 0.88915 0.0
H783 H 0.72057 0.66511 0.89644 0.0
O784 O 0.58424 0.55401 0.81839 0.0
O785 O 0.65658 0.58813 0.79185 0.0
O786 O 0.7003 0.56722 0.87281 0.0
C787 C 0.61341 0.57708 0.78503 0.0
H788 H 0.594 0.41922 0.74459 0.0
H789 H 0.59908 0.66325 0.94423 0.0
H790 H 0.63782 0.5416 0.02473 0.0
H791 H 0.50261 0.48734 0.9596 0.0
Co792 Co 0.66151 0.89428 0.67726 0.0
C793 C 0.63926 0.79796 0.64686 0.0
C794 C 0.57669 0.79815 0.66576 0.0
C795 C 0.56555 0.75231 0.65824 0.0
N796 N 0.62343 0.82711 0.66048 0.0
N797 N 0.605 0.75224 0.64651 0.0
H798 H 0.67585 0.80936 0.64094 0.0
H799 H 0.55155 0.80847 0.67498 0.0
C800 C 0.57029 0.88379 0.71813 0.0
O801 O 0.56873 0.85407 0.74955 0.0
N802 N 0.69959 0.96075 0.69316 0.0
C803 C 0.74677 0.98488 0.69826 0.0
C804 C 0.75992 1.02724 0.71893 0.0
C805 C 0.685 0.98957 0.7104 0.0
N806 N 0.72101 1.02963 0.72698 0.0
C807 C 0.68419 0.85128 0.7504 0.0
C808 C 0.68849 0.91202 0.81875 0.0
C809 C 0.71233 0.88718 0.82591 0.0
C810 C 0.7072 0.85425 0.79202 0.0
C811 C 0.66411 0.90643 0.7774 0.0
N812 N 0.66493 0.8789 0.74224 0.0
H813 H 0.68601 0.82981 0.72328 0.0
H814 H 0.64767 0.92727 0.77279 0.0
H815 H 0.77007 0.97136 0.69158 0.0
H816 H 0.64877 0.97979 0.71567 0.0
O817 O 0.71774 0.89482 0.65776 0.0
O818 O 0.67517 0.91216 0.61133 0.0
O819 O 0.6023 0.89939 0.6865 0.0
C820 C 0.71337 0.90998 0.61765 0.0
H821 H 0.53126 0.72143 0.66195 0.0
H822 H 0.79451 0.05186 0.73197 0.0
H823 H 0.69021 0.93746 0.84357 0.0
H824 H 0.72239 0.832 0.79639 0.0
Co825 Co 0.20274 0.78664 0.67726 0.0
C826 C 0.29906 0.86072 0.64691 0.0
C827 C 0.29885 0.79791 0.66563 0.0
C828 C 0.34469 0.83262 0.65812 0.0
N829 N 0.2699 0.81571 0.66046 0.0
N830 N 0.34477 0.87217 0.64651 0.0
H831 H 0.28767 0.88594 0.64108 0.0
H832 H 0.28851 0.76243 0.67477 0.0
C833 C 0.21326 0.70593 0.71811 0.0
O834 O 0.24302 0.7341 0.74949 0.0
N835 N 0.13627 0.75826 0.69317 0.0
C836 C 0.11214 0.78131 0.69827 0.0
C837 C 0.06978 0.7521 0.71894 0.0
C838 C 0.10745 0.71485 0.71042 0.0
N839 N 0.06739 0.7108 0.72699 0.0
C840 C 0.24576 0.85232 0.7504 0.0
C841 C 0.18504 0.79588 0.81876 0.0
C842 C 0.20988 0.84456 0.82592 0.0
C843 C 0.2428 0.87237 0.79203 0.0
C844 C 0.19062 0.77709 0.7774 0.0
N845 N 0.21814 0.80544 0.74223 0.0
H846 H 0.26721 0.87562 0.72327 0.0
H847 H 0.16978 0.73981 0.77279 0.0
H848 H 0.12566 0.81813 0.69159 0.0
H849 H 0.11723 0.68839 0.7157 0.0
O850 O 0.2022 0.84233 0.65776 0.0
O851 O 0.18484 0.78242 0.61134 0.0
O852 O 0.19762 0.72232 0.6865 0.0
C853 C 0.18703 0.8228 0.61766 0.0
H854 H 0.37557 0.82918 0.66176 0.0
H855 H 1.04516 0.76207 0.73197 0.0
H856 H 0.15961 0.77215 0.84358 0.0
H857 H 0.26505 0.90981 0.79639 0.0
Co858 Co 0.31037 0.4355 0.67725 0.0
C859 C 0.23629 0.45774 0.64692 0.0
C860 C 0.2991 0.52034 0.66563 0.0
C861 C 0.26439 0.53147 0.65813 0.0
N862 N 0.28129 0.47358 0.66046 0.0
N863 N 0.22484 0.492 0.64652 0.0
H864 H 0.21107 0.42113 0.64108 0.0
H865 H 0.33458 0.54548 0.67477 0.0
C866 C 0.39108 0.52673 0.7181 0.0
O867 O 0.3629 0.52831 0.74948 0.0
N868 N 0.33876 0.39741 0.69316 0.0
C869 C 0.31571 0.35024 0.69825 0.0
C870 C 0.34491 0.33708 0.71892 0.0
C871 C 0.38216 0.41201 0.71041 0.0
N872 N 0.38621 0.376 0.72699 0.0
C873 C 0.24469 0.41281 0.7504 0.0
C874 C 0.30115 0.40855 0.81875 0.0
C875 C 0.25247 0.38469 0.82591 0.0
C876 C 0.22465 0.3898 0.79202 0.0
C877 C 0.31994 0.43293 0.7774 0.0
N878 N 0.29157 0.43209 0.74223 0.0
H879 H 0.22139 0.41096 0.72328 0.0
H880 H 0.35722 0.44939 0.77278 0.0
H881 H 0.27889 0.32694 0.69156 0.0
H882 H 0.40862 0.44824 0.7157 0.0
O883 O 0.25468 0.37927 0.65776 0.0
O884 O 0.31459 0.42183 0.61133 0.0
O885 O 0.37469 0.4947 0.68649 0.0
C886 C 0.27421 0.38363 0.61765 0.0
H887 H 0.26783 0.56578 0.66177 0.0
H888 H 0.33494 0.30249 0.73195 0.0
H889 H 0.32489 0.40686 0.84357 0.0
H890 H 0.18721 0.3746 0.79639 0.0
Co891 Co 0.58069 0.9583 0.16398 0.0
C892 C 0.65939 0.99505 0.09818 0.0
C893 C 0.68238 0.99267 0.16751 0.0
C894 C 0.72081 1.01181 0.13831 0.0
N895 N 0.64413 0.98288 0.14223 0.0
N896 N 0.7059 1.013 0.09494 0.0
H897 H 0.63764 0.99365 0.06938 0.0
H898 H 0.68257 0.98827 0.20476 0.0
C899 C 0.58717 1.00944 0.25223 0.0
O900 O 0.55289 0.96964 0.26801 0.0
N901 N 0.51589 0.933 0.18474 0.0
C902 C 0.48854 0.89228 0.20741 0.0
C903 C 0.44475 0.88719 0.2143 0.0
C904 C 0.48813 0.95202 0.17835 0.0
N905 N 0.44449 0.92446 0.19532 0.0
C906 C 0.54383 0.97527 0.08272 0.0
C907 C 0.60434 0.07133 0.08019 0.0
C908 C 0.57754 0.0482 0.04119 0.0
C909 C 0.54576 1.00009 0.04308 0.0
C910 C 0.60169 0.04505 0.11923 0.0
N911 N 0.57286 0.99742 0.11929 0.0
H912 H 0.52075 0.93773 0.08323 0.0
H913 H 0.62576 0.06262 0.14744 0.0
H914 H 0.49918 0.86751 0.21802 0.0
H915 H 0.4992 0.9851 0.16106 0.0
O916 O 0.56248 0.90377 0.12493 0.0
O917 O 0.58674 0.91019 0.1977 0.0
O918 O 0.60427 1.01091 0.21206 0.0
C919 C 0.57469 0.88625 0.1589 0.0
H920 H 0.75711 1.0272 0.14869 0.0
H921 H 0.41487 0.85738 0.23011 0.0
H922 H 0.62898 0.10867 0.07944 0.0
H923 H 0.52382 0.98164 0.01353 0.0
Co924 Co 0.1387 0.6418 0.164 0.0
C925 C 0.10196 0.68375 0.09818 0.0
C926 C 0.10434 0.70912 0.16752 0.0
C927 C 0.0852 0.72842 0.13831 0.0
N928 N 0.11413 0.68066 0.14224 0.0
N929 N 0.08401 0.71231 0.09494 0.0
H930 H 0.10335 0.66339 0.06939 0.0
H931 H 0.10874 0.71372 0.20477 0.0
C932 C 0.08756 0.59714 0.25224 0.0
O933 O 0.12736 0.60266 0.26802 0.0
N934 N 0.164 0.6023 0.18475 0.0
C935 C 0.20472 0.61566 0.20742 0.0
C936 C 0.20981 0.57696 0.2143 0.0
C937 C 0.14497 0.55551 0.17836 0.0
N938 N 0.17253 0.53943 0.19532 0.0
C939 C 0.12172 0.58796 0.08273 0.0
C940 C 1.02566 0.55242 0.08021 0.0
C941 C 1.04879 0.54875 0.0412 0.0
C942 C 0.0969 0.56508 0.0431 0.0
C943 C 1.05195 0.57604 0.11925 0.0
N944 N 0.09957 0.59484 0.1193 0.0
H945 H 0.15926 0.60243 0.08324 0.0
H946 H 1.03437 0.58254 0.14746 0.0
H947 H 0.22949 0.65107 0.21802 0.0
H948 H 0.11189 0.53351 0.16107 0.0
O949 O 0.19323 0.67812 0.12494 0.0
O950 O 0.18681 0.69596 0.19771 0.0
O951 O 0.08609 0.61277 0.21207 0.0
C952 C 0.21075 0.70784 0.15891 0.0
H953 H 0.06981 0.74932 0.14869 0.0
H954 H 0.23962 0.5769 0.2301 0.0
H955 H 0.98832 0.53972 0.07946 0.0
H956 H 0.11534 0.56158 0.01354 0.0
Co957 Co 0.4552 0.51631 0.164 0.0
C958 C 0.41325 0.43762 0.09819 0.0
C959 C 0.38787 0.41462 0.16752 0.0
C960 C 0.36858 0.37619 0.13831 0.0
N961 N 0.41634 0.45287 0.14225 0.0
N962 N 0.38469 0.3911 0.09495 0.0
H963 H 0.43361 0.45937 0.0694 0.0
H964 H 0.38327 0.41442 0.20477 0.0
C965 C 0.49987 0.50984 0.25225 0.0
O966 O 0.49439 0.54414 0.26802 0.0
N967 N 0.4947 0.58111 0.18475 0.0
C968 C 0.48134 0.60846 0.20743 0.0
C969 C 0.52003 0.65225 0.2143 0.0
C970 C 0.54148 0.60887 0.17836 0.0
N971 N 0.55757 0.65251 0.19532 0.0
C972 C 0.50904 0.55316 0.08274 0.0
C973 C 0.54458 0.49264 0.08024 0.0
C974 C 0.54826 0.51944 0.04122 0.0
C975 C 0.53193 0.55122 0.04311 0.0
C976 C 0.52096 0.4953 0.11927 0.0
N977 N 0.50216 0.52413 0.11932 0.0
H978 H 0.49458 0.57623 0.08325 0.0
H979 H 0.51445 0.47124 0.14748 0.0
H980 H 0.44593 0.59782 0.21804 0.0
H981 H 0.56349 0.5978 0.16107 0.0
O982 O 0.41889 0.53452 0.12495 0.0
O983 O 0.40104 0.51026 0.19771 0.0
O984 O 0.48422 0.49273 0.21208 0.0
C985 C 0.38916 0.52232 0.15891 0.0
H986 H 0.34768 0.33989 0.14869 0.0
H987 H 0.5201 0.68213 0.23011 0.0
H988 H 0.55728 0.468 0.07949 0.0
H989 H 0.53543 0.57315 0.01355 0.0
Co990 Co 0.11343 0.521 0.675 0.0
C991 C 0.16705 0.62526 0.69137 0.0
C992 C 0.18399 0.58843 0.74205 0.0
C993 C 0.20915 0.63597 0.75186 0.0
N994 N 0.15704 0.58142 0.70421 0.0
N995 N 0.19817 0.65894 0.71993 0.0
H996 H 0.15265 0.6335 0.66177 0.0
H997 H 0.18516 0.56092 0.76147 0.0
C998 C 0.18087 0.48596 0.64181 0.0
O999 O 0.14731 0.44564 0.62693 0.0
N1000 N 0.06731 0.46185 0.64376 0.0
C1001 C 1.03475 0.46137 0.61468 0.0
C1002 C 1.01183 0.4201 0.59152 0.0
C1003 C 0.05832 0.41661 0.64185 0.0
N1004 N 1.02693 0.3919 0.60771 0.0
C1005 C 0.08448 0.57264 0.61823 0.0
C1006 C 0.11094 0.55038 0.5355 0.0
C1007 C 0.07502 0.56178 0.53502 0.0
C1008 C 0.0647 0.57658 0.57691 0.0
C1009 C 0.12936 0.54619 0.57781 0.0
N1010 N 0.11324 0.55381 0.61869 0.0
H1011 H 0.07179 0.57904 0.65047 0.0
H1012 H 0.15244 0.53184 0.5775 0.0
H1013 H 1.02571 0.48826 0.61148 0.0
H1014 H 0.07317 0.40178 0.66527 0.0
O1015 O 0.06137 0.52007 0.70859 0.0
O1016 O 0.10284 0.48892 0.73452 0.0
O1017 O 0.17216 0.51816 0.65517 0.0
C1018 C 0.06932 0.49813 0.74173 0.0
H1019 H 0.23316 0.6522 0.78061 0.0
H1020 H 0.98348 0.41011 0.56695 0.0
H1021 H 0.12264 0.54159 0.50391 0.0
H1022 H 1.03798 0.58638 0.57921 0.0
Co1023 Co 0.57602 0.61185 0.67503 0.0
C1024 C 0.47175 0.5612 0.69137 0.0
C1025 C 0.50857 0.61499 0.74205 0.0
C1026 C 0.46103 0.59261 0.75185 0.0
N1027 N 0.51559 0.59505 0.70422 0.0
N1028 N 0.43807 0.55864 0.71992 0.0
H1029 H 0.46352 0.53856 0.66177 0.0
H1030 H 0.53607 0.64367 0.76147 0.0
C1031 C 0.61102 0.7143 0.64174 0.0
O1032 O 0.65127 0.72104 0.62664 0.0
N1033 N 0.63517 0.62486 0.64384 0.0
C1034 C 0.63566 0.5927 0.6149 0.0
C1035 C 0.6769 0.611 0.59169 0.0
C1036 C 0.68039 0.66115 0.64181 0.0
N1037 N 0.70509 0.65438 0.60773 0.0
C1038 C 0.5244 0.53127 0.61824 0.0
C1039 C 0.54673 0.58001 0.53552 0.0
C1040 C 0.53532 0.53269 0.53504 0.0
C1041 C 0.5205 0.50757 0.57692 0.0
C1042 C 0.55091 0.60262 0.57783 0.0
N1043 N 0.54324 0.57887 0.6187 0.0
H1044 H 0.51797 0.51218 0.65047 0.0
H1045 H 0.56527 0.64005 0.57752 0.0
H1046 H 0.60878 0.55675 0.61183 0.0
H1047 H 0.69521 0.69093 0.66511 0.0
O1048 O 0.57692 0.5607 0.70863 0.0
O1049 O 0.60807 0.63332 0.73457 0.0
O1050 O 0.57888 0.67343 0.65522 0.0
C1051 C 0.59885 0.59058 0.74178 0.0
H1052 H 0.44479 0.60038 0.7806 0.0
H1053 H 0.68689 0.59257 0.56721 0.0
H1054 H 0.55555 0.6005 0.50393 0.0
H1055 H 0.51068 0.47104 0.57922 0.0
Co1056 Co 0.48518 0.98359 0.67497 0.0
C1057 C 0.53581 0.92997 0.69136 0.0
C1058 C 0.48208 0.91309 0.74208 0.0
C1059 C 0.50446 0.88793 0.7519 0.0
N1060 N 0.50199 0.93999 0.70421 0.0
N1061 N 0.53839 0.89888 0.71995 0.0
H1062 H 0.55842 0.94432 0.66173 0.0
H1063 H 0.45343 0.91195 0.76152 0.0
C1064 C 0.38271 0.91614 0.64182 0.0
O1065 O 0.37592 0.9497 0.62698 0.0
N1066 N 0.47215 1.02969 0.64371 0.0
C1067 C 0.50418 0.06221 0.61457 0.0
C1068 C 0.48581 0.08512 0.59142 0.0
C1069 C 0.43591 1.0387 0.64184 0.0
N1070 N 0.44254 0.07004 0.60768 0.0
C1071 C 0.56579 1.01253 0.61823 0.0
C1072 C 0.51708 0.98604 0.53549 0.0
C1073 C 0.56439 1.02197 0.53501 0.0
C1074 C 0.58951 1.0323 0.5769 0.0
C1075 C 0.49446 0.96763 0.5778 0.0
N1076 N 0.51819 0.98376 0.61868 0.0
H1077 H 0.58487 1.02523 0.65046 0.0
H1078 H 0.45703 0.94454 0.57749 0.0
H1079 H 0.5401 0.07123 0.61132 0.0
H1080 H 0.40626 1.02388 0.6653 0.0
O1081 O 0.5363 1.03566 0.70856 0.0
O1082 O 0.46368 0.99419 0.73448 0.0
O1083 O 0.42362 0.92485 0.65515 0.0
C1084 C 0.50641 1.02771 0.7417 0.0
H1085 H 0.49671 0.86396 0.78068 0.0
H1086 H 0.50415 0.11344 0.56681 0.0
H1087 H 0.4966 0.97433 0.50389 0.0
H1088 H 0.62603 0.05903 0.5792 0.0
Co1089 Co 0.20566 0.43249 0.18627 0.0
C1090 C 0.30891 0.49459 0.18163 0.0
C1091 C 0.27748 0.4936 0.11616 0.0
C1092 C 0.32567 0.51583 0.11063 0.0
N1093 N 0.26667 0.47912 0.16066 0.0
N1094 N 0.34506 0.51516 0.15174 0.0
H1095 H 0.31385 0.48863 0.21746 0.0
H1096 H 0.25227 0.48547 0.08858 0.0
C1097 C 0.16696 0.49596 0.18893 0.0
O1098 O 0.13389 0.46601 0.1611 0.0
N1099 N 0.14773 0.38409 0.21553 0.0
C1100 C 0.14698 0.34521 0.23157 0.0
C1101 C 0.11097 0.32222 0.26196 0.0
C1102 C 0.10978 0.38287 0.23609 0.0
N1103 N 0.08674 0.345 0.26472 0.0
C1104 C 0.25605 0.40655 0.24803 0.0
C1105 C 0.23334 0.43814 0.3277 0.0
C1106 C 0.2497 0.4066 0.33122 0.0
C1107 C 0.26347 0.39256 0.29122 0.0
C1108 C 0.22601 0.45098 0.28382 0.0
N1109 N 0.23521 0.43333 0.24469 0.0
H1110 H 0.26355 0.39289 0.21709 0.0
H1111 H 0.2087 0.47132 0.2821 0.0
H1112 H 0.17208 0.33447 0.22278 0.0
H1113 H 0.09864 0.40818 0.23003 0.0
O1114 O 0.20983 0.38304 0.15203 0.0
O1115 O 0.17562 0.42117 0.12544 0.0
O1116 O 0.19648 0.48585 0.20632 0.0
C1117 C 0.18672 0.38908 0.11866 0.0
H1118 H 0.3444 0.52759 0.07799 0.0
H1119 H 0.10062 0.28862 0.27784 0.0
H1120 H 0.22216 0.44915 0.35828 0.0
H1121 H 0.27647 0.3682 0.29324 0.0
Co1122 Co 0.66451 0.79258 0.18627 0.0
C1123 C 0.60243 0.83374 0.18162 0.0
C1124 C 0.60342 0.8033 0.11615 0.0
C1125 C 0.58119 0.82926 0.11062 0.0
N1126 N 0.61789 0.80697 0.16066 0.0
N1127 N 0.58185 0.84932 0.15173 0.0
H1128 H 0.60839 0.84464 0.21745 0.0
H1129 H 0.61154 0.78621 0.08857 0.0
C1130 C 0.60104 0.69042 0.18892 0.0
O1131 O 0.63098 0.6873 0.16108 0.0
N1132 N 0.71291 0.78305 0.21554 0.0
C1133 C 0.75179 0.82117 0.2316 0.0
C1134 C 0.77476 0.80813 0.26199 0.0
C1135 C 0.71411 0.74631 0.23609 0.0
N1136 N 0.75197 0.76112 0.26473 0.0
C1137 C 0.69046 0.86891 0.24803 0.0
C1138 C 0.65886 0.81461 0.3277 0.0
C1139 C 0.6904 0.86251 0.33122 0.0
C1140 C 0.70444 0.89032 0.29123 0.0
C1141 C 0.64601 0.79444 0.28382 0.0
N1142 N 0.66367 0.8213 0.2447 0.0
H1143 H 0.70412 0.89008 0.2171 0.0
H1144 H 0.62567 0.75679 0.2821 0.0
H1145 H 0.76254 0.85702 0.22282 0.0
H1146 H 0.6888 0.70986 0.23 0.0
O1147 O 0.71398 0.8462 0.15204 0.0
O1148 O 0.67584 0.77387 0.12545 0.0
O1149 O 0.61115 0.73004 0.20631 0.0
C1150 C 0.70794 0.81706 0.11867 0.0
H1151 H 0.56942 0.83622 0.07799 0.0
H1152 H 0.80837 0.83137 0.27788 0.0
H1153 H 0.64784 0.79243 0.35828 0.0
H1154 H 0.72881 0.92768 0.29325 0.0
Co1155 Co 0.30442 0.89134 0.1863 0.0
C1156 C 0.26327 0.78809 0.18164 0.0
C1157 C 0.2937 0.81952 0.11617 0.0
C1158 C 0.26774 0.77134 0.11063 0.0
N1159 N 0.29003 0.83033 0.16067 0.0
N1160 N 0.24769 0.75194 0.15174 0.0
H1161 H 0.25237 0.78314 0.21747 0.0
H1162 H 0.31078 0.84474 0.08859 0.0
C1163 C 0.40658 0.93003 0.18893 0.0
O1164 O 0.4097 0.96309 0.1611 0.0
N1165 N 0.31395 0.94926 0.21557 0.0
C1166 C 0.27582 0.95001 0.23164 0.0
C1167 C 0.28887 0.98603 0.26203 0.0
C1168 C 0.35068 0.9872 0.23612 0.0
N1169 N 0.33588 1.01025 0.26476 0.0
C1170 C 0.22809 0.84094 0.24806 0.0
C1171 C 0.28239 0.86365 0.32773 0.0
C1172 C 0.23449 0.84729 0.33124 0.0
C1173 C 0.20669 0.83352 0.29125 0.0
C1174 C 0.30257 0.87098 0.28385 0.0
N1175 N 0.27571 0.86177 0.24472 0.0
H1176 H 0.20692 0.83343 0.21712 0.0
H1177 H 0.34022 0.88829 0.28212 0.0
H1178 H 0.23998 0.92491 0.22286 0.0
H1179 H 0.38714 0.99835 0.23003 0.0
O1180 O 0.25079 0.88717 0.15207 0.0
O1181 O 0.32313 0.92139 0.12548 0.0
O1182 O 0.36696 0.90051 0.20633 0.0
C1183 C 0.27994 0.91029 0.1187 0.0
H1184 H 0.26078 0.75262 0.078 0.0
H1185 H 0.26563 0.99639 0.27791 0.0
H1186 H 0.30458 0.87483 0.35831 0.0
H1187 H 0.16932 0.82051 0.29327 0.0
loop_
_geom_bond_atom_site_label_1
_geom_bond_atom_site_label_2
_geom_bond_distance
_geom_bond_site_symmetry_2
_ccdc_geom_bond_type
Co0 N4 2.148 1_554 S
Co0 N10 2.128 . S
Co0 N20 2.194 . S
Co0 O25 2.351 1_554 S
Co0 O26 2.155 1_554 S
Co0 O27 2.096 1_554 S
C1 N4 1.301 . S
C1 N5 1.328 . S
C1 H6 0.930 . S
C2 C3 1.333 . S
C2 N4 1.317 . S
C2 H7 0.930 . S
C3 C2 1.333 . S
C3 N5 1.350 . S
C3 H29 0.931 . S
N4 Co0 2.148 1_556 S
N4 C1 1.301 . S
N4 C2 1.317 . S
N5 C1 1.328 . S
N5 C3 1.350 . S
H6 C1 0.930 . S
H7 C2 0.930 . S
C8 O9 1.224 . S
C8 O27 1.247 1_554 S
O9 C8 1.224 . S
N10 Co0 2.128 . S
N10 C11 1.355 . S
N10 C13 1.311 . S
C11 N10 1.355 . S
C11 C12 1.363 . S
C11 H23 0.929 . S
C12 C11 1.363 . S
C12 N14 1.375 . S
C12 H30 0.931 . S
C13 N10 1.311 . S
C13 N14 1.347 . S
C13 H24 0.929 . S
N14 C12 1.375 . S
N14 C13 1.347 . S
C15 C18 1.365 . S
C15 N20 1.328 . S
C15 H21 0.929 . S
C16 C17 1.362 . S
C16 C19 1.378 . S
C16 H31 0.929 . S
C17 C16 1.362 . S
C17 C18 1.366 . S
C18 C15 1.365 . S
C18 C17 1.366 . S
C18 H32 0.930 . S
C19 C16 1.378 . S
C19 N20 1.315 . S
C19 H22 0.930 . S
N20 Co0 2.194 . S
N20 C15 1.328 . S
N20 C19 1.315 . S
H21 C15 0.929 . S
H22 C19 0.930 . S
H23 C11 0.929 . S
H24 C13 0.929 . S
O25 Co0 2.351 1_556 S
O25 C28 1.244 . S
O26 Co0 2.155 1_556 S
O26 C28 1.240 . S
O27 Co0 2.096 1_556 S
O27 C8 1.247 1_556 S
C28 O25 1.244 . S
C28 O26 1.240 . S
H29 C3 0.931 . S
H30 C12 0.931 . S
H31 C16 0.929 . S
H32 C18 0.930 . S
Co33 N37 2.148 1_554 S
Co33 N43 2.128 . S
Co33 N53 2.194 . S
Co33 O58 2.351 1_554 S
Co33 O59 2.155 1_554 S
Co33 O60 2.096 1_554 S
C34 N37 1.301 . S
C34 N38 1.328 . S
C34 H39 0.930 . S
C35 C36 1.333 . S
C35 N37 1.317 . S
C35 H40 0.930 . S
C36 C35 1.333 . S
C36 N38 1.350 . S
C36 H62 0.931 . S
N37 Co33 2.148 1_556 S
N37 C34 1.301 . S
N37 C35 1.317 . S
N38 C34 1.328 . S
N38 C36 1.350 . S
H39 C34 0.930 . S
H40 C35 0.930 . S
C41 O42 1.224 1_565 S
C41 O60 1.247 1_564 S
O42 C41 1.224 1_545 S
N43 Co33 2.128 . S
N43 C44 1.355 . S
N43 C46 1.311 . S
C44 N43 1.355 . S
C44 C45 1.363 . S
C44 H56 0.929 . S
C45 C44 1.363 . S
C45 N47 1.375 . S
C45 H63 0.931 . S
C46 N43 1.311 . S
C46 N47 1.347 . S
C46 H57 0.929 1_545 S
N47 C45 1.375 . S
N47 C46 1.347 . S
C48 C51 1.365 . S
C48 N53 1.328 . S
C48 H54 0.929 . S
C49 C50 1.362 . S
C49 C52 1.378 . S
C49 H64 0.929 . S
C50 C49 1.362 . S
C50 C51 1.366 . S
C51 C48 1.365 . S
C51 C50 1.366 . S
C51 H65 0.930 . S
C52 C49 1.378 . S
C52 N53 1.315 . S
C52 H55 0.930 . S
N53 Co33 2.194 . S
N53 C48 1.328 . S
N53 C52 1.315 . S
H54 C48 0.929 . S
H55 C52 0.930 . S
H56 C44 0.929 . S
H57 C46 0.929 1_565 S
O58 Co33 2.351 1_556 S
O58 C61 1.244 . S
O59 Co33 2.155 1_556 S
O59 C61 1.240 . S
O60 Co33 2.096 1_556 S
O60 C41 1.247 1_546 S
C61 O58 1.244 . S
C61 O59 1.240 . S
H62 C36 0.931 . S
H63 C45 0.931 . S
H64 C49 0.929 . S
H65 C51 0.930 . S
Co66 N70 2.148 1_554 S
Co66 N76 2.128 . S
Co66 N86 2.194 . S
Co66 O91 2.351 1_554 S
Co66 O92 2.155 1_554 S
Co66 O93 2.096 1_554 S
C67 N70 1.301 . S
C67 N71 1.328 . S
C67 H72 0.930 . S
C68 C69 1.333 . S
C68 N70 1.317 . S
C68 H73 0.930 . S
C69 C68 1.333 . S
C69 N71 1.350 . S
C69 H95 0.931 . S
N70 Co66 2.148 1_556 S
N70 C67 1.301 . S
N70 C68 1.317 . S
N71 C67 1.328 . S
N71 C69 1.350 . S
H72 C67 0.930 . S
H73 C68 0.930 . S
C74 O75 1.224 1_455 S
C74 O93 1.247 1_454 S
O75 C74 1.224 1_655 S
N76 Co66 2.128 . S
N76 C77 1.355 . S
N76 C79 1.311 . S
C77 N76 1.355 . S
C77 C78 1.363 . S
C77 H89 0.929 . S
C78 C77 1.363 . S
C78 N80 1.375 . S
C78 H96 0.931 . S
C79 N76 1.311 . S
C79 N80 1.347 . S
C79 H90 0.929 1_655 S
N80 C78 1.375 . S
N80 C79 1.347 . S
C81 C84 1.365 . S
C81 N86 1.328 . S
C81 H87 0.929 . S
C82 C83 1.362 . S
C82 C85 1.378 . S
C82 H97 0.929 . S
C83 C82 1.362 . S
C83 C84 1.366 . S
C84 C81 1.365 . S
C84 C83 1.366 . S
C84 H98 0.930 . S
C85 C82 1.378 . S
C85 N86 1.315 . S
C85 H88 0.930 . S
N86 Co66 2.194 . S
N86 C81 1.328 . S
N86 C85 1.315 . S
H87 C81 0.929 . S
H88 C85 0.930 . S
H89 C77 0.929 . S
H90 C79 0.929 1_455 S
O91 Co66 2.351 1_556 S
O91 C94 1.244 . S
O92 Co66 2.155 1_556 S
O92 C94 1.240 . S
O93 Co66 2.096 1_556 S
O93 C74 1.247 1_656 S
C94 O91 1.244 . S
C94 O92 1.240 . S
H95 C69 0.931 . S
H96 C78 0.931 . S
H97 C82 0.929 . S
H98 C84 0.930 . S
Co99 N103 2.148 . S
Co99 N109 2.128 . S
Co99 N119 2.194 . S
Co99 O124 2.351 . S
Co99 O125 2.155 . S
Co99 O126 2.096 . S
C100 N103 1.301 . S
C100 N104 1.328 . S
C100 H105 0.930 . S
C101 C102 1.333 . S
C101 N103 1.317 . S
C101 H106 0.930 . S
C102 C101 1.333 . S
C102 N104 1.350 . S
C102 H128 0.931 . S
N103 Co99 2.148 . S
N103 C100 1.301 . S
N103 C101 1.317 . S
N104 C100 1.328 . S
N104 C102 1.350 . S
H105 C100 0.930 . S
H106 C101 0.930 . S
C107 O108 1.224 . S
C107 O126 1.247 . S
O108 C107 1.224 . S
N109 Co99 2.128 . S
N109 C110 1.355 . S
N109 C112 1.311 . S
C110 N109 1.355 . S
C110 C111 1.363 . S
C110 H122 0.929 . S
C111 C110 1.363 . S
C111 N113 1.375 . S
C111 H129 0.931 . S
C112 N109 1.311 . S
C112 N113 1.347 . S
C112 H123 0.929 . S
N113 C111 1.375 . S
N113 C112 1.347 . S
C114 C117 1.365 . S
C114 N119 1.328 . S
C114 H120 0.929 . S
C115 C116 1.362 . S
C115 C118 1.378 . S
C115 H130 0.929 . S
C116 C115 1.362 . S
C116 C117 1.366 . S
C117 C114 1.365 . S
C117 C116 1.366 . S
C117 H131 0.930 . S
C118 C115 1.378 . S
C118 N119 1.315 . S
C118 H121 0.930 . S
N119 Co99 2.194 . S
N119 C114 1.328 . S
N119 C118 1.315 . S
H120 C114 0.929 . S
H121 C118 0.930 . S
H122 C110 0.929 . S
H123 C112 0.929 . S
O124 Co99 2.351 . S
O124 C127 1.244 . S
O125 Co99 2.155 . S
O125 C127 1.240 . S
O126 Co99 2.096 . S
O126 C107 1.247 . S
C127 O124 1.244 . S
C127 O125 1.240 . S
H128 C102 0.931 . S
H129 C111 0.931 . S
H130 C115 0.929 . S
H131 C117 0.930 . S
Co132 N136 2.148 . S
Co132 N142 2.128 . S
Co132 N152 2.194 . S
Co132 O157 2.351 . S
Co132 O158 2.155 . S
Co132 O159 2.096 . S
C133 N136 1.301 . S
C133 N137 1.328 . S
C133 H138 0.930 . S
C134 C135 1.333 . S
C134 N136 1.317 . S
C134 H139 0.930 . S
C135 C134 1.333 . S
C135 N137 1.350 . S
C135 H161 0.931 . S
N136 Co132 2.148 . S
N136 C133 1.301 . S
N136 C134 1.317 . S
N137 C133 1.328 . S
N137 C135 1.350 . S
H138 C133 0.930 . S
H139 C134 0.930 . S
C140 O141 1.224 . S
C140 O159 1.247 . S
O141 C140 1.224 . S
N142 Co132 2.128 . S
N142 C143 1.355 . S
N142 C145 1.311 . S
C143 N142 1.355 . S
C143 C144 1.363 . S
C143 H155 0.929 . S
C144 C143 1.363 . S
C144 N146 1.375 . S
C144 H162 0.931 . S
C145 N142 1.311 . S
C145 N146 1.347 . S
C145 H156 0.929 . S
N146 C144 1.375 . S
N146 C145 1.347 . S
C147 C150 1.365 . S
C147 N152 1.328 . S
C147 H153 0.929 . S
C148 C149 1.362 . S
C148 C151 1.378 . S
C148 H163 0.929 . S
C149 C148 1.362 . S
C149 C150 1.366 . S
C150 C147 1.365 . S
C150 C149 1.366 . S
C150 H164 0.930 . S
C151 C148 1.378 . S
C151 N152 1.315 . S
C151 H154 0.930 . S
N152 Co132 2.194 . S
N152 C147 1.328 . S
N152 C151 1.315 . S
H153 C147 0.929 . S
H154 C151 0.930 . S
H155 C143 0.929 . S
H156 C145 0.929 . S
O157 Co132 2.351 . S
O157 C160 1.244 1_565 S
O158 Co132 2.155 . S
O158 C160 1.240 1_565 S
O159 Co132 2.096 . S
O159 C140 1.247 . S
C160 O157 1.244 1_545 S
C160 O158 1.240 1_545 S
H161 C135 0.931 . S
H162 C144 0.931 . S
H163 C148 0.929 . S
H164 C150 0.930 . S
Co165 N169 2.148 . S
Co165 N175 2.128 . S
Co165 N185 2.194 . S
Co165 O190 2.351 . S
Co165 O191 2.155 . S
Co165 O192 2.096 . S
C166 N169 1.301 . S
C166 N170 1.328 . S
C166 H171 0.930 . S
C167 C168 1.333 . S
C167 N169 1.317 . S
C167 H172 0.930 . S
C168 C167 1.333 . S
C168 N170 1.350 . S
C168 H194 0.931 . S
N169 Co165 2.148 . S
N169 C166 1.301 . S
N169 C167 1.317 . S
N170 C166 1.328 . S
N170 C168 1.350 . S
H171 C166 0.930 . S
H172 C167 0.930 . S
C173 O174 1.224 . S
C173 O192 1.247 . S
O174 C173 1.224 . S
N175 Co165 2.128 . S
N175 C176 1.355 . S
N175 C178 1.311 . S
C176 N175 1.355 . S
C176 C177 1.363 . S
C176 H188 0.929 . S
C177 C176 1.363 . S
C177 N179 1.375 . S
C177 H195 0.931 . S
C178 N175 1.311 . S
C178 N179 1.347 . S
C178 H189 0.929 . S
N179 C177 1.375 . S
N179 C178 1.347 . S
C180 C183 1.365 . S
C180 N185 1.328 . S
C180 H186 0.929 . S
C181 C182 1.362 . S
C181 C184 1.378 . S
C181 H196 0.929 . S
C182 C181 1.362 . S
C182 C183 1.366 . S
C183 C180 1.365 . S
C183 C182 1.366 . S
C183 H197 0.930 . S
C184 C181 1.378 . S
C184 N185 1.315 . S
C184 H187 0.930 . S
N185 Co165 2.194 . S
N185 C180 1.328 . S
N185 C184 1.315 . S
H186 C180 0.929 . S
H187 C184 0.930 . S
H188 C176 0.929 . S
H189 C178 0.929 . S
O190 Co165 2.351 . S
O190 C193 1.244 1_455 S
O191 Co165 2.155 . S
O191 C193 1.240 1_455 S
O192 Co165 2.096 . S
O192 C173 1.247 . S
C193 O190 1.244 1_655 S
C193 O191 1.240 1_655 S
H194 C168 0.931 . S
H195 C177 0.931 . S
H196 C181 0.929 . S
H197 C183 0.930 . S
Co198 N202 2.148 1_556 S
Co198 N208 2.128 . S
Co198 N218 2.194 . S
Co198 O223 2.351 1_556 S
Co198 O224 2.155 1_556 S
Co198 O225 2.096 1_556 S
C199 N202 1.301 . S
C199 N203 1.328 . S
C199 H204 0.930 . S
C200 C201 1.333 . S
C200 N202 1.317 . S
C200 H205 0.930 . S
C201 C200 1.333 . S
C201 N203 1.350 . S
C201 H227 0.931 . S
N202 Co198 2.148 1_554 S
N202 C199 1.301 . S
N202 C200 1.317 . S
N203 C199 1.328 . S
N203 C201 1.350 . S
H204 C199 0.930 . S
H205 C200 0.930 . S
C206 O207 1.224 . S
C206 O225 1.247 1_556 S
O207 C206 1.224 . S
N208 Co198 2.128 . S
N208 C209 1.355 . S
N208 C211 1.311 . S
C209 N208 1.355 . S
C209 C210 1.363 . S
C209 H221 0.929 . S
C210 C209 1.363 . S
C210 N212 1.375 . S
C210 H228 0.931 . S
C211 N208 1.311 . S
C211 N212 1.347 . S
C211 H222 0.929 . S
N212 C210 1.375 . S
N212 C211 1.347 . S
C213 C216 1.365 . S
C213 N218 1.328 . S
C213 H219 0.929 . S
C214 C215 1.362 . S
C214 C217 1.378 . S
C214 H229 0.929 . S
C215 C214 1.362 . S
C215 C216 1.366 . S
C216 C213 1.365 . S
C216 C215 1.366 . S
C216 H230 0.930 . S
C217 C214 1.378 . S
C217 N218 1.315 . S
C217 H220 0.930 . S
N218 Co198 2.194 . S
N218 C213 1.328 . S
N218 C217 1.315 . S
H219 C213 0.929 . S
H220 C217 0.930 . S
H221 C209 0.929 . S
H222 C211 0.929 . S
O223 Co198 2.351 1_554 S
O223 C226 1.244 . S
O224 Co198 2.155 1_554 S
O224 C226 1.240 . S
O225 Co198 2.096 1_554 S
O225 C206 1.247 1_554 S
C226 O223 1.244 . S
C226 O224 1.240 . S
H227 C201 0.931 . S
H228 C210 0.931 . S
H229 C214 0.929 . S
H230 C216 0.930 . S
Co231 N235 2.148 1_556 S
Co231 N241 2.128 . S
Co231 N251 2.194 . S
Co231 O256 2.351 1_556 S
Co231 O257 2.155 1_556 S
Co231 O258 2.096 1_556 S
C232 N235 1.301 . S
C232 N236 1.328 . S
C232 H237 0.930 . S
C233 C234 1.333 . S
C233 N235 1.317 . S
C233 H238 0.930 . S
C234 C233 1.333 . S
C234 N236 1.350 . S
C234 H260 0.931 . S
N235 Co231 2.148 1_554 S
N235 C232 1.301 . S
N235 C233 1.317 . S
N236 C232 1.328 . S
N236 C234 1.350 . S
H237 C232 0.930 . S
H238 C233 0.930 . S
C239 O240 1.224 1_545 S
C239 O258 1.247 1_546 S
O240 C239 1.224 1_565 S
N241 Co231 2.128 . S
N241 C242 1.355 . S
N241 C244 1.311 . S
C242 N241 1.355 . S
C242 C243 1.363 . S
C242 H254 0.929 . S
C243 C242 1.363 . S
C243 N245 1.375 . S
C243 H261 0.931 . S
C244 N241 1.311 . S
C244 N245 1.347 . S
C244 H255 0.929 1_565 S
N245 C243 1.375 . S
N245 C244 1.347 . S
C246 C249 1.365 . S
C246 N251 1.328 . S
C246 H252 0.929 . S
C247 C248 1.362 . S
C247 C250 1.378 . S
C247 H262 0.929 . S
C248 C247 1.362 . S
C248 C249 1.366 . S
C249 C246 1.365 . S
C249 C248 1.366 . S
C249 H263 0.930 . S
C250 C247 1.378 . S
C250 N251 1.315 . S
C250 H253 0.930 . S
N251 Co231 2.194 . S
N251 C246 1.328 . S
N251 C250 1.315 . S
H252 C246 0.929 . S
H253 C250 0.930 . S
H254 C242 0.929 . S
H255 C244 0.929 1_545 S
O256 Co231 2.351 1_554 S
O256 C259 1.244 . S
O257 Co231 2.155 1_554 S
O257 C259 1.240 . S
O258 Co231 2.096 1_554 S
O258 C239 1.247 1_564 S
C259 O256 1.244 . S
C259 O257 1.240 . S
H260 C234 0.931 . S
H261 C243 0.931 . S
H262 C247 0.929 . S
H263 C249 0.930 . S
Co264 N268 2.148 1_556 S
Co264 N274 2.128 . S
Co264 N284 2.194 . S
Co264 O289 2.351 1_556 S
Co264 O290 2.155 1_556 S
Co264 O291 2.096 1_556 S
C265 N268 1.301 . S
C265 N269 1.328 . S
C265 H270 0.930 . S
C266 C267 1.333 . S
C266 N268 1.317 . S
C266 H271 0.930 . S
C267 C266 1.333 . S
C267 N269 1.350 . S
C267 H293 0.931 . S
N268 Co264 2.148 1_554 S
N268 C265 1.301 . S
N268 C266 1.317 . S
N269 C265 1.328 . S
N269 C267 1.350 . S
H270 C265 0.930 . S
H271 C266 0.930 . S
C272 O273 1.224 1_655 S
C272 O291 1.247 1_656 S
O273 C272 1.224 1_455 S
N274 Co264 2.128 . S
N274 C275 1.355 . S
N274 C277 1.311 . S
C275 N274 1.355 . S
C275 C276 1.363 . S
C275 H287 0.929 . S
C276 C275 1.363 . S
C276 N278 1.375 . S
C276 H294 0.931 . S
C277 N274 1.311 . S
C277 N278 1.347 . S
C277 H288 0.929 1_455 S
N278 C276 1.375 . S
N278 C277 1.347 . S
C279 C282 1.365 . S
C279 N284 1.328 . S
C279 H285 0.929 . S
C280 C281 1.362 . S
C280 C283 1.378 . S
C280 H295 0.929 . S
C281 C280 1.362 . S
C281 C282 1.366 . S
C282 C279 1.365 . S
C282 C281 1.366 . S
C282 H296 0.930 . S
C283 C280 1.378 . S
C283 N284 1.315 . S
C283 H286 0.930 . S
N284 Co264 2.194 . S
N284 C279 1.328 . S
N284 C283 1.315 . S
H285 C279 0.929 . S
H286 C283 0.930 . S
H287 C275 0.929 . S
H288 C277 0.929 1_655 S
O289 Co264 2.351 1_554 S
O289 C292 1.244 . S
O290 Co264 2.155 1_554 S
O290 C292 1.240 . S
O291 Co264 2.096 1_554 S
O291 C272 1.247 1_454 S
C292 O289 1.244 . S
C292 O290 1.240 . S
H293 C267 0.931 . S
H294 C276 0.931 . S
H295 C280 0.929 . S
H296 C282 0.930 . S
Co297 N301 2.148 . S
Co297 N307 2.128 . S
Co297 N317 2.194 . S
Co297 O322 2.351 . S
Co297 O323 2.155 . S
Co297 O324 2.096 . S
C298 N301 1.301 . S
C298 N302 1.328 . S
C298 H303 0.930 . S
C299 C300 1.333 . S
C299 N301 1.317 . S
C299 H304 0.930 . S
C300 C299 1.333 . S
C300 N302 1.350 . S
C300 H326 0.931 . S
N301 Co297 2.148 . S
N301 C298 1.301 . S
N301 C299 1.317 . S
N302 C298 1.328 . S
N302 C300 1.350 . S
H303 C298 0.930 . S
H304 C299 0.930 . S
C305 O306 1.224 . S
C305 O324 1.247 . S
O306 C305 1.224 . S
N307 Co297 2.128 . S
N307 C308 1.355 . S
N307 C310 1.311 . S
C308 N307 1.355 . S
C308 C309 1.363 . S
C308 H320 0.929 . S
C309 C308 1.363 . S
C309 N311 1.375 . S
C309 H327 0.931 . S
C310 N307 1.311 . S
C310 N311 1.347 . S
C310 H321 0.929 . S
N311 C309 1.375 . S
N311 C310 1.347 . S
C312 C315 1.365 . S
C312 N317 1.328 . S
C312 H318 0.929 . S
C313 C314 1.362 . S
C313 C316 1.378 . S
C313 H328 0.929 . S
C314 C313 1.362 . S
C314 C315 1.366 . S
C315 C312 1.365 . S
C315 C314 1.366 . S
C315 H329 0.930 . S
C316 C313 1.378 . S
C316 N317 1.315 . S
C316 H319 0.930 . S
N317 Co297 2.194 . S
N317 C312 1.328 . S
N317 C316 1.315 . S
H318 C312 0.929 . S
H319 C316 0.930 . S
H320 C308 0.929 . S
H321 C310 0.929 . S
O322 Co297 2.351 . S
O322 C325 1.244 . S
O323 Co297 2.155 . S
O323 C325 1.240 . S
O324 Co297 2.096 . S
O324 C305 1.247 . S
C325 O322 1.244 . S
C325 O323 1.240 . S
H326 C300 0.931 . S
H327 C309 0.931 . S
H328 C313 0.929 . S
H329 C315 0.930 . S
Co330 N334 2.148 . S
Co330 N340 2.128 . S
Co330 N350 2.194 . S
Co330 O355 2.351 . S
Co330 O356 2.155 . S
Co330 O357 2.096 . S
C331 N334 1.301 . S
C331 N335 1.328 . S
C331 H336 0.930 . S
C332 C333 1.333 . S
C332 N334 1.317 . S
C332 H337 0.930 . S
C333 C332 1.333 . S
C333 N335 1.350 . S
C333 H359 0.931 . S
N334 Co330 2.148 . S
N334 C331 1.301 . S
N334 C332 1.317 . S
N335 C331 1.328 . S
N335 C333 1.350 . S
H336 C331 0.930 . S
H337 C332 0.930 . S
C338 O339 1.224 1_565 S
C338 O357 1.247 1_565 S
O339 C338 1.224 1_545 S
N340 Co330 2.128 . S
N340 C341 1.355 . S
N340 C343 1.311 . S
C341 N340 1.355 . S
C341 C342 1.363 . S
C341 H353 0.929 . S
C342 C341 1.363 . S
C342 N344 1.375 . S
C342 H360 0.931 . S
C343 N340 1.311 . S
C343 N344 1.347 . S
C343 H354 0.929 1_545 S
N344 C342 1.375 . S
N344 C343 1.347 . S
C345 C348 1.365 . S
C345 N350 1.328 . S
C345 H351 0.929 . S
C346 C347 1.362 . S
C346 C349 1.378 . S
C346 H361 0.929 . S
C347 C346 1.362 . S
C347 C348 1.366 . S
C348 C345 1.365 . S
C348 C347 1.366 . S
C348 H362 0.930 . S
C349 C346 1.378 . S
C349 N350 1.315 . S
C349 H352 0.930 . S
N350 Co330 2.194 . S
N350 C345 1.328 . S
N350 C349 1.315 . S
H351 C345 0.929 . S
H352 C349 0.930 . S
H353 C341 0.929 . S
H354 C343 0.929 1_565 S
O355 Co330 2.351 . S
O355 C358 1.244 . S
O356 Co330 2.155 . S
O356 C358 1.240 . S
O357 Co330 2.096 . S
O357 C338 1.247 1_545 S
C358 O355 1.244 . S
C358 O356 1.240 . S
H359 C333 0.931 . S
H360 C342 0.931 . S
H361 C346 0.929 . S
H362 C348 0.930 . S
Co363 N367 2.148 . S
Co363 N373 2.128 . S
Co363 N383 2.194 . S
Co363 O388 2.351 . S
Co363 O389 2.155 . S
Co363 O390 2.096 . S
C364 N367 1.301 . S
C364 N368 1.328 . S
C364 H369 0.930 . S
C365 C366 1.333 . S
C365 N367 1.317 . S
C365 H370 0.930 . S
C366 C365 1.333 . S
C366 N368 1.350 . S
C366 H392 0.931 . S
N367 Co363 2.148 . S
N367 C364 1.301 . S
N367 C365 1.317 . S
N368 C364 1.328 . S
N368 C366 1.350 . S
H369 C364 0.930 . S
H370 C365 0.930 . S
C371 O372 1.224 1_455 S
C371 O390 1.247 1_455 S
O372 C371 1.224 1_655 S
N373 Co363 2.128 . S
N373 C374 1.355 . S
N373 C376 1.311 . S
C374 N373 1.355 . S
C374 C375 1.363 . S
C374 H386 0.929 . S
C375 C374 1.363 . S
C375 N377 1.375 . S
C375 H393 0.931 . S
C376 N373 1.311 . S
C376 N377 1.347 . S
C376 H387 0.929 1_655 S
N377 C375 1.375 . S
N377 C376 1.347 . S
C378 C381 1.365 . S
C378 N383 1.328 . S
C378 H384 0.929 . S
C379 C380 1.362 . S
C379 C382 1.378 . S
C379 H394 0.929 . S
C380 C379 1.362 . S
C380 C381 1.366 . S
C381 C378 1.365 . S
C381 C380 1.366 . S
C381 H395 0.930 . S
C382 C379 1.378 . S
C382 N383 1.315 . S
C382 H385 0.930 . S
N383 Co363 2.194 . S
N383 C378 1.328 . S
N383 C382 1.315 . S
H384 C378 0.929 . S
H385 C382 0.930 . S
H386 C374 0.929 . S
H387 C376 0.929 1_455 S
O388 Co363 2.351 . S
O388 C391 1.244 . S
O389 Co363 2.155 . S
O389 C391 1.240 . S
O390 Co363 2.096 . S
O390 C371 1.247 1_655 S
C391 O388 1.244 . S
C391 O389 1.240 . S
H392 C366 0.931 . S
H393 C375 0.931 . S
H394 C379 0.929 . S
H395 C381 0.930 . S
Co396 N400 2.148 . S
Co396 N406 2.128 . S
Co396 N416 2.194 . S
Co396 O421 2.351 . S
Co396 O422 2.155 . S
Co396 O423 2.096 . S
C397 N400 1.301 . S
C397 N401 1.328 . S
C397 H402 0.930 . S
C398 C399 1.333 . S
C398 N400 1.317 . S
C398 H403 0.930 . S
C399 C398 1.333 . S
C399 N401 1.350 . S
C399 H425 0.931 . S
N400 Co396 2.148 . S
N400 C397 1.301 . S
N400 C398 1.317 . S
N401 C397 1.328 . S
N401 C399 1.350 . S
H402 C397 0.930 . S
H403 C398 0.930 . S
C404 O405 1.224 . S
C404 O423 1.247 . S
O405 C404 1.224 . S
N406 Co396 2.128 . S
N406 C407 1.355 1_655 S
N406 C409 1.311 . S
C407 N406 1.355 1_455 S
C407 C408 1.363 . S
C407 H419 0.929 . S
C408 C407 1.363 . S
C408 N410 1.375 1_455 S
C408 H426 0.931 . S
C409 N406 1.311 . S
C409 N410 1.347 . S
C409 H420 0.929 . S
N410 C408 1.375 1_655 S
N410 C409 1.347 . S
C411 C414 1.365 . S
C411 N416 1.328 . S
C411 H417 0.929 . S
C412 C413 1.362 . S
C412 C415 1.378 . S
C412 H427 0.929 . S
C413 C412 1.362 . S
C413 C414 1.366 . S
C414 C411 1.365 . S
C414 C413 1.366 . S
C414 H428 0.930 1_655 S
C415 C412 1.378 . S
C415 N416 1.315 . S
C415 H418 0.930 . S
N416 Co396 2.194 . S
N416 C411 1.328 . S
N416 C415 1.315 . S
H417 C411 0.929 . S
H418 C415 0.930 . S
H419 C407 0.929 . S
H420 C409 0.929 . S
O421 Co396 2.351 . S
O421 C424 1.244 . S
O422 Co396 2.155 . S
O422 C424 1.240 . S
O423 Co396 2.096 . S
O423 C404 1.247 . S
C424 O421 1.244 . S
C424 O422 1.240 . S
H425 C399 0.931 . S
H426 C408 0.931 . S
H427 C412 0.929 . S
H428 C414 0.930 1_455 S
Co429 N433 2.148 . S
Co429 N439 2.128 . S
Co429 N449 2.194 . S
Co429 O454 2.351 . S
Co429 O455 2.155 . S
Co429 O456 2.096 . S
C430 N433 1.301 . S
C430 N434 1.328 . S
C430 H435 0.930 . S
C431 C432 1.333 . S
C431 N433 1.317 . S
C431 H436 0.930 . S
C432 C431 1.333 . S
C432 N434 1.350 . S
C432 H458 0.931 . S
N433 Co429 2.148 . S
N433 C430 1.301 . S
N433 C431 1.317 . S
N434 C430 1.328 . S
N434 C432 1.350 . S
H435 C430 0.930 . S
H436 C431 0.930 . S
C437 O438 1.224 . S
C437 O456 1.247 . S
O438 C437 1.224 . S
N439 Co429 2.128 . S
N439 C440 1.355 . S
N439 C442 1.311 . S
C440 N439 1.355 . S
C440 C441 1.363 . S
C440 H452 0.929 . S
C441 C440 1.363 . S
C441 N443 1.375 . S
C441 H459 0.931 . S
C442 N439 1.311 . S
C442 N443 1.347 . S
C442 H453 0.929 . S
N443 C441 1.375 . S
N443 C442 1.347 . S
C444 C447 1.365 . S
C444 N449 1.328 . S
C444 H450 0.929 . S
C445 C446 1.362 . S
C445 C448 1.378 . S
C445 H460 0.929 . S
C446 C445 1.362 . S
C446 C447 1.366 . S
C447 C444 1.365 . S
C447 C446 1.366 . S
C447 H461 0.930 . S
C448 C445 1.378 . S
C448 N449 1.315 . S
C448 H451 0.930 . S
N449 Co429 2.194 . S
N449 C444 1.328 . S
N449 C448 1.315 . S
H450 C444 0.929 . S
H451 C448 0.930 . S
H452 C440 0.929 . S
H453 C442 0.929 . S
O454 Co429 2.351 . S
O454 C457 1.244 . S
O455 Co429 2.155 . S
O455 C457 1.240 . S
O456 Co429 2.096 . S
O456 C437 1.247 . S
C457 O454 1.244 . S
C457 O455 1.240 . S
H458 C432 0.931 . S
H459 C441 0.931 . S
H460 C445 0.929 . S
H461 C447 0.930 . S
Co462 N466 2.148 . S
Co462 N472 2.128 . S
Co462 N482 2.194 . S
Co462 O487 2.351 . S
Co462 O488 2.155 . S
Co462 O489 2.096 . S
C463 N466 1.301 . S
C463 N467 1.328 . S
C463 H468 0.930 . S
C464 C465 1.333 . S
C464 N466 1.317 . S
C464 H469 0.930 . S
C465 C464 1.333 . S
C465 N467 1.350 . S
C465 H491 0.931 . S
N466 Co462 2.148 . S
N466 C463 1.301 . S
N466 C464 1.317 . S
N467 C463 1.328 . S
N467 C465 1.350 . S
H468 C463 0.930 . S
H469 C464 0.930 . S
C470 O471 1.224 . S
C470 O489 1.247 . S
O471 C470 1.224 . S
N472 Co462 2.128 . S
N472 C473 1.355 1_545 S
N472 C475 1.311 . S
C473 N472 1.355 1_565 S
C473 C474 1.363 . S
C473 H485 0.929 . S
C474 C473 1.363 . S
C474 N476 1.375 1_565 S
C474 H492 0.931 . S
C475 N472 1.311 . S
C475 N476 1.347 . S
C475 H486 0.929 . S
N476 C474 1.375 1_545 S
N476 C475 1.347 . S
C477 C480 1.365 . S
C477 N482 1.328 . S
C477 H483 0.929 . S
C478 C479 1.362 . S
C478 C481 1.378 . S
C478 H493 0.929 . S
C479 C478 1.362 . S
C479 C480 1.366 . S
C480 C477 1.365 . S
C480 C479 1.366 . S
C480 H494 0.930 1_545 S
C481 C478 1.378 . S
C481 N482 1.315 . S
C481 H484 0.930 . S
N482 Co462 2.194 . S
N482 C477 1.328 . S
N482 C481 1.315 . S
H483 C477 0.929 . S
H484 C481 0.930 . S
H485 C473 0.929 . S
H486 C475 0.929 . S
O487 Co462 2.351 . S
O487 C490 1.244 . S
O488 Co462 2.155 . S
O488 C490 1.240 . S
O489 Co462 2.096 . S
O489 C470 1.247 . S
C490 O487 1.244 . S
C490 O488 1.240 . S
H491 C465 0.931 . S
H492 C474 0.931 . S
H493 C478 0.929 . S
H494 C480 0.930 1_565 S
Co495 N499 2.148 . S
Co495 N505 2.128 . S
Co495 N515 2.194 . S
Co495 O520 2.351 . S
Co495 O521 2.155 . S
Co495 O522 2.096 . S
C496 N499 1.301 . S
C496 N500 1.328 . S
C496 H501 0.930 . S
C497 C498 1.333 . S
C497 N499 1.317 . S
C497 H502 0.930 . S
C498 C497 1.333 . S
C498 N500 1.350 . S
C498 H524 0.931 1_655 S
N499 Co495 2.148 . S
N499 C496 1.301 . S
N499 C497 1.317 . S
N500 C496 1.328 . S
N500 C498 1.350 . S
H501 C496 0.930 . S
H502 C497 0.930 . S
C503 O504 1.224 . S
C503 O522 1.247 . S
O504 C503 1.224 . S
N505 Co495 2.128 . S
N505 C506 1.355 . S
N505 C508 1.311 . S
C506 N505 1.355 . S
C506 C507 1.363 . S
C506 H518 0.929 . S
C507 C506 1.363 . S
C507 N509 1.375 . S
C507 H525 0.931 . S
C508 N505 1.311 . S
C508 N509 1.347 . S
C508 H519 0.929 . S
N509 C507 1.375 . S
N509 C508 1.347 . S
C510 C513 1.365 . S
C510 N515 1.328 . S
C510 H516 0.929 . S
C511 C512 1.362 . S
C511 C514 1.378 . S
C511 H526 0.929 . S
C512 C511 1.362 . S
C512 C513 1.366 . S
C513 C510 1.365 . S
C513 C512 1.366 . S
C513 H527 0.930 . S
C514 C511 1.378 . S
C514 N515 1.315 . S
C514 H517 0.930 . S
N515 Co495 2.194 . S
N515 C510 1.328 . S
N515 C514 1.315 . S
H516 C510 0.929 . S
H517 C514 0.930 . S
H518 C506 0.929 . S
H519 C508 0.929 . S
O520 Co495 2.351 . S
O520 C523 1.244 . S
O521 Co495 2.155 . S
O521 C523 1.240 . S
O522 Co495 2.096 . S
O522 C503 1.247 . S
C523 O520 1.244 . S
C523 O521 1.240 . S
H524 C498 0.931 1_455 S
H525 C507 0.931 . S
H526 C511 0.929 . S
H527 C513 0.930 . S
Co528 N532 2.148 . S
Co528 N538 2.128 . S
Co528 N548 2.194 . S
Co528 O553 2.351 . S
Co528 O554 2.155 . S
Co528 O555 2.096 . S
C529 N532 1.301 . S
C529 N533 1.328 . S
C529 H534 0.930 . S
C530 C531 1.333 . S
C530 N532 1.317 . S
C530 H535 0.930 . S
C531 C530 1.333 . S
C531 N533 1.350 . S
C531 H557 0.931 . S
N532 Co528 2.148 . S
N532 C529 1.301 . S
N532 C530 1.317 . S
N533 C529 1.328 . S
N533 C531 1.350 . S
H534 C529 0.930 . S
H535 C530 0.930 . S
C536 O537 1.224 . S
C536 O555 1.247 . S
O537 C536 1.224 . S
N538 Co528 2.128 . S
N538 C539 1.355 . S
N538 C541 1.311 . S
C539 N538 1.355 . S
C539 C540 1.363 . S
C539 H551 0.929 . S
C540 C539 1.363 . S
C540 N542 1.375 . S
C540 H558 0.931 . S
C541 N538 1.311 . S
C541 N542 1.347 . S
C541 H552 0.929 . S
N542 C540 1.375 . S
N542 C541 1.347 . S
C543 C546 1.365 . S
C543 N548 1.328 . S
C543 H549 0.929 . S
C544 C545 1.362 . S
C544 C547 1.378 . S
C544 H559 0.929 . S
C545 C544 1.362 . S
C545 C546 1.366 . S
C546 C543 1.365 . S
C546 C545 1.366 . S
C546 H560 0.930 . S
C547 C544 1.378 . S
C547 N548 1.315 . S
C547 H550 0.930 . S
N548 Co528 2.194 . S
N548 C543 1.328 . S
N548 C547 1.315 . S
H549 C543 0.929 . S
H550 C547 0.930 . S
H551 C539 0.929 . S
H552 C541 0.929 . S
O553 Co528 2.351 . S
O553 C556 1.244 . S
O554 Co528 2.155 . S
O554 C556 1.240 . S
O555 Co528 2.096 . S
O555 C536 1.247 . S
C556 O553 1.244 . S
C556 O554 1.240 . S
H557 C531 0.931 . S
H558 C540 0.931 . S
H559 C544 0.929 . S
H560 C546 0.930 . S
Co561 N565 2.148 . S
Co561 N571 2.128 . S
Co561 N581 2.194 . S
Co561 O586 2.351 . S
Co561 O587 2.155 . S
Co561 O588 2.096 . S
C562 N565 1.301 . S
C562 N566 1.328 . S
C562 H567 0.930 . S
C563 C564 1.333 . S
C563 N565 1.317 . S
C563 H568 0.930 . S
C564 C563 1.333 . S
C564 N566 1.350 . S
C564 H590 0.931 1_545 S
N565 Co561 2.148 . S
N565 C562 1.301 . S
N565 C563 1.317 . S
N566 C562 1.328 . S
N566 C564 1.350 . S
H567 C562 0.930 . S
H568 C563 0.930 . S
C569 O570 1.224 . S
C569 O588 1.247 . S
O570 C569 1.224 . S
N571 Co561 2.128 . S
N571 C572 1.355 . S
N571 C574 1.311 . S
C572 N571 1.355 . S
C572 C573 1.363 . S
C572 H584 0.929 . S
C573 C572 1.363 . S
C573 N575 1.375 . S
C573 H591 0.931 . S
C574 N571 1.311 . S
C574 N575 1.347 . S
C574 H585 0.929 . S
N575 C573 1.375 . S
N575 C574 1.347 . S
C576 C579 1.365 . S
C576 N581 1.328 . S
C576 H582 0.929 . S
C577 C578 1.362 . S
C577 C580 1.378 . S
C577 H592 0.929 . S
C578 C577 1.362 . S
C578 C579 1.366 . S
C579 C576 1.365 . S
C579 C578 1.366 . S
C579 H593 0.930 . S
C580 C577 1.378 . S
C580 N581 1.315 . S
C580 H583 0.930 . S
N581 Co561 2.194 . S
N581 C576 1.328 . S
N581 C580 1.315 . S
H582 C576 0.929 . S
H583 C580 0.930 . S
H584 C572 0.929 . S
H585 C574 0.929 . S
O586 Co561 2.351 . S
O586 C589 1.244 . S
O587 Co561 2.155 . S
O587 C589 1.240 . S
O588 Co561 2.096 . S
O588 C569 1.247 . S
C589 O586 1.244 . S
C589 O587 1.240 . S
H590 C564 0.931 1_565 S
H591 C573 0.931 . S
H592 C577 0.929 . S
H593 C579 0.930 . S
Co594 N598 2.148 . S
Co594 N604 2.128 . S
Co594 N614 2.194 . S
Co594 O619 2.351 . S
Co594 O620 2.155 . S
Co594 O621 2.096 . S
C595 N598 1.301 . S
C595 N599 1.328 . S
C595 H600 0.930 . S
C596 C597 1.333 . S
C596 N598 1.317 . S
C596 H601 0.930 . S
C597 C596 1.333 . S
C597 N599 1.350 . S
C597 H623 0.931 . S
N598 Co594 2.148 . S
N598 C595 1.301 . S
N598 C596 1.317 . S
N599 C595 1.328 . S
N599 C597 1.350 . S
H600 C595 0.930 . S
H601 C596 0.930 . S
C602 O603 1.224 . S
C602 O621 1.247 . S
O603 C602 1.224 . S
N604 Co594 2.128 . S
N604 C605 1.355 . S
N604 C607 1.311 . S
C605 N604 1.355 . S
C605 C606 1.363 . S
C605 H617 0.929 . S
C606 C605 1.363 . S
C606 N608 1.375 . S
C606 H624 0.931 . S
C607 N604 1.311 . S
C607 N608 1.347 . S
C607 H618 0.929 . S
N608 C606 1.375 . S
N608 C607 1.347 . S
C609 C612 1.365 . S
C609 N614 1.328 . S
C609 H615 0.929 . S
C610 C611 1.362 . S
C610 C613 1.378 . S
C610 H625 0.929 . S
C611 C610 1.362 . S
C611 C612 1.366 . S
C612 C609 1.365 . S
C612 C611 1.366 . S
C612 H626 0.930 . S
C613 C610 1.378 . S
C613 N614 1.315 . S
C613 H616 0.930 . S
N614 Co594 2.194 . S
N614 C609 1.328 . S
N614 C613 1.315 . S
H615 C609 0.929 . S
H616 C613 0.930 . S
H617 C605 0.929 . S
H618 C607 0.929 . S
O619 Co594 2.351 . S
O619 C622 1.244 . S
O620 Co594 2.155 . S
O620 C622 1.240 . S
O621 Co594 2.096 . S
O621 C602 1.247 . S
C622 O619 1.244 . S
C622 O620 1.240 . S
H623 C597 0.931 . S
H624 C606 0.931 . S
H625 C610 0.929 . S
H626 C612 0.930 . S
Co627 N631 2.148 . S
Co627 N637 2.128 . S
Co627 N647 2.194 . S
Co627 O652 2.351 . S
Co627 O653 2.155 . S
Co627 O654 2.096 . S
C628 N631 1.301 . S
C628 N632 1.328 . S
C628 H633 0.930 . S
C629 C630 1.333 . S
C629 N631 1.317 . S
C629 H634 0.930 . S
C630 C629 1.333 . S
C630 N632 1.350 . S
C630 H656 0.931 . S
N631 Co627 2.148 . S
N631 C628 1.301 . S
N631 C629 1.317 . S
N632 C628 1.328 . S
N632 C630 1.350 . S
H633 C628 0.930 . S
H634 C629 0.930 . S
C635 O636 1.224 . S
C635 O654 1.247 . S
O636 C635 1.224 . S
N637 Co627 2.128 . S
N637 C638 1.355 . S
N637 C640 1.311 . S
C638 N637 1.355 . S
C638 C639 1.363 . S
C638 H650 0.929 . S
C639 C638 1.363 . S
C639 N641 1.375 . S
C639 H657 0.931 . S
C640 N637 1.311 . S
C640 N641 1.347 . S
C640 H651 0.929 . S
N641 C639 1.375 . S
N641 C640 1.347 . S
C642 C645 1.365 . S
C642 N647 1.328 . S
C642 H648 0.929 . S
C643 C644 1.362 . S
C643 C646 1.378 . S
C643 H658 0.929 . S
C644 C643 1.362 . S
C644 C645 1.366 . S
C645 C642 1.365 . S
C645 C644 1.366 . S
C645 H659 0.930 . S
C646 C643 1.378 . S
C646 N647 1.315 . S
C646 H649 0.930 . S
N647 Co627 2.194 . S
N647 C642 1.328 . S
N647 C646 1.315 . S
H648 C642 0.929 . S
H649 C646 0.930 . S
H650 C638 0.929 . S
H651 C640 0.929 . S
O652 Co627 2.351 . S
O652 C655 1.244 . S
O653 Co627 2.155 . S
O653 C655 1.240 . S
O654 Co627 2.096 . S
O654 C635 1.247 . S
C655 O652 1.244 . S
C655 O653 1.240 . S
H656 C630 0.931 . S
H657 C639 0.931 . S
H658 C643 0.929 . S
H659 C645 0.930 . S
Co660 N664 2.148 . S
Co660 N670 2.128 . S
Co660 N680 2.194 . S
Co660 O685 2.351 . S
Co660 O686 2.155 . S
Co660 O687 2.096 . S
C661 N664 1.301 . S
C661 N665 1.328 . S
C661 H666 0.930 . S
C662 C663 1.333 . S
C662 N664 1.317 . S
C662 H667 0.930 . S
C663 C662 1.333 . S
C663 N665 1.350 . S
C663 H689 0.931 . S
N664 Co660 2.148 . S
N664 C661 1.301 . S
N664 C662 1.317 . S
N665 C661 1.328 . S
N665 C663 1.350 . S
H666 C661 0.930 . S
H667 C662 0.930 . S
C668 O669 1.224 . S
C668 O687 1.247 . S
O669 C668 1.224 . S
N670 Co660 2.128 . S
N670 C671 1.355 . S
N670 C673 1.311 . S
C671 N670 1.355 . S
C671 C672 1.363 . S
C671 H683 0.929 . S
C672 C671 1.363 . S
C672 N674 1.375 . S
C672 H690 0.931 . S
C673 N670 1.311 . S
C673 N674 1.347 . S
C673 H684 0.929 . S
N674 C672 1.375 . S
N674 C673 1.347 . S
C675 C678 1.365 . S
C675 N680 1.328 . S
C675 H681 0.929 . S
C676 C677 1.362 . S
C676 C679 1.378 . S
C676 H691 0.929 . S
C677 C676 1.362 . S
C677 C678 1.366 . S
C678 C675 1.365 . S
C678 C677 1.366 . S
C678 H692 0.930 . S
C679 C676 1.378 . S
C679 N680 1.315 . S
C679 H682 0.930 . S
N680 Co660 2.194 . S
N680 C675 1.328 . S
N680 C679 1.315 . S
H681 C675 0.929 . S
H682 C679 0.930 . S
H683 C671 0.929 . S
H684 C673 0.929 . S
O685 Co660 2.351 . S
O685 C688 1.244 . S
O686 Co660 2.155 . S
O686 C688 1.240 . S
O687 Co660 2.096 . S
O687 C668 1.247 . S
C688 O685 1.244 . S
C688 O686 1.240 . S
H689 C663 0.931 . S
H690 C672 0.931 . S
H691 C676 0.929 . S
H692 C678 0.930 . S
Co693 N697 2.148 . S
Co693 N703 2.128 . S
Co693 N713 2.194 . S
Co693 O718 2.351 . S
Co693 O719 2.155 . S
Co693 O720 2.096 . S
C694 N697 1.301 . S
C694 N698 1.328 . S
C694 H699 0.930 . S
C695 C696 1.333 . S
C695 N697 1.317 . S
C695 H700 0.930 . S
C696 C695 1.333 . S
C696 N698 1.350 . S
C696 H722 0.931 . S
N697 Co693 2.148 . S
N697 C694 1.301 . S
N697 C695 1.317 . S
N698 C694 1.328 . S
N698 C696 1.350 . S
H699 C694 0.930 . S
H700 C695 0.930 . S
C701 O702 1.224 . S
C701 O720 1.247 . S
O702 C701 1.224 . S
N703 Co693 2.128 . S
N703 C704 1.355 1_545 S
N703 C706 1.311 . S
C704 N703 1.355 1_565 S
C704 C705 1.363 . S
C704 H716 0.929 . S
C705 C704 1.363 . S
C705 N707 1.375 1_565 S
C705 H723 0.931 . S
C706 N703 1.311 . S
C706 N707 1.347 . S
C706 H717 0.929 . S
N707 C705 1.375 1_545 S
N707 C706 1.347 . S
C708 C711 1.365 . S
C708 N713 1.328 . S
C708 H714 0.929 . S
C709 C710 1.362 . S
C709 C712 1.378 . S
C709 H724 0.929 1_556 S
C710 C709 1.362 . S
C710 C711 1.366 . S
C711 C708 1.365 . S
C711 C710 1.366 . S
C711 H725 0.930 1_545 S
C712 C709 1.378 . S
C712 N713 1.315 . S
C712 H715 0.930 . S
N713 Co693 2.194 . S
N713 C708 1.328 . S
N713 C712 1.315 . S
H714 C708 0.929 . S
H715 C712 0.930 . S
H716 C704 0.929 . S
H717 C706 0.929 . S
O718 Co693 2.351 . S
O718 C721 1.244 . S
O719 Co693 2.155 . S
O719 C721 1.240 . S
O720 Co693 2.096 . S
O720 C701 1.247 . S
C721 O718 1.244 . S
C721 O719 1.240 . S
H722 C696 0.931 . S
H723 C705 0.931 . S
H724 C709 0.929 1_554 S
H725 C711 0.930 1_565 S
Co726 N730 2.148 . S
Co726 N736 2.128 . S
Co726 N746 2.194 . S
Co726 O751 2.351 . S
Co726 O752 2.155 . S
Co726 O753 2.096 . S
C727 N730 1.301 . S
C727 N731 1.328 . S
C727 H732 0.930 . S
C728 C729 1.333 . S
C728 N730 1.317 . S
C728 H733 0.930 . S
C729 C728 1.333 . S
C729 N731 1.350 . S
C729 H755 0.931 . S
N730 Co726 2.148 . S
N730 C727 1.301 . S
N730 C728 1.317 . S
N731 C727 1.328 . S
N731 C729 1.350 . S
H732 C727 0.930 . S
H733 C728 0.930 . S
C734 O735 1.224 . S
C734 O753 1.247 . S
O735 C734 1.224 . S
N736 Co726 2.128 . S
N736 C737 1.355 1_655 S
N736 C739 1.311 . S
C737 N736 1.355 1_455 S
C737 C738 1.363 . S
C737 H749 0.929 . S
C738 C737 1.363 . S
C738 N740 1.375 1_455 S
C738 H756 0.931 . S
C739 N736 1.311 . S
C739 N740 1.347 . S
C739 H750 0.929 . S
N740 C738 1.375 1_655 S
N740 C739 1.347 . S
C741 C744 1.365 . S
C741 N746 1.328 . S
C741 H747 0.929 . S
C742 C743 1.362 . S
C742 C745 1.378 . S
C742 H757 0.929 1_556 S
C743 C742 1.362 . S
C743 C744 1.366 . S
C744 C741 1.365 . S
C744 C743 1.366 . S
C744 H758 0.930 1_655 S
C745 C742 1.378 . S
C745 N746 1.315 . S
C745 H748 0.930 . S
N746 Co726 2.194 . S
N746 C741 1.328 . S
N746 C745 1.315 . S
H747 C741 0.929 . S
H748 C745 0.930 . S
H749 C737 0.929 . S
H750 C739 0.929 . S
O751 Co726 2.351 . S
O751 C754 1.244 . S
O752 Co726 2.155 . S
O752 C754 1.240 . S
O753 Co726 2.096 . S
O753 C734 1.247 . S
C754 O751 1.244 . S
C754 O752 1.240 . S
H755 C729 0.931 . S
H756 C738 0.931 . S
H757 C742 0.929 1_554 S
H758 C744 0.930 1_455 S
Co759 N763 2.148 . S
Co759 N769 2.128 . S
Co759 N779 2.194 . S
Co759 O784 2.351 . S
Co759 O785 2.155 . S
Co759 O786 2.096 . S
C760 N763 1.301 . S
C760 N764 1.328 . S
C760 H765 0.930 . S
C761 C762 1.333 . S
C761 N763 1.317 . S
C761 H766 0.930 . S
C762 C761 1.333 . S
C762 N764 1.350 . S
C762 H788 0.931 . S
N763 Co759 2.148 . S
N763 C760 1.301 . S
N763 C761 1.317 . S
N764 C760 1.328 . S
N764 C762 1.350 . S
H765 C760 0.930 . S
H766 C761 0.930 . S
C767 O768 1.224 . S
C767 O786 1.247 . S
O768 C767 1.224 . S
N769 Co759 2.128 . S
N769 C770 1.355 . S
N769 C772 1.311 . S
C770 N769 1.355 . S
C770 C771 1.363 . S
C770 H782 0.929 . S
C771 C770 1.363 . S
C771 N773 1.375 . S
C771 H789 0.931 . S
C772 N769 1.311 . S
C772 N773 1.347 . S
C772 H783 0.929 . S
N773 C771 1.375 . S
N773 C772 1.347 . S
C774 C777 1.365 . S
C774 N779 1.328 . S
C774 H780 0.929 . S
C775 C776 1.362 . S
C775 C778 1.378 . S
C775 H790 0.929 1_556 S
C776 C775 1.362 . S
C776 C777 1.366 . S
C777 C774 1.365 . S
C777 C776 1.366 . S
C777 H791 0.930 . S
C778 C775 1.378 . S
C778 N779 1.315 . S
C778 H781 0.930 . S
N779 Co759 2.194 . S
N779 C774 1.328 . S
N779 C778 1.315 . S
H780 C774 0.929 . S
H781 C778 0.930 . S
H782 C770 0.929 . S
H783 C772 0.929 . S
O784 Co759 2.351 . S
O784 C787 1.244 . S
O785 Co759 2.155 . S
O785 C787 1.240 . S
O786 Co759 2.096 . S
O786 C767 1.247 . S
C787 O784 1.244 . S
C787 O785 1.240 . S
H788 C762 0.931 . S
H789 C771 0.931 . S
H790 C775 0.929 1_554 S
H791 C777 0.930 . S
Co792 N796 2.148 . S
Co792 N802 2.128 . S
Co792 N812 2.194 . S
Co792 O817 2.351 . S
Co792 O818 2.155 . S
Co792 O819 2.096 . S
C793 N796 1.301 . S
C793 N797 1.328 . S
C793 H798 0.930 . S
C794 C795 1.333 . S
C794 N796 1.317 . S
C794 H799 0.930 . S
C795 C794 1.333 . S
C795 N797 1.350 . S
C795 H821 0.931 . S
N796 Co792 2.148 . S
N796 C793 1.301 . S
N796 C794 1.317 . S
N797 C793 1.328 . S
N797 C795 1.350 . S
H798 C793 0.930 . S
H799 C794 0.930 . S
C800 O801 1.224 . S
C800 O819 1.247 . S
O801 C800 1.224 . S
N802 Co792 2.128 . S
N802 C803 1.355 . S
N802 C805 1.311 . S
C803 N802 1.355 . S
C803 C804 1.363 . S
C803 H815 0.929 . S
C804 C803 1.363 . S
C804 N806 1.375 . S
C804 H822 0.931 . S
C805 N802 1.311 . S
C805 N806 1.347 . S
C805 H816 0.929 . S
N806 C804 1.375 . S
N806 C805 1.347 . S
C807 C810 1.365 . S
C807 N812 1.328 . S
C807 H813 0.929 . S
C808 C809 1.362 . S
C808 C811 1.378 . S
C808 H823 0.929 . S
C809 C808 1.362 . S
C809 C810 1.366 . S
C810 C807 1.365 . S
C810 C809 1.366 . S
C810 H824 0.930 . S
C811 C808 1.378 . S
C811 N812 1.315 . S
C811 H814 0.930 . S
N812 Co792 2.194 . S
N812 C807 1.328 . S
N812 C811 1.315 . S
H813 C807 0.929 . S
H814 C811 0.930 . S
H815 C803 0.929 . S
H816 C805 0.929 . S
O817 Co792 2.351 . S
O817 C820 1.244 . S
O818 Co792 2.155 . S
O818 C820 1.240 . S
O819 Co792 2.096 . S
O819 C800 1.247 . S
C820 O817 1.244 . S
C820 O818 1.240 . S
H821 C795 0.931 . S
H822 C804 0.931 . S
H823 C808 0.929 . S
H824 C810 0.930 . S
Co825 N829 2.148 . S
Co825 N835 2.128 . S
Co825 N845 2.194 . S
Co825 O850 2.351 . S
Co825 O851 2.155 . S
Co825 O852 2.096 . S
C826 N829 1.301 . S
C826 N830 1.328 . S
C826 H831 0.930 . S
C827 C828 1.333 . S
C827 N829 1.317 . S
C827 H832 0.930 . S
C828 C827 1.333 . S
C828 N830 1.350 . S
C828 H854 0.931 . S
N829 Co825 2.148 . S
N829 C826 1.301 . S
N829 C827 1.317 . S
N830 C826 1.328 . S
N830 C828 1.350 . S
H831 C826 0.930 . S
H832 C827 0.930 . S
C833 O834 1.224 . S
C833 O852 1.247 . S
O834 C833 1.224 . S
N835 Co825 2.128 . S
N835 C836 1.355 . S
N835 C838 1.311 . S
C836 N835 1.355 . S
C836 C837 1.363 . S
C836 H848 0.929 . S
C837 C836 1.363 . S
C837 N839 1.375 . S
C837 H855 0.931 . S
C838 N835 1.311 . S
C838 N839 1.347 . S
C838 H849 0.929 . S
N839 C837 1.375 . S
N839 C838 1.347 . S
C840 C843 1.365 . S
C840 N845 1.328 . S
C840 H846 0.929 . S
C841 C842 1.362 . S
C841 C844 1.378 . S
C841 H856 0.929 . S
C842 C841 1.362 . S
C842 C843 1.366 . S
C843 C840 1.365 . S
C843 C842 1.366 . S
C843 H857 0.930 . S
C844 C841 1.378 . S
C844 N845 1.315 . S
C844 H847 0.930 . S
N845 Co825 2.194 . S
N845 C840 1.328 . S
N845 C844 1.315 . S
H846 C840 0.929 . S
H847 C844 0.930 . S
H848 C836 0.929 . S
H849 C838 0.929 . S
O850 Co825 2.351 . S
O850 C853 1.244 . S
O851 Co825 2.155 . S
O851 C853 1.240 . S
O852 Co825 2.096 . S
O852 C833 1.247 . S
C853 O850 1.244 . S
C853 O851 1.240 . S
H854 C828 0.931 . S
H855 C837 0.931 . S
H856 C841 0.929 . S
H857 C843 0.930 . S
Co858 N862 2.148 . S
Co858 N868 2.128 . S
Co858 N878 2.194 . S
Co858 O883 2.351 . S
Co858 O884 2.155 . S
Co858 O885 2.096 . S
C859 N862 1.301 . S
C859 N863 1.328 . S
C859 H864 0.930 . S
C860 C861 1.333 . S
C860 N862 1.317 . S
C860 H865 0.930 . S
C861 C860 1.333 . S
C861 N863 1.350 . S
C861 H887 0.931 . S
N862 Co858 2.148 . S
N862 C859 1.301 . S
N862 C860 1.317 . S
N863 C859 1.328 . S
N863 C861 1.350 . S
H864 C859 0.930 . S
H865 C860 0.930 . S
C866 O867 1.224 . S
C866 O885 1.247 . S
O867 C866 1.224 . S
N868 Co858 2.128 . S
N868 C869 1.355 . S
N868 C871 1.311 . S
C869 N868 1.355 . S
C869 C870 1.363 . S
C869 H881 0.929 . S
C870 C869 1.363 . S
C870 N872 1.375 . S
C870 H888 0.931 . S
C871 N868 1.311 . S
C871 N872 1.347 . S
C871 H882 0.929 . S
N872 C870 1.375 . S
N872 C871 1.347 . S
C873 C876 1.365 . S
C873 N878 1.328 . S
C873 H879 0.929 . S
C874 C875 1.362 . S
C874 C877 1.378 . S
C874 H889 0.929 . S
C875 C874 1.362 . S
C875 C876 1.366 . S
C876 C873 1.365 . S
C876 C875 1.366 . S
C876 H890 0.930 . S
C877 C874 1.378 . S
C877 N878 1.315 . S
C877 H880 0.930 . S
N878 Co858 2.194 . S
N878 C873 1.328 . S
N878 C877 1.315 . S
H879 C873 0.929 . S
H880 C877 0.930 . S
H881 C869 0.929 . S
H882 C871 0.929 . S
O883 Co858 2.351 . S
O883 C886 1.244 . S
O884 Co858 2.155 . S
O884 C886 1.240 . S
O885 Co858 2.096 . S
O885 C866 1.247 . S
C886 O883 1.244 . S
C886 O884 1.240 . S
H887 C861 0.931 . S
H888 C870 0.931 . S
H889 C874 0.929 . S
H890 C876 0.930 . S
Co891 N895 2.148 . S
Co891 N901 2.128 . S
Co891 N911 2.194 . S
Co891 O916 2.351 . S
Co891 O917 2.155 . S
Co891 O918 2.096 . S
C892 N895 1.301 . S
C892 N896 1.328 . S
C892 H897 0.930 . S
C893 C894 1.333 1_565 S
C893 N895 1.317 . S
C893 H898 0.930 1_565 S
C894 C893 1.333 1_545 S
C894 N896 1.350 1_545 S
C894 H920 0.931 . S
N895 Co891 2.148 . S
N895 C892 1.301 . S
N895 C893 1.317 . S
N896 C892 1.328 . S
N896 C894 1.350 1_565 S
H897 C892 0.930 . S
H898 C893 0.930 1_545 S
C899 O900 1.224 . S
C899 O918 1.247 . S
O900 C899 1.224 . S
N901 Co891 2.128 . S
N901 C902 1.355 . S
N901 C904 1.311 . S
C902 N901 1.355 . S
C902 C903 1.363 . S
C902 H914 0.929 . S
C903 C902 1.363 . S
C903 N905 1.375 . S
C903 H921 0.931 . S
C904 N901 1.311 . S
C904 N905 1.347 . S
C904 H915 0.929 . S
N905 C903 1.375 . S
N905 C904 1.347 . S
C906 C909 1.365 . S
C906 N911 1.328 . S
C906 H912 0.929 . S
C907 C908 1.362 . S
C907 C910 1.378 . S
C907 H922 0.929 1_565 S
C908 C907 1.362 . S
C908 C909 1.366 . S
C909 C906 1.365 . S
C909 C908 1.366 . S
C909 H923 0.930 1_554 S
C910 C907 1.378 . S
C910 N911 1.315 . S
C910 H913 0.930 . S
N911 Co891 2.194 . S
N911 C906 1.328 . S
N911 C910 1.315 . S
H912 C906 0.929 . S
H913 C910 0.930 . S
H914 C902 0.929 . S
H915 C904 0.929 . S
O916 Co891 2.351 . S
O916 C919 1.244 . S
O917 Co891 2.155 . S
O917 C919 1.240 . S
O918 Co891 2.096 . S
O918 C899 1.247 . S
C919 O916 1.244 . S
C919 O917 1.240 . S
H920 C894 0.931 . S
H921 C903 0.931 . S
H922 C907 0.929 1_545 S
H923 C909 0.930 1_556 S
Co924 N928 2.148 . S
Co924 N934 2.128 . S
Co924 N944 2.194 . S
Co924 O949 2.351 . S
Co924 O950 2.155 . S
Co924 O951 2.096 . S
C925 N928 1.301 . S
C925 N929 1.328 . S
C925 H930 0.930 . S
C926 C927 1.333 1_455 S
C926 N928 1.317 . S
C926 H931 0.930 1_455 S
C927 C926 1.333 1_655 S
C927 N929 1.350 1_655 S
C927 H953 0.931 . S
N928 Co924 2.148 . S
N928 C925 1.301 . S
N928 C926 1.317 . S
N929 C925 1.328 . S
N929 C927 1.350 1_455 S
H930 C925 0.930 . S
H931 C926 0.930 1_655 S
C932 O933 1.224 . S
C932 O951 1.247 . S
O933 C932 1.224 . S
N934 Co924 2.128 . S
N934 C935 1.355 . S
N934 C937 1.311 . S
C935 N934 1.355 . S
C935 C936 1.363 . S
C935 H947 0.929 . S
C936 C935 1.363 . S
C936 N938 1.375 . S
C936 H954 0.931 . S
C937 N934 1.311 . S
C937 N938 1.347 . S
C937 H948 0.929 . S
N938 C936 1.375 . S
N938 C937 1.347 . S
C939 C942 1.365 . S
C939 N944 1.328 . S
C939 H945 0.929 . S
C940 C941 1.362 . S
C940 C943 1.378 . S
C940 H955 0.929 1_455 S
C941 C940 1.362 . S
C941 C942 1.366 . S
C942 C939 1.365 . S
C942 C941 1.366 . S
C942 H956 0.930 1_554 S
C943 C940 1.378 . S
C943 N944 1.315 . S
C943 H946 0.930 . S
N944 Co924 2.194 . S
N944 C939 1.328 . S
N944 C943 1.315 . S
H945 C939 0.929 . S
H946 C943 0.930 . S
H947 C935 0.929 . S
H948 C937 0.929 . S
O949 Co924 2.351 . S
O949 C952 1.244 . S
O950 Co924 2.155 . S
O950 C952 1.240 . S
O951 Co924 2.096 . S
O951 C932 1.247 . S
C952 O949 1.244 . S
C952 O950 1.240 . S
H953 C927 0.931 . S
H954 C936 0.931 . S
H955 C940 0.929 1_655 S
H956 C942 0.930 1_556 S
Co957 N961 2.148 . S
Co957 N967 2.128 . S
Co957 N977 2.194 . S
Co957 O982 2.351 . S
Co957 O983 2.155 . S
Co957 O984 2.096 . S
C958 N961 1.301 . S
C958 N962 1.328 . S
C958 H963 0.930 . S
C959 C960 1.333 . S
C959 N961 1.317 . S
C959 H964 0.930 . S
C960 C959 1.333 . S
C960 N962 1.350 . S
C960 H986 0.931 . S
N961 Co957 2.148 . S
N961 C958 1.301 . S
N961 C959 1.317 . S
N962 C958 1.328 . S
N962 C960 1.350 . S
H963 C958 0.930 . S
H964 C959 0.930 . S
C965 O966 1.224 . S
C965 O984 1.247 . S
O966 C965 1.224 . S
N967 Co957 2.128 . S
N967 C968 1.355 . S
N967 C970 1.311 . S
C968 N967 1.355 . S
C968 C969 1.363 . S
C968 H980 0.929 . S
C969 C968 1.363 . S
C969 N971 1.375 . S
C969 H987 0.931 . S
C970 N967 1.311 . S
C970 N971 1.347 . S
C970 H981 0.929 . S
N971 C969 1.375 . S
N971 C970 1.347 . S
C972 C975 1.365 . S
C972 N977 1.328 . S
C972 H978 0.929 . S
C973 C974 1.362 . S
C973 C976 1.378 . S
C973 H988 0.929 . S
C974 C973 1.362 . S
C974 C975 1.366 . S
C975 C972 1.365 . S
C975 C974 1.366 . S
C975 H989 0.930 1_554 S
C976 C973 1.378 . S
C976 N977 1.315 . S
C976 H979 0.930 . S
N977 Co957 2.194 . S
N977 C972 1.328 . S
N977 C976 1.315 . S
H978 C972 0.929 . S
H979 C976 0.930 . S
H980 C968 0.929 . S
H981 C970 0.929 . S
O982 Co957 2.351 . S
O982 C985 1.244 . S
O983 Co957 2.155 . S
O983 C985 1.240 . S
O984 Co957 2.096 . S
O984 C965 1.247 . S
C985 O982 1.244 . S
C985 O983 1.240 . S
H986 C960 0.931 . S
H987 C969 0.931 . S
H988 C973 0.929 . S
H989 C975 0.930 1_556 S
Co990 N994 2.148 . S
Co990 N1000 2.128 . S
Co990 N1010 2.194 . S
Co990 O1015 2.351 . S
Co990 O1016 2.155 . S
Co990 O1017 2.096 . S
C991 N994 1.301 . S
C991 N995 1.328 . S
C991 H996 0.930 . S
C992 C993 1.333 . S
C992 N994 1.317 . S
C992 H997 0.930 . S
C993 C992 1.333 . S
C993 N995 1.350 . S
C993 H1019 0.931 . S
N994 Co990 2.148 . S
N994 C991 1.301 . S
N994 C992 1.317 . S
N995 C991 1.328 . S
N995 C993 1.350 . S
H996 C991 0.930 . S
H997 C992 0.930 . S
C998 O999 1.224 . S
C998 O1017 1.247 . S
O999 C998 1.224 . S
N1000 Co990 2.128 . S
N1000 C1001 1.355 1_455 S
N1000 C1003 1.311 . S
C1001 N1000 1.355 1_655 S
C1001 C1002 1.363 . S
C1001 H1013 0.929 . S
C1002 C1001 1.363 . S
C1002 N1004 1.375 1_655 S
C1002 H1020 0.931 . S
C1003 N1000 1.311 . S
C1003 N1004 1.347 . S
C1003 H1014 0.929 . S
N1004 C1002 1.375 1_455 S
N1004 C1003 1.347 . S
C1005 C1008 1.365 . S
C1005 N1010 1.328 . S
C1005 H1011 0.929 . S
C1006 C1007 1.362 . S
C1006 C1009 1.378 . S
C1006 H1021 0.929 . S
C1007 C1006 1.362 . S
C1007 C1008 1.366 . S
C1008 C1005 1.365 . S
C1008 C1007 1.366 . S
C1008 H1022 0.930 1_455 S
C1009 C1006 1.378 . S
C1009 N1010 1.315 . S
C1009 H1012 0.930 . S
N1010 Co990 2.194 . S
N1010 C1005 1.328 . S
N1010 C1009 1.315 . S
H1011 C1005 0.929 . S
H1012 C1009 0.930 . S
H1013 C1001 0.929 . S
H1014 C1003 0.929 . S
O1015 Co990 2.351 . S
O1015 C1018 1.244 . S
O1016 Co990 2.155 . S
O1016 C1018 1.240 . S
O1017 Co990 2.096 . S
O1017 C998 1.247 . S
C1018 O1015 1.244 . S
C1018 O1016 1.240 . S
H1019 C993 0.931 . S
H1020 C1002 0.931 . S
H1021 C1006 0.929 . S
H1022 C1008 0.930 1_655 S
Co1023 N1027 2.148 . S
Co1023 N1033 2.128 . S
Co1023 N1043 2.194 . S
Co1023 O1048 2.351 . S
Co1023 O1049 2.155 . S
Co1023 O1050 2.096 . S
C1024 N1027 1.301 . S
C1024 N1028 1.328 . S
C1024 H1029 0.930 . S
C1025 C1026 1.333 . S
C1025 N1027 1.317 . S
C1025 H1030 0.930 . S
C1026 C1025 1.333 . S
C1026 N1028 1.350 . S
C1026 H1052 0.931 . S
N1027 Co1023 2.148 . S
N1027 C1024 1.301 . S
N1027 C1025 1.317 . S
N1028 C1024 1.328 . S
N1028 C1026 1.350 . S
H1029 C1024 0.930 . S
H1030 C1025 0.930 . S
C1031 O1032 1.224 . S
C1031 O1050 1.247 . S
O1032 C1031 1.224 . S
N1033 Co1023 2.128 . S
N1033 C1034 1.355 . S
N1033 C1036 1.311 . S
C1034 N1033 1.355 . S
C1034 C1035 1.363 . S
C1034 H1046 0.929 . S
C1035 C1034 1.363 . S
C1035 N1037 1.375 . S
C1035 H1053 0.931 . S
C1036 N1033 1.311 . S
C1036 N1037 1.347 . S
C1036 H1047 0.929 . S
N1037 C1035 1.375 . S
N1037 C1036 1.347 . S
C1038 C1041 1.365 . S
C1038 N1043 1.328 . S
C1038 H1044 0.929 . S
C1039 C1040 1.362 . S
C1039 C1042 1.378 . S
C1039 H1054 0.929 . S
C1040 C1039 1.362 . S
C1040 C1041 1.366 . S
C1041 C1038 1.365 . S
C1041 C1040 1.366 . S
C1041 H1055 0.930 . S
C1042 C1039 1.378 . S
C1042 N1043 1.315 . S
C1042 H1045 0.930 . S
N1043 Co1023 2.194 . S
N1043 C1038 1.328 . S
N1043 C1042 1.315 . S
H1044 C1038 0.929 . S
H1045 C1042 0.930 . S
H1046 C1034 0.929 . S
H1047 C1036 0.929 . S
O1048 Co1023 2.351 . S
O1048 C1051 1.244 . S
O1049 Co1023 2.155 . S
O1049 C1051 1.240 . S
O1050 Co1023 2.096 . S
O1050 C1031 1.247 . S
C1051 O1048 1.244 . S
C1051 O1049 1.240 . S
H1052 C1026 0.931 . S
H1053 C1035 0.931 . S
H1054 C1039 0.929 . S
H1055 C1041 0.930 . S
Co1056 N1060 2.148 . S
Co1056 N1066 2.128 . S
Co1056 N1076 2.194 . S
Co1056 O1081 2.351 . S
Co1056 O1082 2.155 . S
Co1056 O1083 2.096 . S
C1057 N1060 1.301 . S
C1057 N1061 1.328 . S
C1057 H1062 0.930 . S
C1058 C1059 1.333 . S
C1058 N1060 1.317 . S
C1058 H1063 0.930 . S
C1059 C1058 1.333 . S
C1059 N1061 1.350 . S
C1059 H1085 0.931 . S
N1060 Co1056 2.148 . S
N1060 C1057 1.301 . S
N1060 C1058 1.317 . S
N1061 C1057 1.328 . S
N1061 C1059 1.350 . S
H1062 C1057 0.930 . S
H1063 C1058 0.930 . S
C1064 O1065 1.224 . S
C1064 O1083 1.247 . S
O1065 C1064 1.224 . S
N1066 Co1056 2.128 . S
N1066 C1067 1.355 1_565 S
N1066 C1069 1.311 . S
C1067 N1066 1.355 1_545 S
C1067 C1068 1.363 . S
C1067 H1079 0.929 . S
C1068 C1067 1.363 . S
C1068 N1070 1.375 1_545 S
C1068 H1086 0.931 . S
C1069 N1066 1.311 . S
C1069 N1070 1.347 . S
C1069 H1080 0.929 . S
N1070 C1068 1.375 1_565 S
N1070 C1069 1.347 . S
C1071 C1074 1.365 . S
C1071 N1076 1.328 . S
C1071 H1077 0.929 . S
C1072 C1073 1.362 . S
C1072 C1075 1.378 . S
C1072 H1087 0.929 . S
C1073 C1072 1.362 . S
C1073 C1074 1.366 . S
C1074 C1071 1.365 . S
C1074 C1073 1.366 . S
C1074 H1088 0.930 1_565 S
C1075 C1072 1.378 . S
C1075 N1076 1.315 . S
C1075 H1078 0.930 . S
N1076 Co1056 2.194 . S
N1076 C1071 1.328 . S
N1076 C1075 1.315 . S
H1077 C1071 0.929 . S
H1078 C1075 0.930 . S
H1079 C1067 0.929 . S
H1080 C1069 0.929 . S
O1081 Co1056 2.351 . S
O1081 C1084 1.244 . S
O1082 Co1056 2.155 . S
O1082 C1084 1.240 . S
O1083 Co1056 2.096 . S
O1083 C1064 1.247 . S
C1084 O1081 1.244 . S
C1084 O1082 1.240 . S
H1085 C1059 0.931 . S
H1086 C1068 0.931 . S
H1087 C1072 0.929 . S
H1088 C1074 0.930 1_545 S
Co1089 N1093 2.148 . S
Co1089 N1099 2.128 . S
Co1089 N1109 2.194 . S
Co1089 O1114 2.351 . S
Co1089 O1115 2.155 . S
Co1089 O1116 2.096 . S
C1090 N1093 1.301 . S
C1090 N1094 1.328 . S
C1090 H1095 0.930 . S
C1091 C1092 1.333 . S
C1091 N1093 1.317 . S
C1091 H1096 0.930 . S
C1092 C1091 1.333 . S
C1092 N1094 1.350 . S
C1092 H1118 0.931 . S
N1093 Co1089 2.148 . S
N1093 C1090 1.301 . S
N1093 C1091 1.317 . S
N1094 C1090 1.328 . S
N1094 C1092 1.350 . S
H1095 C1090 0.930 . S
H1096 C1091 0.930 . S
C1097 O1098 1.224 . S
C1097 O1116 1.247 . S
O1098 C1097 1.224 . S
N1099 Co1089 2.128 . S
N1099 C1100 1.355 . S
N1099 C1102 1.311 . S
C1100 N1099 1.355 . S
C1100 C1101 1.363 . S
C1100 H1112 0.929 . S
C1101 C1100 1.363 . S
C1101 N1103 1.375 . S
C1101 H1119 0.931 . S
C1102 N1099 1.311 . S
C1102 N1103 1.347 . S
C1102 H1113 0.929 . S
N1103 C1101 1.375 . S
N1103 C1102 1.347 . S
C1104 C1107 1.365 . S
C1104 N1109 1.328 . S
C1104 H1110 0.929 . S
C1105 C1106 1.362 . S
C1105 C1108 1.378 . S
C1105 H1120 0.929 . S
C1106 C1105 1.362 . S
C1106 C1107 1.366 . S
C1107 C1104 1.365 . S
C1107 C1106 1.366 . S
C1107 H1121 0.930 . S
C1108 C1105 1.378 . S
C1108 N1109 1.315 . S
C1108 H1111 0.930 . S
N1109 Co1089 2.194 . S
N1109 C1104 1.328 . S
N1109 C1108 1.315 . S
H1110 C1104 0.929 . S
H1111 C1108 0.930 . S
H1112 C1100 0.929 . S
H1113 C1102 0.929 . S
O1114 Co1089 2.351 . S
O1114 C1117 1.244 . S
O1115 Co1089 2.155 . S
O1115 C1117 1.240 . S
O1116 Co1089 2.096 . S
O1116 C1097 1.247 . S
C1117 O1114 1.244 . S
C1117 O1115 1.240 . S
H1118 C1092 0.931 . S
H1119 C1101 0.931 . S
H1120 C1105 0.929 . S
H1121 C1107 0.930 . S
Co1122 N1126 2.148 . S
Co1122 N1132 2.128 . S
Co1122 N1142 2.194 . S
Co1122 O1147 2.351 . S
Co1122 O1148 2.155 . S
Co1122 O1149 2.096 . S
C1123 N1126 1.301 . S
C1123 N1127 1.328 . S
C1123 H1128 0.930 . S
C1124 C1125 1.333 . S
C1124 N1126 1.317 . S
C1124 H1129 0.930 . S
C1125 C1124 1.333 . S
C1125 N1127 1.350 . S
C1125 H1151 0.931 . S
N1126 Co1122 2.148 . S
N1126 C1123 1.301 . S
N1126 C1124 1.317 . S
N1127 C1123 1.328 . S
N1127 C1125 1.350 . S
H1128 C1123 0.930 . S
H1129 C1124 0.930 . S
C1130 O1131 1.224 . S
C1130 O1149 1.247 . S
O1131 C1130 1.224 . S
N1132 Co1122 2.128 . S
N1132 C1133 1.355 . S
N1132 C1135 1.311 . S
C1133 N1132 1.355 . S
C1133 C1134 1.363 . S
C1133 H1145 0.929 . S
C1134 C1133 1.363 . S
C1134 N1136 1.375 . S
C1134 H1152 0.931 . S
C1135 N1132 1.311 . S
C1135 N1136 1.347 . S
C1135 H1146 0.929 . S
N1136 C1134 1.375 . S
N1136 C1135 1.347 . S
C1137 C1140 1.365 . S
C1137 N1142 1.328 . S
C1137 H1143 0.929 . S
C1138 C1139 1.362 . S
C1138 C1141 1.378 . S
C1138 H1153 0.929 . S
C1139 C1138 1.362 . S
C1139 C1140 1.366 . S
C1140 C1137 1.365 . S
C1140 C1139 1.366 . S
C1140 H1154 0.930 . S
C1141 C1138 1.378 . S
C1141 N1142 1.315 . S
C1141 H1144 0.930 . S
N1142 Co1122 2.194 . S
N1142 C1137 1.328 . S
N1142 C1141 1.315 . S
H1143 C1137 0.929 . S
H1144 C1141 0.930 . S
H1145 C1133 0.929 . S
H1146 C1135 0.929 . S
O1147 Co1122 2.351 . S
O1147 C1150 1.244 . S
O1148 Co1122 2.155 . S
O1148 C1150 1.240 . S
O1149 Co1122 2.096 . S
O1149 C1130 1.247 . S
C1150 O1147 1.244 . S
C1150 O1148 1.240 . S
H1151 C1125 0.931 . S
H1152 C1134 0.931 . S
H1153 C1138 0.929 . S
H1154 C1140 0.930 . S
Co1155 N1159 2.148 . S
Co1155 N1165 2.128 . S
Co1155 N1175 2.194 . S
Co1155 O1180 2.351 . S
Co1155 O1181 2.155 . S
Co1155 O1182 2.096 . S
C1156 N1159 1.301 . S
C1156 N1160 1.328 . S
C1156 H1161 0.930 . S
C1157 C1158 1.333 . S
C1157 N1159 1.317 . S
C1157 H1162 0.930 . S
C1158 C1157 1.333 . S
C1158 N1160 1.350 . S
C1158 H1184 0.931 . S
N1159 Co1155 2.148 . S
N1159 C1156 1.301 . S
N1159 C1157 1.317 . S
N1160 C1156 1.328 . S
N1160 C1158 1.350 . S
H1161 C1156 0.930 . S
H1162 C1157 0.930 . S
C1163 O1164 1.224 . S
C1163 O1182 1.247 . S
O1164 C1163 1.224 . S
N1165 Co1155 2.128 . S
N1165 C1166 1.355 . S
N1165 C1168 1.311 . S
C1166 N1165 1.355 . S
C1166 C1167 1.363 . S
C1166 H1178 0.929 . S
C1167 C1166 1.363 . S
C1167 N1169 1.375 . S
C1167 H1185 0.931 . S
C1168 N1165 1.311 . S
C1168 N1169 1.347 . S
C1168 H1179 0.929 . S
N1169 C1167 1.375 . S
N1169 C1168 1.347 . S
C1170 C1173 1.365 . S
C1170 N1175 1.328 . S
C1170 H1176 0.929 . S
C1171 C1172 1.362 . S
C1171 C1174 1.378 . S
C1171 H1186 0.929 . S
C1172 C1171 1.362 . S
C1172 C1173 1.366 . S
C1173 C1170 1.365 . S
C1173 C1172 1.366 . S
C1173 H1187 0.930 . S
C1174 C1171 1.378 . S
C1174 N1175 1.315 . S
C1174 H1177 0.930 . S
N1175 Co1155 2.194 . S
N1175 C1170 1.328 . S
N1175 C1174 1.315 . S
H1176 C1170 0.929 . S
H1177 C1174 0.930 . S
H1178 C1166 0.929 . S
H1179 C1168 0.929 . S
O1180 Co1155 2.351 . S
O1180 C1183 1.244 . S
O1181 Co1155 2.155 . S
O1181 C1183 1.240 . S
O1182 Co1155 2.096 . S
O1182 C1163 1.247 . S
C1183 O1180 1.244 . S
C1183 O1181 1.240 . S
H1184 C1158 0.931 . S
H1185 C1167 0.931 . S
H1186 C1171 0.929 . S
H1187 C1173 0.930 . S
C536 C28 1.980 . S
C61 C569 1.980 . S
C503 C94 1.980 . S
C107 C886 1.980 . S
C820 C140 1.980 . S
C173 C853 1.980 . S
C226 C1150 2.045 . S
C259 C1183 2.045 . S
C292 C1117 2.045 . S
C325 C688 2.045 . S
C358 C622 2.045 . S
C391 C655 2.045 . S
C424 C932 1.980 1_655 S
C965 C457 1.980 . S
C899 C490 1.980 1_565 S
C1084 C721 2.045 1_565 S
C1018 C754 2.045 1_455 S
C787 C1051 2.045 . S
N962 N14 1.953 . S
N47 N896 1.953 1_545 S
N80 N929 1.953 1_655 S
N104 N443 1.953 . S
N137 N476 1.953 1_565 S
N410 N170 1.954 1_655 S
N773 N212 1.808 . S
N245 N707 1.809 1_565 S
N278 N740 1.808 1_455 S
N1037 N311 1.808 . S
N1070 N344 1.808 1_565 S
N1004 N377 1.808 1_455 S
N500 N839 1.953 1_655 S
N533 N872 1.953 . S
N566 N806 1.954 1_545 S
N608 N1169 1.809 1_545 S
N1103 N641 1.808 1_455 S
N674 N1136 1.808 . S
C17 C611 1.776 . S
C50 C644 1.776 . S
C677 C83 1.776 . S
C116 C1106 1.692 . S
C149 C1139 1.693 . S
C182 C1172 1.693 . S
C809 C215 1.776 . S
C248 C842 1.776 . S
C875 C281 1.776 . S
C512 C314 1.692 . S
C545 C347 1.693 . S
C380 C578 1.692 . S
C1007 C413 1.776 1_455 S
C1040 C446 1.776 . S
C479 C1073 1.776 1_545 S
C908 C710 1.693 1_564 S
C743 C941 1.692 1_656 S
C974 C776 1.692 1_554 S
N5 C239 1.650 . S
N38 C272 1.650 . S
C206 N71 1.650 . S
C371 N113 1.583 . S
C305 N146 1.583 . S
C338 N179 1.583 . S
C41 N203 1.698 . S
C74 N236 1.698 . S
C8 N269 1.697 . S
N302 C193 1.610 . S
N335 C127 1.610 . S
C160 N368 1.610 . S
C635 N401 1.650 . S
N434 C668 1.650 . S
C602 N467 1.650 . S
C767 N509 1.583 . S
N542 C701 1.583 . S
N575 C734 1.583 . S
N599 C437 1.697 . S
N632 C470 1.698 . S
N665 C404 1.698 . S
N698 C589 1.610 . S
C523 N731 1.610 . S
C556 N764 1.610 . S
C1031 N797 1.650 . S
C1064 N830 1.650 . S
C998 N863 1.650 . S
C1163 N905 1.583 . S
N938 C1097 1.583 . S
C1130 N971 1.583 . S
C833 N995 1.697 . S
C866 N1028 1.698 . S
C800 N1061 1.698 . S
N1094 C985 1.610 . S
N1127 C919 1.610 . S
C952 N1160 1.610 . S
