# Generated by pormake.
# Topology acs-a, (4)-cn, num edge types: 1
# Building blocks:
#     Node 0, Type 0, BuildingBlock: CEKHIL_clean_sbu_0, # of connection points: 4
#     Node 1, Type 0, BuildingBlock: CEKHIL_clean_sbu_0, # of connection points: 4
#     Node 2, Type 0, BuildingBlock: CEKHIL_clean_sbu_0, # of connection points: 4
#     Node 3, Type 0, BuildingBlock: CEKHIL_clean_sbu_0, # of connection points: 4
#     Node 4, Type 0, BuildingBlock: CEKHIL_clean_sbu_0, # of connection points: 4
#     Node 5, Type 0, BuildingBlock: CEKHIL_clean_sbu_0, # of connection points: 4
#     Node 6, Type 0, BuildingBlock: CEKHIL_clean_sbu_0, # of connection points: 4
#     Node 7, Type 0, BuildingBlock: CEKHIL_clean_sbu_0, # of connection points: 4
#     Node 8, Type 0, BuildingBlock: CEKHIL_clean_sbu_0, # of connection points: 4
#     Node 9, Type 0, BuildingBlock: CEKHIL_clean_sbu_0, # of connection points: 4
#     Node 10, Type 0, BuildingBlock: CEKHIL_clean_sbu_0, # of connection points: 4
#     Node 11, Type 0, BuildingBlock: CEKHIL_clean_sbu_0, # of connection points: 4
#     Edge 12, Type (0, 0), BuildingBlock: XIVTED_clean_linker_0, # of connection points: 2
#     Edge 13, Type (0, 0), BuildingBlock: XIVTED_clean_linker_0, # of connection points: 2
#     Edge 14, Type (0, 0), BuildingBlock: XIVTED_clean_linker_0, # of connection points: 2
#     Edge 15, Type (0, 0), BuildingBlock: XIVTED_clean_linker_0, # of connection points: 2
#     Edge 16, Type (0, 0), BuildingBlock: XIVTED_clean_linker_0, # of connection points: 2
#     Edge 17, Type (0, 0), BuildingBlock: XIVTED_clean_linker_0, # of connection points: 2
#     Edge 18, Type (0, 0), BuildingBlock: XIVTED_clean_linker_0, # of connection points: 2
#     Edge 19, Type (0, 0), BuildingBlock: XIVTED_clean_linker_0, # of connection points: 2
#     Edge 20, Type (0, 0), BuildingBlock: XIVTED_clean_linker_0, # of connection points: 2
#     Edge 21, Type (0, 0), BuildingBlock: XIVTED_clean_linker_0, # of connection points: 2
#     Edge 22, Type (0, 0), BuildingBlock: XIVTED_clean_linker_0, # of connection points: 2
#     Edge 23, Type (0, 0), BuildingBlock: XIVTED_clean_linker_0, # of connection points: 2
#     Edge 24, Type (0, 0), BuildingBlock: XIVTED_clean_linker_0, # of connection points: 2
#     Edge 25, Type (0, 0), BuildingBlock: XIVTED_clean_linker_0, # of connection points: 2
#     Edge 26, Type (0, 0), BuildingBlock: XIVTED_clean_linker_0, # of connection points: 2
#     Edge 27, Type (0, 0), BuildingBlock: XIVTED_clean_linker_0, # of connection points: 2
#     Edge 28, Type (0, 0), BuildingBlock: XIVTED_clean_linker_0, # of connection points: 2
#     Edge 29, Type (0, 0), BuildingBlock: XIVTED_clean_linker_0, # of connection points: 2
#     Edge 30, Type (0, 0), BuildingBlock: XIVTED_clean_linker_0, # of connection points: 2
#     Edge 31, Type (0, 0), BuildingBlock: XIVTED_clean_linker_0, # of connection points: 2
#     Edge 32, Type (0, 0), BuildingBlock: XIVTED_clean_linker_0, # of connection points: 2
#     Edge 33, Type (0, 0), BuildingBlock: XIVTED_clean_linker_0, # of connection points: 2
#     Edge 34, Type (0, 0), BuildingBlock: XIVTED_clean_linker_0, # of connection points: 2
#     Edge 35, Type (0, 0), BuildingBlock: XIVTED_clean_linker_0, # of connection points: 2
# Relax obj value: 0.517
# Max RMSD: 0.261
# Mean RMSD: 0.235
data_MOF--net-acs-a--node1-CEKHIL_clean_sbu_0--edge1-XIVTED_clean_linker_0
_symmetry_space_group_name_H-M    P1
_symmetry_Int_Tables_number       1
_symmetry_cell_setting            triclinic
loop_
_symmetry_equiv_pos_as_xyz
'x, y, z'
_cell_length_a     48.408527
_cell_length_b     48.423462
_cell_length_c     37.588857
_cell_angle_alpha  89.985138
_cell_angle_beta   90.005624
_cell_angle_gamma 113.96797
loop_
_atom_site_label
_atom_site_type_symbol
_atom_site_fract_x
_atom_site_fract_y
_atom_site_fract_z
_atom_type_partial_charge
Co0 Co 0.64526 0.13651 0.04201 0.0
O1 O 0.64204 0.09929 0.02009 0.0
O2 O 0.60364 0.11037 0.03658 0.0
C3 C 0.68049 0.16944 0.00608 0.0
O4 O 0.63802 0.1714 0.06283 0.0
Co5 Co 0.7029 0.1828 0.0778 0.0
O6 O 0.68181 0.21064 0.07441 0.0
C7 C 0.66552 0.12657 0.11583 0.0
C8 C 0.61294 0.09134 0.0222 0.0
C9 C 0.65318 0.19927 0.07063 0.0
O10 O 0.64559 0.11967 0.09096 0.0
O11 O 0.69092 0.14955 0.1142 0.0
O12 O 0.65243 0.15668 0.9959 0.0
O13 O 0.68675 0.15895 0.03519 0.0
Co14 Co 0.46226 0.62731 0.56006 0.0
O15 O 0.50151 0.63095 0.54529 0.0
O16 O 0.45876 0.59005 0.53866 0.0
C17 C 0.46303 0.67098 0.53949 0.0
O18 O 0.41795 0.61571 0.57064 0.0
Co19 Co 0.45752 0.67186 0.61675 0.0
O20 O 0.41352 0.65097 0.60652 0.0
C21 C 0.47228 0.62184 0.63986 0.0
C22 C 0.48794 0.6031 0.5347 0.0
C23 C 0.40204 0.6271 0.58762 0.0
O24 O 0.46763 0.61136 0.60797 0.0
O25 O 0.47261 0.64758 0.64822 0.0
O26 O 0.45765 0.64842 0.51787 0.0
O27 O 0.47315 0.66812 0.57046 0.0
Co28 Co 0.84744 0.43011 0.09243 0.0
O29 O 0.87888 0.4695 0.10079 0.0
O30 O 0.87993 0.43704 0.05965 0.0
C31 C 0.80872 0.44447 0.09404 0.0
O32 O 0.81925 0.38865 0.07403 0.0
Co33 Co 0.79534 0.3974 0.14572 0.0
O34 O 0.77496 0.37425 0.10274 0.0
C35 C 0.85603 0.39772 0.15779 0.0
C36 C 0.89293 0.46346 0.07448 0.0
C37 C 0.79085 0.37189 0.07689 0.0
O38 O 0.86612 0.41161 0.12825 0.0
O39 O 0.82937 0.39135 0.16973 0.0
O40 O 0.82451 0.44807 0.06509 0.0
O41 O 0.81841 0.4349 0.12132 0.0
Co42 Co 0.34725 0.85924 0.535 0.0
O43 O 0.3497 0.89863 0.52118 0.0
O44 O 0.38836 0.88526 0.52616 0.0
C45 C 0.3081 0.83025 0.50081 0.0
O46 O 0.35515 0.82236 0.54598 0.0
Co47 Co 0.29299 0.81019 0.57313 0.0
O48 O 0.31325 0.78254 0.562 0.0
C49 C 0.33593 0.86146 0.6145 0.0
C50 C 0.37869 0.90595 0.51877 0.0
C51 C 0.3411 0.79426 0.55338 0.0
O52 O 0.35253 0.87113 0.58666 0.0
O53 O 0.31019 0.83889 0.614 0.0
O54 O 0.33498 0.84363 0.48713 0.0
O55 O 0.30518 0.83801 0.53303 0.0
Co56 Co 0.52619 0.36251 0.07043 0.0
O57 O 0.48745 0.35769 0.05205 0.0
O58 O 0.53048 0.3981 0.04453 0.0
C59 C 0.52652 0.31785 0.05578 0.0
O60 O 0.57014 0.37523 0.08389 0.0
Co61 Co 0.52969 0.32238 0.13322 0.0
O62 O 0.57397 0.34268 0.12435 0.0
C63 C 0.51353 0.37322 0.14798 0.0
C64 C 0.5015 0.38477 0.03917 0.0
C65 C 0.5858 0.36531 0.10358 0.0
O66 O 0.51908 0.3815 0.11532 0.0
O67 O 0.51326 0.34831 0.15972 0.0
O68 O 0.5323 0.33884 0.03181 0.0
O69 O 0.51526 0.32253 0.0852 0.0
Co70 Co 0.1429 0.57101 0.59032 0.0
O71 O 0.11158 0.53181 0.59991 0.0
O72 O 0.10873 0.56475 0.56053 0.0
C73 C 0.18084 0.55561 0.58763 0.0
O74 O 0.17034 0.61238 0.5711 0.0
Co75 Co 0.1984 0.60293 0.63933 0.0
O76 O 0.21624 0.62677 0.59581 0.0
C77 C 0.13879 0.60281 0.65813 0.0
C78 C 0.0963 0.53824 0.57528 0.0
C79 C 0.19879 0.62932 0.5719 0.0
O80 O 0.12685 0.58966 0.6288 0.0
O81 O 0.16598 0.60855 0.66758 0.0
O82 O 0.16376 0.55272 0.55996 0.0
O83 O 0.17315 0.56555 0.61609 0.0
Co84 Co 0.86018 0.34947 0.45667 0.0
O85 O 0.89782 0.35297 0.47781 0.0
O86 O 0.88616 0.39116 0.46205 0.0
C87 C 0.82804 0.31401 0.49299 0.0
O88 O 0.82471 0.35635 0.43677 0.0
Co89 Co 0.81377 0.29165 0.42138 0.0
O90 O 0.78569 0.31246 0.42488 0.0
C91 C 0.86909 0.32971 0.38217 0.0
C92 C 0.9055 0.38202 0.47596 0.0
C93 C 0.79685 0.34105 0.4289 0.0
O94 O 0.87636 0.34947 0.40727 0.0
O95 O 0.8463 0.30419 0.38407 0.0
O96 O 0.84063 0.34207 0.50316 0.0
O97 O 0.83819 0.30792 0.46355 0.0
Co98 Co 0.43018 0.8459 0.92233 0.0
O99 O 0.46973 0.8768 0.91492 0.0
O100 O 0.43267 0.88283 0.94409 0.0
C101 C 0.44521 0.8098 0.93938 0.0
O102 O 0.38721 0.81873 0.93685 0.0
Co103 Co 0.40742 0.78721 0.87717 0.0
O104 O 0.37653 0.77212 0.91553 0.0
C105 C 0.4116 0.84432 0.84525 0.0
C106 C 0.46058 0.89425 0.93312 0.0
C107 C 0.37076 0.79015 0.93594 0.0
O108 O 0.41585 0.85683 0.87611 0.0
O109 O 0.41066 0.81788 0.83965 0.0
O110 O 0.44468 0.82965 0.9623 0.0
O111 O 0.43965 0.8143 0.90684 0.0
Co112 Co 0.63022 0.46492 0.41885 0.0
O113 O 0.63485 0.50404 0.43565 0.0
O114 O 0.59447 0.46112 0.44404 0.0
C115 C 0.6749 0.46504 0.43444 0.0
O116 O 0.61758 0.42074 0.40711 0.0
Co117 Co 0.67034 0.45976 0.35703 0.0
O118 O 0.65019 0.41575 0.3676 0.0
C119 C 0.61977 0.47597 0.34066 0.0
C120 C 0.60764 0.49022 0.44832 0.0
C121 C 0.62756 0.40454 0.38848 0.0
O122 O 0.61137 0.47101 0.37332 0.0
O123 O 0.64463 0.47579 0.32934 0.0
O124 O 0.65382 0.4598 0.45819 0.0
O125 O 0.67026 0.47551 0.40442 0.0
Co126 Co 0.13575 0.64776 0.96689 0.0
O127 O 0.09739 0.64609 0.98383 0.0
O128 O 0.10829 0.60662 0.97242 0.0
C129 C 0.16654 0.68366 0.0038 0.0
O130 O 0.17132 0.63881 0.95181 0.0
Co131 Co 0.18604 0.70343 0.93258 0.0
O132 O 0.21236 0.68115 0.9407 0.0
C133 C 0.13199 0.66667 0.89048 0.0
C134 C 0.08876 0.61686 0.98305 0.0
C135 C 0.19974 0.65272 0.94589 0.0
O136 O 0.1227 0.64722 0.91588 0.0
O137 O 0.15542 0.6916 0.89311 0.0
O138 O 0.15265 0.65594 0.01484 0.0
O139 O 0.15856 0.68922 0.97275 0.0
Co140 Co 0.56768 0.14417 0.40579 0.0
O141 O 0.52816 0.11286 0.39787 0.0
O142 O 0.56054 0.11218 0.43938 0.0
C143 C 0.55337 0.18282 0.40285 0.0
O144 O 0.60927 0.17236 0.42385 0.0
Co145 Co 0.60067 0.19556 0.35175 0.0
O146 O 0.62444 0.21628 0.39421 0.0
C147 C 0.5995 0.13437 0.34079 0.0
C148 C 0.53406 0.09918 0.42467 0.0
C149 C 0.62659 0.20056 0.42038 0.0
O150 O 0.58591 0.12476 0.37061 0.0
O151 O 0.60587 0.16086 0.32833 0.0
O152 O 0.54992 0.1677 0.43231 0.0
O153 O 0.56307 0.17274 0.37603 0.0
Co154 Co 0.36319 0.52925 0.9285 0.0
O155 O 0.35876 0.48845 0.93706 0.0
O156 O 0.39901 0.53008 0.95082 0.0
C157 C 0.31808 0.52587 0.948 0.0
O158 O 0.37598 0.5744 0.9256 0.0
Co159 Co 0.32297 0.54403 0.87409 0.0
O160 O 0.33981 0.58428 0.89799 0.0
C161 C 0.37279 0.52942 0.84827 0.0
C162 C 0.38595 0.50076 0.95018 0.0
C163 C 0.36394 0.59253 0.91644 0.0
O164 O 0.38163 0.5293 0.88047 0.0
O165 O 0.34835 0.53219 0.84017 0.0
O166 O 0.33945 0.5288 0.9706 0.0
O167 O 0.32315 0.52032 0.9156 0.0
H168 H 0.56302 0.08767 0.29967 0.0
H169 H 0.70243 0.12872 0.17208 0.0
H170 H 0.65598 0.13827 0.3292 0.0
H171 H 0.60917 0.08761 0.13846 0.0
H172 H 0.68624 0.11447 0.23325 0.0
H173 H 0.57988 0.06991 0.24621 0.0
C174 C 0.58696 0.09382 0.29568 0.0
C175 C 0.60824 0.11445 0.3185 0.0
C176 C 0.66933 0.10793 0.21241 0.0
C177 C 0.6277 0.09531 0.25722 0.0
C178 C 0.67858 0.11607 0.17739 0.0
C179 C 0.65705 0.11033 0.15022 0.0
C180 C 0.63833 0.0944 0.22039 0.0
C181 C 0.62655 0.09318 0.15865 0.0
C182 C 0.59662 0.08397 0.26503 0.0
C183 C 0.63898 0.12233 0.31204 0.0
N184 N 0.61801 0.08653 0.19315 0.0
N185 N 0.64783 0.11322 0.2816 0.0
H186 H 0.44469 0.56023 0.6393 0.0
H187 H 0.43441 0.55478 0.85042 0.0
H188 H 0.49452 0.63575 0.70769 0.0
H189 H 0.35928 0.50962 0.77968 0.0
H190 H 0.46831 0.57013 0.7989 0.0
H191 H 0.4268 0.52812 0.69185 0.0
C192 C 0.45289 0.56983 0.66523 0.0
C193 C 0.47055 0.60092 0.66923 0.0
C194 C 0.44455 0.55604 0.79489 0.0
C195 C 0.45022 0.56424 0.72913 0.0
C196 C 0.4252 0.54716 0.82419 0.0
C197 C 0.39392 0.53136 0.81914 0.0
C198 C 0.43255 0.54855 0.76054 0.0
C199 C 0.3832 0.52221 0.7846 0.0
C200 C 0.44248 0.55148 0.69517 0.0
C201 C 0.48044 0.61203 0.7035 0.0
N202 N 0.40245 0.53125 0.7565 0.0
N203 N 0.4697 0.59379 0.73227 0.0
H204 H 0.90356 0.43357 0.19841 0.0
H205 H 0.86594 0.29337 0.32502 0.0
H206 H 0.85059 0.34083 0.16999 0.0
H207 H 0.90683 0.38644 0.35926 0.0
H208 H 0.87806 0.31007 0.26362 0.0
H209 H 0.92214 0.41634 0.25104 0.0
C210 C 0.89698 0.40958 0.20247 0.0
C211 C 0.87554 0.38849 0.18021 0.0
C212 C 0.88502 0.32683 0.28462 0.0
C213 C 0.89576 0.36865 0.24043 0.0
C214 C 0.87813 0.31729 0.31976 0.0
C215 C 0.88441 0.33859 0.34727 0.0
C216 C 0.89788 0.35788 0.27687 0.0
C217 C 0.90089 0.36922 0.33886 0.0
C218 C 0.90731 0.39972 0.23262 0.0
C219 C 0.86714 0.35768 0.18674 0.0
N220 N 0.90634 0.37802 0.30429 0.0
N221 N 0.87686 0.34866 0.21662 0.0
H222 H 0.36926 0.86786 0.83987 0.0
H223 H 0.39558 0.89344 0.63074 0.0
H224 H 0.43956 0.85495 0.78116 0.0
H225 H 0.30678 0.85625 0.67849 0.0
H226 H 0.41796 0.90065 0.6901 0.0
H227 H 0.35281 0.88392 0.78448 0.0
C228 C 0.38177 0.86936 0.81552 0.0
C229 C 0.40562 0.85999 0.81471 0.0
C230 C 0.39359 0.89165 0.6875 0.0
C231 C 0.38738 0.87851 0.75209 0.0
C232 C 0.38074 0.88765 0.65366 0.0
C233 C 0.3492 0.87357 0.6496 0.0
C234 C 0.37481 0.88192 0.71742 0.0
C235 C 0.3312 0.86665 0.68039 0.0
C236 C 0.37233 0.87833 0.78407 0.0
C237 C 0.42095 0.86188 0.78262 0.0
N238 N 0.34426 0.87049 0.71308 0.0
N239 N 0.41149 0.87082 0.75248 0.0
H240 H 0.62988 0.49794 0.27246 0.0
H241 H 0.49067 0.36384 0.21578 0.0
H242 H 0.55825 0.45206 0.34735 0.0
H243 H 0.53941 0.43471 0.1412 0.0
H244 H 0.50847 0.4004 0.26416 0.0
H245 H 0.59298 0.48188 0.22427 0.0
C246 C 0.60624 0.48527 0.27889 0.0
C247 C 0.59728 0.4756 0.31383 0.0
C248 C 0.51449 0.40824 0.23711 0.0
C249 C 0.55506 0.45642 0.25875 0.0
C250 C 0.50429 0.3873 0.20945 0.0
C251 C 0.5143 0.39603 0.17455 0.0
C252 C 0.53552 0.4378 0.22984 0.0
C253 C 0.53158 0.42683 0.16781 0.0
C254 C 0.58511 0.47611 0.25135 0.0
C255 C 0.56628 0.45958 0.3207 0.0
N256 N 0.54253 0.44643 0.19536 0.0
N257 N 0.5464 0.44961 0.29326 0.0
H258 H 0.14315 0.65934 0.67054 0.0
H259 H 0.09149 0.61103 0.86748 0.0
H260 H 0.09639 0.56699 0.70452 0.0
H261 H 0.14013 0.70307 0.83212 0.0
H262 H 0.07909 0.59546 0.80565 0.0
H263 H 0.12775 0.67621 0.72541 0.0
C264 C 0.12856 0.64261 0.68906 0.0
C265 C 0.1209 0.61184 0.68328 0.0
C266 C 0.0919 0.61917 0.81148 0.0
C267 C 0.10449 0.63079 0.74678 0.0
C268 C 0.09895 0.62812 0.84686 0.0
C269 C 0.11771 0.65829 0.85497 0.0
C270 C 0.10381 0.64051 0.7841 0.0
C271 C 0.12632 0.67943 0.8271 0.0
C272 C 0.11999 0.65219 0.72054 0.0
C273 C 0.1025 0.59094 0.70815 0.0
N274 N 0.11982 0.67004 0.7929 0.0
N275 N 0.09546 0.60083 0.73931 0.0
H276 H 0.6241 0.04866 0.98419 0.0
H277 H 0.44939 0.93611 0.97255 0.0
H278 H 0.55176 0.06839 0.02832 0.0
H279 H 0.5204 0.92177 0.91669 0.0
H280 H 0.48663 0.98487 0.99332 0.0
H281 H 0.58647 0.00143 0.96 0.0
C282 C 0.60034 0.043 0.98886 0.0
C283 C 0.591 0.06237 0.00826 0.0
C284 C 0.49401 0.97112 0.97632 0.0
C285 C 0.54796 0.0087 0.9807 0.0
C286 C 0.47275 0.94336 0.96441 0.0
C287 C 0.48189 0.92489 0.94304 0.0
C288 C 0.52457 0.98028 0.96692 0.0
C289 C 0.51242 0.9353 0.93325 0.0
C290 C 0.57887 0.01616 0.97494 0.0
C291 C 0.55994 0.05408 0.01347 0.0
N292 N 0.53272 0.96224 0.94547 0.0
N293 N 0.53953 0.02784 -0.00019 0.0
H294 H 0.4667 0.54331 0.51717 0.0
H295 H 0.62892 0.55096 0.46103 0.0
H296 H 0.54856 0.62501 0.52152 0.0
H297 H 0.54906 0.46781 0.47079 0.0
H298 H 0.59985 0.57881 0.48217 0.0
H299 H 0.49635 0.51557 0.49784 0.0
C300 C 0.49089 0.55544 0.51385 0.0
C301 C 0.50522 0.58647 0.52093 0.0
C302 C 0.58875 0.55445 0.47988 0.0
C303 C 0.53928 0.55491 0.4991 0.0
C304 C 0.60535 0.53855 0.46791 0.0
C305 C 0.59134 0.50706 0.46411 0.0
C306 C 0.55793 0.53872 0.48784 0.0
C307 C 0.56074 0.49209 0.47334 0.0
C308 C 0.50783 0.53957 0.503 0.0
C309 C 0.53662 0.60106 0.51634 0.0
N310 N 0.54501 0.50809 0.48459 0.0
N311 N 0.55263 0.58513 0.5057 0.0
H312 H 0.04642 0.62898 0.02092 0.0
H313 H 0.92939 0.45553 0.02395 0.0
H314 H 0.06249 0.5565 0.97121 0.0
H315 H 0.92156 0.52291 0.09354 0.0
H316 H 0.97598 0.49372 -0.00017 0.0
H317 H -0.00228 0.5918 0.04292 0.0
C318 C 0.03958 0.60533 0.01442 0.0
C319 C 0.05849 0.59571 0.99445 0.0
C320 C 0.96413 0.50017 0.02044 0.0
C321 C 0.00327 0.55336 0.01936 0.0
C322 C 0.93755 0.47836 0.03424 0.0
C323 C 0.92171 0.48608 0.06086 0.0
C324 C 0.97485 0.52996 0.0332 0.0
C325 C 0.93323 0.51602 0.07315 0.0
C326 C 0.01195 0.58416 0.0271 0.0
C327 C 0.04869 0.56485 0.98678 0.0
N328 N 0.95914 0.53696 0.05914 0.0
N329 N 0.02178 0.54479 0.99927 0.0
H330 H 0.54176 0.06275 0.47542 0.0
H331 H 0.36703 0.94999 0.48404 0.0
H332 H 0.4742 0.07175 0.40706 0.0
H333 H 0.43937 0.93014 0.52788 0.0
H334 H 0.40476 -0.00168 0.46173 0.0
H335 H 0.50306 0.01699 0.5007 0.0
C336 C 0.51878 0.05502 0.46565 0.0
C337 C 0.51115 0.0709 0.439 0.0
C338 C 0.41224 0.98334 0.47636 0.0
C339 C 0.46675 0.01881 0.46801 0.0
C340 C 0.39078 0.95595 0.48923 0.0
C341 C 0.4002 0.93608 0.50754 0.0
C342 C 0.44312 0.99082 0.48234 0.0
C343 C 0.43118 0.94471 0.51356 0.0
C344 C 0.4967 0.02894 0.4801 0.0
C345 C 0.48102 0.05999 0.42742 0.0
N346 N 0.45152 0.97142 0.50096 0.0
N347 N 0.45983 0.03458 0.44208 0.0
H348 H 0.36407 0.43915 0.95665 0.0
H349 H 0.52437 0.44284 0.01505 0.0
H350 H 0.44481 0.52087 0.97054 0.0
H351 H 0.44107 0.36304 0.02395 0.0
H352 H 0.49608 0.47044 0.99138 0.0
H353 H 0.3924 0.40961 0.97522 0.0
C354 C 0.38771 0.45085 0.96367 0.0
C355 C 0.40212 0.48247 0.96223 0.0
C356 C 0.48398 0.44685 0.99837 0.0
C357 C 0.43457 0.44897 0.98302 0.0
C358 C 0.50014 0.43105 0.01173 0.0
C359 C 0.48498 0.40068 0.02168 0.0
C360 C 0.45245 0.43217 0.99485 0.0
C361 C 0.45358 0.3865 0.01675 0.0
C362 C 0.40384 0.43401 0.97421 0.0
C363 C 0.43277 0.49653 0.97147 0.0
N364 N 0.43828 0.40243 0.00378 0.0
N365 N 0.44798 0.47968 0.9814 0.0
H366 H 0.94728 0.37146 0.51672 0.0
H367 H 0.05751 0.54677 0.52847 0.0
H368 H 0.92904 0.44293 0.46758 0.0
H369 H 0.06901 0.47839 0.59295 0.0
H370 H 0.01122 0.50833 0.50408 0.0
H371 H 0.99361 0.40965 0.54248 0.0
C372 C 0.95313 0.39513 0.51119 0.0
C373 C 0.93435 0.4041 0.49008 0.0
C374 C 0.02376 0.50172 0.5237 0.0
C375 C 0.9869 0.44766 0.51941 0.0
C376 C 0.05016 0.52367 0.53767 0.0
C377 C 0.06707 0.51571 0.56271 0.0
C378 C 0.01433 0.47153 0.53467 0.0
C379 C 0.05654 0.48546 0.57372 0.0
C380 C 0.97941 0.41688 0.52603 0.0
C381 C 0.94283 0.43502 0.48382 0.0
N382 N 0.03087 0.46437 0.55944 0.0
N383 N 0.96848 0.45567 0.49841 0.0
H384 H 0.67232 0.25919 0.05372 0.0
H385 H 0.51426 0.26713 0.09549 0.0
H386 H 0.59499 0.18243 0.09195 0.0
H387 H 0.5762 0.32388 0.01669 0.0
H388 H 0.54619 0.23901 0.10179 0.0
H389 H 0.64053 0.28782 0.04891 0.0
C390 C 0.64884 0.24863 0.06166 0.0
C391 C 0.63619 0.21848 0.07307 0.0
C392 C 0.55258 0.25743 0.08286 0.0
C393 C 0.59987 0.25069 0.06761 0.0
C394 C 0.53428 0.27328 0.07909 0.0
C395 C 0.54241 0.29756 0.05525 0.0
C396 C 0.5795 0.26637 0.06322 0.0
C397 C 0.56884 0.30497 0.03498 0.0
C398 C 0.63067 0.26476 0.05857 0.0
C399 C 0.60556 0.20561 0.08282 0.0
N400 N 0.58666 0.28964 0.03971 0.0
N401 N 0.58844 0.22178 0.0799 0.0
H402 H 0.36723 0.59436 0.53228 0.0
H403 H 0.21479 0.55115 0.64236 0.0
H404 H 0.36181 0.62438 0.63913 0.0
H405 H 0.21591 0.56082 0.52818 0.0
H406 H 0.26874 0.56314 0.6413 0.0
H407 H 0.31162 0.56941 0.53042 0.0
C408 C 0.35433 0.59547 0.55537 0.0
C409 C 0.36894 0.61152 0.58586 0.0
C410 C 0.2571 0.5622 0.6164 0.0
C411 C 0.30607 0.58274 0.58413 0.0
C412 C 0.22633 0.55521 0.61695 0.0
C413 C 0.2111 0.55551 0.58536 0.0
C414 C 0.27279 0.56957 0.58406 0.0
C415 C 0.22698 0.56053 0.55311 0.0
C416 C 0.32278 0.58133 0.55424 0.0
C417 C 0.35137 0.61248 0.61501 0.0
N418 N 0.25728 0.56786 0.55328 0.0
N419 N 0.32086 0.59817 0.61347 0.0
H420 H 0.73213 0.34761 0.05509 0.0
H421 H 0.66379 0.21123 0.97415 0.0
H422 H 0.81704 0.33976 0.04074 0.0
H423 H 0.74128 0.19867 0.01456 0.0
H424 H 0.69286 0.26593 0.97633 0.0
H425 H 0.70707 0.30182 0.02018 0.0
C426 C 0.74554 0.3364 0.04405 0.0
C427 C 0.77655 0.34709 0.05128 0.0
C428 C 0.70367 0.25122 0.98421 0.0
C429 C 0.74806 0.29444 0.0114 0.0
C430 C 0.68724 0.21995 0.98236 0.0
C431 C 0.7 0.2005 0.99505 0.0
C432 C 0.73287 0.26284 0.99898 0.0
C433 C 0.73048 0.213 0.00524 0.0
C434 C 0.73128 0.31036 0.02375 0.0
C435 C 0.793 0.33206 0.03598 0.0
N436 N 0.74573 0.24343 0.00764 0.0
N437 N 0.7784 0.306 0.01756 0.0
H438 H 0.40091 0.81285 0.56624 0.0
H439 H 0.41255 0.66181 0.50013 0.0
H440 H 0.32196 0.73397 0.53604 0.0
H441 H 0.47768 0.72578 0.57055 0.0
H442 H 0.38193 0.69155 0.5031 0.0
H443 H 0.43178 0.78413 0.55918 0.0
C444 C 0.39004 0.78937 0.55823 0.0
C445 C 0.35882 0.7757 0.55179 0.0
C446 C 0.40312 0.69921 0.5175 0.0
C447 C 0.39421 0.74283 0.54315 0.0
C448 C 0.42082 0.68257 0.5154 0.0
C449 C 0.44782 0.69161 0.53491 0.0
C450 C 0.41281 0.72524 0.53875 0.0
C451 C 0.45711 0.71821 0.55496 0.0
C452 C 0.4077 0.77302 0.55422 0.0
C453 C 0.34592 0.74521 0.54156 0.0
N454 N 0.43963 0.73412 0.55636 0.0
N455 N 0.36378 0.72977 0.53725 0.0
H456 H 0.62607 0.36642 0.15475 0.0
H457 H 0.77221 0.44105 0.03659 0.0
H458 H 0.62095 0.39974 0.04949 0.0
H459 H 0.77406 0.44188 0.1514 0.0
H460 H 0.71723 0.42574 0.0387 0.0
H461 H 0.681 0.39201 0.15217 0.0
C462 C 0.63654 0.37914 0.13108 0.0
C463 C 0.61899 0.38096 0.10228 0.0
C464 C 0.72987 0.4299 0.06334 0.0
C465 C 0.68183 0.41025 0.0991 0.0
C466 C 0.76118 0.43877 0.06216 0.0
C467 C 0.77753 0.44234 0.09389 0.0
C468 C 0.7151 0.42434 0.09644 0.0
C469 C 0.7622 0.43895 0.12631 0.0
C470 C 0.66787 0.39395 0.12973 0.0
C471 C 0.63373 0.39792 0.07233 0.0
N472 N 0.73178 0.42967 0.12676 0.0
N473 N 0.66441 0.41171 0.07133 0.0
H474 H 0.16876 0.65858 0.53733 0.0
H475 H 0.32227 0.78755 0.46782 0.0
H476 H 0.257 0.65731 0.54823 0.0
H477 H 0.2471 0.80415 0.50835 0.0
H478 H 0.2914 0.73314 0.47123 0.0
H479 H 0.19141 0.70514 0.50227 0.0
C480 C 0.19277 0.66772 0.53171 0.0
C481 C 0.2112 0.65452 0.54633 0.0
C482 C 0.28134 0.74876 0.47802 0.0
C483 C 0.23692 0.70716 0.50583 0.0
C484 C 0.29879 0.7798 0.47568 0.0
C485 C 0.28724 0.80021 0.48839 0.0
C486 C 0.25215 0.73838 0.49252 0.0
C487 C 0.25683 0.78899 0.49873 0.0
C488 C 0.2056 0.6942 0.5117 0.0
C489 C 0.24213 0.66719 0.53808 0.0
N490 N 0.24042 0.75872 0.5012 0.0
N491 N 0.25409 0.693 0.51862 0.0
H492 H 0.73643 0.32139 0.44455 0.0
H493 H 0.72623 0.4771 0.39591 0.0
H494 H 0.81353 0.39923 0.40773 0.0
H495 H 0.66912 0.41646 0.47549 0.0
H496 H 0.75541 0.44596 0.39248 0.0
H497 H 0.70712 0.3526 0.44715 0.0
C498 C 0.747 0.34487 0.43652 0.0
C499 C 0.77742 0.35783 0.42607 0.0
C500 C 0.73667 0.4397 0.41094 0.0
C501 C 0.74428 0.39342 0.42896 0.0
C502 C 0.72019 0.45753 0.41306 0.0
C503 C 0.69554 0.44955 0.43633 0.0
C504 C 0.72795 0.41335 0.43163 0.0
C505 C 0.6883 0.4237 0.45762 0.0
C506 C 0.73042 0.3627 0.43835 0.0
C507 C 0.79016 0.38843 0.41616 0.0
N508 N 0.70424 0.4063 0.45447 0.0
N509 N 0.77352 0.40517 0.41778 0.0
H510 H 0.3392 0.81999 0.96625 0.0
H511 H 0.20862 0.66641 0.03339 0.0
H512 H 0.34139 0.73192 0.95902 0.0
H513 H 0.19408 0.74481 0.00066 0.0
H514 H 0.26323 0.69614 0.02963 0.0
H515 H 0.29193 0.79755 2e-05 0.0
C516 C 0.32996 0.79603 0.97214 0.0
C517 C 0.3438 0.77763 0.95906 0.0
C518 C 0.24807 0.70709 0.02451 0.0
C519 C 0.29026 0.75209 0.99816 0.0
C520 C 0.21691 0.69027 0.02716 0.0
C521 C 0.19695 0.70315 0.01668 0.0
C522 C 0.25903 0.73691 0.01174 0.0
C523 C 0.20886 0.73403 0.00845 0.0
C524 C 0.30309 0.7833 0.99148 0.0
C525 C 0.33104 0.74679 0.96782 0.0
N526 N 0.2392 0.74978 0.00543 0.0
N527 N 0.30483 0.73493 0.98657 0.0
H528 H 0.55344 0.21483 0.34398 0.0
H529 H 0.59448 0.3714 0.4445 0.0
H530 H 0.55671 0.22091 0.45858 0.0
H531 H 0.62518 0.36257 0.33899 0.0
H532 H 0.56943 0.31609 0.44875 0.0
H533 H 0.56672 0.26895 0.34056 0.0
C534 C 0.55642 0.22752 0.36848 0.0
C535 C 0.55446 0.21357 0.40161 0.0
C536 C 0.58153 0.3264 0.42467 0.0
C537 C 0.56996 0.27546 0.39782 0.0
C538 C 0.59575 0.35783 0.42217 0.0
C539 C 0.612 0.37147 0.39138 0.0
C540 C 0.58317 0.30871 0.39591 0.0
C541 C 0.61312 0.35295 0.3633 0.0
C542 C 0.56416 0.25839 0.36648 0.0
C543 C 0.55816 0.23093 0.43252 0.0
N544 N 0.5988 0.32249 0.36622 0.0
N545 N 0.56617 0.26124 0.4299 0.0
H546 H 0.25975 0.6702 0.96341 0.0
H547 H 0.26427 0.51283 0.9153 0.0
H548 H 0.18037 0.59321 0.92971 0.0
H549 H 0.32436 0.57198 0.99375 0.0
H550 H 0.23497 0.54378 0.91583 0.0
H551 H 0.28697 0.63707 0.96869 0.0
C552 C 0.24819 0.64647 0.9568 0.0
C553 C 0.2178 0.6344 0.94611 0.0
C554 C 0.25426 0.54969 0.93339 0.0
C555 C 0.24853 0.59665 0.95217 0.0
C556 C 0.27079 0.5319 0.9333 0.0
C557 C 0.29652 0.5397 0.95475 0.0
C558 C 0.264 0.5759 0.95441 0.0
C559 C 0.30436 0.56493 0.97722 0.0
C560 C 0.26357 0.62757 0.9602 0.0
C561 C 0.20376 0.60343 0.93817 0.0
N562 N 0.28845 0.5825 0.97603 0.0
N563 N 0.21927 0.58569 0.94116 0.0
H564 H 0.65571 0.17303 0.45982 0.0
H565 H 0.78441 0.33087 0.51865 0.0
H566 H 0.65459 0.26016 0.43851 0.0
H567 H 0.80113 0.2527 0.49045 0.0
H568 H 0.73001 0.30012 0.51451 0.0
H569 H 0.70217 0.19808 0.49456 0.0
C570 C 0.66487 0.19734 0.46308 0.0
C571 C 0.65172 0.21467 0.44569 0.0
C572 C 0.74562 0.2895 0.51051 0.0
C573 C 0.70425 0.24317 0.48575 0.0
C574 C 0.77664 0.30692 0.51326 0.0
C575 C 0.79718 0.2943 0.5043 0.0
C576 C 0.73532 0.25933 0.49925 0.0
C577 C 0.78591 0.26326 0.49709 0.0
C578 C 0.6913 0.21155 0.48288 0.0
C579 C 0.66442 0.24606 0.45089 0.0
N580 N 0.75566 0.24688 0.49409 0.0
N581 N 0.69016 0.25936 0.47023 0.0
H582 H 0.42432 0.62555 0.92402 0.0
H583 H 0.40889 0.77427 0.99119 0.0
H584 H 0.33795 0.63105 0.9351 0.0
H585 H 0.47255 0.77661 0.90981 0.0
H586 H 0.39093 0.71898 0.99373 0.0
H587 H 0.44954 0.679 0.94085 0.0
C588 C 0.4107 0.63795 0.9304 0.0
C589 C 0.37909 0.62421 0.92768 0.0
C590 C 0.40956 0.73184 0.9763 0.0
C591 C 0.40762 0.68446 0.94801 0.0
C592 C 0.42002 0.76325 0.97512 0.0
C593 C 0.44207 0.77966 0.95013 0.0
C594 C 0.42204 0.71728 0.95315 0.0
C595 C 0.45546 0.7645 0.92934 0.0
C596 C 0.42507 0.66823 0.94008 0.0
C597 C 0.3624 0.64109 0.93633 0.0
N598 N 0.44508 0.73398 0.93112 0.0
N599 N 0.37692 0.67049 0.94616 0.0
loop_
_geom_bond_atom_site_label_1
_geom_bond_atom_site_label_2
_geom_bond_distance
_geom_bond_site_symmetry_2
_ccdc_geom_bond_type
Co0 O1 2.216 . S
Co0 O2 2.091 . S
Co0 O4 2.004 . S
Co0 O10 2.021 . S
Co0 O12 2.133 1_554 S
Co0 O13 2.244 . S
O1 Co0 2.216 . S
O1 C8 1.247 . S
O2 Co0 2.091 . S
O2 C8 1.261 . S
C3 O12 1.243 1_554 S
C3 O13 1.272 . S
O4 Co0 2.004 . S
O4 C9 1.259 . S
Co5 O6 2.061 . S
Co5 O11 2.052 . S
Co5 O13 2.135 . S
O6 Co5 2.061 . S
O6 C9 1.235 . S
C7 O10 1.238 . S
C7 O11 1.241 . S
C8 O1 1.247 . S
C8 O2 1.261 . S
C9 O4 1.259 . S
C9 O6 1.235 . S
O10 Co0 2.021 . S
O10 C7 1.238 . S
O11 Co5 2.052 . S
O11 C7 1.241 . S
O12 Co0 2.133 1_556 S
O12 C3 1.243 1_556 S
O13 Co0 2.244 . S
O13 C3 1.272 . S
O13 Co5 2.135 . S
Co14 O15 2.216 . S
Co14 O16 2.091 . S
Co14 O18 2.004 . S
Co14 O24 2.021 . S
Co14 O26 2.137 . S
Co14 O27 2.244 . S
O15 Co14 2.216 . S
O15 C22 1.247 . S
O16 Co14 2.091 . S
O16 C22 1.261 . S
C17 O26 1.247 . S
C17 O27 1.272 . S
O18 Co14 2.004 . S
O18 C23 1.259 . S
Co19 O20 2.061 . S
Co19 O25 2.052 . S
Co19 O27 2.135 . S
O20 Co19 2.061 . S
O20 C23 1.235 . S
C21 O24 1.238 . S
C21 O25 1.241 . S
C22 O15 1.247 . S
C22 O16 1.261 . S
C23 O18 1.259 . S
C23 O20 1.235 . S
O24 Co14 2.021 . S
O24 C21 1.238 . S
O25 Co19 2.052 . S
O25 C21 1.241 . S
O26 Co14 2.137 . S
O26 C17 1.247 . S
O27 Co14 2.244 . S
O27 C17 1.272 . S
O27 Co19 2.135 . S
Co28 O29 2.216 . S
Co28 O30 2.091 . S
Co28 O32 2.004 . S
Co28 O38 2.021 . S
Co28 O40 2.137 . S
Co28 O41 2.244 . S
O29 Co28 2.216 . S
O29 C36 1.247 . S
O30 Co28 2.091 . S
O30 C36 1.261 . S
C31 O40 1.247 . S
C31 O41 1.272 . S
O32 Co28 2.004 . S
O32 C37 1.259 . S
Co33 O34 2.061 . S
Co33 O39 2.052 . S
Co33 O41 2.135 . S
O34 Co33 2.061 . S
O34 C37 1.235 . S
C35 O38 1.238 . S
C35 O39 1.241 . S
C36 O29 1.247 . S
C36 O30 1.261 . S
C37 O32 1.259 . S
C37 O34 1.235 . S
O38 Co28 2.021 . S
O38 C35 1.238 . S
O39 Co33 2.052 . S
O39 C35 1.241 . S
O40 Co28 2.137 . S
O40 C31 1.247 . S
O41 Co28 2.244 . S
O41 C31 1.272 . S
O41 Co33 2.135 . S
Co42 O43 2.216 . S
Co42 O44 2.091 . S
Co42 O46 2.004 . S
Co42 O52 2.021 . S
Co42 O54 2.137 . S
Co42 O55 2.244 . S
O43 Co42 2.216 . S
O43 C50 1.247 . S
O44 Co42 2.091 . S
O44 C50 1.261 . S
C45 O54 1.247 . S
C45 O55 1.272 . S
O46 Co42 2.004 . S
O46 C51 1.259 . S
Co47 O48 2.061 . S
Co47 O53 2.052 . S
Co47 O55 2.135 . S
O48 Co47 2.061 . S
O48 C51 1.235 . S
C49 O52 1.238 . S
C49 O53 1.241 . S
C50 O43 1.247 . S
C50 O44 1.261 . S
C51 O46 1.259 . S
C51 O48 1.235 . S
O52 Co42 2.021 . S
O52 C49 1.238 . S
O53 Co47 2.052 . S
O53 C49 1.241 . S
O54 Co42 2.137 . S
O54 C45 1.247 . S
O55 Co42 2.244 . S
O55 C45 1.272 . S
O55 Co47 2.135 . S
Co56 O57 2.216 . S
Co56 O58 2.091 . S
Co56 O60 2.004 . S
Co56 O66 2.021 . S
Co56 O68 2.137 . S
Co56 O69 2.244 . S
O57 Co56 2.216 . S
O57 C64 1.247 . S
O58 Co56 2.091 . S
O58 C64 1.261 . S
C59 O68 1.247 . S
C59 O69 1.272 . S
O60 Co56 2.004 . S
O60 C65 1.259 . S
Co61 O62 2.061 . S
Co61 O67 2.052 . S
Co61 O69 2.135 . S
O62 Co61 2.061 . S
O62 C65 1.235 . S
C63 O66 1.238 . S
C63 O67 1.241 . S
C64 O57 1.247 . S
C64 O58 1.261 . S
C65 O60 1.259 . S
C65 O62 1.235 . S
O66 Co56 2.021 . S
O66 C63 1.238 . S
O67 Co61 2.052 . S
O67 C63 1.241 . S
O68 Co56 2.137 . S
O68 C59 1.247 . S
O69 Co56 2.244 . S
O69 C59 1.272 . S
O69 Co61 2.135 . S
Co70 O71 2.216 . S
Co70 O72 2.091 . S
Co70 O74 2.004 . S
Co70 O80 2.021 . S
Co70 O82 2.137 . S
Co70 O83 2.244 . S
O71 Co70 2.216 . S
O71 C78 1.247 . S
O72 Co70 2.091 . S
O72 C78 1.261 . S
C73 O82 1.247 . S
C73 O83 1.272 . S
O74 Co70 2.004 . S
O74 C79 1.259 . S
Co75 O76 2.061 . S
Co75 O81 2.052 . S
Co75 O83 2.135 . S
O76 Co75 2.061 . S
O76 C79 1.235 . S
C77 O80 1.238 . S
C77 O81 1.241 . S
C78 O71 1.247 . S
C78 O72 1.261 . S
C79 O74 1.259 . S
C79 O76 1.235 . S
O80 Co70 2.021 . S
O80 C77 1.238 . S
O81 Co75 2.052 . S
O81 C77 1.241 . S
O82 Co70 2.137 . S
O82 C73 1.247 . S
O83 Co70 2.244 . S
O83 C73 1.272 . S
O83 Co75 2.135 . S
Co84 O85 2.216 . S
Co84 O86 2.091 . S
Co84 O88 2.004 . S
Co84 O94 2.021 . S
Co84 O96 2.137 . S
Co84 O97 2.244 . S
O85 Co84 2.216 . S
O85 C92 1.247 . S
O86 Co84 2.091 . S
O86 C92 1.261 . S
C87 O96 1.247 . S
C87 O97 1.272 . S
O88 Co84 2.004 . S
O88 C93 1.259 . S
Co89 O90 2.061 . S
Co89 O95 2.052 . S
Co89 O97 2.135 . S
O90 Co89 2.061 . S
O90 C93 1.235 . S
C91 O94 1.238 . S
C91 O95 1.241 . S
C92 O85 1.247 . S
C92 O86 1.261 . S
C93 O88 1.259 . S
C93 O90 1.235 . S
O94 Co84 2.021 . S
O94 C91 1.238 . S
O95 Co89 2.052 . S
O95 C91 1.241 . S
O96 Co84 2.137 . S
O96 C87 1.247 . S
O97 Co84 2.244 . S
O97 C87 1.272 . S
O97 Co89 2.135 . S
Co98 O99 2.216 . S
Co98 O100 2.091 . S
Co98 O102 2.004 . S
Co98 O108 2.021 . S
Co98 O110 2.137 . S
Co98 O111 2.244 . S
O99 Co98 2.216 . S
O99 C106 1.247 . S
O100 Co98 2.091 . S
O100 C106 1.261 . S
C101 O110 1.247 . S
C101 O111 1.272 . S
O102 Co98 2.004 . S
O102 C107 1.259 . S
Co103 O104 2.061 . S
Co103 O109 2.052 . S
Co103 O111 2.135 . S
O104 Co103 2.061 . S
O104 C107 1.235 . S
C105 O108 1.238 . S
C105 O109 1.241 . S
C106 O99 1.247 . S
C106 O100 1.261 . S
C107 O102 1.259 . S
C107 O104 1.235 . S
O108 Co98 2.021 . S
O108 C105 1.238 . S
O109 Co103 2.052 . S
O109 C105 1.241 . S
O110 Co98 2.137 . S
O110 C101 1.247 . S
O111 Co98 2.244 . S
O111 C101 1.272 . S
O111 Co103 2.135 . S
Co112 O113 2.216 . S
Co112 O114 2.091 . S
Co112 O116 2.004 . S
Co112 O122 2.021 . S
Co112 O124 2.137 . S
Co112 O125 2.244 . S
O113 Co112 2.216 . S
O113 C120 1.247 . S
O114 Co112 2.091 . S
O114 C120 1.261 . S
C115 O124 1.247 . S
C115 O125 1.272 . S
O116 Co112 2.004 . S
O116 C121 1.259 . S
Co117 O118 2.061 . S
Co117 O123 2.052 . S
Co117 O125 2.135 . S
O118 Co117 2.061 . S
O118 C121 1.235 . S
C119 O122 1.238 . S
C119 O123 1.241 . S
C120 O113 1.247 . S
C120 O114 1.261 . S
C121 O116 1.259 . S
C121 O118 1.235 . S
O122 Co112 2.021 . S
O122 C119 1.238 . S
O123 Co117 2.052 . S
O123 C119 1.241 . S
O124 Co112 2.137 . S
O124 C115 1.247 . S
O125 Co112 2.244 . S
O125 C115 1.272 . S
O125 Co117 2.135 . S
Co126 O127 2.216 . S
Co126 O128 2.091 . S
Co126 O130 2.004 . S
Co126 O136 2.021 . S
Co126 O138 2.133 1_556 S
Co126 O139 2.244 . S
O127 Co126 2.216 . S
O127 C134 1.247 . S
O128 Co126 2.091 . S
O128 C134 1.261 . S
C129 O138 1.243 1_556 S
C129 O139 1.272 . S
O130 Co126 2.004 . S
O130 C135 1.259 . S
Co131 O132 2.061 . S
Co131 O137 2.052 . S
Co131 O139 2.135 . S
O132 Co131 2.061 . S
O132 C135 1.235 . S
C133 O136 1.238 . S
C133 O137 1.241 . S
C134 O127 1.247 . S
C134 O128 1.261 . S
C135 O130 1.259 . S
C135 O132 1.235 . S
O136 Co126 2.021 . S
O136 C133 1.238 . S
O137 Co131 2.052 . S
O137 C133 1.241 . S
O138 Co126 2.133 1_554 S
O138 C129 1.243 1_554 S
O139 Co126 2.244 . S
O139 C129 1.272 . S
O139 Co131 2.135 . S
Co140 O141 2.216 . S
Co140 O142 2.091 . S
Co140 O144 2.004 . S
Co140 O150 2.021 . S
Co140 O152 2.137 . S
Co140 O153 2.244 . S
O141 Co140 2.216 . S
O141 C148 1.247 . S
O142 Co140 2.091 . S
O142 C148 1.261 . S
C143 O152 1.247 . S
C143 O153 1.272 . S
O144 Co140 2.004 . S
O144 C149 1.259 . S
Co145 O146 2.061 . S
Co145 O151 2.052 . S
Co145 O153 2.135 . S
O146 Co145 2.061 . S
O146 C149 1.235 . S
C147 O150 1.238 . S
C147 O151 1.241 . S
C148 O141 1.247 . S
C148 O142 1.261 . S
C149 O144 1.259 . S
C149 O146 1.235 . S
O150 Co140 2.021 . S
O150 C147 1.238 . S
O151 Co145 2.052 . S
O151 C147 1.241 . S
O152 Co140 2.137 . S
O152 C143 1.247 . S
O153 Co140 2.244 . S
O153 C143 1.272 . S
O153 Co145 2.135 . S
Co154 O155 2.216 . S
Co154 O156 2.091 . S
Co154 O158 2.004 . S
Co154 O164 2.021 . S
Co154 O166 2.137 . S
Co154 O167 2.244 . S
O155 Co154 2.216 . S
O155 C162 1.247 . S
O156 Co154 2.091 . S
O156 C162 1.261 . S
C157 O166 1.247 . S
C157 O167 1.272 . S
O158 Co154 2.004 . S
O158 C163 1.259 . S
Co159 O160 2.061 . S
Co159 O165 2.052 . S
Co159 O167 2.135 . S
O160 Co159 2.061 . S
O160 C163 1.235 . S
C161 O164 1.238 . S
C161 O165 1.241 . S
C162 O155 1.247 . S
C162 O156 1.261 . S
C163 O158 1.259 . S
C163 O160 1.235 . S
O164 Co154 2.021 . S
O164 C161 1.238 . S
O165 Co159 2.052 . S
O165 C161 1.241 . S
O166 Co154 2.137 . S
O166 C157 1.247 . S
O167 Co154 2.244 . S
O167 C157 1.272 . S
O167 Co159 2.135 . S
H168 C174 0.930 . S
H169 C178 0.930 . S
H170 C183 0.929 . S
H171 C181 0.929 . S
H172 C176 0.929 . S
H173 C182 0.929 . S
C174 H168 0.930 . S
C174 C175 1.367 . S
C174 C182 1.378 . S
C175 C174 1.367 . S
C175 C183 1.433 . S
C176 H172 0.929 . S
C176 C178 1.378 . S
C176 C180 1.350 . S
C177 C180 1.463 . S
C177 C182 1.350 . S
C177 N185 1.427 . S
C178 H169 0.930 . S
C178 C176 1.378 . S
C178 C179 1.367 . S
C179 C178 1.367 . S
C179 C181 1.433 . S
C180 C176 1.350 . S
C180 C177 1.463 . S
C180 N184 1.427 . S
C181 H171 0.929 . S
C181 C179 1.433 . S
C181 N184 1.384 . S
C182 H173 0.929 . S
C182 C174 1.378 . S
C182 C177 1.350 . S
C183 H170 0.929 . S
C183 C175 1.433 . S
C183 N185 1.384 . S
N184 C180 1.427 . S
N184 C181 1.384 . S
N185 C177 1.427 . S
N185 C183 1.384 . S
H186 C192 0.930 . S
H187 C196 0.930 . S
H188 C201 0.929 . S
H189 C199 0.929 . S
H190 C194 0.929 . S
H191 C200 0.929 . S
C192 H186 0.930 . S
C192 C193 1.367 . S
C192 C200 1.378 . S
C193 C192 1.367 . S
C193 C201 1.433 . S
C194 H190 0.929 . S
C194 C196 1.378 . S
C194 C198 1.350 . S
C195 C198 1.463 . S
C195 C200 1.350 . S
C195 N203 1.427 . S
C196 H187 0.930 . S
C196 C194 1.378 . S
C196 C197 1.367 . S
C197 C196 1.367 . S
C197 C199 1.433 . S
C198 C194 1.350 . S
C198 C195 1.463 . S
C198 N202 1.427 . S
C199 H189 0.929 . S
C199 C197 1.433 . S
C199 N202 1.384 . S
C200 H191 0.929 . S
C200 C192 1.378 . S
C200 C195 1.350 . S
C201 H188 0.929 . S
C201 C193 1.433 . S
C201 N203 1.384 . S
N202 C198 1.427 . S
N202 C199 1.384 . S
N203 C195 1.427 . S
N203 C201 1.384 . S
H204 C210 0.930 . S
H205 C214 0.930 . S
H206 C219 0.929 . S
H207 C217 0.929 . S
H208 C212 0.929 . S
H209 C218 0.929 . S
C210 H204 0.930 . S
C210 C211 1.367 . S
C210 C218 1.378 . S
C211 C210 1.367 . S
C211 C219 1.433 . S
C212 H208 0.929 . S
C212 C214 1.378 . S
C212 C216 1.350 . S
C213 C216 1.463 . S
C213 C218 1.350 . S
C213 N221 1.427 . S
C214 H205 0.930 . S
C214 C212 1.378 . S
C214 C215 1.367 . S
C215 C214 1.367 . S
C215 C217 1.433 . S
C216 C212 1.350 . S
C216 C213 1.463 . S
C216 N220 1.427 . S
C217 H207 0.929 . S
C217 C215 1.433 . S
C217 N220 1.384 . S
C218 H209 0.929 . S
C218 C210 1.378 . S
C218 C213 1.350 . S
C219 H206 0.929 . S
C219 C211 1.433 . S
C219 N221 1.384 . S
N220 C216 1.427 . S
N220 C217 1.384 . S
N221 C213 1.427 . S
N221 C219 1.384 . S
H222 C228 0.930 . S
H223 C232 0.930 . S
H224 C237 0.929 . S
H225 C235 0.929 . S
H226 C230 0.929 . S
H227 C236 0.929 . S
C228 H222 0.930 . S
C228 C229 1.367 . S
C228 C236 1.378 . S
C229 C228 1.367 . S
C229 C237 1.433 . S
C230 H226 0.929 . S
C230 C232 1.378 . S
C230 C234 1.350 . S
C231 C234 1.463 . S
C231 C236 1.350 . S
C231 N239 1.427 . S
C232 H223 0.930 . S
C232 C230 1.378 . S
C232 C233 1.367 . S
C233 C232 1.367 . S
C233 C235 1.433 . S
C234 C230 1.350 . S
C234 C231 1.463 . S
C234 N238 1.427 . S
C235 H225 0.929 . S
C235 C233 1.433 . S
C235 N238 1.384 . S
C236 H227 0.929 . S
C236 C228 1.378 . S
C236 C231 1.350 . S
C237 H224 0.929 . S
C237 C229 1.433 . S
C237 N239 1.384 . S
N238 C234 1.427 . S
N238 C235 1.384 . S
N239 C231 1.427 . S
N239 C237 1.384 . S
H240 C246 0.930 . S
H241 C250 0.930 . S
H242 C255 0.929 . S
H243 C253 0.929 . S
H244 C248 0.929 . S
H245 C254 0.929 . S
C246 H240 0.930 . S
C246 C247 1.367 . S
C246 C254 1.378 . S
C247 C246 1.367 . S
C247 C255 1.433 . S
C248 H244 0.929 . S
C248 C250 1.378 . S
C248 C252 1.350 . S
C249 C252 1.463 . S
C249 C254 1.350 . S
C249 N257 1.427 . S
C250 H241 0.930 . S
C250 C248 1.378 . S
C250 C251 1.367 . S
C251 C250 1.367 . S
C251 C253 1.433 . S
C252 C248 1.350 . S
C252 C249 1.463 . S
C252 N256 1.427 . S
C253 H243 0.929 . S
C253 C251 1.433 . S
C253 N256 1.384 . S
C254 H245 0.929 . S
C254 C246 1.378 . S
C254 C249 1.350 . S
C255 H242 0.929 . S
C255 C247 1.433 . S
C255 N257 1.384 . S
N256 C252 1.427 . S
N256 C253 1.384 . S
N257 C249 1.427 . S
N257 C255 1.384 . S
H258 C264 0.930 . S
H259 C268 0.930 . S
H260 C273 0.929 . S
H261 C271 0.929 . S
H262 C266 0.929 . S
H263 C272 0.929 . S
C264 H258 0.930 . S
C264 C265 1.367 . S
C264 C272 1.378 . S
C265 C264 1.367 . S
C265 C273 1.433 . S
C266 H262 0.929 . S
C266 C268 1.378 . S
C266 C270 1.350 . S
C267 C270 1.463 . S
C267 C272 1.350 . S
C267 N275 1.427 . S
C268 H259 0.930 . S
C268 C266 1.378 . S
C268 C269 1.367 . S
C269 C268 1.367 . S
C269 C271 1.433 . S
C270 C266 1.350 . S
C270 C267 1.463 . S
C270 N274 1.427 . S
C271 H261 0.929 . S
C271 C269 1.433 . S
C271 N274 1.384 . S
C272 H263 0.929 . S
C272 C264 1.378 . S
C272 C267 1.350 . S
C273 H260 0.929 . S
C273 C265 1.433 . S
C273 N275 1.384 . S
N274 C270 1.427 . S
N274 C271 1.384 . S
N275 C267 1.427 . S
N275 C273 1.384 . S
H276 C282 0.930 . S
H277 C286 0.930 . S
H278 C291 0.929 . S
H279 C289 0.929 . S
H280 C284 0.929 . S
H281 C290 0.929 . S
C282 H276 0.930 . S
C282 C283 1.367 1_556 S
C282 C290 1.378 . S
C283 C282 1.367 1_554 S
C283 C291 1.433 . S
C284 H280 0.929 . S
C284 C286 1.378 . S
C284 C288 1.350 1_554 S
C285 C288 1.463 1_544 S
C285 C290 1.350 1_554 S
C285 N293 1.427 . S
C286 H277 0.930 . S
C286 C284 1.378 . S
C286 C287 1.367 1_554 S
C287 C286 1.367 1_556 S
C287 C289 1.433 . S
C288 C284 1.350 1_556 S
C288 C285 1.463 1_566 S
C288 N292 1.427 . S
C289 H279 0.929 . S
C289 C287 1.433 . S
C289 N292 1.384 . S
C290 H281 0.929 . S
C290 C282 1.378 . S
C290 C285 1.350 1_556 S
C291 H278 0.929 . S
C291 C283 1.433 . S
C291 N293 1.384 . S
N292 C288 1.427 . S
N292 C289 1.384 . S
N293 C285 1.427 . S
N293 C291 1.384 . S
H294 C300 0.930 . S
H295 C304 0.930 . S
H296 C309 0.929 . S
H297 C307 0.929 . S
H298 C302 0.929 . S
H299 C308 0.929 . S
C300 H294 0.930 . S
C300 C301 1.367 . S
C300 C308 1.378 . S
C301 C300 1.367 . S
C301 C309 1.433 . S
C302 H298 0.929 . S
C302 C304 1.378 . S
C302 C306 1.350 . S
C303 C306 1.463 . S
C303 C308 1.350 . S
C303 N311 1.427 . S
C304 H295 0.930 . S
C304 C302 1.378 . S
C304 C305 1.367 . S
C305 C304 1.367 . S
C305 C307 1.433 . S
C306 C302 1.350 . S
C306 C303 1.463 . S
C306 N310 1.427 . S
C307 H297 0.929 . S
C307 C305 1.433 . S
C307 N310 1.384 . S
C308 H299 0.929 . S
C308 C300 1.378 . S
C308 C303 1.350 . S
C309 H296 0.929 . S
C309 C301 1.433 . S
C309 N311 1.384 . S
N310 C306 1.427 . S
N310 C307 1.384 . S
N311 C303 1.427 . S
N311 C309 1.384 . S
H312 C318 0.930 . S
H313 C322 0.930 . S
H314 C327 0.929 . S
H315 C325 0.929 . S
H316 C320 0.929 . S
H317 C326 0.929 . S
C318 H312 0.930 . S
C318 C319 1.367 1_554 S
C318 C326 1.378 . S
C319 C318 1.367 1_556 S
C319 C327 1.433 . S
C320 H316 0.929 . S
C320 C322 1.378 . S
C320 C324 1.350 1_556 S
C321 C324 1.463 1_456 S
C321 C326 1.350 1_556 S
C321 N329 1.427 . S
C322 H313 0.930 . S
C322 C320 1.378 . S
C322 C323 1.367 1_556 S
C323 C322 1.367 1_554 S
C323 C325 1.433 . S
C324 C320 1.350 1_554 S
C324 C321 1.463 1_654 S
C324 N328 1.427 . S
C325 H315 0.929 . S
C325 C323 1.433 . S
C325 N328 1.384 . S
C326 H317 0.929 . S
C326 C318 1.378 . S
C326 C321 1.350 1_554 S
C327 H314 0.929 . S
C327 C319 1.433 . S
C327 N329 1.384 . S
N328 C324 1.427 . S
N328 C325 1.384 . S
N329 C321 1.427 . S
N329 C327 1.384 . S
H330 C336 0.930 . S
H331 C340 0.930 . S
H332 C345 0.929 . S
H333 C343 0.929 . S
H334 C338 0.929 . S
H335 C344 0.929 . S
C336 H330 0.930 . S
C336 C337 1.367 . S
C336 C344 1.378 . S
C337 C336 1.367 . S
C337 C345 1.433 . S
C338 H334 0.929 . S
C338 C340 1.378 . S
C338 C342 1.350 . S
C339 C342 1.463 1_545 S
C339 C344 1.350 . S
C339 N347 1.427 . S
C340 H331 0.930 . S
C340 C338 1.378 . S
C340 C341 1.367 . S
C341 C340 1.367 . S
C341 C343 1.433 . S
C342 C338 1.350 . S
C342 C339 1.463 1_565 S
C342 N346 1.427 . S
C343 H333 0.929 . S
C343 C341 1.433 . S
C343 N346 1.384 . S
C344 H335 0.929 . S
C344 C336 1.378 . S
C344 C339 1.350 . S
C345 H332 0.929 . S
C345 C337 1.433 . S
C345 N347 1.384 . S
N346 C342 1.427 . S
N346 C343 1.384 . S
N347 C339 1.427 . S
N347 C345 1.384 . S
H348 C354 0.930 . S
H349 C358 0.930 . S
H350 C363 0.929 . S
H351 C361 0.929 . S
H352 C356 0.929 . S
H353 C362 0.929 . S
C354 H348 0.930 . S
C354 C355 1.367 1_554 S
C354 C362 1.378 . S
C355 C354 1.367 1_556 S
C355 C363 1.433 . S
C356 H352 0.929 . S
C356 C358 1.378 . S
C356 C360 1.350 1_556 S
C357 C360 1.463 1_556 S
C357 C362 1.350 1_556 S
C357 N365 1.427 . S
C358 H349 0.930 . S
C358 C356 1.378 . S
C358 C359 1.367 1_556 S
C359 C358 1.367 1_554 S
C359 C361 1.433 . S
C360 C356 1.350 1_554 S
C360 C357 1.463 1_554 S
C360 N364 1.427 . S
C361 H351 0.929 . S
C361 C359 1.433 . S
C361 N364 1.384 . S
C362 H353 0.929 . S
C362 C354 1.378 . S
C362 C357 1.350 1_554 S
C363 H350 0.929 . S
C363 C355 1.433 . S
C363 N365 1.384 . S
N364 C360 1.427 . S
N364 C361 1.384 . S
N365 C357 1.427 . S
N365 C363 1.384 . S
H366 C372 0.930 . S
H367 C376 0.930 . S
H368 C381 0.929 . S
H369 C379 0.929 . S
H370 C374 0.929 . S
H371 C380 0.929 . S
C372 H366 0.930 . S
C372 C373 1.367 . S
C372 C380 1.378 . S
C373 C372 1.367 . S
C373 C381 1.433 . S
C374 H370 0.929 . S
C374 C376 1.378 . S
C374 C378 1.350 . S
C375 C378 1.463 1_655 S
C375 C380 1.350 . S
C375 N383 1.427 . S
C376 H367 0.930 . S
C376 C374 1.378 . S
C376 C377 1.367 . S
C377 C376 1.367 . S
C377 C379 1.433 . S
C378 C374 1.350 . S
C378 C375 1.463 1_455 S
C378 N382 1.427 . S
C379 H369 0.929 . S
C379 C377 1.433 . S
C379 N382 1.384 . S
C380 H371 0.929 . S
C380 C372 1.378 . S
C380 C375 1.350 . S
C381 H368 0.929 . S
C381 C373 1.433 . S
C381 N383 1.384 . S
N382 C378 1.427 . S
N382 C379 1.384 . S
N383 C375 1.427 . S
N383 C381 1.384 . S
H384 C390 0.930 . S
H385 C394 0.930 1_556 S
H386 C399 0.929 . S
H387 C397 0.929 . S
H388 C392 0.929 . S
H389 C398 0.929 . S
C390 H384 0.930 . S
C390 C391 1.367 . S
C390 C398 1.378 . S
C391 C390 1.367 . S
C391 C399 1.433 . S
C392 H388 0.929 . S
C392 C394 1.378 . S
C392 C396 1.350 . S
C393 C396 1.463 . S
C393 C398 1.350 . S
C393 N401 1.427 . S
C394 H385 0.930 1_554 S
C394 C392 1.378 . S
C394 C395 1.367 . S
C395 C394 1.367 . S
C395 C397 1.433 . S
C396 C392 1.350 . S
C396 C393 1.463 . S
C396 N400 1.427 . S
C397 H387 0.929 . S
C397 C395 1.433 . S
C397 N400 1.384 . S
C398 H389 0.929 . S
C398 C390 1.378 . S
C398 C393 1.350 . S
C399 H386 0.929 . S
C399 C391 1.433 . S
C399 N401 1.384 . S
N400 C396 1.427 . S
N400 C397 1.384 . S
N401 C393 1.427 . S
N401 C399 1.384 . S
H402 C408 0.930 . S
H403 C412 0.930 . S
H404 C417 0.929 . S
H405 C415 0.929 . S
H406 C410 0.929 . S
H407 C416 0.929 . S
C408 H402 0.930 . S
C408 C409 1.367 . S
C408 C416 1.378 . S
C409 C408 1.367 . S
C409 C417 1.433 . S
C410 H406 0.929 . S
C410 C412 1.378 . S
C410 C414 1.350 . S
C411 C414 1.463 . S
C411 C416 1.350 . S
C411 N419 1.427 . S
C412 H403 0.930 . S
C412 C410 1.378 . S
C412 C413 1.367 . S
C413 C412 1.367 . S
C413 C415 1.433 . S
C414 C410 1.350 . S
C414 C411 1.463 . S
C414 N418 1.427 . S
C415 H405 0.929 . S
C415 C413 1.433 . S
C415 N418 1.384 . S
C416 H407 0.929 . S
C416 C408 1.378 . S
C416 C411 1.350 . S
C417 H404 0.929 . S
C417 C409 1.433 . S
C417 N419 1.384 . S
N418 C414 1.427 . S
N418 C415 1.384 . S
N419 C411 1.427 . S
N419 C417 1.384 . S
H420 C426 0.930 1_556 S
H421 C430 0.930 . S
H422 C435 0.929 . S
H423 C433 0.929 . S
H424 C428 0.929 . S
H425 C434 0.929 1_556 S
C426 H420 0.930 1_554 S
C426 C427 1.367 . S
C426 C434 1.378 . S
C427 C426 1.367 . S
C427 C435 1.433 . S
C428 H424 0.929 . S
C428 C430 1.378 . S
C428 C432 1.350 . S
C429 C432 1.463 . S
C429 C434 1.350 . S
C429 N437 1.427 . S
C430 H421 0.930 . S
C430 C428 1.378 . S
C430 C431 1.367 . S
C431 C430 1.367 . S
C431 C433 1.433 1_554 S
C432 C428 1.350 . S
C432 C429 1.463 . S
C432 N436 1.427 1_554 S
C433 H423 0.929 . S
C433 C431 1.433 1_556 S
C433 N436 1.384 . S
C434 H425 0.929 1_554 S
C434 C426 1.378 . S
C434 C429 1.350 . S
C435 H422 0.929 . S
C435 C427 1.433 . S
C435 N437 1.384 . S
N436 C432 1.427 1_556 S
N436 C433 1.384 . S
N437 C429 1.427 . S
N437 C435 1.384 . S
H438 C444 0.930 . S
H439 C448 0.930 . S
H440 C453 0.929 . S
H441 C451 0.929 . S
H442 C446 0.929 . S
H443 C452 0.929 . S
C444 H438 0.930 . S
C444 C445 1.367 . S
C444 C452 1.378 . S
C445 C444 1.367 . S
C445 C453 1.433 . S
C446 H442 0.929 . S
C446 C448 1.378 . S
C446 C450 1.350 . S
C447 C450 1.463 . S
C447 C452 1.350 . S
C447 N455 1.427 . S
C448 H439 0.930 . S
C448 C446 1.378 . S
C448 C449 1.367 . S
C449 C448 1.367 . S
C449 C451 1.433 . S
C450 C446 1.350 . S
C450 C447 1.463 . S
C450 N454 1.427 . S
C451 H441 0.929 . S
C451 C449 1.433 . S
C451 N454 1.384 . S
C452 H443 0.929 . S
C452 C444 1.378 . S
C452 C447 1.350 . S
C453 H440 0.929 . S
C453 C445 1.433 . S
C453 N455 1.384 . S
N454 C450 1.427 . S
N454 C451 1.384 . S
N455 C447 1.427 . S
N455 C453 1.384 . S
H456 C462 0.930 . S
H457 C466 0.933 . S
H458 C471 0.929 . S
H459 C469 0.929 . S
H460 C464 0.929 1_556 S
H461 C470 0.929 . S
C462 H456 0.930 . S
C462 C463 1.367 . S
C462 C470 1.378 . S
C463 C462 1.367 . S
C463 C471 1.433 . S
C464 H460 0.929 1_554 S
C464 C466 1.377 1_554 S
C464 C468 1.350 . S
C465 C468 1.463 . S
C465 C470 1.350 . S
C465 N473 1.427 . S
C466 H457 0.933 . S
C466 C464 1.377 1_556 S
C466 C467 1.365 1_556 S
C467 C466 1.365 1_554 S
C467 C469 1.433 . S
C468 C464 1.350 . S
C468 C465 1.463 . S
C468 N472 1.427 . S
C469 H459 0.929 . S
C469 C467 1.433 . S
C469 N472 1.384 . S
C470 H461 0.929 . S
C470 C462 1.378 . S
C470 C465 1.350 . S
C471 H458 0.929 . S
C471 C463 1.433 . S
C471 N473 1.384 . S
N472 C468 1.427 . S
N472 C469 1.384 . S
N473 C465 1.427 . S
N473 C471 1.384 . S
H474 C480 0.930 . S
H475 C484 0.930 . S
H476 C489 0.929 . S
H477 C487 0.929 . S
H478 C482 0.929 . S
H479 C488 0.929 . S
C480 H474 0.930 . S
C480 C481 1.367 . S
C480 C488 1.378 . S
C481 C480 1.367 . S
C481 C489 1.433 . S
C482 H478 0.929 . S
C482 C484 1.378 . S
C482 C486 1.350 . S
C483 C486 1.463 . S
C483 C488 1.350 . S
C483 N491 1.427 . S
C484 H475 0.930 . S
C484 C482 1.378 . S
C484 C485 1.367 . S
C485 C484 1.367 . S
C485 C487 1.433 . S
C486 C482 1.350 . S
C486 C483 1.463 . S
C486 N490 1.427 . S
C487 H477 0.929 . S
C487 C485 1.433 . S
C487 N490 1.384 . S
C488 H479 0.929 . S
C488 C480 1.378 . S
C488 C483 1.350 . S
C489 H476 0.929 . S
C489 C481 1.433 . S
C489 N491 1.384 . S
N490 C486 1.427 . S
N490 C487 1.384 . S
N491 C483 1.427 . S
N491 C489 1.384 . S
H492 C498 0.930 . S
H493 C502 0.930 . S
H494 C507 0.929 . S
H495 C505 0.929 . S
H496 C500 0.929 . S
H497 C506 0.929 . S
C498 H492 0.930 . S
C498 C499 1.367 . S
C498 C506 1.378 . S
C499 C498 1.367 . S
C499 C507 1.433 . S
C500 H496 0.929 . S
C500 C502 1.378 . S
C500 C504 1.350 . S
C501 C504 1.463 . S
C501 C506 1.350 . S
C501 N509 1.427 . S
C502 H493 0.930 . S
C502 C500 1.378 . S
C502 C503 1.367 . S
C503 C502 1.367 . S
C503 C505 1.433 . S
C504 C500 1.350 . S
C504 C501 1.463 . S
C504 N508 1.427 . S
C505 H495 0.929 . S
C505 C503 1.433 . S
C505 N508 1.384 . S
C506 H497 0.929 . S
C506 C498 1.378 . S
C506 C501 1.350 . S
C507 H494 0.929 . S
C507 C499 1.433 . S
C507 N509 1.384 . S
N508 C504 1.427 . S
N508 C505 1.384 . S
N509 C501 1.427 . S
N509 C507 1.384 . S
H510 C516 0.930 . S
H511 C520 0.930 . S
H512 C525 0.929 . S
H513 C523 0.929 . S
H514 C518 0.929 . S
H515 C524 0.929 . S
C516 H510 0.930 . S
C516 C517 1.367 . S
C516 C524 1.378 . S
C517 C516 1.367 . S
C517 C525 1.433 . S
C518 H514 0.929 . S
C518 C520 1.378 . S
C518 C522 1.350 . S
C519 C522 1.463 . S
C519 C524 1.350 . S
C519 N527 1.427 . S
C520 H511 0.930 . S
C520 C518 1.378 . S
C520 C521 1.367 . S
C521 C520 1.367 . S
C521 C523 1.433 . S
C522 C518 1.350 . S
C522 C519 1.463 . S
C522 N526 1.427 . S
C523 H513 0.929 . S
C523 C521 1.433 . S
C523 N526 1.384 . S
C524 H515 0.929 . S
C524 C516 1.378 . S
C524 C519 1.350 . S
C525 H512 0.929 . S
C525 C517 1.433 . S
C525 N527 1.384 . S
N526 C522 1.427 . S
N526 C523 1.384 . S
N527 C519 1.427 . S
N527 C525 1.384 . S
H528 C534 0.930 . S
H529 C538 0.930 . S
H530 C543 0.929 . S
H531 C541 0.929 . S
H532 C536 0.929 . S
H533 C542 0.929 . S
C534 H528 0.930 . S
C534 C535 1.367 . S
C534 C542 1.378 . S
C535 C534 1.367 . S
C535 C543 1.433 . S
C536 H532 0.929 . S
C536 C538 1.378 . S
C536 C540 1.350 . S
C537 C540 1.463 . S
C537 C542 1.350 . S
C537 N545 1.427 . S
C538 H529 0.930 . S
C538 C536 1.378 . S
C538 C539 1.367 . S
C539 C538 1.367 . S
C539 C541 1.433 . S
C540 C536 1.350 . S
C540 C537 1.463 . S
C540 N544 1.427 . S
C541 H531 0.929 . S
C541 C539 1.433 . S
C541 N544 1.384 . S
C542 H533 0.929 . S
C542 C534 1.378 . S
C542 C537 1.350 . S
C543 H530 0.929 . S
C543 C535 1.433 . S
C543 N545 1.384 . S
N544 C540 1.427 . S
N544 C541 1.384 . S
N545 C537 1.427 . S
N545 C543 1.384 . S
H546 C552 0.932 . S
H547 C556 0.930 . S
H548 C561 0.929 . S
H549 C559 0.929 . S
H550 C554 0.929 . S
H551 C560 0.929 1_554 S
C552 H546 0.932 . S
C552 C553 1.367 . S
C552 C560 1.378 . S
C553 C552 1.367 . S
C553 C561 1.433 . S
C554 H550 0.929 . S
C554 C556 1.378 . S
C554 C558 1.350 . S
C555 C558 1.463 . S
C555 C560 1.350 . S
C555 N563 1.427 . S
C556 H547 0.930 . S
C556 C554 1.378 . S
C556 C557 1.367 . S
C557 C556 1.367 . S
C557 C559 1.433 1_556 S
C558 C554 1.350 . S
C558 C555 1.463 . S
C558 N562 1.427 . S
C559 H549 0.929 . S
C559 C557 1.433 1_554 S
C559 N562 1.384 1_554 S
C560 H551 0.929 1_556 S
C560 C552 1.378 . S
C560 C555 1.350 . S
C561 H548 0.929 . S
C561 C553 1.433 . S
C561 N563 1.384 . S
N562 C558 1.427 . S
N562 C559 1.384 1_556 S
N563 C555 1.427 . S
N563 C561 1.384 . S
H564 C570 0.930 . S
H565 C574 0.930 . S
H566 C579 0.929 . S
H567 C577 0.929 . S
H568 C572 0.929 . S
H569 C578 0.929 . S
C570 H564 0.930 . S
C570 C571 1.367 . S
C570 C578 1.378 . S
C571 C570 1.367 . S
C571 C579 1.433 . S
C572 H568 0.929 . S
C572 C574 1.378 . S
C572 C576 1.350 . S
C573 C576 1.463 . S
C573 C578 1.350 . S
C573 N581 1.427 . S
C574 H565 0.930 . S
C574 C572 1.378 . S
C574 C575 1.367 . S
C575 C574 1.367 . S
C575 C577 1.433 . S
C576 C572 1.350 . S
C576 C573 1.463 . S
C576 N580 1.427 . S
C577 H567 0.929 . S
C577 C575 1.433 . S
C577 N580 1.384 . S
C578 H569 0.929 . S
C578 C570 1.378 . S
C578 C573 1.350 . S
C579 H566 0.929 . S
C579 C571 1.433 . S
C579 N581 1.384 . S
N580 C576 1.427 . S
N580 C577 1.384 . S
N581 C573 1.427 . S
N581 C579 1.384 . S
H582 C588 0.930 . S
H583 C592 0.930 . S
H584 C597 0.929 . S
H585 C595 0.929 . S
H586 C590 0.929 . S
H587 C596 0.929 . S
C588 H582 0.930 . S
C588 C589 1.367 . S
C588 C596 1.378 . S
C589 C588 1.367 . S
C589 C597 1.433 . S
C590 H586 0.929 . S
C590 C592 1.378 . S
C590 C594 1.350 . S
C591 C594 1.463 . S
C591 C596 1.350 . S
C591 N599 1.427 . S
C592 H583 0.930 . S
C592 C590 1.378 . S
C592 C593 1.367 . S
C593 C592 1.367 . S
C593 C595 1.433 . S
C594 C590 1.350 . S
C594 C591 1.463 . S
C594 N598 1.427 . S
C595 H585 0.929 . S
C595 C593 1.433 . S
C595 N598 1.384 . S
C596 H587 0.929 . S
C596 C588 1.378 . S
C596 C591 1.350 . S
C597 H584 0.929 . S
C597 C589 1.433 . S
C597 N599 1.384 . S
N598 C594 1.427 . S
N598 C595 1.384 . S
N599 C591 1.427 . S
N599 C597 1.384 . S
C175 C147 1.544 . S
C179 C7 1.540 . S
C193 C21 1.461 . S
C197 C161 1.471 . S
C211 C35 1.535 . S
C215 C91 1.544 . S
C229 C105 1.530 . S
C233 C49 1.557 . S
C247 C119 1.457 . S
C251 C63 1.462 . S
C265 C77 1.541 . S
C269 C133 1.551 . S
C283 C8 0.996 . S
C287 C106 1.012 . S
C301 C22 0.818 . S
C305 C120 0.820 . S
C319 C134 1.000 . S
C323 C36 1.012 . S
C337 C148 1.012 . S
C341 C50 0.997 . S
C355 C162 0.830 . S
C359 C64 0.825 . S
C373 C92 0.999 . S
C377 C78 1.012 . S
C391 C9 1.037 . S
C395 C59 1.022 . S
C409 C23 0.913 . S
C413 C73 0.918 . S
C427 C37 0.962 . S
C431 C3 0.926 . S
C445 C51 1.048 . S
C449 C17 0.996 . S
C463 C65 0.923 . S
C467 C31 0.924 . S
C481 C79 0.966 . S
C485 C45 0.927 . S
C499 C93 1.037 . S
C503 C115 1.021 . S
C517 C107 0.966 . S
C521 C129 0.928 . S
C535 C143 0.917 . S
C539 C121 0.914 . S
C553 C135 1.041 . S
C557 C157 1.006 . S
C571 C149 0.951 . S
C575 C87 0.949 . S
C589 C163 0.929 . S
C593 C101 0.912 . S
