# Generated by pormake.
# Topology lll, (7)-cn, num edge types: 1
# Building blocks:
#     Node 0, Type 0, BuildingBlock: NUHQUE_clean_sbu_2, # of connection points: 7
#     Node 1, Type 0, BuildingBlock: NUHQUE_clean_sbu_2, # of connection points: 7
#     Node 2, Type 0, BuildingBlock: NUHQUE_clean_sbu_2, # of connection points: 7
#     Node 3, Type 0, BuildingBlock: NUHQUE_clean_sbu_2, # of connection points: 7
#     Node 4, Type 0, BuildingBlock: NUHQUE_clean_sbu_2, # of connection points: 7
#     Node 5, Type 0, BuildingBlock: NUHQUE_clean_sbu_2, # of connection points: 7
#     Node 6, Type 0, BuildingBlock: NUHQUE_clean_sbu_2, # of connection points: 7
#     Node 7, Type 0, BuildingBlock: NUHQUE_clean_sbu_2, # of connection points: 7
#     Node 8, Type 0, BuildingBlock: NUHQUE_clean_sbu_2, # of connection points: 7
#     Node 9, Type 0, BuildingBlock: NUHQUE_clean_sbu_2, # of connection points: 7
#     Node 10, Type 0, BuildingBlock: NUHQUE_clean_sbu_2, # of connection points: 7
#     Node 11, Type 0, BuildingBlock: NUHQUE_clean_sbu_2, # of connection points: 7
#     Node 12, Type 0, BuildingBlock: NUHQUE_clean_sbu_2, # of connection points: 7
#     Node 13, Type 0, BuildingBlock: NUHQUE_clean_sbu_2, # of connection points: 7
#     Node 14, Type 0, BuildingBlock: NUHQUE_clean_sbu_2, # of connection points: 7
#     Node 15, Type 0, BuildingBlock: NUHQUE_clean_sbu_2, # of connection points: 7
#     Edge 16, Type (0, 0), None
#     Edge 17, Type (0, 0), None
#     Edge 18, Type (0, 0), None
#     Edge 19, Type (0, 0), None
#     Edge 20, Type (0, 0), None
#     Edge 21, Type (0, 0), None
#     Edge 22, Type (0, 0), None
#     Edge 23, Type (0, 0), None
#     Edge 24, Type (0, 0), None
#     Edge 25, Type (0, 0), None
#     Edge 26, Type (0, 0), None
#     Edge 27, Type (0, 0), None
#     Edge 28, Type (0, 0), None
#     Edge 29, Type (0, 0), None
#     Edge 30, Type (0, 0), None
#     Edge 31, Type (0, 0), None
#     Edge 32, Type (0, 0), None
#     Edge 33, Type (0, 0), None
#     Edge 34, Type (0, 0), None
#     Edge 35, Type (0, 0), None
#     Edge 36, Type (0, 0), None
#     Edge 37, Type (0, 0), None
#     Edge 38, Type (0, 0), None
#     Edge 39, Type (0, 0), None
#     Edge 40, Type (0, 0), None
#     Edge 41, Type (0, 0), None
#     Edge 42, Type (0, 0), None
#     Edge 43, Type (0, 0), None
#     Edge 44, Type (0, 0), None
#     Edge 45, Type (0, 0), None
#     Edge 46, Type (0, 0), None
#     Edge 47, Type (0, 0), None
#     Edge 48, Type (0, 0), None
#     Edge 49, Type (0, 0), None
#     Edge 50, Type (0, 0), None
#     Edge 51, Type (0, 0), None
#     Edge 52, Type (0, 0), None
#     Edge 53, Type (0, 0), None
#     Edge 54, Type (0, 0), None
#     Edge 55, Type (0, 0), None
#     Edge 56, Type (0, 0), None
#     Edge 57, Type (0, 0), None
#     Edge 58, Type (0, 0), None
#     Edge 59, Type (0, 0), None
#     Edge 60, Type (0, 0), None
#     Edge 61, Type (0, 0), None
#     Edge 62, Type (0, 0), None
#     Edge 63, Type (0, 0), None
#     Edge 64, Type (0, 0), None
#     Edge 65, Type (0, 0), None
#     Edge 66, Type (0, 0), None
#     Edge 67, Type (0, 0), None
#     Edge 68, Type (0, 0), None
#     Edge 69, Type (0, 0), None
#     Edge 70, Type (0, 0), None
#     Edge 71, Type (0, 0), None
# Relax obj value: 0.631
# Max RMSD: 0.285
# Mean RMSD: 0.285
data_MOF--net-lll--node1-NUHQUE_clean_sbu_2--edge1-none
_symmetry_space_group_name_H-M    P1
_symmetry_Int_Tables_number       1
_symmetry_cell_setting            triclinic
loop_
_symmetry_equiv_pos_as_xyz
'x, y, z'
_cell_length_a     29.955619
_cell_length_b     29.957299
_cell_length_c     20.346337
_cell_angle_alpha  90.000821
_cell_angle_beta   89.998174
_cell_angle_gamma 89.99945
loop_
_atom_site_label
_atom_site_type_symbol
_atom_site_fract_x
_atom_site_fract_y
_atom_site_fract_z
_atom_type_partial_charge
O0 O 0.66141 0.03492 1.10212 0.0
Tb1 Tb 0.69563 0.09279 1.14127 0.0
Eu2 Eu 0.59991 0.09468 0.21952 0.0
C3 C 0.67965 0.00866 1.05728 0.0
O4 O 0.65681 -0.02597 1.03652 0.0
C5 C 0.62301 0.16137 1.0906 0.0
O6 O 0.60529 0.13183 0.3129 0.0
C7 C 0.52896 0.04644 0.23415 0.0
C8 C 0.59596 0.17375 0.31954 0.0
O9 O 0.61724 0.19557 0.36484 0.0
C10 C 0.69181 0.10912 0.28498 0.0
C11 C 0.50729 0.02014 0.28608 0.0
C12 C 0.47531 -0.01294 0.26857 0.0
C13 C 0.46265 -0.04446 0.31595 0.0
C14 C 0.48717 -0.044 0.37436 0.0
C15 C 0.50358 -0.0041 0.40032 0.0
C16 C 0.51687 0.02801 0.35396 0.0
O17 O 0.66476 0.14753 1.08874 0.0
O18 O 0.59345 0.14451 1.13237 0.0
O19 O 0.76258 0.09959 1.10224 0.0
O20 O 0.75338 0.0634 0.18932 0.0
C21 C 0.78348 0.08321 1.15343 0.0
O22 O 0.66027 0.07851 0.28704 0.0
O23 O 0.69388 0.13164 0.23059 0.0
O24 O 0.52992 0.0897 0.24452 0.0
O25 O 0.56662 0.03028 0.20945 0.0
H26 H 0.46119 -0.01414 0.21959 0.0
H27 H 0.4878 0.92707 0.40376 0.0
H28 H 0.53437 0.05779 0.36969 0.0
O29 O 0.84821 0.16139 0.35211 0.0
Tb30 Tb 0.79034 0.19561 0.39126 0.0
Eu31 Eu 0.78847 0.0999 0.46952 0.0
C32 C 0.87448 0.17963 0.30728 0.0
O33 O 0.90911 0.1568 0.28652 0.0
C34 C 0.72176 0.12298 0.34061 0.0
O35 O 0.75131 0.10528 0.56289 0.0
C36 C 0.8367 0.02894 0.48415 0.0
C37 C 0.70939 0.09596 0.56954 0.0
O38 O 0.68758 0.11722 0.61484 0.0
C39 C 0.77403 0.19179 0.53497 0.0
C40 C 0.863 0.00727 0.53608 0.0
C41 C 0.89607 -0.02472 0.51857 0.0
C42 C 0.92759 -0.03739 0.56594 0.0
C43 C 0.92714 -0.01287 0.62435 0.0
C44 C 0.88724 0.00355 0.65031 0.0
C45 C 0.85514 0.01686 0.60396 0.0
O46 O 0.7356 0.16473 0.33874 0.0
O47 O 0.73865 0.09342 0.38236 0.0
O48 O 0.78353 0.26256 0.35224 0.0
O49 O 0.81973 0.25336 0.4393 0.0
C50 C 0.79993 0.28345 0.40342 0.0
O51 O 0.80464 0.16025 0.53703 0.0
O52 O 0.7515 0.19386 0.48059 0.0
O53 O 0.79344 0.02991 0.49452 0.0
O54 O 0.85287 0.06659 0.45945 0.0
H55 H 0.89727 -0.03884 0.46959 0.0
H56 H -0.04393 -0.01224 0.65374 0.0
H57 H 0.82536 0.03436 0.6197 0.0
O58 O 0.72176 0.3482 0.60212 0.0
Tb59 Tb 0.68755 0.29033 0.64127 0.0
Eu60 Eu 0.78327 0.28845 0.71952 0.0
C61 C 0.70352 0.37447 0.55728 0.0
O62 O 0.72636 0.40909 0.53653 0.0
C63 C 0.76017 0.22175 0.59061 0.0
O64 O 0.77788 0.25129 0.81289 0.0
C65 C 0.85423 0.33668 0.73415 0.0
C66 C 0.78721 0.20937 0.81953 0.0
O67 O 0.76593 0.18755 0.86483 0.0
C68 C 0.69137 0.27402 0.78498 0.0
C69 C 0.8759 0.36297 0.78609 0.0
C70 C 0.90788 0.39605 0.76857 0.0
C71 C 0.92055 0.42757 0.81595 0.0
C72 C 0.89602 0.42712 0.87436 0.0
C73 C 0.87961 0.38722 0.90032 0.0
C74 C 0.86631 0.35511 0.85396 0.0
O75 O 0.71842 0.23559 0.58874 0.0
O76 O 0.78974 0.23862 0.63236 0.0
O77 O 0.62059 0.28353 0.60225 0.0
O78 O 0.6298 0.31972 0.68932 0.0
C79 C 0.5997 0.29992 0.65344 0.0
O80 O 0.72291 0.30462 0.78704 0.0
O81 O 0.68929 0.25149 0.73059 0.0
O82 O 0.85326 0.29342 0.74452 0.0
O83 O 0.81657 0.35284 0.70946 0.0
H84 H 0.922 0.39725 0.71959 0.0
H85 H 0.89539 0.45604 0.90376 0.0
H86 H 0.84881 0.32533 0.8697 0.0
O87 O 0.53496 0.22175 0.85214 0.0
Tb88 Tb 0.59283 0.18753 0.89128 0.0
Eu89 Eu 0.59469 0.28323 0.96952 0.0
C90 C 0.50869 0.20351 0.80731 0.0
O91 O 0.47407 0.22635 0.78656 0.0
C92 C 0.66141 0.26015 0.84062 0.0
O93 O 0.63184 0.27788 1.06291 0.0
C94 C 0.54644 0.35417 0.98414 0.0
C95 C 0.67377 0.28719 1.06954 0.0
O96 O 0.69558 0.26591 1.11484 0.0
C97 C 0.60917 0.19135 1.03499 0.0
C98 C 0.52014 0.37584 1.03608 0.0
C99 C 0.48707 0.40783 1.01857 0.0
C100 C 0.45554 0.42049 1.06594 0.0
C101 C 0.45599 0.39597 1.12434 0.0
C102 C 0.49588 0.37954 1.15031 0.0
C103 C 0.52799 0.36624 1.10395 0.0
O104 O 0.64758 0.2184 0.83875 0.0
O105 O 0.64453 0.28971 0.88237 0.0
O106 O 0.59963 0.12058 0.85226 0.0
O107 O 0.56344 0.12978 0.93933 0.0
C108 C 0.58324 0.09968 0.90344 0.0
O109 O 0.57853 0.22287 1.03703 0.0
O110 O 0.63169 0.18927 0.98059 0.0
O111 O 0.5897 0.35322 0.99451 0.0
O112 O 0.53029 0.31651 0.95945 0.0
H113 H 0.48588 0.42195 0.96959 0.0
H114 H 0.42705 0.39534 1.15374 0.0
H115 H 0.55777 0.34873 1.11969 0.0
O116 O 0.64123 0.34272 0.49403 0.0
Tb117 Tb 0.6827 0.29045 0.45296 0.0
Eu118 Eu 0.58452 0.27298 0.37732 0.0
C119 C 0.65593 0.37124 0.53872 0.0
O120 O 0.62858 0.40223 0.56009 0.0
C121 C 0.62124 0.21129 0.50438 0.0
O122 O 0.55492 0.23825 0.28984 0.0
C123 C 0.52474 0.33394 0.3885 0.0
C124 C 0.56569 0.19725 0.27581 0.0
O125 O 0.54481 0.17672 0.22812 0.0
C126 C 0.6785 0.26904 0.3086 0.0
C127 C 0.50389 0.3612 0.33751 0.0
C128 C 0.47317 0.39515 0.35496 0.0
C129 C 0.46219 0.4272 0.30768 0.0
C130 C 0.48722 0.42643 0.24966 0.0
C131 C 0.50251 0.3861 0.22351 0.0
C132 C 0.51387 0.35332 0.26978 0.0
O133 O 0.66102 0.23015 0.50269 0.0
O134 O 0.58721 0.22566 0.46815 0.0
O135 O 0.73499 0.32682 0.40207 0.0
O136 O 0.75029 0.29385 0.49046 0.0
C137 C 0.76792 0.31196 0.43783 0.0
O138 O 0.64027 0.29013 0.30291 0.0
O139 O 0.68703 0.25065 0.36492 0.0
O140 O 0.51493 0.29134 0.38462 0.0
O141 O 0.56752 0.34193 0.39942 0.0
H142 H 0.45869 0.39659 0.40371 0.0
H143 H 0.48958 0.45571 0.22104 0.0
H144 H 0.5304 0.323 0.25411 0.0
O145 O 0.54043 0.14122 0.74404 0.0
Tb146 Tb 0.59271 0.1827 0.70297 0.0
Eu147 Eu 0.61015 0.08452 0.62733 0.0
C148 C 0.51192 0.15593 0.78874 0.0
O149 O 0.48093 0.12858 0.81011 0.0
C150 C 0.67187 0.12123 0.75438 0.0
O151 O 0.64488 0.05492 0.53984 0.0
C152 C 0.54918 0.02475 0.6385 0.0
C153 C 0.68588 0.06569 0.52581 0.0
O154 O 0.70641 0.04481 0.47811 0.0
C155 C 0.61412 0.17849 0.55861 0.0
C156 C 0.52191 0.00392 0.58752 0.0
C157 C 0.48797 -0.02681 0.60497 0.0
C158 C 0.45592 -0.03779 0.55769 0.0
C159 C 0.45668 -0.01277 0.49967 0.0
C160 C 0.49701 0.00253 0.47352 0.0
C161 C 0.52979 0.01389 0.51979 0.0
O162 O 0.65301 0.16101 0.75268 0.0
O163 O 0.65748 0.0872 0.71815 0.0
O164 O 0.55633 0.23498 0.65208 0.0
O165 O 0.58931 0.25028 0.74047 0.0
C166 C 0.5712 0.26791 0.68784 0.0
O167 O 0.59301 0.14027 0.55293 0.0
O168 O 0.63251 0.18702 0.61493 0.0
O169 O 0.59178 0.01494 0.63462 0.0
O170 O 0.5412 0.06753 0.64943 0.0
H171 H 0.48654 -0.04129 0.65371 0.0
H172 H 0.4274 -0.0104 0.47106 0.0
H173 H 0.56011 0.03043 0.50412 0.0
O174 O 0.74194 0.0404 0.99402 0.0
Tb175 Tb 0.70046 0.09268 0.95296 0.0
Eu176 Eu 0.79865 0.11014 0.87732 0.0
C177 C 0.72724 0.01189 1.03871 0.0
O178 O 0.7546 -0.0191 1.06007 0.0
C179 C 0.76193 0.17184 1.00437 0.0
O180 O 0.82825 0.14487 0.78983 0.0
C181 C 0.8584 0.04916 0.8885 0.0
C182 C 0.81748 0.18586 0.77581 0.0
O183 O 0.83836 0.20639 0.72811 0.0
C184 C 0.70467 0.1141 0.8086 0.0
C185 C 0.87924 0.02189 0.83751 0.0
C186 C 0.90995 -0.01207 0.85497 0.0
C187 C 0.92092 -0.04412 0.80768 0.0
C188 C 0.89589 -0.04334 0.74966 0.0
C189 C 0.88061 -0.00301 0.72352 0.0
C190 C 0.86926 0.02978 0.76979 0.0
O191 O 0.72215 0.15298 1.00269 0.0
O192 O 0.79596 0.15747 0.96814 0.0
O193 O 0.64817 0.05631 0.90207 0.0
O194 O 0.63288 0.08928 0.99047 0.0
C195 C 0.61524 0.07118 0.93784 0.0
O196 O 0.74289 0.093 0.80291 0.0
O197 O 0.69613 0.13248 0.86493 0.0
O198 O 0.86822 0.09176 0.88461 0.0
O199 O 0.81562 0.04119 0.89943 0.0
H200 H 0.92443 -0.01351 0.90371 0.0
H201 H 0.89352 0.92738 0.72104 0.0
H202 H 0.85274 0.0601 0.75411 0.0
O203 O 0.84273 0.24192 0.24402 0.0
Tb204 Tb 0.79046 0.20044 0.20296 0.0
Eu205 Eu 0.77301 0.29862 1.12732 0.0
C206 C 0.87125 0.22721 0.28871 0.0
O207 O 0.90224 0.25457 0.31006 0.0
C208 C 0.71129 0.26191 0.25435 0.0
O209 O 0.73828 0.32822 1.03983 0.0
C210 C 0.83398 0.35838 1.1385 0.0
C211 C 0.69728 0.31746 1.02581 0.0
O212 O 0.67675 0.33834 0.97812 0.0
C213 C 0.76905 0.20464 1.0586 0.0
C214 C 0.86125 0.37922 1.08751 0.0
C215 C 0.89519 0.40995 1.10497 0.0
C216 C 0.92725 0.42093 1.05769 0.0
C217 C 0.92649 0.3959 0.99968 0.0
C218 C 0.88616 0.3806 0.97352 0.0
C219 C 0.85338 0.36923 1.01979 0.0
O220 O 0.73015 0.22212 0.25268 0.0
O221 O 0.72568 0.29594 0.21815 0.0
O222 O 0.82683 0.14815 1.15207 0.0
O223 O 0.79386 0.13286 0.24046 0.0
C224 C 0.81197 0.11522 0.18783 0.0
O225 O 0.79016 0.24286 1.05292 0.0
O226 O 0.75066 0.19611 1.11492 0.0
O227 O 0.79138 0.3682 1.13461 0.0
O228 O 0.84196 0.3156 1.14943 0.0
H229 H 0.89662 0.42444 1.15371 0.0
H230 H -0.04422 0.39354 0.97106 0.0
H231 H 0.82307 0.3527 1.00411 0.0
O232 O 0.16143 0.53492 0.60213 0.0
Tb233 Tb 0.19564 0.59279 0.64128 0.0
Eu234 Eu 0.09992 0.59467 0.71954 0.0
C235 C 0.17968 0.50866 0.55729 0.0
O236 O 0.15684 0.47403 0.53654 0.0
C237 C 0.12301 0.66137 0.59062 0.0
O238 O 0.1053 0.63183 0.81291 0.0
C239 C 0.02895 0.54646 0.73417 0.0
C240 C 0.09597 0.67376 0.81954 0.0
O241 O 0.11724 0.69557 0.86484 0.0
C242 C 0.19182 0.60912 0.78499 0.0
C243 C 0.00725 0.52018 0.7861 0.0
C244 C -0.02482 0.48718 0.76859 0.0
C245 C -0.03755 0.45569 0.81597 0.0
C246 C -0.013 0.45606 0.87433 0.0
C247 C 0.00352 0.4959 0.90032 0.0
C248 C 0.01689 0.52799 0.85398 0.0
O249 O 0.16477 0.64753 0.58876 0.0
O250 O 0.09345 0.6445 0.63237 0.0
O251 O 0.26259 0.5996 0.60226 0.0
O252 O 0.2534 0.56341 0.68934 0.0
C253 C 0.28349 0.58322 0.65345 0.0
O254 O 0.16027 0.57851 0.78706 0.0
O255 O 0.19389 0.63164 0.7306 0.0
O256 O 0.02993 0.58972 0.74453 0.0
O257 O 0.06661 0.53028 0.7095 0.0
H258 H -0.03894 0.48601 0.71961 0.0
H259 H -0.0125 0.42714 0.90375 0.0
H260 H 0.03446 0.55772 0.86973 0.0
O261 O 0.34822 0.66141 0.85212 0.0
Tb262 Tb 0.29034 0.69562 0.89127 0.0
Eu263 Eu 0.28848 0.5999 0.96954 0.0
C264 C 0.37448 0.67966 0.80729 0.0
O265 O 0.40912 0.65683 0.78653 0.0
C266 C 0.22177 0.62299 0.84063 0.0
O267 O 0.25131 0.60529 1.0629 0.0
C268 C 0.33668 0.52893 0.98418 0.0
C269 C 0.20938 0.59596 1.06954 0.0
O270 O 0.18757 0.61723 1.11485 0.0
C271 C 0.27403 0.6918 1.03498 0.0
C272 C 0.36296 0.50723 1.0361 0.0
C273 C 0.39595 0.47515 1.01859 0.0
C274 C 0.42744 0.4624 1.06596 0.0
C275 C 0.42708 0.48695 1.12432 0.0
C276 C 0.38725 0.5035 1.15032 0.0
C277 C 0.35515 0.51687 1.10398 0.0
O278 O 0.23559 0.66474 0.83876 0.0
O279 O 0.23866 0.59343 0.88236 0.0
O280 O 0.28353 0.76257 0.85225 0.0
O281 O 0.31972 0.75337 0.93932 0.0
C282 C 0.29992 0.78347 0.90344 0.0
O283 O 0.30464 0.66026 1.03705 0.0
O284 O 0.2515 0.69387 0.9806 0.0
O285 O 0.29342 0.52992 0.99453 0.0
O286 O 0.35287 0.56658 0.95951 0.0
H287 H 0.3971 0.46101 0.96961 0.0
H288 H 0.45601 0.48745 1.15373 0.0
H289 H 0.32543 0.53446 1.11973 0.0
O290 O 0.22174 0.8482 1.10213 0.0
Tb291 Tb 0.18754 0.79033 1.14128 0.0
Eu292 Eu 0.28326 0.78845 0.21954 0.0
C293 C 0.2035 0.87447 1.0573 0.0
O294 O 0.22633 0.9091 1.03654 0.0
C295 C 0.26017 0.72175 1.09062 0.0
O296 O 0.27787 0.75129 0.31291 0.0
C297 C 0.35424 0.83666 0.23418 0.0
C298 C 0.2872 0.70936 0.31954 0.0
O299 O 0.26593 0.68755 0.36484 0.0
C300 C 0.19136 0.77401 0.28499 0.0
C301 C 0.37594 0.86293 0.28611 0.0
C302 C 0.40801 0.89593 0.26859 0.0
C303 C 0.42075 0.92742 0.31597 0.0
C304 C 0.3962 0.92706 0.37433 0.0
C305 C 0.37966 0.88722 0.40032 0.0
C306 C 0.3663 0.85513 0.35398 0.0
O307 O 0.21842 0.73559 1.08876 0.0
O308 O 0.28973 0.73864 1.13237 0.0
O309 O 0.12058 0.78352 1.10227 0.0
O310 O 0.12978 0.81971 0.18934 0.0
C311 C 0.09968 0.79991 1.15346 0.0
O312 O 0.2229 0.80462 0.28706 0.0
O313 O 0.18929 0.75149 0.2306 0.0
O314 O 0.35325 0.7934 0.24454 0.0
O315 O 0.31658 0.85284 0.20951 0.0
H316 H 0.42214 0.89709 0.21961 0.0
H317 H 0.3957 -0.04402 0.40374 0.0
H318 H 0.34871 0.8254 0.36973 0.0
O319 O 0.03496 0.72173 0.35216 0.0
Tb320 Tb 0.09283 0.68752 0.39129 0.0
Eu321 Eu 0.09469 0.78323 0.46954 0.0
C322 C 0.00869 0.70349 0.30733 0.0
O323 O -0.02594 0.72632 0.28658 0.0
C324 C 0.16141 0.76015 0.34063 0.0
O325 O 0.13185 0.77787 0.56292 0.0
C326 C 0.04646 0.85418 0.48417 0.0
C327 C 0.17377 0.78718 0.56955 0.0
O328 O 0.19559 0.76591 0.61484 0.0
C329 C 0.10917 0.69135 0.535 0.0
C330 C 0.02018 0.87588 0.5361 0.0
C331 C -0.01281 0.90796 0.51858 0.0
C332 C -0.04431 0.9207 0.56596 0.0
C333 C -0.04396 0.89614 0.62431 0.0
C334 C -0.00413 0.87959 0.65031 0.0
C335 C 0.02797 0.86623 0.60397 0.0
O336 O 0.14758 0.71839 0.33877 0.0
O337 O 0.14451 0.7897 0.38237 0.0
O338 O 0.09964 0.62057 0.35227 0.0
O339 O 0.06345 0.62977 0.43935 0.0
C340 C 0.08325 0.59967 0.40346 0.0
O341 O 0.07853 0.72286 0.53705 0.0
O342 O 0.13169 0.68927 0.48061 0.0
O343 O 0.08972 0.85321 0.49452 0.0
O344 O 0.03028 0.81652 0.4595 0.0
H345 H -0.01396 0.9221 0.46961 0.0
H346 H 0.92712 0.89565 0.65372 0.0
H347 H 0.0577 0.84863 0.61972 0.0
O348 O 0.14121 0.84272 0.99404 0.0
Tb349 Tb 0.18269 0.79045 0.95297 0.0
Eu350 Eu 0.08451 0.77298 0.87733 0.0
C351 C 0.15591 0.87124 1.03873 0.0
O352 O 0.12855 0.90222 1.0601 0.0
C353 C 0.12123 0.71128 1.00439 0.0
O354 O 0.05493 0.73825 0.78983 0.0
C355 C 0.02469 0.8339 0.8885 0.0
C356 C 0.0657 0.69725 0.77581 0.0
O357 O 0.04483 0.67673 0.72811 0.0
C358 C 0.17849 0.76905 0.80861 0.0
C359 C 0.00382 0.86115 0.83751 0.0
C360 C -0.027 0.89501 0.85496 0.0
C361 C -0.03805 0.92703 0.80767 0.0
C362 C -0.01297 0.92636 0.74972 0.0
C363 C 0.00244 0.88609 0.72354 0.0
C364 C 0.01386 0.85332 0.76978 0.0
O365 O 0.16101 0.73015 1.0027 0.0
O366 O 0.0872 0.72565 0.96815 0.0
O367 O 0.23498 0.82683 0.90209 0.0
O368 O 0.25027 0.79385 0.99048 0.0
C369 C 0.26791 0.81197 0.93785 0.0
O370 O 0.14026 0.79013 0.80292 0.0
O371 O 0.18703 0.75066 0.86493 0.0
O372 O 0.01491 0.7913 0.88463 0.0
O373 O 0.06747 0.84192 0.89941 0.0
H374 H -0.0415 0.8964 0.90369 0.0
H375 H -0.01074 -0.04436 0.72109 0.0
H376 H 0.03048 0.82305 0.7541 0.0
O377 O 0.04044 0.6412 0.24405 0.0
Tb378 Tb 0.0927 0.68268 0.20298 0.0
Eu379 Eu 0.11016 0.58451 1.12734 0.0
C380 C 0.01192 0.6559 0.28875 0.0
O381 O -0.01906 0.62855 0.31012 0.0
C382 C 0.17187 0.62122 0.25439 0.0
O383 O 0.14488 0.55493 1.03983 0.0
C384 C 0.04921 0.52471 1.1385 0.0
C385 C 0.18588 0.5657 1.02581 0.0
O386 O 0.20641 0.54483 0.9781 0.0
C387 C 0.11412 0.67848 1.05862 0.0
C388 C 0.02196 0.50385 1.08752 0.0
C389 C -0.0119 0.47302 1.10497 0.0
C390 C -0.04392 0.46198 1.05768 0.0
C391 C -0.04326 0.48705 0.99973 0.0
C392 C -0.00298 0.50247 0.97355 0.0
C393 C 0.02979 0.51389 1.01979 0.0
O394 O 0.15302 0.661 0.2527 0.0
O395 O 0.15749 0.58719 0.21816 0.0
O396 O 0.05632 0.73497 1.1521 0.0
O397 O 0.0893 0.75026 0.24049 0.0
C398 C 0.07119 0.7679 0.18786 0.0
O399 O 0.093 0.64027 1.05294 0.0
O400 O 0.1325 0.68702 1.11494 0.0
O401 O 0.09182 0.51492 1.13463 0.0
O402 O 0.04121 0.56749 1.14942 0.0
H403 H -0.01328 0.45852 1.1537 0.0
H404 H 0.92746 0.48928 0.9711 0.0
H405 H 0.06006 0.53051 1.00411 0.0
O406 O 0.24196 0.54041 0.49403 0.0
Tb407 Tb 0.20048 0.59268 0.45297 0.0
Eu408 Eu 0.29865 0.61014 0.37733 0.0
C409 C 0.22726 0.51189 0.53872 0.0
O410 O 0.25463 0.48091 0.56008 0.0
C411 C 0.26194 0.67185 0.50438 0.0
O412 O 0.32824 0.64486 0.28983 0.0
C413 C 0.35844 0.5492 0.3885 0.0
C414 C 0.31747 0.68586 0.2758 0.0
O415 O 0.33834 0.70639 0.2281 0.0
C416 C 0.20467 0.6141 0.30862 0.0
C417 C 0.3793 0.52194 0.33751 0.0
C418 C 0.41012 0.48807 0.35496 0.0
C419 C 0.42115 0.45604 0.30767 0.0
C420 C 0.39608 0.45672 0.24972 0.0
C421 C 0.38068 0.497 0.22354 0.0
C422 C 0.36927 0.52977 0.26979 0.0
O423 O 0.22216 0.65298 0.5027 0.0
O424 O 0.29597 0.65747 0.46815 0.0
O425 O 0.14819 0.5563 0.40209 0.0
O426 O 0.1329 0.58927 0.49049 0.0
C427 C 0.11526 0.57116 0.43786 0.0
O428 O 0.24289 0.593 0.30293 0.0
O429 O 0.19614 0.63248 0.36494 0.0
O430 O 0.36824 0.5918 0.38463 0.0
O431 O 0.31566 0.5412 0.39942 0.0
H432 H 0.42462 0.48668 0.40369 0.0
H433 H 0.39384 0.42744 0.22109 0.0
H434 H 0.35266 0.56005 0.25411 0.0
O435 O 0.34272 0.74194 0.74403 0.0
Tb436 Tb 0.29046 0.70045 0.70298 0.0
Eu437 Eu 0.273 0.79863 0.62733 0.0
C438 C 0.37125 0.72724 0.78872 0.0
O439 O 0.40223 0.7546 0.81008 0.0
C440 C 0.21128 0.76191 0.75436 0.0
O441 O 0.23828 0.82821 0.53982 0.0
C442 C 0.33395 0.85842 0.6385 0.0
C443 C 0.19728 0.81744 0.52581 0.0
O444 O 0.17675 0.83832 0.47811 0.0
C445 C 0.26905 0.70465 0.55861 0.0
C446 C 0.3612 0.87929 0.58751 0.0
C447 C 0.39506 0.91012 0.60496 0.0
C448 C 0.42709 0.92116 0.55768 0.0
C449 C 0.42643 0.89608 0.49973 0.0
C450 C 0.38616 0.88066 0.47355 0.0
C451 C 0.35338 0.86924 0.51979 0.0
O452 O 0.23014 0.72213 0.7527 0.0
O453 O 0.22568 0.79594 0.71815 0.0
O454 O 0.32684 0.64817 0.65209 0.0
O455 O 0.29386 0.63287 0.74048 0.0
C456 C 0.31198 0.61524 0.68785 0.0
O457 O 0.29016 0.74286 0.55293 0.0
O458 O 0.25066 0.69612 0.61493 0.0
O459 O 0.29135 0.86821 0.63463 0.0
O460 O 0.34195 0.81564 0.64941 0.0
H461 H 0.39643 0.92462 0.65369 0.0
H462 H 0.45571 0.89386 0.47111 0.0
H463 H 0.32312 0.85262 0.5041 0.0
loop_
_geom_bond_atom_site_label_1
_geom_bond_atom_site_label_2
_geom_bond_distance
_geom_bond_site_symmetry_2
_ccdc_geom_bond_type
O0 Tb1 2.292 . S
O0 C3 1.255 . S
Tb1 O0 2.292 . S
Tb1 O17 2.326 . S
Tb1 O19 2.500 . S
Tb1 O20 2.473 1_556 S
Tb1 O23 2.324 1_556 S
Eu2 O6 2.292 . S
Eu2 C7 2.852 . S
Eu2 O18 2.324 1_554 S
Eu2 O22 2.326 . S
Eu2 O24 2.500 . S
Eu2 O25 2.473 . S
C3 O0 1.255 . S
C3 O4 1.247 . S
O4 C3 1.247 . S
C5 O17 1.242 . S
C5 O18 1.258 . S
O6 Eu2 2.292 . S
O6 C8 1.255 . S
C7 Eu2 2.852 . S
C7 C11 1.503 . S
C7 O24 1.273 . S
C7 O25 1.257 . S
C8 O6 1.255 . S
C8 O9 1.247 . S
O9 C8 1.247 . S
C10 O22 1.242 . S
C10 O23 1.258 . S
C11 C7 1.503 . S
C11 C12 1.379 . S
C11 C16 1.392 . S
C12 C11 1.379 . S
C12 C13 1.404 1_545 S
C12 H26 0.929 . S
C13 C12 1.404 1_565 S
C13 C14 1.389 . S
C14 C13 1.389 . S
C14 C15 1.399 1_565 S
C14 H27 0.931 . S
C15 C14 1.399 1_545 S
C15 C16 1.390 . S
C16 C11 1.392 . S
C16 C15 1.390 . S
C16 H28 0.929 . S
O17 Tb1 2.326 . S
O17 C5 1.242 . S
O18 Eu2 2.324 1_556 S
O18 C5 1.258 . S
O19 Tb1 2.500 . S
O19 C21 1.273 . S
O20 Tb1 2.473 1_554 S
O20 C21 1.257 1_554 S
C21 O19 1.273 . S
C21 O20 1.257 1_556 S
O22 Eu2 2.326 . S
O22 C10 1.242 . S
O23 Tb1 2.324 1_554 S
O23 C10 1.258 . S
O24 Eu2 2.500 . S
O24 C7 1.273 . S
O25 Eu2 2.473 . S
O25 C7 1.257 . S
H26 C12 0.929 . S
H27 C14 0.931 . S
H28 C16 0.929 . S
O29 Tb30 2.292 . S
O29 C32 1.255 . S
Tb30 O29 2.292 . S
Tb30 O46 2.326 . S
Tb30 O48 2.500 . S
Tb30 O49 2.473 . S
Tb30 O52 2.324 . S
Eu31 O35 2.292 . S
Eu31 C36 2.852 . S
Eu31 O47 2.324 . S
Eu31 O51 2.326 . S
Eu31 O53 2.500 . S
Eu31 O54 2.473 . S
C32 O29 1.255 . S
C32 O33 1.247 . S
O33 C32 1.247 . S
C34 O46 1.242 . S
C34 O47 1.258 . S
O35 Eu31 2.292 . S
O35 C37 1.255 . S
C36 Eu31 2.852 . S
C36 C40 1.503 . S
C36 O53 1.273 . S
C36 O54 1.257 . S
C37 O35 1.255 . S
C37 O38 1.247 . S
O38 C37 1.247 . S
C39 O51 1.242 . S
C39 O52 1.258 . S
C40 C36 1.503 . S
C40 C41 1.379 . S
C40 C45 1.392 . S
C41 C40 1.379 . S
C41 C42 1.404 1_655 S
C41 H55 0.929 . S
C42 C41 1.404 1_455 S
C42 C43 1.389 . S
C43 C42 1.389 . S
C43 C44 1.399 1_455 S
C43 H56 0.931 . S
C44 C43 1.399 1_655 S
C44 C45 1.390 . S
C45 C40 1.392 . S
C45 C44 1.390 . S
C45 H57 0.929 . S
O46 Tb30 2.326 . S
O46 C34 1.242 . S
O47 Eu31 2.324 . S
O47 C34 1.258 . S
O48 Tb30 2.500 . S
O48 C50 1.273 . S
O49 Tb30 2.473 . S
O49 C50 1.257 . S
C50 O48 1.273 . S
C50 O49 1.257 . S
O51 Eu31 2.326 . S
O51 C39 1.242 . S
O52 Tb30 2.324 . S
O52 C39 1.258 . S
O53 Eu31 2.500 . S
O53 C36 1.273 . S
O54 Eu31 2.473 . S
O54 C36 1.257 . S
H55 C41 0.929 . S
H56 C43 0.931 . S
H57 C45 0.929 . S
O58 Tb59 2.292 . S
O58 C61 1.255 . S
Tb59 O58 2.292 . S
Tb59 O75 2.326 . S
Tb59 O77 2.500 . S
Tb59 O78 2.473 . S
Tb59 O81 2.324 . S
Eu60 O64 2.292 . S
Eu60 C65 2.852 . S
Eu60 O76 2.324 . S
Eu60 O80 2.326 . S
Eu60 O82 2.500 . S
Eu60 O83 2.473 . S
C61 O58 1.255 . S
C61 O62 1.247 . S
O62 C61 1.247 . S
C63 O75 1.242 . S
C63 O76 1.258 . S
O64 Eu60 2.292 . S
O64 C66 1.255 . S
C65 Eu60 2.852 . S
C65 C69 1.503 . S
C65 O82 1.273 . S
C65 O83 1.257 . S
C66 O64 1.255 . S
C66 O67 1.247 . S
O67 C66 1.247 . S
C68 O80 1.242 . S
C68 O81 1.258 . S
C69 C65 1.503 . S
C69 C70 1.379 . S
C69 C74 1.392 . S
C70 C69 1.379 . S
C70 C71 1.404 . S
C70 H84 0.929 . S
C71 C70 1.404 . S
C71 C72 1.389 . S
C72 C71 1.389 . S
C72 C73 1.399 . S
C72 H85 0.931 . S
C73 C72 1.399 . S
C73 C74 1.390 . S
C74 C69 1.392 . S
C74 C73 1.390 . S
C74 H86 0.929 . S
O75 Tb59 2.326 . S
O75 C63 1.242 . S
O76 Eu60 2.324 . S
O76 C63 1.258 . S
O77 Tb59 2.500 . S
O77 C79 1.273 . S
O78 Tb59 2.473 . S
O78 C79 1.257 . S
C79 O77 1.273 . S
C79 O78 1.257 . S
O80 Eu60 2.326 . S
O80 C68 1.242 . S
O81 Tb59 2.324 . S
O81 C68 1.258 . S
O82 Eu60 2.500 . S
O82 C65 1.273 . S
O83 Eu60 2.473 . S
O83 C65 1.257 . S
H84 C70 0.929 . S
H85 C72 0.931 . S
H86 C74 0.929 . S
O87 Tb88 2.292 . S
O87 C90 1.255 . S
Tb88 O87 2.292 . S
Tb88 O104 2.326 . S
Tb88 O106 2.500 . S
Tb88 O107 2.473 . S
Tb88 O110 2.324 . S
Eu89 O93 2.292 . S
Eu89 C94 2.852 . S
Eu89 O105 2.324 . S
Eu89 O109 2.326 . S
Eu89 O111 2.500 . S
Eu89 O112 2.473 . S
C90 O87 1.255 . S
C90 O91 1.247 . S
O91 C90 1.247 . S
C92 O104 1.242 . S
C92 O105 1.258 . S
O93 Eu89 2.292 . S
O93 C95 1.255 . S
C94 Eu89 2.852 . S
C94 C98 1.503 . S
C94 O111 1.273 . S
C94 O112 1.257 . S
C95 O93 1.255 . S
C95 O96 1.247 . S
O96 C95 1.247 . S
C97 O109 1.242 . S
C97 O110 1.258 . S
C98 C94 1.503 . S
C98 C99 1.379 . S
C98 C103 1.392 . S
C99 C98 1.379 . S
C99 C100 1.404 . S
C99 H113 0.929 . S
C100 C99 1.404 . S
C100 C101 1.389 . S
C101 C100 1.389 . S
C101 C102 1.399 . S
C101 H114 0.931 . S
C102 C101 1.399 . S
C102 C103 1.390 . S
C103 C98 1.392 . S
C103 C102 1.390 . S
C103 H115 0.929 . S
O104 Tb88 2.326 . S
O104 C92 1.242 . S
O105 Eu89 2.324 . S
O105 C92 1.258 . S
O106 Tb88 2.500 . S
O106 C108 1.273 . S
O107 Tb88 2.473 . S
O107 C108 1.257 . S
C108 O106 1.273 . S
C108 O107 1.257 . S
O109 Eu89 2.326 . S
O109 C97 1.242 . S
O110 Tb88 2.324 . S
O110 C97 1.258 . S
O111 Eu89 2.500 . S
O111 C94 1.273 . S
O112 Eu89 2.473 . S
O112 C94 1.257 . S
H113 C99 0.929 . S
H114 C101 0.931 . S
H115 C103 0.929 . S
O116 Tb117 2.292 . S
O116 C119 1.255 . S
Tb117 O116 2.292 . S
Tb117 O133 2.326 . S
Tb117 O135 2.500 . S
Tb117 O136 2.473 . S
Tb117 O139 2.324 . S
Eu118 O122 2.292 . S
Eu118 C123 2.852 . S
Eu118 O134 2.324 . S
Eu118 O138 2.326 . S
Eu118 O140 2.500 . S
Eu118 O141 2.473 . S
C119 O116 1.255 . S
C119 O120 1.247 . S
O120 C119 1.247 . S
C121 O133 1.242 . S
C121 O134 1.258 . S
O122 Eu118 2.292 . S
O122 C124 1.255 . S
C123 Eu118 2.852 . S
C123 C127 1.503 . S
C123 O140 1.273 . S
C123 O141 1.257 . S
C124 O122 1.255 . S
C124 O125 1.247 . S
O125 C124 1.247 . S
C126 O138 1.242 . S
C126 O139 1.258 . S
C127 C123 1.503 . S
C127 C128 1.379 . S
C127 C132 1.392 . S
C128 C127 1.379 . S
C128 C129 1.404 . S
C128 H142 0.929 . S
C129 C128 1.404 . S
C129 C130 1.389 . S
C130 C129 1.389 . S
C130 C131 1.399 . S
C130 H143 0.931 . S
C131 C130 1.399 . S
C131 C132 1.390 . S
C132 C127 1.392 . S
C132 C131 1.390 . S
C132 H144 0.929 . S
O133 Tb117 2.326 . S
O133 C121 1.242 . S
O134 Eu118 2.324 . S
O134 C121 1.258 . S
O135 Tb117 2.500 . S
O135 C137 1.273 . S
O136 Tb117 2.473 . S
O136 C137 1.257 . S
C137 O135 1.273 . S
C137 O136 1.257 . S
O138 Eu118 2.326 . S
O138 C126 1.242 . S
O139 Tb117 2.324 . S
O139 C126 1.258 . S
O140 Eu118 2.500 . S
O140 C123 1.273 . S
O141 Eu118 2.473 . S
O141 C123 1.257 . S
H142 C128 0.929 . S
H143 C130 0.931 . S
H144 C132 0.929 . S
O145 Tb146 2.292 . S
O145 C148 1.255 . S
Tb146 O145 2.292 . S
Tb146 O162 2.326 . S
Tb146 O164 2.500 . S
Tb146 O165 2.473 . S
Tb146 O168 2.324 . S
Eu147 O151 2.292 . S
Eu147 C152 2.852 . S
Eu147 O163 2.324 . S
Eu147 O167 2.326 . S
Eu147 O169 2.500 . S
Eu147 O170 2.473 . S
C148 O145 1.255 . S
C148 O149 1.247 . S
O149 C148 1.247 . S
C150 O162 1.242 . S
C150 O163 1.258 . S
O151 Eu147 2.292 . S
O151 C153 1.255 . S
C152 Eu147 2.852 . S
C152 C156 1.503 . S
C152 O169 1.273 . S
C152 O170 1.257 . S
C153 O151 1.255 . S
C153 O154 1.247 . S
O154 C153 1.247 . S
C155 O167 1.242 . S
C155 O168 1.258 . S
C156 C152 1.503 . S
C156 C157 1.379 . S
C156 C161 1.392 . S
C157 C156 1.379 . S
C157 C158 1.404 . S
C157 H171 0.929 . S
C158 C157 1.404 . S
C158 C159 1.389 . S
C159 C158 1.389 . S
C159 C160 1.399 . S
C159 H172 0.931 . S
C160 C159 1.399 . S
C160 C161 1.390 . S
C161 C156 1.392 . S
C161 C160 1.390 . S
C161 H173 0.929 . S
O162 Tb146 2.326 . S
O162 C150 1.242 . S
O163 Eu147 2.324 . S
O163 C150 1.258 . S
O164 Tb146 2.500 . S
O164 C166 1.273 . S
O165 Tb146 2.473 . S
O165 C166 1.257 . S
C166 O164 1.273 . S
C166 O165 1.257 . S
O167 Eu147 2.326 . S
O167 C155 1.242 . S
O168 Tb146 2.324 . S
O168 C155 1.258 . S
O169 Eu147 2.500 . S
O169 C152 1.273 . S
O170 Eu147 2.473 . S
O170 C152 1.257 . S
H171 C157 0.929 . S
H172 C159 0.931 . S
H173 C161 0.929 . S
O174 Tb175 2.292 . S
O174 C177 1.255 . S
Tb175 O174 2.292 . S
Tb175 O191 2.326 . S
Tb175 O193 2.500 . S
Tb175 O194 2.473 . S
Tb175 O197 2.324 . S
Eu176 O180 2.292 . S
Eu176 C181 2.852 . S
Eu176 O192 2.324 . S
Eu176 O196 2.326 . S
Eu176 O198 2.500 . S
Eu176 O199 2.473 . S
C177 O174 1.255 . S
C177 O178 1.247 . S
O178 C177 1.247 . S
C179 O191 1.242 . S
C179 O192 1.258 . S
O180 Eu176 2.292 . S
O180 C182 1.255 . S
C181 Eu176 2.852 . S
C181 C185 1.503 . S
C181 O198 1.273 . S
C181 O199 1.257 . S
C182 O180 1.255 . S
C182 O183 1.247 . S
O183 C182 1.247 . S
C184 O196 1.242 . S
C184 O197 1.258 . S
C185 C181 1.503 . S
C185 C186 1.379 . S
C185 C190 1.392 . S
C186 C185 1.379 . S
C186 C187 1.404 1_545 S
C186 H200 0.929 . S
C187 C186 1.404 1_565 S
C187 C188 1.389 . S
C188 C187 1.389 . S
C188 C189 1.399 1_565 S
C188 H201 0.931 . S
C189 C188 1.399 1_545 S
C189 C190 1.390 . S
C190 C185 1.392 . S
C190 C189 1.390 . S
C190 H202 0.929 . S
O191 Tb175 2.326 . S
O191 C179 1.242 . S
O192 Eu176 2.324 . S
O192 C179 1.258 . S
O193 Tb175 2.500 . S
O193 C195 1.273 . S
O194 Tb175 2.473 . S
O194 C195 1.257 . S
C195 O193 1.273 . S
C195 O194 1.257 . S
O196 Eu176 2.326 . S
O196 C184 1.242 . S
O197 Tb175 2.324 . S
O197 C184 1.258 . S
O198 Eu176 2.500 . S
O198 C181 1.273 . S
O199 Eu176 2.473 . S
O199 C181 1.257 . S
H200 C186 0.929 . S
H201 C188 0.931 . S
H202 C190 0.929 . S
O203 Tb204 2.292 . S
O203 C206 1.255 . S
Tb204 O203 2.292 . S
Tb204 O220 2.326 . S
Tb204 O222 2.500 . S
Tb204 O223 2.473 1_554 S
Tb204 O226 2.324 1_554 S
Eu205 O209 2.292 . S
Eu205 C210 2.852 . S
Eu205 O221 2.324 1_556 S
Eu205 O225 2.326 . S
Eu205 O227 2.500 . S
Eu205 O228 2.473 . S
C206 O203 1.255 . S
C206 O207 1.247 . S
O207 C206 1.247 . S
C208 O220 1.242 . S
C208 O221 1.258 . S
O209 Eu205 2.292 . S
O209 C211 1.255 . S
C210 Eu205 2.852 . S
C210 C214 1.503 . S
C210 O227 1.273 . S
C210 O228 1.257 . S
C211 O209 1.255 . S
C211 O212 1.247 . S
O212 C211 1.247 . S
C213 O225 1.242 . S
C213 O226 1.258 . S
C214 C210 1.503 . S
C214 C215 1.379 . S
C214 C219 1.392 . S
C215 C214 1.379 . S
C215 C216 1.404 1_655 S
C215 H229 0.929 . S
C216 C215 1.404 1_455 S
C216 C217 1.389 . S
C217 C216 1.389 . S
C217 C218 1.399 1_455 S
C217 H230 0.931 . S
C218 C217 1.399 1_655 S
C218 C219 1.390 . S
C219 C214 1.392 . S
C219 C218 1.390 . S
C219 H231 0.929 . S
O220 Tb204 2.326 . S
O220 C208 1.242 . S
O221 Eu205 2.324 1_554 S
O221 C208 1.258 . S
O222 Tb204 2.500 . S
O222 C224 1.273 . S
O223 Tb204 2.473 1_556 S
O223 C224 1.257 1_556 S
C224 O222 1.273 . S
C224 O223 1.257 1_554 S
O225 Eu205 2.326 . S
O225 C213 1.242 . S
O226 Tb204 2.324 1_556 S
O226 C213 1.258 . S
O227 Eu205 2.500 . S
O227 C210 1.273 . S
O228 Eu205 2.473 . S
O228 C210 1.257 . S
H229 C215 0.929 . S
H230 C217 0.931 . S
H231 C219 0.929 . S
O232 Tb233 2.292 . S
O232 C235 1.255 . S
Tb233 O232 2.292 . S
Tb233 O249 2.326 . S
Tb233 O251 2.500 . S
Tb233 O252 2.473 . S
Tb233 O255 2.324 . S
Eu234 O238 2.292 . S
Eu234 C239 2.852 . S
Eu234 O250 2.324 . S
Eu234 O254 2.326 . S
Eu234 O256 2.500 . S
Eu234 O257 2.473 . S
C235 O232 1.255 . S
C235 O236 1.247 . S
O236 C235 1.247 . S
C237 O249 1.242 . S
C237 O250 1.258 . S
O238 Eu234 2.292 . S
O238 C240 1.255 . S
C239 Eu234 2.852 . S
C239 C243 1.503 . S
C239 O256 1.273 . S
C239 O257 1.257 . S
C240 O238 1.255 . S
C240 O241 1.247 . S
O241 C240 1.247 . S
C242 O254 1.242 . S
C242 O255 1.258 . S
C243 C239 1.503 . S
C243 C244 1.379 . S
C243 C248 1.392 . S
C244 C243 1.379 . S
C244 C245 1.404 . S
C244 H258 0.929 . S
C245 C244 1.404 . S
C245 C246 1.389 . S
C246 C245 1.389 . S
C246 C247 1.399 . S
C246 H259 0.931 . S
C247 C246 1.399 . S
C247 C248 1.390 . S
C248 C243 1.392 . S
C248 C247 1.390 . S
C248 H260 0.929 . S
O249 Tb233 2.326 . S
O249 C237 1.242 . S
O250 Eu234 2.324 . S
O250 C237 1.258 . S
O251 Tb233 2.500 . S
O251 C253 1.273 . S
O252 Tb233 2.473 . S
O252 C253 1.257 . S
C253 O251 1.273 . S
C253 O252 1.257 . S
O254 Eu234 2.326 . S
O254 C242 1.242 . S
O255 Tb233 2.324 . S
O255 C242 1.258 . S
O256 Eu234 2.500 . S
O256 C239 1.273 . S
O257 Eu234 2.473 . S
O257 C239 1.257 . S
H258 C244 0.929 . S
H259 C246 0.931 . S
H260 C248 0.929 . S
O261 Tb262 2.292 . S
O261 C264 1.255 . S
Tb262 O261 2.292 . S
Tb262 O278 2.326 . S
Tb262 O280 2.500 . S
Tb262 O281 2.473 . S
Tb262 O284 2.324 . S
Eu263 O267 2.292 . S
Eu263 C268 2.852 . S
Eu263 O279 2.324 . S
Eu263 O283 2.326 . S
Eu263 O285 2.500 . S
Eu263 O286 2.473 . S
C264 O261 1.255 . S
C264 O265 1.247 . S
O265 C264 1.247 . S
C266 O278 1.242 . S
C266 O279 1.258 . S
O267 Eu263 2.292 . S
O267 C269 1.255 . S
C268 Eu263 2.852 . S
C268 C272 1.503 . S
C268 O285 1.273 . S
C268 O286 1.257 . S
C269 O267 1.255 . S
C269 O270 1.247 . S
O270 C269 1.247 . S
C271 O283 1.242 . S
C271 O284 1.258 . S
C272 C268 1.503 . S
C272 C273 1.379 . S
C272 C277 1.392 . S
C273 C272 1.379 . S
C273 C274 1.404 . S
C273 H287 0.929 . S
C274 C273 1.404 . S
C274 C275 1.389 . S
C275 C274 1.389 . S
C275 C276 1.399 . S
C275 H288 0.931 . S
C276 C275 1.399 . S
C276 C277 1.390 . S
C277 C272 1.392 . S
C277 C276 1.390 . S
C277 H289 0.929 . S
O278 Tb262 2.326 . S
O278 C266 1.242 . S
O279 Eu263 2.324 . S
O279 C266 1.258 . S
O280 Tb262 2.500 . S
O280 C282 1.273 . S
O281 Tb262 2.473 . S
O281 C282 1.257 . S
C282 O280 1.273 . S
C282 O281 1.257 . S
O283 Eu263 2.326 . S
O283 C271 1.242 . S
O284 Tb262 2.324 . S
O284 C271 1.258 . S
O285 Eu263 2.500 . S
O285 C268 1.273 . S
O286 Eu263 2.473 . S
O286 C268 1.257 . S
H287 C273 0.929 . S
H288 C275 0.931 . S
H289 C277 0.929 . S
O290 Tb291 2.292 . S
O290 C293 1.255 . S
Tb291 O290 2.292 . S
Tb291 O307 2.326 . S
Tb291 O309 2.500 . S
Tb291 O310 2.473 1_556 S
Tb291 O313 2.324 1_556 S
Eu292 O296 2.292 . S
Eu292 C297 2.852 . S
Eu292 O308 2.324 1_554 S
Eu292 O312 2.326 . S
Eu292 O314 2.500 . S
Eu292 O315 2.473 . S
C293 O290 1.255 . S
C293 O294 1.247 . S
O294 C293 1.247 . S
C295 O307 1.242 . S
C295 O308 1.258 . S
O296 Eu292 2.292 . S
O296 C298 1.255 . S
C297 Eu292 2.852 . S
C297 C301 1.503 . S
C297 O314 1.273 . S
C297 O315 1.257 . S
C298 O296 1.255 . S
C298 O299 1.247 . S
O299 C298 1.247 . S
C300 O312 1.242 . S
C300 O313 1.258 . S
C301 C297 1.503 . S
C301 C302 1.379 . S
C301 C306 1.392 . S
C302 C301 1.379 . S
C302 C303 1.404 1_565 S
C302 H316 0.929 . S
C303 C302 1.404 1_545 S
C303 C304 1.389 . S
C304 C303 1.389 . S
C304 C305 1.399 1_545 S
C304 H317 0.931 . S
C305 C304 1.399 1_565 S
C305 C306 1.390 . S
C306 C301 1.392 . S
C306 C305 1.390 . S
C306 H318 0.929 . S
O307 Tb291 2.326 . S
O307 C295 1.242 . S
O308 Eu292 2.324 1_556 S
O308 C295 1.258 . S
O309 Tb291 2.500 . S
O309 C311 1.273 . S
O310 Tb291 2.473 1_554 S
O310 C311 1.257 1_554 S
C311 O309 1.273 . S
C311 O310 1.257 1_556 S
O312 Eu292 2.326 . S
O312 C300 1.242 . S
O313 Tb291 2.324 1_554 S
O313 C300 1.258 . S
O314 Eu292 2.500 . S
O314 C297 1.273 . S
O315 Eu292 2.473 . S
O315 C297 1.257 . S
H316 C302 0.929 . S
H317 C304 0.931 . S
H318 C306 0.929 . S
O319 Tb320 2.292 . S
O319 C322 1.255 . S
Tb320 O319 2.292 . S
Tb320 O336 2.326 . S
Tb320 O338 2.500 . S
Tb320 O339 2.473 . S
Tb320 O342 2.324 . S
Eu321 O325 2.292 . S
Eu321 C326 2.852 . S
Eu321 O337 2.324 . S
Eu321 O341 2.326 . S
Eu321 O343 2.500 . S
Eu321 O344 2.473 . S
C322 O319 1.255 . S
C322 O323 1.247 . S
O323 C322 1.247 . S
C324 O336 1.242 . S
C324 O337 1.258 . S
O325 Eu321 2.292 . S
O325 C327 1.255 . S
C326 Eu321 2.852 . S
C326 C330 1.503 . S
C326 O343 1.273 . S
C326 O344 1.257 . S
C327 O325 1.255 . S
C327 O328 1.247 . S
O328 C327 1.247 . S
C329 O341 1.242 . S
C329 O342 1.258 . S
C330 C326 1.503 . S
C330 C331 1.379 . S
C330 C335 1.392 . S
C331 C330 1.379 . S
C331 C332 1.404 1_455 S
C331 H345 0.929 . S
C332 C331 1.404 1_655 S
C332 C333 1.389 . S
C333 C332 1.389 . S
C333 C334 1.399 1_655 S
C333 H346 0.931 . S
C334 C333 1.399 1_455 S
C334 C335 1.390 . S
C335 C330 1.392 . S
C335 C334 1.390 . S
C335 H347 0.929 . S
O336 Tb320 2.326 . S
O336 C324 1.242 . S
O337 Eu321 2.324 . S
O337 C324 1.258 . S
O338 Tb320 2.500 . S
O338 C340 1.273 . S
O339 Tb320 2.473 . S
O339 C340 1.257 . S
C340 O338 1.273 . S
C340 O339 1.257 . S
O341 Eu321 2.326 . S
O341 C329 1.242 . S
O342 Tb320 2.324 . S
O342 C329 1.258 . S
O343 Eu321 2.500 . S
O343 C326 1.273 . S
O344 Eu321 2.473 . S
O344 C326 1.257 . S
H345 C331 0.929 . S
H346 C333 0.931 . S
H347 C335 0.929 . S
O348 Tb349 2.292 . S
O348 C351 1.255 . S
Tb349 O348 2.292 . S
Tb349 O365 2.326 . S
Tb349 O367 2.500 . S
Tb349 O368 2.473 . S
Tb349 O371 2.324 . S
Eu350 O354 2.292 . S
Eu350 C355 2.852 . S
Eu350 O366 2.324 . S
Eu350 O370 2.326 . S
Eu350 O372 2.500 . S
Eu350 O373 2.473 . S
C351 O348 1.255 . S
C351 O352 1.247 . S
O352 C351 1.247 . S
C353 O365 1.242 . S
C353 O366 1.258 . S
O354 Eu350 2.292 . S
O354 C356 1.255 . S
C355 Eu350 2.852 . S
C355 C359 1.503 . S
C355 O372 1.273 . S
C355 O373 1.257 . S
C356 O354 1.255 . S
C356 O357 1.247 . S
O357 C356 1.247 . S
C358 O370 1.242 . S
C358 O371 1.258 . S
C359 C355 1.503 . S
C359 C360 1.379 . S
C359 C364 1.392 . S
C360 C359 1.379 . S
C360 C361 1.404 1_565 S
C360 H374 0.929 . S
C361 C360 1.404 1_545 S
C361 C362 1.389 . S
C362 C361 1.389 . S
C362 C363 1.399 1_545 S
C362 H375 0.931 . S
C363 C362 1.399 1_565 S
C363 C364 1.390 . S
C364 C359 1.392 . S
C364 C363 1.390 . S
C364 H376 0.929 . S
O365 Tb349 2.326 . S
O365 C353 1.242 . S
O366 Eu350 2.324 . S
O366 C353 1.258 . S
O367 Tb349 2.500 . S
O367 C369 1.273 . S
O368 Tb349 2.473 . S
O368 C369 1.257 . S
C369 O367 1.273 . S
C369 O368 1.257 . S
O370 Eu350 2.326 . S
O370 C358 1.242 . S
O371 Tb349 2.324 . S
O371 C358 1.258 . S
O372 Eu350 2.500 . S
O372 C355 1.273 . S
O373 Eu350 2.473 . S
O373 C355 1.257 . S
H374 C360 0.929 . S
H375 C362 0.931 . S
H376 C364 0.929 . S
O377 Tb378 2.292 . S
O377 C380 1.255 . S
Tb378 O377 2.292 . S
Tb378 O394 2.326 . S
Tb378 O396 2.500 . S
Tb378 O397 2.473 1_554 S
Tb378 O400 2.324 1_554 S
Eu379 O383 2.292 . S
Eu379 C384 2.852 . S
Eu379 O395 2.324 1_556 S
Eu379 O399 2.326 . S
Eu379 O401 2.500 . S
Eu379 O402 2.473 . S
C380 O377 1.255 . S
C380 O381 1.247 . S
O381 C380 1.247 . S
C382 O394 1.242 . S
C382 O395 1.258 . S
O383 Eu379 2.292 . S
O383 C385 1.255 . S
C384 Eu379 2.852 . S
C384 C388 1.503 . S
C384 O401 1.273 . S
C384 O402 1.257 . S
C385 O383 1.255 . S
C385 O386 1.247 . S
O386 C385 1.247 . S
C387 O399 1.242 . S
C387 O400 1.258 . S
C388 C384 1.503 . S
C388 C389 1.379 . S
C388 C393 1.392 . S
C389 C388 1.379 . S
C389 C390 1.404 1_455 S
C389 H403 0.929 . S
C390 C389 1.404 1_655 S
C390 C391 1.389 . S
C391 C390 1.389 . S
C391 C392 1.399 1_655 S
C391 H404 0.931 . S
C392 C391 1.399 1_455 S
C392 C393 1.390 . S
C393 C388 1.392 . S
C393 C392 1.390 . S
C393 H405 0.929 . S
O394 Tb378 2.326 . S
O394 C382 1.242 . S
O395 Eu379 2.324 1_554 S
O395 C382 1.258 . S
O396 Tb378 2.500 . S
O396 C398 1.273 . S
O397 Tb378 2.473 1_556 S
O397 C398 1.257 1_556 S
C398 O396 1.273 . S
C398 O397 1.257 1_554 S
O399 Eu379 2.326 . S
O399 C387 1.242 . S
O400 Tb378 2.324 1_556 S
O400 C387 1.258 . S
O401 Eu379 2.500 . S
O401 C384 1.273 . S
O402 Eu379 2.473 . S
O402 C384 1.257 . S
H403 C389 0.929 . S
H404 C391 0.931 . S
H405 C393 0.929 . S
O406 Tb407 2.292 . S
O406 C409 1.255 . S
Tb407 O406 2.292 . S
Tb407 O423 2.326 . S
Tb407 O425 2.500 . S
Tb407 O426 2.473 . S
Tb407 O429 2.324 . S
Eu408 O412 2.292 . S
Eu408 C413 2.852 . S
Eu408 O424 2.324 . S
Eu408 O428 2.326 . S
Eu408 O430 2.500 . S
Eu408 O431 2.473 . S
C409 O406 1.255 . S
C409 O410 1.247 . S
O410 C409 1.247 . S
C411 O423 1.242 . S
C411 O424 1.258 . S
O412 Eu408 2.292 . S
O412 C414 1.255 . S
C413 Eu408 2.852 . S
C413 C417 1.503 . S
C413 O430 1.273 . S
C413 O431 1.257 . S
C414 O412 1.255 . S
C414 O415 1.247 . S
O415 C414 1.247 . S
C416 O428 1.242 . S
C416 O429 1.258 . S
C417 C413 1.503 . S
C417 C418 1.379 . S
C417 C422 1.392 . S
C418 C417 1.379 . S
C418 C419 1.404 . S
C418 H432 0.929 . S
C419 C418 1.404 . S
C419 C420 1.389 . S
C420 C419 1.389 . S
C420 C421 1.399 . S
C420 H433 0.931 . S
C421 C420 1.399 . S
C421 C422 1.390 . S
C422 C417 1.392 . S
C422 C421 1.390 . S
C422 H434 0.929 . S
O423 Tb407 2.326 . S
O423 C411 1.242 . S
O424 Eu408 2.324 . S
O424 C411 1.258 . S
O425 Tb407 2.500 . S
O425 C427 1.273 . S
O426 Tb407 2.473 . S
O426 C427 1.257 . S
C427 O425 1.273 . S
C427 O426 1.257 . S
O428 Eu408 2.326 . S
O428 C416 1.242 . S
O429 Tb407 2.324 . S
O429 C416 1.258 . S
O430 Eu408 2.500 . S
O430 C413 1.273 . S
O431 Eu408 2.473 . S
O431 C413 1.257 . S
H432 C418 0.929 . S
H433 C420 0.931 . S
H434 C422 0.929 . S
O435 Tb436 2.292 . S
O435 C438 1.255 . S
Tb436 O435 2.292 . S
Tb436 O452 2.326 . S
Tb436 O454 2.500 . S
Tb436 O455 2.473 . S
Tb436 O458 2.324 . S
Eu437 O441 2.292 . S
Eu437 C442 2.852 . S
Eu437 O453 2.324 . S
Eu437 O457 2.326 . S
Eu437 O459 2.500 . S
Eu437 O460 2.473 . S
C438 O435 1.255 . S
C438 O439 1.247 . S
O439 C438 1.247 . S
C440 O452 1.242 . S
C440 O453 1.258 . S
O441 Eu437 2.292 . S
O441 C443 1.255 . S
C442 Eu437 2.852 . S
C442 C446 1.503 . S
C442 O459 1.273 . S
C442 O460 1.257 . S
C443 O441 1.255 . S
C443 O444 1.247 . S
O444 C443 1.247 . S
C445 O457 1.242 . S
C445 O458 1.258 . S
C446 C442 1.503 . S
C446 C447 1.379 . S
C446 C451 1.392 . S
C447 C446 1.379 . S
C447 C448 1.404 . S
C447 H461 0.929 . S
C448 C447 1.404 . S
C448 C449 1.389 . S
C449 C448 1.389 . S
C449 C450 1.399 . S
C449 H462 0.931 . S
C450 C449 1.399 . S
C450 C451 1.390 . S
C451 C446 1.392 . S
C451 C450 1.390 . S
C451 H463 0.929 . S
O452 Tb436 2.326 . S
O452 C440 1.242 . S
O453 Eu437 2.324 . S
O453 C440 1.258 . S
O454 Tb436 2.500 . S
O454 C456 1.273 . S
O455 Tb436 2.473 . S
O455 C456 1.257 . S
C456 O454 1.273 . S
C456 O455 1.257 . S
O457 Eu437 2.326 . S
O457 C445 1.242 . S
O458 Tb436 2.324 . S
O458 C445 1.258 . S
O459 Eu437 2.500 . S
O459 C442 1.273 . S
O460 Eu437 2.473 . S
O460 C442 1.257 . S
H461 C447 0.929 . S
H462 C449 0.931 . S
H463 C451 0.929 . S
C21 C224 2.406 1_556 S
C137 C50 2.406 . S
C79 C166 2.406 . S
C108 C195 2.406 . S
C456 C253 2.406 . S
C369 C282 2.406 . S
C311 C398 2.406 1_556 S
C340 C427 2.406 . S
C97 C5 4.123 . S
C34 C10 4.123 . S
C63 C39 4.123 . S
C92 C68 4.123 . S
C121 C155 4.123 . S
C150 C184 4.123 . S
C213 C179 4.123 . S
C208 C126 4.123 . S
C329 C237 4.123 . S
C266 C242 4.123 . S
C271 C295 4.123 . S
C324 C300 4.123 . S
C353 C387 4.123 . S
C382 C416 4.123 . S
C411 C445 4.123 . S
C440 C358 4.123 . S
C124 C8 2.105 . S
C153 C37 2.105 . S
C66 C182 2.105 . S
C211 C95 2.105 . S
C356 C240 2.105 . S
C269 C385 2.105 . S
C414 C298 2.105 . S
C443 C327 2.105 . S
C177 C3 2.587 . S
C206 C32 2.587 . S
C61 C119 2.587 . S
C90 C148 2.587 . S
C235 C409 2.587 . S
C264 C438 2.587 . S
C351 C293 2.587 . S
C380 C322 2.587 . S
C160 C15 2.881 . S
C44 C189 2.881 . S
C73 C218 2.881 . S
C131 C102 2.881 1_554 S
C247 C392 2.881 . S
C421 C276 2.881 1_554 S
C305 C450 2.881 . S
C334 C363 2.881 . S
C13 C303 3.306 1_565 S
C42 C332 3.306 1_445 S
C245 C71 3.306 1_455 S
C274 C100 3.306 . S
C129 C419 3.306 . S
C158 C448 3.306 1_545 S
C361 C187 3.306 1_445 S
C390 C216 3.306 1_655 S
