# Generated by pormake.
# Topology uoy, (4)-cn, num edge types: 1
# Building blocks:
#     Node 0, Type 0, BuildingBlock: AZAVOO_clean_sbu_0, # of connection points: 4
#     Node 1, Type 0, BuildingBlock: AZAVOO_clean_sbu_0, # of connection points: 4
#     Node 2, Type 0, BuildingBlock: AZAVOO_clean_sbu_0, # of connection points: 4
#     Node 3, Type 0, BuildingBlock: AZAVOO_clean_sbu_0, # of connection points: 4
#     Node 4, Type 0, BuildingBlock: AZAVOO_clean_sbu_0, # of connection points: 4
#     Node 5, Type 0, BuildingBlock: AZAVOO_clean_sbu_0, # of connection points: 4
#     Node 6, Type 0, BuildingBlock: AZAVOO_clean_sbu_0, # of connection points: 4
#     Node 7, Type 0, BuildingBlock: AZAVOO_clean_sbu_0, # of connection points: 4
#     Node 8, Type 0, BuildingBlock: AZAVOO_clean_sbu_0, # of connection points: 4
#     Node 9, Type 0, BuildingBlock: AZAVOO_clean_sbu_0, # of connection points: 4
#     Node 10, Type 0, BuildingBlock: AZAVOO_clean_sbu_0, # of connection points: 4
#     Node 11, Type 0, BuildingBlock: AZAVOO_clean_sbu_0, # of connection points: 4
#     Node 12, Type 0, BuildingBlock: AZAVOO_clean_sbu_0, # of connection points: 4
#     Node 13, Type 0, BuildingBlock: AZAVOO_clean_sbu_0, # of connection points: 4
#     Node 14, Type 0, BuildingBlock: AZAVOO_clean_sbu_0, # of connection points: 4
#     Node 15, Type 0, BuildingBlock: AZAVOO_clean_sbu_0, # of connection points: 4
#     Edge 16, Type (0, 0), BuildingBlock: KIFKEQ_clean_linker_1, # of connection points: 2
#     Edge 17, Type (0, 0), BuildingBlock: KIFKEQ_clean_linker_1, # of connection points: 2
#     Edge 18, Type (0, 0), BuildingBlock: KIFKEQ_clean_linker_1, # of connection points: 2
#     Edge 19, Type (0, 0), BuildingBlock: KIFKEQ_clean_linker_1, # of connection points: 2
#     Edge 20, Type (0, 0), BuildingBlock: KIFKEQ_clean_linker_1, # of connection points: 2
#     Edge 21, Type (0, 0), BuildingBlock: KIFKEQ_clean_linker_1, # of connection points: 2
#     Edge 22, Type (0, 0), BuildingBlock: KIFKEQ_clean_linker_1, # of connection points: 2
#     Edge 23, Type (0, 0), BuildingBlock: KIFKEQ_clean_linker_1, # of connection points: 2
#     Edge 24, Type (0, 0), BuildingBlock: KIFKEQ_clean_linker_1, # of connection points: 2
#     Edge 25, Type (0, 0), BuildingBlock: KIFKEQ_clean_linker_1, # of connection points: 2
#     Edge 26, Type (0, 0), BuildingBlock: KIFKEQ_clean_linker_1, # of connection points: 2
#     Edge 27, Type (0, 0), BuildingBlock: KIFKEQ_clean_linker_1, # of connection points: 2
#     Edge 28, Type (0, 0), BuildingBlock: KIFKEQ_clean_linker_1, # of connection points: 2
#     Edge 29, Type (0, 0), BuildingBlock: KIFKEQ_clean_linker_1, # of connection points: 2
#     Edge 30, Type (0, 0), BuildingBlock: KIFKEQ_clean_linker_1, # of connection points: 2
#     Edge 31, Type (0, 0), BuildingBlock: KIFKEQ_clean_linker_1, # of connection points: 2
#     Edge 32, Type (0, 0), BuildingBlock: KIFKEQ_clean_linker_1, # of connection points: 2
#     Edge 33, Type (0, 0), BuildingBlock: KIFKEQ_clean_linker_1, # of connection points: 2
#     Edge 34, Type (0, 0), BuildingBlock: KIFKEQ_clean_linker_1, # of connection points: 2
#     Edge 35, Type (0, 0), BuildingBlock: KIFKEQ_clean_linker_1, # of connection points: 2
#     Edge 36, Type (0, 0), BuildingBlock: KIFKEQ_clean_linker_1, # of connection points: 2
#     Edge 37, Type (0, 0), BuildingBlock: KIFKEQ_clean_linker_1, # of connection points: 2
#     Edge 38, Type (0, 0), BuildingBlock: KIFKEQ_clean_linker_1, # of connection points: 2
#     Edge 39, Type (0, 0), BuildingBlock: KIFKEQ_clean_linker_1, # of connection points: 2
#     Edge 40, Type (0, 0), BuildingBlock: KIFKEQ_clean_linker_1, # of connection points: 2
#     Edge 41, Type (0, 0), BuildingBlock: KIFKEQ_clean_linker_1, # of connection points: 2
#     Edge 42, Type (0, 0), BuildingBlock: KIFKEQ_clean_linker_1, # of connection points: 2
#     Edge 43, Type (0, 0), BuildingBlock: KIFKEQ_clean_linker_1, # of connection points: 2
#     Edge 44, Type (0, 0), BuildingBlock: KIFKEQ_clean_linker_1, # of connection points: 2
#     Edge 45, Type (0, 0), BuildingBlock: KIFKEQ_clean_linker_1, # of connection points: 2
#     Edge 46, Type (0, 0), BuildingBlock: KIFKEQ_clean_linker_1, # of connection points: 2
#     Edge 47, Type (0, 0), BuildingBlock: KIFKEQ_clean_linker_1, # of connection points: 2
# Relax obj value: 0.170
# Max RMSD: 0.199
# Mean RMSD: 0.199
data_MOF--net-uoy--node1-AZAVOO_clean_sbu_0--edge1-KIFKEQ_clean_linker_1
_symmetry_space_group_name_H-M    P1
_symmetry_Int_Tables_number       1
_symmetry_cell_setting            triclinic
loop_
_symmetry_equiv_pos_as_xyz
'x, y, z'
_cell_length_a     26.852285
_cell_length_b     26.859709
_cell_length_c     112.28987
_cell_angle_alpha  89.85843
_cell_angle_beta   89.951386
_cell_angle_gamma 90.039529
loop_
_atom_site_label
_atom_site_type_symbol
_atom_site_fract_x
_atom_site_fract_y
_atom_site_fract_z
_atom_type_partial_charge
Mg0 Mg 0.27581 0.15589 0.17062 0.0
O1 O 0.33802 0.0983 0.16716 0.0
O2 O 0.3358 0.08241 0.14762 0.0
Mg3 Mg 0.27688 0.13133 0.13861 0.0
C4 C 0.3546 0.07567 0.15795 0.0
C5 C 0.23989 0.15943 0.196 0.0
O6 O 0.2047 0.18175 0.18986 0.0
O7 O 0.21342 0.09847 0.16808 0.0
O8 O 0.21161 0.09353 0.14823 0.0
O9 O 0.33068 0.21815 0.16754 0.0
O10 O 0.28499 0.1825 0.15358 0.0
C11 C 0.1932 0.08341 0.15845 0.0
C12 C 0.31956 0.21334 0.15639 0.0
O13 O 0.27713 0.14173 0.19047 0.0
Mg14 Mg 0.81893 0.71885 0.4225 0.0
O15 O 0.87434 0.78351 0.42423 0.0
O16 O 0.92234 0.78407 0.40797 0.0
Mg17 Mg 0.89454 0.72292 0.39548 0.0
C18 C 0.90989 0.80185 0.41807 0.0
C19 C 0.79048 0.76483 0.4467 0.0
O20 O 0.78609 0.80387 0.4397 0.0
O21 O 0.87909 0.66066 0.42574 0.0
O22 O 0.91942 0.66128 0.40836 0.0
O23 O 0.76463 0.7703 0.41399 0.0
O24 O 0.82062 0.72642 0.40409 0.0
C25 C 0.9122 0.64318 0.41876 0.0
C26 C 0.78579 0.75941 0.40396 0.0
O27 O 0.80306 0.72335 0.44222 0.0
Mg28 Mg 0.21926 0.32553 0.67809 0.0
O29 O 0.15141 0.37747 0.67924 0.0
O30 O 0.14918 0.42094 0.66222 0.0
Mg31 Mg 0.2102 0.39231 0.64979 0.0
C32 C 0.13189 0.41061 0.67254 0.0
C33 C 0.25386 0.29017 0.70278 0.0
O34 O 0.28844 0.27052 0.69598 0.0
O35 O 0.27455 0.38969 0.6799 0.0
O36 O 0.27159 0.42366 0.66176 0.0
O37 O 0.17125 0.2649 0.67059 0.0
O38 O 0.21038 0.32216 0.65992 0.0
C39 C 0.29046 0.42082 0.67217 0.0
C40 C 0.1804 0.28484 0.66031 0.0
O41 O 0.21881 0.31482 0.698 0.0
Mg42 Mg 0.6481 0.74521 0.91823 0.0
O43 O 0.59638 0.67735 0.91615 0.0
O44 O 0.57073 0.67715 0.89722 0.0
Mg45 Mg 0.60737 0.7419 0.88718 0.0
C46 C 0.57137 0.65801 0.90765 0.0
C47 C 0.67264 0.76738 0.94419 0.0
O48 O 0.70255 0.79777 0.93841 0.0
O49 O 0.5834 0.80071 0.91763 0.0
O50 O 0.567 0.80141 0.89814 0.0
O51 O 0.71386 0.69803 0.91322 0.0
O52 O 0.66718 0.73985 0.90045 0.0
C53 C 0.56048 0.81862 0.90863 0.0
C54 C 0.70298 0.70903 0.9023 0.0
O55 O 0.64338 0.73972 0.93828 0.0
Mg56 Mg 0.26536 0.34398 0.05889 0.0
O57 O 0.32489 0.40019 0.05328 0.0
O58 O 0.32221 0.46484 0.06571 0.0
Mg59 Mg 0.25956 0.45011 0.07906 0.0
C60 C 0.34121 0.44223 0.05681 0.0
C61 C 0.31857 0.29068 0.03809 0.0
O62 O 0.3567 0.29913 0.04513 0.0
O63 O 0.20345 0.39169 0.05125 0.0
O64 O 0.20033 0.45462 0.0642 0.0
O65 O 0.32082 0.3092 0.07075 0.0
O66 O 0.26947 0.36921 0.0764 0.0
C67 C 0.18429 0.43229 0.05491 0.0
C68 C 0.30651 0.34037 0.07884 0.0
O69 O 0.27537 0.30441 0.04132 0.0
Mg70 Mg 0.61951 0.75782 0.30375 0.0
O71 O 0.56585 0.82354 0.3035 0.0
O72 O 0.51483 0.81814 0.31913 0.0
Mg73 Mg 0.53864 0.74931 0.32977 0.0
C74 C 0.52993 0.84028 0.30973 0.0
C75 C 0.68071 0.77764 0.2804 0.0
O76 O 0.71866 0.76747 0.28737 0.0
O77 O 0.55978 0.70229 0.29829 0.0
O78 O 0.51412 0.6958 0.31487 0.0
O79 O 0.67237 0.80343 0.31426 0.0
O80 O 0.61486 0.75438 0.3222 0.0
C81 C 0.52411 0.68277 0.30419 0.0
C82 C 0.6498 0.78675 0.32366 0.0
O83 O 0.6368 0.77534 0.28454 0.0
Mg84 Mg 0.29156 0.17323 0.56143 0.0
O85 O 0.23319 0.11278 0.55776 0.0
O86 O 0.2367 0.05653 0.57242 0.0
Mg87 Mg 0.298 0.08061 0.58525 0.0
C88 C 0.21749 0.07312 0.5628 0.0
C89 C 0.23977 0.21285 0.53884 0.0
O90 O 0.20208 0.2111 0.5463 0.0
O91 O 0.35593 0.12344 0.55603 0.0
O92 O 0.35903 0.06892 0.57107 0.0
O93 O 0.2337 0.21326 0.57162 0.0
O94 O 0.28578 0.15854 0.57957 0.0
C95 C 0.37572 0.08614 0.56123 0.0
C96 C 0.24726 0.18682 0.58071 0.0
O97 O 0.28277 0.20036 0.54247 0.0
Mg98 Mg 0.87093 0.78255 0.80602 0.0
O99 O 0.92616 0.71976 0.80223 0.0
O100 O 0.98266 0.7197 0.81682 0.0
Mg101 Mg 0.96325 0.78188 0.82985 0.0
C102 C 0.96486 0.70171 0.80721 0.0
C103 C 0.80045 0.75769 0.78488 0.0
O104 O 0.77316 0.74049 0.7937 0.0
O105 O 0.92627 0.84191 0.8005 0.0
O106 O 0.97987 0.84197 0.81569 0.0
O107 O 0.82593 0.72861 0.81635 0.0
O108 O 0.88475 0.7761 0.82419 0.0
C109 C 0.96461 0.85928 0.80573 0.0
C110 C 0.85268 0.74075 0.82549 0.0
O111 O 0.84252 0.7771 0.78712 0.0
Mg112 Mg 0.71343 0.64777 0.67526 0.0
O113 O 0.77606 0.59037 0.67726 0.0
O114 O 0.77797 0.54518 0.66058 0.0
Mg115 Mg 0.71996 0.57661 0.64768 0.0
C116 C 0.7944 0.55538 0.67096 0.0
C117 C 0.71677 0.70558 0.6988 0.0
O118 O 0.71708 0.74221 0.69102 0.0
O119 O 0.65276 0.5892 0.67739 0.0
O120 O 0.655 0.55191 0.65966 0.0
O121 O 0.76851 0.70134 0.66786 0.0
O122 O 0.72456 0.6489 0.65694 0.0
C123 C 0.6353 0.55803 0.66992 0.0
C124 C 0.75903 0.68225 0.65753 0.0
O125 O 0.71481 0.66104 0.69509 0.0
Mg126 Mg 0.33299 0.24353 0.926 0.0
O127 O 0.39361 0.30155 0.92174 0.0
O128 O 0.40561 0.29929 0.90205 0.0
Mg129 Mg 0.35067 0.24395 0.89376 0.0
C130 C 0.4154 0.3172 0.91232 0.0
C131 C 0.33854 0.20897 0.95193 0.0
O132 O 0.31347 0.17248 0.94697 0.0
O133 O 0.38543 0.17771 0.92269 0.0
O134 O 0.38656 0.17626 0.9028 0.0
O135 O 0.27535 0.30359 0.92385 0.0
O136 O 0.30294 0.25508 0.90936 0.0
C137 C 0.39755 0.15709 0.91288 0.0
C138 C 0.27678 0.2927 0.91263 0.0
O139 O 0.3535 0.24485 0.94547 0.0
Mg140 Mg 0.7774 0.83789 0.16874 0.0
O141 O 0.71195 0.89048 0.16481 0.0
O142 O 0.71232 0.90684 0.14533 0.0
Mg143 Mg 0.77756 0.86455 0.13682 0.0
C144 C 0.69313 0.91163 0.15567 0.0
C145 C 0.72529 0.84022 0.19285 0.0
O146 O 0.6897 0.82537 0.18566 0.0
O147 O 0.83541 0.90014 0.16693 0.0
O148 O 0.83704 0.90831 0.14712 0.0
O149 O 0.72763 0.77277 0.16483 0.0
O150 O 0.77532 0.81079 0.15152 0.0
C151 C 0.85415 0.91877 0.15744 0.0
C152 C 0.74235 0.77763 0.15392 0.0
O153 O 0.7676 0.85104 0.1885 0.0
Mg154 Mg 0.14043 0.22569 0.42619 0.0
O155 O 0.08687 0.15905 0.42703 0.0
O156 O 0.04268 0.15949 0.41015 0.0
Mg157 Mg 0.07193 0.22175 0.3981 0.0
C158 C 0.05311 0.14084 0.42032 0.0
C159 C 0.18352 0.25034 0.45088 0.0
O160 O 0.20902 0.28129 0.44415 0.0
O161 O 0.07782 0.28222 0.42868 0.0
O162 O 0.04267 0.28193 0.41068 0.0
O163 O 0.19923 0.17717 0.41814 0.0
O164 O 0.14286 0.21924 0.40789 0.0
C165 C 0.04652 0.29954 0.4212 0.0
C166 C 0.17925 0.1881 0.40797 0.0
O167 O 0.15205 0.22144 0.44606 0.0
Mg168 Mg 0.78722 0.85764 0.55973 0.0
O169 O 0.85482 0.90898 0.5582 0.0
O170 O 0.85333 0.9616 0.57355 0.0
Mg171 Mg 0.78719 0.94027 0.58541 0.0
C172 C 0.87325 0.94534 0.56399 0.0
C173 C 0.76892 0.80518 0.53554 0.0
O174 O 0.73619 0.7811 0.54209 0.0
O175 O 0.73305 0.91898 0.55476 0.0
O176 O 0.73045 0.96548 0.57122 0.0
O177 O 0.83268 0.80324 0.56993 0.0
O178 O 0.78851 0.86372 0.5781 0.0
C179 C 0.7153 0.95524 0.56071 0.0
C180 C 0.81885 0.82696 0.57941 0.0
O181 O 0.79638 0.83786 0.54037 0.0
Mg182 Mg 0.17054 0.27925 0.814 0.0
O183 O 0.1167 0.34002 0.80804 0.0
O184 O 0.04922 0.33734 0.81963 0.0
Mg185 Mg 0.06039 0.27416 0.83305 0.0
C186 C 0.07407 0.35656 0.81108 0.0
C187 C 0.22985 0.25231 0.79111 0.0
O188 O 0.22717 0.20782 0.79597 0.0
O189 O 0.12301 0.21855 0.80582 0.0
O190 O 0.05775 0.21539 0.81815 0.0
O191 O 0.20393 0.33327 0.82657 0.0
O192 O 0.14194 0.28228 0.83116 0.0
C193 C 0.08164 0.19956 0.80907 0.0
C194 C 0.17092 0.31831 0.83421 0.0
O195 O 0.21187 0.28931 0.79666 0.0
Mg196 Mg 0.76995 0.6453 0.05282 0.0
O197 O 0.70498 0.59231 0.04915 0.0
O198 O 0.70691 0.53143 0.06271 0.0
Mg199 Mg 0.77177 0.54668 0.07531 0.0
C200 C 0.68727 0.55241 0.05365 0.0
C201 C 0.71746 0.69385 0.03116 0.0
O202 O 0.68007 0.69148 0.0387 0.0
O203 O 0.82712 0.59001 0.04584 0.0
O204 O 0.82897 0.53336 0.06043 0.0
O205 O 0.7208 0.6899 0.06461 0.0
O206 O 0.76694 0.62674 0.07081 0.0
C207 C 0.84487 0.55046 0.05051 0.0
C208 C 0.73403 0.66025 0.07315 0.0
O209 O 0.76008 0.67846 0.03441 0.0
Mg210 Mg 0.30356 0.26245 0.30655 0.0
O211 O 0.3631 0.20221 0.30421 0.0
O212 O 0.41825 0.20826 0.319 0.0
Mg213 Mg 0.39398 0.2734 0.3307 0.0
C214 C 0.40196 0.18698 0.30963 0.0
C215 C 0.26937 0.20431 0.28422 0.0
O216 O 0.27348 0.16754 0.29189 0.0
O217 O 0.35544 0.32438 0.30041 0.0
O218 O 0.40826 0.33046 0.31571 0.0
O219 O 0.26084 0.20882 0.31753 0.0
O220 O 0.31617 0.2618 0.32482 0.0
C221 C 0.39251 0.34489 0.30553 0.0
C222 C 0.28632 0.22482 0.32654 0.0
O223 O 0.27814 0.24854 0.28762 0.0
H224 H 0.27127 0.38322 0.09916 0.0
H225 H 0.39384 0.29651 0.08542 0.0
H226 H 0.29716 0.36391 0.11937 0.0
H227 H 0.42093 0.27853 0.10569 0.0
H228 H 0.36077 0.17543 0.13654 0.0
H229 H 0.37793 0.22058 0.11831 0.0
H230 H 0.35212 0.35983 0.13657 0.0
H231 H 0.33405 0.31353 0.15494 0.0
C232 C 0.30483 0.36152 0.10046 0.0
C233 C 0.32961 0.34001 0.09074 0.0
C234 C 0.32004 0.35081 0.11207 0.0
C235 C 0.36053 0.3187 0.11415 0.0
C236 C 0.3889 0.3024 0.10438 0.0
C237 C 0.37334 0.31264 0.09277 0.0
C238 C 0.36035 0.21573 0.13673 0.0
C239 C 0.34525 0.24114 0.14698 0.0
C240 C 0.37071 0.24183 0.12631 0.0
C241 C 0.36562 0.29393 0.12591 0.0
C242 C 0.35569 0.31967 0.13656 0.0
C243 C 0.34573 0.29333 0.14708 0.0
H244 H 0.83186 0.75608 0.38229 0.0
H245 H 0.70102 0.81309 0.40004 0.0
H246 H 0.79747 0.78047 0.36319 0.0
H247 H 0.66626 0.8373 0.38075 0.0
H248 H 0.60313 0.76711 0.34477 0.0
H249 H 0.63668 0.77815 0.36465 0.0
H250 H 0.76666 0.85018 0.34987 0.0
H251 H 0.73284 0.83944 0.32984 0.0
C252 C 0.79628 0.77482 0.38216 0.0
C253 C 0.76891 0.78201 0.39267 0.0
C254 C 0.77671 0.78922 0.37119 0.0
C255 C 0.7291 0.81056 0.3705 0.0
C256 C 0.70298 0.82067 0.38106 0.0
C257 C 0.72291 0.80684 0.39208 0.0
C258 C 0.63821 0.78648 0.34573 0.0
C259 C 0.66562 0.80177 0.33571 0.0
C260 C 0.65728 0.79315 0.35715 0.0
C261 C 0.7044 0.81475 0.35878 0.0
C262 C 0.73035 0.83314 0.34883 0.0
C263 C 0.71095 0.827 0.33738 0.0
H264 H 0.15942 0.23473 0.58506 0.0
H265 H 0.27155 0.14312 0.60186 0.0
H266 H 0.11991 0.24798 0.60437 0.0
H267 H 0.23281 0.15699 0.62108 0.0
H268 H 0.16691 0.18674 0.65522 0.0
H269 H 0.1637 0.15116 0.63519 0.0
H270 H 0.15131 0.29933 0.62036 0.0
H271 H 0.15325 0.33413 0.64024 0.0
C272 C 0.17517 0.21678 0.59284 0.0
C273 C 0.21918 0.18872 0.592 0.0
C274 C 0.15243 0.22423 0.60388 0.0
C275 C 0.17344 0.20395 0.61428 0.0
C276 C 0.21521 0.17269 0.61325 0.0
C277 C 0.23783 0.16515 0.60222 0.0
C278 C 0.16135 0.21134 0.64768 0.0
C279 C 0.16183 0.26317 0.64917 0.0
C280 C 0.15991 0.19106 0.63622 0.0
C281 C 0.15856 0.22248 0.62618 0.0
C282 C 0.1525 0.27396 0.62786 0.0
C283 C 0.15425 0.29409 0.63927 0.0
H284 H 0.88944 0.76955 0.84703 0.0
H285 H 0.79781 0.65753 0.83029 0.0
H286 H 0.86163 0.74138 0.86649 0.0
H287 H 0.77109 0.62813 0.84984 0.0
H288 H 0.66666 0.68002 0.88092 0.0
H289 H 0.71372 0.66996 0.86269 0.0
H290 H 0.85114 0.68164 0.88256 0.0
H291 H 0.80308 0.69336 0.90091 0.0
C292 C 0.86456 0.73786 0.84752 0.0
C293 C 0.84472 0.71662 0.83715 0.0
C294 C 0.84892 0.72132 0.85871 0.0
C295 C 0.81341 0.68301 0.85972 0.0
C296 C 0.79765 0.65843 0.84934 0.0
C297 C 0.81294 0.67528 0.83815 0.0
C298 C 0.70687 0.67966 0.88142 0.0
C299 C 0.73132 0.68901 0.8922 0.0
C300 C 0.73403 0.67306 0.87099 0.0
C301 C 0.78632 0.67582 0.87112 0.0
C302 C 0.81087 0.68015 0.88215 0.0
C303 C 0.78347 0.68649 0.89264 0.0
H304 H 0.80471 0.87424 0.60063 0.0
H305 H 0.86219 0.7384 0.58534 0.0
H306 H 0.80762 0.83678 0.62032 0.0
H307 H 0.86503 0.7008 0.60516 0.0
H308 H 0.75495 0.64231 0.63522 0.0
H309 H 0.78866 0.67721 0.61698 0.0
H310 H 0.85628 0.79652 0.63698 0.0
H311 H 0.82269 0.76119 0.65541 0.0
C312 C 0.81935 0.8369 0.6015 0.0
C313 C 0.83232 0.80897 0.59141 0.0
C314 C 0.82134 0.81552 0.61282 0.0
C315 C 0.83595 0.76567 0.61424 0.0
C316 C 0.85312 0.73917 0.60428 0.0
C317 C 0.85161 0.76077 0.59295 0.0
C318 C 0.77796 0.67524 0.63582 0.0
C319 C 0.78567 0.69922 0.64675 0.0
C320 C 0.79767 0.69507 0.62534 0.0
C321 C 0.82505 0.73962 0.62557 0.0
C322 C 0.83515 0.7622 0.63657 0.0
C323 C 0.81589 0.74196 0.6471 0.0
H324 H 0.17852 0.31656 0.91043 0.0
H325 H 0.32268 0.33823 0.89434 0.0
H326 H 0.1386 0.34738 0.89219 0.0
H327 H 0.28398 0.36771 0.87624 0.0
H328 H 0.2204 0.39956 0.84285 0.0
H329 H 0.23421 0.41925 0.86378 0.0
H330 H 0.13308 0.30117 0.87391 0.0
H331 H 0.11797 0.283 0.85312 0.0
C332 C 0.20157 0.32968 0.90314 0.0
C333 C 0.25343 0.32426 0.90358 0.0
C334 C 0.17887 0.34702 0.8927 0.0
C335 C 0.20798 0.35916 0.88265 0.0
C336 C 0.26015 0.35904 0.88375 0.0
C337 C 0.28255 0.3415 0.8941 0.0
C338 C 0.19995 0.37894 0.84956 0.0
C339 C 0.16938 0.3387 0.84639 0.0
C340 C 0.2078 0.39024 0.86155 0.0
C341 C 0.18591 0.36087 0.87054 0.0
C342 C 0.15064 0.32466 0.86727 0.0
C343 C 0.14234 0.3138 0.8553 0.0
H344 H 0.73642 0.59359 0.09161 0.0
H345 H 0.68861 0.74218 0.08235 0.0
H346 H 0.72042 0.61077 0.1125 0.0
H347 H 0.67464 0.76025 0.10329 0.0
H348 H 0.65606 0.78911 0.14158 0.0
H349 H 0.63613 0.74981 0.12245 0.0
H350 H 0.76977 0.66065 0.12533 0.0
H351 H 0.78825 0.69904 0.14437 0.0
C352 C 0.72182 0.62968 0.094 0.0
C353 C 0.71491 0.66691 0.08537 0.0
C354 C 0.71267 0.63958 0.106 0.0
C355 C 0.69736 0.68724 0.10962 0.0
C356 C 0.68618 0.72303 0.10085 0.0
C357 C 0.69459 0.71281 0.08882 0.0
C358 C 0.67974 0.75959 0.13826 0.0
C359 C 0.72326 0.74637 0.14435 0.0
C360 C 0.66874 0.73748 0.12729 0.0
C361 C 0.70147 0.70226 0.1223 0.0
C362 C 0.74318 0.68689 0.12894 0.0
C363 C 0.75403 0.70895 0.13984 0.0
H364 H 0.27606 0.16774 0.40266 0.0
H365 H 0.1279 0.16631 0.38783 0.0
H366 H 0.31107 0.15861 0.38264 0.0
H367 H 0.16233 0.15827 0.36795 0.0
H368 H 0.22946 0.14434 0.33269 0.0
H369 H 0.21082 0.11473 0.35278 0.0
H370 H 0.31178 0.22432 0.36723 0.0
H371 H 0.33074 0.25344 0.34726 0.0
C372 C 0.251 0.16391 0.39516 0.0
C373 C 0.19939 0.16908 0.39669 0.0
C374 C 0.27098 0.15901 0.38372 0.0
C375 C 0.23949 0.15865 0.37371 0.0
C376 C 0.18768 0.15838 0.37545 0.0
C377 C 0.16786 0.16369 0.38684 0.0
C378 C 0.24842 0.16141 0.34015 0.0
C379 C 0.28092 0.20181 0.33842 0.0
C380 C 0.23781 0.14436 0.35164 0.0
C381 C 0.25953 0.16743 0.36159 0.0
C382 C 0.29486 0.20532 0.35976 0.0
C383 C 0.30541 0.22237 0.34829 0.0
H384 H 0.17193 0.20525 0.2103 0.0
H385 H 0.30424 0.11372 0.21142 0.0
H386 H 0.17357 0.2121 0.23194 0.0
H387 H 0.3058 0.12081 0.23309 0.0
H388 H 0.2695 0.11432 0.27293 0.0
H389 H 0.25713 0.09859 0.2517 0.0
H390 H 0.23262 0.25562 0.2458 0.0
H391 H 0.24484 0.27144 0.26695 0.0
C392 C 0.20106 0.18616 0.21516 0.0
C393 C 0.23825 0.15931 0.20915 0.0
C394 C 0.20205 0.19027 0.22754 0.0
C395 C 0.23997 0.16727 0.23416 0.0
C396 C 0.27594 0.13864 0.22821 0.0
C397 C 0.27519 0.13483 0.2158 0.0
C398 C 0.26094 0.14539 0.26711 0.0
C399 C 0.2583 0.19415 0.27159 0.0
C400 C 0.25413 0.13638 0.25497 0.0
C401 C 0.24396 0.17588 0.24713 0.0
C402 C 0.2399 0.2244 0.25167 0.0
C403 C 0.2472 0.23348 0.26377 0.0
H404 H 0.79074 0.69052 0.46336 0.0
H405 H 0.77481 0.84989 0.45938 0.0
H406 H 0.78414 0.69911 0.48493 0.0
H407 H 0.76788 0.85824 0.48093 0.0
H408 H 0.82419 0.85725 0.51942 0.0
H409 H 0.82675 0.84648 0.49792 0.0
H410 H 0.72249 0.72449 0.50071 0.0
H411 H 0.71997 0.73499 0.52233 0.0
C412 C 0.78549 0.72732 0.46707 0.0
C413 C 0.78356 0.76959 0.45968 0.0
C414 C 0.78146 0.73214 0.47941 0.0
C415 C 0.77579 0.77934 0.48458 0.0
C416 C 0.77288 0.82147 0.47717 0.0
C417 C 0.77658 0.81664 0.46484 0.0
C418 C 0.8019 0.82798 0.51548 0.0
C419 C 0.77179 0.797 0.52257 0.0
C420 C 0.80312 0.8221 0.50316 0.0
C421 C 0.77451 0.78493 0.49767 0.0
C422 C 0.74504 0.75332 0.50475 0.0
C423 C 0.74352 0.75944 0.5171 0.0
H424 H 0.31846 0.2334 0.7159 0.0
H425 H 0.19449 0.33512 0.71921 0.0
H426 H 0.32171 0.22526 0.7376 0.0
H427 H 0.19762 0.32666 0.74074 0.0
H428 H 0.24074 0.33914 0.77878 0.0
H429 H 0.25362 0.34895 0.75746 0.0
H430 H 0.26712 0.18952 0.75374 0.0
H431 H 0.25478 0.17952 0.77516 0.0
C432 C 0.29201 0.25403 0.72125 0.0
C433 C 0.25618 0.28486 0.71585 0.0
C434 C 0.29384 0.24927 0.73364 0.0
C435 C 0.26021 0.27564 0.74083 0.0
C436 C 0.2246 0.30657 0.73542 0.0
C437 C 0.22254 0.31106 0.72308 0.0
C438 C 0.24725 0.30617 0.77347 0.0
C439 C 0.24598 0.25847 0.77863 0.0
C440 C 0.25441 0.31183 0.76125 0.0
C441 C 0.2605 0.26994 0.75394 0.0
C442 C 0.26259 0.22245 0.75918 0.0
C443 C 0.25538 0.21675 0.77144 0.0
H444 H 0.78773 0.70909 0.01396 0.0
H445 H 0.62921 0.7175 0.02044 0.0
H446 H 0.77422 0.73214 -0.00677 0.0
H447 H 0.61586 0.74111 -0.00033 0.0
H448 H 0.61456 0.71023 0.95881 0.0
H449 H 0.62378 0.69794 0.98021 0.0
H450 H 0.74617 0.80238 0.98059 0.0
H451 H 0.73739 0.81438 0.95916 0.0
C452 C 0.75004 0.71633 0.01099 0.0
C453 C 0.70951 0.71124 0.01883 0.0
C454 C 0.74236 0.72986 -0.00086 0.0
C455 C 0.69398 0.73837 -0.00516 0.0
C456 C 0.65351 0.7343 0.00272 0.0
C457 C 0.66121 0.72103 0.01462 0.0
C458 C 0.64317 0.73089 0.96347 0.0
C459 C 0.67551 0.76297 0.95728 0.0
C460 C 0.64823 0.72408 0.97574 0.0
C461 C 0.68584 0.74905 0.98205 0.0
C462 C 0.71724 0.7822 0.97592 0.0
C463 C 0.71205 0.7892 0.96366 0.0
H464 H 0.24749 0.25585 0.02295 0.0
H465 H 0.40654 0.2764 0.02634 0.0
H466 H 0.25884 0.22729 0.00257 0.0
H467 H 0.41781 0.24752 0.00589 0.0
H468 H 0.39376 0.27517 0.96475 0.0
H469 H 0.39398 0.28616 0.98627 0.0
H470 H 0.29635 0.1593 -0.00981 0.0
H471 H 0.29582 0.14831 0.96862 0.0
C472 C 0.28493 0.25367 0.01939 0.0
C473 C 0.32609 0.26877 0.0262 0.0
C474 C 0.29145 0.23691 0.00776 0.0
C475 C 0.33921 0.23526 0.00267 0.0
C476 C 0.38058 0.24875 0.00959 0.0
C477 C 0.3741 0.2651 0.02129 0.0
C478 C 0.37294 0.24915 0.9702 0.0
C479 C 0.34423 0.21129 0.96498 0.0
C480 C 0.37337 0.25523 0.98254 0.0
C481 C 0.34489 0.22377 -0.01013 0.0
C482 C 0.3182 0.18437 0.98471 0.0
C483 C 0.31806 0.17803 0.97237 0.0
H484 H 0.76615 0.77061 0.26719 0.0
H485 H 0.61261 0.81819 0.26532 0.0
H486 H 0.77684 0.79125 0.24616 0.0
H487 H 0.6237 0.8403 0.2445 0.0
H488 H 0.64314 0.80803 0.20482 0.0
H489 H 0.63352 0.79692 0.22615 0.0
H490 H 0.78042 0.85843 0.23178 0.0
H491 H 0.79071 0.86816 0.2103 0.0
C492 C 0.73489 0.78595 0.26232 0.0
C493 C 0.68842 0.79221 0.26786 0.0
C494 C 0.74108 0.79813 0.2503 0.0
C495 C 0.70101 0.81716 0.24363 0.0
C496 C 0.65503 0.8248 0.24931 0.0
C497 C 0.64873 0.81225 0.26126 0.0
C498 C 0.67326 0.81964 0.21059 0.0
C499 C 0.7178 0.83869 0.20587 0.0
C500 C 0.66764 0.81351 0.22285 0.0
C501 C 0.70628 0.82667 0.23067 0.0
C502 C 0.75028 0.84722 0.22597 0.0
C503 C 0.75601 0.85313 0.21368 0.0
H504 H 0.25308 0.30099 0.46388 0.0
H505 H 0.13105 0.19681 0.4673 0.0
H506 H 0.26608 0.29756 0.48539 0.0
H507 H 0.14443 0.1931 0.48871 0.0
H508 H 0.15138 0.23234 0.52779 0.0
H509 H 0.13726 0.24632 0.5066 0.0
H510 H 0.29536 0.23453 0.50006 0.0
H511 H 0.30969 0.22115 0.52126 0.0
C512 C 0.22901 0.27746 0.46921 0.0
C513 C 0.19114 0.24906 0.46389 0.0
C514 C 0.23657 0.2754 0.48151 0.0
C515 C 0.20619 0.24517 0.48872 0.0
C516 C 0.16798 0.21726 0.4834 0.0
C517 C 0.1606 0.21911 0.47112 0.0
C518 C 0.18319 0.23322 0.52185 0.0
C519 C 0.23162 0.22529 0.52618 0.0
C520 C 0.17505 0.24098 0.50972 0.0
C521 C 0.21518 0.24116 0.50168 0.0
C522 C 0.26376 0.23497 0.50606 0.0
C523 C 0.27191 0.22702 0.51819 0.0
H524 H 0.71127 0.63899 0.71715 0.0
H525 H 0.73426 0.79515 0.70948 0.0
H526 H 0.72664 0.65463 0.7382 0.0
H527 H 0.74921 0.81073 0.73058 0.0
H528 H 0.84374 0.79732 0.76504 0.0
H529 H 0.81778 0.78727 0.74442 0.0
H530 H 0.69213 0.69886 0.75592 0.0
H531 H 0.71827 0.70853 0.77662 0.0
C532 C 0.7191 0.67673 0.71997 0.0
C533 C 0.72198 0.71578 0.71165 0.0
C534 C 0.72756 0.6857 0.73203 0.0
C535 C 0.73932 0.73384 0.736 0.0
C536 C 0.74076 0.77315 0.72773 0.0
C537 C 0.732 0.76425 0.71567 0.0
C538 C 0.81042 0.77595 0.76319 0.0
C539 C 0.7832 0.75348 0.77245 0.0
C540 C 0.79536 0.77053 0.75139 0.0
C541 C 0.75294 0.74232 0.74859 0.0
C542 C 0.72522 0.72048 0.75784 0.0
C543 C 0.7401 0.72618 0.76968 0.0
H544 H 0.15036 0.02933 0.17673 0.0
H545 H 0.12297 0.08484 0.14121 0.0
H546 H 0.06717 0.99165 0.17698 0.0
H547 H 0.03987 0.05074 0.14172 0.0
H548 H 0.91784 0.9388 0.13928 0.0
H549 H 0.99903 0.97657 0.14016 0.0
H550 H 0.97975 0.00345 0.17785 0.0
H551 H 0.89844 0.96216 0.17706 0.0
C552 C 0.12657 0.03354 0.169 0.0
C553 C 0.14367 0.05909 0.15885 0.0
C554 C 0.07867 0.01247 0.16919 0.0
C555 C 0.04662 0.01748 0.15931 0.0
C556 C 0.06367 0.04442 0.14935 0.0
C557 C 0.11157 0.06425 0.14906 0.0
C558 C 0.93036 0.9532 0.14777 0.0
C559 C 0.90121 0.9477 0.15809 0.0
C560 C 0.97724 0.97524 0.14827 0.0
C561 C 0.99625 0.99376 0.15906 0.0
C562 C 0.96676 0.98914 0.1694 0.0
C563 C 0.91986 0.96601 0.16894 0.0
H564 H 0.97382 0.3435 0.40796 0.0
H565 H 0.0584 0.36205 0.44043 0.0
H566 H 0.94383 0.42855 0.40963 0.0
H567 H 0.02714 0.44764 0.44211 0.0
H568 H 0.90008 0.58534 0.43887 0.0
H569 H 0.93041 0.50001 0.44184 0.0
H570 H 0.01139 0.50912 0.40874 0.0
H571 H 0.9823 0.59389 0.40576 0.0
C572 C 0.98516 0.3652 0.41561 0.0
C573 C 0.01928 0.34613 0.42394 0.0
C574 C 0.96799 0.41394 0.41653 0.0
C575 C 0.98397 0.44451 0.42588 0.0
C576 C 0.01457 0.42454 0.43481 0.0
C577 C 0.03226 0.3756 0.43384 0.0
C578 C 0.92536 0.56961 0.43237 0.0
C579 C 0.93809 0.59628 0.42198 0.0
C580 C 0.94258 0.52085 0.43409 0.0
C581 C 0.97238 0.49815 0.4254 0.0
C582 C 0.98786 0.52586 0.41547 0.0
C583 C 0.97121 0.57447 0.41381 0.0
H584 H 0.33258 0.49251 0.65821 0.0
H585 H 0.35437 0.41233 0.69126 0.0
H586 H 0.4171 0.52441 0.65943 0.0
H587 H 0.43943 0.44528 0.69246 0.0
H588 H 0.57765 0.5639 0.6902 0.0
H589 H 0.49189 0.53393 0.69266 0.0
H590 H 0.49802 0.46736 0.65777 0.0
H591 H 0.5831 0.49625 0.65529 0.0
C592 C 0.35492 0.48246 0.66588 0.0
C593 C 0.33687 0.44906 0.67453 0.0
C594 C 0.40342 0.50065 0.66653 0.0
C595 C 0.43486 0.48637 0.6759 0.0
C596 C 0.41581 0.45653 0.68512 0.0
C597 C 0.36713 0.43783 0.68442 0.0
C598 C 0.56103 0.54205 0.68315 0.0
C599 C 0.58716 0.53305 0.67247 0.0
C600 C 0.512 0.52502 0.68457 0.0
C601 C 0.48832 0.49932 0.6753 0.0
C602 C 0.5153 0.48794 0.66496 0.0
C603 C 0.56419 0.50432 0.66358 0.0
H604 H 0.45859 0.11448 0.92978 0.0
H605 H 0.38507 0.08528 0.89635 0.0
H606 H 0.49504 0.03086 0.92935 0.0
H607 H 0.41802 0.00161 0.89627 0.0
H608 H 0.52937 0.88013 0.89092 0.0
H609 H 0.49079 0.96063 0.89261 0.0
H610 H 0.4841 0.94374 0.9309 0.0
H611 H 0.52617 0.86323 0.92919 0.0
C612 C 0.45004 0.09007 0.9224 0.0
C613 C 0.41995 0.10678 0.91297 0.0
C614 C 0.47043 0.04195 0.92219 0.0
C615 C 0.46017 0.00931 0.91268 0.0
C616 C 0.4284 0.02587 0.90354 0.0
C617 C 0.40923 0.07402 0.9036 0.0
C618 C 0.51923 0.89302 0.89972 0.0
C619 C 0.53074 0.86487 0.90992 0.0
C620 C 0.49668 0.93949 0.9007 0.0
C621 C 0.4837 0.95902 0.91189 0.0
C622 C 0.49409 0.93036 0.92213 0.0
C623 C 0.51769 0.88392 0.92116 0.0
H624 H 0.14623 0.52635 0.05586 0.0
H625 H 0.11791 0.38036 0.04126 0.0
H626 H 0.06298 0.5527 0.05001 0.0
H627 H 0.03421 0.40681 0.0355 0.0
H628 H 0.87888 0.45566 0.0535 0.0
H629 H 0.96351 0.4265 0.05003 0.0
H630 H 0.00016 0.56646 0.03318 0.0
H631 H 0.91512 0.59566 0.03655 0.0
C632 C 0.12267 0.50026 0.05115 0.0
C633 C 0.1384 0.4511 0.04918 0.0
C634 C 0.0751 0.51548 0.0477 0.0
C635 C 0.04206 0.48166 0.04236 0.0
C636 C 0.05892 0.43351 0.03965 0.0
C637 C 0.10687 0.41849 0.04292 0.0
C638 C 0.90449 0.4796 0.0487 0.0
C639 C 0.89057 0.52819 0.04546 0.0
C640 C 0.95292 0.4628 0.04665 0.0
C641 C 0.98853 0.4945 0.04147 0.0
C642 C 0.97346 0.54146 0.03728 0.0
C643 C 0.92471 0.55802 0.03916 0.0
H644 H 0.43056 0.64915 0.30929 0.0
H645 H 0.56233 0.61397 0.28889 0.0
H646 H 0.39784 0.56579 0.30545 0.0
H647 H 0.53002 0.5301 0.28535 0.0
H648 H 0.48728 0.37997 0.3078 0.0
H649 H 0.51659 0.46407 0.30326 0.0
H650 H 0.37335 0.50016 0.28817 0.0
H651 H 0.34429 0.41546 0.29239 0.0
C652 C 0.45183 0.62411 0.30371 0.0
C653 C 0.49907 0.63798 0.29945 0.0
C654 C 0.43306 0.5765 0.30148 0.0
C655 C 0.46164 0.5416 0.29517 0.0
C656 C 0.50736 0.55644 0.29024 0.0
C657 C 0.52565 0.60449 0.29223 0.0
C658 C 0.46258 0.40536 0.30318 0.0
C659 C 0.41349 0.39127 0.30049 0.0
C660 C 0.4794 0.45337 0.30054 0.0
C661 C 0.44709 0.48847 0.2954 0.0
C662 C 0.3989 0.47364 0.29211 0.0
C663 C 0.38244 0.42518 0.29449 0.0
H664 H 0.68126 0.04776 0.56667 0.0
H665 H 0.64655 0.91947 0.54504 0.0
H666 H 0.59802 0.08105 0.56291 0.0
H667 H 0.56295 0.95238 0.54158 0.0
H668 H 0.41126 0.99159 0.56347 0.0
H669 H 0.49604 0.96318 0.55941 0.0
H670 H 0.53356 0.1082 0.54543 0.0
H671 H 0.44822 0.13641 0.54916 0.0
C672 C 0.65636 0.02736 0.56086 0.0
C673 C 0.67031 0.98086 0.55623 0.0
C674 C 0.60884 0.04649 0.55868 0.0
C675 C 0.57419 0.01901 0.55202 0.0
C676 C 0.58912 0.97414 0.54675 0.0
C677 C 0.63702 0.95551 0.5487 0.0
C678 C 0.43719 0.01694 0.55921 0.0
C679 C 0.42326 0.0662 0.55666 0.0
C680 C 0.48557 0.00065 0.55685 0.0
C681 C 0.52114 0.03364 0.55214 0.0
C682 C 0.50665 0.08215 0.54904 0.0
C683 C 0.45785 0.09812 0.55113 0.0
H684 H 0.98712 0.16251 0.80866 0.0
H685 H 0.13696 0.13176 0.79669 0.0
H686 H 0.96223 0.07829 0.80326 0.0
H687 H 0.11198 0.04707 0.79144 0.0
H688 H 0.9241 0.92753 0.79047 0.0
H689 H 0.95419 0.01201 0.78677 0.0
H690 H 0.08726 0.9799 0.8069 0.0
H691 H 0.05717 0.89575 0.81073 0.0
C692 C 0.01439 0.13819 0.80458 0.0
C693 C 0.0641 0.1535 0.80325 0.0
C694 C 6e-05 0.09006 0.80141 0.0
C695 C 0.03534 0.05613 0.79702 0.0
C696 C 0.08418 0.07253 0.79486 0.0
C697 C 0.09835 0.12103 0.79783 0.0
C698 C 0.96046 0.93798 0.79381 0.0
C699 C 0.98793 0.90527 0.80107 0.0
C700 C 0.97754 0.98637 0.7917 0.0
C701 C 0.02277 0.00251 0.79663 0.0
C702 C 0.05238 0.96834 0.80293 0.0
C703 C 0.03498 0.92025 0.8052 0.0
H704 H 0.63314 0.91872 0.17544 0.0
H705 H 0.64326 0.96477 0.1386 0.0
H706 H 0.54997 0.95487 0.1767 0.0
H707 H 0.56086 0.00178 0.13996 0.0
H708 H 0.39436 0.0136 0.14121 0.0
H709 H 0.47587 0.97437 0.14134 0.0
H710 H 0.50308 0.03211 0.17661 0.0
H711 H 0.42073 0.07062 0.1766 0.0
C712 C 0.61801 0.93715 0.16765 0.0
C713 C 0.64497 0.93852 0.15689 0.0
C714 C 0.57026 0.95795 0.16839 0.0
C715 C 0.54831 0.98066 0.15839 0.0
C716 C 0.57602 0.98351 0.14776 0.0
C717 C 0.62361 0.96267 0.14702 0.0
C718 C 0.41735 0.01747 0.14907 0.0
C719 C 0.40094 0.04562 0.15886 0.0
C720 C 0.46442 0.99533 0.1491 0.0
C721 C 0.49658 0.00086 0.15889 0.0
C722 C 0.47931 0.02698 0.16893 0.0
C723 C 0.43199 0.04905 0.16892 0.0
H724 H 0.86891 0.87524 0.43166 0.0
H725 H 0.00379 0.83475 0.41307 0.0
H726 H 0.90263 0.95874 0.43511 0.0
H727 H 0.03785 0.91774 0.41684 0.0
H728 H 0.09328 0.06468 0.43322 0.0
H729 H 0.0595 0.98039 0.43553 0.0
H730 H 0.92556 0.02536 0.41727 0.0
H731 H 0.95973 0.10913 0.41461 0.0
C732 C 0.90628 0.88368 0.42862 0.0
C733 C 0.93367 0.84861 0.42203 0.0
C734 C 0.92539 0.93144 0.43056 0.0
C735 C 0.97271 0.94441 0.42624 0.0
C736 C 0.0014 0.90839 0.42034 0.0
C737 C 0.98184 0.86107 0.41814 0.0
C738 C 0.05615 0.05686 0.42995 0.0
C739 C 0.02914 0.09333 0.42369 0.0
C740 C 0.03702 0.00867 0.43124 0.0
C741 C 0.99005 0.99664 0.42658 0.0
C742 C 0.96172 0.03394 0.42101 0.0
C743 C 0.98132 0.08171 0.41946 0.0
H744 H 0.09989 0.50432 0.66736 0.0
H745 H 0.05626 0.36884 0.68535 0.0
H746 H 0.01617 0.53801 0.67032 0.0
H747 H 0.97189 0.40212 0.68795 0.0
H748 H 0.82618 0.46168 0.66547 0.0
H749 H 0.90876 0.42642 0.66919 0.0
H750 H 0.95018 0.5584 0.68863 0.0
H751 H 0.86712 0.59324 0.68524 0.0
C752 C 0.07266 0.4822 0.67214 0.0
C753 C 0.08449 0.43403 0.67612 0.0
C754 C 0.02491 0.5015 0.67387 0.0
C755 C 0.98783 0.47253 0.67934 0.0
C756 C 4e-05 0.42511 0.68373 0.0
C757 C 0.04825 0.40627 0.68229 0.0
C758 C 0.85244 0.48255 0.67082 0.0
C759 C 0.84028 0.53023 0.67504 0.0
C760 C 0.89953 0.46232 0.67298 0.0
C761 C 0.9356 0.48987 0.67916 0.0
C762 C 0.92282 0.53651 0.68386 0.0
C763 C 0.8753 0.55626 0.68195 0.0
H764 H 0.42797 0.38069 0.93123 0.0
H765 H 0.47296 0.35775 0.89468 0.0
H766 H 0.46586 0.46329 0.93084 0.0
H767 H 0.51147 0.43969 0.8944 0.0
H768 H 0.57538 0.59694 0.92734 0.0
H769 H 0.5428 0.51231 0.92923 0.0
H770 H 0.47873 0.5238 0.89407 0.0
H771 H 0.51175 0.60759 0.89207 0.0
C772 C 0.44693 0.39268 0.9232 0.0
C773 C 0.44688 0.36264 0.91294 0.0
C774 C 0.46862 0.44015 0.92298 0.0
C775 C 0.49078 0.45856 0.91251 0.0
C776 C 0.4935 0.42722 0.90251 0.0
C777 C 0.47181 0.37995 0.90272 0.0
C778 C 0.55389 0.58161 0.92006 0.0
C779 C 0.54652 0.60912 0.90951 0.0
C780 C 0.53525 0.53304 0.92115 0.0
C781 C 0.5089 0.51091 0.91172 0.0
C782 C 0.49998 0.53917 0.90138 0.0
C783 C 0.51855 0.58753 0.90029 0.0
H784 H 0.61631 0.60319 0.0411 0.0
H785 H 0.6481 0.45949 0.05673 0.0
H786 H 0.53 0.57773 0.03786 0.0
H787 H 0.56213 0.4341 0.05337 0.0
H788 H 0.38038 0.53572 0.05912 0.0
H789 H 0.4649 0.56182 0.05423 0.0
H790 H 0.49304 0.41894 0.03805 0.0
H791 H 0.40832 0.39272 0.04284 0.0
C792 C 0.60532 0.5657 0.04352 0.0
C793 C 0.63883 0.53353 0.04932 0.0
C794 C 0.55587 0.55129 0.0417 0.0
C795 C 0.53938 0.50414 0.04543 0.0
C796 C 0.57391 0.47056 0.05033 0.0
C797 C 0.62308 0.48522 0.05232 0.0
C798 C 0.4041 0.5103 0.05425 0.0
C799 C 0.38785 0.46188 0.05155 0.0
C800 C 0.45243 0.52538 0.05137 0.0
C801 C 0.48558 0.49216 0.04587 0.0
C802 C 0.46826 0.44508 0.04239 0.0
C803 C 0.41969 0.43021 0.04511 0.0
H804 H 0.49582 0.15273 0.31436 0.0
H805 H 0.35761 0.1117 0.29728 0.0
H806 H 0.52644 0.06768 0.31175 0.0
H807 H 0.38799 0.02658 0.29496 0.0
H808 H 0.43873 0.87768 0.31583 0.0
H809 H 0.40891 0.96293 0.31294 0.0
H810 H 0.54486 0.00025 0.29446 0.0
H811 H 0.5744 0.91481 0.29705 0.0
C812 C 0.47241 0.12589 0.30984 0.0
C813 C 0.42424 0.1389 0.30607 0.0
C814 C 0.48997 0.07732 0.30833 0.0
C815 C 0.45932 0.04074 0.30324 0.0
C816 C 0.41215 0.0542 0.29896 0.0
C817 C 0.39499 0.103 0.30023 0.0
C818 C 0.46183 0.9038 0.31095 0.0
C819 C 0.50891 0.88958 0.3067 0.0
C820 C 0.4447 0.95244 0.30926 0.0
C821 C 0.47475 0.98794 0.3035 0.0
C822 C 0.52113 0.97345 0.29893 0.0
C823 C 0.53782 0.92454 0.30039 0.0
H824 H 0.91132 0.03737 0.56886 0.0
H825 H 0.94548 0.8995 0.55087 0.0
H826 H 0.99595 0.06689 0.56503 0.0
H827 H 0.0305 0.92883 0.54728 0.0
H828 H 0.18431 0.9782 0.5666 0.0
H829 H 0.09957 0.94739 0.56366 0.0
H830 H 0.05854 0.08697 0.54731 0.0
H831 H 0.14349 0.11763 0.54999 0.0
C832 C 0.93664 0.01373 0.56393 0.0
C833 C 0.92184 0.96606 0.56022 0.0
C834 C 0.98493 0.03073 0.56168 0.0
C835 C 0.01961 3e-05 0.55588 0.0
C836 C 0.00437 0.95313 0.55177 0.0
C837 C 0.95572 0.93651 0.5538 0.0
C838 C 0.15762 0.00176 0.56205 0.0
C839 C 0.17049 0.05043 0.5586 0.0
C840 C 0.1092 0.98408 0.56035 0.0
C841 C 0.07259 0.01505 0.55535 0.0
C842 C 0.08614 0.06253 0.55123 0.0
C843 C 0.13484 0.07987 0.55271 0.0
H844 H 0.05732 0.66321 0.81126 0.0
H845 H 0.918 0.63194 0.79354 0.0
H846 H 0.08381 0.57758 0.80799 0.0
H847 H 0.94452 0.54597 0.79038 0.0
H848 H 0.9803 0.39599 0.81213 0.0
H849 H 0.95582 0.48062 0.80691 0.0
H850 H 0.10291 0.50879 0.79288 0.0
H851 H 0.12756 0.42397 0.798 0.0
C852 C 0.03292 0.63842 0.80639 0.0
C853 C 0.98537 0.65415 0.8028 0.0
C854 C 0.0482 0.58944 0.80446 0.0
C855 C 0.01597 0.55511 0.79902 0.0
C856 C 0.96989 0.5717 0.79465 0.0
C857 C 0.95489 0.62096 0.79642 0.0
C858 C 0.00706 0.41976 0.80765 0.0
C859 C 0.05607 0.40347 0.80566 0.0
C860 C 0.99292 0.46814 0.80459 0.0
C861 C 0.02766 0.50131 0.79959 0.0
C862 C 0.07557 0.48399 0.7968 0.0
C863 C 0.08954 0.43537 0.79972 0.0
loop_
_geom_bond_atom_site_label_1
_geom_bond_atom_site_label_2
_geom_bond_distance
_geom_bond_site_symmetry_2
_ccdc_geom_bond_type
Mg0 O1 2.028 . S
Mg0 O7 1.986 . S
Mg0 O9 2.114 . S
Mg0 O10 2.251 . S
Mg0 O13 2.010 . S
O1 Mg0 2.028 . S
O1 C4 1.250 . S
O2 Mg3 2.028 . S
O2 C4 1.248 . S
Mg3 O2 2.028 . S
Mg3 O8 2.032 . S
Mg3 O10 2.079 . S
C4 O1 1.250 . S
C4 O2 1.248 . S
C5 O6 1.264 . S
C5 O13 1.249 . S
O6 C5 1.264 . S
O7 Mg0 1.986 . S
O7 C11 1.246 . S
O8 Mg3 2.032 . S
O8 C11 1.259 . S
O9 Mg0 2.114 . S
O9 C12 1.252 . S
O10 Mg0 2.251 . S
O10 Mg3 2.079 . S
O10 C12 1.273 . S
C11 O7 1.246 . S
C11 O8 1.259 . S
C12 O9 1.252 . S
C12 O10 1.273 . S
O13 Mg0 2.010 . S
O13 C5 1.249 . S
Mg14 O15 2.028 . S
Mg14 O21 1.986 . S
Mg14 O23 2.114 . S
Mg14 O24 2.251 . S
Mg14 O27 2.010 . S
O15 Mg14 2.028 . S
O15 C18 1.250 . S
O16 Mg17 2.028 . S
O16 C18 1.248 . S
Mg17 O16 2.028 . S
Mg17 O22 2.032 . S
Mg17 O24 2.079 . S
C18 O15 1.250 . S
C18 O16 1.248 . S
C19 O20 1.264 . S
C19 O27 1.249 . S
O20 C19 1.264 . S
O21 Mg14 1.986 . S
O21 C25 1.246 . S
O22 Mg17 2.032 . S
O22 C25 1.259 . S
O23 Mg14 2.114 . S
O23 C26 1.252 . S
O24 Mg14 2.251 . S
O24 Mg17 2.079 . S
O24 C26 1.273 . S
C25 O21 1.246 . S
C25 O22 1.259 . S
C26 O23 1.252 . S
C26 O24 1.273 . S
O27 Mg14 2.010 . S
O27 C19 1.249 . S
Mg28 O29 2.028 . S
Mg28 O35 1.986 . S
Mg28 O37 2.114 . S
Mg28 O38 2.251 . S
Mg28 O41 2.010 . S
O29 Mg28 2.028 . S
O29 C32 1.250 . S
O30 Mg31 2.028 . S
O30 C32 1.248 . S
Mg31 O30 2.028 . S
Mg31 O36 2.032 . S
Mg31 O38 2.079 . S
C32 O29 1.250 . S
C32 O30 1.248 . S
C33 O34 1.264 . S
C33 O41 1.249 . S
O34 C33 1.264 . S
O35 Mg28 1.986 . S
O35 C39 1.246 . S
O36 Mg31 2.032 . S
O36 C39 1.259 . S
O37 Mg28 2.114 . S
O37 C40 1.252 . S
O38 Mg28 2.251 . S
O38 Mg31 2.079 . S
O38 C40 1.273 . S
C39 O35 1.246 . S
C39 O36 1.259 . S
C40 O37 1.252 . S
C40 O38 1.273 . S
O41 Mg28 2.010 . S
O41 C33 1.249 . S
Mg42 O43 2.028 . S
Mg42 O49 1.986 . S
Mg42 O51 2.114 . S
Mg42 O52 2.251 . S
Mg42 O55 2.010 . S
O43 Mg42 2.028 . S
O43 C46 1.250 . S
O44 Mg45 2.028 . S
O44 C46 1.248 . S
Mg45 O44 2.028 . S
Mg45 O50 2.032 . S
Mg45 O52 2.079 . S
C46 O43 1.250 . S
C46 O44 1.248 . S
C47 O48 1.264 . S
C47 O55 1.249 . S
O48 C47 1.264 . S
O49 Mg42 1.986 . S
O49 C53 1.246 . S
O50 Mg45 2.032 . S
O50 C53 1.259 . S
O51 Mg42 2.114 . S
O51 C54 1.252 . S
O52 Mg42 2.251 . S
O52 Mg45 2.079 . S
O52 C54 1.273 . S
C53 O49 1.246 . S
C53 O50 1.259 . S
C54 O51 1.252 . S
C54 O52 1.273 . S
O55 Mg42 2.010 . S
O55 C47 1.249 . S
Mg56 O57 2.028 . S
Mg56 O63 1.986 . S
Mg56 O65 2.114 . S
Mg56 O66 2.251 . S
Mg56 O69 2.010 . S
O57 Mg56 2.028 . S
O57 C60 1.250 . S
O58 Mg59 2.028 . S
O58 C60 1.248 . S
Mg59 O58 2.028 . S
Mg59 O64 2.032 . S
Mg59 O66 2.079 . S
C60 O57 1.250 . S
C60 O58 1.248 . S
C61 O62 1.264 . S
C61 O69 1.249 . S
O62 C61 1.264 . S
O63 Mg56 1.986 . S
O63 C67 1.246 . S
O64 Mg59 2.032 . S
O64 C67 1.259 . S
O65 Mg56 2.114 . S
O65 C68 1.252 . S
O66 Mg56 2.251 . S
O66 Mg59 2.079 . S
O66 C68 1.273 . S
C67 O63 1.246 . S
C67 O64 1.259 . S
C68 O65 1.252 . S
C68 O66 1.273 . S
O69 Mg56 2.010 . S
O69 C61 1.249 . S
Mg70 O71 2.028 . S
Mg70 O77 1.986 . S
Mg70 O79 2.114 . S
Mg70 O80 2.251 . S
Mg70 O83 2.010 . S
O71 Mg70 2.028 . S
O71 C74 1.250 . S
O72 Mg73 2.028 . S
O72 C74 1.248 . S
Mg73 O72 2.028 . S
Mg73 O78 2.032 . S
Mg73 O80 2.079 . S
C74 O71 1.250 . S
C74 O72 1.248 . S
C75 O76 1.264 . S
C75 O83 1.249 . S
O76 C75 1.264 . S
O77 Mg70 1.986 . S
O77 C81 1.246 . S
O78 Mg73 2.032 . S
O78 C81 1.259 . S
O79 Mg70 2.114 . S
O79 C82 1.252 . S
O80 Mg70 2.251 . S
O80 Mg73 2.079 . S
O80 C82 1.273 . S
C81 O77 1.246 . S
C81 O78 1.259 . S
C82 O79 1.252 . S
C82 O80 1.273 . S
O83 Mg70 2.010 . S
O83 C75 1.249 . S
Mg84 O85 2.028 . S
Mg84 O91 1.986 . S
Mg84 O93 2.114 . S
Mg84 O94 2.251 . S
Mg84 O97 2.010 . S
O85 Mg84 2.028 . S
O85 C88 1.250 . S
O86 Mg87 2.028 . S
O86 C88 1.248 . S
Mg87 O86 2.028 . S
Mg87 O92 2.032 . S
Mg87 O94 2.079 . S
C88 O85 1.250 . S
C88 O86 1.248 . S
C89 O90 1.264 . S
C89 O97 1.249 . S
O90 C89 1.264 . S
O91 Mg84 1.986 . S
O91 C95 1.246 . S
O92 Mg87 2.032 . S
O92 C95 1.259 . S
O93 Mg84 2.114 . S
O93 C96 1.252 . S
O94 Mg84 2.251 . S
O94 Mg87 2.079 . S
O94 C96 1.273 . S
C95 O91 1.246 . S
C95 O92 1.259 . S
C96 O93 1.252 . S
C96 O94 1.273 . S
O97 Mg84 2.010 . S
O97 C89 1.249 . S
Mg98 O99 2.028 . S
Mg98 O105 1.986 . S
Mg98 O107 2.114 . S
Mg98 O108 2.251 . S
Mg98 O111 2.010 . S
O99 Mg98 2.028 . S
O99 C102 1.250 . S
O100 Mg101 2.028 . S
O100 C102 1.248 . S
Mg101 O100 2.028 . S
Mg101 O106 2.032 . S
Mg101 O108 2.079 . S
C102 O99 1.250 . S
C102 O100 1.248 . S
C103 O104 1.264 . S
C103 O111 1.249 . S
O104 C103 1.264 . S
O105 Mg98 1.986 . S
O105 C109 1.246 . S
O106 Mg101 2.032 . S
O106 C109 1.259 . S
O107 Mg98 2.114 . S
O107 C110 1.252 . S
O108 Mg98 2.251 . S
O108 Mg101 2.079 . S
O108 C110 1.273 . S
C109 O105 1.246 . S
C109 O106 1.259 . S
C110 O107 1.252 . S
C110 O108 1.273 . S
O111 Mg98 2.010 . S
O111 C103 1.249 . S
Mg112 O113 2.028 . S
Mg112 O119 1.986 . S
Mg112 O121 2.114 . S
Mg112 O122 2.251 . S
Mg112 O125 2.010 . S
O113 Mg112 2.028 . S
O113 C116 1.250 . S
O114 Mg115 2.028 . S
O114 C116 1.248 . S
Mg115 O114 2.028 . S
Mg115 O120 2.032 . S
Mg115 O122 2.079 . S
C116 O113 1.250 . S
C116 O114 1.248 . S
C117 O118 1.264 . S
C117 O125 1.249 . S
O118 C117 1.264 . S
O119 Mg112 1.986 . S
O119 C123 1.246 . S
O120 Mg115 2.032 . S
O120 C123 1.259 . S
O121 Mg112 2.114 . S
O121 C124 1.252 . S
O122 Mg112 2.251 . S
O122 Mg115 2.079 . S
O122 C124 1.273 . S
C123 O119 1.246 . S
C123 O120 1.259 . S
C124 O121 1.252 . S
C124 O122 1.273 . S
O125 Mg112 2.010 . S
O125 C117 1.249 . S
Mg126 O127 2.028 . S
Mg126 O133 1.986 . S
Mg126 O135 2.114 . S
Mg126 O136 2.251 . S
Mg126 O139 2.010 . S
O127 Mg126 2.028 . S
O127 C130 1.250 . S
O128 Mg129 2.028 . S
O128 C130 1.248 . S
Mg129 O128 2.028 . S
Mg129 O134 2.032 . S
Mg129 O136 2.079 . S
C130 O127 1.250 . S
C130 O128 1.248 . S
C131 O132 1.264 . S
C131 O139 1.249 . S
O132 C131 1.264 . S
O133 Mg126 1.986 . S
O133 C137 1.246 . S
O134 Mg129 2.032 . S
O134 C137 1.259 . S
O135 Mg126 2.114 . S
O135 C138 1.252 . S
O136 Mg126 2.251 . S
O136 Mg129 2.079 . S
O136 C138 1.273 . S
C137 O133 1.246 . S
C137 O134 1.259 . S
C138 O135 1.252 . S
C138 O136 1.273 . S
O139 Mg126 2.010 . S
O139 C131 1.249 . S
Mg140 O141 2.028 . S
Mg140 O147 1.986 . S
Mg140 O149 2.114 . S
Mg140 O150 2.251 . S
Mg140 O153 2.010 . S
O141 Mg140 2.028 . S
O141 C144 1.250 . S
O142 Mg143 2.028 . S
O142 C144 1.248 . S
Mg143 O142 2.028 . S
Mg143 O148 2.032 . S
Mg143 O150 2.079 . S
C144 O141 1.250 . S
C144 O142 1.248 . S
C145 O146 1.264 . S
C145 O153 1.249 . S
O146 C145 1.264 . S
O147 Mg140 1.986 . S
O147 C151 1.246 . S
O148 Mg143 2.032 . S
O148 C151 1.259 . S
O149 Mg140 2.114 . S
O149 C152 1.252 . S
O150 Mg140 2.251 . S
O150 Mg143 2.079 . S
O150 C152 1.273 . S
C151 O147 1.246 . S
C151 O148 1.259 . S
C152 O149 1.252 . S
C152 O150 1.273 . S
O153 Mg140 2.010 . S
O153 C145 1.249 . S
Mg154 O155 2.028 . S
Mg154 O161 1.986 . S
Mg154 O163 2.114 . S
Mg154 O164 2.251 . S
Mg154 O167 2.010 . S
O155 Mg154 2.028 . S
O155 C158 1.250 . S
O156 Mg157 2.028 . S
O156 C158 1.248 . S
Mg157 O156 2.028 . S
Mg157 O162 2.032 . S
Mg157 O164 2.079 . S
C158 O155 1.250 . S
C158 O156 1.248 . S
C159 O160 1.264 . S
C159 O167 1.249 . S
O160 C159 1.264 . S
O161 Mg154 1.986 . S
O161 C165 1.246 . S
O162 Mg157 2.032 . S
O162 C165 1.259 . S
O163 Mg154 2.114 . S
O163 C166 1.252 . S
O164 Mg154 2.251 . S
O164 Mg157 2.079 . S
O164 C166 1.273 . S
C165 O161 1.246 . S
C165 O162 1.259 . S
C166 O163 1.252 . S
C166 O164 1.273 . S
O167 Mg154 2.010 . S
O167 C159 1.249 . S
Mg168 O169 2.028 . S
Mg168 O175 1.986 . S
Mg168 O177 2.114 . S
Mg168 O178 2.251 . S
Mg168 O181 2.010 . S
O169 Mg168 2.028 . S
O169 C172 1.250 . S
O170 Mg171 2.028 . S
O170 C172 1.248 . S
Mg171 O170 2.028 . S
Mg171 O176 2.032 . S
Mg171 O178 2.079 . S
C172 O169 1.250 . S
C172 O170 1.248 . S
C173 O174 1.264 . S
C173 O181 1.249 . S
O174 C173 1.264 . S
O175 Mg168 1.986 . S
O175 C179 1.246 . S
O176 Mg171 2.032 . S
O176 C179 1.259 . S
O177 Mg168 2.114 . S
O177 C180 1.252 . S
O178 Mg168 2.251 . S
O178 Mg171 2.079 . S
O178 C180 1.273 . S
C179 O175 1.246 . S
C179 O176 1.259 . S
C180 O177 1.252 . S
C180 O178 1.273 . S
O181 Mg168 2.010 . S
O181 C173 1.249 . S
Mg182 O183 2.028 . S
Mg182 O189 1.986 . S
Mg182 O191 2.114 . S
Mg182 O192 2.251 . S
Mg182 O195 2.010 . S
O183 Mg182 2.028 . S
O183 C186 1.250 . S
O184 Mg185 2.028 . S
O184 C186 1.248 . S
Mg185 O184 2.028 . S
Mg185 O190 2.032 . S
Mg185 O192 2.079 . S
C186 O183 1.250 . S
C186 O184 1.248 . S
C187 O188 1.264 . S
C187 O195 1.249 . S
O188 C187 1.264 . S
O189 Mg182 1.986 . S
O189 C193 1.246 . S
O190 Mg185 2.032 . S
O190 C193 1.259 . S
O191 Mg182 2.114 . S
O191 C194 1.252 . S
O192 Mg182 2.251 . S
O192 Mg185 2.079 . S
O192 C194 1.273 . S
C193 O189 1.246 . S
C193 O190 1.259 . S
C194 O191 1.252 . S
C194 O192 1.273 . S
O195 Mg182 2.010 . S
O195 C187 1.249 . S
Mg196 O197 2.028 . S
Mg196 O203 1.986 . S
Mg196 O205 2.114 . S
Mg196 O206 2.251 . S
Mg196 O209 2.010 . S
O197 Mg196 2.028 . S
O197 C200 1.250 . S
O198 Mg199 2.028 . S
O198 C200 1.248 . S
Mg199 O198 2.028 . S
Mg199 O204 2.032 . S
Mg199 O206 2.079 . S
C200 O197 1.250 . S
C200 O198 1.248 . S
C201 O202 1.264 . S
C201 O209 1.249 . S
O202 C201 1.264 . S
O203 Mg196 1.986 . S
O203 C207 1.246 . S
O204 Mg199 2.032 . S
O204 C207 1.259 . S
O205 Mg196 2.114 . S
O205 C208 1.252 . S
O206 Mg196 2.251 . S
O206 Mg199 2.079 . S
O206 C208 1.273 . S
C207 O203 1.246 . S
C207 O204 1.259 . S
C208 O205 1.252 . S
C208 O206 1.273 . S
O209 Mg196 2.010 . S
O209 C201 1.249 . S
Mg210 O211 2.028 . S
Mg210 O217 1.986 . S
Mg210 O219 2.114 . S
Mg210 O220 2.251 . S
Mg210 O223 2.010 . S
O211 Mg210 2.028 . S
O211 C214 1.250 . S
O212 Mg213 2.028 . S
O212 C214 1.248 . S
Mg213 O212 2.028 . S
Mg213 O218 2.032 . S
Mg213 O220 2.079 . S
C214 O211 1.250 . S
C214 O212 1.248 . S
C215 O216 1.264 . S
C215 O223 1.249 . S
O216 C215 1.264 . S
O217 Mg210 1.986 . S
O217 C221 1.246 . S
O218 Mg213 2.032 . S
O218 C221 1.259 . S
O219 Mg210 2.114 . S
O219 C222 1.252 . S
O220 Mg210 2.251 . S
O220 Mg213 2.079 . S
O220 C222 1.273 . S
C221 O217 1.246 . S
C221 O218 1.259 . S
C222 O219 1.252 . S
C222 O220 1.273 . S
O223 Mg210 2.010 . S
O223 C215 1.249 . S
H224 C232 0.950 . S
H225 C237 0.950 . S
H226 C234 0.950 . S
H227 C236 0.950 . S
H228 C238 0.950 . S
H229 C240 0.950 . S
H230 C242 0.950 . S
H231 C243 0.950 . S
C232 H224 0.950 . S
C232 C233 1.386 . S
C232 C234 1.391 . S
C233 C232 1.386 . S
C233 C237 1.393 . S
C234 H226 0.950 . S
C234 C232 1.391 . S
C234 C235 1.400 . S
C235 C234 1.400 . S
C235 C236 1.398 . S
C235 C241 1.491 . S
C236 H227 0.950 . S
C236 C235 1.398 . S
C236 C237 1.391 . S
C237 H225 0.950 . S
C237 C233 1.393 . S
C237 C236 1.391 . S
C238 H228 0.950 . S
C238 C239 1.386 . S
C238 C240 1.391 . S
C239 C238 1.386 . S
C239 C243 1.393 . S
C240 H229 0.950 . S
C240 C238 1.391 . S
C240 C241 1.400 . S
C241 C235 1.491 . S
C241 C240 1.400 . S
C241 C242 1.398 . S
C242 H230 0.950 . S
C242 C241 1.398 . S
C242 C243 1.391 . S
C243 H231 0.950 . S
C243 C239 1.393 . S
C243 C242 1.391 . S
H244 C252 0.950 . S
H245 C257 0.950 . S
H246 C254 0.950 . S
H247 C256 0.950 . S
H248 C258 0.950 . S
H249 C260 0.950 . S
H250 C262 0.950 . S
H251 C263 0.950 . S
C252 H244 0.950 . S
C252 C253 1.386 . S
C252 C254 1.391 . S
C253 C252 1.386 . S
C253 C257 1.393 . S
C254 H246 0.950 . S
C254 C252 1.391 . S
C254 C255 1.400 . S
C255 C254 1.400 . S
C255 C256 1.398 . S
C255 C261 1.491 . S
C256 H247 0.950 . S
C256 C255 1.398 . S
C256 C257 1.391 . S
C257 H245 0.950 . S
C257 C253 1.393 . S
C257 C256 1.391 . S
C258 H248 0.950 . S
C258 C259 1.386 . S
C258 C260 1.391 . S
C259 C258 1.386 . S
C259 C263 1.393 . S
C260 H249 0.950 . S
C260 C258 1.391 . S
C260 C261 1.400 . S
C261 C255 1.491 . S
C261 C260 1.400 . S
C261 C262 1.398 . S
C262 H250 0.950 . S
C262 C261 1.398 . S
C262 C263 1.391 . S
C263 H251 0.950 . S
C263 C259 1.393 . S
C263 C262 1.391 . S
H264 C272 0.950 . S
H265 C277 0.950 . S
H266 C274 0.950 . S
H267 C276 0.950 . S
H268 C278 0.950 . S
H269 C280 0.950 . S
H270 C282 0.950 . S
H271 C283 0.950 . S
C272 H264 0.950 . S
C272 C273 1.386 . S
C272 C274 1.391 . S
C273 C272 1.386 . S
C273 C277 1.393 . S
C274 H266 0.950 . S
C274 C272 1.391 . S
C274 C275 1.400 . S
C275 C274 1.400 . S
C275 C276 1.398 . S
C275 C281 1.491 . S
C276 H267 0.950 . S
C276 C275 1.398 . S
C276 C277 1.391 . S
C277 H265 0.950 . S
C277 C273 1.393 . S
C277 C276 1.391 . S
C278 H268 0.950 . S
C278 C279 1.386 . S
C278 C280 1.391 . S
C279 C278 1.386 . S
C279 C283 1.393 . S
C280 H269 0.950 . S
C280 C278 1.391 . S
C280 C281 1.400 . S
C281 C275 1.491 . S
C281 C280 1.400 . S
C281 C282 1.398 . S
C282 H270 0.950 . S
C282 C281 1.398 . S
C282 C283 1.391 . S
C283 H271 0.950 . S
C283 C279 1.393 . S
C283 C282 1.391 . S
H284 C292 0.950 . S
H285 C297 0.950 . S
H286 C294 0.950 . S
H287 C296 0.950 . S
H288 C298 0.950 . S
H289 C300 0.950 . S
H290 C302 0.950 . S
H291 C303 0.950 . S
C292 H284 0.950 . S
C292 C293 1.386 . S
C292 C294 1.391 . S
C293 C292 1.386 . S
C293 C297 1.393 . S
C294 H286 0.950 . S
C294 C292 1.391 . S
C294 C295 1.400 . S
C295 C294 1.400 . S
C295 C296 1.398 . S
C295 C301 1.491 . S
C296 H287 0.950 . S
C296 C295 1.398 . S
C296 C297 1.391 . S
C297 H285 0.950 . S
C297 C293 1.393 . S
C297 C296 1.391 . S
C298 H288 0.950 . S
C298 C299 1.386 . S
C298 C300 1.391 . S
C299 C298 1.386 . S
C299 C303 1.393 . S
C300 H289 0.950 . S
C300 C298 1.391 . S
C300 C301 1.400 . S
C301 C295 1.491 . S
C301 C300 1.400 . S
C301 C302 1.398 . S
C302 H290 0.950 . S
C302 C301 1.398 . S
C302 C303 1.391 . S
C303 H291 0.950 . S
C303 C299 1.393 . S
C303 C302 1.391 . S
H304 C312 0.950 . S
H305 C317 0.950 . S
H306 C314 0.950 . S
H307 C316 0.950 . S
H308 C318 0.950 . S
H309 C320 0.950 . S
H310 C322 0.950 . S
H311 C323 0.950 . S
C312 H304 0.950 . S
C312 C313 1.386 . S
C312 C314 1.391 . S
C313 C312 1.386 . S
C313 C317 1.393 . S
C314 H306 0.950 . S
C314 C312 1.391 . S
C314 C315 1.400 . S
C315 C314 1.400 . S
C315 C316 1.398 . S
C315 C321 1.491 . S
C316 H307 0.950 . S
C316 C315 1.398 . S
C316 C317 1.391 . S
C317 H305 0.950 . S
C317 C313 1.393 . S
C317 C316 1.391 . S
C318 H308 0.950 . S
C318 C319 1.386 . S
C318 C320 1.391 . S
C319 C318 1.386 . S
C319 C323 1.393 . S
C320 H309 0.950 . S
C320 C318 1.391 . S
C320 C321 1.400 . S
C321 C315 1.491 . S
C321 C320 1.400 . S
C321 C322 1.398 . S
C322 H310 0.950 . S
C322 C321 1.398 . S
C322 C323 1.391 . S
C323 H311 0.950 . S
C323 C319 1.393 . S
C323 C322 1.391 . S
H324 C332 0.950 . S
H325 C337 0.950 . S
H326 C334 0.950 . S
H327 C336 0.950 . S
H328 C338 0.950 . S
H329 C340 0.950 . S
H330 C342 0.950 . S
H331 C343 0.950 . S
C332 H324 0.950 . S
C332 C333 1.386 . S
C332 C334 1.391 . S
C333 C332 1.386 . S
C333 C337 1.393 . S
C334 H326 0.950 . S
C334 C332 1.391 . S
C334 C335 1.400 . S
C335 C334 1.400 . S
C335 C336 1.398 . S
C335 C341 1.491 . S
C336 H327 0.950 . S
C336 C335 1.398 . S
C336 C337 1.391 . S
C337 H325 0.950 . S
C337 C333 1.393 . S
C337 C336 1.391 . S
C338 H328 0.950 . S
C338 C339 1.386 . S
C338 C340 1.391 . S
C339 C338 1.386 . S
C339 C343 1.393 . S
C340 H329 0.950 . S
C340 C338 1.391 . S
C340 C341 1.400 . S
C341 C335 1.491 . S
C341 C340 1.400 . S
C341 C342 1.398 . S
C342 H330 0.950 . S
C342 C341 1.398 . S
C342 C343 1.391 . S
C343 H331 0.950 . S
C343 C339 1.393 . S
C343 C342 1.391 . S
H344 C352 0.950 . S
H345 C357 0.950 . S
H346 C354 0.950 . S
H347 C356 0.950 . S
H348 C358 0.950 . S
H349 C360 0.950 . S
H350 C362 0.950 . S
H351 C363 0.950 . S
C352 H344 0.950 . S
C352 C353 1.386 . S
C352 C354 1.391 . S
C353 C352 1.386 . S
C353 C357 1.393 . S
C354 H346 0.950 . S
C354 C352 1.391 . S
C354 C355 1.400 . S
C355 C354 1.400 . S
C355 C356 1.398 . S
C355 C361 1.491 . S
C356 H347 0.950 . S
C356 C355 1.398 . S
C356 C357 1.391 . S
C357 H345 0.950 . S
C357 C353 1.393 . S
C357 C356 1.391 . S
C358 H348 0.950 . S
C358 C359 1.386 . S
C358 C360 1.391 . S
C359 C358 1.386 . S
C359 C363 1.393 . S
C360 H349 0.950 . S
C360 C358 1.391 . S
C360 C361 1.400 . S
C361 C355 1.491 . S
C361 C360 1.400 . S
C361 C362 1.398 . S
C362 H350 0.950 . S
C362 C361 1.398 . S
C362 C363 1.391 . S
C363 H351 0.950 . S
C363 C359 1.393 . S
C363 C362 1.391 . S
H364 C372 0.950 . S
H365 C377 0.950 . S
H366 C374 0.950 . S
H367 C376 0.950 . S
H368 C378 0.950 . S
H369 C380 0.950 . S
H370 C382 0.950 . S
H371 C383 0.950 . S
C372 H364 0.950 . S
C372 C373 1.386 . S
C372 C374 1.391 . S
C373 C372 1.386 . S
C373 C377 1.393 . S
C374 H366 0.950 . S
C374 C372 1.391 . S
C374 C375 1.400 . S
C375 C374 1.400 . S
C375 C376 1.398 . S
C375 C381 1.491 . S
C376 H367 0.950 . S
C376 C375 1.398 . S
C376 C377 1.391 . S
C377 H365 0.950 . S
C377 C373 1.393 . S
C377 C376 1.391 . S
C378 H368 0.950 . S
C378 C379 1.386 . S
C378 C380 1.391 . S
C379 C378 1.386 . S
C379 C383 1.393 . S
C380 H369 0.950 . S
C380 C378 1.391 . S
C380 C381 1.400 . S
C381 C375 1.491 . S
C381 C380 1.400 . S
C381 C382 1.398 . S
C382 H370 0.950 . S
C382 C381 1.398 . S
C382 C383 1.391 . S
C383 H371 0.950 . S
C383 C379 1.393 . S
C383 C382 1.391 . S
H384 C392 0.950 . S
H385 C397 0.950 . S
H386 C394 0.950 . S
H387 C396 0.950 . S
H388 C398 0.950 . S
H389 C400 0.950 . S
H390 C402 0.950 . S
H391 C403 0.950 . S
C392 H384 0.950 . S
C392 C393 1.386 . S
C392 C394 1.391 . S
C393 C392 1.386 . S
C393 C397 1.393 . S
C394 H386 0.950 . S
C394 C392 1.391 . S
C394 C395 1.400 . S
C395 C394 1.400 . S
C395 C396 1.398 . S
C395 C401 1.491 . S
C396 H387 0.950 . S
C396 C395 1.398 . S
C396 C397 1.391 . S
C397 H385 0.950 . S
C397 C393 1.393 . S
C397 C396 1.391 . S
C398 H388 0.950 . S
C398 C399 1.386 . S
C398 C400 1.391 . S
C399 C398 1.386 . S
C399 C403 1.393 . S
C400 H389 0.950 . S
C400 C398 1.391 . S
C400 C401 1.400 . S
C401 C395 1.491 . S
C401 C400 1.400 . S
C401 C402 1.398 . S
C402 H390 0.950 . S
C402 C401 1.398 . S
C402 C403 1.391 . S
C403 H391 0.950 . S
C403 C399 1.393 . S
C403 C402 1.391 . S
H404 C412 0.950 . S
H405 C417 0.950 . S
H406 C414 0.950 . S
H407 C416 0.950 . S
H408 C418 0.950 . S
H409 C420 0.950 . S
H410 C422 0.950 . S
H411 C423 0.950 . S
C412 H404 0.950 . S
C412 C413 1.386 . S
C412 C414 1.391 . S
C413 C412 1.386 . S
C413 C417 1.393 . S
C414 H406 0.950 . S
C414 C412 1.391 . S
C414 C415 1.400 . S
C415 C414 1.400 . S
C415 C416 1.398 . S
C415 C421 1.491 . S
C416 H407 0.950 . S
C416 C415 1.398 . S
C416 C417 1.391 . S
C417 H405 0.950 . S
C417 C413 1.393 . S
C417 C416 1.391 . S
C418 H408 0.950 . S
C418 C419 1.386 . S
C418 C420 1.391 . S
C419 C418 1.386 . S
C419 C423 1.393 . S
C420 H409 0.950 . S
C420 C418 1.391 . S
C420 C421 1.400 . S
C421 C415 1.491 . S
C421 C420 1.400 . S
C421 C422 1.398 . S
C422 H410 0.950 . S
C422 C421 1.398 . S
C422 C423 1.391 . S
C423 H411 0.950 . S
C423 C419 1.393 . S
C423 C422 1.391 . S
H424 C432 0.950 . S
H425 C437 0.950 . S
H426 C434 0.950 . S
H427 C436 0.950 . S
H428 C438 0.950 . S
H429 C440 0.950 . S
H430 C442 0.950 . S
H431 C443 0.950 . S
C432 H424 0.950 . S
C432 C433 1.386 . S
C432 C434 1.391 . S
C433 C432 1.386 . S
C433 C437 1.393 . S
C434 H426 0.950 . S
C434 C432 1.391 . S
C434 C435 1.400 . S
C435 C434 1.400 . S
C435 C436 1.398 . S
C435 C441 1.491 . S
C436 H427 0.950 . S
C436 C435 1.398 . S
C436 C437 1.391 . S
C437 H425 0.950 . S
C437 C433 1.393 . S
C437 C436 1.391 . S
C438 H428 0.950 . S
C438 C439 1.386 . S
C438 C440 1.391 . S
C439 C438 1.386 . S
C439 C443 1.393 . S
C440 H429 0.950 . S
C440 C438 1.391 . S
C440 C441 1.400 . S
C441 C435 1.491 . S
C441 C440 1.400 . S
C441 C442 1.398 . S
C442 H430 0.950 . S
C442 C441 1.398 . S
C442 C443 1.391 . S
C443 H431 0.950 . S
C443 C439 1.393 . S
C443 C442 1.391 . S
H444 C452 0.950 . S
H445 C457 0.950 . S
H446 C454 0.950 . S
H447 C456 0.950 . S
H448 C458 0.950 . S
H449 C460 0.950 . S
H450 C462 0.950 . S
H451 C463 0.950 . S
C452 H444 0.950 . S
C452 C453 1.386 . S
C452 C454 1.391 . S
C453 C452 1.386 . S
C453 C457 1.393 . S
C454 H446 0.950 . S
C454 C452 1.391 . S
C454 C455 1.400 . S
C455 C454 1.400 . S
C455 C456 1.398 . S
C455 C461 1.491 1_554 S
C456 H447 0.950 . S
C456 C455 1.398 . S
C456 C457 1.391 . S
C457 H445 0.950 . S
C457 C453 1.393 . S
C457 C456 1.391 . S
C458 H448 0.950 . S
C458 C459 1.386 . S
C458 C460 1.391 . S
C459 C458 1.386 . S
C459 C463 1.393 . S
C460 H449 0.950 . S
C460 C458 1.391 . S
C460 C461 1.400 . S
C461 C455 1.491 1_556 S
C461 C460 1.400 . S
C461 C462 1.398 . S
C462 H450 0.950 . S
C462 C461 1.398 . S
C462 C463 1.391 . S
C463 H451 0.950 . S
C463 C459 1.393 . S
C463 C462 1.391 . S
H464 C472 0.950 . S
H465 C477 0.950 . S
H466 C474 0.950 . S
H467 C476 0.950 . S
H468 C478 0.950 . S
H469 C480 0.950 . S
H470 C482 0.950 . S
H471 C483 0.950 . S
C472 H464 0.950 . S
C472 C473 1.386 . S
C472 C474 1.391 . S
C473 C472 1.386 . S
C473 C477 1.393 . S
C474 H466 0.950 . S
C474 C472 1.391 . S
C474 C475 1.400 . S
C475 C474 1.400 . S
C475 C476 1.398 . S
C475 C481 1.491 1_554 S
C476 H467 0.950 . S
C476 C475 1.398 . S
C476 C477 1.391 . S
C477 H465 0.950 . S
C477 C473 1.393 . S
C477 C476 1.391 . S
C478 H468 0.950 . S
C478 C479 1.386 . S
C478 C480 1.391 . S
C479 C478 1.386 . S
C479 C483 1.393 . S
C480 H469 0.950 . S
C480 C478 1.391 . S
C480 C481 1.400 . S
C481 C475 1.491 1_556 S
C481 C480 1.400 . S
C481 C482 1.398 . S
C482 H470 0.950 . S
C482 C481 1.398 . S
C482 C483 1.391 . S
C483 H471 0.950 . S
C483 C479 1.393 . S
C483 C482 1.391 . S
H484 C492 0.950 . S
H485 C497 0.950 . S
H486 C494 0.950 . S
H487 C496 0.950 . S
H488 C498 0.950 . S
H489 C500 0.950 . S
H490 C502 0.950 . S
H491 C503 0.950 . S
C492 H484 0.950 . S
C492 C493 1.386 . S
C492 C494 1.391 . S
C493 C492 1.386 . S
C493 C497 1.393 . S
C494 H486 0.950 . S
C494 C492 1.391 . S
C494 C495 1.400 . S
C495 C494 1.400 . S
C495 C496 1.398 . S
C495 C501 1.491 . S
C496 H487 0.950 . S
C496 C495 1.398 . S
C496 C497 1.391 . S
C497 H485 0.950 . S
C497 C493 1.393 . S
C497 C496 1.391 . S
C498 H488 0.950 . S
C498 C499 1.386 . S
C498 C500 1.391 . S
C499 C498 1.386 . S
C499 C503 1.393 . S
C500 H489 0.950 . S
C500 C498 1.391 . S
C500 C501 1.400 . S
C501 C495 1.491 . S
C501 C500 1.400 . S
C501 C502 1.398 . S
C502 H490 0.950 . S
C502 C501 1.398 . S
C502 C503 1.391 . S
C503 H491 0.950 . S
C503 C499 1.393 . S
C503 C502 1.391 . S
H504 C512 0.950 . S
H505 C517 0.950 . S
H506 C514 0.950 . S
H507 C516 0.950 . S
H508 C518 0.950 . S
H509 C520 0.950 . S
H510 C522 0.950 . S
H511 C523 0.950 . S
C512 H504 0.950 . S
C512 C513 1.386 . S
C512 C514 1.391 . S
C513 C512 1.386 . S
C513 C517 1.393 . S
C514 H506 0.950 . S
C514 C512 1.391 . S
C514 C515 1.400 . S
C515 C514 1.400 . S
C515 C516 1.398 . S
C515 C521 1.491 . S
C516 H507 0.950 . S
C516 C515 1.398 . S
C516 C517 1.391 . S
C517 H505 0.950 . S
C517 C513 1.393 . S
C517 C516 1.391 . S
C518 H508 0.950 . S
C518 C519 1.386 . S
C518 C520 1.391 . S
C519 C518 1.386 . S
C519 C523 1.393 . S
C520 H509 0.950 . S
C520 C518 1.391 . S
C520 C521 1.400 . S
C521 C515 1.491 . S
C521 C520 1.400 . S
C521 C522 1.398 . S
C522 H510 0.950 . S
C522 C521 1.398 . S
C522 C523 1.391 . S
C523 H511 0.950 . S
C523 C519 1.393 . S
C523 C522 1.391 . S
H524 C532 0.950 . S
H525 C537 0.950 . S
H526 C534 0.950 . S
H527 C536 0.950 . S
H528 C538 0.950 . S
H529 C540 0.950 . S
H530 C542 0.950 . S
H531 C543 0.950 . S
C532 H524 0.950 . S
C532 C533 1.386 . S
C532 C534 1.391 . S
C533 C532 1.386 . S
C533 C537 1.393 . S
C534 H526 0.950 . S
C534 C532 1.391 . S
C534 C535 1.400 . S
C535 C534 1.400 . S
C535 C536 1.398 . S
C535 C541 1.491 . S
C536 H527 0.950 . S
C536 C535 1.398 . S
C536 C537 1.391 . S
C537 H525 0.950 . S
C537 C533 1.393 . S
C537 C536 1.391 . S
C538 H528 0.950 . S
C538 C539 1.386 . S
C538 C540 1.391 . S
C539 C538 1.386 . S
C539 C543 1.393 . S
C540 H529 0.950 . S
C540 C538 1.391 . S
C540 C541 1.400 . S
C541 C535 1.491 . S
C541 C540 1.400 . S
C541 C542 1.398 . S
C542 H530 0.950 . S
C542 C541 1.398 . S
C542 C543 1.391 . S
C543 H531 0.950 . S
C543 C539 1.393 . S
C543 C542 1.391 . S
H544 C552 0.950 1_565 S
H545 C557 0.950 . S
H546 C554 0.950 . S
H547 C556 0.950 . S
H548 C558 0.950 1_545 S
H549 C560 0.950 . S
H550 C562 0.950 . S
H551 C563 0.950 . S
C552 H544 0.950 1_545 S
C552 C553 1.386 . S
C552 C554 1.391 1_545 S
C553 C552 1.386 . S
C553 C557 1.393 . S
C554 H546 0.950 . S
C554 C552 1.391 1_565 S
C554 C555 1.400 1_565 S
C555 C554 1.400 1_545 S
C555 C556 1.398 . S
C555 C561 1.491 1_445 S
C556 H547 0.950 . S
C556 C555 1.398 . S
C556 C557 1.391 . S
C557 H545 0.950 . S
C557 C553 1.393 . S
C557 C556 1.391 . S
C558 H548 0.950 1_565 S
C558 C559 1.386 . S
C558 C560 1.391 1_565 S
C559 C558 1.386 . S
C559 C563 1.393 . S
C560 H549 0.950 . S
C560 C558 1.391 1_545 S
C560 C561 1.400 1_545 S
C561 C555 1.491 1_665 S
C561 C560 1.400 1_565 S
C561 C562 1.398 . S
C562 H550 0.950 . S
C562 C561 1.398 . S
C562 C563 1.391 . S
C563 H551 0.950 . S
C563 C559 1.393 . S
C563 C562 1.391 . S
H564 C572 0.950 . S
H565 C577 0.950 . S
H566 C574 0.950 1_655 S
H567 C576 0.950 . S
H568 C578 0.950 . S
H569 C580 0.950 1_455 S
H570 C582 0.950 . S
H571 C583 0.950 . S
C572 H564 0.950 . S
C572 C573 1.386 . S
C572 C574 1.391 . S
C573 C572 1.386 . S
C573 C577 1.393 . S
C574 H566 0.950 1_455 S
C574 C572 1.391 . S
C574 C575 1.400 . S
C575 C574 1.400 . S
C575 C576 1.398 . S
C575 C581 1.491 1_455 S
C576 H567 0.950 . S
C576 C575 1.398 . S
C576 C577 1.391 . S
C577 H565 0.950 . S
C577 C573 1.393 . S
C577 C576 1.391 . S
C578 H568 0.950 . S
C578 C579 1.386 . S
C578 C580 1.391 . S
C579 C578 1.386 . S
C579 C583 1.393 . S
C580 H569 0.950 1_655 S
C580 C578 1.391 . S
C580 C581 1.400 . S
C581 C575 1.491 1_655 S
C581 C580 1.400 . S
C581 C582 1.398 . S
C582 H570 0.950 . S
C582 C581 1.398 . S
C582 C583 1.391 . S
C583 H571 0.950 . S
C583 C579 1.393 . S
C583 C582 1.391 . S
H584 C592 0.950 . S
H585 C597 0.950 . S
H586 C594 0.950 . S
H587 C596 0.950 . S
H588 C598 0.950 . S
H589 C600 0.950 . S
H590 C602 0.950 . S
H591 C603 0.950 . S
C592 H584 0.950 . S
C592 C593 1.386 . S
C592 C594 1.391 . S
C593 C592 1.386 . S
C593 C597 1.393 . S
C594 H586 0.950 . S
C594 C592 1.391 . S
C594 C595 1.400 . S
C595 C594 1.400 . S
C595 C596 1.398 . S
C595 C601 1.491 . S
C596 H587 0.950 . S
C596 C595 1.398 . S
C596 C597 1.391 . S
C597 H585 0.950 . S
C597 C593 1.393 . S
C597 C596 1.391 . S
C598 H588 0.950 . S
C598 C599 1.386 . S
C598 C600 1.391 . S
C599 C598 1.386 . S
C599 C603 1.393 . S
C600 H589 0.950 . S
C600 C598 1.391 . S
C600 C601 1.400 . S
C601 C595 1.491 . S
C601 C600 1.400 . S
C601 C602 1.398 . S
C602 H590 0.950 . S
C602 C601 1.398 . S
C602 C603 1.391 . S
C603 H591 0.950 . S
C603 C599 1.393 . S
C603 C602 1.391 . S
H604 C612 0.950 . S
H605 C617 0.950 . S
H606 C614 0.950 . S
H607 C616 0.950 . S
H608 C618 0.950 . S
H609 C620 0.950 . S
H610 C622 0.950 . S
H611 C623 0.950 . S
C612 H604 0.950 . S
C612 C613 1.386 . S
C612 C614 1.391 . S
C613 C612 1.386 . S
C613 C617 1.393 . S
C614 H606 0.950 . S
C614 C612 1.391 . S
C614 C615 1.400 . S
C615 C614 1.400 . S
C615 C616 1.398 . S
C615 C621 1.491 1_545 S
C616 H607 0.950 . S
C616 C615 1.398 . S
C616 C617 1.391 . S
C617 H605 0.950 . S
C617 C613 1.393 . S
C617 C616 1.391 . S
C618 H608 0.950 . S
C618 C619 1.386 . S
C618 C620 1.391 . S
C619 C618 1.386 . S
C619 C623 1.393 . S
C620 H609 0.950 . S
C620 C618 1.391 . S
C620 C621 1.400 . S
C621 C615 1.491 1_565 S
C621 C620 1.400 . S
C621 C622 1.398 . S
C622 H610 0.950 . S
C622 C621 1.398 . S
C622 C623 1.391 . S
C623 H611 0.950 . S
C623 C619 1.393 . S
C623 C622 1.391 . S
H624 C632 0.950 . S
H625 C637 0.950 . S
H626 C634 0.950 . S
H627 C636 0.950 . S
H628 C638 0.950 . S
H629 C640 0.950 . S
H630 C642 0.950 . S
H631 C643 0.950 . S
C632 H624 0.950 . S
C632 C633 1.386 . S
C632 C634 1.391 . S
C633 C632 1.386 . S
C633 C637 1.393 . S
C634 H626 0.950 . S
C634 C632 1.391 . S
C634 C635 1.400 . S
C635 C634 1.400 . S
C635 C636 1.398 . S
C635 C641 1.491 1_455 S
C636 H627 0.950 . S
C636 C635 1.398 . S
C636 C637 1.391 . S
C637 H625 0.950 . S
C637 C633 1.393 . S
C637 C636 1.391 . S
C638 H628 0.950 . S
C638 C639 1.386 . S
C638 C640 1.391 . S
C639 C638 1.386 . S
C639 C643 1.393 . S
C640 H629 0.950 . S
C640 C638 1.391 . S
C640 C641 1.400 . S
C641 C635 1.491 1_655 S
C641 C640 1.400 . S
C641 C642 1.398 . S
C642 H630 0.950 . S
C642 C641 1.398 . S
C642 C643 1.391 . S
C643 H631 0.950 . S
C643 C639 1.393 . S
C643 C642 1.391 . S
H644 C652 0.950 . S
H645 C657 0.950 . S
H646 C654 0.950 . S
H647 C656 0.950 . S
H648 C658 0.950 . S
H649 C660 0.950 . S
H650 C662 0.950 . S
H651 C663 0.950 . S
C652 H644 0.950 . S
C652 C653 1.386 . S
C652 C654 1.391 . S
C653 C652 1.386 . S
C653 C657 1.393 . S
C654 H646 0.950 . S
C654 C652 1.391 . S
C654 C655 1.400 . S
C655 C654 1.400 . S
C655 C656 1.398 . S
C655 C661 1.491 . S
C656 H647 0.950 . S
C656 C655 1.398 . S
C656 C657 1.391 . S
C657 H645 0.950 . S
C657 C653 1.393 . S
C657 C656 1.391 . S
C658 H648 0.950 . S
C658 C659 1.386 . S
C658 C660 1.391 . S
C659 C658 1.386 . S
C659 C663 1.393 . S
C660 H649 0.950 . S
C660 C658 1.391 . S
C660 C661 1.400 . S
C661 C655 1.491 . S
C661 C660 1.400 . S
C661 C662 1.398 . S
C662 H650 0.950 . S
C662 C661 1.398 . S
C662 C663 1.391 . S
C663 H651 0.950 . S
C663 C659 1.393 . S
C663 C662 1.391 . S
H664 C672 0.950 . S
H665 C677 0.950 . S
H666 C674 0.950 . S
H667 C676 0.950 . S
H668 C678 0.950 . S
H669 C680 0.950 . S
H670 C682 0.950 . S
H671 C683 0.950 . S
C672 H664 0.950 . S
C672 C673 1.386 1_545 S
C672 C674 1.391 . S
C673 C672 1.386 1_565 S
C673 C677 1.393 . S
C674 H666 0.950 . S
C674 C672 1.391 . S
C674 C675 1.400 1_545 S
C675 C674 1.400 1_565 S
C675 C676 1.398 . S
C675 C681 1.491 1_565 S
C676 H667 0.950 . S
C676 C675 1.398 . S
C676 C677 1.391 . S
C677 H665 0.950 . S
C677 C673 1.393 . S
C677 C676 1.391 . S
C678 H668 0.950 . S
C678 C679 1.386 1_565 S
C678 C680 1.391 . S
C679 C678 1.386 1_545 S
C679 C683 1.393 . S
C680 H669 0.950 . S
C680 C678 1.391 . S
C680 C681 1.400 1_565 S
C681 C675 1.491 1_545 S
C681 C680 1.400 1_545 S
C681 C682 1.398 . S
C682 H670 0.950 . S
C682 C681 1.398 . S
C682 C683 1.391 . S
C683 H671 0.950 . S
C683 C679 1.393 . S
C683 C682 1.391 . S
H684 C692 0.950 . S
H685 C697 0.950 . S
H686 C694 0.950 . S
H687 C696 0.950 . S
H688 C698 0.950 . S
H689 C700 0.950 . S
H690 C702 0.950 . S
H691 C703 0.950 . S
C692 H684 0.950 . S
C692 C693 1.386 . S
C692 C694 1.391 1_455 S
C693 C692 1.386 . S
C693 C697 1.393 . S
C694 H686 0.950 . S
C694 C692 1.391 1_655 S
C694 C695 1.400 1_655 S
C695 C694 1.400 1_455 S
C695 C696 1.398 . S
C695 C701 1.491 1_445 S
C696 H687 0.950 . S
C696 C695 1.398 . S
C696 C697 1.391 . S
C697 H685 0.950 . S
C697 C693 1.393 . S
C697 C696 1.391 . S
C698 H688 0.950 . S
C698 C699 1.386 . S
C698 C700 1.391 1_655 S
C699 C698 1.386 . S
C699 C703 1.393 . S
C700 H689 0.950 . S
C700 C698 1.391 1_455 S
C700 C701 1.400 1_455 S
C701 C695 1.491 1_665 S
C701 C700 1.400 1_655 S
C701 C702 1.398 . S
C702 H690 0.950 . S
C702 C701 1.398 . S
C702 C703 1.391 . S
C703 H691 0.950 . S
C703 C699 1.393 . S
C703 C702 1.391 . S
H704 C712 0.950 1_545 S
H705 C717 0.950 . S
H706 C714 0.950 . S
H707 C716 0.950 . S
H708 C718 0.950 1_565 S
H709 C720 0.950 . S
H710 C722 0.950 . S
H711 C723 0.950 . S
C712 H704 0.950 1_565 S
C712 C713 1.386 . S
C712 C714 1.391 1_565 S
C713 C712 1.386 . S
C713 C717 1.393 . S
C714 H706 0.950 . S
C714 C712 1.391 1_545 S
C714 C715 1.400 1_545 S
C715 C714 1.400 1_565 S
C715 C716 1.398 . S
C715 C721 1.491 1_565 S
C716 H707 0.950 . S
C716 C715 1.398 . S
C716 C717 1.391 . S
C717 H705 0.950 . S
C717 C713 1.393 . S
C717 C716 1.391 . S
C718 H708 0.950 1_545 S
C718 C719 1.386 . S
C718 C720 1.391 1_545 S
C719 C718 1.386 . S
C719 C723 1.393 . S
C720 H709 0.950 . S
C720 C718 1.391 1_565 S
C720 C721 1.400 1_565 S
C721 C715 1.491 1_545 S
C721 C720 1.400 1_545 S
C721 C722 1.398 . S
C722 H710 0.950 . S
C722 C721 1.398 . S
C722 C723 1.391 . S
C723 H711 0.950 . S
C723 C719 1.393 . S
C723 C722 1.391 . S
H724 C732 0.950 . S
H725 C737 0.950 1_455 S
H726 C734 0.950 . S
H727 C736 0.950 . S
H728 C738 0.950 . S
H729 C740 0.950 . S
H730 C742 0.950 . S
H731 C743 0.950 1_655 S
C732 H724 0.950 . S
C732 C733 1.386 . S
C732 C734 1.391 . S
C733 C732 1.386 . S
C733 C737 1.393 . S
C734 H726 0.950 . S
C734 C732 1.391 . S
C734 C735 1.400 . S
C735 C734 1.400 . S
C735 C736 1.398 1_655 S
C735 C741 1.491 1_665 S
C736 H727 0.950 . S
C736 C735 1.398 1_455 S
C736 C737 1.391 1_455 S
C737 H725 0.950 1_655 S
C737 C733 1.393 . S
C737 C736 1.391 1_655 S
C738 H728 0.950 . S
C738 C739 1.386 . S
C738 C740 1.391 . S
C739 C738 1.386 . S
C739 C743 1.393 . S
C740 H729 0.950 . S
C740 C738 1.391 . S
C740 C741 1.400 . S
C741 C735 1.491 1_445 S
C741 C740 1.400 . S
C741 C742 1.398 1_455 S
C742 H730 0.950 . S
C742 C741 1.398 1_655 S
C742 C743 1.391 1_655 S
C743 H731 0.950 1_455 S
C743 C739 1.393 . S
C743 C742 1.391 1_455 S
H744 C752 0.950 . S
H745 C757 0.950 . S
H746 C754 0.950 . S
H747 C756 0.950 . S
H748 C758 0.950 . S
H749 C760 0.950 . S
H750 C762 0.950 . S
H751 C763 0.950 . S
C752 H744 0.950 . S
C752 C753 1.386 . S
C752 C754 1.391 . S
C753 C752 1.386 . S
C753 C757 1.393 . S
C754 H746 0.950 . S
C754 C752 1.391 . S
C754 C755 1.400 . S
C755 C754 1.400 . S
C755 C756 1.398 . S
C755 C761 1.491 1_455 S
C756 H747 0.950 . S
C756 C755 1.398 . S
C756 C757 1.391 . S
C757 H745 0.950 . S
C757 C753 1.393 . S
C757 C756 1.391 . S
C758 H748 0.950 . S
C758 C759 1.386 . S
C758 C760 1.391 . S
C759 C758 1.386 . S
C759 C763 1.393 . S
C760 H749 0.950 . S
C760 C758 1.391 . S
C760 C761 1.400 . S
C761 C755 1.491 1_655 S
C761 C760 1.400 . S
C761 C762 1.398 . S
C762 H750 0.950 . S
C762 C761 1.398 . S
C762 C763 1.391 . S
C763 H751 0.950 . S
C763 C759 1.393 . S
C763 C762 1.391 . S
H764 C772 0.950 . S
H765 C777 0.950 . S
H766 C774 0.950 . S
H767 C776 0.950 . S
H768 C778 0.950 . S
H769 C780 0.950 . S
H770 C782 0.950 . S
H771 C783 0.950 . S
C772 H764 0.950 . S
C772 C773 1.386 . S
C772 C774 1.391 . S
C773 C772 1.386 . S
C773 C777 1.393 . S
C774 H766 0.950 . S
C774 C772 1.391 . S
C774 C775 1.400 . S
C775 C774 1.400 . S
C775 C776 1.398 . S
C775 C781 1.491 . S
C776 H767 0.950 . S
C776 C775 1.398 . S
C776 C777 1.391 . S
C777 H765 0.950 . S
C777 C773 1.393 . S
C777 C776 1.391 . S
C778 H768 0.950 . S
C778 C779 1.386 . S
C778 C780 1.391 . S
C779 C778 1.386 . S
C779 C783 1.393 . S
C780 H769 0.950 . S
C780 C778 1.391 . S
C780 C781 1.400 . S
C781 C775 1.491 . S
C781 C780 1.400 . S
C781 C782 1.398 . S
C782 H770 0.950 . S
C782 C781 1.398 . S
C782 C783 1.391 . S
C783 H771 0.950 . S
C783 C779 1.393 . S
C783 C782 1.391 . S
H784 C792 0.950 . S
H785 C797 0.950 . S
H786 C794 0.950 . S
H787 C796 0.950 . S
H788 C798 0.950 . S
H789 C800 0.950 . S
H790 C802 0.950 . S
H791 C803 0.950 . S
C792 H784 0.950 . S
C792 C793 1.386 . S
C792 C794 1.391 . S
C793 C792 1.386 . S
C793 C797 1.393 . S
C794 H786 0.950 . S
C794 C792 1.391 . S
C794 C795 1.400 . S
C795 C794 1.400 . S
C795 C796 1.398 . S
C795 C801 1.491 . S
C796 H787 0.950 . S
C796 C795 1.398 . S
C796 C797 1.391 . S
C797 H785 0.950 . S
C797 C793 1.393 . S
C797 C796 1.391 . S
C798 H788 0.950 . S
C798 C799 1.386 . S
C798 C800 1.391 . S
C799 C798 1.386 . S
C799 C803 1.393 . S
C800 H789 0.950 . S
C800 C798 1.391 . S
C800 C801 1.400 . S
C801 C795 1.491 . S
C801 C800 1.400 . S
C801 C802 1.398 . S
C802 H790 0.950 . S
C802 C801 1.398 . S
C802 C803 1.391 . S
C803 H791 0.950 . S
C803 C799 1.393 . S
C803 C802 1.391 . S
H804 C812 0.950 . S
H805 C817 0.950 . S
H806 C814 0.950 . S
H807 C816 0.950 . S
H808 C818 0.950 . S
H809 C820 0.950 . S
H810 C822 0.950 . S
H811 C823 0.950 . S
C812 H804 0.950 . S
C812 C813 1.386 . S
C812 C814 1.391 . S
C813 C812 1.386 . S
C813 C817 1.393 . S
C814 H806 0.950 . S
C814 C812 1.391 . S
C814 C815 1.400 . S
C815 C814 1.400 . S
C815 C816 1.398 . S
C815 C821 1.491 1_545 S
C816 H807 0.950 . S
C816 C815 1.398 . S
C816 C817 1.391 . S
C817 H805 0.950 . S
C817 C813 1.393 . S
C817 C816 1.391 . S
C818 H808 0.950 . S
C818 C819 1.386 . S
C818 C820 1.391 . S
C819 C818 1.386 . S
C819 C823 1.393 . S
C820 H809 0.950 . S
C820 C818 1.391 . S
C820 C821 1.400 . S
C821 C815 1.491 1_565 S
C821 C820 1.400 . S
C821 C822 1.398 . S
C822 H810 0.950 . S
C822 C821 1.398 . S
C822 C823 1.391 . S
C823 H811 0.950 . S
C823 C819 1.393 . S
C823 C822 1.391 . S
H824 C832 0.950 1_545 S
H825 C837 0.950 . S
H826 C834 0.950 . S
H827 C836 0.950 . S
H828 C838 0.950 1_565 S
H829 C840 0.950 . S
H830 C842 0.950 . S
H831 C843 0.950 . S
C832 H824 0.950 1_565 S
C832 C833 1.386 . S
C832 C834 1.391 1_565 S
C833 C832 1.386 . S
C833 C837 1.393 . S
C834 H826 0.950 . S
C834 C832 1.391 1_545 S
C834 C835 1.400 1_545 S
C835 C834 1.400 1_565 S
C835 C836 1.398 . S
C835 C841 1.491 1_665 S
C836 H827 0.950 . S
C836 C835 1.398 . S
C836 C837 1.391 . S
C837 H825 0.950 . S
C837 C833 1.393 . S
C837 C836 1.391 . S
C838 H828 0.950 1_545 S
C838 C839 1.386 . S
C838 C840 1.391 1_545 S
C839 C838 1.386 . S
C839 C843 1.393 . S
C840 H829 0.950 . S
C840 C838 1.391 1_565 S
C840 C841 1.400 1_565 S
C841 C835 1.491 1_445 S
C841 C840 1.400 1_545 S
C841 C842 1.398 . S
C842 H830 0.950 . S
C842 C841 1.398 . S
C842 C843 1.391 . S
C843 H831 0.950 . S
C843 C839 1.393 . S
C843 C842 1.391 . S
H844 C852 0.950 1_455 S
H845 C857 0.950 . S
H846 C854 0.950 . S
H847 C856 0.950 . S
H848 C858 0.950 1_655 S
H849 C860 0.950 . S
H850 C862 0.950 . S
H851 C863 0.950 . S
C852 H844 0.950 1_655 S
C852 C853 1.386 . S
C852 C854 1.391 1_655 S
C853 C852 1.386 . S
C853 C857 1.393 . S
C854 H846 0.950 . S
C854 C852 1.391 1_455 S
C854 C855 1.400 1_455 S
C855 C854 1.400 1_655 S
C855 C856 1.398 . S
C855 C861 1.491 1_655 S
C856 H847 0.950 . S
C856 C855 1.398 . S
C856 C857 1.391 . S
C857 H845 0.950 . S
C857 C853 1.393 . S
C857 C856 1.391 . S
C858 H848 0.950 1_455 S
C858 C859 1.386 . S
C858 C860 1.391 1_455 S
C859 C858 1.386 . S
C859 C863 1.393 . S
C860 H849 0.950 . S
C860 C858 1.391 1_655 S
C860 C861 1.400 1_655 S
C861 C855 1.491 1_455 S
C861 C860 1.400 1_455 S
C861 C862 1.398 . S
C862 H850 0.950 . S
C862 C861 1.398 . S
C862 C863 1.391 . S
C863 H851 0.950 . S
C863 C859 1.393 . S
C863 C862 1.391 . S
C233 C68 1.012 . S
C239 C12 1.012 . S
C253 C26 1.006 . S
C259 C82 1.008 . S
C273 C96 0.991 . S
C279 C40 0.990 . S
C293 C110 1.012 . S
C299 C54 1.012 . S
C313 C180 0.988 . S
C319 C124 0.988 . S
C333 C138 1.007 . S
C339 C194 1.005 . S
C353 C208 1.001 . S
C359 C152 1.004 . S
C373 C166 0.995 . S
C379 C222 0.992 . S
C393 C5 1.068 . S
C399 C215 1.113 . S
C413 C19 1.117 . S
C419 C173 1.067 . S
C433 C33 1.104 . S
C439 C187 1.072 . S
C453 C201 1.117 . S
C459 C47 1.067 . S
C473 C61 1.123 . S
C479 C131 1.069 . S
C493 C75 1.069 . S
C499 C145 1.108 . S
C513 C159 1.067 . S
C519 C89 1.119 . S
C533 C117 1.110 . S
C539 C103 1.069 . S
C553 C11 1.460 . S
C559 C151 1.450 . S
C573 C165 1.462 . S
C579 C25 1.457 . S
C593 C39 1.454 . S
C599 C123 1.464 . S
C613 C137 1.454 . S
C619 C53 1.455 . S
C633 C67 1.464 . S
C639 C207 1.450 . S
C653 C81 1.464 . S
C659 C221 1.452 . S
C673 C179 1.462 . S
C679 C95 1.450 . S
C693 C193 1.463 . S
C699 C109 1.455 . S
C713 C144 1.569 . S
C719 C4 1.580 . S
C733 C18 1.580 . S
C739 C158 1.569 . S
C753 C32 1.567 . S
C759 C116 1.580 . S
C773 C130 1.580 . S
C779 C46 1.567 . S
C793 C200 1.578 . S
C799 C60 1.571 . S
C813 C214 1.567 . S
C819 C74 1.578 . S
C833 C172 1.568 . S
C839 C88 1.577 . S
C853 C102 1.567 . S
C859 C186 1.579 . S
