# Generated by pormake.
# Topology atn, (4)-cn, num edge types: 1
# Building blocks:
#     Node 0, Type 0, BuildingBlock: NAHDIM_clean_sbu_0, # of connection points: 4
#     Node 1, Type 0, BuildingBlock: NAHDIM_clean_sbu_0, # of connection points: 4
#     Node 2, Type 0, BuildingBlock: NAHDIM_clean_sbu_0, # of connection points: 4
#     Node 3, Type 0, BuildingBlock: NAHDIM_clean_sbu_0, # of connection points: 4
#     Node 4, Type 0, BuildingBlock: NAHDIM_clean_sbu_0, # of connection points: 4
#     Node 5, Type 0, BuildingBlock: NAHDIM_clean_sbu_0, # of connection points: 4
#     Node 6, Type 0, BuildingBlock: NAHDIM_clean_sbu_0, # of connection points: 4
#     Node 7, Type 0, BuildingBlock: NAHDIM_clean_sbu_0, # of connection points: 4
#     Node 8, Type 0, BuildingBlock: NAHDIM_clean_sbu_0, # of connection points: 4
#     Node 9, Type 0, BuildingBlock: NAHDIM_clean_sbu_0, # of connection points: 4
#     Node 10, Type 0, BuildingBlock: NAHDIM_clean_sbu_0, # of connection points: 4
#     Node 11, Type 0, BuildingBlock: NAHDIM_clean_sbu_0, # of connection points: 4
#     Node 12, Type 0, BuildingBlock: NAHDIM_clean_sbu_0, # of connection points: 4
#     Node 13, Type 0, BuildingBlock: NAHDIM_clean_sbu_0, # of connection points: 4
#     Node 14, Type 0, BuildingBlock: NAHDIM_clean_sbu_0, # of connection points: 4
#     Node 15, Type 0, BuildingBlock: NAHDIM_clean_sbu_0, # of connection points: 4
#     Edge 16, Type (0, 0), BuildingBlock: TEMPAE_clean_linker_10, # of connection points: 2
#     Edge 17, Type (0, 0), BuildingBlock: TEMPAE_clean_linker_10, # of connection points: 2
#     Edge 18, Type (0, 0), BuildingBlock: TEMPAE_clean_linker_10, # of connection points: 2
#     Edge 19, Type (0, 0), BuildingBlock: TEMPAE_clean_linker_10, # of connection points: 2
#     Edge 20, Type (0, 0), BuildingBlock: TEMPAE_clean_linker_10, # of connection points: 2
#     Edge 21, Type (0, 0), BuildingBlock: TEMPAE_clean_linker_10, # of connection points: 2
#     Edge 22, Type (0, 0), BuildingBlock: TEMPAE_clean_linker_10, # of connection points: 2
#     Edge 23, Type (0, 0), BuildingBlock: TEMPAE_clean_linker_10, # of connection points: 2
#     Edge 24, Type (0, 0), BuildingBlock: TEMPAE_clean_linker_10, # of connection points: 2
#     Edge 25, Type (0, 0), BuildingBlock: TEMPAE_clean_linker_10, # of connection points: 2
#     Edge 26, Type (0, 0), BuildingBlock: TEMPAE_clean_linker_10, # of connection points: 2
#     Edge 27, Type (0, 0), BuildingBlock: TEMPAE_clean_linker_10, # of connection points: 2
#     Edge 28, Type (0, 0), BuildingBlock: TEMPAE_clean_linker_10, # of connection points: 2
#     Edge 29, Type (0, 0), BuildingBlock: TEMPAE_clean_linker_10, # of connection points: 2
#     Edge 30, Type (0, 0), BuildingBlock: TEMPAE_clean_linker_10, # of connection points: 2
#     Edge 31, Type (0, 0), BuildingBlock: TEMPAE_clean_linker_10, # of connection points: 2
#     Edge 32, Type (0, 0), BuildingBlock: TEMPAE_clean_linker_10, # of connection points: 2
#     Edge 33, Type (0, 0), BuildingBlock: TEMPAE_clean_linker_10, # of connection points: 2
#     Edge 34, Type (0, 0), BuildingBlock: TEMPAE_clean_linker_10, # of connection points: 2
#     Edge 35, Type (0, 0), BuildingBlock: TEMPAE_clean_linker_10, # of connection points: 2
#     Edge 36, Type (0, 0), BuildingBlock: TEMPAE_clean_linker_10, # of connection points: 2
#     Edge 37, Type (0, 0), BuildingBlock: TEMPAE_clean_linker_10, # of connection points: 2
#     Edge 38, Type (0, 0), BuildingBlock: TEMPAE_clean_linker_10, # of connection points: 2
#     Edge 39, Type (0, 0), BuildingBlock: TEMPAE_clean_linker_10, # of connection points: 2
#     Edge 40, Type (0, 0), BuildingBlock: TEMPAE_clean_linker_10, # of connection points: 2
#     Edge 41, Type (0, 0), BuildingBlock: TEMPAE_clean_linker_10, # of connection points: 2
#     Edge 42, Type (0, 0), BuildingBlock: TEMPAE_clean_linker_10, # of connection points: 2
#     Edge 43, Type (0, 0), BuildingBlock: TEMPAE_clean_linker_10, # of connection points: 2
#     Edge 44, Type (0, 0), BuildingBlock: TEMPAE_clean_linker_10, # of connection points: 2
#     Edge 45, Type (0, 0), BuildingBlock: TEMPAE_clean_linker_10, # of connection points: 2
#     Edge 46, Type (0, 0), BuildingBlock: TEMPAE_clean_linker_10, # of connection points: 2
#     Edge 47, Type (0, 0), BuildingBlock: TEMPAE_clean_linker_10, # of connection points: 2
# Relax obj value: 0.100
# Max RMSD: 0.110
# Mean RMSD: 0.110
data_MOF--net-atn--node1-NAHDIM_clean_sbu_0--edge1-TEMPAE_clean_linker_10
_symmetry_space_group_name_H-M    P1
_symmetry_Int_Tables_number       1
_symmetry_cell_setting            triclinic
loop_
_symmetry_equiv_pos_as_xyz
'x, y, z'
_cell_length_a     64.22657
_cell_length_b     64.22392
_cell_length_c     25.148753
_cell_angle_alpha  89.955841
_cell_angle_beta   89.995853
_cell_angle_gamma 90.01407
loop_
_atom_site_label
_atom_site_type_symbol
_atom_site_fract_x
_atom_site_fract_y
_atom_site_fract_z
_atom_type_partial_charge
C0 C 0.19003 0.42404 0.03947 0.0
O1 O 0.17255 0.41399 0.03058 0.0
O2 O 0.19122 0.37506 0.13029 0.0
Zn3 Zn 0.20409 0.3829 0.06007 0.0
O4 O 0.18695 0.37217 -0.00096 0.0
C5 C 0.23989 0.35685 0.08383 0.0
O6 O 0.22913 0.35183 0.12637 0.0
O7 O 0.20602 0.41386 0.0538 0.0
C8 C 0.18864 0.35329 0.98465 0.0
O9 O 0.20091 0.34081 0.01171 0.0
C10 C 0.17232 0.36938 0.1341 0.0
O11 O 0.1607 0.36881 0.09114 0.0
O12 O 0.23259 0.37034 0.05191 0.0
C13 C 0.57274 0.21622 0.02981 0.0
O14 O 0.58217 0.22596 0.06894 0.0
O15 O 0.62397 0.19328 0.06965 0.0
Zn16 Zn 0.61468 0.20626 0.00097 0.0
O17 O 0.62699 0.19054 0.93988 0.0
C18 C 0.63598 0.24402 0.03316 0.0
O19 O 0.63686 0.23473 0.07966 0.0
O20 O 0.58362 0.20663 0.99551 0.0
C21 C 0.62482 0.17123 0.93059 0.0
O22 O 0.61328 0.15985 0.96248 0.0
C23 C 0.61449 0.17866 0.09357 0.0
O24 O 0.59731 0.17102 0.07296 0.0
O25 O 0.62633 0.23522 0.99521 0.0
C26 C 0.76869 0.57202 0.9806 0.0
O27 O 0.76998 0.58452 0.93935 0.0
O28 O 0.78101 0.6172 0.1101 0.0
Zn29 Zn 0.77077 0.61053 0.03694 0.0
O30 O 0.79061 0.62222 0.98325 0.0
C31 C 0.74545 0.64483 0.0237 0.0
O32 O 0.76387 0.65309 0.03224 0.0
O33 O 0.76818 0.57976 0.02703 0.0
C34 C 0.80887 0.61578 0.97318 0.0
O35 O 0.81643 0.59986 -0.00026 0.0
C36 C 0.7942 0.60595 0.13441 0.0
O37 O 0.80128 0.58902 0.11139 0.0
O38 O 0.74365 0.62513 0.02488 0.0
C39 C 0.41658 0.77195 0.03988 0.0
O40 O 0.40688 0.77063 0.08576 0.0
O41 O 0.3656 0.78997 0.06382 0.0
Zn42 Zn 0.37511 0.77557 0.99738 0.0
O43 O 0.36673 0.79158 0.93257 0.0
C44 C 0.35817 0.73678 0.03497 0.0
O45 O 0.36465 0.7437 0.08126 0.0
O46 O 0.40602 0.77347 0.9974 0.0
C47 C 0.34776 0.7955 0.92268 0.0
O48 O 0.33344 0.78962 0.95688 0.0
C49 C 0.36782 0.8094 0.07124 0.0
O50 O 0.37619 0.82085 0.03355 0.0
O51 O 0.36174 0.7475 0.99351 0.0
C52 C 0.20048 0.57867 0.97715 0.0
O53 O 0.20679 0.58607 0.93117 0.0
O54 O 0.18665 0.63027 0.93226 0.0
Zn55 Zn 0.19804 0.62196 0.00332 0.0
O56 O 0.18261 0.63693 0.06089 0.0
C57 C 0.22981 0.65104 0.00635 0.0
O58 O 0.21307 0.66268 0.00171 0.0
O59 O 0.19593 0.59125 0.01426 0.0
C60 C 0.16584 0.63066 0.08233 0.0
O61 O 0.15736 0.61315 0.06623 0.0
C62 C 0.16863 0.62514 0.91616 0.0
O63 O 0.15675 0.61354 0.94671 0.0
O64 O 0.22771 0.63139 0.00739 0.0
C65 C 0.41639 0.2116 0.99708 0.0
O66 O 0.40606 0.19625 0.0193 0.0
O67 O 0.36876 0.21106 0.88607 0.0
Zn68 Zn 0.37555 0.22257 0.95831 0.0
O69 O 0.36251 0.2048 0.01495 0.0
C70 C 0.34244 0.25059 0.95829 0.0
O71 O 0.33347 0.23337 0.94173 0.0
O72 O 0.40658 0.22485 0.96905 0.0
C73 C 0.35951 0.18526 0.01328 0.0
O74 O 0.36579 0.1746 0.9717 0.0
C75 C 0.38029 0.19827 0.86119 0.0
O76 O 0.39786 0.19214 0.88288 0.0
O77 O 0.36195 0.25048 0.96662 0.0
C78 C 0.7901 0.41736 0.95111 0.0
O79 O 0.80851 0.4099 0.96349 0.0
O80 O 0.79444 0.36551 0.87195 0.0
Zn81 Zn 0.78077 0.37411 0.94054 0.0
O82 O 0.79842 0.36697 0.00415 0.0
C83 C 0.75136 0.34068 0.93282 0.0
O84 O 0.76696 0.33173 0.90796 0.0
O85 O 0.77552 0.40481 0.93948 0.0
C86 C 0.80687 0.3492 0.00927 0.0
O87 O 0.80497 0.33553 0.97075 0.0
C88 C 0.81381 0.36764 0.86325 0.0
O89 O 0.82573 0.37554 0.90058 0.0
O90 O 0.75345 0.35926 0.94926 0.0
C91 C 0.57062 0.79651 0.00946 0.0
O92 O 0.57825 0.81516 0.01841 0.0
O93 O 0.61944 0.80105 0.91668 0.0
Zn94 Zn 0.6131 0.78746 0.98675 0.0
O95 O 0.62276 0.80475 0.04823 0.0
C96 C 0.6333 0.74931 0.95214 0.0
O97 O 0.62832 0.75557 0.90405 0.0
O98 O 0.58273 0.78209 0.99426 0.0
C99 C 0.64215 0.80669 0.05663 0.0
O100 O 0.65533 0.79853 0.02253 0.0
C101 C 0.6209 0.82062 0.91036 0.0
O102 O 0.61797 0.83298 0.95129 0.0
O103 O 0.62812 0.7603 0.99192 0.0
C104 C 0.72633 0.91432 0.53647 0.0
O105 O 0.72559 0.90449 0.58227 0.0
O106 O 0.70091 0.86632 0.5579 0.0
Zn107 Zn 0.71777 0.87362 0.49341 0.0
O108 O 0.70201 0.86728 0.42674 0.0
C109 C 0.75224 0.85137 0.53804 0.0
O110 O 0.74517 0.85964 0.58227 0.0
O111 O 0.7242 0.90405 0.49371 0.0
C112 C 0.69684 0.84871 0.41565 0.0
O113 O 0.70125 0.83379 0.44959 0.0
C114 C 0.68167 0.87015 0.56406 0.0
O115 O 0.67127 0.87931 0.52562 0.0
O116 O 0.74353 0.85604 0.49427 0.0
C117 C 0.06709 0.71139 0.48776 0.0
O118 O 0.07689 0.69379 0.47875 0.0
O119 O 0.11552 0.70823 0.57198 0.0
Zn120 Zn 0.10843 0.7235 0.50458 0.0
O121 O 0.11769 0.70697 0.4413 0.0
C122 C 0.14316 0.74934 0.50206 0.0
O123 O 0.15166 0.73073 0.50366 0.0
O124 O 0.07761 0.72737 0.5005 0.0
C125 C 0.1119 0.71225 0.39494 0.0
O126 O 0.10003 0.72876 0.38914 0.0
C127 C 0.1199 0.68893 0.57216 0.0
O128 O 0.1198 0.67859 0.52712 0.0
O129 O 0.12345 0.75079 0.50293 0.0
C130 C 0.30037 0.07753 0.44328 0.0
O131 O 0.31865 0.08528 0.43063 0.0
O132 O 0.31015 0.12746 0.51888 0.0
Zn133 Zn 0.29188 0.12032 0.45669 0.0
O134 O 0.30577 0.12786 0.38798 0.0
C135 C 0.25474 0.13515 0.5062 0.0
O136 O 0.26105 0.1226 0.54422 0.0
O137 O 0.28584 0.08984 0.45672 0.0
C138 C 0.29598 0.1251 0.34469 0.0
O139 O 0.27701 0.11743 0.34625 0.0
C140 C 0.32246 0.14293 0.5174 0.0
O141 O 0.3238 0.15396 0.47351 0.0
O142 O 0.26537 0.13645 0.46374 0.0
C143 C 0.92483 0.28704 0.44197 0.0
O144 O 0.91813 0.30615 0.43439 0.0
O145 O 0.87406 0.29579 0.51098 0.0
Zn146 Zn 0.88135 0.27984 0.44488 0.0
O147 O 0.87469 0.2961 0.37872 0.0
C148 C 0.86009 0.24454 0.4882 0.0
O149 O 0.8692 0.25097 0.53199 0.0
O150 O 0.91162 0.27246 0.44699 0.0
C151 C 0.85564 0.2986 0.36671 0.0
O152 O 0.8413 0.29129 0.39902 0.0
C153 C 0.87032 0.31516 0.51429 0.0
O154 O 0.87147 0.3268 0.4714 0.0
O155 O 0.86374 0.25405 0.44487 0.0
C156 C 0.70455 0.06883 0.51485 0.0
O157 O 0.68536 0.0756 0.52036 0.0
O158 O 0.69476 0.1177 0.43535 0.0
Zn159 Zn 0.71146 0.11198 0.50152 0.0
O160 O 0.69488 0.11927 0.56643 0.0
C161 C 0.73637 0.14863 0.50621 0.0
O162 O 0.718 0.15714 0.5138 0.0
O163 O 0.71895 0.08185 0.50538 0.0
C164 C 0.70227 0.11605 0.61253 0.0
O165 O 0.72098 0.10798 0.61715 0.0
C166 C 0.67883 0.12945 0.43642 0.0
O167 O 0.67303 0.13773 0.4818 0.0
O168 O 0.73756 0.12905 0.4999 0.0
C169 C 0.91096 0.70627 0.49706 0.0
O170 O 0.89882 0.71222 0.45784 0.0
O171 O 0.86303 0.677 0.47698 0.0
Zn172 Zn 0.8724 0.69281 0.54147 0.0
O173 O 0.86586 0.67682 0.60764 0.0
C174 C 0.83837 0.72094 0.5503 0.0
O175 O 0.82819 0.70334 0.55637 0.0
O176 O 0.90298 0.69749 0.53741 0.0
C177 C 0.8732 0.68246 0.65224 0.0
O178 O 0.88531 0.69892 0.65448 0.0
C179 C 0.84962 0.66249 0.47944 0.0
O180 O 0.84164 0.6574 0.52576 0.0
O181 O 0.85794 0.7204 0.54343 0.0
C182 C 0.28121 0.92201 0.44998 0.0
O183 O 0.2767 0.91137 0.40689 0.0
O184 O 0.29871 0.87047 0.42711 0.0
Zn185 Zn 0.28569 0.88124 0.4942 0.0
O186 O 0.30136 0.87153 0.55837 0.0
C187 C 0.24615 0.86487 0.45951 0.0
O188 O 0.25362 0.86893 0.41199 0.0
O189 O 0.28528 0.9123 0.49272 0.0
C190 C 0.30239 0.8521 0.56747 0.0
O191 O 0.29422 0.83911 0.53292 0.0
C192 C 0.31821 0.86937 0.41931 0.0
O193 O 0.33103 0.87524 0.45714 0.0
O194 O 0.25683 0.86967 0.50019 0.0
C195 C 0.07844 0.26726 0.50194 0.0
O196 O 0.09143 0.26376 0.46257 0.0
O197 O 0.12712 0.29202 0.49346 0.0
Zn198 Zn 0.11646 0.27586 0.55618 0.0
O199 O 0.12233 0.2907 0.62521 0.0
C200 C 0.15092 0.24937 0.56403 0.0
O201 O 0.1594 0.26767 0.57263 0.0
O202 O 0.0857 0.2721 0.54728 0.0
C203 C 0.1358 0.30513 0.62908 0.0
O204 O 0.14591 0.31118 0.58637 0.0
C205 C 0.11973 0.30949 0.47917 0.0
O206 O 0.10482 0.31806 0.50745 0.0
O207 O 0.1314 0.24834 0.55623 0.0
C208 C 0.20374 0.54193 0.94528 0.0
C209 C 0.19869 0.55598 0.98593 0.0
C210 C 0.20219 0.52038 0.95338 0.0
C211 C 0.19545 0.51275 0.00332 0.0
C212 C 0.19025 0.52683 0.04443 0.0
C213 C 0.19193 0.54829 0.03524 0.0
C214 C 0.20784 0.50576 0.90863 0.0
C215 C 0.18301 0.51924 0.09821 0.0
C216 C 0.17406 0.45779 0.01147 0.0
C217 C 0.19128 0.44679 0.03108 0.0
C218 C 0.17521 0.47929 0.00211 0.0
C219 C 0.194 0.49 0.0128 0.0
C220 C 0.21141 0.47901 0.03287 0.0
C221 C 0.20984 0.45752 0.04173 0.0
C222 C 0.15634 0.49054 0.98065 0.0
C223 C 0.23168 0.48996 0.04491 0.0
H224 H 0.20895 0.54776 0.90707 0.0
H225 H 0.18797 0.55904 0.06686 0.0
H226 H 0.2208 0.49546 0.92114 0.0
H227 H 0.19438 0.49561 0.89898 0.0
H228 H 0.2126 0.51421 0.87203 0.0
H229 H 0.17941 0.53226 0.12579 0.0
H230 H 0.16886 0.50949 0.09367 0.0
H231 H 0.19519 0.50933 0.11657 0.0
H232 H 0.15968 0.44961 0.00306 0.0
H233 H 0.22322 0.44912 0.05692 0.0
H234 H 0.16022 0.49814 0.94227 0.0
H235 H 0.15156 0.50301 0.0086 0.0
H236 H 0.14291 0.47992 0.97432 0.0
H237 H 0.23775 0.49754 0.00841 0.0
H238 H 0.24374 0.47915 0.0604 0.0
H239 H 0.22907 0.50241 0.07473 0.0
C240 C 0.45044 0.2293 0.97948 0.0
C241 C 0.43922 0.21313 0.00373 0.0
C242 C 0.47216 0.23057 0.98452 0.0
C243 C 0.48288 0.21529 0.01447 0.0
C244 C 0.47163 0.19909 0.0396 0.0
C245 C 0.44994 0.19821 0.03394 0.0
C246 C 0.48366 0.24808 0.95721 0.0
C247 C 0.48255 0.18252 0.07184 0.0
C248 C 0.53987 0.20555 0.98417 0.0
C249 C 0.54976 0.21622 0.02577 0.0
C250 C 0.51811 0.20523 0.97991 0.0
C251 C 0.50595 0.21585 0.01816 0.0
C252 C 0.5158 0.22672 0.06013 0.0
C253 C 0.53761 0.22677 0.06346 0.0
C254 C 0.50815 0.19344 0.93461 0.0
C255 C 0.50328 0.2382 0.10164 0.0
H256 H 0.44227 0.24091 0.95616 0.0
H257 H 0.4414 0.18568 0.0529 0.0
H258 H 0.49307 0.25688 0.98659 0.0
H259 H 0.49461 0.24161 0.92737 0.0
H260 H 0.47296 0.25907 0.93683 0.0
H261 H 0.47147 0.17132 0.09014 0.0
H262 H 0.49349 0.17374 0.04609 0.0
H263 H 0.4919 0.18982 0.10389 0.0
H264 H 0.54913 0.19735 0.95487 0.0
H265 H 0.54513 0.23506 0.09571 0.0
H266 H 0.49825 0.20408 0.91076 0.0
H267 H 0.49787 0.18102 0.95055 0.0
H268 H 0.51984 0.18618 0.90788 0.0
H269 H 0.49322 0.25002 0.0823 0.0
H270 H 0.51333 0.24611 0.13137 0.0
H271 H 0.49288 0.22717 0.1228 0.0
C272 C 0.76619 0.44792 0.94259 0.0
C273 C 0.78623 0.44004 0.95204 0.0
C274 C 0.7622 0.46936 0.94501 0.0
C275 C 0.77867 0.48321 0.95698 0.0
C276 C 0.79899 0.47541 0.96571 0.0
C277 C 0.80252 0.4539 0.96321 0.0
C278 C 0.74033 0.47716 0.9356 0.0
C279 C 0.81695 0.48976 0.97838 0.0
C280 C 0.77404 0.54062 0.92356 0.0
C281 C 0.76963 0.5492 0.97356 0.0
C282 C 0.77662 0.51907 0.91729 0.0
C283 C 0.7746 0.50586 0.96204 0.0
C284 C 0.76951 0.51436 0.01227 0.0
C285 C 0.76714 0.53595 0.01746 0.0
C286 C 0.78209 0.51051 0.86314 0.0
C287 C 0.76708 0.50071 0.06082 0.0
H288 H 0.75352 0.43731 0.93388 0.0
H289 H 0.81806 0.44794 0.97037 0.0
H290 H 0.73448 0.48508 0.97185 0.0
H291 H 0.74025 0.48882 0.90303 0.0
H292 H 0.7294 0.4644 0.92515 0.0
H293 H 0.83193 0.48125 0.98243 0.0
H294 H 0.81865 0.50165 0.94666 0.0
H295 H 0.81382 0.49816 0.01608 0.0
H296 H 0.77601 0.55076 0.88947 0.0
H297 H 0.76363 0.54246 0.05618 0.0
H298 H 0.77088 0.49817 0.85161 0.0
H299 H 0.79776 0.50326 0.86448 0.0
H300 H 0.78208 0.52275 0.83191 0.0
H301 H 0.75548 0.48827 0.05306 0.0
H302 H 0.76207 0.50966 0.09637 0.0
H303 H 0.7821 0.49296 0.06995 0.0
C304 C 0.54076 0.7717 0.01414 0.0
C305 C 0.54827 0.79218 0.01744 0.0
C306 C 0.51955 0.76734 0.02071 0.0
C307 C 0.50553 0.78387 0.03038 0.0
C308 C 0.51302 0.80454 0.03461 0.0
C309 C 0.53435 0.80844 0.02825 0.0
C310 C 0.5121 0.7451 0.01628 0.0
C311 C 0.49844 0.82257 0.0446 0.0
C312 C 0.44938 0.77717 0.98863 0.0
C313 C 0.43949 0.77361 0.03755 0.0
C314 C 0.4709 0.78031 0.98579 0.0
C315 C 0.48286 0.77974 0.03297 0.0
C316 C 0.47311 0.77563 0.08235 0.0
C317 C 0.45148 0.77266 0.08409 0.0
C318 C 0.48078 0.78468 0.93239 0.0
C319 C 0.48548 0.77474 0.13336 0.0
H320 H 0.55146 0.75903 0.0062 0.0
H321 H 0.54006 0.82429 0.03095 0.0
H322 H 0.50295 0.74076 0.05203 0.0
H323 H 0.50163 0.74351 0.98141 0.0
H324 H 0.52517 0.73391 0.01179 0.0
H325 H 0.50687 0.83757 0.04903 0.0
H326 H 0.4873 0.82401 0.01107 0.0
H327 H 0.48918 0.81973 0.08112 0.0
H328 H 0.44024 0.77791 0.95245 0.0
H329 H 0.44394 0.76987 0.122 0.0
H330 H 0.4932 0.77311 0.92417 0.0
H331 H 0.48822 0.80027 0.93283 0.0
H332 H 0.46931 0.7842 0.89935 0.0
H333 H 0.49824 0.76318 0.12971 0.0
H334 H 0.47568 0.77051 0.16812 0.0
H335 H 0.4928 0.79009 0.14107 0.0
C336 C 0.73005 0.03945 0.51906 0.0
C337 C 0.70935 0.04642 0.52002 0.0
C338 C 0.73477 0.0182 0.52355 0.0
C339 C 0.71838 0.00362 0.52879 0.0
C340 C 0.69747 0.01058 0.53028 0.0
C341 C 0.69321 0.03191 0.52601 0.0
C342 C 0.75724 0.01131 0.52213 0.0
C343 C 0.67957 -0.00455 0.53557 0.0
C344 C 0.72546 0.94767 0.48551 0.0
C345 C 0.72688 0.93733 0.53455 0.0
C346 C 0.72342 0.96936 0.48305 0.0
C347 C 0.72291 0.98099 0.53076 0.0
C348 C 0.72534 0.97079 0.58027 0.0
C349 C 0.72727 0.94903 0.58159 0.0
C350 C 0.72089 0.97971 0.42947 0.0
C351 C 0.72507 0.98276 0.63192 0.0
H352 H 0.74261 0.05059 0.51473 0.0
H353 H 0.67719 0.03719 0.52686 0.0
H354 H 0.76093 0.00197 0.55803 0.0
H355 H 0.75992 0.00118 0.48709 0.0
H356 H 0.76819 0.02469 0.52006 0.0
H357 H 0.66425 0.00344 0.53724 0.0
H358 H 0.67953 0.98457 0.50132 0.0
H359 H 0.68146 0.98596 0.57212 0.0
H360 H 0.72526 0.93877 0.44891 0.0
H361 H 0.72846 0.94116 0.61962 0.0
H362 H 0.73227 0.99258 0.42496 0.0
H363 H 0.70509 0.98661 0.42645 0.0
H364 H 0.72301 0.96862 0.39603 0.0
H365 H 0.73625 -0.00408 0.63022 0.0
H366 H 0.72903 0.97277 0.66657 0.0
H367 H 0.70937 0.98948 0.63839 0.0
C368 C 0.94627 0.70399 0.53771 0.0
C369 C 0.93374 0.70915 0.49399 0.0
C370 C 0.96797 0.70573 0.53501 0.0
C371 C 0.97735 0.71275 0.48738 0.0
C372 C 0.96481 0.71843 0.44345 0.0
C373 C 0.94309 0.71659 0.4473 0.0
C374 C 0.98086 0.69961 0.58279 0.0
C375 C 0.97436 0.72596 0.39204 0.0
C376 C 0.03344 0.73046 0.4991 0.0
C377 C 0.04417 0.71233 0.48442 0.0
C378 C 0.01162 0.73107 0.4987 0.0
C379 C 0.00035 0.71315 0.48311 0.0
C380 C 0.0111 0.69505 0.46666 0.0
C381 C 0.0329 0.69485 0.4676 0.0
C382 C 0.00062 0.75064 0.51651 0.0
C383 C -0.00042 0.67566 0.44956 0.0
H384 H 0.93915 0.69835 0.57406 0.0
H385 H 0.93349 0.72065 0.41341 0.0
H386 H 0.9909 0.68614 0.57262 0.0
H387 H 0.99128 0.71262 0.5944 0.0
H388 H 0.97109 0.69533 0.61758 0.0
H389 H 0.9624 0.73082 0.36262 0.0
H390 H 0.98488 0.73932 0.39974 0.0
H391 H 0.98393 0.71339 0.37427 0.0
H392 H 0.04207 0.74406 0.51195 0.0
H393 H 0.04109 0.68084 0.4558 0.0
H394 H 0.99189 0.7475 0.55374 0.0
H395 H 0.98912 0.75561 0.48614 0.0
H396 H 0.01162 0.76367 0.52383 0.0
H397 H 0.99061 0.66932 0.48362 0.0
H398 H 0.01025 0.66335 0.4348 0.0
H399 H 0.98826 0.67946 0.4177 0.0
C400 C 0.27713 0.04662 0.45473 0.0
C401 C 0.29679 0.05481 0.44224 0.0
C402 C 0.27363 0.02508 0.45478 0.0
C403 C 0.2902 0.01144 0.44215 0.0
C404 C 0.31 0.01959 0.42891 0.0
C405 C 0.31306 0.0412 0.42907 0.0
C406 C 0.25229 0.0169 0.46899 0.0
C407 C 0.32804 0.00548 0.4153 0.0
C408 C 0.28852 0.95608 0.49389 0.0
C409 C 0.28259 0.94497 0.44834 0.0
C410 C 0.29081 0.97776 0.49252 0.0
C411 C 0.28704 0.98859 0.44448 0.0
C412 C 0.28071 0.97754 0.39857 0.0
C413 C 0.27857 0.95583 0.40104 0.0
C414 C 0.2976 0.98905 0.54228 0.0
C415 C 0.27648 0.98864 0.34672 0.0
H416 H 0.26446 0.05705 0.46478 0.0
H417 H 0.32828 0.04741 0.41927 0.0
H418 H 0.24632 0.0068 0.43662 0.0
H419 H 0.25328 0.00717 0.50539 0.0
H420 H 0.2409 0.02961 0.47608 0.0
H421 H 0.34229 0.01433 0.40451 0.0
H422 H 0.33167 -0.00471 0.44971 0.0
H423 H 0.32381 -0.0048 0.38157 0.0
H424 H 0.29163 0.94782 0.53064 0.0
H425 H 0.27395 0.94735 0.36571 0.0
H426 H 0.28604 0.0012 0.55283 0.0
H427 H 0.31266 -0.00296 0.53512 0.0
H428 H 0.29945 0.97837 0.57674 0.0
H429 H 0.26451 0.00087 0.35261 0.0
H430 H 0.27105 0.97784 0.31512 0.0
H431 H 0.29085 -0.00349 0.33273 0.0
C432 C 0.04194 0.27199 0.53427 0.0
C433 C 0.0557 0.26751 0.4925 0.0
C434 C 0.0205 0.27396 0.52513 0.0
C435 C 0.01264 0.27138 0.47299 0.0
C436 C 0.02634 0.26622 0.43094 0.0
C437 C 0.04773 0.26433 0.44121 0.0
C438 C 0.00634 0.27939 0.57103 0.0
C439 C 0.01848 0.26331 0.37484 0.0
C440 C 0.95446 0.26257 0.45867 0.0
C441 C 0.94737 0.28275 0.44719 0.0
C442 C 0.97573 0.25854 0.46624 0.0
C443 C 0.99021 0.27507 0.46218 0.0
C444 C 0.9832 0.29537 0.44953 0.0
C445 C 0.96186 0.29897 0.44221 0.0
C446 C 0.98266 0.23669 0.47962 0.0
C447 C -0.00179 0.31339 0.44472 0.0
H448 H 0.04796 0.2744 0.57406 0.0
H449 H 0.05825 0.26082 0.40873 0.0
H450 H -0.00085 0.29486 0.56403 0.0
H451 H 0.99351 0.26789 0.57404 0.0
H452 H 0.01477 0.27984 0.6096 0.0
H453 H 0.03096 0.25813 0.34727 0.0
H454 H 0.00572 0.25167 0.37413 0.0
H455 H 0.01197 0.2782 0.35983 0.0
H456 H 0.94337 0.24994 0.46251 0.0
H457 H 0.95653 0.31459 0.43319 0.0
H458 H 0.98986 0.23645 0.51971 0.0
H459 H -0.00531 0.23142 0.45096 0.0
H460 H 0.96955 0.2254 0.47907 0.0
H461 H 0.00615 0.31597 0.48334 0.0
H462 H 0.99033 0.32806 0.43281 0.0
H463 H 0.01043 0.30975 0.41496 0.0
C464 C 0.26515 0.32794 0.10026 0.0
C465 C 0.25852 0.34466 0.06864 0.0
C466 C 0.28079 0.31436 0.08258 0.0
C467 C 0.29002 0.31763 0.03212 0.0
C468 C 0.2843 0.33519 0.00146 0.0
C469 C 0.26861 0.34851 0.02009 0.0
C470 C 0.28656 0.29585 0.11658 0.0
C471 C 0.29389 0.33926 0.94762 0.0
C472 C 0.33829 0.28585 -0.00028 0.0
C473 C 0.32958 0.26885 0.97264 0.0
C474 C 0.3257 0.3022 0.01823 0.0
C475 C 0.30396 0.30149 0.00929 0.0
C476 C 0.29522 0.28476 0.98026 0.0
C477 C 0.30813 0.26865 0.96232 0.0
C478 C 0.33555 0.31985 0.04882 0.0
C479 C 0.2721 0.28351 0.96956 0.0
H480 H 0.25755 0.32492 0.13798 0.0
H481 H 0.2637 0.36148 0.99552 0.0
H482 H 0.28119 0.28133 0.097 0.0
H483 H 0.30372 0.29476 0.12087 0.0
H484 H 0.27948 0.29665 0.15683 0.0
H485 H 0.28968 0.35486 0.93182 0.0
H486 H 0.3111 0.33807 0.94973 0.0
H487 H 0.28843 0.32729 0.91902 0.0
H488 H 0.35486 0.28611 0.00783 0.0
H489 H 0.30129 0.25565 0.94115 0.0
H490 H 0.33005 0.31951 0.09064 0.0
H491 H 0.33079 0.33505 0.03171 0.0
H492 H 0.35283 0.31894 0.04877 0.0
H493 H 0.26352 0.28226 0.00774 0.0
H494 H 0.26792 0.26994 0.94436 0.0
H495 H 0.26669 0.29791 0.94948 0.0
C496 C 0.71504 0.3385 0.9688 0.0
C497 C 0.73228 0.32873 0.94526 0.0
C498 C 0.69737 0.32699 0.98367 0.0
C499 C 0.69708 0.30522 0.97524 0.0
C500 C 0.71427 0.29536 0.95059 0.0
C501 C 0.73161 0.30725 0.93567 0.0
C502 C 0.67921 0.33804 0.00922 0.0
C503 C 0.71458 0.27213 0.94111 0.0
C504 C 0.66449 0.26851 0.05863 0.0
C505 C 0.6492 0.26239 0.02205 0.0
C506 C 0.67958 0.28335 0.04488 0.0
C507 C 0.6792 0.29242 0.99356 0.0
C508 C 0.66289 0.28746 0.95794 0.0
C509 C 0.64811 0.27241 0.97254 0.0
C510 C 0.69674 0.28825 0.08399 0.0
C511 C 0.66176 0.29706 0.90321 0.0
H512 H 0.71541 0.35512 0.97612 0.0
H513 H 0.74486 0.29958 0.91757 0.0
H514 H 0.66461 0.33442 0.98752 0.0
H515 H 0.67719 0.33245 0.05065 0.0
H516 H 0.68134 0.35521 0.00999 0.0
H517 H 0.72901 0.26693 0.92068 0.0
H518 H 0.71334 0.26377 0.97962 0.0
H519 H 0.70099 0.26748 0.91662 0.0
H520 H 0.66539 0.26091 0.09706 0.0
H521 H 0.63619 0.26793 0.94425 0.0
H522 H 0.69876 0.30533 0.088 0.0
H523 H 0.71167 0.28181 0.06908 0.0
H524 H 0.69364 0.28156 0.12396 0.0
H525 H 0.66396 0.31418 0.90546 0.0
H526 H 0.64668 0.29378 0.88326 0.0
H527 H 0.67449 0.29073 0.87813 0.0
C528 C 0.73032 0.67993 0.00727 0.0
C529 C 0.72747 0.65835 0.0114 0.0
C530 C 0.71364 0.69315 0.99544 0.0
C531 C 0.69356 0.6846 0.98768 0.0
C532 C 0.69054 0.66282 0.99139 0.0
C533 C 0.70758 0.64991 0.00319 0.0
C534 C 0.71748 0.71633 0.99177 0.0
C535 C 0.66931 0.65322 0.98345 0.0
C536 C 0.6506 0.72361 0.01194 0.0
C537 C 0.64656 0.73077 0.96024 0.0
C538 C 0.66504 0.70769 0.02117 0.0
C539 C 0.67575 0.69876 0.97766 0.0
C540 C 0.67092 0.70509 0.92515 0.0
C541 C 0.65632 0.72104 0.91702 0.0
C542 C 0.66967 0.70126 0.07774 0.0
C543 C 0.68203 0.69588 0.87778 0.0
H544 H 0.74565 0.68658 0.01332 0.0
H545 H 0.70529 0.63323 0.0062 0.0
H546 H 0.71239 0.72224 0.95241 0.0
H547 H 0.70818 0.72456 0.02243 0.0
H548 H 0.73415 0.7204 -0.00256 0.0
H549 H 0.66971 0.63595 0.98593 0.0
H550 H 0.65839 0.65916 0.01406 0.0
H551 H 0.66295 0.65777 0.94411 0.0
H552 H 0.64294 0.73089 0.04553 0.0
H553 H 0.6532 0.72642 0.87695 0.0
H554 H 0.68558 0.70645 0.08872 0.0
H555 H 0.66927 0.68406 0.08162 0.0
H556 H 0.65846 0.70807 0.10651 0.0
H557 H 0.69852 0.70105 0.87782 0.0
H558 H 0.67481 0.70068 0.83955 0.0
H559 H 0.68203 0.67863 0.8801 0.0
C560 C 0.26869 0.64874 0.01433 0.0
C561 C 0.25054 0.66086 0.01131 0.0
C562 C 0.28835 0.65816 0.01914 0.0
C563 C 0.28978 0.68013 0.02109 0.0
C564 C 0.2715 0.69238 0.01834 0.0
C565 C 0.25213 0.6826 0.0134 0.0
C566 C 0.30756 0.64466 0.02182 0.0
C567 C 0.27237 0.71589 0.02039 0.0
C568 C 0.33485 0.71061 0.07824 0.0
C569 C 0.34372 0.7189 0.03187 0.0
C570 C 0.31815 0.69658 0.0754 0.0
C571 C 0.31028 0.69068 0.02503 0.0
C572 C 0.32038 0.69756 0.9782 0.0
C573 C 0.33697 0.71164 0.98219 0.0
C574 C 0.30786 0.68946 0.12624 0.0
C575 C 0.31261 0.69143 0.92375 0.0
H576 H 0.26756 0.63192 0.01276 0.0
H577 H 0.2382 0.69208 0.01126 0.0
H578 H 0.31801 0.6483 0.98794 0.0
H579 H 0.31636 0.648 0.0588 0.0
H580 H 0.30375 0.62779 0.02078 0.0
H581 H 0.25666 0.7231 0.01861 0.0
H582 H 0.28012 0.72101 0.05758 0.0
H583 H 0.28174 0.7219 0.98662 0.0
H584 H 0.3401 0.71601 0.1168 0.0
H585 H 0.34397 0.71774 0.94616 0.0
H586 H 0.30443 0.67255 0.12479 0.0
H587 H 0.29282 0.69774 0.13117 0.0
H588 H 0.31768 0.69269 0.16167 0.0
H589 H 0.30938 0.67448 0.92202 0.0
H590 H 0.32394 0.69545 0.89198 0.0
H591 H 0.29778 0.69967 0.91535 0.0
C592 C 0.83806 0.75986 0.54471 0.0
C593 C 0.82714 0.74105 0.55022 0.0
C594 C 0.82752 0.77899 0.5434 0.0
C595 C 0.80556 0.77927 0.54757 0.0
C596 C 0.79447 0.76036 0.55361 0.0
C597 C 0.8054 0.74148 0.55494 0.0
C598 C 0.83984 0.79887 0.53706 0.0
C599 C 0.77101 0.76006 0.5581 0.0
C600 C 0.77609 0.82782 0.58871 0.0
C601 C 0.76804 0.83462 0.53984 0.0
C602 C 0.78902 0.81025 0.59163 0.0
C603 C 0.79399 0.79926 0.54456 0.0
C604 C 0.78672 0.8066 0.49486 0.0
C605 C 0.77385 0.82422 0.49309 0.0
C606 C 0.79662 0.80294 0.64531 0.0
C607 C 0.79175 0.79532 0.44378 0.0
H608 H 0.85488 0.75966 0.54114 0.0
H609 H 0.79684 0.72703 0.55923 0.0
H610 H 0.83516 0.8069 0.49987 0.0
H611 H 0.83643 0.80961 0.57047 0.0
H612 H 0.85689 0.79601 0.53575 0.0
H613 H 0.76477 0.74406 0.5634 0.0
H614 H 0.76596 0.76971 0.59231 0.0
H615 H 0.76398 0.76691 0.52179 0.0
H616 H 0.77176 0.83581 0.625 0.0
H617 H 0.76778 0.82941 0.45511 0.0
H618 H 0.81371 0.80046 0.6445 0.0
H619 H 0.7893 0.78777 0.65516 0.0
H620 H 0.79288 0.81419 0.67745 0.0
H621 H 0.8088 0.79292 0.44018 0.0
H622 H 0.7862 0.80391 0.40814 0.0
H623 H 0.78435 0.77971 0.44415 0.0
C624 C 0.2177 0.84298 0.42112 0.0
C625 C 0.22728 0.85189 0.46574 0.0
C626 C 0.20196 0.82801 0.42695 0.0
C627 C 0.19564 0.82191 0.47859 0.0
C628 C 0.20424 0.83188 0.52365 0.0
C629 C 0.21998 0.84676 0.51669 0.0
C630 C 0.19307 0.81776 0.37792 0.0
C631 C 0.19779 0.82591 0.57936 0.0
C632 C 0.1475 0.78801 0.49393 0.0
C633 C 0.15639 0.76809 0.49742 0.0
C634 C 0.16006 0.80577 0.48806 0.0
C635 C 0.18195 0.80349 0.48558 0.0
C636 C 0.19098 0.78345 0.48953 0.0
C637 C 0.1781 0.76601 0.49543 0.0
C638 C 0.14993 0.82693 0.48417 0.0
C639 C 0.2143 0.78039 0.48714 0.0
H640 H 0.22314 0.84696 0.3816 0.0
H641 H 0.22716 0.85372 0.5514 0.0
H642 H 0.19858 0.80141 0.37574 0.0
H643 H 0.17582 0.81736 0.3799 0.0
H644 H 0.19779 0.82591 0.34084 0.0
H645 H 0.20398 0.83688 0.60963 0.0
H646 H 0.18057 0.82543 0.58275 0.0
H647 H 0.20368 0.81008 0.58861 0.0
H648 H 0.13073 0.78973 0.49546 0.0
H649 H 0.1851 0.7507 0.49815 0.0
H650 H 0.15388 0.83426 0.4455 0.0
H651 H 0.156 0.83729 0.51586 0.0
H652 H 0.13271 0.82608 0.48777 0.0
H653 H 0.22042 0.7864 0.44883 0.0
H654 H 0.21883 0.76377 0.49108 0.0
H655 H 0.22194 0.78935 0.51941 0.0
C656 C 0.23019 0.16255 0.4739 0.0
C657 C 0.23664 0.14902 0.5145 0.0
C658 C 0.21449 0.17729 0.48279 0.0
C659 C 0.20503 0.17856 0.53351 0.0
C660 C 0.21076 0.16432 0.57391 0.0
C661 C 0.22651 0.14969 0.56391 0.0
C662 C 0.20874 0.19216 0.43861 0.0
C663 C 0.20096 0.16517 0.62844 0.0
C664 C 0.18561 0.23222 0.57089 0.0
C665 C 0.16425 0.23065 0.56015 0.0
C666 C 0.19891 0.21517 0.56382 0.0
C667 C 0.19066 0.19605 0.5455 0.0
C668 C 0.16901 0.19412 0.53616 0.0
C669 C 0.15602 0.21148 0.54363 0.0
C670 C 0.22191 0.21783 0.57446 0.0
C671 C 0.15968 0.17393 0.51676 0.0
H672 H 0.23781 0.16202 0.43546 0.0
H673 H 0.23133 0.13923 0.59542 0.0
H674 H 0.19162 0.19241 0.43284 0.0
H675 H 0.2136 0.20818 0.44953 0.0
H676 H 0.21625 0.18799 0.40028 0.0
H677 H 0.20548 0.15166 0.6535 0.0
H678 H 0.20588 0.17965 0.64892 0.0
H679 H 0.18374 0.16559 0.62519 0.0
H680 H 0.19209 0.24693 0.58402 0.0
H681 H 0.13951 0.21014 0.53535 0.0
H682 H 0.23078 0.21572 0.53698 0.0
H683 H 0.22739 0.20579 0.60284 0.0
H684 H 0.22567 0.23342 0.59098 0.0
H685 H 0.16563 0.1704 0.47635 0.0
H686 H 0.14241 0.17452 0.51519 0.0
H687 H 0.16443 0.16089 0.54305 0.0
C688 C 0.83315 0.22238 0.44405 0.0
C689 C 0.84394 0.22812 0.49029 0.0
C690 C 0.81639 0.20841 0.44626 0.0
C691 C 0.81029 0.19997 0.49587 0.0
C692 C 0.82158 0.2051 0.54239 0.0
C693 C 0.83829 0.21911 0.53903 0.0
C694 C 0.80476 0.20324 0.39576 0.0
C695 C 0.81556 0.19634 0.59597 0.0
C696 C 0.75392 0.18332 0.51048 0.0
C697 C 0.75535 0.16167 0.50439 0.0
C698 C 0.77172 0.19594 0.50811 0.0
C699 C 0.79142 0.18667 0.49946 0.0
C700 C 0.79302 0.16482 0.49363 0.0
C701 C 0.77495 0.15257 0.49615 0.0
C702 C 0.76941 0.21921 0.51452 0.0
C703 C 0.81379 0.15442 0.48439 0.0
H704 H 0.83744 0.22922 0.40619 0.0
H705 H 0.84657 0.22341 0.57493 0.0
H706 H 0.80381 0.18612 0.39049 0.0
H707 H 0.78857 0.20919 0.39844 0.0
H708 H 0.81224 0.21012 0.35999 0.0
H709 H 0.82673 0.20081 0.6277 0.0
H710 H 0.79987 0.20207 0.6072 0.0
H711 H 0.8147 0.1791 0.59412 0.0
H712 H 0.73884 0.19048 0.5169 0.0
H713 H 0.7762 0.13584 0.49146 0.0
H714 H 0.77514 0.22725 0.4783 0.0
H715 H 0.77904 0.22469 0.54835 0.0
H716 H 0.75301 0.22393 0.52159 0.0
H717 H 0.82088 0.16038 0.44715 0.0
H718 H 0.81241 0.13721 0.48145 0.0
H719 H 0.82464 0.15823 0.51731 0.0
C720 C 0.12131 0.33989 0.41674 0.0
C721 C 0.12743 0.31959 0.43005 0.0
C722 C 0.12827 0.34935 0.36959 0.0
C723 C 0.14147 0.33812 0.33481 0.0
C724 C 0.14773 0.31765 0.34812 0.0
C725 C 0.14073 0.30868 0.39567 0.0
C726 C 0.12146 0.37129 0.35688 0.0
C727 C 0.16167 0.30512 0.31184 0.0
C728 C 0.14448 0.35249 0.18863 0.0
C729 C 0.16382 0.36257 0.18596 0.0
C730 C 0.13678 0.34486 0.23709 0.0
C731 C 0.14862 0.34758 0.28405 0.0
C732 C 0.16785 0.35832 0.28191 0.0
C733 C 0.17528 0.36559 0.23282 0.0
C734 C 0.11629 0.33333 0.23775 0.0
C735 C 0.1808 0.3617 0.33127 0.0
H736 H 0.11109 0.34843 0.4432 0.0
H737 H 0.14548 0.29295 0.40553 0.0
H738 H 0.13529 0.3814 0.35118 0.0
H739 H 0.11256 0.37148 0.31908 0.0
H740 H 0.11157 0.37808 0.38872 0.0
H741 H 0.16511 0.2894 0.32804 0.0
H742 H 0.15418 0.30331 0.27236 0.0
H743 H 0.1766 0.31344 0.3055 0.0
H744 H 0.13554 0.35009 0.1526 0.0
H745 H 0.19018 0.37349 0.23114 0.0
H746 H 0.10559 0.34042 0.26724 0.0
H747 H 0.11889 0.31694 0.25007 0.0
H748 H 0.10854 0.33335 0.19825 0.0
H749 H 0.17128 0.36918 0.36273 0.0
H750 H 0.19467 0.37158 0.32348 0.0
H751 H 0.18614 0.34648 0.34706 0.0
C752 C 0.67414 0.12627 0.33793 0.0
C753 C 0.66768 0.1347 0.38667 0.0
C754 C 0.66455 0.13218 0.29012 0.0
C755 C 0.64816 0.1469 0.29108 0.0
C756 C 0.64113 0.15497 0.34025 0.0
C757 C 0.65097 0.14877 0.38748 0.0
C758 C 0.67241 0.12317 0.23842 0.0
C759 C 0.62369 0.17071 0.34284 0.0
C760 C 0.6402 0.17999 0.16793 0.0
C761 C 0.62289 0.17044 0.14421 0.0
C762 C 0.6485 0.17248 0.21575 0.0
C763 C 0.63934 0.15493 0.24045 0.0
C764 C 0.62187 0.14518 0.21681 0.0
C765 C 0.6138 0.15309 0.16896 0.0
C766 C 0.6671 0.18337 0.23986 0.0
C767 C 0.61176 0.12638 0.242 0.0
H768 H 0.68696 0.11531 0.33696 0.0
H769 H 0.64581 0.1553 0.42496 0.0
H770 H 0.6593 0.11652 0.21526 0.0
H771 H 0.67946 0.1357 0.21392 0.0
H772 H 0.68427 0.11083 0.24477 0.0
H773 H 0.61917 0.17444 0.38439 0.0
H774 H 0.62857 0.18531 0.32281 0.0
H775 H 0.6098 0.16478 0.32144 0.0
H776 H 0.6473 0.19344 0.1492 0.0
H777 H 0.60045 0.14561 0.15084 0.0
H778 H 0.68027 0.1723 0.24368 0.0
H779 H 0.66323 0.18891 0.28045 0.0
H780 H 0.67231 0.1969 0.21575 0.0
H781 H 0.6233 0.11362 0.24593 0.0
H782 H 0.59829 0.12059 0.21855 0.0
H783 H 0.60632 0.13028 0.28266 0.0
C784 C 0.85108 0.6576 0.38095 0.0
C785 C 0.84243 0.65213 0.43024 0.0
C786 C 0.84369 0.64877 0.33363 0.0
C787 C 0.82722 0.63415 0.33564 0.0
C788 C 0.81878 0.62814 0.38531 0.0
C789 C 0.8265 0.6372 0.43208 0.0
C790 C 0.85312 0.65553 0.28136 0.0
C791 C 0.80121 0.61257 0.38891 0.0
C792 C 0.7939 0.63026 0.21181 0.0
C793 C 0.80203 0.61244 0.18717 0.0
C794 C 0.80171 0.63723 0.26067 0.0
C795 C 0.81807 0.62613 0.28548 0.0
C796 C 0.82611 0.60791 0.2614 0.0
C797 C 0.81796 0.60126 0.21247 0.0
C798 C 0.7927 0.65671 0.28523 0.0
C799 C 0.84357 0.59571 0.28679 0.0
H800 H 0.86347 0.66904 0.37917 0.0
H801 H 0.81977 0.63284 0.47001 0.0
H802 H 0.85836 0.64175 0.25843 0.0
H803 H 0.84119 0.66363 0.25704 0.0
H804 H 0.86658 0.66618 0.28686 0.0
H805 H 0.79725 0.6086 0.43071 0.0
H806 H 0.78712 0.61901 0.36935 0.0
H807 H 0.8054 0.59806 0.36757 0.0
H808 H 0.78153 0.63896 0.19266 0.0
H809 H 0.82431 0.58746 0.1937 0.0
H810 H 0.80494 0.66884 0.28824 0.0
H811 H 0.78717 0.6534 0.32616 0.0
H812 H 0.7795 0.66309 0.26177 0.0
H813 H 0.85773 0.60556 0.28934 0.0
H814 H 0.84744 0.58138 0.26415 0.0
H815 H 0.83929 0.59125 0.32799 0.0
C816 C 0.31238 0.85747 0.32595 0.0
C817 C 0.3262 0.8615 0.36791 0.0
C818 C 0.31954 0.84971 0.27719 0.0
C819 C 0.34104 0.84575 0.27027 0.0
C820 C 0.35512 0.84996 0.31222 0.0
C821 C 0.34754 0.85786 0.36055 0.0
C822 C 0.30405 0.84551 0.23328 0.0
C823 C 0.37815 0.84581 0.30631 0.0
C824 C 0.35529 0.80605 0.16488 0.0
C825 C 0.36134 0.81882 0.1223 0.0
C826 C 0.34901 0.81463 0.21354 0.0
C827 C 0.34861 0.83652 0.21967 0.0
C828 C 0.3548 0.84952 0.17701 0.0
C829 C 0.36118 0.8405 0.12884 0.0
C830 C 0.34264 0.80025 0.25824 0.0
C831 C 0.35441 0.87294 0.18204 0.0
H832 H 0.29587 0.86034 0.33116 0.0
H833 H 0.35831 0.86094 0.39276 0.0
H834 H 0.30859 0.85409 0.19677 0.0
H835 H 0.30404 0.82869 0.22335 0.0
H836 H 0.28796 0.85015 0.2444 0.0
H837 H 0.38711 0.85046 0.34218 0.0
H838 H 0.38078 0.82899 0.29893 0.0
H839 H 0.38438 0.85439 0.27149 0.0
H840 H 0.35549 0.78927 0.16029 0.0
H841 H 0.36582 0.85047 0.09611 0.0
H842 H 0.32611 0.80305 0.26888 0.0
H843 H 0.3521 0.8035 0.29419 0.0
H844 H 0.3445 0.78357 0.2476 0.0
H845 H 0.33828 0.87827 0.19008 0.0
H846 H 0.36014 0.88085 0.14556 0.0
H847 H 0.36415 0.87792 0.21617 0.0
C848 C 0.13331 0.65795 0.62184 0.0
C849 C 0.12562 0.67839 0.6224 0.0
C850 C 0.13964 0.64811 0.66898 0.0
C851 C 0.1381 0.65895 0.7178 0.0
C852 C 0.12986 0.67938 0.71881 0.0
C853 C 0.12378 0.68888 0.67106 0.0
C854 C 0.14845 0.62634 0.6664 0.0
C855 C 0.12786 0.69137 0.77021 0.0
C856 C 0.14035 0.62925 0.84837 0.0
C857 C 0.16095 0.63291 0.86435 0.0
C858 C 0.13273 0.63739 0.80032 0.0
C859 C 0.14607 0.64937 0.76755 0.0
C860 C 0.16697 0.65276 0.78299 0.0
C861 C 0.17415 0.64452 0.83122 0.0
C862 C 0.11032 0.6335 0.7851 0.0
C863 C 0.1817 0.66538 0.74895 0.0
H864 H 0.13477 0.64973 0.5844 0.0
H865 H 0.11773 0.70463 0.67189 0.0
H866 H 0.16495 0.62649 0.67946 0.0
H867 H 0.13985 0.61591 0.6939 0.0
H868 H 0.14769 0.61969 0.62568 0.0
H869 H 0.12015 0.70669 0.76453 0.0
H870 H 0.11877 0.68222 0.79958 0.0
H871 H 0.14352 0.69403 0.78754 0.0
H872 H 0.13006 0.62029 0.87374 0.0
H873 H 0.19012 0.64736 0.84314 0.0
H874 H 0.10952 0.62619 0.74519 0.0
H875 H 0.10184 0.64852 0.78268 0.0
H876 H 0.10219 0.62326 0.81405 0.0
H877 H 0.18253 0.65869 0.70835 0.0
H878 H 0.19768 0.66597 0.76578 0.0
H879 H 0.1758 0.68155 0.74499 0.0
C880 C 0.34702 0.16681 0.56486 0.0
C881 C 0.33368 0.14952 0.566 0.0
C882 C 0.35633 0.17429 0.6116 0.0
C883 C 0.35212 0.16427 0.66059 0.0
C884 C 0.33929 0.14636 0.6617 0.0
C885 C 0.33026 0.13917 0.61438 0.0
C886 C 0.37005 0.19336 0.60883 0.0
C887 C 0.33443 0.13526 0.7132 0.0
C888 C 0.38579 0.17541 0.78163 0.0
C889 C 0.37352 0.18994 0.80909 0.0
C890 C 0.37917 0.16706 0.73286 0.0
C891 C 0.35983 0.17339 0.71119 0.0
C892 C 0.34751 0.18821 0.73845 0.0
C893 C 0.3545 0.1963 0.787 0.0
C894 C 0.39272 0.15132 0.7048 0.0
C895 C 0.32678 0.19534 0.71662 0.0
H896 H 0.34986 0.17482 0.52761 0.0
H897 H 0.32003 0.12575 0.61563 0.0
H898 H 0.36244 0.20644 0.63007 0.0
H899 H 0.38513 0.19035 0.62892 0.0
H900 H 0.37316 0.19828 0.56723 0.0
H901 H 0.32539 0.12073 0.70679 0.0
H902 H 0.34903 0.13131 0.7345 0.0
H903 H 0.32529 0.14569 0.7395 0.0
H904 H 0.40051 0.17043 0.79839 0.0
H905 H 0.34492 0.20753 0.80786 0.0
H906 H 0.3963 0.15675 0.66391 0.0
H907 H 0.38428 0.13632 0.70112 0.0
H908 H 0.4076 0.1485 0.72614 0.0
H909 H 0.32888 0.20202 0.67628 0.0
H910 H 0.31925 0.20723 0.74229 0.0
H911 H 0.3161 0.18185 0.7128 0.0
C912 C 0.84416 0.36344 0.80158 0.0
C913 C 0.82279 0.36115 0.81161 0.0
C914 C 0.85285 0.35703 0.75304 0.0
C915 C 0.83986 0.34812 0.7137 0.0
C916 C 0.81825 0.34601 0.72333 0.0
C917 C 0.80998 0.35254 0.77215 0.0
C918 C 0.87597 0.35951 0.74416 0.0
C919 C 0.8039 0.33654 0.68235 0.0
C920 C 0.85758 0.34502 0.56969 0.0
C921 C 0.86367 0.32411 0.56584 0.0
C922 C 0.85019 0.35322 0.61792 0.0
C923 C 0.84891 0.34018 0.66324 0.0
C924 C 0.8555 0.31921 0.65989 0.0
C925 C 0.86278 0.31143 0.61128 0.0
C926 C 0.84331 0.37568 0.62009 0.0
C927 C 0.85442 0.30482 0.70738 0.0
H928 H 0.85416 0.37013 0.83179 0.0
H929 H 0.79345 0.35074 0.77948 0.0
H930 H 0.88324 0.344 0.73862 0.0
H931 H 0.87887 0.36859 0.70734 0.0
H932 H 0.88379 0.36746 0.77792 0.0
H933 H 0.78736 0.33663 0.69534 0.0
H934 H 0.80514 0.3452 0.64429 0.0
H935 H 0.80858 0.32022 0.67436 0.0
H936 H 0.85824 0.35493 0.53482 0.0
H937 H 0.86753 0.29527 0.6088 0.0
H938 H 0.85157 0.38395 0.65256 0.0
H939 H 0.82642 0.37646 0.62906 0.0
H940 H 0.84625 0.38402 0.58211 0.0
H941 H 0.86306 0.31164 0.74136 0.0
H942 H 0.86096 0.28918 0.69873 0.0
H943 H 0.83798 0.30293 0.72009 0.0
C944 C 0.63192 0.85035 0.85223 0.0
C945 C 0.62706 0.82917 0.85798 0.0
C946 C 0.63931 0.85823 0.80367 0.0
C947 C 0.6418 0.84461 0.75989 0.0
C948 C 0.63615 0.82341 0.76487 0.0
C949 C 0.6289 0.81593 0.81387 0.0
C950 C 0.64523 0.88094 0.79985 0.0
C951 C 0.63847 0.80842 0.71898 0.0
C952 C 0.64967 0.86618 0.62042 0.0
C953 C 0.6713 0.86426 0.61444 0.0
C954 C 0.6398 0.86012 0.66786 0.0
C955 C 0.6519 0.85206 0.71022 0.0
C956 C 0.67376 0.85042 0.70468 0.0
C957 C 0.68317 0.85648 0.65688 0.0
C958 C 0.61644 0.862 0.67237 0.0
C959 C 0.68721 0.842 0.74903 0.0
H960 H 0.63049 0.86069 0.88607 0.0
H961 H 0.62503 0.79958 0.81782 0.0
H962 H 0.66231 0.88233 0.79419 0.0
H963 H 0.63767 0.88823 0.76483 0.0
H964 H 0.64078 0.8898 0.83602 0.0
H965 H 0.63186 0.79283 0.72809 0.0
H966 H 0.63064 0.81468 0.68306 0.0
H967 H 0.65521 0.80653 0.70915 0.0
H968 H 0.6404 0.87218 0.58783 0.0
H969 H 0.69991 0.85506 0.65278 0.0
H970 H 0.61228 0.87147 0.7077 0.0
H971 H 0.60947 0.84635 0.67809 0.0
H972 H 0.60937 0.86926 0.63656 0.0
H973 H 0.68472 0.85118 0.78584 0.0
H974 H 0.70405 0.84238 0.73897 0.0
H975 H 0.68276 0.82567 0.75792 0.0
C976 C 0.85464 0.65339 0.69807 0.0
C977 C 0.86709 0.67129 0.70125 0.0
C978 C 0.84726 0.64356 0.7441 0.0
C979 C 0.85242 0.65186 0.79451 0.0
C980 C 0.8657 0.66938 0.79811 0.0
C981 C 0.87291 0.6789 0.75135 0.0
C982 C 0.83317 0.62484 0.73867 0.0
C983 C 0.87153 0.67864 0.85123 0.0
C984 C 0.81228 0.64255 0.90194 0.0
C985 C 0.82086 0.62566 0.92975 0.0
C986 C 0.82268 0.6515 0.85871 0.0
C987 C 0.8422 0.64342 0.84287 0.0
C988 C 0.85127 0.62676 0.87156 0.0
C989 C 0.84046 0.61803 0.91475 0.0
C990 C 0.81248 0.66927 0.8291 0.0
C991 C 0.87212 0.61784 0.85582 0.0
H992 H 0.85022 0.64729 0.65951 0.0
H993 H 0.88261 0.69267 0.75413 0.0
H994 H 0.83884 0.61188 0.76398 0.0
H995 H 0.81728 0.6289 0.75254 0.0
H996 H 0.83211 0.61927 0.69694 0.0
H997 H 0.88368 0.69087 0.84747 0.0
H998 H 0.85755 0.68566 0.86991 0.0
H999 H 0.87728 0.66634 0.87851 0.0
H1000 H 0.79719 0.64864 0.91337 0.0
H1001 H 0.84722 0.60503 0.93616 0.0
H1002 H 0.80917 0.66449 0.78757 0.0
H1003 H 0.82315 0.68283 0.82731 0.0
H1004 H 0.79766 0.67428 0.84791 0.0
H1005 H 0.87096 0.61066 0.81582 0.0
H1006 H 0.87768 0.60585 0.88434 0.0
H1007 H 0.88393 0.63041 0.85325 0.0
C1008 C 0.31689 0.85837 0.6584 0.0
C1009 C 0.31091 0.84435 0.61843 0.0
C1010 C 0.32353 0.85122 0.70832 0.0
C1011 C 0.32431 0.82956 0.71836 0.0
C1012 C 0.31881 0.81532 0.67777 0.0
C1013 C 0.31214 0.82289 0.62831 0.0
C1014 C 0.32927 0.86686 0.75069 0.0
C1015 C 0.31963 0.79209 0.68692 0.0
C1016 C 0.35706 0.80929 0.83275 0.0
C1017 C 0.34186 0.80526 0.87153 0.0
C1018 C 0.3516 0.81742 0.7829 0.0
C1019 C 0.33046 0.82174 0.77169 0.0
C1020 C 0.31509 0.81813 0.811 0.0
C1021 C 0.32097 0.80989 0.86045 0.0
C1022 C 0.36841 0.82102 0.74189 0.0
C1023 C 0.29239 0.82269 0.80052 0.0
H1024 H 0.31599 0.87498 0.65111 0.0
H1025 H 0.30761 0.81196 0.59759 0.0
H1026 H 0.31861 0.86521 0.78516 0.0
H1027 H 0.34528 0.86384 0.76533 0.0
H1028 H 0.32843 0.88315 0.736 0.0
H1029 H 0.31555 0.78311 0.65065 0.0
H1030 H 0.33545 0.78743 0.70002 0.0
H1031 H 0.30866 0.78772 0.71913 0.0
H1032 H 0.37324 0.80575 0.84094 0.0
H1033 H 0.30915 0.80687 0.89023 0.0
H1034 H 0.36816 0.83746 0.72836 0.0
H1035 H 0.36545 0.81114 0.70651 0.0
H1036 H 0.38419 0.8174 0.75742 0.0
H1037 H 0.29042 0.83919 0.78843 0.0
H1038 H 0.28247 0.81967 0.8359 0.0
H1039 H 0.28672 0.8129 0.76719 0.0
C1040 C 0.15891 0.32646 0.68751 0.0
C1041 C 0.14138 0.31364 0.68185 0.0
C1042 C 0.16537 0.33333 0.73777 0.0
C1043 C 0.15391 0.3274 0.78342 0.0
C1044 C 0.1358 0.31504 0.77785 0.0
C1045 C 0.12979 0.30822 0.72712 0.0
C1046 C 0.18484 0.34643 0.74217 0.0
C1047 C 0.12307 0.30861 0.8256 0.0
C1048 C 0.18375 0.32664 0.91349 0.0
C1049 C 0.17841 0.34599 0.9354 0.0
C1050 C 0.17553 0.32023 0.86452 0.0
C1051 C 0.16148 0.33339 0.83708 0.0
C1052 C 0.15547 0.35261 0.85984 0.0
C1053 C 0.16408 0.35873 0.90866 0.0
C1054 C 0.1824 0.29965 0.84135 0.0
C1055 C 0.14034 0.36693 0.83198 0.0
H1056 H 0.16795 0.33071 0.65277 0.0
H1057 H 0.11615 0.29841 0.72303 0.0
H1058 H 0.1814 0.36114 0.7635 0.0
H1059 H 0.19676 0.33796 0.7657 0.0
H1060 H 0.19156 0.3503 0.70268 0.0
H1061 H 0.10867 0.30013 0.8142 0.0
H1062 H 0.1325 0.2984 0.8518 0.0
H1063 H 0.11866 0.32251 0.84925 0.0
H1064 H 0.19482 0.31671 0.93387 0.0
H1065 H 0.15979 0.37366 0.92553 0.0
H1066 H 0.19078 0.30236 0.80337 0.0
H1067 H 0.16866 0.28982 0.83226 0.0
H1068 H 0.19283 0.2909 0.86862 0.0
H1069 H 0.14725 0.37253 0.79415 0.0
H1070 H 0.13619 0.38066 0.85664 0.0
H1071 H 0.12587 0.35839 0.82178 0.0
C1072 C 0.64843 0.17419 0.85213 0.0
C1073 C 0.63562 0.16181 0.88451 0.0
C1074 C 0.65899 0.16568 0.80855 0.0
C1075 C 0.65667 0.14426 0.79687 0.0
C1076 C 0.64378 0.13164 0.82926 0.0
C1077 C 0.6334 0.14058 0.87281 0.0
C1078 C 0.67263 0.17965 0.77496 0.0
C1079 C 0.64093 0.10875 0.8178 0.0
C1080 C 0.66965 0.12921 0.65502 0.0
C1081 C 0.69016 0.12195 0.66022 0.0
C1082 C 0.6583 0.13583 0.69951 0.0
C1083 C 0.66771 0.13527 0.75036 0.0
C1084 C 0.68819 0.12746 0.7561 0.0
C1085 C 0.69917 0.12084 0.71093 0.0
C1086 C 0.63644 0.14398 0.69188 0.0
C1087 C 0.69876 0.12672 0.80971 0.0
H1088 H 0.65028 0.19061 0.86085 0.0
H1089 H 0.62354 0.13091 0.89763 0.0
H1090 H 0.68881 0.17362 0.77452 0.0
H1091 H 0.66699 0.17971 0.73327 0.0
H1092 H 0.67289 0.19595 0.78972 0.0
H1093 H 0.63041 0.10107 0.84689 0.0
H1094 H 0.6344 0.10664 0.77731 0.0
H1095 H 0.65623 0.10074 0.81866 0.0
H1096 H 0.66252 0.12999 0.616 0.0
H1097 H 0.71498 0.1152 0.71528 0.0
H1098 H 0.63591 0.16078 0.70206 0.0
H1099 H 0.62552 0.13582 0.71899 0.0
H1100 H 0.63087 0.14202 0.65036 0.0
H1101 H 0.70092 0.14279 0.82495 0.0
H1102 H 0.71422 0.11899 0.80793 0.0
H1103 H 0.68887 0.1183 0.83879 0.0
C1104 C 0.82867 0.30893 0.30017 0.0
C1105 C 0.84966 0.30821 0.3154 0.0
C1106 C 0.82278 0.31666 0.25024 0.0
C1107 C 0.83825 0.32396 0.21472 0.0
C1108 C 0.85942 0.32383 0.23035 0.0
C1109 C 0.86489 0.31591 0.28051 0.0
C1110 C 0.80003 0.31654 0.235 0.0
C1111 C 0.87631 0.33164 0.19365 0.0
C1112 C 0.8234 0.32273 0.06877 0.0
C1113 C 0.81686 0.34329 0.06016 0.0
C1114 C 0.83101 0.31639 0.1185 0.0
C1115 C 0.83221 0.33099 0.16055 0.0
C1116 C 0.82642 0.35196 0.15153 0.0
C1117 C 0.81878 0.35786 0.10146 0.0
C1118 C 0.83702 0.29388 0.12661 0.0
C1119 C 0.82764 0.368 0.19529 0.0
H1120 H 0.81679 0.30305 0.32688 0.0
H1121 H 0.88114 0.31549 0.29204 0.0
H1122 H 0.79498 0.33244 0.2235 0.0
H1123 H 0.79764 0.30632 0.19998 0.0
H1124 H 0.78988 0.31095 0.26783 0.0
H1125 H 0.89189 0.33154 0.21287 0.0
H1126 H 0.87697 0.32175 0.15755 0.0
H1127 H 0.87276 0.34773 0.1804 0.0
H1128 H 0.82203 0.31139 0.03709 0.0
H1129 H 0.81387 0.37381 0.09507 0.0
H1130 H 0.82638 0.28658 0.15596 0.0
H1131 H 0.85302 0.29281 0.143 0.0
H1132 H 0.83633 0.28477 0.08911 0.0
H1133 H 0.81636 0.36404 0.22713 0.0
H1134 H 0.82415 0.38396 0.18071 0.0
H1135 H 0.84337 0.36798 0.21349 0.0
C1136 C 0.67108 0.81665 0.11804 0.0
C1137 C 0.64969 0.81573 0.10718 0.0
C1138 C 0.67838 0.82321 0.16785 0.0
C1139 C 0.66392 0.82896 0.20772 0.0
C1140 C 0.64234 0.82878 0.19643 0.0
C1141 C 0.63548 0.82219 0.14623 0.0
C1142 C 0.70153 0.82336 0.17835 0.0
C1143 C 0.62648 0.83486 0.23793 0.0
C1144 C 0.68193 0.82331 0.35066 0.0
C1145 C 0.6873 0.84385 0.36354 0.0
C1146 C 0.67398 0.81832 0.30031 0.0
C1147 C 0.67138 0.83426 0.26194 0.0
C1148 C 0.67639 0.85508 0.27499 0.0
C1149 C 0.68427 0.85964 0.32569 0.0
C1150 C 0.66869 0.79593 0.28786 0.0
C1151 C 0.67383 0.87247 0.23507 0.0
H1152 H 0.68216 0.81177 0.08804 0.0
H1153 H 0.61891 0.82159 0.13814 0.0
H1154 H 0.70646 0.83887 0.19315 0.0
H1155 H 0.70533 0.81183 0.20976 0.0
H1156 H 0.71074 0.81957 0.14225 0.0
H1157 H 0.61037 0.83505 0.22184 0.0
H1158 H 0.62709 0.8237 0.2716 0.0
H1159 H 0.63013 0.8505 0.25413 0.0
H1160 H 0.68417 0.81103 0.3797 0.0
H1161 H 0.68836 0.87557 0.33531 0.0
H1162 H 0.67859 0.79029 0.25471 0.0
H1163 H 0.65225 0.79471 0.27465 0.0
H1164 H 0.67099 0.7855 0.32263 0.0
H1165 H 0.68404 0.86963 0.20024 0.0
H1166 H 0.67774 0.88794 0.25211 0.0
H1167 H 0.65756 0.8729 0.22027 0.0
C1168 C 0.1312 0.68236 0.35492 0.0
C1169 C 0.11842 0.69988 0.34827 0.0
C1170 C 0.13791 0.67072 0.31105 0.0
C1171 C 0.13167 0.67674 0.25931 0.0
C1172 C 0.11848 0.69417 0.25234 0.0
C1173 C 0.11202 0.70557 0.29696 0.0
C1174 C 0.15202 0.65223 0.32 0.0
C1175 C 0.11151 0.70101 0.1977 0.0
C1176 C 0.16689 0.66039 0.14607 0.0
C1177 C 0.15654 0.64278 0.12631 0.0
C1178 C 0.1588 0.67172 0.1889 0.0
C1179 C 0.13983 0.66535 0.21241 0.0
C1180 C 0.12908 0.64783 0.19214 0.0
C1181 C 0.1376 0.63669 0.14933 0.0
C1182 C 0.17075 0.69029 0.20958 0.0
C1183 C 0.10874 0.6407 0.21613 0.0
H1184 H 0.13616 0.67782 0.39446 0.0
H1185 H 0.10208 0.71904 0.29153 0.0
H1186 H 0.14516 0.63809 0.30175 0.0
H1187 H 0.16726 0.65499 0.30043 0.0
H1188 H 0.15478 0.64914 0.36289 0.0
H1189 H 0.10044 0.71428 0.19929 0.0
H1190 H 0.12523 0.70573 0.17374 0.0
H1191 H 0.10393 0.68786 0.17663 0.0
H1192 H 0.18153 0.66523 0.12853 0.0
H1193 H 0.12948 0.62314 0.13415 0.0
H1194 H 0.17534 0.68758 0.25155 0.0
H1195 H 0.16074 0.70437 0.20886 0.0
H1196 H 0.18502 0.69349 0.18598 0.0
H1197 H 0.11119 0.63612 0.25821 0.0
H1198 H 0.10193 0.62726 0.19443 0.0
H1199 H 0.09732 0.65366 0.21595 0.0
C1200 C 0.29349 0.13178 0.2469 0.0
C1201 C 0.30548 0.13128 0.2935 0.0
C1202 C 0.30198 0.13895 0.19884 0.0
C1203 C 0.32298 0.14559 0.19736 0.0
C1204 C 0.33538 0.14436 0.24378 0.0
C1205 C 0.32646 0.1373 0.29136 0.0
C1206 C 0.28825 0.14017 0.15019 0.0
C1207 C 0.3579 0.15115 0.24362 0.0
C1208 C 0.35043 0.15307 0.06476 0.0
C1209 C 0.34947 0.17477 0.05891 0.0
C1210 C 0.34166 0.14325 0.10941 0.0
C1211 C 0.33155 0.15542 0.14859 0.0
C1212 C 0.33012 0.17726 0.14215 0.0
C1213 C 0.33918 0.18667 0.09756 0.0
C1214 C 0.34359 0.11993 0.11524 0.0
C1215 C 0.31926 0.19076 0.18277 0.0
H1216 H 0.27728 0.12711 0.24823 0.0
H1217 H 0.33587 0.13677 0.32711 0.0
H1218 H 0.28593 0.15672 0.13891 0.0
H1219 H 0.29583 0.13232 0.11603 0.0
H1220 H 0.27275 0.13295 0.15689 0.0
H1221 H 0.36585 0.14764 0.28183 0.0
H1222 H 0.36647 0.14332 0.21096 0.0
H1223 H 0.35884 0.16816 0.23635 0.0
H1224 H 0.35839 0.14381 0.03504 0.0
H1225 H 0.33822 0.20343 0.09306 0.0
H1226 H 0.32798 0.11283 0.12048 0.0
H1227 H 0.35279 0.1162 0.15136 0.0
H1228 H 0.35126 0.11262 0.08034 0.0
H1229 H 0.30307 0.18524 0.18892 0.0
H1230 H 0.31878 0.2074 0.17072 0.0
H1231 H 0.3274 0.1896 0.22158 0.0
loop_
_geom_bond_atom_site_label_1
_geom_bond_atom_site_label_2
_geom_bond_distance
_geom_bond_site_symmetry_2
_ccdc_geom_bond_type
C0 O1 1.160 . S
C0 O7 1.185 1_554 S
O1 C0 1.160 . S
O2 Zn3 1.899 . S
O2 C10 1.284 . S
Zn3 O2 1.899 . S
Zn3 O4 2.032 1_554 S
Zn3 O7 2.086 1_554 S
Zn3 O12 1.977 1_554 S
O4 Zn3 2.032 1_556 S
O4 C8 1.278 . S
C5 O6 1.203 . S
C5 O12 1.267 1_554 S
O6 C5 1.203 . S
O7 C0 1.185 1_556 S
O7 Zn3 2.086 1_556 S
C8 O4 1.278 . S
C8 O9 1.211 . S
O9 C8 1.211 . S
C10 O2 1.284 . S
C10 O11 1.273 . S
O11 C10 1.273 . S
O12 Zn3 1.977 1_556 S
O12 C5 1.267 1_556 S
C13 O14 1.160 . S
C13 O20 1.185 1_554 S
O14 C13 1.160 . S
O15 Zn16 1.899 . S
O15 C23 1.284 . S
Zn16 O15 1.899 . S
Zn16 O17 2.032 1_554 S
Zn16 O20 2.086 1_554 S
Zn16 O25 1.977 1_554 S
O17 Zn16 2.032 1_556 S
O17 C21 1.278 . S
C18 O19 1.203 . S
C18 O25 1.267 1_554 S
O19 C18 1.203 . S
O20 C13 1.185 1_556 S
O20 Zn16 2.086 1_556 S
C21 O17 1.278 . S
C21 O22 1.211 . S
O22 C21 1.211 . S
C23 O15 1.284 . S
C23 O24 1.273 . S
O24 C23 1.273 . S
O25 Zn16 1.977 1_556 S
O25 C18 1.267 1_556 S
C26 O27 1.160 . S
C26 O33 1.185 1_554 S
O27 C26 1.160 . S
O28 Zn29 1.899 . S
O28 C36 1.284 . S
Zn29 O28 1.899 . S
Zn29 O30 2.032 1_554 S
Zn29 O33 2.086 1_554 S
Zn29 O38 1.977 1_554 S
O30 Zn29 2.032 1_556 S
O30 C34 1.278 . S
C31 O32 1.203 . S
C31 O38 1.267 1_554 S
O32 C31 1.203 . S
O33 C26 1.185 1_556 S
O33 Zn29 2.086 1_556 S
C34 O30 1.278 . S
C34 O35 1.211 . S
O35 C34 1.211 . S
C36 O28 1.284 . S
C36 O37 1.273 . S
O37 C36 1.273 . S
O38 Zn29 1.977 1_556 S
O38 C31 1.267 1_556 S
C39 O40 1.160 . S
C39 O46 1.185 1_554 S
O40 C39 1.160 . S
O41 Zn42 1.899 . S
O41 C49 1.284 . S
Zn42 O41 1.899 . S
Zn42 O43 2.032 1_554 S
Zn42 O46 2.086 1_554 S
Zn42 O51 1.977 1_554 S
O43 Zn42 2.032 1_556 S
O43 C47 1.278 . S
C44 O45 1.203 . S
C44 O51 1.267 1_554 S
O45 C44 1.203 . S
O46 C39 1.185 1_556 S
O46 Zn42 2.086 1_556 S
C47 O43 1.278 . S
C47 O48 1.211 . S
O48 C47 1.211 . S
C49 O41 1.284 . S
C49 O50 1.273 . S
O50 C49 1.273 . S
O51 Zn42 1.977 1_556 S
O51 C44 1.267 1_556 S
C52 O53 1.160 . S
C52 O59 1.185 1_556 S
O53 C52 1.160 . S
O54 Zn55 1.899 . S
O54 C62 1.284 . S
Zn55 O54 1.899 . S
Zn55 O56 2.032 1_556 S
Zn55 O59 2.086 1_556 S
Zn55 O64 1.977 1_556 S
O56 Zn55 2.032 1_554 S
O56 C60 1.278 . S
C57 O58 1.203 . S
C57 O64 1.267 1_556 S
O58 C57 1.203 . S
O59 C52 1.185 1_554 S
O59 Zn55 2.086 1_554 S
C60 O56 1.278 . S
C60 O61 1.211 . S
O61 C60 1.211 . S
C62 O54 1.284 . S
C62 O63 1.273 . S
O63 C62 1.273 . S
O64 Zn55 1.977 1_554 S
O64 C57 1.267 1_554 S
C65 O66 1.160 . S
C65 O72 1.185 1_556 S
O66 C65 1.160 . S
O67 Zn68 1.899 . S
O67 C75 1.284 . S
Zn68 O67 1.899 . S
Zn68 O69 2.032 1_556 S
Zn68 O72 2.086 1_556 S
Zn68 O77 1.977 1_556 S
O69 Zn68 2.032 1_554 S
O69 C73 1.278 . S
C70 O71 1.203 . S
C70 O77 1.267 1_556 S
O71 C70 1.203 . S
O72 C65 1.185 1_554 S
O72 Zn68 2.086 1_554 S
C73 O69 1.278 . S
C73 O74 1.211 . S
O74 C73 1.211 . S
C75 O67 1.284 . S
C75 O76 1.273 . S
O76 C75 1.273 . S
O77 Zn68 1.977 1_554 S
O77 C70 1.267 1_554 S
C78 O79 1.160 . S
C78 O85 1.185 1_556 S
O79 C78 1.160 . S
O80 Zn81 1.899 . S
O80 C88 1.284 . S
Zn81 O80 1.899 . S
Zn81 O82 2.032 1_556 S
Zn81 O85 2.086 1_556 S
Zn81 O90 1.977 1_556 S
O82 Zn81 2.032 1_554 S
O82 C86 1.278 . S
C83 O84 1.203 . S
C83 O90 1.267 1_556 S
O84 C83 1.203 . S
O85 C78 1.185 1_554 S
O85 Zn81 2.086 1_554 S
C86 O82 1.278 . S
C86 O87 1.211 . S
O87 C86 1.211 . S
C88 O80 1.284 . S
C88 O89 1.273 . S
O89 C88 1.273 . S
O90 Zn81 1.977 1_554 S
O90 C83 1.267 1_554 S
C91 O92 1.160 . S
C91 O98 1.185 1_556 S
O92 C91 1.160 . S
O93 Zn94 1.899 . S
O93 C101 1.284 . S
Zn94 O93 1.899 . S
Zn94 O95 2.032 1_556 S
Zn94 O98 2.086 1_556 S
Zn94 O103 1.977 1_556 S
O95 Zn94 2.032 1_554 S
O95 C99 1.278 . S
C96 O97 1.203 . S
C96 O103 1.267 1_556 S
O97 C96 1.203 . S
O98 C91 1.185 1_554 S
O98 Zn94 2.086 1_554 S
C99 O95 1.278 . S
C99 O100 1.211 . S
O100 C99 1.211 . S
C101 O93 1.284 . S
C101 O102 1.273 . S
O102 C101 1.273 . S
O103 Zn94 1.977 1_554 S
O103 C96 1.267 1_554 S
C104 O105 1.160 . S
C104 O111 1.185 . S
O105 C104 1.160 . S
O106 Zn107 1.899 . S
O106 C114 1.284 . S
Zn107 O106 1.899 . S
Zn107 O108 2.032 . S
Zn107 O111 2.086 . S
Zn107 O116 1.977 . S
O108 Zn107 2.032 . S
O108 C112 1.278 . S
C109 O110 1.203 . S
C109 O116 1.267 . S
O110 C109 1.203 . S
O111 C104 1.185 . S
O111 Zn107 2.086 . S
C112 O108 1.278 . S
C112 O113 1.211 . S
O113 C112 1.211 . S
C114 O106 1.284 . S
C114 O115 1.273 . S
O115 C114 1.273 . S
O116 Zn107 1.977 . S
O116 C109 1.267 . S
C117 O118 1.160 . S
C117 O124 1.185 . S
O118 C117 1.160 . S
O119 Zn120 1.899 . S
O119 C127 1.284 . S
Zn120 O119 1.899 . S
Zn120 O121 2.032 . S
Zn120 O124 2.086 . S
Zn120 O129 1.977 . S
O121 Zn120 2.032 . S
O121 C125 1.278 . S
C122 O123 1.203 . S
C122 O129 1.267 . S
O123 C122 1.203 . S
O124 C117 1.185 . S
O124 Zn120 2.086 . S
C125 O121 1.278 . S
C125 O126 1.211 . S
O126 C125 1.211 . S
C127 O119 1.284 . S
C127 O128 1.273 . S
O128 C127 1.273 . S
O129 Zn120 1.977 . S
O129 C122 1.267 . S
C130 O131 1.160 . S
C130 O137 1.185 . S
O131 C130 1.160 . S
O132 Zn133 1.899 . S
O132 C140 1.284 . S
Zn133 O132 1.899 . S
Zn133 O134 2.032 . S
Zn133 O137 2.086 . S
Zn133 O142 1.977 . S
O134 Zn133 2.032 . S
O134 C138 1.278 . S
C135 O136 1.203 . S
C135 O142 1.267 . S
O136 C135 1.203 . S
O137 C130 1.185 . S
O137 Zn133 2.086 . S
C138 O134 1.278 . S
C138 O139 1.211 . S
O139 C138 1.211 . S
C140 O132 1.284 . S
C140 O141 1.273 . S
O141 C140 1.273 . S
O142 Zn133 1.977 . S
O142 C135 1.267 . S
C143 O144 1.160 . S
C143 O150 1.185 . S
O144 C143 1.160 . S
O145 Zn146 1.899 . S
O145 C153 1.284 . S
Zn146 O145 1.899 . S
Zn146 O147 2.032 . S
Zn146 O150 2.086 . S
Zn146 O155 1.977 . S
O147 Zn146 2.032 . S
O147 C151 1.278 . S
C148 O149 1.203 . S
C148 O155 1.267 . S
O149 C148 1.203 . S
O150 C143 1.185 . S
O150 Zn146 2.086 . S
C151 O147 1.278 . S
C151 O152 1.211 . S
O152 C151 1.211 . S
C153 O145 1.284 . S
C153 O154 1.273 . S
O154 C153 1.273 . S
O155 Zn146 1.977 . S
O155 C148 1.267 . S
C156 O157 1.160 . S
C156 O163 1.185 . S
O157 C156 1.160 . S
O158 Zn159 1.899 . S
O158 C166 1.284 . S
Zn159 O158 1.899 . S
Zn159 O160 2.032 . S
Zn159 O163 2.086 . S
Zn159 O168 1.977 . S
O160 Zn159 2.032 . S
O160 C164 1.278 . S
C161 O162 1.203 . S
C161 O168 1.267 . S
O162 C161 1.203 . S
O163 C156 1.185 . S
O163 Zn159 2.086 . S
C164 O160 1.278 . S
C164 O165 1.211 . S
O165 C164 1.211 . S
C166 O158 1.284 . S
C166 O167 1.273 . S
O167 C166 1.273 . S
O168 Zn159 1.977 . S
O168 C161 1.267 . S
C169 O170 1.160 . S
C169 O176 1.185 . S
O170 C169 1.160 . S
O171 Zn172 1.899 . S
O171 C179 1.284 . S
Zn172 O171 1.899 . S
Zn172 O173 2.032 . S
Zn172 O176 2.086 . S
Zn172 O181 1.977 . S
O173 Zn172 2.032 . S
O173 C177 1.278 . S
C174 O175 1.203 . S
C174 O181 1.267 . S
O175 C174 1.203 . S
O176 C169 1.185 . S
O176 Zn172 2.086 . S
C177 O173 1.278 . S
C177 O178 1.211 . S
O178 C177 1.211 . S
C179 O171 1.284 . S
C179 O180 1.273 . S
O180 C179 1.273 . S
O181 Zn172 1.977 . S
O181 C174 1.267 . S
C182 O183 1.160 . S
C182 O189 1.185 . S
O183 C182 1.160 . S
O184 Zn185 1.899 . S
O184 C192 1.284 . S
Zn185 O184 1.899 . S
Zn185 O186 2.032 . S
Zn185 O189 2.086 . S
Zn185 O194 1.977 . S
O186 Zn185 2.032 . S
O186 C190 1.278 . S
C187 O188 1.203 . S
C187 O194 1.267 . S
O188 C187 1.203 . S
O189 C182 1.185 . S
O189 Zn185 2.086 . S
C190 O186 1.278 . S
C190 O191 1.211 . S
O191 C190 1.211 . S
C192 O184 1.284 . S
C192 O193 1.273 . S
O193 C192 1.273 . S
O194 Zn185 1.977 . S
O194 C187 1.267 . S
C195 O196 1.160 . S
C195 O202 1.185 . S
O196 C195 1.160 . S
O197 Zn198 1.899 . S
O197 C205 1.284 . S
Zn198 O197 1.899 . S
Zn198 O199 2.032 . S
Zn198 O202 2.086 . S
Zn198 O207 1.977 . S
O199 Zn198 2.032 . S
O199 C203 1.278 . S
C200 O201 1.203 . S
C200 O207 1.267 . S
O201 C200 1.203 . S
O202 C195 1.185 . S
O202 Zn198 2.086 . S
C203 O199 1.278 . S
C203 O204 1.211 . S
O204 C203 1.211 . S
C205 O197 1.284 . S
C205 O206 1.273 . S
O206 C205 1.273 . S
O207 Zn198 1.977 . S
O207 C200 1.267 . S
C208 C209 1.391 1_556 S
C208 C210 1.394 . S
C208 H224 0.931 . S
C209 C208 1.391 1_554 S
C209 C213 1.376 . S
C210 C208 1.394 . S
C210 C211 1.369 1_556 S
C210 C214 1.531 . S
C211 C210 1.369 1_554 S
C211 C212 1.410 . S
C211 C219 1.503 . S
C212 C211 1.410 . S
C212 C213 1.392 . S
C212 C215 1.511 . S
C213 C209 1.376 . S
C213 C212 1.392 . S
C213 H225 0.929 . S
C214 C210 1.531 . S
C214 H226 0.960 . S
C214 H227 0.962 . S
C214 H228 0.960 . S
C215 C212 1.511 . S
C215 H229 0.961 . S
C215 H230 0.961 . S
C215 H231 0.961 . S
C216 C217 1.370 . S
C216 C218 1.363 . S
C216 H232 0.931 . S
C217 C216 1.370 . S
C217 C221 1.408 1_556 S
C218 C216 1.363 . S
C218 C219 1.370 1_556 S
C218 C222 1.524 . S
C219 C211 1.503 . S
C219 C218 1.370 1_554 S
C219 C220 1.403 . S
C220 C219 1.403 . S
C220 C221 1.404 . S
C220 C223 1.539 . S
C221 C217 1.408 1_554 S
C221 C220 1.404 . S
C221 H233 0.930 . S
C222 C218 1.524 . S
C222 H234 0.956 . S
C222 H235 0.961 1_556 S
C222 H236 0.961 . S
C223 C220 1.539 . S
C223 H237 0.958 1_554 S
C223 H238 0.961 . S
C223 H239 0.960 . S
H224 C208 0.931 . S
H225 C213 0.929 . S
H226 C214 0.960 . S
H227 C214 0.962 . S
H228 C214 0.960 . S
H229 C215 0.961 . S
H230 C215 0.961 . S
H231 C215 0.961 . S
H232 C216 0.931 . S
H233 C221 0.930 . S
H234 C222 0.956 . S
H235 C222 0.961 1_554 S
H236 C222 0.961 . S
H237 C223 0.958 1_556 S
H238 C223 0.961 . S
H239 C223 0.960 . S
C240 C241 1.391 . S
C240 C242 1.394 . S
C240 H256 0.931 . S
C241 C240 1.391 . S
C241 C245 1.376 . S
C242 C240 1.394 . S
C242 C243 1.369 . S
C242 C246 1.531 . S
C243 C242 1.369 . S
C243 C244 1.410 . S
C243 C251 1.503 . S
C244 C243 1.410 . S
C244 C245 1.392 . S
C244 C247 1.511 . S
C245 C241 1.376 . S
C245 C244 1.392 . S
C245 H257 0.929 . S
C246 C242 1.531 . S
C246 H258 0.960 . S
C246 H259 0.962 1_554 S
C246 H260 0.960 . S
C247 C244 1.511 . S
C247 H261 0.961 1_554 S
C247 H262 0.961 1_554 S
C247 H263 0.961 . S
C248 C249 1.376 . S
C248 C250 1.363 . S
C248 H264 0.931 . S
C249 C248 1.376 . S
C249 C253 1.401 1_556 S
C250 C248 1.363 . S
C250 C251 1.370 1_556 S
C250 C254 1.524 . S
C251 C243 1.503 . S
C251 C250 1.370 1_554 S
C251 C252 1.403 . S
C252 C251 1.403 . S
C252 C253 1.404 . S
C252 C255 1.539 . S
C253 C249 1.401 1_554 S
C253 C252 1.404 . S
C253 H265 0.930 . S
C254 C250 1.524 . S
C254 H266 0.956 . S
C254 H267 0.961 . S
C254 H268 0.961 . S
C255 C252 1.539 . S
C255 H269 0.958 . S
C255 H270 0.961 . S
C255 H271 0.960 . S
H256 C240 0.931 . S
H257 C245 0.929 . S
H258 C246 0.960 . S
H259 C246 0.962 1_556 S
H260 C246 0.960 . S
H261 C247 0.961 1_556 S
H262 C247 0.961 1_556 S
H263 C247 0.961 . S
H264 C248 0.931 . S
H265 C253 0.930 . S
H266 C254 0.956 . S
H267 C254 0.961 . S
H268 C254 0.961 . S
H269 C255 0.958 . S
H270 C255 0.961 . S
H271 C255 0.960 . S
C272 C273 1.391 1_556 S
C272 C274 1.394 . S
C272 H288 0.931 . S
C273 C272 1.391 1_554 S
C273 C277 1.376 . S
C274 C272 1.394 . S
C274 C275 1.369 1_556 S
C274 C278 1.531 . S
C275 C274 1.369 1_554 S
C275 C276 1.410 . S
C275 C283 1.503 . S
C276 C275 1.410 . S
C276 C277 1.392 . S
C276 C279 1.511 . S
C277 C273 1.376 . S
C277 C276 1.392 . S
C277 H289 0.929 . S
C278 C274 1.531 . S
C278 H290 0.960 . S
C278 H291 0.962 . S
C278 H292 0.960 . S
C279 C276 1.511 . S
C279 H293 0.961 . S
C279 H294 0.961 . S
C279 H295 0.961 . S
C280 C281 1.380 . S
C280 C282 1.363 . S
C280 H296 0.931 . S
C281 C280 1.380 . S
C281 C285 1.397 1_556 S
C282 C280 1.363 . S
C282 C283 1.370 1_556 S
C282 C286 1.524 . S
C283 C275 1.503 . S
C283 C282 1.370 1_554 S
C283 C284 1.403 . S
C284 C283 1.403 . S
C284 C285 1.404 . S
C284 C287 1.539 . S
C285 C281 1.397 1_554 S
C285 C284 1.404 . S
C285 H297 0.930 . S
C286 C282 1.524 . S
C286 H298 0.956 . S
C286 H299 0.961 . S
C286 H300 0.961 . S
C287 C284 1.539 . S
C287 H301 0.958 . S
C287 H302 0.961 . S
C287 H303 0.960 . S
H288 C272 0.931 . S
H289 C277 0.929 . S
H290 C278 0.960 . S
H291 C278 0.962 . S
H292 C278 0.960 . S
H293 C279 0.961 . S
H294 C279 0.961 . S
H295 C279 0.961 . S
H296 C280 0.931 . S
H297 C285 0.930 . S
H298 C286 0.956 . S
H299 C286 0.961 . S
H300 C286 0.961 . S
H301 C287 0.958 . S
H302 C287 0.961 . S
H303 C287 0.960 . S
C304 C305 1.391 . S
C304 C306 1.394 . S
C304 H320 0.931 . S
C305 C304 1.391 . S
C305 C309 1.376 1_554 S
C306 C304 1.394 . S
C306 C307 1.369 . S
C306 C310 1.531 . S
C307 C306 1.369 . S
C307 C308 1.410 1_554 S
C307 C315 1.503 . S
C308 C307 1.410 1_556 S
C308 C309 1.392 . S
C308 C311 1.511 . S
C309 C305 1.376 1_556 S
C309 C308 1.392 . S
C309 H321 0.929 . S
C310 C306 1.531 . S
C310 H322 0.960 . S
C310 H323 0.962 . S
C310 H324 0.960 . S
C311 C308 1.511 . S
C311 H325 0.961 . S
C311 H326 0.961 . S
C311 H327 0.961 1_556 S
C312 C313 1.381 . S
C312 C314 1.363 . S
C312 H328 0.931 . S
C313 C312 1.381 . S
C313 C317 1.396 1_556 S
C314 C312 1.363 . S
C314 C315 1.370 1_556 S
C314 C318 1.524 . S
C315 C307 1.503 . S
C315 C314 1.370 1_554 S
C315 C316 1.403 . S
C316 C315 1.403 . S
C316 C317 1.404 . S
C316 C319 1.539 . S
C317 C313 1.396 1_554 S
C317 C316 1.404 . S
C317 H329 0.930 . S
C318 C314 1.524 . S
C318 H330 0.956 . S
C318 H331 0.961 . S
C318 H332 0.961 . S
C319 C316 1.539 . S
C319 H333 0.958 . S
C319 H334 0.961 . S
C319 H335 0.960 . S
H320 C304 0.931 . S
H321 C309 0.929 . S
H322 C310 0.960 . S
H323 C310 0.962 . S
H324 C310 0.960 . S
H325 C311 0.961 . S
H326 C311 0.961 . S
H327 C311 0.961 1_554 S
H328 C312 0.931 . S
H329 C317 0.930 . S
H330 C318 0.956 . S
H331 C318 0.961 . S
H332 C318 0.961 . S
H333 C319 0.958 . S
H334 C319 0.961 . S
H335 C319 0.960 . S
C336 C337 1.391 . S
C336 C338 1.394 . S
C336 H352 0.931 . S
C337 C336 1.391 . S
C337 C341 1.376 . S
C338 C336 1.394 . S
C338 C339 1.369 . S
C338 C342 1.531 . S
C339 C338 1.369 . S
C339 C340 1.410 . S
C339 C347 1.503 1_545 S
C340 C339 1.410 . S
C340 C341 1.392 . S
C340 C343 1.511 . S
C341 C337 1.376 . S
C341 C340 1.392 . S
C341 H353 0.929 . S
C342 C338 1.531 . S
C342 H354 0.960 1_545 S
C342 H355 0.962 . S
C342 H356 0.960 . S
C343 C340 1.511 . S
C343 H357 0.961 . S
C343 H358 0.961 1_545 S
C343 H359 0.961 . S
C344 C345 1.370 . S
C344 C346 1.363 . S
C344 H360 0.931 . S
C345 C344 1.370 . S
C345 C349 1.408 . S
C346 C344 1.363 . S
C346 C347 1.370 . S
C346 C350 1.524 . S
C347 C339 1.503 1_565 S
C347 C346 1.370 . S
C347 C348 1.403 . S
C348 C347 1.403 . S
C348 C349 1.404 . S
C348 C351 1.539 . S
C349 C345 1.408 . S
C349 C348 1.404 . S
C349 H361 0.930 . S
C350 C346 1.524 . S
C350 H362 0.952 1_565 S
C350 H363 0.961 1_565 S
C350 H364 0.961 . S
C351 C348 1.539 . S
C351 H365 0.958 . S
C351 H366 0.961 . S
C351 H367 0.960 . S
H352 C336 0.931 . S
H353 C341 0.929 . S
H354 C342 0.960 1_565 S
H355 C342 0.962 . S
H356 C342 0.960 . S
H357 C343 0.961 . S
H358 C343 0.961 1_565 S
H359 C343 0.961 . S
H360 C344 0.931 . S
H361 C349 0.930 . S
H362 C350 0.952 1_545 S
H363 C350 0.961 1_545 S
H364 C350 0.961 . S
H365 C351 0.958 . S
H366 C351 0.961 . S
H367 C351 0.960 . S
C368 C369 1.391 . S
C368 C370 1.394 . S
C368 H384 0.931 . S
C369 C368 1.391 . S
C369 C373 1.376 . S
C370 C368 1.394 . S
C370 C371 1.369 . S
C370 C374 1.531 . S
C371 C370 1.369 . S
C371 C372 1.410 . S
C371 C379 1.503 1_655 S
C372 C371 1.410 . S
C372 C373 1.392 . S
C372 C375 1.511 . S
C373 C369 1.376 . S
C373 C372 1.392 . S
C373 H385 0.929 . S
C374 C370 1.531 . S
C374 H386 0.960 1_655 S
C374 H387 0.962 . S
C374 H388 0.960 . S
C375 C372 1.511 . S
C375 H389 0.961 . S
C375 H390 0.961 1_655 S
C375 H391 0.961 . S
C376 C377 1.370 . S
C376 C378 1.363 . S
C376 H392 0.931 . S
C377 C376 1.370 . S
C377 C381 1.408 . S
C378 C376 1.363 . S
C378 C379 1.370 . S
C378 C382 1.524 . S
C379 C371 1.503 1_455 S
C379 C378 1.370 . S
C379 C380 1.403 . S
C380 C379 1.403 . S
C380 C381 1.404 . S
C380 C383 1.539 . S
C381 C377 1.408 . S
C381 C380 1.404 . S
C381 H393 0.930 . S
C382 C378 1.524 . S
C382 H394 0.981 . S
C382 H395 0.961 1_455 S
C382 H396 0.961 . S
C383 C380 1.539 . S
C383 H397 0.958 . S
C383 H398 0.961 . S
C383 H399 0.985 . S
H384 C368 0.931 . S
H385 C373 0.929 . S
H386 C374 0.960 1_455 S
H387 C374 0.962 . S
H388 C374 0.960 . S
H389 C375 0.961 . S
H390 C375 0.961 1_455 S
H391 C375 0.961 . S
H392 C376 0.931 . S
H393 C381 0.930 . S
H394 C382 0.981 . S
H395 C382 0.961 1_655 S
H396 C382 0.961 . S
H397 C383 0.958 . S
H398 C383 0.961 . S
H399 C383 0.985 . S
C400 C401 1.391 . S
C400 C402 1.394 . S
C400 H416 0.931 . S
C401 C400 1.391 . S
C401 C405 1.376 . S
C402 C400 1.394 . S
C402 C403 1.369 . S
C402 C406 1.531 . S
C403 C402 1.369 . S
C403 C404 1.410 . S
C403 C411 1.503 1_545 S
C404 C403 1.410 . S
C404 C405 1.392 . S
C404 C407 1.511 . S
C405 C401 1.376 . S
C405 C404 1.392 . S
C405 H417 0.929 . S
C406 C402 1.531 . S
C406 H418 0.960 1_545 S
C406 H419 0.962 . S
C406 H420 0.960 . S
C407 C404 1.511 . S
C407 H421 0.961 . S
C407 H422 0.961 1_545 S
C407 H423 0.961 . S
C408 C409 1.370 . S
C408 C410 1.363 . S
C408 H424 0.931 . S
C409 C408 1.370 . S
C409 C413 1.408 . S
C410 C408 1.363 . S
C410 C411 1.370 . S
C410 C414 1.524 . S
C411 C403 1.503 1_565 S
C411 C410 1.370 . S
C411 C412 1.403 . S
C412 C411 1.403 . S
C412 C413 1.404 . S
C412 C415 1.539 . S
C413 C409 1.408 . S
C413 C412 1.404 . S
C413 H425 0.930 . S
C414 C410 1.524 . S
C414 H426 0.961 . S
C414 H427 0.961 1_565 S
C414 H428 0.961 . S
C415 C412 1.539 . S
C415 H429 0.958 . S
C415 H430 0.961 . S
C415 H431 0.960 . S
H416 C400 0.931 . S
H417 C405 0.929 . S
H418 C406 0.960 1_565 S
H419 C406 0.962 . S
H420 C406 0.960 . S
H421 C407 0.961 . S
H422 C407 0.961 1_565 S
H423 C407 0.961 . S
H424 C408 0.931 . S
H425 C413 0.930 . S
H426 C414 0.961 . S
H427 C414 0.961 1_545 S
H428 C414 0.961 . S
H429 C415 0.958 . S
H430 C415 0.961 . S
H431 C415 0.960 . S
C432 C433 1.391 . S
C432 C434 1.394 . S
C432 H448 0.931 . S
C433 C432 1.391 . S
C433 C437 1.376 . S
C434 C432 1.394 . S
C434 C435 1.369 . S
C434 C438 1.531 . S
C435 C434 1.369 . S
C435 C436 1.410 . S
C435 C443 1.503 1_455 S
C436 C435 1.410 . S
C436 C437 1.392 . S
C436 C439 1.511 . S
C437 C433 1.376 . S
C437 C436 1.392 . S
C437 H449 0.929 . S
C438 C434 1.531 . S
C438 H450 0.960 1_455 S
C438 H451 0.962 . S
C438 H452 0.960 . S
C439 C436 1.511 . S
C439 H453 0.961 . S
C439 H454 0.961 1_455 S
C439 H455 0.961 . S
C440 C441 1.370 . S
C440 C442 1.363 . S
C440 H456 0.931 . S
C441 C440 1.370 . S
C441 C445 1.408 . S
C442 C440 1.363 . S
C442 C443 1.370 . S
C442 C446 1.524 . S
C443 C435 1.503 1_655 S
C443 C442 1.370 . S
C443 C444 1.403 . S
C444 C443 1.403 . S
C444 C445 1.404 . S
C444 C447 1.539 . S
C445 C441 1.408 . S
C445 C444 1.404 . S
C445 H457 0.930 . S
C446 C442 1.524 . S
C446 H458 0.963 . S
C446 H459 0.961 1_655 S
C446 H460 0.961 . S
C447 C444 1.539 . S
C447 H461 0.958 . S
C447 H462 0.961 . S
C447 H463 0.960 . S
H448 C432 0.931 . S
H449 C437 0.929 . S
H450 C438 0.960 1_655 S
H451 C438 0.962 . S
H452 C438 0.960 . S
H453 C439 0.961 . S
H454 C439 0.961 1_655 S
H455 C439 0.961 . S
H456 C440 0.931 . S
H457 C445 0.930 . S
H458 C446 0.963 . S
H459 C446 0.961 1_455 S
H460 C446 0.961 . S
H461 C447 0.958 . S
H462 C447 0.961 . S
H463 C447 0.960 . S
C464 C465 1.391 1_554 S
C464 C466 1.393 1_554 S
C464 H480 0.931 . S
C465 C464 1.391 1_556 S
C465 C469 1.376 . S
C466 C464 1.393 1_556 S
C466 C467 1.370 . S
C466 C470 1.530 1_556 S
C467 C466 1.370 . S
C467 C468 1.410 . S
C467 C475 1.503 . S
C468 C467 1.410 . S
C468 C469 1.392 . S
C468 C471 1.511 . S
C469 C465 1.376 . S
C469 C468 1.392 . S
C469 H481 0.929 . S
C470 C466 1.530 1_554 S
C470 H482 0.960 1_554 S
C470 H483 0.962 . S
C470 H484 0.960 1_554 S
C471 C468 1.511 . S
C471 H485 0.961 . S
C471 H486 0.961 . S
C471 H487 0.961 . S
C472 C473 1.370 1_554 S
C472 C474 1.363 . S
C472 H488 0.931 . S
C473 C472 1.370 1_556 S
C473 C477 1.408 . S
C474 C472 1.363 . S
C474 C475 1.370 1_554 S
C474 C478 1.524 . S
C475 C467 1.503 . S
C475 C474 1.370 1_556 S
C475 C476 1.403 . S
C476 C475 1.403 . S
C476 C477 1.404 . S
C476 C479 1.539 . S
C477 C473 1.408 . S
C477 C476 1.404 . S
C477 H489 0.930 . S
C478 C474 1.524 . S
C478 H490 0.956 . S
C478 H491 0.961 . S
C478 H492 0.961 . S
C479 C476 1.539 . S
C479 H493 0.958 . S
C479 H494 0.961 . S
C479 H495 0.960 . S
H480 C464 0.931 . S
H481 C469 0.929 . S
H482 C470 0.960 1_556 S
H483 C470 0.962 . S
H484 C470 0.960 1_556 S
H485 C471 0.961 . S
H486 C471 0.961 . S
H487 C471 0.961 . S
H488 C472 0.931 . S
H489 C477 0.930 . S
H490 C478 0.956 . S
H491 C478 0.961 . S
H492 C478 0.961 . S
H493 C479 0.958 . S
H494 C479 0.961 . S
H495 C479 0.960 . S
C496 C497 1.391 . S
C496 C498 1.394 . S
C496 H512 0.931 . S
C497 C496 1.391 . S
C497 C501 1.376 . S
C498 C496 1.394 . S
C498 C499 1.369 . S
C498 C502 1.531 . S
C499 C498 1.369 . S
C499 C500 1.410 . S
C499 C507 1.503 . S
C500 C499 1.410 . S
C500 C501 1.392 . S
C500 C503 1.511 . S
C501 C497 1.376 . S
C501 C500 1.392 . S
C501 H513 0.929 . S
C502 C498 1.531 . S
C502 H514 0.960 . S
C502 H515 0.962 1_556 S
C502 H516 0.960 . S
C503 C500 1.511 . S
C503 H517 0.961 . S
C503 H518 0.961 . S
C503 H519 0.961 . S
C504 C505 1.370 . S
C504 C506 1.363 . S
C504 H520 0.931 . S
C505 C504 1.370 . S
C505 C509 1.408 1_554 S
C506 C504 1.363 . S
C506 C507 1.370 1_554 S
C506 C510 1.524 . S
C507 C499 1.503 . S
C507 C506 1.370 1_556 S
C507 C508 1.403 . S
C508 C507 1.403 . S
C508 C509 1.404 . S
C508 C511 1.539 . S
C509 C505 1.408 1_556 S
C509 C508 1.404 . S
C509 H521 0.930 . S
C510 C506 1.524 . S
C510 H522 0.956 . S
C510 H523 0.961 . S
C510 H524 0.961 . S
C511 C508 1.539 . S
C511 H525 0.958 . S
C511 H526 0.961 . S
C511 H527 0.960 . S
H512 C496 0.931 . S
H513 C501 0.929 . S
H514 C502 0.960 . S
H515 C502 0.962 1_554 S
H516 C502 0.960 . S
H517 C503 0.961 . S
H518 C503 0.961 . S
H519 C503 0.961 . S
H520 C504 0.931 . S
H521 C509 0.930 . S
H522 C510 0.956 . S
H523 C510 0.961 . S
H524 C510 0.961 . S
H525 C511 0.958 . S
H526 C511 0.961 . S
H527 C511 0.960 . S
C528 C529 1.393 . S
C528 C530 1.394 . S
C528 H544 0.931 . S
C529 C528 1.393 . S
C529 C533 1.373 1_554 S
C530 C528 1.394 . S
C530 C531 1.369 1_554 S
C530 C534 1.531 . S
C531 C530 1.369 1_556 S
C531 C532 1.410 . S
C531 C539 1.503 . S
C532 C531 1.410 . S
C532 C533 1.392 . S
C532 C535 1.511 . S
C533 C529 1.373 1_556 S
C533 C532 1.392 . S
C533 H545 0.929 . S
C534 C530 1.531 . S
C534 H546 0.960 . S
C534 H547 0.962 . S
C534 H548 0.960 . S
C535 C532 1.511 . S
C535 H549 0.961 . S
C535 H550 0.961 . S
C535 H551 0.961 . S
C536 C537 1.370 1_554 S
C536 C538 1.363 . S
C536 H552 0.931 . S
C537 C536 1.370 1_556 S
C537 C541 1.408 . S
C538 C536 1.363 . S
C538 C539 1.370 1_554 S
C538 C542 1.524 . S
C539 C531 1.503 . S
C539 C538 1.370 1_556 S
C539 C540 1.403 . S
C540 C539 1.403 . S
C540 C541 1.404 . S
C540 C543 1.539 . S
C541 C537 1.408 . S
C541 C540 1.404 . S
C541 H553 0.930 . S
C542 C538 1.524 . S
C542 H554 0.956 . S
C542 H555 0.961 . S
C542 H556 0.961 . S
C543 C540 1.539 . S
C543 H557 0.958 . S
C543 H558 0.961 . S
C543 H559 0.960 . S
H544 C528 0.931 . S
H545 C533 0.929 . S
H546 C534 0.960 . S
H547 C534 0.962 . S
H548 C534 0.960 . S
H549 C535 0.961 . S
H550 C535 0.961 . S
H551 C535 0.961 . S
H552 C536 0.931 . S
H553 C541 0.930 . S
H554 C542 0.956 . S
H555 C542 0.961 . S
H556 C542 0.961 . S
H557 C543 0.958 . S
H558 C543 0.961 . S
H559 C543 0.960 . S
C560 C561 1.391 . S
C560 C562 1.394 . S
C560 H576 0.931 . S
C561 C560 1.391 . S
C561 C565 1.376 . S
C562 C560 1.394 . S
C562 C563 1.369 . S
C562 C566 1.531 . S
C563 C562 1.369 . S
C563 C564 1.410 . S
C563 C571 1.503 . S
C564 C563 1.410 . S
C564 C565 1.392 . S
C564 C567 1.511 1_556 S
C565 C561 1.376 . S
C565 C564 1.392 . S
C565 H577 0.929 1_556 S
C566 C562 1.531 . S
C566 H578 0.960 . S
C566 H579 0.962 1_556 S
C566 H580 0.960 . S
C567 C564 1.511 1_554 S
C567 H581 0.965 . S
C567 H582 0.965 . S
C567 H583 0.953 1_554 S
C568 C569 1.370 . S
C568 C570 1.363 . S
C568 H584 0.931 . S
C569 C568 1.370 . S
C569 C573 1.408 1_554 S
C570 C568 1.363 . S
C570 C571 1.370 1_554 S
C570 C574 1.524 . S
C571 C563 1.503 . S
C571 C570 1.370 1_556 S
C571 C572 1.403 . S
C572 C571 1.403 . S
C572 C573 1.404 . S
C572 C575 1.539 . S
C573 C569 1.408 1_556 S
C573 C572 1.404 . S
C573 H585 0.930 . S
C574 C570 1.524 . S
C574 H586 0.956 . S
C574 H587 0.961 . S
C574 H588 0.961 . S
C575 C572 1.539 . S
C575 H589 0.958 . S
C575 H590 0.961 . S
C575 H591 0.960 . S
H576 C560 0.931 . S
H577 C565 0.929 1_554 S
H578 C566 0.960 . S
H579 C566 0.962 1_554 S
H580 C566 0.960 . S
H581 C567 0.965 . S
H582 C567 0.965 . S
H583 C567 0.953 1_556 S
H584 C568 0.931 . S
H585 C573 0.930 . S
H586 C574 0.956 . S
H587 C574 0.961 . S
H588 C574 0.961 . S
H589 C575 0.958 . S
H590 C575 0.961 . S
H591 C575 0.960 . S
C592 C593 1.391 . S
C592 C594 1.394 . S
C592 H608 0.931 . S
C593 C592 1.391 . S
C593 C597 1.376 . S
C594 C592 1.394 . S
C594 C595 1.369 . S
C594 C598 1.531 . S
C595 C594 1.369 . S
C595 C596 1.410 . S
C595 C603 1.503 . S
C596 C595 1.410 . S
C596 C597 1.392 . S
C596 C599 1.511 . S
C597 C593 1.376 . S
C597 C596 1.392 . S
C597 H609 0.929 . S
C598 C594 1.531 . S
C598 H610 0.960 . S
C598 H611 0.962 . S
C598 H612 0.960 . S
C599 C596 1.511 . S
C599 H613 0.961 . S
C599 H614 0.961 . S
C599 H615 0.961 . S
C600 C601 1.370 . S
C600 C602 1.363 . S
C600 H616 0.931 . S
C601 C600 1.370 . S
C601 C605 1.408 . S
C602 C600 1.363 . S
C602 C603 1.370 . S
C602 C606 1.524 . S
C603 C595 1.503 . S
C603 C602 1.370 . S
C603 C604 1.403 . S
C604 C603 1.403 . S
C604 C605 1.404 . S
C604 C607 1.539 . S
C605 C601 1.408 . S
C605 C604 1.404 . S
C605 H617 0.930 . S
C606 C602 1.524 . S
C606 H618 0.956 . S
C606 H619 0.961 . S
C606 H620 0.961 . S
C607 C604 1.539 . S
C607 H621 0.958 . S
C607 H622 0.961 . S
C607 H623 0.960 . S
H608 C592 0.931 . S
H609 C597 0.929 . S
H610 C598 0.960 . S
H611 C598 0.962 . S
H612 C598 0.960 . S
H613 C599 0.961 . S
H614 C599 0.961 . S
H615 C599 0.961 . S
H616 C600 0.931 . S
H617 C605 0.930 . S
H618 C606 0.956 . S
H619 C606 0.961 . S
H620 C606 0.961 . S
H621 C607 0.958 . S
H622 C607 0.961 . S
H623 C607 0.960 . S
C624 C625 1.391 . S
C624 C626 1.394 . S
C624 H640 0.931 . S
C625 C624 1.391 . S
C625 C629 1.376 . S
C626 C624 1.394 . S
C626 C627 1.369 . S
C626 C630 1.531 . S
C627 C626 1.369 . S
C627 C628 1.410 . S
C627 C635 1.503 . S
C628 C627 1.410 . S
C628 C629 1.392 . S
C628 C631 1.511 . S
C629 C625 1.376 . S
C629 C628 1.392 . S
C629 H641 0.929 . S
C630 C626 1.531 . S
C630 H642 0.960 . S
C630 H643 0.962 . S
C630 H644 0.960 . S
C631 C628 1.511 . S
C631 H645 0.961 . S
C631 H646 0.961 . S
C631 H647 0.961 . S
C632 C633 1.370 . S
C632 C634 1.363 . S
C632 H648 0.931 . S
C633 C632 1.370 . S
C633 C637 1.408 . S
C634 C632 1.363 . S
C634 C635 1.370 . S
C634 C638 1.524 . S
C635 C627 1.503 . S
C635 C634 1.370 . S
C635 C636 1.403 . S
C636 C635 1.403 . S
C636 C637 1.404 . S
C636 C639 1.539 . S
C637 C633 1.408 . S
C637 C636 1.404 . S
C637 H649 0.930 . S
C638 C634 1.524 . S
C638 H650 0.956 . S
C638 H651 0.961 . S
C638 H652 0.961 . S
C639 C636 1.539 . S
C639 H653 0.958 . S
C639 H654 0.961 . S
C639 H655 0.960 . S
H640 C624 0.931 . S
H641 C629 0.929 . S
H642 C630 0.960 . S
H643 C630 0.962 . S
H644 C630 0.960 . S
H645 C631 0.961 . S
H646 C631 0.961 . S
H647 C631 0.961 . S
H648 C632 0.931 . S
H649 C637 0.930 . S
H650 C638 0.956 . S
H651 C638 0.961 . S
H652 C638 0.961 . S
H653 C639 0.958 . S
H654 C639 0.961 . S
H655 C639 0.960 . S
C656 C657 1.391 . S
C656 C658 1.394 . S
C656 H672 0.931 . S
C657 C656 1.391 . S
C657 C661 1.376 . S
C658 C656 1.394 . S
C658 C659 1.369 . S
C658 C662 1.531 . S
C659 C658 1.369 . S
C659 C660 1.410 . S
C659 C667 1.503 . S
C660 C659 1.410 . S
C660 C661 1.392 . S
C660 C663 1.511 . S
C661 C657 1.376 . S
C661 C660 1.392 . S
C661 H673 0.929 . S
C662 C658 1.531 . S
C662 H674 0.960 . S
C662 H675 0.962 . S
C662 H676 0.960 . S
C663 C660 1.511 . S
C663 H677 0.961 . S
C663 H678 0.961 . S
C663 H679 0.961 . S
C664 C665 1.370 . S
C664 C666 1.363 . S
C664 H680 0.931 . S
C665 C664 1.370 . S
C665 C669 1.408 . S
C666 C664 1.363 . S
C666 C667 1.370 . S
C666 C670 1.524 . S
C667 C659 1.503 . S
C667 C666 1.370 . S
C667 C668 1.403 . S
C668 C667 1.403 . S
C668 C669 1.404 . S
C668 C671 1.539 . S
C669 C665 1.408 . S
C669 C668 1.404 . S
C669 H681 0.930 . S
C670 C666 1.524 . S
C670 H682 0.956 . S
C670 H683 0.961 . S
C670 H684 0.961 . S
C671 C668 1.539 . S
C671 H685 0.958 . S
C671 H686 0.961 . S
C671 H687 0.960 . S
H672 C656 0.931 . S
H673 C661 0.929 . S
H674 C662 0.960 . S
H675 C662 0.962 . S
H676 C662 0.960 . S
H677 C663 0.961 . S
H678 C663 0.961 . S
H679 C663 0.961 . S
H680 C664 0.931 . S
H681 C669 0.930 . S
H682 C670 0.956 . S
H683 C670 0.961 . S
H684 C670 0.961 . S
H685 C671 0.958 . S
H686 C671 0.961 . S
H687 C671 0.960 . S
C688 C689 1.391 . S
C688 C690 1.394 . S
C688 H704 0.931 . S
C689 C688 1.391 . S
C689 C693 1.376 . S
C690 C688 1.394 . S
C690 C691 1.369 . S
C690 C694 1.531 . S
C691 C690 1.369 . S
C691 C692 1.410 . S
C691 C699 1.503 . S
C692 C691 1.410 . S
C692 C693 1.392 . S
C692 C695 1.511 . S
C693 C689 1.376 . S
C693 C692 1.392 . S
C693 H705 0.929 . S
C694 C690 1.531 . S
C694 H706 0.960 . S
C694 H707 0.962 . S
C694 H708 0.960 . S
C695 C692 1.511 . S
C695 H709 0.961 . S
C695 H710 0.961 . S
C695 H711 0.961 . S
C696 C697 1.370 . S
C696 C698 1.363 . S
C696 H712 0.931 . S
C697 C696 1.370 . S
C697 C701 1.408 . S
C698 C696 1.363 . S
C698 C699 1.370 . S
C698 C702 1.524 . S
C699 C691 1.503 . S
C699 C698 1.370 . S
C699 C700 1.403 . S
C700 C699 1.403 . S
C700 C701 1.404 . S
C700 C703 1.539 . S
C701 C697 1.408 . S
C701 C700 1.404 . S
C701 H713 0.930 . S
C702 C698 1.524 . S
C702 H714 0.956 . S
C702 H715 0.961 . S
C702 H716 0.961 . S
C703 C700 1.539 . S
C703 H717 0.958 . S
C703 H718 0.961 . S
C703 H719 0.960 . S
H704 C688 0.931 . S
H705 C693 0.929 . S
H706 C694 0.960 . S
H707 C694 0.962 . S
H708 C694 0.960 . S
H709 C695 0.961 . S
H710 C695 0.961 . S
H711 C695 0.961 . S
H712 C696 0.931 . S
H713 C701 0.930 . S
H714 C702 0.956 . S
H715 C702 0.961 . S
H716 C702 0.961 . S
H717 C703 0.958 . S
H718 C703 0.961 . S
H719 C703 0.960 . S
C720 C721 1.391 . S
C720 C722 1.394 . S
C720 H736 0.931 . S
C721 C720 1.391 . S
C721 C725 1.376 . S
C722 C720 1.394 . S
C722 C723 1.369 . S
C722 C726 1.531 . S
C723 C722 1.369 . S
C723 C724 1.410 . S
C723 C731 1.503 . S
C724 C723 1.410 . S
C724 C725 1.392 . S
C724 C727 1.511 . S
C725 C721 1.376 . S
C725 C724 1.392 . S
C725 H737 0.929 . S
C726 C722 1.531 . S
C726 H738 0.960 . S
C726 H739 0.962 . S
C726 H740 0.960 . S
C727 C724 1.511 . S
C727 H741 0.961 . S
C727 H742 0.961 . S
C727 H743 0.961 . S
C728 C729 1.370 . S
C728 C730 1.363 . S
C728 H744 0.931 . S
C729 C728 1.370 . S
C729 C733 1.408 . S
C730 C728 1.363 . S
C730 C731 1.370 . S
C730 C734 1.524 . S
C731 C723 1.503 . S
C731 C730 1.370 . S
C731 C732 1.403 . S
C732 C731 1.403 . S
C732 C733 1.404 . S
C732 C735 1.539 . S
C733 C729 1.408 . S
C733 C732 1.404 . S
C733 H745 0.930 . S
C734 C730 1.524 . S
C734 H746 0.956 . S
C734 H747 0.961 . S
C734 H748 0.961 . S
C735 C732 1.539 . S
C735 H749 0.958 . S
C735 H750 0.961 . S
C735 H751 0.960 . S
H736 C720 0.931 . S
H737 C725 0.929 . S
H738 C726 0.960 . S
H739 C726 0.962 . S
H740 C726 0.960 . S
H741 C727 0.961 . S
H742 C727 0.961 . S
H743 C727 0.961 . S
H744 C728 0.931 . S
H745 C733 0.930 . S
H746 C734 0.956 . S
H747 C734 0.961 . S
H748 C734 0.961 . S
H749 C735 0.958 . S
H750 C735 0.961 . S
H751 C735 0.960 . S
C752 C753 1.391 . S
C752 C754 1.394 . S
C752 H768 0.931 . S
C753 C752 1.391 . S
C753 C757 1.376 . S
C754 C752 1.394 . S
C754 C755 1.369 . S
C754 C758 1.531 . S
C755 C754 1.369 . S
C755 C756 1.410 . S
C755 C763 1.503 . S
C756 C755 1.410 . S
C756 C757 1.392 . S
C756 C759 1.511 . S
C757 C753 1.376 . S
C757 C756 1.392 . S
C757 H769 0.929 . S
C758 C754 1.531 . S
C758 H770 0.960 . S
C758 H771 0.962 . S
C758 H772 0.960 . S
C759 C756 1.511 . S
C759 H773 0.961 . S
C759 H774 0.961 . S
C759 H775 0.961 . S
C760 C761 1.370 . S
C760 C762 1.363 . S
C760 H776 0.931 . S
C761 C760 1.370 . S
C761 C765 1.408 . S
C762 C760 1.363 . S
C762 C763 1.370 . S
C762 C766 1.524 . S
C763 C755 1.503 . S
C763 C762 1.370 . S
C763 C764 1.403 . S
C764 C763 1.403 . S
C764 C765 1.404 . S
C764 C767 1.539 . S
C765 C761 1.408 . S
C765 C764 1.404 . S
C765 H777 0.930 . S
C766 C762 1.524 . S
C766 H778 0.956 . S
C766 H779 0.961 . S
C766 H780 0.961 . S
C767 C764 1.539 . S
C767 H781 0.958 . S
C767 H782 0.961 . S
C767 H783 0.960 . S
H768 C752 0.931 . S
H769 C757 0.929 . S
H770 C758 0.960 . S
H771 C758 0.962 . S
H772 C758 0.960 . S
H773 C759 0.961 . S
H774 C759 0.961 . S
H775 C759 0.961 . S
H776 C760 0.931 . S
H777 C765 0.930 . S
H778 C766 0.956 . S
H779 C766 0.961 . S
H780 C766 0.961 . S
H781 C767 0.958 . S
H782 C767 0.961 . S
H783 C767 0.960 . S
C784 C785 1.391 . S
C784 C786 1.394 . S
C784 H800 0.931 . S
C785 C784 1.391 . S
C785 C789 1.376 . S
C786 C784 1.394 . S
C786 C787 1.369 . S
C786 C790 1.531 . S
C787 C786 1.369 . S
C787 C788 1.410 . S
C787 C795 1.503 . S
C788 C787 1.410 . S
C788 C789 1.392 . S
C788 C791 1.511 . S
C789 C785 1.376 . S
C789 C788 1.392 . S
C789 H801 0.929 . S
C790 C786 1.531 . S
C790 H802 0.960 . S
C790 H803 0.962 . S
C790 H804 0.960 . S
C791 C788 1.511 . S
C791 H805 0.961 . S
C791 H806 0.961 . S
C791 H807 0.961 . S
C792 C793 1.370 . S
C792 C794 1.363 . S
C792 H808 0.931 . S
C793 C792 1.370 . S
C793 C797 1.408 . S
C794 C792 1.363 . S
C794 C795 1.370 . S
C794 C798 1.524 . S
C795 C787 1.503 . S
C795 C794 1.370 . S
C795 C796 1.403 . S
C796 C795 1.403 . S
C796 C797 1.404 . S
C796 C799 1.539 . S
C797 C793 1.408 . S
C797 C796 1.404 . S
C797 H809 0.930 . S
C798 C794 1.524 . S
C798 H810 0.956 . S
C798 H811 0.961 . S
C798 H812 0.961 . S
C799 C796 1.539 . S
C799 H813 0.958 . S
C799 H814 0.961 . S
C799 H815 0.960 . S
H800 C784 0.931 . S
H801 C789 0.929 . S
H802 C790 0.960 . S
H803 C790 0.962 . S
H804 C790 0.960 . S
H805 C791 0.961 . S
H806 C791 0.961 . S
H807 C791 0.961 . S
H808 C792 0.931 . S
H809 C797 0.930 . S
H810 C798 0.956 . S
H811 C798 0.961 . S
H812 C798 0.961 . S
H813 C799 0.958 . S
H814 C799 0.961 . S
H815 C799 0.960 . S
C816 C817 1.391 . S
C816 C818 1.394 . S
C816 H832 0.931 . S
C817 C816 1.391 . S
C817 C821 1.376 . S
C818 C816 1.394 . S
C818 C819 1.369 . S
C818 C822 1.531 . S
C819 C818 1.369 . S
C819 C820 1.410 . S
C819 C827 1.503 . S
C820 C819 1.410 . S
C820 C821 1.392 . S
C820 C823 1.511 . S
C821 C817 1.376 . S
C821 C820 1.392 . S
C821 H833 0.929 . S
C822 C818 1.531 . S
C822 H834 0.960 . S
C822 H835 0.962 . S
C822 H836 0.960 . S
C823 C820 1.511 . S
C823 H837 0.961 . S
C823 H838 0.961 . S
C823 H839 0.961 . S
C824 C825 1.370 . S
C824 C826 1.363 . S
C824 H840 0.931 . S
C825 C824 1.370 . S
C825 C829 1.408 . S
C826 C824 1.363 . S
C826 C827 1.370 . S
C826 C830 1.524 . S
C827 C819 1.503 . S
C827 C826 1.370 . S
C827 C828 1.403 . S
C828 C827 1.403 . S
C828 C829 1.404 . S
C828 C831 1.539 . S
C829 C825 1.408 . S
C829 C828 1.404 . S
C829 H841 0.930 . S
C830 C826 1.524 . S
C830 H842 0.956 . S
C830 H843 0.961 . S
C830 H844 0.961 . S
C831 C828 1.539 . S
C831 H845 0.958 . S
C831 H846 0.961 . S
C831 H847 0.960 . S
H832 C816 0.931 . S
H833 C821 0.929 . S
H834 C822 0.960 . S
H835 C822 0.962 . S
H836 C822 0.960 . S
H837 C823 0.961 . S
H838 C823 0.961 . S
H839 C823 0.961 . S
H840 C824 0.931 . S
H841 C829 0.930 . S
H842 C830 0.956 . S
H843 C830 0.961 . S
H844 C830 0.961 . S
H845 C831 0.958 . S
H846 C831 0.961 . S
H847 C831 0.960 . S
C848 C849 1.391 . S
C848 C850 1.394 . S
C848 H864 0.931 . S
C849 C848 1.391 . S
C849 C853 1.376 . S
C850 C848 1.394 . S
C850 C851 1.369 . S
C850 C854 1.531 . S
C851 C850 1.369 . S
C851 C852 1.410 . S
C851 C859 1.503 . S
C852 C851 1.410 . S
C852 C853 1.392 . S
C852 C855 1.511 . S
C853 C849 1.376 . S
C853 C852 1.392 . S
C853 H865 0.929 . S
C854 C850 1.531 . S
C854 H866 0.960 . S
C854 H867 0.962 . S
C854 H868 0.960 . S
C855 C852 1.511 . S
C855 H869 0.961 . S
C855 H870 0.961 . S
C855 H871 0.961 . S
C856 C857 1.370 . S
C856 C858 1.363 . S
C856 H872 0.931 . S
C857 C856 1.370 . S
C857 C861 1.408 . S
C858 C856 1.363 . S
C858 C859 1.370 . S
C858 C862 1.524 . S
C859 C851 1.503 . S
C859 C858 1.370 . S
C859 C860 1.403 . S
C860 C859 1.403 . S
C860 C861 1.404 . S
C860 C863 1.539 . S
C861 C857 1.408 . S
C861 C860 1.404 . S
C861 H873 0.930 . S
C862 C858 1.524 . S
C862 H874 0.956 . S
C862 H875 0.961 . S
C862 H876 0.961 . S
C863 C860 1.539 . S
C863 H877 0.958 . S
C863 H878 0.961 . S
C863 H879 0.960 . S
H864 C848 0.931 . S
H865 C853 0.929 . S
H866 C854 0.960 . S
H867 C854 0.962 . S
H868 C854 0.960 . S
H869 C855 0.961 . S
H870 C855 0.961 . S
H871 C855 0.961 . S
H872 C856 0.931 . S
H873 C861 0.930 . S
H874 C862 0.956 . S
H875 C862 0.961 . S
H876 C862 0.961 . S
H877 C863 0.958 . S
H878 C863 0.961 . S
H879 C863 0.960 . S
C880 C881 1.391 . S
C880 C882 1.394 . S
C880 H896 0.931 . S
C881 C880 1.391 . S
C881 C885 1.376 . S
C882 C880 1.394 . S
C882 C883 1.369 . S
C882 C886 1.531 . S
C883 C882 1.369 . S
C883 C884 1.410 . S
C883 C891 1.503 . S
C884 C883 1.410 . S
C884 C885 1.392 . S
C884 C887 1.511 . S
C885 C881 1.376 . S
C885 C884 1.392 . S
C885 H897 0.929 . S
C886 C882 1.531 . S
C886 H898 0.960 . S
C886 H899 0.962 . S
C886 H900 0.960 . S
C887 C884 1.511 . S
C887 H901 0.961 . S
C887 H902 0.961 . S
C887 H903 0.961 . S
C888 C889 1.370 . S
C888 C890 1.363 . S
C888 H904 0.931 . S
C889 C888 1.370 . S
C889 C893 1.408 . S
C890 C888 1.363 . S
C890 C891 1.370 . S
C890 C894 1.524 . S
C891 C883 1.503 . S
C891 C890 1.370 . S
C891 C892 1.403 . S
C892 C891 1.403 . S
C892 C893 1.404 . S
C892 C895 1.539 . S
C893 C889 1.408 . S
C893 C892 1.404 . S
C893 H905 0.930 . S
C894 C890 1.524 . S
C894 H906 0.956 . S
C894 H907 0.961 . S
C894 H908 0.961 . S
C895 C892 1.539 . S
C895 H909 0.958 . S
C895 H910 0.961 . S
C895 H911 0.960 . S
H896 C880 0.931 . S
H897 C885 0.929 . S
H898 C886 0.960 . S
H899 C886 0.962 . S
H900 C886 0.960 . S
H901 C887 0.961 . S
H902 C887 0.961 . S
H903 C887 0.961 . S
H904 C888 0.931 . S
H905 C893 0.930 . S
H906 C894 0.956 . S
H907 C894 0.961 . S
H908 C894 0.961 . S
H909 C895 0.958 . S
H910 C895 0.961 . S
H911 C895 0.960 . S
C912 C913 1.391 . S
C912 C914 1.394 . S
C912 H928 0.931 . S
C913 C912 1.391 . S
C913 C917 1.376 . S
C914 C912 1.394 . S
C914 C915 1.369 . S
C914 C918 1.531 . S
C915 C914 1.369 . S
C915 C916 1.410 . S
C915 C923 1.503 . S
C916 C915 1.410 . S
C916 C917 1.392 . S
C916 C919 1.511 . S
C917 C913 1.376 . S
C917 C916 1.392 . S
C917 H929 0.929 . S
C918 C914 1.531 . S
C918 H930 0.960 . S
C918 H931 0.962 . S
C918 H932 0.960 . S
C919 C916 1.511 . S
C919 H933 0.961 . S
C919 H934 0.961 . S
C919 H935 0.961 . S
C920 C921 1.370 . S
C920 C922 1.363 . S
C920 H936 0.931 . S
C921 C920 1.370 . S
C921 C925 1.408 . S
C922 C920 1.363 . S
C922 C923 1.370 . S
C922 C926 1.524 . S
C923 C915 1.503 . S
C923 C922 1.370 . S
C923 C924 1.403 . S
C924 C923 1.403 . S
C924 C925 1.404 . S
C924 C927 1.539 . S
C925 C921 1.408 . S
C925 C924 1.404 . S
C925 H937 0.930 . S
C926 C922 1.524 . S
C926 H938 0.956 . S
C926 H939 0.961 . S
C926 H940 0.961 . S
C927 C924 1.539 . S
C927 H941 0.958 . S
C927 H942 0.961 . S
C927 H943 0.960 . S
H928 C912 0.931 . S
H929 C917 0.929 . S
H930 C918 0.960 . S
H931 C918 0.962 . S
H932 C918 0.960 . S
H933 C919 0.961 . S
H934 C919 0.961 . S
H935 C919 0.961 . S
H936 C920 0.931 . S
H937 C925 0.930 . S
H938 C926 0.956 . S
H939 C926 0.961 . S
H940 C926 0.961 . S
H941 C927 0.958 . S
H942 C927 0.961 . S
H943 C927 0.960 . S
C944 C945 1.391 . S
C944 C946 1.394 . S
C944 H960 0.931 . S
C945 C944 1.391 . S
C945 C949 1.376 . S
C946 C944 1.394 . S
C946 C947 1.369 . S
C946 C950 1.531 . S
C947 C946 1.369 . S
C947 C948 1.410 . S
C947 C955 1.503 . S
C948 C947 1.410 . S
C948 C949 1.392 . S
C948 C951 1.511 . S
C949 C945 1.376 . S
C949 C948 1.392 . S
C949 H961 0.929 . S
C950 C946 1.531 . S
C950 H962 0.960 . S
C950 H963 0.962 . S
C950 H964 0.960 . S
C951 C948 1.511 . S
C951 H965 0.961 . S
C951 H966 0.961 . S
C951 H967 0.961 . S
C952 C953 1.370 . S
C952 C954 1.363 . S
C952 H968 0.931 . S
C953 C952 1.370 . S
C953 C957 1.408 . S
C954 C952 1.363 . S
C954 C955 1.370 . S
C954 C958 1.524 . S
C955 C947 1.503 . S
C955 C954 1.370 . S
C955 C956 1.403 . S
C956 C955 1.403 . S
C956 C957 1.404 . S
C956 C959 1.539 . S
C957 C953 1.408 . S
C957 C956 1.404 . S
C957 H969 0.930 . S
C958 C954 1.524 . S
C958 H970 0.956 . S
C958 H971 0.961 . S
C958 H972 0.961 . S
C959 C956 1.539 . S
C959 H973 0.958 . S
C959 H974 0.961 . S
C959 H975 0.960 . S
H960 C944 0.931 . S
H961 C949 0.929 . S
H962 C950 0.960 . S
H963 C950 0.962 . S
H964 C950 0.960 . S
H965 C951 0.961 . S
H966 C951 0.961 . S
H967 C951 0.961 . S
H968 C952 0.931 . S
H969 C957 0.930 . S
H970 C958 0.956 . S
H971 C958 0.961 . S
H972 C958 0.961 . S
H973 C959 0.958 . S
H974 C959 0.961 . S
H975 C959 0.960 . S
C976 C977 1.391 . S
C976 C978 1.394 . S
C976 H992 0.931 . S
C977 C976 1.391 . S
C977 C981 1.376 . S
C978 C976 1.394 . S
C978 C979 1.369 . S
C978 C982 1.531 . S
C979 C978 1.369 . S
C979 C980 1.410 . S
C979 C987 1.503 . S
C980 C979 1.410 . S
C980 C981 1.392 . S
C980 C983 1.511 . S
C981 C977 1.376 . S
C981 C980 1.392 . S
C981 H993 0.929 . S
C982 C978 1.531 . S
C982 H994 0.960 . S
C982 H995 0.962 . S
C982 H996 0.960 . S
C983 C980 1.511 . S
C983 H997 0.961 . S
C983 H998 0.961 . S
C983 H999 0.961 . S
C984 C985 1.370 . S
C984 C986 1.363 . S
C984 H1000 0.931 . S
C985 C984 1.370 . S
C985 C989 1.408 . S
C986 C984 1.363 . S
C986 C987 1.370 . S
C986 C990 1.524 . S
C987 C979 1.503 . S
C987 C986 1.370 . S
C987 C988 1.403 . S
C988 C987 1.403 . S
C988 C989 1.404 . S
C988 C991 1.539 . S
C989 C985 1.408 . S
C989 C988 1.404 . S
C989 H1001 0.930 . S
C990 C986 1.524 . S
C990 H1002 0.956 . S
C990 H1003 0.961 . S
C990 H1004 0.961 . S
C991 C988 1.539 . S
C991 H1005 0.958 . S
C991 H1006 0.961 . S
C991 H1007 0.960 . S
H992 C976 0.931 . S
H993 C981 0.929 . S
H994 C982 0.960 . S
H995 C982 0.962 . S
H996 C982 0.960 . S
H997 C983 0.961 . S
H998 C983 0.961 . S
H999 C983 0.961 . S
H1000 C984 0.931 . S
H1001 C989 0.930 . S
H1002 C990 0.956 . S
H1003 C990 0.961 . S
H1004 C990 0.961 . S
H1005 C991 0.958 . S
H1006 C991 0.961 . S
H1007 C991 0.960 . S
C1008 C1009 1.391 . S
C1008 C1010 1.394 . S
C1008 H1024 0.931 . S
C1009 C1008 1.391 . S
C1009 C1013 1.376 . S
C1010 C1008 1.394 . S
C1010 C1011 1.369 . S
C1010 C1014 1.531 . S
C1011 C1010 1.369 . S
C1011 C1012 1.410 . S
C1011 C1019 1.503 . S
C1012 C1011 1.410 . S
C1012 C1013 1.392 . S
C1012 C1015 1.511 . S
C1013 C1009 1.376 . S
C1013 C1012 1.392 . S
C1013 H1025 0.929 . S
C1014 C1010 1.531 . S
C1014 H1026 0.960 . S
C1014 H1027 0.962 . S
C1014 H1028 0.960 . S
C1015 C1012 1.511 . S
C1015 H1029 0.961 . S
C1015 H1030 0.961 . S
C1015 H1031 0.961 . S
C1016 C1017 1.370 . S
C1016 C1018 1.363 . S
C1016 H1032 0.931 . S
C1017 C1016 1.370 . S
C1017 C1021 1.408 . S
C1018 C1016 1.363 . S
C1018 C1019 1.370 . S
C1018 C1022 1.524 . S
C1019 C1011 1.503 . S
C1019 C1018 1.370 . S
C1019 C1020 1.403 . S
C1020 C1019 1.403 . S
C1020 C1021 1.404 . S
C1020 C1023 1.539 . S
C1021 C1017 1.408 . S
C1021 C1020 1.404 . S
C1021 H1033 0.930 . S
C1022 C1018 1.524 . S
C1022 H1034 0.956 . S
C1022 H1035 0.961 . S
C1022 H1036 0.961 . S
C1023 C1020 1.539 . S
C1023 H1037 0.958 . S
C1023 H1038 0.961 . S
C1023 H1039 0.960 . S
H1024 C1008 0.931 . S
H1025 C1013 0.929 . S
H1026 C1014 0.960 . S
H1027 C1014 0.962 . S
H1028 C1014 0.960 . S
H1029 C1015 0.961 . S
H1030 C1015 0.961 . S
H1031 C1015 0.961 . S
H1032 C1016 0.931 . S
H1033 C1021 0.930 . S
H1034 C1022 0.956 . S
H1035 C1022 0.961 . S
H1036 C1022 0.961 . S
H1037 C1023 0.958 . S
H1038 C1023 0.961 . S
H1039 C1023 0.960 . S
C1040 C1041 1.391 . S
C1040 C1042 1.394 . S
C1040 H1056 0.931 . S
C1041 C1040 1.391 . S
C1041 C1045 1.376 . S
C1042 C1040 1.394 . S
C1042 C1043 1.369 . S
C1042 C1046 1.531 . S
C1043 C1042 1.369 . S
C1043 C1044 1.410 . S
C1043 C1051 1.503 . S
C1044 C1043 1.410 . S
C1044 C1045 1.392 . S
C1044 C1047 1.511 . S
C1045 C1041 1.376 . S
C1045 C1044 1.392 . S
C1045 H1057 0.929 . S
C1046 C1042 1.531 . S
C1046 H1058 0.960 . S
C1046 H1059 0.962 . S
C1046 H1060 0.960 . S
C1047 C1044 1.511 . S
C1047 H1061 0.961 . S
C1047 H1062 0.961 . S
C1047 H1063 0.961 . S
C1048 C1049 1.370 . S
C1048 C1050 1.363 . S
C1048 H1064 0.931 . S
C1049 C1048 1.370 . S
C1049 C1053 1.408 . S
C1050 C1048 1.363 . S
C1050 C1051 1.370 . S
C1050 C1054 1.524 . S
C1051 C1043 1.503 . S
C1051 C1050 1.370 . S
C1051 C1052 1.403 . S
C1052 C1051 1.403 . S
C1052 C1053 1.404 . S
C1052 C1055 1.539 . S
C1053 C1049 1.408 . S
C1053 C1052 1.404 . S
C1053 H1065 0.930 . S
C1054 C1050 1.524 . S
C1054 H1066 0.956 . S
C1054 H1067 0.961 . S
C1054 H1068 0.961 . S
C1055 C1052 1.539 . S
C1055 H1069 0.958 . S
C1055 H1070 0.961 . S
C1055 H1071 0.960 . S
H1056 C1040 0.931 . S
H1057 C1045 0.929 . S
H1058 C1046 0.960 . S
H1059 C1046 0.962 . S
H1060 C1046 0.960 . S
H1061 C1047 0.961 . S
H1062 C1047 0.961 . S
H1063 C1047 0.961 . S
H1064 C1048 0.931 . S
H1065 C1053 0.930 . S
H1066 C1054 0.956 . S
H1067 C1054 0.961 . S
H1068 C1054 0.961 . S
H1069 C1055 0.958 . S
H1070 C1055 0.961 . S
H1071 C1055 0.960 . S
C1072 C1073 1.391 . S
C1072 C1074 1.394 . S
C1072 H1088 0.931 . S
C1073 C1072 1.391 . S
C1073 C1077 1.376 . S
C1074 C1072 1.394 . S
C1074 C1075 1.369 . S
C1074 C1078 1.531 . S
C1075 C1074 1.369 . S
C1075 C1076 1.410 . S
C1075 C1083 1.503 . S
C1076 C1075 1.410 . S
C1076 C1077 1.392 . S
C1076 C1079 1.511 . S
C1077 C1073 1.376 . S
C1077 C1076 1.392 . S
C1077 H1089 0.929 . S
C1078 C1074 1.531 . S
C1078 H1090 0.960 . S
C1078 H1091 0.962 . S
C1078 H1092 0.960 . S
C1079 C1076 1.511 . S
C1079 H1093 0.961 . S
C1079 H1094 0.961 . S
C1079 H1095 0.961 . S
C1080 C1081 1.370 . S
C1080 C1082 1.363 . S
C1080 H1096 0.931 . S
C1081 C1080 1.370 . S
C1081 C1085 1.408 . S
C1082 C1080 1.363 . S
C1082 C1083 1.370 . S
C1082 C1086 1.524 . S
C1083 C1075 1.503 . S
C1083 C1082 1.370 . S
C1083 C1084 1.403 . S
C1084 C1083 1.403 . S
C1084 C1085 1.404 . S
C1084 C1087 1.539 . S
C1085 C1081 1.408 . S
C1085 C1084 1.404 . S
C1085 H1097 0.930 . S
C1086 C1082 1.524 . S
C1086 H1098 0.956 . S
C1086 H1099 0.961 . S
C1086 H1100 0.961 . S
C1087 C1084 1.539 . S
C1087 H1101 0.958 . S
C1087 H1102 0.961 . S
C1087 H1103 0.960 . S
H1088 C1072 0.931 . S
H1089 C1077 0.929 . S
H1090 C1078 0.960 . S
H1091 C1078 0.962 . S
H1092 C1078 0.960 . S
H1093 C1079 0.961 . S
H1094 C1079 0.961 . S
H1095 C1079 0.961 . S
H1096 C1080 0.931 . S
H1097 C1085 0.930 . S
H1098 C1086 0.956 . S
H1099 C1086 0.961 . S
H1100 C1086 0.961 . S
H1101 C1087 0.958 . S
H1102 C1087 0.961 . S
H1103 C1087 0.960 . S
C1104 C1105 1.391 . S
C1104 C1106 1.394 . S
C1104 H1120 0.931 . S
C1105 C1104 1.391 . S
C1105 C1109 1.376 . S
C1106 C1104 1.394 . S
C1106 C1107 1.369 . S
C1106 C1110 1.531 . S
C1107 C1106 1.369 . S
C1107 C1108 1.410 . S
C1107 C1115 1.503 . S
C1108 C1107 1.410 . S
C1108 C1109 1.392 . S
C1108 C1111 1.511 . S
C1109 C1105 1.376 . S
C1109 C1108 1.392 . S
C1109 H1121 0.929 . S
C1110 C1106 1.531 . S
C1110 H1122 0.960 . S
C1110 H1123 0.962 . S
C1110 H1124 0.960 . S
C1111 C1108 1.511 . S
C1111 H1125 0.961 . S
C1111 H1126 0.961 . S
C1111 H1127 0.961 . S
C1112 C1113 1.370 . S
C1112 C1114 1.363 . S
C1112 H1128 0.931 . S
C1113 C1112 1.370 . S
C1113 C1117 1.408 . S
C1114 C1112 1.363 . S
C1114 C1115 1.370 . S
C1114 C1118 1.524 . S
C1115 C1107 1.503 . S
C1115 C1114 1.370 . S
C1115 C1116 1.403 . S
C1116 C1115 1.403 . S
C1116 C1117 1.404 . S
C1116 C1119 1.539 . S
C1117 C1113 1.408 . S
C1117 C1116 1.404 . S
C1117 H1129 0.930 . S
C1118 C1114 1.524 . S
C1118 H1130 0.956 . S
C1118 H1131 0.961 . S
C1118 H1132 0.961 . S
C1119 C1116 1.539 . S
C1119 H1133 0.958 . S
C1119 H1134 0.961 . S
C1119 H1135 0.960 . S
H1120 C1104 0.931 . S
H1121 C1109 0.929 . S
H1122 C1110 0.960 . S
H1123 C1110 0.962 . S
H1124 C1110 0.960 . S
H1125 C1111 0.961 . S
H1126 C1111 0.961 . S
H1127 C1111 0.961 . S
H1128 C1112 0.931 . S
H1129 C1117 0.930 . S
H1130 C1118 0.956 . S
H1131 C1118 0.961 . S
H1132 C1118 0.961 . S
H1133 C1119 0.958 . S
H1134 C1119 0.961 . S
H1135 C1119 0.960 . S
C1136 C1137 1.391 . S
C1136 C1138 1.394 . S
C1136 H1152 0.931 . S
C1137 C1136 1.391 . S
C1137 C1141 1.376 . S
C1138 C1136 1.394 . S
C1138 C1139 1.369 . S
C1138 C1142 1.531 . S
C1139 C1138 1.369 . S
C1139 C1140 1.410 . S
C1139 C1147 1.503 . S
C1140 C1139 1.410 . S
C1140 C1141 1.392 . S
C1140 C1143 1.511 . S
C1141 C1137 1.376 . S
C1141 C1140 1.392 . S
C1141 H1153 0.929 . S
C1142 C1138 1.531 . S
C1142 H1154 0.960 . S
C1142 H1155 0.962 . S
C1142 H1156 0.960 . S
C1143 C1140 1.511 . S
C1143 H1157 0.961 . S
C1143 H1158 0.961 . S
C1143 H1159 0.961 . S
C1144 C1145 1.370 . S
C1144 C1146 1.363 . S
C1144 H1160 0.931 . S
C1145 C1144 1.370 . S
C1145 C1149 1.408 . S
C1146 C1144 1.363 . S
C1146 C1147 1.370 . S
C1146 C1150 1.524 . S
C1147 C1139 1.503 . S
C1147 C1146 1.370 . S
C1147 C1148 1.403 . S
C1148 C1147 1.403 . S
C1148 C1149 1.404 . S
C1148 C1151 1.539 . S
C1149 C1145 1.408 . S
C1149 C1148 1.404 . S
C1149 H1161 0.930 . S
C1150 C1146 1.524 . S
C1150 H1162 0.956 . S
C1150 H1163 0.961 . S
C1150 H1164 0.961 . S
C1151 C1148 1.539 . S
C1151 H1165 0.958 . S
C1151 H1166 0.961 . S
C1151 H1167 0.960 . S
H1152 C1136 0.931 . S
H1153 C1141 0.929 . S
H1154 C1142 0.960 . S
H1155 C1142 0.962 . S
H1156 C1142 0.960 . S
H1157 C1143 0.961 . S
H1158 C1143 0.961 . S
H1159 C1143 0.961 . S
H1160 C1144 0.931 . S
H1161 C1149 0.930 . S
H1162 C1150 0.956 . S
H1163 C1150 0.961 . S
H1164 C1150 0.961 . S
H1165 C1151 0.958 . S
H1166 C1151 0.961 . S
H1167 C1151 0.960 . S
C1168 C1169 1.391 . S
C1168 C1170 1.394 . S
C1168 H1184 0.931 . S
C1169 C1168 1.391 . S
C1169 C1173 1.376 . S
C1170 C1168 1.394 . S
C1170 C1171 1.369 . S
C1170 C1174 1.531 . S
C1171 C1170 1.369 . S
C1171 C1172 1.410 . S
C1171 C1179 1.503 . S
C1172 C1171 1.410 . S
C1172 C1173 1.392 . S
C1172 C1175 1.511 . S
C1173 C1169 1.376 . S
C1173 C1172 1.392 . S
C1173 H1185 0.929 . S
C1174 C1170 1.531 . S
C1174 H1186 0.960 . S
C1174 H1187 0.962 . S
C1174 H1188 0.960 . S
C1175 C1172 1.511 . S
C1175 H1189 0.961 . S
C1175 H1190 0.961 . S
C1175 H1191 0.961 . S
C1176 C1177 1.370 . S
C1176 C1178 1.363 . S
C1176 H1192 0.931 . S
C1177 C1176 1.370 . S
C1177 C1181 1.408 . S
C1178 C1176 1.363 . S
C1178 C1179 1.370 . S
C1178 C1182 1.524 . S
C1179 C1171 1.503 . S
C1179 C1178 1.370 . S
C1179 C1180 1.403 . S
C1180 C1179 1.403 . S
C1180 C1181 1.404 . S
C1180 C1183 1.539 . S
C1181 C1177 1.408 . S
C1181 C1180 1.404 . S
C1181 H1193 0.930 . S
C1182 C1178 1.524 . S
C1182 H1194 0.956 . S
C1182 H1195 0.961 . S
C1182 H1196 0.961 . S
C1183 C1180 1.539 . S
C1183 H1197 0.958 . S
C1183 H1198 0.961 . S
C1183 H1199 0.960 . S
H1184 C1168 0.931 . S
H1185 C1173 0.929 . S
H1186 C1174 0.960 . S
H1187 C1174 0.962 . S
H1188 C1174 0.960 . S
H1189 C1175 0.961 . S
H1190 C1175 0.961 . S
H1191 C1175 0.961 . S
H1192 C1176 0.931 . S
H1193 C1181 0.930 . S
H1194 C1182 0.956 . S
H1195 C1182 0.961 . S
H1196 C1182 0.961 . S
H1197 C1183 0.958 . S
H1198 C1183 0.961 . S
H1199 C1183 0.960 . S
C1200 C1201 1.391 . S
C1200 C1202 1.394 . S
C1200 H1216 0.931 . S
C1201 C1200 1.391 . S
C1201 C1205 1.376 . S
C1202 C1200 1.394 . S
C1202 C1203 1.369 . S
C1202 C1206 1.531 . S
C1203 C1202 1.369 . S
C1203 C1204 1.410 . S
C1203 C1211 1.503 . S
C1204 C1203 1.410 . S
C1204 C1205 1.392 . S
C1204 C1207 1.511 . S
C1205 C1201 1.376 . S
C1205 C1204 1.392 . S
C1205 H1217 0.929 . S
C1206 C1202 1.531 . S
C1206 H1218 0.960 . S
C1206 H1219 0.962 . S
C1206 H1220 0.960 . S
C1207 C1204 1.511 . S
C1207 H1221 0.961 . S
C1207 H1222 0.961 . S
C1207 H1223 0.961 . S
C1208 C1209 1.370 . S
C1208 C1210 1.363 . S
C1208 H1224 0.931 . S
C1209 C1208 1.370 . S
C1209 C1213 1.408 . S
C1210 C1208 1.363 . S
C1210 C1211 1.370 . S
C1210 C1214 1.524 . S
C1211 C1203 1.503 . S
C1211 C1210 1.370 . S
C1211 C1212 1.403 . S
C1212 C1211 1.403 . S
C1212 C1213 1.404 . S
C1212 C1215 1.539 . S
C1213 C1209 1.408 . S
C1213 C1212 1.404 . S
C1213 H1225 0.930 . S
C1214 C1210 1.524 . S
C1214 H1226 0.956 . S
C1214 H1227 0.961 . S
C1214 H1228 0.961 . S
C1215 C1212 1.539 . S
C1215 H1229 0.958 . S
C1215 H1230 0.961 . S
C1215 H1231 0.960 . S
H1216 C1200 0.931 . S
H1217 C1205 0.929 . S
H1218 C1206 0.960 . S
H1219 C1206 0.962 . S
H1220 C1206 0.960 . S
H1221 C1207 0.961 . S
H1222 C1207 0.961 . S
H1223 C1207 0.961 . S
H1224 C1208 0.931 . S
H1225 C1213 0.930 . S
H1226 C1214 0.956 . S
H1227 C1214 0.961 . S
H1228 C1214 0.961 . S
H1229 C1215 0.958 . S
H1230 C1215 0.961 . S
H1231 C1215 0.960 . S
C209 C52 1.178 1_554 S
C217 C0 1.163 1_556 S
C241 C65 1.185 1_554 S
C249 C13 1.144 1_556 S
C273 C78 1.188 1_554 S
C281 C26 1.152 1_556 S
C305 C91 1.176 1_554 S
C313 C39 1.142 1_556 S
C337 C156 1.186 . S
C345 C104 1.146 . S
C369 C169 1.150 . S
C377 C117 1.149 . S
C401 C130 1.168 . S
C409 C182 1.145 . S
C433 C195 1.167 . S
C441 C143 1.145 . S
C465 C5 1.278 1_556 S
C473 C70 1.273 . S
C497 C83 1.266 . S
C505 C18 1.279 . S
C529 C31 1.267 . S
C537 C96 1.268 . S
C561 C57 1.259 . S
C569 C44 1.276 . S
C593 C174 1.264 . S
C601 C109 1.278 . S
C625 C187 1.239 . S
C633 C122 1.261 . S
C657 C135 1.311 . S
C665 C200 1.292 . S
C689 C148 1.307 . S
C697 C161 1.288 . S
C721 C205 1.398 . S
C729 C10 1.420 . S
C753 C166 1.422 . S
C761 C23 1.414 . S
C785 C179 1.424 . S
C793 C36 1.408 . S
C817 C192 1.425 . S
C825 C49 1.409 . S
C849 C127 1.416 . S
C857 C62 1.408 . S
C881 C140 1.402 . S
C889 C75 1.413 . S
C913 C88 1.400 . S
C921 C153 1.414 . S
C945 C101 1.397 . S
C953 C114 1.420 . S
C977 C177 1.448 . S
C985 C34 1.445 . S
C1009 C190 1.442 . S
C1017 C47 1.443 . S
C1041 C203 1.474 . S
C1049 C8 1.458 . S
C1073 C21 1.408 . S
C1081 C164 1.431 . S
C1105 C151 1.458 . S
C1113 C86 1.453 . S
C1137 C99 1.471 . S
C1145 C112 1.458 . S
C1169 C125 1.449 . S
C1177 C60 1.446 . S
C1201 C138 1.421 . S
C1209 C73 1.438 . S
