# Generated by pormake.
# Topology umu, (4)-cn, num edge types: 1
# Building blocks:
#     Node 0, Type 0, BuildingBlock: QUQFOY_clean_sbu_3, # of connection points: 4
#     Node 1, Type 0, BuildingBlock: QUQFOY_clean_sbu_3, # of connection points: 4
#     Node 2, Type 0, BuildingBlock: QUQFOY_clean_sbu_3, # of connection points: 4
#     Node 3, Type 0, BuildingBlock: QUQFOY_clean_sbu_3, # of connection points: 4
#     Node 4, Type 0, BuildingBlock: QUQFOY_clean_sbu_3, # of connection points: 4
#     Node 5, Type 0, BuildingBlock: QUQFOY_clean_sbu_3, # of connection points: 4
#     Node 6, Type 0, BuildingBlock: QUQFOY_clean_sbu_3, # of connection points: 4
#     Node 7, Type 0, BuildingBlock: QUQFOY_clean_sbu_3, # of connection points: 4
#     Node 8, Type 0, BuildingBlock: QUQFOY_clean_sbu_3, # of connection points: 4
#     Node 9, Type 0, BuildingBlock: QUQFOY_clean_sbu_3, # of connection points: 4
#     Node 10, Type 0, BuildingBlock: QUQFOY_clean_sbu_3, # of connection points: 4
#     Node 11, Type 0, BuildingBlock: QUQFOY_clean_sbu_3, # of connection points: 4
#     Node 12, Type 0, BuildingBlock: QUQFOY_clean_sbu_3, # of connection points: 4
#     Node 13, Type 0, BuildingBlock: QUQFOY_clean_sbu_3, # of connection points: 4
#     Node 14, Type 0, BuildingBlock: QUQFOY_clean_sbu_3, # of connection points: 4
#     Node 15, Type 0, BuildingBlock: QUQFOY_clean_sbu_3, # of connection points: 4
#     Node 16, Type 0, BuildingBlock: QUQFOY_clean_sbu_3, # of connection points: 4
#     Node 17, Type 0, BuildingBlock: QUQFOY_clean_sbu_3, # of connection points: 4
#     Node 18, Type 0, BuildingBlock: QUQFOY_clean_sbu_3, # of connection points: 4
#     Node 19, Type 0, BuildingBlock: QUQFOY_clean_sbu_3, # of connection points: 4
#     Node 20, Type 0, BuildingBlock: QUQFOY_clean_sbu_3, # of connection points: 4
#     Node 21, Type 0, BuildingBlock: QUQFOY_clean_sbu_3, # of connection points: 4
#     Node 22, Type 0, BuildingBlock: QUQFOY_clean_sbu_3, # of connection points: 4
#     Node 23, Type 0, BuildingBlock: QUQFOY_clean_sbu_3, # of connection points: 4
#     Node 24, Type 0, BuildingBlock: QUQFOY_clean_sbu_3, # of connection points: 4
#     Node 25, Type 0, BuildingBlock: QUQFOY_clean_sbu_3, # of connection points: 4
#     Node 26, Type 0, BuildingBlock: QUQFOY_clean_sbu_3, # of connection points: 4
#     Node 27, Type 0, BuildingBlock: QUQFOY_clean_sbu_3, # of connection points: 4
#     Node 28, Type 0, BuildingBlock: QUQFOY_clean_sbu_3, # of connection points: 4
#     Node 29, Type 0, BuildingBlock: QUQFOY_clean_sbu_3, # of connection points: 4
#     Node 30, Type 0, BuildingBlock: QUQFOY_clean_sbu_3, # of connection points: 4
#     Node 31, Type 0, BuildingBlock: QUQFOY_clean_sbu_3, # of connection points: 4
#     Edge 32, Type (0, 0), None
#     Edge 33, Type (0, 0), None
#     Edge 34, Type (0, 0), None
#     Edge 35, Type (0, 0), None
#     Edge 36, Type (0, 0), None
#     Edge 37, Type (0, 0), None
#     Edge 38, Type (0, 0), None
#     Edge 39, Type (0, 0), None
#     Edge 40, Type (0, 0), None
#     Edge 41, Type (0, 0), None
#     Edge 42, Type (0, 0), None
#     Edge 43, Type (0, 0), None
#     Edge 44, Type (0, 0), None
#     Edge 45, Type (0, 0), None
#     Edge 46, Type (0, 0), None
#     Edge 47, Type (0, 0), None
#     Edge 48, Type (0, 0), None
#     Edge 49, Type (0, 0), None
#     Edge 50, Type (0, 0), None
#     Edge 51, Type (0, 0), None
#     Edge 52, Type (0, 0), None
#     Edge 53, Type (0, 0), None
#     Edge 54, Type (0, 0), None
#     Edge 55, Type (0, 0), None
#     Edge 56, Type (0, 0), None
#     Edge 57, Type (0, 0), None
#     Edge 58, Type (0, 0), None
#     Edge 59, Type (0, 0), None
#     Edge 60, Type (0, 0), None
#     Edge 61, Type (0, 0), None
#     Edge 62, Type (0, 0), None
#     Edge 63, Type (0, 0), None
#     Edge 64, Type (0, 0), None
#     Edge 65, Type (0, 0), None
#     Edge 66, Type (0, 0), None
#     Edge 67, Type (0, 0), None
#     Edge 68, Type (0, 0), None
#     Edge 69, Type (0, 0), None
#     Edge 70, Type (0, 0), None
#     Edge 71, Type (0, 0), None
#     Edge 72, Type (0, 0), None
#     Edge 73, Type (0, 0), None
#     Edge 74, Type (0, 0), None
#     Edge 75, Type (0, 0), None
#     Edge 76, Type (0, 0), None
#     Edge 77, Type (0, 0), None
#     Edge 78, Type (0, 0), None
#     Edge 79, Type (0, 0), None
#     Edge 80, Type (0, 0), None
#     Edge 81, Type (0, 0), None
#     Edge 82, Type (0, 0), None
#     Edge 83, Type (0, 0), None
#     Edge 84, Type (0, 0), None
#     Edge 85, Type (0, 0), None
#     Edge 86, Type (0, 0), None
#     Edge 87, Type (0, 0), None
#     Edge 88, Type (0, 0), None
#     Edge 89, Type (0, 0), None
#     Edge 90, Type (0, 0), None
#     Edge 91, Type (0, 0), None
#     Edge 92, Type (0, 0), None
#     Edge 93, Type (0, 0), None
#     Edge 94, Type (0, 0), None
#     Edge 95, Type (0, 0), None
# Relax obj value: 0.110
# Max RMSD: 0.092
# Mean RMSD: 0.092
data_MOF--net-umu--node1-QUQFOY_clean_sbu_3--edge1-none
_symmetry_space_group_name_H-M    P1
_symmetry_Int_Tables_number       1
_symmetry_cell_setting            triclinic
loop_
_symmetry_equiv_pos_as_xyz
'x, y, z'
_cell_length_a     41.114413
_cell_length_b     41.117368
_cell_length_c     12.3672
_cell_angle_alpha  89.99621
_cell_angle_beta   89.998436
_cell_angle_gamma 90.000322
loop_
_atom_site_label
_atom_site_type_symbol
_atom_site_fract_x
_atom_site_fract_y
_atom_site_fract_z
_atom_type_partial_charge
C0 C 0.22633 0.13053 0.25068 0.0
O1 O 0.2532 0.13289 0.2004 0.0
Cd2 Cd 0.26125 0.13936 0.01091 0.0
O3 O 0.19885 0.13089 0.20094 0.0
Cd4 Cd 0.17649 0.13529 0.00959 0.0
C5 C 0.21364 0.20915 -0.01627 0.0
O6 O 0.22121 0.10354 0.94926 0.0
O7 O 0.18736 0.11633 0.82588 0.0
O8 O 0.12844 0.10269 0.0456 0.0
C9 C 0.21402 0.10317 0.8503 0.0
O10 O 0.24102 0.19458 -0.0168 0.0
C11 C 0.1131 0.11281 0.96254 0.0
O12 O 0.18693 0.19376 -0.00459 0.0
O13 O 0.12519 0.1367 0.91194 0.0
C14 C 0.07306 0.97655 0.50081 0.0
O15 O 0.07071 0.00342 0.45053 0.0
Cd16 Cd 0.06424 0.01148 0.26105 0.0
O17 O 0.07271 0.94908 0.45108 0.0
Cd18 Cd 0.0683 0.92671 0.25973 0.0
C19 C -0.00556 0.96387 0.23385 0.0
O20 O 0.10005 0.97144 0.1994 0.0
O21 O 0.08728 0.93759 0.07602 0.0
O22 O 0.10089 0.87866 0.29569 0.0
C23 C 0.10042 0.96425 0.10043 0.0
O24 O 0.00902 -0.00875 0.23333 0.0
C25 C 0.09077 0.86332 0.21264 0.0
O26 O 0.00983 0.93716 0.24554 0.0
O27 O 0.06687 0.87543 0.16205 0.0
C28 C 0.22702 0.82329 0.75081 0.0
O29 O 0.20015 0.82094 0.70053 0.0
Cd30 Cd 0.19209 0.81448 0.51105 0.0
O31 O 0.25449 0.82294 0.70107 0.0
Cd32 Cd 0.27686 0.81854 0.50971 0.0
C33 C 0.2397 0.74469 0.48383 0.0
O34 O 0.23213 0.85028 0.44938 0.0
O35 O 0.26598 0.8375 0.326 0.0
O36 O 0.3249 0.85114 0.54568 0.0
C37 C 0.23932 0.85065 0.35041 0.0
O38 O 0.21232 0.75926 0.48332 0.0
C39 C 0.34024 0.84103 0.46262 0.0
O40 O 0.26641 0.76007 0.49552 0.0
O41 O 0.32815 0.81713 0.41204 0.0
C42 C 0.38024 -0.02271 0.00074 0.0
O43 O 0.3826 0.95042 0.95046 0.0
Cd44 Cd 0.38906 0.94236 0.76098 0.0
O45 O 0.3806 0.00476 0.95099 0.0
Cd46 Cd 0.38501 0.02712 0.75963 0.0
C47 C 0.45887 -0.01004 0.73373 0.0
O48 O 0.35326 -0.0176 0.69933 0.0
O49 O 0.36602 0.01625 0.57593 0.0
O50 O 0.35244 0.07519 0.79558 0.0
C51 C 0.35288 -0.01041 0.60036 0.0
O52 O 0.44429 0.96258 0.73323 0.0
C53 C 0.36257 0.09052 0.71251 0.0
O54 O 0.44348 0.01667 0.74541 0.0
O55 O 0.38646 0.0784 0.66192 0.0
C56 C 0.22623 0.82331 0.86952 0.0
O57 O 0.2531 0.82098 0.9198 0.0
Cd58 Cd 0.26114 0.81452 0.1093 0.0
O59 O 0.19876 0.82294 0.91926 0.0
Cd60 Cd 0.17638 0.81856 0.1106 0.0
C61 C 0.21354 0.74471 0.13646 0.0
O62 O 0.22109 0.85032 0.17098 0.0
O63 O 0.18726 0.83743 0.29439 0.0
O64 O 0.12837 0.8512 0.0746 0.0
C65 C 0.21389 0.85063 0.26995 0.0
O66 O 0.24091 0.7593 0.137 0.0
C67 C 0.11301 0.84107 0.15763 0.0
O68 O 0.18683 0.76009 0.12475 0.0
O69 O 0.12507 0.81715 0.20818 0.0
C70 C 0.38023 0.9765 0.11945 0.0
O71 O 0.38256 0.00337 0.16973 0.0
Cd72 Cd 0.38901 0.01141 0.35922 0.0
O73 O 0.38059 0.94903 0.16919 0.0
Cd74 Cd 0.38497 0.92666 0.36055 0.0
C75 C 0.45882 0.96382 0.38638 0.0
O76 O 0.35321 0.97136 0.42093 0.0
O77 O 0.36609 0.93753 0.54433 0.0
O78 O 0.35234 0.87864 0.32458 0.0
C79 C 0.3529 0.96416 0.51989 0.0
O80 O 0.44424 -0.00881 0.38692 0.0
C81 C 0.36248 0.86328 0.40759 0.0
O82 O 0.44344 0.9371 0.37468 0.0
O83 O 0.38641 0.87535 0.45813 0.0
C84 C 0.22711 0.13052 0.36939 0.0
O85 O 0.20024 0.13284 0.41968 0.0
Cd86 Cd 0.19219 0.13928 0.60917 0.0
O87 O 0.25458 0.13089 0.41913 0.0
Cd88 Cd 0.27695 0.13527 0.61048 0.0
C89 C 0.23976 0.2091 0.63641 0.0
O90 O 0.23225 0.10349 0.67086 0.0
O91 O 0.26609 0.11636 0.79425 0.0
O92 O 0.32497 0.10265 0.57447 0.0
C93 C 0.23945 0.10318 0.76982 0.0
O94 O 0.21239 0.19451 0.63694 0.0
C95 C 0.34032 0.11277 0.65749 0.0
O96 O 0.26648 0.19373 0.62468 0.0
O97 O 0.32826 0.13669 0.70804 0.0
C98 C 0.07308 -0.02266 0.61953 0.0
O99 O 0.07075 0.95047 0.66982 0.0
Cd100 Cd 0.06429 0.94244 0.85932 0.0
O101 O 0.07271 0.00481 0.66925 0.0
Cd102 Cd 0.06833 0.02719 0.86059 0.0
C103 C -0.00552 -0.00996 0.88645 0.0
O104 O 0.1001 -0.01752 0.921 0.0
O105 O 0.0872 0.01631 0.04439 0.0
O106 O 0.10098 0.07519 0.82456 0.0
C107 C 0.1004 -0.01032 0.01996 0.0
O108 O 0.00906 0.96266 0.88701 0.0
C109 C 0.09085 0.09055 0.90756 0.0
O110 O 0.00986 0.01675 0.87473 0.0
O111 O 0.06692 0.0785 0.95812 0.0
C112 C 0.72701 0.8233 0.8695 0.0
O113 O 0.70014 0.82095 0.91979 0.0
Cd114 Cd 0.69209 0.81449 0.10927 0.0
O115 O 0.75448 0.82295 0.91924 0.0
Cd116 Cd 0.77685 0.81856 0.11059 0.0
C117 C 0.73971 0.7447 0.13647 0.0
O118 O 0.73213 0.8503 0.17094 0.0
O119 O 0.76597 0.8375 0.29431 0.0
O120 O 0.82488 0.85119 0.07461 0.0
C121 C 0.73931 0.85066 0.26991 0.0
O122 O 0.71233 0.75928 0.137 0.0
C123 C 0.84023 0.84107 0.15765 0.0
O124 O 0.76641 0.76009 0.12478 0.0
O125 O 0.82815 0.81716 0.20822 0.0
C126 C 0.88023 -0.02266 0.61948 0.0
O127 O 0.88259 0.95047 0.66977 0.0
Cd128 Cd 0.88906 0.94241 0.85925 0.0
O129 O 0.88059 0.00481 0.66921 0.0
Cd130 Cd 0.88499 0.02718 0.86056 0.0
C131 C 0.95885 -0.00997 0.88645 0.0
O132 O 0.85325 -0.01754 0.9209 0.0
O133 O 0.86602 0.0163 0.04427 0.0
O134 O 0.85241 0.07523 0.82458 0.0
C135 C 0.85287 -0.01036 0.01986 0.0
O136 O 0.94428 0.96265 0.88697 0.0
C137 C 0.86253 0.09057 0.90763 0.0
O138 O 0.94347 0.01674 0.87474 0.0
O139 O 0.88643 0.07846 0.95822 0.0
C140 C 0.72629 0.13058 0.36945 0.0
O141 O 0.75316 0.13292 0.41973 0.0
Cd142 Cd 0.76122 0.13937 0.60921 0.0
O143 O 0.69882 0.13093 0.41919 0.0
Cd144 Cd 0.67645 0.1353 0.61055 0.0
C145 C 0.71361 0.20916 0.6365 0.0
O146 O 0.72117 0.10357 0.6709 0.0
O147 O 0.68732 0.11636 0.79427 0.0
O148 O 0.62843 0.10267 0.57452 0.0
C149 C 0.71399 0.10321 0.76987 0.0
O150 O 0.74099 0.19458 0.637 0.0
C151 C 0.61307 0.11278 0.65756 0.0
O152 O 0.6869 0.19377 0.62479 0.0
O153 O 0.62514 0.13669 0.70815 0.0
C154 C 0.57307 0.97649 0.11935 0.0
O155 O 0.57071 0.00336 0.16963 0.0
Cd156 Cd 0.56425 0.01142 0.35911 0.0
O157 O 0.57271 0.94902 0.1691 0.0
Cd158 Cd 0.5683 0.92666 0.36047 0.0
C159 C 0.49445 0.96382 0.38638 0.0
O160 O 0.60006 0.97138 0.42077 0.0
O161 O 0.58728 0.93753 0.54417 0.0
O162 O 0.60088 0.8786 0.32453 0.0
C163 C 0.60043 0.96419 0.51974 0.0
O164 O 0.50903 -0.0088 0.38687 0.0
C165 C 0.59075 0.86326 0.4076 0.0
O166 O 0.50983 0.93711 0.37467 0.0
O167 O 0.56686 0.87538 0.45818 0.0
C168 C 0.72707 0.13058 0.25074 0.0
O169 O 0.7002 0.13291 0.20046 0.0
Cd170 Cd 0.69217 0.13938 0.01097 0.0
O171 O 0.75455 0.13095 0.201 0.0
Cd172 Cd 0.77693 0.13534 0.00966 0.0
C173 C 0.73977 0.20919 -0.01612 0.0
O174 O 0.73222 0.10357 0.94929 0.0
O175 O 0.76604 0.11648 0.82588 0.0
O176 O 0.82494 0.10271 0.04567 0.0
C177 C 0.73942 0.10326 0.85033 0.0
O178 O 0.71239 0.19461 -0.01668 0.0
C179 C 0.84029 0.11283 0.96263 0.0
O180 O 0.76648 0.19381 -0.00443 0.0
O181 O 0.82823 0.13675 0.91206 0.0
C182 C 0.57308 -0.02272 0.00064 0.0
O183 O 0.57075 0.95041 0.95036 0.0
Cd184 Cd 0.5643 0.94237 0.76087 0.0
O185 O 0.57272 0.00475 0.9509 0.0
Cd186 Cd 0.56834 0.02713 0.75955 0.0
C187 C 0.49449 -0.01004 0.73369 0.0
O188 O 0.6001 -0.01758 0.69917 0.0
O189 O 0.58723 0.01626 0.57576 0.0
O190 O 0.60097 0.07515 0.79554 0.0
C191 C 0.60042 -0.01038 0.6002 0.0
O192 O 0.50907 0.96259 0.73316 0.0
C193 C 0.59083 0.0905 0.71254 0.0
O194 O 0.50987 0.01667 0.7454 0.0
O195 O 0.56691 0.07844 0.66198 0.0
C196 C 0.72622 0.82331 0.75079 0.0
O197 O 0.75309 0.82097 0.7005 0.0
Cd198 Cd 0.76114 0.81452 0.51101 0.0
O199 O 0.69875 0.82293 0.70105 0.0
Cd200 Cd 0.67638 0.81854 0.50971 0.0
C201 C 0.71356 0.7447 0.48384 0.0
O202 O 0.72108 0.85031 0.44934 0.0
O203 O 0.68724 0.83745 0.32594 0.0
O204 O 0.62834 0.85115 0.54568 0.0
C205 C 0.71388 0.85064 0.35038 0.0
O206 O 0.74093 0.75929 0.4833 0.0
C207 C 0.613 0.84102 0.46264 0.0
O208 O 0.68684 0.76008 0.49555 0.0
O209 O 0.62508 0.8171 0.41208 0.0
C210 C 0.88022 0.97655 0.50077 0.0
O211 O 0.88255 0.00342 0.45047 0.0
Cd212 Cd 0.88901 0.01146 0.26098 0.0
O213 O 0.88059 0.94907 0.45104 0.0
Cd214 Cd 0.88497 0.9267 0.25969 0.0
C215 C 0.95882 0.96386 0.23382 0.0
O216 O 0.8532 0.97141 0.1993 0.0
O217 O 0.86609 0.93758 0.0759 0.0
O218 O 0.85233 0.87868 0.29566 0.0
C219 C 0.85289 0.96421 0.10034 0.0
O220 O 0.94423 -0.00877 0.23328 0.0
C221 C 0.86247 0.86333 0.21266 0.0
O222 O 0.94344 0.93715 0.24555 0.0
O223 O 0.8864 0.8754 0.16212 0.0
C224 C 0.72626 0.63048 0.75082 0.0
O225 O 0.75313 0.63283 0.70053 0.0
Cd226 Cd 0.76118 0.63929 0.51105 0.0
O227 O 0.69878 0.63083 0.70108 0.0
Cd228 Cd 0.67642 0.63522 0.50973 0.0
C229 C 0.71357 0.70908 0.48382 0.0
O230 O 0.72114 0.60348 0.44938 0.0
O231 O 0.68729 0.61626 0.32601 0.0
O232 O 0.62837 0.60263 0.54572 0.0
C233 C 0.71396 0.60312 0.35041 0.0
O234 O 0.74095 0.69451 0.48331 0.0
C235 C 0.61302 0.61276 0.46268 0.0
O236 O 0.68686 0.69369 0.49553 0.0
O237 O 0.62512 0.63666 0.4121 0.0
C238 C 0.57305 0.47652 0.00089 0.0
O239 O 0.5707 0.50339 0.95061 0.0
Cd240 Cd 0.56424 0.51144 0.76112 0.0
O241 O 0.57269 0.44905 0.95116 0.0
Cd242 Cd 0.5683 0.42669 0.75982 0.0
C243 C 0.49444 0.46383 0.7339 0.0
O244 O 0.60005 0.4714 0.69945 0.0
O245 O 0.58726 0.43756 0.5761 0.0
O246 O 0.60091 0.37866 0.79585 0.0
C247 C 0.60041 0.46422 0.60048 0.0
O248 O 0.50902 0.49121 0.73338 0.0
C249 C 0.5908 0.36331 0.71281 0.0
O250 O 0.50983 0.43713 0.74561 0.0
O251 O 0.5669 0.37539 0.66221 0.0
C252 C 0.7271 0.3234 0.25099 0.0
O253 O 0.70023 0.32105 0.20072 0.0
Cd254 Cd 0.69215 0.3146 0.01123 0.0
O255 O 0.75457 0.32305 0.20125 0.0
Cd256 Cd 0.77693 0.31866 0.00988 0.0
C257 C 0.73976 0.24481 -0.01609 0.0
O258 O 0.7322 0.3504 0.94955 0.0
O259 O 0.76606 0.33766 0.82618 0.0
O260 O 0.82499 0.35123 0.04582 0.0
C261 C 0.73939 0.35078 0.85058 0.0
O262 O 0.71238 0.25939 -0.01657 0.0
C263 C 0.84032 0.3411 0.96276 0.0
O264 O 0.76647 0.2602 -0.00437 0.0
O265 O 0.82821 0.3172 0.9122 0.0
C266 C 0.88026 0.47733 0.50073 0.0
O267 O 0.88258 0.45046 0.45046 0.0
Cd268 Cd 0.88903 0.4424 0.26096 0.0
O269 O 0.88063 0.5048 0.45099 0.0
Cd270 Cd 0.88501 0.52716 0.25964 0.0
C271 C 0.95885 0.48997 0.23374 0.0
O272 O 0.85324 0.48247 0.19926 0.0
O273 O 0.86607 0.5163 0.07591 0.0
O274 O 0.85242 0.5752 0.29567 0.0
C275 C 0.85289 0.48966 0.10029 0.0
O276 O 0.94426 0.4626 0.23322 0.0
C277 C 0.86254 0.59055 0.21264 0.0
O278 O 0.94348 0.51668 0.24543 0.0
O279 O 0.88644 0.57846 0.16205 0.0
C280 C 0.72631 0.3234 0.36971 0.0
O281 O 0.75318 0.32106 0.41999 0.0
Cd282 Cd 0.76121 0.31459 0.60949 0.0
O283 O 0.69884 0.32303 0.41944 0.0
Cd284 Cd 0.67646 0.31863 0.61078 0.0
C285 C 0.71361 0.24478 0.63658 0.0
O286 O 0.72116 0.35041 0.67115 0.0
O287 O 0.68733 0.33753 0.79456 0.0
O288 O 0.62842 0.35122 0.57478 0.0
C289 C 0.71396 0.35073 0.7701 0.0
O290 O 0.74099 0.25936 0.63713 0.0
C291 C 0.61307 0.34108 0.65781 0.0
O292 O 0.6869 0.26016 0.62487 0.0
O293 O 0.62516 0.31717 0.70838 0.0
C294 C 0.88026 0.47654 0.61945 0.0
O295 O 0.88262 0.50341 0.66971 0.0
Cd296 Cd 0.88907 0.51148 0.8592 0.0
O297 O 0.88062 0.44907 0.6692 0.0
Cd298 Cd 0.88502 0.42672 0.86057 0.0
C299 C 0.95887 0.46389 0.88647 0.0
O300 O 0.85326 0.47144 0.92086 0.0
O301 O 0.86605 0.43758 0.04429 0.0
O302 O 0.85244 0.37867 0.82462 0.0
C303 C 0.8529 0.46423 0.01982 0.0
O304 O 0.9443 0.49126 0.88698 0.0
C305 C 0.86257 0.36335 0.9077 0.0
O306 O 0.94348 0.43718 0.87477 0.0
O307 O 0.88647 0.37544 0.95826 0.0
C308 C 0.72704 0.63048 0.86953 0.0
O309 O 0.70017 0.63281 0.91982 0.0
Cd310 Cd 0.69213 0.63927 0.10931 0.0
O311 O 0.75452 0.63085 0.91926 0.0
Cd312 Cd 0.77689 0.63524 0.11061 0.0
C313 C 0.73971 0.70908 0.13649 0.0
O314 O 0.73218 0.60347 0.17098 0.0
O315 O 0.76602 0.61632 0.29438 0.0
O316 O 0.82493 0.60265 0.0746 0.0
C317 C 0.73938 0.60314 0.26994 0.0
O318 O 0.71234 0.6945 0.13702 0.0
C319 C 0.84028 0.61279 0.15763 0.0
O320 O 0.76643 0.69371 0.12477 0.0
O321 O 0.82819 0.6367 0.2082 0.0
C322 C 0.57305 0.4773 0.1196 0.0
O323 O 0.57072 0.45043 0.16989 0.0
Cd324 Cd 0.56427 0.44238 0.35938 0.0
O325 O 0.57268 0.50478 0.16934 0.0
Cd326 Cd 0.56829 0.52714 0.36068 0.0
C327 C 0.49445 0.48995 0.38657 0.0
O328 O 0.60007 0.48244 0.42104 0.0
O329 O 0.58721 0.51628 0.54444 0.0
O330 O 0.6009 0.57516 0.32465 0.0
C331 C 0.60039 0.48964 0.52 0.0
O332 O 0.50904 0.46258 0.38711 0.0
C333 C 0.59077 0.59051 0.40768 0.0
O334 O 0.50982 0.51667 0.37486 0.0
O335 O 0.56686 0.57844 0.45826 0.0
C336 C 0.22705 0.32334 0.36949 0.0
O337 O 0.20018 0.32098 0.41977 0.0
Cd338 Cd 0.19213 0.31451 0.60926 0.0
O339 O 0.25453 0.32298 0.41923 0.0
Cd340 Cd 0.27689 0.31858 0.61058 0.0
C341 C 0.23974 0.24472 0.63645 0.0
O342 O 0.23216 0.35033 0.67091 0.0
O343 O 0.26601 0.33755 0.79428 0.0
O344 O 0.32495 0.35114 0.57462 0.0
C345 C 0.23935 0.3507 0.76987 0.0
O346 O 0.21236 0.25929 0.63697 0.0
C347 C 0.34028 0.34102 0.6577 0.0
O348 O 0.26645 0.26011 0.62475 0.0
O349 O 0.32817 0.31713 0.70828 0.0
C350 C 0.38022 0.47726 0.11958 0.0
O351 O 0.38257 0.45039 0.16986 0.0
Cd352 Cd 0.38903 0.44233 0.35935 0.0
O353 O 0.38057 0.50473 0.16931 0.0
Cd354 Cd 0.38496 0.52709 0.36065 0.0
C355 C 0.45882 0.48994 0.38658 0.0
O356 O 0.35322 0.48237 0.42101 0.0
O357 O 0.36599 0.51623 0.54437 0.0
O358 O 0.35238 0.57514 0.32464 0.0
C359 C 0.35285 0.48956 0.51997 0.0
O360 O 0.44425 0.46256 0.38709 0.0
C361 C 0.3625 0.59048 0.40768 0.0
O362 O 0.44343 0.51665 0.37487 0.0
O363 O 0.3864 0.57839 0.45827 0.0
C364 C 0.22624 0.63048 0.86948 0.0
O365 O 0.25311 0.63283 0.91976 0.0
Cd366 Cd 0.26117 0.6393 0.10924 0.0
O367 O 0.19877 0.63084 0.91922 0.0
Cd368 Cd 0.1764 0.63524 0.11056 0.0
C369 C 0.21355 0.70909 0.13646 0.0
O370 O 0.22112 0.60349 0.17091 0.0
O371 O 0.18727 0.61627 0.29428 0.0
O372 O 0.12836 0.60265 0.07455 0.0
C373 C 0.21393 0.60312 0.26988 0.0
O374 O 0.24093 0.69452 0.13697 0.0
C375 C 0.11301 0.61276 0.15761 0.0
O376 O 0.18684 0.69371 0.12476 0.0
O377 O 0.12511 0.63666 0.20821 0.0
C378 C 0.07309 0.4765 0.61947 0.0
O379 O 0.07076 0.50337 0.66975 0.0
Cd380 Cd 0.06432 0.51144 0.85924 0.0
O381 O 0.07272 0.44903 0.66922 0.0
Cd382 Cd 0.06833 0.42668 0.86058 0.0
C383 C -0.0055 0.46388 0.8865 0.0
O384 O 0.1001 0.47138 0.92094 0.0
O385 O 0.08729 0.43754 0.0443 0.0
O386 O 0.10091 0.37863 0.82459 0.0
C387 C 0.10046 0.46419 0.01991 0.0
O388 O 0.00908 0.49125 0.887 0.0
C389 C 0.09078 0.36328 0.90764 0.0
O390 O 0.00987 0.43716 0.87479 0.0
O391 O 0.06688 0.37538 0.95821 0.0
C392 C 0.22703 0.63047 0.75077 0.0
O393 O 0.20015 0.6328 0.70049 0.0
Cd394 Cd 0.19211 0.63926 0.511 0.0
O395 O 0.2545 0.63084 0.70103 0.0
Cd396 Cd 0.27687 0.63522 0.50968 0.0
C397 C 0.23971 0.70906 0.48381 0.0
O398 O 0.23216 0.60346 0.44931 0.0
O399 O 0.266 0.61633 0.32591 0.0
O400 O 0.32489 0.6026 0.5457 0.0
C401 C 0.23936 0.60314 0.35035 0.0
O402 O 0.21233 0.69448 0.48328 0.0
C403 C 0.34024 0.61273 0.46268 0.0
O404 O 0.26642 0.69369 0.49553 0.0
O405 O 0.32818 0.63665 0.41211 0.0
C406 C 0.07308 0.47729 0.50076 0.0
O407 O 0.07073 0.45042 0.45049 0.0
Cd408 Cd 0.06428 0.44236 0.261 0.0
O409 O 0.07272 0.50476 0.45101 0.0
Cd410 Cd 0.06833 0.52712 0.25966 0.0
C411 C -0.00552 0.48996 0.23373 0.0
O412 O 0.10009 0.4824 0.19935 0.0
O413 O 0.0873 0.51626 0.07593 0.0
O414 O 0.10091 0.57517 0.29567 0.0
C415 C 0.10045 0.48961 0.10039 0.0
O416 O 0.00905 0.46258 0.23322 0.0
C417 C 0.09077 0.5905 0.21261 0.0
O418 O 0.00986 0.51666 0.24545 0.0
O419 O 0.06687 0.57841 0.16202 0.0
C420 C 0.22627 0.32335 0.25078 0.0
O421 O 0.25314 0.32103 0.20049 0.0
Cd422 Cd 0.2612 0.31459 0.01099 0.0
O423 O 0.19879 0.32298 0.20104 0.0
Cd424 Cd 0.17643 0.3186 0.00969 0.0
C425 C 0.21363 0.24477 -0.01626 0.0
O426 O 0.22113 0.35037 0.94931 0.0
O427 O 0.18728 0.33753 0.82593 0.0
O428 O 0.12838 0.35119 0.04569 0.0
C429 C 0.21393 0.3507 0.85036 0.0
O430 O 0.241 0.25936 -0.01678 0.0
C431 C 0.11304 0.34104 0.96267 0.0
O432 O 0.18691 0.26014 -0.00452 0.0
O433 O 0.12512 0.31713 0.91212 0.0
C434 C 0.38021 0.47648 0.00086 0.0
O435 O 0.38255 0.50335 0.95057 0.0
Cd436 Cd 0.389 0.5114 0.76108 0.0
O437 O 0.38059 0.449 0.95113 0.0
Cd438 Cd 0.38498 0.42664 0.75978 0.0
C439 C 0.45882 0.46382 0.73388 0.0
O440 O 0.3532 0.47134 0.69942 0.0
O441 O 0.36606 0.4375 0.57602 0.0
O442 O 0.35239 0.3786 0.79577 0.0
C443 C 0.35288 0.46414 0.60046 0.0
O444 O 0.44423 0.4912 0.73335 0.0
C445 C 0.36253 0.36327 0.71274 0.0
O446 O 0.44345 0.43711 0.74561 0.0
O447 O 0.38644 0.37535 0.66218 0.0
loop_
_geom_bond_atom_site_label_1
_geom_bond_atom_site_label_2
_geom_bond_distance
_geom_bond_site_symmetry_2
_ccdc_geom_bond_type
C0 O1 1.306 . S
C0 O3 1.160 . S
O1 C0 1.306 . S
O1 Cd2 2.228 . S
Cd2 O1 2.228 . S
Cd2 O6 2.273 1_554 S
Cd2 O10 2.277 . S
O3 C0 1.160 . S
O3 Cd4 2.203 . S
Cd4 O3 2.203 . S
Cd4 O6 2.411 1_554 S
Cd4 O7 2.333 1_554 S
Cd4 O8 2.352 . S
Cd4 O12 2.277 . S
Cd4 O13 2.356 . S
C5 O10 1.209 . S
C5 O12 1.226 . S
O6 Cd2 2.273 1_556 S
O6 Cd4 2.411 1_556 S
O6 C9 1.320 . S
O7 Cd4 2.333 1_556 S
O7 C9 1.214 . S
O8 Cd4 2.352 . S
O8 C11 1.258 . S
C9 O6 1.320 . S
C9 O7 1.214 . S
O10 Cd2 2.277 . S
O10 C5 1.209 . S
C11 O8 1.258 . S
C11 O13 1.282 . S
O12 Cd4 2.277 . S
O12 C5 1.226 . S
O13 Cd4 2.356 . S
O13 C11 1.282 . S
C14 O15 1.306 1_565 S
C14 O17 1.160 . S
O15 C14 1.306 1_545 S
O15 Cd16 2.228 . S
Cd16 O15 2.228 . S
Cd16 O20 2.273 . S
Cd16 O24 2.277 1_545 S
O17 C14 1.160 . S
O17 Cd18 2.203 . S
Cd18 O17 2.203 . S
Cd18 O20 2.411 1_565 S
Cd18 O21 2.333 . S
Cd18 O22 2.352 . S
Cd18 O26 2.277 . S
Cd18 O27 2.356 . S
C19 O24 1.209 . S
C19 O26 1.226 . S
O20 Cd16 2.273 . S
O20 Cd18 2.411 1_545 S
O20 C23 1.320 1_545 S
O21 Cd18 2.333 . S
O21 C23 1.214 . S
O22 Cd18 2.352 . S
O22 C25 1.258 . S
C23 O20 1.320 1_565 S
C23 O21 1.214 . S
O24 Cd16 2.277 1_565 S
O24 C19 1.209 . S
C25 O22 1.258 . S
C25 O27 1.282 . S
O26 Cd18 2.277 . S
O26 C19 1.226 . S
O27 Cd18 2.356 . S
O27 C25 1.282 . S
C28 O29 1.306 . S
C28 O31 1.160 . S
O29 C28 1.306 . S
O29 Cd30 2.228 . S
Cd30 O29 2.228 . S
Cd30 O34 2.273 . S
Cd30 O38 2.277 . S
O31 C28 1.160 . S
O31 Cd32 2.203 . S
Cd32 O31 2.203 . S
Cd32 O34 2.411 . S
Cd32 O35 2.333 . S
Cd32 O36 2.352 . S
Cd32 O40 2.277 . S
Cd32 O41 2.356 . S
C33 O38 1.209 . S
C33 O40 1.226 . S
O34 Cd30 2.273 . S
O34 Cd32 2.411 . S
O34 C37 1.320 . S
O35 Cd32 2.333 . S
O35 C37 1.214 . S
O36 Cd32 2.352 . S
O36 C39 1.258 . S
C37 O34 1.320 . S
C37 O35 1.214 . S
O38 Cd30 2.277 . S
O38 C33 1.209 . S
C39 O36 1.258 . S
C39 O41 1.282 . S
O40 Cd32 2.277 . S
O40 C33 1.226 . S
O41 Cd32 2.356 . S
O41 C39 1.282 . S
C42 O43 1.306 1_544 S
C42 O45 1.160 1_554 S
O43 C42 1.306 1_566 S
O43 Cd44 2.228 . S
Cd44 O43 2.228 . S
Cd44 O48 2.273 . S
Cd44 O52 2.277 1_565 S
O45 C42 1.160 1_556 S
O45 Cd46 2.203 . S
Cd46 O45 2.203 . S
Cd46 O48 2.411 1_545 S
Cd46 O49 2.333 . S
Cd46 O50 2.352 . S
Cd46 O54 2.277 . S
Cd46 O55 2.356 . S
C47 O52 1.209 . S
C47 O54 1.226 . S
O48 Cd44 2.273 . S
O48 Cd46 2.411 1_565 S
O48 C51 1.320 1_565 S
O49 Cd46 2.333 . S
O49 C51 1.214 . S
O50 Cd46 2.352 . S
O50 C53 1.258 . S
C51 O48 1.320 1_545 S
C51 O49 1.214 . S
O52 Cd44 2.277 1_545 S
O52 C47 1.209 . S
C53 O50 1.258 . S
C53 O55 1.282 . S
O54 Cd46 2.277 . S
O54 C47 1.226 . S
O55 Cd46 2.356 . S
O55 C53 1.282 . S
C56 O57 1.306 . S
C56 O59 1.160 . S
O57 C56 1.306 . S
O57 Cd58 2.228 1_556 S
Cd58 O57 2.228 1_554 S
Cd58 O62 2.273 . S
Cd58 O66 2.277 . S
O59 C56 1.160 . S
O59 Cd60 2.203 1_556 S
Cd60 O59 2.203 1_554 S
Cd60 O62 2.411 . S
Cd60 O63 2.333 . S
Cd60 O64 2.352 . S
Cd60 O68 2.277 . S
Cd60 O69 2.356 . S
C61 O66 1.209 . S
C61 O68 1.226 . S
O62 Cd58 2.273 . S
O62 Cd60 2.411 . S
O62 C65 1.320 . S
O63 Cd60 2.333 . S
O63 C65 1.214 . S
O64 Cd60 2.352 . S
O64 C67 1.258 . S
C65 O62 1.320 . S
C65 O63 1.214 . S
O66 Cd58 2.277 . S
O66 C61 1.209 . S
C67 O64 1.258 . S
C67 O69 1.282 . S
O68 Cd60 2.277 . S
O68 C61 1.226 . S
O69 Cd60 2.356 . S
O69 C67 1.282 . S
C70 O71 1.306 1_565 S
C70 O73 1.160 . S
O71 C70 1.306 1_545 S
O71 Cd72 2.228 . S
Cd72 O71 2.228 . S
Cd72 O76 2.273 . S
Cd72 O80 2.277 1_545 S
O73 C70 1.160 . S
O73 Cd74 2.203 . S
Cd74 O73 2.203 . S
Cd74 O76 2.411 1_565 S
Cd74 O77 2.333 . S
Cd74 O78 2.352 . S
Cd74 O82 2.277 . S
Cd74 O83 2.356 . S
C75 O80 1.209 . S
C75 O82 1.226 . S
O76 Cd72 2.273 . S
O76 Cd74 2.411 1_545 S
O76 C79 1.320 1_545 S
O77 Cd74 2.333 . S
O77 C79 1.214 . S
O78 Cd74 2.352 . S
O78 C81 1.258 . S
C79 O76 1.320 1_565 S
C79 O77 1.214 . S
O80 Cd72 2.277 1_565 S
O80 C75 1.209 . S
C81 O78 1.258 . S
C81 O83 1.282 . S
O82 Cd74 2.277 . S
O82 C75 1.226 . S
O83 Cd74 2.356 . S
O83 C81 1.282 . S
C84 O85 1.306 . S
C84 O87 1.160 . S
O85 C84 1.306 . S
O85 Cd86 2.228 . S
Cd86 O85 2.228 . S
Cd86 O90 2.273 . S
Cd86 O94 2.277 . S
O87 C84 1.160 . S
O87 Cd88 2.203 . S
Cd88 O87 2.203 . S
Cd88 O90 2.411 . S
Cd88 O91 2.333 . S
Cd88 O92 2.352 . S
Cd88 O96 2.277 . S
Cd88 O97 2.356 . S
C89 O94 1.209 . S
C89 O96 1.226 . S
O90 Cd86 2.273 . S
O90 Cd88 2.411 . S
O90 C93 1.320 . S
O91 Cd88 2.333 . S
O91 C93 1.214 . S
O92 Cd88 2.352 . S
O92 C95 1.258 . S
C93 O90 1.320 . S
C93 O91 1.214 . S
O94 Cd86 2.277 . S
O94 C89 1.209 . S
C95 O92 1.258 . S
C95 O97 1.282 . S
O96 Cd88 2.277 . S
O96 C89 1.226 . S
O97 Cd88 2.356 . S
O97 C95 1.282 . S
C98 O99 1.306 1_545 S
C98 O101 1.160 . S
O99 C98 1.306 1_565 S
O99 Cd100 2.228 . S
Cd100 O99 2.228 . S
Cd100 O104 2.273 . S
Cd100 O108 2.277 1_565 S
O101 C98 1.160 . S
O101 Cd102 2.203 . S
Cd102 O101 2.203 . S
Cd102 O104 2.411 1_545 S
Cd102 O105 2.333 1_556 S
Cd102 O106 2.352 . S
Cd102 O110 2.277 . S
Cd102 O111 2.356 . S
C103 O108 1.209 . S
C103 O110 1.226 . S
O104 Cd100 2.273 . S
O104 Cd102 2.411 1_565 S
O104 C107 1.320 1_566 S
O105 Cd102 2.333 1_554 S
O105 C107 1.214 . S
O106 Cd102 2.352 . S
O106 C109 1.258 . S
C107 O104 1.320 1_544 S
C107 O105 1.214 . S
O108 Cd100 2.277 1_545 S
O108 C103 1.209 . S
C109 O106 1.258 . S
C109 O111 1.282 . S
O110 Cd102 2.277 . S
O110 C103 1.226 . S
O111 Cd102 2.356 . S
O111 C109 1.282 . S
C112 O113 1.306 . S
C112 O115 1.160 . S
O113 C112 1.306 . S
O113 Cd114 2.228 1_556 S
Cd114 O113 2.228 1_554 S
Cd114 O118 2.273 . S
Cd114 O122 2.277 . S
O115 C112 1.160 . S
O115 Cd116 2.203 1_556 S
Cd116 O115 2.203 1_554 S
Cd116 O118 2.411 . S
Cd116 O119 2.333 . S
Cd116 O120 2.352 . S
Cd116 O124 2.277 . S
Cd116 O125 2.356 . S
C117 O122 1.209 . S
C117 O124 1.226 . S
O118 Cd114 2.273 . S
O118 Cd116 2.411 . S
O118 C121 1.320 . S
O119 Cd116 2.333 . S
O119 C121 1.214 . S
O120 Cd116 2.352 . S
O120 C123 1.258 . S
C121 O118 1.320 . S
C121 O119 1.214 . S
O122 Cd114 2.277 . S
O122 C117 1.209 . S
C123 O120 1.258 . S
C123 O125 1.282 . S
O124 Cd116 2.277 . S
O124 C117 1.226 . S
O125 Cd116 2.356 . S
O125 C123 1.282 . S
C126 O127 1.306 1_545 S
C126 O129 1.160 . S
O127 C126 1.306 1_565 S
O127 Cd128 2.228 . S
Cd128 O127 2.228 . S
Cd128 O132 2.273 . S
Cd128 O136 2.277 1_565 S
O129 C126 1.160 . S
O129 Cd130 2.203 . S
Cd130 O129 2.203 . S
Cd130 O132 2.411 1_545 S
Cd130 O133 2.333 1_556 S
Cd130 O134 2.352 . S
Cd130 O138 2.277 . S
Cd130 O139 2.356 . S
C131 O136 1.209 . S
C131 O138 1.226 . S
O132 Cd128 2.273 . S
O132 Cd130 2.411 1_565 S
O132 C135 1.320 1_566 S
O133 Cd130 2.333 1_554 S
O133 C135 1.214 . S
O134 Cd130 2.352 . S
O134 C137 1.258 . S
C135 O132 1.320 1_544 S
C135 O133 1.214 . S
O136 Cd128 2.277 1_545 S
O136 C131 1.209 . S
C137 O134 1.258 . S
C137 O139 1.282 . S
O138 Cd130 2.277 . S
O138 C131 1.226 . S
O139 Cd130 2.356 . S
O139 C137 1.282 . S
C140 O141 1.306 . S
C140 O143 1.160 . S
O141 C140 1.306 . S
O141 Cd142 2.228 . S
Cd142 O141 2.228 . S
Cd142 O146 2.273 . S
Cd142 O150 2.277 . S
O143 C140 1.160 . S
O143 Cd144 2.203 . S
Cd144 O143 2.203 . S
Cd144 O146 2.411 . S
Cd144 O147 2.333 . S
Cd144 O148 2.352 . S
Cd144 O152 2.277 . S
Cd144 O153 2.356 . S
C145 O150 1.209 . S
C145 O152 1.226 . S
O146 Cd142 2.273 . S
O146 Cd144 2.411 . S
O146 C149 1.320 . S
O147 Cd144 2.333 . S
O147 C149 1.214 . S
O148 Cd144 2.352 . S
O148 C151 1.258 . S
C149 O146 1.320 . S
C149 O147 1.214 . S
O150 Cd142 2.277 . S
O150 C145 1.209 . S
C151 O148 1.258 . S
C151 O153 1.282 . S
O152 Cd144 2.277 . S
O152 C145 1.226 . S
O153 Cd144 2.356 . S
O153 C151 1.282 . S
C154 O155 1.306 1_565 S
C154 O157 1.160 . S
O155 C154 1.306 1_545 S
O155 Cd156 2.228 . S
Cd156 O155 2.228 . S
Cd156 O160 2.273 . S
Cd156 O164 2.277 1_545 S
O157 C154 1.160 . S
O157 Cd158 2.203 . S
Cd158 O157 2.203 . S
Cd158 O160 2.411 1_565 S
Cd158 O161 2.333 . S
Cd158 O162 2.352 . S
Cd158 O166 2.277 . S
Cd158 O167 2.356 . S
C159 O164 1.209 . S
C159 O166 1.226 . S
O160 Cd156 2.273 . S
O160 Cd158 2.411 1_545 S
O160 C163 1.320 1_545 S
O161 Cd158 2.333 . S
O161 C163 1.214 . S
O162 Cd158 2.352 . S
O162 C165 1.258 . S
C163 O160 1.320 1_565 S
C163 O161 1.214 . S
O164 Cd156 2.277 1_565 S
O164 C159 1.209 . S
C165 O162 1.258 . S
C165 O167 1.282 . S
O166 Cd158 2.277 . S
O166 C159 1.226 . S
O167 Cd158 2.356 . S
O167 C165 1.282 . S
C168 O169 1.306 . S
C168 O171 1.160 . S
O169 C168 1.306 . S
O169 Cd170 2.228 . S
Cd170 O169 2.228 . S
Cd170 O174 2.273 1_554 S
Cd170 O178 2.277 . S
O171 C168 1.160 . S
O171 Cd172 2.203 . S
Cd172 O171 2.203 . S
Cd172 O174 2.411 1_554 S
Cd172 O175 2.333 1_554 S
Cd172 O176 2.352 . S
Cd172 O180 2.277 . S
Cd172 O181 2.356 . S
C173 O178 1.209 . S
C173 O180 1.226 . S
O174 Cd170 2.273 1_556 S
O174 Cd172 2.411 1_556 S
O174 C177 1.320 . S
O175 Cd172 2.333 1_556 S
O175 C177 1.214 . S
O176 Cd172 2.352 . S
O176 C179 1.258 . S
C177 O174 1.320 . S
C177 O175 1.214 . S
O178 Cd170 2.277 . S
O178 C173 1.209 . S
C179 O176 1.258 . S
C179 O181 1.282 . S
O180 Cd172 2.277 . S
O180 C173 1.226 . S
O181 Cd172 2.356 . S
O181 C179 1.282 . S
C182 O183 1.306 1_544 S
C182 O185 1.160 1_554 S
O183 C182 1.306 1_566 S
O183 Cd184 2.228 . S
Cd184 O183 2.228 . S
Cd184 O188 2.273 . S
Cd184 O192 2.277 1_565 S
O185 C182 1.160 1_556 S
O185 Cd186 2.203 . S
Cd186 O185 2.203 . S
Cd186 O188 2.411 1_545 S
Cd186 O189 2.333 . S
Cd186 O190 2.352 . S
Cd186 O194 2.277 . S
Cd186 O195 2.356 . S
C187 O192 1.209 . S
C187 O194 1.226 . S
O188 Cd184 2.273 . S
O188 Cd186 2.411 1_565 S
O188 C191 1.320 1_565 S
O189 Cd186 2.333 . S
O189 C191 1.214 . S
O190 Cd186 2.352 . S
O190 C193 1.258 . S
C191 O188 1.320 1_545 S
C191 O189 1.214 . S
O192 Cd184 2.277 1_545 S
O192 C187 1.209 . S
C193 O190 1.258 . S
C193 O195 1.282 . S
O194 Cd186 2.277 . S
O194 C187 1.226 . S
O195 Cd186 2.356 . S
O195 C193 1.282 . S
C196 O197 1.306 . S
C196 O199 1.160 . S
O197 C196 1.306 . S
O197 Cd198 2.228 . S
Cd198 O197 2.228 . S
Cd198 O202 2.273 . S
Cd198 O206 2.277 . S
O199 C196 1.160 . S
O199 Cd200 2.203 . S
Cd200 O199 2.203 . S
Cd200 O202 2.411 . S
Cd200 O203 2.333 . S
Cd200 O204 2.352 . S
Cd200 O208 2.277 . S
Cd200 O209 2.356 . S
C201 O206 1.209 . S
C201 O208 1.226 . S
O202 Cd198 2.273 . S
O202 Cd200 2.411 . S
O202 C205 1.320 . S
O203 Cd200 2.333 . S
O203 C205 1.214 . S
O204 Cd200 2.352 . S
O204 C207 1.258 . S
C205 O202 1.320 . S
C205 O203 1.214 . S
O206 Cd198 2.277 . S
O206 C201 1.209 . S
C207 O204 1.258 . S
C207 O209 1.282 . S
O208 Cd200 2.277 . S
O208 C201 1.226 . S
O209 Cd200 2.356 . S
O209 C207 1.282 . S
C210 O211 1.306 1_565 S
C210 O213 1.160 . S
O211 C210 1.306 1_545 S
O211 Cd212 2.228 . S
Cd212 O211 2.228 . S
Cd212 O216 2.273 . S
Cd212 O220 2.277 1_545 S
O213 C210 1.160 . S
O213 Cd214 2.203 . S
Cd214 O213 2.203 . S
Cd214 O216 2.411 1_565 S
Cd214 O217 2.333 . S
Cd214 O218 2.352 . S
Cd214 O222 2.277 . S
Cd214 O223 2.356 . S
C215 O220 1.209 . S
C215 O222 1.226 . S
O216 Cd212 2.273 . S
O216 Cd214 2.411 1_545 S
O216 C219 1.320 1_545 S
O217 Cd214 2.333 . S
O217 C219 1.214 . S
O218 Cd214 2.352 . S
O218 C221 1.258 . S
C219 O216 1.320 1_565 S
C219 O217 1.214 . S
O220 Cd212 2.277 1_565 S
O220 C215 1.209 . S
C221 O218 1.258 . S
C221 O223 1.282 . S
O222 Cd214 2.277 . S
O222 C215 1.226 . S
O223 Cd214 2.356 . S
O223 C221 1.282 . S
C224 O225 1.306 . S
C224 O227 1.160 . S
O225 C224 1.306 . S
O225 Cd226 2.228 . S
Cd226 O225 2.228 . S
Cd226 O230 2.273 . S
Cd226 O234 2.277 . S
O227 C224 1.160 . S
O227 Cd228 2.203 . S
Cd228 O227 2.203 . S
Cd228 O230 2.411 . S
Cd228 O231 2.333 . S
Cd228 O232 2.352 . S
Cd228 O236 2.277 . S
Cd228 O237 2.356 . S
C229 O234 1.209 . S
C229 O236 1.226 . S
O230 Cd226 2.273 . S
O230 Cd228 2.411 . S
O230 C233 1.320 . S
O231 Cd228 2.333 . S
O231 C233 1.214 . S
O232 Cd228 2.352 . S
O232 C235 1.258 . S
C233 O230 1.320 . S
C233 O231 1.214 . S
O234 Cd226 2.277 . S
O234 C229 1.209 . S
C235 O232 1.258 . S
C235 O237 1.282 . S
O236 Cd228 2.277 . S
O236 C229 1.226 . S
O237 Cd228 2.356 . S
O237 C235 1.282 . S
C238 O239 1.306 1_554 S
C238 O241 1.160 1_554 S
O239 C238 1.306 1_556 S
O239 Cd240 2.228 . S
Cd240 O239 2.228 . S
Cd240 O244 2.273 . S
Cd240 O248 2.277 . S
O241 C238 1.160 1_556 S
O241 Cd242 2.203 . S
Cd242 O241 2.203 . S
Cd242 O244 2.411 . S
Cd242 O245 2.333 . S
Cd242 O246 2.352 . S
Cd242 O250 2.277 . S
Cd242 O251 2.356 . S
C243 O248 1.209 . S
C243 O250 1.226 . S
O244 Cd240 2.273 . S
O244 Cd242 2.411 . S
O244 C247 1.320 . S
O245 Cd242 2.333 . S
O245 C247 1.214 . S
O246 Cd242 2.352 . S
O246 C249 1.258 . S
C247 O244 1.320 . S
C247 O245 1.214 . S
O248 Cd240 2.277 . S
O248 C243 1.209 . S
C249 O246 1.258 . S
C249 O251 1.282 . S
O250 Cd242 2.277 . S
O250 C243 1.226 . S
O251 Cd242 2.356 . S
O251 C249 1.282 . S
C252 O253 1.306 . S
C252 O255 1.160 . S
O253 C252 1.306 . S
O253 Cd254 2.228 . S
Cd254 O253 2.228 . S
Cd254 O258 2.273 1_554 S
Cd254 O262 2.277 . S
O255 C252 1.160 . S
O255 Cd256 2.203 . S
Cd256 O255 2.203 . S
Cd256 O258 2.411 1_554 S
Cd256 O259 2.333 1_554 S
Cd256 O260 2.352 . S
Cd256 O264 2.277 . S
Cd256 O265 2.356 . S
C257 O262 1.209 . S
C257 O264 1.226 . S
O258 Cd254 2.273 1_556 S
O258 Cd256 2.411 1_556 S
O258 C261 1.320 . S
O259 Cd256 2.333 1_556 S
O259 C261 1.214 . S
O260 Cd256 2.352 . S
O260 C263 1.258 . S
C261 O258 1.320 . S
C261 O259 1.214 . S
O262 Cd254 2.277 . S
O262 C257 1.209 . S
C263 O260 1.258 . S
C263 O265 1.282 . S
O264 Cd256 2.277 . S
O264 C257 1.226 . S
O265 Cd256 2.356 . S
O265 C263 1.282 . S
C266 O267 1.306 . S
C266 O269 1.160 . S
O267 C266 1.306 . S
O267 Cd268 2.228 . S
Cd268 O267 2.228 . S
Cd268 O272 2.273 . S
Cd268 O276 2.277 . S
O269 C266 1.160 . S
O269 Cd270 2.203 . S
Cd270 O269 2.203 . S
Cd270 O272 2.411 . S
Cd270 O273 2.333 . S
Cd270 O274 2.352 . S
Cd270 O278 2.277 . S
Cd270 O279 2.356 . S
C271 O276 1.209 . S
C271 O278 1.226 . S
O272 Cd268 2.273 . S
O272 Cd270 2.411 . S
O272 C275 1.320 . S
O273 Cd270 2.333 . S
O273 C275 1.214 . S
O274 Cd270 2.352 . S
O274 C277 1.258 . S
C275 O272 1.320 . S
C275 O273 1.214 . S
O276 Cd268 2.277 . S
O276 C271 1.209 . S
C277 O274 1.258 . S
C277 O279 1.282 . S
O278 Cd270 2.277 . S
O278 C271 1.226 . S
O279 Cd270 2.356 . S
O279 C277 1.282 . S
C280 O281 1.306 . S
C280 O283 1.160 . S
O281 C280 1.306 . S
O281 Cd282 2.228 . S
Cd282 O281 2.228 . S
Cd282 O286 2.273 . S
Cd282 O290 2.277 . S
O283 C280 1.160 . S
O283 Cd284 2.203 . S
Cd284 O283 2.203 . S
Cd284 O286 2.411 . S
Cd284 O287 2.333 . S
Cd284 O288 2.352 . S
Cd284 O292 2.277 . S
Cd284 O293 2.356 . S
C285 O290 1.209 . S
C285 O292 1.226 . S
O286 Cd282 2.273 . S
O286 Cd284 2.411 . S
O286 C289 1.320 . S
O287 Cd284 2.333 . S
O287 C289 1.214 . S
O288 Cd284 2.352 . S
O288 C291 1.258 . S
C289 O286 1.320 . S
C289 O287 1.214 . S
O290 Cd282 2.277 . S
O290 C285 1.209 . S
C291 O288 1.258 . S
C291 O293 1.282 . S
O292 Cd284 2.277 . S
O292 C285 1.226 . S
O293 Cd284 2.356 . S
O293 C291 1.282 . S
C294 O295 1.306 . S
C294 O297 1.160 . S
O295 C294 1.306 . S
O295 Cd296 2.228 . S
Cd296 O295 2.228 . S
Cd296 O300 2.273 . S
Cd296 O304 2.277 . S
O297 C294 1.160 . S
O297 Cd298 2.203 . S
Cd298 O297 2.203 . S
Cd298 O300 2.411 . S
Cd298 O301 2.333 1_556 S
Cd298 O302 2.352 . S
Cd298 O306 2.277 . S
Cd298 O307 2.356 . S
C299 O304 1.209 . S
C299 O306 1.226 . S
O300 Cd296 2.273 . S
O300 Cd298 2.411 . S
O300 C303 1.320 1_556 S
O301 Cd298 2.333 1_554 S
O301 C303 1.214 . S
O302 Cd298 2.352 . S
O302 C305 1.258 . S
C303 O300 1.320 1_554 S
C303 O301 1.214 . S
O304 Cd296 2.277 . S
O304 C299 1.209 . S
C305 O302 1.258 . S
C305 O307 1.282 . S
O306 Cd298 2.277 . S
O306 C299 1.226 . S
O307 Cd298 2.356 . S
O307 C305 1.282 . S
C308 O309 1.306 . S
C308 O311 1.160 . S
O309 C308 1.306 . S
O309 Cd310 2.228 1_556 S
Cd310 O309 2.228 1_554 S
Cd310 O314 2.273 . S
Cd310 O318 2.277 . S
O311 C308 1.160 . S
O311 Cd312 2.203 1_556 S
Cd312 O311 2.203 1_554 S
Cd312 O314 2.411 . S
Cd312 O315 2.333 . S
Cd312 O316 2.352 . S
Cd312 O320 2.277 . S
Cd312 O321 2.356 . S
C313 O318 1.209 . S
C313 O320 1.226 . S
O314 Cd310 2.273 . S
O314 Cd312 2.411 . S
O314 C317 1.320 . S
O315 Cd312 2.333 . S
O315 C317 1.214 . S
O316 Cd312 2.352 . S
O316 C319 1.258 . S
C317 O314 1.320 . S
C317 O315 1.214 . S
O318 Cd310 2.277 . S
O318 C313 1.209 . S
C319 O316 1.258 . S
C319 O321 1.282 . S
O320 Cd312 2.277 . S
O320 C313 1.226 . S
O321 Cd312 2.356 . S
O321 C319 1.282 . S
C322 O323 1.306 . S
C322 O325 1.160 . S
O323 C322 1.306 . S
O323 Cd324 2.228 . S
Cd324 O323 2.228 . S
Cd324 O328 2.273 . S
Cd324 O332 2.277 . S
O325 C322 1.160 . S
O325 Cd326 2.203 . S
Cd326 O325 2.203 . S
Cd326 O328 2.411 . S
Cd326 O329 2.333 . S
Cd326 O330 2.352 . S
Cd326 O334 2.277 . S
Cd326 O335 2.356 . S
C327 O332 1.209 . S
C327 O334 1.226 . S
O328 Cd324 2.273 . S
O328 Cd326 2.411 . S
O328 C331 1.320 . S
O329 Cd326 2.333 . S
O329 C331 1.214 . S
O330 Cd326 2.352 . S
O330 C333 1.258 . S
C331 O328 1.320 . S
C331 O329 1.214 . S
O332 Cd324 2.277 . S
O332 C327 1.209 . S
C333 O330 1.258 . S
C333 O335 1.282 . S
O334 Cd326 2.277 . S
O334 C327 1.226 . S
O335 Cd326 2.356 . S
O335 C333 1.282 . S
C336 O337 1.306 . S
C336 O339 1.160 . S
O337 C336 1.306 . S
O337 Cd338 2.228 . S
Cd338 O337 2.228 . S
Cd338 O342 2.273 . S
Cd338 O346 2.277 . S
O339 C336 1.160 . S
O339 Cd340 2.203 . S
Cd340 O339 2.203 . S
Cd340 O342 2.411 . S
Cd340 O343 2.333 . S
Cd340 O344 2.352 . S
Cd340 O348 2.277 . S
Cd340 O349 2.356 . S
C341 O346 1.209 . S
C341 O348 1.226 . S
O342 Cd338 2.273 . S
O342 Cd340 2.411 . S
O342 C345 1.320 . S
O343 Cd340 2.333 . S
O343 C345 1.214 . S
O344 Cd340 2.352 . S
O344 C347 1.258 . S
C345 O342 1.320 . S
C345 O343 1.214 . S
O346 Cd338 2.277 . S
O346 C341 1.209 . S
C347 O344 1.258 . S
C347 O349 1.282 . S
O348 Cd340 2.277 . S
O348 C341 1.226 . S
O349 Cd340 2.356 . S
O349 C347 1.282 . S
C350 O351 1.306 . S
C350 O353 1.160 . S
O351 C350 1.306 . S
O351 Cd352 2.228 . S
Cd352 O351 2.228 . S
Cd352 O356 2.273 . S
Cd352 O360 2.277 . S
O353 C350 1.160 . S
O353 Cd354 2.203 . S
Cd354 O353 2.203 . S
Cd354 O356 2.411 . S
Cd354 O357 2.333 . S
Cd354 O358 2.352 . S
Cd354 O362 2.277 . S
Cd354 O363 2.356 . S
C355 O360 1.209 . S
C355 O362 1.226 . S
O356 Cd352 2.273 . S
O356 Cd354 2.411 . S
O356 C359 1.320 . S
O357 Cd354 2.333 . S
O357 C359 1.214 . S
O358 Cd354 2.352 . S
O358 C361 1.258 . S
C359 O356 1.320 . S
C359 O357 1.214 . S
O360 Cd352 2.277 . S
O360 C355 1.209 . S
C361 O358 1.258 . S
C361 O363 1.282 . S
O362 Cd354 2.277 . S
O362 C355 1.226 . S
O363 Cd354 2.356 . S
O363 C361 1.282 . S
C364 O365 1.306 . S
C364 O367 1.160 . S
O365 C364 1.306 . S
O365 Cd366 2.228 1_556 S
Cd366 O365 2.228 1_554 S
Cd366 O370 2.273 . S
Cd366 O374 2.277 . S
O367 C364 1.160 . S
O367 Cd368 2.203 1_556 S
Cd368 O367 2.203 1_554 S
Cd368 O370 2.411 . S
Cd368 O371 2.333 . S
Cd368 O372 2.352 . S
Cd368 O376 2.277 . S
Cd368 O377 2.356 . S
C369 O374 1.209 . S
C369 O376 1.226 . S
O370 Cd366 2.273 . S
O370 Cd368 2.411 . S
O370 C373 1.320 . S
O371 Cd368 2.333 . S
O371 C373 1.214 . S
O372 Cd368 2.352 . S
O372 C375 1.258 . S
C373 O370 1.320 . S
C373 O371 1.214 . S
O374 Cd366 2.277 . S
O374 C369 1.209 . S
C375 O372 1.258 . S
C375 O377 1.282 . S
O376 Cd368 2.277 . S
O376 C369 1.226 . S
O377 Cd368 2.356 . S
O377 C375 1.282 . S
C378 O379 1.306 . S
C378 O381 1.160 . S
O379 C378 1.306 . S
O379 Cd380 2.228 . S
Cd380 O379 2.228 . S
Cd380 O384 2.273 . S
Cd380 O388 2.277 . S
O381 C378 1.160 . S
O381 Cd382 2.203 . S
Cd382 O381 2.203 . S
Cd382 O384 2.411 . S
Cd382 O385 2.333 1_556 S
Cd382 O386 2.352 . S
Cd382 O390 2.277 . S
Cd382 O391 2.356 . S
C383 O388 1.209 . S
C383 O390 1.226 . S
O384 Cd380 2.273 . S
O384 Cd382 2.411 . S
O384 C387 1.320 1_556 S
O385 Cd382 2.333 1_554 S
O385 C387 1.214 . S
O386 Cd382 2.352 . S
O386 C389 1.258 . S
C387 O384 1.320 1_554 S
C387 O385 1.214 . S
O388 Cd380 2.277 . S
O388 C383 1.209 . S
C389 O386 1.258 . S
C389 O391 1.282 . S
O390 Cd382 2.277 . S
O390 C383 1.226 . S
O391 Cd382 2.356 . S
O391 C389 1.282 . S
C392 O393 1.306 . S
C392 O395 1.160 . S
O393 C392 1.306 . S
O393 Cd394 2.228 . S
Cd394 O393 2.228 . S
Cd394 O398 2.273 . S
Cd394 O402 2.277 . S
O395 C392 1.160 . S
O395 Cd396 2.203 . S
Cd396 O395 2.203 . S
Cd396 O398 2.411 . S
Cd396 O399 2.333 . S
Cd396 O400 2.352 . S
Cd396 O404 2.277 . S
Cd396 O405 2.356 . S
C397 O402 1.209 . S
C397 O404 1.226 . S
O398 Cd394 2.273 . S
O398 Cd396 2.411 . S
O398 C401 1.320 . S
O399 Cd396 2.333 . S
O399 C401 1.214 . S
O400 Cd396 2.352 . S
O400 C403 1.258 . S
C401 O398 1.320 . S
C401 O399 1.214 . S
O402 Cd394 2.277 . S
O402 C397 1.209 . S
C403 O400 1.258 . S
C403 O405 1.282 . S
O404 Cd396 2.277 . S
O404 C397 1.226 . S
O405 Cd396 2.356 . S
O405 C403 1.282 . S
C406 O407 1.306 . S
C406 O409 1.160 . S
O407 C406 1.306 . S
O407 Cd408 2.228 . S
Cd408 O407 2.228 . S
Cd408 O412 2.273 . S
Cd408 O416 2.277 . S
O409 C406 1.160 . S
O409 Cd410 2.203 . S
Cd410 O409 2.203 . S
Cd410 O412 2.411 . S
Cd410 O413 2.333 . S
Cd410 O414 2.352 . S
Cd410 O418 2.277 . S
Cd410 O419 2.356 . S
C411 O416 1.209 . S
C411 O418 1.226 . S
O412 Cd408 2.273 . S
O412 Cd410 2.411 . S
O412 C415 1.320 . S
O413 Cd410 2.333 . S
O413 C415 1.214 . S
O414 Cd410 2.352 . S
O414 C417 1.258 . S
C415 O412 1.320 . S
C415 O413 1.214 . S
O416 Cd408 2.277 . S
O416 C411 1.209 . S
C417 O414 1.258 . S
C417 O419 1.282 . S
O418 Cd410 2.277 . S
O418 C411 1.226 . S
O419 Cd410 2.356 . S
O419 C417 1.282 . S
C420 O421 1.306 . S
C420 O423 1.160 . S
O421 C420 1.306 . S
O421 Cd422 2.228 . S
Cd422 O421 2.228 . S
Cd422 O426 2.273 1_554 S
Cd422 O430 2.277 . S
O423 C420 1.160 . S
O423 Cd424 2.203 . S
Cd424 O423 2.203 . S
Cd424 O426 2.411 1_554 S
Cd424 O427 2.333 1_554 S
Cd424 O428 2.352 . S
Cd424 O432 2.277 . S
Cd424 O433 2.356 . S
C425 O430 1.209 . S
C425 O432 1.226 . S
O426 Cd422 2.273 1_556 S
O426 Cd424 2.411 1_556 S
O426 C429 1.320 . S
O427 Cd424 2.333 1_556 S
O427 C429 1.214 . S
O428 Cd424 2.352 . S
O428 C431 1.258 . S
C429 O426 1.320 . S
C429 O427 1.214 . S
O430 Cd422 2.277 . S
O430 C425 1.209 . S
C431 O428 1.258 . S
C431 O433 1.282 . S
O432 Cd424 2.277 . S
O432 C425 1.226 . S
O433 Cd424 2.356 . S
O433 C431 1.282 . S
C434 O435 1.306 1_554 S
C434 O437 1.160 1_554 S
O435 C434 1.306 1_556 S
O435 Cd436 2.228 . S
Cd436 O435 2.228 . S
Cd436 O440 2.273 . S
Cd436 O444 2.277 . S
O437 C434 1.160 1_556 S
O437 Cd438 2.203 . S
Cd438 O437 2.203 . S
Cd438 O440 2.411 . S
Cd438 O441 2.333 . S
Cd438 O442 2.352 . S
Cd438 O446 2.277 . S
Cd438 O447 2.356 . S
C439 O444 1.209 . S
C439 O446 1.226 . S
O440 Cd436 2.273 . S
O440 Cd438 2.411 . S
O440 C443 1.320 . S
O441 Cd438 2.333 . S
O441 C443 1.214 . S
O442 Cd438 2.352 . S
O442 C445 1.258 . S
C443 O440 1.320 . S
C443 O441 1.214 . S
O444 Cd436 2.277 . S
O444 C439 1.209 . S
C445 O442 1.258 . S
C445 O447 1.282 . S
O446 Cd438 2.277 . S
O446 C439 1.226 . S
O447 Cd438 2.356 . S
O447 C445 1.282 . S
C109 C11 1.811 1_556 S
C25 C67 1.811 . S
C81 C39 1.811 . S
C53 C95 1.810 . S
C123 C221 1.811 . S
C137 C179 1.811 1_556 S
C151 C193 1.810 . S
C165 C207 1.811 . S
C235 C333 1.811 . S
C249 C291 1.811 . S
C305 C263 1.811 1_556 S
C319 C277 1.811 . S
C347 C445 1.811 . S
C403 C361 1.811 . S
C417 C375 1.811 . S
C389 C431 1.811 1_556 S
C9 C93 0.681 . S
C23 C107 0.681 1_565 S
C65 C37 0.681 . S
C51 C79 0.681 1_545 S
C121 C205 0.681 . S
C135 C219 0.681 1_545 S
C177 C149 0.681 . S
C191 C163 0.681 1_545 S
C233 C317 0.681 . S
C331 C247 0.681 . S
C289 C261 0.681 . S
C275 C303 0.681 . S
C345 C429 0.681 . S
C359 C443 0.681 . S
C401 C373 0.681 . S
C415 C387 0.681 . S
C5 C425 1.516 . S
C19 C215 1.516 1_455 S
C33 C397 1.516 . S
C47 C187 1.516 . S
C61 C369 1.516 . S
C75 C159 1.516 . S
C89 C341 1.516 . S
C131 C103 1.516 1_655 S
C313 C117 1.516 . S
C145 C285 1.516 . S
C257 C173 1.516 . S
C229 C201 1.516 . S
C243 C439 1.517 . S
C271 C411 1.516 1_655 S
C299 C383 1.516 1_655 S
C355 C327 1.517 . S
C0 C84 1.569 . S
C14 C98 1.569 1_565 S
C56 C28 1.569 . S
C42 C70 1.569 1_545 S
C112 C196 1.569 . S
C126 C210 1.569 1_545 S
C168 C140 1.569 . S
C154 C182 1.569 1_565 S
C308 C224 1.569 . S
C322 C238 1.569 . S
C280 C252 1.569 . S
C294 C266 1.569 . S
C420 C336 1.569 . S
C434 C350 1.569 . S
C364 C392 1.569 . S
C406 C378 1.569 . S
