# Generated by pormake.
# Topology afi, (4)-cn, num edge types: 1
# Building blocks:
#     Node 0, Type 0, BuildingBlock: CEKHIL_clean_sbu_0, # of connection points: 4
#     Node 1, Type 0, BuildingBlock: CEKHIL_clean_sbu_0, # of connection points: 4
#     Node 2, Type 0, BuildingBlock: CEKHIL_clean_sbu_0, # of connection points: 4
#     Node 3, Type 0, BuildingBlock: CEKHIL_clean_sbu_0, # of connection points: 4
#     Node 4, Type 0, BuildingBlock: CEKHIL_clean_sbu_0, # of connection points: 4
#     Node 5, Type 0, BuildingBlock: CEKHIL_clean_sbu_0, # of connection points: 4
#     Node 6, Type 0, BuildingBlock: CEKHIL_clean_sbu_0, # of connection points: 4
#     Node 7, Type 0, BuildingBlock: CEKHIL_clean_sbu_0, # of connection points: 4
#     Node 8, Type 0, BuildingBlock: CEKHIL_clean_sbu_0, # of connection points: 4
#     Node 9, Type 0, BuildingBlock: CEKHIL_clean_sbu_0, # of connection points: 4
#     Node 10, Type 0, BuildingBlock: CEKHIL_clean_sbu_0, # of connection points: 4
#     Node 11, Type 0, BuildingBlock: CEKHIL_clean_sbu_0, # of connection points: 4
#     Node 12, Type 0, BuildingBlock: CEKHIL_clean_sbu_0, # of connection points: 4
#     Node 13, Type 0, BuildingBlock: CEKHIL_clean_sbu_0, # of connection points: 4
#     Node 14, Type 0, BuildingBlock: CEKHIL_clean_sbu_0, # of connection points: 4
#     Node 15, Type 0, BuildingBlock: CEKHIL_clean_sbu_0, # of connection points: 4
#     Node 16, Type 0, BuildingBlock: CEKHIL_clean_sbu_0, # of connection points: 4
#     Node 17, Type 0, BuildingBlock: CEKHIL_clean_sbu_0, # of connection points: 4
#     Node 18, Type 0, BuildingBlock: CEKHIL_clean_sbu_0, # of connection points: 4
#     Node 19, Type 0, BuildingBlock: CEKHIL_clean_sbu_0, # of connection points: 4
#     Node 20, Type 0, BuildingBlock: CEKHIL_clean_sbu_0, # of connection points: 4
#     Node 21, Type 0, BuildingBlock: CEKHIL_clean_sbu_0, # of connection points: 4
#     Node 22, Type 0, BuildingBlock: CEKHIL_clean_sbu_0, # of connection points: 4
#     Node 23, Type 0, BuildingBlock: CEKHIL_clean_sbu_0, # of connection points: 4
#     Edge 24, Type (0, 0), BuildingBlock: UVAHIK_clean_linker_0, # of connection points: 2
#     Edge 25, Type (0, 0), BuildingBlock: UVAHIK_clean_linker_0, # of connection points: 2
#     Edge 26, Type (0, 0), BuildingBlock: UVAHIK_clean_linker_0, # of connection points: 2
#     Edge 27, Type (0, 0), BuildingBlock: UVAHIK_clean_linker_0, # of connection points: 2
#     Edge 28, Type (0, 0), BuildingBlock: UVAHIK_clean_linker_0, # of connection points: 2
#     Edge 29, Type (0, 0), BuildingBlock: UVAHIK_clean_linker_0, # of connection points: 2
#     Edge 30, Type (0, 0), BuildingBlock: UVAHIK_clean_linker_0, # of connection points: 2
#     Edge 31, Type (0, 0), BuildingBlock: UVAHIK_clean_linker_0, # of connection points: 2
#     Edge 32, Type (0, 0), BuildingBlock: UVAHIK_clean_linker_0, # of connection points: 2
#     Edge 33, Type (0, 0), BuildingBlock: UVAHIK_clean_linker_0, # of connection points: 2
#     Edge 34, Type (0, 0), BuildingBlock: UVAHIK_clean_linker_0, # of connection points: 2
#     Edge 35, Type (0, 0), BuildingBlock: UVAHIK_clean_linker_0, # of connection points: 2
#     Edge 36, Type (0, 0), BuildingBlock: UVAHIK_clean_linker_0, # of connection points: 2
#     Edge 37, Type (0, 0), BuildingBlock: UVAHIK_clean_linker_0, # of connection points: 2
#     Edge 38, Type (0, 0), BuildingBlock: UVAHIK_clean_linker_0, # of connection points: 2
#     Edge 39, Type (0, 0), BuildingBlock: UVAHIK_clean_linker_0, # of connection points: 2
#     Edge 40, Type (0, 0), BuildingBlock: UVAHIK_clean_linker_0, # of connection points: 2
#     Edge 41, Type (0, 0), BuildingBlock: UVAHIK_clean_linker_0, # of connection points: 2
#     Edge 42, Type (0, 0), BuildingBlock: UVAHIK_clean_linker_0, # of connection points: 2
#     Edge 43, Type (0, 0), BuildingBlock: UVAHIK_clean_linker_0, # of connection points: 2
#     Edge 44, Type (0, 0), BuildingBlock: UVAHIK_clean_linker_0, # of connection points: 2
#     Edge 45, Type (0, 0), BuildingBlock: UVAHIK_clean_linker_0, # of connection points: 2
#     Edge 46, Type (0, 0), BuildingBlock: UVAHIK_clean_linker_0, # of connection points: 2
#     Edge 47, Type (0, 0), BuildingBlock: UVAHIK_clean_linker_0, # of connection points: 2
#     Edge 48, Type (0, 0), BuildingBlock: UVAHIK_clean_linker_0, # of connection points: 2
#     Edge 49, Type (0, 0), BuildingBlock: UVAHIK_clean_linker_0, # of connection points: 2
#     Edge 50, Type (0, 0), BuildingBlock: UVAHIK_clean_linker_0, # of connection points: 2
#     Edge 51, Type (0, 0), BuildingBlock: UVAHIK_clean_linker_0, # of connection points: 2
#     Edge 52, Type (0, 0), BuildingBlock: UVAHIK_clean_linker_0, # of connection points: 2
#     Edge 53, Type (0, 0), BuildingBlock: UVAHIK_clean_linker_0, # of connection points: 2
#     Edge 54, Type (0, 0), BuildingBlock: UVAHIK_clean_linker_0, # of connection points: 2
#     Edge 55, Type (0, 0), BuildingBlock: UVAHIK_clean_linker_0, # of connection points: 2
#     Edge 56, Type (0, 0), BuildingBlock: UVAHIK_clean_linker_0, # of connection points: 2
#     Edge 57, Type (0, 0), BuildingBlock: UVAHIK_clean_linker_0, # of connection points: 2
#     Edge 58, Type (0, 0), BuildingBlock: UVAHIK_clean_linker_0, # of connection points: 2
#     Edge 59, Type (0, 0), BuildingBlock: UVAHIK_clean_linker_0, # of connection points: 2
#     Edge 60, Type (0, 0), BuildingBlock: UVAHIK_clean_linker_0, # of connection points: 2
#     Edge 61, Type (0, 0), BuildingBlock: UVAHIK_clean_linker_0, # of connection points: 2
#     Edge 62, Type (0, 0), BuildingBlock: UVAHIK_clean_linker_0, # of connection points: 2
#     Edge 63, Type (0, 0), BuildingBlock: UVAHIK_clean_linker_0, # of connection points: 2
#     Edge 64, Type (0, 0), BuildingBlock: UVAHIK_clean_linker_0, # of connection points: 2
#     Edge 65, Type (0, 0), BuildingBlock: UVAHIK_clean_linker_0, # of connection points: 2
#     Edge 66, Type (0, 0), BuildingBlock: UVAHIK_clean_linker_0, # of connection points: 2
#     Edge 67, Type (0, 0), BuildingBlock: UVAHIK_clean_linker_0, # of connection points: 2
#     Edge 68, Type (0, 0), BuildingBlock: UVAHIK_clean_linker_0, # of connection points: 2
#     Edge 69, Type (0, 0), BuildingBlock: UVAHIK_clean_linker_0, # of connection points: 2
#     Edge 70, Type (0, 0), BuildingBlock: UVAHIK_clean_linker_0, # of connection points: 2
#     Edge 71, Type (0, 0), BuildingBlock: UVAHIK_clean_linker_0, # of connection points: 2
# Relax obj value: 0.101
# Max RMSD: 0.107
# Mean RMSD: 0.107
data_MOF--net-afi--node1-CEKHIL_clean_sbu_0--edge1-UVAHIK_clean_linker_0
_symmetry_space_group_name_H-M    P1
_symmetry_Int_Tables_number       1
_symmetry_cell_setting            triclinic
loop_
_symmetry_equiv_pos_as_xyz
'x, y, z'
_cell_length_a     87.108029
_cell_length_b     87.190402
_cell_length_c     50.4757
_cell_angle_alpha  89.985259
_cell_angle_beta   90.038504
_cell_angle_gamma 120.02948
loop_
_atom_site_label
_atom_site_type_symbol
_atom_site_fract_x
_atom_site_fract_y
_atom_site_fract_z
_atom_type_partial_charge
Co0 Co 0.46499 0.13014 0.19188 0.0
O1 O 0.47559 0.1556 0.1915 0.0
O2 O 0.44885 0.13704 0.207 0.0
C3 C 0.48915 0.12984 0.20779 0.0
O4 O 0.44992 0.10326 0.19744 0.0
Co5 Co 0.47988 0.11082 0.15774 0.0
O6 O 0.46272 0.08942 0.17735 0.0
C7 C 0.45811 0.12402 0.13244 0.0
C8 C 0.46122 0.15334 0.20281 0.0
C9 C 0.45074 0.08923 0.19201 0.0
O10 O 0.45482 0.12859 0.15508 0.0
O11 O 0.46849 0.11774 0.12939 0.0
O12 O 0.47849 0.13166 0.2238 0.0
O13 O 0.48569 0.12969 0.18291 0.0
Co14 Co 0.33707 0.46173 0.19206 0.0
O15 O 0.32196 0.47204 0.1919 0.0
O16 O 0.31403 0.44533 0.20711 0.0
C17 C 0.36133 0.48604 0.20815 0.0
O18 O 0.34923 0.44692 0.19723 0.0
Co19 Co 0.37148 0.47734 0.15817 0.0
O20 O 0.37662 0.46148 0.17964 0.0
C21 C 0.33661 0.45518 0.13258 0.0
C22 C 0.30994 0.4576 0.20313 0.0
C23 C 0.36471 0.44874 0.19318 0.0
O24 O 0.32859 0.45175 0.15513 0.0
O25 O 0.35328 0.46567 0.12972 0.0
O26 O 0.34895 0.47516 0.22412 0.0
O27 O 0.35803 0.48263 0.18327 0.0
Co28 Co 0.87688 0.33679 0.19265 0.0
O29 O 0.85144 0.32178 0.19333 0.0
O30 O 0.87042 0.31376 0.20748 0.0
C31 C 0.87712 0.36103 0.20928 0.0
O32 O 0.90395 0.34889 0.19683 0.0
Co33 Co 0.89525 0.37115 0.15869 0.0
O34 O 0.91651 0.37632 0.1796 0.0
C35 C 0.88191 0.3363 0.13289 0.0
C36 C 0.854 0.30975 0.20419 0.0
C37 C 0.91753 0.36439 0.19273 0.0
O38 O 0.87774 0.32832 0.15548 0.0
O39 O 0.88811 0.35296 0.1301 0.0
O40 O 0.87586 0.34865 0.22504 0.0
O41 O 0.87686 0.35775 0.18432 0.0
Co42 Co 0.5431 0.87561 0.19194 0.0
O43 O 0.53236 0.85014 0.19163 0.0
O44 O 0.55917 0.8686 0.20706 0.0
C45 C 0.519 0.87605 0.20783 0.0
O46 O 0.55833 0.90249 0.19737 0.0
Co47 Co 0.52834 0.89505 0.15777 0.0
O48 O 0.54574 0.91649 0.17709 0.0
C49 C 0.5499 0.88163 0.13249 0.0
C50 C 0.54672 0.85233 0.20291 0.0
C51 C 0.55769 0.9166 0.19176 0.0
O52 O 0.55319 0.87704 0.15514 0.0
O53 O 0.5396 0.888 0.12943 0.0
O54 O 0.52966 0.87421 0.22386 0.0
O55 O 0.52244 0.87617 0.18295 0.0
Co56 Co 0.67105 0.54358 0.19216 0.0
O57 O 0.68566 0.53272 0.193 0.0
O58 O 0.69411 0.55977 0.20731 0.0
C59 C 0.64625 0.51986 0.20814 0.0
O60 O 0.65944 0.55887 0.19635 0.0
Co61 Co 0.63735 0.52862 0.15681 0.0
O62 O 0.63316 0.5463 0.17513 0.0
C63 C 0.6728 0.54601 0.13258 0.0
C64 C 0.69788 0.54723 0.20386 0.0
C65 C 0.64474 0.55822 0.19017 0.0
O66 O 0.67991 0.55286 0.1551 0.0
O67 O 0.65638 0.53446 0.12987 0.0
O68 O 0.65865 0.53058 0.22428 0.0
O69 O 0.64989 0.52303 0.1833 0.0
Co70 Co 0.13186 0.66907 0.19257 0.0
O71 O 0.15711 0.68539 0.19142 0.0
O72 O 0.13742 0.69156 0.20835 0.0
C73 C 0.13366 0.64556 0.20769 0.0
O74 O 0.10491 0.65557 0.19874 0.0
Co75 Co 0.11391 0.63476 0.15852 0.0
O76 O 0.09397 0.62782 0.18342 0.0
C77 C 0.1248 0.6694 0.13345 0.0
C78 C 0.15395 0.69672 0.20333 0.0
C79 C 0.09229 0.63932 0.1967 0.0
O80 O 0.12924 0.67731 0.15608 0.0
O81 O 0.11926 0.65287 0.13031 0.0
O82 O 0.13477 0.65759 0.22406 0.0
O83 O 0.13294 0.64884 0.18294 0.0
Co84 Co 0.87719 0.54322 0.30944 0.0
O85 O 0.85192 0.53376 0.31046 0.0
O86 O 0.8711 0.55982 0.29358 0.0
C87 C 0.87572 0.51803 0.29458 0.0
O88 O 0.90418 0.55692 0.3033 0.0
Co89 Co 0.89529 0.5272 0.34399 0.0
O90 O 0.91473 0.53965 0.31813 0.0
C91 C 0.88456 0.55125 0.36845 0.0
C92 C 0.85465 0.54804 0.29839 0.0
C93 C 0.91656 0.55291 0.3049 0.0
O94 O 0.87971 0.55422 0.34579 0.0
O95 O 0.89033 0.54046 0.37183 0.0
O96 O 0.87449 0.52881 0.27808 0.0
O97 O 0.87639 0.5221 0.31928 0.0
Co98 Co 0.33657 0.87621 0.30774 0.0
O99 O 0.32099 0.85083 0.30814 0.0
O100 O 0.31388 0.87003 0.29197 0.0
C101 C 0.36083 0.87587 0.2925 0.0
O102 O 0.34919 0.9031 0.30243 0.0
Co103 Co 0.3703 0.89439 0.34313 0.0
O104 O 0.37525 0.91633 0.32424 0.0
C105 C 0.33486 0.87841 0.36718 0.0
C106 C 0.30929 0.8536 0.29653 0.0
C107 C 0.36402 0.91693 0.30871 0.0
O108 O 0.3279 0.87786 0.3444 0.0
O109 O 0.35108 0.88261 0.37025 0.0
O110 O 0.34863 0.87439 0.27612 0.0
O111 O 0.35725 0.87599 0.31725 0.0
Co112 Co 0.46515 0.33661 0.30906 0.0
O113 O 0.47589 0.32191 0.30864 0.0
O114 O 0.44896 0.31357 0.29383 0.0
C115 C 0.48912 0.36119 0.29306 0.0
O116 O 0.44991 0.34838 0.30458 0.0
Co117 Co 0.48037 0.37064 0.34369 0.0
O118 O 0.46429 0.37565 0.3225 0.0
C119 C 0.45893 0.33552 0.36872 0.0
C120 C 0.46146 0.30976 0.29754 0.0
C121 C 0.45157 0.36374 0.30892 0.0
O122 O 0.45545 0.32777 0.34596 0.0
O123 O 0.46921 0.35219 0.37192 0.0
O124 O 0.4783 0.34882 0.27701 0.0
O125 O 0.48589 0.3577 0.31794 0.0
Co126 Co 0.13058 0.46184 0.30888 0.0
O127 O 0.15601 0.47221 0.30943 0.0
O128 O 0.13736 0.44554 0.29389 0.0
C129 C 0.13074 0.48619 0.29281 0.0
O130 O 0.1036 0.44702 0.30335 0.0
Co131 Co 0.11165 0.4773 0.34269 0.0
O132 O 0.09067 0.4614 0.32115 0.0
C133 C 0.12423 0.4551 0.36831 0.0
C134 C 0.15369 0.45783 0.29818 0.0
C135 C 0.08991 0.44876 0.30746 0.0
O136 O 0.12887 0.45174 0.34575 0.0
O137 O 0.11806 0.46558 0.37119 0.0
O138 O 0.13233 0.47537 0.27686 0.0
O139 O 0.13048 0.48271 0.31769 0.0
Co140 Co 0.67117 0.12942 0.30933 0.0
O141 O 0.68588 0.15489 0.31042 0.0
O142 O 0.69428 0.13672 0.29407 0.0
C143 C 0.64658 0.12908 0.29392 0.0
O144 O 0.65955 0.10263 0.303 0.0
Co145 Co 0.63696 0.10934 0.34333 0.0
O146 O 0.63277 0.08834 0.32267 0.0
C147 C 0.672 0.12275 0.36855 0.0
C148 C 0.6981 0.15291 0.29887 0.0
C149 C 0.64468 0.08844 0.30793 0.0
O150 O 0.67986 0.12756 0.34591 0.0
O151 O 0.6553 0.11625 0.37164 0.0
O152 O 0.65909 0.1312 0.27771 0.0
O153 O 0.64992 0.12862 0.31872 0.0
Co154 Co 0.54336 0.669 0.30793 0.0
O155 O 0.53237 0.68348 0.30736 0.0
O156 O 0.55932 0.692 0.29245 0.0
C157 C 0.51953 0.6441 0.29237 0.0
O158 O 0.5587 0.65746 0.30348 0.0
Co159 Co 0.52868 0.63555 0.34373 0.0
O160 O 0.54656 0.63155 0.32564 0.0
C161 C 0.54663 0.67108 0.36754 0.0
C162 C 0.54673 0.69569 0.29617 0.0
C163 C 0.55827 0.64296 0.31018 0.0
O164 O 0.55305 0.67806 0.34479 0.0
O165 O 0.53507 0.65471 0.37062 0.0
O166 O 0.53009 0.65644 0.27606 0.0
O167 O 0.52289 0.64786 0.31715 0.0
Co168 Co 0.54339 0.8756 0.8093 0.0
O169 O 0.53269 0.85014 0.8103 0.0
O170 O 0.55931 0.86844 0.79414 0.0
C171 C 0.51912 0.87583 0.79373 0.0
O172 O 0.55853 0.90239 0.80305 0.0
Co173 Co 0.5291 0.89556 0.84314 0.0
O174 O 0.54594 0.91661 0.82255 0.0
C175 C 0.55074 0.88225 0.86855 0.0
C176 C 0.54694 0.85222 0.79882 0.0
C177 C 0.55781 0.91655 0.80791 0.0
O178 O 0.55385 0.87746 0.84595 0.0
O179 O 0.54051 0.88871 0.87155 0.0
O180 O 0.52958 0.87379 0.77759 0.0
O181 O 0.52286 0.87628 0.81856 0.0
Co182 Co 0.6706 0.54261 0.80833 0.0
O183 O 0.68506 0.5316 0.80676 0.0
O184 O 0.69363 0.55882 0.79318 0.0
C185 C 0.64567 0.51918 0.79205 0.0
O186 O 0.65912 0.55807 0.80494 0.0
Co187 Co 0.63707 0.52741 0.84402 0.0
O188 O 0.63308 0.54556 0.82679 0.0
C189 C 0.67259 0.54468 0.86801 0.0
C190 C 0.69727 0.54615 0.79603 0.0
C191 C 0.64459 0.55753 0.81174 0.0
O192 O 0.67963 0.55156 0.84547 0.0
O193 O 0.65618 0.53315 0.87079 0.0
O194 O 0.65807 0.53003 0.77605 0.0
O195 O 0.64938 0.52203 0.81693 0.0
Co196 Co 0.13114 0.66825 0.80949 0.0
O197 O 0.1566 0.6834 0.8103 0.0
O198 O 0.13789 0.69115 0.79405 0.0
C199 C 0.13112 0.64388 0.79388 0.0
O200 O 0.10424 0.65622 0.80371 0.0
Co201 Co 0.11187 0.63406 0.84373 0.0
O202 O 0.09036 0.62976 0.82433 0.0
C203 C 0.12498 0.66904 0.86886 0.0
C204 C 0.15423 0.69536 0.79874 0.0
C205 C 0.09016 0.64145 0.80942 0.0
O206 O 0.12937 0.67686 0.84616 0.0
O207 O 0.11887 0.65242 0.872 0.0
O208 O 0.13292 0.6563 0.77776 0.0
O209 O 0.13085 0.64721 0.81872 0.0
Co210 Co 0.46434 0.12945 0.80906 0.0
O211 O 0.47517 0.15493 0.81018 0.0
O212 O 0.44846 0.13677 0.79415 0.0
C213 C 0.48845 0.12906 0.79317 0.0
O214 O 0.44907 0.10267 0.8027 0.0
Co215 Co 0.4786 0.10932 0.84261 0.0
O216 O 0.46163 0.08834 0.82199 0.0
C217 C 0.45718 0.12274 0.86834 0.0
C218 C 0.4609 0.15296 0.79886 0.0
C219 C 0.44975 0.08847 0.80744 0.0
O220 O 0.45403 0.12759 0.8458 0.0
O221 O 0.46736 0.11621 0.87121 0.0
O222 O 0.47797 0.13122 0.7772 0.0
O223 O 0.48485 0.12862 0.81805 0.0
Co224 Co 0.33832 0.46351 0.80863 0.0
O225 O 0.32326 0.47386 0.80895 0.0
O226 O 0.31523 0.44716 0.79359 0.0
C227 C 0.36258 0.48782 0.79258 0.0
O228 O 0.35047 0.44869 0.80336 0.0
Co229 Co 0.37274 0.47906 0.84254 0.0
O230 O 0.37794 0.46341 0.82065 0.0
C231 C 0.33789 0.4568 0.86807 0.0
C232 C 0.31118 0.45944 0.79773 0.0
C233 C 0.36601 0.45063 0.8072 0.0
O234 O 0.32988 0.45347 0.84551 0.0
O235 O 0.35456 0.46726 0.87098 0.0
O236 O 0.35016 0.47698 0.77659 0.0
O237 O 0.3593 0.48438 0.81746 0.0
Co238 Co 0.8765 0.3369 0.80746 0.0
O239 O 0.85109 0.32181 0.80729 0.0
O240 O 0.86997 0.31377 0.79285 0.0
C241 C 0.87649 0.36098 0.79071 0.0
O242 O 0.90357 0.34915 0.8029 0.0
Co243 Co 0.89484 0.3714 0.84115 0.0
O244 O 0.91577 0.37679 0.81928 0.0
C245 C 0.88195 0.33669 0.86719 0.0
C246 C 0.85357 0.30971 0.79654 0.0
C247 C 0.91697 0.36487 0.80638 0.0
O248 O 0.87769 0.32864 0.84466 0.0
O249 O 0.88807 0.35335 0.86989 0.0
O250 O 0.87516 0.34855 0.77501 0.0
O251 O 0.8764 0.35781 0.81568 0.0
Co252 Co 0.13049 0.4615 0.69215 0.0
O253 O 0.15596 0.47207 0.6918 0.0
O254 O 0.13742 0.44539 0.70742 0.0
C255 C 0.13035 0.48577 0.70789 0.0
O256 O 0.10352 0.44648 0.69759 0.0
Co257 Co 0.11129 0.47655 0.65796 0.0
O258 O 0.09019 0.46023 0.67891 0.0
C259 C 0.12427 0.45457 0.63274 0.0
C260 C 0.15373 0.45776 0.70322 0.0
C261 C 0.08966 0.44784 0.69296 0.0
O262 O 0.12892 0.45131 0.65537 0.0
O263 O 0.11799 0.46494 0.62968 0.0
O264 O 0.13206 0.47509 0.72402 0.0
O265 O 0.13015 0.48221 0.68306 0.0
Co266 Co 0.6707 0.12924 0.69155 0.0
O267 O 0.68555 0.1547 0.69137 0.0
O268 O 0.69368 0.13615 0.70702 0.0
C269 C 0.64609 0.12884 0.70701 0.0
O270 O 0.65888 0.10235 0.69691 0.0
Co271 Co 0.63667 0.10994 0.65687 0.0
O272 O 0.63238 0.08847 0.67631 0.0
C273 C 0.67184 0.12333 0.63214 0.0
C274 C 0.69762 0.15245 0.70284 0.0
C275 C 0.6441 0.08828 0.69118 0.0
O276 O 0.67957 0.12783 0.6549 0.0
O277 O 0.65518 0.11702 0.62882 0.0
O278 O 0.65847 0.13063 0.72326 0.0
O279 O 0.64959 0.12876 0.6822 0.0
Co280 Co 0.5451 0.67001 0.69239 0.0
O281 O 0.53409 0.68449 0.69281 0.0
O282 O 0.56103 0.69302 0.70783 0.0
C283 C 0.52127 0.64516 0.70798 0.0
O284 O 0.56049 0.65855 0.69717 0.0
Co285 Co 0.53067 0.63642 0.65704 0.0
O286 O 0.54821 0.6323 0.67601 0.0
C287 C 0.54843 0.67184 0.63281 0.0
C288 C 0.54842 0.69667 0.70411 0.0
C289 C 0.55996 0.6439 0.69122 0.0
O290 O 0.55479 0.67899 0.65552 0.0
O291 O 0.53701 0.65542 0.62988 0.0
O292 O 0.53183 0.65754 0.72425 0.0
O293 O 0.52467 0.64882 0.68318 0.0
Co294 Co 0.87744 0.54358 0.6901 0.0
O295 O 0.85198 0.53294 0.68863 0.0
O296 O 0.87015 0.55927 0.70575 0.0
C297 C 0.87748 0.51909 0.70491 0.0
O298 O 0.90422 0.55857 0.69693 0.0
Co299 Co 0.8976 0.52965 0.65588 0.0
O300 O 0.91851 0.54618 0.67703 0.0
C301 C 0.88469 0.55183 0.63116 0.0
C302 C 0.85395 0.54699 0.7006 0.0
C303 C 0.9184 0.55786 0.69203 0.0
O304 O 0.87966 0.5546 0.65381 0.0
O305 O 0.8911 0.54159 0.62786 0.0
O306 O 0.87532 0.52933 0.72136 0.0
O307 O 0.87815 0.52318 0.68021 0.0
Co308 Co 0.33689 0.87582 0.69204 0.0
O309 O 0.3219 0.8504 0.6918 0.0
O310 O 0.31392 0.86905 0.70747 0.0
C311 C 0.3614 0.8762 0.70786 0.0
O312 O 0.34897 0.90273 0.69696 0.0
Co313 Co 0.37061 0.89416 0.65667 0.0
O314 O 0.37484 0.91616 0.67462 0.0
C315 C 0.33519 0.87765 0.63247 0.0
C316 C 0.30985 0.85273 0.70313 0.0
C317 C 0.36356 0.91666 0.69012 0.0
O318 O 0.32819 0.87707 0.6552 0.0
O319 O 0.35147 0.88203 0.62948 0.0
O320 O 0.34901 0.87451 0.72397 0.0
O321 O 0.35787 0.87605 0.68302 0.0
Co322 Co 0.46409 0.33594 0.69258 0.0
O323 O 0.47484 0.32124 0.69339 0.0
O324 O 0.44799 0.31308 0.70833 0.0
C325 C 0.48815 0.3607 0.708 0.0
O326 O 0.44886 0.34773 0.69682 0.0
Co327 Co 0.47909 0.36967 0.65726 0.0
O328 O 0.46293 0.37476 0.67806 0.0
C329 C 0.45763 0.33431 0.63295 0.0
C330 C 0.46047 0.30923 0.7048 0.0
C331 C 0.45037 0.36298 0.692 0.0
O332 O 0.45419 0.32674 0.65585 0.0
O333 O 0.46791 0.35094 0.62945 0.0
O334 O 0.47745 0.3485 0.72435 0.0
O335 O 0.48474 0.35695 0.68322 0.0
C336 C 0.43312 0.06998 0.2301 0.0
C337 C 0.43738 0.07193 0.20306 0.0
C338 C 0.4225 0.05306 0.24101 0.0
C339 C 0.40674 0.00536 0.22531 0.0
H340 H 0.37953 0.99718 0.28975 0.0
C341 C 0.36335 0.93554 0.27119 0.0
C342 C 0.36866 0.93433 0.29704 0.0
C343 C 0.36944 0.95213 0.2593 0.0
C344 C 0.38702 0.99931 0.27166 0.0
H345 H 0.43301 0.05803 0.16586 0.0
H346 H 0.41356 0.0288 0.18422 0.0
H347 H 0.39381 0.02648 0.26918 0.0
H348 H 0.38376 0.94952 0.33115 0.0
H349 H 0.39386 0.97844 0.31067 0.0
H350 H 0.3995 0.978 0.22765 0.0
C351 C 0.41906 0.04003 0.19754 0.0
C352 C 0.39538 0.01615 0.25994 0.0
C353 C 0.43005 0.05684 0.18686 0.0
C354 C 0.3795 0.95003 0.31116 0.0
C355 C 0.38521 0.96658 0.29952 0.0
C356 C 0.39806 0.98848 0.23669 0.0
C357 C 0.41556 0.03776 0.22495 0.0
C358 C 0.4056 0.01953 0.23674 0.0
C359 C 0.38054 0.96779 0.27331 0.0
C360 C 0.38832 0.98534 0.26015 0.0
H361 H 0.43877 0.08143 0.24304 0.0
H362 H 0.42039 0.05202 0.26221 0.0
H363 H 0.4148 0.00733 0.20795 0.0
H364 H 0.35509 0.92368 0.25979 0.0
H365 H 0.36566 0.95275 0.23904 0.0
C366 C 0.43811 0.38326 0.30722 0.0
C367 C 0.43829 0.36809 0.29811 0.0
C368 C 0.42644 0.38819 0.29651 0.0
C369 C 0.40164 0.3845 0.23594 0.0
H370 H 0.38158 0.40673 0.27955 0.0
C371 C 0.38408 0.43513 0.19463 0.0
C372 C 0.36917 0.43562 0.20424 0.0
C373 C 0.38916 0.42363 0.20556 0.0
C374 C 0.38682 0.40032 0.26707 0.0
H375 H 0.42589 0.34598 0.27078 0.0
H376 H 0.40544 0.35471 0.25183 0.0
H377 H 0.3961 0.39211 0.30049 0.0
H378 H 0.34766 0.42399 0.23267 0.0
H379 H 0.35667 0.40387 0.25204 0.0
H380 H 0.39265 0.393 0.20251 0.0
C381 C 0.41448 0.36279 0.26734 0.0
C382 C 0.39532 0.39209 0.27907 0.0
C383 C 0.42614 0.35774 0.27827 0.0
C384 C 0.35921 0.42397 0.2248 0.0
C385 C 0.36442 0.41251 0.23596 0.0
C386 C 0.39319 0.39278 0.22394 0.0
C387 C 0.41459 0.37815 0.27624 0.0
C388 C 0.40327 0.3845 0.26364 0.0
C389 C 0.37955 0.4123 0.22655 0.0
C390 C 0.3861 0.40122 0.23933 0.0
H391 H 0.44719 0.39156 0.32254 0.0
H392 H 0.42713 0.40024 0.30359 0.0
H393 H 0.40765 0.37886 0.22343 0.0
H394 H 0.39206 0.44382 0.17874 0.0
H395 H 0.40101 0.42406 0.19806 0.0
C396 C 0.9373 0.35817 0.22226 0.0
C397 C 0.93527 0.36884 0.20328 0.0
C398 C 0.95408 0.36321 0.23289 0.0
C399 C 1.00248 0.39334 0.22132 0.0
H400 H 0.0063 0.39233 0.29771 0.0
C401 C 0.0707 0.42451 0.27503 0.0
C402 C 0.07233 0.43565 0.29631 0.0
C403 C 0.05401 0.41315 0.26375 0.0
C404 C 0.00546 0.39264 0.27632 0.0
H405 H 0.94953 0.39297 0.18009 0.0
H406 H 0.97843 0.40165 0.19853 0.0
H407 H 0.97706 0.37842 0.27701 0.0
H408 H 0.05754 0.44302 0.32299 0.0
H409 H 0.02879 0.42342 0.3035 0.0
H410 H 0.03088 0.40826 0.22073 0.0
C411 C 0.96717 0.38933 0.20515 0.0
C412 C 0.98868 0.3845 0.26444 0.0
C413 C 0.95048 0.38439 0.19474 0.0
C414 C 0.05686 0.43473 0.30653 0.0
C415 C 0.04028 0.42333 0.29549 0.0
C416 C 0.01926 0.40142 0.2332 0.0
C417 C 0.96922 0.37893 0.22454 0.0
C418 C 0.98697 0.3852 0.23683 0.0
C419 C 0.03861 0.41253 0.27377 0.0
C420 C 0.02096 0.40162 0.26091 0.0
H421 H 0.9259 0.34611 0.2293 0.0
H422 H 0.95521 0.35485 0.24771 0.0
H423 H 1.00164 0.3939 0.19996 0.0
H424 H 0.08233 0.42488 0.26668 0.0
H425 H 0.05317 0.40494 0.2471 0.0
C426 C 0.57599 0.93599 0.22937 0.0
C427 C 0.5713 0.93392 0.20248 0.0
C428 C 0.58696 0.95294 0.23996 0.0
C429 C 0.60299 1.00064 0.22395 0.0
H430 H 0.63104 0.00884 0.28753 0.0
C431 C 0.64602 0.07049 0.26996 0.0
C432 C 0.64085 0.07136 0.29602 0.0
C433 C 0.64027 0.05401 0.25782 0.0
C434 C 0.62334 0.00672 0.26966 0.0
H435 H 0.57528 0.94764 0.16518 0.0
H436 H 0.59529 0.97691 0.18298 0.0
H437 H 0.61632 0.97948 0.26714 0.0
H438 H 0.62647 0.05579 0.33027 0.0
H439 H 0.61699 0.02713 0.30938 0.0
H440 H 0.61037 0.02803 0.22639 0.0
C441 C 0.58988 0.96575 0.19644 0.0
C442 C 0.61473 0.98984 0.25806 0.0
C443 C 0.57855 0.94892 0.18608 0.0
C444 C 0.63061 0.05551 0.31012 0.0
C445 C 0.62526 0.03912 0.29824 0.0
C446 C 0.61192 0.01755 0.23522 0.0
C447 C 0.59382 0.96816 0.22372 0.0
C448 C 0.60416 0.98644 0.23522 0.0
C449 C 0.62967 0.03818 0.27179 0.0
C450 C 0.62195 0.02071 0.25839 0.0
H451 H 0.57043 0.92461 0.24246 0.0
H452 H 0.58941 0.95409 0.26108 0.0
H453 H 0.5947 0.99866 0.20687 0.0
H454 H 0.65381 0.08248 0.2586 0.0
H455 H 0.64384 0.05362 0.23738 0.0
C456 C 0.57613 0.64177 0.27211 0.0
C457 C 0.57148 0.63883 0.299 0.0
C458 C 0.58672 0.63555 0.26088 0.0
C459 C 0.60195 0.60295 0.27478 0.0
H460 H 0.63001 0.62351 0.21145 0.0
C461 C 0.64585 0.57756 0.2278 0.0
C462 C 0.64052 0.57126 0.20187 0.0
C463 C 0.63979 0.58798 0.24002 0.0
C464 C 0.62228 0.61771 0.22922 0.0
H465 H 0.57513 0.62816 0.33564 0.0
H466 H 0.59452 0.61847 0.31677 0.0
H467 H 0.61558 0.63811 0.23284 0.0
H468 H 0.62548 0.57169 0.16792 0.0
H469 H 0.61547 0.59045 0.18898 0.0
H470 H 0.60914 0.58284 0.27133 0.0
C471 C 0.58934 0.62467 0.30377 0.0
C472 C 0.61384 0.62596 0.24141 0.0
C473 C 0.57837 0.63043 0.31476 0.0
C474 C 0.62977 0.57633 0.18795 0.0
C475 C 0.6241 0.58711 0.19993 0.0
C476 C 0.61074 0.595 0.26296 0.0
C477 C 0.59326 0.62661 0.27646 0.0
C478 C 0.60331 0.61858 0.26422 0.0
C479 C 0.6287 0.59268 0.22628 0.0
C480 C 0.62079 0.60215 0.2399 0.0
H481 H 0.57083 0.64806 0.25947 0.0
H482 H 0.58913 0.63716 0.23977 0.0
H483 H 0.59367 0.59645 0.29179 0.0
H484 H 0.654 0.57376 0.23907 0.0
H485 H 0.64351 0.59213 0.26038 0.0
C486 C 0.06925 0.64538 0.21699 0.0
C487 C 0.07492 0.6334 0.2098 0.0
C488 C 0.05241 0.6392 0.22834 0.0
C489 C 0.01822 0.60162 0.26616 0.0
H490 H 0.98386 0.61255 0.23591 0.0
C491 C 0.94475 0.55673 0.28634 0.0
C492 C 0.93402 0.56413 0.29195 0.0
C493 C 0.96193 0.56717 0.27676 0.0
C494 C 0.99338 0.60959 0.24486 0.0
H495 H 0.06743 0.60561 0.2094 0.0
H496 H 0.03853 0.59505 0.22939 0.0
H497 H 0.01453 0.6278 0.21945 0.0
H498 H 0.93276 0.58832 0.29066 0.0
H499 H 0.96318 0.60682 0.27399 0.0
H500 H 0.99736 0.5834 0.29135 0.0
C501 C 0.04696 0.60916 0.22619 0.0
C502 C 0.01093 0.61832 0.23544 0.0
C503 C 0.06353 0.61524 0.21457 0.0
C504 C 0.9407 0.58222 0.28657 0.0
C505 C 0.95812 0.5928 0.27705 0.0
C506 C 1.00085 0.59304 0.27562 0.0
C507 C 0.04116 0.62101 0.23318 0.0
C508 C 0.02336 0.614 0.24549 0.0
C509 C 0.96907 0.58543 0.27267 0.0
C510 C 0.98803 0.59645 0.26454 0.0
H511 H 0.07767 0.65944 0.21347 0.0
H512 H 0.04828 0.64863 0.23361 0.0
H513 H 0.02759 0.59826 0.27464 0.0
H514 H 0.93995 0.54277 0.2897 0.0
H515 H 0.96973 0.56089 0.2728 0.0
C516 C 0.57662 0.9495 0.81001 0.0
C517 C 0.57109 0.93364 0.79602 0.0
C518 C 0.58775 0.96588 0.79814 0.0
C519 C 0.59639 0.9874 0.73511 0.0
H520 H 0.63899 0.02534 0.76713 0.0
C521 C 0.63235 0.05591 0.68568 0.0
C522 C 0.6402 0.07095 0.70201 0.0
C523 C 0.62665 0.03908 0.69615 0.0
C524 C 0.627 0.01502 0.75801 0.0
H525 H 0.57315 0.92246 0.75879 0.0
H526 H 0.5922 0.9513 0.73757 0.0
H527 H 0.62407 0.99603 0.78764 0.0
H528 H 0.64858 0.08031 0.74199 0.0
H529 H 0.63777 0.05084 0.7608 0.0
H530 H 0.59831 0.00629 0.7066 0.0
C531 C 0.5881 0.95093 0.75793 0.0
C532 C 0.61858 0.99817 0.76969 0.0
C533 C 0.5773 0.93448 0.77007 0.0
C534 C 0.64271 0.06891 0.72895 0.0
C535 C 0.63654 0.05195 0.73965 0.0
C536 C 0.60455 0.00429 0.72378 0.0
C537 C 0.59327 0.96678 0.7718 0.0
C538 C 0.60316 0.98423 0.75838 0.0
C539 C 0.62809 0.03671 0.72347 0.0
C540 C 0.61996 0.01844 0.73507 0.0
H541 H 0.57208 0.94925 0.83008 0.0
H542 H 0.59142 0.97789 0.8092 0.0
H543 H 0.58434 0.97695 0.72625 0.0
H544 H 0.63043 0.05717 0.66475 0.0
H545 H 0.62085 0.0279 0.68274 0.0
C546 C 0.64382 0.57603 0.7743 0.0
C547 C 0.64047 0.57085 0.80097 0.0
C548 C 0.63764 0.5867 0.76328 0.0
C549 C 0.60447 0.60125 0.77686 0.0
H550 H 0.62575 0.63025 0.71456 0.0
C551 C 0.57895 0.64499 0.72943 0.0
C552 C 0.57298 0.63978 0.70332 0.0
C553 C 0.58937 0.63904 0.74197 0.0
C554 C 0.61976 0.62226 0.73205 0.0
H555 H 0.62909 0.57365 0.83747 0.0
H556 H 0.61946 0.5932 0.819 0.0
H557 H 0.64036 0.61588 0.73612 0.0
H558 H 0.57401 0.62504 0.66944 0.0
H559 H 0.59278 0.61524 0.69105 0.0
H560 H 0.58414 0.60813 0.77296 0.0
C561 C 0.62597 0.58837 0.80599 0.0
C562 C 0.628 0.61384 0.74433 0.0
C563 C 0.63169 0.5773 0.81676 0.0
C564 C 0.57838 0.62925 0.68959 0.0
C565 C 0.58917 0.62369 0.70189 0.0
C566 C 0.5965 0.61001 0.76496 0.0
C567 C 0.62834 0.59282 0.77886 0.0
C568 C 0.62034 0.60295 0.76672 0.0
C569 C 0.59441 0.62818 0.72837 0.0
C570 C 0.60392 0.62038 0.74225 0.0
H571 H 0.6504 0.57107 0.76162 0.0
H572 H 0.63958 0.58951 0.74229 0.0
H573 H 0.59777 0.5927 0.79354 0.0
H574 H 0.57488 0.65298 0.74055 0.0
H575 H 0.59326 0.64266 0.76243 0.0
C576 C 0.95135 0.57676 0.6902 0.0
C577 C 0.93545 0.57094 0.70427 0.0
C578 C 0.96773 0.58762 0.70231 0.0
C579 C 0.98913 0.59486 0.76531 0.0
H580 H 0.02733 0.63786 0.73471 0.0
C581 C 0.05772 0.62949 0.81493 0.0
C582 C 0.07279 0.63758 0.79867 0.0
C583 C 0.04089 0.62404 0.80456 0.0
C584 C 0.01694 0.62576 0.74341 0.0
H585 H 0.9242 0.57221 0.74188 0.0
H586 H 0.95304 0.59079 0.76351 0.0
H587 H 0.998 0.62355 0.71416 0.0
H588 H 0.0822 0.64667 0.75893 0.0
H589 H 0.05273 0.63628 0.74026 0.0
H590 H 0.00797 0.59607 0.79339 0.0
C591 C 0.9527 0.58713 0.74292 0.0
C592 C 1.00007 0.61768 0.73173 0.0
C593 C 0.93625 0.5766 0.73055 0.0
C594 C 0.07078 0.64057 0.77192 0.0
C595 C 0.05383 0.63465 0.7613 0.0
C596 C 0.00604 0.60267 0.77664 0.0
C597 C 0.96859 0.59257 0.72896 0.0
C598 C 0.98604 0.60211 0.74252 0.0
C599 C 0.03855 0.626 0.77739 0.0
C600 C 0.02028 0.61822 0.76583 0.0
H601 H 0.95113 0.57264 0.66988 0.0
H602 H 0.97976 0.59151 0.69118 0.0
H603 H 0.97862 0.58269 0.77375 0.0
H604 H 0.05895 0.62723 0.83574 0.0
H605 H 0.02969 0.61806 0.81794 0.0
C606 C 0.43069 0.05555 0.80947 0.0
C607 C 0.43647 0.07144 0.7954 0.0
C608 C 0.41967 0.03919 0.79744 0.0
C609 C 0.412 0.01771 0.73458 0.0
H610 H 0.36862 0.97994 0.76501 0.0
C611 C 0.37632 0.94925 0.68466 0.0
C612 C 0.36787 0.93417 0.70084 0.0
C613 C 0.38213 0.96612 0.6951 0.0
C614 C 0.38083 0.9902 0.75635 0.0
H615 H 0.43499 0.08268 0.75789 0.0
H616 H 0.41616 0.05388 0.73641 0.0
H617 H 0.38334 0.0092 0.78566 0.0
H618 H 0.3586 0.92483 0.74056 0.0
H619 H 0.3696 0.9543 0.75932 0.0
H620 H 0.41048 0.99879 0.70645 0.0
C621 C 0.41995 0.05421 0.75693 0.0
C622 C 0.38914 0.00703 0.7681 0.0
C623 C 0.43063 0.07065 0.76922 0.0
C624 C 0.36494 0.93624 0.7276 0.0
C625 C 0.37122 0.95321 0.73828 0.0
C626 C 0.40396 1.00082 0.72319 0.0
C627 C 0.41455 0.03834 0.77087 0.0
C628 C 0.40483 0.02092 0.75735 0.0
C629 C 0.38019 0.96848 0.72227 0.0
C630 C 0.38826 0.98673 0.73392 0.0
H631 H 0.43496 0.05578 0.8297 0.0
H632 H 0.4158 0.02717 0.80856 0.0
H633 H 0.42426 0.02811 0.72617 0.0
H634 H 0.37856 0.94799 0.66386 0.0
H635 H 0.38837 0.97733 0.68178 0.0
C636 C 0.35979 0.42495 0.77699 0.0
C637 C 0.37051 0.43753 0.79611 0.0
C638 C 0.36482 0.41329 0.76607 0.0
C639 C 0.39477 0.39485 0.77738 0.0
H640 H 0.39387 0.39025 0.70097 0.0
C641 C 0.42593 0.35789 0.72403 0.0
C642 C 0.43712 0.36737 0.70278 0.0
C643 C 0.41452 0.36319 0.73511 0.0
C644 C 0.39415 0.39134 0.72236 0.0
H645 H 0.39472 0.44729 0.81914 0.0
H646 H 0.40336 0.42722 0.80021 0.0
H647 H 0.38005 0.40563 0.72173 0.0
H648 H 0.44449 0.38942 0.67588 0.0
H649 H 0.42481 0.39854 0.69506 0.0
H650 H 0.40957 0.38128 0.77796 0.0
C651 C 0.39102 0.42619 0.79372 0.0
C652 C 0.38606 0.4 0.73427 0.0
C653 C 0.38611 0.43786 0.80442 0.0
C654 C 0.43616 0.38183 0.69234 0.0
C655 C 0.42471 0.38699 0.70319 0.0
C656 C 0.4028 0.38613 0.76548 0.0
C657 C 0.38055 0.41383 0.77428 0.0
C658 C 0.38673 0.40233 0.76189 0.0
C659 C 0.4139 0.37792 0.72494 0.0
C660 C 0.40304 0.38471 0.73776 0.0
H661 H 0.3477 0.42431 0.77013 0.0
H662 H 0.35641 0.40387 0.75119 0.0
H663 H 0.39529 0.39617 0.79875 0.0
H664 H 0.42632 0.34669 0.73256 0.0
H665 H 0.40628 0.35584 0.75177 0.0
C666 C 0.07074 0.42499 0.7272 0.0
C667 C 0.07216 0.43459 0.70406 0.0
C668 C 0.05407 0.41381 0.73862 0.0
C669 C 0.00549 0.39079 0.7248 0.0
H670 H 1.00115 0.39764 0.79968 0.0
C671 C 0.93727 0.35799 0.77922 0.0
C672 C 0.93473 0.3696 0.7956 0.0
C673 C 0.95413 0.36303 0.7689 0.0
C674 C 1.00213 0.39552 0.77875 0.0
H675 H 0.0571 0.43928 0.67409 0.0
H676 H 0.02831 0.41989 0.69374 0.0
H677 H 0.03047 0.41133 0.77936 0.0
H678 H 0.94821 0.3956 0.81409 0.0
H679 H 0.97717 0.40427 0.79619 0.0
H680 H 0.97708 0.37561 0.72398 0.0
C681 C 0.03996 0.42091 0.70318 0.0
C682 C 0.01897 0.40321 0.76717 0.0
C683 C 0.05653 0.43219 0.69203 0.0
C684 C 0.94952 0.38624 0.80162 0.0
C685 C 0.96627 0.39119 0.7915 0.0
C686 C 0.98864 0.38301 0.73642 0.0
C687 C 0.03849 0.4118 0.72685 0.0
C688 C 0.02084 0.40136 0.73989 0.0
C689 C 0.96884 0.37972 0.77497 0.0
C690 C 0.98672 0.38572 0.76339 0.0
H691 H 0.08252 0.42656 0.73696 0.0
H692 H 0.05338 0.4069 0.7568 0.0
H693 H 0.00647 0.38892 0.70378 0.0
H694 H 0.92621 0.34508 0.77415 0.0
H695 H 0.95568 0.35387 0.75628 0.0
C696 C 0.47479 0.18556 0.21351 0.0
C697 C 0.45959 0.16868 0.21172 0.0
C698 C 0.47367 0.19997 0.2233 0.0
C699 C 0.4444 0.21818 0.23239 0.0
H700 H 0.47717 0.24583 0.28828 0.0
C701 C 0.44344 0.27829 0.28112 0.0
C702 C 0.45984 0.29275 0.28875 0.0
C703 C 0.44226 0.2624 0.27261 0.0
C704 C 0.46808 0.23849 0.2724 0.0
H705 H 0.43118 0.15382 0.21816 0.0
H706 H 0.42917 0.17926 0.23466 0.0
H707 H 0.47736 0.21992 0.27088 0.0
H708 H 0.4879 0.30196 0.29293 0.0
H709 H 0.48603 0.2748 0.27729 0.0
H710 H 0.43556 0.2371 0.23307 0.0
C711 C 0.44197 0.1812 0.2287 0.0
C712 C 0.46814 0.22353 0.26256 0.0
C713 C 0.44313 0.16665 0.21934 0.0
C714 C 0.47501 0.29102 0.2875 0.0
C715 C 0.47389 0.2753 0.27867 0.0
C716 C 0.44453 0.23336 0.24193 0.0
C717 C 0.45728 0.19795 0.23113 0.0
C718 C 0.45643 0.2133 0.2423 0.0
C719 C 0.4575 0.26067 0.27123 0.0
C720 C 0.45653 0.24388 0.2619 0.0
H721 H 0.48767 0.1876 0.20787 0.0
H722 H 0.48566 0.21276 0.22473 0.0
H723 H 0.43528 0.21056 0.21667 0.0
H724 H 0.43149 0.2792 0.28191 0.0
H725 H 0.42935 0.25142 0.2674 0.0
C726 C 0.18609 0.47114 0.28893 0.0
C727 C 0.16908 0.45608 0.2897 0.0
C728 C 0.20068 0.46995 0.28021 0.0
C729 C 0.21313 0.44072 0.24284 0.0
H730 H 0.25943 0.47309 0.27226 0.0
C731 C 0.27854 0.43935 0.2198 0.0
C732 C 0.29292 0.45584 0.21225 0.0
C733 C 0.2628 0.4381 0.22933 0.0
C734 C 0.24659 0.46399 0.26382 0.0
H735 H 0.1541 0.42786 0.28214 0.0
H736 H 0.17972 0.42558 0.26784 0.0
H737 H 0.23333 0.4729 0.28978 0.0
H738 H 0.30201 0.4839 0.20872 0.0
H739 H 0.27483 0.48175 0.22587 0.0
H740 H 0.22667 0.43158 0.21733 0.0
C741 C 0.18174 0.43846 0.27334 0.0
C742 C 0.23157 0.46394 0.27372 0.0
C743 C 0.16704 0.43972 0.28173 0.0
C744 C 0.29119 0.47099 0.2143 0.0
C745 C 0.27566 0.46979 0.22426 0.0
C746 C 0.22818 0.44057 0.23325 0.0
C747 C 0.19881 0.45359 0.27239 0.0
C748 C 0.21462 0.45257 0.26304 0.0
C749 C 0.26132 0.45337 0.232 0.0
C750 C 0.2451 0.45245 0.24332 0.0
H751 H 0.18812 0.48401 0.29462 0.0
H752 H 0.2134 0.48203 0.27917 0.0
H753 H 0.20043 0.43189 0.23383 0.0
H754 H 0.27946 0.42744 0.21843 0.0
H755 H 0.25196 0.42528 0.23522 0.0
C756 C 0.72954 0.16659 0.28235 0.0
C757 C 0.71519 0.16847 0.29073 0.0
C758 C 0.74547 0.1814 0.27418 0.0
C759 C 0.76983 0.23113 0.27576 0.0
H760 H 0.79686 0.22676 0.2182 0.0
C761 C 0.82205 0.29116 0.21657 0.0
C762 C 0.83885 0.29278 0.21363 0.0
C763 C 0.80781 0.27563 0.22672 0.0
C764 C 0.78951 0.22813 0.23445 0.0
H765 H 0.70624 0.18736 0.29675 0.0
H766 H 0.73351 0.21289 0.28169 0.0
H767 H 0.77038 0.20042 0.23455 0.0
H768 H 0.85376 0.27917 0.2185 0.0
H769 H 0.82857 0.25169 0.23562 0.0
H770 H 0.7886 0.25897 0.27477 0.0
C771 C 0.73287 0.20017 0.28219 0.0
C772 C 0.77435 0.21302 0.24396 0.0
C773 C 0.7171 0.18545 0.29068 0.0
C774 C 0.84098 0.27833 0.22056 0.0
C775 C 0.82658 0.2626 0.23028 0.0
C776 C 0.78477 0.24622 0.26595 0.0
C777 C 0.74736 0.19843 0.27386 0.0
C778 C 0.76414 0.21432 0.26458 0.0
C779 C 0.8099 0.2612 0.23377 0.0
C780 C 0.79468 0.24492 0.24504 0.0
H781 H 0.7285 0.15368 0.28223 0.0
H782 H 0.75634 0.17947 0.26831 0.0
H783 H 0.76273 0.23273 0.29213 0.0
H784 H 0.81994 0.30204 0.2115 0.0
H785 H 0.79507 0.27487 0.22897 0.0
C786 C 0.56475 0.83889 0.21921 0.0
C787 C 0.5483 0.83694 0.21174 0.0
C788 C 0.56588 0.82429 0.22843 0.0
C789 C 0.53969 0.78183 0.26201 0.0
H790 H 0.57223 0.76839 0.23208 0.0
C791 C 0.53302 0.71431 0.2863 0.0
C792 C 0.54823 0.71265 0.28743 0.0
C793 C 0.53406 0.73002 0.2776 0.0
C794 C 0.56327 0.77209 0.24106 0.0
H795 H 0.52018 0.81812 0.20802 0.0
H796 H 0.52213 0.79286 0.22463 0.0
H797 H 0.57248 0.79498 0.21602 0.0
H798 H 0.57657 0.72631 0.28053 0.0
H799 H 0.57857 0.75406 0.26624 0.0
H800 H 0.5307 0.75943 0.28751 0.0
C801 C 0.53415 0.80563 0.2232 0.0
C802 C 0.56339 0.78731 0.23172 0.0
C803 C 0.53306 0.82009 0.21356 0.0
C804 C 0.56459 0.72716 0.27981 0.0
C805 C 0.56569 0.74304 0.27143 0.0
C806 C 0.53977 0.76684 0.27165 0.0
C807 C 0.55054 0.80756 0.23085 0.0
C808 C 0.55138 0.79215 0.24179 0.0
C809 C 0.55041 0.74471 0.27018 0.0
C810 C 0.55131 0.7615 0.261 0.0
H811 H 0.57673 0.8517 0.21801 0.0
H812 H 0.57868 0.82617 0.23426 0.0
H813 H 0.53048 0.78542 0.27045 0.0
H814 H 0.52016 0.70333 0.29174 0.0
H815 H 0.52189 0.73048 0.27632 0.0
C816 C 0.7168 0.53391 0.21419 0.0
C817 C 0.71499 0.549 0.2125 0.0
C818 C 0.73267 0.53524 0.2228 0.0
C819 C 0.77508 0.5653 0.25812 0.0
H820 H 0.78829 0.5321 0.23017 0.0
C821 C 0.84191 0.56638 0.28046 0.0
C822 C 0.83952 0.55001 0.28922 0.0
C823 C 0.82746 0.5677 0.27088 0.0
C824 C 0.78476 0.54145 0.23816 0.0
H825 H 0.72854 0.57742 0.21832 0.0
H826 H 0.75656 0.57991 0.23244 0.0
H827 H 0.76215 0.53198 0.21291 0.0
H828 H 0.82009 0.52223 0.29486 0.0
H829 H 0.79516 0.52448 0.27762 0.0
H830 H 0.79817 0.57496 0.28294 0.0
C831 C 0.74555 0.56692 0.22776 0.0
C832 C 0.76967 0.54132 0.22844 0.0
C833 C 0.72951 0.56553 0.21948 0.0
C834 C 0.82242 0.53506 0.28834 0.0
C835 C 0.80812 0.5363 0.27834 0.0
C836 C 0.7904 0.56562 0.26753 0.0
C837 C 0.74737 0.55176 0.22956 0.0
C838 C 0.76433 0.55297 0.23865 0.0
C839 C 0.81048 0.55259 0.26937 0.0
C840 C 0.79519 0.55346 0.25799 0.0
H841 H 0.70582 0.52094 0.20925 0.0
H842 H 0.73326 0.52317 0.22453 0.0
H843 H 0.7714 0.57437 0.26674 0.0
H844 H 0.85493 0.57813 0.28093 0.0
H845 H 0.82963 0.58041 0.26405 0.0
C846 C 0.18577 0.72083 0.20127 0.0
C847 C 0.16864 0.71431 0.21167 0.0
C848 C 0.19992 0.73695 0.21008 0.0
C849 C 0.21548 0.76627 0.26762 0.0
H850 H 0.24942 0.80089 0.21859 0.0
C851 C 0.28586 0.82152 0.29822 0.0
C852 C 0.29185 0.83863 0.28818 0.0
C853 C 0.26983 0.80716 0.28951 0.0
C854 C 0.23999 0.79142 0.23252 0.0
H855 H 0.15293 0.7197 0.23937 0.0
H856 H 0.17779 0.74777 0.25517 0.0
H857 H 0.22323 0.77446 0.20152 0.0
H858 H 0.28561 0.85412 0.26125 0.0
H859 H 0.25773 0.82891 0.24562 0.0
H860 H 0.23249 0.78299 0.29861 0.0
C861 C 0.18019 0.7404 0.24006 0.0
C862 C 0.22507 0.77623 0.22275 0.0
C863 C 0.16595 0.72439 0.23091 0.0
C864 C 0.28135 0.8411 0.26941 0.0
C865 C 0.26543 0.82667 0.26036 0.0
C866 C 0.23056 0.78131 0.27738 0.0
C867 C 0.19736 0.74682 0.22981 0.0
C868 C 0.2127 0.76343 0.24018 0.0
C869 C 0.25954 0.80952 0.27025 0.0
C870 C 0.24303 0.79401 0.25994 0.0
H871 H 0.18829 0.7134 0.18641 0.0
H872 H 0.21301 0.74146 0.20196 0.0
H873 H 0.20626 0.75659 0.28154 0.0
H874 H 0.29363 0.81917 0.31272 0.0
H875 H 0.26573 0.7941 0.29735 0.0
C876 C 0.5662 0.72805 0.72083 0.0
C877 C 0.5498 0.71346 0.71341 0.0
C878 C 0.56715 0.74362 0.7304 0.0
C879 C 0.54077 0.75932 0.76489 0.0
H880 H 0.57261 0.80544 0.73473 0.0
C881 C 0.53348 0.81976 0.79 0.0
C882 C 0.54856 0.83674 0.79058 0.0
C883 C 0.53463 0.80514 0.78135 0.0
C884 C 0.56385 0.79275 0.7438 0.0
H885 H 0.52159 0.70382 0.7102 0.0
H886 H 0.52324 0.73075 0.72742 0.0
H887 H 0.57313 0.77933 0.71834 0.0
H888 H 0.5768 0.85164 0.78291 0.0
H889 H 0.57902 0.82602 0.76879 0.0
H890 H 0.53173 0.77248 0.7908 0.0
C891 C 0.53535 0.7302 0.72568 0.0
C892 C 0.56412 0.77777 0.73425 0.0
C893 C 0.53443 0.71481 0.71568 0.0
C894 C 0.56491 0.83873 0.78261 0.0
C895 C 0.56614 0.82401 0.77431 0.0
C896 C 0.5407 0.77427 0.77473 0.0
C897 C 0.55169 0.74475 0.73324 0.0
C898 C 0.55236 0.76087 0.74441 0.0
C899 C 0.55097 0.80698 0.77344 0.0
C900 C 0.552 0.7912 0.76403 0.0
H901 H 0.57827 0.72742 0.71929 0.0
H902 H 0.57992 0.75463 0.73615 0.0
H903 H 0.53175 0.74648 0.77337 0.0
H904 H 0.52063 0.81778 0.79573 0.0
H905 H 0.52254 0.79242 0.78042 0.0
C906 C 0.71549 0.53245 0.78331 0.0
C907 C 0.71412 0.54774 0.78651 0.0
C908 C 0.73098 0.5336 0.77324 0.0
C909 C 0.77868 0.56259 0.76609 0.0
H910 H 0.77403 0.5315 0.70795 0.0
C911 C 0.84025 0.56457 0.71766 0.0
C912 C 0.83837 0.54842 0.70892 0.0
C913 C 0.82542 0.56558 0.72604 0.0
C914 C 0.77564 0.54011 0.72446 0.0
H915 H 0.72814 0.5763 0.78219 0.0
H916 H 0.75552 0.57835 0.76519 0.0
H917 H 0.7478 0.53109 0.72541 0.0
H918 H 0.81949 0.52061 0.70249 0.0
H919 H 0.79393 0.52215 0.71792 0.0
H920 H 0.8064 0.57114 0.76599 0.0
C921 C 0.74445 0.56547 0.77027 0.0
C922 C 0.76055 0.53993 0.73433 0.0
C923 C 0.72878 0.56429 0.77991 0.0
C924 C 0.82139 0.53332 0.70882 0.0
C925 C 0.80665 0.53425 0.71754 0.0
C926 C 0.79379 0.56257 0.75652 0.0
C927 C 0.74562 0.5501 0.76654 0.0
C928 C 0.76187 0.55105 0.75538 0.0
C929 C 0.80838 0.5504 0.72622 0.0
C930 C 0.79247 0.55119 0.73569 0.0
H931 H 0.70445 0.5195 0.78814 0.0
H932 H 0.73156 0.52155 0.7708 0.0
H933 H 0.78007 0.57123 0.78246 0.0
H934 H 0.85316 0.57646 0.7179 0.0
H935 H 0.82733 0.57832 0.73217 0.0
C936 C 0.28135 0.8394 0.72913 0.0
C937 C 0.29266 0.83736 0.71146 0.0
C938 C 0.26581 0.82456 0.73837 0.0
C939 C 0.24562 0.77567 0.74579 0.0
H940 H 0.20274 0.77709 0.76096 0.0
C941 C 0.18675 0.7175 0.79882 0.0
C942 C 0.16951 0.71262 0.79046 0.0
C943 C 0.20136 0.73323 0.78992 0.0
C944 C 0.21454 0.77639 0.75663 0.0
H945 H 0.29614 0.81821 0.68876 0.0
H946 H 0.26898 0.79256 0.70409 0.0
H947 H 0.22848 0.80321 0.74271 0.0
H948 H 0.15408 0.72062 0.76647 0.0
H949 H 0.17962 0.7479 0.75038 0.0
H950 H 0.23163 0.74875 0.75876 0.0
C951 C 0.27226 0.80549 0.71158 0.0
C952 C 0.22942 0.79149 0.74645 0.0
C953 C 0.28782 0.82025 0.70259 0.0
C954 C 0.16719 0.72403 0.77336 0.0
C955 C 0.18186 0.73973 0.76423 0.0
C956 C 0.23076 0.76059 0.75577 0.0
C957 C 0.26117 0.80735 0.72999 0.0
C958 C 0.24519 0.79134 0.74085 0.0
C959 C 0.1992 0.74446 0.77215 0.0
C960 C 0.215 0.76071 0.76144 0.0
H961 H 0.28473 0.85241 0.7364 0.0
H962 H 0.25773 0.82657 0.75269 0.0
H963 H 0.25755 0.77505 0.74221 0.0
H964 H 0.189 0.70909 0.81218 0.0
H965 H 0.2144 0.73656 0.79701 0.0
C966 C 0.44248 0.2779 0.7217 0.0
C967 C 0.45894 0.29241 0.71436 0.0
C968 C 0.4414 0.26227 0.73135 0.0
C969 C 0.46752 0.24623 0.76596 0.0
H970 H 0.43554 0.20026 0.73542 0.0
C971 C 0.47449 0.18547 0.7904 0.0
C972 C 0.45936 0.16852 0.79081 0.0
C973 C 0.47341 0.20018 0.78195 0.0
C974 C 0.44433 0.21291 0.74459 0.0
H975 H 0.48714 0.30189 0.71147 0.0
H976 H 0.48526 0.27489 0.72883 0.0
H977 H 0.43519 0.22651 0.71926 0.0
H978 H 0.43113 0.15375 0.78305 0.0
H979 H 0.42904 0.17951 0.76925 0.0
H980 H 0.47645 0.23287 0.79174 0.0
C981 C 0.4732 0.27553 0.72695 0.0
C982 C 0.44416 0.22797 0.73519 0.0
C983 C 0.47424 0.29096 0.71687 0.0
C984 C 0.44304 0.16664 0.78287 0.0
C985 C 0.44189 0.18144 0.77476 0.0
C986 C 0.4675 0.23119 0.77567 0.0
C987 C 0.45679 0.26103 0.73437 0.0
C988 C 0.45597 0.24482 0.74547 0.0
C989 C 0.4571 0.19845 0.77405 0.0
C990 C 0.45615 0.21431 0.76482 0.0
H991 H 0.43046 0.2786 0.71997 0.0
H992 H 0.42858 0.2513 0.73698 0.0
H993 H 0.47659 0.25902 0.77455 0.0
H994 H 0.48732 0.18738 0.79612 0.0
H995 H 0.48553 0.21287 0.78114 0.0
C996 C 0.186 0.47148 0.71394 0.0
C997 C 0.16915 0.45623 0.71223 0.0
C998 C 0.2005 0.47049 0.72377 0.0
C999 C 0.21907 0.44158 0.73298 0.0
H1000 H 0.24663 0.47445 0.7888 0.0
C1001 C 0.27967 0.44123 0.78141 0.0
C1002 C 0.29404 0.45765 0.78916 0.0
C1003 C 0.26367 0.4399 0.77299 0.0
C1004 C 0.23932 0.46534 0.77293 0.0
H1005 H 0.15442 0.42787 0.71886 0.0
H1006 H 0.18002 0.42609 0.73542 0.0
H1007 H 0.22055 0.47439 0.77142 0.0
H1008 H 0.30297 0.4856 0.79362 0.0
H1009 H 0.27565 0.4835 0.77811 0.0
H1010 H 0.2382 0.43298 0.73363 0.0
C1011 C 0.18186 0.43882 0.72937 0.0
C1012 C 0.22426 0.46524 0.76311 0.0
C1013 C 0.16722 0.43986 0.71998 0.0
C1014 C 0.2921 0.47269 0.78811 0.0
C1015 C 0.27629 0.47144 0.77935 0.0
C1016 C 0.23436 0.44187 0.7425 0.0
C1017 C 0.1986 0.45419 0.73171 0.0
C1018 C 0.21405 0.45349 0.74288 0.0
C1019 C 0.26175 0.45502 0.77177 0.0
C1020 C 0.24485 0.4539 0.76245 0.0
H1021 H 0.18796 0.48431 0.7082 0.0
H1022 H 0.21326 0.48253 0.72512 0.0
H1023 H 0.21149 0.43243 0.71728 0.0
H1024 H 0.28073 0.42938 0.78204 0.0
H1025 H 0.25278 0.42698 0.76769 0.0
C1026 C 0.82126 0.2905 0.78693 0.0
C1027 C 0.83829 0.29252 0.78801 0.0
C1028 C 0.80673 0.27463 0.77833 0.0
C1029 C 0.7944 0.23275 0.74176 0.0
H1030 H 0.74814 0.21886 0.77126 0.0
C1031 C 0.72906 0.16579 0.7194 0.0
C1032 C 0.71461 0.1678 0.71184 0.0
C1033 C 0.7448 0.18036 0.72876 0.0
C1034 C 0.76097 0.22259 0.7628 0.0
H1035 H 0.85338 0.27932 0.78107 0.0
H1036 H 0.82785 0.25127 0.76691 0.0
H1037 H 0.77425 0.2449 0.78851 0.0
H1038 H 0.7054 0.18666 0.7081 0.0
H1039 H 0.7326 0.21184 0.72498 0.0
H1040 H 0.78084 0.20994 0.71649 0.0
C1041 C 0.82577 0.26214 0.77212 0.0
C1042 C 0.77599 0.23762 0.77255 0.0
C1043 C 0.84043 0.27819 0.78042 0.0
C1044 C 0.71627 0.18465 0.71371 0.0
C1045 C 0.73182 0.19907 0.7235 0.0
C1046 C 0.77935 0.21749 0.73231 0.0
C1047 C 0.80868 0.26013 0.77094 0.0
C1048 C 0.79291 0.2432 0.76182 0.0
C1049 C 0.74622 0.19709 0.73125 0.0
C1050 C 0.76244 0.21246 0.74241 0.0
H1051 H 0.81915 0.30133 0.79233 0.0
H1052 H 0.79398 0.27392 0.77709 0.0
H1053 H 0.8071 0.23662 0.73275 0.0
H1054 H 0.72819 0.15298 0.71815 0.0
H1055 H 0.75569 0.17846 0.73466 0.0
C1056 C 0.44182 0.11109 0.0907 0.0
C1057 C 0.44941 0.12547 0.10828 0.0
C1058 C 0.43651 0.11297 0.06544 0.0
C1059 C 0.44986 0.14602 0.01411 0.0
H1060 H 0.41105 0.10717 0.9765 0.0
C1061 C 0.44997 0.14053 0.89988 0.0
C1062 C 0.44869 0.12438 0.89262 0.0
C1063 C 0.44514 0.14279 0.92551 0.0
C1064 C 0.42184 0.11826 0.98671 0.0
H1065 H 0.4568 0.15293 0.11382 0.0
H1066 H 0.4478 0.15642 0.06896 0.0
H1067 H 0.41119 0.10744 0.02487 0.0
H1068 H 0.44034 0.09765 0.90546 0.0
H1069 H 0.43153 0.10135 0.94959 0.0
H1070 H 0.46108 0.15624 0.97592 0.0
C1071 C 0.44578 0.14362 0.07498 0.0
C1072 C 0.42192 0.11841 0.0144 0.0
C1073 C 0.45081 0.14161 0.10063 0.0
C1074 C 0.4414 0.11022 0.91059 0.0
C1075 C 0.43627 0.11233 0.93584 0.0
C1076 C 0.44977 0.14587 0.98635 0.0
C1077 C 0.43894 0.12939 0.05692 0.0
C1078 C 0.43638 0.13182 0.0284 0.0
C1079 C 0.43859 0.12878 0.94394 0.0
C1080 C 0.43621 0.13152 0.97241 0.0
H1081 H 0.44068 0.09854 0.09614 0.0
H1082 H 0.43156 0.10181 0.05199 0.0
H1083 H 0.46124 0.1565 0.02428 0.0
H1084 H 0.45573 0.15169 0.88638 0.0
H1085 H 0.44706 0.15561 0.93122 0.0
C1086 C 0.33494 0.44094 0.91012 0.0
C1087 C 0.32784 0.44812 0.89232 0.0
C1088 C 0.32771 0.43555 0.93533 0.0
C1089 C 0.30709 0.44804 0.98629 0.0
H1090 H 0.30743 0.4094 0.02385 0.0
C1091 C 0.31178 0.44789 0.10057 0.0
C1092 C 0.32659 0.4466 0.10826 0.0
C1093 C 0.30493 0.44309 0.07479 0.0
C1094 C 0.30706 0.42015 0.01365 0.0
H1095 H 0.30722 0.45472 0.88637 0.0
H1096 H 0.29466 0.44561 0.93116 0.0
H1097 H 0.30781 0.40982 0.97549 0.0
H1098 H 0.34511 0.43827 0.09603 0.0
H1099 H 0.33303 0.42955 0.05164 0.0
H1100 H 0.30755 0.45898 0.02449 0.0
C1101 C 0.30571 0.44396 0.92533 0.0
C1102 C 0.30727 0.42038 0.98597 0.0
C1103 C 0.31279 0.44905 0.89973 0.0
C1104 C 0.33363 0.43932 0.09056 0.0
C1105 C 0.32663 0.43424 0.06516 0.0
C1106 C 0.30689 0.44782 0.01405 0.0
C1107 C 0.31337 0.4375 0.94358 0.0
C1108 C 0.30818 0.43477 0.97201 0.0
C1109 C 0.31258 0.43659 0.05661 0.0
C1110 C 0.30778 0.43432 0.02801 0.0
H1111 H 0.34659 0.44015 0.90487 0.0
H1112 H 0.3341 0.43089 0.94895 0.0
H1113 H 0.30787 0.45935 0.97613 0.0
H1114 H 0.30627 0.45365 0.11385 0.0
H1115 H 0.29408 0.44503 0.06876 0.0
C1116 C 0.86372 0.31238 0.89941 0.0
C1117 C 0.88014 0.32671 0.89167 0.0
C1118 C 0.8614 0.30557 0.92524 0.0
C1119 C 0.88589 0.3062 0.98612 0.0
H1120 H 0.84883 0.30921 0.02415 0.0
C1121 C 0.89439 0.33272 0.0909 0.0
C1122 C 0.88002 0.32626 0.10845 0.0
C1123 C 0.8922 0.32581 0.06539 0.0
C1124 C 0.85896 0.30781 0.01384 0.0
H1125 H 0.90719 0.34449 0.9039 0.0
H1126 H 0.90338 0.33241 0.94841 0.0
H1127 H 0.84887 0.30933 0.97578 0.0
H1128 H 0.85219 0.30714 0.11365 0.0
H1129 H 0.84816 0.29513 0.0684 0.0
H1130 H 0.89657 0.30577 0.02414 0.0
C1131 C 0.89225 0.32637 0.93486 0.0
C1132 C 0.85898 0.30788 0.98609 0.0
C1133 C 0.89444 0.33335 0.9094 0.0
C1134 C 0.86351 0.31216 0.10049 0.0
C1135 C 0.8612 0.30541 0.07461 0.0
C1136 C 0.88585 0.30611 0.0138 0.0
C1137 C 0.87559 0.31278 0.94341 0.0
C1138 C 0.87293 0.30793 0.97197 0.0
C1139 C 0.87547 0.31247 0.05661 0.0
C1140 C 0.87287 0.30778 0.02798 0.0
H1141 H 0.85245 0.30721 0.8861 0.0
H1142 H 0.84841 0.2951 0.93129 0.0
H1143 H 0.89664 0.30594 0.97577 0.0
H1144 H 0.90721 0.34369 0.09658 0.0
H1145 H 0.90341 0.33176 0.052 0.0
C1146 C 0.5661 0.89441 0.09065 0.0
C1147 C 0.55854 0.88009 0.10833 0.0
C1148 C 0.5714 0.89245 0.06544 0.0
C1149 C 0.55808 0.85928 0.01434 0.0
H1150 H 0.59701 0.89796 0.97672 0.0
C1151 C 0.55793 0.86447 0.90013 0.0
C1152 C 0.55934 0.88066 0.89274 0.0
C1153 C 0.56279 0.86226 0.92579 0.0
C1154 C 0.58619 0.88692 0.98694 0.0
H1155 H 0.55119 0.85266 0.11412 0.0
H1156 H 0.56017 0.84903 0.06934 0.0
H1157 H 0.59681 0.89782 0.02508 0.0
H1158 H 0.56795 0.90748 0.90533 0.0
H1159 H 0.57679 0.90387 0.9495 0.0
H1160 H 0.54688 0.849 0.97616 0.0
C1161 C 0.56217 0.86184 0.07524 0.0
C1162 C 0.58607 0.88684 0.01462 0.0
C1163 C 0.55715 0.86393 0.10085 0.0
C1164 C 0.56679 0.8949 0.91058 0.0
C1165 C 0.57194 0.89282 0.93585 0.0
C1166 C 0.5582 0.85936 0.98659 0.0
C1167 C 0.56899 0.87601 0.05709 0.0
C1168 C 0.57158 0.8735 0.02861 0.0
C1169 C 0.56947 0.87634 0.94411 0.0
C1170 C 0.57181 0.87366 0.97262 0.0
H1171 H 0.56723 0.90698 0.09597 0.0
H1172 H 0.57635 0.90357 0.05191 0.0
H1173 H 0.54668 0.84886 0.02451 0.0
H1174 H 0.55204 0.85326 0.88675 0.0
H1175 H 0.56075 0.84942 0.93162 0.0
C1176 C 0.69365 0.56911 0.10051 0.0
C1177 C 0.6836 0.55128 0.10825 0.0
C1178 C 0.70072 0.57344 0.07479 0.0
C1179 C 0.69763 0.57435 0.01389 0.0
H1180 H 0.71382 0.54625 0.9764 0.0
C1181 C 0.68147 0.53701 0.91033 0.0
C1182 C 0.68343 0.55012 0.89233 0.0
C1183 C 0.68881 0.54157 0.93562 0.0
C1184 C 0.70952 0.55438 0.98658 0.0
H1185 H 0.67398 0.52416 0.0962 0.0
H1186 H 0.68656 0.53162 0.05194 0.0
H1187 H 0.71389 0.54655 0.02476 0.0
H1188 H 0.69515 0.57835 0.88612 0.0
H1189 H 0.70779 0.58644 0.93103 0.0
H1190 H 0.69219 0.58127 0.97567 0.0
C1191 C 0.68905 0.54231 0.06536 0.0
C1192 C 0.70956 0.55455 0.01426 0.0
C1193 C 0.68175 0.53801 0.09068 0.0
C1194 C 0.69363 0.56802 0.89963 0.0
C1195 C 0.70073 0.57262 0.92531 0.0
C1196 C 0.69761 0.57419 0.98613 0.0
C1197 C 0.69814 0.56002 0.05676 0.0
C1198 C 0.70277 0.56381 0.02822 0.0
C1199 C 0.69805 0.55937 0.94375 0.0
C1200 C 0.70271 0.56348 0.97223 0.0
H1201 H 0.69508 0.57955 0.11368 0.0
H1202 H 0.70767 0.5872 0.06871 0.0
H1203 H 0.69223 0.58155 0.02403 0.0
H1204 H 0.6736 0.52311 0.90517 0.0
H1205 H 0.68625 0.53101 0.94938 0.0
C1206 C 0.11208 0.67258 0.91045 0.0
C1207 C 0.12652 0.67922 0.893 0.0
C1208 C 0.11404 0.67967 0.93579 0.0
C1209 C 0.14717 0.69881 0.98737 0.0
H1210 H 0.10866 0.69939 0.025 0.0
C1211 C 0.14228 0.69421 0.10164 0.0
C1212 C 0.12611 0.67947 0.10929 0.0
C1213 C 0.1444 0.70106 0.07586 0.0
C1214 C 0.11965 0.6995 0.01477 0.0
H1215 H 0.15418 0.69888 0.88775 0.0
H1216 H 0.15779 0.71123 0.93271 0.0
H1217 H 0.10884 0.69942 0.97663 0.0
H1218 H 0.09925 0.66105 0.09698 0.0
H1219 H 0.10268 0.67322 0.05257 0.0
H1220 H 0.1574 0.6978 0.02556 0.0
C1221 C 0.14489 0.70064 0.92655 0.0
C1222 C 0.11975 0.69951 0.98709 0.0
C1223 C 0.14281 0.6937 0.90084 0.0
C1224 C 0.1118 0.67251 0.09156 0.0
C1225 C 0.11378 0.67953 0.06615 0.0
C1226 C 0.14708 0.69884 0.01512 0.0
C1227 C 0.13059 0.6934 0.9445 0.0
C1228 C 0.13304 0.69828 0.97308 0.0
C1229 C 0.13025 0.69349 0.05766 0.0
C1230 C 0.13286 0.69831 0.02909 0.0
H1231 H 0.09942 0.66134 0.90487 0.0
H1232 H 0.10281 0.67358 0.94915 0.0
H1233 H 0.15755 0.69775 0.9772 0.0
H1234 H 0.15357 0.69963 0.11492 0.0
H1235 H 0.15724 0.71182 0.06986 0.0
C1236 C 0.89782 0.56835 0.58968 0.0
C1237 C 0.88344 0.56087 0.60726 0.0
C1238 C 0.89604 0.57388 0.56454 0.0
C1239 C 0.86278 0.56114 0.51351 0.0
H1240 H 0.9022 0.59902 0.47547 0.0
C1241 C 0.86775 0.56 0.39946 0.0
C1242 C 0.88356 0.56044 0.39232 0.0
C1243 C 0.86586 0.56534 0.42491 0.0
C1244 C 0.89095 0.58851 0.48581 0.0
H1245 H 0.85611 0.55399 0.61299 0.0
H1246 H 0.85279 0.56341 0.56837 0.0
H1247 H 0.90208 0.59917 0.52383 0.0
H1248 H 0.9101 0.56787 0.40515 0.0
H1249 H 0.90706 0.57761 0.44898 0.0
H1250 H 0.85222 0.54991 0.47546 0.0
C1251 C 0.86552 0.56515 0.57427 0.0
C1252 C 0.89088 0.58859 0.51349 0.0
C1253 C 0.86743 0.55988 0.5998 0.0
C1254 C 0.8978 0.56747 0.41019 0.0
C1255 C 0.89607 0.57312 0.43526 0.0
C1256 C 0.86283 0.56109 0.48576 0.0
C1257 C 0.87972 0.5718 0.55615 0.0
C1258 C 0.87727 0.57442 0.52765 0.0
C1259 C 0.8799 0.57157 0.44328 0.0
C1260 C 0.87738 0.5743 0.47167 0.0
H1261 H 0.91029 0.5692 0.59498 0.0
H1262 H 0.90718 0.57869 0.55105 0.0
H1263 H 0.85214 0.54999 0.52379 0.0
H1264 H 0.85653 0.55445 0.38605 0.0
H1265 H 0.85326 0.56401 0.43057 0.0
C1266 C 0.31641 0.88309 0.60046 0.0
C1267 C 0.32444 0.87327 0.60816 0.0
C1268 C 0.30971 0.88143 0.57466 0.0
C1269 C 0.29778 0.85377 0.51363 0.0
H1270 H 0.32041 0.89853 0.47596 0.0
C1271 C 0.32391 0.86129 0.40869 0.0
C1272 C 0.32406 0.87395 0.39141 0.0
C1273 C 0.317 0.85924 0.43419 0.0
C1274 C 0.31355 0.88592 0.48616 0.0
H1275 H 0.33093 0.85342 0.5959 0.0
H1276 H 0.31886 0.85012 0.55142 0.0
H1277 H 0.3205 0.89835 0.52431 0.0
H1278 H 0.31663 0.89404 0.38665 0.0
H1279 H 0.30471 0.8907 0.43183 0.0
H1280 H 0.29174 0.84133 0.47551 0.0
C1281 C 0.31767 0.85909 0.56498 0.0
C1282 C 0.31361 0.88582 0.51391 0.0
C1283 C 0.32465 0.86101 0.59042 0.0
C1284 C 0.31642 0.88402 0.39959 0.0
C1285 C 0.30975 0.8822 0.42544 0.0
C1286 C 0.29769 0.85386 0.48594 0.0
C1287 C 0.31064 0.86968 0.55647 0.0
C1288 C 0.30646 0.86974 0.5279 0.0
C1289 C 0.31037 0.87005 0.44321 0.0
C1290 C 0.30632 0.86993 0.47189 0.0
H1291 H 0.31635 0.89281 0.61375 0.0
H1292 H 0.30437 0.88975 0.56864 0.0
H1293 H 0.29191 0.84117 0.52388 0.0
H1294 H 0.32989 0.8535 0.40285 0.0
H1295 H 0.31796 0.84996 0.4474 0.0
C1296 C 0.44074 0.32957 0.59146 0.0
C1297 C 0.4493 0.32379 0.60895 0.0
C1298 C 0.43607 0.32247 0.56604 0.0
C1299 C 0.45257 0.30558 0.51468 0.0
H1300 H 0.4126 0.30249 0.4761 0.0
C1301 C 0.45315 0.31103 0.40039 0.0
C1302 C 0.45067 0.32515 0.39286 0.0
C1303 C 0.44853 0.30389 0.42603 0.0
C1304 C 0.42374 0.30308 0.48659 0.0
H1305 H 0.45915 0.3056 0.6142 0.0
H1306 H 0.45121 0.29322 0.56916 0.0
H1307 H 0.41219 0.30201 0.52447 0.0
H1308 H 0.44056 0.34218 0.40523 0.0
H1309 H 0.43205 0.3295 0.44938 0.0
H1310 H 0.46457 0.30774 0.47678 0.0
C1311 C 0.44793 0.30314 0.57532 0.0
C1312 C 0.42351 0.30283 0.51428 0.0
C1313 C 0.45233 0.31008 0.60109 0.0
C1314 C 0.44248 0.33121 0.41057 0.0
C1315 C 0.43755 0.32389 0.43582 0.0
C1316 C 0.45278 0.30581 0.48693 0.0
C1317 C 0.44015 0.3096 0.5573 0.0
C1318 C 0.4383 0.30497 0.52865 0.0
C1319 C 0.44102 0.31054 0.44419 0.0
C1320 C 0.43873 0.30544 0.47265 0.0
H1321 H 0.43842 0.34024 0.59705 0.0
H1322 H 0.43036 0.32797 0.55265 0.0
H1323 H 0.46422 0.30736 0.52512 0.0
H1324 H 0.45965 0.30631 0.38711 0.0
H1325 H 0.45136 0.29362 0.43195 0.0
C1326 C 0.11135 0.43839 0.59092 0.0
C1327 C 0.12572 0.44589 0.60855 0.0
C1328 C 0.11325 0.43322 0.56559 0.0
C1329 C 0.14652 0.44682 0.51439 0.0
H1330 H 0.10762 0.40848 0.47615 0.0
C1331 C 0.14169 0.44756 0.40007 0.0
C1332 C 0.12564 0.44646 0.39259 0.0
C1333 C 0.14374 0.44258 0.42573 0.0
C1334 C 0.11872 0.41914 0.48654 0.0
H1335 H 0.1532 0.45324 0.6141 0.0
H1336 H 0.15674 0.44446 0.56915 0.0
H1337 H 0.10768 0.40829 0.52451 0.0
H1338 H 0.09887 0.43832 0.40506 0.0
H1339 H 0.10219 0.42925 0.44924 0.0
H1340 H 0.15699 0.45822 0.47638 0.0
C1341 C 0.14391 0.44242 0.57517 0.0
C1342 C 0.11875 0.41904 0.51423 0.0
C1343 C 0.14188 0.44731 0.60088 0.0
C1344 C 0.11136 0.43922 0.41037 0.0
C1345 C 0.11326 0.43395 0.43564 0.0
C1346 C 0.1465 0.44691 0.48663 0.0
C1347 C 0.1297 0.4357 0.55705 0.0
C1348 C 0.13219 0.43332 0.52846 0.0
C1349 C 0.12962 0.43608 0.44397 0.0
C1350 C 0.13214 0.43351 0.47245 0.0
H1351 H 0.09878 0.43724 0.59637 0.0
H1352 H 0.1021 0.42836 0.55211 0.0
H1353 H 0.15702 0.45807 0.52473 0.0
H1354 H 0.15294 0.45327 0.38673 0.0
H1355 H 0.15649 0.44436 0.43161 0.0
C1356 C 0.67557 0.11016 0.41049 0.0
C1357 C 0.68227 0.1244 0.39267 0.0
C1358 C 0.68286 0.11227 0.43574 0.0
C1359 C 0.70249 0.14574 0.48646 0.0
H1360 H 0.70298 0.10746 0.52488 0.0
C1361 C 0.69686 0.14116 0.60065 0.0
C1362 C 0.68216 0.12493 0.60813 0.0
C1363 C 0.70402 0.14329 0.57507 0.0
C1364 C 0.70312 0.11839 0.51444 0.0
H1365 H 0.70228 0.15185 0.38667 0.0
H1366 H 0.71493 0.15576 0.43148 0.0
H1367 H 0.70298 0.10732 0.47651 0.0
H1368 H 0.66417 0.09796 0.59583 0.0
H1369 H 0.67678 0.10145 0.55181 0.0
H1370 H 0.70142 0.15618 0.52441 0.0
C1371 C 0.70415 0.14288 0.42567 0.0
C1372 C 0.70313 0.11831 0.48675 0.0
C1373 C 0.69703 0.14063 0.40004 0.0
C1374 C 0.67555 0.11058 0.5905 0.0
C1375 C 0.68286 0.11259 0.56532 0.0
C1376 C 0.70248 0.14581 0.51422 0.0
C1377 C 0.69684 0.1288 0.44398 0.0
C1378 C 0.7019 0.1315 0.47247 0.0
C1379 C 0.69679 0.1291 0.55694 0.0
C1380 C 0.70188 0.13166 0.52846 0.0
H1381 H 0.66415 0.09753 0.40527 0.0
H1382 H 0.67672 0.10122 0.44939 0.0
H1383 H 0.70145 0.15604 0.47606 0.0
H1384 H 0.70204 0.15245 0.61387 0.0
H1385 H 0.71476 0.15616 0.56916 0.0
C1386 C 0.5705 0.69095 0.39937 0.0
C1387 C 0.55258 0.68195 0.39178 0.0
C1388 C 0.57533 0.69783 0.42513 0.0
C1389 C 0.55828 0.70824 0.48624 0.0
H1390 H 0.58306 0.68831 0.52385 0.0
C1391 C 0.54109 0.6817 0.59117 0.0
C1392 C 0.55412 0.68263 0.6085 0.0
C1393 C 0.54556 0.68867 0.56566 0.0
C1394 C 0.57654 0.69443 0.51366 0.0
H1395 H 0.52585 0.67394 0.4042 0.0
H1396 H 0.53418 0.68626 0.44857 0.0
H1397 H 0.58271 0.68816 0.4755 0.0
H1398 H 0.58213 0.69206 0.61328 0.0
H1399 H 0.59006 0.7041 0.56805 0.0
H1400 H 0.5512 0.71352 0.52438 0.0
C1401 C 0.54458 0.68808 0.43496 0.0
C1402 C 0.57634 0.69434 0.4859 0.0
C1403 C 0.53976 0.68095 0.40957 0.0
C1404 C 0.57191 0.69142 0.60032 0.0
C1405 C 0.57639 0.69815 0.57444 0.0
C1406 C 0.55849 0.70834 0.51393 0.0
C1407 C 0.56232 0.69609 0.44338 0.0
C1408 C 0.56649 0.70047 0.47193 0.0
C1409 C 0.56316 0.69647 0.55664 0.0
C1410 C 0.5669 0.70066 0.52796 0.0
H1411 H 0.58058 0.69166 0.38603 0.0
H1412 H 0.5891 0.70394 0.43106 0.0
H1413 H 0.55082 0.71334 0.47602 0.0
H1414 H 0.52727 0.67484 0.59701 0.0
H1415 H 0.535 0.68688 0.55243 0.0
C1416 C 0.51589 0.12709 0.19878 0.0
C1417 C 0.50428 0.12803 0.21715 0.0
C1418 C 0.53061 0.12606 0.20736 0.0
C1419 C 0.55999 0.13559 0.26545 0.0
H1420 H 0.57548 0.10709 0.22741 0.0
C1421 C 0.617 0.12593 0.30358 0.0
C1422 C 0.62963 0.1274 0.28491 0.0
C1423 C 0.60128 0.12511 0.29543 0.0
C1424 C 0.57141 0.11523 0.23809 0.0
H1425 H 0.49877 0.12826 0.25896 0.0
H1426 H 0.52432 0.12616 0.27403 0.0
H1427 H 0.54859 0.10696 0.21344 0.0
H1428 H 0.63552 0.12882 0.24297 0.0
H1429 H 0.60798 0.12739 0.22866 0.0
H1430 H 0.58279 0.14382 0.29012 0.0
C1431 C 0.52224 0.12654 0.25294 0.0
C1432 C 0.55599 0.11517 0.23009 0.0
C1433 C 0.50753 0.12763 0.24433 0.0
C1434 C 0.62604 0.12769 0.25783 0.0
C1435 C 0.61023 0.12679 0.24964 0.0
C1436 C 0.57535 0.13558 0.2735 0.0
C1437 C 0.53405 0.12587 0.23455 0.0
C1438 C 0.55012 0.12542 0.2436 0.0
C1439 C 0.59775 0.12567 0.26838 0.0
C1440 C 0.58128 0.12545 0.25988 0.0
H1441 H 0.51379 0.12742 0.17769 0.0
H1442 H 0.53952 0.12582 0.19263 0.0
H1443 H 0.55608 0.1439 0.27602 0.0
H1444 H 0.61932 0.1256 0.3246 0.0
H1445 H 0.59183 0.12399 0.31035 0.0
C1446 C 0.49312 0.61462 0.30243 0.0
C1447 C 0.50435 0.62703 0.28356 0.0
C1448 C 0.47822 0.59883 0.2945 0.0
C1449 C 0.45823 0.5684 0.23779 0.0
H1450 H 0.41421 0.55351 0.27552 0.0
C1451 C 0.39078 0.51277 0.19901 0.0
C1452 C 0.37822 0.50125 0.21747 0.0
C1453 C 0.40653 0.52753 0.20747 0.0
C1454 C 0.42643 0.5573 0.26501 0.0
H1455 H 0.50896 0.63244 0.24154 0.0
H1456 H 0.48284 0.60479 0.22761 0.0
H1457 H 0.44103 0.58033 0.28917 0.0
H1458 H 0.37246 0.49599 0.25931 0.0
H1459 H 0.40012 0.52166 0.27418 0.0
H1460 H 0.44363 0.54536 0.21362 0.0
C1461 C 0.48564 0.60726 0.24857 0.0
C1462 C 0.44182 0.57272 0.27281 0.0
C1463 C 0.50056 0.62313 0.25653 0.0
C1464 C 0.38186 0.50466 0.24462 0.0
C1465 C 0.39766 0.51944 0.25311 0.0
C1466 C 0.44284 0.55293 0.23004 0.0
C1467 C 0.47419 0.59502 0.2675 0.0
C1468 C 0.4579 0.57849 0.25925 0.0
C1469 C 0.41016 0.53112 0.23462 0.0
C1470 C 0.42672 0.54722 0.24347 0.0
H1471 H 0.49571 0.61717 0.32343 0.0
H1472 H 0.46985 0.58957 0.30957 0.0
H1473 H 0.47045 0.57234 0.22716 0.0
H1474 H 0.38837 0.51055 0.17793 0.0
H1475 H 0.41568 0.53634 0.19265 0.0
C1476 C 0.87818 0.4913 0.30488 0.0
C1477 C 0.87711 0.50255 0.28594 0.0
C1478 C 0.87916 0.47646 0.29702 0.0
C1479 C 0.89048 0.45714 0.24044 0.0
H1480 H 0.86175 0.41282 0.27763 0.0
C1481 C 0.87961 0.3904 0.20069 0.0
C1482 C 0.87875 0.37781 0.21891 0.0
C1483 C 0.88043 0.40599 0.20944 0.0
C1484 C 0.87007 0.42514 0.26728 0.0
H1485 H 0.87643 0.50717 0.24388 0.0
H1486 H 0.87808 0.48114 0.23009 0.0
H1487 H 0.86113 0.43927 0.29149 0.0
H1488 H 0.87842 0.37184 0.26065 0.0
H1489 H 0.88008 0.39923 0.27603 0.0
H1490 H 0.89941 0.44302 0.21621 0.0
C1491 C 0.87829 0.4839 0.25105 0.0
C1492 C 0.86968 0.4403 0.2752 0.0
C1493 C 0.87724 0.49875 0.25893 0.0
C1494 C 0.87901 0.38127 0.24613 0.0
C1495 C 0.87985 0.39691 0.25492 0.0
C1496 C 0.89091 0.44198 0.23258 0.0
C1497 C 0.87915 0.47252 0.27003 0.0
C1498 C 0.87981 0.45647 0.26179 0.0
C1499 C 0.88045 0.40941 0.23665 0.0
C1500 C 0.88063 0.42575 0.24579 0.0
H1501 H 0.87818 0.4939 0.32586 0.0
H1502 H 0.88006 0.46812 0.31214 0.0
H1503 H 0.89865 0.46944 0.22997 0.0
H1504 H 0.87939 0.38812 0.17956 0.0
H1505 H 0.88061 0.41516 0.19479 0.0
C1506 C 0.5003 0.87774 0.2443 0.0
C1507 C 0.50379 0.87773 0.21714 0.0
C1508 C 0.48546 0.87863 0.25282 0.0
C1509 C 0.45185 0.89022 0.23006 0.0
H1510 H 0.42442 0.86052 0.28883 0.0
C1511 C 0.38163 0.87753 0.25667 0.0
C1512 C 0.37774 0.87736 0.28371 0.0
C1513 C 0.39745 0.8784 0.24867 0.0
C1514 C 0.43203 0.86905 0.27257 0.0
H1515 H 0.4946 0.87885 0.17763 0.0
H1516 H 0.46869 0.88013 0.19241 0.0
H1517 H 0.45132 0.86076 0.27502 0.0
H1518 H 0.3875 0.87824 0.32356 0.0
H1519 H 0.41502 0.87982 0.30964 0.0
H1520 H 0.43237 0.89831 0.22744 0.0
C1521 C 0.47749 0.87973 0.20721 0.0
C1522 C 0.4475 0.86922 0.26468 0.0
C1523 C 0.49231 0.87888 0.19872 0.0
C1524 C 0.39006 0.87828 0.30256 0.0
C1525 C 0.4058 0.87908 0.29459 0.0
C1526 C 0.43633 0.89 0.23789 0.0
C1527 C 0.47379 0.87951 0.23437 0.0
C1528 C 0.4576 0.87977 0.24327 0.0
C1529 C 0.40965 0.87904 0.26756 0.0
C1530 C 0.42622 0.87939 0.25922 0.0
H1531 H 0.50894 0.87693 0.25898 0.0
H1532 H 0.48318 0.87869 0.2739 0.0
H1533 H 0.45943 0.89872 0.21376 0.0
H1534 H 0.37239 0.87682 0.24169 0.0
H1535 H 0.39994 0.87819 0.2277 0.0
C1536 C 0.6255 0.50095 0.24423 0.0
C1537 C 0.62922 0.50472 0.21716 0.0
C1538 C 0.60968 0.48603 0.25234 0.0
C1539 C 0.57511 0.4422 0.22821 0.0
H1540 H 0.54797 0.44373 0.28794 0.0
C1541 C 0.50737 0.38199 0.25665 0.0
C1542 C 0.50413 0.37822 0.28379 0.0
C1543 C 0.52201 0.39788 0.24817 0.0
C1544 C 0.55548 0.44302 0.27137 0.0
H1545 H 0.61909 0.49605 0.1774 0.0
H1546 H 0.59159 0.47021 0.19151 0.0
H1547 H 0.57482 0.47063 0.27428 0.0
H1548 H 0.51358 0.38825 0.32334 0.0
H1549 H 0.53916 0.41574 0.30863 0.0
H1550 H 0.55598 0.41459 0.22545 0.0
C1551 C 0.60094 0.47859 0.2065 0.0
C1552 C 0.57087 0.45846 0.26355 0.0
C1553 C 0.61668 0.49348 0.19842 0.0
C1554 C 0.51568 0.39077 0.30226 0.0
C1555 C 0.53031 0.40661 0.29382 0.0
C1556 C 0.55977 0.42677 0.23607 0.0
C1557 C 0.59732 0.47456 0.23353 0.0
C1558 C 0.58088 0.45822 0.24189 0.0
C1559 C 0.53375 0.41035 0.26667 0.0
C1560 C 0.54977 0.42695 0.25779 0.0
H1561 H 0.63491 0.50937 0.25913 0.0
H1562 H 0.60734 0.48323 0.27332 0.0
H1563 H 0.58266 0.44149 0.2117 0.0
H1564 H 0.49867 0.37261 0.24195 0.0
H1565 H 0.52411 0.40043 0.22711 0.0
C1566 C 0.13191 0.62478 0.24361 0.0
C1567 C 0.13233 0.62875 0.21655 0.0
C1568 C 0.13085 0.60889 0.25167 0.0
C1569 C 0.13988 0.57403 0.22821 0.0
H1570 H 0.10928 0.54662 0.28623 0.0
C1571 C 0.12969 0.50522 0.25628 0.0
C1572 C 0.1294 0.50157 0.28343 0.0
C1573 C 0.12914 0.52022 0.24772 0.0
C1574 C 0.11803 0.5542 0.27016 0.0
H1575 H 0.13178 0.61911 0.17674 0.0
H1576 H 0.12989 0.59149 0.19078 0.0
H1577 H 0.11033 0.57397 0.27251 0.0
H1578 H 0.12807 0.51066 0.32291 0.0
H1579 H 0.12736 0.53685 0.30808 0.0
H1580 H 0.14777 0.55444 0.226 0.0
C1581 C 0.13057 0.60069 0.2058 0.0
C1582 C 0.11863 0.56988 0.26231 0.0
C1583 C 0.13156 0.61649 0.19776 0.0
C1584 C 0.12827 0.51307 0.30182 0.0
C1585 C 0.12775 0.52805 0.2933 0.0
C1586 C 0.13934 0.5584 0.23611 0.0
C1587 C 0.13027 0.59671 0.23284 0.0
C1588 C 0.12958 0.58 0.24125 0.0
C1589 C 0.1283 0.53191 0.26615 0.0
C1590 C 0.12844 0.54828 0.25723 0.0
H1591 H 0.13248 0.63396 0.25855 0.0
H1592 H 0.1308 0.6063 0.27267 0.0
H1593 H 0.14866 0.58165 0.21217 0.0
H1594 H 0.13048 0.49656 0.24163 0.0
H1595 H 0.12932 0.52263 0.22665 0.0
C1596 C 0.49263 0.87891 0.80324 0.0
C1597 C 0.50384 0.87747 0.78463 0.0
C1598 C 0.47774 0.87973 0.795 0.0
C1599 C 0.45796 0.88973 0.73757 0.0
H1600 H 0.41386 0.86131 0.77551 0.0
C1601 C 0.39073 0.87862 0.69859 0.0
C1602 C 0.3783 0.87786 0.71707 0.0
C1603 C 0.4064 0.87943 0.70704 0.0
C1604 C 0.42611 0.86954 0.76492 0.0
H1605 H 0.50839 0.87607 0.74272 0.0
H1606 H 0.48231 0.87749 0.72826 0.0
H1607 H 0.44052 0.86113 0.78956 0.0
H1608 H 0.37273 0.87772 0.75892 0.0
H1609 H 0.40026 0.87943 0.77376 0.0
H1610 H 0.44355 0.89818 0.71296 0.0
C1611 C 0.48512 0.87807 0.74926 0.0
C1612 C 0.4414 0.8694 0.77295 0.0
C1613 C 0.50001 0.87718 0.75753 0.0
C1614 C 0.38202 0.87822 0.74421 0.0
C1615 C 0.39775 0.87908 0.75269 0.0
C1616 C 0.44267 0.88993 0.72959 0.0
C1617 C 0.47372 0.87919 0.76793 0.0
C1618 C 0.45751 0.87947 0.75935 0.0
C1619 C 0.41009 0.87957 0.7342 0.0
C1620 C 0.42652 0.87979 0.74312 0.0
H1621 H 0.49525 0.87923 0.82428 0.0
H1622 H 0.4694 0.88085 0.80988 0.0
H1623 H 0.4702 0.89781 0.7269 0.0
H1624 H 0.38824 0.87831 0.67751 0.0
H1625 H 0.41544 0.87953 0.69223 0.0
C1626 C 0.61604 0.4927 0.80121 0.0
C1627 C 0.62858 0.50426 0.78276 0.0
C1628 C 0.60024 0.47802 0.79275 0.0
C1629 C 0.58053 0.44837 0.73516 0.0
H1630 H 0.53644 0.43272 0.77312 0.0
C1631 C 0.51434 0.39031 0.69789 0.0
C1632 C 0.50322 0.37785 0.71678 0.0
C1633 C 0.52907 0.40624 0.70579 0.0
C1634 C 0.54868 0.43683 0.76246 0.0
H1635 H 0.63418 0.50974 0.74092 0.0
H1636 H 0.60644 0.48418 0.72604 0.0
H1637 H 0.56305 0.45991 0.78664 0.0
H1638 H 0.49862 0.37248 0.75882 0.0
H1639 H 0.52447 0.40037 0.7727 0.0
H1640 H 0.56619 0.42528 0.71103 0.0
C1641 C 0.60896 0.48632 0.74711 0.0
C1642 C 0.56394 0.45243 0.77019 0.0
C1643 C 0.62481 0.50103 0.75561 0.0
C1644 C 0.50695 0.38182 0.7438 0.0
C1645 C 0.5217 0.39783 0.75174 0.0
C1646 C 0.56527 0.43282 0.72739 0.0
C1647 C 0.59655 0.47453 0.76559 0.0
C1648 C 0.58009 0.45835 0.75671 0.0
C1649 C 0.53304 0.41014 0.73279 0.0
C1650 C 0.54917 0.42682 0.74099 0.0
H1651 H 0.61855 0.4948 0.82229 0.0
H1652 H 0.59114 0.46913 0.80755 0.0
H1653 H 0.59278 0.45232 0.72463 0.0
H1654 H 0.51179 0.38771 0.67689 0.0
H1655 H 0.53734 0.41554 0.69069 0.0
C1656 C 0.12843 0.61444 0.80309 0.0
C1657 C 0.1294 0.62697 0.78464 0.0
C1658 C 0.12745 0.59871 0.79461 0.0
C1659 C 0.13721 0.57892 0.73675 0.0
H1660 H 0.10852 0.53486 0.7746 0.0
C1661 C 0.12747 0.51236 0.69838 0.0
C1662 C 0.12874 0.50105 0.71701 0.0
C1663 C 0.12671 0.52726 0.70661 0.0
C1664 C 0.11671 0.5471 0.76397 0.0
H1665 H 0.12974 0.63267 0.7428 0.0
H1666 H 0.12775 0.60507 0.72791 0.0
H1667 H 0.1084 0.56161 0.78854 0.0
H1668 H 0.12989 0.49635 0.75892 0.0
H1669 H 0.12858 0.52247 0.77337 0.0
H1670 H 0.14549 0.5644 0.71216 0.0
C1671 C 0.12807 0.60753 0.74898 0.0
C1672 C 0.11666 0.56244 0.77195 0.0
C1673 C 0.1291 0.62331 0.75749 0.0
C1674 C 0.12891 0.5048 0.74411 0.0
C1675 C 0.12808 0.51972 0.75237 0.0
C1676 C 0.1372 0.56357 0.72871 0.0
C1677 C 0.12736 0.59508 0.76745 0.0
C1678 C 0.12696 0.57858 0.7585 0.0
C1679 C 0.12715 0.53122 0.73368 0.0
C1680 C 0.12699 0.54748 0.74225 0.0
H1681 H 0.12868 0.61688 0.82417 0.0
H1682 H 0.12719 0.58959 0.80941 0.0
H1683 H 0.14556 0.59115 0.72621 0.0
H1684 H 0.12724 0.50981 0.67734 0.0
H1685 H 0.12573 0.53567 0.69172 0.0
C1686 C 0.61665 0.12602 0.6973 0.0
C1687 C 0.62912 0.12711 0.716 0.0
C1688 C 0.60091 0.12515 0.70545 0.0
C1689 C 0.57065 0.11444 0.76243 0.0
H1690 H 0.55578 0.14387 0.7256 0.0
C1691 C 0.51499 0.12593 0.80213 0.0
C1692 C 0.50357 0.12726 0.78378 0.0
C1693 C 0.52972 0.12494 0.79353 0.0
C1694 C 0.55956 0.13535 0.73586 0.0
H1695 H 0.6347 0.12778 0.75796 0.0
H1696 H 0.60713 0.12626 0.77227 0.0
H1697 H 0.58253 0.14391 0.7115 0.0
H1698 H 0.49842 0.12821 0.74199 0.0
H1699 H 0.524 0.1262 0.72689 0.0
H1700 H 0.54766 0.10584 0.78677 0.0
C1701 C 0.60952 0.12601 0.75127 0.0
C1702 C 0.57494 0.13541 0.72781 0.0
C1703 C 0.62535 0.12696 0.74308 0.0
C1704 C 0.50703 0.12728 0.75661 0.0
C1705 C 0.52176 0.12624 0.74798 0.0
C1706 C 0.55521 0.11431 0.77043 0.0
C1707 C 0.5972 0.12527 0.73252 0.0
C1708 C 0.58071 0.125 0.74103 0.0
C1709 C 0.53338 0.1252 0.76635 0.0
C1710 C 0.54949 0.12483 0.75731 0.0
H1711 H 0.61911 0.12603 0.67626 0.0
H1712 H 0.59159 0.12433 0.69051 0.0
H1713 H 0.5746 0.10608 0.77281 0.0
H1714 H 0.51272 0.12592 0.82322 0.0
H1715 H 0.53848 0.12441 0.80827 0.0
C1716 C 0.39206 0.51453 0.80172 0.0
C1717 C 0.37949 0.50299 0.78327 0.0
C1718 C 0.40785 0.52922 0.79326 0.0
C1719 C 0.42793 0.55879 0.73556 0.0
H1720 H 0.47187 0.57372 0.77366 0.0
C1721 C 0.49481 0.61568 0.69804 0.0
C1722 C 0.50605 0.62814 0.71686 0.0
C1723 C 0.47986 0.59996 0.70603 0.0
C1724 C 0.45968 0.5698 0.76296 0.0
H1725 H 0.37376 0.49764 0.74143 0.0
H1726 H 0.40149 0.5232 0.72655 0.0
H1727 H 0.44495 0.54689 0.78728 0.0
H1728 H 0.51063 0.63373 0.75886 0.0
H1729 H 0.48442 0.6062 0.77289 0.0
H1730 H 0.44266 0.5817 0.71123 0.0
C1731 C 0.39901 0.52104 0.74762 0.0
C1732 C 0.44423 0.55442 0.77076 0.0
C1733 C 0.38316 0.50633 0.75612 0.0
C1734 C 0.50222 0.62437 0.7439 0.0
C1735 C 0.48725 0.60858 0.75192 0.0
C1736 C 0.44338 0.57412 0.7277 0.0
C1737 C 0.41151 0.53273 0.76611 0.0
C1738 C 0.42813 0.54876 0.75723 0.0
C1739 C 0.47579 0.59628 0.73305 0.0
C1740 C 0.45943 0.57985 0.74135 0.0
H1741 H 0.38962 0.51236 0.8228 0.0
H1742 H 0.41701 0.53805 0.80807 0.0
H1743 H 0.41573 0.55503 0.72497 0.0
H1744 H 0.49743 0.61814 0.67704 0.0
H1745 H 0.47147 0.59066 0.691 0.0
C1746 C 0.879 0.39037 0.79917 0.0
C1747 C 0.87823 0.37779 0.781 0.0
C1748 C 0.88008 0.40606 0.79035 0.0
C1749 C 0.87098 0.42588 0.73197 0.0
H1750 H 0.89941 0.46981 0.7703 0.0
C1751 C 0.88054 0.4927 0.69468 0.0
C1752 C 0.87906 0.50372 0.71358 0.0
C1753 C 0.88134 0.47775 0.70254 0.0
C1754 C 0.8913 0.45762 0.75952 0.0
H1755 H 0.87827 0.37193 0.7393 0.0
H1756 H 0.88043 0.39953 0.7238 0.0
H1757 H 0.89952 0.44306 0.78416 0.0
H1758 H 0.87754 0.50788 0.7556 0.0
H1759 H 0.87894 0.48171 0.7694 0.0
H1760 H 0.86278 0.44047 0.70734 0.0
C1761 C 0.87991 0.39711 0.74492 0.0
C1762 C 0.89135 0.44227 0.76746 0.0
C1763 C 0.87879 0.38135 0.75377 0.0
C1764 C 0.87869 0.49964 0.74058 0.0
C1765 C 0.87957 0.4847 0.74847 0.0
C1766 C 0.87099 0.44125 0.72398 0.0
C1767 C 0.88049 0.40963 0.76312 0.0
C1768 C 0.88109 0.42617 0.7539 0.0
C1769 C 0.88076 0.4735 0.72951 0.0
C1770 C 0.88107 0.45727 0.73775 0.0
H1771 H 0.87853 0.388 0.8203 0.0
H1772 H 0.88021 0.41523 0.80495 0.0
H1773 H 0.8627 0.41368 0.72133 0.0
H1774 H 0.88091 0.49551 0.67371 0.0
H1775 H 0.8825 0.46955 0.68746 0.0
loop_
_geom_bond_atom_site_label_1
_geom_bond_atom_site_label_2
_geom_bond_distance
_geom_bond_site_symmetry_2
_ccdc_geom_bond_type
Co0 O1 2.216 . S
Co0 O2 2.091 . S
Co0 O4 2.004 . S
Co0 O10 2.021 . S
Co0 O12 2.137 . S
Co0 O13 2.244 . S
O1 Co0 2.216 . S
O1 C8 1.247 . S
O2 Co0 2.091 . S
O2 C8 1.261 . S
C3 O12 1.247 . S
C3 O13 1.272 . S
O4 Co0 2.004 . S
O4 C9 1.259 . S
Co5 O6 2.061 . S
Co5 O11 2.052 . S
Co5 O13 2.135 . S
O6 Co5 2.061 . S
O6 C9 1.235 . S
C7 O10 1.238 . S
C7 O11 1.241 . S
C8 O1 1.247 . S
C8 O2 1.261 . S
C9 O4 1.259 . S
C9 O6 1.235 . S
O10 Co0 2.021 . S
O10 C7 1.238 . S
O11 Co5 2.052 . S
O11 C7 1.241 . S
O12 Co0 2.137 . S
O12 C3 1.247 . S
O13 Co0 2.244 . S
O13 C3 1.272 . S
O13 Co5 2.135 . S
Co14 O15 2.216 . S
Co14 O16 2.091 . S
Co14 O18 2.004 . S
Co14 O24 2.021 . S
Co14 O26 2.137 . S
Co14 O27 2.244 . S
O15 Co14 2.216 . S
O15 C22 1.247 . S
O16 Co14 2.091 . S
O16 C22 1.261 . S
C17 O26 1.247 . S
C17 O27 1.272 . S
O18 Co14 2.004 . S
O18 C23 1.259 . S
Co19 O20 2.061 . S
Co19 O25 2.052 . S
Co19 O27 2.135 . S
O20 Co19 2.061 . S
O20 C23 1.235 . S
C21 O24 1.238 . S
C21 O25 1.241 . S
C22 O15 1.247 . S
C22 O16 1.261 . S
C23 O18 1.259 . S
C23 O20 1.235 . S
O24 Co14 2.021 . S
O24 C21 1.238 . S
O25 Co19 2.052 . S
O25 C21 1.241 . S
O26 Co14 2.137 . S
O26 C17 1.247 . S
O27 Co14 2.244 . S
O27 C17 1.272 . S
O27 Co19 2.135 . S
Co28 O29 2.216 . S
Co28 O30 2.091 . S
Co28 O32 2.004 . S
Co28 O38 2.021 . S
Co28 O40 2.137 . S
Co28 O41 2.244 . S
O29 Co28 2.216 . S
O29 C36 1.247 . S
O30 Co28 2.091 . S
O30 C36 1.261 . S
C31 O40 1.247 . S
C31 O41 1.272 . S
O32 Co28 2.004 . S
O32 C37 1.259 . S
Co33 O34 2.061 . S
Co33 O39 2.052 . S
Co33 O41 2.135 . S
O34 Co33 2.061 . S
O34 C37 1.235 . S
C35 O38 1.238 . S
C35 O39 1.241 . S
C36 O29 1.247 . S
C36 O30 1.261 . S
C37 O32 1.259 . S
C37 O34 1.235 . S
O38 Co28 2.021 . S
O38 C35 1.238 . S
O39 Co33 2.052 . S
O39 C35 1.241 . S
O40 Co28 2.137 . S
O40 C31 1.247 . S
O41 Co28 2.244 . S
O41 C31 1.272 . S
O41 Co33 2.135 . S
Co42 O43 2.216 . S
Co42 O44 2.091 . S
Co42 O46 2.004 . S
Co42 O52 2.021 . S
Co42 O54 2.137 . S
Co42 O55 2.244 . S
O43 Co42 2.216 . S
O43 C50 1.247 . S
O44 Co42 2.091 . S
O44 C50 1.261 . S
C45 O54 1.247 . S
C45 O55 1.272 . S
O46 Co42 2.004 . S
O46 C51 1.259 . S
Co47 O48 2.061 . S
Co47 O53 2.052 . S
Co47 O55 2.135 . S
O48 Co47 2.061 . S
O48 C51 1.235 . S
C49 O52 1.238 . S
C49 O53 1.241 . S
C50 O43 1.247 . S
C50 O44 1.261 . S
C51 O46 1.259 . S
C51 O48 1.235 . S
O52 Co42 2.021 . S
O52 C49 1.238 . S
O53 Co47 2.052 . S
O53 C49 1.241 . S
O54 Co42 2.137 . S
O54 C45 1.247 . S
O55 Co42 2.244 . S
O55 C45 1.272 . S
O55 Co47 2.135 . S
Co56 O57 2.216 . S
Co56 O58 2.091 . S
Co56 O60 2.004 . S
Co56 O66 2.021 . S
Co56 O68 2.137 . S
Co56 O69 2.244 . S
O57 Co56 2.216 . S
O57 C64 1.247 . S
O58 Co56 2.091 . S
O58 C64 1.261 . S
C59 O68 1.247 . S
C59 O69 1.272 . S
O60 Co56 2.004 . S
O60 C65 1.259 . S
Co61 O62 2.061 . S
Co61 O67 2.052 . S
Co61 O69 2.135 . S
O62 Co61 2.061 . S
O62 C65 1.235 . S
C63 O66 1.238 . S
C63 O67 1.241 . S
C64 O57 1.247 . S
C64 O58 1.261 . S
C65 O60 1.259 . S
C65 O62 1.235 . S
O66 Co56 2.021 . S
O66 C63 1.238 . S
O67 Co61 2.052 . S
O67 C63 1.241 . S
O68 Co56 2.137 . S
O68 C59 1.247 . S
O69 Co56 2.244 . S
O69 C59 1.272 . S
O69 Co61 2.135 . S
Co70 O71 2.216 . S
Co70 O72 2.091 . S
Co70 O74 2.004 . S
Co70 O80 2.021 . S
Co70 O82 2.137 . S
Co70 O83 2.244 . S
O71 Co70 2.216 . S
O71 C78 1.247 . S
O72 Co70 2.091 . S
O72 C78 1.261 . S
C73 O82 1.247 . S
C73 O83 1.272 . S
O74 Co70 2.004 . S
O74 C79 1.259 . S
Co75 O76 2.061 . S
Co75 O81 2.052 . S
Co75 O83 2.135 . S
O76 Co75 2.061 . S
O76 C79 1.235 . S
C77 O80 1.238 . S
C77 O81 1.241 . S
C78 O71 1.247 . S
C78 O72 1.261 . S
C79 O74 1.259 . S
C79 O76 1.235 . S
O80 Co70 2.021 . S
O80 C77 1.238 . S
O81 Co75 2.052 . S
O81 C77 1.241 . S
O82 Co70 2.137 . S
O82 C73 1.247 . S
O83 Co70 2.244 . S
O83 C73 1.272 . S
O83 Co75 2.135 . S
Co84 O85 2.216 . S
Co84 O86 2.091 . S
Co84 O88 2.004 . S
Co84 O94 2.021 . S
Co84 O96 2.137 . S
Co84 O97 2.244 . S
O85 Co84 2.216 . S
O85 C92 1.247 . S
O86 Co84 2.091 . S
O86 C92 1.261 . S
C87 O96 1.247 . S
C87 O97 1.272 . S
O88 Co84 2.004 . S
O88 C93 1.259 . S
Co89 O90 2.061 . S
Co89 O95 2.052 . S
Co89 O97 2.135 . S
O90 Co89 2.061 . S
O90 C93 1.235 . S
C91 O94 1.238 . S
C91 O95 1.241 . S
C92 O85 1.247 . S
C92 O86 1.261 . S
C93 O88 1.259 . S
C93 O90 1.235 . S
O94 Co84 2.021 . S
O94 C91 1.238 . S
O95 Co89 2.052 . S
O95 C91 1.241 . S
O96 Co84 2.137 . S
O96 C87 1.247 . S
O97 Co84 2.244 . S
O97 C87 1.272 . S
O97 Co89 2.135 . S
Co98 O99 2.216 . S
Co98 O100 2.091 . S
Co98 O102 2.004 . S
Co98 O108 2.021 . S
Co98 O110 2.137 . S
Co98 O111 2.244 . S
O99 Co98 2.216 . S
O99 C106 1.247 . S
O100 Co98 2.091 . S
O100 C106 1.261 . S
C101 O110 1.247 . S
C101 O111 1.272 . S
O102 Co98 2.004 . S
O102 C107 1.259 . S
Co103 O104 2.061 . S
Co103 O109 2.052 . S
Co103 O111 2.135 . S
O104 Co103 2.061 . S
O104 C107 1.235 . S
C105 O108 1.238 . S
C105 O109 1.241 . S
C106 O99 1.247 . S
C106 O100 1.261 . S
C107 O102 1.259 . S
C107 O104 1.235 . S
O108 Co98 2.021 . S
O108 C105 1.238 . S
O109 Co103 2.052 . S
O109 C105 1.241 . S
O110 Co98 2.137 . S
O110 C101 1.247 . S
O111 Co98 2.244 . S
O111 C101 1.272 . S
O111 Co103 2.135 . S
Co112 O113 2.216 . S
Co112 O114 2.091 . S
Co112 O116 2.004 . S
Co112 O122 2.021 . S
Co112 O124 2.137 . S
Co112 O125 2.244 . S
O113 Co112 2.216 . S
O113 C120 1.247 . S
O114 Co112 2.091 . S
O114 C120 1.261 . S
C115 O124 1.247 . S
C115 O125 1.272 . S
O116 Co112 2.004 . S
O116 C121 1.259 . S
Co117 O118 2.061 . S
Co117 O123 2.052 . S
Co117 O125 2.135 . S
O118 Co117 2.061 . S
O118 C121 1.235 . S
C119 O122 1.238 . S
C119 O123 1.241 . S
C120 O113 1.247 . S
C120 O114 1.261 . S
C121 O116 1.259 . S
C121 O118 1.235 . S
O122 Co112 2.021 . S
O122 C119 1.238 . S
O123 Co117 2.052 . S
O123 C119 1.241 . S
O124 Co112 2.137 . S
O124 C115 1.247 . S
O125 Co112 2.244 . S
O125 C115 1.272 . S
O125 Co117 2.135 . S
Co126 O127 2.216 . S
Co126 O128 2.091 . S
Co126 O130 2.004 . S
Co126 O136 2.021 . S
Co126 O138 2.137 . S
Co126 O139 2.244 . S
O127 Co126 2.216 . S
O127 C134 1.247 . S
O128 Co126 2.091 . S
O128 C134 1.261 . S
C129 O138 1.247 . S
C129 O139 1.272 . S
O130 Co126 2.004 . S
O130 C135 1.259 . S
Co131 O132 2.061 . S
Co131 O137 2.052 . S
Co131 O139 2.135 . S
O132 Co131 2.061 . S
O132 C135 1.235 . S
C133 O136 1.238 . S
C133 O137 1.241 . S
C134 O127 1.247 . S
C134 O128 1.261 . S
C135 O130 1.259 . S
C135 O132 1.235 . S
O136 Co126 2.021 . S
O136 C133 1.238 . S
O137 Co131 2.052 . S
O137 C133 1.241 . S
O138 Co126 2.137 . S
O138 C129 1.247 . S
O139 Co126 2.244 . S
O139 C129 1.272 . S
O139 Co131 2.135 . S
Co140 O141 2.216 . S
Co140 O142 2.091 . S
Co140 O144 2.004 . S
Co140 O150 2.021 . S
Co140 O152 2.137 . S
Co140 O153 2.244 . S
O141 Co140 2.216 . S
O141 C148 1.247 . S
O142 Co140 2.091 . S
O142 C148 1.261 . S
C143 O152 1.247 . S
C143 O153 1.272 . S
O144 Co140 2.004 . S
O144 C149 1.259 . S
Co145 O146 2.061 . S
Co145 O151 2.052 . S
Co145 O153 2.135 . S
O146 Co145 2.061 . S
O146 C149 1.235 . S
C147 O150 1.238 . S
C147 O151 1.241 . S
C148 O141 1.247 . S
C148 O142 1.261 . S
C149 O144 1.259 . S
C149 O146 1.235 . S
O150 Co140 2.021 . S
O150 C147 1.238 . S
O151 Co145 2.052 . S
O151 C147 1.241 . S
O152 Co140 2.137 . S
O152 C143 1.247 . S
O153 Co140 2.244 . S
O153 C143 1.272 . S
O153 Co145 2.135 . S
Co154 O155 2.216 . S
Co154 O156 2.091 . S
Co154 O158 2.004 . S
Co154 O164 2.021 . S
Co154 O166 2.137 . S
Co154 O167 2.244 . S
O155 Co154 2.216 . S
O155 C162 1.247 . S
O156 Co154 2.091 . S
O156 C162 1.261 . S
C157 O166 1.247 . S
C157 O167 1.272 . S
O158 Co154 2.004 . S
O158 C163 1.259 . S
Co159 O160 2.061 . S
Co159 O165 2.052 . S
Co159 O167 2.135 . S
O160 Co159 2.061 . S
O160 C163 1.235 . S
C161 O164 1.238 . S
C161 O165 1.241 . S
C162 O155 1.247 . S
C162 O156 1.261 . S
C163 O158 1.259 . S
C163 O160 1.235 . S
O164 Co154 2.021 . S
O164 C161 1.238 . S
O165 Co159 2.052 . S
O165 C161 1.241 . S
O166 Co154 2.137 . S
O166 C157 1.247 . S
O167 Co154 2.244 . S
O167 C157 1.272 . S
O167 Co159 2.135 . S
Co168 O169 2.216 . S
Co168 O170 2.091 . S
Co168 O172 2.004 . S
Co168 O178 2.021 . S
Co168 O180 2.137 . S
Co168 O181 2.244 . S
O169 Co168 2.216 . S
O169 C176 1.247 . S
O170 Co168 2.091 . S
O170 C176 1.261 . S
C171 O180 1.247 . S
C171 O181 1.272 . S
O172 Co168 2.004 . S
O172 C177 1.259 . S
Co173 O174 2.061 . S
Co173 O179 2.052 . S
Co173 O181 2.135 . S
O174 Co173 2.061 . S
O174 C177 1.235 . S
C175 O178 1.238 . S
C175 O179 1.241 . S
C176 O169 1.247 . S
C176 O170 1.261 . S
C177 O172 1.259 . S
C177 O174 1.235 . S
O178 Co168 2.021 . S
O178 C175 1.238 . S
O179 Co173 2.052 . S
O179 C175 1.241 . S
O180 Co168 2.137 . S
O180 C171 1.247 . S
O181 Co168 2.244 . S
O181 C171 1.272 . S
O181 Co173 2.135 . S
Co182 O183 2.216 . S
Co182 O184 2.091 . S
Co182 O186 2.004 . S
Co182 O192 2.021 . S
Co182 O194 2.137 . S
Co182 O195 2.244 . S
O183 Co182 2.216 . S
O183 C190 1.247 . S
O184 Co182 2.091 . S
O184 C190 1.261 . S
C185 O194 1.247 . S
C185 O195 1.272 . S
O186 Co182 2.004 . S
O186 C191 1.259 . S
Co187 O188 2.061 . S
Co187 O193 2.052 . S
Co187 O195 2.135 . S
O188 Co187 2.061 . S
O188 C191 1.235 . S
C189 O192 1.238 . S
C189 O193 1.241 . S
C190 O183 1.247 . S
C190 O184 1.261 . S
C191 O186 1.259 . S
C191 O188 1.235 . S
O192 Co182 2.021 . S
O192 C189 1.238 . S
O193 Co187 2.052 . S
O193 C189 1.241 . S
O194 Co182 2.137 . S
O194 C185 1.247 . S
O195 Co182 2.244 . S
O195 C185 1.272 . S
O195 Co187 2.135 . S
Co196 O197 2.216 . S
Co196 O198 2.091 . S
Co196 O200 2.004 . S
Co196 O206 2.021 . S
Co196 O208 2.137 . S
Co196 O209 2.244 . S
O197 Co196 2.216 . S
O197 C204 1.247 . S
O198 Co196 2.091 . S
O198 C204 1.261 . S
C199 O208 1.247 . S
C199 O209 1.272 . S
O200 Co196 2.004 . S
O200 C205 1.259 . S
Co201 O202 2.061 . S
Co201 O207 2.052 . S
Co201 O209 2.135 . S
O202 Co201 2.061 . S
O202 C205 1.235 . S
C203 O206 1.238 . S
C203 O207 1.241 . S
C204 O197 1.247 . S
C204 O198 1.261 . S
C205 O200 1.259 . S
C205 O202 1.235 . S
O206 Co196 2.021 . S
O206 C203 1.238 . S
O207 Co201 2.052 . S
O207 C203 1.241 . S
O208 Co196 2.137 . S
O208 C199 1.247 . S
O209 Co196 2.244 . S
O209 C199 1.272 . S
O209 Co201 2.135 . S
Co210 O211 2.216 . S
Co210 O212 2.091 . S
Co210 O214 2.004 . S
Co210 O220 2.021 . S
Co210 O222 2.137 . S
Co210 O223 2.244 . S
O211 Co210 2.216 . S
O211 C218 1.247 . S
O212 Co210 2.091 . S
O212 C218 1.261 . S
C213 O222 1.247 . S
C213 O223 1.272 . S
O214 Co210 2.004 . S
O214 C219 1.259 . S
Co215 O216 2.061 . S
Co215 O221 2.052 . S
Co215 O223 2.135 . S
O216 Co215 2.061 . S
O216 C219 1.235 . S
C217 O220 1.238 . S
C217 O221 1.241 . S
C218 O211 1.247 . S
C218 O212 1.261 . S
C219 O214 1.259 . S
C219 O216 1.235 . S
O220 Co210 2.021 . S
O220 C217 1.238 . S
O221 Co215 2.052 . S
O221 C217 1.241 . S
O222 Co210 2.137 . S
O222 C213 1.247 . S
O223 Co210 2.244 . S
O223 C213 1.272 . S
O223 Co215 2.135 . S
Co224 O225 2.216 . S
Co224 O226 2.091 . S
Co224 O228 2.004 . S
Co224 O234 2.021 . S
Co224 O236 2.137 . S
Co224 O237 2.244 . S
O225 Co224 2.216 . S
O225 C232 1.247 . S
O226 Co224 2.091 . S
O226 C232 1.261 . S
C227 O236 1.247 . S
C227 O237 1.272 . S
O228 Co224 2.004 . S
O228 C233 1.259 . S
Co229 O230 2.061 . S
Co229 O235 2.052 . S
Co229 O237 2.135 . S
O230 Co229 2.061 . S
O230 C233 1.235 . S
C231 O234 1.238 . S
C231 O235 1.241 . S
C232 O225 1.247 . S
C232 O226 1.261 . S
C233 O228 1.259 . S
C233 O230 1.235 . S
O234 Co224 2.021 . S
O234 C231 1.238 . S
O235 Co229 2.052 . S
O235 C231 1.241 . S
O236 Co224 2.137 . S
O236 C227 1.247 . S
O237 Co224 2.244 . S
O237 C227 1.272 . S
O237 Co229 2.135 . S
Co238 O239 2.216 . S
Co238 O240 2.091 . S
Co238 O242 2.004 . S
Co238 O248 2.021 . S
Co238 O250 2.137 . S
Co238 O251 2.244 . S
O239 Co238 2.216 . S
O239 C246 1.247 . S
O240 Co238 2.091 . S
O240 C246 1.261 . S
C241 O250 1.247 . S
C241 O251 1.272 . S
O242 Co238 2.004 . S
O242 C247 1.259 . S
Co243 O244 2.061 . S
Co243 O249 2.052 . S
Co243 O251 2.135 . S
O244 Co243 2.061 . S
O244 C247 1.235 . S
C245 O248 1.238 . S
C245 O249 1.241 . S
C246 O239 1.247 . S
C246 O240 1.261 . S
C247 O242 1.259 . S
C247 O244 1.235 . S
O248 Co238 2.021 . S
O248 C245 1.238 . S
O249 Co243 2.052 . S
O249 C245 1.241 . S
O250 Co238 2.137 . S
O250 C241 1.247 . S
O251 Co238 2.244 . S
O251 C241 1.272 . S
O251 Co243 2.135 . S
Co252 O253 2.216 . S
Co252 O254 2.091 . S
Co252 O256 2.004 . S
Co252 O262 2.021 . S
Co252 O264 2.137 . S
Co252 O265 2.244 . S
O253 Co252 2.216 . S
O253 C260 1.247 . S
O254 Co252 2.091 . S
O254 C260 1.261 . S
C255 O264 1.247 . S
C255 O265 1.272 . S
O256 Co252 2.004 . S
O256 C261 1.259 . S
Co257 O258 2.061 . S
Co257 O263 2.052 . S
Co257 O265 2.135 . S
O258 Co257 2.061 . S
O258 C261 1.235 . S
C259 O262 1.238 . S
C259 O263 1.241 . S
C260 O253 1.247 . S
C260 O254 1.261 . S
C261 O256 1.259 . S
C261 O258 1.235 . S
O262 Co252 2.021 . S
O262 C259 1.238 . S
O263 Co257 2.052 . S
O263 C259 1.241 . S
O264 Co252 2.137 . S
O264 C255 1.247 . S
O265 Co252 2.244 . S
O265 C255 1.272 . S
O265 Co257 2.135 . S
Co266 O267 2.216 . S
Co266 O268 2.091 . S
Co266 O270 2.004 . S
Co266 O276 2.021 . S
Co266 O278 2.137 . S
Co266 O279 2.244 . S
O267 Co266 2.216 . S
O267 C274 1.247 . S
O268 Co266 2.091 . S
O268 C274 1.261 . S
C269 O278 1.247 . S
C269 O279 1.272 . S
O270 Co266 2.004 . S
O270 C275 1.259 . S
Co271 O272 2.061 . S
Co271 O277 2.052 . S
Co271 O279 2.135 . S
O272 Co271 2.061 . S
O272 C275 1.235 . S
C273 O276 1.238 . S
C273 O277 1.241 . S
C274 O267 1.247 . S
C274 O268 1.261 . S
C275 O270 1.259 . S
C275 O272 1.235 . S
O276 Co266 2.021 . S
O276 C273 1.238 . S
O277 Co271 2.052 . S
O277 C273 1.241 . S
O278 Co266 2.137 . S
O278 C269 1.247 . S
O279 Co266 2.244 . S
O279 C269 1.272 . S
O279 Co271 2.135 . S
Co280 O281 2.216 . S
Co280 O282 2.091 . S
Co280 O284 2.004 . S
Co280 O290 2.021 . S
Co280 O292 2.137 . S
Co280 O293 2.244 . S
O281 Co280 2.216 . S
O281 C288 1.247 . S
O282 Co280 2.091 . S
O282 C288 1.261 . S
C283 O292 1.247 . S
C283 O293 1.272 . S
O284 Co280 2.004 . S
O284 C289 1.259 . S
Co285 O286 2.061 . S
Co285 O291 2.052 . S
Co285 O293 2.135 . S
O286 Co285 2.061 . S
O286 C289 1.235 . S
C287 O290 1.238 . S
C287 O291 1.241 . S
C288 O281 1.247 . S
C288 O282 1.261 . S
C289 O284 1.259 . S
C289 O286 1.235 . S
O290 Co280 2.021 . S
O290 C287 1.238 . S
O291 Co285 2.052 . S
O291 C287 1.241 . S
O292 Co280 2.137 . S
O292 C283 1.247 . S
O293 Co280 2.244 . S
O293 C283 1.272 . S
O293 Co285 2.135 . S
Co294 O295 2.216 . S
Co294 O296 2.091 . S
Co294 O298 2.004 . S
Co294 O304 2.021 . S
Co294 O306 2.137 . S
Co294 O307 2.244 . S
O295 Co294 2.216 . S
O295 C302 1.247 . S
O296 Co294 2.091 . S
O296 C302 1.261 . S
C297 O306 1.247 . S
C297 O307 1.272 . S
O298 Co294 2.004 . S
O298 C303 1.259 . S
Co299 O300 2.061 . S
Co299 O305 2.052 . S
Co299 O307 2.135 . S
O300 Co299 2.061 . S
O300 C303 1.235 . S
C301 O304 1.238 . S
C301 O305 1.241 . S
C302 O295 1.247 . S
C302 O296 1.261 . S
C303 O298 1.259 . S
C303 O300 1.235 . S
O304 Co294 2.021 . S
O304 C301 1.238 . S
O305 Co299 2.052 . S
O305 C301 1.241 . S
O306 Co294 2.137 . S
O306 C297 1.247 . S
O307 Co294 2.244 . S
O307 C297 1.272 . S
O307 Co299 2.135 . S
Co308 O309 2.216 . S
Co308 O310 2.091 . S
Co308 O312 2.004 . S
Co308 O318 2.021 . S
Co308 O320 2.137 . S
Co308 O321 2.244 . S
O309 Co308 2.216 . S
O309 C316 1.247 . S
O310 Co308 2.091 . S
O310 C316 1.261 . S
C311 O320 1.247 . S
C311 O321 1.272 . S
O312 Co308 2.004 . S
O312 C317 1.259 . S
Co313 O314 2.061 . S
Co313 O319 2.052 . S
Co313 O321 2.135 . S
O314 Co313 2.061 . S
O314 C317 1.235 . S
C315 O318 1.238 . S
C315 O319 1.241 . S
C316 O309 1.247 . S
C316 O310 1.261 . S
C317 O312 1.259 . S
C317 O314 1.235 . S
O318 Co308 2.021 . S
O318 C315 1.238 . S
O319 Co313 2.052 . S
O319 C315 1.241 . S
O320 Co308 2.137 . S
O320 C311 1.247 . S
O321 Co308 2.244 . S
O321 C311 1.272 . S
O321 Co313 2.135 . S
Co322 O323 2.216 . S
Co322 O324 2.091 . S
Co322 O326 2.004 . S
Co322 O332 2.021 . S
Co322 O334 2.137 . S
Co322 O335 2.244 . S
O323 Co322 2.216 . S
O323 C330 1.247 . S
O324 Co322 2.091 . S
O324 C330 1.261 . S
C325 O334 1.247 . S
C325 O335 1.272 . S
O326 Co322 2.004 . S
O326 C331 1.259 . S
Co327 O328 2.061 . S
Co327 O333 2.052 . S
Co327 O335 2.135 . S
O328 Co327 2.061 . S
O328 C331 1.235 . S
C329 O332 1.238 . S
C329 O333 1.241 . S
C330 O323 1.247 . S
C330 O324 1.261 . S
C331 O326 1.259 . S
C331 O328 1.235 . S
O332 Co322 2.021 . S
O332 C329 1.238 . S
O333 Co327 2.052 . S
O333 C329 1.241 . S
O334 Co322 2.137 . S
O334 C325 1.247 . S
O335 Co322 2.244 . S
O335 C325 1.272 . S
O335 Co327 2.135 . S
C336 C337 1.349 . S
C336 C338 1.327 . S
C336 H361 0.950 . S
C337 C336 1.349 . S
C337 C353 1.349 . S
C338 C336 1.327 . S
C338 C357 1.429 . S
C338 H362 0.950 . S
C339 C356 1.574 1_545 S
C339 C358 1.368 . S
C339 H363 0.949 . S
H340 C344 0.949 . S
C341 C342 1.349 . S
C341 C343 1.327 . S
C341 H364 0.950 . S
C342 C341 1.349 . S
C342 C354 1.349 . S
C343 C341 1.327 . S
C343 C359 1.429 . S
C343 H365 0.950 . S
C344 H340 0.949 . S
C344 C352 1.574 1_565 S
C344 C360 1.368 . S
H345 C353 0.950 . S
H346 C351 0.950 . S
H347 C352 0.949 . S
H348 C354 0.950 . S
H349 C355 0.950 . S
H350 C356 0.949 . S
C351 H346 0.950 . S
C351 C353 1.327 . S
C351 C357 1.429 . S
C352 C344 1.574 1_545 S
C352 H347 0.949 . S
C352 C358 1.368 . S
C353 C337 1.349 . S
C353 H345 0.950 . S
C353 C351 1.327 . S
C354 C342 1.349 . S
C354 H348 0.950 . S
C354 C355 1.327 . S
C355 H349 0.950 . S
C355 C354 1.327 . S
C355 C359 1.429 . S
C356 C339 1.574 1_565 S
C356 H350 0.949 . S
C356 C360 1.368 . S
C357 C338 1.429 . S
C357 C351 1.429 . S
C357 C358 1.523 . S
C358 C339 1.368 . S
C358 C352 1.368 . S
C358 C357 1.523 . S
C359 C343 1.429 . S
C359 C355 1.429 . S
C359 C360 1.523 . S
C360 C344 1.368 . S
C360 C356 1.368 . S
C360 C359 1.523 . S
H361 C336 0.950 . S
H362 C338 0.950 . S
H363 C339 0.949 . S
H364 C341 0.950 . S
H365 C343 0.950 . S
C366 C367 1.349 . S
C366 C368 1.327 . S
C366 H391 0.950 . S
C367 C366 1.349 . S
C367 C383 1.349 . S
C368 C366 1.327 . S
C368 C387 1.429 . S
C368 H392 0.950 . S
C369 C386 1.574 . S
C369 C388 1.368 . S
C369 H393 0.949 . S
H370 C374 0.949 . S
C371 C372 1.349 . S
C371 C373 1.327 . S
C371 H394 0.950 . S
C372 C371 1.349 . S
C372 C384 1.349 . S
C373 C371 1.327 . S
C373 C389 1.429 . S
C373 H395 0.950 . S
C374 H370 0.949 . S
C374 C382 1.574 . S
C374 C390 1.368 . S
H375 C383 0.950 . S
H376 C381 0.950 . S
H377 C382 0.949 . S
H378 C384 0.950 . S
H379 C385 0.950 . S
H380 C386 0.949 . S
C381 H376 0.950 . S
C381 C383 1.327 . S
C381 C387 1.429 . S
C382 C374 1.574 . S
C382 H377 0.949 . S
C382 C388 1.368 . S
C383 C367 1.349 . S
C383 H375 0.950 . S
C383 C381 1.327 . S
C384 C372 1.349 . S
C384 H378 0.950 . S
C384 C385 1.327 . S
C385 H379 0.950 . S
C385 C384 1.327 . S
C385 C389 1.429 . S
C386 C369 1.574 . S
C386 H380 0.949 . S
C386 C390 1.368 . S
C387 C368 1.429 . S
C387 C381 1.429 . S
C387 C388 1.523 . S
C388 C369 1.368 . S
C388 C382 1.368 . S
C388 C387 1.523 . S
C389 C373 1.429 . S
C389 C385 1.429 . S
C389 C390 1.523 . S
C390 C374 1.368 . S
C390 C386 1.368 . S
C390 C389 1.523 . S
H391 C366 0.950 . S
H392 C368 0.950 . S
H393 C369 0.949 . S
H394 C371 0.950 . S
H395 C373 0.950 . S
C396 C397 1.349 . S
C396 C398 1.327 . S
C396 H421 0.950 . S
C397 C396 1.349 . S
C397 C413 1.349 . S
C398 C396 1.327 . S
C398 C417 1.429 . S
C398 H422 0.950 . S
C399 C416 1.574 1_655 S
C399 C418 1.368 . S
C399 H423 0.949 . S
H400 C404 0.949 . S
C401 C402 1.349 . S
C401 C403 1.327 . S
C401 H424 0.950 . S
C402 C401 1.349 . S
C402 C414 1.349 . S
C403 C401 1.327 . S
C403 C419 1.429 . S
C403 H425 0.950 . S
C404 H400 0.949 . S
C404 C412 1.574 1_455 S
C404 C420 1.368 . S
H405 C413 0.950 . S
H406 C411 0.950 . S
H407 C412 0.949 . S
H408 C414 0.950 . S
H409 C415 0.950 . S
H410 C416 0.949 . S
C411 H406 0.950 . S
C411 C413 1.327 . S
C411 C417 1.429 . S
C412 C404 1.574 1_655 S
C412 H407 0.949 . S
C412 C418 1.368 . S
C413 C397 1.349 . S
C413 H405 0.950 . S
C413 C411 1.327 . S
C414 C402 1.349 . S
C414 H408 0.950 . S
C414 C415 1.327 . S
C415 H409 0.950 . S
C415 C414 1.327 . S
C415 C419 1.429 . S
C416 C399 1.574 1_455 S
C416 H410 0.949 . S
C416 C420 1.368 . S
C417 C398 1.429 . S
C417 C411 1.429 . S
C417 C418 1.523 . S
C418 C399 1.368 . S
C418 C412 1.368 . S
C418 C417 1.523 . S
C419 C403 1.429 . S
C419 C415 1.429 . S
C419 C420 1.523 . S
C420 C404 1.368 . S
C420 C416 1.368 . S
C420 C419 1.523 . S
H421 C396 0.950 . S
H422 C398 0.950 . S
H423 C399 0.949 . S
H424 C401 0.950 . S
H425 C403 0.950 . S
C426 C427 1.349 . S
C426 C428 1.327 . S
C426 H451 0.950 . S
C427 C426 1.349 . S
C427 C443 1.349 . S
C428 C426 1.327 . S
C428 C447 1.429 . S
C428 H452 0.950 . S
C429 C446 1.574 1_565 S
C429 C448 1.368 . S
C429 H453 0.949 . S
H430 C434 0.949 . S
C431 C432 1.349 . S
C431 C433 1.327 . S
C431 H454 0.950 . S
C432 C431 1.349 . S
C432 C444 1.349 . S
C433 C431 1.327 . S
C433 C449 1.429 . S
C433 H455 0.950 . S
C434 H430 0.949 . S
C434 C442 1.574 1_545 S
C434 C450 1.368 . S
H435 C443 0.950 . S
H436 C441 0.950 . S
H437 C442 0.949 . S
H438 C444 0.950 . S
H439 C445 0.950 . S
H440 C446 0.949 . S
C441 H436 0.950 . S
C441 C443 1.327 . S
C441 C447 1.429 . S
C442 C434 1.574 1_565 S
C442 H437 0.949 . S
C442 C448 1.368 . S
C443 C427 1.349 . S
C443 H435 0.950 . S
C443 C441 1.327 . S
C444 C432 1.349 . S
C444 H438 0.950 . S
C444 C445 1.327 . S
C445 H439 0.950 . S
C445 C444 1.327 . S
C445 C449 1.429 . S
C446 C429 1.574 1_545 S
C446 H440 0.949 . S
C446 C450 1.368 . S
C447 C428 1.429 . S
C447 C441 1.429 . S
C447 C448 1.523 . S
C448 C429 1.368 . S
C448 C442 1.368 . S
C448 C447 1.523 . S
C449 C433 1.429 . S
C449 C445 1.429 . S
C449 C450 1.523 . S
C450 C434 1.368 . S
C450 C446 1.368 . S
C450 C449 1.523 . S
H451 C426 0.950 . S
H452 C428 0.950 . S
H453 C429 0.949 . S
H454 C431 0.950 . S
H455 C433 0.950 . S
C456 C457 1.349 . S
C456 C458 1.327 . S
C456 H481 0.950 . S
C457 C456 1.349 . S
C457 C473 1.349 . S
C458 C456 1.327 . S
C458 C477 1.429 . S
C458 H482 0.950 . S
C459 C476 1.574 . S
C459 C478 1.368 . S
C459 H483 0.949 . S
H460 C464 0.949 . S
C461 C462 1.349 . S
C461 C463 1.327 . S
C461 H484 0.950 . S
C462 C461 1.349 . S
C462 C474 1.349 . S
C463 C461 1.327 . S
C463 C479 1.429 . S
C463 H485 0.950 . S
C464 H460 0.949 . S
C464 C472 1.574 . S
C464 C480 1.368 . S
H465 C473 0.950 . S
H466 C471 0.950 . S
H467 C472 0.949 . S
H468 C474 0.950 . S
H469 C475 0.950 . S
H470 C476 0.949 . S
C471 H466 0.950 . S
C471 C473 1.327 . S
C471 C477 1.429 . S
C472 C464 1.574 . S
C472 H467 0.949 . S
C472 C478 1.368 . S
C473 C457 1.349 . S
C473 H465 0.950 . S
C473 C471 1.327 . S
C474 C462 1.349 . S
C474 H468 0.950 . S
C474 C475 1.327 . S
C475 H469 0.950 . S
C475 C474 1.327 . S
C475 C479 1.429 . S
C476 C459 1.574 . S
C476 H470 0.949 . S
C476 C480 1.368 . S
C477 C458 1.429 . S
C477 C471 1.429 . S
C477 C478 1.523 . S
C478 C459 1.368 . S
C478 C472 1.368 . S
C478 C477 1.523 . S
C479 C463 1.429 . S
C479 C475 1.429 . S
C479 C480 1.523 . S
C480 C464 1.368 . S
C480 C476 1.368 . S
C480 C479 1.523 . S
H481 C456 0.950 . S
H482 C458 0.950 . S
H483 C459 0.949 . S
H484 C461 0.950 . S
H485 C463 0.950 . S
C486 C487 1.349 . S
C486 C488 1.327 . S
C486 H511 0.950 . S
C487 C486 1.349 . S
C487 C503 1.349 . S
C488 C486 1.327 . S
C488 C507 1.429 . S
C488 H512 0.950 . S
C489 C506 1.574 1_455 S
C489 C508 1.368 . S
C489 H513 0.949 . S
H490 C494 0.949 . S
C491 C492 1.349 . S
C491 C493 1.327 . S
C491 H514 0.950 . S
C492 C491 1.349 . S
C492 C504 1.349 . S
C493 C491 1.327 . S
C493 C509 1.429 . S
C493 H515 0.950 . S
C494 H490 0.949 . S
C494 C502 1.574 1_655 S
C494 C510 1.368 . S
H495 C503 0.950 . S
H496 C501 0.950 . S
H497 C502 0.949 . S
H498 C504 0.950 . S
H499 C505 0.950 . S
H500 C506 0.949 . S
C501 H496 0.950 . S
C501 C503 1.327 . S
C501 C507 1.429 . S
C502 C494 1.574 1_455 S
C502 H497 0.949 . S
C502 C508 1.368 . S
C503 C487 1.349 . S
C503 H495 0.950 . S
C503 C501 1.327 . S
C504 C492 1.349 . S
C504 H498 0.950 . S
C504 C505 1.327 . S
C505 H499 0.950 . S
C505 C504 1.327 . S
C505 C509 1.429 . S
C506 C489 1.574 1_655 S
C506 H500 0.949 . S
C506 C510 1.368 . S
C507 C488 1.429 . S
C507 C501 1.429 . S
C507 C508 1.523 . S
C508 C489 1.368 . S
C508 C502 1.368 . S
C508 C507 1.523 . S
C509 C493 1.429 . S
C509 C505 1.429 . S
C509 C510 1.523 . S
C510 C494 1.368 . S
C510 C506 1.368 . S
C510 C509 1.523 . S
H511 C486 0.950 . S
H512 C488 0.950 . S
H513 C489 0.949 . S
H514 C491 0.950 . S
H515 C493 0.950 . S
C516 C517 1.349 . S
C516 C518 1.327 . S
C516 H541 0.950 . S
C517 C516 1.349 . S
C517 C533 1.349 . S
C518 C516 1.327 . S
C518 C537 1.429 . S
C518 H542 0.950 . S
C519 C536 1.574 1_565 S
C519 C538 1.368 . S
C519 H543 0.949 . S
H520 C524 0.949 . S
C521 C522 1.349 . S
C521 C523 1.327 . S
C521 H544 0.950 . S
C522 C521 1.349 . S
C522 C534 1.349 . S
C523 C521 1.327 . S
C523 C539 1.429 . S
C523 H545 0.950 . S
C524 H520 0.949 . S
C524 C532 1.574 1_545 S
C524 C540 1.368 . S
H525 C533 0.950 . S
H526 C531 0.950 . S
H527 C532 0.949 . S
H528 C534 0.950 . S
H529 C535 0.950 . S
H530 C536 0.949 . S
C531 H526 0.950 . S
C531 C533 1.327 . S
C531 C537 1.429 . S
C532 C524 1.574 1_565 S
C532 H527 0.949 . S
C532 C538 1.368 . S
C533 C517 1.349 . S
C533 H525 0.950 . S
C533 C531 1.327 . S
C534 C522 1.349 . S
C534 H528 0.950 . S
C534 C535 1.327 . S
C535 H529 0.950 . S
C535 C534 1.327 . S
C535 C539 1.429 . S
C536 C519 1.574 1_545 S
C536 H530 0.949 . S
C536 C540 1.368 . S
C537 C518 1.429 . S
C537 C531 1.429 . S
C537 C538 1.523 . S
C538 C519 1.368 . S
C538 C532 1.368 . S
C538 C537 1.523 . S
C539 C523 1.429 . S
C539 C535 1.429 . S
C539 C540 1.523 . S
C540 C524 1.368 . S
C540 C536 1.368 . S
C540 C539 1.523 . S
H541 C516 0.950 . S
H542 C518 0.950 . S
H543 C519 0.949 . S
H544 C521 0.950 . S
H545 C523 0.950 . S
C546 C547 1.349 . S
C546 C548 1.327 . S
C546 H571 0.950 . S
C547 C546 1.349 . S
C547 C563 1.349 . S
C548 C546 1.327 . S
C548 C567 1.429 . S
C548 H572 0.950 . S
C549 C566 1.574 . S
C549 C568 1.368 . S
C549 H573 0.949 . S
H550 C554 0.949 . S
C551 C552 1.349 . S
C551 C553 1.327 . S
C551 H574 0.950 . S
C552 C551 1.349 . S
C552 C564 1.349 . S
C553 C551 1.327 . S
C553 C569 1.429 . S
C553 H575 0.950 . S
C554 H550 0.949 . S
C554 C562 1.574 . S
C554 C570 1.368 . S
H555 C563 0.950 . S
H556 C561 0.950 . S
H557 C562 0.949 . S
H558 C564 0.950 . S
H559 C565 0.950 . S
H560 C566 0.949 . S
C561 H556 0.950 . S
C561 C563 1.327 . S
C561 C567 1.429 . S
C562 C554 1.574 . S
C562 H557 0.949 . S
C562 C568 1.368 . S
C563 C547 1.349 . S
C563 H555 0.950 . S
C563 C561 1.327 . S
C564 C552 1.349 . S
C564 H558 0.950 . S
C564 C565 1.327 . S
C565 H559 0.950 . S
C565 C564 1.327 . S
C565 C569 1.429 . S
C566 C549 1.574 . S
C566 H560 0.949 . S
C566 C570 1.368 . S
C567 C548 1.429 . S
C567 C561 1.429 . S
C567 C568 1.523 . S
C568 C549 1.368 . S
C568 C562 1.368 . S
C568 C567 1.523 . S
C569 C553 1.429 . S
C569 C565 1.429 . S
C569 C570 1.523 . S
C570 C554 1.368 . S
C570 C566 1.368 . S
C570 C569 1.523 . S
H571 C546 0.950 . S
H572 C548 0.950 . S
H573 C549 0.949 . S
H574 C551 0.950 . S
H575 C553 0.950 . S
C576 C577 1.349 . S
C576 C578 1.327 . S
C576 H601 0.950 . S
C577 C576 1.349 . S
C577 C593 1.349 . S
C578 C576 1.327 . S
C578 C597 1.429 . S
C578 H602 0.950 . S
C579 C596 1.574 1_655 S
C579 C598 1.368 . S
C579 H603 0.949 . S
H580 C584 0.949 . S
C581 C582 1.349 . S
C581 C583 1.327 . S
C581 H604 0.950 . S
C582 C581 1.349 . S
C582 C594 1.349 . S
C583 C581 1.327 . S
C583 C599 1.429 . S
C583 H605 0.950 . S
C584 H580 0.949 . S
C584 C592 1.574 1_455 S
C584 C600 1.368 . S
H585 C593 0.950 . S
H586 C591 0.950 . S
H587 C592 0.949 . S
H588 C594 0.950 . S
H589 C595 0.950 . S
H590 C596 0.949 . S
C591 H586 0.950 . S
C591 C593 1.327 . S
C591 C597 1.429 . S
C592 C584 1.574 1_655 S
C592 H587 0.949 . S
C592 C598 1.368 . S
C593 C577 1.349 . S
C593 H585 0.950 . S
C593 C591 1.327 . S
C594 C582 1.349 . S
C594 H588 0.950 . S
C594 C595 1.327 . S
C595 H589 0.950 . S
C595 C594 1.327 . S
C595 C599 1.429 . S
C596 C579 1.574 1_455 S
C596 H590 0.949 . S
C596 C600 1.368 . S
C597 C578 1.429 . S
C597 C591 1.429 . S
C597 C598 1.523 . S
C598 C579 1.368 . S
C598 C592 1.368 . S
C598 C597 1.523 . S
C599 C583 1.429 . S
C599 C595 1.429 . S
C599 C600 1.523 . S
C600 C584 1.368 . S
C600 C596 1.368 . S
C600 C599 1.523 . S
H601 C576 0.950 . S
H602 C578 0.950 . S
H603 C579 0.949 . S
H604 C581 0.950 . S
H605 C583 0.950 . S
C606 C607 1.349 . S
C606 C608 1.327 . S
C606 H631 0.950 . S
C607 C606 1.349 . S
C607 C623 1.349 . S
C608 C606 1.327 . S
C608 C627 1.429 . S
C608 H632 0.950 . S
C609 C626 1.574 1_545 S
C609 C628 1.368 . S
C609 H633 0.949 . S
H610 C614 0.949 . S
C611 C612 1.349 . S
C611 C613 1.327 . S
C611 H634 0.950 . S
C612 C611 1.349 . S
C612 C624 1.349 . S
C613 C611 1.327 . S
C613 C629 1.429 . S
C613 H635 0.950 . S
C614 H610 0.949 . S
C614 C622 1.574 1_565 S
C614 C630 1.368 . S
H615 C623 0.950 . S
H616 C621 0.950 . S
H617 C622 0.949 . S
H618 C624 0.950 . S
H619 C625 0.950 . S
H620 C626 0.949 . S
C621 H616 0.950 . S
C621 C623 1.327 . S
C621 C627 1.429 . S
C622 C614 1.574 1_545 S
C622 H617 0.949 . S
C622 C628 1.368 . S
C623 C607 1.349 . S
C623 H615 0.950 . S
C623 C621 1.327 . S
C624 C612 1.349 . S
C624 H618 0.950 . S
C624 C625 1.327 . S
C625 H619 0.950 . S
C625 C624 1.327 . S
C625 C629 1.429 . S
C626 C609 1.574 1_565 S
C626 H620 0.949 . S
C626 C630 1.368 . S
C627 C608 1.429 . S
C627 C621 1.429 . S
C627 C628 1.523 . S
C628 C609 1.368 . S
C628 C622 1.368 . S
C628 C627 1.523 . S
C629 C613 1.429 . S
C629 C625 1.429 . S
C629 C630 1.523 . S
C630 C614 1.368 . S
C630 C626 1.368 . S
C630 C629 1.523 . S
H631 C606 0.950 . S
H632 C608 0.950 . S
H633 C609 0.949 . S
H634 C611 0.950 . S
H635 C613 0.950 . S
C636 C637 1.349 . S
C636 C638 1.327 . S
C636 H661 0.950 . S
C637 C636 1.349 . S
C637 C653 1.349 . S
C638 C636 1.327 . S
C638 C657 1.429 . S
C638 H662 0.950 . S
C639 C656 1.574 . S
C639 C658 1.368 . S
C639 H663 0.949 . S
H640 C644 0.949 . S
C641 C642 1.349 . S
C641 C643 1.327 . S
C641 H664 0.950 . S
C642 C641 1.349 . S
C642 C654 1.349 . S
C643 C641 1.327 . S
C643 C659 1.429 . S
C643 H665 0.950 . S
C644 H640 0.949 . S
C644 C652 1.574 . S
C644 C660 1.368 . S
H645 C653 0.950 . S
H646 C651 0.950 . S
H647 C652 0.949 . S
H648 C654 0.950 . S
H649 C655 0.950 . S
H650 C656 0.949 . S
C651 H646 0.950 . S
C651 C653 1.327 . S
C651 C657 1.429 . S
C652 C644 1.574 . S
C652 H647 0.949 . S
C652 C658 1.368 . S
C653 C637 1.349 . S
C653 H645 0.950 . S
C653 C651 1.327 . S
C654 C642 1.349 . S
C654 H648 0.950 . S
C654 C655 1.327 . S
C655 H649 0.950 . S
C655 C654 1.327 . S
C655 C659 1.429 . S
C656 C639 1.574 . S
C656 H650 0.949 . S
C656 C660 1.368 . S
C657 C638 1.429 . S
C657 C651 1.429 . S
C657 C658 1.523 . S
C658 C639 1.368 . S
C658 C652 1.368 . S
C658 C657 1.523 . S
C659 C643 1.429 . S
C659 C655 1.429 . S
C659 C660 1.523 . S
C660 C644 1.368 . S
C660 C656 1.368 . S
C660 C659 1.523 . S
H661 C636 0.950 . S
H662 C638 0.950 . S
H663 C639 0.949 . S
H664 C641 0.950 . S
H665 C643 0.950 . S
C666 C667 1.349 . S
C666 C668 1.327 . S
C666 H691 0.950 . S
C667 C666 1.349 . S
C667 C683 1.349 . S
C668 C666 1.327 . S
C668 C687 1.429 . S
C668 H692 0.950 . S
C669 C686 1.574 1_455 S
C669 C688 1.368 . S
C669 H693 0.949 . S
H670 C674 0.949 . S
C671 C672 1.349 . S
C671 C673 1.327 . S
C671 H694 0.950 . S
C672 C671 1.349 . S
C672 C684 1.349 . S
C673 C671 1.327 . S
C673 C689 1.429 . S
C673 H695 0.950 . S
C674 H670 0.949 . S
C674 C682 1.574 1_655 S
C674 C690 1.368 . S
H675 C683 0.950 . S
H676 C681 0.950 . S
H677 C682 0.949 . S
H678 C684 0.950 . S
H679 C685 0.950 . S
H680 C686 0.949 . S
C681 H676 0.950 . S
C681 C683 1.327 . S
C681 C687 1.429 . S
C682 C674 1.574 1_455 S
C682 H677 0.949 . S
C682 C688 1.368 . S
C683 C667 1.349 . S
C683 H675 0.950 . S
C683 C681 1.327 . S
C684 C672 1.349 . S
C684 H678 0.950 . S
C684 C685 1.327 . S
C685 H679 0.950 . S
C685 C684 1.327 . S
C685 C689 1.429 . S
C686 C669 1.574 1_655 S
C686 H680 0.949 . S
C686 C690 1.368 . S
C687 C668 1.429 . S
C687 C681 1.429 . S
C687 C688 1.523 . S
C688 C669 1.368 . S
C688 C682 1.368 . S
C688 C687 1.523 . S
C689 C673 1.429 . S
C689 C685 1.429 . S
C689 C690 1.523 . S
C690 C674 1.368 . S
C690 C686 1.368 . S
C690 C689 1.523 . S
H691 C666 0.950 . S
H692 C668 0.950 . S
H693 C669 0.949 . S
H694 C671 0.950 . S
H695 C673 0.950 . S
C696 C697 1.349 . S
C696 C698 1.327 . S
C696 H721 0.950 . S
C697 C696 1.349 . S
C697 C713 1.349 . S
C698 C696 1.327 . S
C698 C717 1.429 . S
C698 H722 0.950 . S
C699 C716 1.574 . S
C699 C718 1.368 . S
C699 H723 0.949 . S
H700 C704 0.949 . S
C701 C702 1.349 . S
C701 C703 1.327 . S
C701 H724 0.950 . S
C702 C701 1.349 . S
C702 C714 1.349 . S
C703 C701 1.327 . S
C703 C719 1.429 . S
C703 H725 0.950 . S
C704 H700 0.949 . S
C704 C712 1.574 . S
C704 C720 1.368 . S
H705 C713 0.950 . S
H706 C711 0.950 . S
H707 C712 0.949 . S
H708 C714 0.950 . S
H709 C715 0.950 . S
H710 C716 0.949 . S
C711 H706 0.950 . S
C711 C713 1.327 . S
C711 C717 1.429 . S
C712 C704 1.574 . S
C712 H707 0.949 . S
C712 C718 1.368 . S
C713 C697 1.349 . S
C713 H705 0.950 . S
C713 C711 1.327 . S
C714 C702 1.349 . S
C714 H708 0.950 . S
C714 C715 1.327 . S
C715 H709 0.950 . S
C715 C714 1.327 . S
C715 C719 1.429 . S
C716 C699 1.574 . S
C716 H710 0.949 . S
C716 C720 1.368 . S
C717 C698 1.429 . S
C717 C711 1.429 . S
C717 C718 1.523 . S
C718 C699 1.368 . S
C718 C712 1.368 . S
C718 C717 1.523 . S
C719 C703 1.429 . S
C719 C715 1.429 . S
C719 C720 1.523 . S
C720 C704 1.368 . S
C720 C716 1.368 . S
C720 C719 1.523 . S
H721 C696 0.950 . S
H722 C698 0.950 . S
H723 C699 0.949 . S
H724 C701 0.950 . S
H725 C703 0.950 . S
C726 C727 1.349 . S
C726 C728 1.327 . S
C726 H751 0.950 . S
C727 C726 1.349 . S
C727 C743 1.349 . S
C728 C726 1.327 . S
C728 C747 1.429 . S
C728 H752 0.950 . S
C729 C746 1.574 . S
C729 C748 1.368 . S
C729 H753 0.949 . S
H730 C734 0.949 . S
C731 C732 1.349 . S
C731 C733 1.327 . S
C731 H754 0.950 . S
C732 C731 1.349 . S
C732 C744 1.349 . S
C733 C731 1.327 . S
C733 C749 1.429 . S
C733 H755 0.950 . S
C734 H730 0.949 . S
C734 C742 1.574 . S
C734 C750 1.368 . S
H735 C743 0.950 . S
H736 C741 0.950 . S
H737 C742 0.949 . S
H738 C744 0.950 . S
H739 C745 0.950 . S
H740 C746 0.949 . S
C741 H736 0.950 . S
C741 C743 1.327 . S
C741 C747 1.429 . S
C742 C734 1.574 . S
C742 H737 0.949 . S
C742 C748 1.368 . S
C743 C727 1.349 . S
C743 H735 0.950 . S
C743 C741 1.327 . S
C744 C732 1.349 . S
C744 H738 0.950 . S
C744 C745 1.327 . S
C745 H739 0.950 . S
C745 C744 1.327 . S
C745 C749 1.429 . S
C746 C729 1.574 . S
C746 H740 0.949 . S
C746 C750 1.368 . S
C747 C728 1.429 . S
C747 C741 1.429 . S
C747 C748 1.523 . S
C748 C729 1.368 . S
C748 C742 1.368 . S
C748 C747 1.523 . S
C749 C733 1.429 . S
C749 C745 1.429 . S
C749 C750 1.523 . S
C750 C734 1.368 . S
C750 C746 1.368 . S
C750 C749 1.523 . S
H751 C726 0.950 . S
H752 C728 0.950 . S
H753 C729 0.949 . S
H754 C731 0.950 . S
H755 C733 0.950 . S
C756 C757 1.349 . S
C756 C758 1.327 . S
C756 H781 0.950 . S
C757 C756 1.349 . S
C757 C773 1.349 . S
C758 C756 1.327 . S
C758 C777 1.429 . S
C758 H782 0.950 . S
C759 C776 1.574 . S
C759 C778 1.368 . S
C759 H783 0.949 . S
H760 C764 0.949 . S
C761 C762 1.349 . S
C761 C763 1.327 . S
C761 H784 0.950 . S
C762 C761 1.349 . S
C762 C774 1.349 . S
C763 C761 1.327 . S
C763 C779 1.429 . S
C763 H785 0.950 . S
C764 H760 0.949 . S
C764 C772 1.574 . S
C764 C780 1.368 . S
H765 C773 0.950 . S
H766 C771 0.950 . S
H767 C772 0.949 . S
H768 C774 0.950 . S
H769 C775 0.950 . S
H770 C776 0.949 . S
C771 H766 0.950 . S
C771 C773 1.327 . S
C771 C777 1.429 . S
C772 C764 1.574 . S
C772 H767 0.949 . S
C772 C778 1.368 . S
C773 C757 1.349 . S
C773 H765 0.950 . S
C773 C771 1.327 . S
C774 C762 1.349 . S
C774 H768 0.950 . S
C774 C775 1.327 . S
C775 H769 0.950 . S
C775 C774 1.327 . S
C775 C779 1.429 . S
C776 C759 1.574 . S
C776 H770 0.949 . S
C776 C780 1.368 . S
C777 C758 1.429 . S
C777 C771 1.429 . S
C777 C778 1.523 . S
C778 C759 1.368 . S
C778 C772 1.368 . S
C778 C777 1.523 . S
C779 C763 1.429 . S
C779 C775 1.429 . S
C779 C780 1.523 . S
C780 C764 1.368 . S
C780 C776 1.368 . S
C780 C779 1.523 . S
H781 C756 0.950 . S
H782 C758 0.950 . S
H783 C759 0.949 . S
H784 C761 0.950 . S
H785 C763 0.950 . S
C786 C787 1.349 . S
C786 C788 1.327 . S
C786 H811 0.950 . S
C787 C786 1.349 . S
C787 C803 1.349 . S
C788 C786 1.327 . S
C788 C807 1.429 . S
C788 H812 0.950 . S
C789 C806 1.574 . S
C789 C808 1.368 . S
C789 H813 0.949 . S
H790 C794 0.949 . S
C791 C792 1.349 . S
C791 C793 1.327 . S
C791 H814 0.950 . S
C792 C791 1.349 . S
C792 C804 1.349 . S
C793 C791 1.327 . S
C793 C809 1.429 . S
C793 H815 0.950 . S
C794 H790 0.949 . S
C794 C802 1.574 . S
C794 C810 1.368 . S
H795 C803 0.950 . S
H796 C801 0.950 . S
H797 C802 0.949 . S
H798 C804 0.950 . S
H799 C805 0.950 . S
H800 C806 0.949 . S
C801 H796 0.950 . S
C801 C803 1.327 . S
C801 C807 1.429 . S
C802 C794 1.574 . S
C802 H797 0.949 . S
C802 C808 1.368 . S
C803 C787 1.349 . S
C803 H795 0.950 . S
C803 C801 1.327 . S
C804 C792 1.349 . S
C804 H798 0.950 . S
C804 C805 1.327 . S
C805 H799 0.950 . S
C805 C804 1.327 . S
C805 C809 1.429 . S
C806 C789 1.574 . S
C806 H800 0.949 . S
C806 C810 1.368 . S
C807 C788 1.429 . S
C807 C801 1.429 . S
C807 C808 1.523 . S
C808 C789 1.368 . S
C808 C802 1.368 . S
C808 C807 1.523 . S
C809 C793 1.429 . S
C809 C805 1.429 . S
C809 C810 1.523 . S
C810 C794 1.368 . S
C810 C806 1.368 . S
C810 C809 1.523 . S
H811 C786 0.950 . S
H812 C788 0.950 . S
H813 C789 0.949 . S
H814 C791 0.950 . S
H815 C793 0.950 . S
C816 C817 1.349 . S
C816 C818 1.327 . S
C816 H841 0.950 . S
C817 C816 1.349 . S
C817 C833 1.349 . S
C818 C816 1.327 . S
C818 C837 1.429 . S
C818 H842 0.950 . S
C819 C836 1.574 . S
C819 C838 1.368 . S
C819 H843 0.949 . S
H820 C824 0.949 . S
C821 C822 1.349 . S
C821 C823 1.327 . S
C821 H844 0.950 . S
C822 C821 1.349 . S
C822 C834 1.349 . S
C823 C821 1.327 . S
C823 C839 1.429 . S
C823 H845 0.950 . S
C824 H820 0.949 . S
C824 C832 1.574 . S
C824 C840 1.368 . S
H825 C833 0.950 . S
H826 C831 0.950 . S
H827 C832 0.949 . S
H828 C834 0.950 . S
H829 C835 0.950 . S
H830 C836 0.949 . S
C831 H826 0.950 . S
C831 C833 1.327 . S
C831 C837 1.429 . S
C832 C824 1.574 . S
C832 H827 0.949 . S
C832 C838 1.368 . S
C833 C817 1.349 . S
C833 H825 0.950 . S
C833 C831 1.327 . S
C834 C822 1.349 . S
C834 H828 0.950 . S
C834 C835 1.327 . S
C835 H829 0.950 . S
C835 C834 1.327 . S
C835 C839 1.429 . S
C836 C819 1.574 . S
C836 H830 0.949 . S
C836 C840 1.368 . S
C837 C818 1.429 . S
C837 C831 1.429 . S
C837 C838 1.523 . S
C838 C819 1.368 . S
C838 C832 1.368 . S
C838 C837 1.523 . S
C839 C823 1.429 . S
C839 C835 1.429 . S
C839 C840 1.523 . S
C840 C824 1.368 . S
C840 C836 1.368 . S
C840 C839 1.523 . S
H841 C816 0.950 . S
H842 C818 0.950 . S
H843 C819 0.949 . S
H844 C821 0.950 . S
H845 C823 0.950 . S
C846 C847 1.349 . S
C846 C848 1.327 . S
C846 H871 0.950 . S
C847 C846 1.349 . S
C847 C863 1.349 . S
C848 C846 1.327 . S
C848 C867 1.429 . S
C848 H872 0.950 . S
C849 C866 1.574 . S
C849 C868 1.368 . S
C849 H873 0.949 . S
H850 C854 0.949 . S
C851 C852 1.349 . S
C851 C853 1.327 . S
C851 H874 0.950 . S
C852 C851 1.349 . S
C852 C864 1.349 . S
C853 C851 1.327 . S
C853 C869 1.429 . S
C853 H875 0.950 . S
C854 H850 0.949 . S
C854 C862 1.574 . S
C854 C870 1.368 . S
H855 C863 0.950 . S
H856 C861 0.950 . S
H857 C862 0.949 . S
H858 C864 0.950 . S
H859 C865 0.950 . S
H860 C866 0.949 . S
C861 H856 0.950 . S
C861 C863 1.327 . S
C861 C867 1.429 . S
C862 C854 1.574 . S
C862 H857 0.949 . S
C862 C868 1.368 . S
C863 C847 1.349 . S
C863 H855 0.950 . S
C863 C861 1.327 . S
C864 C852 1.349 . S
C864 H858 0.950 . S
C864 C865 1.327 . S
C865 H859 0.950 . S
C865 C864 1.327 . S
C865 C869 1.429 . S
C866 C849 1.574 . S
C866 H860 0.949 . S
C866 C870 1.368 . S
C867 C848 1.429 . S
C867 C861 1.429 . S
C867 C868 1.523 . S
C868 C849 1.368 . S
C868 C862 1.368 . S
C868 C867 1.523 . S
C869 C853 1.429 . S
C869 C865 1.429 . S
C869 C870 1.523 . S
C870 C854 1.368 . S
C870 C866 1.368 . S
C870 C869 1.523 . S
H871 C846 0.950 . S
H872 C848 0.950 . S
H873 C849 0.949 . S
H874 C851 0.950 . S
H875 C853 0.950 . S
C876 C877 1.349 . S
C876 C878 1.327 . S
C876 H901 0.950 . S
C877 C876 1.349 . S
C877 C893 1.349 . S
C878 C876 1.327 . S
C878 C897 1.429 . S
C878 H902 0.950 . S
C879 C896 1.574 . S
C879 C898 1.368 . S
C879 H903 0.949 . S
H880 C884 0.949 . S
C881 C882 1.349 . S
C881 C883 1.327 . S
C881 H904 0.950 . S
C882 C881 1.349 . S
C882 C894 1.349 . S
C883 C881 1.327 . S
C883 C899 1.429 . S
C883 H905 0.950 . S
C884 H880 0.949 . S
C884 C892 1.574 . S
C884 C900 1.368 . S
H885 C893 0.950 . S
H886 C891 0.950 . S
H887 C892 0.949 . S
H888 C894 0.950 . S
H889 C895 0.950 . S
H890 C896 0.949 . S
C891 H886 0.950 . S
C891 C893 1.327 . S
C891 C897 1.429 . S
C892 C884 1.574 . S
C892 H887 0.949 . S
C892 C898 1.368 . S
C893 C877 1.349 . S
C893 H885 0.950 . S
C893 C891 1.327 . S
C894 C882 1.349 . S
C894 H888 0.950 . S
C894 C895 1.327 . S
C895 H889 0.950 . S
C895 C894 1.327 . S
C895 C899 1.429 . S
C896 C879 1.574 . S
C896 H890 0.949 . S
C896 C900 1.368 . S
C897 C878 1.429 . S
C897 C891 1.429 . S
C897 C898 1.523 . S
C898 C879 1.368 . S
C898 C892 1.368 . S
C898 C897 1.523 . S
C899 C883 1.429 . S
C899 C895 1.429 . S
C899 C900 1.523 . S
C900 C884 1.368 . S
C900 C896 1.368 . S
C900 C899 1.523 . S
H901 C876 0.950 . S
H902 C878 0.950 . S
H903 C879 0.949 . S
H904 C881 0.950 . S
H905 C883 0.950 . S
C906 C907 1.349 . S
C906 C908 1.327 . S
C906 H931 0.950 . S
C907 C906 1.349 . S
C907 C923 1.349 . S
C908 C906 1.327 . S
C908 C927 1.429 . S
C908 H932 0.950 . S
C909 C926 1.574 . S
C909 C928 1.368 . S
C909 H933 0.949 . S
H910 C914 0.949 . S
C911 C912 1.349 . S
C911 C913 1.327 . S
C911 H934 0.950 . S
C912 C911 1.349 . S
C912 C924 1.349 . S
C913 C911 1.327 . S
C913 C929 1.429 . S
C913 H935 0.950 . S
C914 H910 0.949 . S
C914 C922 1.574 . S
C914 C930 1.368 . S
H915 C923 0.950 . S
H916 C921 0.950 . S
H917 C922 0.949 . S
H918 C924 0.950 . S
H919 C925 0.950 . S
H920 C926 0.949 . S
C921 H916 0.950 . S
C921 C923 1.327 . S
C921 C927 1.429 . S
C922 C914 1.574 . S
C922 H917 0.949 . S
C922 C928 1.368 . S
C923 C907 1.349 . S
C923 H915 0.950 . S
C923 C921 1.327 . S
C924 C912 1.349 . S
C924 H918 0.950 . S
C924 C925 1.327 . S
C925 H919 0.950 . S
C925 C924 1.327 . S
C925 C929 1.429 . S
C926 C909 1.574 . S
C926 H920 0.949 . S
C926 C930 1.368 . S
C927 C908 1.429 . S
C927 C921 1.429 . S
C927 C928 1.523 . S
C928 C909 1.368 . S
C928 C922 1.368 . S
C928 C927 1.523 . S
C929 C913 1.429 . S
C929 C925 1.429 . S
C929 C930 1.523 . S
C930 C914 1.368 . S
C930 C926 1.368 . S
C930 C929 1.523 . S
H931 C906 0.950 . S
H932 C908 0.950 . S
H933 C909 0.949 . S
H934 C911 0.950 . S
H935 C913 0.950 . S
C936 C937 1.349 . S
C936 C938 1.327 . S
C936 H961 0.950 . S
C937 C936 1.349 . S
C937 C953 1.349 . S
C938 C936 1.327 . S
C938 C957 1.429 . S
C938 H962 0.950 . S
C939 C956 1.574 . S
C939 C958 1.368 . S
C939 H963 0.949 . S
H940 C944 0.949 . S
C941 C942 1.349 . S
C941 C943 1.327 . S
C941 H964 0.950 . S
C942 C941 1.349 . S
C942 C954 1.349 . S
C943 C941 1.327 . S
C943 C959 1.429 . S
C943 H965 0.950 . S
C944 H940 0.949 . S
C944 C952 1.574 . S
C944 C960 1.368 . S
H945 C953 0.950 . S
H946 C951 0.950 . S
H947 C952 0.949 . S
H948 C954 0.950 . S
H949 C955 0.950 . S
H950 C956 0.949 . S
C951 H946 0.950 . S
C951 C953 1.327 . S
C951 C957 1.429 . S
C952 C944 1.574 . S
C952 H947 0.949 . S
C952 C958 1.368 . S
C953 C937 1.349 . S
C953 H945 0.950 . S
C953 C951 1.327 . S
C954 C942 1.349 . S
C954 H948 0.950 . S
C954 C955 1.327 . S
C955 H949 0.950 . S
C955 C954 1.327 . S
C955 C959 1.429 . S
C956 C939 1.574 . S
C956 H950 0.949 . S
C956 C960 1.368 . S
C957 C938 1.429 . S
C957 C951 1.429 . S
C957 C958 1.523 . S
C958 C939 1.368 . S
C958 C952 1.368 . S
C958 C957 1.523 . S
C959 C943 1.429 . S
C959 C955 1.429 . S
C959 C960 1.523 . S
C960 C944 1.368 . S
C960 C956 1.368 . S
C960 C959 1.523 . S
H961 C936 0.950 . S
H962 C938 0.950 . S
H963 C939 0.949 . S
H964 C941 0.950 . S
H965 C943 0.950 . S
C966 C967 1.349 . S
C966 C968 1.327 . S
C966 H991 0.950 . S
C967 C966 1.349 . S
C967 C983 1.349 . S
C968 C966 1.327 . S
C968 C987 1.429 . S
C968 H992 0.950 . S
C969 C986 1.574 . S
C969 C988 1.368 . S
C969 H993 0.949 . S
H970 C974 0.949 . S
C971 C972 1.349 . S
C971 C973 1.327 . S
C971 H994 0.950 . S
C972 C971 1.349 . S
C972 C984 1.349 . S
C973 C971 1.327 . S
C973 C989 1.429 . S
C973 H995 0.950 . S
C974 H970 0.949 . S
C974 C982 1.574 . S
C974 C990 1.368 . S
H975 C983 0.950 . S
H976 C981 0.950 . S
H977 C982 0.949 . S
H978 C984 0.950 . S
H979 C985 0.950 . S
H980 C986 0.949 . S
C981 H976 0.950 . S
C981 C983 1.327 . S
C981 C987 1.429 . S
C982 C974 1.574 . S
C982 H977 0.949 . S
C982 C988 1.368 . S
C983 C967 1.349 . S
C983 H975 0.950 . S
C983 C981 1.327 . S
C984 C972 1.349 . S
C984 H978 0.950 . S
C984 C985 1.327 . S
C985 H979 0.950 . S
C985 C984 1.327 . S
C985 C989 1.429 . S
C986 C969 1.574 . S
C986 H980 0.949 . S
C986 C990 1.368 . S
C987 C968 1.429 . S
C987 C981 1.429 . S
C987 C988 1.523 . S
C988 C969 1.368 . S
C988 C982 1.368 . S
C988 C987 1.523 . S
C989 C973 1.429 . S
C989 C985 1.429 . S
C989 C990 1.523 . S
C990 C974 1.368 . S
C990 C986 1.368 . S
C990 C989 1.523 . S
H991 C966 0.950 . S
H992 C968 0.950 . S
H993 C969 0.949 . S
H994 C971 0.950 . S
H995 C973 0.950 . S
C996 C997 1.349 . S
C996 C998 1.327 . S
C996 H1021 0.950 . S
C997 C996 1.349 . S
C997 C1013 1.349 . S
C998 C996 1.327 . S
C998 C1017 1.429 . S
C998 H1022 0.950 . S
C999 C1016 1.574 . S
C999 C1018 1.368 . S
C999 H1023 0.949 . S
H1000 C1004 0.949 . S
C1001 C1002 1.349 . S
C1001 C1003 1.327 . S
C1001 H1024 0.950 . S
C1002 C1001 1.349 . S
C1002 C1014 1.349 . S
C1003 C1001 1.327 . S
C1003 C1019 1.429 . S
C1003 H1025 0.950 . S
C1004 H1000 0.949 . S
C1004 C1012 1.574 . S
C1004 C1020 1.368 . S
H1005 C1013 0.950 . S
H1006 C1011 0.950 . S
H1007 C1012 0.949 . S
H1008 C1014 0.950 . S
H1009 C1015 0.950 . S
H1010 C1016 0.949 . S
C1011 H1006 0.950 . S
C1011 C1013 1.327 . S
C1011 C1017 1.429 . S
C1012 C1004 1.574 . S
C1012 H1007 0.949 . S
C1012 C1018 1.368 . S
C1013 C997 1.349 . S
C1013 H1005 0.950 . S
C1013 C1011 1.327 . S
C1014 C1002 1.349 . S
C1014 H1008 0.950 . S
C1014 C1015 1.327 . S
C1015 H1009 0.950 . S
C1015 C1014 1.327 . S
C1015 C1019 1.429 . S
C1016 C999 1.574 . S
C1016 H1010 0.949 . S
C1016 C1020 1.368 . S
C1017 C998 1.429 . S
C1017 C1011 1.429 . S
C1017 C1018 1.523 . S
C1018 C999 1.368 . S
C1018 C1012 1.368 . S
C1018 C1017 1.523 . S
C1019 C1003 1.429 . S
C1019 C1015 1.429 . S
C1019 C1020 1.523 . S
C1020 C1004 1.368 . S
C1020 C1016 1.368 . S
C1020 C1019 1.523 . S
H1021 C996 0.950 . S
H1022 C998 0.950 . S
H1023 C999 0.949 . S
H1024 C1001 0.950 . S
H1025 C1003 0.950 . S
C1026 C1027 1.349 . S
C1026 C1028 1.327 . S
C1026 H1051 0.950 . S
C1027 C1026 1.349 . S
C1027 C1043 1.349 . S
C1028 C1026 1.327 . S
C1028 C1047 1.429 . S
C1028 H1052 0.950 . S
C1029 C1046 1.574 . S
C1029 C1048 1.368 . S
C1029 H1053 0.949 . S
H1030 C1034 0.949 . S
C1031 C1032 1.349 . S
C1031 C1033 1.327 . S
C1031 H1054 0.950 . S
C1032 C1031 1.349 . S
C1032 C1044 1.349 . S
C1033 C1031 1.327 . S
C1033 C1049 1.429 . S
C1033 H1055 0.950 . S
C1034 H1030 0.949 . S
C1034 C1042 1.574 . S
C1034 C1050 1.368 . S
H1035 C1043 0.950 . S
H1036 C1041 0.950 . S
H1037 C1042 0.949 . S
H1038 C1044 0.950 . S
H1039 C1045 0.950 . S
H1040 C1046 0.949 . S
C1041 H1036 0.950 . S
C1041 C1043 1.327 . S
C1041 C1047 1.429 . S
C1042 C1034 1.574 . S
C1042 H1037 0.949 . S
C1042 C1048 1.368 . S
C1043 C1027 1.349 . S
C1043 H1035 0.950 . S
C1043 C1041 1.327 . S
C1044 C1032 1.349 . S
C1044 H1038 0.950 . S
C1044 C1045 1.327 . S
C1045 H1039 0.950 . S
C1045 C1044 1.327 . S
C1045 C1049 1.429 . S
C1046 C1029 1.574 . S
C1046 H1040 0.949 . S
C1046 C1050 1.368 . S
C1047 C1028 1.429 . S
C1047 C1041 1.429 . S
C1047 C1048 1.523 . S
C1048 C1029 1.368 . S
C1048 C1042 1.368 . S
C1048 C1047 1.523 . S
C1049 C1033 1.429 . S
C1049 C1045 1.429 . S
C1049 C1050 1.523 . S
C1050 C1034 1.368 . S
C1050 C1046 1.368 . S
C1050 C1049 1.523 . S
H1051 C1026 0.950 . S
H1052 C1028 0.950 . S
H1053 C1029 0.949 . S
H1054 C1031 0.950 . S
H1055 C1033 0.950 . S
C1056 C1057 1.349 . S
C1056 C1058 1.327 . S
C1056 H1081 0.950 . S
C1057 C1056 1.349 . S
C1057 C1073 1.349 . S
C1058 C1056 1.327 . S
C1058 C1077 1.429 . S
C1058 H1082 0.950 . S
C1059 C1076 1.574 1_554 S
C1059 C1078 1.368 . S
C1059 H1083 0.949 . S
H1060 C1064 0.949 . S
C1061 C1062 1.349 . S
C1061 C1063 1.327 . S
C1061 H1084 0.950 . S
C1062 C1061 1.349 . S
C1062 C1074 1.349 . S
C1063 C1061 1.327 . S
C1063 C1079 1.429 . S
C1063 H1085 0.950 . S
C1064 H1060 0.949 . S
C1064 C1072 1.574 1_556 S
C1064 C1080 1.368 . S
H1065 C1073 0.950 . S
H1066 C1071 0.950 . S
H1067 C1072 0.949 . S
H1068 C1074 0.950 . S
H1069 C1075 0.950 . S
H1070 C1076 0.949 . S
C1071 H1066 0.950 . S
C1071 C1073 1.327 . S
C1071 C1077 1.429 . S
C1072 C1064 1.574 1_554 S
C1072 H1067 0.949 . S
C1072 C1078 1.368 . S
C1073 C1057 1.349 . S
C1073 H1065 0.950 . S
C1073 C1071 1.327 . S
C1074 C1062 1.349 . S
C1074 H1068 0.950 . S
C1074 C1075 1.327 . S
C1075 H1069 0.950 . S
C1075 C1074 1.327 . S
C1075 C1079 1.429 . S
C1076 C1059 1.574 1_556 S
C1076 H1070 0.949 . S
C1076 C1080 1.368 . S
C1077 C1058 1.429 . S
C1077 C1071 1.429 . S
C1077 C1078 1.523 . S
C1078 C1059 1.368 . S
C1078 C1072 1.368 . S
C1078 C1077 1.523 . S
C1079 C1063 1.429 . S
C1079 C1075 1.429 . S
C1079 C1080 1.523 . S
C1080 C1064 1.368 . S
C1080 C1076 1.368 . S
C1080 C1079 1.523 . S
H1081 C1056 0.950 . S
H1082 C1058 0.950 . S
H1083 C1059 0.949 . S
H1084 C1061 0.950 . S
H1085 C1063 0.950 . S
C1086 C1087 1.349 . S
C1086 C1088 1.327 . S
C1086 H1111 0.950 . S
C1087 C1086 1.349 . S
C1087 C1103 1.349 . S
C1088 C1086 1.327 . S
C1088 C1107 1.429 . S
C1088 H1112 0.950 . S
C1089 C1106 1.574 1_556 S
C1089 C1108 1.368 . S
C1089 H1113 0.949 . S
H1090 C1094 0.949 . S
C1091 C1092 1.349 . S
C1091 C1093 1.327 . S
C1091 H1114 0.950 . S
C1092 C1091 1.349 . S
C1092 C1104 1.349 . S
C1093 C1091 1.327 . S
C1093 C1109 1.429 . S
C1093 H1115 0.950 . S
C1094 H1090 0.949 . S
C1094 C1102 1.574 1_554 S
C1094 C1110 1.368 . S
H1095 C1103 0.950 . S
H1096 C1101 0.950 . S
H1097 C1102 0.949 . S
H1098 C1104 0.950 . S
H1099 C1105 0.950 . S
H1100 C1106 0.949 . S
C1101 H1096 0.950 . S
C1101 C1103 1.327 . S
C1101 C1107 1.429 . S
C1102 C1094 1.574 1_556 S
C1102 H1097 0.949 . S
C1102 C1108 1.368 . S
C1103 C1087 1.349 . S
C1103 H1095 0.950 . S
C1103 C1101 1.327 . S
C1104 C1092 1.349 . S
C1104 H1098 0.950 . S
C1104 C1105 1.327 . S
C1105 H1099 0.950 . S
C1105 C1104 1.327 . S
C1105 C1109 1.429 . S
C1106 C1089 1.574 1_554 S
C1106 H1100 0.949 . S
C1106 C1110 1.368 . S
C1107 C1088 1.429 . S
C1107 C1101 1.429 . S
C1107 C1108 1.523 . S
C1108 C1089 1.368 . S
C1108 C1102 1.368 . S
C1108 C1107 1.523 . S
C1109 C1093 1.429 . S
C1109 C1105 1.429 . S
C1109 C1110 1.523 . S
C1110 C1094 1.368 . S
C1110 C1106 1.368 . S
C1110 C1109 1.523 . S
H1111 C1086 0.950 . S
H1112 C1088 0.950 . S
H1113 C1089 0.949 . S
H1114 C1091 0.950 . S
H1115 C1093 0.950 . S
C1116 C1117 1.349 . S
C1116 C1118 1.327 . S
C1116 H1141 0.950 . S
C1117 C1116 1.349 . S
C1117 C1133 1.349 . S
C1118 C1116 1.327 . S
C1118 C1137 1.429 . S
C1118 H1142 0.950 . S
C1119 C1136 1.574 1_556 S
C1119 C1138 1.368 . S
C1119 H1143 0.949 . S
H1120 C1124 0.949 . S
C1121 C1122 1.349 . S
C1121 C1123 1.327 . S
C1121 H1144 0.950 . S
C1122 C1121 1.349 . S
C1122 C1134 1.349 . S
C1123 C1121 1.327 . S
C1123 C1139 1.429 . S
C1123 H1145 0.950 . S
C1124 H1120 0.949 . S
C1124 C1132 1.574 1_554 S
C1124 C1140 1.368 . S
H1125 C1133 0.950 . S
H1126 C1131 0.950 . S
H1127 C1132 0.949 . S
H1128 C1134 0.950 . S
H1129 C1135 0.950 . S
H1130 C1136 0.949 . S
C1131 H1126 0.950 . S
C1131 C1133 1.327 . S
C1131 C1137 1.429 . S
C1132 C1124 1.574 1_556 S
C1132 H1127 0.949 . S
C1132 C1138 1.368 . S
C1133 C1117 1.349 . S
C1133 H1125 0.950 . S
C1133 C1131 1.327 . S
C1134 C1122 1.349 . S
C1134 H1128 0.950 . S
C1134 C1135 1.327 . S
C1135 H1129 0.950 . S
C1135 C1134 1.327 . S
C1135 C1139 1.429 . S
C1136 C1119 1.574 1_554 S
C1136 H1130 0.949 . S
C1136 C1140 1.368 . S
C1137 C1118 1.429 . S
C1137 C1131 1.429 . S
C1137 C1138 1.523 . S
C1138 C1119 1.368 . S
C1138 C1132 1.368 . S
C1138 C1137 1.523 . S
C1139 C1123 1.429 . S
C1139 C1135 1.429 . S
C1139 C1140 1.523 . S
C1140 C1124 1.368 . S
C1140 C1136 1.368 . S
C1140 C1139 1.523 . S
H1141 C1116 0.950 . S
H1142 C1118 0.950 . S
H1143 C1119 0.949 . S
H1144 C1121 0.950 . S
H1145 C1123 0.950 . S
C1146 C1147 1.349 . S
C1146 C1148 1.327 . S
C1146 H1171 0.950 . S
C1147 C1146 1.349 . S
C1147 C1163 1.349 . S
C1148 C1146 1.327 . S
C1148 C1167 1.429 . S
C1148 H1172 0.950 . S
C1149 C1166 1.574 1_554 S
C1149 C1168 1.368 . S
C1149 H1173 0.949 . S
H1150 C1154 0.949 . S
C1151 C1152 1.349 . S
C1151 C1153 1.327 . S
C1151 H1174 0.950 . S
C1152 C1151 1.349 . S
C1152 C1164 1.349 . S
C1153 C1151 1.327 . S
C1153 C1169 1.429 . S
C1153 H1175 0.950 . S
C1154 H1150 0.949 . S
C1154 C1162 1.574 1_556 S
C1154 C1170 1.368 . S
H1155 C1163 0.950 . S
H1156 C1161 0.950 . S
H1157 C1162 0.949 . S
H1158 C1164 0.950 . S
H1159 C1165 0.950 . S
H1160 C1166 0.949 . S
C1161 H1156 0.950 . S
C1161 C1163 1.327 . S
C1161 C1167 1.429 . S
C1162 C1154 1.574 1_554 S
C1162 H1157 0.949 . S
C1162 C1168 1.368 . S
C1163 C1147 1.349 . S
C1163 H1155 0.950 . S
C1163 C1161 1.327 . S
C1164 C1152 1.349 . S
C1164 H1158 0.950 . S
C1164 C1165 1.327 . S
C1165 H1159 0.950 . S
C1165 C1164 1.327 . S
C1165 C1169 1.429 . S
C1166 C1149 1.574 1_556 S
C1166 H1160 0.949 . S
C1166 C1170 1.368 . S
C1167 C1148 1.429 . S
C1167 C1161 1.429 . S
C1167 C1168 1.523 . S
C1168 C1149 1.368 . S
C1168 C1162 1.368 . S
C1168 C1167 1.523 . S
C1169 C1153 1.429 . S
C1169 C1165 1.429 . S
C1169 C1170 1.523 . S
C1170 C1154 1.368 . S
C1170 C1166 1.368 . S
C1170 C1169 1.523 . S
H1171 C1146 0.950 . S
H1172 C1148 0.950 . S
H1173 C1149 0.949 . S
H1174 C1151 0.950 . S
H1175 C1153 0.950 . S
C1176 C1177 1.349 . S
C1176 C1178 1.327 . S
C1176 H1201 0.950 . S
C1177 C1176 1.349 . S
C1177 C1193 1.349 . S
C1178 C1176 1.327 . S
C1178 C1197 1.429 . S
C1178 H1202 0.950 . S
C1179 C1196 1.574 1_554 S
C1179 C1198 1.368 . S
C1179 H1203 0.949 . S
H1180 C1184 0.949 . S
C1181 C1182 1.349 . S
C1181 C1183 1.327 . S
C1181 H1204 0.950 . S
C1182 C1181 1.349 . S
C1182 C1194 1.349 . S
C1183 C1181 1.327 . S
C1183 C1199 1.429 . S
C1183 H1205 0.950 . S
C1184 H1180 0.949 . S
C1184 C1192 1.574 1_556 S
C1184 C1200 1.368 . S
H1185 C1193 0.950 . S
H1186 C1191 0.950 . S
H1187 C1192 0.949 . S
H1188 C1194 0.950 . S
H1189 C1195 0.950 . S
H1190 C1196 0.949 . S
C1191 H1186 0.950 . S
C1191 C1193 1.327 . S
C1191 C1197 1.429 . S
C1192 C1184 1.574 1_554 S
C1192 H1187 0.949 . S
C1192 C1198 1.368 . S
C1193 C1177 1.349 . S
C1193 H1185 0.950 . S
C1193 C1191 1.327 . S
C1194 C1182 1.349 . S
C1194 H1188 0.950 . S
C1194 C1195 1.327 . S
C1195 H1189 0.950 . S
C1195 C1194 1.327 . S
C1195 C1199 1.429 . S
C1196 C1179 1.574 1_556 S
C1196 H1190 0.949 . S
C1196 C1200 1.368 . S
C1197 C1178 1.429 . S
C1197 C1191 1.429 . S
C1197 C1198 1.523 . S
C1198 C1179 1.368 . S
C1198 C1192 1.368 . S
C1198 C1197 1.523 . S
C1199 C1183 1.429 . S
C1199 C1195 1.429 . S
C1199 C1200 1.523 . S
C1200 C1184 1.368 . S
C1200 C1196 1.368 . S
C1200 C1199 1.523 . S
H1201 C1176 0.950 . S
H1202 C1178 0.950 . S
H1203 C1179 0.949 . S
H1204 C1181 0.950 . S
H1205 C1183 0.950 . S
C1206 C1207 1.349 . S
C1206 C1208 1.327 . S
C1206 H1231 0.950 . S
C1207 C1206 1.349 . S
C1207 C1223 1.349 . S
C1208 C1206 1.327 . S
C1208 C1227 1.429 . S
C1208 H1232 0.950 . S
C1209 C1226 1.574 1_556 S
C1209 C1228 1.368 . S
C1209 H1233 0.949 . S
H1210 C1214 0.949 . S
C1211 C1212 1.349 . S
C1211 C1213 1.327 . S
C1211 H1234 0.950 . S
C1212 C1211 1.349 . S
C1212 C1224 1.349 . S
C1213 C1211 1.327 . S
C1213 C1229 1.429 . S
C1213 H1235 0.950 . S
C1214 H1210 0.949 . S
C1214 C1222 1.574 1_554 S
C1214 C1230 1.368 . S
H1215 C1223 0.950 . S
H1216 C1221 0.950 . S
H1217 C1222 0.949 . S
H1218 C1224 0.950 . S
H1219 C1225 0.950 . S
H1220 C1226 0.949 . S
C1221 H1216 0.950 . S
C1221 C1223 1.327 . S
C1221 C1227 1.429 . S
C1222 C1214 1.574 1_556 S
C1222 H1217 0.949 . S
C1222 C1228 1.368 . S
C1223 C1207 1.349 . S
C1223 H1215 0.950 . S
C1223 C1221 1.327 . S
C1224 C1212 1.349 . S
C1224 H1218 0.950 . S
C1224 C1225 1.327 . S
C1225 H1219 0.950 . S
C1225 C1224 1.327 . S
C1225 C1229 1.429 . S
C1226 C1209 1.574 1_554 S
C1226 H1220 0.949 . S
C1226 C1230 1.368 . S
C1227 C1208 1.429 . S
C1227 C1221 1.429 . S
C1227 C1228 1.523 . S
C1228 C1209 1.368 . S
C1228 C1222 1.368 . S
C1228 C1227 1.523 . S
C1229 C1213 1.429 . S
C1229 C1225 1.429 . S
C1229 C1230 1.523 . S
C1230 C1214 1.368 . S
C1230 C1226 1.368 . S
C1230 C1229 1.523 . S
H1231 C1206 0.950 . S
H1232 C1208 0.950 . S
H1233 C1209 0.949 . S
H1234 C1211 0.950 . S
H1235 C1213 0.950 . S
C1236 C1237 1.349 . S
C1236 C1238 1.327 . S
C1236 H1261 0.950 . S
C1237 C1236 1.349 . S
C1237 C1253 1.349 . S
C1238 C1236 1.327 . S
C1238 C1257 1.429 . S
C1238 H1262 0.950 . S
C1239 C1256 1.574 . S
C1239 C1258 1.368 . S
C1239 H1263 0.949 . S
H1240 C1244 0.949 . S
C1241 C1242 1.349 . S
C1241 C1243 1.327 . S
C1241 H1264 0.950 . S
C1242 C1241 1.349 . S
C1242 C1254 1.349 . S
C1243 C1241 1.327 . S
C1243 C1259 1.429 . S
C1243 H1265 0.950 . S
C1244 H1240 0.949 . S
C1244 C1252 1.574 . S
C1244 C1260 1.368 . S
H1245 C1253 0.950 . S
H1246 C1251 0.950 . S
H1247 C1252 0.949 . S
H1248 C1254 0.950 . S
H1249 C1255 0.950 . S
H1250 C1256 0.949 . S
C1251 H1246 0.950 . S
C1251 C1253 1.327 . S
C1251 C1257 1.429 . S
C1252 C1244 1.574 . S
C1252 H1247 0.949 . S
C1252 C1258 1.368 . S
C1253 C1237 1.349 . S
C1253 H1245 0.950 . S
C1253 C1251 1.327 . S
C1254 C1242 1.349 . S
C1254 H1248 0.950 . S
C1254 C1255 1.327 . S
C1255 H1249 0.950 . S
C1255 C1254 1.327 . S
C1255 C1259 1.429 . S
C1256 C1239 1.574 . S
C1256 H1250 0.949 . S
C1256 C1260 1.368 . S
C1257 C1238 1.429 . S
C1257 C1251 1.429 . S
C1257 C1258 1.523 . S
C1258 C1239 1.368 . S
C1258 C1252 1.368 . S
C1258 C1257 1.523 . S
C1259 C1243 1.429 . S
C1259 C1255 1.429 . S
C1259 C1260 1.523 . S
C1260 C1244 1.368 . S
C1260 C1256 1.368 . S
C1260 C1259 1.523 . S
H1261 C1236 0.950 . S
H1262 C1238 0.950 . S
H1263 C1239 0.949 . S
H1264 C1241 0.950 . S
H1265 C1243 0.950 . S
C1266 C1267 1.349 . S
C1266 C1268 1.327 . S
C1266 H1291 0.950 . S
C1267 C1266 1.349 . S
C1267 C1283 1.349 . S
C1268 C1266 1.327 . S
C1268 C1287 1.429 . S
C1268 H1292 0.950 . S
C1269 C1286 1.574 . S
C1269 C1288 1.368 . S
C1269 H1293 0.949 . S
H1270 C1274 0.949 . S
C1271 C1272 1.349 . S
C1271 C1273 1.327 . S
C1271 H1294 0.950 . S
C1272 C1271 1.349 . S
C1272 C1284 1.349 . S
C1273 C1271 1.327 . S
C1273 C1289 1.429 . S
C1273 H1295 0.950 . S
C1274 H1270 0.949 . S
C1274 C1282 1.574 . S
C1274 C1290 1.368 . S
H1275 C1283 0.950 . S
H1276 C1281 0.950 . S
H1277 C1282 0.949 . S
H1278 C1284 0.950 . S
H1279 C1285 0.950 . S
H1280 C1286 0.949 . S
C1281 H1276 0.950 . S
C1281 C1283 1.327 . S
C1281 C1287 1.429 . S
C1282 C1274 1.574 . S
C1282 H1277 0.949 . S
C1282 C1288 1.368 . S
C1283 C1267 1.349 . S
C1283 H1275 0.950 . S
C1283 C1281 1.327 . S
C1284 C1272 1.349 . S
C1284 H1278 0.950 . S
C1284 C1285 1.327 . S
C1285 H1279 0.950 . S
C1285 C1284 1.327 . S
C1285 C1289 1.429 . S
C1286 C1269 1.574 . S
C1286 H1280 0.949 . S
C1286 C1290 1.368 . S
C1287 C1268 1.429 . S
C1287 C1281 1.429 . S
C1287 C1288 1.523 . S
C1288 C1269 1.368 . S
C1288 C1282 1.368 . S
C1288 C1287 1.523 . S
C1289 C1273 1.429 . S
C1289 C1285 1.429 . S
C1289 C1290 1.523 . S
C1290 C1274 1.368 . S
C1290 C1286 1.368 . S
C1290 C1289 1.523 . S
H1291 C1266 0.950 . S
H1292 C1268 0.950 . S
H1293 C1269 0.949 . S
H1294 C1271 0.950 . S
H1295 C1273 0.950 . S
C1296 C1297 1.349 . S
C1296 C1298 1.327 . S
C1296 H1321 0.950 . S
C1297 C1296 1.349 . S
C1297 C1313 1.349 . S
C1298 C1296 1.327 . S
C1298 C1317 1.429 . S
C1298 H1322 0.950 . S
C1299 C1316 1.574 . S
C1299 C1318 1.368 . S
C1299 H1323 0.949 . S
H1300 C1304 0.949 . S
C1301 C1302 1.349 . S
C1301 C1303 1.327 . S
C1301 H1324 0.950 . S
C1302 C1301 1.349 . S
C1302 C1314 1.349 . S
C1303 C1301 1.327 . S
C1303 C1319 1.429 . S
C1303 H1325 0.950 . S
C1304 H1300 0.949 . S
C1304 C1312 1.574 . S
C1304 C1320 1.368 . S
H1305 C1313 0.950 . S
H1306 C1311 0.950 . S
H1307 C1312 0.949 . S
H1308 C1314 0.950 . S
H1309 C1315 0.950 . S
H1310 C1316 0.949 . S
C1311 H1306 0.950 . S
C1311 C1313 1.327 . S
C1311 C1317 1.429 . S
C1312 C1304 1.574 . S
C1312 H1307 0.949 . S
C1312 C1318 1.368 . S
C1313 C1297 1.349 . S
C1313 H1305 0.950 . S
C1313 C1311 1.327 . S
C1314 C1302 1.349 . S
C1314 H1308 0.950 . S
C1314 C1315 1.327 . S
C1315 H1309 0.950 . S
C1315 C1314 1.327 . S
C1315 C1319 1.429 . S
C1316 C1299 1.574 . S
C1316 H1310 0.949 . S
C1316 C1320 1.368 . S
C1317 C1298 1.429 . S
C1317 C1311 1.429 . S
C1317 C1318 1.523 . S
C1318 C1299 1.368 . S
C1318 C1312 1.368 . S
C1318 C1317 1.523 . S
C1319 C1303 1.429 . S
C1319 C1315 1.429 . S
C1319 C1320 1.523 . S
C1320 C1304 1.368 . S
C1320 C1316 1.368 . S
C1320 C1319 1.523 . S
H1321 C1296 0.950 . S
H1322 C1298 0.950 . S
H1323 C1299 0.949 . S
H1324 C1301 0.950 . S
H1325 C1303 0.950 . S
C1326 C1327 1.349 . S
C1326 C1328 1.327 . S
C1326 H1351 0.950 . S
C1327 C1326 1.349 . S
C1327 C1343 1.349 . S
C1328 C1326 1.327 . S
C1328 C1347 1.429 . S
C1328 H1352 0.950 . S
C1329 C1346 1.574 . S
C1329 C1348 1.368 . S
C1329 H1353 0.949 . S
H1330 C1334 0.949 . S
C1331 C1332 1.349 . S
C1331 C1333 1.327 . S
C1331 H1354 0.950 . S
C1332 C1331 1.349 . S
C1332 C1344 1.349 . S
C1333 C1331 1.327 . S
C1333 C1349 1.429 . S
C1333 H1355 0.950 . S
C1334 H1330 0.949 . S
C1334 C1342 1.574 . S
C1334 C1350 1.368 . S
H1335 C1343 0.950 . S
H1336 C1341 0.950 . S
H1337 C1342 0.949 . S
H1338 C1344 0.950 . S
H1339 C1345 0.950 . S
H1340 C1346 0.949 . S
C1341 H1336 0.950 . S
C1341 C1343 1.327 . S
C1341 C1347 1.429 . S
C1342 C1334 1.574 . S
C1342 H1337 0.949 . S
C1342 C1348 1.368 . S
C1343 C1327 1.349 . S
C1343 H1335 0.950 . S
C1343 C1341 1.327 . S
C1344 C1332 1.349 . S
C1344 H1338 0.950 . S
C1344 C1345 1.327 . S
C1345 H1339 0.950 . S
C1345 C1344 1.327 . S
C1345 C1349 1.429 . S
C1346 C1329 1.574 . S
C1346 H1340 0.949 . S
C1346 C1350 1.368 . S
C1347 C1328 1.429 . S
C1347 C1341 1.429 . S
C1347 C1348 1.523 . S
C1348 C1329 1.368 . S
C1348 C1342 1.368 . S
C1348 C1347 1.523 . S
C1349 C1333 1.429 . S
C1349 C1345 1.429 . S
C1349 C1350 1.523 . S
C1350 C1334 1.368 . S
C1350 C1346 1.368 . S
C1350 C1349 1.523 . S
H1351 C1326 0.950 . S
H1352 C1328 0.950 . S
H1353 C1329 0.949 . S
H1354 C1331 0.950 . S
H1355 C1333 0.950 . S
C1356 C1357 1.349 . S
C1356 C1358 1.327 . S
C1356 H1381 0.950 . S
C1357 C1356 1.349 . S
C1357 C1373 1.349 . S
C1358 C1356 1.327 . S
C1358 C1377 1.429 . S
C1358 H1382 0.950 . S
C1359 C1376 1.574 . S
C1359 C1378 1.368 . S
C1359 H1383 0.949 . S
H1360 C1364 0.949 . S
C1361 C1362 1.349 . S
C1361 C1363 1.327 . S
C1361 H1384 0.950 . S
C1362 C1361 1.349 . S
C1362 C1374 1.349 . S
C1363 C1361 1.327 . S
C1363 C1379 1.429 . S
C1363 H1385 0.950 . S
C1364 H1360 0.949 . S
C1364 C1372 1.574 . S
C1364 C1380 1.368 . S
H1365 C1373 0.950 . S
H1366 C1371 0.950 . S
H1367 C1372 0.949 . S
H1368 C1374 0.950 . S
H1369 C1375 0.950 . S
H1370 C1376 0.949 . S
C1371 H1366 0.950 . S
C1371 C1373 1.327 . S
C1371 C1377 1.429 . S
C1372 C1364 1.574 . S
C1372 H1367 0.949 . S
C1372 C1378 1.368 . S
C1373 C1357 1.349 . S
C1373 H1365 0.950 . S
C1373 C1371 1.327 . S
C1374 C1362 1.349 . S
C1374 H1368 0.950 . S
C1374 C1375 1.327 . S
C1375 H1369 0.950 . S
C1375 C1374 1.327 . S
C1375 C1379 1.429 . S
C1376 C1359 1.574 . S
C1376 H1370 0.949 . S
C1376 C1380 1.368 . S
C1377 C1358 1.429 . S
C1377 C1371 1.429 . S
C1377 C1378 1.523 . S
C1378 C1359 1.368 . S
C1378 C1372 1.368 . S
C1378 C1377 1.523 . S
C1379 C1363 1.429 . S
C1379 C1375 1.429 . S
C1379 C1380 1.523 . S
C1380 C1364 1.368 . S
C1380 C1376 1.368 . S
C1380 C1379 1.523 . S
H1381 C1356 0.950 . S
H1382 C1358 0.950 . S
H1383 C1359 0.949 . S
H1384 C1361 0.950 . S
H1385 C1363 0.950 . S
C1386 C1387 1.349 . S
C1386 C1388 1.327 . S
C1386 H1411 0.950 . S
C1387 C1386 1.349 . S
C1387 C1403 1.349 . S
C1388 C1386 1.327 . S
C1388 C1407 1.429 . S
C1388 H1412 0.950 . S
C1389 C1406 1.574 . S
C1389 C1408 1.368 . S
C1389 H1413 0.949 . S
H1390 C1394 0.949 . S
C1391 C1392 1.349 . S
C1391 C1393 1.327 . S
C1391 H1414 0.950 . S
C1392 C1391 1.349 . S
C1392 C1404 1.349 . S
C1393 C1391 1.327 . S
C1393 C1409 1.429 . S
C1393 H1415 0.950 . S
C1394 H1390 0.949 . S
C1394 C1402 1.574 . S
C1394 C1410 1.368 . S
H1395 C1403 0.950 . S
H1396 C1401 0.950 . S
H1397 C1402 0.949 . S
H1398 C1404 0.950 . S
H1399 C1405 0.950 . S
H1400 C1406 0.949 . S
C1401 H1396 0.950 . S
C1401 C1403 1.327 . S
C1401 C1407 1.429 . S
C1402 C1394 1.574 . S
C1402 H1397 0.949 . S
C1402 C1408 1.368 . S
C1403 C1387 1.349 . S
C1403 H1395 0.950 . S
C1403 C1401 1.327 . S
C1404 C1392 1.349 . S
C1404 H1398 0.950 . S
C1404 C1405 1.327 . S
C1405 H1399 0.950 . S
C1405 C1404 1.327 . S
C1405 C1409 1.429 . S
C1406 C1389 1.574 . S
C1406 H1400 0.949 . S
C1406 C1410 1.368 . S
C1407 C1388 1.429 . S
C1407 C1401 1.429 . S
C1407 C1408 1.523 . S
C1408 C1389 1.368 . S
C1408 C1402 1.368 . S
C1408 C1407 1.523 . S
C1409 C1393 1.429 . S
C1409 C1405 1.429 . S
C1409 C1410 1.523 . S
C1410 C1394 1.368 . S
C1410 C1406 1.368 . S
C1410 C1409 1.523 . S
H1411 C1386 0.950 . S
H1412 C1388 0.950 . S
H1413 C1389 0.949 . S
H1414 C1391 0.950 . S
H1415 C1393 0.950 . S
C1416 C1417 1.349 . S
C1416 C1418 1.327 . S
C1416 H1441 0.950 . S
C1417 C1416 1.349 . S
C1417 C1433 1.349 . S
C1418 C1416 1.327 . S
C1418 C1437 1.429 . S
C1418 H1442 0.950 . S
C1419 C1436 1.574 . S
C1419 C1438 1.368 . S
C1419 H1443 0.949 . S
H1420 C1424 0.949 . S
C1421 C1422 1.349 . S
C1421 C1423 1.327 . S
C1421 H1444 0.950 . S
C1422 C1421 1.349 . S
C1422 C1434 1.349 . S
C1423 C1421 1.327 . S
C1423 C1439 1.429 . S
C1423 H1445 0.950 . S
C1424 H1420 0.949 . S
C1424 C1432 1.574 . S
C1424 C1440 1.368 . S
H1425 C1433 0.950 . S
H1426 C1431 0.950 . S
H1427 C1432 0.949 . S
H1428 C1434 0.950 . S
H1429 C1435 0.950 . S
H1430 C1436 0.949 . S
C1431 H1426 0.950 . S
C1431 C1433 1.327 . S
C1431 C1437 1.429 . S
C1432 C1424 1.574 . S
C1432 H1427 0.949 . S
C1432 C1438 1.368 . S
C1433 C1417 1.349 . S
C1433 H1425 0.950 . S
C1433 C1431 1.327 . S
C1434 C1422 1.349 . S
C1434 H1428 0.950 . S
C1434 C1435 1.327 . S
C1435 H1429 0.950 . S
C1435 C1434 1.327 . S
C1435 C1439 1.429 . S
C1436 C1419 1.574 . S
C1436 H1430 0.949 . S
C1436 C1440 1.368 . S
C1437 C1418 1.429 . S
C1437 C1431 1.429 . S
C1437 C1438 1.523 . S
C1438 C1419 1.368 . S
C1438 C1432 1.368 . S
C1438 C1437 1.523 . S
C1439 C1423 1.429 . S
C1439 C1435 1.429 . S
C1439 C1440 1.523 . S
C1440 C1424 1.368 . S
C1440 C1436 1.368 . S
C1440 C1439 1.523 . S
H1441 C1416 0.950 . S
H1442 C1418 0.950 . S
H1443 C1419 0.949 . S
H1444 C1421 0.950 . S
H1445 C1423 0.950 . S
C1446 C1447 1.349 . S
C1446 C1448 1.327 . S
C1446 H1471 0.950 . S
C1447 C1446 1.349 . S
C1447 C1463 1.349 . S
C1448 C1446 1.327 . S
C1448 C1467 1.429 . S
C1448 H1472 0.950 . S
C1449 C1466 1.574 . S
C1449 C1468 1.368 . S
C1449 H1473 0.949 . S
H1450 C1454 0.949 . S
C1451 C1452 1.349 . S
C1451 C1453 1.327 . S
C1451 H1474 0.950 . S
C1452 C1451 1.349 . S
C1452 C1464 1.349 . S
C1453 C1451 1.327 . S
C1453 C1469 1.429 . S
C1453 H1475 0.950 . S
C1454 H1450 0.949 . S
C1454 C1462 1.574 . S
C1454 C1470 1.368 . S
H1455 C1463 0.950 . S
H1456 C1461 0.950 . S
H1457 C1462 0.949 . S
H1458 C1464 0.950 . S
H1459 C1465 0.950 . S
H1460 C1466 0.949 . S
C1461 H1456 0.950 . S
C1461 C1463 1.327 . S
C1461 C1467 1.429 . S
C1462 C1454 1.574 . S
C1462 H1457 0.949 . S
C1462 C1468 1.368 . S
C1463 C1447 1.349 . S
C1463 H1455 0.950 . S
C1463 C1461 1.327 . S
C1464 C1452 1.349 . S
C1464 H1458 0.950 . S
C1464 C1465 1.327 . S
C1465 H1459 0.950 . S
C1465 C1464 1.327 . S
C1465 C1469 1.429 . S
C1466 C1449 1.574 . S
C1466 H1460 0.949 . S
C1466 C1470 1.368 . S
C1467 C1448 1.429 . S
C1467 C1461 1.429 . S
C1467 C1468 1.523 . S
C1468 C1449 1.368 . S
C1468 C1462 1.368 . S
C1468 C1467 1.523 . S
C1469 C1453 1.429 . S
C1469 C1465 1.429 . S
C1469 C1470 1.523 . S
C1470 C1454 1.368 . S
C1470 C1466 1.368 . S
C1470 C1469 1.523 . S
H1471 C1446 0.950 . S
H1472 C1448 0.950 . S
H1473 C1449 0.949 . S
H1474 C1451 0.950 . S
H1475 C1453 0.950 . S
C1476 C1477 1.349 . S
C1476 C1478 1.327 . S
C1476 H1501 0.950 . S
C1477 C1476 1.349 . S
C1477 C1493 1.349 . S
C1478 C1476 1.327 . S
C1478 C1497 1.429 . S
C1478 H1502 0.950 . S
C1479 C1496 1.574 . S
C1479 C1498 1.368 . S
C1479 H1503 0.949 . S
H1480 C1484 0.949 . S
C1481 C1482 1.349 . S
C1481 C1483 1.327 . S
C1481 H1504 0.950 . S
C1482 C1481 1.349 . S
C1482 C1494 1.349 . S
C1483 C1481 1.327 . S
C1483 C1499 1.429 . S
C1483 H1505 0.950 . S
C1484 H1480 0.949 . S
C1484 C1492 1.574 . S
C1484 C1500 1.368 . S
H1485 C1493 0.950 . S
H1486 C1491 0.950 . S
H1487 C1492 0.949 . S
H1488 C1494 0.950 . S
H1489 C1495 0.950 . S
H1490 C1496 0.949 . S
C1491 H1486 0.950 . S
C1491 C1493 1.327 . S
C1491 C1497 1.429 . S
C1492 C1484 1.574 . S
C1492 H1487 0.949 . S
C1492 C1498 1.368 . S
C1493 C1477 1.349 . S
C1493 H1485 0.950 . S
C1493 C1491 1.327 . S
C1494 C1482 1.349 . S
C1494 H1488 0.950 . S
C1494 C1495 1.327 . S
C1495 H1489 0.950 . S
C1495 C1494 1.327 . S
C1495 C1499 1.429 . S
C1496 C1479 1.574 . S
C1496 H1490 0.949 . S
C1496 C1500 1.368 . S
C1497 C1478 1.429 . S
C1497 C1491 1.429 . S
C1497 C1498 1.523 . S
C1498 C1479 1.368 . S
C1498 C1492 1.368 . S
C1498 C1497 1.523 . S
C1499 C1483 1.429 . S
C1499 C1495 1.429 . S
C1499 C1500 1.523 . S
C1500 C1484 1.368 . S
C1500 C1496 1.368 . S
C1500 C1499 1.523 . S
H1501 C1476 0.950 . S
H1502 C1478 0.950 . S
H1503 C1479 0.949 . S
H1504 C1481 0.950 . S
H1505 C1483 0.950 . S
C1506 C1507 1.349 . S
C1506 C1508 1.327 . S
C1506 H1531 0.950 . S
C1507 C1506 1.349 . S
C1507 C1523 1.349 . S
C1508 C1506 1.327 . S
C1508 C1527 1.429 . S
C1508 H1532 0.950 . S
C1509 C1526 1.574 . S
C1509 C1528 1.368 . S
C1509 H1533 0.949 . S
H1510 C1514 0.949 . S
C1511 C1512 1.349 . S
C1511 C1513 1.327 . S
C1511 H1534 0.950 . S
C1512 C1511 1.349 . S
C1512 C1524 1.349 . S
C1513 C1511 1.327 . S
C1513 C1529 1.429 . S
C1513 H1535 0.950 . S
C1514 H1510 0.949 . S
C1514 C1522 1.574 . S
C1514 C1530 1.368 . S
H1515 C1523 0.950 . S
H1516 C1521 0.950 . S
H1517 C1522 0.949 . S
H1518 C1524 0.950 . S
H1519 C1525 0.950 . S
H1520 C1526 0.949 . S
C1521 H1516 0.950 . S
C1521 C1523 1.327 . S
C1521 C1527 1.429 . S
C1522 C1514 1.574 . S
C1522 H1517 0.949 . S
C1522 C1528 1.368 . S
C1523 C1507 1.349 . S
C1523 H1515 0.950 . S
C1523 C1521 1.327 . S
C1524 C1512 1.349 . S
C1524 H1518 0.950 . S
C1524 C1525 1.327 . S
C1525 H1519 0.950 . S
C1525 C1524 1.327 . S
C1525 C1529 1.429 . S
C1526 C1509 1.574 . S
C1526 H1520 0.949 . S
C1526 C1530 1.368 . S
C1527 C1508 1.429 . S
C1527 C1521 1.429 . S
C1527 C1528 1.523 . S
C1528 C1509 1.368 . S
C1528 C1522 1.368 . S
C1528 C1527 1.523 . S
C1529 C1513 1.429 . S
C1529 C1525 1.429 . S
C1529 C1530 1.523 . S
C1530 C1514 1.368 . S
C1530 C1526 1.368 . S
C1530 C1529 1.523 . S
H1531 C1506 0.950 . S
H1532 C1508 0.950 . S
H1533 C1509 0.949 . S
H1534 C1511 0.950 . S
H1535 C1513 0.950 . S
C1536 C1537 1.349 . S
C1536 C1538 1.327 . S
C1536 H1561 0.950 . S
C1537 C1536 1.349 . S
C1537 C1553 1.349 . S
C1538 C1536 1.327 . S
C1538 C1557 1.429 . S
C1538 H1562 0.950 . S
C1539 C1556 1.574 . S
C1539 C1558 1.368 . S
C1539 H1563 0.949 . S
H1540 C1544 0.949 . S
C1541 C1542 1.349 . S
C1541 C1543 1.327 . S
C1541 H1564 0.950 . S
C1542 C1541 1.349 . S
C1542 C1554 1.349 . S
C1543 C1541 1.327 . S
C1543 C1559 1.429 . S
C1543 H1565 0.950 . S
C1544 H1540 0.949 . S
C1544 C1552 1.574 . S
C1544 C1560 1.368 . S
H1545 C1553 0.950 . S
H1546 C1551 0.950 . S
H1547 C1552 0.949 . S
H1548 C1554 0.950 . S
H1549 C1555 0.950 . S
H1550 C1556 0.949 . S
C1551 H1546 0.950 . S
C1551 C1553 1.327 . S
C1551 C1557 1.429 . S
C1552 C1544 1.574 . S
C1552 H1547 0.949 . S
C1552 C1558 1.368 . S
C1553 C1537 1.349 . S
C1553 H1545 0.950 . S
C1553 C1551 1.327 . S
C1554 C1542 1.349 . S
C1554 H1548 0.950 . S
C1554 C1555 1.327 . S
C1555 H1549 0.950 . S
C1555 C1554 1.327 . S
C1555 C1559 1.429 . S
C1556 C1539 1.574 . S
C1556 H1550 0.949 . S
C1556 C1560 1.368 . S
C1557 C1538 1.429 . S
C1557 C1551 1.429 . S
C1557 C1558 1.523 . S
C1558 C1539 1.368 . S
C1558 C1552 1.368 . S
C1558 C1557 1.523 . S
C1559 C1543 1.429 . S
C1559 C1555 1.429 . S
C1559 C1560 1.523 . S
C1560 C1544 1.368 . S
C1560 C1556 1.368 . S
C1560 C1559 1.523 . S
H1561 C1536 0.950 . S
H1562 C1538 0.950 . S
H1563 C1539 0.949 . S
H1564 C1541 0.950 . S
H1565 C1543 0.950 . S
C1566 C1567 1.349 . S
C1566 C1568 1.327 . S
C1566 H1591 0.950 . S
C1567 C1566 1.349 . S
C1567 C1583 1.349 . S
C1568 C1566 1.327 . S
C1568 C1587 1.429 . S
C1568 H1592 0.950 . S
C1569 C1586 1.574 . S
C1569 C1588 1.368 . S
C1569 H1593 0.949 . S
H1570 C1574 0.949 . S
C1571 C1572 1.349 . S
C1571 C1573 1.327 . S
C1571 H1594 0.950 . S
C1572 C1571 1.349 . S
C1572 C1584 1.349 . S
C1573 C1571 1.327 . S
C1573 C1589 1.429 . S
C1573 H1595 0.950 . S
C1574 H1570 0.949 . S
C1574 C1582 1.574 . S
C1574 C1590 1.368 . S
H1575 C1583 0.950 . S
H1576 C1581 0.950 . S
H1577 C1582 0.949 . S
H1578 C1584 0.950 . S
H1579 C1585 0.950 . S
H1580 C1586 0.949 . S
C1581 H1576 0.950 . S
C1581 C1583 1.327 . S
C1581 C1587 1.429 . S
C1582 C1574 1.574 . S
C1582 H1577 0.949 . S
C1582 C1588 1.368 . S
C1583 C1567 1.349 . S
C1583 H1575 0.950 . S
C1583 C1581 1.327 . S
C1584 C1572 1.349 . S
C1584 H1578 0.950 . S
C1584 C1585 1.327 . S
C1585 H1579 0.950 . S
C1585 C1584 1.327 . S
C1585 C1589 1.429 . S
C1586 C1569 1.574 . S
C1586 H1580 0.949 . S
C1586 C1590 1.368 . S
C1587 C1568 1.429 . S
C1587 C1581 1.429 . S
C1587 C1588 1.523 . S
C1588 C1569 1.368 . S
C1588 C1582 1.368 . S
C1588 C1587 1.523 . S
C1589 C1573 1.429 . S
C1589 C1585 1.429 . S
C1589 C1590 1.523 . S
C1590 C1574 1.368 . S
C1590 C1586 1.368 . S
C1590 C1589 1.523 . S
H1591 C1566 0.950 . S
H1592 C1568 0.950 . S
H1593 C1569 0.949 . S
H1594 C1571 0.950 . S
H1595 C1573 0.950 . S
C1596 C1597 1.349 . S
C1596 C1598 1.327 . S
C1596 H1621 0.950 . S
C1597 C1596 1.349 . S
C1597 C1613 1.349 . S
C1598 C1596 1.327 . S
C1598 C1617 1.429 . S
C1598 H1622 0.950 . S
C1599 C1616 1.574 . S
C1599 C1618 1.368 . S
C1599 H1623 0.949 . S
H1600 C1604 0.949 . S
C1601 C1602 1.349 . S
C1601 C1603 1.327 . S
C1601 H1624 0.950 . S
C1602 C1601 1.349 . S
C1602 C1614 1.349 . S
C1603 C1601 1.327 . S
C1603 C1619 1.429 . S
C1603 H1625 0.950 . S
C1604 H1600 0.949 . S
C1604 C1612 1.574 . S
C1604 C1620 1.368 . S
H1605 C1613 0.950 . S
H1606 C1611 0.950 . S
H1607 C1612 0.949 . S
H1608 C1614 0.950 . S
H1609 C1615 0.950 . S
H1610 C1616 0.949 . S
C1611 H1606 0.950 . S
C1611 C1613 1.327 . S
C1611 C1617 1.429 . S
C1612 C1604 1.574 . S
C1612 H1607 0.949 . S
C1612 C1618 1.368 . S
C1613 C1597 1.349 . S
C1613 H1605 0.950 . S
C1613 C1611 1.327 . S
C1614 C1602 1.349 . S
C1614 H1608 0.950 . S
C1614 C1615 1.327 . S
C1615 H1609 0.950 . S
C1615 C1614 1.327 . S
C1615 C1619 1.429 . S
C1616 C1599 1.574 . S
C1616 H1610 0.949 . S
C1616 C1620 1.368 . S
C1617 C1598 1.429 . S
C1617 C1611 1.429 . S
C1617 C1618 1.523 . S
C1618 C1599 1.368 . S
C1618 C1612 1.368 . S
C1618 C1617 1.523 . S
C1619 C1603 1.429 . S
C1619 C1615 1.429 . S
C1619 C1620 1.523 . S
C1620 C1604 1.368 . S
C1620 C1616 1.368 . S
C1620 C1619 1.523 . S
H1621 C1596 0.950 . S
H1622 C1598 0.950 . S
H1623 C1599 0.949 . S
H1624 C1601 0.950 . S
H1625 C1603 0.950 . S
C1626 C1627 1.349 . S
C1626 C1628 1.327 . S
C1626 H1651 0.950 . S
C1627 C1626 1.349 . S
C1627 C1643 1.349 . S
C1628 C1626 1.327 . S
C1628 C1647 1.429 . S
C1628 H1652 0.950 . S
C1629 C1646 1.574 . S
C1629 C1648 1.368 . S
C1629 H1653 0.949 . S
H1630 C1634 0.949 . S
C1631 C1632 1.349 . S
C1631 C1633 1.327 . S
C1631 H1654 0.950 . S
C1632 C1631 1.349 . S
C1632 C1644 1.349 . S
C1633 C1631 1.327 . S
C1633 C1649 1.429 . S
C1633 H1655 0.950 . S
C1634 H1630 0.949 . S
C1634 C1642 1.574 . S
C1634 C1650 1.368 . S
H1635 C1643 0.950 . S
H1636 C1641 0.950 . S
H1637 C1642 0.949 . S
H1638 C1644 0.950 . S
H1639 C1645 0.950 . S
H1640 C1646 0.949 . S
C1641 H1636 0.950 . S
C1641 C1643 1.327 . S
C1641 C1647 1.429 . S
C1642 C1634 1.574 . S
C1642 H1637 0.949 . S
C1642 C1648 1.368 . S
C1643 C1627 1.349 . S
C1643 H1635 0.950 . S
C1643 C1641 1.327 . S
C1644 C1632 1.349 . S
C1644 H1638 0.950 . S
C1644 C1645 1.327 . S
C1645 H1639 0.950 . S
C1645 C1644 1.327 . S
C1645 C1649 1.429 . S
C1646 C1629 1.574 . S
C1646 H1640 0.949 . S
C1646 C1650 1.368 . S
C1647 C1628 1.429 . S
C1647 C1641 1.429 . S
C1647 C1648 1.523 . S
C1648 C1629 1.368 . S
C1648 C1642 1.368 . S
C1648 C1647 1.523 . S
C1649 C1633 1.429 . S
C1649 C1645 1.429 . S
C1649 C1650 1.523 . S
C1650 C1634 1.368 . S
C1650 C1646 1.368 . S
C1650 C1649 1.523 . S
H1651 C1626 0.950 . S
H1652 C1628 0.950 . S
H1653 C1629 0.949 . S
H1654 C1631 0.950 . S
H1655 C1633 0.950 . S
C1656 C1657 1.349 . S
C1656 C1658 1.327 . S
C1656 H1681 0.950 . S
C1657 C1656 1.349 . S
C1657 C1673 1.349 . S
C1658 C1656 1.327 . S
C1658 C1677 1.429 . S
C1658 H1682 0.950 . S
C1659 C1676 1.574 . S
C1659 C1678 1.368 . S
C1659 H1683 0.949 . S
H1660 C1664 0.949 . S
C1661 C1662 1.349 . S
C1661 C1663 1.327 . S
C1661 H1684 0.950 . S
C1662 C1661 1.349 . S
C1662 C1674 1.349 . S
C1663 C1661 1.327 . S
C1663 C1679 1.429 . S
C1663 H1685 0.950 . S
C1664 H1660 0.949 . S
C1664 C1672 1.574 . S
C1664 C1680 1.368 . S
H1665 C1673 0.950 . S
H1666 C1671 0.950 . S
H1667 C1672 0.949 . S
H1668 C1674 0.950 . S
H1669 C1675 0.950 . S
H1670 C1676 0.949 . S
C1671 H1666 0.950 . S
C1671 C1673 1.327 . S
C1671 C1677 1.429 . S
C1672 C1664 1.574 . S
C1672 H1667 0.949 . S
C1672 C1678 1.368 . S
C1673 C1657 1.349 . S
C1673 H1665 0.950 . S
C1673 C1671 1.327 . S
C1674 C1662 1.349 . S
C1674 H1668 0.950 . S
C1674 C1675 1.327 . S
C1675 H1669 0.950 . S
C1675 C1674 1.327 . S
C1675 C1679 1.429 . S
C1676 C1659 1.574 . S
C1676 H1670 0.949 . S
C1676 C1680 1.368 . S
C1677 C1658 1.429 . S
C1677 C1671 1.429 . S
C1677 C1678 1.523 . S
C1678 C1659 1.368 . S
C1678 C1672 1.368 . S
C1678 C1677 1.523 . S
C1679 C1663 1.429 . S
C1679 C1675 1.429 . S
C1679 C1680 1.523 . S
C1680 C1664 1.368 . S
C1680 C1676 1.368 . S
C1680 C1679 1.523 . S
H1681 C1656 0.950 . S
H1682 C1658 0.950 . S
H1683 C1659 0.949 . S
H1684 C1661 0.950 . S
H1685 C1663 0.950 . S
C1686 C1687 1.349 . S
C1686 C1688 1.327 . S
C1686 H1711 0.950 . S
C1687 C1686 1.349 . S
C1687 C1703 1.349 . S
C1688 C1686 1.327 . S
C1688 C1707 1.429 . S
C1688 H1712 0.950 . S
C1689 C1706 1.574 . S
C1689 C1708 1.368 . S
C1689 H1713 0.949 . S
H1690 C1694 0.949 . S
C1691 C1692 1.349 . S
C1691 C1693 1.327 . S
C1691 H1714 0.950 . S
C1692 C1691 1.349 . S
C1692 C1704 1.349 . S
C1693 C1691 1.327 . S
C1693 C1709 1.429 . S
C1693 H1715 0.950 . S
C1694 H1690 0.949 . S
C1694 C1702 1.574 . S
C1694 C1710 1.368 . S
H1695 C1703 0.950 . S
H1696 C1701 0.950 . S
H1697 C1702 0.949 . S
H1698 C1704 0.950 . S
H1699 C1705 0.950 . S
H1700 C1706 0.949 . S
C1701 H1696 0.950 . S
C1701 C1703 1.327 . S
C1701 C1707 1.429 . S
C1702 C1694 1.574 . S
C1702 H1697 0.949 . S
C1702 C1708 1.368 . S
C1703 C1687 1.349 . S
C1703 H1695 0.950 . S
C1703 C1701 1.327 . S
C1704 C1692 1.349 . S
C1704 H1698 0.950 . S
C1704 C1705 1.327 . S
C1705 H1699 0.950 . S
C1705 C1704 1.327 . S
C1705 C1709 1.429 . S
C1706 C1689 1.574 . S
C1706 H1700 0.949 . S
C1706 C1710 1.368 . S
C1707 C1688 1.429 . S
C1707 C1701 1.429 . S
C1707 C1708 1.523 . S
C1708 C1689 1.368 . S
C1708 C1702 1.368 . S
C1708 C1707 1.523 . S
C1709 C1693 1.429 . S
C1709 C1705 1.429 . S
C1709 C1710 1.523 . S
C1710 C1694 1.368 . S
C1710 C1706 1.368 . S
C1710 C1709 1.523 . S
H1711 C1686 0.950 . S
H1712 C1688 0.950 . S
H1713 C1689 0.949 . S
H1714 C1691 0.950 . S
H1715 C1693 0.950 . S
C1716 C1717 1.349 . S
C1716 C1718 1.327 . S
C1716 H1741 0.950 . S
C1717 C1716 1.349 . S
C1717 C1733 1.349 . S
C1718 C1716 1.327 . S
C1718 C1737 1.429 . S
C1718 H1742 0.950 . S
C1719 C1736 1.574 . S
C1719 C1738 1.368 . S
C1719 H1743 0.949 . S
H1720 C1724 0.949 . S
C1721 C1722 1.349 . S
C1721 C1723 1.327 . S
C1721 H1744 0.950 . S
C1722 C1721 1.349 . S
C1722 C1734 1.349 . S
C1723 C1721 1.327 . S
C1723 C1739 1.429 . S
C1723 H1745 0.950 . S
C1724 H1720 0.949 . S
C1724 C1732 1.574 . S
C1724 C1740 1.368 . S
H1725 C1733 0.950 . S
H1726 C1731 0.950 . S
H1727 C1732 0.949 . S
H1728 C1734 0.950 . S
H1729 C1735 0.950 . S
H1730 C1736 0.949 . S
C1731 H1726 0.950 . S
C1731 C1733 1.327 . S
C1731 C1737 1.429 . S
C1732 C1724 1.574 . S
C1732 H1727 0.949 . S
C1732 C1738 1.368 . S
C1733 C1717 1.349 . S
C1733 H1725 0.950 . S
C1733 C1731 1.327 . S
C1734 C1722 1.349 . S
C1734 H1728 0.950 . S
C1734 C1735 1.327 . S
C1735 H1729 0.950 . S
C1735 C1734 1.327 . S
C1735 C1739 1.429 . S
C1736 C1719 1.574 . S
C1736 H1730 0.949 . S
C1736 C1740 1.368 . S
C1737 C1718 1.429 . S
C1737 C1731 1.429 . S
C1737 C1738 1.523 . S
C1738 C1719 1.368 . S
C1738 C1732 1.368 . S
C1738 C1737 1.523 . S
C1739 C1723 1.429 . S
C1739 C1735 1.429 . S
C1739 C1740 1.523 . S
C1740 C1724 1.368 . S
C1740 C1736 1.368 . S
C1740 C1739 1.523 . S
H1741 C1716 0.950 . S
H1742 C1718 0.950 . S
H1743 C1719 0.949 . S
H1744 C1721 0.950 . S
H1745 C1723 0.950 . S
C1746 C1747 1.349 . S
C1746 C1748 1.327 . S
C1746 H1771 0.950 . S
C1747 C1746 1.349 . S
C1747 C1763 1.349 . S
C1748 C1746 1.327 . S
C1748 C1767 1.429 . S
C1748 H1772 0.950 . S
C1749 C1766 1.574 . S
C1749 C1768 1.368 . S
C1749 H1773 0.949 . S
H1750 C1754 0.949 . S
C1751 C1752 1.349 . S
C1751 C1753 1.327 . S
C1751 H1774 0.950 . S
C1752 C1751 1.349 . S
C1752 C1764 1.349 . S
C1753 C1751 1.327 . S
C1753 C1769 1.429 . S
C1753 H1775 0.950 . S
C1754 H1750 0.949 . S
C1754 C1762 1.574 . S
C1754 C1770 1.368 . S
H1755 C1763 0.950 . S
H1756 C1761 0.950 . S
H1757 C1762 0.949 . S
H1758 C1764 0.950 . S
H1759 C1765 0.950 . S
H1760 C1766 0.949 . S
C1761 H1756 0.950 . S
C1761 C1763 1.327 . S
C1761 C1767 1.429 . S
C1762 C1754 1.574 . S
C1762 H1757 0.949 . S
C1762 C1768 1.368 . S
C1763 C1747 1.349 . S
C1763 H1755 0.950 . S
C1763 C1761 1.327 . S
C1764 C1752 1.349 . S
C1764 H1758 0.950 . S
C1764 C1765 1.327 . S
C1765 H1759 0.950 . S
C1765 C1764 1.327 . S
C1765 C1769 1.429 . S
C1766 C1749 1.574 . S
C1766 H1760 0.949 . S
C1766 C1770 1.368 . S
C1767 C1748 1.429 . S
C1767 C1761 1.429 . S
C1767 C1768 1.523 . S
C1768 C1749 1.368 . S
C1768 C1762 1.368 . S
C1768 C1767 1.523 . S
C1769 C1753 1.429 . S
C1769 C1765 1.429 . S
C1769 C1770 1.523 . S
C1770 C1754 1.368 . S
C1770 C1766 1.368 . S
C1770 C1769 1.523 . S
H1771 C1746 0.950 . S
H1772 C1748 0.950 . S
H1773 C1749 0.949 . S
H1774 C1751 0.950 . S
H1775 C1753 0.950 . S
C337 C9 1.533 . S
C342 C107 1.533 . S
C367 C121 1.533 . S
C372 C23 1.533 . S
C397 C37 1.533 . S
C402 C135 1.533 . S
C427 C51 1.533 . S
C432 C149 1.533 . S
C457 C163 1.533 . S
C462 C65 1.533 . S
C487 C79 1.533 . S
C492 C93 1.533 . S
C517 C177 1.533 . S
C522 C275 1.533 . S
C547 C191 1.533 . S
C552 C289 1.533 . S
C577 C303 1.533 . S
C582 C205 1.533 . S
C607 C219 1.533 . S
C612 C317 1.533 . S
C637 C233 1.533 . S
C642 C331 1.533 . S
C667 C261 1.533 . S
C672 C247 1.533 . S
C697 C8 1.362 . S
C702 C120 1.362 . S
C727 C134 1.362 . S
C732 C22 1.362 . S
C757 C148 1.362 . S
C762 C36 1.362 . S
C787 C50 1.362 . S
C792 C162 1.362 . S
C817 C64 1.362 . S
C822 C92 1.362 . S
C847 C78 1.362 . S
C852 C106 1.362 . S
C877 C288 1.362 . S
C882 C176 1.362 . S
C907 C190 1.362 . S
C912 C302 1.362 . S
C937 C316 1.362 . S
C942 C204 1.362 . S
C967 C330 1.362 . S
C972 C218 1.362 . S
C997 C260 1.362 . S
C1002 C232 1.362 . S
C1027 C246 1.362 . S
C1032 C274 1.362 . S
C1057 C7 1.536 . S
C1062 C217 1.536 . S
C1087 C231 1.536 . S
C1092 C21 1.536 . S
C1117 C245 1.536 . S
C1122 C35 1.536 . S
C1147 C49 1.536 . S
C1152 C175 1.536 . S
C1177 C63 1.536 . S
C1182 C189 1.536 . S
C1207 C203 1.536 . S
C1212 C77 1.536 . S
C1237 C301 1.536 . S
C1242 C91 1.536 . S
C1267 C315 1.536 . S
C1272 C105 1.536 . S
C1297 C329 1.536 . S
C1302 C119 1.536 . S
C1327 C259 1.536 . S
C1332 C133 1.536 . S
C1357 C147 1.536 . S
C1362 C273 1.536 . S
C1387 C161 1.536 . S
C1392 C287 1.536 . S
C1417 C3 1.398 . S
C1422 C143 1.398 . S
C1447 C157 1.398 . S
C1452 C17 1.398 . S
C1477 C87 1.398 . S
C1482 C31 1.398 . S
C1507 C45 1.398 . S
C1512 C101 1.398 . S
C1537 C59 1.398 . S
C1542 C115 1.398 . S
C1567 C73 1.398 . S
C1572 C129 1.398 . S
C1597 C171 1.398 . S
C1602 C311 1.398 . S
C1627 C185 1.398 . S
C1632 C325 1.398 . S
C1657 C199 1.398 . S
C1662 C255 1.398 . S
C1687 C269 1.398 . S
C1692 C213 1.398 . S
C1717 C227 1.398 . S
C1722 C283 1.398 . S
C1747 C241 1.398 . S
C1752 C297 1.398 . S
