# Generated by pormake.
# Topology neb, (4)-cn, num edge types: 1
# Building blocks:
#     Node 0, Type 0, BuildingBlock: NAHDIM_clean_sbu_0, # of connection points: 4
#     Node 1, Type 0, BuildingBlock: NAHDIM_clean_sbu_0, # of connection points: 4
#     Node 2, Type 0, BuildingBlock: NAHDIM_clean_sbu_0, # of connection points: 4
#     Node 3, Type 0, BuildingBlock: NAHDIM_clean_sbu_0, # of connection points: 4
#     Node 4, Type 0, BuildingBlock: NAHDIM_clean_sbu_0, # of connection points: 4
#     Node 5, Type 0, BuildingBlock: NAHDIM_clean_sbu_0, # of connection points: 4
#     Node 6, Type 0, BuildingBlock: NAHDIM_clean_sbu_0, # of connection points: 4
#     Node 7, Type 0, BuildingBlock: NAHDIM_clean_sbu_0, # of connection points: 4
#     Node 8, Type 0, BuildingBlock: NAHDIM_clean_sbu_0, # of connection points: 4
#     Node 9, Type 0, BuildingBlock: NAHDIM_clean_sbu_0, # of connection points: 4
#     Node 10, Type 0, BuildingBlock: NAHDIM_clean_sbu_0, # of connection points: 4
#     Node 11, Type 0, BuildingBlock: NAHDIM_clean_sbu_0, # of connection points: 4
#     Node 12, Type 0, BuildingBlock: NAHDIM_clean_sbu_0, # of connection points: 4
#     Node 13, Type 0, BuildingBlock: NAHDIM_clean_sbu_0, # of connection points: 4
#     Node 14, Type 0, BuildingBlock: NAHDIM_clean_sbu_0, # of connection points: 4
#     Node 15, Type 0, BuildingBlock: NAHDIM_clean_sbu_0, # of connection points: 4
#     Edge 16, Type (0, 0), BuildingBlock: AJUNOK_clean_linker_0, # of connection points: 2
#     Edge 17, Type (0, 0), BuildingBlock: AJUNOK_clean_linker_0, # of connection points: 2
#     Edge 18, Type (0, 0), BuildingBlock: AJUNOK_clean_linker_0, # of connection points: 2
#     Edge 19, Type (0, 0), BuildingBlock: AJUNOK_clean_linker_0, # of connection points: 2
#     Edge 20, Type (0, 0), BuildingBlock: AJUNOK_clean_linker_0, # of connection points: 2
#     Edge 21, Type (0, 0), BuildingBlock: AJUNOK_clean_linker_0, # of connection points: 2
#     Edge 22, Type (0, 0), BuildingBlock: AJUNOK_clean_linker_0, # of connection points: 2
#     Edge 23, Type (0, 0), BuildingBlock: AJUNOK_clean_linker_0, # of connection points: 2
#     Edge 24, Type (0, 0), BuildingBlock: AJUNOK_clean_linker_0, # of connection points: 2
#     Edge 25, Type (0, 0), BuildingBlock: AJUNOK_clean_linker_0, # of connection points: 2
#     Edge 26, Type (0, 0), BuildingBlock: AJUNOK_clean_linker_0, # of connection points: 2
#     Edge 27, Type (0, 0), BuildingBlock: AJUNOK_clean_linker_0, # of connection points: 2
#     Edge 28, Type (0, 0), BuildingBlock: AJUNOK_clean_linker_0, # of connection points: 2
#     Edge 29, Type (0, 0), BuildingBlock: AJUNOK_clean_linker_0, # of connection points: 2
#     Edge 30, Type (0, 0), BuildingBlock: AJUNOK_clean_linker_0, # of connection points: 2
#     Edge 31, Type (0, 0), BuildingBlock: AJUNOK_clean_linker_0, # of connection points: 2
#     Edge 32, Type (0, 0), BuildingBlock: AJUNOK_clean_linker_0, # of connection points: 2
#     Edge 33, Type (0, 0), BuildingBlock: AJUNOK_clean_linker_0, # of connection points: 2
#     Edge 34, Type (0, 0), BuildingBlock: AJUNOK_clean_linker_0, # of connection points: 2
#     Edge 35, Type (0, 0), BuildingBlock: AJUNOK_clean_linker_0, # of connection points: 2
#     Edge 36, Type (0, 0), BuildingBlock: AJUNOK_clean_linker_0, # of connection points: 2
#     Edge 37, Type (0, 0), BuildingBlock: AJUNOK_clean_linker_0, # of connection points: 2
#     Edge 38, Type (0, 0), BuildingBlock: AJUNOK_clean_linker_0, # of connection points: 2
#     Edge 39, Type (0, 0), BuildingBlock: AJUNOK_clean_linker_0, # of connection points: 2
#     Edge 40, Type (0, 0), BuildingBlock: AJUNOK_clean_linker_0, # of connection points: 2
#     Edge 41, Type (0, 0), BuildingBlock: AJUNOK_clean_linker_0, # of connection points: 2
#     Edge 42, Type (0, 0), BuildingBlock: AJUNOK_clean_linker_0, # of connection points: 2
#     Edge 43, Type (0, 0), BuildingBlock: AJUNOK_clean_linker_0, # of connection points: 2
#     Edge 44, Type (0, 0), BuildingBlock: AJUNOK_clean_linker_0, # of connection points: 2
#     Edge 45, Type (0, 0), BuildingBlock: AJUNOK_clean_linker_0, # of connection points: 2
#     Edge 46, Type (0, 0), BuildingBlock: AJUNOK_clean_linker_0, # of connection points: 2
#     Edge 47, Type (0, 0), BuildingBlock: AJUNOK_clean_linker_0, # of connection points: 2
# Relax obj value: 0.077
# Max RMSD: 0.132
# Mean RMSD: 0.132
data_MOF--net-neb--node1-NAHDIM_clean_sbu_0--edge1-AJUNOK_clean_linker_0
_symmetry_space_group_name_H-M    P1
_symmetry_Int_Tables_number       1
_symmetry_cell_setting            triclinic
loop_
_symmetry_equiv_pos_as_xyz
'x, y, z'
_cell_length_a     34.275704
_cell_length_b     16.360841
_cell_length_c     53.380875
_cell_angle_alpha  89.903326
_cell_angle_beta   94.626044
_cell_angle_gamma 90.03767
loop_
_atom_site_label
_atom_site_type_symbol
_atom_site_fract_x
_atom_site_fract_y
_atom_site_fract_z
_atom_type_partial_charge
C0 C 0.06345 0.08407 0.47562 0.0
O1 O 0.09351 0.03736 0.47175 0.0
O2 O 0.15184 0.2248 0.46425 0.0
Zn3 Zn 0.10422 0.18482 0.44336 0.0
O4 O 0.11435 0.08714 0.42175 0.0
C5 C 0.11269 0.29016 0.40356 0.0
O6 O 0.1447 0.24596 0.40453 0.0
O7 O 0.06131 0.15436 0.46539 0.0
C8 C 0.14616 0.05978 0.41432 0.0
O9 O 0.17942 0.09525 0.42186 0.0
C10 C 0.17795 0.18245 0.47645 0.0
O11 O 0.1753 0.10235 0.47614 0.0
O12 O 0.08799 0.27683 0.41963 0.0
C13 C 0.18165 0.07403 0.76938 0.0
O14 O 0.14775 0.03611 0.76707 0.0
O15 O 0.09187 0.17661 0.77825 0.0
Zn16 Zn 0.13836 0.15782 0.80303 0.0
O17 O 0.13025 0.06074 0.82466 0.0
C18 C 0.15045 0.32618 0.82169 0.0
O19 O 0.15225 0.34765 0.79808 0.0
O20 O 0.18569 0.13434 0.78436 0.0
C21 C 0.10181 0.05362 0.83836 0.0
O22 O 0.0741 0.10919 0.83708 0.0
C23 C 0.06338 0.22238 0.78279 0.0
O24 O 0.06369 0.25847 0.80477 0.0
O25 O 0.14603 0.25139 0.82702 0.0
C26 C 0.93432 0.96653 0.53092 0.0
O27 O 0.9033 0.0131 0.53209 0.0
O28 O 0.84547 0.82015 0.53245 0.0
Zn29 Zn 0.88793 0.85649 0.55821 0.0
O30 O 0.86889 0.94588 0.5801 0.0
C31 C 0.9019 0.68792 0.57285 0.0
O32 O 0.89403 0.67353 0.54877 0.0
O33 O 0.93445 0.89601 0.54095 0.0
C34 C 0.85661 0.9295 0.60141 0.0
O35 O 0.85501 0.85291 0.60866 0.0
C36 C 0.81228 0.79805 0.53907 0.0
O37 O 0.8053 0.80332 0.56285 0.0
O38 O 0.9028 0.76128 0.58055 0.0
C39 C 0.81443 0.93941 0.21909 0.0
O40 O 0.84562 0.98523 0.21739 0.0
O41 O 0.9041 0.79353 0.21398 0.0
Zn42 Zn 0.8587 0.83035 0.1904 0.0
O43 O 0.87537 0.92054 0.16807 0.0
C44 C 0.84483 0.66278 0.17589 0.0
O45 O 0.85379 0.6492 0.19993 0.0
O46 O 0.81357 0.86876 0.20919 0.0
C47 C 0.89162 0.90428 0.14809 0.0
O48 O 0.89792 0.82767 0.1423 0.0
C49 C 0.93581 0.83379 0.21715 0.0
O50 O 0.93851 0.90444 0.20571 0.0
O51 O 0.84294 0.73599 0.16799 0.0
C52 C 0.05684 0.55384 0.97115 0.0
O53 O 0.09105 0.51761 0.97467 0.0
O54 O 0.14353 0.67989 0.96674 0.0
Zn55 Zn 0.10071 0.65301 0.93984 0.0
O56 O 0.1171 0.56375 0.91669 0.0
C57 C 0.11463 0.8053 0.91628 0.0
O58 O 0.1492 0.7932 0.92814 0.0
O59 O 0.05346 0.61519 0.95652 0.0
C60 C 0.13287 0.57925 0.89642 0.0
O61 O 0.14004 0.65551 0.89066 0.0
C62 C 0.17931 0.662 0.96515 0.0
O63 O 0.18924 0.62099 0.94551 0.0
O64 O 0.08753 0.75378 0.91899 0.0
C65 C 0.18603 0.58906 0.26946 0.0
O66 O 0.15198 0.55184 0.26858 0.0
O67 O 0.10079 0.72225 0.27983 0.0
Zn68 Zn 0.14578 0.68198 0.30325 0.0
O69 O 0.132 0.58043 0.32191 0.0
C70 C 0.13167 0.8123 0.33584 0.0
O71 O 0.09631 0.79847 0.32533 0.0
O72 O 0.19116 0.65192 0.28333 0.0
C73 C 0.1072 0.574 0.33826 0.0
O74 O 0.08644 0.63805 0.34368 0.0
C75 C 0.06883 0.68408 0.27491 0.0
O76 O 0.06475 0.61061 0.28431 0.0
O77 O 0.15997 0.77008 0.32887 0.0
C78 C 0.92757 0.43137 0.02534 0.0
O79 O 0.89236 0.4635 0.02272 0.0
O80 O 0.84437 0.29818 0.03545 0.0
Zn81 Zn 0.88941 0.3328 0.05976 0.0
O82 O 0.87328 0.42214 0.08273 0.0
C83 C 0.90319 0.16396 0.07515 0.0
O84 O 0.89234 0.14692 0.05157 0.0
O85 O 0.93386 0.37232 0.04062 0.0
C86 C 0.85927 0.40305 0.10332 0.0
O87 O 0.85359 0.3256 0.10839 0.0
C88 C 0.80889 0.30824 0.04006 0.0
O89 O 0.80121 0.34359 0.06115 0.0
O90 O 0.906 0.23814 0.08189 0.0
C91 C 0.81737 0.46123 0.72064 0.0
O92 O 0.85022 0.50263 0.72066 0.0
O93 O 0.90499 0.33035 0.71441 0.0
Zn94 Zn 0.85965 0.35855 0.68963 0.0
O95 O 0.87531 0.44826 0.66666 0.0
C96 C 0.84341 0.1888 0.67426 0.0
O97 O 0.84896 0.17072 0.69828 0.0
O98 O 0.81409 0.39506 0.70821 0.0
C99 C 0.891 0.42967 0.64662 0.0
O100 O 0.89847 0.35265 0.64212 0.0
C101 C 0.93321 0.28654 0.70816 0.0
O102 O 0.93244 0.25907 0.68503 0.0
O103 O 0.84505 0.26292 0.66747 0.0
C104 C 0.55811 0.07034 0.97284 0.0
O105 O 0.58968 0.02483 0.9728 0.0
O106 O 0.64971 0.19794 0.97083 0.0
Zn107 Zn 0.60631 0.16866 0.94484 0.0
O108 O 0.61898 0.07159 0.92435 0.0
C109 C 0.5996 0.33636 0.9278 0.0
O110 O 0.60535 0.35266 0.95191 0.0
O111 O 0.55788 0.13955 0.96193 0.0
C112 C 0.63661 0.07608 0.90436 0.0
O113 O 0.65135 0.14627 0.89774 0.0
C114 C 0.68575 0.18928 0.96755 0.0
O115 O 0.69572 0.15604 0.94663 0.0
O116 O 0.59743 0.26234 0.92077 0.0
C117 C 0.68436 0.06894 0.27108 0.0
O118 O 0.65187 0.02744 0.27286 0.0
O119 O 0.59717 0.2044 0.27884 0.0
Zn120 Zn 0.64368 0.17172 0.30233 0.0
O121 O 0.63385 0.07791 0.32578 0.0
C122 C 0.62934 0.30683 0.3322 0.0
O123 O 0.59373 0.28158 0.3253 0.0
O124 O 0.6881 0.13755 0.28219 0.0
C125 C 0.6069 0.06947 0.34064 0.0
O126 O 0.5791 0.12452 0.34081 0.0
C127 C 0.56423 0.16866 0.27572 0.0
O128 O 0.55899 0.09932 0.2874 0.0
O129 O 0.65822 0.26961 0.32398 0.0
C130 C 0.42444 0.94121 0.0215 0.0
O131 O 0.39194 0.98306 0.02264 0.0
O132 O 0.33647 0.80279 0.028 0.0
Zn133 Zn 0.38171 0.83891 0.05181 0.0
O134 O 0.3689 0.93678 0.0721 0.0
C135 C 0.39906 0.67455 0.06994 0.0
O136 O 0.3956 0.65583 0.04594 0.0
O137 O 0.42732 0.87206 0.03245 0.0
C138 C 0.35484 0.93318 0.09337 0.0
O139 O 0.34383 0.86239 0.10206 0.0
C140 C 0.30232 0.79415 0.0353 0.0
O141 O 0.2963 0.81159 0.05866 0.0
O142 O 0.39562 0.74866 0.07637 0.0
C143 C 0.31649 0.9482 0.72177 0.0
O144 O 0.35001 0.98741 0.72479 0.0
O145 O 0.40446 0.80979 0.72026 0.0
Zn146 Zn 0.36256 0.84239 0.69361 0.0
O147 O 0.38049 0.9306 0.67064 0.0
C148 C 0.37434 0.7262 0.65631 0.0
O149 O 0.40517 0.77322 0.65503 0.0
O150 O 0.31477 0.88216 0.70923 0.0
C151 C 0.3604 0.93642 0.64964 0.0
O152 O 0.32918 0.8903 0.64543 0.0
C153 C 0.4406 0.81466 0.71676 0.0
O154 O 0.45098 0.84839 0.69596 0.0
O155 O 0.35021 0.742 0.67251 0.0
C156 C 0.56816 0.56313 0.47361 0.0
O157 O 0.60144 0.52386 0.47276 0.0
O158 O 0.65542 0.69487 0.46924 0.0
Zn159 Zn 0.60999 0.66885 0.44399 0.0
O160 O 0.6212 0.57567 0.42105 0.0
C161 C 0.62492 0.81156 0.41587 0.0
O162 O 0.66067 0.79319 0.42478 0.0
O163 O 0.56423 0.63199 0.46258 0.0
C164 C 0.6421 0.57733 0.40243 0.0
O165 O 0.66092 0.64443 0.39731 0.0
C166 C 0.69039 0.6714 0.46728 0.0
O167 O 0.69803 0.62439 0.44839 0.0
O168 O 0.59665 0.76794 0.42228 0.0
C169 C 0.68745 0.56662 0.77701 0.0
O170 O 0.65535 0.52234 0.77574 0.0
O171 O 0.59707 0.68523 0.78234 0.0
Zn172 Zn 0.64204 0.66339 0.80827 0.0
O173 O 0.62921 0.57375 0.8327 0.0
C174 C 0.62589 0.81641 0.83077 0.0
O175 O 0.59133 0.80149 0.8193 0.0
O176 O 0.68893 0.63092 0.79035 0.0
C177 C 0.61359 0.59133 0.85287 0.0
O178 O 0.60421 0.66749 0.85699 0.0
C179 C 0.56166 0.668 0.78559 0.0
O180 O 0.55375 0.62876 0.80605 0.0
O181 O 0.65388 0.76707 0.82814 0.0
C182 C 0.43665 0.42561 0.52257 0.0
O183 O 0.40435 0.4689 0.52237 0.0
O184 O 0.34557 0.2996 0.5316 0.0
Zn185 Zn 0.39244 0.33317 0.55447 0.0
O186 O 0.38182 0.43473 0.57357 0.0
C187 C 0.39523 0.16947 0.57255 0.0
O188 O 0.38554 0.15547 0.54864 0.0
O189 O 0.43866 0.35879 0.53483 0.0
C190 C 0.36407 0.43704 0.59352 0.0
O191 O 0.34972 0.36911 0.6022 0.0
C192 C 0.31308 0.33725 0.53003 0.0
O193 O 0.30984 0.40536 0.54266 0.0
O194 O 0.40288 0.24235 0.5795 0.0
C195 C 0.3168 0.45701 0.21871 0.0
O196 O 0.35021 0.49687 0.22026 0.0
O197 O 0.40378 0.31578 0.21543 0.0
Zn198 Zn 0.36068 0.34933 0.18941 0.0
O199 O 0.3771 0.43833 0.16587 0.0
C200 C 0.3724 0.19846 0.16473 0.0
O201 O 0.40774 0.20994 0.17553 0.0
O202 O 0.3143 0.39022 0.20655 0.0
C203 C 0.39505 0.42211 0.14651 0.0
O204 O 0.40604 0.34671 0.14279 0.0
C205 C 0.4396 0.33457 0.21449 0.0
O206 O 0.4495 0.38519 0.19696 0.0
O207 O 0.34553 0.24952 0.16842 0.0
C208 C 0.27898 0.21694 0.50932 0.0
C209 C 0.2785 0.30033 0.51584 0.0
C210 C 0.24623 0.1792 0.49687 0.0
C211 C 0.21184 0.22351 0.49013 0.0
H212 H 0.30469 0.17993 0.51418 0.0
H213 H 0.24809 0.1149 0.4923 0.0
S214 S 0.19545 0.44367 0.50268 0.0
N215 N 0.24064 0.42615 0.51455 0.0
N216 N 0.17922 0.35558 0.49096 0.0
C217 C 0.211 0.30712 0.49639 0.0
C218 C 0.24426 0.34537 0.50929 0.0
C219 C 0.96694 0.07297 0.50602 0.0
C220 C 0.96824 0.9956 0.51765 0.0
C221 C 0.998 0.10142 0.49281 0.0
C222 C 0.03172 0.05372 0.49064 0.0
H223 H 0.94158 0.11199 0.50689 0.0
H224 H 0.99526 0.16107 0.48401 0.0
S225 S 0.05053 0.8476 0.51844 0.0
N226 N 0.00671 0.87245 0.52667 0.0
N227 N 0.06496 0.92575 0.50193 0.0
C228 C 0.0337 0.97664 0.50251 0.0
C229 C 0.00205 0.94765 0.51597 0.0
C230 C 0.28537 0.04447 0.75064 0.0
C231 C 0.28141 0.98057 0.73298 0.0
C232 C 0.25293 0.07523 0.76196 0.0
C233 C 0.21513 0.04347 0.75606 0.0
H234 H 0.31388 0.07043 0.75608 0.0
H235 H 0.25771 0.12349 0.77572 0.0
S236 S 0.18839 0.87983 0.70959 0.0
N237 N 0.23627 0.88929 0.70919 0.0
N238 N 0.17537 0.94708 0.73035 0.0
C239 C 0.21059 0.98083 0.73798 0.0
C240 C 0.24366 0.94937 0.72649 0.0
C241 C 0.99863 0.28519 0.76908 0.0
C242 C 0.03046 0.2362 0.76342 0.0
C243 C 0.96738 0.3006 0.75116 0.0
C244 C 0.96659 0.2678 0.72676 0.0
H245 H 0.99774 0.31229 0.78753 0.0
H246 H 0.94373 0.33898 0.75654 0.0
S247 S 0.04263 0.13459 0.70232 0.0
N248 N 0.05913 0.15419 0.73159 0.0
N249 N 0.00045 0.18317 0.69793 0.0
C250 C 0.99814 0.21825 0.72083 0.0
C251 C 0.03002 0.20244 0.73913 0.0
C252 C 0.74262 0.76336 0.52599 0.0
C253 C 0.78203 0.765 0.52041 0.0
C254 C 0.7133 0.73264 0.50875 0.0
C255 C 0.72227 0.70111 0.48538 0.0
H256 H 0.7342 0.78689 0.54373 0.0
H257 H 0.68334 0.73341 0.51385 0.0
S258 S 0.82117 0.6894 0.46187 0.0
N259 N 0.82863 0.73132 0.48995 0.0
N260 N 0.77359 0.67278 0.45765 0.0
C261 C 0.76165 0.70136 0.47967 0.0
C262 C 0.79148 0.73361 0.49713 0.0
C263 C 0.75205 0.07823 0.25666 0.0
C264 C 0.71663 0.03494 0.25726 0.0
C265 C 0.78335 0.04681 0.24431 0.0
C266 C 0.78065 0.97065 0.23204 0.0
H267 H 0.75585 0.13689 0.26591 0.0
H268 H 0.80994 0.08268 0.24451 0.0
S269 S 0.69398 0.83335 0.22749 0.0
N270 N 0.68051 0.91205 0.24404 0.0
N271 N 0.73925 0.85313 0.22093 0.0
C272 C 0.74531 0.92681 0.23233 0.0
C273 C 0.71337 0.95889 0.24489 0.0
C274 C 0.96844 0.71703 0.24083 0.0
C275 C 0.97 0.79828 0.23221 0.0
C276 C 0.00058 0.68065 0.25438 0.0
C277 C 0.03569 0.72392 0.25995 0.0
H278 H 0.94225 0.68063 0.23694 0.0
H279 H 0.99774 0.61795 0.26052 0.0
S280 S 0.05476 0.93933 0.24227 0.0
N281 N 0.0095 0.92157 0.23062 0.0
N282 N 0.06986 0.85341 0.25607 0.0
C283 C 0.03764 0.80549 0.25156 0.0
C284 C 0.00485 0.84256 0.23773 0.0
C285 C 0.27921 0.71918 0.99611 0.0
C286 C 0.27028 0.76101 0.01792 0.0
C287 C 0.24966 0.68606 0.97949 0.0
C288 C 0.20989 0.69405 0.98387 0.0
H289 H 0.30935 0.7113 0.99184 0.0
H290 H 0.25819 0.65476 0.96293 0.0
S291 S 0.17083 0.7991 0.03823 0.0
N292 N 0.21876 0.80901 0.04303 0.0
N293 N 0.16317 0.74726 0.01179 0.0
C294 C 0.20052 0.73574 0.00567 0.0
C295 C 0.23069 0.76905 0.02269 0.0
C296 C 0.02824 0.45825 0.00139 0.0
C297 C 0.02307 0.52384 0.98436 0.0
C298 C 0.99723 0.42884 0.01442 0.0
C299 C 0.95963 0.46367 0.01098 0.0
H300 H 0.05656 0.42925 0.00486 0.0
H301 H 0.00296 0.3784 0.02736 0.0
S302 S 0.93023 0.63612 0.96815 0.0
N303 N 0.97712 0.62235 0.96451 0.0
N304 N 0.91888 0.56712 0.98895 0.0
C305 C 0.95391 0.52907 0.99387 0.0
C306 C 0.98557 0.55911 0.98059 0.0
C307 C 0.28742 0.5587 0.24677 0.0
C308 C 0.2827 0.48994 0.23097 0.0
C309 C 0.25599 0.59084 0.25883 0.0
C310 C 0.21843 0.5557 0.25561 0.0
H311 H 0.31575 0.58782 0.25007 0.0
H312 H 0.26138 0.64326 0.27099 0.0
S313 S 0.18991 0.37695 0.21528 0.0
N314 N 0.23705 0.38918 0.21215 0.0
N315 N 0.17806 0.44946 0.23473 0.0
C316 C 0.21311 0.48758 0.23956 0.0
C317 C 0.24518 0.45475 0.2273 0.0
C318 C 0.75597 0.20305 0.98375 0.0
C319 C 0.71628 0.21926 0.98663 0.0
C320 C 0.78558 0.23214 0.00107 0.0
C321 C 0.77677 0.27874 0.02203 0.0
H322 H 0.76441 0.16755 0.96795 0.0
H323 H 0.81564 0.21766 0.99796 0.0
S324 S 0.67742 0.33986 0.03805 0.0
N325 N 0.66971 0.28596 0.01203 0.0
N326 N 0.7253 0.3406 0.04454 0.0
C327 C 0.73718 0.29551 0.02518 0.0
C328 C 0.70697 0.2658 0.00752 0.0
C329 C 0.72006 0.4667 0.75006 0.0
C330 C 0.72113 0.54185 0.76289 0.0
C331 C 0.75119 0.44146 0.73647 0.0
C332 C 0.78479 0.49027 0.73509 0.0
H333 H 0.69498 0.42656 0.75051 0.0
H334 H 0.74883 0.38289 0.72703 0.0
S335 S 0.80197 0.69373 0.76482 0.0
N336 N 0.75852 0.66569 0.77301 0.0
N337 N 0.81697 0.61835 0.74748 0.0
C338 C 0.78624 0.56586 0.74773 0.0
C339 C 0.75448 0.59159 0.76161 0.0
C340 C 0.52438 0.96127 0.99596 0.0
C341 C 0.5234 0.03971 0.985 0.0
C342 C 0.49225 0.92989 0.00749 0.0
C343 C 0.45765 0.97552 0.00858 0.0
H344 H 0.55023 0.92333 0.99568 0.0
H345 H 0.49471 0.86931 0.01567 0.0
S346 S 0.43981 0.18458 0.98272 0.0
N347 N 0.48474 0.16248 0.97597 0.0
N348 N 0.42437 0.10375 0.9976 0.0
C349 C 0.45616 0.0541 0.99763 0.0
C350 C 0.48897 0.0861 0.98588 0.0
C351 C 0.50946 0.31834 0.23119 0.0
C352 C 0.4703 0.29252 0.23101 0.0
C353 C 0.53946 0.27754 0.24555 0.0
C354 C 0.53169 0.20867 0.26022 0.0
H355 H 0.51719 0.37054 0.2201 0.0
H356 H 0.56907 0.30026 0.24499 0.0
S357 S 0.434 0.11601 0.26645 0.0
N358 N 0.42527 0.1935 0.24698 0.0
N359 N 0.48169 0.11678 0.27385 0.0
C360 C 0.49264 0.18208 0.26028 0.0
C361 C 0.46197 0.22403 0.24576 0.0
C362 C 0.51027 0.78002 0.72999 0.0
C363 C 0.47057 0.77719 0.73489 0.0
C364 C 0.53924 0.7432 0.74622 0.0
C365 C 0.52982 0.70177 0.76807 0.0
H366 H 0.51925 0.8109 0.71343 0.0
H367 H 0.56935 0.74781 0.74157 0.0
S368 S 0.43012 0.67625 0.7896 0.0
N369 N 0.42327 0.72916 0.76327 0.0
N370 N 0.47771 0.65991 0.79374 0.0
C371 C 0.49019 0.69797 0.77318 0.0
C372 C 0.46062 0.73575 0.75665 0.0
C373 C 0.467 0.53161 0.49643 0.0
C374 C 0.47059 0.45748 0.50988 0.0
C375 C 0.49865 0.5653 0.48494 0.0
C376 C 0.53535 0.52636 0.48636 0.0
H377 H 0.43948 0.56447 0.49478 0.0
H378 H 0.49416 0.62238 0.47481 0.0
S379 S 0.56052 0.33105 0.5195 0.0
N380 N 0.51402 0.34617 0.52403 0.0
N381 N 0.57351 0.4093 0.50248 0.0
C382 C 0.53943 0.45203 0.49973 0.0
C383 C 0.5071 0.41766 0.51145 0.0
C384 C 0.10417 0.90489 0.36685 0.0
C385 C 0.13728 0.8735 0.35626 0.0
C386 C 0.10766 0.96331 0.38593 0.0
C387 C 0.14443 0.99367 0.39524 0.0
H388 H 0.07504 0.88432 0.3604 0.0
H389 H 0.081 0.98552 0.39316 0.0
S390 S 0.24061 0.93024 0.37428 0.0
N391 N 0.20832 0.87569 0.3568 0.0
N392 N 0.21496 0.98643 0.39269 0.0
C393 C 0.17799 0.96209 0.38509 0.0
C394 C 0.1744 0.90186 0.36562 0.0
C395 C 0.08468 0.42616 0.39015 0.0
C396 C 0.10747 0.35761 0.38514 0.0
C397 C 0.08351 0.49488 0.37434 0.0
C398 C 0.10491 0.49723 0.35289 0.0
H399 H 0.06894 0.42823 0.40694 0.0
H400 H 0.06677 0.54746 0.37951 0.0
S401 S 0.16428 0.32777 0.32952 0.0
N402 N 0.14852 0.29254 0.35587 0.0
N403 N 0.14613 0.42087 0.3261 0.0
C404 C 0.12588 0.42687 0.3469 0.0
C405 C 0.12723 0.3573 0.36305 0.0
C406 C 0.15289 0.47218 0.83574 0.0
C407 C 0.14931 0.38889 0.8417 0.0
C408 C 0.14865 0.53299 0.85377 0.0
C409 C 0.14041 0.51311 0.87848 0.0
H410 H 0.15825 0.49093 0.81686 0.0
H411 H 0.15085 0.59624 0.84801 0.0
S412 S 0.13126 0.30394 0.90443 0.0
N413 N 0.13937 0.28953 0.87471 0.0
N414 N 0.13123 0.40392 0.90842 0.0
C415 C 0.13805 0.43003 0.88497 0.0
C416 C 0.14257 0.36797 0.86666 0.0
C417 C 0.143 0.89819 0.88575 0.0
C418 C 0.10978 0.86976 0.8969 0.0
C419 C 0.1398 0.95631 0.86653 0.0
C420 C 0.10332 0.98954 0.85794 0.0
H421 H 0.17181 0.87446 0.8916 0.0
H422 H 0.16637 0.97615 0.85863 0.0
S423 S 0.00732 0.93643 0.88112 0.0
N424 N 0.03912 0.87881 0.89801 0.0
N425 N 0.03316 0.99011 0.86209 0.0
C426 C 0.06979 0.96231 0.86904 0.0
C427 C 0.073 0.90181 0.88843 0.0
C428 C 0.8438 0.0409 0.66242 0.0
C429 C 0.84141 0.12337 0.65497 0.0
C430 C 0.84708 0.97842 0.64481 0.0
C431 C 0.84839 0.9959 0.61906 0.0
H432 H 0.8444 0.02437 0.6821 0.0
H433 H 0.85011 0.91619 0.65164 0.0
S434 S 0.83855 0.20082 0.58928 0.0
N435 N 0.83691 0.21842 0.6196 0.0
N436 N 0.84357 0.10096 0.58667 0.0
C437 C 0.84407 0.07763 0.61116 0.0
C438 C 0.84042 0.14131 0.62906 0.0
C439 C 0.89816 0.57615 0.63482 0.0
C440 C 0.89782 0.49345 0.62777 0.0
C441 C 0.90128 0.63827 0.61706 0.0
C442 C 0.9037 0.62032 0.59143 0.0
H443 H 0.89534 0.59332 0.65419 0.0
H444 H 0.90045 0.70097 0.62347 0.0
S445 S 0.90643 0.41308 0.5634 0.0
N446 N 0.90223 0.39642 0.59357 0.0
N447 N 0.90772 0.51337 0.56012 0.0
C448 C 0.90475 0.53773 0.58422 0.0
C449 C 0.90193 0.47427 0.6024 0.0
C450 C 0.85026 0.54959 0.11442 0.0
C451 C 0.85145 0.4671 0.12183 0.0
C452 C 0.84619 0.61208 0.13187 0.0
C453 C 0.84358 0.59473 0.15754 0.0
H454 H 0.85322 0.56638 0.09502 0.0
H455 H 0.84654 0.67463 0.12523 0.0
S456 S 0.84228 0.38825 0.18641 0.0
N457 N 0.84728 0.3709 0.15639 0.0
N458 N 0.83994 0.48855 0.18924 0.0
C459 C 0.84319 0.51233 0.16508 0.0
C460 C 0.84703 0.44848 0.14723 0.0
C461 C 0.90024 0.95306 0.10454 0.0
C462 C 0.89962 0.97035 0.13031 0.0
C463 C 0.90307 0.01586 0.0869 0.0
C464 C 0.90592 0.09822 0.09439 0.0
H465 H 0.89681 0.89087 0.09778 0.0
H466 H 0.90184 -0.00028 0.06718 0.0
S467 S 0.91086 0.17444 0.1602 0.0
N468 N 0.9056 0.07458 0.16277 0.0
N469 N 0.91175 0.19263 0.12983 0.0
C470 C 0.9078 0.11574 0.12034 0.0
C471 C 0.90437 0.05182 0.13823 0.0
C472 C 0.66166 0.93375 0.85193 0.0
C473 C 0.62965 0.87989 0.85023 0.0
C474 C 0.66412 -0.00313 0.86978 0.0
C475 C 0.63529 0.0061 0.88692 0.0
H476 H 0.68426 0.9285 0.83896 0.0
H477 H 0.68862 0.03881 0.87012 0.0
S478 S 0.54717 0.87604 0.8911 0.0
N479 N 0.56944 0.83731 0.86755 0.0
N480 N 0.57459 0.95363 0.90157 0.0
C481 C 0.60392 0.95038 0.8859 0.0
C482 C 0.60096 0.88781 0.86739 0.0
C483 C 0.60743 0.38314 0.88386 0.0
C484 C 0.60014 0.40241 0.90877 0.0
C485 C 0.61127 0.44446 0.86587 0.0
C486 C 0.60751 0.52751 0.87195 0.0
H487 H 0.61126 0.32023 0.87829 0.0
H488 H 0.61756 0.42643 0.84709 0.0
S489 S 0.58601 0.61037 0.93418 0.0
N490 N 0.58771 0.5104 0.93833 0.0
N491 N 0.59451 0.6257 0.90454 0.0
C492 C 0.59905 0.5476 0.89662 0.0
C493 C 0.59551 0.48507 0.91501 0.0
C494 C 0.60579 0.38893 0.36696 0.0
C495 C 0.63492 0.37432 0.35044 0.0
C496 C 0.6091 0.4533 0.38414 0.0
C497 C 0.64134 0.5067 0.38519 0.0
H498 H 0.58011 0.3502 0.3667 0.0
H499 H 0.5856 0.46235 0.39626 0.0
S500 S 0.72621 0.4937 0.34641 0.0
N501 N 0.69773 0.41675 0.33662 0.0
N502 N 0.7036 0.53954 0.36868 0.0
C503 C 0.67098 0.49242 0.36897 0.0
C504 C 0.6679 0.42568 0.35168 0.0
C505 C 0.6502 0.90178 0.38326 0.0
C506 C 0.61868 0.87711 0.39681 0.0
C507 C 0.6457 0.96254 0.36482 0.0
C508 C 0.60962 0.00225 0.35935 0.0
H509 H 0.67869 0.87347 0.38673 0.0
H510 H 0.67107 0.97936 0.35508 0.0
S511 S 0.51766 0.96001 0.38935 0.0
N512 N 0.54987 0.89624 0.40331 0.0
N513 N 0.5415 0.01184 0.36882 0.0
C514 C 0.57771 0.97818 0.3727 0.0
C515 C 0.58221 0.91525 0.39134 0.0
C516 C 0.33464 0.08017 0.1457 0.0
C517 C 0.36618 0.13487 0.14543 0.0
C518 C 0.33059 0.01542 0.12844 0.0
C519 C 0.35724 0.00539 0.10994 0.0
H520 H 0.31385 0.08573 0.15985 0.0
H521 H 0.30669 0.97264 0.12969 0.0
S522 S 0.44321 0.13688 0.10051 0.0
N523 N 0.4236 0.17714 0.12488 0.0
N524 N 0.41528 0.05799 0.09187 0.0
C525 C 0.38795 0.06207 0.10894 0.0
C526 C 0.39262 0.12623 0.12687 0.0
C527 C 0.39301 0.56831 0.13275 0.0
C528 C 0.40012 0.48591 0.12726 0.0
C529 C 0.39418 0.62905 0.11432 0.0
C530 C 0.40212 0.60984 0.08951 0.0
H531 H 0.38576 0.58612 0.15136 0.0
H532 H 0.38758 0.69124 0.11945 0.0
S533 S 0.42543 0.40396 0.0657 0.0
N534 N 0.41758 0.38878 0.09545 0.0
N535 N 0.41943 0.50296 0.0608 0.0
C536 C 0.41057 0.52809 0.08393 0.0
C537 C 0.40971 0.46616 0.10279 0.0
C538 C 0.34942 0.58511 0.64671 0.0
C539 C 0.3684 0.65604 0.63912 0.0
C540 C 0.34704 0.51518 0.6315 0.0
C541 C 0.36318 0.51413 0.60804 0.0
H542 H 0.33762 0.58253 0.66492 0.0
H543 H 0.33334 0.46101 0.63851 0.0
S544 S 0.41102 0.68925 0.57821 0.0
N545 N 0.40026 0.72416 0.6058 0.0
N546 N 0.39543 0.59379 0.57701 0.0
C547 C 0.38032 0.58658 0.5997 0.0
C548 C 0.38305 0.65724 0.6153 0.0
C549 C 0.40019 0.12156 0.61733 0.0
C550 C 0.39075 0.10477 0.59165 0.0
C551 C 0.39149 0.06565 0.63604 0.0
C552 C 0.3725 0.99152 0.62976 0.0
H553 H 0.41348 0.17929 0.62313 0.0
H554 H 0.39836 0.08196 0.65556 0.0
S555 S 0.34582 0.91307 0.56549 0.0
N556 N 0.36467 0.00431 0.56104 0.0
N557 N 0.34787 0.90034 0.59624 0.0
C558 C 0.3645 0.97215 0.60423 0.0
C559 C 0.3738 0.02843 0.58516 0.0
loop_
_geom_bond_atom_site_label_1
_geom_bond_atom_site_label_2
_geom_bond_distance
_geom_bond_site_symmetry_2
_ccdc_geom_bond_type
C0 O1 1.160 . S
C0 O7 1.185 . S
O1 C0 1.160 . S
O2 Zn3 1.899 . S
O2 C10 1.284 . S
Zn3 O2 1.899 . S
Zn3 O4 2.032 . S
Zn3 O7 2.086 . S
Zn3 O12 1.977 . S
O4 Zn3 2.032 . S
O4 C8 1.278 . S
C5 O6 1.203 . S
C5 O12 1.267 . S
O6 C5 1.203 . S
O7 C0 1.185 . S
O7 Zn3 2.086 . S
C8 O4 1.278 . S
C8 O9 1.211 . S
O9 C8 1.211 . S
C10 O2 1.284 . S
C10 O11 1.273 . S
O11 C10 1.273 . S
O12 Zn3 1.977 . S
O12 C5 1.267 . S
C13 O14 1.160 . S
C13 O20 1.185 . S
O14 C13 1.160 . S
O15 Zn16 1.899 . S
O15 C23 1.284 . S
Zn16 O15 1.899 . S
Zn16 O17 2.032 . S
Zn16 O20 2.086 . S
Zn16 O25 1.977 . S
O17 Zn16 2.032 . S
O17 C21 1.278 . S
C18 O19 1.203 . S
C18 O25 1.267 . S
O19 C18 1.203 . S
O20 C13 1.185 . S
O20 Zn16 2.086 . S
C21 O17 1.278 . S
C21 O22 1.211 . S
O22 C21 1.211 . S
C23 O15 1.284 . S
C23 O24 1.273 . S
O24 C23 1.273 . S
O25 Zn16 1.977 . S
O25 C18 1.267 . S
C26 O27 1.160 . S
C26 O33 1.185 . S
O27 C26 1.160 . S
O28 Zn29 1.899 . S
O28 C36 1.284 . S
Zn29 O28 1.899 . S
Zn29 O30 2.032 . S
Zn29 O33 2.086 . S
Zn29 O38 1.977 . S
O30 Zn29 2.032 . S
O30 C34 1.278 . S
C31 O32 1.203 . S
C31 O38 1.267 . S
O32 C31 1.203 . S
O33 C26 1.185 . S
O33 Zn29 2.086 . S
C34 O30 1.278 . S
C34 O35 1.211 . S
O35 C34 1.211 . S
C36 O28 1.284 . S
C36 O37 1.273 . S
O37 C36 1.273 . S
O38 Zn29 1.977 . S
O38 C31 1.267 . S
C39 O40 1.160 . S
C39 O46 1.185 . S
O40 C39 1.160 . S
O41 Zn42 1.899 . S
O41 C49 1.284 . S
Zn42 O41 1.899 . S
Zn42 O43 2.032 . S
Zn42 O46 2.086 . S
Zn42 O51 1.977 . S
O43 Zn42 2.032 . S
O43 C47 1.278 . S
C44 O45 1.203 . S
C44 O51 1.267 . S
O45 C44 1.203 . S
O46 C39 1.185 . S
O46 Zn42 2.086 . S
C47 O43 1.278 . S
C47 O48 1.211 . S
O48 C47 1.211 . S
C49 O41 1.284 . S
C49 O50 1.273 . S
O50 C49 1.273 . S
O51 Zn42 1.977 . S
O51 C44 1.267 . S
C52 O53 1.160 . S
C52 O59 1.185 . S
O53 C52 1.160 . S
O54 Zn55 1.899 . S
O54 C62 1.284 . S
Zn55 O54 1.899 . S
Zn55 O56 2.032 . S
Zn55 O59 2.086 . S
Zn55 O64 1.977 . S
O56 Zn55 2.032 . S
O56 C60 1.278 . S
C57 O58 1.203 . S
C57 O64 1.267 . S
O58 C57 1.203 . S
O59 C52 1.185 . S
O59 Zn55 2.086 . S
C60 O56 1.278 . S
C60 O61 1.211 . S
O61 C60 1.211 . S
C62 O54 1.284 . S
C62 O63 1.273 . S
O63 C62 1.273 . S
O64 Zn55 1.977 . S
O64 C57 1.267 . S
C65 O66 1.160 . S
C65 O72 1.185 . S
O66 C65 1.160 . S
O67 Zn68 1.899 . S
O67 C75 1.284 . S
Zn68 O67 1.899 . S
Zn68 O69 2.032 . S
Zn68 O72 2.086 . S
Zn68 O77 1.977 . S
O69 Zn68 2.032 . S
O69 C73 1.278 . S
C70 O71 1.203 . S
C70 O77 1.267 . S
O71 C70 1.203 . S
O72 C65 1.185 . S
O72 Zn68 2.086 . S
C73 O69 1.278 . S
C73 O74 1.211 . S
O74 C73 1.211 . S
C75 O67 1.284 . S
C75 O76 1.273 . S
O76 C75 1.273 . S
O77 Zn68 1.977 . S
O77 C70 1.267 . S
C78 O79 1.160 . S
C78 O85 1.185 . S
O79 C78 1.160 . S
O80 Zn81 1.899 . S
O80 C88 1.284 . S
Zn81 O80 1.899 . S
Zn81 O82 2.032 . S
Zn81 O85 2.086 . S
Zn81 O90 1.977 . S
O82 Zn81 2.032 . S
O82 C86 1.278 . S
C83 O84 1.203 . S
C83 O90 1.267 . S
O84 C83 1.203 . S
O85 C78 1.185 . S
O85 Zn81 2.086 . S
C86 O82 1.278 . S
C86 O87 1.211 . S
O87 C86 1.211 . S
C88 O80 1.284 . S
C88 O89 1.273 . S
O89 C88 1.273 . S
O90 Zn81 1.977 . S
O90 C83 1.267 . S
C91 O92 1.160 . S
C91 O98 1.185 . S
O92 C91 1.160 . S
O93 Zn94 1.899 . S
O93 C101 1.284 . S
Zn94 O93 1.899 . S
Zn94 O95 2.032 . S
Zn94 O98 2.086 . S
Zn94 O103 1.977 . S
O95 Zn94 2.032 . S
O95 C99 1.278 . S
C96 O97 1.203 . S
C96 O103 1.267 . S
O97 C96 1.203 . S
O98 C91 1.185 . S
O98 Zn94 2.086 . S
C99 O95 1.278 . S
C99 O100 1.211 . S
O100 C99 1.211 . S
C101 O93 1.284 . S
C101 O102 1.273 . S
O102 C101 1.273 . S
O103 Zn94 1.977 . S
O103 C96 1.267 . S
C104 O105 1.160 . S
C104 O111 1.185 . S
O105 C104 1.160 . S
O106 Zn107 1.899 . S
O106 C114 1.284 . S
Zn107 O106 1.899 . S
Zn107 O108 2.032 . S
Zn107 O111 2.086 . S
Zn107 O116 1.977 . S
O108 Zn107 2.032 . S
O108 C112 1.278 . S
C109 O110 1.203 . S
C109 O116 1.267 . S
O110 C109 1.203 . S
O111 C104 1.185 . S
O111 Zn107 2.086 . S
C112 O108 1.278 . S
C112 O113 1.211 . S
O113 C112 1.211 . S
C114 O106 1.284 . S
C114 O115 1.273 . S
O115 C114 1.273 . S
O116 Zn107 1.977 . S
O116 C109 1.267 . S
C117 O118 1.160 . S
C117 O124 1.185 . S
O118 C117 1.160 . S
O119 Zn120 1.899 . S
O119 C127 1.284 . S
Zn120 O119 1.899 . S
Zn120 O121 2.032 . S
Zn120 O124 2.086 . S
Zn120 O129 1.977 . S
O121 Zn120 2.032 . S
O121 C125 1.278 . S
C122 O123 1.203 . S
C122 O129 1.267 . S
O123 C122 1.203 . S
O124 C117 1.185 . S
O124 Zn120 2.086 . S
C125 O121 1.278 . S
C125 O126 1.211 . S
O126 C125 1.211 . S
C127 O119 1.284 . S
C127 O128 1.273 . S
O128 C127 1.273 . S
O129 Zn120 1.977 . S
O129 C122 1.267 . S
C130 O131 1.160 . S
C130 O137 1.185 . S
O131 C130 1.160 . S
O132 Zn133 1.899 . S
O132 C140 1.284 . S
Zn133 O132 1.899 . S
Zn133 O134 2.032 . S
Zn133 O137 2.086 . S
Zn133 O142 1.977 . S
O134 Zn133 2.032 . S
O134 C138 1.278 . S
C135 O136 1.203 . S
C135 O142 1.267 . S
O136 C135 1.203 . S
O137 C130 1.185 . S
O137 Zn133 2.086 . S
C138 O134 1.278 . S
C138 O139 1.211 . S
O139 C138 1.211 . S
C140 O132 1.284 . S
C140 O141 1.273 . S
O141 C140 1.273 . S
O142 Zn133 1.977 . S
O142 C135 1.267 . S
C143 O144 1.160 . S
C143 O150 1.185 . S
O144 C143 1.160 . S
O145 Zn146 1.899 . S
O145 C153 1.284 . S
Zn146 O145 1.899 . S
Zn146 O147 2.032 . S
Zn146 O150 2.086 . S
Zn146 O155 1.977 . S
O147 Zn146 2.032 . S
O147 C151 1.278 . S
C148 O149 1.203 . S
C148 O155 1.267 . S
O149 C148 1.203 . S
O150 C143 1.185 . S
O150 Zn146 2.086 . S
C151 O147 1.278 . S
C151 O152 1.211 . S
O152 C151 1.211 . S
C153 O145 1.284 . S
C153 O154 1.273 . S
O154 C153 1.273 . S
O155 Zn146 1.977 . S
O155 C148 1.267 . S
C156 O157 1.160 . S
C156 O163 1.185 . S
O157 C156 1.160 . S
O158 Zn159 1.899 . S
O158 C166 1.284 . S
Zn159 O158 1.899 . S
Zn159 O160 2.032 . S
Zn159 O163 2.086 . S
Zn159 O168 1.977 . S
O160 Zn159 2.032 . S
O160 C164 1.278 . S
C161 O162 1.203 . S
C161 O168 1.267 . S
O162 C161 1.203 . S
O163 C156 1.185 . S
O163 Zn159 2.086 . S
C164 O160 1.278 . S
C164 O165 1.211 . S
O165 C164 1.211 . S
C166 O158 1.284 . S
C166 O167 1.273 . S
O167 C166 1.273 . S
O168 Zn159 1.977 . S
O168 C161 1.267 . S
C169 O170 1.160 . S
C169 O176 1.185 . S
O170 C169 1.160 . S
O171 Zn172 1.899 . S
O171 C179 1.284 . S
Zn172 O171 1.899 . S
Zn172 O173 2.032 . S
Zn172 O176 2.086 . S
Zn172 O181 1.977 . S
O173 Zn172 2.032 . S
O173 C177 1.278 . S
C174 O175 1.203 . S
C174 O181 1.267 . S
O175 C174 1.203 . S
O176 C169 1.185 . S
O176 Zn172 2.086 . S
C177 O173 1.278 . S
C177 O178 1.211 . S
O178 C177 1.211 . S
C179 O171 1.284 . S
C179 O180 1.273 . S
O180 C179 1.273 . S
O181 Zn172 1.977 . S
O181 C174 1.267 . S
C182 O183 1.160 . S
C182 O189 1.185 . S
O183 C182 1.160 . S
O184 Zn185 1.899 . S
O184 C192 1.284 . S
Zn185 O184 1.899 . S
Zn185 O186 2.032 . S
Zn185 O189 2.086 . S
Zn185 O194 1.977 . S
O186 Zn185 2.032 . S
O186 C190 1.278 . S
C187 O188 1.203 . S
C187 O194 1.267 . S
O188 C187 1.203 . S
O189 C182 1.185 . S
O189 Zn185 2.086 . S
C190 O186 1.278 . S
C190 O191 1.211 . S
O191 C190 1.211 . S
C192 O184 1.284 . S
C192 O193 1.273 . S
O193 C192 1.273 . S
O194 Zn185 1.977 . S
O194 C187 1.267 . S
C195 O196 1.160 . S
C195 O202 1.185 . S
O196 C195 1.160 . S
O197 Zn198 1.899 . S
O197 C205 1.284 . S
Zn198 O197 1.899 . S
Zn198 O199 2.032 . S
Zn198 O202 2.086 . S
Zn198 O207 1.977 . S
O199 Zn198 2.032 . S
O199 C203 1.278 . S
C200 O201 1.203 . S
C200 O207 1.267 . S
O201 C200 1.203 . S
O202 C195 1.185 . S
O202 Zn198 2.086 . S
C203 O199 1.278 . S
C203 O204 1.211 . S
O204 C203 1.211 . S
C205 O197 1.284 . S
C205 O206 1.273 . S
O206 C205 1.273 . S
O207 Zn198 1.977 . S
O207 C200 1.267 . S
C208 C209 1.369 . S
C208 C210 1.419 . S
C208 H212 0.930 . S
C209 C208 1.369 . S
C209 C218 1.429 . S
C210 C208 1.419 . S
C210 C211 1.363 . S
C210 H213 0.929 . S
C211 C210 1.363 . S
C211 C217 1.428 . S
H212 C208 0.930 . S
H213 C210 0.929 . S
S214 N215 1.613 . S
S214 N216 1.610 . S
N215 S214 1.613 . S
N215 C218 1.350 . S
N216 S214 1.610 . S
N216 C217 1.351 . S
C217 C211 1.428 . S
C217 N216 1.351 . S
C217 C218 1.434 . S
C218 C209 1.429 . S
C218 N215 1.350 . S
C218 C217 1.434 . S
C219 C220 1.369 1_545 S
C219 C221 1.419 . S
C219 H223 0.930 . S
C220 C219 1.369 1_565 S
C220 C229 1.429 1_655 S
C221 C219 1.419 . S
C221 C222 1.363 1_655 S
C221 H224 0.929 . S
C222 C221 1.363 1_455 S
C222 C228 1.428 1_545 S
H223 C219 0.930 . S
H224 C221 0.929 . S
S225 N226 1.613 . S
S225 N227 1.610 . S
N226 S225 1.613 . S
N226 C229 1.350 . S
N227 S225 1.610 . S
N227 C228 1.351 . S
C228 C222 1.428 1_565 S
C228 N227 1.351 . S
C228 C229 1.434 . S
C229 C220 1.429 1_455 S
C229 N226 1.350 . S
C229 C228 1.434 . S
C230 C231 1.369 . S
C230 C232 1.419 . S
C230 H234 0.930 . S
C231 C230 1.369 . S
C231 C240 1.429 1_565 S
C232 C230 1.419 . S
C232 C233 1.363 1_565 S
C232 H235 0.929 . S
C233 C232 1.363 1_545 S
C233 C239 1.428 . S
H234 C230 0.930 . S
H235 C232 0.929 . S
S236 N237 1.613 . S
S236 N238 1.610 . S
N237 S236 1.613 . S
N237 C240 1.350 . S
N238 S236 1.610 . S
N238 C239 1.351 . S
C239 C233 1.428 . S
C239 N238 1.351 . S
C239 C240 1.434 . S
C240 C231 1.429 1_545 S
C240 N237 1.350 . S
C240 C239 1.434 . S
C241 C242 1.369 . S
C241 C243 1.419 1_455 S
C241 H245 0.930 . S
C242 C241 1.369 . S
C242 C251 1.429 . S
C243 C241 1.419 1_655 S
C243 C244 1.363 . S
C243 H246 0.929 . S
C244 C243 1.363 . S
C244 C250 1.428 . S
H245 C241 0.930 . S
H246 C243 0.929 . S
S247 N248 1.613 . S
S247 N249 1.610 1_455 S
N248 S247 1.613 . S
N248 C251 1.350 . S
N249 S247 1.610 1_655 S
N249 C250 1.351 . S
C250 C244 1.428 . S
C250 N249 1.351 . S
C250 C251 1.434 1_655 S
C251 C242 1.429 . S
C251 N248 1.350 . S
C251 C250 1.434 1_455 S
C252 C253 1.369 . S
C252 C254 1.419 . S
C252 H256 0.930 . S
C253 C252 1.369 . S
C253 C262 1.429 . S
C254 C252 1.419 . S
C254 C255 1.363 . S
C254 H257 0.929 . S
C255 C254 1.363 . S
C255 C261 1.428 . S
H256 C252 0.930 . S
H257 C254 0.929 . S
S258 N259 1.613 . S
S258 N260 1.610 . S
N259 S258 1.613 . S
N259 C262 1.350 . S
N260 S258 1.610 . S
N260 C261 1.351 . S
C261 C255 1.428 . S
C261 N260 1.351 . S
C261 C262 1.434 . S
C262 C253 1.429 . S
C262 N259 1.350 . S
C262 C261 1.434 . S
C263 C264 1.369 . S
C263 C265 1.419 1_545 S
C263 H267 0.930 . S
C264 C263 1.369 . S
C264 C273 1.429 1_545 S
C265 C263 1.419 1_565 S
C265 C266 1.363 . S
C265 H268 0.929 . S
C266 C265 1.363 . S
C266 C272 1.428 . S
H267 C263 0.930 . S
H268 C265 0.929 . S
S269 N270 1.613 . S
S269 N271 1.610 . S
N270 S269 1.613 . S
N270 C273 1.350 . S
N271 S269 1.610 . S
N271 C272 1.351 . S
C272 C266 1.428 . S
C272 N271 1.351 . S
C272 C273 1.434 . S
C273 C264 1.429 1_565 S
C273 N270 1.350 . S
C273 C272 1.434 . S
C274 C275 1.369 . S
C274 C276 1.419 1_655 S
C274 H278 0.930 . S
C275 C274 1.369 . S
C275 C284 1.429 . S
C276 C274 1.419 1_455 S
C276 C277 1.363 . S
C276 H279 0.929 . S
C277 C276 1.363 . S
C277 C283 1.428 . S
H278 C274 0.930 . S
H279 C276 0.929 . S
S280 N281 1.613 1_455 S
S280 N282 1.610 . S
N281 S280 1.613 1_655 S
N281 C284 1.350 . S
N282 S280 1.610 . S
N282 C283 1.351 . S
C283 C277 1.428 . S
C283 N282 1.351 . S
C283 C284 1.434 1_455 S
C284 C275 1.429 . S
C284 N281 1.350 . S
C284 C283 1.434 1_655 S
C285 C286 1.342 1_556 S
C285 C287 1.440 . S
C285 H289 0.938 . S
C286 C285 1.342 1_554 S
C286 C295 1.429 . S
C287 C285 1.440 . S
C287 C288 1.363 . S
C287 H290 0.929 . S
C288 C287 1.363 . S
C288 C294 1.428 1_556 S
H289 C285 0.938 . S
H290 C287 0.929 . S
S291 N292 1.613 . S
S291 N293 1.610 . S
N292 S291 1.613 . S
N292 C295 1.350 . S
N293 S291 1.610 . S
N293 C294 1.351 . S
C294 C288 1.428 1_554 S
C294 N293 1.351 . S
C294 C295 1.434 . S
C295 C286 1.429 . S
C295 N292 1.350 . S
C295 C294 1.434 . S
C296 C297 1.369 1_554 S
C296 C298 1.419 . S
C296 H300 0.930 . S
C297 C296 1.369 1_556 S
C297 C306 1.429 1_455 S
C298 C296 1.419 . S
C298 C299 1.363 1_455 S
C298 H301 0.929 . S
C299 C298 1.363 1_655 S
C299 C305 1.428 1_554 S
H300 C296 0.930 . S
H301 C298 0.929 . S
S302 N303 1.613 . S
S302 N304 1.610 . S
N303 S302 1.613 . S
N303 C306 1.350 . S
N304 S302 1.610 . S
N304 C305 1.351 . S
C305 C299 1.428 1_556 S
C305 N304 1.351 . S
C305 C306 1.434 . S
C306 C297 1.429 1_655 S
C306 N303 1.350 . S
C306 C305 1.434 . S
C307 C308 1.369 . S
C307 C309 1.419 . S
C307 H311 0.930 . S
C308 C307 1.369 . S
C308 C317 1.429 . S
C309 C307 1.419 . S
C309 C310 1.363 . S
C309 H312 0.929 . S
C310 C309 1.363 . S
C310 C316 1.428 . S
H311 C307 0.930 . S
H312 C309 0.929 . S
S313 N314 1.613 . S
S313 N315 1.610 . S
N314 S313 1.613 . S
N314 C317 1.350 . S
N315 S313 1.610 . S
N315 C316 1.351 . S
C316 C310 1.428 . S
C316 N315 1.351 . S
C316 C317 1.434 . S
C317 C308 1.429 . S
C317 N314 1.350 . S
C317 C316 1.434 . S
C318 C319 1.369 . S
C318 C320 1.402 1_556 S
C318 H322 0.930 . S
C319 C318 1.369 . S
C319 C328 1.449 . S
C320 C318 1.402 1_554 S
C320 C321 1.384 . S
C320 H323 0.928 . S
C321 C320 1.384 . S
C321 C327 1.428 . S
H322 C318 0.930 . S
H323 C320 0.928 . S
S324 N325 1.606 1_554 S
S324 N326 1.610 . S
N325 S324 1.606 1_556 S
N325 C328 1.348 . S
N326 S324 1.610 . S
N326 C327 1.351 . S
C327 C321 1.428 . S
C327 N326 1.351 . S
C327 C328 1.417 1_554 S
C328 C319 1.449 . S
C328 N325 1.348 . S
C328 C327 1.417 1_556 S
C329 C330 1.369 . S
C329 C331 1.419 . S
C329 H333 0.930 . S
C330 C329 1.369 . S
C330 C339 1.429 . S
C331 C329 1.419 . S
C331 C332 1.363 . S
C331 H334 0.929 . S
C332 C331 1.363 . S
C332 C338 1.428 . S
H333 C329 0.930 . S
H334 C331 0.929 . S
S335 N336 1.613 . S
S335 N337 1.610 . S
N336 S335 1.613 . S
N336 C339 1.350 . S
N337 S335 1.610 . S
N337 C338 1.351 . S
C338 C332 1.428 . S
C338 N337 1.351 . S
C338 C339 1.434 . S
C339 C330 1.429 . S
C339 N336 1.350 . S
C339 C338 1.434 . S
C340 C341 1.392 1_565 S
C340 C342 1.392 1_556 S
C340 H344 0.936 . S
C341 C340 1.392 1_545 S
C341 C350 1.429 . S
C342 C340 1.392 1_554 S
C342 C343 1.363 . S
C342 H345 0.929 . S
C343 C342 1.363 . S
C343 C349 1.448 1_565 S
H344 C340 0.936 . S
H345 C342 0.929 . S
S346 N347 1.613 . S
S346 N348 1.595 1_556 S
N347 S346 1.613 . S
N347 C350 1.350 . S
N348 S346 1.595 1_554 S
N348 C349 1.352 . S
C349 C343 1.448 1_545 S
C349 N348 1.352 . S
C349 C350 1.411 1_554 S
C350 C341 1.429 . S
C350 N347 1.350 . S
C350 C349 1.411 1_556 S
C351 C352 1.369 . S
C351 C353 1.419 . S
C351 H355 0.930 . S
C352 C351 1.369 . S
C352 C361 1.429 . S
C353 C351 1.419 . S
C353 C354 1.363 . S
C353 H356 0.929 . S
C354 C353 1.363 . S
C354 C360 1.428 . S
H355 C351 0.930 . S
H356 C353 0.929 . S
S357 N358 1.613 . S
S357 N359 1.610 . S
N358 S357 1.613 . S
N358 C361 1.350 . S
N359 S357 1.610 . S
N359 C360 1.351 . S
C360 C354 1.428 . S
C360 N359 1.351 . S
C360 C361 1.434 . S
C361 C352 1.429 . S
C361 N358 1.350 . S
C361 C360 1.434 . S
C362 C363 1.369 . S
C362 C364 1.419 . S
C362 H366 0.930 . S
C363 C362 1.369 . S
C363 C372 1.429 . S
C364 C362 1.419 . S
C364 C365 1.363 . S
C364 H367 0.929 . S
C365 C364 1.363 . S
C365 C371 1.428 . S
H366 C362 0.930 . S
H367 C364 0.929 . S
S368 N369 1.613 . S
S368 N370 1.610 . S
N369 S368 1.613 . S
N369 C372 1.350 . S
N370 S368 1.610 . S
N370 C371 1.351 . S
C371 C365 1.428 . S
C371 N370 1.351 . S
C371 C372 1.434 . S
C372 C363 1.429 . S
C372 N369 1.350 . S
C372 C371 1.434 . S
C373 C374 1.369 . S
C373 C375 1.419 . S
C373 H377 0.930 . S
C374 C373 1.369 . S
C374 C383 1.429 . S
C375 C373 1.419 . S
C375 C376 1.363 . S
C375 H378 0.929 . S
C376 C375 1.363 . S
C376 C382 1.428 . S
H377 C373 0.930 . S
H378 C375 0.929 . S
S379 N380 1.613 . S
S379 N381 1.610 . S
N380 S379 1.613 . S
N380 C383 1.350 . S
N381 S379 1.610 . S
N381 C382 1.351 . S
C382 C376 1.428 . S
C382 N381 1.351 . S
C382 C383 1.434 . S
C383 C374 1.429 . S
C383 N380 1.350 . S
C383 C382 1.434 . S
C384 C385 1.369 . S
C384 C386 1.419 . S
C384 H388 0.930 . S
C385 C384 1.369 . S
C385 C394 1.429 . S
C386 C384 1.419 . S
C386 C387 1.363 . S
C386 H389 0.929 . S
C387 C386 1.363 . S
C387 C393 1.428 . S
H388 C384 0.930 . S
H389 C386 0.929 . S
S390 N391 1.613 . S
S390 N392 1.610 . S
N391 S390 1.613 . S
N391 C394 1.350 . S
N392 S390 1.610 . S
N392 C393 1.351 . S
C393 C387 1.428 . S
C393 N392 1.351 . S
C393 C394 1.434 . S
C394 C385 1.429 . S
C394 N391 1.350 . S
C394 C393 1.434 . S
C395 C396 1.369 . S
C395 C397 1.419 . S
C395 H399 0.930 . S
C396 C395 1.369 . S
C396 C405 1.429 . S
C397 C395 1.419 . S
C397 C398 1.363 . S
C397 H400 0.929 . S
C398 C397 1.363 . S
C398 C404 1.428 . S
H399 C395 0.930 . S
H400 C397 0.929 . S
S401 N402 1.613 . S
S401 N403 1.610 . S
N402 S401 1.613 . S
N402 C405 1.350 . S
N403 S401 1.610 . S
N403 C404 1.351 . S
C404 C398 1.428 . S
C404 N403 1.351 . S
C404 C405 1.434 . S
C405 C396 1.429 . S
C405 N402 1.350 . S
C405 C404 1.434 . S
C406 C407 1.369 . S
C406 C408 1.419 . S
C406 H410 0.930 . S
C407 C406 1.369 . S
C407 C416 1.429 . S
C408 C406 1.419 . S
C408 C409 1.363 . S
C408 H411 0.929 . S
C409 C408 1.363 . S
C409 C415 1.428 . S
H410 C406 0.930 . S
H411 C408 0.929 . S
S412 N413 1.613 . S
S412 N414 1.610 . S
N413 S412 1.613 . S
N413 C416 1.350 . S
N414 S412 1.610 . S
N414 C415 1.351 . S
C415 C409 1.428 . S
C415 N414 1.351 . S
C415 C416 1.434 . S
C416 C407 1.429 . S
C416 N413 1.350 . S
C416 C415 1.434 . S
C417 C418 1.369 . S
C417 C419 1.419 . S
C417 H421 0.930 . S
C418 C417 1.369 . S
C418 C427 1.429 . S
C419 C417 1.419 . S
C419 C420 1.363 . S
C419 H422 0.929 . S
C420 C419 1.363 . S
C420 C426 1.428 . S
H421 C417 0.930 . S
H422 C419 0.929 . S
S423 N424 1.613 . S
S423 N425 1.610 . S
N424 S423 1.613 . S
N424 C427 1.350 . S
N425 S423 1.610 . S
N425 C426 1.351 . S
C426 C420 1.428 . S
C426 N425 1.351 . S
C426 C427 1.434 . S
C427 C418 1.429 . S
C427 N424 1.350 . S
C427 C426 1.434 . S
C428 C429 1.369 . S
C428 C430 1.419 . S
C428 H432 0.930 . S
C429 C428 1.369 . S
C429 C438 1.429 . S
C430 C428 1.419 . S
C430 C431 1.363 . S
C430 H433 0.929 1_545 S
C431 C430 1.363 . S
C431 C437 1.428 . S
H432 C428 0.930 . S
H433 C430 0.929 1_565 S
S434 N435 1.613 . S
S434 N436 1.610 . S
N435 S434 1.613 . S
N435 C438 1.350 . S
N436 S434 1.610 . S
N436 C437 1.351 . S
C437 C431 1.428 . S
C437 N436 1.351 . S
C437 C438 1.434 . S
C438 C429 1.429 . S
C438 N435 1.350 . S
C438 C437 1.434 . S
C439 C440 1.369 . S
C439 C441 1.419 . S
C439 H443 0.930 . S
C440 C439 1.369 . S
C440 C449 1.429 . S
C441 C439 1.419 . S
C441 C442 1.363 . S
C441 H444 0.929 . S
C442 C441 1.363 . S
C442 C448 1.428 . S
H443 C439 0.930 . S
H444 C441 0.929 . S
S445 N446 1.613 . S
S445 N447 1.610 . S
N446 S445 1.613 . S
N446 C449 1.350 . S
N447 S445 1.610 . S
N447 C448 1.351 . S
C448 C442 1.428 . S
C448 N447 1.351 . S
C448 C449 1.434 . S
C449 C440 1.429 . S
C449 N446 1.350 . S
C449 C448 1.434 . S
C450 C451 1.369 . S
C450 C452 1.419 . S
C450 H454 0.930 . S
C451 C450 1.369 . S
C451 C460 1.429 . S
C452 C450 1.419 . S
C452 C453 1.363 . S
C452 H455 0.929 . S
C453 C452 1.363 . S
C453 C459 1.428 . S
H454 C450 0.930 . S
H455 C452 0.929 . S
S456 N457 1.613 . S
S456 N458 1.610 . S
N457 S456 1.613 . S
N457 C460 1.350 . S
N458 S456 1.610 . S
N458 C459 1.351 . S
C459 C453 1.428 . S
C459 N458 1.351 . S
C459 C460 1.434 . S
C460 C451 1.429 . S
C460 N457 1.350 . S
C460 C459 1.434 . S
C461 C462 1.369 . S
C461 C463 1.419 . S
C461 H465 0.930 1_545 S
C462 C461 1.369 . S
C462 C471 1.429 . S
C463 C461 1.419 . S
C463 C464 1.363 . S
C463 H466 0.929 . S
C464 C463 1.363 . S
C464 C470 1.428 . S
H465 C461 0.930 1_565 S
H466 C463 0.929 . S
S467 N468 1.613 . S
S467 N469 1.610 . S
N468 S467 1.613 . S
N468 C471 1.350 . S
N469 S467 1.610 . S
N469 C470 1.351 . S
C470 C464 1.428 . S
C470 N469 1.351 . S
C470 C471 1.434 . S
C471 C462 1.429 . S
C471 N468 1.350 . S
C471 C470 1.434 . S
C472 C473 1.369 . S
C472 C474 1.419 . S
C472 H476 0.930 . S
C473 C472 1.369 . S
C473 C482 1.429 . S
C474 C472 1.419 . S
C474 C475 1.363 . S
C474 H477 0.929 . S
C475 C474 1.363 . S
C475 C481 1.428 . S
H476 C472 0.930 . S
H477 C474 0.929 . S
S478 N479 1.613 . S
S478 N480 1.610 . S
N479 S478 1.613 . S
N479 C482 1.350 . S
N480 S478 1.610 . S
N480 C481 1.351 . S
C481 C475 1.428 . S
C481 N480 1.351 . S
C481 C482 1.434 . S
C482 C473 1.429 . S
C482 N479 1.350 . S
C482 C481 1.434 . S
C483 C484 1.369 . S
C483 C485 1.419 . S
C483 H487 0.930 . S
C484 C483 1.369 . S
C484 C493 1.429 . S
C485 C483 1.419 . S
C485 C486 1.363 . S
C485 H488 0.929 . S
C486 C485 1.363 . S
C486 C492 1.428 . S
H487 C483 0.930 . S
H488 C485 0.929 . S
S489 N490 1.613 . S
S489 N491 1.610 . S
N490 S489 1.613 . S
N490 C493 1.350 . S
N491 S489 1.610 . S
N491 C492 1.351 . S
C492 C486 1.428 . S
C492 N491 1.351 . S
C492 C493 1.434 . S
C493 C484 1.429 . S
C493 N490 1.350 . S
C493 C492 1.434 . S
C494 C495 1.369 . S
C494 C496 1.419 . S
C494 H498 0.930 . S
C495 C494 1.369 . S
C495 C504 1.429 . S
C496 C494 1.419 . S
C496 C497 1.363 . S
C496 H499 0.929 . S
C497 C496 1.363 . S
C497 C503 1.428 . S
H498 C494 0.930 . S
H499 C496 0.929 . S
S500 N501 1.613 . S
S500 N502 1.610 . S
N501 S500 1.613 . S
N501 C504 1.350 . S
N502 S500 1.610 . S
N502 C503 1.351 . S
C503 C497 1.428 . S
C503 N502 1.351 . S
C503 C504 1.434 . S
C504 C495 1.429 . S
C504 N501 1.350 . S
C504 C503 1.434 . S
C505 C506 1.369 . S
C505 C507 1.419 . S
C505 H509 0.930 . S
C506 C505 1.369 . S
C506 C515 1.429 . S
C507 C505 1.419 . S
C507 C508 1.363 . S
C507 H510 0.929 . S
C508 C507 1.363 . S
C508 C514 1.428 . S
H509 C505 0.930 . S
H510 C507 0.929 . S
S511 N512 1.613 1_545 S
S511 N513 1.610 . S
N512 S511 1.613 1_565 S
N512 C515 1.350 . S
N513 S511 1.610 . S
N513 C514 1.351 1_545 S
C514 C508 1.428 . S
C514 N513 1.351 1_565 S
C514 C515 1.434 . S
C515 C506 1.429 . S
C515 N512 1.350 . S
C515 C514 1.434 . S
C516 C517 1.369 . S
C516 C518 1.419 . S
C516 H520 0.930 . S
C517 C516 1.369 . S
C517 C526 1.429 . S
C518 C516 1.419 . S
C518 C519 1.363 . S
C518 H521 0.929 . S
C519 C518 1.363 . S
C519 C525 1.428 . S
H520 C516 0.930 . S
H521 C518 0.929 . S
S522 N523 1.613 . S
S522 N524 1.610 . S
N523 S522 1.613 . S
N523 C526 1.350 . S
N524 S522 1.610 . S
N524 C525 1.351 . S
C525 C519 1.428 . S
C525 N524 1.351 . S
C525 C526 1.434 . S
C526 C517 1.429 . S
C526 N523 1.350 . S
C526 C525 1.434 . S
C527 C528 1.369 . S
C527 C529 1.419 . S
C527 H531 0.930 . S
C528 C527 1.369 . S
C528 C537 1.429 . S
C529 C527 1.419 . S
C529 C530 1.363 . S
C529 H532 0.929 . S
C530 C529 1.363 . S
C530 C536 1.428 . S
H531 C527 0.930 . S
H532 C529 0.929 . S
S533 N534 1.613 . S
S533 N535 1.610 . S
N534 S533 1.613 . S
N534 C537 1.350 . S
N535 S533 1.610 . S
N535 C536 1.351 . S
C536 C530 1.428 . S
C536 N535 1.351 . S
C536 C537 1.434 . S
C537 C528 1.429 . S
C537 N534 1.350 . S
C537 C536 1.434 . S
C538 C539 1.369 . S
C538 C540 1.419 . S
C538 H542 0.930 . S
C539 C538 1.369 . S
C539 C548 1.429 . S
C540 C538 1.419 . S
C540 C541 1.363 . S
C540 H543 0.929 . S
C541 C540 1.363 . S
C541 C547 1.428 . S
H542 C538 0.930 . S
H543 C540 0.929 . S
S544 N545 1.613 . S
S544 N546 1.610 . S
N545 S544 1.613 . S
N545 C548 1.350 . S
N546 S544 1.610 . S
N546 C547 1.351 . S
C547 C541 1.428 . S
C547 N546 1.351 . S
C547 C548 1.434 . S
C548 C539 1.429 . S
C548 N545 1.350 . S
C548 C547 1.434 . S
C549 C550 1.369 . S
C549 C551 1.419 . S
C549 H553 0.930 . S
C550 C549 1.369 . S
C550 C559 1.429 . S
C551 C549 1.419 . S
C551 C552 1.363 . S
C551 H554 0.929 . S
C552 C551 1.363 . S
C552 C558 1.428 . S
H553 C549 0.930 . S
H554 C551 0.929 . S
S555 N556 1.613 . S
S555 N557 1.610 1_545 S
N556 S555 1.613 . S
N556 C559 1.350 . S
N557 S555 1.610 1_565 S
N557 C558 1.351 1_565 S
C558 C552 1.428 . S
C558 N557 1.351 1_545 S
C558 C559 1.434 . S
C559 C550 1.429 . S
C559 N556 1.350 . S
C559 C558 1.434 . S
C209 C192 1.539 . S
C211 C10 1.540 . S
C220 C26 1.511 . S
C222 C0 1.505 . S
C231 C143 1.508 . S
C233 C13 1.507 . S
C242 C23 1.541 . S
C244 C101 1.539 . S
C253 C36 1.541 . S
C255 C166 1.538 . S
C264 C117 1.504 . S
C266 C39 1.511 . S
C275 C49 1.540 . S
C277 C75 1.539 . S
C286 C140 1.539 . S
C288 C62 1.540 . S
C297 C52 1.512 . S
C299 C78 1.505 . S
C308 C195 1.507 . S
C310 C65 1.508 . S
C319 C114 1.539 . S
C321 C88 1.540 . S
C330 C169 1.506 . S
C332 C91 1.508 . S
C341 C104 1.511 . S
C343 C130 1.505 . S
C352 C205 1.539 . S
C354 C127 1.540 . S
C363 C153 1.541 . S
C365 C179 1.538 . S
C374 C182 1.508 . S
C376 C156 1.507 . S
C385 C70 1.248 . S
C387 C8 1.242 1_565 S
C396 C5 1.239 . S
C398 C73 1.239 . S
C407 C18 1.241 . S
C409 C60 1.244 . S
C418 C57 1.248 . S
C420 C21 1.241 1_565 S
C429 C96 1.243 . S
C431 C34 1.244 1_545 S
C440 C99 1.234 . S
C442 C31 1.244 . S
C451 C86 1.234 . S
C453 C44 1.243 . S
C462 C47 1.245 1_545 S
C464 C83 1.243 . S
C473 C174 1.238 . S
C475 C112 1.240 1_565 S
C484 C109 1.246 . S
C486 C177 1.235 . S
C495 C122 1.249 . S
C497 C164 1.241 . S
C506 C161 1.248 . S
C508 C125 1.236 1_565 S
C517 C200 1.239 . S
C519 C138 1.242 1_545 S
C528 C203 1.234 . S
C530 C135 1.244 . S
C539 C148 1.241 . S
C541 C190 1.244 . S
C550 C187 1.239 . S
C552 C151 1.238 1_545 S
