# Generated by pormake.
# Topology vcd, (5)-cn, num edge types: 1
# Building blocks:
#     Node 0, Type 0, BuildingBlock: BEQFEK_clean_sbu_0, # of connection points: 5
#     Node 1, Type 0, BuildingBlock: BEQFEK_clean_sbu_0, # of connection points: 5
#     Node 2, Type 0, BuildingBlock: BEQFEK_clean_sbu_0, # of connection points: 5
#     Node 3, Type 0, BuildingBlock: BEQFEK_clean_sbu_0, # of connection points: 5
#     Node 4, Type 0, BuildingBlock: BEQFEK_clean_sbu_0, # of connection points: 5
#     Node 5, Type 0, BuildingBlock: BEQFEK_clean_sbu_0, # of connection points: 5
#     Node 6, Type 0, BuildingBlock: BEQFEK_clean_sbu_0, # of connection points: 5
#     Node 7, Type 0, BuildingBlock: BEQFEK_clean_sbu_0, # of connection points: 5
#     Node 8, Type 0, BuildingBlock: BEQFEK_clean_sbu_0, # of connection points: 5
#     Node 9, Type 0, BuildingBlock: BEQFEK_clean_sbu_0, # of connection points: 5
#     Node 10, Type 0, BuildingBlock: BEQFEK_clean_sbu_0, # of connection points: 5
#     Node 11, Type 0, BuildingBlock: BEQFEK_clean_sbu_0, # of connection points: 5
#     Node 12, Type 0, BuildingBlock: BEQFEK_clean_sbu_0, # of connection points: 5
#     Node 13, Type 0, BuildingBlock: BEQFEK_clean_sbu_0, # of connection points: 5
#     Node 14, Type 0, BuildingBlock: BEQFEK_clean_sbu_0, # of connection points: 5
#     Node 15, Type 0, BuildingBlock: BEQFEK_clean_sbu_0, # of connection points: 5
#     Node 16, Type 0, BuildingBlock: BEQFEK_clean_sbu_0, # of connection points: 5
#     Node 17, Type 0, BuildingBlock: BEQFEK_clean_sbu_0, # of connection points: 5
#     Node 18, Type 0, BuildingBlock: BEQFEK_clean_sbu_0, # of connection points: 5
#     Node 19, Type 0, BuildingBlock: BEQFEK_clean_sbu_0, # of connection points: 5
#     Node 20, Type 0, BuildingBlock: BEQFEK_clean_sbu_0, # of connection points: 5
#     Node 21, Type 0, BuildingBlock: BEQFEK_clean_sbu_0, # of connection points: 5
#     Node 22, Type 0, BuildingBlock: BEQFEK_clean_sbu_0, # of connection points: 5
#     Node 23, Type 0, BuildingBlock: BEQFEK_clean_sbu_0, # of connection points: 5
#     Node 24, Type 0, BuildingBlock: BEQFEK_clean_sbu_0, # of connection points: 5
#     Node 25, Type 0, BuildingBlock: BEQFEK_clean_sbu_0, # of connection points: 5
#     Node 26, Type 0, BuildingBlock: BEQFEK_clean_sbu_0, # of connection points: 5
#     Node 27, Type 0, BuildingBlock: BEQFEK_clean_sbu_0, # of connection points: 5
#     Node 28, Type 0, BuildingBlock: BEQFEK_clean_sbu_0, # of connection points: 5
#     Node 29, Type 0, BuildingBlock: BEQFEK_clean_sbu_0, # of connection points: 5
#     Node 30, Type 0, BuildingBlock: BEQFEK_clean_sbu_0, # of connection points: 5
#     Node 31, Type 0, BuildingBlock: BEQFEK_clean_sbu_0, # of connection points: 5
#     Edge 32, Type (0, 0), BuildingBlock: XUDNAN_clean_linker_2, # of connection points: 2
#     Edge 33, Type (0, 0), BuildingBlock: XUDNAN_clean_linker_2, # of connection points: 2
#     Edge 34, Type (0, 0), BuildingBlock: XUDNAN_clean_linker_2, # of connection points: 2
#     Edge 35, Type (0, 0), BuildingBlock: XUDNAN_clean_linker_2, # of connection points: 2
#     Edge 36, Type (0, 0), BuildingBlock: XUDNAN_clean_linker_2, # of connection points: 2
#     Edge 37, Type (0, 0), BuildingBlock: XUDNAN_clean_linker_2, # of connection points: 2
#     Edge 38, Type (0, 0), BuildingBlock: XUDNAN_clean_linker_2, # of connection points: 2
#     Edge 39, Type (0, 0), BuildingBlock: XUDNAN_clean_linker_2, # of connection points: 2
#     Edge 40, Type (0, 0), BuildingBlock: XUDNAN_clean_linker_2, # of connection points: 2
#     Edge 41, Type (0, 0), BuildingBlock: XUDNAN_clean_linker_2, # of connection points: 2
#     Edge 42, Type (0, 0), BuildingBlock: XUDNAN_clean_linker_2, # of connection points: 2
#     Edge 43, Type (0, 0), BuildingBlock: XUDNAN_clean_linker_2, # of connection points: 2
#     Edge 44, Type (0, 0), BuildingBlock: XUDNAN_clean_linker_2, # of connection points: 2
#     Edge 45, Type (0, 0), BuildingBlock: XUDNAN_clean_linker_2, # of connection points: 2
#     Edge 46, Type (0, 0), BuildingBlock: XUDNAN_clean_linker_2, # of connection points: 2
#     Edge 47, Type (0, 0), BuildingBlock: XUDNAN_clean_linker_2, # of connection points: 2
#     Edge 48, Type (0, 0), BuildingBlock: XUDNAN_clean_linker_2, # of connection points: 2
#     Edge 49, Type (0, 0), BuildingBlock: XUDNAN_clean_linker_2, # of connection points: 2
#     Edge 50, Type (0, 0), BuildingBlock: XUDNAN_clean_linker_2, # of connection points: 2
#     Edge 51, Type (0, 0), BuildingBlock: XUDNAN_clean_linker_2, # of connection points: 2
#     Edge 52, Type (0, 0), BuildingBlock: XUDNAN_clean_linker_2, # of connection points: 2
#     Edge 53, Type (0, 0), BuildingBlock: XUDNAN_clean_linker_2, # of connection points: 2
#     Edge 54, Type (0, 0), BuildingBlock: XUDNAN_clean_linker_2, # of connection points: 2
#     Edge 55, Type (0, 0), BuildingBlock: XUDNAN_clean_linker_2, # of connection points: 2
#     Edge 56, Type (0, 0), BuildingBlock: XUDNAN_clean_linker_2, # of connection points: 2
#     Edge 57, Type (0, 0), BuildingBlock: XUDNAN_clean_linker_2, # of connection points: 2
#     Edge 58, Type (0, 0), BuildingBlock: XUDNAN_clean_linker_2, # of connection points: 2
#     Edge 59, Type (0, 0), BuildingBlock: XUDNAN_clean_linker_2, # of connection points: 2
#     Edge 60, Type (0, 0), BuildingBlock: XUDNAN_clean_linker_2, # of connection points: 2
#     Edge 61, Type (0, 0), BuildingBlock: XUDNAN_clean_linker_2, # of connection points: 2
#     Edge 62, Type (0, 0), BuildingBlock: XUDNAN_clean_linker_2, # of connection points: 2
#     Edge 63, Type (0, 0), BuildingBlock: XUDNAN_clean_linker_2, # of connection points: 2
#     Edge 64, Type (0, 0), BuildingBlock: XUDNAN_clean_linker_2, # of connection points: 2
#     Edge 65, Type (0, 0), BuildingBlock: XUDNAN_clean_linker_2, # of connection points: 2
#     Edge 66, Type (0, 0), BuildingBlock: XUDNAN_clean_linker_2, # of connection points: 2
#     Edge 67, Type (0, 0), BuildingBlock: XUDNAN_clean_linker_2, # of connection points: 2
#     Edge 68, Type (0, 0), BuildingBlock: XUDNAN_clean_linker_2, # of connection points: 2
#     Edge 69, Type (0, 0), BuildingBlock: XUDNAN_clean_linker_2, # of connection points: 2
#     Edge 70, Type (0, 0), BuildingBlock: XUDNAN_clean_linker_2, # of connection points: 2
#     Edge 71, Type (0, 0), BuildingBlock: XUDNAN_clean_linker_2, # of connection points: 2
#     Edge 72, Type (0, 0), BuildingBlock: XUDNAN_clean_linker_2, # of connection points: 2
#     Edge 73, Type (0, 0), BuildingBlock: XUDNAN_clean_linker_2, # of connection points: 2
#     Edge 74, Type (0, 0), BuildingBlock: XUDNAN_clean_linker_2, # of connection points: 2
#     Edge 75, Type (0, 0), BuildingBlock: XUDNAN_clean_linker_2, # of connection points: 2
#     Edge 76, Type (0, 0), BuildingBlock: XUDNAN_clean_linker_2, # of connection points: 2
#     Edge 77, Type (0, 0), BuildingBlock: XUDNAN_clean_linker_2, # of connection points: 2
#     Edge 78, Type (0, 0), BuildingBlock: XUDNAN_clean_linker_2, # of connection points: 2
#     Edge 79, Type (0, 0), BuildingBlock: XUDNAN_clean_linker_2, # of connection points: 2
#     Edge 80, Type (0, 0), BuildingBlock: XUDNAN_clean_linker_2, # of connection points: 2
#     Edge 81, Type (0, 0), BuildingBlock: XUDNAN_clean_linker_2, # of connection points: 2
#     Edge 82, Type (0, 0), BuildingBlock: XUDNAN_clean_linker_2, # of connection points: 2
#     Edge 83, Type (0, 0), BuildingBlock: XUDNAN_clean_linker_2, # of connection points: 2
#     Edge 84, Type (0, 0), BuildingBlock: XUDNAN_clean_linker_2, # of connection points: 2
#     Edge 85, Type (0, 0), BuildingBlock: XUDNAN_clean_linker_2, # of connection points: 2
#     Edge 86, Type (0, 0), BuildingBlock: XUDNAN_clean_linker_2, # of connection points: 2
#     Edge 87, Type (0, 0), BuildingBlock: XUDNAN_clean_linker_2, # of connection points: 2
#     Edge 88, Type (0, 0), BuildingBlock: XUDNAN_clean_linker_2, # of connection points: 2
#     Edge 89, Type (0, 0), BuildingBlock: XUDNAN_clean_linker_2, # of connection points: 2
#     Edge 90, Type (0, 0), BuildingBlock: XUDNAN_clean_linker_2, # of connection points: 2
#     Edge 91, Type (0, 0), BuildingBlock: XUDNAN_clean_linker_2, # of connection points: 2
#     Edge 92, Type (0, 0), BuildingBlock: XUDNAN_clean_linker_2, # of connection points: 2
#     Edge 93, Type (0, 0), BuildingBlock: XUDNAN_clean_linker_2, # of connection points: 2
#     Edge 94, Type (0, 0), BuildingBlock: XUDNAN_clean_linker_2, # of connection points: 2
#     Edge 95, Type (0, 0), BuildingBlock: XUDNAN_clean_linker_2, # of connection points: 2
#     Edge 96, Type (0, 0), BuildingBlock: XUDNAN_clean_linker_2, # of connection points: 2
#     Edge 97, Type (0, 0), BuildingBlock: XUDNAN_clean_linker_2, # of connection points: 2
#     Edge 98, Type (0, 0), BuildingBlock: XUDNAN_clean_linker_2, # of connection points: 2
#     Edge 99, Type (0, 0), BuildingBlock: XUDNAN_clean_linker_2, # of connection points: 2
#     Edge 100, Type (0, 0), BuildingBlock: XUDNAN_clean_linker_2, # of connection points: 2
#     Edge 101, Type (0, 0), BuildingBlock: XUDNAN_clean_linker_2, # of connection points: 2
#     Edge 102, Type (0, 0), BuildingBlock: XUDNAN_clean_linker_2, # of connection points: 2
#     Edge 103, Type (0, 0), BuildingBlock: XUDNAN_clean_linker_2, # of connection points: 2
#     Edge 104, Type (0, 0), BuildingBlock: XUDNAN_clean_linker_2, # of connection points: 2
#     Edge 105, Type (0, 0), BuildingBlock: XUDNAN_clean_linker_2, # of connection points: 2
#     Edge 106, Type (0, 0), BuildingBlock: XUDNAN_clean_linker_2, # of connection points: 2
#     Edge 107, Type (0, 0), BuildingBlock: XUDNAN_clean_linker_2, # of connection points: 2
#     Edge 108, Type (0, 0), BuildingBlock: XUDNAN_clean_linker_2, # of connection points: 2
#     Edge 109, Type (0, 0), BuildingBlock: XUDNAN_clean_linker_2, # of connection points: 2
#     Edge 110, Type (0, 0), BuildingBlock: XUDNAN_clean_linker_2, # of connection points: 2
#     Edge 111, Type (0, 0), BuildingBlock: XUDNAN_clean_linker_2, # of connection points: 2
# Relax obj value: 0.026
# Max RMSD: 0.075
# Mean RMSD: 0.075
data_MOF--net-vcd--node1-BEQFEK_clean_sbu_0--edge1-XUDNAN_clean_linker_2
_symmetry_space_group_name_H-M    P1
_symmetry_Int_Tables_number       1
_symmetry_cell_setting            triclinic
loop_
_symmetry_equiv_pos_as_xyz
'x, y, z'
_cell_length_a     152.44443
_cell_length_b     54.322185
_cell_length_c     22.003004
_cell_angle_alpha  89.988493
_cell_angle_beta   90.024737
_cell_angle_gamma 90.018888
loop_
_atom_site_label
_atom_site_type_symbol
_atom_site_fract_x
_atom_site_fract_y
_atom_site_fract_z
_atom_type_partial_charge
Co0 Co 0.08024 0.46894 0.14073 0.0
Co1 Co 0.05947 0.46651 0.13985 0.0
C2 C 0.06996 0.43427 0.05918 0.0
O3 O 0.07693 0.4433 0.08204 0.0
O4 O 0.06239 0.44219 0.07432 0.0
C5 C 0.09704 0.47423 0.0834 0.0
O6 O 0.09228 0.47235 0.0338 0.0
C7 C 0.04087 0.47487 0.1021 0.0
C8 C 0.03469 0.47952 0.19214 0.0
C9 C 0.03292 0.4805 0.13038 0.0
N10 N 0.04699 0.47118 0.14543 0.0
N11 N 0.04319 0.47359 0.19902 0.0
C12 C 0.04283 0.47505 0.0355 0.0
H13 H 0.05 0.47662 0.02763 0.0
H14 H 0.03935 0.49048 0.01285 0.0
H15 H 0.04049 0.45755 0.01512 0.0
C16 C 0.07666 0.52141 0.11656 0.0
N17 N 0.07391 0.49822 0.12677 0.0
N18 N 0.06526 0.49773 0.12773 0.0
C19 C 0.06228 0.52093 0.11903 0.0
C20 C 0.06941 0.53654 0.11114 0.0
C21 C 0.08608 0.52907 0.114 0.0
H22 H 0.08978 0.5202 0.15149 0.0
H23 H 0.08895 0.5229 0.07025 0.0
H24 H 0.08679 0.54935 0.1175 0.0
O25 O 0.07763 0.4558 0.22179 0.0
O26 O 0.06315 0.45108 0.21886 0.0
H27 H 0.04933 0.52021 0.1566 0.0
H28 H 0.05197 0.54836 0.11688 0.0
C29 C 0.05281 0.52808 0.11692 0.0
H30 H 0.04982 0.52064 0.0749 0.0
H31 H 0.04648 0.47209 0.24044 0.0
O32 O 0.09322 0.47381 0.13477 0.0
C33 C 0.0705 0.44849 0.24591 0.0
Co34 Co 0.17985 0.78634 0.10896 0.0
Co35 Co 0.20048 0.78691 0.12738 0.0
C36 C 0.19122 0.80757 0.01512 0.0
O37 O 0.18348 0.80187 0.03187 0.0
O38 O 0.19791 0.80252 0.04774 0.0
C39 C 0.16081 0.78973 0.08187 0.0
O40 O 0.1627 0.80604 0.03979 0.0
C41 C 0.21823 0.76975 0.09445 0.0
C42 C 0.2265 0.78829 0.16298 0.0
C43 C 0.22685 0.77289 0.11295 0.0
N44 N 0.21298 0.78259 0.13204 0.0
N45 N 0.21798 0.79362 0.17294 0.0
C46 C 0.21511 0.75627 0.0393 0.0
H47 H 0.20784 0.75586 0.03755 0.0
H48 H 0.21774 0.73722 0.0394 0.0
H49 H 0.21767 0.76559 -0.00194 0.0
C50 C 0.18276 0.73351 0.12956 0.0
N51 N 0.1859 0.75651 0.12347 0.0
N52 N 0.19439 0.75651 0.13476 0.0
C53 C 0.19687 0.73343 0.14978 0.0
C54 C 0.18958 0.71814 0.14681 0.0
C55 C 0.17344 0.72639 0.11722 0.0
H56 H 0.17099 0.73638 0.07666 0.0
H57 H 0.17279 0.7063 0.10934 0.0
H58 H 0.16933 0.73165 0.15675 0.0
O59 O 0.1823 0.81012 0.17448 0.0
O60 O 0.19666 0.81041 0.19159 0.0
H61 H 0.20905 0.74225 0.19407 0.0
H62 H 0.20547 0.71071 0.20363 0.0
C63 C 0.20583 0.72642 0.17146 0.0
H64 H 0.20985 0.72063 0.13204 0.0
H65 H 0.21559 0.80506 0.20724 0.0
O66 O 0.16697 0.78002 0.11266 0.0
C67 C 0.18895 0.81818 0.20329 0.0
Co68 Co 0.07953 0.78762 0.10412 0.0
Co69 Co 0.05911 0.78551 0.12928 0.0
C70 C 0.07118 0.81039 0.21566 0.0
O71 O 0.07769 0.80498 0.18201 0.0
O72 O 0.06342 0.80374 0.20182 0.0
C73 C 0.09693 0.77687 0.14003 0.0
O74 O 0.09276 0.77121 0.19038 0.0
C75 C 0.04199 0.77685 0.18823 0.0
C76 C 0.03309 0.77459 0.10912 0.0
C77 C 0.03323 0.77371 0.17205 0.0
N78 N 0.04675 0.7796 0.13725 0.0
N79 N 0.04139 0.77826 0.09016 0.0
C80 C 0.04591 0.77585 0.2505 0.0
H81 H 0.0527 0.76853 0.24817 0.0
H82 H 0.04191 0.76416 0.28116 0.0
H83 H 0.04622 0.79477 0.26945 0.0
C84 C 0.07674 0.73353 0.09301 0.0
N85 N 0.07379 0.75647 0.10439 0.0
N86 N 0.06534 0.75548 0.11655 0.0
C87 C 0.06266 0.73181 0.11384 0.0
C88 C 0.0698 0.7171 0.09875 0.0
C89 C 0.08611 0.72756 0.07896 0.0
H90 H 0.0887 0.74076 0.04494 0.0
H91 H 0.09005 0.72943 0.12108 0.0
H92 H 0.08695 0.70851 0.06205 0.0
O93 O 0.07486 0.80915 0.03874 0.0
O94 O 0.06057 0.8077 0.05847 0.0
H95 H 0.04924 0.73304 0.08636 0.0
H96 H 0.05255 0.70361 0.11599 0.0
C97 C 0.05333 0.72379 0.12116 0.0
H98 H 0.05092 0.72946 0.16659 0.0
H99 H 0.0434 0.77989 0.04499 0.0
O100 O 0.09252 0.78416 0.09438 0.0
C101 C 0.06701 0.81575 0.02729 0.0
Co102 Co 0.18015 0.46867 0.10846 0.0
Co103 Co 0.20058 0.46988 0.13676 0.0
C104 C 0.18822 0.4405 0.21288 0.0
O105 O 0.18172 0.44747 0.18066 0.0
O106 O 0.19601 0.44794 0.20199 0.0
C107 C 0.16129 0.47193 0.13123 0.0
O108 O 0.16337 0.46813 0.18841 0.0
C109 C 0.21814 0.47456 0.19517 0.0
C110 C 0.22618 0.48633 0.11681 0.0
C111 C 0.22668 0.48079 0.17818 0.0
N112 N 0.21293 0.47623 0.14593 0.0
N113 N 0.21779 0.48325 0.09936 0.0
C114 C 0.21481 0.46879 0.2575 0.0
H115 H 0.20785 0.47456 0.26187 0.0
H116 H 0.2188 0.4782 0.2927 0.0
H117 H 0.21515 0.44861 0.26506 0.0
C118 C 0.1825 0.5223 0.12391 0.0
N119 N 0.18576 0.49932 0.12103 0.0
N120 N 0.19419 0.4999 0.13429 0.0
C121 C 0.19653 0.52332 0.14653 0.0
C122 C 0.18919 0.53827 0.14041 0.0
C123 C 0.17314 0.52872 0.11076 0.0
H124 H 0.17089 0.5187 0.06972 0.0
H125 H 0.169 0.5229 0.14964 0.0
H126 H 0.1723 0.54878 0.10332 0.0
O127 O 0.18518 0.45087 0.03855 0.0
O128 O 0.19942 0.45159 0.05935 0.0
H129 H 0.21019 0.52939 0.13113 0.0
H130 H 0.20544 0.54988 0.18678 0.0
C131 C 0.20541 0.53079 0.16896 0.0
H132 H 0.20752 0.51811 0.20559 0.0
H133 H 0.21537 0.486 0.05552 0.0
O134 O 0.16736 0.47299 0.09155 0.0
C135 C 0.19304 0.44506 0.02562 0.0
Co136 Co 0.93119 0.53488 0.8628 0.0
Co137 Co 0.9519 0.52878 0.8677 0.0
C138 C 0.94187 0.56411 0.94927 0.0
O139 O 0.93423 0.55791 0.93089 0.0
O140 O 0.94877 0.5541 0.92786 0.0
C141 C 0.91201 0.53491 0.88879 0.0
O142 O 0.91389 0.54078 0.94522 0.0
C143 C 0.96883 0.52039 0.92851 0.0
C144 C 0.9777 0.51262 0.85154 0.0
C145 C 0.97754 0.51506 0.91428 0.0
N146 N 0.96415 0.52122 0.87671 0.0
N147 N 0.9695 0.51657 0.83086 0.0
C148 C 0.9648 0.52318 0.99012 0.0
H149 H 0.95778 0.51778 0.98876 0.0
H150 H 0.96832 0.51176 0.02414 0.0
H151 H 0.96517 0.54278 0.00411 0.0
C152 C 0.9325 0.48072 0.88469 0.0
N153 N 0.93619 0.503 0.87545 0.0
N154 N 0.94479 0.50063 0.8775 0.0
C155 C 0.94682 0.47692 0.88834 0.0
C156 C 0.93912 0.46356 0.8935 0.0
C157 C 0.92283 0.47629 0.88783 0.0
H158 H 0.91976 0.48191 0.84425 0.0
H159 H 0.91998 0.48784 0.92438 0.0
H160 H 0.9213 0.45666 0.89699 0.0
O161 O 0.93573 0.55032 0.78649 0.0
O162 O 0.95012 0.54387 0.78747 0.0
H163 H 0.95987 0.474 0.85324 0.0
H164 H 0.9561 0.4467 0.89194 0.0
C165 C 0.95598 0.46712 0.89223 0.0
H166 H 0.95909 0.47379 0.93474 0.0
H167 H 0.96755 0.51614 0.7854 0.0
O168 O 0.9182 0.53189 0.85067 0.0
C169 C 0.94328 0.5525 0.76203 0.0
Co170 Co 0.83091 0.22164 0.86326 0.0
Co171 Co 0.81019 0.21503 0.86842 0.0
C172 C 0.82237 0.1959 0.96695 0.0
O173 O 0.82918 0.20496 0.94184 0.0
O174 O 0.81477 0.19846 0.94343 0.0
C175 C 0.85002 0.22188 0.87959 0.0
O176 O 0.84853 0.20767 0.92679 0.0
C177 C 0.7928 0.22149 0.9244 0.0
C178 C 0.78387 0.21931 0.84556 0.0
C179 C 0.78399 0.22297 0.90793 0.0
N180 N 0.7976 0.21716 0.87423 0.0
N181 N 0.79221 0.21572 0.82731 0.0
C182 C 0.79676 0.22648 0.98542 0.0
H183 H 0.80353 0.23369 0.98021 0.0
H184 H 0.79275 0.23991 0.01129 0.0
H185 H 0.7971 0.20901 0.01149 0.0
C186 C 0.82581 0.27356 0.84944 0.0
N187 N 0.82372 0.24969 0.85702 0.0
N188 N 0.81513 0.24728 0.85868 0.0
C189 C 0.81147 0.26975 0.85202 0.0
C190 C 0.81812 0.28713 0.84602 0.0
C191 C 0.83501 0.2827 0.84186 0.0
H192 H 0.83821 0.27248 0.80427 0.0
H193 H 0.83877 0.27891 0.88403 0.0
H194 H 0.83525 0.30266 0.83155 0.0
O195 O 0.82781 0.19754 0.8005 0.0
O196 O 0.81333 0.19308 0.79844 0.0
H197 H 0.79854 0.26405 0.81698 0.0
H198 H 0.80025 0.29439 0.84879 0.0
C199 C 0.80181 0.27457 0.85376 0.0
H200 H 0.79914 0.26819 0.89784 0.0
H201 H 0.79424 0.21276 0.78262 0.0
O202 O 0.84355 0.23004 0.84898 0.0
C203 C 0.82095 0.18756 0.77869 0.0
Co204 Co 0.93083 0.21478 0.85082 0.0
Co205 Co 0.95139 0.21536 0.87417 0.0
C206 C 0.94328 0.19151 0.76345 0.0
O207 O 0.93546 0.19742 0.77796 0.0
O208 O 0.94981 0.1977 0.79629 0.0
C209 C 0.91358 0.22556 0.79813 0.0
O210 O 0.91793 0.23075 0.7482 0.0
C211 C 0.96991 0.22814 0.84653 0.0
C212 C 0.97602 0.22452 0.93701 0.0
C213 C 0.97787 0.2308 0.87722 0.0
N214 N 0.96374 0.22084 0.88658 0.0
N215 N 0.96748 0.21846 0.94038 0.0
C216 C 0.96795 0.23437 0.78171 0.0
H217 H 0.96081 0.23764 0.7755 0.0
H218 H 0.97168 0.25092 0.76741 0.0
H219 H 0.96991 0.2187 0.75237 0.0
C220 C 0.93333 0.2684 0.87115 0.0
N221 N 0.93652 0.24541 0.86461 0.0
N222 N 0.94504 0.24567 0.87505 0.0
C223 C 0.94751 0.26888 0.88851 0.0
C224 C 0.94018 0.28404 0.88645 0.0
C225 C 0.92378 0.27479 0.86841 0.0
H226 H 0.91996 0.26138 0.89566 0.0
H227 H 0.92152 0.27365 0.82058 0.0
H228 H 0.92249 0.2936 0.88585 0.0
O229 O 0.93281 0.1929 0.92081 0.0
O230 O 0.94712 0.19299 0.9399 0.0
H231 H 0.95916 0.26568 0.94222 0.0
H232 H 0.95731 0.29631 0.91238 0.0
C233 C 0.95674 0.27636 0.90267 0.0
H234 H 0.96097 0.27211 0.86318 0.0
H235 H 0.96416 0.21317 0.97973 0.0
O236 O 0.91779 0.21874 0.84511 0.0
C237 C 0.93937 0.18555 0.95172 0.0
Co238 Co 0.83077 0.53405 0.87893 0.0
Co239 Co 0.80999 0.53929 0.87584 0.0
C240 C 0.82134 0.56909 0.79405 0.0
O241 O 0.82813 0.55936 0.81772 0.0
O242 O 0.81362 0.56249 0.80973 0.0
C243 C 0.84796 0.52789 0.82704 0.0
O244 O 0.84361 0.53088 0.77601 0.0
C245 C 0.79141 0.53048 0.8364 0.0
C246 C 0.78479 0.5324 0.92547 0.0
C247 C 0.7833 0.52717 0.86467 0.0
N248 N 0.79738 0.53674 0.8791 0.0
N249 N 0.79329 0.53837 0.93186 0.0
C250 C 0.79367 0.52577 0.77129 0.0
H251 H 0.80087 0.52375 0.7657 0.0
H252 H 0.79026 0.50903 0.75457 0.0
H253 H 0.79144 0.54161 0.74346 0.0
C254 C 0.82624 0.48184 0.85742 0.0
N255 N 0.82392 0.50552 0.86587 0.0
N256 N 0.81529 0.50728 0.86664 0.0
C257 C 0.81189 0.48447 0.85996 0.0
C258 C 0.81869 0.46774 0.85298 0.0
C259 C 0.83553 0.47331 0.85123 0.0
H260 H 0.83928 0.47865 0.8924 0.0
H261 H 0.83858 0.48264 0.8117 0.0
H262 H 0.83599 0.45314 0.84442 0.0
O263 O 0.82806 0.54844 0.95866 0.0
O264 O 0.81367 0.55457 0.95454 0.0
H265 H 0.79921 0.48992 0.90036 0.0
H266 H 0.80149 0.45859 0.87913 0.0
C267 C 0.80237 0.47813 0.86571 0.0
H268 H 0.7991 0.48085 0.82129 0.0
H269 H 0.79639 0.54245 0.97292 0.0
O270 O 0.84374 0.52764 0.87693 0.0
C271 C 0.82099 0.55655 0.98203 0.0
Co272 Co 0.07973 0.96884 0.63038 0.0
Co273 Co 0.05922 0.96927 0.60393 0.0
C274 C 0.07143 0.93969 0.52781 0.0
O275 O 0.07791 0.94696 0.55967 0.0
O276 O 0.06366 0.94718 0.53851 0.0
C277 C 0.09728 0.97746 0.59217 0.0
O278 O 0.09318 0.98006 0.54 0.0
C279 C 0.042 0.97469 0.54252 0.0
C280 C 0.03322 0.9816 0.62049 0.0
C281 C 0.03324 0.97899 0.5578 0.0
N282 N 0.04683 0.97465 0.5938 0.0
N283 N 0.04152 0.97875 0.64018 0.0
C284 C 0.0459 0.97233 0.4804 0.0
H285 H 0.05286 0.97837 0.48084 0.0
H286 H 0.04217 0.98349 0.44695 0.0
H287 H 0.04571 0.95273 0.46625 0.0
C288 C 0.07695 0.02288 0.61628 0.0
N289 N 0.07394 0.99955 0.61785 0.0
N290 N 0.06545 0.9997 0.60605 0.0
C291 C 0.06284 0.02313 0.59672 0.0
C292 C 0.07005 0.03855 0.60269 0.0
C293 C 0.08625 0.03018 0.62854 0.0
H294 H 0.08906 0.01843 0.66485 0.0
H295 H 0.09017 0.02765 0.58654 0.0
H296 H 0.08668 0.04979 0.64237 0.0
O297 O 0.07499 0.95127 0.70232 0.0
O298 O 0.06071 0.95134 0.68176 0.0
H299 H 0.04914 0.02552 0.6161 0.0
H300 H 0.05321 0.05042 0.56949 0.0
C301 C 0.05373 0.03042 0.57894 0.0
H302 H 0.05175 0.02008 0.53775 0.0
H303 H 0.04358 0.97965 0.68537 0.0
O304 O 0.09277 0.97289 0.63954 0.0
C305 C 0.06714 0.94524 0.71561 0.0
Co306 Co 0.18069 0.28735 0.63633 0.0
Co307 Co 0.20124 0.28728 0.61142 0.0
C308 C 0.18896 0.3117 0.52583 0.0
O309 O 0.18245 0.30569 0.55928 0.0
O310 O 0.19681 0.30543 0.53913 0.0
C311 C 0.16157 0.28629 0.61661 0.0
O312 O 0.1632 0.2961 0.56323 0.0
C313 C 0.2197 0.27707 0.5686 0.0
C314 C 0.22627 0.27702 0.65815 0.0
C315 C 0.22778 0.27319 0.59686 0.0
N316 N 0.21372 0.28254 0.61182 0.0
N317 N 0.21777 0.28281 0.66491 0.0
C318 C 0.21752 0.27378 0.50286 0.0
H319 H 0.21032 0.27206 0.49648 0.0
H320 H 0.2209 0.25728 0.48448 0.0
H321 H 0.21985 0.29009 0.47716 0.0
C322 C 0.18374 0.23362 0.63232 0.0
N323 N 0.18676 0.25695 0.63217 0.0
N324 N 0.19526 0.25679 0.62126 0.0
C325 C 0.19791 0.23328 0.61463 0.0
C326 C 0.19071 0.21787 0.62095 0.0
C327 C 0.17424 0.22696 0.63653 0.0
H328 H 0.17157 0.23367 0.68041 0.0
H329 H 0.17059 0.23632 0.59951 0.0
H330 H 0.17317 0.20682 0.63295 0.0
O331 O 0.18506 0.30848 0.70354 0.0
O332 O 0.19924 0.3087 0.68198 0.0
H333 H 0.21168 0.2349 0.63355 0.0
H334 H 0.20801 0.20543 0.60609 0.0
C335 C 0.20715 0.22563 0.60152 0.0
H336 H 0.20889 0.23119 0.5546 0.0
H337 H 0.21466 0.28617 0.70629 0.0
O338 O 0.16793 0.28141 0.65219 0.0
C339 C 0.19284 0.31575 0.71445 0.0
Co340 Co 0.08041 0.28616 0.64341 0.0
Co341 Co 0.05959 0.28827 0.64024 0.0
C342 C 0.07029 0.30593 0.7478 0.0
O343 O 0.07749 0.29912 0.72392 0.0
O344 O 0.06301 0.30324 0.72016 0.0
C345 C 0.09783 0.27576 0.68656 0.0
O346 O 0.09362 0.27215 0.73789 0.0
C347 C 0.04239 0.27689 0.6922 0.0
C348 C 0.03325 0.28278 0.61578 0.0
C349 C 0.03353 0.27637 0.67679 0.0
N350 N 0.04707 0.28354 0.64305 0.0
N351 N 0.04157 0.28699 0.59741 0.0
C352 C 0.04648 0.26975 0.75146 0.0
H353 H 0.05315 0.26216 0.74369 0.0
H354 H 0.0424 0.25592 0.77553 0.0
H355 H 0.04713 0.28634 0.78053 0.0
C356 C 0.07691 0.23391 0.61674 0.0
N357 N 0.07411 0.25693 0.62798 0.0
N358 N 0.06547 0.25746 0.62639 0.0
C359 C 0.06251 0.23457 0.61366 0.0
C360 C 0.06967 0.21891 0.60697 0.0
C361 C 0.08636 0.22639 0.61882 0.0
H362 H 0.09005 0.23644 0.58314 0.0
H363 H 0.08914 0.23159 0.66351 0.0
H364 H 0.08724 0.2063 0.61268 0.0
O365 O 0.07727 0.31186 0.58406 0.0
O366 O 0.06272 0.31301 0.57588 0.0
H367 H 0.04992 0.24193 0.57476 0.0
H368 H 0.05224 0.20957 0.58493 0.0
C369 C 0.05305 0.22817 0.60497 0.0
H370 H 0.04967 0.22877 0.64958 0.0
H371 H 0.04347 0.29234 0.55381 0.0
O372 O 0.09345 0.2813 0.6392 0.0
C373 C 0.07031 0.32092 0.56098 0.0
Co374 Co 0.1803 0.96837 0.62828 0.0
Co375 Co 0.20103 0.96861 0.61147 0.0
C376 C 0.19151 0.93824 0.7079 0.0
O377 O 0.18379 0.94604 0.69619 0.0
O378 O 0.19814 0.94586 0.67818 0.0
C379 C 0.16115 0.96792 0.65962 0.0
O380 O 0.16295 0.95529 0.70898 0.0
C381 C 0.21862 0.97491 0.66251 0.0
C382 C 0.22709 0.97784 0.58147 0.0
C383 C 0.22732 0.97758 0.64449 0.0
N384 N 0.21354 0.97341 0.61269 0.0
N385 N 0.21864 0.97522 0.56432 0.0
C386 C 0.21505 0.97564 0.72581 0.0
H387 H 0.20825 0.98295 0.72557 0.0
H388 H 0.21924 0.98721 0.7556 0.0
H389 H 0.21488 0.95669 0.74452 0.0
C390 C 0.18352 0.02212 0.63054 0.0
N391 N 0.18646 0.99873 0.6299 0.0
N392 N 0.19501 0.99886 0.62109 0.0
C393 C 0.19776 0.0223 0.61567 0.0
C394 C 0.19057 0.03783 0.62125 0.0
C395 C 0.17401 0.02891 0.63249 0.0
H396 H 0.17074 0.02199 0.59079 0.0
H397 H 0.17086 0.01986 0.6721 0.0
H398 H 0.17305 0.04911 0.63547 0.0
O399 O 0.18304 0.95103 0.55152 0.0
O400 O 0.19744 0.95187 0.53529 0.0
H401 H 0.20922 0.02116 0.55974 0.0
H402 H 0.20787 0.04983 0.60079 0.0
C403 C 0.20706 0.02957 0.60316 0.0
H404 H 0.21133 0.02243 0.63991 0.0
H405 H 0.21636 0.97458 0.51962 0.0
O406 O 0.16735 0.97454 0.6245 0.0
C407 C 0.18971 0.94567 0.51924 0.0
Co408 Co 0.93006 0.03434 0.37602 0.0
Co409 Co 0.95056 0.03013 0.35401 0.0
C410 C 0.94252 0.05977 0.45787 0.0
O411 O 0.93459 0.05416 0.44504 0.0
O412 O 0.94896 0.0515 0.42677 0.0
C413 C 0.91067 0.03405 0.40849 0.0
O414 O 0.91216 0.04183 0.46406 0.0
C415 C 0.96888 0.01608 0.38507 0.0
C416 C 0.97488 0.01468 0.2938 0.0
C417 C 0.9767 0.01096 0.35484 0.0
N418 N 0.96277 0.02243 0.34361 0.0
N419 N 0.96645 0.02175 0.28927 0.0
C420 C 0.96698 0.01321 0.45136 0.0
H421 H 0.95985 0.01048 0.45883 0.0
H422 H 0.97071 0.99746 0.47052 0.0
H423 H 0.96903 0.03021 0.47549 0.0
C424 C 0.93168 0.98045 0.37595 0.0
N425 N 0.93534 0.00294 0.37292 0.0
N426 N 0.94378 0.00073 0.36166 0.0
C427 C 0.94574 0.97655 0.35677 0.0
C428 C 0.93811 0.96294 0.36548 0.0
C429 C 0.92219 0.97592 0.38934 0.0
H430 H 0.91823 0.98065 0.34866 0.0
H431 H 0.92006 0.98793 0.42733 0.0
H432 H 0.92096 0.95643 0.4018 0.0
O433 O 0.93265 0.0527 0.30133 0.0
O434 O 0.94687 0.04988 0.28187 0.0
H435 H 0.95721 0.97747 0.30077 0.0
H436 H 0.95431 0.94705 0.32728 0.0
C437 C 0.95458 0.96683 0.33969 0.0
H438 H 0.95912 0.96917 0.37865 0.0
H439 H 0.96314 0.02565 0.24886 0.0
O440 O 0.91705 0.03061 0.37232 0.0
C441 C 0.93925 0.05774 0.26835 0.0
Co442 Co 0.82992 0.72016 0.37597 0.0
Co443 Co 0.80921 0.71405 0.38069 0.0
C444 C 0.82129 0.69839 0.48368 0.0
O445 O 0.82815 0.70677 0.45797 0.0
O446 O 0.81378 0.69984 0.45837 0.0
C447 C 0.84879 0.71633 0.38865 0.0
O448 O 0.84686 0.69946 0.42928 0.0
C449 C 0.7919 0.72486 0.43421 0.0
C450 C 0.78297 0.71978 0.35617 0.0
C451 C 0.78319 0.72746 0.41622 0.0
N452 N 0.79662 0.71679 0.3865 0.0
N453 N 0.7912 0.71335 0.34033 0.0
C454 C 0.79572 0.72946 0.49591 0.0
H455 H 0.79978 0.71349 0.50968 0.0
H456 H 0.80008 0.74582 0.49419 0.0
H457 H 0.79057 0.73221 0.53075 0.0
C458 C 0.82496 0.77173 0.35263 0.0
N459 N 0.82281 0.74809 0.36336 0.0
N460 N 0.81421 0.74585 0.36458 0.0
C461 C 0.81061 0.76818 0.35402 0.0
C462 C 0.81731 0.78531 0.34634 0.0
C463 C 0.8342 0.7807 0.34619 0.0
H464 H 0.8376 0.76962 0.31102 0.0
H465 H 0.83772 0.77792 0.3898 0.0
H466 H 0.83449 0.80039 0.33312 0.0
O467 O 0.82684 0.69371 0.31866 0.0
O468 O 0.81232 0.69003 0.31518 0.0
H469 H 0.79761 0.76052 0.32244 0.0
H470 H 0.7994 0.79247 0.34166 0.0
C471 C 0.80096 0.77323 0.35432 0.0
H472 H 0.79835 0.76999 0.40056 0.0
H473 H 0.79318 0.70751 0.29729 0.0
O474 O 0.8426 0.7278 0.36207 0.0
C475 C 0.81996 0.68341 0.29797 0.0
Co476 Co 0.92988 0.70883 0.36732 0.0
Co477 Co 0.95039 0.71826 0.36468 0.0
C478 C 0.9416 0.69254 0.26277 0.0
O479 O 0.93415 0.69383 0.28919 0.0
O480 O 0.94847 0.70198 0.28626 0.0
C481 C 0.91265 0.71661 0.31908 0.0
O482 O 0.91719 0.72369 0.27139 0.0
C483 C 0.96882 0.73308 0.33534 0.0
C484 C 0.97394 0.73883 0.42819 0.0
C485 C 0.97632 0.74006 0.36746 0.0
N486 N 0.96239 0.7281 0.37559 0.0
N487 N 0.96554 0.73143 0.43088 0.0
C488 C 0.96752 0.73289 0.26793 0.0
H489 H 0.96047 0.73476 0.25652 0.0
H490 H 0.97127 0.74805 0.24629 0.0
H491 H 0.9699 0.71511 0.24941 0.0
C492 C 0.93019 0.76372 0.38073 0.0
N493 N 0.93426 0.74171 0.37666 0.0
N494 N 0.94277 0.7455 0.37294 0.0
C495 C 0.94437 0.7699 0.37274 0.0
C496 C 0.93644 0.78233 0.37781 0.0
C497 C 0.92051 0.767 0.38818 0.0
H498 H 0.91777 0.75191 0.41631 0.0
H499 H 0.91733 0.76662 0.34285 0.0
H500 H 0.919 0.78493 0.40998 0.0
O501 O 0.93384 0.68698 0.43468 0.0
O502 O 0.94819 0.69326 0.42798 0.0
H503 H 0.95739 0.77879 0.40135 0.0
H504 H 0.95281 0.80064 0.34816 0.0
C505 C 0.95321 0.78089 0.36043 0.0
H506 H 0.95635 0.77093 0.32239 0.0
H507 H 0.96191 0.72893 0.47058 0.0
O508 O 0.91675 0.70909 0.36593 0.0
C509 C 0.94166 0.68231 0.45174 0.0
Co510 Co 0.83 0.03173 0.36649 0.0
Co511 Co 0.80937 0.03903 0.36387 0.0
C512 C 0.82107 0.06479 0.27515 0.0
O513 O 0.82774 0.0548 0.29976 0.0
O514 O 0.8133 0.06001 0.29345 0.0
C515 C 0.84745 0.02326 0.32066 0.0
O516 O 0.8436 0.02572 0.26758 0.0
C517 C 0.79075 0.03073 0.32587 0.0
C518 C 0.78416 0.03537 0.41448 0.0
C519 C 0.78263 0.02866 0.35464 0.0
N520 N 0.79677 0.03771 0.36748 0.0
N521 N 0.79271 0.04098 0.41988 0.0
C522 C 0.79295 0.02412 0.26169 0.0
H523 H 0.80013 0.0214 0.25649 0.0
H524 H 0.78938 0.00724 0.24767 0.0
H525 H 0.79087 0.03935 0.23133 0.0
C526 C 0.82493 0.97962 0.35396 0.0
N527 N 0.82285 0.00361 0.3594 0.0
N528 N 0.81425 0.00615 0.36026 0.0
C529 C 0.81061 0.98348 0.35672 0.0
C530 C 0.81723 0.96605 0.35178 0.0
C531 C 0.83412 0.97032 0.34732 0.0
H532 H 0.83797 0.97545 0.38821 0.0
H533 H 0.83721 0.97932 0.3075 0.0
H534 H 0.83436 0.95011 0.34085 0.0
O535 O 0.8275 0.04918 0.4422 0.0
O536 O 0.81318 0.05632 0.44 0.0
H537 H 0.79792 0.99095 0.39499 0.0
H538 H 0.79994 0.95894 0.37878 0.0
C539 C 0.80102 0.97805 0.36254 0.0
H540 H 0.79786 0.97988 0.31747 0.0
H541 H 0.79586 0.04588 0.46023 0.0
O542 O 0.84281 0.02412 0.36864 0.0
C543 C 0.82064 0.05857 0.46551 0.0
Co544 Co 0.58133 0.46582 0.62685 0.0
Co545 Co 0.56079 0.46674 0.60006 0.0
C546 C 0.57305 0.43786 0.52273 0.0
O547 O 0.57953 0.44479 0.55492 0.0
O548 O 0.56529 0.4452 0.53404 0.0
C549 C 0.5987 0.47448 0.58717 0.0
O550 O 0.59443 0.47714 0.5357 0.0
C551 C 0.5438 0.47732 0.53762 0.0
C552 C 0.53475 0.47873 0.6159 0.0
C553 C 0.53509 0.48171 0.55343 0.0
N554 N 0.5484 0.4725 0.58865 0.0
N555 N 0.5429 0.47314 0.63508 0.0
C556 C 0.5476 0.47646 0.47487 0.0
H557 H 0.55309 0.46317 0.47275 0.0
H558 H 0.55019 0.49485 0.46248 0.0
H559 H 0.54252 0.47115 0.44116 0.0
C560 C 0.5787 0.52003 0.61604 0.0
N561 N 0.57561 0.49673 0.61635 0.0
N562 N 0.56712 0.4971 0.60458 0.0
C563 C 0.56459 0.52067 0.59658 0.0
C564 C 0.57183 0.53591 0.60278 0.0
C565 C 0.58815 0.52675 0.62416 0.0
H566 H 0.59112 0.51527 0.66038 0.0
H567 H 0.59169 0.5233 0.58101 0.0
H568 H 0.58898 0.54643 0.63591 0.0
O569 O 0.57647 0.44751 0.69751 0.0
O570 O 0.56218 0.44802 0.67686 0.0
H571 H 0.55085 0.51903 0.6169 0.0
H572 H 0.55457 0.54887 0.5922 0.0
C573 C 0.55534 0.52874 0.58541 0.0
H574 H 0.55347 0.52417 0.53813 0.0
H575 H 0.54475 0.47015 0.68016 0.0
O576 O 0.59437 0.46969 0.63522 0.0
C577 C 0.5686 0.44146 0.71033 0.0
Co578 Co 0.68073 0.7835 0.62847 0.0
Co579 Co 0.70145 0.78835 0.6258 0.0
C580 C 0.69017 0.8179 0.54269 0.0
O581 O 0.68336 0.80827 0.56619 0.0
O582 O 0.69786 0.81139 0.5591 0.0
C583 C 0.6636 0.77743 0.57689 0.0
O584 O 0.66794 0.78044 0.52588 0.0
C585 C 0.71992 0.78138 0.58389 0.0
C586 C 0.72705 0.78726 0.67009 0.0
C587 C 0.72829 0.78206 0.60909 0.0
N588 N 0.71403 0.78582 0.62826 0.0
N589 N 0.71837 0.78924 0.67959 0.0
C590 C 0.71758 0.77811 0.51836 0.0
H591 H 0.71067 0.78349 0.51002 0.0
H592 H 0.71841 0.75851 0.50548 0.0
H593 H 0.72205 0.78921 0.48943 0.0
C594 C 0.68512 0.73105 0.61919 0.0
N595 N 0.68752 0.75485 0.61811 0.0
N596 N 0.69615 0.7564 0.6182 0.0
C597 C 0.69949 0.73336 0.61974 0.0
C598 C 0.6926 0.71659 0.62023 0.0
C599 C 0.6758 0.72253 0.6232 0.0
H600 H 0.67284 0.72943 0.66601 0.0
H601 H 0.67202 0.73039 0.58478 0.0
H602 H 0.67528 0.70216 0.62157 0.0
O603 O 0.6834 0.79845 0.70722 0.0
O604 O 0.69783 0.80411 0.70433 0.0
H605 H 0.71168 0.73906 0.66613 0.0
H606 H 0.71003 0.70785 0.63999 0.0
C607 C 0.709 0.72756 0.62889 0.0
H608 H 0.71264 0.73193 0.5867 0.0
H609 H 0.71539 0.79313 0.7212 0.0
O610 O 0.66782 0.77706 0.62675 0.0
C611 C 0.69046 0.80643 0.73105 0.0
Co612 Co 0.5807 0.78726 0.62348 0.0
Co613 Co 0.56008 0.78064 0.63231 0.0
C614 C 0.5705 0.80335 0.73359 0.0
O615 O 0.57779 0.80154 0.70518 0.0
O616 O 0.56334 0.79542 0.71084 0.0
C617 C 0.59983 0.78413 0.64799 0.0
O618 O 0.59804 0.78477 0.70636 0.0
C619 C 0.54165 0.7719 0.67215 0.0
C620 C 0.53525 0.76622 0.58307 0.0
C621 C 0.53356 0.76771 0.64476 0.0
N622 N 0.54783 0.77271 0.62839 0.0
N623 N 0.54394 0.76916 0.57541 0.0
C624 C 0.54343 0.77795 0.73728 0.0
H625 H 0.54551 0.79749 0.74037 0.0
H626 H 0.54893 0.76643 0.7541 0.0
H627 H 0.53758 0.77527 0.7664 0.0
C628 C 0.5793 0.73309 0.60303 0.0
N629 N 0.57566 0.75531 0.61378 0.0
N630 N 0.56708 0.7527 0.617 0.0
C631 C 0.56501 0.72885 0.60847 0.0
C632 C 0.57266 0.71571 0.59914 0.0
C633 C 0.58892 0.72877 0.595 0.0
H634 H 0.59143 0.74073 0.558 0.0
H635 H 0.59239 0.7339 0.63746 0.0
H636 H 0.59035 0.70923 0.58401 0.0
O637 O 0.57624 0.81055 0.56062 0.0
O638 O 0.56186 0.80596 0.56969 0.0
H639 H 0.5523 0.72425 0.56933 0.0
H640 H 0.55593 0.69824 0.61362 0.0
C641 C 0.5559 0.71864 0.61089 0.0
H642 H 0.5524 0.72617 0.65095 0.0
H643 H 0.54721 0.76939 0.53374 0.0
O644 O 0.59361 0.78513 0.60955 0.0
C645 C 0.56845 0.81633 0.54537 0.0
Co646 Co 0.6817 0.46963 0.6205 0.0
Co647 Co 0.70248 0.46502 0.62313 0.0
C648 C 0.69078 0.44598 0.72451 0.0
O649 O 0.68383 0.45423 0.69962 0.0
O650 O 0.69829 0.44858 0.69965 0.0
C651 C 0.66277 0.46876 0.64303 0.0
O652 O 0.66471 0.45452 0.68937 0.0
C653 C 0.71989 0.47255 0.67795 0.0
C654 C 0.72873 0.4717 0.59852 0.0
C655 C 0.72866 0.47475 0.66109 0.0
N656 N 0.71505 0.46832 0.62785 0.0
N657 N 0.72039 0.46773 0.58053 0.0
C658 C 0.71599 0.47647 0.73964 0.0
H659 H 0.7092 0.48361 0.73552 0.0
H660 H 0.72 0.48959 0.76658 0.0
H661 H 0.71573 0.4586 0.764 0.0
C662 C 0.68606 0.52198 0.61392 0.0
N663 N 0.68854 0.49825 0.61311 0.0
N664 N 0.69716 0.4969 0.61402 0.0
C665 C 0.70043 0.52005 0.61481 0.0
C666 C 0.69349 0.53665 0.61525 0.0
C667 C 0.6767 0.53026 0.61707 0.0
H668 H 0.673 0.52219 0.57851 0.0
H669 H 0.67371 0.52339 0.6598 0.0
H670 H 0.67613 0.55061 0.61508 0.0
O671 O 0.68482 0.44515 0.55869 0.0
O672 O 0.69935 0.44223 0.55436 0.0
H673 H 0.71383 0.51553 0.58813 0.0
H674 H 0.71117 0.54614 0.61438 0.0
C675 C 0.70994 0.52622 0.62146 0.0
H676 H 0.71216 0.5212 0.6678 0.0
H677 H 0.71832 0.46498 0.53582 0.0
O678 O 0.66893 0.47711 0.6098 0.0
C679 C 0.69174 0.43565 0.53637 0.0
Co680 Co 0.43112 0.5345 0.3859 0.0
Co681 Co 0.45175 0.53518 0.36645 0.0
C682 C 0.44283 0.55697 0.47807 0.0
O683 O 0.43509 0.55081 0.46198 0.0
O684 O 0.44951 0.5518 0.44548 0.0
C685 C 0.41214 0.53941 0.41254 0.0
O686 O 0.41416 0.55722 0.45044 0.0
C687 C 0.47066 0.52472 0.39309 0.0
C688 C 0.47644 0.53159 0.3027 0.0
C689 C 0.47862 0.52507 0.36173 0.0
N690 N 0.46416 0.53074 0.35408 0.0
N691 N 0.4677 0.53468 0.30016 0.0
C692 C 0.46924 0.51988 0.45929 0.0
H693 H 0.46269 0.52632 0.47391 0.0
H694 H 0.46959 0.49977 0.4677 0.0
H695 H 0.47441 0.52905 0.48673 0.0
C696 C 0.43416 0.48132 0.36633 0.0
N697 N 0.43719 0.5045 0.3718 0.0
N698 N 0.44573 0.50454 0.36285 0.0
C699 C 0.44839 0.48129 0.35145 0.0
C700 C 0.44114 0.46582 0.35314 0.0
C701 C 0.42475 0.4742 0.37457 0.0
H702 H 0.4221 0.48316 0.41595 0.0
H703 H 0.42396 0.45396 0.37873 0.0
H704 H 0.4209 0.48081 0.33497 0.0
O705 O 0.43323 0.55805 0.31924 0.0
O706 O 0.44756 0.5582 0.30193 0.0
H707 H 0.4601 0.48679 0.29962 0.0
H708 H 0.45805 0.45502 0.31946 0.0
C709 C 0.45761 0.47433 0.33557 0.0
H710 H 0.46182 0.47657 0.37626 0.0
H711 H 0.46415 0.53979 0.26164 0.0
O712 O 0.41823 0.52812 0.38448 0.0
C713 C 0.43987 0.56599 0.29013 0.0
Co714 Co 0.33057 0.21246 0.35986 0.0
Co715 Co 0.31005 0.22239 0.36139 0.0
C716 C 0.31937 0.19161 0.4571 0.0
O717 O 0.32708 0.19453 0.43549 0.0
O718 O 0.3127 0.20159 0.43232 0.0
C719 C 0.34978 0.21082 0.38557 0.0
O720 O 0.34789 0.20759 0.44329 0.0
C721 C 0.29315 0.23643 0.41531 0.0
C722 C 0.2844 0.23773 0.33537 0.0
C723 C 0.28444 0.23993 0.39814 0.0
N724 N 0.29795 0.23202 0.36526 0.0
N725 N 0.29268 0.23299 0.31756 0.0
C726 C 0.29701 0.2382 0.47767 0.0
H727 H 0.30397 0.24415 0.47488 0.0
H728 H 0.29324 0.25132 0.50612 0.0
H729 H 0.29684 0.21981 0.49948 0.0
C730 C 0.33042 0.26727 0.35994 0.0
N731 N 0.32621 0.24545 0.35998 0.0
N732 N 0.3177 0.24948 0.35838 0.0
C733 C 0.31621 0.27388 0.35612 0.0
C734 C 0.32423 0.28603 0.35731 0.0
C735 C 0.34015 0.26992 0.36612 0.0
H736 H 0.34335 0.2639 0.32332 0.0
H737 H 0.3425 0.25785 0.40333 0.0
H738 H 0.3421 0.28914 0.37637 0.0
O739 O 0.32574 0.19326 0.28981 0.0
O740 O 0.31148 0.20149 0.28993 0.0
H741 H 0.30343 0.27431 0.31571 0.0
H742 H 0.30766 0.30443 0.33333 0.0
C743 C 0.30729 0.28507 0.34909 0.0
H744 H 0.30383 0.2844 0.3934 0.0
H745 H 0.29471 0.22985 0.27294 0.0
O746 O 0.34358 0.21295 0.34712 0.0
C747 C 0.31809 0.19052 0.26747 0.0
Co748 Co 0.43092 0.21698 0.37738 0.0
Co749 Co 0.45174 0.21569 0.37245 0.0
C750 C 0.44123 0.18265 0.29414 0.0
O751 O 0.43433 0.19146 0.31846 0.0
O752 O 0.44884 0.19092 0.30755 0.0
C753 C 0.41378 0.22051 0.32328 0.0
O754 O 0.41832 0.21907 0.27266 0.0
C755 C 0.47056 0.22486 0.33662 0.0
C756 C 0.47611 0.23221 0.42752 0.0
C757 C 0.47826 0.23198 0.36634 0.0
N758 N 0.4642 0.22159 0.37863 0.0
N759 N 0.46766 0.22561 0.43278 0.0
C760 C 0.46905 0.22317 0.26961 0.0
H761 H 0.46191 0.22325 0.25934 0.0
H762 H 0.47233 0.23866 0.24587 0.0
H763 H 0.4719 0.2057 0.25251 0.0
C764 C 0.434 0.26965 0.35451 0.0
N765 N 0.43697 0.24657 0.36259 0.0
N766 N 0.44561 0.2465 0.36028 0.0
C767 C 0.44838 0.26984 0.35039 0.0
C768 C 0.4411 0.28522 0.3461 0.0
C769 C 0.42453 0.27675 0.35843 0.0
H770 H 0.4213 0.26638 0.39562 0.0
H771 H 0.42123 0.27194 0.31508 0.0
H772 H 0.42374 0.29677 0.36683 0.0
O773 O 0.43385 0.20451 0.45794 0.0
O774 O 0.44832 0.20022 0.45247 0.0
H775 H 0.46152 0.27214 0.38407 0.0
H776 H 0.45854 0.29704 0.33356 0.0
C777 C 0.45778 0.27709 0.3426 0.0
H778 H 0.46058 0.26686 0.30374 0.0
H779 H 0.46414 0.22477 0.47339 0.0
O780 O 0.41786 0.22069 0.37372 0.0
C781 C 0.44109 0.1976 0.48097 0.0
Co782 Co 0.33073 0.53814 0.39682 0.0
Co783 Co 0.31022 0.53166 0.37606 0.0
C784 C 0.32076 0.55915 0.2876 0.0
O785 O 0.32745 0.5551 0.32091 0.0
O786 O 0.31318 0.55087 0.30154 0.0
C787 C 0.34812 0.53065 0.35417 0.0
O788 O 0.34377 0.52434 0.30502 0.0
C789 C 0.29183 0.51774 0.3388 0.0
C790 C 0.28654 0.5084 0.4294 0.0
C791 C 0.28435 0.50902 0.36835 0.0
N792 N 0.29812 0.52183 0.38084 0.0
N793 N 0.29483 0.51643 0.43477 0.0
C794 C 0.29323 0.52033 0.27185 0.0
H795 H 0.30034 0.51986 0.26097 0.0
H796 H 0.28977 0.50546 0.24693 0.0
H797 H 0.29054 0.53828 0.25667 0.0
C798 C 0.32979 0.4838 0.39838 0.0
N799 N 0.32595 0.50609 0.39593 0.0
N800 N 0.31755 0.5033 0.38384 0.0
C801 C 0.31583 0.47908 0.37719 0.0
C802 C 0.32355 0.46599 0.38602 0.0
C803 C 0.33927 0.47946 0.4125 0.0
H804 H 0.34173 0.49369 0.44433 0.0
H805 H 0.34313 0.4803 0.36984 0.0
H806 H 0.34023 0.46096 0.43293 0.0
O807 O 0.3261 0.55767 0.46478 0.0
O808 O 0.31184 0.55418 0.44631 0.0
H809 H 0.3024 0.47044 0.3947 0.0
H810 H 0.30768 0.44942 0.34281 0.0
C811 C 0.30718 0.46897 0.35689 0.0
H812 H 0.30468 0.47997 0.31816 0.0
H813 H 0.29835 0.5177 0.47534 0.0
O814 O 0.34385 0.53741 0.40092 0.0
C815 C 0.31817 0.56296 0.47722 0.0
Co816 Co 0.58038 0.96149 0.12967 0.0
Co817 Co 0.5597 0.9684 0.12405 0.0
C818 C 0.56986 0.93329 0.04151 0.0
O819 O 0.57747 0.93924 0.06075 0.0
O820 O 0.56292 0.9433 0.06255 0.0
C821 C 0.59966 0.96002 0.10695 0.0
O822 O 0.59799 0.95123 0.05255 0.0
C823 C 0.54318 0.98467 0.06539 0.0
C824 C 0.53373 0.98139 0.14099 0.0
C825 C 0.53438 0.98812 0.08038 0.0
N826 N 0.54749 0.9766 0.115 0.0
N827 N 0.54178 0.97464 0.15994 0.0
C828 C 0.54742 0.98756 0.00447 0.0
H829 H 0.55349 0.97635 0.00179 0.0
H830 H 0.54927 0.00711 0.99763 0.0
H831 H 0.54282 0.98209 0.96775 0.0
C832 C 0.57942 0.01571 0.11728 0.0
N833 N 0.5755 0.99349 0.11863 0.0
N834 N 0.56694 0.99659 0.11935 0.0
C835 C 0.56514 0.02089 0.12062 0.0
C836 C 0.573 0.03386 0.11906 0.0
C837 C 0.58914 0.01935 0.11392 0.0
H838 H 0.59209 0.0153 0.15894 0.0
H839 H 0.59196 0.00641 0.08024 0.0
H840 H 0.59084 0.03842 0.10032 0.0
O841 O 0.57564 0.94573 0.20526 0.0
O842 O 0.56127 0.9525 0.20323 0.0
H843 H 0.55236 0.01893 0.16143 0.0
H844 H 0.55653 0.04978 0.15285 0.0
C845 C 0.55618 0.03131 0.13145 0.0
H846 H 0.5527 0.03304 0.08741 0.0
H847 H 0.54338 0.96867 0.20364 0.0
O848 O 0.59334 0.96471 0.14292 0.0
C849 C 0.56804 0.94365 0.22902 0.0
Co850 Co 0.6818 0.28214 0.1222 0.0
Co851 Co 0.70256 0.28802 0.11933 0.0
C852 C 0.69091 0.31608 0.03421 0.0
O853 O 0.68411 0.3063 0.05777 0.0
O854 O 0.69864 0.31021 0.05152 0.0
C855 C 0.66295 0.28355 0.09456 0.0
O856 O 0.66502 0.30033 0.05403 0.0
C857 C 0.72112 0.27897 0.07983 0.0
C858 C 0.72783 0.28277 0.16826 0.0
C859 C 0.72927 0.27643 0.10808 0.0
N860 N 0.71518 0.2859 0.12204 0.0
N861 N 0.71932 0.28863 0.17436 0.0
C862 C 0.71881 0.27294 0.01547 0.0
H863 H 0.71161 0.27059 0.01049 0.0
H864 H 0.72227 0.25602 0.00054 0.0
H865 H 0.72094 0.28831 0.98571 0.0
C866 C 0.68645 0.2302 0.10362 0.0
N867 N 0.68878 0.25389 0.11152 0.0
N868 N 0.6974 0.2557 0.11293 0.0
C869 C 0.7008 0.23282 0.10762 0.0
C870 C 0.694 0.21603 0.10077 0.0
C871 C 0.67718 0.22172 0.0959 0.0
H872 H 0.6738 0.22245 0.14053 0.0
H873 H 0.67368 0.2343 0.06441 0.0
H874 H 0.67683 0.2027 0.07778 0.0
O875 O 0.68458 0.2983 0.19978 0.0
O876 O 0.69897 0.3044 0.19693 0.0
H877 H 0.7135 0.23905 0.14719 0.0
H878 H 0.71117 0.2073 0.12983 0.0
C879 C 0.71032 0.22657 0.1141 0.0
H880 H 0.71358 0.22837 0.06936 0.0
H881 H 0.71625 0.29339 0.21505 0.0
O882 O 0.669 0.27358 0.12597 0.0
C883 C 0.69158 0.30683 0.22326 0.0
Co884 Co 0.58141 0.28555 0.09983 0.0
Co885 Co 0.56088 0.28218 0.126 0.0
C886 C 0.57274 0.30924 0.20934 0.0
O887 O 0.57925 0.30384 0.17567 0.0
O888 O 0.56501 0.30191 0.19672 0.0
C889 C 0.59871 0.27546 0.13919 0.0
O890 O 0.59428 0.2699 0.18856 0.0
C891 C 0.54353 0.27385 0.18433 0.0
C892 C 0.5352 0.26537 0.10491 0.0
C893 C 0.53494 0.26804 0.16754 0.0
N894 N 0.54854 0.27473 0.13394 0.0
N895 N 0.5435 0.26963 0.08671 0.0
C896 C 0.54712 0.27682 0.24722 0.0
H897 H 0.55406 0.27074 0.24879 0.0
H898 H 0.54323 0.26602 0.2805 0.0
H899 H 0.54688 0.29657 0.26005 0.0
C900 C 0.57933 0.23131 0.10058 0.0
N901 N 0.57597 0.25419 0.10395 0.0
N902 N 0.56756 0.25267 0.11735 0.0
C903 C 0.56537 0.22873 0.12381 0.0
C904 C 0.57278 0.21447 0.11359 0.0
C905 C 0.58863 0.22547 0.08426 0.0
H906 H 0.59121 0.23929 0.05176 0.0
H907 H 0.59271 0.22571 0.12598 0.0
H908 H 0.58912 0.20686 0.06372 0.0
O909 O 0.57653 0.30551 0.03266 0.0
O910 O 0.56224 0.30346 0.0528 0.0
H911 H 0.55169 0.22337 0.10773 0.0
H912 H 0.55659 0.19996 0.15512 0.0
C913 C 0.55655 0.2199 0.14423 0.0
H914 H 0.55449 0.23034 0.18506 0.0
H915 H 0.54573 0.26904 0.04191 0.0
O916 O 0.59451 0.28273 0.09247 0.0
C917 C 0.56862 0.31145 0.02081 0.0
Co918 Co 0.68056 0.9694 0.12692 0.0
Co919 Co 0.70133 0.96446 0.12818 0.0
C920 C 0.69004 0.94719 0.23227 0.0
O921 O 0.68307 0.95504 0.20702 0.0
O922 O 0.6975 0.94939 0.20667 0.0
C923 C 0.66328 0.98227 0.16826 0.0
O924 O 0.66755 0.98733 0.21862 0.0
C925 C 0.71892 0.97214 0.17929 0.0
C926 C 0.72752 0.96957 0.09881 0.0
C927 C 0.72765 0.97359 0.16104 0.0
N928 N 0.71391 0.96742 0.1303 0.0
N929 N 0.7191 0.96578 0.08235 0.0
C930 C 0.71522 0.9775 0.24091 0.0
H931 H 0.7085 0.98516 0.23672 0.0
H932 H 0.71943 0.99074 0.26597 0.0
H933 H 0.71482 0.9601 0.26724 0.0
C934 C 0.68516 0.02157 0.10352 0.0
N935 N 0.6874 0.99798 0.11414 0.0
N936 N 0.69602 0.99608 0.11524 0.0
C937 C 0.69952 0.01854 0.10545 0.0
C938 C 0.69276 0.03543 0.09757 0.0
C939 C 0.6759 0.03034 0.09674 0.0
H940 H 0.67209 0.01688 0.06958 0.0
H941 H 0.67285 0.03164 0.14239 0.0
H942 H 0.67561 0.04864 0.07442 0.0
O943 O 0.68342 0.94395 0.0666 0.0
O944 O 0.69796 0.9408 0.0625 0.0
H945 H 0.71245 0.01374 0.06979 0.0
H946 H 0.71058 0.04382 0.10256 0.0
C947 C 0.70915 0.02391 0.107 0.0
H948 H 0.7119 0.01753 0.1508 0.0
H949 H 0.71688 0.96241 0.03825 0.0
O950 O 0.6676 0.97532 0.12189 0.0
C951 C 0.69034 0.93413 0.04506 0.0
Co952 Co 0.43046 0.03495 0.87409 0.0
Co953 Co 0.45131 0.03731 0.87418 0.0
C954 C 0.44033 0.05466 0.9807 0.0
O955 O 0.43316 0.04789 0.95581 0.0
O956 O 0.44773 0.05189 0.95422 0.0
C957 C 0.41126 0.0353 0.89541 0.0
O958 O 0.4129 0.04591 0.94783 0.0
C959 C 0.47018 0.02906 0.90974 0.0
C960 C 0.47647 0.03495 0.82055 0.0
C961 C 0.47832 0.02972 0.88082 0.0
N962 N 0.46387 0.03368 0.86812 0.0
N963 N 0.46773 0.03702 0.815 0.0
C964 C 0.46845 0.02536 0.97603 0.0
H965 H 0.4619 0.03246 0.98867 0.0
H966 H 0.46862 0.00537 0.98634 0.0
H967 H 0.47357 0.03462 0.00367 0.0
C968 C 0.43417 0.98279 0.84904 0.0
N969 N 0.43692 0.00596 0.85919 0.0
N970 N 0.44556 0.00641 0.86052 0.0
C971 C 0.44856 0.98328 0.85174 0.0
C972 C 0.44144 0.96761 0.84393 0.0
C973 C 0.42473 0.9753 0.84741 0.0
H974 H 0.42153 0.98378 0.8072 0.0
H975 H 0.42136 0.98235 0.88858 0.0
H976 H 0.42395 0.95501 0.84524 0.0
O977 O 0.43351 0.06111 0.81628 0.0
O978 O 0.44804 0.06211 0.81074 0.0
H979 H 0.46141 0.98744 0.81429 0.0
H980 H 0.45898 0.95656 0.84006 0.0
C981 C 0.45806 0.97643 0.84984 0.0
H982 H 0.46113 0.98093 0.89415 0.0
H983 H 0.46437 0.04106 0.77486 0.0
O984 O 0.41762 0.02908 0.86118 0.0
C985 C 0.44054 0.07019 0.79474 0.0
Co986 Co 0.3306 0.71435 0.87242 0.0
Co987 Co 0.31011 0.71935 0.89713 0.0
C988 C 0.32137 0.689 0.97737 0.0
O989 O 0.32794 0.69447 0.94446 0.0
O990 O 0.31377 0.69774 0.96629 0.0
C991 C 0.34816 0.71892 0.9131 0.0
O992 O 0.344 0.72123 0.96507 0.0
C993 C 0.29215 0.72515 0.94922 0.0
C994 C 0.2852 0.74235 0.87198 0.0
C995 C 0.28405 0.7344 0.93116 0.0
N996 N 0.29785 0.72773 0.90282 0.0
N997 N 0.29359 0.73776 0.85665 0.0
C998 C 0.29452 0.71483 0.01003 0.0
H999 H 0.29526 0.69457 0.00605 0.0
H1000 H 0.30092 0.72248 0.02492 0.0
H1001 H 0.28943 0.719 0.04451 0.0
C1002 C 0.32926 0.76829 0.87112 0.0
N1003 N 0.32564 0.74598 0.87956 0.0
N1004 N 0.31721 0.74851 0.89145 0.0
C1005 C 0.31526 0.77278 0.89168 0.0
C1006 C 0.32282 0.78605 0.87813 0.0
C1007 C 0.33877 0.77233 0.85702 0.0
H1008 H 0.34071 0.76072 0.81781 0.0
H1009 H 0.34273 0.7667 0.89685 0.0
H1010 H 0.34029 0.79187 0.84727 0.0
O1011 O 0.32565 0.69686 0.80225 0.0
O1012 O 0.31136 0.69938 0.82175 0.0
H1013 H 0.30258 0.78078 0.85586 0.0
H1014 H 0.30627 0.80274 0.91089 0.0
C1015 C 0.3062 0.78291 0.89924 0.0
H1016 H 0.30268 0.77267 0.93535 0.0
H1017 H 0.29644 0.74161 0.81461 0.0
O1018 O 0.34369 0.71593 0.86482 0.0
C1019 C 0.31771 0.69179 0.78904 0.0
Co1020 Co 0.43106 0.71637 0.86846 0.0
Co1021 Co 0.45167 0.71868 0.88433 0.0
C1022 C 0.44228 0.68633 0.79001 0.0
O1023 O 0.43451 0.69377 0.80135 0.0
O1024 O 0.44884 0.69464 0.81939 0.0
C1025 C 0.41191 0.71568 0.83808 0.0
O1026 O 0.41373 0.70581 0.78507 0.0
C1027 C 0.46896 0.73074 0.83226 0.0
C1028 C 0.47753 0.73102 0.91323 0.0
C1029 C 0.47753 0.73513 0.85106 0.0
N1030 N 0.46409 0.72486 0.88123 0.0
N1031 N 0.46928 0.72487 0.92939 0.0
C1032 C 0.46552 0.73113 0.76841 0.0
H1033 H 0.45988 0.71852 0.76333 0.0
H1034 H 0.46324 0.74992 0.75687 0.0
H1035 H 0.47074 0.72581 0.73575 0.0
C1036 C 0.43365 0.77005 0.85263 0.0
N1037 N 0.43681 0.7473 0.86316 0.0
N1038 N 0.44531 0.74867 0.8731 0.0
C1039 C 0.44779 0.77253 0.87041 0.0
C1040 C 0.44049 0.78688 0.85668 0.0
C1041 C 0.42415 0.77546 0.84158 0.0
H1042 H 0.42027 0.76925 0.88138 0.0
H1043 H 0.42186 0.76487 0.80146 0.0
H1044 H 0.42293 0.79537 0.83437 0.0
O1045 O 0.43417 0.7 0.94588 0.0
O1046 O 0.44853 0.70229 0.96225 0.0
H1047 H 0.46028 0.77066 0.91524 0.0
H1048 H 0.45738 0.8011 0.88946 0.0
C1049 C 0.45704 0.78125 0.8785 0.0
H1050 H 0.46071 0.77833 0.83573 0.0
H1051 H 0.46717 0.721 0.97348 0.0
O1052 O 0.41811 0.72107 0.87442 0.0
C1053 C 0.44088 0.69547 0.97854 0.0
Co1054 Co 0.3301 0.03951 0.86198 0.0
Co1055 Co 0.30951 0.02992 0.86133 0.0
C1056 C 0.31811 0.06129 0.767 0.0
O1057 O 0.32574 0.05833 0.78986 0.0
O1058 O 0.31138 0.05081 0.78958 0.0
C1059 C 0.34762 0.03656 0.81333 0.0
O1060 O 0.34337 0.03382 0.76183 0.0
C1061 C 0.29142 0.01492 0.82405 0.0
C1062 C 0.28545 0.00857 0.91414 0.0
C1063 C 0.28366 0.0076 0.85242 0.0
N1064 N 0.29745 0.01981 0.86728 0.0
N1065 N 0.29379 0.01618 0.92091 0.0
C1066 C 0.29332 0.01563 0.75741 0.0
H1067 H 0.30049 0.01416 0.74922 0.0
H1068 H 0.28985 1.00048 0.73359 0.0
H1069 H 0.29101 0.03343 0.73856 0.0
C1070 C 0.32985 0.98451 0.86006 0.0
N1071 N 0.32574 0.0065 0.86133 0.0
N1072 N 0.3172 0.00269 0.86118 0.0
C1073 C 0.31562 0.97831 0.86015 0.0
C1074 C 0.32358 0.96605 0.85937 0.0
C1075 C 0.33958 0.98112 0.8604 0.0
H1076 H 0.34261 0.99364 0.89425 0.0
H1077 H 0.34222 0.98575 0.81483 0.0
H1078 H 0.34139 0.96183 0.87133 0.0
O1079 O 0.32611 0.05751 0.93594 0.0
O1080 O 0.31176 0.05061 0.93264 0.0
H1081 H 0.30287 0.9721 0.89755 0.0
H1082 H 0.30696 0.9467 0.85279 0.0
C1083 C 0.30668 0.96704 0.85647 0.0
H1084 H 0.3032 0.97443 0.81618 0.0
H1085 H 0.29703 0.01854 0.96227 0.0
O1086 O 0.34326 0.03952 0.86204 0.0
C1087 C 0.31842 0.0605 0.95749 0.0
H1088 H 0.06388 0.57472 0.18259 0.0
H1089 H 0.07523 0.55767 0.00717 0.0
H1090 H 0.07599 0.60216 0.98286 0.0
H1091 H 0.05089 0.6279 0.13464 0.0
H1092 H 0.05304 0.64497 0.20328 0.0
H1093 H 0.05284 0.6118 0.20502 0.0
H1094 H 0.06849 0.6114 0.25109 0.0
H1095 H 0.06875 0.64453 0.24939 0.0
H1096 H 0.07725 0.62713 0.21202 0.0
H1097 H 0.07571 0.64832 0.97851 0.0
H1098 H 0.07504 0.69329 0.99611 0.0
H1099 H 0.06461 0.68056 0.17656 0.0
C1100 C 0.06639 0.58048 0.13881 0.0
C1101 C 0.06939 0.56302 0.0962 0.0
C1102 C 0.07284 0.57097 0.0399 0.0
C1103 C 0.07328 0.59611 0.0258 0.0
C1104 C 0.07031 0.61299 0.06884 0.0
C1105 C 0.06697 0.60555 0.12432 0.0
C1106 C 0.06466 0.62751 0.16369 0.0
C1107 C 0.05477 0.62807 0.17745 0.0
C1108 C 0.07011 0.62764 0.22252 0.0
C1109 C 0.06728 0.64843 0.12188 0.0
C1110 C 0.07044 0.63963 0.06717 0.0
C1111 C 0.07328 0.65542 0.02125 0.0
C1112 C 0.07292 0.68086 0.03171 0.0
C1113 C 0.06988 0.69022 0.08783 0.0
C1114 C 0.06696 0.67378 0.13324 0.0
H1115 H 0.1991 0.57562 0.09358 0.0
H1116 H 0.17762 0.56039 0.21695 0.0
H1117 H 0.17604 0.60495 0.23745 0.0
H1118 H 0.20854 0.62699 0.17997 0.0
H1119 H 0.21136 0.64418 0.11267 0.0
H1120 H 0.21113 0.61101 0.11045 0.0
H1121 H 0.20017 0.61247 0.02045 0.0
H1122 H 0.20038 0.64559 0.02231 0.0
H1123 H 0.19008 0.62948 0.0285 0.0
H1124 H 0.1763 0.65089 0.24037 0.0
H1125 H 0.1782 0.69563 0.22404 0.0
H1126 H 0.1996 0.68118 0.09942 0.0
C1127 C 0.19416 0.58176 0.12547 0.0
C1128 C 0.18847 0.5648 0.15379 0.0
C1129 C 0.18198 0.57328 0.19462 0.0
C1130 C 0.18108 0.59846 0.20677 0.0
C1131 C 0.18675 0.6148 0.17786 0.0
C1132 C 0.19317 0.60684 0.1381 0.0
C1133 C 0.19816 0.62833 0.11101 0.0
C1134 C 0.20787 0.62757 0.12966 0.0
C1135 C 0.19713 0.629 0.04145 0.0
C1136 C 0.19343 0.64962 0.14093 0.0
C1137 C 0.18692 0.64139 0.17967 0.0
C1138 C 0.18142 0.65758 0.21053 0.0
C1139 C 0.18252 0.68287 0.20087 0.0
C1140 C 0.18903 0.69163 0.1606 0.0
C1141 C 0.19465 0.67484 0.13106 0.0
H1142 H 0.9325 0.42694 0.82195 0.0
H1143 H 0.94449 0.44114 0.99692 0.0
H1144 H 0.94495 0.39637 0.0179 0.0
H1145 H 0.91943 0.37214 0.86807 0.0
H1146 H 0.92141 0.35656 0.79707 0.0
H1147 H 0.92096 0.38971 0.79938 0.0
H1148 H 0.93638 0.39187 0.75012 0.0
H1149 H 0.9369 0.35879 0.74806 0.0
H1150 H 0.94542 0.37605 0.78569 0.0
H1151 H 0.94526 0.35041 0.01611 0.0
H1152 H 0.94547 0.30596 0.99147 0.0
H1153 H 0.93369 0.32133 0.81628 0.0
C1154 C 0.93498 0.42051 0.86525 0.0
C1155 C 0.93834 0.43721 0.90839 0.0
C1156 C 0.9418 0.42841 0.96388 0.0
C1157 C 0.94208 0.40311 0.97608 0.0
C1158 C 0.93889 0.38695 0.93213 0.0
C1159 C 0.93538 0.39525 0.87788 0.0
C1160 C 0.93305 0.37394 0.83641 0.0
C1161 C 0.92312 0.37304 0.82455 0.0
C1162 C 0.93825 0.37525 0.77655 0.0
C1163 C 0.936 0.35244 0.87521 0.0
C1164 C 0.93925 0.36035 0.93052 0.0
C1165 C 0.94267 0.34397 0.97315 0.0
C1166 C 0.94282 0.31885 0.9587 0.0
C1167 C 0.93965 0.31045 0.90199 0.0
C1168 C 0.9361 0.32741 0.86009 0.0
H1169 H 0.82606 0.42964 0.91669 0.0
H1170 H 0.80933 0.4461 0.76266 0.0
H1171 H 0.80745 0.40153 0.74314 0.0
H1172 H 0.83696 0.37657 0.85018 0.0
H1173 H 0.83729 0.35972 0.92071 0.0
H1174 H 0.83747 0.39288 0.92144 0.0
H1175 H 0.82388 0.39324 0.99218 0.0
H1176 H 0.82364 0.36009 0.99152 0.0
H1177 H 0.81406 0.37728 0.96909 0.0
H1178 H 0.80733 0.35533 0.74099 0.0
H1179 H 0.80886 0.3104 0.75706 0.0
H1180 H 0.82547 0.32398 0.91338 0.0
C1181 C 0.8221 0.42376 0.87846 0.0
C1182 C 0.81788 0.4411 0.84074 0.0
C1183 C 0.8126 0.43293 0.79188 0.0
C1184 C 0.81152 0.40774 0.78044 0.0
C1185 C 0.81575 0.39102 0.81848 0.0
C1186 C 0.82094 0.39866 0.86652 0.0
C1187 C 0.8246 0.37689 0.90126 0.0
C1188 C 0.83468 0.3765 0.89819 0.0
C1189 C 0.82135 0.37688 0.96743 0.0
C1190 C 0.82065 0.35584 0.86539 0.0
C1191 C 0.81559 0.36439 0.81771 0.0
C1192 C 0.81126 0.34842 0.77823 0.0
C1193 C 0.81212 0.32301 0.78779 0.0
C1194 C 0.81723 0.31393 0.83652 0.0
C1195 C 0.82155 0.33056 0.87567 0.0
H1196 H 0.06134 0.07535 0.66249 0.0
H1197 H 0.0799 0.06164 0.51741 0.0
H1198 H 0.08092 0.10643 0.49757 0.0
H1199 H 0.05011 0.1277 0.59254 0.0
H1200 H 0.04901 0.14423 0.66316 0.0
H1201 H 0.04925 0.11105 0.66318 0.0
H1202 H 0.06228 0.11163 0.73884 0.0
H1203 H 0.06205 0.14476 0.73928 0.0
H1204 H 0.07203 0.1288 0.72001 0.0
H1205 H 0.08017 0.1524 0.49499 0.0
H1206 H 0.07861 0.19698 0.51492 0.0
H1207 H 0.06101 0.18129 0.66464 0.0
C1208 C 0.06553 0.0819 0.62619 0.0
C1209 C 0.0705 0.06528 0.59097 0.0
C1210 C 0.07605 0.07427 0.54458 0.0
C1211 C 0.07663 0.09958 0.53289 0.0
C1212 C 0.07165 0.1156 0.56836 0.0
C1213 C 0.06626 0.10718 0.61441 0.0
C1214 C 0.06204 0.12842 0.64824 0.0
C1215 C 0.05201 0.12781 0.64135 0.0
C1216 C 0.06477 0.1284 0.71557 0.0
C1217 C 0.06598 0.15009 0.61447 0.0
C1218 C 0.07141 0.14223 0.56804 0.0
C1219 C 0.07593 0.15877 0.53118 0.0
C1220 C 0.07503 0.18399 0.54286 0.0
C1221 C 0.06974 0.19241 0.59141 0.0
C1222 C 0.06504 0.17526 0.62694 0.0
H1223 H 0.18515 0.07494 0.69632 0.0
H1224 H 0.19547 0.0602 0.51653 0.0
H1225 H 0.19581 0.10488 0.4948 0.0
H1226 H 0.1714 0.12785 0.65292 0.0
H1227 H 0.17369 0.14441 0.72214 0.0
H1228 H 0.17369 0.11122 0.72204 0.0
H1229 H 0.18949 0.11119 0.76562 0.0
H1230 H 0.18954 0.14432 0.76574 0.0
H1231 H 0.19801 0.1277 0.72604 0.0
H1232 H 0.19588 0.1507 0.49483 0.0
H1233 H 0.19561 0.19538 0.51641 0.0
H1234 H 0.18517 0.18082 0.69603 0.0
C1235 C 0.18736 0.08125 0.6522 0.0
C1236 C 0.1903 0.0644 0.60796 0.0
C1237 C 0.19324 0.07304 0.55088 0.0
C1238 C 0.19342 0.09828 0.53815 0.0
C1239 C 0.19059 0.11454 0.58296 0.0
C1240 C 0.18758 0.10644 0.63877 0.0
C1241 C 0.18526 0.12789 0.67975 0.0
C1242 C 0.17543 0.12783 0.69511 0.0
C1243 C 0.19092 0.12776 0.7377 0.0
C1244 C 0.18761 0.14929 0.63868 0.0
C1245 C 0.19061 0.14113 0.58291 0.0
C1246 C 0.19348 0.15734 0.5381 0.0
C1247 C 0.19334 0.18259 0.55075 0.0
C1248 C 0.19037 0.19129 0.60769 0.0
C1249 C 0.18739 0.17449 0.65196 0.0
H1250 H 0.94656 0.92556 0.42545 0.0
H1251 H 0.92661 0.94029 0.28979 0.0
H1252 H 0.92369 0.89567 0.28047 0.0
H1253 H 0.95496 0.86971 0.35681 0.0
H1254 H 0.95678 0.85447 0.42848 0.0
H1255 H 0.95736 0.88755 0.42388 0.0
H1256 H 0.94567 0.89106 0.50888 0.0
H1257 H 0.945 0.858 0.51344 0.0
H1258 H 0.93524 0.87584 0.49962 0.0
H1259 H 0.92301 0.84974 0.28518 0.0
H1260 H 0.92487 0.80509 0.30191 0.0
H1261 H 0.94485 0.81989 0.4374 0.0
C1262 C 0.94163 0.91926 0.39353 0.0
C1263 C 0.93678 0.93616 0.35833 0.0
C1264 C 0.93034 0.92748 0.31731 0.0
C1265 C 0.92865 0.90224 0.31173 0.0
C1266 C 0.93345 0.88598 0.34763 0.0
C1267 C 0.93983 0.89407 0.38763 0.0
C1268 C 0.94401 0.87267 0.421 0.0
C1269 C 0.95386 0.87101 0.40667 0.0
C1270 C 0.94238 0.87451 0.48982 0.0
C1271 C 0.939 0.85132 0.39335 0.0
C1272 C 0.93294 0.85944 0.35113 0.0
C1273 C 0.92768 0.84315 0.31847 0.0
C1274 C 0.92872 0.81785 0.32864 0.0
C1275 C 0.93494 0.80913 0.37127 0.0
C1276 C 0.94005 0.82613 0.40452 0.0
H1277 H 0.8244 0.92819 0.41739 0.0
H1278 H 0.80773 0.94399 0.26267 0.0
H1279 H 0.80608 0.89934 0.24314 0.0
H1280 H 0.83565 0.87609 0.35188 0.0
H1281 H 0.83602 0.859 0.42204 0.0
H1282 H 0.83592 0.89216 0.42355 0.0
H1283 H 0.82219 0.89144 0.49305 0.0
H1284 H 0.82227 0.85829 0.49191 0.0
H1285 H 0.81256 0.8748 0.46896 0.0
H1286 H 0.8065 0.85309 0.23952 0.0
H1287 H 0.80837 0.80823 0.25513 0.0
H1288 H 0.82444 0.8225 0.41372 0.0
C1289 C 0.82045 0.92214 0.37928 0.0
C1290 C 0.81622 0.93934 0.34119 0.0
C1291 C 0.81099 0.93096 0.29229 0.0
C1292 C 0.81005 0.90571 0.28077 0.0
C1293 C 0.81436 0.88915 0.31887 0.0
C1294 C 0.81942 0.89699 0.36734 0.0
C1295 C 0.82322 0.87538 0.40197 0.0
C1296 C 0.8333 0.87568 0.3997 0.0
C1297 C 0.81986 0.87496 0.46787 0.0
C1298 C 0.81951 0.85416 0.36544 0.0
C1299 C 0.81446 0.8625 0.31749 0.0
C1300 C 0.81039 0.84634 0.27712 0.0
C1301 C 0.81146 0.82097 0.28637 0.0
C1302 C 0.81647 0.81209 0.33581 0.0
C1303 C 0.82059 0.82891 0.37551 0.0
H1304 H 0.57882 0.679 0.67223 0.0
H1305 H 0.56754 0.69344 0.49517 0.0
H1306 H 0.56708 0.64868 0.47396 0.0
H1307 H 0.59199 0.62442 0.62918 0.0
H1308 H 0.58968 0.60865 0.69947 0.0
H1309 H 0.59009 0.64181 0.6977 0.0
H1310 H 0.57443 0.64371 0.7432 0.0
H1311 H 0.57395 0.61061 0.74481 0.0
H1312 H 0.56559 0.62782 0.70535 0.0
H1313 H 0.56687 0.60278 0.475 0.0
H1314 H 0.5668 0.55823 0.49831 0.0
H1315 H 0.57762 0.57328 0.67667 0.0
C1316 C 0.57648 0.6726 0.62853 0.0
C1317 C 0.57336 0.68935 0.58466 0.0
C1318 C 0.57006 0.68065 0.52865 0.0
C1319 C 0.56978 0.65536 0.51637 0.0
C1320 C 0.57277 0.63914 0.56088 0.0
C1321 C 0.57606 0.64736 0.61586 0.0
C1322 C 0.57821 0.62599 0.6576 0.0
C1323 C 0.58808 0.62517 0.67181 0.0
C1324 C 0.57271 0.62711 0.71619 0.0
C1325 C 0.57549 0.60452 0.61787 0.0
C1326 C 0.57245 0.61255 0.56206 0.0
C1327 C 0.5693 0.59625 0.51832 0.0
C1328 C 0.56925 0.57107 0.53199 0.0
C1329 C 0.57227 0.56249 0.58894 0.0
C1330 C 0.57544 0.57942 0.63235 0.0
H1331 H 0.70019 0.57421 0.54603 0.0
H1332 H 0.68724 0.55839 0.71688 0.0
H1333 H 0.68654 0.6029 0.73983 0.0
H1334 H 0.71309 0.62759 0.60063 0.0
H1335 H 0.71174 0.64437 0.53055 0.0
H1336 H 0.71192 0.61118 0.52988 0.0
H1337 H 0.69685 0.61072 0.47529 0.0
H1338 H 0.69662 0.64385 0.476 0.0
H1339 H 0.6877 0.62666 0.50905 0.0
H1340 H 0.6862 0.6486 0.7408 0.0
H1341 H 0.68638 0.69336 0.72018 0.0
H1342 H 0.69967 0.68027 0.54922 0.0
C1343 C 0.69736 0.58025 0.58866 0.0
C1344 C 0.69378 0.56312 0.62997 0.0
C1345 C 0.69001 0.57142 0.68492 0.0
C1346 C 0.68961 0.59658 0.69833 0.0
C1347 C 0.69306 0.61313 0.65633 0.0
C1348 C 0.69691 0.60539 0.60273 0.0
C1349 C 0.6997 0.62717 0.56414 0.0
C1350 C 0.70971 0.6276 0.55583 0.0
C1351 C 0.69493 0.62709 0.50249 0.0
C1352 C 0.69664 0.6483 0.60385 0.0
C1353 C 0.69288 0.63973 0.65699 0.0
C1354 C 0.6892 0.65557 0.6997 0.0
C1355 C 0.6893 0.68087 0.68761 0.0
C1356 C 0.69304 0.69 0.63332 0.0
C1357 C 0.69685 0.67359 0.59128 0.0
H1358 H 0.44985 0.4282 0.41005 0.0
H1359 H 0.43135 0.44381 0.26556 0.0
H1360 H 0.42999 0.39924 0.2442 0.0
H1361 H 0.46068 0.37565 0.33711 0.0
H1362 H 0.46175 0.35868 0.40712 0.0
H1363 H 0.46175 0.39186 0.40823 0.0
H1364 H 0.44883 0.39148 0.48474 0.0
H1365 H 0.4488 0.35835 0.48389 0.0
H1366 H 0.43892 0.37504 0.46585 0.0
H1367 H 0.43021 0.3532 0.24116 0.0
H1368 H 0.43166 0.3084 0.25842 0.0
H1369 H 0.44967 0.32228 0.40703 0.0
C1370 C 0.44562 0.42212 0.37342 0.0
C1371 C 0.44072 0.43924 0.33908 0.0
C1372 C 0.43514 0.43083 0.29218 0.0
C1373 C 0.43436 0.40562 0.27967 0.0
C1374 C 0.4392 0.38911 0.31467 0.0
C1375 C 0.44471 0.39696 0.36068 0.0
C1376 C 0.44882 0.37528 0.3935 0.0
C1377 C 0.45885 0.37538 0.38602 0.0
C1378 C 0.44618 0.37503 0.46098 0.0
C1379 C 0.44468 0.35404 0.3592 0.0
C1380 C 0.43922 0.36246 0.31356 0.0
C1381 C 0.4345 0.34639 0.27656 0.0
C1382 C 0.43534 0.32103 0.28677 0.0
C1383 C 0.4408 0.312 0.33373 0.0
C1384 C 0.44556 0.32874 0.37015 0.0
H1385 H 0.31614 0.32155 0.42488 0.0
H1386 H 0.33564 0.31084 0.28401 0.0
H1387 H 0.33797 0.35587 0.27857 0.0
H1388 H 0.30641 0.37513 0.35804 0.0
H1389 H 0.30425 0.38994 0.42979 0.0
H1390 H 0.30455 0.35685 0.4252 0.0
H1391 H 0.31641 0.35565 0.5096 0.0
H1392 H 0.31615 0.38874 0.51448 0.0
H1393 H 0.32638 0.37312 0.50015 0.0
H1394 H 0.33795 0.40188 0.28736 0.0
H1395 H 0.3353 0.44605 0.30754 0.0
H1396 H 0.31529 0.42687 0.43921 0.0
C1397 C 0.32089 0.32874 0.39288 0.0
C1398 C 0.32577 0.31286 0.35513 0.0
C1399 C 0.33196 0.32279 0.31399 0.0
C1400 C 0.33328 0.34828 0.31039 0.0
C1401 C 0.3283 0.36349 0.34795 0.0
C1402 C 0.3222 0.35412 0.38821 0.0
C1403 C 0.31748 0.37448 0.42185 0.0
C1404 C 0.30759 0.37407 0.40786 0.0
C1405 C 0.31921 0.3729 0.4906 0.0
C1406 C 0.32187 0.3968 0.39417 0.0
C1407 C 0.32814 0.39003 0.35194 0.0
C1408 C 0.33308 0.4074 0.32038 0.0
C1409 C 0.33155 0.43236 0.33226 0.0
C1410 C 0.32512 0.43962 0.37494 0.0
C1411 C 0.32022 0.42164 0.40623 0.0
H1412 H 0.56393 0.17679 0.05806 0.0
H1413 H 0.58416 0.19245 0.19101 0.0
H1414 H 0.58638 0.14784 0.2072 0.0
H1415 H 0.55471 0.12355 0.13397 0.0
H1416 H 0.55273 0.10685 0.06453 0.0
H1417 H 0.55259 0.14002 0.06435 0.0
H1418 H 0.56439 0.14045 0.97962 0.0
H1419 H 0.56458 0.1073 0.97957 0.0
H1420 H 0.57459 0.12432 0.99139 0.0
H1421 H 0.58626 0.10192 0.21004 0.0
H1422 H 0.58414 0.05716 0.19715 0.0
H1423 H 0.56448 0.07095 0.05873 0.0
C1424 C 0.56877 0.17069 0.09077 0.0
C1425 C 0.57388 0.18781 0.12347 0.0
C1426 C 0.58023 0.17943 0.16546 0.0
C1427 C 0.58151 0.15421 0.17505 0.0
C1428 C 0.57641 0.1377 0.14194 0.0
C1429 C 0.57019 0.14553 0.10049 0.0
C1430 C 0.56573 0.12387 0.06995 0.0
C1431 C 0.55585 0.12356 0.08406 0.0
C1432 C 0.56743 0.124 0.00105 0.0
C1433 C 0.57043 0.1027 0.10075 0.0
C1434 C 0.57652 0.11111 0.14234 0.0
C1435 C 0.58157 0.09508 0.17719 0.0
C1436 C 0.58037 0.06973 0.16923 0.0
C1437 C 0.57425 0.06069 0.12631 0.0
C1438 C 0.56921 0.07743 0.09178 0.0
H1439 H 0.68495 0.07311 0.15976 0.0
H1440 H 0.70229 0.05768 0.00847 0.0
H1441 H 0.70436 0.10238 0.99184 0.0
H1442 H 0.67448 0.12714 0.09187 0.0
H1443 H 0.67373 0.14328 0.16324 0.0
H1444 H 0.67343 0.11012 0.16184 0.0
H1445 H 0.68652 0.1087 0.23698 0.0
H1446 H 0.68689 0.14182 0.23837 0.0
H1447 H 0.69655 0.12456 0.21809 0.0
H1448 H 0.70508 0.1485 0.99501 0.0
H1449 H 0.70384 0.19324 0.01453 0.0
H1450 H 0.68577 0.17878 0.1623 0.0
C1451 C 0.68909 0.07923 0.12271 0.0
C1452 C 0.69353 0.06212 0.08559 0.0
C1453 C 0.69894 0.07064 0.03776 0.0
C1454 C 0.70012 0.09592 0.0279 0.0
C1455 C 0.69576 0.11238 0.06596 0.0
C1456 C 0.6903 0.10441 0.11207 0.0
C1457 C 0.68648 0.12594 0.14691 0.0
C1458 C 0.67643 0.12666 0.14056 0.0
C1459 C 0.68928 0.1252 0.21406 0.0
C1460 C 0.69074 0.14723 0.11368 0.0
C1461 C 0.69607 0.139 0.06715 0.0
C1462 C 0.70088 0.15518 0.03104 0.0
C1463 C 0.70018 0.18048 0.04261 0.0
C1464 C 0.6947 0.18928 0.08966 0.0
C1465 C 0.68993 0.17244 0.12559 0.0
H1466 H 0.44717 0.93097 0.91946 0.0
H1467 H 0.43531 0.94428 0.74359 0.0
H1468 H 0.43418 0.89932 0.72626 0.0
H1469 H 0.45959 0.87581 0.8779 0.0
H1470 H 0.45754 0.86067 0.94941 0.0
H1471 H 0.45801 0.89379 0.94587 0.0
H1472 H 0.44254 0.89636 0.99418 0.0
H1473 H 0.44201 0.86328 0.99764 0.0
H1474 H 0.43352 0.88027 0.95894 0.0
H1475 H 0.434 0.8531 0.72933 0.0
H1476 H 0.43457 0.80859 0.75325 0.0
H1477 H 0.4457 0.82523 0.9298 0.0
C1478 C 0.44448 0.92428 0.87698 0.0
C1479 C 0.44142 0.94084 0.83235 0.0
C1480 C 0.43775 0.93169 0.77785 0.0
C1481 C 0.43708 0.90627 0.76774 0.0
C1482 C 0.44005 0.89031 0.8129 0.0
C1483 C 0.44366 0.89892 0.86652 0.0
C1484 C 0.44594 0.87784 0.90888 0.0
C1485 C 0.45586 0.87698 0.92123 0.0
C1486 C 0.44069 0.87955 0.96842 0.0
C1487 C 0.44301 0.85607 0.87085 0.0
C1488 C 0.4397 0.86367 0.81544 0.0
C1489 C 0.43658 0.84693 0.77256 0.0
C1490 C 0.43689 0.82175 0.78658 0.0
C1491 C 0.44021 0.81358 0.84312 0.0
C1492 C 0.44326 0.831 0.88584 0.0
H1493 H 0.31863 0.82491 0.95202 0.0
H1494 H 0.32875 0.80669 0.77356 0.0
H1495 H 0.33084 0.85094 0.75143 0.0
H1496 H 0.30624 0.87801 0.90136 0.0
H1497 H 0.30823 0.89528 0.96992 0.0
H1498 H 0.30792 0.86215 0.97239 0.0
H1499 H 0.32343 0.86174 0.02086 0.0
H1500 H 0.32382 0.89486 0.01794 0.0
H1501 H 0.33236 0.87698 0.98249 0.0
H1502 H 0.33215 0.89693 0.7498 0.0
H1503 H 0.33104 0.94208 0.76445 0.0
H1504 H 0.31902 0.93046 0.94049 0.0
C1505 C 0.3212 0.83033 0.90814 0.0
C1506 C 0.32362 0.81256 0.86459 0.0
C1507 C 0.327 0.82017 0.80774 0.0
C1508 C 0.3282 0.84518 0.7948 0.0
C1509 C 0.32584 0.8623 0.83893 0.0
C1510 C 0.32228 0.85526 0.89406 0.0
C1511 C 0.31991 0.87742 0.93239 0.0
C1512 C 0.30999 0.87826 0.94472 0.0
C1513 C 0.3252 0.87776 0.99194 0.0
C1514 C 0.32273 0.89798 0.89029 0.0
C1515 C 0.32624 0.88886 0.83692 0.0
C1516 C 0.32938 0.90431 0.79125 0.0
C1517 C 0.32877 0.92981 0.79995 0.0
C1518 C 0.32495 0.93939 0.8534 0.0
C1519 C 0.32197 0.92335 0.89928 0.0
H1520 H 0.02454 0.46551 0.02414 0.0
H1521 H 0.0221 0.51492 0.17824 0.0
H1522 H 0.00782 0.52919 0.1396 0.0
H1523 H 0.0145 0.50649 0.91237 0.0
H1524 H 0.00894 0.48191 0.87305 0.0
H1525 H 0.01914 0.47596 0.91176 0.0
H1526 H 0.01165 0.44132 0.97384 0.0
H1527 H 1.00142 0.44727 0.93564 0.0
H1528 H 1.00195 0.44821 0.01745 0.0
H1529 H 0.99388 0.53836 0.08512 0.0
H1530 H 0.98097 0.54142 0.01844 0.0
H1531 H 0.99199 0.48549 0.90016 0.0
C1532 C 0.02109 0.47966 0.04909 0.0
C1533 C 0.02452 0.48929 0.10396 0.0
C1534 C 0.01962 0.50724 0.13617 0.0
C1535 C 0.01151 0.51555 0.11451 0.0
C1536 C 0.00831 0.50567 0.06057 0.0
C1537 C 0.01292 0.48813 0.02817 0.0
C1538 C 0.00782 0.48019 0.97218 0.0
C1539 C 0.0129 0.48652 0.91389 0.0
C1540 C 0.00558 0.45261 0.97498 0.0
C1541 C 0.99964 0.49596 0.97849 0.0
C1542 C 1.00009 0.51054 0.02977 0.0
C1543 C 0.99339 0.5268 0.04521 0.0
C1544 C 0.986 0.52816 0.0074 0.0
C1545 C 0.98529 0.51312 0.95504 0.0
C1546 C 0.99228 0.49702 0.94026 0.0
H1547 H 0.24045 0.79729 0.05949 0.0
H1548 H 0.23131 0.72443 0.10818 0.0
H1549 H 0.24527 0.70649 0.07064 0.0
H1550 H 0.25101 0.77848 0.91906 0.0
H1551 H 0.25987 0.80022 0.92678 0.0
H1552 H 0.2493 0.80704 0.95906 0.0
H1553 H 0.25656 0.81349 0.06437 0.0
H1554 H 0.26715 0.80644 0.03253 0.0
H1555 H 0.26313 0.78921 0.09676 0.0
H1556 H 0.26067 0.69706 0.03275 0.0
H1557 H 0.27538 0.6961 0.98453 0.0
H1558 H 0.27385 0.77465 0.95245 0.0
C1559 C 0.24141 0.77756 0.06188 0.0
C1560 C 0.23488 0.76213 0.08661 0.0
C1561 C 0.23627 0.73641 0.08894 0.0
C1562 C 0.24418 0.72615 0.06811 0.0
C1563 C 0.25055 0.74187 0.04428 0.0
C1564 C 0.24918 0.76698 0.03997 0.0
C1565 C 0.2569 0.77971 0.01 0.0
C1566 C 0.2541 0.79208 0.95017 0.0
C1567 C 0.26118 0.79831 0.05353 0.0
C1568 C 0.26286 0.7579 -0.0015 0.0
C1569 C 0.25916 0.73628 0.01953 0.0
C1570 C 0.26359 0.71385 0.0157 0.0
C1571 C 0.27195 0.71347 0.9887 0.0
C1572 C 0.27569 0.73529 0.96508 0.0
C1573 C 0.27109 0.75773 0.97017 0.0
H1574 H 0.98541 0.72582 0.26352 0.0
H1575 H 0.98719 0.77265 0.42297 0.0
H1576 H 1.00196 0.78583 0.39142 0.0
H1577 H 0.00772 0.70655 0.26159 0.0
H1578 H 0.00874 0.70719 0.18 0.0
H1579 H 0.99822 0.70145 0.2144 0.0
H1580 H 0.9915 0.73799 0.15469 0.0
H1581 H 1.00199 0.74369 0.11963 0.0
H1582 H 0.99649 0.768 0.16032 0.0
H1583 H 0.01656 0.79388 0.34341 0.0
H1584 H 0.02988 0.79705 0.28027 0.0
H1585 H 0.01865 0.74559 0.15104 0.0
C1586 C 0.98878 0.7393 0.29109 0.0
C1587 C 0.98502 0.7485 0.34531 0.0
C1588 C 0.98989 0.76536 0.38118 0.0
C1589 C 0.99829 0.77301 0.36363 0.0
C1590 C 1.00179 0.76364 0.31001 0.0
C1591 C 0.99718 0.74725 0.27405 0.0
C1592 C 1.0025 0.73993 0.21868 0.0
C1593 C 1.00441 0.71213 0.21871 0.0
C1594 C 0.99784 0.74788 0.15985 0.0
C1595 C 0.01079 0.75475 0.22928 0.0
C1596 C 0.01025 0.76821 0.28239 0.0
C1597 C 0.01709 0.78329 0.30193 0.0
C1598 C 0.02468 0.78474 0.2661 0.0
C1599 C 0.0254 0.77112 0.21148 0.0
C1600 C 0.01832 0.75607 0.19284 0.0
H1601 H 0.27469 0.52755 0.27153 0.0
H1602 H 0.27461 0.47105 0.41102 0.0
H1603 H 0.25997 0.45749 0.37737 0.0
H1604 H 0.25219 0.54346 0.28456 0.0
H1605 H 0.25047 0.54829 0.20438 0.0
H1606 H 0.26119 0.55293 0.23687 0.0
H1607 H 0.26784 0.52188 0.16035 0.0
H1608 H 0.25716 0.51734 0.1272 0.0
H1609 H 0.2633 0.49132 0.15501 0.0
H1610 H 0.24524 0.45042 0.33053 0.0
H1611 H 0.23142 0.45008 0.27232 0.0
H1612 H 0.24075 0.51161 0.16429 0.0
C1613 C 0.27169 0.51196 0.29399 0.0
C1614 C 0.27586 0.50015 0.34345 0.0
C1615 C 0.27155 0.48035 0.37296 0.0
C1616 C 0.26324 0.47247 0.35414 0.0
C1617 C 0.25926 0.48462 0.30579 0.0
C1618 C 0.26333 0.50388 0.27589 0.0
C1619 C 0.25745 0.5142 0.22641 0.0
C1620 C 0.25519 0.54133 0.23883 0.0
C1621 C 0.26169 0.51098 0.16351 0.0
C1622 C 0.24945 0.49781 0.23353 0.0
C1623 C 0.25064 0.48086 0.27954 0.0
C1624 C 0.24419 0.46375 0.2947 0.0
C1625 C 0.23629 0.46392 0.26189 0.0
C1626 C 0.23487 0.48125 0.21482 0.0
C1627 C 0.2416 0.49826 0.20039 0.0
H1628 H 0.76922 0.24937 0.87846 0.0
H1629 H 0.78096 0.2068 0.02421 0.0
H1630 H 0.76818 0.21556 0.08922 0.0
H1631 H 0.75971 0.29642 0.97215 0.0
H1632 H 0.74982 0.29919 0.92775 0.0
H1633 H 0.75987 0.28946 0.89204 0.0
H1634 H 0.75215 0.25002 0.85311 0.0
H1635 H 0.74208 0.2596 0.88889 0.0
H1636 H 0.74674 0.22996 0.90657 0.0
H1637 H 0.75443 0.22949 0.13928 0.0
H1638 H 0.74037 0.24729 0.17178 0.0
H1639 H 0.7371 0.2807 0.9939 0.0
C1640 C 0.76908 0.24186 0.92404 0.0
C1641 C 0.77621 0.2279 0.94678 0.0
C1642 C 0.77575 0.21826 0.00646 0.0
C1643 C 0.76846 0.2229 0.04354 0.0
C1644 C 0.76162 0.23704 0.02015 0.0
C1645 C 0.76182 0.24634 0.96177 0.0
C1646 C 0.75359 0.26118 0.94825 0.0
C1647 C 0.75589 0.28816 0.93423 0.0
C1648 C 0.74833 0.24948 0.89611 0.0
C1649 C 0.74876 0.25886 0.00832 0.0
C1650 C 0.75354 0.2448 0.04894 0.0
C1651 C 0.75061 0.24043 0.1078 0.0
C1652 C 0.74261 0.25073 0.12586 0.0
C1653 C 0.73755 0.26524 0.08532 0.0
C1654 C 0.74069 0.26927 0.02558 0.0
H1655 H 0.01821 0.25248 0.64721 0.0
H1656 H 0.0312 0.29073 0.79511 0.0
H1657 H 0.01842 0.28319 0.861 0.0
H1658 H 0.9964 0.27523 0.67912 0.0
H1659 H 0.99099 0.24678 0.65985 0.0
H1660 H 1.00121 0.25481 0.62384 0.0
H1661 H 0.00802 0.21356 0.65945 0.0
H1662 H 0.9978 0.20536 0.69523 0.0
H1663 H 0.00779 0.20569 0.73904 0.0
H1664 H 1.00434 0.27159 0.91119 0.0
H1665 H 0.9898 0.25666 0.9429 0.0
H1666 H 0.98569 0.22562 0.76326 0.0
C1667 C 0.01836 0.25919 0.69354 0.0
C1668 C 0.02583 0.27162 0.71648 0.0
C1669 C 0.02573 0.28036 0.77711 0.0
C1670 C 0.01844 0.27642 0.81474 0.0
C1671 C 0.01125 0.26384 0.79106 0.0
C1672 C 0.01112 0.25534 0.73191 0.0
C1673 C 1.00253 0.24229 0.71807 0.0
C1674 C 0.99749 0.25558 0.6672 0.0
C1675 C 1.00413 0.21511 0.70201 0.0
C1676 C 0.99786 0.24483 0.7787 0.0
C1677 C 1.00302 0.25737 0.81999 0.0
C1678 C 1.00023 0.2618 0.87919 0.0
C1679 C 0.99195 0.25316 0.89679 0.0
C1680 C 0.98648 0.24027 0.85547 0.0
C1681 C 0.98954 0.23601 0.79558 0.0
H1682 H 0.77532 0.53319 0.75135 0.0
H1683 H 0.77241 0.49651 0.92554 0.0
H1684 H 0.75841 0.47868 0.89165 0.0
H1685 H 0.75267 0.54832 0.73231 0.0
H1686 H 0.75248 0.54285 0.65152 0.0
H1687 H 0.76252 0.55221 0.68796 0.0
H1688 H 0.77041 0.51379 0.6448 0.0
H1689 H 0.76039 0.50438 0.60795 0.0
H1690 H 0.76592 0.48363 0.65917 0.0
H1691 H 0.74471 0.46499 0.84067 0.0
H1692 H 0.73193 0.45673 0.7753 0.0
H1693 H 0.74325 0.50239 0.63375 0.0
C1694 C 0.77183 0.52105 0.78189 0.0
C1695 C 0.77504 0.5161 0.84103 0.0
C1696 C 0.7701 0.50067 0.88013 0.0
C1697 C 0.76214 0.49034 0.86125 0.0
C1698 C 0.75913 0.49561 0.80302 0.0
C1699 C 0.76379 0.51058 0.76377 0.0
C1700 C 0.75888 0.51373 0.70416 0.0
C1701 C 0.7565 0.54089 0.69338 0.0
C1702 C 0.76422 0.50325 0.65087 0.0
C1703 C 0.75075 0.4983 0.71642 0.0
C1704 C 0.75107 0.488 0.77374 0.0
C1705 C 0.74434 0.47312 0.79585 0.0
C1706 C 0.73704 0.46876 0.7586 0.0
C1707 C 0.73646 0.47943 0.70003 0.0
C1708 C 0.74348 0.49412 0.6785 0.0
H1709 H 0.01843 0.00646 0.57656 0.0
H1710 H 0.02984 0.95359 0.45165 0.0
H1711 H 0.01663 0.95598 0.38759 0.0
H1712 H 0.99632 0.9828 0.56725 0.0
H1713 H 0.99125 0.01271 0.57184 0.0
H1714 H 1.00172 0.00743 0.60749 0.0
H1715 H 0.00843 0.04371 0.54684 0.0
H1716 H 0.99797 0.0492 0.51133 0.0
H1717 H 0.00755 0.044 0.46513 0.0
H1718 H 1.00226 0.96452 0.33608 0.0
H1719 H 0.98766 0.97814 0.30134 0.0
H1720 H 0.98521 0.02438 0.4612 0.0
C1721 C 0.01817 0.99543 0.53561 0.0
C1722 C 0.02534 0.98043 0.51825 0.0
C1723 C 0.02466 0.96605 0.46475 0.0
C1724 C 0.01709 0.96702 0.4284 0.0
C1725 C 0.0102 0.98219 0.44651 0.0
C1726 C 0.01064 0.99608 0.49896 0.0
C1727 C 1.00228 0.01075 0.50832 0.0
C1728 C 0.99762 0.00295 0.56723 0.0
C1729 C 1.00418 0.03856 0.50785 0.0
C1730 C 0.99708 0.00303 0.45272 0.0
C1731 C 1.00179 0.98654 0.41773 0.0
C1732 C 0.99849 0.97728 0.36332 0.0
C1733 C 0.9902 0.98517 0.34393 0.0
C1734 C 0.98522 0.00201 0.37897 0.0
C1735 C 0.98872 0.01097 0.43423 0.0
H1736 H 0.23595 0.2848 0.48735 0.0
H1737 H 0.23887 0.24145 0.65191 0.0
H1738 H 0.25351 0.22822 0.61855 0.0
H1739 H 0.24748 0.24157 0.38622 0.0
H1740 H 0.25261 0.26573 0.3428 0.0
H1741 H 0.24209 0.27093 0.37787 0.0
H1742 H 0.24839 0.30909 0.43334 0.0
H1743 H 0.25895 0.30386 0.399 0.0
H1744 H 0.25799 0.30575 0.48051 0.0
H1745 H 0.2679 0.22044 0.57028 0.0
H1746 H 0.28121 0.21765 0.50774 0.0
H1747 H 0.26948 0.26635 0.3741 0.0
C1748 C 0.23958 0.27208 0.51557 0.0
C1749 C 0.23621 0.26399 0.57206 0.0
C1750 C 0.24131 0.24792 0.60852 0.0
C1751 C 0.24964 0.24024 0.58996 0.0
C1752 C 0.25284 0.2488 0.53472 0.0
C1753 C 0.24799 0.26424 0.49774 0.0
C1754 C 0.25317 0.27118 0.44132 0.0
C1755 C 0.24856 0.26179 0.38363 0.0
C1756 C 0.25472 0.29913 0.43841 0.0
C1757 C 0.26168 0.25738 0.45289 0.0
C1758 C 0.26131 0.24461 0.50707 0.0
C1759 C 0.26832 0.23053 0.52796 0.0
C1760 C 0.27593 0.22937 0.49247 0.0
C1761 C 0.27653 0.24241 0.43691 0.0
C1762 C 0.26925 0.25642 0.41676 0.0
H1763 H 0.27519 0.02299 0.74676 0.0
H1764 H 0.27278 0.97323 0.90032 0.0
H1765 H 0.25831 0.9599 0.8631 0.0
H1766 H 0.25287 0.04159 0.74256 0.0
H1767 H 0.25211 0.04271 0.66085 0.0
H1768 H 0.26251 0.04783 0.69767 0.0
H1769 H 0.26948 0.01274 0.63438 0.0
H1770 H 0.25912 0.00763 0.59697 0.0
H1771 H 0.26455 0.98258 0.63532 0.0
H1772 H 0.24401 0.95248 0.81157 0.0
H1773 H 0.23076 0.95109 0.74763 0.0
H1774 H 0.24217 0.00537 0.62646 0.0
C1775 C 0.27174 0.00884 0.77173 0.0
C1776 C 0.27522 0.9989 0.82611 0.0
C1777 C 0.27028 0.98111 0.85852 0.0
C1778 C 0.26205 0.97334 0.83769 0.0
C1779 C 0.25879 0.98355 0.78427 0.0
C1780 C 0.26347 0.00083 0.75148 0.0
C1781 C 0.2583 0.00926 0.69623 0.0
C1782 C 0.25633 0.03699 0.69956 0.0
C1783 C 0.26315 0.00265 0.63723 0.0
C1784 C 0.24999 0.9941 0.70346 0.0
C1785 C 0.25044 0.97942 0.75464 0.0
C1786 C 0.24356 0.96399 0.77154 0.0
C1787 C 0.236 0.96355 0.73529 0.0
C1788 C 0.23532 0.97856 0.68288 0.0
C1789 C 0.24248 0.9938 0.66649 0.0
H1790 H 0.73345 0.74734 0.52424 0.0
H1791 H 0.74289 0.80907 0.63082 0.0
H1792 H 0.75781 0.80256 0.59063 0.0
H1793 H 0.75197 0.7094 0.54744 0.0
H1794 H 0.75203 0.69634 0.47214 0.0
H1795 H 0.74189 0.70692 0.50494 0.0
H1796 H 0.73932 0.73556 0.41251 0.0
H1797 H 0.74942 0.72488 0.37908 0.0
H1798 H 0.74769 0.75734 0.39114 0.0
H1799 H 0.77172 0.78897 0.54154 0.0
H1800 H 0.78389 0.76866 0.48759 0.0
H1801 H 0.76577 0.71448 0.41523 0.0
C1802 C 0.7386 0.7599 0.53769 0.0
C1803 C 0.73698 0.77905 0.57977 0.0
C1804 C 0.74398 0.79443 0.59827 0.0
C1805 C 0.75248 0.7909 0.57564 0.0
C1806 C 0.7539 0.77174 0.53482 0.0
C1807 C 0.74717 0.75647 0.51588 0.0
C1808 C 0.75062 0.73646 0.47402 0.0
C1809 C 0.74903 0.71076 0.50129 0.0
C1810 C 0.74652 0.7387 0.41041 0.0
C1811 C 0.76032 0.74277 0.47296 0.0
C1812 C 0.76204 0.76328 0.5081 0.0
C1813 C 0.77048 0.77273 0.51441 0.0
C1814 C 0.77738 0.76083 0.48428 0.0
C1815 C 0.77584 0.73944 0.44908 0.0
C1816 C 0.76716 0.73057 0.44266 0.0
H1817 H 0.77457 0.03258 0.2413 0.0
H1818 H 0.77178 0.99934 0.41974 0.0
H1819 H 0.75775 0.98094 0.38859 0.0
H1820 H 0.75193 0.04759 0.22182 0.0
H1821 H 0.75163 0.04064 0.14174 0.0
H1822 H 0.76173 0.05053 0.17654 0.0
H1823 H 0.76951 0.01125 0.13728 0.0
H1824 H 0.75943 0.00128 0.10213 0.0
H1825 H 0.76499 0.98145 0.15532 0.0
H1826 H 0.74401 0.96637 0.33989 0.0
H1827 H 0.7311 0.95725 0.27643 0.0
H1828 H 0.74229 1.00022 0.12934 0.0
C1829 C 0.77108 0.02108 0.27336 0.0
C1830 C 0.77434 0.01725 0.33287 0.0
C1831 C 0.76943 0.00262 0.37399 0.0
C1832 C 0.76145 0.99197 0.35668 0.0
C1833 C 0.7584 0.99613 0.29802 0.0
C1834 C 0.76303 0.01033 0.25686 0.0
C1835 C 0.75805 0.01244 0.19726 0.0
C1836 C 0.7557 0.0394 0.18356 0.0
C1837 C 0.76331 0.00091 0.1449 0.0
C1838 C 0.74992 0.99736 0.21173 0.0
C1839 C 0.7503 0.98807 0.27008 0.0
C1840 C 0.74358 0.9737 0.29426 0.0
C1841 C 0.73622 0.96885 0.25807 0.0
C1842 C 0.73556 0.97856 0.19853 0.0
C1843 C 0.74258 0.99268 0.17487 0.0
H1844 H 0.51772 0.46966 0.56548 0.0
H1845 H 0.53554 0.51366 0.45668 0.0
H1846 H 0.52308 0.52873 0.3958 0.0
H1847 H 0.50282 0.4529 0.44311 0.0
H1848 H 0.49316 0.45511 0.49001 0.0
H1849 H 0.50355 0.44699 0.52358 0.0
H1850 H 0.50202 0.48323 0.59937 0.0
H1851 H 0.49167 0.49159 0.56565 0.0
H1852 H 0.50037 0.51397 0.57069 0.0
H1853 H 0.5087 0.53997 0.34846 0.0
H1854 H 0.49339 0.54622 0.31653 0.0
H1855 H 0.48475 0.49467 0.45509 0.0
C1856 C 0.519 0.48229 0.52843 0.0
C1857 C 0.52766 0.4899 0.51473 0.0
C1858 C 0.52904 0.50675 0.46656 0.0
C1859 C 0.52198 0.51568 0.43216 0.0
C1860 C 0.51354 0.50772 0.44665 0.0
C1861 C 0.51201 0.49135 0.4935 0.0
C1862 C 0.50228 0.48601 0.50001 0.0
C1863 C 0.50034 0.45863 0.48847 0.0
C1864 C 0.49889 0.49419 0.56265 0.0
C1865 C 0.49858 0.50206 0.44973 0.0
C1866 C 0.50521 0.51443 0.41966 0.0
C1867 C 0.50346 0.53037 0.37167 0.0
C1868 C 0.49472 0.53375 0.35381 0.0
C1869 C 0.48777 0.52133 0.38381 0.0
C1870 C 0.48979 0.50514 0.43227 0.0
H1871 H 0.52772 0.74131 0.74394 0.0
H1872 H 0.5193 0.79246 0.60433 0.0
H1873 H 0.50415 0.79064 0.64385 0.0
H1874 H 0.50873 0.70347 0.73959 0.0
H1875 H 0.50839 0.69781 0.82028 0.0
H1876 H 0.51871 0.70418 0.78365 0.0
H1877 H 0.52146 0.74041 0.8578 0.0
H1878 H 0.51117 0.73405 0.89495 0.0
H1879 H 0.51333 0.76433 0.86497 0.0
H1880 H 0.48997 0.78294 0.69691 0.0
H1881 H 0.47746 0.76908 0.75886 0.0
H1882 H 0.4948 0.72185 0.86308 0.0
C1883 C 0.52272 0.75255 0.72277 0.0
C1884 C 0.52469 0.76745 0.67191 0.0
C1885 C 0.51792 0.78113 0.64371 0.0
C1886 C 0.50931 0.78025 0.66589 0.0
C1887 C 0.50756 0.76541 0.71604 0.0
C1888 C 0.51405 0.75177 0.74421 0.0
C1889 C 0.5103 0.73653 0.79581 0.0
C1890 C 0.51161 0.70886 0.7841 0.0
C1891 C 0.5143 0.7443 0.85701 0.0
C1892 C 0.50069 0.74361 0.79186 0.0
C1893 C 0.49928 0.76038 0.74567 0.0
C1894 C 0.49097 0.76962 0.73282 0.0
C1895 C 0.48387 0.76136 0.76778 0.0
C1896 C 0.4851 0.74378 0.81453 0.0
C1897 C 0.49366 0.73512 0.82722 0.0
H1898 H 0.48753 0.21639 0.26378 0.0
H1899 H 0.48842 0.26793 0.4145 0.0
H1900 H 0.50284 0.28263 0.38011 0.0
H1901 H 0.51028 0.20059 0.2666 0.0
H1902 H 0.51146 0.19874 0.18522 0.0
H1903 H 0.50098 0.19256 0.21991 0.0
H1904 H 0.49373 0.22598 0.15262 0.0
H1905 H 0.50418 0.23213 0.11738 0.0
H1906 H 0.49813 0.25679 0.15271 0.0
H1907 H 0.51718 0.29183 0.33088 0.0
H1908 H 0.53059 0.29495 0.26899 0.0
H1909 H 0.52085 0.23727 0.1503 0.0
C1910 C 0.49067 0.23109 0.28882 0.0
C1911 C 0.48675 0.24114 0.34165 0.0
C1912 C 0.49126 0.25986 0.37402 0.0
C1913 C 0.49946 0.26843 0.35478 0.0
C1914 C 0.50316 0.25809 0.30299 0.0
C1915 C 0.49893 0.23988 0.27026 0.0
C1916 C 0.50453 0.23164 0.21687 0.0
C1917 C 0.50695 0.20426 0.22252 0.0
C1918 C 0.49986 0.23696 0.1563 0.0
C1919 C 0.51253 0.24801 0.22505 0.0
C1920 C 0.51158 0.26312 0.27504 0.0
C1921 C 0.51805 0.27991 0.29195 0.0
C1922 C 0.52572 0.28131 0.25691 0.0
C1923 C 0.52693 0.26586 0.20578 0.0
C1924 C 0.52017 0.24916 0.18951 0.0
H1925 H 0.48426 0.99937 0.97415 0.0
H1926 H 0.49292 0.05376 0.84261 0.0
H1927 H 0.50812 0.04905 0.87875 0.0
H1928 H 0.49909 0.01811 0.09591 0.0
H1929 H 0.50097 0.98702 0.12138 0.0
H1930 H 0.4907 0.99507 0.08604 0.0
H1931 H 0.49295 0.96041 0.00672 0.0
H1932 H 0.50326 0.95239 0.04148 0.0
H1933 H 0.50283 0.95994 0.96175 0.0
H1934 H 0.52241 0.03857 0.92868 0.0
H1935 H 0.5348 0.02304 0.98939 0.0
H1936 H 0.51706 0.975 0.08807 0.0
C1937 C 0.4893 0.01074 0.9539 0.0
C1938 C 0.48733 0.02728 0.90611 0.0
C1939 C 0.49423 0.04103 0.87937 0.0
C1940 C 0.5029 0.03853 0.89965 0.0
C1941 C 0.50462 0.02209 0.94668 0.0
C1942 C 0.49803 0.00845 0.97362 0.0
C1943 C 0.50171 0.99174 0.02266 0.0
C1944 C 0.49789 0.99839 0.08521 0.0
C1945 C 0.50009 0.96451 0.0072 0.0
C1946 C 0.51139 0.99813 0.01888 0.0
C1947 C 0.51292 0.01568 0.97473 0.0
C1948 C 0.52132 0.02462 0.96296 0.0
C1949 C 0.52836 0.0154 0.99721 0.0
C1950 C 0.52699 0.99723 0.0424 0.0
C1951 C 0.51835 0.98871 0.05346 0.0
H1952 H 0.05846 0.41574 0.29337 0.0
H1953 H 0.0839 0.44902 0.32767 0.0
H1954 H 0.08602 0.42147 0.41516 0.0
H1955 H 0.05266 0.40453 0.45608 0.0
H1956 H 0.0475 0.37546 0.43926 0.0
H1957 H 0.04743 0.39979 0.38352 0.0
H1958 H 0.05453 0.37032 0.30526 0.0
H1959 H 0.05474 0.34602 0.36088 0.0
H1960 H 0.06474 0.35532 0.32374 0.0
H1961 H 0.08632 0.38787 0.48974 0.0
H1962 H 0.08433 0.35155 0.55451 0.0
H1963 H 0.05853 0.33936 0.47587 0.0
C1964 C 0.06436 0.4177 0.32041 0.0
C1965 C 0.07101 0.43463 0.30376 0.0
C1966 C 0.07872 0.43623 0.33948 0.0
C1967 C 0.07998 0.42067 0.38934 0.0
C1968 C 0.07347 0.40363 0.40322 0.0
C1969 C 0.06575 0.40217 0.37051 0.0
C1970 C 0.06007 0.38109 0.39332 0.0
C1971 C 0.0514 0.3908 0.41962 0.0
C1972 C 0.05843 0.36207 0.34278 0.0
C1973 C 0.06592 0.37064 0.44289 0.0
C1974 C 0.0736 0.38406 0.44759 0.0
C1975 C 0.08029 0.3774 0.48721 0.0
C1976 C 0.07911 0.35657 0.5235 0.0
C1977 C 0.07127 0.34255 0.5204 0.0
C1978 C 0.06456 0.34982 0.47967 0.0
H1979 H 0.20129 0.84104 0.27649 0.0
H1980 H 0.17349 0.8405 0.23208 0.0
H1981 H 0.17105 0.87481 0.30257 0.0
H1982 H 0.19848 0.85388 0.43571 0.0
H1983 H 0.20796 0.87359 0.44085 0.0
H1984 H 0.20766 0.84927 0.38532 0.0
H1985 H 0.21067 0.88104 0.30001 0.0
H1986 H 0.2109 0.90552 0.35528 0.0
H1987 H 0.20349 0.90719 0.29151 0.0
H1988 H 0.17139 0.9085 0.37735 0.0
H1989 H 0.17434 0.9382 0.45916 0.0
H1990 H 0.20187 0.91758 0.45747 0.0
C1991 C 0.19469 0.84812 0.28165 0.0
C1992 C 0.18759 0.83803 0.24846 0.0
C1993 C 0.17905 0.84782 0.2568 0.0
C1994 C 0.17759 0.86744 0.29658 0.0
C1995 C 0.18471 0.87712 0.32793 0.0
C1996 C 0.19308 0.86775 0.32153 0.0
C1997 C 0.1995 0.88118 0.36256 0.0
C1998 C 0.20364 0.86342 0.40886 0.0
C1999 C 0.20656 0.89452 0.32508 0.0
C2000 C 0.19338 0.89936 0.39325 0.0
C2001 C 0.1849 0.89675 0.37201 0.0
C2002 C 0.178 0.91082 0.39433 0.0
C2003 C 0.17975 0.92765 0.44082 0.0
C2004 C 0.18833 0.93026 0.46469 0.0
C2005 C 0.19527 0.91623 0.43964 0.0
H2006 H 0.07908 0.84154 0.95911 0.0
H2007 H 0.05107 0.83309 0.98931 0.0
H2008 H 0.04817 0.86673 0.91699 0.0
H2009 H 0.0791 0.9074 0.9475 0.0
H2010 H 0.08726 0.9084 0.88825 0.0
H2011 H 0.08723 0.88339 0.94203 0.0
H2012 H 0.08632 0.85185 0.8539 0.0
H2013 H 0.08646 0.87674 0.79986 0.0
H2014 H 0.07766 0.85458 0.79845 0.0
H2015 H 0.04824 0.90136 0.84241 0.0
H2016 H 0.05125 0.93295 0.76475 0.0
H2017 H 0.0792 0.91924 0.78304 0.0
C2018 C 0.07233 0.84661 0.95022 0.0
C2019 C 0.06531 0.83461 0.98005 0.0
C2020 C 0.05657 0.84194 0.96716 0.0
C2021 C 0.05485 0.86112 0.92628 0.0
C2022 C 0.06192 0.87282 0.8986 0.0
C2023 C 0.07048 0.86575 0.90955 0.0
C2024 C 0.07687 0.88123 0.87315 0.0
C2025 C 0.08297 0.89598 0.91526 0.0
C2026 C 0.08214 0.86514 0.82869 0.0
C2027 C 0.07055 0.898 0.83983 0.0
C2028 C 0.06196 0.8929 0.85547 0.0
C2029 C 0.05494 0.90556 0.82979 0.0
C2030 C 0.05672 0.92352 0.78579 0.0
C2031 C 0.06546 0.92866 0.76779 0.0
C2032 C 0.07245 0.91597 0.79617 0.0
H2033 H 0.18078 0.34214 0.78127 0.0
H2034 H 0.20878 0.33135 0.75581 0.0
H2035 H 0.21181 0.3645 0.82903 0.0
H2036 H 0.18147 0.40775 0.79311 0.0
H2037 H 0.17313 0.40957 0.85104 0.0
H2038 H 0.17305 0.3845 0.79748 0.0
H2039 H 0.17331 0.35299 0.88595 0.0
H2040 H 0.17327 0.37797 0.93976 0.0
H2041 H 0.18181 0.35504 0.94277 0.0
H2042 H 0.21189 0.39912 0.9032 0.0
H2043 H 0.20899 0.43123 0.97974 0.0
H2044 H 0.18096 0.41991 0.95685 0.0
C2045 C 0.18754 0.34656 0.79156 0.0
C2046 C 0.19453 0.33412 0.76267 0.0
C2047 C 0.2033 0.34061 0.77718 0.0
C2048 C 0.2051 0.35949 0.81861 0.0
C2049 C 0.19807 0.37172 0.84521 0.0
C2050 C 0.18947 0.36543 0.83279 0.0
C2051 C 0.18315 0.3815 0.86799 0.0
C2052 C 0.17736 0.39673 0.82481 0.0
C2053 C 0.17756 0.36595 0.91172 0.0
C2054 C 0.18955 0.39773 0.90216 0.0
C2055 C 0.19813 0.39183 0.8881 0.0
C2056 C 0.20521 0.40394 0.91465 0.0
C2057 C 0.20348 0.42221 0.95795 0.0
C2058 C 0.19475 0.42816 0.97428 0.0
C2059 C 0.18771 0.41599 0.94504 0.0
H2060 H 0.93068 0.57999 0.70284 0.0
H2061 H 0.95835 0.56076 0.69786 0.0
H2062 H 0.96071 0.59126 0.61687 0.0
H2063 H 0.92835 0.59117 0.53737 0.0
H2064 H 0.92091 0.61655 0.54861 0.0
H2065 H 0.9212 0.59162 0.60263 0.0
H2066 H 0.92409 0.62291 0.68917 0.0
H2067 H 0.92395 0.64789 0.63539 0.0
H2068 H 0.93336 0.64345 0.68385 0.0
H2069 H 0.9605 0.62638 0.5452 0.0
H2070 H 0.95746 0.66133 0.4776 0.0
H2071 H 0.92982 0.65766 0.52535 0.0
C2072 C 0.9372 0.58177 0.68378 0.0
C2073 C 0.94433 0.56792 0.70692 0.0
C2074 C 0.95277 0.57107 0.68105 0.0
C2075 C 0.95419 0.58841 0.63505 0.0
C2076 C 0.9471 0.60233 0.61489 0.0
C2077 C 0.93874 0.59897 0.63752 0.0
C2078 C 0.93234 0.61697 0.6089 0.0
C2079 C 0.92528 0.60326 0.57219 0.0
C2080 C 0.92819 0.6338 0.65722 0.0
C2081 C 0.93847 0.63126 0.56761 0.0
C2082 C 0.94695 0.62248 0.57208 0.0
C2083 C 0.95387 0.63322 0.54061 0.0
C2084 C 0.95206 0.65322 0.50259 0.0
C2085 C 0.94339 0.66227 0.49588 0.0
C2086 C 0.93651 0.65112 0.52917 0.0
H2087 H 0.80858 0.16569 0.70279 0.0
H2088 H 0.83612 0.16344 0.75436 0.0
H2089 H 0.83847 0.12854 0.68599 0.0
H2090 H 0.80554 0.09956 0.6868 0.0
H2091 H 0.79865 0.1019 0.62046 0.0
H2092 H 0.79879 0.12643 0.6756 0.0
H2093 H 0.80286 0.1577 0.59131 0.0
H2094 H 0.80264 0.13332 0.53589 0.0
H2095 H 0.81233 0.15203 0.54431 0.0
H2096 H 0.83812 0.09419 0.6146 0.0
H2097 H 0.83546 0.06443 0.53294 0.0
H2098 H 0.80833 0.08865 0.5211 0.0
C2099 C 0.81509 0.15781 0.6996 0.0
C2100 C 0.82215 0.16737 0.7342 0.0
C2101 C 0.83059 0.15664 0.72834 0.0
C2102 C 0.832 0.13662 0.68989 0.0
C2103 C 0.82494 0.12752 0.65698 0.0
C2104 C 0.81668 0.13785 0.66046 0.0
C2105 C 0.8104 0.125 0.61714 0.0
C2106 C 0.8029 0.11248 0.65211 0.0
C2107 C 0.80685 0.14309 0.56932 0.0
C2108 C 0.81649 0.10608 0.58874 0.0
C2109 C 0.8248 0.10776 0.61338 0.0
C2110 C 0.83165 0.09267 0.5947 0.0
C2111 C 0.83005 0.07577 0.54821 0.0
C2112 C 0.82169 0.0742 0.52022 0.0
C2113 C 0.81477 0.08929 0.54172 0.0
H2114 H 0.95163 0.16118 0.02269 0.0
H2115 H 0.92361 0.16717 0.98865 0.0
H2116 H 0.92085 0.13402 0.06189 0.0
H2117 H 0.95224 0.09529 0.03873 0.0
H2118 H 0.96015 0.09535 0.09963 0.0
H2119 H 0.96013 0.11989 0.04452 0.0
H2120 H 0.95861 0.15207 0.13075 0.0
H2121 H 0.95872 0.12765 0.18613 0.0
H2122 H 0.94974 0.14923 0.18454 0.0
H2123 H 0.92091 0.10026 0.13616 0.0
H2124 H 0.9237 0.06925 0.215 0.0
H2125 H 0.95166 0.08435 0.20401 0.0
C2126 C 0.94492 0.15563 0.03097 0.0
C2127 C 0.93785 0.16682 -0.00043 0.0
C2128 C 0.92916 0.15894 0.01179 0.0
C2129 C 0.9275 0.14003 0.05326 0.0
C2130 C 0.93459 0.12913 0.08246 0.0
C2131 C 0.94312 0.1367 0.07255 0.0
C2132 C 0.94948 0.12191 0.11116 0.0
C2133 C 0.95588 0.10724 0.0711 0.0
C2134 C 0.95443 0.13872 0.1558 0.0
C2135 C 0.94316 0.10495 0.1442 0.0
C2136 C 0.93462 0.10944 0.12642 0.0
C2137 C 0.92756 0.09656 0.15064 0.0
C2138 C 0.92923 0.07894 0.19542 0.0
C2139 C 0.9379 0.07434 0.21583 0.0
C2140 C 0.94498 0.08727 0.18901 0.0
H2141 H 0.8082 0.66368 0.21494 0.0
H2142 H 0.83438 0.65446 0.28974 0.0
H2143 H 0.83671 0.61846 0.22434 0.0
H2144 H 0.80323 0.59788 0.19498 0.0
H2145 H 0.7977 0.60239 0.12344 0.0
H2146 H 0.79763 0.62645 0.17986 0.0
H2147 H 0.80415 0.65702 0.10156 0.0
H2148 H 0.80417 0.63313 0.0449 0.0
H2149 H 0.81419 0.64923 0.06277 0.0
H2150 H 0.83668 0.585 0.14928 0.0
H2151 H 0.8347 0.55749 0.06162 0.0
H2152 H 0.8087 0.58797 0.03151 0.0
C2153 C 0.81438 0.6539 0.21783 0.0
C2154 C 0.8211 0.66191 0.25751 0.0
C2155 C 0.82914 0.64883 0.25946 0.0
C2156 C 0.83052 0.62819 0.22285 0.0
C2157 C 0.82381 0.62082 0.18414 0.0
C2158 C 0.81593 0.6333 0.18077 0.0
C2159 C 0.81011 0.62238 0.13168 0.0
C2160 C 0.80166 0.61164 0.15915 0.0
C2161 C 0.80804 0.64158 0.08231 0.0
C2162 C 0.81604 0.60216 0.10759 0.0
C2163 C 0.82386 0.60145 0.1393 0.0
C2164 C 0.83057 0.58522 0.12423 0.0
C2165 C 0.82938 0.56967 0.07428 0.0
C2166 C 0.82155 0.57051 0.03966 0.0
C2167 C 0.81472 0.58664 0.05752 0.0
H2168 H 0.58059 0.33741 0.9526 0.0
H2169 H 0.55259 0.32756 0.98064 0.0
H2170 H 0.54961 0.36089 0.90742 0.0
H2171 H 0.58022 0.4029 0.94146 0.0
H2172 H 0.58849 0.40448 0.88308 0.0
H2173 H 0.58851 0.37932 0.9364 0.0
H2174 H 0.58797 0.34798 0.84767 0.0
H2175 H 0.58808 0.37303 0.79408 0.0
H2176 H 0.57942 0.35047 0.79135 0.0
H2177 H 0.54964 0.3958 0.83301 0.0
H2178 H 0.55265 0.42803 0.75694 0.0
H2179 H 0.58063 0.41543 0.77793 0.0
C2180 C 0.57382 0.34204 0.94293 0.0
C2181 C 0.56683 0.32979 0.97246 0.0
C2182 C 0.55807 0.33661 0.95865 0.0
C2183 C 0.5563 0.35559 0.91726 0.0
C2184 C 0.56335 0.36761 0.89005 0.0
C2185 C 0.57193 0.36098 0.90186 0.0
C2186 C 0.57831 0.37686 0.86643 0.0
C2187 C 0.58423 0.39177 0.90943 0.0
C2188 C 0.58376 0.36115 0.82225 0.0
C2189 C 0.57196 0.39342 0.83274 0.0
C2190 C 0.56337 0.38783 0.84724 0.0
C2191 C 0.55634 0.40034 0.82125 0.0
C2192 C 0.55813 0.41868 0.77818 0.0
C2193 C 0.56688 0.42435 0.76143 0.0
C2194 C 0.57387 0.41175 0.79004 0.0
H2195 H 0.70253 0.83861 0.78053 0.0
H2196 H 0.6767 0.80691 0.80979 0.0
H2197 H 0.67438 0.83484 0.8961 0.0
H2198 H 0.70762 0.84962 0.94447 0.0
H2199 H 0.71313 0.87828 0.92868 0.0
H2200 H 0.71325 0.85387 0.8732 0.0
H2201 H 0.70682 0.88373 0.793 0.0
H2202 H 0.70655 0.90812 0.84834 0.0
H2203 H 0.69666 0.89947 0.8088 0.0
H2204 H 0.67395 0.86878 0.96943 0.0
H2205 H 0.67597 0.905 0.03457 0.0
H2206 H 0.70227 0.91503 0.96249 0.0
C2207 C 0.69649 0.83711 0.80618 0.0
C2208 C 0.68979 0.82055 0.78834 0.0
C2209 C 0.68192 0.81945 0.82241 0.0
C2210 C 0.68054 0.83523 0.87161 0.0
C2211 C 0.68711 0.85191 0.88659 0.0
C2212 C 0.69499 0.8528 0.85572 0.0
C2213 C 0.70074 0.87349 0.8797 0.0
C2214 C 0.70918 0.86319 0.90822 0.0
C2215 C 0.70281 0.89231 0.82946 0.0
C2216 C 0.69474 0.8844 0.92767 0.0
C2217 C 0.68692 0.87157 0.93059 0.0
C2218 C 0.68009 0.87878 0.96837 0.0
C2219 C 0.68129 0.89955 0.00482 0.0
C2220 C 0.68929 0.91287 0.00371 0.0
C2221 C 0.69612 0.90509 0.96469 0.0
H2222 H 0.58044 0.83921 0.47004 0.0
H2223 H 0.55293 0.83935 0.52171 0.0
H2224 H 0.55023 0.874 0.45233 0.0
H2225 H 0.58288 0.90541 0.45382 0.0
H2226 H 0.58988 0.90325 0.38807 0.0
H2227 H 0.58987 0.87896 0.44389 0.0
H2228 H 0.58619 0.84704 0.36014 0.0
H2229 H 0.58628 0.87117 0.30407 0.0
H2230 H 0.57674 0.85185 0.31232 0.0
H2231 H 0.55033 0.90805 0.37747 0.0
H2232 H 0.55295 0.93734 0.29418 0.0
H2233 H 0.58032 0.91507 0.28818 0.0
C2234 C 0.57386 0.84658 0.46687 0.0
C2235 C 0.56691 0.83656 0.50155 0.0
C2236 C 0.55837 0.84662 0.49562 0.0
C2237 C 0.55676 0.86643 0.45659 0.0
C2238 C 0.56375 0.87598 0.42348 0.0
C2239 C 0.57211 0.8663 0.4276 0.0
C2240 C 0.57833 0.87934 0.38452 0.0
C2241 C 0.58567 0.89252 0.41969 0.0
C2242 C 0.5821 0.86127 0.33747 0.0
C2243 C 0.57212 0.89765 0.35525 0.0
C2244 C 0.56377 0.89554 0.37905 0.0
C2245 C 0.55684 0.90995 0.35848 0.0
C2246 C 0.55841 0.92657 0.31113 0.0
C2247 C 0.56685 0.92856 0.28447 0.0
C2248 C 0.57382 0.91418 0.30783 0.0
H2249 H 0.70375 0.33886 0.27283 0.0
H2250 H 0.67757 0.30909 0.29975 0.0
H2251 H 0.67526 0.33776 0.38452 0.0
H2252 H 0.70848 0.35019 0.43661 0.0
H2253 H 0.7143 0.37841 0.42123 0.0
H2254 H 0.71433 0.3539 0.366 0.0
H2255 H 0.70837 0.38406 0.28474 0.0
H2256 H 0.70821 0.40857 0.33981 0.0
H2257 H 0.69834 0.4006 0.29921 0.0
H2258 H 0.67496 0.37179 0.45728 0.0
H2259 H 0.67717 0.40761 0.52309 0.0
H2260 H 0.70374 0.41589 0.45433 0.0
C2261 C 0.69762 0.33798 0.29755 0.0
C2262 C 0.69084 0.32168 0.2795 0.0
C2263 C 0.68286 0.32139 0.31247 0.0
C2264 C 0.68147 0.33761 0.36079 0.0
C2265 C 0.68814 0.35395 0.37606 0.0
C2266 C 0.69611 0.35413 0.34627 0.0
C2267 C 0.70199 0.37445 0.37082 0.0
C2268 C 0.71027 0.36358 0.40043 0.0
C2269 C 0.70436 0.39302 0.32064 0.0
C2270 C 0.69598 0.38592 0.418 0.0
C2271 C 0.68803 0.3737 0.41985 0.0
C2272 C 0.68119 0.38135 0.45695 0.0
C2273 C 0.68251 0.40191 0.49386 0.0
C2274 C 0.69063 0.41466 0.494 0.0
C2275 C 0.69748 0.40645 0.45555 0.0
H2276 H 0.45218 0.58818 0.21538 0.0
H2277 H 0.42454 0.58966 0.264 0.0
H2278 H 0.42227 0.62481 0.19569 0.0
H2279 H 0.45513 0.65412 0.20329 0.0
H2280 H 0.46228 0.6524 0.13818 0.0
H2281 H 0.46196 0.62741 0.19205 0.0
H2282 H 0.45824 0.59677 0.10557 0.0
H2283 H 0.45866 0.6216 0.0514 0.0
H2284 H 0.44895 0.60277 0.05701 0.0
H2285 H 0.42277 0.65931 0.12303 0.0
H2286 H 0.42575 0.68933 0.04195 0.0
H2287 H 0.45302 0.66621 0.03765 0.0
C2288 C 0.44565 0.59586 0.21152 0.0
C2289 C 0.43855 0.58609 0.24537 0.0
C2290 C 0.4301 0.59668 0.23872 0.0
C2291 C 0.42874 0.6168 0.20023 0.0
C2292 C 0.43587 0.62618 0.16835 0.0
C2293 C 0.44414 0.61598 0.17287 0.0
C2294 C 0.45057 0.62923 0.13148 0.0
C2295 C 0.45792 0.64152 0.16848 0.0
C2296 C 0.45432 0.61154 0.08352 0.0
C2297 C 0.44457 0.6483 0.10283 0.0
C2298 C 0.43614 0.64625 0.1254 0.0
C2299 C 0.42934 0.66117 0.10502 0.0
C2300 C 0.43111 0.67819 0.05896 0.0
C2301 C 0.43962 0.68018 0.03353 0.0
C2302 C 0.44648 0.66538 0.05681 0.0
H2303 H 0.33067 0.08778 0.02136 0.0
H2304 H 0.30272 0.07253 0.00877 0.0
H2305 H 0.29979 0.10457 0.08463 0.0
H2306 H 0.33073 0.09976 0.18575 0.0
H2307 H 0.33879 0.12391 0.17998 0.0
H2308 H 0.33881 0.09898 0.12599 0.0
H2309 H 0.33785 0.13051 0.03789 0.0
H2310 H 0.33769 0.15552 0.09162 0.0
H2311 H 0.32899 0.15249 0.03667 0.0
H2312 H 0.2996 0.13988 0.15476 0.0
H2313 H 0.30232 0.1735 0.22693 0.0
H2314 H 0.33041 0.16551 0.19915 0.0
C2315 C 0.32395 0.09093 0.0352 0.0
C2316 C 0.31693 0.07766 0.00869 0.0
C2317 C 0.30822 0.08242 0.0281 0.0
C2318 C 0.30647 0.10067 0.0711 0.0
C2319 C 0.31348 0.11387 0.0949 0.0
C2320 C 0.32206 0.10902 0.07869 0.0
C2321 C 0.32835 0.12601 0.11182 0.0
C2322 C 0.33453 0.11128 0.15336 0.0
C2323 C 0.33352 0.14208 0.0668 0.0
C2324 C 0.32192 0.1413 0.14845 0.0
C2325 C 0.31339 0.13403 0.13741 0.0
C2326 C 0.30626 0.14563 0.16437 0.0
C2327 C 0.30788 0.16484 0.20506 0.0
C2328 C 0.31659 0.17215 0.21895 0.0
C2329 C 0.32369 0.16033 0.18962 0.0
H2330 H 0.45228 0.08714 0.70804 0.0
H2331 H 0.42714 0.1029 0.79241 0.0
H2332 H 0.42562 0.13993 0.72928 0.0
H2333 H 0.45941 0.15144 0.68775 0.0
H2334 H 0.46418 0.14586 0.61406 0.0
H2335 H 0.46385 0.12155 0.66982 0.0
H2336 H 0.45565 0.09341 0.59356 0.0
H2337 H 0.45603 0.11753 0.53752 0.0
H2338 H 0.44565 0.10419 0.55884 0.0
H2339 H 0.42627 0.17373 0.65556 0.0
H2340 H 0.42838 0.2007 0.567 0.0
H2341 H 0.45289 0.16356 0.52581 0.0
C2342 C 0.44651 0.09857 0.71348 0.0
C2343 C 0.43983 0.09214 0.75524 0.0
C2344 C 0.43232 0.10733 0.7605 0.0
C2345 C 0.43142 0.12857 0.72524 0.0
C2346 C 0.43807 0.13439 0.68449 0.0
C2347 C 0.44543 0.11979 0.67772 0.0
C2348 C 0.45121 0.12936 0.62666 0.0
C2349 C 0.4602 0.13754 0.65105 0.0
C2350 C 0.45219 0.10997 0.57616 0.0
C2351 C 0.44584 0.15129 0.60533 0.0
C2352 C 0.43837 0.15398 0.64025 0.0
C2353 C 0.43212 0.17197 0.62806 0.0
C2354 C 0.43338 0.1872 0.5776 0.0
C2355 C 0.4408 0.1843 0.5396 0.0
C2356 C 0.44723 0.1665 0.55465 0.0
H2357 H 0.32998 0.59006 0.54345 0.0
H2358 H 0.30205 0.57756 0.51891 0.0
H2359 H 0.29886 0.61044 0.59299 0.0
H2360 H 0.32916 0.60235 0.70438 0.0
H2361 H 0.33754 0.62574 0.70095 0.0
H2362 H 0.33754 0.60092 0.64673 0.0
H2363 H 0.3374 0.63267 0.55873 0.0
H2364 H 0.33727 0.65758 0.61271 0.0
H2365 H 0.32883 0.65548 0.55559 0.0
H2366 H 0.29871 0.64505 0.66881 0.0
H2367 H 0.30166 0.67716 0.74553 0.0
H2368 H 0.32967 0.66713 0.71885 0.0
C2369 C 0.32318 0.59404 0.55397 0.0
C2370 C 0.31627 0.58119 0.52534 0.0
C2371 C 0.30747 0.58712 0.54025 0.0
C2372 C 0.30558 0.60583 0.58212 0.0
C2373 C 0.31256 0.61843 0.60857 0.0
C2374 C 0.32118 0.61267 0.59542 0.0
C2375 C 0.32748 0.62894 0.6302 0.0
C2376 C 0.33327 0.61357 0.67312 0.0
C2377 C 0.33307 0.64459 0.5867 0.0
C2378 C 0.32105 0.64469 0.66517 0.0
C2379 C 0.31248 0.63842 0.65192 0.0
C2380 C 0.3054 0.65015 0.67955 0.0
C2381 C 0.30714 0.66841 0.72293 0.0
C2382 C 0.3159 0.67473 0.73822 0.0
C2383 C 0.32291 0.66291 0.708 0.0
H2384 H 0.05806 0.338 0.79538 0.0
H2385 H 0.08359 0.30537 0.83015 0.0
H2386 H 0.08562 0.33305 0.91738 0.0
H2387 H 0.06409 0.3983 0.82407 0.0
H2388 H 0.05412 0.40762 0.86154 0.0
H2389 H 0.05389 0.383 0.80684 0.0
H2390 H 0.04698 0.35379 0.88655 0.0
H2391 H 0.04705 0.37846 0.94136 0.0
H2392 H 0.05231 0.34962 0.95898 0.0
H2393 H 0.08596 0.3671 0.98997 0.0
H2394 H 0.08403 0.40391 0.05287 0.0
H2395 H 0.05809 0.41519 0.97557 0.0
C2396 C 0.06395 0.33617 0.82258 0.0
C2397 C 0.07067 0.31948 0.80601 0.0
C2398 C 0.07836 0.318 0.84191 0.0
C2399 C 0.07958 0.33364 0.89161 0.0
C2400 C 0.07302 0.35055 0.90521 0.0
C2401 C 0.06529 0.35176 0.87258 0.0
C2402 C 0.05958 0.37285 0.8949 0.0
C2403 C 0.05782 0.39154 0.84378 0.0
C2404 C 0.05097 0.36309 0.92208 0.0
C2405 C 0.06546 0.38371 0.94374 0.0
C2406 C 0.07316 0.37039 0.94872 0.0
C2407 C 0.0799 0.37746 0.98738 0.0
C2408 C 0.07876 0.39859 0.02255 0.0
C2409 C 0.07089 0.41248 0.0193 0.0
C2410 C 0.06413 0.40482 0.97947 0.0
H2411 H 0.17897 0.83556 0.95467 0.0
H2412 H 0.20653 0.81525 0.95409 0.0
H2413 H 0.20937 0.84606 0.87445 0.0
H2414 H 0.17723 0.84835 0.78935 0.0
H2415 H 0.16995 0.87406 0.80091 0.0
H2416 H 0.16989 0.84863 0.85353 0.0
H2417 H 0.17272 0.87898 0.94217 0.0
H2418 H 0.17296 0.90444 0.8898 0.0
H2419 H 0.18216 0.89896 0.93947 0.0
H2420 H 0.20959 0.88108 0.80346 0.0
H2421 H 0.20705 0.91624 0.73605 0.0
H2422 H 0.17926 0.91464 0.78062 0.0
C2423 C 0.18555 0.83713 0.93658 0.0
C2424 C 0.19253 0.82295 0.96049 0.0
C2425 C 0.20108 0.82589 0.93647 0.0
C2426 C 0.20277 0.84337 0.8913 0.0
C2427 C 0.19582 0.85769 0.87044 0.0
C2428 C 0.18736 0.8546 0.89146 0.0
C2429 C 0.18119 0.87324 0.8629 0.0
C2430 C 0.17415 0.8603 0.82437 0.0
C2431 C 0.17702 0.88988 0.9115 0.0
C2432 C 0.18756 0.88751 0.82339 0.0
C2433 C 0.19595 0.87813 0.82868 0.0
C2434 C 0.20304 0.88845 0.79835 0.0
C2435 C 0.20151 0.9086 0.76041 0.0
C2436 C 0.19294 0.91833 0.75286 0.0
C2437 C 0.18588 0.90769 0.78533 0.0
H2438 H 0.05922 0.91493 0.4578 0.0
H2439 H 0.08723 0.9211 0.49176 0.0
H2440 H 0.08998 0.88723 0.42024 0.0
H2441 H 0.05856 0.84894 0.44584 0.0
H2442 H 0.05061 0.84853 0.38515 0.0
H2443 H 0.05069 0.87354 0.43895 0.0
H2444 H 0.05221 0.90501 0.35109 0.0
H2445 H 0.05202 0.88013 0.29701 0.0
H2446 H 0.06103 0.90162 0.29715 0.0
H2447 H 0.08983 0.85271 0.34676 0.0
H2448 H 0.08688 0.82143 0.2685 0.0
H2449 H 0.05898 0.83702 0.28083 0.0
C2450 C 0.06593 0.90929 0.44987 0.0
C2451 C 0.073 0.92071 0.48067 0.0
C2452 C 0.08169 0.91269 0.46897 0.0
C2453 C 0.08333 0.89336 0.42854 0.0
C2454 C 0.07623 0.8822 0.39998 0.0
C2455 C 0.06771 0.88995 0.40952 0.0
C2456 C 0.0613 0.87492 0.37193 0.0
C2457 C 0.05491 0.86064 0.41293 0.0
C2458 C 0.05635 0.8914 0.3266 0.0
C2459 C 0.06758 0.85765 0.33966 0.0
C2460 C 0.07615 0.86213 0.35697 0.0
C2461 C 0.08316 0.849 0.33276 0.0
C2462 C 0.0814 0.83123 0.28837 0.0
C2463 C 0.0727 0.82673 0.26847 0.0
C2464 C 0.06569 0.83983 0.29548 0.0
H2465 H 0.201 0.33862 0.46022 0.0
H2466 H 0.17314 0.32283 0.47463 0.0
H2467 H 0.17004 0.35422 0.39694 0.0
H2468 H 0.19894 0.40308 0.44445 0.0
H2469 H 0.20768 0.40646 0.38994 0.0
H2470 H 0.20792 0.38151 0.44383 0.0
H2471 H 0.20915 0.34994 0.35601 0.0
H2472 H 0.20905 0.37483 0.30187 0.0
H2473 H 0.20113 0.3503 0.29578 0.0
H2474 H 0.16977 0.38864 0.3231 0.0
H2475 H 0.17243 0.42223 0.25049 0.0
H2476 H 0.20049 0.41617 0.28291 0.0
C2477 C 0.19427 0.34143 0.44621 0.0
C2478 C 0.18731 0.32823 0.47361 0.0
C2479 C 0.17858 0.33271 0.45449 0.0
C2480 C 0.17674 0.35054 0.41041 0.0
C2481 C 0.1837 0.36371 0.38572 0.0
C2482 C 0.1923 0.35926 0.40227 0.0
C2483 C 0.19852 0.37651 0.36943 0.0
C2484 C 0.20356 0.39286 0.41463 0.0
C2485 C 0.20484 0.36203 0.32832 0.0
C2486 C 0.19205 0.39145 0.33235 0.0
C2487 C 0.18355 0.38373 0.34262 0.0
C2488 C 0.1764 0.39477 0.31427 0.0
C2489 C 0.178 0.41392 0.27322 0.0
C2490 C 0.18667 0.42187 0.26077 0.0
C2491 C 0.19378 0.4106 0.29146 0.0
H2492 H 0.92968 0.58513 0.02736 0.0
H2493 H 0.95679 0.59038 0.96747 0.0
H2494 H 0.95904 0.62595 0.03415 0.0
H2495 H 0.92571 0.65111 0.04369 0.0
H2496 H 0.91931 0.64786 0.11208 0.0
H2497 H 0.91946 0.62342 0.0567 0.0
H2498 H 0.92456 0.5926 0.13936 0.0
H2499 H 0.92433 0.61688 0.19502 0.0
H2500 H 0.93424 0.59939 0.18341 0.0
H2501 H 0.95867 0.66027 0.10672 0.0
H2502 H 0.95611 0.68914 0.19076 0.0
H2503 H 0.92943 0.66177 0.20881 0.0
C2504 C 0.93606 0.59387 0.02818 0.0
C2505 C 0.94304 0.58494 0.99193 0.0
C2506 C 0.95133 0.59672 0.99484 0.0
C2507 C 0.95268 0.61712 0.03227 0.0
C2508 C 0.9457 0.62554 0.06708 0.0
C2509 C 0.93759 0.6142 0.06621 0.0
C2510 C 0.93142 0.62623 0.11151 0.0
C2511 C 0.92351 0.63785 0.07903 0.0
C2512 C 0.92847 0.60767 0.16021 0.0
C2513 C 0.9374 0.64583 0.13813 0.0
C2514 C 0.94556 0.64525 0.11096 0.0
C2515 C 0.95231 0.66098 0.12843 0.0
C2516 C 0.95077 0.67734 0.17628 0.0
C2517 C 0.94258 0.67774 0.20664 0.0
C2518 C 0.93575 0.66209 0.18628 0.0
H2519 H 0.80972 0.16944 0.02917 0.0
H2520 H 0.83772 0.18456 0.02434 0.0
H2521 H 0.84017 0.15276 0.10181 0.0
H2522 H 0.80868 0.15716 0.19452 0.0
H2523 H 0.80065 0.13305 0.18584 0.0
H2524 H 0.80095 0.15824 0.13254 0.0
H2525 H 0.80239 0.12709 0.04404 0.0
H2526 H 0.80225 0.10183 0.09706 0.0
H2527 H 0.81126 0.10512 0.04464 0.0
H2528 H 0.83994 0.11721 0.17085 0.0
H2529 H 0.83692 0.08289 0.23983 0.0
H2530 H 0.80895 0.09078 0.20565 0.0
C2531 C 0.81635 0.16641 0.04526 0.0
C2532 C 0.82353 0.17953 0.02029 0.0
C2533 C 0.8321 0.17484 0.04249 0.0
C2534 C 0.83358 0.15672 0.08644 0.0
C2535 C 0.82642 0.14358 0.10842 0.0
C2536 C 0.81795 0.14843 0.08968 0.0
C2537 C 0.81147 0.13124 0.12064 0.0
C2538 C 0.80506 0.14579 0.16078 0.0
C2539 C 0.80655 0.11538 0.07378 0.0
C2540 C 0.81768 0.11574 0.15876 0.0
C2541 C 0.82626 0.1232 0.15044 0.0
C2542 C 0.83324 0.11139 0.17852 0.0
C2543 C 0.83143 0.09174 0.21746 0.0
C2544 C 0.82267 0.08409 0.2287 0.0
C2545 C 0.81571 0.09619 0.19833 0.0
H2546 H 0.93061 0.08626 0.52577 0.0
H2547 H 0.95857 0.07561 0.49768 0.0
H2548 H 0.96169 0.10955 0.56862 0.0
H2549 H 0.93108 0.15178 0.53371 0.0
H2550 H 0.92292 0.15402 0.59273 0.0
H2551 H 0.92276 0.12836 0.54089 0.0
H2552 H 0.92342 0.09782 0.63129 0.0
H2553 H 0.92343 0.12338 0.6834 0.0
H2554 H 0.93206 0.10077 0.68676 0.0
H2555 H 0.96184 0.14537 0.63957 0.0
H2556 H 0.95906 0.17817 0.7144 0.0
H2557 H 0.93101 0.16566 0.69726 0.0
C2558 C 0.93739 0.09084 0.53502 0.0
C2559 C 0.94434 0.07823 0.50588 0.0
C2560 C 0.95312 0.08495 0.51924 0.0
C2561 C 0.95497 0.1043 0.55931 0.0
C2562 C 0.94798 0.11674 0.58589 0.0
C2563 C 0.93937 0.11012 0.57501 0.0
C2564 C 0.93309 0.12642 0.61007 0.0
C2565 C 0.92711 0.14101 0.56675 0.0
C2566 C 0.92768 0.11119 0.65559 0.0
C2567 C 0.93952 0.14323 0.64228 0.0
C2568 C 0.94807 0.1374 0.62732 0.0
C2569 C 0.95518 0.15008 0.65179 0.0
C2570 C 0.95352 0.16876 0.69414 0.0
C2571 C 0.94482 0.17455 0.71181 0.0
C2572 C 0.93773 0.16188 0.6844 0.0
H2573 H 0.80919 0.59133 0.71798 0.0
H2574 H 0.83649 0.59435 0.77472 0.0
H2575 H 0.83886 0.63028 0.70924 0.0
H2576 H 0.81336 0.60649 0.56231 0.0
H2577 H 0.80356 0.62469 0.55314 0.0
H2578 H 0.80379 0.59997 0.60761 0.0
H2579 H 0.79922 0.63048 0.6924 0.0
H2580 H 0.7991 0.65537 0.63822 0.0
H2581 H 0.80575 0.65763 0.70574 0.0
H2582 H 0.83857 0.66507 0.63741 0.0
H2583 H 0.83599 0.69431 0.55394 0.0
H2584 H 0.80902 0.66897 0.54015 0.0
C2585 C 0.81565 0.59962 0.71672 0.0
C2586 C 0.82264 0.58999 0.75175 0.0
C2587 C 0.83102 0.60125 0.74832 0.0
C2588 C 0.83244 0.62185 0.71158 0.0
C2589 C 0.82543 0.631 0.67812 0.0
C2590 C 0.81723 0.62017 0.67958 0.0
C2591 C 0.81101 0.63293 0.63589 0.0
C2592 C 0.80774 0.61495 0.58683 0.0
C2593 C 0.80331 0.64481 0.67013 0.0
C2594 C 0.81707 0.65233 0.60928 0.0
C2595 C 0.82531 0.65105 0.63513 0.0
C2596 C 0.83213 0.66636 0.61685 0.0
C2597 C 0.83059 0.68295 0.56941 0.0
C2598 C 0.8223 0.68399 0.54037 0.0
C2599 C 0.8154 0.66885 0.56178 0.0
H2600 H 0.5608 0.41319 0.45313 0.0
H2601 H 0.58886 0.42041 0.4838 0.0
H2602 H 0.59161 0.3871 0.41071 0.0
H2603 H 0.56046 0.34747 0.43967 0.0
H2604 H 0.55237 0.34686 0.37994 0.0
H2605 H 0.55244 0.37175 0.43405 0.0
H2606 H 0.55358 0.40347 0.34645 0.0
H2607 H 0.55338 0.3787 0.29206 0.0
H2608 H 0.56228 0.40057 0.29142 0.0
H2609 H 0.59146 0.3528 0.33717 0.0
H2610 H 0.58849 0.32125 0.25977 0.0
H2611 H 0.56053 0.33567 0.27506 0.0
C2612 C 0.56753 0.40792 0.44405 0.0
C2613 C 0.57461 0.41942 0.47444 0.0
C2614 C 0.58331 0.4119 0.46134 0.0
C2615 C 0.58495 0.39291 0.42 0.0
C2616 C 0.57784 0.38162 0.39197 0.0
C2617 C 0.5693 0.38893 0.40278 0.0
C2618 C 0.56288 0.37373 0.3658 0.0
C2619 C 0.55667 0.35909 0.40736 0.0
C2620 C 0.55773 0.3901 0.32128 0.0
C2621 C 0.56916 0.35681 0.33256 0.0
C2622 C 0.57775 0.36167 0.34877 0.0
C2623 C 0.58477 0.34882 0.32391 0.0
C2624 C 0.583 0.3309 0.28001 0.0
C2625 C 0.57428 0.32599 0.26122 0.0
C2626 C 0.56726 0.33885 0.28879 0.0
H2627 H 0.70237 0.91705 0.28614 0.0
H2628 H 0.67567 0.94395 0.30542 0.0
H2629 H 0.67321 0.91486 0.38925 0.0
H2630 H 0.69768 0.85509 0.30888 0.0
H2631 H 0.70736 0.84787 0.35243 0.0
H2632 H 0.70758 0.87277 0.29847 0.0
H2633 H 0.71254 0.90301 0.38269 0.0
H2634 H 0.71249 0.8781 0.43683 0.0
H2635 H 0.70619 0.90553 0.45149 0.0
H2636 H 0.67289 0.8801 0.46047 0.0
H2637 H 0.67518 0.84401 0.52541 0.0
H2638 H 0.70227 0.83934 0.46461 0.0
C2639 C 0.69609 0.91728 0.30912 0.0
C2640 C 0.6892 0.93279 0.28906 0.0
C2641 C 0.68104 0.93226 0.31977 0.0
C2642 C 0.67957 0.91578 0.36749 0.0
C2643 C 0.68635 0.90009 0.38444 0.0
C2644 C 0.6945 0.9009 0.35714 0.0
C2645 C 0.70049 0.88108 0.38267 0.0
C2646 C 0.70345 0.86315 0.33261 0.0
C2647 C 0.7084 0.89262 0.41538 0.0
C2648 C 0.69433 0.86865 0.42731 0.0
C2649 C 0.68622 0.88001 0.42729 0.0
C2650 C 0.67925 0.87126 0.46175 0.0
C2651 C 0.68062 0.85057 0.49816 0.0
C2652 C 0.68892 0.83881 0.50035 0.0
C2653 C 0.69587 0.84802 0.46428 0.0
H2654 H 0.5817 0.91496 0.95749 0.0
H2655 H 0.55567 0.90347 0.03258 0.0
H2656 H 0.55393 0.86637 0.96997 0.0
H2657 H 0.5758 0.89747 0.80539 0.0
H2658 H 0.58613 0.88277 0.78902 0.0
H2659 H 0.58566 0.90759 0.84313 0.0
H2660 H 0.59286 0.87946 0.92413 0.0
H2661 H 0.59323 0.85444 0.8704 0.0
H2662 H 0.58784 0.85036 0.9426 0.0
H2663 H 0.55482 0.83087 0.90108 0.0
H2664 H 0.55732 0.80207 0.81685 0.0
H2665 H 0.58239 0.83696 0.77958 0.0
C2666 C 0.57566 0.90455 0.9607 0.0
C2667 C 0.56883 0.91208 5e-05 0.0
C2668 C 0.56097 0.89818 0.00254 0.0
C2669 C 0.55995 0.87691 0.96762 0.0
C2670 C 0.5668 0.86983 0.92982 0.0
C2671 C 0.57444 0.88339 0.92505 0.0
C2672 C 0.58045 0.87256 0.87696 0.0
C2673 C 0.5821 0.89121 0.82558 0.0
C2674 C 0.58911 0.86368 0.90523 0.0
C2675 C 0.57492 0.85103 0.85525 0.0
C2676 C 0.56716 0.84961 0.88746 0.0
C2677 C 0.56085 0.83179 0.87529 0.0
C2678 C 0.56233 0.81553 0.82721 0.0
C2679 C 0.57 0.81737 0.79116 0.0
C2680 C 0.5765 0.83492 0.80662 0.0
H2681 H 0.7031 0.4157 0.77836 0.0
H2682 H 0.67623 0.44152 0.79549 0.0
H2683 H 0.6737 0.41183 0.87778 0.0
H2684 H 0.69867 0.35318 0.79953 0.0
H2685 H 0.70829 0.34634 0.8441 0.0
H2686 H 0.70849 0.37132 0.79032 0.0
H2687 H 0.71309 0.40167 0.87531 0.0
H2688 H 0.71305 0.37669 0.92926 0.0
H2689 H 0.70656 0.40382 0.9434 0.0
H2690 H 0.67339 0.37697 0.94855 0.0
H2691 H 0.67578 0.34125 0.0145 0.0
H2692 H 0.70301 0.3377 0.95642 0.0
C2693 C 0.69676 0.41551 0.80045 0.0
C2694 C 0.68986 0.43093 0.78021 0.0
C2695 C 0.68161 0.42989 0.80987 0.0
C2696 C 0.6801 0.41306 0.85673 0.0
C2697 C 0.68691 0.39752 0.87394 0.0
C2698 C 0.69512 0.39879 0.84769 0.0
C2699 C 0.70116 0.3792 0.87378 0.0
C2700 C 0.70434 0.36147 0.82395 0.0
C2701 C 0.70892 0.39106 0.90745 0.0
C2702 C 0.69496 0.36644 0.91764 0.0
C2703 C 0.68678 0.37739 0.9166 0.0
C2704 C 0.6798 0.36841 0.95052 0.0
C2705 C 0.68122 0.34792 0.9875 0.0
C2706 C 0.68959 0.33659 0.9908 0.0
C2707 C 0.69655 0.34601 0.95516 0.0
H2708 H 0.43042 0.58358 0.54125 0.0
H2709 H 0.45827 0.56675 0.53602 0.0
H2710 H 0.46093 0.59738 0.61628 0.0
H2711 H 0.43269 0.64743 0.55924 0.0
H2712 H 0.42359 0.65123 0.61072 0.0
H2713 H 0.42358 0.62628 0.55686 0.0
H2714 H 0.42155 0.59481 0.64416 0.0
H2715 H 0.42143 0.6197 0.6983 0.0
H2716 H 0.42914 0.59481 0.707 0.0
H2717 H 0.46089 0.63185 0.68947 0.0
H2718 H 0.45804 0.66628 0.75885 0.0
H2719 H 0.43015 0.66134 0.71903 0.0
C2720 C 0.43704 0.58591 0.55803 0.0
C2721 C 0.44413 0.57267 0.53235 0.0
C2722 C 0.45273 0.57661 0.55488 0.0
C2723 C 0.45432 0.59401 0.60046 0.0
C2724 C 0.44725 0.60729 0.62329 0.0
C2725 C 0.43876 0.60331 0.60357 0.0
C2726 C 0.43242 0.62088 0.63434 0.0
C2727 C 0.4278 0.63743 0.58748 0.0
C2728 C 0.42574 0.6067 0.67327 0.0
C2729 C 0.4387 0.63558 0.67365 0.0
C2730 C 0.44721 0.62734 0.66637 0.0
C2731 C 0.45424 0.63831 0.69615 0.0
C2732 C 0.45254 0.65798 0.73536 0.0
C2733 C 0.44385 0.66656 0.7448 0.0
C2734 C 0.43685 0.65523 0.71302 0.0
H2735 H 0.33151 0.16456 0.52328 0.0
H2736 H 0.30355 0.17854 0.5046 0.0
H2737 H 0.30043 0.14631 0.57925 0.0
H2738 H 0.33002 0.09954 0.5377 0.0
H2739 H 0.33847 0.0967 0.5946 0.0
H2740 H 0.33878 0.12179 0.54111 0.0
H2741 H 0.33921 0.15322 0.6296 0.0
H2742 H 0.33903 0.1282 0.68336 0.0
H2743 H 0.33085 0.15209 0.68747 0.0
H2744 H 0.30004 0.11099 0.6488 0.0
H2745 H 0.3025 0.07756 0.72184 0.0
H2746 H 0.33069 0.08645 0.70097 0.0
C2747 C 0.32475 0.16108 0.53558 0.0
C2748 C 0.31779 0.1742 0.5078 0.0
C2749 C 0.30902 0.16895 0.52513 0.0
C2750 C 0.30715 0.15052 0.56737 0.0
C2751 C 0.3141 0.13752 0.5925 0.0
C2752 C 0.32273 0.14275 0.57834 0.0
C2753 C 0.32892 0.12588 0.61284 0.0
C2754 C 0.33437 0.11004 0.56892 0.0
C2755 C 0.33485 0.14074 0.65588 0.0
C2756 C 0.32238 0.11031 0.6479 0.0
C2757 C 0.31388 0.11728 0.63479 0.0
C2758 C 0.30666 0.10547 0.66005 0.0
C2759 C 0.30814 0.08636 0.7013 0.0
C2760 C 0.3168 0.07938 0.71752 0.0
C2761 C 0.324 0.09137 0.68969 0.0
H2762 H 0.45305 0.16284 0.21103 0.0
H2763 H 0.4269 0.15323 0.28621 0.0
H2764 H 0.42468 0.11694 0.22203 0.0
H2765 H 0.44712 0.14721 0.05924 0.0
H2766 H 0.45718 0.13118 0.04216 0.0
H2767 H 0.45714 0.15544 0.09787 0.0
H2768 H 0.46372 0.12549 0.17737 0.0
H2769 H 0.46369 0.10105 0.12194 0.0
H2770 H 0.45816 0.09694 0.19361 0.0
H2771 H 0.42474 0.08322 0.14798 0.0
H2772 H 0.42672 0.05542 0.06081 0.0
H2773 H 0.45267 0.08598 0.03 0.0
C2774 C 0.4469 0.15294 0.21424 0.0
C2775 C 0.44017 0.16097 0.25385 0.0
C2776 C 0.43216 0.14764 0.25616 0.0
C2777 C 0.43084 0.12681 0.22019 0.0
C2778 C 0.43755 0.11939 0.18172 0.0
C2779 C 0.4454 0.13205 0.17789 0.0
C2780 C 0.45125 0.12089 0.12926 0.0
C2781 C 0.45329 0.13981 0.07916 0.0
C2782 C 0.45971 0.11047 0.15724 0.0
C2783 C 0.44535 0.10039 0.10589 0.0
C2784 C 0.43755 0.09973 0.13762 0.0
C2785 C 0.43085 0.08336 0.12298 0.0
C2786 C 0.43204 0.06764 0.07334 0.0
C2787 C 0.43985 0.06842 0.03867 0.0
C2788 C 0.44668 0.08465 0.05621 0.0
H2789 H 0.30835 0.58686 0.22601 0.0
H2790 H 0.33609 0.56853 0.22996 0.0
H2791 H 0.339 0.60002 0.15268 0.0
H2792 H 0.3074 0.59982 0.0604 0.0
H2793 H 0.29981 0.62498 0.06957 0.0
H2794 H 0.29969 0.59966 0.1225 0.0
H2795 H 0.30172 0.63039 0.21136 0.0
H2796 H 0.30201 0.65575 0.15863 0.0
H2797 H 0.31097 0.6511 0.21091 0.0
H2798 H 0.33936 0.63515 0.08388 0.0
H2799 H 0.33691 0.66954 0.01404 0.0
H2800 H 0.30886 0.66576 0.04914 0.0
C2801 C 0.31499 0.58913 0.20947 0.0
C2802 C 0.322 0.5753 0.23426 0.0
C2803 C 0.33062 0.57899 0.21203 0.0
C2804 C 0.33236 0.59687 0.16815 0.0
C2805 C 0.3254 0.61084 0.14647 0.0
C2806 C 0.31686 0.60701 0.16524 0.0
C2807 C 0.31069 0.62515 0.1346 0.0
C2808 C 0.304 0.61159 0.09437 0.0
C2809 C 0.30608 0.64157 0.18171 0.0
C2810 C 0.31715 0.63986 0.0966 0.0
C2811 C 0.32559 0.63123 0.10474 0.0
C2812 C 0.33277 0.64192 0.07632 0.0
C2813 C 0.33129 0.66157 0.03684 0.0
C2814 C 0.32268 0.67032 0.02555 0.0
C2815 C 0.31552 0.65952 0.05673 0.0
H2816 H 0.14659 0.46963 0.20376 0.0
H2817 H 0.15486 0.4799 0.01662 0.0
H2818 H 0.13938 0.48292 0.98488 0.0
H2819 H 0.12796 0.43211 0.17161 0.0
H2820 H 0.12121 0.44528 0.23043 0.0
H2821 H 0.13295 0.44482 0.23897 0.0
H2822 H 0.13301 0.49208 0.25479 0.0
H2823 H 0.12125 0.49269 0.24632 0.0
H2824 H 0.12804 0.51169 0.19834 0.0
H2825 H 0.123 0.48324 0.97264 0.0
H2826 H 0.10688 0.48134 0.98097 0.0
H2827 H 0.10916 0.47142 0.17616 0.0
C2828 C 0.14516 0.47267 0.15614 0.0
C2829 C 0.15197 0.47451 0.1127 0.0
C2830 C 0.14978 0.47842 0.05081 0.0
C2831 C 0.141 0.48018 0.03229 0.0
C2832 C 0.13445 0.47811 0.07617 0.0
C2833 C 0.13641 0.47452 0.13684 0.0
C2834 C 0.12812 0.47248 0.17461 0.0
C2835 C 0.12753 0.44717 0.20572 0.0
C2836 C 0.12757 0.49349 0.22127 0.0
C2837 C 0.12119 0.47525 0.12561 0.0
C2838 C 0.12499 0.47851 0.06917 0.0
C2839 C 0.11995 0.48084 0.01665 0.0
C2840 C 0.11079 0.47969 0.02186 0.0
C2841 C 0.10673 0.4763 0.0792 0.0
C2842 C 0.11204 0.47422 0.13172 0.0
H2843 H 0.10836 0.79814 0.05818 0.0
H2844 H 0.10737 0.75018 0.21587 0.0
H2845 H 0.12349 0.74683 0.21462 0.0
H2846 H 0.12685 0.76823 0.98248 0.0
H2847 H 0.13155 0.79682 0.95657 0.0
H2848 H 0.11987 0.79428 0.96713 0.0
H2849 H 0.12018 0.83183 0.03968 0.0
H2850 H 0.13186 0.83446 0.0294 0.0
H2851 H 0.12737 0.83141 0.10479 0.0
H2852 H 0.13964 0.74938 0.19854 0.0
H2853 H 0.15492 0.75885 0.17104 0.0
H2854 H 0.14572 0.80626 0.02531 0.0
C2855 C 0.11154 0.7867 0.09194 0.0
C2856 C 0.1066 0.77432 0.13698 0.0
C2857 C 0.11101 0.75985 0.18098 0.0
C2858 C 0.12017 0.75776 0.18054 0.0
C2859 C 0.12486 0.77037 0.13602 0.0
C2860 C 0.12072 0.78464 0.09262 0.0
C2861 C 0.12737 0.79723 0.05174 0.0
C2862 C 0.12635 0.78862 0.98555 0.0
C2863 C 0.12665 0.8254 0.05673 0.0
C2864 C 0.13588 0.78792 0.07928 0.0
C2865 C 0.13425 0.77228 0.1275 0.0
C2866 C 0.14101 0.76155 0.16076 0.0
C2867 C 0.14968 0.76707 0.14471 0.0
C2868 C 0.15156 0.78333 0.09599 0.0
C2869 C 0.14452 0.79374 0.0627 0.0
H2870 H 0.89693 0.53878 0.95794 0.0
H2871 H 0.90607 0.52365 0.77479 0.0
H2872 H 0.89078 0.51879 0.74061 0.0
H2873 H 0.87874 0.49539 0.9562 0.0
H2874 H 0.87155 0.51517 -0.00087 0.0
H2875 H 0.88325 0.51699 0.01001 0.0
H2876 H 0.88285 0.56364 0.98566 0.0
H2877 H 0.87115 0.56196 0.97483 0.0
H2878 H 0.87805 0.57394 0.91521 0.0
H2879 H 0.87453 0.51711 0.72487 0.0
H2880 H 0.85837 0.51827 0.72899 0.0
H2881 H 0.85956 0.53349 0.92251 0.0
C2882 C 0.89572 0.53435 0.9107 0.0
C2883 C 0.90274 0.53163 0.8691 0.0
C2884 C 0.90084 0.52585 0.80764 0.0
C2885 C 0.89216 0.52301 0.78772 0.0
C2886 C 0.88541 0.52589 0.82974 0.0
C2887 C 0.88707 0.53135 0.88999 0.0
C2888 C 0.87857 0.5338 0.9255 0.0
C2889 C 0.878 0.51416 0.97568 0.0
C2890 C 0.8776 0.55988 0.95184 0.0
C2891 C 0.87189 0.52905 0.87566 0.0
C2892 C 0.87599 0.52454 0.8208 0.0
C2893 C 0.87124 0.52046 0.76765 0.0
C2894 C 0.86205 0.52118 0.77046 0.0
C2895 C 0.85767 0.52583 0.82607 0.0
C2896 C 0.8627 0.52959 0.87943 0.0
H2897 H 0.90237 0.21135 0.88968 0.0
H2898 H 0.90282 0.24577 0.71162 0.0
H2899 H 0.8867 0.25024 0.71514 0.0
H2900 H 0.88279 0.17654 0.86647 0.0
H2901 H 0.87889 0.18031 0.94323 0.0
H2902 H 0.89048 0.18084 0.92781 0.0
H2903 H 0.8917 0.22355 0.97952 0.0
H2904 H 0.8801 0.22319 0.99497 0.0
H2905 H 0.88486 0.24848 0.95346 0.0
H2906 H 0.87047 0.25065 0.73773 0.0
H2907 H 0.85533 0.24506 0.77517 0.0
H2908 H 0.86542 0.20942 0.93743 0.0
C2909 C 0.89909 0.21995 0.8515 0.0
C2910 C 0.90388 0.22827 0.80038 0.0
C2911 C 0.89931 0.23924 0.75126 0.0
C2912 C 0.89015 0.24193 0.75292 0.0
C2913 C 0.88563 0.2335 0.80393 0.0
C2914 C 0.88994 0.22263 0.85223 0.0
C2915 C 0.88352 0.2144 0.90079 0.0
C2916 C 0.88394 0.18636 0.91009 0.0
C2917 C 0.88514 0.22823 0.96073 0.0
C2918 C 0.87491 0.2221 0.872 0.0
C2919 C 0.87628 0.23332 0.81643 0.0
C2920 C 0.86932 0.2419 0.7812 0.0
C2921 C 0.86074 0.23867 0.80294 0.0
C2922 C 0.85915 0.22675 0.85923 0.0
C2923 C 0.86638 0.21858 0.89424 0.0
H2924 H 0.14593 0.95701 0.72288 0.0
H2925 H 0.15541 0.99113 0.55683 0.0
H2926 H 0.14019 0.99853 0.52437 0.0
H2927 H 0.12763 0.9263 0.65755 0.0
H2928 H 0.12037 0.9315 0.72091 0.0
H2929 H 0.13203 0.92978 0.73312 0.0
H2930 H 0.13178 0.97267 0.78445 0.0
H2931 H 0.1201 0.97451 0.7725 0.0
H2932 H 0.12717 0.99851 0.74415 0.0
H2933 H 0.12407 1.00015 0.5064 0.0
H2934 H 0.10795 0.99716 0.50564 0.0
H2935 H 0.10857 0.96312 0.68416 0.0
C2936 C 0.14481 0.96623 0.67995 0.0
C2937 C 0.15191 0.97343 0.64243 0.0
C2938 C 0.15013 0.98541 0.5865 0.0
C2939 C 0.14148 0.98973 0.56758 0.0
C2940 C 0.13465 0.98218 0.60518 0.0
C2941 C 0.13618 0.97085 0.6604 0.0
C2942 C 0.1276 0.96426 0.6915 0.0
C2943 C 0.12687 0.9363 0.70132 0.0
C2944 C 0.12661 0.97833 0.75172 0.0
C2945 C 0.12102 0.97322 0.64455 0.0
C2946 C 0.12526 0.98353 0.59522 0.0
C2947 C 0.12067 0.99232 0.545 0.0
C2948 C 0.1115 0.99047 0.54495 0.0
C2949 C 0.10697 0.98 0.59489 0.0
C2950 C 0.11183 0.97145 0.64557 0.0
H2951 H 0.10908 0.28965 0.59441 0.0
H2952 H 0.10857 0.25737 0.77493 0.0
H2953 H 0.12472 0.25523 0.77481 0.0
H2954 H 0.1277 0.25447 0.53689 0.0
H2955 H 0.13214 0.28005 0.49473 0.0
H2956 H 0.12049 0.27793 0.50748 0.0
H2957 H 0.12059 0.32134 0.55617 0.0
H2958 H 0.13223 0.32358 0.54371 0.0
H2959 H 0.12784 0.32754 0.61911 0.0
H2960 H 0.14092 0.2577 0.75695 0.0
H2961 H 0.1561 0.26503 0.72288 0.0
H2962 H 0.14626 0.29629 0.55441 0.0
C2963 C 0.11236 0.28189 0.63365 0.0
C2964 C 0.10753 0.27361 0.68465 0.0
C2965 C 0.1121 0.26385 0.73533 0.0
C2966 C 0.12128 0.26251 0.73568 0.0
C2967 C 0.12585 0.27104 0.68506 0.0
C2968 C 0.12156 0.28056 0.63494 0.0
C2969 C 0.12806 0.28927 0.58737 0.0
C2970 C 0.12704 0.27455 0.52811 0.0
C2971 C 0.12712 0.31708 0.57595 0.0
C2972 C 0.13667 0.28333 0.61882 0.0
C2973 C 0.13522 0.27271 0.67499 0.0
C2974 C 0.14213 0.26594 0.71296 0.0
C2975 C 0.15074 0.27022 0.69319 0.0
C2976 C 0.15241 0.28127 0.63597 0.0
C2977 C 0.14523 0.28776 0.59832 0.0
H2978 H 0.85806 0.03086 0.4203 0.0
H2979 H 0.85873 0.01117 0.22914 0.0
H2980 H 0.8749 0.00993 0.23285 0.0
H2981 H 0.8763 0.07125 0.41585 0.0
H2982 H 0.88047 0.06289 0.4897 0.0
H2983 H 0.86892 0.06027 0.47384 0.0
H2984 H 0.86928 0.01426 0.50465 0.0
H2985 H 0.88084 0.01675 0.52088 0.0
H2986 H 0.87696 0.99381 0.46815 0.0
H2987 H 0.89089 0.01237 0.25561 0.0
H2988 H 0.90578 0.01909 0.29502 0.0
H2989 H 0.89499 0.03846 0.4714 0.0
C2990 C 0.86161 0.0259 0.37947 0.0
C2991 C 0.85712 0.02094 0.32444 0.0
C2992 C 0.86201 0.01498 0.27178 0.0
C2993 C 0.8712 0.01419 0.27347 0.0
C2994 C 0.87542 0.0195 0.32812 0.0
C2995 C 0.87081 0.02527 0.3802 0.0
C2996 C 0.87699 0.03146 0.43215 0.0
C2997 C 0.87559 0.05805 0.45416 0.0
C2998 C 0.87596 0.01296 0.48455 0.0
C2999 C 0.8858 0.02855 0.40086 0.0
C3000 C 0.88471 0.02142 0.34103 0.0
C3001 C 0.89182 0.01787 0.30244 0.0
C3002 C 0.90028 0.02178 0.32538 0.0
C3003 C 0.9016 0.02937 0.38641 0.0
C3004 C 0.89423 0.03266 0.42463 0.0
H3005 H 0.86369 0.69805 0.44292 0.0
H3006 H 0.85489 0.74418 0.29371 0.0
H3007 H 0.87023 0.74931 0.26018 0.0
H3008 H 0.88362 0.73264 0.4752 0.0
H3009 H 0.88991 0.70552 0.49333 0.0
H3010 H 0.87824 0.70589 0.50625 0.0
H3011 H 0.87655 0.66681 0.43977 0.0
H3012 H 0.8882 0.66641 0.42635 0.0
H3013 H 0.88069 0.66693 0.36304 0.0
H3014 H 0.88646 0.74773 0.23979 0.0
H3015 H 0.9025 0.74187 0.23782 0.0
H3016 H 0.90088 0.69788 0.4022 0.0
C3017 C 0.86499 0.70937 0.4034 0.0
C3018 C 0.85806 0.72066 0.37085 0.0
C3019 C 0.86006 0.73536 0.31947 0.0
C3020 C 0.86876 0.73834 0.29996 0.0
C3021 C 0.87541 0.7267 0.3326 0.0
C3022 C 0.87365 0.71272 0.38359 0.0
C3023 C 0.88201 0.70223 0.41059 0.0
C3024 C 0.88354 0.71217 0.47517 0.0
C3025 C 0.88185 0.67391 0.40987 0.0
C3026 C 0.88875 0.71228 0.36642 0.0
C3027 C 0.8848 0.72626 0.32164 0.0
C3028 C 0.88963 0.73696 0.27485 0.0
C3029 C 0.89875 0.73343 0.27401 0.0
C3030 C 0.90297 0.71945 0.31988 0.0
C3031 C 0.89786 0.70877 0.36665 0.0
H3032 H 0.64791 0.45444 0.70517 0.0
H3033 H 0.65654 0.49484 0.54564 0.0
H3034 H 0.64111 0.5019 0.51671 0.0
H3035 H 0.62981 0.4243 0.63574 0.0
H3036 H 0.62274 0.42649 0.70112 0.0
H3037 H 0.63445 0.42547 0.71107 0.0
H3038 H 0.6339 0.4663 0.77174 0.0
H3039 H 0.62217 0.46743 0.76207 0.0
H3040 H 0.62885 0.49303 0.73805 0.0
H3041 H 0.62485 0.50244 0.50146 0.0
H3042 H 0.60876 0.49788 0.50285 0.0
H3043 H 0.61048 0.45829 0.67382 0.0
C3044 C 0.64656 0.46495 0.66441 0.0
C3045 C 0.65347 0.47405 0.62763 0.0
C3046 C 0.65139 0.48768 0.5746 0.0
C3047 C 0.64264 0.49179 0.55776 0.0
C3048 C 0.63601 0.48235 0.5946 0.0
C3049 C 0.63785 0.46937 0.64706 0.0
C3050 C 0.62947 0.46087 0.67797 0.0
C3051 C 0.6291 0.43261 0.68167 0.0
C3052 C 0.62854 0.47261 0.74121 0.0
C3053 C 0.62264 0.47082 0.63422 0.0
C3054 C 0.62658 0.48312 0.58644 0.0
C3055 C 0.62169 0.49305 0.53891 0.0
C3056 C 0.61255 0.49028 0.54004 0.0
C3057 C 0.60835 0.47782 0.58855 0.0
C3058 C 0.61349 0.46816 0.63651 0.0
H3059 H 0.61506 0.7829 0.7161 0.0
H3060 H 0.60542 0.77991 0.53043 0.0
H3061 H 0.62059 0.77625 0.49304 0.0
H3062 H 0.63411 0.81927 0.68472 0.0
H3063 H 0.64103 0.80341 0.73835 0.0
H3064 H 0.62938 0.80502 0.75109 0.0
H3065 H 0.62866 0.75745 0.75779 0.0
H3066 H 0.64032 0.75569 0.74492 0.0
H3067 H 0.63288 0.73917 0.69598 0.0
H3068 H 0.63674 0.77407 0.47499 0.0
H3069 H 0.65291 0.77397 0.47753 0.0
H3070 H 0.65226 0.77802 0.6746 0.0
C3071 C 0.61614 0.78138 0.6676 0.0
C3072 C 0.60902 0.78172 0.62627 0.0
C3073 C 0.61073 0.77975 0.56312 0.0
C3074 C 0.61934 0.77759 0.54134 0.0
C3075 C 0.62619 0.77738 0.58318 0.0
C3076 C 0.62471 0.77921 0.64497 0.0
C3077 C 0.63329 0.779 0.67997 0.0
C3078 C 0.63452 0.80311 0.71562 0.0
C3079 C 0.63382 0.75648 0.72216 0.0
C3080 C 0.63981 0.77701 0.62812 0.0
C3081 C 0.63556 0.77601 0.57272 0.0
C3082 C 0.64015 0.77472 0.51811 0.0
C3083 C 0.64935 0.77468 0.52005 0.0
C3084 C 0.65388 0.77591 0.57621 0.0
C3085 C 0.649 0.77686 0.63094 0.0
H3086 H 0.3972 0.55773 0.46748 0.0
H3087 H 0.40598 0.50809 0.32521 0.0
H3088 H 0.39062 0.50004 0.29681 0.0
H3089 H 0.37789 0.52178 0.51083 0.0
H3090 H 0.37124 0.5486 0.52498 0.0
H3091 H 0.38295 0.55005 0.53562 0.0
H3092 H 0.38378 0.58707 0.4616 0.0
H3093 H 0.37208 0.58567 0.45053 0.0
H3094 H 0.37934 0.58404 0.386 0.0
H3095 H 0.37446 0.49921 0.27921 0.0
H3096 H 0.35836 0.50358 0.27787 0.0
H3097 H 0.35978 0.55235 0.43385 0.0
C3098 C 0.39589 0.54502 0.43068 0.0
C3099 C 0.40283 0.5336 0.39855 0.0
C3100 C 0.40081 0.51707 0.35065 0.0
C3101 C 0.3921 0.51239 0.33404 0.0
C3102 C 0.38543 0.52415 0.36605 0.0
C3103 C 0.3872 0.53993 0.41377 0.0
C3104 C 0.37877 0.55023 0.44036 0.0
C3105 C 0.37765 0.54218 0.5069 0.0
C3106 C 0.37848 0.57842 0.43423 0.0
C3107 C 0.37202 0.53801 0.39957 0.0
C3108 C 0.37603 0.52313 0.3569 0.0
C3109 C 0.37123 0.51063 0.31274 0.0
C3110 C 0.36209 0.51332 0.3122 0.0
C3111 C 0.3578 0.52823 0.35585 0.0
C3112 C 0.36286 0.54064 0.40026 0.0
H3113 H 0.40216 0.21705 0.41916 0.0
H3114 H 0.40332 0.22451 0.22282 0.0
H3115 H 0.38717 0.2234 0.21805 0.0
H3116 H 0.38424 0.17462 0.42255 0.0
H3117 H 0.37929 0.1875 0.48978 0.0
H3118 H 0.39096 0.18989 0.47848 0.0
H3119 H 0.39003 0.23729 0.4897 0.0
H3120 H 0.37835 0.23503 0.50129 0.0
H3121 H 0.38263 0.25441 0.44175 0.0
H3122 H 0.37094 0.22064 0.23383 0.0
H3123 H 0.35567 0.21655 0.26906 0.0
H3124 H 0.36487 0.21029 0.45532 0.0
C3125 C 0.39902 0.21866 0.3752 0.0
C3126 C 0.40404 0.22093 0.32133 0.0
C3127 C 0.39965 0.22277 0.26472 0.0
C3128 C 0.39046 0.22216 0.26152 0.0
C3129 C 0.38572 0.21967 0.31529 0.0
C3130 C 0.38983 0.21797 0.37111 0.0
C3131 C 0.38317 0.21488 0.42185 0.0
C3132 C 0.3845 0.19026 0.45511 0.0
C3133 C 0.38357 0.23671 0.46626 0.0
C3134 C 0.37469 0.21497 0.38573 0.0
C3135 C 0.37633 0.21784 0.32438 0.0
C3136 C 0.36957 0.21842 0.28178 0.0
C3137 C 0.36091 0.21605 0.30232 0.0
C3138 C 0.35903 0.21304 0.36501 0.0
C3139 C 0.36606 0.2125 0.40712 0.0
H3140 H 0.6521 0.96648 0.07739 0.0
H3141 H 0.65237 0.99892 0.25776 0.0
H3142 H 0.63622 0.99741 0.26041 0.0
H3143 H 0.63232 0.99771 0.02354 0.0
H3144 H 0.62847 0.97132 0.98161 0.0
H3145 H 0.64006 0.97603 0.99247 0.0
H3146 H 0.64137 0.93259 0.04018 0.0
H3147 H 0.62978 0.9278 0.02982 0.0
H3148 H 0.63457 0.92464 0.1043 0.0
H3149 H 0.62011 0.99095 0.24575 0.0
H3150 H 0.60504 0.98085 0.21382 0.0
H3151 H 0.61502 0.95234 0.04288 0.0
C3152 C 0.64876 0.97354 0.11715 0.0
C3153 C 0.65354 0.98288 0.16736 0.0
C3154 C 0.64889 0.99171 0.2187 0.0
C3155 C 0.6397 0.99093 0.22068 0.0
C3156 C 0.63521 0.98129 0.17093 0.0
C3157 C 0.63956 0.97285 0.11997 0.0
C3158 C 0.63314 0.96281 0.07337 0.0
C3159 C 0.63352 0.97787 0.01425 0.0
C3160 C 0.63482 0.93533 0.06123 0.0
C3161 C 0.62451 0.96673 0.10638 0.0
C3162 C 0.62587 0.97747 0.16251 0.0
C3163 C 0.61895 0.98262 0.20179 0.0
C3164 C 0.61041 0.97674 0.18323 0.0
C3165 C 0.60881 0.96575 0.12581 0.0
C3166 C 0.616 0.96073 0.087 0.0
H3167 H 0.61074 0.29628 0.06062 0.0
H3168 H 0.60853 0.24755 0.21621 0.0
H3169 H 0.62461 0.24271 0.2181 0.0
H3170 H 0.62918 0.2652 0.98751 0.0
H3171 H 0.63433 0.29348 0.96372 0.0
H3172 H 0.62258 0.29199 0.97191 0.0
H3173 H 0.62303 0.329 0.04608 0.0
H3174 H 0.63477 0.3306 0.03812 0.0
H3175 H 0.62994 0.32749 0.11249 0.0
H3176 H 0.64091 0.24376 0.20508 0.0
H3177 H 0.65642 0.25216 0.18086 0.0
H3178 H 0.64827 0.30128 0.03569 0.0
C3179 C 0.61364 0.28439 0.0946 0.0
C3180 C 0.60837 0.27221 0.13813 0.0
C3181 C 0.61243 0.2571 0.18247 0.0
C3182 C 0.62156 0.25415 0.1838 0.0
C3183 C 0.62659 0.26655 0.1407 0.0
C3184 C 0.62279 0.28146 0.09707 0.0
C3185 C 0.62976 0.29367 0.05805 0.0
C3186 C 0.62891 0.28559 0.99134 0.0
C3187 C 0.62935 0.32186 0.06407 0.0
C3188 C 0.63804 0.28339 0.08683 0.0
C3189 C 0.63604 0.2676 0.13406 0.0
C3190 C 0.64256 0.25606 0.1681 0.0
C3191 C 0.65136 0.26095 0.15395 0.0
C3192 C 0.6536 0.27741 0.10642 0.0
C3193 C 0.6468 0.28858 0.07223 0.0
H3194 H 0.35878 0.04525 0.90993 0.0
H3195 H 0.3585 0.02338 0.72012 0.0
H3196 H 0.3746 0.01931 0.72196 0.0
H3197 H 0.37843 0.08165 0.90165 0.0
H3198 H 0.38233 0.07271 0.97578 0.0
H3199 H 0.37073 0.07322 0.96026 0.0
H3200 H 0.36953 0.0276 0.99357 0.0
H3201 H 0.38114 0.02692 0.00898 0.0
H3202 H 0.37638 0.00481 0.95756 0.0
H3203 H 0.39071 0.01731 0.74405 0.0
H3204 H 0.40583 0.01988 0.78313 0.0
H3205 H 0.39588 0.04418 0.95805 0.0
C3206 C 0.3621 0.03957 0.86877 0.0
C3207 C 0.35734 0.0346 0.81485 0.0
C3208 C 0.36197 0.02733 0.76195 0.0
C3209 C 0.37113 0.02488 0.76257 0.0
C3210 C 0.37561 0.02985 0.81638 0.0
C3211 C 0.37127 0.03719 0.86844 0.0
C3212 C 0.37771 0.042 0.91978 0.0
C3213 C 0.37727 0.069 0.94057 0.0
C3214 C 0.37609 0.02427 0.97312 0.0
C3215 C 0.38633 0.03639 0.88825 0.0
C3216 C 0.38495 0.02918 0.8288 0.0
C3217 C 0.39188 0.02298 0.7905 0.0
C3218 C 0.40046 0.02446 0.81324 0.0
C3219 C 0.40208 0.03231 0.87367 0.0
C3220 C 0.39488 0.03816 0.91165 0.0
H3221 H 0.39663 0.70724 0.77312 0.0
H3222 H 0.40627 0.73222 0.94846 0.0
H3223 H 0.3911 0.7365 0.98479 0.0
H3224 H 0.37756 0.74819 0.76846 0.0
H3225 H 0.37058 0.72565 0.73272 0.0
H3226 H 0.38224 0.72518 0.71915 0.0
H3227 H 0.38288 0.6798 0.75504 0.0
H3228 H 0.37124 0.68015 0.76891 0.0
H3229 H 0.3787 0.6718 0.82909 0.0
H3230 H 0.37507 0.7362 0.00462 0.0
H3231 H 0.35897 0.73301 0.00544 0.0
H3232 H 0.35934 0.70927 0.81695 0.0
C3233 C 0.39555 0.71378 0.81899 0.0
C3234 C 0.40269 0.71934 0.85789 0.0
C3235 C 0.40096 0.72783 0.91765 0.0
C3236 C 0.39234 0.73033 0.93883 0.0
C3237 C 0.38548 0.72446 0.8997 0.0
C3238 C 0.38695 0.71655 0.84091 0.0
C3239 C 0.37834 0.71131 0.80865 0.0
C3240 C 0.37711 0.72862 0.75401 0.0
C3241 C 0.37776 0.68415 0.7893 0.0
C3242 C 0.37184 0.71713 0.8589 0.0
C3243 C 0.37613 0.7247 0.91094 0.0
C3244 C 0.37162 0.73048 0.96402 0.0
C3245 C 0.36246 0.72854 0.96404 0.0
C3246 C 0.35786 0.72095 0.91126 0.0
C3247 C 0.36265 0.71527 0.85792 0.0
loop_
_geom_bond_atom_site_label_1
_geom_bond_atom_site_label_2
_geom_bond_distance
_geom_bond_site_symmetry_2
_ccdc_geom_bond_type
Co0 O3 1.970 . S
Co0 N17 1.989 . S
Co0 O25 1.967 . S
Co0 O32 1.920 . S
Co1 O4 1.966 . S
Co1 N10 2.022 . S
Co1 N18 1.993 . S
Co1 O26 1.941 . S
C2 O3 1.258 . S
C2 O4 1.263 . S
O3 Co0 1.970 . S
O3 C2 1.258 . S
O4 Co1 1.966 . S
O4 C2 1.263 . S
C5 O6 1.235 . S
C5 O32 1.289 . S
O6 C5 1.235 . S
C7 C9 1.400 . S
C7 N10 1.351 . S
C7 C12 1.501 1_554 S
C8 C9 1.387 . S
C8 N11 1.341 . S
C9 C7 1.400 . S
C9 C8 1.387 . S
N10 Co1 2.022 . S
N10 C7 1.351 . S
N10 N11 1.365 . S
N11 C8 1.341 . S
N11 N10 1.365 . S
N11 H31 0.862 . S
C12 C7 1.501 1_556 S
C12 H13 0.961 . S
C12 H14 0.961 . S
C12 H15 0.960 . S
H13 C12 0.961 . S
H14 C12 0.961 . S
H15 C12 0.960 . S
C16 N17 1.342 . S
C16 C20 1.401 . S
C16 C21 1.499 . S
N17 Co0 1.989 . S
N17 C16 1.342 . S
N17 N18 1.388 . S
N18 Co1 1.993 . S
N18 N17 1.388 . S
N18 C19 1.346 . S
C19 N18 1.346 . S
C19 C20 1.396 . S
C19 C29 1.510 . S
C20 C16 1.401 . S
C20 C19 1.396 . S
C21 C16 1.499 . S
C21 H22 0.959 . S
C21 H23 0.960 . S
C21 H24 0.961 . S
H22 C21 0.959 . S
H23 C21 0.960 . S
H24 C21 0.961 . S
O25 Co0 1.967 . S
O25 C33 1.258 . S
O26 Co1 1.941 . S
O26 C33 1.266 . S
H27 C29 0.959 . S
H28 C29 0.961 . S
C29 C19 1.510 . S
C29 H27 0.959 . S
C29 H28 0.961 . S
C29 H30 0.960 . S
H30 C29 0.960 . S
H31 N11 0.862 . S
O32 Co0 1.920 . S
O32 C5 1.289 . S
C33 O25 1.258 . S
C33 O26 1.266 . S
Co34 O37 1.970 . S
Co34 N51 1.989 . S
Co34 O59 1.967 . S
Co34 O66 1.920 . S
Co35 O38 1.966 . S
Co35 N44 2.022 . S
Co35 N52 1.993 . S
Co35 O60 1.941 . S
C36 O37 1.258 . S
C36 O38 1.263 . S
O37 Co34 1.970 . S
O37 C36 1.258 . S
O38 Co35 1.966 . S
O38 C36 1.263 . S
C39 O40 1.235 . S
C39 O66 1.289 . S
O40 C39 1.235 . S
C41 C43 1.400 . S
C41 N44 1.351 . S
C41 C46 1.501 1_554 S
C42 C43 1.387 . S
C42 N45 1.341 . S
C43 C41 1.400 . S
C43 C42 1.387 . S
N44 Co35 2.022 . S
N44 C41 1.351 . S
N44 N45 1.365 . S
N45 C42 1.341 . S
N45 N44 1.365 . S
N45 H65 0.862 . S
C46 C41 1.501 1_556 S
C46 H47 0.961 . S
C46 H48 0.961 . S
C46 H49 0.960 . S
H47 C46 0.961 . S
H48 C46 0.961 . S
H49 C46 0.960 . S
C50 N51 1.342 . S
C50 C54 1.401 . S
C50 C55 1.499 . S
N51 Co34 1.989 . S
N51 C50 1.342 . S
N51 N52 1.388 . S
N52 Co35 1.993 . S
N52 N51 1.388 . S
N52 C53 1.346 . S
C53 N52 1.346 . S
C53 C54 1.396 . S
C53 C63 1.510 . S
C54 C50 1.401 . S
C54 C53 1.396 . S
C55 C50 1.499 . S
C55 H56 0.959 . S
C55 H57 0.960 . S
C55 H58 0.961 . S
H56 C55 0.959 . S
H57 C55 0.960 . S
H58 C55 0.961 . S
O59 Co34 1.967 . S
O59 C67 1.258 . S
O60 Co35 1.941 . S
O60 C67 1.266 . S
H61 C63 0.959 . S
H62 C63 0.961 . S
C63 C53 1.510 . S
C63 H61 0.959 . S
C63 H62 0.961 . S
C63 H64 0.960 . S
H64 C63 0.960 . S
H65 N45 0.862 . S
O66 Co34 1.920 . S
O66 C39 1.289 . S
C67 O59 1.258 . S
C67 O60 1.266 . S
Co68 O71 1.970 . S
Co68 N85 1.989 . S
Co68 O93 1.967 . S
Co68 O100 1.920 . S
Co69 O72 1.966 . S
Co69 N78 2.022 . S
Co69 N86 1.993 . S
Co69 O94 1.941 . S
C70 O71 1.258 . S
C70 O72 1.263 . S
O71 Co68 1.970 . S
O71 C70 1.258 . S
O72 Co69 1.966 . S
O72 C70 1.263 . S
C73 O74 1.235 . S
C73 O100 1.289 . S
O74 C73 1.235 . S
C75 C77 1.400 . S
C75 N78 1.351 . S
C75 C80 1.501 . S
C76 C77 1.387 . S
C76 N79 1.341 . S
C77 C75 1.400 . S
C77 C76 1.387 . S
N78 Co69 2.022 . S
N78 C75 1.351 . S
N78 N79 1.365 . S
N79 C76 1.341 . S
N79 N78 1.365 . S
N79 H99 0.862 . S
C80 C75 1.501 . S
C80 H81 0.961 . S
C80 H82 0.961 . S
C80 H83 0.960 . S
H81 C80 0.961 . S
H82 C80 0.961 . S
H83 C80 0.960 . S
C84 N85 1.342 . S
C84 C88 1.401 . S
C84 C89 1.499 . S
N85 Co68 1.989 . S
N85 C84 1.342 . S
N85 N86 1.388 . S
N86 Co69 1.993 . S
N86 N85 1.388 . S
N86 C87 1.346 . S
C87 N86 1.346 . S
C87 C88 1.396 . S
C87 C97 1.510 . S
C88 C84 1.401 . S
C88 C87 1.396 . S
C89 C84 1.499 . S
C89 H90 0.959 . S
C89 H91 0.960 . S
C89 H92 0.961 . S
H90 C89 0.959 . S
H91 C89 0.960 . S
H92 C89 0.961 . S
O93 Co68 1.967 . S
O93 C101 1.258 . S
O94 Co69 1.941 . S
O94 C101 1.266 . S
H95 C97 0.959 . S
H96 C97 0.961 . S
C97 C87 1.510 . S
C97 H95 0.959 . S
C97 H96 0.961 . S
C97 H98 0.960 . S
H98 C97 0.960 . S
H99 N79 0.862 . S
O100 Co68 1.920 . S
O100 C73 1.289 . S
C101 O93 1.258 . S
C101 O94 1.266 . S
Co102 O105 1.970 . S
Co102 N119 1.989 . S
Co102 O127 1.967 . S
Co102 O134 1.920 . S
Co103 O106 1.966 . S
Co103 N112 2.022 . S
Co103 N120 1.993 . S
Co103 O128 1.941 . S
C104 O105 1.258 . S
C104 O106 1.263 . S
O105 Co102 1.970 . S
O105 C104 1.258 . S
O106 Co103 1.966 . S
O106 C104 1.263 . S
C107 O108 1.235 . S
C107 O134 1.289 . S
O108 C107 1.235 . S
C109 C111 1.400 . S
C109 N112 1.351 . S
C109 C114 1.501 . S
C110 C111 1.387 . S
C110 N113 1.341 . S
C111 C109 1.400 . S
C111 C110 1.387 . S
N112 Co103 2.022 . S
N112 C109 1.351 . S
N112 N113 1.365 . S
N113 C110 1.341 . S
N113 N112 1.365 . S
N113 H133 0.862 . S
C114 C109 1.501 . S
C114 H115 0.961 . S
C114 H116 0.961 . S
C114 H117 0.960 . S
H115 C114 0.961 . S
H116 C114 0.961 . S
H117 C114 0.960 . S
C118 N119 1.342 . S
C118 C122 1.401 . S
C118 C123 1.499 . S
N119 Co102 1.989 . S
N119 C118 1.342 . S
N119 N120 1.388 . S
N120 Co103 1.993 . S
N120 N119 1.388 . S
N120 C121 1.346 . S
C121 N120 1.346 . S
C121 C122 1.396 . S
C121 C131 1.510 . S
C122 C118 1.401 . S
C122 C121 1.396 . S
C123 C118 1.499 . S
C123 H124 0.959 . S
C123 H125 0.960 . S
C123 H126 0.961 . S
H124 C123 0.959 . S
H125 C123 0.960 . S
H126 C123 0.961 . S
O127 Co102 1.967 . S
O127 C135 1.258 . S
O128 Co103 1.941 . S
O128 C135 1.266 . S
H129 C131 0.959 . S
H130 C131 0.961 . S
C131 C121 1.510 . S
C131 H129 0.959 . S
C131 H130 0.961 . S
C131 H132 0.960 . S
H132 C131 0.960 . S
H133 N113 0.862 . S
O134 Co102 1.920 . S
O134 C107 1.289 . S
C135 O127 1.258 . S
C135 O128 1.266 . S
Co136 O139 1.970 . S
Co136 N153 1.989 . S
Co136 O161 1.967 . S
Co136 O168 1.920 . S
Co137 O140 1.966 . S
Co137 N146 2.022 . S
Co137 N154 1.993 . S
Co137 O162 1.941 . S
C138 O139 1.258 . S
C138 O140 1.263 . S
O139 Co136 1.970 . S
O139 C138 1.258 . S
O140 Co137 1.966 . S
O140 C138 1.263 . S
C141 O142 1.235 . S
C141 O168 1.289 . S
O142 C141 1.235 . S
C143 C145 1.400 . S
C143 N146 1.351 . S
C143 C148 1.501 1_556 S
C144 C145 1.387 . S
C144 N147 1.341 . S
C145 C143 1.400 . S
C145 C144 1.387 . S
N146 Co137 2.022 . S
N146 C143 1.351 . S
N146 N147 1.365 . S
N147 C144 1.341 . S
N147 N146 1.365 . S
N147 H167 0.862 . S
C148 C143 1.501 1_554 S
C148 H149 0.961 . S
C148 H150 0.961 . S
C148 H151 0.960 . S
H149 C148 0.961 . S
H150 C148 0.961 . S
H151 C148 0.960 . S
C152 N153 1.342 . S
C152 C156 1.401 . S
C152 C157 1.499 . S
N153 Co136 1.989 . S
N153 C152 1.342 . S
N153 N154 1.388 . S
N154 Co137 1.993 . S
N154 N153 1.388 . S
N154 C155 1.346 . S
C155 N154 1.346 . S
C155 C156 1.396 . S
C155 C165 1.510 . S
C156 C152 1.401 . S
C156 C155 1.396 . S
C157 C152 1.499 . S
C157 H158 0.959 . S
C157 H159 0.960 . S
C157 H160 0.961 . S
H158 C157 0.959 . S
H159 C157 0.960 . S
H160 C157 0.961 . S
O161 Co136 1.967 . S
O161 C169 1.258 . S
O162 Co137 1.941 . S
O162 C169 1.266 . S
H163 C165 0.959 . S
H164 C165 0.961 . S
C165 C155 1.510 . S
C165 H163 0.959 . S
C165 H164 0.961 . S
C165 H166 0.960 . S
H166 C165 0.960 . S
H167 N147 0.862 . S
O168 Co136 1.920 . S
O168 C141 1.289 . S
C169 O161 1.258 . S
C169 O162 1.266 . S
Co170 O173 1.970 . S
Co170 N187 1.989 . S
Co170 O195 1.967 . S
Co170 O202 1.920 . S
Co171 O174 1.966 . S
Co171 N180 2.022 . S
Co171 N188 1.993 . S
Co171 O196 1.941 . S
C172 O173 1.258 . S
C172 O174 1.263 . S
O173 Co170 1.970 . S
O173 C172 1.258 . S
O174 Co171 1.966 . S
O174 C172 1.263 . S
C175 O176 1.235 . S
C175 O202 1.289 . S
O176 C175 1.235 . S
C177 C179 1.400 . S
C177 N180 1.351 . S
C177 C182 1.501 1_556 S
C178 C179 1.387 . S
C178 N181 1.341 . S
C179 C177 1.400 . S
C179 C178 1.387 . S
N180 Co171 2.022 . S
N180 C177 1.351 . S
N180 N181 1.365 . S
N181 C178 1.341 . S
N181 N180 1.365 . S
N181 H201 0.862 . S
C182 C177 1.501 1_554 S
C182 H183 0.961 . S
C182 H184 0.961 . S
C182 H185 0.960 . S
H183 C182 0.961 . S
H184 C182 0.961 . S
H185 C182 0.960 . S
C186 N187 1.342 . S
C186 C190 1.401 . S
C186 C191 1.499 . S
N187 Co170 1.989 . S
N187 C186 1.342 . S
N187 N188 1.388 . S
N188 Co171 1.993 . S
N188 N187 1.388 . S
N188 C189 1.346 . S
C189 N188 1.346 . S
C189 C190 1.396 . S
C189 C199 1.510 . S
C190 C186 1.401 . S
C190 C189 1.396 . S
C191 C186 1.499 . S
C191 H192 0.959 . S
C191 H193 0.960 . S
C191 H194 0.961 . S
H192 C191 0.959 . S
H193 C191 0.960 . S
H194 C191 0.961 . S
O195 Co170 1.967 . S
O195 C203 1.258 . S
O196 Co171 1.941 . S
O196 C203 1.266 . S
H197 C199 0.959 . S
H198 C199 0.961 . S
C199 C189 1.510 . S
C199 H197 0.959 . S
C199 H198 0.961 . S
C199 H200 0.960 . S
H200 C199 0.960 . S
H201 N181 0.862 . S
O202 Co170 1.920 . S
O202 C175 1.289 . S
C203 O195 1.258 . S
C203 O196 1.266 . S
Co204 O207 1.970 . S
Co204 N221 1.989 . S
Co204 O229 1.967 . S
Co204 O236 1.920 . S
Co205 O208 1.966 . S
Co205 N214 2.022 . S
Co205 N222 1.993 . S
Co205 O230 1.941 . S
C206 O207 1.258 . S
C206 O208 1.263 . S
O207 Co204 1.970 . S
O207 C206 1.258 . S
O208 Co205 1.966 . S
O208 C206 1.263 . S
C209 O210 1.235 . S
C209 O236 1.289 . S
O210 C209 1.235 . S
C211 C213 1.400 . S
C211 N214 1.351 . S
C211 C216 1.501 . S
C212 C213 1.387 . S
C212 N215 1.341 . S
C213 C211 1.400 . S
C213 C212 1.387 . S
N214 Co205 2.022 . S
N214 C211 1.351 . S
N214 N215 1.365 . S
N215 C212 1.341 . S
N215 N214 1.365 . S
N215 H235 0.862 . S
C216 C211 1.501 . S
C216 H217 0.961 . S
C216 H218 0.961 . S
C216 H219 0.960 . S
H217 C216 0.961 . S
H218 C216 0.961 . S
H219 C216 0.960 . S
C220 N221 1.342 . S
C220 C224 1.401 . S
C220 C225 1.499 . S
N221 Co204 1.989 . S
N221 C220 1.342 . S
N221 N222 1.388 . S
N222 Co205 1.993 . S
N222 N221 1.388 . S
N222 C223 1.346 . S
C223 N222 1.346 . S
C223 C224 1.396 . S
C223 C233 1.510 . S
C224 C220 1.401 . S
C224 C223 1.396 . S
C225 C220 1.499 . S
C225 H226 0.959 . S
C225 H227 0.960 . S
C225 H228 0.961 . S
H226 C225 0.959 . S
H227 C225 0.960 . S
H228 C225 0.961 . S
O229 Co204 1.967 . S
O229 C237 1.258 . S
O230 Co205 1.941 . S
O230 C237 1.266 . S
H231 C233 0.959 . S
H232 C233 0.961 . S
C233 C223 1.510 . S
C233 H231 0.959 . S
C233 H232 0.961 . S
C233 H234 0.960 . S
H234 C233 0.960 . S
H235 N215 0.862 . S
O236 Co204 1.920 . S
O236 C209 1.289 . S
C237 O229 1.258 . S
C237 O230 1.266 . S
Co238 O241 1.970 . S
Co238 N255 1.989 . S
Co238 O263 1.967 . S
Co238 O270 1.920 . S
Co239 O242 1.966 . S
Co239 N248 2.022 . S
Co239 N256 1.993 . S
Co239 O264 1.941 . S
C240 O241 1.258 . S
C240 O242 1.263 . S
O241 Co238 1.970 . S
O241 C240 1.258 . S
O242 Co239 1.966 . S
O242 C240 1.263 . S
C243 O244 1.235 . S
C243 O270 1.289 . S
O244 C243 1.235 . S
C245 C247 1.400 . S
C245 N248 1.351 . S
C245 C250 1.501 . S
C246 C247 1.387 . S
C246 N249 1.341 . S
C247 C245 1.400 . S
C247 C246 1.387 . S
N248 Co239 2.022 . S
N248 C245 1.351 . S
N248 N249 1.365 . S
N249 C246 1.341 . S
N249 N248 1.365 . S
N249 H269 0.862 . S
C250 C245 1.501 . S
C250 H251 0.961 . S
C250 H252 0.961 . S
C250 H253 0.960 . S
H251 C250 0.961 . S
H252 C250 0.961 . S
H253 C250 0.960 . S
C254 N255 1.342 . S
C254 C258 1.401 . S
C254 C259 1.499 . S
N255 Co238 1.989 . S
N255 C254 1.342 . S
N255 N256 1.388 . S
N256 Co239 1.993 . S
N256 N255 1.388 . S
N256 C257 1.346 . S
C257 N256 1.346 . S
C257 C258 1.396 . S
C257 C267 1.510 . S
C258 C254 1.401 . S
C258 C257 1.396 . S
C259 C254 1.499 . S
C259 H260 0.959 . S
C259 H261 0.960 . S
C259 H262 0.961 . S
H260 C259 0.959 . S
H261 C259 0.960 . S
H262 C259 0.961 . S
O263 Co238 1.967 . S
O263 C271 1.258 . S
O264 Co239 1.941 . S
O264 C271 1.266 . S
H265 C267 0.959 . S
H266 C267 0.961 . S
C267 C257 1.510 . S
C267 H265 0.959 . S
C267 H266 0.961 . S
C267 H268 0.960 . S
H268 C267 0.960 . S
H269 N249 0.862 . S
O270 Co238 1.920 . S
O270 C243 1.289 . S
C271 O263 1.258 . S
C271 O264 1.266 . S
Co272 O275 1.970 . S
Co272 N289 1.989 . S
Co272 O297 1.967 . S
Co272 O304 1.920 . S
Co273 O276 1.966 . S
Co273 N282 2.022 . S
Co273 N290 1.993 . S
Co273 O298 1.941 . S
C274 O275 1.258 . S
C274 O276 1.263 . S
O275 Co272 1.970 . S
O275 C274 1.258 . S
O276 Co273 1.966 . S
O276 C274 1.263 . S
C277 O278 1.235 . S
C277 O304 1.289 . S
O278 C277 1.235 . S
C279 C281 1.400 . S
C279 N282 1.351 . S
C279 C284 1.501 . S
C280 C281 1.387 . S
C280 N283 1.341 . S
C281 C279 1.400 . S
C281 C280 1.387 . S
N282 Co273 2.022 . S
N282 C279 1.351 . S
N282 N283 1.365 . S
N283 C280 1.341 . S
N283 N282 1.365 . S
N283 H303 0.862 . S
C284 C279 1.501 . S
C284 H285 0.961 . S
C284 H286 0.961 . S
C284 H287 0.960 . S
H285 C284 0.961 . S
H286 C284 0.961 . S
H287 C284 0.960 . S
C288 N289 1.342 1_545 S
C288 C292 1.401 . S
C288 C293 1.499 . S
N289 Co272 1.989 . S
N289 C288 1.342 1_565 S
N289 N290 1.388 . S
N290 Co273 1.993 . S
N290 N289 1.388 . S
N290 C291 1.346 1_565 S
C291 N290 1.346 1_545 S
C291 C292 1.396 . S
C291 C301 1.510 . S
C292 C288 1.401 . S
C292 C291 1.396 . S
C293 C288 1.499 . S
C293 H294 0.959 . S
C293 H295 0.960 . S
C293 H296 0.961 . S
H294 C293 0.959 . S
H295 C293 0.960 . S
H296 C293 0.961 . S
O297 Co272 1.967 . S
O297 C305 1.258 . S
O298 Co273 1.941 . S
O298 C305 1.266 . S
H299 C301 0.959 . S
H300 C301 0.961 . S
C301 C291 1.510 . S
C301 H299 0.959 . S
C301 H300 0.961 . S
C301 H302 0.960 . S
H302 C301 0.960 . S
H303 N283 0.862 . S
O304 Co272 1.920 . S
O304 C277 1.289 . S
C305 O297 1.258 . S
C305 O298 1.266 . S
Co306 O309 1.970 . S
Co306 N323 1.989 . S
Co306 O331 1.967 . S
Co306 O338 1.920 . S
Co307 O310 1.966 . S
Co307 N316 2.022 . S
Co307 N324 1.993 . S
Co307 O332 1.941 . S
C308 O309 1.258 . S
C308 O310 1.263 . S
O309 Co306 1.970 . S
O309 C308 1.258 . S
O310 Co307 1.966 . S
O310 C308 1.263 . S
C311 O312 1.235 . S
C311 O338 1.289 . S
O312 C311 1.235 . S
C313 C315 1.400 . S
C313 N316 1.351 . S
C313 C318 1.501 . S
C314 C315 1.387 . S
C314 N317 1.341 . S
C315 C313 1.400 . S
C315 C314 1.387 . S
N316 Co307 2.022 . S
N316 C313 1.351 . S
N316 N317 1.365 . S
N317 C314 1.341 . S
N317 N316 1.365 . S
N317 H337 0.862 . S
C318 C313 1.501 . S
C318 H319 0.961 . S
C318 H320 0.961 . S
C318 H321 0.960 . S
H319 C318 0.961 . S
H320 C318 0.961 . S
H321 C318 0.960 . S
C322 N323 1.342 . S
C322 C326 1.401 . S
C322 C327 1.499 . S
N323 Co306 1.989 . S
N323 C322 1.342 . S
N323 N324 1.388 . S
N324 Co307 1.993 . S
N324 N323 1.388 . S
N324 C325 1.346 . S
C325 N324 1.346 . S
C325 C326 1.396 . S
C325 C335 1.510 . S
C326 C322 1.401 . S
C326 C325 1.396 . S
C327 C322 1.499 . S
C327 H328 0.959 . S
C327 H329 0.960 . S
C327 H330 0.961 . S
H328 C327 0.959 . S
H329 C327 0.960 . S
H330 C327 0.961 . S
O331 Co306 1.967 . S
O331 C339 1.258 . S
O332 Co307 1.941 . S
O332 C339 1.266 . S
H333 C335 0.959 . S
H334 C335 0.961 . S
C335 C325 1.510 . S
C335 H333 0.959 . S
C335 H334 0.961 . S
C335 H336 0.960 . S
H336 C335 0.960 . S
H337 N317 0.862 . S
O338 Co306 1.920 . S
O338 C311 1.289 . S
C339 O331 1.258 . S
C339 O332 1.266 . S
Co340 O343 1.970 . S
Co340 N357 1.989 . S
Co340 O365 1.967 . S
Co340 O372 1.920 . S
Co341 O344 1.966 . S
Co341 N350 2.022 . S
Co341 N358 1.993 . S
Co341 O366 1.941 . S
C342 O343 1.258 . S
C342 O344 1.263 . S
O343 Co340 1.970 . S
O343 C342 1.258 . S
O344 Co341 1.966 . S
O344 C342 1.263 . S
C345 O346 1.235 . S
C345 O372 1.289 . S
O346 C345 1.235 . S
C347 C349 1.400 . S
C347 N350 1.351 . S
C347 C352 1.501 . S
C348 C349 1.387 . S
C348 N351 1.341 . S
C349 C347 1.400 . S
C349 C348 1.387 . S
N350 Co341 2.022 . S
N350 C347 1.351 . S
N350 N351 1.365 . S
N351 C348 1.341 . S
N351 N350 1.365 . S
N351 H371 0.862 . S
C352 C347 1.501 . S
C352 H353 0.961 . S
C352 H354 0.961 . S
C352 H355 0.960 . S
H353 C352 0.961 . S
H354 C352 0.961 . S
H355 C352 0.960 . S
C356 N357 1.342 . S
C356 C360 1.401 . S
C356 C361 1.499 . S
N357 Co340 1.989 . S
N357 C356 1.342 . S
N357 N358 1.388 . S
N358 Co341 1.993 . S
N358 N357 1.388 . S
N358 C359 1.346 . S
C359 N358 1.346 . S
C359 C360 1.396 . S
C359 C369 1.510 . S
C360 C356 1.401 . S
C360 C359 1.396 . S
C361 C356 1.499 . S
C361 H362 0.959 . S
C361 H363 0.960 . S
C361 H364 0.961 . S
H362 C361 0.959 . S
H363 C361 0.960 . S
H364 C361 0.961 . S
O365 Co340 1.967 . S
O365 C373 1.258 . S
O366 Co341 1.941 . S
O366 C373 1.266 . S
H367 C369 0.959 . S
H368 C369 0.961 . S
C369 C359 1.510 . S
C369 H367 0.959 . S
C369 H368 0.961 . S
C369 H370 0.960 . S
H370 C369 0.960 . S
H371 N351 0.862 . S
O372 Co340 1.920 . S
O372 C345 1.289 . S
C373 O365 1.258 . S
C373 O366 1.266 . S
Co374 O377 1.970 . S
Co374 N391 1.989 . S
Co374 O399 1.967 . S
Co374 O406 1.920 . S
Co375 O378 1.966 . S
Co375 N384 2.022 . S
Co375 N392 1.993 . S
Co375 O400 1.941 . S
C376 O377 1.258 . S
C376 O378 1.263 . S
O377 Co374 1.970 . S
O377 C376 1.258 . S
O378 Co375 1.966 . S
O378 C376 1.263 . S
C379 O380 1.235 . S
C379 O406 1.289 . S
O380 C379 1.235 . S
C381 C383 1.400 . S
C381 N384 1.351 . S
C381 C386 1.501 . S
C382 C383 1.387 . S
C382 N385 1.341 . S
C383 C381 1.400 . S
C383 C382 1.387 . S
N384 Co375 2.022 . S
N384 C381 1.351 . S
N384 N385 1.365 . S
N385 C382 1.341 . S
N385 N384 1.365 . S
N385 H405 0.862 . S
C386 C381 1.501 . S
C386 H387 0.961 . S
C386 H388 0.961 . S
C386 H389 0.960 . S
H387 C386 0.961 . S
H388 C386 0.961 . S
H389 C386 0.960 . S
C390 N391 1.342 1_545 S
C390 C394 1.401 . S
C390 C395 1.499 . S
N391 Co374 1.989 . S
N391 C390 1.342 1_565 S
N391 N392 1.388 . S
N392 Co375 1.993 . S
N392 N391 1.388 . S
N392 C393 1.346 1_565 S
C393 N392 1.346 1_545 S
C393 C394 1.396 . S
C393 C403 1.510 . S
C394 C390 1.401 . S
C394 C393 1.396 . S
C395 C390 1.499 . S
C395 H396 0.959 . S
C395 H397 0.960 . S
C395 H398 0.961 . S
H396 C395 0.959 . S
H397 C395 0.960 . S
H398 C395 0.961 . S
O399 Co374 1.967 . S
O399 C407 1.258 . S
O400 Co375 1.941 . S
O400 C407 1.266 . S
H401 C403 0.959 . S
H402 C403 0.961 . S
C403 C393 1.510 . S
C403 H401 0.959 . S
C403 H402 0.961 . S
C403 H404 0.960 . S
H404 C403 0.960 . S
H405 N385 0.862 . S
O406 Co374 1.920 . S
O406 C379 1.289 . S
C407 O399 1.258 . S
C407 O400 1.266 . S
Co408 O411 1.970 . S
Co408 N425 1.989 . S
Co408 O433 1.967 . S
Co408 O440 1.920 . S
Co409 O412 1.966 . S
Co409 N418 2.022 . S
Co409 N426 1.993 . S
Co409 O434 1.941 . S
C410 O411 1.258 . S
C410 O412 1.263 . S
O411 Co408 1.970 . S
O411 C410 1.258 . S
O412 Co409 1.966 . S
O412 C410 1.263 . S
C413 O414 1.235 . S
C413 O440 1.289 . S
O414 C413 1.235 . S
C415 C417 1.400 . S
C415 N418 1.351 . S
C415 C420 1.501 . S
C416 C417 1.387 . S
C416 N419 1.341 . S
C417 C415 1.400 . S
C417 C416 1.387 . S
N418 Co409 2.022 . S
N418 C415 1.351 . S
N418 N419 1.365 . S
N419 C416 1.341 . S
N419 N418 1.365 . S
N419 H439 0.862 . S
C420 C415 1.501 . S
C420 H421 0.961 . S
C420 H422 0.961 . S
C420 H423 0.960 . S
H421 C420 0.961 . S
H422 C420 0.961 . S
H423 C420 0.960 . S
C424 N425 1.342 1_565 S
C424 C428 1.401 . S
C424 C429 1.499 . S
N425 Co408 1.989 . S
N425 C424 1.342 1_545 S
N425 N426 1.388 . S
N426 Co409 1.993 . S
N426 N425 1.388 . S
N426 C427 1.346 1_545 S
C427 N426 1.346 1_565 S
C427 C428 1.396 . S
C427 C437 1.510 . S
C428 C424 1.401 . S
C428 C427 1.396 . S
C429 C424 1.499 . S
C429 H430 0.959 . S
C429 H431 0.960 . S
C429 H432 0.961 . S
H430 C429 0.959 . S
H431 C429 0.960 . S
H432 C429 0.961 . S
O433 Co408 1.967 . S
O433 C441 1.258 . S
O434 Co409 1.941 . S
O434 C441 1.266 . S
H435 C437 0.959 . S
H436 C437 0.961 . S
C437 C427 1.510 . S
C437 H435 0.959 . S
C437 H436 0.961 . S
C437 H438 0.960 . S
H438 C437 0.960 . S
H439 N419 0.862 . S
O440 Co408 1.920 . S
O440 C413 1.289 . S
C441 O433 1.258 . S
C441 O434 1.266 . S
Co442 O445 1.970 . S
Co442 N459 1.989 . S
Co442 O467 1.967 . S
Co442 O474 1.920 . S
Co443 O446 1.966 . S
Co443 N452 2.022 . S
Co443 N460 1.993 . S
Co443 O468 1.941 . S
C444 O445 1.258 . S
C444 O446 1.263 . S
O445 Co442 1.970 . S
O445 C444 1.258 . S
O446 Co443 1.966 . S
O446 C444 1.263 . S
C447 O448 1.235 . S
C447 O474 1.289 . S
O448 C447 1.235 . S
C449 C451 1.400 . S
C449 N452 1.351 . S
C449 C454 1.501 . S
C450 C451 1.387 . S
C450 N453 1.341 . S
C451 C449 1.400 . S
C451 C450 1.387 . S
N452 Co443 2.022 . S
N452 C449 1.351 . S
N452 N453 1.365 . S
N453 C450 1.341 . S
N453 N452 1.365 . S
N453 H473 0.862 . S
C454 C449 1.501 . S
C454 H455 0.961 . S
C454 H456 0.961 . S
C454 H457 0.960 . S
H455 C454 0.961 . S
H456 C454 0.961 . S
H457 C454 0.960 . S
C458 N459 1.342 . S
C458 C462 1.401 . S
C458 C463 1.499 . S
N459 Co442 1.989 . S
N459 C458 1.342 . S
N459 N460 1.388 . S
N460 Co443 1.993 . S
N460 N459 1.388 . S
N460 C461 1.346 . S
C461 N460 1.346 . S
C461 C462 1.396 . S
C461 C471 1.510 . S
C462 C458 1.401 . S
C462 C461 1.396 . S
C463 C458 1.499 . S
C463 H464 0.959 . S
C463 H465 0.960 . S
C463 H466 0.961 . S
H464 C463 0.959 . S
H465 C463 0.960 . S
H466 C463 0.961 . S
O467 Co442 1.967 . S
O467 C475 1.258 . S
O468 Co443 1.941 . S
O468 C475 1.266 . S
H469 C471 0.959 . S
H470 C471 0.961 . S
C471 C461 1.510 . S
C471 H469 0.959 . S
C471 H470 0.961 . S
C471 H472 0.960 . S
H472 C471 0.960 . S
H473 N453 0.862 . S
O474 Co442 1.920 . S
O474 C447 1.289 . S
C475 O467 1.258 . S
C475 O468 1.266 . S
Co476 O479 1.970 . S
Co476 N493 1.989 . S
Co476 O501 1.967 . S
Co476 O508 1.920 . S
Co477 O480 1.966 . S
Co477 N486 2.022 . S
Co477 N494 1.993 . S
Co477 O502 1.941 . S
C478 O479 1.258 . S
C478 O480 1.263 . S
O479 Co476 1.970 . S
O479 C478 1.258 . S
O480 Co477 1.966 . S
O480 C478 1.263 . S
C481 O482 1.235 . S
C481 O508 1.289 . S
O482 C481 1.235 . S
C483 C485 1.400 . S
C483 N486 1.351 . S
C483 C488 1.501 . S
C484 C485 1.387 . S
C484 N487 1.341 . S
C485 C483 1.400 . S
C485 C484 1.387 . S
N486 Co477 2.022 . S
N486 C483 1.351 . S
N486 N487 1.365 . S
N487 C484 1.341 . S
N487 N486 1.365 . S
N487 H507 0.862 . S
C488 C483 1.501 . S
C488 H489 0.961 . S
C488 H490 0.961 . S
C488 H491 0.960 . S
H489 C488 0.961 . S
H490 C488 0.961 . S
H491 C488 0.960 . S
C492 N493 1.342 . S
C492 C496 1.401 . S
C492 C497 1.499 . S
N493 Co476 1.989 . S
N493 C492 1.342 . S
N493 N494 1.388 . S
N494 Co477 1.993 . S
N494 N493 1.388 . S
N494 C495 1.346 . S
C495 N494 1.346 . S
C495 C496 1.396 . S
C495 C505 1.510 . S
C496 C492 1.401 . S
C496 C495 1.396 . S
C497 C492 1.499 . S
C497 H498 0.959 . S
C497 H499 0.960 . S
C497 H500 0.961 . S
H498 C497 0.959 . S
H499 C497 0.960 . S
H500 C497 0.961 . S
O501 Co476 1.967 . S
O501 C509 1.258 . S
O502 Co477 1.941 . S
O502 C509 1.266 . S
H503 C505 0.959 . S
H504 C505 0.961 . S
C505 C495 1.510 . S
C505 H503 0.959 . S
C505 H504 0.961 . S
C505 H506 0.960 . S
H506 C505 0.960 . S
H507 N487 0.862 . S
O508 Co476 1.920 . S
O508 C481 1.289 . S
C509 O501 1.258 . S
C509 O502 1.266 . S
Co510 O513 1.970 . S
Co510 N527 1.989 . S
Co510 O535 1.967 . S
Co510 O542 1.920 . S
Co511 O514 1.966 . S
Co511 N520 2.022 . S
Co511 N528 1.993 . S
Co511 O536 1.941 . S
C512 O513 1.258 . S
C512 O514 1.263 . S
O513 Co510 1.970 . S
O513 C512 1.258 . S
O514 Co511 1.966 . S
O514 C512 1.263 . S
C515 O516 1.235 . S
C515 O542 1.289 . S
O516 C515 1.235 . S
C517 C519 1.400 . S
C517 N520 1.351 . S
C517 C522 1.501 . S
C518 C519 1.387 . S
C518 N521 1.341 . S
C519 C517 1.400 . S
C519 C518 1.387 . S
N520 Co511 2.022 . S
N520 C517 1.351 . S
N520 N521 1.365 . S
N521 C518 1.341 . S
N521 N520 1.365 . S
N521 H541 0.862 . S
C522 C517 1.501 . S
C522 H523 0.961 . S
C522 H524 0.961 . S
C522 H525 0.960 . S
H523 C522 0.961 . S
H524 C522 0.961 . S
H525 C522 0.960 . S
C526 N527 1.342 1_565 S
C526 C530 1.401 . S
C526 C531 1.499 . S
N527 Co510 1.989 . S
N527 C526 1.342 1_545 S
N527 N528 1.388 . S
N528 Co511 1.993 . S
N528 N527 1.388 . S
N528 C529 1.346 1_545 S
C529 N528 1.346 1_565 S
C529 C530 1.396 . S
C529 C539 1.510 . S
C530 C526 1.401 . S
C530 C529 1.396 . S
C531 C526 1.499 . S
C531 H532 0.959 . S
C531 H533 0.960 . S
C531 H534 0.961 . S
H532 C531 0.959 . S
H533 C531 0.960 . S
H534 C531 0.961 . S
O535 Co510 1.967 . S
O535 C543 1.258 . S
O536 Co511 1.941 . S
O536 C543 1.266 . S
H537 C539 0.959 . S
H538 C539 0.961 . S
C539 C529 1.510 . S
C539 H537 0.959 . S
C539 H538 0.961 . S
C539 H540 0.960 . S
H540 C539 0.960 . S
H541 N521 0.862 . S
O542 Co510 1.920 . S
O542 C515 1.289 . S
C543 O535 1.258 . S
C543 O536 1.266 . S
Co544 O547 1.970 . S
Co544 N561 1.989 . S
Co544 O569 1.967 . S
Co544 O576 1.920 . S
Co545 O548 1.966 . S
Co545 N554 2.022 . S
Co545 N562 1.993 . S
Co545 O570 1.941 . S
C546 O547 1.258 . S
C546 O548 1.263 . S
O547 Co544 1.970 . S
O547 C546 1.258 . S
O548 Co545 1.966 . S
O548 C546 1.263 . S
C549 O550 1.235 . S
C549 O576 1.289 . S
O550 C549 1.235 . S
C551 C553 1.400 . S
C551 N554 1.351 . S
C551 C556 1.501 . S
C552 C553 1.387 . S
C552 N555 1.341 . S
C553 C551 1.400 . S
C553 C552 1.387 . S
N554 Co545 2.022 . S
N554 C551 1.351 . S
N554 N555 1.365 . S
N555 C552 1.341 . S
N555 N554 1.365 . S
N555 H575 0.862 . S
C556 C551 1.501 . S
C556 H557 0.961 . S
C556 H558 0.961 . S
C556 H559 0.960 . S
H557 C556 0.961 . S
H558 C556 0.961 . S
H559 C556 0.960 . S
C560 N561 1.342 . S
C560 C564 1.401 . S
C560 C565 1.499 . S
N561 Co544 1.989 . S
N561 C560 1.342 . S
N561 N562 1.388 . S
N562 Co545 1.993 . S
N562 N561 1.388 . S
N562 C563 1.346 . S
C563 N562 1.346 . S
C563 C564 1.396 . S
C563 C573 1.510 . S
C564 C560 1.401 . S
C564 C563 1.396 . S
C565 C560 1.499 . S
C565 H566 0.959 . S
C565 H567 0.960 . S
C565 H568 0.961 . S
H566 C565 0.959 . S
H567 C565 0.960 . S
H568 C565 0.961 . S
O569 Co544 1.967 . S
O569 C577 1.258 . S
O570 Co545 1.941 . S
O570 C577 1.266 . S
H571 C573 0.959 . S
H572 C573 0.961 . S
C573 C563 1.510 . S
C573 H571 0.959 . S
C573 H572 0.961 . S
C573 H574 0.960 . S
H574 C573 0.960 . S
H575 N555 0.862 . S
O576 Co544 1.920 . S
O576 C549 1.289 . S
C577 O569 1.258 . S
C577 O570 1.266 . S
Co578 O581 1.970 . S
Co578 N595 1.989 . S
Co578 O603 1.967 . S
Co578 O610 1.920 . S
Co579 O582 1.966 . S
Co579 N588 2.022 . S
Co579 N596 1.993 . S
Co579 O604 1.941 . S
C580 O581 1.258 . S
C580 O582 1.263 . S
O581 Co578 1.970 . S
O581 C580 1.258 . S
O582 Co579 1.966 . S
O582 C580 1.263 . S
C583 O584 1.235 . S
C583 O610 1.289 . S
O584 C583 1.235 . S
C585 C587 1.400 . S
C585 N588 1.351 . S
C585 C590 1.501 . S
C586 C587 1.387 . S
C586 N589 1.341 . S
C587 C585 1.400 . S
C587 C586 1.387 . S
N588 Co579 2.022 . S
N588 C585 1.351 . S
N588 N589 1.365 . S
N589 C586 1.341 . S
N589 N588 1.365 . S
N589 H609 0.862 . S
C590 C585 1.501 . S
C590 H591 0.961 . S
C590 H592 0.961 . S
C590 H593 0.960 . S
H591 C590 0.961 . S
H592 C590 0.961 . S
H593 C590 0.960 . S
C594 N595 1.342 . S
C594 C598 1.401 . S
C594 C599 1.499 . S
N595 Co578 1.989 . S
N595 C594 1.342 . S
N595 N596 1.388 . S
N596 Co579 1.993 . S
N596 N595 1.388 . S
N596 C597 1.346 . S
C597 N596 1.346 . S
C597 C598 1.396 . S
C597 C607 1.510 . S
C598 C594 1.401 . S
C598 C597 1.396 . S
C599 C594 1.499 . S
C599 H600 0.959 . S
C599 H601 0.960 . S
C599 H602 0.961 . S
H600 C599 0.959 . S
H601 C599 0.960 . S
H602 C599 0.961 . S
O603 Co578 1.967 . S
O603 C611 1.258 . S
O604 Co579 1.941 . S
O604 C611 1.266 . S
H605 C607 0.959 . S
H606 C607 0.961 . S
C607 C597 1.510 . S
C607 H605 0.959 . S
C607 H606 0.961 . S
C607 H608 0.960 . S
H608 C607 0.960 . S
H609 N589 0.862 . S
O610 Co578 1.920 . S
O610 C583 1.289 . S
C611 O603 1.258 . S
C611 O604 1.266 . S
Co612 O615 1.970 . S
Co612 N629 1.989 . S
Co612 O637 1.967 . S
Co612 O644 1.920 . S
Co613 O616 1.966 . S
Co613 N622 2.022 . S
Co613 N630 1.993 . S
Co613 O638 1.941 . S
C614 O615 1.258 . S
C614 O616 1.263 . S
O615 Co612 1.970 . S
O615 C614 1.258 . S
O616 Co613 1.966 . S
O616 C614 1.263 . S
C617 O618 1.235 . S
C617 O644 1.289 . S
O618 C617 1.235 . S
C619 C621 1.400 . S
C619 N622 1.351 . S
C619 C624 1.501 . S
C620 C621 1.387 . S
C620 N623 1.341 . S
C621 C619 1.400 . S
C621 C620 1.387 . S
N622 Co613 2.022 . S
N622 C619 1.351 . S
N622 N623 1.365 . S
N623 C620 1.341 . S
N623 N622 1.365 . S
N623 H643 0.862 . S
C624 C619 1.501 . S
C624 H625 0.961 . S
C624 H626 0.961 . S
C624 H627 0.960 . S
H625 C624 0.961 . S
H626 C624 0.961 . S
H627 C624 0.960 . S
C628 N629 1.342 . S
C628 C632 1.401 . S
C628 C633 1.499 . S
N629 Co612 1.989 . S
N629 C628 1.342 . S
N629 N630 1.388 . S
N630 Co613 1.993 . S
N630 N629 1.388 . S
N630 C631 1.346 . S
C631 N630 1.346 . S
C631 C632 1.396 . S
C631 C641 1.510 . S
C632 C628 1.401 . S
C632 C631 1.396 . S
C633 C628 1.499 . S
C633 H634 0.959 . S
C633 H635 0.960 . S
C633 H636 0.961 . S
H634 C633 0.959 . S
H635 C633 0.960 . S
H636 C633 0.961 . S
O637 Co612 1.967 . S
O637 C645 1.258 . S
O638 Co613 1.941 . S
O638 C645 1.266 . S
H639 C641 0.959 . S
H640 C641 0.961 . S
C641 C631 1.510 . S
C641 H639 0.959 . S
C641 H640 0.961 . S
C641 H642 0.960 . S
H642 C641 0.960 . S
H643 N623 0.862 . S
O644 Co612 1.920 . S
O644 C617 1.289 . S
C645 O637 1.258 . S
C645 O638 1.266 . S
Co646 O649 1.970 . S
Co646 N663 1.989 . S
Co646 O671 1.967 . S
Co646 O678 1.920 . S
Co647 O650 1.966 . S
Co647 N656 2.022 . S
Co647 N664 1.993 . S
Co647 O672 1.941 . S
C648 O649 1.258 . S
C648 O650 1.263 . S
O649 Co646 1.970 . S
O649 C648 1.258 . S
O650 Co647 1.966 . S
O650 C648 1.263 . S
C651 O652 1.235 . S
C651 O678 1.289 . S
O652 C651 1.235 . S
C653 C655 1.400 . S
C653 N656 1.351 . S
C653 C658 1.501 . S
C654 C655 1.387 . S
C654 N657 1.341 . S
C655 C653 1.400 . S
C655 C654 1.387 . S
N656 Co647 2.022 . S
N656 C653 1.351 . S
N656 N657 1.365 . S
N657 C654 1.341 . S
N657 N656 1.365 . S
N657 H677 0.862 . S
C658 C653 1.501 . S
C658 H659 0.961 . S
C658 H660 0.961 . S
C658 H661 0.960 . S
H659 C658 0.961 . S
H660 C658 0.961 . S
H661 C658 0.960 . S
C662 N663 1.342 . S
C662 C666 1.401 . S
C662 C667 1.499 . S
N663 Co646 1.989 . S
N663 C662 1.342 . S
N663 N664 1.388 . S
N664 Co647 1.993 . S
N664 N663 1.388 . S
N664 C665 1.346 . S
C665 N664 1.346 . S
C665 C666 1.396 . S
C665 C675 1.510 . S
C666 C662 1.401 . S
C666 C665 1.396 . S
C667 C662 1.499 . S
C667 H668 0.959 . S
C667 H669 0.960 . S
C667 H670 0.961 . S
H668 C667 0.959 . S
H669 C667 0.960 . S
H670 C667 0.961 . S
O671 Co646 1.967 . S
O671 C679 1.258 . S
O672 Co647 1.941 . S
O672 C679 1.266 . S
H673 C675 0.959 . S
H674 C675 0.961 . S
C675 C665 1.510 . S
C675 H673 0.959 . S
C675 H674 0.961 . S
C675 H676 0.960 . S
H676 C675 0.960 . S
H677 N657 0.862 . S
O678 Co646 1.920 . S
O678 C651 1.289 . S
C679 O671 1.258 . S
C679 O672 1.266 . S
Co680 O683 1.970 . S
Co680 N697 1.989 . S
Co680 O705 1.967 . S
Co680 O712 1.920 . S
Co681 O684 1.966 . S
Co681 N690 2.022 . S
Co681 N698 1.993 . S
Co681 O706 1.941 . S
C682 O683 1.258 . S
C682 O684 1.263 . S
O683 Co680 1.970 . S
O683 C682 1.258 . S
O684 Co681 1.966 . S
O684 C682 1.263 . S
C685 O686 1.235 . S
C685 O712 1.289 . S
O686 C685 1.235 . S
C687 C689 1.400 . S
C687 N690 1.351 . S
C687 C692 1.501 . S
C688 C689 1.387 . S
C688 N691 1.341 . S
C689 C687 1.400 . S
C689 C688 1.387 . S
N690 Co681 2.022 . S
N690 C687 1.351 . S
N690 N691 1.365 . S
N691 C688 1.341 . S
N691 N690 1.365 . S
N691 H711 0.862 . S
C692 C687 1.501 . S
C692 H693 0.961 . S
C692 H694 0.961 . S
C692 H695 0.960 . S
H693 C692 0.961 . S
H694 C692 0.961 . S
H695 C692 0.960 . S
C696 N697 1.342 . S
C696 C700 1.401 . S
C696 C701 1.499 . S
N697 Co680 1.989 . S
N697 C696 1.342 . S
N697 N698 1.388 . S
N698 Co681 1.993 . S
N698 N697 1.388 . S
N698 C699 1.346 . S
C699 N698 1.346 . S
C699 C700 1.396 . S
C699 C709 1.510 . S
C700 C696 1.401 . S
C700 C699 1.396 . S
C701 C696 1.499 . S
C701 H702 0.959 . S
C701 H703 0.960 . S
C701 H704 0.961 . S
H702 C701 0.959 . S
H703 C701 0.960 . S
H704 C701 0.961 . S
O705 Co680 1.967 . S
O705 C713 1.258 . S
O706 Co681 1.941 . S
O706 C713 1.266 . S
H707 C709 0.959 . S
H708 C709 0.961 . S
C709 C699 1.510 . S
C709 H707 0.959 . S
C709 H708 0.961 . S
C709 H710 0.960 . S
H710 C709 0.960 . S
H711 N691 0.862 . S
O712 Co680 1.920 . S
O712 C685 1.289 . S
C713 O705 1.258 . S
C713 O706 1.266 . S
Co714 O717 1.970 . S
Co714 N731 1.989 . S
Co714 O739 1.967 . S
Co714 O746 1.920 . S
Co715 O718 1.966 . S
Co715 N724 2.022 . S
Co715 N732 1.993 . S
Co715 O740 1.941 . S
C716 O717 1.258 . S
C716 O718 1.263 . S
O717 Co714 1.970 . S
O717 C716 1.258 . S
O718 Co715 1.966 . S
O718 C716 1.263 . S
C719 O720 1.235 . S
C719 O746 1.289 . S
O720 C719 1.235 . S
C721 C723 1.400 . S
C721 N724 1.351 . S
C721 C726 1.501 . S
C722 C723 1.387 . S
C722 N725 1.341 . S
C723 C721 1.400 . S
C723 C722 1.387 . S
N724 Co715 2.022 . S
N724 C721 1.351 . S
N724 N725 1.365 . S
N725 C722 1.341 . S
N725 N724 1.365 . S
N725 H745 0.862 . S
C726 C721 1.501 . S
C726 H727 0.961 . S
C726 H728 0.961 . S
C726 H729 0.960 . S
H727 C726 0.961 . S
H728 C726 0.961 . S
H729 C726 0.960 . S
C730 N731 1.342 . S
C730 C734 1.401 . S
C730 C735 1.499 . S
N731 Co714 1.989 . S
N731 C730 1.342 . S
N731 N732 1.388 . S
N732 Co715 1.993 . S
N732 N731 1.388 . S
N732 C733 1.346 . S
C733 N732 1.346 . S
C733 C734 1.396 . S
C733 C743 1.510 . S
C734 C730 1.401 . S
C734 C733 1.396 . S
C735 C730 1.499 . S
C735 H736 0.959 . S
C735 H737 0.960 . S
C735 H738 0.961 . S
H736 C735 0.959 . S
H737 C735 0.960 . S
H738 C735 0.961 . S
O739 Co714 1.967 . S
O739 C747 1.258 . S
O740 Co715 1.941 . S
O740 C747 1.266 . S
H741 C743 0.959 . S
H742 C743 0.961 . S
C743 C733 1.510 . S
C743 H741 0.959 . S
C743 H742 0.961 . S
C743 H744 0.960 . S
H744 C743 0.960 . S
H745 N725 0.862 . S
O746 Co714 1.920 . S
O746 C719 1.289 . S
C747 O739 1.258 . S
C747 O740 1.266 . S
Co748 O751 1.970 . S
Co748 N765 1.989 . S
Co748 O773 1.967 . S
Co748 O780 1.920 . S
Co749 O752 1.966 . S
Co749 N758 2.022 . S
Co749 N766 1.993 . S
Co749 O774 1.941 . S
C750 O751 1.258 . S
C750 O752 1.263 . S
O751 Co748 1.970 . S
O751 C750 1.258 . S
O752 Co749 1.966 . S
O752 C750 1.263 . S
C753 O754 1.235 . S
C753 O780 1.289 . S
O754 C753 1.235 . S
C755 C757 1.400 . S
C755 N758 1.351 . S
C755 C760 1.501 . S
C756 C757 1.387 . S
C756 N759 1.341 . S
C757 C755 1.400 . S
C757 C756 1.387 . S
N758 Co749 2.022 . S
N758 C755 1.351 . S
N758 N759 1.365 . S
N759 C756 1.341 . S
N759 N758 1.365 . S
N759 H779 0.862 . S
C760 C755 1.501 . S
C760 H761 0.961 . S
C760 H762 0.961 . S
C760 H763 0.960 . S
H761 C760 0.961 . S
H762 C760 0.961 . S
H763 C760 0.960 . S
C764 N765 1.342 . S
C764 C768 1.401 . S
C764 C769 1.499 . S
N765 Co748 1.989 . S
N765 C764 1.342 . S
N765 N766 1.388 . S
N766 Co749 1.993 . S
N766 N765 1.388 . S
N766 C767 1.346 . S
C767 N766 1.346 . S
C767 C768 1.396 . S
C767 C777 1.510 . S
C768 C764 1.401 . S
C768 C767 1.396 . S
C769 C764 1.499 . S
C769 H770 0.959 . S
C769 H771 0.960 . S
C769 H772 0.961 . S
H770 C769 0.959 . S
H771 C769 0.960 . S
H772 C769 0.961 . S
O773 Co748 1.967 . S
O773 C781 1.258 . S
O774 Co749 1.941 . S
O774 C781 1.266 . S
H775 C777 0.959 . S
H776 C777 0.961 . S
C777 C767 1.510 . S
C777 H775 0.959 . S
C777 H776 0.961 . S
C777 H778 0.960 . S
H778 C777 0.960 . S
H779 N759 0.862 . S
O780 Co748 1.920 . S
O780 C753 1.289 . S
C781 O773 1.258 . S
C781 O774 1.266 . S
Co782 O785 1.970 . S
Co782 N799 1.989 . S
Co782 O807 1.967 . S
Co782 O814 1.920 . S
Co783 O786 1.966 . S
Co783 N792 2.022 . S
Co783 N800 1.993 . S
Co783 O808 1.941 . S
C784 O785 1.258 . S
C784 O786 1.263 . S
O785 Co782 1.970 . S
O785 C784 1.258 . S
O786 Co783 1.966 . S
O786 C784 1.263 . S
C787 O788 1.235 . S
C787 O814 1.289 . S
O788 C787 1.235 . S
C789 C791 1.400 . S
C789 N792 1.351 . S
C789 C794 1.501 . S
C790 C791 1.387 . S
C790 N793 1.341 . S
C791 C789 1.400 . S
C791 C790 1.387 . S
N792 Co783 2.022 . S
N792 C789 1.351 . S
N792 N793 1.365 . S
N793 C790 1.341 . S
N793 N792 1.365 . S
N793 H813 0.862 . S
C794 C789 1.501 . S
C794 H795 0.961 . S
C794 H796 0.961 . S
C794 H797 0.960 . S
H795 C794 0.961 . S
H796 C794 0.961 . S
H797 C794 0.960 . S
C798 N799 1.342 . S
C798 C802 1.401 . S
C798 C803 1.499 . S
N799 Co782 1.989 . S
N799 C798 1.342 . S
N799 N800 1.388 . S
N800 Co783 1.993 . S
N800 N799 1.388 . S
N800 C801 1.346 . S
C801 N800 1.346 . S
C801 C802 1.396 . S
C801 C811 1.510 . S
C802 C798 1.401 . S
C802 C801 1.396 . S
C803 C798 1.499 . S
C803 H804 0.959 . S
C803 H805 0.960 . S
C803 H806 0.961 . S
H804 C803 0.959 . S
H805 C803 0.960 . S
H806 C803 0.961 . S
O807 Co782 1.967 . S
O807 C815 1.258 . S
O808 Co783 1.941 . S
O808 C815 1.266 . S
H809 C811 0.959 . S
H810 C811 0.961 . S
C811 C801 1.510 . S
C811 H809 0.959 . S
C811 H810 0.961 . S
C811 H812 0.960 . S
H812 C811 0.960 . S
H813 N793 0.862 . S
O814 Co782 1.920 . S
O814 C787 1.289 . S
C815 O807 1.258 . S
C815 O808 1.266 . S
Co816 O819 1.970 . S
Co816 N833 1.989 . S
Co816 O841 1.967 . S
Co816 O848 1.920 . S
Co817 O820 1.966 . S
Co817 N826 2.022 . S
Co817 N834 1.993 . S
Co817 O842 1.941 . S
C818 O819 1.258 . S
C818 O820 1.263 . S
O819 Co816 1.970 . S
O819 C818 1.258 . S
O820 Co817 1.966 . S
O820 C818 1.263 . S
C821 O822 1.235 . S
C821 O848 1.289 . S
O822 C821 1.235 . S
C823 C825 1.400 . S
C823 N826 1.351 . S
C823 C828 1.501 1_554 S
C824 C825 1.387 . S
C824 N827 1.341 . S
C825 C823 1.400 . S
C825 C824 1.387 . S
N826 Co817 2.022 . S
N826 C823 1.351 . S
N826 N827 1.365 . S
N827 C824 1.341 . S
N827 N826 1.365 . S
N827 H847 0.862 . S
C828 C823 1.501 1_556 S
C828 H829 0.961 . S
C828 H830 0.961 . S
C828 H831 0.960 . S
H829 C828 0.961 . S
H830 C828 0.961 . S
H831 C828 0.960 . S
C832 N833 1.342 1_545 S
C832 C836 1.401 . S
C832 C837 1.499 . S
N833 Co816 1.989 . S
N833 C832 1.342 1_565 S
N833 N834 1.388 . S
N834 Co817 1.993 . S
N834 N833 1.388 . S
N834 C835 1.346 1_565 S
C835 N834 1.346 1_545 S
C835 C836 1.396 . S
C835 C845 1.510 . S
C836 C832 1.401 . S
C836 C835 1.396 . S
C837 C832 1.499 . S
C837 H838 0.959 . S
C837 H839 0.960 . S
C837 H840 0.961 . S
H838 C837 0.959 . S
H839 C837 0.960 . S
H840 C837 0.961 . S
O841 Co816 1.967 . S
O841 C849 1.258 . S
O842 Co817 1.941 . S
O842 C849 1.266 . S
H843 C845 0.959 . S
H844 C845 0.961 . S
C845 C835 1.510 . S
C845 H843 0.959 . S
C845 H844 0.961 . S
C845 H846 0.960 . S
H846 C845 0.960 . S
H847 N827 0.862 . S
O848 Co816 1.920 . S
O848 C821 1.289 . S
C849 O841 1.258 . S
C849 O842 1.266 . S
Co850 O853 1.970 . S
Co850 N867 1.989 . S
Co850 O875 1.967 . S
Co850 O882 1.920 . S
Co851 O854 1.966 . S
Co851 N860 2.022 . S
Co851 N868 1.993 . S
Co851 O876 1.941 . S
C852 O853 1.258 . S
C852 O854 1.263 . S
O853 Co850 1.970 . S
O853 C852 1.258 . S
O854 Co851 1.966 . S
O854 C852 1.263 . S
C855 O856 1.235 . S
C855 O882 1.289 . S
O856 C855 1.235 . S
C857 C859 1.400 . S
C857 N860 1.351 . S
C857 C862 1.501 1_554 S
C858 C859 1.387 . S
C858 N861 1.341 . S
C859 C857 1.400 . S
C859 C858 1.387 . S
N860 Co851 2.022 . S
N860 C857 1.351 . S
N860 N861 1.365 . S
N861 C858 1.341 . S
N861 N860 1.365 . S
N861 H881 0.862 . S
C862 C857 1.501 1_556 S
C862 H863 0.961 . S
C862 H864 0.961 . S
C862 H865 0.960 . S
H863 C862 0.961 . S
H864 C862 0.961 . S
H865 C862 0.960 . S
C866 N867 1.342 . S
C866 C870 1.401 . S
C866 C871 1.499 . S
N867 Co850 1.989 . S
N867 C866 1.342 . S
N867 N868 1.388 . S
N868 Co851 1.993 . S
N868 N867 1.388 . S
N868 C869 1.346 . S
C869 N868 1.346 . S
C869 C870 1.396 . S
C869 C879 1.510 . S
C870 C866 1.401 . S
C870 C869 1.396 . S
C871 C866 1.499 . S
C871 H872 0.959 . S
C871 H873 0.960 . S
C871 H874 0.961 . S
H872 C871 0.959 . S
H873 C871 0.960 . S
H874 C871 0.961 . S
O875 Co850 1.967 . S
O875 C883 1.258 . S
O876 Co851 1.941 . S
O876 C883 1.266 . S
H877 C879 0.959 . S
H878 C879 0.961 . S
C879 C869 1.510 . S
C879 H877 0.959 . S
C879 H878 0.961 . S
C879 H880 0.960 . S
H880 C879 0.960 . S
H881 N861 0.862 . S
O882 Co850 1.920 . S
O882 C855 1.289 . S
C883 O875 1.258 . S
C883 O876 1.266 . S
Co884 O887 1.970 . S
Co884 N901 1.989 . S
Co884 O909 1.967 . S
Co884 O916 1.920 . S
Co885 O888 1.966 . S
Co885 N894 2.022 . S
Co885 N902 1.993 . S
Co885 O910 1.941 . S
C886 O887 1.258 . S
C886 O888 1.263 . S
O887 Co884 1.970 . S
O887 C886 1.258 . S
O888 Co885 1.966 . S
O888 C886 1.263 . S
C889 O890 1.235 . S
C889 O916 1.289 . S
O890 C889 1.235 . S
C891 C893 1.400 . S
C891 N894 1.351 . S
C891 C896 1.501 . S
C892 C893 1.387 . S
C892 N895 1.341 . S
C893 C891 1.400 . S
C893 C892 1.387 . S
N894 Co885 2.022 . S
N894 C891 1.351 . S
N894 N895 1.365 . S
N895 C892 1.341 . S
N895 N894 1.365 . S
N895 H915 0.862 . S
C896 C891 1.501 . S
C896 H897 0.961 . S
C896 H898 0.961 . S
C896 H899 0.960 . S
H897 C896 0.961 . S
H898 C896 0.961 . S
H899 C896 0.960 . S
C900 N901 1.342 . S
C900 C904 1.401 . S
C900 C905 1.499 . S
N901 Co884 1.989 . S
N901 C900 1.342 . S
N901 N902 1.388 . S
N902 Co885 1.993 . S
N902 N901 1.388 . S
N902 C903 1.346 . S
C903 N902 1.346 . S
C903 C904 1.396 . S
C903 C913 1.510 . S
C904 C900 1.401 . S
C904 C903 1.396 . S
C905 C900 1.499 . S
C905 H906 0.959 . S
C905 H907 0.960 . S
C905 H908 0.961 . S
H906 C905 0.959 . S
H907 C905 0.960 . S
H908 C905 0.961 . S
O909 Co884 1.967 . S
O909 C917 1.258 . S
O910 Co885 1.941 . S
O910 C917 1.266 . S
H911 C913 0.959 . S
H912 C913 0.961 . S
C913 C903 1.510 . S
C913 H911 0.959 . S
C913 H912 0.961 . S
C913 H914 0.960 . S
H914 C913 0.960 . S
H915 N895 0.862 . S
O916 Co884 1.920 . S
O916 C889 1.289 . S
C917 O909 1.258 . S
C917 O910 1.266 . S
Co918 O921 1.970 . S
Co918 N935 1.989 . S
Co918 O943 1.967 . S
Co918 O950 1.920 . S
Co919 O922 1.966 . S
Co919 N928 2.022 . S
Co919 N936 1.993 . S
Co919 O944 1.941 . S
C920 O921 1.258 . S
C920 O922 1.263 . S
O921 Co918 1.970 . S
O921 C920 1.258 . S
O922 Co919 1.966 . S
O922 C920 1.263 . S
C923 O924 1.235 . S
C923 O950 1.289 . S
O924 C923 1.235 . S
C925 C927 1.400 . S
C925 N928 1.351 . S
C925 C930 1.501 . S
C926 C927 1.387 . S
C926 N929 1.341 . S
C927 C925 1.400 . S
C927 C926 1.387 . S
N928 Co919 2.022 . S
N928 C925 1.351 . S
N928 N929 1.365 . S
N929 C926 1.341 . S
N929 N928 1.365 . S
N929 H949 0.862 . S
C930 C925 1.501 . S
C930 H931 0.961 . S
C930 H932 0.961 . S
C930 H933 0.960 . S
H931 C930 0.961 . S
H932 C930 0.961 . S
H933 C930 0.960 . S
C934 N935 1.342 1_545 S
C934 C938 1.401 . S
C934 C939 1.499 . S
N935 Co918 1.989 . S
N935 C934 1.342 1_565 S
N935 N936 1.388 . S
N936 Co919 1.993 . S
N936 N935 1.388 . S
N936 C937 1.346 1_565 S
C937 N936 1.346 1_545 S
C937 C938 1.396 . S
C937 C947 1.510 . S
C938 C934 1.401 . S
C938 C937 1.396 . S
C939 C934 1.499 . S
C939 H940 0.959 . S
C939 H941 0.960 . S
C939 H942 0.961 . S
H940 C939 0.959 . S
H941 C939 0.960 . S
H942 C939 0.961 . S
O943 Co918 1.967 . S
O943 C951 1.258 . S
O944 Co919 1.941 . S
O944 C951 1.266 . S
H945 C947 0.959 . S
H946 C947 0.961 . S
C947 C937 1.510 . S
C947 H945 0.959 . S
C947 H946 0.961 . S
C947 H948 0.960 . S
H948 C947 0.960 . S
H949 N929 0.862 . S
O950 Co918 1.920 . S
O950 C923 1.289 . S
C951 O943 1.258 . S
C951 O944 1.266 . S
Co952 O955 1.970 . S
Co952 N969 1.989 . S
Co952 O977 1.967 . S
Co952 O984 1.920 . S
Co953 O956 1.966 . S
Co953 N962 2.022 . S
Co953 N970 1.993 . S
Co953 O978 1.941 . S
C954 O955 1.258 . S
C954 O956 1.263 . S
O955 Co952 1.970 . S
O955 C954 1.258 . S
O956 Co953 1.966 . S
O956 C954 1.263 . S
C957 O958 1.235 . S
C957 O984 1.289 . S
O958 C957 1.235 . S
C959 C961 1.400 . S
C959 N962 1.351 . S
C959 C964 1.501 1_556 S
C960 C961 1.387 . S
C960 N963 1.341 . S
C961 C959 1.400 . S
C961 C960 1.387 . S
N962 Co953 2.022 . S
N962 C959 1.351 . S
N962 N963 1.365 . S
N963 C960 1.341 . S
N963 N962 1.365 . S
N963 H983 0.862 . S
C964 C959 1.501 1_554 S
C964 H965 0.961 . S
C964 H966 0.961 . S
C964 H967 0.960 . S
H965 C964 0.961 . S
H966 C964 0.961 . S
H967 C964 0.960 . S
C968 N969 1.342 1_565 S
C968 C972 1.401 . S
C968 C973 1.499 . S
N969 Co952 1.989 . S
N969 C968 1.342 1_545 S
N969 N970 1.388 . S
N970 Co953 1.993 . S
N970 N969 1.388 . S
N970 C971 1.346 1_545 S
C971 N970 1.346 1_565 S
C971 C972 1.396 . S
C971 C981 1.510 . S
C972 C968 1.401 . S
C972 C971 1.396 . S
C973 C968 1.499 . S
C973 H974 0.959 . S
C973 H975 0.960 . S
C973 H976 0.961 . S
H974 C973 0.959 . S
H975 C973 0.960 . S
H976 C973 0.961 . S
O977 Co952 1.967 . S
O977 C985 1.258 . S
O978 Co953 1.941 . S
O978 C985 1.266 . S
H979 C981 0.959 . S
H980 C981 0.961 . S
C981 C971 1.510 . S
C981 H979 0.959 . S
C981 H980 0.961 . S
C981 H982 0.960 . S
H982 C981 0.960 . S
H983 N963 0.862 . S
O984 Co952 1.920 . S
O984 C957 1.289 . S
C985 O977 1.258 . S
C985 O978 1.266 . S
Co986 O989 1.970 . S
Co986 N1003 1.989 . S
Co986 O1011 1.967 . S
Co986 O1018 1.920 . S
Co987 O990 1.966 . S
Co987 N996 2.022 . S
Co987 N1004 1.993 . S
Co987 O1012 1.941 . S
C988 O989 1.258 . S
C988 O990 1.263 . S
O989 Co986 1.970 . S
O989 C988 1.258 . S
O990 Co987 1.966 . S
O990 C988 1.263 . S
C991 O992 1.235 . S
C991 O1018 1.289 . S
O992 C991 1.235 . S
C993 C995 1.400 . S
C993 N996 1.351 . S
C993 C998 1.501 1_556 S
C994 C995 1.387 . S
C994 N997 1.341 . S
C995 C993 1.400 . S
C995 C994 1.387 . S
N996 Co987 2.022 . S
N996 C993 1.351 . S
N996 N997 1.365 . S
N997 C994 1.341 . S
N997 N996 1.365 . S
N997 H1017 0.862 . S
C998 C993 1.501 1_554 S
C998 H999 0.961 . S
C998 H1000 0.961 . S
C998 H1001 0.960 . S
H999 C998 0.961 . S
H1000 C998 0.961 . S
H1001 C998 0.960 . S
C1002 N1003 1.342 . S
C1002 C1006 1.401 . S
C1002 C1007 1.499 . S
N1003 Co986 1.989 . S
N1003 C1002 1.342 . S
N1003 N1004 1.388 . S
N1004 Co987 1.993 . S
N1004 N1003 1.388 . S
N1004 C1005 1.346 . S
C1005 N1004 1.346 . S
C1005 C1006 1.396 . S
C1005 C1015 1.510 . S
C1006 C1002 1.401 . S
C1006 C1005 1.396 . S
C1007 C1002 1.499 . S
C1007 H1008 0.959 . S
C1007 H1009 0.960 . S
C1007 H1010 0.961 . S
H1008 C1007 0.959 . S
H1009 C1007 0.960 . S
H1010 C1007 0.961 . S
O1011 Co986 1.967 . S
O1011 C1019 1.258 . S
O1012 Co987 1.941 . S
O1012 C1019 1.266 . S
H1013 C1015 0.959 . S
H1014 C1015 0.961 . S
C1015 C1005 1.510 . S
C1015 H1013 0.959 . S
C1015 H1014 0.961 . S
C1015 H1016 0.960 . S
H1016 C1015 0.960 . S
H1017 N997 0.862 . S
O1018 Co986 1.920 . S
O1018 C991 1.289 . S
C1019 O1011 1.258 . S
C1019 O1012 1.266 . S
Co1020 O1023 1.970 . S
Co1020 N1037 1.989 . S
Co1020 O1045 1.967 . S
Co1020 O1052 1.920 . S
Co1021 O1024 1.966 . S
Co1021 N1030 2.022 . S
Co1021 N1038 1.993 . S
Co1021 O1046 1.941 . S
C1022 O1023 1.258 . S
C1022 O1024 1.263 . S
O1023 Co1020 1.970 . S
O1023 C1022 1.258 . S
O1024 Co1021 1.966 . S
O1024 C1022 1.263 . S
C1025 O1026 1.235 . S
C1025 O1052 1.289 . S
O1026 C1025 1.235 . S
C1027 C1029 1.400 . S
C1027 N1030 1.351 . S
C1027 C1032 1.501 . S
C1028 C1029 1.387 . S
C1028 N1031 1.341 . S
C1029 C1027 1.400 . S
C1029 C1028 1.387 . S
N1030 Co1021 2.022 . S
N1030 C1027 1.351 . S
N1030 N1031 1.365 . S
N1031 C1028 1.341 . S
N1031 N1030 1.365 . S
N1031 H1051 0.862 . S
C1032 C1027 1.501 . S
C1032 H1033 0.961 . S
C1032 H1034 0.961 . S
C1032 H1035 0.960 . S
H1033 C1032 0.961 . S
H1034 C1032 0.961 . S
H1035 C1032 0.960 . S
C1036 N1037 1.342 . S
C1036 C1040 1.401 . S
C1036 C1041 1.499 . S
N1037 Co1020 1.989 . S
N1037 C1036 1.342 . S
N1037 N1038 1.388 . S
N1038 Co1021 1.993 . S
N1038 N1037 1.388 . S
N1038 C1039 1.346 . S
C1039 N1038 1.346 . S
C1039 C1040 1.396 . S
C1039 C1049 1.510 . S
C1040 C1036 1.401 . S
C1040 C1039 1.396 . S
C1041 C1036 1.499 . S
C1041 H1042 0.959 . S
C1041 H1043 0.960 . S
C1041 H1044 0.961 . S
H1042 C1041 0.959 . S
H1043 C1041 0.960 . S
H1044 C1041 0.961 . S
O1045 Co1020 1.967 . S
O1045 C1053 1.258 . S
O1046 Co1021 1.941 . S
O1046 C1053 1.266 . S
H1047 C1049 0.959 . S
H1048 C1049 0.961 . S
C1049 C1039 1.510 . S
C1049 H1047 0.959 . S
C1049 H1048 0.961 . S
C1049 H1050 0.960 . S
H1050 C1049 0.960 . S
H1051 N1031 0.862 . S
O1052 Co1020 1.920 . S
O1052 C1025 1.289 . S
C1053 O1045 1.258 . S
C1053 O1046 1.266 . S
Co1054 O1057 1.970 . S
Co1054 N1071 1.989 . S
Co1054 O1079 1.967 . S
Co1054 O1086 1.920 . S
Co1055 O1058 1.966 . S
Co1055 N1064 2.022 . S
Co1055 N1072 1.993 . S
Co1055 O1080 1.941 . S
C1056 O1057 1.258 . S
C1056 O1058 1.263 . S
O1057 Co1054 1.970 . S
O1057 C1056 1.258 . S
O1058 Co1055 1.966 . S
O1058 C1056 1.263 . S
C1059 O1060 1.235 . S
C1059 O1086 1.289 . S
O1060 C1059 1.235 . S
C1061 C1063 1.400 . S
C1061 N1064 1.351 . S
C1061 C1066 1.501 . S
C1062 C1063 1.387 . S
C1062 N1065 1.341 . S
C1063 C1061 1.400 . S
C1063 C1062 1.387 . S
N1064 Co1055 2.022 . S
N1064 C1061 1.351 . S
N1064 N1065 1.365 . S
N1065 C1062 1.341 . S
N1065 N1064 1.365 . S
N1065 H1085 0.862 . S
C1066 C1061 1.501 . S
C1066 H1067 0.961 . S
C1066 H1068 0.961 . S
C1066 H1069 0.960 . S
H1067 C1066 0.961 . S
H1068 C1066 0.961 . S
H1069 C1066 0.960 . S
C1070 N1071 1.342 1_565 S
C1070 C1074 1.401 . S
C1070 C1075 1.499 . S
N1071 Co1054 1.989 . S
N1071 C1070 1.342 1_545 S
N1071 N1072 1.388 . S
N1072 Co1055 1.993 . S
N1072 N1071 1.388 . S
N1072 C1073 1.346 1_545 S
C1073 N1072 1.346 1_565 S
C1073 C1074 1.396 . S
C1073 C1083 1.510 . S
C1074 C1070 1.401 . S
C1074 C1073 1.396 . S
C1075 C1070 1.499 . S
C1075 H1076 0.959 . S
C1075 H1077 0.960 . S
C1075 H1078 0.961 . S
H1076 C1075 0.959 . S
H1077 C1075 0.960 . S
H1078 C1075 0.961 . S
O1079 Co1054 1.967 . S
O1079 C1087 1.258 . S
O1080 Co1055 1.941 . S
O1080 C1087 1.266 . S
H1081 C1083 0.959 . S
H1082 C1083 0.961 . S
C1083 C1073 1.510 . S
C1083 H1081 0.959 . S
C1083 H1082 0.961 . S
C1083 H1084 0.960 . S
H1084 C1083 0.960 . S
H1085 N1065 0.862 . S
O1086 Co1054 1.920 . S
O1086 C1059 1.289 . S
C1087 O1079 1.258 . S
C1087 O1080 1.266 . S
H1088 C1100 0.930 . S
H1089 C1102 0.930 . S
H1090 C1103 0.930 . S
H1091 C1107 0.959 . S
H1092 C1107 0.959 . S
H1093 C1107 0.961 . S
H1094 C1108 0.960 . S
H1095 C1108 0.961 . S
H1096 C1108 0.959 . S
H1097 C1111 0.929 . S
H1098 C1112 0.931 . S
H1099 C1114 0.930 . S
C1100 H1088 0.930 . S
C1100 C1101 1.399 . S
C1100 C1105 1.399 . S
C1101 C1100 1.399 . S
C1101 C1102 1.376 . S
C1102 H1089 0.930 . S
C1102 C1101 1.376 . S
C1102 C1103 1.388 . S
C1103 H1090 0.930 . S
C1103 C1102 1.388 . S
C1103 C1104 1.390 . S
C1104 C1103 1.390 . S
C1104 C1105 1.394 . S
C1104 C1110 1.465 . S
C1105 C1100 1.399 . S
C1105 C1104 1.394 . S
C1105 C1106 1.516 . S
C1106 C1105 1.516 . S
C1106 C1107 1.502 . S
C1106 C1108 1.561 . S
C1106 C1109 1.526 . S
C1107 H1091 0.959 . S
C1107 H1092 0.959 . S
C1107 H1093 0.961 . S
C1107 C1106 1.502 . S
C1108 H1094 0.960 . S
C1108 H1095 0.961 . S
C1108 H1096 0.959 . S
C1108 C1106 1.561 . S
C1109 C1106 1.526 . S
C1109 C1110 1.396 . S
C1109 C1114 1.390 . S
C1110 C1104 1.465 . S
C1110 C1109 1.396 . S
C1110 C1111 1.399 . S
C1111 H1097 0.929 . S
C1111 C1110 1.399 . S
C1111 C1112 1.385 . S
C1112 H1098 0.931 . S
C1112 C1111 1.385 . S
C1112 C1113 1.389 . S
C1113 C1112 1.389 . S
C1113 C1114 1.387 . S
C1114 H1099 0.930 . S
C1114 C1109 1.390 . S
C1114 C1113 1.387 . S
H1115 C1127 0.930 . S
H1116 C1129 0.930 . S
H1117 C1130 0.930 . S
H1118 C1134 0.959 . S
H1119 C1134 0.959 1_556 S
H1120 C1134 0.963 . S
H1121 C1135 0.960 1_556 S
H1122 C1135 0.961 1_556 S
H1123 C1135 0.959 . S
H1124 C1138 0.929 . S
H1125 C1139 0.931 . S
H1126 C1141 0.930 . S
C1127 H1115 0.930 . S
C1127 C1128 1.399 . S
C1127 C1132 1.399 . S
C1128 C1127 1.399 . S
C1128 C1129 1.376 . S
C1129 H1116 0.930 . S
C1129 C1128 1.376 . S
C1129 C1130 1.388 . S
C1130 H1117 0.930 . S
C1130 C1129 1.388 . S
C1130 C1131 1.390 . S
C1131 C1130 1.390 . S
C1131 C1132 1.394 . S
C1131 C1137 1.465 . S
C1132 C1127 1.399 . S
C1132 C1131 1.394 . S
C1132 C1133 1.516 . S
C1133 C1132 1.516 . S
C1133 C1134 1.502 . S
C1133 C1135 1.561 . S
C1133 C1136 1.526 . S
C1134 H1118 0.959 . S
C1134 H1119 0.959 1_554 S
C1134 H1120 0.963 . S
C1134 C1133 1.502 . S
C1135 H1121 0.960 1_554 S
C1135 H1122 0.961 1_554 S
C1135 H1123 0.959 . S
C1135 C1133 1.561 . S
C1136 C1133 1.526 . S
C1136 C1137 1.396 . S
C1136 C1141 1.390 . S
C1137 C1131 1.465 . S
C1137 C1136 1.396 . S
C1137 C1138 1.399 . S
C1138 H1124 0.929 . S
C1138 C1137 1.399 . S
C1138 C1139 1.385 . S
C1139 H1125 0.931 . S
C1139 C1138 1.385 . S
C1139 C1140 1.389 . S
C1140 C1139 1.389 . S
C1140 C1141 1.387 . S
C1141 H1126 0.930 . S
C1141 C1136 1.390 . S
C1141 C1140 1.387 . S
H1142 C1154 0.930 . S
H1143 C1156 0.930 . S
H1144 C1157 0.930 . S
H1145 C1161 0.959 . S
H1146 C1161 0.959 . S
H1147 C1161 0.961 . S
H1148 C1162 0.960 . S
H1149 C1162 0.961 . S
H1150 C1162 0.959 . S
H1151 C1165 0.929 . S
H1152 C1166 0.931 . S
H1153 C1168 0.930 . S
C1154 H1142 0.930 . S
C1154 C1155 1.399 . S
C1154 C1159 1.399 . S
C1155 C1154 1.399 . S
C1155 C1156 1.376 . S
C1156 H1143 0.930 . S
C1156 C1155 1.376 . S
C1156 C1157 1.388 . S
C1157 H1144 0.930 . S
C1157 C1156 1.388 . S
C1157 C1158 1.390 . S
C1158 C1157 1.390 . S
C1158 C1159 1.394 . S
C1158 C1164 1.465 . S
C1159 C1154 1.399 . S
C1159 C1158 1.394 . S
C1159 C1160 1.516 . S
C1160 C1159 1.516 . S
C1160 C1161 1.502 . S
C1160 C1162 1.561 . S
C1160 C1163 1.526 . S
C1161 H1145 0.959 . S
C1161 H1146 0.959 . S
C1161 H1147 0.961 . S
C1161 C1160 1.502 . S
C1162 H1148 0.960 . S
C1162 H1149 0.961 . S
C1162 H1150 0.959 . S
C1162 C1160 1.561 . S
C1163 C1160 1.526 . S
C1163 C1164 1.396 . S
C1163 C1168 1.390 . S
C1164 C1158 1.465 . S
C1164 C1163 1.396 . S
C1164 C1165 1.399 . S
C1165 H1151 0.929 . S
C1165 C1164 1.399 . S
C1165 C1166 1.385 . S
C1166 H1152 0.931 . S
C1166 C1165 1.385 . S
C1166 C1167 1.389 . S
C1167 C1166 1.389 . S
C1167 C1168 1.387 . S
C1168 H1153 0.930 . S
C1168 C1163 1.390 . S
C1168 C1167 1.387 . S
H1169 C1181 0.930 . S
H1170 C1183 0.930 . S
H1171 C1184 0.930 . S
H1172 C1188 0.959 . S
H1173 C1188 0.959 . S
H1174 C1188 0.961 . S
H1175 C1189 0.960 1_554 S
H1176 C1189 0.961 1_554 S
H1177 C1189 0.959 . S
H1178 C1192 0.929 . S
H1179 C1193 0.931 . S
H1180 C1195 0.930 . S
C1181 H1169 0.930 . S
C1181 C1182 1.399 . S
C1181 C1186 1.399 . S
C1182 C1181 1.399 . S
C1182 C1183 1.376 . S
C1183 H1170 0.930 . S
C1183 C1182 1.376 . S
C1183 C1184 1.388 . S
C1184 H1171 0.930 . S
C1184 C1183 1.388 . S
C1184 C1185 1.390 . S
C1185 C1184 1.390 . S
C1185 C1186 1.394 . S
C1185 C1191 1.465 . S
C1186 C1181 1.399 . S
C1186 C1185 1.394 . S
C1186 C1187 1.516 . S
C1187 C1186 1.516 . S
C1187 C1188 1.502 . S
C1187 C1189 1.561 . S
C1187 C1190 1.526 . S
C1188 H1172 0.959 . S
C1188 H1173 0.959 . S
C1188 H1174 0.961 . S
C1188 C1187 1.502 . S
C1189 H1175 0.960 1_556 S
C1189 H1176 0.961 1_556 S
C1189 H1177 0.959 . S
C1189 C1187 1.561 . S
C1190 C1187 1.526 . S
C1190 C1191 1.396 . S
C1190 C1195 1.390 . S
C1191 C1185 1.465 . S
C1191 C1190 1.396 . S
C1191 C1192 1.399 . S
C1192 H1178 0.929 . S
C1192 C1191 1.399 . S
C1192 C1193 1.385 . S
C1193 H1179 0.931 . S
C1193 C1192 1.385 . S
C1193 C1194 1.389 . S
C1194 C1193 1.389 . S
C1194 C1195 1.387 . S
C1195 H1180 0.930 . S
C1195 C1190 1.390 . S
C1195 C1194 1.387 . S
H1196 C1208 0.930 . S
H1197 C1210 0.930 . S
H1198 C1211 0.930 . S
H1199 C1215 0.959 . S
H1200 C1215 0.959 . S
H1201 C1215 0.961 . S
H1202 C1216 0.960 . S
H1203 C1216 0.961 . S
H1204 C1216 0.959 . S
H1205 C1219 0.929 . S
H1206 C1220 0.931 . S
H1207 C1222 0.930 . S
C1208 H1196 0.930 . S
C1208 C1209 1.399 . S
C1208 C1213 1.399 . S
C1209 C1208 1.399 . S
C1209 C1210 1.376 . S
C1210 H1197 0.930 . S
C1210 C1209 1.376 . S
C1210 C1211 1.388 . S
C1211 H1198 0.930 . S
C1211 C1210 1.388 . S
C1211 C1212 1.390 . S
C1212 C1211 1.390 . S
C1212 C1213 1.394 . S
C1212 C1218 1.465 . S
C1213 C1208 1.399 . S
C1213 C1212 1.394 . S
C1213 C1214 1.516 . S
C1214 C1213 1.516 . S
C1214 C1215 1.502 . S
C1214 C1216 1.561 . S
C1214 C1217 1.526 . S
C1215 H1199 0.959 . S
C1215 H1200 0.959 . S
C1215 H1201 0.961 . S
C1215 C1214 1.502 . S
C1216 H1202 0.960 . S
C1216 H1203 0.961 . S
C1216 H1204 0.959 . S
C1216 C1214 1.561 . S
C1217 C1214 1.526 . S
C1217 C1218 1.396 . S
C1217 C1222 1.390 . S
C1218 C1212 1.465 . S
C1218 C1217 1.396 . S
C1218 C1219 1.399 . S
C1219 H1205 0.929 . S
C1219 C1218 1.399 . S
C1219 C1220 1.385 . S
C1220 H1206 0.931 . S
C1220 C1219 1.385 . S
C1220 C1221 1.389 . S
C1221 C1220 1.389 . S
C1221 C1222 1.387 . S
C1222 H1207 0.930 . S
C1222 C1217 1.390 . S
C1222 C1221 1.387 . S
H1223 C1235 0.930 . S
H1224 C1237 0.930 . S
H1225 C1238 0.930 . S
H1226 C1242 0.959 . S
H1227 C1242 0.959 . S
H1228 C1242 0.961 . S
H1229 C1243 0.960 . S
H1230 C1243 0.961 . S
H1231 C1243 0.959 . S
H1232 C1246 0.929 . S
H1233 C1247 0.931 . S
H1234 C1249 0.930 . S
C1235 H1223 0.930 . S
C1235 C1236 1.399 . S
C1235 C1240 1.399 . S
C1236 C1235 1.399 . S
C1236 C1237 1.376 . S
C1237 H1224 0.930 . S
C1237 C1236 1.376 . S
C1237 C1238 1.388 . S
C1238 H1225 0.930 . S
C1238 C1237 1.388 . S
C1238 C1239 1.390 . S
C1239 C1238 1.390 . S
C1239 C1240 1.394 . S
C1239 C1245 1.465 . S
C1240 C1235 1.399 . S
C1240 C1239 1.394 . S
C1240 C1241 1.516 . S
C1241 C1240 1.516 . S
C1241 C1242 1.502 . S
C1241 C1243 1.561 . S
C1241 C1244 1.526 . S
C1242 H1226 0.959 . S
C1242 H1227 0.959 . S
C1242 H1228 0.961 . S
C1242 C1241 1.502 . S
C1243 H1229 0.960 . S
C1243 H1230 0.961 . S
C1243 H1231 0.959 . S
C1243 C1241 1.561 . S
C1244 C1241 1.526 . S
C1244 C1245 1.396 . S
C1244 C1249 1.390 . S
C1245 C1239 1.465 . S
C1245 C1244 1.396 . S
C1245 C1246 1.399 . S
C1246 H1232 0.929 . S
C1246 C1245 1.399 . S
C1246 C1247 1.385 . S
C1247 H1233 0.931 . S
C1247 C1246 1.385 . S
C1247 C1248 1.389 . S
C1248 C1247 1.389 . S
C1248 C1249 1.387 . S
C1249 H1234 0.930 . S
C1249 C1244 1.390 . S
C1249 C1248 1.387 . S
H1250 C1262 0.930 . S
H1251 C1264 0.930 . S
H1252 C1265 0.930 . S
H1253 C1269 0.959 . S
H1254 C1269 0.959 . S
H1255 C1269 0.961 . S
H1256 C1270 0.960 . S
H1257 C1270 0.961 . S
H1258 C1270 0.959 . S
H1259 C1273 0.929 . S
H1260 C1274 0.931 . S
H1261 C1276 0.930 . S
C1262 H1250 0.930 . S
C1262 C1263 1.399 . S
C1262 C1267 1.399 . S
C1263 C1262 1.399 . S
C1263 C1264 1.376 . S
C1264 H1251 0.930 . S
C1264 C1263 1.376 . S
C1264 C1265 1.388 . S
C1265 H1252 0.930 . S
C1265 C1264 1.388 . S
C1265 C1266 1.390 . S
C1266 C1265 1.390 . S
C1266 C1267 1.394 . S
C1266 C1272 1.465 . S
C1267 C1262 1.399 . S
C1267 C1266 1.394 . S
C1267 C1268 1.516 . S
C1268 C1267 1.516 . S
C1268 C1269 1.502 . S
C1268 C1270 1.561 . S
C1268 C1271 1.526 . S
C1269 H1253 0.959 . S
C1269 H1254 0.959 . S
C1269 H1255 0.961 . S
C1269 C1268 1.502 . S
C1270 H1256 0.960 . S
C1270 H1257 0.961 . S
C1270 H1258 0.959 . S
C1270 C1268 1.561 . S
C1271 C1268 1.526 . S
C1271 C1272 1.396 . S
C1271 C1276 1.390 . S
C1272 C1266 1.465 . S
C1272 C1271 1.396 . S
C1272 C1273 1.399 . S
C1273 H1259 0.929 . S
C1273 C1272 1.399 . S
C1273 C1274 1.385 . S
C1274 H1260 0.931 . S
C1274 C1273 1.385 . S
C1274 C1275 1.389 . S
C1275 C1274 1.389 . S
C1275 C1276 1.387 . S
C1276 H1261 0.930 . S
C1276 C1271 1.390 . S
C1276 C1275 1.387 . S
H1277 C1289 0.930 . S
H1278 C1291 0.930 . S
H1279 C1292 0.930 . S
H1280 C1296 0.959 . S
H1281 C1296 0.959 . S
H1282 C1296 0.961 . S
H1283 C1297 0.960 . S
H1284 C1297 0.961 . S
H1285 C1297 0.959 . S
H1286 C1300 0.929 . S
H1287 C1301 0.931 . S
H1288 C1303 0.930 . S
C1289 H1277 0.930 . S
C1289 C1290 1.399 . S
C1289 C1294 1.399 . S
C1290 C1289 1.399 . S
C1290 C1291 1.376 . S
C1291 H1278 0.930 . S
C1291 C1290 1.376 . S
C1291 C1292 1.388 . S
C1292 H1279 0.930 . S
C1292 C1291 1.388 . S
C1292 C1293 1.390 . S
C1293 C1292 1.390 . S
C1293 C1294 1.394 . S
C1293 C1299 1.465 . S
C1294 C1289 1.399 . S
C1294 C1293 1.394 . S
C1294 C1295 1.516 . S
C1295 C1294 1.516 . S
C1295 C1296 1.502 . S
C1295 C1297 1.561 . S
C1295 C1298 1.526 . S
C1296 H1280 0.959 . S
C1296 H1281 0.959 . S
C1296 H1282 0.961 . S
C1296 C1295 1.502 . S
C1297 H1283 0.960 . S
C1297 H1284 0.961 . S
C1297 H1285 0.959 . S
C1297 C1295 1.561 . S
C1298 C1295 1.526 . S
C1298 C1299 1.396 . S
C1298 C1303 1.390 . S
C1299 C1293 1.465 . S
C1299 C1298 1.396 . S
C1299 C1300 1.399 . S
C1300 H1286 0.929 . S
C1300 C1299 1.399 . S
C1300 C1301 1.385 . S
C1301 H1287 0.931 . S
C1301 C1300 1.385 . S
C1301 C1302 1.389 . S
C1302 C1301 1.389 . S
C1302 C1303 1.387 . S
C1303 H1288 0.930 . S
C1303 C1298 1.390 . S
C1303 C1302 1.387 . S
H1304 C1316 0.930 . S
H1305 C1318 0.930 . S
H1306 C1319 0.930 . S
H1307 C1323 0.959 . S
H1308 C1323 0.959 . S
H1309 C1323 0.961 . S
H1310 C1324 0.960 . S
H1311 C1324 0.961 . S
H1312 C1324 0.959 . S
H1313 C1327 0.929 . S
H1314 C1328 0.931 . S
H1315 C1330 0.930 . S
C1316 H1304 0.930 . S
C1316 C1317 1.399 . S
C1316 C1321 1.399 . S
C1317 C1316 1.399 . S
C1317 C1318 1.376 . S
C1318 H1305 0.930 . S
C1318 C1317 1.376 . S
C1318 C1319 1.388 . S
C1319 H1306 0.930 . S
C1319 C1318 1.388 . S
C1319 C1320 1.390 . S
C1320 C1319 1.390 . S
C1320 C1321 1.394 . S
C1320 C1326 1.465 . S
C1321 C1316 1.399 . S
C1321 C1320 1.394 . S
C1321 C1322 1.516 . S
C1322 C1321 1.516 . S
C1322 C1323 1.502 . S
C1322 C1324 1.561 . S
C1322 C1325 1.526 . S
C1323 H1307 0.959 . S
C1323 H1308 0.959 . S
C1323 H1309 0.961 . S
C1323 C1322 1.502 . S
C1324 H1310 0.960 . S
C1324 H1311 0.961 . S
C1324 H1312 0.959 . S
C1324 C1322 1.561 . S
C1325 C1322 1.526 . S
C1325 C1326 1.396 . S
C1325 C1330 1.390 . S
C1326 C1320 1.465 . S
C1326 C1325 1.396 . S
C1326 C1327 1.399 . S
C1327 H1313 0.929 . S
C1327 C1326 1.399 . S
C1327 C1328 1.385 . S
C1328 H1314 0.931 . S
C1328 C1327 1.385 . S
C1328 C1329 1.389 . S
C1329 C1328 1.389 . S
C1329 C1330 1.387 . S
C1330 H1315 0.930 . S
C1330 C1325 1.390 . S
C1330 C1329 1.387 . S
H1331 C1343 0.930 . S
H1332 C1345 0.930 . S
H1333 C1346 0.930 . S
H1334 C1350 0.959 . S
H1335 C1350 0.959 . S
H1336 C1350 0.961 . S
H1337 C1351 0.960 . S
H1338 C1351 0.961 . S
H1339 C1351 0.959 . S
H1340 C1354 0.929 . S
H1341 C1355 0.931 . S
H1342 C1357 0.930 . S
C1343 H1331 0.930 . S
C1343 C1344 1.399 . S
C1343 C1348 1.399 . S
C1344 C1343 1.399 . S
C1344 C1345 1.376 . S
C1345 H1332 0.930 . S
C1345 C1344 1.376 . S
C1345 C1346 1.388 . S
C1346 H1333 0.930 . S
C1346 C1345 1.388 . S
C1346 C1347 1.390 . S
C1347 C1346 1.390 . S
C1347 C1348 1.394 . S
C1347 C1353 1.465 . S
C1348 C1343 1.399 . S
C1348 C1347 1.394 . S
C1348 C1349 1.516 . S
C1349 C1348 1.516 . S
C1349 C1350 1.502 . S
C1349 C1351 1.561 . S
C1349 C1352 1.526 . S
C1350 H1334 0.959 . S
C1350 H1335 0.959 . S
C1350 H1336 0.961 . S
C1350 C1349 1.502 . S
C1351 H1337 0.960 . S
C1351 H1338 0.961 . S
C1351 H1339 0.959 . S
C1351 C1349 1.561 . S
C1352 C1349 1.526 . S
C1352 C1353 1.396 . S
C1352 C1357 1.390 . S
C1353 C1347 1.465 . S
C1353 C1352 1.396 . S
C1353 C1354 1.399 . S
C1354 H1340 0.929 . S
C1354 C1353 1.399 . S
C1354 C1355 1.385 . S
C1355 H1341 0.931 . S
C1355 C1354 1.385 . S
C1355 C1356 1.389 . S
C1356 C1355 1.389 . S
C1356 C1357 1.387 . S
C1357 H1342 0.930 . S
C1357 C1352 1.390 . S
C1357 C1356 1.387 . S
H1358 C1370 0.930 . S
H1359 C1372 0.930 . S
H1360 C1373 0.930 . S
H1361 C1377 0.959 . S
H1362 C1377 0.959 . S
H1363 C1377 0.961 . S
H1364 C1378 0.960 . S
H1365 C1378 0.961 . S
H1366 C1378 0.959 . S
H1367 C1381 0.929 . S
H1368 C1382 0.931 . S
H1369 C1384 0.930 . S
C1370 H1358 0.930 . S
C1370 C1371 1.399 . S
C1370 C1375 1.399 . S
C1371 C1370 1.399 . S
C1371 C1372 1.376 . S
C1372 H1359 0.930 . S
C1372 C1371 1.376 . S
C1372 C1373 1.388 . S
C1373 H1360 0.930 . S
C1373 C1372 1.388 . S
C1373 C1374 1.390 . S
C1374 C1373 1.390 . S
C1374 C1375 1.394 . S
C1374 C1380 1.465 . S
C1375 C1370 1.399 . S
C1375 C1374 1.394 . S
C1375 C1376 1.516 . S
C1376 C1375 1.516 . S
C1376 C1377 1.502 . S
C1376 C1378 1.561 . S
C1376 C1379 1.526 . S
C1377 H1361 0.959 . S
C1377 H1362 0.959 . S
C1377 H1363 0.961 . S
C1377 C1376 1.502 . S
C1378 H1364 0.960 . S
C1378 H1365 0.961 . S
C1378 H1366 0.959 . S
C1378 C1376 1.561 . S
C1379 C1376 1.526 . S
C1379 C1380 1.396 . S
C1379 C1384 1.390 . S
C1380 C1374 1.465 . S
C1380 C1379 1.396 . S
C1380 C1381 1.399 . S
C1381 H1367 0.929 . S
C1381 C1380 1.399 . S
C1381 C1382 1.385 . S
C1382 H1368 0.931 . S
C1382 C1381 1.385 . S
C1382 C1383 1.389 . S
C1383 C1382 1.389 . S
C1383 C1384 1.387 . S
C1384 H1369 0.930 . S
C1384 C1379 1.390 . S
C1384 C1383 1.387 . S
H1385 C1397 0.930 . S
H1386 C1399 0.930 . S
H1387 C1400 0.930 . S
H1388 C1404 0.959 . S
H1389 C1404 0.959 . S
H1390 C1404 0.961 . S
H1391 C1405 0.960 . S
H1392 C1405 0.961 . S
H1393 C1405 0.959 . S
H1394 C1408 0.929 . S
H1395 C1409 0.931 . S
H1396 C1411 0.930 . S
C1397 H1385 0.930 . S
C1397 C1398 1.399 . S
C1397 C1402 1.399 . S
C1398 C1397 1.399 . S
C1398 C1399 1.376 . S
C1399 H1386 0.930 . S
C1399 C1398 1.376 . S
C1399 C1400 1.388 . S
C1400 H1387 0.930 . S
C1400 C1399 1.388 . S
C1400 C1401 1.390 . S
C1401 C1400 1.390 . S
C1401 C1402 1.394 . S
C1401 C1407 1.465 . S
C1402 C1397 1.399 . S
C1402 C1401 1.394 . S
C1402 C1403 1.516 . S
C1403 C1402 1.516 . S
C1403 C1404 1.502 . S
C1403 C1405 1.561 . S
C1403 C1406 1.526 . S
C1404 H1388 0.959 . S
C1404 H1389 0.959 . S
C1404 H1390 0.961 . S
C1404 C1403 1.502 . S
C1405 H1391 0.960 . S
C1405 H1392 0.961 . S
C1405 H1393 0.959 . S
C1405 C1403 1.561 . S
C1406 C1403 1.526 . S
C1406 C1407 1.396 . S
C1406 C1411 1.390 . S
C1407 C1401 1.465 . S
C1407 C1406 1.396 . S
C1407 C1408 1.399 . S
C1408 H1394 0.929 . S
C1408 C1407 1.399 . S
C1408 C1409 1.385 . S
C1409 H1395 0.931 . S
C1409 C1408 1.385 . S
C1409 C1410 1.389 . S
C1410 C1409 1.389 . S
C1410 C1411 1.387 . S
C1411 H1396 0.930 . S
C1411 C1406 1.390 . S
C1411 C1410 1.387 . S
H1412 C1424 0.930 . S
H1413 C1426 0.930 . S
H1414 C1427 0.930 . S
H1415 C1431 0.959 . S
H1416 C1431 0.959 1_556 S
H1417 C1431 0.961 1_556 S
H1418 C1432 0.960 1_556 S
H1419 C1432 0.961 1_556 S
H1420 C1432 0.959 . S
H1421 C1435 0.929 . S
H1422 C1436 0.931 . S
H1423 C1438 0.930 . S
C1424 H1412 0.930 . S
C1424 C1425 1.399 . S
C1424 C1429 1.399 . S
C1425 C1424 1.399 . S
C1425 C1426 1.376 . S
C1426 H1413 0.930 . S
C1426 C1425 1.376 . S
C1426 C1427 1.388 . S
C1427 H1414 0.930 . S
C1427 C1426 1.388 . S
C1427 C1428 1.390 . S
C1428 C1427 1.390 . S
C1428 C1429 1.394 . S
C1428 C1434 1.465 . S
C1429 C1424 1.399 . S
C1429 C1428 1.394 . S
C1429 C1430 1.516 . S
C1430 C1429 1.516 . S
C1430 C1431 1.502 . S
C1430 C1432 1.561 . S
C1430 C1433 1.526 . S
C1431 H1415 0.959 . S
C1431 H1416 0.959 1_554 S
C1431 H1417 0.961 1_554 S
C1431 C1430 1.502 . S
C1432 H1418 0.960 1_554 S
C1432 H1419 0.961 1_554 S
C1432 H1420 0.959 . S
C1432 C1430 1.561 . S
C1433 C1430 1.526 . S
C1433 C1434 1.396 . S
C1433 C1438 1.390 . S
C1434 C1428 1.465 . S
C1434 C1433 1.396 . S
C1434 C1435 1.399 . S
C1435 H1421 0.929 . S
C1435 C1434 1.399 . S
C1435 C1436 1.385 . S
C1436 H1422 0.931 . S
C1436 C1435 1.385 . S
C1436 C1437 1.389 . S
C1437 C1436 1.389 . S
C1437 C1438 1.387 . S
C1438 H1423 0.930 . S
C1438 C1433 1.390 . S
C1438 C1437 1.387 . S
H1439 C1451 0.930 . S
H1440 C1453 0.930 . S
H1441 C1454 0.930 . S
H1442 C1458 0.959 . S
H1443 C1458 0.959 . S
H1444 C1458 0.961 . S
H1445 C1459 0.960 . S
H1446 C1459 0.961 . S
H1447 C1459 0.959 . S
H1448 C1462 0.929 . S
H1449 C1463 0.931 . S
H1450 C1465 0.930 . S
C1451 H1439 0.930 . S
C1451 C1452 1.399 . S
C1451 C1456 1.399 . S
C1452 C1451 1.399 . S
C1452 C1453 1.376 . S
C1453 H1440 0.930 . S
C1453 C1452 1.376 . S
C1453 C1454 1.388 . S
C1454 H1441 0.930 . S
C1454 C1453 1.388 . S
C1454 C1455 1.390 . S
C1455 C1454 1.390 . S
C1455 C1456 1.394 . S
C1455 C1461 1.465 . S
C1456 C1451 1.399 . S
C1456 C1455 1.394 . S
C1456 C1457 1.516 . S
C1457 C1456 1.516 . S
C1457 C1458 1.502 . S
C1457 C1459 1.561 . S
C1457 C1460 1.526 . S
C1458 H1442 0.959 . S
C1458 H1443 0.959 . S
C1458 H1444 0.961 . S
C1458 C1457 1.502 . S
C1459 H1445 0.960 . S
C1459 H1446 0.961 . S
C1459 H1447 0.959 . S
C1459 C1457 1.561 . S
C1460 C1457 1.526 . S
C1460 C1461 1.396 . S
C1460 C1465 1.390 . S
C1461 C1455 1.465 . S
C1461 C1460 1.396 . S
C1461 C1462 1.399 . S
C1462 H1448 0.929 . S
C1462 C1461 1.399 . S
C1462 C1463 1.385 . S
C1463 H1449 0.931 . S
C1463 C1462 1.385 . S
C1463 C1464 1.389 . S
C1464 C1463 1.389 . S
C1464 C1465 1.387 . S
C1465 H1450 0.930 . S
C1465 C1460 1.390 . S
C1465 C1464 1.387 . S
H1466 C1478 0.930 . S
H1467 C1480 0.930 . S
H1468 C1481 0.930 . S
H1469 C1485 0.959 . S
H1470 C1485 0.959 . S
H1471 C1485 0.961 . S
H1472 C1486 0.960 . S
H1473 C1486 0.961 . S
H1474 C1486 0.959 1_556 S
H1475 C1489 0.929 . S
H1476 C1490 0.931 . S
H1477 C1492 0.930 . S
C1478 H1466 0.930 . S
C1478 C1479 1.399 . S
C1478 C1483 1.399 . S
C1479 C1478 1.399 . S
C1479 C1480 1.376 . S
C1480 H1467 0.930 . S
C1480 C1479 1.376 . S
C1480 C1481 1.388 . S
C1481 H1468 0.930 . S
C1481 C1480 1.388 . S
C1481 C1482 1.390 . S
C1482 C1481 1.390 . S
C1482 C1483 1.394 . S
C1482 C1488 1.465 . S
C1483 C1478 1.399 . S
C1483 C1482 1.394 . S
C1483 C1484 1.516 . S
C1484 C1483 1.516 . S
C1484 C1485 1.502 . S
C1484 C1486 1.561 1_556 S
C1484 C1487 1.526 . S
C1485 H1469 0.959 . S
C1485 H1470 0.959 . S
C1485 H1471 0.961 . S
C1485 C1484 1.502 . S
C1486 H1472 0.960 . S
C1486 H1473 0.961 . S
C1486 H1474 0.959 1_554 S
C1486 C1484 1.561 1_554 S
C1487 C1484 1.526 . S
C1487 C1488 1.396 . S
C1487 C1492 1.390 . S
C1488 C1482 1.465 . S
C1488 C1487 1.396 . S
C1488 C1489 1.399 . S
C1489 H1475 0.929 . S
C1489 C1488 1.399 . S
C1489 C1490 1.385 . S
C1490 H1476 0.931 . S
C1490 C1489 1.385 . S
C1490 C1491 1.389 . S
C1491 C1490 1.389 . S
C1491 C1492 1.387 . S
C1492 H1477 0.930 . S
C1492 C1487 1.390 . S
C1492 C1491 1.387 . S
H1493 C1505 0.930 . S
H1494 C1507 0.930 . S
H1495 C1508 0.930 . S
H1496 C1512 0.959 . S
H1497 C1512 0.959 . S
H1498 C1512 0.961 . S
H1499 C1513 0.969 . S
H1500 C1513 0.971 . S
H1501 C1513 0.954 1_556 S
H1502 C1516 0.929 . S
H1503 C1517 0.931 . S
H1504 C1519 0.930 . S
C1505 H1493 0.930 . S
C1505 C1506 1.399 . S
C1505 C1510 1.399 . S
C1506 C1505 1.399 . S
C1506 C1507 1.376 . S
C1507 H1494 0.930 . S
C1507 C1506 1.376 . S
C1507 C1508 1.388 . S
C1508 H1495 0.930 . S
C1508 C1507 1.388 . S
C1508 C1509 1.390 . S
C1509 C1508 1.390 . S
C1509 C1510 1.394 . S
C1509 C1515 1.465 . S
C1510 C1505 1.399 . S
C1510 C1509 1.394 . S
C1510 C1511 1.516 . S
C1511 C1510 1.516 . S
C1511 C1512 1.502 . S
C1511 C1513 1.548 1_556 S
C1511 C1514 1.526 . S
C1512 H1496 0.959 . S
C1512 H1497 0.959 . S
C1512 H1498 0.961 . S
C1512 C1511 1.502 . S
C1513 H1499 0.969 . S
C1513 H1500 0.971 . S
C1513 H1501 0.954 1_554 S
C1513 C1511 1.548 1_554 S
C1514 C1511 1.526 . S
C1514 C1515 1.396 . S
C1514 C1519 1.390 . S
C1515 C1509 1.465 . S
C1515 C1514 1.396 . S
C1515 C1516 1.399 . S
C1516 H1502 0.929 . S
C1516 C1515 1.399 . S
C1516 C1517 1.385 . S
C1517 H1503 0.931 . S
C1517 C1516 1.385 . S
C1517 C1518 1.389 . S
C1518 C1517 1.389 . S
C1518 C1519 1.387 . S
C1519 H1504 0.930 . S
C1519 C1514 1.390 . S
C1519 C1518 1.387 . S
H1520 C1532 0.930 . S
H1521 C1534 0.930 . S
H1522 C1535 0.930 . S
H1523 C1539 0.959 . S
H1524 C1539 0.959 1_655 S
H1525 C1539 0.961 . S
H1526 C1540 0.906 1_455 S
H1527 C1540 1.005 . S
H1528 C1540 0.982 . S
H1529 C1543 0.929 . S
H1530 C1544 0.931 . S
H1531 C1546 0.930 . S
C1532 H1520 0.930 . S
C1532 C1533 1.399 1_556 S
C1532 C1537 1.399 . S
C1533 C1532 1.399 1_554 S
C1533 C1534 1.376 . S
C1534 H1521 0.930 . S
C1534 C1533 1.376 . S
C1534 C1535 1.388 . S
C1535 H1522 0.930 . S
C1535 C1534 1.388 . S
C1535 C1536 1.390 . S
C1536 C1535 1.390 . S
C1536 C1537 1.394 1_554 S
C1536 C1542 1.465 1_455 S
C1537 C1532 1.399 . S
C1537 C1536 1.394 1_556 S
C1537 C1538 1.609 . S
C1538 C1537 1.609 . S
C1538 C1539 1.537 . S
C1538 C1540 1.545 1_455 S
C1538 C1541 1.421 1_455 S
C1539 H1523 0.959 . S
C1539 H1524 0.959 1_455 S
C1539 H1525 0.961 . S
C1539 C1538 1.537 . S
C1540 H1526 0.906 1_655 S
C1540 H1527 1.005 . S
C1540 H1528 0.982 . S
C1540 C1538 1.545 1_655 S
C1541 C1538 1.421 1_655 S
C1541 C1542 1.396 1_556 S
C1541 C1546 1.390 . S
C1542 C1536 1.465 1_655 S
C1542 C1541 1.396 1_554 S
C1542 C1543 1.399 . S
C1543 H1529 0.929 . S
C1543 C1542 1.399 . S
C1543 C1544 1.385 . S
C1544 H1530 0.931 . S
C1544 C1543 1.385 . S
C1544 C1545 1.389 1_554 S
C1545 C1544 1.389 1_556 S
C1545 C1546 1.387 . S
C1546 H1531 0.930 . S
C1546 C1541 1.390 . S
C1546 C1545 1.387 . S
H1547 C1559 0.930 . S
H1548 C1561 0.930 . S
H1549 C1562 0.930 . S
H1550 C1566 0.959 . S
H1551 C1566 0.959 . S
H1552 C1566 0.961 . S
H1553 C1567 0.960 . S
H1554 C1567 0.961 . S
H1555 C1567 0.959 . S
H1556 C1570 0.929 . S
H1557 C1571 0.931 . S
H1558 C1573 0.930 . S
C1559 H1547 0.930 . S
C1559 C1560 1.399 . S
C1559 C1564 1.399 . S
C1560 C1559 1.399 . S
C1560 C1561 1.376 . S
C1561 H1548 0.930 . S
C1561 C1560 1.376 . S
C1561 C1562 1.388 . S
C1562 H1549 0.930 . S
C1562 C1561 1.388 . S
C1562 C1563 1.390 . S
C1563 C1562 1.390 . S
C1563 C1564 1.394 . S
C1563 C1569 1.465 1_554 S
C1564 C1559 1.399 . S
C1564 C1563 1.394 . S
C1564 C1565 1.516 . S
C1565 C1564 1.516 . S
C1565 C1566 1.502 1_554 S
C1565 C1567 1.561 . S
C1565 C1568 1.526 1_554 S
C1566 H1550 0.959 . S
C1566 H1551 0.959 . S
C1566 H1552 0.961 . S
C1566 C1565 1.502 1_556 S
C1567 H1553 0.960 . S
C1567 H1554 0.961 . S
C1567 H1555 0.959 . S
C1567 C1565 1.561 . S
C1568 C1565 1.526 1_556 S
C1568 C1569 1.396 . S
C1568 C1573 1.390 . S
C1569 C1563 1.465 1_556 S
C1569 C1568 1.396 . S
C1569 C1570 1.399 . S
C1570 H1556 0.929 . S
C1570 C1569 1.399 . S
C1570 C1571 1.385 . S
C1571 H1557 0.931 . S
C1571 C1570 1.385 . S
C1571 C1572 1.389 . S
C1572 C1571 1.389 . S
C1572 C1573 1.387 . S
C1573 H1558 0.930 . S
C1573 C1568 1.390 . S
C1573 C1572 1.387 . S
H1574 C1586 0.930 . S
H1575 C1588 0.930 . S
H1576 C1589 0.930 . S
H1577 C1593 0.959 . S
H1578 C1593 0.959 . S
H1579 C1593 0.961 1_655 S
H1580 C1594 0.960 . S
H1581 C1594 0.961 1_455 S
H1582 C1594 0.959 . S
H1583 C1597 0.929 . S
H1584 C1598 0.931 . S
H1585 C1600 0.930 . S
C1586 H1574 0.930 . S
C1586 C1587 1.399 . S
C1586 C1591 1.399 . S
C1587 C1586 1.399 . S
C1587 C1588 1.376 . S
C1588 H1575 0.930 . S
C1588 C1587 1.376 . S
C1588 C1589 1.388 . S
C1589 H1576 0.930 . S
C1589 C1588 1.388 . S
C1589 C1590 1.390 . S
C1590 C1589 1.390 . S
C1590 C1591 1.394 . S
C1590 C1596 1.465 1_655 S
C1591 C1586 1.399 . S
C1591 C1590 1.394 . S
C1591 C1592 1.533 . S
C1592 C1591 1.533 . S
C1592 C1593 1.497 1_655 S
C1592 C1594 1.566 . S
C1592 C1595 1.509 1_655 S
C1593 H1577 0.959 . S
C1593 H1578 0.959 . S
C1593 H1579 0.961 1_455 S
C1593 C1592 1.497 1_455 S
C1594 H1580 0.960 . S
C1594 H1581 0.961 1_655 S
C1594 H1582 0.959 . S
C1594 C1592 1.566 . S
C1595 C1592 1.509 1_455 S
C1595 C1596 1.396 . S
C1595 C1600 1.390 . S
C1596 C1590 1.465 1_455 S
C1596 C1595 1.396 . S
C1596 C1597 1.399 . S
C1597 H1583 0.929 . S
C1597 C1596 1.399 . S
C1597 C1598 1.385 . S
C1598 H1584 0.931 . S
C1598 C1597 1.385 . S
C1598 C1599 1.389 . S
C1599 C1598 1.389 . S
C1599 C1600 1.387 . S
C1600 H1585 0.930 . S
C1600 C1595 1.390 . S
C1600 C1599 1.387 . S
H1601 C1613 0.930 . S
H1602 C1615 0.930 . S
H1603 C1616 0.930 . S
H1604 C1620 0.959 . S
H1605 C1620 0.959 . S
H1606 C1620 0.961 . S
H1607 C1621 0.960 . S
H1608 C1621 0.961 . S
H1609 C1621 0.959 . S
H1610 C1624 0.929 . S
H1611 C1625 0.931 . S
H1612 C1627 0.930 . S
C1613 H1601 0.930 . S
C1613 C1614 1.399 . S
C1613 C1618 1.399 . S
C1614 C1613 1.399 . S
C1614 C1615 1.376 . S
C1615 H1602 0.930 . S
C1615 C1614 1.376 . S
C1615 C1616 1.388 . S
C1616 H1603 0.930 . S
C1616 C1615 1.388 . S
C1616 C1617 1.390 . S
C1617 C1616 1.390 . S
C1617 C1618 1.394 . S
C1617 C1623 1.465 . S
C1618 C1613 1.399 . S
C1618 C1617 1.394 . S
C1618 C1619 1.516 . S
C1619 C1618 1.516 . S
C1619 C1620 1.502 . S
C1619 C1621 1.561 . S
C1619 C1622 1.526 . S
C1620 H1604 0.959 . S
C1620 H1605 0.959 . S
C1620 H1606 0.961 . S
C1620 C1619 1.502 . S
C1621 H1607 0.960 . S
C1621 H1608 0.961 . S
C1621 H1609 0.959 . S
C1621 C1619 1.561 . S
C1622 C1619 1.526 . S
C1622 C1623 1.396 . S
C1622 C1627 1.390 . S
C1623 C1617 1.465 . S
C1623 C1622 1.396 . S
C1623 C1624 1.399 . S
C1624 H1610 0.929 . S
C1624 C1623 1.399 . S
C1624 C1625 1.385 . S
C1625 H1611 0.931 . S
C1625 C1624 1.385 . S
C1625 C1626 1.389 . S
C1626 C1625 1.389 . S
C1626 C1627 1.387 . S
C1627 H1612 0.930 . S
C1627 C1622 1.390 . S
C1627 C1626 1.387 . S
H1628 C1640 0.930 . S
H1629 C1642 0.930 . S
H1630 C1643 0.930 . S
H1631 C1647 0.959 . S
H1632 C1647 0.959 . S
H1633 C1647 0.961 . S
H1634 C1648 0.960 . S
H1635 C1648 0.961 . S
H1636 C1648 0.959 . S
H1637 C1651 0.929 . S
H1638 C1652 0.931 . S
H1639 C1654 0.930 . S
C1640 H1628 0.930 . S
C1640 C1641 1.399 . S
C1640 C1645 1.399 . S
C1641 C1640 1.399 . S
C1641 C1642 1.376 . S
C1642 H1629 0.930 . S
C1642 C1641 1.376 . S
C1642 C1643 1.388 . S
C1643 H1630 0.930 . S
C1643 C1642 1.388 . S
C1643 C1644 1.390 . S
C1644 C1643 1.390 . S
C1644 C1645 1.394 . S
C1644 C1650 1.465 1_556 S
C1645 C1640 1.399 . S
C1645 C1644 1.394 . S
C1645 C1646 1.516 . S
C1646 C1645 1.516 . S
C1646 C1647 1.502 1_556 S
C1646 C1648 1.561 . S
C1646 C1649 1.521 1_556 S
C1647 H1631 0.959 . S
C1647 H1632 0.959 . S
C1647 H1633 0.961 . S
C1647 C1646 1.502 1_554 S
C1648 H1634 0.960 . S
C1648 H1635 0.961 . S
C1648 H1636 0.959 . S
C1648 C1646 1.561 . S
C1649 C1646 1.521 1_554 S
C1649 C1650 1.397 . S
C1649 C1654 1.393 . S
C1650 C1644 1.465 1_554 S
C1650 C1649 1.397 . S
C1650 C1651 1.399 . S
C1651 H1637 0.929 . S
C1651 C1650 1.399 . S
C1651 C1652 1.385 . S
C1652 H1638 0.931 . S
C1652 C1651 1.385 . S
C1652 C1653 1.389 . S
C1653 C1652 1.389 . S
C1653 C1654 1.387 . S
C1654 H1639 0.930 . S
C1654 C1649 1.393 . S
C1654 C1653 1.387 . S
H1655 C1667 0.930 . S
H1656 C1669 0.930 . S
H1657 C1670 0.930 . S
H1658 C1674 0.959 . S
H1659 C1674 0.959 . S
H1660 C1674 0.961 1_455 S
H1661 C1675 0.960 . S
H1662 C1675 0.961 1_655 S
H1663 C1675 0.959 . S
H1664 C1678 0.929 . S
H1665 C1679 0.931 . S
H1666 C1681 0.930 . S
C1667 H1655 0.930 . S
C1667 C1668 1.399 . S
C1667 C1672 1.399 . S
C1668 C1667 1.399 . S
C1668 C1669 1.376 . S
C1669 H1656 0.930 . S
C1669 C1668 1.376 . S
C1669 C1670 1.388 . S
C1670 H1657 0.930 . S
C1670 C1669 1.388 . S
C1670 C1671 1.390 . S
C1671 C1670 1.390 . S
C1671 C1672 1.394 . S
C1671 C1677 1.465 1_455 S
C1672 C1667 1.399 . S
C1672 C1671 1.394 . S
C1672 C1673 1.522 1_455 S
C1673 C1672 1.522 1_655 S
C1673 C1674 1.500 . S
C1673 C1675 1.563 1_655 S
C1673 C1676 1.520 . S
C1674 H1658 0.959 . S
C1674 H1659 0.959 . S
C1674 H1660 0.961 1_655 S
C1674 C1673 1.500 . S
C1675 H1661 0.960 . S
C1675 H1662 0.961 1_455 S
C1675 H1663 0.959 . S
C1675 C1673 1.563 1_455 S
C1676 C1673 1.520 . S
C1676 C1677 1.396 . S
C1676 C1681 1.390 . S
C1677 C1671 1.465 1_655 S
C1677 C1676 1.396 . S
C1677 C1678 1.399 . S
C1678 H1664 0.929 . S
C1678 C1677 1.399 . S
C1678 C1679 1.385 . S
C1679 H1665 0.931 . S
C1679 C1678 1.385 . S
C1679 C1680 1.389 . S
C1680 C1679 1.389 . S
C1680 C1681 1.387 . S
C1681 H1666 0.930 . S
C1681 C1676 1.390 . S
C1681 C1680 1.387 . S
H1682 C1694 0.930 . S
H1683 C1696 0.930 . S
H1684 C1697 0.930 . S
H1685 C1701 0.959 . S
H1686 C1701 0.959 . S
H1687 C1701 0.961 . S
H1688 C1702 0.960 . S
H1689 C1702 0.961 . S
H1690 C1702 0.959 . S
H1691 C1705 0.929 . S
H1692 C1706 0.931 . S
H1693 C1708 0.930 . S
C1694 H1682 0.930 . S
C1694 C1695 1.399 . S
C1694 C1699 1.399 . S
C1695 C1694 1.399 . S
C1695 C1696 1.376 . S
C1696 H1683 0.930 . S
C1696 C1695 1.376 . S
C1696 C1697 1.388 . S
C1697 H1684 0.930 . S
C1697 C1696 1.388 . S
C1697 C1698 1.390 . S
C1698 C1697 1.390 . S
C1698 C1699 1.394 . S
C1698 C1704 1.465 . S
C1699 C1694 1.399 . S
C1699 C1698 1.394 . S
C1699 C1700 1.516 . S
C1700 C1699 1.516 . S
C1700 C1701 1.502 . S
C1700 C1702 1.561 . S
C1700 C1703 1.526 . S
C1701 H1685 0.959 . S
C1701 H1686 0.959 . S
C1701 H1687 0.961 . S
C1701 C1700 1.502 . S
C1702 H1688 0.960 . S
C1702 H1689 0.961 . S
C1702 H1690 0.959 . S
C1702 C1700 1.561 . S
C1703 C1700 1.526 . S
C1703 C1704 1.396 . S
C1703 C1708 1.390 . S
C1704 C1698 1.465 . S
C1704 C1703 1.396 . S
C1704 C1705 1.399 . S
C1705 H1691 0.929 . S
C1705 C1704 1.399 . S
C1705 C1706 1.385 . S
C1706 H1692 0.931 . S
C1706 C1705 1.385 . S
C1706 C1707 1.389 . S
C1707 C1706 1.389 . S
C1707 C1708 1.387 . S
C1708 H1693 0.930 . S
C1708 C1703 1.390 . S
C1708 C1707 1.387 . S
H1709 C1721 0.930 . S
H1710 C1723 0.930 . S
H1711 C1724 0.930 . S
H1712 C1728 0.929 1_655 S
H1713 C1728 0.892 1_655 S
H1714 C1728 1.060 . S
H1715 C1729 0.960 . S
H1716 C1729 0.954 . S
H1717 C1729 0.959 . S
H1718 C1732 0.929 . S
H1719 C1733 0.931 . S
H1720 C1735 0.930 . S
C1721 H1709 0.930 . S
C1721 C1722 1.399 1_545 S
C1721 C1726 1.399 . S
C1722 C1721 1.399 1_565 S
C1722 C1723 1.376 . S
C1723 H1710 0.930 . S
C1723 C1722 1.376 . S
C1723 C1724 1.388 . S
C1724 H1711 0.930 . S
C1724 C1723 1.388 . S
C1724 C1725 1.390 . S
C1725 C1724 1.390 . S
C1725 C1726 1.394 1_565 S
C1725 C1731 1.465 1_455 S
C1726 C1721 1.399 . S
C1726 C1725 1.394 1_545 S
C1726 C1727 1.516 . S
C1727 C1726 1.516 . S
C1727 C1728 1.514 . S
C1727 C1729 1.561 . S
C1727 C1730 1.526 1_455 S
C1728 H1712 0.929 1_455 S
C1728 H1713 0.892 1_455 S
C1728 H1714 1.060 . S
C1728 C1727 1.514 . S
C1729 H1715 0.960 . S
C1729 H1716 0.954 . S
C1729 H1717 0.959 . S
C1729 C1727 1.561 . S
C1730 C1727 1.526 1_655 S
C1730 C1731 1.396 1_545 S
C1730 C1735 1.390 . S
C1731 C1725 1.465 1_655 S
C1731 C1730 1.396 1_565 S
C1731 C1732 1.399 . S
C1732 H1718 0.929 . S
C1732 C1731 1.399 . S
C1732 C1733 1.385 . S
C1733 H1719 0.931 . S
C1733 C1732 1.385 . S
C1733 C1734 1.389 1_565 S
C1734 C1733 1.389 1_545 S
C1734 C1735 1.387 . S
C1735 H1720 0.930 . S
C1735 C1730 1.390 . S
C1735 C1734 1.387 . S
H1736 C1748 0.930 . S
H1737 C1750 0.930 . S
H1738 C1751 0.930 . S
H1739 C1755 0.959 . S
H1740 C1755 0.959 . S
H1741 C1755 0.961 . S
H1742 C1756 0.960 . S
H1743 C1756 0.961 . S
H1744 C1756 0.959 . S
H1745 C1759 0.929 . S
H1746 C1760 0.931 . S
H1747 C1762 0.930 . S
C1748 H1736 0.930 . S
C1748 C1749 1.399 . S
C1748 C1753 1.399 . S
C1749 C1748 1.399 . S
C1749 C1750 1.376 . S
C1750 H1737 0.930 . S
C1750 C1749 1.376 . S
C1750 C1751 1.388 . S
C1751 H1738 0.930 . S
C1751 C1750 1.388 . S
C1751 C1752 1.390 . S
C1752 C1751 1.390 . S
C1752 C1753 1.394 . S
C1752 C1758 1.465 . S
C1753 C1748 1.399 . S
C1753 C1752 1.394 . S
C1753 C1754 1.516 . S
C1754 C1753 1.516 . S
C1754 C1755 1.502 . S
C1754 C1756 1.561 . S
C1754 C1757 1.526 . S
C1755 H1739 0.959 . S
C1755 H1740 0.959 . S
C1755 H1741 0.961 . S
C1755 C1754 1.502 . S
C1756 H1742 0.960 . S
C1756 H1743 0.961 . S
C1756 H1744 0.959 . S
C1756 C1754 1.561 . S
C1757 C1754 1.526 . S
C1757 C1758 1.396 . S
C1757 C1762 1.390 . S
C1758 C1752 1.465 . S
C1758 C1757 1.396 . S
C1758 C1759 1.399 . S
C1759 H1745 0.929 . S
C1759 C1758 1.399 . S
C1759 C1760 1.385 . S
C1760 H1746 0.931 . S
C1760 C1759 1.385 . S
C1760 C1761 1.389 . S
C1761 C1760 1.389 . S
C1761 C1762 1.387 . S
C1762 H1747 0.930 . S
C1762 C1757 1.390 . S
C1762 C1761 1.387 . S
H1763 C1775 0.930 . S
H1764 C1777 0.930 . S
H1765 C1778 0.930 . S
H1766 C1782 0.959 . S
H1767 C1782 0.959 . S
H1768 C1782 0.961 . S
H1769 C1783 0.960 . S
H1770 C1783 0.961 . S
H1771 C1783 0.957 . S
H1772 C1786 0.929 . S
H1773 C1787 0.931 . S
H1774 C1789 0.930 . S
C1775 H1763 0.930 . S
C1775 C1776 1.399 . S
C1775 C1780 1.399 . S
C1776 C1775 1.399 . S
C1776 C1777 1.376 1_545 S
C1777 H1764 0.930 . S
C1777 C1776 1.376 1_565 S
C1777 C1778 1.388 . S
C1778 H1765 0.930 . S
C1778 C1777 1.388 . S
C1778 C1779 1.390 . S
C1779 C1778 1.390 . S
C1779 C1780 1.394 1_565 S
C1779 C1785 1.465 . S
C1780 C1775 1.399 . S
C1780 C1779 1.394 1_545 S
C1780 C1781 1.516 . S
C1781 C1780 1.516 . S
C1781 C1782 1.502 . S
C1781 C1783 1.561 . S
C1781 C1784 1.526 . S
C1782 H1766 0.959 . S
C1782 H1767 0.959 . S
C1782 H1768 0.961 . S
C1782 C1781 1.502 . S
C1783 H1769 0.960 . S
C1783 H1770 0.961 . S
C1783 H1771 0.957 . S
C1783 C1781 1.561 . S
C1784 C1781 1.526 . S
C1784 C1785 1.396 1_545 S
C1784 C1789 1.390 . S
C1785 C1779 1.465 . S
C1785 C1784 1.396 1_565 S
C1785 C1786 1.399 . S
C1786 H1772 0.929 . S
C1786 C1785 1.399 . S
C1786 C1787 1.385 . S
C1787 H1773 0.931 . S
C1787 C1786 1.385 . S
C1787 C1788 1.389 . S
C1788 C1787 1.389 . S
C1788 C1789 1.387 1_565 S
C1789 H1774 0.930 . S
C1789 C1784 1.390 . S
C1789 C1788 1.387 1_545 S
H1790 C1802 0.930 . S
H1791 C1804 0.930 . S
H1792 C1805 0.930 . S
H1793 C1809 0.959 . S
H1794 C1809 0.959 . S
H1795 C1809 0.961 . S
H1796 C1810 0.960 . S
H1797 C1810 0.961 . S
H1798 C1810 0.959 . S
H1799 C1813 0.929 . S
H1800 C1814 0.931 . S
H1801 C1816 0.930 . S
C1802 H1790 0.930 . S
C1802 C1803 1.399 . S
C1802 C1807 1.399 . S
C1803 C1802 1.399 . S
C1803 C1804 1.376 . S
C1804 H1791 0.930 . S
C1804 C1803 1.376 . S
C1804 C1805 1.388 . S
C1805 H1792 0.930 . S
C1805 C1804 1.388 . S
C1805 C1806 1.390 . S
C1806 C1805 1.390 . S
C1806 C1807 1.394 . S
C1806 C1812 1.465 . S
C1807 C1802 1.399 . S
C1807 C1806 1.394 . S
C1807 C1808 1.516 . S
C1808 C1807 1.516 . S
C1808 C1809 1.502 . S
C1808 C1810 1.561 . S
C1808 C1811 1.526 . S
C1809 H1793 0.959 . S
C1809 H1794 0.959 . S
C1809 H1795 0.961 . S
C1809 C1808 1.502 . S
C1810 H1796 0.960 . S
C1810 H1797 0.961 . S
C1810 H1798 0.959 . S
C1810 C1808 1.561 . S
C1811 C1808 1.526 . S
C1811 C1812 1.396 . S
C1811 C1816 1.390 . S
C1812 C1806 1.465 . S
C1812 C1811 1.396 . S
C1812 C1813 1.399 . S
C1813 H1799 0.929 . S
C1813 C1812 1.399 . S
C1813 C1814 1.385 . S
C1814 H1800 0.931 . S
C1814 C1813 1.385 . S
C1814 C1815 1.389 . S
C1815 C1814 1.389 . S
C1815 C1816 1.387 . S
C1816 H1801 0.930 . S
C1816 C1811 1.390 . S
C1816 C1815 1.387 . S
H1817 C1829 0.930 . S
H1818 C1831 0.930 . S
H1819 C1832 0.930 . S
H1820 C1836 0.959 . S
H1821 C1836 0.959 . S
H1822 C1836 0.961 . S
H1823 C1837 0.960 . S
H1824 C1837 0.961 . S
H1825 C1837 0.959 . S
H1826 C1840 0.929 . S
H1827 C1841 0.931 . S
H1828 C1843 0.930 . S
C1829 H1817 0.930 . S
C1829 C1830 1.399 . S
C1829 C1834 1.399 . S
C1830 C1829 1.399 . S
C1830 C1831 1.376 1_545 S
C1831 H1818 0.930 . S
C1831 C1830 1.376 1_565 S
C1831 C1832 1.388 . S
C1832 H1819 0.930 . S
C1832 C1831 1.388 . S
C1832 C1833 1.390 . S
C1833 C1832 1.390 . S
C1833 C1834 1.394 1_565 S
C1833 C1839 1.465 . S
C1834 C1829 1.399 . S
C1834 C1833 1.394 1_545 S
C1834 C1835 1.516 . S
C1835 C1834 1.516 . S
C1835 C1836 1.502 . S
C1835 C1837 1.561 . S
C1835 C1838 1.526 . S
C1836 H1820 0.959 . S
C1836 H1821 0.959 . S
C1836 H1822 0.961 . S
C1836 C1835 1.502 . S
C1837 H1823 0.960 . S
C1837 H1824 0.961 . S
C1837 H1825 0.959 . S
C1837 C1835 1.561 . S
C1838 C1835 1.526 . S
C1838 C1839 1.396 1_545 S
C1838 C1843 1.390 . S
C1839 C1833 1.465 . S
C1839 C1838 1.396 1_565 S
C1839 C1840 1.399 . S
C1840 H1826 0.929 . S
C1840 C1839 1.399 . S
C1840 C1841 1.385 . S
C1841 H1827 0.931 . S
C1841 C1840 1.385 . S
C1841 C1842 1.389 . S
C1842 C1841 1.389 . S
C1842 C1843 1.387 1_565 S
C1843 H1828 0.930 . S
C1843 C1838 1.390 . S
C1843 C1842 1.387 1_545 S
H1844 C1856 0.930 . S
H1845 C1858 0.930 . S
H1846 C1859 0.930 . S
H1847 C1863 0.959 . S
H1848 C1863 0.959 . S
H1849 C1863 0.961 . S
H1850 C1864 0.960 . S
H1851 C1864 0.961 . S
H1852 C1864 0.959 . S
H1853 C1867 0.929 . S
H1854 C1868 0.931 . S
H1855 C1870 0.930 . S
C1856 H1844 0.930 . S
C1856 C1857 1.399 . S
C1856 C1861 1.399 . S
C1857 C1856 1.399 . S
C1857 C1858 1.376 . S
C1858 H1845 0.930 . S
C1858 C1857 1.376 . S
C1858 C1859 1.388 . S
C1859 H1846 0.930 . S
C1859 C1858 1.388 . S
C1859 C1860 1.390 . S
C1860 C1859 1.390 . S
C1860 C1861 1.394 . S
C1860 C1866 1.465 . S
C1861 C1856 1.399 . S
C1861 C1860 1.394 . S
C1861 C1862 1.516 . S
C1862 C1861 1.516 . S
C1862 C1863 1.502 . S
C1862 C1864 1.561 . S
C1862 C1865 1.526 . S
C1863 H1847 0.959 . S
C1863 H1848 0.959 . S
C1863 H1849 0.961 . S
C1863 C1862 1.502 . S
C1864 H1850 0.960 . S
C1864 H1851 0.961 . S
C1864 H1852 0.959 . S
C1864 C1862 1.561 . S
C1865 C1862 1.526 . S
C1865 C1866 1.396 . S
C1865 C1870 1.390 . S
C1866 C1860 1.465 . S
C1866 C1865 1.396 . S
C1866 C1867 1.399 . S
C1867 H1853 0.929 . S
C1867 C1866 1.399 . S
C1867 C1868 1.385 . S
C1868 H1854 0.931 . S
C1868 C1867 1.385 . S
C1868 C1869 1.389 . S
C1869 C1868 1.389 . S
C1869 C1870 1.387 . S
C1870 H1855 0.930 . S
C1870 C1865 1.390 . S
C1870 C1869 1.387 . S
H1871 C1883 0.930 . S
H1872 C1885 0.930 . S
H1873 C1886 0.930 . S
H1874 C1890 0.959 . S
H1875 C1890 0.959 . S
H1876 C1890 0.961 . S
H1877 C1891 0.960 . S
H1878 C1891 0.961 . S
H1879 C1891 0.959 . S
H1880 C1894 0.929 . S
H1881 C1895 0.931 . S
H1882 C1897 0.930 . S
C1883 H1871 0.930 . S
C1883 C1884 1.399 . S
C1883 C1888 1.399 . S
C1884 C1883 1.399 . S
C1884 C1885 1.376 . S
C1885 H1872 0.930 . S
C1885 C1884 1.376 . S
C1885 C1886 1.388 . S
C1886 H1873 0.930 . S
C1886 C1885 1.388 . S
C1886 C1887 1.390 . S
C1887 C1886 1.390 . S
C1887 C1888 1.394 . S
C1887 C1893 1.465 . S
C1888 C1883 1.399 . S
C1888 C1887 1.394 . S
C1888 C1889 1.516 . S
C1889 C1888 1.516 . S
C1889 C1890 1.502 . S
C1889 C1891 1.561 . S
C1889 C1892 1.526 . S
C1890 H1874 0.959 . S
C1890 H1875 0.959 . S
C1890 H1876 0.961 . S
C1890 C1889 1.502 . S
C1891 H1877 0.960 . S
C1891 H1878 0.961 . S
C1891 H1879 0.959 . S
C1891 C1889 1.561 . S
C1892 C1889 1.526 . S
C1892 C1893 1.396 . S
C1892 C1897 1.390 . S
C1893 C1887 1.465 . S
C1893 C1892 1.396 . S
C1893 C1894 1.399 . S
C1894 H1880 0.929 . S
C1894 C1893 1.399 . S
C1894 C1895 1.385 . S
C1895 H1881 0.931 . S
C1895 C1894 1.385 . S
C1895 C1896 1.389 . S
C1896 C1895 1.389 . S
C1896 C1897 1.387 . S
C1897 H1882 0.930 . S
C1897 C1892 1.390 . S
C1897 C1896 1.387 . S
H1898 C1910 0.930 . S
H1899 C1912 0.930 . S
H1900 C1913 0.930 . S
H1901 C1917 0.959 . S
H1902 C1917 0.959 . S
H1903 C1917 0.961 . S
H1904 C1918 0.960 . S
H1905 C1918 0.961 . S
H1906 C1918 0.959 . S
H1907 C1921 0.929 . S
H1908 C1922 0.931 . S
H1909 C1924 0.930 . S
C1910 H1898 0.930 . S
C1910 C1911 1.399 . S
C1910 C1915 1.399 . S
C1911 C1910 1.399 . S
C1911 C1912 1.376 . S
C1912 H1899 0.930 . S
C1912 C1911 1.376 . S
C1912 C1913 1.388 . S
C1913 H1900 0.930 . S
C1913 C1912 1.388 . S
C1913 C1914 1.390 . S
C1914 C1913 1.390 . S
C1914 C1915 1.394 . S
C1914 C1920 1.465 . S
C1915 C1910 1.399 . S
C1915 C1914 1.394 . S
C1915 C1916 1.516 . S
C1916 C1915 1.516 . S
C1916 C1917 1.502 . S
C1916 C1918 1.561 . S
C1916 C1919 1.526 . S
C1917 H1901 0.959 . S
C1917 H1902 0.959 . S
C1917 H1903 0.961 . S
C1917 C1916 1.502 . S
C1918 H1904 0.960 . S
C1918 H1905 0.961 . S
C1918 H1906 0.959 . S
C1918 C1916 1.561 . S
C1919 C1916 1.526 . S
C1919 C1920 1.396 . S
C1919 C1924 1.390 . S
C1920 C1914 1.465 . S
C1920 C1919 1.396 . S
C1920 C1921 1.399 . S
C1921 H1907 0.929 . S
C1921 C1920 1.399 . S
C1921 C1922 1.385 . S
C1922 H1908 0.931 . S
C1922 C1921 1.385 . S
C1922 C1923 1.389 . S
C1923 C1922 1.389 . S
C1923 C1924 1.387 . S
C1924 H1909 0.930 . S
C1924 C1919 1.390 . S
C1924 C1923 1.387 . S
H1925 C1937 0.930 . S
H1926 C1939 0.930 . S
H1927 C1940 0.930 . S
H1928 C1944 0.959 . S
H1929 C1944 0.959 . S
H1930 C1944 0.961 . S
H1931 C1945 0.960 . S
H1932 C1945 0.961 . S
H1933 C1945 0.959 . S
H1934 C1948 0.929 . S
H1935 C1949 0.931 . S
H1936 C1951 0.930 . S
C1937 H1925 0.930 . S
C1937 C1938 1.399 1_554 S
C1937 C1942 1.399 . S
C1938 C1937 1.399 1_556 S
C1938 C1939 1.376 . S
C1939 H1926 0.930 . S
C1939 C1938 1.376 . S
C1939 C1940 1.388 1_545 S
C1940 H1927 0.930 . S
C1940 C1939 1.388 1_565 S
C1940 C1941 1.390 . S
C1941 C1940 1.390 . S
C1941 C1942 1.394 1_566 S
C1941 C1947 1.465 . S
C1942 C1937 1.399 . S
C1942 C1941 1.394 1_544 S
C1942 C1943 1.516 . S
C1943 C1942 1.516 . S
C1943 C1944 1.502 . S
C1943 C1945 1.561 1_545 S
C1943 C1946 1.526 1_545 S
C1944 H1928 0.959 . S
C1944 H1929 0.959 . S
C1944 H1930 0.961 . S
C1944 C1943 1.502 . S
C1945 H1931 0.960 . S
C1945 H1932 0.961 . S
C1945 H1933 0.959 . S
C1945 C1943 1.561 1_565 S
C1946 C1943 1.526 1_565 S
C1946 C1947 1.396 1_554 S
C1946 C1951 1.390 . S
C1947 C1941 1.465 . S
C1947 C1946 1.396 1_556 S
C1947 C1948 1.399 . S
C1948 H1934 0.929 . S
C1948 C1947 1.399 . S
C1948 C1949 1.385 . S
C1949 H1935 0.931 . S
C1949 C1948 1.385 . S
C1949 C1950 1.389 1_556 S
C1950 C1949 1.389 1_554 S
C1950 C1951 1.387 . S
C1951 H1936 0.930 . S
C1951 C1946 1.390 . S
C1951 C1950 1.387 . S
H1952 C1964 0.930 . S
H1953 C1966 0.930 . S
H1954 C1967 0.930 . S
H1955 C1971 0.959 . S
H1956 C1971 0.959 . S
H1957 C1971 0.961 . S
H1958 C1972 0.960 . S
H1959 C1972 0.961 . S
H1960 C1972 0.959 . S
H1961 C1975 0.929 . S
H1962 C1976 0.931 . S
H1963 C1978 0.930 . S
C1964 H1952 0.930 . S
C1964 C1965 1.399 . S
C1964 C1969 1.399 . S
C1965 C1964 1.399 . S
C1965 C1966 1.376 . S
C1966 H1953 0.930 . S
C1966 C1965 1.376 . S
C1966 C1967 1.388 . S
C1967 H1954 0.930 . S
C1967 C1966 1.388 . S
C1967 C1968 1.390 . S
C1968 C1967 1.390 . S
C1968 C1969 1.394 . S
C1968 C1974 1.465 . S
C1969 C1964 1.399 . S
C1969 C1968 1.394 . S
C1969 C1970 1.516 . S
C1970 C1969 1.516 . S
C1970 C1971 1.502 . S
C1970 C1972 1.561 . S
C1970 C1973 1.526 . S
C1971 H1955 0.959 . S
C1971 H1956 0.959 . S
C1971 H1957 0.961 . S
C1971 C1970 1.502 . S
C1972 H1958 0.960 . S
C1972 H1959 0.961 . S
C1972 H1960 0.959 . S
C1972 C1970 1.561 . S
C1973 C1970 1.526 . S
C1973 C1974 1.396 . S
C1973 C1978 1.390 . S
C1974 C1968 1.465 . S
C1974 C1973 1.396 . S
C1974 C1975 1.399 . S
C1975 H1961 0.929 . S
C1975 C1974 1.399 . S
C1975 C1976 1.385 . S
C1976 H1962 0.931 . S
C1976 C1975 1.385 . S
C1976 C1977 1.389 . S
C1977 C1976 1.389 . S
C1977 C1978 1.387 . S
C1978 H1963 0.930 . S
C1978 C1973 1.390 . S
C1978 C1977 1.387 . S
H1979 C1991 0.930 . S
H1980 C1993 0.930 . S
H1981 C1994 0.930 . S
H1982 C1998 0.959 . S
H1983 C1998 0.959 . S
H1984 C1998 0.961 . S
H1985 C1999 0.960 . S
H1986 C1999 0.961 . S
H1987 C1999 0.959 . S
H1988 C2002 0.929 . S
H1989 C2003 0.931 . S
H1990 C2005 0.930 . S
C1991 H1979 0.930 . S
C1991 C1992 1.399 . S
C1991 C1996 1.399 . S
C1992 C1991 1.399 . S
C1992 C1993 1.376 . S
C1993 H1980 0.930 . S
C1993 C1992 1.376 . S
C1993 C1994 1.388 . S
C1994 H1981 0.930 . S
C1994 C1993 1.388 . S
C1994 C1995 1.390 . S
C1995 C1994 1.390 . S
C1995 C1996 1.394 . S
C1995 C2001 1.465 . S
C1996 C1991 1.399 . S
C1996 C1995 1.394 . S
C1996 C1997 1.516 . S
C1997 C1996 1.516 . S
C1997 C1998 1.502 . S
C1997 C1999 1.561 . S
C1997 C2000 1.526 . S
C1998 H1982 0.959 . S
C1998 H1983 0.959 . S
C1998 H1984 0.961 . S
C1998 C1997 1.502 . S
C1999 H1985 0.960 . S
C1999 H1986 0.961 . S
C1999 H1987 0.959 . S
C1999 C1997 1.561 . S
C2000 C1997 1.526 . S
C2000 C2001 1.396 . S
C2000 C2005 1.390 . S
C2001 C1995 1.465 . S
C2001 C2000 1.396 . S
C2001 C2002 1.399 . S
C2002 H1988 0.929 . S
C2002 C2001 1.399 . S
C2002 C2003 1.385 . S
C2003 H1989 0.931 . S
C2003 C2002 1.385 . S
C2003 C2004 1.389 . S
C2004 C2003 1.389 . S
C2004 C2005 1.387 . S
C2005 H1990 0.930 . S
C2005 C2000 1.390 . S
C2005 C2004 1.387 . S
H2006 C2018 0.930 . S
H2007 C2020 0.930 . S
H2008 C2021 0.930 . S
H2009 C2025 0.959 . S
H2010 C2025 0.959 . S
H2011 C2025 0.961 . S
H2012 C2026 0.960 . S
H2013 C2026 0.961 . S
H2014 C2026 0.959 . S
H2015 C2029 0.929 . S
H2016 C2030 0.931 . S
H2017 C2032 0.930 . S
C2018 H2006 0.930 . S
C2018 C2019 1.399 . S
C2018 C2023 1.399 . S
C2019 C2018 1.399 . S
C2019 C2020 1.376 1_556 S
C2020 H2007 0.930 . S
C2020 C2019 1.376 1_554 S
C2020 C2021 1.388 1_554 S
C2021 H2008 0.930 . S
C2021 C2020 1.388 1_556 S
C2021 C2022 1.390 . S
C2022 C2021 1.390 . S
C2022 C2023 1.394 . S
C2022 C2028 1.465 . S
C2023 C2018 1.399 . S
C2023 C2022 1.394 . S
C2023 C2024 1.516 . S
C2024 C2023 1.516 . S
C2024 C2025 1.502 . S
C2024 C2026 1.561 . S
C2024 C2027 1.526 . S
C2025 H2009 0.959 . S
C2025 H2010 0.959 . S
C2025 H2011 0.961 . S
C2025 C2024 1.502 . S
C2026 H2012 0.960 . S
C2026 H2013 0.961 . S
C2026 H2014 0.959 . S
C2026 C2024 1.561 . S
C2027 C2024 1.526 . S
C2027 C2028 1.396 . S
C2027 C2032 1.390 . S
C2028 C2022 1.465 . S
C2028 C2027 1.396 . S
C2028 C2029 1.399 . S
C2029 H2015 0.929 . S
C2029 C2028 1.399 . S
C2029 C2030 1.385 . S
C2030 H2016 0.931 . S
C2030 C2029 1.385 . S
C2030 C2031 1.389 . S
C2031 C2030 1.389 . S
C2031 C2032 1.387 . S
C2032 H2017 0.930 . S
C2032 C2027 1.390 . S
C2032 C2031 1.387 . S
H2033 C2045 0.930 . S
H2034 C2047 0.930 . S
H2035 C2048 0.930 . S
H2036 C2052 0.959 . S
H2037 C2052 0.959 . S
H2038 C2052 0.961 . S
H2039 C2053 0.960 . S
H2040 C2053 0.961 . S
H2041 C2053 0.959 . S
H2042 C2056 0.929 . S
H2043 C2057 0.931 . S
H2044 C2059 0.930 . S
C2045 H2033 0.930 . S
C2045 C2046 1.399 . S
C2045 C2050 1.399 . S
C2046 C2045 1.399 . S
C2046 C2047 1.376 . S
C2047 H2034 0.930 . S
C2047 C2046 1.376 . S
C2047 C2048 1.388 . S
C2048 H2035 0.930 . S
C2048 C2047 1.388 . S
C2048 C2049 1.390 . S
C2049 C2048 1.390 . S
C2049 C2050 1.394 . S
C2049 C2055 1.465 . S
C2050 C2045 1.399 . S
C2050 C2049 1.394 . S
C2050 C2051 1.516 . S
C2051 C2050 1.516 . S
C2051 C2052 1.502 . S
C2051 C2053 1.561 . S
C2051 C2054 1.526 . S
C2052 H2036 0.959 . S
C2052 H2037 0.959 . S
C2052 H2038 0.961 . S
C2052 C2051 1.502 . S
C2053 H2039 0.960 . S
C2053 H2040 0.961 . S
C2053 H2041 0.959 . S
C2053 C2051 1.561 . S
C2054 C2051 1.526 . S
C2054 C2055 1.396 . S
C2054 C2059 1.390 . S
C2055 C2049 1.465 . S
C2055 C2054 1.396 . S
C2055 C2056 1.399 . S
C2056 H2042 0.929 . S
C2056 C2055 1.399 . S
C2056 C2057 1.385 1_556 S
C2057 H2043 0.931 . S
C2057 C2056 1.385 1_554 S
C2057 C2058 1.389 1_554 S
C2058 C2057 1.389 1_556 S
C2058 C2059 1.387 . S
C2059 H2044 0.930 . S
C2059 C2054 1.390 . S
C2059 C2058 1.387 . S
H2060 C2072 0.930 . S
H2061 C2074 0.930 . S
H2062 C2075 0.930 . S
H2063 C2079 0.959 . S
H2064 C2079 0.959 . S
H2065 C2079 0.961 . S
H2066 C2080 0.960 . S
H2067 C2080 0.961 . S
H2068 C2080 0.959 . S
H2069 C2083 0.929 . S
H2070 C2084 0.931 . S
H2071 C2086 0.930 . S
C2072 H2060 0.930 . S
C2072 C2073 1.399 . S
C2072 C2077 1.399 . S
C2073 C2072 1.399 . S
C2073 C2074 1.376 . S
C2074 H2061 0.930 . S
C2074 C2073 1.376 . S
C2074 C2075 1.388 . S
C2075 H2062 0.930 . S
C2075 C2074 1.388 . S
C2075 C2076 1.390 . S
C2076 C2075 1.390 . S
C2076 C2077 1.394 . S
C2076 C2082 1.465 . S
C2077 C2072 1.399 . S
C2077 C2076 1.394 . S
C2077 C2078 1.516 . S
C2078 C2077 1.516 . S
C2078 C2079 1.502 . S
C2078 C2080 1.561 . S
C2078 C2081 1.526 . S
C2079 H2063 0.959 . S
C2079 H2064 0.959 . S
C2079 H2065 0.961 . S
C2079 C2078 1.502 . S
C2080 H2066 0.960 . S
C2080 H2067 0.961 . S
C2080 H2068 0.959 . S
C2080 C2078 1.561 . S
C2081 C2078 1.526 . S
C2081 C2082 1.396 . S
C2081 C2086 1.390 . S
C2082 C2076 1.465 . S
C2082 C2081 1.396 . S
C2082 C2083 1.399 . S
C2083 H2069 0.929 . S
C2083 C2082 1.399 . S
C2083 C2084 1.385 . S
C2084 H2070 0.931 . S
C2084 C2083 1.385 . S
C2084 C2085 1.389 . S
C2085 C2084 1.389 . S
C2085 C2086 1.387 . S
C2086 H2071 0.930 . S
C2086 C2081 1.390 . S
C2086 C2085 1.387 . S
H2087 C2099 0.930 . S
H2088 C2101 0.930 . S
H2089 C2102 0.930 . S
H2090 C2106 0.959 . S
H2091 C2106 0.959 . S
H2092 C2106 0.961 . S
H2093 C2107 0.960 . S
H2094 C2107 0.961 . S
H2095 C2107 0.959 . S
H2096 C2110 0.929 . S
H2097 C2111 0.931 . S
H2098 C2113 0.930 . S
C2099 H2087 0.930 . S
C2099 C2100 1.399 . S
C2099 C2104 1.399 . S
C2100 C2099 1.399 . S
C2100 C2101 1.376 . S
C2101 H2088 0.930 . S
C2101 C2100 1.376 . S
C2101 C2102 1.388 . S
C2102 H2089 0.930 . S
C2102 C2101 1.388 . S
C2102 C2103 1.390 . S
C2103 C2102 1.390 . S
C2103 C2104 1.394 . S
C2103 C2109 1.465 . S
C2104 C2099 1.399 . S
C2104 C2103 1.394 . S
C2104 C2105 1.516 . S
C2105 C2104 1.516 . S
C2105 C2106 1.502 . S
C2105 C2107 1.561 . S
C2105 C2108 1.526 . S
C2106 H2090 0.959 . S
C2106 H2091 0.959 . S
C2106 H2092 0.961 . S
C2106 C2105 1.502 . S
C2107 H2093 0.960 . S
C2107 H2094 0.961 . S
C2107 H2095 0.959 . S
C2107 C2105 1.561 . S
C2108 C2105 1.526 . S
C2108 C2109 1.396 . S
C2108 C2113 1.390 . S
C2109 C2103 1.465 . S
C2109 C2108 1.396 . S
C2109 C2110 1.399 . S
C2110 H2096 0.929 . S
C2110 C2109 1.399 . S
C2110 C2111 1.385 . S
C2111 H2097 0.931 . S
C2111 C2110 1.385 . S
C2111 C2112 1.389 . S
C2112 C2111 1.389 . S
C2112 C2113 1.387 . S
C2113 H2098 0.930 . S
C2113 C2108 1.390 . S
C2113 C2112 1.387 . S
H2114 C2126 0.930 1_556 S
H2115 C2128 0.930 . S
H2116 C2129 0.930 . S
H2117 C2133 0.959 . S
H2118 C2133 0.959 . S
H2119 C2133 0.961 . S
H2120 C2134 0.960 . S
H2121 C2134 0.961 . S
H2122 C2134 0.959 . S
H2123 C2137 0.929 . S
H2124 C2138 0.931 . S
H2125 C2140 0.930 . S
C2126 H2114 0.930 1_554 S
C2126 C2127 1.399 . S
C2126 C2131 1.399 . S
C2127 C2126 1.399 . S
C2127 C2128 1.376 . S
C2128 H2115 0.930 . S
C2128 C2127 1.376 . S
C2128 C2129 1.388 . S
C2129 H2116 0.930 . S
C2129 C2128 1.388 . S
C2129 C2130 1.390 . S
C2130 C2129 1.390 . S
C2130 C2131 1.394 . S
C2130 C2136 1.465 . S
C2131 C2126 1.399 . S
C2131 C2130 1.394 . S
C2131 C2132 1.516 . S
C2132 C2131 1.516 . S
C2132 C2133 1.502 . S
C2132 C2134 1.561 . S
C2132 C2135 1.526 . S
C2133 H2117 0.959 . S
C2133 H2118 0.959 . S
C2133 H2119 0.961 . S
C2133 C2132 1.502 . S
C2134 H2120 0.960 . S
C2134 H2121 0.961 . S
C2134 H2122 0.959 . S
C2134 C2132 1.561 . S
C2135 C2132 1.526 . S
C2135 C2136 1.396 . S
C2135 C2140 1.390 . S
C2136 C2130 1.465 . S
C2136 C2135 1.396 . S
C2136 C2137 1.399 . S
C2137 H2123 0.929 . S
C2137 C2136 1.399 . S
C2137 C2138 1.385 . S
C2138 H2124 0.931 . S
C2138 C2137 1.385 . S
C2138 C2139 1.389 . S
C2139 C2138 1.389 . S
C2139 C2140 1.387 . S
C2140 H2125 0.930 . S
C2140 C2135 1.390 . S
C2140 C2139 1.387 . S
H2141 C2153 0.930 . S
H2142 C2155 0.930 . S
H2143 C2156 0.930 . S
H2144 C2160 0.959 . S
H2145 C2160 0.959 . S
H2146 C2160 0.961 . S
H2147 C2161 0.960 . S
H2148 C2161 0.961 1_556 S
H2149 C2161 0.959 . S
H2150 C2164 0.929 . S
H2151 C2165 0.931 . S
H2152 C2167 0.930 1_556 S
C2153 H2141 0.930 . S
C2153 C2154 1.399 . S
C2153 C2158 1.399 . S
C2154 C2153 1.399 . S
C2154 C2155 1.376 . S
C2155 H2142 0.930 . S
C2155 C2154 1.376 . S
C2155 C2156 1.388 . S
C2156 H2143 0.930 . S
C2156 C2155 1.388 . S
C2156 C2157 1.390 . S
C2157 C2156 1.390 . S
C2157 C2158 1.394 . S
C2157 C2163 1.465 . S
C2158 C2153 1.399 . S
C2158 C2157 1.394 . S
C2158 C2159 1.516 . S
C2159 C2158 1.516 . S
C2159 C2160 1.502 . S
C2159 C2161 1.561 . S
C2159 C2162 1.526 . S
C2160 H2144 0.959 . S
C2160 H2145 0.959 . S
C2160 H2146 0.961 . S
C2160 C2159 1.502 . S
C2161 H2147 0.960 . S
C2161 H2148 0.961 1_554 S
C2161 H2149 0.959 . S
C2161 C2159 1.561 . S
C2162 C2159 1.526 . S
C2162 C2163 1.396 . S
C2162 C2167 1.390 . S
C2163 C2157 1.465 . S
C2163 C2162 1.396 . S
C2163 C2164 1.399 . S
C2164 H2150 0.929 . S
C2164 C2163 1.399 . S
C2164 C2165 1.385 . S
C2165 H2151 0.931 . S
C2165 C2164 1.385 . S
C2165 C2166 1.389 . S
C2166 C2165 1.389 . S
C2166 C2167 1.387 . S
C2167 H2152 0.930 1_554 S
C2167 C2162 1.390 . S
C2167 C2166 1.387 . S
H2168 C2180 0.930 . S
H2169 C2182 0.930 . S
H2170 C2183 0.930 . S
H2171 C2187 0.959 . S
H2172 C2187 0.959 . S
H2173 C2187 0.961 . S
H2174 C2188 0.960 . S
H2175 C2188 0.961 . S
H2176 C2188 0.959 . S
H2177 C2191 0.929 . S
H2178 C2192 0.931 . S
H2179 C2194 0.930 . S
C2180 H2168 0.930 . S
C2180 C2181 1.399 . S
C2180 C2185 1.399 . S
C2181 C2180 1.399 . S
C2181 C2182 1.376 . S
C2182 H2169 0.930 . S
C2182 C2181 1.376 . S
C2182 C2183 1.388 . S
C2183 H2170 0.930 . S
C2183 C2182 1.388 . S
C2183 C2184 1.390 . S
C2184 C2183 1.390 . S
C2184 C2185 1.394 . S
C2184 C2190 1.465 . S
C2185 C2180 1.399 . S
C2185 C2184 1.394 . S
C2185 C2186 1.516 . S
C2186 C2185 1.516 . S
C2186 C2187 1.502 . S
C2186 C2188 1.561 . S
C2186 C2189 1.526 . S
C2187 H2171 0.959 . S
C2187 H2172 0.959 . S
C2187 H2173 0.961 . S
C2187 C2186 1.502 . S
C2188 H2174 0.960 . S
C2188 H2175 0.961 . S
C2188 H2176 0.959 . S
C2188 C2186 1.561 . S
C2189 C2186 1.526 . S
C2189 C2190 1.396 . S
C2189 C2194 1.390 . S
C2190 C2184 1.465 . S
C2190 C2189 1.396 . S
C2190 C2191 1.399 . S
C2191 H2177 0.929 . S
C2191 C2190 1.399 . S
C2191 C2192 1.385 . S
C2192 H2178 0.931 . S
C2192 C2191 1.385 . S
C2192 C2193 1.389 . S
C2193 C2192 1.389 . S
C2193 C2194 1.387 . S
C2194 H2179 0.930 . S
C2194 C2189 1.390 . S
C2194 C2193 1.387 . S
H2195 C2207 0.930 . S
H2196 C2209 0.930 . S
H2197 C2210 0.930 . S
H2198 C2214 0.959 . S
H2199 C2214 0.959 . S
H2200 C2214 0.961 . S
H2201 C2215 0.960 . S
H2202 C2215 0.961 . S
H2203 C2215 0.959 . S
H2204 C2218 0.929 . S
H2205 C2219 0.931 . S
H2206 C2221 0.930 . S
C2207 H2195 0.930 . S
C2207 C2208 1.399 . S
C2207 C2212 1.399 . S
C2208 C2207 1.399 . S
C2208 C2209 1.376 . S
C2209 H2196 0.930 . S
C2209 C2208 1.376 . S
C2209 C2210 1.388 . S
C2210 H2197 0.930 . S
C2210 C2209 1.388 . S
C2210 C2211 1.390 . S
C2211 C2210 1.390 . S
C2211 C2212 1.394 . S
C2211 C2217 1.465 . S
C2212 C2207 1.399 . S
C2212 C2211 1.394 . S
C2212 C2213 1.516 . S
C2213 C2212 1.516 . S
C2213 C2214 1.502 . S
C2213 C2215 1.561 . S
C2213 C2216 1.526 . S
C2214 H2198 0.959 . S
C2214 H2199 0.959 . S
C2214 H2200 0.961 . S
C2214 C2213 1.502 . S
C2215 H2201 0.960 . S
C2215 H2202 0.961 . S
C2215 H2203 0.959 . S
C2215 C2213 1.561 . S
C2216 C2213 1.526 . S
C2216 C2217 1.396 . S
C2216 C2221 1.390 . S
C2217 C2211 1.465 . S
C2217 C2216 1.396 . S
C2217 C2218 1.399 . S
C2218 H2204 0.929 . S
C2218 C2217 1.399 . S
C2218 C2219 1.385 1_556 S
C2219 H2205 0.931 . S
C2219 C2218 1.385 1_554 S
C2219 C2220 1.389 1_554 S
C2220 C2219 1.389 1_556 S
C2220 C2221 1.387 . S
C2221 H2206 0.930 . S
C2221 C2216 1.390 . S
C2221 C2220 1.387 . S
H2222 C2234 0.930 . S
H2223 C2236 0.930 . S
H2224 C2237 0.930 . S
H2225 C2241 0.959 . S
H2226 C2241 0.959 . S
H2227 C2241 0.961 . S
H2228 C2242 0.960 . S
H2229 C2242 0.961 . S
H2230 C2242 0.959 . S
H2231 C2245 0.929 . S
H2232 C2246 0.931 . S
H2233 C2248 0.930 . S
C2234 H2222 0.930 . S
C2234 C2235 1.399 . S
C2234 C2239 1.399 . S
C2235 C2234 1.399 . S
C2235 C2236 1.376 . S
C2236 H2223 0.930 . S
C2236 C2235 1.376 . S
C2236 C2237 1.388 . S
C2237 H2224 0.930 . S
C2237 C2236 1.388 . S
C2237 C2238 1.390 . S
C2238 C2237 1.390 . S
C2238 C2239 1.394 . S
C2238 C2244 1.465 . S
C2239 C2234 1.399 . S
C2239 C2238 1.394 . S
C2239 C2240 1.516 . S
C2240 C2239 1.516 . S
C2240 C2241 1.502 . S
C2240 C2242 1.561 . S
C2240 C2243 1.526 . S
C2241 H2225 0.959 . S
C2241 H2226 0.959 . S
C2241 H2227 0.961 . S
C2241 C2240 1.502 . S
C2242 H2228 0.960 . S
C2242 H2229 0.961 . S
C2242 H2230 0.959 . S
C2242 C2240 1.561 . S
C2243 C2240 1.526 . S
C2243 C2244 1.396 . S
C2243 C2248 1.390 . S
C2244 C2238 1.465 . S
C2244 C2243 1.396 . S
C2244 C2245 1.399 . S
C2245 H2231 0.929 . S
C2245 C2244 1.399 . S
C2245 C2246 1.385 . S
C2246 H2232 0.931 . S
C2246 C2245 1.385 . S
C2246 C2247 1.389 . S
C2247 C2246 1.389 . S
C2247 C2248 1.387 . S
C2248 H2233 0.930 . S
C2248 C2243 1.390 . S
C2248 C2247 1.387 . S
H2249 C2261 0.930 . S
H2250 C2263 0.930 . S
H2251 C2264 0.930 . S
H2252 C2268 0.959 . S
H2253 C2268 0.959 . S
H2254 C2268 0.961 . S
H2255 C2269 0.960 . S
H2256 C2269 0.961 . S
H2257 C2269 0.959 . S
H2258 C2272 0.929 . S
H2259 C2273 0.931 . S
H2260 C2275 0.930 . S
C2261 H2249 0.930 . S
C2261 C2262 1.399 . S
C2261 C2266 1.399 . S
C2262 C2261 1.399 . S
C2262 C2263 1.376 . S
C2263 H2250 0.930 . S
C2263 C2262 1.376 . S
C2263 C2264 1.388 . S
C2264 H2251 0.930 . S
C2264 C2263 1.388 . S
C2264 C2265 1.390 . S
C2265 C2264 1.390 . S
C2265 C2266 1.394 . S
C2265 C2271 1.465 . S
C2266 C2261 1.399 . S
C2266 C2265 1.394 . S
C2266 C2267 1.516 . S
C2267 C2266 1.516 . S
C2267 C2268 1.502 . S
C2267 C2269 1.561 . S
C2267 C2270 1.526 . S
C2268 H2252 0.959 . S
C2268 H2253 0.959 . S
C2268 H2254 0.961 . S
C2268 C2267 1.502 . S
C2269 H2255 0.960 . S
C2269 H2256 0.961 . S
C2269 H2257 0.959 . S
C2269 C2267 1.561 . S
C2270 C2267 1.526 . S
C2270 C2271 1.396 . S
C2270 C2275 1.390 . S
C2271 C2265 1.465 . S
C2271 C2270 1.396 . S
C2271 C2272 1.399 . S
C2272 H2258 0.929 . S
C2272 C2271 1.399 . S
C2272 C2273 1.385 . S
C2273 H2259 0.931 . S
C2273 C2272 1.385 . S
C2273 C2274 1.389 . S
C2274 C2273 1.389 . S
C2274 C2275 1.387 . S
C2275 H2260 0.930 . S
C2275 C2270 1.390 . S
C2275 C2274 1.387 . S
H2276 C2288 0.930 . S
H2277 C2290 0.930 . S
H2278 C2291 0.930 . S
H2279 C2295 0.959 . S
H2280 C2295 0.959 . S
H2281 C2295 0.961 . S
H2282 C2296 0.960 . S
H2283 C2296 0.961 1_556 S
H2284 C2296 0.959 . S
H2285 C2299 0.929 . S
H2286 C2300 0.931 . S
H2287 C2302 0.930 1_556 S
C2288 H2276 0.930 . S
C2288 C2289 1.399 . S
C2288 C2293 1.399 . S
C2289 C2288 1.399 . S
C2289 C2290 1.376 . S
C2290 H2277 0.930 . S
C2290 C2289 1.376 . S
C2290 C2291 1.388 . S
C2291 H2278 0.930 . S
C2291 C2290 1.388 . S
C2291 C2292 1.390 . S
C2292 C2291 1.390 . S
C2292 C2293 1.394 . S
C2292 C2298 1.465 . S
C2293 C2288 1.399 . S
C2293 C2292 1.394 . S
C2293 C2294 1.516 . S
C2294 C2293 1.516 . S
C2294 C2295 1.502 . S
C2294 C2296 1.561 . S
C2294 C2297 1.526 . S
C2295 H2279 0.959 . S
C2295 H2280 0.959 . S
C2295 H2281 0.961 . S
C2295 C2294 1.502 . S
C2296 H2282 0.960 . S
C2296 H2283 0.961 1_554 S
C2296 H2284 0.959 . S
C2296 C2294 1.561 . S
C2297 C2294 1.526 . S
C2297 C2298 1.396 . S
C2297 C2302 1.390 . S
C2298 C2292 1.465 . S
C2298 C2297 1.396 . S
C2298 C2299 1.399 . S
C2299 H2285 0.929 . S
C2299 C2298 1.399 . S
C2299 C2300 1.385 . S
C2300 H2286 0.931 . S
C2300 C2299 1.385 . S
C2300 C2301 1.389 . S
C2301 C2300 1.389 . S
C2301 C2302 1.387 . S
C2302 H2287 0.930 1_554 S
C2302 C2297 1.390 . S
C2302 C2301 1.387 . S
H2303 C2315 0.930 1_556 S
H2304 C2317 0.930 . S
H2305 C2318 0.930 . S
H2306 C2322 0.959 . S
H2307 C2322 0.959 . S
H2308 C2322 0.961 . S
H2309 C2323 0.960 1_556 S
H2310 C2323 0.961 . S
H2311 C2323 0.959 . S
H2312 C2326 0.929 . S
H2313 C2327 0.931 . S
H2314 C2329 0.930 . S
C2315 H2303 0.930 1_554 S
C2315 C2316 1.399 . S
C2315 C2320 1.399 . S
C2316 C2315 1.399 . S
C2316 C2317 1.376 . S
C2317 H2304 0.930 . S
C2317 C2316 1.376 . S
C2317 C2318 1.388 . S
C2318 H2305 0.930 . S
C2318 C2317 1.388 . S
C2318 C2319 1.390 . S
C2319 C2318 1.390 . S
C2319 C2320 1.394 . S
C2319 C2325 1.465 . S
C2320 C2315 1.399 . S
C2320 C2319 1.394 . S
C2320 C2321 1.516 . S
C2321 C2320 1.516 . S
C2321 C2322 1.502 . S
C2321 C2323 1.561 . S
C2321 C2324 1.526 . S
C2322 H2306 0.959 . S
C2322 H2307 0.959 . S
C2322 H2308 0.961 . S
C2322 C2321 1.502 . S
C2323 H2309 0.960 1_554 S
C2323 H2310 0.961 . S
C2323 H2311 0.959 . S
C2323 C2321 1.561 . S
C2324 C2321 1.526 . S
C2324 C2325 1.396 . S
C2324 C2329 1.390 . S
C2325 C2319 1.465 . S
C2325 C2324 1.396 . S
C2325 C2326 1.399 . S
C2326 H2312 0.929 . S
C2326 C2325 1.399 . S
C2326 C2327 1.385 . S
C2327 H2313 0.931 . S
C2327 C2326 1.385 . S
C2327 C2328 1.389 . S
C2328 C2327 1.389 . S
C2328 C2329 1.387 . S
C2329 H2314 0.930 . S
C2329 C2324 1.390 . S
C2329 C2328 1.387 . S
H2330 C2342 0.930 . S
H2331 C2344 0.930 . S
H2332 C2345 0.930 . S
H2333 C2349 0.959 . S
H2334 C2349 0.959 . S
H2335 C2349 0.961 . S
H2336 C2350 0.960 . S
H2337 C2350 0.961 . S
H2338 C2350 0.959 . S
H2339 C2353 0.929 . S
H2340 C2354 0.931 . S
H2341 C2356 0.930 . S
C2342 H2330 0.930 . S
C2342 C2343 1.399 . S
C2342 C2347 1.399 . S
C2343 C2342 1.399 . S
C2343 C2344 1.376 . S
C2344 H2331 0.930 . S
C2344 C2343 1.376 . S
C2344 C2345 1.388 . S
C2345 H2332 0.930 . S
C2345 C2344 1.388 . S
C2345 C2346 1.390 . S
C2346 C2345 1.390 . S
C2346 C2347 1.394 . S
C2346 C2352 1.465 . S
C2347 C2342 1.399 . S
C2347 C2346 1.394 . S
C2347 C2348 1.516 . S
C2348 C2347 1.516 . S
C2348 C2349 1.502 . S
C2348 C2350 1.561 . S
C2348 C2351 1.526 . S
C2349 H2333 0.959 . S
C2349 H2334 0.959 . S
C2349 H2335 0.961 . S
C2349 C2348 1.502 . S
C2350 H2336 0.960 . S
C2350 H2337 0.961 . S
C2350 H2338 0.959 . S
C2350 C2348 1.561 . S
C2351 C2348 1.526 . S
C2351 C2352 1.396 . S
C2351 C2356 1.390 . S
C2352 C2346 1.465 . S
C2352 C2351 1.396 . S
C2352 C2353 1.399 . S
C2353 H2339 0.929 . S
C2353 C2352 1.399 . S
C2353 C2354 1.385 . S
C2354 H2340 0.931 . S
C2354 C2353 1.385 . S
C2354 C2355 1.389 . S
C2355 C2354 1.389 . S
C2355 C2356 1.387 . S
C2356 H2341 0.930 . S
C2356 C2351 1.390 . S
C2356 C2355 1.387 . S
H2357 C2369 0.930 . S
H2358 C2371 0.930 . S
H2359 C2372 0.930 . S
H2360 C2376 0.959 . S
H2361 C2376 0.959 . S
H2362 C2376 0.961 . S
H2363 C2377 0.960 . S
H2364 C2377 0.961 . S
H2365 C2377 0.959 . S
H2366 C2380 0.929 . S
H2367 C2381 0.931 . S
H2368 C2383 0.930 . S
C2369 H2357 0.930 . S
C2369 C2370 1.399 . S
C2369 C2374 1.399 . S
C2370 C2369 1.399 . S
C2370 C2371 1.376 . S
C2371 H2358 0.930 . S
C2371 C2370 1.376 . S
C2371 C2372 1.388 . S
C2372 H2359 0.930 . S
C2372 C2371 1.388 . S
C2372 C2373 1.390 . S
C2373 C2372 1.390 . S
C2373 C2374 1.394 . S
C2373 C2379 1.465 . S
C2374 C2369 1.399 . S
C2374 C2373 1.394 . S
C2374 C2375 1.516 . S
C2375 C2374 1.516 . S
C2375 C2376 1.502 . S
C2375 C2377 1.561 . S
C2375 C2378 1.526 . S
C2376 H2360 0.959 . S
C2376 H2361 0.959 . S
C2376 H2362 0.961 . S
C2376 C2375 1.502 . S
C2377 H2363 0.960 . S
C2377 H2364 0.961 . S
C2377 H2365 0.959 . S
C2377 C2375 1.561 . S
C2378 C2375 1.526 . S
C2378 C2379 1.396 . S
C2378 C2383 1.390 . S
C2379 C2373 1.465 . S
C2379 C2378 1.396 . S
C2379 C2380 1.399 . S
C2380 H2366 0.929 . S
C2380 C2379 1.399 . S
C2380 C2381 1.385 . S
C2381 H2367 0.931 . S
C2381 C2380 1.385 . S
C2381 C2382 1.389 . S
C2382 C2381 1.389 . S
C2382 C2383 1.387 . S
C2383 H2368 0.930 . S
C2383 C2378 1.390 . S
C2383 C2382 1.387 . S
H2384 C2396 0.930 . S
H2385 C2398 0.930 . S
H2386 C2399 0.930 . S
H2387 C2403 0.959 . S
H2388 C2403 0.973 . S
H2389 C2403 0.961 . S
H2390 C2404 0.960 . S
H2391 C2404 0.961 1_554 S
H2392 C2404 0.959 . S
H2393 C2407 0.929 . S
H2394 C2408 0.931 . S
H2395 C2410 0.930 1_554 S
C2396 H2384 0.930 . S
C2396 C2397 1.399 . S
C2396 C2401 1.399 . S
C2397 C2396 1.399 . S
C2397 C2398 1.376 . S
C2398 H2385 0.930 . S
C2398 C2397 1.376 . S
C2398 C2399 1.388 . S
C2399 H2386 0.930 . S
C2399 C2398 1.388 . S
C2399 C2400 1.390 . S
C2400 C2399 1.390 . S
C2400 C2401 1.394 . S
C2400 C2406 1.465 . S
C2401 C2396 1.399 . S
C2401 C2400 1.394 . S
C2401 C2402 1.516 . S
C2402 C2401 1.516 . S
C2402 C2403 1.502 . S
C2402 C2404 1.561 . S
C2402 C2405 1.526 . S
C2403 H2387 0.959 . S
C2403 H2388 0.973 . S
C2403 H2389 0.961 . S
C2403 C2402 1.502 . S
C2404 H2390 0.960 . S
C2404 H2391 0.961 1_556 S
C2404 H2392 0.959 . S
C2404 C2402 1.561 . S
C2405 C2402 1.526 . S
C2405 C2406 1.396 . S
C2405 C2410 1.390 . S
C2406 C2400 1.465 . S
C2406 C2405 1.396 . S
C2406 C2407 1.399 . S
C2407 H2393 0.929 . S
C2407 C2406 1.399 . S
C2407 C2408 1.385 . S
C2408 H2394 0.931 . S
C2408 C2407 1.385 . S
C2408 C2409 1.389 . S
C2409 C2408 1.389 . S
C2409 C2410 1.387 . S
C2410 H2395 0.930 1_556 S
C2410 C2405 1.390 . S
C2410 C2409 1.387 . S
H2411 C2423 0.930 1_554 S
H2412 C2425 0.930 . S
H2413 C2426 0.930 . S
H2414 C2430 0.959 . S
H2415 C2430 0.959 . S
H2416 C2430 0.961 . S
H2417 C2431 0.960 1_554 S
H2418 C2431 0.961 . S
H2419 C2431 0.959 . S
H2420 C2434 0.929 . S
H2421 C2435 0.931 . S
H2422 C2437 0.930 . S
C2423 H2411 0.930 1_556 S
C2423 C2424 1.399 . S
C2423 C2428 1.399 . S
C2424 C2423 1.399 . S
C2424 C2425 1.376 . S
C2425 H2412 0.930 . S
C2425 C2424 1.376 . S
C2425 C2426 1.388 . S
C2426 H2413 0.930 . S
C2426 C2425 1.388 . S
C2426 C2427 1.390 . S
C2427 C2426 1.390 . S
C2427 C2428 1.394 . S
C2427 C2433 1.465 . S
C2428 C2423 1.399 . S
C2428 C2427 1.394 . S
C2428 C2429 1.516 . S
C2429 C2428 1.516 . S
C2429 C2430 1.502 . S
C2429 C2431 1.561 . S
C2429 C2432 1.526 . S
C2430 H2414 0.959 . S
C2430 H2415 0.959 . S
C2430 H2416 0.961 . S
C2430 C2429 1.502 . S
C2431 H2417 0.960 1_556 S
C2431 H2418 0.961 . S
C2431 H2419 0.959 . S
C2431 C2429 1.561 . S
C2432 C2429 1.526 . S
C2432 C2433 1.396 . S
C2432 C2437 1.390 . S
C2433 C2427 1.465 . S
C2433 C2432 1.396 . S
C2433 C2434 1.399 . S
C2434 H2420 0.929 . S
C2434 C2433 1.399 . S
C2434 C2435 1.385 . S
C2435 H2421 0.931 . S
C2435 C2434 1.385 . S
C2435 C2436 1.389 . S
C2436 C2435 1.389 . S
C2436 C2437 1.387 . S
C2437 H2422 0.930 . S
C2437 C2432 1.390 . S
C2437 C2436 1.387 . S
H2438 C2450 0.930 . S
H2439 C2452 0.930 . S
H2440 C2453 0.930 . S
H2441 C2457 0.959 . S
H2442 C2457 0.959 . S
H2443 C2457 0.961 . S
H2444 C2458 0.960 . S
H2445 C2458 0.961 . S
H2446 C2458 0.959 . S
H2447 C2461 0.929 . S
H2448 C2462 0.931 . S
H2449 C2464 0.930 . S
C2450 H2438 0.930 . S
C2450 C2451 1.399 . S
C2450 C2455 1.399 . S
C2451 C2450 1.399 . S
C2451 C2452 1.376 . S
C2452 H2439 0.930 . S
C2452 C2451 1.376 . S
C2452 C2453 1.388 . S
C2453 H2440 0.930 . S
C2453 C2452 1.388 . S
C2453 C2454 1.390 . S
C2454 C2453 1.390 . S
C2454 C2455 1.394 . S
C2454 C2460 1.465 . S
C2455 C2450 1.399 . S
C2455 C2454 1.394 . S
C2455 C2456 1.516 . S
C2456 C2455 1.516 . S
C2456 C2457 1.502 . S
C2456 C2458 1.561 . S
C2456 C2459 1.526 . S
C2457 H2441 0.959 . S
C2457 H2442 0.959 . S
C2457 H2443 0.961 . S
C2457 C2456 1.502 . S
C2458 H2444 0.960 . S
C2458 H2445 0.961 . S
C2458 H2446 0.959 . S
C2458 C2456 1.561 . S
C2459 C2456 1.526 . S
C2459 C2460 1.396 . S
C2459 C2464 1.390 . S
C2460 C2454 1.465 . S
C2460 C2459 1.396 . S
C2460 C2461 1.399 . S
C2461 H2447 0.929 . S
C2461 C2460 1.399 . S
C2461 C2462 1.385 . S
C2462 H2448 0.931 . S
C2462 C2461 1.385 . S
C2462 C2463 1.389 . S
C2463 C2462 1.389 . S
C2463 C2464 1.387 . S
C2464 H2449 0.930 . S
C2464 C2459 1.390 . S
C2464 C2463 1.387 . S
H2465 C2477 0.930 . S
H2466 C2479 0.930 . S
H2467 C2480 0.930 . S
H2468 C2484 0.959 . S
H2469 C2484 0.959 . S
H2470 C2484 0.961 . S
H2471 C2485 0.960 . S
H2472 C2485 0.961 . S
H2473 C2485 0.959 . S
H2474 C2488 0.929 . S
H2475 C2489 0.931 . S
H2476 C2491 0.930 . S
C2477 H2465 0.930 . S
C2477 C2478 1.399 . S
C2477 C2482 1.399 . S
C2478 C2477 1.399 . S
C2478 C2479 1.376 . S
C2479 H2466 0.930 . S
C2479 C2478 1.376 . S
C2479 C2480 1.388 . S
C2480 H2467 0.930 . S
C2480 C2479 1.388 . S
C2480 C2481 1.390 . S
C2481 C2480 1.390 . S
C2481 C2482 1.394 . S
C2481 C2487 1.465 . S
C2482 C2477 1.399 . S
C2482 C2481 1.394 . S
C2482 C2483 1.516 . S
C2483 C2482 1.516 . S
C2483 C2484 1.502 . S
C2483 C2485 1.561 . S
C2483 C2486 1.526 . S
C2484 H2468 0.959 . S
C2484 H2469 0.959 . S
C2484 H2470 0.961 . S
C2484 C2483 1.502 . S
C2485 H2471 0.960 . S
C2485 H2472 0.961 . S
C2485 H2473 0.959 . S
C2485 C2483 1.561 . S
C2486 C2483 1.526 . S
C2486 C2487 1.396 . S
C2486 C2491 1.390 . S
C2487 C2481 1.465 . S
C2487 C2486 1.396 . S
C2487 C2488 1.399 . S
C2488 H2474 0.929 . S
C2488 C2487 1.399 . S
C2488 C2489 1.385 . S
C2489 H2475 0.931 . S
C2489 C2488 1.385 . S
C2489 C2490 1.389 . S
C2490 C2489 1.389 . S
C2490 C2491 1.387 . S
C2491 H2476 0.930 . S
C2491 C2486 1.390 . S
C2491 C2490 1.387 . S
H2492 C2504 0.930 . S
H2493 C2506 0.930 . S
H2494 C2507 0.930 . S
H2495 C2511 0.959 . S
H2496 C2511 0.959 . S
H2497 C2511 0.961 . S
H2498 C2512 0.960 . S
H2499 C2512 0.961 . S
H2500 C2512 0.959 . S
H2501 C2515 0.929 . S
H2502 C2516 0.931 . S
H2503 C2518 0.930 . S
C2504 H2492 0.930 . S
C2504 C2505 1.399 . S
C2504 C2509 1.399 . S
C2505 C2504 1.399 . S
C2505 C2506 1.376 1_554 S
C2506 H2493 0.930 . S
C2506 C2505 1.376 1_556 S
C2506 C2507 1.388 1_556 S
C2507 H2494 0.930 . S
C2507 C2506 1.388 1_554 S
C2507 C2508 1.390 . S
C2508 C2507 1.390 . S
C2508 C2509 1.394 . S
C2508 C2514 1.465 . S
C2509 C2504 1.399 . S
C2509 C2508 1.394 . S
C2509 C2510 1.516 . S
C2510 C2509 1.516 . S
C2510 C2511 1.502 . S
C2510 C2512 1.561 . S
C2510 C2513 1.526 . S
C2511 H2495 0.959 . S
C2511 H2496 0.959 . S
C2511 H2497 0.961 . S
C2511 C2510 1.502 . S
C2512 H2498 0.960 . S
C2512 H2499 0.961 . S
C2512 H2500 0.959 . S
C2512 C2510 1.561 . S
C2513 C2510 1.526 . S
C2513 C2514 1.396 . S
C2513 C2518 1.390 . S
C2514 C2508 1.465 . S
C2514 C2513 1.396 . S
C2514 C2515 1.399 . S
C2515 H2501 0.929 . S
C2515 C2514 1.399 . S
C2515 C2516 1.385 . S
C2516 H2502 0.931 . S
C2516 C2515 1.385 . S
C2516 C2517 1.389 . S
C2517 C2516 1.389 . S
C2517 C2518 1.387 . S
C2518 H2503 0.930 . S
C2518 C2513 1.390 . S
C2518 C2517 1.387 . S
H2519 C2531 0.930 . S
H2520 C2533 0.930 . S
H2521 C2534 0.930 . S
H2522 C2538 0.959 . S
H2523 C2538 0.959 . S
H2524 C2538 0.961 . S
H2525 C2539 0.960 . S
H2526 C2539 0.961 . S
H2527 C2539 0.959 . S
H2528 C2542 0.929 . S
H2529 C2543 0.931 . S
H2530 C2545 0.930 . S
C2531 H2519 0.930 . S
C2531 C2532 1.399 . S
C2531 C2536 1.399 . S
C2532 C2531 1.399 . S
C2532 C2533 1.376 . S
C2533 H2520 0.930 . S
C2533 C2532 1.376 . S
C2533 C2534 1.388 . S
C2534 H2521 0.930 . S
C2534 C2533 1.388 . S
C2534 C2535 1.390 . S
C2535 C2534 1.390 . S
C2535 C2536 1.394 . S
C2535 C2541 1.465 . S
C2536 C2531 1.399 . S
C2536 C2535 1.394 . S
C2536 C2537 1.516 . S
C2537 C2536 1.516 . S
C2537 C2538 1.502 . S
C2537 C2539 1.561 . S
C2537 C2540 1.526 . S
C2538 H2522 0.959 . S
C2538 H2523 0.959 . S
C2538 H2524 0.961 . S
C2538 C2537 1.502 . S
C2539 H2525 0.960 . S
C2539 H2526 0.961 . S
C2539 H2527 0.959 . S
C2539 C2537 1.561 . S
C2540 C2537 1.526 . S
C2540 C2541 1.396 . S
C2540 C2545 1.390 . S
C2541 C2535 1.465 . S
C2541 C2540 1.396 . S
C2541 C2542 1.399 . S
C2542 H2528 0.929 . S
C2542 C2541 1.399 . S
C2542 C2543 1.385 . S
C2543 H2529 0.931 . S
C2543 C2542 1.385 . S
C2543 C2544 1.389 . S
C2544 C2543 1.389 . S
C2544 C2545 1.387 . S
C2545 H2530 0.930 . S
C2545 C2540 1.390 . S
C2545 C2544 1.387 . S
H2546 C2558 0.930 . S
H2547 C2560 0.930 . S
H2548 C2561 0.930 . S
H2549 C2565 0.959 . S
H2550 C2565 0.959 . S
H2551 C2565 0.961 . S
H2552 C2566 0.960 . S
H2553 C2566 0.961 . S
H2554 C2566 0.959 . S
H2555 C2569 0.929 . S
H2556 C2570 0.931 . S
H2557 C2572 0.930 . S
C2558 H2546 0.930 . S
C2558 C2559 1.399 . S
C2558 C2563 1.399 . S
C2559 C2558 1.399 . S
C2559 C2560 1.376 . S
C2560 H2547 0.930 . S
C2560 C2559 1.376 . S
C2560 C2561 1.388 . S
C2561 H2548 0.930 . S
C2561 C2560 1.388 . S
C2561 C2562 1.390 . S
C2562 C2561 1.390 . S
C2562 C2563 1.394 . S
C2562 C2568 1.465 . S
C2563 C2558 1.399 . S
C2563 C2562 1.394 . S
C2563 C2564 1.516 . S
C2564 C2563 1.516 . S
C2564 C2565 1.502 . S
C2564 C2566 1.561 . S
C2564 C2567 1.526 . S
C2565 H2549 0.959 . S
C2565 H2550 0.959 . S
C2565 H2551 0.961 . S
C2565 C2564 1.502 . S
C2566 H2552 0.960 . S
C2566 H2553 0.961 . S
C2566 H2554 0.959 . S
C2566 C2564 1.561 . S
C2567 C2564 1.526 . S
C2567 C2568 1.396 . S
C2567 C2572 1.390 . S
C2568 C2562 1.465 . S
C2568 C2567 1.396 . S
C2568 C2569 1.399 . S
C2569 H2555 0.929 . S
C2569 C2568 1.399 . S
C2569 C2570 1.385 . S
C2570 H2556 0.931 . S
C2570 C2569 1.385 . S
C2570 C2571 1.389 . S
C2571 C2570 1.389 . S
C2571 C2572 1.387 . S
C2572 H2557 0.930 . S
C2572 C2567 1.390 . S
C2572 C2571 1.387 . S
H2573 C2585 0.930 . S
H2574 C2587 0.930 . S
H2575 C2588 0.930 . S
H2576 C2592 0.959 . S
H2577 C2592 0.959 . S
H2578 C2592 0.961 . S
H2579 C2593 0.960 . S
H2580 C2593 0.961 . S
H2581 C2593 0.959 . S
H2582 C2596 0.929 . S
H2583 C2597 0.931 . S
H2584 C2599 0.930 . S
C2585 H2573 0.930 . S
C2585 C2586 1.399 . S
C2585 C2590 1.399 . S
C2586 C2585 1.399 . S
C2586 C2587 1.376 . S
C2587 H2574 0.930 . S
C2587 C2586 1.376 . S
C2587 C2588 1.388 . S
C2588 H2575 0.930 . S
C2588 C2587 1.388 . S
C2588 C2589 1.390 . S
C2589 C2588 1.390 . S
C2589 C2590 1.394 . S
C2589 C2595 1.465 . S
C2590 C2585 1.399 . S
C2590 C2589 1.394 . S
C2590 C2591 1.516 . S
C2591 C2590 1.516 . S
C2591 C2592 1.502 . S
C2591 C2593 1.561 . S
C2591 C2594 1.526 . S
C2592 H2576 0.959 . S
C2592 H2577 0.959 . S
C2592 H2578 0.961 . S
C2592 C2591 1.502 . S
C2593 H2579 0.960 . S
C2593 H2580 0.961 . S
C2593 H2581 0.959 . S
C2593 C2591 1.561 . S
C2594 C2591 1.526 . S
C2594 C2595 1.396 . S
C2594 C2599 1.390 . S
C2595 C2589 1.465 . S
C2595 C2594 1.396 . S
C2595 C2596 1.399 . S
C2596 H2582 0.929 . S
C2596 C2595 1.399 . S
C2596 C2597 1.385 . S
C2597 H2583 0.931 . S
C2597 C2596 1.385 . S
C2597 C2598 1.389 . S
C2598 C2597 1.389 . S
C2598 C2599 1.387 . S
C2599 H2584 0.930 . S
C2599 C2594 1.390 . S
C2599 C2598 1.387 . S
H2600 C2612 0.930 . S
H2601 C2614 0.930 . S
H2602 C2615 0.930 . S
H2603 C2619 0.959 . S
H2604 C2619 0.959 . S
H2605 C2619 0.961 . S
H2606 C2620 0.960 . S
H2607 C2620 0.961 . S
H2608 C2620 0.959 . S
H2609 C2623 0.929 . S
H2610 C2624 0.931 . S
H2611 C2626 0.930 . S
C2612 H2600 0.930 . S
C2612 C2613 1.399 . S
C2612 C2617 1.399 . S
C2613 C2612 1.399 . S
C2613 C2614 1.376 . S
C2614 H2601 0.930 . S
C2614 C2613 1.376 . S
C2614 C2615 1.388 . S
C2615 H2602 0.930 . S
C2615 C2614 1.388 . S
C2615 C2616 1.390 . S
C2616 C2615 1.390 . S
C2616 C2617 1.394 . S
C2616 C2622 1.465 . S
C2617 C2612 1.399 . S
C2617 C2616 1.394 . S
C2617 C2618 1.516 . S
C2618 C2617 1.516 . S
C2618 C2619 1.502 . S
C2618 C2620 1.561 . S
C2618 C2621 1.526 . S
C2619 H2603 0.959 . S
C2619 H2604 0.959 . S
C2619 H2605 0.961 . S
C2619 C2618 1.502 . S
C2620 H2606 0.960 . S
C2620 H2607 0.961 . S
C2620 H2608 0.959 . S
C2620 C2618 1.561 . S
C2621 C2618 1.526 . S
C2621 C2622 1.396 . S
C2621 C2626 1.390 . S
C2622 C2616 1.465 . S
C2622 C2621 1.396 . S
C2622 C2623 1.399 . S
C2623 H2609 0.929 . S
C2623 C2622 1.399 . S
C2623 C2624 1.385 . S
C2624 H2610 0.931 . S
C2624 C2623 1.385 . S
C2624 C2625 1.389 . S
C2625 C2624 1.389 . S
C2625 C2626 1.387 . S
C2626 H2611 0.930 . S
C2626 C2621 1.390 . S
C2626 C2625 1.387 . S
H2627 C2639 0.930 . S
H2628 C2641 0.930 . S
H2629 C2642 0.930 . S
H2630 C2646 0.959 . S
H2631 C2646 0.959 . S
H2632 C2646 0.961 . S
H2633 C2647 0.960 . S
H2634 C2647 0.961 . S
H2635 C2647 0.959 . S
H2636 C2650 0.929 . S
H2637 C2651 0.931 . S
H2638 C2653 0.930 . S
C2639 H2627 0.930 . S
C2639 C2640 1.399 . S
C2639 C2644 1.399 . S
C2640 C2639 1.399 . S
C2640 C2641 1.376 . S
C2641 H2628 0.930 . S
C2641 C2640 1.376 . S
C2641 C2642 1.388 . S
C2642 H2629 0.930 . S
C2642 C2641 1.388 . S
C2642 C2643 1.390 . S
C2643 C2642 1.390 . S
C2643 C2644 1.394 . S
C2643 C2649 1.465 . S
C2644 C2639 1.399 . S
C2644 C2643 1.394 . S
C2644 C2645 1.516 . S
C2645 C2644 1.516 . S
C2645 C2646 1.502 . S
C2645 C2647 1.561 . S
C2645 C2648 1.526 . S
C2646 H2630 0.959 . S
C2646 H2631 0.959 . S
C2646 H2632 0.961 . S
C2646 C2645 1.502 . S
C2647 H2633 0.960 . S
C2647 H2634 0.961 . S
C2647 H2635 0.959 . S
C2647 C2645 1.561 . S
C2648 C2645 1.526 . S
C2648 C2649 1.396 . S
C2648 C2653 1.390 . S
C2649 C2643 1.465 . S
C2649 C2648 1.396 . S
C2649 C2650 1.399 . S
C2650 H2636 0.929 . S
C2650 C2649 1.399 . S
C2650 C2651 1.385 . S
C2651 H2637 0.931 . S
C2651 C2650 1.385 . S
C2651 C2652 1.389 . S
C2652 C2651 1.389 . S
C2652 C2653 1.387 . S
C2653 H2638 0.930 . S
C2653 C2648 1.390 . S
C2653 C2652 1.387 . S
H2654 C2666 0.930 . S
H2655 C2668 0.930 1_554 S
H2656 C2669 0.930 . S
H2657 C2673 0.959 . S
H2658 C2673 0.959 . S
H2659 C2673 0.961 . S
H2660 C2674 0.960 . S
H2661 C2674 0.961 . S
H2662 C2674 0.959 . S
H2663 C2677 0.929 . S
H2664 C2678 0.931 . S
H2665 C2680 0.930 . S
C2666 H2654 0.930 . S
C2666 C2667 1.399 . S
C2666 C2671 1.399 . S
C2667 C2666 1.399 . S
C2667 C2668 1.376 . S
C2668 H2655 0.930 1_556 S
C2668 C2667 1.376 . S
C2668 C2669 1.388 . S
C2669 H2656 0.930 . S
C2669 C2668 1.388 . S
C2669 C2670 1.390 . S
C2670 C2669 1.390 . S
C2670 C2671 1.394 . S
C2670 C2676 1.465 . S
C2671 C2666 1.399 . S
C2671 C2670 1.394 . S
C2671 C2672 1.516 . S
C2672 C2671 1.516 . S
C2672 C2673 1.502 . S
C2672 C2674 1.561 . S
C2672 C2675 1.526 . S
C2673 H2657 0.959 . S
C2673 H2658 0.959 . S
C2673 H2659 0.961 . S
C2673 C2672 1.502 . S
C2674 H2660 0.960 . S
C2674 H2661 0.961 . S
C2674 H2662 0.959 . S
C2674 C2672 1.561 . S
C2675 C2672 1.526 . S
C2675 C2676 1.396 . S
C2675 C2680 1.390 . S
C2676 C2670 1.465 . S
C2676 C2675 1.396 . S
C2676 C2677 1.399 . S
C2677 H2663 0.929 . S
C2677 C2676 1.399 . S
C2677 C2678 1.385 . S
C2678 H2664 0.931 . S
C2678 C2677 1.385 . S
C2678 C2679 1.389 . S
C2679 C2678 1.389 . S
C2679 C2680 1.387 . S
C2680 H2665 0.930 . S
C2680 C2675 1.390 . S
C2680 C2679 1.387 . S
H2681 C2693 0.930 . S
H2682 C2695 0.930 . S
H2683 C2696 0.930 . S
H2684 C2700 0.959 . S
H2685 C2700 0.959 . S
H2686 C2700 0.961 . S
H2687 C2701 0.960 . S
H2688 C2701 0.961 . S
H2689 C2701 0.959 . S
H2690 C2704 0.929 1_554 S
H2691 C2705 0.931 . S
H2692 C2707 0.930 . S
C2693 H2681 0.930 . S
C2693 C2694 1.399 . S
C2693 C2698 1.399 . S
C2694 C2693 1.399 . S
C2694 C2695 1.376 . S
C2695 H2682 0.930 . S
C2695 C2694 1.376 . S
C2695 C2696 1.388 . S
C2696 H2683 0.930 . S
C2696 C2695 1.388 . S
C2696 C2697 1.390 . S
C2697 C2696 1.390 . S
C2697 C2698 1.394 . S
C2697 C2703 1.465 . S
C2698 C2693 1.399 . S
C2698 C2697 1.394 . S
C2698 C2699 1.516 . S
C2699 C2698 1.516 . S
C2699 C2700 1.502 . S
C2699 C2701 1.561 . S
C2699 C2702 1.526 . S
C2700 H2684 0.959 . S
C2700 H2685 0.959 . S
C2700 H2686 0.961 . S
C2700 C2699 1.502 . S
C2701 H2687 0.960 . S
C2701 H2688 0.961 . S
C2701 H2689 0.959 . S
C2701 C2699 1.561 . S
C2702 C2699 1.526 . S
C2702 C2703 1.396 . S
C2702 C2707 1.390 . S
C2703 C2697 1.465 . S
C2703 C2702 1.396 . S
C2703 C2704 1.399 . S
C2704 H2690 0.929 1_556 S
C2704 C2703 1.399 . S
C2704 C2705 1.385 1_556 S
C2705 H2691 0.931 . S
C2705 C2704 1.385 1_554 S
C2705 C2706 1.389 1_554 S
C2706 C2705 1.389 1_556 S
C2706 C2707 1.387 . S
C2707 H2692 0.930 . S
C2707 C2702 1.390 . S
C2707 C2706 1.387 . S
H2708 C2720 0.930 . S
H2709 C2722 0.930 . S
H2710 C2723 0.930 . S
H2711 C2727 0.959 . S
H2712 C2727 0.959 . S
H2713 C2727 0.961 . S
H2714 C2728 0.960 . S
H2715 C2728 0.961 . S
H2716 C2728 0.959 . S
H2717 C2731 0.929 . S
H2718 C2732 0.931 . S
H2719 C2734 0.930 . S
C2720 H2708 0.930 . S
C2720 C2721 1.399 . S
C2720 C2725 1.399 . S
C2721 C2720 1.399 . S
C2721 C2722 1.376 . S
C2722 H2709 0.930 . S
C2722 C2721 1.376 . S
C2722 C2723 1.388 . S
C2723 H2710 0.930 . S
C2723 C2722 1.388 . S
C2723 C2724 1.390 . S
C2724 C2723 1.390 . S
C2724 C2725 1.394 . S
C2724 C2730 1.465 . S
C2725 C2720 1.399 . S
C2725 C2724 1.394 . S
C2725 C2726 1.516 . S
C2726 C2725 1.516 . S
C2726 C2727 1.502 . S
C2726 C2728 1.561 . S
C2726 C2729 1.526 . S
C2727 H2711 0.959 . S
C2727 H2712 0.959 . S
C2727 H2713 0.961 . S
C2727 C2726 1.502 . S
C2728 H2714 0.960 . S
C2728 H2715 0.961 . S
C2728 H2716 0.959 . S
C2728 C2726 1.561 . S
C2729 C2726 1.526 . S
C2729 C2730 1.396 . S
C2729 C2734 1.390 . S
C2730 C2724 1.465 . S
C2730 C2729 1.396 . S
C2730 C2731 1.399 . S
C2731 H2717 0.929 . S
C2731 C2730 1.399 . S
C2731 C2732 1.385 . S
C2732 H2718 0.931 . S
C2732 C2731 1.385 . S
C2732 C2733 1.389 . S
C2733 C2732 1.389 . S
C2733 C2734 1.387 . S
C2734 H2719 0.930 . S
C2734 C2729 1.390 . S
C2734 C2733 1.387 . S
H2735 C2747 0.930 . S
H2736 C2749 0.930 . S
H2737 C2750 0.930 . S
H2738 C2754 0.959 . S
H2739 C2754 0.959 . S
H2740 C2754 0.961 . S
H2741 C2755 0.960 . S
H2742 C2755 0.961 . S
H2743 C2755 0.959 . S
H2744 C2758 0.929 . S
H2745 C2759 0.931 . S
H2746 C2761 0.930 . S
C2747 H2735 0.930 . S
C2747 C2748 1.399 . S
C2747 C2752 1.399 . S
C2748 C2747 1.399 . S
C2748 C2749 1.376 . S
C2749 H2736 0.930 . S
C2749 C2748 1.376 . S
C2749 C2750 1.388 . S
C2750 H2737 0.930 . S
C2750 C2749 1.388 . S
C2750 C2751 1.390 . S
C2751 C2750 1.390 . S
C2751 C2752 1.394 . S
C2751 C2757 1.465 . S
C2752 C2747 1.399 . S
C2752 C2751 1.394 . S
C2752 C2753 1.516 . S
C2753 C2752 1.516 . S
C2753 C2754 1.502 . S
C2753 C2755 1.561 . S
C2753 C2756 1.526 . S
C2754 H2738 0.959 . S
C2754 H2739 0.959 . S
C2754 H2740 0.961 . S
C2754 C2753 1.502 . S
C2755 H2741 0.960 . S
C2755 H2742 0.961 . S
C2755 H2743 0.959 . S
C2755 C2753 1.561 . S
C2756 C2753 1.526 . S
C2756 C2757 1.396 . S
C2756 C2761 1.390 . S
C2757 C2751 1.465 . S
C2757 C2756 1.396 . S
C2757 C2758 1.399 . S
C2758 H2744 0.929 . S
C2758 C2757 1.399 . S
C2758 C2759 1.385 . S
C2759 H2745 0.931 . S
C2759 C2758 1.385 . S
C2759 C2760 1.389 . S
C2760 C2759 1.389 . S
C2760 C2761 1.387 . S
C2761 H2746 0.930 . S
C2761 C2756 1.390 . S
C2761 C2760 1.387 . S
H2762 C2774 0.930 . S
H2763 C2776 0.930 . S
H2764 C2777 0.930 . S
H2765 C2781 0.959 . S
H2766 C2781 0.959 . S
H2767 C2781 0.961 . S
H2768 C2782 0.960 . S
H2769 C2782 0.961 . S
H2770 C2782 0.959 . S
H2771 C2785 0.929 . S
H2772 C2786 0.931 . S
H2773 C2788 0.930 . S
C2774 H2762 0.930 . S
C2774 C2775 1.399 . S
C2774 C2779 1.399 . S
C2775 C2774 1.399 . S
C2775 C2776 1.376 . S
C2776 H2763 0.930 . S
C2776 C2775 1.376 . S
C2776 C2777 1.388 . S
C2777 H2764 0.930 . S
C2777 C2776 1.388 . S
C2777 C2778 1.390 . S
C2778 C2777 1.390 . S
C2778 C2779 1.394 . S
C2778 C2784 1.465 . S
C2779 C2774 1.399 . S
C2779 C2778 1.394 . S
C2779 C2780 1.516 . S
C2780 C2779 1.516 . S
C2780 C2781 1.502 . S
C2780 C2782 1.561 . S
C2780 C2783 1.526 . S
C2781 H2765 0.959 . S
C2781 H2766 0.959 . S
C2781 H2767 0.961 . S
C2781 C2780 1.502 . S
C2782 H2768 0.960 . S
C2782 H2769 0.961 . S
C2782 H2770 0.959 . S
C2782 C2780 1.561 . S
C2783 C2780 1.526 . S
C2783 C2784 1.396 . S
C2783 C2788 1.390 . S
C2784 C2778 1.465 . S
C2784 C2783 1.396 . S
C2784 C2785 1.399 . S
C2785 H2771 0.929 . S
C2785 C2784 1.399 . S
C2785 C2786 1.385 1_554 S
C2786 H2772 0.931 . S
C2786 C2785 1.385 1_556 S
C2786 C2787 1.389 1_556 S
C2787 C2786 1.389 1_554 S
C2787 C2788 1.387 . S
C2788 H2773 0.930 . S
C2788 C2783 1.390 . S
C2788 C2787 1.387 . S
H2789 C2801 0.930 . S
H2790 C2803 0.930 . S
H2791 C2804 0.930 . S
H2792 C2808 0.959 . S
H2793 C2808 0.959 . S
H2794 C2808 0.961 . S
H2795 C2809 0.960 . S
H2796 C2809 0.961 . S
H2797 C2809 0.959 . S
H2798 C2812 0.929 . S
H2799 C2813 0.931 1_556 S
H2800 C2815 0.930 . S
C2801 H2789 0.930 . S
C2801 C2802 1.399 . S
C2801 C2806 1.399 . S
C2802 C2801 1.399 . S
C2802 C2803 1.376 . S
C2803 H2790 0.930 . S
C2803 C2802 1.376 . S
C2803 C2804 1.388 . S
C2804 H2791 0.930 . S
C2804 C2803 1.388 . S
C2804 C2805 1.390 . S
C2805 C2804 1.390 . S
C2805 C2806 1.394 . S
C2805 C2811 1.465 . S
C2806 C2801 1.399 . S
C2806 C2805 1.394 . S
C2806 C2807 1.516 . S
C2807 C2806 1.516 . S
C2807 C2808 1.502 . S
C2807 C2809 1.561 . S
C2807 C2810 1.526 . S
C2808 H2792 0.959 . S
C2808 H2793 0.959 . S
C2808 H2794 0.961 . S
C2808 C2807 1.502 . S
C2809 H2795 0.960 . S
C2809 H2796 0.961 . S
C2809 H2797 0.959 . S
C2809 C2807 1.561 . S
C2810 C2807 1.526 . S
C2810 C2811 1.396 . S
C2810 C2815 1.390 . S
C2811 C2805 1.465 . S
C2811 C2810 1.396 . S
C2811 C2812 1.399 . S
C2812 H2798 0.929 . S
C2812 C2811 1.399 . S
C2812 C2813 1.385 . S
C2813 H2799 0.931 1_554 S
C2813 C2812 1.385 . S
C2813 C2814 1.389 . S
C2814 C2813 1.389 . S
C2814 C2815 1.387 . S
C2815 H2800 0.930 . S
C2815 C2810 1.390 . S
C2815 C2814 1.387 . S
H2816 C2828 0.930 . S
H2817 C2830 0.930 . S
H2818 C2831 0.930 . S
H2819 C2835 0.959 . S
H2820 C2835 0.959 . S
H2821 C2835 0.961 . S
H2822 C2836 0.960 . S
H2823 C2836 0.961 . S
H2824 C2836 0.959 . S
H2825 C2839 0.929 . S
H2826 C2840 0.931 . S
H2827 C2842 0.930 . S
C2828 H2816 0.930 . S
C2828 C2829 1.399 . S
C2828 C2833 1.399 . S
C2829 C2828 1.399 . S
C2829 C2830 1.376 . S
C2830 H2817 0.930 . S
C2830 C2829 1.376 . S
C2830 C2831 1.388 . S
C2831 H2818 0.930 . S
C2831 C2830 1.388 . S
C2831 C2832 1.390 . S
C2832 C2831 1.390 . S
C2832 C2833 1.394 . S
C2832 C2838 1.465 . S
C2833 C2828 1.399 . S
C2833 C2832 1.394 . S
C2833 C2834 1.516 . S
C2834 C2833 1.516 . S
C2834 C2835 1.502 . S
C2834 C2836 1.561 . S
C2834 C2837 1.526 . S
C2835 H2819 0.959 . S
C2835 H2820 0.959 . S
C2835 H2821 0.961 . S
C2835 C2834 1.502 . S
C2836 H2822 0.960 . S
C2836 H2823 0.961 . S
C2836 H2824 0.959 . S
C2836 C2834 1.561 . S
C2837 C2834 1.526 . S
C2837 C2838 1.396 . S
C2837 C2842 1.390 . S
C2838 C2832 1.465 . S
C2838 C2837 1.396 . S
C2838 C2839 1.399 . S
C2839 H2825 0.929 . S
C2839 C2838 1.399 . S
C2839 C2840 1.385 . S
C2840 H2826 0.931 . S
C2840 C2839 1.385 . S
C2840 C2841 1.389 . S
C2841 C2840 1.389 . S
C2841 C2842 1.387 . S
C2842 H2827 0.930 . S
C2842 C2837 1.390 . S
C2842 C2841 1.387 . S
H2843 C2855 0.930 . S
H2844 C2857 0.930 . S
H2845 C2858 0.930 . S
H2846 C2862 0.965 . S
H2847 C2862 0.959 1_556 S
H2848 C2862 0.961 . S
H2849 C2863 0.960 . S
H2850 C2863 0.961 . S
H2851 C2863 0.959 . S
H2852 C2866 0.929 . S
H2853 C2867 0.931 . S
H2854 C2869 0.930 . S
C2855 H2843 0.930 . S
C2855 C2856 1.399 . S
C2855 C2860 1.399 . S
C2856 C2855 1.399 . S
C2856 C2857 1.376 . S
C2857 H2844 0.930 . S
C2857 C2856 1.376 . S
C2857 C2858 1.388 . S
C2858 H2845 0.930 . S
C2858 C2857 1.388 . S
C2858 C2859 1.390 . S
C2859 C2858 1.390 . S
C2859 C2860 1.394 . S
C2859 C2865 1.465 . S
C2860 C2855 1.399 . S
C2860 C2859 1.394 . S
C2860 C2861 1.516 . S
C2861 C2860 1.516 . S
C2861 C2862 1.502 . S
C2861 C2863 1.561 . S
C2861 C2864 1.526 . S
C2862 H2846 0.965 . S
C2862 H2847 0.959 1_554 S
C2862 H2848 0.961 . S
C2862 C2861 1.502 . S
C2863 H2849 0.960 . S
C2863 H2850 0.961 . S
C2863 H2851 0.959 . S
C2863 C2861 1.561 . S
C2864 C2861 1.526 . S
C2864 C2865 1.396 . S
C2864 C2869 1.390 . S
C2865 C2859 1.465 . S
C2865 C2864 1.396 . S
C2865 C2866 1.399 . S
C2866 H2852 0.929 . S
C2866 C2865 1.399 . S
C2866 C2867 1.385 . S
C2867 H2853 0.931 . S
C2867 C2866 1.385 . S
C2867 C2868 1.389 . S
C2868 C2867 1.389 . S
C2868 C2869 1.387 . S
C2869 H2854 0.930 . S
C2869 C2864 1.390 . S
C2869 C2868 1.387 . S
H2870 C2882 0.930 . S
H2871 C2884 0.930 . S
H2872 C2885 0.930 . S
H2873 C2889 0.959 . S
H2874 C2889 0.959 . S
H2875 C2889 0.961 . S
H2876 C2890 0.960 . S
H2877 C2890 0.961 . S
H2878 C2890 0.959 . S
H2879 C2893 0.929 . S
H2880 C2894 0.931 . S
H2881 C2896 0.930 . S
C2882 H2870 0.930 . S
C2882 C2883 1.399 . S
C2882 C2887 1.399 . S
C2883 C2882 1.399 . S
C2883 C2884 1.376 . S
C2884 H2871 0.930 . S
C2884 C2883 1.376 . S
C2884 C2885 1.388 . S
C2885 H2872 0.930 . S
C2885 C2884 1.388 . S
C2885 C2886 1.390 . S
C2886 C2885 1.390 . S
C2886 C2887 1.394 . S
C2886 C2892 1.465 . S
C2887 C2882 1.399 . S
C2887 C2886 1.394 . S
C2887 C2888 1.516 . S
C2888 C2887 1.516 . S
C2888 C2889 1.502 . S
C2888 C2890 1.561 . S
C2888 C2891 1.526 . S
C2889 H2873 0.959 . S
C2889 H2874 0.959 . S
C2889 H2875 0.961 . S
C2889 C2888 1.502 . S
C2890 H2876 0.960 . S
C2890 H2877 0.961 . S
C2890 H2878 0.959 . S
C2890 C2888 1.561 . S
C2891 C2888 1.526 . S
C2891 C2892 1.396 . S
C2891 C2896 1.390 . S
C2892 C2886 1.465 . S
C2892 C2891 1.396 . S
C2892 C2893 1.399 . S
C2893 H2879 0.929 . S
C2893 C2892 1.399 . S
C2893 C2894 1.385 . S
C2894 H2880 0.931 . S
C2894 C2893 1.385 . S
C2894 C2895 1.389 . S
C2895 C2894 1.389 . S
C2895 C2896 1.387 . S
C2896 H2881 0.930 . S
C2896 C2891 1.390 . S
C2896 C2895 1.387 . S
H2897 C2909 0.930 . S
H2898 C2911 0.930 . S
H2899 C2912 0.930 . S
H2900 C2916 0.959 . S
H2901 C2916 0.959 . S
H2902 C2916 0.961 . S
H2903 C2917 0.960 . S
H2904 C2917 0.961 . S
H2905 C2917 0.959 . S
H2906 C2920 0.929 . S
H2907 C2921 0.931 . S
H2908 C2923 0.930 . S
C2909 H2897 0.930 . S
C2909 C2910 1.399 . S
C2909 C2914 1.399 . S
C2910 C2909 1.399 . S
C2910 C2911 1.376 . S
C2911 H2898 0.930 . S
C2911 C2910 1.376 . S
C2911 C2912 1.388 . S
C2912 H2899 0.930 . S
C2912 C2911 1.388 . S
C2912 C2913 1.390 . S
C2913 C2912 1.390 . S
C2913 C2914 1.394 . S
C2913 C2919 1.465 . S
C2914 C2909 1.399 . S
C2914 C2913 1.394 . S
C2914 C2915 1.516 . S
C2915 C2914 1.516 . S
C2915 C2916 1.502 . S
C2915 C2917 1.561 . S
C2915 C2918 1.526 . S
C2916 H2900 0.959 . S
C2916 H2901 0.959 . S
C2916 H2902 0.961 . S
C2916 C2915 1.502 . S
C2917 H2903 0.960 . S
C2917 H2904 0.961 . S
C2917 H2905 0.959 . S
C2917 C2915 1.561 . S
C2918 C2915 1.526 . S
C2918 C2919 1.396 . S
C2918 C2923 1.390 . S
C2919 C2913 1.465 . S
C2919 C2918 1.396 . S
C2919 C2920 1.399 . S
C2920 H2906 0.929 . S
C2920 C2919 1.399 . S
C2920 C2921 1.385 . S
C2921 H2907 0.931 . S
C2921 C2920 1.385 . S
C2921 C2922 1.389 . S
C2922 C2921 1.389 . S
C2922 C2923 1.387 . S
C2923 H2908 0.930 . S
C2923 C2918 1.390 . S
C2923 C2922 1.387 . S
H2924 C2936 0.930 1_545 S
H2925 C2938 0.930 . S
H2926 C2939 0.930 . S
H2927 C2943 0.927 1_565 S
H2928 C2943 0.959 . S
H2929 C2943 0.961 . S
H2930 C2944 0.960 . S
H2931 C2944 0.961 . S
H2932 C2944 0.959 . S
H2933 C2947 0.929 . S
H2934 C2948 0.931 . S
H2935 C2950 0.930 1_545 S
C2936 H2924 0.930 1_565 S
C2936 C2937 1.399 . S
C2936 C2941 1.399 . S
C2937 C2936 1.399 . S
C2937 C2938 1.376 . S
C2938 H2925 0.930 . S
C2938 C2937 1.376 . S
C2938 C2939 1.388 . S
C2939 H2926 0.930 . S
C2939 C2938 1.388 . S
C2939 C2940 1.390 . S
C2940 C2939 1.390 . S
C2940 C2941 1.394 . S
C2940 C2946 1.465 . S
C2941 C2936 1.399 . S
C2941 C2940 1.394 . S
C2941 C2942 1.497 1_565 S
C2942 C2941 1.497 1_545 S
C2942 C2943 1.515 . S
C2942 C2944 1.585 . S
C2942 C2945 1.506 1_545 S
C2943 H2927 0.927 1_545 S
C2943 H2928 0.959 . S
C2943 H2929 0.961 . S
C2943 C2942 1.515 . S
C2944 H2930 0.960 . S
C2944 H2931 0.961 . S
C2944 H2932 0.959 . S
C2944 C2942 1.585 . S
C2945 C2942 1.506 1_565 S
C2945 C2946 1.396 . S
C2945 C2950 1.390 . S
C2946 C2940 1.465 . S
C2946 C2945 1.396 . S
C2946 C2947 1.399 . S
C2947 H2933 0.929 . S
C2947 C2946 1.399 . S
C2947 C2948 1.385 . S
C2948 H2934 0.931 . S
C2948 C2947 1.385 . S
C2948 C2949 1.389 . S
C2949 C2948 1.389 . S
C2949 C2950 1.387 . S
C2950 H2935 0.930 1_565 S
C2950 C2945 1.390 . S
C2950 C2949 1.387 . S
H2951 C2963 0.930 . S
H2952 C2965 0.930 . S
H2953 C2966 0.930 . S
H2954 C2970 0.959 . S
H2955 C2970 0.959 . S
H2956 C2970 0.961 . S
H2957 C2971 0.960 . S
H2958 C2971 0.961 . S
H2959 C2971 0.959 . S
H2960 C2974 0.929 . S
H2961 C2975 0.931 . S
H2962 C2977 0.930 . S
C2963 H2951 0.930 . S
C2963 C2964 1.399 . S
C2963 C2968 1.399 . S
C2964 C2963 1.399 . S
C2964 C2965 1.376 . S
C2965 H2952 0.930 . S
C2965 C2964 1.376 . S
C2965 C2966 1.388 . S
C2966 H2953 0.930 . S
C2966 C2965 1.388 . S
C2966 C2967 1.390 . S
C2967 C2966 1.390 . S
C2967 C2968 1.394 . S
C2967 C2973 1.465 . S
C2968 C2963 1.399 . S
C2968 C2967 1.394 . S
C2968 C2969 1.516 . S
C2969 C2968 1.516 . S
C2969 C2970 1.502 . S
C2969 C2971 1.561 . S
C2969 C2972 1.526 . S
C2970 H2954 0.959 . S
C2970 H2955 0.959 . S
C2970 H2956 0.961 . S
C2970 C2969 1.502 . S
C2971 H2957 0.960 . S
C2971 H2958 0.961 . S
C2971 H2959 0.959 . S
C2971 C2969 1.561 . S
C2972 C2969 1.526 . S
C2972 C2973 1.396 . S
C2972 C2977 1.390 . S
C2973 C2967 1.465 . S
C2973 C2972 1.396 . S
C2973 C2974 1.399 . S
C2974 H2960 0.929 . S
C2974 C2973 1.399 . S
C2974 C2975 1.385 . S
C2975 H2961 0.931 . S
C2975 C2974 1.385 . S
C2975 C2976 1.389 . S
C2976 C2975 1.389 . S
C2976 C2977 1.387 . S
C2977 H2962 0.930 . S
C2977 C2972 1.390 . S
C2977 C2976 1.387 . S
H2978 C2990 0.930 1_565 S
H2979 C2992 0.930 . S
H2980 C2993 0.930 . S
H2981 C2997 0.959 1_545 S
H2982 C2997 0.959 . S
H2983 C2997 0.961 . S
H2984 C2998 0.960 . S
H2985 C2998 0.961 . S
H2986 C2998 0.959 . S
H2987 C3001 0.929 . S
H2988 C3002 0.931 . S
H2989 C3004 0.930 1_565 S
C2990 H2978 0.930 1_545 S
C2990 C2991 1.399 . S
C2990 C2995 1.399 . S
C2991 C2990 1.399 . S
C2991 C2992 1.376 . S
C2992 H2979 0.930 . S
C2992 C2991 1.376 . S
C2992 C2993 1.388 . S
C2993 H2980 0.930 . S
C2993 C2992 1.388 . S
C2993 C2994 1.390 . S
C2994 C2993 1.390 . S
C2994 C2995 1.394 . S
C2994 C3000 1.465 . S
C2995 C2990 1.399 . S
C2995 C2994 1.394 . S
C2995 C2996 1.533 . S
C2996 C2995 1.533 . S
C2996 C2997 1.494 1_545 S
C2996 C2998 1.538 1_545 S
C2996 C2999 1.542 . S
C2997 H2981 0.959 1_565 S
C2997 H2982 0.959 . S
C2997 H2983 0.961 . S
C2997 C2996 1.494 1_565 S
C2998 H2984 0.960 . S
C2998 H2985 0.961 . S
C2998 H2986 0.959 . S
C2998 C2996 1.538 1_565 S
C2999 C2996 1.542 . S
C2999 C3000 1.396 . S
C2999 C3004 1.390 . S
C3000 C2994 1.465 . S
C3000 C2999 1.396 . S
C3000 C3001 1.399 . S
C3001 H2987 0.929 . S
C3001 C3000 1.399 . S
C3001 C3002 1.385 . S
C3002 H2988 0.931 . S
C3002 C3001 1.385 . S
C3002 C3003 1.389 . S
C3003 C3002 1.389 . S
C3003 C3004 1.387 . S
C3004 H2989 0.930 1_545 S
C3004 C2999 1.390 . S
C3004 C3003 1.387 . S
H3005 C3017 0.930 . S
H3006 C3019 0.930 . S
H3007 C3020 0.930 . S
H3008 C3024 0.959 . S
H3009 C3024 0.959 . S
H3010 C3024 0.961 . S
H3011 C3025 0.960 . S
H3012 C3025 0.961 . S
H3013 C3025 0.959 . S
H3014 C3028 0.929 . S
H3015 C3029 0.931 . S
H3016 C3031 0.930 . S
C3017 H3005 0.930 . S
C3017 C3018 1.399 . S
C3017 C3022 1.399 . S
C3018 C3017 1.399 . S
C3018 C3019 1.376 . S
C3019 H3006 0.930 . S
C3019 C3018 1.376 . S
C3019 C3020 1.388 . S
C3020 H3007 0.930 . S
C3020 C3019 1.388 . S
C3020 C3021 1.390 . S
C3021 C3020 1.390 . S
C3021 C3022 1.394 . S
C3021 C3027 1.465 . S
C3022 C3017 1.399 . S
C3022 C3021 1.394 . S
C3022 C3023 1.516 . S
C3023 C3022 1.516 . S
C3023 C3024 1.502 . S
C3023 C3025 1.561 . S
C3023 C3026 1.526 . S
C3024 H3008 0.959 . S
C3024 H3009 0.959 . S
C3024 H3010 0.961 . S
C3024 C3023 1.502 . S
C3025 H3011 0.960 . S
C3025 H3012 0.961 . S
C3025 H3013 0.959 . S
C3025 C3023 1.561 . S
C3026 C3023 1.526 . S
C3026 C3027 1.396 . S
C3026 C3031 1.390 . S
C3027 C3021 1.465 . S
C3027 C3026 1.396 . S
C3027 C3028 1.399 . S
C3028 H3014 0.929 . S
C3028 C3027 1.399 . S
C3028 C3029 1.385 . S
C3029 H3015 0.931 . S
C3029 C3028 1.385 . S
C3029 C3030 1.389 . S
C3030 C3029 1.389 . S
C3030 C3031 1.387 . S
C3031 H3016 0.930 . S
C3031 C3026 1.390 . S
C3031 C3030 1.387 . S
H3032 C3044 0.930 . S
H3033 C3046 0.930 . S
H3034 C3047 0.930 . S
H3035 C3051 0.959 . S
H3036 C3051 0.959 . S
H3037 C3051 0.961 . S
H3038 C3052 0.960 . S
H3039 C3052 0.961 . S
H3040 C3052 0.959 . S
H3041 C3055 0.929 . S
H3042 C3056 0.931 . S
H3043 C3058 0.930 . S
C3044 H3032 0.930 . S
C3044 C3045 1.399 . S
C3044 C3049 1.399 . S
C3045 C3044 1.399 . S
C3045 C3046 1.376 . S
C3046 H3033 0.930 . S
C3046 C3045 1.376 . S
C3046 C3047 1.388 . S
C3047 H3034 0.930 . S
C3047 C3046 1.388 . S
C3047 C3048 1.390 . S
C3048 C3047 1.390 . S
C3048 C3049 1.394 . S
C3048 C3054 1.465 . S
C3049 C3044 1.399 . S
C3049 C3048 1.394 . S
C3049 C3050 1.516 . S
C3050 C3049 1.516 . S
C3050 C3051 1.502 . S
C3050 C3052 1.561 . S
C3050 C3053 1.526 . S
C3051 H3035 0.959 . S
C3051 H3036 0.959 . S
C3051 H3037 0.961 . S
C3051 C3050 1.502 . S
C3052 H3038 0.960 . S
C3052 H3039 0.961 . S
C3052 H3040 0.959 . S
C3052 C3050 1.561 . S
C3053 C3050 1.526 . S
C3053 C3054 1.396 . S
C3053 C3058 1.390 . S
C3054 C3048 1.465 . S
C3054 C3053 1.396 . S
C3054 C3055 1.399 . S
C3055 H3041 0.929 . S
C3055 C3054 1.399 . S
C3055 C3056 1.385 . S
C3056 H3042 0.931 . S
C3056 C3055 1.385 . S
C3056 C3057 1.389 . S
C3057 C3056 1.389 . S
C3057 C3058 1.387 . S
C3058 H3043 0.930 . S
C3058 C3053 1.390 . S
C3058 C3057 1.387 . S
H3059 C3071 0.930 . S
H3060 C3073 0.930 . S
H3061 C3074 0.930 . S
H3062 C3078 0.959 . S
H3063 C3078 0.959 . S
H3064 C3078 0.961 . S
H3065 C3079 0.960 . S
H3066 C3079 0.961 . S
H3067 C3079 0.959 . S
H3068 C3082 0.929 . S
H3069 C3083 0.931 . S
H3070 C3085 0.930 . S
C3071 H3059 0.930 . S
C3071 C3072 1.399 . S
C3071 C3076 1.399 . S
C3072 C3071 1.399 . S
C3072 C3073 1.376 . S
C3073 H3060 0.930 . S
C3073 C3072 1.376 . S
C3073 C3074 1.388 . S
C3074 H3061 0.930 . S
C3074 C3073 1.388 . S
C3074 C3075 1.390 . S
C3075 C3074 1.390 . S
C3075 C3076 1.394 . S
C3075 C3081 1.465 . S
C3076 C3071 1.399 . S
C3076 C3075 1.394 . S
C3076 C3077 1.516 . S
C3077 C3076 1.516 . S
C3077 C3078 1.502 . S
C3077 C3079 1.561 . S
C3077 C3080 1.526 . S
C3078 H3062 0.959 . S
C3078 H3063 0.959 . S
C3078 H3064 0.961 . S
C3078 C3077 1.502 . S
C3079 H3065 0.960 . S
C3079 H3066 0.961 . S
C3079 H3067 0.959 . S
C3079 C3077 1.561 . S
C3080 C3077 1.526 . S
C3080 C3081 1.396 . S
C3080 C3085 1.390 . S
C3081 C3075 1.465 . S
C3081 C3080 1.396 . S
C3081 C3082 1.399 . S
C3082 H3068 0.929 . S
C3082 C3081 1.399 . S
C3082 C3083 1.385 . S
C3083 H3069 0.931 . S
C3083 C3082 1.385 . S
C3083 C3084 1.389 . S
C3084 C3083 1.389 . S
C3084 C3085 1.387 . S
C3085 H3070 0.930 . S
C3085 C3080 1.390 . S
C3085 C3084 1.387 . S
H3086 C3098 0.930 . S
H3087 C3100 0.930 . S
H3088 C3101 0.930 . S
H3089 C3105 0.959 . S
H3090 C3105 0.959 . S
H3091 C3105 0.961 . S
H3092 C3106 0.960 . S
H3093 C3106 0.961 . S
H3094 C3106 0.959 . S
H3095 C3109 0.929 . S
H3096 C3110 0.931 . S
H3097 C3112 0.930 . S
C3098 H3086 0.930 . S
C3098 C3099 1.399 . S
C3098 C3103 1.399 . S
C3099 C3098 1.399 . S
C3099 C3100 1.376 . S
C3100 H3087 0.930 . S
C3100 C3099 1.376 . S
C3100 C3101 1.388 . S
C3101 H3088 0.930 . S
C3101 C3100 1.388 . S
C3101 C3102 1.390 . S
C3102 C3101 1.390 . S
C3102 C3103 1.394 . S
C3102 C3108 1.465 . S
C3103 C3098 1.399 . S
C3103 C3102 1.394 . S
C3103 C3104 1.516 . S
C3104 C3103 1.516 . S
C3104 C3105 1.502 . S
C3104 C3106 1.561 . S
C3104 C3107 1.526 . S
C3105 H3089 0.959 . S
C3105 H3090 0.959 . S
C3105 H3091 0.961 . S
C3105 C3104 1.502 . S
C3106 H3092 0.960 . S
C3106 H3093 0.961 . S
C3106 H3094 0.959 . S
C3106 C3104 1.561 . S
C3107 C3104 1.526 . S
C3107 C3108 1.396 . S
C3107 C3112 1.390 . S
C3108 C3102 1.465 . S
C3108 C3107 1.396 . S
C3108 C3109 1.399 . S
C3109 H3095 0.929 . S
C3109 C3108 1.399 . S
C3109 C3110 1.385 . S
C3110 H3096 0.931 . S
C3110 C3109 1.385 . S
C3110 C3111 1.389 . S
C3111 C3110 1.389 . S
C3111 C3112 1.387 . S
C3112 H3097 0.930 . S
C3112 C3107 1.390 . S
C3112 C3111 1.387 . S
H3113 C3125 0.930 . S
H3114 C3127 0.930 . S
H3115 C3128 0.930 . S
H3116 C3132 0.959 . S
H3117 C3132 0.959 . S
H3118 C3132 0.961 . S
H3119 C3133 0.960 . S
H3120 C3133 0.961 . S
H3121 C3133 0.959 . S
H3122 C3136 0.929 . S
H3123 C3137 0.931 . S
H3124 C3139 0.930 . S
C3125 H3113 0.930 . S
C3125 C3126 1.399 . S
C3125 C3130 1.399 . S
C3126 C3125 1.399 . S
C3126 C3127 1.376 . S
C3127 H3114 0.930 . S
C3127 C3126 1.376 . S
C3127 C3128 1.388 . S
C3128 H3115 0.930 . S
C3128 C3127 1.388 . S
C3128 C3129 1.390 . S
C3129 C3128 1.390 . S
C3129 C3130 1.394 . S
C3129 C3135 1.465 . S
C3130 C3125 1.399 . S
C3130 C3129 1.394 . S
C3130 C3131 1.516 . S
C3131 C3130 1.516 . S
C3131 C3132 1.502 . S
C3131 C3133 1.561 . S
C3131 C3134 1.526 . S
C3132 H3116 0.959 . S
C3132 H3117 0.959 . S
C3132 H3118 0.961 . S
C3132 C3131 1.502 . S
C3133 H3119 0.960 . S
C3133 H3120 0.961 . S
C3133 H3121 0.959 . S
C3133 C3131 1.561 . S
C3134 C3131 1.526 . S
C3134 C3135 1.396 . S
C3134 C3139 1.390 . S
C3135 C3129 1.465 . S
C3135 C3134 1.396 . S
C3135 C3136 1.399 . S
C3136 H3122 0.929 . S
C3136 C3135 1.399 . S
C3136 C3137 1.385 . S
C3137 H3123 0.931 . S
C3137 C3136 1.385 . S
C3137 C3138 1.389 . S
C3138 C3137 1.389 . S
C3138 C3139 1.387 . S
C3139 H3124 0.930 . S
C3139 C3134 1.390 . S
C3139 C3138 1.387 . S
H3140 C3152 0.930 1_545 S
H3141 C3154 0.930 . S
H3142 C3155 0.930 . S
H3143 C3159 0.959 . S
H3144 C3159 0.959 . S
H3145 C3159 0.961 . S
H3146 C3160 0.946 1_545 S
H3147 C3160 0.942 1_545 S
H3148 C3160 0.994 . S
H3149 C3163 0.929 . S
H3150 C3164 0.931 . S
H3151 C3166 0.930 1_545 S
C3152 H3140 0.930 1_565 S
C3152 C3153 1.399 . S
C3152 C3157 1.399 . S
C3153 C3152 1.399 . S
C3153 C3154 1.376 . S
C3154 H3141 0.930 . S
C3154 C3153 1.376 . S
C3154 C3155 1.388 . S
C3155 H3142 0.930 . S
C3155 C3154 1.388 . S
C3155 C3156 1.390 . S
C3156 C3155 1.390 . S
C3156 C3157 1.394 . S
C3156 C3162 1.465 . S
C3157 C3152 1.399 . S
C3157 C3156 1.394 . S
C3157 C3158 1.516 . S
C3158 C3157 1.516 . S
C3158 C3159 1.502 1_565 S
C3158 C3160 1.564 . S
C3158 C3161 1.526 . S
C3159 H3143 0.959 . S
C3159 H3144 0.959 . S
C3159 H3145 0.961 . S
C3159 C3158 1.502 1_545 S
C3160 H3146 0.946 1_565 S
C3160 H3147 0.942 1_565 S
C3160 H3148 0.994 . S
C3160 C3158 1.564 . S
C3161 C3158 1.526 . S
C3161 C3162 1.396 . S
C3161 C3166 1.390 . S
C3162 C3156 1.465 . S
C3162 C3161 1.396 . S
C3162 C3163 1.399 . S
C3163 H3149 0.929 . S
C3163 C3162 1.399 . S
C3163 C3164 1.385 . S
C3164 H3150 0.931 . S
C3164 C3163 1.385 . S
C3164 C3165 1.389 . S
C3165 C3164 1.389 . S
C3165 C3166 1.387 . S
C3166 H3151 0.930 1_565 S
C3166 C3161 1.390 . S
C3166 C3165 1.387 . S
H3167 C3179 0.930 . S
H3168 C3181 0.930 . S
H3169 C3182 0.930 . S
H3170 C3186 0.959 . S
H3171 C3186 0.959 . S
H3172 C3186 0.961 . S
H3173 C3187 0.960 . S
H3174 C3187 0.961 . S
H3175 C3187 0.959 . S
H3176 C3190 0.929 . S
H3177 C3191 0.931 . S
H3178 C3193 0.930 . S
C3179 H3167 0.930 . S
C3179 C3180 1.399 . S
C3179 C3184 1.399 . S
C3180 C3179 1.399 . S
C3180 C3181 1.376 . S
C3181 H3168 0.930 . S
C3181 C3180 1.376 . S
C3181 C3182 1.388 . S
C3182 H3169 0.930 . S
C3182 C3181 1.388 . S
C3182 C3183 1.390 . S
C3183 C3182 1.390 . S
C3183 C3184 1.394 . S
C3183 C3189 1.465 . S
C3184 C3179 1.399 . S
C3184 C3183 1.394 . S
C3184 C3185 1.516 . S
C3185 C3184 1.516 . S
C3185 C3186 1.502 . S
C3185 C3187 1.561 . S
C3185 C3188 1.526 . S
C3186 H3170 0.959 . S
C3186 H3171 0.959 . S
C3186 H3172 0.961 . S
C3186 C3185 1.502 . S
C3187 H3173 0.960 . S
C3187 H3174 0.961 . S
C3187 H3175 0.959 . S
C3187 C3185 1.561 . S
C3188 C3185 1.526 . S
C3188 C3189 1.396 . S
C3188 C3193 1.390 . S
C3189 C3183 1.465 . S
C3189 C3188 1.396 . S
C3189 C3190 1.399 . S
C3190 H3176 0.929 . S
C3190 C3189 1.399 . S
C3190 C3191 1.385 . S
C3191 H3177 0.931 . S
C3191 C3190 1.385 . S
C3191 C3192 1.389 . S
C3192 C3191 1.389 . S
C3192 C3193 1.387 . S
C3193 H3178 0.930 . S
C3193 C3188 1.390 . S
C3193 C3192 1.387 . S
H3194 C3206 0.930 1_565 S
H3195 C3208 0.930 . S
H3196 C3209 0.930 . S
H3197 C3213 0.959 1_545 S
H3198 C3213 0.959 . S
H3199 C3213 0.961 . S
H3200 C3214 0.960 . S
H3201 C3214 0.961 . S
H3202 C3214 0.959 . S
H3203 C3217 0.929 . S
H3204 C3218 0.931 . S
H3205 C3220 0.930 1_565 S
C3206 H3194 0.930 1_545 S
C3206 C3207 1.399 . S
C3206 C3211 1.399 . S
C3207 C3206 1.399 . S
C3207 C3208 1.376 . S
C3208 H3195 0.930 . S
C3208 C3207 1.376 . S
C3208 C3209 1.388 . S
C3209 H3196 0.930 . S
C3209 C3208 1.388 . S
C3209 C3210 1.390 . S
C3210 C3209 1.390 . S
C3210 C3211 1.394 . S
C3210 C3216 1.465 . S
C3211 C3206 1.399 . S
C3211 C3210 1.394 . S
C3211 C3212 1.503 1_545 S
C3212 C3211 1.503 1_565 S
C3212 C3213 1.510 . S
C3212 C3214 1.577 . S
C3212 C3215 1.513 1_565 S
C3213 H3197 0.959 1_565 S
C3213 H3198 0.959 . S
C3213 H3199 0.961 . S
C3213 C3212 1.510 . S
C3214 H3200 0.960 . S
C3214 H3201 0.961 . S
C3214 H3202 0.959 . S
C3214 C3212 1.577 . S
C3215 C3212 1.513 1_545 S
C3215 C3216 1.396 . S
C3215 C3220 1.390 . S
C3216 C3210 1.465 . S
C3216 C3215 1.396 . S
C3216 C3217 1.399 . S
C3217 H3203 0.929 . S
C3217 C3216 1.399 . S
C3217 C3218 1.385 . S
C3218 H3204 0.931 . S
C3218 C3217 1.385 . S
C3218 C3219 1.389 . S
C3219 C3218 1.389 . S
C3219 C3220 1.387 . S
C3220 H3205 0.930 1_545 S
C3220 C3215 1.390 . S
C3220 C3219 1.387 . S
H3221 C3233 0.930 . S
H3222 C3235 0.930 . S
H3223 C3236 0.930 . S
H3224 C3240 0.959 . S
H3225 C3240 0.959 . S
H3226 C3240 0.961 . S
H3227 C3241 0.960 . S
H3228 C3241 0.961 . S
H3229 C3241 0.959 . S
H3230 C3244 0.929 . S
H3231 C3245 0.931 . S
H3232 C3247 0.930 . S
C3233 H3221 0.930 . S
C3233 C3234 1.399 . S
C3233 C3238 1.399 . S
C3234 C3233 1.399 . S
C3234 C3235 1.376 . S
C3235 H3222 0.930 . S
C3235 C3234 1.376 . S
C3235 C3236 1.388 . S
C3236 H3223 0.930 . S
C3236 C3235 1.388 . S
C3236 C3237 1.390 . S
C3237 C3236 1.390 . S
C3237 C3238 1.394 . S
C3237 C3243 1.465 . S
C3238 C3233 1.399 . S
C3238 C3237 1.394 . S
C3238 C3239 1.516 . S
C3239 C3238 1.516 . S
C3239 C3240 1.502 . S
C3239 C3241 1.561 . S
C3239 C3242 1.526 . S
C3240 H3224 0.959 . S
C3240 H3225 0.959 . S
C3240 H3226 0.961 . S
C3240 C3239 1.502 . S
C3241 H3227 0.960 . S
C3241 H3228 0.961 . S
C3241 H3229 0.959 . S
C3241 C3239 1.561 . S
C3242 C3239 1.526 . S
C3242 C3243 1.396 . S
C3242 C3247 1.390 . S
C3243 C3237 1.465 . S
C3243 C3242 1.396 . S
C3243 C3244 1.399 . S
C3244 H3230 0.929 . S
C3244 C3243 1.399 . S
C3244 C3245 1.385 . S
C3245 H3231 0.931 . S
C3245 C3244 1.385 . S
C3245 C3246 1.389 . S
C3246 C3245 1.389 . S
C3246 C3247 1.387 . S
C3247 H3232 0.930 . S
C3247 C3242 1.390 . S
C3247 C3246 1.387 . S
C1101 C20 1.350 . S
C1113 C88 1.381 . S
C1128 C122 1.350 . S
C1140 C54 1.381 . S
C1155 C156 1.355 . S
C1167 C224 1.381 . S
C1182 C258 1.353 . S
C1194 C190 1.382 . S
C1209 C292 1.349 . S
C1221 C360 1.381 . S
C1236 C394 1.381 . S
C1248 C326 1.348 . S
C1263 C428 1.374 . S
C1275 C496 1.349 . S
C1290 C530 1.352 . S
C1302 C462 1.382 . S
C1317 C632 1.378 . S
C1329 C564 1.350 . S
C1344 C666 1.350 . S
C1356 C598 1.380 . S
C1371 C700 1.376 . S
C1383 C768 1.348 . S
C1398 C734 1.378 . S
C1410 C802 1.347 . S
C1425 C904 1.347 . S
C1437 C836 1.383 . S
C1452 C938 1.379 . S
C1464 C870 1.349 . S
C1479 C972 1.375 . S
C1491 C1040 1.349 . S
C1506 C1006 1.376 . S
C1518 C1074 1.348 . S
C1533 C9 1.375 . S
C1545 C145 1.459 . S
C1560 C43 1.408 . S
C1572 C995 1.417 . S
C1587 C485 1.410 . S
C1599 C77 1.440 . S
C1614 C791 1.432 . S
C1626 C111 1.420 . S
C1641 C179 1.403 . S
C1653 C859 1.422 . S
C1668 C349 1.459 . S
C1680 C213 1.386 . S
C1695 C247 1.388 . S
C1707 C655 1.456 . S
C1722 C281 1.441 . S
C1734 C417 1.409 . S
C1749 C315 1.392 . S
C1761 C723 1.434 . S
C1776 C1063 1.413 . S
C1788 C383 1.437 . S
C1803 C587 1.377 . S
C1815 C451 1.461 . S
C1830 C519 1.429 . S
C1842 C927 1.422 . S
C1857 C553 1.460 . S
C1869 C689 1.377 . S
C1884 C621 1.390 . S
C1896 C1029 1.455 . S
C1911 C757 1.400 . S
C1923 C893 1.448 . S
C1938 C961 1.384 . S
C1950 C825 1.458 . S
C1965 C33 1.709 . S
C1977 C373 1.696 . S
C1992 C67 1.709 . S
C2004 C407 1.695 . S
C2019 C101 1.693 1_556 S
C2031 C305 1.709 . S
C2046 C339 1.712 . S
C2058 C135 1.691 1_556 S
C2073 C169 1.706 . S
C2085 C509 1.692 . S
C2100 C203 1.711 . S
C2112 C543 1.698 . S
C2127 C237 1.712 1_554 S
C2139 C441 1.696 . S
C2154 C475 1.699 . S
C2166 C271 1.711 1_554 S
C2181 C917 1.707 1_556 S
C2193 C577 1.695 . S
C2208 C611 1.710 . S
C2220 C951 1.695 1_556 S
C2235 C645 1.691 . S
C2247 C849 1.712 . S
C2262 C883 1.712 . S
C2274 C679 1.692 . S
C2289 C713 1.698 . S
C2301 C1053 1.711 1_554 S
C2316 C1087 1.708 1_554 S
C2328 C747 1.691 . S
C2343 C985 1.697 . S
C2355 C781 1.711 . S
C2370 C815 1.692 . S
C2382 C1019 1.713 . S
C2397 C342 1.254 . S
C2409 C2 1.256 1_556 S
C2424 C36 1.258 1_556 S
C2436 C376 1.256 . S
C2451 C274 1.253 . S
C2463 C70 1.255 . S
C2478 C308 1.254 . S
C2490 C104 1.254 . S
C2505 C138 1.258 1_554 S
C2517 C478 1.259 . S
C2532 C172 1.254 1_554 S
C2544 C512 1.254 . S
C2559 C410 1.256 . S
C2571 C206 1.258 . S
C2586 C240 1.256 . S
C2598 C444 1.258 . S
C2613 C546 1.254 . S
C2625 C886 1.254 . S
C2640 C920 1.254 . S
C2652 C580 1.254 . S
C2667 C818 1.257 1_556 S
C2679 C614 1.259 . S
C2694 C648 1.258 . S
C2706 C852 1.256 1_556 S
C2721 C682 1.257 . S
C2733 C1022 1.258 . S
C2748 C716 1.256 . S
C2760 C1056 1.255 . S
C2775 C750 1.255 . S
C2787 C954 1.254 1_554 S
C2802 C784 1.254 . S
C2814 C988 1.254 1_554 S
C2829 C107 1.502 . S
C2841 C5 1.487 . S
C2856 C73 1.483 . S
C2868 C39 1.497 . S
C2883 C141 1.494 . S
C2895 C243 1.486 . S
C2910 C209 1.489 . S
C2922 C175 1.504 . S
C2937 C379 1.504 . S
C2949 C277 1.495 . S
C2964 C345 1.484 . S
C2976 C311 1.492 . S
C2991 C515 1.490 . S
C3003 C413 1.504 . S
C3018 C447 1.497 . S
C3030 C481 1.485 . S
C3045 C651 1.485 . S
C3057 C549 1.489 . S
C3072 C617 1.504 . S
C3084 C583 1.494 . S
C3099 C685 1.497 . S
C3111 C787 1.485 . S
C3126 C753 1.489 . S
C3138 C719 1.504 . S
C3153 C923 1.500 . S
C3165 C821 1.502 . S
C3180 C889 1.484 . S
C3192 C855 1.492 . S
C3207 C1059 1.491 . S
C3219 C957 1.503 . S
C3234 C1025 1.497 . S
C3246 C991 1.500 . S
