# Generated by pormake.
# Topology sod, (4)-cn, num edge types: 1
# Building blocks:
#     Node 0, Type 0, BuildingBlock: ICAMEG_clean_sbu_1, # of connection points: 4
#     Node 1, Type 0, BuildingBlock: ICAMEG_clean_sbu_1, # of connection points: 4
#     Node 2, Type 0, BuildingBlock: ICAMEG_clean_sbu_1, # of connection points: 4
#     Node 3, Type 0, BuildingBlock: ICAMEG_clean_sbu_1, # of connection points: 4
#     Node 4, Type 0, BuildingBlock: ICAMEG_clean_sbu_1, # of connection points: 4
#     Node 5, Type 0, BuildingBlock: ICAMEG_clean_sbu_1, # of connection points: 4
#     Node 6, Type 0, BuildingBlock: ICAMEG_clean_sbu_1, # of connection points: 4
#     Node 7, Type 0, BuildingBlock: ICAMEG_clean_sbu_1, # of connection points: 4
#     Node 8, Type 0, BuildingBlock: ICAMEG_clean_sbu_1, # of connection points: 4
#     Node 9, Type 0, BuildingBlock: ICAMEG_clean_sbu_1, # of connection points: 4
#     Node 10, Type 0, BuildingBlock: ICAMEG_clean_sbu_1, # of connection points: 4
#     Node 11, Type 0, BuildingBlock: ICAMEG_clean_sbu_1, # of connection points: 4
#     Edge 12, Type (0, 0), BuildingBlock: XUDNAN_clean_linker_2, # of connection points: 2
#     Edge 13, Type (0, 0), BuildingBlock: XUDNAN_clean_linker_2, # of connection points: 2
#     Edge 14, Type (0, 0), BuildingBlock: XUDNAN_clean_linker_2, # of connection points: 2
#     Edge 15, Type (0, 0), BuildingBlock: XUDNAN_clean_linker_2, # of connection points: 2
#     Edge 16, Type (0, 0), BuildingBlock: XUDNAN_clean_linker_2, # of connection points: 2
#     Edge 17, Type (0, 0), BuildingBlock: XUDNAN_clean_linker_2, # of connection points: 2
#     Edge 18, Type (0, 0), BuildingBlock: XUDNAN_clean_linker_2, # of connection points: 2
#     Edge 19, Type (0, 0), BuildingBlock: XUDNAN_clean_linker_2, # of connection points: 2
#     Edge 20, Type (0, 0), BuildingBlock: XUDNAN_clean_linker_2, # of connection points: 2
#     Edge 21, Type (0, 0), BuildingBlock: XUDNAN_clean_linker_2, # of connection points: 2
#     Edge 22, Type (0, 0), BuildingBlock: XUDNAN_clean_linker_2, # of connection points: 2
#     Edge 23, Type (0, 0), BuildingBlock: XUDNAN_clean_linker_2, # of connection points: 2
#     Edge 24, Type (0, 0), BuildingBlock: XUDNAN_clean_linker_2, # of connection points: 2
#     Edge 25, Type (0, 0), BuildingBlock: XUDNAN_clean_linker_2, # of connection points: 2
#     Edge 26, Type (0, 0), BuildingBlock: XUDNAN_clean_linker_2, # of connection points: 2
#     Edge 27, Type (0, 0), BuildingBlock: XUDNAN_clean_linker_2, # of connection points: 2
#     Edge 28, Type (0, 0), BuildingBlock: XUDNAN_clean_linker_2, # of connection points: 2
#     Edge 29, Type (0, 0), BuildingBlock: XUDNAN_clean_linker_2, # of connection points: 2
#     Edge 30, Type (0, 0), BuildingBlock: XUDNAN_clean_linker_2, # of connection points: 2
#     Edge 31, Type (0, 0), BuildingBlock: XUDNAN_clean_linker_2, # of connection points: 2
#     Edge 32, Type (0, 0), BuildingBlock: XUDNAN_clean_linker_2, # of connection points: 2
#     Edge 33, Type (0, 0), BuildingBlock: XUDNAN_clean_linker_2, # of connection points: 2
#     Edge 34, Type (0, 0), BuildingBlock: XUDNAN_clean_linker_2, # of connection points: 2
#     Edge 35, Type (0, 0), BuildingBlock: XUDNAN_clean_linker_2, # of connection points: 2
# Relax obj value: 0.209
# Max RMSD: 0.237
# Mean RMSD: 0.236
data_MOF--net-sod--node1-ICAMEG_clean_sbu_1--edge1-XUDNAN_clean_linker_2
_symmetry_space_group_name_H-M    P1
_symmetry_Int_Tables_number       1
_symmetry_cell_setting            triclinic
loop_
_symmetry_equiv_pos_as_xyz
'x, y, z'
_cell_length_a     42.26517
_cell_length_b     46.305195
_cell_length_c     44.382041
_cell_angle_alpha  89.957727
_cell_angle_beta   89.937086
_cell_angle_gamma 90.179383
loop_
_atom_site_label
_atom_site_type_symbol
_atom_site_fract_x
_atom_site_fract_y
_atom_site_fract_z
_atom_type_partial_charge
Co0 Co 0.00906 0.24984 0.55143 0.0
Co1 Co 0.00707 0.24183 0.47569 0.0
O2 O 0.00769 0.26742 0.51104 0.0
C3 C 0.97403 0.30622 0.55763 0.0
O4 O 0.96661 0.30585 0.52898 0.0
C5 C 0.03574 0.29871 0.45442 0.0
O6 O 0.03622 0.30916 0.48188 0.0
O7 O 0.04894 0.2269 0.48894 0.0
O8 O 0.0332 0.21536 0.53563 0.0
H9 H 0.02302 0.14631 0.42427 0.0
H10 H 0.0354 0.30884 0.54141 0.0
O11 O 0.987 0.28428 0.56971 0.0
H12 H 0.12136 0.25395 0.58943 0.0
H13 H 0.01878 0.24867 0.66466 0.0
H14 H 0.99756 0.19047 0.57385 0.0
H15 H 0.07006 0.23073 0.57893 0.0
H16 H 0.01982 0.27113 0.61433 0.0
O17 O 0.0281 0.27235 0.44978 0.0
H18 H 0.02126 0.17965 0.46748 0.0
H19 H 0.99526 0.2487 0.40959 0.0
H20 H 0.99667 0.16707 0.62378 0.0
H21 H 0.08619 0.33294 0.55168 0.0
H22 H 0.00731 0.19623 0.66963 0.0
H23 H 0.1297 0.30547 0.57587 0.0
O24 O 0.9678 0.2308 0.54193 0.0
H25 H 0.92449 0.31837 0.45681 0.0
H26 H 0.94753 0.21417 0.45394 0.0
H27 H 0.89476 0.23132 0.4392 0.0
H28 H 0.8829 0.28381 0.44042 0.0
H29 H 0.97664 0.30032 0.47182 0.0
H30 H 0.99719 0.21617 0.36569 0.0
H31 H 0.01097 0.16452 0.3729 0.0
O32 O 0.98482 0.21049 0.49926 0.0
C33 C 0.0528 0.21346 0.51378 0.0
C34 C 0.01697 0.16876 0.42083 0.0
C35 C 1.00253 0.20798 0.38796 0.0
N36 N 0.00817 0.21613 0.44112 0.0
C37 C 0.01589 0.18776 0.44524 0.0
C38 C 1.00166 0.22635 0.41289 0.0
C39 C 0.01023 0.179 0.39202 0.0
C40 C 0.05402 0.29673 0.55208 0.0
N41 N 0.04949 0.26844 0.55973 0.0
C42 C 0.08283 0.3105 0.55779 0.0
C43 C 0.10723 0.29509 0.57135 0.0
C44 C 0.10256 0.2662 0.57899 0.0
C45 C 0.07341 0.25316 0.57294 0.0
C46 C 0.01411 0.23573 0.64485 0.0
C47 C 1.00235 0.20328 0.59367 0.0
C48 C 0.01452 0.24835 0.61626 0.0
N49 N 0.00883 0.2321 0.5911 0.0
C50 C 1.00175 0.18992 0.6219 0.0
C51 C 0.0077 0.2063 0.64762 0.0
C52 C 0.96462 0.21261 0.52051 0.0
C53 C 0.92939 0.29546 0.45602 0.0
C54 C 0.94271 0.23708 0.45459 0.0
C55 C 0.91271 0.24665 0.44615 0.0
C56 C 0.90606 0.27607 0.44687 0.0
N57 N 0.96562 0.2562 0.46354 0.0
C58 C 0.95912 0.28507 0.46436 0.0
Co59 Co 0.73673 0.05253 0.50829 0.0
Co60 Co 0.72453 0.98075 0.50053 0.0
O61 O 0.75483 0.01357 0.50346 0.0
C62 C 0.8017 0.0666 0.48012 0.0
O63 O 0.81251 0.04004 0.48053 0.0
C64 C 0.78572 0.95533 0.52552 0.0
O65 O 0.79661 0.98065 0.53377 0.0
O66 O 0.70876 0.99044 0.54211 0.0
O67 O 0.69929 0.03642 0.53044 0.0
H68 H 0.61715 0.93557 0.51394 0.0
H69 H 0.80016 0.03651 0.53339 0.0
O70 O 0.77315 0.07201 0.48735 0.0
H71 H 0.7439 0.08279 0.61741 0.0
H72 H 0.73665 0.16001 0.52725 0.0
H73 H 0.67203 0.07537 0.49927 0.0
H74 H 0.71843 0.0777 0.56803 0.0
H75 H 0.76061 0.11167 0.52428 0.0
O76 O 0.75716 0.95258 0.51647 0.0
H77 H 0.65636 0.97495 0.51505 0.0
H78 H 0.72727 0.91816 0.48265 0.0
H79 H 0.64702 0.12328 0.50244 0.0
H80 H 0.82684 0.04172 0.58207 0.0
H81 H 0.67939 0.16605 0.51648 0.0
H82 H 0.79871 0.06496 0.62474 0.0
O83 O 0.71547 0.04688 0.46854 0.0
H84 H 0.80714 0.97057 0.41936 0.0
H85 H 0.69328 0.96396 0.44253 0.0
H86 H 0.71175 0.95395 0.39102 0.0
H87 H 0.76909 0.95711 0.3791 0.0
H88 H 0.78769 0.98064 0.47049 0.0
H89 H 0.68898 0.87804 0.4816 0.0
H90 H 0.63334 0.88663 0.49716 0.0
O91 O 0.69111 1.00627 0.48216 0.0
C92 C 0.6956 0.01471 0.54782 0.0
C93 C 0.64133 0.93153 0.50712 0.0
C94 C 0.68165 0.89924 0.48905 0.0
N95 N 0.69429 0.94895 0.49902 0.0
C96 C 0.6637 0.95378 0.50767 0.0
C97 C 0.70336 0.92202 0.48991 0.0
C98 C 0.65043 0.90408 0.49773 0.0
C99 C 0.78782 0.04711 0.55134 0.0
N100 N 0.75781 0.05723 0.54722 0.0
C101 C 0.80304 0.0498 0.57913 0.0
C102 C 0.78724 0.06277 0.60307 0.0
C103 C 0.75652 0.07275 0.59897 0.0
C104 C 0.74212 0.0697 0.57084 0.0
C105 C 0.72229 0.14155 0.52108 0.0
C106 C 0.68629 0.09383 0.50547 0.0
C107 C 0.73577 0.11412 0.51916 0.0
N108 N 0.71777 0.09063 0.51156 0.0
C109 C 0.67199 0.12093 0.5072 0.0
C110 C 0.69016 0.14492 0.51506 0.0
C111 C 0.69499 0.02715 0.4638 0.0
C112 C 0.78212 0.96889 0.42431 0.0
C113 C 0.71833 0.96514 0.43773 0.0
C114 C 0.72863 0.95952 0.40841 0.0
C115 C 0.76077 0.96136 0.40173 0.0
N116 N 0.73942 0.97227 0.45991 0.0
C117 C 0.77094 0.97443 0.45336 0.0
Co118 Co 0.01665 0.7911 0.46967 0.0
Co119 Co 1.00417 0.78906 0.54501 0.0
O120 O 0.01281 0.7685 0.50694 0.0
C121 C 0.99521 0.73097 0.44922 0.0
O122 O 0.99342 0.72121 0.47694 0.0
C123 C 0.03995 0.73482 0.561 0.0
O124 O 0.05132 0.73313 0.53358 0.0
O125 O 0.04497 0.81104 0.53935 0.0
O126 O 0.03321 0.82534 0.49255 0.0
H127 H 0.99773 0.87767 0.61003 0.0
H128 H 0.05122 0.73456 0.47481 0.0
O129 O 1.00131 0.7576 0.44416 0.0
H130 H 0.13257 0.80652 0.44828 0.0
H131 H 0.04107 0.80861 0.35994 0.0
H132 H 0.99947 0.85126 0.45367 0.0
H133 H 0.07697 0.821 0.45387 0.0
H134 H 0.03881 0.77994 0.40671 0.0
O135 O 0.02557 0.75761 0.56941 0.0
H136 H 0.00714 0.85064 0.56306 0.0
H137 H 0.98545 0.77175 0.60762 0.0
H138 H 1.00165 0.88078 0.40748 0.0
H139 H 0.1063 0.71911 0.46881 0.0
H140 H 0.02254 0.85946 0.36016 0.0
H141 H 0.14763 0.75519 0.45558 0.0
O142 O 0.97225 0.80455 0.4762 0.0
H143 H 0.93333 0.70134 0.54131 0.0
H144 H 0.93839 0.80575 0.56235 0.0
H145 H 0.88761 0.78007 0.56752 0.0
H146 H 0.88483 0.72741 0.55718 0.0
H147 H 0.98344 0.7279 0.53595 0.0
H148 H 0.97631 0.79791 0.65514 0.0
H149 H 0.98223 0.85128 0.65653 0.0
O150 O 0.98022 0.82039 0.52313 0.0
C151 C 0.04958 0.82755 0.51657 0.0
C152 C 0.99506 0.85441 0.60971 0.0
C153 C 0.98309 0.80965 0.63504 0.0
N154 N 0.99682 0.80964 0.5825 0.0
C155 C 1.00031 0.83898 0.58315 0.0
C156 C 0.98848 0.79494 0.60806 0.0
C157 C 0.98638 0.8396 0.63579 0.0
C158 C 0.06863 0.75039 0.46851 0.0
N159 N 0.06037 0.7786 0.46427 0.0
C160 C 0.10002 0.74151 0.46535 0.0
C161 C 0.1232 0.76176 0.45799 0.0
C162 C 0.11477 0.79053 0.45388 0.0
C163 C 0.08314 0.79858 0.45712 0.0
C164 C 0.03188 0.81813 0.38041 0.0
C165 C 0.00866 0.84182 0.43321 0.0
C166 C 0.03039 0.80196 0.40695 0.0
N167 N 0.01897 0.81388 0.43295 0.0
C168 C 0.00981 0.85865 0.4071 0.0
C169 C 0.02151 0.84667 0.38055 0.0
C170 C 0.96378 0.81958 0.49899 0.0
C171 C 0.93427 0.72424 0.54612 0.0
C172 C 0.93751 0.78283 0.55782 0.0
C173 C 0.90861 0.76841 0.56079 0.0
C174 C 0.90707 0.73888 0.55497 0.0
N175 N 0.96425 0.76829 0.54943 0.0
C176 C 0.96273 0.73941 0.54331 0.0
Co177 Co 0.2828 0.98038 0.51933 0.0
Co178 Co 0.27761 0.05338 0.52001 0.0
O179 O 0.25626 0.01562 0.51992 0.0
C180 C 0.22329 0.96637 0.48513 0.0
O181 O 0.22247 0.99278 0.47451 0.0
C182 C 0.21396 0.06611 0.55018 0.0
O183 O 0.20309 0.03966 0.5473 0.0
O184 O 0.29798 0.04178 0.55861 0.0
O185 O 0.31835 1.00059 0.5414 0.0
H186 H 0.373 0.11694 0.53417 0.0
H187 H 0.2184 0.98003 0.5463 0.0
O188 O 0.24753 0.95778 0.49952 0.0
H189 H 0.28846 0.94193 0.62554 0.0
H190 H 0.30399 0.87343 0.52579 0.0
H191 H 0.35033 0.96938 0.50564 0.0
H192 H 0.31011 0.95608 0.57613 0.0
H193 H 0.27112 0.91718 0.52888 0.0
O194 O 0.24249 0.07222 0.54327 0.0
H195 H 0.34404 0.07073 0.53128 0.0
H196 H 0.25863 0.11533 0.51246 0.0
H197 H 0.38411 0.92619 0.5026 0.0
H198 H 0.19573 0.96583 0.59527 0.0
H199 H 0.36096 0.87777 0.51271 0.0
H200 H 0.23084 0.94666 0.63537 0.0
O201 O 0.30099 0.99335 0.47957 0.0
H202 H 0.18674 0.05908 0.44638 0.0
H203 H 0.29847 0.08393 0.46387 0.0
H204 H 0.27374 0.09702 0.41577 0.0
H205 H 0.21727 0.08486 0.40676 0.0
H206 H 0.2127 0.04564 0.49362 0.0
H207 H 0.28657 0.16201 0.51561 0.0
H208 H 0.34423 0.16303 0.52635 0.0
O209 O 0.31385 0.03748 0.49585 0.0
C210 C 0.31641 0.02023 0.56147 0.0
C211 C 0.34789 0.11678 0.52944 0.0
C212 C 0.29937 0.14208 0.51908 0.0
N213 N 0.29968 0.09026 0.52164 0.0
C214 C 0.33136 0.09067 0.52771 0.0
C215 C 0.28364 0.11556 0.5175 0.0
C216 C 0.33172 0.14263 0.52507 0.0
C217 C 0.23384 0.97153 0.56348 0.0
N218 N 0.26553 0.96872 0.55816 0.0
C219 C 0.22086 0.96358 0.59124 0.0
C220 C 0.24057 0.95284 0.61373 0.0
C221 C 0.27288 0.95015 0.60822 0.0
C222 C 0.285 0.95822 0.58017 0.0
C223 C 0.31435 0.89441 0.52133 0.0
C224 C 0.34008 0.94842 0.51019 0.0
C225 C 0.29581 0.91928 0.52291 0.0
N226 N 0.30878 0.94589 0.51752 0.0
C227 C 0.35933 0.92402 0.50838 0.0
C228 C 0.34632 0.89686 0.51402 0.0
C229 C 0.31614 0.0172 0.47648 0.0
C230 C 0.21132 0.06467 0.45006 0.0
C231 C 0.27412 0.07815 0.46018 0.0
C232 C 0.26012 0.08583 0.43285 0.0
C233 C 0.22846 0.07905 0.42782 0.0
N234 N 0.2572 0.06414 0.48209 0.0
C235 C 0.22617 0.0573 0.47708 0.0
Co236 Co 0.49065 0.97205 0.26663 0.0
Co237 Co 0.51209 0.04328 0.26333 0.0
O238 O 0.50156 1.00654 0.24263 0.0
C239 C 0.51897 0.9465 0.20874 0.0
O240 O 0.52295 0.9716 0.19549 0.0
C241 C 0.48624 0.06061 0.20203 0.0
O242 O 0.47798 0.03391 0.1961 0.0
O243 O 0.46947 0.04264 0.28316 0.0
O244 O 0.47046 0.99657 0.29858 0.0
H245 H 0.51685 0.10907 0.35333 0.0
H246 H 0.46682 0.9799 0.20338 0.0
O247 O 0.50924 0.94494 0.23591 0.0
H248 H 0.37248 0.95664 0.26374 0.0
H249 H 0.45466 0.86951 0.28501 0.0
H250 H 0.49518 0.95879 0.3318 0.0
H251 H 0.42491 0.95891 0.2874 0.0
H252 H 0.46616 0.91241 0.25395 0.0
O253 O 0.49589 0.06736 0.22834 0.0
H254 H 0.50606 0.06354 0.32654 0.0
H255 H 0.53821 0.10082 0.24444 0.0
H256 H 0.48338 0.91655 0.36374 0.0
H257 H 0.41513 0.97726 0.17861 0.0
H258 H 0.463 0.87147 0.34036 0.0
H259 H 0.36724 0.96565 0.20879 0.0
O260 O 0.53284 0.97511 0.28673 0.0
H261 H 0.59075 0.02818 0.17913 0.0
H262 H 0.57719 0.05635 0.28539 0.0
H263 H 0.63048 0.05642 0.26306 0.0
H264 H 0.63759 0.0424 0.20948 0.0
H265 H 0.53803 0.02824 0.20231 0.0
H266 H 0.54889 0.14683 0.27031 0.0
H267 H 0.53837 0.15117 0.32519 0.0
O268 O 0.53027 0.02197 0.29874 0.0
C269 C 0.45941 0.02215 0.3001 0.0
C270 C 0.52155 0.10745 0.32941 0.0
C271 C 0.53947 0.12866 0.28282 0.0
N272 N 0.52139 0.07941 0.28391 0.0
C273 C 0.51552 0.08168 0.3141 0.0
C274 C 0.53316 0.10255 0.26825 0.0
C275 C 0.53359 0.13107 0.31361 0.0
C276 C 0.44652 0.97453 0.21676 0.0
N277 N 0.44938 0.96945 0.24696 0.0
C278 C 0.41707 0.97319 0.20256 0.0
C279 C 0.39022 0.96673 0.21949 0.0
C280 C 0.39314 0.96172 0.25028 0.0
C281 C 0.42299 0.96322 0.26365 0.0
C282 C 0.46352 0.88903 0.29546 0.0
C283 C 0.48614 0.93934 0.32145 0.0
C284 C 0.47027 0.91337 0.27796 0.0
N285 N 0.48123 0.9382 0.29104 0.0
C286 C 0.47958 0.91544 0.33966 0.0
C287 C 0.46818 0.89015 0.32652 0.0
C288 C 0.54265 0.99706 0.30137 0.0
C289 C 0.58794 0.03465 0.20241 0.0
C290 C 0.57989 0.05051 0.26195 0.0
C291 C 0.61023 0.0505 0.24946 0.0
C292 C 0.61421 0.04258 0.21944 0.0
N293 N 0.55406 0.04316 0.245 0.0
C294 C 0.55795 0.03494 0.21566 0.0
Co295 Co 1.00357 0.54788 0.24427 0.0
Co296 Co 0.02588 0.47755 0.24414 0.0
O297 O 0.01547 0.51288 0.26712 0.0
C298 C 0.0297 0.5727 0.30367 0.0
O299 O 0.03354 0.54744 0.31659 0.0
C300 C 1.00346 0.4539 0.30544 0.0
O301 O 0.99969 0.4794 0.3178 0.0
O302 O 0.98243 0.47812 0.22689 0.0
O303 O 0.98365 0.52399 0.21134 0.0
H304 H 0.02661 0.41633 0.1506 0.0
H305 H 0.97933 0.5343 0.30647 0.0
O306 O 0.02134 0.57453 0.27609 0.0
H307 H 0.88509 0.56051 0.2477 0.0
H308 H 0.96502 0.65 0.22979 0.0
H309 H 0.00793 0.56355 0.17967 0.0
H310 H 0.93761 0.56067 0.22406 0.0
H311 H 0.97738 0.60632 0.25917 0.0
O312 O 0.01112 0.45151 0.27774 0.0
H313 H 0.01617 0.4601 0.18043 0.0
H314 H 0.05446 0.41999 0.25839 0.0
H315 H 0.9953 0.60662 0.14937 0.0
H316 H 0.92748 0.53445 0.33114 0.0
H317 H 0.97371 0.65028 0.17443 0.0
H318 H 0.87967 0.54761 0.30179 0.0
O319 O 0.04603 0.54656 0.22391 0.0
H320 H 0.10841 0.49158 0.32504 0.0
H321 H 0.09008 0.46668 0.21856 0.0
H322 H 0.14442 0.46732 0.23828 0.0
H323 H 0.15395 0.47967 0.29196 0.0
H324 H 0.0546 0.49095 0.30438 0.0
H325 H 0.06483 0.37563 0.22945 0.0
H326 H 0.05106 0.37364 0.17509 0.0
O327 O 0.04189 0.50071 0.20914 0.0
C328 C 0.97158 0.49868 0.21078 0.0
C329 C 0.03275 0.41693 0.17426 0.0
C330 C 0.05415 0.39408 0.21851 0.0
N331 N 0.03474 0.44272 0.22116 0.0
C332 C 0.02696 0.44171 0.19129 0.0
C333 C 0.04805 0.41923 0.23483 0.0
C334 C 0.04644 0.39299 0.18802 0.0
C335 C 0.95912 0.54079 0.29357 0.0
N336 N 0.96216 0.54849 0.26397 0.0
C337 C 0.92956 0.54051 0.30766 0.0
C338 C 0.90274 0.5478 0.29118 0.0
C339 C 0.90577 0.55506 0.26088 0.0
C340 C 0.93573 0.55513 0.24759 0.0
C341 C 0.97442 0.63112 0.21861 0.0
C342 C 0.99839 0.58239 0.19075 0.0
C343 C 0.98167 0.60635 0.23516 0.0
N344 N 0.99332 0.5823 0.22116 0.0
C345 C 0.99135 0.60675 0.17347 0.0
C346 C 0.97927 0.63125 0.18755 0.0
C347 C 0.05537 0.52526 0.20801 0.0
C348 C 0.10455 0.48577 0.30171 0.0
C349 C 0.09381 0.47171 0.24207 0.0
C350 C 0.12475 0.47216 0.25306 0.0
C351 C 0.13009 0.47915 0.28314 0.0
N352 N 0.06871 0.47773 0.26053 0.0
C353 C 0.07393 0.4851 0.28991 0.0
Co354 Co 0.49874 0.03788 0.75875 0.0
Co355 Co 0.52008 0.96679 0.76004 0.0
O356 O 0.50946 1.00269 0.78156 0.0
C357 C 0.53007 0.05817 0.81644 0.0
O358 O 0.54127 0.03225 0.82142 0.0
C359 C 0.48847 0.94825 0.81825 0.0
O360 O 0.47857 0.9746 0.82326 0.0
O361 O 0.47765 0.96822 0.74024 0.0
O362 O 0.48019 0.01432 0.72504 0.0
H363 H 0.52637 0.90428 0.66776 0.0
H364 H 0.4747 0.03125 0.82176 0.0
O365 O 0.51566 0.06371 0.7919 0.0
H366 H 0.38005 0.04742 0.7594 0.0
H367 H 0.46131 0.14036 0.74531 0.0
H368 H 0.50426 0.0544 0.69431 0.0
H369 H 0.43299 0.04652 0.73624 0.0
H370 H 0.47273 0.09611 0.7741 0.0
O371 O 0.50241 0.94205 0.79362 0.0
H372 H 0.51465 0.94869 0.69623 0.0
H373 H 0.5454 0.90875 0.77727 0.0
H374 H 0.49281 0.09812 0.66464 0.0
H375 H 0.42233 0.03241 0.84587 0.0
H376 H 0.47121 0.14154 0.69014 0.0
H377 H 0.37442 0.04045 0.81465 0.0
O378 O 0.54096 0.03609 0.73894 0.0
H379 H 0.59527 0.97459 0.84778 0.0
H380 H 0.58608 0.9561 0.73887 0.0
H381 H 0.63863 0.95547 0.76264 0.0
H382 H 0.64352 0.9646 0.81758 0.0
H383 H 0.54336 0.97559 0.82296 0.0
H384 H 0.55693 0.8638 0.74974 0.0
H385 H 0.54763 0.86142 0.69453 0.0
O386 O 0.53967 0.98936 0.72585 0.0
C387 C 0.46791 0.98916 0.72405 0.0
C388 C 0.53058 0.90507 0.69179 0.0
C389 C 0.5477 0.88234 0.73781 0.0
N390 N 0.52946 0.93141 0.73836 0.0
C391 C 0.52406 0.93019 0.70803 0.0
C392 C 0.54097 0.90784 0.7533 0.0
C393 C 0.54249 0.88102 0.70683 0.0
C394 C 0.45417 0.03504 0.80798 0.0
N395 N 0.45714 0.03891 0.7776 0.0
C396 C 0.42446 0.03556 0.82178 0.0
C397 C 0.39759 0.04004 0.80426 0.0
C398 C 0.40074 0.04395 0.77328 0.0
C399 C 0.43083 0.04333 0.76028 0.0
C400 C 0.47074 0.12159 0.73394 0.0
C401 C 0.49476 0.07314 0.7056 0.0
C402 C 0.47741 0.09648 0.75015 0.0
N403 N 0.4892 0.07261 0.73593 0.0
C404 C 0.48837 0.09787 0.68867 0.0
C405 C 0.47627 0.12223 0.70299 0.0
C406 C 0.55076 0.01493 0.72298 0.0
C407 C 0.59348 0.97053 0.82382 0.0
C408 C 0.58794 0.96046 0.76266 0.0
C409 C 0.61781 0.95989 0.77606 0.0
C410 C 0.62053 0.96497 0.80688 0.0
N411 N 0.56143 0.96592 0.77938 0.0
C412 C 0.56401 0.97095 0.80961 0.0
Co413 Co 0.98416 0.48548 0.75369 0.0
Co414 Co 0.0105 0.55649 0.75686 0.0
O415 O 0.99677 0.522 0.73387 0.0
C416 C 0.01747 0.46727 0.69616 0.0
O417 O 0.02723 0.49372 0.69114 0.0
C418 C 0.97664 0.57961 0.7016 0.0
O419 O 0.96408 0.55423 0.69625 0.0
O420 O 0.97004 0.55556 0.78092 0.0
O421 O 0.96345 0.50759 0.78694 0.0
H422 H 0.03241 0.61288 0.85152 0.0
H423 H 0.96488 0.4975 0.68989 0.0
O424 O 1.00315 0.46105 0.72061 0.0
H425 H 0.86592 0.47555 0.74405 0.0
H426 H 0.94383 0.38292 0.75878 0.0
H427 H 0.98447 0.46563 0.81718 0.0
H428 H 0.91705 0.47448 0.77055 0.0
H429 H 0.95836 0.42834 0.73331 0.0
O430 O 0.99184 0.58392 0.72598 0.0
H431 H 0.01531 0.57063 0.82204 0.0
H432 H 0.03621 0.61486 0.74053 0.0
H433 H 0.96967 0.42072 0.8436 0.0
H434 H 0.91452 0.49809 0.66235 0.0
H435 H 0.94922 0.37894 0.81436 0.0
H436 H 0.86442 0.48724 0.68943 0.0
O437 O 0.02501 0.48477 0.77659 0.0
H438 H 0.07845 0.55153 0.66343 0.0
H439 H 0.07841 0.56272 0.77379 0.0
H440 H 0.129 0.56316 0.74637 0.0
H441 H 0.1293 0.55775 0.69069 0.0
H442 H 0.02857 0.55054 0.69177 0.0
H443 H 0.05316 0.65769 0.7691 0.0
H444 H 0.05146 0.6569 0.82504 0.0
O445 O 0.03079 0.5316 0.78798 0.0
C446 C 0.95676 0.53368 0.79352 0.0
C447 C 0.03301 0.61359 0.82715 0.0
C448 C 0.04464 0.63873 0.78091 0.0
N449 N 0.02395 0.59034 0.77955 0.0
C450 C 0.02317 0.58974 0.81032 0.0
C451 C 0.03468 0.61444 0.76483 0.0
C452 C 0.04373 0.63827 0.81228 0.0
C453 C 0.94343 0.49242 0.7019 0.0
N454 N 0.94413 0.48606 0.73195 0.0
C455 C 0.91484 0.49294 0.68614 0.0
C456 C 0.88674 0.4869 0.70135 0.0
C457 C 0.88756 0.4804 0.73198 0.0
C458 C 0.9166 0.48007 0.74695 0.0
C459 C 0.9527 0.40097 0.77178 0.0
C460 C 0.97541 0.44762 0.8043 0.0
C461 C 0.96115 0.42674 0.75745 0.0
N462 N 0.97221 0.44972 0.77374 0.0
C463 C 0.96715 0.42221 0.81938 0.0
C464 C 0.95571 0.39876 0.80296 0.0
C465 C 0.03775 0.50513 0.79182 0.0
C466 C 0.07865 0.55405 0.68768 0.0
C467 C 0.07822 0.56006 0.74965 0.0
C468 C 0.10701 0.56047 0.73419 0.0
C469 C 0.10717 0.55748 0.70298 0.0
N470 N 0.05024 0.55683 0.73452 0.0
C471 C 0.05032 0.55373 0.70391 0.0
Co472 Co 0.21983 0.54248 1.00481 0.0
Co473 Co 0.24226 0.4736 0.99313 0.0
O474 O 0.25395 0.5144 0.99808 0.0
C475 C 0.27324 0.57428 0.97363 0.0
O476 O 0.28376 0.5504 0.96141 0.0
C477 C 0.29361 0.44127 0.02512 0.0
O478 O 0.27235 0.42865 0.04231 0.0
O479 O 0.22452 0.47502 0.03525 0.0
O480 O 0.19303 0.51235 0.02517 0.0
H481 H 0.16883 0.38904 1.00598 0.0
H482 H 0.28513 0.55093 0.02863 0.0
O483 O 0.24627 0.57459 0.98666 0.0
H484 H 0.21463 0.56629 0.11563 0.0
H485 H 0.1716 0.63909 0.03026 0.0
H486 H 0.1502 0.53926 0.99747 0.0
H487 H 0.19258 0.55404 0.06595 0.0
H488 H 0.21523 0.60451 0.02389 0.0
O489 O 0.28554 0.46231 0.0082 0.0
H490 H 0.18539 0.43998 0.00974 0.0
H491 H 0.27304 0.42017 0.96785 0.0
H492 H 0.10579 0.57294 1.00411 0.0
H493 H 0.30809 0.56337 0.07785 0.0
H494 H 0.11632 0.62331 0.02058 0.0
H495 H 0.2728 0.57115 0.12186 0.0
O496 O 0.20164 0.53116 0.96485 0.0
H497 H 0.324 0.49713 0.91441 0.0
H498 H 0.22011 0.45189 0.93291 0.0
H499 H 0.24135 0.45346 0.88128 0.0
H500 H 0.29377 0.47611 0.87172 0.0
H501 H 0.30161 0.49543 0.96568 0.0
H502 H 0.25752 0.36903 0.96379 0.0
H503 H 0.20503 0.35313 0.98293 0.0
O504 O 0.19978 0.48401 0.97556 0.0
C505 C 0.20181 0.49191 0.04245 0.0
C506 C 0.19182 0.39567 0.99769 0.0
C507 C 0.24158 0.38444 0.97401 0.0
N508 N 0.23036 0.43309 0.98943 0.0
C509 C 0.20138 0.42449 0.99984 0.0
C510 C 0.2503 0.41345 0.97649 0.0
C511 C 0.21213 0.37554 0.98473 0.0
C512 C 0.26949 0.55463 0.04745 0.0
N513 N 0.23744 0.55238 0.04405 0.0
C514 C 0.28268 0.56154 0.07538 0.0
C515 C 0.26288 0.56588 0.10007 0.0
C516 C 0.23026 0.56322 0.09658 0.0
C517 C 0.21791 0.55634 0.0683 0.0
C518 C 0.16671 0.61724 0.02296 0.0
C519 C 0.15508 0.5611 1.00466 0.0
C520 C 0.19141 0.59762 0.01904 0.0
N521 N 0.18545 0.56988 0.01012 0.0
C522 C 0.12978 0.58011 0.00836 0.0
C523 C 0.1357 0.60836 0.01758 0.0
C524 C 0.19122 0.50565 0.95959 0.0
C525 C 0.30111 0.48725 0.91825 0.0
C526 C 0.2427 0.46214 0.92896 0.0
C527 C 0.25473 0.46279 0.89966 0.0
C528 C 0.28414 0.47546 0.89432 0.0
N529 N 0.25943 0.4738 0.95238 0.0
C530 C 0.28829 0.48623 0.94726 0.0
Co531 Co 0.52132 0.27184 0.97178 0.0
Co532 Co 0.50873 0.27055 0.04845 0.0
O533 O 0.51661 0.25048 0.01 0.0
C534 C 0.48517 0.21767 0.95675 0.0
O535 O 0.47155 0.21827 0.98326 0.0
C536 C 0.54786 0.21796 0.06323 0.0
O537 O 0.55848 0.21676 0.0355 0.0
O538 O 0.54808 0.29445 0.04196 0.0
O539 O 0.54156 0.30526 0.99299 0.0
H540 H 0.49979 0.35874 0.11379 0.0
H541 H 0.54724 0.21224 0.97558 0.0
O542 O 0.50264 0.2386 0.94833 0.0
H543 H 0.63792 0.27398 0.94797 0.0
H544 H 0.54442 0.28274 0.86089 0.0
H545 H 0.51132 0.33282 0.95367 0.0
H546 H 0.58508 0.29515 0.95552 0.0
H547 H 0.53995 0.25617 0.90882 0.0
O548 O 0.5327 0.24016 0.07205 0.0
H549 H 0.50862 0.33213 0.06646 0.0
H550 H 0.49364 0.25241 0.11178 0.0
H551 H 0.51573 0.36024 0.90623 0.0
H552 H 0.59955 0.19021 0.9679 0.0
H553 H 0.53237 0.33519 0.85937 0.0
H554 H 0.64544 0.22117 0.95411 0.0
O555 O 0.47881 0.28974 0.97812 0.0
H556 H 0.44371 0.17902 0.0489 0.0
H557 H 0.44315 0.28346 0.06947 0.0
H558 H 0.39443 0.25523 0.07721 0.0
H559 H 0.39454 0.20245 0.06724 0.0
H560 H 0.49139 0.2083 0.04033 0.0
H561 H 0.48517 0.27813 0.15965 0.0
H562 H 0.48801 0.33171 0.16086 0.0
O563 O 0.48266 0.30073 0.02731 0.0
C564 C 0.55473 0.30936 0.01844 0.0
C565 C 0.49849 0.3354 0.11356 0.0
C566 C 0.49035 0.29016 0.1393 0.0
N567 N 0.50172 0.29074 0.08626 0.0
C568 C 0.50344 0.32021 0.0868 0.0
C569 C 0.4954 0.2757 0.11212 0.0
C570 C 0.4919 0.32021 0.13996 0.0
C571 C 0.56695 0.22588 0.96938 0.0
N572 N 0.56298 0.25499 0.96609 0.0
C573 C 0.59659 0.21327 0.96517 0.0
C574 C 0.62233 0.23065 0.95748 0.0
C575 C 0.61814 0.2603 0.9541 0.0
C576 C 0.58815 0.27217 0.95853 0.0
C577 C 0.53712 0.29389 0.88114 0.0
C578 C 0.51863 0.32175 0.93341 0.0
C579 C 0.5344 0.27893 0.90837 0.0
N580 N 0.52531 0.2929 0.93409 0.0
C581 C 0.52106 0.3374 0.9066 0.0
C582 C 0.53038 0.32332 0.88031 0.0
C583 C 0.46965 0.30365 1.00148 0.0
C584 C 0.44334 0.20199 0.05341 0.0
C585 C 0.44328 0.26074 0.06437 0.0
C586 C 0.41565 0.24475 0.06913 0.0
C587 C 0.41575 0.21515 0.06362 0.0
N588 N 0.47032 0.24776 0.05436 0.0
C589 C 0.47047 0.21872 0.04886 0.0
Co590 Co 0.77212 0.46599 1.00332 0.0
Co591 Co 0.78428 0.53828 1.00686 0.0
O592 O 0.75457 0.50546 1.00252 0.0
C593 C 0.71025 0.46066 0.97015 0.0
O594 O 0.70654 0.48876 0.96884 0.0
C595 C 0.72031 0.56047 0.02839 0.0
O596 O 0.70941 0.53445 0.03375 0.0
O597 O 0.79514 0.52362 0.04799 0.0
O598 O 0.80616 0.47865 0.03244 0.0
H599 H 0.88829 0.58209 0.03785 0.0
H600 H 0.70645 0.48089 0.02479 0.0
O601 O 0.73748 0.45029 0.97615 0.0
H602 H 0.75049 0.41844 0.10381 0.0
H603 H 0.77037 0.35693 1.00433 0.0
H604 H 0.83763 0.44401 0.99944 0.0
H605 H 0.78214 0.43091 0.05931 0.0
H606 H 0.74665 0.40542 1.00636 0.0
O607 O 0.74955 0.56439 0.02227 0.0
H608 H 0.85023 0.54266 0.02939 0.0
H609 H 0.78259 0.60242 0.99646 0.0
H610 H 0.86242 0.39591 0.99795 0.0
H611 H 0.67376 0.46838 0.06838 0.0
H612 H 0.82871 0.35193 1.00032 0.0
H613 H 0.69561 0.43687 0.10853 0.0
O614 O 0.79914 0.47685 0.9672 0.0
H615 H 0.71242 0.55783 0.91873 0.0
H616 H 0.82245 0.56114 0.95513 0.0
H617 H 0.81078 0.57561 0.90299 0.0
H618 H 0.75538 0.57415 0.88443 0.0
H619 H 0.72523 0.54303 0.97051 0.0
H620 H 0.81985 0.64256 1.00474 0.0
H621 H 0.87324 0.63254 0.0255 0.0
O622 O 0.81987 0.515 0.99011 0.0
C623 C 0.80832 0.49899 0.05195 0.0
C624 C 0.86509 0.58676 0.0288 0.0
C625 C 0.82666 0.62068 0.0103 0.0
N626 N 0.81395 0.5701 0.01257 0.0
C627 C 0.84335 0.56448 0.02396 0.0
C628 C 0.80552 0.59784 1.00583 0.0
C629 C 0.85662 0.61505 0.0219 0.0
C630 C 0.71625 0.46682 0.04152 0.0
N631 N 0.74622 0.45616 0.03858 0.0
C632 C 0.69754 0.45995 0.0665 0.0
C633 C 0.70981 0.44235 0.08903 0.0
C634 C 0.74057 0.43202 0.08639 0.0
C635 C 0.7585 0.43929 0.06103 0.0
C636 C 0.78531 0.37593 1.00315 0.0
C637 C 0.82279 0.425 1.00056 0.0
C638 C 0.77196 0.40347 1.00397 0.0
N639 N 0.79068 0.4276 1.00279 0.0
C640 C 0.83697 0.39781 0.99967 0.0
C641 C 0.81804 0.37314 1.00096 0.0
C642 C 0.81976 0.49713 0.9684 0.0
C643 C 0.73665 0.55864 0.92656 0.0
C644 C 0.79827 0.56038 0.94734 0.0
C645 C 0.79181 0.56865 0.91773 0.0
C646 C 0.76075 0.5678 0.90733 0.0
N647 N 0.77453 0.55131 0.96613 0.0
C648 C 0.74405 0.55034 0.95597 0.0
Co649 Co 0.50924 0.72803 0.04452 0.0
Co650 Co 0.49642 0.73361 0.96951 0.0
O651 O 0.50429 0.75246 0.0086 0.0
C652 C 0.48421 0.78574 0.06708 0.0
O653 O 0.48036 0.79541 0.03953 0.0
C654 C 0.53366 0.78777 0.95652 0.0
O655 O 0.54604 0.78706 0.98357 0.0
O656 O 0.53807 0.71389 0.974 0.0
O657 O 0.5276 0.6957 0.01955 0.0
H658 H 0.49434 0.64834 0.8996 0.0
H659 H 0.54081 0.78619 0.0425 0.0
O660 O 0.4925 0.75958 0.07168 0.0
H661 H 0.62554 0.71726 0.06667 0.0
H662 H 0.53435 0.70557 0.15306 0.0
H663 H 0.4952 0.66639 0.05673 0.0
H664 H 0.57088 0.70031 0.05956 0.0
H665 H 0.53024 0.73682 0.10825 0.0
O666 O 0.5166 0.76688 0.94725 0.0
H667 H 0.50248 0.67332 0.94804 0.0
H668 H 0.47695 0.75329 0.90801 0.0
H669 H 0.49942 0.63427 0.10087 0.0
H670 H 0.59491 0.8041 0.05011 0.0
H671 H 0.5191 0.65383 0.14948 0.0
H672 H 0.63792 0.76956 0.06214 0.0
O673 O 0.46542 0.71343 0.03728 0.0
H674 H 0.42285 0.81859 0.97642 0.0
H675 H 0.43111 0.71506 0.95196 0.0
H676 H 0.37934 0.73907 0.94863 0.0
H677 H 0.37494 0.79126 0.9608 0.0
H678 H 0.47406 0.79364 0.97985 0.0
H679 H 0.46901 0.72924 0.85908 0.0
H680 H 0.4775 0.67635 0.85468 0.0
O681 O 0.47408 0.70018 0.98966 0.0
C682 C 0.54457 0.69677 0.99573 0.0
C683 C 0.49051 0.67139 0.90125 0.0
C684 C 0.47633 0.71679 0.87849 0.0
N685 N 0.49006 0.7147 0.93094 0.0
C686 C 0.49502 0.68564 0.92864 0.0
C687 C 0.48102 0.73031 0.90626 0.0
C688 C 0.48108 0.68712 0.87605 0.0
C689 C 0.55901 0.77098 0.04821 0.0
N690 N 0.55227 0.74221 0.0508 0.0
C691 C 0.58981 0.78127 0.05229 0.0
C692 C 0.61394 0.76189 0.05899 0.0
C693 C 0.60702 0.73257 0.06152 0.0
C694 C 0.57594 0.7231 0.05736 0.0
C695 C 0.52572 0.69679 0.13201 0.0
C696 C 0.50387 0.67506 0.07777 0.0
C697 C 0.52315 0.71443 0.10659 0.0
N698 N 0.51251 0.70344 0.07985 0.0
C699 C 0.50616 0.65677 0.1027 0.0
C700 C 0.51719 0.66776 0.12998 0.0
C701 C 0.45714 0.69984 0.01351 0.0
C702 C 0.42445 0.79585 0.97102 0.0
C703 C 0.42945 0.73773 0.95747 0.0
C704 C 0.40003 0.75123 0.95545 0.0
C705 C 0.39758 0.7805 0.96228 0.0
N706 N 0.45574 0.7529 0.96611 0.0
C707 C 0.45346 0.7816 0.97286 0.0
H708 H 0.03153 0.35838 0.45444 0.0
H709 H 0.0385 0.28434 0.39477 0.0
H710 H 0.0287 0.31591 0.35115 0.0
H711 H 0.96945 0.39377 0.41607 0.0
H712 H 0.98465 0.42985 0.42121 0.0
H713 H 0.99396 0.40205 0.44816 0.0
H714 H 0.05388 0.41124 0.44037 0.0
H715 H 0.04476 0.43948 0.41385 0.0
H716 H 0.07019 0.41014 0.40284 0.0
H717 H 0.01428 0.3542 0.31445 0.0
H718 H 1.0034 0.39828 0.28549 0.0
H719 H 0.00742 0.44891 0.36779 0.0
C720 C 0.03173 0.34889 0.43215 0.0
C721 C 0.03573 0.31872 0.42816 0.0
C722 C 0.03538 0.30726 0.39855 0.0
C723 C 0.02971 0.32503 0.37357 0.0
C724 C 0.02468 0.35437 0.37839 0.0
C725 C 0.02623 0.36641 0.40681 0.0
C726 C 0.01988 0.39871 0.40551 0.0
C727 C 0.99022 0.40654 0.42383 0.0
C728 C 0.04891 0.41591 0.41628 0.0
C729 C 0.01432 0.40283 0.37194 0.0
C730 C 0.01697 0.37683 0.35689 0.0
C731 C 0.0125 0.37475 0.32593 0.0
C732 C 0.00623 0.4 0.30967 0.0
C733 C 1.00472 0.42726 0.32421 0.0
C734 C 0.00821 0.42849 0.35595 0.0
H735 H 0.63141 0.018 0.45806 0.0
H736 H 0.71692 0.03342 0.40653 0.0
H737 H 0.68789 0.02249 0.35936 0.0
H738 H 0.59977 0.96077 0.41488 0.0
H739 H 0.55924 0.97264 0.41697 0.0
H740 H 0.58651 0.98164 0.44672 0.0
H741 H 0.57461 0.03614 0.43983 0.0
H742 H 0.54663 0.02722 0.41069 0.0
H743 H 0.57843 0.0522 0.40298 0.0
H744 H 0.65028 1.00541 0.31841 0.0
H745 H 0.60441 0.99503 0.28537 0.0
H746 H 0.54214 0.99659 0.36285 0.0
C747 C 0.64376 0.01968 0.43673 0.0
C748 C 0.67629 0.02672 0.43574 0.0
C749 C 0.69185 0.02858 0.40758 0.0
C750 C 0.67566 0.02199 0.38079 0.0
C751 C 0.64375 0.01431 0.38257 0.0
C752 C 0.6277 0.01413 0.40973 0.0
C753 C 0.59301 1.00682 0.40532 0.0
C754 C 0.58412 0.9788 0.42197 0.0
C755 C 0.57193 0.0321 0.41528 0.0
C756 C 0.59204 1.00265 0.37146 0.0
C757 C 0.62173 1.00633 0.35885 0.0
C758 C 0.6269 1.00279 0.32803 0.0
C759 C 0.60083 0.99664 0.30947 0.0
C760 C 0.57 0.99483 0.32171 0.0
C761 C 0.56564 0.99742 0.35312 0.0
H762 H 0.02502 0.57885 0.36586 0.0
H763 H 0.03139 0.628 0.28266 0.0
H764 H 0.02129 0.6728 0.31071 0.0
H765 H 0.96256 0.61902 0.39885 0.0
H766 H 0.97784 0.6181 0.43674 0.0
H767 H 0.98726 0.58948 0.4108 0.0
H768 H 0.04713 0.59827 0.41922 0.0
H769 H 0.03789 0.62658 0.44561 0.0
H770 H 0.06324 0.63401 0.41384 0.0
H771 H 0.00702 0.71197 0.34656 0.0
H772 H 0.99585 0.74424 0.38922 0.0
H773 H 0.99998 0.67113 0.45047 0.0
C774 C 0.02501 0.59911 0.35365 0.0
C775 C 0.02901 0.59973 0.32191 0.0
C776 C 0.02832 0.62677 0.30686 0.0
C777 C 0.02249 0.65243 0.32261 0.0
C778 C 0.01757 0.65097 0.35358 0.0
C779 C 0.01929 0.62515 0.36913 0.0
C780 C 0.01294 0.62991 0.40253 0.0
C781 C 0.98339 0.61313 0.41283 0.0
C782 C 0.04204 0.62171 0.42141 0.0
C783 C 0.00719 0.66234 0.40316 0.0
C784 C 0.0098 0.6739 0.37457 0.0
C785 C 1.00523 0.70321 0.36911 0.0
C786 C 0.99877 0.7214 0.39358 0.0
C787 C 0.99712 0.71042 0.42339 0.0
C788 C 1.00087 0.68029 0.42804 0.0
H789 H 0.33696 0.97901 0.43163 0.0
H790 H 0.34833 0.06699 0.46393 0.0
H791 H 0.38115 0.0787 0.42033 0.0
H792 H 0.41958 0.97397 0.40896 0.0
H793 H 0.4116 0.95122 0.3769 0.0
H794 H 0.38584 0.95006 0.40925 0.0
H795 H 0.33795 0.96128 0.3748 0.0
H796 H 0.3637 0.96287 0.34244 0.0
H797 H 0.33871 0.99314 0.35143 0.0
H798 H 0.41123 0.08229 0.37159 0.0
H799 H 0.44494 0.07431 0.32673 0.0
H800 H 0.42236 0.98287 0.33057 0.0
C801 C 0.34612 1.00077 0.42938 0.0
C802 C 0.33834 0.02238 0.4507 0.0
C803 C 0.35216 0.05026 0.44737 0.0
C804 C 0.37123 0.05724 0.42263 0.0
C805 C 0.37767 0.03586 0.40165 0.0
C806 C 0.36647 1.00793 0.40522 0.0
C807 C 0.37997 0.98845 0.38091 0.0
C808 C 0.40047 0.96451 0.39484 0.0
C809 C 0.3535 0.97568 0.36123 0.0
C810 C 0.40001 0.00993 0.36323 0.0
C811 C 0.39778 0.03729 0.37516 0.0
C812 C 0.41344 0.06084 0.36216 0.0
C813 C 0.43247 0.05616 0.33658 0.0
C814 C 0.43636 0.02801 0.32477 0.0
C815 C 0.41971 1.00475 0.33846 0.0
H816 H 0.98885 0.63835 0.7041 0.0
H817 H 0.97812 0.56695 0.64162 0.0
H818 H 0.99584 0.59831 0.59994 0.0
H819 H 0.96003 0.69394 0.65106 0.0
H820 H 0.987 0.72108 0.66488 0.0
H821 H 0.9729 0.69309 0.68977 0.0
H822 H 0.03083 0.67925 0.702 0.0
H823 H 0.04509 0.70688 0.67675 0.0
H824 H 0.05734 0.66995 0.6717 0.0
H825 H 0.01939 0.63594 0.56579 0.0
H826 H 0.03735 0.67979 0.53928 0.0
H827 H 0.02874 0.72876 0.62224 0.0
C828 C 0.98966 0.6295 0.68154 0.0
C829 C 0.98191 0.60012 0.67619 0.0
C830 C 0.98347 0.58938 0.64633 0.0
C831 C 0.99386 0.60698 0.6225 0.0
C832 C 1.00208 0.63555 0.62864 0.0
C833 C 0.99926 0.64704 0.65723 0.0
C834 C 0.00868 0.67878 0.65736 0.0
C835 C 0.98047 0.69785 0.6663 0.0
C836 C 0.03718 0.68401 0.6782 0.0
C837 C 0.01763 0.68318 0.62447 0.0
C838 C 0.01415 0.65777 0.60849 0.0
C839 C 0.02188 0.65603 0.57801 0.0
C840 C 0.03242 0.68107 0.5632 0.0
C841 C 0.03465 0.70781 0.57861 0.0
C842 C 0.02743 0.70867 0.60982 0.0
H843 H 0.46905 0.98969 0.66272 0.0
H844 H 0.40621 0.98338 0.73955 0.0
H845 H 0.36011 0.99119 0.70609 0.0
H846 H 0.43041 0.04391 0.62436 0.0
H847 H 0.4357 0.02954 0.58697 0.0
H848 H 0.4636 0.02082 0.61619 0.0
H849 H 0.45414 0.96613 0.6077 0.0
H850 H 0.42684 0.97461 0.57783 0.0
H851 H 0.41436 0.95201 0.60874 0.0
H852 H 0.32219 1.00732 0.66531 0.0
H853 H 0.29351 0.02029 0.61856 0.0
H854 H 0.38007 0.01065 0.56722 0.0
C855 C 0.44543 0.98879 0.67219 0.0
C856 C 0.44091 0.98544 0.70352 0.0
C857 C 0.40991 0.98523 0.71546 0.0
C858 C 0.38369 0.98997 0.69668 0.0
C859 C 0.38896 0.99419 0.66593 0.0
C860 C 0.41896 0.99263 0.65359 0.0
C861 C 0.41818 0.99802 0.61988 0.0
C862 C 0.43816 0.02465 0.61137 0.0
C863 C 0.42902 0.97109 0.60251 0.0
C864 C 0.3832 1.00363 0.61528 0.0
C865 C 0.36683 1.0018 0.64222 0.0
C866 C 0.33466 1.00824 0.64402 0.0
C867 C 0.31866 0.01593 0.61749 0.0
C868 C 0.33467 0.01645 0.58949 0.0
C869 C 0.36734 0.01027 0.58842 0.0
H870 H 0.9788 0.3151 0.61879 0.0
H871 H 0.97536 0.36051 0.53327 0.0
H872 H 0.98847 0.40614 0.55919 0.0
H873 H 0.94374 0.37378 0.66368 0.0
H874 H 0.96824 0.36623 0.69593 0.0
H875 H 0.95724 0.33748 0.67065 0.0
H876 H 0.01648 0.32519 0.66305 0.0
H877 H 0.0277 0.35423 0.68786 0.0
H878 H 0.04332 0.35287 0.65007 0.0
H879 H 0.00661 0.44612 0.59385 0.0
H880 H 0.0195 0.47915 0.63576 0.0
H881 H 0.00864 0.40842 0.6992 0.0
C882 C 0.98018 0.33474 0.60559 0.0
C883 C 0.97591 0.33418 0.57395 0.0
C884 C 0.97811 0.36037 0.55753 0.0
C885 C 0.98588 0.38639 0.57203 0.0
C886 C 0.99095 0.38601 0.60307 0.0
C887 C 0.98743 0.36101 0.61978 0.0
C888 C 0.99377 0.36658 0.65293 0.0
C889 C 0.96397 0.36067 0.67191 0.0
C890 C 0.022 0.34865 0.66412 0.0
C891 C 1.00174 0.39854 0.65219 0.0
C892 C 1.00038 0.40924 0.62315 0.0
C893 C 0.00746 0.43803 0.61672 0.0
C894 C 0.01508 0.45659 0.64068 0.0
C895 C 0.01517 0.44643 0.67081 0.0
C896 C 0.00884 0.41686 0.67644 0.0
H897 H 0.58546 0.97506 0.6906 0.0
H898 H 0.56705 0.06707 0.69804 0.0
H899 H 0.60152 0.07588 0.65414 0.0
H900 H 0.66929 0.98337 0.6707 0.0
H901 H 0.66905 0.95285 0.64551 0.0
H902 H 0.64267 0.95356 0.67745 0.0
H903 H 0.59498 0.9456 0.64184 0.0
H904 H 0.62112 0.94518 0.60974 0.0
H905 H 0.58863 0.97027 0.61099 0.0
H906 H 0.63283 0.07435 0.60727 0.0
H907 H 0.66646 0.06464 0.56399 0.0
H908 H 0.67209 0.97406 0.58942 0.0
C909 C 0.58904 0.99714 0.68341 0.0
C910 C 0.57346 0.02042 0.698 0.0
C911 C 0.57866 0.0489 0.68745 0.0
C912 C 0.59814 0.0541 0.66243 0.0
C913 C 0.61285 0.03069 0.64856 0.0
C914 C 0.60916 1.00284 0.65895 0.0
C915 C 0.62854 0.98176 0.64021 0.0
C916 C 0.6539 0.96701 0.65963 0.0
C917 C 0.60703 0.95938 0.62479 0.0
C918 C 0.64337 1.00216 0.61732 0.0
C919 C 0.63341 0.03016 0.62252 0.0
C920 C 0.64161 0.05272 0.60352 0.0
C921 C 0.66109 0.04683 0.57893 0.0
C922 C 0.67339 0.01871 0.57369 0.0
C923 C 0.66396 0.99592 0.59311 0.0
H924 H 0.43074 0.32414 0.04628 0.0
H925 H 0.45063 0.33343 0.95085 0.0
H926 H 0.41082 0.37244 0.94791 0.0
H927 H 0.34606 0.33208 0.03835 0.0
H928 H 0.34178 0.35026 0.07402 0.0
H929 H 0.37324 0.32463 0.06863 0.0
H930 H 0.41407 0.36365 0.08429 0.0
H931 H 0.38278 0.38956 0.08926 0.0
H932 H 0.41531 0.39753 0.06428 0.0
H933 H 0.37112 0.41257 0.95658 0.0
H934 H 0.32731 0.44369 0.9726 0.0
H935 H 0.3276 0.40322 0.06083 0.0
C936 C 0.4266 0.33394 0.02462 0.0
C937 C 0.44405 0.32555 0.99879 0.0
C938 C 0.43772 0.33938 0.97097 0.0
C939 C 0.41524 0.36169 0.96915 0.0
C940 C 0.39871 0.36945 0.99517 0.0
C941 C 0.40351 0.35542 0.02219 0.0
C942 C 0.38104 0.36631 0.04635 0.0
C943 C 0.35923 0.34187 0.05748 0.0
C944 C 0.39941 0.38008 0.07259 0.0
C945 C 0.36279 0.38886 0.02875 0.0
C946 C 0.374 0.39082 0.99951 0.0
C947 C 0.36191 0.41089 0.97928 0.0
C948 C 0.33705 0.4287 0.98876 0.0
C949 C 0.32365 0.42589 0.01798 0.0
C950 C 0.33713 0.40587 0.03834 0.0
H951 H 0.33346 0.58304 0.95044 0.0
H952 H 0.26456 0.62019 0.01166 0.0
H953 H 0.30403 0.65534 0.02893 0.0
H954 H 0.39987 0.58908 0.99752 0.0
H955 H 0.42741 0.59954 0.96842 0.0
H956 H 0.39329 0.57793 0.95911 0.0
H957 H 0.37589 0.61586 0.91953 0.0
H958 H 0.41027 0.63734 0.92839 0.0
H959 H 0.37139 0.65305 0.93072 0.0
H960 H 0.35247 0.68368 0.04349 0.0
H961 H 0.40449 0.70786 0.04855 0.0
H962 H 0.44149 0.65473 0.9762 0.0
C963 C 0.32645 0.59894 0.967 0.0
C964 C 0.29564 0.59859 0.97963 0.0
C965 C 0.28771 0.61982 1.0014 0.0
C966 C 0.31014 0.63991 0.01158 0.0
C967 C 0.34046 0.63905 0.99944 0.0
C968 C 0.3485 0.61961 0.97709 0.0
C969 C 0.38283 0.62351 0.96778 0.0
C970 C 0.40197 0.59587 0.97356 0.0
C971 C 0.38523 0.633 0.93464 0.0
C972 C 0.39288 0.64765 0.98887 0.0
C973 C 0.36814 0.65616 0.0071 0.0
C974 C 0.37195 0.67744 0.02908 0.0
C975 C 0.40165 0.69088 0.032 0.0
C976 C 0.42706 0.68323 0.01283 0.0
C977 C 0.42251 0.66114 0.99117 0.0
H978 H 0.61801 0.31219 1.00514 0.0
H979 H 0.53767 0.36418 0.03147 0.0
H980 H 0.56835 0.40862 0.02085 0.0
H981 H 0.68053 0.3623 0.03468 0.0
H982 H 0.70667 0.35469 1.0036 0.0
H983 H 0.67948 0.32738 0.01673 0.0
H984 H 0.65733 0.32288 0.96265 0.0
H985 H 0.68356 0.35087 0.94948 0.0
H986 H 0.64145 0.3543 0.94412 0.0
H987 H 0.60592 0.44726 1.00239 0.0
H988 H 0.64999 0.47766 0.98429 0.0
H989 H 0.70647 0.40087 0.96923 0.0
C990 C 0.60744 0.33298 0.00983 0.0
C991 C 0.57584 0.33483 0.02023 0.0
C992 C 0.56221 0.36234 0.02473 0.0
C993 C 0.57935 0.38768 0.01832 0.0
C994 C 0.61016 0.38519 0.0073 0.0
C995 C 0.62435 0.35855 1.00364 0.0
C996 C 0.65739 0.36193 0.99046 0.0
C997 C 0.6825 0.35092 0.0127 0.0
C998 C 0.66007 0.34659 0.95985 0.0
C999 C 0.65934 0.39452 0.98683 0.0
C1000 C 0.63178 0.40748 0.99657 0.0
C1001 C 0.62772 0.43732 0.99499 0.0
C1002 C 0.65287 0.45443 0.98429 0.0
C1003 C 0.68198 0.44183 0.97543 0.0
C1004 C 0.68477 0.41132 0.97612 0.0
H1005 H 0.65932 0.56904 0.05009 0.0
H1006 H 0.72975 0.60532 0.98962 0.0
H1007 H 0.69222 0.64247 0.97362 0.0
H1008 H 0.59214 0.58044 1.00264 0.0
H1009 H 0.56573 0.59079 0.03264 0.0
H1010 H 0.59827 0.56684 0.04026 0.0
H1011 H 0.6187 0.6015 0.08181 0.0
H1012 H 0.58595 0.62533 0.07453 0.0
H1013 H 0.62591 0.6389 0.07269 0.0
H1014 H 0.64639 0.67462 0.96184 0.0
H1015 H 0.59696 0.70297 0.95982 0.0
H1016 H 0.55619 0.64775 0.02888 0.0
C1017 C 0.66692 0.58503 0.03378 0.0
C1018 C 0.69787 0.58436 0.02155 0.0
C1019 C 0.70668 0.60563 1.00005 0.0
C1020 C 0.6853 0.62674 0.99045 0.0
C1021 C 0.65502 0.62669 1.00267 0.0
C1022 C 0.64589 0.60674 0.02424 0.0
C1023 C 0.612 0.61213 0.03413 0.0
C1024 C 0.59078 0.58599 0.02698 0.0
C1025 C 0.61057 0.61993 0.06779 0.0
C1026 C 0.60361 0.6379 0.01452 0.0
C1027 C 0.62869 0.64577 0.99633 0.0
C1028 C 0.62659 0.66876 0.97609 0.0
C1029 C 0.59833 0.68463 0.97491 0.0
C1030 C 0.57266 0.67763 0.9941 0.0
C1031 C 0.57537 0.65368 0.01386 0.0
H1032 H 0.52399 0.79572 0.89587 0.0
H1033 H 0.53771 0.8423 0.97967 0.0
H1034 H 0.52515 0.88807 0.95378 0.0
H1035 H 0.55909 0.85198 0.84727 0.0
H1036 H 0.53168 0.8451 0.81701 0.0
H1037 H 0.54285 0.81628 0.84209 0.0
H1038 H 0.4837 0.80691 0.85411 0.0
H1039 H 0.47236 0.83605 0.82952 0.0
H1040 H 0.4597 0.836 0.86832 0.0
H1041 H 0.50619 0.92815 0.91979 0.0
H1042 H 0.4918 0.96106 0.87824 0.0
H1043 H 0.49385 0.88914 0.81564 0.0
C1044 C 0.52498 0.81565 0.90861 0.0
C1045 C 0.53198 0.81544 0.93979 0.0
C1046 C 0.53285 0.84193 0.95572 0.0
C1047 C 0.52541 0.86803 0.94126 0.0
C1048 C 0.51768 0.86736 0.91073 0.0
C1049 C 0.51825 0.84198 0.89439 0.0
C1050 C 0.50966 0.84731 0.86167 0.0
C1051 C 0.53748 0.83973 0.84078 0.0
C1052 C 0.47957 0.83057 0.8529 0.0
C1053 C 0.50376 0.8796 0.86227 0.0
C1054 C 0.50804 0.89066 0.89089 0.0
C1055 C 0.50308 0.91977 0.89723 0.0
C1056 C 0.49457 0.93826 0.87351 0.0
C1057 C 0.49158 0.92769 0.8437 0.0
C1058 C 0.49587 0.89785 0.8382 0.0
H1059 H 0.16391 0.54492 0.92004 0.0
H1060 H 0.1634 0.45413 0.9449 0.0
H1061 H 0.12588 0.4438 0.90412 0.0
H1062 H 0.08014 0.5483 0.90253 0.0
H1063 H 0.08547 0.5729 0.87144 0.0
H1064 H 0.11296 0.57325 0.90242 0.0
H1065 H 0.15929 0.56536 0.86502 0.0
H1066 H 0.13185 0.56472 0.834 0.0
H1067 H 0.15831 0.5348 0.83988 0.0
H1068 H 0.08895 0.44266 0.85935 0.0
H1069 H 0.05259 0.45214 0.81674 0.0
H1070 H 0.07503 0.54357 0.82285 0.0
C1071 C 0.1559 0.52289 0.91694 0.0
C1072 C 0.1672 0.50037 0.93559 0.0
C1073 C 0.15567 0.47186 0.93082 0.0
C1074 C 0.13422 0.46566 0.90764 0.0
C1075 C 0.12395 0.48818 0.88943 0.0
C1076 C 0.13408 0.5163 0.89402 0.0
C1077 C 0.1186 0.5366 0.87168 0.0
C1078 C 0.09807 0.55909 0.888 0.0
C1079 C 0.14351 0.55123 0.85145 0.0
C1080 C 0.09843 0.51548 0.8539 0.0
C1081 C 0.10199 0.48762 0.86427 0.0
C1082 C 0.0859 0.46445 0.85106 0.0
C1083 C 0.06538 0.47 0.82678 0.0
C1084 C 0.06092 0.49854 0.81613 0.0
C1085 C 0.07787 0.52142 0.83005 0.0
H1086 H 0.52303 0.11733 0.81405 0.0
H1087 H 0.5277 0.04527 0.87642 0.0
H1088 H 0.51381 0.07782 0.91838 0.0
H1089 H 0.55825 0.17015 0.866 0.0
H1090 H 0.53388 0.19931 0.85259 0.0
H1091 H 0.54443 0.17026 0.82758 0.0
H1092 H 0.48502 0.16111 0.81667 0.0
H1093 H 0.47428 0.18983 0.84203 0.0
H1094 H 0.45838 0.15405 0.84758 0.0
H1095 H 0.49513 0.11747 0.95301 0.0
H1096 H 0.48258 0.16295 0.97949 0.0
H1097 H 0.49427 0.2103 0.89581 0.0
C1098 C 0.52161 0.10852 0.83663 0.0
C1099 C 0.52657 0.07872 0.84193 0.0
C1100 C 0.5244 0.06803 0.87179 0.0
C1101 C 0.51619 0.08632 0.89577 0.0
C1102 C 0.51075 0.11542 0.88969 0.0
C1103 C 0.51417 0.12665 0.861 0.0
C1104 C 0.50809 0.15895 0.86083 0.0
C1105 C 0.53794 0.17565 0.85118 0.0
C1106 C 0.47976 0.16641 0.84057 0.0
C1107 C 0.50041 0.16406 0.89382 0.0
C1108 C 0.50153 0.13855 0.90996 0.0
C1109 C 0.49446 0.13762 0.94065 0.0
C1110 C 0.48702 0.16354 0.95545 0.0
C1111 C 0.48726 0.19016 0.93971 0.0
C1112 C 0.49376 0.19026 0.9084 0.0
H1113 H 0.89874 0.50833 0.80351 0.0
H1114 H 0.9673 0.56619 0.84395 0.0
H1115 H 0.94068 0.56058 0.89305 0.0
H1116 H 0.83019 0.53406 0.84985 0.0
H1117 H 0.81289 0.49847 0.85149 0.0
H1118 H 0.83595 0.50915 0.81913 0.0
H1119 H 0.87163 0.46438 0.82691 0.0
H1120 H 0.84933 0.45405 0.85984 0.0
H1121 H 0.8915 0.45943 0.86245 0.0
H1122 H 0.91245 0.54261 0.93858 0.0
H1123 H 0.87582 0.52421 0.97681 0.0
H1124 H 0.82093 0.48089 0.90744 0.0
C1125 C 0.90776 0.52028 0.82254 0.0
C1126 C 0.93549 0.53745 0.81986 0.0
C1127 C 0.94623 0.55303 0.84526 0.0
C1128 C 0.93136 0.54972 0.87337 0.0
C1129 C 0.90525 0.5313 0.87555 0.0
C1130 C 0.8927 0.51771 0.85065 0.0
C1131 C 0.86404 0.49943 0.85929 0.0
C1132 C 0.83398 0.51097 0.84403 0.0
C1133 C 0.86946 0.46743 0.85166 0.0
C1134 C 0.86303 0.5042 0.89318 0.0
C1135 C 0.88742 0.52236 0.90189 0.0
C1136 C 0.89279 0.52902 0.93193 0.0
C1137 C 0.87181 0.5182 0.95354 0.0
C1138 C 0.845 0.50137 0.94526 0.0
C1139 C 0.8411 0.49359 0.91461 0.0
H1140 H 0.49346 0.1201 0.20397 0.0
H1141 H 0.49549 0.04701 0.14281 0.0
H1142 H 0.51452 0.07884 0.10207 0.0
H1143 H 0.46548 0.17229 0.14732 0.0
H1144 H 0.48851 0.20158 0.16271 0.0
H1145 H 0.47458 0.17305 0.187 0.0
H1146 H 0.53214 0.16383 0.20451 0.0
H1147 H 0.54626 0.19203 0.17989 0.0
H1148 H 0.56221 0.15609 0.17686 0.0
H1149 H 0.53705 0.11776 0.06874 0.0
H1150 H 0.55269 0.16252 0.04255 0.0
H1151 H 0.53317 0.21162 0.12374 0.0
C1152 C 0.49744 0.11089 0.18187 0.0
C1153 C 0.49284 0.08094 0.17669 0.0
C1154 C 0.49844 0.06983 0.14741 0.0
C1155 C 0.50958 0.08772 0.12412 0.0
C1156 C 0.5146 0.11691 0.13016 0.0
C1157 C 0.50798 0.12862 0.15808 0.0
C1158 C 0.51451 0.16095 0.15818 0.0
C1159 C 0.48395 0.17797 0.16415 0.0
C1160 C 0.54032 0.16867 0.18123 0.0
C1161 C 0.52616 0.16546 0.12609 0.0
C1162 C 0.52643 0.13965 0.11049 0.0
C1163 C 0.5367 0.13812 0.08067 0.0
C1164 C 0.54587 0.16373 0.06604 0.0
C1165 C 0.54431 0.19075 0.08098 0.0
C1166 C 0.53476 0.19139 0.11164 0.0
H1167 H 0.93753 0.53824 0.17769 0.0
H1168 H 0.94761 0.44608 0.19317 0.0
H1169 H 0.90574 0.43672 0.15561 0.0
H1170 H 0.8514 0.53689 0.17038 0.0
H1171 H 0.85101 0.56473 0.14197 0.0
H1172 H 0.88188 0.5642 0.16997 0.0
H1173 H 0.92415 0.56373 0.12769 0.0
H1174 H 0.89345 0.56412 0.09958 0.0
H1175 H 0.92274 0.53592 0.0993 0.0
H1176 H 0.86667 0.43731 0.11354 0.0
H1177 H 0.82948 0.44715 0.07274 0.0
H1178 H 0.83881 0.53931 0.08852 0.0
C1179 C 0.93067 0.51607 0.17368 0.0
C1180 C 0.94582 0.49288 0.18875 0.0
C1181 C 0.93634 0.46421 0.18217 0.0
C1182 C 0.91257 0.4587 0.16083 0.0
C1183 C 0.89808 0.48207 0.14663 0.0
C1184 C 0.90644 0.5102 0.15302 0.0
C1185 C 0.88685 0.5314 0.13475 0.0
C1186 C 0.86658 0.55043 0.15551 0.0
C1187 C 0.90807 0.54988 0.11411 0.0
C1188 C 0.86646 0.51073 0.11661 0.0
C1189 C 0.87368 0.48241 0.12372 0.0
C1190 C 0.86014 0.45935 0.10842 0.0
C1191 C 0.83867 0.46526 0.08529 0.0
C1192 C 0.82998 0.49401 0.07792 0.0
C1193 C 0.84409 0.51707 0.09407 0.0
H1194 H 0.48659 0.84547 0.06508 0.0
H1195 H 0.48818 0.77285 0.12707 0.0
H1196 H 0.50022 0.80598 0.16891 0.0
H1197 H 0.55033 0.88463 0.09791 0.0
H1198 H 0.53295 0.91979 0.09276 0.0
H1199 H 0.52309 0.8908 0.06736 0.0
H1200 H 0.46349 0.89747 0.07897 0.0
H1201 H 0.47312 0.92685 0.10395 0.0
H1202 H 0.4501 0.8967 0.11755 0.0
H1203 H 0.51431 0.84617 0.20373 0.0
H1204 H 0.52374 0.8918 0.23071 0.0
H1205 H 0.51268 0.93934 0.14702 0.0
C1206 C 0.48887 0.83657 0.08754 0.0
C1207 C 0.48643 0.80641 0.09267 0.0
C1208 C 0.48999 0.79576 0.12243 0.0
C1209 C 0.49696 0.81442 0.14639 0.0
C1210 C 0.50022 0.84381 0.1404 0.0
C1211 C 0.49583 0.85497 0.11185 0.0
C1212 C 0.50062 0.88753 0.11176 0.0
C1213 C 0.5284 0.89619 0.09122 0.0
C1214 C 0.47001 0.90305 0.10252 0.0
C1215 C 0.50844 0.89286 0.14471 0.0
C1216 C 0.50825 0.86723 0.16069 0.0
C1217 C 0.51442 0.86639 0.19148 0.0
C1218 C 0.51989 0.89247 0.20659 0.0
C1219 C 0.5191 0.91924 0.19105 0.0
C1220 C 0.51395 0.91927 0.1595 0.0
H1221 H 0.13839 0.49272 0.0515 0.0
H1222 H 0.22782 0.48952 0.09883 0.0
H1223 H 0.20036 0.50198 0.14655 0.0
H1224 H 0.10624 0.55147 0.08835 0.0
H1225 H 0.06627 0.53786 0.09019 0.0
H1226 H 0.09226 0.52626 0.06042 0.0
H1227 H 0.08384 0.47256 0.07518 0.0
H1228 H 0.05674 0.48392 0.10415 0.0
H1229 H 0.09006 0.46152 0.11369 0.0
H1230 H 0.16289 0.52078 0.18797 0.0
H1231 H 0.11773 0.53264 0.22152 0.0
H1232 H 0.05296 0.52015 0.14718 0.0
C1233 C 0.15198 0.49352 0.07217 0.0
C1234 C 0.18513 0.48971 0.07166 0.0
C1235 C 0.2023 0.49155 0.09895 0.0
C1236 C 0.18693 0.49915 0.12601 0.0
C1237 C 0.15434 0.50422 0.12541 0.0
C1238 C 0.13696 0.50044 0.09933 0.0
C1239 C 0.10223 0.50678 0.10446 0.0
C1240 C 0.09111 0.53209 0.08468 0.0
C1241 C 0.08203 0.47958 0.09906 0.0
C1242 C 0.10265 0.51509 0.13744 0.0
C1243 C 0.13298 0.51405 0.14908 0.0
C1244 C 0.13909 0.52144 0.17904 0.0
C1245 C 0.1134 0.52861 0.19784 0.0
C1246 C 0.08206 0.52784 0.18672 0.0
C1247 C 0.07681 0.52154 0.15602 0.0
H1248 H 0.84376 0.94396 0.55251 0.0
H1249 H 0.77986 0.91308 0.48314 0.0
H1250 H 0.81796 0.87571 0.46891 0.0
H1251 H 0.91531 0.93371 0.511 0.0
H1252 H 0.93825 0.9213 0.54265 0.0
H1253 H 0.90546 0.9454 0.54859 0.0
H1254 H 0.88029 0.90895 0.58598 0.0
H1255 H 0.91319 0.88489 0.58032 0.0
H1256 H 0.87336 0.87225 0.57407 0.0
H1257 H 0.86433 0.84318 0.45965 0.0
H1258 H 0.91396 0.815 0.45956 0.0
H1259 H 0.94775 0.86515 0.5357 0.0
C1260 C 0.83764 0.92906 0.53464 0.0
C1261 C 0.80826 0.93125 0.51945 0.0
C1262 C 0.80149 0.91147 0.4959 0.0
C1263 C 0.82328 0.89026 0.48731 0.0
C1264 C 0.85196 0.88875 0.50253 0.0
C1265 C 0.8591 0.90732 0.52598 0.0
C1266 C 0.89171 0.90075 0.5386 0.0
C1267 C 0.91399 0.92685 0.53498 0.0
C1268 C 0.88949 0.89114 0.57171 0.0
C1269 C 0.90172 0.87591 0.51837 0.0
C1270 C 0.87852 0.86949 0.49756 0.0
C1271 C 0.8826 0.84786 0.47601 0.0
C1272 C 0.91095 0.83205 0.476 0.0
C1273 C 0.93479 0.83771 0.4976 0.0
C1274 C 0.92998 0.86011 0.51893 0.0
H1275 H 0.96216 0.15396 0.51355 0.0
H1276 H 0.90357 0.23029 0.52064 0.0
H1277 H 0.85664 0.20142 0.50592 0.0
H1278 H 0.9243 0.12098 0.45128 0.0
H1279 H 0.92642 0.08457 0.46553 0.0
H1280 H 0.95564 0.11089 0.47667 0.0
H1281 H 0.9428 0.1018 0.53298 0.0
H1282 H 0.91418 0.07488 0.52205 0.0
H1283 H 0.90244 0.10452 0.54584 0.0
H1284 H 0.81784 0.16564 0.48529 0.0
H1285 H 0.78552 0.1231 0.47314 0.0
H1286 H 0.86733 0.06782 0.48567 0.0
C1287 C 0.93924 0.16433 0.51268 0.0
C1288 C 0.9362 0.19423 0.51845 0.0
C1289 C 0.90609 0.20729 0.51686 0.0
C1290 C 0.87949 0.19116 0.50809 0.0
C1291 C 0.88338 0.16187 0.50172 0.0
C1292 C 0.91222 0.1483 0.50495 0.0
C1293 C 0.90943 0.11618 0.49839 0.0
C1294 C 0.93019 0.10766 0.47136 0.0
C1295 C 0.91769 0.09829 0.52649 0.0
C1296 C 0.8745 0.11383 0.49073 0.0
C1297 C 0.86027 0.14066 0.49203 0.0
C1298 C 0.82855 0.14445 0.4849 0.0
C1299 C 0.8104 0.12003 0.47795 0.0
C1300 C 0.82357 0.09187 0.47915 0.0
C1301 C 0.85643 0.08892 0.48459 0.0
H1302 H 0.11409 0.82909 0.5277 0.0
H1303 H 0.03351 0.88262 0.50544 0.0
H1304 H 0.06919 0.92355 0.49455 0.0
H1305 H 0.16302 0.88814 0.56233 0.0
H1306 H 0.19932 0.87405 0.54698 0.0
H1307 H 0.16725 0.84986 0.5562 0.0
H1308 H 0.16835 0.83006 0.50159 0.0
H1309 H 0.2 0.85459 0.4921 0.0
H1310 H 0.16393 0.85475 0.47047 0.0
H1311 H 0.11325 0.95705 0.48077 0.0
H1312 H 0.16303 0.9835 0.47153 0.0
H1313 H 0.21625 0.90945 0.50339 0.0
C1314 C 0.10403 0.84981 0.5218 0.0
C1315 C 0.07096 0.85293 0.5181 0.0
C1316 C 0.05871 0.87999 0.50897 0.0
C1317 C 0.07882 0.9033 0.50249 0.0
C1318 C 0.11132 0.89935 0.50521 0.0
C1319 C 0.12396 0.87352 0.5152 0.0
C1320 C 0.15993 0.87496 0.51497 0.0
C1321 C 0.17316 0.87155 0.54703 0.0
C1322 C 0.17387 0.85224 0.49351 0.0
C1323 C 0.16537 0.90541 0.50304 0.0
C1324 C 0.13695 0.91895 0.49737 0.0
C1325 C 0.13569 0.94679 0.48544 0.0
C1326 C 0.16418 0.96159 0.47999 0.0
C1327 C 0.19373 0.9487 0.48664 0.0
C1328 C 0.19415 0.92001 0.498 0.0
H1329 H 0.0548 0.15448 0.51787 0.0
H1330 H 0.11324 0.23146 0.52057 0.0
H1331 H 0.15917 0.20201 0.53629 0.0
H1332 H 0.0894 0.11626 0.57975 0.0
H1333 H 0.08842 0.08135 0.56184 0.0
H1334 H 0.05957 0.10831 0.55194 0.0
H1335 H 0.07554 0.10454 0.49569 0.0
H1336 H 0.10385 0.07707 0.50535 0.0
H1337 H 0.11651 0.10889 0.48521 0.0
H1338 H 0.19737 0.165 0.55463 0.0
H1339 H 0.22976 0.12179 0.56304 0.0
H1340 H 0.14873 0.06724 0.54285 0.0
C1341 C 0.07745 0.16492 0.52143 0.0
C1342 C 0.08076 0.19514 0.51817 0.0
C1343 C 0.11052 0.20829 0.52289 0.0
C1344 C 0.13655 0.19179 0.53208 0.0
C1345 C 0.13248 0.16208 0.53576 0.0
C1346 C 0.104 0.14858 0.52968 0.0
C1347 C 0.10682 0.11605 0.53319 0.0
C1348 C 0.08473 0.10484 0.55817 0.0
C1349 C 0.1003 0.10074 0.50307 0.0
C1350 C 0.14131 0.11339 0.54232 0.0
C1351 C 0.15532 0.14035 0.54436 0.0
C1352 C 0.18681 0.14377 0.55268 0.0
C1353 C 0.20499 0.119 0.5575 0.0
C1354 C 0.19202 0.09099 0.55319 0.0
C1355 C 0.15938 0.08824 0.54651 0.0
loop_
_geom_bond_atom_site_label_1
_geom_bond_atom_site_label_2
_geom_bond_distance
_geom_bond_site_symmetry_2
_ccdc_geom_bond_type
Co0 O2 2.143 . S
Co0 O8 2.074 . S
Co0 O11 2.093 1_455 S
Co0 O24 2.097 1_455 S
Co0 N41 2.151 . S
Co0 N49 2.214 . S
Co1 O2 2.160 1_655 S
Co1 O7 2.058 1_655 S
Co1 O17 2.057 1_655 S
Co1 O32 2.037 . S
Co1 N36 2.145 . S
Co1 N57 2.257 . S
O2 Co0 2.143 . S
O2 Co1 2.160 1_455 S
C3 O4 1.278 . S
C3 O11 1.224 . S
O4 C3 1.278 . S
C5 O6 1.245 . S
C5 O17 1.232 . S
O6 C5 1.245 . S
O7 Co1 2.058 1_455 S
O7 C33 1.269 . S
O8 Co0 2.074 . S
O8 C33 1.257 . S
H9 C34 0.930 . S
H10 C40 0.930 . S
O11 Co0 2.093 1_655 S
O11 C3 1.224 . S
H12 C44 0.929 . S
H13 C46 0.930 . S
H14 C47 0.930 . S
H15 C45 0.929 . S
H16 C48 0.928 . S
O17 Co1 2.057 1_455 S
O17 C5 1.232 . S
H18 C37 0.929 . S
H19 C38 0.929 . S
H20 C50 0.931 . S
H21 C42 0.929 . S
H22 C51 0.930 . S
H23 C43 0.931 . S
O24 Co0 2.097 1_655 S
O24 C52 1.214 . S
H25 C53 0.929 . S
H26 C54 0.929 . S
H27 C55 0.930 . S
H28 C56 0.929 . S
H29 C58 0.930 . S
H30 C35 0.930 . S
H31 C39 0.930 . S
O32 Co1 2.037 . S
O32 C52 1.234 . S
C33 O7 1.269 . S
C33 O8 1.257 . S
C34 H9 0.930 . S
C34 C37 1.388 . S
C34 C39 1.418 . S
C35 H30 0.930 . S
C35 C38 1.404 . S
C35 C39 1.353 . S
N36 Co1 2.145 . S
N36 C37 1.397 . S
N36 C38 1.334 . S
C37 H18 0.929 . S
C37 C34 1.388 . S
C37 N36 1.397 . S
C38 H19 0.929 . S
C38 C35 1.404 . S
C38 N36 1.334 . S
C39 H31 0.930 . S
C39 C34 1.418 . S
C39 C35 1.353 . S
C40 H10 0.930 . S
C40 N41 1.330 . S
C40 C42 1.446 . S
N41 Co0 2.151 . S
N41 C40 1.330 . S
N41 C45 1.418 . S
C42 H21 0.929 . S
C42 C40 1.446 . S
C42 C43 1.332 . S
C43 H23 0.931 . S
C43 C42 1.332 . S
C43 C44 1.267 . S
C44 H12 0.929 . S
C44 C43 1.267 . S
C44 C45 1.251 . S
C45 H15 0.929 . S
C45 N41 1.418 . S
C45 C44 1.251 . S
C46 H13 0.930 . S
C46 C48 1.406 . S
C46 C51 1.261 . S
C47 H14 0.930 . S
C47 N49 1.325 . S
C47 C50 1.357 . S
C48 H16 0.928 . S
C48 C46 1.406 . S
C48 N49 1.261 . S
N49 Co0 2.214 . S
N49 C47 1.325 . S
N49 C48 1.261 . S
C50 H20 0.931 . S
C50 C47 1.357 . S
C50 C51 1.312 . S
C51 H22 0.930 . S
C51 C46 1.261 . S
C51 C50 1.312 . S
C52 O24 1.214 . S
C52 O32 1.234 . S
C53 H25 0.929 . S
C53 C56 1.391 . S
C53 C58 1.391 . S
C54 H26 0.929 . S
C54 C55 1.390 . S
C54 N57 1.391 . S
C55 H27 0.930 . S
C55 C54 1.390 . S
C55 C56 1.392 . S
C56 H28 0.929 . S
C56 C53 1.391 . S
C56 C55 1.392 . S
N57 Co1 2.257 . S
N57 C54 1.391 . S
N57 C58 1.388 . S
C58 H29 0.930 . S
C58 C53 1.391 . S
C58 N57 1.388 . S
Co59 O61 2.143 . S
Co59 O67 2.074 . S
Co59 O70 2.093 . S
Co59 O83 2.097 . S
Co59 N100 2.151 . S
Co59 N108 2.214 . S
Co60 O61 2.160 1_565 S
Co60 O66 2.058 . S
Co60 O76 2.057 . S
Co60 O91 2.037 . S
Co60 N95 2.145 . S
Co60 N116 2.257 . S
O61 Co59 2.143 . S
O61 Co60 2.160 1_545 S
C62 O63 1.278 . S
C62 O70 1.224 . S
O63 C62 1.278 . S
C64 O65 1.245 . S
C64 O76 1.232 . S
O65 C64 1.245 . S
O66 Co60 2.058 . S
O66 C92 1.269 . S
O67 Co59 2.074 . S
O67 C92 1.257 1_545 S
H68 C93 0.930 . S
H69 C99 0.930 . S
O70 Co59 2.093 . S
O70 C62 1.224 . S
H71 C103 0.929 . S
H72 C105 0.930 . S
H73 C106 0.930 . S
H74 C104 0.929 . S
H75 C107 0.928 . S
O76 Co60 2.057 . S
O76 C64 1.232 . S
H77 C96 0.929 . S
H78 C97 0.929 . S
H79 C109 0.931 . S
H80 C101 0.929 . S
H81 C110 0.930 . S
H82 C102 0.931 . S
O83 Co59 2.097 . S
O83 C111 1.214 . S
H84 C112 0.929 . S
H85 C113 0.929 . S
H86 C114 0.930 . S
H87 C115 0.929 . S
H88 C117 0.930 . S
H89 C94 0.930 . S
H90 C98 0.930 . S
O91 Co60 2.037 . S
O91 C111 1.234 1_565 S
C92 O66 1.269 . S
C92 O67 1.257 1_565 S
C93 H68 0.930 . S
C93 C96 1.388 . S
C93 C98 1.418 . S
C94 H89 0.930 . S
C94 C97 1.404 . S
C94 C98 1.353 . S
N95 Co60 2.145 . S
N95 C96 1.397 . S
N95 C97 1.334 . S
C96 H77 0.929 . S
C96 C93 1.388 . S
C96 N95 1.397 . S
C97 H78 0.929 . S
C97 C94 1.404 . S
C97 N95 1.334 . S
C98 H90 0.930 . S
C98 C93 1.418 . S
C98 C94 1.353 . S
C99 H69 0.930 . S
C99 N100 1.330 . S
C99 C101 1.446 . S
N100 Co59 2.151 . S
N100 C99 1.330 . S
N100 C104 1.418 . S
C101 H80 0.929 . S
C101 C99 1.446 . S
C101 C102 1.332 . S
C102 H82 0.931 . S
C102 C101 1.332 . S
C102 C103 1.267 . S
C103 H71 0.929 . S
C103 C102 1.267 . S
C103 C104 1.251 . S
C104 H74 0.929 . S
C104 N100 1.418 . S
C104 C103 1.251 . S
C105 H72 0.930 . S
C105 C107 1.406 . S
C105 C110 1.261 . S
C106 H73 0.930 . S
C106 N108 1.325 . S
C106 C109 1.357 . S
C107 H75 0.928 . S
C107 C105 1.406 . S
C107 N108 1.261 . S
N108 Co59 2.214 . S
N108 C106 1.325 . S
N108 C107 1.261 . S
C109 H79 0.931 . S
C109 C106 1.357 . S
C109 C110 1.312 . S
C110 H81 0.930 . S
C110 C105 1.261 . S
C110 C109 1.312 . S
C111 O83 1.214 . S
C111 O91 1.234 1_545 S
C112 H84 0.929 . S
C112 C115 1.391 . S
C112 C117 1.391 . S
C113 H85 0.929 . S
C113 C114 1.390 . S
C113 N116 1.391 . S
C114 H86 0.930 . S
C114 C113 1.390 . S
C114 C115 1.392 . S
C115 H87 0.929 . S
C115 C112 1.391 . S
C115 C114 1.392 . S
N116 Co60 2.257 . S
N116 C113 1.391 . S
N116 C117 1.388 . S
C117 H88 0.930 . S
C117 C112 1.391 . S
C117 N116 1.388 . S
Co118 O120 2.143 . S
Co118 O126 2.074 . S
Co118 O129 2.093 1_455 S
Co118 O142 2.097 1_455 S
Co118 N159 2.151 . S
Co118 N167 2.214 . S
Co119 O120 2.160 1_655 S
Co119 O125 2.058 1_655 S
Co119 O135 2.057 1_655 S
Co119 O150 2.037 . S
Co119 N154 2.145 . S
Co119 N175 2.257 . S
O120 Co118 2.143 . S
O120 Co119 2.160 1_455 S
C121 O122 1.278 . S
C121 O129 1.224 . S
O122 C121 1.278 . S
C123 O124 1.245 . S
C123 O135 1.232 . S
O124 C123 1.245 . S
O125 Co119 2.058 1_455 S
O125 C151 1.269 . S
O126 Co118 2.074 . S
O126 C151 1.257 . S
H127 C152 0.930 . S
H128 C158 0.930 . S
O129 Co118 2.093 1_655 S
O129 C121 1.224 . S
H130 C162 0.929 . S
H131 C164 0.930 . S
H132 C165 0.930 . S
H133 C163 0.929 . S
H134 C166 0.928 . S
O135 Co119 2.057 1_455 S
O135 C123 1.232 . S
H136 C155 0.929 . S
H137 C156 0.929 . S
H138 C168 0.931 . S
H139 C160 0.929 . S
H140 C169 0.930 . S
H141 C161 0.931 . S
O142 Co118 2.097 1_655 S
O142 C170 1.214 . S
H143 C171 0.929 . S
H144 C172 0.929 . S
H145 C173 0.930 . S
H146 C174 0.929 . S
H147 C176 0.930 . S
H148 C153 0.930 . S
H149 C157 0.930 . S
O150 Co119 2.037 . S
O150 C170 1.234 . S
C151 O125 1.269 . S
C151 O126 1.257 . S
C152 H127 0.930 . S
C152 C155 1.388 . S
C152 C157 1.418 . S
C153 H148 0.930 . S
C153 C156 1.404 . S
C153 C157 1.353 . S
N154 Co119 2.145 . S
N154 C155 1.397 . S
N154 C156 1.334 . S
C155 H136 0.929 . S
C155 C152 1.388 . S
C155 N154 1.397 . S
C156 H137 0.929 . S
C156 C153 1.404 . S
C156 N154 1.334 . S
C157 H149 0.930 . S
C157 C152 1.418 . S
C157 C153 1.353 . S
C158 H128 0.930 . S
C158 N159 1.330 . S
C158 C160 1.446 . S
N159 Co118 2.151 . S
N159 C158 1.330 . S
N159 C163 1.418 . S
C160 H139 0.929 . S
C160 C158 1.446 . S
C160 C161 1.332 . S
C161 H141 0.931 . S
C161 C160 1.332 . S
C161 C162 1.267 . S
C162 H130 0.929 . S
C162 C161 1.267 . S
C162 C163 1.251 . S
C163 H133 0.929 . S
C163 N159 1.418 . S
C163 C162 1.251 . S
C164 H131 0.930 . S
C164 C166 1.406 . S
C164 C169 1.261 . S
C165 H132 0.930 . S
C165 N167 1.325 . S
C165 C168 1.357 . S
C166 H134 0.928 . S
C166 C164 1.406 . S
C166 N167 1.261 . S
N167 Co118 2.214 . S
N167 C165 1.325 . S
N167 C166 1.261 . S
C168 H138 0.931 . S
C168 C165 1.357 . S
C168 C169 1.312 . S
C169 H140 0.930 . S
C169 C164 1.261 . S
C169 C168 1.312 . S
C170 O142 1.214 . S
C170 O150 1.234 . S
C171 H143 0.929 . S
C171 C174 1.391 . S
C171 C176 1.391 . S
C172 H144 0.929 . S
C172 C173 1.390 . S
C172 N175 1.391 . S
C173 H145 0.930 . S
C173 C172 1.390 . S
C173 C174 1.392 . S
C174 H146 0.929 . S
C174 C171 1.391 . S
C174 C173 1.392 . S
N175 Co119 2.257 . S
N175 C172 1.391 . S
N175 C176 1.388 . S
C176 H147 0.930 . S
C176 C171 1.391 . S
C176 N175 1.388 . S
Co177 O179 2.165 . S
Co177 O185 2.074 . S
Co177 O188 2.093 . S
Co177 O201 2.097 . S
Co177 N218 2.151 . S
Co177 N226 2.214 . S
Co178 O179 2.138 1_545 S
Co178 O184 2.058 . S
Co178 O194 2.057 . S
Co178 O209 2.037 . S
Co178 N213 2.145 . S
Co178 N234 2.257 . S
O179 Co177 2.165 . S
O179 Co178 2.138 1_565 S
C180 O181 1.278 . S
C180 O188 1.224 . S
O181 C180 1.278 . S
C182 O183 1.245 . S
C182 O194 1.232 . S
O183 C182 1.245 . S
O184 Co178 2.058 . S
O184 C210 1.269 . S
O185 Co177 2.074 . S
O185 C210 1.257 1_565 S
H186 C211 0.930 . S
H187 C217 0.930 . S
O188 Co177 2.093 . S
O188 C180 1.224 . S
H189 C221 0.929 . S
H190 C223 0.930 . S
H191 C224 0.930 . S
H192 C222 0.929 . S
H193 C225 0.928 . S
O194 Co178 2.057 . S
O194 C182 1.232 . S
H195 C214 0.929 . S
H196 C215 0.929 . S
H197 C227 0.931 . S
H198 C219 0.929 . S
H199 C228 0.930 . S
H200 C220 0.931 . S
O201 Co177 2.097 . S
O201 C229 1.214 . S
H202 C230 0.929 . S
H203 C231 0.929 . S
H204 C232 0.930 . S
H205 C233 0.929 . S
H206 C235 0.930 . S
H207 C212 0.930 . S
H208 C216 0.930 . S
O209 Co178 2.037 . S
O209 C229 1.234 1_545 S
C210 O184 1.269 . S
C210 O185 1.257 1_545 S
C211 H186 0.930 . S
C211 C214 1.388 . S
C211 C216 1.418 . S
C212 H207 0.930 . S
C212 C215 1.404 . S
C212 C216 1.353 . S
N213 Co178 2.145 . S
N213 C214 1.397 . S
N213 C215 1.334 . S
C214 H195 0.929 . S
C214 C211 1.388 . S
C214 N213 1.397 . S
C215 H196 0.929 . S
C215 C212 1.404 . S
C215 N213 1.334 . S
C216 H208 0.930 . S
C216 C211 1.418 . S
C216 C212 1.353 . S
C217 H187 0.930 . S
C217 N218 1.330 . S
C217 C219 1.446 . S
N218 Co177 2.151 . S
N218 C217 1.330 . S
N218 C222 1.418 . S
C219 H198 0.929 . S
C219 C217 1.446 . S
C219 C220 1.332 . S
C220 H200 0.931 . S
C220 C219 1.332 . S
C220 C221 1.267 . S
C221 H189 0.929 . S
C221 C220 1.267 . S
C221 C222 1.251 . S
C222 H192 0.929 . S
C222 N218 1.418 . S
C222 C221 1.251 . S
C223 H190 0.930 . S
C223 C225 1.406 . S
C223 C228 1.261 . S
C224 H191 0.930 . S
C224 N226 1.325 . S
C224 C227 1.357 . S
C225 H193 0.928 . S
C225 C223 1.406 . S
C225 N226 1.261 . S
N226 Co177 2.214 . S
N226 C224 1.325 . S
N226 C225 1.261 . S
C227 H197 0.931 . S
C227 C224 1.357 . S
C227 C228 1.312 . S
C228 H199 0.930 . S
C228 C223 1.261 . S
C228 C227 1.312 . S
C229 O201 1.214 . S
C229 O209 1.234 1_565 S
C230 H202 0.929 . S
C230 C233 1.391 . S
C230 C235 1.391 . S
C231 H203 0.929 . S
C231 C232 1.390 . S
C231 N234 1.391 . S
C232 H204 0.930 . S
C232 C231 1.390 . S
C232 C233 1.392 . S
C233 H205 0.929 . S
C233 C230 1.391 . S
C233 C232 1.392 . S
N234 Co178 2.257 . S
N234 C231 1.391 . S
N234 C235 1.388 . S
C235 H206 0.930 . S
C235 C230 1.391 . S
C235 N234 1.388 . S
Co236 O238 2.172 . S
Co236 O244 2.074 . S
Co236 O247 2.093 . S
Co236 O260 2.097 . S
Co236 N277 2.151 . S
Co236 N285 2.214 . S
Co237 O238 2.131 1_545 S
Co237 O243 2.058 . S
Co237 O253 2.057 . S
Co237 O268 2.037 . S
Co237 N272 2.145 . S
Co237 N293 2.257 . S
O238 Co236 2.172 . S
O238 Co237 2.131 1_565 S
C239 O240 1.278 . S
C239 O247 1.224 . S
O240 C239 1.278 . S
C241 O242 1.245 . S
C241 O253 1.232 . S
O242 C241 1.245 . S
O243 Co237 2.058 . S
O243 C269 1.269 . S
O244 Co236 2.074 . S
O244 C269 1.257 1_565 S
H245 C270 0.930 . S
H246 C276 0.930 . S
O247 Co236 2.093 . S
O247 C239 1.224 . S
H248 C280 0.929 . S
H249 C282 0.930 . S
H250 C283 0.930 . S
H251 C281 0.929 . S
H252 C284 0.928 . S
O253 Co237 2.057 . S
O253 C241 1.232 . S
H254 C273 0.929 . S
H255 C274 0.929 . S
H256 C286 0.931 . S
H257 C278 0.929 . S
H258 C287 0.930 . S
H259 C279 0.931 . S
O260 Co236 2.097 . S
O260 C288 1.214 . S
H261 C289 0.929 . S
H262 C290 0.929 . S
H263 C291 0.930 . S
H264 C292 0.929 . S
H265 C294 0.930 . S
H266 C271 0.930 . S
H267 C275 0.930 . S
O268 Co237 2.037 . S
O268 C288 1.234 1_545 S
C269 O243 1.269 . S
C269 O244 1.257 1_545 S
C270 H245 0.930 . S
C270 C273 1.388 . S
C270 C275 1.418 . S
C271 H266 0.930 . S
C271 C274 1.404 . S
C271 C275 1.353 . S
N272 Co237 2.145 . S
N272 C273 1.397 . S
N272 C274 1.334 . S
C273 H254 0.929 . S
C273 C270 1.388 . S
C273 N272 1.397 . S
C274 H255 0.929 . S
C274 C271 1.404 . S
C274 N272 1.334 . S
C275 H267 0.930 . S
C275 C270 1.418 . S
C275 C271 1.353 . S
C276 H246 0.930 . S
C276 N277 1.330 . S
C276 C278 1.446 . S
N277 Co236 2.151 . S
N277 C276 1.330 . S
N277 C281 1.418 . S
C278 H257 0.929 . S
C278 C276 1.446 . S
C278 C279 1.332 . S
C279 H259 0.931 . S
C279 C278 1.332 . S
C279 C280 1.267 . S
C280 H248 0.929 . S
C280 C279 1.267 . S
C280 C281 1.251 . S
C281 H251 0.929 . S
C281 N277 1.418 . S
C281 C280 1.251 . S
C282 H249 0.930 . S
C282 C284 1.406 . S
C282 C287 1.261 . S
C283 H250 0.930 . S
C283 N285 1.325 . S
C283 C286 1.357 . S
C284 H252 0.928 . S
C284 C282 1.406 . S
C284 N285 1.261 . S
N285 Co236 2.214 . S
N285 C283 1.325 . S
N285 C284 1.261 . S
C286 H256 0.931 . S
C286 C283 1.357 . S
C286 C287 1.312 . S
C287 H258 0.930 . S
C287 C282 1.261 . S
C287 C286 1.312 . S
C288 O260 1.214 . S
C288 O268 1.234 1_565 S
C289 H261 0.929 . S
C289 C292 1.391 . S
C289 C294 1.391 . S
C290 H262 0.929 . S
C290 C291 1.390 . S
C290 N293 1.391 . S
C291 H263 0.930 . S
C291 C290 1.390 . S
C291 C292 1.392 . S
C292 H264 0.929 . S
C292 C289 1.391 . S
C292 C291 1.392 . S
N293 Co237 2.257 . S
N293 C290 1.391 . S
N293 C294 1.388 . S
C294 H265 0.930 . S
C294 C289 1.391 . S
C294 N293 1.388 . S
Co295 O297 2.143 . S
Co295 O303 2.074 . S
Co295 O306 2.093 1_655 S
Co295 O319 2.097 1_655 S
Co295 N336 2.151 . S
Co295 N344 2.214 . S
Co296 O297 2.160 1_455 S
Co296 O302 2.058 1_455 S
Co296 O312 2.057 1_455 S
Co296 O327 2.037 . S
Co296 N331 2.145 . S
Co296 N352 2.257 . S
O297 Co295 2.143 . S
O297 Co296 2.160 1_655 S
C298 O299 1.278 . S
C298 O306 1.224 . S
O299 C298 1.278 . S
C300 O301 1.245 . S
C300 O312 1.232 . S
O301 C300 1.245 . S
O302 Co296 2.058 1_655 S
O302 C328 1.269 . S
O303 Co295 2.074 . S
O303 C328 1.257 . S
H304 C329 0.930 . S
H305 C335 0.930 . S
O306 Co295 2.093 1_455 S
O306 C298 1.224 . S
H307 C339 0.929 . S
H308 C341 0.930 . S
H309 C342 0.930 . S
H310 C340 0.929 . S
H311 C343 0.928 . S
O312 Co296 2.057 1_655 S
O312 C300 1.232 . S
H313 C332 0.929 . S
H314 C333 0.929 . S
H315 C345 0.931 . S
H316 C337 0.929 . S
H317 C346 0.930 . S
H318 C338 0.931 . S
O319 Co295 2.097 1_455 S
O319 C347 1.214 . S
H320 C348 0.929 . S
H321 C349 0.929 . S
H322 C350 0.930 . S
H323 C351 0.929 . S
H324 C353 0.930 . S
H325 C330 0.930 . S
H326 C334 0.930 . S
O327 Co296 2.037 . S
O327 C347 1.234 . S
C328 O302 1.269 . S
C328 O303 1.257 . S
C329 H304 0.930 . S
C329 C332 1.388 . S
C329 C334 1.418 . S
C330 H325 0.930 . S
C330 C333 1.404 . S
C330 C334 1.353 . S
N331 Co296 2.145 . S
N331 C332 1.397 . S
N331 C333 1.334 . S
C332 H313 0.929 . S
C332 C329 1.388 . S
C332 N331 1.397 . S
C333 H314 0.929 . S
C333 C330 1.404 . S
C333 N331 1.334 . S
C334 H326 0.930 . S
C334 C329 1.418 . S
C334 C330 1.353 . S
C335 H305 0.930 . S
C335 N336 1.330 . S
C335 C337 1.446 . S
N336 Co295 2.151 . S
N336 C335 1.330 . S
N336 C340 1.418 . S
C337 H316 0.929 . S
C337 C335 1.446 . S
C337 C338 1.332 . S
C338 H318 0.931 . S
C338 C337 1.332 . S
C338 C339 1.267 . S
C339 H307 0.929 . S
C339 C338 1.267 . S
C339 C340 1.251 . S
C340 H310 0.929 . S
C340 N336 1.418 . S
C340 C339 1.251 . S
C341 H308 0.930 . S
C341 C343 1.406 . S
C341 C346 1.261 . S
C342 H309 0.930 . S
C342 N344 1.325 . S
C342 C345 1.357 . S
C343 H311 0.928 . S
C343 C341 1.406 . S
C343 N344 1.261 . S
N344 Co295 2.214 . S
N344 C342 1.325 . S
N344 C343 1.261 . S
C345 H315 0.931 . S
C345 C342 1.357 . S
C345 C346 1.312 . S
C346 H317 0.930 . S
C346 C341 1.261 . S
C346 C345 1.312 . S
C347 O319 1.214 . S
C347 O327 1.234 . S
C348 H320 0.929 . S
C348 C351 1.391 . S
C348 C353 1.391 . S
C349 H321 0.929 . S
C349 C350 1.390 . S
C349 N352 1.391 . S
C350 H322 0.930 . S
C350 C349 1.390 . S
C350 C351 1.392 . S
C351 H323 0.929 . S
C351 C348 1.391 . S
C351 C350 1.392 . S
N352 Co296 2.257 . S
N352 C349 1.391 . S
N352 C353 1.388 . S
C353 H324 0.930 . S
C353 C348 1.391 . S
C353 N352 1.388 . S
Co354 O356 2.143 . S
Co354 O362 2.074 . S
Co354 O365 2.093 . S
Co354 O378 2.097 . S
Co354 N395 2.151 . S
Co354 N403 2.214 . S
Co355 O356 2.160 1_565 S
Co355 O361 2.058 . S
Co355 O371 2.057 . S
Co355 O386 2.037 . S
Co355 N390 2.145 . S
Co355 N411 2.257 . S
O356 Co354 2.143 . S
O356 Co355 2.160 1_545 S
C357 O358 1.278 . S
C357 O365 1.224 . S
O358 C357 1.278 . S
C359 O360 1.245 . S
C359 O371 1.232 . S
O360 C359 1.245 . S
O361 Co355 2.058 . S
O361 C387 1.269 . S
O362 Co354 2.074 . S
O362 C387 1.257 1_545 S
H363 C388 0.930 . S
H364 C394 0.930 . S
O365 Co354 2.093 . S
O365 C357 1.224 . S
H366 C398 0.929 . S
H367 C400 0.930 . S
H368 C401 0.930 . S
H369 C399 0.929 . S
H370 C402 0.928 . S
O371 Co355 2.057 . S
O371 C359 1.232 . S
H372 C391 0.929 . S
H373 C392 0.929 . S
H374 C404 0.931 . S
H375 C396 0.929 . S
H376 C405 0.930 . S
H377 C397 0.931 . S
O378 Co354 2.097 . S
O378 C406 1.214 . S
H379 C407 0.929 . S
H380 C408 0.929 . S
H381 C409 0.930 . S
H382 C410 0.929 . S
H383 C412 0.930 . S
H384 C389 0.930 . S
H385 C393 0.930 . S
O386 Co355 2.037 . S
O386 C406 1.234 1_565 S
C387 O361 1.269 . S
C387 O362 1.257 1_565 S
C388 H363 0.930 . S
C388 C391 1.388 . S
C388 C393 1.418 . S
C389 H384 0.930 . S
C389 C392 1.404 . S
C389 C393 1.353 . S
N390 Co355 2.145 . S
N390 C391 1.397 . S
N390 C392 1.334 . S
C391 H372 0.929 . S
C391 C388 1.388 . S
C391 N390 1.397 . S
C392 H373 0.929 . S
C392 C389 1.404 . S
C392 N390 1.334 . S
C393 H385 0.930 . S
C393 C388 1.418 . S
C393 C389 1.353 . S
C394 H364 0.930 . S
C394 N395 1.330 . S
C394 C396 1.446 . S
N395 Co354 2.151 . S
N395 C394 1.330 . S
N395 C399 1.418 . S
C396 H375 0.929 . S
C396 C394 1.446 . S
C396 C397 1.332 . S
C397 H377 0.931 . S
C397 C396 1.332 . S
C397 C398 1.267 . S
C398 H366 0.929 . S
C398 C397 1.267 . S
C398 C399 1.251 . S
C399 H369 0.929 . S
C399 N395 1.418 . S
C399 C398 1.251 . S
C400 H367 0.930 . S
C400 C402 1.406 . S
C400 C405 1.261 . S
C401 H368 0.930 . S
C401 N403 1.325 . S
C401 C404 1.357 . S
C402 H370 0.928 . S
C402 C400 1.406 . S
C402 N403 1.261 . S
N403 Co354 2.214 . S
N403 C401 1.325 . S
N403 C402 1.261 . S
C404 H374 0.931 . S
C404 C401 1.357 . S
C404 C405 1.312 . S
C405 H376 0.930 . S
C405 C400 1.261 . S
C405 C404 1.312 . S
C406 O378 1.214 . S
C406 O386 1.234 1_545 S
C407 H379 0.929 . S
C407 C410 1.391 . S
C407 C412 1.391 . S
C408 H380 0.929 . S
C408 C409 1.390 . S
C408 N411 1.391 . S
C409 H381 0.930 . S
C409 C408 1.390 . S
C409 C410 1.392 . S
C410 H382 0.929 . S
C410 C407 1.391 . S
C410 C409 1.392 . S
N411 Co355 2.257 . S
N411 C408 1.391 . S
N411 C412 1.388 . S
C412 H383 0.930 . S
C412 C407 1.391 . S
C412 N411 1.388 . S
Co413 O415 2.143 . S
Co413 O421 2.074 . S
Co413 O424 2.093 1_655 S
Co413 O437 2.097 1_655 S
Co413 N454 2.151 . S
Co413 N462 2.214 . S
Co414 O415 2.160 1_455 S
Co414 O420 2.058 1_455 S
Co414 O430 2.046 1_455 S
Co414 O445 2.037 . S
Co414 N449 2.145 . S
Co414 N470 2.257 . S
O415 Co413 2.143 . S
O415 Co414 2.160 1_655 S
C416 O417 1.278 . S
C416 O424 1.224 . S
O417 C416 1.278 . S
C418 O419 1.245 . S
C418 O430 1.254 . S
O419 C418 1.245 . S
O420 Co414 2.058 1_655 S
O420 C446 1.269 . S
O421 Co413 2.074 . S
O421 C446 1.257 . S
H422 C447 0.930 . S
H423 C453 0.930 . S
O424 Co413 2.093 1_455 S
O424 C416 1.224 . S
H425 C457 0.929 . S
H426 C459 0.930 . S
H427 C460 0.930 . S
H428 C458 0.929 . S
H429 C461 0.928 . S
O430 Co414 2.046 1_655 S
O430 C418 1.254 . S
H431 C450 0.929 . S
H432 C451 0.929 . S
H433 C463 0.931 . S
H434 C455 0.929 . S
H435 C464 0.930 . S
H436 C456 0.931 . S
O437 Co413 2.097 1_455 S
O437 C465 1.214 . S
H438 C466 0.929 . S
H439 C467 0.929 . S
H440 C468 0.930 . S
H441 C469 0.929 . S
H442 C471 0.930 . S
H443 C448 0.930 . S
H444 C452 0.930 . S
O445 Co414 2.037 . S
O445 C465 1.234 . S
C446 O420 1.269 . S
C446 O421 1.257 . S
C447 H422 0.930 . S
C447 C450 1.388 . S
C447 C452 1.418 . S
C448 H443 0.930 . S
C448 C451 1.404 . S
C448 C452 1.353 . S
N449 Co414 2.145 . S
N449 C450 1.397 . S
N449 C451 1.334 . S
C450 H431 0.929 . S
C450 C447 1.388 . S
C450 N449 1.397 . S
C451 H432 0.929 . S
C451 C448 1.404 . S
C451 N449 1.334 . S
C452 H444 0.930 . S
C452 C447 1.418 . S
C452 C448 1.353 . S
C453 H423 0.930 . S
C453 N454 1.330 . S
C453 C455 1.446 . S
N454 Co413 2.151 . S
N454 C453 1.330 . S
N454 C458 1.418 . S
C455 H434 0.929 . S
C455 C453 1.446 . S
C455 C456 1.332 . S
C456 H436 0.931 . S
C456 C455 1.332 . S
C456 C457 1.267 . S
C457 H425 0.929 . S
C457 C456 1.267 . S
C457 C458 1.251 . S
C458 H428 0.929 . S
C458 N454 1.418 . S
C458 C457 1.251 . S
C459 H426 0.930 . S
C459 C461 1.406 . S
C459 C464 1.261 . S
C460 H427 0.930 . S
C460 N462 1.325 . S
C460 C463 1.357 . S
C461 H429 0.928 . S
C461 C459 1.406 . S
C461 N462 1.261 . S
N462 Co413 2.214 . S
N462 C460 1.325 . S
N462 C461 1.261 . S
C463 H433 0.931 . S
C463 C460 1.357 . S
C463 C464 1.312 . S
C464 H435 0.930 . S
C464 C459 1.261 . S
C464 C463 1.312 . S
C465 O437 1.214 . S
C465 O445 1.234 . S
C466 H438 0.929 . S
C466 C469 1.391 . S
C466 C471 1.391 . S
C467 H439 0.929 . S
C467 C468 1.390 . S
C467 N470 1.391 . S
C468 H440 0.930 . S
C468 C467 1.390 . S
C468 C469 1.392 . S
C469 H441 0.929 . S
C469 C466 1.391 . S
C469 C468 1.392 . S
N470 Co414 2.257 . S
N470 C467 1.391 . S
N470 C471 1.388 . S
C471 H442 0.930 . S
C471 C466 1.391 . S
C471 N470 1.388 . S
Co472 O474 2.143 . S
Co472 O480 2.074 . S
Co472 O483 2.093 1_554 S
Co472 O496 2.097 1_554 S
Co472 N513 2.151 . S
Co472 N521 2.214 . S
Co473 O474 2.160 1_556 S
Co473 O479 2.058 1_556 S
Co473 O489 2.057 1_556 S
Co473 O504 2.037 . S
Co473 N508 2.145 . S
Co473 N529 2.257 . S
O474 Co472 2.143 . S
O474 Co473 2.160 1_554 S
C475 O476 1.278 . S
C475 O483 1.224 . S
O476 C475 1.278 . S
C477 O478 1.245 . S
C477 O489 1.232 . S
O478 C477 1.245 . S
O479 Co473 2.058 1_554 S
O479 C505 1.269 . S
O480 Co472 2.074 . S
O480 C505 1.257 . S
H481 C506 0.930 . S
H482 C512 0.930 . S
O483 Co472 2.093 1_556 S
O483 C475 1.224 . S
H484 C516 0.929 . S
H485 C518 0.930 . S
H486 C519 0.930 . S
H487 C517 0.929 . S
H488 C520 0.928 . S
O489 Co473 2.057 1_554 S
O489 C477 1.232 . S
H490 C509 0.929 . S
H491 C510 0.929 . S
H492 C522 0.931 . S
H493 C514 0.929 . S
H494 C523 0.930 . S
H495 C515 0.931 . S
O496 Co472 2.097 1_556 S
O496 C524 1.214 . S
H497 C525 0.929 . S
H498 C526 0.929 . S
H499 C527 0.930 . S
H500 C528 0.929 . S
H501 C530 0.930 . S
H502 C507 0.930 . S
H503 C511 0.930 . S
O504 Co473 2.037 . S
O504 C524 1.234 . S
C505 O479 1.269 . S
C505 O480 1.257 . S
C506 H481 0.930 . S
C506 C509 1.388 . S
C506 C511 1.418 . S
C507 H502 0.930 . S
C507 C510 1.404 . S
C507 C511 1.353 . S
N508 Co473 2.145 . S
N508 C509 1.397 . S
N508 C510 1.334 . S
C509 H490 0.929 . S
C509 C506 1.388 . S
C509 N508 1.397 . S
C510 H491 0.929 . S
C510 C507 1.404 . S
C510 N508 1.334 . S
C511 H503 0.930 . S
C511 C506 1.418 . S
C511 C507 1.353 . S
C512 H482 0.930 . S
C512 N513 1.330 . S
C512 C514 1.446 . S
N513 Co472 2.151 . S
N513 C512 1.330 . S
N513 C517 1.418 . S
C514 H493 0.929 . S
C514 C512 1.446 . S
C514 C515 1.332 . S
C515 H495 0.931 . S
C515 C514 1.332 . S
C515 C516 1.267 . S
C516 H484 0.929 . S
C516 C515 1.267 . S
C516 C517 1.251 . S
C517 H487 0.929 . S
C517 N513 1.418 . S
C517 C516 1.251 . S
C518 H485 0.930 . S
C518 C520 1.406 . S
C518 C523 1.261 . S
C519 H486 0.930 . S
C519 N521 1.325 . S
C519 C522 1.357 . S
C520 H488 0.928 . S
C520 C518 1.406 . S
C520 N521 1.261 . S
N521 Co472 2.214 . S
N521 C519 1.325 . S
N521 C520 1.261 . S
C522 H492 0.931 . S
C522 C519 1.357 . S
C522 C523 1.312 . S
C523 H494 0.930 . S
C523 C518 1.261 . S
C523 C522 1.312 . S
C524 O496 1.214 . S
C524 O504 1.234 . S
C525 H497 0.929 . S
C525 C528 1.391 . S
C525 C530 1.391 . S
C526 H498 0.929 . S
C526 C527 1.390 . S
C526 N529 1.391 . S
C527 H499 0.930 . S
C527 C526 1.390 . S
C527 C528 1.392 . S
C528 H500 0.929 . S
C528 C525 1.391 . S
C528 C527 1.392 . S
N529 Co473 2.257 . S
N529 C526 1.391 . S
N529 C530 1.388 . S
C530 H501 0.930 . S
C530 C525 1.391 . S
C530 N529 1.388 . S
Co531 O533 2.150 . S
Co531 O539 2.074 . S
Co531 O542 2.093 . S
Co531 O555 2.097 . S
Co531 N572 2.151 . S
Co531 N580 2.214 . S
Co532 O533 2.152 1_554 S
Co532 O538 2.058 . S
Co532 O548 2.057 . S
Co532 O563 2.037 . S
Co532 N567 2.145 . S
Co532 N588 2.257 . S
O533 Co531 2.150 . S
O533 Co532 2.152 1_556 S
C534 O535 1.278 . S
C534 O542 1.224 . S
O535 C534 1.278 . S
C536 O537 1.245 . S
C536 O548 1.232 . S
O537 C536 1.245 . S
O538 Co532 2.058 . S
O538 C564 1.269 . S
O539 Co531 2.074 . S
O539 C564 1.257 1_556 S
H540 C565 0.930 . S
H541 C571 0.930 . S
O542 Co531 2.093 . S
O542 C534 1.224 . S
H543 C575 0.929 . S
H544 C577 0.930 . S
H545 C578 0.930 . S
H546 C576 0.929 . S
H547 C579 0.928 . S
O548 Co532 2.057 . S
O548 C536 1.232 . S
H549 C568 0.929 . S
H550 C569 0.929 . S
H551 C581 0.931 . S
H552 C573 0.929 . S
H553 C582 0.930 . S
H554 C574 0.931 . S
O555 Co531 2.097 . S
O555 C583 1.214 . S
H556 C584 0.929 . S
H557 C585 0.929 . S
H558 C586 0.930 . S
H559 C587 0.929 . S
H560 C589 0.930 . S
H561 C566 0.930 . S
H562 C570 0.930 . S
O563 Co532 2.037 . S
O563 C583 1.234 1_554 S
C564 O538 1.269 . S
C564 O539 1.257 1_554 S
C565 H540 0.930 . S
C565 C568 1.388 . S
C565 C570 1.418 . S
C566 H561 0.930 . S
C566 C569 1.404 . S
C566 C570 1.353 . S
N567 Co532 2.145 . S
N567 C568 1.397 . S
N567 C569 1.334 . S
C568 H549 0.929 . S
C568 C565 1.388 . S
C568 N567 1.397 . S
C569 H550 0.929 . S
C569 C566 1.404 . S
C569 N567 1.334 . S
C570 H562 0.930 . S
C570 C565 1.418 . S
C570 C566 1.353 . S
C571 H541 0.930 . S
C571 N572 1.330 . S
C571 C573 1.446 . S
N572 Co531 2.151 . S
N572 C571 1.330 . S
N572 C576 1.418 . S
C573 H552 0.929 . S
C573 C571 1.446 . S
C573 C574 1.332 . S
C574 H554 0.931 . S
C574 C573 1.332 . S
C574 C575 1.267 . S
C575 H543 0.929 . S
C575 C574 1.267 . S
C575 C576 1.251 . S
C576 H546 0.929 . S
C576 N572 1.418 . S
C576 C575 1.251 . S
C577 H544 0.930 . S
C577 C579 1.406 . S
C577 C582 1.261 . S
C578 H545 0.930 . S
C578 N580 1.325 . S
C578 C581 1.357 . S
C579 H547 0.928 . S
C579 C577 1.406 . S
C579 N580 1.261 . S
N580 Co531 2.214 . S
N580 C578 1.325 . S
N580 C579 1.261 . S
C581 H551 0.931 . S
C581 C578 1.357 . S
C581 C582 1.312 . S
C582 H553 0.930 . S
C582 C577 1.261 . S
C582 C581 1.312 . S
C583 O555 1.214 . S
C583 O563 1.234 1_556 S
C584 H556 0.929 . S
C584 C587 1.391 . S
C584 C589 1.391 . S
C585 H557 0.929 . S
C585 C586 1.390 . S
C585 N588 1.391 . S
C586 H558 0.930 . S
C586 C585 1.390 . S
C586 C587 1.392 . S
C587 H559 0.929 . S
C587 C584 1.391 . S
C587 C586 1.392 . S
N588 Co532 2.257 . S
N588 C585 1.391 . S
N588 C589 1.388 . S
C589 H560 0.930 . S
C589 C584 1.391 . S
C589 N588 1.388 . S
Co590 O592 2.143 . S
Co590 O598 2.074 . S
Co590 O601 2.093 1_554 S
Co590 O614 2.097 1_554 S
Co590 N631 2.151 . S
Co590 N639 2.214 . S
Co591 O592 2.160 1_556 S
Co591 O597 2.058 1_556 S
Co591 O607 2.057 1_556 S
Co591 O622 2.037 . S
Co591 N626 2.145 . S
Co591 N647 2.257 . S
O592 Co590 2.143 . S
O592 Co591 2.160 1_554 S
C593 O594 1.278 . S
C593 O601 1.224 . S
O594 C593 1.278 . S
C595 O596 1.245 . S
C595 O607 1.232 . S
O596 C595 1.245 . S
O597 Co591 2.058 1_554 S
O597 C623 1.269 . S
O598 Co590 2.074 . S
O598 C623 1.257 . S
H599 C624 0.930 . S
H600 C630 0.930 . S
O601 Co590 2.093 1_556 S
O601 C593 1.224 . S
H602 C634 0.929 . S
H603 C636 0.930 . S
H604 C637 0.930 . S
H605 C635 0.929 . S
H606 C638 0.928 . S
O607 Co591 2.057 1_554 S
O607 C595 1.232 . S
H608 C627 0.929 . S
H609 C628 0.929 . S
H610 C640 0.931 . S
H611 C632 0.929 . S
H612 C641 0.930 . S
H613 C633 0.931 . S
O614 Co590 2.097 1_556 S
O614 C642 1.214 . S
H615 C643 0.929 . S
H616 C644 0.929 . S
H617 C645 0.930 . S
H618 C646 0.929 . S
H619 C648 0.930 . S
H620 C625 0.930 . S
H621 C629 0.930 . S
O622 Co591 2.037 . S
O622 C642 1.234 . S
C623 O597 1.269 . S
C623 O598 1.257 . S
C624 H599 0.930 . S
C624 C627 1.388 . S
C624 C629 1.418 . S
C625 H620 0.930 . S
C625 C628 1.404 . S
C625 C629 1.353 . S
N626 Co591 2.145 . S
N626 C627 1.397 . S
N626 C628 1.334 . S
C627 H608 0.929 . S
C627 C624 1.388 . S
C627 N626 1.397 . S
C628 H609 0.929 . S
C628 C625 1.404 . S
C628 N626 1.334 . S
C629 H621 0.930 . S
C629 C624 1.418 . S
C629 C625 1.353 . S
C630 H600 0.930 . S
C630 N631 1.330 . S
C630 C632 1.446 . S
N631 Co590 2.151 . S
N631 C630 1.330 . S
N631 C635 1.418 . S
C632 H611 0.929 . S
C632 C630 1.446 . S
C632 C633 1.332 . S
C633 H613 0.931 . S
C633 C632 1.332 . S
C633 C634 1.267 . S
C634 H602 0.929 . S
C634 C633 1.267 . S
C634 C635 1.251 . S
C635 H605 0.929 . S
C635 N631 1.418 . S
C635 C634 1.251 . S
C636 H603 0.930 . S
C636 C638 1.406 . S
C636 C641 1.261 . S
C637 H604 0.930 . S
C637 N639 1.325 . S
C637 C640 1.357 . S
C638 H606 0.928 . S
C638 C636 1.406 . S
C638 N639 1.261 . S
N639 Co590 2.214 . S
N639 C637 1.325 . S
N639 C638 1.261 . S
C640 H610 0.931 . S
C640 C637 1.357 . S
C640 C641 1.312 . S
C641 H612 0.930 . S
C641 C636 1.261 . S
C641 C640 1.312 . S
C642 O614 1.214 . S
C642 O622 1.234 . S
C643 H615 0.929 . S
C643 C646 1.391 . S
C643 C648 1.391 . S
C644 H616 0.929 . S
C644 C645 1.390 . S
C644 N647 1.391 . S
C645 H617 0.930 . S
C645 C644 1.390 . S
C645 C646 1.392 . S
C646 H618 0.929 . S
C646 C643 1.391 . S
C646 C645 1.392 . S
N647 Co591 2.257 . S
N647 C644 1.391 . S
N647 C648 1.388 . S
C648 H619 0.930 . S
C648 C643 1.391 . S
C648 N647 1.388 . S
Co649 O651 2.143 . S
Co649 O657 2.074 . S
Co649 O660 2.093 . S
Co649 O673 2.097 . S
Co649 N690 2.151 . S
Co649 N698 2.214 . S
Co650 O651 2.160 1_556 S
Co650 O656 2.058 . S
Co650 O666 2.057 . S
Co650 O681 2.037 . S
Co650 N685 2.145 . S
Co650 N706 2.257 . S
O651 Co649 2.143 . S
O651 Co650 2.160 1_554 S
C652 O653 1.278 . S
C652 O660 1.224 . S
O653 C652 1.278 . S
C654 O655 1.245 . S
C654 O666 1.232 . S
O655 C654 1.245 . S
O656 Co650 2.058 . S
O656 C682 1.269 . S
O657 Co649 2.074 . S
O657 C682 1.257 1_554 S
H658 C683 0.930 . S
H659 C689 0.930 . S
O660 Co649 2.093 . S
O660 C652 1.224 . S
H661 C693 0.929 . S
H662 C695 0.930 . S
H663 C696 0.930 . S
H664 C694 0.929 . S
H665 C697 0.928 . S
O666 Co650 2.057 . S
O666 C654 1.232 . S
H667 C686 0.929 . S
H668 C687 0.929 . S
H669 C699 0.931 . S
H670 C691 0.929 . S
H671 C700 0.930 . S
H672 C692 0.931 . S
O673 Co649 2.097 . S
O673 C701 1.214 . S
H674 C702 0.929 . S
H675 C703 0.929 . S
H676 C704 0.930 . S
H677 C705 0.929 . S
H678 C707 0.930 . S
H679 C684 0.930 . S
H680 C688 0.930 . S
O681 Co650 2.037 . S
O681 C701 1.234 1_556 S
C682 O656 1.269 . S
C682 O657 1.257 1_556 S
C683 H658 0.930 . S
C683 C686 1.388 . S
C683 C688 1.418 . S
C684 H679 0.930 . S
C684 C687 1.404 . S
C684 C688 1.353 . S
N685 Co650 2.145 . S
N685 C686 1.397 . S
N685 C687 1.334 . S
C686 H667 0.929 . S
C686 C683 1.388 . S
C686 N685 1.397 . S
C687 H668 0.929 . S
C687 C684 1.404 . S
C687 N685 1.334 . S
C688 H680 0.930 . S
C688 C683 1.418 . S
C688 C684 1.353 . S
C689 H659 0.930 . S
C689 N690 1.330 . S
C689 C691 1.446 . S
N690 Co649 2.151 . S
N690 C689 1.330 . S
N690 C694 1.418 . S
C691 H670 0.929 . S
C691 C689 1.446 . S
C691 C692 1.332 . S
C692 H672 0.931 . S
C692 C691 1.332 . S
C692 C693 1.267 . S
C693 H661 0.929 . S
C693 C692 1.267 . S
C693 C694 1.251 . S
C694 H664 0.929 . S
C694 N690 1.418 . S
C694 C693 1.251 . S
C695 H662 0.930 . S
C695 C697 1.406 . S
C695 C700 1.261 . S
C696 H663 0.930 . S
C696 N698 1.325 . S
C696 C699 1.357 . S
C697 H665 0.928 . S
C697 C695 1.406 . S
C697 N698 1.261 . S
N698 Co649 2.214 . S
N698 C696 1.325 . S
N698 C697 1.261 . S
C699 H669 0.931 . S
C699 C696 1.357 . S
C699 C700 1.312 . S
C700 H671 0.930 . S
C700 C695 1.261 . S
C700 C699 1.312 . S
C701 O673 1.214 . S
C701 O681 1.234 1_554 S
C702 H674 0.929 . S
C702 C705 1.391 . S
C702 C707 1.391 . S
C703 H675 0.929 . S
C703 C704 1.390 . S
C703 N706 1.391 . S
C704 H676 0.930 . S
C704 C703 1.390 . S
C704 C705 1.392 . S
C705 H677 0.929 . S
C705 C702 1.391 . S
C705 C704 1.392 . S
N706 Co650 2.257 . S
N706 C703 1.391 . S
N706 C707 1.388 . S
C707 H678 0.930 . S
C707 C702 1.391 . S
C707 N706 1.388 . S
H708 C720 0.930 . S
H709 C722 0.930 1_655 S
H710 C723 0.930 . S
H711 C727 0.959 1_655 S
H712 C727 0.959 . S
H713 C727 0.961 . S
H714 C728 0.960 . S
H715 C728 0.961 . S
H716 C728 0.959 . S
H717 C731 0.929 . S
H718 C732 0.931 . S
H719 C734 0.917 1_455 S
C720 H708 0.930 . S
C720 C721 1.399 . S
C720 C725 1.399 . S
C721 C720 1.399 . S
C721 C722 1.376 . S
C722 H709 0.930 1_455 S
C722 C721 1.376 . S
C722 C723 1.388 1_455 S
C723 H710 0.930 . S
C723 C722 1.388 1_655 S
C723 C724 1.398 . S
C724 C723 1.398 . S
C724 C725 1.377 1_655 S
C724 C730 1.473 . S
C725 C720 1.399 . S
C725 C724 1.377 1_455 S
C725 C726 1.516 . S
C726 C725 1.516 . S
C726 C727 1.502 . S
C726 C728 1.561 . S
C726 C729 1.526 . S
C727 H711 0.959 1_455 S
C727 H712 0.959 . S
C727 H713 0.961 . S
C727 C726 1.502 . S
C728 H714 0.960 . S
C728 H715 0.961 . S
C728 H716 0.959 . S
C728 C726 1.561 . S
C729 C726 1.526 . S
C729 C730 1.396 1_455 S
C729 C734 1.385 1_455 S
C730 C724 1.473 . S
C730 C729 1.396 1_655 S
C730 C731 1.399 . S
C731 H717 0.929 . S
C731 C730 1.399 . S
C731 C732 1.385 . S
C732 H718 0.931 . S
C732 C731 1.385 . S
C732 C733 1.389 . S
C733 C732 1.389 . S
C733 C734 1.406 . S
C734 H719 0.917 1_655 S
C734 C729 1.385 1_655 S
C734 C733 1.406 . S
H735 C747 0.930 . S
H736 C749 0.930 . S
H737 C750 0.930 . S
H738 C754 0.959 . S
H739 C754 0.959 . S
H740 C754 0.961 . S
H741 C755 0.960 . S
H742 C755 0.961 . S
H743 C755 0.959 . S
H744 C758 0.929 . S
H745 C759 0.931 . S
H746 C761 0.930 . S
C747 H735 0.930 . S
C747 C748 1.399 . S
C747 C752 1.399 . S
C748 C747 1.399 . S
C748 C749 1.376 1_545 S
C749 H736 0.930 . S
C749 C748 1.376 1_565 S
C749 C750 1.388 . S
C750 H737 0.930 . S
C750 C749 1.388 . S
C750 C751 1.390 . S
C751 C750 1.390 . S
C751 C752 1.394 1_565 S
C751 C757 1.465 . S
C752 C747 1.399 . S
C752 C751 1.394 1_545 S
C752 C753 1.516 . S
C753 C752 1.516 . S
C753 C754 1.502 . S
C753 C755 1.561 . S
C753 C756 1.526 . S
C754 H738 0.959 . S
C754 H739 0.959 . S
C754 H740 0.961 . S
C754 C753 1.502 . S
C755 H741 0.960 . S
C755 H742 0.961 . S
C755 H743 0.959 . S
C755 C753 1.561 . S
C756 C753 1.526 . S
C756 C757 1.396 1_545 S
C756 C761 1.390 . S
C757 C751 1.465 . S
C757 C756 1.396 1_565 S
C757 C758 1.399 . S
C758 H744 0.929 . S
C758 C757 1.399 . S
C758 C759 1.385 . S
C759 H745 0.931 . S
C759 C758 1.385 . S
C759 C760 1.389 . S
C760 C759 1.389 . S
C760 C761 1.387 1_565 S
C761 H746 0.930 . S
C761 C756 1.390 . S
C761 C760 1.387 1_545 S
H762 C774 0.930 . S
H763 C776 0.930 . S
H764 C777 0.930 . S
H765 C781 0.959 . S
H766 C781 0.959 . S
H767 C781 0.961 . S
H768 C782 0.960 . S
H769 C782 0.961 . S
H770 C782 0.959 1_455 S
H771 C785 0.929 . S
H772 C786 0.931 . S
H773 C788 0.930 . S
C774 H762 0.930 . S
C774 C775 1.399 1_655 S
C774 C779 1.399 . S
C775 C774 1.399 1_455 S
C775 C776 1.376 . S
C776 H763 0.930 . S
C776 C775 1.376 . S
C776 C777 1.388 . S
C777 H764 0.930 . S
C777 C776 1.388 . S
C777 C778 1.390 . S
C778 C777 1.390 . S
C778 C779 1.394 1_455 S
C778 C784 1.465 . S
C779 C774 1.399 . S
C779 C778 1.394 1_655 S
C779 C780 1.516 . S
C780 C779 1.516 . S
C780 C781 1.502 . S
C780 C782 1.561 . S
C780 C783 1.526 . S
C781 H765 0.959 . S
C781 H766 0.959 . S
C781 H767 0.961 . S
C781 C780 1.502 . S
C782 H768 0.960 . S
C782 H769 0.961 . S
C782 H770 0.959 1_655 S
C782 C780 1.561 . S
C783 C780 1.526 . S
C783 C784 1.396 1_655 S
C783 C788 1.390 . S
C784 C778 1.465 . S
C784 C783 1.396 1_455 S
C784 C785 1.399 . S
C785 H771 0.929 . S
C785 C784 1.399 . S
C785 C786 1.385 . S
C786 H772 0.931 . S
C786 C785 1.385 . S
C786 C787 1.389 1_455 S
C787 C786 1.389 1_655 S
C787 C788 1.387 . S
C788 H773 0.930 . S
C788 C783 1.390 . S
C788 C787 1.387 . S
H789 C801 0.930 . S
H790 C803 0.930 . S
H791 C804 0.930 . S
H792 C808 0.959 . S
H793 C808 0.959 . S
H794 C808 0.961 . S
H795 C809 0.960 . S
H796 C809 0.961 . S
H797 C809 0.959 . S
H798 C812 0.929 . S
H799 C813 0.931 . S
H800 C815 0.930 . S
C801 H789 0.930 . S
C801 C802 1.399 . S
C801 C806 1.399 . S
C802 C801 1.399 . S
C802 C803 1.376 1_565 S
C803 H790 0.930 . S
C803 C802 1.376 1_545 S
C803 C804 1.388 . S
C804 H791 0.930 . S
C804 C803 1.388 . S
C804 C805 1.390 . S
C805 C804 1.390 . S
C805 C806 1.394 1_545 S
C805 C811 1.465 . S
C806 C801 1.399 . S
C806 C805 1.394 1_565 S
C806 C807 1.516 . S
C807 C806 1.516 . S
C807 C808 1.502 . S
C807 C809 1.561 . S
C807 C810 1.526 . S
C808 H792 0.959 . S
C808 H793 0.959 . S
C808 H794 0.961 . S
C808 C807 1.502 . S
C809 H795 0.960 . S
C809 H796 0.961 . S
C809 H797 0.959 . S
C809 C807 1.561 . S
C810 C807 1.526 . S
C810 C811 1.396 1_565 S
C810 C815 1.390 . S
C811 C805 1.465 . S
C811 C810 1.396 1_545 S
C811 C812 1.399 . S
C812 H798 0.929 . S
C812 C811 1.399 . S
C812 C813 1.385 . S
C813 H799 0.931 . S
C813 C812 1.385 . S
C813 C814 1.389 . S
C814 C813 1.389 . S
C814 C815 1.387 1_545 S
C815 H800 0.930 . S
C815 C810 1.390 . S
C815 C814 1.387 1_565 S
H816 C828 0.930 . S
H817 C830 0.930 . S
H818 C831 0.930 . S
H819 C835 0.959 . S
H820 C835 0.959 . S
H821 C835 0.961 . S
H822 C836 0.960 . S
H823 C836 0.961 . S
H824 C836 0.959 . S
H825 C839 0.929 . S
H826 C840 0.931 . S
H827 C842 0.930 . S
C828 H816 0.930 . S
C828 C829 1.399 1_455 S
C828 C833 1.399 . S
C829 C828 1.399 1_655 S
C829 C830 1.376 . S
C830 H817 0.930 . S
C830 C829 1.376 . S
C830 C831 1.388 . S
C831 H818 0.930 . S
C831 C830 1.388 . S
C831 C832 1.390 . S
C832 C831 1.390 . S
C832 C833 1.394 1_655 S
C832 C838 1.465 . S
C833 C828 1.399 . S
C833 C832 1.394 1_455 S
C833 C834 1.516 . S
C834 C833 1.516 . S
C834 C835 1.502 . S
C834 C836 1.561 . S
C834 C837 1.526 . S
C835 H819 0.959 . S
C835 H820 0.959 . S
C835 H821 0.961 . S
C835 C834 1.502 . S
C836 H822 0.960 . S
C836 H823 0.961 . S
C836 H824 0.959 . S
C836 C834 1.561 . S
C837 C834 1.526 . S
C837 C838 1.396 1_455 S
C837 C842 1.390 . S
C838 C832 1.465 . S
C838 C837 1.396 1_655 S
C838 C839 1.399 . S
C839 H825 0.929 . S
C839 C838 1.399 . S
C839 C840 1.385 . S
C840 H826 0.931 . S
C840 C839 1.385 . S
C840 C841 1.389 1_655 S
C841 C840 1.389 1_455 S
C841 C842 1.387 . S
C842 H827 0.930 . S
C842 C837 1.390 . S
C842 C841 1.387 . S
H843 C855 0.930 . S
H844 C857 0.930 . S
H845 C858 0.930 . S
H846 C862 0.959 . S
H847 C862 0.959 . S
H848 C862 0.961 . S
H849 C863 0.960 . S
H850 C863 0.961 . S
H851 C863 0.959 . S
H852 C866 0.929 . S
H853 C867 0.931 . S
H854 C869 0.930 . S
C855 H843 0.930 . S
C855 C856 1.399 . S
C855 C860 1.399 . S
C856 C855 1.399 . S
C856 C857 1.376 1_565 S
C857 H844 0.930 . S
C857 C856 1.376 1_545 S
C857 C858 1.388 . S
C858 H845 0.930 . S
C858 C857 1.388 . S
C858 C859 1.390 . S
C859 C858 1.390 . S
C859 C860 1.394 1_545 S
C859 C865 1.465 . S
C860 C855 1.399 . S
C860 C859 1.394 1_565 S
C860 C861 1.516 . S
C861 C860 1.516 . S
C861 C862 1.502 . S
C861 C863 1.561 . S
C861 C864 1.526 . S
C862 H846 0.959 . S
C862 H847 0.959 . S
C862 H848 0.961 . S
C862 C861 1.502 . S
C863 H849 0.960 . S
C863 H850 0.961 . S
C863 H851 0.959 . S
C863 C861 1.561 . S
C864 C861 1.526 . S
C864 C865 1.396 1_565 S
C864 C869 1.390 . S
C865 C859 1.465 . S
C865 C864 1.396 1_545 S
C865 C866 1.399 . S
C866 H852 0.929 . S
C866 C865 1.399 . S
C866 C867 1.385 . S
C867 H853 0.931 . S
C867 C866 1.385 . S
C867 C868 1.389 . S
C868 C867 1.389 . S
C868 C869 1.387 1_545 S
C869 H854 0.930 . S
C869 C864 1.390 . S
C869 C868 1.387 1_565 S
H870 C882 0.930 . S
H871 C884 0.930 . S
H872 C885 0.930 . S
H873 C889 0.981 . S
H874 C889 0.959 . S
H875 C889 0.961 . S
H876 C890 0.960 . S
H877 C890 0.961 . S
H878 C890 0.959 . S
H879 C893 0.929 . S
H880 C894 0.931 . S
H881 C896 0.930 . S
C882 H870 0.930 . S
C882 C883 1.399 1_455 S
C882 C887 1.399 . S
C883 C882 1.399 1_655 S
C883 C884 1.376 . S
C884 H871 0.930 . S
C884 C883 1.376 . S
C884 C885 1.388 . S
C885 H872 0.930 . S
C885 C884 1.388 . S
C885 C886 1.390 . S
C886 C885 1.390 . S
C886 C887 1.394 1_655 S
C886 C892 1.465 . S
C887 C882 1.399 . S
C887 C886 1.394 1_455 S
C887 C888 1.516 . S
C888 C887 1.516 . S
C888 C889 1.502 . S
C888 C890 1.561 . S
C888 C891 1.526 . S
C889 H873 0.981 . S
C889 H874 0.959 . S
C889 H875 0.961 . S
C889 C888 1.502 . S
C890 H876 0.960 . S
C890 H877 0.961 . S
C890 H878 0.959 . S
C890 C888 1.561 . S
C891 C888 1.526 . S
C891 C892 1.396 1_455 S
C891 C896 1.390 . S
C892 C886 1.465 . S
C892 C891 1.396 1_655 S
C892 C893 1.399 . S
C893 H879 0.929 . S
C893 C892 1.399 . S
C893 C894 1.385 . S
C894 H880 0.931 . S
C894 C893 1.385 . S
C894 C895 1.389 1_655 S
C895 C894 1.389 1_455 S
C895 C896 1.387 . S
C896 H881 0.930 . S
C896 C891 1.390 . S
C896 C895 1.387 . S
H897 C909 0.930 . S
H898 C911 0.930 . S
H899 C912 0.930 . S
H900 C916 0.959 . S
H901 C916 0.959 . S
H902 C916 0.961 . S
H903 C917 0.960 . S
H904 C917 0.961 . S
H905 C917 0.959 . S
H906 C920 0.929 . S
H907 C921 0.931 . S
H908 C923 0.930 . S
C909 H897 0.930 . S
C909 C910 1.399 1_565 S
C909 C914 1.399 . S
C910 C909 1.399 1_545 S
C910 C911 1.376 . S
C911 H898 0.930 . S
C911 C910 1.376 . S
C911 C912 1.388 . S
C912 H899 0.930 . S
C912 C911 1.388 . S
C912 C913 1.390 . S
C913 C912 1.390 . S
C913 C914 1.394 1_545 S
C913 C919 1.465 . S
C914 C909 1.399 . S
C914 C913 1.394 1_565 S
C914 C915 1.516 . S
C915 C914 1.516 . S
C915 C916 1.502 . S
C915 C917 1.561 . S
C915 C918 1.526 . S
C916 H900 0.959 . S
C916 H901 0.959 . S
C916 H902 0.961 . S
C916 C915 1.502 . S
C917 H903 0.960 . S
C917 H904 0.961 . S
C917 H905 0.959 . S
C917 C915 1.561 . S
C918 C915 1.526 . S
C918 C919 1.396 1_565 S
C918 C923 1.390 . S
C919 C913 1.465 . S
C919 C918 1.396 1_545 S
C919 C920 1.399 . S
C920 H906 0.929 . S
C920 C919 1.399 . S
C920 C921 1.385 . S
C921 H907 0.931 . S
C921 C920 1.385 . S
C921 C922 1.389 1_545 S
C922 C921 1.389 1_565 S
C922 C923 1.387 . S
C923 H908 0.930 . S
C923 C918 1.390 . S
C923 C922 1.387 . S
H924 C936 0.930 . S
H925 C938 0.930 . S
H926 C939 0.930 . S
H927 C943 0.959 . S
H928 C943 0.959 . S
H929 C943 0.961 . S
H930 C944 0.960 . S
H931 C944 0.961 . S
H932 C944 0.959 . S
H933 C947 0.929 . S
H934 C948 0.931 . S
H935 C950 0.930 . S
C936 H924 0.930 . S
C936 C937 1.399 1_554 S
C936 C941 1.399 . S
C937 C936 1.399 1_556 S
C937 C938 1.376 . S
C938 H925 0.930 . S
C938 C937 1.376 . S
C938 C939 1.388 . S
C939 H926 0.930 . S
C939 C938 1.388 . S
C939 C940 1.390 . S
C940 C939 1.390 . S
C940 C941 1.394 1_556 S
C940 C946 1.465 . S
C941 C936 1.399 . S
C941 C940 1.394 1_554 S
C941 C942 1.516 . S
C942 C941 1.516 . S
C942 C943 1.502 . S
C942 C944 1.561 . S
C942 C945 1.526 . S
C943 H927 0.959 . S
C943 H928 0.959 . S
C943 H929 0.961 . S
C943 C942 1.502 . S
C944 H930 0.960 . S
C944 H931 0.961 . S
C944 H932 0.959 . S
C944 C942 1.561 . S
C945 C942 1.526 . S
C945 C946 1.396 1_554 S
C945 C950 1.390 . S
C946 C940 1.465 . S
C946 C945 1.396 1_556 S
C946 C947 1.399 . S
C947 H933 0.929 . S
C947 C946 1.399 . S
C947 C948 1.385 . S
C948 H934 0.931 . S
C948 C947 1.385 . S
C948 C949 1.389 1_556 S
C949 C948 1.389 1_554 S
C949 C950 1.387 . S
C950 H935 0.930 . S
C950 C945 1.390 . S
C950 C949 1.387 . S
H951 C963 0.930 . S
H952 C965 0.930 . S
H953 C966 0.930 . S
H954 C970 0.959 . S
H955 C970 0.959 . S
H956 C970 0.961 . S
H957 C971 0.960 . S
H958 C971 0.961 . S
H959 C971 0.959 . S
H960 C974 0.929 . S
H961 C975 0.931 . S
H962 C977 0.930 . S
C963 H951 0.930 . S
C963 C964 1.399 . S
C963 C968 1.399 . S
C964 C963 1.399 . S
C964 C965 1.376 1_556 S
C965 H952 0.930 . S
C965 C964 1.376 1_554 S
C965 C966 1.388 . S
C966 H953 0.930 . S
C966 C965 1.388 . S
C966 C967 1.390 . S
C967 C966 1.390 . S
C967 C968 1.394 1_554 S
C967 C973 1.465 . S
C968 C963 1.399 . S
C968 C967 1.394 1_556 S
C968 C969 1.516 . S
C969 C968 1.516 . S
C969 C970 1.502 . S
C969 C971 1.561 . S
C969 C972 1.526 . S
C970 H954 0.959 . S
C970 H955 0.959 . S
C970 H956 0.961 . S
C970 C969 1.502 . S
C971 H957 0.960 . S
C971 H958 0.961 . S
C971 H959 0.959 . S
C971 C969 1.561 . S
C972 C969 1.526 . S
C972 C973 1.396 1_556 S
C972 C977 1.390 . S
C973 C967 1.465 . S
C973 C972 1.396 1_554 S
C973 C974 1.399 . S
C974 H960 0.929 . S
C974 C973 1.399 . S
C974 C975 1.385 . S
C975 H961 0.931 . S
C975 C974 1.385 . S
C975 C976 1.389 . S
C976 C975 1.389 . S
C976 C977 1.387 1_554 S
C977 H962 0.930 . S
C977 C972 1.390 . S
C977 C976 1.387 1_556 S
H978 C990 0.930 . S
H979 C992 0.930 . S
H980 C993 0.930 . S
H981 C997 0.959 . S
H982 C997 0.959 . S
H983 C997 0.961 . S
H984 C998 0.960 . S
H985 C998 0.961 . S
H986 C998 0.959 . S
H987 C1001 0.929 . S
H988 C1002 0.931 . S
H989 C1004 0.930 . S
C990 H978 0.930 . S
C990 C991 1.399 1_556 S
C990 C995 1.399 . S
C991 C990 1.399 1_554 S
C991 C992 1.376 . S
C992 H979 0.930 . S
C992 C991 1.376 . S
C992 C993 1.388 . S
C993 H980 0.930 . S
C993 C992 1.388 . S
C993 C994 1.390 . S
C994 C993 1.390 . S
C994 C995 1.394 1_554 S
C994 C1000 1.465 . S
C995 C990 1.399 . S
C995 C994 1.394 1_556 S
C995 C996 1.516 . S
C996 C995 1.516 . S
C996 C997 1.502 . S
C996 C998 1.561 . S
C996 C999 1.526 . S
C997 H981 0.959 . S
C997 H982 0.959 . S
C997 H983 0.961 . S
C997 C996 1.502 . S
C998 H984 0.960 . S
C998 H985 0.961 . S
C998 H986 0.959 . S
C998 C996 1.561 . S
C999 C996 1.526 . S
C999 C1000 1.396 1_556 S
C999 C1004 1.390 . S
C1000 C994 1.465 . S
C1000 C999 1.396 1_554 S
C1000 C1001 1.399 . S
C1001 H987 0.929 . S
C1001 C1000 1.399 . S
C1001 C1002 1.385 . S
C1002 H988 0.931 . S
C1002 C1001 1.385 . S
C1002 C1003 1.389 1_554 S
C1003 C1002 1.389 1_556 S
C1003 C1004 1.387 . S
C1004 H989 0.930 . S
C1004 C999 1.390 . S
C1004 C1003 1.387 . S
H1005 C1017 0.930 . S
H1006 C1019 0.930 . S
H1007 C1020 0.930 . S
H1008 C1024 0.959 . S
H1009 C1024 0.959 . S
H1010 C1024 0.961 . S
H1011 C1025 0.960 . S
H1012 C1025 0.961 . S
H1013 C1025 0.959 . S
H1014 C1028 0.929 . S
H1015 C1029 0.931 . S
H1016 C1031 0.930 . S
C1017 H1005 0.930 . S
C1017 C1018 1.399 . S
C1017 C1022 1.399 . S
C1018 C1017 1.399 . S
C1018 C1019 1.376 1_554 S
C1019 H1006 0.930 . S
C1019 C1018 1.376 1_556 S
C1019 C1020 1.388 . S
C1020 H1007 0.930 . S
C1020 C1019 1.388 . S
C1020 C1021 1.390 . S
C1021 C1020 1.390 . S
C1021 C1022 1.394 1_556 S
C1021 C1027 1.465 . S
C1022 C1017 1.399 . S
C1022 C1021 1.394 1_554 S
C1022 C1023 1.516 . S
C1023 C1022 1.516 . S
C1023 C1024 1.502 . S
C1023 C1025 1.561 . S
C1023 C1026 1.526 . S
C1024 H1008 0.959 . S
C1024 H1009 0.959 . S
C1024 H1010 0.961 . S
C1024 C1023 1.502 . S
C1025 H1011 0.960 . S
C1025 H1012 0.961 . S
C1025 H1013 0.959 . S
C1025 C1023 1.561 . S
C1026 C1023 1.526 . S
C1026 C1027 1.396 1_554 S
C1026 C1031 1.390 . S
C1027 C1021 1.465 . S
C1027 C1026 1.396 1_556 S
C1027 C1028 1.399 . S
C1028 H1014 0.929 . S
C1028 C1027 1.399 . S
C1028 C1029 1.385 . S
C1029 H1015 0.931 . S
C1029 C1028 1.385 . S
C1029 C1030 1.389 . S
C1030 C1029 1.389 . S
C1030 C1031 1.387 1_556 S
C1031 H1016 0.930 . S
C1031 C1026 1.390 . S
C1031 C1030 1.387 1_554 S
H1032 C1044 0.930 . S
H1033 C1046 0.930 . S
H1034 C1047 0.930 . S
H1035 C1051 0.959 . S
H1036 C1051 0.959 . S
H1037 C1051 0.961 . S
H1038 C1052 0.960 . S
H1039 C1052 0.961 . S
H1040 C1052 0.959 . S
H1041 C1055 0.929 . S
H1042 C1056 0.931 . S
H1043 C1058 0.930 . S
C1044 H1032 0.930 . S
C1044 C1045 1.399 . S
C1044 C1049 1.399 . S
C1045 C1044 1.399 . S
C1045 C1046 1.376 . S
C1046 H1033 0.930 . S
C1046 C1045 1.376 . S
C1046 C1047 1.388 . S
C1047 H1034 0.930 . S
C1047 C1046 1.388 . S
C1047 C1048 1.390 . S
C1048 C1047 1.390 . S
C1048 C1049 1.394 . S
C1048 C1054 1.465 . S
C1049 C1044 1.399 . S
C1049 C1048 1.394 . S
C1049 C1050 1.516 . S
C1050 C1049 1.516 . S
C1050 C1051 1.502 . S
C1050 C1052 1.561 . S
C1050 C1053 1.526 . S
C1051 H1035 0.959 . S
C1051 H1036 0.959 . S
C1051 H1037 0.961 . S
C1051 C1050 1.502 . S
C1052 H1038 0.960 . S
C1052 H1039 0.961 . S
C1052 H1040 0.959 . S
C1052 C1050 1.561 . S
C1053 C1050 1.526 . S
C1053 C1054 1.396 . S
C1053 C1058 1.390 . S
C1054 C1048 1.465 . S
C1054 C1053 1.396 . S
C1054 C1055 1.399 . S
C1055 H1041 0.929 . S
C1055 C1054 1.399 . S
C1055 C1056 1.385 . S
C1056 H1042 0.931 . S
C1056 C1055 1.385 . S
C1056 C1057 1.389 . S
C1057 C1056 1.389 . S
C1057 C1058 1.387 . S
C1058 H1043 0.930 . S
C1058 C1053 1.390 . S
C1058 C1057 1.387 . S
H1059 C1071 0.930 . S
H1060 C1073 0.930 . S
H1061 C1074 0.930 . S
H1062 C1078 0.959 . S
H1063 C1078 0.959 . S
H1064 C1078 0.961 . S
H1065 C1079 0.960 . S
H1066 C1079 0.961 . S
H1067 C1079 0.959 . S
H1068 C1082 0.929 . S
H1069 C1083 0.931 . S
H1070 C1085 0.930 . S
C1071 H1059 0.930 . S
C1071 C1072 1.399 . S
C1071 C1076 1.399 . S
C1072 C1071 1.399 . S
C1072 C1073 1.376 . S
C1073 H1060 0.930 . S
C1073 C1072 1.376 . S
C1073 C1074 1.388 . S
C1074 H1061 0.930 . S
C1074 C1073 1.388 . S
C1074 C1075 1.390 . S
C1075 C1074 1.390 . S
C1075 C1076 1.394 . S
C1075 C1081 1.465 . S
C1076 C1071 1.399 . S
C1076 C1075 1.394 . S
C1076 C1077 1.516 . S
C1077 C1076 1.516 . S
C1077 C1078 1.502 . S
C1077 C1079 1.561 . S
C1077 C1080 1.526 . S
C1078 H1062 0.959 . S
C1078 H1063 0.959 . S
C1078 H1064 0.961 . S
C1078 C1077 1.502 . S
C1079 H1065 0.960 . S
C1079 H1066 0.961 . S
C1079 H1067 0.959 . S
C1079 C1077 1.561 . S
C1080 C1077 1.526 . S
C1080 C1081 1.396 . S
C1080 C1085 1.390 . S
C1081 C1075 1.465 . S
C1081 C1080 1.396 . S
C1081 C1082 1.399 . S
C1082 H1068 0.929 . S
C1082 C1081 1.399 . S
C1082 C1083 1.385 . S
C1083 H1069 0.931 . S
C1083 C1082 1.385 . S
C1083 C1084 1.389 . S
C1084 C1083 1.389 . S
C1084 C1085 1.387 . S
C1085 H1070 0.930 . S
C1085 C1080 1.390 . S
C1085 C1084 1.387 . S
H1086 C1098 0.930 . S
H1087 C1100 0.930 . S
H1088 C1101 0.930 . S
H1089 C1105 0.959 . S
H1090 C1105 0.959 . S
H1091 C1105 0.961 . S
H1092 C1106 0.960 . S
H1093 C1106 0.961 . S
H1094 C1106 0.959 . S
H1095 C1109 0.929 . S
H1096 C1110 0.931 . S
H1097 C1112 0.930 . S
C1098 H1086 0.930 . S
C1098 C1099 1.399 . S
C1098 C1103 1.399 . S
C1099 C1098 1.399 . S
C1099 C1100 1.376 . S
C1100 H1087 0.930 . S
C1100 C1099 1.376 . S
C1100 C1101 1.388 . S
C1101 H1088 0.930 . S
C1101 C1100 1.388 . S
C1101 C1102 1.390 . S
C1102 C1101 1.390 . S
C1102 C1103 1.394 . S
C1102 C1108 1.465 . S
C1103 C1098 1.399 . S
C1103 C1102 1.394 . S
C1103 C1104 1.516 . S
C1104 C1103 1.516 . S
C1104 C1105 1.502 . S
C1104 C1106 1.561 . S
C1104 C1107 1.526 . S
C1105 H1089 0.959 . S
C1105 H1090 0.959 . S
C1105 H1091 0.961 . S
C1105 C1104 1.502 . S
C1106 H1092 0.960 . S
C1106 H1093 0.961 . S
C1106 H1094 0.959 . S
C1106 C1104 1.561 . S
C1107 C1104 1.526 . S
C1107 C1108 1.396 . S
C1107 C1112 1.390 . S
C1108 C1102 1.465 . S
C1108 C1107 1.396 . S
C1108 C1109 1.399 . S
C1109 H1095 0.929 . S
C1109 C1108 1.399 . S
C1109 C1110 1.385 . S
C1110 H1096 0.931 . S
C1110 C1109 1.385 . S
C1110 C1111 1.389 . S
C1111 C1110 1.389 . S
C1111 C1112 1.387 . S
C1112 H1097 0.930 . S
C1112 C1107 1.390 . S
C1112 C1111 1.387 . S
H1113 C1125 0.930 . S
H1114 C1127 0.930 . S
H1115 C1128 0.930 . S
H1116 C1132 0.959 . S
H1117 C1132 0.959 . S
H1118 C1132 0.961 . S
H1119 C1133 0.960 . S
H1120 C1133 0.961 . S
H1121 C1133 0.959 . S
H1122 C1136 0.929 . S
H1123 C1137 0.931 . S
H1124 C1139 0.930 . S
C1125 H1113 0.930 . S
C1125 C1126 1.399 . S
C1125 C1130 1.399 . S
C1126 C1125 1.399 . S
C1126 C1127 1.376 . S
C1127 H1114 0.930 . S
C1127 C1126 1.376 . S
C1127 C1128 1.388 . S
C1128 H1115 0.930 . S
C1128 C1127 1.388 . S
C1128 C1129 1.390 . S
C1129 C1128 1.390 . S
C1129 C1130 1.394 . S
C1129 C1135 1.465 . S
C1130 C1125 1.399 . S
C1130 C1129 1.394 . S
C1130 C1131 1.516 . S
C1131 C1130 1.516 . S
C1131 C1132 1.502 . S
C1131 C1133 1.561 . S
C1131 C1134 1.526 . S
C1132 H1116 0.959 . S
C1132 H1117 0.959 . S
C1132 H1118 0.961 . S
C1132 C1131 1.502 . S
C1133 H1119 0.960 . S
C1133 H1120 0.961 . S
C1133 H1121 0.959 . S
C1133 C1131 1.561 . S
C1134 C1131 1.526 . S
C1134 C1135 1.396 . S
C1134 C1139 1.390 . S
C1135 C1129 1.465 . S
C1135 C1134 1.396 . S
C1135 C1136 1.399 . S
C1136 H1122 0.929 . S
C1136 C1135 1.399 . S
C1136 C1137 1.385 . S
C1137 H1123 0.931 . S
C1137 C1136 1.385 . S
C1137 C1138 1.389 . S
C1138 C1137 1.389 . S
C1138 C1139 1.387 . S
C1139 H1124 0.930 . S
C1139 C1134 1.390 . S
C1139 C1138 1.387 . S
H1140 C1152 0.930 . S
H1141 C1154 0.930 . S
H1142 C1155 0.930 . S
H1143 C1159 0.959 . S
H1144 C1159 0.959 . S
H1145 C1159 0.961 . S
H1146 C1160 0.960 . S
H1147 C1160 0.961 . S
H1148 C1160 0.959 . S
H1149 C1163 0.929 . S
H1150 C1164 0.931 . S
H1151 C1166 0.930 . S
C1152 H1140 0.930 . S
C1152 C1153 1.399 . S
C1152 C1157 1.399 . S
C1153 C1152 1.399 . S
C1153 C1154 1.376 . S
C1154 H1141 0.930 . S
C1154 C1153 1.376 . S
C1154 C1155 1.388 . S
C1155 H1142 0.930 . S
C1155 C1154 1.388 . S
C1155 C1156 1.390 . S
C1156 C1155 1.390 . S
C1156 C1157 1.394 . S
C1156 C1162 1.465 . S
C1157 C1152 1.399 . S
C1157 C1156 1.394 . S
C1157 C1158 1.516 . S
C1158 C1157 1.516 . S
C1158 C1159 1.502 . S
C1158 C1160 1.561 . S
C1158 C1161 1.526 . S
C1159 H1143 0.959 . S
C1159 H1144 0.959 . S
C1159 H1145 0.961 . S
C1159 C1158 1.502 . S
C1160 H1146 0.960 . S
C1160 H1147 0.961 . S
C1160 H1148 0.959 . S
C1160 C1158 1.561 . S
C1161 C1158 1.526 . S
C1161 C1162 1.396 . S
C1161 C1166 1.390 . S
C1162 C1156 1.465 . S
C1162 C1161 1.396 . S
C1162 C1163 1.399 . S
C1163 H1149 0.929 . S
C1163 C1162 1.399 . S
C1163 C1164 1.385 . S
C1164 H1150 0.931 . S
C1164 C1163 1.385 . S
C1164 C1165 1.389 . S
C1165 C1164 1.389 . S
C1165 C1166 1.387 . S
C1166 H1151 0.930 . S
C1166 C1161 1.390 . S
C1166 C1165 1.387 . S
H1167 C1179 0.930 . S
H1168 C1181 0.930 . S
H1169 C1182 0.930 . S
H1170 C1186 0.959 . S
H1171 C1186 0.959 . S
H1172 C1186 0.961 . S
H1173 C1187 0.960 . S
H1174 C1187 0.961 . S
H1175 C1187 0.959 . S
H1176 C1190 0.929 . S
H1177 C1191 0.931 . S
H1178 C1193 0.930 . S
C1179 H1167 0.930 . S
C1179 C1180 1.399 . S
C1179 C1184 1.399 . S
C1180 C1179 1.399 . S
C1180 C1181 1.376 . S
C1181 H1168 0.930 . S
C1181 C1180 1.376 . S
C1181 C1182 1.388 . S
C1182 H1169 0.930 . S
C1182 C1181 1.388 . S
C1182 C1183 1.390 . S
C1183 C1182 1.390 . S
C1183 C1184 1.394 . S
C1183 C1189 1.465 . S
C1184 C1179 1.399 . S
C1184 C1183 1.394 . S
C1184 C1185 1.516 . S
C1185 C1184 1.516 . S
C1185 C1186 1.502 . S
C1185 C1187 1.561 . S
C1185 C1188 1.526 . S
C1186 H1170 0.959 . S
C1186 H1171 0.959 . S
C1186 H1172 0.961 . S
C1186 C1185 1.502 . S
C1187 H1173 0.960 . S
C1187 H1174 0.961 . S
C1187 H1175 0.959 . S
C1187 C1185 1.561 . S
C1188 C1185 1.526 . S
C1188 C1189 1.396 . S
C1188 C1193 1.390 . S
C1189 C1183 1.465 . S
C1189 C1188 1.396 . S
C1189 C1190 1.399 . S
C1190 H1176 0.929 . S
C1190 C1189 1.399 . S
C1190 C1191 1.385 . S
C1191 H1177 0.931 . S
C1191 C1190 1.385 . S
C1191 C1192 1.389 . S
C1192 C1191 1.389 . S
C1192 C1193 1.387 . S
C1193 H1178 0.930 . S
C1193 C1188 1.390 . S
C1193 C1192 1.387 . S
H1194 C1206 0.930 . S
H1195 C1208 0.930 . S
H1196 C1209 0.930 . S
H1197 C1213 0.959 . S
H1198 C1213 0.959 . S
H1199 C1213 0.961 . S
H1200 C1214 0.960 . S
H1201 C1214 0.961 . S
H1202 C1214 0.959 . S
H1203 C1217 0.929 . S
H1204 C1218 0.931 . S
H1205 C1220 0.930 . S
C1206 H1194 0.930 . S
C1206 C1207 1.399 . S
C1206 C1211 1.399 . S
C1207 C1206 1.399 . S
C1207 C1208 1.376 . S
C1208 H1195 0.930 . S
C1208 C1207 1.376 . S
C1208 C1209 1.388 . S
C1209 H1196 0.930 . S
C1209 C1208 1.388 . S
C1209 C1210 1.390 . S
C1210 C1209 1.390 . S
C1210 C1211 1.394 . S
C1210 C1216 1.465 . S
C1211 C1206 1.399 . S
C1211 C1210 1.394 . S
C1211 C1212 1.516 . S
C1212 C1211 1.516 . S
C1212 C1213 1.502 . S
C1212 C1214 1.561 . S
C1212 C1215 1.526 . S
C1213 H1197 0.959 . S
C1213 H1198 0.959 . S
C1213 H1199 0.961 . S
C1213 C1212 1.502 . S
C1214 H1200 0.960 . S
C1214 H1201 0.961 . S
C1214 H1202 0.959 . S
C1214 C1212 1.561 . S
C1215 C1212 1.526 . S
C1215 C1216 1.396 . S
C1215 C1220 1.390 . S
C1216 C1210 1.465 . S
C1216 C1215 1.396 . S
C1216 C1217 1.399 . S
C1217 H1203 0.929 . S
C1217 C1216 1.399 . S
C1217 C1218 1.385 . S
C1218 H1204 0.931 . S
C1218 C1217 1.385 . S
C1218 C1219 1.389 . S
C1219 C1218 1.389 . S
C1219 C1220 1.387 . S
C1220 H1205 0.930 . S
C1220 C1215 1.390 . S
C1220 C1219 1.387 . S
H1221 C1233 0.930 . S
H1222 C1235 0.930 . S
H1223 C1236 0.930 . S
H1224 C1240 0.959 . S
H1225 C1240 0.959 . S
H1226 C1240 0.961 . S
H1227 C1241 0.960 . S
H1228 C1241 0.961 . S
H1229 C1241 0.959 . S
H1230 C1244 0.929 . S
H1231 C1245 0.931 . S
H1232 C1247 0.930 . S
C1233 H1221 0.930 . S
C1233 C1234 1.399 . S
C1233 C1238 1.399 . S
C1234 C1233 1.399 . S
C1234 C1235 1.376 . S
C1235 H1222 0.930 . S
C1235 C1234 1.376 . S
C1235 C1236 1.388 . S
C1236 H1223 0.930 . S
C1236 C1235 1.388 . S
C1236 C1237 1.390 . S
C1237 C1236 1.390 . S
C1237 C1238 1.394 . S
C1237 C1243 1.465 . S
C1238 C1233 1.399 . S
C1238 C1237 1.394 . S
C1238 C1239 1.516 . S
C1239 C1238 1.516 . S
C1239 C1240 1.502 . S
C1239 C1241 1.561 . S
C1239 C1242 1.526 . S
C1240 H1224 0.959 . S
C1240 H1225 0.959 . S
C1240 H1226 0.961 . S
C1240 C1239 1.502 . S
C1241 H1227 0.960 . S
C1241 H1228 0.961 . S
C1241 H1229 0.959 . S
C1241 C1239 1.561 . S
C1242 C1239 1.526 . S
C1242 C1243 1.396 . S
C1242 C1247 1.390 . S
C1243 C1237 1.465 . S
C1243 C1242 1.396 . S
C1243 C1244 1.399 . S
C1244 H1230 0.929 . S
C1244 C1243 1.399 . S
C1244 C1245 1.385 . S
C1245 H1231 0.931 . S
C1245 C1244 1.385 . S
C1245 C1246 1.389 . S
C1246 C1245 1.389 . S
C1246 C1247 1.387 . S
C1247 H1232 0.930 . S
C1247 C1242 1.390 . S
C1247 C1246 1.387 . S
H1248 C1260 0.930 . S
H1249 C1262 0.930 . S
H1250 C1263 0.930 . S
H1251 C1267 0.959 . S
H1252 C1267 0.959 . S
H1253 C1267 0.961 . S
H1254 C1268 0.960 . S
H1255 C1268 0.961 . S
H1256 C1268 0.959 . S
H1257 C1271 0.929 . S
H1258 C1272 0.931 . S
H1259 C1274 0.930 . S
C1260 H1248 0.930 . S
C1260 C1261 1.399 . S
C1260 C1265 1.399 . S
C1261 C1260 1.399 . S
C1261 C1262 1.376 . S
C1262 H1249 0.930 . S
C1262 C1261 1.376 . S
C1262 C1263 1.388 . S
C1263 H1250 0.930 . S
C1263 C1262 1.388 . S
C1263 C1264 1.390 . S
C1264 C1263 1.390 . S
C1264 C1265 1.394 . S
C1264 C1270 1.465 . S
C1265 C1260 1.399 . S
C1265 C1264 1.394 . S
C1265 C1266 1.516 . S
C1266 C1265 1.516 . S
C1266 C1267 1.502 . S
C1266 C1268 1.561 . S
C1266 C1269 1.526 . S
C1267 H1251 0.959 . S
C1267 H1252 0.959 . S
C1267 H1253 0.961 . S
C1267 C1266 1.502 . S
C1268 H1254 0.960 . S
C1268 H1255 0.961 . S
C1268 H1256 0.959 . S
C1268 C1266 1.561 . S
C1269 C1266 1.526 . S
C1269 C1270 1.396 . S
C1269 C1274 1.390 . S
C1270 C1264 1.465 . S
C1270 C1269 1.396 . S
C1270 C1271 1.399 . S
C1271 H1257 0.929 . S
C1271 C1270 1.399 . S
C1271 C1272 1.385 . S
C1272 H1258 0.931 . S
C1272 C1271 1.385 . S
C1272 C1273 1.389 . S
C1273 C1272 1.389 . S
C1273 C1274 1.387 . S
C1274 H1259 0.930 . S
C1274 C1269 1.390 . S
C1274 C1273 1.387 . S
H1275 C1287 0.930 . S
H1276 C1289 0.930 . S
H1277 C1290 0.930 . S
H1278 C1294 0.959 . S
H1279 C1294 0.959 . S
H1280 C1294 0.961 . S
H1281 C1295 0.960 . S
H1282 C1295 0.961 . S
H1283 C1295 0.959 . S
H1284 C1298 0.929 . S
H1285 C1299 0.931 . S
H1286 C1301 0.930 . S
C1287 H1275 0.930 . S
C1287 C1288 1.399 . S
C1287 C1292 1.399 . S
C1288 C1287 1.399 . S
C1288 C1289 1.376 . S
C1289 H1276 0.930 . S
C1289 C1288 1.376 . S
C1289 C1290 1.388 . S
C1290 H1277 0.930 . S
C1290 C1289 1.388 . S
C1290 C1291 1.390 . S
C1291 C1290 1.390 . S
C1291 C1292 1.394 . S
C1291 C1297 1.465 . S
C1292 C1287 1.399 . S
C1292 C1291 1.394 . S
C1292 C1293 1.516 . S
C1293 C1292 1.516 . S
C1293 C1294 1.502 . S
C1293 C1295 1.561 . S
C1293 C1296 1.526 . S
C1294 H1278 0.959 . S
C1294 H1279 0.959 . S
C1294 H1280 0.961 . S
C1294 C1293 1.502 . S
C1295 H1281 0.960 . S
C1295 H1282 0.961 . S
C1295 H1283 0.959 . S
C1295 C1293 1.561 . S
C1296 C1293 1.526 . S
C1296 C1297 1.396 . S
C1296 C1301 1.390 . S
C1297 C1291 1.465 . S
C1297 C1296 1.396 . S
C1297 C1298 1.399 . S
C1298 H1284 0.929 . S
C1298 C1297 1.399 . S
C1298 C1299 1.385 . S
C1299 H1285 0.931 . S
C1299 C1298 1.385 . S
C1299 C1300 1.389 . S
C1300 C1299 1.389 . S
C1300 C1301 1.387 . S
C1301 H1286 0.930 . S
C1301 C1296 1.390 . S
C1301 C1300 1.387 . S
H1302 C1314 0.930 . S
H1303 C1316 0.930 . S
H1304 C1317 0.930 . S
H1305 C1321 0.959 . S
H1306 C1321 0.959 . S
H1307 C1321 0.961 . S
H1308 C1322 0.960 . S
H1309 C1322 0.961 . S
H1310 C1322 0.959 . S
H1311 C1325 0.929 . S
H1312 C1326 0.931 . S
H1313 C1328 0.930 . S
C1314 H1302 0.930 . S
C1314 C1315 1.399 . S
C1314 C1319 1.399 . S
C1315 C1314 1.399 . S
C1315 C1316 1.376 . S
C1316 H1303 0.930 . S
C1316 C1315 1.376 . S
C1316 C1317 1.388 . S
C1317 H1304 0.930 . S
C1317 C1316 1.388 . S
C1317 C1318 1.390 . S
C1318 C1317 1.390 . S
C1318 C1319 1.394 . S
C1318 C1324 1.465 . S
C1319 C1314 1.399 . S
C1319 C1318 1.394 . S
C1319 C1320 1.516 . S
C1320 C1319 1.516 . S
C1320 C1321 1.502 . S
C1320 C1322 1.561 . S
C1320 C1323 1.526 . S
C1321 H1305 0.959 . S
C1321 H1306 0.959 . S
C1321 H1307 0.961 . S
C1321 C1320 1.502 . S
C1322 H1308 0.960 . S
C1322 H1309 0.961 . S
C1322 H1310 0.959 . S
C1322 C1320 1.561 . S
C1323 C1320 1.526 . S
C1323 C1324 1.396 . S
C1323 C1328 1.390 . S
C1324 C1318 1.465 . S
C1324 C1323 1.396 . S
C1324 C1325 1.399 . S
C1325 H1311 0.929 . S
C1325 C1324 1.399 . S
C1325 C1326 1.385 . S
C1326 H1312 0.931 . S
C1326 C1325 1.385 . S
C1326 C1327 1.389 . S
C1327 C1326 1.389 . S
C1327 C1328 1.387 . S
C1328 H1313 0.930 . S
C1328 C1323 1.390 . S
C1328 C1327 1.387 . S
H1329 C1341 0.930 . S
H1330 C1343 0.930 . S
H1331 C1344 0.930 . S
H1332 C1348 0.959 . S
H1333 C1348 0.959 . S
H1334 C1348 0.961 . S
H1335 C1349 0.960 . S
H1336 C1349 0.961 . S
H1337 C1349 0.959 . S
H1338 C1352 0.929 . S
H1339 C1353 0.931 . S
H1340 C1355 0.930 . S
C1341 H1329 0.930 . S
C1341 C1342 1.399 . S
C1341 C1346 1.399 . S
C1342 C1341 1.399 . S
C1342 C1343 1.376 . S
C1343 H1330 0.930 . S
C1343 C1342 1.376 . S
C1343 C1344 1.388 . S
C1344 H1331 0.930 . S
C1344 C1343 1.388 . S
C1344 C1345 1.390 . S
C1345 C1344 1.390 . S
C1345 C1346 1.394 . S
C1345 C1351 1.465 . S
C1346 C1341 1.399 . S
C1346 C1345 1.394 . S
C1346 C1347 1.516 . S
C1347 C1346 1.516 . S
C1347 C1348 1.502 . S
C1347 C1349 1.561 . S
C1347 C1350 1.526 . S
C1348 H1332 0.959 . S
C1348 H1333 0.959 . S
C1348 H1334 0.961 . S
C1348 C1347 1.502 . S
C1349 H1335 0.960 . S
C1349 H1336 0.961 . S
C1349 H1337 0.959 . S
C1349 C1347 1.561 . S
C1350 C1347 1.526 . S
C1350 C1351 1.396 . S
C1350 C1355 1.390 . S
C1351 C1345 1.465 . S
C1351 C1350 1.396 . S
C1351 C1352 1.399 . S
C1352 H1338 0.929 . S
C1352 C1351 1.399 . S
C1352 C1353 1.385 . S
C1353 H1339 0.931 . S
C1353 C1352 1.385 . S
C1353 C1354 1.389 . S
C1354 C1353 1.389 . S
C1354 C1355 1.387 . S
C1355 H1340 0.930 . S
C1355 C1350 1.390 . S
C1355 C1354 1.387 . S
C721 C5 1.594 . S
C733 C300 1.606 . S
C748 C111 1.572 . S
C760 C288 1.605 . S
C775 C298 1.614 . S
C787 C121 1.576 . S
C802 C229 1.568 . S
C814 C269 1.618 . S
C829 C418 1.601 . S
C841 C123 1.575 . S
C856 C387 1.579 . S
C868 C210 1.616 . S
C883 C3 1.608 . S
C895 C416 1.591 . S
C910 C406 1.616 . S
C922 C92 1.570 . S
C937 C583 1.604 . S
C949 C477 1.564 . S
C964 C475 1.566 . S
C976 C701 1.601 . S
C991 C564 1.587 . S
C1003 C593 1.584 . S
C1018 C595 1.571 . S
C1030 C682 1.604 . S
C1045 C654 1.606 . S
C1057 C359 1.572 . S
C1072 C524 1.599 . S
C1084 C465 1.591 . S
C1099 C357 1.576 . S
C1111 C534 1.617 . S
C1126 C446 1.601 . S
C1138 C642 1.587 . S
C1153 C241 1.577 . S
C1165 C536 1.597 . S
C1180 C328 1.615 . S
C1192 C623 1.572 . S
C1207 C652 1.602 . S
C1219 C239 1.584 . S
C1234 C505 1.615 . S
C1246 C347 1.570 . S
C1261 C64 1.564 . S
C1273 C170 1.605 . S
C1288 C52 1.554 . S
C1300 C62 1.600 . S
C1315 C151 1.586 . S
C1327 C180 1.584 . S
C1342 C33 1.566 . S
C1354 C182 1.606 . S
