# Generated by pormake.
# Topology umu, (4)-cn, num edge types: 1
# Building blocks:
#     Node 0, Type 0, BuildingBlock: GALJAG_clean_sbu_0, # of connection points: 4
#     Node 1, Type 0, BuildingBlock: GALJAG_clean_sbu_0, # of connection points: 4
#     Node 2, Type 0, BuildingBlock: GALJAG_clean_sbu_0, # of connection points: 4
#     Node 3, Type 0, BuildingBlock: GALJAG_clean_sbu_0, # of connection points: 4
#     Node 4, Type 0, BuildingBlock: GALJAG_clean_sbu_0, # of connection points: 4
#     Node 5, Type 0, BuildingBlock: GALJAG_clean_sbu_0, # of connection points: 4
#     Node 6, Type 0, BuildingBlock: GALJAG_clean_sbu_0, # of connection points: 4
#     Node 7, Type 0, BuildingBlock: GALJAG_clean_sbu_0, # of connection points: 4
#     Node 8, Type 0, BuildingBlock: GALJAG_clean_sbu_0, # of connection points: 4
#     Node 9, Type 0, BuildingBlock: GALJAG_clean_sbu_0, # of connection points: 4
#     Node 10, Type 0, BuildingBlock: GALJAG_clean_sbu_0, # of connection points: 4
#     Node 11, Type 0, BuildingBlock: GALJAG_clean_sbu_0, # of connection points: 4
#     Node 12, Type 0, BuildingBlock: GALJAG_clean_sbu_0, # of connection points: 4
#     Node 13, Type 0, BuildingBlock: GALJAG_clean_sbu_0, # of connection points: 4
#     Node 14, Type 0, BuildingBlock: GALJAG_clean_sbu_0, # of connection points: 4
#     Node 15, Type 0, BuildingBlock: GALJAG_clean_sbu_0, # of connection points: 4
#     Node 16, Type 0, BuildingBlock: GALJAG_clean_sbu_0, # of connection points: 4
#     Node 17, Type 0, BuildingBlock: GALJAG_clean_sbu_0, # of connection points: 4
#     Node 18, Type 0, BuildingBlock: GALJAG_clean_sbu_0, # of connection points: 4
#     Node 19, Type 0, BuildingBlock: GALJAG_clean_sbu_0, # of connection points: 4
#     Node 20, Type 0, BuildingBlock: GALJAG_clean_sbu_0, # of connection points: 4
#     Node 21, Type 0, BuildingBlock: GALJAG_clean_sbu_0, # of connection points: 4
#     Node 22, Type 0, BuildingBlock: GALJAG_clean_sbu_0, # of connection points: 4
#     Node 23, Type 0, BuildingBlock: GALJAG_clean_sbu_0, # of connection points: 4
#     Node 24, Type 0, BuildingBlock: GALJAG_clean_sbu_0, # of connection points: 4
#     Node 25, Type 0, BuildingBlock: GALJAG_clean_sbu_0, # of connection points: 4
#     Node 26, Type 0, BuildingBlock: GALJAG_clean_sbu_0, # of connection points: 4
#     Node 27, Type 0, BuildingBlock: GALJAG_clean_sbu_0, # of connection points: 4
#     Node 28, Type 0, BuildingBlock: GALJAG_clean_sbu_0, # of connection points: 4
#     Node 29, Type 0, BuildingBlock: GALJAG_clean_sbu_0, # of connection points: 4
#     Node 30, Type 0, BuildingBlock: GALJAG_clean_sbu_0, # of connection points: 4
#     Node 31, Type 0, BuildingBlock: GALJAG_clean_sbu_0, # of connection points: 4
#     Edge 32, Type (0, 0), BuildingBlock: EZIPEK_clean_linker_0, # of connection points: 2
#     Edge 33, Type (0, 0), BuildingBlock: EZIPEK_clean_linker_0, # of connection points: 2
#     Edge 34, Type (0, 0), BuildingBlock: EZIPEK_clean_linker_0, # of connection points: 2
#     Edge 35, Type (0, 0), BuildingBlock: EZIPEK_clean_linker_0, # of connection points: 2
#     Edge 36, Type (0, 0), BuildingBlock: EZIPEK_clean_linker_0, # of connection points: 2
#     Edge 37, Type (0, 0), BuildingBlock: EZIPEK_clean_linker_0, # of connection points: 2
#     Edge 38, Type (0, 0), BuildingBlock: EZIPEK_clean_linker_0, # of connection points: 2
#     Edge 39, Type (0, 0), BuildingBlock: EZIPEK_clean_linker_0, # of connection points: 2
#     Edge 40, Type (0, 0), BuildingBlock: EZIPEK_clean_linker_0, # of connection points: 2
#     Edge 41, Type (0, 0), BuildingBlock: EZIPEK_clean_linker_0, # of connection points: 2
#     Edge 42, Type (0, 0), BuildingBlock: EZIPEK_clean_linker_0, # of connection points: 2
#     Edge 43, Type (0, 0), BuildingBlock: EZIPEK_clean_linker_0, # of connection points: 2
#     Edge 44, Type (0, 0), BuildingBlock: EZIPEK_clean_linker_0, # of connection points: 2
#     Edge 45, Type (0, 0), BuildingBlock: EZIPEK_clean_linker_0, # of connection points: 2
#     Edge 46, Type (0, 0), BuildingBlock: EZIPEK_clean_linker_0, # of connection points: 2
#     Edge 47, Type (0, 0), BuildingBlock: EZIPEK_clean_linker_0, # of connection points: 2
#     Edge 48, Type (0, 0), BuildingBlock: EZIPEK_clean_linker_0, # of connection points: 2
#     Edge 49, Type (0, 0), BuildingBlock: EZIPEK_clean_linker_0, # of connection points: 2
#     Edge 50, Type (0, 0), BuildingBlock: EZIPEK_clean_linker_0, # of connection points: 2
#     Edge 51, Type (0, 0), BuildingBlock: EZIPEK_clean_linker_0, # of connection points: 2
#     Edge 52, Type (0, 0), BuildingBlock: EZIPEK_clean_linker_0, # of connection points: 2
#     Edge 53, Type (0, 0), BuildingBlock: EZIPEK_clean_linker_0, # of connection points: 2
#     Edge 54, Type (0, 0), BuildingBlock: EZIPEK_clean_linker_0, # of connection points: 2
#     Edge 55, Type (0, 0), BuildingBlock: EZIPEK_clean_linker_0, # of connection points: 2
#     Edge 56, Type (0, 0), BuildingBlock: EZIPEK_clean_linker_0, # of connection points: 2
#     Edge 57, Type (0, 0), BuildingBlock: EZIPEK_clean_linker_0, # of connection points: 2
#     Edge 58, Type (0, 0), BuildingBlock: EZIPEK_clean_linker_0, # of connection points: 2
#     Edge 59, Type (0, 0), BuildingBlock: EZIPEK_clean_linker_0, # of connection points: 2
#     Edge 60, Type (0, 0), BuildingBlock: EZIPEK_clean_linker_0, # of connection points: 2
#     Edge 61, Type (0, 0), BuildingBlock: EZIPEK_clean_linker_0, # of connection points: 2
#     Edge 62, Type (0, 0), BuildingBlock: EZIPEK_clean_linker_0, # of connection points: 2
#     Edge 63, Type (0, 0), BuildingBlock: EZIPEK_clean_linker_0, # of connection points: 2
#     Edge 64, Type (0, 0), BuildingBlock: EZIPEK_clean_linker_0, # of connection points: 2
#     Edge 65, Type (0, 0), BuildingBlock: EZIPEK_clean_linker_0, # of connection points: 2
#     Edge 66, Type (0, 0), BuildingBlock: EZIPEK_clean_linker_0, # of connection points: 2
#     Edge 67, Type (0, 0), BuildingBlock: EZIPEK_clean_linker_0, # of connection points: 2
#     Edge 68, Type (0, 0), BuildingBlock: EZIPEK_clean_linker_0, # of connection points: 2
#     Edge 69, Type (0, 0), BuildingBlock: EZIPEK_clean_linker_0, # of connection points: 2
#     Edge 70, Type (0, 0), BuildingBlock: EZIPEK_clean_linker_0, # of connection points: 2
#     Edge 71, Type (0, 0), BuildingBlock: EZIPEK_clean_linker_0, # of connection points: 2
#     Edge 72, Type (0, 0), BuildingBlock: EZIPEK_clean_linker_0, # of connection points: 2
#     Edge 73, Type (0, 0), BuildingBlock: EZIPEK_clean_linker_0, # of connection points: 2
#     Edge 74, Type (0, 0), BuildingBlock: EZIPEK_clean_linker_0, # of connection points: 2
#     Edge 75, Type (0, 0), BuildingBlock: EZIPEK_clean_linker_0, # of connection points: 2
#     Edge 76, Type (0, 0), BuildingBlock: EZIPEK_clean_linker_0, # of connection points: 2
#     Edge 77, Type (0, 0), BuildingBlock: EZIPEK_clean_linker_0, # of connection points: 2
#     Edge 78, Type (0, 0), BuildingBlock: EZIPEK_clean_linker_0, # of connection points: 2
#     Edge 79, Type (0, 0), BuildingBlock: EZIPEK_clean_linker_0, # of connection points: 2
#     Edge 80, Type (0, 0), BuildingBlock: EZIPEK_clean_linker_0, # of connection points: 2
#     Edge 81, Type (0, 0), BuildingBlock: EZIPEK_clean_linker_0, # of connection points: 2
#     Edge 82, Type (0, 0), BuildingBlock: EZIPEK_clean_linker_0, # of connection points: 2
#     Edge 83, Type (0, 0), BuildingBlock: EZIPEK_clean_linker_0, # of connection points: 2
#     Edge 84, Type (0, 0), BuildingBlock: EZIPEK_clean_linker_0, # of connection points: 2
#     Edge 85, Type (0, 0), BuildingBlock: EZIPEK_clean_linker_0, # of connection points: 2
#     Edge 86, Type (0, 0), BuildingBlock: EZIPEK_clean_linker_0, # of connection points: 2
#     Edge 87, Type (0, 0), BuildingBlock: EZIPEK_clean_linker_0, # of connection points: 2
#     Edge 88, Type (0, 0), BuildingBlock: EZIPEK_clean_linker_0, # of connection points: 2
#     Edge 89, Type (0, 0), BuildingBlock: EZIPEK_clean_linker_0, # of connection points: 2
#     Edge 90, Type (0, 0), BuildingBlock: EZIPEK_clean_linker_0, # of connection points: 2
#     Edge 91, Type (0, 0), BuildingBlock: EZIPEK_clean_linker_0, # of connection points: 2
#     Edge 92, Type (0, 0), BuildingBlock: EZIPEK_clean_linker_0, # of connection points: 2
#     Edge 93, Type (0, 0), BuildingBlock: EZIPEK_clean_linker_0, # of connection points: 2
#     Edge 94, Type (0, 0), BuildingBlock: EZIPEK_clean_linker_0, # of connection points: 2
#     Edge 95, Type (0, 0), BuildingBlock: EZIPEK_clean_linker_0, # of connection points: 2
# Relax obj value: 0.104
# Max RMSD: 0.078
# Mean RMSD: 0.078
data_MOF--net-umu--node1-GALJAG_clean_sbu_0--edge1-EZIPEK_clean_linker_0
_symmetry_space_group_name_H-M    P1
_symmetry_Int_Tables_number       1
_symmetry_cell_setting            triclinic
loop_
_symmetry_equiv_pos_as_xyz
'x, y, z'
_cell_length_a     58.656799
_cell_length_b     58.622638
_cell_length_c     19.998048
_cell_angle_alpha  89.983309
_cell_angle_beta   89.989473
_cell_angle_gamma 89.976532
loop_
_atom_site_label
_atom_site_type_symbol
_atom_site_fract_x
_atom_site_fract_y
_atom_site_fract_z
_atom_type_partial_charge
In0 In 0.21104 0.15547 0.0427 0.0
O1 O 0.23831 0.14972 0.96254 0.0
O2 O 0.2055 0.16117 0.93204 0.0
C3 C 0.23184 0.14128 0.15548 0.0
C4 C 0.176 0.12763 0.01843 0.0
C5 C 0.21083 0.20085 0.06028 0.0
O6 O 0.23966 0.13686 0.09808 0.0
O7 O 0.21284 0.15136 0.15583 0.0
O8 O 0.19267 0.18928 0.05967 0.0
O9 O 0.22894 0.1895 0.05333 0.0
C10 C 0.22523 0.15517 0.91478 0.0
O11 O 0.17306 0.14724 0.04324 0.0
O12 O 0.19647 0.12128 0.01334 0.0
In13 In 0.08823 0.9596 0.32632 0.0
O14 O 0.0976 0.98842 0.25479 0.0
O15 O 0.07271 0.96393 0.22402 0.0
C16 C 0.09992 0.97815 0.4448 0.0
C17 C 0.11851 0.93059 0.27348 0.0
C18 C 0.04525 0.9481 0.35568 0.0
O19 O 0.09222 0.98991 0.39703 0.0
O20 O 0.10302 0.95733 0.43168 0.0
O21 O 0.06163 0.93448 0.36564 0.0
O22 O 0.05071 0.96735 0.33258 0.0
C23 C 0.08448 0.98118 0.20925 0.0
O24 O 0.09886 0.92417 0.29116 0.0
O25 O 0.12346 0.95092 0.288 0.0
In26 In 0.28664 0.83824 0.5794 0.0
O27 O 0.3164 0.84648 0.5108 0.0
O28 O 0.30416 0.8731 0.57345 0.0
C29 C 0.30084 0.79548 0.60287 0.0
C30 C 0.26007 0.83809 0.47016 0.0
C31 C 0.26769 0.84879 0.69838 0.0
O32 O 0.31477 0.81189 0.59909 0.0
O33 O 0.28013 0.80075 0.59621 0.0
O34 O 0.25601 0.84668 0.64578 0.0
O35 O 0.28891 0.84626 0.69076 0.0
C36 C 0.3174 0.86723 0.52678 0.0
O37 O 0.26234 0.85559 0.50621 0.0
O38 O 0.26995 0.82046 0.49126 0.0
In39 In 0.40081 0.04364 0.84454 0.0
O40 O 0.38661 0.01415 0.78187 0.0
O41 O 0.41502 0.03285 0.74446 0.0
C42 C 0.38837 0.02782 0.96661 0.0
C43 C 0.37446 0.07524 0.78466 0.0
C44 C 0.44459 0.05404 0.8682 0.0
O45 O 0.39658 0.01518 0.92166 0.0
O46 O 0.38544 0.04833 0.94938 0.0
O47 O 0.42887 0.06848 0.87685 0.0
O48 O 0.4382 0.03456 0.84926 0.0
C49 C 0.40044 0.01748 0.7344 0.0
O50 O 0.39523 0.07866 0.79735 0.0
O51 O 0.36649 0.05674 0.80671 0.0
In52 In 0.20668 0.84094 0.0775 0.0
O53 O 0.23616 0.84153 0.15205 0.0
O54 O 0.2026 0.83575 0.18861 0.0
C55 C 0.22503 0.85206 0.95902 0.0
C56 C 0.17797 0.87431 0.1123 0.0
C57 C 0.20315 0.79579 0.06087 0.0
O58 O 0.23544 0.85525 0.01362 0.0
O59 O 0.20486 0.84467 0.96443 0.0
O60 O 0.18558 0.80837 0.06243 0.0
O61 O 0.22189 0.80614 0.06541 0.0
C62 C 0.22343 0.83796 0.20217 0.0
O63 O 0.17102 0.85446 0.09785 0.0
O64 O 0.19885 0.87798 0.10097 0.0
In65 In 0.39932 0.96436 0.34061 0.0
O66 O 0.38883 0.9269 0.33872 0.0
O67 O 0.36508 0.95143 0.37561 0.0
C68 C 0.44459 0.95982 0.32691 0.0
C69 C 0.40074 0.9809 0.46644 0.0
C70 C 0.38598 0.98505 0.22626 0.0
O71 O 0.43154 0.94276 0.33125 0.0
O72 O 0.43479 0.97894 0.32792 0.0
O73 O 0.38025 0.99241 0.28322 0.0
O74 O 0.39685 0.96649 0.22701 0.0
C75 C 0.37013 0.93064 0.36833 0.0
O76 O 0.39938 0.99392 0.41608 0.0
O77 O 0.40144 0.95998 0.45291 0.0
In78 In 0.2875 0.15309 0.5398 0.0
O79 O 0.32221 0.14917 0.58986 0.0
O80 O 0.30198 0.11933 0.57736 0.0
C81 C 0.29608 0.19754 0.5204 0.0
C82 C 0.26021 0.15096 0.64715 0.0
C83 C 0.27353 0.14107 0.4158 0.0
O84 O 0.31166 0.1827 0.51637 0.0
O85 O 0.27641 0.18994 0.53257 0.0
O86 O 0.26003 0.14765 0.46083 0.0
O87 O 0.29409 0.13944 0.43389 0.0
C88 C 0.31977 0.12818 0.60141 0.0
O89 O 0.2595 0.1359 0.60204 0.0
O90 O 0.27351 0.16735 0.63601 0.0
In91 In 0.08548 0.03841 0.824 0.0
O92 O 0.09455 0.07486 0.85417 0.0
O93 O 0.12082 0.04987 0.85708 0.0
C94 C 0.04092 0.04397 0.80087 0.0
C95 C 0.08245 0.01638 0.94064 0.0
C96 C 0.09839 0.02026 0.70603 0.0
O97 O 0.05499 0.06004 0.79242 0.0
O98 O 0.04938 0.0252 0.81912 0.0
O99 O 0.10209 0.0105 0.7612 0.0
O100 O 0.08962 0.03984 0.71048 0.0
C101 C 0.11479 0.07003 0.87 0.0
O102 O 0.09082 0.00699 0.88928 0.0
O103 O 0.07484 0.03628 0.93211 0.0
In104 In 0.79434 0.8384 0.03363 0.0
O105 O 0.76634 0.85582 0.09502 0.0
O106 O 0.78131 0.82522 0.13216 0.0
C107 C 0.78134 0.85367 0.91187 0.0
C108 C 0.82845 0.86046 0.09625 0.0
C109 C 0.79926 0.79346 0.01259 0.0
O110 O 0.76744 0.84672 0.95524 0.0
O111 O 0.80192 0.8538 0.93035 0.0
O112 O 0.81598 0.80699 0.01016 0.0
O113 O 0.78018 0.80259 0.02383 0.0
C114 C 0.76774 0.84151 0.1421 0.0
O115 O 0.83088 0.84056 0.0734 0.0
O116 O 0.8096 0.86977 0.08316 0.0
In117 In 0.89954 0.03035 0.82327 0.0
O118 O 0.88659 0.00364 0.89715 0.0
O119 O 0.91351 0.0256 0.9283 0.0
C120 C 0.88893 0.00929 0.70672 0.0
C121 C 0.87129 0.0635 0.8651 0.0
C122 C 0.94372 0.03919 0.80144 0.0
O123 O 0.892 -0.00131 0.76074 0.0
O124 O 0.88973 0.03072 0.71195 0.0
O125 O 0.92865 0.0545 0.79734 0.0
O126 O 0.93655 0.01949 0.81564 0.0
C127 C 0.89998 0.00969 0.9433 0.0
O128 O 0.89061 0.0678 0.84056 0.0
O129 O 0.86527 0.04291 0.86168 0.0
In130 In 0.70292 0.15605 0.57138 0.0
O131 O 0.72837 0.14156 0.6469 0.0
O132 O 0.7097 0.17141 0.67329 0.0
C133 C 0.72469 0.14454 0.45706 0.0
C134 C 0.66884 0.1296 0.6168 0.0
C135 C 0.69444 0.19959 0.54045 0.0
O136 O 0.735 0.14725 0.51184 0.0
O137 O 0.70328 0.14621 0.46058 0.0
O138 O 0.67997 0.18405 0.52969 0.0
O139 O 0.71315 0.19311 0.56512 0.0
C140 C 0.72376 0.15632 0.69091 0.0
O141 O 0.6669 0.15088 0.61076 0.0
O142 O 0.68712 0.1213 0.59415 0.0
In143 In 0.58801 0.96054 0.33192 0.0
O144 O 0.59519 0.98998 0.40335 0.0
O145 O 0.58087 0.95919 0.44242 0.0
C146 C 0.59799 0.97869 0.21163 0.0
C147 C 0.61929 0.92957 0.36596 0.0
C148 C 0.54269 0.95667 0.32167 0.0
O149 O 0.59991 0.98982 0.26534 0.0
O150 O 0.59208 0.95813 0.21864 0.0
O151 O 0.55563 0.93955 0.31519 0.0
O152 O 0.55261 0.97539 0.33207 0.0
C153 C 0.58812 0.97902 0.45382 0.0
O154 O 0.59949 0.9238 0.34769 0.0
O155 O 0.62386 0.95051 0.36056 0.0
In156 In 0.784 0.15271 0.07325 0.0
O157 O 0.81825 0.14378 0.02815 0.0
O158 O 0.79632 0.11621 0.05324 0.0
C159 C 0.79376 0.19692 0.09233 0.0
C160 C 0.75993 0.15383 0.95883 0.0
C161 C 0.767 0.14251 0.19525 0.0
O162 O 0.8083 0.18148 0.10305 0.0
O163 O 0.77447 0.19006 0.07332 0.0
O164 O 0.75492 0.1421 0.14305 0.0
O165 O 0.7878 0.147 0.18566 0.0
C166 C 0.81465 0.12264 0.02594 0.0
O167 O 0.75131 0.14635 0.01252 0.0
O168 O 0.78005 0.16102 0.96388 0.0
In169 In 0.5836 0.0401 0.83251 0.0
O170 O 0.58848 0.07042 0.76304 0.0
O171 O 0.61716 0.05967 0.82016 0.0
C172 C 0.54081 0.05333 0.85868 0.0
C173 C 0.58422 0.01379 0.72302 0.0
C174 C 0.59532 0.02104 0.9506 0.0
O175 O 0.5572 0.0673 0.86042 0.0
O176 O 0.54606 0.03304 0.84451 0.0
O177 O 0.59328 0.0095 0.89777 0.0
O178 O 0.5923 0.04221 0.94358 0.0
C179 C 0.60937 0.07278 0.77554 0.0
O180 O 0.56599 0.02119 0.7483 0.0
O181 O 0.60202 0.01787 0.75634 0.0
In182 In 0.71992 0.84674 0.53914 0.0
O183 O 0.74769 0.85151 0.45993 0.0
O184 O 0.71672 0.83524 0.4319 0.0
C185 C 0.74035 0.86083 0.65193 0.0
C186 C 0.68621 0.87555 0.50621 0.0
C187 C 0.719 0.80211 0.56792 0.0
O188 O 0.7487 0.8647 0.59477 0.0
O189 O 0.72072 0.85196 0.65172 0.0
O190 O 0.70093 0.81345 0.55858 0.0
O191 O 0.73721 0.81347 0.56451 0.0
C192 C 0.73588 0.84265 0.41382 0.0
O193 O 0.68229 0.85586 0.52923 0.0
O194 O 0.70688 0.8815 0.50676 0.0
In195 In 0.90453 0.94973 0.32681 0.0
O196 O 0.90192 0.91204 0.29968 0.0
O197 O 0.87285 0.93314 0.28363 0.0
C198 C 0.94869 0.94345 0.35463 0.0
C199 C 0.90243 0.97252 0.21038 0.0
C200 C 0.89047 0.96739 0.44486 0.0
O201 O 0.93416 0.92788 0.36372 0.0
O202 O 0.94094 0.96208 0.3328 0.0
O203 O 0.89964 0.97924 0.3998 0.0
O204 O 0.88708 0.94682 0.4293 0.0
C205 C 0.88211 0.91388 0.27584 0.0
O206 O 0.88838 0.97618 0.2571 0.0
O207 O 0.91779 0.95816 0.22344 0.0
In208 In 0.70963 0.65905 0.57078 0.0
O209 O 0.67161 0.65381 0.5525 0.0
O210 O 0.69448 0.62621 0.53284 0.0
C211 C 0.71385 0.70419 0.58954 0.0
C212 C 0.73145 0.65768 0.45313 0.0
C213 C 0.72152 0.64478 0.69335 0.0
O214 O 0.69545 0.69532 0.56935 0.0
O215 O 0.7294 0.69019 0.60335 0.0
O216 O 0.73464 0.6429 0.6435 0.0
O217 O 0.70173 0.65212 0.68035 0.0
C218 C 0.67448 0.63403 0.52865 0.0
O219 O 0.73907 0.64726 0.5039 0.0
O220 O 0.71345 0.6689 0.46267 0.0
In221 In 0.5942 0.46738 0.80587 0.0
O222 O 0.57718 0.4773 0.70833 0.0
O223 O 0.61018 0.49089 0.72784 0.0
C224 C 0.60402 0.48996 0.92014 0.0
C225 C 0.62158 0.43359 0.76284 0.0
C226 C 0.55092 0.45723 0.83453 0.0
O227 O 0.60449 0.49945 0.86352 0.0
O228 O 0.60006 0.46882 0.91875 0.0
O229 O 0.56694 0.44327 0.84561 0.0
O230 O 0.55684 0.47629 0.81071 0.0
C231 C 0.59376 0.48892 0.68744 0.0
O232 O 0.60021 0.4325 0.75938 0.0
O233 O 0.62929 0.45086 0.79281 0.0
In234 In 0.78588 0.33821 0.06902 0.0
O235 O 0.75351 0.34581 0.00912 0.0
O236 O 0.78042 0.32731 0.96228 0.0
C237 C 0.77031 0.3497 0.19162 0.0
C238 C 0.81593 0.36799 0.01711 0.0
C239 C 0.79508 0.2938 0.08767 0.0
O240 O 0.75747 0.3482 0.14136 0.0
O241 O 0.79118 0.3464 0.17987 0.0
O242 O 0.8104 0.30884 0.09138 0.0
O243 O 0.77532 0.30113 0.07546 0.0
C244 C 0.76101 0.3363 0.95684 0.0
O245 O 0.82143 0.34804 0.03404 0.0
O246 O 0.7958 0.37371 0.03168 0.0
In247 In 0.90846 0.53481 0.31266 0.0
O248 O 0.89263 0.5097 0.2394 0.0
O249 O 0.92489 0.52407 0.21509 0.0
C250 C 0.89834 0.51382 0.42873 0.0
C251 C 0.87985 0.56673 0.26477 0.0
C252 C 0.95143 0.54648 0.34101 0.0
O253 O 0.90127 0.50307 0.37477 0.0
O254 O 0.89943 0.53526 0.42383 0.0
O255 O 0.93528 0.5607 0.34564 0.0
O256 O 0.94582 0.52658 0.32352 0.0
C257 C 0.90844 0.51173 0.19704 0.0
O258 O 0.90119 0.56869 0.26132 0.0
O259 O 0.87283 0.54964 0.29704 0.0
In260 In 0.70636 0.33937 0.56767 0.0
O261 O 0.67048 0.35022 0.59755 0.0
O262 O 0.69624 0.37574 0.59356 0.0
C263 C 0.69617 0.2961 0.53896 0.0
C264 C 0.72526 0.33604 0.6892 0.0
C265 C 0.72832 0.3495 0.4531 0.0
O266 O 0.68153 0.31183 0.53358 0.0
O267 O 0.71579 0.30225 0.55743 0.0
O268 O 0.7386 0.34693 0.508 0.0
O269 O 0.70686 0.34826 0.45647 0.0
C270 C 0.67606 0.3706 0.6091 0.0
O271 O 0.73323 0.34917 0.64487 0.0
O272 O 0.70857 0.32401 0.67132 0.0
In273 In 0.90527 0.45422 0.81125 0.0
O274 O 0.89407 0.41745 0.82843 0.0
O275 O 0.87013 0.44402 0.84749 0.0
C276 C 0.95047 0.44827 0.80032 0.0
C277 C 0.90488 0.4754 0.92967 0.0
C278 C 0.89542 0.47103 0.68914 0.0
O279 O 0.93679 0.43165 0.79986 0.0
O280 O 0.9414 0.46769 0.80547 0.0
O281 O 0.89541 0.48327 0.74093 0.0
O282 O 0.89924 0.45013 0.69913 0.0
C283 C 0.87486 0.42309 0.85162 0.0
O284 O 0.91454 0.45648 0.92019 0.0
O285 O 0.89552 0.48414 0.87873 0.0
In286 In 0.78759 0.65253 0.065 0.0
O287 O 0.82428 0.64472 0.09443 0.0
O288 O 0.80068 0.6172 0.09273 0.0
C289 C 0.79544 0.69633 0.03523 0.0
C290 C 0.76807 0.65444 0.18565 0.0
C291 C 0.76478 0.64154 0.9526 0.0
O292 O 0.8097 0.6809 0.02122 0.0
O293 O 0.77746 0.68971 0.06382 0.0
O294 O 0.75504 0.64381 0.0084 0.0
O295 O 0.7862 0.64334 0.95401 0.0
C296 C 0.82042 0.62405 0.10743 0.0
O297 O 0.76085 0.64115 0.14065 0.0
O298 O 0.78443 0.66713 0.16896 0.0
In299 In 0.58982 0.54764 0.30336 0.0
O300 O 0.59468 0.58167 0.35674 0.0
O301 O 0.62437 0.5632 0.32809 0.0
C302 C 0.54558 0.55424 0.27734 0.0
C303 C 0.5908 0.52338 0.41714 0.0
C304 C 0.60192 0.53247 0.181 0.0
O305 O 0.55987 0.57033 0.27202 0.0
O306 O 0.55381 0.53516 0.29378 0.0
O307 O 0.59761 0.51912 0.22895 0.0
O308 O 0.60157 0.55341 0.19577 0.0
C309 C 0.61612 0.57997 0.35931 0.0
O310 O 0.60626 0.52146 0.37339 0.0
O311 O 0.57432 0.53597 0.40095 0.0
In312 In 0.28811 0.33872 0.56778 0.0
O313 O 0.2634 0.35882 0.63332 0.0
O314 O 0.27458 0.32609 0.66658 0.0
C315 C 0.2683 0.35019 0.45103 0.0
C316 C 0.32362 0.36143 0.61978 0.0
C317 C 0.29555 0.29458 0.54144 0.0
O318 O 0.25705 0.34561 0.50299 0.0
O319 O 0.28967 0.35002 0.45828 0.0
O320 O 0.30943 0.30986 0.52334 0.0
O321 O 0.27813 0.30154 0.57229 0.0
C322 C 0.26324 0.34387 0.67878 0.0
O323 O 0.3229 0.34 0.61769 0.0
O324 O 0.30741 0.37153 0.59076 0.0
In325 In 0.40681 0.53258 0.31742 0.0
O326 O 0.42419 0.51163 0.39823 0.0
O327 O 0.38806 0.51424 0.402 0.0
C328 C 0.39498 0.51304 0.19967 0.0
C329 C 0.38286 0.56677 0.37234 0.0
C330 C 0.44932 0.54634 0.28904 0.0
O331 O 0.40183 0.50155 0.24898 0.0
O332 O 0.39265 0.53403 0.21096 0.0
O333 O 0.43214 0.55793 0.27162 0.0
O334 O 0.44496 0.5282 0.32027 0.0
C335 C 0.40612 0.50751 0.43006 0.0
O336 O 0.40436 0.56658 0.37195 0.0
O337 O 0.37341 0.5504 0.34219 0.0
In338 In 0.21069 0.65178 0.06735 0.0
O339 O 0.17403 0.64004 0.07691 0.0
O340 O 0.20008 0.61557 0.09144 0.0
C341 C 0.20657 0.69725 0.05697 0.0
C342 C 0.22958 0.65163 0.19006 0.0
C343 C 0.22743 0.64237 0.94518 0.0
O344 O 0.18961 0.68459 0.06868 0.0
O345 O 0.22515 0.68689 0.04865 0.0
O346 O 0.23902 0.63945 0.99782 0.0
O347 O 0.20702 0.64851 0.95448 0.0
C348 C 0.17895 0.61977 0.09304 0.0
O349 O 0.241 0.64663 0.13838 0.0
O350 O 0.20901 0.65646 0.17939 0.0
In351 In 0.09267 0.4588 0.81597 0.0
O352 O 0.10173 0.48976 0.88028 0.0
O353 O 0.08251 0.46269 0.92403 0.0
C354 C 0.10233 0.47582 0.69392 0.0
C355 C 0.12417 0.42824 0.85826 0.0
C356 C 0.04807 0.45008 0.80069 0.0
O357 O 0.10147 0.48816 0.74548 0.0
O358 O 0.09918 0.45482 0.70402 0.0
O359 O 0.06294 0.43469 0.79356 0.0
O360 O 0.0557 0.46962 0.81452 0.0
C361 C 0.09204 0.48174 0.93164 0.0
O362 O 0.10359 0.42321 0.84765 0.0
O363 O 0.12886 0.44864 0.84389 0.0
In364 In 0.29264 0.65507 0.56952 0.0
O365 O 0.26688 0.63824 0.49956 0.0
O366 O 0.28318 0.66886 0.4674 0.0
C367 C 0.2716 0.64519 0.68618 0.0
C368 C 0.3262 0.62788 0.5249 0.0
C369 C 0.30209 0.69907 0.59272 0.0
O370 O 0.26087 0.64934 0.63297 0.0
O371 O 0.29301 0.64511 0.68038 0.0
O372 O 0.31583 0.6834 0.60886 0.0
O373 O 0.28382 0.69257 0.56552 0.0
C374 C 0.26962 0.65285 0.45385 0.0
O375 O 0.32872 0.64911 0.53105 0.0
O376 O 0.30755 0.62012 0.5463 0.0
In377 In 0.09171 0.53964 0.31736 0.0
O378 O 0.10296 0.57536 0.2879 0.0
O379 O 0.12829 0.55008 0.29562 0.0
C380 C 0.04783 0.54912 0.34221 0.0
C381 C 0.09029 0.52004 0.19656 0.0
C382 C 0.10149 0.5181 0.43283 0.0
O383 O 0.06336 0.56366 0.35212 0.0
O384 O 0.05445 0.52996 0.32114 0.0
O385 O 0.09999 0.50772 0.37776 0.0
O386 O 0.09924 0.53948 0.42935 0.0
C387 C 0.12373 0.57044 0.28044 0.0
O388 O 0.10106 0.5112 0.24475 0.0
O389 O 0.0797 0.53818 0.20992 0.0
In390 In 0.20891 0.34507 0.06875 0.0
O391 O 0.17192 0.35583 0.05995 0.0
O392 O 0.19743 0.38124 0.05041 0.0
C393 C 0.20919 0.2994 0.07457 0.0
C394 C 0.22521 0.34682 0.94381 0.0
C395 C 0.22534 0.35398 0.19092 0.0
O396 O 0.19081 0.31055 0.06871 0.0
O397 O 0.22694 0.31134 0.0799 0.0
O398 O 0.23658 0.35839 0.13845 0.0
O399 O 0.20537 0.34654 0.18148 0.0
C400 C 0.17643 0.3765 0.04707 0.0
O401 O 0.23758 0.3518 0.9937 0.0
O402 O 0.20496 0.34151 0.95747 0.0
In403 In 0.4089 0.45223 0.8197 0.0
O404 O 0.40362 0.41485 0.79212 0.0
O405 O 0.37461 0.43663 0.7934 0.0
C406 C 0.45382 0.44967 0.84106 0.0
C407 C 0.4078 0.47294 0.70015 0.0
C408 C 0.39684 0.47069 0.93818 0.0
O409 O 0.44098 0.43247 0.8468 0.0
O410 O 0.44398 0.46812 0.82592 0.0
O411 O 0.39444 0.48107 0.88339 0.0
O412 O 0.40393 0.45045 0.93302 0.0
C413 C 0.38271 0.41729 0.7797 0.0
O414 O 0.39506 0.47919 0.74765 0.0
O415 O 0.42154 0.45711 0.71363 0.0
C416 C 0.13517 0.1073 0.88466 0.0
C417 C 0.12912 0.08562 0.9102 0.0
C418 C 0.1522 0.09243 0.01059 0.0
C419 C 0.15753 0.11446 0.98638 0.0
N420 N 0.15072 0.14479 0.90658 0.0
N421 N 0.12684 0.06002 0.00468 0.0
C422 C 0.1478 0.12258 0.92561 0.0
C423 C 0.13623 0.07884 0.97523 0.0
N424 N 0.12993 0.11282 0.81999 0.0
N425 N 0.16254 0.0844 0.0672 0.0
H426 H 0.11437 0.05018 0.98165 0.0
H427 H 0.12962 0.05548 0.05436 0.0
H428 H 0.17308 0.09446 0.0971 0.0
H429 H 0.16164 0.06744 0.08249 0.0
H430 H 0.1362 0.12722 0.79569 0.0
H431 H 0.12084 0.10199 0.78837 0.0
H432 H 0.14198 0.15224 0.86686 0.0
H433 H 0.16033 0.15651 0.93356 0.0
C434 C 0.15577 0.91077 0.25641 0.0
C435 C 0.13381 0.91636 0.23209 0.0
C436 C 0.14257 0.89788 0.1246 0.0
C437 C 0.16369 0.89048 0.15119 0.0
N438 N 0.18974 0.88793 0.24502 0.0
N439 N 0.10566 0.91539 0.14383 0.0
C440 C 0.17026 0.89663 0.21747 0.0
C441 C 0.12698 0.90988 0.16644 0.0
N442 N 0.16286 0.91903 0.31695 0.0
N443 N 0.13796 0.89433 0.05834 0.0
H444 H 0.09445 0.92589 0.16996 0.0
H445 H 0.09853 0.9088 0.10032 0.0
H446 H 0.14926 0.88599 0.02628 0.0
H447 H 0.12398 0.90117 0.03341 0.0
H448 H 0.17973 0.91851 0.33308 0.0
H449 H 0.15216 0.92766 0.35003 0.0
H450 H 0.1936 0.88876 0.29576 0.0
H451 H 0.20168 0.8786 0.21835 0.0
C452 C 0.33303 0.91269 0.39946 0.0
C453 C 0.35712 0.91266 0.40396 0.0
C454 C 0.35522 0.88166 0.48655 0.0
C455 C 0.33115 0.88369 0.48772 0.0
N456 N 0.29716 0.90393 0.45292 0.0
N457 N 0.39099 0.90045 0.46394 0.0
C458 C 0.32005 0.90012 0.44674 0.0
C459 C 0.36828 0.89791 0.45029 0.0
N460 N 0.32256 0.92409 0.3483 0.0
N461 N 0.36572 0.86446 0.52099 0.0
H462 H 0.40136 0.91265 0.44159 0.0
H463 H 0.39918 0.89193 0.50282 0.0
H464 H 0.357 0.85326 0.55242 0.0
H465 H 0.3829 0.86044 0.51496 0.0
H466 H 0.30519 0.92278 0.33821 0.0
H467 H 0.33162 0.9329 0.31155 0.0
H468 H 0.28881 0.91748 0.42975 0.0
H469 H 0.28665 0.89465 0.48482 0.0
C470 C 0.34449 0.10492 0.76375 0.0
C471 C 0.36142 0.08999 0.73844 0.0
C472 C 0.35121 0.10042 0.6233 0.0
C473 C 0.33468 0.1157 0.64834 0.0
N474 N 0.31754 0.13546 0.74157 0.0
N475 N 0.38144 0.07422 0.64217 0.0
C476 C 0.33189 0.11884 0.71844 0.0
C477 C 0.36506 0.08808 0.66828 0.0
N478 N 0.34008 0.10531 0.83091 0.0
N479 N 0.35405 0.09773 0.55591 0.0
H480 H 0.39262 0.06438 0.67061 0.0
H481 H 0.39262 0.06438 0.67061 0.0
H482 H 0.34447 0.10667 0.52057 0.0
H483 H 0.36602 0.08651 0.5356 0.0
H484 H 0.32623 0.11368 0.8522 0.0
H485 H 0.34963 0.09604 0.86557 0.0
H486 H 0.31642 0.14032 0.79149 0.0
H487 H 0.3076 0.14558 0.71018 0.0
C488 C 0.83736 0.8726 0.21272 0.0
C489 C 0.84443 0.87047 0.14521 0.0
C490 C 0.8803 0.88957 0.17253 0.0
C491 C 0.87104 0.89579 0.2358 0.0
N492 N 0.84082 0.89316 0.31717 0.0
N493 N 0.87236 0.87699 0.05921 0.0
C494 C 0.8496 0.88719 0.25631 0.0
C495 C 0.86602 0.87863 0.1248 0.0
N496 N 0.81952 0.85988 0.2358 0.0
N497 N 0.90256 0.89423 0.15763 0.0
H498 H 0.86247 0.86868 0.02337 0.0
H499 H 0.88662 0.88514 0.03939 0.0
H500 H 0.91348 0.9029 0.18978 0.0
H501 H 0.91075 0.88799 0.11522 0.0
H502 H 0.81479 0.8591 0.28595 0.0
H503 H 0.81093 0.8482 0.20572 0.0
H504 H 0.82404 0.88986 0.33119 0.0
H505 H 0.85007 0.90239 0.3526 0.0
C506 C 0.86699 0.09135 0.96006 0.0
C507 C 0.85767 0.08056 0.90239 0.0
C508 C 0.81999 0.09651 0.92769 0.0
C509 C 0.82928 0.10738 0.98525 0.0
N510 N 0.86186 0.11794 0.05187 0.0
N511 N 0.82704 0.07635 0.82354 0.0
C512 C 0.8529 0.10575 0.99978 0.0
C513 C 0.83459 0.08402 0.88428 0.0
N514 N 0.88896 0.08688 0.97919 0.0
N515 N 0.79725 0.09845 0.91376 0.0
H516 H 0.83753 0.06776 0.78974 0.0
H517 H 0.81111 0.08012 0.80355 0.0
H518 H 0.7864 0.10951 0.93906 0.0
H519 H 0.78876 0.0885 0.87862 0.0
H520 H 0.89582 0.09174 0.02498 0.0
H521 H 0.90017 0.07676 0.95191 0.0
H522 H 0.87926 0.12027 0.05945 0.0
H523 H 0.85188 0.12683 0.08629 0.0
C524 C 0.6411 0.09738 0.62612 0.0
C525 C 0.65258 0.11589 0.65647 0.0
C526 C 0.63387 0.10751 0.76364 0.0
C527 C 0.62412 0.08777 0.73478 0.0
N528 N 0.62104 0.06173 0.64163 0.0
N529 N 0.66277 0.13683 0.75641 0.0
C530 C 0.62835 0.08214 0.66673 0.0
C531 C 0.64967 0.1206 0.72582 0.0
N532 N 0.64185 0.09477 0.5582 0.0
N533 N 0.62755 0.11408 0.82658 0.0
H534 H 0.67455 0.1469 0.73107 0.0
H535 H 0.66343 0.13903 0.80803 0.0
H536 H 0.61624 0.1047 0.85601 0.0
H537 H 0.63202 0.12971 0.84757 0.0
H538 H 0.63183 0.0831 0.53221 0.0
H539 H 0.65102 0.10569 0.52697 0.0
H540 H 0.62569 0.05551 0.59481 0.0
H541 H 0.61187 0.05 0.66987 0.0
C542 C 0.65646 0.90893 0.36821 0.0
C543 C 0.63529 0.91373 0.39891 0.0
C544 C 0.648 0.89486 0.50207 0.0
C545 C 0.66862 0.8888 0.46984 0.0
N546 N 0.68986 0.88497 0.36666 0.0
N547 N 0.60909 0.90814 0.49095 0.0
C548 C 0.6722 0.89449 0.4014 0.0
C549 C 0.63042 0.90558 0.46442 0.0
N550 N 0.66158 0.91815 0.30718 0.0
N551 N 0.64566 0.89146 0.56938 0.0
H552 H 0.59592 0.91665 0.46657 0.0
H553 H 0.60388 0.90034 0.53517 0.0
H554 H 0.65831 0.88394 0.59868 0.0
H555 H 0.63212 0.89788 0.59733 0.0
H556 H 0.67787 0.91775 0.28647 0.0
H557 H 0.64987 0.92742 0.27882 0.0
H558 H 0.69192 0.88657 0.31515 0.0
H559 H 0.70115 0.87341 0.38782 0.0
C560 C 0.64719 0.63138 0.43174 0.0
C561 C 0.65674 0.62165 0.49065 0.0
C562 C 0.64087 0.58447 0.46094 0.0
C563 C 0.63009 0.59443 0.40416 0.0
N564 N 0.61968 0.62809 0.34179 0.0
N565 N 0.65814 0.59072 0.56948 0.0
C566 C 0.63201 0.61818 0.392 0.0
C567 C 0.6522 0.59871 0.50762 0.0
N568 N 0.65384 0.65258 0.41085 0.0
N569 N 0.64067 0.56136 0.47015 0.0
H570 H 0.66608 0.60093 0.60533 0.0
H571 H 0.65312 0.57486 0.58778 0.0
H572 H 0.63178 0.55014 0.43958 0.0
H573 H 0.6506 0.55308 0.50585 0.0
H574 H 0.64962 0.65931 0.36426 0.0
H575 H 0.66516 0.66286 0.43725 0.0
H576 H 0.61826 0.64569 0.33584 0.0
H577 H 0.60958 0.61881 0.30861 0.0
C578 C 0.63991 0.39532 0.74963 0.0
C579 C 0.63626 0.41767 0.72522 0.0
C580 C 0.65605 0.40806 0.62086 0.0
C581 C 0.66143 0.38637 0.64766 0.0
N582 N 0.66269 0.36102 0.74319 0.0
N583 N 0.64356 0.44672 0.64216 0.0
C584 C 0.65442 0.38035 0.71349 0.0
C585 C 0.64521 0.42449 0.66224 0.0
N586 N 0.62947 0.38836 0.80725 0.0
N587 N 0.66047 0.41261 0.55504 0.0
H588 H 0.63532 0.45922 0.67015 0.0
H589 H 0.65184 0.45322 0.60024 0.0
H590 H 0.66815 0.40082 0.52308 0.0
H591 H 0.65469 0.42716 0.53046 0.0
H592 H 0.62929 0.37145 0.82328 0.0
H593 H 0.61962 0.39922 0.83683 0.0
H594 H 0.66028 0.35721 0.79357 0.0
H595 H 0.6738 0.34975 0.71957 0.0
C596 C 0.83789 0.40271 0.86962 0.0
C597 C 0.86044 0.40735 0.89093 0.0
C598 C 0.85294 0.38819 0.99793 0.0
C599 C 0.83097 0.38218 0.97468 0.0
N600 N 0.80444 0.37908 0.88266 0.0
N601 N 0.89084 0.40162 0.97127 0.0
C602 C 0.82388 0.38825 0.90903 0.0
C603 C 0.86846 0.39904 0.9536 0.0
N604 N 0.82986 0.41207 0.81158 0.0
N605 N 0.85856 0.38457 0.06346 0.0
H606 H 0.90264 0.41072 0.94305 0.0
H607 H 0.89816 0.39346 0.01223 0.0
H608 H 0.84749 0.37692 0.0976 0.0
H609 H 0.87328 0.39098 0.08566 0.0
H610 H 0.81273 0.41173 0.79789 0.0
H611 H 0.8401 0.42135 0.77873 0.0
H612 H 0.79966 0.38092 0.8328 0.0
H613 H 0.79416 0.36768 0.90869 0.0
C614 C 0.84383 0.61728 0.21062 0.0
C615 C 0.83645 0.60983 0.14641 0.0
C616 C 0.85539 0.57312 0.16394 0.0
C617 C 0.86448 0.58141 0.22522 0.0
N618 N 0.87048 0.61245 0.30214 0.0
N619 N 0.83828 0.58241 0.05693 0.0
C620 C 0.85976 0.60388 0.24689 0.0
C621 C 0.84305 0.58819 0.1217 0.0
N622 N 0.83454 0.63637 0.23902 0.0
N623 N 0.85837 0.5508 0.14629 0.0
H624 H 0.82956 0.5932 0.02427 0.0
H625 H 0.84476 0.56791 0.03361 0.0
H626 H 0.86787 0.53935 0.17463 0.0
H627 H 0.85005 0.54314 0.10618 0.0
H628 H 0.8374 0.6411 0.28851 0.0
H629 H 0.8222 0.64636 0.21573 0.0
H630 H 0.86978 0.62959 0.3157 0.0
H631 H 0.88147 0.60277 0.3318 0.0
C632 C 0.35761 0.38686 0.63006 0.0
C633 C 0.34036 0.37376 0.66117 0.0
C634 C 0.35181 0.38807 0.77146 0.0
C635 C 0.36959 0.40051 0.74055 0.0
N636 N 0.39236 0.40868 0.64262 0.0
N637 N 0.32317 0.3585 0.7616 0.0
C638 C 0.37346 0.39887 0.6705 0.0
C639 C 0.33819 0.37322 0.73201 0.0
N640 N 0.35848 0.38824 0.56182 0.0
N641 N 0.34759 0.39093 0.8382 0.0
H642 H 0.31214 0.34801 0.73475 0.0
H643 H 0.32256 0.35553 0.81288 0.0
H644 H 0.35799 0.40078 0.86918 0.0
H645 H 0.33315 0.38468 0.86223 0.0
H646 H 0.3687 0.3998 0.53606 0.0
H647 H 0.34786 0.37875 0.53057 0.0
H648 H 0.3974 0.40606 0.59331 0.0
H649 H 0.40412 0.41816 0.66987 0.0
C650 C 0.34419 0.61655 0.41648 0.0
C651 C 0.34235 0.61355 0.48691 0.0
C652 C 0.36905 0.58144 0.48252 0.0
C653 C 0.36965 0.58347 0.41169 0.0
N654 N 0.35683 0.6012 0.30986 0.0
N655 N 0.35149 0.59286 0.5874 0.0
C656 C 0.35702 0.60061 0.37828 0.0
C657 C 0.35442 0.59595 0.5201 0.0
N658 N 0.33365 0.63463 0.38609 0.0
N659 N 0.38247 0.56558 0.5137 0.0
H660 H 0.34199 0.604 0.61708 0.0
H661 H 0.35752 0.57881 0.6138 0.0
H662 H 0.39222 0.55367 0.48778 0.0
H663 H 0.38495 0.56479 0.56515 0.0
H664 H 0.33645 0.63938 0.33665 0.0
H665 H 0.32282 0.64586 0.41099 0.0
H666 H 0.34585 0.61132 0.28176 0.0
H667 H 0.3669 0.59051 0.28041 0.0
C668 C 0.13148 0.60553 0.21119 0.0
C669 C 0.13969 0.58505 0.24047 0.0
C670 C 0.17071 0.58407 0.15828 0.0
C671 C 0.16258 0.60462 0.12955 0.0
N672 N 0.1297 0.62845 0.11096 0.0
N673 N 0.17244 0.56082 0.25777 0.0
C674 C 0.14131 0.61351 0.15076 0.0
C675 C 0.16082 0.57591 0.21848 0.0
N676 N 0.11552 0.61835 0.24371 0.0
N677 N 0.1869 0.57157 0.12571 0.0
H678 H 0.16733 0.55699 0.30645 0.0
H679 H 0.18875 0.55495 0.24637 0.0
H680 H 0.19259 0.57589 0.07791 0.0
H681 H 0.19212 0.55545 0.14154 0.0
H682 H 0.11024 0.63433 0.22691 0.0
H683 H 0.11025 0.61465 0.29233 0.0
H684 H 0.11327 0.63412 0.12178 0.0
H685 H 0.13505 0.63232 0.06252 0.0
C686 C 0.15946 0.42285 0.9291 0.0
C687 C 0.13949 0.41345 0.89981 0.0
C688 C 0.13996 0.38275 0.98323 0.0
C689 C 0.16011 0.39192 0.01143 0.0
N690 N 0.18259 0.42568 0.02886 0.0
N691 N 0.11691 0.3795 0.88369 0.0
C692 C 0.16793 0.41353 0.98966 0.0
C693 C 0.13141 0.39198 0.9226 0.0
N694 N 0.17156 0.43931 0.89629 0.0
N695 N 0.12811 0.36624 0.01653 0.0
H696 H 0.11272 0.38435 0.83503 0.0
H697 H 0.11191 0.36293 0.89552 0.0
H698 H 0.13234 0.36127 0.06505 0.0
H699 H 0.11233 0.36017 0.00057 0.0
H700 H 0.18713 0.44554 0.91344 0.0
H701 H 0.16802 0.44399 0.8471 0.0
H702 H 0.18738 0.44242 0.01835 0.0
H703 H 0.18734 0.42009 0.07644 0.0
C704 C 0.22736 0.17088 0.7974 0.0
C705 C 0.23177 0.1529 0.84349 0.0
C706 C 0.25227 0.13168 0.75674 0.0
C707 C 0.24759 0.1495 0.71075 0.0
N708 N 0.22576 0.18274 0.6813 0.0
N709 N 0.24161 0.11327 0.86034 0.0
C710 C 0.23353 0.16804 0.7293 0.0
C711 C 0.2422 0.1324 0.8212 0.0
N712 N 0.21832 0.19109 0.81878 0.0
N713 N 0.26717 0.11463 0.74041 0.0
H714 H 0.23337 0.1127 0.90651 0.0
H715 H 0.247 0.09731 0.84375 0.0
H716 H 0.27469 0.11309 0.69346 0.0
H717 H 0.27344 0.10298 0.77522 0.0
H718 H 0.21762 0.20568 0.78914 0.0
H719 H 0.21294 0.194 0.86753 0.0
H720 H 0.21357 0.19528 0.69035 0.0
H721 H 0.22977 0.18084 0.63074 0.0
C722 C 0.06363 -0.00055 0.1146 0.0
C723 C 0.08423 0.99065 0.14106 0.0
C724 C 0.10391 -0.00124 0.03589 0.0
C725 C 0.08287 0.00586 0.00759 0.0
N726 N 0.04192 0.00873 0.01519 0.0
N727 N 0.1226 0.977 0.12258 0.0
C728 C 0.06247 0.00502 0.04562 0.0
C729 C 0.10401 0.9889 0.10057 0.0
N730 N 0.04539 0.00312 0.15583 0.0
N731 N 0.12399 0.0024 0.00275 0.0
H732 H 0.12346 0.96942 0.16957 0.0
H733 H 0.13635 0.97285 0.09189 0.0
H734 H 0.125 0.00976 0.95545 0.0
H735 H 0.1399 7e-05 0.02488 0.0
H736 H 0.03071 0.01171 0.14088 0.0
H737 H 0.04571 -0.00061 0.20685 0.0
H738 H 0.02631 0.00616 0.0388 0.0
H739 H 0.04037 0.0122 0.96422 0.0
C740 C 0.22313 0.82302 0.32122 0.0
C741 C 0.23179 0.83849 0.27221 0.0
C742 C 0.25961 0.85263 0.35294 0.0
C743 C 0.24964 0.83886 0.40324 0.0
N744 N 0.2193 0.81414 0.43922 0.0
N745 N 0.2531 0.87315 0.25052 0.0
C746 C 0.23059 0.82501 0.38858 0.0
C747 C 0.24852 0.85482 0.29062 0.0
N748 N 0.2086 0.80581 0.30369 0.0
N749 N 0.28029 0.86273 0.36317 0.0
H750 H 0.24419 0.87664 0.20663 0.0
H751 H 0.26374 0.88647 0.26531 0.0
H752 H 0.28965 0.86047 0.40688 0.0
H753 H 0.28923 0.87116 0.32547 0.0
H754 H 0.20426 0.79253 0.33587 0.0
H755 H 0.20219 0.80348 0.2558 0.0
H756 H 0.20376 0.80585 0.43267 0.0
H757 H 0.22441 0.8152 0.48911 0.0
C758 C 0.38031 0.0101 0.62608 0.0
C759 C 0.39906 0.0057 0.6692 0.0
C760 C 0.41766 0.98291 0.58198 0.0
C761 C 0.40003 0.98915 0.53656 0.0
N762 N 0.36413 0.0079 0.51452 0.0
N763 N 0.43603 0.98917 0.68912 0.0
C764 C 0.38121 0.00251 0.55846 0.0
C765 C 0.4178 0.99237 0.64743 0.0
N766 N 0.36161 0.02147 0.64992 0.0
N767 N 0.43414 0.96769 0.56313 0.0
H768 H 0.436 0.99413 0.73922 0.0
H769 H 0.45165 0.9826 0.67363 0.0
H770 H 0.43564 0.9611 0.51508 0.0
H771 H 0.44565 0.96026 0.59623 0.0
H772 H 0.34634 0.02319 0.62404 0.0
H773 H 0.3607 0.0284 0.69776 0.0
H774 H 0.35165 0.02011 0.52359 0.0
H775 H 0.36261 0.00058 0.46726 0.0
C776 C 0.75926 0.86353 0.24729 0.0
C777 C 0.7559 0.84389 0.20686 0.0
C778 C 0.73983 0.82331 0.30216 0.0
C779 C 0.74258 0.84311 0.34241 0.0
N780 N 0.74832 0.88399 0.34708 0.0
N781 N 0.73726 0.8078 0.19015 0.0
C782 C 0.75035 0.86381 0.31323 0.0
C783 C 0.74434 0.82464 0.23264 0.0
N784 N 0.77192 0.88149 0.2245 0.0
N785 N 0.73395 0.80292 0.33045 0.0
H786 H 0.73985 0.8086 0.13856 0.0
H787 H 0.72677 0.79437 0.20486 0.0
H788 H 0.7304 0.80095 0.38102 0.0
H789 H 0.73446 0.78748 0.30473 0.0
H790 H 0.77747 0.89469 0.25536 0.0
H791 H 0.77857 0.88247 0.17639 0.0
H792 H 0.75134 0.8998 0.32504 0.0
H793 H 0.74124 0.88533 0.39468 0.0
C794 C 0.90082 0.97616 0.02144 0.0
C795 C 0.89898 -0.0 0.01154 0.0
C796 C 0.89955 0.00617 0.13279 0.0
C797 C 0.89988 0.98226 0.14259 0.0
N798 N 0.89377 0.94471 0.09668 0.0
N799 N 0.88973 0.0369 0.05752 0.0
C800 C 0.89845 0.96728 0.08699 0.0
C801 C 0.89638 0.01483 0.06718 0.0
N802 N 0.9057 0.96203 0.96898 0.0
N803 N 0.903 0.02061 0.18543 0.0
H804 H 0.88559 0.04323 0.01038 0.0
H805 H 0.88567 0.04797 0.09651 0.0
H806 H 0.90553 0.01491 0.23427 0.0
H807 H 0.90532 0.03812 0.1796 0.0
H808 H 0.90952 0.94479 0.97504 0.0
H809 H 0.90803 0.96788 0.92022 0.0
H810 H 0.89048 0.93339 0.05769 0.0
H811 H 0.89048 0.93797 0.14391 0.0
C812 C 0.73856 0.13456 0.86508 0.0
C813 C 0.74782 0.15466 0.89395 0.0
C814 C 0.74322 0.17494 0.78771 0.0
C815 C 0.73272 0.15535 0.75993 0.0
N816 N 0.71562 0.11825 0.77665 0.0
N817 N 0.75325 0.1954 0.88856 0.0
C818 C 0.72902 0.13562 0.7998 0.0
C819 C 0.74842 0.17529 0.85693 0.0
N820 N 0.73968 0.11423 0.89841 0.0
N821 N 0.74911 0.19287 0.7475 0.0
H822 H 0.75615 0.19642 0.93995 0.0
H823 H 0.7519 0.21128 0.86549 0.0
H824 H 0.74618 0.19302 0.69606 0.0
H825 H 0.75891 0.20658 0.76391 0.0
H826 H 0.73602 0.09862 0.87599 0.0
H827 H 0.74582 0.1126 0.94699 0.0
H828 H 0.71012 0.10479 0.80662 0.0
H829 H 0.70814 0.11824 0.7294 0.0
C830 C 0.57512 0.01745 0.6011 0.0
C831 C 0.58512 0.00471 0.65418 0.0
C832 C 0.60025 0.97731 0.57332 0.0
C833 C 0.58794 0.98854 0.52187 0.0
N834 N 0.56001 0.01658 0.48868 0.0
N835 N 0.60414 0.97061 0.69231 0.0
C836 C 0.57435 0.00786 0.53619 0.0
C837 C 0.5969 0.9841 0.64075 0.0
N838 N 0.56745 0.0392 0.61148 0.0
N839 N 0.6157 0.9607 0.55749 0.0
H840 H 0.60156 0.97482 0.74242 0.0
H841 H 0.61076 0.95428 0.6855 0.0
H842 H 0.61907 0.9558 0.50834 0.0
H843 H 0.62672 0.95337 0.59221 0.0
H844 H 0.56236 0.04994 0.57273 0.0
H845 H 0.56846 0.04756 0.65731 0.0
H846 H 0.5478 0.029 0.49913 0.0
H847 H 0.5588 0.01 0.44038 0.0
C848 C 0.74728 0.63525 0.35646 0.0
C849 C 0.74212 0.65663 0.3862 0.0
C850 C 0.75109 0.676 0.28092 0.0
C851 C 0.75856 0.65497 0.25382 0.0
N852 N 0.76864 0.61542 0.27089 0.0
N853 N 0.74356 0.69782 0.38085 0.0
C854 C 0.75806 0.63479 0.29297 0.0
C855 C 0.74532 0.67716 0.3496 0.0
N856 N 0.74082 0.61537 0.38673 0.0
N857 N 0.74862 0.69467 0.24055 0.0
H858 H 0.73967 0.69947 0.43137 0.0
H859 H 0.74816 0.71317 0.35835 0.0
H860 H 0.75205 0.69438 0.18938 0.0
H861 H 0.74098 0.70978 0.25634 0.0
H862 H 0.74206 0.59951 0.36346 0.0
H863 H 0.73208 0.61478 0.43206 0.0
H864 H 0.77082 0.60101 0.30076 0.0
H865 H 0.77724 0.61446 0.22535 0.0
C866 C 0.59434 0.49055 0.49708 0.0
C867 C 0.59311 0.5144 0.486 0.0
C868 C 0.59537 0.52157 0.60703 0.0
C869 C 0.59458 0.49774 0.61827 0.0
N870 N 0.59293 0.45915 0.57611 0.0
N871 N 0.59146 0.55296 0.5293 0.0
C872 C 0.59404 0.4821 0.56383 0.0
C873 C 0.59343 0.53001 0.54067 0.0
N874 N 0.59581 0.47601 0.44373 0.0
N875 N 0.59814 0.53615 0.65987 0.0
H876 H 0.59212 0.56029 0.48195 0.0
H877 H 0.58827 0.56491 0.56657 0.0
H878 H 0.59799 0.53084 0.70961 0.0
H879 H 0.60197 0.55339 0.65479 0.0
H880 H 0.59948 0.4587 0.44778 0.0
H881 H 0.59452 0.48139 0.3942 0.0
H882 H 0.58959 0.44693 0.53974 0.0
H883 H 0.59451 0.45209 0.62371 0.0
C884 C 0.74097 0.31547 0.7886 0.0
C885 C 0.73342 0.33608 0.75889 0.0
C886 C 0.74238 0.35707 0.86135 0.0
C887 C 0.74884 0.33623 0.89224 0.0
N888 N 0.74874 0.2951 0.89149 0.0
N889 N 0.72117 0.37518 0.77224 0.0
C890 C 0.74643 0.31525 0.85767 0.0
C891 C 0.73241 0.35652 0.79677 0.0
N892 N 0.7438 0.29635 0.75035 0.0
N893 N 0.7468 0.37749 0.89171 0.0
H894 H 0.71329 0.37544 0.72555 0.0
H895 H 0.71771 0.38961 0.80086 0.0
H896 H 0.75407 0.37894 0.93901 0.0
H897 H 0.74504 0.39312 0.86747 0.0
H898 H 0.75155 0.28152 0.76792 0.0
H899 H 0.7403 0.29591 0.69922 0.0
H900 H 0.74516 0.27926 0.87042 0.0
H901 H 0.75189 0.29438 0.9428 0.0
C902 C 0.91041 0.51751 0.07307 0.0
C903 C 0.90659 0.50271 0.12834 0.0
C904 C 0.89627 0.47213 0.05133 0.0
C905 C 0.90387 0.48567 0.99691 0.0
N906 N 0.92167 0.52026 0.95709 0.0
N907 N 0.89926 0.46471 0.16987 0.0
C908 C 0.91184 0.50814 0.00788 0.0
C909 C 0.90037 0.47966 0.11753 0.0
N910 N 0.91161 0.5406 0.08211 0.0
N911 N 0.88435 0.45251 0.03975 0.0
H912 H 0.90287 0.46935 0.21907 0.0
H913 H 0.897 0.44721 0.1635 0.0
H914 H 0.87981 0.44726 0.99176 0.0
H915 H 0.87672 0.44298 0.07763 0.0
H916 H 0.91209 0.55213 0.04247 0.0
H917 H 0.90948 0.54844 0.12845 0.0
H918 H 0.92996 0.53577 0.96464 0.0
H919 H 0.92344 0.51392 0.90867 0.0
C920 C 0.25656 0.36502 0.78632 0.0
C921 C 0.25109 0.34671 0.74276 0.0
C922 C 0.22901 0.32826 0.83105 0.0
C923 C 0.23358 0.34708 0.874 0.0
N924 N 0.24607 0.38614 0.88563 0.0
N925 N 0.2273 0.31441 0.71714 0.0
C926 C 0.24572 0.36631 0.84968 0.0
C927 C 0.2358 0.32942 0.76317 0.0
N928 N 0.2728 0.38064 0.7688 0.0
N929 N 0.21919 0.30879 0.85532 0.0
H930 H 0.23155 0.31512 0.6665 0.0
H931 H 0.21426 0.30291 0.72769 0.0
H932 H 0.21379 0.30681 0.9045 0.0
H933 H 0.2182 0.2937 0.82798 0.0
H934 H 0.27941 0.39256 0.80218 0.0
H935 H 0.28108 0.38059 0.72272 0.0
H936 H 0.25274 0.40134 0.86705 0.0
H937 H 0.23752 0.38813 0.93098 0.0
C938 C 0.39188 0.48035 0.5179 0.0
C939 C 0.40641 0.49864 0.49943 0.0
C940 C 0.42223 0.49969 0.61298 0.0
C941 C 0.40641 0.48276 0.63252 0.0
N942 N 0.37368 0.45938 0.60786 0.0
N943 N 0.4316 0.52929 0.5337 0.0
C944 C 0.39039 0.47388 0.58629 0.0
C945 C 0.42062 0.50928 0.54803 0.0
N946 N 0.38038 0.46843 0.46978 0.0
N947 N 0.43895 0.50648 0.65626 0.0
H948 H 0.43039 0.53764 0.48787 0.0
H949 H 0.44005 0.53898 0.5696 0.0
H950 H 0.44005 0.50062 0.70544 0.0
H951 H 0.45268 0.51664 0.64194 0.0
H952 H 0.37142 0.45346 0.47935 0.0
H953 H 0.38154 0.47226 0.41897 0.0
H954 H 0.36015 0.45407 0.57797 0.0
H955 H 0.37229 0.45406 0.65746 0.0
C956 C 0.24325 0.66933 0.36905 0.0
C957 C 0.25804 0.65146 0.38853 0.0
C958 C 0.25155 0.63215 0.28163 0.0
C959 C 0.23921 0.65149 0.25864 0.0
N960 N 0.22542 0.68988 0.27849 0.0
N961 N 0.27892 0.61723 0.361 0.0
C962 C 0.23551 0.67043 0.30191 0.0
C963 C 0.26289 0.63319 0.34431 0.0
N964 N 0.23598 0.68487 0.41543 0.0
N965 N 0.25145 0.61237 0.2454 0.0
H966 H 0.28739 0.61712 0.40683 0.0
H967 H 0.28516 0.60519 0.32732 0.0
H968 H 0.24252 0.6105 0.20066 0.0
H969 H 0.25819 0.59709 0.26315 0.0
H970 H 0.22319 0.69679 0.40616 0.0
H971 H 0.24112 0.68446 0.46537 0.0
H972 H 0.22506 0.70513 0.30517 0.0
H973 H 0.21895 0.69155 0.23037 0.0
C974 C 0.11204 0.50828 0.09461 0.0
C975 C 0.09086 0.51061 0.12826 0.0
C976 C 0.07064 0.49842 0.02748 0.0
C977 C 0.09187 0.49336 0.99694 0.0
N978 N 0.13281 0.48986 0.0051 0.0
N979 N 0.05013 0.50482 0.13084 0.0
C980 C 0.11263 0.49738 0.03129 0.0
C981 C 0.07015 0.50492 0.09577 0.0
N982 N 0.13146 0.51727 0.12175 0.0
N983 N 0.05103 0.49764 0.99058 0.0
H984 H 0.0491 0.50909 0.18138 0.0
H985 H 0.03489 0.49849 0.11161 0.0
H986 H 0.05084 0.49348 0.93987 0.0
H987 H 0.03531 0.50327 0.00831 0.0
H988 H 0.14687 0.5182 0.09597 0.0
H989 H 0.13173 0.52582 0.16746 0.0
H990 H 0.14808 0.49 0.0317 0.0
H991 H 0.13405 0.48164 0.95901 0.0
C992 C 0.22255 0.23913 0.01658 0.0
C993 C 0.21092 0.22604 0.06558 0.0
C994 C 0.19752 0.26113 0.11982 0.0
C995 C 0.21016 0.27417 0.07276 0.0
N996 N 0.23844 0.2754 0.98422 0.0
N997 N 0.19136 0.22418 0.17148 0.0
C998 C 0.2239 0.26313 0.02386 0.0
C999 C 0.19936 0.23692 0.11917 0.0
N1000 N 0.2313 0.22883 0.96081 0.0
N1001 N 0.18406 0.27187 0.16597 0.0
H1002 H 0.1931 0.2065 0.17397 0.0
H1003 H 0.18491 0.23118 0.21542 0.0
H1004 H 0.18399 0.28949 0.17295 0.0
H1005 H 0.17215 0.2634 0.19551 0.0
H1006 H 0.23698 0.2378 0.91902 0.0
H1007 H 0.23117 0.2113 0.95321 0.0
H1008 H 0.25107 0.26789 0.95494 0.0
H1009 H 0.23927 0.2931 0.98342 0.0
C1010 C 0.00829 0.95673 0.41193 0.0
C1011 C 0.02113 0.94242 0.36874 0.0
C1012 C 0.98604 0.92541 0.32502 0.0
C1013 C 0.97327 0.94029 0.36656 0.0
N1014 N 0.97149 0.9656 0.46108 0.0
N1015 N 0.02289 0.90945 0.29637 0.0
C1016 C 0.98422 0.95448 0.41392 0.0
C1017 C 0.01022 0.92533 0.32994 0.0
N1018 N 0.01909 0.97298 0.44936 0.0
N1019 N 0.97521 0.91266 0.27734 0.0
H1020 H 0.04064 0.90941 0.29574 0.0
H1021 H 0.01589 0.89515 0.2734 0.0
H1022 H 0.95754 0.91207 0.27222 0.0
H1023 H 0.98368 0.90378 0.23973 0.0
H1024 H 0.01064 0.98583 0.47531 0.0
H1025 H 0.03679 0.97426 0.45222 0.0
H1026 H 0.97844 0.97451 0.50118 0.0
H1027 H 0.95378 0.96423 0.46344 0.0
C1028 C 0.30667 0.75889 0.66398 0.0
C1029 C 0.3079 0.77135 0.6035 0.0
C1030 C 0.31294 0.73593 0.54049 0.0
C1031 C 0.30756 0.7235 0.59914 0.0
N1032 N 0.2995 0.72233 0.7172 0.0
N1033 N 0.31264 0.77252 0.48384 0.0
C1034 C 0.30486 0.7347 0.66144 0.0
C1035 C 0.3116 0.76011 0.54169 0.0
N1036 N 0.30736 0.7703 0.72346 0.0
N1037 N 0.31941 0.72453 0.48393 0.0
H1038 H 0.31278 0.79031 0.48322 0.0
H1039 H 0.31234 0.76529 0.43631 0.0
H1040 H 0.32057 0.70677 0.48184 0.0
H1041 H 0.32553 0.73256 0.44112 0.0
H1042 H 0.30812 0.76229 0.76985 0.0
H1043 H 0.30943 0.78797 0.72578 0.0
H1044 H 0.29473 0.72962 0.76253 0.0
H1045 H 0.2987 0.70454 0.71716 0.0
C1046 C 0.47994 0.06465 0.80766 0.0
C1047 C 0.46897 0.06008 0.86935 0.0
C1048 C 0.50582 0.05988 0.92676 0.0
C1049 C 0.51674 0.06026 0.86368 0.0
N1050 N 0.51511 0.06378 0.74378 0.0
N1051 N 0.47061 0.05381 0.98817 0.0
C1052 C 0.50407 0.06326 0.80402 0.0
C1053 C 0.48165 0.05821 0.92942 0.0
N1054 N 0.46719 0.07025 0.7528 0.0
N1055 N 0.51866 0.06106 0.98363 0.0
H1056 H 0.45288 0.05325 0.99158 0.0
H1057 H 0.47888 0.04972 0.03261 0.0
H1058 H 0.53637 0.06271 0.98224 0.0
H1059 H 0.51182 0.06245 0.03147 0.0
H1060 H 0.47413 0.07568 0.70762 0.0
H1061 H 0.44944 0.07136 0.75417 0.0
H1062 H 0.50685 0.063 0.69779 0.0
H1063 H 0.53285 0.06404 0.73973 0.0
C1064 C 0.19035 0.75835 0.01107 0.0
C1065 C 0.2024 0.77055 0.06112 0.0
C1066 C 0.21881 0.73494 0.10337 0.0
C1067 C 0.20521 0.72246 0.05742 0.0
N1068 N 0.17656 0.72186 0.97065 0.0
N1069 N 0.22385 0.76999 0.16436 0.0
C1070 C 0.19033 0.73404 0.01267 0.0
C1071 C 0.21544 0.75871 0.10982 0.0
N1072 N 0.18018 0.76991 0.9597 0.0
N1073 N 0.23526 0.72435 0.14066 0.0
H1074 H 0.22187 0.78743 0.17179 0.0
H1075 H 0.23083 0.76174 0.20573 0.0
H1076 H 0.23799 0.70684 0.14134 0.0
H1077 H 0.24761 0.73323 0.16758 0.0
H1078 H 0.17332 0.76198 0.91772 0.0
H1079 H 0.18023 0.78765 0.95601 0.0
H1080 H 0.16336 0.72916 0.94316 0.0
H1081 H 0.17752 0.70419 0.96553 0.0
C1082 C 0.4808 0.94702 0.27129 0.0
C1083 C 0.46968 0.95776 0.32601 0.0
C1084 C 0.50631 0.9631 0.38219 0.0
C1085 C 0.51762 0.95499 0.32428 0.0
N1086 N 0.51622 0.9415 0.21051 0.0
N1087 N 0.47198 0.97889 0.42984 0.0
C1088 C 0.50506 0.94729 0.2681 0.0
C1089 C 0.48247 0.96669 0.38029 0.0
N1090 N 0.46823 0.93693 0.22192 0.0
N1091 N 0.51827 0.96647 0.44009 0.0
H1092 H 0.45444 0.98129 0.43259 0.0
H1093 H 0.48087 0.98817 0.46578 0.0
H1094 H 0.53569 0.96326 0.44423 0.0
H1095 H 0.5106 0.97005 0.48588 0.0
H1096 H 0.47528 0.92657 0.18502 0.0
H1097 H 0.45049 0.93776 0.21989 0.0
H1098 H 0.50799 0.93825 0.16539 0.0
H1099 H 0.53394 0.94157 0.20628 0.0
C1100 C 0.30343 0.23266 0.58688 0.0
C1101 C 0.30081 0.22222 0.52337 0.0
C1102 C 0.29819 0.25965 0.46942 0.0
C1103 C 0.30014 0.27002 0.53323 0.0
N1104 N 0.31013 0.26741 0.64978 0.0
N1105 N 0.30077 0.22491 0.40345 0.0
C1106 C 0.3045 0.25679 0.59114 0.0
C1107 C 0.29991 0.23549 0.46424 0.0
N1108 N 0.30414 0.21946 0.64328 0.0
N1109 N 0.29362 0.2728 0.41456 0.0
H1110 H 0.30203 0.20724 0.39884 0.0
H1111 H 0.30213 0.23351 0.35811 0.0
H1112 H 0.29296 0.29057 0.41641 0.0
H1113 H 0.28936 0.2662 0.36791 0.0
H1114 H 0.3029 0.22596 0.69157 0.0
H1115 H 0.305 0.2017 0.64187 0.0
H1116 H 0.3156 0.25882 0.69241 0.0
H1117 H 0.31127 0.28511 0.65427 0.0
C1118 C 0.97963 0.05699 0.84399 0.0
C1119 C 0.96825 0.04403 0.79424 0.0
C1120 C 0.0047 0.03392 0.74249 0.0
C1121 C 0.0161 0.04669 0.79259 0.0
N1122 N 0.01487 0.07409 0.88264 0.0
N1123 N 0.96883 0.02465 0.6882 0.0
C1124 C 0.00367 0.05964 0.84021 0.0
C1125 C 0.98048 0.03386 0.74093 0.0
N1126 N 0.96767 0.06544 0.8973 0.0
N1127 N 0.01709 0.02155 0.69726 0.0
H1128 H 0.95107 0.02484 0.68529 0.0
H1129 H 0.97659 0.01864 0.64484 0.0
H1130 H 0.03482 0.0225 0.69401 0.0
H1131 H 0.00998 0.00966 0.66474 0.0
H1132 H 0.97529 0.07251 0.93946 0.0
H1133 H 0.95003 0.06401 0.90195 0.0
H1134 H 0.00662 0.08587 0.91318 0.0
H1135 H 0.03255 0.07566 0.884 0.0
C1136 C 0.80678 0.73384 0.08207 0.0
C1137 C 0.80019 0.72076 0.02576 0.0
C1138 C 0.79842 0.75528 0.95686 0.0
C1139 C 0.80212 0.7685 0.01513 0.0
N1140 N 0.80901 0.77113 0.13385 0.0
N1141 N 0.78906 0.71816 0.91012 0.0
C1142 C 0.80633 0.75799 0.07786 0.0
C1143 C 0.79609 0.7312 0.96294 0.0
N1144 N 0.81377 0.72306 0.13921 0.0
N1145 N 0.79731 0.76581 0.89597 0.0
H1146 H 0.78784 0.70042 0.91262 0.0
H1147 H 0.78333 0.72487 0.86497 0.0
H1148 H 0.7988 0.78345 0.89054 0.0
H1149 H 0.79669 0.75713 0.85064 0.0
H1150 H 0.82087 0.73147 0.18002 0.0
H1151 H 0.81428 0.70534 0.14388 0.0
H1152 H 0.80901 0.76463 0.18228 0.0
H1153 H 0.81006 0.78888 0.1324 0.0
C1154 C 0.67601 0.236 0.57515 0.0
C1155 C 0.68975 0.22396 0.52877 0.0
C1156 C 0.70136 0.25985 0.4762 0.0
C1157 C 0.69071 0.27181 0.52922 0.0
N1158 N 0.66819 0.27202 0.63019 0.0
N1159 N 0.71405 0.22338 0.43192 0.0
C1160 C 0.67764 0.26016 0.57818 0.0
C1161 C 0.70183 0.23561 0.47778 0.0
N1162 N 0.66175 0.2243 0.61699 0.0
N1163 N 0.71076 0.27181 0.42434 0.0
H1164 H 0.71307 0.20564 0.42881 0.0
H1165 H 0.72546 0.23055 0.39808 0.0
H1166 H 0.71017 0.28959 0.42176 0.0
H1167 H 0.71754 0.26433 0.38158 0.0
H1168 H 0.64961 0.23211 0.64727 0.0
H1169 H 0.66068 0.20656 0.61761 0.0
H1170 H 0.661 0.26433 0.67209 0.0
H1171 H 0.66866 0.28975 0.6337 0.0
C1172 C 0.80442 0.25779 0.14935 0.0
C1173 C 0.80008 0.26917 0.0881 0.0
C1174 C 0.79927 0.23272 0.0287 0.0
C1175 C 0.79958 0.22136 0.09115 0.0
N1176 N 0.80413 0.22197 0.21074 0.0
N1177 N 0.795 0.26831 0.96849 0.0
C1178 C 0.80306 0.23355 0.1515 0.0
C1179 C 0.7982 0.25686 0.02733 0.0
N1180 N 0.80976 0.27022 0.20502 0.0
N1181 N 0.80065 0.22032 0.97088 0.0
H1182 H 0.79639 0.28598 0.96467 0.0
H1183 H 0.79028 0.26049 0.92388 0.0
H1184 H 0.80216 0.20259 0.97059 0.0
H1185 H 0.8024 0.22749 0.92355 0.0
H1186 H 0.81476 0.26307 0.25031 0.0
H1187 H 0.81085 0.28797 0.20452 0.0
H1188 H 0.80391 0.22975 0.25746 0.0
H1189 H 0.80457 0.20421 0.21317 0.0
C1190 C 0.73517 0.73944 0.55536 0.0
C1191 C 0.71726 0.72919 0.59264 0.0
C1192 C 0.70379 0.76719 0.62571 0.0
C1193 C 0.71903 0.77712 0.57886 0.0
N1194 N 0.74691 0.77196 0.49058 0.0
N1195 N 0.68448 0.73314 0.66471 0.0
C1196 C 0.73427 0.76311 0.5419 0.0
C1197 C 0.70148 0.74304 0.62806 0.0
N1198 N 0.75317 0.72685 0.53235 0.0
N1199 N 0.69244 0.78075 0.67032 0.0
H1200 H 0.68365 0.71563 0.67363 0.0
H1201 H 0.67072 0.7422 0.68416 0.0
H1202 H 0.69456 0.7984 0.67231 0.0
H1203 H 0.68278 0.7744 0.70982 0.0
H1204 H 0.76785 0.73426 0.51256 0.0
H1205 H 0.75477 0.70932 0.53789 0.0
H1206 H 0.75575 0.76186 0.45643 0.0
H1207 H 0.74693 0.7891 0.47731 0.0
C1208 C 0.514 0.46454 0.89296 0.0
C1209 C 0.52668 0.45172 0.84564 0.0
C1210 C 0.49154 0.43542 0.80008 0.0
C1211 C 0.47884 0.4483 0.84726 0.0
N1212 N 0.47754 0.47103 0.94745 0.0
N1213 N 0.52842 0.42146 0.76388 0.0
C1214 C 0.48997 0.46163 0.89653 0.0
C1215 C 0.51573 0.43583 0.80287 0.0
N1216 N 0.52496 0.47977 0.9336 0.0
N1217 N 0.48055 0.42417 0.7495 0.0
H1218 H 0.54615 0.42199 0.76153 0.0
H1219 H 0.52151 0.40776 0.73768 0.0
H1220 H 0.46287 0.42351 0.74501 0.0
H1221 H 0.48889 0.41692 0.70877 0.0
H1222 H 0.51658 0.49169 0.96332 0.0
H1223 H 0.54268 0.48113 0.93567 0.0
H1224 H 0.48472 0.47928 0.98838 0.0
H1225 H 0.45993 0.46887 0.95177 0.0
C1226 C 0.98724 0.56556 0.30258 0.0
C1227 C 0.97555 0.55254 0.3516 0.0
C1228 C 0.01167 0.54193 0.40433 0.0
C1229 C 0.0234 0.55384 0.35311 0.0
N1230 N 0.02311 0.58149 0.26392 0.0
N1231 N 0.97542 0.53312 0.45748 0.0
C1232 C 0.01139 0.56735 0.30604 0.0
C1233 C 0.98745 0.54227 0.40538 0.0
N1234 N 0.97542 0.57483 0.25022 0.0
N1235 N 0.02383 0.52991 0.45086 0.0
H1236 H 0.95765 0.53366 0.45965 0.0
H1237 H 0.98284 0.52669 0.5008 0.0
H1238 H 0.04155 0.53091 0.45433 0.0
H1239 H 0.01659 0.51859 0.48485 0.0
H1240 H 0.98312 0.58202 0.20834 0.0
H1241 H 0.9577 0.57427 0.2466 0.0
H1242 H 0.01533 0.59344 0.23291 0.0
H1243 H 0.04084 0.58265 0.26372 0.0
C1244 C 0.98742 0.45102 0.86136 0.0
C1245 C 0.97544 0.44534 0.802 0.0
C1246 C 0.01156 0.4394 0.74265 0.0
C1247 C 0.02338 0.44537 0.80197 0.0
N1248 N 0.0232 0.45008 0.92154 0.0
N1249 N 0.97538 0.43012 0.69 0.0
C1250 C 0.01147 0.44917 0.8625 0.0
C1251 C 0.98731 0.43808 0.74389 0.0
N1252 N 0.97584 0.45851 0.91652 0.0
N1253 N 0.02345 0.43604 0.6847 0.0
H1254 H 0.95762 0.42966 0.68847 0.0
H1255 H 0.98296 0.42253 0.64853 0.0
H1256 H 0.04121 0.43584 0.68291 0.0
H1257 H 0.01588 0.43445 0.6379 0.0
H1258 H 0.98374 0.46593 0.95774 0.0
H1259 H 0.95813 0.45844 0.91995 0.0
H1260 H 0.01542 0.4507 0.9683 0.0
H1261 H 0.04079 0.44777 0.92429 0.0
C1262 C 0.48358 0.57132 0.30349 0.0
C1263 C 0.47301 0.55246 0.2718 0.0
C1264 C 0.50968 0.54081 0.22463 0.0
C1265 C 0.52076 0.55685 0.26653 0.0
N1266 N 0.5185 0.58689 0.34913 0.0
N1267 N 0.47556 0.519 0.20187 0.0
C1268 C 0.50781 0.57241 0.30567 0.0
C1269 C 0.4859 0.53731 0.23149 0.0
N1270 N 0.47054 0.58778 0.33315 0.0
N1271 N 0.522 0.52897 0.1781 0.0
H1272 H 0.458 0.51635 0.20318 0.0
H1273 H 0.48444 0.50573 0.17913 0.0
H1274 H 0.53954 0.53097 0.17245 0.0
H1275 H 0.51467 0.51879 0.14126 0.0
H1276 H 0.47714 0.6031 0.35095 0.0
H1277 H 0.4528 0.58706 0.33491 0.0
H1278 H 0.50992 0.59647 0.38503 0.0
H1279 H 0.53614 0.58828 0.353 0.0
C1280 C 0.26525 0.15072 0.22874 0.0
C1281 C 0.24508 0.13779 0.21792 0.0
C1282 C 0.24766 0.12254 0.33213 0.0
C1283 C 0.26581 0.13784 0.34567 0.0
N1284 N 0.29075 0.16816 0.30889 0.0
N1285 N 0.21667 0.11152 0.25829 0.0
C1286 C 0.27463 0.15205 0.29422 0.0
C1287 C 0.23623 0.12363 0.26932 0.0
N1288 N 0.27524 0.16222 0.17692 0.0
N1289 N 0.24181 0.10656 0.37892 0.0
H1290 H 0.20878 0.11068 0.21159 0.0
H1291 H 0.20769 0.1031 0.29579 0.0
H1292 H 0.25021 0.10511 0.42474 0.0
H1293 H 0.23016 0.0935 0.37038 0.0
H1294 H 0.29149 0.1693 0.17966 0.0
H1295 H 0.26817 0.16347 0.12933 0.0
H1296 H 0.29543 0.18119 0.27631 0.0
H1297 H 0.29841 0.16974 0.35556 0.0
C1298 C 0.11663 0.0056 0.52774 0.0
C1299 C 0.1015 0.98736 0.51367 0.0
C1300 C 0.08678 0.98877 0.62859 0.0
C1301 C 0.10058 0.00826 0.64105 0.0
N1302 N 0.12774 0.03622 0.60294 0.0
N1303 N 0.07032 0.963 0.54733 0.0
C1304 C 0.11526 0.01697 0.59067 0.0
C1305 C 0.08633 0.97907 0.56348 0.0
N1306 N 0.1328 0.01149 0.48156 0.0
N1307 N 0.07367 0.97972 0.67863 0.0
H1308 H 0.06937 0.95506 0.50087 0.0
H1309 H 0.0567 0.9586 0.57808 0.0
H1310 H 0.07101 0.98761 0.72461 0.0
H1311 H 0.06614 0.96367 0.676 0.0
H1312 H 0.14582 0.02314 0.4905 0.0
H1313 H 0.13431 0.00333 0.43541 0.0
H1314 H 0.1367 0.0451 0.56634 0.0
H1315 H 0.12832 0.04408 0.64971 0.0
C1316 C 0.23204 0.86974 0.84605 0.0
C1317 C 0.23693 0.85247 0.89369 0.0
C1318 C 0.26016 0.83214 0.81114 0.0
C1319 C 0.25706 0.85038 0.76545 0.0
N1320 N 0.24244 0.88787 0.741 0.0
N1321 N 0.25846 0.81898 0.9255 0.0
C1322 C 0.24358 0.86956 0.78323 0.0
C1323 C 0.25199 0.83432 0.87756 0.0
N1324 N 0.21624 0.88613 0.8607 0.0
N1325 N 0.26956 0.81205 0.78982 0.0
H1326 H 0.25216 0.81912 0.97417 0.0
H1327 H 0.2715 0.80715 0.91852 0.0
H1328 H 0.27476 0.80931 0.74065 0.0
H1329 H 0.26997 0.79727 0.81868 0.0
H1330 H 0.21001 0.89772 0.82574 0.0
H1331 H 0.2083 0.88731 0.90728 0.0
H1332 H 0.23483 0.90331 0.75364 0.0
H1333 H 0.25068 0.88822 0.69476 0.0
C1334 C 0.39688 0.02895 0.09005 0.0
C1335 C 0.38449 0.01935 0.03586 0.0
C1336 C 0.37065 0.98865 0.1092 0.0
C1337 C 0.38293 -0.00169 0.16342 0.0
N1338 N 0.40431 0.02997 0.20909 0.0
N1339 N 0.35576 0.99331 0.99656 0.0
C1340 C 0.3947 0.01934 0.15513 0.0
C1341 C 0.37022 0.00013 0.04633 0.0
N1342 N 0.41214 0.04616 0.07858 0.0
N1343 N 0.35964 0.9683 0.11771 0.0
H1344 H 0.35477 0.00167 0.95056 0.0
H1345 H 0.34336 0.98079 0.00254 0.0
H1346 H 0.35815 0.96031 0.16414 0.0
H1347 H 0.35281 0.95881 0.07854 0.0
H1348 H 0.42404 0.05166 0.11367 0.0
H1349 H 0.41432 0.05396 0.03228 0.0
H1350 H 0.41031 0.04668 0.20778 0.0
H1351 H 0.40497 0.0229 0.25678 0.0
C1352 C 0.7572 0.87559 0.83085 0.0
C1353 C 0.774 0.85863 0.84243 0.0
C1354 C 0.77289 0.84788 0.7239 0.0
C1355 C 0.75385 0.86259 0.7145 0.0
N1356 N 0.72742 0.89028 0.75817 0.0
N1357 N 0.79613 0.82669 0.80226 0.0
C1358 C 0.74594 0.8765 0.76775 0.0
C1359 C 0.78173 0.84454 0.78935 0.0
N1360 N 0.75243 0.89111 0.87992 0.0
N1361 N 0.78231 0.83658 0.6708 0.0
H1362 H 0.80312 0.82341 0.84914 0.0
H1363 H 0.79977 0.81388 0.76784 0.0
H1364 H 0.77561 0.83682 0.62267 0.0
H1365 H 0.79794 0.82819 0.67328 0.0
H1366 H 0.74188 0.9052 0.87312 0.0
H1367 H 0.76065 0.89101 0.9262 0.0
H1368 H 0.719 0.89874 0.79669 0.0
H1369 H 0.71978 0.8925 0.71149 0.0
C1370 C 0.90554 0.98178 0.62382 0.0
C1371 C 0.88799 0.99745 0.64104 0.0
C1372 C 0.87137 0.99305 0.52893 0.0
C1373 C 0.88792 0.97613 0.51402 0.0
N1374 N 0.91813 0.95119 0.5517 0.0
N1375 N 0.852 0.01514 0.61461 0.0
C1376 C 0.904 0.96934 0.56313 0.0
C1377 C 0.87026 0.00233 0.59481 0.0
N1378 N 0.92466 0.97999 0.66271 0.0
N1379 N 0.8569 0.00041 0.47992 0.0
H1380 H 0.85048 0.02185 0.66271 0.0
H1381 H 0.83747 0.01748 0.58552 0.0
H1382 H 0.85645 0.99312 0.43234 0.0
H1383 H 0.84626 0.01453 0.48513 0.0
H1384 H 0.93914 0.97097 0.64822 0.0
H1385 H 0.92727 0.98946 0.70609 0.0
H1386 H 0.9282 0.94385 0.58885 0.0
H1387 H 0.91857 0.94219 0.50681 0.0
C1388 C 0.74601 0.12238 0.28825 0.0
C1389 C 0.75679 0.14227 0.26315 0.0
C1390 C 0.74944 0.16215 0.36889 0.0
C1391 C 0.73685 0.143 0.39204 0.0
N1392 N 0.72134 0.10552 0.37256 0.0
N1393 N 0.76406 0.18263 0.2731 0.0
C1394 C 0.73455 0.12329 0.35122 0.0
C1395 C 0.75739 0.16253 0.30188 0.0
N1396 N 0.74734 0.1025 0.25279 0.0
N1397 N 0.75368 0.18019 0.41043 0.0
H1398 H 0.76897 0.18395 0.22317 0.0
H1399 H 0.7624 0.19845 0.29631 0.0
H1400 H 0.747 0.18166 0.45846 0.0
H1401 H 0.7652 0.19312 0.39885 0.0
H1402 H 0.74189 0.08679 0.27104 0.0
H1403 H 0.75551 0.10138 0.20655 0.0
H1404 H 0.71678 0.0918 0.34236 0.0
H1405 H 0.71387 0.10503 0.41989 0.0
C1406 C 0.57872 0.00296 0.12614 0.0
C1407 C 0.59805 0.98994 0.1454 0.0
C1408 C 0.6165 -0.00156 0.03797 0.0
C1409 C 0.59655 0.0102 0.01738 0.0
N1410 N 0.55688 0.01923 0.03526 0.0
N1411 N 0.6342 0.97278 0.11832 0.0
C1412 C 0.5772 0.01136 0.05978 0.0
C1413 C 0.61663 0.9869 0.1008 0.0
N1414 N 0.56172 0.00729 0.17122 0.0
N1415 N 0.63548 -0.00107 0.99832 0.0
H1416 H 0.63516 0.96481 0.1649 0.0
H1417 H 0.64709 0.96786 0.08561 0.0
H1418 H 0.6358 0.00706 0.95191 0.0
H1419 H 0.65132 0.99269 0.01305 0.0
H1420 H 0.54871 0.01904 0.16273 0.0
H1421 H 0.56135 0.00042 0.21926 0.0
H1422 H 0.54152 0.01813 0.06119 0.0
H1423 H 0.55478 0.02482 0.98617 0.0
C1424 C 0.73987 0.66125 0.86938 0.0
C1425 C 0.75189 0.64129 0.88894 0.0
C1426 C 0.74037 0.62226 0.7849 0.0
C1427 C 0.73029 0.64292 0.76268 0.0
N1428 N 0.72383 0.68334 0.77897 0.0
N1429 N 0.7653 0.60335 0.86468 0.0
C1430 C 0.73065 0.66268 0.80392 0.0
C1431 C 0.75265 0.62193 0.84645 0.0
N1432 N 0.73756 0.67914 0.91285 0.0
N1433 N 0.7376 0.60284 0.74794 0.0
H1434 H 0.77351 0.60212 0.91084 0.0
H1435 H 0.76875 0.58972 0.83292 0.0
H1436 H 0.72848 0.60255 0.70314 0.0
H1437 H 0.74262 0.58672 0.764 0.0
H1438 H 0.72625 0.69258 0.9051 0.0
H1439 H 0.74579 0.68009 0.95887 0.0
H1440 H 0.72668 0.6988 0.80319 0.0
H1441 H 0.71709 0.68562 0.73135 0.0
C1442 C 0.58814 0.53038 0.06208 0.0
C1443 C 0.60453 0.52412 0.11122 0.0
C1444 C 0.6218 0.49673 0.03306 0.0
C1445 C 0.60537 0.50289 0.98401 0.0
N1446 N 0.57432 0.52723 0.94835 0.0
N1447 N 0.63936 0.50496 0.14061 0.0
C1448 C 0.58918 0.52041 0.99724 0.0
C1449 C 0.62203 0.50827 0.09585 0.0
N1450 N 0.57055 0.54466 0.07873 0.0
N1451 N 0.6371 0.47973 0.01961 0.0
H1452 H 0.64019 0.5135 0.18633 0.0
H1453 H 0.65386 0.49532 0.13077 0.0
H1454 H 0.6388 0.47231 0.97248 0.0
H1455 H 0.64759 0.47229 0.05545 0.0
H1456 H 0.55622 0.54728 0.04906 0.0
H1457 H 0.56923 0.55297 0.12453 0.0
H1458 H 0.56478 0.54217 0.95081 0.0
H1459 H 0.572 0.5186 0.90341 0.0
C1460 C 0.73887 0.37019 0.34724 0.0
C1461 C 0.74052 0.35048 0.38826 0.0
C1462 C 0.76145 0.3304 0.29984 0.0
C1463 C 0.761 0.35052 0.26038 0.0
N1464 N 0.75207 0.39035 0.24811 0.0
N1465 N 0.75584 0.31273 0.40788 0.0
C1466 C 0.75045 0.37066 0.28451 0.0
C1467 C 0.75275 0.33095 0.36608 0.0
N1468 N 0.72608 0.38835 0.36811 0.0
N1469 N 0.76881 0.3103 0.27243 0.0
H1470 H 0.74824 0.31131 0.45474 0.0
H1471 H 0.76715 0.29946 0.39788 0.0
H1472 H 0.77495 0.30896 0.22371 0.0
H1473 H 0.76697 0.29449 0.29551 0.0
H1474 H 0.72198 0.40219 0.33779 0.0
H1475 H 0.7185 0.38911 0.41525 0.0
H1476 H 0.74674 0.40622 0.26537 0.0
H1477 H 0.76035 0.39112 0.20197 0.0
C1478 C 0.9161 0.48096 0.58398 0.0
C1479 C 0.89551 0.48112 0.6213 0.0
C1480 C 0.87682 0.50364 0.53344 0.0
C1481 C 0.89695 0.50209 0.49421 0.0
N1482 N 0.93504 0.48722 0.4781 0.0
N1483 N 0.85558 0.49001 0.63002 0.0
C1484 C 0.9163 0.48997 0.51808 0.0
C1485 C 0.87566 0.49182 0.5957 0.0
N1486 N 0.93588 0.47351 0.61312 0.0
N1487 N 0.8589 0.5165 0.51126 0.0
H1488 H 0.85426 0.48153 0.67574 0.0
H1489 H 0.83991 0.49539 0.61136 0.0
H1490 H 0.85867 0.5243 0.46437 0.0
H1491 H 0.84476 0.52051 0.54041 0.0
H1492 H 0.95194 0.47554 0.59178 0.0
H1493 H 0.93668 0.46707 0.66161 0.0
H1494 H 0.94827 0.47598 0.489 0.0
H1495 H 0.93696 0.49512 0.43178 0.0
C1496 C 0.23819 0.33222 0.29163 0.0
C1497 C 0.23616 0.35346 0.25785 0.0
C1498 C 0.25713 0.37243 0.34844 0.0
C1499 C 0.25734 0.35158 0.38455 0.0
N1500 N 0.24623 0.31199 0.39434 0.0
N1501 N 0.24118 0.39422 0.25611 0.0
C1502 C 0.24719 0.33164 0.35742 0.0
C1503 C 0.24507 0.3737 0.28662 0.0
N1504 N 0.23286 0.31234 0.25932 0.0
N1505 N 0.26851 0.39093 0.37322 0.0
H1506 H 0.23234 0.3957 0.21106 0.0
H1507 H 0.24514 0.40989 0.27755 0.0
H1508 H 0.27658 0.39087 0.4197 0.0
H1509 H 0.27117 0.40588 0.34627 0.0
H1510 H 0.23669 0.29621 0.27799 0.0
H1511 H 0.2265 0.31173 0.2108 0.0
H1512 H 0.23623 0.29801 0.38128 0.0
H1513 H 0.25434 0.30992 0.44027 0.0
C1514 C 0.37951 0.47441 0.05303 0.0
C1515 C 0.39504 0.48242 0.00376 0.0
C1516 C 0.41001 0.51085 0.08262 0.0
C1517 C 0.39394 0.50338 0.13116 0.0
N1518 N 0.36143 0.48058 0.1611 0.0
N1519 N 0.42393 0.50937 0.96881 0.0
C1520 C 0.37818 0.48579 0.11601 0.0
C1521 C 0.40977 0.5011 0.01757 0.0
N1522 N 0.36615 0.45586 0.03958 0.0
N1523 N 0.42656 0.52621 0.09998 0.0
H1524 H 0.42682 0.5012 0.92339 0.0
H1525 H 0.43223 0.52502 0.97195 0.0
H1526 H 0.42731 0.5343 0.14623 0.0
H1527 H 0.44074 0.52987 0.07058 0.0
H1528 H 0.35643 0.44741 0.07536 0.0
H1529 H 0.36549 0.44813 0.99265 0.0
H1530 H 0.34798 0.46952 0.15132 0.0
H1531 H 0.35997 0.48872 0.2073 0.0
C1532 C 0.24799 0.62245 0.85132 0.0
C1533 C 0.23809 0.64259 0.87786 0.0
C1534 C 0.24897 0.66385 0.77688 0.0
C1535 C 0.26005 0.64404 0.752 0.0
N1536 N 0.27238 0.60517 0.76702 0.0
N1537 N 0.2325 0.68341 0.87178 0.0
C1538 C 0.2603 0.62354 0.78983 0.0
C1539 C 0.23929 0.66351 0.84198 0.0
N1540 N 0.24483 0.60214 0.88369 0.0
N1541 N 0.24787 0.68317 0.73854 0.0
H1542 H 0.22531 0.68418 0.91925 0.0
H1543 H 0.23568 0.69953 0.85206 0.0
H1544 H 0.25669 0.68523 0.69372 0.0
H1545 H 0.23722 0.6969 0.74932 0.0
H1546 H 0.24954 0.5864 0.86405 0.0
H1547 H 0.23582 0.6008 0.92853 0.0
H1548 H 0.27546 0.59059 0.79532 0.0
H1549 H 0.28055 0.60496 0.72069 0.0
C1550 C 0.12201 0.50865 0.53977 0.0
C1551 C 0.10269 0.50596 0.49769 0.0
C1552 C 0.08304 0.48446 0.5856 0.0
C1553 C 0.1029 0.48573 0.62588 0.0
N1554 N 0.14226 0.4963 0.63957 0.0
N1555 N 0.06606 0.48846 0.4761 0.0
C1556 C 0.12268 0.49713 0.60254 0.0
C1557 C 0.08368 0.49282 0.51903 0.0
N1558 N 0.13962 0.52233 0.51979 0.0
N1559 N 0.06304 0.47667 0.61247 0.0
H1560 H 0.0648 0.49546 0.42839 0.0
H1561 H 0.05329 0.4766 0.4861 0.0
H1562 H 0.06157 0.47111 0.66177 0.0
H1563 H 0.04735 0.4778 0.58831 0.0
H1564 H 0.15298 0.52717 0.55094 0.0
H1565 H 0.14032 0.52989 0.4726 0.0
H1566 H 0.15795 0.50224 0.62269 0.0
H1567 H 0.14321 0.48806 0.68575 0.0
loop_
_geom_bond_atom_site_label_1
_geom_bond_atom_site_label_2
_geom_bond_distance
_geom_bond_site_symmetry_2
_ccdc_geom_bond_type
In0 O1 2.294 1_554 S
In0 O2 2.326 1_554 S
In0 O6 2.266 . S
In0 O7 2.326 . S
In0 O8 2.266 . S
In0 O9 2.326 . S
In0 O11 2.294 . S
In0 O12 2.326 . S
O1 In0 2.294 1_556 S
O1 C10 1.240 . S
O2 In0 2.326 1_556 S
O2 C10 1.252 . S
C3 O6 1.252 . S
C3 O7 1.260 . S
C4 O11 1.240 . S
C4 O12 1.252 . S
C5 O8 1.252 . S
C5 O9 1.260 . S
O6 In0 2.266 . S
O6 C3 1.252 . S
O7 In0 2.326 . S
O7 C3 1.260 . S
O8 In0 2.266 . S
O8 C5 1.252 . S
O9 In0 2.326 . S
O9 C5 1.260 . S
C10 O1 1.240 . S
C10 O2 1.252 . S
O11 In0 2.294 . S
O11 C4 1.240 . S
O12 In0 2.326 . S
O12 C4 1.252 . S
In13 O14 2.294 . S
In13 O15 2.326 . S
In13 O19 2.266 . S
In13 O20 2.326 . S
In13 O21 2.266 . S
In13 O22 2.326 . S
In13 O24 2.294 . S
In13 O25 2.326 . S
O14 In13 2.294 . S
O14 C23 1.240 . S
O15 In13 2.326 . S
O15 C23 1.252 . S
C16 O19 1.252 . S
C16 O20 1.260 . S
C17 O24 1.240 . S
C17 O25 1.252 . S
C18 O21 1.252 . S
C18 O22 1.260 . S
O19 In13 2.266 . S
O19 C16 1.252 . S
O20 In13 2.326 . S
O20 C16 1.260 . S
O21 In13 2.266 . S
O21 C18 1.252 . S
O22 In13 2.326 . S
O22 C18 1.260 . S
C23 O14 1.240 . S
C23 O15 1.252 . S
O24 In13 2.294 . S
O24 C17 1.240 . S
O25 In13 2.326 . S
O25 C17 1.252 . S
In26 O27 2.294 . S
In26 O28 2.326 . S
In26 O32 2.266 . S
In26 O33 2.326 . S
In26 O34 2.266 . S
In26 O35 2.326 . S
In26 O37 2.294 . S
In26 O38 2.326 . S
O27 In26 2.294 . S
O27 C36 1.240 . S
O28 In26 2.326 . S
O28 C36 1.252 . S
C29 O32 1.252 . S
C29 O33 1.260 . S
C30 O37 1.240 . S
C30 O38 1.252 . S
C31 O34 1.252 . S
C31 O35 1.260 . S
O32 In26 2.266 . S
O32 C29 1.252 . S
O33 In26 2.326 . S
O33 C29 1.260 . S
O34 In26 2.266 . S
O34 C31 1.252 . S
O35 In26 2.326 . S
O35 C31 1.260 . S
C36 O27 1.240 . S
C36 O28 1.252 . S
O37 In26 2.294 . S
O37 C30 1.240 . S
O38 In26 2.326 . S
O38 C30 1.252 . S
In39 O40 2.294 . S
In39 O41 2.326 . S
In39 O45 2.266 . S
In39 O46 2.326 . S
In39 O47 2.266 . S
In39 O48 2.326 . S
In39 O50 2.294 . S
In39 O51 2.326 . S
O40 In39 2.294 . S
O40 C49 1.240 . S
O41 In39 2.326 . S
O41 C49 1.252 . S
C42 O45 1.252 . S
C42 O46 1.260 . S
C43 O50 1.240 . S
C43 O51 1.252 . S
C44 O47 1.252 . S
C44 O48 1.260 . S
O45 In39 2.266 . S
O45 C42 1.252 . S
O46 In39 2.326 . S
O46 C42 1.260 . S
O47 In39 2.266 . S
O47 C44 1.252 . S
O48 In39 2.326 . S
O48 C44 1.260 . S
C49 O40 1.240 . S
C49 O41 1.252 . S
O50 In39 2.294 . S
O50 C43 1.240 . S
O51 In39 2.326 . S
O51 C43 1.252 . S
In52 O53 2.294 . S
In52 O54 2.326 . S
In52 O58 2.265 1_554 S
In52 O59 2.326 1_554 S
In52 O60 2.266 . S
In52 O61 2.326 . S
In52 O63 2.294 . S
In52 O64 2.326 . S
O53 In52 2.294 . S
O53 C62 1.240 . S
O54 In52 2.326 . S
O54 C62 1.252 . S
C55 O58 1.253 . S
C55 O59 1.260 . S
C56 O63 1.240 . S
C56 O64 1.252 . S
C57 O60 1.252 . S
C57 O61 1.260 . S
O58 In52 2.265 1_556 S
O58 C55 1.253 . S
O59 In52 2.326 1_556 S
O59 C55 1.260 . S
O60 In52 2.266 . S
O60 C57 1.252 . S
O61 In52 2.326 . S
O61 C57 1.260 . S
C62 O53 1.240 . S
C62 O54 1.252 . S
O63 In52 2.294 . S
O63 C56 1.240 . S
O64 In52 2.326 . S
O64 C56 1.252 . S
In65 O66 2.294 . S
In65 O67 2.326 . S
In65 O71 2.266 . S
In65 O72 2.326 . S
In65 O73 2.266 . S
In65 O74 2.326 . S
In65 O76 2.294 . S
In65 O77 2.326 . S
O66 In65 2.294 . S
O66 C75 1.240 . S
O67 In65 2.326 . S
O67 C75 1.252 . S
C68 O71 1.252 . S
C68 O72 1.260 . S
C69 O76 1.240 . S
C69 O77 1.252 . S
C70 O73 1.252 . S
C70 O74 1.260 . S
O71 In65 2.266 . S
O71 C68 1.252 . S
O72 In65 2.326 . S
O72 C68 1.260 . S
O73 In65 2.266 . S
O73 C70 1.252 . S
O74 In65 2.326 . S
O74 C70 1.260 . S
C75 O66 1.240 . S
C75 O67 1.252 . S
O76 In65 2.294 . S
O76 C69 1.240 . S
O77 In65 2.326 . S
O77 C69 1.252 . S
In78 O79 2.294 . S
In78 O80 2.326 . S
In78 O84 2.266 . S
In78 O85 2.326 . S
In78 O86 2.266 . S
In78 O87 2.326 . S
In78 O89 2.294 . S
In78 O90 2.326 . S
O79 In78 2.294 . S
O79 C88 1.240 . S
O80 In78 2.326 . S
O80 C88 1.252 . S
C81 O84 1.252 . S
C81 O85 1.260 . S
C82 O89 1.240 . S
C82 O90 1.252 . S
C83 O86 1.252 . S
C83 O87 1.260 . S
O84 In78 2.266 . S
O84 C81 1.252 . S
O85 In78 2.326 . S
O85 C81 1.260 . S
O86 In78 2.266 . S
O86 C83 1.252 . S
O87 In78 2.326 . S
O87 C83 1.260 . S
C88 O79 1.240 . S
C88 O80 1.252 . S
O89 In78 2.294 . S
O89 C82 1.240 . S
O90 In78 2.326 . S
O90 C82 1.252 . S
In91 O92 2.294 . S
In91 O93 2.326 . S
In91 O97 2.266 . S
In91 O98 2.326 . S
In91 O99 2.266 . S
In91 O100 2.326 . S
In91 O102 2.294 . S
In91 O103 2.326 . S
O92 In91 2.294 . S
O92 C101 1.240 . S
O93 In91 2.326 . S
O93 C101 1.252 . S
C94 O97 1.252 . S
C94 O98 1.260 . S
C95 O102 1.240 . S
C95 O103 1.252 . S
C96 O99 1.252 . S
C96 O100 1.260 . S
O97 In91 2.266 . S
O97 C94 1.252 . S
O98 In91 2.326 . S
O98 C94 1.260 . S
O99 In91 2.266 . S
O99 C96 1.252 . S
O100 In91 2.326 . S
O100 C96 1.260 . S
C101 O92 1.240 . S
C101 O93 1.252 . S
O102 In91 2.294 . S
O102 C95 1.240 . S
O103 In91 2.326 . S
O103 C95 1.252 . S
In104 O105 2.294 . S
In104 O106 2.326 . S
In104 O110 2.265 1_554 S
In104 O111 2.326 1_554 S
In104 O112 2.266 . S
In104 O113 2.326 . S
In104 O115 2.294 . S
In104 O116 2.326 . S
O105 In104 2.294 . S
O105 C114 1.240 . S
O106 In104 2.326 . S
O106 C114 1.252 . S
C107 O110 1.253 . S
C107 O111 1.260 . S
C108 O115 1.240 . S
C108 O116 1.252 . S
C109 O112 1.252 . S
C109 O113 1.260 . S
O110 In104 2.265 1_556 S
O110 C107 1.253 . S
O111 In104 2.326 1_556 S
O111 C107 1.260 . S
O112 In104 2.266 . S
O112 C109 1.252 . S
O113 In104 2.326 . S
O113 C109 1.260 . S
C114 O105 1.240 . S
C114 O106 1.252 . S
O115 In104 2.294 . S
O115 C108 1.240 . S
O116 In104 2.326 . S
O116 C108 1.252 . S
In117 O118 2.294 . S
In117 O119 2.326 . S
In117 O123 2.266 . S
In117 O124 2.326 . S
In117 O125 2.266 . S
In117 O126 2.326 . S
In117 O128 2.294 . S
In117 O129 2.326 . S
O118 In117 2.294 . S
O118 C127 1.240 . S
O119 In117 2.326 . S
O119 C127 1.252 . S
C120 O123 1.252 . S
C120 O124 1.260 . S
C121 O128 1.240 . S
C121 O129 1.252 . S
C122 O125 1.252 . S
C122 O126 1.260 . S
O123 In117 2.266 . S
O123 C120 1.252 . S
O124 In117 2.326 . S
O124 C120 1.260 . S
O125 In117 2.266 . S
O125 C122 1.252 . S
O126 In117 2.326 . S
O126 C122 1.260 . S
C127 O118 1.240 . S
C127 O119 1.252 . S
O128 In117 2.294 . S
O128 C121 1.240 . S
O129 In117 2.326 . S
O129 C121 1.252 . S
In130 O131 2.294 . S
In130 O132 2.326 . S
In130 O136 2.266 . S
In130 O137 2.326 . S
In130 O138 2.266 . S
In130 O139 2.326 . S
In130 O141 2.294 . S
In130 O142 2.326 . S
O131 In130 2.294 . S
O131 C140 1.240 . S
O132 In130 2.326 . S
O132 C140 1.252 . S
C133 O136 1.252 . S
C133 O137 1.260 . S
C134 O141 1.240 . S
C134 O142 1.252 . S
C135 O138 1.252 . S
C135 O139 1.260 . S
O136 In130 2.266 . S
O136 C133 1.252 . S
O137 In130 2.326 . S
O137 C133 1.260 . S
O138 In130 2.266 . S
O138 C135 1.252 . S
O139 In130 2.326 . S
O139 C135 1.260 . S
C140 O131 1.240 . S
C140 O132 1.252 . S
O141 In130 2.294 . S
O141 C134 1.240 . S
O142 In130 2.326 . S
O142 C134 1.252 . S
In143 O144 2.294 . S
In143 O145 2.326 . S
In143 O149 2.266 . S
In143 O150 2.326 . S
In143 O151 2.266 . S
In143 O152 2.326 . S
In143 O154 2.294 . S
In143 O155 2.326 . S
O144 In143 2.294 . S
O144 C153 1.240 . S
O145 In143 2.326 . S
O145 C153 1.252 . S
C146 O149 1.252 . S
C146 O150 1.260 . S
C147 O154 1.240 . S
C147 O155 1.252 . S
C148 O151 1.252 . S
C148 O152 1.260 . S
O149 In143 2.266 . S
O149 C146 1.252 . S
O150 In143 2.326 . S
O150 C146 1.260 . S
O151 In143 2.266 . S
O151 C148 1.252 . S
O152 In143 2.326 . S
O152 C148 1.260 . S
C153 O144 1.240 . S
C153 O145 1.252 . S
O154 In143 2.294 . S
O154 C147 1.240 . S
O155 In143 2.326 . S
O155 C147 1.252 . S
In156 O157 2.294 . S
In156 O158 2.326 . S
In156 O162 2.266 . S
In156 O163 2.326 . S
In156 O164 2.266 . S
In156 O165 2.326 . S
In156 O167 2.294 1_554 S
In156 O168 2.326 1_554 S
O157 In156 2.294 . S
O157 C166 1.240 . S
O158 In156 2.326 . S
O158 C166 1.252 . S
C159 O162 1.252 . S
C159 O163 1.260 . S
C160 O167 1.240 . S
C160 O168 1.252 . S
C161 O164 1.252 . S
C161 O165 1.260 . S
O162 In156 2.266 . S
O162 C159 1.252 . S
O163 In156 2.326 . S
O163 C159 1.260 . S
O164 In156 2.266 . S
O164 C161 1.252 . S
O165 In156 2.326 . S
O165 C161 1.260 . S
C166 O157 1.240 . S
C166 O158 1.252 . S
O167 In156 2.294 1_556 S
O167 C160 1.240 . S
O168 In156 2.326 1_556 S
O168 C160 1.252 . S
In169 O170 2.294 . S
In169 O171 2.326 . S
In169 O175 2.266 . S
In169 O176 2.326 . S
In169 O177 2.266 . S
In169 O178 2.326 . S
In169 O180 2.294 . S
In169 O181 2.326 . S
O170 In169 2.294 . S
O170 C179 1.240 . S
O171 In169 2.326 . S
O171 C179 1.252 . S
C172 O175 1.252 . S
C172 O176 1.260 . S
C173 O180 1.240 . S
C173 O181 1.252 . S
C174 O177 1.252 . S
C174 O178 1.260 . S
O175 In169 2.266 . S
O175 C172 1.252 . S
O176 In169 2.326 . S
O176 C172 1.260 . S
O177 In169 2.266 . S
O177 C174 1.252 . S
O178 In169 2.326 . S
O178 C174 1.260 . S
C179 O170 1.240 . S
C179 O171 1.252 . S
O180 In169 2.294 . S
O180 C173 1.240 . S
O181 In169 2.326 . S
O181 C173 1.252 . S
In182 O183 2.294 . S
In182 O184 2.326 . S
In182 O188 2.266 . S
In182 O189 2.326 . S
In182 O190 2.266 . S
In182 O191 2.326 . S
In182 O193 2.294 . S
In182 O194 2.326 . S
O183 In182 2.294 . S
O183 C192 1.240 . S
O184 In182 2.326 . S
O184 C192 1.252 . S
C185 O188 1.252 . S
C185 O189 1.260 . S
C186 O193 1.240 . S
C186 O194 1.252 . S
C187 O190 1.252 . S
C187 O191 1.260 . S
O188 In182 2.266 . S
O188 C185 1.252 . S
O189 In182 2.326 . S
O189 C185 1.260 . S
O190 In182 2.266 . S
O190 C187 1.252 . S
O191 In182 2.326 . S
O191 C187 1.260 . S
C192 O183 1.240 . S
C192 O184 1.252 . S
O193 In182 2.294 . S
O193 C186 1.240 . S
O194 In182 2.326 . S
O194 C186 1.252 . S
In195 O196 2.294 . S
In195 O197 2.326 . S
In195 O201 2.266 . S
In195 O202 2.326 . S
In195 O203 2.266 . S
In195 O204 2.326 . S
In195 O206 2.294 . S
In195 O207 2.326 . S
O196 In195 2.294 . S
O196 C205 1.240 . S
O197 In195 2.326 . S
O197 C205 1.252 . S
C198 O201 1.252 . S
C198 O202 1.260 . S
C199 O206 1.240 . S
C199 O207 1.252 . S
C200 O203 1.252 . S
C200 O204 1.260 . S
O201 In195 2.266 . S
O201 C198 1.252 . S
O202 In195 2.326 . S
O202 C198 1.260 . S
O203 In195 2.266 . S
O203 C200 1.252 . S
O204 In195 2.326 . S
O204 C200 1.260 . S
C205 O196 1.240 . S
C205 O197 1.252 . S
O206 In195 2.294 . S
O206 C199 1.240 . S
O207 In195 2.326 . S
O207 C199 1.252 . S
In208 O209 2.294 . S
In208 O210 2.326 . S
In208 O214 2.266 . S
In208 O215 2.326 . S
In208 O216 2.266 . S
In208 O217 2.326 . S
In208 O219 2.294 . S
In208 O220 2.326 . S
O209 In208 2.294 . S
O209 C218 1.240 . S
O210 In208 2.326 . S
O210 C218 1.252 . S
C211 O214 1.252 . S
C211 O215 1.260 . S
C212 O219 1.240 . S
C212 O220 1.252 . S
C213 O216 1.252 . S
C213 O217 1.260 . S
O214 In208 2.266 . S
O214 C211 1.252 . S
O215 In208 2.326 . S
O215 C211 1.260 . S
O216 In208 2.266 . S
O216 C213 1.252 . S
O217 In208 2.326 . S
O217 C213 1.260 . S
C218 O209 1.240 . S
C218 O210 1.252 . S
O219 In208 2.294 . S
O219 C212 1.240 . S
O220 In208 2.326 . S
O220 C212 1.252 . S
In221 O222 2.294 . S
In221 O223 2.326 . S
In221 O227 2.266 . S
In221 O228 2.326 . S
In221 O229 2.266 . S
In221 O230 2.326 . S
In221 O232 2.294 . S
In221 O233 2.326 . S
O222 In221 2.294 . S
O222 C231 1.240 . S
O223 In221 2.326 . S
O223 C231 1.252 . S
C224 O227 1.252 . S
C224 O228 1.260 . S
C225 O232 1.240 . S
C225 O233 1.252 . S
C226 O229 1.252 . S
C226 O230 1.260 . S
O227 In221 2.266 . S
O227 C224 1.252 . S
O228 In221 2.326 . S
O228 C224 1.260 . S
O229 In221 2.266 . S
O229 C226 1.252 . S
O230 In221 2.326 . S
O230 C226 1.260 . S
C231 O222 1.240 . S
C231 O223 1.252 . S
O232 In221 2.294 . S
O232 C225 1.240 . S
O233 In221 2.326 . S
O233 C225 1.252 . S
In234 O235 2.294 1_554 S
In234 O236 2.326 1_554 S
In234 O240 2.266 . S
In234 O241 2.326 . S
In234 O242 2.266 . S
In234 O243 2.326 . S
In234 O245 2.294 . S
In234 O246 2.326 . S
O235 In234 2.294 1_556 S
O235 C244 1.240 . S
O236 In234 2.326 1_556 S
O236 C244 1.252 . S
C237 O240 1.252 . S
C237 O241 1.260 . S
C238 O245 1.240 . S
C238 O246 1.252 . S
C239 O242 1.252 . S
C239 O243 1.260 . S
O240 In234 2.266 . S
O240 C237 1.252 . S
O241 In234 2.326 . S
O241 C237 1.260 . S
O242 In234 2.266 . S
O242 C239 1.252 . S
O243 In234 2.326 . S
O243 C239 1.260 . S
C244 O235 1.240 . S
C244 O236 1.252 . S
O245 In234 2.294 . S
O245 C238 1.240 . S
O246 In234 2.326 . S
O246 C238 1.252 . S
In247 O248 2.294 . S
In247 O249 2.326 . S
In247 O253 2.266 . S
In247 O254 2.326 . S
In247 O255 2.266 . S
In247 O256 2.326 . S
In247 O258 2.294 . S
In247 O259 2.326 . S
O248 In247 2.294 . S
O248 C257 1.240 . S
O249 In247 2.326 . S
O249 C257 1.252 . S
C250 O253 1.252 . S
C250 O254 1.260 . S
C251 O258 1.240 . S
C251 O259 1.252 . S
C252 O255 1.252 . S
C252 O256 1.260 . S
O253 In247 2.266 . S
O253 C250 1.252 . S
O254 In247 2.326 . S
O254 C250 1.260 . S
O255 In247 2.266 . S
O255 C252 1.252 . S
O256 In247 2.326 . S
O256 C252 1.260 . S
C257 O248 1.240 . S
C257 O249 1.252 . S
O258 In247 2.294 . S
O258 C251 1.240 . S
O259 In247 2.326 . S
O259 C251 1.252 . S
In260 O261 2.294 . S
In260 O262 2.326 . S
In260 O266 2.266 . S
In260 O267 2.326 . S
In260 O268 2.266 . S
In260 O269 2.326 . S
In260 O271 2.294 . S
In260 O272 2.326 . S
O261 In260 2.294 . S
O261 C270 1.240 . S
O262 In260 2.326 . S
O262 C270 1.252 . S
C263 O266 1.252 . S
C263 O267 1.260 . S
C264 O271 1.240 . S
C264 O272 1.252 . S
C265 O268 1.252 . S
C265 O269 1.260 . S
O266 In260 2.266 . S
O266 C263 1.252 . S
O267 In260 2.326 . S
O267 C263 1.260 . S
O268 In260 2.266 . S
O268 C265 1.252 . S
O269 In260 2.326 . S
O269 C265 1.260 . S
C270 O261 1.240 . S
C270 O262 1.252 . S
O271 In260 2.294 . S
O271 C264 1.240 . S
O272 In260 2.326 . S
O272 C264 1.252 . S
In273 O274 2.294 . S
In273 O275 2.326 . S
In273 O279 2.266 . S
In273 O280 2.326 . S
In273 O281 2.266 . S
In273 O282 2.326 . S
In273 O284 2.294 . S
In273 O285 2.326 . S
O274 In273 2.294 . S
O274 C283 1.240 . S
O275 In273 2.326 . S
O275 C283 1.252 . S
C276 O279 1.252 . S
C276 O280 1.260 . S
C277 O284 1.240 . S
C277 O285 1.252 . S
C278 O281 1.252 . S
C278 O282 1.260 . S
O279 In273 2.266 . S
O279 C276 1.252 . S
O280 In273 2.326 . S
O280 C276 1.260 . S
O281 In273 2.266 . S
O281 C278 1.252 . S
O282 In273 2.326 . S
O282 C278 1.260 . S
C283 O274 1.240 . S
C283 O275 1.252 . S
O284 In273 2.294 . S
O284 C277 1.240 . S
O285 In273 2.326 . S
O285 C277 1.252 . S
In286 O287 2.294 . S
In286 O288 2.326 . S
In286 O292 2.266 . S
In286 O293 2.326 . S
In286 O294 2.264 1_554 S
In286 O295 2.326 1_554 S
In286 O297 2.294 . S
In286 O298 2.326 . S
O287 In286 2.294 . S
O287 C296 1.240 . S
O288 In286 2.326 . S
O288 C296 1.252 . S
C289 O292 1.252 . S
C289 O293 1.260 . S
C290 O297 1.240 . S
C290 O298 1.252 . S
C291 O294 1.254 . S
C291 O295 1.260 . S
O292 In286 2.266 . S
O292 C289 1.252 . S
O293 In286 2.326 . S
O293 C289 1.260 . S
O294 In286 2.264 1_556 S
O294 C291 1.254 . S
O295 In286 2.326 1_556 S
O295 C291 1.260 . S
C296 O287 1.240 . S
C296 O288 1.252 . S
O297 In286 2.294 . S
O297 C290 1.240 . S
O298 In286 2.326 . S
O298 C290 1.252 . S
In299 O300 2.294 . S
In299 O301 2.326 . S
In299 O305 2.266 . S
In299 O306 2.326 . S
In299 O307 2.266 . S
In299 O308 2.326 . S
In299 O310 2.294 . S
In299 O311 2.326 . S
O300 In299 2.294 . S
O300 C309 1.240 . S
O301 In299 2.326 . S
O301 C309 1.252 . S
C302 O305 1.252 . S
C302 O306 1.260 . S
C303 O310 1.240 . S
C303 O311 1.252 . S
C304 O307 1.252 . S
C304 O308 1.260 . S
O305 In299 2.266 . S
O305 C302 1.252 . S
O306 In299 2.326 . S
O306 C302 1.260 . S
O307 In299 2.266 . S
O307 C304 1.252 . S
O308 In299 2.326 . S
O308 C304 1.260 . S
C309 O300 1.240 . S
C309 O301 1.252 . S
O310 In299 2.294 . S
O310 C303 1.240 . S
O311 In299 2.326 . S
O311 C303 1.252 . S
In312 O313 2.294 . S
In312 O314 2.326 . S
In312 O318 2.266 . S
In312 O319 2.326 . S
In312 O320 2.266 . S
In312 O321 2.326 . S
In312 O323 2.294 . S
In312 O324 2.326 . S
O313 In312 2.294 . S
O313 C322 1.240 . S
O314 In312 2.326 . S
O314 C322 1.252 . S
C315 O318 1.252 . S
C315 O319 1.260 . S
C316 O323 1.240 . S
C316 O324 1.252 . S
C317 O320 1.252 . S
C317 O321 1.260 . S
O318 In312 2.266 . S
O318 C315 1.252 . S
O319 In312 2.326 . S
O319 C315 1.260 . S
O320 In312 2.266 . S
O320 C317 1.252 . S
O321 In312 2.326 . S
O321 C317 1.260 . S
C322 O313 1.240 . S
C322 O314 1.252 . S
O323 In312 2.294 . S
O323 C316 1.240 . S
O324 In312 2.326 . S
O324 C316 1.252 . S
In325 O326 2.294 . S
In325 O327 2.326 . S
In325 O331 2.266 . S
In325 O332 2.326 . S
In325 O333 2.266 . S
In325 O334 2.326 . S
In325 O336 2.294 . S
In325 O337 2.326 . S
O326 In325 2.294 . S
O326 C335 1.240 . S
O327 In325 2.326 . S
O327 C335 1.252 . S
C328 O331 1.252 . S
C328 O332 1.260 . S
C329 O336 1.240 . S
C329 O337 1.252 . S
C330 O333 1.252 . S
C330 O334 1.260 . S
O331 In325 2.266 . S
O331 C328 1.252 . S
O332 In325 2.326 . S
O332 C328 1.260 . S
O333 In325 2.266 . S
O333 C330 1.252 . S
O334 In325 2.326 . S
O334 C330 1.260 . S
C335 O326 1.240 . S
C335 O327 1.252 . S
O336 In325 2.294 . S
O336 C329 1.240 . S
O337 In325 2.326 . S
O337 C329 1.252 . S
In338 O339 2.294 . S
In338 O340 2.326 . S
In338 O344 2.266 . S
In338 O345 2.326 . S
In338 O346 2.264 1_554 S
In338 O347 2.326 1_554 S
In338 O349 2.294 . S
In338 O350 2.326 . S
O339 In338 2.294 . S
O339 C348 1.240 . S
O340 In338 2.326 . S
O340 C348 1.252 . S
C341 O344 1.252 . S
C341 O345 1.260 . S
C342 O349 1.240 . S
C342 O350 1.252 . S
C343 O346 1.254 . S
C343 O347 1.260 . S
O344 In338 2.266 . S
O344 C341 1.252 . S
O345 In338 2.326 . S
O345 C341 1.260 . S
O346 In338 2.264 1_556 S
O346 C343 1.254 . S
O347 In338 2.326 1_556 S
O347 C343 1.260 . S
C348 O339 1.240 . S
C348 O340 1.252 . S
O349 In338 2.294 . S
O349 C342 1.240 . S
O350 In338 2.326 . S
O350 C342 1.252 . S
In351 O352 2.294 . S
In351 O353 2.326 . S
In351 O357 2.266 . S
In351 O358 2.326 . S
In351 O359 2.266 . S
In351 O360 2.326 . S
In351 O362 2.294 . S
In351 O363 2.326 . S
O352 In351 2.294 . S
O352 C361 1.240 . S
O353 In351 2.326 . S
O353 C361 1.252 . S
C354 O357 1.252 . S
C354 O358 1.260 . S
C355 O362 1.240 . S
C355 O363 1.252 . S
C356 O359 1.252 . S
C356 O360 1.260 . S
O357 In351 2.266 . S
O357 C354 1.252 . S
O358 In351 2.326 . S
O358 C354 1.260 . S
O359 In351 2.266 . S
O359 C356 1.252 . S
O360 In351 2.326 . S
O360 C356 1.260 . S
C361 O352 1.240 . S
C361 O353 1.252 . S
O362 In351 2.294 . S
O362 C355 1.240 . S
O363 In351 2.326 . S
O363 C355 1.252 . S
In364 O365 2.294 . S
In364 O366 2.326 . S
In364 O370 2.266 . S
In364 O371 2.326 . S
In364 O372 2.266 . S
In364 O373 2.326 . S
In364 O375 2.294 . S
In364 O376 2.326 . S
O365 In364 2.294 . S
O365 C374 1.240 . S
O366 In364 2.326 . S
O366 C374 1.252 . S
C367 O370 1.252 . S
C367 O371 1.260 . S
C368 O375 1.240 . S
C368 O376 1.252 . S
C369 O372 1.252 . S
C369 O373 1.260 . S
O370 In364 2.266 . S
O370 C367 1.252 . S
O371 In364 2.326 . S
O371 C367 1.260 . S
O372 In364 2.266 . S
O372 C369 1.252 . S
O373 In364 2.326 . S
O373 C369 1.260 . S
C374 O365 1.240 . S
C374 O366 1.252 . S
O375 In364 2.294 . S
O375 C368 1.240 . S
O376 In364 2.326 . S
O376 C368 1.252 . S
In377 O378 2.294 . S
In377 O379 2.326 . S
In377 O383 2.266 . S
In377 O384 2.326 . S
In377 O385 2.266 . S
In377 O386 2.326 . S
In377 O388 2.294 . S
In377 O389 2.326 . S
O378 In377 2.294 . S
O378 C387 1.240 . S
O379 In377 2.326 . S
O379 C387 1.252 . S
C380 O383 1.252 . S
C380 O384 1.260 . S
C381 O388 1.240 . S
C381 O389 1.252 . S
C382 O385 1.252 . S
C382 O386 1.260 . S
O383 In377 2.266 . S
O383 C380 1.252 . S
O384 In377 2.326 . S
O384 C380 1.260 . S
O385 In377 2.266 . S
O385 C382 1.252 . S
O386 In377 2.326 . S
O386 C382 1.260 . S
C387 O378 1.240 . S
C387 O379 1.252 . S
O388 In377 2.294 . S
O388 C381 1.240 . S
O389 In377 2.326 . S
O389 C381 1.252 . S
In390 O391 2.294 . S
In390 O392 2.326 . S
In390 O396 2.266 . S
In390 O397 2.326 . S
In390 O398 2.266 . S
In390 O399 2.326 . S
In390 O401 2.294 1_554 S
In390 O402 2.326 1_554 S
O391 In390 2.294 . S
O391 C400 1.240 . S
O392 In390 2.326 . S
O392 C400 1.252 . S
C393 O396 1.252 . S
C393 O397 1.260 . S
C394 O401 1.240 . S
C394 O402 1.252 . S
C395 O398 1.252 . S
C395 O399 1.260 . S
O396 In390 2.266 . S
O396 C393 1.252 . S
O397 In390 2.326 . S
O397 C393 1.260 . S
O398 In390 2.266 . S
O398 C395 1.252 . S
O399 In390 2.326 . S
O399 C395 1.260 . S
C400 O391 1.240 . S
C400 O392 1.252 . S
O401 In390 2.294 1_556 S
O401 C394 1.240 . S
O402 In390 2.326 1_556 S
O402 C394 1.252 . S
In403 O404 2.294 . S
In403 O405 2.326 . S
In403 O409 2.266 . S
In403 O410 2.326 . S
In403 O411 2.266 . S
In403 O412 2.326 . S
In403 O414 2.294 . S
In403 O415 2.326 . S
O404 In403 2.294 . S
O404 C413 1.240 . S
O405 In403 2.326 . S
O405 C413 1.252 . S
C406 O409 1.252 . S
C406 O410 1.260 . S
C407 O414 1.240 . S
C407 O415 1.252 . S
C408 O411 1.252 . S
C408 O412 1.260 . S
O409 In403 2.266 . S
O409 C406 1.252 . S
O410 In403 2.326 . S
O410 C406 1.260 . S
O411 In403 2.266 . S
O411 C408 1.252 . S
O412 In403 2.326 . S
O412 C408 1.260 . S
C413 O404 1.240 . S
C413 O405 1.252 . S
O414 In403 2.294 . S
O414 C407 1.240 . S
O415 In403 2.326 . S
O415 C407 1.252 . S
C416 C417 1.363 . S
C416 C422 1.379 . S
C416 N424 1.356 . S
C417 C416 1.363 . S
C417 C423 1.363 . S
C418 C419 1.363 . S
C418 C423 1.379 . S
C418 N425 1.356 1_556 S
C419 C418 1.363 . S
C419 C422 1.363 . S
N420 C422 1.356 . S
N420 H432 0.984 . S
N420 H433 0.985 1_556 S
N421 C423 1.356 . S
N421 H426 0.984 . S
N421 H427 0.985 . S
C422 C416 1.379 . S
C422 C419 1.363 . S
C422 N420 1.356 . S
C423 C417 1.363 . S
C423 C418 1.379 . S
C423 N421 1.356 . S
N424 C416 1.356 . S
N424 H430 0.984 . S
N424 H431 0.984 . S
N425 C418 1.356 1_554 S
N425 H428 0.984 . S
N425 H429 0.985 . S
H426 N421 0.984 . S
H427 N421 0.985 . S
H428 N425 0.984 . S
H429 N425 0.985 . S
H430 N424 0.984 . S
H431 N424 0.984 . S
H432 N420 0.984 . S
H433 N420 0.985 1_554 S
C434 C435 1.363 . S
C434 C440 1.379 . S
C434 N442 1.356 . S
C435 C434 1.363 . S
C435 C441 1.363 . S
C436 C437 1.363 . S
C436 C441 1.379 . S
C436 N443 1.356 . S
C437 C436 1.363 . S
C437 C440 1.363 . S
N438 C440 1.356 . S
N438 H450 0.984 . S
N438 H451 0.985 . S
N439 C441 1.356 . S
N439 H444 0.984 . S
N439 H445 0.985 . S
C440 C434 1.379 . S
C440 C437 1.363 . S
C440 N438 1.356 . S
C441 C435 1.363 . S
C441 C436 1.379 . S
C441 N439 1.356 . S
N442 C434 1.356 . S
N442 H448 0.984 . S
N442 H449 0.984 . S
N443 C436 1.356 . S
N443 H446 0.984 . S
N443 H447 0.985 . S
H444 N439 0.984 . S
H445 N439 0.985 . S
H446 N443 0.984 . S
H447 N443 0.985 . S
H448 N442 0.984 . S
H449 N442 0.984 . S
H450 N438 0.984 . S
H451 N438 0.985 . S
C452 C453 1.363 . S
C452 C458 1.379 . S
C452 N460 1.356 . S
C453 C452 1.363 . S
C453 C459 1.363 . S
C454 C455 1.363 . S
C454 C459 1.379 . S
C454 N461 1.356 . S
C455 C454 1.363 . S
C455 C458 1.363 . S
N456 C458 1.356 . S
N456 H468 0.984 . S
N456 H469 0.985 . S
N457 C459 1.356 . S
N457 H462 0.984 . S
N457 H463 0.985 . S
C458 C452 1.379 . S
C458 C455 1.363 . S
C458 N456 1.356 . S
C459 C453 1.363 . S
C459 C454 1.379 . S
C459 N457 1.356 . S
N460 C452 1.356 . S
N460 H466 0.984 . S
N460 H467 0.984 . S
N461 C454 1.356 . S
N461 H464 0.984 . S
N461 H465 0.985 . S
H462 N457 0.984 . S
H463 N457 0.985 . S
H464 N461 0.984 . S
H465 N461 0.985 . S
H466 N460 0.984 . S
H467 N460 0.984 . S
H468 N456 0.984 . S
H469 N456 0.985 . S
C470 C471 1.363 . S
C470 C476 1.379 . S
C470 N478 1.356 . S
C471 C470 1.363 . S
C471 C477 1.363 . S
C472 C473 1.363 . S
C472 C477 1.379 . S
C472 N479 1.356 . S
C473 C472 1.363 . S
C473 C476 1.363 . S
N474 C476 1.356 . S
N474 H486 0.984 . S
N474 H487 0.985 . S
N475 C477 1.356 . S
N475 H480 0.984 . S
N475 H481 0.985 . S
C476 C470 1.379 . S
C476 C473 1.363 . S
C476 N474 1.356 . S
C477 C471 1.363 . S
C477 C472 1.379 . S
C477 N475 1.356 . S
N478 C470 1.356 . S
N478 H484 0.984 . S
N478 H485 0.984 . S
N479 C472 1.356 . S
N479 H482 0.984 . S
N479 H483 0.985 . S
H480 N475 0.984 . S
H481 N475 0.985 . S
H482 N479 0.984 . S
H483 N479 0.985 . S
H484 N478 0.984 . S
H485 N478 0.984 . S
H486 N474 0.984 . S
H487 N474 0.985 . S
C488 C489 1.363 . S
C488 C494 1.379 . S
C488 N496 1.356 . S
C489 C488 1.363 . S
C489 C495 1.363 . S
C490 C491 1.363 . S
C490 C495 1.379 . S
C490 N497 1.356 . S
C491 C490 1.363 . S
C491 C494 1.363 . S
N492 C494 1.356 . S
N492 H504 0.984 . S
N492 H505 0.985 . S
N493 C495 1.356 . S
N493 H498 0.984 . S
N493 H499 0.985 . S
C494 C488 1.379 . S
C494 C491 1.363 . S
C494 N492 1.356 . S
C495 C489 1.363 . S
C495 C490 1.379 . S
C495 N493 1.356 . S
N496 C488 1.356 . S
N496 H502 0.984 . S
N496 H503 0.984 . S
N497 C490 1.356 . S
N497 H500 0.984 . S
N497 H501 0.985 . S
H498 N493 0.984 . S
H499 N493 0.985 . S
H500 N497 0.984 . S
H501 N497 0.985 . S
H502 N496 0.984 . S
H503 N496 0.984 . S
H504 N492 0.984 . S
H505 N492 0.985 . S
C506 C507 1.363 . S
C506 C512 1.379 . S
C506 N514 1.356 . S
C507 C506 1.363 . S
C507 C513 1.363 . S
C508 C509 1.363 . S
C508 C513 1.379 . S
C508 N515 1.356 . S
C509 C508 1.363 . S
C509 C512 1.363 . S
N510 C512 1.356 1_554 S
N510 H522 0.984 . S
N510 H523 0.985 . S
N511 C513 1.356 . S
N511 H516 0.984 . S
N511 H517 0.985 . S
C512 C506 1.379 . S
C512 C509 1.363 . S
C512 N510 1.356 1_556 S
C513 C507 1.363 . S
C513 C508 1.379 . S
C513 N511 1.356 . S
N514 C506 1.356 . S
N514 H520 0.984 . S
N514 H521 0.984 . S
N515 C508 1.356 . S
N515 H518 0.984 . S
N515 H519 0.985 . S
H516 N511 0.984 . S
H517 N511 0.985 . S
H518 N515 0.984 . S
H519 N515 0.985 . S
H520 N514 0.984 . S
H521 N514 0.984 . S
H522 N510 0.984 . S
H523 N510 0.985 . S
C524 C525 1.363 . S
C524 C530 1.379 . S
C524 N532 1.356 . S
C525 C524 1.363 . S
C525 C531 1.363 . S
C526 C527 1.363 . S
C526 C531 1.379 . S
C526 N533 1.356 . S
C527 C526 1.363 . S
C527 C530 1.363 . S
N528 C530 1.356 . S
N528 H540 0.984 . S
N528 H541 0.985 . S
N529 C531 1.356 . S
N529 H534 0.984 . S
N529 H535 0.985 . S
C530 C524 1.379 . S
C530 C527 1.363 . S
C530 N528 1.356 . S
C531 C525 1.363 . S
C531 C526 1.379 . S
C531 N529 1.356 . S
N532 C524 1.356 . S
N532 H538 0.984 . S
N532 H539 0.984 . S
N533 C526 1.356 . S
N533 H536 0.984 . S
N533 H537 0.985 . S
H534 N529 0.984 . S
H535 N529 0.985 . S
H536 N533 0.984 . S
H537 N533 0.985 . S
H538 N532 0.984 . S
H539 N532 0.984 . S
H540 N528 0.984 . S
H541 N528 0.985 . S
C542 C543 1.363 . S
C542 C548 1.379 . S
C542 N550 1.356 . S
C543 C542 1.363 . S
C543 C549 1.363 . S
C544 C545 1.363 . S
C544 C549 1.379 . S
C544 N551 1.356 . S
C545 C544 1.363 . S
C545 C548 1.363 . S
N546 C548 1.356 . S
N546 H558 0.984 . S
N546 H559 0.985 . S
N547 C549 1.356 . S
N547 H552 0.984 . S
N547 H553 0.985 . S
C548 C542 1.379 . S
C548 C545 1.363 . S
C548 N546 1.356 . S
C549 C543 1.363 . S
C549 C544 1.379 . S
C549 N547 1.356 . S
N550 C542 1.356 . S
N550 H556 0.984 . S
N550 H557 0.984 . S
N551 C544 1.356 . S
N551 H554 0.984 . S
N551 H555 0.985 . S
H552 N547 0.984 . S
H553 N547 0.985 . S
H554 N551 0.984 . S
H555 N551 0.985 . S
H556 N550 0.984 . S
H557 N550 0.984 . S
H558 N546 0.984 . S
H559 N546 0.985 . S
C560 C561 1.363 . S
C560 C566 1.379 . S
C560 N568 1.356 . S
C561 C560 1.363 . S
C561 C567 1.363 . S
C562 C563 1.363 . S
C562 C567 1.379 . S
C562 N569 1.356 . S
C563 C562 1.363 . S
C563 C566 1.363 . S
N564 C566 1.356 . S
N564 H576 0.984 . S
N564 H577 0.985 . S
N565 C567 1.356 . S
N565 H570 0.984 . S
N565 H571 0.985 . S
C566 C560 1.379 . S
C566 C563 1.363 . S
C566 N564 1.356 . S
C567 C561 1.363 . S
C567 C562 1.379 . S
C567 N565 1.356 . S
N568 C560 1.356 . S
N568 H574 0.984 . S
N568 H575 0.984 . S
N569 C562 1.356 . S
N569 H572 0.984 . S
N569 H573 0.985 . S
H570 N565 0.984 . S
H571 N565 0.985 . S
H572 N569 0.984 . S
H573 N569 0.985 . S
H574 N568 0.984 . S
H575 N568 0.984 . S
H576 N564 0.984 . S
H577 N564 0.985 . S
C578 C579 1.363 . S
C578 C584 1.379 . S
C578 N586 1.356 . S
C579 C578 1.363 . S
C579 C585 1.363 . S
C580 C581 1.363 . S
C580 C585 1.379 . S
C580 N587 1.356 . S
C581 C580 1.363 . S
C581 C584 1.363 . S
N582 C584 1.356 . S
N582 H594 0.984 . S
N582 H595 0.985 . S
N583 C585 1.356 . S
N583 H588 0.984 . S
N583 H589 0.985 . S
C584 C578 1.379 . S
C584 C581 1.363 . S
C584 N582 1.356 . S
C585 C579 1.363 . S
C585 C580 1.379 . S
C585 N583 1.356 . S
N586 C578 1.356 . S
N586 H592 0.984 . S
N586 H593 0.984 . S
N587 C580 1.356 . S
N587 H590 0.984 . S
N587 H591 0.985 . S
H588 N583 0.984 . S
H589 N583 0.985 . S
H590 N587 0.984 . S
H591 N587 0.985 . S
H592 N586 0.984 . S
H593 N586 0.984 . S
H594 N582 0.984 . S
H595 N582 0.985 . S
C596 C597 1.363 . S
C596 C602 1.379 . S
C596 N604 1.356 . S
C597 C596 1.363 . S
C597 C603 1.363 . S
C598 C599 1.363 1_554 S
C598 C603 1.379 1_554 S
C598 N605 1.356 . S
C599 C598 1.363 1_556 S
C599 C602 1.363 . S
N600 C602 1.356 . S
N600 H612 0.984 . S
N600 H613 0.985 . S
N601 C603 1.356 . S
N601 H606 0.984 . S
N601 H607 0.985 1_556 S
C602 C596 1.379 . S
C602 C599 1.363 . S
C602 N600 1.356 . S
C603 C597 1.363 . S
C603 C598 1.379 1_556 S
C603 N601 1.356 . S
N604 C596 1.356 . S
N604 H610 0.984 . S
N604 H611 0.984 . S
N605 C598 1.356 . S
N605 H608 0.984 . S
N605 H609 0.985 . S
H606 N601 0.984 . S
H607 N601 0.985 1_554 S
H608 N605 0.984 . S
H609 N605 0.985 . S
H610 N604 0.984 . S
H611 N604 0.984 . S
H612 N600 0.984 . S
H613 N600 0.985 . S
C614 C615 1.363 . S
C614 C620 1.379 . S
C614 N622 1.356 . S
C615 C614 1.363 . S
C615 C621 1.363 . S
C616 C617 1.363 . S
C616 C621 1.379 . S
C616 N623 1.356 . S
C617 C616 1.363 . S
C617 C620 1.363 . S
N618 C620 1.356 . S
N618 H630 0.984 . S
N618 H631 0.985 . S
N619 C621 1.356 . S
N619 H624 0.984 . S
N619 H625 0.985 . S
C620 C614 1.379 . S
C620 C617 1.363 . S
C620 N618 1.356 . S
C621 C615 1.363 . S
C621 C616 1.379 . S
C621 N619 1.356 . S
N622 C614 1.356 . S
N622 H628 0.984 . S
N622 H629 0.984 . S
N623 C616 1.356 . S
N623 H626 0.984 . S
N623 H627 0.985 . S
H624 N619 0.984 . S
H625 N619 0.985 . S
H626 N623 0.984 . S
H627 N623 0.985 . S
H628 N622 0.984 . S
H629 N622 0.984 . S
H630 N618 0.984 . S
H631 N618 0.985 . S
C632 C633 1.363 . S
C632 C638 1.379 . S
C632 N640 1.356 . S
C633 C632 1.363 . S
C633 C639 1.363 . S
C634 C635 1.363 . S
C634 C639 1.379 . S
C634 N641 1.356 . S
C635 C634 1.363 . S
C635 C638 1.363 . S
N636 C638 1.356 . S
N636 H648 0.984 . S
N636 H649 0.985 . S
N637 C639 1.356 . S
N637 H642 0.984 . S
N637 H643 0.985 . S
C638 C632 1.379 . S
C638 C635 1.363 . S
C638 N636 1.356 . S
C639 C633 1.363 . S
C639 C634 1.379 . S
C639 N637 1.356 . S
N640 C632 1.356 . S
N640 H646 0.984 . S
N640 H647 0.984 . S
N641 C634 1.356 . S
N641 H644 0.984 . S
N641 H645 0.985 . S
H642 N637 0.984 . S
H643 N637 0.985 . S
H644 N641 0.984 . S
H645 N641 0.985 . S
H646 N640 0.984 . S
H647 N640 0.984 . S
H648 N636 0.984 . S
H649 N636 0.985 . S
C650 C651 1.363 . S
C650 C656 1.379 . S
C650 N658 1.356 . S
C651 C650 1.363 . S
C651 C657 1.363 . S
C652 C653 1.363 . S
C652 C657 1.379 . S
C652 N659 1.356 . S
C653 C652 1.363 . S
C653 C656 1.363 . S
N654 C656 1.356 . S
N654 H666 0.984 . S
N654 H667 0.985 . S
N655 C657 1.356 . S
N655 H660 0.984 . S
N655 H661 0.985 . S
C656 C650 1.379 . S
C656 C653 1.363 . S
C656 N654 1.356 . S
C657 C651 1.363 . S
C657 C652 1.379 . S
C657 N655 1.356 . S
N658 C650 1.356 . S
N658 H664 0.984 . S
N658 H665 0.984 . S
N659 C652 1.356 . S
N659 H662 0.984 . S
N659 H663 0.985 . S
H660 N655 0.984 . S
H661 N655 0.985 . S
H662 N659 0.984 . S
H663 N659 0.985 . S
H664 N658 0.984 . S
H665 N658 0.984 . S
H666 N654 0.984 . S
H667 N654 0.985 . S
C668 C669 1.363 . S
C668 C674 1.379 . S
C668 N676 1.356 . S
C669 C668 1.363 . S
C669 C675 1.363 . S
C670 C671 1.363 . S
C670 C675 1.379 . S
C670 N677 1.356 . S
C671 C670 1.363 . S
C671 C674 1.363 . S
N672 C674 1.356 . S
N672 H684 0.984 . S
N672 H685 0.985 . S
N673 C675 1.356 . S
N673 H678 0.984 . S
N673 H679 0.985 . S
C674 C668 1.379 . S
C674 C671 1.363 . S
C674 N672 1.356 . S
C675 C669 1.363 . S
C675 C670 1.379 . S
C675 N673 1.356 . S
N676 C668 1.356 . S
N676 H682 0.984 . S
N676 H683 0.984 . S
N677 C670 1.356 . S
N677 H680 0.984 . S
N677 H681 0.985 . S
H678 N673 0.984 . S
H679 N673 0.985 . S
H680 N677 0.984 . S
H681 N677 0.985 . S
H682 N676 0.984 . S
H683 N676 0.984 . S
H684 N672 0.984 . S
H685 N672 0.985 . S
C686 C687 1.363 . S
C686 C692 1.379 . S
C686 N694 1.356 . S
C687 C686 1.363 . S
C687 C693 1.363 . S
C688 C689 1.363 . S
C688 C693 1.379 . S
C688 N695 1.352 1_556 S
C689 C688 1.363 . S
C689 C692 1.363 . S
N690 C692 1.356 . S
N690 H702 0.984 . S
N690 H703 0.985 1_556 S
N691 C693 1.356 . S
N691 H696 0.984 . S
N691 H697 0.985 . S
C692 C686 1.379 . S
C692 C689 1.363 . S
C692 N690 1.356 . S
C693 C687 1.363 . S
C693 C688 1.379 . S
C693 N691 1.356 . S
N694 C686 1.356 . S
N694 H700 0.984 . S
N694 H701 0.984 . S
N695 C688 1.352 1_554 S
N695 H698 0.990 . S
N695 H699 0.984 1_554 S
H696 N691 0.984 . S
H697 N691 0.985 . S
H698 N695 0.990 . S
H699 N695 0.984 1_556 S
H700 N694 0.984 . S
H701 N694 0.984 . S
H702 N690 0.984 . S
H703 N690 0.985 1_554 S
C704 C705 1.363 . S
C704 C710 1.379 . S
C704 N712 1.356 . S
C705 C704 1.363 . S
C705 C711 1.363 . S
C706 C707 1.363 . S
C706 C711 1.379 . S
C706 N713 1.356 . S
C707 C706 1.363 . S
C707 C710 1.363 . S
N708 C710 1.356 . S
N708 H720 0.984 . S
N708 H721 0.985 . S
N709 C711 1.356 . S
N709 H714 0.984 . S
N709 H715 0.985 . S
C710 C704 1.379 . S
C710 C707 1.363 . S
C710 N708 1.356 . S
C711 C705 1.363 . S
C711 C706 1.379 . S
C711 N709 1.356 . S
N712 C704 1.356 . S
N712 H718 0.984 . S
N712 H719 0.984 . S
N713 C706 1.356 . S
N713 H716 0.984 . S
N713 H717 0.985 . S
H714 N709 0.984 . S
H715 N709 0.985 . S
H716 N713 0.984 . S
H717 N713 0.985 . S
H718 N712 0.984 . S
H719 N712 0.984 . S
H720 N708 0.984 . S
H721 N708 0.985 . S
C722 C723 1.363 1_545 S
C722 C728 1.379 . S
C722 N730 1.356 . S
C723 C722 1.363 1_565 S
C723 C729 1.363 . S
C724 C725 1.363 1_564 S
C724 C729 1.379 . S
C724 N731 1.356 1_554 S
C725 C724 1.363 1_546 S
C725 C728 1.363 1_556 S
N726 C728 1.366 . S
N726 H738 0.990 . S
N726 H739 0.969 1_554 S
N727 C729 1.356 . S
N727 H732 0.984 . S
N727 H733 0.985 . S
C728 C722 1.379 . S
C728 C725 1.363 1_554 S
C728 N726 1.366 . S
C729 C723 1.363 . S
C729 C724 1.379 . S
C729 N727 1.356 . S
N730 C722 1.356 . S
N730 H736 0.984 . S
N730 H737 0.984 . S
N731 C724 1.356 1_556 S
N731 H734 0.984 . S
N731 H735 0.985 . S
H732 N727 0.984 . S
H733 N727 0.985 . S
H734 N731 0.984 . S
H735 N731 0.985 . S
H736 N730 0.984 . S
H737 N730 0.984 . S
H738 N726 0.990 . S
H739 N726 0.969 1_556 S
C740 C741 1.363 . S
C740 C746 1.379 . S
C740 N748 1.356 . S
C741 C740 1.363 . S
C741 C747 1.363 . S
C742 C743 1.363 . S
C742 C747 1.379 . S
C742 N749 1.356 . S
C743 C742 1.363 . S
C743 C746 1.363 . S
N744 C746 1.356 . S
N744 H756 0.984 . S
N744 H757 0.985 . S
N745 C747 1.356 . S
N745 H750 0.984 . S
N745 H751 0.985 . S
C746 C740 1.379 . S
C746 C743 1.363 . S
C746 N744 1.356 . S
C747 C741 1.363 . S
C747 C742 1.379 . S
C747 N745 1.356 . S
N748 C740 1.356 . S
N748 H754 0.984 . S
N748 H755 0.984 . S
N749 C742 1.356 . S
N749 H752 0.984 . S
N749 H753 0.985 . S
H750 N745 0.984 . S
H751 N745 0.985 . S
H752 N749 0.984 . S
H753 N749 0.985 . S
H754 N748 0.984 . S
H755 N748 0.984 . S
H756 N744 0.984 . S
H757 N744 0.985 . S
C758 C759 1.363 . S
C758 C764 1.379 . S
C758 N766 1.356 . S
C759 C758 1.363 . S
C759 C765 1.363 1_545 S
C760 C761 1.363 . S
C760 C765 1.379 . S
C760 N767 1.356 . S
C761 C760 1.363 . S
C761 C764 1.363 1_565 S
N762 C764 1.356 . S
N762 H774 0.984 . S
N762 H775 0.985 . S
N763 C765 1.356 . S
N763 H768 0.984 . S
N763 H769 0.985 . S
C764 C758 1.379 . S
C764 C761 1.363 1_545 S
C764 N762 1.356 . S
C765 C759 1.363 1_565 S
C765 C760 1.379 . S
C765 N763 1.356 . S
N766 C758 1.356 . S
N766 H772 0.984 . S
N766 H773 0.984 . S
N767 C760 1.356 . S
N767 H770 0.984 . S
N767 H771 0.985 . S
H768 N763 0.984 . S
H769 N763 0.985 . S
H770 N767 0.984 . S
H771 N767 0.985 . S
H772 N766 0.984 . S
H773 N766 0.984 . S
H774 N762 0.984 . S
H775 N762 0.985 . S
C776 C777 1.363 . S
C776 C782 1.379 . S
C776 N784 1.356 . S
C777 C776 1.363 . S
C777 C783 1.363 . S
C778 C779 1.363 . S
C778 C783 1.379 . S
C778 N785 1.356 . S
C779 C778 1.363 . S
C779 C782 1.363 . S
N780 C782 1.356 . S
N780 H792 0.984 . S
N780 H793 0.985 . S
N781 C783 1.356 . S
N781 H786 0.984 . S
N781 H787 0.985 . S
C782 C776 1.379 . S
C782 C779 1.363 . S
C782 N780 1.356 . S
C783 C777 1.363 . S
C783 C778 1.379 . S
C783 N781 1.356 . S
N784 C776 1.356 . S
N784 H790 0.984 . S
N784 H791 0.984 . S
N785 C778 1.356 . S
N785 H788 0.984 . S
N785 H789 0.985 . S
H786 N781 0.984 . S
H787 N781 0.985 . S
H788 N785 0.984 . S
H789 N785 0.985 . S
H790 N784 0.984 . S
H791 N784 0.984 . S
H792 N780 0.984 . S
H793 N780 0.985 . S
C794 C795 1.363 1_564 S
C794 C800 1.379 . S
C794 N802 1.356 1_554 S
C795 C794 1.363 1_546 S
C795 C801 1.363 1_556 S
C796 C797 1.363 1_545 S
C796 C801 1.379 . S
C796 N803 1.356 . S
C797 C796 1.363 1_565 S
C797 C800 1.363 . S
N798 C800 1.356 . S
N798 H810 0.984 . S
N798 H811 0.985 . S
N799 C801 1.356 . S
N799 H804 0.984 1_554 S
N799 H805 0.985 . S
C800 C794 1.379 . S
C800 C797 1.363 . S
C800 N798 1.356 . S
C801 C795 1.363 1_554 S
C801 C796 1.379 . S
C801 N799 1.356 . S
N802 C794 1.356 1_556 S
N802 H808 0.984 . S
N802 H809 0.984 . S
N803 C796 1.356 . S
N803 H806 0.984 . S
N803 H807 0.985 . S
H804 N799 0.984 1_556 S
H805 N799 0.985 . S
H806 N803 0.984 . S
H807 N803 0.985 . S
H808 N802 0.984 . S
H809 N802 0.984 . S
H810 N798 0.984 . S
H811 N798 0.985 . S
C812 C813 1.363 . S
C812 C818 1.379 . S
C812 N820 1.356 . S
C813 C812 1.363 . S
C813 C819 1.363 . S
C814 C815 1.363 . S
C814 C819 1.379 . S
C814 N821 1.356 . S
C815 C814 1.363 . S
C815 C818 1.363 . S
N816 C818 1.356 . S
N816 H828 0.984 . S
N816 H829 0.985 . S
N817 C819 1.356 . S
N817 H822 0.984 . S
N817 H823 0.985 . S
C818 C812 1.379 . S
C818 C815 1.363 . S
C818 N816 1.356 . S
C819 C813 1.363 . S
C819 C814 1.379 . S
C819 N817 1.356 . S
N820 C812 1.356 . S
N820 H826 0.984 . S
N820 H827 0.984 . S
N821 C814 1.356 . S
N821 H824 0.984 . S
N821 H825 0.985 . S
H822 N817 0.984 . S
H823 N817 0.985 . S
H824 N821 0.984 . S
H825 N821 0.985 . S
H826 N820 0.984 . S
H827 N820 0.984 . S
H828 N816 0.984 . S
H829 N816 0.985 . S
C830 C831 1.363 . S
C830 C836 1.379 . S
C830 N838 1.356 . S
C831 C830 1.363 . S
C831 C837 1.363 1_545 S
C832 C833 1.363 . S
C832 C837 1.379 . S
C832 N839 1.356 . S
C833 C832 1.363 . S
C833 C836 1.363 1_565 S
N834 C836 1.356 . S
N834 H846 0.984 . S
N834 H847 0.985 . S
N835 C837 1.356 . S
N835 H840 0.984 . S
N835 H841 0.985 . S
C836 C830 1.379 . S
C836 C833 1.363 1_545 S
C836 N834 1.356 . S
C837 C831 1.363 1_565 S
C837 C832 1.379 . S
C837 N835 1.356 . S
N838 C830 1.356 . S
N838 H844 0.984 . S
N838 H845 0.984 . S
N839 C832 1.356 . S
N839 H842 0.984 . S
N839 H843 0.985 . S
H840 N835 0.984 . S
H841 N835 0.985 . S
H842 N839 0.984 . S
H843 N839 0.985 . S
H844 N838 0.984 . S
H845 N838 0.984 . S
H846 N834 0.984 . S
H847 N834 0.985 . S
C848 C849 1.363 . S
C848 C854 1.379 . S
C848 N856 1.356 . S
C849 C848 1.363 . S
C849 C855 1.363 . S
C850 C851 1.363 . S
C850 C855 1.379 . S
C850 N857 1.356 . S
C851 C850 1.363 . S
C851 C854 1.363 . S
N852 C854 1.356 . S
N852 H864 0.984 . S
N852 H865 0.985 . S
N853 C855 1.356 . S
N853 H858 0.984 . S
N853 H859 0.985 . S
C854 C848 1.379 . S
C854 C851 1.363 . S
C854 N852 1.356 . S
C855 C849 1.363 . S
C855 C850 1.379 . S
C855 N853 1.356 . S
N856 C848 1.356 . S
N856 H862 0.984 . S
N856 H863 0.984 . S
N857 C850 1.356 . S
N857 H860 0.984 . S
N857 H861 0.985 . S
H858 N853 0.984 . S
H859 N853 0.985 . S
H860 N857 0.984 . S
H861 N857 0.985 . S
H862 N856 0.984 . S
H863 N856 0.984 . S
H864 N852 0.984 . S
H865 N852 0.985 . S
C866 C867 1.363 . S
C866 C872 1.379 . S
C866 N874 1.356 . S
C867 C866 1.363 . S
C867 C873 1.363 . S
C868 C869 1.363 . S
C868 C873 1.379 . S
C868 N875 1.356 . S
C869 C868 1.363 . S
C869 C872 1.363 . S
N870 C872 1.356 . S
N870 H882 0.984 . S
N870 H883 0.985 . S
N871 C873 1.356 . S
N871 H876 0.984 . S
N871 H877 0.985 . S
C872 C866 1.379 . S
C872 C869 1.363 . S
C872 N870 1.356 . S
C873 C867 1.363 . S
C873 C868 1.379 . S
C873 N871 1.356 . S
N874 C866 1.356 . S
N874 H880 0.984 . S
N874 H881 0.984 . S
N875 C868 1.356 . S
N875 H878 0.984 . S
N875 H879 0.985 . S
H876 N871 0.984 . S
H877 N871 0.985 . S
H878 N875 0.984 . S
H879 N875 0.985 . S
H880 N874 0.984 . S
H881 N874 0.984 . S
H882 N870 0.984 . S
H883 N870 0.985 . S
C884 C885 1.363 . S
C884 C890 1.379 . S
C884 N892 1.356 . S
C885 C884 1.363 . S
C885 C891 1.363 . S
C886 C887 1.363 . S
C886 C891 1.379 . S
C886 N893 1.356 . S
C887 C886 1.363 . S
C887 C890 1.363 . S
N888 C890 1.356 . S
N888 H900 0.984 . S
N888 H901 0.985 . S
N889 C891 1.356 . S
N889 H894 0.984 . S
N889 H895 0.985 . S
C890 C884 1.379 . S
C890 C887 1.363 . S
C890 N888 1.356 . S
C891 C885 1.363 . S
C891 C886 1.379 . S
C891 N889 1.356 . S
N892 C884 1.356 . S
N892 H898 0.984 . S
N892 H899 0.984 . S
N893 C886 1.356 . S
N893 H896 0.984 . S
N893 H897 0.985 . S
H894 N889 0.984 . S
H895 N889 0.985 . S
H896 N893 0.984 . S
H897 N893 0.985 . S
H898 N892 0.984 . S
H899 N892 0.984 . S
H900 N888 0.984 . S
H901 N888 0.985 . S
C902 C903 1.363 . S
C902 C908 1.379 . S
C902 N910 1.356 . S
C903 C902 1.363 . S
C903 C909 1.363 . S
C904 C905 1.363 1_554 S
C904 C909 1.379 . S
C904 N911 1.354 1_554 S
C905 C904 1.363 1_556 S
C905 C908 1.363 1_556 S
N906 C908 1.356 1_556 S
N906 H918 0.984 . S
N906 H919 0.985 . S
N907 C909 1.356 . S
N907 H912 0.984 . S
N907 H913 0.985 . S
C908 C902 1.379 . S
C908 C905 1.363 1_554 S
C908 N906 1.356 1_554 S
C909 C903 1.363 . S
C909 C904 1.379 . S
C909 N907 1.356 . S
N910 C902 1.356 . S
N910 H916 0.984 . S
N910 H917 0.984 . S
N911 C904 1.354 1_556 S
N911 H914 0.987 . S
N911 H915 0.983 1_556 S
H912 N907 0.984 . S
H913 N907 0.985 . S
H914 N911 0.987 . S
H915 N911 0.983 1_554 S
H916 N910 0.984 . S
H917 N910 0.984 . S
H918 N906 0.984 . S
H919 N906 0.985 . S
C920 C921 1.363 . S
C920 C926 1.379 . S
C920 N928 1.356 . S
C921 C920 1.363 . S
C921 C927 1.363 . S
C922 C923 1.363 . S
C922 C927 1.379 . S
C922 N929 1.356 . S
C923 C922 1.363 . S
C923 C926 1.363 . S
N924 C926 1.356 . S
N924 H936 0.984 . S
N924 H937 0.985 . S
N925 C927 1.356 . S
N925 H930 0.984 . S
N925 H931 0.985 . S
C926 C920 1.379 . S
C926 C923 1.363 . S
C926 N924 1.356 . S
C927 C921 1.363 . S
C927 C922 1.379 . S
C927 N925 1.356 . S
N928 C920 1.356 . S
N928 H934 0.984 . S
N928 H935 0.984 . S
N929 C922 1.356 . S
N929 H932 0.984 . S
N929 H933 0.985 . S
H930 N925 0.984 . S
H931 N925 0.985 . S
H932 N929 0.984 . S
H933 N929 0.985 . S
H934 N928 0.984 . S
H935 N928 0.984 . S
H936 N924 0.984 . S
H937 N924 0.985 . S
C938 C939 1.363 . S
C938 C944 1.379 . S
C938 N946 1.356 . S
C939 C938 1.363 . S
C939 C945 1.363 . S
C940 C941 1.363 . S
C940 C945 1.379 . S
C940 N947 1.356 . S
C941 C940 1.363 . S
C941 C944 1.363 . S
N942 C944 1.356 . S
N942 H954 0.984 . S
N942 H955 0.985 . S
N943 C945 1.356 . S
N943 H948 0.984 . S
N943 H949 0.985 . S
C944 C938 1.379 . S
C944 C941 1.363 . S
C944 N942 1.356 . S
C945 C939 1.363 . S
C945 C940 1.379 . S
C945 N943 1.356 . S
N946 C938 1.356 . S
N946 H952 0.984 . S
N946 H953 0.984 . S
N947 C940 1.356 . S
N947 H950 0.984 . S
N947 H951 0.985 . S
H948 N943 0.984 . S
H949 N943 0.985 . S
H950 N947 0.984 . S
H951 N947 0.985 . S
H952 N946 0.984 . S
H953 N946 0.984 . S
H954 N942 0.984 . S
H955 N942 0.985 . S
C956 C957 1.363 . S
C956 C962 1.379 . S
C956 N964 1.356 . S
C957 C956 1.363 . S
C957 C963 1.363 . S
C958 C959 1.363 . S
C958 C963 1.379 . S
C958 N965 1.356 . S
C959 C958 1.363 . S
C959 C962 1.363 . S
N960 C962 1.356 . S
N960 H972 0.984 . S
N960 H973 0.985 . S
N961 C963 1.356 . S
N961 H966 0.984 . S
N961 H967 0.985 . S
C962 C956 1.379 . S
C962 C959 1.363 . S
C962 N960 1.356 . S
C963 C957 1.363 . S
C963 C958 1.379 . S
C963 N961 1.356 . S
N964 C956 1.356 . S
N964 H970 0.984 . S
N964 H971 0.984 . S
N965 C958 1.356 . S
N965 H968 0.984 . S
N965 H969 0.985 . S
H966 N961 0.984 . S
H967 N961 0.985 . S
H968 N965 0.984 . S
H969 N965 0.985 . S
H970 N964 0.984 . S
H971 N964 0.984 . S
H972 N960 0.984 . S
H973 N960 0.985 . S
C974 C975 1.363 . S
C974 C980 1.379 . S
C974 N982 1.356 . S
C975 C974 1.363 . S
C975 C981 1.363 . S
C976 C977 1.363 1_554 S
C976 C981 1.379 . S
C976 N983 1.356 1_554 S
C977 C976 1.363 1_556 S
C977 C980 1.363 1_556 S
N978 C980 1.356 1_556 S
N978 H990 0.984 1_556 S
N978 H991 0.984 . S
N979 C981 1.356 . S
N979 H984 0.984 . S
N979 H985 0.985 . S
C980 C974 1.379 . S
C980 C977 1.363 1_554 S
C980 N978 1.356 1_554 S
C981 C975 1.363 . S
C981 C976 1.379 . S
C981 N979 1.356 . S
N982 C974 1.356 . S
N982 H988 0.984 . S
N982 H989 0.984 . S
N983 C976 1.356 1_556 S
N983 H986 0.984 . S
N983 H987 0.985 . S
H984 N979 0.984 . S
H985 N979 0.985 . S
H986 N983 0.984 . S
H987 N983 0.985 . S
H988 N982 0.984 . S
H989 N982 0.984 . S
H990 N978 0.984 1_554 S
H991 N978 0.984 . S
C992 C993 1.363 . S
C992 C998 1.379 . S
C992 N1000 1.347 1_554 S
C993 C992 1.363 . S
C993 C999 1.363 . S
C994 C995 1.363 . S
C994 C999 1.379 . S
C994 N1001 1.356 . S
C995 C994 1.363 . S
C995 C998 1.363 . S
N996 C998 1.347 1_556 S
N996 H1008 0.998 . S
N996 H1009 0.980 1_556 S
N997 C999 1.356 . S
N997 H1002 0.984 . S
N997 H1003 0.985 . S
C998 C992 1.379 . S
C998 C995 1.363 . S
C998 N996 1.347 1_554 S
C999 C993 1.363 . S
C999 C994 1.379 . S
C999 N997 1.356 . S
N1000 C992 1.347 1_556 S
N1000 H1006 0.998 . S
N1000 H1007 0.981 1_556 S
N1001 C994 1.356 . S
N1001 H1004 0.984 . S
N1001 H1005 0.985 . S
H1002 N997 0.984 . S
H1003 N997 0.985 . S
H1004 N1001 0.984 . S
H1005 N1001 0.985 . S
H1006 N1000 0.998 . S
H1007 N1000 0.981 1_554 S
H1008 N996 0.998 . S
H1009 N996 0.980 1_554 S
C1010 C1011 1.363 . S
C1010 C1016 1.379 1_455 S
C1010 N1018 1.356 . S
C1011 C1010 1.363 . S
C1011 C1017 1.363 . S
C1012 C1013 1.363 . S
C1012 C1017 1.379 1_655 S
C1012 N1019 1.356 . S
C1013 C1012 1.363 . S
C1013 C1016 1.363 . S
N1014 C1016 1.356 . S
N1014 H1026 0.984 . S
N1014 H1027 0.985 . S
N1015 C1017 1.356 . S
N1015 H1020 0.984 . S
N1015 H1021 0.985 . S
C1016 C1010 1.379 1_655 S
C1016 C1013 1.363 . S
C1016 N1014 1.356 . S
C1017 C1011 1.363 . S
C1017 C1012 1.379 1_455 S
C1017 N1015 1.356 . S
N1018 C1010 1.356 . S
N1018 H1024 0.984 . S
N1018 H1025 0.984 . S
N1019 C1012 1.356 . S
N1019 H1022 0.984 . S
N1019 H1023 0.985 . S
H1020 N1015 0.984 . S
H1021 N1015 0.985 . S
H1022 N1019 0.984 . S
H1023 N1019 0.985 . S
H1024 N1018 0.984 . S
H1025 N1018 0.984 . S
H1026 N1014 0.984 . S
H1027 N1014 0.985 . S
C1028 C1029 1.363 . S
C1028 C1034 1.379 . S
C1028 N1036 1.356 . S
C1029 C1028 1.363 . S
C1029 C1035 1.363 . S
C1030 C1031 1.363 . S
C1030 C1035 1.379 . S
C1030 N1037 1.356 . S
C1031 C1030 1.363 . S
C1031 C1034 1.363 . S
N1032 C1034 1.356 . S
N1032 H1044 0.984 . S
N1032 H1045 0.985 . S
N1033 C1035 1.356 . S
N1033 H1038 0.984 . S
N1033 H1039 0.985 . S
C1034 C1028 1.379 . S
C1034 C1031 1.363 . S
C1034 N1032 1.356 . S
C1035 C1029 1.363 . S
C1035 C1030 1.379 . S
C1035 N1033 1.356 . S
N1036 C1028 1.356 . S
N1036 H1042 0.984 . S
N1036 H1043 0.984 . S
N1037 C1030 1.356 . S
N1037 H1040 0.984 . S
N1037 H1041 0.985 . S
H1038 N1033 0.984 . S
H1039 N1033 0.985 . S
H1040 N1037 0.984 . S
H1041 N1037 0.985 . S
H1042 N1036 0.984 . S
H1043 N1036 0.984 . S
H1044 N1032 0.984 . S
H1045 N1032 0.985 . S
C1046 C1047 1.363 . S
C1046 C1052 1.379 . S
C1046 N1054 1.356 . S
C1047 C1046 1.363 . S
C1047 C1053 1.363 . S
C1048 C1049 1.363 . S
C1048 C1053 1.379 . S
C1048 N1055 1.356 . S
C1049 C1048 1.363 . S
C1049 C1052 1.363 . S
N1050 C1052 1.356 . S
N1050 H1062 0.984 . S
N1050 H1063 0.985 . S
N1051 C1053 1.356 . S
N1051 H1056 0.984 . S
N1051 H1057 0.985 . S
C1052 C1046 1.379 . S
C1052 C1049 1.363 . S
C1052 N1050 1.356 . S
C1053 C1047 1.363 . S
C1053 C1048 1.379 . S
C1053 N1051 1.356 . S
N1054 C1046 1.356 . S
N1054 H1060 0.984 . S
N1054 H1061 0.984 . S
N1055 C1048 1.356 . S
N1055 H1058 0.984 . S
N1055 H1059 0.985 . S
H1056 N1051 0.984 . S
H1057 N1051 0.985 . S
H1058 N1055 0.984 . S
H1059 N1055 0.985 . S
H1060 N1054 0.984 . S
H1061 N1054 0.984 . S
H1062 N1050 0.984 . S
H1063 N1050 0.985 . S
C1064 C1065 1.363 . S
C1064 C1070 1.379 . S
C1064 N1072 1.356 1_554 S
C1065 C1064 1.363 . S
C1065 C1071 1.363 . S
C1066 C1067 1.363 . S
C1066 C1071 1.379 . S
C1066 N1073 1.356 . S
C1067 C1066 1.363 . S
C1067 C1070 1.363 . S
N1068 C1070 1.356 1_556 S
N1068 H1080 0.984 . S
N1068 H1081 0.985 . S
N1069 C1071 1.356 . S
N1069 H1074 0.984 . S
N1069 H1075 0.985 . S
C1070 C1064 1.379 . S
C1070 C1067 1.363 . S
C1070 N1068 1.356 1_554 S
C1071 C1065 1.363 . S
C1071 C1066 1.379 . S
C1071 N1069 1.356 . S
N1072 C1064 1.356 1_556 S
N1072 H1078 0.984 . S
N1072 H1079 0.984 . S
N1073 C1066 1.356 . S
N1073 H1076 0.984 . S
N1073 H1077 0.985 . S
H1074 N1069 0.984 . S
H1075 N1069 0.985 . S
H1076 N1073 0.984 . S
H1077 N1073 0.985 . S
H1078 N1072 0.984 . S
H1079 N1072 0.984 . S
H1080 N1068 0.984 . S
H1081 N1068 0.985 . S
C1082 C1083 1.363 . S
C1082 C1088 1.379 . S
C1082 N1090 1.356 . S
C1083 C1082 1.363 . S
C1083 C1089 1.363 . S
C1084 C1085 1.363 . S
C1084 C1089 1.379 . S
C1084 N1091 1.356 . S
C1085 C1084 1.363 . S
C1085 C1088 1.363 . S
N1086 C1088 1.356 . S
N1086 H1098 0.984 . S
N1086 H1099 0.985 . S
N1087 C1089 1.356 . S
N1087 H1092 0.984 . S
N1087 H1093 0.985 . S
C1088 C1082 1.379 . S
C1088 C1085 1.363 . S
C1088 N1086 1.356 . S
C1089 C1083 1.363 . S
C1089 C1084 1.379 . S
C1089 N1087 1.356 . S
N1090 C1082 1.356 . S
N1090 H1096 0.984 . S
N1090 H1097 0.984 . S
N1091 C1084 1.356 . S
N1091 H1094 0.984 . S
N1091 H1095 0.985 . S
H1092 N1087 0.984 . S
H1093 N1087 0.985 . S
H1094 N1091 0.984 . S
H1095 N1091 0.985 . S
H1096 N1090 0.984 . S
H1097 N1090 0.984 . S
H1098 N1086 0.984 . S
H1099 N1086 0.985 . S
C1100 C1101 1.363 . S
C1100 C1106 1.379 . S
C1100 N1108 1.356 . S
C1101 C1100 1.363 . S
C1101 C1107 1.363 . S
C1102 C1103 1.363 . S
C1102 C1107 1.379 . S
C1102 N1109 1.356 . S
C1103 C1102 1.363 . S
C1103 C1106 1.363 . S
N1104 C1106 1.356 . S
N1104 H1116 0.984 . S
N1104 H1117 0.985 . S
N1105 C1107 1.356 . S
N1105 H1110 0.984 . S
N1105 H1111 0.985 . S
C1106 C1100 1.379 . S
C1106 C1103 1.363 . S
C1106 N1104 1.356 . S
C1107 C1101 1.363 . S
C1107 C1102 1.379 . S
C1107 N1105 1.356 . S
N1108 C1100 1.356 . S
N1108 H1114 0.984 . S
N1108 H1115 0.984 . S
N1109 C1102 1.356 . S
N1109 H1112 0.984 . S
N1109 H1113 0.985 . S
H1110 N1105 0.984 . S
H1111 N1105 0.985 . S
H1112 N1109 0.984 . S
H1113 N1109 0.985 . S
H1114 N1108 0.984 . S
H1115 N1108 0.984 . S
H1116 N1104 0.984 . S
H1117 N1104 0.985 . S
C1118 C1119 1.363 . S
C1118 C1124 1.379 1_655 S
C1118 N1126 1.356 . S
C1119 C1118 1.363 . S
C1119 C1125 1.363 . S
C1120 C1121 1.363 . S
C1120 C1125 1.379 1_455 S
C1120 N1127 1.356 . S
C1121 C1120 1.363 . S
C1121 C1124 1.363 . S
N1122 C1124 1.356 . S
N1122 H1134 0.984 . S
N1122 H1135 0.985 . S
N1123 C1125 1.356 . S
N1123 H1128 0.984 . S
N1123 H1129 0.985 . S
C1124 C1118 1.379 1_455 S
C1124 C1121 1.363 . S
C1124 N1122 1.356 . S
C1125 C1119 1.363 . S
C1125 C1120 1.379 1_655 S
C1125 N1123 1.356 . S
N1126 C1118 1.356 . S
N1126 H1132 0.984 . S
N1126 H1133 0.984 . S
N1127 C1120 1.356 . S
N1127 H1130 0.984 . S
N1127 H1131 0.985 . S
H1128 N1123 0.984 . S
H1129 N1123 0.985 . S
H1130 N1127 0.984 . S
H1131 N1127 0.985 . S
H1132 N1126 0.984 . S
H1133 N1126 0.984 . S
H1134 N1122 0.984 . S
H1135 N1122 0.985 . S
C1136 C1137 1.363 . S
C1136 C1142 1.379 . S
C1136 N1144 1.356 . S
C1137 C1136 1.363 . S
C1137 C1143 1.363 . S
C1138 C1139 1.363 . S
C1138 C1143 1.379 . S
C1138 N1145 1.356 1_554 S
C1139 C1138 1.363 . S
C1139 C1142 1.363 . S
N1140 C1142 1.356 . S
N1140 H1152 0.984 . S
N1140 H1153 0.985 . S
N1141 C1143 1.356 1_556 S
N1141 H1146 0.984 . S
N1141 H1147 0.985 . S
C1142 C1136 1.379 . S
C1142 C1139 1.363 . S
C1142 N1140 1.356 . S
C1143 C1137 1.363 . S
C1143 C1138 1.379 . S
C1143 N1141 1.356 1_554 S
N1144 C1136 1.356 . S
N1144 H1150 0.984 . S
N1144 H1151 0.984 . S
N1145 C1138 1.356 1_556 S
N1145 H1148 0.984 . S
N1145 H1149 0.985 . S
H1146 N1141 0.984 . S
H1147 N1141 0.985 . S
H1148 N1145 0.984 . S
H1149 N1145 0.985 . S
H1150 N1144 0.984 . S
H1151 N1144 0.984 . S
H1152 N1140 0.984 . S
H1153 N1140 0.985 . S
C1154 C1155 1.363 . S
C1154 C1160 1.379 . S
C1154 N1162 1.356 . S
C1155 C1154 1.363 . S
C1155 C1161 1.363 . S
C1156 C1157 1.363 . S
C1156 C1161 1.379 . S
C1156 N1163 1.356 . S
C1157 C1156 1.363 . S
C1157 C1160 1.363 . S
N1158 C1160 1.356 . S
N1158 H1170 0.984 . S
N1158 H1171 0.985 . S
N1159 C1161 1.356 . S
N1159 H1164 0.984 . S
N1159 H1165 0.985 . S
C1160 C1154 1.379 . S
C1160 C1157 1.363 . S
C1160 N1158 1.356 . S
C1161 C1155 1.363 . S
C1161 C1156 1.379 . S
C1161 N1159 1.356 . S
N1162 C1154 1.356 . S
N1162 H1168 0.984 . S
N1162 H1169 0.984 . S
N1163 C1156 1.356 . S
N1163 H1166 0.984 . S
N1163 H1167 0.985 . S
H1164 N1159 0.984 . S
H1165 N1159 0.985 . S
H1166 N1163 0.984 . S
H1167 N1163 0.985 . S
H1168 N1162 0.984 . S
H1169 N1162 0.984 . S
H1170 N1158 0.984 . S
H1171 N1158 0.985 . S
C1172 C1173 1.363 . S
C1172 C1178 1.379 . S
C1172 N1180 1.356 . S
C1173 C1172 1.363 . S
C1173 C1179 1.363 . S
C1174 C1175 1.363 . S
C1174 C1179 1.379 . S
C1174 N1181 1.347 1_554 S
C1175 C1174 1.363 . S
C1175 C1178 1.363 . S
N1176 C1178 1.356 . S
N1176 H1188 0.984 . S
N1176 H1189 0.985 . S
N1177 C1179 1.347 1_556 S
N1177 H1182 0.980 1_556 S
N1177 H1183 0.999 . S
C1178 C1172 1.379 . S
C1178 C1175 1.363 . S
C1178 N1176 1.356 . S
C1179 C1173 1.363 . S
C1179 C1174 1.379 . S
C1179 N1177 1.347 1_554 S
N1180 C1172 1.356 . S
N1180 H1186 0.984 . S
N1180 H1187 0.984 . S
N1181 C1174 1.347 1_556 S
N1181 H1184 0.980 1_556 S
N1181 H1185 0.998 . S
H1182 N1177 0.980 1_554 S
H1183 N1177 0.999 . S
H1184 N1181 0.980 1_554 S
H1185 N1181 0.998 . S
H1186 N1180 0.984 . S
H1187 N1180 0.984 . S
H1188 N1176 0.984 . S
H1189 N1176 0.985 . S
C1190 C1191 1.363 . S
C1190 C1196 1.379 . S
C1190 N1198 1.356 . S
C1191 C1190 1.363 . S
C1191 C1197 1.363 . S
C1192 C1193 1.363 . S
C1192 C1197 1.379 . S
C1192 N1199 1.356 . S
C1193 C1192 1.363 . S
C1193 C1196 1.363 . S
N1194 C1196 1.356 . S
N1194 H1206 0.984 . S
N1194 H1207 0.985 . S
N1195 C1197 1.356 . S
N1195 H1200 0.984 . S
N1195 H1201 0.985 . S
C1196 C1190 1.379 . S
C1196 C1193 1.363 . S
C1196 N1194 1.356 . S
C1197 C1191 1.363 . S
C1197 C1192 1.379 . S
C1197 N1195 1.356 . S
N1198 C1190 1.356 . S
N1198 H1204 0.984 . S
N1198 H1205 0.984 . S
N1199 C1192 1.356 . S
N1199 H1202 0.984 . S
N1199 H1203 0.985 . S
H1200 N1195 0.984 . S
H1201 N1195 0.985 . S
H1202 N1199 0.984 . S
H1203 N1199 0.985 . S
H1204 N1198 0.984 . S
H1205 N1198 0.984 . S
H1206 N1194 0.984 . S
H1207 N1194 0.985 . S
C1208 C1209 1.363 . S
C1208 C1214 1.379 . S
C1208 N1216 1.356 . S
C1209 C1208 1.363 . S
C1209 C1215 1.363 . S
C1210 C1211 1.363 . S
C1210 C1215 1.379 . S
C1210 N1217 1.356 . S
C1211 C1210 1.363 . S
C1211 C1214 1.363 . S
N1212 C1214 1.356 . S
N1212 H1224 0.984 . S
N1212 H1225 0.985 . S
N1213 C1215 1.356 . S
N1213 H1218 0.984 . S
N1213 H1219 0.985 . S
C1214 C1208 1.379 . S
C1214 C1211 1.363 . S
C1214 N1212 1.356 . S
C1215 C1209 1.363 . S
C1215 C1210 1.379 . S
C1215 N1213 1.356 . S
N1216 C1208 1.356 . S
N1216 H1222 0.984 . S
N1216 H1223 0.984 . S
N1217 C1210 1.356 . S
N1217 H1220 0.984 . S
N1217 H1221 0.985 . S
H1218 N1213 0.984 . S
H1219 N1213 0.985 . S
H1220 N1217 0.984 . S
H1221 N1217 0.985 . S
H1222 N1216 0.984 . S
H1223 N1216 0.984 . S
H1224 N1212 0.984 . S
H1225 N1212 0.985 . S
C1226 C1227 1.363 . S
C1226 C1232 1.379 1_655 S
C1226 N1234 1.356 . S
C1227 C1226 1.363 . S
C1227 C1233 1.363 . S
C1228 C1229 1.363 . S
C1228 C1233 1.379 1_455 S
C1228 N1235 1.356 . S
C1229 C1228 1.363 . S
C1229 C1232 1.363 . S
N1230 C1232 1.356 . S
N1230 H1242 0.984 . S
N1230 H1243 0.985 . S
N1231 C1233 1.356 . S
N1231 H1236 0.984 . S
N1231 H1237 0.985 . S
C1232 C1226 1.379 1_455 S
C1232 C1229 1.363 . S
C1232 N1230 1.356 . S
C1233 C1227 1.363 . S
C1233 C1228 1.379 1_655 S
C1233 N1231 1.356 . S
N1234 C1226 1.356 . S
N1234 H1240 0.984 . S
N1234 H1241 0.984 . S
N1235 C1228 1.356 . S
N1235 H1238 0.984 . S
N1235 H1239 0.985 . S
H1236 N1231 0.984 . S
H1237 N1231 0.985 . S
H1238 N1235 0.984 . S
H1239 N1235 0.985 . S
H1240 N1234 0.984 . S
H1241 N1234 0.984 . S
H1242 N1230 0.984 . S
H1243 N1230 0.985 . S
C1244 C1245 1.363 . S
C1244 C1250 1.379 1_655 S
C1244 N1252 1.356 . S
C1245 C1244 1.363 . S
C1245 C1251 1.363 . S
C1246 C1247 1.363 . S
C1246 C1251 1.379 1_455 S
C1246 N1253 1.356 . S
C1247 C1246 1.363 . S
C1247 C1250 1.363 . S
N1248 C1250 1.356 . S
N1248 H1260 0.984 . S
N1248 H1261 0.985 . S
N1249 C1251 1.356 . S
N1249 H1254 0.984 . S
N1249 H1255 0.985 . S
C1250 C1244 1.379 1_455 S
C1250 C1247 1.363 . S
C1250 N1248 1.356 . S
C1251 C1245 1.363 . S
C1251 C1246 1.379 1_655 S
C1251 N1249 1.356 . S
N1252 C1244 1.356 . S
N1252 H1258 0.984 . S
N1252 H1259 0.984 . S
N1253 C1246 1.356 . S
N1253 H1256 0.984 . S
N1253 H1257 0.985 . S
H1254 N1249 0.984 . S
H1255 N1249 0.985 . S
H1256 N1253 0.984 . S
H1257 N1253 0.985 . S
H1258 N1252 0.984 . S
H1259 N1252 0.984 . S
H1260 N1248 0.984 . S
H1261 N1248 0.985 . S
C1262 C1263 1.363 . S
C1262 C1268 1.379 . S
C1262 N1270 1.356 . S
C1263 C1262 1.363 . S
C1263 C1269 1.363 . S
C1264 C1265 1.363 . S
C1264 C1269 1.379 . S
C1264 N1271 1.356 . S
C1265 C1264 1.363 . S
C1265 C1268 1.363 . S
N1266 C1268 1.356 . S
N1266 H1278 0.984 . S
N1266 H1279 0.985 . S
N1267 C1269 1.356 . S
N1267 H1272 0.984 . S
N1267 H1273 0.985 . S
C1268 C1262 1.379 . S
C1268 C1265 1.363 . S
C1268 N1266 1.356 . S
C1269 C1263 1.363 . S
C1269 C1264 1.379 . S
C1269 N1267 1.356 . S
N1270 C1262 1.356 . S
N1270 H1276 0.984 . S
N1270 H1277 0.984 . S
N1271 C1264 1.356 . S
N1271 H1274 0.984 . S
N1271 H1275 0.985 . S
H1272 N1267 0.984 . S
H1273 N1267 0.985 . S
H1274 N1271 0.984 . S
H1275 N1271 0.985 . S
H1276 N1270 0.984 . S
H1277 N1270 0.984 . S
H1278 N1266 0.984 . S
H1279 N1266 0.985 . S
C1280 C1281 1.363 . S
C1280 C1286 1.379 . S
C1280 N1288 1.356 . S
C1281 C1280 1.363 . S
C1281 C1287 1.363 . S
C1282 C1283 1.363 . S
C1282 C1287 1.379 . S
C1282 N1289 1.356 . S
C1283 C1282 1.363 . S
C1283 C1286 1.363 . S
N1284 C1286 1.356 . S
N1284 H1296 0.984 . S
N1284 H1297 0.985 . S
N1285 C1287 1.356 . S
N1285 H1290 0.984 . S
N1285 H1291 0.985 . S
C1286 C1280 1.379 . S
C1286 C1283 1.363 . S
C1286 N1284 1.356 . S
C1287 C1281 1.363 . S
C1287 C1282 1.379 . S
C1287 N1285 1.356 . S
N1288 C1280 1.356 . S
N1288 H1294 0.984 . S
N1288 H1295 0.984 . S
N1289 C1282 1.356 . S
N1289 H1292 0.984 . S
N1289 H1293 0.985 . S
H1290 N1285 0.984 . S
H1291 N1285 0.985 . S
H1292 N1289 0.984 . S
H1293 N1289 0.985 . S
H1294 N1288 0.984 . S
H1295 N1288 0.984 . S
H1296 N1284 0.984 . S
H1297 N1284 0.985 . S
C1298 C1299 1.363 1_545 S
C1298 C1304 1.379 . S
C1298 N1306 1.356 . S
C1299 C1298 1.363 1_565 S
C1299 C1305 1.363 . S
C1300 C1301 1.363 1_565 S
C1300 C1305 1.379 . S
C1300 N1307 1.356 . S
C1301 C1300 1.363 1_545 S
C1301 C1304 1.363 . S
N1302 C1304 1.356 . S
N1302 H1314 0.984 . S
N1302 H1315 0.985 . S
N1303 C1305 1.356 . S
N1303 H1308 0.984 . S
N1303 H1309 0.985 . S
C1304 C1298 1.379 . S
C1304 C1301 1.363 . S
C1304 N1302 1.356 . S
C1305 C1299 1.363 . S
C1305 C1300 1.379 . S
C1305 N1303 1.356 . S
N1306 C1298 1.356 . S
N1306 H1312 0.984 . S
N1306 H1313 0.984 . S
N1307 C1300 1.356 . S
N1307 H1310 0.984 . S
N1307 H1311 0.985 . S
H1308 N1303 0.984 . S
H1309 N1303 0.985 . S
H1310 N1307 0.984 . S
H1311 N1307 0.985 . S
H1312 N1306 0.984 . S
H1313 N1306 0.984 . S
H1314 N1302 0.984 . S
H1315 N1302 0.985 . S
C1316 C1317 1.363 . S
C1316 C1322 1.379 . S
C1316 N1324 1.356 . S
C1317 C1316 1.363 . S
C1317 C1323 1.363 . S
C1318 C1319 1.363 . S
C1318 C1323 1.379 . S
C1318 N1325 1.356 . S
C1319 C1318 1.363 . S
C1319 C1322 1.363 . S
N1320 C1322 1.356 . S
N1320 H1332 0.984 . S
N1320 H1333 0.985 . S
N1321 C1323 1.356 . S
N1321 H1326 0.984 . S
N1321 H1327 0.985 . S
C1322 C1316 1.379 . S
C1322 C1319 1.363 . S
C1322 N1320 1.356 . S
C1323 C1317 1.363 . S
C1323 C1318 1.379 . S
C1323 N1321 1.356 . S
N1324 C1316 1.356 . S
N1324 H1330 0.984 . S
N1324 H1331 0.984 . S
N1325 C1318 1.356 . S
N1325 H1328 0.984 . S
N1325 H1329 0.985 . S
H1326 N1321 0.984 . S
H1327 N1321 0.985 . S
H1328 N1325 0.984 . S
H1329 N1325 0.985 . S
H1330 N1324 0.984 . S
H1331 N1324 0.984 . S
H1332 N1320 0.984 . S
H1333 N1320 0.985 . S
C1334 C1335 1.363 . S
C1334 C1340 1.379 . S
C1334 N1342 1.356 . S
C1335 C1334 1.363 . S
C1335 C1341 1.363 1_545 S
C1336 C1337 1.363 . S
C1336 C1341 1.379 . S
C1336 N1343 1.356 . S
C1337 C1336 1.363 . S
C1337 C1340 1.363 1_565 S
N1338 C1340 1.356 . S
N1338 H1350 0.984 . S
N1338 H1351 0.985 . S
N1339 C1341 1.356 1_556 S
N1339 H1344 0.984 . S
N1339 H1345 0.985 . S
C1340 C1334 1.379 . S
C1340 C1337 1.363 1_545 S
C1340 N1338 1.356 . S
C1341 C1335 1.363 1_565 S
C1341 C1336 1.379 . S
C1341 N1339 1.356 1_554 S
N1342 C1334 1.356 . S
N1342 H1348 0.984 . S
N1342 H1349 0.984 1_554 S
N1343 C1336 1.356 . S
N1343 H1346 0.984 . S
N1343 H1347 0.985 . S
H1344 N1339 0.984 . S
H1345 N1339 0.985 . S
H1346 N1343 0.984 . S
H1347 N1343 0.985 . S
H1348 N1342 0.984 . S
H1349 N1342 0.984 1_556 S
H1350 N1338 0.984 . S
H1351 N1338 0.985 . S
C1352 C1353 1.363 . S
C1352 C1358 1.379 . S
C1352 N1360 1.356 . S
C1353 C1352 1.363 . S
C1353 C1359 1.363 . S
C1354 C1355 1.363 . S
C1354 C1359 1.379 . S
C1354 N1361 1.356 . S
C1355 C1354 1.363 . S
C1355 C1358 1.363 . S
N1356 C1358 1.356 . S
N1356 H1368 0.984 . S
N1356 H1369 0.985 . S
N1357 C1359 1.356 . S
N1357 H1362 0.984 . S
N1357 H1363 0.985 . S
C1358 C1352 1.379 . S
C1358 C1355 1.363 . S
C1358 N1356 1.356 . S
C1359 C1353 1.363 . S
C1359 C1354 1.379 . S
C1359 N1357 1.356 . S
N1360 C1352 1.356 . S
N1360 H1366 0.984 . S
N1360 H1367 0.984 . S
N1361 C1354 1.356 . S
N1361 H1364 0.984 . S
N1361 H1365 0.985 . S
H1362 N1357 0.984 . S
H1363 N1357 0.985 . S
H1364 N1361 0.984 . S
H1365 N1361 0.985 . S
H1366 N1360 0.984 . S
H1367 N1360 0.984 . S
H1368 N1356 0.984 . S
H1369 N1356 0.985 . S
C1370 C1371 1.363 1_565 S
C1370 C1376 1.379 . S
C1370 N1378 1.356 . S
C1371 C1370 1.363 1_545 S
C1371 C1377 1.363 . S
C1372 C1373 1.363 1_545 S
C1372 C1377 1.379 . S
C1372 N1379 1.356 . S
C1373 C1372 1.363 1_565 S
C1373 C1376 1.363 . S
N1374 C1376 1.356 . S
N1374 H1386 0.984 . S
N1374 H1387 0.985 . S
N1375 C1377 1.356 . S
N1375 H1380 0.984 . S
N1375 H1381 0.985 . S
C1376 C1370 1.379 . S
C1376 C1373 1.363 . S
C1376 N1374 1.356 . S
C1377 C1371 1.363 . S
C1377 C1372 1.379 . S
C1377 N1375 1.356 . S
N1378 C1370 1.356 . S
N1378 H1384 0.984 . S
N1378 H1385 0.984 . S
N1379 C1372 1.356 . S
N1379 H1382 0.984 . S
N1379 H1383 0.985 . S
H1380 N1375 0.984 . S
H1381 N1375 0.985 . S
H1382 N1379 0.984 . S
H1383 N1379 0.985 . S
H1384 N1378 0.984 . S
H1385 N1378 0.984 . S
H1386 N1374 0.984 . S
H1387 N1374 0.985 . S
C1388 C1389 1.363 . S
C1388 C1394 1.379 . S
C1388 N1396 1.356 . S
C1389 C1388 1.363 . S
C1389 C1395 1.363 . S
C1390 C1391 1.363 . S
C1390 C1395 1.379 . S
C1390 N1397 1.356 . S
C1391 C1390 1.363 . S
C1391 C1394 1.363 . S
N1392 C1394 1.356 . S
N1392 H1404 0.984 . S
N1392 H1405 0.985 . S
N1393 C1395 1.356 . S
N1393 H1398 0.984 . S
N1393 H1399 0.985 . S
C1394 C1388 1.379 . S
C1394 C1391 1.363 . S
C1394 N1392 1.356 . S
C1395 C1389 1.363 . S
C1395 C1390 1.379 . S
C1395 N1393 1.356 . S
N1396 C1388 1.356 . S
N1396 H1402 0.984 . S
N1396 H1403 0.984 . S
N1397 C1390 1.356 . S
N1397 H1400 0.984 . S
N1397 H1401 0.985 . S
H1398 N1393 0.984 . S
H1399 N1393 0.985 . S
H1400 N1397 0.984 . S
H1401 N1397 0.985 . S
H1402 N1396 0.984 . S
H1403 N1396 0.984 . S
H1404 N1392 0.984 . S
H1405 N1392 0.985 . S
C1406 C1407 1.363 1_545 S
C1406 C1412 1.379 . S
C1406 N1414 1.356 . S
C1407 C1406 1.363 1_565 S
C1407 C1413 1.363 . S
C1408 C1409 1.363 1_565 S
C1408 C1413 1.379 . S
C1408 N1415 1.356 1_554 S
C1409 C1408 1.363 1_545 S
C1409 C1412 1.363 . S
N1410 C1412 1.356 . S
N1410 H1422 0.984 . S
N1410 H1423 0.985 1_554 S
N1411 C1413 1.356 . S
N1411 H1416 0.984 . S
N1411 H1417 0.985 . S
C1412 C1406 1.379 . S
C1412 C1409 1.363 . S
C1412 N1410 1.356 . S
C1413 C1407 1.363 . S
C1413 C1408 1.379 . S
C1413 N1411 1.356 . S
N1414 C1406 1.356 . S
N1414 H1420 0.984 . S
N1414 H1421 0.984 . S
N1415 C1408 1.356 1_556 S
N1415 H1418 0.984 . S
N1415 H1419 0.985 . S
H1416 N1411 0.984 . S
H1417 N1411 0.985 . S
H1418 N1415 0.984 . S
H1419 N1415 0.985 . S
H1420 N1414 0.984 . S
H1421 N1414 0.984 . S
H1422 N1410 0.984 . S
H1423 N1410 0.985 1_556 S
C1424 C1425 1.363 . S
C1424 C1430 1.379 . S
C1424 N1432 1.356 . S
C1425 C1424 1.363 . S
C1425 C1431 1.363 . S
C1426 C1427 1.363 . S
C1426 C1431 1.379 . S
C1426 N1433 1.356 . S
C1427 C1426 1.363 . S
C1427 C1430 1.363 . S
N1428 C1430 1.356 . S
N1428 H1440 0.984 . S
N1428 H1441 0.985 . S
N1429 C1431 1.356 . S
N1429 H1434 0.984 . S
N1429 H1435 0.985 . S
C1430 C1424 1.379 . S
C1430 C1427 1.363 . S
C1430 N1428 1.356 . S
C1431 C1425 1.363 . S
C1431 C1426 1.379 . S
C1431 N1429 1.356 . S
N1432 C1424 1.356 . S
N1432 H1438 0.984 . S
N1432 H1439 0.984 . S
N1433 C1426 1.356 . S
N1433 H1436 0.984 . S
N1433 H1437 0.985 . S
H1434 N1429 0.984 . S
H1435 N1429 0.985 . S
H1436 N1433 0.984 . S
H1437 N1433 0.985 . S
H1438 N1432 0.984 . S
H1439 N1432 0.984 . S
H1440 N1428 0.984 . S
H1441 N1428 0.985 . S
C1442 C1443 1.363 . S
C1442 C1448 1.379 . S
C1442 N1450 1.356 . S
C1443 C1442 1.363 . S
C1443 C1449 1.363 . S
C1444 C1445 1.363 . S
C1444 C1449 1.379 . S
C1444 N1451 1.356 . S
C1445 C1444 1.363 . S
C1445 C1448 1.363 . S
N1446 C1448 1.356 1_556 S
N1446 H1458 0.984 . S
N1446 H1459 0.985 . S
N1447 C1449 1.356 . S
N1447 H1452 0.984 . S
N1447 H1453 0.985 . S
C1448 C1442 1.379 . S
C1448 C1445 1.363 . S
C1448 N1446 1.356 1_554 S
C1449 C1443 1.363 . S
C1449 C1444 1.379 . S
C1449 N1447 1.356 . S
N1450 C1442 1.356 . S
N1450 H1456 0.984 . S
N1450 H1457 0.984 . S
N1451 C1444 1.356 . S
N1451 H1454 0.984 1_554 S
N1451 H1455 0.985 . S
H1452 N1447 0.984 . S
H1453 N1447 0.985 . S
H1454 N1451 0.984 1_556 S
H1455 N1451 0.985 . S
H1456 N1450 0.984 . S
H1457 N1450 0.984 . S
H1458 N1446 0.984 . S
H1459 N1446 0.985 . S
C1460 C1461 1.363 . S
C1460 C1466 1.379 . S
C1460 N1468 1.356 . S
C1461 C1460 1.363 . S
C1461 C1467 1.363 . S
C1462 C1463 1.363 . S
C1462 C1467 1.379 . S
C1462 N1469 1.356 . S
C1463 C1462 1.363 . S
C1463 C1466 1.363 . S
N1464 C1466 1.356 . S
N1464 H1476 0.984 . S
N1464 H1477 0.985 . S
N1465 C1467 1.356 . S
N1465 H1470 0.984 . S
N1465 H1471 0.985 . S
C1466 C1460 1.379 . S
C1466 C1463 1.363 . S
C1466 N1464 1.356 . S
C1467 C1461 1.363 . S
C1467 C1462 1.379 . S
C1467 N1465 1.356 . S
N1468 C1460 1.356 . S
N1468 H1474 0.984 . S
N1468 H1475 0.984 . S
N1469 C1462 1.356 . S
N1469 H1472 0.984 . S
N1469 H1473 0.985 . S
H1470 N1465 0.984 . S
H1471 N1465 0.985 . S
H1472 N1469 0.984 . S
H1473 N1469 0.985 . S
H1474 N1468 0.984 . S
H1475 N1468 0.984 . S
H1476 N1464 0.984 . S
H1477 N1464 0.985 . S
C1478 C1479 1.363 . S
C1478 C1484 1.379 . S
C1478 N1486 1.356 . S
C1479 C1478 1.363 . S
C1479 C1485 1.363 . S
C1480 C1481 1.363 . S
C1480 C1485 1.379 . S
C1480 N1487 1.356 . S
C1481 C1480 1.363 . S
C1481 C1484 1.363 . S
N1482 C1484 1.356 . S
N1482 H1494 0.984 . S
N1482 H1495 0.985 . S
N1483 C1485 1.356 . S
N1483 H1488 0.984 . S
N1483 H1489 0.985 . S
C1484 C1478 1.379 . S
C1484 C1481 1.363 . S
C1484 N1482 1.356 . S
C1485 C1479 1.363 . S
C1485 C1480 1.379 . S
C1485 N1483 1.356 . S
N1486 C1478 1.356 . S
N1486 H1492 0.984 . S
N1486 H1493 0.984 . S
N1487 C1480 1.356 . S
N1487 H1490 0.984 . S
N1487 H1491 0.985 . S
H1488 N1483 0.984 . S
H1489 N1483 0.985 . S
H1490 N1487 0.984 . S
H1491 N1487 0.985 . S
H1492 N1486 0.984 . S
H1493 N1486 0.984 . S
H1494 N1482 0.984 . S
H1495 N1482 0.985 . S
C1496 C1497 1.363 . S
C1496 C1502 1.379 . S
C1496 N1504 1.356 . S
C1497 C1496 1.363 . S
C1497 C1503 1.363 . S
C1498 C1499 1.363 . S
C1498 C1503 1.379 . S
C1498 N1505 1.356 . S
C1499 C1498 1.363 . S
C1499 C1502 1.363 . S
N1500 C1502 1.356 . S
N1500 H1512 0.984 . S
N1500 H1513 0.985 . S
N1501 C1503 1.356 . S
N1501 H1506 0.984 . S
N1501 H1507 0.985 . S
C1502 C1496 1.379 . S
C1502 C1499 1.363 . S
C1502 N1500 1.356 . S
C1503 C1497 1.363 . S
C1503 C1498 1.379 . S
C1503 N1501 1.356 . S
N1504 C1496 1.356 . S
N1504 H1510 0.984 . S
N1504 H1511 0.984 . S
N1505 C1498 1.356 . S
N1505 H1508 0.984 . S
N1505 H1509 0.985 . S
H1506 N1501 0.984 . S
H1507 N1501 0.985 . S
H1508 N1505 0.984 . S
H1509 N1505 0.985 . S
H1510 N1504 0.984 . S
H1511 N1504 0.984 . S
H1512 N1500 0.984 . S
H1513 N1500 0.985 . S
C1514 C1515 1.363 . S
C1514 C1520 1.379 . S
C1514 N1522 1.356 . S
C1515 C1514 1.363 . S
C1515 C1521 1.363 . S
C1516 C1517 1.363 . S
C1516 C1521 1.379 . S
C1516 N1523 1.356 . S
C1517 C1516 1.363 . S
C1517 C1520 1.363 . S
N1518 C1520 1.356 . S
N1518 H1530 0.984 . S
N1518 H1531 0.985 . S
N1519 C1521 1.356 1_556 S
N1519 H1524 0.984 . S
N1519 H1525 0.985 . S
C1520 C1514 1.379 . S
C1520 C1517 1.363 . S
C1520 N1518 1.356 . S
C1521 C1515 1.363 . S
C1521 C1516 1.379 . S
C1521 N1519 1.356 1_554 S
N1522 C1514 1.356 . S
N1522 H1528 0.984 . S
N1522 H1529 0.984 1_554 S
N1523 C1516 1.356 . S
N1523 H1526 0.984 . S
N1523 H1527 0.985 . S
H1524 N1519 0.984 . S
H1525 N1519 0.985 . S
H1526 N1523 0.984 . S
H1527 N1523 0.985 . S
H1528 N1522 0.984 . S
H1529 N1522 0.984 1_556 S
H1530 N1518 0.984 . S
H1531 N1518 0.985 . S
C1532 C1533 1.363 . S
C1532 C1538 1.379 . S
C1532 N1540 1.356 . S
C1533 C1532 1.363 . S
C1533 C1539 1.363 . S
C1534 C1535 1.363 . S
C1534 C1539 1.379 . S
C1534 N1541 1.356 . S
C1535 C1534 1.363 . S
C1535 C1538 1.363 . S
N1536 C1538 1.356 . S
N1536 H1548 0.984 . S
N1536 H1549 0.985 . S
N1537 C1539 1.356 . S
N1537 H1542 0.984 . S
N1537 H1543 0.985 . S
C1538 C1532 1.379 . S
C1538 C1535 1.363 . S
C1538 N1536 1.356 . S
C1539 C1533 1.363 . S
C1539 C1534 1.379 . S
C1539 N1537 1.356 . S
N1540 C1532 1.356 . S
N1540 H1546 0.984 . S
N1540 H1547 0.984 . S
N1541 C1534 1.356 . S
N1541 H1544 0.984 . S
N1541 H1545 0.985 . S
H1542 N1537 0.984 . S
H1543 N1537 0.985 . S
H1544 N1541 0.984 . S
H1545 N1541 0.985 . S
H1546 N1540 0.984 . S
H1547 N1540 0.984 . S
H1548 N1536 0.984 . S
H1549 N1536 0.985 . S
C1550 C1551 1.363 . S
C1550 C1556 1.379 . S
C1550 N1558 1.356 . S
C1551 C1550 1.363 . S
C1551 C1557 1.363 . S
C1552 C1553 1.363 . S
C1552 C1557 1.379 . S
C1552 N1559 1.356 . S
C1553 C1552 1.363 . S
C1553 C1556 1.363 . S
N1554 C1556 1.356 . S
N1554 H1566 0.984 . S
N1554 H1567 0.985 . S
N1555 C1557 1.356 . S
N1555 H1560 0.984 . S
N1555 H1561 0.985 . S
C1556 C1550 1.379 . S
C1556 C1553 1.363 . S
C1556 N1554 1.356 . S
C1557 C1551 1.363 . S
C1557 C1552 1.379 . S
C1557 N1555 1.356 . S
N1558 C1550 1.356 . S
N1558 H1564 0.984 . S
N1558 H1565 0.984 . S
N1559 C1552 1.356 . S
N1559 H1562 0.984 . S
N1559 H1563 0.985 . S
H1560 N1555 0.984 . S
H1561 N1555 0.985 . S
H1562 N1559 0.984 . S
H1563 N1559 0.985 . S
H1564 N1558 0.984 . S
H1565 N1558 0.984 . S
H1566 N1554 0.984 . S
H1567 N1554 0.985 . S
C417 C101 1.615 . S
C419 C4 1.615 1_556 S
C435 C17 1.615 . S
C437 C56 1.615 . S
C453 C75 1.615 . S
C455 C36 1.615 . S
C471 C43 1.615 . S
C473 C88 1.615 . S
C489 C108 1.615 . S
C491 C205 1.615 . S
C507 C121 1.615 . S
C509 C166 1.615 1_556 S
C525 C134 1.615 . S
C527 C179 1.615 . S
C543 C147 1.615 . S
C545 C186 1.615 . S
C561 C218 1.615 . S
C563 C309 1.615 . S
C579 C225 1.615 . S
C581 C270 1.615 . S
C597 C283 1.615 . S
C599 C238 1.615 1_556 S
C615 C296 1.615 . S
C617 C251 1.615 . S
C633 C316 1.615 . S
C635 C413 1.615 . S
C651 C368 1.615 . S
C653 C329 1.615 . S
C669 C387 1.615 . S
C671 C348 1.615 . S
C687 C355 1.615 . S
C689 C400 1.615 1_556 S
C705 C10 1.056 . S
C707 C82 1.056 . S
C723 C23 1.056 . S
C725 C95 1.056 . S
C741 C62 1.056 . S
C743 C30 1.056 . S
C759 C49 1.056 . S
C761 C69 1.056 . S
C777 C114 1.056 . S
C779 C192 1.056 . S
C795 C127 1.056 . S
C797 C199 1.056 . S
C813 C160 1.056 . S
C815 C140 1.056 . S
C831 C173 1.056 . S
C833 C153 1.056 . S
C849 C212 1.056 . S
C851 C290 1.056 . S
C867 C303 1.056 . S
C869 C231 1.056 . S
C885 C264 1.056 . S
C887 C244 1.056 . S
C903 C257 1.056 . S
C905 C277 1.056 . S
C921 C322 1.056 . S
C923 C394 1.056 . S
C939 C335 1.056 . S
C941 C407 1.056 . S
C957 C374 1.056 . S
C959 C342 1.056 . S
C975 C381 1.056 . S
C977 C361 1.056 . S
C993 C5 1.604 . S
C995 C393 1.604 . S
C1011 C18 1.604 . S
C1013 C198 1.604 . S
C1029 C29 1.604 . S
C1031 C369 1.604 . S
C1047 C44 1.604 . S
C1049 C172 1.604 . S
C1065 C57 1.604 . S
C1067 C341 1.604 . S
C1083 C68 1.604 . S
C1085 C148 1.604 . S
C1101 C81 1.604 . S
C1103 C317 1.604 . S
C1119 C122 1.604 . S
C1121 C94 1.604 . S
C1137 C289 1.604 . S
C1139 C109 1.604 . S
C1155 C135 1.604 . S
C1157 C263 1.604 . S
C1173 C239 1.604 . S
C1175 C159 1.604 . S
C1191 C211 1.604 . S
C1193 C187 1.604 . S
C1209 C226 1.604 . S
C1211 C406 1.604 . S
C1227 C252 1.604 . S
C1229 C380 1.604 . S
C1245 C276 1.604 . S
C1247 C356 1.604 . S
C1263 C330 1.604 . S
C1265 C302 1.604 . S
C1281 C3 1.508 . S
C1283 C83 1.508 . S
C1299 C16 1.508 . S
C1301 C96 1.508 . S
C1317 C55 1.508 . S
C1319 C31 1.508 . S
C1335 C42 1.508 1_554 S
C1337 C70 1.508 . S
C1353 C107 1.508 . S
C1355 C185 1.508 . S
C1371 C120 1.508 . S
C1373 C200 1.508 . S
C1389 C161 1.508 . S
C1391 C133 1.508 . S
C1407 C146 1.508 . S
C1409 C174 1.508 1_554 S
C1425 C291 1.508 . S
C1427 C213 1.508 . S
C1443 C304 1.508 . S
C1445 C224 1.508 1_554 S
C1461 C265 1.508 . S
C1463 C237 1.508 . S
C1479 C278 1.508 . S
C1481 C250 1.508 . S
C1497 C395 1.508 . S
C1499 C315 1.508 . S
C1515 C408 1.508 1_554 S
C1517 C328 1.508 . S
C1533 C343 1.508 . S
C1535 C367 1.508 . S
C1551 C382 1.508 . S
C1553 C354 1.508 . S
