# Generated by pormake.
# Topology wjd, (6)-cn, num edge types: 1
# Building blocks:
#     Node 0, Type 0, BuildingBlock: CUKXOW_clean_sbu_0, # of connection points: 6
#     Node 1, Type 0, BuildingBlock: CUKXOW_clean_sbu_0, # of connection points: 6
#     Node 2, Type 0, BuildingBlock: CUKXOW_clean_sbu_0, # of connection points: 6
#     Node 3, Type 0, BuildingBlock: CUKXOW_clean_sbu_0, # of connection points: 6
#     Node 4, Type 0, BuildingBlock: CUKXOW_clean_sbu_0, # of connection points: 6
#     Node 5, Type 0, BuildingBlock: CUKXOW_clean_sbu_0, # of connection points: 6
#     Node 6, Type 0, BuildingBlock: CUKXOW_clean_sbu_0, # of connection points: 6
#     Node 7, Type 0, BuildingBlock: CUKXOW_clean_sbu_0, # of connection points: 6
#     Node 8, Type 0, BuildingBlock: CUKXOW_clean_sbu_0, # of connection points: 6
#     Node 9, Type 0, BuildingBlock: CUKXOW_clean_sbu_0, # of connection points: 6
#     Node 10, Type 0, BuildingBlock: CUKXOW_clean_sbu_0, # of connection points: 6
#     Node 11, Type 0, BuildingBlock: CUKXOW_clean_sbu_0, # of connection points: 6
#     Edge 12, Type (0, 0), BuildingBlock: UVAHIK_clean_linker_0, # of connection points: 2
#     Edge 13, Type (0, 0), BuildingBlock: UVAHIK_clean_linker_0, # of connection points: 2
#     Edge 14, Type (0, 0), BuildingBlock: UVAHIK_clean_linker_0, # of connection points: 2
#     Edge 15, Type (0, 0), BuildingBlock: UVAHIK_clean_linker_0, # of connection points: 2
#     Edge 16, Type (0, 0), BuildingBlock: UVAHIK_clean_linker_0, # of connection points: 2
#     Edge 17, Type (0, 0), BuildingBlock: UVAHIK_clean_linker_0, # of connection points: 2
#     Edge 18, Type (0, 0), BuildingBlock: UVAHIK_clean_linker_0, # of connection points: 2
#     Edge 19, Type (0, 0), BuildingBlock: UVAHIK_clean_linker_0, # of connection points: 2
#     Edge 20, Type (0, 0), BuildingBlock: UVAHIK_clean_linker_0, # of connection points: 2
#     Edge 21, Type (0, 0), BuildingBlock: UVAHIK_clean_linker_0, # of connection points: 2
#     Edge 22, Type (0, 0), BuildingBlock: UVAHIK_clean_linker_0, # of connection points: 2
#     Edge 23, Type (0, 0), BuildingBlock: UVAHIK_clean_linker_0, # of connection points: 2
#     Edge 24, Type (0, 0), BuildingBlock: UVAHIK_clean_linker_0, # of connection points: 2
#     Edge 25, Type (0, 0), BuildingBlock: UVAHIK_clean_linker_0, # of connection points: 2
#     Edge 26, Type (0, 0), BuildingBlock: UVAHIK_clean_linker_0, # of connection points: 2
#     Edge 27, Type (0, 0), BuildingBlock: UVAHIK_clean_linker_0, # of connection points: 2
#     Edge 28, Type (0, 0), BuildingBlock: UVAHIK_clean_linker_0, # of connection points: 2
#     Edge 29, Type (0, 0), BuildingBlock: UVAHIK_clean_linker_0, # of connection points: 2
#     Edge 30, Type (0, 0), BuildingBlock: UVAHIK_clean_linker_0, # of connection points: 2
#     Edge 31, Type (0, 0), BuildingBlock: UVAHIK_clean_linker_0, # of connection points: 2
#     Edge 32, Type (0, 0), BuildingBlock: UVAHIK_clean_linker_0, # of connection points: 2
#     Edge 33, Type (0, 0), BuildingBlock: UVAHIK_clean_linker_0, # of connection points: 2
#     Edge 34, Type (0, 0), BuildingBlock: UVAHIK_clean_linker_0, # of connection points: 2
#     Edge 35, Type (0, 0), BuildingBlock: UVAHIK_clean_linker_0, # of connection points: 2
#     Edge 36, Type (0, 0), BuildingBlock: UVAHIK_clean_linker_0, # of connection points: 2
#     Edge 37, Type (0, 0), BuildingBlock: UVAHIK_clean_linker_0, # of connection points: 2
#     Edge 38, Type (0, 0), BuildingBlock: UVAHIK_clean_linker_0, # of connection points: 2
#     Edge 39, Type (0, 0), BuildingBlock: UVAHIK_clean_linker_0, # of connection points: 2
#     Edge 40, Type (0, 0), BuildingBlock: UVAHIK_clean_linker_0, # of connection points: 2
#     Edge 41, Type (0, 0), BuildingBlock: UVAHIK_clean_linker_0, # of connection points: 2
#     Edge 42, Type (0, 0), BuildingBlock: UVAHIK_clean_linker_0, # of connection points: 2
#     Edge 43, Type (0, 0), BuildingBlock: UVAHIK_clean_linker_0, # of connection points: 2
#     Edge 44, Type (0, 0), BuildingBlock: UVAHIK_clean_linker_0, # of connection points: 2
#     Edge 45, Type (0, 0), BuildingBlock: UVAHIK_clean_linker_0, # of connection points: 2
#     Edge 46, Type (0, 0), BuildingBlock: UVAHIK_clean_linker_0, # of connection points: 2
#     Edge 47, Type (0, 0), BuildingBlock: UVAHIK_clean_linker_0, # of connection points: 2
# Relax obj value: 0.059
# Max RMSD: 0.157
# Mean RMSD: 0.157
data_MOF--net-wjd--node1-CUKXOW_clean_sbu_0--edge1-UVAHIK_clean_linker_0
_symmetry_space_group_name_H-M    P1
_symmetry_Int_Tables_number       1
_symmetry_cell_setting            triclinic
loop_
_symmetry_equiv_pos_as_xyz
'x, y, z'
_cell_length_a     40.900812
_cell_length_b     40.989277
_cell_length_c     73.720847
_cell_angle_alpha  90.022973
_cell_angle_beta   89.92427
_cell_angle_gamma 119.93872
loop_
_atom_site_label
_atom_site_type_symbol
_atom_site_fract_x
_atom_site_fract_y
_atom_site_fract_z
_atom_type_partial_charge
Tb0 Tb 0.372 0.1394 0.12507 0.0
C1 C 0.32553 0.11885 0.0891 0.0
Tb2 Tb 0.3046 0.15291 0.12325 0.0
O3 O 0.33526 0.07851 0.1212 0.0
O4 O 0.31505 0.11094 0.13343 0.0
O5 O 0.35895 0.12882 0.09634 0.0
C6 C 0.24044 0.15413 0.11876 0.0
O7 O 0.29928 0.1229 0.09782 0.0
C8 C 0.37159 0.21316 0.12245 0.0
C9 C 0.34292 0.16099 0.16101 0.0
O10 O 0.27159 0.1746 0.10993 0.0
O11 O 0.24524 0.13259 0.13006 0.0
O12 O 0.34206 0.21231 0.12938 0.0
O13 O 0.36211 0.18201 0.11501 0.0
O14 O 0.31147 0.15412 0.15251 0.0
O15 O 0.37156 0.16068 0.15248 0.0
C16 C 0.44227 0.1509 0.12636 0.0
O17 O 0.41332 0.12407 0.13471 0.0
O18 O 0.43161 0.1712 0.1174 0.0
C19 C 0.30552 0.07873 0.12736 0.0
Tb20 Tb 0.85902 0.70624 0.38816 0.0
C21 C 0.82403 0.66371 0.3516 0.0
Tb22 Tb 0.77804 0.63888 0.38838 0.0
O23 O 0.88336 0.66991 0.38478 0.0
O24 O 0.83167 0.64963 0.39771 0.0
O25 O 0.84775 0.69646 0.35925 0.0
C26 C 0.71857 0.56942 0.38873 0.0
O27 O 0.79716 0.63533 0.36102 0.0
C28 C 0.78333 0.70511 0.38481 0.0
C29 C 0.8071 0.68948 0.42308 0.0
O30 O 0.72041 0.59787 0.38006 0.0
O31 O 0.7501 0.58014 0.39716 0.0
O32 O 0.75353 0.67586 0.39132 0.0
O33 O 0.80573 0.69489 0.37899 0.0
O34 O 0.78363 0.65516 0.41679 0.0
O35 O 0.83615 0.71516 0.41344 0.0
C36 C 0.92362 0.77195 0.38732 0.0
O37 O 0.90781 0.75263 0.40188 0.0
O38 O 0.90289 0.75456 0.37344 0.0
C39 C 0.85419 0.64024 0.39109 0.0
Tb40 Tb 0.87035 0.23269 0.12005 0.0
C41 C 0.8901 0.20491 0.0844 0.0
Tb42 Tb 0.85675 0.15181 0.11921 0.0
O43 O 0.93129 0.25623 0.11605 0.0
O44 O 0.89872 0.20454 0.12897 0.0
O45 O 0.88029 0.22869 0.09136 0.0
C46 C 0.8566 0.08685 0.1159 0.0
O47 O 0.88621 0.17512 0.09347 0.0
C48 C 0.79613 0.15801 0.11805 0.0
C49 C 0.84828 0.18388 0.15647 0.0
O50 O 0.83554 0.09639 0.10681 0.0
O51 O 0.87811 0.11409 0.1268 0.0
O52 O 0.79713 0.12957 0.12509 0.0
O53 O 0.8274 0.1797 0.11059 0.0
O54 O 0.85516 0.1589 0.14839 0.0
O55 O 0.84868 0.21233 0.14751 0.0
C56 C 0.86067 0.29251 0.12104 0.0
O57 O 0.88725 0.28983 0.12932 0.0
O58 O 0.83962 0.26154 0.11228 0.0
C59 C 0.93098 0.22671 0.12274 0.0
Tb60 Tb 0.31051 0.15762 0.39583 0.0
C61 C 0.34518 0.16156 0.35635 0.0
Tb62 Tb 0.37178 0.13611 0.39065 0.0
O63 O 0.35075 0.20873 0.41015 0.0
O64 O 0.36909 0.18623 0.38994 0.0
O65 O 0.31663 0.15939 0.36606 0.0
C66 C 0.43893 0.14033 0.39282 0.0
O67 O 0.37322 0.15883 0.36386 0.0
C68 C 0.30248 0.08262 0.38439 0.0
C69 C 0.33172 0.1241 0.42951 0.0
O70 O 0.41 0.11483 0.38391 0.0
O71 O 0.42986 0.16309 0.4006 0.0
O72 O 0.33163 0.08325 0.3769 0.0
O73 O 0.31372 0.10817 0.39605 0.0
O74 O 0.36117 0.12748 0.42011 0.0
O75 O 0.30589 0.13061 0.42202 0.0
C76 C 0.24852 0.16394 0.39495 0.0
O77 O 0.28041 0.18772 0.40232 0.0
O78 O 0.25137 0.13632 0.38804 0.0
C79 C 0.38 0.21113 0.40202 0.0
Tb80 Tb 0.77762 0.63918 0.11892 0.0
C81 C 0.8088 0.68471 0.08334 0.0
Tb82 Tb 0.85876 0.70536 0.11897 0.0
O83 O 0.75493 0.67734 0.11507 0.0
O84 O 0.80593 0.6953 0.12837 0.0
O85 O 0.7866 0.65046 0.09 0.0
C86 C 0.92456 0.76957 0.11594 0.0
O87 O 0.83636 0.71173 0.09307 0.0
C88 C 0.85165 0.6384 0.11753 0.0
C89 C 0.82354 0.66588 0.15629 0.0
O90 O 0.91497 0.73878 0.10706 0.0
O91 O 0.89687 0.76438 0.12647 0.0
O92 O 0.87974 0.66733 0.12509 0.0
O93 O 0.83067 0.64845 0.10967 0.0
O94 O 0.85085 0.6963 0.14814 0.0
O95 O 0.7937 0.63942 0.14738 0.0
C96 C 0.71667 0.57028 0.12004 0.0
O97 O 0.75126 0.57785 0.12212 0.0
O98 O 0.71645 0.60147 0.11752 0.0
C99 C 0.78442 0.70604 0.12202 0.0
Tb100 Tb 0.86002 0.15344 0.38892 0.0
C101 C 0.84993 0.18511 0.35188 0.0
Tb102 Tb 0.87254 0.23386 0.38817 0.0
O103 O 0.79983 0.1297 0.3842 0.0
O104 O 0.83017 0.18069 0.39794 0.0
O105 O 0.85781 0.16074 0.35981 0.0
C106 C 0.86292 0.29378 0.38746 0.0
O107 O 0.84982 0.21319 0.36093 0.0
C108 C 0.93383 0.22889 0.38498 0.0
C109 C 0.8941 0.20672 0.42343 0.0
O110 O 0.88894 0.29079 0.37877 0.0
O111 O 0.8423 0.26301 0.39647 0.0
O112 O 0.93376 0.25826 0.39163 0.0
O113 O 0.90147 0.20634 0.37901 0.0
O114 O 0.88298 0.22971 0.41677 0.0
O115 O 0.89128 0.17763 0.41411 0.0
C116 C 0.8609 0.08888 0.3915 0.0
O117 O 0.84588 0.10115 0.40321 0.0
O118 O 0.87589 0.11322 0.37846 0.0
C119 C 0.79867 0.15825 0.39095 0.0
Tb120 Tb 0.16041 0.30453 0.61907 0.0
C121 C 0.1697 0.34556 0.65627 0.0
Tb122 Tb 0.1447 0.37052 0.6204 0.0
O123 O 0.22041 0.34261 0.62355 0.0
O124 O 0.18808 0.36155 0.61025 0.0
O125 O 0.16269 0.31368 0.64823 0.0
C126 C 0.15275 0.43925 0.62162 0.0
O127 O 0.16865 0.37326 0.64737 0.0
C128 C 0.08496 0.30352 0.62387 0.0
C129 C 0.12357 0.32205 0.58507 0.0
O130 O 0.12769 0.41013 0.63056 0.0
O131 O 0.17313 0.42961 0.61201 0.0
O132 O 0.08353 0.33248 0.61763 0.0
O133 O 0.11787 0.31419 0.6294 0.0
O134 O 0.13353 0.35578 0.59186 0.0
O135 O 0.12802 0.29648 0.59415 0.0
C136 C 0.16251 0.24061 0.61643 0.0
O137 O 0.17642 0.26775 0.60464 0.0
O138 O 0.14709 0.2493 0.62952 0.0
C139 C 0.22004 0.3717 0.617 0.0
Tb140 Tb 0.23971 0.87218 0.89107 0.0
C141 C 0.21062 0.88444 0.92945 0.0
Tb142 Tb 0.15677 0.85063 0.89543 0.0
O143 O 0.25374 0.92559 0.87758 0.0
O144 O 0.20936 0.90026 0.89596 0.0
O145 O 0.23669 0.88037 0.92047 0.0
C146 C 0.08842 0.84419 0.89416 0.0
O147 O 0.17889 0.87858 0.92151 0.0
C148 C 0.17242 0.79669 0.90154 0.0
C149 C 0.18889 0.84742 0.85626 0.0
O150 O 0.09728 0.82276 0.90333 0.0
O151 O 0.11812 0.86944 0.88564 0.0
O152 O 0.14504 0.79867 0.90931 0.0
O153 O 0.18691 0.82215 0.88977 0.0
O154 O 0.16206 0.84928 0.86571 0.0
O155 O 0.21937 0.85005 0.86407 0.0
C156 C 0.30237 0.86754 0.8936 0.0
O157 O 0.29921 0.89302 0.88453 0.0
O158 O 0.2704 0.84501 0.90136 0.0
C159 C 0.22465 0.92608 0.88445 0.0
Tb160 Tb 0.7115 0.85616 0.62022 0.0
C161 C 0.66844 0.82396 0.65691 0.0
Tb162 Tb 0.64269 0.77623 0.62031 0.0
O163 O 0.67596 0.881 0.62485 0.0
O164 O 0.65458 0.83005 0.61103 0.0
O165 O 0.70123 0.84795 0.64926 0.0
C166 C 0.57266 0.71728 0.62091 0.0
O167 O 0.64019 0.79663 0.64757 0.0
C168 C 0.70838 0.78009 0.6237 0.0
C169 C 0.69256 0.80366 0.58535 0.0
O170 O 0.60102 0.72004 0.63009 0.0
O171 O 0.58379 0.74765 0.6114 0.0
O172 O 0.67898 0.75119 0.61673 0.0
O173 O 0.69874 0.80269 0.62977 0.0
O174 O 0.65813 0.78082 0.59178 0.0
O175 O 0.71878 0.83233 0.59491 0.0
C176 C 0.778 0.9197 0.61838 0.0
O177 O 0.75191 0.90779 0.60607 0.0
O178 O 0.76686 0.89563 0.6316 0.0
C179 C 0.64597 0.85276 0.61811 0.0
Tb180 Tb 0.14239 0.36829 0.88821 0.0
C181 C 0.1234 0.32051 0.9237 0.0
Tb182 Tb 0.15575 0.30112 0.88841 0.0
O183 O 0.08155 0.33106 0.89251 0.0
O184 O 0.1137 0.31212 0.87891 0.0
O185 O 0.13324 0.35418 0.91689 0.0
C186 C 0.15558 0.23603 0.89013 0.0
O187 O 0.12693 0.2946 0.91441 0.0
C188 C 0.21663 0.36754 0.88981 0.0
C189 C 0.16429 0.34253 0.85146 0.0
O190 O 0.17722 0.26596 0.8995 0.0
O191 O 0.13354 0.24253 0.88 0.0
O192 O 0.2153 0.33819 0.88248 0.0
O193 O 0.1855 0.35806 0.89744 0.0
O194 O 0.1575 0.3106 0.85934 0.0
O195 O 0.16361 0.37025 0.86058 0.0
C196 C 0.15242 0.43782 0.88767 0.0
O197 O 0.12469 0.40859 0.88 0.0
O198 O 0.17435 0.42785 0.89557 0.0
C199 C 0.08159 0.30203 0.88539 0.0
Tb200 Tb 0.15646 0.85507 0.62301 0.0
C201 C 0.18812 0.84841 0.66071 0.0
Tb202 Tb 0.23797 0.86912 0.62478 0.0
O203 O 0.13406 0.79557 0.62885 0.0
O204 O 0.18513 0.8259 0.6151 0.0
O205 O 0.16381 0.85575 0.65227 0.0
C206 C 0.29772 0.85914 0.62602 0.0
O207 O 0.21634 0.84762 0.65207 0.0
C208 C 0.23259 0.93014 0.62649 0.0
C209 C 0.21126 0.88923 0.58887 0.0
O210 O 0.29428 0.8846 0.63494 0.0
O211 O 0.26749 0.83929 0.6165 0.0
O212 O 0.26313 0.93033 0.62136 0.0
O213 O 0.20934 0.89783 0.63236 0.0
O214 O 0.23465 0.87907 0.59603 0.0
O215 O 0.18114 0.88548 0.59767 0.0
C216 C 0.09023 0.85251 0.61921 0.0
O217 O 0.10409 0.83799 0.60809 0.0
O218 O 0.11379 0.86878 0.63243 0.0
C219 C 0.16311 0.79475 0.62246 0.0
Tb220 Tb 0.64248 0.77366 0.8882 0.0
C221 C 0.69066 0.80088 0.92358 0.0
Tb222 Tb 0.71001 0.85435 0.88899 0.0
O223 O 0.67963 0.74973 0.89167 0.0
O224 O 0.69894 0.80164 0.87897 0.0
O225 O 0.65682 0.77744 0.91679 0.0
C226 C 0.77448 0.91972 0.8925 0.0
O227 O 0.71664 0.83052 0.91443 0.0
C228 C 0.64334 0.84845 0.89081 0.0
C229 C 0.6685 0.82294 0.85196 0.0
O230 O 0.74409 0.90917 0.90197 0.0
O231 O 0.76878 0.89321 0.88111 0.0
O232 O 0.67268 0.8768 0.88363 0.0
O233 O 0.65293 0.8266 0.89803 0.0
O234 O 0.70078 0.84755 0.85983 0.0
O235 O 0.64049 0.79472 0.86105 0.0
C236 C 0.57301 0.71355 0.88725 0.0
O237 O 0.60212 0.71691 0.87849 0.0
O238 O 0.58304 0.74405 0.89647 0.0
C239 C 0.70889 0.7792 0.88497 0.0
C240 C 0.99306 0.23961 0.11021 0.0
C241 C 0.96229 0.21873 0.12178 0.0
C242 C 0.0223 0.23135 0.10901 0.0
C243 C 0.04529 0.15621 0.11867 0.0
H244 H 0.14861 0.23839 0.11619 0.0
C245 C 0.17497 0.13632 0.12847 0.0
C246 C 0.20645 0.15778 0.11736 0.0
C247 C 0.14404 0.14214 0.12808 0.0
C248 C 0.1199 0.21508 0.11664 0.0
H249 H 0.93813 0.17354 0.14147 0.0
H250 H 0.9892 0.15919 0.13954 0.0
H251 H 0.09719 0.25209 0.11741 0.0
H252 H 0.22998 0.20122 0.09674 0.0
H253 H 0.17597 0.21119 0.09593 0.0
H254 H 0.06819 0.11924 0.1181 0.0
C255 C 0.99052 0.18141 0.13108 0.0
C256 C 0.09039 0.22295 0.11733 0.0
C257 C 0.9613 0.18965 0.13223 0.0
C258 C 0.20611 0.18439 0.10551 0.0
C259 C 0.17529 0.19027 0.10514 0.0
C260 C 0.07485 0.14834 0.11802 0.0
C261 C 0.02139 0.20214 0.11944 0.0
C262 C 0.05272 0.19363 0.11839 0.0
C263 C 0.14412 0.16962 0.1166 0.0
C264 C 0.1125 0.1777 0.11701 0.0
H265 H 0.9943 0.262 0.1019 0.0
H266 H 0.04539 0.24755 0.09974 0.0
H267 H 0.01657 0.13293 0.11921 0.0
H268 H 0.17459 0.11564 0.13775 0.0
H269 H 0.12059 0.12596 0.13718 0.0
C270 C 0.2372 0.04838 0.3965 0.0
C271 C 0.263 0.05219 0.38295 0.0
C272 C 0.19993 0.01922 0.3958 0.0
C273 C 0.13852 0.92624 0.37434 0.0
H274 H 0.05932 0.94106 0.3947 0.0
C275 C 0.97914 0.81759 0.36935 0.0
C276 C 0.96087 0.80614 0.38621 0.0
C277 C 0.01551 0.84855 0.36818 0.0
C278 C 0.08125 0.93662 0.38902 0.0
H279 H 0.27015 0.0292 0.35782 0.0
H280 H 0.20423 0.97874 0.35608 0.0
H281 H 0.12357 0.99405 0.39288 0.0
H282 H 0.96547 0.81833 0.41498 0.0
H283 H 0.02902 0.87364 0.41283 0.0
H284 H 0.09541 0.86891 0.36998 0.0
C285 C 0.21307 0.99766 0.36758 0.0
C286 C 0.11812 0.96684 0.38805 0.0
C287 C 0.25074 0.02663 0.36847 0.0
C288 C 0.97908 0.8267 0.40184 0.0
C289 C 0.01523 0.85822 0.40061 0.0
C290 C 0.10146 0.89623 0.37497 0.0
C291 C 0.18721 0.99345 0.38132 0.0
C292 C 0.14742 0.96193 0.38099 0.0
C293 C 0.03386 0.86902 0.38379 0.0
C294 C 0.0727 0.9011 0.38255 0.0
H295 H 0.24596 0.06752 0.40792 0.0
H296 H 0.18135 0.01652 0.40688 0.0
H297 H 0.16027 0.92111 0.36908 0.0
H298 H 0.96568 0.8021 0.3571 0.0
H299 H 0.02932 0.85655 0.35507 0.0
C300 C 0.87612 0.04108 0.12641 0.0
C301 C 0.85377 0.04958 0.11513 0.0
C302 C 0.87128 0.00478 0.12656 0.0
C303 C 0.82951 0.9154 0.10047 0.0
H304 H 0.82769 0.87123 0.14722 0.0
C305 C 0.77264 0.75603 0.10975 0.0
C306 C 0.79295 0.74544 0.12132 0.0
C307 C 0.78163 0.79368 0.1087 0.0
C308 C 0.82856 0.88328 0.13404 0.0
H309 H 0.80948 0.02735 0.09491 0.0
H310 H 0.80072 0.96401 0.09527 0.0
H311 H 0.84183 0.93638 0.14559 0.0
H312 H 0.83783 0.76538 0.14117 0.0
H313 H 0.85398 0.83123 0.13919 0.0
H314 H 0.81582 0.86211 0.08894 0.0
C315 C 0.8223 0.9853 0.10385 0.0
C316 C 0.83674 0.92067 0.1331 0.0
C317 C 0.82716 0.02154 0.1037 0.0
C318 C 0.82207 0.77296 0.13198 0.0
C319 C 0.83103 0.81057 0.13097 0.0
C320 C 0.82127 0.87798 0.10141 0.0
C321 C 0.84398 0.97633 0.11543 0.0
C322 C 0.8371 0.93713 0.11631 0.0
C323 C 0.81098 0.8214 0.11928 0.0
C324 C 0.82049 0.86142 0.11822 0.0
H325 H 0.89693 0.06229 0.13532 0.0
H326 H 0.88881 0.99896 0.13545 0.0
H327 H 0.83011 0.92736 0.08729 0.0
H328 H 0.75006 0.73528 0.10139 0.0
H329 H 0.76532 0.80101 0.09974 0.0
C330 C 0.18249 0.14287 0.38474 0.0
C331 C 0.21509 0.16867 0.39414 0.0
C332 C 0.15144 0.14846 0.38359 0.0
C333 C 0.12621 0.22339 0.38786 0.0
H334 H 0.02385 0.13981 0.39182 0.0
C335 C 0.99818 0.2455 0.39571 0.0
C336 C 0.96578 0.22178 0.38565 0.0
C337 C 0.02826 0.23845 0.39659 0.0
C338 C 0.05227 0.16339 0.39051 0.0
H339 H 0.24068 0.22002 0.40999 0.0
H340 H 0.18652 0.22947 0.40828 0.0
H341 H 0.07677 0.12817 0.39369 0.0
H342 H 0.93953 0.17262 0.36834 0.0
H343 H 0.99193 0.16004 0.36992 0.0
H344 H 0.10177 0.25863 0.38481 0.0
C345 C 0.185 0.20533 0.40147 0.0
C346 C 0.0826 0.15672 0.39156 0.0
C347 C 0.21596 0.19979 0.40256 0.0
C348 C 0.96397 0.19096 0.37643 0.0
C349 C 0.99396 0.18379 0.37734 0.0
C350 C 0.09593 0.23006 0.38688 0.0
C351 C 0.15244 0.17994 0.39184 0.0
C352 C 0.11997 0.18668 0.39034 0.0
C353 C 0.02649 0.20749 0.38742 0.0
C354 C 0.05861 0.20018 0.38826 0.0
H355 H 0.18116 0.11866 0.3781 0.0
H356 H 0.12697 0.12853 0.37593 0.0
H357 H 0.15456 0.24705 0.3865 0.0
H358 H 1.00018 0.26935 0.40304 0.0
H359 H 0.05271 0.25698 0.40465 0.0
C360 C 0.25758 0.01689 0.11433 0.0
C361 C 0.26634 0.04751 0.12578 0.0
C362 C 0.22025 0.98773 0.11251 0.0
C363 C 0.12113 0.96451 0.11993 0.0
H364 H 0.10086 0.86155 0.11783 0.0
C365 C 0.97089 0.83457 0.12657 0.0
C366 C 0.96228 0.80353 0.11543 0.0
C367 C 1.00758 0.86548 0.12702 0.0
C368 C 0.10604 0.89016 0.11817 0.0
H369 H 0.24341 0.07155 0.14455 0.0
H370 H 0.17825 0.02056 0.14156 0.0
H371 H 0.16567 0.91294 0.12031 0.0
H372 H 0.98472 0.78074 0.09564 0.0
H373 H 0.0486 0.8347 0.09629 0.0
H374 H 0.06132 0.94153 0.11798 0.0
C375 C 0.19995 0.01929 0.13368 0.0
C376 C 0.14325 0.91966 0.11958 0.0
C377 C 0.23726 0.04846 0.13545 0.0
C378 C 0.99065 0.80428 0.10441 0.0
C379 C 0.02729 0.83506 0.10488 0.0
C380 C 0.08386 0.93496 0.11856 0.0
C381 C 0.19096 0.98853 0.12219 0.0
C382 C 0.15129 0.95721 0.12049 0.0
C383 C 0.03634 0.86581 0.11637 0.0
C384 C 0.07589 0.89743 0.11765 0.0
H385 H 0.2795 0.0157 0.10659 0.0
H386 H 0.2143 0.96477 0.10334 0.0
H387 H 0.12634 0.99313 0.12033 0.0
H388 H 0.94949 0.83464 0.13522 0.0
H389 H 0.01368 0.88858 0.13611 0.0
C390 C 0.82839 0.77407 0.38331 0.0
C391 C 0.79148 0.74441 0.38588 0.0
C392 C 0.83678 0.81139 0.38469 0.0
C393 C 0.7973 0.87124 0.40084 0.0
H394 H 0.87803 0.94587 0.37096 0.0
C395 C 0.86274 0.03598 0.37582 0.0
C396 C 0.8571 0.05121 0.39175 0.0
C397 C 0.85567 0.99893 0.37553 0.0
C398 C 0.85504 0.92547 0.37926 0.0
H399 H 0.73403 0.73024 0.39175 0.0
H400 H 0.74796 0.79549 0.39314 0.0
H401 H 0.8617 0.88062 0.36882 0.0
H402 H 0.84109 0.04051 0.42005 0.0
H403 H 0.83074 0.97652 0.41991 0.0
H404 H 0.78905 0.91581 0.41037 0.0
C405 C 0.77097 0.79015 0.3907 0.0
C406 C 0.84607 0.88787 0.37828 0.0
C407 C 0.76282 0.75269 0.38974 0.0
C408 C 0.84548 0.02926 0.40756 0.0
C409 C 0.83915 0.99243 0.40739 0.0
C410 C 0.80576 0.90876 0.40153 0.0
C411 C 0.80816 0.8201 0.38821 0.0
C412 C 0.81721 0.86017 0.38912 0.0
C413 C 0.84355 0.97647 0.39129 0.0
C414 C 0.83484 0.93648 0.39078 0.0
H415 H 0.85097 0.76844 0.38049 0.0
H416 H 0.86591 0.83335 0.38317 0.0
H417 H 0.77528 0.85102 0.40962 0.0
H418 H 0.87135 0.05226 0.36339 0.0
H419 H 0.85874 0.98768 0.36276 0.0
C420 C 0.25563 0.99916 0.62444 0.0
C421 C 0.2256 0.96191 0.62448 0.0
C422 C 0.24866 0.02919 0.62277 0.0
C423 C 0.17096 0.05098 0.62763 0.0
H424 H 0.24043 0.14257 0.60224 0.0
C425 C 0.18268 0.19926 0.60094 0.0
C426 C 0.167 0.20715 0.61609 0.0
C427 C 0.18896 0.16869 0.60119 0.0
C428 C 0.22044 0.11701 0.60918 0.0
H429 H 0.1655 0.92685 0.62144 0.0
H430 H 0.15292 0.97844 0.61816 0.0
H431 H 0.25321 0.09063 0.60359 0.0
H432 H 0.14543 0.18951 0.64332 0.0
H433 H 0.15731 0.137 0.64403 0.0
H434 H 0.13743 0.0766 0.63263 0.0
C435 C 0.18175 0.98493 0.62026 0.0
C436 C 0.22811 0.0874 0.61021 0.0
C437 C 0.18879 0.95517 0.6222 0.0
C438 C 0.15732 0.18384 0.6314 0.0
C439 C 0.16396 0.15359 0.63175 0.0
C440 C 0.16309 0.08034 0.62643 0.0
C441 C 0.21151 0.02241 0.62078 0.0
C442 C 0.20352 0.05403 0.61951 0.0
C443 C 0.18002 0.14567 0.61668 0.0
C444 C 0.18784 0.11387 0.61731 0.0
H445 H 0.28441 0.00508 0.62606 0.0
H446 H 0.2723 0.05764 0.62339 0.0
H447 H 0.1516 0.026 0.63515 0.0
H448 H 0.19031 0.21684 0.58895 0.0
H449 H 0.20074 0.16309 0.58922 0.0
C450 C 0.04328 0.86405 0.88284 0.0
C451 C 0.0504 0.83982 0.89342 0.0
C452 C 1.0069 0.85919 0.88203 0.0
C453 C 0.91553 0.81488 0.90651 0.0
H454 H 0.87495 0.82207 0.86013 0.0
C455 C 0.75739 0.76443 0.89652 0.0
C456 C 0.74807 0.78672 0.88569 0.0
C457 C 0.79473 0.77215 0.89756 0.0
C458 C 0.88601 0.82042 0.87323 0.0
H459 H 0.02543 0.79169 0.91148 0.0
H460 H 0.96203 0.783 0.90999 0.0
H461 H 0.93957 0.83401 0.86189 0.0
H462 H 0.77001 0.83397 0.86716 0.0
H463 H 0.83537 0.84798 0.86917 0.0
H464 H 0.86196 0.80112 0.91785 0.0
C465 C 0.98444 0.80603 0.90248 0.0
C466 C 0.92307 0.82729 0.87423 0.0
C467 C 0.02071 0.81085 0.90325 0.0
C468 C 0.77658 0.81664 0.87578 0.0
C469 C 0.81392 0.82438 0.87679 0.0
C470 C 0.8785 0.80803 0.90551 0.0
C471 C 0.97704 0.83008 0.89184 0.0
C472 C 0.93818 0.82433 0.89086 0.0
C473 C 0.82347 0.80228 0.88773 0.0
C474 C 0.86319 0.81046 0.88884 0.0
H475 H 0.06576 0.88667 0.87517 0.0
H476 H 1.00224 0.87844 0.87386 0.0
H477 H 0.9265 0.81299 0.91959 0.0
H478 H 0.73588 0.74119 0.90431 0.0
H479 H 0.801 0.75425 0.90592 0.0
C480 C 0.8267 0.97714 0.60231 0.0
C481 C 0.81227 0.95704 0.6185 0.0
C482 C 0.85757 0.01377 0.60263 0.0
C483 C 0.93265 0.08422 0.63359 0.0
H484 H 0.93846 0.15402 0.59662 0.0
C485 C 0.0588 0.23543 0.63078 0.0
C486 C 0.05367 0.26421 0.62364 0.0
C487 C 0.03007 0.19792 0.62978 0.0
C488 C 0.93707 0.13523 0.60727 0.0
H489 H 0.81834 0.95905 0.64769 0.0
H490 H 0.87045 0.02343 0.64849 0.0
H491 H 0.88736 0.08954 0.59589 0.0
H492 H 0.01382 0.27677 0.61063 0.0
H493 H 0.96251 0.21167 0.61 0.0
H494 H 0.98049 0.13047 0.64582 0.0
C495 C 0.85944 0.01086 0.63539 0.0
C496 C 0.90801 0.09771 0.60662 0.0
C497 C 0.8293 0.9739 0.63499 0.0
C498 C 0.01865 0.25501 0.61608 0.0
C499 C 0.98939 0.21752 0.61553 0.0
C500 C 0.96105 0.12193 0.63454 0.0
C501 C 0.87399 0.03152 0.61922 0.0
C502 C 0.9054 0.07153 0.61974 0.0
C503 C 0.99478 0.18828 0.6222 0.0
C504 C 0.9639 0.14805 0.62133 0.0
H505 H 0.81406 0.96456 0.5894 0.0
H506 H 0.86837 0.02808 0.58983 0.0
H507 H 0.93233 0.0651 0.6438 0.0
H508 H 0.08508 0.24189 0.63716 0.0
H509 H 0.03593 0.17657 0.63482 0.0
C510 C 0.18703 0.2001 0.89956 0.0
C511 C 0.15913 0.20204 0.88935 0.0
C512 C 0.19287 0.1695 0.89766 0.0
C513 C 0.21525 0.11495 0.88214 0.0
H514 H 0.13111 0.01273 0.88009 0.0
C515 C 0.23618 0.98679 0.8706 0.0
C516 C 0.21559 0.95646 0.88242 0.0
C517 C 0.22825 0.01627 0.86957 0.0
C518 C 0.1549 0.04114 0.88063 0.0
H519 H 0.11483 0.17335 0.86947 0.0
H520 H 0.12497 0.11966 0.86612 0.0
H521 H 0.11904 0.06513 0.88284 0.0
H522 H 0.17055 0.93296 0.90236 0.0
H523 H 0.15666 0.98395 0.90053 0.0
H524 H 0.25112 0.09091 0.88046 0.0
C525 C 0.14224 0.14171 0.87565 0.0
C526 C 0.14798 0.07115 0.88206 0.0
C527 C 0.13647 0.17242 0.87754 0.0
C528 C 0.18662 0.95575 0.89295 0.0
C529 C 0.17856 0.98495 0.89187 0.0
C530 C 0.22217 0.08495 0.88065 0.0
C531 C 0.17087 0.14019 0.88551 0.0
C532 C 0.17809 0.10836 0.8831 0.0
C533 C 0.19945 0.01571 0.88029 0.0
C534 C 0.19208 0.04769 0.88015 0.0
H535 H 0.20485 0.22259 0.90879 0.0
H536 H 0.21467 0.16881 0.9057 0.0
H537 H 0.23905 0.14336 0.88263 0.0
H538 H 0.25865 0.98795 0.86233 0.0
H539 H 0.24465 0.03951 0.86043 0.0
C540 C 0.02685 0.82471 0.60466 0.0
C541 C 0.05241 0.8484 0.61785 0.0
C542 C 0.99004 0.81859 0.60419 0.0
C543 C 0.93043 0.85762 0.61886 0.0
H544 H 0.84885 0.7542 0.61566 0.0
C545 C 0.77586 0.81654 0.63299 0.0
C546 C 0.74753 0.78776 0.62253 0.0
C547 C 0.81322 0.82454 0.63164 0.0
C548 C 0.87122 0.7833 0.61627 0.0
H549 H 0.06013 0.88514 0.64055 0.0
H550 H 0.99583 0.87475 0.63963 0.0
H551 H 0.91403 0.76793 0.61422 0.0
H552 H 0.73576 0.745 0.60229 0.0
H553 H 0.80115 0.75932 0.59961 0.0
H554 H 0.88777 0.87313 0.62076 0.0
C555 C 1.00421 0.8609 0.62966 0.0
C556 C 0.9086 0.79113 0.61548 0.0
C557 C 0.04092 0.86673 0.63024 0.0
C558 C 0.7571 0.76709 0.61065 0.0
C559 C 0.79455 0.77527 0.60917 0.0
C560 C 0.89304 0.84983 0.61949 0.0
C561 C 0.97823 0.83635 0.61679 0.0
C562 C 0.93859 0.82834 0.6169 0.0
C563 C 0.8231 0.80408 0.61968 0.0
C564 C 0.86293 0.81253 0.61836 0.0
H565 H 0.03505 0.81027 0.59494 0.0
H566 H 0.97076 0.79986 0.59399 0.0
H567 H 0.95298 0.88661 0.61976 0.0
H568 H 0.76907 0.83263 0.64237 0.0
H569 H 0.83423 0.84642 0.6402 0.0
C570 C 0.02045 0.25266 0.89861 0.0
C571 C 0.0504 0.26277 0.88645 0.0
C572 C 0.99147 0.21517 0.89996 0.0
C573 C 0.96851 0.1174 0.88941 0.0
H574 H 0.86521 0.09568 0.89455 0.0
C575 C 0.83885 0.96747 0.88149 0.0
C576 C 0.8084 0.95743 0.89335 0.0
C577 C 0.86956 1.00428 0.88141 0.0
C578 C 0.89395 0.10124 0.89335 0.0
H579 H 0.07328 0.24215 0.86583 0.0
H580 H 0.02268 0.17674 0.86804 0.0
H581 H 0.91608 0.1608 0.89281 0.0
H582 H 0.78655 0.97741 0.91479 0.0
H583 H 0.84015 0.04142 0.9148 0.0
H584 H 0.94617 0.05769 0.88977 0.0
C585 C 0.02182 0.19746 0.87684 0.0
C586 C 0.92314 0.13863 0.89236 0.0
C587 C 0.05078 0.23491 0.87554 0.0
C588 C 0.8096 0.98445 0.90545 0.0
C589 C 0.84018 0.02118 0.90536 0.0
C590 C 0.93925 0.07996 0.89036 0.0
C591 C 0.99181 0.18708 0.88909 0.0
C592 C 0.9608 0.14721 0.89036 0.0
C593 C 0.87029 0.03171 0.89317 0.0
C594 C 0.90162 0.07145 0.89235 0.0
H595 H 0.01969 0.27363 0.90728 0.0
H596 H 0.96909 0.20813 0.9097 0.0
H597 H 0.99724 0.12299 0.88815 0.0
H598 H 0.83856 0.94715 0.872 0.0
H599 H 0.89215 0.01152 0.87176 0.0
C600 C 0.3769 0.1713 0.32611 0.0
C601 C 0.34608 0.16721 0.33641 0.0
C602 C 0.37711 0.17442 0.30724 0.0
C603 C 0.31298 0.15127 0.26822 0.0
H604 H 0.40513 0.21723 0.24208 0.0
C605 C 0.31499 0.16669 0.19035 0.0
C606 C 0.34503 0.16683 0.18096 0.0
C607 C 0.3157 0.1698 0.20925 0.0
C608 C 0.37923 0.19843 0.24916 0.0
H609 H 0.29156 0.16394 0.33484 0.0
H610 H 0.29211 0.16972 0.30185 0.0
H611 H 0.40506 0.21757 0.27517 0.0
H612 H 0.39983 0.17125 0.18416 0.0
H613 H 0.40089 0.17636 0.21714 0.0
H614 H 0.28724 0.1318 0.24224 0.0
C615 C 0.31595 0.17008 0.30842 0.0
C616 C 0.37918 0.19864 0.26815 0.0
C617 C 0.31576 0.16702 0.32735 0.0
C618 C 0.37621 0.17107 0.19092 0.0
C619 C 0.37691 0.17419 0.20985 0.0
C620 C 0.31303 0.15106 0.24925 0.0
C621 C 0.34652 0.1735 0.29812 0.0
C622 C 0.34611 0.17485 0.27792 0.0
C623 C 0.34645 0.17315 0.21927 0.0
C624 C 0.34622 0.17445 0.23947 0.0
H625 H 0.40077 0.17152 0.33258 0.0
H626 H 0.40089 0.17651 0.29975 0.0
H627 H 0.28717 0.13213 0.27528 0.0
H628 H 0.29059 0.16371 0.18316 0.0
H629 H 0.29205 0.16954 0.21602 0.0
C630 C 0.85548 0.68907 0.32168 0.0
C631 C 0.82585 0.66021 0.33166 0.0
C632 C 0.85604 0.68754 0.30278 0.0
C633 C 0.81572 0.62396 0.26324 0.0
H634 H 0.84416 0.7172 0.23779 0.0
C635 C 0.79617 0.63189 0.18566 0.0
C636 C 0.8251 0.6627 0.17627 0.0
C637 C 0.79683 0.62997 0.20459 0.0
C638 C 0.8366 0.69101 0.24467 0.0
H639 H 0.77409 0.60642 0.32953 0.0
H640 H 0.77488 0.60397 0.29643 0.0
H641 H 0.84426 0.71648 0.27077 0.0
H642 H 0.87798 0.71512 0.17952 0.0
H643 H 0.8792 0.71157 0.21242 0.0
H644 H 0.80779 0.59852 0.237 0.0
C645 C 0.79787 0.62766 0.3033 0.0
C646 C 0.83667 0.69059 0.2636 0.0
C647 C 0.79735 0.62915 0.32227 0.0
C648 C 0.85508 0.69109 0.18626 0.0
C649 C 0.85569 0.68918 0.20516 0.0
C650 C 0.8156 0.62438 0.24425 0.0
C651 C 0.82693 0.65717 0.29332 0.0
C652 C 0.82644 0.65714 0.27314 0.0
C653 C 0.82638 0.65883 0.21458 0.0
C654 C 0.82623 0.65798 0.23475 0.0
H655 H 0.87814 0.71324 0.32844 0.0
H656 H 0.87927 0.71035 0.29556 0.0
H657 H 0.80802 0.5978 0.27017 0.0
H658 H 0.77265 0.60947 0.17842 0.0
H659 H 0.77367 0.60635 0.21144 0.0
C660 C 0.83901 0.20925 0.18593 0.0
C661 C 0.84259 0.18141 0.17642 0.0
C662 C 0.83646 0.20826 0.20489 0.0
C663 C 0.86081 0.16997 0.2447 0.0
H664 H 0.7953 0.19682 0.27086 0.0
C665 C 0.84346 0.15287 0.32211 0.0
C666 C 0.84377 0.1824 0.33197 0.0
C667 C 0.84058 0.15165 0.30321 0.0
C668 C 0.81399 0.18958 0.26375 0.0
H669 H 0.84488 0.12991 0.17947 0.0
H670 H 0.84 0.128 0.21238 0.0
H671 H 0.79505 0.19658 0.2377 0.0
H672 H 0.84015 0.23328 0.3296 0.0
H673 H 0.83546 0.23128 0.29658 0.0
H674 H 0.88 0.16322 0.27063 0.0
C675 C 0.83989 0.15102 0.20522 0.0
C676 C 0.81385 0.18943 0.24474 0.0
C677 C 0.84245 0.15201 0.1863 0.0
C678 C 0.84 0.2101 0.32247 0.0
C679 C 0.83714 0.20889 0.30352 0.0
C680 C 0.86095 0.17011 0.26365 0.0
C681 C 0.83744 0.17942 0.21478 0.0
C682 C 0.8372 0.17951 0.23499 0.0
C683 C 0.83799 0.17994 0.29364 0.0
C684 C 0.83748 0.17979 0.27343 0.0
H685 H 0.83903 0.23234 0.17878 0.0
H686 H 0.83489 0.23074 0.21181 0.0
H687 H 0.87975 0.16298 0.23765 0.0
H688 H 0.846 0.13085 0.32894 0.0
H689 H 0.84058 0.12855 0.29607 0.0
C690 C 0.17872 0.38005 0.68571 0.0
C691 C 0.17583 0.34897 0.67617 0.0
C692 C 0.18111 0.38148 0.70466 0.0
C693 C 0.15675 0.31846 0.74423 0.0
H694 H 0.22009 0.41044 0.77085 0.0
C695 C 0.17185 0.31758 0.82167 0.0
C696 C 0.17053 0.34624 0.83156 0.0
C697 C 0.17526 0.31962 0.80279 0.0
C698 C 0.202 0.38461 0.76361 0.0
H699 H 0.17484 0.29579 0.67913 0.0
H700 H 0.17947 0.29856 0.71205 0.0
H701 H 0.22156 0.41107 0.73769 0.0
H702 H 0.17281 0.40013 0.82929 0.0
H703 H 0.17841 0.40349 0.79628 0.0
H704 H 0.13693 0.292 0.77001 0.0
C705 C 0.17912 0.32148 0.70491 0.0
C706 C 0.20285 0.38496 0.74461 0.0
C707 C 0.1767 0.32002 0.686 0.0
C708 C 0.17373 0.37753 0.82212 0.0
C709 C 0.17711 0.37956 0.80319 0.0
C710 C 0.1559 0.31811 0.76316 0.0
C711 C 0.18068 0.35188 0.71451 0.0
C712 C 0.1803 0.35184 0.7347 0.0
C713 C 0.17737 0.35034 0.79329 0.0
C714 C 0.17858 0.35112 0.7731 0.0
H715 H 0.17813 0.40286 0.6786 0.0
H716 H 0.18201 0.40519 0.71162 0.0
H717 H 0.13838 0.29262 0.73704 0.0
H718 H 0.1698 0.29319 0.82845 0.0
H719 H 0.1761 0.29698 0.79563 0.0
C720 C 0.15625 0.84421 0.82681 0.0
C721 C 0.18504 0.84226 0.83629 0.0
C722 C 0.15456 0.84196 0.80784 0.0
C723 C 0.21542 0.85656 0.76796 0.0
H724 H 0.12079 0.80284 0.7419 0.0
C725 C 0.21138 0.83746 0.69036 0.0
C726 C 0.18503 0.84317 0.6807 0.0
C727 C 0.20983 0.83489 0.70929 0.0
C728 C 0.14743 0.81823 0.74898 0.0
H729 H 0.23389 0.83507 0.83317 0.0
H730 H 0.23059 0.83065 0.80031 0.0
H731 H 0.12065 0.80289 0.77504 0.0
H732 H 0.13575 0.84971 0.68347 0.0
H733 H 0.13329 0.84552 0.71644 0.0
H734 H 0.24224 0.87212 0.74198 0.0
C735 C 0.20974 0.8347 0.80746 0.0
C736 C 0.14734 0.81828 0.76798 0.0
C737 C 0.21147 0.83701 0.82637 0.0
C738 C 0.15654 0.84532 0.69043 0.0
C739 C 0.15498 0.84271 0.70937 0.0
C740 C 0.21551 0.85649 0.74901 0.0
C741 C 0.18162 0.83768 0.79792 0.0
C742 C 0.18137 0.83741 0.7777 0.0
C743 C 0.18188 0.83793 0.71905 0.0
C744 C 0.18155 0.83731 0.73926 0.0
H745 H 0.13549 0.84837 0.834 0.0
H746 H 0.13269 0.84466 0.80092 0.0
H747 H 0.2421 0.87223 0.77498 0.0
H748 H 0.2336 0.83547 0.68334 0.0
H749 H 0.23063 0.8306 0.7163 0.0
C750 C 0.63139 0.79954 0.68584 0.0
C751 C 0.66424 0.82626 0.6768 0.0
C752 C 0.62863 0.8004 0.70475 0.0
C753 C 0.67116 0.86179 0.745 0.0
H754 H 0.63099 0.76717 0.77092 0.0
C755 C 0.69409 0.85385 0.82183 0.0
C756 C 0.66448 0.82558 0.83208 0.0
C757 C 0.69132 0.85493 0.80296 0.0
C758 C 0.64176 0.7938 0.76391 0.0
H759 H 0.71961 0.87542 0.68062 0.0
H760 H 0.71486 0.87669 0.71346 0.0
H761 H 0.6308 0.76728 0.73787 0.0
H762 H 0.60821 0.77683 0.83045 0.0
H763 H 0.60332 0.77898 0.79758 0.0
H764 H 0.6826 0.88834 0.77105 0.0
C765 C 0.69106 0.85526 0.70595 0.0
C766 C 0.64165 0.79386 0.74494 0.0
C767 C 0.69385 0.85437 0.68708 0.0
C768 C 0.63167 0.79893 0.82302 0.0
C769 C 0.62893 0.8 0.80413 0.0
C770 C 0.67128 0.86173 0.76397 0.0
C771 C 0.65859 0.82806 0.71505 0.0
C772 C 0.65669 0.82789 0.73524 0.0
C773 C 0.65888 0.82778 0.79385 0.0
C774 C 0.65691 0.82777 0.77367 0.0
H775 H 0.60796 0.77756 0.67837 0.0
H776 H 0.60301 0.77933 0.7113 0.0
H777 H 0.68241 0.88845 0.73796 0.0
H778 H 0.71981 0.87482 0.82832 0.0
H779 H 0.71511 0.87646 0.79546 0.0
C780 C 0.25643 0.91611 0.955 0.0
C781 C 0.22033 0.90288 0.94754 0.0
C782 C 0.26741 0.93827 0.97071 0.0
C783 C 0.24471 1.00174 0.99661 0.0
H784 H 0.30831 0.99469 0.03352 0.0
C785 C 0.27882 0.08358 0.06439 0.0
C786 C 0.31536 0.09823 0.07157 0.0
C787 C 0.26773 0.06048 0.04903 0.0
C788 C 0.29094 0.99735 0.02321 0.0
H789 H 0.1668 0.90102 0.95139 0.0
H790 H 0.18572 0.939 0.97887 0.0
H791 H 0.28688 0.95088 0.00804 0.0
H792 H 0.36924 0.1008 0.06775 0.0
H793 H 0.35001 0.06095 0.04084 0.0
H794 H 0.24875 0.04817 0.01177 0.0
C795 C 0.20588 0.93299 0.97235 0.0
C796 C 0.27858 0.97215 0.00861 0.0
C797 C 0.19491 0.91088 0.95666 0.0
C798 C 0.34086 0.09005 0.06265 0.0
C799 C 0.32974 0.06689 0.04729 0.0
C800 C 0.25704 0.02689 0.0112 0.0
C801 C 0.24255 0.9477 0.97935 0.0
C802 C 0.25525 0.97398 0.99513 0.0
C803 C 0.29286 0.05137 0.04044 0.0
C804 C 0.2803 0.02503 0.0247 0.0
H805 H 0.27682 0.91061 0.94836 0.0
H806 H 0.29593 0.94926 0.97564 0.0
H807 H 0.22742 0.0045 0.98629 0.0
H808 H 0.25829 0.08903 0.07093 0.0
H809 H 0.23901 0.04875 0.04424 0.0
C810 C 0.76462 0.67629 0.45001 0.0
C811 C 0.79823 0.7007 0.44078 0.0
C812 C 0.75434 0.68797 0.46577 0.0
C813 C 0.77247 0.77439 0.49056 0.0
H814 H 0.7194 0.70378 0.52946 0.0
C815 C 0.73937 0.81822 0.56015 0.0
C816 C 0.70352 0.7944 0.56769 0.0
C817 C 0.7511 0.80774 0.54444 0.0
C818 C 0.73387 0.72376 0.51863 0.0
H819 H 0.84792 0.75636 0.44131 0.0
H820 H 0.83046 0.77635 0.46905 0.0
H821 H 0.74099 0.68348 0.50324 0.0
H822 H 0.65163 0.74111 0.56426 0.0
H823 H 0.67212 0.72299 0.53688 0.0
H824 H 0.76567 0.81478 0.50617 0.0
C825 C 0.81159 0.7484 0.46387 0.0
C826 C 0.74626 0.71212 0.50357 0.0
C827 C 0.82178 0.73678 0.44802 0.0
C828 C 0.6794 0.76024 0.55886 0.0
C829 C 0.69125 0.74966 0.54324 0.0
C830 C 0.76031 0.78611 0.50571 0.0
C831 C 0.77747 0.72431 0.47285 0.0
C832 C 0.76553 0.73718 0.48925 0.0
C833 C 0.7274 0.77306 0.53595 0.0
C834 C 0.74064 0.76085 0.51987 0.0
H835 H 0.74558 0.6484 0.44481 0.0
H836 H 0.72761 0.66876 0.4721 0.0
H837 H 0.78663 0.79436 0.47969 0.0
H838 H 0.75877 0.84468 0.56659 0.0
H839 H 0.77921 0.82631 0.53924 0.0
C840 C 0.09122 0.27398 0.94896 0.0
C841 C 0.10369 0.3099 0.94152 0.0
C842 C 0.06893 0.26243 0.96465 0.0
C843 C 0.03778 0.29817 1.0037 0.0
H844 H 0.95423 0.19553 1.00538 0.0
C845 C 0.92095 0.24894 0.05814 0.0
C846 C 0.91026 0.21436 0.0667 0.0
C847 C 0.94381 0.25988 0.04265 0.0
C848 C 0.97761 0.22419 1.00519 0.0
H849 H 0.10303 0.36213 0.94512 0.0
H850 H 0.06399 0.34191 0.97224 0.0
H851 H 0.997 0.21645 0.97944 0.0
H852 H 0.91447 0.16368 0.06521 0.0
H853 H 0.95407 0.18271 0.03816 0.0
H854 H 0.01803 0.30596 0.02936 0.0
C855 C 0.07181 0.32275 0.96613 0.0
C856 C 1.00227 0.23619 0.99034 0.0
C857 C 0.0942 0.33435 0.95048 0.0
C858 C 0.92199 0.19045 0.05899 0.0
C859 C 0.94468 0.20133 0.04343 0.0
C860 C 0.01299 0.28622 0.01849 0.0
C861 C 0.05841 0.28644 0.9733 0.0
C862 C 0.03269 0.27337 0.98937 0.0
C863 C 0.95641 0.23646 0.03526 0.0
C864 C 0.98255 0.24911 0.01941 0.0
H865 H 0.09797 0.25436 0.94246 0.0
H866 H 0.05976 0.23454 0.96995 0.0
H867 H 0.06119 0.32679 1.00361 0.0
H868 H 0.91255 0.26815 0.06367 0.0
H869 H 0.95187 0.28688 0.03653 0.0
C870 C 0.29076 0.09838 0.45713 0.0
C871 C 0.32362 0.10583 0.44762 0.0
C872 C 0.28007 0.07642 0.47288 0.0
C873 C 0.29192 1.00258 0.49528 0.0
H874 H 0.24579 0.02314 0.53639 0.0
C875 C 0.25502 0.91724 0.56224 0.0
C876 C 0.22175 0.90985 0.57133 0.0
C877 C 0.26735 0.94059 0.54695 0.0
C878 C 0.25818 0.01671 0.52492 0.0
H879 H 0.37197 0.0974 0.44781 0.0
H880 H 0.35351 0.0595 0.47539 0.0
H881 H 0.26932 0.06708 0.51099 0.0
H882 H 0.1747 0.92034 0.571 0.0
H883 H 0.19588 0.96042 0.5442 0.0
H884 H 0.2806 0.9521 0.50915 0.0
C885 C 0.33566 0.07012 0.47046 0.0
C886 C 0.27178 0.042 0.51038 0.0
C887 C 0.34641 0.09216 0.45472 0.0
C888 C 0.20047 0.92537 0.56438 0.0
C889 C 0.21282 0.94871 0.5491 0.0
C890 C 0.27828 0.97726 0.50981 0.0
C891 C 0.30195 0.06133 0.47952 0.0
C892 C 0.28875 0.03521 0.49535 0.0
C893 C 0.24675 0.95715 0.54037 0.0
C894 C 0.26111 0.98393 0.5248 0.0
H895 H 0.27246 0.10837 0.45209 0.0
H896 H 0.25381 0.07003 0.47943 0.0
H897 H 0.30422 0.99611 0.48378 0.0
H898 H 0.27224 0.90594 0.56722 0.0
H899 H 0.29376 0.94668 0.54066 0.0
C900 C 0.82272 0.73058 0.05792 0.0
C901 C 0.7997 0.69458 0.0654 0.0
C902 C 0.81164 0.74175 0.04225 0.0
C903 C 0.72633 0.7222 0.017 0.0
H904 H 0.79633 0.77934 0.97851 0.0
C905 C 0.6775 0.75656 0.94965 0.0
C906 C 0.70144 0.7912 0.94115 0.0
C907 C 0.68937 0.74544 0.96506 0.0
C908 C 0.7765 0.76391 0.98926 0.0
H909 H 0.74747 0.64168 0.06182 0.0
H910 H 0.72833 0.66118 0.03447 0.0
H911 H 0.81801 0.7577 1.0042 0.0
H912 H 0.75627 0.84191 0.9427 0.0
H913 H 0.77653 0.82295 0.9698 0.0
H914 H 0.68493 0.72875 1.00228 0.0
C915 C 0.75479 0.68087 0.04086 0.0
C916 C 0.78894 0.75135 1.00395 0.0
C917 C 0.76597 0.66959 0.05645 0.0
C918 C 0.73708 0.81498 0.94883 0.0
C919 C 0.74888 0.80393 0.9643 0.0
C920 C 0.71394 0.73495 1.00239 0.0
C921 C 0.77718 0.7173 0.03375 0.0
C922 C 0.76396 0.73025 0.01797 0.0
C923 C 0.72542 0.76874 0.97245 0.0
C924 C 0.73883 0.75591 0.98828 0.0
H925 H 0.84883 0.75062 0.06445 0.0
H926 H 0.82944 0.77008 0.03719 0.0
H927 H 0.70654 0.70658 0.02774 0.0
H928 H 0.64996 0.73735 0.94408 0.0
H929 H 0.67066 0.71797 0.9708 0.0
C930 C 0.09166 0.2756 0.5598 0.0
C931 C 0.10324 0.31117 0.56746 0.0
C932 C 0.06957 0.26405 0.54408 0.0
C933 C 0.03832 0.29989 0.50526 0.0
H934 H 0.95665 0.19645 0.50248 0.0
C935 C 0.9235 0.25017 0.44997 0.0
C936 C 0.91412 0.21619 0.44112 0.0
C937 C 0.94577 0.26101 0.46562 0.0
C938 C 0.97952 0.22534 0.50299 0.0
H939 H 0.10101 0.36267 0.56431 0.0
H940 H 0.06223 0.34239 0.53715 0.0
H941 H 0.9983 0.21725 0.5288 0.0
H942 H 0.92002 0.16645 0.44222 0.0
H943 H 0.95864 0.18532 0.46956 0.0
H944 H 0.01919 0.30803 0.47953 0.0
C945 C 0.07066 0.32357 0.5431 0.0
C946 C 1.00353 0.23728 0.51805 0.0
C947 C 0.09287 0.33518 0.55877 0.0
C948 C 0.92659 0.19277 0.44866 0.0
C949 C 0.94868 0.20353 0.46439 0.0
C950 C 0.01418 0.28801 0.49026 0.0
C951 C 0.05835 0.28768 0.53564 0.0
C952 C 0.03325 0.27474 0.5194 0.0
C953 C 0.95904 0.23806 0.47289 0.0
C954 C 0.98446 0.25062 0.48895 0.0
H955 H 0.09916 0.25635 0.56609 0.0
H956 H 0.06121 0.23649 0.53856 0.0
H957 H 0.06124 0.32876 0.50565 0.0
H958 H 0.91445 0.26896 0.44458 0.0
H959 H 0.95279 0.28753 0.47199 0.0
C960 C 0.73453 0.14207 0.13179 0.0
C961 C 0.76315 0.16347 0.11925 0.0
C962 C 0.70241 0.14561 0.13296 0.0
C963 C 0.64516 0.17547 0.10671 0.0
H964 H 0.59784 0.16672 0.15348 0.0
C965 C 0.50895 0.18456 0.11534 0.0
C966 C 0.48087 0.15664 0.12635 0.0
C967 C 0.54522 0.18918 0.11477 0.0
C968 C 0.61062 0.16902 0.14032 0.0
H969 H 0.78041 0.20486 0.09779 0.0
H970 H 0.72449 0.21202 0.10012 0.0
H971 H 0.65866 0.16941 0.15195 0.0
H972 H 0.46864 0.11203 0.14556 0.0
H973 H 0.53205 0.12016 0.14467 0.0
H974 H 0.59686 0.17493 0.09512 0.0
C975 C 0.72686 0.19232 0.10904 0.0
C976 C 0.64547 0.17053 0.13942 0.0
C977 C 0.75911 0.18864 0.10785 0.0
C978 C 0.4898 0.1338 0.13699 0.0
C979 C 0.52614 0.1386 0.13653 0.0
C980 C 0.61035 0.1742 0.10763 0.0
C981 C 0.69806 0.17073 0.1216 0.0
C982 C 0.66286 0.17302 0.12259 0.0
C983 C 0.55419 0.16618 0.12533 0.0
C984 C 0.59239 0.17028 0.12442 0.0
H985 H 0.73681 0.12227 0.1407 0.0
H986 H 0.68057 0.12795 0.14253 0.0
H987 H 0.65747 0.17696 0.09351 0.0
H988 H 0.50279 0.20262 0.10702 0.0
H989 H 0.5663 0.21089 0.10614 0.0
C990 C 0.68718 0.50283 0.39934 0.0
C991 C 0.68553 0.53127 0.38949 0.0
C992 C 0.65542 0.46697 0.4007 0.0
C993 C 0.58926 0.38829 0.39344 0.0
H994 H 0.49294 0.38232 0.40228 0.0
C995 C 0.44551 0.2495 0.38987 0.0
C996 C 0.4178 0.24482 0.40253 0.0
C997 C 0.47984 0.28334 0.38908 0.0
C998 C 0.51967 0.38349 0.39999 0.0
H999 H 0.64997 0.54463 0.37301 0.0
H1000 H 0.59442 0.48187 0.37527 0.0
H1001 H 0.54945 0.44362 0.39883 0.0
H1002 H 0.40476 0.27082 0.42485 0.0
H1003 H 0.4648 0.32979 0.42361 0.0
H1004 H 0.55936 0.32801 0.39483 0.0
C1005 C 0.62007 0.48735 0.38214 0.0
C1006 C 0.55197 0.41861 0.39776 0.0
C1007 C 0.65187 0.52318 0.38076 0.0
C1008 C 0.42556 0.27385 0.41487 0.0
C1009 C 0.45982 0.30765 0.41408 0.0
C1010 C 0.55686 0.35307 0.39562 0.0
C1011 C 0.6214 0.45894 0.39227 0.0
C1012 C 0.58712 0.42144 0.39444 0.0
C1013 C 0.487 0.31309 0.40092 0.0
C1014 C 0.52172 0.35031 0.39895 0.0
H1015 H 0.71289 0.50841 0.40619 0.0
H1016 H 0.65725 0.44582 0.40873 0.0
H1017 H 0.61591 0.38955 0.39077 0.0
H1018 H 0.44019 0.22754 0.38017 0.0
H1019 H 0.5001 0.28672 0.37872 0.0
C1020 C 0.88137 0.35853 0.13039 0.0
C1021 C 0.85616 0.32603 0.12082 0.0
C1022 C 0.8782 0.3909 0.1295 0.0
C1023 C 0.81296 0.42583 0.11769 0.0
H1024 H 0.90608 0.52139 0.11401 0.0
C1025 C 0.821 0.57125 0.10649 0.0
C1026 C 0.84759 0.60055 0.11743 0.0
C1027 C 0.8194 0.53622 0.10623 0.0
C1028 C 0.87981 0.49494 0.11514 0.0
H1029 H 0.80738 0.30139 0.10313 0.0
H1030 H 0.80204 0.35815 0.10139 0.0
H1031 H 0.90836 0.46327 0.11508 0.0
H1032 H 0.89251 0.61601 0.137 0.0
H1033 H 0.88977 0.5555 0.13653 0.0
H1034 H 0.78455 0.45799 0.11775 0.0
C1035 C 0.82406 0.35858 0.10971 0.0
C1036 C 0.88112 0.46162 0.11582 0.0
C1037 C 0.82723 0.32617 0.11063 0.0
C1038 C 0.87194 0.59408 0.1283 0.0
C1039 C 0.87049 0.55943 0.12798 0.0
C1040 C 0.81165 0.45934 0.11696 0.0
C1041 C 0.8498 0.3915 0.11898 0.0
C1042 C 0.8478 0.42667 0.11741 0.0
C1043 C 0.84464 0.53025 0.11677 0.0
C1044 C 0.84515 0.49428 0.116 0.0
H1045 H 0.90379 0.35909 0.13843 0.0
H1046 H 0.89806 0.41551 0.13709 0.0
H1047 H 0.78676 0.39939 0.11899 0.0
H1048 H 0.80203 0.57562 0.09792 0.0
H1049 H 0.79921 0.51422 0.09744 0.0
C1050 C 0.48468 0.12034 0.38285 0.0
C1051 C 0.47677 0.14424 0.39326 0.0
C1052 C 0.521 0.1251 0.3827 0.0
C1053 C 0.60952 0.16515 0.40867 0.0
H1054 H 0.65206 0.15898 0.36263 0.0
C1055 C 0.76103 0.18732 0.40244 0.0
C1056 C 0.76451 0.16178 0.39104 0.0
C1057 C 0.72758 0.18896 0.40259 0.0
C1058 C 0.64052 0.1605 0.37563 0.0
H1059 H 0.50026 0.19156 0.41181 0.0
H1060 H 0.56375 0.19974 0.41165 0.0
H1061 H 0.58992 0.15338 0.36341 0.0
H1062 H 0.73603 0.11796 0.37093 0.0
H1063 H 0.67785 0.12024 0.37139 0.0
H1064 H 0.65981 0.17144 0.42093 0.0
C1065 C 0.54191 0.17728 0.40366 0.0
C1066 C 0.60489 0.15727 0.37606 0.0
C1067 C 0.50563 0.17267 0.4037 0.0
C1068 C 0.73419 0.13806 0.3798 0.0
C1069 C 0.70092 0.13962 0.37995 0.0
C1070 C 0.64516 0.16817 0.40825 0.0
C1071 C 0.55006 0.15373 0.39304 0.0
C1072 C 0.58874 0.15902 0.3926 0.0
C1073 C 0.69708 0.16501 0.39135 0.0
C1074 C 0.66083 0.16529 0.39175 0.0
H1075 H 0.46291 0.09819 0.37469 0.0
H1076 H 0.52628 0.10619 0.37457 0.0
H1077 H 0.59772 0.1664 0.42164 0.0
H1078 H 0.78375 0.20541 0.41148 0.0
H1079 H 0.72561 0.20895 0.41148 0.0
C1080 C 0.4183 0.27361 0.13653 0.0
C1081 C 0.40983 0.24632 0.1231 0.0
C1082 C 0.45318 0.30673 0.13669 0.0
C1083 C 0.51539 0.38408 0.12713 0.0
H1084 H 0.60922 0.39069 0.1119 0.0
C1085 C 0.64784 0.52772 0.11502 0.0
C1086 C 0.68294 0.53236 0.12009 0.0
C1087 C 0.61566 0.49203 0.11504 0.0
C1088 C 0.58334 0.38933 0.11638 0.0
H1089 H 0.43126 0.2316 0.0995 0.0
H1090 H 0.49217 0.29026 0.09936 0.0
H1091 H 0.55185 0.32928 0.1135 0.0
H1092 H 0.71222 0.50347 0.12903 0.0
H1093 H 0.65571 0.44105 0.12969 0.0
H1094 H 0.54674 0.44363 0.1307 0.0
C1095 C 0.47217 0.28577 0.11005 0.0
C1096 C 0.55029 0.3541 0.11706 0.0
C1097 C 0.43729 0.25221 0.11007 0.0
C1098 C 0.6854 0.5006 0.12508 0.0
C1099 C 0.65306 0.46483 0.12531 0.0
C1100 C 0.54834 0.41909 0.12663 0.0
C1101 C 0.48027 0.31381 0.12318 0.0
C1102 C 0.51584 0.35102 0.12247 0.0
C1103 C 0.61767 0.46009 0.12038 0.0
C1104 C 0.58278 0.42233 0.12114 0.0
H1105 H 0.39777 0.26948 0.14689 0.0
H1106 H 0.45868 0.327 0.14736 0.0
H1107 H 0.48939 0.38313 0.13103 0.0
H1108 H 0.64523 0.5517 0.11092 0.0
H1109 H 0.5892 0.48952 0.11074 0.0
C1110 C 0.82488 0.57351 0.40262 0.0
C1111 C 0.85045 0.60251 0.39121 0.0
C1112 C 0.8235 0.53858 0.40284 0.0
C1113 C 0.88328 0.49705 0.39252 0.0
H1114 H 0.78991 0.4014 0.39093 0.0
C1115 C 0.88319 0.35951 0.37773 0.0
C1116 C 0.85862 0.32746 0.38778 0.0
C1117 C 0.88028 0.39203 0.37862 0.0
C1118 C 0.81622 0.42787 0.3916 0.0
H1119 H 0.89408 0.6177 0.37091 0.0
H1120 H 0.89177 0.55731 0.37128 0.0
H1121 H 0.7879 0.46009 0.39211 0.0
H1122 H 0.81129 0.30384 0.40641 0.0
H1123 H 0.80641 0.36087 0.40816 0.0
H1124 H 0.91174 0.46529 0.39205 0.0
C1125 C 0.87302 0.56136 0.3802 0.0
C1126 C 0.81503 0.46146 0.39228 0.0
C1127 C 0.87424 0.59594 0.37994 0.0
C1128 C 0.83061 0.32824 0.39851 0.0
C1129 C 0.8277 0.36082 0.39944 0.0
C1130 C 0.88447 0.46364 0.3919 0.0
C1131 C 0.84801 0.53239 0.39179 0.0
C1132 C 0.84861 0.49643 0.39244 0.0
C1133 C 0.85279 0.39328 0.38965 0.0
C1134 C 0.85102 0.42862 0.39113 0.0
H1135 H 0.80682 0.57814 0.41173 0.0
H1136 H 0.80411 0.51685 0.412 0.0
H1137 H 0.90965 0.52351 0.39304 0.0
H1138 H 0.90491 0.35959 0.36926 0.0
H1139 H 0.8996 0.41623 0.37062 0.0
C1140 C 0.14353 0.73091 0.63408 0.0
C1141 C 0.16698 0.76089 0.62261 0.0
C1142 C 0.14461 0.69748 0.63376 0.0
C1143 C 0.20145 0.65462 0.62052 0.0
H1144 H 0.10429 0.56264 0.62089 0.0
C1145 C 0.18425 0.5061 0.61116 0.0
C1146 C 0.15682 0.47704 0.62192 0.0
C1147 C 0.18729 0.54165 0.61101 0.0
C1148 C 0.13168 0.58801 0.621 0.0
H1149 H 0.2101 0.77967 0.60183 0.0
H1150 H 0.21239 0.72094 0.60139 0.0
H1151 H 0.10696 0.62324 0.62095 0.0
H1152 H 0.11168 0.46232 0.64127 0.0
H1153 H 0.11722 0.52441 0.64124 0.0
H1154 H 0.22612 0.61915 0.62071 0.0
C1155 C 0.1934 0.72357 0.61075 0.0
C1156 C 0.1332 0.62276 0.621 0.0
C1157 C 0.19222 0.75718 0.61104 0.0
C1158 C 0.13291 0.48421 0.63276 0.0
C1159 C 0.13597 0.51971 0.63264 0.0
C1160 C 0.19993 0.61971 0.62058 0.0
C1161 C 0.1691 0.69316 0.62192 0.0
C1162 C 0.16806 0.65646 0.62098 0.0
C1163 C 0.16294 0.54876 0.62163 0.0
C1164 C 0.16498 0.586 0.62102 0.0
H1165 H 0.12398 0.73313 0.64323 0.0
H1166 H 0.12607 0.67487 0.64278 0.0
H1167 H 0.22872 0.68013 0.62061 0.0
H1168 H 0.20307 0.50125 0.60268 0.0
H1169 H 0.20814 0.56327 0.60226 0.0
C1170 C 0.36783 0.88669 0.88351 0.0
C1171 C 0.3361 0.86328 0.89409 0.0
C1172 C 0.39912 0.88151 0.88332 0.0
C1173 C 0.44756 0.84152 0.90928 0.0
H1174 H 0.49458 0.84565 0.86299 0.0
C1175 C 0.57686 0.81929 0.90266 0.0
C1176 C 0.60546 0.8445 0.89098 0.0
C1177 C 0.54167 0.81745 0.90295 0.0
C1178 C 0.48199 0.84468 0.87605 0.0
H1179 H 0.31218 0.81644 0.91293 0.0
H1180 H 0.3671 0.80756 0.91272 0.0
H1181 H 0.43829 0.85164 0.86399 0.0
H1182 H 0.61993 0.88744 0.87046 0.0
H1183 H 0.55934 0.88481 0.87115 0.0
H1184 H 0.49185 0.83548 0.92138 0.0
C1185 C 0.36782 0.82994 0.90461 0.0
C1186 C 0.44972 0.84813 0.87661 0.0
C1187 C 0.33639 0.83495 0.90469 0.0
C1188 C 0.59832 0.86761 0.87957 0.0
C1189 C 0.56341 0.86584 0.87985 0.0
C1190 C 0.48006 0.8383 0.90873 0.0
C1191 C 0.39939 0.85295 0.89379 0.0
C1192 C 0.43247 0.84717 0.89324 0.0
C1193 C 0.53461 0.84084 0.89156 0.0
C1194 C 0.49804 0.84049 0.89213 0.0
H1195 H 0.36833 0.90875 0.87523 0.0
H1196 H 0.42323 0.90002 0.87503 0.0
H1197 H 0.43498 0.84085 0.92231 0.0
H1198 H 0.5819 0.80165 0.91183 0.0
H1199 H 0.52006 0.79777 0.91209 0.0
C1200 C 0.50606 0.6842 0.60984 0.0
C1201 C 0.53405 0.68468 0.62104 0.0
C1202 C 0.46961 0.65295 0.60969 0.0
C1203 C 0.4043 0.56959 0.63668 0.0
H1204 H 0.35576 0.52819 0.59053 0.0
C1205 C 0.28198 0.41821 0.6299 0.0
C1206 C 0.25246 0.41032 0.61783 0.0
C1207 C 0.31367 0.45408 0.63065 0.0
C1208 C 0.36858 0.53976 0.60355 0.0
H1209 H 0.54603 0.65327 0.64097 0.0
H1210 H 0.48245 0.59865 0.64073 0.0
H1211 H 0.41649 0.58654 0.5912 0.0
H1212 H 0.233 0.43344 0.59683 0.0
H1213 H 0.2884 0.49685 0.59834 0.0
H1214 H 0.35676 0.52269 0.64904 0.0
C1215 C 0.48847 0.62247 0.63216 0.0
C1216 C 0.40343 0.57316 0.60393 0.0
C1217 C 0.52493 0.65362 0.63223 0.0
C1218 C 0.25509 0.43906 0.60651 0.0
C1219 C 0.28697 0.47515 0.60723 0.0
C1220 C 0.36947 0.53634 0.63631 0.0
C1221 C 0.46042 0.62171 0.62085 0.0
C1222 C 0.42202 0.58802 0.62048 0.0
C1223 C 0.31669 0.48301 0.6193 0.0
C1224 C 0.35155 0.52057 0.61972 0.0
H1225 H 0.51237 0.7079 0.60111 0.0
H1226 H 0.44854 0.65334 0.60096 0.0
H1227 H 0.41753 0.58075 0.64967 0.0
H1228 H 0.28074 0.39651 0.63874 0.0
H1229 H 0.33625 0.45886 0.63985 0.0
C1230 C 0.19939 0.75837 0.88907 0.0
C1231 C 0.17621 0.76277 0.90174 0.0
C1232 C 0.19961 0.72441 0.88798 0.0
C1233 C 0.13896 0.62373 0.89857 0.0
H1234 H 0.22906 0.61794 0.88869 0.0
C1235 C 0.18818 0.505 0.89742 0.0
C1236 C 0.15742 0.47598 0.88816 0.0
C1237 C 0.19212 0.54081 0.89866 0.0
C1238 C 0.20368 0.61909 0.89155 0.0
H1239 H 0.1366 0.73607 0.9238 0.0
H1240 H 0.13732 0.67699 0.92211 0.0
H1241 H 0.23398 0.67935 0.89291 0.0
H1242 H 0.10717 0.46163 0.87258 0.0
H1243 H 0.11418 0.52433 0.87455 0.0
H1244 H 0.10871 0.56358 0.89756 0.0
C1245 C 0.15473 0.69938 0.91274 0.0
C1246 C 0.20646 0.65428 0.8938 0.0
C1247 C 0.1545 0.73329 0.91381 0.0
C1248 C 0.13105 0.48351 0.87986 0.0
C1249 C 0.13497 0.51933 0.8811 0.0
C1250 C 0.13618 0.58861 0.89631 0.0
C1251 C 0.17664 0.69424 0.89956 0.0
C1252 C 0.17412 0.65699 0.89739 0.0
C1253 C 0.16535 0.54831 0.89067 0.0
C1254 C 0.16848 0.58584 0.89277 0.0
H1255 H 0.2164 0.78069 0.87959 0.0
H1256 H 0.21664 0.72132 0.87761 0.0
H1257 H 0.1134 0.62479 0.90104 0.0
H1258 H 0.20892 0.49988 0.90394 0.0
H1259 H 0.21561 0.56235 0.90629 0.0
C1260 C 0.3632 0.87884 0.6362 0.0
C1261 C 0.33149 0.85489 0.62579 0.0
C1262 C 0.39593 0.87619 0.63525 0.0
C1263 C 0.43292 0.81379 0.62104 0.0
H1264 H 0.52829 0.90758 0.6202 0.0
C1265 C 0.57859 0.8239 0.60758 0.0
C1266 C 0.60824 0.84917 0.61876 0.0
C1267 C 0.54354 0.82237 0.60813 0.0
C1268 C 0.50192 0.8811 0.62057 0.0
H1269 H 0.30863 0.80886 0.60651 0.0
H1270 H 0.36601 0.80446 0.60466 0.0
H1271 H 0.46966 0.90899 0.62202 0.0
H1272 H 0.62451 0.89207 0.63946 0.0
H1273 H 0.56382 0.88943 0.64044 0.0
H1274 H 0.46559 0.78603 0.61951 0.0
C1275 C 0.36555 0.82505 0.61371 0.0
C1276 C 0.46827 0.88191 0.62167 0.0
C1277 C 0.33276 0.82769 0.61469 0.0
C1278 C 0.60222 0.8725 0.63059 0.0
C1279 C 0.56748 0.87108 0.6311 0.0
C1280 C 0.46673 0.813 0.6199 0.0
C1281 C 0.39771 0.84959 0.62382 0.0
C1282 C 0.43334 0.8483 0.62214 0.0
C1283 C 0.53783 0.84637 0.61974 0.0
C1284 C 0.50162 0.84668 0.61989 0.0
H1285 H 0.36288 0.89993 0.64495 0.0
H1286 H 0.41991 0.89507 0.64349 0.0
H1287 H 0.40652 0.78737 0.62149 0.0
H1288 H 0.58276 0.80615 0.59809 0.0
H1289 H 0.52132 0.80323 0.59911 0.0
C1290 C 0.52746 0.6483 0.87685 0.0
C1291 C 0.53503 0.67981 0.88738 0.0
C1292 C 0.49197 0.61578 0.8775 0.0
C1293 C 0.39208 0.57951 0.89099 0.0
H1294 H 0.38917 0.48353 0.89027 0.0
C1295 C 0.25497 0.43388 0.90168 0.0
C1296 C 0.25076 0.40522 0.88981 0.0
C1297 C 0.28866 0.46868 0.90185 0.0
C1298 C 0.38945 0.51009 0.89035 0.0
H1299 H 0.51141 0.70242 0.90663 0.0
H1300 H 0.44947 0.64539 0.90799 0.0
H1301 H 0.44967 0.54157 0.88958 0.0
H1302 H 0.27798 0.3906 0.86863 0.0
H1303 H 0.33634 0.4508 0.86894 0.0
H1304 H 0.33153 0.54757 0.89186 0.0
C1305 C 0.47075 0.64586 0.89906 0.0
C1306 C 0.42418 0.54343 0.88989 0.0
C1307 C 0.50628 0.67847 0.89836 0.0
C1308 C 0.28049 0.41207 0.87802 0.0
C1309 C 0.31402 0.44654 0.87824 0.0
C1310 C 0.35719 0.54601 0.89152 0.0
C1311 C 0.46325 0.61395 0.88876 0.0
C1312 C 0.426 0.5786 0.88995 0.0
C1313 C 0.31876 0.47513 0.8903 0.0
C1314 C 0.35552 0.51093 0.89093 0.0
H1315 H 0.54905 0.64867 0.86819 0.0
H1316 H 0.48702 0.59206 0.86911 0.0
H1317 H 0.39239 0.60608 0.89093 0.0
H1318 H 0.23274 0.42907 0.91114 0.0
H1319 H 0.29158 0.4901 0.91138 0.0
loop_
_geom_bond_atom_site_label_1
_geom_bond_atom_site_label_2
_geom_bond_distance
_geom_bond_site_symmetry_2
_ccdc_geom_bond_type
Tb0 O3 2.453 . S
Tb0 O4 2.596 . S
Tb0 O5 2.374 . S
Tb0 O13 2.343 . S
Tb0 O15 2.353 . S
Tb0 O17 2.427 . S
Tb0 O18 2.513 . S
C1 O5 1.251 . S
C1 O7 1.263 . S
Tb2 O4 2.343 . S
Tb2 O7 2.353 . S
Tb2 O10 2.427 . S
Tb2 O11 2.513 . S
Tb2 O12 2.453 . S
Tb2 O13 2.596 . S
Tb2 O14 2.374 . S
O3 Tb0 2.453 . S
O3 C19 1.245 . S
O4 Tb0 2.596 . S
O4 Tb2 2.343 . S
O4 C19 1.259 . S
O5 Tb0 2.374 . S
O5 C1 1.251 . S
C6 O10 1.275 . S
C6 O11 1.246 . S
O7 C1 1.263 . S
O7 Tb2 2.353 . S
C8 O12 1.245 . S
C8 O13 1.259 . S
C9 O14 1.250 . S
C9 O15 1.263 . S
O10 Tb2 2.427 . S
O10 C6 1.275 . S
O11 Tb2 2.513 . S
O11 C6 1.246 . S
O12 Tb2 2.453 . S
O12 C8 1.245 . S
O13 Tb0 2.343 . S
O13 Tb2 2.596 . S
O13 C8 1.259 . S
O14 Tb2 2.374 . S
O14 C9 1.250 . S
O15 Tb0 2.353 . S
O15 C9 1.263 . S
C16 O17 1.275 . S
C16 O18 1.246 . S
O17 Tb0 2.427 . S
O17 C16 1.275 . S
O18 Tb0 2.513 . S
O18 C16 1.246 . S
C19 O3 1.245 . S
C19 O4 1.259 . S
Tb20 O23 2.453 . S
Tb20 O24 2.596 . S
Tb20 O25 2.374 . S
Tb20 O33 2.343 . S
Tb20 O35 2.353 . S
Tb20 O37 2.427 . S
Tb20 O38 2.513 . S
C21 O25 1.251 . S
C21 O27 1.263 . S
Tb22 O24 2.343 . S
Tb22 O27 2.353 . S
Tb22 O30 2.427 . S
Tb22 O31 2.513 . S
Tb22 O32 2.453 . S
Tb22 O33 2.596 . S
Tb22 O34 2.374 . S
O23 Tb20 2.453 . S
O23 C39 1.245 . S
O24 Tb20 2.596 . S
O24 Tb22 2.343 . S
O24 C39 1.259 . S
O25 Tb20 2.374 . S
O25 C21 1.251 . S
C26 O30 1.275 . S
C26 O31 1.246 . S
O27 C21 1.263 . S
O27 Tb22 2.353 . S
C28 O32 1.245 . S
C28 O33 1.259 . S
C29 O34 1.250 . S
C29 O35 1.263 . S
O30 Tb22 2.427 . S
O30 C26 1.275 . S
O31 Tb22 2.513 . S
O31 C26 1.246 . S
O32 Tb22 2.453 . S
O32 C28 1.245 . S
O33 Tb20 2.343 . S
O33 Tb22 2.596 . S
O33 C28 1.259 . S
O34 Tb22 2.374 . S
O34 C29 1.250 . S
O35 Tb20 2.353 . S
O35 C29 1.263 . S
C36 O37 1.275 . S
C36 O38 1.246 . S
O37 Tb20 2.427 . S
O37 C36 1.275 . S
O38 Tb20 2.513 . S
O38 C36 1.246 . S
C39 O23 1.245 . S
C39 O24 1.259 . S
Tb40 O43 2.453 . S
Tb40 O44 2.596 . S
Tb40 O45 2.374 . S
Tb40 O53 2.343 . S
Tb40 O55 2.353 . S
Tb40 O57 2.427 . S
Tb40 O58 2.513 . S
C41 O45 1.251 . S
C41 O47 1.263 . S
Tb42 O44 2.343 . S
Tb42 O47 2.353 . S
Tb42 O50 2.427 . S
Tb42 O51 2.513 . S
Tb42 O52 2.453 . S
Tb42 O53 2.596 . S
Tb42 O54 2.374 . S
O43 Tb40 2.453 . S
O43 C59 1.245 . S
O44 Tb40 2.596 . S
O44 Tb42 2.343 . S
O44 C59 1.259 . S
O45 Tb40 2.374 . S
O45 C41 1.251 . S
C46 O50 1.275 . S
C46 O51 1.246 . S
O47 C41 1.263 . S
O47 Tb42 2.353 . S
C48 O52 1.245 . S
C48 O53 1.259 . S
C49 O54 1.250 . S
C49 O55 1.263 . S
O50 Tb42 2.427 . S
O50 C46 1.275 . S
O51 Tb42 2.513 . S
O51 C46 1.246 . S
O52 Tb42 2.453 . S
O52 C48 1.245 . S
O53 Tb40 2.343 . S
O53 Tb42 2.596 . S
O53 C48 1.259 . S
O54 Tb42 2.374 . S
O54 C49 1.250 . S
O55 Tb40 2.353 . S
O55 C49 1.263 . S
C56 O57 1.275 . S
C56 O58 1.246 . S
O57 Tb40 2.427 . S
O57 C56 1.275 . S
O58 Tb40 2.513 . S
O58 C56 1.246 . S
C59 O43 1.245 . S
C59 O44 1.259 . S
Tb60 O63 2.453 . S
Tb60 O64 2.596 . S
Tb60 O65 2.374 . S
Tb60 O73 2.343 . S
Tb60 O75 2.353 . S
Tb60 O77 2.427 . S
Tb60 O78 2.513 . S
C61 O65 1.251 . S
C61 O67 1.263 . S
Tb62 O64 2.343 . S
Tb62 O67 2.353 . S
Tb62 O70 2.427 . S
Tb62 O71 2.513 . S
Tb62 O72 2.453 . S
Tb62 O73 2.596 . S
Tb62 O74 2.374 . S
O63 Tb60 2.453 . S
O63 C79 1.245 . S
O64 Tb60 2.596 . S
O64 Tb62 2.343 . S
O64 C79 1.259 . S
O65 Tb60 2.374 . S
O65 C61 1.251 . S
C66 O70 1.275 . S
C66 O71 1.246 . S
O67 C61 1.263 . S
O67 Tb62 2.353 . S
C68 O72 1.245 . S
C68 O73 1.259 . S
C69 O74 1.250 . S
C69 O75 1.263 . S
O70 Tb62 2.427 . S
O70 C66 1.275 . S
O71 Tb62 2.513 . S
O71 C66 1.246 . S
O72 Tb62 2.453 . S
O72 C68 1.245 . S
O73 Tb60 2.343 . S
O73 Tb62 2.596 . S
O73 C68 1.259 . S
O74 Tb62 2.374 . S
O74 C69 1.250 . S
O75 Tb60 2.353 . S
O75 C69 1.263 . S
C76 O77 1.275 . S
C76 O78 1.246 . S
O77 Tb60 2.427 . S
O77 C76 1.275 . S
O78 Tb60 2.513 . S
O78 C76 1.246 . S
C79 O63 1.245 . S
C79 O64 1.259 . S
Tb80 O83 2.453 . S
Tb80 O84 2.596 . S
Tb80 O85 2.374 . S
Tb80 O93 2.343 . S
Tb80 O95 2.353 . S
Tb80 O97 2.427 . S
Tb80 O98 2.513 . S
C81 O85 1.251 . S
C81 O87 1.263 . S
Tb82 O84 2.343 . S
Tb82 O87 2.353 . S
Tb82 O90 2.427 . S
Tb82 O91 2.513 . S
Tb82 O92 2.453 . S
Tb82 O93 2.596 . S
Tb82 O94 2.374 . S
O83 Tb80 2.453 . S
O83 C99 1.245 . S
O84 Tb80 2.596 . S
O84 Tb82 2.343 . S
O84 C99 1.259 . S
O85 Tb80 2.374 . S
O85 C81 1.251 . S
C86 O90 1.275 . S
C86 O91 1.246 . S
O87 C81 1.263 . S
O87 Tb82 2.353 . S
C88 O92 1.245 . S
C88 O93 1.259 . S
C89 O94 1.250 . S
C89 O95 1.263 . S
O90 Tb82 2.427 . S
O90 C86 1.275 . S
O91 Tb82 2.513 . S
O91 C86 1.246 . S
O92 Tb82 2.453 . S
O92 C88 1.245 . S
O93 Tb80 2.343 . S
O93 Tb82 2.596 . S
O93 C88 1.259 . S
O94 Tb82 2.374 . S
O94 C89 1.250 . S
O95 Tb80 2.353 . S
O95 C89 1.263 . S
C96 O97 1.275 . S
C96 O98 1.246 . S
O97 Tb80 2.427 . S
O97 C96 1.275 . S
O98 Tb80 2.513 . S
O98 C96 1.246 . S
C99 O83 1.245 . S
C99 O84 1.259 . S
Tb100 O103 2.453 . S
Tb100 O104 2.596 . S
Tb100 O105 2.374 . S
Tb100 O113 2.343 . S
Tb100 O115 2.353 . S
Tb100 O117 2.427 . S
Tb100 O118 2.513 . S
C101 O105 1.251 . S
C101 O107 1.263 . S
Tb102 O104 2.343 . S
Tb102 O107 2.353 . S
Tb102 O110 2.427 . S
Tb102 O111 2.513 . S
Tb102 O112 2.453 . S
Tb102 O113 2.596 . S
Tb102 O114 2.374 . S
O103 Tb100 2.453 . S
O103 C119 1.245 . S
O104 Tb100 2.596 . S
O104 Tb102 2.343 . S
O104 C119 1.259 . S
O105 Tb100 2.374 . S
O105 C101 1.251 . S
C106 O110 1.275 . S
C106 O111 1.246 . S
O107 C101 1.263 . S
O107 Tb102 2.353 . S
C108 O112 1.245 . S
C108 O113 1.259 . S
C109 O114 1.250 . S
C109 O115 1.263 . S
O110 Tb102 2.427 . S
O110 C106 1.275 . S
O111 Tb102 2.513 . S
O111 C106 1.246 . S
O112 Tb102 2.453 . S
O112 C108 1.245 . S
O113 Tb100 2.343 . S
O113 Tb102 2.596 . S
O113 C108 1.259 . S
O114 Tb102 2.374 . S
O114 C109 1.250 . S
O115 Tb100 2.353 . S
O115 C109 1.263 . S
C116 O117 1.275 . S
C116 O118 1.246 . S
O117 Tb100 2.427 . S
O117 C116 1.275 . S
O118 Tb100 2.513 . S
O118 C116 1.246 . S
C119 O103 1.245 . S
C119 O104 1.259 . S
Tb120 O123 2.453 . S
Tb120 O124 2.596 . S
Tb120 O125 2.374 . S
Tb120 O133 2.343 . S
Tb120 O135 2.353 . S
Tb120 O137 2.427 . S
Tb120 O138 2.513 . S
C121 O125 1.251 . S
C121 O127 1.263 . S
Tb122 O124 2.343 . S
Tb122 O127 2.353 . S
Tb122 O130 2.427 . S
Tb122 O131 2.513 . S
Tb122 O132 2.453 . S
Tb122 O133 2.596 . S
Tb122 O134 2.374 . S
O123 Tb120 2.453 . S
O123 C139 1.245 . S
O124 Tb120 2.596 . S
O124 Tb122 2.343 . S
O124 C139 1.259 . S
O125 Tb120 2.374 . S
O125 C121 1.251 . S
C126 O130 1.275 . S
C126 O131 1.246 . S
O127 C121 1.263 . S
O127 Tb122 2.353 . S
C128 O132 1.245 . S
C128 O133 1.259 . S
C129 O134 1.250 . S
C129 O135 1.263 . S
O130 Tb122 2.427 . S
O130 C126 1.275 . S
O131 Tb122 2.513 . S
O131 C126 1.246 . S
O132 Tb122 2.453 . S
O132 C128 1.245 . S
O133 Tb120 2.343 . S
O133 Tb122 2.596 . S
O133 C128 1.259 . S
O134 Tb122 2.374 . S
O134 C129 1.250 . S
O135 Tb120 2.353 . S
O135 C129 1.263 . S
C136 O137 1.275 . S
C136 O138 1.246 . S
O137 Tb120 2.427 . S
O137 C136 1.275 . S
O138 Tb120 2.513 . S
O138 C136 1.246 . S
C139 O123 1.245 . S
C139 O124 1.259 . S
Tb140 O143 2.453 . S
Tb140 O144 2.596 . S
Tb140 O145 2.374 . S
Tb140 O153 2.343 . S
Tb140 O155 2.353 . S
Tb140 O157 2.427 . S
Tb140 O158 2.513 . S
C141 O145 1.251 . S
C141 O147 1.263 . S
Tb142 O144 2.343 . S
Tb142 O147 2.353 . S
Tb142 O150 2.427 . S
Tb142 O151 2.513 . S
Tb142 O152 2.453 . S
Tb142 O153 2.596 . S
Tb142 O154 2.374 . S
O143 Tb140 2.453 . S
O143 C159 1.245 . S
O144 Tb140 2.596 . S
O144 Tb142 2.343 . S
O144 C159 1.259 . S
O145 Tb140 2.374 . S
O145 C141 1.251 . S
C146 O150 1.275 . S
C146 O151 1.246 . S
O147 C141 1.263 . S
O147 Tb142 2.353 . S
C148 O152 1.245 . S
C148 O153 1.259 . S
C149 O154 1.250 . S
C149 O155 1.263 . S
O150 Tb142 2.427 . S
O150 C146 1.275 . S
O151 Tb142 2.513 . S
O151 C146 1.246 . S
O152 Tb142 2.453 . S
O152 C148 1.245 . S
O153 Tb140 2.343 . S
O153 Tb142 2.596 . S
O153 C148 1.259 . S
O154 Tb142 2.374 . S
O154 C149 1.250 . S
O155 Tb140 2.353 . S
O155 C149 1.263 . S
C156 O157 1.275 . S
C156 O158 1.246 . S
O157 Tb140 2.427 . S
O157 C156 1.275 . S
O158 Tb140 2.513 . S
O158 C156 1.246 . S
C159 O143 1.245 . S
C159 O144 1.259 . S
Tb160 O163 2.453 . S
Tb160 O164 2.596 . S
Tb160 O165 2.374 . S
Tb160 O173 2.343 . S
Tb160 O175 2.353 . S
Tb160 O177 2.427 . S
Tb160 O178 2.513 . S
C161 O165 1.251 . S
C161 O167 1.263 . S
Tb162 O164 2.343 . S
Tb162 O167 2.353 . S
Tb162 O170 2.427 . S
Tb162 O171 2.513 . S
Tb162 O172 2.453 . S
Tb162 O173 2.596 . S
Tb162 O174 2.374 . S
O163 Tb160 2.453 . S
O163 C179 1.245 . S
O164 Tb160 2.596 . S
O164 Tb162 2.343 . S
O164 C179 1.259 . S
O165 Tb160 2.374 . S
O165 C161 1.251 . S
C166 O170 1.275 . S
C166 O171 1.246 . S
O167 C161 1.263 . S
O167 Tb162 2.353 . S
C168 O172 1.245 . S
C168 O173 1.259 . S
C169 O174 1.250 . S
C169 O175 1.263 . S
O170 Tb162 2.427 . S
O170 C166 1.275 . S
O171 Tb162 2.513 . S
O171 C166 1.246 . S
O172 Tb162 2.453 . S
O172 C168 1.245 . S
O173 Tb160 2.343 . S
O173 Tb162 2.596 . S
O173 C168 1.259 . S
O174 Tb162 2.374 . S
O174 C169 1.250 . S
O175 Tb160 2.353 . S
O175 C169 1.263 . S
C176 O177 1.275 . S
C176 O178 1.246 . S
O177 Tb160 2.427 . S
O177 C176 1.275 . S
O178 Tb160 2.513 . S
O178 C176 1.246 . S
C179 O163 1.245 . S
C179 O164 1.259 . S
Tb180 O183 2.453 . S
Tb180 O184 2.596 . S
Tb180 O185 2.374 . S
Tb180 O193 2.343 . S
Tb180 O195 2.353 . S
Tb180 O197 2.427 . S
Tb180 O198 2.513 . S
C181 O185 1.251 . S
C181 O187 1.263 . S
Tb182 O184 2.343 . S
Tb182 O187 2.353 . S
Tb182 O190 2.427 . S
Tb182 O191 2.513 . S
Tb182 O192 2.453 . S
Tb182 O193 2.596 . S
Tb182 O194 2.374 . S
O183 Tb180 2.453 . S
O183 C199 1.245 . S
O184 Tb180 2.596 . S
O184 Tb182 2.343 . S
O184 C199 1.259 . S
O185 Tb180 2.374 . S
O185 C181 1.251 . S
C186 O190 1.275 . S
C186 O191 1.246 . S
O187 C181 1.263 . S
O187 Tb182 2.353 . S
C188 O192 1.245 . S
C188 O193 1.259 . S
C189 O194 1.250 . S
C189 O195 1.263 . S
O190 Tb182 2.427 . S
O190 C186 1.275 . S
O191 Tb182 2.513 . S
O191 C186 1.246 . S
O192 Tb182 2.453 . S
O192 C188 1.245 . S
O193 Tb180 2.343 . S
O193 Tb182 2.596 . S
O193 C188 1.259 . S
O194 Tb182 2.374 . S
O194 C189 1.250 . S
O195 Tb180 2.353 . S
O195 C189 1.263 . S
C196 O197 1.275 . S
C196 O198 1.246 . S
O197 Tb180 2.427 . S
O197 C196 1.275 . S
O198 Tb180 2.513 . S
O198 C196 1.246 . S
C199 O183 1.245 . S
C199 O184 1.259 . S
Tb200 O203 2.453 . S
Tb200 O204 2.596 . S
Tb200 O205 2.374 . S
Tb200 O213 2.343 . S
Tb200 O215 2.353 . S
Tb200 O217 2.427 . S
Tb200 O218 2.513 . S
C201 O205 1.251 . S
C201 O207 1.263 . S
Tb202 O204 2.343 . S
Tb202 O207 2.353 . S
Tb202 O210 2.427 . S
Tb202 O211 2.513 . S
Tb202 O212 2.453 . S
Tb202 O213 2.596 . S
Tb202 O214 2.374 . S
O203 Tb200 2.453 . S
O203 C219 1.245 . S
O204 Tb200 2.596 . S
O204 Tb202 2.343 . S
O204 C219 1.259 . S
O205 Tb200 2.374 . S
O205 C201 1.251 . S
C206 O210 1.275 . S
C206 O211 1.246 . S
O207 C201 1.263 . S
O207 Tb202 2.353 . S
C208 O212 1.245 . S
C208 O213 1.259 . S
C209 O214 1.250 . S
C209 O215 1.263 . S
O210 Tb202 2.427 . S
O210 C206 1.275 . S
O211 Tb202 2.513 . S
O211 C206 1.246 . S
O212 Tb202 2.453 . S
O212 C208 1.245 . S
O213 Tb200 2.343 . S
O213 Tb202 2.596 . S
O213 C208 1.259 . S
O214 Tb202 2.374 . S
O214 C209 1.250 . S
O215 Tb200 2.353 . S
O215 C209 1.263 . S
C216 O217 1.275 . S
C216 O218 1.246 . S
O217 Tb200 2.427 . S
O217 C216 1.275 . S
O218 Tb200 2.513 . S
O218 C216 1.246 . S
C219 O203 1.245 . S
C219 O204 1.259 . S
Tb220 O223 2.453 . S
Tb220 O224 2.596 . S
Tb220 O225 2.374 . S
Tb220 O233 2.343 . S
Tb220 O235 2.353 . S
Tb220 O237 2.427 . S
Tb220 O238 2.513 . S
C221 O225 1.251 . S
C221 O227 1.263 . S
Tb222 O224 2.343 . S
Tb222 O227 2.353 . S
Tb222 O230 2.427 . S
Tb222 O231 2.513 . S
Tb222 O232 2.453 . S
Tb222 O233 2.596 . S
Tb222 O234 2.374 . S
O223 Tb220 2.453 . S
O223 C239 1.245 . S
O224 Tb220 2.596 . S
O224 Tb222 2.343 . S
O224 C239 1.259 . S
O225 Tb220 2.374 . S
O225 C221 1.251 . S
C226 O230 1.275 . S
C226 O231 1.246 . S
O227 C221 1.263 . S
O227 Tb222 2.353 . S
C228 O232 1.245 . S
C228 O233 1.259 . S
C229 O234 1.250 . S
C229 O235 1.263 . S
O230 Tb222 2.427 . S
O230 C226 1.275 . S
O231 Tb222 2.513 . S
O231 C226 1.246 . S
O232 Tb222 2.453 . S
O232 C228 1.245 . S
O233 Tb220 2.343 . S
O233 Tb222 2.596 . S
O233 C228 1.259 . S
O234 Tb222 2.374 . S
O234 C229 1.250 . S
O235 Tb220 2.353 . S
O235 C229 1.263 . S
C236 O237 1.275 . S
C236 O238 1.246 . S
O237 Tb220 2.427 . S
O237 C236 1.275 . S
O238 Tb220 2.513 . S
O238 C236 1.246 . S
C239 O223 1.245 . S
C239 O224 1.259 . S
C240 C241 1.349 . S
C240 C242 1.327 . S
C240 H265 0.950 . S
C241 C240 1.349 . S
C241 C257 1.349 . S
C242 C240 1.327 . S
C242 C261 1.429 1_655 S
C242 H266 0.950 1_655 S
C243 C260 1.574 . S
C243 C262 1.368 . S
C243 H267 0.949 . S
H244 C248 0.949 . S
C245 C246 1.349 . S
C245 C247 1.327 . S
C245 H268 0.950 . S
C246 C245 1.349 . S
C246 C258 1.349 . S
C247 C245 1.327 . S
C247 C263 1.429 . S
C247 H269 0.950 . S
C248 H244 0.949 . S
C248 C256 1.574 . S
C248 C264 1.368 . S
H249 C257 0.950 . S
H250 C255 0.950 . S
H251 C256 0.949 . S
H252 C258 0.950 . S
H253 C259 0.950 . S
H254 C260 0.949 . S
C255 H250 0.950 . S
C255 C257 1.327 . S
C255 C261 1.429 1_655 S
C256 C248 1.574 . S
C256 H251 0.949 . S
C256 C262 1.368 . S
C257 C241 1.349 . S
C257 H249 0.950 . S
C257 C255 1.327 . S
C258 C246 1.349 . S
C258 H252 0.950 . S
C258 C259 1.327 . S
C259 H253 0.950 . S
C259 C258 1.327 . S
C259 C263 1.429 . S
C260 C243 1.574 . S
C260 H254 0.949 . S
C260 C264 1.368 . S
C261 C242 1.429 1_455 S
C261 C255 1.429 1_455 S
C261 C262 1.523 . S
C262 C243 1.368 . S
C262 C256 1.368 . S
C262 C261 1.523 . S
C263 C247 1.429 . S
C263 C259 1.429 . S
C263 C264 1.523 . S
C264 C248 1.368 . S
C264 C260 1.368 . S
C264 C263 1.523 . S
H265 C240 0.950 . S
H266 C242 0.950 1_455 S
H267 C243 0.949 . S
H268 C245 0.950 . S
H269 C247 0.950 . S
C270 C271 1.349 . S
C270 C272 1.327 . S
C270 H295 0.950 . S
C271 C270 1.349 . S
C271 C287 1.349 . S
C272 C270 1.327 . S
C272 C291 1.429 1_545 S
C272 H296 0.950 . S
C273 C290 1.574 . S
C273 C292 1.368 . S
C273 H297 0.949 . S
H274 C278 0.949 . S
C275 C276 1.349 . S
C275 C277 1.327 1_655 S
C275 H298 0.950 . S
C276 C275 1.349 . S
C276 C288 1.349 . S
C277 C275 1.327 1_455 S
C277 C293 1.429 . S
C277 H299 0.950 . S
C278 H274 0.949 . S
C278 C286 1.574 . S
C278 C294 1.368 . S
H279 C287 0.950 . S
H280 C285 0.950 1_565 S
H281 C286 0.949 . S
H282 C288 0.950 . S
H283 C289 0.950 . S
H284 C290 0.949 . S
C285 H280 0.950 1_545 S
C285 C287 1.327 . S
C285 C291 1.429 1_545 S
C286 C278 1.574 . S
C286 H281 0.949 . S
C286 C292 1.368 . S
C287 C271 1.349 . S
C287 H279 0.950 . S
C287 C285 1.327 . S
C288 C276 1.349 . S
C288 H282 0.950 . S
C288 C289 1.327 . S
C289 H283 0.950 . S
C289 C288 1.327 . S
C289 C293 1.429 1_655 S
C290 C273 1.574 . S
C290 H284 0.949 . S
C290 C294 1.368 . S
C291 C272 1.429 1_565 S
C291 C285 1.429 1_565 S
C291 C292 1.523 . S
C292 C273 1.368 . S
C292 C286 1.368 . S
C292 C291 1.523 . S
C293 C277 1.429 . S
C293 C289 1.429 1_455 S
C293 C294 1.523 . S
C294 C278 1.368 . S
C294 C290 1.368 . S
C294 C293 1.523 . S
H295 C270 0.950 . S
H296 C272 0.950 . S
H297 C273 0.949 . S
H298 C275 0.950 . S
H299 C277 0.950 . S
C300 C301 1.349 . S
C300 C302 1.327 1_545 S
C300 H325 0.950 . S
C301 C300 1.349 . S
C301 C317 1.349 . S
C302 C300 1.327 1_565 S
C302 C321 1.429 . S
C302 H326 0.950 . S
C303 C320 1.574 . S
C303 C322 1.368 . S
C303 H327 0.949 . S
H304 C308 0.949 . S
C305 C306 1.349 . S
C305 C307 1.327 . S
C305 H328 0.950 . S
C306 C305 1.349 . S
C306 C318 1.349 . S
C307 C305 1.327 . S
C307 C323 1.429 . S
C307 H329 0.950 . S
C308 H304 0.949 . S
C308 C316 1.574 . S
C308 C324 1.368 . S
H309 C317 0.950 . S
H310 C315 0.950 . S
H311 C316 0.949 . S
H312 C318 0.950 . S
H313 C319 0.950 . S
H314 C320 0.949 . S
C315 H310 0.950 . S
C315 C317 1.327 . S
C315 C321 1.429 1_545 S
C316 C308 1.574 . S
C316 H311 0.949 . S
C316 C322 1.368 . S
C317 C301 1.349 . S
C317 H309 0.950 . S
C317 C315 1.327 . S
C318 C306 1.349 . S
C318 H312 0.950 . S
C318 C319 1.327 . S
C319 H313 0.950 . S
C319 C318 1.327 . S
C319 C323 1.429 . S
C320 C303 1.574 . S
C320 H314 0.949 . S
C320 C324 1.368 . S
C321 C302 1.429 . S
C321 C315 1.429 1_565 S
C321 C322 1.523 . S
C322 C303 1.368 . S
C322 C316 1.368 . S
C322 C321 1.523 . S
C323 C307 1.429 . S
C323 C319 1.429 . S
C323 C324 1.523 . S
C324 C308 1.368 . S
C324 C320 1.368 . S
C324 C323 1.523 . S
H325 C300 0.950 . S
H326 C302 0.950 . S
H327 C303 0.949 . S
H328 C305 0.950 . S
H329 C307 0.950 . S
C330 C331 1.349 . S
C330 C332 1.327 . S
C330 H355 0.950 . S
C331 C330 1.349 . S
C331 C347 1.349 . S
C332 C330 1.327 . S
C332 C351 1.429 . S
C332 H356 0.950 . S
C333 C350 1.574 . S
C333 C352 1.368 . S
C333 H357 0.949 . S
H334 C338 0.949 . S
C335 C336 1.349 . S
C335 C337 1.345 . S
C335 H358 0.950 . S
C336 C335 1.349 . S
C336 C348 1.349 . S
C337 C335 1.345 . S
C337 C353 1.420 1_655 S
C337 H359 0.940 1_655 S
C338 H334 0.949 . S
C338 C346 1.574 . S
C338 C354 1.368 . S
H339 C347 0.950 . S
H340 C345 0.950 . S
H341 C346 0.949 . S
H342 C348 0.950 . S
H343 C349 0.950 . S
H344 C350 0.949 . S
C345 H340 0.950 . S
C345 C347 1.327 . S
C345 C351 1.429 . S
C346 C338 1.574 . S
C346 H341 0.949 . S
C346 C352 1.368 . S
C347 C331 1.349 . S
C347 H339 0.950 . S
C347 C345 1.327 . S
C348 C336 1.349 . S
C348 H342 0.950 . S
C348 C349 1.327 . S
C349 H343 0.950 . S
C349 C348 1.327 . S
C349 C353 1.429 1_655 S
C350 C333 1.574 . S
C350 H344 0.949 . S
C350 C354 1.368 . S
C351 C332 1.429 . S
C351 C345 1.429 . S
C351 C352 1.523 . S
C352 C333 1.368 . S
C352 C346 1.368 . S
C352 C351 1.523 . S
C353 C337 1.420 1_455 S
C353 C349 1.429 1_455 S
C353 C354 1.523 . S
C354 C338 1.368 . S
C354 C350 1.368 . S
C354 C353 1.523 . S
H355 C330 0.950 . S
H356 C332 0.950 . S
H357 C333 0.949 . S
H358 C335 0.950 . S
H359 C337 0.940 1_455 S
C360 C361 1.349 . S
C360 C362 1.327 . S
C360 H385 0.950 . S
C361 C360 1.349 . S
C361 C377 1.349 . S
C362 C360 1.327 . S
C362 C381 1.429 1_545 S
C362 H386 0.950 1_545 S
C363 C380 1.574 . S
C363 C382 1.368 . S
C363 H387 0.949 . S
H364 C368 0.949 . S
C365 C366 1.349 . S
C365 C367 1.327 . S
C365 H388 0.950 . S
C366 C365 1.349 . S
C366 C378 1.349 . S
C367 C365 1.327 . S
C367 C383 1.429 1_655 S
C367 H389 0.950 . S
C368 H364 0.949 . S
C368 C376 1.574 . S
C368 C384 1.368 . S
H369 C377 0.950 . S
H370 C375 0.950 . S
H371 C376 0.949 . S
H372 C378 0.950 . S
H373 C379 0.950 . S
H374 C380 0.949 . S
C375 H370 0.950 . S
C375 C377 1.327 . S
C375 C381 1.429 1_545 S
C376 C368 1.574 . S
C376 H371 0.949 . S
C376 C382 1.368 . S
C377 C361 1.349 . S
C377 H369 0.950 . S
C377 C375 1.327 . S
C378 C366 1.349 . S
C378 H372 0.950 . S
C378 C379 1.327 1_655 S
C379 H373 0.950 . S
C379 C378 1.327 1_455 S
C379 C383 1.429 . S
C380 C363 1.574 . S
C380 H374 0.949 . S
C380 C384 1.368 . S
C381 C362 1.429 1_565 S
C381 C375 1.429 1_565 S
C381 C382 1.523 . S
C382 C363 1.368 . S
C382 C376 1.368 . S
C382 C381 1.523 . S
C383 C367 1.429 1_455 S
C383 C379 1.429 . S
C383 C384 1.523 . S
C384 C368 1.368 . S
C384 C380 1.368 . S
C384 C383 1.523 . S
H385 C360 0.950 . S
H386 C362 0.950 1_565 S
H387 C363 0.949 . S
H388 C365 0.950 . S
H389 C367 0.950 . S
C390 C391 1.349 . S
C390 C392 1.327 . S
C390 H415 0.950 . S
C391 C390 1.349 . S
C391 C407 1.349 . S
C392 C390 1.327 . S
C392 C411 1.429 . S
C392 H416 0.950 . S
C393 C410 1.574 . S
C393 C412 1.368 . S
C393 H417 0.949 . S
H394 C398 0.949 . S
C395 C396 1.349 . S
C395 C397 1.327 1_545 S
C395 H418 0.950 . S
C396 C395 1.349 . S
C396 C408 1.349 . S
C397 C395 1.327 1_565 S
C397 C413 1.429 . S
C397 H419 0.950 . S
C398 H394 0.949 . S
C398 C406 1.574 . S
C398 C414 1.368 . S
H399 C407 0.950 . S
H400 C405 0.950 . S
H401 C406 0.949 . S
H402 C408 0.950 . S
H403 C409 0.950 . S
H404 C410 0.949 . S
C405 H400 0.950 . S
C405 C407 1.327 . S
C405 C411 1.429 . S
C406 C398 1.574 . S
C406 H401 0.949 . S
C406 C412 1.368 . S
C407 C391 1.349 . S
C407 H399 0.950 . S
C407 C405 1.327 . S
C408 C396 1.349 . S
C408 H402 0.950 . S
C408 C409 1.327 . S
C409 H403 0.950 . S
C409 C408 1.327 . S
C409 C413 1.429 1_545 S
C410 C393 1.574 . S
C410 H404 0.949 . S
C410 C414 1.368 . S
C411 C392 1.429 . S
C411 C405 1.429 . S
C411 C412 1.523 . S
C412 C393 1.368 . S
C412 C406 1.368 . S
C412 C411 1.523 . S
C413 C397 1.429 . S
C413 C409 1.429 1_565 S
C413 C414 1.523 . S
C414 C398 1.368 . S
C414 C410 1.368 . S
C414 C413 1.523 . S
H415 C390 0.950 . S
H416 C392 0.950 . S
H417 C393 0.949 . S
H418 C395 0.950 . S
H419 C397 0.950 . S
C420 C421 1.349 . S
C420 C422 1.327 . S
C420 H445 0.950 . S
C421 C420 1.349 . S
C421 C437 1.349 . S
C422 C420 1.327 . S
C422 C441 1.429 1_565 S
C422 H446 0.950 1_565 S
C423 C440 1.574 . S
C423 C442 1.368 . S
C423 H447 0.949 . S
H424 C428 0.949 . S
C425 C426 1.349 . S
C425 C427 1.327 . S
C425 H448 0.950 . S
C426 C425 1.349 . S
C426 C438 1.349 . S
C427 C425 1.327 . S
C427 C443 1.429 . S
C427 H449 0.950 . S
C428 H424 0.949 . S
C428 C436 1.574 . S
C428 C444 1.368 . S
H429 C437 0.950 . S
H430 C435 0.950 . S
H431 C436 0.949 . S
H432 C438 0.950 . S
H433 C439 0.950 . S
H434 C440 0.949 . S
C435 H430 0.950 . S
C435 C437 1.327 . S
C435 C441 1.429 1_565 S
C436 C428 1.574 . S
C436 H431 0.949 . S
C436 C442 1.368 . S
C437 C421 1.349 . S
C437 H429 0.950 . S
C437 C435 1.327 . S
C438 C426 1.349 . S
C438 H432 0.950 . S
C438 C439 1.327 . S
C439 H433 0.950 . S
C439 C438 1.327 . S
C439 C443 1.429 . S
C440 C423 1.574 . S
C440 H434 0.949 . S
C440 C444 1.368 . S
C441 C422 1.429 1_545 S
C441 C435 1.429 1_545 S
C441 C442 1.523 . S
C442 C423 1.368 . S
C442 C436 1.368 . S
C442 C441 1.523 . S
C443 C427 1.429 . S
C443 C439 1.429 . S
C443 C444 1.523 . S
C444 C428 1.368 . S
C444 C440 1.368 . S
C444 C443 1.523 . S
H445 C420 0.950 . S
H446 C422 0.950 1_545 S
H447 C423 0.949 . S
H448 C425 0.950 . S
H449 C427 0.950 . S
C450 C451 1.349 . S
C450 C452 1.327 1_455 S
C450 H475 0.950 . S
C451 C450 1.349 . S
C451 C467 1.349 . S
C452 C450 1.327 1_655 S
C452 C471 1.429 . S
C452 H476 0.950 . S
C453 C470 1.574 . S
C453 C472 1.368 . S
C453 H477 0.949 . S
H454 C458 0.949 . S
C455 C456 1.349 . S
C455 C457 1.327 . S
C455 H478 0.950 . S
C456 C455 1.349 . S
C456 C468 1.349 . S
C457 C455 1.327 . S
C457 C473 1.429 . S
C457 H479 0.950 . S
C458 H454 0.949 . S
C458 C466 1.574 . S
C458 C474 1.368 . S
H459 C467 0.950 . S
H460 C465 0.950 1_655 S
H461 C466 0.949 . S
H462 C468 0.950 . S
H463 C469 0.950 . S
H464 C470 0.949 . S
C465 H460 0.950 1_455 S
C465 C467 1.327 . S
C465 C471 1.429 1_455 S
C466 C458 1.574 . S
C466 H461 0.949 . S
C466 C472 1.368 . S
C467 C451 1.349 . S
C467 H459 0.950 . S
C467 C465 1.327 . S
C468 C456 1.349 . S
C468 H462 0.950 . S
C468 C469 1.327 . S
C469 H463 0.950 . S
C469 C468 1.327 . S
C469 C473 1.429 . S
C470 C453 1.574 . S
C470 H464 0.949 . S
C470 C474 1.368 . S
C471 C452 1.429 . S
C471 C465 1.429 1_655 S
C471 C472 1.523 . S
C472 C453 1.368 . S
C472 C466 1.368 . S
C472 C471 1.523 . S
C473 C457 1.429 . S
C473 C469 1.429 . S
C473 C474 1.523 . S
C474 C458 1.368 . S
C474 C470 1.368 . S
C474 C473 1.523 . S
H475 C450 0.950 . S
H476 C452 0.950 . S
H477 C453 0.949 . S
H478 C455 0.950 . S
H479 C457 0.950 . S
C480 C481 1.349 . S
C480 C482 1.327 1_565 S
C480 H505 0.950 . S
C481 C480 1.349 . S
C481 C497 1.349 . S
C482 C480 1.327 1_545 S
C482 C501 1.429 . S
C482 H506 0.950 . S
C483 C500 1.574 . S
C483 C502 1.368 . S
C483 H507 0.949 . S
H484 C488 0.949 . S
C485 C486 1.349 . S
C485 C487 1.327 . S
C485 H508 0.950 . S
C486 C485 1.349 . S
C486 C498 1.349 . S
C487 C485 1.327 . S
C487 C503 1.429 1_455 S
C487 H509 0.950 . S
C488 H484 0.949 . S
C488 C496 1.574 . S
C488 C504 1.368 . S
H489 C497 0.950 . S
H490 C495 0.950 . S
H491 C496 0.949 . S
H492 C498 0.950 . S
H493 C499 0.950 1_655 S
H494 C500 0.949 . S
C495 H490 0.950 . S
C495 C497 1.327 . S
C495 C501 1.429 1_565 S
C496 C488 1.574 . S
C496 H491 0.949 . S
C496 C502 1.368 . S
C497 C481 1.349 . S
C497 H489 0.950 . S
C497 C495 1.327 . S
C498 C486 1.349 . S
C498 H492 0.950 . S
C498 C499 1.327 . S
C499 H493 0.950 1_455 S
C499 C498 1.327 . S
C499 C503 1.429 1_455 S
C500 C483 1.574 . S
C500 H494 0.949 . S
C500 C504 1.368 . S
C501 C482 1.429 . S
C501 C495 1.429 1_545 S
C501 C502 1.523 . S
C502 C483 1.368 . S
C502 C496 1.368 . S
C502 C501 1.523 . S
C503 C487 1.429 1_655 S
C503 C499 1.429 1_655 S
C503 C504 1.523 . S
C504 C488 1.368 . S
C504 C500 1.368 . S
C504 C503 1.523 . S
H505 C480 0.950 . S
H506 C482 0.950 . S
H507 C483 0.949 . S
H508 C485 0.950 . S
H509 C487 0.950 . S
C510 C511 1.349 . S
C510 C512 1.327 . S
C510 H535 0.950 . S
C511 C510 1.349 . S
C511 C527 1.349 . S
C512 C510 1.327 . S
C512 C531 1.429 . S
C512 H536 0.950 . S
C513 C530 1.574 . S
C513 C532 1.368 . S
C513 H537 0.949 . S
H514 C518 0.949 . S
C515 C516 1.349 . S
C515 C517 1.327 . S
C515 H538 0.950 . S
C516 C515 1.349 . S
C516 C528 1.349 . S
C517 C515 1.327 . S
C517 C533 1.429 1_565 S
C517 H539 0.950 1_565 S
C518 H514 0.949 . S
C518 C526 1.574 . S
C518 C534 1.368 . S
H519 C527 0.950 . S
H520 C525 0.950 . S
H521 C526 0.949 . S
H522 C528 0.950 . S
H523 C529 0.950 . S
H524 C530 0.949 . S
C525 H520 0.950 . S
C525 C527 1.327 . S
C525 C531 1.429 . S
C526 C518 1.574 . S
C526 H521 0.949 . S
C526 C532 1.368 . S
C527 C511 1.349 . S
C527 H519 0.950 . S
C527 C525 1.327 . S
C528 C516 1.349 . S
C528 H522 0.950 . S
C528 C529 1.327 . S
C529 H523 0.950 . S
C529 C528 1.327 . S
C529 C533 1.429 1_565 S
C530 C513 1.574 . S
C530 H524 0.949 . S
C530 C534 1.368 . S
C531 C512 1.429 . S
C531 C525 1.429 . S
C531 C532 1.523 . S
C532 C513 1.368 . S
C532 C526 1.368 . S
C532 C531 1.523 . S
C533 C517 1.429 1_545 S
C533 C529 1.429 1_545 S
C533 C534 1.523 . S
C534 C518 1.368 . S
C534 C530 1.368 . S
C534 C533 1.523 . S
H535 C510 0.950 . S
H536 C512 0.950 . S
H537 C513 0.949 . S
H538 C515 0.950 . S
H539 C517 0.950 1_545 S
C540 C541 1.349 . S
C540 C542 1.327 1_455 S
C540 H565 0.950 . S
C541 C540 1.349 . S
C541 C557 1.349 . S
C542 C540 1.327 1_655 S
C542 C561 1.429 . S
C542 H566 0.950 . S
C543 C560 1.574 . S
C543 C562 1.368 . S
C543 H567 0.949 . S
H544 C548 0.949 . S
C545 C546 1.349 . S
C545 C547 1.327 . S
C545 H568 0.950 . S
C546 C545 1.349 . S
C546 C558 1.349 . S
C547 C545 1.327 . S
C547 C563 1.429 . S
C547 H569 0.950 . S
C548 H544 0.949 . S
C548 C556 1.574 . S
C548 C564 1.368 . S
H549 C557 0.950 . S
H550 C555 0.950 . S
H551 C556 0.949 . S
H552 C558 0.950 . S
H553 C559 0.950 . S
H554 C560 0.949 . S
C555 H550 0.950 . S
C555 C557 1.327 . S
C555 C561 1.429 1_455 S
C556 C548 1.574 . S
C556 H551 0.949 . S
C556 C562 1.368 . S
C557 C541 1.349 . S
C557 H549 0.950 . S
C557 C555 1.327 . S
C558 C546 1.349 . S
C558 H552 0.950 . S
C558 C559 1.327 . S
C559 H553 0.950 . S
C559 C558 1.327 . S
C559 C563 1.429 . S
C560 C543 1.574 . S
C560 H554 0.949 . S
C560 C564 1.368 . S
C561 C542 1.429 . S
C561 C555 1.429 1_655 S
C561 C562 1.523 . S
C562 C543 1.368 . S
C562 C556 1.368 . S
C562 C561 1.523 . S
C563 C547 1.429 . S
C563 C559 1.429 . S
C563 C564 1.523 . S
C564 C548 1.368 . S
C564 C560 1.368 . S
C564 C563 1.523 . S
H565 C540 0.950 . S
H566 C542 0.950 . S
H567 C543 0.949 . S
H568 C545 0.950 . S
H569 C547 0.950 . S
C570 C571 1.349 . S
C570 C572 1.327 . S
C570 H595 0.950 . S
C571 C570 1.349 . S
C571 C587 1.349 . S
C572 C570 1.327 . S
C572 C591 1.429 1_455 S
C572 H596 0.950 1_455 S
C573 C590 1.574 . S
C573 C592 1.368 . S
C573 H597 0.949 . S
H574 C578 0.949 . S
C575 C576 1.349 . S
C575 C577 1.327 . S
C575 H598 0.950 . S
C576 C575 1.349 . S
C576 C588 1.349 . S
C577 C575 1.327 . S
C577 C593 1.429 1_565 S
C577 H599 0.950 . S
C578 H574 0.949 . S
C578 C586 1.574 . S
C578 C594 1.368 . S
H579 C587 0.950 . S
H580 C585 0.950 . S
H581 C586 0.949 . S
H582 C588 0.950 . S
H583 C589 0.950 . S
H584 C590 0.949 . S
C585 H580 0.950 . S
C585 C587 1.327 . S
C585 C591 1.429 1_455 S
C586 C578 1.574 . S
C586 H581 0.949 . S
C586 C592 1.368 . S
C587 C571 1.349 . S
C587 H579 0.950 . S
C587 C585 1.327 . S
C588 C576 1.349 . S
C588 H582 0.950 . S
C588 C589 1.327 1_565 S
C589 H583 0.950 . S
C589 C588 1.327 1_545 S
C589 C593 1.429 . S
C590 C573 1.574 . S
C590 H584 0.949 . S
C590 C594 1.368 . S
C591 C572 1.429 1_655 S
C591 C585 1.429 1_655 S
C591 C592 1.523 . S
C592 C573 1.368 . S
C592 C586 1.368 . S
C592 C591 1.523 . S
C593 C577 1.429 1_545 S
C593 C589 1.429 . S
C593 C594 1.523 . S
C594 C578 1.368 . S
C594 C590 1.368 . S
C594 C593 1.523 . S
H595 C570 0.950 . S
H596 C572 0.950 1_655 S
H597 C573 0.949 . S
H598 C575 0.950 . S
H599 C577 0.950 . S
C600 C601 1.349 . S
C600 C602 1.327 . S
C600 H625 0.950 . S
C601 C600 1.349 . S
C601 C617 1.349 . S
C602 C600 1.327 . S
C602 C621 1.429 . S
C602 H626 0.950 . S
C603 C620 1.574 . S
C603 C622 1.368 . S
C603 H627 0.949 . S
H604 C608 0.949 . S
C605 C606 1.349 . S
C605 C607 1.327 . S
C605 H628 0.950 . S
C606 C605 1.349 . S
C606 C618 1.349 . S
C607 C605 1.327 . S
C607 C623 1.429 . S
C607 H629 0.950 . S
C608 H604 0.949 . S
C608 C616 1.574 . S
C608 C624 1.368 . S
H609 C617 0.950 . S
H610 C615 0.950 . S
H611 C616 0.949 . S
H612 C618 0.950 . S
H613 C619 0.950 . S
H614 C620 0.949 . S
C615 H610 0.950 . S
C615 C617 1.327 . S
C615 C621 1.429 . S
C616 C608 1.574 . S
C616 H611 0.949 . S
C616 C622 1.368 . S
C617 C601 1.349 . S
C617 H609 0.950 . S
C617 C615 1.327 . S
C618 C606 1.349 . S
C618 H612 0.950 . S
C618 C619 1.327 . S
C619 H613 0.950 . S
C619 C618 1.327 . S
C619 C623 1.429 . S
C620 C603 1.574 . S
C620 H614 0.949 . S
C620 C624 1.368 . S
C621 C602 1.429 . S
C621 C615 1.429 . S
C621 C622 1.523 . S
C622 C603 1.368 . S
C622 C616 1.368 . S
C622 C621 1.523 . S
C623 C607 1.429 . S
C623 C619 1.429 . S
C623 C624 1.523 . S
C624 C608 1.368 . S
C624 C620 1.368 . S
C624 C623 1.523 . S
H625 C600 0.950 . S
H626 C602 0.950 . S
H627 C603 0.949 . S
H628 C605 0.950 . S
H629 C607 0.950 . S
C630 C631 1.349 . S
C630 C632 1.327 . S
C630 H655 0.950 . S
C631 C630 1.349 . S
C631 C647 1.349 . S
C632 C630 1.327 . S
C632 C651 1.429 . S
C632 H656 0.950 . S
C633 C650 1.574 . S
C633 C652 1.368 . S
C633 H657 0.949 . S
H634 C638 0.949 . S
C635 C636 1.349 . S
C635 C637 1.327 . S
C635 H658 0.950 . S
C636 C635 1.349 . S
C636 C648 1.349 . S
C637 C635 1.327 . S
C637 C653 1.429 . S
C637 H659 0.950 . S
C638 H634 0.949 . S
C638 C646 1.574 . S
C638 C654 1.368 . S
H639 C647 0.950 . S
H640 C645 0.950 . S
H641 C646 0.949 . S
H642 C648 0.950 . S
H643 C649 0.950 . S
H644 C650 0.949 . S
C645 H640 0.950 . S
C645 C647 1.327 . S
C645 C651 1.429 . S
C646 C638 1.574 . S
C646 H641 0.949 . S
C646 C652 1.368 . S
C647 C631 1.349 . S
C647 H639 0.950 . S
C647 C645 1.327 . S
C648 C636 1.349 . S
C648 H642 0.950 . S
C648 C649 1.327 . S
C649 H643 0.950 . S
C649 C648 1.327 . S
C649 C653 1.429 . S
C650 C633 1.574 . S
C650 H644 0.949 . S
C650 C654 1.368 . S
C651 C632 1.429 . S
C651 C645 1.429 . S
C651 C652 1.523 . S
C652 C633 1.368 . S
C652 C646 1.368 . S
C652 C651 1.523 . S
C653 C637 1.429 . S
C653 C649 1.429 . S
C653 C654 1.523 . S
C654 C638 1.368 . S
C654 C650 1.368 . S
C654 C653 1.523 . S
H655 C630 0.950 . S
H656 C632 0.950 . S
H657 C633 0.949 . S
H658 C635 0.950 . S
H659 C637 0.950 . S
C660 C661 1.349 . S
C660 C662 1.327 . S
C660 H685 0.950 . S
C661 C660 1.349 . S
C661 C677 1.349 . S
C662 C660 1.327 . S
C662 C681 1.429 . S
C662 H686 0.950 . S
C663 C680 1.574 . S
C663 C682 1.368 . S
C663 H687 0.949 . S
H664 C668 0.949 . S
C665 C666 1.349 . S
C665 C667 1.327 . S
C665 H688 0.950 . S
C666 C665 1.349 . S
C666 C678 1.349 . S
C667 C665 1.327 . S
C667 C683 1.429 . S
C667 H689 0.950 . S
C668 H664 0.949 . S
C668 C676 1.574 . S
C668 C684 1.368 . S
H669 C677 0.950 . S
H670 C675 0.950 . S
H671 C676 0.949 . S
H672 C678 0.950 . S
H673 C679 0.950 . S
H674 C680 0.949 . S
C675 H670 0.950 . S
C675 C677 1.327 . S
C675 C681 1.429 . S
C676 C668 1.574 . S
C676 H671 0.949 . S
C676 C682 1.368 . S
C677 C661 1.349 . S
C677 H669 0.950 . S
C677 C675 1.327 . S
C678 C666 1.349 . S
C678 H672 0.950 . S
C678 C679 1.327 . S
C679 H673 0.950 . S
C679 C678 1.327 . S
C679 C683 1.429 . S
C680 C663 1.574 . S
C680 H674 0.949 . S
C680 C684 1.368 . S
C681 C662 1.429 . S
C681 C675 1.429 . S
C681 C682 1.523 . S
C682 C663 1.368 . S
C682 C676 1.368 . S
C682 C681 1.523 . S
C683 C667 1.429 . S
C683 C679 1.429 . S
C683 C684 1.523 . S
C684 C668 1.368 . S
C684 C680 1.368 . S
C684 C683 1.523 . S
H685 C660 0.950 . S
H686 C662 0.950 . S
H687 C663 0.949 . S
H688 C665 0.950 . S
H689 C667 0.950 . S
C690 C691 1.349 . S
C690 C692 1.327 . S
C690 H715 0.950 . S
C691 C690 1.349 . S
C691 C707 1.349 . S
C692 C690 1.327 . S
C692 C711 1.429 . S
C692 H716 0.950 . S
C693 C710 1.574 . S
C693 C712 1.368 . S
C693 H717 0.949 . S
H694 C698 0.949 . S
C695 C696 1.349 . S
C695 C697 1.327 . S
C695 H718 0.950 . S
C696 C695 1.349 . S
C696 C708 1.349 . S
C697 C695 1.327 . S
C697 C713 1.429 . S
C697 H719 0.950 . S
C698 H694 0.949 . S
C698 C706 1.574 . S
C698 C714 1.368 . S
H699 C707 0.950 . S
H700 C705 0.950 . S
H701 C706 0.949 . S
H702 C708 0.950 . S
H703 C709 0.950 . S
H704 C710 0.949 . S
C705 H700 0.950 . S
C705 C707 1.327 . S
C705 C711 1.429 . S
C706 C698 1.574 . S
C706 H701 0.949 . S
C706 C712 1.368 . S
C707 C691 1.349 . S
C707 H699 0.950 . S
C707 C705 1.327 . S
C708 C696 1.349 . S
C708 H702 0.950 . S
C708 C709 1.327 . S
C709 H703 0.950 . S
C709 C708 1.327 . S
C709 C713 1.429 . S
C710 C693 1.574 . S
C710 H704 0.949 . S
C710 C714 1.368 . S
C711 C692 1.429 . S
C711 C705 1.429 . S
C711 C712 1.523 . S
C712 C693 1.368 . S
C712 C706 1.368 . S
C712 C711 1.523 . S
C713 C697 1.429 . S
C713 C709 1.429 . S
C713 C714 1.523 . S
C714 C698 1.368 . S
C714 C710 1.368 . S
C714 C713 1.523 . S
H715 C690 0.950 . S
H716 C692 0.950 . S
H717 C693 0.949 . S
H718 C695 0.950 . S
H719 C697 0.950 . S
C720 C721 1.349 . S
C720 C722 1.327 . S
C720 H745 0.950 . S
C721 C720 1.349 . S
C721 C737 1.349 . S
C722 C720 1.327 . S
C722 C741 1.429 . S
C722 H746 0.950 . S
C723 C740 1.574 . S
C723 C742 1.368 . S
C723 H747 0.949 . S
H724 C728 0.949 . S
C725 C726 1.349 . S
C725 C727 1.327 . S
C725 H748 0.950 . S
C726 C725 1.349 . S
C726 C738 1.349 . S
C727 C725 1.327 . S
C727 C743 1.429 . S
C727 H749 0.950 . S
C728 H724 0.949 . S
C728 C736 1.574 . S
C728 C744 1.368 . S
H729 C737 0.950 . S
H730 C735 0.950 . S
H731 C736 0.949 . S
H732 C738 0.950 . S
H733 C739 0.950 . S
H734 C740 0.949 . S
C735 H730 0.950 . S
C735 C737 1.327 . S
C735 C741 1.429 . S
C736 C728 1.574 . S
C736 H731 0.949 . S
C736 C742 1.368 . S
C737 C721 1.349 . S
C737 H729 0.950 . S
C737 C735 1.327 . S
C738 C726 1.349 . S
C738 H732 0.950 . S
C738 C739 1.327 . S
C739 H733 0.950 . S
C739 C738 1.327 . S
C739 C743 1.429 . S
C740 C723 1.574 . S
C740 H734 0.949 . S
C740 C744 1.368 . S
C741 C722 1.429 . S
C741 C735 1.429 . S
C741 C742 1.523 . S
C742 C723 1.368 . S
C742 C736 1.368 . S
C742 C741 1.523 . S
C743 C727 1.429 . S
C743 C739 1.429 . S
C743 C744 1.523 . S
C744 C728 1.368 . S
C744 C740 1.368 . S
C744 C743 1.523 . S
H745 C720 0.950 . S
H746 C722 0.950 . S
H747 C723 0.949 . S
H748 C725 0.950 . S
H749 C727 0.950 . S
C750 C751 1.349 . S
C750 C752 1.327 . S
C750 H775 0.950 . S
C751 C750 1.349 . S
C751 C767 1.349 . S
C752 C750 1.327 . S
C752 C771 1.429 . S
C752 H776 0.950 . S
C753 C770 1.574 . S
C753 C772 1.368 . S
C753 H777 0.949 . S
H754 C758 0.949 . S
C755 C756 1.349 . S
C755 C757 1.327 . S
C755 H778 0.950 . S
C756 C755 1.349 . S
C756 C768 1.349 . S
C757 C755 1.327 . S
C757 C773 1.429 . S
C757 H779 0.950 . S
C758 H754 0.949 . S
C758 C766 1.574 . S
C758 C774 1.368 . S
H759 C767 0.950 . S
H760 C765 0.950 . S
H761 C766 0.949 . S
H762 C768 0.950 . S
H763 C769 0.950 . S
H764 C770 0.949 . S
C765 H760 0.950 . S
C765 C767 1.327 . S
C765 C771 1.429 . S
C766 C758 1.574 . S
C766 H761 0.949 . S
C766 C772 1.368 . S
C767 C751 1.349 . S
C767 H759 0.950 . S
C767 C765 1.327 . S
C768 C756 1.349 . S
C768 H762 0.950 . S
C768 C769 1.327 . S
C769 H763 0.950 . S
C769 C768 1.327 . S
C769 C773 1.429 . S
C770 C753 1.574 . S
C770 H764 0.949 . S
C770 C774 1.368 . S
C771 C752 1.429 . S
C771 C765 1.429 . S
C771 C772 1.523 . S
C772 C753 1.368 . S
C772 C766 1.368 . S
C772 C771 1.523 . S
C773 C757 1.429 . S
C773 C769 1.429 . S
C773 C774 1.523 . S
C774 C758 1.368 . S
C774 C770 1.368 . S
C774 C773 1.523 . S
H775 C750 0.950 . S
H776 C752 0.950 . S
H777 C753 0.949 . S
H778 C755 0.950 . S
H779 C757 0.950 . S
C780 C781 1.349 . S
C780 C782 1.327 . S
C780 H805 0.950 . S
C781 C780 1.349 . S
C781 C797 1.349 . S
C782 C780 1.327 . S
C782 C801 1.429 . S
C782 H806 0.950 . S
C783 C800 1.598 . S
C783 C802 1.368 1_545 S
C783 H807 0.949 . S
H784 C788 0.949 . S
C785 C786 1.349 . S
C785 C787 1.327 . S
C785 H808 0.950 . S
C786 C785 1.349 . S
C786 C798 1.349 . S
C787 C785 1.327 . S
C787 C803 1.429 . S
C787 H809 0.950 . S
C788 H784 0.949 . S
C788 C796 1.598 . S
C788 C804 1.368 1_565 S
H789 C797 0.950 . S
H790 C795 0.950 . S
H791 C796 0.949 . S
H792 C798 0.950 . S
H793 C799 0.950 . S
H794 C800 0.949 . S
C795 H790 0.950 . S
C795 C797 1.327 . S
C795 C801 1.429 . S
C796 C788 1.598 . S
C796 H791 0.949 . S
C796 C802 1.345 1_554 S
C797 C781 1.349 . S
C797 H789 0.950 . S
C797 C795 1.327 . S
C798 C786 1.349 . S
C798 H792 0.950 . S
C798 C799 1.327 . S
C799 H793 0.950 . S
C799 C798 1.327 . S
C799 C803 1.429 . S
C800 C783 1.598 . S
C800 H794 0.949 . S
C800 C804 1.345 1_556 S
C801 C782 1.429 . S
C801 C795 1.429 . S
C801 C802 1.523 . S
C802 C783 1.368 1_565 S
C802 C796 1.345 1_556 S
C802 C801 1.523 . S
C803 C787 1.429 . S
C803 C799 1.429 . S
C803 C804 1.523 . S
C804 C788 1.368 1_545 S
C804 C800 1.345 1_554 S
C804 C803 1.523 . S
H805 C780 0.950 . S
H806 C782 0.950 . S
H807 C783 0.949 . S
H808 C785 0.950 . S
H809 C787 0.950 . S
C810 C811 1.349 . S
C810 C812 1.327 . S
C810 H835 0.950 . S
C811 C810 1.349 . S
C811 C827 1.349 . S
C812 C810 1.327 . S
C812 C831 1.429 . S
C812 H836 0.950 . S
C813 C830 1.574 . S
C813 C832 1.368 . S
C813 H837 0.949 . S
H814 C818 0.949 . S
C815 C816 1.349 . S
C815 C817 1.327 . S
C815 H838 0.950 . S
C816 C815 1.349 . S
C816 C828 1.349 . S
C817 C815 1.327 . S
C817 C833 1.429 . S
C817 H839 0.950 . S
C818 H814 0.949 . S
C818 C826 1.574 . S
C818 C834 1.368 . S
H819 C827 0.950 . S
H820 C825 0.950 . S
H821 C826 0.949 . S
H822 C828 0.950 . S
H823 C829 0.950 . S
H824 C830 0.949 . S
C825 H820 0.950 . S
C825 C827 1.327 . S
C825 C831 1.429 . S
C826 C818 1.574 . S
C826 H821 0.949 . S
C826 C832 1.368 . S
C827 C811 1.349 . S
C827 H819 0.950 . S
C827 C825 1.327 . S
C828 C816 1.349 . S
C828 H822 0.950 . S
C828 C829 1.327 . S
C829 H823 0.950 . S
C829 C828 1.327 . S
C829 C833 1.429 . S
C830 C813 1.574 . S
C830 H824 0.949 . S
C830 C834 1.368 . S
C831 C812 1.429 . S
C831 C825 1.429 . S
C831 C832 1.523 . S
C832 C813 1.368 . S
C832 C826 1.368 . S
C832 C831 1.523 . S
C833 C817 1.429 . S
C833 C829 1.429 . S
C833 C834 1.523 . S
C834 C818 1.368 . S
C834 C830 1.368 . S
C834 C833 1.523 . S
H835 C810 0.950 . S
H836 C812 0.950 . S
H837 C813 0.949 . S
H838 C815 0.950 . S
H839 C817 0.950 . S
C840 C841 1.349 . S
C840 C842 1.327 . S
C840 H865 0.950 . S
C841 C840 1.349 . S
C841 C857 1.349 . S
C842 C840 1.327 . S
C842 C861 1.429 . S
C842 H866 0.950 . S
C843 C860 1.574 1_456 S
C843 C862 1.368 . S
C843 H867 0.949 . S
H844 C848 0.949 . S
C845 C846 1.349 . S
C845 C847 1.327 . S
C845 H868 0.950 . S
C846 C845 1.349 . S
C846 C858 1.349 . S
C847 C845 1.327 . S
C847 C863 1.429 . S
C847 H869 0.950 . S
C848 H844 0.949 . S
C848 C856 1.574 1_654 S
C848 C864 1.368 . S
H849 C857 0.950 . S
H850 C855 0.950 . S
H851 C856 0.949 . S
H852 C858 0.950 . S
H853 C859 0.950 . S
H854 C860 0.949 . S
C855 H850 0.950 . S
C855 C857 1.327 . S
C855 C861 1.429 . S
C856 C848 1.574 1_456 S
C856 H851 0.949 . S
C856 C862 1.368 . S
C857 C841 1.349 . S
C857 H849 0.950 . S
C857 C855 1.327 . S
C858 C846 1.349 . S
C858 H852 0.950 . S
C858 C859 1.327 . S
C859 H853 0.950 . S
C859 C858 1.327 . S
C859 C863 1.429 . S
C860 C843 1.574 1_654 S
C860 H854 0.949 . S
C860 C864 1.368 . S
C861 C842 1.429 . S
C861 C855 1.429 . S
C861 C862 1.523 . S
C862 C843 1.368 . S
C862 C856 1.368 . S
C862 C861 1.523 . S
C863 C847 1.429 . S
C863 C859 1.429 . S
C863 C864 1.523 . S
C864 C848 1.368 . S
C864 C860 1.368 . S
C864 C863 1.523 . S
H865 C840 0.950 . S
H866 C842 0.950 . S
H867 C843 0.949 . S
H868 C845 0.950 . S
H869 C847 0.950 . S
C870 C871 1.349 . S
C870 C872 1.327 . S
C870 H895 0.950 . S
C871 C870 1.349 . S
C871 C887 1.349 . S
C872 C870 1.327 . S
C872 C891 1.429 . S
C872 H896 0.950 . S
C873 C890 1.574 . S
C873 C892 1.368 1_565 S
C873 H897 0.949 . S
H874 C878 0.949 . S
C875 C876 1.349 . S
C875 C877 1.327 . S
C875 H898 0.950 . S
C876 C875 1.349 . S
C876 C888 1.349 . S
C877 C875 1.327 . S
C877 C893 1.429 . S
C877 H899 0.950 . S
C878 H874 0.949 . S
C878 C886 1.574 . S
C878 C894 1.368 1_545 S
H879 C887 0.950 . S
H880 C885 0.950 . S
H881 C886 0.949 . S
H882 C888 0.950 . S
H883 C889 0.950 . S
H884 C890 0.949 . S
C885 H880 0.950 . S
C885 C887 1.327 . S
C885 C891 1.429 . S
C886 C878 1.574 . S
C886 H881 0.949 . S
C886 C892 1.368 . S
C887 C871 1.349 . S
C887 H879 0.950 . S
C887 C885 1.327 . S
C888 C876 1.349 . S
C888 H882 0.950 . S
C888 C889 1.327 . S
C889 H883 0.950 . S
C889 C888 1.327 . S
C889 C893 1.429 . S
C890 C873 1.574 . S
C890 H884 0.949 . S
C890 C894 1.368 . S
C891 C872 1.429 . S
C891 C885 1.429 . S
C891 C892 1.523 . S
C892 C873 1.368 1_545 S
C892 C886 1.368 . S
C892 C891 1.523 . S
C893 C877 1.429 . S
C893 C889 1.429 . S
C893 C894 1.523 . S
C894 C878 1.368 1_565 S
C894 C890 1.368 . S
C894 C893 1.523 . S
H895 C870 0.950 . S
H896 C872 0.950 . S
H897 C873 0.949 . S
H898 C875 0.950 . S
H899 C877 0.950 . S
C900 C901 1.349 . S
C900 C902 1.327 . S
C900 H925 0.950 . S
C901 C900 1.349 . S
C901 C917 1.349 . S
C902 C900 1.327 . S
C902 C921 1.429 . S
C902 H926 0.950 . S
C903 C920 1.574 1_554 S
C903 C922 1.368 . S
C903 H927 0.949 . S
H904 C908 0.949 . S
C905 C906 1.349 . S
C905 C907 1.327 . S
C905 H928 0.950 . S
C906 C905 1.349 . S
C906 C918 1.349 . S
C907 C905 1.327 . S
C907 C923 1.429 . S
C907 H929 0.950 . S
C908 H904 0.949 . S
C908 C916 1.574 1_556 S
C908 C924 1.368 . S
H909 C917 0.950 . S
H910 C915 0.950 . S
H911 C916 0.949 . S
H912 C918 0.950 . S
H913 C919 0.950 . S
H914 C920 0.949 . S
C915 H910 0.950 . S
C915 C917 1.327 . S
C915 C921 1.429 . S
C916 C908 1.574 1_554 S
C916 H911 0.949 . S
C916 C922 1.368 . S
C917 C901 1.349 . S
C917 H909 0.950 . S
C917 C915 1.327 . S
C918 C906 1.349 . S
C918 H912 0.950 . S
C918 C919 1.327 . S
C919 H913 0.950 . S
C919 C918 1.327 . S
C919 C923 1.429 . S
C920 C903 1.574 1_556 S
C920 H914 0.949 . S
C920 C924 1.368 . S
C921 C902 1.429 . S
C921 C915 1.429 . S
C921 C922 1.523 . S
C922 C903 1.368 . S
C922 C916 1.368 . S
C922 C921 1.523 . S
C923 C907 1.429 . S
C923 C919 1.429 . S
C923 C924 1.523 . S
C924 C908 1.368 . S
C924 C920 1.368 . S
C924 C923 1.523 . S
H925 C900 0.950 . S
H926 C902 0.950 . S
H927 C903 0.949 . S
H928 C905 0.950 . S
H929 C907 0.950 . S
C930 C931 1.349 . S
C930 C932 1.327 . S
C930 H955 0.950 . S
C931 C930 1.349 . S
C931 C947 1.349 . S
C932 C930 1.327 . S
C932 C951 1.429 . S
C932 H956 0.950 . S
C933 C950 1.574 . S
C933 C952 1.368 . S
C933 H957 0.949 . S
H934 C938 0.949 . S
C935 C936 1.349 . S
C935 C937 1.327 . S
C935 H958 0.950 . S
C936 C935 1.349 . S
C936 C948 1.349 . S
C937 C935 1.327 . S
C937 C953 1.429 . S
C937 H959 0.950 . S
C938 H934 0.949 . S
C938 C946 1.574 . S
C938 C954 1.368 . S
H939 C947 0.950 . S
H940 C945 0.950 . S
H941 C946 0.949 . S
H942 C948 0.950 . S
H943 C949 0.950 . S
H944 C950 0.949 . S
C945 H940 0.950 . S
C945 C947 1.327 . S
C945 C951 1.429 . S
C946 C938 1.574 . S
C946 H941 0.949 . S
C946 C952 1.368 1_655 S
C947 C931 1.349 . S
C947 H939 0.950 . S
C947 C945 1.327 . S
C948 C936 1.349 . S
C948 H942 0.950 . S
C948 C949 1.327 . S
C949 H943 0.950 . S
C949 C948 1.327 . S
C949 C953 1.429 . S
C950 C933 1.574 . S
C950 H944 0.949 . S
C950 C954 1.368 1_455 S
C951 C932 1.429 . S
C951 C945 1.429 . S
C951 C952 1.523 . S
C952 C933 1.368 . S
C952 C946 1.368 1_455 S
C952 C951 1.523 . S
C953 C937 1.429 . S
C953 C949 1.429 . S
C953 C954 1.523 . S
C954 C938 1.368 . S
C954 C950 1.368 1_655 S
C954 C953 1.523 . S
H955 C930 0.950 . S
H956 C932 0.950 . S
H957 C933 0.949 . S
H958 C935 0.950 . S
H959 C937 0.950 . S
C960 C961 1.349 . S
C960 C962 1.327 . S
C960 H985 0.950 . S
C961 C960 1.349 . S
C961 C977 1.349 . S
C962 C960 1.327 . S
C962 C981 1.429 . S
C962 H986 0.950 . S
C963 C980 1.574 . S
C963 C982 1.368 . S
C963 H987 0.949 . S
H964 C968 0.949 . S
C965 C966 1.349 . S
C965 C967 1.327 . S
C965 H988 0.950 . S
C966 C965 1.349 . S
C966 C978 1.349 . S
C967 C965 1.327 . S
C967 C983 1.429 . S
C967 H989 0.950 . S
C968 H964 0.949 . S
C968 C976 1.574 . S
C968 C984 1.368 . S
H969 C977 0.950 . S
H970 C975 0.950 . S
H971 C976 0.949 . S
H972 C978 0.950 . S
H973 C979 0.950 . S
H974 C980 0.949 . S
C975 H970 0.950 . S
C975 C977 1.327 . S
C975 C981 1.429 . S
C976 C968 1.574 . S
C976 H971 0.949 . S
C976 C982 1.368 . S
C977 C961 1.349 . S
C977 H969 0.950 . S
C977 C975 1.327 . S
C978 C966 1.349 . S
C978 H972 0.950 . S
C978 C979 1.327 . S
C979 H973 0.950 . S
C979 C978 1.327 . S
C979 C983 1.429 . S
C980 C963 1.574 . S
C980 H974 0.949 . S
C980 C984 1.368 . S
C981 C962 1.429 . S
C981 C975 1.429 . S
C981 C982 1.523 . S
C982 C963 1.368 . S
C982 C976 1.368 . S
C982 C981 1.523 . S
C983 C967 1.429 . S
C983 C979 1.429 . S
C983 C984 1.523 . S
C984 C968 1.368 . S
C984 C980 1.368 . S
C984 C983 1.523 . S
H985 C960 0.950 . S
H986 C962 0.950 . S
H987 C963 0.949 . S
H988 C965 0.950 . S
H989 C967 0.950 . S
C990 C991 1.349 . S
C990 C992 1.327 . S
C990 H1015 0.950 . S
C991 C990 1.349 . S
C991 C1007 1.349 . S
C992 C990 1.327 . S
C992 C1011 1.429 . S
C992 H1016 0.950 . S
C993 C1010 1.574 . S
C993 C1012 1.368 . S
C993 H1017 0.949 . S
H994 C998 0.949 . S
C995 C996 1.349 . S
C995 C997 1.327 . S
C995 H1018 0.950 . S
C996 C995 1.349 . S
C996 C1008 1.349 . S
C997 C995 1.327 . S
C997 C1013 1.429 . S
C997 H1019 0.950 . S
C998 H994 0.949 . S
C998 C1006 1.574 . S
C998 C1014 1.368 . S
H999 C1007 0.950 . S
H1000 C1005 0.950 . S
H1001 C1006 0.949 . S
H1002 C1008 0.950 . S
H1003 C1009 0.950 . S
H1004 C1010 0.949 . S
C1005 H1000 0.950 . S
C1005 C1007 1.327 . S
C1005 C1011 1.429 . S
C1006 C998 1.574 . S
C1006 H1001 0.949 . S
C1006 C1012 1.368 . S
C1007 C991 1.349 . S
C1007 H999 0.950 . S
C1007 C1005 1.327 . S
C1008 C996 1.349 . S
C1008 H1002 0.950 . S
C1008 C1009 1.327 . S
C1009 H1003 0.950 . S
C1009 C1008 1.327 . S
C1009 C1013 1.429 . S
C1010 C993 1.574 . S
C1010 H1004 0.949 . S
C1010 C1014 1.368 . S
C1011 C992 1.429 . S
C1011 C1005 1.429 . S
C1011 C1012 1.523 . S
C1012 C993 1.368 . S
C1012 C1006 1.368 . S
C1012 C1011 1.523 . S
C1013 C997 1.429 . S
C1013 C1009 1.429 . S
C1013 C1014 1.523 . S
C1014 C998 1.368 . S
C1014 C1010 1.368 . S
C1014 C1013 1.523 . S
H1015 C990 0.950 . S
H1016 C992 0.950 . S
H1017 C993 0.949 . S
H1018 C995 0.950 . S
H1019 C997 0.950 . S
C1020 C1021 1.349 . S
C1020 C1022 1.327 . S
C1020 H1045 0.950 . S
C1021 C1020 1.349 . S
C1021 C1037 1.349 . S
C1022 C1020 1.327 . S
C1022 C1041 1.429 . S
C1022 H1046 0.950 . S
C1023 C1040 1.574 . S
C1023 C1042 1.368 . S
C1023 H1047 0.949 . S
H1024 C1028 0.949 . S
C1025 C1026 1.349 . S
C1025 C1027 1.327 . S
C1025 H1048 0.950 . S
C1026 C1025 1.349 . S
C1026 C1038 1.349 . S
C1027 C1025 1.327 . S
C1027 C1043 1.429 . S
C1027 H1049 0.950 . S
C1028 H1024 0.949 . S
C1028 C1036 1.574 . S
C1028 C1044 1.368 . S
H1029 C1037 0.950 . S
H1030 C1035 0.950 . S
H1031 C1036 0.949 . S
H1032 C1038 0.950 . S
H1033 C1039 0.950 . S
H1034 C1040 0.949 . S
C1035 H1030 0.950 . S
C1035 C1037 1.327 . S
C1035 C1041 1.429 . S
C1036 C1028 1.574 . S
C1036 H1031 0.949 . S
C1036 C1042 1.368 . S
C1037 C1021 1.349 . S
C1037 H1029 0.950 . S
C1037 C1035 1.327 . S
C1038 C1026 1.349 . S
C1038 H1032 0.950 . S
C1038 C1039 1.327 . S
C1039 H1033 0.950 . S
C1039 C1038 1.327 . S
C1039 C1043 1.429 . S
C1040 C1023 1.574 . S
C1040 H1034 0.949 . S
C1040 C1044 1.368 . S
C1041 C1022 1.429 . S
C1041 C1035 1.429 . S
C1041 C1042 1.523 . S
C1042 C1023 1.368 . S
C1042 C1036 1.368 . S
C1042 C1041 1.523 . S
C1043 C1027 1.429 . S
C1043 C1039 1.429 . S
C1043 C1044 1.523 . S
C1044 C1028 1.368 . S
C1044 C1040 1.368 . S
C1044 C1043 1.523 . S
H1045 C1020 0.950 . S
H1046 C1022 0.950 . S
H1047 C1023 0.949 . S
H1048 C1025 0.950 . S
H1049 C1027 0.950 . S
C1050 C1051 1.349 . S
C1050 C1052 1.327 . S
C1050 H1075 0.950 . S
C1051 C1050 1.349 . S
C1051 C1067 1.349 . S
C1052 C1050 1.327 . S
C1052 C1071 1.429 . S
C1052 H1076 0.950 . S
C1053 C1070 1.574 . S
C1053 C1072 1.368 . S
C1053 H1077 0.949 . S
H1054 C1058 0.949 . S
C1055 C1056 1.349 . S
C1055 C1057 1.327 . S
C1055 H1078 0.950 . S
C1056 C1055 1.349 . S
C1056 C1068 1.349 . S
C1057 C1055 1.327 . S
C1057 C1073 1.429 . S
C1057 H1079 0.950 . S
C1058 H1054 0.949 . S
C1058 C1066 1.574 . S
C1058 C1074 1.368 . S
H1059 C1067 0.950 . S
H1060 C1065 0.950 . S
H1061 C1066 0.949 . S
H1062 C1068 0.950 . S
H1063 C1069 0.950 . S
H1064 C1070 0.949 . S
C1065 H1060 0.950 . S
C1065 C1067 1.327 . S
C1065 C1071 1.429 . S
C1066 C1058 1.574 . S
C1066 H1061 0.949 . S
C1066 C1072 1.368 . S
C1067 C1051 1.349 . S
C1067 H1059 0.950 . S
C1067 C1065 1.327 . S
C1068 C1056 1.349 . S
C1068 H1062 0.950 . S
C1068 C1069 1.327 . S
C1069 H1063 0.950 . S
C1069 C1068 1.327 . S
C1069 C1073 1.429 . S
C1070 C1053 1.574 . S
C1070 H1064 0.949 . S
C1070 C1074 1.368 . S
C1071 C1052 1.429 . S
C1071 C1065 1.429 . S
C1071 C1072 1.523 . S
C1072 C1053 1.368 . S
C1072 C1066 1.368 . S
C1072 C1071 1.523 . S
C1073 C1057 1.429 . S
C1073 C1069 1.429 . S
C1073 C1074 1.523 . S
C1074 C1058 1.368 . S
C1074 C1070 1.368 . S
C1074 C1073 1.523 . S
H1075 C1050 0.950 . S
H1076 C1052 0.950 . S
H1077 C1053 0.949 . S
H1078 C1055 0.950 . S
H1079 C1057 0.950 . S
C1080 C1081 1.349 . S
C1080 C1082 1.327 . S
C1080 H1105 0.950 . S
C1081 C1080 1.349 . S
C1081 C1097 1.349 . S
C1082 C1080 1.327 . S
C1082 C1101 1.429 . S
C1082 H1106 0.950 . S
C1083 C1100 1.574 . S
C1083 C1102 1.368 . S
C1083 H1107 0.949 . S
H1084 C1088 0.949 . S
C1085 C1086 1.349 . S
C1085 C1087 1.327 . S
C1085 H1108 0.950 . S
C1086 C1085 1.349 . S
C1086 C1098 1.349 . S
C1087 C1085 1.327 . S
C1087 C1103 1.429 . S
C1087 H1109 0.950 . S
C1088 H1084 0.949 . S
C1088 C1096 1.574 . S
C1088 C1104 1.368 . S
H1089 C1097 0.950 . S
H1090 C1095 0.950 . S
H1091 C1096 0.949 . S
H1092 C1098 0.950 . S
H1093 C1099 0.950 . S
H1094 C1100 0.949 . S
C1095 H1090 0.950 . S
C1095 C1097 1.327 . S
C1095 C1101 1.429 . S
C1096 C1088 1.574 . S
C1096 H1091 0.949 . S
C1096 C1102 1.368 . S
C1097 C1081 1.349 . S
C1097 H1089 0.950 . S
C1097 C1095 1.327 . S
C1098 C1086 1.349 . S
C1098 H1092 0.950 . S
C1098 C1099 1.327 . S
C1099 H1093 0.950 . S
C1099 C1098 1.327 . S
C1099 C1103 1.429 . S
C1100 C1083 1.574 . S
C1100 H1094 0.949 . S
C1100 C1104 1.368 . S
C1101 C1082 1.429 . S
C1101 C1095 1.429 . S
C1101 C1102 1.523 . S
C1102 C1083 1.368 . S
C1102 C1096 1.368 . S
C1102 C1101 1.523 . S
C1103 C1087 1.429 . S
C1103 C1099 1.429 . S
C1103 C1104 1.523 . S
C1104 C1088 1.368 . S
C1104 C1100 1.368 . S
C1104 C1103 1.523 . S
H1105 C1080 0.950 . S
H1106 C1082 0.950 . S
H1107 C1083 0.949 . S
H1108 C1085 0.950 . S
H1109 C1087 0.950 . S
C1110 C1111 1.349 . S
C1110 C1112 1.327 . S
C1110 H1135 0.950 . S
C1111 C1110 1.349 . S
C1111 C1127 1.349 . S
C1112 C1110 1.327 . S
C1112 C1131 1.429 . S
C1112 H1136 0.950 . S
C1113 C1130 1.574 . S
C1113 C1132 1.368 . S
C1113 H1137 0.949 . S
H1114 C1118 0.949 . S
C1115 C1116 1.349 . S
C1115 C1117 1.327 . S
C1115 H1138 0.950 . S
C1116 C1115 1.349 . S
C1116 C1128 1.349 . S
C1117 C1115 1.327 . S
C1117 C1133 1.429 . S
C1117 H1139 0.950 . S
C1118 H1114 0.949 . S
C1118 C1126 1.574 . S
C1118 C1134 1.368 . S
H1119 C1127 0.950 . S
H1120 C1125 0.950 . S
H1121 C1126 0.949 . S
H1122 C1128 0.950 . S
H1123 C1129 0.950 . S
H1124 C1130 0.949 . S
C1125 H1120 0.950 . S
C1125 C1127 1.327 . S
C1125 C1131 1.429 . S
C1126 C1118 1.574 . S
C1126 H1121 0.949 . S
C1126 C1132 1.368 . S
C1127 C1111 1.349 . S
C1127 H1119 0.950 . S
C1127 C1125 1.327 . S
C1128 C1116 1.349 . S
C1128 H1122 0.950 . S
C1128 C1129 1.327 . S
C1129 H1123 0.950 . S
C1129 C1128 1.327 . S
C1129 C1133 1.429 . S
C1130 C1113 1.574 . S
C1130 H1124 0.949 . S
C1130 C1134 1.368 . S
C1131 C1112 1.429 . S
C1131 C1125 1.429 . S
C1131 C1132 1.523 . S
C1132 C1113 1.368 . S
C1132 C1126 1.368 . S
C1132 C1131 1.523 . S
C1133 C1117 1.429 . S
C1133 C1129 1.429 . S
C1133 C1134 1.523 . S
C1134 C1118 1.368 . S
C1134 C1130 1.368 . S
C1134 C1133 1.523 . S
H1135 C1110 0.950 . S
H1136 C1112 0.950 . S
H1137 C1113 0.949 . S
H1138 C1115 0.950 . S
H1139 C1117 0.950 . S
C1140 C1141 1.349 . S
C1140 C1142 1.327 . S
C1140 H1165 0.950 . S
C1141 C1140 1.349 . S
C1141 C1157 1.349 . S
C1142 C1140 1.327 . S
C1142 C1161 1.429 . S
C1142 H1166 0.950 . S
C1143 C1160 1.574 . S
C1143 C1162 1.368 . S
C1143 H1167 0.949 . S
H1144 C1148 0.949 . S
C1145 C1146 1.349 . S
C1145 C1147 1.327 . S
C1145 H1168 0.950 . S
C1146 C1145 1.349 . S
C1146 C1158 1.349 . S
C1147 C1145 1.327 . S
C1147 C1163 1.429 . S
C1147 H1169 0.950 . S
C1148 H1144 0.949 . S
C1148 C1156 1.574 . S
C1148 C1164 1.368 . S
H1149 C1157 0.950 . S
H1150 C1155 0.950 . S
H1151 C1156 0.949 . S
H1152 C1158 0.950 . S
H1153 C1159 0.950 . S
H1154 C1160 0.949 . S
C1155 H1150 0.950 . S
C1155 C1157 1.327 . S
C1155 C1161 1.429 . S
C1156 C1148 1.574 . S
C1156 H1151 0.949 . S
C1156 C1162 1.368 . S
C1157 C1141 1.349 . S
C1157 H1149 0.950 . S
C1157 C1155 1.327 . S
C1158 C1146 1.349 . S
C1158 H1152 0.950 . S
C1158 C1159 1.327 . S
C1159 H1153 0.950 . S
C1159 C1158 1.327 . S
C1159 C1163 1.429 . S
C1160 C1143 1.574 . S
C1160 H1154 0.949 . S
C1160 C1164 1.368 . S
C1161 C1142 1.429 . S
C1161 C1155 1.429 . S
C1161 C1162 1.523 . S
C1162 C1143 1.368 . S
C1162 C1156 1.368 . S
C1162 C1161 1.523 . S
C1163 C1147 1.429 . S
C1163 C1159 1.429 . S
C1163 C1164 1.523 . S
C1164 C1148 1.368 . S
C1164 C1160 1.368 . S
C1164 C1163 1.523 . S
H1165 C1140 0.950 . S
H1166 C1142 0.950 . S
H1167 C1143 0.949 . S
H1168 C1145 0.950 . S
H1169 C1147 0.950 . S
C1170 C1171 1.349 . S
C1170 C1172 1.327 . S
C1170 H1195 0.950 . S
C1171 C1170 1.349 . S
C1171 C1187 1.349 . S
C1172 C1170 1.327 . S
C1172 C1191 1.429 . S
C1172 H1196 0.950 . S
C1173 C1190 1.574 . S
C1173 C1192 1.368 . S
C1173 H1197 0.949 . S
H1174 C1178 0.949 . S
C1175 C1176 1.349 . S
C1175 C1177 1.327 . S
C1175 H1198 0.950 . S
C1176 C1175 1.349 . S
C1176 C1188 1.349 . S
C1177 C1175 1.327 . S
C1177 C1193 1.429 . S
C1177 H1199 0.950 . S
C1178 H1174 0.949 . S
C1178 C1186 1.574 . S
C1178 C1194 1.368 . S
H1179 C1187 0.950 . S
H1180 C1185 0.950 . S
H1181 C1186 0.949 . S
H1182 C1188 0.950 . S
H1183 C1189 0.950 . S
H1184 C1190 0.949 . S
C1185 H1180 0.950 . S
C1185 C1187 1.327 . S
C1185 C1191 1.429 . S
C1186 C1178 1.574 . S
C1186 H1181 0.949 . S
C1186 C1192 1.368 . S
C1187 C1171 1.349 . S
C1187 H1179 0.950 . S
C1187 C1185 1.327 . S
C1188 C1176 1.349 . S
C1188 H1182 0.950 . S
C1188 C1189 1.327 . S
C1189 H1183 0.950 . S
C1189 C1188 1.327 . S
C1189 C1193 1.429 . S
C1190 C1173 1.574 . S
C1190 H1184 0.949 . S
C1190 C1194 1.368 . S
C1191 C1172 1.429 . S
C1191 C1185 1.429 . S
C1191 C1192 1.523 . S
C1192 C1173 1.368 . S
C1192 C1186 1.368 . S
C1192 C1191 1.523 . S
C1193 C1177 1.429 . S
C1193 C1189 1.429 . S
C1193 C1194 1.523 . S
C1194 C1178 1.368 . S
C1194 C1190 1.368 . S
C1194 C1193 1.523 . S
H1195 C1170 0.950 . S
H1196 C1172 0.950 . S
H1197 C1173 0.949 . S
H1198 C1175 0.950 . S
H1199 C1177 0.950 . S
C1200 C1201 1.349 . S
C1200 C1202 1.327 . S
C1200 H1225 0.950 . S
C1201 C1200 1.349 . S
C1201 C1217 1.349 . S
C1202 C1200 1.327 . S
C1202 C1221 1.429 . S
C1202 H1226 0.950 . S
C1203 C1220 1.574 . S
C1203 C1222 1.368 . S
C1203 H1227 0.949 . S
H1204 C1208 0.949 . S
C1205 C1206 1.349 . S
C1205 C1207 1.327 . S
C1205 H1228 0.950 . S
C1206 C1205 1.349 . S
C1206 C1218 1.349 . S
C1207 C1205 1.327 . S
C1207 C1223 1.429 . S
C1207 H1229 0.950 . S
C1208 H1204 0.949 . S
C1208 C1216 1.574 . S
C1208 C1224 1.368 . S
H1209 C1217 0.950 . S
H1210 C1215 0.950 . S
H1211 C1216 0.949 . S
H1212 C1218 0.950 . S
H1213 C1219 0.950 . S
H1214 C1220 0.949 . S
C1215 H1210 0.950 . S
C1215 C1217 1.327 . S
C1215 C1221 1.429 . S
C1216 C1208 1.574 . S
C1216 H1211 0.949 . S
C1216 C1222 1.368 . S
C1217 C1201 1.349 . S
C1217 H1209 0.950 . S
C1217 C1215 1.327 . S
C1218 C1206 1.349 . S
C1218 H1212 0.950 . S
C1218 C1219 1.327 . S
C1219 H1213 0.950 . S
C1219 C1218 1.327 . S
C1219 C1223 1.429 . S
C1220 C1203 1.574 . S
C1220 H1214 0.949 . S
C1220 C1224 1.368 . S
C1221 C1202 1.429 . S
C1221 C1215 1.429 . S
C1221 C1222 1.523 . S
C1222 C1203 1.368 . S
C1222 C1216 1.368 . S
C1222 C1221 1.523 . S
C1223 C1207 1.429 . S
C1223 C1219 1.429 . S
C1223 C1224 1.523 . S
C1224 C1208 1.368 . S
C1224 C1220 1.368 . S
C1224 C1223 1.523 . S
H1225 C1200 0.950 . S
H1226 C1202 0.950 . S
H1227 C1203 0.949 . S
H1228 C1205 0.950 . S
H1229 C1207 0.950 . S
C1230 C1231 1.349 . S
C1230 C1232 1.327 . S
C1230 H1255 0.950 . S
C1231 C1230 1.349 . S
C1231 C1247 1.349 . S
C1232 C1230 1.327 . S
C1232 C1251 1.429 . S
C1232 H1256 0.950 . S
C1233 C1250 1.574 . S
C1233 C1252 1.368 . S
C1233 H1257 0.949 . S
H1234 C1238 0.949 . S
C1235 C1236 1.349 . S
C1235 C1237 1.327 . S
C1235 H1258 0.950 . S
C1236 C1235 1.349 . S
C1236 C1248 1.349 . S
C1237 C1235 1.327 . S
C1237 C1253 1.429 . S
C1237 H1259 0.950 . S
C1238 H1234 0.949 . S
C1238 C1246 1.574 . S
C1238 C1254 1.368 . S
H1239 C1247 0.950 . S
H1240 C1245 0.950 . S
H1241 C1246 0.949 . S
H1242 C1248 0.950 . S
H1243 C1249 0.950 . S
H1244 C1250 0.949 . S
C1245 H1240 0.950 . S
C1245 C1247 1.327 . S
C1245 C1251 1.429 . S
C1246 C1238 1.574 . S
C1246 H1241 0.949 . S
C1246 C1252 1.368 . S
C1247 C1231 1.349 . S
C1247 H1239 0.950 . S
C1247 C1245 1.327 . S
C1248 C1236 1.349 . S
C1248 H1242 0.950 . S
C1248 C1249 1.327 . S
C1249 H1243 0.950 . S
C1249 C1248 1.327 . S
C1249 C1253 1.429 . S
C1250 C1233 1.574 . S
C1250 H1244 0.949 . S
C1250 C1254 1.368 . S
C1251 C1232 1.429 . S
C1251 C1245 1.429 . S
C1251 C1252 1.523 . S
C1252 C1233 1.368 . S
C1252 C1246 1.368 . S
C1252 C1251 1.523 . S
C1253 C1237 1.429 . S
C1253 C1249 1.429 . S
C1253 C1254 1.523 . S
C1254 C1238 1.368 . S
C1254 C1250 1.368 . S
C1254 C1253 1.523 . S
H1255 C1230 0.950 . S
H1256 C1232 0.950 . S
H1257 C1233 0.949 . S
H1258 C1235 0.950 . S
H1259 C1237 0.950 . S
C1260 C1261 1.349 . S
C1260 C1262 1.327 . S
C1260 H1285 0.950 . S
C1261 C1260 1.349 . S
C1261 C1277 1.349 . S
C1262 C1260 1.327 . S
C1262 C1281 1.429 . S
C1262 H1286 0.950 . S
C1263 C1280 1.574 . S
C1263 C1282 1.368 . S
C1263 H1287 0.949 . S
H1264 C1268 0.949 . S
C1265 C1266 1.349 . S
C1265 C1267 1.327 . S
C1265 H1288 0.950 . S
C1266 C1265 1.349 . S
C1266 C1278 1.349 . S
C1267 C1265 1.327 . S
C1267 C1283 1.429 . S
C1267 H1289 0.950 . S
C1268 H1264 0.949 . S
C1268 C1276 1.574 . S
C1268 C1284 1.368 . S
H1269 C1277 0.950 . S
H1270 C1275 0.950 . S
H1271 C1276 0.949 . S
H1272 C1278 0.950 . S
H1273 C1279 0.950 . S
H1274 C1280 0.949 . S
C1275 H1270 0.950 . S
C1275 C1277 1.327 . S
C1275 C1281 1.429 . S
C1276 C1268 1.574 . S
C1276 H1271 0.949 . S
C1276 C1282 1.368 . S
C1277 C1261 1.349 . S
C1277 H1269 0.950 . S
C1277 C1275 1.327 . S
C1278 C1266 1.349 . S
C1278 H1272 0.950 . S
C1278 C1279 1.327 . S
C1279 H1273 0.950 . S
C1279 C1278 1.327 . S
C1279 C1283 1.429 . S
C1280 C1263 1.574 . S
C1280 H1274 0.949 . S
C1280 C1284 1.368 . S
C1281 C1262 1.429 . S
C1281 C1275 1.429 . S
C1281 C1282 1.523 . S
C1282 C1263 1.368 . S
C1282 C1276 1.368 . S
C1282 C1281 1.523 . S
C1283 C1267 1.429 . S
C1283 C1279 1.429 . S
C1283 C1284 1.523 . S
C1284 C1268 1.368 . S
C1284 C1280 1.368 . S
C1284 C1283 1.523 . S
H1285 C1260 0.950 . S
H1286 C1262 0.950 . S
H1287 C1263 0.949 . S
H1288 C1265 0.950 . S
H1289 C1267 0.950 . S
C1290 C1291 1.349 . S
C1290 C1292 1.327 . S
C1290 H1315 0.950 . S
C1291 C1290 1.349 . S
C1291 C1307 1.349 . S
C1292 C1290 1.327 . S
C1292 C1311 1.429 . S
C1292 H1316 0.950 . S
C1293 C1310 1.574 . S
C1293 C1312 1.368 . S
C1293 H1317 0.949 . S
H1294 C1298 0.949 . S
C1295 C1296 1.349 . S
C1295 C1297 1.327 . S
C1295 H1318 0.950 . S
C1296 C1295 1.349 . S
C1296 C1308 1.349 . S
C1297 C1295 1.327 . S
C1297 C1313 1.429 . S
C1297 H1319 0.950 . S
C1298 H1294 0.949 . S
C1298 C1306 1.574 . S
C1298 C1314 1.368 . S
H1299 C1307 0.950 . S
H1300 C1305 0.950 . S
H1301 C1306 0.949 . S
H1302 C1308 0.950 . S
H1303 C1309 0.950 . S
H1304 C1310 0.949 . S
C1305 H1300 0.950 . S
C1305 C1307 1.327 . S
C1305 C1311 1.429 . S
C1306 C1298 1.574 . S
C1306 H1301 0.949 . S
C1306 C1312 1.368 . S
C1307 C1291 1.349 . S
C1307 H1299 0.950 . S
C1307 C1305 1.327 . S
C1308 C1296 1.349 . S
C1308 H1302 0.950 . S
C1308 C1309 1.327 . S
C1309 H1303 0.950 . S
C1309 C1308 1.327 . S
C1309 C1313 1.429 . S
C1310 C1293 1.574 . S
C1310 H1304 0.949 . S
C1310 C1314 1.368 . S
C1311 C1292 1.429 . S
C1311 C1305 1.429 . S
C1311 C1312 1.523 . S
C1312 C1293 1.368 . S
C1312 C1306 1.368 . S
C1312 C1311 1.523 . S
C1313 C1297 1.429 . S
C1313 C1309 1.429 . S
C1313 C1314 1.523 . S
C1314 C1298 1.368 . S
C1314 C1310 1.368 . S
C1314 C1313 1.523 . S
H1315 C1290 0.950 . S
H1316 C1292 0.950 . S
H1317 C1293 0.949 . S
H1318 C1295 0.950 . S
H1319 C1297 0.950 . S
C241 C59 1.335 . S
C246 C6 1.332 . S
C271 C68 1.335 . S
C276 C36 1.332 . S
C301 C46 1.332 . S
C306 C99 1.335 . S
C331 C76 1.332 . S
C336 C108 1.335 . S
C361 C19 1.335 . S
C366 C86 1.332 . S
C391 C28 1.335 . S
C396 C116 1.332 . S
C421 C208 1.335 . S
C426 C136 1.332 . S
C451 C146 1.332 . S
C456 C239 1.335 . S
C481 C176 1.332 . S
C486 C128 1.335 . S
C511 C186 1.332 . S
C516 C159 1.335 . S
C541 C216 1.332 . S
C546 C168 1.335 . S
C571 C199 1.335 . S
C576 C226 1.332 . S
C601 C61 1.797 . S
C606 C9 1.797 . S
C631 C21 1.797 . S
C636 C89 1.797 . S
C661 C49 1.797 . S
C666 C101 1.797 . S
C691 C121 1.797 . S
C696 C189 1.797 . S
C721 C149 1.797 . S
C726 C201 1.797 . S
C751 C161 1.797 . S
C756 C229 1.797 . S
C781 C141 1.964 . S
C786 C1 1.964 . S
C811 C29 1.964 . S
C816 C169 1.964 . S
C841 C181 1.964 . S
C846 C41 1.964 . S
C871 C69 1.964 . S
C876 C209 1.964 . S
C901 C81 1.964 . S
C906 C221 1.964 . S
C931 C129 1.964 . S
C936 C109 1.964 . S
C961 C48 1.516 . S
C966 C16 1.581 . S
C991 C26 1.581 . S
C996 C79 1.516 . S
C1021 C56 1.581 . S
C1026 C88 1.516 . S
C1051 C66 1.581 . S
C1056 C119 1.516 . S
C1081 C8 1.516 . S
C1086 C96 1.581 . S
C1111 C39 1.516 . S
C1116 C106 1.581 . S
C1141 C219 1.516 . S
C1146 C126 1.581 . S
C1171 C156 1.581 . S
C1176 C228 1.516 . S
C1201 C166 1.581 . S
C1206 C139 1.516 . S
C1231 C148 1.516 . S
C1236 C196 1.581 . S
C1261 C206 1.581 . S
C1266 C179 1.516 . S
C1291 C236 1.581 . S
C1296 C188 1.516 . S
