# Generated by pormake.
# Topology qtz-g, (3)-cn, num edge types: 1
# Building blocks:
#     Node 0, Type 0, BuildingBlock: WUSLED_clean_sbu_0, # of connection points: 3
#     Node 1, Type 0, BuildingBlock: WUSLED_clean_sbu_0, # of connection points: 3
#     Node 2, Type 0, BuildingBlock: WUSLED_clean_sbu_0, # of connection points: 3
#     Node 3, Type 0, BuildingBlock: WUSLED_clean_sbu_0, # of connection points: 3
#     Node 4, Type 0, BuildingBlock: WUSLED_clean_sbu_0, # of connection points: 3
#     Node 5, Type 0, BuildingBlock: WUSLED_clean_sbu_0, # of connection points: 3
#     Node 6, Type 0, BuildingBlock: WUSLED_clean_sbu_0, # of connection points: 3
#     Node 7, Type 0, BuildingBlock: WUSLED_clean_sbu_0, # of connection points: 3
#     Node 8, Type 0, BuildingBlock: WUSLED_clean_sbu_0, # of connection points: 3
#     Node 9, Type 0, BuildingBlock: WUSLED_clean_sbu_0, # of connection points: 3
#     Node 10, Type 0, BuildingBlock: WUSLED_clean_sbu_0, # of connection points: 3
#     Node 11, Type 0, BuildingBlock: WUSLED_clean_sbu_0, # of connection points: 3
#     Edge 12, Type (0, 0), BuildingBlock: MIFKUJ_clean_linker_0, # of connection points: 2
#     Edge 13, Type (0, 0), BuildingBlock: MIFKUJ_clean_linker_0, # of connection points: 2
#     Edge 14, Type (0, 0), BuildingBlock: MIFKUJ_clean_linker_0, # of connection points: 2
#     Edge 15, Type (0, 0), BuildingBlock: MIFKUJ_clean_linker_0, # of connection points: 2
#     Edge 16, Type (0, 0), BuildingBlock: MIFKUJ_clean_linker_0, # of connection points: 2
#     Edge 17, Type (0, 0), BuildingBlock: MIFKUJ_clean_linker_0, # of connection points: 2
#     Edge 18, Type (0, 0), BuildingBlock: MIFKUJ_clean_linker_0, # of connection points: 2
#     Edge 19, Type (0, 0), BuildingBlock: MIFKUJ_clean_linker_0, # of connection points: 2
#     Edge 20, Type (0, 0), BuildingBlock: MIFKUJ_clean_linker_0, # of connection points: 2
#     Edge 21, Type (0, 0), BuildingBlock: MIFKUJ_clean_linker_0, # of connection points: 2
#     Edge 22, Type (0, 0), BuildingBlock: MIFKUJ_clean_linker_0, # of connection points: 2
#     Edge 23, Type (0, 0), BuildingBlock: MIFKUJ_clean_linker_0, # of connection points: 2
#     Edge 24, Type (0, 0), BuildingBlock: MIFKUJ_clean_linker_0, # of connection points: 2
#     Edge 25, Type (0, 0), BuildingBlock: MIFKUJ_clean_linker_0, # of connection points: 2
#     Edge 26, Type (0, 0), BuildingBlock: MIFKUJ_clean_linker_0, # of connection points: 2
#     Edge 27, Type (0, 0), BuildingBlock: MIFKUJ_clean_linker_0, # of connection points: 2
#     Edge 28, Type (0, 0), BuildingBlock: MIFKUJ_clean_linker_0, # of connection points: 2
#     Edge 29, Type (0, 0), BuildingBlock: MIFKUJ_clean_linker_0, # of connection points: 2
# Relax obj value: 0.111
# Max RMSD: 0.086
# Mean RMSD: 0.085
data_MOF--net-qtz-g--node1-WUSLED_clean_sbu_0--edge1-MIFKUJ_clean_linker_0
_symmetry_space_group_name_H-M    P1
_symmetry_Int_Tables_number       1
_symmetry_cell_setting            triclinic
loop_
_symmetry_equiv_pos_as_xyz
'x, y, z'
_cell_length_a     79.744702
_cell_length_b     80.676152
_cell_length_c     126.71162
_cell_angle_alpha  90.209701
_cell_angle_beta   89.983727
_cell_angle_gamma 119.61458
loop_
_atom_site_label
_atom_site_type_symbol
_atom_site_fract_x
_atom_site_fract_y
_atom_site_fract_z
_atom_type_partial_charge
C0 C 0.04535 0.33082 0.09145 0.0
C1 C 0.03053 0.33387 0.09519 0.0
C2 C 0.03188 0.32111 0.11236 0.0
C3 C 0.02379 0.32898 0.10552 0.0
C4 C 0.04653 0.31777 0.10851 0.0
C5 C 0.05322 0.32263 0.09814 0.0
U6 U 0.05167 0.36242 0.06843 0.0
O7 O 0.07711 0.3815 0.05904 0.0
O8 O 0.05164 0.35839 0.05124 0.0
C9 C 0.06959 0.37216 0.05021 0.0
C10 C 0.05346 0.33748 0.08088 0.0
C11 C 0.08231 0.36768 0.04391 0.0
C12 C 0.0986 0.34941 0.04076 0.0
C13 C 0.08561 0.35268 0.04663 0.0
C14 C 0.10487 0.37596 0.02941 0.0
C15 C 0.10856 0.3612 0.03217 0.0
C16 C 0.09186 0.37915 0.03523 0.0
C17 C 0.02847 0.39402 0.07132 0.0
C18 C 0.02658 0.4137 0.05739 0.0
C19 C 0.02161 0.41937 0.07563 0.0
C20 C 0.02439 0.40435 0.07878 0.0
C21 C 0.02283 0.42432 0.06492 0.0
C22 C 0.02952 0.39871 0.06058 0.0
C23 C 0.03235 0.37901 0.07501 0.0
O24 O 0.04074 0.33263 0.07321 0.0
O25 O 0.067 0.35547 0.08051 0.0
O26 O 0.05036 0.38488 0.07764 0.0
O27 O 0.02441 0.36298 0.06958 0.0
H28 H 0.02436 0.34032 0.09017 0.0
H29 H 0.0123 0.33146 0.10815 0.0
H30 H 0.05321 0.31194 0.1136 0.0
H31 H 0.06482 0.32037 0.09542 0.0
H32 H 0.10126 0.33801 0.04312 0.0
H33 H 0.07839 0.34374 0.05337 0.0
H34 H 0.11209 0.38511 0.02274 0.0
H35 H 0.08945 0.39077 0.03302 0.0
H36 H 0.02771 0.41729 0.0491 0.0
H37 H 0.01847 0.42711 0.08158 0.0
H38 H 0.02355 0.40092 0.0871 0.0
H39 H 0.03283 0.39097 0.05471 0.0
C40 C 0.71886 0.04988 0.42701 0.0
C41 C 0.70098 0.04135 0.43216 0.0
C42 C 0.71546 0.03602 0.44777 0.0
C43 C 0.6993 0.03455 0.44244 0.0
C44 C 0.7334 0.04461 0.44256 0.0
C45 C 0.73507 0.05147 0.43225 0.0
U46 U 0.69338 0.05303 0.40294 0.0
O47 O 0.69877 0.07664 0.39237 0.0
O48 O 0.69794 0.0509 0.38593 0.0
C49 C 0.70159 0.06841 0.3841 0.0
C50 C 0.72036 0.05688 0.41616 0.0
C51 C 0.71891 0.08038 0.37776 0.0
C52 C 0.75114 0.10766 0.3759 0.0
C53 C 0.73551 0.09558 0.38227 0.0
C54 C 0.73409 0.08904 0.36051 0.0
C55 C 0.7505 0.10471 0.36491 0.0
C56 C 0.71845 0.07706 0.36687 0.0
C57 C 0.63795 0.02768 0.40559 0.0
C58 C 0.61582 0.03197 0.39424 0.0
C59 C 0.60346 0.00896 0.40845 0.0
C60 C 0.62223 0.01361 0.41117 0.0
C61 C 0.60004 0.01834 0.4001 0.0
C62 C 0.63469 0.03666 0.39699 0.0
C63 C 0.65748 0.03341 0.40935 0.0
O64 O 0.71317 0.04351 0.40887 0.0
O65 O 0.71509 0.06985 0.41499 0.0
O66 O 0.6686 0.05171 0.41125 0.0
O67 O 0.66646 0.02558 0.40454 0.0
H68 H 0.6883 0.04001 0.42823 0.0
H69 H 0.68535 0.02835 0.44626 0.0
H70 H 0.74609 0.0458 0.4464 0.0
H71 H 0.74897 0.05795 0.42836 0.0
H72 H 0.76344 0.11966 0.37955 0.0
H73 H 0.73624 0.09838 0.39067 0.0
H74 H 0.73324 0.0861 0.35213 0.0
H75 H 0.70582 0.06534 0.36325 0.0
H76 H 0.61363 0.03948 0.38779 0.0
H77 H 0.5916 0.99815 0.41298 0.0
H78 H 0.62451 0.0065 0.4178 0.0
H79 H 0.64671 0.04757 0.3926 0.0
C80 C 0.66537 0.71474 0.76062 0.0
C81 C 0.65635 0.69701 0.76571 0.0
C82 C 0.67551 0.71143 0.78151 0.0
C83 C 0.66133 0.69538 0.77607 0.0
C84 C 0.6848 0.72911 0.7763 0.0
C85 C 0.67971 0.73075 0.76593 0.0
U86 U 0.63705 0.69047 0.73617 0.0
O87 O 0.61791 0.69619 0.7262 0.0
O88 O 0.64327 0.69639 0.71926 0.0
C89 C 0.62882 0.69966 0.71781 0.0
C90 C 0.65954 0.71643 0.74986 0.0
C91 C 0.63307 0.71702 0.71194 0.0
C92 C 0.65423 0.75022 0.70724 0.0
C93 C 0.65075 0.73402 0.71299 0.0
C94 C 0.62234 0.73263 0.69948 0.0
C95 C 0.64 0.74971 0.70047 0.0
C96 C 0.61895 0.71647 0.70515 0.0
C97 C 0.60856 0.63578 0.73677 0.0
C98 C 0.58144 0.61554 0.72541 0.0
C99 C 0.59612 0.60159 0.73636 0.0
C100 C 0.60929 0.61967 0.74021 0.0
C101 C 0.58191 0.59928 0.729 0.0
C102 C 0.59472 0.63367 0.72924 0.0
C103 C 0.62189 0.65446 0.74143 0.0
O104 O 0.66615 0.70994 0.74234 0.0
O105 O 0.64111 0.7109 0.74878 0.0
O106 O 0.61427 0.6651 0.74402 0.0
O107 O 0.63878 0.66406 0.73681 0.0
H108 H 0.64533 0.68446 0.7617 0.0
H109 H 0.65413 0.68152 0.7798 0.0
H110 H 0.69569 0.74174 0.78031 0.0
H111 H 0.68682 0.74453 0.7621 0.0
H112 H 0.66791 0.76322 0.70822 0.0
H113 H 0.66182 0.73477 0.71825 0.0
H114 H 0.6112 0.73169 0.69422 0.0
H115 H 0.60523 0.70348 0.70423 0.0
H116 H 0.57079 0.61423 0.71967 0.0
H117 H 0.59672 0.58935 0.73937 0.0
H118 H 0.61986 0.62105 0.74603 0.0
H119 H 0.59401 0.64598 0.72644 0.0
C120 C 0.95645 0.66541 0.09308 0.0
C121 C 0.9687 0.65909 0.09709 0.0
C122 C 0.96851 0.67236 0.11434 0.0
C123 C 0.97471 0.66257 0.1076 0.0
C124 C 0.95658 0.67907 0.11022 0.0
C125 C 0.95054 0.67555 0.09966 0.0
U126 U 0.95158 0.63661 0.06897 0.0
O127 O 0.92706 0.61925 0.05848 0.0
O128 O 0.95371 0.64281 0.05198 0.0
C129 C 0.93572 0.62968 0.05016 0.0
C130 C 0.94912 0.66033 0.08223 0.0
C131 C 0.92416 0.63572 0.04395 0.0
C132 C 0.91044 0.65639 0.04117 0.0
C133 C 0.92198 0.65125 0.04709 0.0
C134 C 0.90319 0.63051 0.02895 0.0
C135 C 0.90085 0.64602 0.03203 0.0
C136 C 0.91475 0.62544 0.03485 0.0
C137 C 0.97479 0.60473 0.07157 0.0
C138 C 0.979 0.58663 0.05745 0.0
C139 C 0.9851 0.58179 0.0756 0.0
C140 C 0.98024 0.59537 0.07892 0.0
C141 C 0.98469 0.57733 0.06483 0.0
C142 C 0.97407 0.60025 0.06081 0.0
C143 C 0.96994 0.61902 0.07542 0.0
O144 O 0.96247 0.66586 0.07489 0.0
O145 O 0.93537 0.64255 0.08103 0.0
O146 O 0.95157 0.61273 0.07729 0.0
O147 O 0.97852 0.63566 0.07068 0.0
H148 H 0.97338 0.65118 0.09213 0.0
H149 H 0.98415 0.65748 0.11046 0.0
H150 H 0.95144 0.68652 0.11523 0.0
H151 H 0.94098 0.68042 0.09669 0.0
H152 H 0.9091 0.6685 0.04371 0.0
H153 H 0.92913 0.65932 0.05413 0.0
H154 H 0.89576 0.62198 0.02209 0.0
H155 H 0.91617 0.61333 0.03236 0.0
H156 H 0.97861 0.58359 0.0491 0.0
H157 H 0.989 0.57462 0.08152 0.0
H158 H 0.98072 0.59856 0.08727 0.0
H159 H 0.9698 0.60733 0.05503 0.0
C160 C 0.28838 0.95361 0.42568 0.0
C161 C 0.30586 0.96951 0.42874 0.0
C162 C 0.29316 0.96838 0.44637 0.0
C163 C 0.3082 0.97688 0.43896 0.0
C164 C 0.27552 0.95265 0.44318 0.0
C165 C 0.27318 0.94532 0.43292 0.0
U166 U 0.31314 0.94739 0.40207 0.0
O167 O 0.30792 0.92179 0.39317 0.0
O168 O 0.30731 0.94548 0.38502 0.0
C169 C 0.30426 0.92793 0.38435 0.0
C170 C 0.28664 0.94483 0.41525 0.0
C171 C 0.28667 0.91414 0.37872 0.0
C172 C 0.25288 0.90126 0.37408 0.0
C173 C 0.26926 0.9144 0.3797 0.0
C174 C 0.27108 0.8873 0.36664 0.0
C175 C 0.25362 0.88756 0.36749 0.0
C176 C 0.28743 0.90048 0.37219 0.0
C177 C 0.36866 0.97479 0.40349 0.0
C178 C 0.39025 0.96785 0.39324 0.0
C179 C 0.4033 0.99482 0.40526 0.0
C180 C 0.38464 0.99062 0.40794 0.0
C181 C 0.40633 0.98321 0.39809 0.0
C182 C 0.37152 0.96364 0.39594 0.0
C183 C 0.34936 0.96943 0.40748 0.0
O184 O 0.29271 0.95668 0.40723 0.0
O185 O 0.29271 0.93238 0.41492 0.0
O186 O 0.33895 0.95165 0.41056 0.0
O187 O 0.33947 0.97559 0.40208 0.0
H188 H 0.31785 0.97602 0.42328 0.0
H189 H 0.32186 0.98917 0.44108 0.0
H190 H 0.26373 0.94563 0.44872 0.0
H191 H 0.25966 0.9329 0.43072 0.0
H192 H 0.2396 0.9017 0.37497 0.0
H193 H 0.26834 0.92476 0.38477 0.0
H194 H 0.2722 0.87711 0.36152 0.0
H195 H 0.30075 0.90008 0.37133 0.0
H196 H 0.39212 0.9586 0.38773 0.0
H197 H 0.4154 0.00693 0.40899 0.0
H198 H 0.38268 0.99941 0.41374 0.0
H199 H 0.3593 0.95135 0.39242 0.0
C200 C 0.40891 0.36486 0.71468 0.0
C201 C 0.40824 0.37764 0.72199 0.0
C202 C 0.43593 0.40411 0.71357 0.0
C203 C 0.4216 0.3971 0.72142 0.0
C204 C 0.43634 0.39125 0.70617 0.0
C205 C 0.42291 0.37178 0.70673 0.0
U206 U 0.37247 0.32321 0.73076 0.0
O207 O 0.34582 0.29719 0.72624 0.0
O208 O 0.36961 0.29501 0.73355 0.0
C209 C 0.35282 0.28598 0.72875 0.0
C210 C 0.39575 0.34427 0.7157 0.0
C211 C 0.35124 0.2723 0.72058 0.0
C212 C 0.35463 0.26478 0.70238 0.0
C213 C 0.35576 0.27788 0.71001 0.0
C214 C 0.34463 0.24044 0.71582 0.0
C215 C 0.34913 0.2459 0.7052 0.0
C216 C 0.34565 0.25352 0.72342 0.0
C217 C 0.35984 0.33468 0.75817 0.0
C218 C 0.34726 0.31349 0.77326 0.0
C219 C 0.347 0.3434 0.77325 0.0
C220 C 0.35532 0.34744 0.76322 0.0
C221 C 0.34312 0.3265 0.77846 0.0
C222 C 0.3555 0.31751 0.76318 0.0
C223 C 0.36988 0.34004 0.74795 0.0
O224 O 0.40074 0.33593 0.72296 0.0
O225 O 0.37727 0.33891 0.71588 0.0
O226 O 0.35898 0.33714 0.7396 0.0
O227 O 0.38326 0.33526 0.74649 0.0
H228 H 0.39762 0.37249 0.72825 0.0
H229 H 0.42107 0.40657 0.72732 0.0
H230 H 0.44709 0.39623 0.69998 0.0
H231 H 0.42365 0.36208 0.70106 0.0
H232 H 0.35798 0.26944 0.69427 0.0
H233 H 0.36022 0.29238 0.70766 0.0
H234 H 0.34067 0.22615 0.71833 0.0
H235 H 0.34227 0.24901 0.73156 0.0
H236 H 0.34424 0.30026 0.77702 0.0
H237 H 0.34421 0.35381 0.77708 0.0
H238 H 0.3586 0.36077 0.75948 0.0
H239 H 0.35876 0.30739 0.75938 0.0
C240 C 0.67076 0.95636 0.57605 0.0
C241 C 0.65804 0.95932 0.5697 0.0
C242 C 0.68054 0.96878 0.55502 0.0
C243 C 0.66284 0.96535 0.55928 0.0
C244 C 0.69339 0.96609 0.56144 0.0
C245 C 0.68848 0.95985 0.57187 0.0
U246 U 0.64298 0.95417 0.60049 0.0
O247 O 0.62512 0.93076 0.61126 0.0
O248 O 0.65026 0.95656 0.61742 0.0
C249 C 0.63625 0.93922 0.61945 0.0
C250 C 0.66567 0.95008 0.58706 0.0
C251 C 0.64139 0.9272 0.62582 0.0
C252 C 0.65307 0.9046 0.62736 0.0
C253 C 0.64999 0.91733 0.62128 0.0
C254 C 0.63955 0.912 0.64259 0.0
C255 C 0.64752 0.90152 0.63804 0.0
C256 C 0.63651 0.92469 0.63653 0.0
C257 C 0.61211 0.9784 0.59877 0.0
C258 C 0.5877 0.97403 0.61166 0.0
C259 C 0.59471 0.99583 0.59707 0.0
C260 C 0.60867 0.99156 0.59341 0.0
C261 C 0.58391 0.98698 0.60617 0.0
C262 C 0.60173 0.9698 0.60799 0.0
C263 C 0.62599 0.97329 0.59437 0.0
O264 O 0.67209 0.96386 0.59412 0.0
O265 O 0.64758 0.93698 0.58858 0.0
O266 O 0.6191 0.95506 0.5924 0.0
O267 O 0.64309 0.9814 0.59886 0.0
H268 H 0.6444 0.95699 0.57282 0.0
H269 H 0.65279 0.9676 0.55458 0.0
H270 H 0.7071 0.96856 0.55835 0.0
H271 H 0.69852 0.95776 0.57667 0.0
H272 H 0.65913 0.89666 0.6236 0.0
H273 H 0.65384 0.91911 0.613 0.0
H274 H 0.63542 0.9102 0.65083 0.0
H275 H 0.62991 0.93225 0.64016 0.0
H276 H 0.57975 0.96711 0.61874 0.0
H277 H 0.59197 0.00563 0.59256 0.0
H278 H 0.61652 0.99827 0.58626 0.0
H279 H 0.60428 0.95962 0.61225 0.0
C280 C 0.71509 0.6675 0.90932 0.0
C281 C 0.69947 0.65485 0.90302 0.0
C282 C 0.71087 0.67771 0.88859 0.0
C283 C 0.69745 0.65984 0.89274 0.0
C284 C 0.7265 0.69036 0.89496 0.0
C285 C 0.72859 0.68528 0.90523 0.0
U286 U 0.69134 0.63901 0.93372 0.0
O287 O 0.69913 0.62242 0.94434 0.0
O288 O 0.69619 0.64625 0.95063 0.0
C289 C 0.70118 0.63327 0.95255 0.0
C290 C 0.71695 0.66238 0.92022 0.0
C291 C 0.71902 0.63974 0.95864 0.0
C292 C 0.75394 0.65478 0.95971 0.0
C293 C 0.7372 0.64968 0.95384 0.0
C294 C 0.73447 0.64043 0.97526 0.0
C295 C 0.75275 0.65008 0.97048 0.0
C296 C 0.71778 0.63531 0.96938 0.0
C297 C 0.63638 0.60659 0.93251 0.0
C298 C 0.61691 0.57808 0.94286 0.0
C299 C 0.60163 0.59306 0.93332 0.0
C300 C 0.61965 0.60705 0.92968 0.0
C301 C 0.60003 0.57826 0.93983 0.0
C302 C 0.63496 0.59219 0.93927 0.0
C303 C 0.65497 0.62078 0.92798 0.0
O304 O 0.70904 0.66805 0.92746 0.0
O305 O 0.71313 0.64469 0.92154 0.0
O306 O 0.66717 0.61474 0.92578 0.0
O307 O 0.66318 0.63778 0.93238 0.0
H308 H 0.68879 0.64108 0.90604 0.0
H309 H 0.68541 0.64959 0.88804 0.0
H310 H 0.73696 0.70434 0.89209 0.0
H311 H 0.74064 0.6953 0.91002 0.0
H312 H 0.76781 0.66236 0.95582 0.0
H313 H 0.7384 0.65326 0.94553 0.0
H314 H 0.73299 0.63632 0.98348 0.0
H315 H 0.70384 0.62758 0.9732 0.0
H316 H 0.61613 0.56696 0.94795 0.0
H317 H 0.5889 0.59347 0.93074 0.0
H318 H 0.62047 0.61805 0.92447 0.0
H319 H 0.64775 0.59166 0.94163 0.0
C320 C 0.04259 0.63766 0.2873 0.0
C321 C 0.02944 0.62572 0.27963 0.0
C322 C 0.02964 0.5982 0.28732 0.0
C323 C 0.02298 0.60617 0.27966 0.0
C324 C 0.04251 0.61019 0.29513 0.0
C325 C 0.04896 0.62979 0.2951 0.0
U326 U 0.04849 0.68004 0.27196 0.0
O327 O 0.0482 0.70612 0.27676 0.0
O328 O 0.07393 0.70815 0.26922 0.0
C329 C 0.06639 0.71723 0.2742 0.0
C330 C 0.05045 0.65838 0.28674 0.0
C331 C 0.07868 0.7305 0.28247 0.0
C332 C 0.09192 0.73648 0.30023 0.0
C333 C 0.07956 0.72385 0.29255 0.0
C334 C 0.1026 0.76254 0.28782 0.0
C335 C 0.10372 0.75597 0.29793 0.0
C336 C 0.09018 0.7499 0.28016 0.0
C337 C 0.02387 0.66814 0.24452 0.0
C338 C 0.03188 0.68855 0.22912 0.0
C339 C 0.00279 0.65769 0.22922 0.0
C340 C 0.00703 0.65453 0.23945 0.0
C341 C 0.01536 0.67454 0.22384 0.0
C342 C 0.03612 0.68536 0.23939 0.0
C343 C 0.02885 0.66333 0.25481 0.0
O344 O 0.06387 0.66694 0.27955 0.0
O345 O 0.03756 0.66405 0.28676 0.0
O346 O 0.02102 0.66646 0.26316 0.0
O347 O 0.04705 0.66817 0.25617 0.0
H348 H 0.02441 0.63158 0.27352 0.0
H349 H 0.01285 0.59732 0.27363 0.0
H350 H 0.04806 0.60454 0.30108 0.0
H351 H 0.05922 0.63885 0.30104 0.0
H352 H 0.09223 0.73097 0.30796 0.0
H353 H 0.07081 0.70887 0.29446 0.0
H354 H 0.11167 0.77737 0.28571 0.0
H355 H 0.08977 0.75523 0.27239 0.0
H356 H 0.0419 0.70163 0.22517 0.0
H357 H 0.98978 0.64678 0.22546 0.0
H358 H 0.99738 0.64119 0.24331 0.0
H359 H 0.04919 0.69607 0.2432 0.0
C360 C 0.3417 0.05353 0.5741 0.0
C361 C 0.34754 0.04093 0.57013 0.0
C362 C 0.33189 0.03917 0.55333 0.0
C363 C 0.34266 0.03379 0.55985 0.0
C364 C 0.32594 0.05171 0.55739 0.0
C365 C 0.33084 0.05885 0.56769 0.0
U366 U 0.37 0.05862 0.59883 0.0
O367 O 0.38784 0.08329 0.60898 0.0
O368 O 0.3628 0.05814 0.61566 0.0
C369 C 0.37652 0.07584 0.6172 0.0
C370 C 0.34735 0.0614 0.5848 0.0
C371 C 0.37079 0.08826 0.62287 0.0
C372 C 0.36601 0.11578 0.62362 0.0
C373 C 0.37039 0.10358 0.61786 0.0
C374 C 0.36174 0.09717 0.63936 0.0
C375 C 0.36177 0.11278 0.63445 0.0
C376 C 0.36627 0.08508 0.63363 0.0
C377 C 0.39996 0.03318 0.59889 0.0
C378 C 0.42762 0.04074 0.61008 0.0
C379 C 0.41312 0.01175 0.59961 0.0
C380 C 0.3995 0.01631 0.59574 0.0
C381 C 0.42751 0.02405 0.6067 0.0
C382 C 0.4139 0.04524 0.60623 0.0
C383 C 0.3864 0.03828 0.59403 0.0
O384 O 0.34093 0.04872 0.59242 0.0
O385 O 0.36565 0.07423 0.58589 0.0
O386 O 0.39363 0.05629 0.59142 0.0
O387 O 0.36928 0.03096 0.59841 0.0
H388 H 0.35595 0.03668 0.57498 0.0
H389 H 0.34723 0.02395 0.55705 0.0
H390 H 0.31782 0.0563 0.55254 0.0
H391 H 0.32629 0.06864 0.57063 0.0
H392 H 0.36594 0.12758 0.6196 0.0
H393 H 0.37369 0.10626 0.60954 0.0
H394 H 0.35876 0.0946 0.64772 0.0
H395 H 0.36654 0.07337 0.63765 0.0
H396 H 0.43841 0.0504 0.61562 0.0
H397 H 0.41278 0.99892 0.59674 0.0
H398 H 0.38887 0.00685 0.59006 0.0
H399 H 0.4144 0.05829 0.60882 0.0
C400 C 0.29152 0.33745 0.90849 0.0
C401 C 0.30962 0.34181 0.90446 0.0
C402 C 0.29522 0.32859 0.88736 0.0
C403 C 0.31146 0.33739 0.89402 0.0
C404 C 0.27705 0.32411 0.89146 0.0
C405 C 0.27522 0.3285 0.90196 0.0
U406 U 0.31685 0.36571 0.93261 0.0
O407 O 0.31135 0.38441 0.94297 0.0
O408 O 0.31208 0.35966 0.9496 0.0
C409 C 0.30878 0.37386 0.95135 0.0
C410 C 0.28998 0.34319 0.91931 0.0
C411 C 0.29164 0.3694 0.95768 0.0
C412 C 0.25688 0.3535 0.96006 0.0
C413 C 0.27295 0.35688 0.95399 0.0
C414 C 0.27814 0.37498 0.97355 0.0
C415 C 0.25932 0.3627 0.96986 0.0
C416 C 0.29412 0.37829 0.96751 0.0
C417 C 0.37193 0.3946 0.93091 0.0
C418 C 0.39192 0.41783 0.94417 0.0
C419 C 0.40666 0.41239 0.92879 0.0
C420 C 0.38849 0.3987 0.92514 0.0
C421 C 0.4086 0.42226 0.9383 0.0
C422 C 0.37371 0.40408 0.94051 0.0
C423 C 0.35294 0.38109 0.92655 0.0
O424 O 0.29692 0.33684 0.9267 0.0
O425 O 0.29543 0.36137 0.9204 0.0
O426 O 0.34182 0.38837 0.92434 0.0
O427 O 0.34373 0.36445 0.93125 0.0
H428 H 0.32241 0.34893 0.90937 0.0
H429 H 0.3257 0.34135 0.89107 0.0
H430 H 0.26426 0.31721 0.88656 0.0
H431 H 0.26115 0.32513 0.90494 0.0
H432 H 0.24257 0.34407 0.95698 0.0
H433 H 0.27081 0.34993 0.94638 0.0
H434 H 0.28052 0.38204 0.98114 0.0
H435 H 0.30846 0.38795 0.97048 0.0
H436 H 0.39294 0.42505 0.95157 0.0
H437 H 0.41914 0.41567 0.92398 0.0
H438 H 0.38733 0.39157 0.91769 0.0
H439 H 0.361 0.40104 0.94506 0.0
C440 C 0.9566 0.28857 0.24182 0.0
C441 C 0.96981 0.30647 0.23771 0.0
C442 C 0.96946 0.2919 0.22078 0.0
C443 C 0.97622 0.30812 0.22731 0.0
C444 C 0.95638 0.27394 0.225 0.0
C445 C 0.95 0.27231 0.23544 0.0
U446 U 0.95217 0.31308 0.26612 0.0
O447 O 0.92752 0.30681 0.27634 0.0
O448 O 0.95332 0.30768 0.28306 0.0
C449 C 0.93543 0.30373 0.28466 0.0
C450 C 0.94918 0.28706 0.2526 0.0
C451 C 0.92311 0.286 0.29042 0.0
C452 C 0.89949 0.25221 0.29068 0.0
C453 C 0.91197 0.26866 0.28507 0.0
C454 C 0.90964 0.27013 0.30706 0.0
C455 C 0.89805 0.2528 0.30174 0.0
C456 C 0.92203 0.28657 0.30144 0.0
C457 C 0.97686 0.36778 0.2648 0.0
C458 C 0.96992 0.38797 0.27618 0.0
C459 C 0.99629 0.4022 0.26368 0.0
C460 C 0.99224 0.38407 0.26037 0.0
C461 C 0.98496 0.40439 0.27148 0.0
C462 C 0.9659 0.36979 0.27286 0.0
C463 C 0.97192 0.34899 0.26047 0.0
O464 O 0.96239 0.29404 0.26006 0.0
O465 O 0.936 0.29221 0.25362 0.0
O466 O 0.95364 0.33783 0.25811 0.0
O467 O 0.9798 0.34002 0.26517 0.0
H468 H 0.97503 0.3192 0.24253 0.0
H469 H 0.9865 0.32211 0.22438 0.0
H470 H 0.95072 0.2612 0.22016 0.0
H471 H 0.9397 0.25841 0.23848 0.0
H472 H 0.89091 0.23904 0.28637 0.0
H473 H 0.91273 0.26792 0.27656 0.0
H474 H 0.90871 0.27112 0.31554 0.0
H475 H 0.93052 0.29984 0.30569 0.0
H476 H 0.96086 0.38916 0.28216 0.0
H477 H 0.00819 0.41454 0.26004 0.0
H478 H 0.0009 0.38277 0.25417 0.0
H479 H 0.95396 0.35732 0.27639 0.0
H480 H 0.01426 0.57275 0.07229 0.0
H481 H 0.02131 0.54738 0.06815 0.0
H482 H 0.97516 0.52426 0.04525 0.0
H483 H 0.96739 0.54927 0.04976 0.0
H484 H 0.97282 0.49691 0.05724 0.0
H485 H 0.02333 0.54576 0.03754 0.0
H486 H 0.05067 0.57771 0.0338 0.0
H487 H 0.08388 0.57075 0.05828 0.0
H488 H 0.05664 0.53887 0.06228 0.0
H489 H 0.00114 0.42622 0.04865 0.0
H490 H 0.99562 0.45282 0.04441 0.0
H491 H 0.03351 0.4858 0.06986 0.0
H492 H 0.03925 0.45949 0.07403 0.0
H493 H 0.03901 0.50738 0.05201 0.0
H494 H 0.98539 0.46118 0.07345 0.0
H495 H 0.95781 0.42926 0.07705 0.0
H496 H 0.93047 0.43157 0.04833 0.0
H497 H 0.95804 0.46342 0.0445 0.0
C498 C 0.00558 0.56229 0.06637 0.0
C499 C 0.99013 0.56296 0.06143 0.0
C500 C 0.00982 0.54791 0.06389 0.0
C501 C 0.99895 0.53401 0.05627 0.0
C502 C 0.98382 0.53489 0.05111 0.0
C503 C 0.97948 0.54927 0.05364 0.0
C504 C 0.00256 0.51784 0.05442 0.0
C505 C 0.98722 0.4992 0.05581 0.0
C506 C 0.02137 0.52076 0.05264 0.0
C507 C 0.03787 0.53992 0.05024 0.0
C508 C 0.03641 0.55108 0.04217 0.0
C509 C 0.05191 0.56918 0.04 0.0
C510 C 0.06899 0.57626 0.0458 0.0
C511 C 0.07063 0.56524 0.05378 0.0
C512 C 0.05518 0.54714 0.056 0.0
C513 C 0.00849 0.43926 0.05323 0.0
C514 C 0.02046 0.44073 0.06174 0.0
C515 C 0.00526 0.45439 0.05083 0.0
C516 C 0.01404 0.47121 0.05688 0.0
C517 C 0.02659 0.47295 0.06509 0.0
C518 C 0.02972 0.45785 0.06753 0.0
C519 C 0.00942 0.4867 0.05519 0.0
C520 C 0.02456 0.50515 0.05315 0.0
C521 C 0.99043 0.48362 0.05629 0.0
C522 C 0.97386 0.46454 0.05863 0.0
C523 C 0.97357 0.4548 0.06787 0.0
C524 C 0.95793 0.43675 0.06996 0.0
C525 C 0.94243 0.42837 0.06291 0.0
C526 C 0.94251 0.43806 0.05377 0.0
C527 C 0.95813 0.45611 0.05164 0.0
H528 H 0.93034 0.41439 0.06454 0.0
H529 H 0.08097 0.59028 0.04411 0.0
H530 H 0.57332 0.01521 0.41446 0.0
H531 H 0.54013 0.00755 0.41129 0.0
H532 H 0.5483 0.00532 0.37777 0.0
H533 H 0.58185 0.0131 0.38091 0.0
H534 H 0.52786 0.02356 0.38238 0.0
H535 H 0.52344 0.96432 0.39086 0.0
H536 H 0.53002 0.94196 0.40083 0.0
H537 H 0.50362 0.95031 0.42836 0.0
H538 H 0.49714 0.97295 0.4186 0.0
H539 H 0.42353 0.98247 0.37938 0.0
H540 H 0.45609 0.98686 0.37697 0.0
H541 H 0.46598 0.99515 0.41052 0.0
H542 H 0.43365 0.99054 0.41299 0.0
H543 H 0.47611 0.96973 0.40231 0.0
H544 H 0.48503 0.03254 0.39398 0.0
H545 H 0.47868 0.05483 0.38376 0.0
H546 H 0.49616 0.03856 0.3553 0.0
H547 H 0.50238 0.01599 0.36535 0.0
C548 C 0.56805 0.01295 0.40641 0.0
C549 C 0.58011 0.01445 0.39794 0.0
C550 C 0.54907 0.00861 0.4046 0.0
C551 C 0.54161 0.00546 0.39431 0.0
C552 C 0.55375 0.00756 0.38578 0.0
C553 C 0.57288 0.01202 0.38758 0.0
C554 C 0.52105 0.99985 0.39267 0.0
C555 C 0.51646 0.01155 0.38655 0.0
C556 C 0.50619 0.98418 0.3981 0.0
C557 C 0.50989 0.97042 0.404 0.0
C558 C 0.51914 0.96149 0.39905 0.0
C559 C 0.52284 0.94875 0.40467 0.0
C560 C 0.51726 0.94474 0.41522 0.0
C561 C 0.50793 0.95343 0.42018 0.0
C562 C 0.50421 0.96619 0.41461 0.0
C563 C 0.43269 0.98521 0.38622 0.0
C564 C 0.42609 0.98631 0.39637 0.0
C565 C 0.45128 0.9878 0.38483 0.0
C566 C 0.46345 0.9914 0.39357 0.0
C567 C 0.45682 0.9924 0.40367 0.0
C568 C 0.4384 0.98994 0.40506 0.0
C569 C 0.48307 0.99391 0.39241 0.0
C570 C 0.48745 0.98153 0.39797 0.0
C571 C 0.49764 0.00882 0.3864 0.0
C572 C 0.49393 0.02241 0.38039 0.0
C573 C 0.48735 0.0336 0.38553 0.0
C574 C 0.48381 0.04631 0.37978 0.0
C575 C 0.48695 0.04806 0.36889 0.0
C576 C 0.49369 0.03716 0.36373 0.0
C577 C 0.49723 0.02441 0.36945 0.0
H578 H 0.4842 0.05791 0.36444 0.0
H579 H 0.52014 0.93487 0.41955 0.0
H580 H 0.47472 0.41946 0.71046 0.0
H581 H 0.4996 0.45304 0.71135 0.0
H582 H 0.45605 0.46871 0.71754 0.0
H583 H 0.43099 0.43512 0.71642 0.0
H584 H 0.48388 0.49343 0.70364 0.0
H585 H 0.48118 0.46562 0.73755 0.0
H586 H 0.48159 0.44209 0.74976 0.0
H587 H 0.53868 0.45718 0.73946 0.0
H588 H 0.53849 0.48063 0.72707 0.0
H589 H 0.54302 0.58494 0.72686 0.0
H590 H 0.51857 0.55227 0.72244 0.0
H591 H 0.56305 0.53701 0.71881 0.0
H592 H 0.58756 0.56966 0.72328 0.0
H593 H 0.53496 0.51195 0.7308 0.0
H594 H 0.53838 0.54087 0.69737 0.0
H595 H 0.53796 0.56438 0.68515 0.0
H596 H 0.4799 0.54746 0.69438 0.0
H597 H 0.48005 0.52402 0.70678 0.0
C598 C 0.47039 0.43006 0.71183 0.0
C599 C 0.45088 0.42461 0.71342 0.0
C600 C 0.48464 0.44924 0.71242 0.0
C601 C 0.47968 0.46334 0.71464 0.0
C602 C 0.46018 0.45804 0.71586 0.0
C603 C 0.44591 0.43884 0.7153 0.0
C604 C 0.49491 0.48348 0.71614 0.0
C605 C 0.49496 0.49755 0.70964 0.0
C606 C 0.50957 0.48876 0.72383 0.0
C607 C 0.50974 0.47473 0.73131 0.0
C608 C 0.49376 0.46381 0.73783 0.0
C609 C 0.49396 0.45051 0.74479 0.0
C610 C 0.51013 0.4481 0.74536 0.0
C611 C 0.52615 0.45904 0.73899 0.0
C612 C 0.52601 0.47234 0.73201 0.0
C613 C 0.54762 0.57472 0.72493 0.0
C614 C 0.56722 0.57988 0.72544 0.0
C615 C 0.53362 0.55603 0.7224 0.0
C616 C 0.53897 0.54219 0.72022 0.0
C617 C 0.55857 0.54742 0.7205 0.0
C618 C 0.57256 0.56607 0.72307 0.0
C619 C 0.52407 0.52202 0.71826 0.0
C620 C 0.52401 0.5079 0.72473 0.0
C621 C 0.50945 0.51674 0.71053 0.0
C622 C 0.50929 0.53081 0.70308 0.0
C623 C 0.52557 0.54227 0.69686 0.0
C624 C 0.52538 0.55556 0.68989 0.0
C625 C 0.50893 0.55745 0.68901 0.0
C626 C 0.49263 0.546 0.69508 0.0
C627 C 0.49276 0.5327 0.70207 0.0
H628 H 0.50881 0.56774 0.68361 0.0
H629 H 0.51026 0.4378 0.75076 0.0
H630 H 0.54781 0.961 0.61309 0.0
H631 H 0.52074 0.96639 0.61665 0.0
H632 H 0.5569 0.02624 0.61001 0.0
H633 H 0.58421 0.02107 0.60676 0.0
H634 H 0.53222 0.02052 0.62637 0.0
H635 H 0.52856 0.99622 0.59099 0.0
H636 H 0.52733 0.9731 0.57778 0.0
H637 H 0.47561 0.92899 0.59197 0.0
H638 H 0.4767 0.95181 0.60536 0.0
H639 H 0.46624 0.049 0.60798 0.0
H640 H 0.49198 0.04163 0.61136 0.0
H641 H 0.44966 0.98248 0.61605 0.0
H642 H 0.4238 0.98978 0.61264 0.0
H643 H 0.47603 0.98555 0.60253 0.0
H644 H 0.47747 0.01104 0.63669 0.0
H645 H 0.47872 0.03434 0.64975 0.0
H646 H 0.53414 0.07626 0.63803 0.0
H647 H 0.53311 0.05329 0.62478 0.0
C648 C 0.55014 0.97539 0.61263 0.0
C649 C 0.56812 0.99058 0.60953 0.0
C650 C 0.53461 0.97842 0.61459 0.0
C651 C 0.53673 0.99666 0.61343 0.0
C652 C 0.55492 0.01203 0.61091 0.0
C653 C 0.57046 0.00902 0.60895 0.0
C654 C 0.51975 0.99953 0.61399 0.0
C655 C 0.51995 0.01297 0.62113 0.0
C656 C 0.50357 0.98935 0.60732 0.0
C657 C 0.50284 0.97566 0.59924 0.0
C658 C 0.51701 0.98155 0.59134 0.0
C659 C 0.51633 0.96851 0.58381 0.0
C660 C 0.50143 0.94958 0.58406 0.0
C661 C 0.48716 0.94365 0.59181 0.0
C662 C 0.4878 0.95663 0.59936 0.0
C663 C 0.46239 0.0345 0.60998 0.0
C664 C 0.44298 0.01996 0.61 0.0
C665 C 0.47713 0.0303 0.61192 0.0
C666 C 0.47278 0.01151 0.61403 0.0
C667 C 0.45338 0.99708 0.61442 0.0
C668 C 0.43862 0.00125 0.61244 0.0
C669 C 0.48846 0.00669 0.61487 0.0
C670 C 0.48809 0.99291 0.60792 0.0
C671 C 0.50444 0.01659 0.62172 0.0
C672 C 0.50514 0.03046 0.62968 0.0
C673 C 0.48986 0.02527 0.63684 0.0
C674 C 0.49054 0.03841 0.64428 0.0
C675 C 0.50648 0.05678 0.6447 0.0
C676 C 0.52179 0.06203 0.63769 0.0
C677 C 0.52118 0.04894 0.63022 0.0
H678 H 0.50698 0.06694 0.65048 0.0
H679 H 0.50093 0.9395 0.57823 0.0
H680 H 0.41779 0.45712 0.94665 0.0
H681 H 0.44995 0.48383 0.95038 0.0
H682 H 0.47524 0.44958 0.94097 0.0
H683 H 0.44309 0.42258 0.93758 0.0
H684 H 0.49427 0.4723 0.95777 0.0
H685 H 0.47147 0.47938 0.92358 0.0
H686 H 0.44854 0.48171 0.91145 0.0
H687 H 0.45518 0.53089 0.9283 0.0
H688 H 0.47796 0.52868 0.94062 0.0
H689 H 0.58728 0.54001 0.9395 0.0
H690 H 0.55456 0.51404 0.94265 0.0
H691 H 0.53626 0.55491 0.9501 0.0
H692 H 0.569 0.58099 0.94684 0.0
H693 H 0.51279 0.53013 0.93631 0.0
H694 H 0.53893 0.52546 0.96925 0.0
H695 H 0.56203 0.52316 0.98124 0.0
H696 H 0.54958 0.46992 0.96696 0.0
H697 H 0.5266 0.47202 0.95477 0.0
C698 C 0.43015 0.45511 0.94561 0.0
C699 C 0.42789 0.43777 0.9417 0.0
C700 C 0.44854 0.47045 0.94767 0.0
C701 C 0.46501 0.46879 0.94578 0.0
C702 C 0.46274 0.4512 0.94244 0.0
C703 C 0.44437 0.43585 0.9404 0.0
C704 C 0.4846 0.48569 0.9465 0.0
C705 C 0.4984 0.48493 0.95305 0.0
C706 C 0.48982 0.50233 0.94053 0.0
C707 C 0.47623 0.50374 0.93309 0.0
C708 C 0.46792 0.4906 0.92474 0.0
C709 C 0.45497 0.49192 0.91783 0.0
C710 C 0.45036 0.50641 0.91912 0.0
C711 C 0.45873 0.51965 0.92732 0.0
C712 C 0.47167 0.51838 0.93427 0.0
C713 C 0.57639 0.54346 0.94204 0.0
C714 C 0.58071 0.56255 0.9429 0.0
C715 C 0.55767 0.52859 0.94385 0.0
C716 C 0.54294 0.53249 0.9467 0.0
C717 C 0.54737 0.55155 0.9479 0.0
C718 C 0.56606 0.56643 0.94601 0.0
C719 C 0.52266 0.51678 0.94752 0.0
C720 C 0.50869 0.51769 0.9412 0.0
C721 C 0.51734 0.50032 0.95371 0.0
C722 C 0.53113 0.49898 0.96104 0.0
C723 C 0.54122 0.51333 0.96861 0.0
C724 C 0.55428 0.51205 0.97545 0.0
C725 C 0.5573 0.49642 0.97485 0.0
C726 C 0.54723 0.48202 0.96741 0.0
C727 C 0.53417 0.48324 0.96055 0.0
H728 H 0.56742 0.49546 0.98015 0.0
H729 H 0.44033 0.5074 0.91376 0.0
H730 H 0.0264 0.57692 0.26985 0.0
H731 H 0.01653 0.54313 0.26893 0.0
H732 H 0.00997 0.53895 0.30277 0.0
H733 H 0.01978 0.57292 0.30375 0.0
H734 H 0.02859 0.52066 0.29557 0.0
H735 H 0.97045 0.52082 0.28724 0.0
H736 H 0.94983 0.53111 0.27813 0.0
H737 H 0.96163 0.51328 0.24841 0.0
H738 H 0.98255 0.50314 0.25731 0.0
H739 H 0.98445 0.41866 0.29115 0.0
H740 H 0.98985 0.45058 0.29552 0.0
H741 H 0.99873 0.46565 0.26256 0.0
H742 H 0.99279 0.43377 0.25812 0.0
H743 H 0.97579 0.47715 0.27157 0.0
H744 H 0.03662 0.4803 0.27985 0.0
H745 H 0.05748 0.47031 0.28897 0.0
H746 H 0.04025 0.48184 0.31897 0.0
H747 H 0.01909 0.49167 0.31002 0.0
C748 C 0.02263 0.56879 0.2771 0.0
C749 C 0.02369 0.57759 0.28687 0.0
C750 C 0.01702 0.54947 0.27656 0.0
C751 C 0.01222 0.53844 0.28577 0.0
C752 C 0.01356 0.54719 0.29557 0.0
C753 C 0.0192 0.5666 0.29611 0.0
C754 C 0.0061 0.51784 0.28506 0.0
C755 C 0.0168 0.51103 0.29049 0.0
C756 C 0.99085 0.50535 0.27833 0.0
C757 C 0.97818 0.51133 0.27294 0.0
C758 C 0.96876 0.51921 0.27875 0.0
C759 C 0.957 0.525 0.27362 0.0
C760 C 0.95445 0.52288 0.2627 0.0
C761 C 0.96363 0.51492 0.25687 0.0
C762 C 0.97542 0.50913 0.26196 0.0
C763 C 0.98742 0.42875 0.28484 0.0
C764 C 0.98834 0.42372 0.27429 0.0
C765 C 0.99065 0.44702 0.28735 0.0
C766 C 0.99487 0.46056 0.27937 0.0
C767 C 0.99554 0.45546 0.26885 0.0
C768 C 0.99234 0.43727 0.26634 0.0
C769 C 0.99862 0.4801 0.28185 0.0
C770 C 0.98742 0.4867 0.27677 0.0
C771 C 0.01337 0.49236 0.2889 0.0
C772 C 0.0261 0.48649 0.29427 0.0
C773 C 0.03716 0.48055 0.28839 0.0
C774 C 0.04906 0.47495 0.29353 0.0
C775 C 0.05015 0.47538 0.30454 0.0
C776 C 0.03937 0.48147 0.31044 0.0
C777 C 0.02743 0.48707 0.30534 0.0
H778 H 0.05937 0.47105 0.3085 0.0
H779 H 0.94535 0.52738 0.25874 0.0
H780 H 0.97881 0.26858 0.20938 0.0
H781 H 0.98885 0.27188 0.1909 0.0
H782 H 0.98481 0.32311 0.18844 0.0
H783 H 0.97409 0.31953 0.20675 0.0
H784 H 0.96905 0.30099 0.17167 0.0
H785 H 0.02854 0.32468 0.19091 0.0
H786 H 0.05078 0.32336 0.20396 0.0
H787 H 0.04787 0.27507 0.18786 0.0
H788 H 0.02539 0.27595 0.17479 0.0
H789 H 0.02345 0.34268 0.12572 0.0
H790 H 0.01222 0.33579 0.14393 0.0
H791 H 0.01486 0.28369 0.14274 0.0
H792 H 0.02588 0.29036 0.12439 0.0
H793 H 0.03034 0.30387 0.16108 0.0
H794 H 0.97198 0.28164 0.14121 0.0
H795 H 0.95034 0.28387 0.1281 0.0
H796 H 0.95166 0.33035 0.14543 0.0
H797 H 0.97354 0.32858 0.15856 0.0
C798 C 0.9799 0.28046 0.20488 0.0
C799 C 0.97572 0.29384 0.20957 0.0
C800 C 0.98583 0.28243 0.19434 0.0
C801 C 0.9878 0.29787 0.18831 0.0
C802 C 0.98345 0.31112 0.19294 0.0
C803 C 0.9775 0.30915 0.20345 0.0
C804 C 0.99423 0.30022 0.17713 0.0
C805 C 0.98255 0.30182 0.16937 0.0
C806 C 0.01161 0.30081 0.17409 0.0
C807 C 0.02511 0.30025 0.18194 0.0
C808 C 0.03251 0.31368 0.1902 0.0
C809 C 0.04519 0.31303 0.19759 0.0
C810 C 0.05069 0.29911 0.19676 0.0
C811 C 0.04357 0.28583 0.18851 0.0
C812 C 0.03087 0.2864 0.1811 0.0
C813 C 0.02143 0.32963 0.12926 0.0
C814 C 0.02539 0.31697 0.12354 0.0
C815 C 0.01507 0.32574 0.1397 0.0
C816 C 0.01246 0.3091 0.14464 0.0
C817 C 0.01675 0.29661 0.13905 0.0
C818 C 0.0231 0.30047 0.12858 0.0
C819 C 0.00528 0.30488 0.15566 0.0
C820 C 0.01679 0.30291 0.16338 0.0
C821 C 0.98778 0.30404 0.15868 0.0
C822 C 0.97453 0.30507 0.15083 0.0
C823 C 0.96777 0.29243 0.14218 0.0
C824 C 0.95544 0.2936 0.13476 0.0
C825 C 0.94966 0.30727 0.13592 0.0
C826 C 0.95616 0.31978 0.14453 0.0
C827 C 0.96851 0.31868 0.15198 0.0
H828 H 0.94011 0.30815 0.13016 0.0
H829 H 0.06051 0.29863 0.20248 0.0
H830 H 0.68593 0.00318 0.45596 0.0
H831 H 0.68155 0.99219 0.4742 0.0
H832 H 0.73612 0.04086 0.48267 0.0
H833 H 0.7405 0.0522 0.46443 0.0
H834 H 0.73066 0.00708 0.49168 0.0
H835 H 0.69601 0.04145 0.48849 0.0
H836 H 0.67274 0.04944 0.48046 0.0
H837 H 0.62669 0.9926 0.48628 0.0
H838 H 0.64974 0.98418 0.4942 0.0
H839 H 0.71457 0.99767 0.54737 0.0
H840 H 0.72197 0.00917 0.52918 0.0
H841 H 0.6651 0.96577 0.51943 0.0
H842 H 0.65756 0.9545 0.53762 0.0
H843 H 0.67282 0.99823 0.51115 0.0
H844 H 0.70688 0.96323 0.5139 0.0
H845 H 0.72981 0.95449 0.52163 0.0
H846 H 0.77642 0.01131 0.51646 0.0
H847 H 0.75371 0.02047 0.50881 0.0
C848 C 0.69697 0.01165 0.4617 0.0
C849 C 0.71347 0.02871 0.45874 0.0
C850 C 0.69447 0.00528 0.47212 0.0
C851 C 0.70839 0.01583 0.47982 0.0
C852 C 0.7252 0.03251 0.47685 0.0
C853 C 0.72769 0.03894 0.46641 0.0
C854 C 0.70507 0.00965 0.491 0.0
C855 C 0.71817 0.00538 0.49601 0.0
C856 C 0.68855 0.00707 0.49655 0.0
C857 C 0.67464 0.01214 0.49185 0.0
C858 C 0.68094 0.03061 0.48798 0.0
C859 C 0.66779 0.03522 0.48346 0.0
C860 C 0.64825 0.02152 0.48284 0.0
C861 C 0.64183 0.00319 0.48676 0.0
C862 C 0.65493 0.99849 0.49127 0.0
C863 C 0.70375 0.99048 0.54132 0.0
C864 C 0.68548 0.97521 0.54392 0.0
C865 C 0.70798 0.99703 0.53092 0.0
C866 C 0.69415 0.98823 0.52289 0.0
C867 C 0.67599 0.97284 0.52548 0.0
C868 C 0.67169 0.96642 0.53587 0.0
C869 C 0.69828 0.99537 0.51185 0.0
C870 C 0.68535 0.99991 0.50686 0.0
C871 C 0.71489 0.99807 0.50632 0.0
C872 C 0.72857 0.99258 0.51088 0.0
C873 C 0.722 0.9739 0.51448 0.0
C874 C 0.73495 0.96887 0.51884 0.0
C875 C 0.75455 0.98235 0.51956 0.0
C876 C 0.76123 0.00089 0.5159 0.0
C877 C 0.74833 0.006 0.51155 0.0
H878 H 0.76456 0.97842 0.52293 0.0
H879 H 0.63809 0.02512 0.47934 0.0
H880 H 0.71129 0.72667 0.79066 0.0
H881 H 0.71893 0.7231 0.80897 0.0
H882 H 0.65824 0.68853 0.81571 0.0
H883 H 0.65051 0.69228 0.79752 0.0
H884 H 0.67741 0.71509 0.83119 0.0
H885 H 0.68531 0.66791 0.81168 0.0
H886 H 0.69877 0.65666 0.79765 0.0
H887 H 0.75596 0.69308 0.80957 0.0
H888 H 0.74285 0.70475 0.82358 0.0
H889 H 0.67722 0.66979 0.87858 0.0
H890 H 0.67302 0.67743 0.86055 0.0
H891 H 0.73464 0.70623 0.85591 0.0
H892 H 0.73891 0.6977 0.87382 0.0
H893 H 0.71724 0.68511 0.83935 0.0
H894 H 0.70956 0.73107 0.85949 0.0
H895 H 0.6964 0.74259 0.87353 0.0
H896 H 0.63951 0.70944 0.8605 0.0
H897 H 0.6523 0.69751 0.84646 0.0
C898 C 0.69958 0.71844 0.79608 0.0
C899 C 0.6803 0.70967 0.79264 0.0
C900 C 0.70397 0.71631 0.80651 0.0
C901 C 0.68915 0.70541 0.81367 0.0
C902 C 0.66989 0.69696 0.81031 0.0
C903 C 0.66551 0.69899 0.79989 0.0
C904 C 0.6936 0.70263 0.82468 0.0
C905 C 0.68598 0.70839 0.83299 0.0
C906 C 0.70523 0.69438 0.82701 0.0
C907 C 0.71312 0.68736 0.8186 0.0
C908 C 0.70077 0.67364 0.81125 0.0
C909 C 0.70833 0.66717 0.80331 0.0
C910 C 0.72821 0.6742 0.8027 0.0
C911 C 0.74057 0.68768 0.81004 0.0
C912 C 0.73308 0.69422 0.81798 0.0
C913 C 0.6899 0.67759 0.87372 0.0
C914 C 0.70842 0.68307 0.87769 0.0
C915 C 0.68749 0.68218 0.86343 0.0
C916 C 0.70353 0.69268 0.8569 0.0
C917 C 0.72204 0.69821 0.86082 0.0
C918 C 0.72447 0.69347 0.8711 0.0
C919 C 0.70087 0.69739 0.84591 0.0
C920 C 0.70882 0.69199 0.83759 0.0
C921 C 0.68961 0.70607 0.84356 0.0
C922 C 0.68188 0.71328 0.85197 0.0
C923 C 0.69423 0.72614 0.85966 0.0
C924 C 0.68683 0.73276 0.86761 0.0
C925 C 0.66713 0.72672 0.86792 0.0
C926 C 0.65478 0.71409 0.86026 0.0
C927 C 0.66209 0.70741 0.85229 0.0
H928 H 0.66143 0.73186 0.87408 0.0
H929 H 0.73404 0.66916 0.79655 0.0
H930 H 0.0035 0.64782 0.20819 0.0
H931 H 0.99748 0.65129 0.1897 0.0
H932 H 0.01351 0.71007 0.19528 0.0
H933 H 0.01914 0.70655 0.21399 0.0
H934 H 0.98067 0.69123 0.18304 0.0
H935 H 0.04448 0.7004 0.18284 0.0
H936 H 0.07033 0.69313 0.18707 0.0
H937 H 0.04002 0.64001 0.17027 0.0
H938 H 0.01383 0.64683 0.16607 0.0
H939 H 0.9802 0.7042 0.12678 0.0
H940 H 0.98991 0.70815 0.1454 0.0
H941 H 0.9789 0.65016 0.14607 0.0
H942 H 0.96919 0.64613 0.12758 0.0
H943 H 0.01279 0.67377 0.15508 0.0
H944 H 0.94755 0.66303 0.15702 0.0
H945 H 0.92132 0.66986 0.15298 0.0
H946 H 0.95431 0.72579 0.16652 0.0
H947 H 0.98085 0.71937 0.17053 0.0
C948 C 0.00556 0.66145 0.20554 0.0
C949 C 0.01173 0.6769 0.21258 0.0
C950 C 0.0023 0.66347 0.19493 0.0
C951 C 0.00527 0.681 0.19108 0.0
C952 C 0.01122 0.69643 0.19809 0.0
C953 C 0.01454 0.69444 0.20874 0.0
C954 C 0.002 0.68293 0.17973 0.0
C955 C 0.98796 0.68779 0.1769 0.0
C956 C 0.01134 0.6782 0.17174 0.0
C957 C 0.02712 0.67408 0.1742 0.0
C958 C 0.04326 0.68711 0.18011 0.0
C959 C 0.05798 0.68308 0.18249 0.0
C960 C 0.0568 0.66611 0.17896 0.0
C961 C 0.04091 0.65315 0.17301 0.0
C962 C 0.02613 0.65711 0.17061 0.0
C963 C 0.9797 0.69227 0.13094 0.0
C964 C 0.97403 0.67489 0.12568 0.0
C965 C 0.98528 0.69455 0.14156 0.0
C966 C 0.98509 0.67943 0.14714 0.0
C967 C 0.97931 0.66207 0.14191 0.0
C968 C 0.97381 0.6598 0.13132 0.0
C969 C 0.99105 0.68151 0.15839 0.0
C970 C 0.00567 0.67746 0.1612 0.0
C971 C 0.98223 0.68697 0.16634 0.0
C972 C 0.96627 0.69081 0.16396 0.0
C973 C 0.94927 0.67684 0.15906 0.0
C974 C 0.93434 0.68063 0.15679 0.0
C975 C 0.93617 0.69827 0.15946 0.0
C976 C 0.95292 0.71214 0.16444 0.0
C977 C 0.96791 0.70844 0.16671 0.0
H978 H 0.92459 0.70117 0.1577 0.0
H979 H 0.06821 0.66301 0.18081 0.0
H980 H 0.3254 0.98022 0.45859 0.0
H981 H 0.33054 0.99189 0.47673 0.0
H982 H 0.27283 0.98362 0.47765 0.0
H983 H 0.26781 0.97259 0.45929 0.0
H984 H 0.29807 0.01707 0.48655 0.0
H985 H 0.28363 0.95225 0.48976 0.0
H986 H 0.28689 0.924 0.48589 0.0
H987 H 0.34563 0.95378 0.49667 0.0
H988 H 0.3428 0.98232 0.50047 0.0
H989 H 0.29781 0.02699 0.54265 0.0
H990 H 0.29006 0.01473 0.52457 0.0
H991 H 0.34725 0.02238 0.52104 0.0
H992 H 0.35516 0.03477 0.53905 0.0
H993 H 0.3203 0.98806 0.51371 0.0
H994 H 0.33508 0.05322 0.50981 0.0
H995 H 0.33188 0.08151 0.51365 0.0
H996 H 0.27238 0.05094 0.50423 0.0
H997 H 0.27516 0.02236 0.50046 0.0
C998 C 0.31385 0.98108 0.46259 0.0
C999 C 0.29619 0.97548 0.45746 0.0
C1000 C 0.31674 0.98756 0.47302 0.0
C1001 C 0.30197 0.98837 0.47862 0.0
C1002 C 0.28439 0.98301 0.4735 0.0
C1003 C 0.28149 0.97657 0.46303 0.0
C1004 C 0.30502 0.99495 0.48978 0.0
C1005 C 0.30262 0.01052 0.49253 0.0
C1006 C 0.31132 0.98665 0.49754 0.0
C1007 C 0.31305 0.96948 0.49531 0.0
C1008 C 0.29729 0.95283 0.49123 0.0
C1009 C 0.29905 0.93676 0.48906 0.0
C1010 C 0.31647 0.93711 0.49101 0.0
C1011 C 0.33215 0.95353 0.49516 0.0
C1012 C 0.33047 0.96965 0.49733 0.0
C1013 C 0.3088 0.02625 0.53799 0.0
C1014 C 0.32711 0.03186 0.54231 0.0
C1015 C 0.30434 0.0192 0.52766 0.0
C1016 C 0.31812 0.01775 0.52143 0.0
C1017 C 0.33637 0.02329 0.52572 0.0
C1018 C 0.34084 0.03032 0.53603 0.0
C1019 C 0.31355 0.0103 0.51045 0.0
C1020 C 0.31564 0.99453 0.50774 0.0
C1021 C 0.30696 0.01841 0.50274 0.0
C1022 C 0.30528 0.03559 0.50496 0.0
C1023 C 0.32127 0.05248 0.50864 0.0
C1024 C 0.31954 0.06857 0.51079 0.0
C1025 C 0.30192 0.068 0.50921 0.0
C1026 C 0.28601 0.05135 0.50546 0.0
C1027 C 0.28766 0.0352 0.50331 0.0
H1028 H 0.30061 0.08048 0.51088 0.0
H1029 H 0.31781 0.92466 0.48933 0.0
H1030 H 0.31748 0.31446 0.87927 0.0
H1031 H 0.32355 0.31103 0.8607 0.0
H1032 H 0.28435 0.33071 0.85141 0.0
H1033 H 0.27825 0.33426 0.86999 0.0
H1034 H 0.28022 0.30127 0.83899 0.0
H1035 H 0.33218 0.36095 0.85142 0.0
H1036 H 0.35881 0.38203 0.86329 0.0
H1037 H 0.38871 0.35148 0.85584 0.0
H1038 H 0.3621 0.33003 0.84403 0.0
H1039 H 0.3147 0.33229 0.78678 0.0
H1040 H 0.30456 0.32926 0.80522 0.0
H1041 H 0.34442 0.30977 0.81343 0.0
H1042 H 0.35493 0.31317 0.79504 0.0
H1043 H 0.34787 0.33781 0.82646 0.0
H1044 H 0.29628 0.27902 0.81321 0.0
H1045 H 0.26964 0.25841 0.80122 0.0
H1046 H 0.23909 0.28774 0.80998 0.0
H1047 H 0.26569 0.30872 0.82192 0.0
C1048 C 0.31013 0.31804 0.87328 0.0
C1049 C 0.29752 0.32481 0.87611 0.0
C1050 C 0.31359 0.31603 0.86267 0.0
C1051 C 0.30463 0.32089 0.85467 0.0
C1052 C 0.29143 0.32689 0.85746 0.0
C1053 C 0.28792 0.32887 0.86808 0.0
C1054 C 0.30969 0.32051 0.84343 0.0
C1055 C 0.29498 0.3094 0.83622 0.0
C1056 C 0.329 0.33084 0.83986 0.0
C1057 C 0.34505 0.34376 0.84693 0.0
C1058 C 0.34436 0.35863 0.85238 0.0
C1059 C 0.35946 0.37066 0.85908 0.0
C1060 C 0.37541 0.36806 0.86034 0.0
C1061 C 0.37632 0.35345 0.85487 0.0
C1062 C 0.36124 0.34136 0.84816 0.0
C1063 C 0.32125 0.32728 0.7925 0.0
C1064 C 0.33565 0.323 0.78945 0.0
C1065 C 0.31532 0.3254 0.80303 0.0
C1066 C 0.32364 0.31917 0.81069 0.0
C1067 C 0.33777 0.31455 0.80763 0.0
C1068 C 0.34365 0.31636 0.79711 0.0
C1069 C 0.31842 0.31853 0.82199 0.0
C1070 C 0.33312 0.32954 0.82923 0.0
C1071 C 0.2991 0.30817 0.82555 0.0
C1072 C 0.28307 0.29557 0.81838 0.0
C1073 C 0.28396 0.28119 0.81251 0.0
C1074 C 0.26885 0.26942 0.80574 0.0
C1075 C 0.2527 0.2718 0.80482 0.0
C1076 C 0.25162 0.28593 0.81069 0.0
C1077 C 0.2667 0.29775 0.81747 0.0
H1078 H 0.24102 0.26266 0.79957 0.0
H1079 H 0.3871 0.37739 0.86554 0.0
H1080 H 0.25469 0.38999 0.98004 0.0
H1081 H 0.2278 0.38572 0.99107 0.0
H1082 H 0.19868 0.32517 0.98501 0.0
H1083 H 0.22571 0.32937 0.97387 0.0
H1084 H 0.17383 0.33895 0.98411 0.0
H1085 H 0.22058 0.34206 0.00849 0.0
H1086 H 0.25277 0.35483 0.01656 0.0
H1087 H 0.25332 0.407 0.02418 0.0
H1088 H 0.22124 0.39466 0.01601 0.0
H1089 H 0.10619 0.32788 0.02508 0.0
H1090 H 0.1305 0.32424 0.015 0.0
H1091 H 0.1682 0.38518 0.01586 0.0
H1092 H 0.14424 0.38885 0.02602 0.0
H1093 H 0.1873 0.36587 0.02039 0.0
H1094 H 0.14181 0.36332 0.99406 0.0
H1095 H 0.10958 0.35011 0.98595 0.0
H1096 H 0.10651 0.29572 0.98236 0.0
H1097 H 0.13864 0.30857 0.99059 0.0
C1098 C 0.24264 0.37573 0.9811 0.0
C1099 C 0.24245 0.35999 0.97619 0.0
C1100 C 0.22726 0.37331 0.98741 0.0
C1101 C 0.2114 0.35508 0.98904 0.0
C1102 C 0.21084 0.33936 0.9839 0.0
C1103 C 0.22625 0.34178 0.97753 0.0
C1104 C 0.19554 0.35268 0.99615 0.0
C1105 C 0.1767 0.34449 0.99212 0.0
C1106 C 0.19928 0.36 0.00658 0.0
C1107 C 0.21854 0.36747 0.01157 0.0
C1108 C 0.22761 0.35631 0.01182 0.0
C1109 C 0.24584 0.36346 0.01643 0.0
C1110 C 0.2551 0.38173 0.02087 0.0
C1111 C 0.24613 0.39286 0.02073 0.0
C1112 C 0.22791 0.38578 0.01613 0.0
C1113 C 0.11973 0.34046 0.02317 0.0
C1114 C 0.12325 0.35867 0.02627 0.0
C1115 C 0.13354 0.33837 0.01736 0.0
C1116 C 0.15109 0.35446 0.0146 0.0
C1117 C 0.15474 0.37258 0.01788 0.0
C1118 C 0.14097 0.37467 0.02362 0.0
C1119 C 0.16577 0.35271 0.00824 0.0
C1120 C 0.18439 0.36008 0.01244 0.0
C1121 C 0.16178 0.34452 0.99801 0.0
C1122 C 0.14251 0.33683 0.99305 0.0
C1123 C 0.13419 0.3485 0.99162 0.0
C1124 C 0.11596 0.34109 0.98699 0.0
C1125 C 0.10598 0.32207 0.98368 0.0
C1126 C 0.11424 0.31044 0.98496 0.0
C1127 C 0.13246 0.31778 0.9896 0.0
H1128 H 0.09187 0.31636 0.98009 0.0
H1129 H 0.26921 0.38724 0.02443 0.0
H1130 H 0.86065 0.22778 0.29641 0.0
H1131 H 0.83659 0.20115 0.30681 0.0
H1132 H 0.87907 0.2128 0.33101 0.0
H1133 H 0.90336 0.23931 0.32054 0.0
H1134 H 0.85555 0.17385 0.32712 0.0
H1135 H 0.84852 0.22863 0.33437 0.0
H1136 H 0.84437 0.25605 0.32974 0.0
H1137 H 0.7904 0.21846 0.31466 0.0
H1138 H 0.79437 0.19082 0.31906 0.0
H1139 H 0.78959 0.12295 0.36871 0.0
H1140 H 0.81537 0.14681 0.35771 0.0
H1141 H 0.7734 0.14094 0.33436 0.0
H1142 H 0.74753 0.11781 0.3455 0.0
H1143 H 0.79743 0.17707 0.33796 0.0
H1144 H 0.80399 0.12214 0.33074 0.0
H1145 H 0.80813 0.0946 0.33508 0.0
H1146 H 0.86255 0.13191 0.34983 0.0
H1147 H 0.85862 0.15966 0.3457 0.0
C1148 C 0.86498 0.22448 0.30385 0.0
C1149 C 0.88389 0.23572 0.30768 0.0
C1150 C 0.85118 0.20934 0.30982 0.0
C1151 C 0.856 0.20515 0.31973 0.0
C1152 C 0.87504 0.21584 0.32339 0.0
C1153 C 0.88885 0.23106 0.31745 0.0
C1154 C 0.84092 0.19022 0.32647 0.0
C1155 C 0.84293 0.17462 0.3296 0.0
C1156 C 0.82432 0.1911 0.32955 0.0
C1157 C 0.82184 0.20768 0.32695 0.0
C1158 C 0.83584 0.22622 0.32999 0.0
C1159 C 0.83351 0.2418 0.32742 0.0
C1160 C 0.81715 0.239 0.32189 0.0
C1161 C 0.80307 0.22061 0.31893 0.0
C1162 C 0.80535 0.20498 0.32147 0.0
C1163 C 0.78583 0.12678 0.36125 0.0
C1164 C 0.76644 0.1184 0.358 0.0
C1165 C 0.80062 0.14028 0.35491 0.0
C1166 C 0.79636 0.14554 0.34514 0.0
C1167 C 0.77706 0.13708 0.34184 0.0
C1168 C 0.76228 0.12368 0.34819 0.0
C1169 C 0.81185 0.16047 0.33854 0.0
C1170 C 0.80998 0.17618 0.33547 0.0
C1171 C 0.82851 0.15962 0.33551 0.0
C1172 C 0.83091 0.14296 0.338 0.0
C1173 C 0.81677 0.12446 0.33499 0.0
C1174 C 0.81909 0.10881 0.33739 0.0
C1175 C 0.83556 0.1115 0.34275 0.0
C1176 C 0.84978 0.12984 0.34569 0.0
C1177 C 0.84752 0.14554 0.34331 0.0
H1178 H 0.83734 0.09936 0.34461 0.0
H1179 H 0.81537 0.25108 0.31991 0.0
H1180 H 0.61524 0.76354 0.69788 0.0
H1181 H 0.61952 0.79012 0.68688 0.0
H1182 H 0.67649 0.80121 0.67828 0.0
H1183 H 0.6723 0.77456 0.68939 0.0
H1184 H 0.6759 0.83422 0.68169 0.0
H1185 H 0.63965 0.7778 0.66128 0.0
H1186 H 0.61362 0.74505 0.65759 0.0
H1187 H 0.57128 0.76258 0.66209 0.0
H1188 H 0.59705 0.79539 0.66597 0.0
H1189 H 0.67743 0.89374 0.63874 0.0
H1190 H 0.67902 0.8687 0.64891 0.0
H1191 H 0.62247 0.85095 0.6616 0.0
H1192 H 0.62062 0.87553 0.65136 0.0
H1193 H 0.62584 0.82092 0.65459 0.0
H1194 H 0.66283 0.87711 0.67626 0.0
H1195 H 0.68929 0.90972 0.67981 0.0
H1196 H 0.73091 0.89242 0.6723 0.0
H1197 H 0.70466 0.85974 0.66857 0.0
C1198 C 0.62868 0.77162 0.69364 0.0
C1199 C 0.64334 0.7668 0.69439 0.0
C1200 C 0.63112 0.78681 0.68736 0.0
C1201 C 0.64817 0.79741 0.68158 0.0
C1202 C 0.66317 0.79316 0.68263 0.0
C1203 C 0.66078 0.77797 0.68899 0.0
C1204 C 0.64993 0.81254 0.67426 0.0
C1205 C 0.66514 0.83127 0.67564 0.0
C1206 C 0.63585 0.80872 0.6664 0.0
C1207 C 0.62029 0.78903 0.66399 0.0
C1208 C 0.62479 0.77464 0.66156 0.0
C1209 C 0.61008 0.75607 0.65942 0.0
C1210 C 0.59081 0.75173 0.65963 0.0
C1211 C 0.58621 0.76596 0.66194 0.0
C1212 C 0.60087 0.78455 0.6641 0.0
C1213 C 0.66533 0.88444 0.64368 0.0
C1214 C 0.64895 0.8867 0.64429 0.0
C1215 C 0.66632 0.87025 0.64953 0.0
C1216 C 0.65091 0.85805 0.65607 0.0
C1217 C 0.63454 0.86022 0.65663 0.0
C1218 C 0.63358 0.8744 0.65084 0.0
C1219 C 0.65146 0.84269 0.66222 0.0
C1220 C 0.6367 0.82386 0.66057 0.0
C1221 C 0.66603 0.84643 0.66976 0.0
C1222 C 0.68179 0.86605 0.67202 0.0
C1223 C 0.67762 0.8803 0.67528 0.0
C1224 C 0.69258 0.89879 0.67734 0.0
C1225 C 0.71177 0.90316 0.67625 0.0
C1226 C 0.71604 0.88902 0.67312 0.0
C1227 C 0.70113 0.87052 0.67104 0.0
H1228 H 0.72333 0.91747 0.67785 0.0
H1229 H 0.57944 0.73734 0.65798 0.0
H1230 H 0.89689 0.6459 0.01054 0.0
H1231 H 0.87375 0.65102 1.00052 0.0
H1232 H 0.853 0.66301 0.0294 0.0
H1233 H 0.87553 0.65702 0.03954 0.0
H1234 H 0.82386 0.6389 0.01784 0.0
H1235 H 0.8802 0.69855 0.01122 0.0
H1236 H 0.91387 0.72029 0.00599 0.0
H1237 H 0.9018 0.69613 0.9748 0.0
H1238 H 0.86811 0.67405 0.97988 0.0
H1239 H 0.76169 0.66349 0.99077 0.0
H1240 H 0.78892 0.66731 0.00147 0.0
H1241 H 0.81076 0.65023 0.9749 0.0
H1242 H 0.78352 0.64625 0.96417 0.0
H1243 H 0.83986 0.67969 0.98606 0.0
H1244 H 0.78435 0.61828 0.99347 0.0
H1245 H 0.75067 0.59676 0.99879 0.0
H1246 H 0.76161 0.62506 0.02884 0.0
H1247 H 0.79531 0.64694 0.02363 0.0
C1248 C 0.8874 0.6496 0.01478 0.0
C1249 C 0.88801 0.65092 0.02586 0.0
C1250 C 0.87433 0.65278 0.00901 0.0
C1251 C 0.86174 0.65761 0.01418 0.0
C1252 C 0.86261 0.65937 0.02523 0.0
C1253 C 0.87562 0.65609 0.03101 0.0
C1254 C 0.84683 0.65952 0.00811 0.0
C1255 C 0.82743 0.64814 0.01103 0.0
C1256 C 0.8514 0.67125 0.99907 0.0
C1257 C 0.87165 0.68453 0.99596 0.0
C1258 C 0.88476 0.69776 0.00327 0.0
C1259 C 0.90384 0.71017 1.00032 0.0
C1260 C 0.90998 0.70956 0.99007 0.0
C1261 C 0.89703 0.69658 0.98274 0.0
C1262 C 0.87793 0.68413 0.98564 0.0
C1263 C 0.77232 0.6606 0.98719 0.0
C1264 C 0.77032 0.65437 0.97665 0.0
C1265 C 0.7879 0.66285 0.99331 0.0
C1266 C 0.80172 0.6588 0.98902 0.0
C1267 C 0.80026 0.65344 0.97836 0.0
C1268 C 0.7847 0.65121 0.97224 0.0
C1269 C 0.81701 0.659 0.99578 0.0
C1270 C 0.83641 0.67069 0.99297 0.0
C1271 C 0.81248 0.64761 0.00495 0.0
C1272 C 0.79228 0.63437 0.00812 0.0
C1273 C 0.77953 0.62 1.00118 0.0
C1274 C 0.76045 0.60773 0.00418 0.0
C1275 C 0.75399 0.60958 0.01414 0.0
C1276 C 0.76662 0.62367 0.02113 0.0
C1277 C 0.78572 0.636 0.01816 0.0
H1278 H 0.73921 0.60006 0.01645 0.0
H1279 H 0.92476 0.71918 0.98781 0.0
H1280 H 0.22831 0.89441 0.35627 0.0
H1281 H 0.20132 0.87191 0.34527 0.0
H1282 H 0.21315 0.82699 0.35387 0.0
H1283 H 0.24018 0.84942 0.36481 0.0
H1284 H 0.20875 0.82742 0.33322 0.0
H1285 H 0.17373 0.82927 0.36368 0.0
H1286 H 0.16396 0.84458 0.37738 0.0
H1287 H 0.14326 0.86765 0.35348 0.0
H1288 H 0.15315 0.85268 0.33963 0.0
H1289 H 0.12608 0.7492 0.31173 0.0
H1290 H 0.14977 0.77136 0.32432 0.0
H1291 H 0.13725 0.81527 0.31455 0.0
H1292 H 0.11288 0.79291 0.30221 0.0
H1293 H 0.14172 0.81584 0.33566 0.0
H1294 H 0.17688 0.81446 0.30527 0.0
H1295 H 0.18667 0.7994 0.29144 0.0
H1296 H 0.20737 0.77593 0.31511 0.0
H1297 H 0.19745 0.79064 0.3291 0.0
C1298 C 0.22497 0.87967 0.35594 0.0
C1299 C 0.23642 0.8737 0.36138 0.0
C1300 C 0.20954 0.86682 0.34965 0.0
C1301 C 0.20512 0.84771 0.34878 0.0
C1302 C 0.21633 0.84167 0.35437 0.0
C1303 C 0.2318 0.85451 0.36061 0.0
C1304 C 0.18944 0.83418 0.34167 0.0
C1305 C 0.19404 0.82468 0.33387 0.0
C1306 C 0.17036 0.83103 0.34229 0.0
C1307 C 0.16436 0.84001 0.35061 0.0
C1308 C 0.16724 0.83773 0.36134 0.0
C1309 C 0.16165 0.84633 0.36914 0.0
C1310 C 0.15304 0.85712 0.3663 0.0
C1311 C 0.14995 0.8593 0.35567 0.0
C1312 C 0.15553 0.85075 0.34784 0.0
C1313 C 0.1281 0.76347 0.31236 0.0
C1314 C 0.11761 0.76928 0.30591 0.0
C1315 C 0.14181 0.77619 0.3195 0.0
C1316 C 0.14551 0.79508 0.32026 0.0
C1317 C 0.13471 0.8008 0.31405 0.0
C1318 C 0.12092 0.78804 0.30693 0.0
C1319 C 0.16102 0.80895 0.32731 0.0
C1320 C 0.15643 0.81856 0.33505 0.0
C1321 C 0.18016 0.81227 0.32663 0.0
C1322 C 0.18626 0.80351 0.31823 0.0
C1323 C 0.18339 0.80598 0.30753 0.0
C1324 C 0.18898 0.79752 0.29966 0.0
C1325 C 0.19759 0.78667 0.30239 0.0
C1326 C 0.20068 0.78431 0.313 0.0
C1327 C 0.19509 0.79272 0.32091 0.0
H1328 H 0.20191 0.78014 0.29629 0.0
H1329 H 0.14872 0.86376 0.37235 0.0
H1330 H 0.37408 0.25255 0.68876 0.0
H1331 H 0.37352 0.22959 0.67596 0.0
H1332 H 0.32259 0.18482 0.69073 0.0
H1333 H 0.32273 0.20777 0.70344 0.0
H1334 H 0.35034 0.17475 0.6875 0.0
H1335 H 0.31884 0.20153 0.66731 0.0
H1336 H 0.31499 0.2273 0.65935 0.0
H1337 H 0.36676 0.24532 0.64136 0.0
H1338 H 0.37107 0.21981 0.64933 0.0
H1339 H 0.33363 0.10426 0.64922 0.0
H1340 H 0.32916 0.12648 0.66047 0.0
H1341 H 0.37736 0.1739 0.64531 0.0
H1342 H 0.38173 0.15174 0.63395 0.0
H1343 H 0.34929 0.18198 0.64867 0.0
H1344 H 0.38206 0.1569 0.66943 0.0
H1345 H 0.38672 0.13167 0.67748 0.0
H1346 H 0.33362 0.11121 0.69454 0.0
H1347 H 0.3285 0.13617 0.68647 0.0
C1348 C 0.36254 0.2379 0.6892 0.0
C1349 C 0.34845 0.23204 0.69716 0.0
C1350 C 0.36228 0.22477 0.68188 0.0
C1351 C 0.34794 0.20551 0.68236 0.0
C1352 C 0.33381 0.19961 0.69024 0.0
C1353 C 0.33399 0.21274 0.69753 0.0
C1354 C 0.34817 0.19141 0.67489 0.0
C1355 C 0.34978 0.17614 0.67901 0.0
C1356 C 0.34794 0.19352 0.66381 0.0
C1357 C 0.34537 0.20886 0.65899 0.0
C1358 C 0.3295 0.21108 0.66172 0.0
C1359 C 0.32721 0.22563 0.6572 0.0
C1360 C 0.34065 0.23797 0.64988 0.0
C1361 C 0.35637 0.23576 0.64705 0.0
C1362 C 0.35873 0.22125 0.65156 0.0
C1363 C 0.34324 0.11942 0.64827 0.0
C1364 C 0.35812 0.12625 0.64075 0.0
C1365 C 0.34068 0.13211 0.65471 0.0
C1366 C 0.35314 0.15186 0.65386 0.0
C1367 C 0.36759 0.15873 0.64611 0.0
C1368 C 0.37005 0.14605 0.63961 0.0
C1369 C 0.35154 0.16534 0.66128 0.0
C1370 C 0.34972 0.18051 0.65716 0.0
C1371 C 0.35171 0.16323 0.67237 0.0
C1372 C 0.3548 0.14827 0.67726 0.0
C1373 C 0.3713 0.14693 0.67484 0.0
C1374 C 0.37404 0.1327 0.67941 0.0
C1375 C 0.36044 0.11981 0.68649 0.0
C1376 C 0.34411 0.12118 0.68904 0.0
C1377 C 0.3413 0.13537 0.68447 0.0
H1378 H 0.36259 0.1088 0.69002 0.0
H1379 H 0.33885 0.24922 0.64638 0.0
loop_
_geom_bond_atom_site_label_1
_geom_bond_atom_site_label_2
_geom_bond_distance
_geom_bond_site_symmetry_2
_ccdc_geom_bond_type
C0 C1 1.264 1_455 S
C0 C5 1.479 . S
C0 C10 1.465 . S
C1 C0 1.264 1_655 S
C1 C3 1.339 . S
C1 H28 0.931 . S
C2 C3 1.395 . S
C2 C4 1.320 . S
C3 C1 1.339 . S
C3 C2 1.395 . S
C3 H29 0.929 . S
C4 C2 1.320 . S
C4 C5 1.405 1_655 S
C4 H30 0.930 . S
C5 C0 1.479 . S
C5 C4 1.405 1_455 S
C5 H31 0.931 . S
U6 O7 2.454 . S
U6 O8 2.458 . S
U6 C9 2.984 . S
U6 C10 2.847 . S
U6 C23 2.882 . S
U6 O24 2.441 . S
U6 O25 2.420 . S
U6 O26 2.455 . S
U6 O27 2.449 . S
O7 U6 2.454 . S
O7 C9 1.353 . S
O8 U6 2.458 . S
O8 C9 1.286 . S
C9 U6 2.984 . S
C9 O7 1.353 . S
C9 O8 1.286 . S
C9 C11 1.363 . S
C10 C0 1.465 . S
C10 U6 2.847 . S
C10 O24 1.249 . S
C10 O25 1.202 . S
C11 C9 1.363 . S
C11 C13 1.408 . S
C11 C16 1.342 . S
C12 C13 1.310 . S
C12 C15 1.461 . S
C12 H32 0.932 . S
C13 C11 1.408 . S
C13 C12 1.310 . S
C13 H33 0.930 . S
C14 C15 1.474 . S
C14 C16 1.285 . S
C14 H34 0.929 . S
C15 C12 1.461 . S
C15 C14 1.474 . S
C16 C11 1.342 . S
C16 C14 1.285 . S
C16 H35 0.930 . S
C17 C20 1.424 1_455 S
C17 C22 1.245 . S
C17 C23 1.428 . S
C18 C21 1.260 . S
C18 C22 1.477 1_655 S
C18 H36 0.932 1_655 S
C19 C20 1.384 . S
C19 C21 1.479 . S
C19 H37 0.929 . S
C20 C17 1.424 1_655 S
C20 C19 1.384 . S
C20 H38 0.928 . S
C21 C18 1.260 . S
C21 C19 1.479 . S
C22 C17 1.245 . S
C22 C18 1.477 1_455 S
C22 H39 0.932 . S
C23 U6 2.882 . S
C23 C17 1.428 . S
C23 O26 1.301 . S
C23 O27 1.282 . S
O24 U6 2.441 . S
O24 C10 1.249 . S
O25 U6 2.420 . S
O25 C10 1.202 . S
O26 U6 2.455 . S
O26 C23 1.301 . S
O27 U6 2.449 . S
O27 C23 1.282 . S
H28 C1 0.931 . S
H29 C3 0.929 . S
H30 C4 0.930 . S
H31 C5 0.931 . S
H32 C12 0.932 . S
H33 C13 0.930 . S
H34 C14 0.929 . S
H35 C16 0.930 . S
H36 C18 0.932 1_455 S
H37 C19 0.929 . S
H38 C20 0.928 . S
H39 C22 0.932 . S
C40 C41 1.264 . S
C40 C45 1.478 1_565 S
C40 C50 1.465 1_565 S
C41 C40 1.264 . S
C41 C43 1.339 . S
C41 H68 0.931 . S
C42 C43 1.395 . S
C42 C44 1.320 . S
C43 C41 1.339 . S
C43 C42 1.395 . S
C43 H69 0.929 . S
C44 C42 1.320 . S
C44 C45 1.405 1_565 S
C44 H70 0.930 . S
C45 C40 1.478 1_545 S
C45 C44 1.405 1_545 S
C45 H71 0.931 . S
U46 O47 2.454 . S
U46 O48 2.458 . S
U46 C49 2.984 . S
U46 C50 2.847 . S
U46 C63 2.882 . S
U46 O64 2.441 . S
U46 O65 2.420 . S
U46 O66 2.455 . S
U46 O67 2.449 . S
O47 U46 2.454 . S
O47 C49 1.353 . S
O48 U46 2.458 . S
O48 C49 1.286 . S
C49 U46 2.984 . S
C49 O47 1.353 . S
C49 O48 1.286 . S
C49 C51 1.363 . S
C50 C40 1.465 1_545 S
C50 U46 2.847 . S
C50 O64 1.249 . S
C50 O65 1.202 . S
C51 C49 1.363 . S
C51 C53 1.408 . S
C51 C56 1.342 . S
C52 C53 1.310 . S
C52 C55 1.461 . S
C52 H72 0.932 . S
C53 C51 1.408 . S
C53 C52 1.310 . S
C53 H73 0.930 . S
C54 C55 1.474 . S
C54 C56 1.285 . S
C54 H74 0.929 . S
C55 C52 1.461 . S
C55 C54 1.474 . S
C56 C51 1.342 . S
C56 C54 1.285 . S
C56 H75 0.930 . S
C57 C60 1.410 1_545 S
C57 C62 1.256 . S
C57 C63 1.424 . S
C58 C61 1.260 . S
C58 C62 1.477 1_565 S
C58 H76 0.932 . S
C59 C60 1.384 . S
C59 C61 1.479 . S
C59 H77 0.929 . S
C60 C57 1.410 1_565 S
C60 C59 1.384 . S
C60 H78 0.928 . S
C61 C58 1.260 . S
C61 C59 1.479 . S
C62 C57 1.256 . S
C62 C58 1.477 1_545 S
C62 H79 0.932 . S
C63 U46 2.882 . S
C63 C57 1.424 . S
C63 O66 1.301 . S
C63 O67 1.282 . S
O64 U46 2.441 . S
O64 C50 1.249 . S
O65 U46 2.420 . S
O65 C50 1.202 . S
O66 U46 2.455 . S
O66 C63 1.301 . S
O67 U46 2.449 . S
O67 C63 1.282 . S
H68 C41 0.931 . S
H69 C43 0.929 . S
H70 C44 0.930 . S
H71 C45 0.931 . S
H72 C52 0.932 . S
H73 C53 0.930 . S
H74 C54 0.929 . S
H75 C56 0.930 . S
H76 C58 0.932 . S
H77 C59 0.929 . S
H78 C60 0.928 . S
H79 C62 0.932 . S
C80 C81 1.264 . S
C80 C85 1.479 . S
C80 C90 1.465 . S
C81 C80 1.264 . S
C81 C83 1.339 . S
C81 H108 0.931 . S
C82 C83 1.395 . S
C82 C84 1.320 . S
C83 C81 1.339 . S
C83 C82 1.395 . S
C83 H109 0.929 . S
C84 C82 1.320 . S
C84 C85 1.405 . S
C84 H110 0.930 . S
C85 C80 1.479 . S
C85 C84 1.405 . S
C85 H111 0.931 . S
U86 O87 2.454 . S
U86 O88 2.458 . S
U86 C89 2.984 . S
U86 C90 2.847 . S
U86 C103 2.882 . S
U86 O104 2.441 . S
U86 O105 2.420 . S
U86 O106 2.455 . S
U86 O107 2.449 . S
O87 U86 2.454 . S
O87 C89 1.353 . S
O88 U86 2.458 . S
O88 C89 1.286 . S
C89 U86 2.984 . S
C89 O87 1.353 . S
C89 O88 1.286 . S
C89 C91 1.363 . S
C90 C80 1.465 . S
C90 U86 2.847 . S
C90 O104 1.249 . S
C90 O105 1.202 . S
C91 C89 1.363 . S
C91 C93 1.408 . S
C91 C96 1.342 . S
C92 C93 1.310 . S
C92 C95 1.461 . S
C92 H112 0.932 . S
C93 C91 1.408 . S
C93 C92 1.310 . S
C93 H113 0.930 . S
C94 C95 1.474 . S
C94 C96 1.285 . S
C94 H114 0.929 . S
C95 C92 1.461 . S
C95 C94 1.474 . S
C96 C91 1.342 . S
C96 C94 1.285 . S
C96 H115 0.930 . S
C97 C100 1.424 . S
C97 C102 1.245 . S
C97 C103 1.428 . S
C98 C101 1.260 . S
C98 C102 1.477 . S
C98 H116 0.932 . S
C99 C100 1.384 . S
C99 C101 1.479 . S
C99 H117 0.929 . S
C100 C97 1.424 . S
C100 C99 1.384 . S
C100 H118 0.928 . S
C101 C98 1.260 . S
C101 C99 1.479 . S
C102 C97 1.245 . S
C102 C98 1.477 . S
C102 H119 0.932 . S
C103 U86 2.882 . S
C103 C97 1.428 . S
C103 O106 1.301 . S
C103 O107 1.282 . S
O104 U86 2.441 . S
O104 C90 1.249 . S
O105 U86 2.420 . S
O105 C90 1.202 . S
O106 U86 2.455 . S
O106 C103 1.301 . S
O107 U86 2.449 . S
O107 C103 1.282 . S
H108 C81 0.931 . S
H109 C83 0.929 . S
H110 C84 0.930 . S
H111 C85 0.931 . S
H112 C92 0.932 . S
H113 C93 0.930 . S
H114 C94 0.929 . S
H115 C96 0.930 . S
H116 C98 0.932 . S
H117 C99 0.929 . S
H118 C100 0.928 . S
H119 C102 0.932 . S
C120 C121 1.264 . S
C120 C125 1.477 . S
C120 C130 1.465 1_455 S
C121 C120 1.264 . S
C121 C123 1.339 . S
C121 H148 0.931 . S
C122 C123 1.395 . S
C122 C124 1.320 . S
C123 C121 1.339 . S
C123 C122 1.395 . S
C123 H149 0.929 . S
C124 C122 1.320 . S
C124 C125 1.404 . S
C124 H150 0.930 . S
C125 C120 1.477 . S
C125 C124 1.404 . S
C125 H151 0.933 1_455 S
U126 O127 2.454 . S
U126 O128 2.458 . S
U126 C129 2.984 . S
U126 C130 2.847 . S
U126 C143 2.882 . S
U126 O144 2.441 . S
U126 O145 2.420 . S
U126 O146 2.455 . S
U126 O147 2.449 . S
O127 U126 2.454 . S
O127 C129 1.353 . S
O128 U126 2.458 . S
O128 C129 1.286 . S
C129 U126 2.984 . S
C129 O127 1.353 . S
C129 O128 1.286 . S
C129 C131 1.363 . S
C130 C120 1.465 1_655 S
C130 U126 2.847 . S
C130 O144 1.249 . S
C130 O145 1.202 . S
C131 C129 1.363 . S
C131 C133 1.408 . S
C131 C136 1.342 . S
C132 C133 1.310 . S
C132 C135 1.461 . S
C132 H152 0.932 . S
C133 C131 1.408 . S
C133 C132 1.310 . S
C133 H153 0.930 . S
C134 C135 1.474 . S
C134 C136 1.285 . S
C134 H154 0.929 . S
C135 C132 1.461 . S
C135 C134 1.474 . S
C136 C131 1.342 . S
C136 C134 1.285 . S
C136 H155 0.930 . S
C137 C140 1.424 . S
C137 C142 1.245 . S
C137 C143 1.428 1_455 S
C138 C141 1.260 . S
C138 C142 1.477 . S
C138 H156 0.932 . S
C139 C140 1.384 . S
C139 C141 1.479 . S
C139 H157 0.929 . S
C140 C137 1.424 . S
C140 C139 1.384 . S
C140 H158 0.928 . S
C141 C138 1.260 . S
C141 C139 1.479 . S
C142 C137 1.245 . S
C142 C138 1.477 . S
C142 H159 0.931 1_455 S
C143 U126 2.882 . S
C143 C137 1.428 1_655 S
C143 O146 1.301 . S
C143 O147 1.282 . S
O144 U126 2.441 . S
O144 C130 1.249 . S
O145 U126 2.420 . S
O145 C130 1.202 . S
O146 U126 2.455 . S
O146 C143 1.301 . S
O147 U126 2.449 . S
O147 C143 1.282 . S
H148 C121 0.931 . S
H149 C123 0.929 . S
H150 C124 0.930 . S
H151 C125 0.933 1_655 S
H152 C132 0.932 . S
H153 C133 0.930 . S
H154 C134 0.929 . S
H155 C136 0.930 . S
H156 C138 0.932 . S
H157 C139 0.929 . S
H158 C140 0.928 . S
H159 C142 0.931 1_655 S
C160 C161 1.261 1_565 S
C160 C165 1.467 . S
C160 C170 1.484 . S
C161 C160 1.261 1_545 S
C161 C163 1.339 . S
C161 H188 0.931 . S
C162 C163 1.395 . S
C162 C164 1.320 . S
C163 C161 1.339 . S
C163 C162 1.395 . S
C163 H189 0.929 . S
C164 C162 1.320 . S
C164 C165 1.405 1_545 S
C164 H190 0.930 . S
C165 C160 1.467 . S
C165 C164 1.405 1_565 S
C165 H191 0.931 . S
U166 O167 2.454 . S
U166 O168 2.458 . S
U166 C169 2.984 . S
U166 C170 2.847 . S
U166 C183 2.882 . S
U166 O184 2.441 . S
U166 O185 2.420 . S
U166 O186 2.455 . S
U166 O187 2.449 . S
O167 U166 2.454 . S
O167 C169 1.353 . S
O168 U166 2.458 . S
O168 C169 1.286 . S
C169 U166 2.984 . S
C169 O167 1.353 . S
C169 O168 1.286 . S
C169 C171 1.363 . S
C170 C160 1.484 . S
C170 U166 2.847 . S
C170 O184 1.249 . S
C170 O185 1.202 . S
C171 C169 1.363 . S
C171 C173 1.408 . S
C171 C176 1.342 . S
C172 C173 1.310 . S
C172 C175 1.461 . S
C172 H192 0.932 . S
C173 C171 1.408 . S
C173 C172 1.310 . S
C173 H193 0.930 . S
C174 C175 1.474 . S
C174 C176 1.285 . S
C174 H194 0.929 . S
C175 C172 1.461 . S
C175 C174 1.474 . S
C176 C171 1.342 . S
C176 C174 1.285 . S
C176 H195 0.930 . S
C177 C180 1.424 1_565 S
C177 C182 1.245 . S
C177 C183 1.428 . S
C178 C181 1.260 . S
C178 C182 1.477 1_545 S
C178 H196 0.932 1_545 S
C179 C180 1.384 . S
C179 C181 1.479 . S
C179 H197 0.929 . S
C180 C177 1.424 1_545 S
C180 C179 1.384 . S
C180 H198 0.928 . S
C181 C178 1.260 . S
C181 C179 1.479 . S
C182 C177 1.245 . S
C182 C178 1.477 1_565 S
C182 H199 0.932 . S
C183 U166 2.882 . S
C183 C177 1.428 . S
C183 O186 1.301 . S
C183 O187 1.282 . S
O184 U166 2.441 . S
O184 C170 1.249 . S
O185 U166 2.420 . S
O185 C170 1.202 . S
O186 U166 2.455 . S
O186 C183 1.301 . S
O187 U166 2.449 . S
O187 C183 1.282 . S
H188 C161 0.931 . S
H189 C163 0.929 . S
H190 C164 0.930 . S
H191 C165 0.931 . S
H192 C172 0.932 . S
H193 C173 0.930 . S
H194 C174 0.929 . S
H195 C176 0.930 . S
H196 C178 0.932 1_565 S
H197 C179 0.929 . S
H198 C180 0.928 . S
H199 C182 0.932 . S
C200 C201 1.264 . S
C200 C205 1.479 . S
C200 C210 1.465 . S
C201 C200 1.264 . S
C201 C203 1.339 . S
C201 H228 0.931 . S
C202 C203 1.395 . S
C202 C204 1.320 . S
C203 C201 1.339 . S
C203 C202 1.395 . S
C203 H229 0.929 . S
C204 C202 1.320 . S
C204 C205 1.405 . S
C204 H230 0.930 . S
C205 C200 1.479 . S
C205 C204 1.405 . S
C205 H231 0.931 . S
U206 O207 2.454 . S
U206 O208 2.458 . S
U206 C209 2.984 . S
U206 C210 2.847 . S
U206 C223 2.882 . S
U206 O224 2.441 . S
U206 O225 2.420 . S
U206 O226 2.455 . S
U206 O227 2.449 . S
O207 U206 2.454 . S
O207 C209 1.353 . S
O208 U206 2.458 . S
O208 C209 1.286 . S
C209 U206 2.984 . S
C209 O207 1.353 . S
C209 O208 1.286 . S
C209 C211 1.363 . S
C210 C200 1.465 . S
C210 U206 2.847 . S
C210 O224 1.249 . S
C210 O225 1.202 . S
C211 C209 1.363 . S
C211 C213 1.408 . S
C211 C216 1.342 . S
C212 C213 1.310 . S
C212 C215 1.461 . S
C212 H232 0.932 . S
C213 C211 1.408 . S
C213 C212 1.310 . S
C213 H233 0.930 . S
C214 C215 1.474 . S
C214 C216 1.285 . S
C214 H234 0.929 . S
C215 C212 1.461 . S
C215 C214 1.474 . S
C216 C211 1.342 . S
C216 C214 1.285 . S
C216 H235 0.930 . S
C217 C220 1.424 . S
C217 C222 1.245 . S
C217 C223 1.428 . S
C218 C221 1.260 . S
C218 C222 1.477 . S
C218 H236 0.932 . S
C219 C220 1.384 . S
C219 C221 1.479 . S
C219 H237 0.929 . S
C220 C217 1.424 . S
C220 C219 1.384 . S
C220 H238 0.928 . S
C221 C218 1.260 . S
C221 C219 1.479 . S
C222 C217 1.245 . S
C222 C218 1.477 . S
C222 H239 0.932 . S
C223 U206 2.882 . S
C223 C217 1.428 . S
C223 O226 1.301 . S
C223 O227 1.282 . S
O224 U206 2.441 . S
O224 C210 1.249 . S
O225 U206 2.420 . S
O225 C210 1.202 . S
O226 U206 2.455 . S
O226 C223 1.301 . S
O227 U206 2.449 . S
O227 C223 1.282 . S
H228 C201 0.931 . S
H229 C203 0.929 . S
H230 C204 0.930 . S
H231 C205 0.931 . S
H232 C212 0.932 . S
H233 C213 0.930 . S
H234 C214 0.929 . S
H235 C216 0.930 . S
H236 C218 0.932 . S
H237 C219 0.929 . S
H238 C220 0.928 . S
H239 C222 0.932 . S
C240 C241 1.264 . S
C240 C245 1.459 1_545 S
C240 C250 1.465 1_545 S
C241 C240 1.264 . S
C241 C243 1.339 . S
C241 H268 0.931 . S
C242 C243 1.395 . S
C242 C244 1.320 . S
C243 C241 1.339 . S
C243 C242 1.395 . S
C243 H269 0.929 . S
C244 C242 1.320 . S
C244 C245 1.397 1_545 S
C244 H270 0.930 . S
C245 C240 1.459 1_565 S
C245 C244 1.397 1_565 S
C245 H271 0.958 . S
U246 O247 2.454 . S
U246 O248 2.458 . S
U246 C249 2.984 . S
U246 C250 2.847 . S
U246 C263 2.882 . S
U246 O264 2.441 . S
U246 O265 2.420 . S
U246 O266 2.455 . S
U246 O267 2.449 . S
O247 U246 2.454 . S
O247 C249 1.353 . S
O248 U246 2.458 . S
O248 C249 1.286 . S
C249 U246 2.984 . S
C249 O247 1.353 . S
C249 O248 1.286 . S
C249 C251 1.363 . S
C250 C240 1.465 1_565 S
C250 U246 2.847 . S
C250 O264 1.249 . S
C250 O265 1.202 . S
C251 C249 1.363 . S
C251 C253 1.408 . S
C251 C256 1.342 . S
C252 C253 1.310 . S
C252 C255 1.461 . S
C252 H272 0.932 . S
C253 C251 1.408 . S
C253 C252 1.310 . S
C253 H273 0.930 . S
C254 C255 1.474 . S
C254 C256 1.285 . S
C254 H274 0.929 . S
C255 C252 1.461 . S
C255 C254 1.474 . S
C256 C251 1.342 . S
C256 C254 1.285 . S
C256 H275 0.930 . S
C257 C260 1.424 . S
C257 C262 1.245 . S
C257 C263 1.428 1_545 S
C258 C261 1.260 . S
C258 C262 1.478 . S
C258 H276 0.932 . S
C259 C260 1.384 . S
C259 C261 1.479 . S
C259 H277 0.929 . S
C260 C257 1.424 . S
C260 C259 1.384 . S
C260 H278 0.928 . S
C261 C258 1.260 . S
C261 C259 1.479 . S
C262 C257 1.245 . S
C262 C258 1.478 . S
C262 H279 0.931 1_545 S
C263 U246 2.882 . S
C263 C257 1.428 1_565 S
C263 O266 1.301 . S
C263 O267 1.282 . S
O264 U246 2.441 . S
O264 C250 1.249 . S
O265 U246 2.420 . S
O265 C250 1.202 . S
O266 U246 2.455 . S
O266 C263 1.301 . S
O267 U246 2.449 . S
O267 C263 1.282 . S
H268 C241 0.931 . S
H269 C243 0.929 . S
H270 C244 0.930 . S
H271 C245 0.958 . S
H272 C252 0.932 . S
H273 C253 0.930 . S
H274 C254 0.929 . S
H275 C256 0.930 . S
H276 C258 0.932 . S
H277 C259 0.929 . S
H278 C260 0.928 . S
H279 C262 0.931 1_565 S
C280 C281 1.264 . S
C280 C285 1.479 . S
C280 C290 1.465 . S
C281 C280 1.264 . S
C281 C283 1.339 . S
C281 H308 0.931 . S
C282 C283 1.395 . S
C282 C284 1.320 . S
C283 C281 1.339 . S
C283 C282 1.395 . S
C283 H309 0.929 . S
C284 C282 1.320 . S
C284 C285 1.405 . S
C284 H310 0.930 . S
C285 C280 1.479 . S
C285 C284 1.405 . S
C285 H311 0.931 . S
U286 O287 2.454 . S
U286 O288 2.458 . S
U286 C289 2.984 . S
U286 C290 2.847 . S
U286 C303 2.882 . S
U286 O304 2.441 . S
U286 O305 2.420 . S
U286 O306 2.455 . S
U286 O307 2.449 . S
O287 U286 2.454 . S
O287 C289 1.353 . S
O288 U286 2.458 . S
O288 C289 1.286 . S
C289 U286 2.984 . S
C289 O287 1.353 . S
C289 O288 1.286 . S
C289 C291 1.363 . S
C290 C280 1.465 . S
C290 U286 2.847 . S
C290 O304 1.249 . S
C290 O305 1.202 . S
C291 C289 1.363 . S
C291 C293 1.408 . S
C291 C296 1.342 . S
C292 C293 1.310 . S
C292 C295 1.461 . S
C292 H312 0.932 . S
C293 C291 1.408 . S
C293 C292 1.310 . S
C293 H313 0.930 . S
C294 C295 1.474 . S
C294 C296 1.285 . S
C294 H314 0.929 . S
C295 C292 1.461 . S
C295 C294 1.474 . S
C296 C291 1.342 . S
C296 C294 1.285 . S
C296 H315 0.930 . S
C297 C300 1.424 . S
C297 C302 1.245 . S
C297 C303 1.428 . S
C298 C301 1.260 . S
C298 C302 1.477 . S
C298 H316 0.932 . S
C299 C300 1.384 . S
C299 C301 1.479 . S
C299 H317 0.929 . S
C300 C297 1.424 . S
C300 C299 1.384 . S
C300 H318 0.928 . S
C301 C298 1.260 . S
C301 C299 1.479 . S
C302 C297 1.245 . S
C302 C298 1.477 . S
C302 H319 0.932 . S
C303 U286 2.882 . S
C303 C297 1.428 . S
C303 O306 1.301 . S
C303 O307 1.282 . S
O304 U286 2.441 . S
O304 C290 1.249 . S
O305 U286 2.420 . S
O305 C290 1.202 . S
O306 U286 2.455 . S
O306 C303 1.301 . S
O307 U286 2.449 . S
O307 C303 1.282 . S
H308 C281 0.931 . S
H309 C283 0.929 . S
H310 C284 0.930 . S
H311 C285 0.931 . S
H312 C292 0.932 . S
H313 C293 0.930 . S
H314 C294 0.929 . S
H315 C296 0.930 . S
H316 C298 0.932 . S
H317 C299 0.929 . S
H318 C300 0.928 . S
H319 C302 0.932 . S
C320 C321 1.264 . S
C320 C325 1.479 . S
C320 C330 1.465 . S
C321 C320 1.264 . S
C321 C323 1.339 . S
C321 H348 0.931 . S
C322 C323 1.395 . S
C322 C324 1.320 . S
C323 C321 1.339 . S
C323 C322 1.395 . S
C323 H349 0.929 . S
C324 C322 1.320 . S
C324 C325 1.405 . S
C324 H350 0.930 . S
C325 C320 1.479 . S
C325 C324 1.405 . S
C325 H351 0.931 . S
U326 O327 2.427 1_655 S
U326 O328 2.452 1_655 S
U326 C329 2.968 1_655 S
U326 C330 2.833 . S
U326 C343 2.911 . S
U326 O344 2.417 . S
U326 O345 2.422 . S
U326 O346 2.483 . S
U326 O347 2.478 . S
O327 U326 2.427 1_455 S
O327 C329 1.353 . S
O328 U326 2.452 1_455 S
O328 C329 1.286 . S
C329 U326 2.968 1_455 S
C329 O327 1.353 . S
C329 O328 1.286 . S
C329 C331 1.363 . S
C330 C320 1.465 . S
C330 U326 2.833 . S
C330 O344 1.249 . S
C330 O345 1.202 . S
C331 C329 1.363 . S
C331 C333 1.408 . S
C331 C336 1.342 . S
C332 C333 1.310 . S
C332 C335 1.461 . S
C332 H352 0.932 . S
C333 C331 1.408 . S
C333 C332 1.310 . S
C333 H353 0.930 . S
C334 C335 1.474 . S
C334 C336 1.285 . S
C334 H354 0.929 . S
C335 C332 1.461 . S
C335 C334 1.474 . S
C336 C331 1.342 . S
C336 C334 1.285 . S
C336 H355 0.930 . S
C337 C340 1.424 . S
C337 C342 1.245 . S
C337 C343 1.428 . S
C338 C341 1.260 . S
C338 C342 1.477 . S
C338 H356 0.932 . S
C339 C340 1.384 . S
C339 C341 1.479 . S
C339 H357 0.929 . S
C340 C337 1.424 . S
C340 C339 1.384 . S
C340 H358 0.928 . S
C341 C338 1.260 . S
C341 C339 1.479 . S
C342 C337 1.245 . S
C342 C338 1.477 . S
C342 H359 0.932 . S
C343 U326 2.911 . S
C343 C337 1.428 . S
C343 O346 1.301 . S
C343 O347 1.282 . S
O344 U326 2.417 . S
O344 C330 1.249 . S
O345 U326 2.422 . S
O345 C330 1.202 . S
O346 U326 2.483 . S
O346 C343 1.301 . S
O347 U326 2.478 . S
O347 C343 1.282 . S
H348 C321 0.931 . S
H349 C323 0.929 . S
H350 C324 0.930 . S
H351 C325 0.931 . S
H352 C332 0.932 . S
H353 C333 0.930 . S
H354 C334 0.929 . S
H355 C336 0.930 . S
H356 C338 0.932 . S
H357 C339 0.929 . S
H358 C340 0.928 . S
H359 C342 0.932 . S
C360 C361 1.264 1_545 S
C360 C365 1.479 . S
C360 C370 1.465 . S
C361 C360 1.264 1_565 S
C361 C363 1.339 . S
C361 H388 0.931 . S
C362 C363 1.395 . S
C362 C364 1.320 . S
C363 C361 1.339 . S
C363 C362 1.395 . S
C363 H389 0.929 . S
C364 C362 1.320 . S
C364 C365 1.405 1_565 S
C364 H390 0.930 . S
C365 C360 1.479 . S
C365 C364 1.405 1_545 S
C365 H391 0.931 . S
U366 O367 2.454 . S
U366 O368 2.458 . S
U366 C369 2.984 . S
U366 C370 2.847 . S
U366 C383 2.882 . S
U366 O384 2.441 . S
U366 O385 2.420 . S
U366 O386 2.455 . S
U366 O387 2.449 . S
O367 U366 2.454 . S
O367 C369 1.353 . S
O368 U366 2.458 . S
O368 C369 1.286 . S
C369 U366 2.984 . S
C369 O367 1.353 . S
C369 O368 1.286 . S
C369 C371 1.363 . S
C370 C360 1.465 . S
C370 U366 2.847 . S
C370 O384 1.249 . S
C370 O385 1.202 . S
C371 C369 1.363 . S
C371 C373 1.408 . S
C371 C376 1.342 . S
C372 C373 1.310 . S
C372 C375 1.461 . S
C372 H392 0.932 . S
C373 C371 1.408 . S
C373 C372 1.310 . S
C373 H393 0.930 . S
C374 C375 1.474 . S
C374 C376 1.285 . S
C374 H394 0.929 . S
C375 C372 1.461 . S
C375 C374 1.474 . S
C376 C371 1.342 . S
C376 C374 1.285 . S
C376 H395 0.930 . S
C377 C380 1.424 1_545 S
C377 C382 1.245 . S
C377 C383 1.428 . S
C378 C381 1.278 . S
C378 C382 1.461 1_565 S
C378 H396 0.931 1_565 S
C379 C380 1.384 . S
C379 C381 1.479 . S
C379 H397 0.929 . S
C380 C377 1.424 1_565 S
C380 C379 1.384 . S
C380 H398 0.928 . S
C381 C378 1.278 . S
C381 C379 1.479 . S
C382 C377 1.245 . S
C382 C378 1.461 1_545 S
C382 H399 0.932 . S
C383 U366 2.882 . S
C383 C377 1.428 . S
C383 O386 1.301 . S
C383 O387 1.282 . S
O384 U366 2.441 . S
O384 C370 1.249 . S
O385 U366 2.420 . S
O385 C370 1.202 . S
O386 U366 2.455 . S
O386 C383 1.301 . S
O387 U366 2.449 . S
O387 C383 1.282 . S
H388 C361 0.931 . S
H389 C363 0.929 . S
H390 C364 0.930 . S
H391 C365 0.931 . S
H392 C372 0.932 . S
H393 C373 0.930 . S
H394 C374 0.929 . S
H395 C376 0.930 . S
H396 C378 0.931 1_545 S
H397 C379 0.929 . S
H398 C380 0.928 . S
H399 C382 0.932 . S
C400 C401 1.264 . S
C400 C405 1.479 . S
C400 C410 1.465 . S
C401 C400 1.264 . S
C401 C403 1.339 . S
C401 H428 0.931 . S
C402 C403 1.395 . S
C402 C404 1.320 . S
C403 C401 1.339 . S
C403 C402 1.395 . S
C403 H429 0.929 . S
C404 C402 1.320 . S
C404 C405 1.405 . S
C404 H430 0.930 . S
C405 C400 1.479 . S
C405 C404 1.405 . S
C405 H431 0.931 . S
U406 O407 2.454 . S
U406 O408 2.458 . S
U406 C409 2.984 . S
U406 C410 2.847 . S
U406 C423 2.882 . S
U406 O424 2.441 . S
U406 O425 2.420 . S
U406 O426 2.455 . S
U406 O427 2.449 . S
O407 U406 2.454 . S
O407 C409 1.353 . S
O408 U406 2.458 . S
O408 C409 1.286 . S
C409 U406 2.984 . S
C409 O407 1.353 . S
C409 O408 1.286 . S
C409 C411 1.363 . S
C410 C400 1.465 . S
C410 U406 2.847 . S
C410 O424 1.249 . S
C410 O425 1.202 . S
C411 C409 1.363 . S
C411 C413 1.408 . S
C411 C416 1.342 . S
C412 C413 1.310 . S
C412 C415 1.461 . S
C412 H432 0.932 . S
C413 C411 1.408 . S
C413 C412 1.310 . S
C413 H433 0.930 . S
C414 C415 1.474 . S
C414 C416 1.285 . S
C414 H434 0.929 . S
C415 C412 1.461 . S
C415 C414 1.474 . S
C416 C411 1.342 . S
C416 C414 1.285 . S
C416 H435 0.930 . S
C417 C420 1.424 . S
C417 C422 1.245 . S
C417 C423 1.428 . S
C418 C421 1.260 . S
C418 C422 1.477 . S
C418 H436 0.932 . S
C419 C420 1.384 . S
C419 C421 1.479 . S
C419 H437 0.929 . S
C420 C417 1.424 . S
C420 C419 1.384 . S
C420 H438 0.928 . S
C421 C418 1.260 . S
C421 C419 1.479 . S
C422 C417 1.245 . S
C422 C418 1.477 . S
C422 H439 0.932 . S
C423 U406 2.882 . S
C423 C417 1.428 . S
C423 O426 1.301 . S
C423 O427 1.282 . S
O424 U406 2.441 . S
O424 C410 1.249 . S
O425 U406 2.420 . S
O425 C410 1.202 . S
O426 U406 2.455 . S
O426 C423 1.301 . S
O427 U406 2.449 . S
O427 C423 1.282 . S
H428 C401 0.931 . S
H429 C403 0.929 . S
H430 C404 0.930 . S
H431 C405 0.931 . S
H432 C412 0.932 . S
H433 C413 0.930 . S
H434 C414 0.929 . S
H435 C416 0.930 . S
H436 C418 0.932 . S
H437 C419 0.929 . S
H438 C420 0.928 . S
H439 C422 0.932 . S
C440 C441 1.264 . S
C440 C445 1.479 1_455 S
C440 C450 1.465 1_455 S
C441 C440 1.264 . S
C441 C443 1.339 . S
C441 H468 0.931 . S
C442 C443 1.395 . S
C442 C444 1.320 . S
C443 C441 1.339 . S
C443 C442 1.395 . S
C443 H469 0.929 . S
C444 C442 1.320 . S
C444 C445 1.405 1_455 S
C444 H470 0.930 . S
C445 C440 1.479 1_655 S
C445 C444 1.405 1_655 S
C445 H471 0.931 . S
U446 O447 2.454 . S
U446 O448 2.458 . S
U446 C449 2.984 . S
U446 C450 2.847 . S
U446 C463 2.882 . S
U446 O464 2.441 . S
U446 O465 2.420 . S
U446 O466 2.455 . S
U446 O467 2.449 . S
O447 U446 2.454 . S
O447 C449 1.353 . S
O448 U446 2.458 . S
O448 C449 1.286 . S
C449 U446 2.984 . S
C449 O447 1.353 . S
C449 O448 1.286 . S
C449 C451 1.363 . S
C450 C440 1.465 1_655 S
C450 U446 2.847 . S
C450 O464 1.249 . S
C450 O465 1.202 . S
C451 C449 1.363 . S
C451 C453 1.408 . S
C451 C456 1.342 . S
C452 C453 1.310 . S
C452 C455 1.461 . S
C452 H472 0.932 . S
C453 C451 1.408 . S
C453 C452 1.310 . S
C453 H473 0.930 . S
C454 C455 1.474 . S
C454 C456 1.285 . S
C454 H474 0.929 . S
C455 C452 1.461 . S
C455 C454 1.474 . S
C456 C451 1.342 . S
C456 C454 1.285 . S
C456 H475 0.930 . S
C457 C460 1.416 1_655 S
C457 C462 1.251 . S
C457 C463 1.425 . S
C458 C461 1.260 . S
C458 C462 1.477 1_455 S
C458 H476 0.932 . S
C459 C460 1.384 . S
C459 C461 1.479 . S
C459 H477 0.929 . S
C460 C457 1.416 1_455 S
C460 C459 1.384 . S
C460 H478 0.928 . S
C461 C458 1.260 . S
C461 C459 1.479 . S
C462 C457 1.251 . S
C462 C458 1.477 1_655 S
C462 H479 0.932 . S
C463 U446 2.882 . S
C463 C457 1.425 . S
C463 O466 1.301 . S
C463 O467 1.282 . S
O464 U446 2.441 . S
O464 C450 1.249 . S
O465 U446 2.420 . S
O465 C450 1.202 . S
O466 U446 2.455 . S
O466 C463 1.301 . S
O467 U446 2.449 . S
O467 C463 1.282 . S
H468 C441 0.931 . S
H469 C443 0.929 . S
H470 C444 0.930 . S
H471 C445 0.931 . S
H472 C452 0.932 . S
H473 C453 0.930 . S
H474 C454 0.929 . S
H475 C456 0.930 . S
H476 C458 0.932 . S
H477 C459 0.929 . S
H478 C460 0.928 . S
H479 C462 0.932 . S
H480 C498 0.951 . S
H481 C500 0.951 . S
H482 C502 0.950 1_655 S
H483 C503 0.950 . S
H484 C505 0.950 . S
H485 C508 0.950 . S
H486 C509 0.950 . S
H487 C511 0.950 . S
H488 C512 0.950 . S
H489 C513 0.951 . S
H490 C515 0.951 . S
H491 C517 0.950 . S
H492 C518 0.950 1_455 S
H493 C520 0.950 . S
H494 C523 0.950 . S
H495 C524 0.950 . S
H496 C526 0.950 . S
H497 C527 0.950 . S
C498 H480 0.951 . S
C498 C499 1.366 . S
C498 C500 1.388 . S
C499 C498 1.366 . S
C499 C503 1.385 . S
C500 H481 0.951 . S
C500 C498 1.388 . S
C500 C501 1.366 . S
C501 C500 1.366 . S
C501 C502 1.414 . S
C501 C504 1.499 . S
C502 H482 0.950 1_455 S
C502 C501 1.414 . S
C502 C503 1.374 . S
C503 H483 0.950 . S
C503 C499 1.385 . S
C503 C502 1.374 . S
C504 C501 1.499 . S
C504 C505 1.373 1_455 S
C504 C506 1.389 . S
C505 H484 0.950 . S
C505 C504 1.373 1_655 S
C505 C521 1.377 . S
C506 C504 1.389 . S
C506 C507 1.524 . S
C506 C520 1.377 . S
C507 C506 1.524 . S
C507 C508 1.397 . S
C507 C512 1.363 . S
C508 H485 0.950 . S
C508 C507 1.397 . S
C508 C509 1.334 . S
C509 H486 0.950 . S
C509 C508 1.334 . S
C509 C510 1.287 . S
C510 C509 1.287 . S
C510 C511 1.524 . S
C510 H529 0.913 . S
C511 H487 0.950 . S
C511 C510 1.524 . S
C511 C512 1.415 . S
C512 H488 0.950 . S
C512 C507 1.363 . S
C512 C511 1.415 . S
C513 H489 0.951 . S
C513 C514 1.366 . S
C513 C515 1.388 . S
C514 C513 1.366 . S
C514 C518 1.385 . S
C515 H490 0.951 . S
C515 C513 1.388 . S
C515 C516 1.366 . S
C516 C515 1.366 . S
C516 C517 1.414 1_655 S
C516 C519 1.499 . S
C517 H491 0.950 . S
C517 C516 1.414 1_455 S
C517 C518 1.374 1_455 S
C518 H492 0.950 1_655 S
C518 C514 1.385 . S
C518 C517 1.374 1_655 S
C519 C516 1.499 . S
C519 C520 1.373 1_655 S
C519 C521 1.389 . S
C520 H493 0.950 . S
C520 C506 1.377 . S
C520 C519 1.373 1_455 S
C521 C505 1.377 . S
C521 C519 1.389 . S
C521 C522 1.524 . S
C522 C521 1.524 . S
C522 C523 1.397 . S
C522 C527 1.363 . S
C523 H494 0.950 . S
C523 C522 1.397 . S
C523 C524 1.334 . S
C524 H495 0.950 . S
C524 C523 1.334 . S
C524 C525 1.287 . S
C525 C524 1.287 . S
C525 C526 1.524 . S
C525 H528 0.999 . S
C526 H496 0.950 . S
C526 C525 1.524 . S
C526 C527 1.415 . S
C527 H497 0.950 . S
C527 C522 1.363 . S
C527 C526 1.415 . S
H528 C525 0.999 . S
H529 C510 0.913 . S
H530 C548 0.951 . S
H531 C550 0.951 . S
H532 C552 0.950 . S
H533 C553 0.950 . S
H534 C555 0.950 . S
H535 C558 0.950 . S
H536 C559 0.950 . S
H537 C561 0.950 . S
H538 C562 0.950 . S
H539 C563 0.951 . S
H540 C565 0.955 . S
H541 C567 0.950 . S
H542 C568 0.950 . S
H543 C570 0.950 . S
H544 C573 0.950 . S
H545 C574 0.950 . S
H546 C576 0.950 . S
H547 C577 0.950 . S
C548 H530 0.951 . S
C548 C549 1.366 . S
C548 C550 1.388 . S
C549 C548 1.366 . S
C549 C553 1.385 . S
C550 H531 0.951 . S
C550 C548 1.388 . S
C550 C551 1.366 . S
C551 C550 1.366 . S
C551 C552 1.414 . S
C551 C554 1.499 . S
C552 H532 0.950 . S
C552 C551 1.414 . S
C552 C553 1.374 . S
C553 H533 0.950 . S
C553 C549 1.385 . S
C553 C552 1.374 . S
C554 C551 1.499 . S
C554 C555 1.373 1_565 S
C554 C556 1.389 . S
C555 H534 0.950 . S
C555 C554 1.373 1_545 S
C555 C571 1.377 . S
C556 C554 1.389 . S
C556 C557 1.524 . S
C556 C570 1.377 . S
C557 C556 1.524 . S
C557 C558 1.397 . S
C557 C562 1.363 . S
C558 H535 0.950 . S
C558 C557 1.397 . S
C558 C559 1.334 . S
C559 H536 0.950 . S
C559 C558 1.334 . S
C559 C560 1.287 . S
C560 C559 1.287 . S
C560 C561 1.524 . S
C560 H579 0.913 . S
C561 H537 0.950 . S
C561 C560 1.524 . S
C561 C562 1.415 . S
C562 H538 0.950 . S
C562 C557 1.363 . S
C562 C561 1.415 . S
C563 H539 0.951 . S
C563 C564 1.366 . S
C563 C565 1.388 . S
C564 C563 1.366 . S
C564 C568 1.385 . S
C565 H540 0.955 . S
C565 C563 1.388 . S
C565 C566 1.366 . S
C566 C565 1.366 . S
C566 C567 1.414 . S
C566 C569 1.499 . S
C567 H541 0.950 . S
C567 C566 1.414 . S
C567 C568 1.374 . S
C568 H542 0.950 . S
C568 C564 1.385 . S
C568 C567 1.374 . S
C569 C566 1.499 . S
C569 C570 1.373 1_545 S
C569 C571 1.389 . S
C570 H543 0.950 . S
C570 C556 1.377 . S
C570 C569 1.373 1_565 S
C571 C555 1.377 . S
C571 C569 1.389 . S
C571 C572 1.524 . S
C572 C571 1.524 . S
C572 C573 1.397 . S
C572 C577 1.363 . S
C573 H544 0.950 . S
C573 C572 1.397 . S
C573 C574 1.334 . S
C574 H545 0.950 . S
C574 C573 1.334 . S
C574 C575 1.287 . S
C575 C574 1.287 . S
C575 C576 1.524 . S
C575 H578 0.999 . S
C576 H546 0.950 . S
C576 C575 1.524 . S
C576 C577 1.415 . S
C577 H547 0.950 . S
C577 C572 1.363 . S
C577 C576 1.415 . S
H578 C575 0.999 . S
H579 C560 0.913 . S
H580 C598 0.951 . S
H581 C600 0.951 . S
H582 C602 0.950 . S
H583 C603 0.950 . S
H584 C605 0.950 . S
H585 C608 0.950 . S
H586 C609 0.950 . S
H587 C611 0.950 . S
H588 C612 0.950 . S
H589 C613 0.951 . S
H590 C615 0.951 . S
H591 C617 0.950 . S
H592 C618 0.950 . S
H593 C620 0.950 . S
H594 C623 0.950 . S
H595 C624 0.950 . S
H596 C626 0.950 . S
H597 C627 0.950 . S
C598 H580 0.951 . S
C598 C599 1.366 . S
C598 C600 1.388 . S
C599 C598 1.366 . S
C599 C603 1.385 . S
C600 H581 0.951 . S
C600 C598 1.388 . S
C600 C601 1.366 . S
C601 C600 1.366 . S
C601 C602 1.414 . S
C601 C604 1.499 . S
C602 H582 0.950 . S
C602 C601 1.414 . S
C602 C603 1.374 . S
C603 H583 0.950 . S
C603 C599 1.385 . S
C603 C602 1.374 . S
C604 C601 1.499 . S
C604 C605 1.373 . S
C604 C606 1.389 . S
C605 H584 0.950 . S
C605 C604 1.373 . S
C605 C621 1.377 . S
C606 C604 1.389 . S
C606 C607 1.524 . S
C606 C620 1.377 . S
C607 C606 1.524 . S
C607 C608 1.397 . S
C607 C612 1.363 . S
C608 H585 0.950 . S
C608 C607 1.397 . S
C608 C609 1.334 . S
C609 H586 0.950 . S
C609 C608 1.334 . S
C609 C610 1.287 . S
C610 C609 1.287 . S
C610 C611 1.524 . S
C610 H629 0.913 . S
C611 H587 0.950 . S
C611 C610 1.524 . S
C611 C612 1.415 . S
C612 H588 0.950 . S
C612 C607 1.363 . S
C612 C611 1.415 . S
C613 H589 0.951 . S
C613 C614 1.366 . S
C613 C615 1.388 . S
C614 C613 1.366 . S
C614 C618 1.385 . S
C615 H590 0.951 . S
C615 C613 1.388 . S
C615 C616 1.366 . S
C616 C615 1.366 . S
C616 C617 1.414 . S
C616 C619 1.499 . S
C617 H591 0.950 . S
C617 C616 1.414 . S
C617 C618 1.374 . S
C618 H592 0.950 . S
C618 C614 1.385 . S
C618 C617 1.374 . S
C619 C616 1.499 . S
C619 C620 1.373 . S
C619 C621 1.389 . S
C620 H593 0.950 . S
C620 C606 1.377 . S
C620 C619 1.373 . S
C621 C605 1.377 . S
C621 C619 1.389 . S
C621 C622 1.524 . S
C622 C621 1.524 . S
C622 C623 1.397 . S
C622 C627 1.363 . S
C623 H594 0.950 . S
C623 C622 1.397 . S
C623 C624 1.334 . S
C624 H595 0.950 . S
C624 C623 1.334 . S
C624 C625 1.287 . S
C625 C624 1.287 . S
C625 C626 1.524 . S
C625 H628 0.999 . S
C626 H596 0.950 . S
C626 C625 1.524 . S
C626 C627 1.415 . S
C627 H597 0.950 . S
C627 C622 1.363 . S
C627 C626 1.415 . S
H628 C625 0.999 . S
H629 C610 0.913 . S
H630 C648 0.951 1_565 S
H631 C650 0.951 . S
H632 C652 0.950 . S
H633 C653 0.950 . S
H634 C655 0.950 . S
H635 C658 0.950 1_545 S
H636 C659 0.950 . S
H637 C661 0.950 . S
H638 C662 0.950 . S
H639 C663 0.951 . S
H640 C665 0.951 . S
H641 C667 0.950 . S
H642 C668 0.950 . S
H643 C670 0.950 . S
H644 C673 0.950 . S
H645 C674 0.950 . S
H646 C676 0.950 . S
H647 C677 0.950 . S
C648 H630 0.951 1_545 S
C648 C649 1.366 . S
C648 C650 1.388 1_545 S
C649 C648 1.366 . S
C649 C653 1.385 . S
C650 H631 0.951 . S
C650 C648 1.388 1_565 S
C650 C651 1.366 1_565 S
C651 C650 1.366 1_545 S
C651 C652 1.414 . S
C651 C654 1.499 . S
C652 H632 0.950 . S
C652 C651 1.414 . S
C652 C653 1.374 . S
C653 H633 0.950 . S
C653 C649 1.385 . S
C653 C652 1.374 . S
C654 C651 1.499 . S
C654 C655 1.373 . S
C654 C656 1.389 1_545 S
C655 H634 0.950 . S
C655 C654 1.373 . S
C655 C671 1.377 . S
C656 C654 1.389 1_565 S
C656 C657 1.524 . S
C656 C670 1.377 . S
C657 C656 1.524 . S
C657 C658 1.397 . S
C657 C662 1.363 . S
C658 H635 0.950 1_565 S
C658 C657 1.397 . S
C658 C659 1.334 . S
C659 H636 0.950 . S
C659 C658 1.334 . S
C659 C660 1.287 . S
C660 C659 1.287 . S
C660 C661 1.524 . S
C660 H679 0.913 . S
C661 H637 0.950 . S
C661 C660 1.524 . S
C661 C662 1.415 . S
C662 H638 0.950 . S
C662 C657 1.363 . S
C662 C661 1.415 . S
C663 H639 0.951 . S
C663 C664 1.366 1_545 S
C663 C665 1.388 . S
C664 C663 1.366 1_565 S
C664 C668 1.385 . S
C665 H640 0.951 . S
C665 C663 1.388 . S
C665 C666 1.366 1_545 S
C666 C665 1.366 1_565 S
C666 C667 1.414 . S
C666 C669 1.491 . S
C667 H641 0.950 . S
C667 C666 1.414 . S
C667 C668 1.374 . S
C668 H642 0.950 . S
C668 C664 1.385 . S
C668 C667 1.374 . S
C669 C666 1.491 . S
C669 C670 1.392 . S
C669 C671 1.378 1_565 S
C670 H643 0.950 . S
C670 C656 1.377 . S
C670 C669 1.392 . S
C671 C655 1.377 . S
C671 C669 1.378 1_545 S
C671 C672 1.524 . S
C672 C671 1.524 . S
C672 C673 1.397 . S
C672 C677 1.363 . S
C673 H644 0.950 . S
C673 C672 1.397 . S
C673 C674 1.334 . S
C674 H645 0.950 . S
C674 C673 1.334 . S
C674 C675 1.287 . S
C675 C674 1.287 . S
C675 C676 1.524 . S
C675 H678 0.999 . S
C676 H646 0.950 . S
C676 C675 1.524 . S
C676 C677 1.415 . S
C677 H647 0.950 . S
C677 C672 1.363 . S
C677 C676 1.415 . S
H678 C675 0.999 . S
H679 C660 0.913 . S
H680 C698 0.951 . S
H681 C700 0.951 . S
H682 C702 0.950 . S
H683 C703 0.950 . S
H684 C705 0.950 . S
H685 C708 0.950 . S
H686 C709 0.950 . S
H687 C711 0.950 . S
H688 C712 0.950 . S
H689 C713 0.951 . S
H690 C715 0.951 . S
H691 C717 0.950 . S
H692 C718 0.950 . S
H693 C720 0.950 . S
H694 C723 0.950 . S
H695 C724 0.950 . S
H696 C726 0.950 . S
H697 C727 0.950 . S
C698 H680 0.951 . S
C698 C699 1.366 . S
C698 C700 1.388 . S
C699 C698 1.366 . S
C699 C703 1.385 . S
C700 H681 0.951 . S
C700 C698 1.388 . S
C700 C701 1.366 . S
C701 C700 1.366 . S
C701 C702 1.414 . S
C701 C704 1.499 . S
C702 H682 0.950 . S
C702 C701 1.414 . S
C702 C703 1.374 . S
C703 H683 0.950 . S
C703 C699 1.385 . S
C703 C702 1.374 . S
C704 C701 1.499 . S
C704 C705 1.373 . S
C704 C706 1.389 . S
C705 H684 0.950 . S
C705 C704 1.373 . S
C705 C721 1.377 . S
C706 C704 1.389 . S
C706 C707 1.524 . S
C706 C720 1.377 . S
C707 C706 1.524 . S
C707 C708 1.397 . S
C707 C712 1.363 . S
C708 H685 0.950 . S
C708 C707 1.397 . S
C708 C709 1.334 . S
C709 H686 0.950 . S
C709 C708 1.334 . S
C709 C710 1.287 . S
C710 C709 1.287 . S
C710 C711 1.524 . S
C710 H729 0.913 . S
C711 H687 0.950 . S
C711 C710 1.524 . S
C711 C712 1.415 . S
C712 H688 0.950 . S
C712 C707 1.363 . S
C712 C711 1.415 . S
C713 H689 0.951 . S
C713 C714 1.366 . S
C713 C715 1.388 . S
C714 C713 1.366 . S
C714 C718 1.385 . S
C715 H690 0.951 . S
C715 C713 1.388 . S
C715 C716 1.366 . S
C716 C715 1.366 . S
C716 C717 1.414 . S
C716 C719 1.499 . S
C717 H691 0.950 . S
C717 C716 1.414 . S
C717 C718 1.374 . S
C718 H692 0.950 . S
C718 C714 1.385 . S
C718 C717 1.374 . S
C719 C716 1.499 . S
C719 C720 1.373 . S
C719 C721 1.389 . S
C720 H693 0.950 . S
C720 C706 1.377 . S
C720 C719 1.373 . S
C721 C705 1.377 . S
C721 C719 1.389 . S
C721 C722 1.524 . S
C722 C721 1.524 . S
C722 C723 1.397 . S
C722 C727 1.363 . S
C723 H694 0.950 . S
C723 C722 1.397 . S
C723 C724 1.334 . S
C724 H695 0.950 . S
C724 C723 1.334 . S
C724 C725 1.287 . S
C725 C724 1.287 . S
C725 C726 1.524 . S
C725 H728 0.999 . S
C726 H696 0.950 . S
C726 C725 1.524 . S
C726 C727 1.415 . S
C727 H697 0.950 . S
C727 C722 1.363 . S
C727 C726 1.415 . S
H728 C725 0.999 . S
H729 C710 0.913 . S
H730 C748 0.951 . S
H731 C750 0.951 . S
H732 C752 0.950 . S
H733 C753 0.950 . S
H734 C755 0.950 . S
H735 C758 0.950 . S
H736 C759 0.950 . S
H737 C761 0.950 . S
H738 C762 0.950 . S
H739 C763 0.951 . S
H740 C765 0.951 . S
H741 C767 0.950 . S
H742 C768 0.950 . S
H743 C770 0.950 . S
H744 C773 0.950 . S
H745 C774 0.950 . S
H746 C776 0.950 . S
H747 C777 0.950 . S
C748 H730 0.951 . S
C748 C749 1.366 . S
C748 C750 1.388 . S
C749 C748 1.366 . S
C749 C753 1.385 . S
C750 H731 0.951 . S
C750 C748 1.388 . S
C750 C751 1.366 . S
C751 C750 1.366 . S
C751 C752 1.414 . S
C751 C754 1.499 . S
C752 H732 0.950 . S
C752 C751 1.414 . S
C752 C753 1.374 . S
C753 H733 0.950 . S
C753 C749 1.385 . S
C753 C752 1.374 . S
C754 C751 1.499 . S
C754 C755 1.373 1_655 S
C754 C756 1.389 . S
C755 H734 0.950 . S
C755 C754 1.373 1_455 S
C755 C771 1.377 . S
C756 C754 1.389 . S
C756 C757 1.524 . S
C756 C770 1.377 . S
C757 C756 1.524 . S
C757 C758 1.397 . S
C757 C762 1.363 . S
C758 H735 0.950 . S
C758 C757 1.397 . S
C758 C759 1.334 . S
C759 H736 0.950 . S
C759 C758 1.334 . S
C759 C760 1.287 . S
C760 C759 1.287 . S
C760 C761 1.524 . S
C760 H779 0.913 . S
C761 H737 0.950 . S
C761 C760 1.524 . S
C761 C762 1.415 . S
C762 H738 0.950 . S
C762 C757 1.363 . S
C762 C761 1.415 . S
C763 H739 0.951 . S
C763 C764 1.366 . S
C763 C765 1.388 . S
C764 C763 1.366 . S
C764 C768 1.385 . S
C765 H740 0.951 . S
C765 C763 1.388 . S
C765 C766 1.366 . S
C766 C765 1.366 . S
C766 C767 1.414 . S
C766 C769 1.499 . S
C767 H741 0.950 . S
C767 C766 1.414 . S
C767 C768 1.374 . S
C768 H742 0.950 . S
C768 C764 1.385 . S
C768 C767 1.374 . S
C769 C766 1.499 . S
C769 C770 1.373 1_455 S
C769 C771 1.389 . S
C770 H743 0.950 . S
C770 C756 1.377 . S
C770 C769 1.373 1_655 S
C771 C755 1.377 . S
C771 C769 1.389 . S
C771 C772 1.524 . S
C772 C771 1.524 . S
C772 C773 1.397 . S
C772 C777 1.363 . S
C773 H744 0.950 . S
C773 C772 1.397 . S
C773 C774 1.334 . S
C774 H745 0.950 . S
C774 C773 1.334 . S
C774 C775 1.287 . S
C775 C774 1.287 . S
C775 C776 1.524 . S
C775 H778 0.999 . S
C776 H746 0.950 . S
C776 C775 1.524 . S
C776 C777 1.415 . S
C777 H747 0.950 . S
C777 C772 1.363 . S
C777 C776 1.415 . S
H778 C775 0.999 . S
H779 C760 0.913 . S
H780 C798 0.951 . S
H781 C800 0.951 . S
H782 C802 0.950 . S
H783 C803 0.950 . S
H784 C805 0.950 . S
H785 C808 0.950 . S
H786 C809 0.950 . S
H787 C811 0.950 . S
H788 C812 0.950 . S
H789 C813 0.951 . S
H790 C815 0.951 . S
H791 C817 0.950 . S
H792 C818 0.950 . S
H793 C820 0.950 . S
H794 C823 0.950 . S
H795 C824 0.950 . S
H796 C826 0.950 . S
H797 C827 0.950 . S
C798 H780 0.951 . S
C798 C799 1.366 . S
C798 C800 1.388 . S
C799 C798 1.366 . S
C799 C803 1.385 . S
C800 H781 0.951 . S
C800 C798 1.388 . S
C800 C801 1.366 . S
C801 C800 1.366 . S
C801 C802 1.414 . S
C801 C804 1.499 . S
C802 H782 0.950 . S
C802 C801 1.414 . S
C802 C803 1.374 . S
C803 H783 0.950 . S
C803 C799 1.385 . S
C803 C802 1.374 . S
C804 C801 1.499 . S
C804 C805 1.373 1_455 S
C804 C806 1.389 . S
C805 H784 0.950 . S
C805 C804 1.373 1_655 S
C805 C821 1.377 . S
C806 C804 1.389 . S
C806 C807 1.524 . S
C806 C820 1.377 . S
C807 C806 1.524 . S
C807 C808 1.397 . S
C807 C812 1.363 . S
C808 H785 0.950 . S
C808 C807 1.397 . S
C808 C809 1.334 . S
C809 H786 0.950 . S
C809 C808 1.334 . S
C809 C810 1.287 . S
C810 C809 1.287 . S
C810 C811 1.524 . S
C810 H829 0.913 . S
C811 H787 0.950 . S
C811 C810 1.524 . S
C811 C812 1.415 . S
C812 H788 0.950 . S
C812 C807 1.363 . S
C812 C811 1.415 . S
C813 H789 0.951 . S
C813 C814 1.366 . S
C813 C815 1.388 . S
C814 C813 1.366 . S
C814 C818 1.385 . S
C815 H790 0.951 . S
C815 C813 1.388 . S
C815 C816 1.366 . S
C816 C815 1.366 . S
C816 C817 1.414 . S
C816 C819 1.499 . S
C817 H791 0.950 . S
C817 C816 1.414 . S
C817 C818 1.374 . S
C818 H792 0.950 . S
C818 C814 1.385 . S
C818 C817 1.374 . S
C819 C816 1.499 . S
C819 C820 1.373 1_655 S
C819 C821 1.389 . S
C820 H793 0.950 . S
C820 C806 1.377 . S
C820 C819 1.373 1_455 S
C821 C805 1.377 . S
C821 C819 1.389 . S
C821 C822 1.524 . S
C822 C821 1.524 . S
C822 C823 1.397 . S
C822 C827 1.363 . S
C823 H794 0.950 . S
C823 C822 1.397 . S
C823 C824 1.334 . S
C824 H795 0.950 . S
C824 C823 1.334 . S
C824 C825 1.287 . S
C825 C824 1.287 . S
C825 C826 1.524 . S
C825 H828 0.999 . S
C826 H796 0.950 . S
C826 C825 1.524 . S
C826 C827 1.415 . S
C827 H797 0.950 . S
C827 C822 1.363 . S
C827 C826 1.415 . S
H828 C825 0.999 . S
H829 C810 0.913 . S
H830 C848 0.951 . S
H831 C850 0.951 . S
H832 C852 0.950 . S
H833 C853 0.939 1_545 S
H834 C855 0.918 . S
H835 C858 0.950 . S
H836 C859 0.950 . S
H837 C861 0.950 . S
H838 C862 0.950 . S
H839 C863 0.951 . S
H840 C865 0.951 . S
H841 C867 0.974 . S
H842 C868 0.950 1_565 S
H843 C870 0.950 . S
H844 C873 0.950 . S
H845 C874 0.950 . S
H846 C876 0.950 . S
H847 C877 0.950 . S
C848 H830 0.951 . S
C848 C849 1.366 . S
C848 C850 1.388 . S
C849 C848 1.366 . S
C849 C853 1.414 . S
C850 H831 0.951 . S
C850 C848 1.388 . S
C850 C851 1.366 . S
C851 C850 1.366 . S
C851 C852 1.414 1_565 S
C851 C854 1.499 . S
C852 H832 0.950 . S
C852 C851 1.414 1_545 S
C852 C853 1.361 1_545 S
C853 H833 0.939 1_565 S
C853 C849 1.414 . S
C853 C852 1.361 1_565 S
C854 C851 1.499 . S
C854 C855 1.373 . S
C854 C856 1.391 . S
C855 H834 0.918 . S
C855 C854 1.373 . S
C855 C871 1.376 1_565 S
C856 C854 1.391 . S
C856 C857 1.523 . S
C856 C870 1.376 1_565 S
C857 C856 1.523 . S
C857 C858 1.398 1_565 S
C857 C862 1.363 . S
C858 H835 0.950 . S
C858 C857 1.398 1_545 S
C858 C859 1.334 . S
C859 H836 0.950 . S
C859 C858 1.334 . S
C859 C860 1.287 . S
C860 C859 1.287 . S
C860 C861 1.524 1_545 S
C860 H879 0.913 . S
C861 H837 0.950 . S
C861 C860 1.524 1_565 S
C861 C862 1.415 . S
C862 H838 0.950 . S
C862 C857 1.363 . S
C862 C861 1.415 . S
C863 H839 0.951 . S
C863 C864 1.366 . S
C863 C865 1.388 . S
C864 C863 1.366 . S
C864 C868 1.385 . S
C865 H840 0.951 . S
C865 C863 1.388 . S
C865 C866 1.366 . S
C866 C865 1.366 . S
C866 C867 1.405 1_545 S
C866 C869 1.499 . S
C867 H841 0.974 . S
C867 C866 1.405 1_565 S
C867 C868 1.363 1_565 S
C868 H842 0.950 1_545 S
C868 C864 1.385 . S
C868 C867 1.363 1_545 S
C869 C866 1.499 . S
C869 C870 1.373 . S
C869 C871 1.389 . S
C870 H843 0.950 . S
C870 C856 1.376 1_545 S
C870 C869 1.373 . S
C871 C855 1.376 1_545 S
C871 C869 1.389 . S
C871 C872 1.524 . S
C872 C871 1.524 . S
C872 C873 1.397 1_545 S
C872 C877 1.363 . S
C873 H844 0.950 . S
C873 C872 1.397 1_565 S
C873 C874 1.334 . S
C874 H845 0.950 . S
C874 C873 1.334 . S
C874 C875 1.287 . S
C875 C874 1.287 . S
C875 C876 1.524 1_565 S
C875 H878 0.999 . S
C876 H846 0.950 . S
C876 C875 1.524 1_545 S
C876 C877 1.415 . S
C877 H847 0.950 . S
C877 C872 1.363 . S
C877 C876 1.415 . S
H878 C875 0.999 . S
H879 C860 0.913 . S
H880 C898 0.951 . S
H881 C900 0.951 . S
H882 C902 0.950 . S
H883 C903 0.950 . S
H884 C905 0.950 . S
H885 C908 0.950 . S
H886 C909 0.950 . S
H887 C911 0.950 . S
H888 C912 0.950 . S
H889 C913 0.951 . S
H890 C915 0.951 . S
H891 C917 0.950 . S
H892 C918 0.950 . S
H893 C920 0.950 . S
H894 C923 0.950 . S
H895 C924 0.950 . S
H896 C926 0.950 . S
H897 C927 0.950 . S
C898 H880 0.951 . S
C898 C899 1.366 . S
C898 C900 1.388 . S
C899 C898 1.366 . S
C899 C903 1.385 . S
C900 H881 0.951 . S
C900 C898 1.388 . S
C900 C901 1.366 . S
C901 C900 1.366 . S
C901 C902 1.414 . S
C901 C904 1.499 . S
C902 H882 0.950 . S
C902 C901 1.414 . S
C902 C903 1.374 . S
C903 H883 0.950 . S
C903 C899 1.385 . S
C903 C902 1.374 . S
C904 C901 1.499 . S
C904 C905 1.373 . S
C904 C906 1.389 . S
C905 H884 0.950 . S
C905 C904 1.373 . S
C905 C921 1.377 . S
C906 C904 1.389 . S
C906 C907 1.524 . S
C906 C920 1.377 . S
C907 C906 1.524 . S
C907 C908 1.397 . S
C907 C912 1.363 . S
C908 H885 0.950 . S
C908 C907 1.397 . S
C908 C909 1.334 . S
C909 H886 0.950 . S
C909 C908 1.334 . S
C909 C910 1.287 . S
C910 C909 1.287 . S
C910 C911 1.524 . S
C910 H929 0.913 . S
C911 H887 0.950 . S
C911 C910 1.524 . S
C911 C912 1.415 . S
C912 H888 0.950 . S
C912 C907 1.363 . S
C912 C911 1.415 . S
C913 H889 0.951 . S
C913 C914 1.366 . S
C913 C915 1.388 . S
C914 C913 1.366 . S
C914 C918 1.385 . S
C915 H890 0.951 . S
C915 C913 1.388 . S
C915 C916 1.366 . S
C916 C915 1.366 . S
C916 C917 1.414 . S
C916 C919 1.499 . S
C917 H891 0.950 . S
C917 C916 1.414 . S
C917 C918 1.374 . S
C918 H892 0.950 . S
C918 C914 1.385 . S
C918 C917 1.374 . S
C919 C916 1.499 . S
C919 C920 1.373 . S
C919 C921 1.389 . S
C920 H893 0.950 . S
C920 C906 1.377 . S
C920 C919 1.373 . S
C921 C905 1.377 . S
C921 C919 1.389 . S
C921 C922 1.524 . S
C922 C921 1.524 . S
C922 C923 1.397 . S
C922 C927 1.363 . S
C923 H894 0.950 . S
C923 C922 1.397 . S
C923 C924 1.334 . S
C924 H895 0.950 . S
C924 C923 1.334 . S
C924 C925 1.287 . S
C925 C924 1.287 . S
C925 C926 1.524 . S
C925 H928 0.999 . S
C926 H896 0.950 . S
C926 C925 1.524 . S
C926 C927 1.415 . S
C927 H897 0.950 . S
C927 C922 1.363 . S
C927 C926 1.415 . S
H928 C925 0.999 . S
H929 C910 0.913 . S
H930 C948 0.951 . S
H931 C950 0.951 . S
H932 C952 0.950 . S
H933 C953 0.950 . S
H934 C955 0.950 . S
H935 C958 0.950 . S
H936 C959 0.950 . S
H937 C961 0.950 . S
H938 C962 0.950 . S
H939 C963 0.951 . S
H940 C965 0.951 . S
H941 C967 0.950 . S
H942 C968 0.950 . S
H943 C970 0.950 . S
H944 C973 0.950 . S
H945 C974 0.950 . S
H946 C976 0.950 . S
H947 C977 0.950 . S
C948 H930 0.951 . S
C948 C949 1.366 . S
C948 C950 1.388 . S
C949 C948 1.366 . S
C949 C953 1.385 . S
C950 H931 0.951 . S
C950 C948 1.388 . S
C950 C951 1.366 . S
C951 C950 1.366 . S
C951 C952 1.414 . S
C951 C954 1.509 . S
C952 H932 0.950 . S
C952 C951 1.414 . S
C952 C953 1.374 . S
C953 H933 0.950 . S
C953 C949 1.385 . S
C953 C952 1.374 . S
C954 C951 1.509 . S
C954 C955 1.417 . S
C954 C956 1.338 1_655 S
C955 H934 0.950 . S
C955 C954 1.417 . S
C955 C971 1.377 . S
C956 C954 1.338 1_455 S
C956 C957 1.524 . S
C956 C970 1.377 . S
C957 C956 1.524 . S
C957 C958 1.397 . S
C957 C962 1.363 . S
C958 H935 0.950 . S
C958 C957 1.397 . S
C958 C959 1.334 . S
C959 H936 0.950 . S
C959 C958 1.334 . S
C959 C960 1.287 . S
C960 C959 1.287 . S
C960 C961 1.524 . S
C960 H979 0.913 . S
C961 H937 0.950 . S
C961 C960 1.524 . S
C961 C962 1.415 . S
C962 H938 0.950 . S
C962 C957 1.363 . S
C962 C961 1.415 . S
C963 H939 0.951 . S
C963 C964 1.366 . S
C963 C965 1.388 . S
C964 C963 1.366 . S
C964 C968 1.385 . S
C965 H940 0.951 . S
C965 C963 1.388 . S
C965 C966 1.366 . S
C966 C965 1.366 . S
C966 C967 1.414 . S
C966 C969 1.499 . S
C967 H941 0.950 . S
C967 C966 1.414 . S
C967 C968 1.374 . S
C968 H942 0.950 . S
C968 C964 1.385 . S
C968 C967 1.374 . S
C969 C966 1.499 . S
C969 C970 1.373 . S
C969 C971 1.389 1_455 S
C970 H943 0.950 . S
C970 C956 1.377 . S
C970 C969 1.373 . S
C971 C955 1.377 . S
C971 C969 1.389 1_655 S
C971 C972 1.524 . S
C972 C971 1.524 . S
C972 C973 1.397 . S
C972 C977 1.363 . S
C973 H944 0.950 . S
C973 C972 1.397 . S
C973 C974 1.334 . S
C974 H945 0.950 . S
C974 C973 1.334 . S
C974 C975 1.287 . S
C975 C974 1.287 . S
C975 C976 1.524 . S
C975 H978 0.999 . S
C976 H946 0.950 . S
C976 C975 1.524 . S
C976 C977 1.415 . S
C977 H947 0.950 . S
C977 C972 1.363 . S
C977 C976 1.415 . S
H978 C975 0.999 . S
H979 C960 0.913 . S
H980 C998 0.951 . S
H981 C1000 0.951 . S
H982 C1002 0.950 . S
H983 C1003 0.950 . S
H984 C1005 0.950 . S
H985 C1008 0.950 . S
H986 C1009 0.950 . S
H987 C1011 0.950 . S
H988 C1012 0.950 . S
H989 C1013 0.951 . S
H990 C1015 0.951 . S
H991 C1017 0.950 . S
H992 C1018 0.950 . S
H993 C1020 0.950 . S
H994 C1023 0.950 . S
H995 C1024 0.950 . S
H996 C1026 0.950 . S
H997 C1027 0.950 . S
C998 H980 0.951 . S
C998 C999 1.366 . S
C998 C1000 1.388 . S
C999 C998 1.366 . S
C999 C1003 1.385 . S
C1000 H981 0.951 . S
C1000 C998 1.388 . S
C1000 C1001 1.366 . S
C1001 C1000 1.366 . S
C1001 C1002 1.414 . S
C1001 C1004 1.499 . S
C1002 H982 0.950 . S
C1002 C1001 1.414 . S
C1002 C1003 1.374 . S
C1003 H983 0.950 . S
C1003 C999 1.385 . S
C1003 C1002 1.374 . S
C1004 C1001 1.499 . S
C1004 C1005 1.373 . S
C1004 C1006 1.389 1_545 S
C1005 H984 0.950 . S
C1005 C1004 1.373 . S
C1005 C1021 1.377 . S
C1006 C1004 1.389 1_565 S
C1006 C1007 1.524 . S
C1006 C1020 1.377 . S
C1007 C1006 1.524 . S
C1007 C1008 1.397 . S
C1007 C1012 1.363 . S
C1008 H985 0.950 . S
C1008 C1007 1.397 . S
C1008 C1009 1.334 . S
C1009 H986 0.950 . S
C1009 C1008 1.334 . S
C1009 C1010 1.287 . S
C1010 C1009 1.287 . S
C1010 C1011 1.524 . S
C1010 H1029 0.913 . S
C1011 H987 0.950 . S
C1011 C1010 1.524 . S
C1011 C1012 1.415 . S
C1012 H988 0.950 . S
C1012 C1007 1.363 . S
C1012 C1011 1.415 . S
C1013 H989 0.951 . S
C1013 C1014 1.366 . S
C1013 C1015 1.388 . S
C1014 C1013 1.366 . S
C1014 C1018 1.385 . S
C1015 H990 0.951 . S
C1015 C1013 1.388 . S
C1015 C1016 1.366 . S
C1016 C1015 1.366 . S
C1016 C1017 1.414 . S
C1016 C1019 1.499 . S
C1017 H991 0.950 . S
C1017 C1016 1.414 . S
C1017 C1018 1.374 . S
C1018 H992 0.950 . S
C1018 C1014 1.385 . S
C1018 C1017 1.374 . S
C1019 C1016 1.499 . S
C1019 C1020 1.373 . S
C1019 C1021 1.389 1_565 S
C1020 H993 0.950 . S
C1020 C1006 1.377 . S
C1020 C1019 1.373 . S
C1021 C1005 1.377 . S
C1021 C1019 1.389 1_545 S
C1021 C1022 1.524 . S
C1022 C1021 1.524 . S
C1022 C1023 1.397 . S
C1022 C1027 1.363 . S
C1023 H994 0.950 . S
C1023 C1022 1.397 . S
C1023 C1024 1.334 . S
C1024 H995 0.950 . S
C1024 C1023 1.334 . S
C1024 C1025 1.287 . S
C1025 C1024 1.287 . S
C1025 C1026 1.524 . S
C1025 H1028 0.999 . S
C1026 H996 0.950 . S
C1026 C1025 1.524 . S
C1026 C1027 1.415 . S
C1027 H997 0.950 . S
C1027 C1022 1.363 . S
C1027 C1026 1.415 . S
H1028 C1025 0.999 . S
H1029 C1010 0.913 . S
H1030 C1048 0.951 . S
H1031 C1050 0.951 . S
H1032 C1052 0.950 . S
H1033 C1053 0.950 . S
H1034 C1055 0.950 . S
H1035 C1058 0.950 . S
H1036 C1059 0.950 . S
H1037 C1061 0.950 . S
H1038 C1062 0.950 . S
H1039 C1063 0.951 . S
H1040 C1065 0.951 . S
H1041 C1067 0.950 . S
H1042 C1068 0.950 . S
H1043 C1070 0.950 . S
H1044 C1073 0.950 . S
H1045 C1074 0.950 . S
H1046 C1076 0.950 . S
H1047 C1077 0.950 . S
C1048 H1030 0.951 . S
C1048 C1049 1.366 . S
C1048 C1050 1.388 . S
C1049 C1048 1.366 . S
C1049 C1053 1.385 . S
C1050 H1031 0.951 . S
C1050 C1048 1.388 . S
C1050 C1051 1.366 . S
C1051 C1050 1.366 . S
C1051 C1052 1.414 . S
C1051 C1054 1.499 . S
C1052 H1032 0.950 . S
C1052 C1051 1.414 . S
C1052 C1053 1.374 . S
C1053 H1033 0.950 . S
C1053 C1049 1.385 . S
C1053 C1052 1.374 . S
C1054 C1051 1.499 . S
C1054 C1055 1.373 . S
C1054 C1056 1.389 . S
C1055 H1034 0.950 . S
C1055 C1054 1.373 . S
C1055 C1071 1.377 . S
C1056 C1054 1.389 . S
C1056 C1057 1.524 . S
C1056 C1070 1.377 . S
C1057 C1056 1.524 . S
C1057 C1058 1.397 . S
C1057 C1062 1.363 . S
C1058 H1035 0.950 . S
C1058 C1057 1.397 . S
C1058 C1059 1.334 . S
C1059 H1036 0.950 . S
C1059 C1058 1.334 . S
C1059 C1060 1.287 . S
C1060 C1059 1.287 . S
C1060 C1061 1.524 . S
C1060 H1079 0.913 . S
C1061 H1037 0.950 . S
C1061 C1060 1.524 . S
C1061 C1062 1.415 . S
C1062 H1038 0.950 . S
C1062 C1057 1.363 . S
C1062 C1061 1.415 . S
C1063 H1039 0.951 . S
C1063 C1064 1.366 . S
C1063 C1065 1.388 . S
C1064 C1063 1.366 . S
C1064 C1068 1.385 . S
C1065 H1040 0.951 . S
C1065 C1063 1.388 . S
C1065 C1066 1.366 . S
C1066 C1065 1.366 . S
C1066 C1067 1.414 . S
C1066 C1069 1.499 . S
C1067 H1041 0.950 . S
C1067 C1066 1.414 . S
C1067 C1068 1.374 . S
C1068 H1042 0.950 . S
C1068 C1064 1.385 . S
C1068 C1067 1.374 . S
C1069 C1066 1.499 . S
C1069 C1070 1.373 . S
C1069 C1071 1.389 . S
C1070 H1043 0.950 . S
C1070 C1056 1.377 . S
C1070 C1069 1.373 . S
C1071 C1055 1.377 . S
C1071 C1069 1.389 . S
C1071 C1072 1.524 . S
C1072 C1071 1.524 . S
C1072 C1073 1.397 . S
C1072 C1077 1.363 . S
C1073 H1044 0.950 . S
C1073 C1072 1.397 . S
C1073 C1074 1.334 . S
C1074 H1045 0.950 . S
C1074 C1073 1.334 . S
C1074 C1075 1.287 . S
C1075 C1074 1.287 . S
C1075 C1076 1.524 . S
C1075 H1078 0.999 . S
C1076 H1046 0.950 . S
C1076 C1075 1.524 . S
C1076 C1077 1.415 . S
C1077 H1047 0.950 . S
C1077 C1072 1.363 . S
C1077 C1076 1.415 . S
H1078 C1075 0.999 . S
H1079 C1060 0.913 . S
H1080 C1098 0.951 . S
H1081 C1100 0.951 . S
H1082 C1102 0.950 . S
H1083 C1103 0.950 . S
H1084 C1105 0.950 . S
H1085 C1108 0.950 . S
H1086 C1109 0.950 . S
H1087 C1111 0.950 . S
H1088 C1112 0.950 . S
H1089 C1113 0.951 . S
H1090 C1115 0.951 . S
H1091 C1117 0.950 . S
H1092 C1118 0.950 . S
H1093 C1120 0.950 . S
H1094 C1123 0.950 . S
H1095 C1124 0.950 . S
H1096 C1126 0.950 . S
H1097 C1127 0.950 . S
C1098 H1080 0.951 . S
C1098 C1099 1.366 . S
C1098 C1100 1.388 . S
C1099 C1098 1.366 . S
C1099 C1103 1.385 . S
C1100 H1081 0.951 . S
C1100 C1098 1.388 . S
C1100 C1101 1.366 . S
C1101 C1100 1.366 . S
C1101 C1102 1.414 . S
C1101 C1104 1.499 . S
C1102 H1082 0.950 . S
C1102 C1101 1.414 . S
C1102 C1103 1.374 . S
C1103 H1083 0.950 . S
C1103 C1099 1.385 . S
C1103 C1102 1.374 . S
C1104 C1101 1.499 . S
C1104 C1105 1.373 . S
C1104 C1106 1.389 1_556 S
C1105 H1084 0.950 . S
C1105 C1104 1.373 . S
C1105 C1121 1.377 . S
C1106 C1104 1.389 1_554 S
C1106 C1107 1.524 . S
C1106 C1120 1.377 . S
C1107 C1106 1.524 . S
C1107 C1108 1.397 . S
C1107 C1112 1.363 . S
C1108 H1085 0.950 . S
C1108 C1107 1.397 . S
C1108 C1109 1.334 . S
C1109 H1086 0.950 . S
C1109 C1108 1.334 . S
C1109 C1110 1.287 . S
C1110 C1109 1.287 . S
C1110 C1111 1.524 . S
C1110 H1129 0.913 . S
C1111 H1087 0.950 . S
C1111 C1110 1.524 . S
C1111 C1112 1.415 . S
C1112 H1088 0.950 . S
C1112 C1107 1.363 . S
C1112 C1111 1.415 . S
C1113 H1089 0.951 . S
C1113 C1114 1.366 . S
C1113 C1115 1.388 . S
C1114 C1113 1.366 . S
C1114 C1118 1.385 . S
C1115 H1090 0.951 . S
C1115 C1113 1.388 . S
C1115 C1116 1.366 . S
C1116 C1115 1.366 . S
C1116 C1117 1.414 . S
C1116 C1119 1.523 . S
C1117 H1091 0.950 . S
C1117 C1116 1.414 . S
C1117 C1118 1.374 . S
C1118 H1092 0.950 . S
C1118 C1114 1.385 . S
C1118 C1117 1.374 . S
C1119 C1116 1.523 . S
C1119 C1120 1.412 . S
C1119 C1121 1.334 1_554 S
C1120 H1093 0.950 . S
C1120 C1106 1.377 . S
C1120 C1119 1.412 . S
C1121 C1105 1.377 . S
C1121 C1119 1.334 1_556 S
C1121 C1122 1.524 . S
C1122 C1121 1.524 . S
C1122 C1123 1.397 . S
C1122 C1127 1.363 . S
C1123 H1094 0.950 . S
C1123 C1122 1.397 . S
C1123 C1124 1.334 . S
C1124 H1095 0.950 . S
C1124 C1123 1.334 . S
C1124 C1125 1.287 . S
C1125 C1124 1.287 . S
C1125 C1126 1.524 . S
C1125 H1128 0.999 . S
C1126 H1096 0.950 . S
C1126 C1125 1.524 . S
C1126 C1127 1.415 . S
C1127 H1097 0.950 . S
C1127 C1122 1.363 . S
C1127 C1126 1.415 . S
H1128 C1125 0.999 . S
H1129 C1110 0.913 . S
H1130 C1148 0.951 . S
H1131 C1150 0.951 . S
H1132 C1152 0.950 . S
H1133 C1153 0.950 . S
H1134 C1155 0.950 . S
H1135 C1158 0.950 . S
H1136 C1159 0.950 . S
H1137 C1161 0.950 . S
H1138 C1162 0.950 . S
H1139 C1163 0.951 . S
H1140 C1165 0.951 . S
H1141 C1167 0.950 . S
H1142 C1168 0.950 . S
H1143 C1170 0.950 . S
H1144 C1173 0.950 . S
H1145 C1174 0.950 . S
H1146 C1176 0.950 . S
H1147 C1177 0.950 . S
C1148 H1130 0.951 . S
C1148 C1149 1.366 . S
C1148 C1150 1.388 . S
C1149 C1148 1.366 . S
C1149 C1153 1.385 . S
C1150 H1131 0.951 . S
C1150 C1148 1.388 . S
C1150 C1151 1.366 . S
C1151 C1150 1.366 . S
C1151 C1152 1.414 . S
C1151 C1154 1.499 . S
C1152 H1132 0.950 . S
C1152 C1151 1.414 . S
C1152 C1153 1.374 . S
C1153 H1133 0.950 . S
C1153 C1149 1.385 . S
C1153 C1152 1.374 . S
C1154 C1151 1.499 . S
C1154 C1155 1.373 . S
C1154 C1156 1.389 . S
C1155 H1134 0.950 . S
C1155 C1154 1.373 . S
C1155 C1171 1.377 . S
C1156 C1154 1.389 . S
C1156 C1157 1.524 . S
C1156 C1170 1.377 . S
C1157 C1156 1.524 . S
C1157 C1158 1.397 . S
C1157 C1162 1.363 . S
C1158 H1135 0.950 . S
C1158 C1157 1.397 . S
C1158 C1159 1.334 . S
C1159 H1136 0.950 . S
C1159 C1158 1.334 . S
C1159 C1160 1.287 . S
C1160 C1159 1.287 . S
C1160 C1161 1.524 . S
C1160 H1179 0.913 . S
C1161 H1137 0.950 . S
C1161 C1160 1.524 . S
C1161 C1162 1.415 . S
C1162 H1138 0.950 . S
C1162 C1157 1.363 . S
C1162 C1161 1.415 . S
C1163 H1139 0.951 . S
C1163 C1164 1.366 . S
C1163 C1165 1.388 . S
C1164 C1163 1.366 . S
C1164 C1168 1.385 . S
C1165 H1140 0.951 . S
C1165 C1163 1.388 . S
C1165 C1166 1.366 . S
C1166 C1165 1.366 . S
C1166 C1167 1.414 . S
C1166 C1169 1.499 . S
C1167 H1141 0.950 . S
C1167 C1166 1.414 . S
C1167 C1168 1.374 . S
C1168 H1142 0.950 . S
C1168 C1164 1.385 . S
C1168 C1167 1.374 . S
C1169 C1166 1.499 . S
C1169 C1170 1.373 . S
C1169 C1171 1.389 . S
C1170 H1143 0.950 . S
C1170 C1156 1.377 . S
C1170 C1169 1.373 . S
C1171 C1155 1.377 . S
C1171 C1169 1.389 . S
C1171 C1172 1.524 . S
C1172 C1171 1.524 . S
C1172 C1173 1.397 . S
C1172 C1177 1.363 . S
C1173 H1144 0.950 . S
C1173 C1172 1.397 . S
C1173 C1174 1.334 . S
C1174 H1145 0.950 . S
C1174 C1173 1.334 . S
C1174 C1175 1.287 . S
C1175 C1174 1.287 . S
C1175 C1176 1.524 . S
C1175 H1178 0.999 . S
C1176 H1146 0.950 . S
C1176 C1175 1.524 . S
C1176 C1177 1.415 . S
C1177 H1147 0.950 . S
C1177 C1172 1.363 . S
C1177 C1176 1.415 . S
H1178 C1175 0.999 . S
H1179 C1160 0.913 . S
H1180 C1198 0.951 . S
H1181 C1200 0.951 . S
H1182 C1202 0.950 . S
H1183 C1203 0.950 . S
H1184 C1205 0.950 . S
H1185 C1208 0.950 . S
H1186 C1209 0.950 . S
H1187 C1211 0.950 . S
H1188 C1212 0.950 . S
H1189 C1213 0.951 . S
H1190 C1215 0.951 . S
H1191 C1217 0.950 . S
H1192 C1218 0.950 . S
H1193 C1220 0.950 . S
H1194 C1223 0.950 . S
H1195 C1224 0.950 . S
H1196 C1226 0.950 . S
H1197 C1227 0.950 . S
C1198 H1180 0.951 . S
C1198 C1199 1.366 . S
C1198 C1200 1.388 . S
C1199 C1198 1.366 . S
C1199 C1203 1.385 . S
C1200 H1181 0.951 . S
C1200 C1198 1.388 . S
C1200 C1201 1.366 . S
C1201 C1200 1.366 . S
C1201 C1202 1.414 . S
C1201 C1204 1.499 . S
C1202 H1182 0.950 . S
C1202 C1201 1.414 . S
C1202 C1203 1.374 . S
C1203 H1183 0.950 . S
C1203 C1199 1.385 . S
C1203 C1202 1.374 . S
C1204 C1201 1.499 . S
C1204 C1205 1.373 . S
C1204 C1206 1.389 . S
C1205 H1184 0.950 . S
C1205 C1204 1.373 . S
C1205 C1221 1.377 . S
C1206 C1204 1.389 . S
C1206 C1207 1.524 . S
C1206 C1220 1.377 . S
C1207 C1206 1.524 . S
C1207 C1208 1.397 . S
C1207 C1212 1.363 . S
C1208 H1185 0.950 . S
C1208 C1207 1.397 . S
C1208 C1209 1.334 . S
C1209 H1186 0.950 . S
C1209 C1208 1.334 . S
C1209 C1210 1.287 . S
C1210 C1209 1.287 . S
C1210 C1211 1.524 . S
C1210 H1229 0.913 . S
C1211 H1187 0.950 . S
C1211 C1210 1.524 . S
C1211 C1212 1.415 . S
C1212 H1188 0.950 . S
C1212 C1207 1.363 . S
C1212 C1211 1.415 . S
C1213 H1189 0.951 . S
C1213 C1214 1.366 . S
C1213 C1215 1.388 . S
C1214 C1213 1.366 . S
C1214 C1218 1.385 . S
C1215 H1190 0.951 . S
C1215 C1213 1.388 . S
C1215 C1216 1.366 . S
C1216 C1215 1.366 . S
C1216 C1217 1.414 . S
C1216 C1219 1.499 . S
C1217 H1191 0.950 . S
C1217 C1216 1.414 . S
C1217 C1218 1.374 . S
C1218 H1192 0.950 . S
C1218 C1214 1.385 . S
C1218 C1217 1.374 . S
C1219 C1216 1.499 . S
C1219 C1220 1.373 . S
C1219 C1221 1.389 . S
C1220 H1193 0.950 . S
C1220 C1206 1.377 . S
C1220 C1219 1.373 . S
C1221 C1205 1.377 . S
C1221 C1219 1.389 . S
C1221 C1222 1.524 . S
C1222 C1221 1.524 . S
C1222 C1223 1.397 . S
C1222 C1227 1.363 . S
C1223 H1194 0.950 . S
C1223 C1222 1.397 . S
C1223 C1224 1.334 . S
C1224 H1195 0.950 . S
C1224 C1223 1.334 . S
C1224 C1225 1.287 . S
C1225 C1224 1.287 . S
C1225 C1226 1.524 . S
C1225 H1228 0.999 . S
C1226 H1196 0.950 . S
C1226 C1225 1.524 . S
C1226 C1227 1.415 . S
C1227 H1197 0.950 . S
C1227 C1222 1.363 . S
C1227 C1226 1.415 . S
H1228 C1225 0.999 . S
H1229 C1210 0.913 . S
H1230 C1248 0.947 . S
H1231 C1250 0.951 1_556 S
H1232 C1252 0.950 . S
H1233 C1253 0.950 . S
H1234 C1255 0.950 . S
H1235 C1258 0.950 1_554 S
H1236 C1259 0.950 . S
H1237 C1261 0.950 . S
H1238 C1262 0.950 . S
H1239 C1263 0.951 1_554 S
H1240 C1265 0.951 . S
H1241 C1267 0.950 . S
H1242 C1268 0.950 . S
H1243 C1270 0.950 . S
H1244 C1273 1.026 . S
H1245 C1274 0.950 . S
H1246 C1276 0.950 . S
H1247 C1277 0.950 . S
C1248 H1230 0.947 . S
C1248 C1249 1.366 . S
C1248 C1250 1.388 . S
C1249 C1248 1.366 . S
C1249 C1253 1.385 . S
C1250 H1231 0.951 1_554 S
C1250 C1248 1.388 . S
C1250 C1251 1.366 . S
C1251 C1250 1.366 . S
C1251 C1252 1.414 . S
C1251 C1254 1.499 . S
C1252 H1232 0.950 . S
C1252 C1251 1.414 . S
C1252 C1253 1.374 . S
C1253 H1233 0.950 . S
C1253 C1249 1.385 . S
C1253 C1252 1.374 . S
C1254 C1251 1.499 . S
C1254 C1255 1.373 . S
C1254 C1256 1.389 1_554 S
C1255 H1234 0.950 . S
C1255 C1254 1.373 . S
C1255 C1271 1.377 . S
C1256 C1254 1.389 1_556 S
C1256 C1257 1.524 . S
C1256 C1270 1.377 . S
C1257 C1256 1.524 . S
C1257 C1258 1.397 . S
C1257 C1262 1.363 . S
C1258 H1235 0.950 1_556 S
C1258 C1257 1.397 . S
C1258 C1259 1.334 . S
C1259 H1236 0.950 . S
C1259 C1258 1.334 . S
C1259 C1260 1.287 . S
C1260 C1259 1.287 . S
C1260 C1261 1.524 . S
C1260 H1279 0.913 . S
C1261 H1237 0.950 . S
C1261 C1260 1.524 . S
C1261 C1262 1.415 . S
C1262 H1238 0.950 . S
C1262 C1257 1.363 . S
C1262 C1261 1.415 . S
C1263 H1239 0.951 1_556 S
C1263 C1264 1.366 . S
C1263 C1265 1.388 1_556 S
C1264 C1263 1.366 . S
C1264 C1268 1.385 . S
C1265 H1240 0.951 . S
C1265 C1263 1.388 1_554 S
C1265 C1266 1.366 1_554 S
C1266 C1265 1.366 1_556 S
C1266 C1267 1.414 . S
C1266 C1269 1.499 . S
C1267 H1241 0.950 . S
C1267 C1266 1.414 . S
C1267 C1268 1.374 . S
C1268 H1242 0.950 . S
C1268 C1264 1.385 . S
C1268 C1267 1.374 . S
C1269 C1266 1.499 . S
C1269 C1270 1.373 . S
C1269 C1271 1.389 1_556 S
C1270 H1243 0.950 . S
C1270 C1256 1.377 . S
C1270 C1269 1.373 . S
C1271 C1255 1.377 . S
C1271 C1269 1.389 1_554 S
C1271 C1272 1.524 . S
C1272 C1271 1.524 . S
C1272 C1273 1.397 . S
C1272 C1277 1.363 . S
C1273 H1244 1.026 . S
C1273 C1272 1.397 . S
C1273 C1274 1.334 . S
C1274 H1245 0.950 . S
C1274 C1273 1.334 . S
C1274 C1275 1.287 . S
C1275 C1274 1.287 . S
C1275 C1276 1.524 . S
C1275 H1278 0.999 . S
C1276 H1246 0.950 . S
C1276 C1275 1.524 . S
C1276 C1277 1.415 . S
C1277 H1247 0.950 . S
C1277 C1272 1.363 . S
C1277 C1276 1.415 . S
H1278 C1275 0.999 . S
H1279 C1260 0.913 . S
H1280 C1298 0.951 . S
H1281 C1300 0.951 . S
H1282 C1302 0.950 . S
H1283 C1303 0.950 . S
H1284 C1305 0.950 . S
H1285 C1308 0.950 . S
H1286 C1309 0.950 . S
H1287 C1311 0.950 . S
H1288 C1312 0.950 . S
H1289 C1313 0.951 . S
H1290 C1315 0.951 . S
H1291 C1317 0.950 . S
H1292 C1318 0.950 . S
H1293 C1320 0.950 . S
H1294 C1323 0.950 . S
H1295 C1324 0.950 . S
H1296 C1326 0.950 . S
H1297 C1327 0.950 . S
C1298 H1280 0.951 . S
C1298 C1299 1.366 . S
C1298 C1300 1.388 . S
C1299 C1298 1.366 . S
C1299 C1303 1.385 . S
C1300 H1281 0.951 . S
C1300 C1298 1.388 . S
C1300 C1301 1.366 . S
C1301 C1300 1.366 . S
C1301 C1302 1.414 . S
C1301 C1304 1.499 . S
C1302 H1282 0.950 . S
C1302 C1301 1.414 . S
C1302 C1303 1.374 . S
C1303 H1283 0.950 . S
C1303 C1299 1.385 . S
C1303 C1302 1.374 . S
C1304 C1301 1.499 . S
C1304 C1305 1.373 . S
C1304 C1306 1.389 . S
C1305 H1284 0.950 . S
C1305 C1304 1.373 . S
C1305 C1321 1.377 . S
C1306 C1304 1.389 . S
C1306 C1307 1.524 . S
C1306 C1320 1.377 . S
C1307 C1306 1.524 . S
C1307 C1308 1.397 . S
C1307 C1312 1.363 . S
C1308 H1285 0.950 . S
C1308 C1307 1.397 . S
C1308 C1309 1.334 . S
C1309 H1286 0.950 . S
C1309 C1308 1.334 . S
C1309 C1310 1.287 . S
C1310 C1309 1.287 . S
C1310 C1311 1.524 . S
C1310 H1329 0.913 . S
C1311 H1287 0.950 . S
C1311 C1310 1.524 . S
C1311 C1312 1.415 . S
C1312 H1288 0.950 . S
C1312 C1307 1.363 . S
C1312 C1311 1.415 . S
C1313 H1289 0.951 . S
C1313 C1314 1.366 . S
C1313 C1315 1.388 . S
C1314 C1313 1.366 . S
C1314 C1318 1.385 . S
C1315 H1290 0.951 . S
C1315 C1313 1.388 . S
C1315 C1316 1.366 . S
C1316 C1315 1.366 . S
C1316 C1317 1.414 . S
C1316 C1319 1.499 . S
C1317 H1291 0.950 . S
C1317 C1316 1.414 . S
C1317 C1318 1.374 . S
C1318 H1292 0.950 . S
C1318 C1314 1.385 . S
C1318 C1317 1.374 . S
C1319 C1316 1.499 . S
C1319 C1320 1.373 . S
C1319 C1321 1.389 . S
C1320 H1293 0.950 . S
C1320 C1306 1.377 . S
C1320 C1319 1.373 . S
C1321 C1305 1.377 . S
C1321 C1319 1.389 . S
C1321 C1322 1.524 . S
C1322 C1321 1.524 . S
C1322 C1323 1.397 . S
C1322 C1327 1.363 . S
C1323 H1294 0.950 . S
C1323 C1322 1.397 . S
C1323 C1324 1.334 . S
C1324 H1295 0.950 . S
C1324 C1323 1.334 . S
C1324 C1325 1.287 . S
C1325 C1324 1.287 . S
C1325 C1326 1.524 . S
C1325 H1328 0.999 . S
C1326 H1296 0.950 . S
C1326 C1325 1.524 . S
C1326 C1327 1.415 . S
C1327 H1297 0.950 . S
C1327 C1322 1.363 . S
C1327 C1326 1.415 . S
H1328 C1325 0.999 . S
H1329 C1310 0.913 . S
H1330 C1348 0.951 . S
H1331 C1350 0.951 . S
H1332 C1352 0.950 . S
H1333 C1353 0.950 . S
H1334 C1355 0.950 . S
H1335 C1358 0.950 . S
H1336 C1359 0.950 . S
H1337 C1361 0.950 . S
H1338 C1362 0.950 . S
H1339 C1363 0.951 . S
H1340 C1365 0.951 . S
H1341 C1367 0.950 . S
H1342 C1368 0.950 . S
H1343 C1370 0.950 . S
H1344 C1373 0.950 . S
H1345 C1374 0.950 . S
H1346 C1376 0.950 . S
H1347 C1377 0.950 . S
C1348 H1330 0.951 . S
C1348 C1349 1.366 . S
C1348 C1350 1.388 . S
C1349 C1348 1.366 . S
C1349 C1353 1.385 . S
C1350 H1331 0.951 . S
C1350 C1348 1.388 . S
C1350 C1351 1.366 . S
C1351 C1350 1.366 . S
C1351 C1352 1.414 . S
C1351 C1354 1.499 . S
C1352 H1332 0.950 . S
C1352 C1351 1.414 . S
C1352 C1353 1.374 . S
C1353 H1333 0.950 . S
C1353 C1349 1.385 . S
C1353 C1352 1.374 . S
C1354 C1351 1.499 . S
C1354 C1355 1.373 . S
C1354 C1356 1.389 . S
C1355 H1334 0.950 . S
C1355 C1354 1.373 . S
C1355 C1371 1.377 . S
C1356 C1354 1.389 . S
C1356 C1357 1.524 . S
C1356 C1370 1.377 . S
C1357 C1356 1.524 . S
C1357 C1358 1.397 . S
C1357 C1362 1.363 . S
C1358 H1335 0.950 . S
C1358 C1357 1.397 . S
C1358 C1359 1.334 . S
C1359 H1336 0.950 . S
C1359 C1358 1.334 . S
C1359 C1360 1.287 . S
C1360 C1359 1.287 . S
C1360 C1361 1.524 . S
C1360 H1379 0.913 . S
C1361 H1337 0.950 . S
C1361 C1360 1.524 . S
C1361 C1362 1.415 . S
C1362 H1338 0.950 . S
C1362 C1357 1.363 . S
C1362 C1361 1.415 . S
C1363 H1339 0.951 . S
C1363 C1364 1.366 . S
C1363 C1365 1.388 . S
C1364 C1363 1.366 . S
C1364 C1368 1.385 . S
C1365 H1340 0.951 . S
C1365 C1363 1.388 . S
C1365 C1366 1.366 . S
C1366 C1365 1.366 . S
C1366 C1367 1.414 . S
C1366 C1369 1.499 . S
C1367 H1341 0.950 . S
C1367 C1366 1.414 . S
C1367 C1368 1.374 . S
C1368 H1342 0.950 . S
C1368 C1364 1.385 . S
C1368 C1367 1.374 . S
C1369 C1366 1.499 . S
C1369 C1370 1.373 . S
C1369 C1371 1.389 . S
C1370 H1343 0.950 . S
C1370 C1356 1.377 . S
C1370 C1369 1.373 . S
C1371 C1355 1.377 . S
C1371 C1369 1.389 . S
C1371 C1372 1.524 . S
C1372 C1371 1.524 . S
C1372 C1373 1.397 . S
C1372 C1377 1.363 . S
C1373 H1344 0.950 . S
C1373 C1372 1.397 . S
C1373 C1374 1.334 . S
C1374 H1345 0.950 . S
C1374 C1373 1.334 . S
C1374 C1375 1.287 . S
C1375 C1374 1.287 . S
C1375 C1376 1.524 . S
C1375 H1378 0.999 . S
C1376 H1346 0.950 . S
C1376 C1375 1.524 . S
C1376 C1377 1.415 . S
C1377 H1347 0.950 . S
C1377 C1372 1.363 . S
C1377 C1376 1.415 . S
H1378 C1375 0.999 . S
H1379 C1360 0.913 . S
C499 C141 2.167 . S
C514 C21 2.166 . S
C549 C61 2.154 . S
C564 C181 2.153 . S
C599 C202 2.263 . S
C614 C101 2.130 . S
C649 C261 2.155 . S
C664 C381 2.153 . S
C699 C421 2.168 . S
C714 C301 2.166 . S
C749 C322 2.263 . S
C764 C461 2.130 . S
C799 C442 2.120 . S
C814 C2 2.118 . S
C849 C42 2.144 . S
C864 C242 2.143 . S
C899 C82 2.120 . S
C914 C282 2.118 . S
C949 C341 2.274 . S
C964 C122 2.148 . S
C999 C162 2.158 . S
C1014 C362 2.158 . S
C1049 C402 2.148 . S
C1064 C221 2.274 . S
C1099 C415 2.093 . S
C1114 C15 2.093 . S
C1149 C455 2.081 . S
C1164 C55 2.080 . S
C1199 C95 2.081 . S
C1214 C255 2.079 . S
C1249 C135 2.093 . S
C1264 C295 2.093 . S
C1299 C175 2.103 . S
C1314 C335 2.114 . S
C1349 C215 2.113 . S
C1364 C375 2.102 . S
