# Generated by pormake.
# Topology smw, (6)-cn, num edge types: 1
# Building blocks:
#     Node 0, Type 0, BuildingBlock: IZENUY_clean_sbu_0, # of connection points: 6
#     Node 1, Type 0, BuildingBlock: IZENUY_clean_sbu_0, # of connection points: 6
#     Node 2, Type 0, BuildingBlock: IZENUY_clean_sbu_0, # of connection points: 6
#     Node 3, Type 0, BuildingBlock: IZENUY_clean_sbu_0, # of connection points: 6
#     Node 4, Type 0, BuildingBlock: IZENUY_clean_sbu_0, # of connection points: 6
#     Node 5, Type 0, BuildingBlock: IZENUY_clean_sbu_0, # of connection points: 6
#     Node 6, Type 0, BuildingBlock: IZENUY_clean_sbu_0, # of connection points: 6
#     Node 7, Type 0, BuildingBlock: IZENUY_clean_sbu_0, # of connection points: 6
#     Node 8, Type 0, BuildingBlock: IZENUY_clean_sbu_0, # of connection points: 6
#     Node 9, Type 0, BuildingBlock: IZENUY_clean_sbu_0, # of connection points: 6
#     Node 10, Type 0, BuildingBlock: IZENUY_clean_sbu_0, # of connection points: 6
#     Node 11, Type 0, BuildingBlock: IZENUY_clean_sbu_0, # of connection points: 6
#     Edge 12, Type (0, 0), BuildingBlock: EYOCIG_clean_linker_4, # of connection points: 2
#     Edge 13, Type (0, 0), BuildingBlock: EYOCIG_clean_linker_4, # of connection points: 2
#     Edge 14, Type (0, 0), BuildingBlock: EYOCIG_clean_linker_4, # of connection points: 2
#     Edge 15, Type (0, 0), BuildingBlock: EYOCIG_clean_linker_4, # of connection points: 2
#     Edge 16, Type (0, 0), BuildingBlock: EYOCIG_clean_linker_4, # of connection points: 2
#     Edge 17, Type (0, 0), BuildingBlock: EYOCIG_clean_linker_4, # of connection points: 2
#     Edge 18, Type (0, 0), BuildingBlock: EYOCIG_clean_linker_4, # of connection points: 2
#     Edge 19, Type (0, 0), BuildingBlock: EYOCIG_clean_linker_4, # of connection points: 2
#     Edge 20, Type (0, 0), BuildingBlock: EYOCIG_clean_linker_4, # of connection points: 2
#     Edge 21, Type (0, 0), BuildingBlock: EYOCIG_clean_linker_4, # of connection points: 2
#     Edge 22, Type (0, 0), BuildingBlock: EYOCIG_clean_linker_4, # of connection points: 2
#     Edge 23, Type (0, 0), BuildingBlock: EYOCIG_clean_linker_4, # of connection points: 2
#     Edge 24, Type (0, 0), BuildingBlock: EYOCIG_clean_linker_4, # of connection points: 2
#     Edge 25, Type (0, 0), BuildingBlock: EYOCIG_clean_linker_4, # of connection points: 2
#     Edge 26, Type (0, 0), BuildingBlock: EYOCIG_clean_linker_4, # of connection points: 2
#     Edge 27, Type (0, 0), BuildingBlock: EYOCIG_clean_linker_4, # of connection points: 2
#     Edge 28, Type (0, 0), BuildingBlock: EYOCIG_clean_linker_4, # of connection points: 2
#     Edge 29, Type (0, 0), BuildingBlock: EYOCIG_clean_linker_4, # of connection points: 2
#     Edge 30, Type (0, 0), BuildingBlock: EYOCIG_clean_linker_4, # of connection points: 2
#     Edge 31, Type (0, 0), BuildingBlock: EYOCIG_clean_linker_4, # of connection points: 2
#     Edge 32, Type (0, 0), BuildingBlock: EYOCIG_clean_linker_4, # of connection points: 2
#     Edge 33, Type (0, 0), BuildingBlock: EYOCIG_clean_linker_4, # of connection points: 2
#     Edge 34, Type (0, 0), BuildingBlock: EYOCIG_clean_linker_4, # of connection points: 2
#     Edge 35, Type (0, 0), BuildingBlock: EYOCIG_clean_linker_4, # of connection points: 2
#     Edge 36, Type (0, 0), BuildingBlock: EYOCIG_clean_linker_4, # of connection points: 2
#     Edge 37, Type (0, 0), BuildingBlock: EYOCIG_clean_linker_4, # of connection points: 2
#     Edge 38, Type (0, 0), BuildingBlock: EYOCIG_clean_linker_4, # of connection points: 2
#     Edge 39, Type (0, 0), BuildingBlock: EYOCIG_clean_linker_4, # of connection points: 2
#     Edge 40, Type (0, 0), BuildingBlock: EYOCIG_clean_linker_4, # of connection points: 2
#     Edge 41, Type (0, 0), BuildingBlock: EYOCIG_clean_linker_4, # of connection points: 2
#     Edge 42, Type (0, 0), BuildingBlock: EYOCIG_clean_linker_4, # of connection points: 2
#     Edge 43, Type (0, 0), BuildingBlock: EYOCIG_clean_linker_4, # of connection points: 2
#     Edge 44, Type (0, 0), BuildingBlock: EYOCIG_clean_linker_4, # of connection points: 2
#     Edge 45, Type (0, 0), BuildingBlock: EYOCIG_clean_linker_4, # of connection points: 2
#     Edge 46, Type (0, 0), BuildingBlock: EYOCIG_clean_linker_4, # of connection points: 2
#     Edge 47, Type (0, 0), BuildingBlock: EYOCIG_clean_linker_4, # of connection points: 2
# Relax obj value: 0.143
# Max RMSD: 0.113
# Mean RMSD: 0.113
data_MOF--net-smw--node1-IZENUY_clean_sbu_0--edge1-EYOCIG_clean_linker_4
_symmetry_space_group_name_H-M    P1
_symmetry_Int_Tables_number       1
_symmetry_cell_setting            triclinic
loop_
_symmetry_equiv_pos_as_xyz
'x, y, z'
_cell_length_a     43.936557
_cell_length_b     43.955191
_cell_length_c     16.551239
_cell_angle_alpha  89.885844
_cell_angle_beta   89.999036
_cell_angle_gamma 119.98788
loop_
_atom_site_label
_atom_site_type_symbol
_atom_site_fract_x
_atom_site_fract_y
_atom_site_fract_z
_atom_type_partial_charge
Fe0 Fe 0.53083 0.19065 -0.01006 0.0
Fe1 Fe 0.50228 0.11105 -0.00804 0.0
O2 O 0.49458 0.14705 -0.00904 0.0
Fe3 Fe 0.45082 0.1394 -0.00913 0.0
O4 O 0.4578 0.16329 0.89665 0.0
O5 O 0.5087 0.20901 0.92955 0.0
O6 O 0.54712 0.18324 0.89561 0.0
C7 C 0.55424 0.15913 0.88506 0.0
C8 C 0.48717 0.19753 0.09627 0.0
O9 O 0.543 0.13323 0.93266 0.0
C10 C 0.44406 0.08854 0.09682 0.0
O11 O 0.55975 0.18042 0.05059 0.0
O12 O 0.52593 0.12518 0.08663 0.0
O13 O 0.4611 0.17841 0.05169 0.0
O14 O 0.51701 0.20101 0.0838 0.0
C15 C 0.44805 0.08742 0.88489 0.0
O16 O 0.46301 0.08192 0.0511 0.0
O17 O 0.44047 0.1149 0.08521 0.0
C18 C 0.55255 0.15494 0.0976 0.0
O19 O 0.47919 0.09466 0.89757 0.0
O20 O 0.43285 0.09905 0.92984 0.0
C21 C 0.48196 0.19441 0.88444 0.0
Fe22 Fe 0.36849 0.51672 0.98912 0.0
Fe23 Fe 0.41924 0.48778 -0.00962 0.0
O24 O 0.37563 0.48036 -0.00986 0.0
Fe25 Fe 0.33943 0.4367 -0.00905 0.0
O26 O 0.3224 0.44354 0.89681 0.0
O27 O 0.32796 0.4947 0.92892 0.0
O28 O 0.39217 0.53294 0.89463 0.0
C29 C 0.42342 0.54011 0.88392 0.0
C30 C 0.31796 0.47335 0.09609 0.0
O31 O 0.43796 0.52858 0.93105 0.0
C32 C 0.38365 0.42994 0.09631 0.0
O33 O 0.40769 0.54539 0.04956 0.0
O34 O 0.42893 0.51131 0.0849 0.0
O35 O 0.31085 0.44721 0.05177 0.0
O36 O 0.34435 0.50309 0.08318 0.0
C37 C 0.38822 0.43356 0.88428 0.0
O38 O 0.40901 0.44846 0.04957 0.0
O39 O 0.35374 0.42657 0.08534 0.0
C40 C 0.42581 0.5379 0.09629 0.0
O41 O 0.41221 0.4647 0.8961 0.0
O42 O 0.36162 0.4185 0.93004 0.0
C43 C 0.31562 0.46782 0.88426 0.0
Fe44 Fe 0.93068 0.32513 -0.00882 0.0
Fe45 Fe 0.87942 0.35383 -0.00877 0.0
O46 O 0.92303 0.36121 -0.00886 0.0
Fe47 Fe 0.95908 0.40485 -0.00917 0.0
O48 O 0.97505 0.39786 0.89624 0.0
O49 O 0.97104 0.34748 0.93014 0.0
O50 O 0.90678 0.30837 0.89705 0.0
C51 C 0.87569 0.30163 0.88508 0.0
C52 C 0.98164 0.36935 0.09634 0.0
O53 O 0.86103 0.31345 0.93097 0.0
C54 C 0.91564 0.41135 0.09757 0.0
O55 O 0.89167 0.29629 0.05201 0.0
O56 O 0.86927 0.32959 0.08531 0.0
O57 O 0.98834 0.39473 0.04969 0.0
O58 O 0.9552 0.33937 0.08541 0.0
C59 C 0.9105 0.40869 0.88539 0.0
O60 O 0.88986 0.39293 0.05171 0.0
O61 O 0.94539 0.4146 0.08554 0.0
C62 C 0.87265 0.30314 0.0972 0.0
O63 O 0.88646 0.3775 0.89683 0.0
O64 O 0.93676 0.42337 0.93181 0.0
C65 C 0.98234 0.37399 0.88423 0.0
Fe66 Fe 0.5819 0.94462 0.98946 0.0
Fe67 Fe 0.63332 0.91617 0.98931 0.0
O68 O 0.58953 0.90854 0.9891 0.0
Fe69 Fe 0.55327 0.8649 0.98881 0.0
O70 O 0.52455 0.87535 0.9284 0.0
O71 O 0.55813 0.93097 0.89489 0.0
O72 O 0.62115 0.97384 0.93029 0.0
C73 C 0.64014 0.96737 0.88434 0.0
C74 C 0.52953 0.89593 0.0951 0.0
O75 O 0.6438 0.94101 0.89546 0.0
C76 C 0.60171 0.86087 0.09474 0.0
O77 O 0.60508 0.96068 0.08395 0.0
O78 O 0.65136 0.95637 0.05094 0.0
O79 O 0.5365 0.87176 0.08329 0.0
O80 O 0.54122 0.92232 0.04892 0.0
C81 C 0.59737 0.85829 0.88272 0.0
O82 O 0.62606 0.89195 0.08309 0.0
O83 O 0.57522 0.84639 0.04896 0.0
C84 C 0.63625 0.96793 0.0963 0.0
O85 O 0.62324 0.87735 0.92787 0.0
O86 O 0.56749 0.85487 0.89465 0.0
C87 C 0.53163 0.90122 0.88293 0.0
Fe88 Fe 0.66496 0.56762 0.98921 0.0
Fe89 Fe 0.74475 0.61868 -0.00971 0.0
O90 O 0.70855 0.57502 -0.01032 0.0
Fe91 Fe 0.7157 0.53866 0.98954 0.0
O92 O 0.69223 0.52237 0.89497 0.0
O93 O 0.64637 0.52682 0.93026 0.0
O94 O 0.67228 0.59071 0.89462 0.0
C95 C 0.69629 0.62185 0.88274 0.0
C96 C 0.65811 0.51753 0.09596 0.0
O97 O 0.72271 0.63691 0.92884 0.0
C98 C 0.76602 0.58206 0.09637 0.0
O99 O 0.67506 0.60695 0.04793 0.0
O100 O 0.73024 0.62878 0.08433 0.0
O101 O 0.67637 0.51003 0.04982 0.0
O102 O 0.655 0.54409 0.08395 0.0
C103 C 0.76867 0.58749 0.88447 0.0
O104 O 0.77322 0.60817 0.05158 0.0
O105 O 0.73962 0.55233 0.08376 0.0
C106 C 0.7003 0.62542 0.09487 0.0
O107 O 0.76191 0.6118 0.89649 0.0
O108 O 0.75634 0.56068 0.9296 0.0
C109 C 0.66102 0.51522 0.88376 0.0
Fe110 Fe 0.12485 0.65041 -0.0098 0.0
Fe111 Fe 0.15326 0.73015 -0.00924 0.0
O112 O 0.16092 0.69406 -0.00985 0.0
Fe113 Fe 0.20451 0.70139 0.98953 0.0
O114 O 0.19729 0.67783 0.89506 0.0
O115 O 0.14713 0.63192 0.93101 0.0
O116 O 0.10883 0.65752 0.8958 0.0
C117 C 0.10153 0.68143 0.88388 0.0
C118 C 0.16841 0.64386 0.09644 0.0
O119 O 0.11293 0.70793 0.92965 0.0
C120 C 0.21132 0.75172 0.09635 0.0
O121 O 0.09558 0.6604 0.04924 0.0
O122 O 0.12873 0.71563 0.08502 0.0
O123 O 0.19408 0.66217 0.05001 0.0
O124 O 0.13865 0.64062 0.0848 0.0
C125 C 0.20831 0.75424 0.88442 0.0
O126 O 0.19224 0.75876 0.05177 0.0
O127 O 0.2148 0.72541 0.08363 0.0
C128 C 0.10227 0.68567 0.09594 0.0
O129 O 0.1772 0.74734 0.89673 0.0
O130 O 0.22291 0.74195 0.92931 0.0
C131 C 0.1733 0.64658 0.88415 0.0
Fe132 Fe 0.93026 0.61846 0.48959 0.0
Fe133 Fe 0.87916 0.53848 0.4912 0.0
O134 O 0.92271 0.57477 0.49047 0.0
Fe135 Fe 0.95883 0.56727 0.49064 0.0
O136 O 0.97484 0.59041 0.58489 0.0
O137 O 0.97064 0.63665 0.55051 0.0
O138 O 0.90638 0.61162 0.58368 0.0
C139 C 0.87529 0.58738 0.59605 0.0
C140 C 0.98121 0.62505 0.38439 0.0
O141 O 0.86069 0.56061 0.55109 0.0
C142 C 0.91535 0.51711 0.38474 0.0
O143 O 0.8912 0.60801 0.42873 0.0
O144 O 0.86888 0.55219 0.39694 0.0
O145 O 0.988 0.60653 0.43129 0.0
O146 O 0.95472 0.62851 0.39525 0.0
C147 C 0.91044 0.51503 0.59698 0.0
O148 O 0.88966 0.50972 0.4311 0.0
O149 O 0.94506 0.54367 0.39623 0.0
C150 C 0.87224 0.58194 0.38416 0.0
O151 O 0.88639 0.52221 0.58583 0.0
O152 O 0.93662 0.52653 0.55017 0.0
C153 C 0.98209 0.62158 0.59649 0.0
Fe154 Fe 0.33914 0.91627 0.48959 0.0
Fe155 Fe 0.36782 0.86495 0.49074 0.0
O156 O 0.37523 0.90857 0.48959 0.0
Fe157 Fe 0.41895 0.94453 0.48856 0.0
O158 O 0.41227 0.96104 0.5828 0.0
O159 O 0.36155 0.95667 0.55046 0.0
O160 O 0.32221 0.89244 0.58389 0.0
C161 C 0.31521 0.86131 0.59619 0.0
C162 C 0.38328 0.96703 0.38346 0.0
O163 O 0.3273 0.84666 0.5511 0.0
C164 C 0.42534 0.90055 0.38317 0.0
O165 O 0.31037 0.87723 0.42885 0.0
O166 O 0.34365 0.85459 0.39682 0.0
O167 O 0.40886 0.97364 0.42915 0.0
O168 O 0.35331 0.94071 0.39518 0.0
C169 C 0.42273 0.89647 0.59577 0.0
O170 O 0.40698 0.8751 0.43016 0.0
O171 O 0.42851 0.93033 0.39401 0.0
C172 C 0.31731 0.8581 0.38427 0.0
O173 O 0.39149 0.87237 0.58514 0.0
O174 O 0.43742 0.92235 0.54815 0.0
C175 C 0.3884 0.96833 0.59536 0.0
Fe176 Fe 0.53095 0.3541 0.49076 0.0
Fe177 Fe 0.50218 0.40499 0.4905 0.0
O178 O 0.49466 0.36138 0.49037 0.0
Fe179 Fe 0.45095 0.32526 0.48985 0.0
O180 O 0.4578 0.30816 0.58388 0.0
O181 O 0.50882 0.31348 0.55081 0.0
O182 O 0.54728 0.37755 0.58528 0.0
C183 C 0.55447 0.40876 0.59641 0.0
C184 C 0.48743 0.30382 0.384 0.0
O185 O 0.54295 0.42347 0.54971 0.0
C186 C 0.44435 0.36966 0.38471 0.0
O187 O 0.5597 0.39338 0.43045 0.0
O188 O 0.52576 0.41487 0.39591 0.0
O189 O 0.46137 0.29668 0.42887 0.0
O190 O 0.51721 0.33018 0.39656 0.0
C191 C 0.44786 0.37388 0.59679 0.0
O192 O 0.46289 0.39494 0.43146 0.0
O193 O 0.4409 0.33972 0.39561 0.0
C194 C 0.5523 0.41171 0.38417 0.0
O195 O 0.47905 0.3978 0.58494 0.0
O196 O 0.43278 0.34741 0.55092 0.0
C197 C 0.48204 0.30129 0.59602 0.0
Fe198 Fe 0.15366 0.4366 0.48967 0.0
Fe199 Fe 0.20468 0.51661 0.49133 0.0
O200 O 0.16115 0.48028 0.49046 0.0
Fe201 Fe 0.12501 0.48775 0.49034 0.0
O202 O 0.10889 0.46449 0.58458 0.0
O203 O 0.11323 0.41832 0.55062 0.0
O204 O 0.17748 0.44329 0.58378 0.0
C205 C 0.20855 0.46754 0.59621 0.0
C206 C 0.10273 0.43005 0.38435 0.0
O207 O 0.22313 0.49445 0.55139 0.0
C208 C 0.16862 0.53804 0.38444 0.0
O209 O 0.19277 0.44718 0.42878 0.0
O210 O 0.21517 0.50311 0.39718 0.0
O211 O 0.09591 0.44855 0.43107 0.0
O212 O 0.12925 0.42663 0.39531 0.0
C213 C 0.17317 0.53988 0.5968 0.0
O214 O 0.19421 0.54542 0.43103 0.0
O215 O 0.13891 0.51145 0.39587 0.0
C216 C 0.21181 0.47338 0.38432 0.0
O217 O 0.19724 0.53271 0.5859 0.0
O218 O 0.14709 0.52843 0.54979 0.0
C219 C 0.10169 0.43332 0.59637 0.0
Fe220 Fe 0.71603 0.19066 0.49132 0.0
Fe221 Fe 0.66507 0.11096 0.49179 0.0
O222 O 0.7087 0.14707 0.49149 0.0
Fe223 Fe 0.74489 0.13951 0.49117 0.0
O224 O 0.77376 0.1786 0.55167 0.0
O225 O 0.74036 0.20087 0.5853 0.0
O226 O 0.67692 0.18027 0.55194 0.0
C227 C 0.65837 0.15453 0.59795 0.0
C228 C 0.7682 0.19441 0.38489 0.0
O229 O 0.65516 0.12479 0.58632 0.0
C230 C 0.69588 0.08739 0.38518 0.0
O231 O 0.69228 0.18356 0.39704 0.0
O232 O 0.64651 0.1331 0.4323 0.0
O233 O 0.76148 0.16335 0.39685 0.0
O234 O 0.75641 0.20905 0.43085 0.0
C235 C 0.70086 0.08874 0.59725 0.0
O236 O 0.67202 0.09473 0.39738 0.0
O237 O 0.7226 0.09905 0.43045 0.0
C238 C 0.66113 0.15936 0.3857 0.0
O239 O 0.67533 0.08196 0.55119 0.0
O240 O 0.73083 0.1151 0.58559 0.0
C241 C 0.7669 0.19758 0.59697 0.0
Fe242 Fe 0.63335 0.73025 0.48853 0.0
Fe243 Fe 0.55336 0.70144 0.48965 0.0
O244 O 0.58963 0.69412 0.48914 0.0
Fe245 Fe 0.58209 0.65049 0.48935 0.0
O246 O 0.60534 0.65756 0.58351 0.0
O247 O 0.65157 0.70802 0.54926 0.0
O248 O 0.62643 0.74715 0.5828 0.0
C249 C 0.60212 0.75392 0.59503 0.0
C250 C 0.63987 0.68597 0.38307 0.0
O251 O 0.57549 0.74193 0.54958 0.0
C252 C 0.53176 0.64379 0.38356 0.0
O253 O 0.62296 0.75897 0.42781 0.0
O254 O 0.56717 0.72557 0.39533 0.0
O255 O 0.62128 0.66059 0.42979 0.0
O256 O 0.64342 0.71595 0.39414 0.0
C257 C 0.52996 0.6467 0.59578 0.0
O258 O 0.52452 0.66224 0.4296 0.0
O259 O 0.55833 0.64062 0.39506 0.0
C260 C 0.59698 0.75199 0.3829 0.0
O261 O 0.53703 0.67787 0.58431 0.0
O262 O 0.54143 0.632 0.5491 0.0
C263 C 0.63654 0.68146 0.5951 0.0
C264 C 0.48232 0.23704 0.20954 0.0
C265 C 0.48376 0.2187 0.15742 0.0
C266 C 0.48246 0.25961 0.27023 0.0
C267 C 0.48408 0.2794 0.32252 0.0
C268 C 0.2513 0.46873 0.27055 0.0
C269 C 0.23301 0.4702 0.32284 0.0
C270 C 0.27377 0.46869 0.20978 0.0
C271 C 0.29352 0.47012 0.15751 0.0
C272 C 0.8334 0.25761 0.2095 0.0
C273 C 0.85145 0.27821 0.15804 0.0
C274 C 0.81129 0.23392 0.26932 0.0
C275 C 0.79178 0.21482 0.32115 0.0
C276 C 0.60326 0.79727 0.26986 0.0
C277 C 0.60062 0.77673 0.32159 0.0
C278 C 0.60504 0.82104 0.20994 0.0
C279 C 0.60479 0.8403 0.15831 0.0
C280 C 0.81022 0.58676 0.21 0.0
C281 C 0.79045 0.58528 0.15775 0.0
C282 C 0.83274 0.58674 0.27064 0.0
C283 C 0.85105 0.58523 0.32284 0.0
C284 C 0.27297 0.81859 0.27086 0.0
C285 C 0.29273 0.83694 0.32304 0.0
C286 C 0.25057 0.796 0.21012 0.0
C287 C 0.23239 0.77617 0.15784 0.0
C288 C 0.60577 0.79719 0.71037 0.0
C289 C 0.60542 0.77763 0.65871 0.0
C290 C 0.60399 0.81925 0.77017 0.0
C291 C 0.60123 0.83717 0.82168 0.0
C292 C 0.81319 0.59276 0.77028 0.0
C293 C 0.79299 0.59127 0.82175 0.0
C294 C 0.83621 0.59274 0.71046 0.0
C295 C 0.85485 0.59122 0.6589 0.0
C296 C 0.27059 0.82215 0.71058 0.0
C297 C 0.29083 0.84087 0.65907 0.0
C298 C 0.2475 0.799 0.77029 0.0
C299 C 0.2288 0.7787 0.82171 0.0
C300 C 0.47661 0.2567 0.71035 0.0
C301 C 0.47817 0.27693 0.65882 0.0
C302 C 0.47656 0.2336 0.77013 0.0
C303 C 0.47807 0.21488 0.82161 0.0
C304 C 0.24774 0.46215 0.71048 0.0
C305 C 0.229 0.46362 0.65903 0.0
C306 C 0.2709 0.46227 0.77018 0.0
C307 C 0.29119 0.46389 0.82161 0.0
C308 C 0.83621 0.2587 0.76928 0.0
C309 C 0.85531 0.27812 0.82119 0.0
C310 C 0.81249 0.23671 0.70932 0.0
C311 C 0.79186 0.21873 0.65787 0.0
C312 C 0.39697 1.01416 0.26926 0.0
C313 C 0.38864 0.99152 0.31984 0.0
C314 C 0.41056 0.04135 0.21086 0.0
C315 C 0.42488 0.06401 0.16036 0.0
C316 C 0.41121 0.38353 0.27004 0.0
C317 C 0.42546 0.37525 0.32087 0.0
C318 C 0.39758 0.39692 0.21119 0.0
C319 C 0.38916 0.41106 0.16035 0.0
C320 C 0.05576 0.39698 0.26968 0.0
C321 C 0.07829 0.41117 0.32047 0.0
C322 C 1.02872 0.38339 0.21093 0.0
C323 C 1.00613 0.37494 0.16021 0.0
C324 C 0.66977 1.01468 0.21039 0.0
C325 C 0.65601 0.99326 0.15749 0.0
C326 C 0.68254 0.04032 0.27184 0.0
C327 C 0.69022 0.06188 0.32439 0.0
C328 C 0.68625 0.65846 0.20929 0.0
C329 C 0.69464 0.64427 0.15861 0.0
C330 C 0.67278 0.672 0.26808 0.0
C331 C 0.65868 0.68041 0.31899 0.0
C332 C 1.02818 0.65807 0.26948 0.0
C333 C 1.00565 0.6439 0.32037 0.0
C334 C 0.05521 0.6716 0.21063 0.0
C335 C 0.07777 0.68001 0.15982 0.0
C336 C 0.68716 0.04186 0.71204 0.0
C337 C 0.69549 0.06439 0.66119 0.0
C338 C 0.67358 1.01474 0.77057 0.0
C339 C 0.65926 0.99203 0.82097 0.0
C340 C 0.68335 0.65561 0.76912 0.0
C341 C 0.69091 0.64176 0.82189 0.0
C342 C 0.67047 0.66836 0.70793 0.0
C343 C 0.65649 0.67593 0.65553 0.0
C344 C 1.029 0.65537 0.70951 0.0
C345 C 1.0075 0.64148 0.65703 0.0
C346 C 0.05464 0.66823 0.77064 0.0
C347 C 0.07613 0.67588 0.82321 0.0
C348 C 0.40191 1.01518 0.7092 0.0
C349 C 0.39413 0.99372 0.65643 0.0
C350 C 0.41472 0.04071 0.77078 0.0
C351 C 0.42843 0.06212 0.82366 0.0
C352 C 0.40134 0.39982 0.77119 0.0
C353 C 0.39373 0.41369 0.8237 0.0
C354 C 0.41413 0.387 0.71004 0.0
C355 C 0.42798 0.37938 0.65745 0.0
C356 C 1.02907 0.38699 0.77064 0.0
C357 C 1.00765 0.37954 0.82334 0.0
C358 C 0.05468 0.39959 0.70942 0.0
C359 C 0.07623 0.41338 0.6569 0.0
C360 C 0.5979 0.16143 0.21051 0.0
C361 C 0.57741 0.15881 0.15875 0.0
C362 C 0.62152 0.16299 0.27046 0.0
C363 C 0.64065 0.16254 0.32213 0.0
C364 C 0.46483 0.58203 0.21003 0.0
C365 C 0.44674 0.56233 0.15766 0.0
C366 C 0.48727 0.60446 0.27066 0.0
C367 C 0.50713 0.6227 0.32264 0.0
C368 C 0.9104 0.47287 0.27151 0.0
C369 C 0.91191 0.4926 0.32366 0.0
C370 C 0.91053 0.4505 0.21094 0.0
C371 C 0.91219 0.43236 0.15878 0.0
C372 C 0.46425 0.89393 0.27046 0.0
C373 C 0.44636 0.89662 0.32212 0.0
C374 C 0.48631 0.89226 0.21055 0.0
C375 C 0.50587 0.89265 0.15884 0.0
C376 C 0.61891 0.47341 0.2098 0.0
C377 C 0.63707 0.49314 0.15741 0.0
C378 C 0.59652 0.45098 0.27058 0.0
C379 C 0.57678 0.43276 0.32289 0.0
C380 C 0.17371 0.58236 0.27088 0.0
C381 C 0.17216 0.5626 0.32319 0.0
C382 C 0.17362 0.60475 0.21012 0.0
C383 C 0.17195 0.62288 0.15779 0.0
C384 C 0.48621 0.89494 0.77065 0.0
C385 C 0.50682 0.8976 0.82204 0.0
C386 C 0.46243 0.89319 0.71101 0.0
C387 C 0.44323 0.89347 0.65939 0.0
C388 C 0.6218 0.47085 0.76997 0.0
C389 C 0.64049 0.49101 0.82124 0.0
C390 C 0.59879 0.44787 0.71045 0.0
C391 C 0.57866 0.42922 0.65907 0.0
C392 C 0.17818 0.58418 0.71076 0.0
C393 C 0.17674 0.56405 0.65939 0.0
C394 C 0.17828 0.60726 0.77025 0.0
C395 C 0.17694 0.62603 0.82152 0.0
C396 C 0.61935 0.1608 0.71045 0.0
C397 C 0.63727 0.15819 0.65892 0.0
C398 C 0.59731 0.16247 0.7701 0.0
C399 C 0.57778 0.16213 0.82162 0.0
C400 C 0.48589 0.60756 0.71046 0.0
C401 C 0.50591 0.62623 0.6588 0.0
C402 C 0.46289 0.58451 0.7701 0.0
C403 C 0.44411 0.56433 0.8214 0.0
C404 C 0.90532 0.47075 0.71124 0.0
C405 C 0.90678 0.49087 0.65975 0.0
C406 C 0.90533 0.44778 0.77099 0.0
C407 C 0.9068 0.42915 0.82255 0.0
loop_
_geom_bond_atom_site_label_1
_geom_bond_atom_site_label_2
_geom_bond_distance
_geom_bond_site_symmetry_2
_ccdc_geom_bond_type
Fe0 O2 1.918 . S
Fe0 O5 1.997 1_554 S
Fe0 O6 2.002 1_554 S
Fe0 O11 1.976 . S
Fe0 O14 1.996 . S
Fe1 O2 1.918 . S
Fe1 O9 1.997 1_554 S
Fe1 O12 1.996 . S
Fe1 O16 1.976 . S
Fe1 O19 2.002 1_554 S
O2 Fe0 1.918 . S
O2 Fe1 1.918 . S
O2 Fe3 1.918 . S
Fe3 O2 1.918 . S
Fe3 O4 2.002 1_554 S
Fe3 O13 1.976 . S
Fe3 O17 1.996 . S
Fe3 O20 1.997 1_554 S
O4 Fe3 2.002 1_556 S
O4 C21 1.295 . S
O5 Fe0 1.997 1_556 S
O5 C21 1.235 . S
O6 Fe0 2.002 1_556 S
O6 C7 1.295 . S
C7 O6 1.295 . S
C7 O9 1.235 . S
C8 O13 1.287 . S
C8 O14 1.255 . S
O9 Fe1 1.997 1_556 S
O9 C7 1.235 . S
C10 O16 1.287 . S
C10 O17 1.255 . S
O11 Fe0 1.976 . S
O11 C18 1.287 . S
O12 Fe1 1.996 . S
O12 C18 1.255 . S
O13 Fe3 1.976 . S
O13 C8 1.287 . S
O14 Fe0 1.996 . S
O14 C8 1.255 . S
C15 O19 1.295 . S
C15 O20 1.235 . S
O16 Fe1 1.976 . S
O16 C10 1.287 . S
O17 Fe3 1.996 . S
O17 C10 1.255 . S
C18 O11 1.287 . S
C18 O12 1.255 . S
O19 Fe1 2.002 1_556 S
O19 C15 1.295 . S
O20 Fe3 1.997 1_556 S
O20 C15 1.235 . S
C21 O4 1.295 . S
C21 O5 1.235 . S
Fe22 O24 1.918 . S
Fe22 O27 1.997 1_554 S
Fe22 O28 2.002 1_554 S
Fe22 O33 1.976 . S
Fe22 O36 1.996 . S
Fe23 O24 1.918 . S
Fe23 O31 1.997 1_554 S
Fe23 O34 1.996 . S
Fe23 O38 1.976 . S
Fe23 O41 2.002 1_554 S
O24 Fe22 1.918 . S
O24 Fe23 1.918 . S
O24 Fe25 1.918 . S
Fe25 O24 1.918 . S
Fe25 O26 2.002 1_554 S
Fe25 O35 1.976 . S
Fe25 O39 1.996 . S
Fe25 O42 1.997 1_554 S
O26 Fe25 2.002 1_556 S
O26 C43 1.295 . S
O27 Fe22 1.997 1_556 S
O27 C43 1.235 . S
O28 Fe22 2.002 1_556 S
O28 C29 1.295 . S
C29 O28 1.295 . S
C29 O31 1.235 . S
C30 O35 1.287 . S
C30 O36 1.255 . S
O31 Fe23 1.997 1_556 S
O31 C29 1.235 . S
C32 O38 1.287 . S
C32 O39 1.255 . S
O33 Fe22 1.976 . S
O33 C40 1.287 . S
O34 Fe23 1.996 . S
O34 C40 1.255 . S
O35 Fe25 1.976 . S
O35 C30 1.287 . S
O36 Fe22 1.996 . S
O36 C30 1.255 . S
C37 O41 1.295 . S
C37 O42 1.235 . S
O38 Fe23 1.976 . S
O38 C32 1.287 . S
O39 Fe25 1.996 . S
O39 C32 1.255 . S
C40 O33 1.287 . S
C40 O34 1.255 . S
O41 Fe23 2.002 1_556 S
O41 C37 1.295 . S
O42 Fe25 1.997 1_556 S
O42 C37 1.235 . S
C43 O26 1.295 . S
C43 O27 1.235 . S
Fe44 O46 1.918 . S
Fe44 O49 1.997 1_554 S
Fe44 O50 2.002 1_554 S
Fe44 O55 1.976 . S
Fe44 O58 1.996 . S
Fe45 O46 1.918 . S
Fe45 O53 1.997 1_554 S
Fe45 O56 1.996 . S
Fe45 O60 1.976 . S
Fe45 O63 2.002 1_554 S
O46 Fe44 1.918 . S
O46 Fe45 1.918 . S
O46 Fe47 1.918 . S
Fe47 O46 1.918 . S
Fe47 O48 2.002 1_554 S
Fe47 O57 1.976 . S
Fe47 O61 1.996 . S
Fe47 O64 1.997 1_554 S
O48 Fe47 2.002 1_556 S
O48 C65 1.295 . S
O49 Fe44 1.997 1_556 S
O49 C65 1.235 . S
O50 Fe44 2.002 1_556 S
O50 C51 1.295 . S
C51 O50 1.295 . S
C51 O53 1.235 . S
C52 O57 1.287 . S
C52 O58 1.255 . S
O53 Fe45 1.997 1_556 S
O53 C51 1.235 . S
C54 O60 1.287 . S
C54 O61 1.255 . S
O55 Fe44 1.976 . S
O55 C62 1.287 . S
O56 Fe45 1.996 . S
O56 C62 1.255 . S
O57 Fe47 1.976 . S
O57 C52 1.287 . S
O58 Fe44 1.996 . S
O58 C52 1.255 . S
C59 O63 1.295 . S
C59 O64 1.235 . S
O60 Fe45 1.976 . S
O60 C54 1.287 . S
O61 Fe47 1.996 . S
O61 C54 1.255 . S
C62 O55 1.287 . S
C62 O56 1.255 . S
O63 Fe45 2.002 1_556 S
O63 C59 1.295 . S
O64 Fe47 1.997 1_556 S
O64 C59 1.235 . S
C65 O48 1.295 . S
C65 O49 1.235 . S
Fe66 O68 1.918 . S
Fe66 O71 1.997 1_554 S
Fe66 O72 2.002 1_554 S
Fe66 O77 1.976 . S
Fe66 O80 1.996 . S
Fe67 O68 1.918 . S
Fe67 O75 1.997 1_554 S
Fe67 O78 1.996 . S
Fe67 O82 1.976 . S
Fe67 O85 2.002 1_554 S
O68 Fe66 1.918 . S
O68 Fe67 1.918 . S
O68 Fe69 1.918 . S
Fe69 O68 1.918 . S
Fe69 O70 2.002 1_554 S
Fe69 O79 1.976 . S
Fe69 O83 1.996 . S
Fe69 O86 1.997 1_554 S
O70 Fe69 2.002 1_556 S
O70 C87 1.295 . S
O71 Fe66 1.997 1_556 S
O71 C87 1.235 . S
O72 Fe66 2.002 1_556 S
O72 C73 1.295 . S
C73 O72 1.295 . S
C73 O75 1.235 . S
C74 O79 1.287 . S
C74 O80 1.255 . S
O75 Fe67 1.997 1_556 S
O75 C73 1.235 . S
C76 O82 1.287 . S
C76 O83 1.255 . S
O77 Fe66 1.976 . S
O77 C84 1.287 . S
O78 Fe67 1.996 . S
O78 C84 1.255 . S
O79 Fe69 1.976 . S
O79 C74 1.287 . S
O80 Fe66 1.996 . S
O80 C74 1.255 . S
C81 O85 1.295 . S
C81 O86 1.235 . S
O82 Fe67 1.976 . S
O82 C76 1.287 . S
O83 Fe69 1.996 . S
O83 C76 1.255 . S
C84 O77 1.287 . S
C84 O78 1.255 . S
O85 Fe67 2.002 1_556 S
O85 C81 1.295 . S
O86 Fe69 1.997 1_556 S
O86 C81 1.235 . S
C87 O70 1.295 . S
C87 O71 1.235 . S
Fe88 O90 1.918 . S
Fe88 O93 1.997 1_554 S
Fe88 O94 2.002 1_554 S
Fe88 O99 1.976 . S
Fe88 O102 1.996 . S
Fe89 O90 1.918 . S
Fe89 O97 1.997 1_554 S
Fe89 O100 1.996 . S
Fe89 O104 1.976 . S
Fe89 O107 2.002 1_554 S
O90 Fe88 1.918 . S
O90 Fe89 1.918 . S
O90 Fe91 1.918 . S
Fe91 O90 1.918 . S
Fe91 O92 2.002 1_554 S
Fe91 O101 1.976 . S
Fe91 O105 1.996 . S
Fe91 O108 1.997 1_554 S
O92 Fe91 2.002 1_556 S
O92 C109 1.295 . S
O93 Fe88 1.997 1_556 S
O93 C109 1.235 . S
O94 Fe88 2.002 1_556 S
O94 C95 1.295 . S
C95 O94 1.295 . S
C95 O97 1.235 . S
C96 O101 1.287 . S
C96 O102 1.255 . S
O97 Fe89 1.997 1_556 S
O97 C95 1.235 . S
C98 O104 1.287 . S
C98 O105 1.255 . S
O99 Fe88 1.976 . S
O99 C106 1.287 . S
O100 Fe89 1.996 . S
O100 C106 1.255 . S
O101 Fe91 1.976 . S
O101 C96 1.287 . S
O102 Fe88 1.996 . S
O102 C96 1.255 . S
C103 O107 1.295 . S
C103 O108 1.235 . S
O104 Fe89 1.976 . S
O104 C98 1.287 . S
O105 Fe91 1.996 . S
O105 C98 1.255 . S
C106 O99 1.287 . S
C106 O100 1.255 . S
O107 Fe89 2.002 1_556 S
O107 C103 1.295 . S
O108 Fe91 1.997 1_556 S
O108 C103 1.235 . S
C109 O92 1.295 . S
C109 O93 1.235 . S
Fe110 O112 1.918 . S
Fe110 O115 1.997 1_554 S
Fe110 O116 2.002 1_554 S
Fe110 O121 1.976 . S
Fe110 O124 1.996 . S
Fe111 O112 1.918 . S
Fe111 O119 1.997 1_554 S
Fe111 O122 1.996 . S
Fe111 O126 1.976 . S
Fe111 O129 2.002 1_554 S
O112 Fe110 1.918 . S
O112 Fe111 1.918 . S
O112 Fe113 1.918 . S
Fe113 O112 1.918 . S
Fe113 O114 2.002 1_554 S
Fe113 O123 1.976 . S
Fe113 O127 1.996 . S
Fe113 O130 1.997 1_554 S
O114 Fe113 2.002 1_556 S
O114 C131 1.295 . S
O115 Fe110 1.997 1_556 S
O115 C131 1.235 . S
O116 Fe110 2.002 1_556 S
O116 C117 1.295 . S
C117 O116 1.295 . S
C117 O119 1.235 . S
C118 O123 1.287 . S
C118 O124 1.255 . S
O119 Fe111 1.997 1_556 S
O119 C117 1.235 . S
C120 O126 1.287 . S
C120 O127 1.255 . S
O121 Fe110 1.976 . S
O121 C128 1.287 . S
O122 Fe111 1.996 . S
O122 C128 1.255 . S
O123 Fe113 1.976 . S
O123 C118 1.287 . S
O124 Fe110 1.996 . S
O124 C118 1.255 . S
C125 O129 1.295 . S
C125 O130 1.235 . S
O126 Fe111 1.976 . S
O126 C120 1.287 . S
O127 Fe113 1.996 . S
O127 C120 1.255 . S
C128 O121 1.287 . S
C128 O122 1.255 . S
O129 Fe111 2.002 1_556 S
O129 C125 1.295 . S
O130 Fe113 1.997 1_556 S
O130 C125 1.235 . S
C131 O114 1.295 . S
C131 O115 1.235 . S
Fe132 O134 1.918 . S
Fe132 O137 1.997 . S
Fe132 O138 2.002 . S
Fe132 O143 1.976 . S
Fe132 O146 1.996 . S
Fe133 O134 1.918 . S
Fe133 O141 1.997 . S
Fe133 O144 1.996 . S
Fe133 O148 1.976 . S
Fe133 O151 2.002 . S
O134 Fe132 1.918 . S
O134 Fe133 1.918 . S
O134 Fe135 1.918 . S
Fe135 O134 1.918 . S
Fe135 O136 2.002 . S
Fe135 O145 1.976 . S
Fe135 O149 1.996 . S
Fe135 O152 1.997 . S
O136 Fe135 2.002 . S
O136 C153 1.295 . S
O137 Fe132 1.997 . S
O137 C153 1.235 . S
O138 Fe132 2.002 . S
O138 C139 1.295 . S
C139 O138 1.295 . S
C139 O141 1.235 . S
C140 O145 1.287 . S
C140 O146 1.255 . S
O141 Fe133 1.997 . S
O141 C139 1.235 . S
C142 O148 1.287 . S
C142 O149 1.255 . S
O143 Fe132 1.976 . S
O143 C150 1.287 . S
O144 Fe133 1.996 . S
O144 C150 1.255 . S
O145 Fe135 1.976 . S
O145 C140 1.287 . S
O146 Fe132 1.996 . S
O146 C140 1.255 . S
C147 O151 1.295 . S
C147 O152 1.235 . S
O148 Fe133 1.976 . S
O148 C142 1.287 . S
O149 Fe135 1.996 . S
O149 C142 1.255 . S
C150 O143 1.287 . S
C150 O144 1.255 . S
O151 Fe133 2.002 . S
O151 C147 1.295 . S
O152 Fe135 1.997 . S
O152 C147 1.235 . S
C153 O136 1.295 . S
C153 O137 1.235 . S
Fe154 O156 1.918 . S
Fe154 O159 1.997 . S
Fe154 O160 2.002 . S
Fe154 O165 1.976 . S
Fe154 O168 1.996 . S
Fe155 O156 1.918 . S
Fe155 O163 1.997 . S
Fe155 O166 1.996 . S
Fe155 O170 1.976 . S
Fe155 O173 2.002 . S
O156 Fe154 1.918 . S
O156 Fe155 1.918 . S
O156 Fe157 1.918 . S
Fe157 O156 1.918 . S
Fe157 O158 2.002 . S
Fe157 O167 1.976 . S
Fe157 O171 1.996 . S
Fe157 O174 1.997 . S
O158 Fe157 2.002 . S
O158 C175 1.295 . S
O159 Fe154 1.997 . S
O159 C175 1.235 . S
O160 Fe154 2.002 . S
O160 C161 1.295 . S
C161 O160 1.295 . S
C161 O163 1.235 . S
C162 O167 1.287 . S
C162 O168 1.255 . S
O163 Fe155 1.997 . S
O163 C161 1.235 . S
C164 O170 1.287 . S
C164 O171 1.255 . S
O165 Fe154 1.976 . S
O165 C172 1.287 . S
O166 Fe155 1.996 . S
O166 C172 1.255 . S
O167 Fe157 1.976 . S
O167 C162 1.287 . S
O168 Fe154 1.996 . S
O168 C162 1.255 . S
C169 O173 1.295 . S
C169 O174 1.235 . S
O170 Fe155 1.976 . S
O170 C164 1.287 . S
O171 Fe157 1.996 . S
O171 C164 1.255 . S
C172 O165 1.287 . S
C172 O166 1.255 . S
O173 Fe155 2.002 . S
O173 C169 1.295 . S
O174 Fe157 1.997 . S
O174 C169 1.235 . S
C175 O158 1.295 . S
C175 O159 1.235 . S
Fe176 O178 1.918 . S
Fe176 O181 1.997 . S
Fe176 O182 2.002 . S
Fe176 O187 1.976 . S
Fe176 O190 1.996 . S
Fe177 O178 1.918 . S
Fe177 O185 1.997 . S
Fe177 O188 1.996 . S
Fe177 O192 1.976 . S
Fe177 O195 2.002 . S
O178 Fe176 1.918 . S
O178 Fe177 1.918 . S
O178 Fe179 1.918 . S
Fe179 O178 1.918 . S
Fe179 O180 2.002 . S
Fe179 O189 1.976 . S
Fe179 O193 1.996 . S
Fe179 O196 1.997 . S
O180 Fe179 2.002 . S
O180 C197 1.295 . S
O181 Fe176 1.997 . S
O181 C197 1.235 . S
O182 Fe176 2.002 . S
O182 C183 1.295 . S
C183 O182 1.295 . S
C183 O185 1.235 . S
C184 O189 1.287 . S
C184 O190 1.255 . S
O185 Fe177 1.997 . S
O185 C183 1.235 . S
C186 O192 1.287 . S
C186 O193 1.255 . S
O187 Fe176 1.976 . S
O187 C194 1.287 . S
O188 Fe177 1.996 . S
O188 C194 1.255 . S
O189 Fe179 1.976 . S
O189 C184 1.287 . S
O190 Fe176 1.996 . S
O190 C184 1.255 . S
C191 O195 1.295 . S
C191 O196 1.235 . S
O192 Fe177 1.976 . S
O192 C186 1.287 . S
O193 Fe179 1.996 . S
O193 C186 1.255 . S
C194 O187 1.287 . S
C194 O188 1.255 . S
O195 Fe177 2.002 . S
O195 C191 1.295 . S
O196 Fe179 1.997 . S
O196 C191 1.235 . S
C197 O180 1.295 . S
C197 O181 1.235 . S
Fe198 O200 1.918 . S
Fe198 O203 1.997 . S
Fe198 O204 2.002 . S
Fe198 O209 1.976 . S
Fe198 O212 1.996 . S
Fe199 O200 1.918 . S
Fe199 O207 1.997 . S
Fe199 O210 1.996 . S
Fe199 O214 1.976 . S
Fe199 O217 2.002 . S
O200 Fe198 1.918 . S
O200 Fe199 1.918 . S
O200 Fe201 1.918 . S
Fe201 O200 1.918 . S
Fe201 O202 2.002 . S
Fe201 O211 1.976 . S
Fe201 O215 1.996 . S
Fe201 O218 1.997 . S
O202 Fe201 2.002 . S
O202 C219 1.295 . S
O203 Fe198 1.997 . S
O203 C219 1.235 . S
O204 Fe198 2.002 . S
O204 C205 1.295 . S
C205 O204 1.295 . S
C205 O207 1.235 . S
C206 O211 1.287 . S
C206 O212 1.255 . S
O207 Fe199 1.997 . S
O207 C205 1.235 . S
C208 O214 1.287 . S
C208 O215 1.255 . S
O209 Fe198 1.976 . S
O209 C216 1.287 . S
O210 Fe199 1.996 . S
O210 C216 1.255 . S
O211 Fe201 1.976 . S
O211 C206 1.287 . S
O212 Fe198 1.996 . S
O212 C206 1.255 . S
C213 O217 1.295 . S
C213 O218 1.235 . S
O214 Fe199 1.976 . S
O214 C208 1.287 . S
O215 Fe201 1.996 . S
O215 C208 1.255 . S
C216 O209 1.287 . S
C216 O210 1.255 . S
O217 Fe199 2.002 . S
O217 C213 1.295 . S
O218 Fe201 1.997 . S
O218 C213 1.235 . S
C219 O202 1.295 . S
C219 O203 1.235 . S
Fe220 O222 1.918 . S
Fe220 O225 1.997 . S
Fe220 O226 2.002 . S
Fe220 O231 1.976 . S
Fe220 O234 1.996 . S
Fe221 O222 1.918 . S
Fe221 O229 1.997 . S
Fe221 O232 1.996 . S
Fe221 O236 1.976 . S
Fe221 O239 2.002 . S
O222 Fe220 1.918 . S
O222 Fe221 1.918 . S
O222 Fe223 1.918 . S
Fe223 O222 1.918 . S
Fe223 O224 2.002 . S
Fe223 O233 1.976 . S
Fe223 O237 1.996 . S
Fe223 O240 1.997 . S
O224 Fe223 2.002 . S
O224 C241 1.295 . S
O225 Fe220 1.997 . S
O225 C241 1.235 . S
O226 Fe220 2.002 . S
O226 C227 1.295 . S
C227 O226 1.295 . S
C227 O229 1.235 . S
C228 O233 1.287 . S
C228 O234 1.255 . S
O229 Fe221 1.997 . S
O229 C227 1.235 . S
C230 O236 1.287 . S
C230 O237 1.255 . S
O231 Fe220 1.976 . S
O231 C238 1.287 . S
O232 Fe221 1.996 . S
O232 C238 1.255 . S
O233 Fe223 1.976 . S
O233 C228 1.287 . S
O234 Fe220 1.996 . S
O234 C228 1.255 . S
C235 O239 1.295 . S
C235 O240 1.235 . S
O236 Fe221 1.976 . S
O236 C230 1.287 . S
O237 Fe223 1.996 . S
O237 C230 1.255 . S
C238 O231 1.287 . S
C238 O232 1.255 . S
O239 Fe221 2.002 . S
O239 C235 1.295 . S
O240 Fe223 1.997 . S
O240 C235 1.235 . S
C241 O224 1.295 . S
C241 O225 1.235 . S
Fe242 O244 1.918 . S
Fe242 O247 1.997 . S
Fe242 O248 2.002 . S
Fe242 O253 1.976 . S
Fe242 O256 1.996 . S
Fe243 O244 1.918 . S
Fe243 O251 1.997 . S
Fe243 O254 1.996 . S
Fe243 O258 1.976 . S
Fe243 O261 2.002 . S
O244 Fe242 1.918 . S
O244 Fe243 1.918 . S
O244 Fe245 1.918 . S
Fe245 O244 1.918 . S
Fe245 O246 2.002 . S
Fe245 O255 1.976 . S
Fe245 O259 1.996 . S
Fe245 O262 1.997 . S
O246 Fe245 2.002 . S
O246 C263 1.295 . S
O247 Fe242 1.997 . S
O247 C263 1.235 . S
O248 Fe242 2.002 . S
O248 C249 1.295 . S
C249 O248 1.295 . S
C249 O251 1.235 . S
C250 O255 1.287 . S
C250 O256 1.255 . S
O251 Fe243 1.997 . S
O251 C249 1.235 . S
C252 O258 1.287 . S
C252 O259 1.255 . S
O253 Fe242 1.976 . S
O253 C260 1.287 . S
O254 Fe243 1.996 . S
O254 C260 1.255 . S
O255 Fe245 1.976 . S
O255 C250 1.287 . S
O256 Fe242 1.996 . S
O256 C250 1.255 . S
C257 O261 1.295 . S
C257 O262 1.235 . S
O258 Fe243 1.976 . S
O258 C252 1.287 . S
O259 Fe245 1.996 . S
O259 C252 1.255 . S
C260 O253 1.287 . S
C260 O254 1.255 . S
O261 Fe243 2.002 . S
O261 C257 1.295 . S
O262 Fe245 1.997 . S
O262 C257 1.235 . S
C263 O246 1.295 . S
C263 O247 1.235 . S
C264 C265 1.170 . S
C264 C266 1.380 . S
C265 C264 1.170 . S
C266 C264 1.380 . S
C266 C267 1.170 . S
C267 C266 1.170 . S
C268 C269 1.170 . S
C268 C270 1.380 . S
C269 C268 1.170 . S
C270 C268 1.380 . S
C270 C271 1.170 . S
C271 C270 1.170 . S
C272 C273 1.170 . S
C272 C274 1.380 . S
C273 C272 1.170 . S
C274 C272 1.380 . S
C274 C275 1.170 . S
C275 C274 1.170 . S
C276 C277 1.170 . S
C276 C278 1.380 . S
C277 C276 1.170 . S
C278 C276 1.380 . S
C278 C279 1.170 . S
C279 C278 1.170 . S
C280 C281 1.170 . S
C280 C282 1.380 . S
C281 C280 1.170 . S
C282 C280 1.380 . S
C282 C283 1.170 . S
C283 C282 1.170 . S
C284 C285 1.170 . S
C284 C286 1.380 . S
C285 C284 1.170 . S
C286 C284 1.380 . S
C286 C287 1.170 . S
C287 C286 1.170 . S
C288 C289 1.170 . S
C288 C290 1.380 . S
C289 C288 1.170 . S
C290 C288 1.380 . S
C290 C291 1.170 . S
C291 C290 1.170 . S
C292 C293 1.170 . S
C292 C294 1.380 . S
C293 C292 1.170 . S
C294 C292 1.380 . S
C294 C295 1.170 . S
C295 C294 1.170 . S
C296 C297 1.170 . S
C296 C298 1.380 . S
C297 C296 1.170 . S
C298 C296 1.380 . S
C298 C299 1.170 . S
C299 C298 1.170 . S
C300 C301 1.170 . S
C300 C302 1.380 . S
C301 C300 1.170 . S
C302 C300 1.380 . S
C302 C303 1.170 . S
C303 C302 1.170 . S
C304 C305 1.170 . S
C304 C306 1.380 . S
C305 C304 1.170 . S
C306 C304 1.380 . S
C306 C307 1.170 . S
C307 C306 1.170 . S
C308 C309 1.170 . S
C308 C310 1.380 . S
C309 C308 1.170 . S
C310 C308 1.380 . S
C310 C311 1.170 . S
C311 C310 1.170 . S
C312 C313 1.170 . S
C312 C314 1.380 1_565 S
C313 C312 1.170 . S
C314 C312 1.380 1_545 S
C314 C315 1.170 . S
C315 C314 1.170 . S
C316 C317 1.170 . S
C316 C318 1.380 . S
C317 C316 1.170 . S
C318 C316 1.380 . S
C318 C319 1.170 . S
C319 C318 1.170 . S
C320 C321 1.170 . S
C320 C322 1.380 1_455 S
C321 C320 1.170 . S
C322 C320 1.380 1_655 S
C322 C323 1.170 . S
C323 C322 1.170 . S
C324 C325 1.170 . S
C324 C326 1.380 1_565 S
C325 C324 1.170 . S
C326 C324 1.380 1_545 S
C326 C327 1.170 . S
C327 C326 1.170 . S
C328 C329 1.170 . S
C328 C330 1.380 . S
C329 C328 1.170 . S
C330 C328 1.380 . S
C330 C331 1.170 . S
C331 C330 1.170 . S
C332 C333 1.170 . S
C332 C334 1.380 1_655 S
C333 C332 1.170 . S
C334 C332 1.380 1_455 S
C334 C335 1.170 . S
C335 C334 1.170 . S
C336 C337 1.170 . S
C336 C338 1.380 1_545 S
C337 C336 1.170 . S
C338 C336 1.380 1_565 S
C338 C339 1.170 . S
C339 C338 1.170 . S
C340 C341 1.170 . S
C340 C342 1.380 . S
C341 C340 1.170 . S
C342 C340 1.380 . S
C342 C343 1.170 . S
C343 C342 1.170 . S
C344 C345 1.170 . S
C344 C346 1.380 1_655 S
C345 C344 1.170 . S
C346 C344 1.380 1_455 S
C346 C347 1.170 . S
C347 C346 1.170 . S
C348 C349 1.170 . S
C348 C350 1.380 1_565 S
C349 C348 1.170 . S
C350 C348 1.380 1_545 S
C350 C351 1.170 . S
C351 C350 1.170 . S
C352 C353 1.170 . S
C352 C354 1.380 . S
C353 C352 1.170 . S
C354 C352 1.380 . S
C354 C355 1.170 . S
C355 C354 1.170 . S
C356 C357 1.170 . S
C356 C358 1.380 1_655 S
C357 C356 1.170 . S
C358 C356 1.380 1_455 S
C358 C359 1.170 . S
C359 C358 1.170 . S
C360 C361 1.170 . S
C360 C362 1.380 . S
C361 C360 1.170 . S
C362 C360 1.380 . S
C362 C363 1.170 . S
C363 C362 1.170 . S
C364 C365 1.170 . S
C364 C366 1.380 . S
C365 C364 1.170 . S
C366 C364 1.380 . S
C366 C367 1.170 . S
C367 C366 1.170 . S
C368 C369 1.170 . S
C368 C370 1.380 . S
C369 C368 1.170 . S
C370 C368 1.380 . S
C370 C371 1.170 . S
C371 C370 1.170 . S
C372 C373 1.170 . S
C372 C374 1.380 . S
C373 C372 1.170 . S
C374 C372 1.380 . S
C374 C375 1.170 . S
C375 C374 1.170 . S
C376 C377 1.170 . S
C376 C378 1.380 . S
C377 C376 1.170 . S
C378 C376 1.380 . S
C378 C379 1.170 . S
C379 C378 1.170 . S
C380 C381 1.170 . S
C380 C382 1.380 . S
C381 C380 1.170 . S
C382 C380 1.380 . S
C382 C383 1.170 . S
C383 C382 1.170 . S
C384 C385 1.170 . S
C384 C386 1.380 . S
C385 C384 1.170 . S
C386 C384 1.380 . S
C386 C387 1.170 . S
C387 C386 1.170 . S
C388 C389 1.170 . S
C388 C390 1.380 . S
C389 C388 1.170 . S
C390 C388 1.380 . S
C390 C391 1.170 . S
C391 C390 1.170 . S
C392 C393 1.170 . S
C392 C394 1.380 . S
C393 C392 1.170 . S
C394 C392 1.380 . S
C394 C395 1.170 . S
C395 C394 1.170 . S
C396 C397 1.170 . S
C396 C398 1.380 . S
C397 C396 1.170 . S
C398 C396 1.380 . S
C398 C399 1.170 . S
C399 C398 1.170 . S
C400 C401 1.170 . S
C400 C402 1.380 . S
C401 C400 1.170 . S
C402 C400 1.380 . S
C402 C403 1.170 . S
C403 C402 1.170 . S
C404 C405 1.170 . S
C404 C406 1.380 . S
C405 C404 1.170 . S
C406 C404 1.380 . S
C406 C407 1.170 . S
C407 C406 1.170 . S
C265 C8 1.235 . S
C267 C184 1.230 . S
C269 C216 1.229 . S
C271 C30 1.228 . S
C273 C62 1.233 . S
C275 C228 1.229 . S
C277 C260 1.236 . S
C279 C76 1.241 . S
C281 C98 1.231 . S
C283 C150 1.228 . S
C285 C172 1.242 . S
C287 C120 1.241 . S
C289 C249 1.339 . S
C291 C81 1.324 . S
C293 C103 1.328 . S
C295 C139 1.333 . S
C297 C161 1.334 . S
C299 C125 1.330 . S
C301 C197 1.338 . S
C303 C21 1.325 . S
C305 C205 1.332 . S
C307 C43 1.332 . S
C309 C51 1.336 . S
C311 C241 1.325 . S
C313 C162 1.323 . S
C315 C10 1.314 . S
C317 C186 1.327 . S
C319 C32 1.319 . S
C321 C206 1.328 . S
C323 C52 1.330 . S
C325 C84 1.324 . S
C327 C230 1.316 . S
C329 C106 1.319 . S
C331 C250 1.327 . S
C333 C140 1.311 . S
C335 C128 1.314 . S
C337 C235 1.408 . S
C339 C73 1.401 . S
C341 C95 1.405 . S
C343 C263 1.393 . S
C345 C153 1.381 . S
C347 C117 1.388 . S
C349 C175 1.388 . S
C351 C15 1.381 . S
C353 C37 1.383 . S
C355 C191 1.394 . S
C357 C65 1.393 . S
C359 C219 1.383 . S
C361 C18 1.518 . S
C363 C238 1.517 . S
C365 C40 1.515 . S
C367 C252 1.512 . S
C369 C142 1.508 . S
C371 C54 1.511 . S
C373 C164 1.516 . S
C375 C74 1.517 . S
C377 C96 1.505 . S
C379 C194 1.505 . S
C381 C208 1.505 . S
C383 C118 1.505 . S
C385 C87 1.606 . S
C387 C169 1.615 . S
C389 C109 1.610 . S
C391 C183 1.611 . S
C393 C213 1.615 . S
C395 C131 1.606 . S
C397 C227 1.616 . S
C399 C7 1.605 . S
C401 C257 1.619 . S
C403 C29 1.602 . S
C405 C147 1.604 . S
C407 C59 1.617 . S
