# Generated by pormake.
# Topology vbm, (6)-cn, num edge types: 1
# Building blocks:
#     Node 0, Type 0, BuildingBlock: CUKXOW_clean_sbu_0, # of connection points: 6
#     Node 1, Type 0, BuildingBlock: CUKXOW_clean_sbu_0, # of connection points: 6
#     Node 2, Type 0, BuildingBlock: CUKXOW_clean_sbu_0, # of connection points: 6
#     Node 3, Type 0, BuildingBlock: CUKXOW_clean_sbu_0, # of connection points: 6
#     Node 4, Type 0, BuildingBlock: CUKXOW_clean_sbu_0, # of connection points: 6
#     Node 5, Type 0, BuildingBlock: CUKXOW_clean_sbu_0, # of connection points: 6
#     Node 6, Type 0, BuildingBlock: CUKXOW_clean_sbu_0, # of connection points: 6
#     Node 7, Type 0, BuildingBlock: CUKXOW_clean_sbu_0, # of connection points: 6
#     Node 8, Type 0, BuildingBlock: CUKXOW_clean_sbu_0, # of connection points: 6
#     Node 9, Type 0, BuildingBlock: CUKXOW_clean_sbu_0, # of connection points: 6
#     Node 10, Type 0, BuildingBlock: CUKXOW_clean_sbu_0, # of connection points: 6
#     Node 11, Type 0, BuildingBlock: CUKXOW_clean_sbu_0, # of connection points: 6
#     Node 12, Type 0, BuildingBlock: CUKXOW_clean_sbu_0, # of connection points: 6
#     Node 13, Type 0, BuildingBlock: CUKXOW_clean_sbu_0, # of connection points: 6
#     Node 14, Type 0, BuildingBlock: CUKXOW_clean_sbu_0, # of connection points: 6
#     Node 15, Type 0, BuildingBlock: CUKXOW_clean_sbu_0, # of connection points: 6
#     Edge 16, Type (0, 0), BuildingBlock: CIFDUS_clean_linker_0, # of connection points: 2
#     Edge 17, Type (0, 0), BuildingBlock: CIFDUS_clean_linker_0, # of connection points: 2
#     Edge 18, Type (0, 0), BuildingBlock: CIFDUS_clean_linker_0, # of connection points: 2
#     Edge 19, Type (0, 0), BuildingBlock: CIFDUS_clean_linker_0, # of connection points: 2
#     Edge 20, Type (0, 0), BuildingBlock: CIFDUS_clean_linker_0, # of connection points: 2
#     Edge 21, Type (0, 0), BuildingBlock: CIFDUS_clean_linker_0, # of connection points: 2
#     Edge 22, Type (0, 0), BuildingBlock: CIFDUS_clean_linker_0, # of connection points: 2
#     Edge 23, Type (0, 0), BuildingBlock: CIFDUS_clean_linker_0, # of connection points: 2
#     Edge 24, Type (0, 0), BuildingBlock: CIFDUS_clean_linker_0, # of connection points: 2
#     Edge 25, Type (0, 0), BuildingBlock: CIFDUS_clean_linker_0, # of connection points: 2
#     Edge 26, Type (0, 0), BuildingBlock: CIFDUS_clean_linker_0, # of connection points: 2
#     Edge 27, Type (0, 0), BuildingBlock: CIFDUS_clean_linker_0, # of connection points: 2
#     Edge 28, Type (0, 0), BuildingBlock: CIFDUS_clean_linker_0, # of connection points: 2
#     Edge 29, Type (0, 0), BuildingBlock: CIFDUS_clean_linker_0, # of connection points: 2
#     Edge 30, Type (0, 0), BuildingBlock: CIFDUS_clean_linker_0, # of connection points: 2
#     Edge 31, Type (0, 0), BuildingBlock: CIFDUS_clean_linker_0, # of connection points: 2
#     Edge 32, Type (0, 0), BuildingBlock: CIFDUS_clean_linker_0, # of connection points: 2
#     Edge 33, Type (0, 0), BuildingBlock: CIFDUS_clean_linker_0, # of connection points: 2
#     Edge 34, Type (0, 0), BuildingBlock: CIFDUS_clean_linker_0, # of connection points: 2
#     Edge 35, Type (0, 0), BuildingBlock: CIFDUS_clean_linker_0, # of connection points: 2
#     Edge 36, Type (0, 0), BuildingBlock: CIFDUS_clean_linker_0, # of connection points: 2
#     Edge 37, Type (0, 0), BuildingBlock: CIFDUS_clean_linker_0, # of connection points: 2
#     Edge 38, Type (0, 0), BuildingBlock: CIFDUS_clean_linker_0, # of connection points: 2
#     Edge 39, Type (0, 0), BuildingBlock: CIFDUS_clean_linker_0, # of connection points: 2
#     Edge 40, Type (0, 0), BuildingBlock: CIFDUS_clean_linker_0, # of connection points: 2
#     Edge 41, Type (0, 0), BuildingBlock: CIFDUS_clean_linker_0, # of connection points: 2
#     Edge 42, Type (0, 0), BuildingBlock: CIFDUS_clean_linker_0, # of connection points: 2
#     Edge 43, Type (0, 0), BuildingBlock: CIFDUS_clean_linker_0, # of connection points: 2
#     Edge 44, Type (0, 0), BuildingBlock: CIFDUS_clean_linker_0, # of connection points: 2
#     Edge 45, Type (0, 0), BuildingBlock: CIFDUS_clean_linker_0, # of connection points: 2
#     Edge 46, Type (0, 0), BuildingBlock: CIFDUS_clean_linker_0, # of connection points: 2
#     Edge 47, Type (0, 0), BuildingBlock: CIFDUS_clean_linker_0, # of connection points: 2
#     Edge 48, Type (0, 0), BuildingBlock: CIFDUS_clean_linker_0, # of connection points: 2
#     Edge 49, Type (0, 0), BuildingBlock: CIFDUS_clean_linker_0, # of connection points: 2
#     Edge 50, Type (0, 0), BuildingBlock: CIFDUS_clean_linker_0, # of connection points: 2
#     Edge 51, Type (0, 0), BuildingBlock: CIFDUS_clean_linker_0, # of connection points: 2
#     Edge 52, Type (0, 0), BuildingBlock: CIFDUS_clean_linker_0, # of connection points: 2
#     Edge 53, Type (0, 0), BuildingBlock: CIFDUS_clean_linker_0, # of connection points: 2
#     Edge 54, Type (0, 0), BuildingBlock: CIFDUS_clean_linker_0, # of connection points: 2
#     Edge 55, Type (0, 0), BuildingBlock: CIFDUS_clean_linker_0, # of connection points: 2
#     Edge 56, Type (0, 0), BuildingBlock: CIFDUS_clean_linker_0, # of connection points: 2
#     Edge 57, Type (0, 0), BuildingBlock: CIFDUS_clean_linker_0, # of connection points: 2
#     Edge 58, Type (0, 0), BuildingBlock: CIFDUS_clean_linker_0, # of connection points: 2
#     Edge 59, Type (0, 0), BuildingBlock: CIFDUS_clean_linker_0, # of connection points: 2
#     Edge 60, Type (0, 0), BuildingBlock: CIFDUS_clean_linker_0, # of connection points: 2
#     Edge 61, Type (0, 0), BuildingBlock: CIFDUS_clean_linker_0, # of connection points: 2
#     Edge 62, Type (0, 0), BuildingBlock: CIFDUS_clean_linker_0, # of connection points: 2
#     Edge 63, Type (0, 0), BuildingBlock: CIFDUS_clean_linker_0, # of connection points: 2
# Relax obj value: 0.131
# Max RMSD: 0.181
# Mean RMSD: 0.181
data_MOF--net-vbm--node1-CUKXOW_clean_sbu_0--edge1-CIFDUS_clean_linker_0
_symmetry_space_group_name_H-M    P1
_symmetry_Int_Tables_number       1
_symmetry_cell_setting            triclinic
loop_
_symmetry_equiv_pos_as_xyz
'x, y, z'
_cell_length_a     64.036933
_cell_length_b     12.604238
_cell_length_c     53.075877
_cell_angle_alpha  89.877097
_cell_angle_beta   90.110437
_cell_angle_gamma 90.000594
loop_
_atom_site_label
_atom_site_type_symbol
_atom_site_fract_x
_atom_site_fract_y
_atom_site_fract_z
_atom_type_partial_charge
Tb0 Tb 0.08563 0.16257 0.1179 0.0
C1 C 0.1125 0.14678 0.06912 0.0
Tb2 Tb 0.13469 0.1785 0.1219 0.0
O3 O 0.08391 0.32798 0.10559 0.0
O4 O 0.10847 0.27901 0.12811 0.0
O5 O 0.09574 0.11029 0.08102 0.0
C6 C 0.17394 0.25078 0.12393 0.0
O7 O 0.12847 0.19141 0.08128 0.0
C8 C 0.12219 0.97908 0.11749 0.0
C9 C 0.10704 0.16337 0.17183 0.0
O10 O 0.15922 0.28881 0.10957 0.0
O11 O 0.16643 0.1732 0.13725 0.0
O12 O 0.14162 1.00669 0.11995 0.0
O13 O 0.11174 0.06318 0.11728 0.0
O14 O 0.12556 0.18571 0.16161 0.0
O15 O 0.08966 0.14898 0.15849 0.0
C16 C 0.04467 0.12081 0.11708 0.0
O17 O 0.05437 0.18714 0.1026 0.0
O18 O 0.05814 0.07577 0.13205 0.0
C19 C 0.10166 0.35546 0.11521 0.0
Tb20 Tb 0.88284 0.95519 0.1294 0.0
C21 C 0.85984 0.93946 0.07713 0.0
Tb22 Tb 0.83396 0.93551 0.12812 0.0
O23 O 0.88573 0.78963 0.11772 0.0
O24 O 0.85982 0.83769 0.1383 0.0
O25 O 0.87682 0.97314 0.08918 0.0
C26 C 0.79567 0.85416 0.12572 0.0
O27 O 0.84255 0.90937 0.08893 0.0
C28 C 0.84616 0.13564 0.12267 0.0
C29 C 0.85603 0.98437 0.17935 0.0
O30 O 0.81157 0.8216 0.11272 0.0
O31 O 0.80139 0.93172 0.14025 0.0
O32 O 0.82669 0.1066 0.12332 0.0
O33 O 0.85673 0.05221 0.12454 0.0
O34 O 0.83983 0.93736 0.16838 0.0
O35 O 0.87348 1.0089 0.16699 0.0
C36 C 0.92327 1.0009 0.1351 0.0
O37 O 0.91297 0.93106 0.1481 0.0
O38 O 0.91068 1.04665 0.1192 0.0
C39 C 0.86771 0.76084 0.12642 0.0
Tb40 Tb 0.09187 1.00495 0.36896 0.0
C41 C 0.1158 0.99424 0.42066 0.0
Tb42 Tb 0.14064 0.98783 0.36925 0.0
O43 O 0.0893 0.84006 0.38133 0.0
O44 O 0.11489 0.88777 0.36017 0.0
O45 O 0.09878 1.02874 0.40877 0.0
C46 C 0.17964 0.91609 0.36787 0.0
O47 O 0.13277 0.96111 0.40865 0.0
C48 C 0.12836 0.1875 0.37439 0.0
C49 C 0.11744 1.03189 0.31845 0.0
O50 O 0.16524 0.88151 0.38305 0.0
O51 O 0.17201 0.99002 0.35355 0.0
O52 O 0.14781 0.15872 0.37381 0.0
O53 O 0.11775 0.10434 0.37256 0.0
O54 O 0.13366 0.98463 0.32928 0.0
O55 O 0.10037 0.05917 0.33114 0.0
C56 C 0.05127 1.04401 0.36323 0.0
O57 O 0.06245 0.98411 0.3487 0.0
O58 O 0.06306 0.08405 0.38077 0.0
C59 C 0.10729 0.81159 0.37256 0.0
Tb60 Tb 0.88841 0.153 0.37655 0.0
C61 C 0.86149 0.14951 0.42653 0.0
Tb62 Tb 0.83795 0.17259 0.37404 0.0
O63 O 0.89443 0.32631 0.37491 0.0
O64 O 0.86495 0.26742 0.37266 0.0
O65 O 0.87873 0.11739 0.41487 0.0
C66 C 0.79898 0.24821 0.37371 0.0
O67 O 0.84456 0.18457 0.41444 0.0
C68 C 0.85114 0.9735 0.3776 0.0
C69 C 0.86516 0.1483 0.32413 0.0
O70 O 0.81378 0.27826 0.38891 0.0
O71 O 0.80626 0.17693 0.35842 0.0
O72 O 0.83154 1.00012 0.37629 0.0
O73 O 0.86136 0.05834 0.37748 0.0
O74 O 0.84754 0.18502 0.33442 0.0
O75 O 0.88201 0.12024 0.33725 0.0
C76 C 0.92834 0.09733 0.38077 0.0
O77 O 0.91658 0.07827 0.36126 0.0
O78 O 0.91741 0.14471 0.39795 0.0
C79 C 0.87494 0.35276 0.37296 0.0
Tb80 Tb 0.84865 0.96916 0.87681 0.0
C81 C 0.87218 1.01341 0.82519 0.0
Tb82 Tb 0.8991 0.99114 0.87565 0.0
O83 O 0.84228 0.14227 0.87794 0.0
O84 O 0.87199 0.08384 0.87576 0.0
O85 O 0.855 0.97673 0.83642 0.0
C86 C 0.93851 0.05511 0.87566 0.0
O87 O 0.88992 1.03491 0.83736 0.0
C88 C 0.88592 0.79068 0.87715 0.0
C89 C 0.87515 0.9717 0.92769 0.0
O90 O 0.93002 0.99393 0.85886 0.0
O91 O 0.92462 0.08281 0.89225 0.0
O92 O 0.90545 0.81781 0.8762 0.0
O93 O 0.8758 0.87574 0.87695 0.0
O94 O 0.89222 1.00442 0.91565 0.0
O95 O 0.85757 0.94189 0.91611 0.0
C96 C 0.81055 0.88682 0.87534 0.0
O97 O 0.81577 0.97211 0.88749 0.0
O98 O 0.82674 0.84754 0.86398 0.0
C99 C 0.8619 0.16888 0.87696 0.0
Tb100 Tb 0.15198 0.16225 0.86773 0.0
C101 C 0.12589 0.13141 0.81732 0.0
Tb102 Tb 0.10163 0.14235 0.86991 0.0
O103 O 0.15825 0.98933 0.86746 0.0
O104 O 0.12857 0.04804 0.87031 0.0
O105 O 0.14416 0.15627 0.82781 0.0
C106 C 0.06224 0.07709 0.87124 0.0
O107 O 0.10817 0.11751 0.83005 0.0
C108 C 0.11487 0.34202 0.86795 0.0
C109 C 0.12843 0.15408 0.91974 0.0
O110 O 0.0755 0.05512 0.85351 0.0
O111 O 0.07131 0.13373 0.88849 0.0
O112 O 0.0953 0.3153 0.86798 0.0
O113 O 0.12498 0.25698 0.86834 0.0
O114 O 0.11168 0.11214 0.90859 0.0
O115 O 0.14452 0.19408 0.90702 0.0
C116 C 0.19035 0.23916 0.86606 0.0
O117 O 0.18452 0.15846 0.87954 0.0
O118 O 0.17462 0.27707 0.85345 0.0
C119 C 0.13867 0.96296 0.86932 0.0
Tb120 Tb 0.8617 0.15188 0.62695 0.0
C121 C 0.88719 0.13994 0.67869 0.0
Tb122 Tb 0.90893 0.14132 0.62555 0.0
O123 O 0.85856 0.98776 0.61448 0.0
O124 O 0.88461 1.03457 0.63516 0.0
O125 O 0.869 0.15861 0.66733 0.0
C126 C 0.94989 0.10799 0.61874 0.0
O127 O 0.90475 0.123 0.66601 0.0
C128 C 0.89302 0.33257 0.63005 0.0
C129 C 0.88304 0.13257 0.57487 0.0
O130 O 0.93898 0.18346 0.60863 0.0
O131 O 0.93765 0.04946 0.63244 0.0
O132 O 0.91067 0.30349 0.63982 0.0
O133 O 0.88595 0.25758 0.61694 0.0
O134 O 0.89997 0.09827 0.58694 0.0
O135 O 0.86715 0.17579 0.58706 0.0
C136 C 0.82209 0.21626 0.63165 0.0
O137 O 0.82804 0.12407 0.62363 0.0
O138 O 0.83846 0.27211 0.63732 0.0
C139 C 0.87676 0.95899 0.62284 0.0
Tb140 Tb 0.16279 0.9537 0.62019 0.0
C141 C 0.13981 0.99401 0.6715 0.0
Tb142 Tb 0.11364 0.97047 0.62115 0.0
O143 O 0.16968 0.12501 0.61609 0.0
O144 O 0.13967 0.06949 0.6174 0.0
O145 O 0.15632 0.95035 0.66045 0.0
C146 C 0.07287 1.00656 0.62771 0.0
O147 O 0.12252 1.02014 0.65902 0.0
C148 C 0.12949 0.77803 0.61676 0.0
C149 C 0.13657 0.96408 0.56911 0.0
O150 O 0.08395 0.93677 0.63978 0.0
O151 O 0.08488 0.05821 0.61218 0.0
O152 O 0.11146 0.80665 0.60797 0.0
O153 O 0.13701 0.85382 0.62933 0.0
O154 O 0.11969 0.99639 0.58143 0.0
O155 O 0.15399 0.93207 0.58063 0.0
C156 C 0.20198 0.88021 0.61938 0.0
O157 O 0.19507 0.95498 0.63393 0.0
O158 O 0.18671 0.84577 0.60541 0.0
C159 C 0.15018 0.15321 0.61573 0.0
Tb160 Tb 0.58607 0.60736 0.12829 0.0
C161 C 0.60875 0.63147 0.07535 0.0
Tb162 Tb 0.63652 0.62941 0.12494 0.0
O163 O 0.5799 0.78098 0.12794 0.0
O164 O 0.60944 0.72263 0.12718 0.0
O165 O 0.59204 0.59538 0.08777 0.0
C166 C 0.67463 0.71245 0.12643 0.0
O167 O 0.62623 0.66409 0.08663 0.0
C168 C 0.62337 0.42949 0.12458 0.0
C169 C 0.61501 0.58095 0.17731 0.0
O170 O 0.66828 0.64212 0.11024 0.0
O171 O 0.65945 0.7367 0.14157 0.0
O172 O 0.64296 0.45655 0.12317 0.0
O173 O 0.61317 0.51418 0.12605 0.0
O174 O 0.6316 0.61943 0.16534 0.0
O175 O 0.5968 0.56 0.16603 0.0
C176 C 0.54614 0.5506 0.13266 0.0
O177 O 0.55669 0.60602 0.14886 0.0
O178 O 0.55829 0.5241 0.11403 0.0
C179 C 0.59942 0.80786 0.12702 0.0
Tb180 Tb 0.38284 0.41257 0.12594 0.0
C181 C 0.35924 0.39418 0.07485 0.0
Tb182 Tb 0.33767 0.39618 0.12663 0.0
O183 O 0.38577 0.26223 0.1459 0.0
O184 O 0.36164 0.28175 0.12016 0.0
O185 O 0.37499 0.44056 0.08659 0.0
C186 C 0.29724 0.34247 0.13186 0.0
O187 O 0.34375 0.35093 0.08776 0.0
C188 C 0.35055 0.59166 0.11677 0.0
C189 C 0.36196 0.4339 0.17837 0.0
O190 O 0.30429 0.42599 0.12055 0.0
O191 O 0.31301 0.28856 0.14045 0.0
O192 O 0.33393 0.54806 0.10753 0.0
O193 O 0.35874 0.52737 0.1323 0.0
O194 O 0.34398 0.40803 0.16742 0.0
O195 O 0.37919 0.44948 0.16528 0.0
C196 C 0.42371 0.44812 0.11881 0.0
O197 O 0.41288 0.37346 0.10837 0.0
O198 O 0.41147 0.5041 0.13294 0.0
C199 C 0.36946 0.21813 0.13609 0.0
Tb200 Tb 0.58618 0.43761 0.37801 0.0
C201 C 0.61332 0.4171 0.42751 0.0
Tb202 Tb 0.63668 0.41791 0.37423 0.0
O203 O 0.58027 0.26436 0.37965 0.0
O204 O 0.60977 0.32317 0.37649 0.0
O205 O 0.59559 0.45139 0.41714 0.0
C206 C 0.6759 0.34779 0.37107 0.0
O207 O 0.62997 0.38649 0.4142 0.0
C208 C 0.6233 0.61719 0.37515 0.0
C209 C 0.6092 0.4551 0.32502 0.0
O210 O 0.66899 0.41544 0.38748 0.0
O211 O 0.66059 0.31794 0.35654 0.0
O212 O 0.64288 0.59082 0.37368 0.0
O213 O 0.61316 0.53215 0.3758 0.0
O214 O 0.62729 0.42017 0.33447 0.0
O215 O 0.59262 0.47921 0.33899 0.0
C216 C 0.54632 0.49678 0.37932 0.0
O217 O 0.55465 0.43499 0.36259 0.0
O218 O 0.5606 0.52754 0.39523 0.0
C219 C 0.59978 0.238 0.37793 0.0
Tb220 Tb 0.38253 0.59794 0.37408 0.0
C221 C 0.36083 0.63334 0.42663 0.0
Tb222 Tb 0.33364 0.61781 0.3771 0.0
O223 O 0.38938 0.76923 0.36844 0.0
O224 O 0.35961 0.71453 0.37093 0.0
O225 O 0.37682 0.58969 0.4145 0.0
C226 C 0.29428 0.68149 0.38189 0.0
O227 O 0.34336 0.66302 0.41502 0.0
C228 C 0.34833 0.42301 0.37407 0.0
C229 C 0.35477 0.58193 0.32445 0.0
O230 O 0.30283 0.60511 0.39474 0.0
O231 O 0.30792 0.72196 0.36659 0.0
O232 O 0.32974 0.45106 0.36688 0.0
O233 O 0.35685 0.50059 0.3851 0.0
O234 O 0.33844 0.6217 0.3366 0.0
O235 O 0.37271 0.55731 0.33581 0.0
C236 C 0.42232 0.53619 0.37408 0.0
O237 O 0.40791 0.4994 0.35915 0.0
O238 O 0.41418 0.60565 0.38912 0.0
C239 C 0.36997 0.79823 0.3685 0.0
Tb240 Tb 0.34874 0.45656 0.87488 0.0
C241 C 0.37258 0.50128 0.82361 0.0
Tb242 Tb 0.39914 0.47838 0.87439 0.0
O243 O 0.34238 0.62967 0.87632 0.0
O244 O 0.37209 0.57129 0.87447 0.0
O245 O 0.35531 0.46515 0.83466 0.0
C246 C 0.43838 0.54448 0.87552 0.0
O247 O 0.39032 0.52191 0.83589 0.0
C248 C 0.386 0.27801 0.87519 0.0
C249 C 0.37454 0.45243 0.92603 0.0
O250 O 0.43039 0.48256 0.85853 0.0
O251 O 0.4241 0.57156 0.89168 0.0
O252 O 0.40555 0.30514 0.87463 0.0
O253 O 0.37586 0.36303 0.87494 0.0
O254 O 0.39173 0.48662 0.91442 0.0
O255 O 0.35707 0.42441 0.91405 0.0
C256 C 0.31075 0.37561 0.87218 0.0
O257 O 0.31582 0.45951 0.88495 0.0
O258 O 0.32702 0.33678 0.86093 0.0
C259 C 0.362 0.6563 0.87562 0.0
Tb260 Tb 0.65193 0.65792 0.87469 0.0
C261 C 0.62682 0.62479 0.82334 0.0
Tb262 Tb 0.60148 0.63835 0.87512 0.0
O263 O 0.65823 0.48513 0.87508 0.0
O264 O 0.62843 0.54392 0.87645 0.0
O265 O 0.645 0.6479 0.83438 0.0
C266 C 0.56209 0.57317 0.87495 0.0
O267 O 0.6088 0.61344 0.83553 0.0
C268 C 0.61486 0.83786 0.8736 0.0
C269 C 0.62676 0.64923 0.92602 0.0
O270 O 0.57583 0.55061 0.85782 0.0
O271 O 0.57066 0.63046 0.89245 0.0
O272 O 0.59529 0.81133 0.87292 0.0
O273 O 0.62493 0.7527 0.87432 0.0
O274 O 0.61025 0.60835 0.9142 0.0
O275 O 0.6434 0.68765 0.91395 0.0
C276 C 0.6902 0.73823 0.8735 0.0
O277 O 0.68452 0.65649 0.88675 0.0
O278 O 0.67436 0.77507 0.86089 0.0
C279 C 0.63859 0.45885 0.87609 0.0
Tb280 Tb 0.36223 0.66723 0.62655 0.0
C281 C 0.38735 0.62227 0.67686 0.0
Tb282 Tb 0.4109 0.62477 0.62426 0.0
O283 O 0.35173 0.50063 0.62764 0.0
O284 O 0.38288 0.5349 0.62538 0.0
O285 O 0.3701 0.66248 0.66655 0.0
C286 C 0.44979 0.54866 0.62058 0.0
O287 O 0.40405 0.59324 0.66371 0.0
C288 C 0.40284 0.83455 0.62506 0.0
C289 C 0.38483 0.64205 0.57449 0.0
O290 O 0.43926 0.55768 0.64136 0.0
O291 O 0.43813 0.57919 0.6019 0.0
O292 O 0.42123 0.79202 0.62456 0.0
O293 O 0.39026 0.75717 0.62532 0.0
O294 O 0.40059 0.59369 0.586 0.0
O295 O 0.36992 0.69273 0.58699 0.0
C296 C 0.3241 0.75403 0.62682 0.0
O297 O 0.33072 0.68303 0.61111 0.0
O298 O 0.33915 0.77801 0.64233 0.0
C299 C 0.37014 0.45796 0.62625 0.0
Tb300 Tb 0.66047 0.40583 0.62823 0.0
C301 C 0.639 0.45503 0.67905 0.0
Tb302 Tb 0.61355 0.4248 0.62875 0.0
O303 O 0.66488 0.57307 0.63746 0.0
O304 O 0.6385 0.52502 0.61745 0.0
O305 O 0.65454 0.40162 0.66853 0.0
C306 C 0.57286 0.46834 0.63432 0.0
O307 O 0.62255 0.48653 0.66574 0.0
C308 C 0.62784 0.22912 0.62807 0.0
C309 C 0.63554 0.40093 0.57613 0.0
O310 O 0.58408 0.41116 0.64947 0.0
O311 O 0.58464 0.50293 0.61621 0.0
O312 O 0.61031 0.25835 0.61811 0.0
O313 O 0.63557 0.30653 0.63985 0.0
O314 O 0.6183 0.4296 0.5882 0.0
O315 O 0.65343 0.38195 0.5881 0.0
C316 C 0.69988 0.33568 0.62563 0.0
O317 O 0.69422 0.43126 0.63134 0.0
O318 O 0.68334 0.27938 0.62111 0.0
C319 C 0.64693 0.60257 0.62853 0.0
H320 H 0.20649 0.15679 0.148 0.0
H321 H 0.19089 0.42101 0.09977 0.0
H322 H 0.22765 0.47421 0.09854 0.0
H323 H 0.26434 0.44312 0.1104 0.0
H324 H 0.28018 0.17582 0.15752 0.0
H325 H 0.24324 0.12608 0.16001 0.0
C326 C 0.21115 0.22632 0.13734 0.0
C327 C 0.19603 0.2851 0.12402 0.0
C328 C 0.23235 0.25552 0.13647 0.0
C329 C 0.20227 0.3746 0.11016 0.0
C330 C 0.22327 0.40493 0.10944 0.0
C331 C 0.25968 0.37416 0.12127 0.0
C332 C 0.27493 0.31317 0.13379 0.0
C333 C 0.23847 0.34563 0.12239 0.0
C334 C 0.26871 0.22388 0.14773 0.0
C335 C 0.2476 0.1955 0.14915 0.0
H336 H 0.76151 0.92312 0.15058 0.0
H337 H 0.78183 0.6964 0.09505 0.0
H338 H 0.74588 0.63428 0.08972 0.0
H339 H 0.70867 0.64487 0.10093 0.0
H340 H 0.68853 0.87005 0.15693 0.0
H341 H 0.72441 0.9332 0.16191 0.0
C342 C 0.75804 0.8599 0.13738 0.0
C343 C 0.77418 0.81418 0.12323 0.0
C344 C 0.73739 0.82492 0.13442 0.0
C345 C 0.76958 0.73253 0.10616 0.0
C346 C 0.74906 0.69723 0.10308 0.0
C347 C 0.71217 0.70811 0.11411 0.0
C348 C 0.69609 0.75309 0.12851 0.0
C349 C 0.73284 0.74306 0.11706 0.0
C350 C 0.70073 0.83443 0.14565 0.0
C351 C 0.72122 0.87037 0.14853 0.0
H352 H 0.27537 0.8283 0.35305 0.0
H353 H 0.26403 0.60661 0.41347 0.0
H354 H 0.22716 0.65889 0.41445 0.0
H355 H 0.19815 0.76784 0.39773 0.0
H356 H 0.21006 0.98748 0.33696 0.0
H357 H 0.24673 0.93536 0.33636 0.0
C358 C 0.26482 0.79166 0.36648 0.0
C359 C 0.27228 0.71409 0.38319 0.0
C360 C 0.24377 0.82142 0.36676 0.0
C361 C 0.25854 0.66678 0.40045 0.0
C362 C 0.2375 0.69648 0.40098 0.0
C363 C 0.20882 0.80385 0.38437 0.0
C364 C 0.20152 0.8812 0.36743 0.0
C365 C 0.22993 0.77357 0.38415 0.0
C366 C 0.21539 0.92764 0.35018 0.0
C367 C 0.23634 0.89807 0.34984 0.0
H368 H 0.7662 0.175 0.34621 0.0
H369 H 0.78236 0.39582 0.40507 0.0
H370 H 0.74563 0.44492 0.40966 0.0
H371 H 0.70886 0.4231 0.39743 0.0
H372 H 0.69245 0.20305 0.33855 0.0
H373 H 0.72929 0.1549 0.33354 0.0
C374 C 0.76165 0.23433 0.35991 0.0
C375 C 0.77693 0.2819 0.37527 0.0
C376 C 0.74047 0.26159 0.36256 0.0
C377 C 0.77087 0.35829 0.39302 0.0
C378 C 0.74987 0.38615 0.3957 0.0
C379 C 0.71336 0.36436 0.38356 0.0
C380 C 0.69801 0.31628 0.36844 0.0
C381 C 0.73453 0.33782 0.3807 0.0
C382 C 0.70402 0.24082 0.35044 0.0
C383 C 0.72507 0.21351 0.34755 0.0
H384 H 0.72634 0.62963 0.87566 0.0
H385 H 0.701 0.94555 0.87011 0.0
H386 H 0.73632 1.02053 0.87117 0.0
H387 H 0.7744 0.99524 0.87416 0.0
H388 H 0.79985 0.67877 0.87449 0.0
H389 H 0.7645 0.60388 0.87492 0.0
C390 C 0.72866 0.71481 0.87466 0.0
C391 C 0.71134 0.78254 0.87308 0.0
C392 C 0.74895 0.75666 0.87434 0.0
C393 C 0.71428 0.89251 0.87134 0.0
C394 C 0.7344 0.93516 0.87201 0.0
C395 C 0.77209 0.90995 0.8743 0.0
C396 C 0.78945 0.84212 0.87457 0.0
C397 C 0.75183 0.86795 0.8736 0.0
C398 C 0.78654 0.7319 0.8743 0.0
C399 C 0.7664 0.68932 0.8746 0.0
H400 H 0.27525 0.48764 0.86914 0.0
H401 H 0.29945 0.16869 0.87074 0.0
H402 H 0.26384 0.0973 0.86947 0.0
H403 H 0.22586 0.12709 0.8688 0.0
H404 H 0.20186 0.44539 0.86224 0.0
H405 H 0.23744 0.51688 0.86438 0.0
C406 C 0.2726 0.40259 0.86917 0.0
C407 C 0.28962 0.33293 0.87035 0.0
C408 C 0.25226 0.36271 0.86751 0.0
C409 C 0.28636 0.22305 0.8699 0.0
C410 C 0.26609 0.18252 0.86922 0.0
C411 C 0.22855 0.212 0.86776 0.0
C412 C 0.21156 0.28151 0.86564 0.0
C413 C 0.24894 0.25171 0.86816 0.0
C414 C 0.21492 0.3911 0.86386 0.0
C415 C 0.23516 0.43172 0.86517 0.0
H416 H 0.73462 0.44436 0.63891 0.0
H417 H 0.71373 0.13996 0.61181 0.0
H418 H 0.7498 0.07534 0.61161 0.0
H419 H 0.7873 0.10607 0.619 0.0
H420 H 0.80809 0.41016 0.64643 0.0
H421 H 0.77202 0.4743 0.64682 0.0
C422 C 0.738 0.36394 0.63293 0.0
C423 C 0.72162 0.29699 0.62529 0.0
C424 C 0.75872 0.32734 0.63303 0.0
C425 C 0.72614 0.19288 0.61771 0.0
C426 C 0.74673 0.15596 0.61762 0.0
C427 C 0.78389 0.18623 0.62514 0.0
C428 C 0.80026 0.25341 0.6327 0.0
C429 C 0.76314 0.22249 0.62525 0.0
C430 C 0.7957 0.35706 0.64058 0.0
C431 C 0.7751 0.39378 0.64075 0.0
H432 H 0.23493 0.95218 0.64678 0.0
H433 H 0.21824 0.72873 0.5887 0.0
H434 H 0.2547 0.67253 0.58539 0.0
H435 H 0.29128 0.68653 0.59905 0.0
H436 H 0.30813 0.90749 0.65756 0.0
H437 H 0.2717 0.96581 0.66058 0.0
C438 C 0.2393 0.89101 0.63346 0.0
C439 C 0.22394 0.84449 0.61801 0.0
C440 C 0.26031 0.85917 0.63166 0.0
C441 C 0.22979 0.76552 0.6008 0.0
C442 C 0.25063 0.73354 0.59887 0.0
C443 C 0.28698 0.74784 0.61238 0.0
C444 C 0.30234 0.79297 0.62802 0.0
C445 C 0.26602 0.77991 0.61417 0.0
C446 C 0.29656 0.87181 0.6453 0.0
C447 C 0.27574 0.90493 0.64706 0.0
H448 H 0.08607 0.0948 0.28687 0.0
H449 H 0.15212 1.0254 0.28882 0.0
H450 H 0.15489 0.06654 0.24413 0.0
H451 H 0.13858 0.11754 0.20418 0.0
H452 H 0.07234 0.17978 0.20146 0.0
H453 H 0.06972 0.14708 0.24673 0.0
C454 C 0.10108 0.0889 0.27754 0.0
C455 C 0.11881 0.05665 0.29123 0.0
C456 C 0.10258 0.11174 0.25167 0.0
C457 C 0.13814 0.04917 0.27877 0.0
C458 C 0.13979 0.07309 0.25318 0.0
C459 C 0.12361 0.1252 0.21354 0.0
C460 C 0.10572 0.15146 0.19949 0.0
C461 C 0.12212 0.104 0.23943 0.0
C462 C 0.08637 0.15949 0.21184 0.0
C463 C 0.08484 0.14068 0.23773 0.0
H464 H 0.83356 0.09313 0.29246 0.0
H465 H 0.89934 0.16637 0.29429 0.0
H466 H 0.90231 0.12394 0.24958 0.0
H467 H 0.88661 0.05894 0.21041 0.0
H468 H 0.82113 0.97715 0.20893 0.0
H469 H 0.81774 1.02902 0.25296 0.0
C470 C 0.84845 0.10127 0.28293 0.0
C471 C 0.86617 0.13334 0.29657 0.0
C472 C 0.85019 0.07377 0.25734 0.0
C473 C 0.88547 0.14174 0.28415 0.0
C474 C 0.8872 0.11723 0.25861 0.0
C475 C 0.87158 0.05246 0.21967 0.0
C476 C 0.85421 1.01374 0.20631 0.0
C477 C 0.86974 0.0817 0.2451 0.0
C478 C 0.83486 1.00588 0.21873 0.0
C479 C 0.83285 1.03602 0.24393 0.0
H480 H 0.85435 0.09871 0.70968 0.0
H481 H 0.92103 0.14928 0.7099 0.0
H482 H 0.92218 0.11563 0.7552 0.0
H483 H 0.9045 0.06731 0.79444 0.0
H484 H 0.83796 1.01077 0.79408 0.0
H485 H 0.8366 0.05072 0.7491 0.0
C486 C 0.86911 0.1035 0.71967 0.0
C487 C 0.88757 0.12692 0.70641 0.0
C488 C 0.86973 0.08203 0.74566 0.0
C489 C 0.90659 0.13134 0.71962 0.0
C490 C 0.90727 0.11195 0.74553 0.0
C491 C 0.88965 0.0638 0.7846 0.0
C492 C 0.87136 1.03591 0.79775 0.0
C493 C 0.88898 0.08629 0.75869 0.0
C494 C 0.85232 1.03148 0.78452 0.0
C495 C 0.8515 0.05468 0.75877 0.0
H496 H 0.1583 0.08061 0.78659 0.0
H497 H 0.09192 0.14055 0.78632 0.0
H498 H 0.09044 0.10373 0.74124 0.0
H499 H 0.1078 0.05209 0.7021 0.0
H500 H 0.17399 0.98631 0.70247 0.0
H501 H 0.17567 1.02733 0.74736 0.0
C502 C 0.14354 0.08655 0.77662 0.0
C503 C 0.12527 0.1138 0.78979 0.0
C504 C 0.14272 0.06347 0.75077 0.0
C505 C 0.10622 0.11957 0.77666 0.0
C506 C 0.10535 0.0985 0.75087 0.0
C507 C 0.12263 1.04675 0.71194 0.0
C508 C 0.14074 1.01618 0.69887 0.0
C509 C 0.12347 0.06981 0.73777 0.0
C510 C 0.15977 1.00916 0.71204 0.0
C511 C 0.16077 1.03297 0.73772 0.0
H512 H 0.64025 0.48758 0.2906 0.0
H513 H 0.57332 0.46017 0.29755 0.0
H514 H 0.56917 0.49445 0.25263 0.0
H515 H 0.58436 0.5362 0.21139 0.0
H516 H 0.65121 0.57019 0.20458 0.0
H517 H 0.65547 0.52975 0.2492 0.0
C518 C 0.62478 0.48831 0.28223 0.0
C519 C 0.60715 0.47129 0.29746 0.0
C520 C 0.62243 0.50993 0.25635 0.0
C521 C 0.58719 0.47362 0.28633 0.0
C522 C 0.58477 0.49313 0.2606 0.0
C523 C 0.59987 0.53451 0.21962 0.0
C524 C 0.61738 0.55643 0.20454 0.0
C525 C 0.60225 0.51217 0.24543 0.0
C526 C 0.63737 0.55434 0.21566 0.0
C527 C 0.63987 0.53086 0.24123 0.0
H528 H 0.38465 0.51053 0.29231 0.0
H529 H 0.31968 0.60135 0.29511 0.0
H530 H 0.3157 0.55796 0.25056 0.0
H531 H 0.33085 0.49577 0.21039 0.0
H532 H 0.39609 0.41071 0.20798 0.0
H533 H 0.39965 0.4491 0.25272 0.0
C534 C 0.3696 0.52113 0.28325 0.0
C535 C 0.35254 0.55945 0.29714 0.0
C536 C 0.3674 0.49631 0.25761 0.0
C537 C 0.33317 0.57251 0.28493 0.0
C538 C 0.33082 0.5473 0.25942 0.0
C539 C 0.34575 0.48472 0.21977 0.0
C540 C 0.36316 0.45041 0.2059 0.0
C541 C 0.34784 0.50902 0.24554 0.0
C542 C 0.38246 0.43758 0.21821 0.0
C543 C 0.38454 0.45957 0.24381 0.0
H544 H 0.4053 0.53458 0.79193 0.0
H545 H 0.33795 0.51929 0.79365 0.0
H546 H 0.33652 0.55989 0.7487 0.0
H547 H 0.3544 0.59808 0.70871 0.0
H548 H 0.42176 0.60613 0.70684 0.0
H549 H 0.42312 0.57073 0.75202 0.0
C550 C 0.39029 0.54031 0.78252 0.0
C551 C 0.37178 0.52393 0.79621 0.0
C552 C 0.38956 0.56271 0.75661 0.0
C553 C 0.35248 0.5309 0.7836 0.0
C554 C 0.35162 0.55453 0.75788 0.0
C555 C 0.36936 0.59294 0.71824 0.0
C556 C 0.38794 0.60515 0.70444 0.0
C557 C 0.37006 0.57055 0.74418 0.0
C558 C 0.40722 0.59677 0.717 0.0
C559 C 0.40803 0.57655 0.74285 0.0
H560 H 0.65852 0.55316 0.79364 0.0
H561 H 0.59402 0.65198 0.79136 0.0
H562 H 0.59219 0.60963 0.74659 0.0
H563 H 0.60848 0.53992 0.70835 0.0
H564 H 0.67256 0.43383 0.71069 0.0
H565 H 0.67491 0.483 0.75509 0.0
C566 C 0.64415 0.56653 0.78325 0.0
C567 C 0.62647 0.60607 0.79581 0.0
C568 C 0.64305 0.53972 0.75755 0.0
C569 C 0.60786 0.6214 0.78218 0.0
C570 C 0.60678 0.59711 0.75656 0.0
C571 C 0.62299 0.52757 0.71852 0.0
C572 C 0.64029 0.48303 0.70614 0.0
C573 C 0.6242 0.55525 0.74411 0.0
C574 C 0.65893 0.46739 0.71973 0.0
C575 C 0.66033 0.49586 0.74514 0.0
H576 H 0.09967 0.07598 0.95257 0.0
H577 H 0.1588 0.24041 0.94983 0.0
H578 H 0.15942 0.25059 0.99572 0.0
H579 H 0.14276 0.21648 0.03673 0.0
H580 H 0.08356 0.05216 0.03888 0.0
H581 H 0.08352 1.03848 0.99323 0.0
C582 C 0.11275 0.11392 0.96193 0.0
C583 C 0.12911 0.15757 0.94765 0.0
C584 C 0.11302 0.11979 0.98833 0.0
C585 C 0.14594 0.2061 0.96026 0.0
C586 C 0.14632 0.2121 0.98655 0.0
C587 C 0.12989 0.17731 0.02723 0.0
C588 C 0.11318 0.13586 0.04134 0.0
C589 C 0.12988 0.16973 0.0008 0.0
C590 C 0.09664 0.08527 0.02863 0.0
C591 C 0.09657 0.07728 0.00244 0.0
H592 H 0.84436 0.90883 0.95987 0.0
H593 H 0.90759 1.02826 0.95857 0.0
H594 H 0.90857 1.02736 0.00446 0.0
H595 H 0.89136 0.9956 0.0451 0.0
H596 H 0.8281 0.87634 0.04614 0.0
H597 H 0.8274 0.87443 0.00033 0.0
C598 C 0.85839 0.93457 0.96955 0.0
C599 C 0.87582 0.96879 0.95564 0.0
C600 C 0.85889 0.93412 0.996 0.0
C601 C 0.89387 1.00157 0.96867 0.0
C602 C 0.89448 1.00119 0.99498 0.0
C603 C 0.87742 0.96896 0.03534 0.0
C604 C 0.85982 0.93649 0.04919 0.0
C605 C 0.87705 0.96806 0.00886 0.0
C606 C 0.84192 0.90208 0.03611 0.0
C607 C 0.84146 0.90089 0.00983 0.0
H608 H 0.14779 0.93405 0.45129 0.0
H609 H 0.08462 0.05423 0.45298 0.0
H610 H 0.08554 0.05549 0.49897 0.0
H611 H 0.10427 1.0232 0.53861 0.0
H612 H 0.16747 0.90336 0.53667 0.0
H613 H 0.16644 0.90161 0.49077 0.0
C614 C 0.13416 0.96048 0.46163 0.0
C615 C 0.11616 0.99398 0.44859 0.0
C616 C 0.13479 0.96126 0.48805 0.0
C617 C 0.09871 1.02797 0.46245 0.0
C618 C 0.09921 1.02879 0.48878 0.0
C619 C 0.11785 0.99665 0.52821 0.0
C620 C 0.13593 0.9635 0.54119 0.0
C621 C 0.11718 0.99574 0.50177 0.0
C622 C 0.15334 0.92941 0.52728 0.0
C623 C 0.15278 0.92829 0.50098 0.0
H624 H 0.85053 0.18781 0.54441 0.0
H625 H 0.91304 0.05913 0.54268 0.0
H626 H 0.91146 0.04981 0.49681 0.0
H627 H 0.89282 0.08207 0.45733 0.0
H628 H 0.83039 0.21205 0.45878 0.0
H629 H 0.8315 0.2162 0.50478 0.0
C630 C 0.86383 0.15755 0.53406 0.0
C631 C 0.88193 0.12466 0.54705 0.0
C632 C 0.86284 0.15251 0.50765 0.0
C633 C 0.89893 0.08522 0.53324 0.0
C634 C 0.89805 0.07985 0.50698 0.0
C635 C 0.87936 0.11099 0.4676 0.0
C636 C 0.86155 0.14698 0.45448 0.0
C637 C 0.88014 0.11383 0.494 0.0
C638 C 0.84431 0.18387 0.46829 0.0
C639 C 0.84494 0.18649 0.49463 0.0
H640 H 0.63987 0.69257 0.04352 0.0
H641 H 0.57667 0.57265 0.04392 0.0
H642 H 0.5767 0.56761 0.99792 0.0
H643 H 0.59485 0.59432 0.9576 0.0
H644 H 0.6581 0.71375 0.95758 0.0
H645 H 0.65777 0.7214 0.00345 0.0
C646 C 0.62601 0.66564 0.03365 0.0
C647 C 0.60829 0.63295 0.04734 0.0
C648 C 0.62616 0.66231 0.0072 0.0
C649 C 0.59055 0.59834 0.03401 0.0
C650 C 0.59056 0.59521 0.00765 0.0
C651 C 0.60861 0.62189 0.96758 0.0
C652 C 0.6265 0.65305 0.954 0.0
C653 C 0.60833 0.62639 0.99405 0.0
C654 C 0.6441 0.68908 0.96739 0.0
C655 C 0.64393 0.69359 0.99369 0.0
H656 H 0.34433 0.37362 0.95723 0.0
H657 H 0.40579 0.5155 0.95776 0.0
H658 H 0.40647 0.5077 0.00355 0.0
H659 H 0.38962 0.46403 0.04343 0.0
H660 H 0.32826 0.322 0.04352 0.0
H661 H 0.32765 0.32631 0.99746 0.0
C662 C 0.3579 0.40287 0.96732 0.0
C663 C 0.37494 0.44544 0.95393 0.0
C664 C 0.35824 0.39819 0.99378 0.0
C665 C 0.39241 0.48234 0.96743 0.0
C666 C 0.39284 0.47804 0.99369 0.0
C667 C 0.37608 0.43379 0.03344 0.0
C668 C 0.35898 0.39309 0.04696 0.0
C669 C 0.37582 0.43662 0.00704 0.0
C670 C 0.34165 0.35381 0.03362 0.0
C671 C 0.34127 0.3564 0.00726 0.0
H672 H 0.64701 0.37106 0.45773 0.0
H673 H 0.58162 0.45524 0.46053 0.0
H674 H 0.58279 0.45563 0.50624 0.0
H675 H 0.60217 0.43588 0.54552 0.0
H676 H 0.66756 0.35295 0.54367 0.0
H677 H 0.66648 0.3481 0.49764 0.0
C678 C 0.633 0.38906 0.46832 0.0
C679 C 0.61429 0.41335 0.45549 0.0
C680 C 0.63373 0.38966 0.49486 0.0
C681 C 0.59631 0.43661 0.46968 0.0
C682 C 0.59691 0.43686 0.49594 0.0
C683 C 0.61623 0.41651 0.53515 0.0
C684 C 0.63493 0.39516 0.54817 0.0
C685 C 0.61553 0.41415 0.50872 0.0
C686 C 0.65293 0.36996 0.53423 0.0
C687 C 0.65234 0.36719 0.50786 0.0
H688 H 0.35305 0.70836 0.54394 0.0
H689 H 0.41425 0.56432 0.54227 0.0
H690 H 0.41231 0.55091 0.49657 0.0
H691 H 0.39314 0.5766 0.45716 0.0
H692 H 0.33177 0.71869 0.45854 0.0
H693 H 0.33399 0.7363 0.50425 0.0
C694 C 0.36601 0.67443 0.5336 0.0
C695 C 0.38374 0.63726 0.54663 0.0
C696 C 0.36478 0.66627 0.50724 0.0
C697 C 0.40035 0.59326 0.53284 0.0
C698 C 0.39929 0.58553 0.50665 0.0
C699 C 0.38023 0.61163 0.46738 0.0
C700 C 0.3623 0.64594 0.45434 0.0
C701 C 0.38154 0.62119 0.49367 0.0
C702 C 0.34577 0.69129 0.46802 0.0
C703 C 0.347 0.70146 0.4942 0.0
H704 H 0.94678 0.12432 0.10455 0.0
H705 H 0.95089 0.90988 0.16774 0.0
H706 H 0.989 0.92609 0.16774 0.0
H707 H 0.02134 0.99972 0.14916 0.0
H708 H 0.01673 0.21252 0.08563 0.0
H709 H 0.97877 0.19793 0.08623 0.0
C710 C 0.95603 0.08179 0.11842 0.0
C711 C 0.9461 1.01639 0.13616 0.0
C712 C 0.97789 0.0905 0.1181 0.0
C713 C 0.95823 0.96109 0.15394 0.0
C714 C 0.98002 0.97002 0.15389 0.0
C715 C 0.01197 1.04236 0.13543 0.0
C716 C 0.02179 0.10675 0.11733 0.0
C717 C 0.99005 1.03396 0.13593 0.0
C718 C 0.00952 0.16214 0.0997 0.0
C719 C 0.9878 0.15413 0.10006 0.0
H720 H 0.95414 1.028 0.34369 0.0
H721 H 0.95369 0.14229 0.42023 0.0
H722 H 0.9918 0.14103 0.42118 0.0
H723 H 0.02532 0.11073 0.40002 0.0
H724 H 0.02605 0.99155 0.32396 0.0
H725 H 0.98782 0.99293 0.32284 0.0
C726 C 0.96243 0.05148 0.36062 0.0
C727 C 0.9512 0.08499 0.38186 0.0
C728 C 0.98438 0.05122 0.36098 0.0
C729 C 0.96205 0.11585 0.40367 0.0
C730 C 0.98383 0.11574 0.40419 0.0
C731 C 0.01707 0.086 0.38315 0.0
C732 C 0.02836 0.0521 0.36203 0.0
C733 C 0.99516 0.08469 0.38288 0.0
C734 C 0.01759 1.01857 0.3404 0.0
C735 C 0.99577 1.01888 0.33979 0.0
H736 H 0.03232 0.15617 0.90168 0.0
H737 H 0.04188 0.95466 0.83713 0.0
H738 H 0.00413 0.9337 0.83223 0.0
H739 H 0.96857 0.97511 0.8459 0.0
H740 H 0.95876 0.17688 0.91033 0.0
H741 H -0.00342 0.19716 0.9155 0.0
C742 C 0.02609 0.10687 0.88671 0.0
C743 C 0.03972 0.05653 0.86984 0.0
C744 C 0.00443 0.0967 0.8838 0.0
C745 C 0.03159 0.99368 0.85037 0.0
C746 C 0.01005 0.98218 0.84749 0.0
C747 C 0.97473 1.02418 0.86095 0.0
C748 C 0.96104 0.07498 0.87765 0.0
C749 C -0.00364 1.03412 0.86395 0.0
C750 C 0.96911 0.13765 0.89719 0.0
C751 C 0.99067 0.1487 0.90021 0.0
H752 H 0.97551 0.97846 0.64579 0.0
H753 H 0.97568 0.2173 0.58753 0.0
H754 H 0.01378 0.20942 0.58542 0.0
H755 H 0.04723 0.1353 0.60038 0.0
H756 H 0.04705 0.89827 0.65908 0.0
H757 H 0.00896 0.9054 0.66098 0.0
C758 C 0.98392 1.02816 0.63254 0.0
C759 C 0.97283 0.09793 0.61676 0.0
C760 C 0.00587 1.02423 0.63168 0.0
C761 C 0.98389 0.16267 0.59982 0.0
C762 C 0.00568 0.15846 0.59866 0.0
C763 C 0.03882 0.08578 0.61367 0.0
C764 C 0.04992 1.01662 0.62961 0.0
C765 C 0.01687 0.08994 0.61458 0.0
C766 C 0.03885 0.95245 0.64666 0.0
C767 C 0.01706 0.95619 0.64771 0.0
H768 H 0.44888 0.55647 0.1505 0.0
H769 H 0.44974 0.36189 0.08385 0.0
H770 H 0.48792 0.37403 0.08225 0.0
H771 H 0.5212 0.44064 0.10005 0.0
H772 H 0.51988 0.62778 0.16799 0.0
H773 H 0.48188 0.61691 0.16905 0.0
C774 C 0.45745 0.51739 0.13554 0.0
C775 C 0.4466 0.45936 0.11718 0.0
C776 C 0.47935 0.52254 0.13514 0.0
C777 C 0.45783 0.40756 0.09812 0.0
C778 C 0.47964 0.41422 0.09725 0.0
C779 C 0.51255 0.47821 0.11515 0.0
C780 C 0.5233 0.53494 0.1339 0.0
C781 C 0.4906 0.47124 0.11572 0.0
C782 C 0.51195 0.58337 0.15337 0.0
C783 C 0.49021 0.57765 0.15394 0.0
H784 H 0.45298 0.61978 0.40285 0.0
H785 H 0.44202 0.4024 0.34158 0.0
H786 H 0.47968 0.37352 0.33738 0.0
H787 H 0.51562 0.41198 0.35087 0.0
H788 H 0.52659 0.62805 0.41239 0.0
H789 H 0.48892 0.65672 0.41666 0.0
C790 C 0.45885 0.5656 0.38868 0.0
C791 C 0.44483 0.51301 0.37256 0.0
C792 C 0.48046 0.5501 0.38631 0.0
C793 C 0.45257 0.44334 0.35424 0.0
C794 C 0.47407 0.42721 0.35178 0.0
C795 C 0.50975 0.46575 0.36513 0.0
C796 C 0.52377 0.51836 0.38124 0.0
C797 C 0.48814 0.48069 0.36762 0.0
C798 C 0.51603 0.58714 0.39974 0.0
C799 C 0.49453 0.6032 0.40222 0.0
H800 H 0.46922 0.46596 0.84673 0.0
H801 H 0.4576 0.66835 0.91061 0.0
H802 H 0.49525 0.69114 0.91687 0.0
H803 H 0.53135 0.65179 0.90424 0.0
H804 H 0.54273 0.44947 0.84026 0.0
H805 H 0.50514 0.42649 0.83418 0.0
C806 C 0.47495 0.51572 0.8619 0.0
C807 C 0.46081 0.56592 0.87813 0.0
C808 C 0.49648 0.52708 0.86553 0.0
C809 C 0.46831 0.62952 0.89782 0.0
C810 C 0.48978 0.64202 0.90148 0.0
C811 C 0.52556 0.60193 0.88913 0.0
C812 C 0.53964 0.55188 0.87277 0.0
C813 C 0.50399 0.59052 0.88555 0.0
C814 C 0.53207 0.48827 0.85312 0.0
C815 C 0.51064 0.47561 0.84957 0.0
H816 H 0.47645 0.49518 0.65852 0.0
H817 H 0.47392 0.5574 0.57864 0.0
H818 H 0.51189 0.5426 0.57596 0.0
H819 H 0.54601 0.51672 0.59652 0.0
H820 H 0.5486 0.4458 0.67593 0.0
H821 H 0.51054 0.4605 0.67874 0.0
C822 C 0.48423 0.50433 0.64051 0.0
C823 C 0.47243 0.52741 0.61881 0.0
C824 C 0.50611 0.49564 0.63911 0.0
C825 C 0.48267 0.53927 0.59559 0.0
C826 C 0.5044 0.53145 0.59407 0.0
C827 C 0.5382 0.50521 0.61444 0.0
C828 C 0.55001 0.48153 0.63605 0.0
C829 C 0.5163 0.51093 0.61574 0.0
C830 C 0.53977 0.46475 0.65908 0.0
C831 C 0.51802 0.4728 0.66067 0.0
H832 H 0.14327 0.80405 0.13128 0.0
H833 H 0.08416 0.90781 0.10103 0.0
H834 H 0.07292 0.72251 0.09678 0.0
H835 H 0.08033 0.53133 0.10113 0.0
H836 H 0.13821 0.42937 0.13506 0.0
H837 H 0.14974 0.61398 0.1382 0.0
C838 C 0.1279 0.78594 0.12382 0.0
C839 C 0.11458 0.86887 0.11627 0.0
C840 C 0.12149 0.67982 0.12191 0.0
C841 C 0.09464 0.84497 0.10693 0.0
C842 C 0.08827 0.7392 0.10444 0.0
C843 C 0.0955 0.54958 0.10914 0.0
C844 C 0.10866 0.46677 0.11732 0.0
C845 C 0.10164 0.65603 0.11173 0.0
C846 C 0.12806 0.49154 0.12811 0.0
C847 C 0.13456 0.59708 0.13007 0.0
H848 H 0.82451 0.3107 0.13591 0.0
H849 H 0.88457 0.20924 0.10857 0.0
H850 H 0.8963 0.39437 0.10668 0.0
H851 H 0.88922 0.58527 0.11242 0.0
H852 H 0.83014 0.68516 0.14316 0.0
H853 H 0.81811 0.50075 0.14388 0.0
C854 C 0.84018 0.32929 0.12956 0.0
C855 C 0.85369 0.24666 0.12231 0.0
C856 C 0.84687 0.43564 0.12898 0.0
C857 C 0.87399 0.27147 0.11438 0.0
C858 C 0.88063 0.37731 0.1132 0.0
C859 C 0.87368 0.56669 0.11923 0.0
C860 C 0.8604 0.64917 0.12724 0.0
C861 C 0.86717 0.46007 0.12038 0.0
C862 C 0.84048 0.62357 0.13642 0.0
C863 C 0.83366 0.518 0.13698 0.0
H864 H 0.15032 0.3627 0.36257 0.0
H865 H 0.08968 0.25962 0.3878 0.0
H866 H 0.07806 0.44488 0.3903 0.0
H867 H 0.08541 0.63595 0.38553 0.0
H868 H 0.14507 0.73726 0.35661 0.0
H869 H 0.157 0.5528 0.35552 0.0
C870 C 0.13455 0.38098 0.36861 0.0
C871 C 0.12086 0.29814 0.37516 0.0
C872 C 0.12794 0.48716 0.36946 0.0
C873 C 0.10042 0.32232 0.38264 0.0
C874 C 0.09384 0.42809 0.38413 0.0
C875 C 0.10105 0.6176 0.37905 0.0
C876 C 0.11454 0.70025 0.37163 0.0
C877 C 0.1075 0.51114 0.37766 0.0
C878 C 0.13459 0.67526 0.36286 0.0
C879 C 0.14135 0.56977 0.3621 0.0
H880 H 0.89742 0.53136 0.3794 0.0
H881 H 0.83476 0.42072 0.36573 0.0
H882 H 0.82187 0.6037 0.36678 0.0
H883 H 0.82861 0.79497 0.37139 0.0
H884 H 0.8915 0.90648 0.38341 0.0
H885 H 0.90429 0.72299 0.38304 0.0
C886 C 0.88093 0.54739 0.37666 0.0
C887 C 0.86692 0.46265 0.37296 0.0
C888 C 0.87379 0.65276 0.37691 0.0
C889 C 0.84568 0.48439 0.36921 0.0
C890 C 0.83838 0.58904 0.36963 0.0
C891 C 0.84512 0.77898 0.37397 0.0
C892 C 0.85914 0.86372 0.3775 0.0
C893 C 0.8523 0.67372 0.37353 0.0
C894 C 0.88047 0.84233 0.38067 0.0
C895 C 0.88775 0.73759 0.38047 0.0
H896 H 0.84027 0.34774 0.88679 0.0
H897 H 0.9016 0.23579 0.86665 0.0
H898 H 0.91435 0.41911 0.86487 0.0
H899 H 0.90775 0.61141 0.86829 0.0
H900 H 0.84696 0.72222 0.89071 0.0
H901 H 0.83407 0.53944 0.89198 0.0
C902 C 0.85645 0.3636 0.88208 0.0
C903 C 0.87003 0.27862 0.87688 0.0
C904 C 0.86361 0.46898 0.88118 0.0
C905 C 0.89094 0.29995 0.8709 0.0
C906 C 0.89818 0.40471 0.86977 0.0
C907 C 0.89166 0.59542 0.8734 0.0
C908 C 0.87804 0.68044 0.87849 0.0
C909 C 0.88462 0.48984 0.87476 0.0
C910 C 0.85739 0.65863 0.88553 0.0
C911 C 0.85016 0.55393 0.88664 0.0
H912 H 0.09243 0.5216 0.86228 0.0
H913 H 0.15475 0.40923 0.87711 0.0
H914 H 0.16774 0.59164 0.87763 0.0
H915 H 0.16112 0.78354 0.87438 0.0
H916 H 0.09827 0.89682 0.86372 0.0
H917 H 0.08549 0.71391 0.86147 0.0
C918 C 0.10888 0.53717 0.8655 0.0
C919 C 0.12286 0.45192 0.86858 0.0
C920 C 0.11599 0.64249 0.86678 0.0
C921 C 0.14398 0.47312 0.87335 0.0
C922 C 0.1513 0.57759 0.87409 0.0
C923 C 0.14462 0.76804 0.87157 0.0
C924 C 0.1306 0.85332 0.86894 0.0
C925 C 0.13744 0.66284 0.87076 0.0
C926 C 0.10928 0.83245 0.86563 0.0
C927 C 0.10202 0.72789 0.86434 0.0
H928 H 0.85692 0.78595 0.60444 0.0
H929 H 0.91077 0.88145 0.64775 0.0
H930 H 0.92015 0.69541 0.65452 0.0
H931 H 0.91279 0.50568 0.6485 0.0
H932 H 0.85918 0.4101 0.60476 0.0
H933 H 0.84969 0.59612 0.59817 0.0
C934 C 0.87076 0.76592 0.61526 0.0
C935 C 0.88317 0.84708 0.62555 0.0
C936 C 0.87593 0.6589 0.61924 0.0
C937 C 0.90104 0.82025 0.63955 0.0
C938 C 0.90634 0.71395 0.64353 0.0
C939 C 0.89897 0.52566 0.63764 0.0
C940 C 0.88662 0.44447 0.62726 0.0
C941 C 0.89383 0.63266 0.63359 0.0
C942 C 0.86883 0.4713 0.6131 0.0
C943 C 0.86348 0.57759 0.60921 0.0
H944 H 0.17208 0.32807 0.62786 0.0
H945 H 0.1115 0.22599 0.60205 0.0
H946 H 0.10002 0.41149 0.59924 0.0
H947 H 0.10753 0.6026 0.60376 0.0
H948 H 0.16718 0.70283 0.63309 0.0
H949 H 0.17891 0.51807 0.63466 0.0
C950 C 0.15634 0.34659 0.62166 0.0
C951 C 0.14263 0.2639 0.61506 0.0
C952 C 0.14983 0.45294 0.62055 0.0
C953 C 0.12225 0.28848 0.60731 0.0
C954 C 0.11575 0.39443 0.60562 0.0
C955 C 0.12312 0.58397 0.61042 0.0
C956 C 0.13666 0.66646 0.61782 0.0
C957 C 0.12945 0.4773 0.61209 0.0
C958 C 0.15666 0.64103 0.62683 0.0
C959 C 0.1633 0.53535 0.62788 0.0
H960 H 0.57722 0.98787 0.13286 0.0
H961 H 0.63916 0.87447 0.11646 0.0
H962 H 0.65204 0.05731 0.11458 0.0
H963 H 0.64552 0.24965 0.11767 0.0
H964 H 0.58333 0.36327 0.13291 0.0
H965 H 0.57051 0.18018 0.13487 0.0
C966 C 0.59355 1.0033 0.12889 0.0
C967 C 0.60738 0.91779 0.12536 0.0
C968 C 0.60067 0.10864 0.12746 0.0
C969 C 0.62841 0.93876 0.11998 0.0
C970 C 0.63569 1.04337 0.11867 0.0
C971 C 0.62915 0.23419 0.12136 0.0
C972 C 0.61533 0.3196 0.12509 0.0
C973 C 0.62197 0.12888 0.12246 0.0
C974 C 0.59419 0.29876 0.12983 0.0
C975 C 0.5869 0.19415 0.13103 0.0
H976 H 0.37237 0.71749 0.15012 0.0
H977 H 0.33443 0.73052 0.08302 0.0
H978 H 0.33587 0.92413 0.0833 0.0
H979 H 0.34768 0.09211 0.10278 0.0
H980 H 0.3856 0.07921 0.16991 0.0
H981 H 0.38416 0.88558 0.16963 0.0
C982 C 0.3646 0.76279 0.13546 0.0
C983 C 0.35336 0.70916 0.11653 0.0
C984 C 0.36526 0.87508 0.13589 0.0
C985 C 0.34321 0.76949 0.09781 0.0
C986 C 0.34395 0.88054 0.098 0.0
C987 C 0.35546 1.04686 0.11745 0.0
C988 C 0.36669 0.10056 0.13637 0.0
C989 C 0.3548 0.93458 0.11703 0.0
C990 C 0.37682 1.04024 0.15511 0.0
C991 C 0.37609 0.92916 0.15493 0.0
H992 H 0.57695 0.05896 0.37586 0.0
H993 H 0.6404 0.1712 0.3804 0.0
H994 H 0.65319 0.98797 0.37966 0.0
H995 H 0.64615 0.79616 0.37777 0.0
H996 H 0.58266 0.68377 0.37364 0.0
H997 H 0.56988 0.8671 0.3744 0.0
C998 C 0.59359 1.04319 0.37669 0.0
C999 C 0.6078 0.12825 0.37785 0.0
C1000 C 0.60071 0.93785 0.37646 0.0
C1001 C 0.62926 0.10703 0.37903 0.0
C1002 C 0.63652 1.00233 0.37877 0.0
C1003 C 0.62951 0.81191 0.37706 0.0
C1004 C 0.6153 0.72689 0.37578 0.0
C1005 C 0.62238 0.91723 0.37743 0.0
C1006 C 0.59382 0.74803 0.37486 0.0
C1007 C 0.58656 0.85274 0.3752 0.0
H1008 H 0.39206 0.97323 0.38095 0.0
H1009 H 0.33146 0.87306 0.35499 0.0
H1010 H 0.31954 0.05765 0.35426 0.0
H1011 H 0.32656 0.24784 0.36068 0.0
H1012 H 0.38684 0.34838 0.388 0.0
H1013 H 0.39887 0.16367 0.38824 0.0
C1014 C 0.37622 0.99197 0.37518 0.0
C1015 C 0.36249 0.90945 0.36835 0.0
C1016 C 0.36955 0.09844 0.37489 0.0
C1017 C 0.34207 0.93471 0.36092 0.0
C1018 C 0.33537 1.04045 0.36027 0.0
C1019 C 0.34235 0.22936 0.36666 0.0
C1020 C 0.35587 0.31178 0.37415 0.0
C1021 C 0.34897 0.12293 0.36721 0.0
C1022 C 0.37621 0.2865 0.38201 0.0
C1023 C 0.38305 0.18088 0.38221 0.0
H1024 H 0.34025 0.8354 0.8848 0.0
H1025 H 0.40181 0.72297 0.86584 0.0
H1026 H 0.41458 0.9062 0.86401 0.0
H1027 H 0.40794 0.09855 0.86702 0.0
H1028 H 0.34683 0.21005 0.88799 0.0
H1029 H 0.33396 1.02728 0.88942 0.0
C1030 C 0.35648 0.85114 0.88035 0.0
C1031 C 0.37013 0.76603 0.87553 0.0
C1032 C 0.36365 0.9565 0.87936 0.0
C1033 C 0.3911 0.78722 0.86984 0.0
C1034 C 0.39835 0.89194 0.86867 0.0
C1035 C 0.39179 0.0827 0.87185 0.0
C1036 C 0.3781 0.16785 0.87653 0.0
C1037 C 0.38473 0.97718 0.87327 0.0
C1038 C 0.35735 0.14627 0.88318 0.0
C1039 C 0.35011 1.04161 0.88438 0.0
H1040 H 0.66082 0.27944 0.88262 0.0
H1041 H 0.59846 0.39257 0.86832 0.0
H1042 H 0.58578 0.20968 0.8654 0.0
H1043 H 0.5927 1.01742 0.86659 0.0
H1044 H 0.65435 0.90504 0.88507 0.0
H1045 H 0.66731 0.08747 0.88629 0.0
C1046 C 0.64445 0.2639 0.87889 0.0
C1047 C 0.63055 0.34916 0.87544 0.0
C1048 C 0.63732 0.15867 0.87767 0.0
C1049 C 0.60938 0.32824 0.87091 0.0
C1050 C 0.60219 0.22368 0.86922 0.0
C1051 C 0.609 1.03299 0.87076 0.0
C1052 C 0.62284 0.94772 0.87463 0.0
C1053 C 0.61605 0.1383 0.87246 0.0
C1054 C 0.64375 0.96893 0.88064 0.0
C1055 C 0.65103 0.07341 0.8818 0.0
H1056 H 0.3656 0.95125 0.6267 0.0
H1057 H 0.43252 0.98598 0.62389 0.0
H1058 H 0.4292 0.17819 0.62395 0.0
H1059 H 0.40734 0.34131 0.62473 0.0
H1060 H 0.34042 0.30661 0.62784 0.0
H1061 H 0.34374 0.11435 0.62778 0.0
C1062 C 0.37942 1.00084 0.62614 0.0
C1063 C 0.39928 0.95267 0.62531 0.0
C1064 C 0.37746 0.11348 0.62623 0.0
C1065 C 0.41696 1.01957 0.62456 0.0
C1066 C 0.41513 0.13044 0.62459 0.0
C1067 C 0.39352 0.29167 0.6254 0.0
C1068 C 0.37366 0.33983 0.62628 0.0
C1069 C 0.39547 0.17904 0.62541 0.0
C1070 C 0.35597 0.27298 0.62716 0.0
C1071 C 0.35781 0.1621 0.62712 0.0
H1072 H 0.66602 0.77445 0.64865 0.0
H1073 H 0.61283 0.68168 0.60387 0.0
H1074 H 0.6025 0.86793 0.59948 0.0
H1075 H 0.60882 0.05705 0.60807 0.0
H1076 H 0.66161 0.1498 0.65355 0.0
H1077 H 0.67208 0.96367 0.65774 0.0
C1078 C 0.65215 0.79509 0.63796 0.0
C1079 C 0.64021 0.71457 0.62654 0.0
C1080 C 0.64636 0.90225 0.63551 0.0
C1081 C 0.62225 0.74226 0.61282 0.0
C1082 C 0.61638 0.84871 0.61027 0.0
C1083 C 0.62264 1.0365 0.61888 0.0
C1084 C 0.63452 0.11709 0.63036 0.0
C1085 C 0.62836 0.92934 0.62146 0.0
C1086 C 0.65232 0.08932 0.64436 0.0
C1087 C 0.65825 0.98289 0.64684 0.0
loop_
_geom_bond_atom_site_label_1
_geom_bond_atom_site_label_2
_geom_bond_distance
_geom_bond_site_symmetry_2
_ccdc_geom_bond_type
Tb0 O3 2.453 . S
Tb0 O4 2.596 . S
Tb0 O5 2.374 . S
Tb0 O13 2.343 . S
Tb0 O15 2.353 . S
Tb0 O17 2.427 . S
Tb0 O18 2.513 . S
C1 O5 1.251 . S
C1 O7 1.263 . S
Tb2 O4 2.343 . S
Tb2 O7 2.353 . S
Tb2 O10 2.427 . S
Tb2 O11 2.513 . S
Tb2 O12 2.453 1_545 S
Tb2 O13 2.596 . S
Tb2 O14 2.374 . S
O3 Tb0 2.453 . S
O3 C19 1.245 . S
O4 Tb0 2.596 . S
O4 Tb2 2.343 . S
O4 C19 1.259 . S
O5 Tb0 2.374 . S
O5 C1 1.251 . S
C6 O10 1.275 . S
C6 O11 1.246 . S
O7 C1 1.263 . S
O7 Tb2 2.353 . S
C8 O12 1.245 . S
C8 O13 1.259 1_565 S
C9 O14 1.250 . S
C9 O15 1.263 . S
O10 Tb2 2.427 . S
O10 C6 1.275 . S
O11 Tb2 2.513 . S
O11 C6 1.246 . S
O12 Tb2 2.453 1_565 S
O12 C8 1.245 . S
O13 Tb0 2.343 . S
O13 Tb2 2.596 . S
O13 C8 1.259 1_545 S
O14 Tb2 2.374 . S
O14 C9 1.250 . S
O15 Tb0 2.353 . S
O15 C9 1.263 . S
C16 O17 1.275 . S
C16 O18 1.246 . S
O17 Tb0 2.427 . S
O17 C16 1.275 . S
O18 Tb0 2.513 . S
O18 C16 1.246 . S
C19 O3 1.245 . S
C19 O4 1.259 . S
Tb20 O23 2.453 . S
Tb20 O24 2.596 . S
Tb20 O25 2.374 . S
Tb20 O33 2.343 . S
Tb20 O35 2.353 . S
Tb20 O37 2.427 . S
Tb20 O38 2.513 . S
C21 O25 1.251 . S
C21 O27 1.263 . S
Tb22 O24 2.343 . S
Tb22 O27 2.353 . S
Tb22 O30 2.427 . S
Tb22 O31 2.513 . S
Tb22 O32 2.453 1_565 S
Tb22 O33 2.596 . S
Tb22 O34 2.374 . S
O23 Tb20 2.453 . S
O23 C39 1.245 . S
O24 Tb20 2.596 . S
O24 Tb22 2.343 . S
O24 C39 1.259 . S
O25 Tb20 2.374 . S
O25 C21 1.251 . S
C26 O30 1.275 . S
C26 O31 1.246 . S
O27 C21 1.263 . S
O27 Tb22 2.353 . S
C28 O32 1.245 . S
C28 O33 1.259 1_545 S
C29 O34 1.250 . S
C29 O35 1.263 . S
O30 Tb22 2.427 . S
O30 C26 1.275 . S
O31 Tb22 2.513 . S
O31 C26 1.246 . S
O32 Tb22 2.453 1_545 S
O32 C28 1.245 . S
O33 Tb20 2.343 . S
O33 Tb22 2.596 . S
O33 C28 1.259 1_565 S
O34 Tb22 2.374 . S
O34 C29 1.250 . S
O35 Tb20 2.353 . S
O35 C29 1.263 . S
C36 O37 1.275 . S
C36 O38 1.246 . S
O37 Tb20 2.427 . S
O37 C36 1.275 . S
O38 Tb20 2.513 . S
O38 C36 1.246 . S
C39 O23 1.245 . S
C39 O24 1.259 . S
Tb40 O43 2.453 . S
Tb40 O44 2.596 . S
Tb40 O45 2.374 . S
Tb40 O53 2.343 . S
Tb40 O55 2.353 . S
Tb40 O57 2.427 . S
Tb40 O58 2.513 . S
C41 O45 1.251 . S
C41 O47 1.263 . S
Tb42 O44 2.343 . S
Tb42 O47 2.353 . S
Tb42 O50 2.427 . S
Tb42 O51 2.513 . S
Tb42 O52 2.453 1_565 S
Tb42 O53 2.596 . S
Tb42 O54 2.374 . S
O43 Tb40 2.453 . S
O43 C59 1.245 . S
O44 Tb40 2.596 . S
O44 Tb42 2.343 . S
O44 C59 1.259 . S
O45 Tb40 2.374 . S
O45 C41 1.251 . S
C46 O50 1.275 . S
C46 O51 1.246 . S
O47 C41 1.263 . S
O47 Tb42 2.353 . S
C48 O52 1.245 . S
C48 O53 1.259 1_545 S
C49 O54 1.250 . S
C49 O55 1.263 . S
O50 Tb42 2.427 . S
O50 C46 1.275 . S
O51 Tb42 2.513 . S
O51 C46 1.246 . S
O52 Tb42 2.453 1_545 S
O52 C48 1.245 . S
O53 Tb40 2.343 . S
O53 Tb42 2.596 . S
O53 C48 1.259 1_565 S
O54 Tb42 2.374 . S
O54 C49 1.250 . S
O55 Tb40 2.353 . S
O55 C49 1.263 . S
C56 O57 1.275 . S
C56 O58 1.246 . S
O57 Tb40 2.427 . S
O57 C56 1.275 . S
O58 Tb40 2.513 . S
O58 C56 1.246 . S
C59 O43 1.245 . S
C59 O44 1.259 . S
Tb60 O63 2.453 . S
Tb60 O64 2.596 . S
Tb60 O65 2.374 . S
Tb60 O73 2.343 . S
Tb60 O75 2.353 . S
Tb60 O77 2.427 . S
Tb60 O78 2.513 . S
C61 O65 1.251 . S
C61 O67 1.263 . S
Tb62 O64 2.343 . S
Tb62 O67 2.353 . S
Tb62 O70 2.427 . S
Tb62 O71 2.513 . S
Tb62 O72 2.453 1_545 S
Tb62 O73 2.596 . S
Tb62 O74 2.374 . S
O63 Tb60 2.453 . S
O63 C79 1.245 . S
O64 Tb60 2.596 . S
O64 Tb62 2.343 . S
O64 C79 1.259 . S
O65 Tb60 2.374 . S
O65 C61 1.251 . S
C66 O70 1.275 . S
C66 O71 1.246 . S
O67 C61 1.263 . S
O67 Tb62 2.353 . S
C68 O72 1.245 . S
C68 O73 1.259 1_565 S
C69 O74 1.250 . S
C69 O75 1.263 . S
O70 Tb62 2.427 . S
O70 C66 1.275 . S
O71 Tb62 2.513 . S
O71 C66 1.246 . S
O72 Tb62 2.453 1_565 S
O72 C68 1.245 . S
O73 Tb60 2.343 . S
O73 Tb62 2.596 . S
O73 C68 1.259 1_545 S
O74 Tb62 2.374 . S
O74 C69 1.250 . S
O75 Tb60 2.353 . S
O75 C69 1.263 . S
C76 O77 1.275 . S
C76 O78 1.246 . S
O77 Tb60 2.427 . S
O77 C76 1.275 . S
O78 Tb60 2.513 . S
O78 C76 1.246 . S
C79 O63 1.245 . S
C79 O64 1.259 . S
Tb80 O83 2.453 1_565 S
Tb80 O84 2.596 . S
Tb80 O85 2.374 . S
Tb80 O93 2.343 . S
Tb80 O95 2.353 . S
Tb80 O97 2.427 . S
Tb80 O98 2.513 . S
C81 O85 1.251 . S
C81 O87 1.263 . S
Tb82 O84 2.343 . S
Tb82 O87 2.353 . S
Tb82 O90 2.427 . S
Tb82 O91 2.513 . S
Tb82 O92 2.453 . S
Tb82 O93 2.596 . S
Tb82 O94 2.374 . S
O83 Tb80 2.453 1_545 S
O83 C99 1.245 . S
O84 Tb80 2.596 . S
O84 Tb82 2.343 . S
O84 C99 1.259 1_565 S
O85 Tb80 2.374 . S
O85 C81 1.251 . S
C86 O90 1.275 . S
C86 O91 1.246 . S
O87 C81 1.263 . S
O87 Tb82 2.353 . S
C88 O92 1.245 . S
C88 O93 1.259 . S
C89 O94 1.250 . S
C89 O95 1.263 . S
O90 Tb82 2.427 . S
O90 C86 1.275 . S
O91 Tb82 2.513 . S
O91 C86 1.246 . S
O92 Tb82 2.453 . S
O92 C88 1.245 . S
O93 Tb80 2.343 . S
O93 Tb82 2.596 . S
O93 C88 1.259 . S
O94 Tb82 2.374 . S
O94 C89 1.250 . S
O95 Tb80 2.353 . S
O95 C89 1.263 . S
C96 O97 1.275 . S
C96 O98 1.246 . S
O97 Tb80 2.427 . S
O97 C96 1.275 . S
O98 Tb80 2.513 . S
O98 C96 1.246 . S
C99 O83 1.245 . S
C99 O84 1.259 1_545 S
Tb100 O103 2.453 1_545 S
Tb100 O104 2.596 . S
Tb100 O105 2.374 . S
Tb100 O113 2.343 . S
Tb100 O115 2.353 . S
Tb100 O117 2.427 . S
Tb100 O118 2.513 . S
C101 O105 1.251 . S
C101 O107 1.263 . S
Tb102 O104 2.343 . S
Tb102 O107 2.353 . S
Tb102 O110 2.427 . S
Tb102 O111 2.513 . S
Tb102 O112 2.453 . S
Tb102 O113 2.596 . S
Tb102 O114 2.374 . S
O103 Tb100 2.453 1_565 S
O103 C119 1.245 . S
O104 Tb100 2.596 . S
O104 Tb102 2.343 . S
O104 C119 1.259 1_545 S
O105 Tb100 2.374 . S
O105 C101 1.251 . S
C106 O110 1.275 . S
C106 O111 1.246 . S
O107 C101 1.263 . S
O107 Tb102 2.353 . S
C108 O112 1.245 . S
C108 O113 1.259 . S
C109 O114 1.250 . S
C109 O115 1.263 . S
O110 Tb102 2.427 . S
O110 C106 1.275 . S
O111 Tb102 2.513 . S
O111 C106 1.246 . S
O112 Tb102 2.453 . S
O112 C108 1.245 . S
O113 Tb100 2.343 . S
O113 Tb102 2.596 . S
O113 C108 1.259 . S
O114 Tb102 2.374 . S
O114 C109 1.250 . S
O115 Tb100 2.353 . S
O115 C109 1.263 . S
C116 O117 1.275 . S
C116 O118 1.246 . S
O117 Tb100 2.427 . S
O117 C116 1.275 . S
O118 Tb100 2.513 . S
O118 C116 1.246 . S
C119 O103 1.245 . S
C119 O104 1.259 1_565 S
Tb120 O123 2.453 1_545 S
Tb120 O124 2.596 . S
Tb120 O125 2.374 . S
Tb120 O133 2.343 . S
Tb120 O135 2.353 . S
Tb120 O137 2.427 . S
Tb120 O138 2.513 . S
C121 O125 1.251 . S
C121 O127 1.263 . S
Tb122 O124 2.343 . S
Tb122 O127 2.353 . S
Tb122 O130 2.427 . S
Tb122 O131 2.513 . S
Tb122 O132 2.453 . S
Tb122 O133 2.596 . S
Tb122 O134 2.374 . S
O123 Tb120 2.453 1_565 S
O123 C139 1.245 . S
O124 Tb120 2.596 . S
O124 Tb122 2.343 . S
O124 C139 1.259 1_545 S
O125 Tb120 2.374 . S
O125 C121 1.251 . S
C126 O130 1.275 . S
C126 O131 1.246 . S
O127 C121 1.263 . S
O127 Tb122 2.353 . S
C128 O132 1.245 . S
C128 O133 1.259 . S
C129 O134 1.250 . S
C129 O135 1.263 . S
O130 Tb122 2.427 . S
O130 C126 1.275 . S
O131 Tb122 2.513 . S
O131 C126 1.246 . S
O132 Tb122 2.453 . S
O132 C128 1.245 . S
O133 Tb120 2.343 . S
O133 Tb122 2.596 . S
O133 C128 1.259 . S
O134 Tb122 2.374 . S
O134 C129 1.250 . S
O135 Tb120 2.353 . S
O135 C129 1.263 . S
C136 O137 1.275 . S
C136 O138 1.246 . S
O137 Tb120 2.427 . S
O137 C136 1.275 . S
O138 Tb120 2.513 . S
O138 C136 1.246 . S
C139 O123 1.245 . S
C139 O124 1.259 1_565 S
Tb140 O143 2.453 1_565 S
Tb140 O144 2.596 . S
Tb140 O145 2.374 . S
Tb140 O153 2.343 . S
Tb140 O155 2.353 . S
Tb140 O157 2.427 . S
Tb140 O158 2.513 . S
C141 O145 1.251 . S
C141 O147 1.263 . S
Tb142 O144 2.343 . S
Tb142 O147 2.353 . S
Tb142 O150 2.427 . S
Tb142 O151 2.513 . S
Tb142 O152 2.453 . S
Tb142 O153 2.596 . S
Tb142 O154 2.374 . S
O143 Tb140 2.453 1_545 S
O143 C159 1.245 . S
O144 Tb140 2.596 . S
O144 Tb142 2.343 . S
O144 C159 1.259 1_565 S
O145 Tb140 2.374 . S
O145 C141 1.251 . S
C146 O150 1.275 . S
C146 O151 1.246 . S
O147 C141 1.263 . S
O147 Tb142 2.353 . S
C148 O152 1.245 . S
C148 O153 1.259 . S
C149 O154 1.250 . S
C149 O155 1.263 . S
O150 Tb142 2.427 . S
O150 C146 1.275 . S
O151 Tb142 2.513 . S
O151 C146 1.246 . S
O152 Tb142 2.453 . S
O152 C148 1.245 . S
O153 Tb140 2.343 . S
O153 Tb142 2.596 . S
O153 C148 1.259 . S
O154 Tb142 2.374 . S
O154 C149 1.250 . S
O155 Tb140 2.353 . S
O155 C149 1.263 . S
C156 O157 1.275 . S
C156 O158 1.246 . S
O157 Tb140 2.427 . S
O157 C156 1.275 . S
O158 Tb140 2.513 . S
O158 C156 1.246 . S
C159 O143 1.245 . S
C159 O144 1.259 1_545 S
Tb160 O163 2.453 . S
Tb160 O164 2.596 . S
Tb160 O165 2.374 . S
Tb160 O173 2.343 . S
Tb160 O175 2.353 . S
Tb160 O177 2.427 . S
Tb160 O178 2.513 . S
C161 O165 1.251 . S
C161 O167 1.263 . S
Tb162 O164 2.343 . S
Tb162 O167 2.353 . S
Tb162 O170 2.427 . S
Tb162 O171 2.513 . S
Tb162 O172 2.453 . S
Tb162 O173 2.596 . S
Tb162 O174 2.374 . S
O163 Tb160 2.453 . S
O163 C179 1.245 . S
O164 Tb160 2.596 . S
O164 Tb162 2.343 . S
O164 C179 1.259 . S
O165 Tb160 2.374 . S
O165 C161 1.251 . S
C166 O170 1.275 . S
C166 O171 1.246 . S
O167 C161 1.263 . S
O167 Tb162 2.353 . S
C168 O172 1.245 . S
C168 O173 1.259 . S
C169 O174 1.250 . S
C169 O175 1.263 . S
O170 Tb162 2.427 . S
O170 C166 1.275 . S
O171 Tb162 2.513 . S
O171 C166 1.246 . S
O172 Tb162 2.453 . S
O172 C168 1.245 . S
O173 Tb160 2.343 . S
O173 Tb162 2.596 . S
O173 C168 1.259 . S
O174 Tb162 2.374 . S
O174 C169 1.250 . S
O175 Tb160 2.353 . S
O175 C169 1.263 . S
C176 O177 1.275 . S
C176 O178 1.246 . S
O177 Tb160 2.427 . S
O177 C176 1.275 . S
O178 Tb160 2.513 . S
O178 C176 1.246 . S
C179 O163 1.245 . S
C179 O164 1.259 . S
Tb180 O183 2.453 . S
Tb180 O184 2.596 . S
Tb180 O185 2.374 . S
Tb180 O193 2.343 . S
Tb180 O195 2.353 . S
Tb180 O197 2.427 . S
Tb180 O198 2.513 . S
C181 O185 1.251 . S
C181 O187 1.263 . S
Tb182 O184 2.343 . S
Tb182 O187 2.353 . S
Tb182 O190 2.427 . S
Tb182 O191 2.513 . S
Tb182 O192 2.453 . S
Tb182 O193 2.596 . S
Tb182 O194 2.374 . S
O183 Tb180 2.453 . S
O183 C199 1.245 . S
O184 Tb180 2.596 . S
O184 Tb182 2.343 . S
O184 C199 1.259 . S
O185 Tb180 2.374 . S
O185 C181 1.251 . S
C186 O190 1.275 . S
C186 O191 1.246 . S
O187 C181 1.263 . S
O187 Tb182 2.353 . S
C188 O192 1.245 . S
C188 O193 1.259 . S
C189 O194 1.250 . S
C189 O195 1.263 . S
O190 Tb182 2.427 . S
O190 C186 1.275 . S
O191 Tb182 2.513 . S
O191 C186 1.246 . S
O192 Tb182 2.453 . S
O192 C188 1.245 . S
O193 Tb180 2.343 . S
O193 Tb182 2.596 . S
O193 C188 1.259 . S
O194 Tb182 2.374 . S
O194 C189 1.250 . S
O195 Tb180 2.353 . S
O195 C189 1.263 . S
C196 O197 1.275 . S
C196 O198 1.246 . S
O197 Tb180 2.427 . S
O197 C196 1.275 . S
O198 Tb180 2.513 . S
O198 C196 1.246 . S
C199 O183 1.245 . S
C199 O184 1.259 . S
Tb200 O203 2.453 . S
Tb200 O204 2.596 . S
Tb200 O205 2.374 . S
Tb200 O213 2.343 . S
Tb200 O215 2.353 . S
Tb200 O217 2.427 . S
Tb200 O218 2.513 . S
C201 O205 1.251 . S
C201 O207 1.263 . S
Tb202 O204 2.343 . S
Tb202 O207 2.353 . S
Tb202 O210 2.427 . S
Tb202 O211 2.513 . S
Tb202 O212 2.453 . S
Tb202 O213 2.596 . S
Tb202 O214 2.374 . S
O203 Tb200 2.453 . S
O203 C219 1.245 . S
O204 Tb200 2.596 . S
O204 Tb202 2.343 . S
O204 C219 1.259 . S
O205 Tb200 2.374 . S
O205 C201 1.251 . S
C206 O210 1.275 . S
C206 O211 1.246 . S
O207 C201 1.263 . S
O207 Tb202 2.353 . S
C208 O212 1.245 . S
C208 O213 1.259 . S
C209 O214 1.250 . S
C209 O215 1.263 . S
O210 Tb202 2.427 . S
O210 C206 1.275 . S
O211 Tb202 2.513 . S
O211 C206 1.246 . S
O212 Tb202 2.453 . S
O212 C208 1.245 . S
O213 Tb200 2.343 . S
O213 Tb202 2.596 . S
O213 C208 1.259 . S
O214 Tb202 2.374 . S
O214 C209 1.250 . S
O215 Tb200 2.353 . S
O215 C209 1.263 . S
C216 O217 1.275 . S
C216 O218 1.246 . S
O217 Tb200 2.427 . S
O217 C216 1.275 . S
O218 Tb200 2.513 . S
O218 C216 1.246 . S
C219 O203 1.245 . S
C219 O204 1.259 . S
Tb220 O223 2.453 . S
Tb220 O224 2.596 . S
Tb220 O225 2.374 . S
Tb220 O233 2.343 . S
Tb220 O235 2.353 . S
Tb220 O237 2.427 . S
Tb220 O238 2.513 . S
C221 O225 1.251 . S
C221 O227 1.263 . S
Tb222 O224 2.343 . S
Tb222 O227 2.353 . S
Tb222 O230 2.427 . S
Tb222 O231 2.513 . S
Tb222 O232 2.453 . S
Tb222 O233 2.596 . S
Tb222 O234 2.374 . S
O223 Tb220 2.453 . S
O223 C239 1.245 . S
O224 Tb220 2.596 . S
O224 Tb222 2.343 . S
O224 C239 1.259 . S
O225 Tb220 2.374 . S
O225 C221 1.251 . S
C226 O230 1.275 . S
C226 O231 1.246 . S
O227 C221 1.263 . S
O227 Tb222 2.353 . S
C228 O232 1.245 . S
C228 O233 1.259 . S
C229 O234 1.250 . S
C229 O235 1.263 . S
O230 Tb222 2.427 . S
O230 C226 1.275 . S
O231 Tb222 2.513 . S
O231 C226 1.246 . S
O232 Tb222 2.453 . S
O232 C228 1.245 . S
O233 Tb220 2.343 . S
O233 Tb222 2.596 . S
O233 C228 1.259 . S
O234 Tb222 2.374 . S
O234 C229 1.250 . S
O235 Tb220 2.353 . S
O235 C229 1.263 . S
C236 O237 1.275 . S
C236 O238 1.246 . S
O237 Tb220 2.427 . S
O237 C236 1.275 . S
O238 Tb220 2.513 . S
O238 C236 1.246 . S
C239 O223 1.245 . S
C239 O224 1.259 . S
Tb240 O243 2.453 . S
Tb240 O244 2.596 . S
Tb240 O245 2.374 . S
Tb240 O253 2.343 . S
Tb240 O255 2.353 . S
Tb240 O257 2.427 . S
Tb240 O258 2.513 . S
C241 O245 1.251 . S
C241 O247 1.263 . S
Tb242 O244 2.343 . S
Tb242 O247 2.353 . S
Tb242 O250 2.427 . S
Tb242 O251 2.513 . S
Tb242 O252 2.453 . S
Tb242 O253 2.596 . S
Tb242 O254 2.374 . S
O243 Tb240 2.453 . S
O243 C259 1.245 . S
O244 Tb240 2.596 . S
O244 Tb242 2.343 . S
O244 C259 1.259 . S
O245 Tb240 2.374 . S
O245 C241 1.251 . S
C246 O250 1.275 . S
C246 O251 1.246 . S
O247 C241 1.263 . S
O247 Tb242 2.353 . S
C248 O252 1.245 . S
C248 O253 1.259 . S
C249 O254 1.250 . S
C249 O255 1.263 . S
O250 Tb242 2.427 . S
O250 C246 1.275 . S
O251 Tb242 2.513 . S
O251 C246 1.246 . S
O252 Tb242 2.453 . S
O252 C248 1.245 . S
O253 Tb240 2.343 . S
O253 Tb242 2.596 . S
O253 C248 1.259 . S
O254 Tb242 2.374 . S
O254 C249 1.250 . S
O255 Tb240 2.353 . S
O255 C249 1.263 . S
C256 O257 1.275 . S
C256 O258 1.246 . S
O257 Tb240 2.427 . S
O257 C256 1.275 . S
O258 Tb240 2.513 . S
O258 C256 1.246 . S
C259 O243 1.245 . S
C259 O244 1.259 . S
Tb260 O263 2.453 . S
Tb260 O264 2.596 . S
Tb260 O265 2.374 . S
Tb260 O273 2.343 . S
Tb260 O275 2.353 . S
Tb260 O277 2.427 . S
Tb260 O278 2.513 . S
C261 O265 1.251 . S
C261 O267 1.263 . S
Tb262 O264 2.343 . S
Tb262 O267 2.353 . S
Tb262 O270 2.427 . S
Tb262 O271 2.513 . S
Tb262 O272 2.453 . S
Tb262 O273 2.596 . S
Tb262 O274 2.374 . S
O263 Tb260 2.453 . S
O263 C279 1.245 . S
O264 Tb260 2.596 . S
O264 Tb262 2.343 . S
O264 C279 1.259 . S
O265 Tb260 2.374 . S
O265 C261 1.251 . S
C266 O270 1.275 . S
C266 O271 1.246 . S
O267 C261 1.263 . S
O267 Tb262 2.353 . S
C268 O272 1.245 . S
C268 O273 1.259 . S
C269 O274 1.250 . S
C269 O275 1.263 . S
O270 Tb262 2.427 . S
O270 C266 1.275 . S
O271 Tb262 2.513 . S
O271 C266 1.246 . S
O272 Tb262 2.453 . S
O272 C268 1.245 . S
O273 Tb260 2.343 . S
O273 Tb262 2.596 . S
O273 C268 1.259 . S
O274 Tb262 2.374 . S
O274 C269 1.250 . S
O275 Tb260 2.353 . S
O275 C269 1.263 . S
C276 O277 1.275 . S
C276 O278 1.246 . S
O277 Tb260 2.427 . S
O277 C276 1.275 . S
O278 Tb260 2.513 . S
O278 C276 1.246 . S
C279 O263 1.245 . S
C279 O264 1.259 . S
Tb280 O283 2.453 . S
Tb280 O284 2.596 . S
Tb280 O285 2.374 . S
Tb280 O293 2.343 . S
Tb280 O295 2.353 . S
Tb280 O297 2.427 . S
Tb280 O298 2.513 . S
C281 O285 1.251 . S
C281 O287 1.263 . S
Tb282 O284 2.343 . S
Tb282 O287 2.353 . S
Tb282 O290 2.427 . S
Tb282 O291 2.513 . S
Tb282 O292 2.453 . S
Tb282 O293 2.596 . S
Tb282 O294 2.374 . S
O283 Tb280 2.453 . S
O283 C299 1.245 . S
O284 Tb280 2.596 . S
O284 Tb282 2.343 . S
O284 C299 1.259 . S
O285 Tb280 2.374 . S
O285 C281 1.251 . S
C286 O290 1.275 . S
C286 O291 1.246 . S
O287 C281 1.263 . S
O287 Tb282 2.353 . S
C288 O292 1.245 . S
C288 O293 1.259 . S
C289 O294 1.250 . S
C289 O295 1.263 . S
O290 Tb282 2.427 . S
O290 C286 1.275 . S
O291 Tb282 2.513 . S
O291 C286 1.246 . S
O292 Tb282 2.453 . S
O292 C288 1.245 . S
O293 Tb280 2.343 . S
O293 Tb282 2.596 . S
O293 C288 1.259 . S
O294 Tb282 2.374 . S
O294 C289 1.250 . S
O295 Tb280 2.353 . S
O295 C289 1.263 . S
C296 O297 1.275 . S
C296 O298 1.246 . S
O297 Tb280 2.427 . S
O297 C296 1.275 . S
O298 Tb280 2.513 . S
O298 C296 1.246 . S
C299 O283 1.245 . S
C299 O284 1.259 . S
Tb300 O303 2.453 . S
Tb300 O304 2.596 . S
Tb300 O305 2.374 . S
Tb300 O313 2.343 . S
Tb300 O315 2.353 . S
Tb300 O317 2.427 . S
Tb300 O318 2.513 . S
C301 O305 1.251 . S
C301 O307 1.263 . S
Tb302 O304 2.343 . S
Tb302 O307 2.353 . S
Tb302 O310 2.427 . S
Tb302 O311 2.513 . S
Tb302 O312 2.453 . S
Tb302 O313 2.596 . S
Tb302 O314 2.374 . S
O303 Tb300 2.453 . S
O303 C319 1.245 . S
O304 Tb300 2.596 . S
O304 Tb302 2.343 . S
O304 C319 1.259 . S
O305 Tb300 2.374 . S
O305 C301 1.251 . S
C306 O310 1.275 . S
C306 O311 1.246 . S
O307 C301 1.263 . S
O307 Tb302 2.353 . S
C308 O312 1.245 . S
C308 O313 1.259 . S
C309 O314 1.250 . S
C309 O315 1.263 . S
O310 Tb302 2.427 . S
O310 C306 1.275 . S
O311 Tb302 2.513 . S
O311 C306 1.246 . S
O312 Tb302 2.453 . S
O312 C308 1.245 . S
O313 Tb300 2.343 . S
O313 Tb302 2.596 . S
O313 C308 1.259 . S
O314 Tb302 2.374 . S
O314 C309 1.250 . S
O315 Tb300 2.353 . S
O315 C309 1.263 . S
C316 O317 1.275 . S
C316 O318 1.246 . S
O317 Tb300 2.427 . S
O317 C316 1.275 . S
O318 Tb300 2.513 . S
O318 C316 1.246 . S
C319 O303 1.245 . S
C319 O304 1.259 . S
H320 C326 0.930 . S
H321 C329 0.930 . S
H322 C330 0.930 . S
H323 C331 0.930 . S
H324 C334 0.930 . S
H325 C335 0.930 . S
C326 H320 0.930 . S
C326 C327 1.355 . S
C326 C328 1.415 . S
C327 C326 1.355 . S
C327 C329 1.419 . S
C328 C326 1.415 . S
C328 C333 1.425 . S
C328 C335 1.409 . S
C329 H321 0.930 . S
C329 C327 1.419 . S
C329 C330 1.362 . S
C330 H322 0.930 . S
C330 C329 1.362 . S
C330 C333 1.409 . S
C331 H323 0.930 . S
C331 C332 1.355 . S
C331 C333 1.415 . S
C332 C331 1.355 . S
C332 C334 1.419 . S
C333 C328 1.425 . S
C333 C330 1.409 . S
C333 C331 1.415 . S
C334 H324 0.930 . S
C334 C332 1.419 . S
C334 C335 1.362 . S
C335 H325 0.930 . S
C335 C328 1.409 . S
C335 C334 1.362 . S
H336 C342 0.930 . S
H337 C345 0.930 . S
H338 C346 0.930 . S
H339 C347 0.930 . S
H340 C350 0.930 . S
H341 C351 0.930 . S
C342 H336 0.930 . S
C342 C343 1.355 . S
C342 C344 1.415 . S
C343 C342 1.355 . S
C343 C345 1.419 . S
C344 C342 1.415 . S
C344 C349 1.425 . S
C344 C351 1.409 . S
C345 H337 0.930 . S
C345 C343 1.419 . S
C345 C346 1.362 . S
C346 H338 0.930 . S
C346 C345 1.362 . S
C346 C349 1.409 . S
C347 H339 0.930 . S
C347 C348 1.355 . S
C347 C349 1.415 . S
C348 C347 1.355 . S
C348 C350 1.419 . S
C349 C344 1.425 . S
C349 C346 1.409 . S
C349 C347 1.415 . S
C350 H340 0.930 . S
C350 C348 1.419 . S
C350 C351 1.362 . S
C351 H341 0.930 . S
C351 C344 1.409 . S
C351 C350 1.362 . S
H352 C358 0.930 . S
H353 C361 0.930 . S
H354 C362 0.930 . S
H355 C363 0.930 . S
H356 C366 0.930 . S
H357 C367 0.930 . S
C358 H352 0.930 . S
C358 C359 1.355 . S
C358 C360 1.415 . S
C359 C358 1.355 . S
C359 C361 1.419 . S
C360 C358 1.415 . S
C360 C365 1.425 . S
C360 C367 1.409 . S
C361 H353 0.930 . S
C361 C359 1.419 . S
C361 C362 1.362 . S
C362 H354 0.930 . S
C362 C361 1.362 . S
C362 C365 1.409 . S
C363 H355 0.930 . S
C363 C364 1.355 . S
C363 C365 1.415 . S
C364 C363 1.355 . S
C364 C366 1.419 . S
C365 C360 1.425 . S
C365 C362 1.409 . S
C365 C363 1.415 . S
C366 H356 0.930 . S
C366 C364 1.419 . S
C366 C367 1.362 . S
C367 H357 0.930 . S
C367 C360 1.409 . S
C367 C366 1.362 . S
H368 C374 0.930 . S
H369 C377 0.930 . S
H370 C378 0.930 . S
H371 C379 0.930 . S
H372 C382 0.930 . S
H373 C383 0.930 . S
C374 H368 0.930 . S
C374 C375 1.355 . S
C374 C376 1.415 . S
C375 C374 1.355 . S
C375 C377 1.419 . S
C376 C374 1.415 . S
C376 C381 1.425 . S
C376 C383 1.409 . S
C377 H369 0.930 . S
C377 C375 1.419 . S
C377 C378 1.362 . S
C378 H370 0.930 . S
C378 C377 1.362 . S
C378 C381 1.409 . S
C379 H371 0.930 . S
C379 C380 1.355 . S
C379 C381 1.415 . S
C380 C379 1.355 . S
C380 C382 1.419 . S
C381 C376 1.425 . S
C381 C378 1.409 . S
C381 C379 1.415 . S
C382 H372 0.930 . S
C382 C380 1.419 . S
C382 C383 1.362 . S
C383 H373 0.930 . S
C383 C376 1.409 . S
C383 C382 1.362 . S
H384 C390 0.930 . S
H385 C393 0.930 . S
H386 C394 0.930 . S
H387 C395 0.930 . S
H388 C398 0.930 . S
H389 C399 0.930 . S
C390 H384 0.930 . S
C390 C391 1.355 . S
C390 C392 1.415 . S
C391 C390 1.355 . S
C391 C393 1.419 . S
C392 C390 1.415 . S
C392 C397 1.425 . S
C392 C399 1.409 . S
C393 H385 0.930 . S
C393 C391 1.419 . S
C393 C394 1.362 . S
C394 H386 0.930 . S
C394 C393 1.362 . S
C394 C397 1.409 . S
C395 H387 0.930 . S
C395 C396 1.355 . S
C395 C397 1.415 . S
C396 C395 1.355 . S
C396 C398 1.419 . S
C397 C392 1.425 . S
C397 C394 1.409 . S
C397 C395 1.415 . S
C398 H388 0.930 . S
C398 C396 1.419 . S
C398 C399 1.362 . S
C399 H389 0.930 . S
C399 C392 1.409 . S
C399 C398 1.362 . S
H400 C406 0.930 . S
H401 C409 0.930 . S
H402 C410 0.930 . S
H403 C411 0.930 . S
H404 C414 0.930 . S
H405 C415 0.930 . S
C406 H400 0.930 . S
C406 C407 1.355 . S
C406 C408 1.415 . S
C407 C406 1.355 . S
C407 C409 1.419 . S
C408 C406 1.415 . S
C408 C413 1.425 . S
C408 C415 1.409 . S
C409 H401 0.930 . S
C409 C407 1.419 . S
C409 C410 1.362 . S
C410 H402 0.930 . S
C410 C409 1.362 . S
C410 C413 1.409 . S
C411 H403 0.930 . S
C411 C412 1.355 . S
C411 C413 1.415 . S
C412 C411 1.355 . S
C412 C414 1.419 . S
C413 C408 1.425 . S
C413 C410 1.409 . S
C413 C411 1.415 . S
C414 H404 0.930 . S
C414 C412 1.419 . S
C414 C415 1.362 . S
C415 H405 0.930 . S
C415 C408 1.409 . S
C415 C414 1.362 . S
H416 C422 0.930 . S
H417 C425 0.930 . S
H418 C426 0.930 . S
H419 C427 0.930 . S
H420 C430 0.930 . S
H421 C431 0.930 . S
C422 H416 0.930 . S
C422 C423 1.355 . S
C422 C424 1.415 . S
C423 C422 1.355 . S
C423 C425 1.419 . S
C424 C422 1.415 . S
C424 C429 1.425 . S
C424 C431 1.409 . S
C425 H417 0.930 . S
C425 C423 1.419 . S
C425 C426 1.362 . S
C426 H418 0.930 . S
C426 C425 1.362 . S
C426 C429 1.409 . S
C427 H419 0.930 . S
C427 C428 1.355 . S
C427 C429 1.415 . S
C428 C427 1.355 . S
C428 C430 1.419 . S
C429 C424 1.425 . S
C429 C426 1.409 . S
C429 C427 1.415 . S
C430 H420 0.930 . S
C430 C428 1.419 . S
C430 C431 1.362 . S
C431 H421 0.930 . S
C431 C424 1.409 . S
C431 C430 1.362 . S
H432 C438 0.930 . S
H433 C441 0.930 . S
H434 C442 0.930 . S
H435 C443 0.930 . S
H436 C446 0.930 . S
H437 C447 0.930 . S
C438 H432 0.930 . S
C438 C439 1.355 . S
C438 C440 1.415 . S
C439 C438 1.355 . S
C439 C441 1.419 . S
C440 C438 1.415 . S
C440 C445 1.425 . S
C440 C447 1.409 . S
C441 H433 0.930 . S
C441 C439 1.419 . S
C441 C442 1.362 . S
C442 H434 0.930 . S
C442 C441 1.362 . S
C442 C445 1.409 . S
C443 H435 0.930 . S
C443 C444 1.355 . S
C443 C445 1.415 . S
C444 C443 1.355 . S
C444 C446 1.419 . S
C445 C440 1.425 . S
C445 C442 1.409 . S
C445 C443 1.415 . S
C446 H436 0.930 . S
C446 C444 1.419 . S
C446 C447 1.362 . S
C447 H437 0.930 . S
C447 C440 1.409 . S
C447 C446 1.362 . S
H448 C454 0.930 . S
H449 C457 0.930 . S
H450 C458 0.930 . S
H451 C459 0.930 . S
H452 C462 0.930 . S
H453 C463 0.930 . S
C454 H448 0.930 . S
C454 C455 1.355 1_545 S
C454 C456 1.415 . S
C455 C454 1.355 1_565 S
C455 C457 1.419 . S
C456 C454 1.415 . S
C456 C461 1.425 1_545 S
C456 C463 1.409 . S
C457 H449 0.930 . S
C457 C455 1.419 . S
C457 C458 1.362 . S
C458 H450 0.930 . S
C458 C457 1.362 . S
C458 C461 1.409 . S
C459 H451 0.930 . S
C459 C460 1.355 1_565 S
C459 C461 1.415 . S
C460 C459 1.355 1_545 S
C460 C462 1.419 . S
C461 C456 1.425 1_565 S
C461 C458 1.409 . S
C461 C459 1.415 . S
C462 H452 0.930 . S
C462 C460 1.419 . S
C462 C463 1.362 . S
C463 H453 0.930 . S
C463 C456 1.409 . S
C463 C462 1.362 . S
H464 C470 0.930 1_565 S
H465 C473 0.930 . S
H466 C474 0.930 . S
H467 C475 0.930 1_545 S
H468 C478 0.930 . S
H469 C479 0.930 . S
C470 H464 0.930 1_545 S
C470 C471 1.355 . S
C470 C472 1.415 1_545 S
C471 C470 1.355 . S
C471 C473 1.419 . S
C472 C470 1.415 1_565 S
C472 C477 1.425 1_565 S
C472 C479 1.409 . S
C473 H465 0.930 . S
C473 C471 1.419 . S
C473 C474 1.362 . S
C474 H466 0.930 . S
C474 C473 1.362 . S
C474 C477 1.409 . S
C475 H467 0.930 1_565 S
C475 C476 1.355 . S
C475 C477 1.415 1_565 S
C476 C475 1.355 . S
C476 C478 1.419 . S
C477 C472 1.425 1_545 S
C477 C474 1.409 . S
C477 C475 1.415 1_545 S
C478 H468 0.930 . S
C478 C476 1.419 . S
C478 C479 1.362 . S
C479 H469 0.930 . S
C479 C472 1.409 . S
C479 C478 1.362 . S
H480 C486 0.930 . S
H481 C489 0.930 . S
H482 C490 0.930 . S
H483 C491 0.930 . S
H484 C494 0.930 . S
H485 C495 0.930 . S
C486 H480 0.930 . S
C486 C487 1.355 . S
C486 C488 1.415 . S
C487 C486 1.355 . S
C487 C489 1.419 1_545 S
C488 C486 1.415 . S
C488 C493 1.425 1_545 S
C488 C495 1.409 . S
C489 H481 0.930 . S
C489 C487 1.419 1_565 S
C489 C490 1.362 . S
C490 H482 0.930 . S
C490 C489 1.362 . S
C490 C493 1.409 . S
C491 H483 0.930 . S
C491 C492 1.355 . S
C491 C493 1.415 . S
C492 C491 1.355 . S
C492 C494 1.419 1_565 S
C493 C488 1.425 1_565 S
C493 C490 1.409 . S
C493 C491 1.415 . S
C494 H484 0.930 . S
C494 C492 1.419 1_545 S
C494 C495 1.362 . S
C495 H485 0.930 . S
C495 C488 1.409 . S
C495 C494 1.362 . S
H496 C502 0.930 . S
H497 C505 0.930 . S
H498 C506 0.930 . S
H499 C507 0.930 . S
H500 C510 0.930 . S
H501 C511 0.930 . S
C502 H496 0.930 . S
C502 C503 1.355 1_565 S
C502 C504 1.415 . S
C503 C502 1.355 1_545 S
C503 C505 1.419 . S
C504 C502 1.415 . S
C504 C509 1.425 1_565 S
C504 C511 1.409 . S
C505 H497 0.930 . S
C505 C503 1.419 . S
C505 C506 1.362 . S
C506 H498 0.930 . S
C506 C505 1.362 . S
C506 C509 1.409 . S
C507 H499 0.930 . S
C507 C508 1.355 1_545 S
C507 C509 1.415 . S
C508 C507 1.355 1_565 S
C508 C510 1.419 . S
C509 C504 1.425 1_545 S
C509 C506 1.409 . S
C509 C507 1.415 . S
C510 H500 0.930 . S
C510 C508 1.419 . S
C510 C511 1.362 . S
C511 H501 0.930 . S
C511 C504 1.409 . S
C511 C510 1.362 . S
H512 C518 0.930 . S
H513 C521 0.930 . S
H514 C522 0.930 . S
H515 C523 0.930 . S
H516 C526 0.930 . S
H517 C527 0.930 . S
C518 H512 0.930 . S
C518 C519 1.355 . S
C518 C520 1.415 . S
C519 C518 1.355 . S
C519 C521 1.419 . S
C520 C518 1.415 . S
C520 C525 1.425 . S
C520 C527 1.409 . S
C521 H513 0.930 . S
C521 C519 1.419 . S
C521 C522 1.362 . S
C522 H514 0.930 . S
C522 C521 1.362 . S
C522 C525 1.409 . S
C523 H515 0.930 . S
C523 C524 1.355 . S
C523 C525 1.415 . S
C524 C523 1.355 . S
C524 C526 1.419 . S
C525 C520 1.425 . S
C525 C522 1.409 . S
C525 C523 1.415 . S
C526 H516 0.930 . S
C526 C524 1.419 . S
C526 C527 1.362 . S
C527 H517 0.930 . S
C527 C520 1.409 . S
C527 C526 1.362 . S
H528 C534 0.930 . S
H529 C537 0.930 . S
H530 C538 0.930 . S
H531 C539 0.930 . S
H532 C542 0.930 . S
H533 C543 0.930 . S
C534 H528 0.930 . S
C534 C535 1.355 . S
C534 C536 1.415 . S
C535 C534 1.355 . S
C535 C537 1.419 . S
C536 C534 1.415 . S
C536 C541 1.425 . S
C536 C543 1.409 . S
C537 H529 0.930 . S
C537 C535 1.419 . S
C537 C538 1.362 . S
C538 H530 0.930 . S
C538 C537 1.362 . S
C538 C541 1.409 . S
C539 H531 0.930 . S
C539 C540 1.355 . S
C539 C541 1.415 . S
C540 C539 1.355 . S
C540 C542 1.419 . S
C541 C536 1.425 . S
C541 C538 1.409 . S
C541 C539 1.415 . S
C542 H532 0.930 . S
C542 C540 1.419 . S
C542 C543 1.362 . S
C543 H533 0.930 . S
C543 C536 1.409 . S
C543 C542 1.362 . S
H544 C550 0.930 . S
H545 C553 0.930 . S
H546 C554 0.930 . S
H547 C555 0.930 . S
H548 C558 0.930 . S
H549 C559 0.930 . S
C550 H544 0.930 . S
C550 C551 1.355 . S
C550 C552 1.415 . S
C551 C550 1.355 . S
C551 C553 1.419 . S
C552 C550 1.415 . S
C552 C557 1.425 . S
C552 C559 1.409 . S
C553 H545 0.930 . S
C553 C551 1.419 . S
C553 C554 1.362 . S
C554 H546 0.930 . S
C554 C553 1.362 . S
C554 C557 1.409 . S
C555 H547 0.930 . S
C555 C556 1.355 . S
C555 C557 1.415 . S
C556 C555 1.355 . S
C556 C558 1.419 . S
C557 C552 1.425 . S
C557 C554 1.409 . S
C557 C555 1.415 . S
C558 H548 0.930 . S
C558 C556 1.419 . S
C558 C559 1.362 . S
C559 H549 0.930 . S
C559 C552 1.409 . S
C559 C558 1.362 . S
H560 C566 0.930 . S
H561 C569 0.930 . S
H562 C570 0.930 . S
H563 C571 0.930 . S
H564 C574 0.930 . S
H565 C575 0.930 . S
C566 H560 0.930 . S
C566 C567 1.355 . S
C566 C568 1.415 . S
C567 C566 1.355 . S
C567 C569 1.419 . S
C568 C566 1.415 . S
C568 C573 1.425 . S
C568 C575 1.409 . S
C569 H561 0.930 . S
C569 C567 1.419 . S
C569 C570 1.362 . S
C570 H562 0.930 . S
C570 C569 1.362 . S
C570 C573 1.409 . S
C571 H563 0.930 . S
C571 C572 1.355 . S
C571 C573 1.415 . S
C572 C571 1.355 . S
C572 C574 1.419 . S
C573 C568 1.425 . S
C573 C570 1.409 . S
C573 C571 1.415 . S
C574 H564 0.930 . S
C574 C572 1.419 . S
C574 C575 1.362 . S
C575 H565 0.930 . S
C575 C568 1.409 . S
C575 C574 1.362 . S
H576 C582 0.930 . S
H577 C585 0.930 . S
H578 C586 0.930 . S
H579 C587 0.930 . S
H580 C590 0.930 . S
H581 C591 0.930 1_565 S
C582 H576 0.930 . S
C582 C583 1.355 . S
C582 C584 1.415 . S
C583 C582 1.355 . S
C583 C585 1.419 . S
C584 C582 1.415 . S
C584 C589 1.425 1_556 S
C584 C591 1.409 1_556 S
C585 H577 0.930 . S
C585 C583 1.419 . S
C585 C586 1.362 . S
C586 H578 0.930 . S
C586 C585 1.362 . S
C586 C589 1.409 1_556 S
C587 H579 0.930 . S
C587 C588 1.355 . S
C587 C589 1.415 . S
C588 C587 1.355 . S
C588 C590 1.419 . S
C589 C584 1.425 1_554 S
C589 C586 1.409 1_554 S
C589 C587 1.415 . S
C590 H580 0.930 . S
C590 C588 1.419 . S
C590 C591 1.362 . S
C591 H581 0.930 1_545 S
C591 C584 1.409 1_554 S
C591 C590 1.362 . S
H592 C598 0.930 . S
H593 C601 0.930 . S
H594 C602 0.930 . S
H595 C603 0.930 . S
H596 C606 0.930 . S
H597 C607 0.930 . S
C598 H592 0.930 . S
C598 C599 1.355 . S
C598 C600 1.415 . S
C599 C598 1.355 . S
C599 C601 1.419 . S
C600 C598 1.415 . S
C600 C605 1.425 1_556 S
C600 C607 1.409 1_556 S
C601 H593 0.930 . S
C601 C599 1.419 . S
C601 C602 1.362 . S
C602 H594 0.930 . S
C602 C601 1.362 . S
C602 C605 1.409 1_556 S
C603 H595 0.930 . S
C603 C604 1.355 . S
C603 C605 1.415 . S
C604 C603 1.355 . S
C604 C606 1.419 . S
C605 C600 1.425 1_554 S
C605 C602 1.409 1_554 S
C605 C603 1.415 . S
C606 H596 0.930 . S
C606 C604 1.419 . S
C606 C607 1.362 . S
C607 H597 0.930 . S
C607 C600 1.409 1_554 S
C607 C606 1.362 . S
H608 C614 0.930 . S
H609 C617 0.930 . S
H610 C618 0.930 . S
H611 C619 0.930 . S
H612 C622 0.930 . S
H613 C623 0.930 1_545 S
C614 H608 0.930 . S
C614 C615 1.355 . S
C614 C616 1.415 . S
C615 C614 1.355 . S
C615 C617 1.419 . S
C616 C614 1.415 . S
C616 C621 1.425 . S
C616 C623 1.409 . S
C617 H609 0.930 . S
C617 C615 1.419 . S
C617 C618 1.362 . S
C618 H610 0.930 . S
C618 C617 1.362 . S
C618 C621 1.409 . S
C619 H611 0.930 . S
C619 C620 1.355 . S
C619 C621 1.415 . S
C620 C619 1.355 . S
C620 C622 1.419 . S
C621 C616 1.425 . S
C621 C618 1.409 . S
C621 C619 1.415 . S
C622 H612 0.930 . S
C622 C620 1.419 . S
C622 C623 1.362 . S
C623 H613 0.930 1_565 S
C623 C616 1.409 . S
C623 C622 1.362 . S
H624 C630 0.930 . S
H625 C633 0.930 . S
H626 C634 0.930 . S
H627 C635 0.930 . S
H628 C638 0.930 . S
H629 C639 0.930 . S
C630 H624 0.930 . S
C630 C631 1.355 . S
C630 C632 1.415 . S
C631 C630 1.355 . S
C631 C633 1.419 . S
C632 C630 1.415 . S
C632 C637 1.425 . S
C632 C639 1.409 . S
C633 H625 0.930 . S
C633 C631 1.419 . S
C633 C634 1.362 . S
C634 H626 0.930 . S
C634 C633 1.362 . S
C634 C637 1.409 . S
C635 H627 0.930 . S
C635 C636 1.355 . S
C635 C637 1.415 . S
C636 C635 1.355 . S
C636 C638 1.419 . S
C637 C632 1.425 . S
C637 C634 1.409 . S
C637 C635 1.415 . S
C638 H628 0.930 . S
C638 C636 1.419 . S
C638 C639 1.362 . S
C639 H629 0.930 . S
C639 C632 1.409 . S
C639 C638 1.362 . S
H640 C646 0.930 . S
H641 C649 0.930 . S
H642 C650 0.930 . S
H643 C651 0.930 . S
H644 C654 0.930 . S
H645 C655 0.930 . S
C646 H640 0.930 . S
C646 C647 1.355 . S
C646 C648 1.415 . S
C647 C646 1.355 . S
C647 C649 1.419 . S
C648 C646 1.415 . S
C648 C653 1.425 1_554 S
C648 C655 1.409 1_554 S
C649 H641 0.930 . S
C649 C647 1.419 . S
C649 C650 1.362 . S
C650 H642 0.930 . S
C650 C649 1.362 . S
C650 C653 1.409 1_554 S
C651 H643 0.930 . S
C651 C652 1.355 . S
C651 C653 1.415 . S
C652 C651 1.355 . S
C652 C654 1.419 . S
C653 C648 1.425 1_556 S
C653 C650 1.409 1_556 S
C653 C651 1.415 . S
C654 H644 0.930 . S
C654 C652 1.419 . S
C654 C655 1.362 . S
C655 H645 0.930 . S
C655 C648 1.409 1_556 S
C655 C654 1.362 . S
H656 C662 0.930 . S
H657 C665 0.930 . S
H658 C666 0.930 . S
H659 C667 0.930 . S
H660 C670 0.930 . S
H661 C671 0.930 . S
C662 H656 0.930 . S
C662 C663 1.355 . S
C662 C664 1.415 . S
C663 C662 1.355 . S
C663 C665 1.419 . S
C664 C662 1.415 . S
C664 C669 1.425 1_556 S
C664 C671 1.409 1_556 S
C665 H657 0.930 . S
C665 C663 1.419 . S
C665 C666 1.362 . S
C666 H658 0.930 . S
C666 C665 1.362 . S
C666 C669 1.409 1_556 S
C667 H659 0.930 . S
C667 C668 1.355 . S
C667 C669 1.415 . S
C668 C667 1.355 . S
C668 C670 1.419 . S
C669 C664 1.425 1_554 S
C669 C666 1.409 1_554 S
C669 C667 1.415 . S
C670 H660 0.930 . S
C670 C668 1.419 . S
C670 C671 1.362 . S
C671 H661 0.930 . S
C671 C664 1.409 1_554 S
C671 C670 1.362 . S
H672 C678 0.930 . S
H673 C681 0.930 . S
H674 C682 0.930 . S
H675 C683 0.930 . S
H676 C686 0.930 . S
H677 C687 0.930 . S
C678 H672 0.930 . S
C678 C679 1.355 . S
C678 C680 1.415 . S
C679 C678 1.355 . S
C679 C681 1.419 . S
C680 C678 1.415 . S
C680 C685 1.425 . S
C680 C687 1.409 . S
C681 H673 0.930 . S
C681 C679 1.419 . S
C681 C682 1.362 . S
C682 H674 0.930 . S
C682 C681 1.362 . S
C682 C685 1.409 . S
C683 H675 0.930 . S
C683 C684 1.355 . S
C683 C685 1.415 . S
C684 C683 1.355 . S
C684 C686 1.419 . S
C685 C680 1.425 . S
C685 C682 1.409 . S
C685 C683 1.415 . S
C686 H676 0.930 . S
C686 C684 1.419 . S
C686 C687 1.362 . S
C687 H677 0.930 . S
C687 C680 1.409 . S
C687 C686 1.362 . S
H688 C694 0.930 . S
H689 C697 0.930 . S
H690 C698 0.930 . S
H691 C699 0.930 . S
H692 C702 0.930 . S
H693 C703 0.930 . S
C694 H688 0.930 . S
C694 C695 1.355 . S
C694 C696 1.415 . S
C695 C694 1.355 . S
C695 C697 1.419 . S
C696 C694 1.415 . S
C696 C701 1.425 . S
C696 C703 1.409 . S
C697 H689 0.930 . S
C697 C695 1.419 . S
C697 C698 1.362 . S
C698 H690 0.930 . S
C698 C697 1.362 . S
C698 C701 1.409 . S
C699 H691 0.930 . S
C699 C700 1.355 . S
C699 C701 1.415 . S
C700 C699 1.355 . S
C700 C702 1.419 . S
C701 C696 1.425 . S
C701 C698 1.409 . S
C701 C699 1.415 . S
C702 H692 0.930 . S
C702 C700 1.419 . S
C702 C703 1.362 . S
C703 H693 0.930 . S
C703 C696 1.409 . S
C703 C702 1.362 . S
H704 C710 0.930 . S
H705 C713 0.930 . S
H706 C714 0.930 . S
H707 C715 0.930 . S
H708 C718 0.930 . S
H709 C719 0.930 . S
C710 H704 0.930 . S
C710 C711 1.355 . S
C710 C712 1.415 . S
C711 C710 1.355 . S
C711 C713 1.419 1_545 S
C712 C710 1.415 . S
C712 C717 1.425 1_645 S
C712 C719 1.409 1_655 S
C713 H705 0.930 . S
C713 C711 1.419 1_565 S
C713 C714 1.362 . S
C714 H706 0.930 . S
C714 C713 1.362 . S
C714 C717 1.409 1_655 S
C715 H707 0.930 . S
C715 C716 1.355 . S
C715 C717 1.415 . S
C716 C715 1.355 . S
C716 C718 1.419 1_565 S
C717 C712 1.425 1_465 S
C717 C714 1.409 1_455 S
C717 C715 1.415 . S
C718 H708 0.930 . S
C718 C716 1.419 1_545 S
C718 C719 1.362 . S
C719 H709 0.930 . S
C719 C712 1.409 1_455 S
C719 C718 1.362 . S
H720 C726 0.930 . S
H721 C729 0.930 . S
H722 C730 0.930 . S
H723 C731 0.930 . S
H724 C734 0.930 . S
H725 C735 0.930 . S
C726 H720 0.930 . S
C726 C727 1.355 . S
C726 C728 1.415 . S
C727 C726 1.355 . S
C727 C729 1.419 1_565 S
C728 C726 1.415 . S
C728 C733 1.425 1_665 S
C728 C735 1.409 1_655 S
C729 H721 0.930 . S
C729 C727 1.419 1_545 S
C729 C730 1.362 . S
C730 H722 0.930 . S
C730 C729 1.362 . S
C730 C733 1.409 1_655 S
C731 H723 0.930 . S
C731 C732 1.355 . S
C731 C733 1.415 . S
C732 C731 1.355 . S
C732 C734 1.419 1_545 S
C733 C728 1.425 1_445 S
C733 C730 1.409 1_455 S
C733 C731 1.415 . S
C734 H724 0.930 . S
C734 C732 1.419 1_565 S
C734 C735 1.362 . S
C735 H725 0.930 . S
C735 C728 1.409 1_455 S
C735 C734 1.362 . S
H736 C742 0.930 . S
H737 C745 0.930 . S
H738 C746 0.930 . S
H739 C747 0.930 . S
H740 C750 0.930 . S
H741 C751 0.930 . S
C742 H736 0.930 . S
C742 C743 1.355 . S
C742 C744 1.415 . S
C743 C742 1.355 . S
C743 C745 1.419 1_565 S
C744 C742 1.415 . S
C744 C749 1.425 1_465 S
C744 C751 1.409 1_455 S
C745 H737 0.930 . S
C745 C743 1.419 1_545 S
C745 C746 1.362 . S
C746 H738 0.930 . S
C746 C745 1.362 . S
C746 C749 1.409 1_455 S
C747 H739 0.930 . S
C747 C748 1.355 . S
C747 C749 1.415 . S
C748 C747 1.355 . S
C748 C750 1.419 1_545 S
C749 C744 1.425 1_645 S
C749 C746 1.409 1_655 S
C749 C747 1.415 . S
C750 H740 0.930 . S
C750 C748 1.419 1_565 S
C750 C751 1.362 . S
C751 H741 0.930 . S
C751 C744 1.409 1_655 S
C751 C750 1.362 . S
H752 C758 0.930 . S
H753 C761 0.930 . S
H754 C762 0.930 . S
H755 C763 0.930 . S
H756 C766 0.930 . S
H757 C767 0.930 . S
C758 H752 0.930 . S
C758 C759 1.355 . S
C758 C760 1.415 . S
C759 C758 1.355 . S
C759 C761 1.419 1_565 S
C760 C758 1.415 . S
C760 C765 1.425 1_665 S
C760 C767 1.409 1_655 S
C761 H753 0.930 . S
C761 C759 1.419 1_545 S
C761 C762 1.362 . S
C762 H754 0.930 . S
C762 C761 1.362 . S
C762 C765 1.409 1_655 S
C763 H755 0.930 . S
C763 C764 1.355 . S
C763 C765 1.415 . S
C764 C763 1.355 . S
C764 C766 1.419 1_545 S
C765 C760 1.425 1_445 S
C765 C762 1.409 1_455 S
C765 C763 1.415 . S
C766 H756 0.930 . S
C766 C764 1.419 1_565 S
C766 C767 1.362 . S
C767 H757 0.930 . S
C767 C760 1.409 1_455 S
C767 C766 1.362 . S
H768 C774 0.930 . S
H769 C777 0.930 . S
H770 C778 0.930 . S
H771 C779 0.930 . S
H772 C782 0.930 . S
H773 C783 0.930 . S
C774 H768 0.930 . S
C774 C775 1.355 . S
C774 C776 1.415 . S
C775 C774 1.355 . S
C775 C777 1.419 . S
C776 C774 1.415 . S
C776 C781 1.425 . S
C776 C783 1.409 . S
C777 H769 0.930 . S
C777 C775 1.419 . S
C777 C778 1.362 . S
C778 H770 0.930 . S
C778 C777 1.362 . S
C778 C781 1.409 . S
C779 H771 0.930 . S
C779 C780 1.355 . S
C779 C781 1.415 . S
C780 C779 1.355 . S
C780 C782 1.419 . S
C781 C776 1.425 . S
C781 C778 1.409 . S
C781 C779 1.415 . S
C782 H772 0.930 . S
C782 C780 1.419 . S
C782 C783 1.362 . S
C783 H773 0.930 . S
C783 C776 1.409 . S
C783 C782 1.362 . S
H784 C790 0.930 . S
H785 C793 0.930 . S
H786 C794 0.930 . S
H787 C795 0.930 . S
H788 C798 0.930 . S
H789 C799 0.930 . S
C790 H784 0.930 . S
C790 C791 1.355 . S
C790 C792 1.415 . S
C791 C790 1.355 . S
C791 C793 1.419 . S
C792 C790 1.415 . S
C792 C797 1.425 . S
C792 C799 1.409 . S
C793 H785 0.930 . S
C793 C791 1.419 . S
C793 C794 1.362 . S
C794 H786 0.930 . S
C794 C793 1.362 . S
C794 C797 1.409 . S
C795 H787 0.930 . S
C795 C796 1.355 . S
C795 C797 1.415 . S
C796 C795 1.355 . S
C796 C798 1.419 . S
C797 C792 1.425 . S
C797 C794 1.409 . S
C797 C795 1.415 . S
C798 H788 0.930 . S
C798 C796 1.419 . S
C798 C799 1.362 . S
C799 H789 0.930 . S
C799 C792 1.409 . S
C799 C798 1.362 . S
H800 C806 0.930 . S
H801 C809 0.930 . S
H802 C810 0.930 . S
H803 C811 0.930 . S
H804 C814 0.930 . S
H805 C815 0.930 . S
C806 H800 0.930 . S
C806 C807 1.355 . S
C806 C808 1.415 . S
C807 C806 1.355 . S
C807 C809 1.419 . S
C808 C806 1.415 . S
C808 C813 1.425 . S
C808 C815 1.409 . S
C809 H801 0.930 . S
C809 C807 1.419 . S
C809 C810 1.362 . S
C810 H802 0.930 . S
C810 C809 1.362 . S
C810 C813 1.409 . S
C811 H803 0.930 . S
C811 C812 1.355 . S
C811 C813 1.415 . S
C812 C811 1.355 . S
C812 C814 1.419 . S
C813 C808 1.425 . S
C813 C810 1.409 . S
C813 C811 1.415 . S
C814 H804 0.930 . S
C814 C812 1.419 . S
C814 C815 1.362 . S
C815 H805 0.930 . S
C815 C808 1.409 . S
C815 C814 1.362 . S
H816 C822 0.930 . S
H817 C825 0.930 . S
H818 C826 0.930 . S
H819 C827 0.930 . S
H820 C830 0.930 . S
H821 C831 0.930 . S
C822 H816 0.930 . S
C822 C823 1.355 . S
C822 C824 1.415 . S
C823 C822 1.355 . S
C823 C825 1.419 . S
C824 C822 1.415 . S
C824 C829 1.425 . S
C824 C831 1.409 . S
C825 H817 0.930 . S
C825 C823 1.419 . S
C825 C826 1.362 . S
C826 H818 0.930 . S
C826 C825 1.362 . S
C826 C829 1.409 . S
C827 H819 0.930 . S
C827 C828 1.355 . S
C827 C829 1.415 . S
C828 C827 1.355 . S
C828 C830 1.419 . S
C829 C824 1.425 . S
C829 C826 1.409 . S
C829 C827 1.415 . S
C830 H820 0.930 . S
C830 C828 1.419 . S
C830 C831 1.362 . S
C831 H821 0.930 . S
C831 C824 1.409 . S
C831 C830 1.362 . S
H832 C838 0.930 . S
H833 C841 0.930 . S
H834 C842 0.930 . S
H835 C843 0.930 . S
H836 C846 0.930 . S
H837 C847 0.930 . S
C838 H832 0.930 . S
C838 C839 1.355 . S
C838 C840 1.415 . S
C839 C838 1.355 . S
C839 C841 1.419 . S
C840 C838 1.415 . S
C840 C845 1.425 . S
C840 C847 1.409 . S
C841 H833 0.930 . S
C841 C839 1.419 . S
C841 C842 1.362 . S
C842 H834 0.930 . S
C842 C841 1.362 . S
C842 C845 1.409 . S
C843 H835 0.930 . S
C843 C844 1.355 . S
C843 C845 1.415 . S
C844 C843 1.355 . S
C844 C846 1.419 . S
C845 C840 1.425 . S
C845 C842 1.409 . S
C845 C843 1.415 . S
C846 H836 0.930 . S
C846 C844 1.419 . S
C846 C847 1.362 . S
C847 H837 0.930 . S
C847 C840 1.409 . S
C847 C846 1.362 . S
H848 C854 0.930 . S
H849 C857 0.930 . S
H850 C858 0.930 . S
H851 C859 0.930 . S
H852 C862 0.930 . S
H853 C863 0.930 . S
C854 H848 0.930 . S
C854 C855 1.355 . S
C854 C856 1.415 . S
C855 C854 1.355 . S
C855 C857 1.419 . S
C856 C854 1.415 . S
C856 C861 1.425 . S
C856 C863 1.409 . S
C857 H849 0.930 . S
C857 C855 1.419 . S
C857 C858 1.362 . S
C858 H850 0.930 . S
C858 C857 1.362 . S
C858 C861 1.409 . S
C859 H851 0.930 . S
C859 C860 1.355 . S
C859 C861 1.415 . S
C860 C859 1.355 . S
C860 C862 1.419 . S
C861 C856 1.425 . S
C861 C858 1.409 . S
C861 C859 1.415 . S
C862 H852 0.930 . S
C862 C860 1.419 . S
C862 C863 1.362 . S
C863 H853 0.930 . S
C863 C856 1.409 . S
C863 C862 1.362 . S
H864 C870 0.930 . S
H865 C873 0.930 . S
H866 C874 0.930 . S
H867 C875 0.930 . S
H868 C878 0.930 . S
H869 C879 0.930 . S
C870 H864 0.930 . S
C870 C871 1.355 . S
C870 C872 1.415 . S
C871 C870 1.355 . S
C871 C873 1.419 . S
C872 C870 1.415 . S
C872 C877 1.425 . S
C872 C879 1.409 . S
C873 H865 0.930 . S
C873 C871 1.419 . S
C873 C874 1.362 . S
C874 H866 0.930 . S
C874 C873 1.362 . S
C874 C877 1.409 . S
C875 H867 0.930 . S
C875 C876 1.355 . S
C875 C877 1.415 . S
C876 C875 1.355 . S
C876 C878 1.419 . S
C877 C872 1.425 . S
C877 C874 1.409 . S
C877 C875 1.415 . S
C878 H868 0.930 . S
C878 C876 1.419 . S
C878 C879 1.362 . S
C879 H869 0.930 . S
C879 C872 1.409 . S
C879 C878 1.362 . S
H880 C886 0.930 . S
H881 C889 0.930 . S
H882 C890 0.930 . S
H883 C891 0.930 . S
H884 C894 0.930 . S
H885 C895 0.930 . S
C886 H880 0.930 . S
C886 C887 1.355 . S
C886 C888 1.415 . S
C887 C886 1.355 . S
C887 C889 1.419 . S
C888 C886 1.415 . S
C888 C893 1.425 . S
C888 C895 1.409 . S
C889 H881 0.930 . S
C889 C887 1.419 . S
C889 C890 1.362 . S
C890 H882 0.930 . S
C890 C889 1.362 . S
C890 C893 1.409 . S
C891 H883 0.930 . S
C891 C892 1.355 . S
C891 C893 1.415 . S
C892 C891 1.355 . S
C892 C894 1.419 . S
C893 C888 1.425 . S
C893 C890 1.409 . S
C893 C891 1.415 . S
C894 H884 0.930 . S
C894 C892 1.419 . S
C894 C895 1.362 . S
C895 H885 0.930 . S
C895 C888 1.409 . S
C895 C894 1.362 . S
H896 C902 0.930 . S
H897 C905 0.930 . S
H898 C906 0.930 . S
H899 C907 0.930 . S
H900 C910 0.930 . S
H901 C911 0.930 . S
C902 H896 0.930 . S
C902 C903 1.355 . S
C902 C904 1.415 . S
C903 C902 1.355 . S
C903 C905 1.419 . S
C904 C902 1.415 . S
C904 C909 1.425 . S
C904 C911 1.409 . S
C905 H897 0.930 . S
C905 C903 1.419 . S
C905 C906 1.362 . S
C906 H898 0.930 . S
C906 C905 1.362 . S
C906 C909 1.409 . S
C907 H899 0.930 . S
C907 C908 1.355 . S
C907 C909 1.415 . S
C908 C907 1.355 . S
C908 C910 1.419 . S
C909 C904 1.425 . S
C909 C906 1.409 . S
C909 C907 1.415 . S
C910 H900 0.930 . S
C910 C908 1.419 . S
C910 C911 1.362 . S
C911 H901 0.930 . S
C911 C904 1.409 . S
C911 C910 1.362 . S
H912 C918 0.930 . S
H913 C921 0.930 . S
H914 C922 0.930 . S
H915 C923 0.930 . S
H916 C926 0.930 . S
H917 C927 0.930 . S
C918 H912 0.930 . S
C918 C919 1.355 . S
C918 C920 1.415 . S
C919 C918 1.355 . S
C919 C921 1.419 . S
C920 C918 1.415 . S
C920 C925 1.425 . S
C920 C927 1.409 . S
C921 H913 0.930 . S
C921 C919 1.419 . S
C921 C922 1.362 . S
C922 H914 0.930 . S
C922 C921 1.362 . S
C922 C925 1.409 . S
C923 H915 0.930 . S
C923 C924 1.355 . S
C923 C925 1.415 . S
C924 C923 1.355 . S
C924 C926 1.419 . S
C925 C920 1.425 . S
C925 C922 1.409 . S
C925 C923 1.415 . S
C926 H916 0.930 . S
C926 C924 1.419 . S
C926 C927 1.362 . S
C927 H917 0.930 . S
C927 C920 1.409 . S
C927 C926 1.362 . S
H928 C934 0.930 . S
H929 C937 0.930 . S
H930 C938 0.930 . S
H931 C939 0.930 . S
H932 C942 0.930 . S
H933 C943 0.930 . S
C934 H928 0.930 . S
C934 C935 1.355 . S
C934 C936 1.415 . S
C935 C934 1.355 . S
C935 C937 1.419 . S
C936 C934 1.415 . S
C936 C941 1.425 . S
C936 C943 1.409 . S
C937 H929 0.930 . S
C937 C935 1.419 . S
C937 C938 1.362 . S
C938 H930 0.930 . S
C938 C937 1.362 . S
C938 C941 1.409 . S
C939 H931 0.930 . S
C939 C940 1.355 . S
C939 C941 1.415 . S
C940 C939 1.355 . S
C940 C942 1.419 . S
C941 C936 1.425 . S
C941 C938 1.409 . S
C941 C939 1.415 . S
C942 H932 0.930 . S
C942 C940 1.419 . S
C942 C943 1.362 . S
C943 H933 0.930 . S
C943 C936 1.409 . S
C943 C942 1.362 . S
H944 C950 0.930 . S
H945 C953 0.930 . S
H946 C954 0.930 . S
H947 C955 0.930 . S
H948 C958 0.930 . S
H949 C959 0.930 . S
C950 H944 0.930 . S
C950 C951 1.355 . S
C950 C952 1.415 . S
C951 C950 1.355 . S
C951 C953 1.419 . S
C952 C950 1.415 . S
C952 C957 1.425 . S
C952 C959 1.409 . S
C953 H945 0.930 . S
C953 C951 1.419 . S
C953 C954 1.362 . S
C954 H946 0.930 . S
C954 C953 1.362 . S
C954 C957 1.409 . S
C955 H947 0.930 . S
C955 C956 1.355 . S
C955 C957 1.415 . S
C956 C955 1.355 . S
C956 C958 1.419 . S
C957 C952 1.425 . S
C957 C954 1.409 . S
C957 C955 1.415 . S
C958 H948 0.930 . S
C958 C956 1.419 . S
C958 C959 1.362 . S
C959 H949 0.930 . S
C959 C952 1.409 . S
C959 C958 1.362 . S
H960 C966 0.934 . S
H961 C969 0.930 . S
H962 C970 0.930 . S
H963 C971 0.930 . S
H964 C974 0.930 . S
H965 C975 0.930 . S
C966 H960 0.934 . S
C966 C967 1.360 . S
C966 C968 1.405 1_565 S
C967 C966 1.360 . S
C967 C969 1.419 . S
C968 C966 1.405 1_545 S
C968 C973 1.425 . S
C968 C975 1.409 . S
C969 H961 0.930 . S
C969 C967 1.419 . S
C969 C970 1.362 1_565 S
C970 H962 0.930 . S
C970 C969 1.362 1_545 S
C970 C973 1.409 . S
C971 H963 0.930 . S
C971 C972 1.355 . S
C971 C973 1.415 . S
C972 C971 1.355 . S
C972 C974 1.419 . S
C973 C968 1.425 . S
C973 C970 1.409 . S
C973 C971 1.415 . S
C974 H964 0.930 . S
C974 C972 1.419 . S
C974 C975 1.362 . S
C975 H965 0.930 . S
C975 C968 1.409 . S
C975 C974 1.362 . S
H976 C982 0.930 . S
H977 C985 0.930 . S
H978 C986 0.930 . S
H979 C987 0.930 . S
H980 C990 0.930 . S
H981 C991 0.930 . S
C982 H976 0.930 . S
C982 C983 1.355 . S
C982 C984 1.415 . S
C983 C982 1.355 . S
C983 C985 1.419 . S
C984 C982 1.415 . S
C984 C989 1.425 . S
C984 C991 1.409 . S
C985 H977 0.930 . S
C985 C983 1.419 . S
C985 C986 1.362 . S
C986 H978 0.930 . S
C986 C985 1.362 . S
C986 C989 1.409 . S
C987 H979 0.930 . S
C987 C988 1.355 1_565 S
C987 C989 1.415 . S
C988 C987 1.355 1_545 S
C988 C990 1.419 . S
C989 C984 1.425 . S
C989 C986 1.409 . S
C989 C987 1.415 . S
C990 H980 0.930 . S
C990 C988 1.419 . S
C990 C991 1.362 1_545 S
C991 H981 0.930 . S
C991 C984 1.409 . S
C991 C990 1.362 1_565 S
H992 C998 0.930 1_545 S
H993 C1001 0.930 . S
H994 C1002 0.930 . S
H995 C1003 0.930 . S
H996 C1006 0.930 . S
H997 C1007 0.930 . S
C998 H992 0.930 1_565 S
C998 C999 1.355 1_565 S
C998 C1000 1.415 . S
C999 C998 1.355 1_545 S
C999 C1001 1.419 . S
C1000 C998 1.415 . S
C1000 C1005 1.425 . S
C1000 C1007 1.409 . S
C1001 H993 0.930 . S
C1001 C999 1.419 . S
C1001 C1002 1.362 1_545 S
C1002 H994 0.930 . S
C1002 C1001 1.362 1_565 S
C1002 C1005 1.409 . S
C1003 H995 0.930 . S
C1003 C1004 1.355 . S
C1003 C1005 1.415 . S
C1004 C1003 1.355 . S
C1004 C1006 1.419 . S
C1005 C1000 1.425 . S
C1005 C1002 1.409 . S
C1005 C1003 1.415 . S
C1006 H996 0.930 . S
C1006 C1004 1.419 . S
C1006 C1007 1.362 . S
C1007 H997 0.930 . S
C1007 C1000 1.409 . S
C1007 C1006 1.362 . S
H1008 C1014 0.930 1_565 S
H1009 C1017 0.930 . S
H1010 C1018 0.930 . S
H1011 C1019 0.930 . S
H1012 C1022 0.930 . S
H1013 C1023 0.930 . S
C1014 H1008 0.930 1_545 S
C1014 C1015 1.355 1_545 S
C1014 C1016 1.415 . S
C1015 C1014 1.355 1_565 S
C1015 C1017 1.419 . S
C1016 C1014 1.415 . S
C1016 C1021 1.425 . S
C1016 C1023 1.409 . S
C1017 H1009 0.930 . S
C1017 C1015 1.419 . S
C1017 C1018 1.362 1_565 S
C1018 H1010 0.930 . S
C1018 C1017 1.362 1_545 S
C1018 C1021 1.409 . S
C1019 H1011 0.930 . S
C1019 C1020 1.355 . S
C1019 C1021 1.415 . S
C1020 C1019 1.355 . S
C1020 C1022 1.419 . S
C1021 C1016 1.425 . S
C1021 C1018 1.409 . S
C1021 C1019 1.415 . S
C1022 H1012 0.930 . S
C1022 C1020 1.419 . S
C1022 C1023 1.362 . S
C1023 H1013 0.930 . S
C1023 C1016 1.409 . S
C1023 C1022 1.362 . S
H1024 C1030 0.930 . S
H1025 C1033 0.930 . S
H1026 C1034 0.930 . S
H1027 C1035 0.930 . S
H1028 C1038 0.930 . S
H1029 C1039 0.930 . S
C1030 H1024 0.930 . S
C1030 C1031 1.355 . S
C1030 C1032 1.415 . S
C1031 C1030 1.355 . S
C1031 C1033 1.419 . S
C1032 C1030 1.415 . S
C1032 C1037 1.425 . S
C1032 C1039 1.409 . S
C1033 H1025 0.930 . S
C1033 C1031 1.419 . S
C1033 C1034 1.362 . S
C1034 H1026 0.930 . S
C1034 C1033 1.362 . S
C1034 C1037 1.409 . S
C1035 H1027 0.930 . S
C1035 C1036 1.355 . S
C1035 C1037 1.415 1_545 S
C1036 C1035 1.355 . S
C1036 C1038 1.419 . S
C1037 C1032 1.425 . S
C1037 C1034 1.409 . S
C1037 C1035 1.415 1_565 S
C1038 H1028 0.930 . S
C1038 C1036 1.419 . S
C1038 C1039 1.362 1_545 S
C1039 H1029 0.930 . S
C1039 C1032 1.409 . S
C1039 C1038 1.362 1_565 S
H1040 C1046 0.930 . S
H1041 C1049 0.930 . S
H1042 C1050 0.930 . S
H1043 C1051 0.933 . S
H1044 C1054 0.930 . S
H1045 C1055 0.930 . S
C1046 H1040 0.930 . S
C1046 C1047 1.355 . S
C1046 C1048 1.415 . S
C1047 C1046 1.355 . S
C1047 C1049 1.419 . S
C1048 C1046 1.415 . S
C1048 C1053 1.425 . S
C1048 C1055 1.409 . S
C1049 H1041 0.930 . S
C1049 C1047 1.419 . S
C1049 C1050 1.362 . S
C1050 H1042 0.930 . S
C1050 C1049 1.362 . S
C1050 C1053 1.409 . S
C1051 H1043 0.933 . S
C1051 C1052 1.359 . S
C1051 C1053 1.407 1_565 S
C1052 C1051 1.359 . S
C1052 C1054 1.419 . S
C1053 C1048 1.425 . S
C1053 C1050 1.409 . S
C1053 C1051 1.407 1_545 S
C1054 H1044 0.930 . S
C1054 C1052 1.419 . S
C1054 C1055 1.362 1_565 S
C1055 H1045 0.930 . S
C1055 C1048 1.409 . S
C1055 C1054 1.362 1_545 S
H1056 C1062 0.930 . S
H1057 C1065 0.930 . S
H1058 C1066 0.930 . S
H1059 C1067 0.930 . S
H1060 C1070 0.930 . S
H1061 C1071 0.930 . S
C1062 H1056 0.930 . S
C1062 C1063 1.355 1_545 S
C1062 C1064 1.415 . S
C1063 C1062 1.355 1_565 S
C1063 C1065 1.419 . S
C1064 C1062 1.415 . S
C1064 C1069 1.425 . S
C1064 C1071 1.409 . S
C1065 H1057 0.930 . S
C1065 C1063 1.419 . S
C1065 C1066 1.362 1_565 S
C1066 H1058 0.930 . S
C1066 C1065 1.362 1_545 S
C1066 C1069 1.409 . S
C1067 H1059 0.930 . S
C1067 C1068 1.355 . S
C1067 C1069 1.415 . S
C1068 C1067 1.355 . S
C1068 C1070 1.419 . S
C1069 C1064 1.425 . S
C1069 C1066 1.409 . S
C1069 C1067 1.415 . S
C1070 H1060 0.930 . S
C1070 C1068 1.419 . S
C1070 C1071 1.362 . S
C1071 H1061 0.930 . S
C1071 C1064 1.409 . S
C1071 C1070 1.362 . S
H1072 C1078 0.930 . S
H1073 C1081 0.930 . S
H1074 C1082 0.930 . S
H1075 C1083 0.930 1_545 S
H1076 C1086 0.930 . S
H1077 C1087 0.930 . S
C1078 H1072 0.930 . S
C1078 C1079 1.355 . S
C1078 C1080 1.415 . S
C1079 C1078 1.355 . S
C1079 C1081 1.419 . S
C1080 C1078 1.415 . S
C1080 C1085 1.425 . S
C1080 C1087 1.409 . S
C1081 H1073 0.930 . S
C1081 C1079 1.419 . S
C1081 C1082 1.362 . S
C1082 H1074 0.930 . S
C1082 C1081 1.362 . S
C1082 C1085 1.409 . S
C1083 H1075 0.930 1_565 S
C1083 C1084 1.355 1_565 S
C1083 C1085 1.415 . S
C1084 C1083 1.355 1_545 S
C1084 C1086 1.419 . S
C1085 C1080 1.425 . S
C1085 C1082 1.409 . S
C1085 C1083 1.415 . S
C1086 H1076 0.930 . S
C1086 C1084 1.419 . S
C1086 C1087 1.362 1_545 S
C1087 H1077 0.930 . S
C1087 C1080 1.409 . S
C1087 C1086 1.362 1_565 S
C327 C6 1.592 . S
C332 C186 1.587 . S
C343 C26 1.631 . S
C348 C166 1.631 . S
C359 C226 1.573 . S
C364 C46 1.569 . S
C375 C66 1.612 . S
C380 C206 1.608 . S
C391 C276 1.629 . S
C396 C96 1.627 . S
C407 C256 1.626 . S
C412 C116 1.623 . S
C423 C316 1.626 . S
C428 C136 1.623 . S
C439 C156 1.622 . S
C444 C296 1.619 . S
C455 C49 1.529 . S
C460 C9 1.533 . S
C471 C69 1.546 . S
C476 C29 1.532 . S
C487 C121 1.548 . S
C492 C81 1.535 . S
C503 C101 1.530 . S
C508 C141 1.532 . S
C519 C209 1.549 . S
C524 C169 1.537 . S
C535 C229 1.532 . S
C540 C189 1.530 . S
C551 C241 1.529 . S
C556 C281 1.536 . S
C567 C261 1.535 . S
C572 C301 1.529 . S
C583 C109 1.586 . S
C588 C1 1.535 . S
C599 C89 1.556 . S
C604 C21 1.566 . S
C615 C41 1.589 . S
C620 C149 1.532 . S
C631 C129 1.576 . S
C636 C61 1.545 . S
C647 C161 1.575 . S
C652 C269 1.546 . S
C663 C249 1.548 . S
C668 C181 1.573 . S
C679 C201 1.588 . S
C684 C309 1.533 . S
C695 C289 1.578 . S
C700 C221 1.543 . S
C711 C36 1.538 1_545 S
C716 C16 1.540 1_565 S
C727 C76 1.546 1_565 S
C732 C56 1.549 1_545 S
C743 C106 1.549 1_565 S
C748 C86 1.545 1_545 S
C759 C126 1.534 1_565 S
C764 C146 1.533 1_545 S
C775 C196 1.534 . S
C780 C176 1.535 . S
C791 C236 1.551 . S
C796 C216 1.548 . S
C807 C246 1.573 . S
C812 C266 1.578 . S
C823 C286 1.537 . S
C828 C306 1.539 . S
C839 C8 1.913 . S
C844 C19 1.913 . S
C855 C28 1.918 . S
C860 C39 1.918 . S
C871 C48 1.907 . S
C876 C59 1.907 . S
C887 C79 1.890 . S
C892 C68 1.890 . S
C903 C99 1.898 . S
C908 C88 1.898 . S
C919 C108 1.887 . S
C924 C119 1.887 . S
C935 C139 1.848 . S
C940 C128 1.848 . S
C951 C159 1.896 . S
C956 C148 1.896 . S
C967 C179 1.919 . S
C972 C168 1.919 . S
C983 C188 1.840 . S
C988 C199 1.840 . S
C999 C219 1.863 . S
C1004 C208 1.863 . S
C1015 C239 1.915 . S
C1020 C228 1.915 . S
C1031 C259 1.919 . S
C1036 C248 1.919 . S
C1047 C279 1.919 . S
C1052 C268 1.919 . S
C1063 C288 1.833 . S
C1068 C299 1.833 . S
C1079 C319 1.861 . S
C1084 C308 1.861 . S
