# Generated by pormake.
# Topology sod-g, (3)-cn, num edge types: 1
# Building blocks:
#     Node 0, Type 0, BuildingBlock: OLANEW_clean_sbu_2, # of connection points: 3
#     Node 1, Type 0, BuildingBlock: OLANEW_clean_sbu_2, # of connection points: 3
#     Node 2, Type 0, BuildingBlock: OLANEW_clean_sbu_2, # of connection points: 3
#     Node 3, Type 0, BuildingBlock: OLANEW_clean_sbu_2, # of connection points: 3
#     Node 4, Type 0, BuildingBlock: OLANEW_clean_sbu_2, # of connection points: 3
#     Node 5, Type 0, BuildingBlock: OLANEW_clean_sbu_2, # of connection points: 3
#     Node 6, Type 0, BuildingBlock: OLANEW_clean_sbu_2, # of connection points: 3
#     Node 7, Type 0, BuildingBlock: OLANEW_clean_sbu_2, # of connection points: 3
#     Node 8, Type 0, BuildingBlock: OLANEW_clean_sbu_2, # of connection points: 3
#     Node 9, Type 0, BuildingBlock: OLANEW_clean_sbu_2, # of connection points: 3
#     Node 10, Type 0, BuildingBlock: OLANEW_clean_sbu_2, # of connection points: 3
#     Node 11, Type 0, BuildingBlock: OLANEW_clean_sbu_2, # of connection points: 3
#     Node 12, Type 0, BuildingBlock: OLANEW_clean_sbu_2, # of connection points: 3
#     Node 13, Type 0, BuildingBlock: OLANEW_clean_sbu_2, # of connection points: 3
#     Node 14, Type 0, BuildingBlock: OLANEW_clean_sbu_2, # of connection points: 3
#     Node 15, Type 0, BuildingBlock: OLANEW_clean_sbu_2, # of connection points: 3
#     Node 16, Type 0, BuildingBlock: OLANEW_clean_sbu_2, # of connection points: 3
#     Node 17, Type 0, BuildingBlock: OLANEW_clean_sbu_2, # of connection points: 3
#     Node 18, Type 0, BuildingBlock: OLANEW_clean_sbu_2, # of connection points: 3
#     Node 19, Type 0, BuildingBlock: OLANEW_clean_sbu_2, # of connection points: 3
#     Node 20, Type 0, BuildingBlock: OLANEW_clean_sbu_2, # of connection points: 3
#     Node 21, Type 0, BuildingBlock: OLANEW_clean_sbu_2, # of connection points: 3
#     Node 22, Type 0, BuildingBlock: OLANEW_clean_sbu_2, # of connection points: 3
#     Node 23, Type 0, BuildingBlock: OLANEW_clean_sbu_2, # of connection points: 3
#     Node 24, Type 0, BuildingBlock: OLANEW_clean_sbu_2, # of connection points: 3
#     Node 25, Type 0, BuildingBlock: OLANEW_clean_sbu_2, # of connection points: 3
#     Node 26, Type 0, BuildingBlock: OLANEW_clean_sbu_2, # of connection points: 3
#     Node 27, Type 0, BuildingBlock: OLANEW_clean_sbu_2, # of connection points: 3
#     Node 28, Type 0, BuildingBlock: OLANEW_clean_sbu_2, # of connection points: 3
#     Node 29, Type 0, BuildingBlock: OLANEW_clean_sbu_2, # of connection points: 3
#     Node 30, Type 0, BuildingBlock: OLANEW_clean_sbu_2, # of connection points: 3
#     Node 31, Type 0, BuildingBlock: OLANEW_clean_sbu_2, # of connection points: 3
#     Node 32, Type 0, BuildingBlock: OLANEW_clean_sbu_2, # of connection points: 3
#     Node 33, Type 0, BuildingBlock: OLANEW_clean_sbu_2, # of connection points: 3
#     Node 34, Type 0, BuildingBlock: OLANEW_clean_sbu_2, # of connection points: 3
#     Node 35, Type 0, BuildingBlock: OLANEW_clean_sbu_2, # of connection points: 3
#     Node 36, Type 0, BuildingBlock: OLANEW_clean_sbu_2, # of connection points: 3
#     Node 37, Type 0, BuildingBlock: OLANEW_clean_sbu_2, # of connection points: 3
#     Node 38, Type 0, BuildingBlock: OLANEW_clean_sbu_2, # of connection points: 3
#     Node 39, Type 0, BuildingBlock: OLANEW_clean_sbu_2, # of connection points: 3
#     Node 40, Type 0, BuildingBlock: OLANEW_clean_sbu_2, # of connection points: 3
#     Node 41, Type 0, BuildingBlock: OLANEW_clean_sbu_2, # of connection points: 3
#     Node 42, Type 0, BuildingBlock: OLANEW_clean_sbu_2, # of connection points: 3
#     Node 43, Type 0, BuildingBlock: OLANEW_clean_sbu_2, # of connection points: 3
#     Node 44, Type 0, BuildingBlock: OLANEW_clean_sbu_2, # of connection points: 3
#     Node 45, Type 0, BuildingBlock: OLANEW_clean_sbu_2, # of connection points: 3
#     Node 46, Type 0, BuildingBlock: OLANEW_clean_sbu_2, # of connection points: 3
#     Node 47, Type 0, BuildingBlock: OLANEW_clean_sbu_2, # of connection points: 3
#     Edge 48, Type (0, 0), BuildingBlock: UVAHIK_clean_linker_0, # of connection points: 2
#     Edge 49, Type (0, 0), BuildingBlock: UVAHIK_clean_linker_0, # of connection points: 2
#     Edge 50, Type (0, 0), BuildingBlock: UVAHIK_clean_linker_0, # of connection points: 2
#     Edge 51, Type (0, 0), BuildingBlock: UVAHIK_clean_linker_0, # of connection points: 2
#     Edge 52, Type (0, 0), BuildingBlock: UVAHIK_clean_linker_0, # of connection points: 2
#     Edge 53, Type (0, 0), BuildingBlock: UVAHIK_clean_linker_0, # of connection points: 2
#     Edge 54, Type (0, 0), BuildingBlock: UVAHIK_clean_linker_0, # of connection points: 2
#     Edge 55, Type (0, 0), BuildingBlock: UVAHIK_clean_linker_0, # of connection points: 2
#     Edge 56, Type (0, 0), BuildingBlock: UVAHIK_clean_linker_0, # of connection points: 2
#     Edge 57, Type (0, 0), BuildingBlock: UVAHIK_clean_linker_0, # of connection points: 2
#     Edge 58, Type (0, 0), BuildingBlock: UVAHIK_clean_linker_0, # of connection points: 2
#     Edge 59, Type (0, 0), BuildingBlock: UVAHIK_clean_linker_0, # of connection points: 2
#     Edge 60, Type (0, 0), BuildingBlock: UVAHIK_clean_linker_0, # of connection points: 2
#     Edge 61, Type (0, 0), BuildingBlock: UVAHIK_clean_linker_0, # of connection points: 2
#     Edge 62, Type (0, 0), BuildingBlock: UVAHIK_clean_linker_0, # of connection points: 2
#     Edge 63, Type (0, 0), BuildingBlock: UVAHIK_clean_linker_0, # of connection points: 2
#     Edge 64, Type (0, 0), BuildingBlock: UVAHIK_clean_linker_0, # of connection points: 2
#     Edge 65, Type (0, 0), BuildingBlock: UVAHIK_clean_linker_0, # of connection points: 2
#     Edge 66, Type (0, 0), BuildingBlock: UVAHIK_clean_linker_0, # of connection points: 2
#     Edge 67, Type (0, 0), BuildingBlock: UVAHIK_clean_linker_0, # of connection points: 2
#     Edge 68, Type (0, 0), BuildingBlock: UVAHIK_clean_linker_0, # of connection points: 2
#     Edge 69, Type (0, 0), BuildingBlock: UVAHIK_clean_linker_0, # of connection points: 2
#     Edge 70, Type (0, 0), BuildingBlock: UVAHIK_clean_linker_0, # of connection points: 2
#     Edge 71, Type (0, 0), BuildingBlock: UVAHIK_clean_linker_0, # of connection points: 2
#     Edge 72, Type (0, 0), BuildingBlock: UVAHIK_clean_linker_0, # of connection points: 2
#     Edge 73, Type (0, 0), BuildingBlock: UVAHIK_clean_linker_0, # of connection points: 2
#     Edge 74, Type (0, 0), BuildingBlock: UVAHIK_clean_linker_0, # of connection points: 2
#     Edge 75, Type (0, 0), BuildingBlock: UVAHIK_clean_linker_0, # of connection points: 2
#     Edge 76, Type (0, 0), BuildingBlock: UVAHIK_clean_linker_0, # of connection points: 2
#     Edge 77, Type (0, 0), BuildingBlock: UVAHIK_clean_linker_0, # of connection points: 2
#     Edge 78, Type (0, 0), BuildingBlock: UVAHIK_clean_linker_0, # of connection points: 2
#     Edge 79, Type (0, 0), BuildingBlock: UVAHIK_clean_linker_0, # of connection points: 2
#     Edge 80, Type (0, 0), BuildingBlock: UVAHIK_clean_linker_0, # of connection points: 2
#     Edge 81, Type (0, 0), BuildingBlock: UVAHIK_clean_linker_0, # of connection points: 2
#     Edge 82, Type (0, 0), BuildingBlock: UVAHIK_clean_linker_0, # of connection points: 2
#     Edge 83, Type (0, 0), BuildingBlock: UVAHIK_clean_linker_0, # of connection points: 2
#     Edge 84, Type (0, 0), BuildingBlock: UVAHIK_clean_linker_0, # of connection points: 2
#     Edge 85, Type (0, 0), BuildingBlock: UVAHIK_clean_linker_0, # of connection points: 2
#     Edge 86, Type (0, 0), BuildingBlock: UVAHIK_clean_linker_0, # of connection points: 2
#     Edge 87, Type (0, 0), BuildingBlock: UVAHIK_clean_linker_0, # of connection points: 2
#     Edge 88, Type (0, 0), BuildingBlock: UVAHIK_clean_linker_0, # of connection points: 2
#     Edge 89, Type (0, 0), BuildingBlock: UVAHIK_clean_linker_0, # of connection points: 2
#     Edge 90, Type (0, 0), BuildingBlock: UVAHIK_clean_linker_0, # of connection points: 2
#     Edge 91, Type (0, 0), BuildingBlock: UVAHIK_clean_linker_0, # of connection points: 2
#     Edge 92, Type (0, 0), BuildingBlock: UVAHIK_clean_linker_0, # of connection points: 2
#     Edge 93, Type (0, 0), BuildingBlock: UVAHIK_clean_linker_0, # of connection points: 2
#     Edge 94, Type (0, 0), BuildingBlock: UVAHIK_clean_linker_0, # of connection points: 2
#     Edge 95, Type (0, 0), BuildingBlock: UVAHIK_clean_linker_0, # of connection points: 2
#     Edge 96, Type (0, 0), BuildingBlock: UVAHIK_clean_linker_0, # of connection points: 2
#     Edge 97, Type (0, 0), BuildingBlock: UVAHIK_clean_linker_0, # of connection points: 2
#     Edge 98, Type (0, 0), BuildingBlock: UVAHIK_clean_linker_0, # of connection points: 2
#     Edge 99, Type (0, 0), BuildingBlock: UVAHIK_clean_linker_0, # of connection points: 2
#     Edge 100, Type (0, 0), BuildingBlock: UVAHIK_clean_linker_0, # of connection points: 2
#     Edge 101, Type (0, 0), BuildingBlock: UVAHIK_clean_linker_0, # of connection points: 2
#     Edge 102, Type (0, 0), BuildingBlock: UVAHIK_clean_linker_0, # of connection points: 2
#     Edge 103, Type (0, 0), BuildingBlock: UVAHIK_clean_linker_0, # of connection points: 2
#     Edge 104, Type (0, 0), BuildingBlock: UVAHIK_clean_linker_0, # of connection points: 2
#     Edge 105, Type (0, 0), BuildingBlock: UVAHIK_clean_linker_0, # of connection points: 2
#     Edge 106, Type (0, 0), BuildingBlock: UVAHIK_clean_linker_0, # of connection points: 2
#     Edge 107, Type (0, 0), BuildingBlock: UVAHIK_clean_linker_0, # of connection points: 2
#     Edge 108, Type (0, 0), BuildingBlock: UVAHIK_clean_linker_0, # of connection points: 2
#     Edge 109, Type (0, 0), BuildingBlock: UVAHIK_clean_linker_0, # of connection points: 2
#     Edge 110, Type (0, 0), BuildingBlock: UVAHIK_clean_linker_0, # of connection points: 2
#     Edge 111, Type (0, 0), BuildingBlock: UVAHIK_clean_linker_0, # of connection points: 2
#     Edge 112, Type (0, 0), BuildingBlock: UVAHIK_clean_linker_0, # of connection points: 2
#     Edge 113, Type (0, 0), BuildingBlock: UVAHIK_clean_linker_0, # of connection points: 2
#     Edge 114, Type (0, 0), BuildingBlock: UVAHIK_clean_linker_0, # of connection points: 2
#     Edge 115, Type (0, 0), BuildingBlock: UVAHIK_clean_linker_0, # of connection points: 2
#     Edge 116, Type (0, 0), BuildingBlock: UVAHIK_clean_linker_0, # of connection points: 2
#     Edge 117, Type (0, 0), BuildingBlock: UVAHIK_clean_linker_0, # of connection points: 2
#     Edge 118, Type (0, 0), BuildingBlock: UVAHIK_clean_linker_0, # of connection points: 2
#     Edge 119, Type (0, 0), BuildingBlock: UVAHIK_clean_linker_0, # of connection points: 2
# Relax obj value: 0.027
# Max RMSD: 0.011
# Mean RMSD: 0.011
data_MOF--net-sod-g--node1-OLANEW_clean_sbu_2--edge1-UVAHIK_clean_linker_0
_symmetry_space_group_name_H-M    P1
_symmetry_Int_Tables_number       1
_symmetry_cell_setting            triclinic
loop_
_symmetry_equiv_pos_as_xyz
'x, y, z'
_cell_length_a     129.74541
_cell_length_b     129.73281
_cell_length_c     129.72721
_cell_angle_alpha  89.995961
_cell_angle_beta   90.00061
_cell_angle_gamma 90.002911
loop_
_atom_site_label
_atom_site_type_symbol
_atom_site_fract_x
_atom_site_fract_y
_atom_site_fract_z
_atom_type_partial_charge
O0 O 0.04418 0.46316 0.13789 0.0
Cd1 Cd 0.05917 0.45246 0.13416 0.0
O2 O 0.04791 0.46367 0.15434 0.0
Cd3 Cd 0.04691 0.46853 0.17045 0.0
O4 O 0.04467 0.46988 0.18706 0.0
C5 C 0.04702 0.46213 0.19257 0.0
O6 O 0.05079 0.45388 0.18805 0.0
C7 C 0.04217 0.46648 0.14689 0.0
C8 C 0.07283 0.46465 0.12296 0.0
O9 O 0.06577 0.45942 0.11845 0.0
O10 O 0.07367 0.46383 0.13277 0.0
O11 O 0.53959 0.0455 0.14026 0.0
Cd12 Cd 0.54913 0.06166 0.13909 0.0
O13 O 0.53699 0.04891 0.15653 0.0
Cd14 Cd 0.53104 0.04757 0.17225 0.0
O15 O 0.53 0.04541 0.18889 0.0
C16 C 0.53769 0.04119 0.19325 0.0
O17 O 0.54553 0.03827 0.18755 0.0
C18 C 0.53552 0.04303 0.14881 0.0
C19 C 0.53638 0.07614 0.12967 0.0
O20 O 0.54266 0.07066 0.12436 0.0
O21 O 0.53634 0.07496 0.13948 0.0
O22 O 0.95672 0.54328 0.14152 0.0
Cd23 Cd 0.94045 0.55217 0.13844 0.0
O24 O 0.95231 0.53993 0.15743 0.0
Cd25 Cd 0.95274 0.53345 0.173 0.0
O26 O 0.95392 0.53106 0.18961 0.0
C27 C 0.9502 0.53802 0.19541 0.0
O28 O 0.94574 0.54606 0.19116 0.0
C29 C 0.95876 0.53901 0.15009 0.0
C30 C 0.92751 0.53843 0.12821 0.0
O31 O 0.93393 0.54406 0.12325 0.0
O32 O 0.92698 0.53951 0.13802 0.0
O33 O 0.45863 0.95667 0.14085 0.0
Cd34 Cd 0.44874 0.9407 0.14014 0.0
O35 O 0.46146 0.95327 0.1571 0.0
Cd36 Cd 0.46801 0.95457 0.17258 0.0
O37 O 0.47058 0.95663 0.18907 0.0
C38 C 0.46463 0.96275 0.19388 0.0
O39 O 0.45746 0.96768 0.1887 0.0
C40 C 0.46294 0.95907 0.14932 0.0
C41 C 0.46125 0.92556 0.13146 0.0
O42 O 0.45504 0.93084 0.12588 0.0
O43 O 0.46134 0.92725 0.1412 0.0
O44 O 0.0441 0.53599 0.85907 0.0
Cd45 Cd 0.05935 0.54667 0.86168 0.0
O46 O 0.04733 0.53451 0.84259 0.0
Cd47 Cd 0.04594 0.52903 0.82669 0.0
O48 O 0.04359 0.52715 0.81015 0.0
C49 C 0.03635 0.53219 0.80589 0.0
O50 O 0.03046 0.53809 0.81164 0.0
C51 C 0.04175 0.53224 0.85034 0.0
C52 C 0.07309 0.53544 0.87377 0.0
O53 O 0.06614 0.54112 0.87788 0.0
O54 O 0.07375 0.5353 0.86391 0.0
O55 O 0.45774 0.04195 0.8565 0.0
Cd56 Cd 0.44786 0.05761 0.85974 0.0
O57 O 0.46074 0.04681 0.84065 0.0
Cd58 Cd 0.46706 0.04675 0.82502 0.0
O59 O 0.46843 0.045 0.80836 0.0
C60 C 0.46147 0.03971 0.80395 0.0
O61 O 0.45416 0.03557 0.80961 0.0
C62 C 0.46202 0.04027 0.84785 0.0
C63 C 0.46032 0.07098 0.87099 0.0
O64 O 0.45479 0.06415 0.87549 0.0
O65 O 0.45975 0.0717 0.86115 0.0
O66 O 0.95408 0.45721 0.85908 0.0
Cd67 Cd 0.93757 0.44829 0.86035 0.0
O68 O 0.95003 0.46079 0.84313 0.0
Cd69 Cd 0.95113 0.46767 0.82777 0.0
O70 O 0.95378 0.47044 0.8114 0.0
C71 C 0.9611 0.46557 0.80709 0.0
O72 O 0.96682 0.45937 0.8127 0.0
C73 C 0.95633 0.46158 0.85061 0.0
C74 C 0.92327 0.46164 0.86919 0.0
O75 O 0.92841 0.45528 0.87475 0.0
O76 O 0.92473 0.46152 0.85943 0.0
O77 O 0.53967 0.95586 0.85633 0.0
Cd78 Cd 0.55078 0.94103 0.8595 0.0
O79 O 0.5389 0.95261 0.83979 0.0
Cd80 Cd 0.53373 0.95386 0.82378 0.0
O81 O 0.53158 0.9558 0.8072 0.0
C82 C 0.53199 0.96475 0.80323 0.0
O83 O 0.53344 0.97275 0.80927 0.0
C84 C 0.53614 0.95807 0.84747 0.0
C85 C 0.53919 0.92672 0.87054 0.0
O86 O 0.54418 0.9339 0.87514 0.0
O87 O 0.53996 0.92608 0.86071 0.0
O88 O 0.14223 0.04533 0.46048 0.0
Cd89 Cd 0.13843 0.06092 0.45066 0.0
O90 O 0.15877 0.04875 0.46074 0.0
Cd91 Cd 0.17495 0.04542 0.46408 0.0
O92 O 0.19143 0.04246 0.46576 0.0
C93 C 0.19575 0.03588 0.45993 0.0
O94 O 0.19013 0.03091 0.45313 0.0
C95 C 0.15128 0.04301 0.46339 0.0
C96 C 0.12778 0.07442 0.46351 0.0
O97 O 0.12303 0.06748 0.45834 0.0
O98 O 0.13757 0.07517 0.46241 0.0
O99 O 0.96292 0.13991 0.4589 0.0
Cd100 Cd 0.94873 0.13604 0.4472 0.0
O101 O 0.95785 0.15593 0.46029 0.0
Cd102 Cd 0.95729 0.17168 0.46626 0.0
O103 O 0.95814 0.18832 0.46847 0.0
C104 C 0.95495 0.194 0.46116 0.0
O105 O 0.95114 0.1896 0.45287 0.0
C106 C 0.96401 0.14877 0.46293 0.0
C107 C 0.93372 0.12612 0.4589 0.0
O108 O 0.94107 0.12106 0.45466 0.0
O109 O 0.93325 0.13586 0.4573 0.0
O110 O 0.85691 0.95455 0.46193 0.0
Cd111 Cd 0.85869 0.93884 0.45174 0.0
O112 O 0.84031 0.95441 0.45894 0.0
Cd113 Cd 0.82421 0.95895 0.46102 0.0
O114 O 0.8078 0.96254 0.46145 0.0
C115 C 0.80184 0.95764 0.45542 0.0
O116 O 0.8058 0.95066 0.44924 0.0
C117 C 0.84806 0.9585 0.46334 0.0
C118 C 0.86775 0.92389 0.46421 0.0
O119 O 0.87323 0.92956 0.45825 0.0
O120 O 0.85795 0.92511 0.46405 0.0
O121 O 0.04149 0.8601 0.4558 0.0
Cd122 Cd 0.05741 0.86061 0.4458 0.0
O123 O 0.04473 0.8438 0.45847 0.0
Cd124 Cd 0.04352 0.82821 0.46479 0.0
O125 O 0.04212 0.81162 0.46714 0.0
C126 C 0.04761 0.80577 0.46152 0.0
O127 O 0.05394 0.80997 0.45483 0.0
C128 C 0.03905 0.85164 0.46009 0.0
C129 C 0.07275 0.86874 0.45843 0.0
O130 O 0.0676 0.87454 0.4523 0.0
O131 O 0.07084 0.85905 0.45837 0.0
O132 O 0.13958 0.95524 0.53656 0.0
Cd133 Cd 0.13754 0.93983 0.54716 0.0
O134 O 0.15594 0.95573 0.5406 0.0
Cd135 Cd 0.172 0.96068 0.53935 0.0
O136 O 0.18848 0.96397 0.53969 0.0
C137 C 0.19474 0.95673 0.53763 0.0
O138 O 0.19105 0.94762 0.53518 0.0
C139 C 0.14837 0.95942 0.53557 0.0
C140 C 0.12887 0.92449 0.5349 0.0
O141 O 0.12321 0.93033 0.54051 0.0
O142 O 0.13866 0.92574 0.5353 0.0
O143 O 0.04401 0.14428 0.54547 0.0
Cd144 Cd 0.05994 0.14132 0.55498 0.0
O145 O 0.04857 0.16012 0.54192 0.0
Cd146 Cd 0.04806 0.17537 0.53473 0.0
O147 O 0.04588 0.1917 0.53138 0.0
C148 C 0.03909 0.19652 0.53653 0.0
O149 O 0.03363 0.19144 0.54339 0.0
C150 C 0.04215 0.15276 0.54094 0.0
C151 C 0.07317 0.13074 0.54179 0.0
O152 O 0.0666 0.12593 0.54739 0.0
O153 O 0.07373 0.14056 0.54268 0.0
O154 O 0.85436 0.04631 0.53637 0.0
Cd155 Cd 0.8578 0.06213 0.54592 0.0
O156 O 0.83764 0.04834 0.53763 0.0
Cd157 Cd 0.82153 0.04373 0.53587 0.0
O158 O 0.80509 0.04018 0.53632 0.0
C159 C 0.80149 0.03522 0.54397 0.0
O160 O 0.80781 0.03219 0.55127 0.0
C161 C 0.8453 0.04323 0.53429 0.0
C162 C 0.86996 0.0748 0.53358 0.0
O163 O 0.87401 0.06796 0.53945 0.0
O164 O 0.86014 0.07584 0.53374 0.0
O165 O 0.95749 0.86137 0.54188 0.0
Cd166 Cd 0.94203 0.86222 0.55254 0.0
O167 O 0.95395 0.84507 0.53961 0.0
Cd168 Cd 0.95469 0.82937 0.5335 0.0
O169 O 0.95575 0.81271 0.53147 0.0
C170 C 0.95213 0.80709 0.53863 0.0
O171 O 0.94786 0.81156 0.54665 0.0
C172 C 0.95964 0.85282 0.53761 0.0
C173 C 0.92622 0.87009 0.54033 0.0
O174 O 0.93163 0.87602 0.54608 0.0
O175 O 0.92808 0.86039 0.54059 0.0
O176 O 0.45741 0.1439 0.0438 0.0
Cd177 Cd 0.44728 0.14321 0.05963 0.0
O178 O 0.4605 0.16013 0.04706 0.0
Cd179 Cd 0.46755 0.17536 0.04556 0.0
O180 O 0.47052 0.1917 0.04297 0.0
C181 C 0.46465 0.19642 0.03671 0.0
O182 O 0.45734 0.19123 0.03199 0.0
C183 C 0.46193 0.15224 0.0414 0.0
C184 C 0.45937 0.13335 0.07438 0.0
O185 O 0.453 0.12828 0.0688 0.0
O186 O 0.45978 0.14316 0.07322 0.0
O187 O 0.45773 0.8569 0.95566 0.0
Cd188 Cd 0.44864 0.85977 0.93946 0.0
O189 O 0.46114 0.84095 0.95139 0.0
Cd190 Cd 0.46795 0.82554 0.95221 0.0
O191 O 0.47089 0.80913 0.95442 0.0
C192 C 0.4653 0.80434 0.96088 0.0
O193 O 0.45825 0.8095 0.96601 0.0
C194 C 0.46207 0.84837 0.95775 0.0
C195 C 0.46218 0.86999 0.92631 0.0
O196 O 0.45657 0.87496 0.93273 0.0
O197 O 0.46118 0.86017 0.92586 0.0
O198 O 0.14437 0.4592 0.964 0.0
Cd199 Cd 0.13708 0.44867 0.95025 0.0
O200 O 0.15794 0.46226 0.95439 0.0
Cd201 Cd 0.17334 0.46865 0.9521 0.0
O202 O 0.18992 0.47138 0.95213 0.0
C203 C 0.195 0.46839 0.95995 0.0
O204 O 0.19002 0.46411 0.96767 0.0
C205 C 0.15293 0.46375 0.96268 0.0
C206 C 0.12703 0.46178 0.93653 0.0
O207 O 0.12239 0.45816 0.94447 0.0
O208 O 0.13637 0.45898 0.93492 0.0
O209 O 0.54123 0.13788 0.95863 0.0
Cd210 Cd 0.55112 0.13416 0.94309 0.0
O211 O 0.53871 0.15376 0.95358 0.0
Cd212 Cd 0.53248 0.16943 0.95351 0.0
O213 O 0.53035 0.18605 0.9549 0.0
C214 C 0.5362 0.19084 0.96113 0.0
O215 O 0.54298 0.18557 0.9665 0.0
C216 C 0.53713 0.14664 0.96015 0.0
C217 C 0.53789 0.12432 0.92935 0.0
O218 O 0.54287 0.11922 0.93618 0.0
O219 O 0.5394 0.13407 0.92878 0.0
O220 O 0.85657 0.54297 0.95506 0.0
Cd221 Cd 0.85779 0.55211 0.93867 0.0
O222 O 0.84108 0.5383 0.95037 0.0
Cd223 Cd 0.82632 0.53017 0.95094 0.0
O224 O 0.81014 0.52591 0.95259 0.0
C225 C 0.80505 0.53001 0.95989 0.0
O226 O 0.8098 0.53634 0.96621 0.0
C227 C 0.84837 0.53797 0.95694 0.0
C228 C 0.8669 0.539 0.92432 0.0
O229 O 0.87233 0.54539 0.92954 0.0
O230 O 0.85712 0.53899 0.92571 0.0
O231 O 0.53852 0.85834 0.04371 0.0
Cd232 Cd 0.54883 0.85977 0.05938 0.0
O233 O 0.5368 0.84195 0.04716 0.0
Cd234 Cd 0.5311 0.82614 0.04592 0.0
O235 O 0.52947 0.80955 0.04382 0.0
C236 C 0.53588 0.80507 0.03793 0.0
O237 O 0.54294 0.81063 0.03326 0.0
C238 C 0.53468 0.84963 0.04143 0.0
C239 C 0.53653 0.86865 0.07457 0.0
O240 O 0.54246 0.8742 0.06894 0.0
O241 O 0.53663 0.85887 0.07319 0.0
O242 O 0.1463 0.54527 0.03938 0.0
Cd243 Cd 0.1395 0.55542 0.05365 0.0
O244 O 0.15733 0.53832 0.05015 0.0
Cd245 Cd 0.17082 0.52868 0.05299 0.0
O246 O 0.18693 0.52404 0.052 0.0
C247 C 0.19109 0.52403 0.04313 0.0
O248 O 0.18541 0.52626 0.03505 0.0
C249 C 0.15349 0.53886 0.04116 0.0
C250 C 0.12852 0.54214 0.06645 0.0
O251 O 0.12419 0.54654 0.05873 0.0
O252 O 0.138 0.54423 0.06829 0.0
O253 O 0.85864 0.46064 0.04178 0.0
Cd254 Cd 0.86172 0.44956 0.05665 0.0
O255 O 0.84259 0.463 0.04636 0.0
Cd256 Cd 0.82708 0.46962 0.04619 0.0
O257 O 0.81059 0.4727 0.04506 0.0
C258 C 0.80562 0.46865 0.03765 0.0
O259 O 0.81065 0.46304 0.03088 0.0
C260 C 0.84999 0.46495 0.04022 0.0
C261 C 0.87257 0.46117 0.07108 0.0
O262 O 0.87726 0.45621 0.06395 0.0
O263 O 0.86274 0.46038 0.07161 0.0
O264 O 0.54791 0.9585 0.64047 0.0
Cd265 Cd 0.56386 0.94884 0.63807 0.0
O266 O 0.55131 0.96104 0.65679 0.0
Cd267 Cd 0.5499 0.96716 0.67247 0.0
O268 O 0.54793 0.96989 0.68897 0.0
C269 C 0.53895 0.97027 0.69288 0.0
O270 O 0.5309 0.96933 0.68681 0.0
C271 C 0.54545 0.96252 0.64906 0.0
C272 C 0.57698 0.96101 0.62621 0.0
O273 O 0.57045 0.95493 0.62198 0.0
O274 O 0.57753 0.96112 0.63607 0.0
O275 O 0.04244 0.54234 0.64306 0.0
Cd276 Cd 0.0515 0.55841 0.63951 0.0
O277 O 0.03902 0.5473 0.6588 0.0
Cd278 Cd 0.03218 0.54705 0.67422 0.0
O279 O 0.02916 0.54495 0.69063 0.0
C280 C 0.03445 0.5382 0.69537 0.0
O281 O 0.04124 0.53277 0.69017 0.0
C282 C 0.03812 0.54061 0.65167 0.0
C283 C 0.03786 0.57135 0.62917 0.0
O284 O 0.04335 0.56477 0.62427 0.0
O285 O 0.03903 0.57204 0.63895 0.0
O286 O 0.45905 0.03876 0.63876 0.0
Cd287 Cd 0.44327 0.04891 0.63753 0.0
O288 O 0.45579 0.03707 0.65518 0.0
Cd289 Cd 0.45698 0.03163 0.6711 0.0
O290 O 0.45839 0.03015 0.68779 0.0
C291 C 0.45444 0.03725 0.69326 0.0
O292 O 0.44967 0.0449 0.68864 0.0
C293 C 0.46147 0.03497 0.64746 0.0
C294 C 0.42802 0.03653 0.62886 0.0
O295 O 0.43352 0.04252 0.62324 0.0
O296 O 0.42956 0.03659 0.63861 0.0
O297 O 0.96021 0.45661 0.6435 0.0
Cd298 Cd 0.94901 0.44184 0.64038 0.0
O299 O 0.96183 0.45258 0.6598 0.0
Cd300 Cd 0.96792 0.45329 0.6755 0.0
O301 O 0.97061 0.45543 0.69195 0.0
C302 C 0.96538 0.4623 0.69659 0.0
O303 O 0.95882 0.46788 0.69126 0.0
C304 C 0.96419 0.45841 0.65226 0.0
C305 C 0.96042 0.42766 0.629 0.0
O306 O 0.95532 0.43486 0.62456 0.0
O307 O 0.95985 0.42694 0.63884 0.0
O308 O 0.54118 0.03564 0.3586 0.0
Cd309 Cd 0.55576 0.047 0.36204 0.0
O310 O 0.54458 0.0354 0.34209 0.0
Cd311 Cd 0.54364 0.03077 0.3259 0.0
O312 O 0.54222 0.02968 0.30918 0.0
C313 C 0.54511 0.0374 0.3039 0.0
O314 O 0.54886 0.04549 0.30871 0.0
C315 C 0.53912 0.0323 0.34963 0.0
C316 C 0.56982 0.0358 0.37377 0.0
O317 O 0.56256 0.04095 0.37805 0.0
O318 O 0.57064 0.03621 0.36393 0.0
O319 O 0.96184 0.54001 0.35967 0.0
Cd320 Cd 0.9505 0.5546 0.36317 0.0
O321 O 0.96224 0.54369 0.34323 0.0
Cd322 Cd 0.96675 0.54302 0.32698 0.0
O323 O 0.96715 0.54156 0.31023 0.0
C324 C 0.95966 0.53693 0.30595 0.0
O325 O 0.95227 0.53317 0.31177 0.0
C326 C 0.96524 0.53806 0.35069 0.0
C327 C 0.96198 0.56923 0.37389 0.0
O328 O 0.95729 0.56195 0.37863 0.0
O329 O 0.961 0.56979 0.36407 0.0
O330 O 0.45473 0.95443 0.35665 0.0
Cd331 Cd 0.43845 0.94565 0.35998 0.0
O332 O 0.45008 0.95791 0.34083 0.0
Cd333 Cd 0.45054 0.96465 0.32536 0.0
O334 O 0.45277 0.96765 0.30895 0.0
C335 C 0.46036 0.96335 0.30449 0.0
O336 O 0.46658 0.95753 0.30996 0.0
C337 C 0.45666 0.95872 0.34807 0.0
C338 C 0.42565 0.95963 0.37006 0.0
O339 O 0.43208 0.95405 0.37507 0.0
O340 O 0.42503 0.95837 0.36028 0.0
O341 O 0.04246 0.45241 0.35518 0.0
Cd342 Cd 0.05117 0.43579 0.35642 0.0
O343 O 0.03889 0.44869 0.33916 0.0
Cd344 Cd 0.03218 0.44997 0.32374 0.0
O345 O 0.03029 0.45244 0.30723 0.0
C346 C 0.03679 0.4583 0.30284 0.0
O347 O 0.044 0.46268 0.30846 0.0
C348 C 0.03811 0.45485 0.34676 0.0
C349 C 0.03802 0.42218 0.36656 0.0
O350 O 0.04474 0.42743 0.37154 0.0
O351 O 0.0377 0.42316 0.35674 0.0
O352 O 0.64178 0.54644 0.96189 0.0
Cd353 Cd 0.64076 0.5625 0.95216 0.0
O354 O 0.65861 0.54696 0.96082 0.0
Cd355 Cd 0.67436 0.5424 0.96467 0.0
O356 O 0.69061 0.53866 0.96678 0.0
C357 C 0.69479 0.53184 0.96114 0.0
O358 O 0.68913 0.527 0.95427 0.0
C359 C 0.65049 0.54258 0.96413 0.0
C360 C 0.63054 0.57684 0.96442 0.0
O361 O 0.62561 0.57126 0.95792 0.0
O362 O 0.64035 0.57585 0.96489 0.0
O363 O 0.45497 0.64133 0.95703 0.0
Cd364 Cd 0.43896 0.64061 0.94718 0.0
O365 O 0.45156 0.65756 0.95994 0.0
Cd366 Cd 0.45294 0.67302 0.96655 0.0
O367 O 0.45536 0.68944 0.96924 0.0
C368 C 0.46293 0.69378 0.96479 0.0
O369 O 0.46909 0.68817 0.95903 0.0
C370 C 0.45737 0.64978 0.96135 0.0
C371 C 0.42384 0.63198 0.95974 0.0
O372 O 0.4291 0.62638 0.95353 0.0
O373 O 0.42556 0.64171 0.95981 0.0
O374 O 0.35914 0.45924 0.95853 0.0
Cd375 Cd 0.36453 0.44406 0.94884 0.0
O376 O 0.34321 0.45363 0.95918 0.0
Cd377 Cd 0.32687 0.45515 0.963 0.0
O378 O 0.31032 0.45759 0.9647 0.0
C379 C 0.30567 0.46284 0.95787 0.0
O380 O 0.311 0.46665 0.95014 0.0
C381 C 0.34993 0.46032 0.96167 0.0
C382 C 0.374 0.43069 0.9627 0.0
O383 O 0.37911 0.43784 0.95819 0.0
O384 O 0.36445 0.42964 0.96041 0.0
O385 O 0.5394 0.35595 0.95788 0.0
Cd386 Cd 0.55487 0.35656 0.94722 0.0
O387 O 0.54238 0.33953 0.96012 0.0
Cd388 Cd 0.54104 0.32387 0.96625 0.0
O389 O 0.53932 0.30726 0.96824 0.0
C390 C 0.54285 0.30153 0.96113 0.0
O391 O 0.54742 0.30586 0.95319 0.0
C392 C 0.53695 0.34746 0.96211 0.0
C393 C 0.57053 0.36535 0.95899 0.0
O394 O 0.56497 0.37088 0.95298 0.0
O395 O 0.56887 0.35561 0.95921 0.0
O396 O 0.64159 0.45247 0.0355 0.0
Cd397 Cd 0.64 0.43634 0.04503 0.0
O398 O 0.65831 0.45028 0.03549 0.0
Cd399 Cd 0.67436 0.45453 0.03256 0.0
O400 O 0.69076 0.45789 0.03094 0.0
C401 C 0.69507 0.46411 0.03715 0.0
O402 O 0.68947 0.46855 0.04433 0.0
C403 C 0.65048 0.4555 0.03273 0.0
C404 C 0.63037 0.42184 0.03247 0.0
O405 O 0.62515 0.42737 0.03877 0.0
O406 O 0.64018 0.42301 0.03227 0.0
O407 O 0.54015 0.64083 0.04192 0.0
Cd408 Cd 0.55563 0.63979 0.05254 0.0
O409 O 0.54421 0.65688 0.03889 0.0
Cd410 Cd 0.54369 0.67227 0.03203 0.0
O411 O 0.54214 0.68885 0.02973 0.0
C412 C 0.54509 0.69461 0.03708 0.0
O413 O 0.54903 0.69031 0.04536 0.0
C414 C 0.53825 0.64925 0.03731 0.0
C415 C 0.57096 0.6307 0.04058 0.0
O416 O 0.56521 0.62526 0.0465 0.0
O417 O 0.56966 0.64049 0.04057 0.0
O418 O 0.35392 0.54571 0.03724 0.0
Cd419 Cd 0.35585 0.5615 0.04727 0.0
O420 O 0.33719 0.54799 0.03753 0.0
Cd421 Cd 0.32128 0.54342 0.03438 0.0
O422 O 0.30525 0.53862 0.03284 0.0
C423 C 0.3007 0.53481 0.04063 0.0
O424 O 0.30583 0.53381 0.0493 0.0
C425 C 0.34497 0.54287 0.03447 0.0
C426 C 0.36533 0.57622 0.03484 0.0
O427 O 0.37064 0.57048 0.04088 0.0
O428 O 0.35551 0.57516 0.03488 0.0
O429 O 0.45515 0.35894 0.04318 0.0
Cd430 Cd 0.43976 0.36181 0.05359 0.0
O431 O 0.45047 0.34301 0.04025 0.0
Cd432 Cd 0.45078 0.32757 0.03343 0.0
O433 O 0.45309 0.31121 0.03032 0.0
C434 C 0.46094 0.30687 0.03425 0.0
O435 O 0.46736 0.31244 0.03977 0.0
C436 C 0.4568 0.35036 0.03876 0.0
C437 C 0.42598 0.373 0.04154 0.0
O438 O 0.43281 0.37754 0.04705 0.0
O439 O 0.42544 0.36314 0.04198 0.0
O440 O 0.96206 0.64258 0.54303 0.0
Cd441 Cd 0.95052 0.63901 0.55743 0.0
O442 O 0.96218 0.65911 0.54633 0.0
Cd443 Cd 0.96667 0.67533 0.54532 0.0
O444 O 0.96727 0.69205 0.54363 0.0
C445 C 0.95971 0.6964 0.53918 0.0
O446 O 0.95211 0.69066 0.53573 0.0
C447 C 0.96538 0.65156 0.54095 0.0
C448 C 0.96173 0.6277 0.57183 0.0
O449 O 0.95696 0.62324 0.56442 0.0
O450 O 0.96093 0.63751 0.57264 0.0
O451 O 0.95865 0.35805 0.45566 0.0
Cd452 Cd 0.94829 0.35944 0.44003 0.0
O453 O 0.96061 0.34166 0.45235 0.0
Cd454 Cd 0.96652 0.32593 0.45358 0.0
O455 O 0.9683 0.30932 0.45546 0.0
C456 C 0.96185 0.30469 0.46119 0.0
O457 O 0.95467 0.3101 0.46585 0.0
C458 C 0.96265 0.34943 0.45798 0.0
C459 C 0.96054 0.36878 0.42508 0.0
O460 O 0.95457 0.37414 0.43085 0.0
O461 O 0.96047 0.35897 0.42617 0.0
O462 O 0.6418 0.95752 0.46083 0.0
Cd463 Cd 0.63469 0.94702 0.44698 0.0
O464 O 0.6549 0.96136 0.45086 0.0
Cd465 Cd 0.66994 0.96846 0.44829 0.0
O466 O 0.68653 0.97113 0.44848 0.0
C467 C 0.69153 0.96725 0.45595 0.0
O468 O 0.68645 0.9622 0.46312 0.0
C469 C 0.6501 0.9625 0.45932 0.0
C470 C 0.62446 0.96029 0.43355 0.0
O471 O 0.61987 0.95639 0.44138 0.0
O472 O 0.63384 0.95766 0.43188 0.0
O473 O 0.043 0.64267 0.45683 0.0
Cd474 Cd 0.05199 0.63895 0.44075 0.0
O475 O 0.04017 0.65856 0.45199 0.0
Cd476 Cd 0.03423 0.67434 0.4521 0.0
O477 O 0.03291 0.691 0.4539 0.0
C478 C 0.03885 0.69526 0.46043 0.0
O479 O 0.04517 0.68945 0.46581 0.0
C480 C 0.03899 0.65142 0.45863 0.0
C481 C 0.03836 0.62828 0.42807 0.0
O482 O 0.04394 0.62354 0.4347 0.0
O483 O 0.03943 0.63806 0.42721 0.0
O484 O 0.35877 0.04243 0.45447 0.0
Cd485 Cd 0.36164 0.05227 0.43872 0.0
O486 O 0.34301 0.0388 0.44972 0.0
Cd487 Cd 0.32775 0.03159 0.44996 0.0
O488 O 0.31132 0.02827 0.45135 0.0
C489 C 0.30635 0.0327 0.45853 0.0
O490 O 0.31133 0.03881 0.46489 0.0
C491 C 0.35031 0.03781 0.4562 0.0
C492 C 0.37209 0.03953 0.42496 0.0
O493 O 0.37697 0.04492 0.43165 0.0
O494 O 0.36226 0.0404 0.42457 0.0
O495 O 0.04123 0.35968 0.54192 0.0
Cd496 Cd 0.05073 0.36293 0.55781 0.0
O497 O 0.03839 0.3437 0.54649 0.0
Cd498 Cd 0.03201 0.32809 0.54605 0.0
O499 O 0.02964 0.31156 0.54407 0.0
C500 C 0.03452 0.30709 0.53685 0.0
O501 O 0.04052 0.31262 0.53084 0.0
C502 C 0.03706 0.35101 0.54007 0.0
C503 C 0.03727 0.37276 0.57133 0.0
O504 O 0.04254 0.37788 0.56473 0.0
O505 O 0.0386 0.36298 0.57178 0.0
O506 O 0.64211 0.04327 0.53672 0.0
Cd507 Cd 0.63526 0.05296 0.55129 0.0
O508 O 0.6546 0.03769 0.54665 0.0
Cd509 Cd 0.66912 0.02946 0.5489 0.0
O510 O 0.68556 0.026 0.54932 0.0
C511 C 0.69138 0.03248 0.5538 0.0
O512 O 0.68718 0.0406 0.55817 0.0
C513 C 0.65003 0.03766 0.53799 0.0
C514 C 0.62624 0.03894 0.56482 0.0
O515 O 0.62115 0.04275 0.55727 0.0
O516 O 0.63555 0.04196 0.56615 0.0
O517 O 0.35884 0.96044 0.54169 0.0
Cd518 Cd 0.36001 0.95013 0.55738 0.0
O519 O 0.34249 0.96254 0.54512 0.0
Cd520 Cd 0.32678 0.96853 0.54396 0.0
O521 O 0.31013 0.97037 0.54251 0.0
C522 C 0.30446 0.96736 0.5499 0.0
O523 O 0.30884 0.96361 0.55822 0.0
C524 C 0.35022 0.96448 0.53939 0.0
C525 C 0.36923 0.96223 0.57253 0.0
O526 O 0.37461 0.95613 0.56692 0.0
O527 O 0.35945 0.96239 0.57116 0.0
C528 C 0.9729 0.52882 0.14197 0.0
C529 C 0.96817 0.53256 0.15099 0.0
C530 C 0.98146 0.52235 0.14254 0.0
C531 C 0.99354 0.50303 0.15841 0.0
H532 H 0.01774 0.50835 0.14172 0.0
C533 C 0.02864 0.47527 0.15775 0.0
C534 C 0.03373 0.47404 0.14828 0.0
C535 C 0.02102 0.48282 0.15894 0.0
C536 C 0.011 0.50666 0.14633 0.0
H537 H 0.96942 0.53307 0.16766 0.0
H538 H 0.98402 0.52123 0.16865 0.0
H539 H 0.00385 0.52096 0.14222 0.0
H540 H 0.03442 0.47941 0.13246 0.0
H541 H 0.02091 0.49218 0.13437 0.0
H542 H 0.0004 0.48851 0.16216 0.0
C543 C 0.98093 0.52326 0.16117 0.0
C544 C 0.00309 0.51394 0.14667 0.0
C545 C 0.97245 0.52992 0.16059 0.0
C546 C 0.03074 0.48023 0.13991 0.0
C547 C 0.02307 0.48767 0.14105 0.0
C548 C 0.00139 0.49565 0.15795 0.0
C549 C 0.98547 0.5194 0.15214 0.0
C550 C 0.99423 0.51213 0.1526 0.0
C551 C 0.0182 0.48919 0.15062 0.0
C552 C 0.01015 0.4973 0.15176 0.0
H553 H 0.96986 0.53072 0.13443 0.0
H554 H 0.9848 0.51944 0.13546 0.0
H555 H 0.98673 0.50144 0.16298 0.0
H556 H 0.03036 0.47031 0.16421 0.0
H557 H 0.01742 0.48372 0.16642 0.0
C558 C 0.52667 0.02887 0.15879 0.0
C559 C 0.52875 0.03384 0.14939 0.0
C560 C 0.51975 0.02061 0.1592 0.0
C561 C 0.50845 2e-05 0.14381 0.0
H562 H 0.48516 0.00161 0.16248 0.0
C563 C 0.47479 0.97146 0.14062 0.0
C564 C 0.47004 0.96801 0.14971 0.0
C565 C 0.48194 0.9795 0.14087 0.0
C566 C 0.4917 0.00093 0.15734 0.0
H567 H 0.52561 0.03365 0.13295 0.0
H568 H 0.51379 0.01905 0.13365 0.0
H569 H 0.49817 0.0152 0.16262 0.0
H570 H 0.4684 0.971 0.16607 0.0
H571 H 0.48137 0.98449 0.16667 0.0
H572 H 0.50224 0.98568 0.13867 0.0
C573 C 0.51737 0.02169 0.14072 0.0
C574 C 0.49912 0.00874 0.15741 0.0
C575 C 0.52414 0.03004 0.14034 0.0
C576 C 0.4723 0.97306 0.15901 0.0
C577 C 0.47958 0.98102 0.1593 0.0
C578 C 0.50113 0.99213 0.14385 0.0
C579 C 0.515 0.01699 0.15017 0.0
C580 C 0.50749 0.00842 0.15056 0.0
C581 C 0.48459 0.98426 0.15024 0.0
C582 C 0.49257 0.99253 0.15052 0.0
H583 H 0.53049 0.03118 0.1658 0.0
H584 H 0.5182 0.01696 0.16655 0.0
H585 H 0.5149 0.99955 0.13853 0.0
H586 H 0.47312 0.96784 0.13328 0.0
H587 H 0.48537 0.98198 0.13367 0.0
C588 C 0.97016 0.47212 0.85887 0.0
C589 C 0.96581 0.46792 0.84987 0.0
C590 C 0.97881 0.47849 0.85831 0.0
C591 C 0.9918 0.49665 0.84165 0.0
H592 H 0.01548 0.49204 0.85927 0.0
C593 C 0.02782 0.52308 0.84028 0.0
C594 C 0.03303 0.52489 0.8496 0.0
C595 C 0.0199 0.51577 0.83976 0.0
C596 C 0.00888 0.49355 0.8544 0.0
H597 H 0.9678 0.46639 0.83335 0.0
H598 H 0.98253 0.47805 0.8323 0.0
H599 H 0.00121 0.47983 0.85949 0.0
H600 H 0.03359 0.52083 0.86582 0.0
H601 H 0.01955 0.50854 0.86504 0.0
H602 H 0.99917 0.51059 0.83686 0.0
C603 C 0.97909 0.4765 0.83975 0.0
C604 C 0.00075 0.4865 0.85448 0.0
C605 C 0.97054 0.46996 0.84034 0.0
C606 C 0.02984 0.51954 0.85847 0.0
C607 C 0.02185 0.51237 0.85799 0.0
C608 C -0.00015 0.50382 0.84168 0.0
C609 C 0.98325 0.48087 0.84873 0.0
C610 C 0.99211 0.48803 0.84817 0.0
C611 C 0.01686 0.51025 0.8486 0.0
C612 C 0.00846 0.50242 0.84814 0.0
H613 H 0.96676 0.47064 0.86635 0.0
H614 H 0.98188 0.48178 0.86534 0.0
H615 H 0.98516 0.49803 0.83677 0.0
H616 H 0.02968 0.52741 0.83343 0.0
H617 H 0.01624 0.5144 0.83238 0.0
C618 C 0.47121 0.02698 0.83695 0.0
C619 C 0.46881 0.03114 0.84667 0.0
C620 C 0.47808 0.0187 0.83608 0.0
C621 C 0.48831 0.99665 0.85003 0.0
H622 H 0.51313 -0.00016 0.83368 0.0
C623 C 0.52247 0.96918 0.85511 0.0
C624 C 0.52841 0.96642 0.84649 0.0
C625 C 0.51493 0.97681 0.85437 0.0
C626 C 0.50616 0.99871 0.83813 0.0
H627 H 0.47133 0.02947 0.86313 0.0
H628 H 0.48299 0.01484 0.86161 0.0
H629 H 0.50002 0.01337 0.8335 0.0
H630 H 0.53159 0.97015 0.83053 0.0
H631 H 0.51799 0.98298 0.829 0.0
H632 H 0.49423 0.98199 0.85457 0.0
C633 C 0.47973 0.01814 0.85466 0.0
C634 C 0.49868 0.00648 0.83804 0.0
C635 C 0.47305 0.02651 0.85551 0.0
C636 C 0.52683 0.97169 0.83717 0.0
C637 C 0.51916 0.97925 0.83637 0.0
C638 C 0.49568 0.98882 0.85 0.0
C639 C 0.4824 0.01424 0.84494 0.0
C640 C 0.4898 0.0056 0.84416 0.0
C641 C 0.51305 0.98185 0.84496 0.0
C642 C 0.50483 0.98984 0.84424 0.0
H643 H 0.46768 0.02993 0.83003 0.0
H644 H 0.47989 0.01568 0.82851 0.0
H645 H 0.48146 0.99575 0.85472 0.0
H646 H 0.52357 0.96537 0.86246 0.0
H647 H 0.51063 0.97879 0.86125 0.0
C648 C 0.14349 0.96843 0.51933 0.0
C649 C 0.14975 0.96795 0.52815 0.0
C650 C 0.14479 0.97631 0.51212 0.0
C651 C 0.15507 0.00259 0.50911 0.0
H652 H 0.15292 0.9963 0.47995 0.0
C653 C 0.16031 0.03383 0.47779 0.0
C654 C 0.15285 0.03383 0.46994 0.0
C655 C 0.16108 0.02549 0.48458 0.0
C656 C 0.15349 0.99818 0.48807 0.0
H657 H 0.16188 0.9757 0.53662 0.0
H658 H 0.16436 0.98933 0.52388 0.0
H659 H 0.15203 0.98238 0.49256 0.0
H660 H 0.14039 0.02515 0.463 0.0
H661 H 0.14171 0.01061 0.47485 0.0
H662 H 0.15638 0.01841 0.50461 0.0
C663 C 0.15849 0.98356 0.52251 0.0
C664 C 0.15297 0.99022 0.49529 0.0
C665 C 0.15719 0.97565 0.52973 0.0
C666 C 0.14627 0.0253 0.46893 0.0
C667 C 0.14707 0.01695 0.47568 0.0
C668 C 0.1556 0.01056 0.50187 0.0
C669 C 0.15234 0.98394 0.51359 0.0
C670 C 0.1536 0.99234 0.5059 0.0
C671 C 0.15441 0.017 0.48366 0.0
C672 C 0.15468 0.00846 0.49128 0.0
H673 H 0.13764 0.96264 0.51794 0.0
H674 H 0.13977 0.97649 0.50545 0.0
H675 H 0.15546 0.0045 0.51722 0.0
H676 H 0.16524 0.04044 0.479 0.0
H677 H 0.16683 0.02574 0.49064 0.0
C678 C 0.02861 0.16305 0.53145 0.0
C679 C 0.03307 0.15352 0.53405 0.0
C680 C 0.02051 0.16354 0.52433 0.0
C681 C -0.00035 0.14839 0.51297 0.0
H682 H 0.00314 0.16532 0.48859 0.0
C683 C 0.97503 0.14175 0.47698 0.0
C684 C 0.97184 0.15026 0.4711 0.0
C685 C 0.98208 0.14296 0.485 0.0
C686 C 0.00193 0.16069 0.49543 0.0
H687 H 0.03209 0.13698 0.53166 0.0
H688 H 0.01781 0.13785 0.51952 0.0
H689 H 0.01583 0.16622 0.50248 0.0
H690 H 0.97423 0.16659 0.46854 0.0
H691 H 0.9861 0.16885 0.48292 0.0
H692 H 0.98576 0.14289 0.50609 0.0
C693 C 0.0207 0.14495 0.52284 0.0
C694 C 0.00922 0.1612 0.50336 0.0
C695 C 0.02889 0.14447 0.5298 0.0
C696 C 0.97612 0.15997 0.47322 0.0
C697 C 0.98312 0.16122 0.48134 0.0
C698 C 0.99231 0.14798 0.50513 0.0
C699 C 0.01654 0.15449 0.51992 0.0
C700 C 0.00825 0.15488 0.51209 0.0
C701 C 0.98611 0.15273 0.48741 0.0
C702 C 0.99347 0.15393 0.49613 0.0
H703 H 0.03122 0.17011 0.53499 0.0
H704 H 0.01728 0.17098 0.52234 0.0
H705 H 0.99867 0.14353 0.5197 0.0
H706 H 0.97197 0.13412 0.47548 0.0
H707 H 0.98441 0.13618 0.48928 0.0
C708 C 0.83904 0.97457 0.46933 0.0
C709 C 0.84688 0.96721 0.47059 0.0
C710 C 0.83786 0.98258 0.47646 0.0
C711 C 0.84489 0.98999 0.50315 0.0
H712 H 0.83894 0.01774 0.49378 0.0
C713 C 0.85122 0.02592 0.52843 0.0
C714 C 0.8439 0.03388 0.52795 0.0
C715 C 0.8505 0.01744 0.52184 0.0
C716 C 0.84044 0.01 0.49654 0.0
H717 H 0.85987 0.96268 0.48006 0.0
H718 H 0.85798 0.97674 0.49235 0.0
H719 H 0.83989 0.00372 0.48129 0.0
H720 H 0.83026 0.03935 0.52001 0.0
H721 H 0.82889 0.02443 0.5086 0.0
H722 H 0.84566 0.99633 0.51837 0.0
C723 C 0.85254 0.97619 0.48604 0.0
C724 C 0.84099 0.00197 0.48938 0.0
C725 C 0.8537 0.96819 0.47894 0.0
C726 C 0.83581 0.03317 0.52079 0.0
C727 C 0.83513 0.02472 0.51414 0.0
C728 C 0.84437 0.99803 0.5103 0.0
C729 C 0.84456 0.98343 0.48495 0.0
C730 C 0.84336 0.99189 0.49259 0.0
C731 C 0.84253 0.0168 0.51453 0.0
C732 C 0.84227 0.00814 0.50705 0.0
H733 H 0.83392 0.97426 0.46276 0.0
H734 H 0.83165 0.98805 0.47537 0.0
H735 H 0.84651 0.98228 0.50592 0.0
H736 H 0.85758 0.02631 0.53382 0.0
H737 H 0.8564 0.01155 0.52223 0.0
C738 C 0.02523 0.84202 0.46981 0.0
C739 C 0.0302 0.85132 0.46731 0.0
C740 C 0.01739 0.84181 0.4772 0.0
C741 C 0.99777 0.85763 0.48963 0.0
H742 H 0.00055 0.83904 0.51287 0.0
C743 C 0.97142 0.86133 0.52501 0.0
C744 C 0.96813 0.85229 0.52999 0.0
C745 C 0.97899 0.86095 0.51738 0.0
C746 C 0.99953 0.84416 0.50636 0.0
H747 H 0.03039 0.86779 0.47021 0.0
H748 H 0.0165 0.86745 0.48287 0.0
H749 H 0.01328 0.83864 0.49903 0.0
H750 H 0.97097 0.83589 0.53144 0.0
H751 H 0.98363 0.83508 0.51768 0.0
H752 H 0.98393 0.86301 0.4967 0.0
C753 C 0.01883 0.8603 0.47924 0.0
C754 C 0.00686 0.84394 0.49846 0.0
C755 C 0.02678 0.86048 0.47199 0.0
C756 C 0.9729 0.84291 0.52743 0.0
C757 C 0.98038 0.8425 0.51967 0.0
C758 C 0.99035 0.85774 0.49743 0.0
C759 C 0.01417 0.85094 0.48203 0.0
C760 C 0.0061 0.85075 0.49009 0.0
C761 C 0.98344 0.85151 0.51445 0.0
C762 C 0.9912 0.8511 0.50598 0.0
H763 H 0.02724 0.83492 0.46597 0.0
H764 H 0.01375 0.83453 0.47907 0.0
H765 H 0.99696 0.86288 0.48318 0.0
H766 H 0.96801 0.86872 0.52688 0.0
H767 H 0.98135 0.8681 0.51378 0.0
C768 C 0.52527 0.13938 0.9734 0.0
C769 C 0.53012 0.14805 0.96905 0.0
C770 C 0.51831 0.14049 0.98153 0.0
C771 C 0.50004 0.15827 0.99286 0.0
H772 H 0.50223 0.14078 0.01699 0.0
C773 C 0.47184 0.16147 0.02746 0.0
C774 C 0.46932 0.15234 0.03269 0.0
C775 C 0.47943 0.16148 0.01979 0.0
C776 C 0.5014 0.14563 0.01025 0.0
H777 H 0.53206 0.16459 0.9705 0.0
H778 H 0.51943 0.16659 0.98433 0.0
H779 H 0.51536 0.13985 0.00361 0.0
H780 H 0.47228 0.1359 0.03349 0.0
H781 H 0.48511 0.13581 0.01987 0.0
H782 H 0.48586 0.16378 0.99924 0.0
C783 C 0.52095 0.15896 0.98128 0.0
C784 C 0.50897 0.14513 0.00263 0.0
C785 C 0.52806 0.15783 0.97324 0.0
C786 C 0.47414 0.14311 0.02971 0.0
C787 C 0.48161 0.14309 0.02198 0.0
C788 C 0.49235 0.15866 0.00041 0.0
C789 C 0.51599 0.1503 0.98546 0.0
C790 C 0.50832 0.15138 0.99383 0.0
C791 C 0.48453 0.1523 0.01706 0.0
C792 C 0.49287 0.15226 0.00916 0.0
H793 H 0.52669 0.13172 0.9704 0.0
H794 H 0.51456 0.13369 0.98459 0.0
H795 H 0.49932 0.16311 0.98608 0.0
H796 H 0.46791 0.1686 0.02916 0.0
H797 H 0.48141 0.16872 0.01615 0.0
C798 C 0.47099 0.83806 0.97166 0.0
C799 C 0.46863 0.8476 0.96707 0.0
C800 C 0.47776 0.83755 0.98005 0.0
C801 C 0.48803 0.85249 0.00151 0.0
H802 H 0.51251 0.8355 0.99923 0.0
C803 C 0.52186 0.85755 0.02951 0.0
C804 C 0.52736 0.84879 0.03271 0.0
C805 C 0.51454 0.85686 0.02166 0.0
C806 C 0.50563 0.84015 0.00011 0.0
H807 H 0.47108 0.86412 0.96812 0.0
H808 H 0.48258 0.86322 0.98292 0.0
H809 H 0.49948 0.83497 0.98565 0.0
H810 H 0.53011 0.83264 0.02946 0.0
H811 H 0.51688 0.83124 0.01626 0.0
H812 H 0.49396 0.85757 0.01599 0.0
C813 C 0.47936 0.85614 0.97989 0.0
C814 C 0.4982 0.83985 0.9923 0.0
C815 C 0.47277 0.85663 0.97141 0.0
C816 C 0.52565 0.8394 0.02759 0.0
C817 C 0.5182 0.83867 0.01982 0.0
C818 C 0.49536 0.85267 0.00938 0.0
C819 C 0.48203 0.84659 0.98419 0.0
C820 C 0.48942 0.84616 0.99286 0.0
C821 C 0.51246 0.84738 0.01683 0.0
C822 C 0.50437 0.84666 0.0087 0.0
H823 H 0.46752 0.83102 0.96894 0.0
H824 H 0.47956 0.83011 0.98339 0.0
H825 H 0.48126 0.85734 0.00217 0.0
H826 H 0.52308 0.86494 0.03319 0.0
H827 H 0.51052 0.86382 0.01937 0.0
C828 C 0.1586 0.52138 0.03515 0.0
C829 C 0.15697 0.53183 0.03295 0.0
C830 C 0.16068 0.51439 0.02723 0.0
C831 C 0.15714 0.51163 0.99897 0.0
H832 H 0.1718 0.48598 0.00361 0.0
C833 C 0.16098 0.48053 0.96752 0.0
C834 C 0.15668 0.47106 0.97053 0.0
C835 C 0.16319 0.48809 0.97486 0.0
C836 C 0.16775 0.49315 0.00222 0.0
H837 H 0.15662 0.54332 0.02087 0.0
H838 H 0.16076 0.53124 0.00704 0.0
H839 H 0.17213 0.49941 0.01681 0.0
H840 H 0.15166 0.4619 0.98354 0.0
H841 H 0.15579 0.47505 0.99646 0.0
H842 H 0.15288 0.50534 0.98432 0.0
C843 C 0.16011 0.52832 0.01482 0.0
C844 C 0.16785 0.50082 0.00979 0.0
C845 C 0.15783 0.53527 0.02274 0.0
C846 C 0.15503 0.46912 0.98105 0.0
C847 C 0.15743 0.47661 0.98842 0.0
C848 C 0.15722 0.50405 0.99134 0.0
C849 C 0.1613 0.51772 0.01692 0.0
C850 C 0.16233 0.51007 0.00839 0.0
C851 C 0.16129 0.48625 0.98536 0.0
C852 C 0.16233 0.49466 0.99298 0.0
H853 H 0.15773 0.51849 0.04294 0.0
H854 H 0.1613 0.5063 0.0292 0.0
H855 H 0.15262 0.51851 0.99763 0.0
H856 H 0.16209 0.48233 0.95944 0.0
H857 H 0.16613 0.49549 0.97233 0.0
C858 C 0.8578 0.47784 0.02833 0.0
C859 C 0.84899 0.47258 0.03179 0.0
C860 C 0.85707 0.48529 0.02061 0.0
C861 C 0.8401 0.4947 0.99959 0.0
H862 H 0.85796 0.51863 0.00124 0.0
C863 C 0.83822 0.52889 0.97077 0.0
C864 C 0.84774 0.53144 0.96628 0.0
C865 C 0.83777 0.52217 0.9792 0.0
C866 C 0.85294 0.51197 0.00068 0.0
H867 H 0.83262 0.4705 0.02925 0.0
H868 H 0.83119 0.48392 0.0162 0.0
H869 H 0.85811 0.50596 0.01511 0.0
H870 H 0.86429 0.5294 0.96747 0.0
H871 H 0.86351 0.51789 0.98231 0.0
H872 H 0.83487 0.50088 0.98518 0.0
C873 C 0.83869 0.48229 0.01947 0.0
C874 C 0.85306 0.50468 0.00859 0.0
C875 C 0.83946 0.47474 0.02714 0.0
C876 C 0.85683 0.52754 0.97071 0.0
C877 C 0.85639 0.52095 0.97921 0.0
C878 C 0.8399 0.50208 0.99174 0.0
C879 C 0.84749 0.48773 0.01617 0.0
C880 C 0.84679 0.49584 0.00806 0.0
C881 C 0.84685 0.51808 0.98344 0.0
C882 C 0.84644 0.5107 0.99214 0.0
H883 H 0.86529 0.47628 0.03167 0.0
H884 H 0.86406 0.48909 0.01809 0.0
H885 H 0.83525 0.48795 0.99885 0.0
H886 H 0.83114 0.53219 0.96793 0.0
H887 H 0.83033 0.52024 0.98246 0.0
C888 C 0.53249 0.97389 0.64054 0.0
C889 C 0.53627 0.96929 0.64961 0.0
C890 C 0.52407 0.98057 0.64087 0.0
C891 C 0.51088 0.99882 0.65717 0.0
H892 H 0.48784 0.995 0.63854 0.0
C893 C 0.47529 0.02582 0.65762 0.0
C894 C 0.4703 0.02776 0.64821 0.0
C895 C 0.48317 0.01849 0.65826 0.0
C896 C 0.49427 0.9963 0.64369 0.0
H897 H 0.5335 0.96749 0.66597 0.0
H898 H 0.51917 0.9797 0.66666 0.0
H899 H 0.50178 0.98243 0.63878 0.0
H900 H 0.47017 0.02397 0.63192 0.0
H901 H 0.48418 0.01164 0.63289 0.0
H902 H 0.50369 0.01291 0.66179 0.0
C903 C 0.52289 0.97818 0.65933 0.0
C904 C 0.50221 0.98903 0.64387 0.0
C905 C 0.53121 0.97133 0.65897 0.0
C906 C 0.47374 0.02258 0.63934 0.0
C907 C 0.48171 0.01538 0.63993 0.0
C908 C 0.50303 0.0062 0.65687 0.0
C909 C 0.51928 0.98288 0.65028 0.0
C910 C 0.51061 0.99026 0.65057 0.0
C911 C 0.48641 0.01308 0.64943 0.0
C912 C 0.49465 0.00509 0.65005 0.0
H913 H 0.53616 0.97247 0.63317 0.0
H914 H 0.52144 0.98412 0.63378 0.0
H915 H 0.51735 -3e-05 0.66234 0.0
H916 H 0.47325 0.03003 0.6645 0.0
H917 H 0.4866 0.01698 0.66571 0.0
C918 C 0.02936 0.52709 0.66261 0.0
C919 C 0.0316 0.53131 0.65288 0.0
C920 C 0.02263 0.5187 0.66353 0.0
C921 C 0.01221 0.49669 0.64949 0.0
H922 H 0.98778 0.4997 0.66644 0.0
C923 C 0.97768 0.46967 0.64455 0.0
C924 C 0.97197 0.4667 0.65326 0.0
C925 C 0.98531 0.47721 0.6453 0.0
C926 C 0.99464 0.49862 0.66182 0.0
H927 H 0.02898 0.52962 0.63644 0.0
H928 H 0.01754 0.51482 0.63804 0.0
H929 H 0.00095 0.51316 0.66656 0.0
H930 H 0.96927 0.46997 0.66942 0.0
H931 H 0.98301 0.48268 0.67091 0.0
H932 H 0.0061 0.48215 0.6448 0.0
C933 C 0.02083 0.51814 0.64497 0.0
C934 C 0.00216 0.50635 0.66188 0.0
C935 C 0.02739 0.52661 0.64406 0.0
C936 C 0.97386 0.47168 0.66268 0.0
C937 C 0.9816 0.47917 0.66347 0.0
C938 C 0.00479 0.4889 0.64954 0.0
C939 C 0.01827 0.5142 0.65471 0.0
C940 C 0.01089 0.50555 0.65555 0.0
C941 C 0.98749 0.48196 0.6548 0.0
C942 C 0.99578 0.48987 0.65551 0.0
H943 H 0.03291 0.53009 0.6695 0.0
H944 H 0.02092 0.51565 0.67111 0.0
H945 H 0.01895 0.49584 0.64463 0.0
H946 H 0.97635 0.46607 0.63713 0.0
H947 H 0.98944 0.47935 0.63837 0.0
C948 C 0.47082 0.96906 0.35596 0.0
C949 C 0.46608 0.96512 0.34704 0.0
C950 C 0.47937 0.97553 0.35523 0.0
C951 C 0.49121 0.99461 0.33892 0.0
H952 H 0.51556 0.98989 0.35558 0.0
C953 C 0.52582 0.02295 0.33893 0.0
C954 C 0.53092 0.02444 0.34836 0.0
C955 C 0.51838 0.0152 0.33789 0.0
C956 C 0.50877 0.99141 0.35097 0.0
H957 H 0.46733 0.9642 0.3304 0.0
H958 H 0.48189 0.97607 0.32909 0.0
H959 H 0.5018 0.97711 0.35541 0.0
H960 H 0.53183 0.01929 0.36425 0.0
H961 H 0.51861 0.0062 0.3626 0.0
H962 H 0.49787 0.00913 0.33486 0.0
C963 C 0.47882 0.9742 0.33663 0.0
C964 C 0.50094 0.98404 0.35082 0.0
C965 C 0.47036 0.96754 0.33737 0.0
C966 C 0.52814 0.01828 0.35683 0.0
C967 C 0.52063 0.01066 0.35584 0.0
C968 C 0.49897 0.00208 0.3392 0.0
C969 C 0.48334 0.97829 0.34556 0.0
C970 C 0.49204 0.98563 0.34491 0.0
C971 C 0.51574 0.0089 0.34632 0.0
C972 C 0.50779 0.00066 0.34536 0.0
H973 H 0.46779 0.96732 0.36354 0.0
H974 H 0.48271 0.97862 0.36224 0.0
H975 H 0.48436 0.99603 0.33436 0.0
H976 H 0.52739 0.02785 0.3324 0.0
H977 H 0.51476 0.01412 0.33045 0.0
C978 C 0.02943 0.46915 0.3368 0.0
C979 C 0.03176 0.46434 0.34624 0.0
C980 C 0.02279 0.47764 0.33648 0.0
C981 C 0.01281 0.49898 0.35172 0.0
H982 H 0.98808 0.49693 0.33506 0.0
C983 C 0.97887 0.52659 0.35786 0.0
C984 C 0.97298 0.52977 0.34935 0.0
C985 C 0.98638 0.51897 0.35682 0.0
C986 C 0.99502 0.49775 0.3396 0.0
H987 H 0.02944 0.46512 0.36279 0.0
H988 H 0.01815 0.48012 0.36222 0.0
H989 H 0.00105 0.48332 0.33422 0.0
H990 H 0.9699 0.52678 0.3332 0.0
H991 H 0.98344 0.51398 0.33118 0.0
H992 H 0.00701 0.51344 0.357 0.0
C993 C 0.02129 0.47717 0.35507 0.0
C994 C 0.00243 0.48993 0.33914 0.0
C995 C 0.02776 0.46858 0.35538 0.0
C996 C 0.97461 0.52492 0.3398 0.0
C997 C 0.98224 0.51737 0.33871 0.0
C998 C 0.00551 0.50688 0.35206 0.0
C999 C 0.01861 0.48167 0.3456 0.0
C1000 C 0.01128 0.49039 0.34534 0.0
C1001 C 0.98828 0.51434 0.34721 0.0
C1002 C 0.99641 0.50628 0.34618 0.0
H1003 H 0.03283 0.4665 0.32969 0.0
H1004 H 0.02099 0.48113 0.3291 0.0
H1005 H 0.01964 0.49956 0.35648 0.0
H1006 H 0.97775 0.53006 0.36538 0.0
H1007 H 0.99062 0.51665 0.36362 0.0
C1008 C 0.64355 0.53226 0.97877 0.0
C1009 C 0.65104 0.53356 0.97107 0.0
C1010 C 0.64409 0.52395 0.98558 0.0
C1011 C 0.65496 0.49792 0.98858 0.0
H1012 H 0.64926 0.50251 0.01757 0.0
C1013 C 0.65935 0.4656 0.01887 0.0
C1014 C 0.65153 0.46484 0.02631 0.0
C1015 C 0.65992 0.47418 0.01238 0.0
C1016 C 0.65079 0.50109 0.00949 0.0
H1017 H 0.66462 0.52682 0.96405 0.0
H1018 H 0.66573 0.5124 0.97611 0.0
H1019 H 0.64901 0.51703 0.00563 0.0
H1020 H 0.63808 0.47239 0.03271 0.0
H1021 H 0.63898 0.48733 0.02132 0.0
H1022 H 0.65661 0.48197 0.99241 0.0
C1023 C 0.65948 0.51787 0.97693 0.0
C1024 C 0.65064 0.5094 0.00265 0.0
C1025 C 0.65894 0.52622 0.97013 0.0
C1026 C 0.64426 0.47282 0.02711 0.0
C1027 C 0.64482 0.48141 0.02063 0.0
C1028 C 0.65508 0.4896 0.99542 0.0
C1029 C 0.6521 0.5167 0.98479 0.0
C1030 C 0.65264 0.5079 0.9921 0.0
C1031 C 0.65262 0.48216 0.01314 0.0
C1032 C 0.65292 0.49107 0.00595 0.0
H1033 H 0.63733 0.53777 0.97963 0.0
H1034 H 0.63818 0.52316 0.99142 0.0
H1035 H 0.65641 0.4965 0.98048 0.0
H1036 H 0.66481 0.4594 0.01777 0.0
H1037 H 0.66604 0.47453 0.00672 0.0
C1038 C 0.46985 0.64107 0.97312 0.0
C1039 C 0.46637 0.65017 0.96837 0.0
C1040 C 0.47797 0.64133 0.98018 0.0
C1041 C 0.49049 0.65798 0.9988 0.0
H1042 H 0.51316 0.6386 0.99698 0.0
C1043 C 0.52501 0.65915 0.0271 0.0
C1044 C 0.52967 0.64975 0.02979 0.0
C1045 C 0.51741 0.65951 0.01946 0.0
C1046 C 0.50682 0.64397 0.99772 0.0
H1047 H 0.46939 0.66652 0.96665 0.0
H1048 H 0.48319 0.66706 0.97943 0.0
H1049 H 0.49986 0.63861 0.98373 0.0
H1050 H 0.5295 0.63327 0.02704 0.0
H1051 H 0.51596 0.63381 0.01413 0.0
H1052 H 0.49716 0.6631 0.01298 0.0
C1053 C 0.47947 0.65977 0.97778 0.0
C1054 C 0.49924 0.64401 0.99007 0.0
C1055 C 0.47145 0.65948 0.97058 0.0
C1056 C 0.52617 0.64066 0.02506 0.0
C1057 C 0.51848 0.64099 0.01754 0.0
C1058 C 0.49798 0.65784 0.00655 0.0
C1059 C 0.48274 0.6507 0.9827 0.0
C1060 C 0.491 0.65098 0.99056 0.0
C1061 C 0.51412 0.65044 0.01449 0.0
C1062 C 0.50622 0.65079 0.00615 0.0
H1063 H 0.46615 0.63375 0.97155 0.0
H1064 H 0.48033 0.63423 0.98388 0.0
H1065 H 0.48414 0.66336 0.9994 0.0
H1066 H 0.5271 0.66622 0.03095 0.0
H1067 H 0.51423 0.66694 0.01737 0.0
C1068 C 0.34043 0.46782 0.97667 0.0
C1069 C 0.34731 0.46909 0.96841 0.0
C1070 C 0.3388 0.47581 0.9837 0.0
C1071 C 0.34187 0.50382 0.98754 0.0
H1072 H 0.3437 0.49672 0.01653 0.0
C1073 C 0.33625 0.53398 0.01977 0.0
C1074 C 0.34375 0.53391 0.02757 0.0
C1075 C 0.33563 0.52586 0.01272 0.0
C1076 C 0.34316 0.49881 0.00847 0.0
H1077 H 0.35783 0.47971 0.96096 0.0
H1078 H 0.35495 0.49373 0.97322 0.0
H1079 H 0.3444 0.48311 0.00354 0.0
H1080 H 0.3565 0.52536 0.03413 0.0
H1081 H 0.35539 0.51111 0.02184 0.0
H1082 H 0.34086 0.51954 0.99246 0.0
C1083 C 0.35072 0.48659 0.97419 0.0
C1084 C 0.34346 0.49102 0.00103 0.0
C1085 C 0.35241 0.47857 0.96721 0.0
C1086 C 0.35058 0.52554 0.02825 0.0
C1087 C 0.34991 0.51738 0.02125 0.0
C1088 C 0.34148 0.5116 0.99497 0.0
C1089 C 0.34402 0.48524 0.9826 0.0
C1090 C 0.34294 0.49345 0.99049 0.0
C1091 C 0.34249 0.51751 0.01335 0.0
C1092 C 0.34225 0.50918 0.00551 0.0
H1093 H 0.33666 0.46049 0.97798 0.0
H1094 H 0.33359 0.47456 0.9901 0.0
H1095 H 0.34138 0.50591 0.97947 0.0
H1096 H 0.33112 0.54049 0.01885 0.0
H1097 H 0.32983 0.52616 0.00672 0.0
C1098 C 0.46957 0.35829 0.02677 0.0
C1099 C 0.4656 0.3494 0.03154 0.0
C1100 C 0.47758 0.35757 0.01962 0.0
C1101 C 0.48903 0.34043 0.00081 0.0
H1102 H 0.51284 0.35837 0.00291 0.0
C1103 C 0.52327 0.33801 0.97218 0.0
C1104 C 0.52841 0.34721 0.96969 0.0
C1105 C 0.51571 0.33786 0.97988 0.0
C1106 C 0.50618 0.35341 0.0021 0.0
H1107 H 0.46762 0.3329 0.03316 0.0
H1108 H 0.48123 0.33156 0.02021 0.0
H1109 H 0.49962 0.35889 0.01622 0.0
H1110 H 0.52914 0.36361 0.97287 0.0
H1111 H 0.5157 0.36346 0.98587 0.0
H1112 H 0.49533 0.33522 0.98649 0.0
C1113 C 0.47797 0.33906 0.02193 0.0
C1114 C 0.49865 0.35366 0.00978 0.0
C1115 C 0.47006 0.3398 0.02922 0.0
C1116 C 0.52544 0.35634 0.97469 0.0
C1117 C 0.5178 0.35623 0.98226 0.0
C1118 C 0.49649 0.34028 0.99302 0.0
C1119 C 0.48176 0.34794 0.01704 0.0
C1120 C 0.48999 0.34723 0.00917 0.0
C1121 C 0.51297 0.34695 0.98512 0.0
C1122 C 0.50513 0.34683 0.99352 0.0
H1123 H 0.46635 0.36582 0.0284 0.0
H1124 H 0.48035 0.36453 0.01594 0.0
H1125 H 0.48236 0.33546 0.00013 0.0
H1126 H 0.52495 0.33094 0.96815 0.0
H1127 H 0.51215 0.33056 0.98182 0.0
C1128 C 0.03029 0.66257 0.47206 0.0
C1129 C 0.03256 0.65278 0.46799 0.0
C1130 C 0.02365 0.66359 0.48051 0.0
C1131 C 0.01378 0.65003 0.50299 0.0
H1132 H 0.9887 0.66595 0.49966 0.0
C1133 C 0.9795 0.64434 0.53015 0.0
C1134 C 0.97331 0.6528 0.53282 0.0
C1135 C 0.98717 0.64528 0.52267 0.0
C1136 C 0.99575 0.66164 0.50083 0.0
H1137 H 0.03008 0.63635 0.47004 0.0
H1138 H 0.01883 0.63815 0.48495 0.0
H1139 H 0.00176 0.66616 0.4861 0.0
H1140 H 0.96989 0.66874 0.52914 0.0
H1141 H 0.98367 0.6706 0.51654 0.0
H1142 H 0.00795 0.64557 0.51771 0.0
C1143 C 0.02202 0.64503 0.48145 0.0
C1144 C 0.0032 0.66175 0.49304 0.0
C1145 C 0.02847 0.64403 0.47291 0.0
C1146 C 0.97481 0.6622 0.52765 0.0
C1147 C 0.98259 0.66319 0.52023 0.0
C1148 C 0.00643 0.65005 0.51084 0.0
C1149 C 0.01943 0.65482 0.48523 0.0
C1150 C 0.01216 0.65575 0.49396 0.0
C1151 C 0.98892 0.65475 0.51769 0.0
C1152 C 0.99718 0.65563 0.50976 0.0
H1153 H 0.03373 0.66944 0.4689 0.0
H1154 H 0.0219 0.67122 0.48343 0.0
H1155 H 0.02069 0.64544 0.50391 0.0
H1156 H 0.97849 0.63694 0.53389 0.0
H1157 H 0.99164 0.63851 0.52073 0.0
C1158 C 0.02575 0.3588 0.52663 0.0
C1159 C 0.03026 0.34994 0.53095 0.0
C1160 C 0.01896 0.35801 0.51833 0.0
C1161 C 0.00035 0.34102 0.50648 0.0
H1162 H 0.00355 0.35867 0.48257 0.0
C1163 C 0.97222 0.33952 0.47171 0.0
C1164 C 0.97012 0.34883 0.46661 0.0
C1165 C 0.97982 0.33904 0.47935 0.0
C1166 C 0.00243 0.35378 0.48924 0.0
H1167 H 0.03179 0.33338 0.52926 0.0
H1168 H 0.01943 0.33195 0.51512 0.0
H1169 H 0.01653 0.35894 0.49612 0.0
H1170 H 0.97388 0.36511 0.46602 0.0
H1171 H 0.98671 0.36442 0.4796 0.0
H1172 H 0.98604 0.33617 0.49988 0.0
C1173 C 0.02109 0.33948 0.51833 0.0
C1174 C 0.00993 0.35389 0.49696 0.0
C1175 C 0.02805 0.34029 0.52654 0.0
C1176 C 0.9754 0.35777 0.46969 0.0
C1177 C 0.98288 0.35734 0.47741 0.0
C1178 C 0.99274 0.34102 0.49883 0.0
C1179 C 0.01646 0.34834 0.5142 0.0
C1180 C 0.0089 0.3476 0.50569 0.0
C1181 C 0.98535 0.34794 0.48221 0.0
C1182 C 0.99363 0.3475 0.49016 0.0
H1183 H 0.02731 0.36637 0.52979 0.0
H1184 H 0.01546 0.36496 0.5153 0.0
H1185 H 0.99935 0.33616 0.51319 0.0
H1186 H 0.96795 0.3326 0.46993 0.0
H1187 H 0.98145 0.33167 0.48291 0.0
C1188 C 0.65621 0.02058 0.53181 0.0
C1189 C 0.6535 0.03081 0.52962 0.0
C1190 C 0.65814 0.01362 0.52382 0.0
C1191 C 0.65256 0.01017 0.4959 0.0
H1192 H 0.66948 0.98579 0.49951 0.0
C1193 C 0.65736 0.97964 0.46406 0.0
C1194 C 0.65371 0.96992 0.46713 0.0
C1195 C 0.65937 0.98727 0.47139 0.0
C1196 C 0.66478 0.99261 0.49841 0.0
H1197 H 0.65111 0.04199 0.51748 0.0
H1198 H 0.65508 0.03006 0.5035 0.0
H1199 H 0.66967 0.99928 0.51266 0.0
H1200 H 0.64964 0.96039 0.48021 0.0
H1201 H 0.65344 0.97369 0.4931 0.0
H1202 H 0.64785 0.00351 0.48155 0.0
C1203 C 0.65535 0.02722 0.51134 0.0
C1204 C 0.6648 0.00031 0.50596 0.0
C1205 C 0.65317 0.03411 0.51934 0.0
C1206 C 0.65251 0.96781 0.47767 0.0
C1207 C 0.65472 0.97538 0.48503 0.0
C1208 C 0.65273 0.00259 0.48827 0.0
C1209 C 0.65757 0.01679 0.51345 0.0
C1210 C 0.65851 0.00911 0.50492 0.0
C1211 C 0.65791 0.98524 0.48192 0.0
C1212 C 0.65868 0.99367 0.48955 0.0
H1213 H 0.65628 0.01779 0.53968 0.0
H1214 H 0.6596 0.00566 0.52582 0.0
H1215 H 0.64742 0.01666 0.49486 0.0
H1216 H 0.65811 0.98155 0.45597 0.0
H1217 H 0.66177 0.99484 0.46883 0.0
C1218 C 0.35847 0.97704 0.52741 0.0
C1219 C 0.34957 0.9718 0.53065 0.0
C1220 C 0.35797 0.98434 0.51953 0.0
C1221 C 0.34151 0.9936 0.49795 0.0
H1222 H 0.35911 0.01768 0.5001 0.0
C1223 C 0.33987 0.02838 0.46967 0.0
C1224 C 0.34945 0.03095 0.4653 0.0
C1225 C 0.3393 0.02146 0.47793 0.0
C1226 C 0.35416 0.01099 0.49941 0.0
H1227 H 0.33333 0.96951 0.52748 0.0
H1228 H 0.33229 0.9827 0.5142 0.0
H1229 H 0.35912 0.00493 0.51388 0.0
H1230 H 0.36598 0.02863 0.46653 0.0
H1231 H 0.36496 0.01681 0.48109 0.0
H1232 H 0.33646 -0.00013 0.4835 0.0
C1233 C 0.33968 0.98118 0.51774 0.0
C1234 C 0.35421 0.00363 0.50726 0.0
C1235 C 0.34022 0.97376 0.52556 0.0
C1236 C 0.35846 0.02679 0.46967 0.0
C1237 C 0.3579 0.02002 0.47801 0.0
C1238 C 0.34136 0.00106 0.49016 0.0
C1239 C 0.34854 0.98666 0.5147 0.0
C1240 C 0.34802 0.99474 0.50656 0.0
C1241 C 0.34831 0.0172 0.48214 0.0
C1242 C 0.34781 0.00973 0.49075 0.0
H1243 H 0.36584 0.97562 0.53107 0.0
H1244 H 0.36502 0.98816 0.51721 0.0
H1245 H 0.33673 0.98682 0.49707 0.0
H1246 H 0.33284 0.03184 0.46689 0.0
H1247 H 0.33182 0.01955 0.48112 0.0
C1248 C 0.04833 0.45378 0.2099 0.0
C1249 C 0.04538 0.46227 0.20386 0.0
C1250 C 0.04669 0.4538 0.22054 0.0
C1251 C 0.04217 0.47117 0.24262 0.0
H1252 H 0.03357 0.44591 0.25609 0.0
C1253 C 0.04446 0.46546 0.28665 0.0
C1254 C 0.03667 0.45972 0.29152 0.0
C1255 C 0.04473 0.46633 0.27593 0.0
C1256 C 0.03585 0.45306 0.25245 0.0
H1257 H 0.03838 0.47745 0.20425 0.0
H1258 H 0.03541 0.47744 0.22282 0.0
H1259 H 0.03539 0.4463 0.23742 0.0
H1260 H 0.02287 0.45064 0.28895 0.0
H1261 H 0.02326 0.45227 0.27022 0.0
H1262 H 0.0425 0.47796 0.25765 0.0
C1263 C 0.03911 0.47081 0.21935 0.0
C1264 C 0.03703 0.45325 0.24175 0.0
C1265 C 0.04077 0.4708 0.20869 0.0
C1266 C 0.02901 0.45507 0.28544 0.0
C1267 C 0.02927 0.45596 0.2747 0.0
C1268 C 0.04097 0.47098 0.25332 0.0
C1269 C 0.04203 0.4623 0.22539 0.0
C1270 C 0.04031 0.46227 0.23672 0.0
C1271 C 0.03721 0.46149 0.26981 0.0
C1272 C 0.03789 0.4619 0.25838 0.0
H1273 H 0.05194 0.4471 0.20643 0.0
H1274 H 0.04919 0.44719 0.22498 0.0
H1275 H 0.04478 0.47822 0.239 0.0
H1276 H 0.05049 0.46913 0.29111 0.0
H1277 H 0.05103 0.47054 0.27242 0.0
C1278 C 0.53968 0.029 0.28734 0.0
C1279 C 0.5442 0.03738 0.29253 0.0
C1280 C 0.5388 0.02906 0.27659 0.0
C1281 C 0.54993 0.04096 0.25334 0.0
H1282 H 0.52465 0.03195 0.24016 0.0
C1283 C 0.52969 0.04301 0.21078 0.0
C1284 C 0.53805 0.03996 0.20459 0.0
C1285 C 0.53026 0.04221 0.22151 0.0
C1286 C 0.53174 0.03453 0.24374 0.0
H1287 H 0.5513 0.05238 0.2905 0.0
H1288 H 0.54974 0.05248 0.27179 0.0
H1289 H 0.52599 0.03166 0.25895 0.0
H1290 H 0.55347 0.03349 0.20482 0.0
H1291 H 0.55443 0.03208 0.22352 0.0
H1292 H 0.55563 0.04398 0.23817 0.0
C1293 C 0.54697 0.04583 0.27602 0.0
C1294 C 0.53255 0.03426 0.25449 0.0
C1295 C 0.54781 0.04579 0.28674 0.0
C1296 C 0.54691 0.03595 0.20936 0.0
C1297 C 0.54749 0.03519 0.22008 0.0
C1298 C 0.54915 0.04117 0.24261 0.0
C1299 C 0.54246 0.03746 0.27082 0.0
C1300 C 0.54164 0.03752 0.2594 0.0
C1301 C 0.53921 0.03839 0.22628 0.0
C1302 C 0.54004 0.03799 0.23769 0.0
H1303 H 0.53682 0.0224 0.29157 0.0
H1304 H 0.53538 0.02246 0.27279 0.0
H1305 H 0.55707 0.04342 0.25689 0.0
H1306 H 0.52275 0.04613 0.20734 0.0
H1307 H 0.52378 0.04482 0.22609 0.0
C1308 C 0.94669 0.54487 0.2131 0.0
C1309 C 0.95107 0.53725 0.20676 0.0
C1310 C 0.94763 0.54429 0.22381 0.0
C1311 C 0.96354 0.53295 0.24437 0.0
H1312 H 0.9401 0.53973 0.26164 0.0
C1313 C 0.95038 0.53155 0.28991 0.0
C1314 C 0.95902 0.53612 0.29459 0.0
C1315 C 0.94954 0.53113 0.27919 0.0
C1316 C 0.94669 0.53773 0.25693 0.0
H1317 H 0.95986 0.52302 0.20672 0.0
H1318 H 0.96146 0.522 0.22545 0.0
H1319 H 0.93822 0.53989 0.24295 0.0
H1320 H 0.97365 0.54368 0.29164 0.0
H1321 H 0.97213 0.543 0.2729 0.0
H1322 H 0.97199 0.53073 0.25839 0.0
C1323 C 0.95737 0.52846 0.22211 0.0
C1324 C 0.94565 0.53793 0.24622 0.0
C1325 C 0.9564 0.52902 0.21138 0.0
C1326 C 0.96689 0.54011 0.28829 0.0
C1327 C 0.96605 0.53966 0.27755 0.0
C1328 C 0.9646 0.53279 0.2551 0.0
C1329 C 0.953 0.53609 0.22843 0.0
C1330 C 0.95407 0.53559 0.23982 0.0
C1331 C 0.95732 0.53526 0.27289 0.0
C1332 C 0.95619 0.53521 0.26149 0.0
H1333 H 0.94256 0.55133 0.2098 0.0
H1334 H 0.94429 0.55036 0.22846 0.0
H1335 H 0.97019 0.5312 0.23965 0.0
H1336 H 0.9442 0.52836 0.29453 0.0
H1337 H 0.94278 0.52756 0.27583 0.0
C1338 C 0.47299 0.95858 0.21081 0.0
C1339 C 0.46538 0.96388 0.20521 0.0
C1340 C 0.47332 0.95924 0.22156 0.0
C1341 C 0.46393 0.97461 0.24378 0.0
H1342 H 0.4684 0.94923 0.25892 0.0
C1343 C 0.455 0.97029 0.28725 0.0
C1344 C 0.46187 0.96442 0.29323 0.0
C1345 C 0.45616 0.97083 0.27655 0.0
C1346 C 0.46729 0.95642 0.25482 0.0
H1347 H 0.45229 0.97421 0.20651 0.0
H1348 H 0.45279 0.97524 0.22524 0.0
H1349 H 0.46918 0.9491 0.24018 0.0
H1350 H 0.47551 0.95475 0.29269 0.0
H1351 H 0.47754 0.95575 0.27405 0.0
H1352 H 0.46187 0.98188 0.25846 0.0
C1353 C 0.45858 0.97068 0.22133 0.0
C1354 C 0.46774 0.95635 0.24407 0.0
C1355 C 0.45826 0.97003 0.21058 0.0
C1356 C 0.47004 0.95929 0.28831 0.0
C1357 C 0.47119 0.95982 0.27762 0.0
C1358 C 0.46345 0.97468 0.25455 0.0
C1359 C 0.46605 0.96521 0.22695 0.0
C1360 C 0.46601 0.96543 0.23841 0.0
C1361 C 0.46419 0.9655 0.2716 0.0
C1362 C 0.46507 0.96557 0.26018 0.0
H1363 H 0.47863 0.95382 0.20691 0.0
H1364 H 0.47928 0.95505 0.22565 0.0
H1365 H 0.46271 0.98177 0.23966 0.0
H1366 H 0.44863 0.97434 0.2908 0.0
H1367 H 0.45058 0.97519 0.27212 0.0
C1368 C 0.03969 0.52974 0.7119 0.0
C1369 C 0.03335 0.53677 0.70664 0.0
C1370 C 0.03902 0.5287 0.72259 0.0
C1371 C 0.03071 0.54285 0.74577 0.0
H1372 H 0.03369 0.51622 0.75902 0.0
C1373 C 0.02734 0.53801 0.78984 0.0
C1374 C 0.0349 0.53187 0.79457 0.0
C1375 C 0.02632 0.53814 0.77911 0.0
C1376 C 0.03292 0.52371 0.75543 0.0
H1377 H 0.02115 0.54806 0.70847 0.0
H1378 H 0.0199 0.54616 0.72713 0.0
H1379 H 0.03329 0.51728 0.74024 0.0
H1380 H 0.04718 0.52087 0.79177 0.0
H1381 H 0.04543 0.52115 0.77305 0.0
H1382 H 0.03043 0.5493 0.76095 0.0
C1383 C 0.02551 0.54156 0.723 0.0
C1384 C 0.03269 0.52433 0.74468 0.0
C1385 C 0.02618 0.54261 0.71229 0.0
C1386 C 0.04127 0.52569 0.78836 0.0
C1387 C 0.04023 0.5258 0.77764 0.0
C1388 C 0.03091 0.54223 0.75652 0.0
C1389 C 0.03198 0.53466 0.72829 0.0
C1390 C 0.03167 0.53392 0.73972 0.0
C1391 C 0.03282 0.53211 0.77289 0.0
C1392 C 0.03211 0.53267 0.76147 0.0
H1393 H 0.0453 0.52513 0.70778 0.0
H1394 H 0.04422 0.52341 0.72643 0.0
H1395 H 0.03009 0.55038 0.74221 0.0
H1396 H 0.02227 0.54283 0.79439 0.0
H1397 H 0.02044 0.54298 0.77569 0.0
C1398 C 0.45055 0.0447 0.71062 0.0
C1399 C 0.45531 0.03702 0.70464 0.0
C1400 C 0.45139 0.04458 0.72134 0.0
C1401 C 0.46734 0.03466 0.7426 0.0
H1402 H 0.44317 0.04067 0.75913 0.0
C1403 C 0.45306 0.03344 0.78777 0.0
C1404 C 0.46126 0.03862 0.79259 0.0
C1405 C 0.45256 0.03278 0.77704 0.0
C1406 C 0.44997 0.0389 0.75462 0.0
H1407 H 0.4647 0.0232 0.70524 0.0
H1408 H 0.46612 0.02298 0.72402 0.0
H1409 H 0.44175 0.0403 0.7404 0.0
H1410 H 0.4755 0.04697 0.78993 0.0
H1411 H 0.4746 0.04584 0.77116 0.0
H1412 H 0.47553 0.0332 0.75686 0.0
C1413 C 0.46181 0.02913 0.72037 0.0
C1414 C 0.44918 0.0388 0.74389 0.0
C1415 C 0.46094 0.02923 0.70963 0.0
C1416 C 0.46907 0.04294 0.78645 0.0
C1417 C 0.46859 0.04224 0.7757 0.0
C1418 C 0.46814 0.03481 0.75334 0.0
C1419 C 0.45702 0.0368 0.72634 0.0
C1420 C 0.45786 0.03671 0.73776 0.0
C1421 C 0.46027 0.03725 0.77088 0.0
C1422 C 0.45946 0.03694 0.75947 0.0
H1423 H 0.44618 0.05084 0.70702 0.0
H1424 H 0.44772 0.05067 0.72572 0.0
H1425 H 0.47418 0.03311 0.73807 0.0
H1426 H 0.44693 0.02998 0.79227 0.0
H1427 H 0.44613 0.02876 0.77355 0.0
C1428 C 0.9565 0.4727 0.78971 0.0
C1429 C 0.9628 0.46635 0.79583 0.0
C1430 C 0.95776 0.47295 0.77901 0.0
C1431 C 0.96754 0.45716 0.75764 0.0
H1432 H 0.96536 0.48249 0.74192 0.0
C1433 C 0.97331 0.45773 0.71361 0.0
C1434 C 0.96625 0.46362 0.70789 0.0
C1435 C 0.97374 0.45861 0.72434 0.0
C1436 C 0.96591 0.47534 0.7462 0.0
H1437 H 0.97556 0.45553 0.79554 0.0
H1438 H 0.97776 0.45602 0.7769 0.0
H1439 H 0.96454 0.48309 0.76072 0.0
H1440 H 0.95425 0.47522 0.70893 0.0
H1441 H 0.95489 0.47665 0.72763 0.0
H1442 H 0.96872 0.44937 0.74317 0.0
C1443 C 0.97177 0.4607 0.78036 0.0
C1444 C 0.96544 0.47569 0.75696 0.0
C1445 C 0.97053 0.46046 0.79105 0.0
C1446 C 0.95979 0.47057 0.7131 0.0
C1447 C 0.9602 0.47144 0.72383 0.0
C1448 C 0.96798 0.4568 0.7469 0.0
C1449 C 0.96531 0.46685 0.77421 0.0
C1450 C 0.9662 0.46659 0.7628 0.0
C1451 C 0.96711 0.46539 0.72959 0.0
C1452 C 0.9671 0.46588 0.74104 0.0
H1453 H 0.95048 0.47734 0.79315 0.0
H1454 H 0.9526 0.4777 0.77447 0.0
H1455 H 0.96798 0.44999 0.76191 0.0
H1456 H 0.97845 0.45234 0.70983 0.0
H1457 H 0.97926 0.45396 0.72853 0.0
C1458 C 0.53041 0.95748 0.7854 0.0
C1459 C 0.53143 0.96608 0.79191 0.0
C1460 C 0.53042 0.95868 0.7747 0.0
C1461 C 0.53915 0.97647 0.75438 0.0
H1462 H 0.52152 0.95979 0.73693 0.0
C1463 C 0.54621 0.97157 0.71074 0.0
C1464 C 0.5376 0.97112 0.70418 0.0
C1465 C 0.54494 0.97178 0.72143 0.0
C1466 C 0.52642 0.96459 0.74169 0.0
H1467 H 0.533 0.98273 0.79226 0.0
H1468 H 0.53292 0.98483 0.77358 0.0
H1469 H 0.51986 0.95865 0.75561 0.0
H1470 H 0.52088 0.97083 0.70372 0.0
H1471 H 0.51868 0.9713 0.72239 0.0
H1472 H 0.54566 0.98246 0.74045 0.0
C1473 C 0.53226 0.97714 0.77676 0.0
C1474 C 0.52555 0.96385 0.7524 0.0
C1475 C 0.53225 0.97593 0.78747 0.0
C1476 C 0.52768 0.97112 0.70856 0.0
C1477 C 0.52642 0.97133 0.71925 0.0
C1478 C 0.54002 0.97721 0.74367 0.0
C1479 C 0.53144 0.96851 0.77025 0.0
C1480 C 0.53197 0.96971 0.75887 0.0
C1481 C 0.53504 0.97156 0.72582 0.0
C1482 C 0.53373 0.97121 0.7372 0.0
H1483 H 0.52978 0.94978 0.78856 0.0
H1484 H 0.52989 0.95187 0.7699 0.0
H1485 H 0.54428 0.98102 0.75914 0.0
H1486 H 0.55396 0.97157 0.70763 0.0
H1487 H 0.55175 0.97183 0.72627 0.0
C1488 C 0.28959 0.02518 0.45246 0.0
C1489 C 0.29503 0.03149 0.45939 0.0
C1490 C 0.27885 0.02451 0.45294 0.0
C1491 C 0.25643 0.02982 0.46991 0.0
H1492 H 0.24139 0.03114 0.44412 0.0
C1493 C 0.21306 0.03954 0.4677 0.0
C1494 C 0.20702 0.03419 0.46047 0.0
C1495 C 0.22376 0.03827 0.46791 0.0
C1496 C 0.24546 0.03061 0.45139 0.0
H1497 H 0.29345 0.04189 0.4724 0.0
H1498 H 0.27474 0.04082 0.47315 0.0
H1499 H 0.26015 0.03052 0.44389 0.0
H1500 H 0.20747 0.02312 0.44794 0.0
H1501 H 0.22613 0.02086 0.44836 0.0
H1502 H 0.24173 0.03009 0.4774 0.0
C1503 C 0.27877 0.03628 0.46742 0.0
C1504 C 0.25622 0.03025 0.45126 0.0
C1505 C 0.28951 0.03694 0.46695 0.0
C1506 C 0.2119 0.02739 0.45358 0.0
C1507 C 0.2226 0.02614 0.45378 0.0
C1508 C 0.24567 0.0302 0.47004 0.0
C1509 C 0.2733 0.03014 0.46036 0.0
C1510 C 0.26184 0.02994 0.46052 0.0
C1511 C 0.22865 0.03162 0.46089 0.0
C1512 C 0.24007 0.03069 0.46078 0.0
H1513 H 0.29362 0.02084 0.44657 0.0
H1514 H 0.27488 0.0196 0.44749 0.0
H1515 H 0.26052 0.02942 0.47718 0.0
H1516 H 0.20955 0.04484 0.47311 0.0
H1517 H 0.22821 0.04269 0.47341 0.0
C1518 C 0.95218 0.21155 0.45366 0.0
C1519 C 0.95581 0.20536 0.46178 0.0
C1520 C 0.95324 0.22225 0.45405 0.0
C1521 C 0.95745 0.24396 0.47197 0.0
H1522 H 0.96506 0.25847 0.44696 0.0
C1523 C 0.95438 0.28818 0.46785 0.0
C1524 C 0.96204 0.29332 0.46216 0.0
C1525 C 0.95419 0.27742 0.46831 0.0
C1526 C 0.96304 0.25454 0.45404 0.0
H1527 H 0.96332 0.20557 0.47672 0.0
H1528 H 0.96525 0.22427 0.47735 0.0
H1529 H 0.96368 0.23976 0.44677 0.0
H1530 H 0.9757 0.29119 0.45276 0.0
H1531 H 0.97545 0.27242 0.45368 0.0
H1532 H 0.95695 0.25875 0.47927 0.0
C1533 C 0.96149 0.22084 0.47074 0.0
C1534 C 0.96212 0.24382 0.4539 0.0
C1535 C 0.96042 0.21012 0.47035 0.0
C1536 C 0.96965 0.28747 0.45715 0.0
C1537 C 0.96948 0.27671 0.45763 0.0
C1538 C 0.95838 0.2547 0.47211 0.0
C1539 C 0.95796 0.22703 0.46256 0.0
C1540 C 0.95923 0.2384 0.46284 0.0
C1541 C 0.96168 0.27156 0.46312 0.0
C1542 C 0.96112 0.26011 0.46313 0.0
H1543 H 0.94854 0.20814 0.44697 0.0
H1544 H 0.95028 0.2268 0.44771 0.0
H1545 H 0.95514 0.24003 0.47897 0.0
H1546 H 0.94838 0.29245 0.47179 0.0
H1547 H 0.94801 0.27371 0.4725 0.0
C1548 C 0.70843 0.97313 0.44862 0.0
C1549 C 0.70291 0.96781 0.45628 0.0
C1550 C 0.7192 0.97316 0.44865 0.0
C1551 C 0.74193 0.96784 0.46522 0.0
H1552 H 0.75582 0.96363 0.43909 0.0
C1553 C 0.78636 0.96731 0.4618 0.0
C1554 C 0.79062 0.95967 0.4554 0.0
C1555 C 0.77574 0.96913 0.46182 0.0
C1556 C 0.75206 0.96476 0.44646 0.0
H1557 H 0.7044 0.95851 0.4701 0.0
H1558 H 0.72315 0.95842 0.47007 0.0
H1559 H 0.73713 0.96531 0.43949 0.0
H1560 H 0.78706 0.94796 0.444 0.0
H1561 H 0.76855 0.95102 0.44416 0.0
H1562 H 0.75683 0.96692 0.47222 0.0
C1563 C 0.71917 0.9627 0.46411 0.0
C1564 C 0.74135 0.96586 0.44667 0.0
C1565 C 0.70841 0.9627 0.46409 0.0
C1566 C 0.78404 0.95393 0.449 0.0
C1567 C 0.77342 0.95573 0.44904 0.0
C1568 C 0.75264 0.96673 0.46501 0.0
C1569 C 0.7247 0.96784 0.45634 0.0
C1570 C 0.73614 0.96731 0.45607 0.0
C1571 C 0.76914 0.96334 0.45546 0.0
C1572 C 0.75782 0.96506 0.45563 0.0
H1573 H 0.70443 0.9772 0.44252 0.0
H1574 H 0.72323 0.97732 0.44264 0.0
H1575 H 0.73817 0.96907 0.47257 0.0
H1576 H 0.79122 0.9719 0.46679 0.0
H1577 H 0.7727 0.97512 0.46677 0.0
C1578 C 0.03944 0.78986 0.46889 0.0
C1579 C 0.04668 0.79442 0.46225 0.0
C1580 C 0.03841 0.77913 0.46932 0.0
C1581 C 0.05225 0.75499 0.46347 0.0
H1582 H 0.02496 0.74278 0.46361 0.0
C1583 C 0.03246 0.71291 0.45575 0.0
C1584 C 0.03908 0.70661 0.46158 0.0
C1585 C 0.03307 0.72364 0.45649 0.0
C1586 C 0.03263 0.74608 0.46354 0.0
H1587 H 0.05858 0.7913 0.45092 0.0
H1588 H 0.05677 0.77264 0.45166 0.0
H1589 H 0.02679 0.76152 0.46354 0.0
H1590 H 0.05135 0.70665 0.47295 0.0
H1591 H 0.05237 0.72536 0.47426 0.0
H1592 H 0.0581 0.73957 0.46324 0.0
C1593 C 0.05194 0.77733 0.4566 0.0
C1594 C 0.03368 0.7568 0.4636 0.0
C1595 C 0.05294 0.78804 0.45613 0.0
C1596 C 0.04617 0.71127 0.46831 0.0
C1597 C 0.0468 0.722 0.46903 0.0
C1598 C 0.05121 0.74427 0.46344 0.0
C1599 C 0.04465 0.77276 0.46317 0.0
C1600 C 0.04351 0.76137 0.46349 0.0
C1601 C 0.04033 0.7283 0.46305 0.0
C1602 C 0.04139 0.7397 0.46342 0.0
H1603 H 0.0345 0.79456 0.47371 0.0
H1604 H 0.0328 0.77583 0.47455 0.0
H1605 H 0.05993 0.75827 0.46348 0.0
H1606 H 0.02691 0.70956 0.45049 0.0
H1607 H 0.02805 0.72829 0.45171 0.0
C1608 C 0.20999 0.96804 0.54128 0.0
C1609 C 0.206 0.95839 0.53839 0.0
C1610 C 0.22062 0.96946 0.54238 0.0
C1611 C 0.24455 0.95492 0.54708 0.0
H1612 H 0.25801 0.97986 0.53754 0.0
C1613 C 0.28687 0.96373 0.55695 0.0
C1614 C 0.29309 0.96741 0.54889 0.0
C1615 C 0.27618 0.96316 0.55579 0.0
C1616 C 0.25436 0.97283 0.5402 0.0
H1617 H 0.21006 0.94272 0.53416 0.0
H1618 H 0.22857 0.94523 0.53598 0.0
H1619 H 0.2395 0.97765 0.53486 0.0
H1620 H 0.29294 0.97365 0.53336 0.0
H1621 H 0.27428 0.97258 0.53132 0.0
H1622 H 0.2594 0.95 0.55224 0.0
C1623 C 0.22348 0.95166 0.53756 0.0
C1624 C 0.24375 0.97161 0.53876 0.0
C1625 C 0.21287 0.95024 0.53645 0.0
C1626 C 0.28837 0.97077 0.53973 0.0
C1627 C 0.27767 0.97021 0.53857 0.0
C1628 C 0.25513 0.95615 0.54854 0.0
C1629 C 0.22747 0.96126 0.54061 0.0
C1630 C 0.23873 0.96262 0.54215 0.0
C1631 C 0.27147 0.96628 0.54654 0.0
C1632 C 0.26017 0.96511 0.54511 0.0
H1633 H 0.20491 0.97447 0.54284 0.0
H1634 H 0.22344 0.97692 0.54483 0.0
H1635 H 0.24089 0.94796 0.5499 0.0
H1636 H 0.29025 0.96114 0.56413 0.0
H1637 H 0.27161 0.96026 0.56214 0.0
C1638 C 0.04351 0.21328 0.52795 0.0
C1639 C 0.03769 0.20777 0.53525 0.0
C1640 C 0.04254 0.22398 0.52713 0.0
C1641 C 0.02562 0.24595 0.53421 0.0
H1642 H 0.05078 0.26185 0.53147 0.0
C1643 C 0.02774 0.28976 0.54212 0.0
C1644 C 0.03395 0.29576 0.53558 0.0
C1645 C 0.02765 0.27902 0.54124 0.0
C1646 C 0.04366 0.25753 0.53209 0.0
H1647 H 0.02614 0.20917 0.54726 0.0
H1648 H 0.02456 0.22782 0.54593 0.0
H1649 H 0.05161 0.24311 0.53138 0.0
H1650 H 0.04474 0.29519 0.5228 0.0
H1651 H 0.04454 0.27648 0.52126 0.0
H1652 H 0.01772 0.26042 0.53511 0.0
C1653 C 0.02977 0.22387 0.54074 0.0
C1654 C 0.04414 0.24677 0.53203 0.0
C1655 C 0.03073 0.21317 0.54155 0.0
C1656 C 0.0399 0.2908 0.528 0.0
C1657 C 0.03983 0.28007 0.52715 0.0
C1658 C 0.02515 0.25671 0.5343 0.0
C1659 C 0.03574 0.22941 0.53359 0.0
C1660 C 0.03513 0.24085 0.53316 0.0
C1661 C 0.03379 0.27405 0.53382 0.0
C1662 C 0.03418 0.26262 0.53331 0.0
H1663 H 0.0489 0.20934 0.52294 0.0
H1664 H 0.04713 0.22799 0.52143 0.0
H1665 H 0.01852 0.24162 0.53494 0.0
H1666 H 0.02306 0.29334 0.54803 0.0
H1667 H 0.02298 0.2746 0.54657 0.0
C1668 C 0.78622 0.02836 0.55362 0.0
C1669 C 0.79027 0.03335 0.54488 0.0
C1670 C 0.77559 0.02705 0.55474 0.0
C1671 C 0.75296 0.03195 0.55821 0.0
H1672 H 0.73552 0.02519 0.53489 0.0
C1673 C 0.70907 0.03863 0.55839 0.0
C1674 C 0.70272 0.0313 0.55357 0.0
C1675 C 0.71978 0.03788 0.55772 0.0
C1676 C 0.74029 0.02697 0.54151 0.0
H1677 H 0.78632 0.04067 0.53037 0.0
H1678 H 0.76778 0.03845 0.53237 0.0
H1679 H 0.75421 0.02542 0.53278 0.0
H1680 H 0.70267 0.01727 0.54445 0.0
H1681 H 0.72141 0.01593 0.54336 0.0
H1682 H 0.73905 0.03349 0.56695 0.0
C1683 C 0.77283 0.03547 0.53831 0.0
C1684 C 0.75099 0.02721 0.54027 0.0
C1685 C 0.78346 0.03679 0.53719 0.0
C1686 C 0.70734 0.02307 0.54823 0.0
C1687 C 0.71807 0.02233 0.54755 0.0
C1688 C 0.74226 0.03173 0.55944 0.0
C1689 C 0.76876 0.03067 0.54714 0.0
C1690 C 0.75744 0.02981 0.54858 0.0
C1691 C 0.72441 0.02978 0.55222 0.0
C1692 C 0.7358 0.02935 0.55108 0.0
H1693 H 0.79126 0.02558 0.55966 0.0
H1694 H 0.77271 0.02321 0.56157 0.0
H1695 H 0.7577 0.03407 0.56475 0.0
H1696 H 0.70577 0.04507 0.56255 0.0
H1697 H 0.72444 0.04382 0.5613 0.0
C1698 C 0.95788 0.79086 0.5298 0.0
C1699 C 0.95284 0.79572 0.53808 0.0
C1700 C 0.95867 0.78012 0.52943 0.0
C1701 C 0.9468 0.75639 0.53966 0.0
H1702 H 0.97269 0.74362 0.53191 0.0
C1703 C 0.96733 0.71397 0.54189 0.0
C1704 C 0.95924 0.70776 0.53823 0.0
C1705 C 0.96667 0.72472 0.54131 0.0
C1706 C 0.96542 0.74708 0.53413 0.0
H1707 H 0.94467 0.79309 0.55244 0.0
H1708 H 0.94609 0.77439 0.55179 0.0
H1709 H 0.97125 0.7624 0.53212 0.0
H1710 H 0.94419 0.70797 0.53092 0.0
H1711 H 0.94308 0.72669 0.52988 0.0
H1712 H 0.94102 0.74111 0.54188 0.0
C1713 C 0.94934 0.77887 0.54554 0.0
C1714 C 0.96457 0.75782 0.53414 0.0
C1715 C 0.94858 0.7896 0.54593 0.0
C1716 C 0.95055 0.71252 0.53385 0.0
C1717 C 0.94988 0.72326 0.5333 0.0
C1718 C 0.94764 0.74566 0.53961 0.0
C1719 C 0.95441 0.77401 0.5373 0.0
C1720 C 0.95526 0.7626 0.53697 0.0
C1721 C 0.9579 0.72948 0.5371 0.0
C1722 C 0.95698 0.74088 0.53689 0.0
H1723 H 0.96124 0.79535 0.52362 0.0
H1724 H 0.96253 0.77659 0.52292 0.0
H1725 H 0.93949 0.75983 0.54177 0.0
H1726 H 0.97413 0.71055 0.54531 0.0
H1727 H 0.97293 0.7293 0.54439 0.0
C1728 C 0.47341 0.21329 0.0402 0.0
C1729 C 0.4656 0.20769 0.03521 0.0
C1730 C 0.47392 0.22401 0.03924 0.0
C1731 C 0.46442 0.24604 0.02361 0.0
H1732 H 0.46963 0.26161 0.04858 0.0
C1733 C 0.45552 0.28954 0.0276 0.0
C1734 C 0.46253 0.29562 0.03318 0.0
C1735 C 0.45673 0.27884 0.02712 0.0
C1736 C 0.46831 0.25738 0.0415 0.0
H1737 H 0.45233 0.20894 0.02511 0.0
H1738 H 0.45312 0.22762 0.02358 0.0
H1739 H 0.47032 0.24287 0.04904 0.0
H1740 H 0.47651 0.29526 0.04238 0.0
H1741 H 0.47863 0.27663 0.04149 0.0
H1742 H 0.46221 0.2606 0.01614 0.0
C1743 C 0.45894 0.22373 0.02812 0.0
C1744 C 0.46872 0.24663 0.04176 0.0
C1745 C 0.45845 0.21302 0.02905 0.0
C1746 C 0.47092 0.2908 0.03806 0.0
C1747 C 0.47212 0.28011 0.0376 0.0
C1748 C 0.46399 0.2568 0.02336 0.0
C1749 C 0.46661 0.22937 0.0333 0.0
C1750 C 0.4667 0.24082 0.03284 0.0
C1751 C 0.46497 0.274 0.03223 0.0
C1752 C 0.46586 0.26259 0.03232 0.0
H1753 H 0.47908 0.20942 0.04495 0.0
H1754 H 0.48002 0.22811 0.0432 0.0
H1755 H 0.46297 0.2418 0.01656 0.0
H1756 H 0.44897 0.29301 0.02375 0.0
H1757 H 0.45103 0.27434 0.023 0.0
C1758 C 0.45958 0.78771 0.96884 0.0
C1759 C 0.46632 0.79306 0.96225 0.0
C1760 C 0.46019 0.777 0.96978 0.0
C1761 C 0.46933 0.75403 0.95579 0.0
H1762 H 0.46468 0.74034 0.98196 0.0
C1763 C 0.47239 0.70991 0.96001 0.0
C1764 C 0.46443 0.70507 0.96553 0.0
C1765 C 0.47345 0.72063 0.96019 0.0
C1766 C 0.46593 0.74406 0.97459 0.0
H1767 H 0.47918 0.79136 0.9517 0.0
H1768 H 0.48032 0.77268 0.95343 0.0
H1769 H 0.46515 0.75914 0.98124 0.0
H1770 H 0.45148 0.70767 0.97579 0.0
H1771 H 0.4533 0.72638 0.97606 0.0
H1772 H 0.47003 0.73896 0.94913 0.0
C1773 C 0.47445 0.77676 0.95774 0.0
C1774 C 0.46619 0.75482 0.97417 0.0
C1775 C 0.47383 0.78747 0.95679 0.0
C1776 C 0.4577 0.71116 0.97145 0.0
C1777 C 0.45877 0.72188 0.97165 0.0
C1778 C 0.4691 0.74327 0.95622 0.0
C1779 C 0.46756 0.77138 0.96417 0.0
C1780 C 0.46781 0.75994 0.96475 0.0
C1781 C 0.46658 0.72674 0.96592 0.0
C1782 C 0.46731 0.73816 0.9656 0.0
H1783 H 0.4537 0.79177 0.97315 0.0
H1784 H 0.45468 0.7731 0.97469 0.0
H1785 H 0.47042 0.75771 0.94838 0.0
H1786 H 0.47774 0.70545 0.95541 0.0
H1787 H 0.47963 0.72413 0.95581 0.0
C1788 C 0.21176 0.47365 0.95188 0.0
C1789 C 0.20638 0.46916 0.96014 0.0
C1790 C 0.22253 0.47387 0.95184 0.0
C1791 C 0.24543 0.47111 0.96875 0.0
H1792 H 0.25932 0.46427 0.94319 0.0
C1793 C 0.28866 0.46053 0.96677 0.0
C1794 C 0.29438 0.46443 0.95843 0.0
C1795 C 0.27797 0.46181 0.96714 0.0
C1796 C 0.25557 0.46632 0.95036 0.0
H1797 H 0.2081 0.46155 0.97494 0.0
H1798 H 0.22686 0.46182 0.9748 0.0
H1799 H 0.24059 0.46536 0.94355 0.0
H1800 H 0.29337 0.47287 0.94403 0.0
H1801 H 0.27473 0.47512 0.9447 0.0
H1802 H 0.26044 0.47192 0.97557 0.0
C1803 C 0.22277 0.46529 0.96841 0.0
C1804 C 0.24482 0.46696 0.95057 0.0
C1805 C 0.212 0.46508 0.96846 0.0
C1806 C 0.28919 0.46974 0.95054 0.0
C1807 C 0.2785 0.47098 0.95089 0.0
C1808 C 0.25618 0.47044 0.96854 0.0
C1809 C 0.22817 0.46959 0.96006 0.0
C1810 C 0.23962 0.46932 0.95978 0.0
C1811 C 0.27276 0.46698 0.95916 0.0
C1812 C 0.26136 0.46799 0.95935 0.0
H1813 H 0.20766 0.4769 0.94537 0.0
H1814 H 0.22645 0.47738 0.94536 0.0
H1815 H 0.24167 0.47309 0.97594 0.0
H1816 H 0.29242 0.4564 0.97298 0.0
H1817 H 0.27375 0.45854 0.97356 0.0
C1818 C 0.53632 0.2855 0.96979 0.0
C1819 C 0.54167 0.29019 0.96161 0.0
C1820 C 0.53508 0.2748 0.97009 0.0
C1821 C 0.53574 0.25169 0.95337 0.0
H1822 H 0.53892 0.23693 0.97916 0.0
C1823 C 0.52855 0.20792 0.95623 0.0
C1824 C 0.53578 0.20222 0.96194 0.0
C1825 C 0.52852 0.21868 0.95664 0.0
C1826 C 0.53805 0.24094 0.97189 0.0
H1827 H 0.55001 0.2873 0.94741 0.0
H1828 H 0.54798 0.26867 0.94801 0.0
H1829 H 0.54061 0.25566 0.9789 0.0
H1830 H 0.54852 0.20336 0.97271 0.0
H1831 H 0.54857 0.22211 0.9733 0.0
H1832 H 0.5335 0.23698 0.9463 0.0
C1833 C 0.54458 0.27326 0.9541 0.0
C1834 C 0.53891 0.25168 0.97176 0.0
C1835 C 0.54581 0.28394 0.95379 0.0
C1836 C 0.54284 0.20751 0.96823 0.0
C1837 C 0.54283 0.21827 0.96862 0.0
C1838 C 0.53489 0.24096 0.9535 0.0
C1839 C 0.53917 0.26855 0.96223 0.0
C1840 C 0.53785 0.25717 0.96248 0.0
C1841 C 0.53573 0.22399 0.96275 0.0
C1842 C 0.53612 0.23545 0.96274 0.0
H1843 H 0.53301 0.2901 0.97592 0.0
H1844 H 0.53078 0.27143 0.9764 0.0
H1845 H 0.53474 0.2557 0.94611 0.0
H1846 H 0.52297 0.20407 0.95136 0.0
H1847 H 0.52285 0.22285 0.95215 0.0
C1848 C 0.78861 0.52176 0.95394 0.0
C1849 C 0.79382 0.52824 0.96087 0.0
C1850 C 0.7779 0.52064 0.95449 0.0
C1851 C 0.75533 0.5251 0.97152 0.0
H1852 H 0.74028 0.52648 0.94574 0.0
C1853 C 0.71205 0.535 0.96921 0.0
C1854 C 0.70599 0.5298 0.96188 0.0
C1855 C 0.72271 0.53353 0.96952 0.0
C1856 C 0.74436 0.52592 0.953 0.0
H1857 H 0.79191 0.53843 0.974 0.0
H1858 H 0.77328 0.53659 0.97487 0.0
H1859 H 0.75904 0.52613 0.94551 0.0
H1860 H 0.70635 0.51876 0.94932 0.0
H1861 H 0.72497 0.51618 0.9499 0.0
H1862 H 0.74062 0.52512 0.979 0.0
C1863 C 0.77745 0.53226 0.96908 0.0
C1864 C 0.75512 0.52571 0.95287 0.0
C1865 C 0.78814 0.53337 0.96854 0.0
C1866 C 0.7108 0.52292 0.95503 0.0
C1867 C 0.72147 0.52147 0.95533 0.0
C1868 C 0.74456 0.52533 0.97165 0.0
C1869 C 0.77218 0.52598 0.96199 0.0
C1870 C 0.76074 0.52543 0.96214 0.0
C1871 C 0.72756 0.52685 0.9625 0.0
C1872 C 0.73896 0.52586 0.96239 0.0
H1873 H 0.79277 0.51765 0.94797 0.0
H1874 H 0.7741 0.51563 0.949 0.0
H1875 H 0.75943 0.52471 0.97879 0.0
H1876 H 0.70859 0.54035 0.9746 0.0
H1877 H 0.72719 0.53787 0.97507 0.0
C1878 C 0.54727 0.71219 0.04466 0.0
C1879 C 0.54385 0.70594 0.03651 0.0
C1880 C 0.54588 0.72286 0.04433 0.0
C1881 C 0.5411 0.74452 0.02651 0.0
H1882 H 0.53321 0.7587 0.05162 0.0
C1883 C 0.54349 0.78874 0.03102 0.0
C1884 C 0.5358 0.79372 0.0368 0.0
C1885 C 0.54379 0.77799 0.03042 0.0
C1886 C 0.53529 0.75486 0.04451 0.0
H1887 H 0.53635 0.70598 0.02156 0.0
H1888 H 0.53385 0.72463 0.02102 0.0
H1889 H 0.53495 0.74002 0.05168 0.0
H1890 H 0.52219 0.79132 0.04622 0.0
H1891 H 0.52264 0.77256 0.04506 0.0
H1892 H 0.54131 0.75937 0.01932 0.0
C1893 C 0.5377 0.72128 0.02763 0.0
C1894 C 0.53643 0.74416 0.04458 0.0
C1895 C 0.53909 0.71059 0.02796 0.0
C1896 C 0.52826 0.78772 0.04176 0.0
C1897 C 0.52855 0.77697 0.04114 0.0
C1898 C 0.53996 0.75524 0.02644 0.0
C1899 C 0.54103 0.72753 0.03584 0.0
C1900 C 0.53944 0.73887 0.03561 0.0
C1901 C 0.5364 0.77197 0.03557 0.0
C1902 C 0.53712 0.76054 0.03546 0.0
H1903 H 0.55101 0.70887 0.05135 0.0
H1904 H 0.5487 0.72746 0.0507 0.0
H1905 H 0.5435 0.74069 0.01949 0.0
H1906 H 0.54942 0.79312 0.02712 0.0
H1907 H 0.55001 0.77439 0.02617 0.0
C1908 C 0.28424 0.53265 0.03073 0.0
C1909 C 0.28968 0.53192 0.04007 0.0
C1910 C 0.27372 0.53035 0.03033 0.0
C1911 C 0.25259 0.51748 0.04476 0.0
H1912 H 0.2352 0.53624 0.02929 0.0
C1913 C 0.20858 0.52086 0.05074 0.0
C1914 C 0.20237 0.52265 0.04204 0.0
C1915 C 0.21931 0.52061 0.04983 0.0
C1916 C 0.23995 0.53082 0.03351 0.0
H1917 H 0.28837 0.52798 0.05628 0.0
H1918 H 0.27002 0.52415 0.05561 0.0
H1919 H 0.25382 0.53845 0.02893 0.0
H1920 H 0.20254 0.52509 0.02549 0.0
H1921 H 0.22126 0.5246 0.02393 0.0
H1922 H 0.23864 0.51003 0.04954 0.0
C1923 C 0.2739 0.52635 0.04856 0.0
C1924 C 0.25064 0.53208 0.0333 0.0
C1925 C 0.28442 0.52862 0.04895 0.0
C1926 C 0.2071 0.52377 0.03236 0.0
C1927 C 0.21783 0.52354 0.03146 0.0
C1928 C 0.24188 0.51624 0.04499 0.0
C1929 C 0.2684 0.52728 0.03926 0.0
C1930 C 0.25708 0.5255 0.039 0.0
C1931 C 0.22406 0.52216 0.04022 0.0
C1932 C 0.23545 0.52296 0.03945 0.0
H1933 H 0.28808 0.5351 0.02373 0.0
H1934 H 0.26976 0.531 0.02301 0.0
H1935 H 0.25734 0.51217 0.04911 0.0
H1936 H 0.20517 0.51995 0.05831 0.0
H1937 H 0.22389 0.5196 0.05674 0.0
C1938 C 0.71232 0.46117 0.02898 0.0
C1939 C 0.70631 0.46599 0.03659 0.0
C1940 C 0.723 0.46258 0.02873 0.0
C1941 C 0.7448 0.46942 0.04548 0.0
H1942 H 0.75957 0.47239 0.01967 0.0
C1943 C 0.78883 0.47552 0.04432 0.0
C1944 C 0.79428 0.46972 0.03698 0.0
C1945 C 0.77807 0.47606 0.04398 0.0
C1946 C 0.75556 0.47149 0.02694 0.0
H1947 H 0.70678 0.47625 0.04979 0.0
H1948 H 0.7254 0.47874 0.04932 0.0
H1949 H 0.74078 0.47151 0.01959 0.0
H1950 H 0.79272 0.46011 0.02338 0.0
H1951 H 0.77399 0.46093 0.02286 0.0
H1952 H 0.75956 0.46922 0.05282 0.0
C1953 C 0.72187 0.47378 0.04361 0.0
C1954 C 0.7448 0.47099 0.02689 0.0
C1955 C 0.71119 0.47239 0.04385 0.0
C1956 C 0.78876 0.46465 0.02915 0.0
C1957 C 0.77801 0.46518 0.02882 0.0
C1958 C 0.75556 0.4699 0.04553 0.0
C1959 C 0.7279 0.46882 0.0361 0.0
C1960 C 0.7393 0.46987 0.03616 0.0
C1961 C 0.77253 0.4708 0.03628 0.0
C1962 C 0.76107 0.47085 0.03625 0.0
H1963 H 0.70881 0.45619 0.02327 0.0
H1964 H 0.72744 0.45856 0.02291 0.0
H1965 H 0.74081 0.4684 0.05274 0.0
H1966 H 0.79285 0.47957 0.05042 0.0
H1967 H 0.77409 0.48058 0.04976 0.0
C1968 C 0.12702 0.53084 0.08206 0.0
C1969 C 0.12283 0.53457 0.07279 0.0
C1970 C 0.12179 0.52337 0.08781 0.0
C1971 C 0.09602 0.5111 0.09082 0.0
H1972 H 0.11165 0.48946 0.10429 0.0
C1973 C 0.07687 0.47447 0.10688 0.0
C1974 C 0.07941 0.47187 0.11709 0.0
C1975 C 0.08249 0.48199 0.1016 0.0
C1976 C 0.1072 0.4955 0.10061 0.0
H1977 H 0.10989 0.53337 0.06228 0.0
H1978 H 0.10094 0.52017 0.0721 0.0
H1979 H 0.12071 0.50304 0.09493 0.0
H1980 H 0.09005 0.47484 0.12964 0.0
H1981 H 0.09999 0.48788 0.1203 0.0
H1982 H 0.08251 0.50337 0.09631 0.0
C1983 C 0.10812 0.52318 0.07511 0.0
C1984 C 0.11238 0.50331 0.09529 0.0
C1985 C 0.11329 0.53072 0.06943 0.0
C1986 C 0.0879 0.47669 0.12178 0.0
C1987 C 0.09361 0.48412 0.11644 0.0
C1988 C 0.09086 0.50322 0.09603 0.0
C1989 C 0.11231 0.51938 0.08437 0.0
C1990 C 0.10685 0.5112 0.09029 0.0
C1991 C 0.09083 0.48696 0.10637 0.0
C1992 C 0.09639 0.49533 0.10094 0.0
H1993 H 0.13434 0.53369 0.08487 0.0
H1994 H 0.12517 0.52076 0.09499 0.0
H1995 H 0.09149 0.51715 0.08727 0.0
H1996 H 0.07037 0.47091 0.10305 0.0
H1997 H 0.08026 0.48396 0.0938 0.0
C1998 C 0.47438 0.13343 0.08655 0.0
C1999 C 0.46649 0.12798 0.08149 0.0
C2000 C 0.48172 0.1282 0.09245 0.0
C2001 C 0.49378 0.11561 0.10822 0.0
H2002 H 0.50408 0.09001 0.09674 0.0
C2003 C 0.52135 0.08825 0.13029 0.0
C2004 C 0.52903 0.0832 0.12456 0.0
C2005 C 0.51388 0.09424 0.12535 0.0
C2006 C 0.50137 0.0972 0.10001 0.0
H2007 H 0.45985 0.11283 0.07904 0.0
H2008 H 0.47254 0.10374 0.08948 0.0
H2009 H 0.49052 0.09935 0.08781 0.0
H2010 H 0.53514 0.08081 0.10918 0.0
H2011 H 0.52223 0.09138 0.10058 0.0
H2012 H 0.50484 0.11354 0.1203 0.0
C2013 C 0.47319 0.11203 0.08871 0.0
C2014 C 0.49347 0.10248 0.09497 0.0
C2015 C 0.46587 0.11725 0.08278 0.0
C2016 C 0.52929 0.08454 0.11382 0.0
C2017 C 0.52184 0.09054 0.10888 0.0
C2018 C 0.5017 0.11032 0.11327 0.0
C2019 C 0.48131 0.11741 0.09345 0.0
C2020 C 0.48957 0.11174 0.09901 0.0
C2021 C 0.51394 0.09532 0.11456 0.0
C2022 C 0.5056 0.10106 0.10921 0.0
H2023 H 0.47508 0.1417 0.08569 0.0
H2024 H 0.48792 0.13257 0.09593 0.0
H2025 H 0.4909 0.12269 0.11157 0.0
H2026 H 0.52093 0.08737 0.13859 0.0
H2027 H 0.50785 0.09774 0.12994 0.0
C2028 C 0.92405 0.52734 0.11286 0.0
C2029 C 0.92128 0.53057 0.12282 0.0
C2030 C 0.91862 0.51944 0.10797 0.0
C2031 C 0.89389 0.50648 0.10669 0.0
H2032 H 0.90945 0.4836 0.09538 0.0
C2033 C 0.87354 0.47214 0.08696 0.0
C2034 C 0.87829 0.46804 0.07814 0.0
C2035 C 0.87877 0.47918 0.09323 0.0
C2036 C 0.90498 0.48998 0.09837 0.0
H2037 H 0.91049 0.52824 0.13537 0.0
H2038 H 0.9008 0.51456 0.12666 0.0
H2039 H 0.91843 0.4974 0.10443 0.0
H2040 H 0.89229 0.46804 0.06901 0.0
H2041 H 0.90127 0.48053 0.07967 0.0
H2042 H 0.88048 0.49936 0.10029 0.0
C2043 C 0.90725 0.51811 0.12272 0.0
C2044 C 0.91013 0.49785 0.10359 0.0
C2045 C 0.9128 0.5259 0.1277 0.0
C2046 C 0.88844 0.47099 0.07581 0.0
C2047 C 0.89362 0.47813 0.08198 0.0
C2048 C 0.88873 0.49869 0.10131 0.0
C2049 C 0.91021 0.51472 0.11288 0.0
C2050 C 0.90465 0.5062 0.10773 0.0
C2051 C 0.88883 0.48238 0.09074 0.0
C2052 C 0.89422 0.49037 0.097 0.0
H2053 H 0.93056 0.53076 0.10891 0.0
H2054 H 0.92098 0.51702 0.10034 0.0
H2055 H 0.8895 0.51288 0.10976 0.0
H2056 H 0.86574 0.46996 0.08899 0.0
H2057 H 0.8749 0.48212 0.10001 0.0
C2058 C 0.47647 0.91373 0.13258 0.0
C2059 C 0.46845 0.91808 0.12674 0.0
C2060 C 0.48378 0.90733 0.12791 0.0
C2061 C 0.50172 0.9009 0.11411 0.0
H2062 H 0.49401 0.88013 0.09404 0.0
C2063 C 0.52997 0.88407 0.08414 0.0
C2064 C 0.52942 0.87345 0.08208 0.0
C2065 C 0.52277 0.88875 0.09064 0.0
C2066 C 0.49628 0.88583 0.0997 0.0
H2067 H 0.46159 0.91885 0.11151 0.0
H2068 H 0.4743 0.90763 0.10339 0.0
H2069 H 0.48061 0.88942 0.10346 0.0
H2070 H 0.52104 0.85937 0.08542 0.0
H2071 H 0.50844 0.86758 0.09674 0.0
H2072 H 0.5174 0.89743 0.11023 0.0
C2073 C 0.47493 0.90916 0.11157 0.0
C2074 C 0.48861 0.8912 0.10502 0.0
C2075 C 0.46769 0.91563 0.11622 0.0
C2076 C 0.52167 0.86757 0.08685 0.0
C2077 C 0.51442 0.87227 0.09328 0.0
C2078 C 0.50939 0.89559 0.10872 0.0
C2079 C 0.48314 0.90507 0.11734 0.0
C2080 C 0.49126 0.89886 0.11221 0.0
C2081 C 0.51483 0.88293 0.09515 0.0
C2082 C 0.50675 0.88807 0.10139 0.0
H2083 H 0.47727 0.91547 0.14071 0.0
H2084 H 0.48997 0.9042 0.13256 0.0
H2085 H 0.50399 0.90683 0.11954 0.0
H2086 H 0.53585 0.88882 0.08059 0.0
H2087 H 0.52323 0.897 0.09187 0.0
C2088 C 0.08816 0.52352 0.87582 0.0
C2089 C 0.0798 0.52883 0.88019 0.0
C2090 C 0.09406 0.51675 0.88179 0.0
C2091 C 0.09944 0.50914 0.90899 0.0
H2092 H 0.10823 0.48346 0.89646 0.0
C2093 C 0.11264 0.47403 0.93274 0.0
C2094 C 0.12187 0.46927 0.92966 0.0
C2095 C 0.10801 0.48151 0.92653 0.0
C2096 C 0.1059 0.49064 0.90002 0.0
H2097 H 0.07113 0.53129 0.89427 0.0
H2098 H 0.08118 0.51931 0.90457 0.0
H2099 H 0.09938 0.49635 0.88601 0.0
H2100 H 0.13337 0.46846 0.91755 0.0
H2101 H 0.12515 0.48143 0.9066 0.0
H2102 H 0.10569 0.50323 0.92308 0.0
C2103 C 0.08338 0.52052 0.89662 0.0
C2104 C 0.10087 0.49806 0.89404 0.0
C2105 C 0.07757 0.52737 0.89069 0.0
C2106 C 0.12627 0.472 0.92014 0.0
C2107 C 0.12156 0.47939 0.91386 0.0
C2108 C 0.10436 0.50168 0.91499 0.0
C2109 C 0.09166 0.51505 0.89223 0.0
C2110 C 0.0975 0.50738 0.89846 0.0
C2111 C 0.11244 0.48429 0.91706 0.0
C2112 C 0.10756 0.49233 0.91058 0.0
H2113 H 0.09011 0.52453 0.86777 0.0
H2114 H 0.10049 0.51282 0.87819 0.0
H2115 H 0.09717 0.5163 0.91262 0.0
H2116 H 0.10907 0.47211 0.94004 0.0
H2117 H 0.10093 0.48508 0.92912 0.0
C2118 C 0.5262 0.12418 0.91395 0.0
C2119 C 0.53022 0.11917 0.92268 0.0
C2120 C 0.51852 0.11948 0.90801 0.0
C2121 C 0.49739 0.10121 0.91001 0.0
H2122 H 0.49995 0.09793 0.88042 0.0
C2123 C 0.47003 0.07491 0.88715 0.0
C2124 C 0.46751 0.07751 0.87695 0.0
C2125 C 0.47734 0.08062 0.8926 0.0
C2126 C 0.499 0.09895 0.88865 0.0
H2127 H 0.52941 0.10529 0.93198 0.0
H2128 H 0.51588 0.09721 0.92171 0.0
H2129 H 0.51351 0.10676 0.89002 0.0
H2130 H 0.47043 0.08834 0.86456 0.0
H2131 H 0.48291 0.09857 0.8742 0.0
H2132 H 0.48283 0.09366 0.90872 0.0
C2133 C 0.51871 0.10473 0.91946 0.0
C2134 C 0.50681 0.10396 0.89414 0.0
C2135 C 0.5265 0.10934 0.92528 0.0
C2136 C 0.47226 0.08611 0.8724 0.0
C2137 C 0.47948 0.09193 0.8779 0.0
C2138 C 0.48952 0.09635 0.90452 0.0
C2139 C 0.51461 0.10979 0.91081 0.0
C2140 C 0.50614 0.10499 0.90488 0.0
C2141 C 0.48221 0.08918 0.88804 0.0
C2142 C 0.49028 0.095 0.89378 0.0
H2143 H 0.52893 0.13176 0.91175 0.0
H2144 H 0.51546 0.12354 0.90138 0.0
H2145 H 0.49663 0.10206 0.91828 0.0
H2146 H 0.46657 0.06827 0.89084 0.0
H2147 H 0.47936 0.07813 0.9003 0.0
C2148 C 0.86606 0.52349 0.91284 0.0
C2149 C 0.87183 0.53154 0.91723 0.0
C2150 C 0.87086 0.51602 0.90675 0.0
C2151 C 0.89419 0.51072 0.89142 0.0
H2152 H 0.8882 0.48207 0.89756 0.0
C2153 C 0.91183 0.47716 0.86807 0.0
C2154 C 0.91615 0.46916 0.87397 0.0
C2155 C 0.90565 0.48466 0.87272 0.0
C2156 C 0.88994 0.49004 0.89576 0.0
H2157 H 0.8871 0.53824 0.91842 0.0
H2158 H 0.89546 0.52522 0.90773 0.0
H2159 H 0.87894 0.49569 0.90669 0.0
H2160 H 0.91716 0.46261 0.88932 0.0
H2161 H 0.90634 0.47567 0.89742 0.0
H2162 H 0.90533 0.50506 0.88065 0.0
C2163 C 0.88722 0.52471 0.90899 0.0
C2164 C 0.88458 0.49783 0.90091 0.0
C2165 C 0.88244 0.53213 0.91516 0.0
C2166 C 0.91395 0.46867 0.88457 0.0
C2167 C 0.90771 0.47612 0.8892 0.0
C2168 C 0.89949 0.50293 0.88621 0.0
C2169 C 0.88151 0.5165 0.90484 0.0
C2170 C 0.88673 0.50825 0.89888 0.0
C2171 C 0.9036 0.48426 0.88335 0.0
C2172 C 0.8975 0.49251 0.88842 0.0
H2173 H 0.85786 0.52282 0.91429 0.0
H2174 H 0.86624 0.50983 0.90356 0.0
H2175 H 0.89595 0.51869 0.88965 0.0
H2176 H 0.91338 0.47774 0.85989 0.0
H2177 H 0.90251 0.49079 0.86801 0.0
C2178 C 0.52821 0.91086 0.87172 0.0
C2179 C 0.53232 0.91973 0.87636 0.0
C2180 C 0.52117 0.90466 0.87704 0.0
C2181 C 0.51038 0.89986 0.90331 0.0
H2182 H 0.4875 0.88821 0.88798 0.0
C2183 C 0.47313 0.8854 0.92262 0.0
C2184 C 0.46996 0.87538 0.91997 0.0
C2185 C 0.48097 0.89028 0.91711 0.0
C2186 C 0.4939 0.89136 0.89233 0.0
H2187 H 0.53233 0.92904 0.89024 0.0
H2188 H 0.51984 0.91851 0.89936 0.0
H2189 H 0.50099 0.89761 0.87884 0.0
H2190 H 0.47233 0.86274 0.90929 0.0
H2191 H 0.48591 0.87144 0.89946 0.0
H2192 H 0.50298 0.89394 0.91684 0.0
C2193 C 0.52223 0.9161 0.89174 0.0
C2194 C 0.50167 0.8967 0.88711 0.0
C2195 C 0.52937 0.9222 0.88648 0.0
C2196 C 0.47462 0.87045 0.91152 0.0
C2197 C 0.48236 0.87542 0.90588 0.0
C2198 C 0.50252 0.89468 0.90854 0.0
C2199 C 0.51797 0.90728 0.88707 0.0
C2200 C 0.50998 0.9011 0.89254 0.0
C2201 C 0.4857 0.88532 0.90873 0.0
C2202 C 0.49418 0.89045 0.9031 0.0
H2203 H 0.53039 0.90873 0.86394 0.0
H2204 H 0.51822 0.89783 0.87325 0.0
H2205 H 0.51675 0.90291 0.90775 0.0
H2206 H 0.46971 0.88938 0.92911 0.0
H2207 H 0.48335 0.89795 0.91938 0.0
C2208 C 0.11218 0.07844 0.47406 0.0
C2209 C 0.12217 0.08108 0.47087 0.0
C2210 C 0.10708 0.08432 0.48149 0.0
C2211 C 0.11199 0.1035 0.50222 0.0
H2212 H 0.08224 0.10625 0.50137 0.0
C2213 C 0.08799 0.12997 0.52941 0.0
C2214 C 0.07951 0.12516 0.53414 0.0
C2215 C 0.09356 0.12486 0.52171 0.0
C2216 C 0.09055 0.1055 0.50171 0.0
H2217 H 0.13457 0.09213 0.47273 0.0
H2218 H 0.12552 0.10264 0.48542 0.0
H2219 H 0.09112 0.09732 0.48745 0.0
H2220 H 0.07026 0.11123 0.53459 0.0
H2221 H 0.07988 0.10243 0.52102 0.0
H2222 H 0.11133 0.11196 0.51642 0.0
C2223 C 0.12172 0.09585 0.48242 0.0
C2224 C 0.09565 0.10034 0.49377 0.0
C2225 C 0.12688 0.08987 0.47509 0.0
C2226 C 0.07678 0.11512 0.53111 0.0
C2227 C 0.08223 0.11011 0.52331 0.0
C2228 C 0.10689 0.10881 0.51009 0.0
C2229 C 0.11179 0.09308 0.48581 0.0
C2230 C 0.10643 0.09914 0.49398 0.0
C2231 C 0.09062 0.11496 0.51849 0.0
C2232 C 0.09611 0.10973 0.50997 0.0
H2233 H 0.10838 0.07165 0.47102 0.0
H2234 H 0.09954 0.0818 0.48403 0.0
H2235 H 0.12027 0.1026 0.50276 0.0
H2236 H 0.09027 0.13769 0.53159 0.0
H2237 H 0.09999 0.12877 0.51808 0.0
C2238 C 0.92865 0.11112 0.46986 0.0
C2239 C 0.9264 0.12097 0.46595 0.0
C2240 C 0.92224 0.10658 0.47721 0.0
C2241 C 0.8962 0.1062 0.4876 0.0
H2242 H 0.90925 0.096 0.51248 0.0
C2243 C 0.87231 0.08956 0.52134 0.0
C2244 C 0.87641 0.08097 0.5265 0.0
C2245 C 0.87831 0.09506 0.51425 0.0
C2246 C 0.90547 0.09867 0.50554 0.0
H2247 H 0.91548 0.13362 0.4664 0.0
H2248 H 0.90413 0.12552 0.47913 0.0
H2249 H 0.91971 0.10403 0.49912 0.0
H2250 H 0.88999 0.0714 0.5283 0.0
H2251 H 0.9003 0.08071 0.51576 0.0
H2252 H 0.88201 0.10054 0.49379 0.0
C2253 C 0.91092 0.1214 0.47654 0.0
C2254 C 0.91148 0.10331 0.49791 0.0
C2255 C 0.91742 0.12603 0.46929 0.0
C2256 C 0.88663 0.07804 0.52451 0.0
C2257 C 0.89257 0.08343 0.51734 0.0
C2258 C 0.8902 0.10142 0.49517 0.0
C2259 C 0.91338 0.11172 0.48069 0.0
C2260 C 0.90691 0.10705 0.48885 0.0
C2261 C 0.88849 0.092 0.51208 0.0
C2262 C 0.89477 0.09752 0.50421 0.0
H2263 H 0.93552 0.10703 0.46746 0.0
H2264 H 0.92424 0.09905 0.48023 0.0
H2265 H 0.89251 0.10899 0.48064 0.0
H2266 H 0.86447 0.09204 0.52275 0.0
H2267 H 0.87495 0.10171 0.5105 0.0
C2268 C 0.88327 0.91459 0.4709 0.0
C2269 C 0.87264 0.91655 0.47143 0.0
C2270 C 0.88804 0.90828 0.47821 0.0
C2271 C 0.88531 0.89988 0.50491 0.0
H2272 H 0.90653 0.88011 0.49766 0.0
C2273 C 0.91579 0.88487 0.53362 0.0
C2274 C 0.91843 0.87438 0.53319 0.0
C2275 C 0.90908 0.88912 0.52635 0.0
C2276 C 0.90054 0.88552 0.4998 0.0
H2277 H 0.8586 0.91322 0.4799 0.0
H2278 H 0.86697 0.90226 0.49272 0.0
H2279 H 0.89691 0.88888 0.48404 0.0
H2280 H 0.9159 0.86005 0.52495 0.0
H2281 H 0.90423 0.86752 0.51219 0.0
H2282 H 0.88908 0.89667 0.52067 0.0
C2283 C 0.8716 0.90563 0.48666 0.0
C2284 C 0.8951 0.8906 0.49201 0.0
C2285 C 0.86682 0.91187 0.47928 0.0
C2286 C 0.91402 0.86816 0.52549 0.0
C2287 C 0.90738 0.87244 0.51815 0.0
C2288 C 0.89081 0.89487 0.5127 0.0
C2289 C 0.88228 0.90388 0.48626 0.0
C2290 C 0.88751 0.89791 0.49449 0.0
C2291 C 0.90495 0.88299 0.51844 0.0
C2292 C 0.89856 0.88773 0.51022 0.0
H2293 H 0.88797 0.91807 0.46494 0.0
H2294 H 0.8963 0.90714 0.47777 0.0
H2295 H 0.87956 0.90554 0.50705 0.0
H2296 H 0.91905 0.88986 0.53947 0.0
H2297 H 0.90742 0.8973 0.52671 0.0
C2298 C 0.11355 0.91499 0.52801 0.0
C2299 C 0.1242 0.91693 0.52776 0.0
C2300 C 0.10901 0.90848 0.52073 0.0
C2301 C 0.11258 0.89931 0.49439 0.0
H2302 H 0.09103 0.87985 0.50149 0.0
C2303 C 0.08438 0.86718 0.47376 0.0
C2304 C 0.08028 0.8732 0.46573 0.0
C2305 C 0.09078 0.87162 0.4812 0.0
C2306 C 0.09711 0.88517 0.4994 0.0
H2307 H 0.13849 0.91333 0.51985 0.0
H2308 H 0.13052 0.90199 0.5071 0.0
H2309 H 0.10024 0.88895 0.51517 0.0
H2310 H 0.07998 0.8885 0.45901 0.0
H2311 H 0.09121 0.89623 0.47196 0.0
H2312 H 0.10932 0.89567 0.47861 0.0
C2313 C 0.1257 0.90555 0.51291 0.0
C2314 C 0.10232 0.89044 0.50722 0.0
C2315 C 0.13026 0.912 0.52024 0.0
C2316 C 0.08301 0.88366 0.4651 0.0
C2317 C 0.08948 0.88808 0.47249 0.0
C2318 C 0.10731 0.89411 0.48657 0.0
C2319 C 0.11501 0.90383 0.51301 0.0
C2320 C 0.11003 0.89764 0.50479 0.0
C2321 C 0.0933 0.88214 0.48071 0.0
C2322 C 0.09944 0.88707 0.48899 0.0
H2323 H 0.10867 0.91866 0.5337 0.0
H2324 H 0.10074 0.90736 0.52095 0.0
H2325 H 0.11843 0.90488 0.49228 0.0
H2326 H 0.08243 0.85909 0.47446 0.0
H2327 H 0.0937 0.86685 0.4874 0.0
C2328 C 0.61253 0.02592 0.56855 0.0
C2329 C 0.62162 0.03099 0.57156 0.0
C2330 C 0.60842 0.01804 0.57462 0.0
C2331 C 0.60728 0.00802 0.60081 0.0
H2332 H 0.5997 0.98228 0.58764 0.0
C2333 C 0.5914 0.97375 0.62435 0.0
C2334 C 0.5833 0.9681 0.6199 0.0
C2335 C 0.5969 0.98094 0.61851 0.0
C2336 C 0.60165 0.98946 0.59143 0.0
H2337 H 0.63342 0.03191 0.58338 0.0
H2338 H 0.62606 0.01824 0.5941 0.0
H2339 H 0.60739 0.99605 0.57743 0.0
H2340 H 0.5747 0.96547 0.60581 0.0
H2341 H 0.58404 0.97819 0.59573 0.0
H2342 H 0.60122 0.00164 0.61474 0.0
C2343 C 0.62219 0.02035 0.587 0.0
C2344 C 0.60609 0.99732 0.58558 0.0
C2345 C 0.6264 0.02814 0.58086 0.0
C2346 C 0.58095 0.96965 0.60945 0.0
C2347 C 0.58636 0.97693 0.60365 0.0
C2348 C 0.6027 0.00021 0.60666 0.0
C2349 C 0.61323 0.01515 0.58388 0.0
C2350 C 0.60888 0.0067 0.5902 0.0
C2351 C 0.59436 0.98273 0.60811 0.0
C2352 C 0.59975 0.99084 0.60202 0.0
H2353 H 0.60868 0.02792 0.56142 0.0
H2354 H 0.60144 0.01422 0.57209 0.0
H2355 H 0.60929 0.01522 0.60454 0.0
H2356 H 0.59343 0.97267 0.63238 0.0
H2357 H 0.60313 0.98512 0.62216 0.0
C2358 C 0.02549 0.5862 0.62856 0.0
C2359 C 0.03007 0.57765 0.62372 0.0
C2360 C 0.01779 0.59183 0.62353 0.0
C2361 C 0.99768 0.58923 0.60413 0.0
H2362 H 0.99945 0.61893 0.6013 0.0
C2363 C 0.97135 0.61164 0.57637 0.0
C2364 C 0.96843 0.62176 0.57888 0.0
C2365 C 0.97836 0.60629 0.58253 0.0
C2366 C 0.99871 0.61066 0.60218 0.0
H2367 H 0.03021 0.56832 0.60984 0.0
H2368 H 0.01664 0.57806 0.60117 0.0
H2369 H 0.01279 0.60966 0.61079 0.0
H2370 H 0.97026 0.63406 0.59003 0.0
H2371 H 0.98221 0.62458 0.60102 0.0
H2372 H 0.98355 0.59015 0.59574 0.0
C2373 C 0.01904 0.58041 0.60882 0.0
C2374 C 0.00639 0.60537 0.60757 0.0
C2375 C 0.02685 0.57488 0.61376 0.0
C2376 C 0.97242 0.62629 0.58786 0.0
C2377 C 0.97934 0.62088 0.59412 0.0
C2378 C 0.98992 0.59453 0.59888 0.0
C2379 C 0.01442 0.5889 0.61367 0.0
C2380 C 0.00602 0.59459 0.60845 0.0
C2381 C 0.98252 0.61086 0.59145 0.0
C2382 C 0.9904 0.6053 0.59769 0.0
H2383 H 0.02782 0.58851 0.63623 0.0
H2384 H 0.01431 0.59834 0.62744 0.0
H2385 H 0.99715 0.58093 0.60484 0.0
H2386 H 0.96847 0.60796 0.56945 0.0
H2387 H 0.98074 0.59867 0.5801 0.0
C2388 C 0.4181 0.03009 0.6136 0.0
C2389 C 0.42044 0.02942 0.62415 0.0
C2390 C 0.41148 0.02295 0.609 0.0
C2391 C 0.39315 0.00973 0.60255 0.0
H2392 H 0.3985 0.98084 0.60811 0.0
C2393 C 0.36857 0.9772 0.5847 0.0
C2394 C 0.37423 0.96925 0.58 0.0
C2395 C 0.37347 0.98437 0.59108 0.0
C2396 C 0.39691 0.98888 0.6065 0.0
H2397 H 0.41749 0.02086 0.63822 0.0
H2398 H 0.40597 0.00834 0.63015 0.0
H2399 H 0.40827 0.99407 0.61729 0.0
H2400 H 0.38939 0.96235 0.57859 0.0
H2401 H 0.39793 0.97482 0.58978 0.0
H2402 H 0.38194 0.00454 0.5916 0.0
C2403 C 0.40929 0.01438 0.62544 0.0
C2404 C 0.40243 0.99645 0.61181 0.0
C2405 C 0.41585 0.02159 0.63006 0.0
C2406 C 0.38482 0.9684 0.58209 0.0
C2407 C 0.3897 0.97551 0.58854 0.0
C2408 C 0.38756 0.00216 0.5973 0.0
C2409 C 0.40713 0.01494 0.61485 0.0
C2410 C 0.40071 0.00695 0.60978 0.0
C2411 C 0.38411 0.98366 0.59297 0.0
C2412 C 0.38949 0.99166 0.59912 0.0
H2413 H 0.42151 0.03605 0.60884 0.0
H2414 H 0.41003 0.02352 0.6008 0.0
H2415 H 0.39161 0.01777 0.60089 0.0
H2416 H 0.36039 0.97806 0.58325 0.0
H2417 H 0.36896 0.99052 0.59447 0.0
C2418 C 0.02521 0.37287 0.58644 0.0
C2419 C 0.02951 0.37793 0.57788 0.0
C2420 C 0.01747 0.37761 0.59227 0.0
C2421 C 0.99672 0.39631 0.59012 0.0
H2422 H 0.99888 0.39926 0.61977 0.0
C2423 C 0.96989 0.42329 0.61282 0.0
C2424 C 0.96723 0.42077 0.623 0.0
C2425 C 0.977 0.41731 0.60739 0.0
C2426 C 0.99803 0.39833 0.61152 0.0
H2427 H 0.02913 0.39193 0.56874 0.0
H2428 H 0.01549 0.4001 0.57881 0.0
H2429 H 0.01238 0.39021 0.6103 0.0
H2430 H 0.96964 0.40978 0.63536 0.0
H2431 H 0.98176 0.3991 0.62575 0.0
H2432 H 0.98232 0.4042 0.59125 0.0
C2433 C 0.01815 0.3925 0.58102 0.0
C2434 C 0.00581 0.39319 0.60611 0.0
C2435 C 0.02599 0.38785 0.57531 0.0
C2436 C 0.97159 0.41195 0.62754 0.0
C2437 C 0.9786 0.40588 0.62205 0.0
C2438 C 0.98887 0.40129 0.59553 0.0
C2439 C 0.01378 0.3874 0.58951 0.0
C2440 C 0.00529 0.39229 0.59535 0.0
C2441 C 0.98152 0.40856 0.61195 0.0
C2442 C 0.9895 0.40254 0.60629 0.0
H2443 H 0.02778 0.36522 0.5886 0.0
H2444 H 0.0142 0.37352 0.59877 0.0
H2445 H 0.99608 0.39556 0.58182 0.0
H2446 H 0.96674 0.43008 0.60914 0.0
H2447 H 0.97917 0.41976 0.59971 0.0
C2448 C 0.57438 0.02709 0.39034 0.0
C2449 C 0.57668 0.02912 0.37996 0.0
C2450 C 0.58032 0.02011 0.39599 0.0
C2451 C 0.59826 0.99817 0.39247 0.0
H2452 H 0.60267 0.00193 0.42179 0.0
C2453 C 0.62368 0.97115 0.41758 0.0
C2454 C 0.61923 0.96794 0.42692 0.0
C2455 C 0.61894 0.97875 0.41159 0.0
C2456 C 0.60145 0.00076 0.41362 0.0
H2457 H 0.58723 0.02571 0.36746 0.0
H2458 H 0.59779 0.01375 0.3774 0.0
H2459 H 0.59407 0.01538 0.41191 0.0
H2460 H 0.60628 0.97015 0.43728 0.0
H2461 H 0.59808 0.98349 0.42687 0.0
H2462 H 0.6058 0.98357 0.39423 0.0
C2463 C 0.59124 0.01734 0.38112 0.0
C2464 C 0.5965 0.00845 0.40794 0.0
C2465 C 0.58523 0.02426 0.37543 0.0
C2466 C 0.6099 0.97243 0.43011 0.0
C2467 C 0.60524 0.98012 0.4242 0.0
C2468 C 0.60333 0.99053 0.39813 0.0
C2469 C 0.58876 0.01506 0.39143 0.0
C2470 C 0.5947 0.0072 0.39732 0.0
C2471 C 0.60974 0.98339 0.41491 0.0
C2472 C 0.60484 0.99169 0.40878 0.0
H2473 H 0.56781 0.03065 0.39404 0.0
H2474 H 0.57806 0.01844 0.40385 0.0
H2475 H 0.59688 0.99684 0.38435 0.0
H2476 H 0.63087 0.96783 0.41492 0.0
H2477 H 0.62258 0.98117 0.40447 0.0
C2478 C 0.97267 0.58531 0.3747 0.0
C2479 C 0.96877 0.57644 0.37953 0.0
C2480 C 0.97962 0.59174 0.37986 0.0
C2481 C 0.99042 0.59727 0.40597 0.0
H2482 H 0.01308 0.60892 0.39033 0.0
C2483 C 0.02745 0.61273 0.4249 0.0
C2484 C 0.03057 0.62266 0.42193 0.0
C2485 C 0.01963 0.60763 0.41954 0.0
C2486 C 0.00674 0.60578 0.39476 0.0
H2487 H 0.96903 0.56738 0.39357 0.0
H2488 H 0.98136 0.57833 0.40242 0.0
H2489 H -0.00028 0.59913 0.38143 0.0
H2490 H 0.02815 0.63495 0.41085 0.0
H2491 H 0.01461 0.62588 0.40131 0.0
H2492 H 0.99773 0.60362 0.41935 0.0
C2493 C 0.97888 0.58054 0.39477 0.0
C2494 C 0.99904 0.60022 0.38967 0.0
C2495 C 0.97184 0.57421 0.38967 0.0
C2496 C 0.02589 0.6273 0.41333 0.0
C2497 C 0.01818 0.62212 0.40785 0.0
C2498 C 0.99819 0.6027 0.41106 0.0
C2499 C 0.98293 0.58936 0.38992 0.0
C2500 C 0.99082 0.59581 0.39523 0.0
C2501 C 0.01489 0.6123 0.41101 0.0
C2502 C 0.00646 0.60693 0.40551 0.0
H2503 H 0.9704 0.58726 0.3669 0.0
H2504 H 0.98241 0.59856 0.37594 0.0
H2505 H 0.9841 0.59422 0.41048 0.0
H2506 H 0.03089 0.60896 0.43151 0.0
H2507 H 0.0173 0.60002 0.42206 0.0
C2508 C 0.38774 0.02918 0.42065 0.0
C2509 C 0.37762 0.03216 0.41826 0.0
C2510 C 0.39276 0.02168 0.41479 0.0
C2511 C 0.38746 0.00035 0.39638 0.0
H2512 H 0.41713 0.00125 0.39287 0.0
C2513 C 0.411 0.97223 0.37047 0.0
C2514 C 0.4195 0.96762 0.37536 0.0
C2515 C 0.40555 0.98017 0.37533 0.0
C2516 C 0.40884 0.0009 0.39383 0.0
H2517 H 0.36492 0.02987 0.40765 0.0
H2518 H 0.3738 0.01706 0.39716 0.0
H2519 H 0.4084 0.01544 0.40153 0.0
H2520 H 0.42894 0.96768 0.38917 0.0
H2521 H 0.41954 0.98169 0.39753 0.0
H2522 H 0.388 0.98587 0.38841 0.0
C2523 C 0.37778 0.02027 0.40375 0.0
C2524 C 0.40383 0.009 0.39883 0.0
C2525 C 0.3727 0.02768 0.40972 0.0
C2526 C 0.4224 0.97105 0.38522 0.0
C2527 C 0.41708 0.9791 0.38998 0.0
C2528 C 0.39248 0.99233 0.39122 0.0
C2529 C 0.38783 0.01707 0.40629 0.0
C2530 C 0.39308 0.00877 0.40033 0.0
C2531 C 0.40865 0.98376 0.38505 0.0
C2532 C 0.40323 0.99247 0.39004 0.0
H2533 H 0.39171 0.03243 0.42724 0.0
H2534 H 0.4004 0.0193 0.41714 0.0
H2535 H 0.37922 -0.00021 0.39751 0.0
H2536 H 0.40859 0.96973 0.36288 0.0
H2537 H 0.39908 0.98367 0.37137 0.0
C2538 C 0.96757 0.38459 0.41653 0.0
C2539 C 0.96772 0.37384 0.4178 0.0
C2540 C 0.97491 0.38947 0.41035 0.0
C2541 C 0.99534 0.39811 0.40324 0.0
H2542 H 0.00521 0.38642 0.37756 0.0
C2543 C 0.03111 0.41438 0.3828 0.0
C2544 C 0.03052 0.41557 0.37205 0.0
C2545 C 0.02359 0.40878 0.3881 0.0
C2546 C 0.00249 0.38981 0.38468 0.0
H2547 H 0.97551 0.35974 0.41333 0.0
H2548 H 0.98842 0.36827 0.40266 0.0
H2549 H 0.99125 0.37792 0.3869 0.0
H2550 H 0.02172 0.4116 0.3584 0.0
H2551 H 0.00852 0.40194 0.36767 0.0
H2552 H 0.00638 0.41011 0.40094 0.0
C2553 C 0.98255 0.37292 0.40634 0.0
C2554 C 0.99456 0.38489 0.39009 0.0
C2555 C 0.97518 0.36804 0.4125 0.0
C2556 C 0.0224 0.41081 0.36668 0.0
C2557 C 0.01486 0.40523 0.37199 0.0
C2558 C 0.00324 0.40302 0.39784 0.0
C2559 C 0.98261 0.38372 0.40533 0.0
C2560 C 0.99089 0.38899 0.39943 0.0
C2561 C 0.01529 0.40428 0.38278 0.0
C2562 C 0.00693 0.39893 0.38851 0.0
H2563 H 0.96188 0.38928 0.42045 0.0
H2564 H 0.97461 0.39778 0.40958 0.0
H2565 H 0.9928 0.4014 0.41048 0.0
H2566 H 0.0373 0.41789 0.38716 0.0
H2567 H 0.02426 0.40803 0.39639 0.0
C2568 C 0.61424 0.58494 0.97082 0.0
C2569 C 0.62498 0.58377 0.97157 0.0
C2570 C 0.60885 0.59072 0.97813 0.0
C2571 C 0.59894 0.59664 0.99833 0.0
H2572 H 0.60951 0.622 0.0101 0.0
C2573 C 0.57992 0.61503 0.03379 0.0
C2574 C 0.57842 0.62575 0.03353 0.0
C2575 C 0.58623 0.61021 0.02652 0.0
C2576 C 0.60643 0.61496 0.00685 0.0
H2577 H 0.63853 0.58803 0.98039 0.0
H2578 H 0.6291 0.59801 0.99323 0.0
H2579 H 0.619 0.6135 0.99625 0.0
H2580 H 0.58265 0.63987 0.02563 0.0
H2581 H 0.59356 0.63145 0.01285 0.0
H2582 H 0.58626 0.59819 0.00872 0.0
C2583 C 0.62486 0.59455 0.98693 0.0
C2584 C 0.61191 0.61004 0.99898 0.0
C2585 C 0.63026 0.58879 0.97959 0.0
C2586 C 0.58365 0.63159 0.02605 0.0
C2587 C 0.58994 0.62677 0.01875 0.0
C2588 C 0.59346 0.60156 0.00617 0.0
C2589 C 0.61407 0.59543 0.98638 0.0
C2590 C 0.60822 0.60083 0.99462 0.0
C2591 C 0.59116 0.616 0.01879 0.0
C2592 C 0.59714 0.61076 0.01054 0.0
H2593 H 0.60996 0.58123 0.96469 0.0
H2594 H 0.60057 0.59141 0.97736 0.0
H2595 H 0.59594 0.58948 0.99525 0.0
H2596 H 0.57606 0.61031 0.0395 0.0
H2597 H 0.58717 0.60193 0.02689 0.0
C2598 C 0.36476 0.58836 0.01984 0.0
C2599 C 0.37043 0.5835 0.02769 0.0
C2600 C 0.36972 0.59461 0.01259 0.0
C2601 C 0.39343 0.60948 0.00778 0.0
H2602 H 0.38743 0.6043 0.97894 0.0
C2603 C 0.41203 0.63315 0.97497 0.0
C2604 C 0.41635 0.62729 0.96695 0.0
C2605 C 0.40558 0.62852 0.98226 0.0
C2606 C 0.38917 0.60583 0.98696 0.0
H2607 H 0.38567 0.58164 0.0343 0.0
H2608 H 0.3943 0.5926 0.02169 0.0
H2609 H 0.37785 0.59506 0.99227 0.0
H2610 H 0.41704 0.61205 0.96009 0.0
H2611 H 0.40572 0.60401 0.97277 0.0
H2612 H 0.40489 0.6201 0.00247 0.0
C2613 C 0.38603 0.59159 0.02115 0.0
C2614 C 0.38363 0.60062 0.99459 0.0
C2615 C 0.38109 0.58527 0.02834 0.0
C2616 C 0.41384 0.61678 0.96618 0.0
C2617 C 0.40732 0.61218 0.97341 0.0
C2618 C 0.3989 0.61476 0.00016 0.0
C2619 C 0.38041 0.5962 0.01312 0.0
C2620 C 0.3858 0.60229 0.00507 0.0
C2621 C 0.40324 0.61797 0.98161 0.0
C2622 C 0.39692 0.61289 0.98967 0.0
H2623 H 0.35653 0.58716 0.01913 0.0
H2624 H 0.36519 0.59816 0.00654 0.0
H2625 H 0.39521 0.61097 0.0158 0.0
H2626 H 0.41382 0.64127 0.97578 0.0
H2627 H 0.40246 0.63319 0.98844 0.0
C2628 C 0.37398 0.41519 0.97426 0.0
C2629 C 0.37889 0.42416 0.97066 0.0
C2630 C 0.37841 0.40935 0.98217 0.0
C2631 C 0.39546 0.4117 0.00435 0.0
H2632 H 0.39981 0.38227 0.00155 0.0
C2633 C 0.42162 0.38926 0.0322 0.0
C2634 C 0.41931 0.37893 0.03445 0.0
C2635 C 0.41588 0.39467 0.02487 0.0
C2636 C 0.39848 0.39044 0.00257 0.0
H2637 H 0.39228 0.43401 0.97247 0.0
H2638 H 0.3999 0.42389 0.98638 0.0
H2639 H 0.39131 0.39178 0.98773 0.0
H2640 H 0.40895 0.36627 0.03107 0.0
H2641 H 0.39869 0.37581 0.01854 0.0
H2642 H 0.40242 0.41044 0.01921 0.0
C2643 C 0.39266 0.42138 0.98306 0.0
C2644 C 0.39365 0.39588 0.99462 0.0
C2645 C 0.38833 0.42712 0.97505 0.0
C2646 C 0.41095 0.37421 0.02945 0.0
C2647 C 0.40512 0.37967 0.02221 0.0
C2648 C 0.40014 0.40625 0.01236 0.0
C2649 C 0.38772 0.41248 0.98673 0.0
C2650 C 0.39226 0.40658 0.99537 0.0
C2651 C 0.40761 0.38993 0.01971 0.0
C2652 C 0.40188 0.39558 0.01151 0.0
H2653 H 0.3667 0.41272 0.97101 0.0
H2654 H 0.37445 0.40252 0.98489 0.0
H2655 H 0.39431 0.41993 0.00518 0.0
H2656 H 0.42806 0.3931 0.03586 0.0
H2657 H 0.41817 0.40249 0.02305 0.0
C2658 C 0.63071 0.40992 0.01728 0.0
C2659 C 0.62519 0.41461 0.02533 0.0
C2660 C 0.62566 0.40365 0.01012 0.0
C2661 C 0.60212 0.38834 0.00595 0.0
H2662 H 0.60719 0.39364 0.97696 0.0
C2663 C 0.58294 0.36434 0.97375 0.0
C2664 C 0.57826 0.37013 0.96587 0.0
C2665 C 0.58958 0.36907 0.9808 0.0
C2666 C 0.60572 0.39207 0.98502 0.0
H2667 H 0.6101 0.41616 0.03237 0.0
H2668 H 0.60131 0.40516 0.01991 0.0
H2669 H 0.61696 0.40307 0.99001 0.0
H2670 H 0.57713 0.38534 0.95902 0.0
H2671 H 0.58876 0.39357 0.97129 0.0
H2672 H 0.59073 0.37749 0.00096 0.0
C2673 C 0.60955 0.40632 0.01914 0.0
C2674 C 0.61136 0.39739 0.99249 0.0
C2675 C 0.61457 0.41267 0.02625 0.0
C2676 C 0.58061 0.38067 0.965 0.0
C2677 C 0.58731 0.38538 0.972 0.0
C2678 C 0.59654 0.38294 0.99848 0.0
C2679 C 0.61501 0.40185 0.01093 0.0
C2680 C 0.60952 0.39568 0.00303 0.0
C2681 C 0.59173 0.37966 0.98006 0.0
C2682 C 0.59819 0.38485 0.98794 0.0
H2683 H 0.6389 0.41126 0.01636 0.0
H2684 H 0.63008 0.40022 0.00392 0.0
H2685 H 0.6006 0.3868 0.01401 0.0
H2686 H 0.5813 0.35621 0.97463 0.0
H2687 H 0.59296 0.36446 0.98688 0.0
loop_
_geom_bond_atom_site_label_1
_geom_bond_atom_site_label_2
_geom_bond_distance
_geom_bond_site_symmetry_2
_ccdc_geom_bond_type
O0 Cd1 2.300 . S
O0 C7 1.275 . S
Cd1 O0 2.300 . S
Cd1 O9 2.381 . S
Cd1 O10 2.378 . S
O2 Cd3 2.385 . S
O2 C7 1.255 . S
Cd3 O2 2.385 . S
Cd3 O4 2.317 . S
O4 Cd3 2.317 . S
O4 C5 1.232 . S
C5 O4 1.232 . S
C5 O6 1.218 . S
O6 C5 1.218 . S
C7 O0 1.275 . S
C7 O2 1.255 . S
C8 O9 1.258 . S
C8 O10 1.256 . S
O9 Cd1 2.381 . S
O9 C8 1.258 . S
O10 Cd1 2.378 . S
O10 C8 1.256 . S
O11 Cd12 2.300 . S
O11 C18 1.275 . S
Cd12 O11 2.300 . S
Cd12 O20 2.381 . S
Cd12 O21 2.378 . S
O13 Cd14 2.385 . S
O13 C18 1.255 . S
Cd14 O13 2.385 . S
Cd14 O15 2.317 . S
O15 Cd14 2.317 . S
O15 C16 1.232 . S
C16 O15 1.232 . S
C16 O17 1.218 . S
O17 C16 1.218 . S
C18 O11 1.275 . S
C18 O13 1.255 . S
C19 O20 1.258 . S
C19 O21 1.256 . S
O20 Cd12 2.381 . S
O20 C19 1.258 . S
O21 Cd12 2.378 . S
O21 C19 1.256 . S
O22 Cd23 2.300 . S
O22 C29 1.275 . S
Cd23 O22 2.300 . S
Cd23 O31 2.381 . S
Cd23 O32 2.378 . S
O24 Cd25 2.385 . S
O24 C29 1.255 . S
Cd25 O24 2.385 . S
Cd25 O26 2.317 . S
O26 Cd25 2.317 . S
O26 C27 1.232 . S
C27 O26 1.232 . S
C27 O28 1.218 . S
O28 C27 1.218 . S
C29 O22 1.275 . S
C29 O24 1.255 . S
C30 O31 1.258 . S
C30 O32 1.256 . S
O31 Cd23 2.381 . S
O31 C30 1.258 . S
O32 Cd23 2.378 . S
O32 C30 1.256 . S
O33 Cd34 2.300 . S
O33 C40 1.275 . S
Cd34 O33 2.300 . S
Cd34 O42 2.381 . S
Cd34 O43 2.378 . S
O35 Cd36 2.385 . S
O35 C40 1.255 . S
Cd36 O35 2.385 . S
Cd36 O37 2.317 . S
O37 Cd36 2.317 . S
O37 C38 1.232 . S
C38 O37 1.232 . S
C38 O39 1.218 . S
O39 C38 1.218 . S
C40 O33 1.275 . S
C40 O35 1.255 . S
C41 O42 1.258 . S
C41 O43 1.256 . S
O42 Cd34 2.381 . S
O42 C41 1.258 . S
O43 Cd34 2.378 . S
O43 C41 1.256 . S
O44 Cd45 2.300 . S
O44 C51 1.275 . S
Cd45 O44 2.300 . S
Cd45 O53 2.381 . S
Cd45 O54 2.378 . S
O46 Cd47 2.385 . S
O46 C51 1.255 . S
Cd47 O46 2.385 . S
Cd47 O48 2.317 . S
O48 Cd47 2.317 . S
O48 C49 1.232 . S
C49 O48 1.232 . S
C49 O50 1.218 . S
O50 C49 1.218 . S
C51 O44 1.275 . S
C51 O46 1.255 . S
C52 O53 1.258 . S
C52 O54 1.256 . S
O53 Cd45 2.381 . S
O53 C52 1.258 . S
O54 Cd45 2.378 . S
O54 C52 1.256 . S
O55 Cd56 2.300 . S
O55 C62 1.275 . S
Cd56 O55 2.300 . S
Cd56 O64 2.381 . S
Cd56 O65 2.378 . S
O57 Cd58 2.385 . S
O57 C62 1.255 . S
Cd58 O57 2.385 . S
Cd58 O59 2.317 . S
O59 Cd58 2.317 . S
O59 C60 1.232 . S
C60 O59 1.232 . S
C60 O61 1.218 . S
O61 C60 1.218 . S
C62 O55 1.275 . S
C62 O57 1.255 . S
C63 O64 1.258 . S
C63 O65 1.256 . S
O64 Cd56 2.381 . S
O64 C63 1.258 . S
O65 Cd56 2.378 . S
O65 C63 1.256 . S
O66 Cd67 2.300 . S
O66 C73 1.275 . S
Cd67 O66 2.300 . S
Cd67 O75 2.381 . S
Cd67 O76 2.378 . S
O68 Cd69 2.385 . S
O68 C73 1.255 . S
Cd69 O68 2.385 . S
Cd69 O70 2.317 . S
O70 Cd69 2.317 . S
O70 C71 1.232 . S
C71 O70 1.232 . S
C71 O72 1.218 . S
O72 C71 1.218 . S
C73 O66 1.275 . S
C73 O68 1.255 . S
C74 O75 1.258 . S
C74 O76 1.256 . S
O75 Cd67 2.381 . S
O75 C74 1.258 . S
O76 Cd67 2.378 . S
O76 C74 1.256 . S
O77 Cd78 2.300 . S
O77 C84 1.275 . S
Cd78 O77 2.300 . S
Cd78 O86 2.381 . S
Cd78 O87 2.378 . S
O79 Cd80 2.385 . S
O79 C84 1.255 . S
Cd80 O79 2.385 . S
Cd80 O81 2.317 . S
O81 Cd80 2.317 . S
O81 C82 1.232 . S
C82 O81 1.232 . S
C82 O83 1.218 . S
O83 C82 1.218 . S
C84 O77 1.275 . S
C84 O79 1.255 . S
C85 O86 1.258 . S
C85 O87 1.256 . S
O86 Cd78 2.381 . S
O86 C85 1.258 . S
O87 Cd78 2.378 . S
O87 C85 1.256 . S
O88 Cd89 2.300 . S
O88 C95 1.275 . S
Cd89 O88 2.300 . S
Cd89 O97 2.381 . S
Cd89 O98 2.378 . S
O90 Cd91 2.385 . S
O90 C95 1.255 . S
Cd91 O90 2.385 . S
Cd91 O92 2.317 . S
O92 Cd91 2.317 . S
O92 C93 1.232 . S
C93 O92 1.232 . S
C93 O94 1.218 . S
O94 C93 1.218 . S
C95 O88 1.275 . S
C95 O90 1.255 . S
C96 O97 1.258 . S
C96 O98 1.256 . S
O97 Cd89 2.381 . S
O97 C96 1.258 . S
O98 Cd89 2.378 . S
O98 C96 1.256 . S
O99 Cd100 2.300 . S
O99 C106 1.275 . S
Cd100 O99 2.300 . S
Cd100 O108 2.381 . S
Cd100 O109 2.378 . S
O101 Cd102 2.385 . S
O101 C106 1.255 . S
Cd102 O101 2.385 . S
Cd102 O103 2.317 . S
O103 Cd102 2.317 . S
O103 C104 1.232 . S
C104 O103 1.232 . S
C104 O105 1.218 . S
O105 C104 1.218 . S
C106 O99 1.275 . S
C106 O101 1.255 . S
C107 O108 1.258 . S
C107 O109 1.256 . S
O108 Cd100 2.381 . S
O108 C107 1.258 . S
O109 Cd100 2.378 . S
O109 C107 1.256 . S
O110 Cd111 2.300 . S
O110 C117 1.275 . S
Cd111 O110 2.300 . S
Cd111 O119 2.381 . S
Cd111 O120 2.378 . S
O112 Cd113 2.385 . S
O112 C117 1.255 . S
Cd113 O112 2.385 . S
Cd113 O114 2.317 . S
O114 Cd113 2.317 . S
O114 C115 1.232 . S
C115 O114 1.232 . S
C115 O116 1.218 . S
O116 C115 1.218 . S
C117 O110 1.275 . S
C117 O112 1.255 . S
C118 O119 1.258 . S
C118 O120 1.256 . S
O119 Cd111 2.381 . S
O119 C118 1.258 . S
O120 Cd111 2.378 . S
O120 C118 1.256 . S
O121 Cd122 2.300 . S
O121 C128 1.275 . S
Cd122 O121 2.300 . S
Cd122 O130 2.381 . S
Cd122 O131 2.378 . S
O123 Cd124 2.385 . S
O123 C128 1.255 . S
Cd124 O123 2.385 . S
Cd124 O125 2.317 . S
O125 Cd124 2.317 . S
O125 C126 1.232 . S
C126 O125 1.232 . S
C126 O127 1.218 . S
O127 C126 1.218 . S
C128 O121 1.275 . S
C128 O123 1.255 . S
C129 O130 1.258 . S
C129 O131 1.256 . S
O130 Cd122 2.381 . S
O130 C129 1.258 . S
O131 Cd122 2.378 . S
O131 C129 1.256 . S
O132 Cd133 2.300 . S
O132 C139 1.275 . S
Cd133 O132 2.300 . S
Cd133 O141 2.381 . S
Cd133 O142 2.378 . S
O134 Cd135 2.385 . S
O134 C139 1.255 . S
Cd135 O134 2.385 . S
Cd135 O136 2.317 . S
O136 Cd135 2.317 . S
O136 C137 1.232 . S
C137 O136 1.232 . S
C137 O138 1.218 . S
O138 C137 1.218 . S
C139 O132 1.275 . S
C139 O134 1.255 . S
C140 O141 1.258 . S
C140 O142 1.256 . S
O141 Cd133 2.381 . S
O141 C140 1.258 . S
O142 Cd133 2.378 . S
O142 C140 1.256 . S
O143 Cd144 2.300 . S
O143 C150 1.275 . S
Cd144 O143 2.300 . S
Cd144 O152 2.381 . S
Cd144 O153 2.378 . S
O145 Cd146 2.385 . S
O145 C150 1.255 . S
Cd146 O145 2.385 . S
Cd146 O147 2.317 . S
O147 Cd146 2.317 . S
O147 C148 1.232 . S
C148 O147 1.232 . S
C148 O149 1.218 . S
O149 C148 1.218 . S
C150 O143 1.275 . S
C150 O145 1.255 . S
C151 O152 1.258 . S
C151 O153 1.256 . S
O152 Cd144 2.381 . S
O152 C151 1.258 . S
O153 Cd144 2.378 . S
O153 C151 1.256 . S
O154 Cd155 2.300 . S
O154 C161 1.275 . S
Cd155 O154 2.300 . S
Cd155 O163 2.381 . S
Cd155 O164 2.378 . S
O156 Cd157 2.385 . S
O156 C161 1.255 . S
Cd157 O156 2.385 . S
Cd157 O158 2.317 . S
O158 Cd157 2.317 . S
O158 C159 1.232 . S
C159 O158 1.232 . S
C159 O160 1.218 . S
O160 C159 1.218 . S
C161 O154 1.275 . S
C161 O156 1.255 . S
C162 O163 1.258 . S
C162 O164 1.256 . S
O163 Cd155 2.381 . S
O163 C162 1.258 . S
O164 Cd155 2.378 . S
O164 C162 1.256 . S
O165 Cd166 2.300 . S
O165 C172 1.275 . S
Cd166 O165 2.300 . S
Cd166 O174 2.381 . S
Cd166 O175 2.378 . S
O167 Cd168 2.385 . S
O167 C172 1.255 . S
Cd168 O167 2.385 . S
Cd168 O169 2.317 . S
O169 Cd168 2.317 . S
O169 C170 1.232 . S
C170 O169 1.232 . S
C170 O171 1.218 . S
O171 C170 1.218 . S
C172 O165 1.275 . S
C172 O167 1.255 . S
C173 O174 1.258 . S
C173 O175 1.256 . S
O174 Cd166 2.381 . S
O174 C173 1.258 . S
O175 Cd166 2.378 . S
O175 C173 1.256 . S
O176 Cd177 2.300 . S
O176 C183 1.275 . S
Cd177 O176 2.300 . S
Cd177 O185 2.381 . S
Cd177 O186 2.378 . S
O178 Cd179 2.385 . S
O178 C183 1.255 . S
Cd179 O178 2.385 . S
Cd179 O180 2.317 . S
O180 Cd179 2.317 . S
O180 C181 1.232 . S
C181 O180 1.232 . S
C181 O182 1.218 . S
O182 C181 1.218 . S
C183 O176 1.275 . S
C183 O178 1.255 . S
C184 O185 1.258 . S
C184 O186 1.256 . S
O185 Cd177 2.381 . S
O185 C184 1.258 . S
O186 Cd177 2.378 . S
O186 C184 1.256 . S
O187 Cd188 2.300 . S
O187 C194 1.275 . S
Cd188 O187 2.300 . S
Cd188 O196 2.381 . S
Cd188 O197 2.378 . S
O189 Cd190 2.385 . S
O189 C194 1.255 . S
Cd190 O189 2.385 . S
Cd190 O191 2.317 . S
O191 Cd190 2.317 . S
O191 C192 1.232 . S
C192 O191 1.232 . S
C192 O193 1.218 . S
O193 C192 1.218 . S
C194 O187 1.275 . S
C194 O189 1.255 . S
C195 O196 1.258 . S
C195 O197 1.256 . S
O196 Cd188 2.381 . S
O196 C195 1.258 . S
O197 Cd188 2.378 . S
O197 C195 1.256 . S
O198 Cd199 2.300 . S
O198 C205 1.275 . S
Cd199 O198 2.300 . S
Cd199 O207 2.381 . S
Cd199 O208 2.378 . S
O200 Cd201 2.385 . S
O200 C205 1.255 . S
Cd201 O200 2.385 . S
Cd201 O202 2.317 . S
O202 Cd201 2.317 . S
O202 C203 1.232 . S
C203 O202 1.232 . S
C203 O204 1.218 . S
O204 C203 1.218 . S
C205 O198 1.275 . S
C205 O200 1.255 . S
C206 O207 1.258 . S
C206 O208 1.256 . S
O207 Cd199 2.381 . S
O207 C206 1.258 . S
O208 Cd199 2.378 . S
O208 C206 1.256 . S
O209 Cd210 2.300 . S
O209 C216 1.275 . S
Cd210 O209 2.300 . S
Cd210 O218 2.381 . S
Cd210 O219 2.378 . S
O211 Cd212 2.385 . S
O211 C216 1.255 . S
Cd212 O211 2.385 . S
Cd212 O213 2.317 . S
O213 Cd212 2.317 . S
O213 C214 1.232 . S
C214 O213 1.232 . S
C214 O215 1.218 . S
O215 C214 1.218 . S
C216 O209 1.275 . S
C216 O211 1.255 . S
C217 O218 1.258 . S
C217 O219 1.256 . S
O218 Cd210 2.381 . S
O218 C217 1.258 . S
O219 Cd210 2.378 . S
O219 C217 1.256 . S
O220 Cd221 2.300 . S
O220 C227 1.275 . S
Cd221 O220 2.300 . S
Cd221 O229 2.381 . S
Cd221 O230 2.378 . S
O222 Cd223 2.385 . S
O222 C227 1.255 . S
Cd223 O222 2.385 . S
Cd223 O224 2.317 . S
O224 Cd223 2.317 . S
O224 C225 1.232 . S
C225 O224 1.232 . S
C225 O226 1.218 . S
O226 C225 1.218 . S
C227 O220 1.275 . S
C227 O222 1.255 . S
C228 O229 1.258 . S
C228 O230 1.256 . S
O229 Cd221 2.381 . S
O229 C228 1.258 . S
O230 Cd221 2.378 . S
O230 C228 1.256 . S
O231 Cd232 2.300 . S
O231 C238 1.275 . S
Cd232 O231 2.300 . S
Cd232 O240 2.381 . S
Cd232 O241 2.378 . S
O233 Cd234 2.385 . S
O233 C238 1.255 . S
Cd234 O233 2.385 . S
Cd234 O235 2.317 . S
O235 Cd234 2.317 . S
O235 C236 1.232 . S
C236 O235 1.232 . S
C236 O237 1.218 . S
O237 C236 1.218 . S
C238 O231 1.275 . S
C238 O233 1.255 . S
C239 O240 1.258 . S
C239 O241 1.256 . S
O240 Cd232 2.381 . S
O240 C239 1.258 . S
O241 Cd232 2.378 . S
O241 C239 1.256 . S
O242 Cd243 2.300 . S
O242 C249 1.275 . S
Cd243 O242 2.300 . S
Cd243 O251 2.381 . S
Cd243 O252 2.378 . S
O244 Cd245 2.385 . S
O244 C249 1.255 . S
Cd245 O244 2.385 . S
Cd245 O246 2.317 . S
O246 Cd245 2.317 . S
O246 C247 1.232 . S
C247 O246 1.232 . S
C247 O248 1.218 . S
O248 C247 1.218 . S
C249 O242 1.275 . S
C249 O244 1.255 . S
C250 O251 1.258 . S
C250 O252 1.256 . S
O251 Cd243 2.381 . S
O251 C250 1.258 . S
O252 Cd243 2.378 . S
O252 C250 1.256 . S
O253 Cd254 2.300 . S
O253 C260 1.275 . S
Cd254 O253 2.300 . S
Cd254 O262 2.381 . S
Cd254 O263 2.378 . S
O255 Cd256 2.385 . S
O255 C260 1.255 . S
Cd256 O255 2.385 . S
Cd256 O257 2.317 . S
O257 Cd256 2.317 . S
O257 C258 1.232 . S
C258 O257 1.232 . S
C258 O259 1.218 . S
O259 C258 1.218 . S
C260 O253 1.275 . S
C260 O255 1.255 . S
C261 O262 1.258 . S
C261 O263 1.256 . S
O262 Cd254 2.381 . S
O262 C261 1.258 . S
O263 Cd254 2.378 . S
O263 C261 1.256 . S
O264 Cd265 2.300 . S
O264 C271 1.275 . S
Cd265 O264 2.300 . S
Cd265 O273 2.381 . S
Cd265 O274 2.378 . S
O266 Cd267 2.385 . S
O266 C271 1.255 . S
Cd267 O266 2.385 . S
Cd267 O268 2.317 . S
O268 Cd267 2.317 . S
O268 C269 1.232 . S
C269 O268 1.232 . S
C269 O270 1.218 . S
O270 C269 1.218 . S
C271 O264 1.275 . S
C271 O266 1.255 . S
C272 O273 1.258 . S
C272 O274 1.256 . S
O273 Cd265 2.381 . S
O273 C272 1.258 . S
O274 Cd265 2.378 . S
O274 C272 1.256 . S
O275 Cd276 2.300 . S
O275 C282 1.275 . S
Cd276 O275 2.300 . S
Cd276 O284 2.381 . S
Cd276 O285 2.378 . S
O277 Cd278 2.385 . S
O277 C282 1.255 . S
Cd278 O277 2.385 . S
Cd278 O279 2.317 . S
O279 Cd278 2.317 . S
O279 C280 1.232 . S
C280 O279 1.232 . S
C280 O281 1.218 . S
O281 C280 1.218 . S
C282 O275 1.275 . S
C282 O277 1.255 . S
C283 O284 1.258 . S
C283 O285 1.256 . S
O284 Cd276 2.381 . S
O284 C283 1.258 . S
O285 Cd276 2.378 . S
O285 C283 1.256 . S
O286 Cd287 2.300 . S
O286 C293 1.275 . S
Cd287 O286 2.300 . S
Cd287 O295 2.381 . S
Cd287 O296 2.378 . S
O288 Cd289 2.385 . S
O288 C293 1.255 . S
Cd289 O288 2.385 . S
Cd289 O290 2.317 . S
O290 Cd289 2.317 . S
O290 C291 1.232 . S
C291 O290 1.232 . S
C291 O292 1.218 . S
O292 C291 1.218 . S
C293 O286 1.275 . S
C293 O288 1.255 . S
C294 O295 1.258 . S
C294 O296 1.256 . S
O295 Cd287 2.381 . S
O295 C294 1.258 . S
O296 Cd287 2.378 . S
O296 C294 1.256 . S
O297 Cd298 2.300 . S
O297 C304 1.275 . S
Cd298 O297 2.300 . S
Cd298 O306 2.381 . S
Cd298 O307 2.378 . S
O299 Cd300 2.385 . S
O299 C304 1.255 . S
Cd300 O299 2.385 . S
Cd300 O301 2.317 . S
O301 Cd300 2.317 . S
O301 C302 1.232 . S
C302 O301 1.232 . S
C302 O303 1.218 . S
O303 C302 1.218 . S
C304 O297 1.275 . S
C304 O299 1.255 . S
C305 O306 1.258 . S
C305 O307 1.256 . S
O306 Cd298 2.381 . S
O306 C305 1.258 . S
O307 Cd298 2.378 . S
O307 C305 1.256 . S
O308 Cd309 2.300 . S
O308 C315 1.275 . S
Cd309 O308 2.300 . S
Cd309 O317 2.381 . S
Cd309 O318 2.378 . S
O310 Cd311 2.385 . S
O310 C315 1.255 . S
Cd311 O310 2.385 . S
Cd311 O312 2.317 . S
O312 Cd311 2.317 . S
O312 C313 1.232 . S
C313 O312 1.232 . S
C313 O314 1.218 . S
O314 C313 1.218 . S
C315 O308 1.275 . S
C315 O310 1.255 . S
C316 O317 1.258 . S
C316 O318 1.256 . S
O317 Cd309 2.381 . S
O317 C316 1.258 . S
O318 Cd309 2.378 . S
O318 C316 1.256 . S
O319 Cd320 2.300 . S
O319 C326 1.275 . S
Cd320 O319 2.300 . S
Cd320 O328 2.381 . S
Cd320 O329 2.378 . S
O321 Cd322 2.385 . S
O321 C326 1.255 . S
Cd322 O321 2.385 . S
Cd322 O323 2.317 . S
O323 Cd322 2.317 . S
O323 C324 1.232 . S
C324 O323 1.232 . S
C324 O325 1.218 . S
O325 C324 1.218 . S
C326 O319 1.275 . S
C326 O321 1.255 . S
C327 O328 1.258 . S
C327 O329 1.256 . S
O328 Cd320 2.381 . S
O328 C327 1.258 . S
O329 Cd320 2.378 . S
O329 C327 1.256 . S
O330 Cd331 2.300 . S
O330 C337 1.275 . S
Cd331 O330 2.300 . S
Cd331 O339 2.381 . S
Cd331 O340 2.378 . S
O332 Cd333 2.385 . S
O332 C337 1.255 . S
Cd333 O332 2.385 . S
Cd333 O334 2.317 . S
O334 Cd333 2.317 . S
O334 C335 1.232 . S
C335 O334 1.232 . S
C335 O336 1.218 . S
O336 C335 1.218 . S
C337 O330 1.275 . S
C337 O332 1.255 . S
C338 O339 1.258 . S
C338 O340 1.256 . S
O339 Cd331 2.381 . S
O339 C338 1.258 . S
O340 Cd331 2.378 . S
O340 C338 1.256 . S
O341 Cd342 2.300 . S
O341 C348 1.275 . S
Cd342 O341 2.300 . S
Cd342 O350 2.381 . S
Cd342 O351 2.378 . S
O343 Cd344 2.385 . S
O343 C348 1.255 . S
Cd344 O343 2.385 . S
Cd344 O345 2.317 . S
O345 Cd344 2.317 . S
O345 C346 1.232 . S
C346 O345 1.232 . S
C346 O347 1.218 . S
O347 C346 1.218 . S
C348 O341 1.275 . S
C348 O343 1.255 . S
C349 O350 1.258 . S
C349 O351 1.256 . S
O350 Cd342 2.381 . S
O350 C349 1.258 . S
O351 Cd342 2.378 . S
O351 C349 1.256 . S
O352 Cd353 2.300 . S
O352 C359 1.275 . S
Cd353 O352 2.300 . S
Cd353 O361 2.381 . S
Cd353 O362 2.378 . S
O354 Cd355 2.385 . S
O354 C359 1.255 . S
Cd355 O354 2.385 . S
Cd355 O356 2.317 . S
O356 Cd355 2.317 . S
O356 C357 1.232 . S
C357 O356 1.232 . S
C357 O358 1.218 . S
O358 C357 1.218 . S
C359 O352 1.275 . S
C359 O354 1.255 . S
C360 O361 1.258 . S
C360 O362 1.256 . S
O361 Cd353 2.381 . S
O361 C360 1.258 . S
O362 Cd353 2.378 . S
O362 C360 1.256 . S
O363 Cd364 2.300 . S
O363 C370 1.275 . S
Cd364 O363 2.300 . S
Cd364 O372 2.381 . S
Cd364 O373 2.378 . S
O365 Cd366 2.385 . S
O365 C370 1.255 . S
Cd366 O365 2.385 . S
Cd366 O367 2.317 . S
O367 Cd366 2.317 . S
O367 C368 1.232 . S
C368 O367 1.232 . S
C368 O369 1.218 . S
O369 C368 1.218 . S
C370 O363 1.275 . S
C370 O365 1.255 . S
C371 O372 1.258 . S
C371 O373 1.256 . S
O372 Cd364 2.381 . S
O372 C371 1.258 . S
O373 Cd364 2.378 . S
O373 C371 1.256 . S
O374 Cd375 2.300 . S
O374 C381 1.275 . S
Cd375 O374 2.300 . S
Cd375 O383 2.381 . S
Cd375 O384 2.378 . S
O376 Cd377 2.385 . S
O376 C381 1.255 . S
Cd377 O376 2.385 . S
Cd377 O378 2.317 . S
O378 Cd377 2.317 . S
O378 C379 1.232 . S
C379 O378 1.232 . S
C379 O380 1.218 . S
O380 C379 1.218 . S
C381 O374 1.275 . S
C381 O376 1.255 . S
C382 O383 1.258 . S
C382 O384 1.256 . S
O383 Cd375 2.381 . S
O383 C382 1.258 . S
O384 Cd375 2.378 . S
O384 C382 1.256 . S
O385 Cd386 2.300 . S
O385 C392 1.275 . S
Cd386 O385 2.300 . S
Cd386 O394 2.381 . S
Cd386 O395 2.378 . S
O387 Cd388 2.385 . S
O387 C392 1.255 . S
Cd388 O387 2.385 . S
Cd388 O389 2.317 . S
O389 Cd388 2.317 . S
O389 C390 1.232 . S
C390 O389 1.232 . S
C390 O391 1.218 . S
O391 C390 1.218 . S
C392 O385 1.275 . S
C392 O387 1.255 . S
C393 O394 1.258 . S
C393 O395 1.256 . S
O394 Cd386 2.381 . S
O394 C393 1.258 . S
O395 Cd386 2.378 . S
O395 C393 1.256 . S
O396 Cd397 2.300 . S
O396 C403 1.275 . S
Cd397 O396 2.300 . S
Cd397 O405 2.381 . S
Cd397 O406 2.378 . S
O398 Cd399 2.385 . S
O398 C403 1.255 . S
Cd399 O398 2.385 . S
Cd399 O400 2.317 . S
O400 Cd399 2.317 . S
O400 C401 1.232 . S
C401 O400 1.232 . S
C401 O402 1.218 . S
O402 C401 1.218 . S
C403 O396 1.275 . S
C403 O398 1.255 . S
C404 O405 1.258 . S
C404 O406 1.256 . S
O405 Cd397 2.381 . S
O405 C404 1.258 . S
O406 Cd397 2.378 . S
O406 C404 1.256 . S
O407 Cd408 2.300 . S
O407 C414 1.275 . S
Cd408 O407 2.300 . S
Cd408 O416 2.381 . S
Cd408 O417 2.378 . S
O409 Cd410 2.385 . S
O409 C414 1.255 . S
Cd410 O409 2.385 . S
Cd410 O411 2.317 . S
O411 Cd410 2.317 . S
O411 C412 1.232 . S
C412 O411 1.232 . S
C412 O413 1.218 . S
O413 C412 1.218 . S
C414 O407 1.275 . S
C414 O409 1.255 . S
C415 O416 1.258 . S
C415 O417 1.256 . S
O416 Cd408 2.381 . S
O416 C415 1.258 . S
O417 Cd408 2.378 . S
O417 C415 1.256 . S
O418 Cd419 2.300 . S
O418 C425 1.275 . S
Cd419 O418 2.300 . S
Cd419 O427 2.381 . S
Cd419 O428 2.378 . S
O420 Cd421 2.385 . S
O420 C425 1.255 . S
Cd421 O420 2.385 . S
Cd421 O422 2.317 . S
O422 Cd421 2.317 . S
O422 C423 1.232 . S
C423 O422 1.232 . S
C423 O424 1.218 . S
O424 C423 1.218 . S
C425 O418 1.275 . S
C425 O420 1.255 . S
C426 O427 1.258 . S
C426 O428 1.256 . S
O427 Cd419 2.381 . S
O427 C426 1.258 . S
O428 Cd419 2.378 . S
O428 C426 1.256 . S
O429 Cd430 2.300 . S
O429 C436 1.275 . S
Cd430 O429 2.300 . S
Cd430 O438 2.381 . S
Cd430 O439 2.378 . S
O431 Cd432 2.385 . S
O431 C436 1.255 . S
Cd432 O431 2.385 . S
Cd432 O433 2.317 . S
O433 Cd432 2.317 . S
O433 C434 1.232 . S
C434 O433 1.232 . S
C434 O435 1.218 . S
O435 C434 1.218 . S
C436 O429 1.275 . S
C436 O431 1.255 . S
C437 O438 1.258 . S
C437 O439 1.256 . S
O438 Cd430 2.381 . S
O438 C437 1.258 . S
O439 Cd430 2.378 . S
O439 C437 1.256 . S
O440 Cd441 2.300 . S
O440 C447 1.275 . S
Cd441 O440 2.300 . S
Cd441 O449 2.381 . S
Cd441 O450 2.378 . S
O442 Cd443 2.385 . S
O442 C447 1.255 . S
Cd443 O442 2.385 . S
Cd443 O444 2.317 . S
O444 Cd443 2.317 . S
O444 C445 1.232 . S
C445 O444 1.232 . S
C445 O446 1.218 . S
O446 C445 1.218 . S
C447 O440 1.275 . S
C447 O442 1.255 . S
C448 O449 1.258 . S
C448 O450 1.256 . S
O449 Cd441 2.381 . S
O449 C448 1.258 . S
O450 Cd441 2.378 . S
O450 C448 1.256 . S
O451 Cd452 2.300 . S
O451 C458 1.275 . S
Cd452 O451 2.300 . S
Cd452 O460 2.381 . S
Cd452 O461 2.378 . S
O453 Cd454 2.385 . S
O453 C458 1.255 . S
Cd454 O453 2.385 . S
Cd454 O455 2.317 . S
O455 Cd454 2.317 . S
O455 C456 1.232 . S
C456 O455 1.232 . S
C456 O457 1.218 . S
O457 C456 1.218 . S
C458 O451 1.275 . S
C458 O453 1.255 . S
C459 O460 1.258 . S
C459 O461 1.256 . S
O460 Cd452 2.381 . S
O460 C459 1.258 . S
O461 Cd452 2.378 . S
O461 C459 1.256 . S
O462 Cd463 2.300 . S
O462 C469 1.275 . S
Cd463 O462 2.300 . S
Cd463 O471 2.381 . S
Cd463 O472 2.378 . S
O464 Cd465 2.385 . S
O464 C469 1.255 . S
Cd465 O464 2.385 . S
Cd465 O466 2.317 . S
O466 Cd465 2.317 . S
O466 C467 1.232 . S
C467 O466 1.232 . S
C467 O468 1.218 . S
O468 C467 1.218 . S
C469 O462 1.275 . S
C469 O464 1.255 . S
C470 O471 1.258 . S
C470 O472 1.256 . S
O471 Cd463 2.381 . S
O471 C470 1.258 . S
O472 Cd463 2.378 . S
O472 C470 1.256 . S
O473 Cd474 2.300 . S
O473 C480 1.275 . S
Cd474 O473 2.300 . S
Cd474 O482 2.381 . S
Cd474 O483 2.378 . S
O475 Cd476 2.385 . S
O475 C480 1.255 . S
Cd476 O475 2.385 . S
Cd476 O477 2.317 . S
O477 Cd476 2.317 . S
O477 C478 1.232 . S
C478 O477 1.232 . S
C478 O479 1.218 . S
O479 C478 1.218 . S
C480 O473 1.275 . S
C480 O475 1.255 . S
C481 O482 1.258 . S
C481 O483 1.256 . S
O482 Cd474 2.381 . S
O482 C481 1.258 . S
O483 Cd474 2.378 . S
O483 C481 1.256 . S
O484 Cd485 2.300 . S
O484 C491 1.275 . S
Cd485 O484 2.300 . S
Cd485 O493 2.381 . S
Cd485 O494 2.378 . S
O486 Cd487 2.385 . S
O486 C491 1.255 . S
Cd487 O486 2.385 . S
Cd487 O488 2.317 . S
O488 Cd487 2.317 . S
O488 C489 1.232 . S
C489 O488 1.232 . S
C489 O490 1.218 . S
O490 C489 1.218 . S
C491 O484 1.275 . S
C491 O486 1.255 . S
C492 O493 1.258 . S
C492 O494 1.256 . S
O493 Cd485 2.381 . S
O493 C492 1.258 . S
O494 Cd485 2.378 . S
O494 C492 1.256 . S
O495 Cd496 2.300 . S
O495 C502 1.275 . S
Cd496 O495 2.300 . S
Cd496 O504 2.381 . S
Cd496 O505 2.378 . S
O497 Cd498 2.385 . S
O497 C502 1.255 . S
Cd498 O497 2.385 . S
Cd498 O499 2.317 . S
O499 Cd498 2.317 . S
O499 C500 1.232 . S
C500 O499 1.232 . S
C500 O501 1.218 . S
O501 C500 1.218 . S
C502 O495 1.275 . S
C502 O497 1.255 . S
C503 O504 1.258 . S
C503 O505 1.256 . S
O504 Cd496 2.381 . S
O504 C503 1.258 . S
O505 Cd496 2.378 . S
O505 C503 1.256 . S
O506 Cd507 2.300 . S
O506 C513 1.275 . S
Cd507 O506 2.300 . S
Cd507 O515 2.381 . S
Cd507 O516 2.378 . S
O508 Cd509 2.385 . S
O508 C513 1.255 . S
Cd509 O508 2.385 . S
Cd509 O510 2.317 . S
O510 Cd509 2.317 . S
O510 C511 1.232 . S
C511 O510 1.232 . S
C511 O512 1.218 . S
O512 C511 1.218 . S
C513 O506 1.275 . S
C513 O508 1.255 . S
C514 O515 1.258 . S
C514 O516 1.256 . S
O515 Cd507 2.381 . S
O515 C514 1.258 . S
O516 Cd507 2.378 . S
O516 C514 1.256 . S
O517 Cd518 2.300 . S
O517 C524 1.275 . S
Cd518 O517 2.300 . S
Cd518 O526 2.381 . S
Cd518 O527 2.378 . S
O519 Cd520 2.385 . S
O519 C524 1.255 . S
Cd520 O519 2.385 . S
Cd520 O521 2.317 . S
O521 Cd520 2.317 . S
O521 C522 1.232 . S
C522 O521 1.232 . S
C522 O523 1.218 . S
O523 C522 1.218 . S
C524 O517 1.275 . S
C524 O519 1.255 . S
C525 O526 1.258 . S
C525 O527 1.256 . S
O526 Cd518 2.381 . S
O526 C525 1.258 . S
O527 Cd518 2.378 . S
O527 C525 1.256 . S
C528 C529 1.349 . S
C528 C530 1.327 . S
C528 H553 0.950 . S
C529 C528 1.349 . S
C529 C545 1.349 . S
C530 C528 1.327 . S
C530 C549 1.429 . S
C530 H554 0.950 . S
C531 C548 1.574 1_655 S
C531 C550 1.368 . S
C531 H555 0.949 . S
H532 C536 0.949 . S
C533 C534 1.349 . S
C533 C535 1.327 . S
C533 H556 0.950 . S
C534 C533 1.349 . S
C534 C546 1.349 . S
C535 C533 1.327 . S
C535 C551 1.429 . S
C535 H557 0.950 . S
C536 H532 0.949 . S
C536 C544 1.574 1_455 S
C536 C552 1.368 . S
H537 C545 0.950 . S
H538 C543 0.950 . S
H539 C544 0.949 . S
H540 C546 0.950 . S
H541 C547 0.950 . S
H542 C548 0.949 . S
C543 H538 0.950 . S
C543 C545 1.327 . S
C543 C549 1.429 . S
C544 C536 1.574 1_655 S
C544 H539 0.949 . S
C544 C550 1.368 . S
C545 C529 1.349 . S
C545 H537 0.950 . S
C545 C543 1.327 . S
C546 C534 1.349 . S
C546 H540 0.950 . S
C546 C547 1.327 . S
C547 H541 0.950 . S
C547 C546 1.327 . S
C547 C551 1.429 . S
C548 C531 1.574 1_455 S
C548 H542 0.949 . S
C548 C552 1.368 . S
C549 C530 1.429 . S
C549 C543 1.429 . S
C549 C550 1.523 . S
C550 C531 1.368 . S
C550 C544 1.368 . S
C550 C549 1.523 . S
C551 C535 1.429 . S
C551 C547 1.429 . S
C551 C552 1.523 . S
C552 C536 1.368 . S
C552 C548 1.368 . S
C552 C551 1.523 . S
H553 C528 0.950 . S
H554 C530 0.950 . S
H555 C531 0.949 . S
H556 C533 0.950 . S
H557 C535 0.950 . S
C558 C559 1.349 . S
C558 C560 1.327 . S
C558 H583 0.950 . S
C559 C558 1.349 . S
C559 C575 1.349 . S
C560 C558 1.327 . S
C560 C579 1.429 . S
C560 H584 0.950 . S
C561 C578 1.574 1_545 S
C561 C580 1.368 . S
C561 H585 0.949 . S
H562 C566 0.949 . S
C563 C564 1.349 . S
C563 C565 1.327 . S
C563 H586 0.950 . S
C564 C563 1.349 . S
C564 C576 1.349 . S
C565 C563 1.327 . S
C565 C581 1.429 . S
C565 H587 0.950 . S
C566 H562 0.949 . S
C566 C574 1.574 1_565 S
C566 C582 1.368 . S
H567 C575 0.950 . S
H568 C573 0.950 . S
H569 C574 0.949 . S
H570 C576 0.950 . S
H571 C577 0.950 . S
H572 C578 0.949 . S
C573 H568 0.950 . S
C573 C575 1.327 . S
C573 C579 1.429 . S
C574 C566 1.574 1_545 S
C574 H569 0.949 . S
C574 C580 1.368 . S
C575 C559 1.349 . S
C575 H567 0.950 . S
C575 C573 1.327 . S
C576 C564 1.349 . S
C576 H570 0.950 . S
C576 C577 1.327 . S
C577 H571 0.950 . S
C577 C576 1.327 . S
C577 C581 1.429 . S
C578 C561 1.574 1_565 S
C578 H572 0.949 . S
C578 C582 1.368 . S
C579 C560 1.429 . S
C579 C573 1.429 . S
C579 C580 1.523 . S
C580 C561 1.368 . S
C580 C574 1.368 . S
C580 C579 1.523 . S
C581 C565 1.429 . S
C581 C577 1.429 . S
C581 C582 1.523 . S
C582 C566 1.368 . S
C582 C578 1.368 . S
C582 C581 1.523 . S
H583 C558 0.950 . S
H584 C560 0.950 . S
H585 C561 0.949 . S
H586 C563 0.950 . S
H587 C565 0.950 . S
C588 C589 1.349 . S
C588 C590 1.327 . S
C588 H613 0.950 . S
C589 C588 1.349 . S
C589 C605 1.349 . S
C590 C588 1.327 . S
C590 C609 1.429 . S
C590 H614 0.950 . S
C591 C608 1.574 1_655 S
C591 C610 1.368 . S
C591 H615 0.949 . S
H592 C596 0.949 . S
C593 C594 1.349 . S
C593 C595 1.327 . S
C593 H616 0.950 . S
C594 C593 1.349 . S
C594 C606 1.349 . S
C595 C593 1.327 . S
C595 C611 1.429 . S
C595 H617 0.950 . S
C596 H592 0.949 . S
C596 C604 1.574 1_455 S
C596 C612 1.368 . S
H597 C605 0.950 . S
H598 C603 0.950 . S
H599 C604 0.949 . S
H600 C606 0.950 . S
H601 C607 0.950 . S
H602 C608 0.949 . S
C603 H598 0.950 . S
C603 C605 1.327 . S
C603 C609 1.429 . S
C604 C596 1.574 1_655 S
C604 H599 0.949 . S
C604 C610 1.368 . S
C605 C589 1.349 . S
C605 H597 0.950 . S
C605 C603 1.327 . S
C606 C594 1.349 . S
C606 H600 0.950 . S
C606 C607 1.327 . S
C607 H601 0.950 . S
C607 C606 1.327 . S
C607 C611 1.429 . S
C608 C591 1.574 1_455 S
C608 H602 0.949 . S
C608 C612 1.368 . S
C609 C590 1.429 . S
C609 C603 1.429 . S
C609 C610 1.523 . S
C610 C591 1.368 . S
C610 C604 1.368 . S
C610 C609 1.523 . S
C611 C595 1.429 . S
C611 C607 1.429 . S
C611 C612 1.523 . S
C612 C596 1.368 . S
C612 C608 1.368 . S
C612 C611 1.523 . S
H613 C588 0.950 . S
H614 C590 0.950 . S
H615 C591 0.949 . S
H616 C593 0.950 . S
H617 C595 0.950 . S
C618 C619 1.349 . S
C618 C620 1.327 . S
C618 H643 0.950 . S
C619 C618 1.349 . S
C619 C635 1.349 . S
C620 C618 1.327 . S
C620 C639 1.429 . S
C620 H644 0.950 . S
C621 C638 1.574 1_545 S
C621 C640 1.368 . S
C621 H645 0.949 . S
H622 C626 0.949 . S
C623 C624 1.349 . S
C623 C625 1.327 . S
C623 H646 0.950 . S
C624 C623 1.349 . S
C624 C636 1.349 . S
C625 C623 1.327 . S
C625 C641 1.429 . S
C625 H647 0.950 . S
C626 H622 0.949 . S
C626 C634 1.574 1_565 S
C626 C642 1.368 . S
H627 C635 0.950 . S
H628 C633 0.950 . S
H629 C634 0.949 . S
H630 C636 0.950 . S
H631 C637 0.950 . S
H632 C638 0.949 . S
C633 H628 0.950 . S
C633 C635 1.327 . S
C633 C639 1.429 . S
C634 C626 1.574 1_545 S
C634 H629 0.949 . S
C634 C640 1.368 . S
C635 C619 1.349 . S
C635 H627 0.950 . S
C635 C633 1.327 . S
C636 C624 1.349 . S
C636 H630 0.950 . S
C636 C637 1.327 . S
C637 H631 0.950 . S
C637 C636 1.327 . S
C637 C641 1.429 . S
C638 C621 1.574 1_565 S
C638 H632 0.949 . S
C638 C642 1.368 . S
C639 C620 1.429 . S
C639 C633 1.429 . S
C639 C640 1.523 . S
C640 C621 1.368 . S
C640 C634 1.368 . S
C640 C639 1.523 . S
C641 C625 1.429 . S
C641 C637 1.429 . S
C641 C642 1.523 . S
C642 C626 1.368 . S
C642 C638 1.368 . S
C642 C641 1.523 . S
H643 C618 0.950 . S
H644 C620 0.950 . S
H645 C621 0.949 . S
H646 C623 0.950 . S
H647 C625 0.950 . S
C648 C649 1.349 . S
C648 C650 1.327 . S
C648 H673 0.950 . S
C649 C648 1.349 . S
C649 C665 1.349 . S
C650 C648 1.327 . S
C650 C669 1.429 . S
C650 H674 0.950 . S
C651 C668 1.574 1_565 S
C651 C670 1.368 . S
C651 H675 0.949 . S
H652 C656 0.949 . S
C653 C654 1.349 . S
C653 C655 1.327 . S
C653 H676 0.950 . S
C654 C653 1.349 . S
C654 C666 1.349 . S
C655 C653 1.327 . S
C655 C671 1.429 . S
C655 H677 0.950 . S
C656 H652 0.949 . S
C656 C664 1.574 1_545 S
C656 C672 1.368 . S
H657 C665 0.950 . S
H658 C663 0.950 . S
H659 C664 0.949 . S
H660 C666 0.950 . S
H661 C667 0.950 . S
H662 C668 0.949 . S
C663 H658 0.950 . S
C663 C665 1.327 . S
C663 C669 1.429 . S
C664 C656 1.574 1_565 S
C664 H659 0.949 . S
C664 C670 1.368 . S
C665 C649 1.349 . S
C665 H657 0.950 . S
C665 C663 1.327 . S
C666 C654 1.349 . S
C666 H660 0.950 . S
C666 C667 1.327 . S
C667 H661 0.950 . S
C667 C666 1.327 . S
C667 C671 1.429 . S
C668 C651 1.574 1_545 S
C668 H662 0.949 . S
C668 C672 1.368 . S
C669 C650 1.429 . S
C669 C663 1.429 . S
C669 C670 1.523 . S
C670 C651 1.368 . S
C670 C664 1.368 . S
C670 C669 1.523 . S
C671 C655 1.429 . S
C671 C667 1.429 . S
C671 C672 1.523 . S
C672 C656 1.368 . S
C672 C668 1.368 . S
C672 C671 1.523 . S
H673 C648 0.950 . S
H674 C650 0.950 . S
H675 C651 0.949 . S
H676 C653 0.950 . S
H677 C655 0.950 . S
C678 C679 1.349 . S
C678 C680 1.327 . S
C678 H703 0.950 . S
C679 C678 1.349 . S
C679 C695 1.349 . S
C680 C678 1.327 . S
C680 C699 1.429 . S
C680 H704 0.950 . S
C681 C698 1.574 1_455 S
C681 C700 1.368 . S
C681 H705 0.949 . S
H682 C686 0.949 . S
C683 C684 1.349 . S
C683 C685 1.327 . S
C683 H706 0.950 . S
C684 C683 1.349 . S
C684 C696 1.349 . S
C685 C683 1.327 . S
C685 C701 1.429 . S
C685 H707 0.950 . S
C686 H682 0.949 . S
C686 C694 1.574 1_655 S
C686 C702 1.368 . S
H687 C695 0.950 . S
H688 C693 0.950 . S
H689 C694 0.949 . S
H690 C696 0.950 . S
H691 C697 0.950 . S
H692 C698 0.949 . S
C693 H688 0.950 . S
C693 C695 1.327 . S
C693 C699 1.429 . S
C694 C686 1.574 1_455 S
C694 H689 0.949 . S
C694 C700 1.368 . S
C695 C679 1.349 . S
C695 H687 0.950 . S
C695 C693 1.327 . S
C696 C684 1.349 . S
C696 H690 0.950 . S
C696 C697 1.327 . S
C697 H691 0.950 . S
C697 C696 1.327 . S
C697 C701 1.429 . S
C698 C681 1.574 1_655 S
C698 H692 0.949 . S
C698 C702 1.368 . S
C699 C680 1.429 . S
C699 C693 1.429 . S
C699 C700 1.523 . S
C700 C681 1.368 . S
C700 C694 1.368 . S
C700 C699 1.523 . S
C701 C685 1.429 . S
C701 C697 1.429 . S
C701 C702 1.523 . S
C702 C686 1.368 . S
C702 C698 1.368 . S
C702 C701 1.523 . S
H703 C678 0.950 . S
H704 C680 0.950 . S
H705 C681 0.949 . S
H706 C683 0.950 . S
H707 C685 0.950 . S
C708 C709 1.349 . S
C708 C710 1.327 . S
C708 H733 0.950 . S
C709 C708 1.349 . S
C709 C725 1.349 . S
C710 C708 1.327 . S
C710 C729 1.429 . S
C710 H734 0.950 . S
C711 C728 1.527 1_565 S
C711 C730 1.368 . S
C711 H735 0.949 . S
H712 C716 0.949 . S
C713 C714 1.349 . S
C713 C715 1.327 . S
C713 H736 0.950 . S
C714 C713 1.349 . S
C714 C726 1.349 . S
C715 C713 1.327 . S
C715 C731 1.429 . S
C715 H737 0.950 . S
C716 H712 0.949 . S
C716 C724 1.527 1_545 S
C716 C732 1.368 . S
H717 C725 0.950 . S
H718 C723 0.950 . S
H719 C724 0.955 . S
H720 C726 0.950 . S
H721 C727 0.950 . S
H722 C728 0.955 . S
C723 H718 0.950 . S
C723 C725 1.327 . S
C723 C729 1.429 . S
C724 C716 1.527 1_565 S
C724 H719 0.955 . S
C724 C730 1.411 . S
C725 C709 1.349 . S
C725 H717 0.950 . S
C725 C723 1.327 . S
C726 C714 1.349 . S
C726 H720 0.950 . S
C726 C727 1.327 . S
C727 H721 0.950 . S
C727 C726 1.327 . S
C727 C731 1.429 . S
C728 C711 1.527 1_545 S
C728 H722 0.955 . S
C728 C732 1.411 . S
C729 C710 1.429 . S
C729 C723 1.429 . S
C729 C730 1.523 . S
C730 C711 1.368 . S
C730 C724 1.411 . S
C730 C729 1.523 . S
C731 C715 1.429 . S
C731 C727 1.429 . S
C731 C732 1.523 . S
C732 C716 1.368 . S
C732 C728 1.411 . S
C732 C731 1.523 . S
H733 C708 0.950 . S
H734 C710 0.950 . S
H735 C711 0.949 . S
H736 C713 0.950 . S
H737 C715 0.950 . S
C738 C739 1.349 . S
C738 C740 1.327 . S
C738 H763 0.950 . S
C739 C738 1.349 . S
C739 C755 1.349 . S
C740 C738 1.327 . S
C740 C759 1.429 . S
C740 H764 0.950 . S
C741 C758 1.574 1_455 S
C741 C760 1.368 . S
C741 H765 0.949 . S
H742 C746 0.949 . S
C743 C744 1.349 . S
C743 C745 1.327 . S
C743 H766 0.950 . S
C744 C743 1.349 . S
C744 C756 1.349 . S
C745 C743 1.327 . S
C745 C761 1.429 . S
C745 H767 0.950 . S
C746 H742 0.949 . S
C746 C754 1.574 1_655 S
C746 C762 1.368 . S
H747 C755 0.950 . S
H748 C753 0.950 . S
H749 C754 0.949 . S
H750 C756 0.950 . S
H751 C757 0.950 . S
H752 C758 0.949 . S
C753 H748 0.950 . S
C753 C755 1.327 . S
C753 C759 1.429 . S
C754 C746 1.574 1_455 S
C754 H749 0.949 . S
C754 C760 1.368 . S
C755 C739 1.349 . S
C755 H747 0.950 . S
C755 C753 1.327 . S
C756 C744 1.349 . S
C756 H750 0.950 . S
C756 C757 1.327 . S
C757 H751 0.950 . S
C757 C756 1.327 . S
C757 C761 1.429 . S
C758 C741 1.574 1_655 S
C758 H752 0.949 . S
C758 C762 1.368 . S
C759 C740 1.429 . S
C759 C753 1.429 . S
C759 C760 1.523 . S
C760 C741 1.368 . S
C760 C754 1.368 . S
C760 C759 1.523 . S
C761 C745 1.429 . S
C761 C757 1.429 . S
C761 C762 1.523 . S
C762 C746 1.368 . S
C762 C758 1.368 . S
C762 C761 1.523 . S
H763 C738 0.950 . S
H764 C740 0.950 . S
H765 C741 0.949 . S
H766 C743 0.950 . S
H767 C745 0.950 . S
C768 C769 1.349 . S
C768 C770 1.327 . S
C768 H793 0.950 . S
C769 C768 1.349 . S
C769 C785 1.349 . S
C770 C768 1.327 . S
C770 C789 1.429 . S
C770 H794 0.950 . S
C771 C788 1.574 1_556 S
C771 C790 1.368 . S
C771 H795 0.949 . S
H772 C776 0.949 . S
C773 C774 1.349 . S
C773 C775 1.327 . S
C773 H796 0.950 . S
C774 C773 1.349 . S
C774 C786 1.349 . S
C775 C773 1.327 . S
C775 C791 1.429 . S
C775 H797 0.950 . S
C776 H772 0.949 . S
C776 C784 1.574 1_554 S
C776 C792 1.368 . S
H777 C785 0.950 . S
H778 C783 0.950 . S
H779 C784 0.949 . S
H780 C786 0.950 . S
H781 C787 0.950 . S
H782 C788 0.949 . S
C783 H778 0.950 . S
C783 C785 1.327 . S
C783 C789 1.429 . S
C784 C776 1.574 1_556 S
C784 H779 0.949 . S
C784 C790 1.368 . S
C785 C769 1.349 . S
C785 H777 0.950 . S
C785 C783 1.327 . S
C786 C774 1.349 . S
C786 H780 0.950 . S
C786 C787 1.327 . S
C787 H781 0.950 . S
C787 C786 1.327 . S
C787 C791 1.429 . S
C788 C771 1.574 1_554 S
C788 H782 0.949 . S
C788 C792 1.368 . S
C789 C770 1.429 . S
C789 C783 1.429 . S
C789 C790 1.523 . S
C790 C771 1.368 . S
C790 C784 1.368 . S
C790 C789 1.523 . S
C791 C775 1.429 . S
C791 C787 1.429 . S
C791 C792 1.523 . S
C792 C776 1.368 . S
C792 C788 1.368 . S
C792 C791 1.523 . S
H793 C768 0.950 . S
H794 C770 0.950 . S
H795 C771 0.949 . S
H796 C773 0.950 . S
H797 C775 0.950 . S
C798 C799 1.349 . S
C798 C800 1.327 . S
C798 H823 0.950 . S
C799 C798 1.349 . S
C799 C815 1.349 . S
C800 C798 1.327 . S
C800 C819 1.429 . S
C800 H824 0.950 . S
C801 C818 1.574 1_556 S
C801 C820 1.368 . S
C801 H825 0.949 . S
H802 C806 0.949 . S
C803 C804 1.349 . S
C803 C805 1.327 . S
C803 H826 0.950 . S
C804 C803 1.349 . S
C804 C816 1.349 . S
C805 C803 1.327 . S
C805 C821 1.429 . S
C805 H827 0.950 . S
C806 H802 0.949 . S
C806 C814 1.574 1_554 S
C806 C822 1.368 . S
H807 C815 0.950 . S
H808 C813 0.950 . S
H809 C814 0.949 . S
H810 C816 0.950 . S
H811 C817 0.950 . S
H812 C818 0.949 . S
C813 H808 0.950 . S
C813 C815 1.327 . S
C813 C819 1.429 . S
C814 C806 1.574 1_556 S
C814 H809 0.949 . S
C814 C820 1.368 . S
C815 C799 1.349 . S
C815 H807 0.950 . S
C815 C813 1.327 . S
C816 C804 1.349 . S
C816 H810 0.950 . S
C816 C817 1.327 . S
C817 H811 0.950 . S
C817 C816 1.327 . S
C817 C821 1.429 . S
C818 C801 1.574 1_554 S
C818 H812 0.949 . S
C818 C822 1.368 . S
C819 C800 1.429 . S
C819 C813 1.429 . S
C819 C820 1.523 . S
C820 C801 1.368 . S
C820 C814 1.368 . S
C820 C819 1.523 . S
C821 C805 1.429 . S
C821 C817 1.429 . S
C821 C822 1.523 . S
C822 C806 1.368 . S
C822 C818 1.368 . S
C822 C821 1.523 . S
H823 C798 0.950 . S
H824 C800 0.950 . S
H825 C801 0.949 . S
H826 C803 0.950 . S
H827 C805 0.950 . S
C828 C829 1.349 . S
C828 C830 1.327 . S
C828 H853 0.950 . S
C829 C828 1.349 . S
C829 C845 1.349 . S
C830 C828 1.327 . S
C830 C849 1.429 . S
C830 H854 0.950 . S
C831 C848 1.564 1_554 S
C831 C850 1.377 . S
C831 H855 0.948 . S
H832 C836 0.948 . S
C833 C834 1.349 . S
C833 C835 1.327 . S
C833 H856 0.950 . S
C834 C833 1.349 . S
C834 C846 1.349 . S
C835 C833 1.327 . S
C835 C851 1.429 . S
C835 H857 0.950 . S
C836 H832 0.948 . S
C836 C844 1.564 1_556 S
C836 C852 1.377 . S
H837 C845 0.950 . S
H838 C843 0.950 . S
H839 C844 0.949 . S
H840 C846 0.950 . S
H841 C847 0.950 . S
H842 C848 0.949 . S
C843 H838 0.950 . S
C843 C845 1.327 . S
C843 C849 1.429 . S
C844 C836 1.564 1_554 S
C844 H839 0.949 . S
C844 C850 1.368 . S
C845 C829 1.349 . S
C845 H837 0.950 . S
C845 C843 1.327 . S
C846 C834 1.349 . S
C846 H840 0.950 . S
C846 C847 1.327 . S
C847 H841 0.950 . S
C847 C846 1.327 . S
C847 C851 1.429 . S
C848 C831 1.564 1_556 S
C848 H842 0.949 . S
C848 C852 1.368 . S
C849 C830 1.429 . S
C849 C843 1.429 . S
C849 C850 1.523 . S
C850 C831 1.377 . S
C850 C844 1.368 . S
C850 C849 1.523 . S
C851 C835 1.429 . S
C851 C847 1.429 . S
C851 C852 1.523 . S
C852 C836 1.377 . S
C852 C848 1.368 . S
C852 C851 1.523 . S
H853 C828 0.950 . S
H854 C830 0.950 . S
H855 C831 0.948 . S
H856 C833 0.950 . S
H857 C835 0.950 . S
C858 C859 1.349 . S
C858 C860 1.327 . S
C858 H883 0.950 . S
C859 C858 1.349 . S
C859 C875 1.349 . S
C860 C858 1.327 . S
C860 C879 1.429 . S
C860 H884 0.950 . S
C861 C878 1.574 1_554 S
C861 C880 1.368 . S
C861 H885 0.949 . S
H862 C866 0.949 . S
C863 C864 1.349 . S
C863 C865 1.327 . S
C863 H886 0.950 . S
C864 C863 1.349 . S
C864 C876 1.349 . S
C865 C863 1.327 . S
C865 C881 1.429 . S
C865 H887 0.950 . S
C866 H862 0.949 . S
C866 C874 1.574 1_556 S
C866 C882 1.368 . S
H867 C875 0.950 . S
H868 C873 0.950 . S
H869 C874 0.949 . S
H870 C876 0.950 . S
H871 C877 0.950 . S
H872 C878 0.949 . S
C873 H868 0.950 . S
C873 C875 1.327 . S
C873 C879 1.429 . S
C874 C866 1.574 1_554 S
C874 H869 0.949 . S
C874 C880 1.368 . S
C875 C859 1.349 . S
C875 H867 0.950 . S
C875 C873 1.327 . S
C876 C864 1.349 . S
C876 H870 0.950 . S
C876 C877 1.327 . S
C877 H871 0.950 . S
C877 C876 1.327 . S
C877 C881 1.429 . S
C878 C861 1.574 1_556 S
C878 H872 0.949 . S
C878 C882 1.368 . S
C879 C860 1.429 . S
C879 C873 1.429 . S
C879 C880 1.523 . S
C880 C861 1.368 . S
C880 C874 1.368 . S
C880 C879 1.523 . S
C881 C865 1.429 . S
C881 C877 1.429 . S
C881 C882 1.523 . S
C882 C866 1.368 . S
C882 C878 1.368 . S
C882 C881 1.523 . S
H883 C858 0.950 . S
H884 C860 0.950 . S
H885 C861 0.949 . S
H886 C863 0.950 . S
H887 C865 0.950 . S
C888 C889 1.349 . S
C888 C890 1.327 . S
C888 H913 0.950 . S
C889 C888 1.349 . S
C889 C905 1.349 . S
C890 C888 1.327 . S
C890 C909 1.429 . S
C890 H914 0.950 . S
C891 C908 1.574 . S
C891 C910 1.368 1_545 S
C891 H915 0.949 . S
H892 C896 0.949 . S
C893 C894 1.349 . S
C893 C895 1.327 . S
C893 H916 0.950 . S
C894 C893 1.349 . S
C894 C906 1.349 . S
C895 C893 1.327 . S
C895 C911 1.429 . S
C895 H917 0.950 . S
C896 H892 0.949 . S
C896 C904 1.574 . S
C896 C912 1.368 1_565 S
H897 C905 0.950 . S
H898 C903 0.950 . S
H899 C904 0.949 . S
H900 C906 0.950 . S
H901 C907 0.950 . S
H902 C908 0.949 . S
C903 H898 0.950 . S
C903 C905 1.327 . S
C903 C909 1.429 . S
C904 C896 1.574 . S
C904 H899 0.949 . S
C904 C910 1.368 . S
C905 C889 1.349 . S
C905 H897 0.950 . S
C905 C903 1.327 . S
C906 C894 1.349 . S
C906 H900 0.950 . S
C906 C907 1.327 . S
C907 H901 0.950 . S
C907 C906 1.327 . S
C907 C911 1.429 . S
C908 C891 1.574 . S
C908 H902 0.949 . S
C908 C912 1.368 . S
C909 C890 1.429 . S
C909 C903 1.429 . S
C909 C910 1.523 . S
C910 C891 1.368 1_565 S
C910 C904 1.368 . S
C910 C909 1.523 . S
C911 C895 1.429 . S
C911 C907 1.429 . S
C911 C912 1.523 . S
C912 C896 1.368 1_545 S
C912 C908 1.368 . S
C912 C911 1.523 . S
H913 C888 0.950 . S
H914 C890 0.950 . S
H915 C891 0.949 . S
H916 C893 0.950 . S
H917 C895 0.950 . S
C918 C919 1.349 . S
C918 C920 1.327 . S
C918 H943 0.950 . S
C919 C918 1.349 . S
C919 C935 1.349 . S
C920 C918 1.327 . S
C920 C939 1.429 . S
C920 H944 0.950 . S
C921 C938 1.574 . S
C921 C940 1.368 . S
C921 H945 0.949 . S
H922 C926 0.949 . S
C923 C924 1.349 . S
C923 C925 1.327 . S
C923 H946 0.950 . S
C924 C923 1.349 . S
C924 C936 1.349 . S
C925 C923 1.327 . S
C925 C941 1.429 . S
C925 H947 0.950 . S
C926 H922 0.949 . S
C926 C934 1.574 . S
C926 C942 1.368 . S
H927 C935 0.950 . S
H928 C933 0.950 . S
H929 C934 0.949 . S
H930 C936 0.950 . S
H931 C937 0.950 . S
H932 C938 0.949 . S
C933 H928 0.950 . S
C933 C935 1.327 . S
C933 C939 1.429 . S
C934 C926 1.574 . S
C934 H929 0.949 . S
C934 C940 1.368 1_655 S
C935 C919 1.349 . S
C935 H927 0.950 . S
C935 C933 1.327 . S
C936 C924 1.349 . S
C936 H930 0.950 . S
C936 C937 1.327 . S
C937 H931 0.950 . S
C937 C936 1.327 . S
C937 C941 1.429 . S
C938 C921 1.574 . S
C938 H932 0.949 . S
C938 C942 1.368 1_455 S
C939 C920 1.429 . S
C939 C933 1.429 . S
C939 C940 1.523 . S
C940 C921 1.368 . S
C940 C934 1.368 1_455 S
C940 C939 1.523 . S
C941 C925 1.429 . S
C941 C937 1.429 . S
C941 C942 1.523 . S
C942 C926 1.368 . S
C942 C938 1.368 1_655 S
C942 C941 1.523 . S
H943 C918 0.950 . S
H944 C920 0.950 . S
H945 C921 0.949 . S
H946 C923 0.950 . S
H947 C925 0.950 . S
C948 C949 1.349 . S
C948 C950 1.327 . S
C948 H973 0.950 . S
C949 C948 1.349 . S
C949 C965 1.349 . S
C950 C948 1.327 . S
C950 C969 1.429 . S
C950 H974 0.950 . S
C951 C968 1.574 . S
C951 C970 1.368 1_545 S
C951 H975 0.949 . S
H952 C956 0.949 . S
C953 C954 1.349 . S
C953 C955 1.327 . S
C953 H976 0.950 . S
C954 C953 1.349 . S
C954 C966 1.349 . S
C955 C953 1.327 . S
C955 C971 1.429 . S
C955 H977 0.950 . S
C956 H952 0.949 . S
C956 C964 1.574 . S
C956 C972 1.368 1_565 S
H957 C965 0.950 . S
H958 C963 0.950 . S
H959 C964 0.949 . S
H960 C966 0.950 . S
H961 C967 0.950 . S
H962 C968 0.949 . S
C963 H958 0.950 . S
C963 C965 1.327 . S
C963 C969 1.429 . S
C964 C956 1.574 . S
C964 H959 0.949 . S
C964 C970 1.368 . S
C965 C949 1.349 . S
C965 H957 0.950 . S
C965 C963 1.327 . S
C966 C954 1.349 . S
C966 H960 0.950 . S
C966 C967 1.327 . S
C967 H961 0.950 . S
C967 C966 1.327 . S
C967 C971 1.429 . S
C968 C951 1.574 . S
C968 H962 0.949 . S
C968 C972 1.368 . S
C969 C950 1.429 . S
C969 C963 1.429 . S
C969 C970 1.523 . S
C970 C951 1.368 1_565 S
C970 C964 1.368 . S
C970 C969 1.523 . S
C971 C955 1.429 . S
C971 C967 1.429 . S
C971 C972 1.523 . S
C972 C956 1.368 1_545 S
C972 C968 1.368 . S
C972 C971 1.523 . S
H973 C948 0.950 . S
H974 C950 0.950 . S
H975 C951 0.949 . S
H976 C953 0.950 . S
H977 C955 0.950 . S
C978 C979 1.349 . S
C978 C980 1.327 . S
C978 H1003 0.950 . S
C979 C978 1.349 . S
C979 C995 1.349 . S
C980 C978 1.327 . S
C980 C999 1.429 . S
C980 H1004 0.950 . S
C981 C998 1.574 . S
C981 C1000 1.368 . S
C981 H1005 0.949 . S
H982 C986 0.949 . S
C983 C984 1.349 . S
C983 C985 1.327 . S
C983 H1006 0.950 . S
C984 C983 1.349 . S
C984 C996 1.349 . S
C985 C983 1.327 . S
C985 C1001 1.429 . S
C985 H1007 0.950 . S
C986 H982 0.949 . S
C986 C994 1.574 . S
C986 C1002 1.368 . S
H987 C995 0.950 . S
H988 C993 0.950 . S
H989 C994 0.949 . S
H990 C996 0.950 . S
H991 C997 0.950 . S
H992 C998 0.949 . S
C993 H988 0.950 . S
C993 C995 1.327 . S
C993 C999 1.429 . S
C994 C986 1.574 . S
C994 H989 0.949 . S
C994 C1000 1.368 1_655 S
C995 C979 1.349 . S
C995 H987 0.950 . S
C995 C993 1.327 . S
C996 C984 1.349 . S
C996 H990 0.950 . S
C996 C997 1.327 . S
C997 H991 0.950 . S
C997 C996 1.327 . S
C997 C1001 1.429 . S
C998 C981 1.574 . S
C998 H992 0.949 . S
C998 C1002 1.368 1_455 S
C999 C980 1.429 . S
C999 C993 1.429 . S
C999 C1000 1.523 . S
C1000 C981 1.368 . S
C1000 C994 1.368 1_455 S
C1000 C999 1.523 . S
C1001 C985 1.429 . S
C1001 C997 1.429 . S
C1001 C1002 1.523 . S
C1002 C986 1.368 . S
C1002 C998 1.368 1_655 S
C1002 C1001 1.523 . S
H1003 C978 0.950 . S
H1004 C980 0.950 . S
H1005 C981 0.949 . S
H1006 C983 0.950 . S
H1007 C985 0.950 . S
C1008 C1009 1.349 . S
C1008 C1010 1.327 . S
C1008 H1033 0.950 . S
C1009 C1008 1.349 . S
C1009 C1025 1.349 . S
C1010 C1008 1.327 . S
C1010 C1029 1.429 . S
C1010 H1034 0.950 . S
C1011 C1028 1.574 . S
C1011 C1030 1.368 . S
C1011 H1035 0.949 . S
H1012 C1016 0.949 . S
C1013 C1014 1.349 . S
C1013 C1015 1.327 . S
C1013 H1036 0.950 . S
C1014 C1013 1.349 . S
C1014 C1026 1.349 . S
C1015 C1013 1.327 . S
C1015 C1031 1.429 . S
C1015 H1037 0.950 . S
C1016 H1012 0.949 . S
C1016 C1024 1.574 . S
C1016 C1032 1.368 . S
H1017 C1025 0.950 . S
H1018 C1023 0.950 . S
H1019 C1024 0.949 . S
H1020 C1026 0.950 . S
H1021 C1027 0.950 . S
H1022 C1028 0.949 . S
C1023 H1018 0.950 . S
C1023 C1025 1.327 . S
C1023 C1029 1.429 . S
C1024 C1016 1.574 . S
C1024 H1019 0.949 . S
C1024 C1030 1.368 1_554 S
C1025 C1009 1.349 . S
C1025 H1017 0.950 . S
C1025 C1023 1.327 . S
C1026 C1014 1.349 . S
C1026 H1020 0.950 . S
C1026 C1027 1.327 . S
C1027 H1021 0.950 . S
C1027 C1026 1.327 . S
C1027 C1031 1.429 . S
C1028 C1011 1.574 . S
C1028 H1022 0.949 . S
C1028 C1032 1.368 1_556 S
C1029 C1010 1.429 . S
C1029 C1023 1.429 . S
C1029 C1030 1.523 . S
C1030 C1011 1.368 . S
C1030 C1024 1.368 1_556 S
C1030 C1029 1.523 . S
C1031 C1015 1.429 . S
C1031 C1027 1.429 . S
C1031 C1032 1.523 . S
C1032 C1016 1.368 . S
C1032 C1028 1.368 1_554 S
C1032 C1031 1.523 . S
H1033 C1008 0.950 . S
H1034 C1010 0.950 . S
H1035 C1011 0.949 . S
H1036 C1013 0.950 . S
H1037 C1015 0.950 . S
C1038 C1039 1.349 . S
C1038 C1040 1.327 . S
C1038 H1063 0.950 . S
C1039 C1038 1.349 . S
C1039 C1055 1.349 . S
C1040 C1038 1.327 . S
C1040 C1059 1.429 . S
C1040 H1064 0.950 . S
C1041 C1058 1.574 . S
C1041 C1060 1.368 1_554 S
C1041 H1065 0.949 . S
H1042 C1046 0.949 . S
C1043 C1044 1.349 . S
C1043 C1045 1.327 . S
C1043 H1066 0.950 . S
C1044 C1043 1.349 . S
C1044 C1056 1.349 . S
C1045 C1043 1.327 . S
C1045 C1061 1.429 . S
C1045 H1067 0.950 . S
C1046 H1042 0.949 . S
C1046 C1054 1.574 . S
C1046 C1062 1.368 1_556 S
H1047 C1055 0.950 . S
H1048 C1053 0.950 . S
H1049 C1054 0.949 . S
H1050 C1056 0.950 . S
H1051 C1057 0.950 . S
H1052 C1058 0.949 . S
C1053 H1048 0.950 . S
C1053 C1055 1.327 . S
C1053 C1059 1.429 . S
C1054 C1046 1.574 . S
C1054 H1049 0.949 . S
C1054 C1060 1.368 . S
C1055 C1039 1.349 . S
C1055 H1047 0.950 . S
C1055 C1053 1.327 . S
C1056 C1044 1.349 . S
C1056 H1050 0.950 . S
C1056 C1057 1.327 . S
C1057 H1051 0.950 . S
C1057 C1056 1.327 . S
C1057 C1061 1.429 . S
C1058 C1041 1.574 . S
C1058 H1052 0.949 . S
C1058 C1062 1.368 . S
C1059 C1040 1.429 . S
C1059 C1053 1.429 . S
C1059 C1060 1.523 . S
C1060 C1041 1.368 1_556 S
C1060 C1054 1.368 . S
C1060 C1059 1.523 . S
C1061 C1045 1.429 . S
C1061 C1057 1.429 . S
C1061 C1062 1.523 . S
C1062 C1046 1.368 1_554 S
C1062 C1058 1.368 . S
C1062 C1061 1.523 . S
H1063 C1038 0.950 . S
H1064 C1040 0.950 . S
H1065 C1041 0.949 . S
H1066 C1043 0.950 . S
H1067 C1045 0.950 . S
C1068 C1069 1.349 . S
C1068 C1070 1.327 . S
C1068 H1093 0.950 . S
C1069 C1068 1.349 . S
C1069 C1085 1.349 . S
C1070 C1068 1.327 . S
C1070 C1089 1.429 . S
C1070 H1094 0.944 1_556 S
C1071 C1088 1.574 . S
C1071 C1090 1.368 . S
C1071 H1095 0.949 . S
H1072 C1076 0.949 . S
C1073 C1074 1.349 . S
C1073 C1075 1.327 . S
C1073 H1096 0.950 . S
C1074 C1073 1.349 . S
C1074 C1086 1.349 . S
C1075 C1073 1.327 . S
C1075 C1091 1.429 . S
C1075 H1097 0.944 1_554 S
C1076 H1072 0.949 . S
C1076 C1084 1.574 . S
C1076 C1092 1.368 . S
H1077 C1085 0.950 . S
H1078 C1083 0.950 . S
H1079 C1084 0.949 . S
H1080 C1086 0.950 . S
H1081 C1087 0.950 . S
H1082 C1088 0.949 . S
C1083 H1078 0.950 . S
C1083 C1085 1.327 . S
C1083 C1089 1.429 . S
C1084 C1076 1.574 . S
C1084 H1079 0.949 . S
C1084 C1090 1.368 1_554 S
C1085 C1069 1.349 . S
C1085 H1077 0.950 . S
C1085 C1083 1.327 . S
C1086 C1074 1.349 . S
C1086 H1080 0.950 . S
C1086 C1087 1.327 . S
C1087 H1081 0.950 . S
C1087 C1086 1.327 . S
C1087 C1091 1.429 . S
C1088 C1071 1.574 . S
C1088 H1082 0.949 . S
C1088 C1092 1.368 1_556 S
C1089 C1070 1.429 . S
C1089 C1083 1.429 . S
C1089 C1090 1.523 . S
C1090 C1071 1.368 . S
C1090 C1084 1.368 1_556 S
C1090 C1089 1.523 . S
C1091 C1075 1.429 . S
C1091 C1087 1.429 . S
C1091 C1092 1.523 . S
C1092 C1076 1.368 . S
C1092 C1088 1.368 1_554 S
C1092 C1091 1.523 . S
H1093 C1068 0.950 . S
H1094 C1070 0.944 1_554 S
H1095 C1071 0.949 . S
H1096 C1073 0.950 . S
H1097 C1075 0.944 1_556 S
C1098 C1099 1.349 . S
C1098 C1100 1.327 . S
C1098 H1123 0.950 . S
C1099 C1098 1.349 . S
C1099 C1115 1.349 . S
C1100 C1098 1.327 . S
C1100 C1119 1.429 . S
C1100 H1124 0.950 . S
C1101 C1118 1.574 . S
C1101 C1120 1.368 1_556 S
C1101 H1125 0.949 . S
H1102 C1106 0.949 . S
C1103 C1104 1.349 . S
C1103 C1105 1.327 . S
C1103 H1126 0.950 . S
C1104 C1103 1.349 . S
C1104 C1116 1.349 . S
C1105 C1103 1.327 . S
C1105 C1121 1.429 . S
C1105 H1127 0.950 . S
C1106 H1102 0.949 . S
C1106 C1114 1.574 . S
C1106 C1122 1.368 1_554 S
H1107 C1115 0.950 . S
H1108 C1113 0.950 . S
H1109 C1114 0.949 . S
H1110 C1116 0.950 . S
H1111 C1117 0.950 . S
H1112 C1118 0.949 . S
C1113 H1108 0.950 . S
C1113 C1115 1.327 . S
C1113 C1119 1.429 . S
C1114 C1106 1.574 . S
C1114 H1109 0.949 . S
C1114 C1120 1.368 . S
C1115 C1099 1.349 . S
C1115 H1107 0.950 . S
C1115 C1113 1.327 . S
C1116 C1104 1.349 . S
C1116 H1110 0.950 . S
C1116 C1117 1.327 . S
C1117 H1111 0.950 . S
C1117 C1116 1.327 . S
C1117 C1121 1.429 . S
C1118 C1101 1.574 . S
C1118 H1112 0.949 . S
C1118 C1122 1.368 . S
C1119 C1100 1.429 . S
C1119 C1113 1.429 . S
C1119 C1120 1.523 . S
C1120 C1101 1.368 1_554 S
C1120 C1114 1.368 . S
C1120 C1119 1.523 . S
C1121 C1105 1.429 . S
C1121 C1117 1.429 . S
C1121 C1122 1.523 . S
C1122 C1106 1.368 1_556 S
C1122 C1118 1.368 . S
C1122 C1121 1.523 . S
H1123 C1098 0.950 . S
H1124 C1100 0.950 . S
H1125 C1101 0.949 . S
H1126 C1103 0.950 . S
H1127 C1105 0.950 . S
C1128 C1129 1.349 . S
C1128 C1130 1.327 . S
C1128 H1153 0.950 . S
C1129 C1128 1.349 . S
C1129 C1145 1.349 . S
C1130 C1128 1.327 . S
C1130 C1149 1.429 . S
C1130 H1154 0.950 . S
C1131 C1148 1.574 . S
C1131 C1150 1.368 . S
C1131 H1155 0.949 . S
H1132 C1136 0.949 . S
C1133 C1134 1.349 . S
C1133 C1135 1.327 . S
C1133 H1156 0.950 . S
C1134 C1133 1.349 . S
C1134 C1146 1.349 . S
C1135 C1133 1.327 . S
C1135 C1151 1.429 . S
C1135 H1157 0.950 . S
C1136 H1132 0.949 . S
C1136 C1144 1.574 . S
C1136 C1152 1.368 . S
H1137 C1145 0.950 . S
H1138 C1143 0.950 . S
H1139 C1144 0.949 . S
H1140 C1146 0.950 . S
H1141 C1147 0.950 . S
H1142 C1148 0.949 . S
C1143 H1138 0.950 . S
C1143 C1145 1.327 . S
C1143 C1149 1.429 . S
C1144 C1136 1.574 . S
C1144 H1139 0.949 . S
C1144 C1150 1.368 1_655 S
C1145 C1129 1.349 . S
C1145 H1137 0.950 . S
C1145 C1143 1.327 . S
C1146 C1134 1.349 . S
C1146 H1140 0.950 . S
C1146 C1147 1.327 . S
C1147 H1141 0.950 . S
C1147 C1146 1.327 . S
C1147 C1151 1.429 . S
C1148 C1131 1.574 . S
C1148 H1142 0.949 . S
C1148 C1152 1.368 1_455 S
C1149 C1130 1.429 . S
C1149 C1143 1.429 . S
C1149 C1150 1.523 . S
C1150 C1131 1.368 . S
C1150 C1144 1.368 1_455 S
C1150 C1149 1.523 . S
C1151 C1135 1.429 . S
C1151 C1147 1.429 . S
C1151 C1152 1.523 . S
C1152 C1136 1.368 . S
C1152 C1148 1.368 1_655 S
C1152 C1151 1.523 . S
H1153 C1128 0.950 . S
H1154 C1130 0.950 . S
H1155 C1131 0.949 . S
H1156 C1133 0.950 . S
H1157 C1135 0.950 . S
C1158 C1159 1.349 . S
C1158 C1160 1.327 . S
C1158 H1183 0.950 . S
C1159 C1158 1.349 . S
C1159 C1175 1.349 . S
C1160 C1158 1.327 . S
C1160 C1179 1.429 . S
C1160 H1184 0.950 . S
C1161 C1178 1.574 . S
C1161 C1180 1.368 1_655 S
C1161 H1185 0.949 . S
H1162 C1166 0.949 . S
C1163 C1164 1.349 . S
C1163 C1165 1.327 . S
C1163 H1186 0.950 . S
C1164 C1163 1.349 . S
C1164 C1176 1.349 . S
C1165 C1163 1.327 . S
C1165 C1181 1.429 . S
C1165 H1187 0.950 . S
C1166 H1162 0.949 . S
C1166 C1174 1.574 . S
C1166 C1182 1.368 1_455 S
H1167 C1175 0.950 . S
H1168 C1173 0.950 . S
H1169 C1174 0.949 . S
H1170 C1176 0.950 . S
H1171 C1177 0.950 . S
H1172 C1178 0.949 . S
C1173 H1168 0.950 . S
C1173 C1175 1.327 . S
C1173 C1179 1.429 . S
C1174 C1166 1.574 . S
C1174 H1169 0.949 . S
C1174 C1180 1.368 . S
C1175 C1159 1.349 . S
C1175 H1167 0.950 . S
C1175 C1173 1.327 . S
C1176 C1164 1.349 . S
C1176 H1170 0.950 . S
C1176 C1177 1.327 . S
C1177 H1171 0.950 . S
C1177 C1176 1.327 . S
C1177 C1181 1.429 . S
C1178 C1161 1.574 . S
C1178 H1172 0.949 . S
C1178 C1182 1.368 . S
C1179 C1160 1.429 . S
C1179 C1173 1.429 . S
C1179 C1180 1.523 . S
C1180 C1161 1.368 1_455 S
C1180 C1174 1.368 . S
C1180 C1179 1.523 . S
C1181 C1165 1.429 . S
C1181 C1177 1.429 . S
C1181 C1182 1.523 . S
C1182 C1166 1.368 1_655 S
C1182 C1178 1.368 . S
C1182 C1181 1.523 . S
H1183 C1158 0.950 . S
H1184 C1160 0.950 . S
H1185 C1161 0.949 . S
H1186 C1163 0.950 . S
H1187 C1165 0.950 . S
C1188 C1189 1.349 . S
C1188 C1190 1.327 . S
C1188 H1213 0.950 . S
C1189 C1188 1.349 . S
C1189 C1205 1.349 . S
C1190 C1188 1.327 . S
C1190 C1209 1.429 . S
C1190 H1214 0.950 . S
C1191 C1208 1.574 . S
C1191 C1210 1.368 . S
C1191 H1215 0.949 . S
H1192 C1196 0.949 . S
C1193 C1194 1.349 . S
C1193 C1195 1.327 . S
C1193 H1216 0.950 . S
C1194 C1193 1.349 . S
C1194 C1206 1.349 . S
C1195 C1193 1.327 . S
C1195 C1211 1.429 . S
C1195 H1217 0.950 . S
C1196 H1192 0.949 . S
C1196 C1204 1.574 . S
C1196 C1212 1.368 . S
H1197 C1205 0.950 . S
H1198 C1203 0.950 . S
H1199 C1204 0.949 . S
H1200 C1206 0.950 . S
H1201 C1207 0.950 . S
H1202 C1208 0.949 . S
C1203 H1198 0.950 . S
C1203 C1205 1.327 . S
C1203 C1209 1.429 . S
C1204 C1196 1.574 . S
C1204 H1199 0.949 . S
C1204 C1210 1.368 1_565 S
C1205 C1189 1.349 . S
C1205 H1197 0.950 . S
C1205 C1203 1.327 . S
C1206 C1194 1.349 . S
C1206 H1200 0.950 . S
C1206 C1207 1.327 . S
C1207 H1201 0.950 . S
C1207 C1206 1.327 . S
C1207 C1211 1.429 . S
C1208 C1191 1.574 . S
C1208 H1202 0.949 . S
C1208 C1212 1.368 1_545 S
C1209 C1190 1.429 . S
C1209 C1203 1.429 . S
C1209 C1210 1.523 . S
C1210 C1191 1.368 . S
C1210 C1204 1.368 1_545 S
C1210 C1209 1.523 . S
C1211 C1195 1.429 . S
C1211 C1207 1.429 . S
C1211 C1212 1.523 . S
C1212 C1196 1.368 . S
C1212 C1208 1.368 1_565 S
C1212 C1211 1.523 . S
H1213 C1188 0.950 . S
H1214 C1190 0.950 . S
H1215 C1191 0.949 . S
H1216 C1193 0.950 . S
H1217 C1195 0.950 . S
C1218 C1219 1.349 . S
C1218 C1220 1.327 . S
C1218 H1243 0.950 . S
C1219 C1218 1.349 . S
C1219 C1235 1.349 . S
C1220 C1218 1.327 . S
C1220 C1239 1.429 . S
C1220 H1244 0.950 . S
C1221 C1238 1.574 . S
C1221 C1240 1.368 . S
C1221 H1245 0.949 . S
H1222 C1226 0.949 . S
C1223 C1224 1.349 . S
C1223 C1225 1.327 . S
C1223 H1246 0.950 . S
C1224 C1223 1.349 . S
C1224 C1236 1.349 . S
C1225 C1223 1.327 . S
C1225 C1241 1.429 . S
C1225 H1247 0.950 . S
C1226 H1222 0.949 . S
C1226 C1234 1.574 . S
C1226 C1242 1.368 . S
H1227 C1235 0.950 . S
H1228 C1233 0.950 . S
H1229 C1234 0.949 . S
H1230 C1236 0.950 . S
H1231 C1237 0.950 . S
H1232 C1238 0.949 . S
C1233 H1228 0.950 . S
C1233 C1235 1.327 . S
C1233 C1239 1.429 . S
C1234 C1226 1.574 . S
C1234 H1229 0.949 . S
C1234 C1240 1.368 1_545 S
C1235 C1219 1.349 . S
C1235 H1227 0.950 . S
C1235 C1233 1.327 . S
C1236 C1224 1.349 . S
C1236 H1230 0.950 . S
C1236 C1237 1.327 . S
C1237 H1231 0.950 . S
C1237 C1236 1.327 . S
C1237 C1241 1.429 . S
C1238 C1221 1.574 . S
C1238 H1232 0.949 . S
C1238 C1242 1.368 1_565 S
C1239 C1220 1.429 . S
C1239 C1233 1.429 . S
C1239 C1240 1.523 . S
C1240 C1221 1.368 . S
C1240 C1234 1.368 1_565 S
C1240 C1239 1.523 . S
C1241 C1225 1.429 . S
C1241 C1237 1.429 . S
C1241 C1242 1.523 . S
C1242 C1226 1.368 . S
C1242 C1238 1.368 1_545 S
C1242 C1241 1.523 . S
H1243 C1218 0.950 . S
H1244 C1220 0.950 . S
H1245 C1221 0.949 . S
H1246 C1223 0.950 . S
H1247 C1225 0.950 . S
C1248 C1249 1.349 . S
C1248 C1250 1.327 . S
C1248 H1273 0.950 . S
C1249 C1248 1.349 . S
C1249 C1265 1.349 . S
C1250 C1248 1.327 . S
C1250 C1269 1.429 . S
C1250 H1274 0.950 . S
C1251 C1268 1.574 . S
C1251 C1270 1.368 . S
C1251 H1275 0.949 . S
H1252 C1256 0.949 . S
C1253 C1254 1.349 . S
C1253 C1255 1.327 . S
C1253 H1276 0.950 . S
C1254 C1253 1.349 . S
C1254 C1266 1.349 . S
C1255 C1253 1.327 . S
C1255 C1271 1.429 . S
C1255 H1277 0.950 . S
C1256 H1252 0.949 . S
C1256 C1264 1.574 . S
C1256 C1272 1.368 . S
H1257 C1265 0.950 . S
H1258 C1263 0.950 . S
H1259 C1264 0.949 . S
H1260 C1266 0.950 . S
H1261 C1267 0.950 . S
H1262 C1268 0.949 . S
C1263 H1258 0.950 . S
C1263 C1265 1.327 . S
C1263 C1269 1.429 . S
C1264 C1256 1.574 . S
C1264 H1259 0.949 . S
C1264 C1270 1.368 . S
C1265 C1249 1.349 . S
C1265 H1257 0.950 . S
C1265 C1263 1.327 . S
C1266 C1254 1.349 . S
C1266 H1260 0.950 . S
C1266 C1267 1.327 . S
C1267 H1261 0.950 . S
C1267 C1266 1.327 . S
C1267 C1271 1.429 . S
C1268 C1251 1.574 . S
C1268 H1262 0.949 . S
C1268 C1272 1.368 . S
C1269 C1250 1.429 . S
C1269 C1263 1.429 . S
C1269 C1270 1.523 . S
C1270 C1251 1.368 . S
C1270 C1264 1.368 . S
C1270 C1269 1.523 . S
C1271 C1255 1.429 . S
C1271 C1267 1.429 . S
C1271 C1272 1.523 . S
C1272 C1256 1.368 . S
C1272 C1268 1.368 . S
C1272 C1271 1.523 . S
H1273 C1248 0.950 . S
H1274 C1250 0.950 . S
H1275 C1251 0.949 . S
H1276 C1253 0.950 . S
H1277 C1255 0.950 . S
C1278 C1279 1.349 . S
C1278 C1280 1.327 . S
C1278 H1303 0.950 . S
C1279 C1278 1.349 . S
C1279 C1295 1.349 . S
C1280 C1278 1.327 . S
C1280 C1299 1.429 . S
C1280 H1304 0.950 . S
C1281 C1298 1.574 . S
C1281 C1300 1.368 . S
C1281 H1305 0.949 . S
H1282 C1286 0.949 . S
C1283 C1284 1.349 . S
C1283 C1285 1.327 . S
C1283 H1306 0.950 . S
C1284 C1283 1.349 . S
C1284 C1296 1.349 . S
C1285 C1283 1.327 . S
C1285 C1301 1.429 . S
C1285 H1307 0.950 . S
C1286 H1282 0.949 . S
C1286 C1294 1.574 . S
C1286 C1302 1.368 . S
H1287 C1295 0.950 . S
H1288 C1293 0.950 . S
H1289 C1294 0.949 . S
H1290 C1296 0.950 . S
H1291 C1297 0.950 . S
H1292 C1298 0.949 . S
C1293 H1288 0.950 . S
C1293 C1295 1.327 . S
C1293 C1299 1.429 . S
C1294 C1286 1.574 . S
C1294 H1289 0.949 . S
C1294 C1300 1.368 . S
C1295 C1279 1.349 . S
C1295 H1287 0.950 . S
C1295 C1293 1.327 . S
C1296 C1284 1.349 . S
C1296 H1290 0.950 . S
C1296 C1297 1.327 . S
C1297 H1291 0.950 . S
C1297 C1296 1.327 . S
C1297 C1301 1.429 . S
C1298 C1281 1.574 . S
C1298 H1292 0.949 . S
C1298 C1302 1.368 . S
C1299 C1280 1.429 . S
C1299 C1293 1.429 . S
C1299 C1300 1.523 . S
C1300 C1281 1.368 . S
C1300 C1294 1.368 . S
C1300 C1299 1.523 . S
C1301 C1285 1.429 . S
C1301 C1297 1.429 . S
C1301 C1302 1.523 . S
C1302 C1286 1.368 . S
C1302 C1298 1.368 . S
C1302 C1301 1.523 . S
H1303 C1278 0.950 . S
H1304 C1280 0.950 . S
H1305 C1281 0.949 . S
H1306 C1283 0.950 . S
H1307 C1285 0.950 . S
C1308 C1309 1.349 . S
C1308 C1310 1.327 . S
C1308 H1333 0.950 . S
C1309 C1308 1.349 . S
C1309 C1325 1.349 . S
C1310 C1308 1.327 . S
C1310 C1329 1.429 . S
C1310 H1334 0.950 . S
C1311 C1328 1.574 . S
C1311 C1330 1.368 . S
C1311 H1335 0.949 . S
H1312 C1316 0.949 . S
C1313 C1314 1.349 . S
C1313 C1315 1.327 . S
C1313 H1336 0.950 . S
C1314 C1313 1.349 . S
C1314 C1326 1.349 . S
C1315 C1313 1.327 . S
C1315 C1331 1.429 . S
C1315 H1337 0.950 . S
C1316 H1312 0.949 . S
C1316 C1324 1.574 . S
C1316 C1332 1.368 . S
H1317 C1325 0.950 . S
H1318 C1323 0.950 . S
H1319 C1324 0.949 . S
H1320 C1326 0.950 . S
H1321 C1327 0.950 . S
H1322 C1328 0.949 . S
C1323 H1318 0.950 . S
C1323 C1325 1.327 . S
C1323 C1329 1.429 . S
C1324 C1316 1.574 . S
C1324 H1319 0.949 . S
C1324 C1330 1.368 . S
C1325 C1309 1.349 . S
C1325 H1317 0.950 . S
C1325 C1323 1.327 . S
C1326 C1314 1.349 . S
C1326 H1320 0.950 . S
C1326 C1327 1.327 . S
C1327 H1321 0.950 . S
C1327 C1326 1.327 . S
C1327 C1331 1.429 . S
C1328 C1311 1.574 . S
C1328 H1322 0.949 . S
C1328 C1332 1.368 . S
C1329 C1310 1.429 . S
C1329 C1323 1.429 . S
C1329 C1330 1.523 . S
C1330 C1311 1.368 . S
C1330 C1324 1.368 . S
C1330 C1329 1.523 . S
C1331 C1315 1.429 . S
C1331 C1327 1.429 . S
C1331 C1332 1.523 . S
C1332 C1316 1.368 . S
C1332 C1328 1.368 . S
C1332 C1331 1.523 . S
H1333 C1308 0.950 . S
H1334 C1310 0.950 . S
H1335 C1311 0.949 . S
H1336 C1313 0.950 . S
H1337 C1315 0.950 . S
C1338 C1339 1.349 . S
C1338 C1340 1.327 . S
C1338 H1363 0.950 . S
C1339 C1338 1.349 . S
C1339 C1355 1.349 . S
C1340 C1338 1.327 . S
C1340 C1359 1.429 . S
C1340 H1364 0.950 . S
C1341 C1358 1.574 . S
C1341 C1360 1.368 . S
C1341 H1365 0.949 . S
H1342 C1346 0.949 . S
C1343 C1344 1.349 . S
C1343 C1345 1.327 . S
C1343 H1366 0.950 . S
C1344 C1343 1.349 . S
C1344 C1356 1.349 . S
C1345 C1343 1.327 . S
C1345 C1361 1.429 . S
C1345 H1367 0.950 . S
C1346 H1342 0.949 . S
C1346 C1354 1.574 . S
C1346 C1362 1.368 . S
H1347 C1355 0.950 . S
H1348 C1353 0.950 . S
H1349 C1354 0.949 . S
H1350 C1356 0.950 . S
H1351 C1357 0.950 . S
H1352 C1358 0.949 . S
C1353 H1348 0.950 . S
C1353 C1355 1.327 . S
C1353 C1359 1.429 . S
C1354 C1346 1.574 . S
C1354 H1349 0.949 . S
C1354 C1360 1.368 . S
C1355 C1339 1.349 . S
C1355 H1347 0.950 . S
C1355 C1353 1.327 . S
C1356 C1344 1.349 . S
C1356 H1350 0.950 . S
C1356 C1357 1.327 . S
C1357 H1351 0.950 . S
C1357 C1356 1.327 . S
C1357 C1361 1.429 . S
C1358 C1341 1.574 . S
C1358 H1352 0.949 . S
C1358 C1362 1.368 . S
C1359 C1340 1.429 . S
C1359 C1353 1.429 . S
C1359 C1360 1.523 . S
C1360 C1341 1.368 . S
C1360 C1354 1.368 . S
C1360 C1359 1.523 . S
C1361 C1345 1.429 . S
C1361 C1357 1.429 . S
C1361 C1362 1.523 . S
C1362 C1346 1.368 . S
C1362 C1358 1.368 . S
C1362 C1361 1.523 . S
H1363 C1338 0.950 . S
H1364 C1340 0.950 . S
H1365 C1341 0.949 . S
H1366 C1343 0.950 . S
H1367 C1345 0.950 . S
C1368 C1369 1.349 . S
C1368 C1370 1.327 . S
C1368 H1393 0.950 . S
C1369 C1368 1.349 . S
C1369 C1385 1.349 . S
C1370 C1368 1.327 . S
C1370 C1389 1.429 . S
C1370 H1394 0.950 . S
C1371 C1388 1.574 . S
C1371 C1390 1.368 . S
C1371 H1395 0.949 . S
H1372 C1376 0.949 . S
C1373 C1374 1.349 . S
C1373 C1375 1.327 . S
C1373 H1396 0.950 . S
C1374 C1373 1.349 . S
C1374 C1386 1.349 . S
C1375 C1373 1.327 . S
C1375 C1391 1.429 . S
C1375 H1397 0.950 . S
C1376 H1372 0.949 . S
C1376 C1384 1.574 . S
C1376 C1392 1.368 . S
H1377 C1385 0.950 . S
H1378 C1383 0.950 . S
H1379 C1384 0.949 . S
H1380 C1386 0.950 . S
H1381 C1387 0.950 . S
H1382 C1388 0.949 . S
C1383 H1378 0.950 . S
C1383 C1385 1.327 . S
C1383 C1389 1.429 . S
C1384 C1376 1.574 . S
C1384 H1379 0.949 . S
C1384 C1390 1.368 . S
C1385 C1369 1.349 . S
C1385 H1377 0.950 . S
C1385 C1383 1.327 . S
C1386 C1374 1.349 . S
C1386 H1380 0.950 . S
C1386 C1387 1.327 . S
C1387 H1381 0.950 . S
C1387 C1386 1.327 . S
C1387 C1391 1.429 . S
C1388 C1371 1.574 . S
C1388 H1382 0.949 . S
C1388 C1392 1.368 . S
C1389 C1370 1.429 . S
C1389 C1383 1.429 . S
C1389 C1390 1.523 . S
C1390 C1371 1.368 . S
C1390 C1384 1.368 . S
C1390 C1389 1.523 . S
C1391 C1375 1.429 . S
C1391 C1387 1.429 . S
C1391 C1392 1.523 . S
C1392 C1376 1.368 . S
C1392 C1388 1.368 . S
C1392 C1391 1.523 . S
H1393 C1368 0.950 . S
H1394 C1370 0.950 . S
H1395 C1371 0.949 . S
H1396 C1373 0.950 . S
H1397 C1375 0.950 . S
C1398 C1399 1.349 . S
C1398 C1400 1.327 . S
C1398 H1423 0.950 . S
C1399 C1398 1.349 . S
C1399 C1415 1.349 . S
C1400 C1398 1.327 . S
C1400 C1419 1.429 . S
C1400 H1424 0.950 . S
C1401 C1418 1.574 . S
C1401 C1420 1.368 . S
C1401 H1425 0.949 . S
H1402 C1406 0.949 . S
C1403 C1404 1.349 . S
C1403 C1405 1.327 . S
C1403 H1426 0.950 . S
C1404 C1403 1.349 . S
C1404 C1416 1.349 . S
C1405 C1403 1.327 . S
C1405 C1421 1.429 . S
C1405 H1427 0.950 . S
C1406 H1402 0.949 . S
C1406 C1414 1.574 . S
C1406 C1422 1.368 . S
H1407 C1415 0.950 . S
H1408 C1413 0.950 . S
H1409 C1414 0.949 . S
H1410 C1416 0.950 . S
H1411 C1417 0.950 . S
H1412 C1418 0.949 . S
C1413 H1408 0.950 . S
C1413 C1415 1.327 . S
C1413 C1419 1.429 . S
C1414 C1406 1.574 . S
C1414 H1409 0.949 . S
C1414 C1420 1.368 . S
C1415 C1399 1.349 . S
C1415 H1407 0.950 . S
C1415 C1413 1.327 . S
C1416 C1404 1.349 . S
C1416 H1410 0.950 . S
C1416 C1417 1.327 . S
C1417 H1411 0.950 . S
C1417 C1416 1.327 . S
C1417 C1421 1.429 . S
C1418 C1401 1.574 . S
C1418 H1412 0.949 . S
C1418 C1422 1.368 . S
C1419 C1400 1.429 . S
C1419 C1413 1.429 . S
C1419 C1420 1.523 . S
C1420 C1401 1.368 . S
C1420 C1414 1.368 . S
C1420 C1419 1.523 . S
C1421 C1405 1.429 . S
C1421 C1417 1.429 . S
C1421 C1422 1.523 . S
C1422 C1406 1.368 . S
C1422 C1418 1.368 . S
C1422 C1421 1.523 . S
H1423 C1398 0.950 . S
H1424 C1400 0.950 . S
H1425 C1401 0.949 . S
H1426 C1403 0.950 . S
H1427 C1405 0.950 . S
C1428 C1429 1.349 . S
C1428 C1430 1.327 . S
C1428 H1453 0.950 . S
C1429 C1428 1.349 . S
C1429 C1445 1.349 . S
C1430 C1428 1.327 . S
C1430 C1449 1.429 . S
C1430 H1454 0.950 . S
C1431 C1448 1.574 . S
C1431 C1450 1.368 . S
C1431 H1455 0.949 . S
H1432 C1436 0.949 . S
C1433 C1434 1.349 . S
C1433 C1435 1.327 . S
C1433 H1456 0.950 . S
C1434 C1433 1.349 . S
C1434 C1446 1.349 . S
C1435 C1433 1.327 . S
C1435 C1451 1.429 . S
C1435 H1457 0.950 . S
C1436 H1432 0.949 . S
C1436 C1444 1.574 . S
C1436 C1452 1.368 . S
H1437 C1445 0.950 . S
H1438 C1443 0.950 . S
H1439 C1444 0.949 . S
H1440 C1446 0.950 . S
H1441 C1447 0.950 . S
H1442 C1448 0.949 . S
C1443 H1438 0.950 . S
C1443 C1445 1.327 . S
C1443 C1449 1.429 . S
C1444 C1436 1.574 . S
C1444 H1439 0.949 . S
C1444 C1450 1.368 . S
C1445 C1429 1.349 . S
C1445 H1437 0.950 . S
C1445 C1443 1.327 . S
C1446 C1434 1.349 . S
C1446 H1440 0.950 . S
C1446 C1447 1.327 . S
C1447 H1441 0.950 . S
C1447 C1446 1.327 . S
C1447 C1451 1.429 . S
C1448 C1431 1.574 . S
C1448 H1442 0.949 . S
C1448 C1452 1.368 . S
C1449 C1430 1.429 . S
C1449 C1443 1.429 . S
C1449 C1450 1.523 . S
C1450 C1431 1.368 . S
C1450 C1444 1.368 . S
C1450 C1449 1.523 . S
C1451 C1435 1.429 . S
C1451 C1447 1.429 . S
C1451 C1452 1.523 . S
C1452 C1436 1.368 . S
C1452 C1448 1.368 . S
C1452 C1451 1.523 . S
H1453 C1428 0.950 . S
H1454 C1430 0.950 . S
H1455 C1431 0.949 . S
H1456 C1433 0.950 . S
H1457 C1435 0.950 . S
C1458 C1459 1.349 . S
C1458 C1460 1.327 . S
C1458 H1483 0.950 . S
C1459 C1458 1.349 . S
C1459 C1475 1.349 . S
C1460 C1458 1.327 . S
C1460 C1479 1.429 . S
C1460 H1484 0.950 . S
C1461 C1478 1.574 . S
C1461 C1480 1.368 . S
C1461 H1485 0.949 . S
H1462 C1466 0.949 . S
C1463 C1464 1.349 . S
C1463 C1465 1.327 . S
C1463 H1486 0.950 . S
C1464 C1463 1.349 . S
C1464 C1476 1.349 . S
C1465 C1463 1.327 . S
C1465 C1481 1.429 . S
C1465 H1487 0.950 . S
C1466 H1462 0.949 . S
C1466 C1474 1.574 . S
C1466 C1482 1.368 . S
H1467 C1475 0.950 . S
H1468 C1473 0.950 . S
H1469 C1474 0.949 . S
H1470 C1476 0.950 . S
H1471 C1477 0.950 . S
H1472 C1478 0.949 . S
C1473 H1468 0.950 . S
C1473 C1475 1.327 . S
C1473 C1479 1.429 . S
C1474 C1466 1.574 . S
C1474 H1469 0.949 . S
C1474 C1480 1.368 . S
C1475 C1459 1.349 . S
C1475 H1467 0.950 . S
C1475 C1473 1.327 . S
C1476 C1464 1.349 . S
C1476 H1470 0.950 . S
C1476 C1477 1.327 . S
C1477 H1471 0.950 . S
C1477 C1476 1.327 . S
C1477 C1481 1.429 . S
C1478 C1461 1.574 . S
C1478 H1472 0.949 . S
C1478 C1482 1.368 . S
C1479 C1460 1.429 . S
C1479 C1473 1.429 . S
C1479 C1480 1.523 . S
C1480 C1461 1.368 . S
C1480 C1474 1.368 . S
C1480 C1479 1.523 . S
C1481 C1465 1.429 . S
C1481 C1477 1.429 . S
C1481 C1482 1.523 . S
C1482 C1466 1.368 . S
C1482 C1478 1.368 . S
C1482 C1481 1.523 . S
H1483 C1458 0.950 . S
H1484 C1460 0.950 . S
H1485 C1461 0.949 . S
H1486 C1463 0.950 . S
H1487 C1465 0.950 . S
C1488 C1489 1.349 . S
C1488 C1490 1.327 . S
C1488 H1513 0.950 . S
C1489 C1488 1.349 . S
C1489 C1505 1.349 . S
C1490 C1488 1.327 . S
C1490 C1509 1.429 . S
C1490 H1514 0.950 . S
C1491 C1508 1.574 . S
C1491 C1510 1.368 . S
C1491 H1515 0.949 . S
H1492 C1496 0.949 . S
C1493 C1494 1.349 . S
C1493 C1495 1.327 . S
C1493 H1516 0.950 . S
C1494 C1493 1.349 . S
C1494 C1506 1.349 . S
C1495 C1493 1.327 . S
C1495 C1511 1.429 . S
C1495 H1517 0.950 . S
C1496 H1492 0.949 . S
C1496 C1504 1.574 . S
C1496 C1512 1.368 . S
H1497 C1505 0.950 . S
H1498 C1503 0.950 . S
H1499 C1504 0.949 . S
H1500 C1506 0.950 . S
H1501 C1507 0.950 . S
H1502 C1508 0.949 . S
C1503 H1498 0.950 . S
C1503 C1505 1.327 . S
C1503 C1509 1.429 . S
C1504 C1496 1.574 . S
C1504 H1499 0.949 . S
C1504 C1510 1.368 . S
C1505 C1489 1.349 . S
C1505 H1497 0.950 . S
C1505 C1503 1.327 . S
C1506 C1494 1.349 . S
C1506 H1500 0.950 . S
C1506 C1507 1.327 . S
C1507 H1501 0.950 . S
C1507 C1506 1.327 . S
C1507 C1511 1.429 . S
C1508 C1491 1.574 . S
C1508 H1502 0.949 . S
C1508 C1512 1.368 . S
C1509 C1490 1.429 . S
C1509 C1503 1.429 . S
C1509 C1510 1.523 . S
C1510 C1491 1.368 . S
C1510 C1504 1.368 . S
C1510 C1509 1.523 . S
C1511 C1495 1.429 . S
C1511 C1507 1.429 . S
C1511 C1512 1.523 . S
C1512 C1496 1.368 . S
C1512 C1508 1.368 . S
C1512 C1511 1.523 . S
H1513 C1488 0.950 . S
H1514 C1490 0.950 . S
H1515 C1491 0.949 . S
H1516 C1493 0.950 . S
H1517 C1495 0.950 . S
C1518 C1519 1.349 . S
C1518 C1520 1.327 . S
C1518 H1543 0.950 . S
C1519 C1518 1.349 . S
C1519 C1535 1.349 . S
C1520 C1518 1.327 . S
C1520 C1539 1.429 . S
C1520 H1544 0.950 . S
C1521 C1538 1.574 . S
C1521 C1540 1.368 . S
C1521 H1545 0.949 . S
H1522 C1526 0.949 . S
C1523 C1524 1.349 . S
C1523 C1525 1.327 . S
C1523 H1546 0.950 . S
C1524 C1523 1.349 . S
C1524 C1536 1.349 . S
C1525 C1523 1.327 . S
C1525 C1541 1.429 . S
C1525 H1547 0.950 . S
C1526 H1522 0.949 . S
C1526 C1534 1.574 . S
C1526 C1542 1.368 . S
H1527 C1535 0.950 . S
H1528 C1533 0.950 . S
H1529 C1534 0.949 . S
H1530 C1536 0.950 . S
H1531 C1537 0.950 . S
H1532 C1538 0.949 . S
C1533 H1528 0.950 . S
C1533 C1535 1.327 . S
C1533 C1539 1.429 . S
C1534 C1526 1.574 . S
C1534 H1529 0.949 . S
C1534 C1540 1.368 . S
C1535 C1519 1.349 . S
C1535 H1527 0.950 . S
C1535 C1533 1.327 . S
C1536 C1524 1.349 . S
C1536 H1530 0.950 . S
C1536 C1537 1.327 . S
C1537 H1531 0.950 . S
C1537 C1536 1.327 . S
C1537 C1541 1.429 . S
C1538 C1521 1.574 . S
C1538 H1532 0.949 . S
C1538 C1542 1.368 . S
C1539 C1520 1.429 . S
C1539 C1533 1.429 . S
C1539 C1540 1.523 . S
C1540 C1521 1.368 . S
C1540 C1534 1.368 . S
C1540 C1539 1.523 . S
C1541 C1525 1.429 . S
C1541 C1537 1.429 . S
C1541 C1542 1.523 . S
C1542 C1526 1.368 . S
C1542 C1538 1.368 . S
C1542 C1541 1.523 . S
H1543 C1518 0.950 . S
H1544 C1520 0.950 . S
H1545 C1521 0.949 . S
H1546 C1523 0.950 . S
H1547 C1525 0.950 . S
C1548 C1549 1.349 . S
C1548 C1550 1.327 . S
C1548 H1573 0.950 . S
C1549 C1548 1.349 . S
C1549 C1565 1.349 . S
C1550 C1548 1.327 . S
C1550 C1569 1.429 . S
C1550 H1574 0.950 . S
C1551 C1568 1.574 . S
C1551 C1570 1.368 . S
C1551 H1575 0.949 . S
H1552 C1556 0.949 . S
C1553 C1554 1.349 . S
C1553 C1555 1.327 . S
C1553 H1576 0.950 . S
C1554 C1553 1.349 . S
C1554 C1566 1.349 . S
C1555 C1553 1.327 . S
C1555 C1571 1.429 . S
C1555 H1577 0.950 . S
C1556 H1552 0.949 . S
C1556 C1564 1.574 . S
C1556 C1572 1.368 . S
H1557 C1565 0.950 . S
H1558 C1563 0.950 . S
H1559 C1564 0.949 . S
H1560 C1566 0.950 . S
H1561 C1567 0.950 . S
H1562 C1568 0.949 . S
C1563 H1558 0.950 . S
C1563 C1565 1.327 . S
C1563 C1569 1.429 . S
C1564 C1556 1.574 . S
C1564 H1559 0.949 . S
C1564 C1570 1.368 . S
C1565 C1549 1.349 . S
C1565 H1557 0.950 . S
C1565 C1563 1.327 . S
C1566 C1554 1.349 . S
C1566 H1560 0.950 . S
C1566 C1567 1.327 . S
C1567 H1561 0.950 . S
C1567 C1566 1.327 . S
C1567 C1571 1.429 . S
C1568 C1551 1.574 . S
C1568 H1562 0.949 . S
C1568 C1572 1.368 . S
C1569 C1550 1.429 . S
C1569 C1563 1.429 . S
C1569 C1570 1.523 . S
C1570 C1551 1.368 . S
C1570 C1564 1.368 . S
C1570 C1569 1.523 . S
C1571 C1555 1.429 . S
C1571 C1567 1.429 . S
C1571 C1572 1.523 . S
C1572 C1556 1.368 . S
C1572 C1568 1.368 . S
C1572 C1571 1.523 . S
H1573 C1548 0.950 . S
H1574 C1550 0.950 . S
H1575 C1551 0.949 . S
H1576 C1553 0.950 . S
H1577 C1555 0.950 . S
C1578 C1579 1.349 . S
C1578 C1580 1.327 . S
C1578 H1603 0.950 . S
C1579 C1578 1.349 . S
C1579 C1595 1.349 . S
C1580 C1578 1.327 . S
C1580 C1599 1.429 . S
C1580 H1604 0.950 . S
C1581 C1598 1.574 . S
C1581 C1600 1.368 . S
C1581 H1605 0.949 . S
H1582 C1586 0.949 . S
C1583 C1584 1.349 . S
C1583 C1585 1.327 . S
C1583 H1606 0.950 . S
C1584 C1583 1.349 . S
C1584 C1596 1.349 . S
C1585 C1583 1.327 . S
C1585 C1601 1.429 . S
C1585 H1607 0.950 . S
C1586 H1582 0.949 . S
C1586 C1594 1.574 . S
C1586 C1602 1.368 . S
H1587 C1595 0.950 . S
H1588 C1593 0.950 . S
H1589 C1594 0.949 . S
H1590 C1596 0.950 . S
H1591 C1597 0.950 . S
H1592 C1598 0.949 . S
C1593 H1588 0.950 . S
C1593 C1595 1.327 . S
C1593 C1599 1.429 . S
C1594 C1586 1.574 . S
C1594 H1589 0.949 . S
C1594 C1600 1.368 . S
C1595 C1579 1.349 . S
C1595 H1587 0.950 . S
C1595 C1593 1.327 . S
C1596 C1584 1.349 . S
C1596 H1590 0.950 . S
C1596 C1597 1.327 . S
C1597 H1591 0.950 . S
C1597 C1596 1.327 . S
C1597 C1601 1.429 . S
C1598 C1581 1.574 . S
C1598 H1592 0.949 . S
C1598 C1602 1.368 . S
C1599 C1580 1.429 . S
C1599 C1593 1.429 . S
C1599 C1600 1.523 . S
C1600 C1581 1.368 . S
C1600 C1594 1.368 . S
C1600 C1599 1.523 . S
C1601 C1585 1.429 . S
C1601 C1597 1.429 . S
C1601 C1602 1.523 . S
C1602 C1586 1.368 . S
C1602 C1598 1.368 . S
C1602 C1601 1.523 . S
H1603 C1578 0.950 . S
H1604 C1580 0.950 . S
H1605 C1581 0.949 . S
H1606 C1583 0.950 . S
H1607 C1585 0.950 . S
C1608 C1609 1.349 . S
C1608 C1610 1.327 . S
C1608 H1633 0.950 . S
C1609 C1608 1.349 . S
C1609 C1625 1.349 . S
C1610 C1608 1.327 . S
C1610 C1629 1.429 . S
C1610 H1634 0.950 . S
C1611 C1628 1.574 . S
C1611 C1630 1.368 . S
C1611 H1635 0.949 . S
H1612 C1616 0.949 . S
C1613 C1614 1.349 . S
C1613 C1615 1.327 . S
C1613 H1636 0.950 . S
C1614 C1613 1.349 . S
C1614 C1626 1.349 . S
C1615 C1613 1.327 . S
C1615 C1631 1.429 . S
C1615 H1637 0.950 . S
C1616 H1612 0.949 . S
C1616 C1624 1.574 . S
C1616 C1632 1.368 . S
H1617 C1625 0.950 . S
H1618 C1623 0.950 . S
H1619 C1624 0.949 . S
H1620 C1626 0.950 . S
H1621 C1627 0.950 . S
H1622 C1628 0.949 . S
C1623 H1618 0.950 . S
C1623 C1625 1.327 . S
C1623 C1629 1.429 . S
C1624 C1616 1.574 . S
C1624 H1619 0.949 . S
C1624 C1630 1.368 . S
C1625 C1609 1.349 . S
C1625 H1617 0.950 . S
C1625 C1623 1.327 . S
C1626 C1614 1.349 . S
C1626 H1620 0.950 . S
C1626 C1627 1.327 . S
C1627 H1621 0.950 . S
C1627 C1626 1.327 . S
C1627 C1631 1.429 . S
C1628 C1611 1.574 . S
C1628 H1622 0.949 . S
C1628 C1632 1.368 . S
C1629 C1610 1.429 . S
C1629 C1623 1.429 . S
C1629 C1630 1.523 . S
C1630 C1611 1.368 . S
C1630 C1624 1.368 . S
C1630 C1629 1.523 . S
C1631 C1615 1.429 . S
C1631 C1627 1.429 . S
C1631 C1632 1.523 . S
C1632 C1616 1.368 . S
C1632 C1628 1.368 . S
C1632 C1631 1.523 . S
H1633 C1608 0.950 . S
H1634 C1610 0.950 . S
H1635 C1611 0.949 . S
H1636 C1613 0.950 . S
H1637 C1615 0.950 . S
C1638 C1639 1.349 . S
C1638 C1640 1.327 . S
C1638 H1663 0.950 . S
C1639 C1638 1.349 . S
C1639 C1655 1.349 . S
C1640 C1638 1.327 . S
C1640 C1659 1.429 . S
C1640 H1664 0.950 . S
C1641 C1658 1.574 . S
C1641 C1660 1.368 . S
C1641 H1665 0.949 . S
H1642 C1646 0.949 . S
C1643 C1644 1.349 . S
C1643 C1645 1.327 . S
C1643 H1666 0.950 . S
C1644 C1643 1.349 . S
C1644 C1656 1.349 . S
C1645 C1643 1.327 . S
C1645 C1661 1.429 . S
C1645 H1667 0.950 . S
C1646 H1642 0.949 . S
C1646 C1654 1.574 . S
C1646 C1662 1.368 . S
H1647 C1655 0.950 . S
H1648 C1653 0.950 . S
H1649 C1654 0.949 . S
H1650 C1656 0.950 . S
H1651 C1657 0.950 . S
H1652 C1658 0.949 . S
C1653 H1648 0.950 . S
C1653 C1655 1.327 . S
C1653 C1659 1.429 . S
C1654 C1646 1.574 . S
C1654 H1649 0.949 . S
C1654 C1660 1.368 . S
C1655 C1639 1.349 . S
C1655 H1647 0.950 . S
C1655 C1653 1.327 . S
C1656 C1644 1.349 . S
C1656 H1650 0.950 . S
C1656 C1657 1.327 . S
C1657 H1651 0.950 . S
C1657 C1656 1.327 . S
C1657 C1661 1.429 . S
C1658 C1641 1.574 . S
C1658 H1652 0.949 . S
C1658 C1662 1.368 . S
C1659 C1640 1.429 . S
C1659 C1653 1.429 . S
C1659 C1660 1.523 . S
C1660 C1641 1.368 . S
C1660 C1654 1.368 . S
C1660 C1659 1.523 . S
C1661 C1645 1.429 . S
C1661 C1657 1.429 . S
C1661 C1662 1.523 . S
C1662 C1646 1.368 . S
C1662 C1658 1.368 . S
C1662 C1661 1.523 . S
H1663 C1638 0.950 . S
H1664 C1640 0.950 . S
H1665 C1641 0.949 . S
H1666 C1643 0.950 . S
H1667 C1645 0.950 . S
C1668 C1669 1.349 . S
C1668 C1670 1.327 . S
C1668 H1693 0.950 . S
C1669 C1668 1.349 . S
C1669 C1685 1.349 . S
C1670 C1668 1.327 . S
C1670 C1689 1.429 . S
C1670 H1694 0.950 . S
C1671 C1688 1.574 . S
C1671 C1690 1.368 . S
C1671 H1695 0.949 . S
H1672 C1676 0.949 . S
C1673 C1674 1.349 . S
C1673 C1675 1.327 . S
C1673 H1696 0.950 . S
C1674 C1673 1.349 . S
C1674 C1686 1.349 . S
C1675 C1673 1.327 . S
C1675 C1691 1.429 . S
C1675 H1697 0.950 . S
C1676 H1672 0.949 . S
C1676 C1684 1.574 . S
C1676 C1692 1.368 . S
H1677 C1685 0.950 . S
H1678 C1683 0.950 . S
H1679 C1684 0.949 . S
H1680 C1686 0.950 . S
H1681 C1687 0.950 . S
H1682 C1688 0.949 . S
C1683 H1678 0.950 . S
C1683 C1685 1.327 . S
C1683 C1689 1.429 . S
C1684 C1676 1.574 . S
C1684 H1679 0.949 . S
C1684 C1690 1.368 . S
C1685 C1669 1.349 . S
C1685 H1677 0.950 . S
C1685 C1683 1.327 . S
C1686 C1674 1.349 . S
C1686 H1680 0.950 . S
C1686 C1687 1.327 . S
C1687 H1681 0.950 . S
C1687 C1686 1.327 . S
C1687 C1691 1.429 . S
C1688 C1671 1.574 . S
C1688 H1682 0.949 . S
C1688 C1692 1.368 . S
C1689 C1670 1.429 . S
C1689 C1683 1.429 . S
C1689 C1690 1.523 . S
C1690 C1671 1.368 . S
C1690 C1684 1.368 . S
C1690 C1689 1.523 . S
C1691 C1675 1.429 . S
C1691 C1687 1.429 . S
C1691 C1692 1.523 . S
C1692 C1676 1.368 . S
C1692 C1688 1.368 . S
C1692 C1691 1.523 . S
H1693 C1668 0.950 . S
H1694 C1670 0.950 . S
H1695 C1671 0.949 . S
H1696 C1673 0.950 . S
H1697 C1675 0.950 . S
C1698 C1699 1.349 . S
C1698 C1700 1.327 . S
C1698 H1723 0.950 . S
C1699 C1698 1.349 . S
C1699 C1715 1.349 . S
C1700 C1698 1.327 . S
C1700 C1719 1.429 . S
C1700 H1724 0.950 . S
C1701 C1718 1.574 . S
C1701 C1720 1.368 . S
C1701 H1725 0.949 . S
H1702 C1706 0.949 . S
C1703 C1704 1.349 . S
C1703 C1705 1.327 . S
C1703 H1726 0.950 . S
C1704 C1703 1.349 . S
C1704 C1716 1.349 . S
C1705 C1703 1.327 . S
C1705 C1721 1.429 . S
C1705 H1727 0.950 . S
C1706 H1702 0.949 . S
C1706 C1714 1.574 . S
C1706 C1722 1.368 . S
H1707 C1715 0.950 . S
H1708 C1713 0.950 . S
H1709 C1714 0.949 . S
H1710 C1716 0.950 . S
H1711 C1717 0.950 . S
H1712 C1718 0.949 . S
C1713 H1708 0.950 . S
C1713 C1715 1.327 . S
C1713 C1719 1.429 . S
C1714 C1706 1.574 . S
C1714 H1709 0.949 . S
C1714 C1720 1.368 . S
C1715 C1699 1.349 . S
C1715 H1707 0.950 . S
C1715 C1713 1.327 . S
C1716 C1704 1.349 . S
C1716 H1710 0.950 . S
C1716 C1717 1.327 . S
C1717 H1711 0.950 . S
C1717 C1716 1.327 . S
C1717 C1721 1.429 . S
C1718 C1701 1.574 . S
C1718 H1712 0.949 . S
C1718 C1722 1.368 . S
C1719 C1700 1.429 . S
C1719 C1713 1.429 . S
C1719 C1720 1.523 . S
C1720 C1701 1.368 . S
C1720 C1714 1.368 . S
C1720 C1719 1.523 . S
C1721 C1705 1.429 . S
C1721 C1717 1.429 . S
C1721 C1722 1.523 . S
C1722 C1706 1.368 . S
C1722 C1718 1.368 . S
C1722 C1721 1.523 . S
H1723 C1698 0.950 . S
H1724 C1700 0.950 . S
H1725 C1701 0.949 . S
H1726 C1703 0.950 . S
H1727 C1705 0.950 . S
C1728 C1729 1.349 . S
C1728 C1730 1.327 . S
C1728 H1753 0.950 . S
C1729 C1728 1.349 . S
C1729 C1745 1.349 . S
C1730 C1728 1.327 . S
C1730 C1749 1.429 . S
C1730 H1754 0.950 . S
C1731 C1748 1.574 . S
C1731 C1750 1.368 . S
C1731 H1755 0.949 . S
H1732 C1736 0.949 . S
C1733 C1734 1.349 . S
C1733 C1735 1.327 . S
C1733 H1756 0.950 . S
C1734 C1733 1.349 . S
C1734 C1746 1.349 . S
C1735 C1733 1.327 . S
C1735 C1751 1.429 . S
C1735 H1757 0.950 . S
C1736 H1732 0.949 . S
C1736 C1744 1.574 . S
C1736 C1752 1.368 . S
H1737 C1745 0.950 . S
H1738 C1743 0.950 . S
H1739 C1744 0.949 . S
H1740 C1746 0.950 . S
H1741 C1747 0.950 . S
H1742 C1748 0.949 . S
C1743 H1738 0.950 . S
C1743 C1745 1.327 . S
C1743 C1749 1.429 . S
C1744 C1736 1.574 . S
C1744 H1739 0.949 . S
C1744 C1750 1.368 . S
C1745 C1729 1.349 . S
C1745 H1737 0.950 . S
C1745 C1743 1.327 . S
C1746 C1734 1.349 . S
C1746 H1740 0.950 . S
C1746 C1747 1.327 . S
C1747 H1741 0.950 . S
C1747 C1746 1.327 . S
C1747 C1751 1.429 . S
C1748 C1731 1.574 . S
C1748 H1742 0.949 . S
C1748 C1752 1.368 . S
C1749 C1730 1.429 . S
C1749 C1743 1.429 . S
C1749 C1750 1.523 . S
C1750 C1731 1.368 . S
C1750 C1744 1.368 . S
C1750 C1749 1.523 . S
C1751 C1735 1.429 . S
C1751 C1747 1.429 . S
C1751 C1752 1.523 . S
C1752 C1736 1.368 . S
C1752 C1748 1.368 . S
C1752 C1751 1.523 . S
H1753 C1728 0.950 . S
H1754 C1730 0.950 . S
H1755 C1731 0.949 . S
H1756 C1733 0.950 . S
H1757 C1735 0.950 . S
C1758 C1759 1.349 . S
C1758 C1760 1.327 . S
C1758 H1783 0.950 . S
C1759 C1758 1.349 . S
C1759 C1775 1.349 . S
C1760 C1758 1.327 . S
C1760 C1779 1.429 . S
C1760 H1784 0.950 . S
C1761 C1778 1.574 . S
C1761 C1780 1.368 . S
C1761 H1785 0.949 . S
H1762 C1766 0.949 . S
C1763 C1764 1.349 . S
C1763 C1765 1.327 . S
C1763 H1786 0.950 . S
C1764 C1763 1.349 . S
C1764 C1776 1.349 . S
C1765 C1763 1.327 . S
C1765 C1781 1.429 . S
C1765 H1787 0.950 . S
C1766 H1762 0.949 . S
C1766 C1774 1.574 . S
C1766 C1782 1.368 . S
H1767 C1775 0.950 . S
H1768 C1773 0.950 . S
H1769 C1774 0.949 . S
H1770 C1776 0.950 . S
H1771 C1777 0.950 . S
H1772 C1778 0.949 . S
C1773 H1768 0.950 . S
C1773 C1775 1.327 . S
C1773 C1779 1.429 . S
C1774 C1766 1.574 . S
C1774 H1769 0.949 . S
C1774 C1780 1.368 . S
C1775 C1759 1.349 . S
C1775 H1767 0.950 . S
C1775 C1773 1.327 . S
C1776 C1764 1.349 . S
C1776 H1770 0.950 . S
C1776 C1777 1.327 . S
C1777 H1771 0.950 . S
C1777 C1776 1.327 . S
C1777 C1781 1.429 . S
C1778 C1761 1.574 . S
C1778 H1772 0.949 . S
C1778 C1782 1.368 . S
C1779 C1760 1.429 . S
C1779 C1773 1.429 . S
C1779 C1780 1.523 . S
C1780 C1761 1.368 . S
C1780 C1774 1.368 . S
C1780 C1779 1.523 . S
C1781 C1765 1.429 . S
C1781 C1777 1.429 . S
C1781 C1782 1.523 . S
C1782 C1766 1.368 . S
C1782 C1778 1.368 . S
C1782 C1781 1.523 . S
H1783 C1758 0.950 . S
H1784 C1760 0.950 . S
H1785 C1761 0.949 . S
H1786 C1763 0.950 . S
H1787 C1765 0.950 . S
C1788 C1789 1.349 . S
C1788 C1790 1.327 . S
C1788 H1813 0.950 . S
C1789 C1788 1.349 . S
C1789 C1805 1.349 . S
C1790 C1788 1.327 . S
C1790 C1809 1.429 . S
C1790 H1814 0.950 . S
C1791 C1808 1.574 . S
C1791 C1810 1.368 . S
C1791 H1815 0.949 . S
H1792 C1796 0.949 . S
C1793 C1794 1.349 . S
C1793 C1795 1.327 . S
C1793 H1816 0.950 . S
C1794 C1793 1.349 . S
C1794 C1806 1.349 . S
C1795 C1793 1.327 . S
C1795 C1811 1.429 . S
C1795 H1817 0.950 . S
C1796 H1792 0.949 . S
C1796 C1804 1.574 . S
C1796 C1812 1.368 . S
H1797 C1805 0.950 . S
H1798 C1803 0.950 . S
H1799 C1804 0.949 . S
H1800 C1806 0.950 . S
H1801 C1807 0.950 . S
H1802 C1808 0.949 . S
C1803 H1798 0.950 . S
C1803 C1805 1.327 . S
C1803 C1809 1.429 . S
C1804 C1796 1.574 . S
C1804 H1799 0.949 . S
C1804 C1810 1.368 . S
C1805 C1789 1.349 . S
C1805 H1797 0.950 . S
C1805 C1803 1.327 . S
C1806 C1794 1.349 . S
C1806 H1800 0.950 . S
C1806 C1807 1.327 . S
C1807 H1801 0.950 . S
C1807 C1806 1.327 . S
C1807 C1811 1.429 . S
C1808 C1791 1.574 . S
C1808 H1802 0.949 . S
C1808 C1812 1.368 . S
C1809 C1790 1.429 . S
C1809 C1803 1.429 . S
C1809 C1810 1.523 . S
C1810 C1791 1.368 . S
C1810 C1804 1.368 . S
C1810 C1809 1.523 . S
C1811 C1795 1.429 . S
C1811 C1807 1.429 . S
C1811 C1812 1.523 . S
C1812 C1796 1.368 . S
C1812 C1808 1.368 . S
C1812 C1811 1.523 . S
H1813 C1788 0.950 . S
H1814 C1790 0.950 . S
H1815 C1791 0.949 . S
H1816 C1793 0.950 . S
H1817 C1795 0.950 . S
C1818 C1819 1.349 . S
C1818 C1820 1.327 . S
C1818 H1843 0.950 . S
C1819 C1818 1.349 . S
C1819 C1835 1.349 . S
C1820 C1818 1.327 . S
C1820 C1839 1.429 . S
C1820 H1844 0.950 . S
C1821 C1838 1.574 . S
C1821 C1840 1.368 . S
C1821 H1845 0.949 . S
H1822 C1826 0.949 . S
C1823 C1824 1.349 . S
C1823 C1825 1.327 . S
C1823 H1846 0.950 . S
C1824 C1823 1.349 . S
C1824 C1836 1.349 . S
C1825 C1823 1.327 . S
C1825 C1841 1.429 . S
C1825 H1847 0.950 . S
C1826 H1822 0.949 . S
C1826 C1834 1.574 . S
C1826 C1842 1.368 . S
H1827 C1835 0.950 . S
H1828 C1833 0.950 . S
H1829 C1834 0.949 . S
H1830 C1836 0.950 . S
H1831 C1837 0.950 . S
H1832 C1838 0.949 . S
C1833 H1828 0.950 . S
C1833 C1835 1.327 . S
C1833 C1839 1.429 . S
C1834 C1826 1.574 . S
C1834 H1829 0.949 . S
C1834 C1840 1.368 . S
C1835 C1819 1.349 . S
C1835 H1827 0.950 . S
C1835 C1833 1.327 . S
C1836 C1824 1.349 . S
C1836 H1830 0.950 . S
C1836 C1837 1.327 . S
C1837 H1831 0.950 . S
C1837 C1836 1.327 . S
C1837 C1841 1.429 . S
C1838 C1821 1.574 . S
C1838 H1832 0.949 . S
C1838 C1842 1.368 . S
C1839 C1820 1.429 . S
C1839 C1833 1.429 . S
C1839 C1840 1.523 . S
C1840 C1821 1.368 . S
C1840 C1834 1.368 . S
C1840 C1839 1.523 . S
C1841 C1825 1.429 . S
C1841 C1837 1.429 . S
C1841 C1842 1.523 . S
C1842 C1826 1.368 . S
C1842 C1838 1.368 . S
C1842 C1841 1.523 . S
H1843 C1818 0.950 . S
H1844 C1820 0.950 . S
H1845 C1821 0.949 . S
H1846 C1823 0.950 . S
H1847 C1825 0.950 . S
C1848 C1849 1.349 . S
C1848 C1850 1.327 . S
C1848 H1873 0.950 . S
C1849 C1848 1.349 . S
C1849 C1865 1.349 . S
C1850 C1848 1.327 . S
C1850 C1869 1.429 . S
C1850 H1874 0.950 . S
C1851 C1868 1.574 . S
C1851 C1870 1.368 . S
C1851 H1875 0.949 . S
H1852 C1856 0.949 . S
C1853 C1854 1.349 . S
C1853 C1855 1.327 . S
C1853 H1876 0.950 . S
C1854 C1853 1.349 . S
C1854 C1866 1.349 . S
C1855 C1853 1.327 . S
C1855 C1871 1.429 . S
C1855 H1877 0.950 . S
C1856 H1852 0.949 . S
C1856 C1864 1.574 . S
C1856 C1872 1.368 . S
H1857 C1865 0.950 . S
H1858 C1863 0.950 . S
H1859 C1864 0.949 . S
H1860 C1866 0.950 . S
H1861 C1867 0.950 . S
H1862 C1868 0.949 . S
C1863 H1858 0.950 . S
C1863 C1865 1.327 . S
C1863 C1869 1.429 . S
C1864 C1856 1.574 . S
C1864 H1859 0.949 . S
C1864 C1870 1.368 . S
C1865 C1849 1.349 . S
C1865 H1857 0.950 . S
C1865 C1863 1.327 . S
C1866 C1854 1.349 . S
C1866 H1860 0.950 . S
C1866 C1867 1.327 . S
C1867 H1861 0.950 . S
C1867 C1866 1.327 . S
C1867 C1871 1.429 . S
C1868 C1851 1.574 . S
C1868 H1862 0.949 . S
C1868 C1872 1.368 . S
C1869 C1850 1.429 . S
C1869 C1863 1.429 . S
C1869 C1870 1.523 . S
C1870 C1851 1.368 . S
C1870 C1864 1.368 . S
C1870 C1869 1.523 . S
C1871 C1855 1.429 . S
C1871 C1867 1.429 . S
C1871 C1872 1.523 . S
C1872 C1856 1.368 . S
C1872 C1868 1.368 . S
C1872 C1871 1.523 . S
H1873 C1848 0.950 . S
H1874 C1850 0.950 . S
H1875 C1851 0.949 . S
H1876 C1853 0.950 . S
H1877 C1855 0.950 . S
C1878 C1879 1.349 . S
C1878 C1880 1.327 . S
C1878 H1903 0.950 . S
C1879 C1878 1.349 . S
C1879 C1895 1.349 . S
C1880 C1878 1.327 . S
C1880 C1899 1.429 . S
C1880 H1904 0.950 . S
C1881 C1898 1.574 . S
C1881 C1900 1.368 . S
C1881 H1905 0.949 . S
H1882 C1886 0.949 . S
C1883 C1884 1.349 . S
C1883 C1885 1.327 . S
C1883 H1906 0.950 . S
C1884 C1883 1.349 . S
C1884 C1896 1.349 . S
C1885 C1883 1.327 . S
C1885 C1901 1.429 . S
C1885 H1907 0.950 . S
C1886 H1882 0.949 . S
C1886 C1894 1.574 . S
C1886 C1902 1.368 . S
H1887 C1895 0.950 . S
H1888 C1893 0.950 . S
H1889 C1894 0.949 . S
H1890 C1896 0.950 . S
H1891 C1897 0.950 . S
H1892 C1898 0.949 . S
C1893 H1888 0.950 . S
C1893 C1895 1.327 . S
C1893 C1899 1.429 . S
C1894 C1886 1.574 . S
C1894 H1889 0.949 . S
C1894 C1900 1.368 . S
C1895 C1879 1.349 . S
C1895 H1887 0.950 . S
C1895 C1893 1.327 . S
C1896 C1884 1.349 . S
C1896 H1890 0.950 . S
C1896 C1897 1.327 . S
C1897 H1891 0.950 . S
C1897 C1896 1.327 . S
C1897 C1901 1.429 . S
C1898 C1881 1.574 . S
C1898 H1892 0.949 . S
C1898 C1902 1.368 . S
C1899 C1880 1.429 . S
C1899 C1893 1.429 . S
C1899 C1900 1.523 . S
C1900 C1881 1.368 . S
C1900 C1894 1.368 . S
C1900 C1899 1.523 . S
C1901 C1885 1.429 . S
C1901 C1897 1.429 . S
C1901 C1902 1.523 . S
C1902 C1886 1.368 . S
C1902 C1898 1.368 . S
C1902 C1901 1.523 . S
H1903 C1878 0.950 . S
H1904 C1880 0.950 . S
H1905 C1881 0.949 . S
H1906 C1883 0.950 . S
H1907 C1885 0.950 . S
C1908 C1909 1.349 . S
C1908 C1910 1.327 . S
C1908 H1933 0.950 . S
C1909 C1908 1.349 . S
C1909 C1925 1.349 . S
C1910 C1908 1.327 . S
C1910 C1929 1.429 . S
C1910 H1934 0.950 . S
C1911 C1928 1.574 . S
C1911 C1930 1.368 . S
C1911 H1935 0.949 . S
H1912 C1916 0.949 . S
C1913 C1914 1.349 . S
C1913 C1915 1.327 . S
C1913 H1936 0.950 . S
C1914 C1913 1.349 . S
C1914 C1926 1.349 . S
C1915 C1913 1.327 . S
C1915 C1931 1.429 . S
C1915 H1937 0.950 . S
C1916 H1912 0.949 . S
C1916 C1924 1.574 . S
C1916 C1932 1.368 . S
H1917 C1925 0.950 . S
H1918 C1923 0.950 . S
H1919 C1924 0.949 . S
H1920 C1926 0.950 . S
H1921 C1927 0.950 . S
H1922 C1928 0.949 . S
C1923 H1918 0.950 . S
C1923 C1925 1.327 . S
C1923 C1929 1.429 . S
C1924 C1916 1.574 . S
C1924 H1919 0.949 . S
C1924 C1930 1.368 . S
C1925 C1909 1.349 . S
C1925 H1917 0.950 . S
C1925 C1923 1.327 . S
C1926 C1914 1.349 . S
C1926 H1920 0.950 . S
C1926 C1927 1.327 . S
C1927 H1921 0.950 . S
C1927 C1926 1.327 . S
C1927 C1931 1.429 . S
C1928 C1911 1.574 . S
C1928 H1922 0.949 . S
C1928 C1932 1.368 . S
C1929 C1910 1.429 . S
C1929 C1923 1.429 . S
C1929 C1930 1.523 . S
C1930 C1911 1.368 . S
C1930 C1924 1.368 . S
C1930 C1929 1.523 . S
C1931 C1915 1.429 . S
C1931 C1927 1.429 . S
C1931 C1932 1.523 . S
C1932 C1916 1.368 . S
C1932 C1928 1.368 . S
C1932 C1931 1.523 . S
H1933 C1908 0.950 . S
H1934 C1910 0.950 . S
H1935 C1911 0.949 . S
H1936 C1913 0.950 . S
H1937 C1915 0.950 . S
C1938 C1939 1.349 . S
C1938 C1940 1.327 . S
C1938 H1963 0.950 . S
C1939 C1938 1.349 . S
C1939 C1955 1.349 . S
C1940 C1938 1.327 . S
C1940 C1959 1.429 . S
C1940 H1964 0.950 . S
C1941 C1958 1.574 . S
C1941 C1960 1.368 . S
C1941 H1965 0.949 . S
H1942 C1946 0.949 . S
C1943 C1944 1.349 . S
C1943 C1945 1.327 . S
C1943 H1966 0.950 . S
C1944 C1943 1.349 . S
C1944 C1956 1.349 . S
C1945 C1943 1.327 . S
C1945 C1961 1.429 . S
C1945 H1967 0.950 . S
C1946 H1942 0.949 . S
C1946 C1954 1.574 . S
C1946 C1962 1.368 . S
H1947 C1955 0.950 . S
H1948 C1953 0.950 . S
H1949 C1954 0.949 . S
H1950 C1956 0.950 . S
H1951 C1957 0.950 . S
H1952 C1958 0.949 . S
C1953 H1948 0.950 . S
C1953 C1955 1.327 . S
C1953 C1959 1.429 . S
C1954 C1946 1.574 . S
C1954 H1949 0.949 . S
C1954 C1960 1.368 . S
C1955 C1939 1.349 . S
C1955 H1947 0.950 . S
C1955 C1953 1.327 . S
C1956 C1944 1.349 . S
C1956 H1950 0.950 . S
C1956 C1957 1.327 . S
C1957 H1951 0.950 . S
C1957 C1956 1.327 . S
C1957 C1961 1.429 . S
C1958 C1941 1.574 . S
C1958 H1952 0.949 . S
C1958 C1962 1.368 . S
C1959 C1940 1.429 . S
C1959 C1953 1.429 . S
C1959 C1960 1.523 . S
C1960 C1941 1.368 . S
C1960 C1954 1.368 . S
C1960 C1959 1.523 . S
C1961 C1945 1.429 . S
C1961 C1957 1.429 . S
C1961 C1962 1.523 . S
C1962 C1946 1.368 . S
C1962 C1958 1.368 . S
C1962 C1961 1.523 . S
H1963 C1938 0.950 . S
H1964 C1940 0.950 . S
H1965 C1941 0.949 . S
H1966 C1943 0.950 . S
H1967 C1945 0.950 . S
C1968 C1969 1.349 . S
C1968 C1970 1.327 . S
C1968 H1993 0.950 . S
C1969 C1968 1.349 . S
C1969 C1985 1.349 . S
C1970 C1968 1.327 . S
C1970 C1989 1.429 . S
C1970 H1994 0.950 . S
C1971 C1988 1.574 . S
C1971 C1990 1.368 . S
C1971 H1995 0.949 . S
H1972 C1976 0.949 . S
C1973 C1974 1.349 . S
C1973 C1975 1.327 . S
C1973 H1996 0.950 . S
C1974 C1973 1.349 . S
C1974 C1986 1.349 . S
C1975 C1973 1.327 . S
C1975 C1991 1.429 . S
C1975 H1997 0.950 . S
C1976 H1972 0.949 . S
C1976 C1984 1.574 . S
C1976 C1992 1.368 . S
H1977 C1985 0.950 . S
H1978 C1983 0.950 . S
H1979 C1984 0.949 . S
H1980 C1986 0.950 . S
H1981 C1987 0.950 . S
H1982 C1988 0.949 . S
C1983 H1978 0.950 . S
C1983 C1985 1.327 . S
C1983 C1989 1.429 . S
C1984 C1976 1.574 . S
C1984 H1979 0.949 . S
C1984 C1990 1.368 . S
C1985 C1969 1.349 . S
C1985 H1977 0.950 . S
C1985 C1983 1.327 . S
C1986 C1974 1.349 . S
C1986 H1980 0.950 . S
C1986 C1987 1.327 . S
C1987 H1981 0.950 . S
C1987 C1986 1.327 . S
C1987 C1991 1.429 . S
C1988 C1971 1.574 . S
C1988 H1982 0.949 . S
C1988 C1992 1.368 . S
C1989 C1970 1.429 . S
C1989 C1983 1.429 . S
C1989 C1990 1.523 . S
C1990 C1971 1.368 . S
C1990 C1984 1.368 . S
C1990 C1989 1.523 . S
C1991 C1975 1.429 . S
C1991 C1987 1.429 . S
C1991 C1992 1.523 . S
C1992 C1976 1.368 . S
C1992 C1988 1.368 . S
C1992 C1991 1.523 . S
H1993 C1968 0.950 . S
H1994 C1970 0.950 . S
H1995 C1971 0.949 . S
H1996 C1973 0.950 . S
H1997 C1975 0.950 . S
C1998 C1999 1.349 . S
C1998 C2000 1.327 . S
C1998 H2023 0.950 . S
C1999 C1998 1.349 . S
C1999 C2015 1.349 . S
C2000 C1998 1.327 . S
C2000 C2019 1.429 . S
C2000 H2024 0.950 . S
C2001 C2018 1.574 . S
C2001 C2020 1.368 . S
C2001 H2025 0.949 . S
H2002 C2006 0.949 . S
C2003 C2004 1.349 . S
C2003 C2005 1.327 . S
C2003 H2026 0.950 . S
C2004 C2003 1.349 . S
C2004 C2016 1.349 . S
C2005 C2003 1.327 . S
C2005 C2021 1.429 . S
C2005 H2027 0.950 . S
C2006 H2002 0.949 . S
C2006 C2014 1.574 . S
C2006 C2022 1.368 . S
H2007 C2015 0.950 . S
H2008 C2013 0.950 . S
H2009 C2014 0.949 . S
H2010 C2016 0.950 . S
H2011 C2017 0.950 . S
H2012 C2018 0.949 . S
C2013 H2008 0.950 . S
C2013 C2015 1.327 . S
C2013 C2019 1.429 . S
C2014 C2006 1.574 . S
C2014 H2009 0.949 . S
C2014 C2020 1.368 . S
C2015 C1999 1.349 . S
C2015 H2007 0.950 . S
C2015 C2013 1.327 . S
C2016 C2004 1.349 . S
C2016 H2010 0.950 . S
C2016 C2017 1.327 . S
C2017 H2011 0.950 . S
C2017 C2016 1.327 . S
C2017 C2021 1.429 . S
C2018 C2001 1.574 . S
C2018 H2012 0.949 . S
C2018 C2022 1.368 . S
C2019 C2000 1.429 . S
C2019 C2013 1.429 . S
C2019 C2020 1.523 . S
C2020 C2001 1.368 . S
C2020 C2014 1.368 . S
C2020 C2019 1.523 . S
C2021 C2005 1.429 . S
C2021 C2017 1.429 . S
C2021 C2022 1.523 . S
C2022 C2006 1.368 . S
C2022 C2018 1.368 . S
C2022 C2021 1.523 . S
H2023 C1998 0.950 . S
H2024 C2000 0.950 . S
H2025 C2001 0.949 . S
H2026 C2003 0.950 . S
H2027 C2005 0.950 . S
C2028 C2029 1.349 . S
C2028 C2030 1.327 . S
C2028 H2053 0.950 . S
C2029 C2028 1.349 . S
C2029 C2045 1.349 . S
C2030 C2028 1.327 . S
C2030 C2049 1.429 . S
C2030 H2054 0.950 . S
C2031 C2048 1.574 . S
C2031 C2050 1.368 . S
C2031 H2055 0.949 . S
H2032 C2036 0.949 . S
C2033 C2034 1.349 . S
C2033 C2035 1.327 . S
C2033 H2056 0.950 . S
C2034 C2033 1.349 . S
C2034 C2046 1.349 . S
C2035 C2033 1.327 . S
C2035 C2051 1.429 . S
C2035 H2057 0.950 . S
C2036 H2032 0.949 . S
C2036 C2044 1.574 . S
C2036 C2052 1.368 . S
H2037 C2045 0.950 . S
H2038 C2043 0.950 . S
H2039 C2044 0.949 . S
H2040 C2046 0.950 . S
H2041 C2047 0.950 . S
H2042 C2048 0.949 . S
C2043 H2038 0.950 . S
C2043 C2045 1.327 . S
C2043 C2049 1.429 . S
C2044 C2036 1.574 . S
C2044 H2039 0.949 . S
C2044 C2050 1.368 . S
C2045 C2029 1.349 . S
C2045 H2037 0.950 . S
C2045 C2043 1.327 . S
C2046 C2034 1.349 . S
C2046 H2040 0.950 . S
C2046 C2047 1.327 . S
C2047 H2041 0.950 . S
C2047 C2046 1.327 . S
C2047 C2051 1.429 . S
C2048 C2031 1.574 . S
C2048 H2042 0.949 . S
C2048 C2052 1.368 . S
C2049 C2030 1.429 . S
C2049 C2043 1.429 . S
C2049 C2050 1.523 . S
C2050 C2031 1.368 . S
C2050 C2044 1.368 . S
C2050 C2049 1.523 . S
C2051 C2035 1.429 . S
C2051 C2047 1.429 . S
C2051 C2052 1.523 . S
C2052 C2036 1.368 . S
C2052 C2048 1.368 . S
C2052 C2051 1.523 . S
H2053 C2028 0.950 . S
H2054 C2030 0.950 . S
H2055 C2031 0.949 . S
H2056 C2033 0.950 . S
H2057 C2035 0.950 . S
C2058 C2059 1.349 . S
C2058 C2060 1.327 . S
C2058 H2083 0.950 . S
C2059 C2058 1.349 . S
C2059 C2075 1.349 . S
C2060 C2058 1.327 . S
C2060 C2079 1.429 . S
C2060 H2084 0.950 . S
C2061 C2078 1.574 . S
C2061 C2080 1.368 . S
C2061 H2085 0.949 . S
H2062 C2066 0.949 . S
C2063 C2064 1.349 . S
C2063 C2065 1.327 . S
C2063 H2086 0.950 . S
C2064 C2063 1.349 . S
C2064 C2076 1.349 . S
C2065 C2063 1.327 . S
C2065 C2081 1.429 . S
C2065 H2087 0.950 . S
C2066 H2062 0.949 . S
C2066 C2074 1.574 . S
C2066 C2082 1.368 . S
H2067 C2075 0.950 . S
H2068 C2073 0.950 . S
H2069 C2074 0.949 . S
H2070 C2076 0.950 . S
H2071 C2077 0.950 . S
H2072 C2078 0.949 . S
C2073 H2068 0.950 . S
C2073 C2075 1.327 . S
C2073 C2079 1.429 . S
C2074 C2066 1.574 . S
C2074 H2069 0.949 . S
C2074 C2080 1.368 . S
C2075 C2059 1.349 . S
C2075 H2067 0.950 . S
C2075 C2073 1.327 . S
C2076 C2064 1.349 . S
C2076 H2070 0.950 . S
C2076 C2077 1.327 . S
C2077 H2071 0.950 . S
C2077 C2076 1.327 . S
C2077 C2081 1.429 . S
C2078 C2061 1.574 . S
C2078 H2072 0.949 . S
C2078 C2082 1.368 . S
C2079 C2060 1.429 . S
C2079 C2073 1.429 . S
C2079 C2080 1.523 . S
C2080 C2061 1.368 . S
C2080 C2074 1.368 . S
C2080 C2079 1.523 . S
C2081 C2065 1.429 . S
C2081 C2077 1.429 . S
C2081 C2082 1.523 . S
C2082 C2066 1.368 . S
C2082 C2078 1.368 . S
C2082 C2081 1.523 . S
H2083 C2058 0.950 . S
H2084 C2060 0.950 . S
H2085 C2061 0.949 . S
H2086 C2063 0.950 . S
H2087 C2065 0.950 . S
C2088 C2089 1.349 . S
C2088 C2090 1.327 . S
C2088 H2113 0.950 . S
C2089 C2088 1.349 . S
C2089 C2105 1.349 . S
C2090 C2088 1.327 . S
C2090 C2109 1.429 . S
C2090 H2114 0.950 . S
C2091 C2108 1.574 . S
C2091 C2110 1.368 . S
C2091 H2115 0.949 . S
H2092 C2096 0.949 . S
C2093 C2094 1.349 . S
C2093 C2095 1.327 . S
C2093 H2116 0.950 . S
C2094 C2093 1.349 . S
C2094 C2106 1.349 . S
C2095 C2093 1.327 . S
C2095 C2111 1.429 . S
C2095 H2117 0.950 . S
C2096 H2092 0.949 . S
C2096 C2104 1.574 . S
C2096 C2112 1.368 . S
H2097 C2105 0.950 . S
H2098 C2103 0.950 . S
H2099 C2104 0.949 . S
H2100 C2106 0.950 . S
H2101 C2107 0.950 . S
H2102 C2108 0.949 . S
C2103 H2098 0.950 . S
C2103 C2105 1.327 . S
C2103 C2109 1.429 . S
C2104 C2096 1.574 . S
C2104 H2099 0.949 . S
C2104 C2110 1.368 . S
C2105 C2089 1.349 . S
C2105 H2097 0.950 . S
C2105 C2103 1.327 . S
C2106 C2094 1.349 . S
C2106 H2100 0.950 . S
C2106 C2107 1.327 . S
C2107 H2101 0.950 . S
C2107 C2106 1.327 . S
C2107 C2111 1.429 . S
C2108 C2091 1.574 . S
C2108 H2102 0.949 . S
C2108 C2112 1.368 . S
C2109 C2090 1.429 . S
C2109 C2103 1.429 . S
C2109 C2110 1.523 . S
C2110 C2091 1.368 . S
C2110 C2104 1.368 . S
C2110 C2109 1.523 . S
C2111 C2095 1.429 . S
C2111 C2107 1.429 . S
C2111 C2112 1.523 . S
C2112 C2096 1.368 . S
C2112 C2108 1.368 . S
C2112 C2111 1.523 . S
H2113 C2088 0.950 . S
H2114 C2090 0.950 . S
H2115 C2091 0.949 . S
H2116 C2093 0.950 . S
H2117 C2095 0.950 . S
C2118 C2119 1.349 . S
C2118 C2120 1.327 . S
C2118 H2143 0.950 . S
C2119 C2118 1.349 . S
C2119 C2135 1.349 . S
C2120 C2118 1.327 . S
C2120 C2139 1.429 . S
C2120 H2144 0.950 . S
C2121 C2138 1.574 . S
C2121 C2140 1.368 . S
C2121 H2145 0.949 . S
H2122 C2126 0.949 . S
C2123 C2124 1.349 . S
C2123 C2125 1.327 . S
C2123 H2146 0.950 . S
C2124 C2123 1.349 . S
C2124 C2136 1.349 . S
C2125 C2123 1.327 . S
C2125 C2141 1.429 . S
C2125 H2147 0.950 . S
C2126 H2122 0.949 . S
C2126 C2134 1.574 . S
C2126 C2142 1.368 . S
H2127 C2135 0.950 . S
H2128 C2133 0.950 . S
H2129 C2134 0.949 . S
H2130 C2136 0.950 . S
H2131 C2137 0.950 . S
H2132 C2138 0.949 . S
C2133 H2128 0.950 . S
C2133 C2135 1.327 . S
C2133 C2139 1.429 . S
C2134 C2126 1.574 . S
C2134 H2129 0.949 . S
C2134 C2140 1.368 . S
C2135 C2119 1.349 . S
C2135 H2127 0.950 . S
C2135 C2133 1.327 . S
C2136 C2124 1.349 . S
C2136 H2130 0.950 . S
C2136 C2137 1.327 . S
C2137 H2131 0.950 . S
C2137 C2136 1.327 . S
C2137 C2141 1.429 . S
C2138 C2121 1.574 . S
C2138 H2132 0.949 . S
C2138 C2142 1.368 . S
C2139 C2120 1.429 . S
C2139 C2133 1.429 . S
C2139 C2140 1.523 . S
C2140 C2121 1.368 . S
C2140 C2134 1.368 . S
C2140 C2139 1.523 . S
C2141 C2125 1.429 . S
C2141 C2137 1.429 . S
C2141 C2142 1.523 . S
C2142 C2126 1.368 . S
C2142 C2138 1.368 . S
C2142 C2141 1.523 . S
H2143 C2118 0.950 . S
H2144 C2120 0.950 . S
H2145 C2121 0.949 . S
H2146 C2123 0.950 . S
H2147 C2125 0.950 . S
C2148 C2149 1.349 . S
C2148 C2150 1.327 . S
C2148 H2173 0.950 . S
C2149 C2148 1.349 . S
C2149 C2165 1.349 . S
C2150 C2148 1.327 . S
C2150 C2169 1.429 . S
C2150 H2174 0.950 . S
C2151 C2168 1.574 . S
C2151 C2170 1.368 . S
C2151 H2175 0.949 . S
H2152 C2156 0.949 . S
C2153 C2154 1.349 . S
C2153 C2155 1.327 . S
C2153 H2176 0.950 . S
C2154 C2153 1.349 . S
C2154 C2166 1.349 . S
C2155 C2153 1.327 . S
C2155 C2171 1.429 . S
C2155 H2177 0.950 . S
C2156 H2152 0.949 . S
C2156 C2164 1.574 . S
C2156 C2172 1.368 . S
H2157 C2165 0.950 . S
H2158 C2163 0.950 . S
H2159 C2164 0.949 . S
H2160 C2166 0.950 . S
H2161 C2167 0.950 . S
H2162 C2168 0.949 . S
C2163 H2158 0.950 . S
C2163 C2165 1.327 . S
C2163 C2169 1.429 . S
C2164 C2156 1.574 . S
C2164 H2159 0.949 . S
C2164 C2170 1.368 . S
C2165 C2149 1.349 . S
C2165 H2157 0.950 . S
C2165 C2163 1.327 . S
C2166 C2154 1.349 . S
C2166 H2160 0.950 . S
C2166 C2167 1.327 . S
C2167 H2161 0.950 . S
C2167 C2166 1.327 . S
C2167 C2171 1.429 . S
C2168 C2151 1.574 . S
C2168 H2162 0.949 . S
C2168 C2172 1.368 . S
C2169 C2150 1.429 . S
C2169 C2163 1.429 . S
C2169 C2170 1.523 . S
C2170 C2151 1.368 . S
C2170 C2164 1.368 . S
C2170 C2169 1.523 . S
C2171 C2155 1.429 . S
C2171 C2167 1.429 . S
C2171 C2172 1.523 . S
C2172 C2156 1.368 . S
C2172 C2168 1.368 . S
C2172 C2171 1.523 . S
H2173 C2148 0.950 . S
H2174 C2150 0.950 . S
H2175 C2151 0.949 . S
H2176 C2153 0.950 . S
H2177 C2155 0.950 . S
C2178 C2179 1.349 . S
C2178 C2180 1.327 . S
C2178 H2203 0.950 . S
C2179 C2178 1.349 . S
C2179 C2195 1.349 . S
C2180 C2178 1.327 . S
C2180 C2199 1.429 . S
C2180 H2204 0.950 . S
C2181 C2198 1.574 . S
C2181 C2200 1.368 . S
C2181 H2205 0.949 . S
H2182 C2186 0.949 . S
C2183 C2184 1.349 . S
C2183 C2185 1.327 . S
C2183 H2206 0.950 . S
C2184 C2183 1.349 . S
C2184 C2196 1.349 . S
C2185 C2183 1.327 . S
C2185 C2201 1.429 . S
C2185 H2207 0.950 . S
C2186 H2182 0.949 . S
C2186 C2194 1.574 . S
C2186 C2202 1.368 . S
H2187 C2195 0.950 . S
H2188 C2193 0.950 . S
H2189 C2194 0.949 . S
H2190 C2196 0.950 . S
H2191 C2197 0.950 . S
H2192 C2198 0.949 . S
C2193 H2188 0.950 . S
C2193 C2195 1.327 . S
C2193 C2199 1.429 . S
C2194 C2186 1.574 . S
C2194 H2189 0.949 . S
C2194 C2200 1.368 . S
C2195 C2179 1.349 . S
C2195 H2187 0.950 . S
C2195 C2193 1.327 . S
C2196 C2184 1.349 . S
C2196 H2190 0.950 . S
C2196 C2197 1.327 . S
C2197 H2191 0.950 . S
C2197 C2196 1.327 . S
C2197 C2201 1.429 . S
C2198 C2181 1.574 . S
C2198 H2192 0.949 . S
C2198 C2202 1.368 . S
C2199 C2180 1.429 . S
C2199 C2193 1.429 . S
C2199 C2200 1.523 . S
C2200 C2181 1.368 . S
C2200 C2194 1.368 . S
C2200 C2199 1.523 . S
C2201 C2185 1.429 . S
C2201 C2197 1.429 . S
C2201 C2202 1.523 . S
C2202 C2186 1.368 . S
C2202 C2198 1.368 . S
C2202 C2201 1.523 . S
H2203 C2178 0.950 . S
H2204 C2180 0.950 . S
H2205 C2181 0.949 . S
H2206 C2183 0.950 . S
H2207 C2185 0.950 . S
C2208 C2209 1.349 . S
C2208 C2210 1.327 . S
C2208 H2233 0.950 . S
C2209 C2208 1.349 . S
C2209 C2225 1.349 . S
C2210 C2208 1.327 . S
C2210 C2229 1.429 . S
C2210 H2234 0.950 . S
C2211 C2228 1.574 . S
C2211 C2230 1.368 . S
C2211 H2235 0.949 . S
H2212 C2216 0.949 . S
C2213 C2214 1.349 . S
C2213 C2215 1.327 . S
C2213 H2236 0.950 . S
C2214 C2213 1.349 . S
C2214 C2226 1.349 . S
C2215 C2213 1.327 . S
C2215 C2231 1.429 . S
C2215 H2237 0.950 . S
C2216 H2212 0.949 . S
C2216 C2224 1.574 . S
C2216 C2232 1.368 . S
H2217 C2225 0.950 . S
H2218 C2223 0.950 . S
H2219 C2224 0.949 . S
H2220 C2226 0.950 . S
H2221 C2227 0.950 . S
H2222 C2228 0.949 . S
C2223 H2218 0.950 . S
C2223 C2225 1.327 . S
C2223 C2229 1.429 . S
C2224 C2216 1.574 . S
C2224 H2219 0.949 . S
C2224 C2230 1.368 . S
C2225 C2209 1.349 . S
C2225 H2217 0.950 . S
C2225 C2223 1.327 . S
C2226 C2214 1.349 . S
C2226 H2220 0.950 . S
C2226 C2227 1.327 . S
C2227 H2221 0.950 . S
C2227 C2226 1.327 . S
C2227 C2231 1.429 . S
C2228 C2211 1.574 . S
C2228 H2222 0.949 . S
C2228 C2232 1.368 . S
C2229 C2210 1.429 . S
C2229 C2223 1.429 . S
C2229 C2230 1.523 . S
C2230 C2211 1.368 . S
C2230 C2224 1.368 . S
C2230 C2229 1.523 . S
C2231 C2215 1.429 . S
C2231 C2227 1.429 . S
C2231 C2232 1.523 . S
C2232 C2216 1.368 . S
C2232 C2228 1.368 . S
C2232 C2231 1.523 . S
H2233 C2208 0.950 . S
H2234 C2210 0.950 . S
H2235 C2211 0.949 . S
H2236 C2213 0.950 . S
H2237 C2215 0.950 . S
C2238 C2239 1.349 . S
C2238 C2240 1.327 . S
C2238 H2263 0.950 . S
C2239 C2238 1.349 . S
C2239 C2255 1.349 . S
C2240 C2238 1.327 . S
C2240 C2259 1.429 . S
C2240 H2264 0.950 . S
C2241 C2258 1.574 . S
C2241 C2260 1.368 . S
C2241 H2265 0.949 . S
H2242 C2246 0.949 . S
C2243 C2244 1.349 . S
C2243 C2245 1.327 . S
C2243 H2266 0.950 . S
C2244 C2243 1.349 . S
C2244 C2256 1.349 . S
C2245 C2243 1.327 . S
C2245 C2261 1.429 . S
C2245 H2267 0.950 . S
C2246 H2242 0.949 . S
C2246 C2254 1.574 . S
C2246 C2262 1.368 . S
H2247 C2255 0.950 . S
H2248 C2253 0.950 . S
H2249 C2254 0.949 . S
H2250 C2256 0.950 . S
H2251 C2257 0.950 . S
H2252 C2258 0.949 . S
C2253 H2248 0.950 . S
C2253 C2255 1.327 . S
C2253 C2259 1.429 . S
C2254 C2246 1.574 . S
C2254 H2249 0.949 . S
C2254 C2260 1.368 . S
C2255 C2239 1.349 . S
C2255 H2247 0.950 . S
C2255 C2253 1.327 . S
C2256 C2244 1.349 . S
C2256 H2250 0.950 . S
C2256 C2257 1.327 . S
C2257 H2251 0.950 . S
C2257 C2256 1.327 . S
C2257 C2261 1.429 . S
C2258 C2241 1.574 . S
C2258 H2252 0.949 . S
C2258 C2262 1.368 . S
C2259 C2240 1.429 . S
C2259 C2253 1.429 . S
C2259 C2260 1.523 . S
C2260 C2241 1.368 . S
C2260 C2254 1.368 . S
C2260 C2259 1.523 . S
C2261 C2245 1.429 . S
C2261 C2257 1.429 . S
C2261 C2262 1.523 . S
C2262 C2246 1.368 . S
C2262 C2258 1.368 . S
C2262 C2261 1.523 . S
H2263 C2238 0.950 . S
H2264 C2240 0.950 . S
H2265 C2241 0.949 . S
H2266 C2243 0.950 . S
H2267 C2245 0.950 . S
C2268 C2269 1.349 . S
C2268 C2270 1.327 . S
C2268 H2293 0.950 . S
C2269 C2268 1.349 . S
C2269 C2285 1.349 . S
C2270 C2268 1.327 . S
C2270 C2289 1.429 . S
C2270 H2294 0.950 . S
C2271 C2288 1.574 . S
C2271 C2290 1.368 . S
C2271 H2295 0.949 . S
H2272 C2276 0.949 . S
C2273 C2274 1.349 . S
C2273 C2275 1.327 . S
C2273 H2296 0.950 . S
C2274 C2273 1.349 . S
C2274 C2286 1.349 . S
C2275 C2273 1.327 . S
C2275 C2291 1.429 . S
C2275 H2297 0.950 . S
C2276 H2272 0.949 . S
C2276 C2284 1.574 . S
C2276 C2292 1.368 . S
H2277 C2285 0.950 . S
H2278 C2283 0.950 . S
H2279 C2284 0.949 . S
H2280 C2286 0.950 . S
H2281 C2287 0.950 . S
H2282 C2288 0.949 . S
C2283 H2278 0.950 . S
C2283 C2285 1.327 . S
C2283 C2289 1.429 . S
C2284 C2276 1.574 . S
C2284 H2279 0.949 . S
C2284 C2290 1.368 . S
C2285 C2269 1.349 . S
C2285 H2277 0.950 . S
C2285 C2283 1.327 . S
C2286 C2274 1.349 . S
C2286 H2280 0.950 . S
C2286 C2287 1.327 . S
C2287 H2281 0.950 . S
C2287 C2286 1.327 . S
C2287 C2291 1.429 . S
C2288 C2271 1.574 . S
C2288 H2282 0.949 . S
C2288 C2292 1.368 . S
C2289 C2270 1.429 . S
C2289 C2283 1.429 . S
C2289 C2290 1.523 . S
C2290 C2271 1.368 . S
C2290 C2284 1.368 . S
C2290 C2289 1.523 . S
C2291 C2275 1.429 . S
C2291 C2287 1.429 . S
C2291 C2292 1.523 . S
C2292 C2276 1.368 . S
C2292 C2288 1.368 . S
C2292 C2291 1.523 . S
H2293 C2268 0.950 . S
H2294 C2270 0.950 . S
H2295 C2271 0.949 . S
H2296 C2273 0.950 . S
H2297 C2275 0.950 . S
C2298 C2299 1.349 . S
C2298 C2300 1.327 . S
C2298 H2323 0.950 . S
C2299 C2298 1.349 . S
C2299 C2315 1.349 . S
C2300 C2298 1.327 . S
C2300 C2319 1.429 . S
C2300 H2324 0.950 . S
C2301 C2318 1.574 . S
C2301 C2320 1.368 . S
C2301 H2325 0.949 . S
H2302 C2306 0.949 . S
C2303 C2304 1.349 . S
C2303 C2305 1.327 . S
C2303 H2326 0.950 . S
C2304 C2303 1.349 . S
C2304 C2316 1.349 . S
C2305 C2303 1.327 . S
C2305 C2321 1.429 . S
C2305 H2327 0.950 . S
C2306 H2302 0.949 . S
C2306 C2314 1.574 . S
C2306 C2322 1.368 . S
H2307 C2315 0.950 . S
H2308 C2313 0.950 . S
H2309 C2314 0.949 . S
H2310 C2316 0.950 . S
H2311 C2317 0.950 . S
H2312 C2318 0.949 . S
C2313 H2308 0.950 . S
C2313 C2315 1.327 . S
C2313 C2319 1.429 . S
C2314 C2306 1.574 . S
C2314 H2309 0.949 . S
C2314 C2320 1.368 . S
C2315 C2299 1.349 . S
C2315 H2307 0.950 . S
C2315 C2313 1.327 . S
C2316 C2304 1.349 . S
C2316 H2310 0.950 . S
C2316 C2317 1.327 . S
C2317 H2311 0.950 . S
C2317 C2316 1.327 . S
C2317 C2321 1.429 . S
C2318 C2301 1.574 . S
C2318 H2312 0.949 . S
C2318 C2322 1.368 . S
C2319 C2300 1.429 . S
C2319 C2313 1.429 . S
C2319 C2320 1.523 . S
C2320 C2301 1.368 . S
C2320 C2314 1.368 . S
C2320 C2319 1.523 . S
C2321 C2305 1.429 . S
C2321 C2317 1.429 . S
C2321 C2322 1.523 . S
C2322 C2306 1.368 . S
C2322 C2318 1.368 . S
C2322 C2321 1.523 . S
H2323 C2298 0.950 . S
H2324 C2300 0.950 . S
H2325 C2301 0.949 . S
H2326 C2303 0.950 . S
H2327 C2305 0.950 . S
C2328 C2329 1.349 . S
C2328 C2330 1.327 . S
C2328 H2353 0.950 . S
C2329 C2328 1.349 . S
C2329 C2345 1.349 . S
C2330 C2328 1.327 . S
C2330 C2349 1.429 . S
C2330 H2354 0.950 . S
C2331 C2348 1.574 1_545 S
C2331 C2350 1.368 . S
C2331 H2355 0.949 . S
H2332 C2336 0.949 . S
C2333 C2334 1.349 . S
C2333 C2335 1.327 . S
C2333 H2356 0.950 . S
C2334 C2333 1.349 . S
C2334 C2346 1.349 . S
C2335 C2333 1.327 . S
C2335 C2351 1.429 . S
C2335 H2357 0.950 . S
C2336 H2332 0.949 . S
C2336 C2344 1.574 1_565 S
C2336 C2352 1.368 . S
H2337 C2345 0.950 . S
H2338 C2343 0.950 . S
H2339 C2344 0.949 . S
H2340 C2346 0.950 . S
H2341 C2347 0.950 . S
H2342 C2348 0.949 . S
C2343 H2338 0.950 . S
C2343 C2345 1.327 . S
C2343 C2349 1.429 . S
C2344 C2336 1.574 1_545 S
C2344 H2339 0.949 . S
C2344 C2350 1.368 . S
C2345 C2329 1.349 . S
C2345 H2337 0.950 . S
C2345 C2343 1.327 . S
C2346 C2334 1.349 . S
C2346 H2340 0.950 . S
C2346 C2347 1.327 . S
C2347 H2341 0.950 . S
C2347 C2346 1.327 . S
C2347 C2351 1.429 . S
C2348 C2331 1.574 1_565 S
C2348 H2342 0.949 . S
C2348 C2352 1.368 . S
C2349 C2330 1.429 . S
C2349 C2343 1.429 . S
C2349 C2350 1.523 . S
C2350 C2331 1.368 . S
C2350 C2344 1.368 . S
C2350 C2349 1.523 . S
C2351 C2335 1.429 . S
C2351 C2347 1.429 . S
C2351 C2352 1.523 . S
C2352 C2336 1.368 . S
C2352 C2348 1.368 . S
C2352 C2351 1.523 . S
H2353 C2328 0.950 . S
H2354 C2330 0.950 . S
H2355 C2331 0.949 . S
H2356 C2333 0.950 . S
H2357 C2335 0.950 . S
C2358 C2359 1.349 . S
C2358 C2360 1.327 . S
C2358 H2383 0.950 . S
C2359 C2358 1.349 . S
C2359 C2375 1.349 . S
C2360 C2358 1.327 . S
C2360 C2379 1.429 . S
C2360 H2384 0.950 . S
C2361 C2378 1.554 1_455 S
C2361 C2380 1.386 . S
C2361 H2385 0.948 . S
H2362 C2366 0.948 . S
C2363 C2364 1.349 . S
C2363 C2365 1.327 . S
C2363 H2386 0.950 . S
C2364 C2363 1.349 . S
C2364 C2376 1.349 . S
C2365 C2363 1.327 . S
C2365 C2381 1.429 . S
C2365 H2387 0.950 . S
C2366 H2362 0.948 . S
C2366 C2374 1.554 1_655 S
C2366 C2382 1.386 . S
H2367 C2375 0.950 . S
H2368 C2373 0.950 . S
H2369 C2374 0.949 . S
H2370 C2376 0.950 . S
H2371 C2377 0.950 . S
H2372 C2378 0.949 . S
C2373 H2368 0.950 . S
C2373 C2375 1.327 . S
C2373 C2379 1.429 . S
C2374 C2366 1.554 1_455 S
C2374 H2369 0.949 . S
C2374 C2380 1.368 . S
C2375 C2359 1.349 . S
C2375 H2367 0.950 . S
C2375 C2373 1.327 . S
C2376 C2364 1.349 . S
C2376 H2370 0.950 . S
C2376 C2377 1.327 . S
C2377 H2371 0.950 . S
C2377 C2376 1.327 . S
C2377 C2381 1.429 . S
C2378 C2361 1.554 1_655 S
C2378 H2372 0.949 . S
C2378 C2382 1.368 . S
C2379 C2360 1.429 . S
C2379 C2373 1.429 . S
C2379 C2380 1.523 . S
C2380 C2361 1.386 . S
C2380 C2374 1.368 . S
C2380 C2379 1.523 . S
C2381 C2365 1.429 . S
C2381 C2377 1.429 . S
C2381 C2382 1.523 . S
C2382 C2366 1.386 . S
C2382 C2378 1.368 . S
C2382 C2381 1.523 . S
H2383 C2358 0.950 . S
H2384 C2360 0.950 . S
H2385 C2361 0.948 . S
H2386 C2363 0.950 . S
H2387 C2365 0.950 . S
C2388 C2389 1.349 . S
C2388 C2390 1.327 . S
C2388 H2413 0.950 . S
C2389 C2388 1.349 . S
C2389 C2405 1.349 . S
C2390 C2388 1.327 . S
C2390 C2409 1.429 . S
C2390 H2414 0.950 . S
C2391 C2408 1.569 1_545 S
C2391 C2410 1.368 . S
C2391 H2415 0.949 . S
H2392 C2396 0.949 . S
C2393 C2394 1.349 . S
C2393 C2395 1.327 . S
C2393 H2416 0.950 . S
C2394 C2393 1.349 . S
C2394 C2406 1.349 . S
C2395 C2393 1.327 . S
C2395 C2411 1.429 . S
C2395 H2417 0.950 . S
C2396 H2392 0.949 . S
C2396 C2404 1.569 1_565 S
C2396 C2412 1.368 . S
H2397 C2405 0.950 . S
H2398 C2403 0.950 . S
H2399 C2404 0.949 . S
H2400 C2406 0.950 . S
H2401 C2407 0.950 . S
H2402 C2408 0.949 . S
C2403 H2398 0.950 . S
C2403 C2405 1.327 . S
C2403 C2409 1.429 . S
C2404 C2396 1.569 1_545 S
C2404 H2399 0.949 . S
C2404 C2410 1.372 . S
C2405 C2389 1.349 . S
C2405 H2397 0.950 . S
C2405 C2403 1.327 . S
C2406 C2394 1.349 . S
C2406 H2400 0.950 . S
C2406 C2407 1.327 . S
C2407 H2401 0.950 . S
C2407 C2406 1.327 . S
C2407 C2411 1.429 . S
C2408 C2391 1.569 1_565 S
C2408 H2402 0.949 . S
C2408 C2412 1.372 . S
C2409 C2390 1.429 . S
C2409 C2403 1.429 . S
C2409 C2410 1.523 . S
C2410 C2391 1.368 . S
C2410 C2404 1.372 . S
C2410 C2409 1.523 . S
C2411 C2395 1.429 . S
C2411 C2407 1.429 . S
C2411 C2412 1.523 . S
C2412 C2396 1.368 . S
C2412 C2408 1.372 . S
C2412 C2411 1.523 . S
H2413 C2388 0.950 . S
H2414 C2390 0.950 . S
H2415 C2391 0.949 . S
H2416 C2393 0.950 . S
H2417 C2395 0.950 . S
C2418 C2419 1.349 . S
C2418 C2420 1.327 . S
C2418 H2443 0.950 . S
C2419 C2418 1.349 . S
C2419 C2435 1.349 . S
C2420 C2418 1.327 . S
C2420 C2439 1.429 . S
C2420 H2444 0.950 . S
C2421 C2438 1.574 . S
C2421 C2440 1.368 1_655 S
C2421 H2445 0.949 . S
H2422 C2426 0.949 . S
C2423 C2424 1.349 . S
C2423 C2425 1.327 . S
C2423 H2446 0.950 . S
C2424 C2423 1.349 . S
C2424 C2436 1.349 . S
C2425 C2423 1.327 . S
C2425 C2441 1.429 . S
C2425 H2447 0.950 . S
C2426 H2422 0.949 . S
C2426 C2434 1.574 . S
C2426 C2442 1.368 1_455 S
H2427 C2435 0.950 . S
H2428 C2433 0.950 . S
H2429 C2434 0.949 . S
H2430 C2436 0.950 . S
H2431 C2437 0.950 . S
H2432 C2438 0.949 . S
C2433 H2428 0.950 . S
C2433 C2435 1.327 . S
C2433 C2439 1.429 . S
C2434 C2426 1.574 . S
C2434 H2429 0.949 . S
C2434 C2440 1.368 . S
C2435 C2419 1.349 . S
C2435 H2427 0.950 . S
C2435 C2433 1.327 . S
C2436 C2424 1.349 . S
C2436 H2430 0.950 . S
C2436 C2437 1.327 . S
C2437 H2431 0.950 . S
C2437 C2436 1.327 . S
C2437 C2441 1.429 . S
C2438 C2421 1.574 . S
C2438 H2432 0.949 . S
C2438 C2442 1.368 . S
C2439 C2420 1.429 . S
C2439 C2433 1.429 . S
C2439 C2440 1.523 . S
C2440 C2421 1.368 1_455 S
C2440 C2434 1.368 . S
C2440 C2439 1.523 . S
C2441 C2425 1.429 . S
C2441 C2437 1.429 . S
C2441 C2442 1.523 . S
C2442 C2426 1.368 1_655 S
C2442 C2438 1.368 . S
C2442 C2441 1.523 . S
H2443 C2418 0.950 . S
H2444 C2420 0.950 . S
H2445 C2421 0.949 . S
H2446 C2423 0.950 . S
H2447 C2425 0.950 . S
C2448 C2449 1.349 . S
C2448 C2450 1.327 . S
C2448 H2473 0.950 . S
C2449 C2448 1.349 . S
C2449 C2465 1.349 . S
C2450 C2448 1.327 . S
C2450 C2469 1.429 . S
C2450 H2474 0.950 . S
C2451 C2468 1.592 . S
C2451 C2470 1.350 1_565 S
C2451 H2475 0.949 . S
H2452 C2456 0.949 . S
C2453 C2454 1.349 . S
C2453 C2455 1.327 . S
C2453 H2476 0.950 . S
C2454 C2453 1.349 . S
C2454 C2466 1.349 . S
C2455 C2453 1.327 . S
C2455 C2471 1.429 . S
C2455 H2477 0.950 . S
C2456 H2452 0.949 . S
C2456 C2464 1.592 . S
C2456 C2472 1.350 1_545 S
H2457 C2465 0.950 . S
H2458 C2463 0.950 . S
H2459 C2464 0.949 . S
H2460 C2466 0.950 . S
H2461 C2467 0.950 . S
H2462 C2468 0.949 . S
C2463 H2458 0.950 . S
C2463 C2465 1.327 . S
C2463 C2469 1.429 . S
C2464 C2456 1.592 . S
C2464 H2459 0.949 . S
C2464 C2470 1.368 . S
C2465 C2449 1.349 . S
C2465 H2457 0.950 . S
C2465 C2463 1.327 . S
C2466 C2454 1.349 . S
C2466 H2460 0.950 . S
C2466 C2467 1.327 . S
C2467 H2461 0.950 . S
C2467 C2466 1.327 . S
C2467 C2471 1.429 . S
C2468 C2451 1.592 . S
C2468 H2462 0.949 . S
C2468 C2472 1.368 . S
C2469 C2450 1.429 . S
C2469 C2463 1.429 . S
C2469 C2470 1.523 . S
C2470 C2451 1.350 1_545 S
C2470 C2464 1.368 . S
C2470 C2469 1.523 . S
C2471 C2455 1.429 . S
C2471 C2467 1.429 . S
C2471 C2472 1.523 . S
C2472 C2456 1.350 1_565 S
C2472 C2468 1.368 . S
C2472 C2471 1.523 . S
H2473 C2448 0.950 . S
H2474 C2450 0.950 . S
H2475 C2451 0.949 . S
H2476 C2453 0.950 . S
H2477 C2455 0.950 . S
C2478 C2479 1.349 . S
C2478 C2480 1.327 . S
C2478 H2503 0.950 . S
C2479 C2478 1.349 . S
C2479 C2495 1.349 . S
C2480 C2478 1.327 . S
C2480 C2499 1.429 . S
C2480 H2504 0.950 . S
C2481 C2498 1.544 1_655 S
C2481 C2500 1.368 . S
C2481 H2505 0.949 . S
H2482 C2486 0.949 . S
C2483 C2484 1.349 . S
C2483 C2485 1.327 . S
C2483 H2506 0.950 . S
C2484 C2483 1.349 . S
C2484 C2496 1.349 . S
C2485 C2483 1.327 . S
C2485 C2501 1.429 . S
C2485 H2507 0.950 . S
C2486 H2482 0.949 . S
C2486 C2494 1.544 1_455 S
C2486 C2502 1.368 . S
H2487 C2495 0.950 . S
H2488 C2493 0.950 . S
H2489 C2494 0.955 . S
H2490 C2496 0.950 . S
H2491 C2497 0.950 . S
H2492 C2498 0.955 . S
C2493 H2488 0.950 . S
C2493 C2495 1.327 . S
C2493 C2499 1.429 . S
C2494 C2486 1.544 1_655 S
C2494 H2489 0.955 . S
C2494 C2500 1.395 . S
C2495 C2479 1.349 . S
C2495 H2487 0.950 . S
C2495 C2493 1.327 . S
C2496 C2484 1.349 . S
C2496 H2490 0.950 . S
C2496 C2497 1.327 . S
C2497 H2491 0.950 . S
C2497 C2496 1.327 . S
C2497 C2501 1.429 . S
C2498 C2481 1.544 1_455 S
C2498 H2492 0.955 . S
C2498 C2502 1.395 . S
C2499 C2480 1.429 . S
C2499 C2493 1.429 . S
C2499 C2500 1.523 . S
C2500 C2481 1.368 . S
C2500 C2494 1.395 . S
C2500 C2499 1.523 . S
C2501 C2485 1.429 . S
C2501 C2497 1.429 . S
C2501 C2502 1.523 . S
C2502 C2486 1.368 . S
C2502 C2498 1.395 . S
C2502 C2501 1.523 . S
H2503 C2478 0.950 . S
H2504 C2480 0.950 . S
H2505 C2481 0.949 . S
H2506 C2483 0.950 . S
H2507 C2485 0.950 . S
C2508 C2509 1.349 . S
C2508 C2510 1.327 . S
C2508 H2533 0.950 . S
C2509 C2508 1.349 . S
C2509 C2525 1.349 . S
C2510 C2508 1.327 . S
C2510 C2529 1.429 . S
C2510 H2534 0.950 . S
C2511 C2528 1.574 . S
C2511 C2530 1.368 1_565 S
C2511 H2535 0.949 . S
H2512 C2516 0.949 . S
C2513 C2514 1.349 . S
C2513 C2515 1.327 . S
C2513 H2536 0.950 . S
C2514 C2513 1.349 . S
C2514 C2526 1.349 . S
C2515 C2513 1.327 . S
C2515 C2531 1.429 . S
C2515 H2537 0.950 . S
C2516 H2512 0.949 . S
C2516 C2524 1.574 . S
C2516 C2532 1.368 1_545 S
H2517 C2525 0.950 . S
H2518 C2523 0.950 . S
H2519 C2524 0.949 . S
H2520 C2526 0.950 . S
H2521 C2527 0.950 . S
H2522 C2528 0.949 . S
C2523 H2518 0.950 . S
C2523 C2525 1.327 . S
C2523 C2529 1.429 . S
C2524 C2516 1.574 . S
C2524 H2519 0.949 . S
C2524 C2530 1.368 . S
C2525 C2509 1.349 . S
C2525 H2517 0.950 . S
C2525 C2523 1.327 . S
C2526 C2514 1.349 . S
C2526 H2520 0.950 . S
C2526 C2527 1.327 . S
C2527 H2521 0.950 . S
C2527 C2526 1.327 . S
C2527 C2531 1.429 . S
C2528 C2511 1.574 . S
C2528 H2522 0.949 . S
C2528 C2532 1.368 . S
C2529 C2510 1.429 . S
C2529 C2523 1.429 . S
C2529 C2530 1.523 . S
C2530 C2511 1.368 1_545 S
C2530 C2524 1.368 . S
C2530 C2529 1.523 . S
C2531 C2515 1.429 . S
C2531 C2527 1.429 . S
C2531 C2532 1.523 . S
C2532 C2516 1.368 1_565 S
C2532 C2528 1.368 . S
C2532 C2531 1.523 . S
H2533 C2508 0.950 . S
H2534 C2510 0.950 . S
H2535 C2511 0.949 . S
H2536 C2513 0.950 . S
H2537 C2515 0.950 . S
C2538 C2539 1.349 . S
C2538 C2540 1.327 . S
C2538 H2563 0.950 . S
C2539 C2538 1.349 . S
C2539 C2555 1.349 . S
C2540 C2538 1.327 . S
C2540 C2559 1.429 . S
C2540 H2564 0.950 . S
C2541 C2558 1.574 . S
C2541 C2560 1.368 1_455 S
C2541 H2565 0.949 . S
H2542 C2546 0.949 . S
C2543 C2544 1.349 . S
C2543 C2545 1.327 . S
C2543 H2566 0.950 . S
C2544 C2543 1.349 . S
C2544 C2556 1.349 . S
C2545 C2543 1.327 . S
C2545 C2561 1.429 . S
C2545 H2567 0.950 . S
C2546 H2542 0.949 . S
C2546 C2554 1.574 . S
C2546 C2562 1.368 1_655 S
H2547 C2555 0.950 . S
H2548 C2553 0.929 1_455 S
H2549 C2554 0.949 . S
H2550 C2556 0.950 . S
H2551 C2557 0.929 1_655 S
H2552 C2558 0.949 . S
C2553 H2548 0.929 1_655 S
C2553 C2555 1.327 . S
C2553 C2559 1.429 . S
C2554 C2546 1.574 . S
C2554 H2549 0.949 . S
C2554 C2560 1.368 . S
C2555 C2539 1.349 . S
C2555 H2547 0.950 . S
C2555 C2553 1.327 . S
C2556 C2544 1.349 . S
C2556 H2550 0.950 . S
C2556 C2557 1.327 . S
C2557 H2551 0.929 1_455 S
C2557 C2556 1.327 . S
C2557 C2561 1.429 . S
C2558 C2541 1.574 . S
C2558 H2552 0.949 . S
C2558 C2562 1.368 . S
C2559 C2540 1.429 . S
C2559 C2553 1.429 . S
C2559 C2560 1.523 . S
C2560 C2541 1.368 1_655 S
C2560 C2554 1.368 . S
C2560 C2559 1.523 . S
C2561 C2545 1.429 . S
C2561 C2557 1.429 . S
C2561 C2562 1.523 . S
C2562 C2546 1.368 1_455 S
C2562 C2558 1.368 . S
C2562 C2561 1.523 . S
H2563 C2538 0.950 . S
H2564 C2540 0.950 . S
H2565 C2541 0.949 . S
H2566 C2543 0.950 . S
H2567 C2545 0.950 . S
C2568 C2569 1.349 . S
C2568 C2570 1.327 . S
C2568 H2593 0.950 . S
C2569 C2568 1.349 . S
C2569 C2585 1.349 . S
C2570 C2568 1.327 . S
C2570 C2589 1.429 . S
C2570 H2594 0.950 . S
C2571 C2588 1.574 . S
C2571 C2590 1.368 1_554 S
C2571 H2595 0.949 . S
H2572 C2576 0.949 . S
C2573 C2574 1.349 . S
C2573 C2575 1.327 . S
C2573 H2596 0.950 . S
C2574 C2573 1.349 . S
C2574 C2586 1.349 . S
C2575 C2573 1.327 . S
C2575 C2591 1.429 . S
C2575 H2597 0.950 . S
C2576 H2572 0.949 . S
C2576 C2584 1.574 . S
C2576 C2592 1.368 1_556 S
H2577 C2585 0.950 . S
H2578 C2583 0.854 1_554 S
H2579 C2584 0.949 . S
H2580 C2586 0.950 . S
H2581 C2587 0.854 1_556 S
H2582 C2588 0.949 . S
C2583 H2578 0.854 1_556 S
C2583 C2585 1.327 . S
C2583 C2589 1.429 . S
C2584 C2576 1.574 . S
C2584 H2579 0.949 . S
C2584 C2590 1.368 . S
C2585 C2569 1.349 . S
C2585 H2577 0.950 . S
C2585 C2583 1.327 . S
C2586 C2574 1.349 . S
C2586 H2580 0.950 . S
C2586 C2587 1.327 . S
C2587 H2581 0.854 1_554 S
C2587 C2586 1.327 . S
C2587 C2591 1.429 . S
C2588 C2571 1.574 . S
C2588 H2582 0.949 . S
C2588 C2592 1.368 . S
C2589 C2570 1.429 . S
C2589 C2583 1.429 . S
C2589 C2590 1.523 . S
C2590 C2571 1.368 1_556 S
C2590 C2584 1.368 . S
C2590 C2589 1.523 . S
C2591 C2575 1.429 . S
C2591 C2587 1.429 . S
C2591 C2592 1.523 . S
C2592 C2576 1.368 1_554 S
C2592 C2588 1.368 . S
C2592 C2591 1.523 . S
H2593 C2568 0.950 . S
H2594 C2570 0.950 . S
H2595 C2571 0.949 . S
H2596 C2573 0.950 . S
H2597 C2575 0.950 . S
C2598 C2599 1.349 . S
C2598 C2600 1.327 . S
C2598 H2623 0.950 . S
C2599 C2598 1.349 . S
C2599 C2615 1.349 . S
C2600 C2598 1.327 . S
C2600 C2619 1.429 . S
C2600 H2624 0.837 1_554 S
C2601 C2618 1.574 . S
C2601 C2620 1.368 . S
C2601 H2625 0.949 . S
H2602 C2606 0.949 . S
C2603 C2604 1.349 . S
C2603 C2605 1.327 . S
C2603 H2626 0.950 . S
C2604 C2603 1.349 . S
C2604 C2616 1.349 . S
C2605 C2603 1.327 . S
C2605 C2621 1.429 . S
C2605 H2627 0.837 1_556 S
C2606 H2602 0.949 . S
C2606 C2614 1.574 . S
C2606 C2622 1.368 . S
H2607 C2615 0.950 . S
H2608 C2613 0.950 . S
H2609 C2614 0.949 . S
H2610 C2616 0.950 . S
H2611 C2617 0.950 . S
H2612 C2618 0.949 . S
C2613 H2608 0.950 . S
C2613 C2615 1.327 . S
C2613 C2619 1.429 . S
C2614 C2606 1.574 . S
C2614 H2609 0.949 . S
C2614 C2620 1.368 1_556 S
C2615 C2599 1.349 . S
C2615 H2607 0.950 . S
C2615 C2613 1.327 . S
C2616 C2604 1.349 . S
C2616 H2610 0.950 . S
C2616 C2617 1.327 . S
C2617 H2611 0.950 . S
C2617 C2616 1.327 . S
C2617 C2621 1.429 . S
C2618 C2601 1.574 . S
C2618 H2612 0.949 . S
C2618 C2622 1.368 1_554 S
C2619 C2600 1.429 . S
C2619 C2613 1.429 . S
C2619 C2620 1.523 . S
C2620 C2601 1.368 . S
C2620 C2614 1.368 1_554 S
C2620 C2619 1.523 . S
C2621 C2605 1.429 . S
C2621 C2617 1.429 . S
C2621 C2622 1.523 . S
C2622 C2606 1.368 . S
C2622 C2618 1.368 1_556 S
C2622 C2621 1.523 . S
H2623 C2598 0.950 . S
H2624 C2600 0.837 1_556 S
H2625 C2601 0.949 . S
H2626 C2603 0.950 . S
H2627 C2605 0.837 1_554 S
C2628 C2629 1.349 . S
C2628 C2630 1.327 . S
C2628 H2653 0.950 . S
C2629 C2628 1.349 . S
C2629 C2645 1.349 . S
C2630 C2628 1.327 . S
C2630 C2649 1.429 . S
C2630 H2654 0.950 . S
C2631 C2648 1.574 . S
C2631 C2650 1.368 1_554 S
C2631 H2655 0.949 . S
H2632 C2636 0.949 . S
C2633 C2634 1.349 . S
C2633 C2635 1.327 . S
C2633 H2656 0.950 . S
C2634 C2633 1.349 . S
C2634 C2646 1.349 . S
C2635 C2633 1.327 . S
C2635 C2651 1.429 . S
C2635 H2657 0.950 . S
C2636 H2632 0.949 . S
C2636 C2644 1.574 . S
C2636 C2652 1.368 1_556 S
H2637 C2645 0.950 . S
H2638 C2643 0.950 . S
H2639 C2644 0.949 . S
H2640 C2646 0.950 . S
H2641 C2647 0.950 . S
H2642 C2648 0.949 . S
C2643 H2638 0.950 . S
C2643 C2645 1.327 . S
C2643 C2649 1.429 . S
C2644 C2636 1.574 . S
C2644 H2639 0.949 . S
C2644 C2650 1.368 . S
C2645 C2629 1.349 . S
C2645 H2637 0.950 . S
C2645 C2643 1.327 . S
C2646 C2634 1.349 . S
C2646 H2640 0.950 . S
C2646 C2647 1.327 . S
C2647 H2641 0.950 . S
C2647 C2646 1.327 . S
C2647 C2651 1.429 . S
C2648 C2631 1.574 . S
C2648 H2642 0.949 . S
C2648 C2652 1.368 . S
C2649 C2630 1.429 . S
C2649 C2643 1.429 . S
C2649 C2650 1.523 . S
C2650 C2631 1.368 1_556 S
C2650 C2644 1.368 . S
C2650 C2649 1.523 . S
C2651 C2635 1.429 . S
C2651 C2647 1.429 . S
C2651 C2652 1.523 . S
C2652 C2636 1.368 1_554 S
C2652 C2648 1.368 . S
C2652 C2651 1.523 . S
H2653 C2628 0.950 . S
H2654 C2630 0.950 . S
H2655 C2631 0.949 . S
H2656 C2633 0.950 . S
H2657 C2635 0.950 . S
C2658 C2659 1.349 . S
C2658 C2660 1.327 . S
C2658 H2683 0.950 . S
C2659 C2658 1.349 . S
C2659 C2675 1.349 . S
C2660 C2658 1.327 . S
C2660 C2679 1.429 . S
C2660 H2684 0.950 1_554 S
C2661 C2678 1.574 . S
C2661 C2680 1.368 . S
C2661 H2685 0.949 . S
H2662 C2666 0.949 . S
C2663 C2664 1.349 . S
C2663 C2665 1.327 . S
C2663 H2686 0.950 . S
C2664 C2663 1.349 . S
C2664 C2676 1.349 . S
C2665 C2663 1.327 . S
C2665 C2681 1.429 . S
C2665 H2687 0.950 1_556 S
C2666 H2662 0.949 . S
C2666 C2674 1.574 . S
C2666 C2682 1.368 . S
H2667 C2675 0.950 . S
H2668 C2673 0.950 . S
H2669 C2674 0.949 . S
H2670 C2676 0.950 . S
H2671 C2677 0.950 . S
H2672 C2678 0.949 . S
C2673 H2668 0.950 . S
C2673 C2675 1.327 . S
C2673 C2679 1.429 . S
C2674 C2666 1.574 . S
C2674 H2669 0.949 . S
C2674 C2680 1.368 1_556 S
C2675 C2659 1.349 . S
C2675 H2667 0.950 . S
C2675 C2673 1.327 . S
C2676 C2664 1.349 . S
C2676 H2670 0.950 . S
C2676 C2677 1.327 . S
C2677 H2671 0.950 . S
C2677 C2676 1.327 . S
C2677 C2681 1.429 . S
C2678 C2661 1.574 . S
C2678 H2672 0.949 . S
C2678 C2682 1.368 1_554 S
C2679 C2660 1.429 . S
C2679 C2673 1.429 . S
C2679 C2680 1.523 . S
C2680 C2661 1.368 . S
C2680 C2674 1.368 1_554 S
C2680 C2679 1.523 . S
C2681 C2665 1.429 . S
C2681 C2677 1.429 . S
C2681 C2682 1.523 . S
C2682 C2666 1.368 . S
C2682 C2678 1.368 1_556 S
C2682 C2681 1.523 . S
H2683 C2658 0.950 . S
H2684 C2660 0.950 1_556 S
H2685 C2661 0.949 . S
H2686 C2663 0.950 . S
H2687 C2665 0.950 1_554 S
C529 C29 1.429 . S
C534 C7 1.429 . S
C559 C18 1.429 . S
C564 C40 1.429 . S
C589 C73 1.429 . S
C594 C51 1.429 . S
C619 C62 1.429 . S
C624 C84 1.429 . S
C649 C139 1.429 . S
C654 C95 1.429 . S
C679 C150 1.429 . S
C684 C106 1.429 . S
C709 C117 1.429 . S
C714 C161 1.429 . S
C739 C128 1.429 . S
C744 C172 1.429 . S
C769 C216 1.429 . S
C774 C183 1.429 . S
C799 C194 1.429 . S
C804 C238 1.429 . S
C829 C249 1.429 . S
C834 C205 1.429 . S
C859 C260 1.429 . S
C864 C227 1.429 . S
C889 C271 1.429 . S
C894 C293 1.429 . S
C919 C282 1.429 . S
C924 C304 1.429 . S
C949 C337 1.429 . S
C954 C315 1.429 . S
C979 C348 1.429 . S
C984 C326 1.429 . S
C1009 C359 1.429 . S
C1014 C403 1.429 . S
C1039 C370 1.429 . S
C1044 C414 1.429 . S
C1069 C381 1.429 . S
C1074 C425 1.429 . S
C1099 C436 1.429 . S
C1104 C392 1.429 . S
C1129 C480 1.429 . S
C1134 C447 1.429 . S
C1159 C502 1.429 . S
C1164 C458 1.429 . S
C1189 C513 1.429 . S
C1194 C469 1.429 . S
C1219 C524 1.429 . S
C1224 C491 1.429 . S
C1249 C5 1.212 . S
C1254 C346 1.212 . S
C1279 C313 1.212 . S
C1284 C16 1.212 . S
C1309 C27 1.212 . S
C1314 C324 1.212 . S
C1339 C38 1.212 . S
C1344 C335 1.212 . S
C1369 C280 1.212 . S
C1374 C49 1.212 . S
C1399 C291 1.212 . S
C1404 C60 1.212 . S
C1429 C71 1.212 . S
C1434 C302 1.212 . S
C1459 C82 1.212 . S
C1464 C269 1.212 . S
C1489 C489 1.212 . S
C1494 C93 1.212 . S
C1519 C104 1.212 . S
C1524 C456 1.212 . S
C1549 C467 1.212 . S
C1554 C115 1.212 . S
C1579 C126 1.212 . S
C1584 C478 1.212 . S
C1609 C137 1.212 . S
C1614 C522 1.212 . S
C1639 C148 1.212 . S
C1644 C500 1.212 . S
C1669 C159 1.212 . S
C1674 C511 1.212 . S
C1699 C170 1.212 . S
C1704 C445 1.212 . S
C1729 C181 1.212 . S
C1734 C434 1.212 . S
C1759 C192 1.212 . S
C1764 C368 1.212 . S
C1789 C203 1.212 . S
C1794 C379 1.212 . S
C1819 C390 1.212 . S
C1824 C214 1.212 . S
C1849 C225 1.212 . S
C1854 C357 1.212 . S
C1879 C412 1.212 . S
C1884 C236 1.212 . S
C1909 C423 1.212 . S
C1914 C247 1.212 . S
C1939 C401 1.212 . S
C1944 C258 1.212 . S
C1969 C250 1.644 . S
C1974 C8 1.644 . S
C1999 C184 1.644 . S
C2004 C19 1.644 . S
C2029 C30 1.644 . S
C2034 C261 1.644 . S
C2059 C41 1.644 . S
C2064 C239 1.644 . S
C2089 C52 1.644 . S
C2094 C206 1.644 . S
C2119 C217 1.644 . S
C2124 C63 1.644 . S
C2149 C228 1.644 . S
C2154 C74 1.644 . S
C2179 C85 1.644 . S
C2184 C195 1.644 . S
C2209 C96 1.644 . S
C2214 C151 1.644 . S
C2239 C107 1.644 . S
C2244 C162 1.644 . S
C2269 C118 1.644 . S
C2274 C173 1.644 . S
C2299 C140 1.644 . S
C2304 C129 1.644 . S
C2329 C514 1.644 . S
C2334 C272 1.644 . S
C2359 C283 1.644 . S
C2364 C448 1.644 . S
C2389 C294 1.644 . S
C2394 C525 1.644 . S
C2419 C503 1.644 . S
C2424 C305 1.644 . S
C2449 C316 1.644 . S
C2454 C470 1.644 . S
C2479 C327 1.644 . S
C2484 C481 1.644 . S
C2509 C492 1.644 . S
C2514 C338 1.644 . S
C2539 C459 1.644 . S
C2544 C349 1.644 . S
C2569 C360 1.644 . S
C2574 C415 1.644 . S
C2599 C426 1.644 . S
C2604 C371 1.644 . S
C2629 C382 1.644 . S
C2634 C437 1.644 . S
C2659 C404 1.644 . S
C2664 C393 1.644 . S
