# Generated by pormake.
# Topology ume, (4)-cn, num edge types: 1
# Building blocks:
#     Node 0, Type 0, BuildingBlock: KUFVIS_clean_sbu_0, # of connection points: 4
#     Node 1, Type 0, BuildingBlock: KUFVIS_clean_sbu_0, # of connection points: 4
#     Node 2, Type 0, BuildingBlock: KUFVIS_clean_sbu_0, # of connection points: 4
#     Node 3, Type 0, BuildingBlock: KUFVIS_clean_sbu_0, # of connection points: 4
#     Node 4, Type 0, BuildingBlock: KUFVIS_clean_sbu_0, # of connection points: 4
#     Node 5, Type 0, BuildingBlock: KUFVIS_clean_sbu_0, # of connection points: 4
#     Node 6, Type 0, BuildingBlock: KUFVIS_clean_sbu_0, # of connection points: 4
#     Node 7, Type 0, BuildingBlock: KUFVIS_clean_sbu_0, # of connection points: 4
#     Node 8, Type 0, BuildingBlock: KUFVIS_clean_sbu_0, # of connection points: 4
#     Node 9, Type 0, BuildingBlock: KUFVIS_clean_sbu_0, # of connection points: 4
#     Node 10, Type 0, BuildingBlock: KUFVIS_clean_sbu_0, # of connection points: 4
#     Node 11, Type 0, BuildingBlock: KUFVIS_clean_sbu_0, # of connection points: 4
#     Node 12, Type 0, BuildingBlock: KUFVIS_clean_sbu_0, # of connection points: 4
#     Node 13, Type 0, BuildingBlock: KUFVIS_clean_sbu_0, # of connection points: 4
#     Node 14, Type 0, BuildingBlock: KUFVIS_clean_sbu_0, # of connection points: 4
#     Node 15, Type 0, BuildingBlock: KUFVIS_clean_sbu_0, # of connection points: 4
#     Edge 16, Type (0, 0), BuildingBlock: XUDNAN_clean_linker_2, # of connection points: 2
#     Edge 17, Type (0, 0), BuildingBlock: XUDNAN_clean_linker_2, # of connection points: 2
#     Edge 18, Type (0, 0), BuildingBlock: XUDNAN_clean_linker_2, # of connection points: 2
#     Edge 19, Type (0, 0), BuildingBlock: XUDNAN_clean_linker_2, # of connection points: 2
#     Edge 20, Type (0, 0), BuildingBlock: XUDNAN_clean_linker_2, # of connection points: 2
#     Edge 21, Type (0, 0), BuildingBlock: XUDNAN_clean_linker_2, # of connection points: 2
#     Edge 22, Type (0, 0), BuildingBlock: XUDNAN_clean_linker_2, # of connection points: 2
#     Edge 23, Type (0, 0), BuildingBlock: XUDNAN_clean_linker_2, # of connection points: 2
#     Edge 24, Type (0, 0), BuildingBlock: XUDNAN_clean_linker_2, # of connection points: 2
#     Edge 25, Type (0, 0), BuildingBlock: XUDNAN_clean_linker_2, # of connection points: 2
#     Edge 26, Type (0, 0), BuildingBlock: XUDNAN_clean_linker_2, # of connection points: 2
#     Edge 27, Type (0, 0), BuildingBlock: XUDNAN_clean_linker_2, # of connection points: 2
#     Edge 28, Type (0, 0), BuildingBlock: XUDNAN_clean_linker_2, # of connection points: 2
#     Edge 29, Type (0, 0), BuildingBlock: XUDNAN_clean_linker_2, # of connection points: 2
#     Edge 30, Type (0, 0), BuildingBlock: XUDNAN_clean_linker_2, # of connection points: 2
#     Edge 31, Type (0, 0), BuildingBlock: XUDNAN_clean_linker_2, # of connection points: 2
#     Edge 32, Type (0, 0), BuildingBlock: XUDNAN_clean_linker_2, # of connection points: 2
#     Edge 33, Type (0, 0), BuildingBlock: XUDNAN_clean_linker_2, # of connection points: 2
#     Edge 34, Type (0, 0), BuildingBlock: XUDNAN_clean_linker_2, # of connection points: 2
#     Edge 35, Type (0, 0), BuildingBlock: XUDNAN_clean_linker_2, # of connection points: 2
#     Edge 36, Type (0, 0), BuildingBlock: XUDNAN_clean_linker_2, # of connection points: 2
#     Edge 37, Type (0, 0), BuildingBlock: XUDNAN_clean_linker_2, # of connection points: 2
#     Edge 38, Type (0, 0), BuildingBlock: XUDNAN_clean_linker_2, # of connection points: 2
#     Edge 39, Type (0, 0), BuildingBlock: XUDNAN_clean_linker_2, # of connection points: 2
#     Edge 40, Type (0, 0), BuildingBlock: XUDNAN_clean_linker_2, # of connection points: 2
#     Edge 41, Type (0, 0), BuildingBlock: XUDNAN_clean_linker_2, # of connection points: 2
#     Edge 42, Type (0, 0), BuildingBlock: XUDNAN_clean_linker_2, # of connection points: 2
#     Edge 43, Type (0, 0), BuildingBlock: XUDNAN_clean_linker_2, # of connection points: 2
#     Edge 44, Type (0, 0), BuildingBlock: XUDNAN_clean_linker_2, # of connection points: 2
#     Edge 45, Type (0, 0), BuildingBlock: XUDNAN_clean_linker_2, # of connection points: 2
#     Edge 46, Type (0, 0), BuildingBlock: XUDNAN_clean_linker_2, # of connection points: 2
#     Edge 47, Type (0, 0), BuildingBlock: XUDNAN_clean_linker_2, # of connection points: 2
# Relax obj value: 0.107
# Max RMSD: 0.163
# Mean RMSD: 0.163
data_MOF--net-ume--node1-KUFVIS_clean_sbu_0--edge1-XUDNAN_clean_linker_2
_symmetry_space_group_name_H-M    P1
_symmetry_Int_Tables_number       1
_symmetry_cell_setting            triclinic
loop_
_symmetry_equiv_pos_as_xyz
'x, y, z'
_cell_length_a     26.033908
_cell_length_b     26.054406
_cell_length_c     114.73249
_cell_angle_alpha  90.025956
_cell_angle_beta   90.075613
_cell_angle_gamma 90.021458
loop_
_atom_site_label
_atom_site_type_symbol
_atom_site_fract_x
_atom_site_fract_y
_atom_site_fract_z
_atom_type_partial_charge
Mn0 Mn 0.27022 0.12505 0.3172 0.0
Mn1 Mn 0.25639 0.02003 0.33409 0.0
C2 C 0.34272 0.08477 0.32447 0.0
C3 C 0.27311 0.1584 0.29843 0.0
C4 C 0.24089 0.12928 0.34277 0.0
O5 O 0.19506 0.10481 0.31497 0.0
O6 O 0.19494 0.02888 0.32417 0.0
C7 C 0.26051 0.94434 0.31486 0.0
N8 N 0.27853 0.96179 0.32528 0.0
C9 C 0.34303 0.89572 0.32591 0.0
C10 C 0.32495 0.87683 0.31522 0.0
C11 C 0.28361 0.90136 0.30965 0.0
C12 C 0.31898 0.93915 0.33058 0.0
H13 H 0.229 0.96332 0.3105 0.0
C14 C 0.1735 0.06261 0.31773 0.0
O15 O 0.25957 0.18694 0.3072 0.0
O16 O 0.28437 0.11091 0.3006 0.0
N17 N 0.3122 0.00442 0.34436 0.0
C18 C 0.3222 0.02501 0.35506 0.0
C19 C 0.36033 0.00297 0.36214 0.0
C20 C 0.38692 0.95925 0.35829 0.0
C21 C 0.37459 0.9375 0.34746 0.0
C22 C 0.33574 0.96076 0.34086 0.0
H23 H 0.30119 0.05791 0.3582 0.0
O24 O 0.34582 0.13081 0.32024 0.0
O25 O 0.2979 0.06312 0.32378 0.0
O26 O 0.25524 0.15234 0.33351 0.0
O27 O 0.23573 0.08042 0.34364 0.0
C28 C 0.39924 0.89362 0.34297 0.0
C29 C 0.38391 0.87313 0.33213 0.0
H30 H 0.34254 0.84357 0.31121 0.0
H31 H 0.2696 0.88718 0.30137 0.0
H32 H 0.36906 0.01955 0.37056 0.0
H33 H 0.41656 0.94259 0.36374 0.0
H34 H 0.43011 0.87541 0.34777 0.0
H35 H 0.40338 0.83961 0.32872 0.0
Mn36 Mn 0.87644 0.73504 0.566 0.0
Mn37 Mn 0.97837 0.73493 0.58448 0.0
C38 C 0.92613 0.80796 0.56816 0.0
C39 C 0.84096 0.72464 0.54734 0.0
C40 C 0.86832 0.74202 0.59274 0.0
O41 O 0.8914 0.65909 0.56779 0.0
O42 O 0.95797 0.66353 0.58041 0.0
C43 C 0.05714 0.6907 0.56881 0.0
N44 N 0.04162 0.7286 0.57618 0.0
C45 C 0.12403 0.77024 0.57508 0.0
C46 C 0.14098 0.73149 0.56752 0.0
C47 C 0.10732 0.69168 0.56434 0.0
C48 C 0.07372 0.76709 0.57931 0.0
H49 H 0.03148 0.65989 0.56639 0.0
C50 C 0.92623 0.63832 0.57405 0.0
O51 O 0.81264 0.72127 0.55662 0.0
O52 O 0.88972 0.73168 0.54894 0.0
N53 N 0.00333 0.80106 0.58909 0.0
C54 C 0.97886 0.8389 0.59509 0.0
C55 C 0.00607 0.88316 0.59838 0.0
C56 C 0.05828 0.88794 0.59551 0.0
C57 C 0.08262 0.84863 0.58925 0.0
C58 C 0.05349 0.80538 0.58622 0.0
H59 H 0.93875 0.83558 0.59717 0.0
O60 O 0.87852 0.81137 0.56486 0.0
O61 O 0.94298 0.7622 0.5706 0.0
O62 O 0.84655 0.73808 0.58278 0.0
O63 O 0.9168 0.74239 0.59415 0.0
C64 C 0.13397 0.85165 0.58544 0.0
C65 C 0.15463 0.81252 0.57835 0.0
H66 H 0.17956 0.73223 0.564 0.0
H67 H 0.12007 0.66177 0.55847 0.0
H68 H 0.98681 0.91359 0.60308 0.0
H69 H 0.07897 0.92242 0.59793 0.0
H70 H 0.15744 0.8846 0.58765 0.0
H71 H 0.19377 0.81589 0.57525 0.0
Mn72 Mn 0.20012 0.39266 0.81587 0.0
Mn73 Mn 0.16775 0.48623 0.83475 0.0
C74 C 0.11484 0.41693 0.81766 0.0
C75 C 0.21868 0.3646 0.79698 0.0
C76 C 0.18986 0.3772 0.84212 0.0
O77 O 0.26856 0.4284 0.81818 0.0
O78 O 0.24247 0.48688 0.83133 0.0
C79 C 0.19344 0.57934 0.82114 0.0
N80 N 0.15952 0.55187 0.82766 0.0
C81 C 0.10786 0.62676 0.83125 0.0
C82 C 0.14225 0.65599 0.82458 0.0
C83 C 0.1848 0.63199 0.81936 0.0
C84 C 0.11746 0.57415 0.83233 0.0
H85 H 0.22723 0.56137 0.81753 0.0
C86 C 0.27713 0.46616 0.82499 0.0
O87 O 0.23101 0.33693 0.80598 0.0
O88 O 0.1997 0.40954 0.79905 0.0
N89 N 0.09713 0.49237 0.83895 0.0
C90 C 0.06548 0.45743 0.84406 0.0
C91 C 0.01859 0.47395 0.84881 0.0
C92 C 0.00566 0.52637 0.84857 0.0
C93 C 0.03897 0.56153 0.84323 0.0
C94 C 0.08403 0.54242 0.83823 0.0
H95 H 0.07634 0.4175 0.8446 0.0
O96 O 0.12795 0.37097 0.81453 0.0
O97 O 0.15249 0.44807 0.82031 0.0
O98 O 0.20477 0.35991 0.83229 0.0
O99 O 0.17431 0.42289 0.84357 0.0
C100 C 0.02938 0.61476 0.84265 0.0
C101 C 0.06393 0.64742 0.83671 0.0
H102 H 0.1362 0.69676 0.82336 0.0
H103 H 0.21152 0.65428 0.81421 0.0
H104 H 0.993 0.44658 0.85288 0.0
H105 H 0.96997 0.53913 0.85246 0.0
H106 H 0.99512 0.63083 0.84656 0.0
H107 H 0.05562 0.68807 0.83612 0.0
Mn108 Mn 0.62954 0.7327 0.06014 0.0
Mn109 Mn 0.52612 0.73139 0.07808 0.0
C110 C 0.57867 0.66055 0.06122 0.0
C111 C 0.66466 0.74596 0.04155 0.0
C112 C 0.63518 0.71848 0.08679 0.0
O113 O 0.61688 0.80831 0.0628 0.0
O114 O 0.54917 0.80292 0.075 0.0
C115 C 0.45038 0.78168 0.06255 0.0
N116 N 0.4638 0.74193 0.06962 0.0
C117 C 0.37931 0.70494 0.06817 0.0
C118 C 0.36447 0.74563 0.06091 0.0
C119 C 0.40024 0.78402 0.05805 0.0
C120 C 0.42971 0.70475 0.07242 0.0
H121 H 0.47765 0.81146 0.06041 0.0
C122 C 0.58224 0.82861 0.06914 0.0
O123 O 0.69361 0.74658 0.0508 0.0
O124 O 0.61587 0.74046 0.04322 0.0
N125 N 0.4983 0.66544 0.08184 0.0
C126 C 0.52104 0.62496 0.08729 0.0
C127 C 0.49144 0.5819 0.0903 0.0
C128 C 0.43875 0.58088 0.08765 0.0
C129 C 0.41644 0.62247 0.08176 0.0
C130 C 0.44787 0.66444 0.07904 0.0
H131 H 0.56166 0.62511 0.08902 0.0
O132 O 0.62635 0.65722 0.05804 0.0
O133 O 0.56204 0.70594 0.06412 0.0
O134 O 0.65836 0.72475 0.07704 0.0
O135 O 0.58652 0.7194 0.08784 0.0
C136 C 0.36495 0.62285 0.07796 0.0
C137 C 0.34643 0.66399 0.07115 0.0
H138 H 0.32589 0.7475 0.05739 0.0
H139 H 0.38912 0.81543 0.05241 0.0
H140 H 0.50923 0.54942 0.09458 0.0
H141 H 0.4162 0.54731 0.08985 0.0
H142 H 0.3397 0.59096 0.07993 0.0
H143 H 0.30714 0.66322 0.06803 0.0
Mn144 Mn 0.28058 0.35725 0.9472 0.0
Mn145 Mn 0.28056 0.46735 0.93188 0.0
C146 C 0.35732 0.38726 0.9396 0.0
C147 C 0.28181 0.31998 0.96562 0.0
C148 C 0.24336 0.36471 0.92234 0.0
O149 O 0.20976 0.38865 0.95027 0.0
O150 O 0.22294 0.46778 0.94306 0.0
C151 C 0.30611 0.53788 0.95127 0.0
N152 N 0.31639 0.51915 0.94044 0.0
C153 C 0.3886 0.57594 0.93829 0.0
C154 C 0.37839 0.59634 0.94936 0.0
C155 C 0.3372 0.57693 0.95591 0.0
C156 C 0.35683 0.53645 0.93421 0.0
H157 H 0.27454 0.52298 0.95634 0.0
C158 C 0.19654 0.43537 0.94886 0.0
O159 O 0.26208 0.29574 0.95678 0.0
O160 O 0.29988 0.36555 0.96375 0.0
N161 N 0.33408 0.4743 0.92055 0.0
C162 C 0.33672 0.45282 0.90973 0.0
C163 C 0.37474 0.46926 0.90189 0.0
C164 C 0.40879 0.5086 0.90513 0.0
C165 C 0.40423 0.53145 0.91614 0.0
C166 C 0.36544 0.51359 0.92356 0.0
H167 H 0.30991 0.42355 0.90703 0.0
O168 O 0.35391 0.34041 0.94333 0.0
O169 O 0.31666 0.41532 0.94098 0.0
O170 O 0.25829 0.33656 0.93079 0.0
O171 O 0.24498 0.41397 0.92241 0.0
C172 C 0.43649 0.5714 0.92002 0.0
C173 C 0.42902 0.59327 0.93114 0.0
H174 H 0.40208 0.62671 0.95293 0.0
H175 H 0.32933 0.59217 0.9645 0.0
H176 H 0.37754 0.4519 0.89335 0.0
H177 H 0.43815 0.52108 0.89908 0.0
H178 H 0.46723 0.58552 0.91454 0.0
H179 H 0.45431 0.62368 0.93407 0.0
Mn180 Mn 0.64246 0.75441 0.19437 0.0
Mn181 Mn 0.53164 0.73979 0.17947 0.0
C182 C 0.60081 0.82628 0.18719 0.0
C183 C 0.67961 0.75978 0.21298 0.0
C184 C 0.63739 0.72029 0.16895 0.0
O185 O 0.62207 0.68006 0.19739 0.0
O186 O 0.54269 0.67995 0.18974 0.0
C187 C 0.46249 0.74891 0.19982 0.0
N188 N 0.47685 0.76471 0.18899 0.0
C189 C 0.41106 0.82952 0.18872 0.0
C190 C 0.39532 0.81373 0.19984 0.0
C191 C 0.4213 0.77338 0.20543 0.0
C192 C 0.4529 0.80425 0.18366 0.0
H193 H 0.48253 0.71807 0.20417 0.0
C194 C 0.57868 0.6588 0.19559 0.0
O195 O 0.70645 0.7447 0.20405 0.0
O196 O 0.63208 0.77136 0.21104 0.0
N197 N 0.51378 0.79408 0.16899 0.0
C198 C 0.53148 0.80218 0.15796 0.0
C199 C 0.50785 0.83939 0.1509 0.0
C200 C 0.46549 0.86704 0.15514 0.0
C201 C 0.44672 0.85674 0.16634 0.0
C202 C 0.4715 0.8188 0.17292 0.0
H203 H 0.56324 0.78029 0.15453 0.0
O204 O 0.64808 0.82952 0.19069 0.0
O205 O 0.57914 0.78188 0.18852 0.0
O206 O 0.66443 0.73598 0.17761 0.0
O207 O 0.58822 0.71615 0.16918 0.0
C208 C 0.40433 0.88252 0.17123 0.0
C209 C 0.38688 0.86931 0.18247 0.0
H210 H 0.36341 0.83235 0.20417 0.0
H211 H 0.40956 0.76114 0.21404 0.0
H212 H 0.52213 0.84657 0.1422 0.0
H213 H 0.44758 0.89593 0.1497 0.0
H214 H 0.38498 0.91266 0.16643 0.0
H215 H 0.35449 0.88965 0.18617 0.0
Mn216 Mn 0.22614 0.12029 0.44836 0.0
Mn217 Mn 0.21126 0.02849 0.428 0.0
C218 C 0.14488 0.09237 0.44361 0.0
C219 C 0.23487 0.14712 0.46765 0.0
C220 C 0.22781 0.13957 0.42211 0.0
O221 O 0.29618 0.08788 0.44821 0.0
O222 O 0.28456 0.03445 0.43302 0.0
C223 C 0.23976 0.93688 0.44191 0.0
N224 N 0.20634 0.96158 0.4347 0.0
C225 C 0.1618 0.88285 0.43038 0.0
C226 C 0.19566 0.85653 0.43778 0.0
C227 C 0.23437 0.8838 0.44369 0.0
C228 C 0.16792 0.93598 0.4293 0.0
H229 H 0.27077 0.95732 0.4461 0.0
C230 C 0.31244 0.05478 0.44098 0.0
O231 O 0.24975 0.17614 0.45908 0.0
O232 O 0.21722 0.10212 0.465 0.0
N233 N 0.14365 0.01579 0.42216 0.0
C234 C 0.11083 0.04797 0.41653 0.0
C235 C 0.06748 0.02765 0.41086 0.0
C236 C 0.05925 0.97431 0.41078 0.0
C237 C 0.09345 0.942 0.41674 0.0
C238 C 0.13466 0.96478 0.42263 0.0
H239 H 0.11775 0.08868 0.41641 0.0
O240 O 0.15322 0.13839 0.44751 0.0
O241 O 0.18526 0.06317 0.44213 0.0
O242 O 0.23855 0.15507 0.43237 0.0
O243 O 0.21491 0.09371 0.41976 0.0
C244 C 0.08807 0.88815 0.41719 0.0
C245 C 0.12222 0.85857 0.42402 0.0
H246 H 0.19226 0.81544 0.439 0.0
H247 H 0.26073 0.86375 0.44939 0.0
H248 H 0.04102 0.05291 0.40638 0.0
H249 H 0.02629 0.95866 0.40623 0.0
H250 H 0.05698 0.86929 0.41259 0.0
H251 H 0.11694 0.8174 0.42455 0.0
Mn252 Mn 0.86723 0.77345 0.70064 0.0
Mn253 Mn 0.97617 0.77034 0.68477 0.0
C254 C 0.91942 0.70176 0.70171 0.0
C255 C 0.82424 0.7949 0.71781 0.0
C256 C 0.86864 0.76292 0.67443 0.0
O257 O 0.88007 0.84841 0.69612 0.0
O258 O 0.96142 0.84213 0.68927 0.0
C259 C 0.05644 0.80448 0.70134 0.0
N260 N 0.03815 0.76909 0.69365 0.0
C261 C 0.11618 0.71985 0.69486 0.0
C262 C 0.13604 0.75599 0.70273 0.0
C263 C 0.10592 0.79833 0.70603 0.0
C264 C 0.06676 0.72817 0.69042 0.0
H265 H 0.03342 0.83708 0.70385 0.0
C266 C 0.92251 0.86818 0.6927 0.0
O267 O 0.79962 0.78892 0.70806 0.0
O268 O 0.87384 0.79075 0.71751 0.0
N269 N 0.99445 0.70232 0.68004 0.0
C270 C 0.96685 0.66763 0.67372 0.0
C271 C 0.9896 0.62081 0.67054 0.0
C272 C 0.04063 0.61043 0.67376 0.0
C273 C 0.06827 0.64676 0.68025 0.0
C274 C 0.04344 0.69255 0.68325 0.0
H275 H 0.92775 0.67552 0.67116 0.0
O276 O 0.87135 0.69907 0.70462 0.0
O277 O 0.93563 0.74633 0.69817 0.0
O278 O 0.84391 0.75659 0.6839 0.0
O279 O 0.91674 0.77165 0.6741 0.0
C280 C 0.11885 0.63858 0.68422 0.0
C281 C 0.14282 0.67512 0.69151 0.0
H282 H 0.17405 0.75122 0.70642 0.0
H283 H 0.12086 0.8262 0.71215 0.0
H284 H 0.96787 0.59283 0.6656 0.0
H285 H 0.05795 0.57414 0.67139 0.0
H286 H 0.13917 0.60368 0.68197 0.0
H287 H 0.18121 0.66774 0.69475 0.0
Mn288 Mn 0.72704 0.63539 0.80837 0.0
Mn289 Mn 0.73407 0.51562 0.81976 0.0
C290 C 0.79827 0.58533 0.8045 0.0
C291 C 0.70601 0.69046 0.793 0.0
C292 C 0.75117 0.61287 0.83397 0.0
O293 O 0.65301 0.62055 0.8129 0.0
O294 O 0.66149 0.53771 0.81837 0.0
C295 C 0.68483 0.45468 0.80103 0.0
N296 N 0.72471 0.46262 0.80849 0.0
C297 C 0.76355 0.38207 0.80325 0.0
C298 C 0.72263 0.37273 0.79557 0.0
C299 C 0.6833 0.40937 0.79439 0.0
C300 C 0.76299 0.42788 0.80961 0.0
H301 H 0.65446 0.48267 0.80019 0.0
C302 C 0.63438 0.57756 0.81618 0.0
O303 O 0.71171 0.70759 0.80356 0.0
O304 O 0.70821 0.64117 0.79161 0.0
N305 N 0.80166 0.48834 0.82167 0.0
C306 C 0.84175 0.50694 0.82804 0.0
C307 C 0.8856 0.47638 0.82964 0.0
C308 C 0.88756 0.42695 0.82477 0.0
C309 C 0.84627 0.40913 0.81801 0.0
C310 C 0.80358 0.44129 0.81674 0.0
H311 H 0.84028 0.54483 0.83182 0.0
O312 O 0.80024 0.6349 0.80375 0.0
O313 O 0.7545 0.56565 0.80773 0.0
O314 O 0.74661 0.64564 0.82575 0.0
O315 O 0.74525 0.56486 0.83243 0.0
C316 C 0.84657 0.36166 0.81211 0.0
C317 C 0.80538 0.34828 0.80469 0.0
H318 H 0.72132 0.33787 0.79043 0.0
H319 H 0.65177 0.40255 0.78844 0.0
H320 H 0.9177 0.4908 0.83465 0.0
H321 H 0.92147 0.40353 0.82604 0.0
H322 H 0.87897 0.33586 0.81296 0.0
H323 H 0.80672 0.31233 0.79995 0.0
Mn324 Mn 0.37052 0.25856 0.06736 0.0
Mn325 Mn 0.46248 0.27257 0.08791 0.0
C326 C 0.39782 0.33987 0.07232 0.0
C327 C 0.34647 0.24765 0.04794 0.0
C328 C 0.35113 0.25133 0.09347 0.0
O329 O 0.40242 0.18812 0.06794 0.0
O330 O 0.46236 0.20106 0.08181 0.0
C331 C 0.55742 0.25455 0.07436 0.0
N332 N 0.5291 0.2848 0.08158 0.0
C333 C 0.60326 0.33515 0.08672 0.0
C334 C 0.63324 0.30471 0.07929 0.0
C335 C 0.61006 0.26468 0.07296 0.0
C336 C 0.55068 0.32444 0.0874 0.0
H337 H 0.54018 0.22234 0.06989 0.0
C338 C 0.43949 0.17295 0.07428 0.0
O339 O 0.31599 0.23417 0.05636 0.0
O340 O 0.39102 0.26584 0.05083 0.0
N341 N 0.46864 0.33941 0.09462 0.0
C342 C 0.43335 0.36719 0.10068 0.0
C343 C 0.44906 0.4118 0.10658 0.0
C344 C 0.50114 0.42616 0.10653 0.0
C345 C 0.53682 0.39645 0.10034 0.0
C346 C 0.51843 0.35389 0.09418 0.0
H347 H 0.39372 0.35508 0.10108 0.0
O348 O 0.35271 0.33164 0.06786 0.0
O349 O 0.42677 0.29943 0.07394 0.0
O350 O 0.33387 0.24809 0.08311 0.0
O351 O 0.39775 0.26051 0.09594 0.0
C352 C 0.58996 0.40698 0.10012 0.0
C353 C 0.62328 0.37599 0.09342 0.0
H354 H 0.67403 0.3118 0.07835 0.0
H355 H 0.63298 0.24091 0.06724 0.0
H356 H 0.42134 0.43438 0.11138 0.0
H357 H 0.51332 0.45991 0.11131 0.0
H358 H 0.6055 0.43917 0.10496 0.0
H359 H 0.66389 0.38492 0.09317 0.0
Mn360 Mn 0.74042 0.86515 0.31476 0.0
Mn361 Mn 0.73455 0.97577 0.32991 0.0
C362 C 0.66149 0.89213 0.32189 0.0
C363 C 0.74262 0.82986 0.29593 0.0
C364 C 0.77248 0.87446 0.34017 0.0
O365 O 0.81076 0.89839 0.31224 0.0
O366 O 0.79411 0.977 0.31928 0.0
C367 C 0.71019 0.04269 0.30981 0.0
N368 N 0.69895 0.02556 0.32073 0.0
C369 C 0.62526 0.08092 0.32192 0.0
C370 C 0.63638 0.09964 0.31075 0.0
C371 C 0.67882 0.08013 0.30463 0.0
C372 C 0.65723 0.04274 0.32651 0.0
H373 H 0.74271 0.02768 0.30508 0.0
C374 C 0.82241 0.94541 0.31374 0.0
O375 O 0.76178 0.80506 0.30477 0.0
O376 O 0.72299 0.87442 0.29808 0.0
N377 N 0.67936 0.98314 0.34079 0.0
C378 C 0.67663 0.96438 0.35187 0.0
C379 C 0.63792 0.9819 0.3594 0.0
C380 C 0.60342 0.01985 0.35563 0.0
C381 C 0.60828 0.04028 0.34438 0.0
C382 C 0.64772 0.02138 0.33727 0.0
H383 H 0.70395 0.93646 0.355 0.0
O384 O 0.66707 0.84572 0.31803 0.0
O385 O 0.70135 0.92166 0.32086 0.0
O386 O 0.76115 0.84536 0.33151 0.0
O387 O 0.76924 0.92372 0.33989 0.0
C388 C 0.57597 0.07916 0.34001 0.0
C389 C 0.58394 0.09887 0.32871 0.0
H390 H 0.61254 0.12888 0.30678 0.0
H391 H 0.68744 0.09409 0.29597 0.0
H392 H 0.63504 0.96658 0.36814 0.0
H393 H 0.57361 0.03328 0.36146 0.0
H394 H 0.5449 0.0942 0.34526 0.0
H395 H 0.55855 0.12841 0.32539 0.0
Mn396 Mn 0.14306 0.20847 0.56974 0.0
Mn397 Mn 0.05755 0.199 0.59173 0.0
C398 C 0.11667 0.12828 0.57596 0.0
C399 C 0.16545 0.21525 0.55014 0.0
C400 C 0.16977 0.22107 0.59551 0.0
O401 O 0.11028 0.2786 0.56967 0.0
O402 O 0.05776 0.26984 0.58513 0.0
C403 C 0.95955 0.21764 0.5793 0.0
N404 N 0.98898 0.18779 0.5864 0.0
C405 C 0.915 0.14064 0.59298 0.0
C406 C 0.88387 0.17068 0.5857 0.0
C407 C 0.90636 0.20887 0.57871 0.0
C408 C 0.96795 0.14982 0.59285 0.0
H409 H 0.97638 0.24852 0.57433 0.0
C410 C 0.07682 0.29589 0.57672 0.0
O411 O 0.19598 0.23102 0.55833 0.0
O412 O 0.12137 0.1966 0.5533 0.0
N413 N 0.05143 0.1334 0.59901 0.0
C414 C 0.08755 0.1056 0.60483 0.0
C415 C 0.07222 0.06266 0.61136 0.0
C416 C 0.01981 0.0501 0.61221 0.0
C417 C 0.98333 0.07985 0.60626 0.0
C418 C 0.00119 0.12056 0.59943 0.0
H419 H 0.12758 0.11653 0.60456 0.0
O420 O 0.1612 0.13544 0.57112 0.0
O421 O 0.08831 0.16921 0.57744 0.0
O422 O 0.18257 0.22458 0.58486 0.0
O423 O 0.12468 0.21033 0.59889 0.0
C424 C 0.92993 0.07113 0.60691 0.0
C425 C 0.89571 0.10184 0.60036 0.0
H426 H 0.84271 0.16474 0.58539 0.0
H427 H 0.88256 0.23235 0.5731 0.0
H428 H 0.10058 0.04005 0.61597 0.0
H429 H 0.00802 0.01769 0.61748 0.0
H430 H 0.91483 0.04046 0.61228 0.0
H431 H 0.85485 0.09423 0.60077 0.0
Mn432 Mn 0.7537 0.85876 0.44993 0.0
Mn433 Mn 0.75569 0.97035 0.43479 0.0
C434 C 0.82576 0.9098 0.45042 0.0
C435 C 0.74149 0.8154 0.46761 0.0
C436 C 0.76845 0.86621 0.42335 0.0
O437 O 0.67801 0.87293 0.44748 0.0
O438 O 0.68377 0.94709 0.43736 0.0
C439 C 0.70644 0.03994 0.45186 0.0
N440 N 0.74624 0.02875 0.4446 0.0
C441 C 0.78495 0.11137 0.44795 0.0
C442 C 0.74425 0.12389 0.45543 0.0
C443 C 0.70496 0.08794 0.45743 0.0
C444 C 0.7842 0.06311 0.4426 0.0
H445 H 0.67596 0.01256 0.45332 0.0
C446 C 0.6579 0.91114 0.44223 0.0
O447 O 0.74042 0.79065 0.45776 0.0
O448 O 0.74584 0.8647 0.46705 0.0
N449 N 0.82239 -0.00185 0.43175 0.0
C450 C 0.86286 0.97666 0.42604 0.0
C451 C 0.90709 0.00612 0.42395 0.0
C452 C 0.9092 0.05734 0.42775 0.0
C453 C 0.86753 0.07822 0.43388 0.0
C454 C 0.82448 0.04698 0.4357 0.0
H455 H 0.86178 0.93702 0.42336 0.0
O456 O 0.82906 0.8608 0.45223 0.0
O457 O 0.78049 0.92777 0.4478 0.0
O458 O 0.7626 0.83808 0.43242 0.0
O459 O 0.76659 0.91495 0.42365 0.0
C460 C 0.86806 0.12782 0.43878 0.0
C461 C 0.82684 0.14435 0.44583 0.0
H462 H 0.74307 0.16076 0.45979 0.0
H463 H 0.67353 0.09728 0.46322 0.0
H464 H 0.9396 0.98931 0.41949 0.0
H465 H 0.94362 0.07974 0.42625 0.0
H466 H 0.90072 0.15295 0.43749 0.0
H467 H 0.82834 0.18205 0.4498 0.0
Mn468 Mn 0.12244 0.29585 0.69606 0.0
Mn469 Mn 0.04338 0.32566 0.67372 0.0
C470 C 0.10242 0.38105 0.69213 0.0
C471 C 0.14055 0.27946 0.71566 0.0
C472 C 0.15458 0.29674 0.67047 0.0
O473 O 0.08502 0.22832 0.69355 0.0
O474 O 0.03682 0.25225 0.67817 0.0
C475 C 0.94131 0.30797 0.68438 0.0
N476 N 0.97442 0.3388 0.67845 0.0
C477 C 0.90546 0.39313 0.67192 0.0
C478 C 0.87047 0.36178 0.67789 0.0
C479 C 0.88859 0.31949 0.6843 0.0
C480 C 0.95765 0.38082 0.6727 0.0
H481 H 0.95496 0.27445 0.68896 0.0
C482 C 0.05148 0.21906 0.6857 0.0
O483 O 0.17137 0.26458 0.70746 0.0
O484 O 0.09788 0.30092 0.71245 0.0
N485 N 0.0437 0.39515 0.66845 0.0
C486 C 0.08315 0.42351 0.66409 0.0
C487 C 0.07242 0.47014 0.65845 0.0
C488 C 0.02119 0.48613 0.65704 0.0
C489 C 0.98127 0.45612 0.66161 0.0
C490 C 0.99454 0.41121 0.66756 0.0
H491 H 0.12232 0.4103 0.66484 0.0
O492 O 0.14547 0.3682 0.69705 0.0
O493 O 0.07229 0.34334 0.6891 0.0
O494 O 0.16409 0.28488 0.681 0.0
O495 O 0.11143 0.31383 0.66709 0.0
C496 C 0.92882 0.4686 0.6604 0.0
C497 C 0.89089 0.43694 0.66549 0.0
H498 H 0.82971 0.37009 0.67771 0.0
H499 H 0.86186 0.29521 0.68896 0.0
H500 H 0.10343 0.49312 0.65496 0.0
H501 H 0.01299 0.52149 0.65244 0.0
H502 H 0.91727 0.50281 0.65572 0.0
H503 H 0.85079 0.44741 0.66469 0.0
Mn504 Mn 0.75336 0.61541 0.94304 0.0
Mn505 Mn 0.76095 0.49921 0.93009 0.0
C506 C 0.67923 0.57641 0.93625 0.0
C507 C 0.74844 0.65991 0.96075 0.0
C508 C 0.78677 0.59946 0.91771 0.0
O509 O 0.82582 0.59116 0.94693 0.0
O510 O 0.82224 0.51082 0.93995 0.0
C511 C 0.75 0.43805 0.95168 0.0
N512 N 0.73394 0.44948 0.94068 0.0
C513 C 0.66625 0.38677 0.94175 0.0
C514 C 0.68222 0.37411 0.95306 0.0
C515 C 0.72413 0.40004 0.95807 0.0
C516 C 0.69286 0.42571 0.9359 0.0
H517 H 0.78216 0.45795 0.95556 0.0
C518 C 0.84508 0.54665 0.94551 0.0
O519 O 0.76673 0.68198 0.95147 0.0
O520 O 0.73384 0.6127 0.95972 0.0
N521 N 0.70512 0.48032 0.9201 0.0
C522 C 0.6977 0.49374 0.90872 0.0
C523 C 0.65912 0.46931 0.90219 0.0
C524 C 0.62942 0.43037 0.9073 0.0
C525 C 0.63913 0.41568 0.91885 0.0
C526 C 0.67844 0.44109 0.92489 0.0
H527 H 0.72111 0.52275 0.90463 0.0
O528 O 0.67924 0.62491 0.93878 0.0
O529 O 0.72179 0.55207 0.93826 0.0
O530 O 0.77477 0.63014 0.92603 0.0
O531 O 0.78651 0.55038 0.91871 0.0
C532 C 0.61187 0.37629 0.92454 0.0
C533 C 0.62514 0.36215 0.93602 0.0
H534 H 0.6626 0.34455 0.95798 0.0
H535 H 0.73656 0.39063 0.96681 0.0
H536 H 0.65249 0.48031 0.89322 0.0
H537 H 0.59955 0.41175 0.90225 0.0
H538 H 0.58074 0.35653 0.92016 0.0
H539 H 0.60382 0.3319 0.94032 0.0
Mn540 Mn 0.38747 0.22478 0.19797 0.0
Mn541 Mn 0.49565 0.21566 0.18178 0.0
C542 C 0.41153 0.14582 0.19042 0.0
C543 C 0.35203 0.22656 0.21656 0.0
C544 C 0.39267 0.25255 0.17222 0.0
O545 O 0.42247 0.29364 0.20081 0.0
O546 O 0.49591 0.27932 0.19116 0.0
C547 C 0.56308 0.20063 0.2023 0.0
N548 N 0.54668 0.18513 0.19158 0.0
C549 C 0.60248 0.11158 0.19208 0.0
C550 C 0.62077 0.12737 0.20301 0.0
C551 C 0.60063 0.17186 0.20819 0.0
C552 C 0.56406 0.14111 0.18678 0.0
H553 H 0.54715 0.2343 0.2064 0.0
C554 C 0.46754 0.30665 0.19774 0.0
O555 O 0.32805 0.24728 0.20779 0.0
O556 O 0.39625 0.20575 0.2145 0.0
N557 N 0.50501 0.15695 0.17196 0.0
C558 C 0.48948 0.15166 0.16066 0.0
C559 C 0.50816 0.11076 0.15391 0.0
C560 C 0.54467 0.07703 0.15864 0.0
C561 C 0.56308 0.08537 0.16996 0.0
C562 C 0.543 0.1269 0.17625 0.0
H563 H 0.46401 0.1792 0.15672 0.0
O564 O 0.36545 0.15278 0.19436 0.0
O565 O 0.4429 0.18424 0.1916 0.0
O566 O 0.36663 0.24768 0.18159 0.0
O567 O 0.44117 0.24388 0.17139 0.0
C568 C 0.6019 0.0552 0.17509 0.0
C569 C 0.6211 0.0679 0.18621 0.0
H570 H 0.6501 0.10554 0.20751 0.0
H571 H 0.61403 0.18398 0.21669 0.0
H572 H 0.49519 0.10582 0.14502 0.0
H573 H 0.55923 0.04568 0.15339 0.0
H574 H 0.61764 0.02247 0.17049 0.0
H575 H 0.65084 0.04433 0.19009 0.0
H576 H 0.91639 0.89982 0.31573 0.0
H577 H 0.84032 0.03743 0.30346 0.0
H578 H 0.92445 0.07896 0.3004 0.0
H579 H 0.00362 0.9618 0.33259 0.0
H580 H 0.05705 0.91928 0.33005 0.0
H581 H 0.99247 0.89569 0.32867 0.0
H582 H 0.01109 0.86578 0.30755 0.0
H583 H 0.07617 0.88872 0.30892 0.0
H584 H 0.03622 0.91094 0.29711 0.0
H585 H 0.01521 0.11016 0.30158 0.0
H586 H 0.10542 0.12831 0.30696 0.0
H587 H 0.12192 0.97135 0.31915 0.0
C588 C 0.91774 0.93777 0.3119 0.0
C589 C 0.87217 0.96516 0.3096 0.0
C590 C 0.87502 0.01567 0.3051 0.0
C591 C 0.9226 0.03952 0.30333 0.0
C592 C 0.96698 0.0124 0.30615 0.0
C593 C 0.96503 0.96246 0.31027 0.0
C594 C 0.01761 0.94438 0.31414 0.0
C595 C 0.01765 0.92945 0.32713 0.0
C596 C 0.03638 0.89982 0.30647 0.0
C597 C 0.04881 0.99252 0.312 0.0
C598 C 0.01925 0.03101 0.30718 0.0
C599 C 0.03902 0.08003 0.30518 0.0
C600 C 0.09026 0.09005 0.30829 0.0
C601 C 0.12083 0.05141 0.31351 0.0
C602 C 0.09975 0.00186 0.31517 0.0
H603 H 0.95989 0.57167 0.59077 0.0
H604 H 0.91708 0.58134 0.55429 0.0
H605 H 0.95074 0.49382 0.55107 0.0
H606 H 0.07507 0.50734 0.58738 0.0
H607 H 0.06861 0.46589 0.59987 0.0
H608 H 0.03704 0.52732 0.59969 0.0
H609 H 0.94912 0.48381 0.60347 0.0
H610 H 0.98058 0.42225 0.60394 0.0
H611 H 0.9279 0.43272 0.59401 0.0
H612 H 0.00074 0.41177 0.55124 0.0
H613 H 0.04853 0.33199 0.55553 0.0
H614 H 0.05198 0.37186 0.59223 0.0
C615 C 0.95637 0.5547 0.58219 0.0
C616 C 0.9358 0.58294 0.57278 0.0
C617 C 0.93206 0.55992 0.56164 0.0
C618 C 0.95149 0.51049 0.55971 0.0
C619 C 0.97334 0.48438 0.56908 0.0
C620 C 0.97443 0.50497 0.58018 0.0
C621 C 0.0003 0.46891 0.58872 0.0
C622 C 0.04808 0.49387 0.59423 0.0
C623 C 0.96219 0.45084 0.59809 0.0
C624 C 0.01497 0.42552 0.58061 0.0
C625 C -0.00037 0.43556 0.56929 0.0
C626 C 0.01203 0.40295 0.5601 0.0
C627 C 0.03963 0.35814 0.56259 0.0
C628 C 0.05367 0.34609 0.57419 0.0
C629 C 0.04127 0.38023 0.5833 0.0
H630 H 0.57708 0.49188 0.8124 0.0
H631 H 0.5659 0.65112 0.82319 0.0
H632 H 0.47296 0.63914 0.82699 0.0
H633 H 0.45412 0.48812 0.79742 0.0
H634 H 0.44149 0.42267 0.80162 0.0
H635 H 0.5067 0.44432 0.79978 0.0
H636 H 0.52802 0.41453 0.82078 0.0
H637 H 0.46277 0.39331 0.82274 0.0
H638 H 0.49059 0.43865 0.83281 0.0
H639 H 0.38363 0.60761 0.83092 0.0
H640 H 0.30066 0.56302 0.83233 0.0
H641 H 0.36914 0.42568 0.8175 0.0
C642 C 0.55504 0.52436 0.81549 0.0
C643 C 0.57847 0.57239 0.81758 0.0
C644 C 0.54841 0.61412 0.82152 0.0
C645 C 0.49584 0.60755 0.82375 0.0
C646 C 0.47413 0.55935 0.82177 0.0
C647 C 0.50257 0.51877 0.81751 0.0
C648 C 0.46985 0.47131 0.81582 0.0
C649 C 0.46792 0.45571 0.80289 0.0
C650 C 0.48895 0.42684 0.8235 0.0
C651 C 0.4185 0.49126 0.81995 0.0
C652 C 0.42202 0.54193 0.82347 0.0
C653 C 0.38022 0.56818 0.82805 0.0
C654 C 0.33328 0.5423 0.82886 0.0
C655 C 0.32823 0.49088 0.82492 0.0
C656 C 0.37164 0.46506 0.82048 0.0
H657 H 0.46091 0.09422 0.08931 0.0
H658 H 0.47106 0.14109 0.05314 0.0
H659 H 0.51843 0.06149 0.04844 0.0
H660 H 0.58351 0.02977 0.09158 0.0
H661 H 0.55921 0.97756 0.10028 0.0
H662 H 0.52937 0.03987 0.10108 0.0
H663 H 0.44114 -4e-05 0.09576 0.0
H664 H 0.47055 0.93751 0.09517 0.0
H665 H 0.4354 0.96145 0.08276 0.0
H666 H 0.56632 0.97877 0.04779 0.0
H667 H 0.59649 0.88959 0.05022 0.0
H668 H 0.54801 0.89237 0.08639 0.0
C669 C 0.47311 0.08737 0.08042 0.0
C670 C 0.46269 0.12325 0.07155 0.0
C671 C 0.47856 0.11343 0.05999 0.0
C672 C 0.50591 0.06879 0.05728 0.0
C673 C 0.51619 0.0342 0.06623 0.0
C674 C 0.49917 0.04223 0.0775 0.0
C675 C 0.51123 0.99669 0.08522 0.0
C676 C 0.54802 0.0119 0.09512 0.0
C677 C 0.46163 0.97247 0.09 0.0
C678 C 0.53738 0.9618 0.07649 0.0
C679 C 0.5411 0.98482 0.06568 0.0
C680 C 0.56361 0.96019 0.0562 0.0
C681 C 0.58102 0.90979 0.05769 0.0
C682 C 0.57463 0.88442 0.06849 0.0
C683 C 0.55352 0.91114 0.07806 0.0
H684 H 0.10357 0.38737 0.94747 0.0
H685 H 0.17785 0.52661 0.95941 0.0
H686 H 0.09322 0.56621 0.96292 0.0
H687 H 0.01416 0.44688 0.93107 0.0
H688 H 0.96161 0.4035 0.93382 0.0
H689 H 0.02663 0.38107 0.93502 0.0
H690 H 0.00983 0.35141 0.95623 0.0
H691 H 0.94429 0.37322 0.95505 0.0
H692 H 0.98462 0.3964 0.9667 0.0
H693 H 0.00236 0.59592 0.96186 0.0
H694 H 0.91223 0.61306 0.95637 0.0
H695 H 0.8969 0.45525 0.94461 0.0
C696 C 0.10177 0.42521 0.95136 0.0
C697 C 0.14695 0.45367 0.9534 0.0
C698 C 0.14348 0.50404 0.95796 0.0
C699 C 0.0956 0.52679 0.96 0.0
C700 C 0.05154 0.49869 0.9574 0.0
C701 C 0.05413 0.44879 0.95327 0.0
C702 C 0.0016 0.42972 0.94958 0.0
C703 C 0.00101 0.41444 0.93661 0.0
C704 C 0.98405 0.38504 0.95736 0.0
C705 C 0.96973 0.47737 0.95177 0.0
C706 C -0.00105 0.51639 0.9565 0.0
C707 C 0.97878 0.56533 0.95837 0.0
C708 C 0.92757 0.57478 0.95518 0.0
C709 C 0.89731 0.53561 0.95004 0.0
C710 C 0.91869 0.48608 0.94858 0.0
H711 H 0.41999 0.40022 0.19835 0.0
H712 H 0.56494 0.32417 0.20516 0.0
H713 H 0.60617 0.40776 0.20875 0.0
H714 H 0.47122 0.49486 0.18164 0.0
H715 H 0.42936 0.54594 0.18632 0.0
H716 H 0.40787 0.4805 0.18708 0.0
H717 H 0.38913 0.49106 0.20913 0.0
H718 H 0.41034 0.55688 0.20842 0.0
H719 H 0.43924 0.51341 0.21874 0.0
H720 H 0.63488 0.49864 0.20869 0.0
H721 H 0.64946 0.59007 0.20411 0.0
H722 H 0.48695 0.6077 0.19649 0.0
C723 C 0.45983 0.4013 0.20108 0.0
C724 C 0.4891 0.3559 0.20172 0.0
C725 C 0.54173 0.35858 0.20479 0.0
C726 C 0.56545 0.40588 0.20689 0.0
C727 C 0.53612 0.45025 0.20579 0.0
C728 C 0.4844 0.44847 0.20297 0.0
C729 C 0.4636 0.50175 0.20063 0.0
C730 C 0.44177 0.50598 0.18818 0.0
C731 C 0.42318 0.51665 0.20978 0.0
C732 C 0.51213 0.53324 0.20206 0.0
C733 C 0.55324 0.50304 0.20532 0.0
C734 C 0.60282 0.52293 0.20633 0.0
C735 C 0.61077 0.57491 0.20369 0.0
C736 C 0.56946 0.60608 0.19991 0.0
C737 C 0.5194 0.585 0.19938 0.0
H738 H 0.39091 0.04055 0.42537 0.0
H739 H 0.34634 0.0162 0.46134 0.0
H740 H 0.42656 0.9679 0.46486 0.0
H741 H 0.45552 0.92015 0.4205 0.0
H742 H 0.50731 0.94772 0.41217 0.0
H743 H 0.445 0.97781 0.41215 0.0
H744 H 0.48541 0.06347 0.41913 0.0
H745 H 0.54787 0.03389 0.41894 0.0
H746 H 0.52475 0.06398 0.43208 0.0
H747 H 0.50911 0.91959 0.46428 0.0
H748 H 0.59789 0.88974 0.46093 0.0
H749 H 0.5934 0.95288 0.42596 0.0
C750 C 0.39847 0.02521 0.43398 0.0
C751 C 0.36295 0.03184 0.44312 0.0
C752 C 0.3737 0.01175 0.4543 0.0
C753 C 0.4187 0.98382 0.45633 0.0
C754 C 0.45282 0.97725 0.44713 0.0
C755 C 0.44405 -0.00146 0.43626 0.0
C756 C 0.48917 0.98953 0.4282 0.0
C757 C 0.47328 0.95685 0.41763 0.0
C758 C 0.51322 0.04076 0.42437 0.0
C759 C 0.52458 0.95999 0.43625 0.0
C760 C 0.5022 0.95213 0.44702 0.0
C761 C 0.52721 0.92562 0.4559 0.0
C762 C 0.57737 0.9084 0.45389 0.0
C763 C 0.60215 0.91893 0.44319 0.0
C764 C 0.57505 0.94417 0.4342 0.0
H765 H 0.08238 0.12756 0.69554 0.0
H766 H 0.95793 0.19811 0.67603 0.0
H767 H 0.90804 0.1183 0.67739 0.0
H768 H 0.07155 0.00522 0.6813 0.0
H769 H 0.08765 0.96893 0.69417 0.0
H770 H 0.11227 0.03299 0.69235 0.0
H771 H 0.07285 0.05877 0.71226 0.0
H772 H 0.04754 0.99488 0.71404 0.0
H773 H 0.00511 0.04945 0.71473 0.0
H774 H 0.87022 0.03136 0.6812 0.0
H775 H 0.8538 0.93865 0.68446 0.0
H776 H 0.0049 0.92322 0.69999 0.0
C777 C 0.04461 0.12623 0.69159 0.0
C778 C 0.0239 0.16941 0.68584 0.0
C779 C 0.97465 0.16576 0.68057 0.0
C780 C 0.94572 0.12064 0.68135 0.0
C781 C 0.96684 0.07908 0.68723 0.0
C782 C 0.01558 0.08102 0.69204 0.0
C783 C 0.03078 0.0296 0.69709 0.0
C784 C 0.07836 0.00791 0.69085 0.0
C785 C 0.03957 0.03343 0.71031 0.0
C786 C 0.98309 -0.00136 0.69431 0.0
C787 C 0.94618 0.02811 0.68885 0.0
C788 C 0.89884 0.00776 0.68546 0.0
C789 C 0.88966 0.95536 0.6874 0.0
C790 C 0.92812 0.92422 0.69244 0.0
C791 C 0.97493 0.94635 0.6961 0.0
H792 H 0.59203 0.92939 0.30656 0.0
H793 H 0.61267 0.89142 0.34294 0.0
H794 H 0.53262 0.93903 0.34784 0.0
H795 H 0.53457 0.04812 0.30721 0.0
H796 H 0.48502 0.03481 0.29668 0.0
H797 H 0.54445 -0.00043 0.29624 0.0
H798 H 0.49284 0.91406 0.29757 0.0
H799 H 0.4336 0.94979 0.29811 0.0
H800 H 0.44876 0.90463 0.30949 0.0
H801 H 0.47327 0.02085 0.34819 0.0
H802 H 0.39899 0.07877 0.34456 0.0
H803 H 0.3974 0.03321 0.30836 0.0
C804 C 0.57953 0.93138 0.31556 0.0
C805 C 0.61031 0.91178 0.32462 0.0
C806 C 0.59122 0.91046 0.33611 0.0
C807 C 0.54596 0.9369 0.33892 0.0
C808 C 0.51936 0.96117 0.32994 0.0
C809 C 0.53277 0.95442 0.31841 0.0
C810 C 0.49247 0.97656 0.31033 0.0
C811 C 0.51556 0.01715 0.30213 0.0
C812 C 0.4653 0.93371 0.30347 0.0
C813 C 0.45679 0.00064 0.31917 0.0
C814 C 0.4746 0.99368 0.3304 0.0
C815 C 0.45565 0.02265 0.33966 0.0
C816 C 0.41365 0.05513 0.33756 0.0
C817 C 0.38965 0.05539 0.32654 0.0
C818 C 0.41275 0.02975 0.3171 0.0
H819 H 0.9032 0.90967 0.57064 0.0
H820 H 0.02482 0.80642 0.56036 0.0
H821 H 0.08784 0.87754 0.56156 0.0
H822 H 0.96449 0.01749 0.5519 0.0
H823 H 0.93815 0.0658 0.56141 0.0
H824 H 0.90335 0.00701 0.55887 0.0
H825 H 0.90046 0.98963 0.58122 0.0
H826 H 0.93436 0.04877 0.58304 0.0
H827 H 0.95993 0.99071 0.58938 0.0
H828 H 0.1378 0.95359 0.56972 0.0
H829 H 0.17052 0.03926 0.57504 0.0
H830 H 0.0148 0.09848 0.57489 0.0
C831 C 0.94311 0.90231 0.56859 0.0
C832 C 0.96088 0.85196 0.56671 0.0
C833 C 0.01206 0.8441 0.56304 0.0
C834 C 0.04773 0.88431 0.56347 0.0
C835 C 0.03025 0.93257 0.56679 0.0
C836 C 0.97864 0.94256 0.56831 0.0
C837 C 0.96954 -0.0011 0.57053 0.0
C838 C 0.94228 0.02376 0.56005 0.0
C839 C 0.93926 0.00719 0.58177 0.0
C840 C 0.02436 0.01782 0.57161 0.0
C841 C 0.05879 0.97867 0.56944 0.0
C842 C 0.11137 0.98516 0.57097 0.0
C843 C 0.12945 0.03381 0.57416 0.0
C844 C 0.0952 0.0757 0.57556 0.0
C845 C 0.04187 0.06724 0.57433 0.0
H846 H 0.08437 0.51629 0.81349 0.0
H847 H 0.03206 0.35853 0.81177 0.0
H848 H 0.95281 0.38674 0.80194 0.0
H849 H 0.97289 0.56648 0.82291 0.0
H850 H 0.97574 0.62583 0.81476 0.0
H851 H 0.03356 0.59223 0.81795 0.0
H852 H 0.05859 0.59025 0.79661 0.0
H853 H -0.00035 0.62276 0.79288 0.0
H854 H 0.0151 0.56212 0.78618 0.0
H855 H 0.87659 0.43339 0.79289 0.0
H856 H 0.80069 0.49128 0.79355 0.0
H857 H 0.89703 0.61522 0.80551 0.0
C858 C 0.05589 0.48781 0.8113 0.0
C859 C 0.06423 0.43542 0.81361 0.0
C860 C 0.02653 0.3991 0.81015 0.0
C861 C 0.98183 0.41457 0.80433 0.0
C862 C 0.97488 0.46661 0.80213 0.0
C863 C 0.01031 0.50276 0.80581 0.0
C864 C 0.98959 0.55649 0.80437 0.0
C865 C 0.99282 0.58703 0.81573 0.0
C866 C 0.01738 0.58455 0.79441 0.0
C867 C 0.93494 0.54457 0.80107 0.0
C868 C 0.92855 0.49312 0.79861 0.0
C869 C 0.88096 0.47327 0.79533 0.0
C870 C 0.83801 0.50563 0.79607 0.0
C871 C 0.84307 0.55504 0.80095 0.0
C872 C 0.89227 0.5762 0.80245 0.0
H873 H 0.60422 0.55979 0.06271 0.0
H874 H 0.47852 0.66114 0.05411 0.0
H875 H 0.41725 0.58853 0.05576 0.0
H876 H 0.53873 0.44906 0.04471 0.0
H877 H 0.56915 0.40211 0.05395 0.0
H878 H 0.60201 0.46111 0.0505 0.0
H879 H 0.61295 0.48007 0.07261 0.0
H880 H 0.57997 0.42126 0.07542 0.0
H881 H 0.55664 0.48014 0.08183 0.0
H882 H 0.3716 0.51273 0.06517 0.0
H883 H 0.34246 0.42781 0.07195 0.0
H884 H 0.49842 0.37039 0.06934 0.0
C885 C 0.56383 0.56637 0.06103 0.0
C886 C 0.54449 0.61639 0.05963 0.0
C887 C 0.49258 0.62349 0.05646 0.0
C888 C 0.45794 0.58246 0.05711 0.0
C889 C 0.47724 0.53443 0.06009 0.0
C890 C 0.52931 0.52539 0.06094 0.0
C891 C 0.54016 0.4695 0.06327 0.0
C892 C 0.5639 0.44394 0.05246 0.0
C893 C 0.57449 0.46266 0.07398 0.0
C894 C 0.48625 0.4501 0.06541 0.0
C895 C 0.45047 0.48833 0.06348 0.0
C896 C 0.39886 0.48168 0.06616 0.0
C897 C 0.38294 0.43359 0.0702 0.0
C898 C 0.4183 0.39246 0.07131 0.0
C899 C 0.47074 0.40118 0.06898 0.0
H900 H 0.42286 0.43252 0.95468 0.0
H901 H 0.40767 0.38444 0.91876 0.0
H902 H 0.48703 0.43282 0.91372 0.0
H903 H 0.48209 0.55487 0.95227 0.0
H904 H 0.52775 0.54292 0.96371 0.0
H905 H 0.46676 0.51023 0.96376 0.0
H906 H 0.51751 0.42443 0.96498 0.0
H907 H 0.57826 0.45734 0.96399 0.0
H908 H 0.56209 0.40806 0.9536 0.0
H909 H 0.54897 0.51192 0.91255 0.0
H910 H 0.62636 0.56617 0.91581 0.0
H911 H 0.61896 0.5341 0.95275 0.0
C912 C 0.4362 0.43278 0.94574 0.0
C913 C 0.40745 0.40923 0.93681 0.0
C914 C 0.42772 0.4059 0.92545 0.0
C915 C 0.47251 0.43296 0.92255 0.0
C916 C 0.49739 0.46031 0.93134 0.0
C917 C 0.48242 0.45674 0.94285 0.0
C918 C 0.5217 0.48094 0.95089 0.0
C919 C 0.49808 0.52479 0.95808 0.0
C920 C 0.54639 0.44029 0.95883 0.0
C921 C 0.55944 0.50123 0.942 0.0
C922 C 0.54288 0.49173 0.93077 0.0
C923 C 0.56503 0.51613 0.92121 0.0
C924 C 0.60865 0.54666 0.9231 0.0
C925 C 0.63065 0.54967 0.93432 0.0
C926 C 0.60465 0.52869 0.94396 0.0
H927 H 0.55147 0.88154 0.20352 0.0
H928 H 0.59085 0.88057 0.16693 0.0
H929 H 0.53254 0.95472 0.16358 0.0
H930 H 0.42142 0.93323 0.20296 0.0
H931 H 0.43322 0.97647 0.21492 0.0
H932 H 0.46806 0.91681 0.21396 0.0
H933 H 0.55345 0.96776 0.21509 0.0
H934 H 0.51895 0.02753 0.21572 0.0
H935 H 0.56627 0.01715 0.20453 0.0
H936 H 0.45233 0.01547 0.16437 0.0
H937 H 0.40732 0.09681 0.16941 0.0
H938 H 0.44861 0.07607 0.20562 0.0
C939 C 0.54662 0.89637 0.19476 0.0
C940 C 0.57105 0.87294 0.18521 0.0
C941 C 0.56865 0.89593 0.1741 0.0
C942 C 0.53577 0.93771 0.17215 0.0
C943 C 0.50825 0.95722 0.18158 0.0
C944 C 0.51678 0.93996 0.1928 0.0
C945 C 0.49382 0.97597 0.20172 0.0
C946 C 0.45164 0.94898 0.20881 0.0
C947 C 0.5356 -0.00153 0.20973 0.0
C948 C 0.47119 0.01614 0.19372 0.0
C949 C 0.47606 0.00214 0.18217 0.0
C950 C 0.45132 0.02896 0.17329 0.0
C951 C 0.42623 0.07486 0.17618 0.0
C952 C 0.42921 0.0941 0.18765 0.0
C953 C 0.4492 0.06324 0.19664 0.0
H954 H 0.92675 0.88431 0.45009 0.0
H955 H 0.82308 0.00615 0.45984 0.0
H956 H 0.8958 0.06772 0.46032 0.0
H957 H 0.03373 0.94622 0.47097 0.0
H958 H 0.08291 0.91803 0.46197 0.0
H959 H 0.02365 0.88394 0.46451 0.0
H960 H 0.01005 0.87632 0.44224 0.0
H961 H 0.06839 0.91116 0.44017 0.0
H962 H 0.00961 0.93398 0.43348 0.0
H963 H 0.97232 0.11602 0.45205 0.0
H964 H 0.05655 0.14704 0.44529 0.0
H965 H 0.11566 0.99143 0.44643 0.0
C966 C 0.91969 0.92381 0.45253 0.0
C967 C 0.86931 0.94285 0.45347 0.0
C968 C 0.86128 0.99309 0.45768 0.0
C969 C 0.90234 0.02768 0.45831 0.0
C970 C 0.95119 0.00937 0.45572 0.0
C971 C 0.96059 0.95777 0.45405 0.0
C972 C 0.01703 0.94782 0.4522 0.0
C973 C 0.04072 0.92252 0.46306 0.0
C974 C 0.02656 0.9154 0.44131 0.0
C975 C 0.03616 0.00223 0.4508 0.0
C976 C 0.99757 0.03724 0.45307 0.0
C977 C 0.00369 0.0893 0.45085 0.0
C978 C 0.0514 0.10633 0.44681 0.0
C979 C 0.0927 0.07153 0.44521 0.0
C980 C 0.08473 0.01878 0.44723 0.0
H981 H 0.00217 0.41301 0.69384 0.0
H982 H 0.15943 0.46728 0.69572 0.0
H983 H 0.12851 0.55203 0.70237 0.0
H984 H 0.94948 0.52062 0.68142 0.0
H985 H 0.89008 0.52171 0.68953 0.0
H986 H 0.92288 0.46228 0.68753 0.0
H987 H 0.92742 0.44358 0.70903 0.0
H988 H 0.89313 0.50243 0.71183 0.0
H989 H 0.95426 0.49092 0.71874 0.0
H990 H 0.07884 0.6298 0.71019 0.0
H991 H 0.01708 0.70246 0.71061 0.0
H992 H 0.89521 0.60111 0.69956 0.0
C993 C 0.03006 0.44304 0.69529 0.0
C994 C 0.08315 0.43377 0.69402 0.0
C995 C 0.11848 0.47368 0.69654 0.0
C996 C 0.10138 0.52164 0.7005 0.0
C997 C 0.04879 0.52915 0.70187 0.0
C998 C 0.01362 0.49139 0.69904 0.0
C999 C 0.95916 0.51101 0.70019 0.0
C1000 C 0.92863 0.50369 0.68893 0.0
C1001 C 0.93189 0.48547 0.71057 0.0
C1002 C 0.96937 0.56684 0.70263 0.0
C1003 C 0.0209 0.57564 0.70463 0.0
C1004 C 0.03891 0.62378 0.70796 0.0
C1005 C 0.00407 0.66487 0.70791 0.0
C1006 C 0.95347 0.65778 0.70377 0.0
C1007 C 0.93488 0.60774 0.70198 0.0
H1008 H 0.16263 0.13235 0.35848 0.0
H1009 H 0.31547 0.1899 0.35164 0.0
H1010 H 0.32118 0.22266 0.37182 0.0
H1011 H 0.12594 0.2412 0.38025 0.0
H1012 H 0.08946 0.19601 0.38878 0.0
H1013 H 0.09274 0.18907 0.37316 0.0
H1014 H 0.12605 0.09584 0.37563 0.0
H1015 H 0.12237 0.10256 0.39113 0.0
H1016 H 0.18232 0.08444 0.38445 0.0
H1017 H 0.32007 0.22363 0.39363 0.0
H1018 H 0.30881 0.19757 0.41423 0.0
H1019 H 0.15194 0.15445 0.40678 0.0
C1020 C 0.19611 0.15411 0.36113 0.0
C1021 C 0.2383 0.15931 0.35359 0.0
C1022 C 0.28234 0.18663 0.3573 0.0
C1023 C 0.28589 0.20535 0.36874 0.0
C1024 C 0.24429 0.19803 0.37619 0.0
C1025 C 0.19948 0.17448 0.37241 0.0
C1026 C 0.16263 0.166 0.38238 0.0
C1027 C 0.11487 0.20013 0.38106 0.0
C1028 C 0.14757 0.10886 0.38346 0.0
C1029 C 0.19561 0.1836 0.3925 0.0
C1030 C 0.24237 0.20278 0.38881 0.0
C1031 C 0.2828 0.21103 0.39666 0.0
C1032 C 0.27612 0.19656 0.40839 0.0
C1033 C 0.2293 0.17454 0.41205 0.0
C1034 C 0.18777 0.17184 0.40419 0.0
H1035 H 0.86847 0.82117 0.60786 0.0
H1036 H 0.80491 0.66979 0.60246 0.0
H1037 H 0.7806 0.66592 0.62335 0.0
H1038 H 0.93237 0.79127 0.63186 0.0
H1039 H 0.92511 0.85175 0.63932 0.0
H1040 H 0.92216 0.84954 0.62371 0.0
H1041 H 0.83246 0.89246 0.62402 0.0
H1042 H 0.83528 0.89549 0.63971 0.0
H1043 H 0.78167 0.86466 0.63262 0.0
H1044 H 0.78047 0.67184 0.64564 0.0
H1045 H 0.80611 0.68576 0.66627 0.0
H1046 H 0.87589 0.83045 0.65673 0.0
C1047 C 0.84743 0.78819 0.61096 0.0
C1048 C 0.83774 0.74621 0.60353 0.0
C1049 C 0.81117 0.70306 0.60794 0.0
C1050 C 0.79763 0.70048 0.61983 0.0
C1051 C 0.81086 0.74147 0.62713 0.0
C1052 C 0.83471 0.78486 0.62276 0.0
C1053 C 0.85303 0.81993 0.63243 0.0
C1054 C 0.91159 0.82856 0.63179 0.0
C1055 C 0.82384 0.87117 0.63218 0.0
C1056 C 0.83833 0.78847 0.64298 0.0
C1057 C 0.81268 0.74401 0.63984 0.0
C1058 C 0.7994 0.70711 0.64817 0.0
C1059 C 0.81386 0.71533 0.65988 0.0
C1060 C 0.84224 0.75949 0.66305 0.0
C1061 C 0.85334 0.79684 0.65453 0.0
H1062 H 0.12651 0.38493 0.8605 0.0
H1063 H 0.26004 0.30202 0.84824 0.0
H1064 H 0.27598 0.2712 0.86838 0.0
H1065 H 0.18392 0.43789 0.88265 0.0
H1066 H 0.13058 0.43788 0.89266 0.0
H1067 H 0.11877 0.43751 0.87728 0.0
H1068 H 0.06434 0.35473 0.87925 0.0
H1069 H 0.07531 0.35516 0.89477 0.0
H1070 H 0.09126 0.29909 0.88631 0.0
H1071 H 0.28782 0.2662 0.89026 0.0
H1072 H 0.2977 0.29125 0.91096 0.0
H1073 H 0.16144 0.38561 0.90848 0.0
C1074 C 0.15781 0.35836 0.86192 0.0
C1075 C 0.1919 0.3456 0.85281 0.0
C1076 C 0.23293 0.3115 0.85506 0.0
C1077 C 0.24224 0.294 0.86649 0.0
C1078 C 0.20986 0.31071 0.87547 0.0
C1079 C 0.16806 0.34189 0.87322 0.0
C1080 C 0.14498 0.36337 0.88429 0.0
C1081 C 0.14463 0.42261 0.88421 0.0
C1082 C 0.09076 0.34177 0.88627 0.0
C1083 C 0.18234 0.34247 0.89315 0.0
C1084 C 0.21823 0.31038 0.88801 0.0
C1085 C 0.2592 0.29022 0.89438 0.0
C1086 C 0.26446 0.30452 0.90613 0.0
C1087 C 0.22985 0.33981 0.91124 0.0
C1088 C 0.18769 0.35783 0.90476 0.0
H1089 H 0.61274 0.64903 0.10338 0.0
H1090 H 0.71784 0.77288 0.09562 0.0
H1091 H 0.74432 0.77477 0.11645 0.0
H1092 H 0.56357 0.70175 0.12702 0.0
H1093 H 0.55364 0.64337 0.13514 0.0
H1094 H 0.55503 0.64149 0.11952 0.0
H1095 H 0.62809 0.57405 0.12006 0.0
H1096 H 0.6266 0.57514 0.13577 0.0
H1097 H 0.68595 0.5873 0.12818 0.0
H1098 H 0.74522 0.77388 0.13888 0.0
H1099 H 0.71911 0.77271 0.15964 0.0
H1100 H 0.60906 0.65254 0.15209 0.0
C1101 C 0.64306 0.67497 0.10589 0.0
C1102 C 0.66376 0.71021 0.09782 0.0
C1103 C 0.70245 0.74458 0.10158 0.0
C1104 C 0.71739 0.74604 0.11343 0.0
C1105 C 0.69355 0.71255 0.12131 0.0
C1106 C 0.65755 0.67719 0.11757 0.0
C1107 C 0.63096 0.65105 0.12768 0.0
C1108 C 0.5724 0.66001 0.12731 0.0
C1109 C 0.64369 0.59347 0.12794 0.0
C1110 C 0.6556 0.67885 0.13779 0.0
C1111 C 0.69265 0.71322 0.13404 0.0
C1112 C 0.71713 0.74626 0.14188 0.0
C1113 C 0.70224 0.74518 0.15368 0.0
C1114 C 0.66241 0.71212 0.15749 0.0
C1115 C 0.64015 0.67763 0.14946 0.0
H1116 H 0.79873 0.55491 0.85036 0.0
H1117 H 0.73342 0.70617 0.84505 0.0
H1118 H 0.74751 0.72557 0.86605 0.0
H1119 H 0.74193 0.52902 0.87642 0.0
H1120 H 0.79583 0.49483 0.88249 0.0
H1121 H 0.78703 0.49698 0.86698 0.0
H1122 H 0.87864 0.53461 0.86454 0.0
H1123 H 0.88777 0.53273 0.88011 0.0
H1124 H 0.89627 0.59215 0.8723 0.0
H1125 H 0.75789 0.72183 0.88851 0.0
H1126 H 0.76303 0.69604 0.90926 0.0
H1127 H 0.82509 0.54855 0.89884 0.0
C1128 C 0.78841 0.59274 0.85346 0.0
C1129 C 0.76499 0.62908 0.84601 0.0
C1130 C 0.7518 0.67786 0.85055 0.0
C1131 C 0.75969 0.68912 0.86248 0.0
C1132 C 0.78179 0.65156 0.86963 0.0
C1133 C 0.79653 0.60459 0.86516 0.0
C1134 C 0.81587 0.56888 0.87457 0.0
C1135 C 0.7832 0.51957 0.87515 0.0
C1136 C 0.87304 0.55638 0.87277 0.0
C1137 C 0.80791 0.6021 0.8852 0.0
C1138 C 0.78875 0.64991 0.88226 0.0
C1139 C 0.77389 0.68491 0.89085 0.0
C1140 C 0.77717 0.66998 0.90265 0.0
C1141 C 0.79475 0.62028 0.90575 0.0
C1142 C 0.812 0.58701 0.89685 0.0
H1143 H 0.37513 0.17869 0.15649 0.0
H1144 H 0.34522 0.33892 0.1636 0.0
H1145 H 0.30362 0.34758 0.14418 0.0
H1146 H 0.41853 0.19556 0.12926 0.0
H1147 H 0.39268 0.13695 0.12327 0.0
H1148 H 0.40607 0.14113 0.13855 0.0
H1149 H 0.31207 0.11575 0.14308 0.0
H1150 H 0.29797 0.11244 0.1277 0.0
H1151 H 0.26002 0.15296 0.13707 0.0
H1152 H 0.28138 0.34242 0.12297 0.0
H1153 H 0.29355 0.32884 0.10188 0.0
H1154 H 0.34094 0.17265 0.10835 0.0
C1155 C 0.35928 0.21543 0.15396 0.0
C1156 C 0.3638 0.25839 0.16132 0.0
C1157 C 0.34196 0.30571 0.15797 0.0
C1158 C 0.31794 0.31067 0.14703 0.0
C1159 C 0.3156 0.26769 0.13972 0.0
C1160 C 0.33586 0.22093 0.14309 0.0
C1161 C 0.33679 0.18299 0.13312 0.0
C1162 C 0.39176 0.1631 0.13091 0.0
C1163 C 0.29947 0.13841 0.13538 0.0
C1164 C 0.31768 0.21678 0.12331 0.0
C1165 C 0.30333 0.2648 0.12737 0.0
C1166 C 0.29099 0.3046 0.11973 0.0
C1167 C 0.29728 0.29639 0.10773 0.0
C1168 C 0.31685 0.24926 0.10356 0.0
C1169 C 0.32378 0.20813 0.11135 0.0
H1170 H 0.82921 0.91549 0.35778 0.0
H1171 H 0.73707 0.78268 0.3489 0.0
H1172 H 0.7375 0.75578 0.36961 0.0
H1173 H 0.90477 0.85448 0.38228 0.0
H1174 H 0.90306 0.91353 0.39047 0.0
H1175 H 0.90444 0.91522 0.37476 0.0
H1176 H 0.82178 0.97075 0.37472 0.0
H1177 H 0.81995 0.96898 0.39034 0.0
H1178 H 0.76519 0.94737 0.38205 0.0
H1179 H 0.73454 0.75357 0.39224 0.0
H1180 H 0.7309 0.7761 0.41333 0.0
H1181 H 0.82602 0.90907 0.40645 0.0
C1182 C 0.81084 0.87963 0.36011 0.0
C1183 C 0.78358 0.85098 0.3517 0.0
C1184 C 0.75911 0.80478 0.35515 0.0
C1185 C 0.75894 0.78933 0.36693 0.0
C1186 C 0.78426 0.81995 0.37512 0.0
C1187 C 0.81062 0.86368 0.37175 0.0
C1188 C 0.83006 0.89342 0.38215 0.0
C1189 C 0.88909 0.89418 0.38243 0.0
C1190 C 0.80789 0.94831 0.38232 0.0
C1191 C 0.80863 0.86113 0.39194 0.0
C1192 C 0.78289 0.8184 0.38787 0.0
C1193 C 0.75576 0.78629 0.3955 0.0
C1194 C 0.754 0.79914 0.40749 0.0
C1195 C 0.77863 0.84405 0.41162 0.0
C1196 C 0.80746 0.87399 0.40371 0.0
H1197 H 0.17562 0.35868 0.65235 0.0
H1198 H 0.21493 0.21172 0.66735 0.0
H1199 H 0.25276 0.18486 0.64857 0.0
H1200 H 0.1247 0.31713 0.62917 0.0
H1201 H 0.14587 0.36541 0.61899 0.0
H1202 H 0.14234 0.38044 0.63415 0.0
H1203 H 0.23823 0.40687 0.63417 0.0
H1204 H 0.24203 0.39204 0.61883 0.0
H1205 H 0.28619 0.36265 0.62893 0.0
H1206 H 0.25688 0.16403 0.62762 0.0
H1207 H 0.22758 0.1522 0.60733 0.0
H1208 H 0.18687 0.31249 0.60538 0.0
C1209 C 0.19492 0.322 0.65182 0.0
C1210 C 0.19281 0.28737 0.66124 0.0
C1211 C 0.21716 0.23915 0.66028 0.0
C1212 C 0.23865 0.22365 0.64961 0.0
C1213 C 0.23628 0.25727 0.64011 0.0
C1214 C 0.21606 0.30617 0.64123 0.0
C1215 C 0.208 0.33128 0.62946 0.0
C1216 C 0.15194 0.3495 0.62786 0.0
C1217 C 0.24589 0.37584 0.62775 0.0
C1218 C 0.221 0.28688 0.62149 0.0
C1219 C 0.23941 0.24519 0.62775 0.0
C1220 C 0.24484 0.19697 0.62256 0.0
C1221 C 0.22841 0.19053 0.611 0.0
C1222 C 0.20691 0.23203 0.60478 0.0
C1223 C 0.20573 0.28112 0.60986 0.0
H1224 H 0.32941 0.11849 0.28081 0.0
H1225 H 0.22594 0.24364 0.28909 0.0
H1226 H 0.23199 0.27452 0.26866 0.0
H1227 H 0.41241 0.19143 0.26239 0.0
H1228 H 0.42413 0.13863 0.25259 0.0
H1229 H 0.40957 0.12632 0.26766 0.0
H1230 H 0.3337 0.06786 0.26142 0.0
H1231 H 0.3479 0.08017 0.24632 0.0
H1232 H 0.28457 0.09311 0.25193 0.0
H1233 H 0.24845 0.28924 0.24677 0.0
H1234 H 0.27991 0.29097 0.22633 0.0
H1235 H 0.37569 0.15857 0.23351 0.0
C1236 C 0.30777 0.15229 0.27833 0.0
C1237 C 0.27685 0.1785 0.28645 0.0
C1238 C 0.24983 0.22305 0.28295 0.0
C1239 C 0.25289 0.24067 0.27137 0.0
C1240 C 0.28367 0.21359 0.26354 0.0
C1241 C 0.31107 0.1707 0.26696 0.0
C1242 C 0.34309 0.14932 0.25714 0.0
C1243 C 0.4007 0.1516 0.26013 0.0
C1244 C 0.32628 0.09437 0.25402 0.0
C1245 C 0.32943 0.18668 0.24758 0.0
C1246 C 0.29467 0.22322 0.25132 0.0
C1247 C 0.27592 0.26098 0.2438 0.0
C1248 C 0.29377 0.2616 0.23222 0.0
C1249 C 0.33045 0.22519 0.22842 0.0
C1250 C 0.34806 0.18728 0.23622 0.0
H1251 H 0.81487 0.8361 0.48332 0.0
H1252 H 0.68375 0.73712 0.47743 0.0
H1253 H 0.69487 0.70035 0.49735 0.0
H1254 H 0.89097 0.74191 0.49898 0.0
H1255 H 0.91892 0.78947 0.50848 0.0
H1256 H 0.89961 0.80685 0.49393 0.0
H1257 H 0.84219 0.87927 0.50228 0.0
H1258 H 0.86115 0.86206 0.51685 0.0
H1259 H 0.79403 0.86377 0.513 0.0
H1260 H 0.71752 0.68149 0.51907 0.0
H1261 H 0.75484 0.67482 0.53899 0.0
H1262 H 0.87575 0.78032 0.52908 0.0
C1263 C 0.78856 0.80649 0.48622 0.0
C1264 C 0.74813 0.78967 0.47897 0.0
C1265 C 0.71492 0.75041 0.48292 0.0
C1266 C 0.72094 0.72957 0.4942 0.0
C1267 C 0.76112 0.74764 0.50122 0.0
C1268 C 0.79491 0.78456 0.49722 0.0
C1269 C 0.83575 0.79708 0.50615 0.0
C1270 C 0.88949 0.78296 0.50161 0.0
C1271 C 0.83308 0.8539 0.50978 0.0
C1272 C 0.81948 0.76214 0.51598 0.0
C1273 C 0.77599 0.73429 0.51311 0.0
C1274 C 0.75213 0.70239 0.52127 0.0
C1275 C 0.77344 0.69888 0.53256 0.0
C1276 C 0.81869 0.72624 0.53547 0.0
C1277 C 0.84189 0.75789 0.52701 0.0
H1278 H 0.10629 0.34218 0.73289 0.0
H1279 H 0.21276 0.21778 0.72619 0.0
H1280 H 0.24505 0.22438 0.7465 0.0
H1281 H 0.19322 0.41726 0.74914 0.0
H1282 H 0.14539 0.44167 0.75904 0.0
H1283 H 0.12734 0.42331 0.74448 0.0
H1284 H 0.05886 0.3608 0.75269 0.0
H1285 H 0.07621 0.37951 0.76729 0.0
H1286 H 0.07772 0.31277 0.76316 0.0
H1287 H 0.2654 0.24617 0.76798 0.0
H1288 H 0.27374 0.2831 0.78789 0.0
H1289 H 0.15918 0.39761 0.77915 0.0
C1290 C 0.13559 0.3155 0.73576 0.0
C1291 C 0.15641 0.27883 0.72805 0.0
C1292 C 0.19589 0.24575 0.73202 0.0
C1293 C 0.21449 0.24932 0.74353 0.0
C1294 C 0.19375 0.28674 0.75085 0.0
C1295 C 0.15529 0.31936 0.74706 0.0
C1296 C 0.14156 0.35855 0.75625 0.0
C1297 C 0.15256 0.41343 0.75197 0.0
C1298 C 0.08526 0.35252 0.76008 0.0
C1299 C 0.17819 0.34304 0.76585 0.0
C1300 C 0.20765 0.30118 0.76271 0.0
C1301 C 0.24279 0.27924 0.77047 0.0
C1302 C 0.24744 0.30047 0.78173 0.0
C1303 C 0.21786 0.34374 0.78498 0.0
C1304 C 0.18325 0.36524 0.77685 0.0
H1305 H 0.67058 0.6489 0.97609 0.0
H1306 H 0.81461 0.72906 0.97108 0.0
H1307 H 0.80873 0.76377 0.99125 0.0
H1308 H 0.6087 0.75031 0.99326 0.0
H1309 H 0.575 0.70463 1.00224 0.0
H1310 H 0.59056 0.68874 0.98737 0.0
H1311 H 0.63754 0.60676 0.99446 0.0
H1312 H 0.62249 0.62255 0.00933 0.0
H1313 H 0.68834 0.61239 1.00508 0.0
H1314 H 0.79022 0.78066 0.01317 0.0
H1315 H 0.75614 0.78652 0.03339 0.0
H1316 H 0.62115 0.70117 0.02271 0.0
C1317 C 0.70056 0.67436 0.97919 0.0
C1318 C 0.74312 0.68631 0.9721 0.0
C1319 C 0.78152 0.71984 0.97639 0.0
C1320 C 0.77855 0.73944 0.98784 0.0
C1321 C 0.73632 0.726 0.99472 0.0
C1322 C 0.69751 0.69508 0.9904 0.0
C1323 C 0.65604 0.68604 0.99937 0.0
C1324 C 0.60453 0.70881 0.99532 0.0
C1325 C 0.65084 0.62854 1.00223 0.0
C1326 C 0.67789 0.71566 0.00956 0.0
C1327 C 0.72445 0.73817 0.00684 0.0
C1328 C 0.75328 0.76408 0.01529 0.0
C1329 C 0.7338 0.76714 0.02675 0.0
C1330 C 0.68561 0.74518 0.02955 0.0
C1331 C 0.6575 0.71952 0.02078 0.0
H1332 H 0.38859 0.30122 0.03012 0.0
H1333 H 0.26732 0.19255 0.038 0.0
H1334 H 0.2396 0.19466 0.01728 0.0
H1335 H 0.31436 0.37856 0.01141 0.0
H1336 H 0.36688 0.39317 1.00174 0.0
H1337 H 0.3794 0.37898 0.01682 0.0
H1338 H 0.44175 0.3062 0.01071 0.0
H1339 H 0.42947 0.32024 0.99559 0.0
H1340 H 0.41941 0.25622 1.00108 0.0
H1341 H 0.22527 0.21058 0.99538 0.0
H1342 H 0.22161 0.24367 0.97509 0.0
H1343 H 0.3492 0.34542 0.98265 0.0
C1344 C 0.35669 0.27716 0.02747 0.0
C1345 C 0.33047 0.24619 0.0356 0.0
C1346 C 0.28811 0.21629 0.03186 0.0
C1347 C 0.27224 0.21718 0.02012 0.0
C1348 C 0.29885 0.2486 0.01234 0.0
C1349 C 0.33995 0.27832 0.01593 0.0
C1350 C 0.36011 0.31164 0.00619 0.0
C1351 C 0.35484 0.36896 0.00922 0.0
C1352 C 0.41599 0.29771 1.00322 0.0
C1353 C 0.3239 0.29635 0.99652 0.0
C1354 C 0.28921 0.25943 1.00011 0.0
C1355 C 0.25223 0.23954 0.99251 0.0
C1356 C 0.25047 0.2584 0.98102 0.0
C1357 C 0.28487 0.29727 0.97737 0.0
C1358 C 0.3221 0.316 0.98523 0.0
H1359 H 0.67868 0.85851 0.27845 0.0
H1360 H 0.80505 0.75558 0.28611 0.0
H1361 H 0.80546 0.72709 0.26541 0.0
H1362 H 0.61221 0.77349 0.25889 0.0
H1363 H 0.59069 0.82495 0.2496 0.0
H1364 H 0.60176 0.83664 0.26486 0.0
H1365 H 0.6646 0.91028 0.2596 0.0
H1366 H 0.65405 0.89852 0.24432 0.0
H1367 H 0.71835 0.89731 0.25016 0.0
H1368 H 0.79299 0.71351 0.24312 0.0
H1369 H 0.76343 0.70977 0.22251 0.0
H1370 H 0.64298 0.81897 0.23054 0.0
C1371 C 0.70653 0.82992 0.27581 0.0
C1372 C 0.7421 0.80947 0.28386 0.0
C1373 C 0.7774 0.77166 0.28007 0.0
C1374 C 0.77802 0.75551 0.26833 0.0
C1375 C 0.74264 0.77709 0.26056 0.0
C1376 C 0.70711 0.81298 0.26426 0.0
C1377 C 0.672 0.82956 0.25446 0.0
C1378 C 0.61585 0.81528 0.25711 0.0
C1379 C 0.67762 0.88734 0.25199 0.0
C1380 C 0.69329 0.79772 0.24458 0.0
C1381 C 0.73438 0.768 0.24815 0.0
C1382 C 0.76061 0.73641 0.2403 0.0
C1383 C 0.74379 0.73469 0.2286 0.0
C1384 C 0.70077 0.76383 0.22495 0.0
C1385 C 0.67572 0.79586 0.23308 0.0
H1386 H 0.17446 0.11111 0.48508 0.0
H1387 H 0.2909 0.22541 0.47753 0.0
H1388 H 0.2855 0.2567 0.49793 0.0
H1389 H 0.09695 0.19248 0.50305 0.0
H1390 H 0.0787 0.14154 0.51284 0.0
H1391 H 0.09354 0.12726 0.49786 0.0
H1392 H 0.16236 0.06156 0.5045 0.0
H1393 H 0.14754 0.0754 0.5195 0.0
H1394 H 0.21256 0.08179 0.51432 0.0
H1395 H 0.26873 0.27279 0.51951 0.0
H1396 H 0.23904 0.27555 0.54001 0.0
H1397 H 0.12917 0.15469 0.53258 0.0
C1398 C 0.19924 0.14241 0.48774 0.0
C1399 C 0.23362 0.16549 0.47981 0.0
C1400 C 0.26455 0.20708 0.48353 0.0
C1401 C 0.26169 0.22504 0.49507 0.0
C1402 C 0.22708 0.20148 0.50266 0.0
C1403 C 0.19611 0.16136 0.49909 0.0
C1404 C 0.16084 0.14359 0.50875 0.0
C1405 C 0.10416 0.15173 0.50542 0.0
C1406 C 0.17149 0.08726 0.51196 0.0
C1407 C 0.17711 0.17957 0.5184 0.0
C1408 C 0.21562 0.21246 0.51478 0.0
C1409 C 0.23824 0.24759 0.52239 0.0
C1410 C 0.22119 0.24886 0.534 0.0
C1411 C 0.18146 0.21575 0.53781 0.0
C1412 C 0.15897 0.18108 0.52986 0.0
H1413 H 0.75026 0.73111 0.72582 0.0
H1414 H 0.84126 0.86363 0.73537 0.0
H1415 H 0.80473 0.86094 0.75531 0.0
H1416 H 0.63678 0.7534 0.74553 0.0
H1417 H 0.63242 0.68607 0.749 0.0
H1418 H 0.65532 0.70602 0.73488 0.0
H1419 H 0.73871 0.65342 0.73799 0.0
H1420 H 0.71604 0.6333 0.75204 0.0
H1421 H 0.77731 0.66506 0.75078 0.0
H1422 H 0.76615 0.83768 0.7747 0.0
H1423 H 0.74008 0.7897 0.79228 0.0
H1424 H 0.68078 0.66732 0.77045 0.0
C1425 C 0.76064 0.7608 0.732 0.0
C1426 C 0.79707 0.79867 0.72904 0.0
C1427 C 0.81235 0.83518 0.73747 0.0
C1428 C 0.79165 0.83397 0.74877 0.0
C1429 C 0.75651 0.79535 0.75155 0.0
C1430 C 0.74159 0.75903 0.74341 0.0
C1431 C 0.71082 0.71634 0.74904 0.0
C1432 C 0.65555 0.71543 0.74433 0.0
C1433 C 0.73732 0.66398 0.74737 0.0
C1434 C 0.71214 0.73331 0.76167 0.0
C1435 C 0.73716 0.77984 0.76289 0.0
C1436 C 0.74593 0.80159 0.77383 0.0
C1437 C 0.7307 0.77414 0.78378 0.0
C1438 C 0.70815 0.72488 0.78274 0.0
C1439 C 0.69729 0.70519 0.77152 0.0
loop_
_geom_bond_atom_site_label_1
_geom_bond_atom_site_label_2
_geom_bond_distance
_geom_bond_site_symmetry_2
_ccdc_geom_bond_type
Mn0 O5 2.095 . S
Mn0 O15 2.162 . S
Mn0 O16 2.297 . S
Mn0 O24 2.385 . S
Mn0 O25 2.209 . S
Mn0 O26 2.094 . S
Mn1 O6 2.121 . S
Mn1 N8 2.257 1_545 S
Mn1 N17 2.282 . S
Mn1 O25 2.215 . S
Mn1 O27 2.117 . S
C2 O24 1.234 . S
C2 O25 1.283 . S
C3 O15 1.281 . S
C3 O16 1.236 . S
C4 O26 1.240 . S
C4 O27 1.264 . S
O5 Mn0 2.095 . S
O5 C14 1.250 . S
O6 Mn1 2.121 . S
O6 C14 1.258 . S
C7 N8 1.326 . S
C7 C11 1.460 . S
C7 H13 0.929 . S
N8 Mn1 2.257 1_565 S
N8 C7 1.326 . S
N8 C12 1.362 . S
C9 C10 1.258 . S
C9 C12 1.431 . S
C9 C29 1.449 . S
C10 C9 1.258 . S
C10 C11 1.477 . S
C10 H30 0.931 . S
C11 C7 1.460 . S
C11 C10 1.477 . S
C11 H31 0.930 . S
C12 N8 1.362 . S
C12 C9 1.431 . S
C12 C22 1.476 . S
H13 C7 0.929 . S
C14 O5 1.250 . S
C14 O6 1.258 . S
O15 Mn0 2.162 . S
O15 C3 1.281 . S
O16 Mn0 2.297 . S
O16 C3 1.236 . S
N17 Mn1 2.282 . S
N17 C18 1.328 . S
N17 C22 1.318 1_545 S
C18 N17 1.328 . S
C18 C19 1.457 . S
C18 H23 0.929 . S
C19 C18 1.457 . S
C19 C20 1.291 . S
C19 H32 0.931 . S
C20 C19 1.291 . S
C20 C21 1.373 1_545 S
C20 H33 0.926 1_545 S
C21 C20 1.373 1_565 S
C21 C22 1.396 . S
C21 C28 1.403 . S
C22 C12 1.476 . S
C22 N17 1.318 1_565 S
C22 C21 1.396 . S
H23 C18 0.929 . S
O24 Mn0 2.385 . S
O24 C2 1.234 . S
O25 Mn0 2.209 . S
O25 Mn1 2.215 . S
O25 C2 1.283 . S
O26 Mn0 2.094 . S
O26 C4 1.240 . S
O27 Mn1 2.117 . S
O27 C4 1.264 . S
C28 C21 1.403 . S
C28 C29 1.399 . S
C28 H34 0.929 . S
C29 C9 1.449 . S
C29 C28 1.399 . S
C29 H35 0.930 . S
H30 C10 0.931 . S
H31 C11 0.930 . S
H32 C19 0.931 . S
H33 C20 0.926 1_565 S
H34 C28 0.929 . S
H35 C29 0.930 . S
Mn36 O41 2.095 . S
Mn36 O51 2.162 . S
Mn36 O52 2.297 . S
Mn36 O60 2.385 . S
Mn36 O61 2.209 . S
Mn36 O62 2.094 . S
Mn37 O42 2.121 . S
Mn37 N44 2.257 1_655 S
Mn37 N53 2.282 . S
Mn37 O61 2.215 . S
Mn37 O63 2.117 . S
C38 O60 1.234 . S
C38 O61 1.283 . S
C39 O51 1.281 . S
C39 O52 1.236 . S
C40 O62 1.240 . S
C40 O63 1.264 . S
O41 Mn36 2.095 . S
O41 C50 1.250 . S
O42 Mn37 2.121 . S
O42 C50 1.258 . S
C43 N44 1.326 . S
C43 C47 1.460 . S
C43 H49 0.929 . S
N44 Mn37 2.257 1_455 S
N44 C43 1.326 . S
N44 C48 1.362 . S
C45 C46 1.258 . S
C45 C48 1.431 . S
C45 C65 1.449 . S
C46 C45 1.258 . S
C46 C47 1.477 . S
C46 H66 0.931 . S
C47 C43 1.460 . S
C47 C46 1.477 . S
C47 H67 0.930 . S
C48 N44 1.362 . S
C48 C45 1.431 . S
C48 C58 1.476 . S
H49 C43 0.929 . S
C50 O41 1.250 . S
C50 O42 1.258 . S
O51 Mn36 2.162 . S
O51 C39 1.281 . S
O52 Mn36 2.297 . S
O52 C39 1.236 . S
N53 Mn37 2.282 . S
N53 C54 1.328 . S
N53 C58 1.318 1_655 S
C54 N53 1.328 . S
C54 C55 1.457 . S
C54 H59 0.929 . S
C55 C54 1.457 . S
C55 C56 1.291 . S
C55 H68 0.931 . S
C56 C55 1.291 . S
C56 C57 1.373 1_655 S
C56 H69 0.926 1_655 S
C57 C56 1.373 1_455 S
C57 C58 1.396 . S
C57 C64 1.403 . S
C58 C48 1.476 . S
C58 N53 1.318 1_455 S
C58 C57 1.396 . S
H59 C54 0.929 . S
O60 Mn36 2.385 . S
O60 C38 1.234 . S
O61 Mn36 2.209 . S
O61 Mn37 2.215 . S
O61 C38 1.283 . S
O62 Mn36 2.094 . S
O62 C40 1.240 . S
O63 Mn37 2.117 . S
O63 C40 1.264 . S
C64 C57 1.403 . S
C64 C65 1.399 . S
C64 H70 0.929 . S
C65 C45 1.449 . S
C65 C64 1.399 . S
C65 H71 0.930 . S
H66 C46 0.931 . S
H67 C47 0.930 . S
H68 C55 0.931 . S
H69 C56 0.926 1_455 S
H70 C64 0.929 . S
H71 C65 0.930 . S
Mn72 O77 2.095 . S
Mn72 O87 2.162 . S
Mn72 O88 2.297 . S
Mn72 O96 2.385 . S
Mn72 O97 2.209 . S
Mn72 O98 2.094 . S
Mn73 O78 2.121 . S
Mn73 N80 2.257 . S
Mn73 N89 2.282 . S
Mn73 O97 2.215 . S
Mn73 O99 2.117 . S
C74 O96 1.234 . S
C74 O97 1.283 . S
C75 O87 1.281 . S
C75 O88 1.236 . S
C76 O98 1.240 . S
C76 O99 1.264 . S
O77 Mn72 2.095 . S
O77 C86 1.250 . S
O78 Mn73 2.121 . S
O78 C86 1.258 . S
C79 N80 1.326 . S
C79 C83 1.460 . S
C79 H85 0.929 . S
N80 Mn73 2.257 . S
N80 C79 1.326 . S
N80 C84 1.362 . S
C81 C82 1.258 . S
C81 C84 1.431 . S
C81 C101 1.449 . S
C82 C81 1.258 . S
C82 C83 1.477 . S
C82 H102 0.931 . S
C83 C79 1.460 . S
C83 C82 1.477 . S
C83 H103 0.930 . S
C84 N80 1.362 . S
C84 C81 1.431 . S
C84 C94 1.476 . S
H85 C79 0.929 . S
C86 O77 1.250 . S
C86 O78 1.258 . S
O87 Mn72 2.162 . S
O87 C75 1.281 . S
O88 Mn72 2.297 . S
O88 C75 1.236 . S
N89 Mn73 2.282 . S
N89 C90 1.328 . S
N89 C94 1.318 . S
C90 N89 1.328 . S
C90 C91 1.457 . S
C90 H95 0.929 . S
C91 C90 1.457 . S
C91 C92 1.291 . S
C91 H104 0.931 . S
C92 C91 1.291 . S
C92 C93 1.373 . S
C92 H105 0.929 . S
C93 C92 1.373 . S
C93 C94 1.396 . S
C93 C100 1.403 . S
C94 C84 1.476 . S
C94 N89 1.318 . S
C94 C93 1.396 . S
H95 C90 0.929 . S
O96 Mn72 2.385 . S
O96 C74 1.234 . S
O97 Mn72 2.209 . S
O97 Mn73 2.215 . S
O97 C74 1.283 . S
O98 Mn72 2.094 . S
O98 C76 1.240 . S
O99 Mn73 2.117 . S
O99 C76 1.264 . S
C100 C93 1.403 . S
C100 C101 1.399 . S
C100 H106 0.929 . S
C101 C81 1.449 . S
C101 C100 1.399 . S
C101 H107 0.930 . S
H102 C82 0.931 . S
H103 C83 0.930 . S
H104 C91 0.931 . S
H105 C92 0.929 . S
H106 C100 0.929 . S
H107 C101 0.930 . S
Mn108 O113 2.095 . S
Mn108 O123 2.162 . S
Mn108 O124 2.297 . S
Mn108 O132 2.385 . S
Mn108 O133 2.209 . S
Mn108 O134 2.094 . S
Mn109 O114 2.121 . S
Mn109 N116 2.257 . S
Mn109 N125 2.282 . S
Mn109 O133 2.215 . S
Mn109 O135 2.117 . S
C110 O132 1.234 . S
C110 O133 1.283 . S
C111 O123 1.281 . S
C111 O124 1.236 . S
C112 O134 1.240 . S
C112 O135 1.264 . S
O113 Mn108 2.095 . S
O113 C122 1.250 . S
O114 Mn109 2.121 . S
O114 C122 1.258 . S
C115 N116 1.326 . S
C115 C119 1.460 . S
C115 H121 0.929 . S
N116 Mn109 2.257 . S
N116 C115 1.326 . S
N116 C120 1.362 . S
C117 C118 1.258 . S
C117 C120 1.431 . S
C117 C137 1.449 . S
C118 C117 1.258 . S
C118 C119 1.477 . S
C118 H138 0.931 . S
C119 C115 1.460 . S
C119 C118 1.477 . S
C119 H139 0.930 . S
C120 N116 1.362 . S
C120 C117 1.431 . S
C120 C130 1.476 . S
H121 C115 0.929 . S
C122 O113 1.250 . S
C122 O114 1.258 . S
O123 Mn108 2.162 . S
O123 C111 1.281 . S
O124 Mn108 2.297 . S
O124 C111 1.236 . S
N125 Mn109 2.282 . S
N125 C126 1.328 . S
N125 C130 1.318 . S
C126 N125 1.328 . S
C126 C127 1.457 . S
C126 H131 0.929 . S
C127 C126 1.457 . S
C127 C128 1.291 . S
C127 H140 0.931 . S
C128 C127 1.291 . S
C128 C129 1.373 . S
C128 H141 0.929 . S
C129 C128 1.373 . S
C129 C130 1.396 . S
C129 C136 1.403 . S
C130 C120 1.476 . S
C130 N125 1.318 . S
C130 C129 1.396 . S
H131 C126 0.929 . S
O132 Mn108 2.385 . S
O132 C110 1.234 . S
O133 Mn108 2.209 . S
O133 Mn109 2.215 . S
O133 C110 1.283 . S
O134 Mn108 2.094 . S
O134 C112 1.240 . S
O135 Mn109 2.117 . S
O135 C112 1.264 . S
C136 C129 1.403 . S
C136 C137 1.399 . S
C136 H142 0.929 . S
C137 C117 1.449 . S
C137 C136 1.399 . S
C137 H143 0.930 . S
H138 C118 0.931 . S
H139 C119 0.930 . S
H140 C127 0.931 . S
H141 C128 0.929 . S
H142 C136 0.929 . S
H143 C137 0.930 . S
Mn144 O149 2.095 . S
Mn144 O159 2.162 . S
Mn144 O160 2.297 . S
Mn144 O168 2.385 . S
Mn144 O169 2.209 . S
Mn144 O170 2.094 . S
Mn145 O150 2.121 . S
Mn145 N152 2.257 . S
Mn145 N161 2.282 . S
Mn145 O169 2.215 . S
Mn145 O171 2.117 . S
C146 O168 1.234 . S
C146 O169 1.283 . S
C147 O159 1.281 . S
C147 O160 1.236 . S
C148 O170 1.240 . S
C148 O171 1.264 . S
O149 Mn144 2.095 . S
O149 C158 1.250 . S
O150 Mn145 2.121 . S
O150 C158 1.258 . S
C151 N152 1.326 . S
C151 C155 1.460 . S
C151 H157 0.929 . S
N152 Mn145 2.257 . S
N152 C151 1.326 . S
N152 C156 1.362 . S
C153 C154 1.258 . S
C153 C156 1.431 . S
C153 C173 1.449 . S
C154 C153 1.258 . S
C154 C155 1.477 . S
C154 H174 0.931 . S
C155 C151 1.460 . S
C155 C154 1.477 . S
C155 H175 0.930 . S
C156 N152 1.362 . S
C156 C153 1.431 . S
C156 C166 1.476 . S
H157 C151 0.929 . S
C158 O149 1.250 . S
C158 O150 1.258 . S
O159 Mn144 2.162 . S
O159 C147 1.281 . S
O160 Mn144 2.297 . S
O160 C147 1.236 . S
N161 Mn145 2.282 . S
N161 C162 1.328 . S
N161 C166 1.318 . S
C162 N161 1.328 . S
C162 C163 1.457 . S
C162 H167 0.929 . S
C163 C162 1.457 . S
C163 C164 1.291 . S
C163 H176 0.931 . S
C164 C163 1.291 . S
C164 C165 1.373 . S
C164 H177 0.929 . S
C165 C164 1.373 . S
C165 C166 1.396 . S
C165 C172 1.403 . S
C166 C156 1.476 . S
C166 N161 1.318 . S
C166 C165 1.396 . S
H167 C162 0.929 . S
O168 Mn144 2.385 . S
O168 C146 1.234 . S
O169 Mn144 2.209 . S
O169 Mn145 2.215 . S
O169 C146 1.283 . S
O170 Mn144 2.094 . S
O170 C148 1.240 . S
O171 Mn145 2.117 . S
O171 C148 1.264 . S
C172 C165 1.403 . S
C172 C173 1.399 . S
C172 H178 0.929 . S
C173 C153 1.449 . S
C173 C172 1.399 . S
C173 H179 0.930 . S
H174 C154 0.931 . S
H175 C155 0.930 . S
H176 C163 0.931 . S
H177 C164 0.929 . S
H178 C172 0.929 . S
H179 C173 0.930 . S
Mn180 O185 2.095 . S
Mn180 O195 2.162 . S
Mn180 O196 2.297 . S
Mn180 O204 2.385 . S
Mn180 O205 2.209 . S
Mn180 O206 2.094 . S
Mn181 O186 2.121 . S
Mn181 N188 2.257 . S
Mn181 N197 2.282 . S
Mn181 O205 2.215 . S
Mn181 O207 2.117 . S
C182 O204 1.234 . S
C182 O205 1.283 . S
C183 O195 1.281 . S
C183 O196 1.236 . S
C184 O206 1.240 . S
C184 O207 1.264 . S
O185 Mn180 2.095 . S
O185 C194 1.250 . S
O186 Mn181 2.121 . S
O186 C194 1.258 . S
C187 N188 1.326 . S
C187 C191 1.460 . S
C187 H193 0.929 . S
N188 Mn181 2.257 . S
N188 C187 1.326 . S
N188 C192 1.362 . S
C189 C190 1.258 . S
C189 C192 1.431 . S
C189 C209 1.449 . S
C190 C189 1.258 . S
C190 C191 1.477 . S
C190 H210 0.931 . S
C191 C187 1.460 . S
C191 C190 1.477 . S
C191 H211 0.930 . S
C192 N188 1.362 . S
C192 C189 1.431 . S
C192 C202 1.476 . S
H193 C187 0.929 . S
C194 O185 1.250 . S
C194 O186 1.258 . S
O195 Mn180 2.162 . S
O195 C183 1.281 . S
O196 Mn180 2.297 . S
O196 C183 1.236 . S
N197 Mn181 2.282 . S
N197 C198 1.328 . S
N197 C202 1.318 . S
C198 N197 1.328 . S
C198 C199 1.457 . S
C198 H203 0.929 . S
C199 C198 1.457 . S
C199 C200 1.291 . S
C199 H212 0.931 . S
C200 C199 1.291 . S
C200 C201 1.373 . S
C200 H213 0.929 . S
C201 C200 1.373 . S
C201 C202 1.396 . S
C201 C208 1.403 . S
C202 C192 1.476 . S
C202 N197 1.318 . S
C202 C201 1.396 . S
H203 C198 0.929 . S
O204 Mn180 2.385 . S
O204 C182 1.234 . S
O205 Mn180 2.209 . S
O205 Mn181 2.215 . S
O205 C182 1.283 . S
O206 Mn180 2.094 . S
O206 C184 1.240 . S
O207 Mn181 2.117 . S
O207 C184 1.264 . S
C208 C201 1.403 . S
C208 C209 1.399 . S
C208 H214 0.929 . S
C209 C189 1.449 . S
C209 C208 1.399 . S
C209 H215 0.930 . S
H210 C190 0.931 . S
H211 C191 0.930 . S
H212 C199 0.931 . S
H213 C200 0.929 . S
H214 C208 0.929 . S
H215 C209 0.930 . S
Mn216 O221 2.095 . S
Mn216 O231 2.162 . S
Mn216 O232 2.297 . S
Mn216 O240 2.385 . S
Mn216 O241 2.209 . S
Mn216 O242 2.094 . S
Mn217 O222 2.121 . S
Mn217 N224 2.257 1_545 S
Mn217 N233 2.282 . S
Mn217 O241 2.215 . S
Mn217 O243 2.117 . S
C218 O240 1.234 . S
C218 O241 1.283 . S
C219 O231 1.281 . S
C219 O232 1.236 . S
C220 O242 1.240 . S
C220 O243 1.264 . S
O221 Mn216 2.095 . S
O221 C230 1.250 . S
O222 Mn217 2.121 . S
O222 C230 1.258 . S
C223 N224 1.326 . S
C223 C227 1.460 . S
C223 H229 0.929 . S
N224 Mn217 2.257 1_565 S
N224 C223 1.326 . S
N224 C228 1.362 . S
C225 C226 1.258 . S
C225 C228 1.431 . S
C225 C245 1.449 . S
C226 C225 1.258 . S
C226 C227 1.477 . S
C226 H246 0.931 . S
C227 C223 1.460 . S
C227 C226 1.477 . S
C227 H247 0.930 . S
C228 N224 1.362 . S
C228 C225 1.431 . S
C228 C238 1.476 . S
H229 C223 0.929 . S
C230 O221 1.250 . S
C230 O222 1.258 . S
O231 Mn216 2.162 . S
O231 C219 1.281 . S
O232 Mn216 2.297 . S
O232 C219 1.236 . S
N233 Mn217 2.282 . S
N233 C234 1.328 . S
N233 C238 1.318 1_545 S
C234 N233 1.328 . S
C234 C235 1.457 . S
C234 H239 0.929 . S
C235 C234 1.457 . S
C235 C236 1.291 . S
C235 H248 0.931 . S
C236 C235 1.291 . S
C236 C237 1.373 1_545 S
C236 H249 0.926 1_545 S
C237 C236 1.373 1_565 S
C237 C238 1.396 . S
C237 C244 1.403 . S
C238 C228 1.476 . S
C238 N233 1.318 1_565 S
C238 C237 1.396 . S
H239 C234 0.929 . S
O240 Mn216 2.385 . S
O240 C218 1.234 . S
O241 Mn216 2.209 . S
O241 Mn217 2.215 . S
O241 C218 1.283 . S
O242 Mn216 2.094 . S
O242 C220 1.240 . S
O243 Mn217 2.117 . S
O243 C220 1.264 . S
C244 C237 1.403 . S
C244 C245 1.399 . S
C244 H250 0.929 . S
C245 C225 1.449 . S
C245 C244 1.399 . S
C245 H251 0.930 . S
H246 C226 0.931 . S
H247 C227 0.930 . S
H248 C235 0.931 . S
H249 C236 0.926 1_565 S
H250 C244 0.929 . S
H251 C245 0.930 . S
Mn252 O257 2.095 . S
Mn252 O267 2.162 . S
Mn252 O268 2.297 . S
Mn252 O276 2.385 . S
Mn252 O277 2.209 . S
Mn252 O278 2.094 . S
Mn253 O258 2.121 . S
Mn253 N260 2.257 1_655 S
Mn253 N269 2.282 . S
Mn253 O277 2.215 . S
Mn253 O279 2.117 . S
C254 O276 1.234 . S
C254 O277 1.283 . S
C255 O267 1.281 . S
C255 O268 1.236 . S
C256 O278 1.240 . S
C256 O279 1.264 . S
O257 Mn252 2.095 . S
O257 C266 1.250 . S
O258 Mn253 2.121 . S
O258 C266 1.258 . S
C259 N260 1.326 . S
C259 C263 1.460 . S
C259 H265 0.929 . S
N260 Mn253 2.257 1_455 S
N260 C259 1.326 . S
N260 C264 1.362 . S
C261 C262 1.258 . S
C261 C264 1.431 . S
C261 C281 1.449 . S
C262 C261 1.258 . S
C262 C263 1.477 . S
C262 H282 0.931 . S
C263 C259 1.460 . S
C263 C262 1.477 . S
C263 H283 0.930 . S
C264 N260 1.362 . S
C264 C261 1.431 . S
C264 C274 1.476 . S
H265 C259 0.929 . S
C266 O257 1.250 . S
C266 O258 1.258 . S
O267 Mn252 2.162 . S
O267 C255 1.281 . S
O268 Mn252 2.297 . S
O268 C255 1.236 . S
N269 Mn253 2.282 . S
N269 C270 1.328 . S
N269 C274 1.318 1_655 S
C270 N269 1.328 . S
C270 C271 1.457 . S
C270 H275 0.929 . S
C271 C270 1.457 . S
C271 C272 1.291 . S
C271 H284 0.931 . S
C272 C271 1.291 . S
C272 C273 1.373 1_655 S
C272 H285 0.926 1_655 S
C273 C272 1.373 1_455 S
C273 C274 1.396 . S
C273 C280 1.403 . S
C274 C264 1.476 . S
C274 N269 1.318 1_455 S
C274 C273 1.396 . S
H275 C270 0.929 . S
O276 Mn252 2.385 . S
O276 C254 1.234 . S
O277 Mn252 2.209 . S
O277 Mn253 2.215 . S
O277 C254 1.283 . S
O278 Mn252 2.094 . S
O278 C256 1.240 . S
O279 Mn253 2.117 . S
O279 C256 1.264 . S
C280 C273 1.403 . S
C280 C281 1.399 . S
C280 H286 0.929 . S
C281 C261 1.449 . S
C281 C280 1.399 . S
C281 H287 0.930 . S
H282 C262 0.931 . S
H283 C263 0.930 . S
H284 C271 0.931 . S
H285 C272 0.926 1_455 S
H286 C280 0.929 . S
H287 C281 0.930 . S
Mn288 O293 2.095 . S
Mn288 O303 2.162 . S
Mn288 O304 2.297 . S
Mn288 O312 2.385 . S
Mn288 O313 2.209 . S
Mn288 O314 2.094 . S
Mn289 O294 2.121 . S
Mn289 N296 2.257 . S
Mn289 N305 2.282 . S
Mn289 O313 2.215 . S
Mn289 O315 2.117 . S
C290 O312 1.234 . S
C290 O313 1.283 . S
C291 O303 1.281 . S
C291 O304 1.236 . S
C292 O314 1.240 . S
C292 O315 1.264 . S
O293 Mn288 2.095 . S
O293 C302 1.250 . S
O294 Mn289 2.121 . S
O294 C302 1.258 . S
C295 N296 1.326 . S
C295 C299 1.460 . S
C295 H301 0.929 . S
N296 Mn289 2.257 . S
N296 C295 1.326 . S
N296 C300 1.362 . S
C297 C298 1.258 . S
C297 C300 1.431 . S
C297 C317 1.449 . S
C298 C297 1.258 . S
C298 C299 1.477 . S
C298 H318 0.931 . S
C299 C295 1.460 . S
C299 C298 1.477 . S
C299 H319 0.930 . S
C300 N296 1.362 . S
C300 C297 1.431 . S
C300 C310 1.476 . S
H301 C295 0.929 . S
C302 O293 1.250 . S
C302 O294 1.258 . S
O303 Mn288 2.162 . S
O303 C291 1.281 . S
O304 Mn288 2.297 . S
O304 C291 1.236 . S
N305 Mn289 2.282 . S
N305 C306 1.328 . S
N305 C310 1.318 . S
C306 N305 1.328 . S
C306 C307 1.457 . S
C306 H311 0.929 . S
C307 C306 1.457 . S
C307 C308 1.291 . S
C307 H320 0.931 . S
C308 C307 1.291 . S
C308 C309 1.373 . S
C308 H321 0.929 . S
C309 C308 1.373 . S
C309 C310 1.396 . S
C309 C316 1.403 . S
C310 C300 1.476 . S
C310 N305 1.318 . S
C310 C309 1.396 . S
H311 C306 0.929 . S
O312 Mn288 2.385 . S
O312 C290 1.234 . S
O313 Mn288 2.209 . S
O313 Mn289 2.215 . S
O313 C290 1.283 . S
O314 Mn288 2.094 . S
O314 C292 1.240 . S
O315 Mn289 2.117 . S
O315 C292 1.264 . S
C316 C309 1.403 . S
C316 C317 1.399 . S
C316 H322 0.929 . S
C317 C297 1.449 . S
C317 C316 1.399 . S
C317 H323 0.930 . S
H318 C298 0.931 . S
H319 C299 0.930 . S
H320 C307 0.931 . S
H321 C308 0.929 . S
H322 C316 0.929 . S
H323 C317 0.930 . S
Mn324 O329 2.095 . S
Mn324 O339 2.162 . S
Mn324 O340 2.297 . S
Mn324 O348 2.385 . S
Mn324 O349 2.209 . S
Mn324 O350 2.094 . S
Mn325 O330 2.121 . S
Mn325 N332 2.257 . S
Mn325 N341 2.282 . S
Mn325 O349 2.215 . S
Mn325 O351 2.117 . S
C326 O348 1.234 . S
C326 O349 1.283 . S
C327 O339 1.281 . S
C327 O340 1.236 . S
C328 O350 1.240 . S
C328 O351 1.264 . S
O329 Mn324 2.095 . S
O329 C338 1.250 . S
O330 Mn325 2.121 . S
O330 C338 1.258 . S
C331 N332 1.326 . S
C331 C335 1.460 . S
C331 H337 0.929 . S
N332 Mn325 2.257 . S
N332 C331 1.326 . S
N332 C336 1.362 . S
C333 C334 1.258 . S
C333 C336 1.431 . S
C333 C353 1.449 . S
C334 C333 1.258 . S
C334 C335 1.477 . S
C334 H354 0.931 . S
C335 C331 1.460 . S
C335 C334 1.477 . S
C335 H355 0.930 . S
C336 N332 1.362 . S
C336 C333 1.431 . S
C336 C346 1.476 . S
H337 C331 0.929 . S
C338 O329 1.250 . S
C338 O330 1.258 . S
O339 Mn324 2.162 . S
O339 C327 1.281 . S
O340 Mn324 2.297 . S
O340 C327 1.236 . S
N341 Mn325 2.282 . S
N341 C342 1.328 . S
N341 C346 1.318 . S
C342 N341 1.328 . S
C342 C343 1.457 . S
C342 H347 0.929 . S
C343 C342 1.457 . S
C343 C344 1.291 . S
C343 H356 0.931 . S
C344 C343 1.291 . S
C344 C345 1.373 . S
C344 H357 0.929 . S
C345 C344 1.373 . S
C345 C346 1.396 . S
C345 C352 1.403 . S
C346 C336 1.476 . S
C346 N341 1.318 . S
C346 C345 1.396 . S
H347 C342 0.929 . S
O348 Mn324 2.385 . S
O348 C326 1.234 . S
O349 Mn324 2.209 . S
O349 Mn325 2.215 . S
O349 C326 1.283 . S
O350 Mn324 2.094 . S
O350 C328 1.240 . S
O351 Mn325 2.117 . S
O351 C328 1.264 . S
C352 C345 1.403 . S
C352 C353 1.399 . S
C352 H358 0.929 . S
C353 C333 1.449 . S
C353 C352 1.399 . S
C353 H359 0.930 . S
H354 C334 0.931 . S
H355 C335 0.930 . S
H356 C343 0.931 . S
H357 C344 0.929 . S
H358 C352 0.929 . S
H359 C353 0.930 . S
Mn360 O365 2.095 . S
Mn360 O375 2.162 . S
Mn360 O376 2.297 . S
Mn360 O384 2.385 . S
Mn360 O385 2.209 . S
Mn360 O386 2.094 . S
Mn361 O366 2.121 . S
Mn361 N368 2.257 1_565 S
Mn361 N377 2.282 . S
Mn361 O385 2.215 . S
Mn361 O387 2.117 . S
C362 O384 1.234 . S
C362 O385 1.283 . S
C363 O375 1.281 . S
C363 O376 1.236 . S
C364 O386 1.240 . S
C364 O387 1.264 . S
O365 Mn360 2.095 . S
O365 C374 1.250 . S
O366 Mn361 2.121 . S
O366 C374 1.258 . S
C367 N368 1.326 . S
C367 C371 1.460 . S
C367 H373 0.929 . S
N368 Mn361 2.257 1_545 S
N368 C367 1.326 . S
N368 C372 1.362 . S
C369 C370 1.258 . S
C369 C372 1.431 . S
C369 C389 1.449 . S
C370 C369 1.258 . S
C370 C371 1.477 . S
C370 H390 0.931 . S
C371 C367 1.460 . S
C371 C370 1.477 . S
C371 H391 0.930 . S
C372 N368 1.362 . S
C372 C369 1.431 . S
C372 C382 1.476 . S
H373 C367 0.929 . S
C374 O365 1.250 . S
C374 O366 1.258 . S
O375 Mn360 2.162 . S
O375 C363 1.281 . S
O376 Mn360 2.297 . S
O376 C363 1.236 . S
N377 Mn361 2.282 . S
N377 C378 1.328 . S
N377 C382 1.318 1_565 S
C378 N377 1.328 . S
C378 C379 1.457 . S
C378 H383 0.929 . S
C379 C378 1.457 . S
C379 C380 1.291 . S
C379 H392 0.931 . S
C380 C379 1.291 . S
C380 C381 1.373 1_565 S
C380 H393 0.926 1_565 S
C381 C380 1.373 1_545 S
C381 C382 1.396 . S
C381 C388 1.403 . S
C382 C372 1.476 . S
C382 N377 1.318 1_545 S
C382 C381 1.396 . S
H383 C378 0.929 . S
O384 Mn360 2.385 . S
O384 C362 1.234 . S
O385 Mn360 2.209 . S
O385 Mn361 2.215 . S
O385 C362 1.283 . S
O386 Mn360 2.094 . S
O386 C364 1.240 . S
O387 Mn361 2.117 . S
O387 C364 1.264 . S
C388 C381 1.403 . S
C388 C389 1.399 . S
C388 H394 0.929 . S
C389 C369 1.449 . S
C389 C388 1.399 . S
C389 H395 0.930 . S
H390 C370 0.931 . S
H391 C371 0.930 . S
H392 C379 0.931 . S
H393 C380 0.926 1_545 S
H394 C388 0.929 . S
H395 C389 0.930 . S
Mn396 O401 2.095 . S
Mn396 O411 2.162 . S
Mn396 O412 2.297 . S
Mn396 O420 2.385 . S
Mn396 O421 2.209 . S
Mn396 O422 2.094 . S
Mn397 O402 2.121 . S
Mn397 N404 2.257 1_455 S
Mn397 N413 2.282 . S
Mn397 O421 2.215 . S
Mn397 O423 2.117 . S
C398 O420 1.234 . S
C398 O421 1.283 . S
C399 O411 1.281 . S
C399 O412 1.236 . S
C400 O422 1.240 . S
C400 O423 1.264 . S
O401 Mn396 2.095 . S
O401 C410 1.250 . S
O402 Mn397 2.121 . S
O402 C410 1.258 . S
C403 N404 1.326 . S
C403 C407 1.460 . S
C403 H409 0.929 . S
N404 Mn397 2.257 1_655 S
N404 C403 1.326 . S
N404 C408 1.362 . S
C405 C406 1.258 . S
C405 C408 1.431 . S
C405 C425 1.449 . S
C406 C405 1.258 . S
C406 C407 1.477 . S
C406 H426 0.931 . S
C407 C403 1.460 . S
C407 C406 1.477 . S
C407 H427 0.930 . S
C408 N404 1.362 . S
C408 C405 1.431 . S
C408 C418 1.476 . S
H409 C403 0.929 . S
C410 O401 1.250 . S
C410 O402 1.258 . S
O411 Mn396 2.162 . S
O411 C399 1.281 . S
O412 Mn396 2.297 . S
O412 C399 1.236 . S
N413 Mn397 2.282 . S
N413 C414 1.328 . S
N413 C418 1.318 1_455 S
C414 N413 1.328 . S
C414 C415 1.457 . S
C414 H419 0.929 . S
C415 C414 1.457 . S
C415 C416 1.291 . S
C415 H428 0.931 . S
C416 C415 1.291 . S
C416 C417 1.373 1_455 S
C416 H429 0.926 1_455 S
C417 C416 1.373 1_655 S
C417 C418 1.396 . S
C417 C424 1.403 . S
C418 C408 1.476 . S
C418 N413 1.318 1_655 S
C418 C417 1.396 . S
H419 C414 0.929 . S
O420 Mn396 2.385 . S
O420 C398 1.234 . S
O421 Mn396 2.209 . S
O421 Mn397 2.215 . S
O421 C398 1.283 . S
O422 Mn396 2.094 . S
O422 C400 1.240 . S
O423 Mn397 2.117 . S
O423 C400 1.264 . S
C424 C417 1.403 . S
C424 C425 1.399 . S
C424 H430 0.929 . S
C425 C405 1.449 . S
C425 C424 1.399 . S
C425 H431 0.930 . S
H426 C406 0.931 . S
H427 C407 0.930 . S
H428 C415 0.931 . S
H429 C416 0.926 1_655 S
H430 C424 0.929 . S
H431 C425 0.930 . S
Mn432 O437 2.095 . S
Mn432 O447 2.162 . S
Mn432 O448 2.297 . S
Mn432 O456 2.385 . S
Mn432 O457 2.209 . S
Mn432 O458 2.094 . S
Mn433 O438 2.121 . S
Mn433 N440 2.257 1_565 S
Mn433 N449 2.282 . S
Mn433 O457 2.215 . S
Mn433 O459 2.117 . S
C434 O456 1.234 . S
C434 O457 1.283 . S
C435 O447 1.281 . S
C435 O448 1.236 . S
C436 O458 1.240 . S
C436 O459 1.264 . S
O437 Mn432 2.095 . S
O437 C446 1.250 . S
O438 Mn433 2.121 . S
O438 C446 1.258 . S
C439 N440 1.326 . S
C439 C443 1.460 . S
C439 H445 0.929 . S
N440 Mn433 2.257 1_545 S
N440 C439 1.326 . S
N440 C444 1.362 . S
C441 C442 1.258 . S
C441 C444 1.431 . S
C441 C461 1.449 . S
C442 C441 1.258 . S
C442 C443 1.477 . S
C442 H462 0.931 . S
C443 C439 1.460 . S
C443 C442 1.477 . S
C443 H463 0.930 . S
C444 N440 1.362 . S
C444 C441 1.431 . S
C444 C454 1.476 . S
H445 C439 0.929 . S
C446 O437 1.250 . S
C446 O438 1.258 . S
O447 Mn432 2.162 . S
O447 C435 1.281 . S
O448 Mn432 2.297 . S
O448 C435 1.236 . S
N449 Mn433 2.282 . S
N449 C450 1.328 . S
N449 C454 1.318 1_565 S
C450 N449 1.328 . S
C450 C451 1.457 . S
C450 H455 0.929 . S
C451 C450 1.457 . S
C451 C452 1.291 . S
C451 H464 0.931 . S
C452 C451 1.291 . S
C452 C453 1.373 1_565 S
C452 H465 0.926 1_565 S
C453 C452 1.373 1_545 S
C453 C454 1.396 . S
C453 C460 1.403 . S
C454 C444 1.476 . S
C454 N449 1.318 1_545 S
C454 C453 1.396 . S
H455 C450 0.929 . S
O456 Mn432 2.385 . S
O456 C434 1.234 . S
O457 Mn432 2.209 . S
O457 Mn433 2.215 . S
O457 C434 1.283 . S
O458 Mn432 2.094 . S
O458 C436 1.240 . S
O459 Mn433 2.117 . S
O459 C436 1.264 . S
C460 C453 1.403 . S
C460 C461 1.399 . S
C460 H466 0.929 . S
C461 C441 1.449 . S
C461 C460 1.399 . S
C461 H467 0.930 . S
H462 C442 0.931 . S
H463 C443 0.930 . S
H464 C451 0.931 . S
H465 C452 0.926 1_545 S
H466 C460 0.929 . S
H467 C461 0.930 . S
Mn468 O473 2.095 . S
Mn468 O483 2.162 . S
Mn468 O484 2.297 . S
Mn468 O492 2.385 . S
Mn468 O493 2.209 . S
Mn468 O494 2.094 . S
Mn469 O474 2.121 . S
Mn469 N476 2.257 1_455 S
Mn469 N485 2.282 . S
Mn469 O493 2.215 . S
Mn469 O495 2.117 . S
C470 O492 1.234 . S
C470 O493 1.283 . S
C471 O483 1.281 . S
C471 O484 1.236 . S
C472 O494 1.240 . S
C472 O495 1.264 . S
O473 Mn468 2.095 . S
O473 C482 1.250 . S
O474 Mn469 2.121 . S
O474 C482 1.258 . S
C475 N476 1.326 . S
C475 C479 1.460 . S
C475 H481 0.929 . S
N476 Mn469 2.257 1_655 S
N476 C475 1.326 . S
N476 C480 1.362 . S
C477 C478 1.258 . S
C477 C480 1.431 . S
C477 C497 1.449 . S
C478 C477 1.258 . S
C478 C479 1.477 . S
C478 H498 0.931 . S
C479 C475 1.460 . S
C479 C478 1.477 . S
C479 H499 0.930 . S
C480 N476 1.362 . S
C480 C477 1.431 . S
C480 C490 1.476 . S
H481 C475 0.929 . S
C482 O473 1.250 . S
C482 O474 1.258 . S
O483 Mn468 2.162 . S
O483 C471 1.281 . S
O484 Mn468 2.297 . S
O484 C471 1.236 . S
N485 Mn469 2.282 . S
N485 C486 1.328 . S
N485 C490 1.318 1_455 S
C486 N485 1.328 . S
C486 C487 1.457 . S
C486 H491 0.929 . S
C487 C486 1.457 . S
C487 C488 1.291 . S
C487 H500 0.931 . S
C488 C487 1.291 . S
C488 C489 1.373 1_455 S
C488 H501 0.926 1_455 S
C489 C488 1.373 1_655 S
C489 C490 1.396 . S
C489 C496 1.403 . S
C490 C480 1.476 . S
C490 N485 1.318 1_655 S
C490 C489 1.396 . S
H491 C486 0.929 . S
O492 Mn468 2.385 . S
O492 C470 1.234 . S
O493 Mn468 2.209 . S
O493 Mn469 2.215 . S
O493 C470 1.283 . S
O494 Mn468 2.094 . S
O494 C472 1.240 . S
O495 Mn469 2.117 . S
O495 C472 1.264 . S
C496 C489 1.403 . S
C496 C497 1.399 . S
C496 H502 0.929 . S
C497 C477 1.449 . S
C497 C496 1.399 . S
C497 H503 0.930 . S
H498 C478 0.931 . S
H499 C479 0.930 . S
H500 C487 0.931 . S
H501 C488 0.926 1_655 S
H502 C496 0.929 . S
H503 C497 0.930 . S
Mn504 O509 2.095 . S
Mn504 O519 2.162 . S
Mn504 O520 2.297 . S
Mn504 O528 2.385 . S
Mn504 O529 2.209 . S
Mn504 O530 2.094 . S
Mn505 O510 2.121 . S
Mn505 N512 2.257 . S
Mn505 N521 2.282 . S
Mn505 O529 2.215 . S
Mn505 O531 2.117 . S
C506 O528 1.234 . S
C506 O529 1.283 . S
C507 O519 1.281 . S
C507 O520 1.236 . S
C508 O530 1.240 . S
C508 O531 1.264 . S
O509 Mn504 2.095 . S
O509 C518 1.250 . S
O510 Mn505 2.121 . S
O510 C518 1.258 . S
C511 N512 1.326 . S
C511 C515 1.460 . S
C511 H517 0.929 . S
N512 Mn505 2.257 . S
N512 C511 1.326 . S
N512 C516 1.362 . S
C513 C514 1.258 . S
C513 C516 1.431 . S
C513 C533 1.449 . S
C514 C513 1.258 . S
C514 C515 1.477 . S
C514 H534 0.931 . S
C515 C511 1.460 . S
C515 C514 1.477 . S
C515 H535 0.930 . S
C516 N512 1.362 . S
C516 C513 1.431 . S
C516 C526 1.476 . S
H517 C511 0.929 . S
C518 O509 1.250 . S
C518 O510 1.258 . S
O519 Mn504 2.162 . S
O519 C507 1.281 . S
O520 Mn504 2.297 . S
O520 C507 1.236 . S
N521 Mn505 2.282 . S
N521 C522 1.328 . S
N521 C526 1.318 . S
C522 N521 1.328 . S
C522 C523 1.457 . S
C522 H527 0.929 . S
C523 C522 1.457 . S
C523 C524 1.291 . S
C523 H536 0.931 . S
C524 C523 1.291 . S
C524 C525 1.373 . S
C524 H537 0.929 . S
C525 C524 1.373 . S
C525 C526 1.396 . S
C525 C532 1.403 . S
C526 C516 1.476 . S
C526 N521 1.318 . S
C526 C525 1.396 . S
H527 C522 0.929 . S
O528 Mn504 2.385 . S
O528 C506 1.234 . S
O529 Mn504 2.209 . S
O529 Mn505 2.215 . S
O529 C506 1.283 . S
O530 Mn504 2.094 . S
O530 C508 1.240 . S
O531 Mn505 2.117 . S
O531 C508 1.264 . S
C532 C525 1.403 . S
C532 C533 1.399 . S
C532 H538 0.929 . S
C533 C513 1.449 . S
C533 C532 1.399 . S
C533 H539 0.930 . S
H534 C514 0.931 . S
H535 C515 0.930 . S
H536 C523 0.931 . S
H537 C524 0.929 . S
H538 C532 0.929 . S
H539 C533 0.930 . S
Mn540 O545 2.095 . S
Mn540 O555 2.162 . S
Mn540 O556 2.297 . S
Mn540 O564 2.385 . S
Mn540 O565 2.209 . S
Mn540 O566 2.094 . S
Mn541 O546 2.121 . S
Mn541 N548 2.257 . S
Mn541 N557 2.282 . S
Mn541 O565 2.215 . S
Mn541 O567 2.117 . S
C542 O564 1.234 . S
C542 O565 1.283 . S
C543 O555 1.281 . S
C543 O556 1.236 . S
C544 O566 1.240 . S
C544 O567 1.264 . S
O545 Mn540 2.095 . S
O545 C554 1.250 . S
O546 Mn541 2.121 . S
O546 C554 1.258 . S
C547 N548 1.326 . S
C547 C551 1.460 . S
C547 H553 0.929 . S
N548 Mn541 2.257 . S
N548 C547 1.326 . S
N548 C552 1.362 . S
C549 C550 1.258 . S
C549 C552 1.431 . S
C549 C569 1.449 . S
C550 C549 1.258 . S
C550 C551 1.477 . S
C550 H570 0.931 . S
C551 C547 1.460 . S
C551 C550 1.477 . S
C551 H571 0.930 . S
C552 N548 1.362 . S
C552 C549 1.431 . S
C552 C562 1.476 . S
H553 C547 0.929 . S
C554 O545 1.250 . S
C554 O546 1.258 . S
O555 Mn540 2.162 . S
O555 C543 1.281 . S
O556 Mn540 2.297 . S
O556 C543 1.236 . S
N557 Mn541 2.282 . S
N557 C558 1.328 . S
N557 C562 1.318 . S
C558 N557 1.328 . S
C558 C559 1.457 . S
C558 H563 0.929 . S
C559 C558 1.457 . S
C559 C560 1.291 . S
C559 H572 0.931 . S
C560 C559 1.291 . S
C560 C561 1.373 . S
C560 H573 0.929 . S
C561 C560 1.373 . S
C561 C562 1.396 . S
C561 C568 1.403 . S
C562 C552 1.476 . S
C562 N557 1.318 . S
C562 C561 1.396 . S
H563 C558 0.929 . S
O564 Mn540 2.385 . S
O564 C542 1.234 . S
O565 Mn540 2.209 . S
O565 Mn541 2.215 . S
O565 C542 1.283 . S
O566 Mn540 2.094 . S
O566 C544 1.240 . S
O567 Mn541 2.117 . S
O567 C544 1.264 . S
C568 C561 1.403 . S
C568 C569 1.399 . S
C568 H574 0.929 . S
C569 C549 1.449 . S
C569 C568 1.399 . S
C569 H575 0.930 . S
H570 C550 0.931 . S
H571 C551 0.930 . S
H572 C559 0.931 . S
H573 C560 0.929 . S
H574 C568 0.929 . S
H575 C569 0.930 . S
H576 C588 0.930 . S
H577 C590 0.930 . S
H578 C591 0.930 1_545 S
H579 C595 0.959 1_645 S
H580 C595 0.959 . S
H581 C595 0.961 1_655 S
H582 C596 0.960 . S
H583 C596 0.961 . S
H584 C596 0.959 . S
H585 C599 0.929 . S
H586 C600 0.931 . S
H587 C602 0.930 . S
C588 H576 0.930 . S
C588 C589 1.399 . S
C588 C593 1.399 . S
C589 C588 1.399 . S
C589 C590 1.376 . S
C590 H577 0.930 . S
C590 C589 1.376 . S
C590 C591 1.388 . S
C591 H578 0.930 1_565 S
C591 C590 1.388 . S
C591 C592 1.390 . S
C592 C591 1.390 . S
C592 C593 1.394 . S
C592 C598 1.465 1_665 S
C593 C588 1.399 . S
C593 C592 1.394 . S
C593 C594 1.516 1_655 S
C594 C593 1.516 1_455 S
C594 C595 1.502 . S
C594 C596 1.561 . S
C594 C597 1.526 1_565 S
C595 H579 0.959 1_465 S
C595 H580 0.959 . S
C595 H581 0.961 1_455 S
C595 C594 1.502 . S
C596 H582 0.960 . S
C596 H583 0.961 . S
C596 H584 0.959 . S
C596 C594 1.561 . S
C597 C594 1.526 1_545 S
C597 C598 1.396 . S
C597 C602 1.390 . S
C598 C592 1.465 1_445 S
C598 C597 1.396 . S
C598 C599 1.399 . S
C599 H585 0.929 . S
C599 C598 1.399 . S
C599 C600 1.385 . S
C600 H586 0.931 . S
C600 C599 1.385 . S
C600 C601 1.389 . S
C601 C600 1.389 . S
C601 C602 1.387 . S
C602 H587 0.930 . S
C602 C597 1.390 . S
C602 C601 1.387 . S
H603 C615 0.930 . S
H604 C617 0.930 . S
H605 C618 0.930 . S
H606 C622 0.959 . S
H607 C622 0.959 . S
H608 C622 0.961 . S
H609 C623 0.960 . S
H610 C623 0.961 . S
H611 C623 0.959 . S
H612 C626 0.929 1_655 S
H613 C627 0.931 . S
H614 C629 0.930 . S
C615 H603 0.930 . S
C615 C616 1.399 . S
C615 C620 1.399 . S
C616 C615 1.399 . S
C616 C617 1.376 . S
C617 H604 0.930 . S
C617 C616 1.376 . S
C617 C618 1.388 . S
C618 H605 0.930 . S
C618 C617 1.388 . S
C618 C619 1.390 . S
C619 C618 1.390 . S
C619 C620 1.394 . S
C619 C625 1.465 1_655 S
C620 C615 1.399 . S
C620 C619 1.394 . S
C620 C621 1.516 1_655 S
C621 C620 1.516 1_455 S
C621 C622 1.502 . S
C621 C623 1.561 1_455 S
C621 C624 1.526 . S
C622 H606 0.959 . S
C622 H607 0.959 . S
C622 H608 0.961 . S
C622 C621 1.502 . S
C623 H609 0.960 . S
C623 H610 0.961 . S
C623 H611 0.959 . S
C623 C621 1.561 1_655 S
C624 C621 1.526 . S
C624 C625 1.396 . S
C624 C629 1.390 . S
C625 C619 1.465 1_455 S
C625 C624 1.396 . S
C625 C626 1.399 . S
C626 H612 0.929 1_455 S
C626 C625 1.399 . S
C626 C627 1.385 . S
C627 H613 0.931 . S
C627 C626 1.385 . S
C627 C628 1.389 . S
C628 C627 1.389 . S
C628 C629 1.387 . S
C629 H614 0.930 . S
C629 C624 1.390 . S
C629 C628 1.387 . S
H630 C642 0.930 . S
H631 C644 0.930 . S
H632 C645 0.930 . S
H633 C649 0.959 . S
H634 C649 0.959 . S
H635 C649 0.961 . S
H636 C650 0.960 . S
H637 C650 0.961 . S
H638 C650 0.959 . S
H639 C653 0.929 . S
H640 C654 0.931 . S
H641 C656 0.930 . S
C642 H630 0.930 . S
C642 C643 1.399 . S
C642 C647 1.399 . S
C643 C642 1.399 . S
C643 C644 1.376 . S
C644 H631 0.930 . S
C644 C643 1.376 . S
C644 C645 1.388 . S
C645 H632 0.930 . S
C645 C644 1.388 . S
C645 C646 1.390 . S
C646 C645 1.390 . S
C646 C647 1.394 . S
C646 C652 1.465 . S
C647 C642 1.399 . S
C647 C646 1.394 . S
C647 C648 1.516 . S
C648 C647 1.516 . S
C648 C649 1.502 . S
C648 C650 1.561 . S
C648 C651 1.526 . S
C649 H633 0.959 . S
C649 H634 0.959 . S
C649 H635 0.961 . S
C649 C648 1.502 . S
C650 H636 0.960 . S
C650 H637 0.961 . S
C650 H638 0.959 . S
C650 C648 1.561 . S
C651 C648 1.526 . S
C651 C652 1.396 . S
C651 C656 1.390 . S
C652 C646 1.465 . S
C652 C651 1.396 . S
C652 C653 1.399 . S
C653 H639 0.929 . S
C653 C652 1.399 . S
C653 C654 1.385 . S
C654 H640 0.931 . S
C654 C653 1.385 . S
C654 C655 1.389 . S
C655 C654 1.389 . S
C655 C656 1.387 . S
C656 H641 0.930 . S
C656 C651 1.390 . S
C656 C655 1.387 . S
H657 C669 0.930 . S
H658 C671 0.930 . S
H659 C672 0.930 . S
H660 C676 0.959 . S
H661 C676 0.959 . S
H662 C676 0.961 . S
H663 C677 0.960 1_545 S
H664 C677 0.961 . S
H665 C677 0.959 . S
H666 C680 0.929 . S
H667 C681 0.931 . S
H668 C683 0.930 . S
C669 H657 0.930 . S
C669 C670 1.399 . S
C669 C674 1.399 . S
C670 C669 1.399 . S
C670 C671 1.376 . S
C671 H658 0.930 . S
C671 C670 1.376 . S
C671 C672 1.388 . S
C672 H659 0.930 . S
C672 C671 1.388 . S
C672 C673 1.390 . S
C673 C672 1.390 . S
C673 C674 1.394 . S
C673 C679 1.465 1_545 S
C674 C669 1.399 . S
C674 C673 1.394 . S
C674 C675 1.516 . S
C675 C674 1.516 . S
C675 C676 1.502 . S
C675 C677 1.561 1_545 S
C675 C678 1.526 1_545 S
C676 H660 0.959 . S
C676 H661 0.959 . S
C676 H662 0.961 . S
C676 C675 1.502 . S
C677 H663 0.960 1_565 S
C677 H664 0.961 . S
C677 H665 0.959 . S
C677 C675 1.561 1_565 S
C678 C675 1.526 1_565 S
C678 C679 1.396 . S
C678 C683 1.390 . S
C679 C673 1.465 1_565 S
C679 C678 1.396 . S
C679 C680 1.399 . S
C680 H666 0.929 . S
C680 C679 1.399 . S
C680 C681 1.385 . S
C681 H667 0.931 . S
C681 C680 1.385 . S
C681 C682 1.389 . S
C682 C681 1.389 . S
C682 C683 1.387 . S
C683 H668 0.930 . S
C683 C678 1.390 . S
C683 C682 1.387 . S
H684 C696 0.930 . S
H685 C698 0.930 . S
H686 C699 0.930 . S
H687 C703 0.959 . S
H688 C703 0.959 . S
H689 C703 0.961 . S
H690 C704 0.960 . S
H691 C704 0.961 1_655 S
H692 C704 0.959 . S
H693 C707 0.929 . S
H694 C708 0.931 . S
H695 C710 0.930 . S
C696 H684 0.930 . S
C696 C697 1.399 . S
C696 C701 1.399 . S
C697 C696 1.399 . S
C697 C698 1.376 . S
C698 H685 0.930 . S
C698 C697 1.376 . S
C698 C699 1.388 . S
C699 H686 0.930 . S
C699 C698 1.388 . S
C699 C700 1.390 . S
C700 C699 1.390 . S
C700 C701 1.394 . S
C700 C706 1.465 1_455 S
C701 C696 1.399 . S
C701 C700 1.394 . S
C701 C702 1.516 1_455 S
C702 C701 1.516 1_655 S
C702 C703 1.502 . S
C702 C704 1.561 1_655 S
C702 C705 1.526 . S
C703 H687 0.959 . S
C703 H688 0.959 . S
C703 H689 0.961 . S
C703 C702 1.502 . S
C704 H690 0.960 . S
C704 H691 0.961 1_455 S
C704 H692 0.959 . S
C704 C702 1.561 1_455 S
C705 C702 1.526 . S
C705 C706 1.396 . S
C705 C710 1.390 . S
C706 C700 1.465 1_655 S
C706 C705 1.396 . S
C706 C707 1.399 . S
C707 H693 0.929 . S
C707 C706 1.399 . S
C707 C708 1.385 . S
C708 H694 0.931 . S
C708 C707 1.385 . S
C708 C709 1.389 . S
C709 C708 1.389 . S
C709 C710 1.387 . S
C710 H695 0.930 . S
C710 C705 1.390 . S
C710 C709 1.387 . S
H711 C723 0.930 . S
H712 C725 0.930 . S
H713 C726 0.930 . S
H714 C730 0.959 . S
H715 C730 0.959 . S
H716 C730 0.961 . S
H717 C731 0.960 . S
H718 C731 0.961 . S
H719 C731 0.959 . S
H720 C734 0.929 . S
H721 C735 0.931 . S
H722 C737 0.930 . S
C723 H711 0.930 . S
C723 C724 1.399 . S
C723 C728 1.399 . S
C724 C723 1.399 . S
C724 C725 1.376 . S
C725 H712 0.930 . S
C725 C724 1.376 . S
C725 C726 1.388 . S
C726 H713 0.930 . S
C726 C725 1.388 . S
C726 C727 1.390 . S
C727 C726 1.390 . S
C727 C728 1.394 . S
C727 C733 1.465 . S
C728 C723 1.399 . S
C728 C727 1.394 . S
C728 C729 1.516 . S
C729 C728 1.516 . S
C729 C730 1.502 . S
C729 C731 1.561 . S
C729 C732 1.526 . S
C730 H714 0.959 . S
C730 H715 0.959 . S
C730 H716 0.961 . S
C730 C729 1.502 . S
C731 H717 0.960 . S
C731 H718 0.961 . S
C731 H719 0.959 . S
C731 C729 1.561 . S
C732 C729 1.526 . S
C732 C733 1.396 . S
C732 C737 1.390 . S
C733 C727 1.465 . S
C733 C732 1.396 . S
C733 C734 1.399 . S
C734 H720 0.929 . S
C734 C733 1.399 . S
C734 C735 1.385 . S
C735 H721 0.931 . S
C735 C734 1.385 . S
C735 C736 1.389 . S
C736 C735 1.389 . S
C736 C737 1.387 . S
C737 H722 0.930 . S
C737 C732 1.390 . S
C737 C736 1.387 . S
H738 C750 0.930 . S
H739 C752 0.930 . S
H740 C753 0.930 . S
H741 C757 0.959 . S
H742 C757 0.959 . S
H743 C757 0.961 . S
H744 C758 0.960 . S
H745 C758 0.961 . S
H746 C758 0.959 . S
H747 C761 0.929 1_545 S
H748 C762 0.931 . S
H749 C764 0.930 . S
C750 H738 0.930 . S
C750 C751 1.399 . S
C750 C755 1.399 . S
C751 C750 1.399 . S
C751 C752 1.376 . S
C752 H739 0.930 . S
C752 C751 1.376 . S
C752 C753 1.388 . S
C753 H740 0.930 . S
C753 C752 1.388 . S
C753 C754 1.390 . S
C754 C753 1.390 . S
C754 C755 1.394 . S
C754 C760 1.465 1_545 S
C755 C750 1.399 . S
C755 C754 1.394 . S
C755 C756 1.516 1_545 S
C756 C755 1.516 1_565 S
C756 C757 1.502 . S
C756 C758 1.561 1_565 S
C756 C759 1.526 . S
C757 H741 0.959 . S
C757 H742 0.959 . S
C757 H743 0.961 . S
C757 C756 1.502 . S
C758 H744 0.960 . S
C758 H745 0.961 . S
C758 H746 0.959 . S
C758 C756 1.561 1_545 S
C759 C756 1.526 . S
C759 C760 1.396 . S
C759 C764 1.390 . S
C760 C754 1.465 1_565 S
C760 C759 1.396 . S
C760 C761 1.399 . S
C761 H747 0.929 1_565 S
C761 C760 1.399 . S
C761 C762 1.385 . S
C762 H748 0.931 . S
C762 C761 1.385 . S
C762 C763 1.389 . S
C763 C762 1.389 . S
C763 C764 1.387 . S
C764 H749 0.930 . S
C764 C759 1.390 . S
C764 C763 1.387 . S
H765 C777 0.930 . S
H766 C779 0.930 . S
H767 C780 0.930 . S
H768 C784 0.959 . S
H769 C784 0.959 . S
H770 C784 0.961 . S
H771 C785 0.963 1_455 S
H772 C785 0.957 1_565 S
H773 C785 0.961 . S
H774 C788 0.929 . S
H775 C789 0.931 . S
H776 C791 0.930 . S
C777 H765 0.930 . S
C777 C778 1.399 . S
C777 C782 1.399 . S
C778 C777 1.399 . S
C778 C779 1.376 . S
C779 H766 0.930 . S
C779 C778 1.376 . S
C779 C780 1.388 1_455 S
C780 H767 0.930 . S
C780 C779 1.388 1_655 S
C780 C781 1.390 . S
C781 C780 1.390 . S
C781 C782 1.394 1_655 S
C781 C787 1.465 1_545 S
C782 C777 1.399 . S
C782 C781 1.394 1_455 S
C782 C783 1.516 1_545 S
C783 C782 1.516 1_565 S
C783 C784 1.502 . S
C783 C785 1.560 1_465 S
C783 C786 1.526 1_455 S
C784 H768 0.959 . S
C784 H769 0.959 . S
C784 H770 0.961 . S
C784 C783 1.502 . S
C785 H771 0.963 1_655 S
C785 H772 0.957 1_545 S
C785 H773 0.961 . S
C785 C783 1.560 1_645 S
C786 C783 1.526 1_655 S
C786 C787 1.396 . S
C786 C791 1.390 . S
C787 C781 1.465 1_565 S
C787 C786 1.396 . S
C787 C788 1.399 . S
C788 H774 0.929 . S
C788 C787 1.399 . S
C788 C789 1.385 . S
C789 H775 0.931 . S
C789 C788 1.385 . S
C789 C790 1.389 . S
C790 C789 1.389 . S
C790 C791 1.387 . S
C791 H776 0.930 . S
C791 C786 1.390 . S
C791 C790 1.387 . S
H792 C804 0.930 . S
H793 C806 0.930 . S
H794 C807 0.930 . S
H795 C811 0.959 . S
H796 C811 0.959 . S
H797 C811 0.961 . S
H798 C812 0.960 . S
H799 C812 0.961 1_545 S
H800 C812 0.959 . S
H801 C815 0.929 1_565 S
H802 C816 0.931 . S
H803 C818 0.930 . S
C804 H792 0.930 . S
C804 C805 1.399 . S
C804 C809 1.399 . S
C805 C804 1.399 . S
C805 C806 1.376 . S
C806 H793 0.930 . S
C806 C805 1.376 . S
C806 C807 1.388 . S
C807 H794 0.930 . S
C807 C806 1.388 . S
C807 C808 1.390 . S
C808 C807 1.390 . S
C808 C809 1.394 . S
C808 C814 1.467 . S
C809 C804 1.399 . S
C809 C808 1.394 . S
C809 C810 1.516 1_565 S
C810 C809 1.516 1_545 S
C810 C811 1.502 . S
C810 C812 1.561 1_545 S
C810 C813 1.526 . S
C811 H795 0.959 . S
C811 H796 0.959 . S
C811 H797 0.961 . S
C811 C810 1.502 . S
C812 H798 0.960 . S
C812 H799 0.961 1_565 S
C812 H800 0.959 . S
C812 C810 1.561 1_565 S
C813 C810 1.526 . S
C813 C814 1.394 1_545 S
C813 C818 1.390 . S
C814 C808 1.467 . S
C814 C813 1.394 1_565 S
C814 C815 1.399 1_565 S
C815 H801 0.929 1_545 S
C815 C814 1.399 1_545 S
C815 C816 1.385 . S
C816 H802 0.931 . S
C816 C815 1.385 . S
C816 C817 1.389 . S
C817 C816 1.389 . S
C817 C818 1.387 . S
C818 H803 0.930 . S
C818 C813 1.390 . S
C818 C817 1.387 . S
H819 C831 0.930 . S
H820 C833 0.930 . S
H821 C834 0.930 1_455 S
H822 C838 0.959 . S
H823 C838 0.959 . S
H824 C838 0.961 . S
H825 C839 0.960 . S
H826 C839 0.961 1_545 S
H827 C839 0.959 . S
H828 C842 0.929 . S
H829 C843 0.931 . S
H830 C845 0.930 . S
C831 H819 0.930 . S
C831 C832 1.399 . S
C831 C836 1.399 . S
C832 C831 1.399 . S
C832 C833 1.376 . S
C833 H820 0.930 . S
C833 C832 1.376 . S
C833 C834 1.388 . S
C834 H821 0.930 1_655 S
C834 C833 1.388 . S
C834 C835 1.390 . S
C835 C834 1.390 . S
C835 C836 1.394 . S
C835 C841 1.465 1_665 S
C836 C831 1.399 . S
C836 C835 1.394 . S
C836 C837 1.516 1_565 S
C837 C836 1.516 1_545 S
C837 C838 1.502 . S
C837 C839 1.561 1_645 S
C837 C840 1.526 1_655 S
C838 H822 0.959 . S
C838 H823 0.959 . S
C838 H824 0.961 . S
C838 C837 1.502 . S
C839 H825 0.960 . S
C839 H826 0.961 1_565 S
C839 H827 0.959 . S
C839 C837 1.561 1_465 S
C840 C837 1.526 1_455 S
C840 C841 1.396 . S
C840 C845 1.390 . S
C841 C835 1.465 1_445 S
C841 C840 1.396 . S
C841 C842 1.399 . S
C842 H828 0.929 . S
C842 C841 1.399 . S
C842 C843 1.385 . S
C843 H829 0.931 . S
C843 C842 1.385 . S
C843 C844 1.389 . S
C844 C843 1.389 . S
C844 C845 1.387 . S
C845 H830 0.930 . S
C845 C840 1.390 . S
C845 C844 1.387 . S
H846 C858 0.930 . S
H847 C860 0.930 . S
H848 C861 0.930 . S
H849 C865 0.959 . S
H850 C865 0.959 . S
H851 C865 0.961 . S
H852 C866 0.960 1_455 S
H853 C866 0.961 . S
H854 C866 0.959 . S
H855 C869 0.929 . S
H856 C870 0.931 . S
H857 C872 0.930 . S
C858 H846 0.930 . S
C858 C859 1.399 . S
C858 C863 1.399 . S
C859 C858 1.399 . S
C859 C860 1.376 . S
C860 H847 0.930 . S
C860 C859 1.376 . S
C860 C861 1.388 . S
C861 H848 0.930 . S
C861 C860 1.388 . S
C861 C862 1.390 . S
C862 C861 1.390 . S
C862 C863 1.394 . S
C862 C868 1.465 1_455 S
C863 C858 1.399 . S
C863 C862 1.394 . S
C863 C864 1.516 . S
C864 C863 1.516 . S
C864 C865 1.502 . S
C864 C866 1.561 1_455 S
C864 C867 1.526 1_455 S
C865 H849 0.959 . S
C865 H850 0.959 . S
C865 H851 0.961 . S
C865 C864 1.502 . S
C866 H852 0.960 1_655 S
C866 H853 0.961 . S
C866 H854 0.959 . S
C866 C864 1.561 1_655 S
C867 C864 1.526 1_655 S
C867 C868 1.396 . S
C867 C872 1.390 . S
C868 C862 1.465 1_655 S
C868 C867 1.396 . S
C868 C869 1.399 . S
C869 H855 0.929 . S
C869 C868 1.399 . S
C869 C870 1.385 . S
C870 H856 0.931 . S
C870 C869 1.385 . S
C870 C871 1.389 . S
C871 C870 1.389 . S
C871 C872 1.387 . S
C872 H857 0.930 . S
C872 C867 1.390 . S
C872 C871 1.387 . S
H873 C885 0.930 . S
H874 C887 0.930 . S
H875 C888 0.930 . S
H876 C892 0.959 . S
H877 C892 0.959 . S
H878 C892 0.961 . S
H879 C893 0.960 . S
H880 C893 0.961 . S
H881 C893 0.959 . S
H882 C896 0.929 . S
H883 C897 0.931 . S
H884 C899 0.930 . S
C885 H873 0.930 . S
C885 C886 1.399 . S
C885 C890 1.399 . S
C886 C885 1.399 . S
C886 C887 1.376 . S
C887 H874 0.930 . S
C887 C886 1.376 . S
C887 C888 1.388 . S
C888 H875 0.930 . S
C888 C887 1.388 . S
C888 C889 1.390 . S
C889 C888 1.390 . S
C889 C890 1.394 . S
C889 C895 1.465 . S
C890 C885 1.399 . S
C890 C889 1.394 . S
C890 C891 1.516 . S
C891 C890 1.516 . S
C891 C892 1.502 . S
C891 C893 1.561 . S
C891 C894 1.526 . S
C892 H876 0.959 . S
C892 H877 0.959 . S
C892 H878 0.961 . S
C892 C891 1.502 . S
C893 H879 0.960 . S
C893 H880 0.961 . S
C893 H881 0.959 . S
C893 C891 1.561 . S
C894 C891 1.526 . S
C894 C895 1.396 . S
C894 C899 1.390 . S
C895 C889 1.465 . S
C895 C894 1.396 . S
C895 C896 1.399 . S
C896 H882 0.929 . S
C896 C895 1.399 . S
C896 C897 1.385 . S
C897 H883 0.931 . S
C897 C896 1.385 . S
C897 C898 1.389 . S
C898 C897 1.389 . S
C898 C899 1.387 . S
C899 H884 0.930 . S
C899 C894 1.390 . S
C899 C898 1.387 . S
H900 C912 0.930 . S
H901 C914 0.930 . S
H902 C915 0.930 . S
H903 C919 0.959 . S
H904 C919 0.959 . S
H905 C919 0.961 . S
H906 C920 0.960 . S
H907 C920 0.961 . S
H908 C920 0.959 . S
H909 C923 0.929 . S
H910 C924 0.931 . S
H911 C926 0.930 . S
C912 H900 0.930 . S
C912 C913 1.399 . S
C912 C917 1.399 . S
C913 C912 1.399 . S
C913 C914 1.376 . S
C914 H901 0.930 . S
C914 C913 1.376 . S
C914 C915 1.388 . S
C915 H902 0.930 . S
C915 C914 1.388 . S
C915 C916 1.390 . S
C916 C915 1.390 . S
C916 C917 1.394 . S
C916 C922 1.465 . S
C917 C912 1.399 . S
C917 C916 1.394 . S
C917 C918 1.516 . S
C918 C917 1.516 . S
C918 C919 1.502 . S
C918 C920 1.561 . S
C918 C921 1.526 . S
C919 H903 0.959 . S
C919 H904 0.959 . S
C919 H905 0.961 . S
C919 C918 1.502 . S
C920 H906 0.960 . S
C920 H907 0.961 . S
C920 H908 0.959 . S
C920 C918 1.561 . S
C921 C918 1.526 . S
C921 C922 1.396 . S
C921 C926 1.390 . S
C922 C916 1.465 . S
C922 C921 1.396 . S
C922 C923 1.399 . S
C923 H909 0.929 . S
C923 C922 1.399 . S
C923 C924 1.385 . S
C924 H910 0.931 . S
C924 C923 1.385 . S
C924 C925 1.389 . S
C925 C924 1.389 . S
C925 C926 1.387 . S
C926 H911 0.930 . S
C926 C921 1.390 . S
C926 C925 1.387 . S
H927 C939 0.930 . S
H928 C941 0.930 . S
H929 C942 0.930 . S
H930 C946 0.959 . S
H931 C946 0.959 . S
H932 C946 0.961 . S
H933 C947 0.960 1_565 S
H934 C947 0.961 . S
H935 C947 0.959 . S
H936 C950 0.929 . S
H937 C951 0.931 . S
H938 C953 0.930 . S
C939 H927 0.930 . S
C939 C940 1.399 . S
C939 C944 1.399 . S
C940 C939 1.399 . S
C940 C941 1.376 . S
C941 H928 0.930 . S
C941 C940 1.376 . S
C941 C942 1.388 . S
C942 H929 0.930 . S
C942 C941 1.388 . S
C942 C943 1.390 . S
C943 C942 1.390 . S
C943 C944 1.394 . S
C943 C949 1.465 1_565 S
C944 C939 1.399 . S
C944 C943 1.394 . S
C944 C945 1.516 . S
C945 C944 1.516 . S
C945 C946 1.502 . S
C945 C947 1.561 1_565 S
C945 C948 1.526 1_565 S
C946 H930 0.959 . S
C946 H931 0.959 . S
C946 H932 0.961 . S
C946 C945 1.502 . S
C947 H933 0.960 1_545 S
C947 H934 0.961 . S
C947 H935 0.959 . S
C947 C945 1.561 1_545 S
C948 C945 1.526 1_545 S
C948 C949 1.396 . S
C948 C953 1.390 . S
C949 C943 1.465 1_545 S
C949 C948 1.396 . S
C949 C950 1.399 . S
C950 H936 0.929 . S
C950 C949 1.399 . S
C950 C951 1.385 . S
C951 H937 0.931 . S
C951 C950 1.385 . S
C951 C952 1.389 . S
C952 C951 1.389 . S
C952 C953 1.387 . S
C953 H938 0.930 . S
C953 C948 1.390 . S
C953 C952 1.387 . S
H954 C966 0.930 . S
H955 C968 0.930 . S
H956 C969 0.930 . S
H957 C973 0.959 . S
H958 C973 0.959 . S
H959 C973 0.961 . S
H960 C974 0.960 1_655 S
H961 C974 0.961 . S
H962 C974 0.968 . S
H963 C977 0.929 . S
H964 C978 0.931 . S
H965 C980 0.930 . S
C966 H954 0.930 . S
C966 C967 1.399 . S
C966 C971 1.399 . S
C967 C966 1.399 . S
C967 C968 1.376 . S
C968 H955 0.930 . S
C968 C967 1.376 . S
C968 C969 1.388 1_565 S
C969 H956 0.930 . S
C969 C968 1.388 1_545 S
C969 C970 1.390 . S
C970 C969 1.390 . S
C970 C971 1.394 1_545 S
C970 C976 1.465 1_655 S
C971 C966 1.399 . S
C971 C970 1.394 1_565 S
C971 C972 1.516 1_655 S
C972 C971 1.516 1_455 S
C972 C973 1.502 . S
C972 C974 1.561 . S
C972 C975 1.526 1_565 S
C973 H957 0.959 . S
C973 H958 0.959 . S
C973 H959 0.961 . S
C973 C972 1.502 . S
C974 H960 0.960 1_455 S
C974 H961 0.961 . S
C974 H962 0.968 . S
C974 C972 1.561 . S
C975 C972 1.526 1_545 S
C975 C976 1.396 . S
C975 C980 1.390 . S
C976 C970 1.465 1_455 S
C976 C975 1.396 . S
C976 C977 1.399 . S
C977 H963 0.929 . S
C977 C976 1.399 . S
C977 C978 1.385 . S
C978 H964 0.931 . S
C978 C977 1.385 . S
C978 C979 1.389 . S
C979 C978 1.389 . S
C979 C980 1.387 . S
C980 H965 0.930 . S
C980 C975 1.390 . S
C980 C979 1.387 . S
H981 C993 0.930 . S
H982 C995 0.930 . S
H983 C996 0.930 . S
H984 C1000 0.959 . S
H985 C1000 0.959 . S
H986 C1000 0.961 . S
H987 C1001 0.960 . S
H988 C1001 0.961 . S
H989 C1001 0.959 1_455 S
H990 C1004 0.929 . S
H991 C1005 0.931 . S
H992 C1007 0.930 . S
C993 H981 0.930 . S
C993 C994 1.399 . S
C993 C998 1.399 . S
C994 C993 1.399 . S
C994 C995 1.376 . S
C995 H982 0.930 . S
C995 C994 1.376 . S
C995 C996 1.388 . S
C996 H983 0.930 . S
C996 C995 1.388 . S
C996 C997 1.390 . S
C997 C996 1.390 . S
C997 C998 1.394 . S
C997 C1003 1.465 . S
C998 C993 1.399 . S
C998 C997 1.394 . S
C998 C999 1.516 1_455 S
C999 C998 1.516 1_655 S
C999 C1000 1.502 . S
C999 C1001 1.561 . S
C999 C1002 1.526 . S
C1000 H984 0.959 . S
C1000 H985 0.959 . S
C1000 H986 0.961 . S
C1000 C999 1.502 . S
C1001 H987 0.960 . S
C1001 H988 0.961 . S
C1001 H989 0.959 1_655 S
C1001 C999 1.561 . S
C1002 C999 1.526 . S
C1002 C1003 1.396 1_655 S
C1002 C1007 1.390 . S
C1003 C997 1.465 . S
C1003 C1002 1.396 1_455 S
C1003 C1004 1.399 . S
C1004 H990 0.929 . S
C1004 C1003 1.399 . S
C1004 C1005 1.385 1_455 S
C1005 H991 0.931 . S
C1005 C1004 1.385 1_655 S
C1005 C1006 1.389 . S
C1006 C1005 1.389 . S
C1006 C1007 1.387 . S
C1007 H992 0.930 . S
C1007 C1002 1.390 . S
C1007 C1006 1.387 . S
H1008 C1020 0.930 . S
H1009 C1022 0.930 . S
H1010 C1023 0.930 . S
H1011 C1027 0.959 . S
H1012 C1027 0.959 . S
H1013 C1027 0.961 . S
H1014 C1028 0.960 . S
H1015 C1028 0.961 . S
H1016 C1028 0.959 . S
H1017 C1031 0.929 . S
H1018 C1032 0.931 . S
H1019 C1034 0.930 . S
C1020 H1008 0.930 . S
C1020 C1021 1.399 . S
C1020 C1025 1.399 . S
C1021 C1020 1.399 . S
C1021 C1022 1.376 . S
C1022 H1009 0.930 . S
C1022 C1021 1.376 . S
C1022 C1023 1.388 . S
C1023 H1010 0.930 . S
C1023 C1022 1.388 . S
C1023 C1024 1.390 . S
C1024 C1023 1.390 . S
C1024 C1025 1.394 . S
C1024 C1030 1.465 . S
C1025 C1020 1.399 . S
C1025 C1024 1.394 . S
C1025 C1026 1.516 . S
C1026 C1025 1.516 . S
C1026 C1027 1.502 . S
C1026 C1028 1.561 . S
C1026 C1029 1.526 . S
C1027 H1011 0.959 . S
C1027 H1012 0.959 . S
C1027 H1013 0.961 . S
C1027 C1026 1.502 . S
C1028 H1014 0.960 . S
C1028 H1015 0.961 . S
C1028 H1016 0.959 . S
C1028 C1026 1.561 . S
C1029 C1026 1.526 . S
C1029 C1030 1.396 . S
C1029 C1034 1.390 . S
C1030 C1024 1.465 . S
C1030 C1029 1.396 . S
C1030 C1031 1.399 . S
C1031 H1017 0.929 . S
C1031 C1030 1.399 . S
C1031 C1032 1.385 . S
C1032 H1018 0.931 . S
C1032 C1031 1.385 . S
C1032 C1033 1.389 . S
C1033 C1032 1.389 . S
C1033 C1034 1.387 . S
C1034 H1019 0.930 . S
C1034 C1029 1.390 . S
C1034 C1033 1.387 . S
H1035 C1047 0.930 . S
H1036 C1049 0.930 . S
H1037 C1050 0.930 . S
H1038 C1054 0.959 . S
H1039 C1054 0.959 . S
H1040 C1054 0.961 . S
H1041 C1055 0.960 . S
H1042 C1055 0.961 . S
H1043 C1055 0.959 . S
H1044 C1058 0.929 . S
H1045 C1059 0.931 . S
H1046 C1061 0.930 . S
C1047 H1035 0.930 . S
C1047 C1048 1.399 . S
C1047 C1052 1.399 . S
C1048 C1047 1.399 . S
C1048 C1049 1.376 . S
C1049 H1036 0.930 . S
C1049 C1048 1.376 . S
C1049 C1050 1.388 . S
C1050 H1037 0.930 . S
C1050 C1049 1.388 . S
C1050 C1051 1.390 . S
C1051 C1050 1.390 . S
C1051 C1052 1.394 . S
C1051 C1057 1.465 . S
C1052 C1047 1.399 . S
C1052 C1051 1.394 . S
C1052 C1053 1.516 . S
C1053 C1052 1.516 . S
C1053 C1054 1.502 . S
C1053 C1055 1.561 . S
C1053 C1056 1.526 . S
C1054 H1038 0.959 . S
C1054 H1039 0.959 . S
C1054 H1040 0.961 . S
C1054 C1053 1.502 . S
C1055 H1041 0.960 . S
C1055 H1042 0.961 . S
C1055 H1043 0.959 . S
C1055 C1053 1.561 . S
C1056 C1053 1.526 . S
C1056 C1057 1.396 . S
C1056 C1061 1.390 . S
C1057 C1051 1.465 . S
C1057 C1056 1.396 . S
C1057 C1058 1.399 . S
C1058 H1044 0.929 . S
C1058 C1057 1.399 . S
C1058 C1059 1.385 . S
C1059 H1045 0.931 . S
C1059 C1058 1.385 . S
C1059 C1060 1.389 . S
C1060 C1059 1.389 . S
C1060 C1061 1.387 . S
C1061 H1046 0.930 . S
C1061 C1056 1.390 . S
C1061 C1060 1.387 . S
H1062 C1074 0.930 . S
H1063 C1076 0.930 . S
H1064 C1077 0.930 . S
H1065 C1081 0.959 . S
H1066 C1081 0.959 . S
H1067 C1081 0.961 . S
H1068 C1082 0.960 . S
H1069 C1082 0.961 . S
H1070 C1082 0.959 . S
H1071 C1085 0.929 . S
H1072 C1086 0.931 . S
H1073 C1088 0.930 . S
C1074 H1062 0.930 . S
C1074 C1075 1.399 . S
C1074 C1079 1.399 . S
C1075 C1074 1.399 . S
C1075 C1076 1.376 . S
C1076 H1063 0.930 . S
C1076 C1075 1.376 . S
C1076 C1077 1.388 . S
C1077 H1064 0.930 . S
C1077 C1076 1.388 . S
C1077 C1078 1.390 . S
C1078 C1077 1.390 . S
C1078 C1079 1.394 . S
C1078 C1084 1.465 . S
C1079 C1074 1.399 . S
C1079 C1078 1.394 . S
C1079 C1080 1.516 . S
C1080 C1079 1.516 . S
C1080 C1081 1.502 . S
C1080 C1082 1.561 . S
C1080 C1083 1.526 . S
C1081 H1065 0.959 . S
C1081 H1066 0.959 . S
C1081 H1067 0.961 . S
C1081 C1080 1.502 . S
C1082 H1068 0.960 . S
C1082 H1069 0.961 . S
C1082 H1070 0.959 . S
C1082 C1080 1.561 . S
C1083 C1080 1.526 . S
C1083 C1084 1.396 . S
C1083 C1088 1.390 . S
C1084 C1078 1.465 . S
C1084 C1083 1.396 . S
C1084 C1085 1.399 . S
C1085 H1071 0.929 . S
C1085 C1084 1.399 . S
C1085 C1086 1.385 . S
C1086 H1072 0.931 . S
C1086 C1085 1.385 . S
C1086 C1087 1.389 . S
C1087 C1086 1.389 . S
C1087 C1088 1.387 . S
C1088 H1073 0.930 . S
C1088 C1083 1.390 . S
C1088 C1087 1.387 . S
H1089 C1101 0.930 . S
H1090 C1103 0.930 . S
H1091 C1104 0.930 . S
H1092 C1108 0.959 . S
H1093 C1108 0.959 . S
H1094 C1108 0.961 . S
H1095 C1109 0.960 . S
H1096 C1109 0.961 . S
H1097 C1109 0.959 . S
H1098 C1112 0.929 . S
H1099 C1113 0.931 . S
H1100 C1115 0.930 . S
C1101 H1089 0.930 . S
C1101 C1102 1.399 . S
C1101 C1106 1.399 . S
C1102 C1101 1.399 . S
C1102 C1103 1.376 . S
C1103 H1090 0.930 . S
C1103 C1102 1.376 . S
C1103 C1104 1.388 . S
C1104 H1091 0.930 . S
C1104 C1103 1.388 . S
C1104 C1105 1.390 . S
C1105 C1104 1.390 . S
C1105 C1106 1.394 . S
C1105 C1111 1.465 . S
C1106 C1101 1.399 . S
C1106 C1105 1.394 . S
C1106 C1107 1.516 . S
C1107 C1106 1.516 . S
C1107 C1108 1.502 . S
C1107 C1109 1.561 . S
C1107 C1110 1.526 . S
C1108 H1092 0.959 . S
C1108 H1093 0.959 . S
C1108 H1094 0.961 . S
C1108 C1107 1.502 . S
C1109 H1095 0.960 . S
C1109 H1096 0.961 . S
C1109 H1097 0.959 . S
C1109 C1107 1.561 . S
C1110 C1107 1.526 . S
C1110 C1111 1.396 . S
C1110 C1115 1.390 . S
C1111 C1105 1.465 . S
C1111 C1110 1.396 . S
C1111 C1112 1.399 . S
C1112 H1098 0.929 . S
C1112 C1111 1.399 . S
C1112 C1113 1.385 . S
C1113 H1099 0.931 . S
C1113 C1112 1.385 . S
C1113 C1114 1.389 . S
C1114 C1113 1.389 . S
C1114 C1115 1.387 . S
C1115 H1100 0.930 . S
C1115 C1110 1.390 . S
C1115 C1114 1.387 . S
H1116 C1128 0.930 . S
H1117 C1130 0.930 . S
H1118 C1131 0.930 . S
H1119 C1135 0.959 . S
H1120 C1135 0.959 . S
H1121 C1135 0.961 . S
H1122 C1136 0.960 . S
H1123 C1136 0.961 . S
H1124 C1136 0.959 . S
H1125 C1139 0.929 . S
H1126 C1140 0.931 . S
H1127 C1142 0.930 . S
C1128 H1116 0.930 . S
C1128 C1129 1.399 . S
C1128 C1133 1.399 . S
C1129 C1128 1.399 . S
C1129 C1130 1.376 . S
C1130 H1117 0.930 . S
C1130 C1129 1.376 . S
C1130 C1131 1.388 . S
C1131 H1118 0.930 . S
C1131 C1130 1.388 . S
C1131 C1132 1.390 . S
C1132 C1131 1.390 . S
C1132 C1133 1.394 . S
C1132 C1138 1.465 . S
C1133 C1128 1.399 . S
C1133 C1132 1.394 . S
C1133 C1134 1.516 . S
C1134 C1133 1.516 . S
C1134 C1135 1.502 . S
C1134 C1136 1.561 . S
C1134 C1137 1.526 . S
C1135 H1119 0.959 . S
C1135 H1120 0.959 . S
C1135 H1121 0.961 . S
C1135 C1134 1.502 . S
C1136 H1122 0.960 . S
C1136 H1123 0.961 . S
C1136 H1124 0.959 . S
C1136 C1134 1.561 . S
C1137 C1134 1.526 . S
C1137 C1138 1.396 . S
C1137 C1142 1.390 . S
C1138 C1132 1.465 . S
C1138 C1137 1.396 . S
C1138 C1139 1.399 . S
C1139 H1125 0.929 . S
C1139 C1138 1.399 . S
C1139 C1140 1.385 . S
C1140 H1126 0.931 . S
C1140 C1139 1.385 . S
C1140 C1141 1.389 . S
C1141 C1140 1.389 . S
C1141 C1142 1.387 . S
C1142 H1127 0.930 . S
C1142 C1137 1.390 . S
C1142 C1141 1.387 . S
H1143 C1155 0.930 . S
H1144 C1157 0.930 . S
H1145 C1158 0.930 . S
H1146 C1162 0.959 . S
H1147 C1162 0.959 . S
H1148 C1162 0.961 . S
H1149 C1163 0.960 . S
H1150 C1163 0.961 . S
H1151 C1163 0.959 . S
H1152 C1166 0.929 . S
H1153 C1167 0.931 . S
H1154 C1169 0.930 . S
C1155 H1143 0.930 . S
C1155 C1156 1.399 . S
C1155 C1160 1.399 . S
C1156 C1155 1.399 . S
C1156 C1157 1.376 . S
C1157 H1144 0.930 . S
C1157 C1156 1.376 . S
C1157 C1158 1.388 . S
C1158 H1145 0.930 . S
C1158 C1157 1.388 . S
C1158 C1159 1.390 . S
C1159 C1158 1.390 . S
C1159 C1160 1.394 . S
C1159 C1165 1.465 . S
C1160 C1155 1.399 . S
C1160 C1159 1.394 . S
C1160 C1161 1.516 . S
C1161 C1160 1.516 . S
C1161 C1162 1.502 . S
C1161 C1163 1.561 . S
C1161 C1164 1.526 . S
C1162 H1146 0.959 . S
C1162 H1147 0.959 . S
C1162 H1148 0.961 . S
C1162 C1161 1.502 . S
C1163 H1149 0.960 . S
C1163 H1150 0.961 . S
C1163 H1151 0.959 . S
C1163 C1161 1.561 . S
C1164 C1161 1.526 . S
C1164 C1165 1.396 . S
C1164 C1169 1.390 . S
C1165 C1159 1.465 . S
C1165 C1164 1.396 . S
C1165 C1166 1.399 . S
C1166 H1152 0.929 . S
C1166 C1165 1.399 . S
C1166 C1167 1.385 . S
C1167 H1153 0.931 . S
C1167 C1166 1.385 . S
C1167 C1168 1.389 . S
C1168 C1167 1.389 . S
C1168 C1169 1.387 . S
C1169 H1154 0.930 . S
C1169 C1164 1.390 . S
C1169 C1168 1.387 . S
H1170 C1182 0.930 . S
H1171 C1184 0.930 . S
H1172 C1185 0.930 . S
H1173 C1189 0.959 . S
H1174 C1189 0.959 . S
H1175 C1189 0.961 . S
H1176 C1190 0.960 . S
H1177 C1190 0.961 . S
H1178 C1190 0.959 . S
H1179 C1193 0.929 . S
H1180 C1194 0.931 . S
H1181 C1196 0.930 . S
C1182 H1170 0.930 . S
C1182 C1183 1.399 . S
C1182 C1187 1.399 . S
C1183 C1182 1.399 . S
C1183 C1184 1.376 . S
C1184 H1171 0.930 . S
C1184 C1183 1.376 . S
C1184 C1185 1.388 . S
C1185 H1172 0.930 . S
C1185 C1184 1.388 . S
C1185 C1186 1.390 . S
C1186 C1185 1.390 . S
C1186 C1187 1.394 . S
C1186 C1192 1.465 . S
C1187 C1182 1.399 . S
C1187 C1186 1.394 . S
C1187 C1188 1.516 . S
C1188 C1187 1.516 . S
C1188 C1189 1.502 . S
C1188 C1190 1.561 . S
C1188 C1191 1.526 . S
C1189 H1173 0.959 . S
C1189 H1174 0.959 . S
C1189 H1175 0.961 . S
C1189 C1188 1.502 . S
C1190 H1176 0.960 . S
C1190 H1177 0.961 . S
C1190 H1178 0.959 . S
C1190 C1188 1.561 . S
C1191 C1188 1.526 . S
C1191 C1192 1.396 . S
C1191 C1196 1.390 . S
C1192 C1186 1.465 . S
C1192 C1191 1.396 . S
C1192 C1193 1.399 . S
C1193 H1179 0.929 . S
C1193 C1192 1.399 . S
C1193 C1194 1.385 . S
C1194 H1180 0.931 . S
C1194 C1193 1.385 . S
C1194 C1195 1.389 . S
C1195 C1194 1.389 . S
C1195 C1196 1.387 . S
C1196 H1181 0.930 . S
C1196 C1191 1.390 . S
C1196 C1195 1.387 . S
H1197 C1209 0.930 . S
H1198 C1211 0.930 . S
H1199 C1212 0.930 . S
H1200 C1216 0.959 . S
H1201 C1216 0.959 . S
H1202 C1216 0.961 . S
H1203 C1217 0.960 . S
H1204 C1217 0.961 . S
H1205 C1217 0.959 . S
H1206 C1220 0.929 . S
H1207 C1221 0.931 . S
H1208 C1223 0.930 . S
C1209 H1197 0.930 . S
C1209 C1210 1.399 . S
C1209 C1214 1.399 . S
C1210 C1209 1.399 . S
C1210 C1211 1.376 . S
C1211 H1198 0.930 . S
C1211 C1210 1.376 . S
C1211 C1212 1.388 . S
C1212 H1199 0.930 . S
C1212 C1211 1.388 . S
C1212 C1213 1.390 . S
C1213 C1212 1.390 . S
C1213 C1214 1.394 . S
C1213 C1219 1.465 . S
C1214 C1209 1.399 . S
C1214 C1213 1.394 . S
C1214 C1215 1.516 . S
C1215 C1214 1.516 . S
C1215 C1216 1.502 . S
C1215 C1217 1.561 . S
C1215 C1218 1.526 . S
C1216 H1200 0.959 . S
C1216 H1201 0.959 . S
C1216 H1202 0.961 . S
C1216 C1215 1.502 . S
C1217 H1203 0.960 . S
C1217 H1204 0.961 . S
C1217 H1205 0.959 . S
C1217 C1215 1.561 . S
C1218 C1215 1.526 . S
C1218 C1219 1.396 . S
C1218 C1223 1.390 . S
C1219 C1213 1.465 . S
C1219 C1218 1.396 . S
C1219 C1220 1.399 . S
C1220 H1206 0.929 . S
C1220 C1219 1.399 . S
C1220 C1221 1.385 . S
C1221 H1207 0.931 . S
C1221 C1220 1.385 . S
C1221 C1222 1.389 . S
C1222 C1221 1.389 . S
C1222 C1223 1.387 . S
C1223 H1208 0.930 . S
C1223 C1218 1.390 . S
C1223 C1222 1.387 . S
H1224 C1236 0.930 . S
H1225 C1238 0.930 . S
H1226 C1239 0.930 . S
H1227 C1243 0.959 . S
H1228 C1243 0.959 . S
H1229 C1243 0.961 . S
H1230 C1244 0.960 . S
H1231 C1244 0.961 . S
H1232 C1244 0.959 . S
H1233 C1247 0.929 . S
H1234 C1248 0.931 . S
H1235 C1250 0.930 . S
C1236 H1224 0.930 . S
C1236 C1237 1.399 . S
C1236 C1241 1.399 . S
C1237 C1236 1.399 . S
C1237 C1238 1.376 . S
C1238 H1225 0.930 . S
C1238 C1237 1.376 . S
C1238 C1239 1.388 . S
C1239 H1226 0.930 . S
C1239 C1238 1.388 . S
C1239 C1240 1.390 . S
C1240 C1239 1.390 . S
C1240 C1241 1.394 . S
C1240 C1246 1.465 . S
C1241 C1236 1.399 . S
C1241 C1240 1.394 . S
C1241 C1242 1.516 . S
C1242 C1241 1.516 . S
C1242 C1243 1.502 . S
C1242 C1244 1.561 . S
C1242 C1245 1.526 . S
C1243 H1227 0.959 . S
C1243 H1228 0.959 . S
C1243 H1229 0.961 . S
C1243 C1242 1.502 . S
C1244 H1230 0.960 . S
C1244 H1231 0.961 . S
C1244 H1232 0.959 . S
C1244 C1242 1.561 . S
C1245 C1242 1.526 . S
C1245 C1246 1.396 . S
C1245 C1250 1.390 . S
C1246 C1240 1.465 . S
C1246 C1245 1.396 . S
C1246 C1247 1.399 . S
C1247 H1233 0.929 . S
C1247 C1246 1.399 . S
C1247 C1248 1.385 . S
C1248 H1234 0.931 . S
C1248 C1247 1.385 . S
C1248 C1249 1.389 . S
C1249 C1248 1.389 . S
C1249 C1250 1.387 . S
C1250 H1235 0.930 . S
C1250 C1245 1.390 . S
C1250 C1249 1.387 . S
H1251 C1263 0.930 . S
H1252 C1265 0.930 . S
H1253 C1266 0.930 . S
H1254 C1270 0.959 . S
H1255 C1270 0.959 . S
H1256 C1270 0.961 . S
H1257 C1271 0.960 . S
H1258 C1271 0.961 . S
H1259 C1271 0.959 . S
H1260 C1274 0.929 . S
H1261 C1275 0.931 . S
H1262 C1277 0.930 . S
C1263 H1251 0.930 . S
C1263 C1264 1.399 . S
C1263 C1268 1.399 . S
C1264 C1263 1.399 . S
C1264 C1265 1.376 . S
C1265 H1252 0.930 . S
C1265 C1264 1.376 . S
C1265 C1266 1.388 . S
C1266 H1253 0.930 . S
C1266 C1265 1.388 . S
C1266 C1267 1.390 . S
C1267 C1266 1.390 . S
C1267 C1268 1.394 . S
C1267 C1273 1.465 . S
C1268 C1263 1.399 . S
C1268 C1267 1.394 . S
C1268 C1269 1.516 . S
C1269 C1268 1.516 . S
C1269 C1270 1.502 . S
C1269 C1271 1.561 . S
C1269 C1272 1.526 . S
C1270 H1254 0.959 . S
C1270 H1255 0.959 . S
C1270 H1256 0.961 . S
C1270 C1269 1.502 . S
C1271 H1257 0.960 . S
C1271 H1258 0.961 . S
C1271 H1259 0.959 . S
C1271 C1269 1.561 . S
C1272 C1269 1.526 . S
C1272 C1273 1.396 . S
C1272 C1277 1.390 . S
C1273 C1267 1.465 . S
C1273 C1272 1.396 . S
C1273 C1274 1.399 . S
C1274 H1260 0.929 . S
C1274 C1273 1.399 . S
C1274 C1275 1.385 . S
C1275 H1261 0.931 . S
C1275 C1274 1.385 . S
C1275 C1276 1.389 . S
C1276 C1275 1.389 . S
C1276 C1277 1.387 . S
C1277 H1262 0.930 . S
C1277 C1272 1.390 . S
C1277 C1276 1.387 . S
H1278 C1290 0.930 . S
H1279 C1292 0.930 . S
H1280 C1293 0.930 . S
H1281 C1297 0.959 . S
H1282 C1297 0.959 . S
H1283 C1297 0.961 . S
H1284 C1298 0.960 . S
H1285 C1298 0.961 . S
H1286 C1298 0.959 . S
H1287 C1301 0.929 . S
H1288 C1302 0.931 . S
H1289 C1304 0.930 . S
C1290 H1278 0.930 . S
C1290 C1291 1.399 . S
C1290 C1295 1.399 . S
C1291 C1290 1.399 . S
C1291 C1292 1.376 . S
C1292 H1279 0.930 . S
C1292 C1291 1.376 . S
C1292 C1293 1.388 . S
C1293 H1280 0.930 . S
C1293 C1292 1.388 . S
C1293 C1294 1.390 . S
C1294 C1293 1.390 . S
C1294 C1295 1.394 . S
C1294 C1300 1.465 . S
C1295 C1290 1.399 . S
C1295 C1294 1.394 . S
C1295 C1296 1.516 . S
C1296 C1295 1.516 . S
C1296 C1297 1.502 . S
C1296 C1298 1.561 . S
C1296 C1299 1.526 . S
C1297 H1281 0.959 . S
C1297 H1282 0.959 . S
C1297 H1283 0.961 . S
C1297 C1296 1.502 . S
C1298 H1284 0.960 . S
C1298 H1285 0.961 . S
C1298 H1286 0.959 . S
C1298 C1296 1.561 . S
C1299 C1296 1.526 . S
C1299 C1300 1.396 . S
C1299 C1304 1.390 . S
C1300 C1294 1.465 . S
C1300 C1299 1.396 . S
C1300 C1301 1.399 . S
C1301 H1287 0.929 . S
C1301 C1300 1.399 . S
C1301 C1302 1.385 . S
C1302 H1288 0.931 . S
C1302 C1301 1.385 . S
C1302 C1303 1.389 . S
C1303 C1302 1.389 . S
C1303 C1304 1.387 . S
C1304 H1289 0.930 . S
C1304 C1299 1.390 . S
C1304 C1303 1.387 . S
H1305 C1317 0.930 . S
H1306 C1319 0.930 . S
H1307 C1320 0.930 . S
H1308 C1324 0.959 . S
H1309 C1324 0.949 1_554 S
H1310 C1324 0.972 . S
H1311 C1325 0.960 1_556 S
H1312 C1325 0.961 . S
H1313 C1325 0.959 . S
H1314 C1328 0.929 . S
H1315 C1329 0.931 . S
H1316 C1331 0.930 . S
C1317 H1305 0.930 . S
C1317 C1318 1.399 . S
C1317 C1322 1.399 . S
C1318 C1317 1.399 . S
C1318 C1319 1.376 . S
C1319 H1306 0.930 . S
C1319 C1318 1.376 . S
C1319 C1320 1.388 . S
C1320 H1307 0.930 . S
C1320 C1319 1.388 . S
C1320 C1321 1.390 . S
C1321 C1320 1.390 . S
C1321 C1322 1.394 . S
C1321 C1327 1.465 1_556 S
C1322 C1317 1.399 . S
C1322 C1321 1.394 . S
C1322 C1323 1.487 1_556 S
C1323 C1322 1.487 1_554 S
C1323 C1324 1.500 1_554 S
C1323 C1325 1.566 . S
C1323 C1326 1.554 . S
C1324 H1308 0.959 . S
C1324 H1309 0.949 1_556 S
C1324 H1310 0.972 . S
C1324 C1323 1.500 1_556 S
C1325 H1311 0.960 1_554 S
C1325 H1312 0.961 . S
C1325 H1313 0.959 . S
C1325 C1323 1.566 . S
C1326 C1323 1.554 . S
C1326 C1327 1.396 . S
C1326 C1331 1.390 . S
C1327 C1321 1.465 1_554 S
C1327 C1326 1.396 . S
C1327 C1328 1.399 . S
C1328 H1314 0.929 . S
C1328 C1327 1.399 . S
C1328 C1329 1.385 . S
C1329 H1315 0.931 . S
C1329 C1328 1.385 . S
C1329 C1330 1.389 . S
C1330 C1329 1.389 . S
C1330 C1331 1.387 . S
C1331 H1316 0.930 . S
C1331 C1326 1.390 . S
C1331 C1330 1.387 . S
H1332 C1344 0.930 . S
H1333 C1346 0.930 . S
H1334 C1347 0.930 . S
H1335 C1351 0.959 . S
H1336 C1351 0.959 . S
H1337 C1351 0.961 1_554 S
H1338 C1352 0.893 1_554 S
H1339 C1352 1.030 . S
H1340 C1352 0.959 . S
H1341 C1355 0.929 . S
H1342 C1356 0.931 . S
H1343 C1358 0.930 . S
C1344 H1332 0.930 . S
C1344 C1345 1.399 . S
C1344 C1349 1.399 . S
C1345 C1344 1.399 . S
C1345 C1346 1.376 . S
C1346 H1333 0.930 . S
C1346 C1345 1.376 . S
C1346 C1347 1.388 . S
C1347 H1334 0.930 . S
C1347 C1346 1.388 . S
C1347 C1348 1.390 . S
C1348 C1347 1.390 . S
C1348 C1349 1.394 . S
C1348 C1354 1.465 1_554 S
C1349 C1344 1.399 . S
C1349 C1348 1.394 . S
C1349 C1350 1.516 1_554 S
C1350 C1349 1.516 1_556 S
C1350 C1351 1.502 . S
C1350 C1352 1.565 . S
C1350 C1353 1.526 . S
C1351 H1335 0.959 . S
C1351 H1336 0.959 . S
C1351 H1337 0.961 1_556 S
C1351 C1350 1.502 . S
C1352 H1338 0.893 1_556 S
C1352 H1339 1.030 . S
C1352 H1340 0.959 . S
C1352 C1350 1.565 . S
C1353 C1350 1.526 . S
C1353 C1354 1.396 . S
C1353 C1358 1.390 . S
C1354 C1348 1.465 1_556 S
C1354 C1353 1.396 . S
C1354 C1355 1.399 . S
C1355 H1341 0.929 . S
C1355 C1354 1.399 . S
C1355 C1356 1.385 . S
C1356 H1342 0.931 . S
C1356 C1355 1.385 . S
C1356 C1357 1.389 . S
C1357 C1356 1.389 . S
C1357 C1358 1.387 . S
C1358 H1343 0.930 . S
C1358 C1353 1.390 . S
C1358 C1357 1.387 . S
H1359 C1371 0.930 . S
H1360 C1373 0.930 . S
H1361 C1374 0.930 . S
H1362 C1378 0.959 . S
H1363 C1378 0.959 . S
H1364 C1378 0.961 . S
H1365 C1379 0.960 . S
H1366 C1379 0.961 . S
H1367 C1379 0.959 . S
H1368 C1382 0.929 . S
H1369 C1383 0.931 . S
H1370 C1385 0.930 . S
C1371 H1359 0.930 . S
C1371 C1372 1.399 . S
C1371 C1376 1.399 . S
C1372 C1371 1.399 . S
C1372 C1373 1.376 . S
C1373 H1360 0.930 . S
C1373 C1372 1.376 . S
C1373 C1374 1.388 . S
C1374 H1361 0.930 . S
C1374 C1373 1.388 . S
C1374 C1375 1.390 . S
C1375 C1374 1.390 . S
C1375 C1376 1.394 . S
C1375 C1381 1.465 . S
C1376 C1371 1.399 . S
C1376 C1375 1.394 . S
C1376 C1377 1.516 . S
C1377 C1376 1.516 . S
C1377 C1378 1.502 . S
C1377 C1379 1.561 . S
C1377 C1380 1.526 . S
C1378 H1362 0.959 . S
C1378 H1363 0.959 . S
C1378 H1364 0.961 . S
C1378 C1377 1.502 . S
C1379 H1365 0.960 . S
C1379 H1366 0.961 . S
C1379 H1367 0.959 . S
C1379 C1377 1.561 . S
C1380 C1377 1.526 . S
C1380 C1381 1.396 . S
C1380 C1385 1.390 . S
C1381 C1375 1.465 . S
C1381 C1380 1.396 . S
C1381 C1382 1.399 . S
C1382 H1368 0.929 . S
C1382 C1381 1.399 . S
C1382 C1383 1.385 . S
C1383 H1369 0.931 . S
C1383 C1382 1.385 . S
C1383 C1384 1.389 . S
C1384 C1383 1.389 . S
C1384 C1385 1.387 . S
C1385 H1370 0.930 . S
C1385 C1380 1.390 . S
C1385 C1384 1.387 . S
H1386 C1398 0.930 . S
H1387 C1400 0.930 . S
H1388 C1401 0.930 . S
H1389 C1405 0.959 . S
H1390 C1405 0.959 . S
H1391 C1405 0.961 . S
H1392 C1406 0.960 . S
H1393 C1406 0.961 . S
H1394 C1406 0.959 . S
H1395 C1409 0.929 . S
H1396 C1410 0.931 . S
H1397 C1412 0.930 . S
C1398 H1386 0.930 . S
C1398 C1399 1.399 . S
C1398 C1403 1.399 . S
C1399 C1398 1.399 . S
C1399 C1400 1.376 . S
C1400 H1387 0.930 . S
C1400 C1399 1.376 . S
C1400 C1401 1.388 . S
C1401 H1388 0.930 . S
C1401 C1400 1.388 . S
C1401 C1402 1.390 . S
C1402 C1401 1.390 . S
C1402 C1403 1.394 . S
C1402 C1408 1.465 . S
C1403 C1398 1.399 . S
C1403 C1402 1.394 . S
C1403 C1404 1.516 . S
C1404 C1403 1.516 . S
C1404 C1405 1.502 . S
C1404 C1406 1.561 . S
C1404 C1407 1.526 . S
C1405 H1389 0.959 . S
C1405 H1390 0.959 . S
C1405 H1391 0.961 . S
C1405 C1404 1.502 . S
C1406 H1392 0.960 . S
C1406 H1393 0.961 . S
C1406 H1394 0.959 . S
C1406 C1404 1.561 . S
C1407 C1404 1.526 . S
C1407 C1408 1.396 . S
C1407 C1412 1.390 . S
C1408 C1402 1.465 . S
C1408 C1407 1.396 . S
C1408 C1409 1.399 . S
C1409 H1395 0.929 . S
C1409 C1408 1.399 . S
C1409 C1410 1.385 . S
C1410 H1396 0.931 . S
C1410 C1409 1.385 . S
C1410 C1411 1.389 . S
C1411 C1410 1.389 . S
C1411 C1412 1.387 . S
C1412 H1397 0.930 . S
C1412 C1407 1.390 . S
C1412 C1411 1.387 . S
H1413 C1425 0.930 . S
H1414 C1427 0.930 . S
H1415 C1428 0.930 . S
H1416 C1432 0.959 . S
H1417 C1432 0.959 . S
H1418 C1432 0.961 . S
H1419 C1433 0.960 . S
H1420 C1433 0.961 . S
H1421 C1433 0.959 . S
H1422 C1436 0.929 . S
H1423 C1437 0.931 . S
H1424 C1439 0.930 . S
C1425 H1413 0.930 . S
C1425 C1426 1.399 . S
C1425 C1430 1.399 . S
C1426 C1425 1.399 . S
C1426 C1427 1.376 . S
C1427 H1414 0.930 . S
C1427 C1426 1.376 . S
C1427 C1428 1.388 . S
C1428 H1415 0.930 . S
C1428 C1427 1.388 . S
C1428 C1429 1.390 . S
C1429 C1428 1.390 . S
C1429 C1430 1.394 . S
C1429 C1435 1.465 . S
C1430 C1425 1.399 . S
C1430 C1429 1.394 . S
C1430 C1431 1.516 . S
C1431 C1430 1.516 . S
C1431 C1432 1.502 . S
C1431 C1433 1.561 . S
C1431 C1434 1.526 . S
C1432 H1416 0.959 . S
C1432 H1417 0.959 . S
C1432 H1418 0.961 . S
C1432 C1431 1.502 . S
C1433 H1419 0.960 . S
C1433 H1420 0.961 . S
C1433 H1421 0.959 . S
C1433 C1431 1.561 . S
C1434 C1431 1.526 . S
C1434 C1435 1.396 . S
C1434 C1439 1.390 . S
C1435 C1429 1.465 . S
C1435 C1434 1.396 . S
C1435 C1436 1.399 . S
C1436 H1422 0.929 . S
C1436 C1435 1.399 . S
C1436 C1437 1.385 . S
C1437 H1423 0.931 . S
C1437 C1436 1.385 . S
C1437 C1438 1.389 . S
C1438 C1437 1.389 . S
C1438 C1439 1.387 . S
C1439 H1424 0.930 . S
C1439 C1434 1.390 . S
C1439 C1438 1.387 . S
C589 C374 1.475 . S
C601 C14 1.481 . S
C616 C50 1.480 . S
C628 C410 1.461 . S
C643 C302 1.396 . S
C655 C86 1.421 . S
C670 C338 1.480 . S
C682 C122 1.461 . S
C697 C158 1.395 . S
C709 C518 1.418 . S
C724 C554 1.394 . S
C736 C194 1.417 . S
C751 C230 1.480 . S
C763 C446 1.460 . S
C778 C482 1.399 . S
C790 C266 1.426 . S
C805 C362 1.501 . S
C817 C2 1.523 . S
C832 C38 1.531 . S
C844 C398 1.513 . S
C859 C74 1.501 . S
C871 C290 1.524 . S
C886 C110 1.530 . S
C898 C326 1.512 . S
C913 C146 1.502 . S
C925 C506 1.521 . S
C940 C182 1.502 . S
C952 C542 1.523 . S
C967 C434 1.534 . S
C979 C218 1.505 . S
C994 C470 1.500 . S
C1006 C254 1.526 . S
C1021 C4 1.268 . S
C1033 C220 1.288 . S
C1048 C40 1.286 . S
C1060 C256 1.263 . S
C1075 C76 1.227 . S
C1087 C148 1.207 . S
C1102 C112 1.287 . S
C1114 C184 1.265 . S
C1129 C292 1.218 . S
C1141 C508 1.203 . S
C1156 C544 1.283 . S
C1168 C328 1.259 . S
C1183 C364 1.278 . S
C1195 C436 1.292 . S
C1210 C472 1.286 . S
C1222 C400 1.264 . S
C1237 C3 1.283 . S
C1249 C543 1.275 . S
C1264 C435 1.292 . S
C1276 C39 1.262 . S
C1291 C471 1.294 . S
C1303 C75 1.234 . S
C1318 C507 1.276 . S
C1330 C111 1.284 . S
C1345 C327 1.286 . S
C1357 C147 1.231 . S
C1372 C363 1.288 . S
C1384 C183 1.270 . S
C1399 C219 1.282 . S
C1411 C399 1.276 . S
C1426 C255 1.235 . S
C1438 C291 1.295 . S
