# Generated by pormake.
# Topology wkw, (8)-cn, num edge types: 1
# Building blocks:
#     Node 0, Type 0, BuildingBlock: TAGTUT_clean_sbu_1, # of connection points: 8
#     Node 1, Type 0, BuildingBlock: TAGTUT_clean_sbu_1, # of connection points: 8
#     Node 2, Type 0, BuildingBlock: TAGTUT_clean_sbu_1, # of connection points: 8
#     Node 3, Type 0, BuildingBlock: TAGTUT_clean_sbu_1, # of connection points: 8
#     Node 4, Type 0, BuildingBlock: TAGTUT_clean_sbu_1, # of connection points: 8
#     Node 5, Type 0, BuildingBlock: TAGTUT_clean_sbu_1, # of connection points: 8
#     Edge 6, Type (0, 0), BuildingBlock: AJUNOK_clean_linker_0, # of connection points: 2
#     Edge 7, Type (0, 0), BuildingBlock: AJUNOK_clean_linker_0, # of connection points: 2
#     Edge 8, Type (0, 0), BuildingBlock: AJUNOK_clean_linker_0, # of connection points: 2
#     Edge 9, Type (0, 0), BuildingBlock: AJUNOK_clean_linker_0, # of connection points: 2
#     Edge 10, Type (0, 0), BuildingBlock: AJUNOK_clean_linker_0, # of connection points: 2
#     Edge 11, Type (0, 0), BuildingBlock: AJUNOK_clean_linker_0, # of connection points: 2
#     Edge 12, Type (0, 0), BuildingBlock: AJUNOK_clean_linker_0, # of connection points: 2
#     Edge 13, Type (0, 0), BuildingBlock: AJUNOK_clean_linker_0, # of connection points: 2
#     Edge 14, Type (0, 0), BuildingBlock: AJUNOK_clean_linker_0, # of connection points: 2
#     Edge 15, Type (0, 0), BuildingBlock: AJUNOK_clean_linker_0, # of connection points: 2
#     Edge 16, Type (0, 0), BuildingBlock: AJUNOK_clean_linker_0, # of connection points: 2
#     Edge 17, Type (0, 0), BuildingBlock: AJUNOK_clean_linker_0, # of connection points: 2
#     Edge 18, Type (0, 0), BuildingBlock: AJUNOK_clean_linker_0, # of connection points: 2
#     Edge 19, Type (0, 0), BuildingBlock: AJUNOK_clean_linker_0, # of connection points: 2
#     Edge 20, Type (0, 0), BuildingBlock: AJUNOK_clean_linker_0, # of connection points: 2
#     Edge 21, Type (0, 0), BuildingBlock: AJUNOK_clean_linker_0, # of connection points: 2
#     Edge 22, Type (0, 0), BuildingBlock: AJUNOK_clean_linker_0, # of connection points: 2
#     Edge 23, Type (0, 0), BuildingBlock: AJUNOK_clean_linker_0, # of connection points: 2
#     Edge 24, Type (0, 0), BuildingBlock: AJUNOK_clean_linker_0, # of connection points: 2
#     Edge 25, Type (0, 0), BuildingBlock: AJUNOK_clean_linker_0, # of connection points: 2
#     Edge 26, Type (0, 0), BuildingBlock: AJUNOK_clean_linker_0, # of connection points: 2
#     Edge 27, Type (0, 0), BuildingBlock: AJUNOK_clean_linker_0, # of connection points: 2
#     Edge 28, Type (0, 0), BuildingBlock: AJUNOK_clean_linker_0, # of connection points: 2
#     Edge 29, Type (0, 0), BuildingBlock: AJUNOK_clean_linker_0, # of connection points: 2
# Relax obj value: 0.242
# Max RMSD: 0.275
# Mean RMSD: 0.275
data_MOF--net-wkw--node1-TAGTUT_clean_sbu_1--edge1-AJUNOK_clean_linker_0
_symmetry_space_group_name_H-M    P1
_symmetry_Int_Tables_number       1
_symmetry_cell_setting            triclinic
loop_
_symmetry_equiv_pos_as_xyz
'x, y, z'
_cell_length_a     29.497612
_cell_length_b     29.73456
_cell_length_c     15.308372
_cell_angle_alpha  90.838471
_cell_angle_beta   89.086411
_cell_angle_gamma 119.50181
loop_
_atom_site_label
_atom_site_type_symbol
_atom_site_fract_x
_atom_site_fract_y
_atom_site_fract_z
_atom_type_partial_charge
C0 C 0.74572 0.19535 0.76993 0.0
C1 C 0.88808 0.30386 0.6602 0.0
C2 C 0.98543 0.2697 0.94432 0.0
Mg3 Mg 0.82391 0.30522 0.82043 0.0
O4 O 0.84491 0.26759 0.88897 0.0
Mg5 Mg 0.86842 0.22333 0.8278 0.0
Mg6 Mg 0.90148 0.30637 -0.0292 0.0
O7 O 0.95939 0.34658 0.05473 0.0
Mg8 Mg 0.99014 0.31707 0.1255 0.0
Mg9 Mg 0.93045 0.3876 0.11295 0.0
C10 C 0.83895 0.36965 -0.00428 0.0
C11 C 0.95244 0.42723 0.91426 0.0
O12 O 0.78129 0.18172 0.77032 0.0
O13 O 0.75404 0.24024 0.79236 0.0
O14 O 0.89395 0.27026 0.70177 0.0
O15 O 0.86433 0.3258 0.69514 0.0
O16 O 0.82525 0.36064 0.91532 0.0
O17 O 0.85478 0.34226 0.03665 0.0
C18 C 0.84023 0.18273 0.0263 0.0
O19 O 0.8616 0.2293 0.0568 0.0
O20 O 0.84026 0.17374 0.94504 0.0
O21 O 1.00858 0.43101 0.16946 0.0
O22 O 0.05706 0.39149 0.16255 0.0
O23 O 0.90491 0.33891 0.23905 0.0
C24 C 0.05124 0.43083 0.17989 0.0
O25 O 0.94581 0.29302 0.2458 0.0
O26 O 0.97505 0.2571 0.0248 0.0
C27 C 0.91676 0.30916 0.28048 0.0
O28 O 0.95259 0.2765 0.89854 0.0
O29 O 0.935 0.38072 0.88621 0.0
O30 O 0.95704 0.4376 -0.00442 0.0
C31 C 0.55123 0.73646 0.95079 0.0
C32 C 0.58897 0.88008 0.84073 0.0
C33 C 0.72453 0.96964 0.12591 0.0
Mg34 Mg 0.52491 0.81918 0.00273 0.0
O35 O 0.58379 0.84082 0.06969 0.0
Mg36 Mg 0.64912 0.85716 0.00554 0.0
Mg37 Mg 0.60543 0.89936 0.15224 0.0
O38 O 0.6266 0.95891 0.24023 0.0
Mg39 Mg 0.69224 0.97993 0.30821 0.0
Mg40 Mg 0.55191 0.94134 0.29522 0.0
C41 C 0.48133 0.84537 0.17745 0.0
C42 C 0.53716 0.95463 0.08948 0.0
O43 O 0.6004 0.77026 0.94836 0.0
O44 O 0.51622 0.74714 -0.02393 0.0
O45 O 0.62927 0.88547 0.8799 0.0
O46 O 0.54414 0.85727 0.87742 0.0
O47 O 0.47555 0.82693 0.09954 0.0
O48 O 0.52517 0.86385 0.21825 0.0
C49 C 0.66098 0.82872 0.20368 0.0
O50 O 0.63915 0.85389 0.2363 0.0
O51 O 0.66839 0.82734 0.12205 0.0
O52 O 0.63449 1.00448 0.26306 0.0
O53 O 0.70448 0.05814 0.33137 0.0
O54 O 0.57782 0.92056 0.42406 0.0
C55 C 0.658 0.04547 0.31056 0.0
O56 O 0.66123 0.93892 0.43129 0.0
O57 O 0.72548 0.95378 0.20264 0.0
C58 C 0.61561 0.92124 0.46542 0.0
O59 O 0.68526 0.9412 0.07673 0.0
O60 O 0.56723 0.93627 0.06769 0.0
O61 O 0.52912 0.96181 0.16925 0.0
C62 C 0.83234 0.54172 0.12317 0.0
C63 C 0.72995 0.57916 -0.00371 0.0
C64 C 0.76223 0.71274 0.29117 0.0
Mg65 Mg 0.72271 0.51672 0.16072 0.0
O66 O 0.75661 0.57523 0.22921 0.0
Mg67 Mg 0.80548 0.63963 0.16907 0.0
Mg68 Mg 0.71787 0.59487 0.31256 0.0
O69 O 0.67653 0.61337 0.40171 0.0
Mg70 Mg 0.71898 0.67839 0.47177 0.0
Mg71 Mg 0.62386 0.5376 0.45432 0.0
C72 C 0.65372 0.47156 0.33183 0.0
C73 C 0.59583 0.52528 0.24729 0.0
O74 O 0.84679 0.5905 0.11758 0.0
O75 O 0.78649 0.5076 0.14502 0.0
O76 O 0.7613 0.61965 0.0389 0.0
O77 O 0.70791 0.53471 0.03185 0.0
O78 O 0.66628 0.46677 0.25314 0.0
O79 O 0.67728 0.51488 0.37446 0.0
C80 C 0.84302 0.65127 0.368 0.0
O81 O 0.79604 0.62872 0.39931 0.0
O82 O 0.85209 0.65924 0.28703 0.0
O83 O 0.6368 0.61812 0.43092 0.0
O84 O 0.65026 0.68684 0.50197 0.0
O85 O 0.67213 0.56419 0.5827 0.0
C86 C 0.61819 0.6401 0.48143 0.0
O87 O 0.73346 0.64807 0.59017 0.0
O88 O 0.77857 0.71288 0.36794 0.0
C89 C 0.7088 0.60274 0.62325 0.0
O90 O 0.7535 0.67468 0.23913 0.0
O91 O 0.64364 0.55669 0.22697 0.0
O92 O 0.5806 0.51481 0.32672 0.0
C93 C 0.30084 0.83642 0.2823 0.0
C94 C 0.16696 0.72569 0.14941 0.0
C95 C 0.05971 0.75124 0.45222 0.0
Mg96 Mg 0.22673 0.72395 0.31227 0.0
O97 O 0.19702 0.75446 0.38056 0.0
Mg98 Mg 0.17339 0.79861 0.32485 0.0
Mg99 Mg 0.14205 0.71443 0.46355 0.0
O100 O 0.0848 0.67261 0.55027 0.0
Mg101 Mg 0.05663 0.70319 0.62853 0.0
Mg102 Mg 0.11613 0.63275 0.6015 0.0
C103 C 0.20909 0.65526 0.47798 0.0
C104 C 0.09412 0.59452 0.40103 0.0
O105 O 0.26262 0.84589 0.27484 0.0
O106 O 0.29475 0.79228 0.30186 0.0
O107 O 0.15264 0.75353 0.19347 0.0
O108 O 0.1943 0.70823 0.18354 0.0
O109 O 0.22485 0.66685 0.39877 0.0
O110 O 0.1909 0.68036 0.52212 0.0
C111 C 0.20099 0.83765 0.52259 0.0
O112 O 0.18274 0.79136 0.55161 0.0
O113 O 0.19766 0.84627 0.44298 0.0
O114 O 0.03895 0.58725 0.66481 0.0
O115 O 0.99197 0.62833 0.67196 0.0
O116 O 0.14276 0.6818 0.72863 0.0
C117 C 0.99725 0.58831 0.68363 0.0
O118 O 0.10387 0.72942 0.74344 0.0
O119 O 0.07491 0.76419 0.53085 0.0
C120 C 0.13328 0.71309 0.77284 0.0
O121 O 0.08918 0.7433 0.39738 0.0
O122 O 0.10987 0.64097 0.37603 0.0
O123 O 0.08968 0.58317 0.4818 0.0
C124 C 0.48864 0.28667 0.42957 0.0
C125 C 0.4603 0.14981 0.29213 0.0
C126 C 0.32729 0.0528 0.5942 0.0
Mg127 Mg 0.5242 0.20825 0.45404 0.0
O128 O 0.46411 0.18233 0.52259 0.0
Mg129 Mg 0.39665 0.1627 0.46806 0.0
Mg130 Mg 0.44668 0.12736 0.60481 0.0
O131 O 0.42921 0.07021 0.69106 0.0
Mg132 Mg 0.37172 0.04847 0.76937 0.0
Mg133 Mg 0.50031 0.09859 0.74303 0.0
C134 C 0.57213 0.18621 0.62011 0.0
C135 C 0.51361 0.07053 0.54218 0.0
O136 O 0.44065 0.2506 0.42163 0.0
O137 O 0.52599 0.27815 0.44594 0.0
O138 O 0.41968 0.1398 0.33744 0.0
O139 O 0.50577 0.17479 0.32471 0.0
O140 O 0.57769 0.20162 0.5409 0.0
O141 O 0.5293 0.17198 0.66312 0.0
C142 C 0.38609 0.19319 0.6651 0.0
O143 O 0.41271 0.17278 0.6942 0.0
O144 O 0.37448 0.18982 0.58536 0.0
O145 O 0.46641 0.02352 0.80897 0.0
O146 O 0.37893 0.98336 0.82105 0.0
O147 O 0.4807 0.12896 0.8711 0.0
C148 C 0.42308 0.98524 0.83234 0.0
O149 O 0.39522 0.09876 0.87991 0.0
O150 O 0.33131 0.07002 0.67213 0.0
C151 C 0.44038 0.12339 0.913 0.0
O152 O 0.36457 0.07873 0.53852 0.0
O153 O 0.48507 0.08943 0.51686 0.0
O154 O 0.52094 0.06739 0.62323 0.0
C155 C 0.22047 0.48391 0.58328 0.0
C156 C 0.32581 0.44729 0.46054 0.0
C157 C 0.28843 0.31448 0.755 0.0
Mg158 Mg 0.33049 0.51022 0.62395 0.0
O159 O 0.2908 0.45145 0.69094 0.0
Mg160 Mg 0.24495 0.38583 0.63082 0.0
Mg161 Mg 0.32745 0.43237 0.77311 0.0
O162 O 0.36676 0.4142 0.85966 0.0
Mg163 Mg 0.33399 0.35566 0.93521 0.0
Mg164 Mg 0.40661 0.48461 0.91486 0.0
C165 C 0.39183 0.55751 0.79747 0.0
C166 C 0.45099 0.49993 0.71513 0.0
O167 O 0.20479 0.43473 0.58081 0.0
O168 O 0.26676 0.51833 0.6019 0.0
O169 O 0.29237 0.40737 0.50187 0.0
O170 O 0.34891 0.49177 0.49688 0.0
O171 O 0.38606 0.56338 0.71638 0.0
O172 O 0.3628 0.51423 0.83641 0.0
C173 C 0.2011 0.37223 0.82821 0.0
O174 O 0.24766 0.39654 0.85935 0.0
O175 O 0.19361 0.36392 0.74701 0.0
O176 O 0.44731 0.45055 -0.02121 0.0
O177 O 0.40801 0.36384 -0.01671 0.0
O178 O 0.3546 0.46271 0.03974 0.0
C179 C 0.44707 0.40904 -0.00186 0.0
O180 O 0.30705 0.37712 0.05106 0.0
O181 O 0.27403 0.31643 0.83349 0.0
C182 C 0.32326 0.42235 0.08251 0.0
O183 O 0.2966 0.3515 0.70168 0.0
O184 O 0.40415 0.47107 0.68829 0.0
O185 O 0.46071 0.50753 0.79669 0.0
C186 C 0.87875 0.32546 0.41786 0.0
C187 C 0.90639 0.30333 0.37681 0.0
C188 C 0.87532 0.328 0.50934 0.0
C189 C 0.89937 0.30852 0.5643 0.0
H190 H 0.85999 0.34168 0.37911 0.0
H191 H 0.85261 0.34441 0.53697 0.0
S192 S 0.97753 0.24756 0.49109 0.0
N193 N 0.95871 0.2618 0.39965 0.0
N194 N 0.95277 0.26711 0.57055 0.0
C195 C 0.92739 0.28653 0.5243 0.0
C196 C 0.93058 0.2836 0.43117 0.0
C197 C 0.65039 0.93144 0.61747 0.0
C198 C 0.60785 0.90828 0.56021 0.0
C199 C 0.64358 0.92401 0.70819 0.0
C200 C 0.59389 0.89318 0.74601 0.0
H201 H 0.68935 0.9563 0.59229 0.0
H202 H 0.67779 0.94231 0.74896 0.0
S203 S 0.4698 0.82184 0.62455 0.0
N204 N 0.51435 0.85179 0.54794 0.0
N205 N 0.50139 0.83827 0.71789 0.0
C206 C 0.55094 0.8699 0.68946 0.0
C207 C 0.55796 0.87723 0.59695 0.0
C208 C 0.73816 0.63241 0.86487 0.0
C209 C 0.72409 0.58387 0.90079 0.0
C210 C 0.73505 0.63843 0.77477 0.0
C211 C 0.71772 0.59617 0.71649 0.0
H212 H 0.75122 0.66611 0.90678 0.0
H213 H 0.74497 0.67637 0.75107 0.0
S214 S 0.68071 0.46168 0.77548 0.0
N215 N 0.69533 0.49327 0.86957 0.0
N216 N 0.68926 0.50468 0.70068 0.0
C217 C 0.70471 0.54766 0.7511 0.0
C218 C 0.708 0.5415 0.84291 0.0
C219 C 0.1227 0.73335 0.01632 0.0
C220 C 0.15829 0.72063 0.05322 0.0
C221 C 0.11708 0.73358 0.92555 0.0
C222 C 0.14677 0.72107 0.86724 0.0
H223 H 0.0987 0.74313 0.05788 0.0
H224 H 0.08789 0.74213 0.90123 0.0
S225 S 0.24827 0.68849 0.92934 0.0
N226 N 0.22583 0.69771 0.0234 0.0
N227 N 0.21491 0.69791 0.85317 0.0
C228 C 0.18326 0.70923 0.90303 0.0
C229 C 0.18903 0.70897 -0.00435 0.0
C230 C 0.49343 0.16172 0.04862 0.0
C231 C 0.44431 0.13413 0.00894 0.0
C232 C 0.49844 0.16515 0.13997 0.0
C233 C 0.45463 0.14051 0.19589 0.0
H234 H 0.5285 0.18037 0.00885 0.0
H235 H 0.5371 0.18776 0.16679 0.0
S236 S 0.31708 0.06132 0.12587 0.0
N237 N 0.35071 0.08098 0.03388 0.0
N238 N 0.36044 0.08634 0.20431 0.0
C239 C 0.4053 0.11251 0.15712 0.0
C240 C 0.40006 0.10971 0.06427 0.0
C241 C 0.31462 0.38893 0.23433 0.0
C242 C 0.31804 0.42781 0.17834 0.0
C243 C 0.31933 0.39629 0.32519 0.0
C244 C 0.32827 0.44303 0.36404 0.0
H245 H 0.30988 0.35292 0.20774 0.0
H246 H 0.31605 0.3651 0.36538 0.0
S247 S 0.3339 0.55465 0.24829 0.0
N248 N 0.32639 0.51302 0.16959 0.0
N249 N 0.33593 0.52726 0.34007 0.0
C250 C 0.33061 0.48183 0.3092 0.0
C251 C 0.32524 0.47408 0.21664 0.0
C252 C 0.61236 0.16486 0.74523 0.0
C253 C 0.61241 0.17517 0.6558 0.0
C254 C 0.65196 0.15807 0.78118 0.0
C255 C 0.69465 0.16406 0.73006 0.0
H256 H 0.5837 0.1656 0.78929 0.0
H257 H 0.65322 0.15596 0.85169 0.0
S258 S 0.70994 0.18243 0.49084 0.0
N259 N 0.65519 0.18255 0.51449 0.0
N260 N 0.73087 0.17288 0.58436 0.0
C261 C 0.6923 0.16839 0.63953 0.0
C262 C 0.6516 0.17449 0.60214 0.0
C263 C 0.52463 0.67803 0.82443 0.0
C264 C 0.52984 0.6839 0.91532 0.0
C265 C 0.48066 0.63609 0.78732 0.0
C266 C 0.44022 0.59838 0.83972 0.0
H267 H 0.55145 0.70889 0.78205 0.0
H268 H 0.47738 0.63479 0.71686 0.0
S269 S 0.44039 0.59369 0.08182 0.0
N270 N 0.49575 0.64566 0.05649 0.0
N271 N 0.41161 0.56849 -0.01199 0.0
C272 C 0.44765 0.60174 0.93059 0.0
C273 C 0.49319 0.64369 -0.03216 0.0
C274 C 0.8529 0.45915 -0.02687 0.0
C275 C 0.8497 0.42108 0.03126 0.0
C276 C 0.86034 0.50709 0.00307 0.0
C277 C 0.86374 0.51868 0.09257 0.0
H278 H 0.84775 0.45143 0.90358 0.0
H279 H 0.85667 0.53232 0.95674 0.0
S280 S 0.86475 0.43675 0.27173 0.0
N281 N 0.8554 0.40125 0.18281 0.0
N282 N 0.87125 0.49214 0.23806 0.0
C283 C 0.86698 0.4839 0.15025 0.0
C284 C 0.85833 0.43451 0.12025 0.0
C285 C 0.40573 0.85818 0.14419 0.0
C286 C 0.44022 0.85778 0.20708 0.0
C287 C 0.36437 0.86638 0.16758 0.0
C288 C 0.35424 0.87222 0.2553 0.0
H289 H 0.40926 0.85027 0.07588 0.0
H290 H 0.33584 0.86025 0.11828 0.0
S291 S 0.43679 0.88485 0.44364 0.0
N292 N 0.46436 0.8712 0.36036 0.0
N293 N 0.38737 0.88864 0.40276 0.0
C294 C 0.39249 0.88 0.31671 0.0
C295 C 0.43428 0.87055 0.29366 0.0
C296 C 0.52033 0.35214 0.32046 0.0
C297 C 0.50644 0.34036 0.40813 0.0
C298 C 0.56794 0.39476 0.2977 0.0
C299 C 0.6022 0.42919 0.36135 0.0
H300 H 0.49831 0.32428 0.26984 0.0
H301 H 0.57841 0.3995 0.22897 0.0
S302 S 0.57654 0.42032 0.59998 0.0
N303 N 0.5249 0.36992 0.55843 0.0
N304 N 0.61467 0.4511 0.51603 0.0
C305 C 0.58529 0.42119 0.44883 0.0
C306 C 0.53662 0.37726 0.47179 0.0
C307 C 0.1996 0.56827 0.4454 0.0
C308 C 0.19995 0.60393 0.50795 0.0
C309 C 0.1931 0.52022 0.4696 0.0
C310 C 0.18851 0.50642 0.55763 0.0
H311 H 0.20581 0.57785 0.37666 0.0
H312 H 0.19853 0.49682 0.42004 0.0
S313 S 0.18312 0.58264 0.7471 0.0
N314 N 0.19187 0.61972 0.66211 0.0
N315 N 0.17905 0.52899 0.7069 0.0
C316 C 0.18359 0.5391 0.61995 0.0
C317 C 0.19068 0.58842 0.59566 0.0
C318 C 0.8322 0.11102 0.12047 0.0
C319 C 0.80845 0.13608 0.07974 0.0
C320 C 0.80382 0.05768 0.13912 0.0
C321 C 0.75109 0.02705 0.11521 0.0
H322 H 0.87377 0.13178 0.13195 0.0
H323 H 0.82424 0.03961 0.16747 0.0
S324 S 0.66961 0.07577 0.01618 0.0
N325 N 0.72791 0.12735 0.02406 0.0
N326 N 0.6752 0.02763 0.05687 0.0
C327 C 0.72624 0.05248 0.07942 0.0
C328 C 0.75477 0.10678 0.06239 0.0
C329 C 0.72488 0.81921 0.29641 0.0
C330 C 0.67624 0.79626 0.25503 0.0
C331 C 0.75105 0.79099 0.31105 0.0
C332 C 0.73045 0.7392 0.2825 0.0
H333 H 0.74471 0.86021 0.31129 0.0
H334 H 0.7893 0.81089 0.34027 0.0
S335 S 0.60126 0.65956 0.1805 0.0
N336 N 0.60616 0.71702 0.19398 0.0
N337 N 0.65552 0.66479 0.21958 0.0
C338 C 0.68038 0.71498 0.24616 0.0
C339 C 0.65334 0.74329 0.23313 0.0
C340 C 0.97688 0.67263 0.40219 0.0
C341 C 1.00189 0.72159 0.44242 0.0
C342 C 0.92247 0.64562 0.39157 0.0
C343 C 0.8907 0.66658 0.41936 0.0
H344 H 0.99952 0.65557 0.37684 0.0
H345 H 0.90555 0.60987 0.35417 0.0
S346 S 0.93662 0.79157 0.53468 0.0
N347 N 0.99014 0.78787 0.51745 0.0
N348 N 0.88842 0.73797 0.49328 0.0
C349 C 0.91487 0.71397 0.46423 0.0
C350 C 0.97023 0.74122 0.47648 0.0
C351 C 0.28809 0.91199 0.5453 0.0
C352 C 0.23533 0.88493 0.57254 0.0
C353 C 0.31799 0.96618 0.55177 0.0
C354 C 0.29645 0.99544 0.58712 0.0
H355 H 0.30495 0.89146 0.51115 0.0
H356 H 0.35771 0.98523 0.52717 0.0
S357 S 0.16216 0.94332 0.67607 0.0
N358 N 0.16423 0.89161 0.64057 0.0
N359 N 0.22073 0.99297 0.6573 0.0
C360 C 0.2451 0.96857 0.62068 0.0
C361 C 0.21451 0.91352 0.61253 0.0
C362 C 0.39189 0.27858 0.68334 0.0
C363 C 0.3723 0.22791 0.7158 0.0
C364 C 0.36539 0.30677 0.69634 0.0
C365 C 0.31822 0.28583 0.74363 0.0
H366 H 0.42595 0.29492 0.64093 0.0
H367 H 0.38136 0.34462 0.6672 0.0
S368 S 0.25217 0.15672 0.84877 0.0
N369 N 0.304 0.1594 0.80078 0.0
N370 N 0.25515 0.21262 0.82907 0.0
C371 C 0.30006 0.23667 0.78161 0.0
C372 C 0.32679 0.20774 0.767 0.0
C373 C 0.07675 0.28295 0.95015 0.0
C374 C 0.04255 0.30049 0.92282 0.0
C375 C 0.13045 0.30958 0.92845 0.0
C376 C 0.15251 0.35574 0.88063 0.0
H377 H 0.06138 0.24693 -0.01465 0.0
H378 H 0.15403 0.29218 0.94426 0.0
S379 S 0.08199 0.42204 0.80302 0.0
N380 N 0.0364 0.3698 0.85184 0.0
N381 N 0.13657 0.41982 0.81243 0.0
C382 C 0.11934 0.37532 0.85794 0.0
C383 C 0.06472 0.34785 0.87854 0.0
C384 C 0.08699 0.47051 0.31763 0.0
C385 C 0.08948 0.47618 0.22691 0.0
C386 C 0.0865 0.50827 0.37228 0.0
C387 C 0.09172 0.55469 0.3388 0.0
H388 H 0.07788 0.43373 0.34592 0.0
H389 H 0.08112 0.50026 0.44162 0.0
S390 S 0.10682 0.59005 0.1048 0.0
N391 N 0.10285 0.53277 0.10547 0.0
N392 N 0.10388 0.60515 0.20823 0.0
C393 C 0.09969 0.56286 0.24841 0.0
C394 C 0.09972 0.52395 0.19281 0.0
C395 C 0.58636 0.05145 0.51294 0.0
C396 C 0.54768 0.0614 0.47955 0.0
C397 C 0.62427 0.04983 0.45872 0.0
C398 C 0.62491 0.05749 0.36853 0.0
H399 H 0.58834 0.0458 0.58221 0.0
H400 H 0.65236 0.04109 0.48739 0.0
S401 S 0.53235 0.08216 0.2461 0.0
N402 N 0.51241 0.0775 0.34868 0.0
N403 N 0.58338 0.0734 0.24687 0.0
C404 C 0.5863 0.06633 0.3336 0.0
C405 C 0.5478 0.06849 0.38888 0.0
C406 C 0.57778 0.61268 0.63006 0.0
C407 C 0.57346 0.60668 0.53899 0.0
C408 C 0.5391 0.57656 0.68575 0.0
C409 C 0.49382 0.53321 0.65298 0.0
H410 H 0.61205 0.64467 0.65874 0.0
H411 H 0.5446 0.58344 0.75545 0.0
S412 S 0.46527 0.49934 0.41841 0.0
N413 N 0.52141 0.55387 0.41792 0.0
N414 N 0.44862 0.48596 0.5223 0.0
C415 C 0.48941 0.52667 0.56172 0.0
C416 C 0.52912 0.56339 0.50501 0.0
C417 C 0.94614 0.49583 0.71096 0.0
C418 C 0.96289 0.54644 0.74146 0.0
C419 C 0.94345 0.45759 0.76673 0.0
C420 C 0.9575 0.46861 0.85499 0.0
H421 H 0.94052 0.4873 0.64161 0.0
H422 H 0.93235 0.41986 0.73951 0.0
S423 S 0.99889 0.59476 -0.03213 0.0
N424 N 0.9885 0.60443 0.86608 0.0
N425 N 0.98521 0.53392 -0.02868 0.0
C426 C 0.97096 0.51849 0.8873 0.0
C427 C 0.9722 0.55669 0.83077 0.0
C428 C 0.50237 0.94032 0.93732 0.0
C429 C 0.50153 0.95648 0.02372 0.0
C430 C 0.46669 0.93792 0.87562 0.0
C431 C 0.42994 0.95359 0.89708 0.0
H432 H 0.53226 0.93165 0.91604 0.0
H433 H 0.47234 0.93025 0.80801 0.0
S434 S 0.40703 0.99407 0.11537 0.0
N435 N 0.45646 0.98367 0.12903 0.0
N436 N 0.39071 0.98029 0.01189 0.0
C437 C 0.4255 0.96546 -0.0155 0.0
C438 C 0.46181 0.96803 0.04752 0.0
C439 C 0.48019 0.41019 0.14221 0.0
C440 C 0.49116 0.41887 0.05277 0.0
C441 C 0.51317 0.44616 0.20406 0.0
C442 C 0.55955 0.49104 0.17913 0.0
H443 H 0.44282 0.37913 0.16413 0.0
H444 H 0.5015 0.43886 0.27211 0.0
S445 S 0.60208 0.53242 0.95164 0.0
N446 N 0.55087 0.47451 0.94171 0.0
N447 N 0.61173 0.5432 0.05759 0.0
C448 C 0.57193 0.4987 0.08985 0.0
C449 C 0.539 0.46141 0.02713 0.0
loop_
_geom_bond_atom_site_label_1
_geom_bond_atom_site_label_2
_geom_bond_distance
_geom_bond_site_symmetry_2
_ccdc_geom_bond_type
C0 O12 1.241 . S
C0 O13 1.280 . S
C1 O14 1.277 . S
C1 O15 1.245 . S
C2 O26 1.247 1_556 S
C2 O28 1.289 . S
Mg3 O4 1.926 . S
Mg3 O13 1.984 . S
Mg3 O15 1.988 . S
Mg3 O16 2.061 . S
O4 Mg3 1.926 . S
O4 Mg5 1.986 . S
O4 Mg6 1.915 1_556 S
Mg5 O4 1.986 . S
Mg5 O12 2.042 . S
Mg5 O14 2.041 . S
Mg5 O20 2.038 . S
Mg5 O28 2.238 . S
Mg6 O4 1.915 1_554 S
Mg6 O7 1.919 . S
Mg6 O17 2.108 . S
Mg6 O19 2.080 . S
Mg6 O28 2.105 1_554 S
Mg6 O29 2.077 1_554 S
O7 Mg6 1.919 . S
O7 Mg8 1.926 . S
O7 Mg9 1.986 . S
Mg8 O7 1.926 . S
Mg8 O22 1.984 1_655 S
Mg8 O25 1.988 . S
Mg8 O26 2.061 . S
Mg9 O7 1.986 . S
Mg9 O17 2.238 . S
Mg9 O21 2.042 . S
Mg9 O23 2.041 . S
Mg9 O30 2.038 . S
C10 O16 1.247 1_554 S
C10 O17 1.289 . S
C11 O29 1.245 . S
C11 O30 1.274 1_556 S
O12 C0 1.241 . S
O12 Mg5 2.042 . S
O13 C0 1.280 . S
O13 Mg3 1.984 . S
O14 C1 1.277 . S
O14 Mg5 2.041 . S
O15 C1 1.245 . S
O15 Mg3 1.988 . S
O16 Mg3 2.061 . S
O16 C10 1.247 1_556 S
O17 Mg6 2.108 . S
O17 Mg9 2.238 . S
O17 C10 1.289 . S
C18 O19 1.245 . S
C18 O20 1.274 1_554 S
O19 Mg6 2.080 . S
O19 C18 1.245 . S
O20 Mg5 2.038 . S
O20 C18 1.274 1_556 S
O21 Mg9 2.042 . S
O21 C24 1.241 1_655 S
O22 Mg8 1.984 1_455 S
O22 C24 1.280 . S
O23 Mg9 2.041 . S
O23 C27 1.277 . S
C24 O21 1.241 1_455 S
C24 O22 1.280 . S
O25 Mg8 1.988 . S
O25 C27 1.245 . S
O26 C2 1.247 1_554 S
O26 Mg8 2.061 . S
C27 O23 1.277 . S
C27 O25 1.245 . S
O28 C2 1.289 . S
O28 Mg5 2.238 . S
O28 Mg6 2.105 1_556 S
O29 Mg6 2.077 1_556 S
O29 C11 1.245 . S
O30 Mg9 2.038 . S
O30 C11 1.274 1_554 S
C31 O43 1.241 . S
C31 O44 1.280 . S
C32 O45 1.277 . S
C32 O46 1.245 . S
C33 O57 1.247 . S
C33 O59 1.289 . S
Mg34 O35 1.926 1_556 S
Mg34 O44 1.984 . S
Mg34 O46 1.988 . S
Mg34 O47 2.061 1_556 S
O35 Mg34 1.926 1_554 S
O35 Mg36 1.986 . S
O35 Mg37 1.917 . S
Mg36 O35 1.986 . S
Mg36 O43 2.042 1_554 S
Mg36 O45 2.041 1_554 S
Mg36 O51 2.038 . S
Mg36 O59 2.238 . S
Mg37 O35 1.917 . S
Mg37 O38 1.917 . S
Mg37 O48 2.106 . S
Mg37 O50 2.079 . S
Mg37 O59 2.106 . S
Mg37 O60 2.079 . S
O38 Mg37 1.917 . S
O38 Mg39 1.926 . S
O38 Mg40 1.986 . S
Mg39 O38 1.926 . S
Mg39 O53 1.984 1_565 S
Mg39 O56 1.988 . S
Mg39 O57 2.061 . S
Mg40 O38 1.986 . S
Mg40 O48 2.238 . S
Mg40 O52 2.042 . S
Mg40 O54 2.041 . S
Mg40 O61 2.038 . S
C41 O47 1.247 . S
C41 O48 1.289 . S
C42 O60 1.245 . S
C42 O61 1.274 . S
O43 C31 1.241 . S
O43 Mg36 2.042 1_556 S
O44 C31 1.280 . S
O44 Mg34 1.984 . S
O45 C32 1.277 . S
O45 Mg36 2.041 1_556 S
O46 C32 1.245 . S
O46 Mg34 1.988 . S
O47 Mg34 2.061 1_554 S
O47 C41 1.247 . S
O48 Mg37 2.106 . S
O48 Mg40 2.238 . S
O48 C41 1.289 . S
C49 O50 1.245 . S
C49 O51 1.274 . S
O50 Mg37 2.079 . S
O50 C49 1.245 . S
O51 Mg36 2.038 . S
O51 C49 1.274 . S
O52 Mg40 2.042 . S
O52 C55 1.241 1_565 S
O53 Mg39 1.984 1_545 S
O53 C55 1.280 . S
O54 Mg40 2.041 . S
O54 C58 1.277 . S
C55 O52 1.241 1_545 S
C55 O53 1.280 . S
O56 Mg39 1.988 . S
O56 C58 1.245 . S
O57 C33 1.247 . S
O57 Mg39 2.061 . S
C58 O54 1.277 . S
C58 O56 1.245 . S
O59 C33 1.289 . S
O59 Mg36 2.238 . S
O59 Mg37 2.106 . S
O60 Mg37 2.079 . S
O60 C42 1.245 . S
O61 Mg40 2.038 . S
O61 C42 1.274 . S
C62 O74 1.241 . S
C62 O75 1.280 . S
C63 O76 1.277 . S
C63 O77 1.245 . S
C64 O88 1.247 . S
C64 O90 1.289 . S
Mg65 O66 1.926 . S
Mg65 O75 1.984 . S
Mg65 O77 1.988 . S
Mg65 O78 2.061 . S
O66 Mg65 1.926 . S
O66 Mg67 1.986 . S
O66 Mg68 1.917 . S
Mg67 O66 1.986 . S
Mg67 O74 2.042 . S
Mg67 O76 2.041 . S
Mg67 O82 2.038 . S
Mg67 O90 2.238 . S
Mg68 O66 1.917 . S
Mg68 O69 1.917 . S
Mg68 O79 2.106 . S
Mg68 O81 2.079 . S
Mg68 O90 2.106 . S
Mg68 O91 2.079 . S
O69 Mg68 1.917 . S
O69 Mg70 1.926 . S
O69 Mg71 1.986 . S
Mg70 O69 1.926 . S
Mg70 O84 1.984 . S
Mg70 O87 1.988 . S
Mg70 O88 2.061 . S
Mg71 O69 1.986 . S
Mg71 O79 2.238 . S
Mg71 O83 2.042 . S
Mg71 O85 2.041 . S
Mg71 O92 2.038 . S
C72 O78 1.247 . S
C72 O79 1.289 . S
C73 O91 1.245 . S
C73 O92 1.274 . S
O74 C62 1.241 . S
O74 Mg67 2.042 . S
O75 C62 1.280 . S
O75 Mg65 1.984 . S
O76 C63 1.277 . S
O76 Mg67 2.041 . S
O77 C63 1.245 . S
O77 Mg65 1.988 . S
O78 Mg65 2.061 . S
O78 C72 1.247 . S
O79 Mg68 2.106 . S
O79 Mg71 2.238 . S
O79 C72 1.289 . S
C80 O81 1.245 . S
C80 O82 1.274 . S
O81 Mg68 2.079 . S
O81 C80 1.245 . S
O82 Mg67 2.038 . S
O82 C80 1.274 . S
O83 Mg71 2.042 . S
O83 C86 1.241 . S
O84 Mg70 1.984 . S
O84 C86 1.280 . S
O85 Mg71 2.041 . S
O85 C89 1.277 . S
C86 O83 1.241 . S
C86 O84 1.280 . S
O87 Mg70 1.988 . S
O87 C89 1.245 . S
O88 C64 1.247 . S
O88 Mg70 2.061 . S
C89 O85 1.277 . S
C89 O87 1.245 . S
O90 C64 1.289 . S
O90 Mg67 2.238 . S
O90 Mg68 2.106 . S
O91 Mg68 2.079 . S
O91 C73 1.245 . S
O92 Mg71 2.038 . S
O92 C73 1.274 . S
C93 O105 1.241 . S
C93 O106 1.280 . S
C94 O107 1.277 . S
C94 O108 1.245 . S
C95 O119 1.247 . S
C95 O121 1.289 . S
Mg96 O97 1.926 . S
Mg96 O106 1.984 . S
Mg96 O108 1.988 . S
Mg96 O109 2.061 . S
O97 Mg96 1.926 . S
O97 Mg98 1.986 . S
O97 Mg99 1.917 . S
Mg98 O97 1.986 . S
Mg98 O105 2.042 . S
Mg98 O107 2.041 . S
Mg98 O113 2.038 . S
Mg98 O121 2.238 . S
Mg99 O97 1.917 . S
Mg99 O100 1.917 . S
Mg99 O110 2.106 . S
Mg99 O112 2.079 . S
Mg99 O121 2.106 . S
Mg99 O122 2.079 . S
O100 Mg99 1.917 . S
O100 Mg101 1.926 . S
O100 Mg102 1.986 . S
Mg101 O100 1.926 . S
Mg101 O115 1.984 1_455 S
Mg101 O118 1.988 . S
Mg101 O119 2.061 . S
Mg102 O100 1.986 . S
Mg102 O110 2.238 . S
Mg102 O114 2.042 . S
Mg102 O116 2.041 . S
Mg102 O123 2.038 . S
C103 O109 1.247 . S
C103 O110 1.289 . S
C104 O122 1.245 . S
C104 O123 1.274 . S
O105 C93 1.241 . S
O105 Mg98 2.042 . S
O106 C93 1.280 . S
O106 Mg96 1.984 . S
O107 C94 1.277 . S
O107 Mg98 2.041 . S
O108 C94 1.245 . S
O108 Mg96 1.988 . S
O109 Mg96 2.061 . S
O109 C103 1.247 . S
O110 Mg99 2.106 . S
O110 Mg102 2.238 . S
O110 C103 1.289 . S
C111 O112 1.245 . S
C111 O113 1.274 . S
O112 Mg99 2.079 . S
O112 C111 1.245 . S
O113 Mg98 2.038 . S
O113 C111 1.274 . S
O114 Mg102 2.042 . S
O114 C117 1.241 1_455 S
O115 Mg101 1.984 1_655 S
O115 C117 1.280 . S
O116 Mg102 2.041 . S
O116 C120 1.277 . S
C117 O114 1.241 1_655 S
C117 O115 1.280 . S
O118 Mg101 1.988 . S
O118 C120 1.245 . S
O119 C95 1.247 . S
O119 Mg101 2.061 . S
C120 O116 1.277 . S
C120 O118 1.245 . S
O121 C95 1.289 . S
O121 Mg98 2.238 . S
O121 Mg99 2.106 . S
O122 Mg99 2.079 . S
O122 C104 1.245 . S
O123 Mg102 2.038 . S
O123 C104 1.274 . S
C124 O136 1.241 . S
C124 O137 1.280 . S
C125 O138 1.277 . S
C125 O139 1.245 . S
C126 O150 1.247 . S
C126 O152 1.289 . S
Mg127 O128 1.926 . S
Mg127 O137 1.984 . S
Mg127 O139 1.988 . S
Mg127 O140 2.061 . S
O128 Mg127 1.926 . S
O128 Mg129 1.986 . S
O128 Mg130 1.917 . S
Mg129 O128 1.986 . S
Mg129 O136 2.042 . S
Mg129 O138 2.041 . S
Mg129 O144 2.038 . S
Mg129 O152 2.238 . S
Mg130 O128 1.917 . S
Mg130 O131 1.917 . S
Mg130 O141 2.106 . S
Mg130 O143 2.079 . S
Mg130 O152 2.106 . S
Mg130 O153 2.079 . S
O131 Mg130 1.917 . S
O131 Mg132 1.926 . S
O131 Mg133 1.986 . S
Mg132 O131 1.926 . S
Mg132 O146 1.984 1_545 S
Mg132 O149 1.988 . S
Mg132 O150 2.061 . S
Mg133 O131 1.986 . S
Mg133 O141 2.238 . S
Mg133 O145 2.042 . S
Mg133 O147 2.041 . S
Mg133 O154 2.038 . S
C134 O140 1.247 . S
C134 O141 1.289 . S
C135 O153 1.245 . S
C135 O154 1.274 . S
O136 C124 1.241 . S
O136 Mg129 2.042 . S
O137 C124 1.280 . S
O137 Mg127 1.984 . S
O138 C125 1.277 . S
O138 Mg129 2.041 . S
O139 C125 1.245 . S
O139 Mg127 1.988 . S
O140 Mg127 2.061 . S
O140 C134 1.247 . S
O141 Mg130 2.106 . S
O141 Mg133 2.238 . S
O141 C134 1.289 . S
C142 O143 1.245 . S
C142 O144 1.274 . S
O143 Mg130 2.079 . S
O143 C142 1.245 . S
O144 Mg129 2.038 . S
O144 C142 1.274 . S
O145 Mg133 2.042 . S
O145 C148 1.241 1_545 S
O146 Mg132 1.984 1_565 S
O146 C148 1.280 . S
O147 Mg133 2.041 . S
O147 C151 1.277 . S
C148 O145 1.241 1_565 S
C148 O146 1.280 . S
O149 Mg132 1.988 . S
O149 C151 1.245 . S
O150 C126 1.247 . S
O150 Mg132 2.061 . S
C151 O147 1.277 . S
C151 O149 1.245 . S
O152 C126 1.289 . S
O152 Mg129 2.238 . S
O152 Mg130 2.106 . S
O153 Mg130 2.079 . S
O153 C135 1.245 . S
O154 Mg133 2.038 . S
O154 C135 1.274 . S
C155 O167 1.241 . S
C155 O168 1.280 . S
C156 O169 1.277 . S
C156 O170 1.245 . S
C157 O181 1.247 . S
C157 O183 1.289 . S
Mg158 O159 1.926 . S
Mg158 O168 1.984 . S
Mg158 O170 1.988 . S
Mg158 O171 2.061 . S
O159 Mg158 1.926 . S
O159 Mg160 1.986 . S
O159 Mg161 1.917 . S
Mg160 O159 1.986 . S
Mg160 O167 2.042 . S
Mg160 O169 2.041 . S
Mg160 O175 2.038 . S
Mg160 O183 2.238 . S
Mg161 O159 1.917 . S
Mg161 O162 1.917 . S
Mg161 O172 2.106 . S
Mg161 O174 2.079 . S
Mg161 O183 2.106 . S
Mg161 O184 2.079 . S
O162 Mg161 1.917 . S
O162 Mg163 1.926 1_556 S
O162 Mg164 1.986 . S
Mg163 O162 1.926 1_554 S
Mg163 O177 1.984 . S
Mg163 O180 1.988 . S
Mg163 O181 2.061 1_554 S
Mg164 O162 1.986 . S
Mg164 O172 2.238 . S
Mg164 O176 2.042 1_556 S
Mg164 O178 2.041 1_556 S
Mg164 O185 2.038 . S
C165 O171 1.247 . S
C165 O172 1.289 . S
C166 O184 1.245 . S
C166 O185 1.274 . S
O167 C155 1.241 . S
O167 Mg160 2.042 . S
O168 C155 1.280 . S
O168 Mg158 1.984 . S
O169 C156 1.277 . S
O169 Mg160 2.041 . S
O170 C156 1.245 . S
O170 Mg158 1.988 . S
O171 Mg158 2.061 . S
O171 C165 1.247 . S
O172 Mg161 2.106 . S
O172 Mg164 2.238 . S
O172 C165 1.289 . S
C173 O174 1.245 . S
C173 O175 1.274 . S
O174 Mg161 2.079 . S
O174 C173 1.245 . S
O175 Mg160 2.038 . S
O175 C173 1.274 . S
O176 Mg164 2.042 1_554 S
O176 C179 1.241 . S
O177 Mg163 1.984 . S
O177 C179 1.280 . S
O178 Mg164 2.041 1_554 S
O178 C182 1.277 . S
C179 O176 1.241 . S
C179 O177 1.280 . S
O180 Mg163 1.988 . S
O180 C182 1.245 . S
O181 C157 1.247 . S
O181 Mg163 2.061 1_556 S
C182 O178 1.277 . S
C182 O180 1.245 . S
O183 C157 1.289 . S
O183 Mg160 2.238 . S
O183 Mg161 2.106 . S
O184 Mg161 2.079 . S
O184 C166 1.245 . S
O185 Mg164 2.038 . S
O185 C166 1.274 . S
C186 C187 1.369 . S
C186 C188 1.419 . S
C186 H190 0.930 . S
C187 C186 1.369 . S
C187 C196 1.429 . S
C188 C186 1.419 . S
C188 C189 1.363 . S
C188 H191 0.929 . S
C189 C188 1.363 . S
C189 C195 1.428 . S
H190 C186 0.930 . S
H191 C188 0.929 . S
S192 N193 1.613 . S
S192 N194 1.610 . S
N193 S192 1.613 . S
N193 C196 1.350 . S
N194 S192 1.610 . S
N194 C195 1.351 . S
C195 C189 1.428 . S
C195 N194 1.351 . S
C195 C196 1.434 . S
C196 C187 1.429 . S
C196 N193 1.350 . S
C196 C195 1.434 . S
C197 C198 1.369 . S
C197 C199 1.419 . S
C197 H201 0.930 . S
C198 C197 1.369 . S
C198 C207 1.429 . S
C199 C197 1.419 . S
C199 C200 1.363 . S
C199 H202 0.929 . S
C200 C199 1.363 . S
C200 C206 1.428 . S
H201 C197 0.930 . S
H202 C199 0.929 . S
S203 N204 1.613 . S
S203 N205 1.610 . S
N204 S203 1.613 . S
N204 C207 1.350 . S
N205 S203 1.610 . S
N205 C206 1.351 . S
C206 C200 1.428 . S
C206 N205 1.351 . S
C206 C207 1.434 . S
C207 C198 1.429 . S
C207 N204 1.350 . S
C207 C206 1.434 . S
C208 C209 1.369 . S
C208 C210 1.419 . S
C208 H212 0.930 . S
C209 C208 1.369 . S
C209 C218 1.429 . S
C210 C208 1.419 . S
C210 C211 1.363 . S
C210 H213 0.929 . S
C211 C210 1.363 . S
C211 C217 1.428 . S
H212 C208 0.930 . S
H213 C210 0.929 . S
S214 N215 1.613 . S
S214 N216 1.610 . S
N215 S214 1.613 . S
N215 C218 1.350 . S
N216 S214 1.610 . S
N216 C217 1.351 . S
C217 C211 1.428 . S
C217 N216 1.351 . S
C217 C218 1.434 . S
C218 C209 1.429 . S
C218 N215 1.350 . S
C218 C217 1.434 . S
C219 C220 1.369 . S
C219 C221 1.419 1_554 S
C219 H223 0.930 . S
C220 C219 1.369 . S
C220 C229 1.429 . S
C221 C219 1.419 1_556 S
C221 C222 1.363 . S
C221 H224 0.929 . S
C222 C221 1.363 . S
C222 C228 1.428 . S
H223 C219 0.930 . S
H224 C221 0.929 . S
S225 N226 1.613 . S
S225 N227 1.610 1_554 S
N226 S225 1.613 . S
N226 C229 1.350 . S
N227 S225 1.610 1_556 S
N227 C228 1.351 . S
C228 C222 1.428 . S
C228 N227 1.351 . S
C228 C229 1.434 1_556 S
C229 C220 1.429 . S
C229 N226 1.350 . S
C229 C228 1.434 1_554 S
C230 C231 1.369 . S
C230 C232 1.419 . S
C230 H234 0.930 . S
C231 C230 1.369 . S
C231 C240 1.429 . S
C232 C230 1.419 . S
C232 C233 1.363 . S
C232 H235 0.929 . S
C233 C232 1.363 . S
C233 C239 1.428 . S
H234 C230 0.930 . S
H235 C232 0.929 . S
S236 N237 1.613 1_565 S
S236 N238 1.610 1_565 S
N237 S236 1.613 1_545 S
N237 C240 1.350 . S
N238 S236 1.610 1_545 S
N238 C239 1.351 . S
C239 C233 1.428 . S
C239 N238 1.351 . S
C239 C240 1.434 . S
C240 C231 1.429 . S
C240 N237 1.350 . S
C240 C239 1.434 . S
C241 C242 1.369 . S
C241 C243 1.419 . S
C241 H245 0.930 . S
C242 C241 1.369 . S
C242 C251 1.429 . S
C243 C241 1.419 . S
C243 C244 1.363 . S
C243 H246 0.929 . S
C244 C243 1.363 . S
C244 C250 1.428 . S
H245 C241 0.930 . S
H246 C243 0.929 . S
S247 N248 1.613 . S
S247 N249 1.610 . S
N248 S247 1.613 . S
N248 C251 1.350 . S
N249 S247 1.610 . S
N249 C250 1.351 . S
C250 C244 1.428 . S
C250 N249 1.351 . S
C250 C251 1.434 . S
C251 C242 1.429 . S
C251 N248 1.350 . S
C251 C250 1.434 . S
C252 C253 1.369 . S
C252 C254 1.419 . S
C252 H256 0.930 . S
C253 C252 1.369 . S
C253 C262 1.429 . S
C254 C252 1.419 . S
C254 C255 1.363 . S
C254 H257 0.929 . S
C255 C254 1.363 . S
C255 C261 1.428 . S
H256 C252 0.930 . S
H257 C254 0.929 . S
S258 N259 1.613 . S
S258 N260 1.610 . S
N259 S258 1.613 . S
N259 C262 1.350 . S
N260 S258 1.610 . S
N260 C261 1.351 . S
C261 C255 1.428 . S
C261 N260 1.351 . S
C261 C262 1.434 . S
C262 C253 1.429 . S
C262 N259 1.350 . S
C262 C261 1.434 . S
C263 C264 1.369 . S
C263 C265 1.419 . S
C263 H267 0.930 . S
C264 C263 1.369 . S
C264 C273 1.429 . S
C265 C263 1.419 . S
C265 C266 1.363 . S
C265 H268 0.929 . S
C266 C265 1.363 . S
C266 C272 1.428 . S
H267 C263 0.930 . S
H268 C265 0.929 . S
S269 N270 1.613 . S
S269 N271 1.610 . S
N270 S269 1.613 . S
N270 C273 1.350 . S
N271 S269 1.610 . S
N271 C272 1.351 . S
C272 C266 1.428 . S
C272 N271 1.351 . S
C272 C273 1.434 . S
C273 C264 1.429 . S
C273 N270 1.350 . S
C273 C272 1.434 . S
C274 C275 1.369 . S
C274 C276 1.419 . S
C274 H278 0.930 1_554 S
C275 C274 1.369 . S
C275 C284 1.429 . S
C276 C274 1.419 . S
C276 C277 1.363 . S
C276 H279 0.929 . S
C277 C276 1.363 . S
C277 C283 1.428 . S
H278 C274 0.930 1_556 S
H279 C276 0.929 . S
S280 N281 1.613 . S
S280 N282 1.610 . S
N281 S280 1.613 . S
N281 C284 1.350 . S
N282 S280 1.610 . S
N282 C283 1.351 . S
C283 C277 1.428 . S
C283 N282 1.351 . S
C283 C284 1.434 . S
C284 C275 1.429 . S
C284 N281 1.350 . S
C284 C283 1.434 . S
C285 C286 1.369 . S
C285 C287 1.419 . S
C285 H289 0.930 . S
C286 C285 1.369 . S
C286 C295 1.429 . S
C287 C285 1.419 . S
C287 C288 1.363 . S
C287 H290 0.929 . S
C288 C287 1.363 . S
C288 C294 1.428 . S
H289 C285 0.930 . S
H290 C287 0.929 . S
S291 N292 1.613 . S
S291 N293 1.610 . S
N292 S291 1.613 . S
N292 C295 1.350 . S
N293 S291 1.610 . S
N293 C294 1.351 . S
C294 C288 1.428 . S
C294 N293 1.351 . S
C294 C295 1.434 . S
C295 C286 1.429 . S
C295 N292 1.350 . S
C295 C294 1.434 . S
C296 C297 1.369 . S
C296 C298 1.419 . S
C296 H300 0.930 . S
C297 C296 1.369 . S
C297 C306 1.429 . S
C298 C296 1.419 . S
C298 C299 1.363 . S
C298 H301 0.929 . S
C299 C298 1.363 . S
C299 C305 1.428 . S
H300 C296 0.930 . S
H301 C298 0.929 . S
S302 N303 1.613 . S
S302 N304 1.610 . S
N303 S302 1.613 . S
N303 C306 1.350 . S
N304 S302 1.610 . S
N304 C305 1.351 . S
C305 C299 1.428 . S
C305 N304 1.351 . S
C305 C306 1.434 . S
C306 C297 1.429 . S
C306 N303 1.350 . S
C306 C305 1.434 . S
C307 C308 1.369 . S
C307 C309 1.419 . S
C307 H311 0.930 . S
C308 C307 1.369 . S
C308 C317 1.429 . S
C309 C307 1.419 . S
C309 C310 1.363 . S
C309 H312 0.929 . S
C310 C309 1.363 . S
C310 C316 1.428 . S
H311 C307 0.930 . S
H312 C309 0.929 . S
S313 N314 1.613 . S
S313 N315 1.610 . S
N314 S313 1.613 . S
N314 C317 1.350 . S
N315 S313 1.610 . S
N315 C316 1.351 . S
C316 C310 1.428 . S
C316 N315 1.351 . S
C316 C317 1.434 . S
C317 C308 1.429 . S
C317 N314 1.350 . S
C317 C316 1.434 . S
C318 C319 1.369 . S
C318 C320 1.419 . S
C318 H322 0.930 1_554 S
C319 C318 1.369 . S
C319 C328 1.429 . S
C320 C318 1.419 . S
C320 C321 1.363 . S
C320 H323 0.929 1_554 S
C321 C320 1.363 . S
C321 C327 1.428 . S
H322 C318 0.930 1_556 S
H323 C320 0.929 1_556 S
S324 N325 1.613 . S
S324 N326 1.610 . S
N325 S324 1.613 . S
N325 C328 1.350 . S
N326 S324 1.610 . S
N326 C327 1.351 . S
C327 C321 1.428 . S
C327 N326 1.351 . S
C327 C328 1.434 . S
C328 C319 1.429 . S
C328 N325 1.350 . S
C328 C327 1.434 . S
C329 C330 1.369 . S
C329 C331 1.419 . S
C329 H333 0.930 . S
C330 C329 1.369 . S
C330 C339 1.429 . S
C331 C329 1.419 . S
C331 C332 1.363 . S
C331 H334 0.929 . S
C332 C331 1.363 . S
C332 C338 1.428 . S
H333 C329 0.930 . S
H334 C331 0.929 . S
S335 N336 1.613 . S
S335 N337 1.610 . S
N336 S335 1.613 . S
N336 C339 1.350 . S
N337 S335 1.610 . S
N337 C338 1.351 . S
C338 C332 1.428 . S
C338 N337 1.351 . S
C338 C339 1.434 . S
C339 C330 1.429 . S
C339 N336 1.350 . S
C339 C338 1.434 . S
C340 C341 1.369 . S
C340 C342 1.419 . S
C340 H344 0.930 . S
C341 C340 1.369 . S
C341 C350 1.429 . S
C342 C340 1.419 . S
C342 C343 1.363 . S
C342 H345 0.929 . S
C343 C342 1.363 . S
C343 C349 1.428 . S
H344 C340 0.930 . S
H345 C342 0.929 . S
S346 N347 1.613 . S
S346 N348 1.610 . S
N347 S346 1.613 . S
N347 C350 1.350 . S
N348 S346 1.610 . S
N348 C349 1.351 . S
C349 C343 1.428 . S
C349 N348 1.351 . S
C349 C350 1.434 . S
C350 C341 1.429 . S
C350 N347 1.350 . S
C350 C349 1.434 . S
C351 C352 1.369 . S
C351 C353 1.419 . S
C351 H355 0.930 . S
C352 C351 1.369 . S
C352 C361 1.429 . S
C353 C351 1.419 . S
C353 C354 1.363 . S
C353 H356 0.929 . S
C354 C353 1.363 . S
C354 C360 1.428 . S
H355 C351 0.930 . S
H356 C353 0.929 . S
S357 N358 1.613 . S
S357 N359 1.610 . S
N358 S357 1.613 . S
N358 C361 1.350 . S
N359 S357 1.610 . S
N359 C360 1.351 . S
C360 C354 1.428 . S
C360 N359 1.351 . S
C360 C361 1.434 . S
C361 C352 1.429 . S
C361 N358 1.350 . S
C361 C360 1.434 . S
C362 C363 1.369 . S
C362 C364 1.419 . S
C362 H366 0.930 . S
C363 C362 1.369 . S
C363 C372 1.429 . S
C364 C362 1.419 . S
C364 C365 1.363 . S
C364 H367 0.929 . S
C365 C364 1.363 . S
C365 C371 1.428 . S
H366 C362 0.930 . S
H367 C364 0.929 . S
S368 N369 1.613 . S
S368 N370 1.610 . S
N369 S368 1.613 . S
N369 C372 1.350 . S
N370 S368 1.610 . S
N370 C371 1.351 . S
C371 C365 1.428 . S
C371 N370 1.351 . S
C371 C372 1.434 . S
C372 C363 1.429 . S
C372 N369 1.350 . S
C372 C371 1.434 . S
C373 C374 1.369 . S
C373 C375 1.419 . S
C373 H377 0.930 . S
C374 C373 1.369 . S
C374 C383 1.429 . S
C375 C373 1.419 . S
C375 C376 1.363 . S
C375 H378 0.929 . S
C376 C375 1.363 . S
C376 C382 1.428 . S
H377 C373 0.930 . S
H378 C375 0.929 . S
S379 N380 1.613 . S
S379 N381 1.610 . S
N380 S379 1.613 . S
N380 C383 1.350 . S
N381 S379 1.610 . S
N381 C382 1.351 . S
C382 C376 1.428 . S
C382 N381 1.351 . S
C382 C383 1.434 . S
C383 C374 1.429 . S
C383 N380 1.350 . S
C383 C382 1.434 . S
C384 C385 1.369 . S
C384 C386 1.419 . S
C384 H388 0.930 . S
C385 C384 1.369 . S
C385 C394 1.429 . S
C386 C384 1.419 . S
C386 C387 1.363 . S
C386 H389 0.929 . S
C387 C386 1.363 . S
C387 C393 1.428 . S
H388 C384 0.930 . S
H389 C386 0.929 . S
S390 N391 1.613 . S
S390 N392 1.610 . S
N391 S390 1.613 . S
N391 C394 1.350 1_655 S
N392 S390 1.610 . S
N392 C393 1.351 1_655 S
C393 C387 1.428 . S
C393 N392 1.351 1_455 S
C393 C394 1.434 . S
C394 C385 1.429 . S
C394 N391 1.350 1_455 S
C394 C393 1.434 . S
C395 C396 1.369 . S
C395 C397 1.419 . S
C395 H399 0.930 1_545 S
C396 C395 1.369 . S
C396 C405 1.429 . S
C397 C395 1.419 . S
C397 C398 1.363 . S
C397 H400 0.929 1_545 S
C398 C397 1.363 . S
C398 C404 1.428 . S
H399 C395 0.930 1_565 S
H400 C397 0.929 1_565 S
S401 N402 1.613 . S
S401 N403 1.610 . S
N402 S401 1.613 . S
N402 C405 1.350 . S
N403 S401 1.610 . S
N403 C404 1.351 . S
C404 C398 1.428 . S
C404 N403 1.351 . S
C404 C405 1.434 . S
C405 C396 1.429 . S
C405 N402 1.350 . S
C405 C404 1.434 . S
C406 C407 1.369 . S
C406 C408 1.419 . S
C406 H410 0.930 . S
C407 C406 1.369 . S
C407 C416 1.429 . S
C408 C406 1.419 . S
C408 C409 1.363 . S
C408 H411 0.929 . S
C409 C408 1.363 . S
C409 C415 1.428 . S
H410 C406 0.930 . S
H411 C408 0.929 . S
S412 N413 1.613 . S
S412 N414 1.610 . S
N413 S412 1.613 . S
N413 C416 1.350 . S
N414 S412 1.610 . S
N414 C415 1.351 . S
C415 C409 1.428 . S
C415 N414 1.351 . S
C415 C416 1.434 . S
C416 C407 1.429 . S
C416 N413 1.350 . S
C416 C415 1.434 . S
C417 C418 1.369 . S
C417 C419 1.419 . S
C417 H421 0.930 . S
C418 C417 1.369 . S
C418 C427 1.429 . S
C419 C417 1.419 . S
C419 C420 1.363 . S
C419 H422 0.929 . S
C420 C419 1.363 . S
C420 C426 1.428 . S
H421 C417 0.930 . S
H422 C419 0.929 . S
S423 N424 1.613 . S
S423 N425 1.610 . S
N424 S423 1.613 . S
N424 C427 1.350 1_455 S
N425 S423 1.610 . S
N425 C426 1.351 1_455 S
C426 C420 1.428 . S
C426 N425 1.351 1_655 S
C426 C427 1.434 . S
C427 C418 1.429 . S
C427 N424 1.350 1_655 S
C427 C426 1.434 . S
C428 C429 1.369 1_556 S
C428 C430 1.419 . S
C428 H432 0.930 . S
C429 C428 1.369 1_554 S
C429 C438 1.429 . S
C430 C428 1.419 . S
C430 C431 1.363 . S
C430 H433 0.929 . S
C431 C430 1.363 . S
C431 C437 1.428 . S
H432 C428 0.930 . S
H433 C430 0.929 . S
S434 N435 1.613 . S
S434 N436 1.610 . S
N435 S434 1.613 . S
N435 C438 1.350 . S
N436 S434 1.610 . S
N436 C437 1.351 1_554 S
C437 C431 1.428 . S
C437 N436 1.351 1_556 S
C437 C438 1.434 1_556 S
C438 C429 1.429 . S
C438 N435 1.350 . S
C438 C437 1.434 1_554 S
C439 C440 1.369 . S
C439 C441 1.419 . S
C439 H443 0.930 . S
C440 C439 1.369 . S
C440 C449 1.429 . S
C441 C439 1.419 . S
C441 C442 1.363 . S
C441 H444 0.929 . S
C442 C441 1.363 . S
C442 C448 1.428 . S
H443 C439 0.930 . S
H444 C441 0.929 . S
S445 N446 1.613 . S
S445 N447 1.610 1_556 S
N446 S445 1.613 . S
N446 C449 1.350 1_556 S
N447 S445 1.610 1_554 S
N447 C448 1.351 . S
C448 C442 1.428 . S
C448 N447 1.351 . S
C448 C449 1.434 . S
C449 C440 1.429 . S
C449 N446 1.350 1_554 S
C449 C448 1.434 . S
C187 C27 1.444 . S
C189 C1 1.438 . S
C198 C58 1.436 . S
C200 C32 1.443 . S
C209 C63 1.440 1_556 S
C211 C89 1.440 . S
C220 C94 1.439 . S
C222 C120 1.441 . S
C231 C151 1.435 1_554 S
C233 C125 1.444 . S
C242 C182 1.442 . S
C244 C156 1.438 . S
C253 C134 1.493 . S
C255 C0 1.536 . S
C264 C31 1.543 . S
C266 C165 1.495 . S
C275 C10 1.503 . S
C277 C62 1.538 . S
C286 C41 1.503 . S
C288 C93 1.539 . S
C297 C124 1.541 . S
C299 C72 1.494 . S
C308 C103 1.497 . S
C310 C155 1.541 . S
C319 C18 2.073 . S
C321 C33 2.051 1_545 S
C330 C49 2.065 . S
C332 C64 2.058 . S
C341 C95 2.051 1_655 S
C343 C80 2.072 . S
C352 C111 2.064 . S
C354 C126 2.059 1_565 S
C363 C142 2.065 . S
C365 C157 2.058 . S
C374 C2 2.057 1_455 S
C376 C173 2.067 . S
C385 C24 1.053 . S
C387 C104 1.294 . S
C396 C135 1.285 . S
C398 C55 1.064 . S
C407 C86 1.062 . S
C409 C166 1.286 . S
C418 C117 1.042 . S
C420 C11 1.295 . S
C429 C42 1.285 . S
C431 C148 1.060 . S
C440 C179 1.056 . S
C442 C73 1.293 . S
