# Generated by pormake.
# Topology fnj, (5)-cn, num edge types: 1
# Building blocks:
#     Node 0, Type 0, BuildingBlock: XOMCOT_clean_sbu_1, # of connection points: 5
#     Node 1, Type 0, BuildingBlock: XOMCOT_clean_sbu_1, # of connection points: 5
#     Node 2, Type 0, BuildingBlock: XOMCOT_clean_sbu_1, # of connection points: 5
#     Node 3, Type 0, BuildingBlock: XOMCOT_clean_sbu_1, # of connection points: 5
#     Node 4, Type 0, BuildingBlock: XOMCOT_clean_sbu_1, # of connection points: 5
#     Node 5, Type 0, BuildingBlock: XOMCOT_clean_sbu_1, # of connection points: 5
#     Node 6, Type 0, BuildingBlock: XOMCOT_clean_sbu_1, # of connection points: 5
#     Node 7, Type 0, BuildingBlock: XOMCOT_clean_sbu_1, # of connection points: 5
#     Node 8, Type 0, BuildingBlock: XOMCOT_clean_sbu_1, # of connection points: 5
#     Node 9, Type 0, BuildingBlock: XOMCOT_clean_sbu_1, # of connection points: 5
#     Node 10, Type 0, BuildingBlock: XOMCOT_clean_sbu_1, # of connection points: 5
#     Node 11, Type 0, BuildingBlock: XOMCOT_clean_sbu_1, # of connection points: 5
#     Node 12, Type 0, BuildingBlock: XOMCOT_clean_sbu_1, # of connection points: 5
#     Node 13, Type 0, BuildingBlock: XOMCOT_clean_sbu_1, # of connection points: 5
#     Node 14, Type 0, BuildingBlock: XOMCOT_clean_sbu_1, # of connection points: 5
#     Node 15, Type 0, BuildingBlock: XOMCOT_clean_sbu_1, # of connection points: 5
#     Edge 16, Type (0, 0), BuildingBlock: CIFDUS_clean_linker_0, # of connection points: 2
#     Edge 17, Type (0, 0), BuildingBlock: CIFDUS_clean_linker_0, # of connection points: 2
#     Edge 18, Type (0, 0), BuildingBlock: CIFDUS_clean_linker_0, # of connection points: 2
#     Edge 19, Type (0, 0), BuildingBlock: CIFDUS_clean_linker_0, # of connection points: 2
#     Edge 20, Type (0, 0), BuildingBlock: CIFDUS_clean_linker_0, # of connection points: 2
#     Edge 21, Type (0, 0), BuildingBlock: CIFDUS_clean_linker_0, # of connection points: 2
#     Edge 22, Type (0, 0), BuildingBlock: CIFDUS_clean_linker_0, # of connection points: 2
#     Edge 23, Type (0, 0), BuildingBlock: CIFDUS_clean_linker_0, # of connection points: 2
#     Edge 24, Type (0, 0), BuildingBlock: CIFDUS_clean_linker_0, # of connection points: 2
#     Edge 25, Type (0, 0), BuildingBlock: CIFDUS_clean_linker_0, # of connection points: 2
#     Edge 26, Type (0, 0), BuildingBlock: CIFDUS_clean_linker_0, # of connection points: 2
#     Edge 27, Type (0, 0), BuildingBlock: CIFDUS_clean_linker_0, # of connection points: 2
#     Edge 28, Type (0, 0), BuildingBlock: CIFDUS_clean_linker_0, # of connection points: 2
#     Edge 29, Type (0, 0), BuildingBlock: CIFDUS_clean_linker_0, # of connection points: 2
#     Edge 30, Type (0, 0), BuildingBlock: CIFDUS_clean_linker_0, # of connection points: 2
#     Edge 31, Type (0, 0), BuildingBlock: CIFDUS_clean_linker_0, # of connection points: 2
#     Edge 32, Type (0, 0), BuildingBlock: CIFDUS_clean_linker_0, # of connection points: 2
#     Edge 33, Type (0, 0), BuildingBlock: CIFDUS_clean_linker_0, # of connection points: 2
#     Edge 34, Type (0, 0), BuildingBlock: CIFDUS_clean_linker_0, # of connection points: 2
#     Edge 35, Type (0, 0), BuildingBlock: CIFDUS_clean_linker_0, # of connection points: 2
#     Edge 36, Type (0, 0), BuildingBlock: CIFDUS_clean_linker_0, # of connection points: 2
#     Edge 37, Type (0, 0), BuildingBlock: CIFDUS_clean_linker_0, # of connection points: 2
#     Edge 38, Type (0, 0), BuildingBlock: CIFDUS_clean_linker_0, # of connection points: 2
#     Edge 39, Type (0, 0), BuildingBlock: CIFDUS_clean_linker_0, # of connection points: 2
#     Edge 40, Type (0, 0), BuildingBlock: CIFDUS_clean_linker_0, # of connection points: 2
#     Edge 41, Type (0, 0), BuildingBlock: CIFDUS_clean_linker_0, # of connection points: 2
#     Edge 42, Type (0, 0), BuildingBlock: CIFDUS_clean_linker_0, # of connection points: 2
#     Edge 43, Type (0, 0), BuildingBlock: CIFDUS_clean_linker_0, # of connection points: 2
#     Edge 44, Type (0, 0), BuildingBlock: CIFDUS_clean_linker_0, # of connection points: 2
#     Edge 45, Type (0, 0), BuildingBlock: CIFDUS_clean_linker_0, # of connection points: 2
#     Edge 46, Type (0, 0), BuildingBlock: CIFDUS_clean_linker_0, # of connection points: 2
#     Edge 47, Type (0, 0), BuildingBlock: CIFDUS_clean_linker_0, # of connection points: 2
#     Edge 48, Type (0, 0), BuildingBlock: CIFDUS_clean_linker_0, # of connection points: 2
#     Edge 49, Type (0, 0), BuildingBlock: CIFDUS_clean_linker_0, # of connection points: 2
#     Edge 50, Type (0, 0), BuildingBlock: CIFDUS_clean_linker_0, # of connection points: 2
#     Edge 51, Type (0, 0), BuildingBlock: CIFDUS_clean_linker_0, # of connection points: 2
#     Edge 52, Type (0, 0), BuildingBlock: CIFDUS_clean_linker_0, # of connection points: 2
#     Edge 53, Type (0, 0), BuildingBlock: CIFDUS_clean_linker_0, # of connection points: 2
#     Edge 54, Type (0, 0), BuildingBlock: CIFDUS_clean_linker_0, # of connection points: 2
#     Edge 55, Type (0, 0), BuildingBlock: CIFDUS_clean_linker_0, # of connection points: 2
# Relax obj value: 0.165
# Max RMSD: 0.163
# Mean RMSD: 0.158
data_MOF--net-fnj--node1-XOMCOT_clean_sbu_1--edge1-CIFDUS_clean_linker_0
_symmetry_space_group_name_H-M    P1
_symmetry_Int_Tables_number       1
_symmetry_cell_setting            triclinic
loop_
_symmetry_equiv_pos_as_xyz
'x, y, z'
_cell_length_a     66.430995
_cell_length_b     66.494327
_cell_length_c     15.686299
_cell_angle_alpha  93.229875
_cell_angle_beta   93.136489
_cell_angle_gamma 90.838273
loop_
_atom_site_label
_atom_site_type_symbol
_atom_site_fract_x
_atom_site_fract_y
_atom_site_fract_z
_atom_type_partial_charge
C0 C 0.41057 0.02103 0.30092 0.0
C1 C 0.40997 0.02154 0.38839 0.0
N2 N 0.41535 0.04023 0.4198 0.0
N3 N 0.41622 0.03938 0.27714 0.0
C4 C 0.41886 0.05079 0.35098 0.0
H5 H 0.40792 1.00785 0.25808 0.0
Co6 Co 0.4227 0.04668 0.1686 0.0
C7 C 0.39465 0.0792 0.12825 0.0
O8 O 0.39425 0.07236 0.04795 0.0
N9 N 0.42992 0.05459 0.05912 0.0
C10 C 0.4406 0.07441 0.9596 0.0
C11 C 0.43744 0.07309 0.04512 0.0
C12 C 0.4294 0.0448 0.98089 0.0
N13 N 0.43552 0.05652 0.91961 0.0
O14 O 0.44693 0.05962 0.2142 0.0
H15 H 0.4399 0.08516 0.09391 0.0
H16 H 0.42418 0.02955 0.96677 0.0
O17 O 0.40598 0.07087 0.18445 0.0
C18 C 0.45974 0.04554 0.22048 0.0
O19 O 0.45291 0.02739 0.23356 0.0
N20 N 0.40085 0.03153 0.12178 0.0
C21 C 0.37419 1.00516 0.02868 0.0
C22 C 0.36697 0.02145 0.07906 0.0
C23 C 0.38065 0.03447 0.12605 0.0
C24 C 0.40773 0.01417 0.08537 0.0
C25 C 0.39493 1.00137 0.03476 0.0
H26 H 0.375 0.04673 0.16536 0.0
H27 H 0.42372 0.01118 0.09012 0.0
H28 H 0.42447 0.0662 0.35441 0.0
H29 H 0.40641 0.00894 0.42605 0.0
H30 H 0.44601 0.0875 0.92918 0.0
H31 H 0.35102 0.02423 0.08231 0.0
H32 H 0.40167 0.98917 0.9986 0.0
C33 C 0.2813 0.19271 0.46341 0.0
C34 C 0.28169 0.19405 0.5513 0.0
N35 N 0.26253 0.19465 0.57497 0.0
N36 N 0.26195 0.19211 0.43218 0.0
C37 C 0.2509 0.19366 0.50175 0.0
H38 H 0.29433 0.19218 0.42507 0.0
Co39 Co 0.25225 0.18967 0.31886 0.0
C40 C 0.21651 0.16024 0.32018 0.0
O41 O 0.22083 0.15246 0.24464 0.0
N42 N 0.24226 0.18783 0.20471 0.0
C43 C 0.22189 0.19146 0.0894 0.0
C44 C 0.22331 0.19228 0.17731 0.0
C45 C 0.25217 0.18491 0.13229 0.0
N46 N 0.24013 0.18682 0.06127 0.0
O47 O 0.24081 0.21646 0.33076 0.0
H48 H 0.21136 0.19633 0.21883 0.0
H49 H 0.26816 0.18258 0.13088 0.0
O50 O 0.22747 0.17495 0.35519 0.0
C51 C 0.2554 0.22829 0.31393 0.0
O52 O 0.27287 0.22015 0.29973 0.0
N53 N 0.26693 0.1658 0.30389 0.0
C54 C 0.29784 0.13814 0.28042 0.0
C55 C 0.27979 0.13232 0.31638 0.0
C56 C 0.26448 0.14656 0.32871 0.0
C57 C 0.2847 0.1716 0.27276 0.0
C58 C 0.30014 0.15822 0.26033 0.0
H59 H 0.25116 0.14221 0.36004 0.0
H60 H 0.28716 0.18711 0.25893 0.0
H61 H 0.23459 0.19371 0.49898 0.0
H62 H 0.29501 0.19466 0.59444 0.0
H63 H 0.20854 0.19436 0.04963 0.0
H64 H 0.27758 0.11704 0.33497 0.0
H65 H 0.31403 0.16382 0.23652 0.0
C66 C 0.09738 0.02158 0.37014 0.0
C67 C 0.09724 0.01821 0.28287 0.0
N68 N 0.10178 0.03563 0.24722 0.0
N69 N 0.10199 0.04106 0.39119 0.0
C70 C 0.10446 0.0493 0.31498 0.0
H71 H 0.09414 0.01049 0.41557 0.0
Co72 Co 0.10333 0.05213 0.50512 0.0
C73 C 0.13261 0.08767 0.50398 0.0
O74 O 0.13896 0.08407 0.58235 0.0
N75 N 0.10399 0.06332 0.62075 0.0
C76 C 0.09786 0.08553 0.72765 0.0
C77 C 0.09777 0.08216 0.64041 0.0
C78 C 0.10745 0.05542 0.69845 0.0
N79 N 0.10395 0.06871 0.76489 0.0
O80 O 0.07632 0.06283 0.48674 0.0
H81 H 0.09297 0.09273 0.59377 0.0
H82 H 0.11207 0.04014 0.7067 0.0
O83 O 0.11817 0.07664 0.46684 0.0
C84 C 0.06479 0.04882 0.51153 0.0
O85 O 0.07344 0.03262 0.53916 0.0
N86 N 0.12728 0.0383 0.52558 0.0
C87 C 0.15615 0.00891 0.55176 0.0
C88 C 0.16101 0.02651 0.51098 0.0
C89 C 0.14609 0.04089 0.49626 0.0
C90 C 0.12243 0.02109 0.56346 0.0
C91 C 0.13656 1.00634 0.5777 0.0
H92 H 0.14956 0.05352 0.45909 0.0
H93 H 0.10721 0.01856 0.58162 0.0
H94 H 0.10803 0.06504 0.30949 0.0
H95 H 0.09366 1.0039 0.24892 0.0
H96 H 0.09301 0.09918 0.76069 0.0
H97 H 0.17598 0.02882 0.48877 0.0
H98 H 0.13217 0.99306 0.60966 0.0
C99 C 0.27414 0.88599 0.60482 0.0
C100 C 0.27442 0.88467 0.51716 0.0
N101 N 0.25529 0.88205 0.48507 0.0
N102 N 0.25487 0.88451 0.62718 0.0
C103 C 0.24377 0.88186 0.55293 0.0
H104 H 0.28709 0.88817 0.64937 0.0
Co105 Co 0.24574 0.88625 0.73637 0.0
C106 C 0.21299 0.91499 0.72943 0.0
O107 O 0.21986 0.92164 0.80618 0.0
N108 N 0.23607 0.88715 0.84756 0.0
C109 C 0.21512 0.88186 0.95075 0.0
C110 C 0.21723 0.881 0.86401 0.0
C111 C 0.2452 0.89116 0.92589 0.0
N112 N 0.23278 0.88833 0.98936 0.0
O113 O 0.23506 0.85954 0.72064 0.0
H114 H 0.20576 0.87595 0.81562 0.0
H115 H 0.26088 0.89512 0.9379 0.0
O116 O 0.22091 0.89947 0.69314 0.0
C117 C 0.25065 0.84975 0.74442 0.0
O118 O 0.26777 0.85976 0.76028 0.0
N119 N 0.2591 0.91105 0.75414 0.0
C120 C 0.28648 0.94295 0.78102 0.0
C121 C 0.26987 0.94437 0.72293 0.0
C122 C 0.25656 0.92787 0.70843 0.0
C123 C 0.276 0.9091 0.80522 0.0
C124 C 0.2893 0.92506 0.82287 0.0
H125 H 0.24497 0.92828 0.65769 0.0
H126 H 0.27962 0.89471 0.83004 0.0
H127 H 0.22749 0.88035 0.54856 0.0
H128 H 0.28761 0.88562 0.47987 0.0
H129 H 0.20172 0.87786 0.98271 0.0
H130 H 0.26767 0.95765 0.68683 0.0
H131 H 0.302 0.92309 0.86777 0.0
C132 C 0.59678 0.05632 0.83564 0.0
C133 C 0.5956 0.05645 0.74801 0.0
N134 N 0.59323 0.03727 0.71633 0.0
N135 N 0.59543 0.0371 0.85843 0.0
C136 C 0.59304 0.02586 0.78442 0.0
H137 H 0.59874 0.06935 0.8799 0.0
Co138 Co 0.59707 0.02815 0.96783 0.0
C139 C 0.6271 0.99648 0.9634 0.0
O140 O 0.63334 1.00374 0.04012 0.0
N141 N 0.59794 0.0186 0.07896 0.0
C142 C 0.59335 0.99741 0.18174 0.0
C143 C 0.59239 0.99958 0.09509 0.0
C144 C 0.60167 0.02777 0.15738 0.0
N145 N 0.59929 0.0152 0.22055 0.0
O146 O 0.57071 0.01644 0.95127 0.0
H147 H 0.58778 0.98799 0.04652 0.0
H148 H 0.60519 0.04353 0.16971 0.0
O149 O 0.6114 1.0038 0.92597 0.0
C150 C 0.55994 0.03165 0.97105 0.0
O151 O 0.5688 0.04951 0.97937 0.0
N152 N 0.62133 0.04242 0.98714 0.0
C153 C 0.65296 0.06983 0.02329 0.0
C154 C 0.65494 0.05367 0.96307 0.0
C155 C 0.63862 0.04034 0.94408 0.0
C156 C 0.61864 0.05916 0.03834 0.0
C157 C 0.63443 0.07243 0.06084 0.0
H158 H 0.63967 0.0289 0.89303 0.0
H159 H 0.60391 0.06236 0.06111 0.0
H160 H 0.59172 0.00958 0.78045 0.0
H161 H 0.59645 0.06957 0.71044 0.0
H162 H 0.58986 0.98386 0.21351 0.0
H163 H 0.66864 0.05168 0.92947 0.0
H164 H 0.6319 0.08467 0.10726 0.0
C165 C 0.73526 0.88384 0.62035 0.0
C166 C 0.73218 0.88311 0.53291 0.0
N167 N 0.7502 0.88408 0.49735 0.0
N168 N 0.75515 0.88551 0.64152 0.0
C169 C 0.76392 0.88553 0.56515 0.0
H170 H 0.72363 0.88316 0.66574 0.0
Co171 Co 0.76617 0.88689 0.7556 0.0
C172 C 0.80163 0.9162 0.75202 0.0
O173 O 0.79774 0.92324 0.82922 0.0
N174 N 0.77736 0.88765 0.8713 0.0
C175 C 0.79999 0.8834 0.97914 0.0
C176 C 0.79667 0.8829 0.89167 0.0
C177 C 0.76909 0.89027 0.94871 0.0
N178 N 0.78261 0.88798 0.01532 0.0
O179 O 0.77674 0.85987 0.73772 0.0
H180 H 0.80767 0.879 0.84543 0.0
H181 H 0.75344 0.89354 0.95703 0.0
O182 O 0.79075 0.90148 0.71645 0.0
C183 C 0.7624 0.84844 0.76041 0.0
O184 O 0.74595 0.85716 0.78535 0.0
N185 N 0.75242 0.91098 0.77597 0.0
C186 C 0.72282 0.93981 0.79989 0.0
C187 C 0.74032 0.94447 0.75784 0.0
C188 C 0.7548 0.92956 0.74432 0.0
C189 C 0.73534 0.90638 0.81558 0.0
C190 C 0.72051 0.92049 0.82876 0.0
H191 H 0.76728 0.93279 0.70578 0.0
H192 H 0.73281 0.89125 0.83456 0.0
H193 H 0.78006 0.88622 0.55946 0.0
H194 H 0.71759 0.88213 0.4986 0.0
H195 H 0.81399 0.87998 0.01346 0.0
H196 H 0.74241 0.95921 0.73331 0.0
H197 H 0.70727 0.91625 0.86147 0.0
C198 C 0.90973 0.06296 0.69429 0.0
C199 C 0.91053 0.06597 0.78179 0.0
N200 N 0.90957 0.04794 0.81697 0.0
N201 N 0.90804 0.0431 0.6727 0.0
C202 C 0.90806 0.03428 0.7489 0.0
H203 H 0.9104 0.07462 0.64918 0.0
Co204 Co 0.90659 0.03205 0.55847 0.0
C205 C 0.87682 0.99701 0.56317 0.0
O206 O 0.86929 1.00118 0.48713 0.0
N207 N 0.90573 0.02076 0.44269 0.0
C208 C 0.90948 0.99794 0.33492 0.0
C209 C 0.90994 1.00132 0.4224 0.0
C210 C 0.90344 0.02902 0.3652 0.0
N211 N 0.90544 0.01539 0.29863 0.0
O212 O 0.93348 0.02106 0.57647 0.0
H213 H 0.91348 0.99025 0.46867 0.0
H214 H 0.90062 0.04473 0.3567 0.0
O215 O 0.89176 1.00772 0.59768 0.0
C216 C 0.94512 0.03533 0.5548 0.0
O217 O 0.93662 0.05199 0.53145 0.0
N218 N 0.88272 0.04625 0.53762 0.0
C219 C 0.8553 0.0772 0.51088 0.0
C220 C 0.84982 0.0602 0.55494 0.0
C221 C 0.86396 0.04489 0.56883 0.0
C222 C 0.88822 0.06294 0.49763 0.0
C223 C 0.87492 0.07836 0.4833 0.0
H224 H 0.86006 0.03259 0.60726 0.0
H225 H 0.90354 0.06481 0.47983 0.0
H226 H 0.90738 0.01815 0.75428 0.0
H227 H 0.91154 0.08051 0.81642 0.0
H228 H 0.91255 0.98382 0.3007 0.0
H229 H 0.83496 0.05889 0.57939 0.0
H230 H 0.88037 0.0915 0.45325 0.0
C231 C 0.73945 0.19135 0.53094 0.0
C232 C 0.73997 0.19079 0.61837 0.0
N233 N 0.75876 0.19589 0.64947 0.0
N234 N 0.75788 0.19668 0.50684 0.0
C235 C 0.76936 0.19919 0.58048 0.0
H236 H 0.72619 0.18888 0.48836 0.0
Co237 Co 0.76524 0.20293 0.39806 0.0
C238 C 0.79705 0.1742 0.35682 0.0
O239 O 0.78989 0.17381 0.27699 0.0
N240 N 0.77323 0.20989 0.28855 0.0
C241 C 0.79321 0.22032 0.18909 0.0
C242 C 0.79184 0.21717 0.27453 0.0
C243 C 0.76344 0.20944 0.21039 0.0
N244 N 0.77526 0.21546 0.14918 0.0
O245 O 0.77854 0.22704 0.44323 0.0
H246 H 0.80393 0.2195 0.32328 0.0
H247 H 0.74814 0.20431 0.19631 0.0
O248 O 0.78917 0.18582 0.41344 0.0
C249 C 0.76437 0.23979 0.44895 0.0
O250 O 0.74606 0.23284 0.45851 0.0
N251 N 0.74966 0.18133 0.35181 0.0
C252 C 0.72129 0.15502 0.26879 0.0
C253 C 0.73795 0.14759 0.31592 0.0
C254 C 0.75196 0.1611 0.35812 0.0
C255 C 0.73236 0.18859 0.31639 0.0
C256 C 0.71851 0.1759 0.27095 0.0
H257 H 0.76431 0.1553 0.39639 0.0
H258 H 0.72993 0.20467 0.31957 0.0
H259 H 0.78487 0.20455 0.58366 0.0
H260 H 0.72732 0.18745 0.65624 0.0
H261 H 0.80637 0.22561 0.15866 0.0
H262 H 0.74011 0.13159 0.32095 0.0
H263 H 0.70608 0.18267 0.23634 0.0
C264 C 0.91694 0.53022 0.75734 0.0
C265 C 0.91723 0.5304 0.84507 0.0
N266 N 0.92032 0.54956 0.87626 0.0
N267 N 0.91978 0.54921 0.73388 0.0
C268 C 0.92184 0.56062 0.80753 0.0
H269 H 0.915 0.51711 0.71346 0.0
Co270 Co 0.92199 0.55784 0.62475 0.0
C271 C 0.89327 0.59061 0.61449 0.0
O272 O 0.88912 0.58378 0.53512 0.0
N273 N 0.92523 0.56711 0.51435 0.0
C274 C 0.93406 0.58786 0.41507 0.0
C275 C 0.93089 0.58625 0.50029 0.0
C276 C 0.92606 0.55726 0.43689 0.0
N277 N 0.93109 0.56952 0.37581 0.0
O278 O 0.94842 0.56821 0.65472 0.0
H279 H 0.93296 0.59827 0.54951 0.0
H280 H 0.92351 0.54136 0.42396 0.0
O281 O 0.90776 0.58288 0.65855 0.0
C282 C 0.95839 0.5522 0.63895 0.0
O283 O 0.94829 0.53507 0.62494 0.0
N284 N 0.89753 0.54479 0.59284 0.0
C285 C 0.86485 0.51983 0.53935 0.0
C286 C 0.86276 0.53537 0.60241 0.0
C287 C 0.87951 0.54749 0.62969 0.0
C288 C 0.90017 0.5284 0.53968 0.0
C289 C 0.88395 0.51659 0.50766 0.0
H290 H 0.87818 0.55841 0.68254 0.0
H291 H 0.91515 0.52396 0.52454 0.0
H292 H 0.925 0.57667 0.81064 0.0
H293 H 0.91527 0.51746 0.88286 0.0
H294 H 0.93871 0.60127 0.38482 0.0
H295 H 0.84863 0.5377 0.63248 0.0
H296 H 0.8867 0.50473 0.45987 0.0
C297 C 0.77501 0.69587 0.93445 0.0
C298 C 0.77826 0.69538 0.02143 0.0
N299 N 0.76091 0.68991 0.05539 0.0
N300 N 0.75568 0.69078 0.91222 0.0
C301 C 0.74737 0.68729 0.98729 0.0
H302 H 0.78607 0.69991 0.89001 0.0
Co303 Co 0.74532 0.69037 0.7982 0.0
C304 C 0.71252 0.65922 0.78123 0.0
O305 O 0.72089 0.65388 0.70962 0.0
N306 N 0.73471 0.69076 0.68192 0.0
C307 C 0.71224 0.69732 0.57677 0.0
C308 C 0.71593 0.69735 0.66366 0.0
C309 C 0.74217 0.68691 0.6036 0.0
N310 N 0.72874 0.69071 0.53819 0.0
O311 O 0.73393 0.71702 0.82029 0.0
H312 H 0.70551 0.70214 0.71107 0.0
H313 H 0.75713 0.68148 0.59409 0.0
O314 O 0.7204 0.6742 0.8282 0.0
C315 C 0.74807 0.72876 0.7978 0.0
O316 O 0.76444 0.72031 0.77064 0.0
N317 N 0.76023 0.66712 0.77527 0.0
C318 C 0.79178 0.64035 0.75515 0.0
C319 C 0.77462 0.6347 0.79728 0.0
C320 C 0.75917 0.64866 0.80929 0.0
C321 C 0.77703 0.67269 0.73579 0.0
C322 C 0.79282 0.65959 0.72443 0.0
H323 H 0.74695 0.6449 0.84846 0.0
H324 H 0.77857 0.68782 0.7153 0.0
H325 H 0.73174 0.68291 0.99175 0.0
H326 H 0.79234 0.6993 0.05676 0.0
H327 H 0.69853 0.70238 0.54504 0.0
H328 H 0.77355 0.62 0.82326 0.0
H329 H 0.80584 0.66453 0.69193 0.0
C330 C 0.60165 0.51933 0.87471 0.0
C331 C 0.59886 0.5189 0.78736 0.0
N332 N 0.59847 0.538 0.76337 0.0
N333 N 0.6035 0.53864 0.9063 0.0
C334 C 0.60061 0.54963 0.83681 0.0
H335 H 0.60203 0.50616 0.9117 0.0
Co336 Co 0.60732 0.54837 0.0212 0.0
C337 C 0.63652 0.57508 0.93206 0.0
O338 O 0.6415 0.55943 0.88329 0.0
N339 N 0.61036 0.55796 0.13446 0.0
C340 C 0.61254 0.57769 0.25372 0.0
C341 C 0.61242 0.57724 0.16587 0.0
C342 C 0.60912 0.54702 0.20378 0.0
N343 N 0.61047 0.55863 0.27727 0.0
O344 O 0.58094 0.56101 0.01179 0.0
H345 H 0.61327 0.59021 0.1276 0.0
H346 H 0.60651 0.5309 0.20024 0.0
O347 O 0.62317 0.57291 0.98763 0.0
C348 C 0.56892 0.54717 0.03462 0.0
O349 O 0.5769 0.53011 0.05587 0.0
N350 N 0.63068 0.53276 0.03702 0.0
C351 C 0.65778 0.50238 0.07761 0.0
C352 C 0.66485 0.5219 0.06291 0.0
C353 C 0.65092 0.53712 0.04429 0.0
C354 C 0.62392 0.51404 0.05386 0.0
C355 C 0.63701 0.49869 0.07224 0.0
H356 H 0.65646 0.5523 0.03881 0.0
H357 H 0.60798 0.51094 0.05441 0.0
H358 H 0.60076 0.56592 0.83985 0.0
H359 H 0.59724 0.50551 0.7449 0.0
H360 H 0.61398 0.591 0.29677 0.0
H361 H 0.68082 0.52552 0.06884 0.0
H362 H 0.63077 0.48397 0.08318 0.0
C363 C 0.77488 0.38804 0.11485 0.0
C364 C 0.77427 0.38794 0.02718 0.0
N365 N 0.75544 0.38264 0.99758 0.0
N366 N 0.7564 0.3831 0.13976 0.0
C367 C 0.74493 0.37978 0.06683 0.0
H368 H 0.78805 0.39121 0.15726 0.0
Co369 Co 0.74783 0.38014 0.24865 0.0
C370 C 0.71389 0.40807 0.26515 0.0
O371 O 0.71949 0.41116 0.34644 0.0
N372 N 0.73858 0.37662 0.35854 0.0
C373 C 0.71806 0.36843 0.45963 0.0
C374 C 0.72067 0.36784 0.37319 0.0
C375 C 0.74664 0.38207 0.43749 0.0
N376 N 0.73439 0.37761 0.4995 0.0
O377 O 0.73612 0.35446 0.21399 0.0
H378 H 0.70979 0.362 0.32384 0.0
H379 H 0.76112 0.3893 0.45096 0.0
O380 O 0.72344 0.39556 0.21769 0.0
C381 C 0.75113 0.34267 0.21987 0.0
O382 O 0.76935 0.35073 0.22307 0.0
N383 N 0.7621 0.40336 0.28518 0.0
C384 C 0.79115 0.43222 0.34029 0.0
C385 C 0.77366 0.4377 0.29335 0.0
C386 C 0.75932 0.42287 0.26511 0.0
C387 C 0.77961 0.39775 0.32511 0.0
C388 C 0.79388 0.41192 0.35644 0.0
H389 H 0.74664 0.42699 0.22452 0.0
H390 H 0.7822 0.38198 0.33453 0.0
H391 H 0.72917 0.3753 0.06462 0.0
H392 H 0.78679 0.39097 0.98811 0.0
H393 H 0.70495 0.36312 0.49037 0.0
H394 H 0.77137 0.45309 0.27636 0.0
H395 H 0.80696 0.40686 0.39295 0.0
C396 C 0.11296 0.54987 0.35638 0.0
C397 C 0.11314 0.5496 0.26874 0.0
N398 N 0.10736 0.53104 0.23688 0.0
N399 N 0.10718 0.53152 0.3794 0.0
C400 C 0.10389 0.52039 0.30535 0.0
H401 H 0.11632 0.56276 0.40022 0.0
Co402 Co 0.10227 0.52355 0.48785 0.0
C403 C 0.1261 0.48703 0.5063 0.0
O404 O 0.12894 0.49242 0.58798 0.0
N405 N 0.09636 0.51516 0.59757 0.0
C406 C 0.08387 0.49632 0.69657 0.0
C407 C 0.08703 0.49745 0.61096 0.0
C408 C 0.09796 0.52477 0.67607 0.0
N409 N 0.09069 0.51364 0.73687 0.0
O410 O 0.07574 0.51504 0.45017 0.0
H411 H 0.08281 0.48599 0.56125 0.0
H412 H 0.10425 0.53963 0.69038 0.0
O413 O 0.11467 0.49749 0.45817 0.0
C414 C 0.06593 0.53137 0.45923 0.0
O415 O 0.07625 0.54843 0.46975 0.0
N416 N 0.12706 0.53462 0.52709 0.0
C417 C 0.15964 0.55886 0.58823 0.0
C418 C 0.1627 0.54144 0.53616 0.0
C419 C 0.14604 0.52956 0.50509 0.0
C420 C 0.12393 0.55226 0.57136 0.0
C421 C 0.13987 0.56388 0.6071 0.0
H422 H 0.1484 0.51708 0.46027 0.0
H423 H 0.10872 0.55739 0.57877 0.0
H424 H 0.09821 0.50501 0.30173 0.0
H425 H 0.117 0.56216 0.23143 0.0
H426 H 0.07685 0.48396 0.72658 0.0
H427 H 0.17759 0.53747 0.51684 0.0
H428 H 0.1365 0.57699 0.64748 0.0
C429 C 0.23896 0.38402 0.10119 0.0
C430 C 0.2389 0.38375 0.01348 0.0
N431 N 0.25819 0.384 0.99095 0.0
N432 N 0.2582 0.38462 0.13357 0.0
C433 C 0.26952 0.3843 0.06491 0.0
H434 H 0.22578 0.38376 0.13855 0.0
Co435 Co 0.26785 0.38527 0.24666 0.0
C436 C 0.30257 0.41633 0.25308 0.0
O437 O 0.29833 0.42275 0.33071 0.0
N438 N 0.2778 0.38529 0.36001 0.0
C439 C 0.2982 0.38004 0.47363 0.0
C440 C 0.29707 0.38183 0.38659 0.0
C441 C 0.26744 0.38485 0.43144 0.0
N442 N 0.27946 0.3818 0.50119 0.0
O443 O 0.28009 0.35897 0.22683 0.0
H444 H 0.30941 0.37996 0.3448 0.0
H445 H 0.2513 0.38604 0.43287 0.0
O446 O 0.29207 0.40166 0.21507 0.0
C447 C 0.2655 0.34667 0.23893 0.0
O448 O 0.24774 0.35436 0.25083 0.0
N449 N 0.25238 0.40829 0.26953 0.0
C450 C 0.22072 0.43409 0.30655 0.0
C451 C 0.23844 0.44157 0.27308 0.0
C452 C 0.25416 0.42825 0.25375 0.0
C453 C 0.23485 0.401 0.29773 0.0
C454 C 0.21904 0.41343 0.31651 0.0
H455 H 0.26729 0.43394 0.22478 0.0
H456 H 0.23288 0.3851 0.30466 0.0
H457 H 0.28581 0.38391 0.06909 0.0
H458 H 0.22568 0.38371 0.96997 0.0
H459 H 0.31153 0.37675 0.51286 0.0
H460 H 0.24013 0.45743 0.26218 0.0
H461 H 0.20539 0.40669 0.33798 0.0
C462 C 0.41585 0.56225 0.21224 0.0
C463 C 0.41584 0.56559 0.29951 0.0
N464 N 0.41109 0.54818 0.33474 0.0
N465 N 0.41113 0.54281 0.19084 0.0
C466 C 0.40843 0.53455 0.26686 0.0
H467 H 0.41935 0.57332 0.1671 0.0
Co468 Co 0.41019 0.53173 0.07692 0.0
C469 C 0.38152 0.4956 0.07666 0.0
O470 O 0.37518 0.4991 0.99818 0.0
N471 N 0.40994 0.52058 0.96145 0.0
C472 C 0.41664 0.49854 0.85481 0.0
C473 C 0.41664 0.50191 0.94201 0.0
C474 C 0.40625 0.52837 0.8837 0.0
N475 N 0.4101 0.51518 0.81735 0.0
O476 O 0.43725 0.52126 0.09695 0.0
H477 H 0.42167 0.49146 0.98875 0.0
H478 H 0.40119 0.54351 0.87542 0.0
O479 O 0.39556 0.507 0.11445 0.0
C480 C 0.44895 0.53521 0.07284 0.0
O481 O 0.44048 0.5514 0.04407 0.0
N482 N 0.38617 0.54541 0.05492 0.0
C483 C 0.35752 0.57499 0.0276 0.0
C484 C 0.35224 0.55709 0.06534 0.0
C485 C 0.36705 0.54258 0.08071 0.0
C486 C 0.39131 0.56281 0.01905 0.0
C487 C 0.37732 0.57767 1.00455 0.0
H488 H 0.36324 0.52966 0.11556 0.0
H489 H 0.40667 0.56539 1.00286 0.0
H490 H 0.40472 0.51884 0.2722 0.0
H491 H 0.41953 0.57982 0.33388 0.0
H492 H 0.42185 0.48501 0.82199 0.0
H493 H 0.33707 0.55466 0.08503 0.0
H494 H 0.38199 0.59119 0.97497 0.0
C495 C 0.2411 0.69804 1.00561 0.0
C496 C 0.23902 0.69647 0.09164 0.0
N497 N 0.25742 0.69806 0.13229 0.0
N498 N 0.26079 0.70046 0.99096 0.0
C499 C 0.27038 0.70063 0.06973 0.0
H500 H 0.22898 0.6974 0.9566 0.0
Co501 Co 0.27108 0.70284 0.88149 0.0
C502 C 0.30309 0.67328 0.87685 0.0
O503 O 0.29695 0.66906 0.79669 0.0
N504 N 0.28201 0.70586 0.7708 0.0
C505 C 0.30503 0.71415 0.67932 0.0
C506 C 0.30116 0.71252 0.76391 0.0
C507 C 0.27453 0.70393 0.68794 0.0
N508 N 0.28824 0.70873 0.63109 0.0
O509 O 0.28212 0.72874 0.91633 0.0
H510 H 0.31178 0.71598 0.81763 0.0
H511 H 0.25923 0.69967 0.66827 0.0
O512 O 0.29508 0.68782 0.91944 0.0
C513 C 0.26653 0.73925 0.89952 0.0
O514 O 0.24932 0.72969 0.87959 0.0
N515 N 0.25734 0.67929 0.8444 0.0
C516 C 0.22989 0.64943 0.78321 0.0
C517 C 0.24504 0.64527 0.84545 0.0
C518 C 0.2585 0.66066 0.87669 0.0
C519 C 0.24168 0.6838 0.79012 0.0
C520 C 0.2285 0.66901 0.75525 0.0
H521 H 0.26917 0.65783 0.92886 0.0
H522 H 0.23924 0.69922 0.77461 0.0
H523 H 0.28656 0.70226 0.0808 0.0
H524 H 0.22494 0.69452 0.12211 0.0
H525 H 0.31923 0.71885 0.65548 0.0
H526 H 0.24604 0.6306 0.87186 0.0
H527 H 0.21709 0.67313 0.70775 0.0
H528 H 0.42618 0.0807 0.7915 0.0
H529 H 0.44291 0.02011 0.84513 0.0
H530 H 0.43818 0.00968 0.69361 0.0
H531 H 0.42826 0.01748 0.54712 0.0
H532 H 0.41117 0.07783 0.4914 0.0
H533 H 0.41735 0.08883 0.6424 0.0
C534 C 0.4291 0.06532 0.76962 0.0
C535 C 0.43477 0.05115 0.82935 0.0
C536 C 0.42617 0.0594 0.68233 0.0
C537 C 0.43827 0.0312 0.80042 0.0
C538 C 0.4356 0.02524 0.71387 0.0
C539 C 0.42569 0.03299 0.56808 0.0
C540 C 0.41904 0.04677 0.50841 0.0
C541 C 0.42925 0.03913 0.65455 0.0
C542 C 0.41632 0.06696 0.53621 0.0
C543 C 0.41981 0.07323 0.62247 0.0
H544 H 0.2226 0.20487 0.92683 0.0
H545 H 0.27141 0.16603 0.99924 0.0
H546 H 0.28308 0.16561 0.85474 0.0
H547 H 0.27954 0.17632 0.70772 0.0
H548 H 0.23009 0.21391 0.6331 0.0
H549 H 0.21829 0.2145 0.77832 0.0
C550 C 0.23562 0.19609 0.91092 0.0
C551 C 0.24619 0.18567 0.97435 0.0
C552 C 0.24214 0.19571 0.82729 0.0
C553 C 0.2632 0.17454 0.95238 0.0
C554 C 0.26984 0.17419 0.86954 0.0
C555 C 0.2663 0.18477 0.72368 0.0
C556 C 0.25577 0.19518 0.66042 0.0
C557 C 0.25953 0.18484 0.80674 0.0
C558 C 0.23836 0.20573 0.681 0.0
C559 C 0.23166 0.2061 0.76389 0.0
H560 H 0.10493 0.0712 0.16832 0.0
H561 H 0.10208 1.00665 0.11633 0.0
H562 H 0.10271 0.01113 0.96457 0.0
H563 H 0.10314 0.03315 0.84367 0.0
H564 H 0.10773 0.09756 0.89518 0.0
H565 H 0.10742 0.09316 0.04796 0.0
C566 C 0.10456 0.05803 0.12447 0.0
C567 C 0.1031 0.03858 0.15607 0.0
C568 C 0.10519 0.06062 0.03564 0.0
C569 C 0.10273 0.02188 0.09609 0.0
C570 C 0.10323 0.02438 0.0082 0.0
C571 C 0.10431 0.04626 0.88797 0.0
C572 C 0.10517 0.0657 0.85635 0.0
C573 C 0.10431 0.04367 0.97691 0.0
C574 C 0.10657 0.08239 0.9162 0.0
C575 C 0.10652 0.07991 1.00431 0.0
H576 H 0.26998 0.90341 0.3628 0.0
H577 H 0.22485 0.85891 0.41071 0.0
H578 H 0.21309 0.85735 0.25963 0.0
H579 H 0.2166 0.86797 0.11358 0.0
H580 H 0.26105 0.91357 0.06814 0.0
H581 H 0.2723 0.9153 0.21877 0.0
C582 C 0.25768 0.89329 0.33972 0.0
C583 C 0.2484 0.88113 0.39681 0.0
C584 C 0.25093 0.89268 0.25359 0.0
C585 C 0.23215 0.8684 0.3673 0.0
C586 C 0.22548 0.86749 0.28121 0.0
C587 C 0.22854 0.87848 0.13682 0.0
C588 C 0.23814 0.89042 0.07947 0.0
C589 C 0.23483 0.87953 0.22373 0.0
C590 C 0.25371 0.90388 0.11059 0.0
C591 C 0.2601 0.90496 0.19677 0.0
H592 H 0.61442 0.05218 0.59407 0.0
H593 H 0.57061 1.00641 0.64236 0.0
H594 H 0.56913 0.99467 0.49121 0.0
H595 H 0.57946 0.99851 0.34489 0.0
H596 H 0.62424 0.04374 0.29897 0.0
H597 H 0.62608 0.05481 0.44989 0.0
C598 C 0.60447 0.03974 0.57107 0.0
C599 C 0.59247 0.03028 0.62823 0.0
C600 C 0.60387 0.03305 0.4849 0.0
C601 C 0.57997 0.01385 0.59886 0.0
C602 C 0.5791 1.0072 0.51274 0.0
C603 C 0.58983 0.01057 0.36814 0.0
C604 C 0.60148 0.02046 0.31066 0.0
C605 C 0.59092 0.01677 0.45512 0.0
C606 C 0.61476 0.03619 0.34164 0.0
C607 C 0.61591 0.04247 0.42793 0.0
H608 H 0.78365 0.89639 0.41895 0.0
H609 H 0.7242 0.86987 0.36691 0.0
H610 H 0.72849 0.86987 0.21446 0.0
H611 H 0.74912 0.87685 0.09322 0.0
H612 H 0.80911 0.90171 0.14326 0.0
H613 H 0.80467 0.90268 0.29725 0.0
C614 C 0.77167 0.89046 0.37458 0.0
C615 C 0.75349 0.8834 0.4061 0.0
C616 C 0.77431 0.89018 0.28547 0.0
C617 C 0.7382 0.87588 0.34616 0.0
C618 C 0.74066 0.87572 0.25811 0.0
C619 C 0.76114 0.88266 0.1378 0.0
C620 C 0.77941 0.88925 0.10627 0.0
C621 C 0.75859 0.88289 0.22677 0.0
C622 C 0.79494 0.89641 0.16546 0.0
C623 C 0.79239 0.897 0.25376 0.0
H624 H 0.91702 0.04873 0.22094 0.0
H625 H 0.89156 0.98903 0.1703 0.0
H626 H 0.89066 0.99351 0.01642 0.0
H627 H 0.89709 0.01453 0.89495 0.0
H628 H 0.92409 0.07372 0.94759 0.0
H629 H 0.92415 0.06934 0.09999 0.0
C630 C 0.91111 0.03678 0.17629 0.0
C631 C 0.90432 0.01858 0.20766 0.0
C632 C 0.91088 0.03936 0.08737 0.0
C633 C 0.89702 1.00314 0.14829 0.0
C634 C 0.89646 1.00572 0.06004 0.0
C635 C 0.90314 0.02643 0.93945 0.0
C636 C 0.91031 0.04457 0.90814 0.0
C637 C 0.90344 0.02375 0.02852 0.0
C638 C 0.91799 0.05975 0.96821 0.0
C639 C 0.91818 0.05724 0.05621 0.0
H640 H 0.73622 0.20921 0.77701 0.0
H641 H 0.79632 0.19113 0.72053 0.0
H642 H 0.80739 0.19706 0.87155 0.0
H643 H 0.79934 0.20587 0.02084 0.0
H644 H 0.73897 0.22349 0.07528 0.0
H645 H 0.72852 0.21913 0.92369 0.0
C646 C 0.75169 0.20637 0.79781 0.0
C647 C 0.76537 0.19951 0.73797 0.0
C648 C 0.75786 0.20976 0.88427 0.0
C649 C 0.78552 0.19645 0.76552 0.0
C650 C 0.79183 0.19979 0.85177 0.0
C651 C 0.78401 0.20905 0.99912 0.0
C652 C 0.7699 0.21487 0.05902 0.0
C653 C 0.77807 0.20632 0.91183 0.0
C654 C 0.75 0.21873 0.03036 0.0
C655 C 0.74404 0.21627 0.9438 0.0
H656 H 0.92044 0.5917 0.24372 0.0
H657 H 0.9448 0.53446 0.30872 0.0
H658 H 0.94393 0.52322 0.15769 0.0
H659 H 0.93498 0.52921 0.00805 0.0
H660 H 0.91 0.58616 0.94227 0.0
H661 H 0.91267 0.59818 0.09263 0.0
C662 C 0.92584 0.57691 0.22441 0.0
C663 C 0.9325 0.56385 0.28681 0.0
C664 C 0.9251 0.5705 0.13762 0.0
C665 C 0.93929 0.54463 0.26155 0.0
C666 C 0.93885 0.53822 0.17538 0.0
C667 C 0.93 0.54419 0.02677 0.0
C668 C 0.92219 0.55672 0.96445 0.0
C669 C 0.93145 0.55091 0.11306 0.0
C670 C 0.9162 0.57628 0.98919 0.0
C671 C 0.91764 0.58313 0.07509 0.0
H672 H 0.76389 0.68723 0.45679 0.0
H673 H 0.69935 0.69014 0.40945 0.0
H674 H 0.70349 0.68993 0.25669 0.0
H675 H 0.72541 0.69021 0.13499 0.0
H676 H 0.78973 0.68502 0.18235 0.0
H677 H 0.7855 0.68471 0.33488 0.0
C678 C 0.75064 0.68759 0.41357 0.0
C679 C 0.73134 0.68908 0.44649 0.0
C680 C 0.75304 0.68716 0.32458 0.0
C681 C 0.71449 0.68953 0.38773 0.0
C682 C 0.7168 0.68927 0.29951 0.0
C683 C 0.73852 0.68877 0.17823 0.0
C684 C 0.75791 0.68806 0.14582 0.0
C685 C 0.73602 0.68832 0.26702 0.0
C686 C 0.77462 0.68619 0.20422 0.0
C687 C 0.77224 0.68586 0.29215 0.0
H688 H 0.61178 0.51732 0.62597 0.0
H689 H 0.58533 0.57362 0.70687 0.0
H690 H 0.58696 0.58525 0.56226 0.0
H691 H 0.59599 0.57931 0.41284 0.0
H692 H 0.62237 0.52286 0.33362 0.0
H693 H 0.62025 0.51118 0.47754 0.0
C694 C 0.60604 0.532 0.61193 0.0
C695 C 0.59836 0.54452 0.67728 0.0
C696 C 0.60701 0.53854 0.52892 0.0
C697 C 0.59146 0.56373 0.65803 0.0
C698 C 0.59233 0.57036 0.57528 0.0
C699 C 0.60142 0.56453 0.42732 0.0
C700 C 0.60932 0.55197 0.3626 0.0
C701 C 0.60019 0.55793 0.51036 0.0
C702 C 0.616 0.53271 0.38199 0.0
C703 C 0.61489 0.52607 0.46435 0.0
H704 H 0.72101 0.35694 0.62824 0.0
H705 H 0.75621 0.4092 0.57272 0.0
H706 H 0.76567 0.41553 0.72392 0.0
H707 H 0.76519 0.40538 0.87118 0.0
H708 H 0.7294 0.3539 0.929 0.0
H709 H 0.7185 0.34826 0.77775 0.0
C710 C 0.7305 0.36985 0.64951 0.0
C711 C 0.73824 0.3823 0.58936 0.0
C712 C 0.73577 0.37352 0.73674 0.0
C713 C 0.75054 0.39902 0.61761 0.0
C714 C 0.75586 0.40275 0.70407 0.0
C715 C 0.75503 0.39295 0.85025 0.0
C716 C 0.74823 0.37996 0.91005 0.0
C717 C 0.74886 0.38989 0.76389 0.0
C718 C 0.73473 0.3641 0.88341 0.0
C719 C 0.72859 0.36084 0.7972 0.0
H720 H 0.09802 0.48966 0.8668 0.0
H721 H 0.08408 0.55058 0.80751 0.0
H722 H 0.08781 0.56141 0.95894 0.0
H723 H 0.09618 0.55379 0.10709 0.0
H724 H 0.111 0.49314 0.16776 0.0
H725 H 0.10553 0.48183 0.01708 0.0
C726 C 0.09552 0.50521 0.88754 0.0
C727 C 0.09091 0.51935 0.82653 0.0
C728 C 0.09796 0.51136 0.97463 0.0
C729 C 0.0879 0.53952 0.85357 0.0
C730 C 0.09001 0.5457 0.93997 0.0
C731 C 0.09839 0.53815 0.08727 0.0
C732 C 0.10412 0.52436 0.14832 0.0
C733 C 0.09535 0.53182 1.00083 0.0
C734 C 0.10647 0.50401 0.12195 0.0
C735 C 0.10341 0.49756 0.03584 0.0
H736 H 0.23866 0.36971 0.84482 0.0
H737 H 0.2939 0.39918 0.94583 0.0
H738 H 0.3059 0.40017 0.80224 0.0
H739 H 0.30017 0.39375 0.64699 0.0
H740 H 0.24456 0.36518 0.54601 0.0
H741 H 0.23305 0.36305 0.69036 0.0
C742 C 0.25324 0.37649 0.83543 0.0
C743 C 0.26532 0.38434 0.90611 0.0
C744 C 0.25994 0.37726 0.75258 0.0
C745 C 0.28437 0.39277 0.89284 0.0
C746 C 0.29122 0.39346 0.8106 0.0
C747 C 0.28564 0.38689 0.65696 0.0
C748 C 0.27318 0.37976 0.58635 0.0
C749 C 0.27909 0.38583 0.74 0.0
C750 C 0.25427 0.37108 0.59955 0.0
C751 C 0.24772 0.36976 0.68197 0.0
H752 H 0.40918 0.5507 0.73796 0.0
H753 H 0.40771 0.48619 0.68728 0.0
H754 H 0.40789 0.49057 0.53457 0.0
H755 H 0.40948 0.51257 0.41389 0.0
H756 H 0.40901 0.57712 0.46461 0.0
H757 H 0.40851 0.57268 0.61666 0.0
C758 C 0.40868 0.53755 0.69388 0.0
C759 C 0.40876 0.51812 0.72581 0.0
C760 C 0.40857 0.54012 0.60489 0.0
C761 C 0.40816 0.50138 0.66615 0.0
C762 C 0.40813 0.50384 0.57803 0.0
C763 C 0.40911 0.52574 0.45759 0.0
C764 C 0.40967 0.54519 0.42575 0.0
C765 C 0.40854 0.52315 0.54642 0.0
C766 C 0.40913 0.5619 0.48533 0.0
C767 C 0.40869 0.55941 0.57327 0.0
H768 H 0.28678 0.71813 0.23165 0.0
H769 H 0.2376 0.67539 0.23903 0.0
H770 H 0.2428 0.67478 0.39397 0.0
H771 H 0.26086 0.68674 0.52843 0.0
H772 H 0.30952 0.73027 0.52282 0.0
H773 H 0.30519 0.72995 0.36744 0.0
C774 C 0.27737 0.70854 0.26718 0.0
C775 C 0.26173 0.69692 0.22344 0.0
C776 C 0.28032 0.70841 0.35713 0.0
C777 C 0.24955 0.68471 0.27087 0.0
C778 C 0.25255 0.6843 0.35968 0.0
C779 C 0.27043 0.69632 0.49364 0.0
C780 C 0.2855 0.70852 0.53844 0.0
C781 C 0.26774 0.69625 0.40376 0.0
C782 C 0.29794 0.72051 0.49095 0.0
C783 C 0.29541 0.72043 0.40162 0.0
H784 H 0.37319 0.08029 0.27314 0.0
H785 H 0.37952 0.10881 0.03544 0.0
H786 H 0.34931 0.12823 0.05893 0.0
H787 H 0.32045 0.13603 0.14225 0.0
H788 H 0.31353 0.10894 0.38253 0.0
H789 H 0.34406 0.08928 0.36092 0.0
C790 C 0.36816 0.09111 0.2277 0.0
C791 C 0.37869 0.09329 0.15298 0.0
C792 C 0.35037 0.10198 0.2407 0.0
C793 C 0.37176 0.10699 0.09359 0.0
C794 C 0.35439 0.11796 0.10658 0.0
C795 C 0.32566 0.12597 0.19056 0.0
C796 C 0.31477 0.12415 0.26436 0.0
C797 C 0.34343 0.11533 0.17905 0.0
C798 C 0.32148 0.11055 0.32479 0.0
C799 C 0.3391 0.09951 0.31295 0.0
H800 H 0.1593 0.11714 0.56984 0.0
H801 H 0.13385 0.09073 0.3297 0.0
H802 H 0.1568 0.11128 0.25259 0.0
H803 H 0.18575 0.13523 0.2531 0.0
H804 H 0.21066 0.16232 0.49294 0.0
H805 H 0.18634 0.14322 0.56976 0.0
C806 C 0.15857 0.11599 0.50052 0.0
C807 C 0.14472 0.10217 0.45605 0.0
C808 C 0.17191 0.12797 0.45629 0.0
C809 C 0.14411 0.10115 0.36612 0.0
C810 C 0.1574 0.11288 0.32182 0.0
C811 C 0.18579 0.13712 0.32221 0.0
C812 C 0.20026 0.15025 0.36687 0.0
C813 C 0.17161 0.1261 0.36618 0.0
C814 C 0.19981 0.1525 0.45646 0.0
C815 C 0.1859 0.14145 0.50058 0.0
H816 H 0.22007 0.95463 0.72846 0.0
H817 H 0.18068 0.90731 0.61406 0.0
H818 H 0.16047 0.93248 0.54002 0.0
H819 H 0.15262 0.96832 0.51956 0.0
H820 H 0.19316 0.01499 0.63193 0.0
H821 H 0.21486 0.98953 0.69342 0.0
C822 C 0.20711 0.94979 0.68688 0.0
C823 C 0.2015 0.92926 0.67793 0.0
C824 C 0.19598 0.96419 0.64394 0.0
C825 C 0.18506 0.92308 0.62238 0.0
C826 C 0.17358 0.93745 0.58027 0.0
C827 C 0.16642 0.97283 0.55632 0.0
C828 C 0.17125 0.99348 0.57206 0.0
C829 C 0.17869 0.95809 0.59211 0.0
C830 C 0.18923 0.99921 0.61872 0.0
C831 C 0.20149 0.98467 0.65457 0.0
H832 H 0.33777 0.01499 0.95083 0.0
H833 H 0.37922 0.96553 0.97404 0.0
H834 H 0.35819 0.945 0.87361 0.0
H835 H 0.32656 0.93911 0.79401 0.0
H836 H 0.28014 0.98364 0.80664 0.0
H837 H 0.30469 0.00832 0.87488 0.0
C838 C 0.34216 0.99965 0.93555 0.0
C839 C 0.36048 0.99222 0.97005 0.0
C840 C 0.32906 0.98703 0.88297 0.0
C841 C 0.36582 0.97229 0.94694 0.0
C842 C 0.35363 0.96028 0.88976 0.0
C843 C 0.32176 0.95424 0.81182 0.0
C844 C 0.30152 0.95939 0.79834 0.0
C845 C 0.33509 0.96734 0.85919 0.0
C846 C 0.29568 0.97928 0.81737 0.0
C847 C 0.3096 0.99324 0.85762 0.0
H848 H 0.68231 0.93542 0.76615 0.0
H849 H 0.72802 0.97748 0.87503 0.0
H850 H 0.70193 0.99931 0.93123 0.0
H851 H 0.66669 1.00435 0.96292 0.0
H852 H 0.62039 0.96329 0.85196 0.0
H853 H 0.64621 0.9429 0.78281 0.0
C854 C 0.68648 0.94955 0.80098 0.0
C855 C 0.70705 0.9548 0.8173 0.0
C856 C 0.67138 0.96191 0.83366 0.0
C857 C 0.71232 0.97321 0.86144 0.0
C858 C 0.69742 0.98556 0.89425 0.0
C859 C 0.66222 0.99099 0.92304 0.0
C860 C 0.64177 0.985 0.91371 0.0
C861 C 0.67701 0.97971 0.88301 0.0
C862 C 0.63608 0.96801 0.86044 0.0
C863 C 0.65083 0.95641 0.82118 0.0
H864 H 0.83162 0.94245 0.81643 0.0
H865 H 0.805 0.9164 0.57771 0.0
H866 H 0.82636 0.93835 0.49906 0.0
H867 H 0.85112 0.9666 0.49781 0.0
H868 H 0.87838 0.99199 0.73649 0.0
H869 H 0.85844 0.96869 0.81482 0.0
C870 C 0.8306 0.94137 0.7471 0.0
C871 C 0.81652 0.92767 0.70342 0.0
C872 C 0.84304 0.9541 0.70206 0.0
C873 C 0.81565 0.92657 0.61346 0.0
C874 C 0.82783 0.93928 0.56832 0.0
C875 C 0.85287 0.96696 0.567 0.0
C876 C 0.86631 0.98127 0.61087 0.0
C877 C 0.84136 0.95335 0.61186 0.0
C878 C 0.86835 0.98124 0.7006 0.0
C879 C 0.85682 0.96792 0.74558 0.0
H880 H 0.85164 0.09833 0.36847 0.0
H881 H 0.82814 0.09494 0.61829 0.0
H882 H 0.80898 0.12571 0.59631 0.0
H883 H 0.79945 0.15409 0.50544 0.0
H884 H 0.82488 0.15716 0.25902 0.0
H885 H 0.8436 0.12659 0.28248 0.0
C886 C 0.84251 0.10436 0.41885 0.0
C887 C 0.84154 0.09436 0.49533 0.0
C888 C 0.83225 0.12233 0.40712 0.0
C889 C 0.82907 0.10216 0.55843 0.0
C890 C 0.81833 0.11993 0.54633 0.0
C891 C 0.80946 0.14827 0.45796 0.0
C892 C 0.81091 0.15798 0.38077 0.0
C893 C 0.82001 0.13032 0.47123 0.0
C894 C 0.82358 0.15003 0.319 0.0
C895 C 0.83417 0.13245 0.33201 0.0
H896 H 0.7284 0.11815 0.18927 0.0
H897 H 0.68093 0.16083 0.23438 0.0
H898 H 0.65774 0.14037 0.14191 0.0
H899 H 0.64998 0.10982 0.05675 0.0
H900 H 0.69364 0.06246 0.04386 0.0
H901 H 0.71955 0.08562 0.11182 0.0
C902 C 0.71293 0.12288 0.18035 0.0
C903 C 0.70676 0.1414 0.21776 0.0
C904 C 0.69903 0.11029 0.1317 0.0
C905 C 0.68659 0.1472 0.20407 0.0
C906 C 0.67312 0.13539 0.15165 0.0
C907 C 0.66506 0.10434 0.06995 0.0
C908 C 0.66968 0.08427 0.04788 0.0
C909 C 0.67914 0.11688 0.11611 0.0
C910 C 0.68963 0.07785 0.06066 0.0
C911 C 0.70436 0.09098 0.10068 0.0
H912 H 0.83143 0.64635 0.80337 0.0
H913 H 0.78965 0.60388 0.66887 0.0
H914 H 0.8178 0.58458 0.6146 0.0
H915 H 0.8538 0.58196 0.59364 0.0
H916 H 0.89636 0.62256 0.73446 0.0
H917 H 0.86829 0.64078 0.798 0.0
C918 C 0.82859 0.63261 0.76368 0.0
C919 C 0.80857 0.6265 0.73959 0.0
C920 C 0.84487 0.62164 0.73275 0.0
C921 C 0.80493 0.6087 0.68855 0.0
C922 C 0.821 0.59784 0.65686 0.0
C923 C 0.85699 0.59474 0.63871 0.0
C924 C 0.87705 0.60126 0.65818 0.0
C925 C 0.84095 0.60454 0.67649 0.0
C926 C 0.88099 0.61749 0.71797 0.0
C927 C 0.86497 0.62782 0.7542 0.0
H928 H 0.69849 0.6496 0.94111 0.0
H929 H 0.68583 0.64032 0.66862 0.0
H930 H 0.66058 0.61483 0.69132 0.0
H931 H 0.6443 0.59233 0.78552 0.0
H932 H 0.65446 0.60124 0.05826 0.0
H933 H 0.67796 0.62946 0.03893 0.0
C934 C 0.68986 0.64234 0.88699 0.0
C935 C 0.69448 0.64689 0.80287 0.0
C936 C 0.67492 0.62731 0.9004 0.0
C937 C 0.68302 0.6371 0.73393 0.0
C938 C 0.66847 0.6224 0.7467 0.0
C939 C 0.65134 0.60071 0.84094 0.0
C940 C 0.64757 0.59461 0.92317 0.0
C941 C 0.66467 0.61694 0.8292 0.0
C942 C 0.65687 0.60569 0.99417 0.0
C943 C 0.67048 0.62176 0.98296 0.0
H944 H 0.65312 0.4775 0.20555 0.0
H945 H 0.69255 0.48971 1.00468 0.0
H946 H 0.71217 0.45975 0.03736 0.0
H947 H 0.71796 0.43001 0.12448 0.0
H948 H 0.67877 0.41944 0.32821 0.0
H949 H 0.65847 0.44822 0.2899 0.0
C950 C 0.66596 0.47358 0.16849 0.0
C951 C 0.6713 0.48575 0.10239 0.0
C952 C 0.67686 0.45632 0.1868 0.0
C953 C 0.68824 0.48069 0.05632 0.0
C954 C 0.69928 0.46344 0.07436 0.0
C955 C 0.70472 0.43381 0.1591 0.0
C956 C 0.69963 0.42247 0.22837 0.0
C957 C 0.69362 0.45102 0.13911 0.0
C958 C 0.68274 0.42779 0.27399 0.0
C959 C 0.6713 0.44437 0.25278 0.0
H960 H 0.78627 0.47126 0.39997 0.0
H961 H 0.83173 0.42694 0.34787 0.0
H962 H 0.85752 0.44915 0.41719 0.0
H963 H 0.86704 0.4801 0.49524 0.0
H964 H 0.82425 0.52813 0.5198 0.0
H965 H 0.79717 0.50502 0.46202 0.0
C966 C 0.80185 0.46662 0.40232 0.0
C967 C 0.8069 0.44716 0.37137 0.0
C968 C 0.81695 0.47989 0.43869 0.0
C969 C 0.82722 0.44145 0.37455 0.0
C970 C 0.84206 0.45418 0.41363 0.0
C971 C 0.852 0.48595 0.48549 0.0
C972 C 0.84788 0.50602 0.50992 0.0
C973 C 0.83702 0.47327 0.44652 0.0
C974 C 0.82791 0.51271 0.50175 0.0
C975 C 0.81246 0.49959 0.46772 0.0
H976 H 0.14405 0.48863 0.35348 0.0
H977 H 0.14185 0.45472 0.57956 0.0
H978 H 0.17172 0.43637 0.53969 0.0
H979 H 0.19972 0.43176 0.448 0.0
H980 H 0.20296 0.46501 0.22081 0.0
H981 H 0.17204 0.48277 0.2564 0.0
C982 C 0.14988 0.47689 0.39283 0.0
C983 C 0.14073 0.47296 0.4694 0.0
C984 C 0.16763 0.4669 0.37116 0.0
C985 C 0.14857 0.45792 0.52028 0.0
C986 C 0.16579 0.44761 0.49809 0.0
C987 C 0.19362 0.44279 0.40563 0.0
C988 C 0.20358 0.44694 0.33149 0.0
C989 C 0.17569 0.45236 0.42505 0.0
C990 C 0.19572 0.46166 0.27868 0.0
C991 C 0.17789 0.47158 0.29842 0.0
H992 H 0.33187 0.44289 0.32275 0.0
H993 H 0.30796 0.4163 0.08049 0.0
H994 H 0.33072 0.4376 1.00559 0.0
H995 H 0.35616 0.46526 0.00814 0.0
H996 H 0.38071 0.4913 0.25045 0.0
H997 H 0.35922 0.46876 0.32548 0.0
C998 C 0.33172 0.44159 0.25351 0.0
C999 C 0.31799 0.42789 0.20758 0.0
C1000 C 0.34501 0.45392 0.21064 0.0
C1001 C 0.31827 0.42649 0.11785 0.0
C1002 C 0.33129 0.43881 0.07486 0.0
C1003 C 0.357 0.46593 0.07746 0.0
C1004 C 0.37015 0.48022 0.12319 0.0
C1005 C 0.34454 0.45279 0.12045 0.0
C1006 C 0.37094 0.48058 0.21308 0.0
C1007 C 0.35851 0.46769 0.25619 0.0
H1008 H 0.29643 0.63339 0.85598 0.0
H1009 H 0.33394 0.67805 1.0005 0.0
H1010 H 0.35317 0.65117 0.06732 0.0
H1011 H 0.36067 0.61488 0.07505 0.0
H1012 H 0.32183 0.57063 0.9347 0.0
H1013 H 0.30124 0.59751 0.87713 0.0
C1014 C 0.30881 0.63724 0.90229 0.0
C1015 C 0.31417 0.6576 0.92203 0.0
C1016 C 0.31932 0.62181 0.9415 0.0
C1017 C 0.32979 0.66245 0.98377 0.0
C1018 C 0.34071 0.6471 0.02186 0.0
C1019 C 0.34745 0.61119 0.03312 0.0
C1020 C 0.34277 0.59085 0.00858 0.0
C1021 C 0.3358 0.62673 1.00005 0.0
C1022 C 0.32559 0.58615 0.9548 0.0
C1023 C 0.31399 0.60151 0.92124 0.0
H1024 H 0.1582 0.59929 0.60381 0.0
H1025 H 0.19902 0.55007 0.63818 0.0
H1026 H 0.2251 0.57398 0.69968 0.0
H1027 H 0.23529 0.60899 0.74948 0.0
H1028 H 0.19009 0.65522 0.74423 0.0
H1029 H 0.16619 0.6319 0.66951 0.0
C1030 C 0.17251 0.59347 0.62719 0.0
C1031 C 0.17637 0.57281 0.6187 0.0
C1032 C 0.18655 0.60678 0.66853 0.0
C1033 C 0.19559 0.56593 0.64412 0.0
C1034 C 0.2104 0.57954 0.68026 0.0
C1035 C 0.22012 0.61385 0.73332 0.0
C1036 C 0.21481 0.63407 0.74943 0.0
C1037 C 0.20586 0.6 0.69424 0.0
C1038 C 0.19499 0.64005 0.72886 0.0
C1039 C 0.18119 0.6267 0.68668 0.0
H1040 H 0.48471 0.01481 0.18253 0.0
H1041 H 0.47794 0.07888 0.16023 0.0
H1042 H 0.50711 0.07941 0.0716 0.0
H1043 H 0.53412 0.06171 1.00063 0.0
H1044 H 0.54115 0.99777 0.02399 0.0
H1045 H 0.51133 0.99699 0.1092 0.0
C1046 C 0.48964 0.02901 0.15916 0.0
C1047 C 0.47913 0.04686 0.17852 0.0
C1048 C 0.50603 0.02908 0.10663 0.0
C1049 C 0.4858 0.06499 0.14701 0.0
C1050 C 0.50233 0.06524 0.0956 0.0
C1051 C 0.52903 0.0475 0.02345 0.0
C1052 C 0.53984 0.02978 0.00593 0.0
C1053 C 0.5124 0.04735 0.0745 0.0
C1054 C 0.53297 0.01154 0.03562 0.0
C1055 C 0.51612 0.01118 0.08539 0.0
H1056 H 0.23561 0.32008 0.26759 0.0
H1057 H 0.29955 0.32307 0.2313 0.0
H1058 H 0.30173 0.28683 0.25335 0.0
H1059 H 0.2855 0.2547 0.28413 0.0
H1060 H 0.2216 0.25199 0.32155 0.0
H1061 H 0.21947 0.28815 0.29887 0.0
C1062 C 0.25013 0.31293 0.26409 0.0
C1063 C 0.26747 0.32447 0.24732 0.0
C1064 C 0.25124 0.29224 0.27779 0.0
C1065 C 0.286 0.3147 0.24347 0.0
C1066 C 0.28721 0.29398 0.25648 0.0
C1067 C 0.27102 0.26192 0.28763 0.0
C1068 C 0.25365 0.25047 0.30478 0.0
C1069 C 0.26994 0.28266 0.27401 0.0
C1070 C 0.23517 0.2603 0.30896 0.0
C1071 C 0.23397 0.28098 0.29562 0.0
H1072 H 0.03921 0.01969 0.55862 0.0
H1073 H 0.03951 0.07985 0.46824 0.0
H1074 H 1.00266 0.0806 0.4746 0.0
H1075 H 0.97071 0.0643 0.50644 0.0
H1076 H 0.97036 1.00413 0.59669 0.0
H1077 H 1.00721 1.00332 0.58994 0.0
C1078 C 0.03133 0.03306 0.54009 0.0
C1079 C 0.04231 0.04978 0.51283 0.0
C1080 C 0.01019 0.03335 0.54415 0.0
C1081 C 0.0316 0.06682 0.48922 0.0
C1082 C 0.01052 0.06722 0.49304 0.0
C1083 C 0.97857 0.05091 0.52488 0.0
C1084 C 0.96758 0.03422 0.55235 0.0
C1085 C 0.9997 0.05059 0.52055 0.0
C1086 C 0.97827 0.01714 0.57556 0.0
C1087 C 0.99936 0.01671 0.57156 0.0
H1088 H 0.23491 0.76312 0.86934 0.0
H1089 H 0.30003 0.76381 0.89129 0.0
H1090 H 0.3005 0.79807 0.84096 0.0
H1091 H 0.28242 0.8267 0.78466 0.0
H1092 H 0.21732 0.82549 0.75899 0.0
H1093 H 0.21687 0.79171 0.81389 0.0
C1094 C 0.24929 0.77075 0.86384 0.0
C1095 C 0.26747 0.76092 0.88403 0.0
C1096 C 0.2494 0.78998 0.83221 0.0
C1097 C 0.28587 0.77111 0.87697 0.0
C1098 C 0.28611 0.79056 0.84723 0.0
C1099 C 0.26807 0.81906 0.79061 0.0
C1100 C 0.24986 0.82856 0.76748 0.0
C1101 C 0.26797 0.79992 0.8233 0.0
C1102 C 0.23148 0.81842 0.77545 0.0
C1103 C 0.23125 0.79924 0.80764 0.0
H1104 H 0.77735 0.75437 0.75284 0.0
H1105 H 0.71697 0.75409 0.84193 0.0
H1106 H 0.71645 0.79098 0.83743 0.0
H1107 H 0.73306 0.82298 0.80734 0.0
H1108 H 0.7934 0.82305 0.71783 0.0
H1109 H 0.79393 0.78623 0.72312 0.0
C1110 C 0.76396 0.76224 0.77152 0.0
C1111 C 0.74713 0.75126 0.79787 0.0
C1112 C 0.7638 0.78337 0.76839 0.0
C1113 C 0.73009 0.76199 0.82163 0.0
C1114 C 0.72983 0.7831 0.81887 0.0
C1115 C 0.74642 0.81505 0.78878 0.0
C1116 C 0.76325 0.82597 0.76194 0.0
C1117 C 0.74658 0.79391 0.79217 0.0
C1118 C 0.78029 0.81521 0.73847 0.0
C1119 C 0.78056 0.79413 0.74164 0.0
H1120 H 0.73424 0.26596 0.42106 0.0
H1121 H 0.79784 0.25788 0.3882 0.0
H1122 H 0.79847 0.28788 0.3047 0.0
H1123 H 0.78089 0.31589 0.24048 0.0
H1124 H 0.71732 0.32386 0.27362 0.0
H1125 H 0.71655 0.29345 0.35433 0.0
C1126 C 0.74836 0.27077 0.39645 0.0
C1127 C 0.76604 0.25965 0.4113 0.0
C1128 C 0.74845 0.28758 0.3466 0.0
C1129 C 0.78409 0.2662 0.3785 0.0
C1130 C 0.78438 0.28321 0.32991 0.0
C1131 C 0.76676 0.31088 0.26439 0.0
C1132 C 0.74916 0.32221 0.2512 0.0
C1133 C 0.7666 0.29383 0.31288 0.0
C1134 C 0.73102 0.3154 0.28224 0.0
C1135 C 0.73065 0.29817 0.3294 0.0
H1136 H 0.98149 0.51988 0.61169 0.0
H1137 H 0.9826 0.58481 0.6099 0.0
H1138 H 0.01556 0.58367 0.54657 0.0
H1139 H 0.04312 0.56411 0.48791 0.0
H1140 H 0.04152 0.49913 0.48852 0.0
H1141 H 0.00877 0.5004 0.55259 0.0
C1142 C 0.98895 0.53387 0.59816 0.0
C1143 C 0.97962 0.55246 0.61571 0.0
C1144 C 1.00738 0.53301 0.55933 0.0
C1145 C 0.98957 0.57037 0.59804 0.0
C1146 C 1.00824 0.56967 0.56077 0.0
C1147 C 0.03556 0.55015 0.50118 0.0
C1148 C 0.04474 0.53149 0.48314 0.0
C1149 C 0.01708 0.55105 0.54 0.0
C1150 C 0.0347 0.51363 0.50078 0.0
C1151 C 0.01612 0.51438 0.53843 0.0
H1152 H 0.47498 0.56401 0.02571 0.0
H1153 H 0.47385 0.50436 0.12119 0.0
H1154 H 0.51074 0.50337 0.11838 0.0
H1155 H 0.54291 0.51918 0.08725 0.0
H1156 H 0.54421 0.57871 0.99067 0.0
H1157 H 0.50732 0.58 0.99573 0.0
C1158 C 0.48269 0.55071 0.04615 0.0
C1159 C 0.47146 0.53418 0.07369 0.0
C1160 C 0.50387 0.55027 0.04404 0.0
C1161 C 0.48194 0.51723 0.09984 0.0
C1162 C 0.50306 0.5167 0.0981 0.0
C1163 C 0.53527 0.53255 0.06716 0.0
C1164 C 0.54653 0.5489 0.03828 0.0
C1165 C 0.51413 0.5331 0.07006 0.0
C1166 C 0.5361 0.56597 0.01305 0.0
C1167 C 0.51499 0.56665 0.01594 0.0
loop_
_geom_bond_atom_site_label_1
_geom_bond_atom_site_label_2
_geom_bond_distance
_geom_bond_site_symmetry_2
_ccdc_geom_bond_type
C0 C1 1.351 . S
C0 N3 1.368 . S
C0 H5 0.931 . S
C1 C0 1.351 . S
C1 N2 1.373 . S
C1 H29 0.930 . S
N2 C1 1.373 . S
N2 C4 1.340 . S
N3 C0 1.368 . S
N3 C4 1.321 . S
N3 Co6 2.135 . S
C4 N2 1.340 . S
C4 N3 1.321 . S
C4 H28 0.930 . S
H5 C0 0.931 . S
Co6 N3 2.135 . S
Co6 N9 2.121 1_554 S
Co6 O14 2.055 . S
Co6 O17 2.039 . S
Co6 N20 2.140 . S
C7 O8 1.227 . S
C7 O17 1.265 . S
O8 C7 1.227 . S
N9 Co6 2.121 1_556 S
N9 C11 1.375 . S
N9 C12 1.313 . S
C10 C11 1.338 . S
C10 N13 1.377 . S
C10 H30 0.930 . S
C11 N9 1.375 . S
C11 C10 1.338 . S
C11 H15 0.931 . S
C12 N9 1.313 . S
C12 N13 1.344 . S
C12 H16 0.930 . S
N13 C10 1.377 . S
N13 C12 1.344 . S
O14 Co6 2.055 . S
O14 C18 1.253 . S
H15 C11 0.931 . S
H16 C12 0.930 . S
O17 Co6 2.039 . S
O17 C7 1.265 . S
C18 O14 1.253 . S
C18 O19 1.227 . S
O19 C18 1.227 . S
N20 Co6 2.140 . S
N20 C23 1.346 . S
N20 C24 1.345 1_554 S
C21 C22 1.387 . S
C21 C25 1.391 1_554 S
C22 C21 1.387 . S
C22 C23 1.369 1_565 S
C22 H31 0.929 . S
C23 N20 1.346 . S
C23 C22 1.369 1_545 S
C23 H26 0.928 . S
C24 N20 1.345 1_556 S
C24 C25 1.371 1_545 S
C24 H27 0.931 . S
C25 C21 1.391 1_556 S
C25 C24 1.371 1_565 S
C25 H32 0.930 . S
H26 C23 0.928 . S
H27 C24 0.931 . S
H28 C4 0.930 . S
H29 C1 0.930 . S
H30 C10 0.930 . S
H31 C22 0.929 . S
H32 C25 0.930 . S
C33 C34 1.351 . S
C33 N36 1.368 . S
C33 H38 0.931 . S
C34 C33 1.351 . S
C34 N35 1.373 . S
C34 H62 0.930 . S
N35 C34 1.373 . S
N35 C37 1.340 . S
N36 C33 1.368 . S
N36 C37 1.321 . S
N36 Co39 2.135 . S
C37 N35 1.340 . S
C37 N36 1.321 . S
C37 H61 0.930 . S
H38 C33 0.931 . S
Co39 N36 2.135 . S
Co39 N42 2.121 . S
Co39 O47 2.055 . S
Co39 O50 2.039 . S
Co39 N53 2.140 . S
C40 O41 1.227 . S
C40 O50 1.265 . S
O41 C40 1.227 . S
N42 Co39 2.121 . S
N42 C44 1.375 . S
N42 C45 1.313 . S
C43 C44 1.338 . S
C43 N46 1.377 . S
C43 H63 0.930 . S
C44 N42 1.375 . S
C44 C43 1.338 . S
C44 H48 0.931 . S
C45 N42 1.313 . S
C45 N46 1.344 . S
C45 H49 0.930 . S
N46 C43 1.377 . S
N46 C45 1.344 . S
O47 Co39 2.055 . S
O47 C51 1.253 . S
H48 C44 0.931 . S
H49 C45 0.930 . S
O50 Co39 2.039 . S
O50 C40 1.265 . S
C51 O47 1.253 . S
C51 O52 1.227 . S
O52 C51 1.227 . S
N53 Co39 2.140 . S
N53 C56 1.346 . S
N53 C57 1.345 . S
C54 C55 1.387 . S
C54 C58 1.391 . S
C55 C54 1.387 . S
C55 C56 1.369 . S
C55 H64 0.929 . S
C56 N53 1.346 . S
C56 C55 1.369 . S
C56 H59 0.928 . S
C57 N53 1.345 . S
C57 C58 1.371 . S
C57 H60 0.931 . S
C58 C54 1.391 . S
C58 C57 1.371 . S
C58 H65 0.930 . S
H59 C56 0.928 . S
H60 C57 0.931 . S
H61 C37 0.930 . S
H62 C34 0.930 . S
H63 C43 0.930 . S
H64 C55 0.929 . S
H65 C58 0.930 . S
C66 C67 1.351 . S
C66 N69 1.368 . S
C66 H71 0.931 . S
C67 C66 1.351 . S
C67 N68 1.373 . S
C67 H95 0.930 . S
N68 C67 1.373 . S
N68 C70 1.340 . S
N69 C66 1.368 . S
N69 C70 1.321 . S
N69 Co72 2.135 . S
C70 N68 1.340 . S
C70 N69 1.321 . S
C70 H94 0.930 . S
H71 C66 0.931 . S
Co72 N69 2.135 . S
Co72 N75 2.121 . S
Co72 O80 2.055 . S
Co72 O83 2.039 . S
Co72 N86 2.140 . S
C73 O74 1.227 . S
C73 O83 1.265 . S
O74 C73 1.227 . S
N75 Co72 2.121 . S
N75 C77 1.375 . S
N75 C78 1.313 . S
C76 C77 1.338 . S
C76 N79 1.377 . S
C76 H96 0.930 . S
C77 N75 1.375 . S
C77 C76 1.338 . S
C77 H81 0.931 . S
C78 N75 1.313 . S
C78 N79 1.344 . S
C78 H82 0.930 . S
N79 C76 1.377 . S
N79 C78 1.344 . S
O80 Co72 2.055 . S
O80 C84 1.253 . S
H81 C77 0.931 . S
H82 C78 0.930 . S
O83 Co72 2.039 . S
O83 C73 1.265 . S
C84 O80 1.253 . S
C84 O85 1.227 . S
O85 C84 1.227 . S
N86 Co72 2.140 . S
N86 C89 1.346 . S
N86 C90 1.345 . S
C87 C88 1.387 . S
C87 C91 1.391 . S
C88 C87 1.387 . S
C88 C89 1.369 1_565 S
C88 H97 0.929 . S
C89 N86 1.346 . S
C89 C88 1.369 1_545 S
C89 H92 0.928 . S
C90 N86 1.345 . S
C90 C91 1.371 1_545 S
C90 H93 0.931 . S
C91 C87 1.391 . S
C91 C90 1.371 1_565 S
C91 H98 0.930 . S
H92 C89 0.928 . S
H93 C90 0.931 . S
H94 C70 0.930 . S
H95 C67 0.930 . S
H96 C76 0.930 . S
H97 C88 0.929 . S
H98 C91 0.930 . S
C99 C100 1.351 . S
C99 N102 1.368 . S
C99 H104 0.931 . S
C100 C99 1.351 . S
C100 N101 1.373 . S
C100 H128 0.930 . S
N101 C100 1.373 . S
N101 C103 1.340 . S
N102 C99 1.368 . S
N102 C103 1.321 . S
N102 Co105 2.135 . S
C103 N101 1.340 . S
C103 N102 1.321 . S
C103 H127 0.930 . S
H104 C99 0.931 . S
Co105 N102 2.135 . S
Co105 N108 2.121 . S
Co105 O113 2.055 . S
Co105 O116 2.039 . S
Co105 N119 2.140 . S
C106 O107 1.227 . S
C106 O116 1.265 . S
O107 C106 1.227 . S
N108 Co105 2.121 . S
N108 C110 1.375 . S
N108 C111 1.313 . S
C109 C110 1.338 . S
C109 N112 1.377 1_556 S
C109 H129 0.930 1_556 S
C110 N108 1.375 . S
C110 C109 1.338 . S
C110 H114 0.931 . S
C111 N108 1.313 . S
C111 N112 1.344 1_556 S
C111 H115 0.930 . S
N112 C109 1.377 1_554 S
N112 C111 1.344 1_554 S
O113 Co105 2.055 . S
O113 C117 1.253 . S
H114 C110 0.931 . S
H115 C111 0.930 . S
O116 Co105 2.039 . S
O116 C106 1.265 . S
C117 O113 1.253 . S
C117 O118 1.227 . S
O118 C117 1.227 . S
N119 Co105 2.140 . S
N119 C122 1.346 . S
N119 C123 1.345 . S
C120 C121 1.387 . S
C120 C124 1.391 . S
C121 C120 1.387 . S
C121 C122 1.369 . S
C121 H130 0.929 . S
C122 N119 1.346 . S
C122 C121 1.369 . S
C122 H125 0.928 . S
C123 N119 1.345 . S
C123 C124 1.371 . S
C123 H126 0.931 . S
C124 C120 1.391 . S
C124 C123 1.371 . S
C124 H131 0.930 . S
H125 C122 0.928 . S
H126 C123 0.931 . S
H127 C103 0.930 . S
H128 C100 0.930 . S
H129 C109 0.930 1_554 S
H130 C121 0.929 . S
H131 C124 0.930 . S
C132 C133 1.351 . S
C132 N135 1.368 . S
C132 H137 0.931 . S
C133 C132 1.351 . S
C133 N134 1.373 . S
C133 H161 0.930 . S
N134 C133 1.373 . S
N134 C136 1.340 . S
N135 C132 1.368 . S
N135 C136 1.321 . S
N135 Co138 2.135 . S
C136 N134 1.340 . S
C136 N135 1.321 . S
C136 H160 0.930 . S
H137 C132 0.931 . S
Co138 N135 2.135 . S
Co138 N141 2.121 1_556 S
Co138 O146 2.055 . S
Co138 O149 2.039 1_545 S
Co138 N152 2.140 1_556 S
C139 O140 1.227 1_565 S
C139 O149 1.265 . S
O140 C139 1.227 1_545 S
N141 Co138 2.121 1_554 S
N141 C143 1.375 . S
N141 C144 1.313 . S
C142 C143 1.338 . S
C142 N145 1.377 . S
C142 H162 0.930 . S
C143 N141 1.375 . S
C143 C142 1.338 . S
C143 H147 0.931 . S
C144 N141 1.313 . S
C144 N145 1.344 . S
C144 H148 0.930 . S
N145 C142 1.377 . S
N145 C144 1.344 . S
O146 Co138 2.055 . S
O146 C150 1.253 1_556 S
H147 C143 0.931 . S
H148 C144 0.930 . S
O149 Co138 2.039 1_565 S
O149 C139 1.265 . S
C150 O146 1.253 1_554 S
C150 O151 1.227 . S
O151 C150 1.227 . S
N152 Co138 2.140 1_554 S
N152 C155 1.346 1_554 S
N152 C156 1.345 . S
C153 C154 1.387 1_554 S
C153 C157 1.391 . S
C154 C153 1.387 1_556 S
C154 C155 1.369 . S
C154 H163 0.929 . S
C155 N152 1.346 1_556 S
C155 C154 1.369 . S
C155 H158 0.928 . S
C156 N152 1.345 . S
C156 C157 1.371 . S
C156 H159 0.931 . S
C157 C153 1.391 . S
C157 C156 1.371 . S
C157 H164 0.930 . S
H158 C155 0.928 . S
H159 C156 0.931 . S
H160 C136 0.930 . S
H161 C133 0.930 . S
H162 C142 0.930 . S
H163 C154 0.929 . S
H164 C157 0.930 . S
C165 C166 1.351 . S
C165 N168 1.368 . S
C165 H170 0.931 . S
C166 C165 1.351 . S
C166 N167 1.373 . S
C166 H194 0.930 . S
N167 C166 1.373 . S
N167 C169 1.340 . S
N168 C165 1.368 . S
N168 C169 1.321 . S
N168 Co171 2.135 . S
C169 N167 1.340 . S
C169 N168 1.321 . S
C169 H193 0.930 . S
H170 C165 0.931 . S
Co171 N168 2.135 . S
Co171 N174 2.121 . S
Co171 O179 2.055 . S
Co171 O182 2.039 . S
Co171 N185 2.140 . S
C172 O173 1.227 . S
C172 O182 1.265 . S
O173 C172 1.227 . S
N174 Co171 2.121 . S
N174 C176 1.375 . S
N174 C177 1.313 . S
C175 C176 1.338 1_554 S
C175 N178 1.377 . S
C175 H195 0.930 . S
C176 N174 1.375 . S
C176 C175 1.338 1_556 S
C176 H180 0.931 . S
C177 N174 1.313 . S
C177 N178 1.344 1_556 S
C177 H181 0.930 . S
N178 C175 1.377 . S
N178 C177 1.344 1_554 S
O179 Co171 2.055 . S
O179 C183 1.253 . S
H180 C176 0.931 . S
H181 C177 0.930 . S
O182 Co171 2.039 . S
O182 C172 1.265 . S
C183 O179 1.253 . S
C183 O184 1.227 . S
O184 C183 1.227 . S
N185 Co171 2.140 . S
N185 C188 1.346 . S
N185 C189 1.345 . S
C186 C187 1.387 . S
C186 C190 1.391 . S
C187 C186 1.387 . S
C187 C188 1.369 . S
C187 H196 0.929 . S
C188 N185 1.346 . S
C188 C187 1.369 . S
C188 H191 0.928 . S
C189 N185 1.345 . S
C189 C190 1.371 . S
C189 H192 0.931 . S
C190 C186 1.391 . S
C190 C189 1.371 . S
C190 H197 0.930 . S
H191 C188 0.928 . S
H192 C189 0.931 . S
H193 C169 0.930 . S
H194 C166 0.930 . S
H195 C175 0.930 . S
H196 C187 0.929 . S
H197 C190 0.930 . S
C198 C199 1.351 . S
C198 N201 1.368 . S
C198 H203 0.931 . S
C199 C198 1.351 . S
C199 N200 1.373 . S
C199 H227 0.930 . S
N200 C199 1.373 . S
N200 C202 1.340 . S
N201 C198 1.368 . S
N201 C202 1.321 . S
N201 Co204 2.135 . S
C202 N200 1.340 . S
C202 N201 1.321 . S
C202 H226 0.930 . S
H203 C198 0.931 . S
Co204 N201 2.135 . S
Co204 N207 2.121 . S
Co204 O212 2.055 . S
Co204 O215 2.039 1_545 S
Co204 N218 2.140 . S
C205 O206 1.227 1_565 S
C205 O215 1.265 . S
O206 C205 1.227 1_545 S
N207 Co204 2.121 . S
N207 C209 1.375 . S
N207 C210 1.313 . S
C208 C209 1.338 . S
C208 N211 1.377 . S
C208 H228 0.930 . S
C209 N207 1.375 . S
C209 C208 1.338 . S
C209 H213 0.931 . S
C210 N207 1.313 . S
C210 N211 1.344 . S
C210 H214 0.930 . S
N211 C208 1.377 . S
N211 C210 1.344 . S
O212 Co204 2.055 . S
O212 C216 1.253 . S
H213 C209 0.931 . S
H214 C210 0.930 . S
O215 Co204 2.039 1_565 S
O215 C205 1.265 . S
C216 O212 1.253 . S
C216 O217 1.227 . S
O217 C216 1.227 . S
N218 Co204 2.140 . S
N218 C221 1.346 . S
N218 C222 1.345 . S
C219 C220 1.387 . S
C219 C223 1.391 . S
C220 C219 1.387 . S
C220 C221 1.369 . S
C220 H229 0.929 . S
C221 N218 1.346 . S
C221 C220 1.369 . S
C221 H224 0.928 . S
C222 N218 1.345 . S
C222 C223 1.371 . S
C222 H225 0.931 . S
C223 C219 1.391 . S
C223 C222 1.371 . S
C223 H230 0.930 . S
H224 C221 0.928 . S
H225 C222 0.931 . S
H226 C202 0.930 . S
H227 C199 0.930 . S
H228 C208 0.930 . S
H229 C220 0.929 . S
H230 C223 0.930 . S
C231 C232 1.351 . S
C231 N234 1.368 . S
C231 H236 0.931 . S
C232 C231 1.351 . S
C232 N233 1.373 . S
C232 H260 0.930 . S
N233 C232 1.373 . S
N233 C235 1.340 . S
N234 C231 1.368 . S
N234 C235 1.321 . S
N234 Co237 2.135 . S
C235 N233 1.340 . S
C235 N234 1.321 . S
C235 H259 0.930 . S
H236 C231 0.931 . S
Co237 N234 2.135 . S
Co237 N240 2.121 . S
Co237 O245 2.055 . S
Co237 O248 2.039 . S
Co237 N251 2.140 . S
C238 O239 1.227 . S
C238 O248 1.265 . S
O239 C238 1.227 . S
N240 Co237 2.121 . S
N240 C242 1.375 . S
N240 C243 1.313 . S
C241 C242 1.338 . S
C241 N244 1.377 . S
C241 H261 0.930 . S
C242 N240 1.375 . S
C242 C241 1.338 . S
C242 H246 0.931 . S
C243 N240 1.313 . S
C243 N244 1.344 . S
C243 H247 0.930 . S
N244 C241 1.377 . S
N244 C243 1.344 . S
O245 Co237 2.055 . S
O245 C249 1.253 . S
H246 C242 0.931 . S
H247 C243 0.930 . S
O248 Co237 2.039 . S
O248 C238 1.265 . S
C249 O245 1.253 . S
C249 O250 1.227 . S
O250 C249 1.227 . S
N251 Co237 2.140 . S
N251 C254 1.346 . S
N251 C255 1.345 . S
C252 C253 1.387 . S
C252 C256 1.391 . S
C253 C252 1.387 . S
C253 C254 1.369 . S
C253 H262 0.929 . S
C254 N251 1.346 . S
C254 C253 1.369 . S
C254 H257 0.928 . S
C255 N251 1.345 . S
C255 C256 1.371 . S
C255 H258 0.931 . S
C256 C252 1.391 . S
C256 C255 1.371 . S
C256 H263 0.930 . S
H257 C254 0.928 . S
H258 C255 0.931 . S
H259 C235 0.930 . S
H260 C232 0.930 . S
H261 C241 0.930 . S
H262 C253 0.929 . S
H263 C256 0.930 . S
C264 C265 1.351 . S
C264 N267 1.368 . S
C264 H269 0.931 . S
C265 C264 1.351 . S
C265 N266 1.373 . S
C265 H293 0.930 . S
N266 C265 1.373 . S
N266 C268 1.340 . S
N267 C264 1.368 . S
N267 C268 1.321 . S
N267 Co270 2.135 . S
C268 N266 1.340 . S
C268 N267 1.321 . S
C268 H292 0.930 . S
H269 C264 0.931 . S
Co270 N267 2.135 . S
Co270 N273 2.121 . S
Co270 O278 2.055 . S
Co270 O281 2.039 . S
Co270 N284 2.140 . S
C271 O272 1.227 . S
C271 O281 1.265 . S
O272 C271 1.227 . S
N273 Co270 2.121 . S
N273 C275 1.375 . S
N273 C276 1.313 . S
C274 C275 1.338 . S
C274 N277 1.377 . S
C274 H294 0.930 . S
C275 N273 1.375 . S
C275 C274 1.338 . S
C275 H279 0.931 . S
C276 N273 1.313 . S
C276 N277 1.344 . S
C276 H280 0.930 . S
N277 C274 1.377 . S
N277 C276 1.344 . S
O278 Co270 2.055 . S
O278 C282 1.253 . S
H279 C275 0.931 . S
H280 C276 0.930 . S
O281 Co270 2.039 . S
O281 C271 1.265 . S
C282 O278 1.253 . S
C282 O283 1.227 . S
O283 C282 1.227 . S
N284 Co270 2.140 . S
N284 C287 1.346 . S
N284 C288 1.345 . S
C285 C286 1.387 . S
C285 C289 1.391 . S
C286 C285 1.387 . S
C286 C287 1.369 . S
C286 H295 0.929 . S
C287 N284 1.346 . S
C287 C286 1.369 . S
C287 H290 0.928 . S
C288 N284 1.345 . S
C288 C289 1.371 . S
C288 H291 0.931 . S
C289 C285 1.391 . S
C289 C288 1.371 . S
C289 H296 0.930 . S
H290 C287 0.928 . S
H291 C288 0.931 . S
H292 C268 0.930 . S
H293 C265 0.930 . S
H294 C274 0.930 . S
H295 C286 0.929 . S
H296 C289 0.930 . S
C297 C298 1.357 . S
C297 N300 1.366 1_554 S
C297 H302 0.927 1_554 S
C298 C297 1.357 . S
C298 N299 1.373 . S
C298 H326 0.930 . S
N299 C298 1.373 . S
N299 C301 1.340 . S
N300 C297 1.366 1_556 S
N300 C301 1.321 1_556 S
N300 Co303 2.135 . S
C301 N299 1.340 . S
C301 N300 1.321 1_554 S
C301 H325 0.930 . S
H302 C297 0.927 1_556 S
Co303 N300 2.135 . S
Co303 N306 2.121 . S
Co303 O311 2.055 . S
Co303 O314 2.039 . S
Co303 N317 2.140 . S
C304 O305 1.227 . S
C304 O314 1.265 . S
O305 C304 1.227 . S
N306 Co303 2.121 . S
N306 C308 1.375 . S
N306 C309 1.313 . S
C307 C308 1.338 . S
C307 N310 1.377 . S
C307 H327 0.930 . S
C308 N306 1.375 . S
C308 C307 1.338 . S
C308 H312 0.931 . S
C309 N306 1.313 . S
C309 N310 1.344 . S
C309 H313 0.930 . S
N310 C307 1.377 . S
N310 C309 1.344 . S
O311 Co303 2.055 . S
O311 C315 1.253 . S
H312 C308 0.931 . S
H313 C309 0.930 . S
O314 Co303 2.039 . S
O314 C304 1.265 . S
C315 O311 1.253 . S
C315 O316 1.227 . S
O316 C315 1.227 . S
N317 Co303 2.140 . S
N317 C320 1.346 . S
N317 C321 1.345 . S
C318 C319 1.387 . S
C318 C322 1.391 . S
C319 C318 1.387 . S
C319 C320 1.369 . S
C319 H328 0.929 . S
C320 N317 1.346 . S
C320 C319 1.369 . S
C320 H323 0.928 . S
C321 N317 1.345 . S
C321 C322 1.371 . S
C321 H324 0.931 . S
C322 C318 1.391 . S
C322 C321 1.371 . S
C322 H329 0.930 . S
H323 C320 0.928 . S
H324 C321 0.931 . S
H325 C301 0.930 . S
H326 C298 0.930 . S
H327 C307 0.930 . S
H328 C319 0.929 . S
H329 C322 0.930 . S
C330 C331 1.351 . S
C330 N333 1.368 . S
C330 H335 0.931 . S
C331 C330 1.351 . S
C331 N332 1.373 . S
C331 H359 0.930 . S
N332 C331 1.373 . S
N332 C334 1.340 . S
N333 C330 1.368 . S
N333 C334 1.321 . S
N333 Co336 2.135 1_556 S
C334 N332 1.340 . S
C334 N333 1.321 . S
C334 H358 0.930 . S
H335 C330 0.931 . S
Co336 N333 2.135 1_554 S
Co336 N339 2.121 . S
Co336 O344 2.055 . S
Co336 O347 2.039 1_554 S
Co336 N350 2.140 . S
C337 O338 1.227 . S
C337 O347 1.265 . S
O338 C337 1.227 . S
N339 Co336 2.121 . S
N339 C341 1.375 . S
N339 C342 1.313 . S
C340 C341 1.338 . S
C340 N343 1.377 . S
C340 H360 0.930 . S
C341 N339 1.375 . S
C341 C340 1.338 . S
C341 H345 0.931 . S
C342 N339 1.313 . S
C342 N343 1.344 . S
C342 H346 0.930 . S
N343 C340 1.377 . S
N343 C342 1.344 . S
O344 Co336 2.055 . S
O344 C348 1.253 . S
H345 C341 0.931 . S
H346 C342 0.930 . S
O347 Co336 2.039 1_556 S
O347 C337 1.265 . S
C348 O344 1.253 . S
C348 O349 1.227 . S
O349 C348 1.227 . S
N350 Co336 2.140 . S
N350 C353 1.346 1_554 S
N350 C354 1.345 . S
C351 C352 1.387 1_554 S
C351 C355 1.391 . S
C352 C351 1.387 1_556 S
C352 C353 1.369 . S
C352 H361 0.929 . S
C353 N350 1.346 1_556 S
C353 C352 1.369 . S
C353 H356 0.928 . S
C354 N350 1.345 . S
C354 C355 1.371 . S
C354 H357 0.931 . S
C355 C351 1.391 . S
C355 C354 1.371 . S
C355 H362 0.930 . S
H356 C353 0.928 . S
H357 C354 0.931 . S
H358 C334 0.930 . S
H359 C331 0.930 . S
H360 C340 0.930 . S
H361 C352 0.929 . S
H362 C355 0.930 . S
C363 C364 1.351 . S
C363 N366 1.368 . S
C363 H368 0.931 . S
C364 C363 1.351 . S
C364 N365 1.373 1_554 S
C364 H392 0.930 1_554 S
N365 C364 1.373 1_556 S
N365 C367 1.340 1_556 S
N366 C363 1.368 . S
N366 C367 1.321 . S
N366 Co369 2.135 . S
C367 N365 1.340 1_554 S
C367 N366 1.321 . S
C367 H391 0.930 . S
H368 C363 0.931 . S
Co369 N366 2.135 . S
Co369 N372 2.121 . S
Co369 O377 2.055 . S
Co369 O380 2.039 . S
Co369 N383 2.140 . S
C370 O371 1.227 . S
C370 O380 1.265 . S
O371 C370 1.227 . S
N372 Co369 2.121 . S
N372 C374 1.375 . S
N372 C375 1.313 . S
C373 C374 1.338 . S
C373 N376 1.377 . S
C373 H393 0.930 . S
C374 N372 1.375 . S
C374 C373 1.338 . S
C374 H378 0.931 . S
C375 N372 1.313 . S
C375 N376 1.344 . S
C375 H379 0.930 . S
N376 C373 1.377 . S
N376 C375 1.344 . S
O377 Co369 2.055 . S
O377 C381 1.253 . S
H378 C374 0.931 . S
H379 C375 0.930 . S
O380 Co369 2.039 . S
O380 C370 1.265 . S
C381 O377 1.253 . S
C381 O382 1.227 . S
O382 C381 1.227 . S
N383 Co369 2.140 . S
N383 C386 1.346 . S
N383 C387 1.345 . S
C384 C385 1.387 . S
C384 C388 1.391 . S
C385 C384 1.387 . S
C385 C386 1.369 . S
C385 H394 0.929 . S
C386 N383 1.346 . S
C386 C385 1.369 . S
C386 H389 0.928 . S
C387 N383 1.345 . S
C387 C388 1.371 . S
C387 H390 0.931 . S
C388 C384 1.391 . S
C388 C387 1.371 . S
C388 H395 0.930 . S
H389 C386 0.928 . S
H390 C387 0.931 . S
H391 C367 0.930 . S
H392 C364 0.930 1_556 S
H393 C373 0.930 . S
H394 C385 0.929 . S
H395 C388 0.930 . S
C396 C397 1.351 . S
C396 N399 1.368 . S
C396 H401 0.931 . S
C397 C396 1.351 . S
C397 N398 1.373 . S
C397 H425 0.930 . S
N398 C397 1.373 . S
N398 C400 1.340 . S
N399 C396 1.368 . S
N399 C400 1.321 . S
N399 Co402 2.135 . S
C400 N398 1.340 . S
C400 N399 1.321 . S
C400 H424 0.930 . S
H401 C396 0.931 . S
Co402 N399 2.135 . S
Co402 N405 2.121 . S
Co402 O410 2.055 . S
Co402 O413 2.039 . S
Co402 N416 2.140 . S
C403 O404 1.227 . S
C403 O413 1.265 . S
O404 C403 1.227 . S
N405 Co402 2.121 . S
N405 C407 1.375 . S
N405 C408 1.313 . S
C406 C407 1.338 . S
C406 N409 1.377 . S
C406 H426 0.930 . S
C407 N405 1.375 . S
C407 C406 1.338 . S
C407 H411 0.931 . S
C408 N405 1.313 . S
C408 N409 1.344 . S
C408 H412 0.930 . S
N409 C406 1.377 . S
N409 C408 1.344 . S
O410 Co402 2.055 . S
O410 C414 1.253 . S
H411 C407 0.931 . S
H412 C408 0.930 . S
O413 Co402 2.039 . S
O413 C403 1.265 . S
C414 O410 1.253 . S
C414 O415 1.227 . S
O415 C414 1.227 . S
N416 Co402 2.140 . S
N416 C419 1.346 . S
N416 C420 1.345 . S
C417 C418 1.387 . S
C417 C421 1.391 . S
C418 C417 1.387 . S
C418 C419 1.369 . S
C418 H427 0.929 . S
C419 N416 1.346 . S
C419 C418 1.369 . S
C419 H422 0.928 . S
C420 N416 1.345 . S
C420 C421 1.371 . S
C420 H423 0.931 . S
C421 C417 1.391 . S
C421 C420 1.371 . S
C421 H428 0.930 . S
H422 C419 0.928 . S
H423 C420 0.931 . S
H424 C400 0.930 . S
H425 C397 0.930 . S
H426 C406 0.930 . S
H427 C418 0.929 . S
H428 C421 0.930 . S
C429 C430 1.351 1_554 S
C429 N432 1.368 . S
C429 H434 0.931 . S
C430 C429 1.351 1_556 S
C430 N431 1.373 . S
C430 H458 0.930 . S
N431 C430 1.373 . S
N431 C433 1.340 1_556 S
N432 C429 1.368 . S
N432 C433 1.321 . S
N432 Co435 2.135 . S
C433 N431 1.340 1_554 S
C433 N432 1.321 . S
C433 H457 0.930 . S
H434 C429 0.931 . S
Co435 N432 2.135 . S
Co435 N438 2.121 . S
Co435 O443 2.055 . S
Co435 O446 2.039 . S
Co435 N449 2.140 . S
C436 O437 1.227 . S
C436 O446 1.265 . S
O437 C436 1.227 . S
N438 Co435 2.121 . S
N438 C440 1.375 . S
N438 C441 1.313 . S
C439 C440 1.338 . S
C439 N442 1.377 . S
C439 H459 0.930 . S
C440 N438 1.375 . S
C440 C439 1.338 . S
C440 H444 0.931 . S
C441 N438 1.313 . S
C441 N442 1.344 . S
C441 H445 0.930 . S
N442 C439 1.377 . S
N442 C441 1.344 . S
O443 Co435 2.055 . S
O443 C447 1.253 . S
H444 C440 0.931 . S
H445 C441 0.930 . S
O446 Co435 2.039 . S
O446 C436 1.265 . S
C447 O443 1.253 . S
C447 O448 1.227 . S
O448 C447 1.227 . S
N449 Co435 2.140 . S
N449 C452 1.346 . S
N449 C453 1.345 . S
C450 C451 1.387 . S
C450 C454 1.391 . S
C451 C450 1.387 . S
C451 C452 1.369 . S
C451 H460 0.929 . S
C452 N449 1.346 . S
C452 C451 1.369 . S
C452 H455 0.928 . S
C453 N449 1.345 . S
C453 C454 1.371 . S
C453 H456 0.931 . S
C454 C450 1.391 . S
C454 C453 1.371 . S
C454 H461 0.930 . S
H455 C452 0.928 . S
H456 C453 0.931 . S
H457 C433 0.930 . S
H458 C430 0.930 . S
H459 C439 0.930 . S
H460 C451 0.929 . S
H461 C454 0.930 . S
C462 C463 1.351 . S
C462 N465 1.368 . S
C462 H467 0.931 . S
C463 C462 1.351 . S
C463 N464 1.373 . S
C463 H491 0.930 . S
N464 C463 1.373 . S
N464 C466 1.340 . S
N465 C462 1.368 . S
N465 C466 1.321 . S
N465 Co468 2.135 . S
C466 N464 1.340 . S
C466 N465 1.321 . S
C466 H490 0.930 . S
H467 C462 0.931 . S
Co468 N465 2.135 . S
Co468 N471 2.121 1_554 S
Co468 O476 2.055 . S
Co468 O479 2.039 . S
Co468 N482 2.140 . S
C469 O470 1.227 . S
C469 O479 1.265 . S
O470 C469 1.227 . S
N471 Co468 2.121 1_556 S
N471 C473 1.375 . S
N471 C474 1.313 . S
C472 C473 1.338 . S
C472 N475 1.377 . S
C472 H492 0.930 . S
C473 N471 1.375 . S
C473 C472 1.338 . S
C473 H477 0.931 . S
C474 N471 1.313 . S
C474 N475 1.344 . S
C474 H478 0.930 . S
N475 C472 1.377 . S
N475 C474 1.344 . S
O476 Co468 2.055 . S
O476 C480 1.253 . S
H477 C473 0.931 . S
H478 C474 0.930 . S
O479 Co468 2.039 . S
O479 C469 1.265 . S
C480 O476 1.253 . S
C480 O481 1.227 . S
O481 C480 1.227 . S
N482 Co468 2.140 . S
N482 C485 1.346 . S
N482 C486 1.345 . S
C483 C484 1.387 . S
C483 C487 1.391 . S
C484 C483 1.387 . S
C484 C485 1.369 . S
C484 H493 0.929 . S
C485 N482 1.346 . S
C485 C484 1.369 . S
C485 H488 0.928 . S
C486 N482 1.345 . S
C486 C487 1.371 . S
C486 H489 0.931 1_554 S
C487 C483 1.391 . S
C487 C486 1.371 . S
C487 H494 0.930 1_554 S
H488 C485 0.928 . S
H489 C486 0.931 1_556 S
H490 C466 0.930 . S
H491 C463 0.930 . S
H492 C472 0.930 . S
H493 C484 0.929 . S
H494 C487 0.930 1_556 S
C495 C496 1.351 1_556 S
C495 N498 1.368 . S
C495 H500 0.931 . S
C496 C495 1.351 1_554 S
C496 N497 1.373 . S
C496 H524 0.930 . S
N497 C496 1.373 . S
N497 C499 1.340 . S
N498 C495 1.368 . S
N498 C499 1.321 1_556 S
N498 Co501 2.135 . S
C499 N497 1.340 . S
C499 N498 1.321 1_554 S
C499 H523 0.930 . S
H500 C495 0.931 . S
Co501 N498 2.135 . S
Co501 N504 2.121 . S
Co501 O509 2.055 . S
Co501 O512 2.039 . S
Co501 N515 2.140 . S
C502 O503 1.227 . S
C502 O512 1.265 . S
O503 C502 1.227 . S
N504 Co501 2.121 . S
N504 C506 1.375 . S
N504 C507 1.313 . S
C505 C506 1.338 . S
C505 N508 1.377 . S
C505 H525 0.930 . S
C506 N504 1.375 . S
C506 C505 1.338 . S
C506 H510 0.931 . S
C507 N504 1.313 . S
C507 N508 1.344 . S
C507 H511 0.930 . S
N508 C505 1.377 . S
N508 C507 1.344 . S
O509 Co501 2.055 . S
O509 C513 1.253 . S
H510 C506 0.931 . S
H511 C507 0.930 . S
O512 Co501 2.039 . S
O512 C502 1.265 . S
C513 O509 1.253 . S
C513 O514 1.227 . S
O514 C513 1.227 . S
N515 Co501 2.140 . S
N515 C518 1.346 . S
N515 C519 1.345 . S
C516 C517 1.387 . S
C516 C520 1.391 . S
C517 C516 1.387 . S
C517 C518 1.369 . S
C517 H526 0.929 . S
C518 N515 1.346 . S
C518 C517 1.369 . S
C518 H521 0.928 . S
C519 N515 1.345 . S
C519 C520 1.371 . S
C519 H522 0.931 . S
C520 C516 1.391 . S
C520 C519 1.371 . S
C520 H527 0.930 . S
H521 C518 0.928 . S
H522 C519 0.931 . S
H523 C499 0.930 . S
H524 C496 0.930 . S
H525 C505 0.930 . S
H526 C517 0.929 . S
H527 C520 0.930 . S
H528 C534 0.930 . S
H529 C537 0.930 . S
H530 C538 0.930 . S
H531 C539 0.930 . S
H532 C542 0.930 . S
H533 C543 0.930 . S
C534 H528 0.930 . S
C534 C535 1.355 . S
C534 C536 1.415 . S
C535 C534 1.355 . S
C535 C537 1.419 . S
C536 C534 1.415 . S
C536 C541 1.425 . S
C536 C543 1.409 . S
C537 H529 0.930 . S
C537 C535 1.419 . S
C537 C538 1.362 . S
C538 H530 0.930 . S
C538 C537 1.362 . S
C538 C541 1.409 . S
C539 H531 0.930 . S
C539 C540 1.355 . S
C539 C541 1.415 . S
C540 C539 1.355 . S
C540 C542 1.419 . S
C541 C536 1.425 . S
C541 C538 1.409 . S
C541 C539 1.415 . S
C542 H532 0.930 . S
C542 C540 1.419 . S
C542 C543 1.362 . S
C543 H533 0.930 . S
C543 C536 1.409 . S
C543 C542 1.362 . S
H544 C550 0.930 . S
H545 C553 0.930 1_554 S
H546 C554 0.930 . S
H547 C555 0.930 . S
H548 C558 0.930 . S
H549 C559 0.930 . S
C550 H544 0.930 . S
C550 C551 1.355 . S
C550 C552 1.415 . S
C551 C550 1.355 . S
C551 C553 1.419 . S
C552 C550 1.415 . S
C552 C557 1.425 . S
C552 C559 1.409 . S
C553 H545 0.930 1_556 S
C553 C551 1.419 . S
C553 C554 1.362 . S
C554 H546 0.930 . S
C554 C553 1.362 . S
C554 C557 1.409 . S
C555 H547 0.930 . S
C555 C556 1.355 . S
C555 C557 1.415 . S
C556 C555 1.355 . S
C556 C558 1.419 . S
C557 C552 1.425 . S
C557 C554 1.409 . S
C557 C555 1.415 . S
C558 H548 0.930 . S
C558 C556 1.419 . S
C558 C559 1.362 . S
C559 H549 0.930 . S
C559 C552 1.409 . S
C559 C558 1.362 . S
H560 C566 0.930 . S
H561 C569 0.930 . S
H562 C570 0.930 1_556 S
H563 C571 0.930 . S
H564 C574 0.930 . S
H565 C575 0.930 1_554 S
C566 H560 0.930 . S
C566 C567 1.355 . S
C566 C568 1.415 . S
C567 C566 1.355 . S
C567 C569 1.419 . S
C568 C566 1.415 . S
C568 C573 1.425 1_554 S
C568 C575 1.409 1_554 S
C569 H561 0.930 . S
C569 C567 1.419 . S
C569 C570 1.362 . S
C570 H562 0.930 1_554 S
C570 C569 1.362 . S
C570 C573 1.409 1_554 S
C571 H563 0.930 . S
C571 C572 1.355 . S
C571 C573 1.415 . S
C572 C571 1.355 . S
C572 C574 1.419 . S
C573 C568 1.425 1_556 S
C573 C570 1.409 1_556 S
C573 C571 1.415 . S
C574 H564 0.930 . S
C574 C572 1.419 . S
C574 C575 1.362 . S
C575 H565 0.930 1_556 S
C575 C568 1.409 1_556 S
C575 C574 1.362 . S
H576 C582 0.930 . S
H577 C585 0.930 . S
H578 C586 0.930 . S
H579 C587 0.930 . S
H580 C590 0.930 . S
H581 C591 0.930 . S
C582 H576 0.930 . S
C582 C583 1.355 . S
C582 C584 1.415 . S
C583 C582 1.355 . S
C583 C585 1.419 . S
C584 C582 1.415 . S
C584 C589 1.425 . S
C584 C591 1.409 . S
C585 H577 0.930 . S
C585 C583 1.419 . S
C585 C586 1.362 . S
C586 H578 0.930 . S
C586 C585 1.362 . S
C586 C589 1.409 . S
C587 H579 0.930 . S
C587 C588 1.355 . S
C587 C589 1.415 . S
C588 C587 1.355 . S
C588 C590 1.419 . S
C589 C584 1.425 . S
C589 C586 1.409 . S
C589 C587 1.415 . S
C590 H580 0.930 . S
C590 C588 1.419 . S
C590 C591 1.362 . S
C591 H581 0.930 . S
C591 C584 1.409 . S
C591 C590 1.362 . S
H592 C598 0.930 . S
H593 C601 0.930 . S
H594 C602 0.930 1_565 S
H595 C603 0.930 1_565 S
H596 C606 0.930 . S
H597 C607 0.930 . S
C598 H592 0.930 . S
C598 C599 1.355 . S
C598 C600 1.415 . S
C599 C598 1.355 . S
C599 C601 1.419 . S
C600 C598 1.415 . S
C600 C605 1.425 . S
C600 C607 1.409 . S
C601 H593 0.930 . S
C601 C599 1.419 . S
C601 C602 1.362 . S
C602 H594 0.930 1_545 S
C602 C601 1.362 . S
C602 C605 1.409 . S
C603 H595 0.930 1_545 S
C603 C604 1.355 . S
C603 C605 1.415 . S
C604 C603 1.355 . S
C604 C606 1.419 . S
C605 C600 1.425 . S
C605 C602 1.409 . S
C605 C603 1.415 . S
C606 H596 0.930 . S
C606 C604 1.419 . S
C606 C607 1.362 . S
C607 H597 0.930 . S
C607 C600 1.409 . S
C607 C606 1.362 . S
H608 C614 0.930 . S
H609 C617 0.930 . S
H610 C618 0.930 . S
H611 C619 0.930 . S
H612 C622 0.930 . S
H613 C623 0.930 . S
C614 H608 0.930 . S
C614 C615 1.355 . S
C614 C616 1.415 . S
C615 C614 1.355 . S
C615 C617 1.419 . S
C616 C614 1.415 . S
C616 C621 1.425 . S
C616 C623 1.409 . S
C617 H609 0.930 . S
C617 C615 1.419 . S
C617 C618 1.362 . S
C618 H610 0.930 . S
C618 C617 1.362 . S
C618 C621 1.409 . S
C619 H611 0.930 . S
C619 C620 1.355 . S
C619 C621 1.415 . S
C620 C619 1.355 . S
C620 C622 1.419 . S
C621 C616 1.425 . S
C621 C618 1.409 . S
C621 C619 1.415 . S
C622 H612 0.930 . S
C622 C620 1.419 . S
C622 C623 1.362 . S
C623 H613 0.930 . S
C623 C616 1.409 . S
C623 C622 1.362 . S
H624 C630 0.930 . S
H625 C633 0.930 . S
H626 C634 0.930 . S
H627 C635 0.930 . S
H628 C638 0.930 . S
H629 C639 0.930 . S
C630 H624 0.930 . S
C630 C631 1.355 . S
C630 C632 1.415 . S
C631 C630 1.355 . S
C631 C633 1.419 . S
C632 C630 1.415 . S
C632 C637 1.425 . S
C632 C639 1.409 . S
C633 H625 0.930 . S
C633 C631 1.419 . S
C633 C634 1.362 . S
C634 H626 0.930 . S
C634 C633 1.362 . S
C634 C637 1.409 . S
C635 H627 0.930 . S
C635 C636 1.355 . S
C635 C637 1.415 1_556 S
C636 C635 1.355 . S
C636 C638 1.419 . S
C637 C632 1.425 . S
C637 C634 1.409 . S
C637 C635 1.415 1_554 S
C638 H628 0.930 . S
C638 C636 1.419 . S
C638 C639 1.362 1_556 S
C639 H629 0.930 . S
C639 C632 1.409 . S
C639 C638 1.362 1_554 S
H640 C646 0.930 . S
H641 C649 0.930 . S
H642 C650 0.930 . S
H643 C651 0.930 . S
H644 C654 0.930 1_554 S
H645 C655 0.930 . S
C646 H640 0.930 . S
C646 C647 1.355 . S
C646 C648 1.415 . S
C647 C646 1.355 . S
C647 C649 1.419 . S
C648 C646 1.415 . S
C648 C653 1.425 . S
C648 C655 1.409 . S
C649 H641 0.930 . S
C649 C647 1.419 . S
C649 C650 1.362 . S
C650 H642 0.930 . S
C650 C649 1.362 . S
C650 C653 1.409 . S
C651 H643 0.930 . S
C651 C652 1.355 . S
C651 C653 1.415 . S
C652 C651 1.355 . S
C652 C654 1.419 . S
C653 C648 1.425 . S
C653 C650 1.409 . S
C653 C651 1.415 . S
C654 H644 0.930 1_556 S
C654 C652 1.419 . S
C654 C655 1.362 . S
C655 H645 0.930 . S
C655 C648 1.409 . S
C655 C654 1.362 . S
H656 C662 0.930 . S
H657 C665 0.930 . S
H658 C666 0.930 . S
H659 C667 0.930 . S
H660 C670 0.930 . S
H661 C671 0.930 . S
C662 H656 0.930 . S
C662 C663 1.355 . S
C662 C664 1.415 . S
C663 C662 1.355 . S
C663 C665 1.419 . S
C664 C662 1.415 . S
C664 C669 1.425 . S
C664 C671 1.409 . S
C665 H657 0.930 . S
C665 C663 1.419 . S
C665 C666 1.362 . S
C666 H658 0.930 . S
C666 C665 1.362 . S
C666 C669 1.409 . S
C667 H659 0.930 . S
C667 C668 1.355 . S
C667 C669 1.415 1_556 S
C668 C667 1.355 . S
C668 C670 1.419 . S
C669 C664 1.425 . S
C669 C666 1.409 . S
C669 C667 1.415 1_554 S
C670 H660 0.930 . S
C670 C668 1.419 . S
C670 C671 1.362 1_556 S
C671 H661 0.930 . S
C671 C664 1.409 . S
C671 C670 1.362 1_554 S
H672 C678 0.930 . S
H673 C681 0.930 . S
H674 C682 0.930 . S
H675 C683 0.930 . S
H676 C686 0.930 . S
H677 C687 0.930 . S
C678 H672 0.930 . S
C678 C679 1.355 . S
C678 C680 1.415 . S
C679 C678 1.355 . S
C679 C681 1.419 . S
C680 C678 1.415 . S
C680 C685 1.425 . S
C680 C687 1.409 . S
C681 H673 0.930 . S
C681 C679 1.419 . S
C681 C682 1.362 . S
C682 H674 0.930 . S
C682 C681 1.362 . S
C682 C685 1.409 . S
C683 H675 0.930 . S
C683 C684 1.355 . S
C683 C685 1.415 . S
C684 C683 1.355 . S
C684 C686 1.419 . S
C685 C680 1.425 . S
C685 C682 1.409 . S
C685 C683 1.415 . S
C686 H676 0.930 . S
C686 C684 1.419 . S
C686 C687 1.362 . S
C687 H677 0.930 . S
C687 C680 1.409 . S
C687 C686 1.362 . S
H688 C694 0.930 . S
H689 C697 0.930 . S
H690 C698 0.930 . S
H691 C699 0.930 . S
H692 C702 0.930 . S
H693 C703 0.930 . S
C694 H688 0.930 . S
C694 C695 1.355 . S
C694 C696 1.415 . S
C695 C694 1.355 . S
C695 C697 1.419 . S
C696 C694 1.415 . S
C696 C701 1.425 . S
C696 C703 1.409 . S
C697 H689 0.930 . S
C697 C695 1.419 . S
C697 C698 1.362 . S
C698 H690 0.930 . S
C698 C697 1.362 . S
C698 C701 1.409 . S
C699 H691 0.930 . S
C699 C700 1.355 . S
C699 C701 1.415 . S
C700 C699 1.355 . S
C700 C702 1.419 . S
C701 C696 1.425 . S
C701 C698 1.409 . S
C701 C699 1.415 . S
C702 H692 0.930 . S
C702 C700 1.419 . S
C702 C703 1.362 . S
C703 H693 0.930 . S
C703 C696 1.409 . S
C703 C702 1.362 . S
H704 C710 0.930 . S
H705 C713 0.930 . S
H706 C714 0.930 . S
H707 C715 0.930 . S
H708 C718 0.930 . S
H709 C719 0.930 . S
C710 H704 0.930 . S
C710 C711 1.355 . S
C710 C712 1.415 . S
C711 C710 1.355 . S
C711 C713 1.419 . S
C712 C710 1.415 . S
C712 C717 1.425 . S
C712 C719 1.409 . S
C713 H705 0.930 . S
C713 C711 1.419 . S
C713 C714 1.362 . S
C714 H706 0.930 . S
C714 C713 1.362 . S
C714 C717 1.409 . S
C715 H707 0.930 . S
C715 C716 1.355 . S
C715 C717 1.415 . S
C716 C715 1.355 . S
C716 C718 1.419 . S
C717 C712 1.425 . S
C717 C714 1.409 . S
C717 C715 1.415 . S
C718 H708 0.930 . S
C718 C716 1.419 . S
C718 C719 1.362 . S
C719 H709 0.930 . S
C719 C712 1.409 . S
C719 C718 1.362 . S
H720 C726 0.930 . S
H721 C729 0.930 . S
H722 C730 0.930 . S
H723 C731 0.930 . S
H724 C734 0.930 . S
H725 C735 0.930 . S
C726 H720 0.930 . S
C726 C727 1.355 . S
C726 C728 1.415 . S
C727 C726 1.355 . S
C727 C729 1.419 . S
C728 C726 1.415 . S
C728 C733 1.425 1_556 S
C728 C735 1.409 1_556 S
C729 H721 0.930 . S
C729 C727 1.419 . S
C729 C730 1.362 . S
C730 H722 0.930 . S
C730 C729 1.362 . S
C730 C733 1.409 1_556 S
C731 H723 0.930 . S
C731 C732 1.355 . S
C731 C733 1.415 . S
C732 C731 1.355 . S
C732 C734 1.419 . S
C733 C728 1.425 1_554 S
C733 C730 1.409 1_554 S
C733 C731 1.415 . S
C734 H724 0.930 . S
C734 C732 1.419 . S
C734 C735 1.362 . S
C735 H725 0.930 . S
C735 C728 1.409 1_554 S
C735 C734 1.362 . S
H736 C742 0.930 . S
H737 C745 0.930 . S
H738 C746 0.930 . S
H739 C747 0.930 . S
H740 C750 0.930 . S
H741 C751 0.930 . S
C742 H736 0.930 . S
C742 C743 1.355 . S
C742 C744 1.415 . S
C743 C742 1.355 . S
C743 C745 1.419 . S
C744 C742 1.415 . S
C744 C749 1.425 . S
C744 C751 1.409 . S
C745 H737 0.930 . S
C745 C743 1.419 . S
C745 C746 1.362 . S
C746 H738 0.930 . S
C746 C745 1.362 . S
C746 C749 1.409 . S
C747 H739 0.930 . S
C747 C748 1.355 . S
C747 C749 1.415 . S
C748 C747 1.355 . S
C748 C750 1.419 . S
C749 C744 1.425 . S
C749 C746 1.409 . S
C749 C747 1.415 . S
C750 H740 0.930 . S
C750 C748 1.419 . S
C750 C751 1.362 . S
C751 H741 0.930 . S
C751 C744 1.409 . S
C751 C750 1.362 . S
H752 C758 0.930 . S
H753 C761 0.930 . S
H754 C762 0.930 . S
H755 C763 0.930 . S
H756 C766 0.930 . S
H757 C767 0.930 . S
C758 H752 0.930 . S
C758 C759 1.355 . S
C758 C760 1.415 . S
C759 C758 1.355 . S
C759 C761 1.419 . S
C760 C758 1.415 . S
C760 C765 1.425 . S
C760 C767 1.409 . S
C761 H753 0.930 . S
C761 C759 1.419 . S
C761 C762 1.362 . S
C762 H754 0.930 . S
C762 C761 1.362 . S
C762 C765 1.409 . S
C763 H755 0.930 . S
C763 C764 1.355 . S
C763 C765 1.415 . S
C764 C763 1.355 . S
C764 C766 1.419 . S
C765 C760 1.425 . S
C765 C762 1.409 . S
C765 C763 1.415 . S
C766 H756 0.930 . S
C766 C764 1.419 . S
C766 C767 1.362 . S
C767 H757 0.930 . S
C767 C760 1.409 . S
C767 C766 1.362 . S
H768 C774 0.930 . S
H769 C777 0.930 . S
H770 C778 0.930 . S
H771 C779 0.930 . S
H772 C782 0.930 . S
H773 C783 0.930 . S
C774 H768 0.930 . S
C774 C775 1.355 . S
C774 C776 1.415 . S
C775 C774 1.355 . S
C775 C777 1.419 . S
C776 C774 1.415 . S
C776 C781 1.425 . S
C776 C783 1.409 . S
C777 H769 0.930 . S
C777 C775 1.419 . S
C777 C778 1.362 . S
C778 H770 0.930 . S
C778 C777 1.362 . S
C778 C781 1.409 . S
C779 H771 0.930 . S
C779 C780 1.355 . S
C779 C781 1.415 . S
C780 C779 1.355 . S
C780 C782 1.419 . S
C781 C776 1.425 . S
C781 C778 1.409 . S
C781 C779 1.415 . S
C782 H772 0.930 . S
C782 C780 1.419 . S
C782 C783 1.362 . S
C783 H773 0.930 . S
C783 C776 1.409 . S
C783 C782 1.362 . S
H784 C790 0.930 . S
H785 C793 0.930 . S
H786 C794 0.930 . S
H787 C795 0.930 . S
H788 C798 0.930 . S
H789 C799 0.930 . S
C790 H784 0.930 . S
C790 C791 1.355 . S
C790 C792 1.415 . S
C791 C790 1.355 . S
C791 C793 1.419 . S
C792 C790 1.415 . S
C792 C797 1.425 . S
C792 C799 1.409 . S
C793 H785 0.930 . S
C793 C791 1.419 . S
C793 C794 1.362 . S
C794 H786 0.930 . S
C794 C793 1.362 . S
C794 C797 1.409 . S
C795 H787 0.930 . S
C795 C796 1.355 . S
C795 C797 1.415 . S
C796 C795 1.355 . S
C796 C798 1.419 . S
C797 C792 1.425 . S
C797 C794 1.409 . S
C797 C795 1.415 . S
C798 H788 0.930 . S
C798 C796 1.419 . S
C798 C799 1.362 . S
C799 H789 0.930 . S
C799 C792 1.409 . S
C799 C798 1.362 . S
H800 C806 0.930 . S
H801 C809 0.930 . S
H802 C810 0.930 . S
H803 C811 0.930 . S
H804 C814 0.930 . S
H805 C815 0.930 . S
C806 H800 0.930 . S
C806 C807 1.355 . S
C806 C808 1.415 . S
C807 C806 1.355 . S
C807 C809 1.419 . S
C808 C806 1.415 . S
C808 C813 1.425 . S
C808 C815 1.409 . S
C809 H801 0.930 . S
C809 C807 1.419 . S
C809 C810 1.362 . S
C810 H802 0.930 . S
C810 C809 1.362 . S
C810 C813 1.409 . S
C811 H803 0.930 . S
C811 C812 1.355 . S
C811 C813 1.415 . S
C812 C811 1.355 . S
C812 C814 1.419 . S
C813 C808 1.425 . S
C813 C810 1.409 . S
C813 C811 1.415 . S
C814 H804 0.930 . S
C814 C812 1.419 . S
C814 C815 1.362 . S
C815 H805 0.930 . S
C815 C808 1.409 . S
C815 C814 1.362 . S
H816 C822 0.930 . S
H817 C825 0.930 . S
H818 C826 0.930 . S
H819 C827 0.930 . S
H820 C830 0.930 . S
H821 C831 0.930 . S
C822 H816 0.930 . S
C822 C823 1.355 . S
C822 C824 1.415 . S
C823 C822 1.355 . S
C823 C825 1.419 . S
C824 C822 1.415 . S
C824 C829 1.425 . S
C824 C831 1.409 . S
C825 H817 0.930 . S
C825 C823 1.419 . S
C825 C826 1.362 . S
C826 H818 0.930 . S
C826 C825 1.362 . S
C826 C829 1.409 . S
C827 H819 0.930 . S
C827 C828 1.355 . S
C827 C829 1.415 . S
C828 C827 1.355 . S
C828 C830 1.419 . S
C829 C824 1.425 . S
C829 C826 1.409 . S
C829 C827 1.415 . S
C830 H820 0.930 . S
C830 C828 1.419 . S
C830 C831 1.362 . S
C831 H821 0.930 . S
C831 C824 1.409 . S
C831 C830 1.362 . S
H832 C838 0.930 . S
H833 C841 0.930 . S
H834 C842 0.930 . S
H835 C843 0.930 . S
H836 C846 0.930 . S
H837 C847 0.930 . S
C838 H832 0.930 . S
C838 C839 1.355 1_556 S
C838 C840 1.415 . S
C839 C838 1.355 1_554 S
C839 C841 1.419 . S
C840 C838 1.415 . S
C840 C845 1.425 . S
C840 C847 1.409 . S
C841 H833 0.930 . S
C841 C839 1.419 . S
C841 C842 1.362 1_554 S
C842 H834 0.930 . S
C842 C841 1.362 1_556 S
C842 C845 1.409 . S
C843 H835 0.930 . S
C843 C844 1.355 . S
C843 C845 1.415 . S
C844 C843 1.355 . S
C844 C846 1.419 . S
C845 C840 1.425 . S
C845 C842 1.409 . S
C845 C843 1.415 . S
C846 H836 0.930 . S
C846 C844 1.419 . S
C846 C847 1.362 . S
C847 H837 0.930 . S
C847 C840 1.409 . S
C847 C846 1.362 . S
H848 C854 0.930 . S
H849 C857 0.930 . S
H850 C858 0.930 . S
H851 C859 0.930 . S
H852 C862 0.930 1_554 S
H853 C863 0.930 . S
C854 H848 0.930 . S
C854 C855 1.355 . S
C854 C856 1.415 . S
C855 C854 1.355 . S
C855 C857 1.419 . S
C856 C854 1.415 . S
C856 C861 1.425 . S
C856 C863 1.409 . S
C857 H849 0.930 . S
C857 C855 1.419 . S
C857 C858 1.362 . S
C858 H850 0.930 . S
C858 C857 1.362 . S
C858 C861 1.409 . S
C859 H851 0.930 . S
C859 C860 1.355 . S
C859 C861 1.415 . S
C860 C859 1.355 . S
C860 C862 1.419 . S
C861 C856 1.425 . S
C861 C858 1.409 . S
C861 C859 1.415 . S
C862 H852 0.930 1_556 S
C862 C860 1.419 . S
C862 C863 1.362 . S
C863 H853 0.930 . S
C863 C856 1.409 . S
C863 C862 1.362 . S
H864 C870 0.930 . S
H865 C873 0.930 . S
H866 C874 0.930 . S
H867 C875 0.930 . S
H868 C878 0.930 . S
H869 C879 0.930 . S
C870 H864 0.930 . S
C870 C871 1.355 . S
C870 C872 1.415 . S
C871 C870 1.355 . S
C871 C873 1.419 . S
C872 C870 1.415 . S
C872 C877 1.425 . S
C872 C879 1.409 . S
C873 H865 0.930 . S
C873 C871 1.419 . S
C873 C874 1.362 . S
C874 H866 0.930 . S
C874 C873 1.362 . S
C874 C877 1.409 . S
C875 H867 0.930 . S
C875 C876 1.355 . S
C875 C877 1.415 . S
C876 C875 1.355 . S
C876 C878 1.419 . S
C877 C872 1.425 . S
C877 C874 1.409 . S
C877 C875 1.415 . S
C878 H868 0.930 . S
C878 C876 1.419 . S
C878 C879 1.362 . S
C879 H869 0.930 . S
C879 C872 1.409 . S
C879 C878 1.362 . S
H880 C886 0.930 . S
H881 C889 0.930 . S
H882 C890 0.930 . S
H883 C891 0.930 . S
H884 C894 0.930 . S
H885 C895 0.930 . S
C886 H880 0.930 . S
C886 C887 1.355 . S
C886 C888 1.415 . S
C887 C886 1.355 . S
C887 C889 1.419 . S
C888 C886 1.415 . S
C888 C893 1.425 . S
C888 C895 1.409 . S
C889 H881 0.930 . S
C889 C887 1.419 . S
C889 C890 1.362 . S
C890 H882 0.930 . S
C890 C889 1.362 . S
C890 C893 1.409 . S
C891 H883 0.930 . S
C891 C892 1.355 . S
C891 C893 1.415 . S
C892 C891 1.355 . S
C892 C894 1.419 . S
C893 C888 1.425 . S
C893 C890 1.409 . S
C893 C891 1.415 . S
C894 H884 0.930 . S
C894 C892 1.419 . S
C894 C895 1.362 . S
C895 H885 0.930 . S
C895 C888 1.409 . S
C895 C894 1.362 . S
H896 C902 0.930 . S
H897 C905 0.930 . S
H898 C906 0.930 . S
H899 C907 0.930 . S
H900 C910 0.930 1_556 S
H901 C911 0.930 . S
C902 H896 0.930 . S
C902 C903 1.355 . S
C902 C904 1.415 . S
C903 C902 1.355 . S
C903 C905 1.419 . S
C904 C902 1.415 . S
C904 C909 1.425 . S
C904 C911 1.409 . S
C905 H897 0.930 . S
C905 C903 1.419 . S
C905 C906 1.362 . S
C906 H898 0.930 . S
C906 C905 1.362 . S
C906 C909 1.409 . S
C907 H899 0.930 . S
C907 C908 1.355 . S
C907 C909 1.415 . S
C908 C907 1.355 . S
C908 C910 1.419 . S
C909 C904 1.425 . S
C909 C906 1.409 . S
C909 C907 1.415 . S
C910 H900 0.930 1_554 S
C910 C908 1.419 . S
C910 C911 1.362 . S
C911 H901 0.930 . S
C911 C904 1.409 . S
C911 C910 1.362 . S
H912 C918 0.930 . S
H913 C921 0.930 . S
H914 C922 0.930 . S
H915 C923 0.930 . S
H916 C926 0.930 . S
H917 C927 0.930 . S
C918 H912 0.930 . S
C918 C919 1.355 . S
C918 C920 1.415 . S
C919 C918 1.355 . S
C919 C921 1.419 . S
C920 C918 1.415 . S
C920 C925 1.425 . S
C920 C927 1.409 . S
C921 H913 0.930 . S
C921 C919 1.419 . S
C921 C922 1.362 . S
C922 H914 0.930 . S
C922 C921 1.362 . S
C922 C925 1.409 . S
C923 H915 0.930 . S
C923 C924 1.355 . S
C923 C925 1.415 . S
C924 C923 1.355 . S
C924 C926 1.419 . S
C925 C920 1.425 . S
C925 C922 1.409 . S
C925 C923 1.415 . S
C926 H916 0.930 . S
C926 C924 1.419 . S
C926 C927 1.362 . S
C927 H917 0.930 . S
C927 C920 1.409 . S
C927 C926 1.362 . S
H928 C934 0.930 . S
H929 C937 0.930 . S
H930 C938 0.930 . S
H931 C939 0.930 . S
H932 C942 0.930 . S
H933 C943 0.930 1_554 S
C934 H928 0.930 . S
C934 C935 1.355 . S
C934 C936 1.415 . S
C935 C934 1.355 . S
C935 C937 1.419 . S
C936 C934 1.415 . S
C936 C941 1.425 . S
C936 C943 1.409 . S
C937 H929 0.930 . S
C937 C935 1.419 . S
C937 C938 1.362 . S
C938 H930 0.930 . S
C938 C937 1.362 . S
C938 C941 1.409 . S
C939 H931 0.930 . S
C939 C940 1.355 . S
C939 C941 1.415 . S
C940 C939 1.355 . S
C940 C942 1.419 1_556 S
C941 C936 1.425 . S
C941 C938 1.409 . S
C941 C939 1.415 . S
C942 H932 0.930 . S
C942 C940 1.419 1_554 S
C942 C943 1.362 1_554 S
C943 H933 0.930 1_556 S
C943 C936 1.409 . S
C943 C942 1.362 1_556 S
H944 C950 0.919 1_556 S
H945 C953 0.930 . S
H946 C954 0.930 . S
H947 C955 0.930 . S
H948 C958 0.930 . S
H949 C959 0.930 . S
C950 H944 0.919 1_554 S
C950 C951 1.355 . S
C950 C952 1.415 . S
C951 C950 1.355 . S
C951 C953 1.419 . S
C952 C950 1.415 . S
C952 C957 1.425 . S
C952 C959 1.409 . S
C953 H945 0.930 . S
C953 C951 1.419 . S
C953 C954 1.362 . S
C954 H946 0.930 . S
C954 C953 1.362 . S
C954 C957 1.409 . S
C955 H947 0.930 . S
C955 C956 1.355 . S
C955 C957 1.415 . S
C956 C955 1.355 . S
C956 C958 1.419 . S
C957 C952 1.425 . S
C957 C954 1.409 . S
C957 C955 1.415 . S
C958 H948 0.930 . S
C958 C956 1.419 . S
C958 C959 1.362 . S
C959 H949 0.930 . S
C959 C952 1.409 . S
C959 C958 1.362 . S
H960 C966 0.930 . S
H961 C969 0.930 . S
H962 C970 0.930 . S
H963 C971 0.930 . S
H964 C974 0.930 . S
H965 C975 0.930 . S
C966 H960 0.930 . S
C966 C967 1.355 . S
C966 C968 1.415 . S
C967 C966 1.355 . S
C967 C969 1.419 . S
C968 C966 1.415 . S
C968 C973 1.425 . S
C968 C975 1.409 . S
C969 H961 0.930 . S
C969 C967 1.419 . S
C969 C970 1.362 . S
C970 H962 0.930 . S
C970 C969 1.362 . S
C970 C973 1.409 . S
C971 H963 0.930 . S
C971 C972 1.355 . S
C971 C973 1.415 . S
C972 C971 1.355 . S
C972 C974 1.419 . S
C973 C968 1.425 . S
C973 C970 1.409 . S
C973 C971 1.415 . S
C974 H964 0.930 . S
C974 C972 1.419 . S
C974 C975 1.362 . S
C975 H965 0.930 . S
C975 C968 1.409 . S
C975 C974 1.362 . S
H976 C982 0.930 . S
H977 C985 0.930 . S
H978 C986 0.930 . S
H979 C987 0.930 . S
H980 C990 0.930 . S
H981 C991 0.930 . S
C982 H976 0.930 . S
C982 C983 1.355 . S
C982 C984 1.415 . S
C983 C982 1.355 . S
C983 C985 1.419 . S
C984 C982 1.415 . S
C984 C989 1.425 . S
C984 C991 1.409 . S
C985 H977 0.930 . S
C985 C983 1.419 . S
C985 C986 1.362 . S
C986 H978 0.930 . S
C986 C985 1.362 . S
C986 C989 1.409 . S
C987 H979 0.930 . S
C987 C988 1.355 . S
C987 C989 1.415 . S
C988 C987 1.355 . S
C988 C990 1.419 . S
C989 C984 1.425 . S
C989 C986 1.409 . S
C989 C987 1.415 . S
C990 H980 0.930 . S
C990 C988 1.419 . S
C990 C991 1.362 . S
C991 H981 0.930 . S
C991 C984 1.409 . S
C991 C990 1.362 . S
H992 C998 0.930 . S
H993 C1001 0.930 . S
H994 C1002 0.930 . S
H995 C1003 0.930 . S
H996 C1006 0.930 . S
H997 C1007 0.930 . S
C998 H992 0.930 . S
C998 C999 1.355 . S
C998 C1000 1.415 . S
C999 C998 1.355 . S
C999 C1001 1.419 . S
C1000 C998 1.415 . S
C1000 C1005 1.425 . S
C1000 C1007 1.409 . S
C1001 H993 0.930 . S
C1001 C999 1.419 . S
C1001 C1002 1.362 . S
C1002 H994 0.930 . S
C1002 C1001 1.362 . S
C1002 C1005 1.409 . S
C1003 H995 0.930 . S
C1003 C1004 1.355 . S
C1003 C1005 1.415 . S
C1004 C1003 1.355 . S
C1004 C1006 1.419 . S
C1005 C1000 1.425 . S
C1005 C1002 1.409 . S
C1005 C1003 1.415 . S
C1006 H996 0.930 . S
C1006 C1004 1.419 . S
C1006 C1007 1.362 . S
C1007 H997 0.930 . S
C1007 C1000 1.409 . S
C1007 C1006 1.362 . S
H1008 C1014 0.930 . S
H1009 C1017 0.930 . S
H1010 C1018 0.930 . S
H1011 C1019 0.930 . S
H1012 C1022 0.930 . S
H1013 C1023 0.930 . S
C1014 H1008 0.930 . S
C1014 C1015 1.355 . S
C1014 C1016 1.415 . S
C1015 C1014 1.355 . S
C1015 C1017 1.419 . S
C1016 C1014 1.415 . S
C1016 C1021 1.425 . S
C1016 C1023 1.409 . S
C1017 H1009 0.930 . S
C1017 C1015 1.419 . S
C1017 C1018 1.362 . S
C1018 H1010 0.930 . S
C1018 C1017 1.362 . S
C1018 C1021 1.409 . S
C1019 H1011 0.930 . S
C1019 C1020 1.355 . S
C1019 C1021 1.415 1_554 S
C1020 C1019 1.355 . S
C1020 C1022 1.419 . S
C1021 C1016 1.425 . S
C1021 C1018 1.409 . S
C1021 C1019 1.415 1_556 S
C1022 H1012 0.930 . S
C1022 C1020 1.419 . S
C1022 C1023 1.362 1_554 S
C1023 H1013 0.930 . S
C1023 C1016 1.409 . S
C1023 C1022 1.362 1_556 S
H1024 C1030 0.930 . S
H1025 C1033 0.930 . S
H1026 C1034 0.930 . S
H1027 C1035 0.930 . S
H1028 C1038 0.930 . S
H1029 C1039 0.930 . S
C1030 H1024 0.930 . S
C1030 C1031 1.355 . S
C1030 C1032 1.415 . S
C1031 C1030 1.355 . S
C1031 C1033 1.419 . S
C1032 C1030 1.415 . S
C1032 C1037 1.425 . S
C1032 C1039 1.409 . S
C1033 H1025 0.930 . S
C1033 C1031 1.419 . S
C1033 C1034 1.362 . S
C1034 H1026 0.930 . S
C1034 C1033 1.362 . S
C1034 C1037 1.409 . S
C1035 H1027 0.930 . S
C1035 C1036 1.355 . S
C1035 C1037 1.415 . S
C1036 C1035 1.355 . S
C1036 C1038 1.419 . S
C1037 C1032 1.425 . S
C1037 C1034 1.409 . S
C1037 C1035 1.415 . S
C1038 H1028 0.930 . S
C1038 C1036 1.419 . S
C1038 C1039 1.362 . S
C1039 H1029 0.930 . S
C1039 C1032 1.409 . S
C1039 C1038 1.362 . S
H1040 C1046 0.930 . S
H1041 C1049 0.930 . S
H1042 C1050 0.930 1_565 S
H1043 C1051 0.930 . S
H1044 C1054 0.930 . S
H1045 C1055 0.930 . S
C1046 H1040 0.930 . S
C1046 C1047 1.355 . S
C1046 C1048 1.415 . S
C1047 C1046 1.355 . S
C1047 C1049 1.419 . S
C1048 C1046 1.415 . S
C1048 C1053 1.425 . S
C1048 C1055 1.409 . S
C1049 H1041 0.930 . S
C1049 C1047 1.419 . S
C1049 C1050 1.362 . S
C1050 H1042 0.930 1_545 S
C1050 C1049 1.362 . S
C1050 C1053 1.409 . S
C1051 H1043 0.930 . S
C1051 C1052 1.355 . S
C1051 C1053 1.415 . S
C1052 C1051 1.355 . S
C1052 C1054 1.419 . S
C1053 C1048 1.425 . S
C1053 C1050 1.409 . S
C1053 C1051 1.415 . S
C1054 H1044 0.930 . S
C1054 C1052 1.419 . S
C1054 C1055 1.362 . S
C1055 H1045 0.930 . S
C1055 C1048 1.409 . S
C1055 C1054 1.362 . S
H1056 C1062 0.930 . S
H1057 C1065 0.930 . S
H1058 C1066 0.930 . S
H1059 C1067 0.930 . S
H1060 C1070 0.930 . S
H1061 C1071 0.930 . S
C1062 H1056 0.930 . S
C1062 C1063 1.355 . S
C1062 C1064 1.415 . S
C1063 C1062 1.355 . S
C1063 C1065 1.419 . S
C1064 C1062 1.415 . S
C1064 C1069 1.425 . S
C1064 C1071 1.409 . S
C1065 H1057 0.930 . S
C1065 C1063 1.419 . S
C1065 C1066 1.362 . S
C1066 H1058 0.930 . S
C1066 C1065 1.362 . S
C1066 C1069 1.409 . S
C1067 H1059 0.930 . S
C1067 C1068 1.355 . S
C1067 C1069 1.415 . S
C1068 C1067 1.355 . S
C1068 C1070 1.419 . S
C1069 C1064 1.425 . S
C1069 C1066 1.409 . S
C1069 C1067 1.415 . S
C1070 H1060 0.930 . S
C1070 C1068 1.419 . S
C1070 C1071 1.362 . S
C1071 H1061 0.930 . S
C1071 C1064 1.409 . S
C1071 C1070 1.362 . S
H1072 C1078 0.930 . S
H1073 C1081 0.930 . S
H1074 C1082 0.930 1_655 S
H1075 C1083 0.930 . S
H1076 C1086 0.930 . S
H1077 C1087 0.930 1_455 S
C1078 H1072 0.930 . S
C1078 C1079 1.355 . S
C1078 C1080 1.415 . S
C1079 C1078 1.355 . S
C1079 C1081 1.419 . S
C1080 C1078 1.415 . S
C1080 C1085 1.425 1_455 S
C1080 C1087 1.409 1_455 S
C1081 H1073 0.930 . S
C1081 C1079 1.419 . S
C1081 C1082 1.362 . S
C1082 H1074 0.930 1_455 S
C1082 C1081 1.362 . S
C1082 C1085 1.409 1_455 S
C1083 H1075 0.930 . S
C1083 C1084 1.355 . S
C1083 C1085 1.415 . S
C1084 C1083 1.355 . S
C1084 C1086 1.419 . S
C1085 C1080 1.425 1_655 S
C1085 C1082 1.409 1_655 S
C1085 C1083 1.415 . S
C1086 H1076 0.930 . S
C1086 C1084 1.419 . S
C1086 C1087 1.362 . S
C1087 H1077 0.930 1_655 S
C1087 C1080 1.409 1_655 S
C1087 C1086 1.362 . S
H1088 C1094 0.930 . S
H1089 C1097 0.930 . S
H1090 C1098 0.930 . S
H1091 C1099 0.930 . S
H1092 C1102 0.930 . S
H1093 C1103 0.930 . S
C1094 H1088 0.930 . S
C1094 C1095 1.355 . S
C1094 C1096 1.415 . S
C1095 C1094 1.355 . S
C1095 C1097 1.419 . S
C1096 C1094 1.415 . S
C1096 C1101 1.425 . S
C1096 C1103 1.409 . S
C1097 H1089 0.930 . S
C1097 C1095 1.419 . S
C1097 C1098 1.362 . S
C1098 H1090 0.930 . S
C1098 C1097 1.362 . S
C1098 C1101 1.409 . S
C1099 H1091 0.930 . S
C1099 C1100 1.355 . S
C1099 C1101 1.415 . S
C1100 C1099 1.355 . S
C1100 C1102 1.419 . S
C1101 C1096 1.425 . S
C1101 C1098 1.409 . S
C1101 C1099 1.415 . S
C1102 H1092 0.930 . S
C1102 C1100 1.419 . S
C1102 C1103 1.362 . S
C1103 H1093 0.930 . S
C1103 C1096 1.409 . S
C1103 C1102 1.362 . S
H1104 C1110 0.930 . S
H1105 C1113 0.930 . S
H1106 C1114 0.930 . S
H1107 C1115 0.930 . S
H1108 C1118 0.930 . S
H1109 C1119 0.930 . S
C1110 H1104 0.930 . S
C1110 C1111 1.355 . S
C1110 C1112 1.415 . S
C1111 C1110 1.355 . S
C1111 C1113 1.419 . S
C1112 C1110 1.415 . S
C1112 C1117 1.425 . S
C1112 C1119 1.409 . S
C1113 H1105 0.930 . S
C1113 C1111 1.419 . S
C1113 C1114 1.362 . S
C1114 H1106 0.930 . S
C1114 C1113 1.362 . S
C1114 C1117 1.409 . S
C1115 H1107 0.930 . S
C1115 C1116 1.355 . S
C1115 C1117 1.415 . S
C1116 C1115 1.355 . S
C1116 C1118 1.419 . S
C1117 C1112 1.425 . S
C1117 C1114 1.409 . S
C1117 C1115 1.415 . S
C1118 H1108 0.930 . S
C1118 C1116 1.419 . S
C1118 C1119 1.362 . S
C1119 H1109 0.930 . S
C1119 C1112 1.409 . S
C1119 C1118 1.362 . S
H1120 C1126 0.930 . S
H1121 C1129 0.930 . S
H1122 C1130 0.930 . S
H1123 C1131 0.930 . S
H1124 C1134 0.930 . S
H1125 C1135 0.930 . S
C1126 H1120 0.930 . S
C1126 C1127 1.355 . S
C1126 C1128 1.415 . S
C1127 C1126 1.355 . S
C1127 C1129 1.419 . S
C1128 C1126 1.415 . S
C1128 C1133 1.425 . S
C1128 C1135 1.409 . S
C1129 H1121 0.930 . S
C1129 C1127 1.419 . S
C1129 C1130 1.362 . S
C1130 H1122 0.930 . S
C1130 C1129 1.362 . S
C1130 C1133 1.409 . S
C1131 H1123 0.930 . S
C1131 C1132 1.355 . S
C1131 C1133 1.415 . S
C1132 C1131 1.355 . S
C1132 C1134 1.419 . S
C1133 C1128 1.425 . S
C1133 C1130 1.409 . S
C1133 C1131 1.415 . S
C1134 H1124 0.930 . S
C1134 C1132 1.419 . S
C1134 C1135 1.362 . S
C1135 H1125 0.930 . S
C1135 C1128 1.409 . S
C1135 C1134 1.362 . S
H1136 C1142 0.930 . S
H1137 C1145 0.930 . S
H1138 C1146 0.930 . S
H1139 C1147 0.930 . S
H1140 C1150 0.930 . S
H1141 C1151 0.930 . S
C1142 H1136 0.930 . S
C1142 C1143 1.355 . S
C1142 C1144 1.415 . S
C1143 C1142 1.355 . S
C1143 C1145 1.419 . S
C1144 C1142 1.415 . S
C1144 C1149 1.425 1_655 S
C1144 C1151 1.409 1_655 S
C1145 H1137 0.930 . S
C1145 C1143 1.419 . S
C1145 C1146 1.362 . S
C1146 H1138 0.930 . S
C1146 C1145 1.362 . S
C1146 C1149 1.409 1_655 S
C1147 H1139 0.930 . S
C1147 C1148 1.355 . S
C1147 C1149 1.415 . S
C1148 C1147 1.355 . S
C1148 C1150 1.419 . S
C1149 C1144 1.425 1_455 S
C1149 C1146 1.409 1_455 S
C1149 C1147 1.415 . S
C1150 H1140 0.930 . S
C1150 C1148 1.419 . S
C1150 C1151 1.362 . S
C1151 H1141 0.930 . S
C1151 C1144 1.409 1_455 S
C1151 C1150 1.362 . S
H1152 C1158 0.930 . S
H1153 C1161 0.930 . S
H1154 C1162 0.930 . S
H1155 C1163 0.930 . S
H1156 C1166 0.930 . S
H1157 C1167 0.930 . S
C1158 H1152 0.930 . S
C1158 C1159 1.355 1_556 S
C1158 C1160 1.415 1_556 S
C1159 C1158 1.355 1_554 S
C1159 C1161 1.419 . S
C1160 C1158 1.415 1_554 S
C1160 C1165 1.437 . S
C1160 C1167 1.398 1_554 S
C1161 H1153 0.930 . S
C1161 C1159 1.419 . S
C1161 C1162 1.362 . S
C1162 H1154 0.930 . S
C1162 C1161 1.362 . S
C1162 C1165 1.409 . S
C1163 H1155 0.930 . S
C1163 C1164 1.355 . S
C1163 C1165 1.415 . S
C1164 C1163 1.355 . S
C1164 C1166 1.419 1_554 S
C1165 C1160 1.437 . S
C1165 C1162 1.409 . S
C1165 C1163 1.415 . S
C1166 H1156 0.930 . S
C1166 C1164 1.419 1_556 S
C1166 C1167 1.362 . S
C1167 H1157 0.930 . S
C1167 C1160 1.398 1_556 S
C1167 C1166 1.362 . S
C535 N13 1.281 . S
C540 N2 1.278 . S
C551 N46 1.312 1_556 S
C556 N35 1.310 . S
C567 N68 1.330 . S
C572 N79 1.333 . S
C583 N101 1.289 . S
C588 N112 1.291 . S
C599 N134 1.267 . S
C604 N145 1.270 . S
C615 N167 1.312 . S
C620 N178 1.315 . S
C631 N211 1.302 . S
C636 N200 1.299 . S
C647 N233 1.313 . S
C652 N244 1.314 1_556 S
C663 N277 1.333 . S
C668 N266 1.332 . S
C679 N310 1.346 . S
C684 N299 1.343 . S
C695 N332 1.300 . S
C700 N343 1.303 . S
C711 N376 1.273 . S
C716 N365 1.270 . S
C727 N409 1.324 . S
C732 N398 1.322 . S
C743 N431 1.354 . S
C748 N442 1.355 . S
C759 N475 1.325 . S
C764 N464 1.322 . S
C775 N497 1.324 . S
C780 N508 1.326 . S
C791 C7 1.474 . S
C796 C54 1.537 . S
C807 C73 1.901 . S
C812 C40 1.868 . S
C823 C106 1.534 . S
C828 C87 1.536 . S
C839 C21 1.231 . S
C844 C120 1.207 . S
C855 C186 1.547 . S
C860 C139 1.528 . S
C871 C172 1.896 . S
C876 C205 1.864 . S
C887 C219 1.551 . S
C892 C238 1.516 . S
C903 C252 1.229 . S
C908 C153 1.200 . S
C919 C318 1.506 . S
C924 C271 1.495 . S
C935 C304 1.907 . S
C940 C337 1.887 . S
C951 C351 1.530 . S
C956 C370 1.468 . S
C967 C384 1.200 . S
C972 C285 1.169 . S
C983 C403 1.522 . S
C988 C450 1.550 . S
C999 C436 1.895 . S
C1004 C469 1.864 . S
C1015 C502 1.521 . S
C1020 C483 1.515 . S
C1031 C417 1.174 . S
C1036 C516 1.208 . S
C1047 C18 0.989 . S
C1052 C150 0.989 . S
C1063 C447 1.382 . S
C1068 C51 1.382 . S
C1079 C84 1.395 . S
C1084 C216 1.395 . S
C1095 C513 0.993 . S
C1100 C117 0.993 . S
C1111 C315 1.382 . S
C1116 C183 1.382 . S
C1127 C249 1.014 . S
C1132 C381 1.014 . S
C1143 C282 1.009 . S
C1148 C414 1.009 . S
C1159 C480 1.395 . S
C1164 C348 1.395 . S
