# Generated by pormake.
# Topology uns, (4)-cn, num edge types: 1
# Building blocks:
#     Node 0, Type 0, BuildingBlock: QUQFOY_clean_sbu_1, # of connection points: 4
#     Node 1, Type 0, BuildingBlock: QUQFOY_clean_sbu_1, # of connection points: 4
#     Node 2, Type 0, BuildingBlock: QUQFOY_clean_sbu_1, # of connection points: 4
#     Node 3, Type 0, BuildingBlock: QUQFOY_clean_sbu_1, # of connection points: 4
#     Node 4, Type 0, BuildingBlock: QUQFOY_clean_sbu_1, # of connection points: 4
#     Node 5, Type 0, BuildingBlock: QUQFOY_clean_sbu_1, # of connection points: 4
#     Node 6, Type 0, BuildingBlock: QUQFOY_clean_sbu_1, # of connection points: 4
#     Node 7, Type 0, BuildingBlock: QUQFOY_clean_sbu_1, # of connection points: 4
#     Node 8, Type 0, BuildingBlock: QUQFOY_clean_sbu_1, # of connection points: 4
#     Node 9, Type 0, BuildingBlock: QUQFOY_clean_sbu_1, # of connection points: 4
#     Node 10, Type 0, BuildingBlock: QUQFOY_clean_sbu_1, # of connection points: 4
#     Node 11, Type 0, BuildingBlock: QUQFOY_clean_sbu_1, # of connection points: 4
#     Node 12, Type 0, BuildingBlock: QUQFOY_clean_sbu_1, # of connection points: 4
#     Node 13, Type 0, BuildingBlock: QUQFOY_clean_sbu_1, # of connection points: 4
#     Node 14, Type 0, BuildingBlock: QUQFOY_clean_sbu_1, # of connection points: 4
#     Node 15, Type 0, BuildingBlock: QUQFOY_clean_sbu_1, # of connection points: 4
#     Node 16, Type 0, BuildingBlock: QUQFOY_clean_sbu_1, # of connection points: 4
#     Node 17, Type 0, BuildingBlock: QUQFOY_clean_sbu_1, # of connection points: 4
#     Node 18, Type 0, BuildingBlock: QUQFOY_clean_sbu_1, # of connection points: 4
#     Node 19, Type 0, BuildingBlock: QUQFOY_clean_sbu_1, # of connection points: 4
#     Node 20, Type 0, BuildingBlock: QUQFOY_clean_sbu_1, # of connection points: 4
#     Node 21, Type 0, BuildingBlock: QUQFOY_clean_sbu_1, # of connection points: 4
#     Node 22, Type 0, BuildingBlock: QUQFOY_clean_sbu_1, # of connection points: 4
#     Node 23, Type 0, BuildingBlock: QUQFOY_clean_sbu_1, # of connection points: 4
#     Node 24, Type 0, BuildingBlock: QUQFOY_clean_sbu_1, # of connection points: 4
#     Node 25, Type 0, BuildingBlock: QUQFOY_clean_sbu_1, # of connection points: 4
#     Node 26, Type 0, BuildingBlock: QUQFOY_clean_sbu_1, # of connection points: 4
#     Node 27, Type 0, BuildingBlock: QUQFOY_clean_sbu_1, # of connection points: 4
#     Node 28, Type 0, BuildingBlock: QUQFOY_clean_sbu_1, # of connection points: 4
#     Node 29, Type 0, BuildingBlock: QUQFOY_clean_sbu_1, # of connection points: 4
#     Node 30, Type 0, BuildingBlock: QUQFOY_clean_sbu_1, # of connection points: 4
#     Node 31, Type 0, BuildingBlock: QUQFOY_clean_sbu_1, # of connection points: 4
#     Node 32, Type 0, BuildingBlock: QUQFOY_clean_sbu_1, # of connection points: 4
#     Node 33, Type 0, BuildingBlock: QUQFOY_clean_sbu_1, # of connection points: 4
#     Node 34, Type 0, BuildingBlock: QUQFOY_clean_sbu_1, # of connection points: 4
#     Node 35, Type 0, BuildingBlock: QUQFOY_clean_sbu_1, # of connection points: 4
#     Edge 36, Type (0, 0), None
#     Edge 37, Type (0, 0), None
#     Edge 38, Type (0, 0), None
#     Edge 39, Type (0, 0), None
#     Edge 40, Type (0, 0), None
#     Edge 41, Type (0, 0), None
#     Edge 42, Type (0, 0), None
#     Edge 43, Type (0, 0), None
#     Edge 44, Type (0, 0), None
#     Edge 45, Type (0, 0), None
#     Edge 46, Type (0, 0), None
#     Edge 47, Type (0, 0), None
#     Edge 48, Type (0, 0), None
#     Edge 49, Type (0, 0), None
#     Edge 50, Type (0, 0), None
#     Edge 51, Type (0, 0), None
#     Edge 52, Type (0, 0), None
#     Edge 53, Type (0, 0), None
#     Edge 54, Type (0, 0), None
#     Edge 55, Type (0, 0), None
#     Edge 56, Type (0, 0), None
#     Edge 57, Type (0, 0), None
#     Edge 58, Type (0, 0), None
#     Edge 59, Type (0, 0), None
#     Edge 60, Type (0, 0), None
#     Edge 61, Type (0, 0), None
#     Edge 62, Type (0, 0), None
#     Edge 63, Type (0, 0), None
#     Edge 64, Type (0, 0), None
#     Edge 65, Type (0, 0), None
#     Edge 66, Type (0, 0), None
#     Edge 67, Type (0, 0), None
#     Edge 68, Type (0, 0), None
#     Edge 69, Type (0, 0), None
#     Edge 70, Type (0, 0), None
#     Edge 71, Type (0, 0), None
#     Edge 72, Type (0, 0), None
#     Edge 73, Type (0, 0), None
#     Edge 74, Type (0, 0), None
#     Edge 75, Type (0, 0), None
#     Edge 76, Type (0, 0), None
#     Edge 77, Type (0, 0), None
#     Edge 78, Type (0, 0), None
#     Edge 79, Type (0, 0), None
#     Edge 80, Type (0, 0), None
#     Edge 81, Type (0, 0), None
#     Edge 82, Type (0, 0), None
#     Edge 83, Type (0, 0), None
#     Edge 84, Type (0, 0), None
#     Edge 85, Type (0, 0), None
#     Edge 86, Type (0, 0), None
#     Edge 87, Type (0, 0), None
#     Edge 88, Type (0, 0), None
#     Edge 89, Type (0, 0), None
#     Edge 90, Type (0, 0), None
#     Edge 91, Type (0, 0), None
#     Edge 92, Type (0, 0), None
#     Edge 93, Type (0, 0), None
#     Edge 94, Type (0, 0), None
#     Edge 95, Type (0, 0), None
#     Edge 96, Type (0, 0), None
#     Edge 97, Type (0, 0), None
#     Edge 98, Type (0, 0), None
#     Edge 99, Type (0, 0), None
#     Edge 100, Type (0, 0), None
#     Edge 101, Type (0, 0), None
#     Edge 102, Type (0, 0), None
#     Edge 103, Type (0, 0), None
#     Edge 104, Type (0, 0), None
#     Edge 105, Type (0, 0), None
#     Edge 106, Type (0, 0), None
#     Edge 107, Type (0, 0), None
# Relax obj value: 0.036
# Max RMSD: 0.154
# Mean RMSD: 0.154
data_MOF--net-uns--node1-QUQFOY_clean_sbu_1--edge1-none
_symmetry_space_group_name_H-M    P1
_symmetry_Int_Tables_number       1
_symmetry_cell_setting            triclinic
loop_
_symmetry_equiv_pos_as_xyz
'x, y, z'
_cell_length_a     26.065312
_cell_length_b     26.065278
_cell_length_c     25.386092
_cell_angle_alpha  90.001106
_cell_angle_beta   89.998636
_cell_angle_gamma 119.99922
loop_
_atom_site_label
_atom_site_type_symbol
_atom_site_fract_x
_atom_site_fract_y
_atom_site_fract_z
_atom_type_partial_charge
O0 O 0.15913 0.19394 0.18592 0.0
Cd1 Cd 0.21807 0.1666 0.19477 0.0
Cd2 Cd 0.19643 0.16163 0.2945 0.0
O3 O 0.11973 0.16215 0.26489 0.0
O4 O 0.21345 0.11494 1.13259 0.0
O5 O 0.17687 0.08046 0.21189 0.0
C6 C 0.18378 0.07008 1.16348 0.0
C7 C 0.25345 0.13136 0.33709 0.0
C8 C 0.12005 0.18506 0.21993 0.0
C9 C 0.2996 0.26441 0.26795 0.0
O10 O 0.2545 0.24498 0.29692 0.0
O11 O 0.2988 0.23496 0.2271 0.0
O12 O 0.21472 0.13869 0.36344 0.0
O13 O 0.25024 0.12872 0.2862 0.0
O14 O 0.71279 0.94655 0.18591 0.0
Cd15 Cd 0.74014 0.03285 0.19476 0.0
Cd16 Cd 0.7451 0.01617 0.2945 0.0
O17 O 0.74458 0.93894 0.26489 0.0
O18 O 0.7918 0.07988 1.13259 0.0
O19 O 0.82628 0.07778 0.21189 0.0
C20 C 0.83666 0.09507 1.16348 0.0
C21 C 0.77538 0.10347 0.33709 0.0
C22 C 0.72168 0.91636 0.21992 0.0
C23 C 0.64233 0.01657 0.26795 0.0
O24 O 0.66175 -0.00911 0.29692 0.0
O25 O 0.67177 0.04521 0.2271 0.0
O26 O 0.76804 0.0574 0.36344 0.0
O27 O 0.77801 0.10289 0.2862 0.0
O28 O -0.03982 0.74761 0.18591 0.0
Cd29 Cd 0.87388 0.68866 0.19476 0.0
Cd30 Cd 0.89056 0.7103 0.2945 0.0
O31 O -0.03222 0.78701 0.26489 0.0
O32 O 0.82685 0.69328 1.13259 0.0
O33 O 0.82894 0.72987 0.21189 0.0
C34 C 0.81166 0.72295 1.16348 0.0
C35 C 0.80326 0.65328 0.33709 0.0
C36 C -0.00963 0.78669 0.21993 0.0
C37 C 0.89017 0.60713 0.26795 0.0
O38 O 0.91584 0.65224 0.29692 0.0
O39 O 0.86153 0.60793 0.2271 0.0
O40 O 0.84933 0.69202 0.36344 0.0
O41 O 0.80385 0.6565 0.2862 0.0
O42 O 0.17523 0.17775 0.68209 0.0
Cd43 Cd 0.1479 0.23671 0.67324 0.0
Cd44 Cd 0.14299 0.21509 0.57349 0.0
O45 O 0.1435 0.13838 0.6031 0.0
O46 O 0.09624 0.23208 0.73542 0.0
O47 O 0.06177 0.19555 0.6561 0.0
C48 C 0.05138 0.20244 0.70452 0.0
C49 C 0.11276 0.27213 0.53088 0.0
C50 C 0.16638 0.13869 0.64807 0.0
C51 C 0.24575 0.31826 0.6001 0.0
O52 O 0.22634 0.27316 0.57113 0.0
O53 O 0.21629 0.31745 0.64094 0.0
O54 O 0.12011 0.2334 0.50454 0.0
O55 O 0.11008 0.26889 0.58177 0.0
O56 O 0.72899 -0.02115 0.68209 0.0
Cd57 Cd 0.67002 0.89256 0.67325 0.0
Cd58 Cd 0.69165 0.90927 0.5735 0.0
O59 O 0.76836 -0.01351 0.6031 0.0
O60 O 0.67465 0.84553 0.73542 0.0
O61 O 0.71118 0.84758 0.65611 0.0
C62 C 0.70428 0.83031 0.70452 0.0
C63 C 0.6346 0.822 0.53088 0.0
C64 C 0.76805 0.00906 0.64807 0.0
C65 C 0.58848 0.90887 0.6001 0.0
O66 O 0.63358 0.93456 0.57113 0.0
O67 O 0.58929 0.88022 0.64094 0.0
O68 O 0.67334 0.86808 0.50454 0.0
O69 O 0.63784 0.82256 0.58177 0.0
O70 O 0.92788 0.73151 0.68209 0.0
Cd71 Cd 0.01417 0.75884 0.67325 0.0
Cd72 Cd -0.00254 0.76374 0.5735 0.0
O73 O 0.92023 0.76323 0.6031 0.0
O74 O 0.0612 0.81049 0.73542 0.0
O75 O 0.05915 0.84497 0.65611 0.0
C76 C 0.07642 0.85535 0.70452 0.0
C77 C 0.08473 0.79397 0.53088 0.0
C78 C 0.89767 0.74036 0.64807 0.0
C79 C -0.00213 0.66098 0.6001 0.0
O80 O -0.02782 0.6804 0.57113 0.0
O81 O 0.02651 0.69044 0.64095 0.0
O82 O 0.03865 0.78662 0.50454 0.0
O83 O 0.08417 0.79665 0.58177 0.0
O84 O 0.72898 0.73151 1.18211 0.0
Cd85 Cd 0.67001 0.75883 1.17326 0.0
Cd86 Cd 0.69164 0.76375 1.07351 0.0
O87 O 0.76836 0.76325 1.10312 0.0
O88 O 0.67463 0.81048 0.23544 0.0
O89 O 0.71117 0.84496 1.15612 0.0
C90 C 0.70426 0.85534 0.20453 0.0
C91 C 0.63459 0.79397 1.03091 0.0
C92 C 0.76805 0.74037 1.14809 0.0
C93 C 0.58848 0.66098 1.10011 0.0
O94 O 0.63359 0.6804 1.07114 0.0
O95 O 0.58928 0.69043 1.14095 0.0
O96 O 0.67333 0.78664 1.00456 0.0
O97 O 0.63783 0.79665 1.08179 0.0
O98 O 0.17522 -0.02115 1.18211 0.0
Cd99 Cd 0.1479 0.89256 1.17327 0.0
Cd100 Cd 0.14298 0.90926 1.07352 0.0
O101 O 0.14348 -0.01352 1.10312 0.0
O102 O 0.09625 0.84553 0.23544 0.0
O103 O 0.06177 0.84758 1.15612 0.0
C104 C 0.05139 0.8303 0.20453 0.0
C105 C 0.11276 0.82199 1.03091 0.0
C106 C 0.16636 0.00905 1.14809 0.0
C107 C 0.24575 0.90887 1.10011 0.0
O108 O 0.22633 0.93455 1.07114 0.0
O109 O 0.2163 0.88022 1.14095 0.0
O110 O 0.1201 0.86807 1.00456 0.0
O111 O 0.11008 0.82255 1.0818 0.0
O112 O 0.92788 0.17774 1.18211 0.0
Cd113 Cd 0.01417 0.23672 1.17327 0.0
Cd114 Cd -0.00253 0.21509 1.07352 0.0
O115 O 0.92026 0.13837 1.10312 0.0
O116 O 0.0612 0.2321 0.23544 0.0
O117 O 0.05916 0.19556 1.15612 0.0
C118 C 0.07644 0.20247 0.20453 0.0
C119 C 0.08474 0.27214 1.03091 0.0
C120 C 0.89769 0.13868 1.14809 0.0
C121 C -0.00214 0.31824 1.10011 0.0
O122 O -0.02783 0.27314 1.07114 0.0
O123 O 0.0265 0.31745 1.14095 0.0
O124 O 0.03867 0.2334 1.00456 0.0
O125 O 0.08418 0.2689 1.0818 0.0
O126 O 0.71279 0.7476 0.6859 0.0
Cd127 Cd 0.74013 0.68865 0.69475 0.0
Cd128 Cd 0.74511 0.7103 0.79448 0.0
O129 O 0.7446 0.78701 0.76487 0.0
O130 O 0.79178 0.69327 0.63257 0.0
O131 O 0.82627 0.72986 0.71188 0.0
C132 C 0.83664 0.72293 0.66347 0.0
C133 C 0.77538 0.65327 0.83707 0.0
C134 C 0.72169 0.78669 0.71991 0.0
C135 C 0.64232 0.60713 0.76795 0.0
O136 O 0.66176 0.65224 0.79691 0.0
O137 O 0.67176 0.60793 0.72709 0.0
O138 O 0.76806 0.69201 0.86342 0.0
O139 O 0.77801 0.65648 0.78618 0.0
O140 O 0.15912 0.94656 0.6859 0.0
Cd141 Cd 0.21808 0.03285 0.69474 0.0
Cd142 Cd 0.19643 0.01619 0.79448 0.0
O143 O 0.11972 0.93897 0.76487 0.0
O144 O 0.21346 0.07988 0.63257 0.0
O145 O 0.17688 0.07779 0.71187 0.0
C146 C 0.1838 0.09508 0.66347 0.0
C147 C 0.25346 0.10348 0.83706 0.0
C148 C 0.12004 0.91638 0.71991 0.0
C149 C 0.29959 0.01656 0.76795 0.0
O150 O 0.25449 -0.00911 0.79691 0.0
O151 O 0.2988 0.0452 0.72709 0.0
O152 O 0.21472 0.05742 0.86342 0.0
O153 O 0.25025 0.1029 0.78618 0.0
O154 O -0.03982 0.19394 0.68589 0.0
Cd155 Cd 0.87388 0.1666 0.69474 0.0
Cd156 Cd 0.89055 0.16162 0.79448 0.0
O157 O -0.03223 0.16213 0.76486 0.0
O158 O 0.82685 0.11495 0.63257 0.0
O159 O 0.82895 0.08046 0.71187 0.0
C160 C 0.81165 0.07008 0.66347 0.0
C161 C 0.80325 0.13135 0.83706 0.0
C162 C -0.00964 0.18504 0.71991 0.0
C163 C 0.89017 0.26441 0.76794 0.0
O164 O 0.91584 0.24497 0.79691 0.0
O165 O 0.86153 0.23497 0.72709 0.0
O166 O 0.84931 0.13867 0.86341 0.0
O167 O 0.80384 0.12872 0.78618 0.0
O168 O 0.8258 0.52728 0.51922 0.0
Cd169 Cd 0.88477 0.49995 0.52805 0.0
Cd170 Cd 0.86309 0.49494 0.62783 0.0
O171 O 0.7864 0.49548 0.5982 0.0
O172 O 0.88014 0.44828 0.46588 0.0
O173 O 0.84357 0.41381 0.54519 0.0
C174 C 0.85048 0.40343 0.49678 0.0
C175 C 0.92011 0.46467 0.67042 0.0
C176 C 0.78672 0.51839 0.55323 0.0
C177 C -0.03373 0.59769 0.60131 0.0
O178 O 0.92117 0.57828 0.63029 0.0
O179 O -0.03452 0.56833 0.56041 0.0
O180 O 0.88135 0.47198 0.69676 0.0
O181 O 0.91691 0.46205 0.61953 0.0
O182 O 0.37946 0.27989 0.51922 0.0
Cd183 Cd 0.40679 0.36619 0.52805 0.0
Cd184 Cd 0.4118 0.34953 0.62783 0.0
O185 O 0.41125 0.27229 0.59819 0.0
O186 O 0.45845 0.41322 0.46588 0.0
O187 O 0.49292 0.41113 0.54519 0.0
C188 C 0.50331 0.42842 0.49678 0.0
C189 C 0.44206 0.43681 0.67042 0.0
C190 C 0.38835 0.24971 0.55323 0.0
C191 C 0.30905 0.34995 0.60131 0.0
O192 O 0.32846 0.32427 0.63029 0.0
O193 O 0.33841 0.37853 0.5604 0.0
O194 O 0.43475 0.39075 0.69676 0.0
O195 O 0.44469 0.43624 0.61953 0.0
O196 O 0.62684 0.08094 0.51922 0.0
Cd197 Cd 0.54054 0.02197 0.52805 0.0
Cd198 Cd 0.5572 0.04364 0.62783 0.0
O199 O 0.63444 0.12033 0.59819 0.0
O200 O 0.49351 0.0266 0.46588 0.0
O201 O 0.49559 0.06316 0.54519 0.0
C202 C 0.47831 0.05626 0.49678 0.0
C203 C 0.46992 -0.01338 0.67042 0.0
C204 C 0.65702 0.12001 0.55323 0.0
C205 C 0.55678 0.94047 0.60131 0.0
O206 O 0.58246 -0.01444 0.63029 0.0
O207 O 0.52821 0.94125 0.5604 0.0
O208 O 0.51598 0.02538 0.69676 0.0
O209 O 0.4705 -0.01018 0.61953 0.0
O210 O 0.84189 0.51108 1.0154 0.0
Cd211 Cd 0.81456 0.57004 1.00656 0.0
Cd212 Cd 0.80967 0.54844 0.90681 0.0
O213 O 0.8102 0.47173 0.9364 0.0
O214 O 0.7629 0.56541 1.06873 0.0
O215 O 0.72842 0.52888 0.98942 0.0
C216 C 0.71804 0.53577 1.03783 0.0
C217 C 0.77941 0.60546 0.8642 0.0
C218 C 0.83306 0.47203 0.98137 0.0
C219 C 0.91242 0.65161 0.93343 0.0
O220 O 0.89301 0.60652 0.90444 0.0
O221 O 0.88295 0.65078 0.97427 0.0
O222 O 0.78678 0.56674 0.83786 0.0
O223 O 0.77674 0.60222 0.91509 0.0
O224 O 0.39566 0.31219 1.0154 0.0
Cd225 Cd 0.33669 0.22589 1.00656 0.0
Cd226 Cd 0.3583 0.2426 0.90681 0.0
O227 O 0.43501 0.31984 0.9364 0.0
O228 O 0.34133 0.17886 1.06874 0.0
O229 O 0.37785 0.18091 0.98942 0.0
C230 C 0.37096 0.16364 1.03783 0.0
C231 C 0.30127 0.15532 0.8642 0.0
C232 C 0.43471 0.3424 0.98137 0.0
C233 C 0.25513 0.24218 0.93343 0.0
O234 O 0.30022 0.26786 0.90445 0.0
O235 O 0.25595 0.21354 0.97427 0.0
O236 O 0.33999 0.2014 0.83786 0.0
O237 O 0.30451 0.15589 0.91509 0.0
O238 O 0.59454 0.06485 1.01541 0.0
Cd239 Cd 0.68084 0.09218 1.00656 0.0
Cd240 Cd 0.66413 0.09707 0.90681 0.0
O241 O 0.58689 0.09653 0.9364 0.0
O242 O 0.72787 0.14384 1.06874 0.0
O243 O 0.72582 0.17831 0.98942 0.0
C244 C 0.74309 0.1887 1.03783 0.0
C245 C 0.75141 0.12732 0.8642 0.0
C246 C 0.56433 0.07367 0.98138 0.0
C247 C 0.66455 -0.00568 0.93343 0.0
O248 O 0.63887 0.01372 0.90445 0.0
O249 O 0.69319 0.02378 0.97427 0.0
O250 O 0.70533 0.11996 0.83786 0.0
O251 O 0.75084 0.13 0.91509 0.0
O252 O 0.39565 0.06484 0.51542 0.0
Cd253 Cd 0.33668 0.09217 0.50658 0.0
Cd254 Cd 0.35829 0.09707 0.40683 0.0
O255 O 0.435 0.09655 0.43642 0.0
O256 O 0.34131 0.14383 0.56875 0.0
O257 O 0.37784 0.1783 0.48943 0.0
C258 C 0.37094 0.18868 0.53784 0.0
C259 C 0.30126 0.12733 0.36423 0.0
C260 C 0.4347 0.07368 0.48139 0.0
C261 C 0.25513 -0.00569 0.43343 0.0
O262 O 0.30022 0.01373 0.40445 0.0
O263 O 0.25595 0.02377 0.47428 0.0
O264 O 0.33999 0.11997 0.33788 0.0
O265 O 0.30449 0.12999 0.41511 0.0
O266 O 0.84189 0.31219 0.51542 0.0
Cd267 Cd 0.81456 0.22589 0.50658 0.0
Cd268 Cd 0.80966 0.24259 0.40683 0.0
O269 O 0.81018 0.31983 0.43642 0.0
O270 O 0.7629 0.17886 0.56876 0.0
O271 O 0.72843 0.18091 0.48943 0.0
C272 C 0.71805 0.16363 0.53784 0.0
C273 C 0.77941 0.15531 0.36423 0.0
C274 C 0.83305 0.34239 0.48139 0.0
C275 C 0.91241 0.24218 0.43344 0.0
O276 O 0.893 0.26786 0.40446 0.0
O277 O 0.88296 0.21355 0.47428 0.0
O278 O 0.78676 0.20139 0.33788 0.0
O279 O 0.77674 0.15588 0.41511 0.0
O280 O 0.59455 0.51107 0.51542 0.0
Cd281 Cd 0.68084 0.57004 0.50658 0.0
Cd282 Cd 0.66414 0.54844 0.40683 0.0
O283 O 0.58691 0.47172 0.43642 0.0
O284 O 0.72787 0.56542 0.56876 0.0
O285 O 0.72582 0.52889 0.48943 0.0
C286 C 0.74311 0.53579 0.53784 0.0
C287 C 0.75142 0.60547 0.36423 0.0
C288 C 0.56434 0.47202 0.48139 0.0
C289 C 0.66454 0.6516 0.43344 0.0
O290 O 0.63887 0.60651 0.40446 0.0
O291 O 0.69318 0.65078 0.47428 0.0
O292 O 0.70535 0.56674 0.33788 0.0
O293 O 0.75085 0.60223 0.41511 0.0
O294 O 0.37946 0.08093 1.0192 0.0
Cd295 Cd 0.40678 0.02196 1.02803 0.0
Cd296 Cd 0.4118 0.04364 1.12781 0.0
O297 O 0.41127 0.12033 1.09817 0.0
O298 O 0.45844 0.02658 0.96586 0.0
O299 O 0.49291 0.06315 1.04517 0.0
C300 C 0.50329 0.05624 0.99677 0.0
C301 C 0.44206 -0.01339 1.17039 0.0
C302 C 0.38836 0.12001 1.05322 0.0
C303 C 0.30904 0.94047 1.10131 0.0
O304 O 0.32846 -0.01443 1.13028 0.0
O305 O 0.3384 0.94125 1.0604 0.0
O306 O 0.43477 0.02537 0.19674 0.0
O307 O 0.44468 -0.01019 1.1195 0.0
O308 O 0.8258 0.2799 1.0192 0.0
Cd309 Cd 0.88477 0.36619 1.02803 0.0
Cd310 Cd 0.86309 0.34954 1.12781 0.0
O311 O 0.7864 0.27231 1.09817 0.0
O312 O 0.88015 0.41323 0.96586 0.0
O313 O 0.84358 0.41114 1.04517 0.0
C314 C 0.8505 0.42843 0.99676 0.0
C315 C 0.92012 0.43683 1.17039 0.0
C316 C 0.78672 0.24972 1.05321 0.0
C317 C -0.03374 0.34994 1.10131 0.0
O318 O 0.92116 0.32427 1.13028 0.0
O319 O -0.03452 0.37851 1.06039 0.0
O320 O 0.88136 0.39077 0.19674 0.0
O321 O 0.91692 0.43625 1.1195 0.0
O322 O 0.62683 0.52727 1.0192 0.0
Cd323 Cd 0.54054 0.49995 1.02803 0.0
Cd324 Cd 0.55719 0.49492 1.12781 0.0
O325 O 0.63442 0.49546 1.09817 0.0
O326 O 0.49351 0.44829 0.96586 0.0
O327 O 0.4956 0.41382 1.04517 0.0
C328 C 0.4783 0.40343 0.99676 0.0
C329 C 0.46991 0.46467 1.17039 0.0
C330 C 0.65701 0.51837 1.05321 0.0
C331 C 0.55679 0.59768 1.1013 0.0
O332 O 0.58246 0.57826 1.13028 0.0
O333 O 0.52821 0.56833 1.06039 0.0
O334 O 0.51596 0.47196 0.19674 0.0
O335 O 0.47049 0.46205 1.1195 0.0
O336 O 0.49246 0.86061 0.85257 0.0
Cd337 Cd 0.55143 0.83327 0.8614 0.0
Cd338 Cd 0.52978 0.82828 0.96118 0.0
O339 O 0.45309 0.82885 0.93156 0.0
O340 O 0.54679 0.7816 0.79923 0.0
O341 O 0.51023 0.74714 0.87854 0.0
C342 C 0.51713 0.73675 0.83014 0.0
C343 C 0.58678 0.79799 1.00376 0.0
C344 C 0.4534 0.85174 0.8866 0.0
C345 C 0.63295 0.93102 0.93465 0.0
O346 O 0.58787 0.91161 0.96364 0.0
O347 O 0.63215 0.90165 0.89374 0.0
O348 O 0.54803 0.80531 1.03011 0.0
O349 O 0.58357 0.79537 0.95287 0.0
O350 O 0.04613 0.61323 0.85257 0.0
Cd351 Cd 0.07346 0.69952 0.8614 0.0
Cd352 Cd 0.07845 0.68287 0.96118 0.0
O353 O 0.07788 0.60561 0.93156 0.0
O354 O 0.12513 0.74656 0.79923 0.0
O355 O 0.1596 0.74447 0.87854 0.0
C356 C 0.16999 0.76176 0.83014 0.0
C357 C 0.10874 0.77016 1.00376 0.0
C358 C 0.05499 0.58303 0.88659 0.0
C359 C -0.02429 0.68331 0.93465 0.0
O360 O -0.00488 0.65763 0.96364 0.0
O361 O 0.00508 0.71187 0.89374 0.0
O362 O 0.10143 0.7241 1.03011 0.0
O363 O 0.11137 0.76958 0.95287 0.0
O364 O 0.2935 0.41428 0.85257 0.0
Cd365 Cd 0.20721 0.35531 0.8614 0.0
Cd366 Cd 0.22386 0.37696 0.96118 0.0
O367 O 0.30111 0.45365 0.93156 0.0
O368 O 0.16017 0.35994 0.79923 0.0
O369 O 0.16226 0.3965 0.87854 0.0
C370 C 0.14497 0.3896 0.83013 0.0
C371 C 0.13657 0.31995 1.00377 0.0
C372 C 0.3237 0.45334 0.8866 0.0
C373 C 0.22343 0.27378 0.93465 0.0
O374 O 0.2491 0.31887 0.96364 0.0
O375 O 0.19487 0.27459 0.89374 0.0
O376 O 0.18263 0.3587 1.03011 0.0
O377 O 0.13715 0.32316 0.95287 0.0
O378 O 0.50856 0.84442 0.34877 0.0
Cd379 Cd 0.48125 0.9034 0.33994 0.0
Cd380 Cd 0.47631 0.88176 0.24015 0.0
O381 O 0.47687 0.80508 0.26976 0.0
O382 O 0.42957 0.89876 0.40211 0.0
O383 O 0.39511 0.86225 0.32278 0.0
C384 C 0.38472 0.86913 0.3712 0.0
C385 C 0.44606 0.93879 0.19754 0.0
C386 C 0.49973 0.80537 0.31473 0.0
C387 C 0.57903 -0.01506 0.26674 0.0
O388 O 0.55964 0.93986 0.23774 0.0
O389 O 0.54965 -0.01587 0.30764 0.0
O390 O 0.4534 0.90005 1.1712 0.0
O391 O 0.4434 0.93556 0.24843 0.0
O392 O 0.06232 0.64551 0.34877 0.0
Cd393 Cd 0.00333 0.55922 0.33994 0.0
Cd394 Cd 0.02497 0.57591 0.24015 0.0
O395 O 0.10166 0.65316 0.26976 0.0
O396 O 0.00797 0.51218 0.40211 0.0
O397 O 0.04448 0.51423 0.32279 0.0
C398 C 0.03759 0.49695 0.3712 0.0
C399 C -0.03206 0.48865 0.19754 0.0
C400 C 0.10136 0.67572 0.31473 0.0
C401 C 0.9218 0.57546 0.26674 0.0
O402 O -0.03312 0.60115 0.23775 0.0
O403 O 0.9226 0.54689 0.30764 0.0
O404 O 0.00669 0.53472 1.1712 0.0
O405 O -0.02883 0.4892 0.24843 0.0
O406 O 0.26122 0.39818 0.34877 0.0
Cd407 Cd 0.34751 0.42549 0.33994 0.0
Cd408 Cd 0.33082 0.43043 0.24015 0.0
O409 O 0.25357 0.42987 0.26976 0.0
O410 O 0.39455 0.47716 0.40211 0.0
O411 O 0.3925 0.51162 0.32279 0.0
C412 C 0.40978 0.52202 0.3712 0.0
C413 C 0.41809 0.46067 0.19754 0.0
C414 C 0.23101 0.40701 0.31474 0.0
C415 C 0.33127 0.32771 0.26674 0.0
O416 O 0.30558 0.34709 0.23775 0.0
O417 O 0.35984 0.35708 0.30764 0.0
O418 O 0.37201 0.45334 1.1712 0.0
O419 O 0.41753 0.46334 0.24843 0.0
O420 O 0.06231 0.39818 0.84878 0.0
Cd421 Cd 0.00332 0.42548 0.83996 0.0
Cd422 Cd 0.02497 0.43044 0.74017 0.0
O423 O 0.10166 0.42989 0.76978 0.0
O424 O 0.00796 0.47715 0.90213 0.0
O425 O 0.04447 0.51161 0.8228 0.0
C426 C 0.03757 0.522 0.87121 0.0
C427 C -0.03207 0.46067 0.69756 0.0
C428 C 0.10136 0.40702 0.81475 0.0
C429 C 0.9218 0.3277 0.76674 0.0
O430 O -0.03312 0.3471 0.73775 0.0
O431 O 0.9226 0.35707 0.80765 0.0
O432 O 0.00668 0.45335 0.67122 0.0
O433 O -0.02884 0.46333 0.74845 0.0
O434 O 0.50855 0.64551 0.84879 0.0
Cd435 Cd 0.48125 0.55922 0.83996 0.0
Cd436 Cd 0.47629 0.5759 0.74017 0.0
O437 O 0.47684 0.65315 0.76978 0.0
O438 O 0.42958 0.51218 0.90213 0.0
O439 O 0.39512 0.51423 0.8228 0.0
C440 C 0.38473 0.49695 0.87121 0.0
C441 C 0.44606 0.48863 0.69756 0.0
C442 C 0.49971 0.67571 0.81475 0.0
C443 C 0.57903 0.57546 0.76674 0.0
O444 O 0.55963 0.60115 0.73776 0.0
O445 O 0.54966 0.5469 0.80765 0.0
O446 O 0.45338 0.5347 0.67122 0.0
O447 O 0.4434 0.48919 0.74845 0.0
O448 O 0.26122 0.84441 0.84878 0.0
Cd449 Cd 0.34752 0.9034 0.83996 0.0
Cd450 Cd 0.33083 0.88176 0.74017 0.0
O451 O 0.25359 0.80507 0.76978 0.0
O452 O 0.39455 0.89877 0.90213 0.0
O453 O 0.39251 0.86226 0.8228 0.0
C454 C 0.40979 0.86916 0.87121 0.0
C455 C 0.4181 0.9388 0.69756 0.0
C456 C 0.23102 0.80536 0.81475 0.0
C457 C 0.33126 -0.01507 0.76674 0.0
O458 O 0.30558 0.93985 0.73776 0.0
O459 O 0.35983 -0.01587 0.80765 0.0
O460 O 0.37203 0.90005 0.67122 0.0
O461 O 0.41754 0.93557 0.74845 0.0
O462 O 0.04612 0.41427 0.35256 0.0
Cd463 Cd 0.07345 0.3553 0.36138 0.0
Cd464 Cd 0.07846 0.37695 0.46116 0.0
O465 O 0.0779 0.45364 0.43154 0.0
O466 O 0.12512 0.35993 0.29921 0.0
O467 O 0.15959 0.39649 0.37853 0.0
C468 C 0.16997 0.38958 0.33012 0.0
C469 C 0.10875 0.31994 0.50374 0.0
C470 C 0.055 0.45333 0.38658 0.0
C471 C -0.02429 0.27378 0.43465 0.0
O472 O -0.00488 0.31887 0.46363 0.0
O473 O 0.00507 0.27458 0.39373 0.0
O474 O 0.10144 0.3587 0.53009 0.0
O475 O 0.11136 0.32314 0.45285 0.0
O476 O 0.49246 0.61323 0.35256 0.0
Cd477 Cd 0.55143 0.69953 0.36138 0.0
Cd478 Cd 0.52977 0.68288 0.46116 0.0
O479 O 0.45308 0.60564 0.43154 0.0
O480 O 0.54681 0.74656 0.29921 0.0
O481 O 0.51024 0.74448 0.37853 0.0
C482 C 0.51716 0.76177 0.33012 0.0
C483 C 0.58679 0.77018 0.50374 0.0
C484 C 0.45339 0.58305 0.38658 0.0
C485 C 0.63294 0.6833 0.43464 0.0
O486 O 0.58786 0.65763 0.46363 0.0
O487 O 0.63215 0.71186 0.39373 0.0
O488 O 0.54803 0.72412 0.53009 0.0
O489 O 0.58359 0.76959 0.45285 0.0
O490 O 0.2935 0.8606 0.35255 0.0
Cd491 Cd 0.20721 0.83328 0.36138 0.0
Cd492 Cd 0.22385 0.82827 0.46116 0.0
O493 O 0.3011 0.82883 0.43154 0.0
O494 O 0.16017 0.78161 0.29921 0.0
O495 O 0.16226 0.74714 0.37853 0.0
C496 C 0.14496 0.73675 0.33012 0.0
C497 C 0.13656 0.79798 0.50374 0.0
C498 C 0.32369 0.85172 0.38658 0.0
C499 C 0.22343 0.93102 0.43464 0.0
O500 O 0.2491 0.9116 0.46363 0.0
O501 O 0.19487 0.90166 0.39373 0.0
O502 O 0.18262 0.80529 0.53009 0.0
O503 O 0.13714 0.79537 0.45285 0.0
loop_
_geom_bond_atom_site_label_1
_geom_bond_atom_site_label_2
_geom_bond_distance
_geom_bond_site_symmetry_2
_ccdc_geom_bond_type
O0 Cd1 2.223 1_556 S
O0 C8 1.315 1_556 S
Cd1 O0 2.223 1_554 S
Cd1 O4 2.297 1_554 S
Cd1 O5 2.439 . S
Cd1 O11 2.240 . S
Cd2 O3 2.240 . S
Cd2 O10 2.223 . S
Cd2 O12 2.297 . S
Cd2 O13 2.439 . S
O3 Cd2 2.240 . S
O3 C8 1.279 . S
O4 Cd1 2.297 1_556 S
O4 C6 1.247 . S
O5 Cd1 2.439 . S
O5 C6 1.208 1_554 S
C6 O4 1.247 . S
C6 O5 1.208 1_556 S
C7 O12 1.247 . S
C7 O13 1.208 . S
C8 O0 1.315 1_554 S
C8 O3 1.279 . S
C9 O10 1.315 . S
C9 O11 1.279 . S
O10 Cd2 2.223 . S
O10 C9 1.315 . S
O11 Cd1 2.240 . S
O11 C9 1.279 . S
O12 Cd2 2.297 . S
O12 C7 1.247 . S
O13 Cd2 2.439 . S
O13 C7 1.208 . S
O14 Cd15 2.223 1_556 S
O14 C22 1.315 1_546 S
Cd15 O14 2.223 1_554 S
Cd15 O18 2.297 1_554 S
Cd15 O19 2.439 . S
Cd15 O25 2.240 . S
Cd16 O17 2.240 . S
Cd16 O24 2.223 1_545 S
Cd16 O26 2.297 . S
Cd16 O27 2.439 . S
O17 Cd16 2.240 . S
O17 C22 1.279 1_545 S
O18 Cd15 2.297 1_556 S
O18 C20 1.247 . S
O19 Cd15 2.439 . S
O19 C20 1.208 1_554 S
C20 O18 1.247 . S
C20 O19 1.208 1_556 S
C21 O26 1.247 . S
C21 O27 1.208 . S
C22 O14 1.315 1_564 S
C22 O17 1.279 1_565 S
C23 O24 1.315 1_545 S
C23 O25 1.279 . S
O24 Cd16 2.223 1_565 S
O24 C23 1.315 1_565 S
O25 Cd15 2.240 . S
O25 C23 1.279 . S
O26 Cd16 2.297 . S
O26 C21 1.247 . S
O27 Cd16 2.439 . S
O27 C21 1.208 . S
O28 Cd29 2.223 1_556 S
O28 C36 1.315 1_656 S
Cd29 O28 2.223 1_554 S
Cd29 O32 2.297 1_554 S
Cd29 O33 2.439 . S
Cd29 O39 2.240 . S
Cd30 O31 2.240 . S
Cd30 O38 2.223 1_655 S
Cd30 O40 2.297 . S
Cd30 O41 2.439 . S
O31 Cd30 2.240 . S
O31 C36 1.279 1_655 S
O32 Cd29 2.297 1_556 S
O32 C34 1.247 . S
O33 Cd29 2.439 . S
O33 C34 1.208 1_554 S
C34 O32 1.247 . S
C34 O33 1.208 1_556 S
C35 O40 1.247 . S
C35 O41 1.208 . S
C36 O28 1.315 1_454 S
C36 O31 1.279 1_455 S
C37 O38 1.315 1_655 S
C37 O39 1.279 . S
O38 Cd30 2.223 1_455 S
O38 C37 1.315 1_455 S
O39 Cd29 2.240 . S
O39 C37 1.279 . S
O40 Cd30 2.297 . S
O40 C35 1.247 . S
O41 Cd30 2.439 . S
O41 C35 1.208 . S
O42 Cd43 2.223 . S
O42 C50 1.315 . S
Cd43 O42 2.223 . S
Cd43 O46 2.297 . S
Cd43 O47 2.439 . S
Cd43 O53 2.240 . S
Cd44 O45 2.240 . S
Cd44 O52 2.223 . S
Cd44 O54 2.297 . S
Cd44 O55 2.439 . S
O45 Cd44 2.240 . S
O45 C50 1.279 . S
O46 Cd43 2.297 . S
O46 C48 1.247 . S
O47 Cd43 2.439 . S
O47 C48 1.208 . S
C48 O46 1.247 . S
C48 O47 1.208 . S
C49 O54 1.247 . S
C49 O55 1.208 . S
C50 O42 1.315 . S
C50 O45 1.279 . S
C51 O52 1.315 . S
C51 O53 1.279 . S
O52 Cd44 2.223 . S
O52 C51 1.315 . S
O53 Cd43 2.240 . S
O53 C51 1.279 . S
O54 Cd44 2.297 . S
O54 C49 1.247 . S
O55 Cd44 2.439 . S
O55 C49 1.208 . S
O56 Cd57 2.223 . S
O56 C64 1.315 1_565 S
Cd57 O56 2.223 . S
Cd57 O60 2.297 . S
Cd57 O61 2.439 . S
Cd57 O67 2.240 . S
Cd58 O59 2.240 . S
Cd58 O66 2.223 1_565 S
Cd58 O68 2.297 . S
Cd58 O69 2.439 . S
O59 Cd58 2.240 . S
O59 C64 1.279 1_565 S
O60 Cd57 2.297 . S
O60 C62 1.247 . S
O61 Cd57 2.439 . S
O61 C62 1.208 . S
C62 O60 1.247 . S
C62 O61 1.208 . S
C63 O68 1.247 . S
C63 O69 1.208 . S
C64 O56 1.315 1_545 S
C64 O59 1.279 1_545 S
C65 O66 1.315 1_565 S
C65 O67 1.279 . S
O66 Cd58 2.223 1_545 S
O66 C65 1.315 1_545 S
O67 Cd57 2.240 . S
O67 C65 1.279 . S
O68 Cd58 2.297 . S
O68 C63 1.247 . S
O69 Cd58 2.439 . S
O69 C63 1.208 . S
O70 Cd71 2.223 . S
O70 C78 1.315 1_455 S
Cd71 O70 2.223 . S
Cd71 O74 2.297 . S
Cd71 O75 2.439 . S
Cd71 O81 2.240 . S
Cd72 O73 2.240 . S
Cd72 O80 2.223 1_455 S
Cd72 O82 2.297 . S
Cd72 O83 2.439 . S
O73 Cd72 2.240 . S
O73 C78 1.279 1_455 S
O74 Cd71 2.297 . S
O74 C76 1.247 . S
O75 Cd71 2.439 . S
O75 C76 1.208 . S
C76 O74 1.247 . S
C76 O75 1.208 . S
C77 O82 1.247 . S
C77 O83 1.208 . S
C78 O70 1.315 1_655 S
C78 O73 1.279 1_655 S
C79 O80 1.315 1_455 S
C79 O81 1.279 . S
O80 Cd72 2.223 1_655 S
O80 C79 1.315 1_655 S
O81 Cd71 2.240 . S
O81 C79 1.279 . S
O82 Cd72 2.297 . S
O82 C77 1.247 . S
O83 Cd72 2.439 . S
O83 C77 1.208 . S
O84 Cd85 2.223 1_554 S
O84 C92 1.315 1_554 S
Cd85 O84 2.223 1_556 S
Cd85 O88 2.297 1_556 S
Cd85 O89 2.439 . S
Cd85 O95 2.240 . S
Cd86 O87 2.240 . S
Cd86 O94 2.223 . S
Cd86 O96 2.297 . S
Cd86 O97 2.439 . S
O87 Cd86 2.240 . S
O87 C92 1.279 . S
O88 Cd85 2.297 1_554 S
O88 C90 1.247 . S
O89 Cd85 2.439 . S
O89 C90 1.208 1_556 S
C90 O88 1.247 . S
C90 O89 1.208 1_554 S
C91 O96 1.247 . S
C91 O97 1.208 . S
C92 O84 1.315 1_556 S
C92 O87 1.279 . S
C93 O94 1.315 . S
C93 O95 1.279 . S
O94 Cd86 2.223 . S
O94 C93 1.315 . S
O95 Cd85 2.240 . S
O95 C93 1.279 . S
O96 Cd86 2.297 . S
O96 C91 1.247 . S
O97 Cd86 2.439 . S
O97 C91 1.208 . S
O98 Cd99 2.223 1_554 S
O98 C106 1.315 1_564 S
Cd99 O98 2.223 1_556 S
Cd99 O102 2.297 1_556 S
Cd99 O103 2.439 . S
Cd99 O109 2.240 . S
Cd100 O101 2.240 . S
Cd100 O108 2.223 1_565 S
Cd100 O110 2.297 . S
Cd100 O111 2.439 . S
O101 Cd100 2.240 . S
O101 C106 1.279 1_565 S
O102 Cd99 2.297 1_554 S
O102 C104 1.247 . S
O103 Cd99 2.439 . S
O103 C104 1.208 1_556 S
C104 O102 1.247 . S
C104 O103 1.208 1_554 S
C105 O110 1.247 . S
C105 O111 1.208 . S
C106 O98 1.315 1_546 S
C106 O101 1.279 1_545 S
C107 O108 1.315 1_565 S
C107 O109 1.279 . S
O108 Cd100 2.223 1_545 S
O108 C107 1.315 1_545 S
O109 Cd99 2.240 . S
O109 C107 1.279 . S
O110 Cd100 2.297 . S
O110 C105 1.247 . S
O111 Cd100 2.439 . S
O111 C105 1.208 . S
O112 Cd113 2.223 1_554 S
O112 C120 1.315 1_454 S
Cd113 O112 2.223 1_556 S
Cd113 O116 2.297 1_556 S
Cd113 O117 2.439 . S
Cd113 O123 2.240 . S
Cd114 O115 2.240 . S
Cd114 O122 2.223 1_455 S
Cd114 O124 2.297 . S
Cd114 O125 2.439 . S
O115 Cd114 2.240 . S
O115 C120 1.279 1_455 S
O116 Cd113 2.297 1_554 S
O116 C118 1.247 . S
O117 Cd113 2.439 . S
O117 C118 1.208 1_556 S
C118 O116 1.247 . S
C118 O117 1.208 1_554 S
C119 O124 1.247 . S
C119 O125 1.208 . S
C120 O112 1.315 1_656 S
C120 O115 1.279 1_655 S
C121 O122 1.315 1_455 S
C121 O123 1.279 . S
O122 Cd114 2.223 1_655 S
O122 C121 1.315 1_655 S
O123 Cd113 2.240 . S
O123 C121 1.279 . S
O124 Cd114 2.297 . S
O124 C119 1.247 . S
O125 Cd114 2.439 . S
O125 C119 1.208 . S
O126 Cd127 2.223 . S
O126 C134 1.315 . S
Cd127 O126 2.223 . S
Cd127 O130 2.297 . S
Cd127 O131 2.439 . S
Cd127 O137 2.240 . S
Cd128 O129 2.240 . S
Cd128 O136 2.223 . S
Cd128 O138 2.297 . S
Cd128 O139 2.439 . S
O129 Cd128 2.240 . S
O129 C134 1.279 . S
O130 Cd127 2.297 . S
O130 C132 1.247 . S
O131 Cd127 2.439 . S
O131 C132 1.208 . S
C132 O130 1.247 . S
C132 O131 1.208 . S
C133 O138 1.247 . S
C133 O139 1.208 . S
C134 O126 1.315 . S
C134 O129 1.279 . S
C135 O136 1.315 . S
C135 O137 1.279 . S
O136 Cd128 2.223 . S
O136 C135 1.315 . S
O137 Cd127 2.240 . S
O137 C135 1.279 . S
O138 Cd128 2.297 . S
O138 C133 1.247 . S
O139 Cd128 2.439 . S
O139 C133 1.208 . S
O140 Cd141 2.223 . S
O140 C148 1.315 1_545 S
Cd141 O140 2.223 . S
Cd141 O144 2.297 . S
Cd141 O145 2.439 . S
Cd141 O151 2.240 . S
Cd142 O143 2.240 . S
Cd142 O150 2.223 1_545 S
Cd142 O152 2.297 . S
Cd142 O153 2.439 . S
O143 Cd142 2.240 . S
O143 C148 1.279 1_545 S
O144 Cd141 2.297 . S
O144 C146 1.247 . S
O145 Cd141 2.439 . S
O145 C146 1.208 . S
C146 O144 1.247 . S
C146 O145 1.208 . S
C147 O152 1.247 . S
C147 O153 1.208 . S
C148 O140 1.315 1_565 S
C148 O143 1.279 1_565 S
C149 O150 1.315 1_545 S
C149 O151 1.279 . S
O150 Cd142 2.223 1_565 S
O150 C149 1.315 1_565 S
O151 Cd141 2.240 . S
O151 C149 1.279 . S
O152 Cd142 2.297 . S
O152 C147 1.247 . S
O153 Cd142 2.439 . S
O153 C147 1.208 . S
O154 Cd155 2.223 . S
O154 C162 1.315 1_655 S
Cd155 O154 2.223 . S
Cd155 O158 2.297 . S
Cd155 O159 2.439 . S
Cd155 O165 2.240 . S
Cd156 O157 2.240 . S
Cd156 O164 2.223 1_655 S
Cd156 O166 2.297 . S
Cd156 O167 2.439 . S
O157 Cd156 2.240 . S
O157 C162 1.279 1_655 S
O158 Cd155 2.297 . S
O158 C160 1.247 . S
O159 Cd155 2.439 . S
O159 C160 1.208 . S
C160 O158 1.247 . S
C160 O159 1.208 . S
C161 O166 1.247 . S
C161 O167 1.208 . S
C162 O154 1.315 1_455 S
C162 O157 1.279 1_455 S
C163 O164 1.315 1_655 S
C163 O165 1.279 . S
O164 Cd156 2.223 1_455 S
O164 C163 1.315 1_455 S
O165 Cd155 2.240 . S
O165 C163 1.279 . S
O166 Cd156 2.297 . S
O166 C161 1.247 . S
O167 Cd156 2.439 . S
O167 C161 1.208 . S
O168 Cd169 2.223 . S
O168 C176 1.315 . S
Cd169 O168 2.223 . S
Cd169 O172 2.297 . S
Cd169 O173 2.439 . S
Cd169 O179 2.240 1_655 S
Cd170 O171 2.240 . S
Cd170 O178 2.223 . S
Cd170 O180 2.297 . S
Cd170 O181 2.439 . S
O171 Cd170 2.240 . S
O171 C176 1.279 . S
O172 Cd169 2.297 . S
O172 C174 1.247 . S
O173 Cd169 2.439 . S
O173 C174 1.208 . S
C174 O172 1.247 . S
C174 O173 1.208 . S
C175 O180 1.247 . S
C175 O181 1.208 . S
C176 O168 1.315 . S
C176 O171 1.279 . S
C177 O178 1.315 1_455 S
C177 O179 1.279 . S
O178 Cd170 2.223 . S
O178 C177 1.315 1_655 S
O179 Cd169 2.240 1_455 S
O179 C177 1.279 . S
O180 Cd170 2.297 . S
O180 C175 1.247 . S
O181 Cd170 2.439 . S
O181 C175 1.208 . S
O182 Cd183 2.223 . S
O182 C190 1.315 . S
Cd183 O182 2.223 . S
Cd183 O186 2.297 . S
Cd183 O187 2.439 . S
Cd183 O193 2.240 . S
Cd184 O185 2.240 . S
Cd184 O192 2.223 . S
Cd184 O194 2.297 . S
Cd184 O195 2.439 . S
O185 Cd184 2.240 . S
O185 C190 1.279 . S
O186 Cd183 2.297 . S
O186 C188 1.247 . S
O187 Cd183 2.439 . S
O187 C188 1.208 . S
C188 O186 1.247 . S
C188 O187 1.208 . S
C189 O194 1.247 . S
C189 O195 1.208 . S
C190 O182 1.315 . S
C190 O185 1.279 . S
C191 O192 1.315 . S
C191 O193 1.279 . S
O192 Cd184 2.223 . S
O192 C191 1.315 . S
O193 Cd183 2.240 . S
O193 C191 1.279 . S
O194 Cd184 2.297 . S
O194 C189 1.247 . S
O195 Cd184 2.439 . S
O195 C189 1.208 . S
O196 Cd197 2.223 . S
O196 C204 1.315 . S
Cd197 O196 2.223 . S
Cd197 O200 2.297 . S
Cd197 O201 2.439 . S
Cd197 O207 2.240 1_545 S
Cd198 O199 2.240 . S
Cd198 O206 2.223 . S
Cd198 O208 2.297 . S
Cd198 O209 2.439 . S
O199 Cd198 2.240 . S
O199 C204 1.279 . S
O200 Cd197 2.297 . S
O200 C202 1.247 . S
O201 Cd197 2.439 . S
O201 C202 1.208 . S
C202 O200 1.247 . S
C202 O201 1.208 . S
C203 O208 1.247 . S
C203 O209 1.208 . S
C204 O196 1.315 . S
C204 O199 1.279 . S
C205 O206 1.315 1_565 S
C205 O207 1.279 . S
O206 Cd198 2.223 . S
O206 C205 1.315 1_545 S
O207 Cd197 2.240 1_565 S
O207 C205 1.279 . S
O208 Cd198 2.297 . S
O208 C203 1.247 . S
O209 Cd198 2.439 . S
O209 C203 1.208 . S
O210 Cd211 2.223 . S
O210 C218 1.315 . S
Cd211 O210 2.223 . S
Cd211 O214 2.297 . S
Cd211 O215 2.439 . S
Cd211 O221 2.240 . S
Cd212 O213 2.240 . S
Cd212 O220 2.223 . S
Cd212 O222 2.297 . S
Cd212 O223 2.439 . S
O213 Cd212 2.240 . S
O213 C218 1.279 . S
O214 Cd211 2.297 . S
O214 C216 1.247 . S
O215 Cd211 2.439 . S
O215 C216 1.208 . S
C216 O214 1.247 . S
C216 O215 1.208 . S
C217 O222 1.247 . S
C217 O223 1.208 . S
C218 O210 1.315 . S
C218 O213 1.279 . S
C219 O220 1.315 . S
C219 O221 1.279 . S
O220 Cd212 2.223 . S
O220 C219 1.315 . S
O221 Cd211 2.240 . S
O221 C219 1.279 . S
O222 Cd212 2.297 . S
O222 C217 1.247 . S
O223 Cd212 2.439 . S
O223 C217 1.208 . S
O224 Cd225 2.223 . S
O224 C232 1.315 . S
Cd225 O224 2.223 . S
Cd225 O228 2.297 . S
Cd225 O229 2.439 . S
Cd225 O235 2.240 . S
Cd226 O227 2.240 . S
Cd226 O234 2.223 . S
Cd226 O236 2.297 . S
Cd226 O237 2.439 . S
O227 Cd226 2.240 . S
O227 C232 1.279 . S
O228 Cd225 2.297 . S
O228 C230 1.247 . S
O229 Cd225 2.439 . S
O229 C230 1.208 . S
C230 O228 1.247 . S
C230 O229 1.208 . S
C231 O236 1.247 . S
C231 O237 1.208 . S
C232 O224 1.315 . S
C232 O227 1.279 . S
C233 O234 1.315 . S
C233 O235 1.279 . S
O234 Cd226 2.223 . S
O234 C233 1.315 . S
O235 Cd225 2.240 . S
O235 C233 1.279 . S
O236 Cd226 2.297 . S
O236 C231 1.247 . S
O237 Cd226 2.439 . S
O237 C231 1.208 . S
O238 Cd239 2.223 . S
O238 C246 1.315 . S
Cd239 O238 2.223 . S
Cd239 O242 2.297 . S
Cd239 O243 2.439 . S
Cd239 O249 2.240 . S
Cd240 O241 2.240 . S
Cd240 O248 2.223 . S
Cd240 O250 2.297 . S
Cd240 O251 2.439 . S
O241 Cd240 2.240 . S
O241 C246 1.279 . S
O242 Cd239 2.297 . S
O242 C244 1.247 . S
O243 Cd239 2.439 . S
O243 C244 1.208 . S
C244 O242 1.247 . S
C244 O243 1.208 . S
C245 O250 1.247 . S
C245 O251 1.208 . S
C246 O238 1.315 . S
C246 O241 1.279 . S
C247 O248 1.315 . S
C247 O249 1.279 . S
O248 Cd240 2.223 . S
O248 C247 1.315 . S
O249 Cd239 2.240 . S
O249 C247 1.279 . S
O250 Cd240 2.297 . S
O250 C245 1.247 . S
O251 Cd240 2.439 . S
O251 C245 1.208 . S
O252 Cd253 2.223 . S
O252 C260 1.315 . S
Cd253 O252 2.223 . S
Cd253 O256 2.297 . S
Cd253 O257 2.439 . S
Cd253 O263 2.240 . S
Cd254 O255 2.240 . S
Cd254 O262 2.223 . S
Cd254 O264 2.297 . S
Cd254 O265 2.439 . S
O255 Cd254 2.240 . S
O255 C260 1.279 . S
O256 Cd253 2.297 . S
O256 C258 1.247 . S
O257 Cd253 2.439 . S
O257 C258 1.208 . S
C258 O256 1.247 . S
C258 O257 1.208 . S
C259 O264 1.247 . S
C259 O265 1.208 . S
C260 O252 1.315 . S
C260 O255 1.279 . S
C261 O262 1.315 . S
C261 O263 1.279 . S
O262 Cd254 2.223 . S
O262 C261 1.315 . S
O263 Cd253 2.240 . S
O263 C261 1.279 . S
O264 Cd254 2.297 . S
O264 C259 1.247 . S
O265 Cd254 2.439 . S
O265 C259 1.208 . S
O266 Cd267 2.223 . S
O266 C274 1.315 . S
Cd267 O266 2.223 . S
Cd267 O270 2.297 . S
Cd267 O271 2.439 . S
Cd267 O277 2.240 . S
Cd268 O269 2.240 . S
Cd268 O276 2.223 . S
Cd268 O278 2.297 . S
Cd268 O279 2.439 . S
O269 Cd268 2.240 . S
O269 C274 1.279 . S
O270 Cd267 2.297 . S
O270 C272 1.247 . S
O271 Cd267 2.439 . S
O271 C272 1.208 . S
C272 O270 1.247 . S
C272 O271 1.208 . S
C273 O278 1.247 . S
C273 O279 1.208 . S
C274 O266 1.315 . S
C274 O269 1.279 . S
C275 O276 1.315 . S
C275 O277 1.279 . S
O276 Cd268 2.223 . S
O276 C275 1.315 . S
O277 Cd267 2.240 . S
O277 C275 1.279 . S
O278 Cd268 2.297 . S
O278 C273 1.247 . S
O279 Cd268 2.439 . S
O279 C273 1.208 . S
O280 Cd281 2.223 . S
O280 C288 1.315 . S
Cd281 O280 2.223 . S
Cd281 O284 2.297 . S
Cd281 O285 2.439 . S
Cd281 O291 2.240 . S
Cd282 O283 2.240 . S
Cd282 O290 2.223 . S
Cd282 O292 2.297 . S
Cd282 O293 2.439 . S
O283 Cd282 2.240 . S
O283 C288 1.279 . S
O284 Cd281 2.297 . S
O284 C286 1.247 . S
O285 Cd281 2.439 . S
O285 C286 1.208 . S
C286 O284 1.247 . S
C286 O285 1.208 . S
C287 O292 1.247 . S
C287 O293 1.208 . S
C288 O280 1.315 . S
C288 O283 1.279 . S
C289 O290 1.315 . S
C289 O291 1.279 . S
O290 Cd282 2.223 . S
O290 C289 1.315 . S
O291 Cd281 2.240 . S
O291 C289 1.279 . S
O292 Cd282 2.297 . S
O292 C287 1.247 . S
O293 Cd282 2.439 . S
O293 C287 1.208 . S
O294 Cd295 2.223 . S
O294 C302 1.315 . S
Cd295 O294 2.223 . S
Cd295 O298 2.297 . S
Cd295 O299 2.439 . S
Cd295 O305 2.240 1_545 S
Cd296 O297 2.240 . S
Cd296 O304 2.223 . S
Cd296 O306 2.319 . S
Cd296 O307 2.439 . S
O297 Cd296 2.240 . S
O297 C302 1.279 . S
O298 Cd295 2.297 . S
O298 C300 1.247 . S
O299 Cd295 2.439 . S
O299 C300 1.208 . S
C300 O298 1.247 . S
C300 O299 1.208 . S
C301 O306 1.253 . S
C301 O307 1.208 . S
C302 O294 1.315 . S
C302 O297 1.279 . S
C303 O304 1.315 1_565 S
C303 O305 1.279 . S
O304 Cd296 2.223 . S
O304 C303 1.315 1_545 S
O305 Cd295 2.240 1_565 S
O305 C303 1.279 . S
O306 Cd296 2.319 . S
O306 C301 1.253 . S
O307 Cd296 2.439 . S
O307 C301 1.208 . S
O308 Cd309 2.223 . S
O308 C316 1.315 . S
Cd309 O308 2.223 . S
Cd309 O312 2.297 . S
Cd309 O313 2.439 . S
Cd309 O319 2.240 1_655 S
Cd310 O311 2.240 . S
Cd310 O318 2.223 . S
Cd310 O320 2.319 . S
Cd310 O321 2.439 . S
O311 Cd310 2.240 . S
O311 C316 1.279 . S
O312 Cd309 2.297 . S
O312 C314 1.247 . S
O313 Cd309 2.439 . S
O313 C314 1.208 . S
C314 O312 1.247 . S
C314 O313 1.208 . S
C315 O320 1.253 . S
C315 O321 1.208 . S
C316 O308 1.315 . S
C316 O311 1.279 . S
C317 O318 1.315 1_455 S
C317 O319 1.279 . S
O318 Cd310 2.223 . S
O318 C317 1.315 1_655 S
O319 Cd309 2.240 1_455 S
O319 C317 1.279 . S
O320 Cd310 2.319 . S
O320 C315 1.253 . S
O321 Cd310 2.439 . S
O321 C315 1.208 . S
O322 Cd323 2.223 . S
O322 C330 1.315 . S
Cd323 O322 2.223 . S
Cd323 O326 2.297 . S
Cd323 O327 2.439 . S
Cd323 O333 2.240 . S
Cd324 O325 2.240 . S
Cd324 O332 2.223 . S
Cd324 O334 2.319 . S
Cd324 O335 2.439 . S
O325 Cd324 2.240 . S
O325 C330 1.279 . S
O326 Cd323 2.297 . S
O326 C328 1.247 . S
O327 Cd323 2.439 . S
O327 C328 1.208 . S
C328 O326 1.247 . S
C328 O327 1.208 . S
C329 O334 1.254 . S
C329 O335 1.208 . S
C330 O322 1.315 . S
C330 O325 1.279 . S
C331 O332 1.315 . S
C331 O333 1.279 . S
O332 Cd324 2.223 . S
O332 C331 1.315 . S
O333 Cd323 2.240 . S
O333 C331 1.279 . S
O334 Cd324 2.319 . S
O334 C329 1.254 . S
O335 Cd324 2.439 . S
O335 C329 1.208 . S
O336 Cd337 2.223 . S
O336 C344 1.315 . S
Cd337 O336 2.223 . S
Cd337 O340 2.297 . S
Cd337 O341 2.439 . S
Cd337 O347 2.240 . S
Cd338 O339 2.240 . S
Cd338 O346 2.223 . S
Cd338 O348 2.297 . S
Cd338 O349 2.439 . S
O339 Cd338 2.240 . S
O339 C344 1.279 . S
O340 Cd337 2.297 . S
O340 C342 1.247 . S
O341 Cd337 2.439 . S
O341 C342 1.208 . S
C342 O340 1.247 . S
C342 O341 1.208 . S
C343 O348 1.247 . S
C343 O349 1.208 . S
C344 O336 1.315 . S
C344 O339 1.279 . S
C345 O346 1.315 . S
C345 O347 1.279 . S
O346 Cd338 2.223 . S
O346 C345 1.315 . S
O347 Cd337 2.240 . S
O347 C345 1.279 . S
O348 Cd338 2.297 . S
O348 C343 1.247 . S
O349 Cd338 2.439 . S
O349 C343 1.208 . S
O350 Cd351 2.223 . S
O350 C358 1.315 . S
Cd351 O350 2.223 . S
Cd351 O354 2.297 . S
Cd351 O355 2.439 . S
Cd351 O361 2.240 . S
Cd352 O353 2.240 . S
Cd352 O360 2.223 . S
Cd352 O362 2.297 . S
Cd352 O363 2.439 . S
O353 Cd352 2.240 . S
O353 C358 1.279 . S
O354 Cd351 2.297 . S
O354 C356 1.247 . S
O355 Cd351 2.439 . S
O355 C356 1.208 . S
C356 O354 1.247 . S
C356 O355 1.208 . S
C357 O362 1.247 . S
C357 O363 1.208 . S
C358 O350 1.315 . S
C358 O353 1.279 . S
C359 O360 1.315 . S
C359 O361 1.279 . S
O360 Cd352 2.223 . S
O360 C359 1.315 . S
O361 Cd351 2.240 . S
O361 C359 1.279 . S
O362 Cd352 2.297 . S
O362 C357 1.247 . S
O363 Cd352 2.439 . S
O363 C357 1.208 . S
O364 Cd365 2.223 . S
O364 C372 1.315 . S
Cd365 O364 2.223 . S
Cd365 O368 2.297 . S
Cd365 O369 2.439 . S
Cd365 O375 2.240 . S
Cd366 O367 2.240 . S
Cd366 O374 2.223 . S
Cd366 O376 2.297 . S
Cd366 O377 2.439 . S
O367 Cd366 2.240 . S
O367 C372 1.279 . S
O368 Cd365 2.297 . S
O368 C370 1.247 . S
O369 Cd365 2.439 . S
O369 C370 1.208 . S
C370 O368 1.247 . S
C370 O369 1.208 . S
C371 O376 1.247 . S
C371 O377 1.208 . S
C372 O364 1.315 . S
C372 O367 1.279 . S
C373 O374 1.315 . S
C373 O375 1.279 . S
O374 Cd366 2.223 . S
O374 C373 1.315 . S
O375 Cd365 2.240 . S
O375 C373 1.279 . S
O376 Cd366 2.297 . S
O376 C371 1.247 . S
O377 Cd366 2.439 . S
O377 C371 1.208 . S
O378 Cd379 2.223 . S
O378 C386 1.315 . S
Cd379 O378 2.223 . S
Cd379 O382 2.297 . S
Cd379 O383 2.439 . S
Cd379 O389 2.240 1_565 S
Cd380 O381 2.240 . S
Cd380 O388 2.223 . S
Cd380 O390 2.319 . S
Cd380 O391 2.439 . S
O381 Cd380 2.240 . S
O381 C386 1.279 . S
O382 Cd379 2.297 . S
O382 C384 1.247 . S
O383 Cd379 2.439 . S
O383 C384 1.208 . S
C384 O382 1.247 . S
C384 O383 1.208 . S
C385 O390 1.253 . S
C385 O391 1.208 . S
C386 O378 1.315 . S
C386 O381 1.279 . S
C387 O388 1.315 1_545 S
C387 O389 1.279 . S
O388 Cd380 2.223 . S
O388 C387 1.315 1_565 S
O389 Cd379 2.240 1_545 S
O389 C387 1.279 . S
O390 Cd380 2.319 . S
O390 C385 1.253 . S
O391 Cd380 2.439 . S
O391 C385 1.208 . S
O392 Cd393 2.223 . S
O392 C400 1.315 . S
Cd393 O392 2.223 . S
Cd393 O396 2.297 . S
Cd393 O397 2.439 . S
Cd393 O403 2.240 1_455 S
Cd394 O395 2.240 . S
Cd394 O402 2.223 . S
Cd394 O404 2.319 . S
Cd394 O405 2.439 . S
O395 Cd394 2.240 . S
O395 C400 1.279 . S
O396 Cd393 2.297 . S
O396 C398 1.247 . S
O397 Cd393 2.439 . S
O397 C398 1.208 . S
C398 O396 1.247 . S
C398 O397 1.208 . S
C399 O404 1.253 . S
C399 O405 1.208 . S
C400 O392 1.315 . S
C400 O395 1.279 . S
C401 O402 1.315 1_655 S
C401 O403 1.279 . S
O402 Cd394 2.223 . S
O402 C401 1.315 1_455 S
O403 Cd393 2.240 1_655 S
O403 C401 1.279 . S
O404 Cd394 2.319 . S
O404 C399 1.253 . S
O405 Cd394 2.439 . S
O405 C399 1.208 . S
O406 Cd407 2.223 . S
O406 C414 1.315 . S
Cd407 O406 2.223 . S
Cd407 O410 2.297 . S
Cd407 O411 2.439 . S
Cd407 O417 2.240 . S
Cd408 O409 2.240 . S
Cd408 O416 2.223 . S
Cd408 O418 2.319 . S
Cd408 O419 2.439 . S
O409 Cd408 2.240 . S
O409 C414 1.279 . S
O410 Cd407 2.297 . S
O410 C412 1.247 . S
O411 Cd407 2.439 . S
O411 C412 1.208 . S
C412 O410 1.247 . S
C412 O411 1.208 . S
C413 O418 1.254 . S
C413 O419 1.208 . S
C414 O406 1.315 . S
C414 O409 1.279 . S
C415 O416 1.315 . S
C415 O417 1.279 . S
O416 Cd408 2.223 . S
O416 C415 1.315 . S
O417 Cd407 2.240 . S
O417 C415 1.279 . S
O418 Cd408 2.319 . S
O418 C413 1.254 . S
O419 Cd408 2.439 . S
O419 C413 1.208 . S
O420 Cd421 2.223 . S
O420 C428 1.315 . S
Cd421 O420 2.223 . S
Cd421 O424 2.297 . S
Cd421 O425 2.439 . S
Cd421 O431 2.240 1_455 S
Cd422 O423 2.240 . S
Cd422 O430 2.223 . S
Cd422 O432 2.297 . S
Cd422 O433 2.439 . S
O423 Cd422 2.240 . S
O423 C428 1.279 . S
O424 Cd421 2.297 . S
O424 C426 1.247 . S
O425 Cd421 2.439 . S
O425 C426 1.208 . S
C426 O424 1.247 . S
C426 O425 1.208 . S
C427 O432 1.247 . S
C427 O433 1.208 . S
C428 O420 1.315 . S
C428 O423 1.279 . S
C429 O430 1.315 1_655 S
C429 O431 1.279 . S
O430 Cd422 2.223 . S
O430 C429 1.315 1_455 S
O431 Cd421 2.240 1_655 S
O431 C429 1.279 . S
O432 Cd422 2.297 . S
O432 C427 1.247 . S
O433 Cd422 2.439 . S
O433 C427 1.208 . S
O434 Cd435 2.223 . S
O434 C442 1.315 . S
Cd435 O434 2.223 . S
Cd435 O438 2.297 . S
Cd435 O439 2.439 . S
Cd435 O445 2.240 . S
Cd436 O437 2.240 . S
Cd436 O444 2.223 . S
Cd436 O446 2.297 . S
Cd436 O447 2.439 . S
O437 Cd436 2.240 . S
O437 C442 1.279 . S
O438 Cd435 2.297 . S
O438 C440 1.247 . S
O439 Cd435 2.439 . S
O439 C440 1.208 . S
C440 O438 1.247 . S
C440 O439 1.208 . S
C441 O446 1.247 . S
C441 O447 1.208 . S
C442 O434 1.315 . S
C442 O437 1.279 . S
C443 O444 1.315 . S
C443 O445 1.279 . S
O444 Cd436 2.223 . S
O444 C443 1.315 . S
O445 Cd435 2.240 . S
O445 C443 1.279 . S
O446 Cd436 2.297 . S
O446 C441 1.247 . S
O447 Cd436 2.439 . S
O447 C441 1.208 . S
O448 Cd449 2.223 . S
O448 C456 1.315 . S
Cd449 O448 2.223 . S
Cd449 O452 2.297 . S
Cd449 O453 2.439 . S
Cd449 O459 2.240 1_565 S
Cd450 O451 2.240 . S
Cd450 O458 2.223 . S
Cd450 O460 2.297 . S
Cd450 O461 2.439 . S
O451 Cd450 2.240 . S
O451 C456 1.279 . S
O452 Cd449 2.297 . S
O452 C454 1.247 . S
O453 Cd449 2.439 . S
O453 C454 1.208 . S
C454 O452 1.247 . S
C454 O453 1.208 . S
C455 O460 1.247 . S
C455 O461 1.208 . S
C456 O448 1.315 . S
C456 O451 1.279 . S
C457 O458 1.315 1_545 S
C457 O459 1.279 . S
O458 Cd450 2.223 . S
O458 C457 1.315 1_565 S
O459 Cd449 2.240 1_545 S
O459 C457 1.279 . S
O460 Cd450 2.297 . S
O460 C455 1.247 . S
O461 Cd450 2.439 . S
O461 C455 1.208 . S
O462 Cd463 2.223 . S
O462 C470 1.315 . S
Cd463 O462 2.223 . S
Cd463 O466 2.297 . S
Cd463 O467 2.439 . S
Cd463 O473 2.240 . S
Cd464 O465 2.240 . S
Cd464 O472 2.223 . S
Cd464 O474 2.297 . S
Cd464 O475 2.439 . S
O465 Cd464 2.240 . S
O465 C470 1.279 . S
O466 Cd463 2.297 . S
O466 C468 1.247 . S
O467 Cd463 2.439 . S
O467 C468 1.208 . S
C468 O466 1.247 . S
C468 O467 1.208 . S
C469 O474 1.247 . S
C469 O475 1.208 . S
C470 O462 1.315 . S
C470 O465 1.279 . S
C471 O472 1.315 . S
C471 O473 1.279 . S
O472 Cd464 2.223 . S
O472 C471 1.315 . S
O473 Cd463 2.240 . S
O473 C471 1.279 . S
O474 Cd464 2.297 . S
O474 C469 1.247 . S
O475 Cd464 2.439 . S
O475 C469 1.208 . S
O476 Cd477 2.223 . S
O476 C484 1.315 . S
Cd477 O476 2.223 . S
Cd477 O480 2.297 . S
Cd477 O481 2.439 . S
Cd477 O487 2.240 . S
Cd478 O479 2.240 . S
Cd478 O486 2.223 . S
Cd478 O488 2.297 . S
Cd478 O489 2.439 . S
O479 Cd478 2.240 . S
O479 C484 1.279 . S
O480 Cd477 2.297 . S
O480 C482 1.247 . S
O481 Cd477 2.439 . S
O481 C482 1.208 . S
C482 O480 1.247 . S
C482 O481 1.208 . S
C483 O488 1.247 . S
C483 O489 1.208 . S
C484 O476 1.315 . S
C484 O479 1.279 . S
C485 O486 1.315 . S
C485 O487 1.279 . S
O486 Cd478 2.223 . S
O486 C485 1.315 . S
O487 Cd477 2.240 . S
O487 C485 1.279 . S
O488 Cd478 2.297 . S
O488 C483 1.247 . S
O489 Cd478 2.439 . S
O489 C483 1.208 . S
O490 Cd491 2.223 . S
O490 C498 1.315 . S
Cd491 O490 2.223 . S
Cd491 O494 2.297 . S
Cd491 O495 2.439 . S
Cd491 O501 2.240 . S
Cd492 O493 2.240 . S
Cd492 O500 2.223 . S
Cd492 O502 2.297 . S
Cd492 O503 2.439 . S
O493 Cd492 2.240 . S
O493 C498 1.279 . S
O494 Cd491 2.297 . S
O494 C496 1.247 . S
O495 Cd491 2.439 . S
O495 C496 1.208 . S
C496 O494 1.247 . S
C496 O495 1.208 . S
C497 O502 1.247 . S
C497 O503 1.208 . S
C498 O490 1.315 . S
C498 O493 1.279 . S
C499 O500 1.315 . S
C499 O501 1.279 . S
O500 Cd492 2.223 . S
O500 C499 1.315 . S
O501 Cd491 2.240 . S
O501 C499 1.279 . S
O502 Cd492 2.297 . S
O502 C497 1.247 . S
O503 Cd492 2.439 . S
O503 C497 1.208 . S
C7 C259 1.794 . S
C21 C273 1.794 . S
C287 C35 1.794 . S
C49 C469 1.794 . S
C483 C63 1.794 . S
C77 C497 1.794 . S
C343 C91 1.794 . S
C105 C357 1.794 . S
C119 C371 1.794 . S
C133 C217 1.794 . S
C231 C147 1.794 . S
C161 C245 1.794 . S
C175 C427 1.794 1_655 S
C189 C441 1.794 . S
C203 C455 1.794 1_545 S
C301 C385 1.794 1_546 S
C315 C399 1.794 1_656 S
C329 C413 1.794 1_556 S
C106 C6 1.667 . S
C120 C20 1.667 . S
C34 C92 1.667 . S
C162 C48 1.667 . S
C134 C62 1.667 . S
C148 C76 1.667 . S
C90 C22 1.667 . S
C104 C36 1.667 . S
C118 C8 1.667 . S
C132 C78 1.667 . S
C50 C146 1.667 . S
C64 C160 1.667 . S
C174 C274 1.667 . S
C188 C288 1.667 . S
C202 C260 1.667 . S
C330 C216 1.667 . S
C230 C302 1.667 . S
C316 C244 1.667 . S
C258 C190 1.667 . S
C204 C272 1.667 . S
C176 C286 1.667 . S
C300 C246 1.667 . S
C314 C218 1.667 . S
C328 C232 1.667 . S
C442 C342 1.667 . S
C356 C456 1.667 . S
C370 C428 1.667 . S
C498 C384 1.667 . S
C470 C398 1.667 . S
C484 C412 1.667 . S
C358 C426 1.667 . S
C372 C440 1.667 . S
C344 C454 1.667 . S
C468 C414 1.667 . S
C386 C482 1.667 . S
C496 C400 1.667 . S
C9 C415 1.103 . S
C387 C23 1.103 . S
C37 C401 1.103 . S
C51 C191 1.103 . S
C205 C65 1.103 . S
C79 C177 1.103 . S
C331 C93 1.103 . S
C107 C303 1.103 . S
C121 C317 1.103 . S
C135 C443 1.103 . S
C149 C457 1.103 . S
C429 C163 1.103 . S
C219 C359 1.103 1_655 S
C373 C233 1.103 . S
C345 C247 1.103 1_565 S
C499 C261 1.103 1_565 S
C275 C471 1.103 1_655 S
C289 C485 1.103 . S
