# Generated by pormake.
# Topology wjf, (4)-cn, num edge types: 1
# Building blocks:
#     Node 0, Type 0, BuildingBlock: AZAVOO_clean_sbu_0, # of connection points: 4
#     Node 1, Type 0, BuildingBlock: AZAVOO_clean_sbu_0, # of connection points: 4
#     Node 2, Type 0, BuildingBlock: AZAVOO_clean_sbu_0, # of connection points: 4
#     Node 3, Type 0, BuildingBlock: AZAVOO_clean_sbu_0, # of connection points: 4
#     Node 4, Type 0, BuildingBlock: AZAVOO_clean_sbu_0, # of connection points: 4
#     Node 5, Type 0, BuildingBlock: AZAVOO_clean_sbu_0, # of connection points: 4
#     Node 6, Type 0, BuildingBlock: AZAVOO_clean_sbu_0, # of connection points: 4
#     Node 7, Type 0, BuildingBlock: AZAVOO_clean_sbu_0, # of connection points: 4
#     Node 8, Type 0, BuildingBlock: AZAVOO_clean_sbu_0, # of connection points: 4
#     Node 9, Type 0, BuildingBlock: AZAVOO_clean_sbu_0, # of connection points: 4
#     Node 10, Type 0, BuildingBlock: AZAVOO_clean_sbu_0, # of connection points: 4
#     Node 11, Type 0, BuildingBlock: AZAVOO_clean_sbu_0, # of connection points: 4
#     Edge 12, Type (0, 0), BuildingBlock: CIFDUS_clean_linker_0, # of connection points: 2
#     Edge 13, Type (0, 0), BuildingBlock: CIFDUS_clean_linker_0, # of connection points: 2
#     Edge 14, Type (0, 0), BuildingBlock: CIFDUS_clean_linker_0, # of connection points: 2
#     Edge 15, Type (0, 0), BuildingBlock: CIFDUS_clean_linker_0, # of connection points: 2
#     Edge 16, Type (0, 0), BuildingBlock: CIFDUS_clean_linker_0, # of connection points: 2
#     Edge 17, Type (0, 0), BuildingBlock: CIFDUS_clean_linker_0, # of connection points: 2
#     Edge 18, Type (0, 0), BuildingBlock: CIFDUS_clean_linker_0, # of connection points: 2
#     Edge 19, Type (0, 0), BuildingBlock: CIFDUS_clean_linker_0, # of connection points: 2
#     Edge 20, Type (0, 0), BuildingBlock: CIFDUS_clean_linker_0, # of connection points: 2
#     Edge 21, Type (0, 0), BuildingBlock: CIFDUS_clean_linker_0, # of connection points: 2
#     Edge 22, Type (0, 0), BuildingBlock: CIFDUS_clean_linker_0, # of connection points: 2
#     Edge 23, Type (0, 0), BuildingBlock: CIFDUS_clean_linker_0, # of connection points: 2
#     Edge 24, Type (0, 0), BuildingBlock: CIFDUS_clean_linker_0, # of connection points: 2
#     Edge 25, Type (0, 0), BuildingBlock: CIFDUS_clean_linker_0, # of connection points: 2
#     Edge 26, Type (0, 0), BuildingBlock: CIFDUS_clean_linker_0, # of connection points: 2
#     Edge 27, Type (0, 0), BuildingBlock: CIFDUS_clean_linker_0, # of connection points: 2
#     Edge 28, Type (0, 0), BuildingBlock: CIFDUS_clean_linker_0, # of connection points: 2
#     Edge 29, Type (0, 0), BuildingBlock: CIFDUS_clean_linker_0, # of connection points: 2
#     Edge 30, Type (0, 0), BuildingBlock: CIFDUS_clean_linker_0, # of connection points: 2
#     Edge 31, Type (0, 0), BuildingBlock: CIFDUS_clean_linker_0, # of connection points: 2
#     Edge 32, Type (0, 0), BuildingBlock: CIFDUS_clean_linker_0, # of connection points: 2
#     Edge 33, Type (0, 0), BuildingBlock: CIFDUS_clean_linker_0, # of connection points: 2
#     Edge 34, Type (0, 0), BuildingBlock: CIFDUS_clean_linker_0, # of connection points: 2
#     Edge 35, Type (0, 0), BuildingBlock: CIFDUS_clean_linker_0, # of connection points: 2
# Relax obj value: 0.274
# Max RMSD: 0.293
# Mean RMSD: 0.282
data_MOF--net-wjf--node1-AZAVOO_clean_sbu_0--edge1-CIFDUS_clean_linker_0
_symmetry_space_group_name_H-M    P1
_symmetry_Int_Tables_number       1
_symmetry_cell_setting            triclinic
loop_
_symmetry_equiv_pos_as_xyz
'x, y, z'
_cell_length_a     43.764475
_cell_length_b     45.628123
_cell_length_c     23.074373
_cell_angle_alpha  90.451276
_cell_angle_beta   89.935333
_cell_angle_gamma 118.27036
loop_
_atom_site_label
_atom_site_type_symbol
_atom_site_fract_x
_atom_site_fract_y
_atom_site_fract_z
_atom_type_partial_charge
Mg0 Mg 0.33378 0.35996 0.07674 0.0
O1 O 0.34361 0.33417 -0.00141 0.0
O2 O 0.39165 0.33016 0.01628 0.0
Mg3 Mg 0.41382 0.35464 0.10364 0.0
C4 C 0.36599 0.32504 0.9838 0.0
C5 C 0.27221 0.36654 0.02444 0.0
O6 O 0.29743 0.39734 0.02347 0.0
O7 O 0.31591 0.31346 0.1326 0.0
O8 O 0.36667 0.31494 0.15151 0.0
O9 O 0.3667 0.41029 0.03791 0.0
O10 O 0.38714 0.38491 0.09459 0.0
C11 C 0.33388 0.3021 0.15843 0.0
C12 C 0.39303 0.4101 0.06292 0.0
O13 O 0.27844 0.34402 0.04453 0.0
Mg14 Mg 0.90803 0.32833 0.38353 0.0
O15 O 0.94185 0.32795 0.30869 0.0
O16 O -0.00257 0.36212 0.32902 0.0
Mg17 Mg -0.00102 0.38532 0.4178 0.0
C18 C 0.97389 0.34146 0.29528 0.0
C19 C 0.83656 0.28826 0.32863 0.0
O20 O 0.83624 0.31584 0.34436 0.0
O21 O 0.92413 0.29673 0.43986 0.0
O22 O 0.97826 0.33479 0.46265 0.0
O23 O 0.90392 0.37052 0.3447 0.0
O24 O 0.94514 0.37647 0.40655 0.0
C25 C 0.95254 0.30561 0.46747 0.0
C26 C 0.93172 0.38992 0.37324 0.0
O27 O 0.86254 0.28422 0.34175 0.0
Mg28 Mg 0.64338 0.9251 0.75462 0.0
O29 O 0.60478 0.9414 0.71829 0.0
O30 O 0.59721 0.9294 0.62381 0.0
Mg31 Mg 0.62649 0.90089 0.60105 0.0
C32 C 0.59157 0.94209 0.66935 0.0
C33 C 0.63595 0.96651 0.85404 0.0
O34 O 0.645 -0.01278 0.81035 0.0
O35 O 0.60113 0.87073 0.75898 0.0
O36 O 0.5937 0.85974 0.66385 0.0
O37 O 0.68644 0.97301 0.72222 0.0
O38 O 0.66304 0.92588 0.67221 0.0
C39 C 0.58614 0.85089 0.7165 0.0
C40 C 0.68357 0.95732 0.67385 0.0
O41 O 0.63213 0.93739 0.84545 0.0
Mg42 Mg 0.64935 0.59377 0.11906 0.0
O43 O 0.64545 0.61849 0.03594 0.0
O44 O 0.59732 0.62381 0.03976 0.0
Mg45 Mg 0.56916 0.60053 0.12378 0.0
C46 C 0.62492 0.62804 0.01405 0.0
C47 C 0.72138 0.59636 0.12673 0.0
O48 O 0.70622 0.57878 0.17291 0.0
O49 O 0.66454 0.64159 0.17091 0.0
O50 O 0.61351 0.64142 0.17662 0.0
O51 O 0.61974 0.54366 0.07837 0.0
O52 O 0.59513 0.56925 0.1257 0.0
C53 C 0.64571 0.65414 0.18949 0.0
C54 C 0.59173 0.5441 0.09512 0.0
O55 O 0.70534 0.60801 0.09679 0.0
Mg56 Mg 0.05058 0.64638 0.42689 0.0
O57 O 0.0219 0.64593 0.34481 0.0
O58 O 0.96583 0.60921 0.35173 0.0
Mg59 Mg 0.95902 0.58458 0.44008 0.0
C60 C 0.99134 0.6314 0.32375 0.0
C61 C 0.12257 0.69098 0.37767 0.0
O62 O 0.12481 0.664 0.38983 0.0
O63 O 0.02714 0.67438 0.47662 0.0
O64 O 0.97274 0.63378 0.48752 0.0
O65 O 0.06124 0.6073 0.39027 0.0
O66 O 0.01434 0.59677 0.44152 0.0
C67 C 0.99657 0.66354 0.49715 0.0
C68 C 0.03166 0.58591 0.41107 0.0
O69 O 0.09573 0.69307 0.39283 0.0
Mg70 Mg 0.42528 0.06218 0.74796 0.0
O71 O 0.46454 0.04272 0.73305 0.0
O72 O 0.4813 0.05289 0.64073 0.0
Mg73 Mg 0.45369 0.07835 0.59678 0.0
C74 C 0.48233 0.04122 0.6903 0.0
C75 C 0.39529 0.04557 0.86389 0.0
O76 O 0.3724 0.04746 0.82942 0.0
O77 O 0.46767 0.11639 0.75172 0.0
O78 O 0.47819 0.12365 0.65677 0.0
O79 O 0.38176 0.0139 0.71684 0.0
O80 O 0.41239 0.05717 0.66117 0.0
C81 C 0.48237 0.13521 0.70846 0.0
C82 C 0.38798 0.02716 0.66594 0.0
O83 O 0.42528 0.05364 0.84399 0.0
Mg84 Mg 0.58313 0.63983 0.57575 0.0
O85 O 0.61547 0.64637 0.65658 0.0
O86 O 0.64548 0.6185 0.64637 0.0
Mg87 Mg 0.63113 0.59273 0.55804 0.0
C88 C 0.63681 0.63713 0.6759 0.0
C89 C 0.54306 0.67878 0.60656 0.0
O90 O 0.51811 0.65364 0.5787 0.0
O91 O 0.63092 0.67495 0.52365 0.0
O92 O 0.65576 0.64247 0.51044 0.0
O93 O 0.5396 0.59496 0.61346 0.0
O94 O 0.58147 0.59422 0.56026 0.0
C95 C 0.6545 0.66946 0.50129 0.0
C96 C 0.55424 0.57851 0.59176 0.0
O97 O 0.57311 0.6811 0.60938 0.0
Mg98 Mg 0.94087 0.60435 0.87849 0.0
O99 O 0.96828 0.63001 0.96219 0.0
O100 O 0.0247 0.64533 0.956 0.0
Mg101 Mg 0.03339 0.62777 0.86754 0.0
C102 C -0.0013 0.64353 0.98393 0.0
C103 C 0.88219 0.59969 0.95785 0.0
O104 O 0.8964 0.58518 0.98857 0.0
O105 O 0.96426 0.65348 0.82925 0.0
O106 O 0.01899 0.66319 0.81913 0.0
O107 O 0.93134 0.5551 0.91349 0.0
O108 O 0.97844 0.58894 0.86514 0.0
C109 C 0.99479 0.67057 0.80878 0.0
C110 C 0.9617 0.56189 0.89396 0.0
O111 O 0.8941 0.61026 0.90758 0.0
Mg112 Mg 0.30784 0.92133 0.26749 0.0
O113 O 0.36506 0.93462 0.28182 0.0
O114 O 0.36999 0.91995 0.37197 0.0
Mg115 Mg 0.31671 0.89486 0.41313 0.0
C116 C 0.38333 0.93301 0.32353 0.0
C117 C 0.30201 0.9448 0.14754 0.0
O118 O 0.27561 0.94481 0.17471 0.0
O119 O 0.29161 0.86654 0.25452 0.0
O120 O 0.29633 0.853 0.34579 0.0
O121 O 0.31912 0.96998 0.30592 0.0
O122 O 0.30061 0.92349 0.35607 0.0
C123 C 0.28869 0.84521 0.29255 0.0
C124 C 0.31238 0.95523 0.35559 0.0
O125 O 0.31989 0.93361 0.17325 0.0
Mg126 Mg 0.4317 0.32285 0.54905 0.0
O127 O 0.39593 0.30883 0.62836 0.0
O128 O 0.3606 0.33105 0.616 0.0
Mg129 Mg 0.3744 0.36018 0.53183 0.0
C130 C 0.3712 0.31412 0.64561 0.0
C131 C 0.46294 0.28703 0.62344 0.0
O132 O 0.46204 0.30747 0.66297 0.0
O133 O 0.38823 0.28576 0.49059 0.0
O134 O 0.3576 0.31276 0.47713 0.0
O135 O 0.46975 0.36831 0.59401 0.0
O136 O 0.42713 0.36596 0.53926 0.0
C137 C 0.36342 0.28835 0.46624 0.0
C138 C 0.45295 0.38287 0.5735 0.0
O139 O 0.45045 0.28603 0.57325 0.0
Mg140 Mg 0.04235 0.38142 0.8571 0.0
O141 O 0.01627 0.35174 0.93855 0.0
O142 O 0.95913 0.332 0.92809 0.0
Mg143 Mg 0.94866 0.35114 0.84341 0.0
C144 C 0.98528 0.33506 0.95718 0.0
C145 C 0.09701 0.3581 0.9027 0.0
O146 O 0.06957 0.32924 0.9118 0.0
O147 O 0.02371 0.33455 0.80069 0.0
O148 O 0.96813 0.32145 0.78806 0.0
O149 O 0.04716 0.42758 0.89929 0.0
O150 O 0.00175 0.39318 0.84731 0.0
C151 C 0.99418 0.31694 0.77665 0.0
C152 C 0.01651 0.41949 0.87942 0.0
O153 O 0.09324 0.38171 0.88088 0.0
Mg154 Mg 0.66376 0.06099 0.28903 0.0
O155 O 0.60596 0.03723 0.3133 0.0
O156 O 0.60294 0.06073 0.3969 0.0
Mg157 Mg 0.65688 0.09866 0.42643 0.0
C158 C 0.58857 0.04022 0.35525 0.0
C159 C 0.63543 0.00753 0.19021 0.0
O160 O 0.62868 -0.01203 0.23521 0.0
O161 O 0.66478 0.10904 0.26113 0.0
O162 O 0.66575 0.13175 0.34771 0.0
O163 O 0.67101 0.0237 0.34119 0.0
O164 O 0.6786 0.07189 0.37587 0.0
C165 C 0.66769 0.13341 0.2925 0.0
C166 C 0.67843 0.04406 0.38473 0.0
O167 O 0.64918 0.0388 0.19831 0.0
H168 H 0.35725 0.26265 0.20819 0.0
H169 H 0.27764 0.29252 0.22341 0.0
H170 H 0.27229 0.2801 0.32653 0.0
H171 H 0.30371 0.27886 0.41386 0.0
H172 H 0.38656 0.25333 0.39876 0.0
H173 H 0.37633 0.24477 0.2948 0.0
C174 C 0.33768 0.26509 0.23362 0.0
C175 C 0.31899 0.27988 0.20879 0.0
C176 C 0.33593 0.25941 0.29351 0.0
C177 C 0.29294 0.28188 0.24164 0.0
C178 C 0.29017 0.27515 0.30097 0.0
C179 C 0.3186 0.2701 0.38819 0.0
C180 C 0.34689 0.26824 0.41356 0.0
C181 C 0.31363 0.26671 0.32792 0.0
C182 C 0.36515 0.25576 0.38022 0.0
C183 C 0.35957 0.2512 0.32045 0.0
H184 H 0.00917 0.30689 0.51812 0.0
H185 H 0.89765 0.26046 0.53043 0.0
H186 H 0.90089 0.25008 0.63309 0.0
H187 H 0.93601 0.27063 0.72174 0.0
H188 H 0.04771 0.32092 0.70967 0.0
H189 H 0.04378 0.31216 0.60515 0.0
C190 C 0.9855 0.29322 0.54274 0.0
C191 C 0.95334 0.28568 0.51728 0.0
C192 C 0.98766 0.28869 0.60242 0.0
C193 C 0.92282 0.26713 0.54912 0.0
C194 C 0.92468 0.26154 0.6082 0.0
C195 C 0.95952 0.27848 0.69655 0.0
C196 C 0.99207 0.2978 0.72314 0.0
C197 C 0.95707 0.27474 0.63599 0.0
C198 C 0.02226 0.30673 0.69029 0.0
C199 C 0.02004 0.30207 0.63019 0.0
H200 H 0.61881 0.93079 0.95402 0.0
H201 H 0.64685 0.02827 0.88653 0.0
H202 H 0.64723 0.04902 0.98429 0.0
H203 H 0.64316 0.04053 0.08923 0.0
H204 H 0.61526 0.94324 0.15732 0.0
H205 H 0.61102 0.9214 0.05902 0.0
C206 C 0.62476 0.9565 0.96064 0.0
C207 C 0.63314 0.97799 0.913 0.0
C208 C 0.6251 0.96839 0.01711 0.0
C209 C 0.64052 0.01119 0.92237 0.0
C210 C 0.64079 0.02314 0.97832 0.0
C211 C 0.63593 0.01449 0.08263 0.0
C212 C 0.62988 -0.00634 0.13062 0.0
C213 C 0.6337 0.00212 0.02606 0.0
C214 C 0.62021 0.95989 0.12119 0.0
C215 C 0.61785 0.94737 0.06496 0.0
H216 H 0.70203 0.67062 0.25875 0.0
H217 H 0.61813 0.69319 0.22898 0.0
H218 H 0.62256 0.71287 0.32856 0.0
H219 H 0.6364 0.70494 0.42805 0.0
H220 H 0.71601 0.67669 0.45892 0.0
H221 H 0.72832 0.6796 0.35548 0.0
C222 C 0.68571 0.68117 0.27323 0.0
C223 C 0.65869 0.67895 0.23738 0.0
C224 C 0.68724 0.69091 0.33152 0.0
C225 C 0.63839 0.69355 0.25639 0.0
C226 C 0.64078 0.70467 0.31355 0.0
C227 C 0.65766 0.7011 0.41256 0.0
C228 C 0.67414 0.68906 0.45064 0.0
C229 C 0.66299 0.70066 0.35259 0.0
C230 C 0.70222 0.68503 0.43009 0.0
C231 C 0.70896 0.68625 0.37074 0.0
H232 H 0.94568 0.67037 0.73653 0.0
H233 H 0.05608 0.71983 0.76722 0.0
H234 H 0.06669 0.73235 0.66444 0.0
H235 H 0.04488 0.7115 0.56669 0.0
H236 H 0.93453 0.65638 0.53666 0.0
H237 H 0.92362 0.66479 0.63739 0.0
C238 C 0.97203 0.68531 0.72128 0.0
C239 C 8e-05 0.69274 0.75892 0.0
C240 C 0.97796 0.69054 0.66149 0.0
C241 C 0.03402 0.71288 0.7387 0.0
C242 C 0.04012 0.71974 0.67968 0.0
C243 C 0.01844 0.70266 0.58141 0.0
C244 C 0.99058 0.68205 0.545 0.0
C245 C 0.01237 0.70592 0.64033 0.0
C246 C 0.95648 0.67146 0.56441 0.0
C247 C 0.9502 0.67603 0.62225 0.0
H248 H 0.36563 0.96776 0.09905 0.0
H249 H 0.26508 0.96148 0.0721 0.0
H250 H 0.28585 -0.00631 0.98325 0.0
H251 H 0.33236 0.02353 0.91382 0.0
H252 H 0.43327 0.03064 0.94108 0.0
H253 H 0.41264 -0.00137 0.03024 0.0
C254 C 0.34815 0.97316 0.07343 0.0
C255 C 0.31379 0.96205 0.09177 0.0
C256 C 0.36044 -0.00782 0.02309 0.0
C257 C 0.29161 0.96967 0.05869 0.0
C258 C 0.3035 -0.01182 0.00807 0.0
C259 C 0.34998 0.01831 0.9394 0.0
C260 C 0.38429 0.02941 0.9208 0.0
C261 C 0.33788 -0.00032 0.99009 0.0
C262 C 0.40676 0.02246 0.95454 0.0
C263 C 0.39493 0.00399 0.0053 0.0
H264 H 0.11547 0.31378 0.94976 0.0
H265 H 0.15766 0.41607 0.89586 0.0
H266 H 0.21511 0.42727 0.92813 0.0
H267 H 0.25333 0.40874 0.97315 0.0
H268 H 0.21235 0.30668 0.02706 0.0
H269 H 0.15458 0.29473 0.99313 0.0
C270 C 0.13725 0.33848 0.94488 0.0
C271 C 0.13209 0.36402 0.92046 0.0
C272 C 0.17047 0.34486 0.96362 0.0
C273 C 0.16071 0.39588 0.91442 0.0
C274 C 0.19367 0.40237 0.93296 0.0
C275 C 0.23183 0.38383 0.97752 0.0
C276 C 0.23721 0.3587 0.00288 0.0
C277 C 0.19881 0.37715 0.95789 0.0
C278 C 0.20898 0.32654 0.0078 0.0
C279 C 0.17591 0.31969 0.98843 0.0
H280 H 0.77012 0.27735 0.33116 0.0
H281 H 0.83587 0.24022 0.25733 0.0
H282 H 0.78509 0.19195 0.21773 0.0
H283 H 0.72301 0.1552 0.22388 0.0
H284 H 0.6579 0.1874 0.31447 0.0
H285 H 0.70673 0.24353 0.32401 0.0
C286 C 0.77329 0.25899 0.30539 0.0
C287 C 0.80647 0.26178 0.29825 0.0
C288 C 0.74389 0.23058 0.28512 0.0
C289 C 0.81042 0.23806 0.26453 0.0
C290 C 0.78143 0.21062 0.24158 0.0
C291 C 0.71908 0.17495 0.24307 0.0
C292 C 0.68717 0.16719 0.26925 0.0
C293 C 0.74803 0.20583 0.25413 0.0
C294 C 0.68234 0.1929 0.29411 0.0
C295 C 0.71048 0.22474 0.30077 0.0
H296 H 0.53076 0.80676 0.6553 0.0
H297 H 0.59882 0.81436 0.79609 0.0
H298 H 0.58706 0.75713 0.77837 0.0
H299 H 0.56953 0.71141 0.70719 0.0
H300 H 0.50252 0.70426 0.56489 0.0
H301 H 0.50177 0.75494 0.59848 0.0
C302 C 0.54168 0.79527 0.68376 0.0
C303 C 0.56623 0.81481 0.72593 0.0
C304 C 0.53604 0.76297 0.67152 0.0
C305 C 0.57994 0.79978 0.7632 0.0
C306 C 0.57376 0.76726 0.75229 0.0
C307 C 0.55423 0.72068 0.68434 0.0
C308 C 0.53698 0.70501 0.63279 0.0
C309 C 0.55391 0.74967 0.70397 0.0
C310 C 0.5164 0.7164 0.60422 0.0
C311 C 0.51599 0.74531 0.6234 0.0
H312 H 0.75267 0.61932 0.02247 0.0
H313 H 0.76428 0.57823 0.1838 0.0
H314 H 0.81565 0.57671 0.14623 0.0
H315 H 0.85537 0.58422 0.06616 0.0
H316 H 0.84342 0.62425 0.90394 0.0
H317 H 0.79405 0.62899 0.9434 0.0
C318 C 0.76664 0.61037 0.04968 0.0
C319 C 0.75451 0.59878 0.10584 0.0
C320 C 0.79591 0.60907 0.02748 0.0
C321 C 0.77292 0.58718 0.14037 0.0
C322 C 0.80228 0.58622 0.11887 0.0
C323 C 0.84202 0.59402 0.03934 0.0
C324 C 0.85291 0.60357 0.98196 0.0
C325 C 0.81364 0.59657 0.06219 0.0
C326 C 0.83549 0.61654 0.94813 0.0
C327 C 0.80726 0.61928 0.97068 0.0
H328 H 0.18944 0.70392 0.36687 0.0
H329 H 0.11698 0.73741 0.31198 0.0
H330 H 0.16331 0.78414 0.26147 0.0
H331 H 0.22523 0.82037 0.24866 0.0
H332 H 0.2987 0.7921 0.31799 0.0
H333 H 0.25135 0.73746 0.34389 0.0
C334 C 0.18379 0.72125 0.34321 0.0
C335 C 0.15014 0.71779 0.34416 0.0
C336 C 0.21078 0.74867 0.31598 0.0
C337 C 0.14296 0.74015 0.31305 0.0
C338 C 0.16934 0.76666 0.28373 0.0
C339 C 0.23088 0.80157 0.2668 0.0
C340 C 0.26518 0.80994 0.28126 0.0
C341 C 0.20352 0.77182 0.28676 0.0
C342 C 0.27238 0.78585 0.30596 0.0
C343 C 0.24528 0.75497 0.32188 0.0
H344 H 0.51543 0.18179 0.62685 0.0
H345 H 0.4768 0.17042 0.80186 0.0
H346 H 0.47262 0.22173 0.79309 0.0
H347 H 0.46614 0.26122 0.72774 0.0
H348 H 0.49566 0.26549 0.54828 0.0
H349 H 0.51622 0.22516 0.56601 0.0
C350 C 0.50698 0.19095 0.66377 0.0
C351 C 0.49518 0.17156 0.7141 0.0
C352 C 0.50161 0.21858 0.65662 0.0
C353 C 0.4855 0.18447 0.76214 0.0
C354 C 0.48248 0.21354 0.75677 0.0
C355 C 0.47763 0.25366 0.69291 0.0
C356 C 0.47876 0.26565 0.63655 0.0
C357 C 0.48809 0.22936 0.7029 0.0
C358 C 0.49382 0.25593 0.5917 0.0
C359 C 0.50579 0.23308 0.6019 0.0
H360 H 0.39981 0.29562 0.73331 0.0
H361 H 0.31393 0.31385 0.69343 0.0
H362 H 0.30132 0.31371 0.79637 0.0
H363 H 0.32072 0.31787 0.897 0.0
H364 H 0.40858 0.3026 0.93665 0.0
H365 H 0.41395 0.2917 0.83465 0.0
C366 C 0.37778 0.29871 0.74695 0.0
C367 C 0.35831 0.30541 0.70569 0.0
C368 C 0.37132 0.29968 0.80635 0.0
C369 C 0.32971 0.30915 0.72428 0.0
C370 C 0.32254 0.30922 0.78322 0.0
C371 C 0.34065 0.31153 0.88362 0.0
C372 C 0.36466 0.31182 0.92442 0.0
C373 C 0.34417 0.30605 0.82463 0.0
C374 C 0.39003 0.30311 0.90618 0.0
C375 C 0.3932 0.29691 0.84774 0.0
H376 H 0.9308 0.30158 0.21049 0.0
H377 H 0.03871 0.36877 0.24689 0.0
H378 H 0.05282 0.36765 0.14489 0.0
H379 H 0.03305 0.35484 0.04403 0.0
H380 H 0.92452 0.29053 0.00751 0.0
H381 H 0.91235 0.2828 0.11103 0.0
C382 C 0.95754 0.31558 0.19644 0.0
C383 C 0.9835 0.3358 0.23623 0.0
C384 C 0.96536 0.31553 0.13751 0.0
C385 C 0.01807 0.35334 0.21718 0.0
C386 C 0.02619 0.35278 0.15875 0.0
C387 C 0.00687 0.33843 0.0586 0.0
C388 C 0.97964 0.32376 0.01805 0.0
C389 C -0.00018 0.33503 0.11824 0.0
C390 C 0.9459 0.30249 0.0378 0.0
C391 C 0.93887 0.29816 0.09703 0.0
H392 H 0.69275 0.01883 0.64836 0.0
H393 H 0.69774 0.934 0.57493 0.0
H394 H 0.69825 0.9544 0.47734 0.0
H395 H 0.68901 -0.00789 0.41343 0.0
H396 H 0.68502 0.07749 0.4869 0.0
H397 H 0.692 0.06095 0.58372 0.0
C398 C 0.69517 0.00547 0.61104 0.0
C399 C 0.69485 0.97487 0.61851 0.0
C400 C 0.69447 0.01685 0.55504 0.0
C401 C 0.69774 0.95759 0.56991 0.0
C402 C 0.69768 0.96904 0.51416 0.0
C403 C 0.6898 0.00716 0.4506 0.0
C404 C 0.68518 0.03529 0.443 0.0
C405 C 0.69451 -0.00214 0.50624 0.0
C406 C 0.68731 0.05509 0.49144 0.0
C407 C 0.69166 0.04584 0.547 0.0
H408 H 0.61254 0.6639 0.7576 0.0
H409 H 0.68433 0.6248 0.73306 0.0
H410 H 0.69126 0.62374 0.83781 0.0
H411 H 0.6695 0.62507 0.9351 0.0
H412 H 0.59418 0.65999 0.95862 0.0
H413 H 0.59641 0.67184 0.85539 0.0
C414 C 0.63031 0.65579 0.77496 0.0
C415 C 0.64734 0.6438 0.73749 0.0
C416 C 0.63315 0.65404 0.83512 0.0
C417 C 0.6705 0.63372 0.76091 0.0
C418 C 0.67438 0.63297 0.82084 0.0
C419 C 0.65408 0.6359 0.91793 0.0
C420 C 0.63121 0.64104 0.95434 0.0
C421 C 0.65464 0.64166 0.85826 0.0
C422 C 0.61159 0.65528 0.93138 0.0
C423 C 0.61282 0.66205 0.87233 0.0
H424 H 0.04125 0.66738 0.24548 0.0
H425 H 0.93007 0.61036 0.26491 0.0
H426 H 0.92251 0.61422 0.16093 0.0
H427 H 0.94778 0.62707 0.06399 0.0
H428 H 0.05913 0.67999 0.04406 0.0
H429 H 0.06623 0.68502 0.14919 0.0
C430 C 0.01528 0.65622 0.22727 0.0
C431 C 0.98628 0.63815 0.26289 0.0
C432 C 0.01118 0.65763 0.16733 0.0
C433 C 0.95286 0.62406 0.23843 0.0
C434 C 0.94852 0.62622 0.17896 0.0
C435 C 0.97362 0.64028 0.08244 0.0
C436 C 0.0029 0.65269 0.04614 0.0
C437 C 0.97755 0.64194 0.14283 0.0
C438 C 0.03616 0.66987 0.07099 0.0
C439 C 0.04025 0.67265 0.13111 0.0
H440 H 0.29879 0.93125 0.46484 0.0
H441 H 0.35173 0.02243 0.3682 0.0
H442 H 0.37845 0.05291 0.45735 0.0
H443 H 0.39047 0.05264 0.56023 0.0
H444 H 0.3408 0.96106 0.65645 0.0
H445 H 0.3094 0.93134 0.56903 0.0
C446 C 0.31628 0.95776 0.46318 0.0
C447 C 0.32396 0.97444 0.4099 0.0
C448 C 0.33244 0.97483 0.51411 0.0
C449 C 0.34563 0.009 0.40868 0.0
C450 C 0.3611 0.02638 0.45951 0.0
C451 C 0.37298 0.02612 0.56215 0.0
C452 C 0.36842 0.00888 0.61432 0.0
C453 C 0.35541 0.00934 0.51202 0.0
C454 C 0.34497 0.97474 0.6165 0.0
C455 C 0.327 0.95781 0.56668 0.0
H456 H 0.45442 0.40878 0.06297 0.0
H457 H 0.41034 0.47538 0.0531 0.0
H458 H 0.46833 0.52336 0.06024 0.0
H459 H 0.53118 0.54605 0.07697 0.0
H460 H 0.57526 0.47928 0.08179 0.0
H461 H 0.51768 0.43161 0.06876 0.0
C462 C 0.45755 0.43378 0.06209 0.0
C463 C 0.42821 0.4386 0.05849 0.0
C464 C 0.49092 0.46116 0.06568 0.0
C465 C 0.43264 0.47112 0.05586 0.0
C466 C 0.46573 0.49853 0.06033 0.0
C467 C 0.52814 0.52109 0.075 0.0
C468 C 0.55727 0.51609 0.08133 0.0
C469 C 0.495 0.49382 0.06656 0.0
C470 C 0.55314 0.48369 0.07719 0.0
C471 C 0.52024 0.45642 0.06994 0.0
H472 H 0.96575 0.53985 0.38564 0.0
H473 H 0.069 0.55288 0.41128 0.0
H474 H 0.04754 0.49299 0.3994 0.0
H475 H -0.00117 0.43682 0.38668 0.0
H476 H 0.89613 0.42402 0.35503 0.0
H477 H 0.91793 0.48408 0.36349 0.0
C478 C 0.9834 0.52944 0.38869 0.0
C479 C 0.01863 0.5503 0.40032 0.0
C480 C 0.97103 0.49521 0.38051 0.0
C481 C 0.04166 0.53698 0.40258 0.0
C482 C 0.02943 0.50284 0.39591 0.0
C483 C 0.98133 0.44723 0.38136 0.0
C484 C 0.94597 0.42619 0.37103 0.0
C485 C 0.9941 0.4817 0.3856 0.0
C486 C 0.92356 0.43991 0.36295 0.0
C487 C 0.93593 0.47416 0.36814 0.0
H488 H 0.56725 0.96619 0.75681 0.0
H489 H 0.56885 0.95788 0.57026 0.0
H490 H 0.53627 -0.01152 0.56075 0.0
H491 H 0.50747 0.01766 0.60471 0.0
H492 H 0.50382 0.02493 0.79099 0.0
H493 H 0.53721 -0.00521 0.80111 0.0
C494 C 0.56041 0.97099 0.71407 0.0
C495 C 0.57052 0.95962 0.66438 0.0
C496 C 0.54145 -0.01144 0.70876 0.0
C497 C 0.56132 0.96608 0.60935 0.0
C498 C 0.54276 0.98373 0.60377 0.0
C499 C 0.51413 0.01289 0.64762 0.0
C500 C 0.50334 0.02378 0.69702 0.0
C501 C 0.53279 -0.00485 0.65312 0.0
C502 C 0.51183 0.01689 0.75222 0.0
C503 C 0.5309 -0.00037 0.75804 0.0
H504 H 0.48693 0.53286 0.58798 0.0
H505 H 0.58945 0.54452 0.61606 0.0
H506 H 0.56588 0.48413 0.6199 0.0
H507 H 0.51711 0.42847 0.60576 0.0
H508 H 0.41535 0.41661 0.56795 0.0
H509 H 0.43739 0.47664 0.57795 0.0
C510 C 0.50389 0.52203 0.59589 0.0
C511 C 0.53975 0.54273 0.60134 0.0
C512 C 0.49029 0.48737 0.59586 0.0
C513 C 0.56178 0.5288 0.61091 0.0
C514 C 0.54831 0.49437 0.61326 0.0
C515 C 0.49963 0.43897 0.60063 0.0
C516 C 0.46472 0.41827 0.58595 0.0
C517 C 0.51276 0.47346 0.60429 0.0
C518 C 0.4424 0.43214 0.5788 0.0
C519 C 0.45499 0.46643 0.58453 0.0
H520 H 0.92732 0.49469 0.892 0.0
H521 H 0.02911 0.57832 0.91556 0.0
H522 H 0.0546 0.54093 0.9192 0.0
H523 H 0.04853 0.48494 0.9073 0.0
H524 H 0.94735 0.40169 0.87572 0.0
H525 H 0.92096 0.43819 0.88411 0.0
C526 C 0.955 0.50458 0.89881 0.0
C527 C 0.97641 0.53915 0.90303 0.0
C528 C 0.96957 0.48297 0.89901 0.0
C529 C 0.01224 0.55183 0.91124 0.0
C530 C 0.02679 0.53044 0.91352 0.0
C531 C 0.02064 0.47471 0.90311 0.0
C532 C -5e-05 0.44067 0.8907 0.0
C533 C 0.00581 0.49604 0.90611 0.0
C534 C 0.96391 0.42782 0.88479 0.0
C535 C 0.94878 0.4487 0.88962 0.0
H536 H 0.54339 0.01231 0.26481 0.0
H537 H 0.54885 0.01929 0.4516 0.0
H538 H 0.48627 0.98459 0.45783 0.0
H539 H 0.42996 0.95446 0.41091 0.0
H540 H 0.42255 0.95003 0.22427 0.0
H541 H 0.48593 0.98139 0.21723 0.0
C542 C 0.5308 0.00602 0.30676 0.0
C543 C 0.55068 0.01846 0.35762 0.0
C544 C 0.49452 -0.01342 0.31008 0.0
C545 C 0.53409 0.01034 0.41177 0.0
C546 C 0.49831 -0.00961 0.41543 0.0
C547 C 0.44214 0.95993 0.36858 0.0
C548 C 0.42157 0.94972 0.31819 0.0
C549 C 0.47827 0.97868 0.36493 0.0
C550 C 0.43783 0.95758 0.26374 0.0
C551 C 0.47404 0.97554 0.25971 0.0
loop_
_geom_bond_atom_site_label_1
_geom_bond_atom_site_label_2
_geom_bond_distance
_geom_bond_site_symmetry_2
_ccdc_geom_bond_type
Mg0 O1 2.028 . S
Mg0 O7 1.986 . S
Mg0 O9 2.114 . S
Mg0 O10 2.251 . S
Mg0 O13 2.010 . S
O1 Mg0 2.028 . S
O1 C4 1.250 1_554 S
O2 Mg3 2.028 . S
O2 C4 1.248 1_554 S
Mg3 O2 2.028 . S
Mg3 O8 2.032 . S
Mg3 O10 2.079 . S
C4 O1 1.250 1_556 S
C4 O2 1.248 1_556 S
C5 O6 1.264 . S
C5 O13 1.249 . S
O6 C5 1.264 . S
O7 Mg0 1.986 . S
O7 C11 1.246 . S
O8 Mg3 2.032 . S
O8 C11 1.259 . S
O9 Mg0 2.114 . S
O9 C12 1.252 . S
O10 Mg0 2.251 . S
O10 Mg3 2.079 . S
O10 C12 1.273 . S
C11 O7 1.246 . S
C11 O8 1.259 . S
C12 O9 1.252 . S
C12 O10 1.273 . S
O13 Mg0 2.010 . S
O13 C5 1.249 . S
Mg14 O15 2.028 . S
Mg14 O21 1.986 . S
Mg14 O23 2.114 . S
Mg14 O24 2.251 . S
Mg14 O27 2.010 . S
O15 Mg14 2.028 . S
O15 C18 1.250 . S
O16 Mg17 2.028 . S
O16 C18 1.248 1_455 S
Mg17 O16 2.028 . S
Mg17 O22 2.032 . S
Mg17 O24 2.079 1_455 S
C18 O15 1.250 . S
C18 O16 1.248 1_655 S
C19 O20 1.264 . S
C19 O27 1.249 . S
O20 C19 1.264 . S
O21 Mg14 1.986 . S
O21 C25 1.246 . S
O22 Mg17 2.032 . S
O22 C25 1.259 1_455 S
O23 Mg14 2.114 . S
O23 C26 1.252 . S
O24 Mg14 2.251 . S
O24 Mg17 2.079 1_655 S
O24 C26 1.273 . S
C25 O21 1.246 . S
C25 O22 1.259 1_655 S
C26 O23 1.252 . S
C26 O24 1.273 . S
O27 Mg14 2.010 . S
O27 C19 1.249 . S
Mg28 O29 2.028 . S
Mg28 O35 1.986 . S
Mg28 O37 2.114 1_565 S
Mg28 O38 2.251 . S
Mg28 O41 2.010 . S
O29 Mg28 2.028 . S
O29 C32 1.250 . S
O30 Mg31 2.028 . S
O30 C32 1.248 . S
Mg31 O30 2.028 . S
Mg31 O36 2.032 . S
Mg31 O38 2.079 . S
C32 O29 1.250 . S
C32 O30 1.248 . S
C33 O34 1.264 . S
C33 O41 1.249 . S
O34 C33 1.264 . S
O35 Mg28 1.986 . S
O35 C39 1.246 . S
O36 Mg31 2.032 . S
O36 C39 1.259 . S
O37 Mg28 2.114 1_545 S
O37 C40 1.252 1_545 S
O38 Mg28 2.251 . S
O38 Mg31 2.079 . S
O38 C40 1.273 . S
C39 O35 1.246 . S
C39 O36 1.259 . S
C40 O37 1.252 1_565 S
C40 O38 1.273 . S
O41 Mg28 2.010 . S
O41 C33 1.249 . S
Mg42 O43 2.028 . S
Mg42 O49 1.986 . S
Mg42 O51 2.114 . S
Mg42 O52 2.251 . S
Mg42 O55 2.010 . S
O43 Mg42 2.028 . S
O43 C46 1.250 1_554 S
O44 Mg45 2.028 . S
O44 C46 1.248 1_554 S
Mg45 O44 2.028 . S
Mg45 O50 2.032 . S
Mg45 O52 2.079 . S
C46 O43 1.250 1_556 S
C46 O44 1.248 1_556 S
C47 O48 1.264 . S
C47 O55 1.249 . S
O48 C47 1.264 . S
O49 Mg42 1.986 . S
O49 C53 1.246 . S
O50 Mg45 2.032 . S
O50 C53 1.259 . S
O51 Mg42 2.114 . S
O51 C54 1.252 . S
O52 Mg42 2.251 . S
O52 Mg45 2.079 . S
O52 C54 1.273 . S
C53 O49 1.246 . S
C53 O50 1.259 . S
C54 O51 1.252 . S
C54 O52 1.273 . S
O55 Mg42 2.010 . S
O55 C47 1.249 . S
Mg56 O57 2.028 . S
Mg56 O63 1.986 . S
Mg56 O65 2.114 . S
Mg56 O66 2.251 . S
Mg56 O69 2.010 . S
O57 Mg56 2.028 . S
O57 C60 1.250 . S
O58 Mg59 2.028 . S
O58 C60 1.248 1_655 S
Mg59 O58 2.028 . S
Mg59 O64 2.032 . S
Mg59 O66 2.079 1_655 S
C60 O57 1.250 . S
C60 O58 1.248 1_455 S
C61 O62 1.264 . S
C61 O69 1.249 . S
O62 C61 1.264 . S
O63 Mg56 1.986 . S
O63 C67 1.246 . S
O64 Mg59 2.032 . S
O64 C67 1.259 1_655 S
O65 Mg56 2.114 . S
O65 C68 1.252 . S
O66 Mg56 2.251 . S
O66 Mg59 2.079 1_455 S
O66 C68 1.273 . S
C67 O63 1.246 . S
C67 O64 1.259 1_455 S
C68 O65 1.252 . S
C68 O66 1.273 . S
O69 Mg56 2.010 . S
O69 C61 1.249 . S
Mg70 O71 2.028 . S
Mg70 O77 1.986 . S
Mg70 O79 2.114 1_545 S
Mg70 O80 2.251 . S
Mg70 O83 2.010 . S
O71 Mg70 2.028 . S
O71 C74 1.250 . S
O72 Mg73 2.028 . S
O72 C74 1.248 . S
Mg73 O72 2.028 . S
Mg73 O78 2.032 . S
Mg73 O80 2.079 . S
C74 O71 1.250 . S
C74 O72 1.248 . S
C75 O76 1.264 . S
C75 O83 1.249 . S
O76 C75 1.264 . S
O77 Mg70 1.986 . S
O77 C81 1.246 . S
O78 Mg73 2.032 . S
O78 C81 1.259 . S
O79 Mg70 2.114 1_565 S
O79 C82 1.252 1_565 S
O80 Mg70 2.251 . S
O80 Mg73 2.079 . S
O80 C82 1.273 . S
C81 O77 1.246 . S
C81 O78 1.259 . S
C82 O79 1.252 1_545 S
C82 O80 1.273 . S
O83 Mg70 2.010 . S
O83 C75 1.249 . S
Mg84 O85 2.028 . S
Mg84 O91 1.986 . S
Mg84 O93 2.114 . S
Mg84 O94 2.251 . S
Mg84 O97 2.010 . S
O85 Mg84 2.028 . S
O85 C88 1.250 . S
O86 Mg87 2.028 . S
O86 C88 1.248 . S
Mg87 O86 2.028 . S
Mg87 O92 2.032 . S
Mg87 O94 2.079 . S
C88 O85 1.250 . S
C88 O86 1.248 . S
C89 O90 1.264 . S
C89 O97 1.249 . S
O90 C89 1.264 . S
O91 Mg84 1.986 . S
O91 C95 1.246 . S
O92 Mg87 2.032 . S
O92 C95 1.259 . S
O93 Mg84 2.114 . S
O93 C96 1.252 . S
O94 Mg84 2.251 . S
O94 Mg87 2.079 . S
O94 C96 1.273 . S
C95 O91 1.246 . S
C95 O92 1.259 . S
C96 O93 1.252 . S
C96 O94 1.273 . S
O97 Mg84 2.010 . S
O97 C89 1.249 . S
Mg98 O99 2.028 . S
Mg98 O105 1.986 . S
Mg98 O107 2.114 . S
Mg98 O108 2.251 . S
Mg98 O111 2.010 . S
O99 Mg98 2.028 . S
O99 C102 1.250 1_656 S
O100 Mg101 2.028 . S
O100 C102 1.248 1_556 S
Mg101 O100 2.028 . S
Mg101 O106 2.032 . S
Mg101 O108 2.079 1_455 S
C102 O99 1.250 1_454 S
C102 O100 1.248 1_554 S
C103 O104 1.264 . S
C103 O111 1.249 . S
O104 C103 1.264 . S
O105 Mg98 1.986 . S
O105 C109 1.246 1_655 S
O106 Mg101 2.032 . S
O106 C109 1.259 . S
O107 Mg98 2.114 . S
O107 C110 1.252 . S
O108 Mg98 2.251 . S
O108 Mg101 2.079 1_655 S
O108 C110 1.273 . S
C109 O105 1.246 1_455 S
C109 O106 1.259 . S
C110 O107 1.252 . S
C110 O108 1.273 . S
O111 Mg98 2.010 . S
O111 C103 1.249 . S
Mg112 O113 2.028 . S
Mg112 O119 1.986 . S
Mg112 O121 2.114 1_565 S
Mg112 O122 2.251 . S
Mg112 O125 2.010 . S
O113 Mg112 2.028 . S
O113 C116 1.250 . S
O114 Mg115 2.028 . S
O114 C116 1.248 . S
Mg115 O114 2.028 . S
Mg115 O120 2.032 . S
Mg115 O122 2.079 . S
C116 O113 1.250 . S
C116 O114 1.248 . S
C117 O118 1.264 . S
C117 O125 1.249 . S
O118 C117 1.264 . S
O119 Mg112 1.986 . S
O119 C123 1.246 . S
O120 Mg115 2.032 . S
O120 C123 1.259 . S
O121 Mg112 2.114 1_545 S
O121 C124 1.252 1_545 S
O122 Mg112 2.251 . S
O122 Mg115 2.079 . S
O122 C124 1.273 . S
C123 O119 1.246 . S
C123 O120 1.259 . S
C124 O121 1.252 1_565 S
C124 O122 1.273 . S
O125 Mg112 2.010 . S
O125 C117 1.249 . S
Mg126 O127 2.028 . S
Mg126 O133 1.986 . S
Mg126 O135 2.114 . S
Mg126 O136 2.251 . S
Mg126 O139 2.010 . S
O127 Mg126 2.028 . S
O127 C130 1.250 . S
O128 Mg129 2.028 . S
O128 C130 1.248 . S
Mg129 O128 2.028 . S
Mg129 O134 2.032 . S
Mg129 O136 2.079 . S
C130 O127 1.250 . S
C130 O128 1.248 . S
C131 O132 1.264 . S
C131 O139 1.249 . S
O132 C131 1.264 . S
O133 Mg126 1.986 . S
O133 C137 1.246 . S
O134 Mg129 2.032 . S
O134 C137 1.259 . S
O135 Mg126 2.114 . S
O135 C138 1.252 . S
O136 Mg126 2.251 . S
O136 Mg129 2.079 . S
O136 C138 1.273 . S
C137 O133 1.246 . S
C137 O134 1.259 . S
C138 O135 1.252 . S
C138 O136 1.273 . S
O139 Mg126 2.010 . S
O139 C131 1.249 . S
Mg140 O141 2.028 . S
Mg140 O147 1.986 . S
Mg140 O149 2.114 . S
Mg140 O150 2.251 . S
Mg140 O153 2.010 . S
O141 Mg140 2.028 . S
O141 C144 1.250 1_456 S
O142 Mg143 2.028 . S
O142 C144 1.248 1_556 S
Mg143 O142 2.028 . S
Mg143 O148 2.032 . S
Mg143 O150 2.079 1_655 S
C144 O141 1.250 1_654 S
C144 O142 1.248 1_554 S
C145 O146 1.264 . S
C145 O153 1.249 . S
O146 C145 1.264 . S
O147 Mg140 1.986 . S
O147 C151 1.246 1_455 S
O148 Mg143 2.032 . S
O148 C151 1.259 . S
O149 Mg140 2.114 . S
O149 C152 1.252 . S
O150 Mg140 2.251 . S
O150 Mg143 2.079 1_455 S
O150 C152 1.273 . S
C151 O147 1.246 1_655 S
C151 O148 1.259 . S
C152 O149 1.252 . S
C152 O150 1.273 . S
O153 Mg140 2.010 . S
O153 C145 1.249 . S
Mg154 O155 2.028 . S
Mg154 O161 1.986 . S
Mg154 O163 2.114 1_545 S
Mg154 O164 2.251 . S
Mg154 O167 2.010 . S
O155 Mg154 2.028 . S
O155 C158 1.250 . S
O156 Mg157 2.028 . S
O156 C158 1.248 . S
Mg157 O156 2.028 . S
Mg157 O162 2.032 . S
Mg157 O164 2.079 . S
C158 O155 1.250 . S
C158 O156 1.248 . S
C159 O160 1.264 . S
C159 O167 1.249 . S
O160 C159 1.264 . S
O161 Mg154 1.986 . S
O161 C165 1.246 . S
O162 Mg157 2.032 . S
O162 C165 1.259 . S
O163 Mg154 2.114 1_565 S
O163 C166 1.252 1_565 S
O164 Mg154 2.251 . S
O164 Mg157 2.079 . S
O164 C166 1.273 . S
C165 O161 1.246 . S
C165 O162 1.259 . S
C166 O163 1.252 1_545 S
C166 O164 1.273 . S
O167 Mg154 2.010 . S
O167 C159 1.249 . S
H168 C174 0.930 . S
H169 C177 0.930 . S
H170 C178 0.930 . S
H171 C179 0.930 . S
H172 C182 0.930 . S
H173 C183 0.930 . S
C174 H168 0.930 . S
C174 C175 1.355 . S
C174 C176 1.415 . S
C175 C174 1.355 . S
C175 C177 1.419 . S
C176 C174 1.415 . S
C176 C181 1.425 . S
C176 C183 1.409 . S
C177 H169 0.930 . S
C177 C175 1.419 . S
C177 C178 1.362 . S
C178 H170 0.930 . S
C178 C177 1.362 . S
C178 C181 1.409 . S
C179 H171 0.930 . S
C179 C180 1.355 . S
C179 C181 1.415 . S
C180 C179 1.355 . S
C180 C182 1.419 . S
C181 C176 1.425 . S
C181 C178 1.409 . S
C181 C179 1.415 . S
C182 H172 0.930 . S
C182 C180 1.419 . S
C182 C183 1.362 . S
C183 H173 0.930 . S
C183 C176 1.409 . S
C183 C182 1.362 . S
H184 C190 0.925 1_455 S
H185 C193 0.930 . S
H186 C194 0.930 . S
H187 C195 0.930 . S
H188 C198 0.930 . S
H189 C199 0.930 . S
C190 H184 0.925 1_655 S
C190 C191 1.355 . S
C190 C192 1.415 . S
C191 C190 1.355 . S
C191 C193 1.419 . S
C192 C190 1.415 . S
C192 C197 1.425 . S
C192 C199 1.409 1_655 S
C193 H185 0.930 . S
C193 C191 1.419 . S
C193 C194 1.362 . S
C194 H186 0.930 . S
C194 C193 1.362 . S
C194 C197 1.409 . S
C195 H187 0.930 . S
C195 C196 1.355 . S
C195 C197 1.415 . S
C196 C195 1.355 . S
C196 C198 1.419 1_655 S
C197 C192 1.425 . S
C197 C194 1.409 . S
C197 C195 1.415 . S
C198 H188 0.930 . S
C198 C196 1.419 1_455 S
C198 C199 1.362 . S
C199 H189 0.930 . S
C199 C192 1.409 1_455 S
C199 C198 1.362 . S
H200 C206 0.930 . S
H201 C209 0.930 . S
H202 C210 0.930 . S
H203 C211 0.930 . S
H204 C214 0.930 . S
H205 C215 0.930 . S
C206 H200 0.930 . S
C206 C207 1.355 . S
C206 C208 1.415 . S
C207 C206 1.355 . S
C207 C209 1.419 1_565 S
C208 C206 1.415 . S
C208 C213 1.425 1_566 S
C208 C215 1.409 1_556 S
C209 H201 0.930 . S
C209 C207 1.419 1_545 S
C209 C210 1.362 . S
C210 H202 0.930 . S
C210 C209 1.362 . S
C210 C213 1.409 1_556 S
C211 H203 0.930 . S
C211 C212 1.355 . S
C211 C213 1.415 . S
C212 C211 1.355 . S
C212 C214 1.419 1_545 S
C213 C208 1.425 1_544 S
C213 C210 1.409 1_554 S
C213 C211 1.415 . S
C214 H204 0.930 . S
C214 C212 1.419 1_565 S
C214 C215 1.362 . S
C215 H205 0.930 . S
C215 C208 1.409 1_554 S
C215 C214 1.362 . S
H216 C222 0.930 . S
H217 C225 0.930 . S
H218 C226 0.930 . S
H219 C227 0.930 . S
H220 C230 0.930 . S
H221 C231 0.930 . S
C222 H216 0.930 . S
C222 C223 1.355 . S
C222 C224 1.415 . S
C223 C222 1.355 . S
C223 C225 1.419 . S
C224 C222 1.415 . S
C224 C229 1.425 . S
C224 C231 1.409 . S
C225 H217 0.930 . S
C225 C223 1.419 . S
C225 C226 1.362 . S
C226 H218 0.930 . S
C226 C225 1.362 . S
C226 C229 1.409 . S
C227 H219 0.930 . S
C227 C228 1.355 . S
C227 C229 1.415 . S
C228 C227 1.355 . S
C228 C230 1.419 . S
C229 C224 1.425 . S
C229 C226 1.409 . S
C229 C227 1.415 . S
C230 H220 0.930 . S
C230 C228 1.419 . S
C230 C231 1.362 . S
C231 H221 0.930 . S
C231 C224 1.409 . S
C231 C230 1.362 . S
H232 C238 0.930 . S
H233 C241 0.930 . S
H234 C242 0.930 . S
H235 C243 0.930 . S
H236 C246 0.930 . S
H237 C247 0.930 . S
C238 H232 0.930 . S
C238 C239 1.355 1_655 S
C238 C240 1.415 . S
C239 C238 1.355 1_455 S
C239 C241 1.419 . S
C240 C238 1.415 . S
C240 C245 1.425 1_655 S
C240 C247 1.409 . S
C241 H233 0.930 . S
C241 C239 1.419 . S
C241 C242 1.362 . S
C242 H234 0.930 . S
C242 C241 1.362 . S
C242 C245 1.409 . S
C243 H235 0.930 . S
C243 C244 1.355 . S
C243 C245 1.415 . S
C244 C243 1.355 . S
C244 C246 1.419 1_455 S
C245 C240 1.425 1_455 S
C245 C242 1.409 . S
C245 C243 1.415 . S
C246 H236 0.930 . S
C246 C244 1.419 1_655 S
C246 C247 1.362 . S
C247 H237 0.930 . S
C247 C240 1.409 . S
C247 C246 1.362 . S
H248 C254 0.930 . S
H249 C257 0.930 . S
H250 C258 0.930 . S
H251 C259 0.930 . S
H252 C262 0.930 . S
H253 C263 0.930 . S
C254 H248 0.930 . S
C254 C255 1.355 . S
C254 C256 1.415 . S
C255 C254 1.355 . S
C255 C257 1.419 1_565 S
C256 C254 1.415 . S
C256 C261 1.425 1_564 S
C256 C263 1.409 1_554 S
C257 H249 0.930 . S
C257 C255 1.419 1_545 S
C257 C258 1.362 . S
C258 H250 0.930 . S
C258 C257 1.362 . S
C258 C261 1.409 1_554 S
C259 H251 0.930 . S
C259 C260 1.355 . S
C259 C261 1.415 . S
C260 C259 1.355 . S
C260 C262 1.419 1_545 S
C261 C256 1.425 1_546 S
C261 C258 1.409 1_556 S
C261 C259 1.415 . S
C262 H252 0.930 . S
C262 C260 1.419 1_565 S
C262 C263 1.362 . S
C263 H253 0.930 . S
C263 C256 1.409 1_556 S
C263 C262 1.362 . S
H264 C270 0.930 . S
H265 C273 0.930 . S
H266 C274 0.930 . S
H267 C275 0.930 . S
H268 C278 0.930 . S
H269 C279 0.930 . S
C270 H264 0.930 . S
C270 C271 1.355 . S
C270 C272 1.415 . S
C271 C270 1.355 . S
C271 C273 1.419 1_556 S
C272 C270 1.415 . S
C272 C277 1.425 1_556 S
C272 C279 1.409 . S
C273 H265 0.930 . S
C273 C271 1.419 1_554 S
C273 C274 1.362 . S
C274 H266 0.930 . S
C274 C273 1.362 . S
C274 C277 1.409 . S
C275 H267 0.930 . S
C275 C276 1.355 . S
C275 C277 1.415 . S
C276 C275 1.355 . S
C276 C278 1.419 1_554 S
C277 C272 1.425 1_554 S
C277 C274 1.409 . S
C277 C275 1.415 . S
C278 H268 0.930 . S
C278 C276 1.419 1_556 S
C278 C279 1.362 . S
C279 H269 0.930 . S
C279 C272 1.409 . S
C279 C278 1.362 . S
H280 C286 0.930 . S
H281 C289 0.930 . S
H282 C290 0.930 . S
H283 C291 0.930 . S
H284 C294 0.930 . S
H285 C295 0.930 . S
C286 H280 0.930 . S
C286 C287 1.355 . S
C286 C288 1.415 . S
C287 C286 1.355 . S
C287 C289 1.419 . S
C288 C286 1.415 . S
C288 C293 1.425 . S
C288 C295 1.409 . S
C289 H281 0.930 . S
C289 C287 1.419 . S
C289 C290 1.362 . S
C290 H282 0.930 . S
C290 C289 1.362 . S
C290 C293 1.409 . S
C291 H283 0.930 . S
C291 C292 1.355 . S
C291 C293 1.415 . S
C292 C291 1.355 . S
C292 C294 1.419 . S
C293 C288 1.425 . S
C293 C290 1.409 . S
C293 C291 1.415 . S
C294 H284 0.930 . S
C294 C292 1.419 . S
C294 C295 1.362 . S
C295 H285 0.930 . S
C295 C288 1.409 . S
C295 C294 1.362 . S
H296 C302 0.930 . S
H297 C305 0.930 . S
H298 C306 0.930 . S
H299 C307 0.930 . S
H300 C310 0.930 . S
H301 C311 0.930 . S
C302 H296 0.930 . S
C302 C303 1.355 . S
C302 C304 1.415 . S
C303 C302 1.355 . S
C303 C305 1.419 . S
C304 C302 1.415 . S
C304 C309 1.425 . S
C304 C311 1.409 . S
C305 H297 0.930 . S
C305 C303 1.419 . S
C305 C306 1.362 . S
C306 H298 0.930 . S
C306 C305 1.362 . S
C306 C309 1.409 . S
C307 H299 0.930 . S
C307 C308 1.355 . S
C307 C309 1.415 . S
C308 C307 1.355 . S
C308 C310 1.419 . S
C309 C304 1.425 . S
C309 C306 1.409 . S
C309 C307 1.415 . S
C310 H300 0.930 . S
C310 C308 1.419 . S
C310 C311 1.362 . S
C311 H301 0.930 . S
C311 C304 1.409 . S
C311 C310 1.362 . S
H312 C318 0.930 . S
H313 C321 0.930 . S
H314 C322 0.930 . S
H315 C323 0.930 . S
H316 C326 0.930 . S
H317 C327 0.930 . S
C318 H312 0.930 . S
C318 C319 1.355 1_556 S
C318 C320 1.415 . S
C319 C318 1.355 1_554 S
C319 C321 1.419 . S
C320 C318 1.415 . S
C320 C325 1.425 1_556 S
C320 C327 1.409 . S
C321 H313 0.930 . S
C321 C319 1.419 . S
C321 C322 1.362 . S
C322 H314 0.930 . S
C322 C321 1.362 . S
C322 C325 1.409 . S
C323 H315 0.930 . S
C323 C324 1.355 1_554 S
C323 C325 1.415 . S
C324 C323 1.355 1_556 S
C324 C326 1.419 . S
C325 C320 1.425 1_554 S
C325 C322 1.409 . S
C325 C323 1.415 . S
C326 H316 0.930 . S
C326 C324 1.419 . S
C326 C327 1.362 . S
C327 H317 0.930 . S
C327 C320 1.409 . S
C327 C326 1.362 . S
H328 C334 0.930 . S
H329 C337 0.930 . S
H330 C338 0.930 . S
H331 C339 0.930 . S
H332 C342 0.930 . S
H333 C343 0.930 . S
C334 H328 0.930 . S
C334 C335 1.355 . S
C334 C336 1.415 . S
C335 C334 1.355 . S
C335 C337 1.419 . S
C336 C334 1.415 . S
C336 C341 1.425 . S
C336 C343 1.409 . S
C337 H329 0.930 . S
C337 C335 1.419 . S
C337 C338 1.362 . S
C338 H330 0.930 . S
C338 C337 1.362 . S
C338 C341 1.409 . S
C339 H331 0.930 . S
C339 C340 1.355 . S
C339 C341 1.415 . S
C340 C339 1.355 . S
C340 C342 1.419 . S
C341 C336 1.425 . S
C341 C338 1.409 . S
C341 C339 1.415 . S
C342 H332 0.930 . S
C342 C340 1.419 . S
C342 C343 1.362 . S
C343 H333 0.930 . S
C343 C336 1.409 . S
C343 C342 1.362 . S
H344 C350 0.930 . S
H345 C353 0.930 . S
H346 C354 0.930 . S
H347 C355 0.930 . S
H348 C358 0.930 . S
H349 C359 0.930 . S
C350 H344 0.930 . S
C350 C351 1.355 . S
C350 C352 1.415 . S
C351 C350 1.355 . S
C351 C353 1.419 . S
C352 C350 1.415 . S
C352 C357 1.425 . S
C352 C359 1.409 . S
C353 H345 0.930 . S
C353 C351 1.419 . S
C353 C354 1.362 . S
C354 H346 0.930 . S
C354 C353 1.362 . S
C354 C357 1.409 . S
C355 H347 0.930 . S
C355 C356 1.355 . S
C355 C357 1.415 . S
C356 C355 1.355 . S
C356 C358 1.419 . S
C357 C352 1.425 . S
C357 C354 1.409 . S
C357 C355 1.415 . S
C358 H348 0.930 . S
C358 C356 1.419 . S
C358 C359 1.362 . S
C359 H349 0.930 . S
C359 C352 1.409 . S
C359 C358 1.362 . S
H360 C366 0.930 . S
H361 C369 0.930 . S
H362 C370 0.930 . S
H363 C371 0.930 . S
H364 C374 0.930 . S
H365 C375 0.930 . S
C366 H360 0.930 . S
C366 C367 1.355 . S
C366 C368 1.415 . S
C367 C366 1.355 . S
C367 C369 1.419 . S
C368 C366 1.415 . S
C368 C373 1.425 . S
C368 C375 1.409 . S
C369 H361 0.930 . S
C369 C367 1.419 . S
C369 C370 1.362 . S
C370 H362 0.930 . S
C370 C369 1.362 . S
C370 C373 1.409 . S
C371 H363 0.930 . S
C371 C372 1.355 . S
C371 C373 1.415 . S
C372 C371 1.355 . S
C372 C374 1.419 . S
C373 C368 1.425 . S
C373 C370 1.409 . S
C373 C371 1.415 . S
C374 H364 0.930 . S
C374 C372 1.419 . S
C374 C375 1.362 . S
C375 H365 0.930 . S
C375 C368 1.409 . S
C375 C374 1.362 . S
H376 C382 0.930 . S
H377 C385 0.930 . S
H378 C386 0.930 . S
H379 C387 0.930 . S
H380 C390 0.930 . S
H381 C391 0.930 . S
C382 H376 0.930 . S
C382 C383 1.355 . S
C382 C384 1.415 . S
C383 C382 1.355 . S
C383 C385 1.419 1_655 S
C384 C382 1.415 . S
C384 C389 1.425 1_655 S
C384 C391 1.409 . S
C385 H377 0.930 . S
C385 C383 1.419 1_455 S
C385 C386 1.362 . S
C386 H378 0.930 . S
C386 C385 1.362 . S
C386 C389 1.409 . S
C387 H379 0.930 . S
C387 C388 1.355 1_455 S
C387 C389 1.415 . S
C388 C387 1.355 1_655 S
C388 C390 1.419 . S
C389 C384 1.425 1_455 S
C389 C386 1.409 . S
C389 C387 1.415 . S
C390 H380 0.930 . S
C390 C388 1.419 . S
C390 C391 1.362 . S
C391 H381 0.930 . S
C391 C384 1.409 . S
C391 C390 1.362 . S
H392 C398 0.930 . S
H393 C401 0.930 . S
H394 C402 0.930 . S
H395 C403 0.930 . S
H396 C406 0.930 . S
H397 C407 0.930 . S
C398 H392 0.930 . S
C398 C399 1.355 1_545 S
C398 C400 1.415 . S
C399 C398 1.355 1_565 S
C399 C401 1.419 . S
C400 C398 1.415 . S
C400 C405 1.425 1_545 S
C400 C407 1.409 . S
C401 H393 0.930 . S
C401 C399 1.419 . S
C401 C402 1.362 . S
C402 H394 0.930 . S
C402 C401 1.362 . S
C402 C405 1.409 . S
C403 H395 0.930 . S
C403 C404 1.355 1_565 S
C403 C405 1.415 . S
C404 C403 1.355 1_545 S
C404 C406 1.419 . S
C405 C400 1.425 1_565 S
C405 C402 1.409 . S
C405 C403 1.415 . S
C406 H396 0.930 . S
C406 C404 1.419 . S
C406 C407 1.362 . S
C407 H397 0.930 . S
C407 C400 1.409 . S
C407 C406 1.362 . S
H408 C414 0.930 . S
H409 C417 0.930 . S
H410 C418 0.930 . S
H411 C419 0.930 . S
H412 C422 0.930 . S
H413 C423 0.930 . S
C414 H408 0.930 . S
C414 C415 1.355 . S
C414 C416 1.415 . S
C415 C414 1.355 . S
C415 C417 1.419 . S
C416 C414 1.415 . S
C416 C421 1.425 . S
C416 C423 1.409 . S
C417 H409 0.930 . S
C417 C415 1.419 . S
C417 C418 1.362 . S
C418 H410 0.930 . S
C418 C417 1.362 . S
C418 C421 1.409 . S
C419 H411 0.930 . S
C419 C420 1.355 . S
C419 C421 1.415 . S
C420 C419 1.355 . S
C420 C422 1.419 . S
C421 C416 1.425 . S
C421 C418 1.409 . S
C421 C419 1.415 . S
C422 H412 0.930 . S
C422 C420 1.419 . S
C422 C423 1.362 . S
C423 H413 0.930 . S
C423 C416 1.409 . S
C423 C422 1.362 . S
H424 C430 0.930 . S
H425 C433 0.929 . S
H426 C434 0.930 . S
H427 C435 0.930 1_655 S
H428 C438 0.930 . S
H429 C439 0.930 . S
C430 H424 0.930 . S
C430 C431 1.355 . S
C430 C432 1.415 . S
C431 C430 1.355 . S
C431 C433 1.420 1_455 S
C432 C430 1.415 . S
C432 C437 1.425 . S
C432 C439 1.409 . S
C433 H425 0.929 . S
C433 C431 1.420 1_655 S
C433 C434 1.362 . S
C434 H426 0.930 . S
C434 C433 1.362 . S
C434 C437 1.409 1_655 S
C435 H427 0.930 1_455 S
C435 C436 1.355 . S
C435 C437 1.415 . S
C436 C435 1.355 . S
C436 C438 1.419 . S
C437 C432 1.425 . S
C437 C434 1.409 1_455 S
C437 C435 1.415 . S
C438 H428 0.930 . S
C438 C436 1.419 . S
C438 C439 1.362 . S
C439 H429 0.930 . S
C439 C432 1.409 . S
C439 C438 1.362 . S
H440 C446 0.930 . S
H441 C449 0.920 1_545 S
H442 C450 0.930 . S
H443 C451 0.930 . S
H444 C454 0.920 1_565 S
H445 C455 0.930 . S
C446 H440 0.930 . S
C446 C447 1.355 . S
C446 C448 1.415 . S
C447 C446 1.355 . S
C447 C449 1.425 . S
C448 C446 1.415 . S
C448 C453 1.425 1_565 S
C448 C455 1.409 . S
C449 H441 0.920 1_565 S
C449 C447 1.425 . S
C449 C450 1.361 1_565 S
C450 H442 0.930 . S
C450 C449 1.361 1_545 S
C450 C453 1.409 . S
C451 H443 0.930 . S
C451 C452 1.355 . S
C451 C453 1.415 . S
C452 C451 1.355 . S
C452 C454 1.426 . S
C453 C448 1.425 1_545 S
C453 C450 1.409 . S
C453 C451 1.415 . S
C454 H444 0.920 1_545 S
C454 C452 1.426 . S
C454 C455 1.361 1_545 S
C455 H445 0.930 . S
C455 C448 1.409 . S
C455 C454 1.361 1_565 S
H456 C462 0.930 . S
H457 C465 0.930 . S
H458 C466 0.930 . S
H459 C467 0.930 . S
H460 C470 0.930 . S
H461 C471 0.930 . S
C462 H456 0.930 . S
C462 C463 1.355 . S
C462 C464 1.415 . S
C463 C462 1.355 . S
C463 C465 1.419 . S
C464 C462 1.415 . S
C464 C469 1.425 . S
C464 C471 1.409 . S
C465 H457 0.930 . S
C465 C463 1.419 . S
C465 C466 1.362 . S
C466 H458 0.930 . S
C466 C465 1.362 . S
C466 C469 1.409 . S
C467 H459 0.930 . S
C467 C468 1.355 . S
C467 C469 1.415 . S
C468 C467 1.355 . S
C468 C470 1.419 . S
C469 C464 1.425 . S
C469 C466 1.409 . S
C469 C467 1.415 . S
C470 H460 0.930 . S
C470 C468 1.419 . S
C470 C471 1.362 . S
C471 H461 0.930 . S
C471 C464 1.409 . S
C471 C470 1.362 . S
H472 C478 0.930 1_655 S
H473 C481 0.930 . S
H474 C482 0.930 . S
H475 C483 0.930 1_455 S
H476 C486 0.930 . S
H477 C487 0.930 . S
C478 H472 0.930 1_455 S
C478 C479 1.355 . S
C478 C480 1.415 1_455 S
C479 C478 1.355 . S
C479 C481 1.419 . S
C480 C478 1.415 1_655 S
C480 C485 1.425 1_655 S
C480 C487 1.409 . S
C481 H473 0.930 . S
C481 C479 1.419 . S
C481 C482 1.362 . S
C482 H474 0.930 . S
C482 C481 1.362 . S
C482 C485 1.409 . S
C483 H475 0.930 1_655 S
C483 C484 1.355 . S
C483 C485 1.415 1_655 S
C484 C483 1.355 . S
C484 C486 1.419 . S
C485 C480 1.425 1_455 S
C485 C482 1.409 . S
C485 C483 1.415 1_455 S
C486 H476 0.930 . S
C486 C484 1.419 . S
C486 C487 1.362 . S
C487 H477 0.930 . S
C487 C480 1.409 . S
C487 C486 1.362 . S
H488 C494 0.930 . S
H489 C497 0.930 . S
H490 C498 0.930 . S
H491 C499 0.930 . S
H492 C502 0.930 . S
H493 C503 0.930 . S
C494 H488 0.930 . S
C494 C495 1.355 . S
C494 C496 1.415 1_565 S
C495 C494 1.355 . S
C495 C497 1.419 . S
C496 C494 1.415 1_545 S
C496 C501 1.425 1_545 S
C496 C503 1.409 . S
C497 H489 0.930 . S
C497 C495 1.419 . S
C497 C498 1.362 . S
C498 H490 0.930 . S
C498 C497 1.362 . S
C498 C501 1.409 . S
C499 H491 0.930 . S
C499 C500 1.355 . S
C499 C501 1.415 1_545 S
C500 C499 1.355 . S
C500 C502 1.419 . S
C501 C496 1.425 1_565 S
C501 C498 1.409 . S
C501 C499 1.415 1_565 S
C502 H492 0.930 . S
C502 C500 1.419 . S
C502 C503 1.362 . S
C503 H493 0.930 . S
C503 C496 1.409 . S
C503 C502 1.362 . S
H504 C510 0.930 . S
H505 C513 0.930 . S
H506 C514 0.930 . S
H507 C515 0.930 . S
H508 C518 0.930 . S
H509 C519 0.930 . S
C510 H504 0.930 . S
C510 C511 1.355 . S
C510 C512 1.415 . S
C511 C510 1.355 . S
C511 C513 1.419 . S
C512 C510 1.415 . S
C512 C517 1.425 . S
C512 C519 1.409 . S
C513 H505 0.930 . S
C513 C511 1.419 . S
C513 C514 1.362 . S
C514 H506 0.930 . S
C514 C513 1.362 . S
C514 C517 1.409 . S
C515 H507 0.930 . S
C515 C516 1.355 . S
C515 C517 1.415 . S
C516 C515 1.355 . S
C516 C518 1.419 . S
C517 C512 1.425 . S
C517 C514 1.409 . S
C517 C515 1.415 . S
C518 H508 0.930 . S
C518 C516 1.419 . S
C518 C519 1.362 . S
C519 H509 0.930 . S
C519 C512 1.409 . S
C519 C518 1.362 . S
H520 C526 0.930 . S
H521 C529 0.930 . S
H522 C530 0.930 . S
H523 C531 0.930 . S
H524 C534 0.930 . S
H525 C535 0.930 . S
C526 H520 0.930 . S
C526 C527 1.355 . S
C526 C528 1.415 . S
C527 C526 1.355 . S
C527 C529 1.419 1_655 S
C528 C526 1.415 . S
C528 C533 1.425 1_655 S
C528 C535 1.409 . S
C529 H521 0.930 . S
C529 C527 1.419 1_455 S
C529 C530 1.362 . S
C530 H522 0.930 . S
C530 C529 1.362 . S
C530 C533 1.409 . S
C531 H523 0.930 . S
C531 C532 1.355 . S
C531 C533 1.415 . S
C532 C531 1.355 . S
C532 C534 1.419 1_455 S
C533 C528 1.425 1_455 S
C533 C530 1.409 . S
C533 C531 1.415 . S
C534 H524 0.930 . S
C534 C532 1.419 1_655 S
C534 C535 1.362 . S
C535 H525 0.930 . S
C535 C528 1.409 . S
C535 C534 1.362 . S
H536 C542 0.930 . S
H537 C545 0.930 . S
H538 C546 0.930 . S
H539 C547 0.930 . S
H540 C550 0.930 . S
H541 C551 0.930 . S
C542 H536 0.930 . S
C542 C543 1.355 . S
C542 C544 1.415 . S
C543 C542 1.355 . S
C543 C545 1.419 . S
C544 C542 1.415 . S
C544 C549 1.425 1_545 S
C544 C551 1.409 . S
C545 H537 0.930 . S
C545 C543 1.419 . S
C545 C546 1.362 1_545 S
C546 H538 0.930 . S
C546 C545 1.362 1_565 S
C546 C549 1.409 . S
C547 H539 0.930 . S
C547 C548 1.355 . S
C547 C549 1.415 . S
C548 C547 1.355 . S
C548 C550 1.419 . S
C549 C544 1.425 1_565 S
C549 C546 1.409 . S
C549 C547 1.415 . S
C550 H540 0.930 . S
C550 C548 1.419 . S
C550 C551 1.362 1_565 S
C551 H541 0.930 . S
C551 C544 1.409 . S
C551 C550 1.362 1_545 S
C175 C11 1.527 . S
C180 C137 1.564 . S
C191 C25 1.528 . S
C196 C151 1.569 . S
C207 C33 1.084 . S
C212 C159 1.036 . S
C223 C53 1.551 . S
C228 C95 1.562 . S
C239 C109 1.521 . S
C244 C67 1.584 . S
C255 C117 1.040 . S
C260 C75 1.081 . S
C271 C145 1.246 . S
C276 C5 1.213 . S
C287 C19 1.198 . S
C292 C165 1.297 . S
C303 C39 1.287 . S
C308 C89 1.110 . S
C319 C47 1.103 . S
C324 C103 1.171 . S
C335 C61 1.165 . S
C340 C123 1.311 . S
C351 C81 1.319 . S
C356 C131 1.134 . S
C367 C130 1.004 . S
C372 C4 0.963 . S
C383 C18 1.000 . S
C388 C144 0.968 . S
C399 C40 0.634 . S
C404 C166 0.668 . S
C415 C88 1.014 . S
C420 C46 0.914 . S
C431 C60 0.938 . S
C436 C102 1.022 . S
C447 C124 0.730 . S
C452 C82 0.663 . S
C463 C12 1.413 . S
C468 C54 1.415 . S
C479 C68 1.461 . S
C484 C26 1.464 . S
C495 C32 1.379 . S
C500 C74 1.421 . S
C511 C96 1.401 . S
C516 C138 1.404 . S
C527 C110 1.362 . S
C532 C152 1.360 . S
C543 C158 1.343 . S
C548 C116 1.399 . S
