# Generated by pormake.
# Topology ume, (4)-cn, num edge types: 1
# Building blocks:
#     Node 0, Type 0, BuildingBlock: NAWXER_clean_sbu_0, # of connection points: 4
#     Node 1, Type 0, BuildingBlock: NAWXER_clean_sbu_0, # of connection points: 4
#     Node 2, Type 0, BuildingBlock: NAWXER_clean_sbu_0, # of connection points: 4
#     Node 3, Type 0, BuildingBlock: NAWXER_clean_sbu_0, # of connection points: 4
#     Node 4, Type 0, BuildingBlock: NAWXER_clean_sbu_0, # of connection points: 4
#     Node 5, Type 0, BuildingBlock: NAWXER_clean_sbu_0, # of connection points: 4
#     Node 6, Type 0, BuildingBlock: NAWXER_clean_sbu_0, # of connection points: 4
#     Node 7, Type 0, BuildingBlock: NAWXER_clean_sbu_0, # of connection points: 4
#     Node 8, Type 0, BuildingBlock: NAWXER_clean_sbu_0, # of connection points: 4
#     Node 9, Type 0, BuildingBlock: NAWXER_clean_sbu_0, # of connection points: 4
#     Node 10, Type 0, BuildingBlock: NAWXER_clean_sbu_0, # of connection points: 4
#     Node 11, Type 0, BuildingBlock: NAWXER_clean_sbu_0, # of connection points: 4
#     Node 12, Type 0, BuildingBlock: NAWXER_clean_sbu_0, # of connection points: 4
#     Node 13, Type 0, BuildingBlock: NAWXER_clean_sbu_0, # of connection points: 4
#     Node 14, Type 0, BuildingBlock: NAWXER_clean_sbu_0, # of connection points: 4
#     Node 15, Type 0, BuildingBlock: NAWXER_clean_sbu_0, # of connection points: 4
#     Edge 16, Type (0, 0), BuildingBlock: KIFKEQ_clean_linker_1, # of connection points: 2
#     Edge 17, Type (0, 0), BuildingBlock: KIFKEQ_clean_linker_1, # of connection points: 2
#     Edge 18, Type (0, 0), BuildingBlock: KIFKEQ_clean_linker_1, # of connection points: 2
#     Edge 19, Type (0, 0), BuildingBlock: KIFKEQ_clean_linker_1, # of connection points: 2
#     Edge 20, Type (0, 0), BuildingBlock: KIFKEQ_clean_linker_1, # of connection points: 2
#     Edge 21, Type (0, 0), BuildingBlock: KIFKEQ_clean_linker_1, # of connection points: 2
#     Edge 22, Type (0, 0), BuildingBlock: KIFKEQ_clean_linker_1, # of connection points: 2
#     Edge 23, Type (0, 0), BuildingBlock: KIFKEQ_clean_linker_1, # of connection points: 2
#     Edge 24, Type (0, 0), BuildingBlock: KIFKEQ_clean_linker_1, # of connection points: 2
#     Edge 25, Type (0, 0), BuildingBlock: KIFKEQ_clean_linker_1, # of connection points: 2
#     Edge 26, Type (0, 0), BuildingBlock: KIFKEQ_clean_linker_1, # of connection points: 2
#     Edge 27, Type (0, 0), BuildingBlock: KIFKEQ_clean_linker_1, # of connection points: 2
#     Edge 28, Type (0, 0), BuildingBlock: KIFKEQ_clean_linker_1, # of connection points: 2
#     Edge 29, Type (0, 0), BuildingBlock: KIFKEQ_clean_linker_1, # of connection points: 2
#     Edge 30, Type (0, 0), BuildingBlock: KIFKEQ_clean_linker_1, # of connection points: 2
#     Edge 31, Type (0, 0), BuildingBlock: KIFKEQ_clean_linker_1, # of connection points: 2
#     Edge 32, Type (0, 0), BuildingBlock: KIFKEQ_clean_linker_1, # of connection points: 2
#     Edge 33, Type (0, 0), BuildingBlock: KIFKEQ_clean_linker_1, # of connection points: 2
#     Edge 34, Type (0, 0), BuildingBlock: KIFKEQ_clean_linker_1, # of connection points: 2
#     Edge 35, Type (0, 0), BuildingBlock: KIFKEQ_clean_linker_1, # of connection points: 2
#     Edge 36, Type (0, 0), BuildingBlock: KIFKEQ_clean_linker_1, # of connection points: 2
#     Edge 37, Type (0, 0), BuildingBlock: KIFKEQ_clean_linker_1, # of connection points: 2
#     Edge 38, Type (0, 0), BuildingBlock: KIFKEQ_clean_linker_1, # of connection points: 2
#     Edge 39, Type (0, 0), BuildingBlock: KIFKEQ_clean_linker_1, # of connection points: 2
#     Edge 40, Type (0, 0), BuildingBlock: KIFKEQ_clean_linker_1, # of connection points: 2
#     Edge 41, Type (0, 0), BuildingBlock: KIFKEQ_clean_linker_1, # of connection points: 2
#     Edge 42, Type (0, 0), BuildingBlock: KIFKEQ_clean_linker_1, # of connection points: 2
#     Edge 43, Type (0, 0), BuildingBlock: KIFKEQ_clean_linker_1, # of connection points: 2
#     Edge 44, Type (0, 0), BuildingBlock: KIFKEQ_clean_linker_1, # of connection points: 2
#     Edge 45, Type (0, 0), BuildingBlock: KIFKEQ_clean_linker_1, # of connection points: 2
#     Edge 46, Type (0, 0), BuildingBlock: KIFKEQ_clean_linker_1, # of connection points: 2
#     Edge 47, Type (0, 0), BuildingBlock: KIFKEQ_clean_linker_1, # of connection points: 2
# Relax obj value: 0.054
# Max RMSD: 0.243
# Mean RMSD: 0.243
data_MOF--net-ume--node1-NAWXER_clean_sbu_0--edge1-KIFKEQ_clean_linker_1
_symmetry_space_group_name_H-M    P1
_symmetry_Int_Tables_number       1
_symmetry_cell_setting            triclinic
loop_
_symmetry_equiv_pos_as_xyz
'x, y, z'
_cell_length_a     29.288053
_cell_length_b     29.318405
_cell_length_c     114.06887
_cell_angle_alpha  89.983605
_cell_angle_beta   89.885245
_cell_angle_gamma 90.114124
loop_
_atom_site_label
_atom_site_type_symbol
_atom_site_fract_x
_atom_site_fract_y
_atom_site_fract_z
_atom_type_partial_charge
C0 C 0.24087 0.08815 0.34787 0.0
C1 C 0.2598 0.12393 0.30651 0.0
O2 O 0.24095 0.12662 0.34277 0.0
Zn3 Zn 0.2466 0.10456 0.32707 0.0
O4 O 0.24304 0.05155 0.34169 0.0
Zn5 Zn 0.24771 0.03562 0.32302 0.0
O6 O 0.30136 -0.00013 0.32251 0.0
O7 O 0.31353 0.07178 0.32737 0.0
O8 O 0.25764 0.08062 0.30811 0.0
O9 O 0.25419 0.1504 0.31518 0.0
O10 O 0.17997 0.07459 0.32386 0.0
O11 O 0.19355 0.00263 0.31961 0.0
C12 C 0.3288 0.03141 0.3254 0.0
C13 C 0.16528 0.03471 0.32109 0.0
C14 C 0.9659 0.82937 0.57558 0.0
C15 C 0.96429 0.66591 0.57087 0.0
O16 O -0.00183 0.80234 0.573 0.0
Zn17 Zn 0.96271 0.74849 0.57303 0.0
O18 O 0.92531 0.81359 0.57716 0.0
Zn19 Zn 0.8932 0.74594 0.57659 0.0
O20 O 0.86966 0.73984 0.5922 0.0
O21 O 0.94485 0.74318 0.59153 0.0
O22 O 0.92413 0.68009 0.57351 0.0
O23 O 0.99625 0.69456 0.56955 0.0
O24 O 0.91924 0.76013 0.55797 0.0
O25 O 0.84862 0.75203 0.5643 0.0
C26 C 0.90772 0.74036 0.59751 0.0
C27 C 0.87612 0.76052 0.55597 0.0
C28 C 0.16608 0.46273 0.82554 0.0
C29 C 0.32971 0.4576 0.82138 0.0
O30 O 0.19416 0.49415 0.82296 0.0
Zn31 Zn 0.24723 0.45733 0.82325 0.0
O32 O 0.18066 0.42193 0.82723 0.0
Zn33 Zn 0.24714 0.38828 0.82691 0.0
O34 O 0.25047 0.36452 0.84243 0.0
O35 O 0.25173 0.43968 0.84187 0.0
O36 O 0.31469 0.41765 0.82403 0.0
O37 O 0.30164 0.48984 0.81995 0.0
O38 O 0.2365 0.4136 0.80807 0.0
O39 O 0.23945 0.34339 0.81487 0.0
C40 C 0.25194 0.40237 0.8478 0.0
C41 C 0.23387 0.37039 0.80632 0.0
C42 C 0.53092 0.66589 0.07597 0.0
C43 C 0.53424 0.8291 0.07159 0.0
O44 O 0.49872 0.69342 0.07376 0.0
Zn45 Zn 0.53498 0.74683 0.07364 0.0
O46 O 0.57186 0.68103 0.07722 0.0
Zn47 Zn 0.60487 0.74795 0.07661 0.0
O48 O 0.62996 0.75222 0.09209 0.0
O49 O 0.5547 0.75184 0.09196 0.0
O50 O 0.57473 0.81446 0.07366 0.0
O51 O 0.50157 0.80099 0.07078 0.0
O52 O 0.57692 0.73566 0.05813 0.0
O53 O 0.64822 0.74154 0.06408 0.0
C54 C 0.59244 0.75302 0.09767 0.0
C55 C 0.6199 0.73447 0.05588 0.0
C56 C 0.24212 0.40235 0.93653 0.0
C57 C 0.26172 0.37423 0.97823 0.0
O58 O 0.24364 0.36479 0.94205 0.0
Zn59 Zn 0.2475 0.38957 0.95756 0.0
O60 O 0.24288 0.43996 0.9423 0.0
Zn61 Zn 0.24872 0.45936 0.96064 0.0
O62 O 0.3022 0.4958 0.96012 0.0
O63 O 0.31458 0.42231 0.95712 0.0
O64 O 0.261 0.41719 0.97602 0.0
O65 O 0.25356 0.3461 0.97005 0.0
O66 O 0.18089 0.41971 0.96036 0.0
O67 O 0.1944 0.49218 0.96404 0.0
C68 C 0.32971 0.46331 0.95815 0.0
C69 C 0.16616 0.4598 0.96285 0.0
C70 C 0.59097 0.74216 0.18637 0.0
C71 C 0.61881 0.76057 0.22808 0.0
O72 O 0.62847 0.74327 0.19192 0.0
Zn73 Zn 0.60331 0.74695 0.20736 0.0
O74 O 0.55316 0.74296 0.19212 0.0
Zn75 Zn 0.53366 0.74805 0.21055 0.0
O76 O 0.49744 0.80138 0.21047 0.0
O77 O 0.57052 0.81402 0.20687 0.0
O78 O 0.57582 0.75972 0.22591 0.0
O79 O 0.6469 0.75288 0.21985 0.0
O80 O 0.57279 0.68018 0.21 0.0
O81 O 0.5004 0.69382 0.21379 0.0
C82 C 0.52962 0.82907 0.20823 0.0
C83 C 0.53255 0.66551 0.21248 0.0
C84 C 0.23551 0.1242 0.4778 0.0
C85 C 0.25421 0.08838 0.43645 0.0
O86 O 0.24117 0.15068 0.46913 0.0
Zn87 Zn 0.24857 0.10483 0.45725 0.0
O88 O 0.23754 0.0809 0.47621 0.0
Zn89 Zn 0.24729 0.03589 0.46132 0.0
O90 O 0.30137 0.00299 0.46473 0.0
O91 O 0.31512 0.07495 0.46044 0.0
O92 O 0.25196 0.05179 0.44264 0.0
O93 O 0.25423 0.12686 0.44154 0.0
O94 O 0.18157 0.07197 0.45697 0.0
O95 O 0.19354 8e-05 0.46185 0.0
C96 C 0.32971 0.0351 0.46322 0.0
C97 C 0.16619 0.03158 0.45895 0.0
C98 C 0.96125 0.82875 0.71274 0.0
C99 C 0.96339 0.66541 0.70856 0.0
O100 O 0.99359 0.80045 0.71368 0.0
Zn101 Zn 0.95974 0.74649 0.71074 0.0
O102 O 0.92077 0.81435 0.71048 0.0
Zn103 Zn 0.89051 0.74797 0.70707 0.0
O104 O 0.8451 0.74047 0.71902 0.0
O105 O 0.91526 0.7371 0.7259 0.0
O106 O 0.9229 0.68079 0.70675 0.0
O107 O 0.99529 0.6928 0.71121 0.0
O108 O 0.94285 0.75044 0.6922 0.0
O109 O 0.86778 0.75377 0.69139 0.0
C110 C 0.87192 0.73494 0.72762 0.0
C111 C 0.90601 0.75299 0.68615 0.0
C112 C 0.82965 0.53121 0.82513 0.0
C113 C 0.66591 0.53311 0.82115 0.0
O114 O 0.80224 0.49946 0.82238 0.0
Zn115 Zn 0.74849 0.53496 0.8229 0.0
O116 O 0.81425 0.57159 0.82704 0.0
Zn117 Zn 0.74689 0.60389 0.8268 0.0
O118 O 0.74163 0.62661 0.84244 0.0
O119 O 0.74438 0.55153 0.84155 0.0
O120 O 0.68026 0.57324 0.8238 0.0
O121 O 0.69453 0.50137 0.81965 0.0
O122 O 0.75816 0.5796 0.80788 0.0
O123 O 0.75388 0.64948 0.81484 0.0
C124 C 0.74213 0.58835 0.84764 0.0
C125 C 0.75994 0.6229 0.80622 0.0
C126 C 0.40874 0.23999 0.09767 0.0
C127 C 0.37839 0.25961 0.05605 0.0
O128 O 0.37089 0.23874 0.09228 0.0
Zn129 Zn 0.3948 0.24526 0.07667 0.0
O130 O 0.44598 0.24327 0.09177 0.0
Zn131 Zn 0.4645 0.24816 0.07337 0.0
O132 O 0.49963 0.30208 0.07333 0.0
O133 O 0.42653 0.31307 0.07728 0.0
O134 O 0.42149 0.25913 0.05812 0.0
O135 O 0.35061 0.25145 0.06434 0.0
O136 O 0.42601 0.17973 0.07335 0.0
O137 O 0.49883 0.19451 0.07032 0.0
C138 C 0.46712 0.32898 0.07579 0.0
C139 C 0.46666 0.16584 0.07115 0.0
C140 C 0.66541 0.965 0.32594 0.0
C141 C 0.8289 0.9618 0.32143 0.0
O142 O 0.69309 0.99707 0.3236 0.0
Zn143 Zn 0.74638 0.96084 0.32349 0.0
O144 O 0.68045 0.92417 0.32732 0.0
Zn145 Zn 0.74748 0.89133 0.32677 0.0
O146 O 0.75138 0.86671 0.34226 0.0
O147 O 0.75172 0.94193 0.34194 0.0
O148 O 0.81425 0.92168 0.32399 0.0
O149 O 0.80058 0.99392 0.32011 0.0
O150 O 0.73441 0.91834 0.30822 0.0
O151 O 0.74124 0.84746 0.31434 0.0
C152 C 0.75257 0.90435 0.34774 0.0
C153 C 0.73346 0.87534 0.30609 0.0
C154 C 0.08814 0.25431 0.59782 0.0
C155 C 0.12423 0.23503 0.55649 0.0
O156 O 0.1267 0.2541 0.59273 0.0
Zn157 Zn 0.10474 0.24835 0.57703 0.0
O158 O 0.05155 0.25217 0.59164 0.0
Zn159 Zn 0.03572 0.24738 0.57298 0.0
O160 O -0.00038 0.19372 0.57252 0.0
O161 O 0.07153 0.18157 0.57738 0.0
O162 O 0.08087 0.23729 0.55809 0.0
O163 O 0.15069 0.24056 0.56516 0.0
O164 O 0.07531 0.31496 0.57369 0.0
O165 O 0.00318 0.30165 0.56949 0.0
C166 C 0.03105 0.16631 0.57544 0.0
C167 C 0.03554 0.32977 0.5709 0.0
C168 C 0.76029 0.87574 0.47816 0.0
C169 C 0.74213 0.90452 0.43646 0.0
O170 O 0.7526 0.84779 0.46992 0.0
Zn171 Zn 0.74686 0.89159 0.45745 0.0
O172 O 0.75962 0.91871 0.476 0.0
Zn173 Zn 0.74828 0.96114 0.46069 0.0
O174 O 0.69426 0.99436 0.46398 0.0
O175 O 0.68024 0.9221 0.46017 0.0
O176 O 0.74311 0.94213 0.44225 0.0
O177 O 0.74304 0.86691 0.44196 0.0
O178 O 0.81409 0.9243 0.45696 0.0
O179 O 0.80179 0.99724 0.46062 0.0
C180 C 0.66578 0.96227 0.46268 0.0
C181 C 0.82933 0.96512 0.45833 0.0
C182 C 0.03095 0.16558 0.71312 0.0
C183 C 0.02881 0.32888 0.7088 0.0
O184 O -0.00134 0.19391 0.71412 0.0
Zn185 Zn 0.03248 0.24785 0.71108 0.0
O186 O 0.07142 0.17995 0.71078 0.0
Zn187 Zn 0.10168 0.24631 0.70732 0.0
O188 O 0.14714 0.25396 0.71921 0.0
O189 O 0.07701 0.25751 0.72617 0.0
O190 O 0.06928 0.31348 0.70696 0.0
O191 O 0.99692 0.30154 0.71153 0.0
O192 O 0.04931 0.24364 0.69251 0.0
O193 O 0.12439 0.24032 0.69163 0.0
C194 C 0.12036 0.2597 0.72783 0.0
C195 C 0.08617 0.241 0.68643 0.0
C196 C 0.66634 0.53063 0.95795 0.0
C197 C 0.82978 0.53142 0.96287 0.0
O198 O 0.69313 0.49781 0.96018 0.0
Zn199 Zn 0.74715 0.53317 0.96059 0.0
O200 O 0.68224 0.5713 0.95674 0.0
Zn201 Zn 0.75009 0.60286 0.95723 0.0
O202 O 0.75628 0.62651 0.94159 0.0
O203 O 0.75306 0.55143 0.94221 0.0
O204 O 0.81572 0.57163 0.9603 0.0
O205 O 0.80102 0.49949 0.96409 0.0
O206 O 0.73499 0.57632 0.97576 0.0
O207 O 0.7441 0.64701 0.96961 0.0
C208 C 0.75589 0.5885 0.93626 0.0
C209 C 0.73492 0.61937 0.97785 0.0
C210 C 0.46295 0.16557 0.20881 0.0
C211 C 0.45962 0.3292 0.21289 0.0
O212 O 0.49455 0.19309 0.21163 0.0
Zn213 Zn 0.45871 0.24671 0.21109 0.0
O214 O 0.4225 0.18077 0.20688 0.0
Zn215 Zn 0.38966 0.24768 0.20714 0.0
O216 O 0.36726 0.25282 0.19146 0.0
O217 O 0.44242 0.25085 0.19244 0.0
O218 O 0.41967 0.31441 0.21019 0.0
O219 O 0.49173 0.30099 0.21438 0.0
O220 O 0.41387 0.23709 0.22608 0.0
O221 O 0.34394 0.24044 0.21909 0.0
C222 C 0.40569 0.2528 0.18631 0.0
C223 C 0.37054 0.23498 0.22773 0.0
H224 H 0.90036 0.9052 0.32664 0.0
H225 H 0.86916 0.04053 0.31396 0.0
H226 H 0.98165 0.92351 0.32604 0.0
H227 H 0.95019 0.05835 0.31308 0.0
H228 H 0.09402 0.09097 0.32673 0.0
H229 H 0.01274 0.07269 0.32632 0.0
H230 H 0.04371 0.93883 0.31262 0.0
H231 H 0.12479 0.95662 0.3133 0.0
C232 C 0.91085 0.93864 0.3236 0.0
C233 C 0.87831 0.97144 0.3204 0.0
C234 C 0.95743 0.9491 0.32321 0.0
C235 C 0.9724 0.9925 0.31956 0.0
C236 C 0.9398 0.02491 0.31614 0.0
C237 C 0.89333 0.01454 0.31657 0.0
C238 C 0.08343 0.05778 0.32356 0.0
C239 C 0.11585 0.02522 0.3201 0.0
C240 C 0.03685 0.04733 0.32329 0.0
C241 C 0.02175 0.00419 0.31949 0.0
C242 C 0.05421 0.97205 0.31579 0.0
C243 C 0.1007 0.98241 0.31611 0.0
H244 H 0.90741 0.59432 0.57588 0.0
H245 H 0.04349 0.626 0.56357 0.0
H246 H 0.92553 0.51324 0.57529 0.0
H247 H 0.06117 0.54501 0.56269 0.0
H248 H 0.09231 0.40084 0.57648 0.0
H249 H 0.07474 0.48212 0.57588 0.0
H250 H 0.94103 0.45149 0.56196 0.0
H251 H 0.95809 0.37044 0.56284 0.0
C252 C 0.94099 0.58398 0.57292 0.0
C253 C 0.97402 0.61661 0.56982 0.0
C254 C 0.95134 0.53749 0.57253 0.0
C255 C 0.99488 0.52263 0.56897 0.0
C256 C 0.02759 0.5553 0.56566 0.0
C257 C 0.01731 0.60174 0.56609 0.0
C258 C 0.05931 0.41151 0.57322 0.0
C259 C 0.02655 0.37918 0.56977 0.0
C260 C 0.04927 0.4581 0.57283 0.0
C261 C 0.00635 0.4733 0.56893 0.0
C262 C 0.97407 0.44093 0.56521 0.0
C263 C 0.98401 0.39444 0.56565 0.0
H264 H 0.62622 0.45376 0.81393 0.0
H265 H 0.59392 0.58894 0.82653 0.0
H266 H 0.54535 0.43498 0.81335 0.0
H267 H 0.51284 0.56971 0.82622 0.0
H268 H 0.37014 0.53565 0.81358 0.0
H269 H 0.45105 0.55381 0.81288 0.0
H270 H 0.48255 0.42019 0.82663 0.0
H271 H 0.40124 0.40151 0.82707 0.0
C272 C 0.60184 0.47953 0.81658 0.0
C273 C 0.61653 0.5229 0.82029 0.0
C274 C 0.55546 0.46859 0.81633 0.0
C275 C 0.5226 0.5007 0.8198 0.0
C276 C 0.53724 0.54432 0.82335 0.0
C277 C 0.58372 0.55534 0.82357 0.0
C278 C 0.39427 0.50997 0.81641 0.0
C279 C 0.37921 0.46711 0.82041 0.0
C280 C 0.4407 0.52056 0.81608 0.0
C281 C 0.47329 0.48865 0.81978 0.0
C282 C 0.45833 0.44542 0.8236 0.0
C283 C 0.41175 0.43473 0.82389 0.0
H284 H 0.54767 0.12404 0.07522 0.0
H285 H 0.40845 0.09711 0.06492 0.0
H286 H 0.56411 0.04299 0.0748 0.0
H287 H 0.42543 0.01587 0.06371 0.0
H288 H 0.4541 0.87186 0.07606 0.0
H289 H 0.43817 0.95292 0.07536 0.0
H290 H 0.57652 0.97851 0.06362 0.0
H291 H 0.59303 0.89718 0.0651 0.0
C292 C 0.52077 0.10069 0.07265 0.0
C293 C 0.47672 0.11676 0.07015 0.0
C294 C 0.53027 0.05412 0.07232 0.0
C295 C 0.49619 0.0225 0.06922 0.0
C296 C 0.45236 0.03893 0.06639 0.0
C297 C 0.4426 0.08552 0.067 0.0
C298 C 0.48107 0.89486 0.0733 0.0
C299 C 0.52484 0.87832 0.07066 0.0
C300 C 0.47185 0.94144 0.0728 0.0
C301 C 0.50591 0.97263 0.06939 0.0
C302 C 0.54959 0.95578 0.06651 0.0
C303 C 0.55909 0.90915 0.06728 0.0
H304 H 0.1256 0.53772 0.97065 0.0
H305 H 0.09495 0.40294 0.95745 0.0
H306 H 0.04449 0.55487 0.97156 0.0
H307 H 0.01361 0.4206 0.95806 0.0
H308 H 0.86959 0.45244 0.97028 0.0
H309 H 0.95067 0.43473 0.97117 0.0
H310 H 0.98259 0.56984 0.95834 0.0
H311 H 0.90148 0.58799 0.95777 0.0
C312 C 0.10152 0.51172 0.96793 0.0
C313 C 0.11672 0.46898 0.96394 0.0
C314 C 0.055 0.52169 0.96839 0.0
C315 C 0.02253 0.48927 0.96481 0.0
C316 C 0.03769 0.44619 0.96101 0.0
C317 C 0.08431 0.4361 0.96062 0.0
C318 C 0.89392 0.47849 0.96772 0.0
C319 C 0.8791 0.52164 0.96394 0.0
C320 C 0.9404 0.4682 0.96816 0.0
C321 C 0.97315 0.50075 0.96477 0.0
C322 C 0.95831 0.54415 0.96116 0.0
C323 C 0.9118 0.55453 0.96078 0.0
H324 H 0.4033 0.40027 0.20718 0.0
H325 H 0.53783 0.36991 0.22055 0.0
H326 H 0.42154 0.48149 0.20749 0.0
H327 H 0.55559 0.45093 0.22114 0.0
H328 H 0.58929 0.5941 0.20725 0.0
H329 H 0.57099 0.51289 0.2078 0.0
H330 H 0.4357 0.54426 0.22062 0.0
H331 H 0.45352 0.62521 0.21979 0.0
C332 C 0.43653 0.41094 0.21031 0.0
C333 C 0.46913 0.37863 0.21379 0.0
C334 C 0.44697 0.4575 0.21053 0.0
C335 C 0.49014 0.47271 0.21429 0.0
C336 C 0.52234 0.44036 0.218 0.0
C337 C 0.512 0.3939 0.21773 0.0
C338 C 0.55575 0.58361 0.21024 0.0
C339 C 0.52285 0.61612 0.21343 0.0
C340 C 0.54528 0.53707 0.2106 0.0
C341 C 0.50177 0.52207 0.21421 0.0
C342 C 0.46923 0.55464 0.2176 0.0
C343 C 0.4796 0.60108 0.2172 0.0
H344 H 0.37006 0.95716 0.47106 0.0
H345 H 0.40106 0.09134 0.45745 0.0
H346 H 0.45109 0.93943 0.47167 0.0
H347 H 0.48228 0.07311 0.45778 0.0
H348 H 0.62594 0.04115 0.47005 0.0
H349 H 0.54499 0.05899 0.47097 0.0
H350 H 0.51284 0.92396 0.45819 0.0
H351 H 0.59405 0.90564 0.45755 0.0
C352 C 0.39419 0.98293 0.4682 0.0
C353 C 0.37912 0.02567 0.46418 0.0
C354 C 0.44064 0.9726 0.46847 0.0
C355 C 0.47315 0.0047 0.4647 0.0
C356 C 0.45814 0.04778 0.46088 0.0
C357 C 0.41159 0.0582 0.46065 0.0
C358 C 0.60163 0.01513 0.46749 0.0
C359 C 0.61643 0.97196 0.4637 0.0
C360 C 0.55521 0.02551 0.46795 0.0
C361 C 0.52245 0.99304 0.46459 0.0
C362 C 0.5372 0.94959 0.46096 0.0
C363 C 0.58372 0.93912 0.46055 0.0
H364 H 0.08927 0.09675 0.71918 0.0
H365 H 0.95 0.12359 0.70902 0.0
H366 H 0.07197 0.01546 0.72043 0.0
H367 H 0.93325 0.04262 0.70945 0.0
H368 H 0.90306 0.89723 0.71917 0.0
H369 H 0.92035 0.97846 0.72062 0.0
H370 H 0.05866 0.95199 0.70905 0.0
H371 H 0.04194 0.87102 0.70842 0.0
C372 C 0.05507 0.08513 0.71713 0.0
C373 C 0.021 0.11638 0.71403 0.0
C374 C 0.04511 0.03851 0.71776 0.0
C375 C 0.00112 0.02207 0.715 0.0
C376 C 0.96718 0.05371 0.71191 0.0
C377 C 0.97688 0.10027 0.71156 0.0
C378 C 0.93716 0.90899 0.71702 0.0
C379 C 0.97114 0.87793 0.71371 0.0
C380 C 0.94712 0.95558 0.71777 0.0
C381 C 0.991 0.97219 0.71492 0.0
C382 C 0.02483 0.94075 0.71159 0.0
C383 C 0.01515 0.8942 0.71112 0.0
H384 H 0.62245 0.0451 0.32108 0.0
H385 H 0.59709 0.90715 0.33285 0.0
H386 H 0.54111 0.06084 0.32175 0.0
H387 H 0.51552 0.9234 0.33386 0.0
H388 H 0.37249 0.95281 0.31942 0.0
H389 H 0.45375 0.9369 0.32039 0.0
H390 H 0.47765 0.07095 0.33494 0.0
H391 H 0.39623 0.08746 0.33364 0.0
C392 C 0.59954 0.01824 0.32393 0.0
C393 C 0.61616 0.97478 0.32685 0.0
C394 C 0.5529 0.0274 0.3244 0.0
C395 C 0.52186 0.99339 0.32786 0.0
C396 C 0.53855 0.95013 0.331 0.0
C397 C 0.58526 0.94087 0.33047 0.0
C398 C 0.39502 0.97889 0.32286 0.0
C399 C 0.37799 0.02151 0.32639 0.0
C400 C 0.44159 0.9696 0.3235 0.0
C401 C 0.47215 0.00263 0.32775 0.0
C402 C 0.45502 0.04502 0.33147 0.0
C403 C 0.40839 0.05442 0.33077 0.0
H404 H 0.90746 0.89677 0.58266 0.0
H405 H 0.04556 0.87349 0.57064 0.0
H406 H 0.92313 0.97844 0.58379 0.0
H407 H 0.06071 0.95485 0.57145 0.0
H408 H 0.08713 0.09897 0.58358 0.0
H409 H 0.07069 0.01755 0.5848 0.0
H410 H 0.93623 0.04118 0.5705 0.0
H411 H 0.95211 0.12251 0.5696 0.0
C412 C 0.94109 0.90906 0.58025 0.0
C413 C 0.97521 0.8787 0.57654 0.0
C414 C 0.95001 0.95583 0.58084 0.0
C415 C 0.99317 0.97312 0.5777 0.0
C416 C 0.02736 0.94261 0.57412 0.0
C417 C 0.01853 0.89595 0.57357 0.0
C418 C 0.05401 0.08677 0.58075 0.0
C419 C 0.02101 0.11712 0.57645 0.0
C420 C 0.04465 0.04013 0.5814 0.0
C421 C 0.0022 0.02289 0.57771 0.0
C422 C 0.96901 0.0534 0.57357 0.0
C423 C 0.97827 0.10001 0.57298 0.0
H424 H 0.12384 0.54279 0.82015 0.0
H425 H 0.09726 0.40642 0.83292 0.0
H426 H 0.04261 0.55943 0.8208 0.0
H427 H 0.01592 0.42358 0.8339 0.0
H428 H 0.87304 0.4521 0.8195 0.0
H429 H 0.95425 0.43607 0.82037 0.0
H430 H 0.97912 0.57147 0.83395 0.0
H431 H 0.89763 0.58807 0.83276 0.0
C432 C 0.10069 0.51648 0.82321 0.0
C433 C 0.11693 0.47317 0.82641 0.0
C434 C 0.05413 0.52617 0.82366 0.0
C435 C 0.0228 0.49283 0.82739 0.0
C436 C 0.03915 0.44977 0.83082 0.0
C437 C 0.08575 0.43999 0.8303 0.0
C438 C 0.89576 0.47848 0.8227 0.0
C439 C 0.87893 0.52145 0.82601 0.0
C440 C 0.94232 0.46913 0.82329 0.0
C441 C 0.97314 0.50244 0.82725 0.0
C442 C 0.95628 0.54528 0.83071 0.0
C443 C 0.90961 0.55474 0.83007 0.0
H444 H 0.45135 0.6222 0.07073 0.0
H445 H 0.5883 0.59848 0.0834 0.0
H446 H 0.43583 0.54082 0.07152 0.0
H447 H 0.57224 0.51698 0.08455 0.0
H448 H 0.54588 0.37357 0.0703 0.0
H449 H 0.56077 0.45493 0.07117 0.0
H450 H 0.42459 0.47748 0.08463 0.0
H451 H 0.4091 0.3958 0.08341 0.0
C452 C 0.47801 0.59963 0.07381 0.0
C453 C 0.52117 0.61669 0.07693 0.0
C454 C 0.46897 0.55299 0.07434 0.0
C455 C 0.50279 0.52243 0.07809 0.0
C456 C 0.54568 0.53961 0.08145 0.0
C457 C 0.55485 0.58628 0.08083 0.0
C458 C 0.5191 0.39581 0.07349 0.0
C459 C 0.47622 0.3783 0.07674 0.0
C460 C 0.5278 0.44246 0.07407 0.0
C461 C 0.49392 0.47267 0.078 0.0
C462 C 0.4512 0.45511 0.08142 0.0
C463 C 0.44238 0.40835 0.08076 0.0
H464 H 0.39985 0.40521 0.96264 0.0
H465 H 0.37017 0.54283 0.95158 0.0
H466 H 0.48118 0.42222 0.96215 0.0
H467 H 0.45149 0.55934 0.95037 0.0
H468 H 0.59666 0.58953 0.96238 0.0
H469 H 0.51514 0.57302 0.96203 0.0
H470 H 0.54393 0.4358 0.95017 0.0
H471 H 0.62531 0.45179 0.95126 0.0
C472 C 0.41088 0.43889 0.95992 0.0
C473 C 0.37889 0.47278 0.9572 0.0
C474 C 0.45751 0.44865 0.95955 0.0
C475 C 0.47312 0.49225 0.95622 0.0
C476 C 0.44085 0.52574 0.95323 0.0
C477 C 0.39423 0.51623 0.95384 0.0
C478 C 0.58536 0.55596 0.95966 0.0
C479 C 0.61709 0.52183 0.95693 0.0
C480 C 0.53864 0.54648 0.95938 0.0
C481 C 0.52275 0.50293 0.95611 0.0
C482 C 0.55478 0.46933 0.95302 0.0
C483 C 0.60144 0.47854 0.95355 0.0
H484 H 0.44939 0.87197 0.21312 0.0
H485 H 0.58766 0.89747 0.20146 0.0
H486 H 0.43361 0.95322 0.21253 0.0
H487 H 0.57138 0.97896 0.20053 0.0
H488 H 0.54163 0.12205 0.21483 0.0
H489 H 0.55764 0.04086 0.21391 0.0
H490 H 0.42348 0.01661 0.19943 0.0
H491 H 0.40689 0.09796 0.20068 0.0
C492 C 0.47632 0.8949 0.21031 0.0
C493 C 0.51987 0.87832 0.20739 0.0
C494 C 0.46714 0.9415 0.20989 0.0
C495 C 0.50121 0.97258 0.20648 0.0
C496 C 0.54458 0.95592 0.20336 0.0
C497 C 0.55386 0.90925 0.20385 0.0
C498 C 0.51555 0.09945 0.21141 0.0
C499 C 0.47288 0.11639 0.20788 0.0
C500 C 0.52489 0.05291 0.21081 0.0
C501 C 0.49187 0.02226 0.20659 0.0
C502 C 0.44942 0.03929 0.20288 0.0
C503 C 0.43996 0.08589 0.20355 0.0
H504 H 0.89747 0.90713 0.45154 0.0
H505 H 0.8726 0.04522 0.46317 0.0
H506 H 0.97912 0.92334 0.45057 0.0
H507 H 0.954 0.06092 0.46254 0.0
H508 H 0.09898 0.08747 0.45065 0.0
H509 H 0.01751 0.07089 0.44935 0.0
H510 H 0.04091 0.93704 0.46403 0.0
H511 H 0.12224 0.95303 0.46501 0.0
C512 C 0.90943 0.94087 0.4539 0.0
C513 C 0.87864 0.97483 0.45746 0.0
C514 C 0.95618 0.95011 0.45339 0.0
C515 C 0.97302 0.99341 0.45649 0.0
C516 C 0.9421 0.02746 0.45991 0.0
C517 C 0.89542 0.01832 0.46036 0.0
C518 C 0.0867 0.05446 0.45355 0.0
C519 C 0.11698 0.02163 0.45796 0.0
C520 C 0.04004 0.04502 0.45285 0.0
C521 C 0.02276 0.00267 0.45661 0.0
C522 C 0.05319 0.96971 0.4609 0.0
C523 C 0.0998 0.97904 0.46154 0.0
H524 H 0.94963 0.37246 0.71436 0.0
H525 H 0.086 0.39649 0.70111 0.0
H526 H 0.93401 0.45372 0.7135 0.0
H527 H 0.06983 0.47796 0.69993 0.0
H528 H 0.04269 0.62198 0.714 0.0
H529 H 0.05829 0.54071 0.71326 0.0
H530 H 0.9222 0.5161 0.70007 0.0
H531 H 0.90605 0.59759 0.70113 0.0
C532 C 0.97616 0.39506 0.71115 0.0
C533 C 0.01916 0.3781 0.70786 0.0
C534 C 0.96706 0.44164 0.71058 0.0
C535 C 0.00065 0.47228 0.70664 0.0
C536 C 0.04344 0.45524 0.70316 0.0
C537 C 0.05265 0.40859 0.70379 0.0
C538 C 0.01609 0.59929 0.7109 0.0
C539 C 0.97302 0.61617 0.70768 0.0
C540 C 0.02518 0.55271 0.7104 0.0
C541 C 0.99151 0.52196 0.7066 0.0
C542 C 0.94865 0.5389 0.70319 0.0
C543 C 0.93945 0.58557 0.70375 0.0
H544 H 0.21793 0.15572 0.36319 0.0
H545 H 0.26325 0.01573 0.36189 0.0
H546 H 0.22097 0.15393 0.38447 0.0
H547 H 0.26822 0.01438 0.38324 0.0
H548 H 0.23174 0.01583 0.42246 0.0
H549 H 0.22677 0.01437 0.40111 0.0
H550 H 0.27419 0.15405 0.39982 0.0
H551 H 0.27722 0.15594 0.4211 0.0
C552 C 0.22871 0.12455 0.36746 0.0
C553 C 0.24044 0.08591 0.36084 0.0
C554 C 0.23085 0.12361 0.37969 0.0
C555 C 0.24543 0.08419 0.38564 0.0
C556 C 0.25641 0.04522 0.37901 0.0
C557 C 0.25371 0.046 0.36675 0.0
C558 C 0.24131 0.04611 0.41759 0.0
C559 C 0.25462 0.08608 0.42348 0.0
C560 C 0.23862 0.04526 0.40534 0.0
C561 C 0.24964 0.08423 0.39868 0.0
C562 C 0.26427 0.12372 0.40462 0.0
C563 C 0.26641 0.12473 0.41684 0.0
H564 H 0.83891 0.71762 0.61262 0.0
H565 H 0.97934 0.76271 0.61176 0.0
H566 H 0.83977 0.72019 0.63393 0.0
H567 H 0.97976 0.76725 0.63309 0.0
H568 H 0.97808 0.73015 0.67204 0.0
H569 H 0.97931 0.72517 0.65071 0.0
H570 H 0.83953 0.77216 0.64959 0.0
H571 H 0.83785 0.77517 0.67089 0.0
C572 C 0.86996 0.72824 0.61699 0.0
C573 C 0.90904 0.73997 0.61049 0.0
C574 C 0.87038 0.73012 0.62923 0.0
C575 C 0.90971 0.74438 0.6353 0.0
C576 C 0.94901 0.75556 0.62877 0.0
C577 C 0.94875 0.75313 0.61652 0.0
C578 C 0.9477 0.7396 0.66722 0.0
C579 C 0.90782 0.75291 0.67316 0.0
C580 C 0.94843 0.73691 0.65497 0.0
C581 C 0.90943 0.74798 0.64836 0.0
C582 C 0.86991 0.76231 0.65435 0.0
C583 C 0.86902 0.76444 0.66659 0.0
H584 H 0.27293 0.4735 0.86249 0.0
H585 H 0.22878 0.33289 0.86248 0.0
H586 H 0.27087 0.47393 0.8839 0.0
H587 H 0.22442 0.33381 0.8837 0.0
H588 H 0.26415 0.33248 0.92184 0.0
H589 H 0.26836 0.33357 0.90059 0.0
H590 H 0.22284 0.47382 0.90047 0.0
H591 H 0.22095 0.47321 0.92186 0.0
C592 C 0.26258 0.44278 0.86706 0.0
C593 C 0.25139 0.40308 0.86079 0.0
C594 C 0.261 0.44308 0.87934 0.0
C595 C 0.24756 0.40385 0.88562 0.0
C596 C 0.23597 0.36438 0.87926 0.0
C597 C 0.23823 0.36389 0.86704 0.0
C598 C 0.25484 0.36351 0.91728 0.0
C599 C 0.24206 0.40271 0.92354 0.0
C600 C 0.25704 0.36412 0.90505 0.0
C601 C 0.24574 0.40373 0.89871 0.0
C602 C 0.23253 0.44289 0.90501 0.0
C603 C 0.23103 0.44246 0.91728 0.0
H604 H 0.5217 0.7739 0.11243 0.0
H605 H 0.6626 0.73086 0.11226 0.0
H606 H 0.5212 0.77163 0.13379 0.0
H607 H 0.66162 0.72623 0.13351 0.0
H608 H 0.66149 0.76458 0.17185 0.0
H609 H 0.66129 0.76906 0.15061 0.0
H610 H 0.52084 0.72321 0.15016 0.0
H611 H 0.52055 0.72109 0.17154 0.0
C612 C 0.55251 0.76375 0.11696 0.0
C613 C 0.59226 0.75284 0.11065 0.0
C614 C 0.55215 0.76203 0.12923 0.0
C615 C 0.59135 0.74866 0.13547 0.0
C616 C 0.63102 0.7376 0.12909 0.0
C617 C 0.63156 0.74003 0.11686 0.0
C618 C 0.63059 0.75528 0.16722 0.0
C619 C 0.59105 0.74239 0.17339 0.0
C620 C 0.63051 0.75762 0.15499 0.0
C621 C 0.5911 0.74637 0.14856 0.0
C622 C 0.55163 0.73294 0.15476 0.0
C623 C 0.55153 0.73131 0.16703 0.0
H624 H 0.71945 0.6564 0.86287 0.0
H625 H 0.76568 0.51668 0.86176 0.0
H626 H 0.72295 0.65522 0.88416 0.0
H627 H 0.77115 0.51597 0.88309 0.0
H628 H 0.73413 0.51655 0.92209 0.0
H629 H 0.72941 0.5156 0.90078 0.0
H630 H 0.77521 0.65586 0.89974 0.0
H631 H 0.77794 0.65724 0.92106 0.0
C632 C 0.73054 0.62543 0.86719 0.0
C633 C 0.74228 0.58663 0.86062 0.0
C634 C 0.73296 0.62486 0.87942 0.0
C635 C 0.7478 0.58565 0.88542 0.0
C636 C 0.75904 0.54662 0.87882 0.0
C637 C 0.75605 0.54703 0.86658 0.0
C638 C 0.74341 0.54711 0.9173 0.0
C639 C 0.75626 0.58703 0.92327 0.0
C640 C 0.74089 0.54653 0.90505 0.0
C641 C 0.75165 0.58573 0.89847 0.0
C642 C 0.76561 0.6253 0.90448 0.0
C643 C 0.76758 0.62603 0.91673 0.0
H644 H 0.33771 0.27473 0.171 0.0
H645 H 0.47823 0.23069 0.17226 0.0
H646 H 0.33966 0.27179 0.14971 0.0
H647 H 0.47975 0.22578 0.15093 0.0
H648 H 0.47989 0.26313 0.11198 0.0
H649 H 0.48003 0.26782 0.1333 0.0
H650 H 0.34036 0.21981 0.13406 0.0
H651 H 0.33976 0.21708 0.11274 0.0
C652 C 0.36902 0.26424 0.16672 0.0
C653 C 0.40781 0.25294 0.17333 0.0
C654 C 0.37005 0.26215 0.15449 0.0
C655 C 0.40972 0.24808 0.14853 0.0
C656 C 0.44874 0.2373 0.15516 0.0
C657 C 0.44786 0.23995 0.16742 0.0
C658 C 0.44929 0.25339 0.11671 0.0
C659 C 0.40976 0.23988 0.11066 0.0
C660 C 0.4494 0.25589 0.12896 0.0
C661 C 0.41012 0.24446 0.13547 0.0
C662 C 0.37094 0.22992 0.12938 0.0
C663 C 0.37067 0.22796 0.11713 0.0
H664 H 0.77375 0.97517 0.36245 0.0
H665 H 0.73008 0.83441 0.36239 0.0
H666 H 0.77171 0.97554 0.38384 0.0
H667 H 0.7257 0.83527 0.38363 0.0
H668 H 0.7645 0.83454 0.42185 0.0
H669 H 0.76903 0.83531 0.40061 0.0
H670 H 0.72356 0.97558 0.40033 0.0
H671 H 0.72139 0.9753 0.42171 0.0
C672 C 0.76352 0.94438 0.36701 0.0
C673 C 0.75239 0.90469 0.36073 0.0
C674 C 0.76194 0.94466 0.37929 0.0
C675 C 0.74853 0.90542 0.38556 0.0
C676 C 0.73716 0.86587 0.3792 0.0
C677 C 0.73945 0.86541 0.36697 0.0
C678 C 0.75529 0.86552 0.41726 0.0
C679 C 0.74245 0.90482 0.42348 0.0
C680 C 0.75766 0.86594 0.40503 0.0
C681 C 0.74648 0.90546 0.39865 0.0
C682 C 0.73319 0.94472 0.4049 0.0
C683 C 0.73154 0.94449 0.41717 0.0
H684 H 0.01431 0.26396 0.6723 0.0
H685 H 0.15431 0.21817 0.67119 0.0
H686 H 0.01354 0.26902 0.65096 0.0
H687 H 0.15308 0.22129 0.6499 0.0
H688 H 0.15578 0.27702 0.61315 0.0
H689 H 0.15366 0.27413 0.63444 0.0
H690 H 0.01362 0.22745 0.63318 0.0
H691 H 0.01531 0.23229 0.61183 0.0
C692 C 0.04472 0.25436 0.66749 0.0
C693 C 0.08444 0.24088 0.67345 0.0
C694 C 0.04426 0.25709 0.65523 0.0
C695 C 0.08337 0.24595 0.64864 0.0
C696 C 0.12265 0.23127 0.65464 0.0
C697 C 0.12327 0.22908 0.66688 0.0
C698 C 0.12444 0.26641 0.61742 0.0
C699 C 0.08575 0.25481 0.61079 0.0
C700 C 0.1233 0.26435 0.62965 0.0
C701 C 0.08363 0.24999 0.6356 0.0
C702 C 0.04464 0.23912 0.62895 0.0
C703 C 0.04562 0.24174 0.61669 0.0
H704 H 0.25491 0.08135 0.2852 0.0
H705 H 0.29277 0.20893 0.30149 0.0
H706 H 0.27949 0.1112 0.26615 0.0
H707 H 0.318 0.23829 0.28248 0.0
H708 H 0.41348 0.23973 0.249 0.0
H709 H 0.3838 0.21515 0.26807 0.0
H710 H 0.25623 0.17718 0.25189 0.0
H711 H 0.2854 0.2024 0.23286 0.0
C712 C 0.26822 0.1158 0.28471 0.0
C713 C 0.27183 0.14278 0.29485 0.0
C714 C 0.28214 0.1329 0.27381 0.0
C715 C 0.30076 0.17699 0.27287 0.0
C716 C 0.30403 0.2041 0.28298 0.0
C717 C 0.28931 0.18734 0.29383 0.0
C718 C 0.37895 0.22656 0.24953 0.0
C719 C 0.35179 0.22308 0.23942 0.0
C720 C 0.36195 0.21263 0.26044 0.0
C721 C 0.31779 0.19414 0.26142 0.0
C722 C 0.29049 0.19104 0.25135 0.0
C723 C 0.30714 0.20576 0.24049 0.0
H724 H 0.74728 0.79027 0.48726 0.0
H725 H 0.80363 0.92264 0.49558 0.0
H726 H 0.7743 0.76091 0.5061 0.0
H727 H 0.83108 0.89301 0.51431 0.0
H728 H 0.92215 0.80489 0.53854 0.0
H729 H 0.89184 0.8327 0.51993 0.0
H730 H 0.7601 0.77514 0.52838 0.0
H731 H 0.79016 0.74773 0.54712 0.0
C732 C 0.76514 0.81316 0.49314 0.0
C733 C 0.77331 0.85879 0.48993 0.0
C734 C 0.7805 0.79635 0.50392 0.0
C735 C 0.80505 0.82461 0.51161 0.0
C736 C 0.81263 0.87037 0.50849 0.0
C737 C 0.7966 0.88739 0.49781 0.0
C738 C 0.88682 0.79781 0.5364 0.0
C739 C 0.85856 0.7741 0.54431 0.0
C740 C 0.86941 0.81406 0.52579 0.0
C741 C 0.82357 0.80631 0.52276 0.0
C742 C 0.79559 0.78149 0.5305 0.0
C743 C 0.8128 0.76589 0.54122 0.0
H744 H 0.20534 0.29277 0.73275 0.0
H745 H 0.07744 0.25579 0.74918 0.0
H746 H 0.23469 0.31856 0.75167 0.0
H747 H 0.10736 0.28092 0.76815 0.0
H748 H 0.20025 0.28584 0.80124 0.0
H749 H 0.17385 0.25722 0.78231 0.0
H750 H 0.21178 0.38472 0.76606 0.0
H751 H 0.23754 0.41391 0.78506 0.0
C752 C 0.18366 0.28965 0.74042 0.0
C753 C 0.13903 0.27217 0.73947 0.0
C754 C 0.20042 0.30471 0.75122 0.0
C755 C 0.17326 0.30182 0.76134 0.0
C756 C 0.12907 0.28331 0.76048 0.0
C757 C 0.11195 0.26904 0.74962 0.0
C758 C 0.20331 0.30771 0.79362 0.0
C759 C 0.22105 0.35218 0.79465 0.0
C760 C 0.1879 0.29137 0.78282 0.0
C761 C 0.19068 0.31879 0.77275 0.0
C762 C 0.20947 0.36281 0.77369 0.0
C763 C 0.2241 0.37952 0.78455 0.0
H764 H 0.74838 0.7048 0.98691 0.0
H765 H 0.68897 0.57353 0.99507 0.0
H766 H 0.72064 0.73469 1.00565 0.0
H767 H 0.66086 0.60369 1.01369 0.0
H768 H 0.57224 0.69199 0.03843 0.0
H769 H 0.60147 0.66467 0.01961 0.0
H770 H 0.73429 0.72003 0.02777 0.0
H771 H 0.70534 0.74694 0.04667 0.0
C772 C 0.72963 0.68228 0.99272 0.0
C773 C 0.72096 0.63676 0.98951 0.0
C774 C 0.71384 0.69939 1.00344 0.0
C775 C 0.68834 0.67159 1.01107 0.0
C776 C 0.68002 0.626 1.00792 0.0
C777 C 0.69646 0.60867 0.9973 0.0
C778 C 0.60756 0.69874 0.03617 0.0
C779 C 0.63648 0.7216 0.04405 0.0
C780 C 0.62435 0.68278 0.02544 0.0
C781 C 0.6702 0.69 0.02227 0.0
C782 C 0.69877 0.71412 0.02998 0.0
C783 C 0.68219 0.72942 0.0408 0.0
H784 H 0.29261 0.2468 0.04714 0.0
H785 H 0.42478 0.30358 0.03858 0.0
H786 H 0.2627 0.27415 0.0284 0.0
H787 H 0.39461 0.33131 0.01993 0.0
H788 H 0.30639 0.42112 0.99545 0.0
H789 H 0.33442 0.39159 1.01414 0.0
H790 H 0.27623 0.25981 1.00625 0.0
H791 H 0.2486 0.28906 0.98747 0.0
C792 C 0.31534 0.26485 0.04123 0.0
C793 C 0.36109 0.27297 0.04434 0.0
C794 C 0.29821 0.28042 0.03051 0.0
C795 C 0.32626 0.30513 0.02276 0.0
C796 C 0.37212 0.31277 0.0258 0.0
C797 C 0.38946 0.29655 0.03643 0.0
C798 C 0.29919 0.38597 0.99774 0.0
C799 C 0.27527 0.35743 0.98998 0.0
C800 C 0.31557 0.369 1.0084 0.0
C801 C 0.30773 0.32335 1.0116 0.0
C802 C 0.28265 0.29517 1.00401 0.0
C803 C 0.26693 0.31191 0.99326 0.0
H804 H 0.68972 0.92203 0.28871 0.0
H805 H 0.74601 0.78984 0.29703 0.0
H806 H 0.66201 0.89227 0.27001 0.0
H807 H 0.71873 0.76036 0.27823 0.0
H808 H 0.70413 0.74761 0.23721 0.0
H809 H 0.73341 0.77476 0.25605 0.0
H810 H 0.60142 0.83186 0.26419 0.0
H811 H 0.57185 0.80429 0.24546 0.0
C812 C 0.69665 0.88679 0.2865 0.0
C813 C 0.72006 0.85829 0.29436 0.0
C814 C 0.68045 0.86969 0.27584 0.0
C815 C 0.68799 0.82395 0.27272 0.0
C816 C 0.71255 0.79578 0.28041 0.0
C817 C 0.72807 0.81265 0.29117 0.0
C818 C 0.68125 0.76559 0.24307 0.0
C819 C 0.63566 0.77377 0.23985 0.0
C820 C 0.69801 0.78103 0.25385 0.0
C821 C 0.66976 0.80567 0.26153 0.0
C822 C 0.62405 0.81334 0.25838 0.0
C823 C 0.60706 0.79723 0.2477 0.0
H824 H 0.2401 0.08155 0.49912 0.0
H825 H 0.20297 0.20923 0.48283 0.0
H826 H 0.21546 0.1113 0.51815 0.0
H827 H 0.17769 0.2385 0.50183 0.0
H828 H 0.08171 0.23985 0.53518 0.0
H829 H 0.11162 0.21533 0.51615 0.0
H830 H 0.23867 0.17708 0.53248 0.0
H831 H 0.20925 0.20223 0.55148 0.0
C832 C 0.22695 0.116 0.49961 0.0
C833 C 0.22354 0.14303 0.48947 0.0
C834 C 0.213 0.13305 0.5105 0.0
C835 C 0.19456 0.17713 0.51144 0.0
C836 C 0.19152 0.2043 0.50133 0.0
C837 C 0.20626 0.1876 0.49048 0.0
C838 C 0.11617 0.22661 0.53469 0.0
C839 C 0.14311 0.22303 0.54483 0.0
C840 C 0.1333 0.21272 0.5238 0.0
C841 C 0.17739 0.1942 0.52287 0.0
C842 C 0.20448 0.19098 0.53298 0.0
C843 C 0.18769 0.20564 0.54382 0.0
H844 H 0.915 0.73913 0.7489 0.0
H845 H 0.78694 0.70208 0.73271 0.0
H846 H 0.88527 0.71406 0.76794 0.0
H847 H 0.75778 0.67636 0.75168 0.0
H848 H 0.75607 0.58012 0.78491 0.0
H849 H 0.78132 0.60999 0.76591 0.0
H850 H 0.81879 0.73725 0.7823 0.0
H851 H 0.79285 0.70792 0.80124 0.0
C852 C 0.88049 0.7259 0.74941 0.0
C853 C 0.85332 0.72268 0.7393 0.0
C854 C 0.86347 0.71168 0.7603 0.0
C855 C 0.81931 0.69313 0.76125 0.0
C856 C 0.79204 0.69025 0.75117 0.0
C857 C 0.80869 0.70526 0.74034 0.0
C858 C 0.76929 0.61461 0.78443 0.0
C859 C 0.77235 0.64167 0.79457 0.0
C860 C 0.78362 0.63171 0.77357 0.0
C861 C 0.80213 0.67586 0.77267 0.0
C862 C 0.80492 0.70301 0.78277 0.0
C863 C 0.78978 0.68628 0.79359 0.0
loop_
_geom_bond_atom_site_label_1
_geom_bond_atom_site_label_2
_geom_bond_distance
_geom_bond_site_symmetry_2
_ccdc_geom_bond_type
C0 O2 1.247 . S
C0 O4 1.258 . S
C1 O8 1.247 . S
C1 O9 1.258 . S
O2 C0 1.247 . S
O2 Zn3 2.028 . S
Zn3 O2 2.028 . S
Zn3 O7 2.035 . S
Zn3 O9 2.035 . S
Zn3 O10 2.028 . S
O4 C0 1.258 . S
O4 Zn5 2.035 . S
Zn5 O4 2.035 . S
Zn5 O6 2.028 . S
Zn5 O8 2.028 . S
Zn5 O11 2.035 . S
O6 Zn5 2.028 . S
O6 C12 1.247 . S
O7 Zn3 2.035 . S
O7 C12 1.258 . S
O8 C1 1.247 . S
O8 Zn5 2.028 . S
O9 C1 1.258 . S
O9 Zn3 2.035 . S
O10 Zn3 2.028 . S
O10 C13 1.247 . S
O11 Zn5 2.035 . S
O11 C13 1.258 . S
C12 O6 1.247 . S
C12 O7 1.258 . S
C13 O10 1.247 . S
C13 O11 1.258 . S
C14 O16 1.247 . S
C14 O18 1.258 . S
C15 O22 1.247 . S
C15 O23 1.258 . S
O16 C14 1.247 . S
O16 Zn17 2.028 . S
Zn17 O16 2.028 . S
Zn17 O21 2.035 . S
Zn17 O23 2.035 . S
Zn17 O24 2.028 . S
O18 C14 1.258 . S
O18 Zn19 2.035 . S
Zn19 O18 2.035 . S
Zn19 O20 2.028 . S
Zn19 O22 2.028 . S
Zn19 O25 2.035 . S
O20 Zn19 2.028 . S
O20 C26 1.247 . S
O21 Zn17 2.035 . S
O21 C26 1.258 . S
O22 C15 1.247 . S
O22 Zn19 2.028 . S
O23 C15 1.258 . S
O23 Zn17 2.035 . S
O24 Zn17 2.028 . S
O24 C27 1.247 . S
O25 Zn19 2.035 . S
O25 C27 1.258 . S
C26 O20 1.247 . S
C26 O21 1.258 . S
C27 O24 1.247 . S
C27 O25 1.258 . S
C28 O30 1.247 . S
C28 O32 1.258 . S
C29 O36 1.247 . S
C29 O37 1.258 . S
O30 C28 1.247 . S
O30 Zn31 2.028 . S
Zn31 O30 2.028 . S
Zn31 O35 2.035 . S
Zn31 O37 2.035 . S
Zn31 O38 2.028 . S
O32 C28 1.258 . S
O32 Zn33 2.035 . S
Zn33 O32 2.035 . S
Zn33 O34 2.028 . S
Zn33 O36 2.028 . S
Zn33 O39 2.035 . S
O34 Zn33 2.028 . S
O34 C40 1.247 . S
O35 Zn31 2.035 . S
O35 C40 1.258 . S
O36 C29 1.247 . S
O36 Zn33 2.028 . S
O37 C29 1.258 . S
O37 Zn31 2.035 . S
O38 Zn31 2.028 . S
O38 C41 1.247 . S
O39 Zn33 2.035 . S
O39 C41 1.258 . S
C40 O34 1.247 . S
C40 O35 1.258 . S
C41 O38 1.247 . S
C41 O39 1.258 . S
C42 O44 1.247 . S
C42 O46 1.258 . S
C43 O50 1.247 . S
C43 O51 1.258 . S
O44 C42 1.247 . S
O44 Zn45 2.028 . S
Zn45 O44 2.028 . S
Zn45 O49 2.035 . S
Zn45 O51 2.035 . S
Zn45 O52 2.028 . S
O46 C42 1.258 . S
O46 Zn47 2.035 . S
Zn47 O46 2.035 . S
Zn47 O48 2.028 . S
Zn47 O50 2.028 . S
Zn47 O53 2.035 . S
O48 Zn47 2.028 . S
O48 C54 1.247 . S
O49 Zn45 2.035 . S
O49 C54 1.258 . S
O50 C43 1.247 . S
O50 Zn47 2.028 . S
O51 C43 1.258 . S
O51 Zn45 2.035 . S
O52 Zn45 2.028 . S
O52 C55 1.247 . S
O53 Zn47 2.035 . S
O53 C55 1.258 . S
C54 O48 1.247 . S
C54 O49 1.258 . S
C55 O52 1.247 . S
C55 O53 1.258 . S
C56 O58 1.247 . S
C56 O60 1.258 . S
C57 O64 1.247 . S
C57 O65 1.258 . S
O58 C56 1.247 . S
O58 Zn59 2.028 . S
Zn59 O58 2.028 . S
Zn59 O63 2.035 . S
Zn59 O65 2.035 . S
Zn59 O66 2.028 . S
O60 C56 1.258 . S
O60 Zn61 2.035 . S
Zn61 O60 2.035 . S
Zn61 O62 2.028 . S
Zn61 O64 2.028 . S
Zn61 O67 2.035 . S
O62 Zn61 2.028 . S
O62 C68 1.247 . S
O63 Zn59 2.035 . S
O63 C68 1.258 . S
O64 C57 1.247 . S
O64 Zn61 2.028 . S
O65 C57 1.258 . S
O65 Zn59 2.035 . S
O66 Zn59 2.028 . S
O66 C69 1.247 . S
O67 Zn61 2.035 . S
O67 C69 1.258 . S
C68 O62 1.247 . S
C68 O63 1.258 . S
C69 O66 1.247 . S
C69 O67 1.258 . S
C70 O72 1.247 . S
C70 O74 1.258 . S
C71 O78 1.247 . S
C71 O79 1.258 . S
O72 C70 1.247 . S
O72 Zn73 2.028 . S
Zn73 O72 2.028 . S
Zn73 O77 2.035 . S
Zn73 O79 2.035 . S
Zn73 O80 2.028 . S
O74 C70 1.258 . S
O74 Zn75 2.035 . S
Zn75 O74 2.035 . S
Zn75 O76 2.028 . S
Zn75 O78 2.028 . S
Zn75 O81 2.035 . S
O76 Zn75 2.028 . S
O76 C82 1.247 . S
O77 Zn73 2.035 . S
O77 C82 1.258 . S
O78 C71 1.247 . S
O78 Zn75 2.028 . S
O79 C71 1.258 . S
O79 Zn73 2.035 . S
O80 Zn73 2.028 . S
O80 C83 1.247 . S
O81 Zn75 2.035 . S
O81 C83 1.258 . S
C82 O76 1.247 . S
C82 O77 1.258 . S
C83 O80 1.247 . S
C83 O81 1.258 . S
C84 O86 1.247 . S
C84 O88 1.258 . S
C85 O92 1.247 . S
C85 O93 1.258 . S
O86 C84 1.247 . S
O86 Zn87 2.028 . S
Zn87 O86 2.028 . S
Zn87 O91 2.035 . S
Zn87 O93 2.035 . S
Zn87 O94 2.028 . S
O88 C84 1.258 . S
O88 Zn89 2.035 . S
Zn89 O88 2.035 . S
Zn89 O90 2.028 . S
Zn89 O92 2.028 . S
Zn89 O95 2.035 . S
O90 Zn89 2.028 . S
O90 C96 1.247 . S
O91 Zn87 2.035 . S
O91 C96 1.258 . S
O92 C85 1.247 . S
O92 Zn89 2.028 . S
O93 C85 1.258 . S
O93 Zn87 2.035 . S
O94 Zn87 2.028 . S
O94 C97 1.247 . S
O95 Zn89 2.035 . S
O95 C97 1.258 . S
C96 O90 1.247 . S
C96 O91 1.258 . S
C97 O94 1.247 . S
C97 O95 1.258 . S
C98 O100 1.247 . S
C98 O102 1.258 . S
C99 O106 1.247 . S
C99 O107 1.258 . S
O100 C98 1.247 . S
O100 Zn101 2.028 . S
Zn101 O100 2.028 . S
Zn101 O105 2.035 . S
Zn101 O107 2.035 . S
Zn101 O108 2.028 . S
O102 C98 1.258 . S
O102 Zn103 2.035 . S
Zn103 O102 2.035 . S
Zn103 O104 2.028 . S
Zn103 O106 2.028 . S
Zn103 O109 2.035 . S
O104 Zn103 2.028 . S
O104 C110 1.247 . S
O105 Zn101 2.035 . S
O105 C110 1.258 . S
O106 C99 1.247 . S
O106 Zn103 2.028 . S
O107 C99 1.258 . S
O107 Zn101 2.035 . S
O108 Zn101 2.028 . S
O108 C111 1.247 . S
O109 Zn103 2.035 . S
O109 C111 1.258 . S
C110 O104 1.247 . S
C110 O105 1.258 . S
C111 O108 1.247 . S
C111 O109 1.258 . S
C112 O114 1.247 . S
C112 O116 1.258 . S
C113 O120 1.247 . S
C113 O121 1.258 . S
O114 C112 1.247 . S
O114 Zn115 2.028 . S
Zn115 O114 2.028 . S
Zn115 O119 2.035 . S
Zn115 O121 2.035 . S
Zn115 O122 2.028 . S
O116 C112 1.258 . S
O116 Zn117 2.035 . S
Zn117 O116 2.035 . S
Zn117 O118 2.028 . S
Zn117 O120 2.028 . S
Zn117 O123 2.035 . S
O118 Zn117 2.028 . S
O118 C124 1.247 . S
O119 Zn115 2.035 . S
O119 C124 1.258 . S
O120 C113 1.247 . S
O120 Zn117 2.028 . S
O121 C113 1.258 . S
O121 Zn115 2.035 . S
O122 Zn115 2.028 . S
O122 C125 1.247 . S
O123 Zn117 2.035 . S
O123 C125 1.258 . S
C124 O118 1.247 . S
C124 O119 1.258 . S
C125 O122 1.247 . S
C125 O123 1.258 . S
C126 O128 1.247 . S
C126 O130 1.258 . S
C127 O134 1.247 . S
C127 O135 1.258 . S
O128 C126 1.247 . S
O128 Zn129 2.028 . S
Zn129 O128 2.028 . S
Zn129 O133 2.035 . S
Zn129 O135 2.035 . S
Zn129 O136 2.028 . S
O130 C126 1.258 . S
O130 Zn131 2.035 . S
Zn131 O130 2.035 . S
Zn131 O132 2.028 . S
Zn131 O134 2.028 . S
Zn131 O137 2.035 . S
O132 Zn131 2.028 . S
O132 C138 1.247 . S
O133 Zn129 2.035 . S
O133 C138 1.258 . S
O134 C127 1.247 . S
O134 Zn131 2.028 . S
O135 C127 1.258 . S
O135 Zn129 2.035 . S
O136 Zn129 2.028 . S
O136 C139 1.247 . S
O137 Zn131 2.035 . S
O137 C139 1.258 . S
C138 O132 1.247 . S
C138 O133 1.258 . S
C139 O136 1.247 . S
C139 O137 1.258 . S
C140 O142 1.247 . S
C140 O144 1.258 . S
C141 O148 1.247 . S
C141 O149 1.258 . S
O142 C140 1.247 . S
O142 Zn143 2.028 . S
Zn143 O142 2.028 . S
Zn143 O147 2.035 . S
Zn143 O149 2.035 . S
Zn143 O150 2.028 . S
O144 C140 1.258 . S
O144 Zn145 2.035 . S
Zn145 O144 2.035 . S
Zn145 O146 2.028 . S
Zn145 O148 2.028 . S
Zn145 O151 2.035 . S
O146 Zn145 2.028 . S
O146 C152 1.247 . S
O147 Zn143 2.035 . S
O147 C152 1.258 . S
O148 C141 1.247 . S
O148 Zn145 2.028 . S
O149 C141 1.258 . S
O149 Zn143 2.035 . S
O150 Zn143 2.028 . S
O150 C153 1.247 . S
O151 Zn145 2.035 . S
O151 C153 1.258 . S
C152 O146 1.247 . S
C152 O147 1.258 . S
C153 O150 1.247 . S
C153 O151 1.258 . S
C154 O156 1.247 . S
C154 O158 1.258 . S
C155 O162 1.247 . S
C155 O163 1.258 . S
O156 C154 1.247 . S
O156 Zn157 2.028 . S
Zn157 O156 2.028 . S
Zn157 O161 2.035 . S
Zn157 O163 2.035 . S
Zn157 O164 2.028 . S
O158 C154 1.258 . S
O158 Zn159 2.035 . S
Zn159 O158 2.035 . S
Zn159 O160 2.028 . S
Zn159 O162 2.028 . S
Zn159 O165 2.035 . S
O160 Zn159 2.028 . S
O160 C166 1.247 . S
O161 Zn157 2.035 . S
O161 C166 1.258 . S
O162 C155 1.247 . S
O162 Zn159 2.028 . S
O163 C155 1.258 . S
O163 Zn157 2.035 . S
O164 Zn157 2.028 . S
O164 C167 1.247 . S
O165 Zn159 2.035 . S
O165 C167 1.258 . S
C166 O160 1.247 . S
C166 O161 1.258 . S
C167 O164 1.247 . S
C167 O165 1.258 . S
C168 O170 1.247 . S
C168 O172 1.258 . S
C169 O176 1.247 . S
C169 O177 1.258 . S
O170 C168 1.247 . S
O170 Zn171 2.028 . S
Zn171 O170 2.028 . S
Zn171 O175 2.035 . S
Zn171 O177 2.035 . S
Zn171 O178 2.028 . S
O172 C168 1.258 . S
O172 Zn173 2.035 . S
Zn173 O172 2.035 . S
Zn173 O174 2.028 . S
Zn173 O176 2.028 . S
Zn173 O179 2.035 . S
O174 Zn173 2.028 . S
O174 C180 1.247 . S
O175 Zn171 2.035 . S
O175 C180 1.258 . S
O176 C169 1.247 . S
O176 Zn173 2.028 . S
O177 C169 1.258 . S
O177 Zn171 2.035 . S
O178 Zn171 2.028 . S
O178 C181 1.247 . S
O179 Zn173 2.035 . S
O179 C181 1.258 . S
C180 O174 1.247 . S
C180 O175 1.258 . S
C181 O178 1.247 . S
C181 O179 1.258 . S
C182 O184 1.247 . S
C182 O186 1.258 . S
C183 O190 1.247 . S
C183 O191 1.258 . S
O184 C182 1.247 . S
O184 Zn185 2.028 . S
Zn185 O184 2.028 . S
Zn185 O189 2.035 . S
Zn185 O191 2.035 . S
Zn185 O192 2.028 . S
O186 C182 1.258 . S
O186 Zn187 2.035 . S
Zn187 O186 2.035 . S
Zn187 O188 2.028 . S
Zn187 O190 2.028 . S
Zn187 O193 2.035 . S
O188 Zn187 2.028 . S
O188 C194 1.247 . S
O189 Zn185 2.035 . S
O189 C194 1.258 . S
O190 C183 1.247 . S
O190 Zn187 2.028 . S
O191 C183 1.258 . S
O191 Zn185 2.035 . S
O192 Zn185 2.028 . S
O192 C195 1.247 . S
O193 Zn187 2.035 . S
O193 C195 1.258 . S
C194 O188 1.247 . S
C194 O189 1.258 . S
C195 O192 1.247 . S
C195 O193 1.258 . S
C196 O198 1.247 . S
C196 O200 1.258 . S
C197 O204 1.247 . S
C197 O205 1.258 . S
O198 C196 1.247 . S
O198 Zn199 2.028 . S
Zn199 O198 2.028 . S
Zn199 O203 2.035 . S
Zn199 O205 2.035 . S
Zn199 O206 2.028 . S
O200 C196 1.258 . S
O200 Zn201 2.035 . S
Zn201 O200 2.035 . S
Zn201 O202 2.028 . S
Zn201 O204 2.028 . S
Zn201 O207 2.035 . S
O202 Zn201 2.028 . S
O202 C208 1.247 . S
O203 Zn199 2.035 . S
O203 C208 1.258 . S
O204 C197 1.247 . S
O204 Zn201 2.028 . S
O205 C197 1.258 . S
O205 Zn199 2.035 . S
O206 Zn199 2.028 . S
O206 C209 1.247 . S
O207 Zn201 2.035 . S
O207 C209 1.258 . S
C208 O202 1.247 . S
C208 O203 1.258 . S
C209 O206 1.247 . S
C209 O207 1.258 . S
C210 O212 1.247 . S
C210 O214 1.258 . S
C211 O218 1.247 . S
C211 O219 1.258 . S
O212 C210 1.247 . S
O212 Zn213 2.028 . S
Zn213 O212 2.028 . S
Zn213 O217 2.035 . S
Zn213 O219 2.035 . S
Zn213 O220 2.028 . S
O214 C210 1.258 . S
O214 Zn215 2.035 . S
Zn215 O214 2.035 . S
Zn215 O216 2.028 . S
Zn215 O218 2.028 . S
Zn215 O221 2.035 . S
O216 Zn215 2.028 . S
O216 C222 1.247 . S
O217 Zn213 2.035 . S
O217 C222 1.258 . S
O218 C211 1.247 . S
O218 Zn215 2.028 . S
O219 C211 1.258 . S
O219 Zn213 2.035 . S
O220 Zn213 2.028 . S
O220 C223 1.247 . S
O221 Zn215 2.035 . S
O221 C223 1.258 . S
C222 O216 1.247 . S
C222 O217 1.258 . S
C223 O220 1.247 . S
C223 O221 1.258 . S
H224 C232 0.950 . S
H225 C237 0.950 . S
H226 C234 0.950 . S
H227 C236 0.950 . S
H228 C238 0.950 . S
H229 C240 0.950 . S
H230 C242 0.950 . S
H231 C243 0.950 . S
C232 H224 0.950 . S
C232 C233 1.386 . S
C232 C234 1.391 . S
C233 C232 1.386 . S
C233 C237 1.393 . S
C234 H226 0.950 . S
C234 C232 1.391 . S
C234 C235 1.400 . S
C235 C234 1.400 . S
C235 C236 1.398 1_565 S
C235 C241 1.491 1_665 S
C236 H227 0.950 . S
C236 C235 1.398 1_545 S
C236 C237 1.391 1_545 S
C237 H225 0.950 . S
C237 C233 1.393 . S
C237 C236 1.391 1_565 S
C238 H228 0.950 . S
C238 C239 1.386 . S
C238 C240 1.391 . S
C239 C238 1.386 . S
C239 C243 1.393 . S
C240 H229 0.950 . S
C240 C238 1.391 . S
C240 C241 1.400 . S
C241 C235 1.491 1_445 S
C241 C240 1.400 . S
C241 C242 1.398 1_545 S
C242 H230 0.950 . S
C242 C241 1.398 1_565 S
C242 C243 1.391 1_565 S
C243 H231 0.950 . S
C243 C239 1.393 . S
C243 C242 1.391 1_545 S
H244 C252 0.950 . S
H245 C257 0.950 . S
H246 C254 0.950 . S
H247 C256 0.950 . S
H248 C258 0.950 . S
H249 C260 0.950 . S
H250 C262 0.950 . S
H251 C263 0.950 . S
C252 H244 0.950 . S
C252 C253 1.386 . S
C252 C254 1.391 . S
C253 C252 1.386 . S
C253 C257 1.393 . S
C254 H246 0.950 . S
C254 C252 1.391 . S
C254 C255 1.400 . S
C255 C254 1.400 . S
C255 C256 1.398 . S
C255 C261 1.491 1_655 S
C256 H247 0.950 . S
C256 C255 1.398 . S
C256 C257 1.391 . S
C257 H245 0.950 . S
C257 C253 1.393 . S
C257 C256 1.391 . S
C258 H248 0.950 . S
C258 C259 1.386 . S
C258 C260 1.391 . S
C259 C258 1.386 . S
C259 C263 1.393 . S
C260 H249 0.950 . S
C260 C258 1.391 . S
C260 C261 1.400 . S
C261 C255 1.491 1_455 S
C261 C260 1.400 . S
C261 C262 1.398 . S
C262 H250 0.950 . S
C262 C261 1.398 . S
C262 C263 1.391 . S
C263 H251 0.950 . S
C263 C259 1.393 . S
C263 C262 1.391 . S
H264 C272 0.950 . S
H265 C277 0.950 . S
H266 C274 0.950 . S
H267 C276 0.950 . S
H268 C278 0.950 . S
H269 C280 0.950 . S
H270 C282 0.950 . S
H271 C283 0.950 . S
C272 H264 0.950 . S
C272 C273 1.386 . S
C272 C274 1.391 . S
C273 C272 1.386 . S
C273 C277 1.393 . S
C274 H266 0.950 . S
C274 C272 1.391 . S
C274 C275 1.400 . S
C275 C274 1.400 . S
C275 C276 1.398 . S
C275 C281 1.491 . S
C276 H267 0.950 . S
C276 C275 1.398 . S
C276 C277 1.391 . S
C277 H265 0.950 . S
C277 C273 1.393 . S
C277 C276 1.391 . S
C278 H268 0.950 . S
C278 C279 1.386 . S
C278 C280 1.391 . S
C279 C278 1.386 . S
C279 C283 1.393 . S
C280 H269 0.950 . S
C280 C278 1.391 . S
C280 C281 1.400 . S
C281 C275 1.491 . S
C281 C280 1.400 . S
C281 C282 1.398 . S
C282 H270 0.950 . S
C282 C281 1.398 . S
C282 C283 1.391 . S
C283 H271 0.950 . S
C283 C279 1.393 . S
C283 C282 1.391 . S
H284 C292 0.950 . S
H285 C297 0.950 . S
H286 C294 0.950 . S
H287 C296 0.950 1_565 S
H288 C298 0.950 . S
H289 C300 0.950 . S
H290 C302 0.950 1_545 S
H291 C303 0.950 . S
C292 H284 0.950 . S
C292 C293 1.386 . S
C292 C294 1.391 . S
C293 C292 1.386 . S
C293 C297 1.393 . S
C294 H286 0.950 . S
C294 C292 1.391 . S
C294 C295 1.400 . S
C295 C294 1.400 . S
C295 C296 1.398 . S
C295 C301 1.491 1_545 S
C296 H287 0.950 1_545 S
C296 C295 1.398 . S
C296 C297 1.391 . S
C297 H285 0.950 . S
C297 C293 1.393 . S
C297 C296 1.391 . S
C298 H288 0.950 . S
C298 C299 1.386 . S
C298 C300 1.391 . S
C299 C298 1.386 . S
C299 C303 1.393 . S
C300 H289 0.950 . S
C300 C298 1.391 . S
C300 C301 1.400 . S
C301 C295 1.491 1_565 S
C301 C300 1.400 . S
C301 C302 1.398 . S
C302 H290 0.950 1_565 S
C302 C301 1.398 . S
C302 C303 1.391 . S
C303 H291 0.950 . S
C303 C299 1.393 . S
C303 C302 1.391 . S
H304 C312 0.950 . S
H305 C317 0.950 . S
H306 C314 0.950 . S
H307 C316 0.950 . S
H308 C318 0.950 . S
H309 C320 0.950 . S
H310 C322 0.950 . S
H311 C323 0.950 . S
C312 H304 0.950 . S
C312 C313 1.386 . S
C312 C314 1.391 . S
C313 C312 1.386 . S
C313 C317 1.393 . S
C314 H306 0.950 . S
C314 C312 1.391 . S
C314 C315 1.400 . S
C315 C314 1.400 . S
C315 C316 1.398 . S
C315 C321 1.491 1_455 S
C316 H307 0.950 . S
C316 C315 1.398 . S
C316 C317 1.391 . S
C317 H305 0.950 . S
C317 C313 1.393 . S
C317 C316 1.391 . S
C318 H308 0.950 . S
C318 C319 1.386 . S
C318 C320 1.391 . S
C319 C318 1.386 . S
C319 C323 1.393 . S
C320 H309 0.950 . S
C320 C318 1.391 . S
C320 C321 1.400 . S
C321 C315 1.491 1_655 S
C321 C320 1.400 . S
C321 C322 1.398 . S
C322 H310 0.950 . S
C322 C321 1.398 . S
C322 C323 1.391 . S
C323 H311 0.950 . S
C323 C319 1.393 . S
C323 C322 1.391 . S
H324 C332 0.950 . S
H325 C337 0.950 . S
H326 C334 0.950 . S
H327 C336 0.950 . S
H328 C338 0.950 . S
H329 C340 0.950 . S
H330 C342 0.950 . S
H331 C343 0.950 . S
C332 H324 0.950 . S
C332 C333 1.386 . S
C332 C334 1.391 . S
C333 C332 1.386 . S
C333 C337 1.393 . S
C334 H326 0.950 . S
C334 C332 1.391 . S
C334 C335 1.400 . S
C335 C334 1.400 . S
C335 C336 1.398 . S
C335 C341 1.491 . S
C336 H327 0.950 . S
C336 C335 1.398 . S
C336 C337 1.391 . S
C337 H325 0.950 . S
C337 C333 1.393 . S
C337 C336 1.391 . S
C338 H328 0.950 . S
C338 C339 1.386 . S
C338 C340 1.391 . S
C339 C338 1.386 . S
C339 C343 1.393 . S
C340 H329 0.950 . S
C340 C338 1.391 . S
C340 C341 1.400 . S
C341 C335 1.491 . S
C341 C340 1.400 . S
C341 C342 1.398 . S
C342 H330 0.950 . S
C342 C341 1.398 . S
C342 C343 1.391 . S
C343 H331 0.950 . S
C343 C339 1.393 . S
C343 C342 1.391 . S
H344 C352 0.950 . S
H345 C357 0.950 . S
H346 C354 0.950 1_565 S
H347 C356 0.950 . S
H348 C358 0.950 . S
H349 C360 0.950 1_545 S
H350 C362 0.950 . S
H351 C363 0.950 . S
C352 H344 0.950 . S
C352 C353 1.386 . S
C352 C354 1.391 . S
C353 C352 1.386 . S
C353 C357 1.393 . S
C354 H346 0.950 1_545 S
C354 C352 1.391 . S
C354 C355 1.400 . S
C355 C354 1.400 . S
C355 C356 1.398 . S
C355 C361 1.491 1_545 S
C356 H347 0.950 . S
C356 C355 1.398 . S
C356 C357 1.391 . S
C357 H345 0.950 . S
C357 C353 1.393 . S
C357 C356 1.391 . S
C358 H348 0.950 . S
C358 C359 1.386 . S
C358 C360 1.391 . S
C359 C358 1.386 . S
C359 C363 1.393 . S
C360 H349 0.950 1_565 S
C360 C358 1.391 . S
C360 C361 1.400 . S
C361 C355 1.491 1_565 S
C361 C360 1.400 . S
C361 C362 1.398 . S
C362 H350 0.950 . S
C362 C361 1.398 . S
C362 C363 1.391 . S
C363 H351 0.950 . S
C363 C359 1.393 . S
C363 C362 1.391 . S
H364 C372 0.950 . S
H365 C377 0.950 1_655 S
H366 C374 0.950 1_565 S
H367 C376 0.950 . S
H368 C378 0.950 . S
H369 C380 0.950 1_545 S
H370 C382 0.950 . S
H371 C383 0.950 1_455 S
C372 H364 0.950 . S
C372 C373 1.386 . S
C372 C374 1.391 . S
C373 C372 1.386 . S
C373 C377 1.393 . S
C374 H366 0.950 1_545 S
C374 C372 1.391 . S
C374 C375 1.400 . S
C375 C374 1.400 . S
C375 C376 1.398 1_455 S
C375 C381 1.491 1_445 S
C376 H367 0.950 . S
C376 C375 1.398 1_655 S
C376 C377 1.391 1_655 S
C377 H365 0.950 1_455 S
C377 C373 1.393 . S
C377 C376 1.391 1_455 S
C378 H368 0.950 . S
C378 C379 1.386 . S
C378 C380 1.391 . S
C379 C378 1.386 . S
C379 C383 1.393 . S
C380 H369 0.950 1_565 S
C380 C378 1.391 . S
C380 C381 1.400 . S
C381 C375 1.491 1_665 S
C381 C380 1.400 . S
C381 C382 1.398 1_655 S
C382 H370 0.950 . S
C382 C381 1.398 1_455 S
C382 C383 1.391 1_455 S
C383 H371 0.950 1_655 S
C383 C379 1.393 . S
C383 C382 1.391 1_655 S
H384 C392 0.950 . S
H385 C397 0.950 . S
H386 C394 0.950 . S
H387 C396 0.950 . S
H388 C398 0.950 . S
H389 C400 0.950 . S
H390 C402 0.950 . S
H391 C403 0.950 . S
C392 H384 0.950 . S
C392 C393 1.386 . S
C392 C394 1.391 . S
C393 C392 1.386 . S
C393 C397 1.393 . S
C394 H386 0.950 . S
C394 C392 1.391 . S
C394 C395 1.400 . S
C395 C394 1.400 . S
C395 C396 1.398 . S
C395 C401 1.491 1_565 S
C396 H387 0.950 . S
C396 C395 1.398 . S
C396 C397 1.391 . S
C397 H385 0.950 . S
C397 C393 1.393 . S
C397 C396 1.391 . S
C398 H388 0.950 . S
C398 C399 1.386 . S
C398 C400 1.391 . S
C399 C398 1.386 . S
C399 C403 1.393 . S
C400 H389 0.950 . S
C400 C398 1.391 . S
C400 C401 1.400 . S
C401 C395 1.491 1_545 S
C401 C400 1.400 . S
C401 C402 1.398 . S
C402 H390 0.950 . S
C402 C401 1.398 . S
C402 C403 1.391 . S
C403 H391 0.950 . S
C403 C399 1.393 . S
C403 C402 1.391 . S
H404 C412 0.950 . S
H405 C417 0.950 . S
H406 C414 0.950 1_545 S
H407 C416 0.950 . S
H408 C418 0.950 . S
H409 C420 0.950 1_565 S
H410 C422 0.950 . S
H411 C423 0.950 . S
C412 H404 0.950 . S
C412 C413 1.386 . S
C412 C414 1.391 . S
C413 C412 1.386 . S
C413 C417 1.393 . S
C414 H406 0.950 1_565 S
C414 C412 1.391 . S
C414 C415 1.400 . S
C415 C414 1.400 . S
C415 C416 1.398 1_655 S
C415 C421 1.491 1_665 S
C416 H407 0.950 . S
C416 C415 1.398 1_455 S
C416 C417 1.391 1_455 S
C417 H405 0.950 . S
C417 C413 1.393 . S
C417 C416 1.391 1_655 S
C418 H408 0.950 . S
C418 C419 1.386 . S
C418 C420 1.391 . S
C419 C418 1.386 . S
C419 C423 1.393 . S
C420 H409 0.950 1_545 S
C420 C418 1.391 . S
C420 C421 1.400 . S
C421 C415 1.491 1_445 S
C421 C420 1.400 . S
C421 C422 1.398 1_455 S
C422 H410 0.950 . S
C422 C421 1.398 1_655 S
C422 C423 1.391 1_655 S
C423 H411 0.950 . S
C423 C419 1.393 . S
C423 C422 1.391 1_455 S
H424 C432 0.950 . S
H425 C437 0.950 . S
H426 C434 0.950 . S
H427 C436 0.950 1_655 S
H428 C438 0.950 . S
H429 C440 0.950 . S
H430 C442 0.950 1_455 S
H431 C443 0.950 . S
C432 H424 0.950 . S
C432 C433 1.386 . S
C432 C434 1.391 . S
C433 C432 1.386 . S
C433 C437 1.393 . S
C434 H426 0.950 . S
C434 C432 1.391 . S
C434 C435 1.400 . S
C435 C434 1.400 . S
C435 C436 1.398 . S
C435 C441 1.491 1_455 S
C436 H427 0.950 1_455 S
C436 C435 1.398 . S
C436 C437 1.391 . S
C437 H425 0.950 . S
C437 C433 1.393 . S
C437 C436 1.391 . S
C438 H428 0.950 . S
C438 C439 1.386 . S
C438 C440 1.391 . S
C439 C438 1.386 . S
C439 C443 1.393 . S
C440 H429 0.950 . S
C440 C438 1.391 . S
C440 C441 1.400 . S
C441 C435 1.491 1_655 S
C441 C440 1.400 . S
C441 C442 1.398 . S
C442 H430 0.950 1_655 S
C442 C441 1.398 . S
C442 C443 1.391 . S
C443 H431 0.950 . S
C443 C439 1.393 . S
C443 C442 1.391 . S
H444 C452 0.950 . S
H445 C457 0.950 . S
H446 C454 0.950 . S
H447 C456 0.950 . S
H448 C458 0.950 . S
H449 C460 0.950 . S
H450 C462 0.950 . S
H451 C463 0.950 . S
C452 H444 0.950 . S
C452 C453 1.386 . S
C452 C454 1.391 . S
C453 C452 1.386 . S
C453 C457 1.393 . S
C454 H446 0.950 . S
C454 C452 1.391 . S
C454 C455 1.400 . S
C455 C454 1.400 . S
C455 C456 1.398 . S
C455 C461 1.491 . S
C456 H447 0.950 . S
C456 C455 1.398 . S
C456 C457 1.391 . S
C457 H445 0.950 . S
C457 C453 1.393 . S
C457 C456 1.391 . S
C458 H448 0.950 . S
C458 C459 1.386 . S
C458 C460 1.391 . S
C459 C458 1.386 . S
C459 C463 1.393 . S
C460 H449 0.950 . S
C460 C458 1.391 . S
C460 C461 1.400 . S
C461 C455 1.491 . S
C461 C460 1.400 . S
C461 C462 1.398 . S
C462 H450 0.950 . S
C462 C461 1.398 . S
C462 C463 1.391 . S
C463 H451 0.950 . S
C463 C459 1.393 . S
C463 C462 1.391 . S
H464 C472 0.950 . S
H465 C477 0.950 . S
H466 C474 0.950 . S
H467 C476 0.950 . S
H468 C478 0.950 . S
H469 C480 0.950 . S
H470 C482 0.950 . S
H471 C483 0.950 . S
C472 H464 0.950 . S
C472 C473 1.386 . S
C472 C474 1.391 . S
C473 C472 1.386 . S
C473 C477 1.393 . S
C474 H466 0.950 . S
C474 C472 1.391 . S
C474 C475 1.400 . S
C475 C474 1.400 . S
C475 C476 1.398 . S
C475 C481 1.491 . S
C476 H467 0.950 . S
C476 C475 1.398 . S
C476 C477 1.391 . S
C477 H465 0.950 . S
C477 C473 1.393 . S
C477 C476 1.391 . S
C478 H468 0.950 . S
C478 C479 1.386 . S
C478 C480 1.391 . S
C479 C478 1.386 . S
C479 C483 1.393 . S
C480 H469 0.950 . S
C480 C478 1.391 . S
C480 C481 1.400 . S
C481 C475 1.491 . S
C481 C480 1.400 . S
C481 C482 1.398 . S
C482 H470 0.950 . S
C482 C481 1.398 . S
C482 C483 1.391 . S
C483 H471 0.950 . S
C483 C479 1.393 . S
C483 C482 1.391 . S
H484 C492 0.950 . S
H485 C497 0.950 . S
H486 C494 0.950 . S
H487 C496 0.950 . S
H488 C498 0.950 . S
H489 C500 0.950 . S
H490 C502 0.950 . S
H491 C503 0.950 . S
C492 H484 0.950 . S
C492 C493 1.386 . S
C492 C494 1.391 . S
C493 C492 1.386 . S
C493 C497 1.393 . S
C494 H486 0.950 . S
C494 C492 1.391 . S
C494 C495 1.400 . S
C495 C494 1.400 . S
C495 C496 1.398 . S
C495 C501 1.491 1_565 S
C496 H487 0.950 . S
C496 C495 1.398 . S
C496 C497 1.391 . S
C497 H485 0.950 . S
C497 C493 1.393 . S
C497 C496 1.391 . S
C498 H488 0.950 . S
C498 C499 1.386 . S
C498 C500 1.391 . S
C499 C498 1.386 . S
C499 C503 1.393 . S
C500 H489 0.950 . S
C500 C498 1.391 . S
C500 C501 1.400 . S
C501 C495 1.491 1_545 S
C501 C500 1.400 . S
C501 C502 1.398 . S
C502 H490 0.950 . S
C502 C501 1.398 . S
C502 C503 1.391 . S
C503 H491 0.950 . S
C503 C499 1.393 . S
C503 C502 1.391 . S
H504 C512 0.950 . S
H505 C517 0.950 . S
H506 C514 0.950 . S
H507 C516 0.952 1_545 S
H508 C518 0.950 . S
H509 C520 0.950 . S
H510 C522 0.952 1_565 S
H511 C523 0.950 . S
C512 H504 0.950 . S
C512 C513 1.386 . S
C512 C514 1.391 . S
C513 C512 1.386 . S
C513 C517 1.393 . S
C514 H506 0.950 . S
C514 C512 1.391 . S
C514 C515 1.400 . S
C515 C514 1.400 . S
C515 C516 1.398 . S
C515 C521 1.491 1_665 S
C516 H507 0.952 1_565 S
C516 C515 1.398 . S
C516 C517 1.390 . S
C517 H505 0.950 . S
C517 C513 1.393 . S
C517 C516 1.390 . S
C518 H508 0.950 . S
C518 C519 1.386 . S
C518 C520 1.391 . S
C519 C518 1.386 . S
C519 C523 1.393 . S
C520 H509 0.950 . S
C520 C518 1.391 . S
C520 C521 1.400 . S
C521 C515 1.491 1_445 S
C521 C520 1.400 . S
C521 C522 1.398 . S
C522 H510 0.952 1_545 S
C522 C521 1.398 . S
C522 C523 1.390 . S
C523 H511 0.950 . S
C523 C519 1.393 . S
C523 C522 1.390 . S
H524 C532 0.950 . S
H525 C537 0.950 . S
H526 C534 0.950 . S
H527 C536 0.950 . S
H528 C538 0.950 . S
H529 C540 0.950 . S
H530 C542 0.950 . S
H531 C543 0.950 . S
C532 H524 0.950 . S
C532 C533 1.386 . S
C532 C534 1.391 . S
C533 C532 1.386 . S
C533 C537 1.393 . S
C534 H526 0.950 . S
C534 C532 1.391 . S
C534 C535 1.400 . S
C535 C534 1.400 . S
C535 C536 1.398 . S
C535 C541 1.491 1_455 S
C536 H527 0.950 . S
C536 C535 1.398 . S
C536 C537 1.391 . S
C537 H525 0.950 . S
C537 C533 1.393 . S
C537 C536 1.391 . S
C538 H528 0.950 . S
C538 C539 1.386 . S
C538 C540 1.391 . S
C539 C538 1.386 . S
C539 C543 1.393 . S
C540 H529 0.950 . S
C540 C538 1.391 . S
C540 C541 1.400 . S
C541 C535 1.491 1_655 S
C541 C540 1.400 . S
C541 C542 1.398 . S
C542 H530 0.950 . S
C542 C541 1.398 . S
C542 C543 1.391 . S
C543 H531 0.950 . S
C543 C539 1.393 . S
C543 C542 1.391 . S
H544 C552 0.950 . S
H545 C557 0.950 . S
H546 C554 0.950 . S
H547 C556 0.950 . S
H548 C558 0.950 . S
H549 C560 0.950 . S
H550 C562 0.950 . S
H551 C563 0.950 . S
C552 H544 0.950 . S
C552 C553 1.386 . S
C552 C554 1.391 . S
C553 C552 1.386 . S
C553 C557 1.393 . S
C554 H546 0.950 . S
C554 C552 1.391 . S
C554 C555 1.400 . S
C555 C554 1.400 . S
C555 C556 1.398 . S
C555 C561 1.491 . S
C556 H547 0.950 . S
C556 C555 1.398 . S
C556 C557 1.391 . S
C557 H545 0.950 . S
C557 C553 1.393 . S
C557 C556 1.391 . S
C558 H548 0.950 . S
C558 C559 1.386 . S
C558 C560 1.391 . S
C559 C558 1.386 . S
C559 C563 1.393 . S
C560 H549 0.950 . S
C560 C558 1.391 . S
C560 C561 1.400 . S
C561 C555 1.491 . S
C561 C560 1.400 . S
C561 C562 1.398 . S
C562 H550 0.950 . S
C562 C561 1.398 . S
C562 C563 1.391 . S
C563 H551 0.950 . S
C563 C559 1.393 . S
C563 C562 1.391 . S
H564 C572 0.950 . S
H565 C577 0.950 . S
H566 C574 0.950 . S
H567 C576 0.950 . S
H568 C578 0.950 . S
H569 C580 0.950 . S
H570 C582 0.950 . S
H571 C583 0.950 . S
C572 H564 0.950 . S
C572 C573 1.386 . S
C572 C574 1.391 . S
C573 C572 1.386 . S
C573 C577 1.393 . S
C574 H566 0.950 . S
C574 C572 1.391 . S
C574 C575 1.400 . S
C575 C574 1.400 . S
C575 C576 1.398 . S
C575 C581 1.491 . S
C576 H567 0.950 . S
C576 C575 1.398 . S
C576 C577 1.391 . S
C577 H565 0.950 . S
C577 C573 1.393 . S
C577 C576 1.391 . S
C578 H568 0.950 . S
C578 C579 1.386 . S
C578 C580 1.391 . S
C579 C578 1.386 . S
C579 C583 1.393 . S
C580 H569 0.950 . S
C580 C578 1.391 . S
C580 C581 1.400 . S
C581 C575 1.491 . S
C581 C580 1.400 . S
C581 C582 1.398 . S
C582 H570 0.950 . S
C582 C581 1.398 . S
C582 C583 1.391 . S
C583 H571 0.950 . S
C583 C579 1.393 . S
C583 C582 1.391 . S
H584 C592 0.950 . S
H585 C597 0.950 . S
H586 C594 0.950 . S
H587 C596 0.950 . S
H588 C598 0.950 . S
H589 C600 0.950 . S
H590 C602 0.950 . S
H591 C603 0.950 . S
C592 H584 0.950 . S
C592 C593 1.386 . S
C592 C594 1.391 . S
C593 C592 1.386 . S
C593 C597 1.393 . S
C594 H586 0.950 . S
C594 C592 1.391 . S
C594 C595 1.400 . S
C595 C594 1.400 . S
C595 C596 1.398 . S
C595 C601 1.491 . S
C596 H587 0.950 . S
C596 C595 1.398 . S
C596 C597 1.391 . S
C597 H585 0.950 . S
C597 C593 1.393 . S
C597 C596 1.391 . S
C598 H588 0.950 . S
C598 C599 1.386 . S
C598 C600 1.391 . S
C599 C598 1.386 . S
C599 C603 1.393 . S
C600 H589 0.950 . S
C600 C598 1.391 . S
C600 C601 1.400 . S
C601 C595 1.491 . S
C601 C600 1.400 . S
C601 C602 1.398 . S
C602 H590 0.950 . S
C602 C601 1.398 . S
C602 C603 1.391 . S
C603 H591 0.950 . S
C603 C599 1.393 . S
C603 C602 1.391 . S
H604 C612 0.950 . S
H605 C617 0.950 . S
H606 C614 0.950 . S
H607 C616 0.950 . S
H608 C618 0.950 . S
H609 C620 0.950 . S
H610 C622 0.950 . S
H611 C623 0.950 . S
C612 H604 0.950 . S
C612 C613 1.386 . S
C612 C614 1.391 . S
C613 C612 1.386 . S
C613 C617 1.393 . S
C614 H606 0.950 . S
C614 C612 1.391 . S
C614 C615 1.400 . S
C615 C614 1.400 . S
C615 C616 1.398 . S
C615 C621 1.491 . S
C616 H607 0.950 . S
C616 C615 1.398 . S
C616 C617 1.391 . S
C617 H605 0.950 . S
C617 C613 1.393 . S
C617 C616 1.391 . S
C618 H608 0.950 . S
C618 C619 1.386 . S
C618 C620 1.391 . S
C619 C618 1.386 . S
C619 C623 1.393 . S
C620 H609 0.950 . S
C620 C618 1.391 . S
C620 C621 1.400 . S
C621 C615 1.491 . S
C621 C620 1.400 . S
C621 C622 1.398 . S
C622 H610 0.950 . S
C622 C621 1.398 . S
C622 C623 1.391 . S
C623 H611 0.950 . S
C623 C619 1.393 . S
C623 C622 1.391 . S
H624 C632 0.950 . S
H625 C637 0.950 . S
H626 C634 0.950 . S
H627 C636 0.950 . S
H628 C638 0.950 . S
H629 C640 0.950 . S
H630 C642 0.950 . S
H631 C643 0.950 . S
C632 H624 0.950 . S
C632 C633 1.386 . S
C632 C634 1.391 . S
C633 C632 1.386 . S
C633 C637 1.393 . S
C634 H626 0.950 . S
C634 C632 1.391 . S
C634 C635 1.400 . S
C635 C634 1.400 . S
C635 C636 1.398 . S
C635 C641 1.491 . S
C636 H627 0.950 . S
C636 C635 1.398 . S
C636 C637 1.391 . S
C637 H625 0.950 . S
C637 C633 1.393 . S
C637 C636 1.391 . S
C638 H628 0.950 . S
C638 C639 1.386 . S
C638 C640 1.391 . S
C639 C638 1.386 . S
C639 C643 1.393 . S
C640 H629 0.950 . S
C640 C638 1.391 . S
C640 C641 1.400 . S
C641 C635 1.491 . S
C641 C640 1.400 . S
C641 C642 1.398 . S
C642 H630 0.950 . S
C642 C641 1.398 . S
C642 C643 1.391 . S
C643 H631 0.950 . S
C643 C639 1.393 . S
C643 C642 1.391 . S
H644 C652 0.950 . S
H645 C657 0.950 . S
H646 C654 0.950 . S
H647 C656 0.950 . S
H648 C658 0.950 . S
H649 C660 0.950 . S
H650 C662 0.950 . S
H651 C663 0.950 . S
C652 H644 0.950 . S
C652 C653 1.386 . S
C652 C654 1.391 . S
C653 C652 1.386 . S
C653 C657 1.393 . S
C654 H646 0.950 . S
C654 C652 1.391 . S
C654 C655 1.400 . S
C655 C654 1.400 . S
C655 C656 1.398 . S
C655 C661 1.491 . S
C656 H647 0.950 . S
C656 C655 1.398 . S
C656 C657 1.391 . S
C657 H645 0.950 . S
C657 C653 1.393 . S
C657 C656 1.391 . S
C658 H648 0.950 . S
C658 C659 1.386 . S
C658 C660 1.391 . S
C659 C658 1.386 . S
C659 C663 1.393 . S
C660 H649 0.950 . S
C660 C658 1.391 . S
C660 C661 1.400 . S
C661 C655 1.491 . S
C661 C660 1.400 . S
C661 C662 1.398 . S
C662 H650 0.950 . S
C662 C661 1.398 . S
C662 C663 1.391 . S
C663 H651 0.950 . S
C663 C659 1.393 . S
C663 C662 1.391 . S
H664 C672 0.950 . S
H665 C677 0.950 . S
H666 C674 0.950 . S
H667 C676 0.950 . S
H668 C678 0.950 . S
H669 C680 0.950 . S
H670 C682 0.950 . S
H671 C683 0.950 . S
C672 H664 0.950 . S
C672 C673 1.386 . S
C672 C674 1.391 . S
C673 C672 1.386 . S
C673 C677 1.393 . S
C674 H666 0.950 . S
C674 C672 1.391 . S
C674 C675 1.400 . S
C675 C674 1.400 . S
C675 C676 1.398 . S
C675 C681 1.491 . S
C676 H667 0.950 . S
C676 C675 1.398 . S
C676 C677 1.391 . S
C677 H665 0.950 . S
C677 C673 1.393 . S
C677 C676 1.391 . S
C678 H668 0.950 . S
C678 C679 1.386 . S
C678 C680 1.391 . S
C679 C678 1.386 . S
C679 C683 1.393 . S
C680 H669 0.950 . S
C680 C678 1.391 . S
C680 C681 1.400 . S
C681 C675 1.491 . S
C681 C680 1.400 . S
C681 C682 1.398 . S
C682 H670 0.950 . S
C682 C681 1.398 . S
C682 C683 1.391 . S
C683 H671 0.950 . S
C683 C679 1.393 . S
C683 C682 1.391 . S
H684 C692 0.950 1_655 S
H685 C697 0.950 . S
H686 C694 0.950 1_655 S
H687 C696 0.950 . S
H688 C698 0.950 . S
H689 C700 0.950 . S
H690 C702 0.950 1_655 S
H691 C703 0.950 1_655 S
C692 H684 0.950 1_455 S
C692 C693 1.386 . S
C692 C694 1.391 . S
C693 C692 1.386 . S
C693 C697 1.393 . S
C694 H686 0.950 1_455 S
C694 C692 1.391 . S
C694 C695 1.400 . S
C695 C694 1.400 . S
C695 C696 1.398 . S
C695 C701 1.491 . S
C696 H687 0.950 . S
C696 C695 1.398 . S
C696 C697 1.391 . S
C697 H685 0.950 . S
C697 C693 1.393 . S
C697 C696 1.391 . S
C698 H688 0.950 . S
C698 C699 1.386 . S
C698 C700 1.391 . S
C699 C698 1.386 . S
C699 C703 1.393 . S
C700 H689 0.950 . S
C700 C698 1.391 . S
C700 C701 1.400 . S
C701 C695 1.491 . S
C701 C700 1.400 . S
C701 C702 1.398 . S
C702 H690 0.950 1_455 S
C702 C701 1.398 . S
C702 C703 1.391 . S
C703 H691 0.950 1_455 S
C703 C699 1.393 . S
C703 C702 1.391 . S
H704 C712 0.950 . S
H705 C717 0.950 . S
H706 C714 0.950 . S
H707 C716 0.950 . S
H708 C718 0.950 . S
H709 C720 0.950 . S
H710 C722 0.950 . S
H711 C723 0.950 . S
C712 H704 0.950 . S
C712 C713 1.386 . S
C712 C714 1.391 . S
C713 C712 1.386 . S
C713 C717 1.393 . S
C714 H706 0.950 . S
C714 C712 1.391 . S
C714 C715 1.400 . S
C715 C714 1.400 . S
C715 C716 1.398 . S
C715 C721 1.491 . S
C716 H707 0.950 . S
C716 C715 1.398 . S
C716 C717 1.391 . S
C717 H705 0.950 . S
C717 C713 1.393 . S
C717 C716 1.391 . S
C718 H708 0.950 . S
C718 C719 1.386 . S
C718 C720 1.391 . S
C719 C718 1.386 . S
C719 C723 1.393 . S
C720 H709 0.950 . S
C720 C718 1.391 . S
C720 C721 1.400 . S
C721 C715 1.491 . S
C721 C720 1.400 . S
C721 C722 1.398 . S
C722 H710 0.950 . S
C722 C721 1.398 . S
C722 C723 1.391 . S
C723 H711 0.950 . S
C723 C719 1.393 . S
C723 C722 1.391 . S
H724 C732 0.950 . S
H725 C737 0.950 . S
H726 C734 0.950 . S
H727 C736 0.950 . S
H728 C738 0.950 . S
H729 C740 0.950 . S
H730 C742 0.950 . S
H731 C743 0.950 . S
C732 H724 0.950 . S
C732 C733 1.386 . S
C732 C734 1.391 . S
C733 C732 1.386 . S
C733 C737 1.393 . S
C734 H726 0.950 . S
C734 C732 1.391 . S
C734 C735 1.400 . S
C735 C734 1.400 . S
C735 C736 1.398 . S
C735 C741 1.491 . S
C736 H727 0.950 . S
C736 C735 1.398 . S
C736 C737 1.391 . S
C737 H725 0.950 . S
C737 C733 1.393 . S
C737 C736 1.391 . S
C738 H728 0.950 . S
C738 C739 1.386 . S
C738 C740 1.391 . S
C739 C738 1.386 . S
C739 C743 1.393 . S
C740 H729 0.950 . S
C740 C738 1.391 . S
C740 C741 1.400 . S
C741 C735 1.491 . S
C741 C740 1.400 . S
C741 C742 1.398 . S
C742 H730 0.950 . S
C742 C741 1.398 . S
C742 C743 1.391 . S
C743 H731 0.950 . S
C743 C739 1.393 . S
C743 C742 1.391 . S
H744 C752 0.950 . S
H745 C757 0.950 . S
H746 C754 0.950 . S
H747 C756 0.950 . S
H748 C758 0.950 . S
H749 C760 0.950 . S
H750 C762 0.950 . S
H751 C763 0.950 . S
C752 H744 0.950 . S
C752 C753 1.386 . S
C752 C754 1.391 . S
C753 C752 1.386 . S
C753 C757 1.393 . S
C754 H746 0.950 . S
C754 C752 1.391 . S
C754 C755 1.400 . S
C755 C754 1.400 . S
C755 C756 1.398 . S
C755 C761 1.491 . S
C756 H747 0.950 . S
C756 C755 1.398 . S
C756 C757 1.391 . S
C757 H745 0.950 . S
C757 C753 1.393 . S
C757 C756 1.391 . S
C758 H748 0.950 . S
C758 C759 1.386 . S
C758 C760 1.391 . S
C759 C758 1.386 . S
C759 C763 1.393 . S
C760 H749 0.950 . S
C760 C758 1.391 . S
C760 C761 1.400 . S
C761 C755 1.491 . S
C761 C760 1.400 . S
C761 C762 1.398 . S
C762 H750 0.950 . S
C762 C761 1.398 . S
C762 C763 1.391 . S
C763 H751 0.950 . S
C763 C759 1.393 . S
C763 C762 1.391 . S
H764 C772 0.950 . S
H765 C777 0.950 . S
H766 C774 0.950 . S
H767 C776 0.950 . S
H768 C778 0.950 . S
H769 C780 0.950 . S
H770 C782 0.950 . S
H771 C783 0.950 . S
C772 H764 0.950 . S
C772 C773 1.386 . S
C772 C774 1.391 . S
C773 C772 1.386 . S
C773 C777 1.393 . S
C774 H766 0.950 . S
C774 C772 1.391 . S
C774 C775 1.400 . S
C775 C774 1.400 . S
C775 C776 1.398 . S
C775 C781 1.491 1_556 S
C776 H767 0.950 . S
C776 C775 1.398 . S
C776 C777 1.391 . S
C777 H765 0.950 . S
C777 C773 1.393 . S
C777 C776 1.391 . S
C778 H768 0.950 . S
C778 C779 1.386 . S
C778 C780 1.391 . S
C779 C778 1.386 . S
C779 C783 1.393 . S
C780 H769 0.950 . S
C780 C778 1.391 . S
C780 C781 1.400 . S
C781 C775 1.491 1_554 S
C781 C780 1.400 . S
C781 C782 1.398 . S
C782 H770 0.950 . S
C782 C781 1.398 . S
C782 C783 1.391 . S
C783 H771 0.950 . S
C783 C779 1.393 . S
C783 C782 1.391 . S
H784 C792 0.950 . S
H785 C797 0.950 . S
H786 C794 0.950 . S
H787 C796 0.950 . S
H788 C798 0.950 . S
H789 C800 0.950 . S
H790 C802 0.950 . S
H791 C803 0.950 . S
C792 H784 0.950 . S
C792 C793 1.386 . S
C792 C794 1.391 . S
C793 C792 1.386 . S
C793 C797 1.393 . S
C794 H786 0.950 . S
C794 C792 1.391 . S
C794 C795 1.400 . S
C795 C794 1.400 . S
C795 C796 1.398 . S
C795 C801 1.491 1_554 S
C796 H787 0.950 . S
C796 C795 1.398 . S
C796 C797 1.391 . S
C797 H785 0.950 . S
C797 C793 1.393 . S
C797 C796 1.391 . S
C798 H788 0.950 . S
C798 C799 1.386 . S
C798 C800 1.391 . S
C799 C798 1.386 . S
C799 C803 1.393 . S
C800 H789 0.950 . S
C800 C798 1.391 . S
C800 C801 1.400 . S
C801 C795 1.491 1_556 S
C801 C800 1.400 . S
C801 C802 1.398 . S
C802 H790 0.950 . S
C802 C801 1.398 . S
C802 C803 1.391 . S
C803 H791 0.950 . S
C803 C799 1.393 . S
C803 C802 1.391 . S
H804 C812 0.950 . S
H805 C817 0.950 . S
H806 C814 0.950 . S
H807 C816 0.950 . S
H808 C818 0.950 . S
H809 C820 0.950 . S
H810 C822 0.950 . S
H811 C823 0.950 . S
C812 H804 0.950 . S
C812 C813 1.386 . S
C812 C814 1.391 . S
C813 C812 1.386 . S
C813 C817 1.393 . S
C814 H806 0.950 . S
C814 C812 1.391 . S
C814 C815 1.400 . S
C815 C814 1.400 . S
C815 C816 1.398 . S
C815 C821 1.491 . S
C816 H807 0.950 . S
C816 C815 1.398 . S
C816 C817 1.391 . S
C817 H805 0.950 . S
C817 C813 1.393 . S
C817 C816 1.391 . S
C818 H808 0.950 . S
C818 C819 1.386 . S
C818 C820 1.391 . S
C819 C818 1.386 . S
C819 C823 1.393 . S
C820 H809 0.950 . S
C820 C818 1.391 . S
C820 C821 1.400 . S
C821 C815 1.491 . S
C821 C820 1.400 . S
C821 C822 1.398 . S
C822 H810 0.950 . S
C822 C821 1.398 . S
C822 C823 1.391 . S
C823 H811 0.950 . S
C823 C819 1.393 . S
C823 C822 1.391 . S
H824 C832 0.950 . S
H825 C837 0.950 . S
H826 C834 0.950 . S
H827 C836 0.950 . S
H828 C838 0.950 . S
H829 C840 0.950 . S
H830 C842 0.950 . S
H831 C843 0.950 . S
C832 H824 0.950 . S
C832 C833 1.386 . S
C832 C834 1.391 . S
C833 C832 1.386 . S
C833 C837 1.393 . S
C834 H826 0.950 . S
C834 C832 1.391 . S
C834 C835 1.400 . S
C835 C834 1.400 . S
C835 C836 1.398 . S
C835 C841 1.491 . S
C836 H827 0.950 . S
C836 C835 1.398 . S
C836 C837 1.391 . S
C837 H825 0.950 . S
C837 C833 1.393 . S
C837 C836 1.391 . S
C838 H828 0.950 . S
C838 C839 1.386 . S
C838 C840 1.391 . S
C839 C838 1.386 . S
C839 C843 1.393 . S
C840 H829 0.950 . S
C840 C838 1.391 . S
C840 C841 1.400 . S
C841 C835 1.491 . S
C841 C840 1.400 . S
C841 C842 1.398 . S
C842 H830 0.950 . S
C842 C841 1.398 . S
C842 C843 1.391 . S
C843 H831 0.950 . S
C843 C839 1.393 . S
C843 C842 1.391 . S
H844 C852 0.950 . S
H845 C857 0.950 . S
H846 C854 0.950 . S
H847 C856 0.950 . S
H848 C858 0.950 . S
H849 C860 0.950 . S
H850 C862 0.950 . S
H851 C863 0.950 . S
C852 H844 0.950 . S
C852 C853 1.386 . S
C852 C854 1.391 . S
C853 C852 1.386 . S
C853 C857 1.393 . S
C854 H846 0.950 . S
C854 C852 1.391 . S
C854 C855 1.400 . S
C855 C854 1.400 . S
C855 C856 1.398 . S
C855 C861 1.491 . S
C856 H847 0.950 . S
C856 C855 1.398 . S
C856 C857 1.391 . S
C857 H845 0.950 . S
C857 C853 1.393 . S
C857 C856 1.391 . S
C858 H848 0.950 . S
C858 C859 1.386 . S
C858 C860 1.391 . S
C859 C858 1.386 . S
C859 C863 1.393 . S
C860 H849 0.950 . S
C860 C858 1.391 . S
C860 C861 1.400 . S
C861 C855 1.491 . S
C861 C860 1.400 . S
C861 C862 1.398 . S
C862 H850 0.950 . S
C862 C861 1.398 . S
C862 C863 1.391 . S
C863 H851 0.950 . S
C863 C859 1.393 . S
C863 C862 1.391 . S
C233 C141 2.076 . S
C239 C13 2.078 . S
C253 C15 2.091 . S
C259 C167 2.092 . S
C273 C113 2.090 . S
C279 C29 2.088 . S
C293 C139 2.088 . S
C299 C43 2.086 . S
C313 C69 2.093 . S
C319 C197 2.092 . S
C333 C211 2.076 . S
C339 C83 2.077 . S
C353 C96 2.075 . S
C359 C180 2.073 . S
C373 C182 2.077 . S
C379 C98 2.080 . S
C393 C140 1.472 . S
C399 C12 1.471 . S
C413 C14 1.458 . S
C419 C166 1.462 . S
C433 C28 1.457 . S
C439 C112 1.453 . S
C453 C42 1.466 . S
C459 C138 1.463 . S
C473 C68 1.456 . S
C479 C196 1.460 . S
C493 C82 1.472 . S
C499 C210 1.470 . S
C513 C181 1.450 . S
C519 C97 1.452 . S
C533 C183 1.474 . S
C539 C99 1.474 . S
C553 C0 1.649 . S
C559 C85 1.644 . S
C573 C26 1.643 . S
C579 C111 1.649 . S
C593 C40 1.636 . S
C599 C56 1.642 . S
C613 C54 1.642 . S
C619 C70 1.636 . S
C633 C124 1.649 . S
C639 C208 1.648 . S
C653 C222 1.648 . S
C659 C126 1.649 . S
C673 C152 1.638 . S
C679 C169 1.645 . S
C693 C195 1.637 . S
C699 C154 1.636 . S
C713 C1 1.728 . S
C719 C223 1.730 . S
C733 C168 1.717 . S
C739 C27 1.720 . S
C753 C194 1.725 . S
C759 C41 1.723 . S
C773 C209 1.719 . S
C779 C55 1.720 . S
C793 C127 1.721 . S
C799 C57 1.720 . S
C813 C153 1.730 . S
C819 C71 1.732 . S
C833 C84 1.725 . S
C839 C155 1.729 . S
C853 C110 1.721 . S
C859 C125 1.725 . S
