# Generated by pormake.
# Topology sma, (6)-cn, num edge types: 1
# Building blocks:
#     Node 0, Type 0, BuildingBlock: PAMTUU_clean_sbu_0, # of connection points: 6
#     Node 1, Type 0, BuildingBlock: PAMTUU_clean_sbu_0, # of connection points: 6
#     Node 2, Type 0, BuildingBlock: PAMTUU_clean_sbu_0, # of connection points: 6
#     Edge 3, Type (0, 0), BuildingBlock: XIVTED_clean_linker_0, # of connection points: 2
#     Edge 4, Type (0, 0), BuildingBlock: XIVTED_clean_linker_0, # of connection points: 2
#     Edge 5, Type (0, 0), BuildingBlock: XIVTED_clean_linker_0, # of connection points: 2
#     Edge 6, Type (0, 0), BuildingBlock: XIVTED_clean_linker_0, # of connection points: 2
#     Edge 7, Type (0, 0), BuildingBlock: XIVTED_clean_linker_0, # of connection points: 2
#     Edge 8, Type (0, 0), BuildingBlock: XIVTED_clean_linker_0, # of connection points: 2
#     Edge 9, Type (0, 0), BuildingBlock: XIVTED_clean_linker_0, # of connection points: 2
#     Edge 10, Type (0, 0), BuildingBlock: XIVTED_clean_linker_0, # of connection points: 2
#     Edge 11, Type (0, 0), BuildingBlock: XIVTED_clean_linker_0, # of connection points: 2
# Relax obj value: 0.066
# Max RMSD: 0.176
# Mean RMSD: 0.171
data_MOF--net-sma--node1-PAMTUU_clean_sbu_0--edge1-XIVTED_clean_linker_0
_symmetry_space_group_name_H-M    P1
_symmetry_Int_Tables_number       1
_symmetry_cell_setting            triclinic
loop_
_symmetry_equiv_pos_as_xyz
'x, y, z'
_cell_length_a     39.822674
_cell_length_b     39.8271
_cell_length_c     14.710707
_cell_angle_alpha  96.428631
_cell_angle_beta   90.455603
_cell_angle_gamma 120.53354
loop_
_atom_site_label
_atom_site_type_symbol
_atom_site_fract_x
_atom_site_fract_y
_atom_site_fract_z
_atom_type_partial_charge
Tb0 Tb 1.02232 0.55814 0.15715 0.0
Tb1 Tb 0.07926 0.51988 0.11417 0.0
C2 C 1.04024 0.53696 -0.03558 0.0
C3 C 0.94463 0.58457 0.13311 0.0
C4 C 0.88031 0.58406 0.04899 0.0
C5 C 0.91638 0.61935 0.06988 0.0
C6 C 0.94807 0.61958 0.1118 0.0
C7 C 0.90894 0.54904 0.11053 0.0
C8 C 0.87708 0.54881 0.06892 0.0
C9 C 0.9783 0.58639 0.18125 0.0
O10 O 0.98372 0.49495 0.1181 0.0
O11 O 1.02555 0.47485 0.1617 0.0
O12 O 0.09388 0.54327 0.2578 0.0
O13 O 1.04022 0.55008 0.28789 0.0
O14 O 0.10861 0.50731 0.01104 0.0
O15 O 0.10501 0.48689 0.14279 0.0
O16 O 0.11646 0.5832 0.11232 0.0
O17 O 0.08164 0.6053 0.1989 0.0
O18 O 1.03898 0.56434 0.01885 0.0
O19 O 1.0397 0.50778 -0.0022 0.0
C20 C 0.99003 0.46801 0.14464 0.0
O21 O 0.97269 0.55496 0.21397 0.0
O22 O 1.01126 0.60358 0.1429 0.0
C23 C 0.07162 0.54955 0.31412 0.0
C24 C 0.15956 0.49814 0.05888 0.0
C25 C 0.23546 0.51281 0.02975 0.0
C26 C 0.204 0.47412 0.02913 0.0
C27 C 0.16646 0.46692 0.04357 0.0
C28 C 0.19089 0.53694 0.06242 0.0
C29 C 0.22861 0.54423 0.0479 0.0
C30 C 0.119 0.48901 0.06244 0.0
C31 C 0.11402 0.61142 0.16234 0.0
H32 H 0.92015 0.64693 0.05408 0.0
H33 H 0.97531 0.64732 0.1284 0.0
H34 H 0.90541 0.52152 0.12611 0.0
H35 H 0.84963 0.52117 0.05469 0.0
H36 H 0.20804 0.44921 0.01403 0.0
H37 H 0.14251 0.43678 0.03984 0.0
H38 H 0.18602 0.56143 0.0741 0.0
H39 H 0.25228 0.57437 0.04996 0.0
Tb40 Tb 0.52657 1.02383 0.46938 0.0
Tb41 Tb 0.62424 0.07376 0.46995 0.0
C42 C 0.57014 0.03328 0.29676 0.0
C43 C 0.41992 0.94874 0.42971 0.0
C44 C 0.35515 0.87446 0.36138 0.0
C45 C 0.35154 0.908 0.37499 0.0
C46 C 0.38359 0.94471 0.409 0.0
C47 C 0.42409 0.91564 0.41477 0.0
C48 C 0.39191 0.87874 0.38099 0.0
C49 C 0.45295 0.98781 0.46572 0.0
O50 O 0.54257 0.98042 0.49053 0.0
O51 O 0.60801 1.01214 0.45944 0.0
O52 O 0.60961 0.05303 0.60021 0.0
O53 O 0.55232 0.05341 0.6053 0.0
O54 O 0.6729 0.08268 0.39827 0.0
O55 O 0.67981 0.11778 0.52834 0.0
O56 O 0.60785 0.11738 0.50944 0.0
O57 O 0.54449 0.08349 0.44558 0.0
O58 O 0.54229 1.00731 0.34001 0.0
O59 O 0.5964 0.06776 0.33892 0.0
C60 C 0.5755 0.98079 0.47771 0.0
O61 O 0.47537 0.9895 0.53346 0.0
O62 O 0.47308 1.00985 0.4044 0.0
C63 C 0.58074 0.05146 0.64501 0.0
C64 C 0.7245 0.14868 0.41706 0.0
C65 C 0.77904 0.21641 0.3417 0.0
C66 C 0.7811 0.18196 0.32946 0.0
C67 C 0.75422 0.14856 0.36706 0.0
C68 C 0.72156 0.18258 0.42764 0.0
C69 C 0.74867 0.2162 0.39053 0.0
C70 C 0.697 0.11308 0.45687 0.0
C71 C 0.57589 0.11637 0.48157 0.0
H72 H 0.32394 0.90598 0.35888 0.0
H73 H 0.37999 0.97005 0.41919 0.0
H74 H 0.45209 0.91829 0.4298 0.0
H75 H 0.39565 0.85351 0.37196 0.0
H76 H 0.80353 0.18072 0.29066 0.0
H77 H 0.75672 0.12255 0.35728 0.0
H78 H 0.6986 0.18328 0.46528 0.0
H79 H 0.74636 0.24226 0.40199 0.0
Tb80 Tb 0.5485 0.51039 0.82531 0.0
Tb81 Tb 0.57964 0.6065 0.84083 0.0
C82 C 0.54566 0.54978 0.65716 0.0
C83 C 0.54037 0.41142 0.76491 0.0
C84 C 0.55482 0.3535 0.67736 0.0
C85 C 0.53223 0.36524 0.63108 0.0
C86 C 0.52505 0.39391 0.67439 0.0
C87 C 0.56331 0.40001 0.81056 0.0
C88 C 0.57058 0.37154 0.76728 0.0
C89 C 0.53057 0.43926 0.81547 0.0
O90 O 0.6076 0.54256 0.78334 0.0
O91 O 0.62692 0.59811 0.88312 0.0
O92 O 0.56446 0.59249 -0.0236 0.0
O93 O 0.56387 0.53396 -0.03152 0.0
O94 O 0.62193 0.66101 0.80314 0.0
O95 O 0.57643 0.65634 0.88885 0.0
O96 O 0.51623 0.57476 0.81526 0.0
O97 O 0.50068 0.51744 0.87363 0.0
O98 O 0.52921 0.51794 0.69678 0.0
O99 O 0.57334 0.58396 0.69819 0.0
C100 C 0.63498 0.57332 0.8366 0.0
O101 O 0.55816 0.46791 0.87184 0.0
O102 O 0.51087 0.45103 0.77086 0.0
C103 C 0.56171 0.563 0.01386 0.0
C104 C 0.59833 0.70457 0.78699 0.0
C105 C 0.58934 0.75783 0.69163 0.0
C106 C 0.56566 0.74094 0.76315 0.0
C107 C 0.57018 0.71476 0.81039 0.0
C108 C 0.62171 0.72105 0.71476 0.0
C109 C 0.6172 0.74729 0.66749 0.0
C110 C 0.60496 0.67905 0.84169 0.0
C111 C 0.49138 0.543 0.85104 0.0
H112 H 0.5199 0.3521 0.56152 0.0
H113 H 0.50702 0.40183 0.63744 0.0
H114 H 0.57499 0.4125 0.88081 0.0
H115 H 0.5875 0.36274 0.8056 0.0
H116 H 0.54439 0.74888 0.78476 0.0
H117 H 0.55206 0.70311 0.86654 0.0
H118 H 0.64393 0.71414 0.6955 0.0
H119 H 0.63568 0.75945 0.61222 0.0
H120 H 0.28753 0.56593 0.92358 0.0
H121 H 0.43554 0.48633 -0.05725 0.0
H122 H 0.27263 0.47534 0.08334 0.0
H123 H 0.45942 0.58724 0.81161 0.0
H124 H 0.37415 0.48011 -0.01179 0.0
H125 H 0.34978 0.57357 0.87866 0.0
C126 C 0.29752 0.54796 -0.04987 0.0
C127 C 0.27467 0.51985 0.00719 0.0
C128 C 0.39275 0.50358 -0.05069 0.0
C129 C 0.34558 0.52793 -0.04552 0.0
C130 C 0.42779 0.50704 0.9228 0.0
C131 C 0.45277 0.53735 0.8731 0.0
C132 C 0.3824 0.53053 0.92586 0.0
C133 C 0.44113 0.5634 0.84984 0.0
C134 C 0.33294 0.55213 0.92381 0.0
C135 C 0.28889 0.49695 0.03812 0.0
N136 N 0.40679 0.5594 0.87646 0.0
N137 N 0.3233 0.5014 0.01112 0.0
H138 H 0.85754 0.24435 0.33961 0.0
H139 H 0.91152 0.44365 0.14246 0.0
H140 H 0.76989 0.2716 0.26417 0.0
H141 H 0.99274 0.40428 0.18512 0.0
H142 H 0.85866 0.3813 0.18449 0.0
H143 H 0.90702 0.30347 0.28229 0.0
C144 C 0.84854 0.26253 0.31008 0.0
C145 C 0.80929 0.25266 0.30629 0.0
C146 C 0.88805 0.38632 0.1839 0.0
C147 C 0.86639 0.32135 0.24168 0.0
C148 C 0.9182 0.42184 0.15967 0.0
C149 C 0.95673 0.42939 0.16077 0.0
C150 C 0.89661 0.35836 0.20959 0.0
C151 C 0.96364 0.40005 0.18388 0.0
C152 C 0.87696 0.29654 0.27772 0.0
C153 C 0.7998 0.27816 0.26936 0.0
N154 N 0.93401 0.36608 0.20778 0.0
N155 N 0.82816 0.31139 0.23861 0.0
H156 H 0.63925 0.97143 0.47886 0.0
H157 H 0.52276 0.75785 0.6407 0.0
H158 H 0.51506 0.90892 0.5105 0.0
H159 H 0.64841 0.82599 0.63792 0.0
H160 H 0.5185 0.80967 0.57642 0.0
H161 H 0.64204 0.91499 0.51879 0.0
C162 C 0.61246 0.94573 0.4932 0.0
C163 C 0.5769 0.94518 0.49191 0.0
C164 C 0.547 0.81318 0.58936 0.0
C165 C 0.58001 0.88037 0.53835 0.0
C166 C 0.54947 0.78366 0.62649 0.0
C167 C 0.58603 0.78761 0.64556 0.0
C168 C 0.58132 0.84703 0.57103 0.0
C169 C 0.61956 0.82142 0.62378 0.0
C170 C 0.61413 0.91351 0.51635 0.0
C171 C 0.5432 0.91091 0.51118 0.0
N172 N 0.61641 0.84988 0.58829 0.0
N173 N 0.54565 0.88003 0.53408 0.0
H174 H 0.65902 0.52199 0.77276 0.0
H175 H 0.85869 0.63876 0.09278 0.0
H176 H 0.69855 0.63306 -0.05786 0.0
H177 H 0.82323 0.5301 0.91684 0.0
H178 H 0.80169 0.63855 0.03115 0.0
H179 H 0.72042 0.52595 0.81687 0.0
C180 C 0.68075 0.54743 0.81836 0.0
C181 C 0.67349 0.57715 0.85423 0.0
C182 C 0.8064 0.6148 0.00556 0.0
C183 C 0.74366 0.58165 0.90555 0.0
C184 C 0.83916 0.61502 0.0404 0.0
C185 C 0.84593 0.58442 0.00994 0.0
C186 C 0.77988 0.58366 -0.06008 0.0
C187 C 0.81898 0.55404 -0.05673 0.0
C188 C 0.71576 0.54959 0.84375 0.0
C189 C 0.70272 0.60934 0.91317 0.0
N190 N 0.78709 0.55437 0.91069 0.0
N191 N 0.73636 0.61059 -0.06264 0.0
H192 H 0.35073 0.81451 0.23828 0.0
H193 H 0.1198 0.67629 0.26278 0.0
H194 H 0.28011 0.84471 0.4105 0.0
H195 H 0.18925 0.63672 0.1142 0.0
H196 H 0.17839 0.73983 0.30808 0.0
H197 H 0.29236 0.75052 0.18528 0.0
C198 C 0.32306 0.80768 0.26527 0.0
C199 C 0.32037 0.83522 0.32867 0.0
C200 C 0.18094 0.71736 0.26542 0.0
C201 C 0.25347 0.76231 0.26743 0.0
C202 C 0.14736 0.68094 0.23918 0.0
C203 C 0.14949 0.6509 0.1847 0.0
C204 C 0.21719 0.72411 0.2372 0.0
C205 C 0.18618 0.65897 0.15628 0.0
C206 C 0.28973 0.77124 0.23456 0.0
C207 C 0.2836 0.82485 0.36035 0.0
N208 N 0.21866 0.69481 0.1831 0.0
N209 N 0.25172 0.78936 0.32938 0.0
H210 H 0.62142 0.34914 0.68378 0.0
H211 H 0.5143 0.12612 0.44015 0.0
H212 H 0.50102 0.28404 0.57403 0.0
H213 H 0.63395 0.19036 0.55583 0.0
H214 H 0.51075 0.18553 0.47599 0.0
H215 H 0.62826 0.29318 0.62549 0.0
C216 C 0.59644 0.32313 0.64713 0.0
C217 C 0.56049 0.32123 0.63448 0.0
C218 C 0.53787 0.18671 0.493 0.0
C219 C 0.56817 0.25698 0.56708 0.0
C220 C 0.53996 0.15276 0.47243 0.0
C221 C 0.5744 0.15304 0.49563 0.0
C222 C 0.57041 0.22129 0.53731 0.0
C223 C 0.60669 0.18858 0.53715 0.0
C224 C 0.60041 0.29122 0.61353 0.0
C225 C 0.52936 0.28699 0.58492 0.0
N226 N 0.60381 0.22115 0.55716 0.0
N227 N 0.53383 0.25614 0.55371 0.0
H228 H 0.07018 0.60605 0.89476 0.0
H229 H 0.07053 0.60566 0.43082 0.0
H230 H 1.03951 0.48501 0.82539 0.0
H231 H 0.0955 0.51189 0.41807 0.0
H232 H 0.07271 0.61021 0.59637 0.0
H233 H 0.09354 0.61906 0.74359 0.0
C234 C 0.06758 0.58197 0.84685 0.0
C235 C 0.05181 0.54407 0.87128 0.0
C236 C 0.07929 0.58961 0.55853 0.0
C237 C 0.07767 0.55858 0.69758 0.0
C238 C 0.07761 0.58678 0.46384 0.0
C239 C 0.08229 0.55801 0.41207 0.0
C240 C 0.08533 0.56311 0.60121 0.0
C241 C 0.09163 0.53432 0.45672 0.0
C242 C 0.08101 0.58947 0.76055 0.0
C243 C 0.05067 0.51441 0.80815 0.0
N244 N 0.09191 0.53673 0.54949 0.0
N245 N 0.0631 0.52221 0.72339 0.0
H246 H 0.63453 0.06043 0.20261 0.0
H247 H 0.51687 1.02531 0.74457 0.0
H248 H 0.50878 0.98642 0.1712 0.0
H249 H 0.63764 0.05525 0.75583 0.0
H250 H 0.51246 1.00807 0.89958 0.0
H251 H 0.63623 0.05453 0.0367 0.0
C252 C 0.60733 0.04257 0.16023 0.0
C253 C 0.57139 1.02472 0.1991 0.0
C254 C 0.53973 1.01794 0.86747 0.0
C255 C 0.57296 1.01819 0.01105 0.0
C256 C 0.54247 1.02842 0.77991 0.0
C257 C 0.57792 0.04252 0.73875 0.0
C258 C 0.57285 1.02222 0.91384 0.0
C259 C 0.60993 0.04505 0.78603 0.0
C260 C 0.60829 0.03893 0.06589 0.0
C261 C 0.53695 1.00107 0.14263 0.0
N262 N 0.60676 0.03539 0.87189 0.0
N263 N 0.53845 0.99918 0.05047 0.0
H264 H 0.50673 0.48423 0.53084 0.0
H265 H 0.55428 0.6161 0.13275 0.0
H266 H 0.55368 0.60981 0.57145 0.0
H267 H 0.54002 0.50015 0.1051 0.0
H268 H 0.53167 0.60742 0.28642 0.0
H269 H 0.49441 0.4833 0.36746 0.0
C270 C 0.51394 0.51145 0.50541 0.0
C271 C 0.53287 0.54743 0.56284 0.0
C272 C 0.53321 0.58383 0.24603 0.0
C273 C 0.51887 0.54654 0.37861 0.0
C274 C 0.5466 0.58894 0.1591 0.0
C275 C 0.55022 0.5593 0.10759 0.0
C276 C 0.52371 0.54902 0.2812 0.0
C277 C 0.53882 0.52426 0.14368 0.0
C278 C 0.50677 0.51089 0.4127 0.0
C279 C 0.54063 0.58175 0.52797 0.0
N280 N 0.52642 0.52025 0.22902 0.0
N281 N 0.53422 0.58059 0.43722 0.0
loop_
_geom_bond_atom_site_label_1
_geom_bond_atom_site_label_2
_geom_bond_distance
_geom_bond_site_symmetry_2
_ccdc_geom_bond_type
Tb0 C9 2.764 . S
Tb0 O10 2.325 . S
Tb0 O13 2.303 1_655 S
Tb0 O17 2.322 1_655 S
Tb0 O18 2.349 1_554 S
Tb0 O21 2.415 . S
Tb0 O22 2.399 . S
Tb1 O11 2.322 1_455 S
Tb1 O12 2.349 . S
Tb1 O14 2.415 . S
Tb1 O15 2.399 . S
Tb1 O16 2.325 . S
Tb1 O19 2.303 . S
Tb1 C30 2.764 . S
C2 O18 1.261 1_455 S
C2 O19 1.257 1_556 S
C3 C6 1.358 . S
C3 C7 1.332 . S
C3 C9 1.504 . S
C4 C5 1.373 . S
C4 C8 1.308 . S
C5 C4 1.373 . S
C5 C6 1.429 . S
C5 H32 0.932 . S
C6 C3 1.358 . S
C6 C5 1.429 . S
C6 H33 0.930 . S
C7 C3 1.332 . S
C7 C8 1.394 . S
C7 H34 0.932 . S
C8 C4 1.308 . S
C8 C7 1.394 . S
C8 H35 0.929 . S
C9 Tb0 2.764 . S
C9 C3 1.504 . S
C9 O21 1.239 . S
C9 O22 1.263 . S
O10 Tb0 2.325 . S
O10 C20 1.236 . S
O11 Tb1 2.322 1_655 S
O11 C20 1.257 . S
O12 Tb1 2.349 . S
O12 C23 1.261 . S
O13 Tb0 2.303 1_455 S
O13 C23 1.257 . S
O14 Tb1 2.415 . S
O14 C30 1.239 . S
O15 Tb1 2.399 . S
O15 C30 1.263 . S
O16 Tb1 2.325 . S
O16 C31 1.236 . S
O17 Tb0 2.322 1_455 S
O17 C31 1.257 . S
O18 Tb0 2.349 1_556 S
O18 C2 1.261 1_655 S
O19 Tb1 2.303 . S
O19 C2 1.257 1_554 S
C20 O10 1.236 . S
C20 O11 1.257 . S
O21 Tb0 2.415 . S
O21 C9 1.239 . S
O22 Tb0 2.399 . S
O22 C9 1.263 . S
C23 O12 1.261 . S
C23 O13 1.257 . S
C24 C27 1.358 . S
C24 C28 1.332 . S
C24 C30 1.504 . S
C25 C26 1.373 . S
C25 C29 1.308 . S
C26 C25 1.373 . S
C26 C27 1.429 . S
C26 H36 0.932 . S
C27 C24 1.358 . S
C27 C26 1.429 . S
C27 H37 0.930 . S
C28 C24 1.332 . S
C28 C29 1.394 . S
C28 H38 0.932 . S
C29 C25 1.308 . S
C29 C28 1.394 . S
C29 H39 0.929 1_554 S
C30 Tb1 2.764 . S
C30 O14 1.239 . S
C30 O15 1.263 . S
C30 C24 1.504 . S
C31 O16 1.236 . S
C31 O17 1.257 . S
H32 C5 0.932 . S
H33 C6 0.930 . S
H34 C7 0.932 . S
H35 C8 0.929 . S
H36 C26 0.932 . S
H37 C27 0.930 . S
H38 C28 0.932 . S
H39 C29 0.929 1_556 S
Tb40 C49 2.764 . S
Tb40 O50 2.325 . S
Tb40 O53 2.303 1_565 S
Tb40 O57 2.322 1_565 S
Tb40 O58 2.349 . S
Tb40 O61 2.415 . S
Tb40 O62 2.399 . S
Tb41 O51 2.322 1_545 S
Tb41 O52 2.349 . S
Tb41 O54 2.415 . S
Tb41 O55 2.399 . S
Tb41 O56 2.325 . S
Tb41 O59 2.303 . S
Tb41 C70 2.764 . S
C42 O58 1.261 1_545 S
C42 O59 1.257 . S
C43 C46 1.358 . S
C43 C47 1.332 . S
C43 C49 1.504 . S
C44 C45 1.373 . S
C44 C48 1.308 . S
C45 C44 1.373 . S
C45 C46 1.429 . S
C45 H72 0.932 . S
C46 C43 1.358 . S
C46 C45 1.429 . S
C46 H73 0.930 . S
C47 C43 1.332 . S
C47 C48 1.394 . S
C47 H74 0.932 . S
C48 C44 1.308 . S
C48 C47 1.394 . S
C48 H75 0.929 . S
C49 Tb40 2.764 . S
C49 C43 1.504 . S
C49 O61 1.239 . S
C49 O62 1.263 . S
O50 Tb40 2.325 . S
O50 C60 1.236 . S
O51 Tb41 2.322 1_565 S
O51 C60 1.257 . S
O52 Tb41 2.349 . S
O52 C63 1.261 . S
O53 Tb40 2.303 1_545 S
O53 C63 1.257 . S
O54 Tb41 2.415 . S
O54 C70 1.239 . S
O55 Tb41 2.399 . S
O55 C70 1.263 . S
O56 Tb41 2.325 . S
O56 C71 1.236 . S
O57 Tb40 2.322 1_545 S
O57 C71 1.257 . S
O58 Tb40 2.349 . S
O58 C42 1.261 1_565 S
O59 Tb41 2.303 . S
O59 C42 1.257 . S
C60 O50 1.236 . S
C60 O51 1.257 . S
O61 Tb40 2.415 . S
O61 C49 1.239 . S
O62 Tb40 2.399 . S
O62 C49 1.263 . S
C63 O52 1.261 . S
C63 O53 1.257 . S
C64 C67 1.358 . S
C64 C68 1.332 . S
C64 C70 1.504 . S
C65 C66 1.373 . S
C65 C69 1.308 . S
C66 C65 1.373 . S
C66 C67 1.429 . S
C66 H76 0.932 . S
C67 C64 1.358 . S
C67 C66 1.429 . S
C67 H77 0.930 . S
C68 C64 1.332 . S
C68 C69 1.394 . S
C68 H78 0.932 . S
C69 C65 1.308 . S
C69 C68 1.394 . S
C69 H79 0.929 . S
C70 Tb41 2.764 . S
C70 O54 1.239 . S
C70 O55 1.263 . S
C70 C64 1.504 . S
C71 O56 1.236 . S
C71 O57 1.257 . S
H72 C45 0.932 . S
H73 C46 0.930 . S
H74 C47 0.932 . S
H75 C48 0.929 . S
H76 C66 0.932 . S
H77 C67 0.930 . S
H78 C68 0.932 . S
H79 C69 0.929 . S
Tb80 C89 2.764 . S
Tb80 O90 2.325 . S
Tb80 O93 2.303 . S
Tb80 O97 2.322 . S
Tb80 O98 2.349 . S
Tb80 O101 2.415 . S
Tb80 O102 2.399 . S
Tb81 O91 2.322 . S
Tb81 O92 2.349 1_556 S
Tb81 O94 2.415 . S
Tb81 O95 2.399 . S
Tb81 O96 2.325 . S
Tb81 O99 2.303 . S
Tb81 C110 2.764 . S
C82 O98 1.261 . S
C82 O99 1.257 . S
C83 C86 1.358 . S
C83 C87 1.332 . S
C83 C89 1.504 . S
C84 C85 1.373 . S
C84 C88 1.308 . S
C85 C84 1.373 . S
C85 C86 1.429 . S
C85 H112 0.932 . S
C86 C83 1.358 . S
C86 C85 1.429 . S
C86 H113 0.930 . S
C87 C83 1.332 . S
C87 C88 1.394 . S
C87 H114 0.932 . S
C88 C84 1.308 . S
C88 C87 1.394 . S
C88 H115 0.929 . S
C89 Tb80 2.764 . S
C89 C83 1.504 . S
C89 O101 1.239 . S
C89 O102 1.263 . S
O90 Tb80 2.325 . S
O90 C100 1.236 . S
O91 Tb81 2.322 . S
O91 C100 1.257 . S
O92 Tb81 2.349 1_554 S
O92 C103 1.261 . S
O93 Tb80 2.303 . S
O93 C103 1.257 1_556 S
O94 Tb81 2.415 . S
O94 C110 1.239 . S
O95 Tb81 2.399 . S
O95 C110 1.263 . S
O96 Tb81 2.325 . S
O96 C111 1.236 . S
O97 Tb80 2.322 . S
O97 C111 1.257 . S
O98 Tb80 2.349 . S
O98 C82 1.261 . S
O99 Tb81 2.303 . S
O99 C82 1.257 . S
C100 O90 1.236 . S
C100 O91 1.257 . S
O101 Tb80 2.415 . S
O101 C89 1.239 . S
O102 Tb80 2.399 . S
O102 C89 1.263 . S
C103 O92 1.261 . S
C103 O93 1.257 1_554 S
C104 C107 1.358 . S
C104 C108 1.332 . S
C104 C110 1.504 . S
C105 C106 1.373 . S
C105 C109 1.308 . S
C106 C105 1.373 . S
C106 C107 1.429 . S
C106 H116 0.932 . S
C107 C104 1.358 . S
C107 C106 1.429 . S
C107 H117 0.936 . S
C108 C104 1.332 . S
C108 C109 1.394 . S
C108 H118 0.932 . S
C109 C105 1.308 . S
C109 C108 1.394 . S
C109 H119 0.929 . S
C110 Tb81 2.764 . S
C110 O94 1.239 . S
C110 O95 1.263 . S
C110 C104 1.504 . S
C111 O96 1.236 . S
C111 O97 1.257 . S
H112 C85 0.932 . S
H113 C86 0.930 . S
H114 C87 0.932 . S
H115 C88 0.929 . S
H116 C106 0.932 . S
H117 C107 0.936 . S
H118 C108 0.932 . S
H119 C109 0.929 . S
H120 C126 0.930 . S
H121 C130 0.930 . S
H122 C135 0.929 . S
H123 C133 0.929 . S
H124 C128 0.932 . S
H125 C134 0.929 . S
C126 H120 0.930 . S
C126 C127 1.367 1_556 S
C126 C134 1.378 . S
C127 C126 1.367 1_554 S
C127 C135 1.433 . S
C128 H124 0.932 . S
C128 C130 1.377 1_554 S
C128 C132 1.348 1_554 S
C129 C132 1.463 . S
C129 C134 1.350 . S
C129 N137 1.427 1_556 S
C130 H121 0.930 . S
C130 C128 1.377 1_556 S
C130 C131 1.367 . S
C131 C130 1.367 . S
C131 C133 1.433 . S
C132 C128 1.348 1_556 S
C132 C129 1.463 . S
C132 N136 1.427 . S
C133 H123 0.929 . S
C133 C131 1.433 . S
C133 N136 1.384 . S
C134 H125 0.929 . S
C134 C126 1.378 . S
C134 C129 1.350 . S
C135 H122 0.929 . S
C135 C127 1.433 . S
C135 N137 1.384 . S
N136 C132 1.427 . S
N136 C133 1.384 . S
N137 C129 1.427 1_554 S
N137 C135 1.384 . S
H138 C144 0.930 . S
H139 C148 0.930 . S
H140 C153 0.929 . S
H141 C151 0.929 . S
H142 C146 0.929 . S
H143 C152 0.929 . S
C144 H138 0.930 . S
C144 C145 1.367 . S
C144 C152 1.378 . S
C145 C144 1.367 . S
C145 C153 1.433 . S
C146 H142 0.929 . S
C146 C148 1.378 . S
C146 C150 1.350 . S
C147 C150 1.463 . S
C147 C152 1.350 . S
C147 N155 1.427 . S
C148 H139 0.930 . S
C148 C146 1.378 . S
C148 C149 1.367 . S
C149 C148 1.367 . S
C149 C151 1.433 . S
C150 C146 1.350 . S
C150 C147 1.463 . S
C150 N154 1.427 . S
C151 H141 0.929 . S
C151 C149 1.433 . S
C151 N154 1.384 . S
C152 H143 0.929 . S
C152 C144 1.378 . S
C152 C147 1.350 . S
C153 H140 0.929 . S
C153 C145 1.433 . S
C153 N155 1.384 . S
N154 C150 1.427 . S
N154 C151 1.384 . S
N155 C147 1.427 . S
N155 C153 1.384 . S
H156 C162 0.930 . S
H157 C166 0.930 . S
H158 C171 0.929 . S
H159 C169 0.929 . S
H160 C164 0.929 . S
H161 C170 0.929 . S
C162 H156 0.930 . S
C162 C163 1.367 . S
C162 C170 1.378 . S
C163 C162 1.367 . S
C163 C171 1.433 . S
C164 H160 0.929 . S
C164 C166 1.378 . S
C164 C168 1.350 . S
C165 C168 1.463 . S
C165 C170 1.350 . S
C165 N173 1.427 . S
C166 H157 0.930 . S
C166 C164 1.378 . S
C166 C167 1.367 . S
C167 C166 1.367 . S
C167 C169 1.433 . S
C168 C164 1.350 . S
C168 C165 1.463 . S
C168 N172 1.427 . S
C169 H159 0.929 . S
C169 C167 1.433 . S
C169 N172 1.384 . S
C170 H161 0.929 . S
C170 C162 1.378 . S
C170 C165 1.350 . S
C171 H158 0.929 . S
C171 C163 1.433 . S
C171 N173 1.384 . S
N172 C168 1.427 . S
N172 C169 1.384 . S
N173 C165 1.427 . S
N173 C171 1.384 . S
H174 C180 0.930 . S
H175 C184 0.930 . S
H176 C189 0.929 . S
H177 C187 0.929 . S
H178 C182 0.929 . S
H179 C188 0.929 . S
C180 H174 0.930 . S
C180 C181 1.367 . S
C180 C188 1.378 1_556 S
C181 C180 1.367 . S
C181 C189 1.433 . S
C182 H178 0.929 . S
C182 C184 1.378 . S
C182 C186 1.350 . S
C183 C186 1.463 . S
C183 C188 1.350 . S
C183 N191 1.427 1_554 S
C184 H175 0.930 . S
C184 C182 1.378 . S
C184 C185 1.367 . S
C185 C184 1.367 . S
C185 C187 1.433 . S
C186 C182 1.350 . S
C186 C183 1.463 . S
C186 N190 1.427 . S
C187 H177 0.929 . S
C187 C185 1.433 . S
C187 N190 1.384 . S
C188 H179 0.929 . S
C188 C180 1.378 1_554 S
C188 C183 1.350 . S
C189 H176 0.929 . S
C189 C181 1.433 . S
C189 N191 1.384 . S
N190 C186 1.427 . S
N190 C187 1.384 . S
N191 C183 1.427 1_556 S
N191 C189 1.384 . S
H192 C198 0.930 . S
H193 C202 0.930 . S
H194 C207 0.929 . S
H195 C205 0.929 . S
H196 C200 0.929 . S
H197 C206 0.929 . S
C198 H192 0.930 . S
C198 C199 1.367 . S
C198 C206 1.378 . S
C199 C198 1.367 . S
C199 C207 1.433 . S
C200 H196 0.929 . S
C200 C202 1.378 . S
C200 C204 1.350 . S
C201 C204 1.463 . S
C201 C206 1.350 . S
C201 N209 1.427 . S
C202 H193 0.930 . S
C202 C200 1.378 . S
C202 C203 1.367 . S
C203 C202 1.367 . S
C203 C205 1.433 . S
C204 C200 1.350 . S
C204 C201 1.463 . S
C204 N208 1.427 . S
C205 H195 0.929 . S
C205 C203 1.433 . S
C205 N208 1.384 . S
C206 H197 0.929 . S
C206 C198 1.378 . S
C206 C201 1.350 . S
C207 H194 0.929 . S
C207 C199 1.433 . S
C207 N209 1.384 . S
N208 C204 1.427 . S
N208 C205 1.384 . S
N209 C201 1.427 . S
N209 C207 1.384 . S
H210 C216 0.930 . S
H211 C220 0.930 . S
H212 C225 0.929 . S
H213 C223 0.929 . S
H214 C218 0.929 . S
H215 C224 0.929 . S
C216 H210 0.930 . S
C216 C217 1.367 . S
C216 C224 1.378 . S
C217 C216 1.367 . S
C217 C225 1.433 . S
C218 H214 0.929 . S
C218 C220 1.378 . S
C218 C222 1.350 . S
C219 C222 1.463 . S
C219 C224 1.350 . S
C219 N227 1.427 . S
C220 H211 0.930 . S
C220 C218 1.378 . S
C220 C221 1.367 . S
C221 C220 1.367 . S
C221 C223 1.433 . S
C222 C218 1.350 . S
C222 C219 1.463 . S
C222 N226 1.427 . S
C223 H213 0.929 . S
C223 C221 1.433 . S
C223 N226 1.384 . S
C224 H215 0.929 . S
C224 C216 1.378 . S
C224 C219 1.350 . S
C225 H212 0.929 . S
C225 C217 1.433 . S
C225 N227 1.384 . S
N226 C222 1.427 . S
N226 C223 1.384 . S
N227 C219 1.427 . S
N227 C225 1.384 . S
H228 C234 0.930 . S
H229 C238 0.930 . S
H230 C243 0.929 . S
H231 C241 0.929 . S
H232 C236 0.929 . S
H233 C242 0.929 . S
C234 H228 0.930 . S
C234 C235 1.367 . S
C234 C242 1.378 . S
C235 C234 1.367 . S
C235 C243 1.433 1_455 S
C236 H232 0.929 . S
C236 C238 1.378 . S
C236 C240 1.350 1_655 S
C237 C240 1.463 . S
C237 C242 1.350 . S
C237 N245 1.427 1_455 S
C238 H229 0.930 . S
C238 C236 1.378 . S
C238 C239 1.367 1_655 S
C239 C238 1.367 1_455 S
C239 C241 1.433 . S
C240 C236 1.350 1_455 S
C240 C237 1.463 . S
C240 N244 1.427 . S
C241 H231 0.929 . S
C241 C239 1.433 . S
C241 N244 1.384 . S
C242 H233 0.929 . S
C242 C234 1.378 . S
C242 C237 1.350 . S
C243 H230 0.929 . S
C243 C235 1.433 1_655 S
C243 N245 1.384 . S
N244 C240 1.427 . S
N244 C241 1.384 . S
N245 C237 1.427 1_655 S
N245 C243 1.384 . S
H246 C252 0.930 . S
H247 C256 0.930 . S
H248 C261 0.929 . S
H249 C259 0.929 . S
H250 C254 0.929 . S
H251 C260 0.929 . S
C252 H246 0.930 . S
C252 C253 1.367 . S
C252 C260 1.378 . S
C253 C252 1.367 . S
C253 C261 1.433 1_545 S
C254 H250 0.929 . S
C254 C256 1.378 . S
C254 C258 1.350 1_565 S
C255 C258 1.463 1_554 S
C255 C260 1.350 . S
C255 N263 1.427 1_545 S
C256 H247 0.930 . S
C256 C254 1.378 . S
C256 C257 1.367 1_565 S
C257 C256 1.367 1_545 S
C257 C259 1.433 . S
C258 C254 1.350 1_545 S
C258 C255 1.463 1_556 S
C258 N262 1.427 . S
C259 H249 0.929 . S
C259 C257 1.433 . S
C259 N262 1.384 . S
C260 H251 0.929 . S
C260 C252 1.378 . S
C260 C255 1.350 . S
C261 H248 0.929 . S
C261 C253 1.433 1_565 S
C261 N263 1.384 . S
N262 C258 1.427 . S
N262 C259 1.384 . S
N263 C255 1.427 1_565 S
N263 C261 1.384 . S
H264 C270 0.930 . S
H265 C274 0.930 . S
H266 C279 0.929 . S
H267 C277 0.929 . S
H268 C272 0.929 . S
H269 C278 0.929 . S
C270 H264 0.930 . S
C270 C271 1.367 . S
C270 C278 1.378 . S
C271 C270 1.367 . S
C271 C279 1.433 . S
C272 H268 0.929 . S
C272 C274 1.378 . S
C272 C276 1.350 . S
C273 C276 1.463 . S
C273 C278 1.350 . S
C273 N281 1.427 . S
C274 H265 0.930 . S
C274 C272 1.378 . S
C274 C275 1.367 . S
C275 C274 1.367 . S
C275 C277 1.433 . S
C276 C272 1.350 . S
C276 C273 1.463 . S
C276 N280 1.427 . S
C277 H267 0.929 . S
C277 C275 1.433 . S
C277 N280 1.384 . S
C278 H269 0.929 . S
C278 C270 1.378 . S
C278 C273 1.350 . S
C279 H266 0.929 . S
C279 C271 1.433 . S
C279 N281 1.384 . S
N280 C276 1.427 . S
N280 C277 1.384 . S
N281 C273 1.427 . S
N281 C279 1.384 . S
C127 C25 1.830 . S
C131 C111 1.778 . S
C145 C65 2.036 . S
C149 C20 2.059 . S
C163 C60 2.062 . S
C167 C105 2.033 . S
C181 C100 2.061 . S
C185 C4 2.011 . S
C199 C44 1.773 . S
C203 C31 1.748 . S
C217 C84 1.774 . S
C221 C71 1.743 . S
C235 C2 0.567 . S
C239 C23 0.567 . S
C253 C42 0.551 . S
C257 C63 0.551 . S
C271 C82 0.534 . S
C275 C103 0.534 . S
