# Generated by pormake.
# Topology etd, (3)-cn, num edge types: 1
# Building blocks:
#     Node 0, Type 0, BuildingBlock: WUSLED_clean_sbu_0, # of connection points: 3
#     Node 1, Type 0, BuildingBlock: WUSLED_clean_sbu_0, # of connection points: 3
#     Node 2, Type 0, BuildingBlock: WUSLED_clean_sbu_0, # of connection points: 3
#     Node 3, Type 0, BuildingBlock: WUSLED_clean_sbu_0, # of connection points: 3
#     Node 4, Type 0, BuildingBlock: WUSLED_clean_sbu_0, # of connection points: 3
#     Node 5, Type 0, BuildingBlock: WUSLED_clean_sbu_0, # of connection points: 3
#     Node 6, Type 0, BuildingBlock: WUSLED_clean_sbu_0, # of connection points: 3
#     Node 7, Type 0, BuildingBlock: WUSLED_clean_sbu_0, # of connection points: 3
#     Node 8, Type 0, BuildingBlock: WUSLED_clean_sbu_0, # of connection points: 3
#     Node 9, Type 0, BuildingBlock: WUSLED_clean_sbu_0, # of connection points: 3
#     Node 10, Type 0, BuildingBlock: WUSLED_clean_sbu_0, # of connection points: 3
#     Node 11, Type 0, BuildingBlock: WUSLED_clean_sbu_0, # of connection points: 3
#     Edge 12, Type (0, 0), BuildingBlock: EZIPEK_clean_linker_0, # of connection points: 2
#     Edge 13, Type (0, 0), BuildingBlock: EZIPEK_clean_linker_0, # of connection points: 2
#     Edge 14, Type (0, 0), BuildingBlock: EZIPEK_clean_linker_0, # of connection points: 2
#     Edge 15, Type (0, 0), BuildingBlock: EZIPEK_clean_linker_0, # of connection points: 2
#     Edge 16, Type (0, 0), BuildingBlock: EZIPEK_clean_linker_0, # of connection points: 2
#     Edge 17, Type (0, 0), BuildingBlock: EZIPEK_clean_linker_0, # of connection points: 2
#     Edge 18, Type (0, 0), BuildingBlock: EZIPEK_clean_linker_0, # of connection points: 2
#     Edge 19, Type (0, 0), BuildingBlock: EZIPEK_clean_linker_0, # of connection points: 2
#     Edge 20, Type (0, 0), BuildingBlock: EZIPEK_clean_linker_0, # of connection points: 2
#     Edge 21, Type (0, 0), BuildingBlock: EZIPEK_clean_linker_0, # of connection points: 2
#     Edge 22, Type (0, 0), BuildingBlock: EZIPEK_clean_linker_0, # of connection points: 2
#     Edge 23, Type (0, 0), BuildingBlock: EZIPEK_clean_linker_0, # of connection points: 2
#     Edge 24, Type (0, 0), BuildingBlock: EZIPEK_clean_linker_0, # of connection points: 2
#     Edge 25, Type (0, 0), BuildingBlock: EZIPEK_clean_linker_0, # of connection points: 2
#     Edge 26, Type (0, 0), BuildingBlock: EZIPEK_clean_linker_0, # of connection points: 2
#     Edge 27, Type (0, 0), BuildingBlock: EZIPEK_clean_linker_0, # of connection points: 2
#     Edge 28, Type (0, 0), BuildingBlock: EZIPEK_clean_linker_0, # of connection points: 2
#     Edge 29, Type (0, 0), BuildingBlock: EZIPEK_clean_linker_0, # of connection points: 2
# Relax obj value: 0.000
# Max RMSD: 0.001
# Mean RMSD: 0.001
data_MOF--net-etd--node1-WUSLED_clean_sbu_0--edge1-EZIPEK_clean_linker_0
_symmetry_space_group_name_H-M    P1
_symmetry_Int_Tables_number       1
_symmetry_cell_setting            triclinic
loop_
_symmetry_equiv_pos_as_xyz
'x, y, z'
_cell_length_a     74.702145
_cell_length_b     74.676359
_cell_length_c     53.742226
_cell_angle_alpha  90.085033
_cell_angle_beta   89.994974
_cell_angle_gamma 119.82867
loop_
_atom_site_label
_atom_site_type_symbol
_atom_site_fract_x
_atom_site_fract_y
_atom_site_fract_z
_atom_type_partial_charge
C0 C 0.50697 0.18184 0.10238 0.0
C1 C 0.52349 0.19874 0.11438 0.0
C2 C 0.50918 0.22077 0.10336 0.0
C3 C 0.5246 0.21807 0.11481 0.0
C4 C 0.49262 0.20384 0.09159 0.0
C5 C 0.49155 0.18457 0.09109 0.0
U6 U 0.51853 0.1401 0.12699 0.0
O7 O 0.49823 0.10629 0.12868 0.0
O8 O 0.52661 0.11954 0.10651 0.0
C9 C 0.50974 0.10268 0.11328 0.0
C10 C 0.50558 0.16137 0.10106 0.0
C11 C 0.49882 0.08689 0.0938 0.0
C12 C 0.48557 0.07655 0.05162 0.0
C13 C 0.49482 0.09191 0.07001 0.0
C14 C 0.48393 0.05102 0.08069 0.0
C15 C 0.48024 0.05602 0.05679 0.0
C16 C 0.49311 0.06631 0.099 0.0
C17 C 0.55083 0.15173 0.18794 0.0
C18 C 0.57607 0.14253 0.20282 0.0
C19 C 0.55891 0.1536 0.23215 0.0
C20 C 0.54779 0.15586 0.21262 0.0
C21 C 0.57336 0.14723 0.22738 0.0
C22 C 0.56489 0.14475 0.18323 0.0
C23 C 0.5404 0.15647 0.1676 0.0
O24 O 0.52282 0.16134 0.09626 0.0
O25 O 0.49446 0.14809 0.11843 0.0
O26 O 0.52013 0.14601 0.16742 0.0
O27 O 0.54852 0.15936 0.14524 0.0
H28 H 0.53554 0.197 0.1233 0.0
H29 H 0.53746 0.23093 0.12405 0.0
H30 H 0.48056 0.20558 0.0827 0.0
H31 H 0.47867 0.17176 0.08177 0.0
H32 H 0.4829 0.08072 0.03326 0.0
H33 H 0.49911 0.10769 0.06558 0.0
H34 H 0.47999 0.03532 0.08504 0.0
H35 H 0.4961 0.0621 0.11718 0.0
H36 H 0.58717 0.13761 0.19877 0.0
H37 H 0.55663 0.15734 0.25095 0.0
H38 H 0.53715 0.16137 0.21674 0.0
H39 H 0.56759 0.14146 0.16441 0.0
C40 C 0.34973 0.49511 0.26733 0.0
C41 C 0.34825 0.50946 0.28293 0.0
C42 C 0.31299 0.49723 0.26882 0.0
C43 C 0.33001 0.51052 0.28364 0.0
C44 C 0.31449 0.48287 0.25334 0.0
C45 C 0.33271 0.48184 0.2526 0.0
U46 U 0.40309 0.50708 0.29183 0.0
O47 O 0.41683 0.48703 0.2941 0.0
O48 O 0.43159 0.51493 0.27106 0.0
C49 C 0.43181 0.49827 0.27849 0.0
C50 C 0.3688 0.49375 0.26599 0.0
C51 C 0.43675 0.48692 0.25964 0.0
C52 C 0.42681 0.45989 0.22845 0.0
C53 C 0.42169 0.47161 0.24441 0.0
C54 C 0.46222 0.47954 0.24156 0.0
C55 C 0.4469 0.46221 0.22836 0.0
C56 C 0.45715 0.49127 0.25735 0.0
C57 C 0.42395 0.5398 0.3525 0.0
C58 C 0.45663 0.56804 0.36785 0.0
C59 C 0.43117 0.54446 0.39706 0.0
C60 C 0.41805 0.53353 0.37725 0.0
C61 C 0.45043 0.56197 0.39254 0.0
C62 C 0.44352 0.55708 0.34799 0.0
C63 C 0.4087 0.52933 0.33219 0.0
O64 O 0.3859 0.51102 0.26104 0.0
O65 O 0.37117 0.48285 0.28353 0.0
O66 O 0.39884 0.50904 0.33217 0.0
O67 O 0.41375 0.53727 0.30973 0.0
H68 H 0.36119 0.51982 0.29449 0.0
H69 H 0.32913 0.52166 0.29576 0.0
H70 H 0.30155 0.47247 0.24181 0.0
H71 H 0.33351 0.47066 0.24047 0.0
H72 H 0.41475 0.44947 0.21616 0.0
H73 H 0.40597 0.46869 0.24487 0.0
H74 H 0.4784 0.4843 0.23994 0.0
H75 H 0.46928 0.5037 0.26805 0.0
H76 H 0.47142 0.58156 0.36401 0.0
H77 H 0.42607 0.53958 0.41597 0.0
H78 H 0.403 0.52046 0.38133 0.0
H79 H 0.44853 0.56244 0.3292 0.0
C80 C 0.87912 0.33833 0.43438 0.0
C81 C 0.86267 0.33733 0.44822 0.0
C82 C 0.84053 0.30147 0.43565 0.0
C83 C 0.8435 0.31903 0.44881 0.0
C84 C 0.85704 0.30247 0.42202 0.0
C85 C 0.87615 0.32074 0.42138 0.0
U86 U 0.92 0.39194 0.45862 0.0
O87 O 0.95385 0.40632 0.45981 0.0
O88 O 0.9396 0.42067 0.43785 0.0
C89 C 0.95681 0.42116 0.44431 0.0
C90 C 0.89935 0.35753 0.4329 0.0
C91 C 0.9724 0.42631 0.42448 0.0
C92 C 0.99063 0.41691 0.39413 0.0
C93 C 0.97489 0.41116 0.41191 0.0
C94 C 1.00137 0.45291 0.4011 0.0
C95 C 1.00405 0.43787 0.38868 0.0
C96 C 0.98571 0.44718 0.41879 0.0
C97 C 0.90718 0.41237 0.51901 0.0
C98 C 0.9295 0.43726 0.5502 0.0
C99 C 0.89336 0.42739 0.5482 0.0
C100 C 0.89061 0.41429 0.52816 0.0
C101 C 0.91276 0.43886 0.55953 0.0
C102 C 0.92675 0.42413 0.53004 0.0
C103 C 0.90313 0.39715 0.49901 0.0
O104 O 0.89887 0.37453 0.42798 0.0
O105 O 0.91281 0.3601 0.45029 0.0
O106 O 0.91434 0.38806 0.49897 0.0
O107 O 0.89995 0.40205 0.47661 0.0
H108 H 0.86463 0.3507 0.45845 0.0
H109 H 0.83097 0.31856 0.45949 0.0
H110 H 0.85508 0.2891 0.41179 0.0
H111 H 0.88862 0.32116 0.41062 0.0
H112 H 0.99244 0.40506 0.38476 0.0
H113 H 0.96483 0.39495 0.41599 0.0
H114 H 1.01152 0.46914 0.39719 0.0
H115 H 0.98414 0.45914 0.4283 0.0
H116 H 0.94459 0.44597 0.55873 0.0
H117 H 0.88025 0.42837 0.55514 0.0
H118 H 0.87538 0.40533 0.52004 0.0
H119 H 0.93979 0.42293 0.52335 0.0
C120 C 0.56438 0.86434 0.60114 0.0
C121 C 0.54636 0.84644 0.60885 0.0
C122 C 0.56286 0.8257 0.60196 0.0
C123 C 0.5456 0.82728 0.60917 0.0
C124 C 0.58092 0.84362 0.59459 0.0
C125 C 0.58164 0.86273 0.59414 0.0
U126 U 0.55277 0.90627 0.62531 0.0
O127 O 0.57253 0.94009 0.62554 0.0
O128 O 0.54342 0.92586 0.60468 0.0
C129 C 0.5604 0.94302 0.61041 0.0
C130 C 0.56542 0.88467 0.59947 0.0
C131 C 0.57042 0.95823 0.59012 0.0
C132 C 0.59801 0.97656 0.55992 0.0
C133 C 0.5883 0.96101 0.57794 0.0
C134 C 0.572 0.9865 0.5658 0.0
C135 C 0.59001 0.98954 0.55388 0.0
C136 C 0.56233 0.97102 0.58374 0.0
C137 C 0.5219 0.89548 0.68728 0.0
C138 C 0.49755 0.90576 0.70248 0.0
C139 C 0.5134 0.89294 0.73139 0.0
C140 C 0.52438 0.89056 0.71178 0.0
C141 C 0.49966 0.90025 0.72686 0.0
C142 C 0.50859 0.9034 0.68282 0.0
C143 C 0.53211 0.89062 0.6668 0.0
O144 O 0.54798 0.88443 0.59506 0.0
O145 O 0.57694 0.8985 0.61619 0.0
O146 O 0.55235 0.90151 0.6659 0.0
O147 O 0.52339 0.88703 0.64473 0.0
H148 H 0.53284 0.84722 0.61443 0.0
H149 H 0.53153 0.81365 0.61494 0.0
H150 H 0.5944 0.84277 0.58899 0.0
H151 H 0.59568 0.87628 0.58809 0.0
H152 H 0.61186 0.97861 0.55086 0.0
H153 H 0.59486 0.95136 0.58253 0.0
H154 H 0.56553 0.99628 0.56139 0.0
H155 H 0.54862 0.96922 0.59293 0.0
H156 H 0.48701 0.91142 0.69863 0.0
H157 H 0.51522 0.88858 0.75003 0.0
H158 H 0.53446 0.88434 0.71568 0.0
H159 H 0.50636 0.90732 0.66412 0.0
C160 C 0.72274 0.55096 0.76708 0.0
C161 C 0.7333 0.55311 0.78956 0.0
C162 C 0.76 0.5497 0.76751 0.0
C163 C 0.7518 0.55254 0.78974 0.0
C164 C 0.74925 0.54715 0.74516 0.0
C165 C 0.73083 0.54783 0.74495 0.0
U166 U 0.66988 0.54034 0.79226 0.0
O167 O 0.65661 0.56081 0.79438 0.0
O168 O 0.64125 0.5326 0.77183 0.0
C169 C 0.6414 0.54951 0.77903 0.0
C170 C 0.70376 0.55262 0.766 0.0
C171 C 0.63655 0.5608 0.76005 0.0
C172 C 0.64657 0.58701 0.72787 0.0
C173 C 0.6515 0.57529 0.74404 0.0
C174 C 0.61149 0.56895 0.7424 0.0
C175 C 0.62684 0.58554 0.72833 0.0
C176 C 0.61637 0.55722 0.75839 0.0
C177 C 0.64952 0.50848 0.85341 0.0
C178 C 0.61488 0.48477 0.86869 0.0
C179 C 0.64363 0.49981 0.89747 0.0
C180 C 0.65698 0.51063 0.87786 0.0
C181 C 0.62254 0.48656 0.893 0.0
C182 C 0.62826 0.49566 0.84902 0.0
C183 C 0.66452 0.51858 0.83291 0.0
O184 O 0.68646 0.53545 0.76132 0.0
O185 O 0.70172 0.56404 0.78318 0.0
O186 O 0.67451 0.53886 0.83262 0.0
O187 O 0.65899 0.51035 0.81061 0.0
H188 H 0.7274 0.55546 0.80693 0.0
H189 H 0.75984 0.55451 0.80719 0.0
H190 H 0.75527 0.54492 0.72781 0.0
H191 H 0.723 0.54614 0.7274 0.0
H192 H 0.65847 0.59673 0.715 0.0
H193 H 0.667 0.57757 0.74402 0.0
H194 H 0.59543 0.56476 0.74129 0.0
H195 H 0.60427 0.54539 0.76972 0.0
H196 H 0.59864 0.47461 0.86488 0.0
H197 H 0.64984 0.50137 0.91607 0.0
H198 H 0.6733 0.52033 0.88171 0.0
H199 H 0.62206 0.49369 0.83037 0.0
C200 C 0.19473 0.7103 0.93456 0.0
C201 C 0.21148 0.71092 0.94731 0.0
C202 C 0.23341 0.74705 0.93589 0.0
C203 C 0.2307 0.72916 0.94791 0.0
C204 C 0.21661 0.74647 0.92343 0.0
C205 C 0.19746 0.72825 0.92276 0.0
U206 U 0.15346 0.65655 0.95799 0.0
O207 O 0.11961 0.64234 0.95868 0.0
O208 O 0.13393 0.62802 0.93673 0.0
C209 C 0.11672 0.6276 0.943 0.0
C210 C 0.17448 0.69113 0.93283 0.0
C211 C 0.10129 0.6226 0.92297 0.0
C212 C 0.08247 0.63204 0.89358 0.0
C213 C 0.09817 0.63773 0.91142 0.0
C214 C 0.07307 0.59618 0.89837 0.0
C215 C 0.06973 0.61118 0.88703 0.0
C216 C 0.08868 0.60184 0.91614 0.0
C217 C 0.16537 0.63527 1.01835 0.0
C218 C 0.14571 0.61518 0.05433 0.0
C219 C 0.17748 0.61601 0.04303 0.0
C220 C 0.17989 0.6289 0.02292 0.0
C221 C 0.16053 0.60925 0.05909 0.0
C222 C 0.14809 0.62808 0.03412 0.0
C223 C 0.16973 0.65075 0.99853 0.0
O224 O 0.1749 0.67411 0.92775 0.0
O225 O 0.16091 0.68853 0.95007 0.0
O226 O 0.15877 0.66012 0.99845 0.0
O227 O 0.17318 0.64611 0.97609 0.0
H228 H 0.20973 0.69728 0.95661 0.0
H229 H 0.24347 0.72933 0.95767 0.0
H230 H 0.21839 0.7601 0.91408 0.0
H231 H 0.18478 0.72812 0.91283 0.0
H232 H 0.08014 0.64385 0.88504 0.0
H233 H 0.10767 0.65385 0.91638 0.0
H234 H 0.06344 0.58002 0.89362 0.0
H235 H 0.09073 0.58991 0.92485 0.0
H236 H 0.13255 0.61018 0.06657 0.0
H237 H 0.18911 0.61167 0.04643 0.0
H238 H 0.19343 0.63435 1.01124 0.0
H239 H 0.13667 0.63277 0.03121 0.0
C240 C 0.87734 0.55262 0.76955 0.0
C241 C 0.86178 0.53885 0.75333 0.0
C242 C 0.83869 0.55094 0.768 0.0
C243 C 0.84257 0.53801 0.75259 0.0
C244 C 0.85431 0.56474 0.78408 0.0
C245 C 0.87345 0.56556 0.78485 0.0
U246 U 0.91884 0.54096 0.74448 0.0
O247 O 0.95266 0.56066 0.74391 0.0
O248 O 0.93856 0.53151 0.76465 0.0
C249 C 0.95569 0.54848 0.75885 0.0
C250 C 0.89763 0.55368 0.77101 0.0
C251 C 0.97105 0.55848 0.77903 0.0
C252 C 0.98902 0.58559 0.80999 0.0
C253 C 0.97339 0.57589 0.79201 0.0
C254 C 0.99992 0.56047 0.80245 0.0
C255 C 1.00248 0.57799 0.81524 0.0
C256 C 0.98437 0.55083 0.78456 0.0
C257 C 0.90723 0.5101 0.68244 0.0
C258 C 0.9244 0.49228 0.66548 0.0
C259 C 0.89925 0.49573 0.64058 0.0
C260 C 0.89634 0.5065 0.66001 0.0
C261 C 0.91312 0.48833 0.64322 0.0
C262 C 0.92146 0.5031 0.685 0.0
C263 C 0.90261 0.52033 0.70302 0.0
O264 O 0.89722 0.53611 0.77498 0.0
O265 O 0.91125 0.56514 0.75413 0.0
O266 O 0.91366 0.54057 0.704 0.0
O267 O 0.89941 0.51158 0.72501 0.0
H268 H 0.86447 0.52876 0.74132 0.0
H269 H 0.83075 0.5273 0.74001 0.0
H270 H 0.85166 0.57486 0.79607 0.0
H271 H 0.88524 0.57629 0.79746 0.0
H272 H 0.99074 0.5991 0.81964 0.0
H273 H 0.96333 0.58211 0.78806 0.0
H274 H 1.01011 0.55436 0.8062 0.0
H275 H 0.98292 0.53748 0.77473 0.0
H276 H 0.93519 0.48671 0.66785 0.0
H277 H 0.89042 0.49285 0.62359 0.0
H278 H 0.88527 0.51175 0.65766 0.0
H279 H 0.93004 0.50572 0.70215 0.0
C280 C 0.34849 0.86332 0.93494 0.0
C281 C 0.33108 0.86042 0.9214 0.0
C282 C 0.31152 0.8246 0.93489 0.0
C283 C 0.31283 0.84125 0.92132 0.0
C284 C 0.32882 0.82732 0.94832 0.0
C285 C 0.34708 0.84649 0.94842 0.0
U286 U 0.40205 0.90606 0.91181 0.0
O287 O 0.41503 0.93986 0.91011 0.0
O288 O 0.43003 0.92679 0.93305 0.0
C289 C 0.42981 0.94356 0.9261 0.0
C290 C 0.3674 0.8841 0.93655 0.0
C291 C 0.43417 0.95938 0.94548 0.0
C292 C 0.43503 0.9698 0.98872 0.0
C293 C 0.42871 0.95422 0.97058 0.0
C294 C 0.45185 0.99582 0.95688 0.0
C295 C 0.44689 0.99071 0.98202 0.0
C296 C 0.44554 0.98031 0.93881 0.0
C297 C 0.42455 0.89454 0.85211 0.0
C298 C 0.44313 0.91319 0.81484 0.0
C299 C 0.44542 0.88358 0.82872 0.0
C300 C 0.4325 0.88114 0.84884 0.0
C301 C 0.45061 0.89943 0.81137 0.0
C302 C 0.4302 0.91079 0.83504 0.0
C303 C 0.40892 0.88988 0.87187 0.0
O304 O 0.38478 0.88463 0.94228 0.0
O305 O 0.36979 0.89761 0.91932 0.0
O306 O 0.39877 0.90008 0.87147 0.0
O307 O 0.4138 0.88711 0.89449 0.0
H308 H 0.33142 0.87305 0.91112 0.0
H309 H 0.29962 0.83947 0.91093 0.0
H310 H 0.32807 0.81467 0.95899 0.0
H311 H 0.36001 0.84819 0.95937 0.0
H312 H 0.43109 0.96554 1.00803 0.0
H313 H 0.41999 0.93821 0.97623 0.0
H314 H 0.46101 1.01183 0.95133 0.0
H315 H 0.45003 0.98466 0.91962 0.0
H316 H 0.44691 0.92548 0.80159 0.0
H317 H 0.45097 0.87276 0.82632 0.0
H318 H 0.42823 0.86837 0.8615 0.0
H319 H 0.42425 0.92131 0.8369 0.0
C320 C 0.51 0.33718 0.10282 0.0
C321 C 0.5027 0.32381 0.08213 0.0
C322 C 0.51111 0.29979 0.10259 0.0
C323 C 0.50323 0.30529 0.08206 0.0
C324 C 0.51874 0.31327 0.12304 0.0
C325 C 0.51812 0.33173 0.12317 0.0
U326 U 0.52053 0.3906 0.07921 0.0
O327 O 0.49995 0.40389 0.07853 0.0
O328 O 0.52844 0.41882 0.10049 0.0
C329 C 0.51136 0.41871 0.0943 0.0
C330 C 0.50827 0.35617 0.10429 0.0
C331 C 0.50031 0.42246 0.11466 0.0
C332 C 0.48214 0.41333 0.15433 0.0
C333 C 0.49202 0.40895 0.13496 0.0
C334 C 0.48856 0.44462 0.13325 0.0
C335 C 0.48044 0.43126 0.15366 0.0
C336 C 0.4984 0.44024 0.11392 0.0
C337 C 0.55355 0.4125 1.01876 0.0
C338 C 0.55325 0.43083 0.98129 0.0
C339 C 0.58516 0.4331 0.99511 0.0
C340 C 0.57483 0.42036 1.01537 0.0
C341 C 0.57442 0.43822 0.97773 0.0
C342 C 0.54288 0.41806 1.00163 0.0
C343 C 0.54275 0.39702 0.03868 0.0
O344 O 0.52532 0.37345 0.10947 0.0
O345 O 0.4969 0.3585 0.08733 0.0
O346 O 0.52245 0.38716 0.03874 0.0
O347 O 0.55077 0.40189 0.06113 0.0
H348 H 0.49631 0.32749 0.06614 0.0
H349 H 0.49727 0.29511 0.0661 0.0
H350 H 0.52488 0.30934 0.13906 0.0
H351 H 0.52373 0.34164 0.1394 0.0
H352 H 0.47601 0.40285 0.16996 0.0
H353 H 0.49334 0.39516 0.13592 0.0
H354 H 0.48744 0.45852 0.1324 0.0
H355 H 0.5047 0.45086 0.09844 0.0
H356 H 0.54469 0.43454 0.96801 0.0
H357 H 0.60147 0.43858 0.99264 0.0
H358 H 0.5834 0.41616 0.02806 0.0
H359 H 0.52646 0.41217 1.00356 0.0
C360 C 0.19755 0.49829 0.27072 0.0
C361 C 0.20539 0.49528 0.24824 0.0
C362 C 0.23588 0.49915 0.26976 0.0
C363 C 0.22436 0.49566 0.2478 0.0
C364 C 0.22823 0.50253 0.29209 0.0
C365 C 0.20924 0.50206 0.29255 0.0
U366 U 0.15489 0.50849 0.24574 0.0
O367 O 0.12114 0.48831 0.24581 0.0
O368 O 0.13506 0.51775 0.26604 0.0
C369 C 0.11803 0.50053 0.26064 0.0
C370 C 0.17706 0.4969 0.27214 0.0
C371 C 0.10288 0.49066 0.28105 0.0
C372 C 0.08418 0.46293 0.31098 0.0
C373 C 0.0998 0.47259 0.29302 0.0
C374 C 0.07479 0.48938 0.30549 0.0
C375 C 0.07145 0.47119 0.31721 0.0
C376 C 0.09034 0.499 0.28762 0.0
C377 C 0.16512 0.53849 0.18321 0.0
C378 C 0.15302 0.56127 0.16759 0.0
C379 C 0.16884 0.5479 0.13935 0.0
C380 C 0.17142 0.53711 0.159 0.0
C381 C 0.15992 0.56032 0.14354 0.0
C382 C 0.15559 0.55043 0.1873 0.0
C383 C 0.17021 0.52866 0.20387 0.0
O384 O 0.17714 0.51433 0.276 0.0
O385 O 0.16316 0.48493 0.25572 0.0
O386 O 0.15955 0.50841 0.20514 0.0
O387 O 0.17371 0.53766 0.22577 0.0
H388 H 0.19676 0.49242 0.23109 0.0
H389 H 0.22999 0.49303 0.23037 0.0
H390 H 0.23686 0.50527 0.30922 0.0
H391 H 0.20355 0.50441 0.31009 0.0
H392 H 0.08184 0.44889 0.3198 0.0
H393 H 0.10923 0.46581 0.28827 0.0
H394 H 0.06517 0.49601 0.31 0.0
H395 H 0.09234 0.51283 0.27857 0.0
H396 H 0.1461 0.57078 0.17117 0.0
H397 H 0.17427 0.54698 0.12096 0.0
H398 H 0.17888 0.52809 0.15541 0.0
H399 H 0.15059 0.55177 0.20578 0.0
C400 C 0.72478 0.18585 0.43619 0.0
C401 C 0.73685 0.19279 0.41445 0.0
C402 C 0.76195 0.22432 0.43561 0.0
C403 C 0.75529 0.21183 0.4142 0.0
C404 C 0.7497 0.2176 0.45714 0.0
C405 C 0.73135 0.19854 0.45743 0.0
U406 U 0.67146 0.1428 0.41278 0.0
O407 O 0.65856 0.10903 0.41201 0.0
O408 O 0.64345 0.12241 0.43416 0.0
C409 C 0.64393 0.10557 0.42813 0.0
C410 C 0.70596 0.16516 0.4377 0.0
C411 C 0.63984 0.09023 0.44822 0.0
C412 C 0.6246 0.07515 0.48848 0.0
C413 C 0.63118 0.09122 0.47113 0.0
C414 C 0.63555 0.05687 0.46079 0.0
C415 C 0.62642 0.05768 0.48329 0.0
C416 C 0.6421 0.07291 0.44341 0.0
C417 C 0.64878 0.15334 0.35253 0.0
C418 C 0.63135 0.13546 0.31428 0.0
C419 C 0.6267 0.16326 0.33 0.0
C420 C 0.63964 0.16579 0.35014 0.0
C421 C 0.62268 0.14829 0.31173 0.0
C422 C 0.64431 0.13796 0.33449 0.0
C423 C 0.66447 0.15826 0.37233 0.0
O424 O 0.68861 0.16484 0.44297 0.0
O425 O 0.70372 0.15153 0.42066 0.0
O426 O 0.6746 0.14804 0.3723 0.0
O427 O 0.65969 0.16143 0.39483 0.0
H428 H 0.73223 0.1834 0.39776 0.0
H429 H 0.7645 0.21673 0.3974 0.0
H430 H 0.75454 0.22698 0.47383 0.0
H431 H 0.7224 0.19355 0.47444 0.0
H432 H 0.61755 0.07606 0.50569 0.0
H433 H 0.62887 0.10411 0.47539 0.0
H434 H 0.63705 0.04351 0.45639 0.0
H435 H 0.64835 0.07143 0.42583 0.0
H436 H 0.62849 0.12387 0.30029 0.0
H437 H 0.62024 0.17337 0.32832 0.0
H438 H 0.643 0.17794 0.36352 0.0
H439 H 0.65121 0.12822 0.33559 0.0
C440 C 0.56548 0.71106 0.60247 0.0
C441 C 0.54809 0.71108 0.59246 0.0
C442 C 0.56338 0.74786 0.60139 0.0
C443 C 0.54703 0.72933 0.592 0.0
C444 C 0.58083 0.74785 0.61109 0.0
C445 C 0.58184 0.72961 0.61166 0.0
U446 U 0.55369 0.65727 0.57916 0.0
O447 O 0.57387 0.64352 0.5784 0.0
O448 O 0.54547 0.62904 0.6005 0.0
C449 C 0.56239 0.62886 0.59424 0.0
C450 C 0.56678 0.69193 0.60417 0.0
C451 C 0.5734 0.62505 0.61459 0.0
C452 C 0.59253 0.63473 0.65362 0.0
C453 C 0.58261 0.63907 0.63431 0.0
C454 C 0.58429 0.60241 0.63366 0.0
C455 C 0.59337 0.61631 0.65348 0.0
C456 C 0.57441 0.60677 0.61438 0.0
C457 C 0.52068 0.63543 0.51857 0.0
C458 C 0.4883 0.61009 0.49914 0.0
C459 C 0.52045 0.62206 0.47696 0.0
C460 C 0.53126 0.63476 0.49719 0.0
C461 C 0.49886 0.60987 0.47765 0.0
C462 C 0.49908 0.62277 0.51934 0.0
C463 C 0.53154 0.65098 0.53856 0.0
O464 O 0.54955 0.67484 0.60933 0.0
O465 O 0.57782 0.68939 0.58695 0.0
O466 O 0.55183 0.66068 0.53868 0.0
O467 O 0.52355 0.64637 0.56103 0.0
H468 H 0.53528 0.69698 0.58518 0.0
H469 H 0.53344 0.72901 0.58442 0.0
H470 H 0.59362 0.76195 0.6184 0.0
H471 H 0.59539 0.72997 0.61947 0.0
H472 H 0.59941 0.64562 0.66879 0.0
H473 H 0.58199 0.65326 0.63484 0.0
H474 H 0.58473 0.58813 0.63323 0.0
H475 H 0.5674 0.59574 0.59935 0.0
H476 H 0.47163 0.60087 0.49997 0.0
H477 H 0.52886 0.6222 0.46048 0.0
H478 H 0.54783 0.64451 0.49571 0.0
H479 H 0.49038 0.62315 0.53527 0.0
C480 C 0.57797 0.13005 0.26532 0.0
C481 C 0.5864 0.14662 0.24806 0.0
C482 C 0.61946 0.16233 0.27047 0.0
C483 C 0.61035 0.147 0.28922 0.0
N484 N 0.58037 0.1174 0.30611 0.0
N485 N 0.61426 0.17998 0.23579 0.0
C486 C 0.58945 0.13108 0.28703 0.0
C487 C 0.60695 0.16313 0.25101 0.0
N488 N 0.55914 0.11313 0.26065 0.0
N489 N 0.64024 0.17583 0.27095 0.0
H490 H 0.6057 0.1811 0.22116 0.0
H491 H 0.62816 0.19354 0.23882 0.0
H492 H 0.64991 0.17575 0.2849 0.0
H493 H 0.64822 0.1859 0.25644 0.0
H494 H 0.55302 0.0996 0.27104 0.0
H495 H 0.5503 0.11196 0.24506 0.0
H496 H 0.56462 0.10689 0.30697 0.0
H497 H 0.58835 0.11753 0.32209 0.0
C498 C 0.47675 0.60547 0.44025 0.0
C499 C 0.48712 0.59785 0.4553 0.0
C500 C 0.4755 0.56796 0.42736 0.0
C501 C 0.46353 0.57458 0.4138 0.0
N502 N 0.45031 0.59802 0.4093 0.0
N503 N 0.49457 0.57077 0.46517 0.0
C504 C 0.46352 0.59293 0.42076 0.0
C505 C 0.48606 0.57881 0.44935 0.0
N506 N 0.48002 0.62497 0.44416 0.0
N507 N 0.47714 0.55157 0.41886 0.0
H508 H 0.5026 0.57839 0.48124 0.0
H509 H 0.49242 0.55594 0.46344 0.0
H510 H 0.46946 0.54319 0.40301 0.0
H511 H 0.48732 0.54728 0.42628 0.0
H512 H 0.47477 0.6323 0.43215 0.0
H513 H 0.48953 0.63461 0.45827 0.0
H514 H 0.4478 0.60981 0.41546 0.0
H515 H 0.44055 0.58941 0.39476 0.0
C516 C 0.92571 0.4858 0.60054 0.0
C517 C 0.91515 0.47588 0.62275 0.0
C518 C 0.9069 0.44229 0.60497 0.0
C519 C 0.9151 0.45192 0.58173 0.0
N520 N 0.93067 0.48261 0.55645 0.0
N521 N 0.89365 0.44447 0.64537 0.0
C522 C 0.92421 0.47366 0.57929 0.0
C523 C 0.90531 0.45406 0.62485 0.0
N524 N 0.93747 0.50684 0.59995 0.0
N525 N 0.90097 0.42192 0.60814 0.0
H526 H 0.89221 0.45249 0.66042 0.0
H527 H 0.88412 0.42855 0.64671 0.0
H528 H 0.90191 0.41284 0.59399 0.0
H529 H 0.89689 0.41451 0.62531 0.0
H530 H 0.94723 0.51496 0.58526 0.0
H531 H 0.93886 0.51614 0.61516 0.0
H532 H 0.93524 0.49799 0.55281 0.0
H533 H 0.93009 0.4743 0.54056 0.0
C534 C 0.49564 0.91702 0.76564 0.0
C535 C 0.48674 0.90103 0.74758 0.0
C536 C 0.45345 0.88617 0.76934 0.0
C537 C 0.46294 0.90076 0.78885 0.0
N538 N 0.49353 0.92882 0.80711 0.0
N539 N 0.45795 0.86877 0.73378 0.0
C540 C 0.48416 0.91594 0.78736 0.0
C541 C 0.46581 0.8852 0.74979 0.0
N542 N 0.51493 0.93346 0.76172 0.0
N543 N 0.43251 0.87354 0.76921 0.0
H544 H 0.46638 0.86754 0.71908 0.0
H545 H 0.44363 0.85557 0.7362 0.0
H546 H 0.42294 0.87379 0.78319 0.0
H547 H 0.4244 0.86413 0.75422 0.0
H548 H 0.5215 0.94667 0.77278 0.0
H549 H 0.52376 0.93466 0.74611 0.0
H550 H 0.5094 0.93864 0.80842 0.0
H551 H 0.48558 0.92863 0.82316 0.0
C552 C 0.59009 0.44061 0.93556 0.0
C553 C 0.58529 0.45036 0.95509 0.0
C554 C 0.602 0.48302 0.9318 0.0
C555 C 0.60878 0.47382 0.91372 0.0
N556 N 0.61157 0.44457 0.89983 0.0
N557 N 0.5883 0.48125 0.97329 0.0
C558 C 0.60336 0.45276 0.91593 0.0
C559 C 0.59159 0.47168 0.95356 0.0
N560 N 0.58153 0.41961 0.93551 0.0
N561 N 0.60516 0.50246 0.92788 0.0
H562 H 0.58049 0.4734 0.98933 0.0
H563 H 0.59453 0.49716 0.97458 0.0
H564 H 0.61283 0.5112 0.91226 0.0
H565 H 0.59877 0.50929 0.93895 0.0
H566 H 0.5826 0.41133 0.92053 0.0
H567 H 0.57177 0.4102 0.94957 0.0
H568 H 0.61022 0.43011 0.90222 0.0
H569 H 0.62116 0.45284 0.88504 0.0
C570 C 0.1451 0.57524 0.08206 0.0
C571 C 0.15904 0.59685 0.0816 0.0
C572 C 0.17353 0.59453 0.12173 0.0
C573 C 0.15888 0.57312 0.12285 0.0
N574 N 0.12836 0.54374 0.10651 0.0
N575 N 0.18356 0.62778 0.1031 0.0
C576 C 0.14393 0.56367 0.10371 0.0
C577 C 0.17236 0.6067 0.10211 0.0
N578 N 0.13354 0.56565 0.06144 0.0
N579 N 0.18913 0.6031 0.13885 0.0
H580 H 0.1831 0.63721 0.0891 0.0
H581 H 0.19185 0.63597 0.11873 0.0
H582 H 0.19048 0.5948 0.15363 0.0
H583 H 0.20166 0.61799 0.13735 0.0
H584 H 0.12483 0.54969 0.05949 0.0
H585 H 0.13381 0.57363 0.0454 0.0
H586 H 0.11576 0.53659 0.09455 0.0
H587 H 0.12713 0.53485 0.12206 0.0
C588 C 0.49759 0.24483 0.12038 0.0
C589 C 0.51023 0.24129 0.10367 0.0
C590 C 0.52491 0.27678 0.08795 0.0
C591 C 0.51089 0.27964 0.103 0.0
N592 N 0.48162 0.26532 0.13068 0.0
N593 N 0.53386 0.25272 0.06906 0.0
C594 C 0.49662 0.26337 0.11849 0.0
C595 C 0.52335 0.25697 0.08677 0.0
N596 N 0.48688 0.23065 0.1385 0.0
N597 N 0.54016 0.2932 0.07538 0.0
H598 H 0.53334 0.23852 0.06783 0.0
H599 H 0.5418 0.26263 0.05442 0.0
H600 H 0.54177 0.3079 0.07577 0.0
H601 H 0.55222 0.29273 0.06627 0.0
H602 H 0.47922 0.23331 0.15298 0.0
H603 H 0.48708 0.21685 0.14034 0.0
H604 H 0.46939 0.25322 0.14004 0.0
H605 H 0.48032 0.27858 0.12971 0.0
C606 C 0.25665 0.48194 0.28045 0.0
C607 C 0.25574 0.4988 0.26957 0.0
C608 C 0.29209 0.51409 0.25688 0.0
C609 C 0.29342 0.49811 0.26957 0.0
N610 N 0.27806 0.46874 0.297 0.0
N611 N 0.27338 0.53262 0.25097 0.0
C612 C 0.27599 0.48258 0.28239 0.0
C613 C 0.2737 0.51536 0.25874 0.0
N614 N 0.23888 0.46493 0.28813 0.0
N615 N 0.30818 0.52768 0.2424 0.0
H616 H 0.26024 0.53412 0.25201 0.0
H617 H 0.28652 0.54612 0.24543 0.0
H618 H 0.32194 0.52738 0.24077 0.0
H619 H 0.30731 0.53819 0.23046 0.0
H620 H 0.23817 0.45125 0.29369 0.0
H621 H 0.22441 0.4638 0.28691 0.0
H622 H 0.26657 0.4585 0.30899 0.0
H623 H 0.29193 0.46868 0.29881 0.0
C624 C 0.81765 0.26512 0.45099 0.0
C625 C 0.82017 0.28192 0.43612 0.0
C626 C 0.78395 0.26162 0.42269 0.0
C627 C 0.78203 0.24422 0.43573 0.0
N628 N 0.798 0.22833 0.45906 0.0
N629 N 0.8068 0.29535 0.40496 0.0
C630 C 0.79915 0.24569 0.44905 0.0
C631 C 0.80359 0.27995 0.42119 0.0
N632 N 0.83276 0.26791 0.4675 0.0
N633 N 0.76685 0.26086 0.41241 0.0
H634 H 0.82086 0.30907 0.40354 0.0
H635 H 0.7961 0.29391 0.39156 0.0
H636 H 0.75224 0.24774 0.4131 0.0
H637 H 0.76674 0.27369 0.40502 0.0
H638 H 0.83094 0.25702 0.48082 0.0
H639 H 0.84655 0.28186 0.46934 0.0
H640 H 0.81063 0.22792 0.4666 0.0
H641 H 0.7848 0.21381 0.45795 0.0
C642 C 0.56411 0.77787 0.57871 0.0
C643 C 0.56227 0.76733 0.60138 0.0
C644 C 0.56183 0.79553 0.6246 0.0
C645 C 0.56207 0.80527 0.60182 0.0
N646 N 0.55938 0.8037 0.55707 0.0
N647 N 0.55535 0.76407 0.64545 0.0
C648 C 0.56203 0.79583 0.57882 0.0
C649 C 0.55995 0.77557 0.62421 0.0
N650 N 0.56865 0.77118 0.55719 0.0
N651 N 0.5642 0.80567 0.64661 0.0
H652 H 0.55372 0.74936 0.64588 0.0
H653 H 0.5513 0.76826 0.66212 0.0
H654 H 0.5657 0.8203 0.6477 0.0
H655 H 0.56647 0.8004 0.6636 0.0
H656 H 0.57247 0.77951 0.54064 0.0
H657 H 0.57033 0.75814 0.55632 0.0
H658 H 0.55701 0.79629 0.53995 0.0
H659 H 0.55765 0.81672 0.55639 0.0
C660 C 0.79799 0.56695 0.75729 0.0
C661 C 0.78012 0.54984 0.76749 0.0
C662 C 0.80089 0.53394 0.77931 0.0
C663 C 0.81833 0.55022 0.7673 0.0
N664 N 0.83269 0.58041 0.74117 0.0
N665 N 0.76368 0.51545 0.78453 0.0
C666 C 0.81664 0.56621 0.75522 0.0
C667 C 0.78133 0.53288 0.77749 0.0
N668 N 0.79737 0.58426 0.75043 0.0
N669 N 0.80316 0.51984 0.79313 0.0
H670 H 0.74912 0.5141 0.78348 0.0
H671 H 0.76322 0.50174 0.78941 0.0
H672 H 0.81715 0.51999 0.7947 0.0
H673 H 0.79166 0.50903 0.80463 0.0
H674 H 0.8104 0.59805 0.74545 0.0
H675 H 0.78408 0.58547 0.75179 0.0
H676 H 0.83163 0.59106 0.72968 0.0
H677 H 0.84659 0.58041 0.73929 0.0
C678 C 0.268 0.77081 0.9162 0.0
C679 C 0.25388 0.76646 0.93611 0.0
C680 C 0.27743 0.80003 0.95505 0.0
C681 C 0.2918 0.80441 0.93545 0.0
N682 N 0.30224 0.79312 0.89903 0.0
N683 N 0.24519 0.77677 0.97481 0.0
C684 C 0.28746 0.78954 0.91644 0.0
C685 C 0.2587 0.78096 0.95561 0.0
N686 N 0.2625 0.75725 0.89674 0.0
N687 N 0.28113 0.81387 0.97365 0.0
H688 H 0.23116 0.76301 0.97618 0.0
H689 H 0.24817 0.78708 0.98946 0.0
H690 H 0.29437 0.82836 0.97493 0.0
H691 H 0.29437 0.82836 0.97493 0.0
H692 H 0.27084 0.76032 0.88028 0.0
H693 H 0.24878 0.74312 0.89642 0.0
H694 H 0.30116 0.78221 0.88616 0.0
H695 H 0.31642 0.80677 0.8984 0.0
C696 C 0.48477 0.03366 0.02517 0.0
C697 C 0.47164 0.03975 0.03701 0.0
C698 C 0.44244 1.01458 1.01165 0.0
C699 C 0.45521 1.00734 1.00137 0.0
N700 N 0.48768 1.00775 1.001 0.0
N701 N 0.43749 0.03444 0.04406 0.0
C702 C 0.47616 1.01629 1.00887 0.0
C703 C 0.45032 0.02979 0.03091 0.0
N704 N 0.50562 0.04488 0.02901 0.0
N705 N 0.42295 1.0073 1.00248 0.0
H706 H 0.44277 0.04573 0.05791 0.0
H707 H 0.42148 0.02617 0.04254 0.0
H708 H 0.41659 0.99595 0.98873 0.0
H709 H 0.41363 1.01352 1.00713 0.0
H710 H 0.51627 0.04272 1.01887 0.0
H711 H 0.51249 0.05761 0.0409 0.0
H712 H 0.50227 1.01202 1.00796 0.0
H713 H 0.48198 0.99512 0.98896 0.0
C714 C 0.44949 0.4307 0.17356 0.0
C715 C 0.47064 0.43633 0.1747 0.0
C716 C 0.47234 0.44968 0.2169 0.0
C717 C 0.45293 0.44852 0.21323 0.0
N718 N 0.41967 0.42203 0.19878 0.0
N719 N 0.50245 0.4511 0.19806 0.0
C720 C 0.44018 0.43465 0.1944 0.0
C721 C 0.48209 0.44559 0.19668 0.0
N722 N 0.43814 0.42141 0.15276 0.0
N723 N 0.48005 0.45191 0.24043 0.0
H724 H 0.51013 0.44816 0.18382 0.0
H725 H 0.51201 0.45995 0.2126 0.0
H726 H 0.47165 0.45193 0.25596 0.0
H727 H 0.49315 0.45095 0.24469 0.0
H728 H 0.42323 0.41891 0.15023 0.0
H729 H 0.44412 0.41749 0.13747 0.0
H730 H 0.40986 0.41053 0.18643 0.0
H731 H 0.41357 0.42049 0.21664 0.0
C732 C 1.03352 0.44967 0.32697 0.0
C733 C 0.05424 0.46074 0.33558 0.0
C734 C 0.04187 0.45317 0.3788 0.0
C735 C 1.02119 0.44437 0.37024 0.0
N736 N 0.99723 0.43605 0.33629 0.0
N737 N 0.07832 0.47491 0.36965 0.0
C738 C 1.01697 0.44298 0.34433 0.0
C739 C 0.05848 0.46288 0.36151 0.0
N740 N 1.02969 0.44521 0.3022 0.0
N741 N 0.04559 0.45185 0.40344 0.0
H742 H 0.09089 0.48203 0.3576 0.0
H743 H 0.08221 0.4791 0.38819 0.0
H744 H 1.03382 0.44487 0.41658 0.0
H745 H 0.06012 0.456 0.41053 0.0
H746 H 1.01506 0.43538 0.295 0.0
H747 H 0.04142 0.44988 0.289 0.0
H748 H 0.99345 0.43693 0.31786 0.0
H749 H 0.98468 0.43078 0.34836 0.0
C750 C 0.62809 0.04118 0.5236 0.0
C751 C 0.61777 0.03979 0.50089 0.0
C752 C 0.59128 1.00424 0.5113 0.0
C753 C 0.60034 1.00646 0.53514 0.0
N754 N 0.62596 0.02793 0.56537 0.0
N755 N 0.58795 1.02112 0.4745 0.0
C756 C 0.61844 0.02516 0.54164 0.0
C757 C 0.59895 1.02158 0.49506 0.0
N758 N 0.64737 0.05761 0.52768 0.0
N759 N 0.57558 0.98538 0.50397 0.0
H760 H 0.59299 0.03345 0.46214 0.0
H761 H 0.57305 1.00924 0.47076 0.0
H762 H 0.56957 0.97237 0.51537 0.0
H763 H 0.56976 0.98216 0.48591 0.0
H764 H 0.65667 0.0585 0.5426 0.0
H765 H 0.65484 0.06963 0.51495 0.0
H766 H 0.63763 0.042 0.57213 0.0
H767 H 0.61949 1.01653 0.57901 0.0
C768 C 0.60222 0.59911 0.71706 0.0
C769 C 0.62114 0.59932 0.71293 0.0
C770 C 0.62418 0.61613 0.67267 0.0
C771 C 0.60329 0.61134 0.67444 0.0
N772 N 0.57222 0.59841 0.69894 0.0
N773 N 0.65439 0.62444 0.69694 0.0
C774 C 0.59231 0.60308 0.69694 0.0
C775 C 0.63368 0.61233 0.6934 0.0
N776 N 0.59524 0.5979 0.74081 0.0
N777 N 0.63509 0.62446 0.65134 0.0
H778 H 0.6609 0.62628 0.71461 0.0
H779 H 0.66413 0.63535 0.68404 0.0
H780 H 0.629 0.62825 0.63608 0.0
H781 H 0.64971 0.62628 0.64842 0.0
H782 H 0.5826 0.5996 0.74532 0.0
H783 H 0.60387 0.59799 0.75614 0.0
H784 H 0.56289 0.59025 0.71395 0.0
H785 H 0.56445 0.60131 0.68478 0.0
C786 C 1.0153 0.5853 0.85968 0.0
C787 C 1.01957 0.5884 0.8338 0.0
C788 C 0.05684 0.60708 0.84272 0.0
C789 C 0.05255 0.6047 0.86863 0.0
N790 N 1.02792 0.59531 0.90194 0.0
N791 N 0.04401 0.60569 0.80082 0.0
C792 C 1.03181 0.59496 0.87714 0.0
C793 C 0.04026 0.60038 0.82538 0.0
N794 N 0.99556 0.57241 0.86756 0.0
N795 N 0.0767 0.61496 0.83463 0.0
H796 H 1.03226 0.60104 0.78765 0.0
H797 H 0.05853 0.61614 0.79387 0.0
H798 H 0.08926 0.62029 0.8467 0.0
H799 H 0.08063 0.61487 0.81606 0.0
H800 H 0.99176 0.56757 0.88592 0.0
H801 H 0.98305 0.56528 0.85541 0.0
H802 H 1.01326 0.59042 0.90912 0.0
H803 H 0.03961 0.60222 0.91521 0.0
loop_
_geom_bond_atom_site_label_1
_geom_bond_atom_site_label_2
_geom_bond_distance
_geom_bond_site_symmetry_2
_ccdc_geom_bond_type
C0 C1 1.264 . S
C0 C5 1.479 . S
C0 C10 1.465 . S
C1 C0 1.264 . S
C1 C3 1.339 . S
C1 H28 0.931 . S
C2 C3 1.395 . S
C2 C4 1.320 . S
C3 C1 1.339 . S
C3 C2 1.395 . S
C3 H29 0.929 . S
C4 C2 1.320 . S
C4 C5 1.405 . S
C4 H30 0.930 . S
C5 C0 1.479 . S
C5 C4 1.405 . S
C5 H31 0.931 . S
U6 O7 2.454 . S
U6 O8 2.458 . S
U6 C9 2.984 . S
U6 C10 2.847 . S
U6 C23 2.882 . S
U6 O24 2.441 . S
U6 O25 2.420 . S
U6 O26 2.455 . S
U6 O27 2.449 . S
O7 U6 2.454 . S
O7 C9 1.353 . S
O8 U6 2.458 . S
O8 C9 1.286 . S
C9 U6 2.984 . S
C9 O7 1.353 . S
C9 O8 1.286 . S
C9 C11 1.363 . S
C10 C0 1.465 . S
C10 U6 2.847 . S
C10 O24 1.249 . S
C10 O25 1.202 . S
C11 C9 1.363 . S
C11 C13 1.408 . S
C11 C16 1.342 . S
C12 C13 1.310 . S
C12 C15 1.461 . S
C12 H32 0.932 . S
C13 C11 1.408 . S
C13 C12 1.310 . S
C13 H33 0.930 . S
C14 C15 1.474 . S
C14 C16 1.285 . S
C14 H34 0.929 . S
C15 C12 1.461 . S
C15 C14 1.474 . S
C16 C11 1.342 . S
C16 C14 1.285 . S
C16 H35 0.930 . S
C17 C20 1.424 . S
C17 C22 1.245 . S
C17 C23 1.428 . S
C18 C21 1.260 . S
C18 C22 1.477 . S
C18 H36 0.932 . S
C19 C20 1.384 . S
C19 C21 1.479 . S
C19 H37 0.929 . S
C20 C17 1.424 . S
C20 C19 1.384 . S
C20 H38 0.928 . S
C21 C18 1.260 . S
C21 C19 1.479 . S
C22 C17 1.245 . S
C22 C18 1.477 . S
C22 H39 0.932 . S
C23 U6 2.882 . S
C23 C17 1.428 . S
C23 O26 1.301 . S
C23 O27 1.282 . S
O24 U6 2.441 . S
O24 C10 1.249 . S
O25 U6 2.420 . S
O25 C10 1.202 . S
O26 U6 2.455 . S
O26 C23 1.301 . S
O27 U6 2.449 . S
O27 C23 1.282 . S
H28 C1 0.931 . S
H29 C3 0.929 . S
H30 C4 0.930 . S
H31 C5 0.931 . S
H32 C12 0.932 . S
H33 C13 0.930 . S
H34 C14 0.929 . S
H35 C16 0.930 . S
H36 C18 0.932 . S
H37 C19 0.929 . S
H38 C20 0.928 . S
H39 C22 0.932 . S
C40 C41 1.264 . S
C40 C45 1.479 . S
C40 C50 1.465 . S
C41 C40 1.264 . S
C41 C43 1.339 . S
C41 H68 0.931 . S
C42 C43 1.395 . S
C42 C44 1.320 . S
C43 C41 1.339 . S
C43 C42 1.395 . S
C43 H69 0.929 . S
C44 C42 1.320 . S
C44 C45 1.405 . S
C44 H70 0.930 . S
C45 C40 1.479 . S
C45 C44 1.405 . S
C45 H71 0.931 . S
U46 O47 2.454 . S
U46 O48 2.458 . S
U46 C49 2.984 . S
U46 C50 2.847 . S
U46 C63 2.882 . S
U46 O64 2.441 . S
U46 O65 2.420 . S
U46 O66 2.455 . S
U46 O67 2.449 . S
O47 U46 2.454 . S
O47 C49 1.353 . S
O48 U46 2.458 . S
O48 C49 1.286 . S
C49 U46 2.984 . S
C49 O47 1.353 . S
C49 O48 1.286 . S
C49 C51 1.363 . S
C50 C40 1.465 . S
C50 U46 2.847 . S
C50 O64 1.249 . S
C50 O65 1.202 . S
C51 C49 1.363 . S
C51 C53 1.408 . S
C51 C56 1.342 . S
C52 C53 1.310 . S
C52 C55 1.461 . S
C52 H72 0.932 . S
C53 C51 1.408 . S
C53 C52 1.310 . S
C53 H73 0.930 . S
C54 C55 1.474 . S
C54 C56 1.285 . S
C54 H74 0.929 . S
C55 C52 1.461 . S
C55 C54 1.474 . S
C56 C51 1.342 . S
C56 C54 1.285 . S
C56 H75 0.930 . S
C57 C60 1.424 . S
C57 C62 1.245 . S
C57 C63 1.428 . S
C58 C61 1.260 . S
C58 C62 1.477 . S
C58 H76 0.932 . S
C59 C60 1.384 . S
C59 C61 1.479 . S
C59 H77 0.929 . S
C60 C57 1.424 . S
C60 C59 1.384 . S
C60 H78 0.928 . S
C61 C58 1.260 . S
C61 C59 1.479 . S
C62 C57 1.245 . S
C62 C58 1.477 . S
C62 H79 0.932 . S
C63 U46 2.882 . S
C63 C57 1.428 . S
C63 O66 1.301 . S
C63 O67 1.282 . S
O64 U46 2.441 . S
O64 C50 1.249 . S
O65 U46 2.420 . S
O65 C50 1.202 . S
O66 U46 2.455 . S
O66 C63 1.301 . S
O67 U46 2.449 . S
O67 C63 1.282 . S
H68 C41 0.931 . S
H69 C43 0.929 . S
H70 C44 0.930 . S
H71 C45 0.931 . S
H72 C52 0.932 . S
H73 C53 0.930 . S
H74 C54 0.929 . S
H75 C56 0.930 . S
H76 C58 0.932 . S
H77 C59 0.929 . S
H78 C60 0.928 . S
H79 C62 0.932 . S
C80 C81 1.264 . S
C80 C85 1.479 . S
C80 C90 1.465 . S
C81 C80 1.264 . S
C81 C83 1.339 . S
C81 H108 0.931 . S
C82 C83 1.395 . S
C82 C84 1.320 . S
C83 C81 1.339 . S
C83 C82 1.395 . S
C83 H109 0.929 . S
C84 C82 1.320 . S
C84 C85 1.405 . S
C84 H110 0.930 . S
C85 C80 1.479 . S
C85 C84 1.405 . S
C85 H111 0.931 . S
U86 O87 2.454 . S
U86 O88 2.458 . S
U86 C89 2.984 . S
U86 C90 2.847 . S
U86 C103 2.882 . S
U86 O104 2.441 . S
U86 O105 2.420 . S
U86 O106 2.455 . S
U86 O107 2.449 . S
O87 U86 2.454 . S
O87 C89 1.353 . S
O88 U86 2.458 . S
O88 C89 1.286 . S
C89 U86 2.984 . S
C89 O87 1.353 . S
C89 O88 1.286 . S
C89 C91 1.363 . S
C90 C80 1.465 . S
C90 U86 2.847 . S
C90 O104 1.249 . S
C90 O105 1.202 . S
C91 C89 1.363 . S
C91 C93 1.408 . S
C91 C96 1.342 . S
C92 C93 1.310 . S
C92 C95 1.461 . S
C92 H112 0.932 . S
C93 C91 1.408 . S
C93 C92 1.310 . S
C93 H113 0.930 . S
C94 C95 1.474 . S
C94 C96 1.285 . S
C94 H114 0.929 . S
C95 C92 1.461 . S
C95 C94 1.474 . S
C96 C91 1.342 . S
C96 C94 1.285 . S
C96 H115 0.930 . S
C97 C100 1.424 . S
C97 C102 1.245 . S
C97 C103 1.428 . S
C98 C101 1.260 . S
C98 C102 1.477 . S
C98 H116 0.932 . S
C99 C100 1.384 . S
C99 C101 1.479 . S
C99 H117 0.929 . S
C100 C97 1.424 . S
C100 C99 1.384 . S
C100 H118 0.928 . S
C101 C98 1.260 . S
C101 C99 1.479 . S
C102 C97 1.245 . S
C102 C98 1.477 . S
C102 H119 0.932 . S
C103 U86 2.882 . S
C103 C97 1.428 . S
C103 O106 1.301 . S
C103 O107 1.282 . S
O104 U86 2.441 . S
O104 C90 1.249 . S
O105 U86 2.420 . S
O105 C90 1.202 . S
O106 U86 2.455 . S
O106 C103 1.301 . S
O107 U86 2.449 . S
O107 C103 1.282 . S
H108 C81 0.931 . S
H109 C83 0.929 . S
H110 C84 0.930 . S
H111 C85 0.931 . S
H112 C92 0.932 . S
H113 C93 0.930 . S
H114 C94 0.929 . S
H115 C96 0.930 . S
H116 C98 0.932 . S
H117 C99 0.929 . S
H118 C100 0.928 . S
H119 C102 0.932 . S
C120 C121 1.264 . S
C120 C125 1.479 . S
C120 C130 1.465 . S
C121 C120 1.264 . S
C121 C123 1.339 . S
C121 H148 0.931 . S
C122 C123 1.395 . S
C122 C124 1.320 . S
C123 C121 1.339 . S
C123 C122 1.395 . S
C123 H149 0.929 . S
C124 C122 1.320 . S
C124 C125 1.405 . S
C124 H150 0.930 . S
C125 C120 1.479 . S
C125 C124 1.405 . S
C125 H151 0.931 . S
U126 O127 2.454 . S
U126 O128 2.458 . S
U126 C129 2.984 . S
U126 C130 2.847 . S
U126 C143 2.882 . S
U126 O144 2.441 . S
U126 O145 2.420 . S
U126 O146 2.455 . S
U126 O147 2.449 . S
O127 U126 2.454 . S
O127 C129 1.353 . S
O128 U126 2.458 . S
O128 C129 1.286 . S
C129 U126 2.984 . S
C129 O127 1.353 . S
C129 O128 1.286 . S
C129 C131 1.363 . S
C130 C120 1.465 . S
C130 U126 2.847 . S
C130 O144 1.249 . S
C130 O145 1.202 . S
C131 C129 1.363 . S
C131 C133 1.408 . S
C131 C136 1.342 . S
C132 C133 1.310 . S
C132 C135 1.461 . S
C132 H152 0.932 . S
C133 C131 1.408 . S
C133 C132 1.310 . S
C133 H153 0.930 . S
C134 C135 1.474 . S
C134 C136 1.285 . S
C134 H154 0.929 . S
C135 C132 1.461 . S
C135 C134 1.474 . S
C136 C131 1.342 . S
C136 C134 1.285 . S
C136 H155 0.930 . S
C137 C140 1.424 . S
C137 C142 1.245 . S
C137 C143 1.428 . S
C138 C141 1.260 . S
C138 C142 1.477 . S
C138 H156 0.932 . S
C139 C140 1.384 . S
C139 C141 1.479 . S
C139 H157 0.929 . S
C140 C137 1.424 . S
C140 C139 1.384 . S
C140 H158 0.928 . S
C141 C138 1.260 . S
C141 C139 1.479 . S
C142 C137 1.245 . S
C142 C138 1.477 . S
C142 H159 0.932 . S
C143 U126 2.882 . S
C143 C137 1.428 . S
C143 O146 1.301 . S
C143 O147 1.282 . S
O144 U126 2.441 . S
O144 C130 1.249 . S
O145 U126 2.420 . S
O145 C130 1.202 . S
O146 U126 2.455 . S
O146 C143 1.301 . S
O147 U126 2.449 . S
O147 C143 1.282 . S
H148 C121 0.931 . S
H149 C123 0.929 . S
H150 C124 0.930 . S
H151 C125 0.931 . S
H152 C132 0.932 . S
H153 C133 0.930 . S
H154 C134 0.929 . S
H155 C136 0.930 . S
H156 C138 0.932 . S
H157 C139 0.929 . S
H158 C140 0.928 . S
H159 C142 0.932 . S
C160 C161 1.264 . S
C160 C165 1.479 . S
C160 C170 1.465 . S
C161 C160 1.264 . S
C161 C163 1.339 . S
C161 H188 0.931 . S
C162 C163 1.395 . S
C162 C164 1.320 . S
C163 C161 1.339 . S
C163 C162 1.395 . S
C163 H189 0.929 . S
C164 C162 1.320 . S
C164 C165 1.405 . S
C164 H190 0.930 . S
C165 C160 1.479 . S
C165 C164 1.405 . S
C165 H191 0.931 . S
U166 O167 2.454 . S
U166 O168 2.458 . S
U166 C169 2.984 . S
U166 C170 2.847 . S
U166 C183 2.882 . S
U166 O184 2.441 . S
U166 O185 2.420 . S
U166 O186 2.455 . S
U166 O187 2.449 . S
O167 U166 2.454 . S
O167 C169 1.353 . S
O168 U166 2.458 . S
O168 C169 1.286 . S
C169 U166 2.984 . S
C169 O167 1.353 . S
C169 O168 1.286 . S
C169 C171 1.363 . S
C170 C160 1.465 . S
C170 U166 2.847 . S
C170 O184 1.249 . S
C170 O185 1.202 . S
C171 C169 1.363 . S
C171 C173 1.408 . S
C171 C176 1.342 . S
C172 C173 1.310 . S
C172 C175 1.461 . S
C172 H192 0.932 . S
C173 C171 1.408 . S
C173 C172 1.310 . S
C173 H193 0.930 . S
C174 C175 1.474 . S
C174 C176 1.285 . S
C174 H194 0.929 . S
C175 C172 1.461 . S
C175 C174 1.474 . S
C176 C171 1.342 . S
C176 C174 1.285 . S
C176 H195 0.930 . S
C177 C180 1.424 . S
C177 C182 1.245 . S
C177 C183 1.428 . S
C178 C181 1.260 . S
C178 C182 1.477 . S
C178 H196 0.932 . S
C179 C180 1.384 . S
C179 C181 1.479 . S
C179 H197 0.929 . S
C180 C177 1.424 . S
C180 C179 1.384 . S
C180 H198 0.928 . S
C181 C178 1.260 . S
C181 C179 1.479 . S
C182 C177 1.245 . S
C182 C178 1.477 . S
C182 H199 0.932 . S
C183 U166 2.882 . S
C183 C177 1.428 . S
C183 O186 1.301 . S
C183 O187 1.282 . S
O184 U166 2.441 . S
O184 C170 1.249 . S
O185 U166 2.420 . S
O185 C170 1.202 . S
O186 U166 2.455 . S
O186 C183 1.301 . S
O187 U166 2.449 . S
O187 C183 1.282 . S
H188 C161 0.931 . S
H189 C163 0.929 . S
H190 C164 0.930 . S
H191 C165 0.931 . S
H192 C172 0.932 . S
H193 C173 0.930 . S
H194 C174 0.929 . S
H195 C176 0.930 . S
H196 C178 0.932 . S
H197 C179 0.929 . S
H198 C180 0.928 . S
H199 C182 0.932 . S
C200 C201 1.264 . S
C200 C205 1.479 . S
C200 C210 1.465 . S
C201 C200 1.264 . S
C201 C203 1.339 . S
C201 H228 0.931 . S
C202 C203 1.395 . S
C202 C204 1.320 . S
C203 C201 1.339 . S
C203 C202 1.395 . S
C203 H229 0.929 . S
C204 C202 1.320 . S
C204 C205 1.405 . S
C204 H230 0.930 . S
C205 C200 1.479 . S
C205 C204 1.405 . S
C205 H231 0.931 . S
U206 O207 2.454 . S
U206 O208 2.458 . S
U206 C209 2.984 . S
U206 C210 2.847 . S
U206 C223 2.882 . S
U206 O224 2.441 . S
U206 O225 2.420 . S
U206 O226 2.455 . S
U206 O227 2.449 . S
O207 U206 2.454 . S
O207 C209 1.353 . S
O208 U206 2.458 . S
O208 C209 1.286 . S
C209 U206 2.984 . S
C209 O207 1.353 . S
C209 O208 1.286 . S
C209 C211 1.363 . S
C210 C200 1.465 . S
C210 U206 2.847 . S
C210 O224 1.249 . S
C210 O225 1.202 . S
C211 C209 1.363 . S
C211 C213 1.408 . S
C211 C216 1.342 . S
C212 C213 1.310 . S
C212 C215 1.461 . S
C212 H232 0.932 . S
C213 C211 1.408 . S
C213 C212 1.310 . S
C213 H233 0.930 . S
C214 C215 1.474 . S
C214 C216 1.285 . S
C214 H234 0.929 . S
C215 C212 1.461 . S
C215 C214 1.474 . S
C216 C211 1.342 . S
C216 C214 1.285 . S
C216 H235 0.930 . S
C217 C220 1.424 . S
C217 C222 1.245 . S
C217 C223 1.428 1_554 S
C218 C221 1.260 . S
C218 C222 1.477 . S
C218 H236 0.932 . S
C219 C220 1.384 . S
C219 C221 1.479 . S
C219 H237 0.929 . S
C220 C217 1.424 . S
C220 C219 1.384 . S
C220 H238 0.928 . S
C221 C218 1.260 . S
C221 C219 1.479 . S
C222 C217 1.245 . S
C222 C218 1.477 . S
C222 H239 0.932 . S
C223 U206 2.882 . S
C223 C217 1.428 1_556 S
C223 O226 1.301 . S
C223 O227 1.282 . S
O224 U206 2.441 . S
O224 C210 1.249 . S
O225 U206 2.420 . S
O225 C210 1.202 . S
O226 U206 2.455 . S
O226 C223 1.301 . S
O227 U206 2.449 . S
O227 C223 1.282 . S
H228 C201 0.931 . S
H229 C203 0.929 . S
H230 C204 0.930 . S
H231 C205 0.931 . S
H232 C212 0.932 . S
H233 C213 0.930 . S
H234 C214 0.929 . S
H235 C216 0.930 . S
H236 C218 0.932 . S
H237 C219 0.929 . S
H238 C220 0.928 . S
H239 C222 0.932 . S
C240 C241 1.264 . S
C240 C245 1.479 . S
C240 C250 1.465 . S
C241 C240 1.264 . S
C241 C243 1.339 . S
C241 H268 0.931 . S
C242 C243 1.395 . S
C242 C244 1.320 . S
C243 C241 1.339 . S
C243 C242 1.395 . S
C243 H269 0.929 . S
C244 C242 1.320 . S
C244 C245 1.405 . S
C244 H270 0.930 . S
C245 C240 1.479 . S
C245 C244 1.405 . S
C245 H271 0.931 . S
U246 O247 2.454 . S
U246 O248 2.458 . S
U246 C249 2.984 . S
U246 C250 2.847 . S
U246 C263 2.882 . S
U246 O264 2.441 . S
U246 O265 2.420 . S
U246 O266 2.455 . S
U246 O267 2.449 . S
O247 U246 2.454 . S
O247 C249 1.353 . S
O248 U246 2.458 . S
O248 C249 1.286 . S
C249 U246 2.984 . S
C249 O247 1.353 . S
C249 O248 1.286 . S
C249 C251 1.363 . S
C250 C240 1.465 . S
C250 U246 2.847 . S
C250 O264 1.249 . S
C250 O265 1.202 . S
C251 C249 1.363 . S
C251 C253 1.408 . S
C251 C256 1.342 . S
C252 C253 1.310 . S
C252 C255 1.461 . S
C252 H272 0.932 . S
C253 C251 1.408 . S
C253 C252 1.310 . S
C253 H273 0.930 . S
C254 C255 1.474 . S
C254 C256 1.285 . S
C254 H274 0.929 . S
C255 C252 1.461 . S
C255 C254 1.474 . S
C256 C251 1.342 . S
C256 C254 1.285 . S
C256 H275 0.930 . S
C257 C260 1.424 . S
C257 C262 1.245 . S
C257 C263 1.428 . S
C258 C261 1.260 . S
C258 C262 1.477 . S
C258 H276 0.932 . S
C259 C260 1.384 . S
C259 C261 1.479 . S
C259 H277 0.929 . S
C260 C257 1.424 . S
C260 C259 1.384 . S
C260 H278 0.928 . S
C261 C258 1.260 . S
C261 C259 1.479 . S
C262 C257 1.245 . S
C262 C258 1.477 . S
C262 H279 0.932 . S
C263 U246 2.882 . S
C263 C257 1.428 . S
C263 O266 1.301 . S
C263 O267 1.282 . S
O264 U246 2.441 . S
O264 C250 1.249 . S
O265 U246 2.420 . S
O265 C250 1.202 . S
O266 U246 2.455 . S
O266 C263 1.301 . S
O267 U246 2.449 . S
O267 C263 1.282 . S
H268 C241 0.931 . S
H269 C243 0.929 . S
H270 C244 0.930 . S
H271 C245 0.931 . S
H272 C252 0.932 . S
H273 C253 0.930 . S
H274 C254 0.929 . S
H275 C256 0.930 . S
H276 C258 0.932 . S
H277 C259 0.929 . S
H278 C260 0.928 . S
H279 C262 0.932 . S
C280 C281 1.264 . S
C280 C285 1.479 . S
C280 C290 1.465 . S
C281 C280 1.264 . S
C281 C283 1.339 . S
C281 H308 0.931 . S
C282 C283 1.395 . S
C282 C284 1.320 . S
C283 C281 1.339 . S
C283 C282 1.395 . S
C283 H309 0.929 . S
C284 C282 1.320 . S
C284 C285 1.405 . S
C284 H310 0.930 . S
C285 C280 1.479 . S
C285 C284 1.405 . S
C285 H311 0.931 . S
U286 O287 2.454 . S
U286 O288 2.458 . S
U286 C289 2.984 . S
U286 C290 2.847 . S
U286 C303 2.882 . S
U286 O304 2.441 . S
U286 O305 2.420 . S
U286 O306 2.455 . S
U286 O307 2.449 . S
O287 U286 2.454 . S
O287 C289 1.353 . S
O288 U286 2.458 . S
O288 C289 1.286 . S
C289 U286 2.984 . S
C289 O287 1.353 . S
C289 O288 1.286 . S
C289 C291 1.363 . S
C290 C280 1.465 . S
C290 U286 2.847 . S
C290 O304 1.249 . S
C290 O305 1.202 . S
C291 C289 1.363 . S
C291 C293 1.408 . S
C291 C296 1.342 . S
C292 C293 1.310 . S
C292 C295 1.461 . S
C292 H312 0.932 . S
C293 C291 1.408 . S
C293 C292 1.310 . S
C293 H313 0.930 . S
C294 C295 1.474 . S
C294 C296 1.285 . S
C294 H314 0.929 . S
C295 C292 1.461 . S
C295 C294 1.474 . S
C296 C291 1.342 . S
C296 C294 1.285 . S
C296 H315 0.930 . S
C297 C300 1.424 . S
C297 C302 1.245 . S
C297 C303 1.428 . S
C298 C301 1.260 . S
C298 C302 1.477 . S
C298 H316 0.932 . S
C299 C300 1.384 . S
C299 C301 1.479 . S
C299 H317 0.929 . S
C300 C297 1.424 . S
C300 C299 1.384 . S
C300 H318 0.928 . S
C301 C298 1.260 . S
C301 C299 1.479 . S
C302 C297 1.245 . S
C302 C298 1.477 . S
C302 H319 0.932 . S
C303 U286 2.882 . S
C303 C297 1.428 . S
C303 O306 1.301 . S
C303 O307 1.282 . S
O304 U286 2.441 . S
O304 C290 1.249 . S
O305 U286 2.420 . S
O305 C290 1.202 . S
O306 U286 2.455 . S
O306 C303 1.301 . S
O307 U286 2.449 . S
O307 C303 1.282 . S
H308 C281 0.931 . S
H309 C283 0.929 . S
H310 C284 0.930 . S
H311 C285 0.931 . S
H312 C292 0.932 . S
H313 C293 0.930 . S
H314 C294 0.929 . S
H315 C296 0.930 . S
H316 C298 0.932 . S
H317 C299 0.929 . S
H318 C300 0.928 . S
H319 C302 0.932 . S
C320 C321 1.264 . S
C320 C325 1.479 . S
C320 C330 1.465 . S
C321 C320 1.264 . S
C321 C323 1.339 . S
C321 H348 0.931 . S
C322 C323 1.395 . S
C322 C324 1.320 . S
C323 C321 1.339 . S
C323 C322 1.395 . S
C323 H349 0.929 . S
C324 C322 1.320 . S
C324 C325 1.405 . S
C324 H350 0.930 . S
C325 C320 1.479 . S
C325 C324 1.405 . S
C325 H351 0.931 . S
U326 O327 2.454 . S
U326 O328 2.458 . S
U326 C329 2.984 . S
U326 C330 2.847 . S
U326 C343 2.882 . S
U326 O344 2.441 . S
U326 O345 2.420 . S
U326 O346 2.455 . S
U326 O347 2.449 . S
O327 U326 2.454 . S
O327 C329 1.353 . S
O328 U326 2.458 . S
O328 C329 1.286 . S
C329 U326 2.984 . S
C329 O327 1.353 . S
C329 O328 1.286 . S
C329 C331 1.363 . S
C330 C320 1.465 . S
C330 U326 2.847 . S
C330 O344 1.249 . S
C330 O345 1.202 . S
C331 C329 1.363 . S
C331 C333 1.408 . S
C331 C336 1.342 . S
C332 C333 1.310 . S
C332 C335 1.461 . S
C332 H352 0.932 . S
C333 C331 1.408 . S
C333 C332 1.310 . S
C333 H353 0.930 . S
C334 C335 1.474 . S
C334 C336 1.285 . S
C334 H354 0.929 . S
C335 C332 1.461 . S
C335 C334 1.474 . S
C336 C331 1.342 . S
C336 C334 1.285 . S
C336 H355 0.930 . S
C337 C340 1.424 . S
C337 C342 1.245 . S
C337 C343 1.428 1_556 S
C338 C341 1.260 . S
C338 C342 1.477 . S
C338 H356 0.932 . S
C339 C340 1.384 . S
C339 C341 1.479 . S
C339 H357 0.929 . S
C340 C337 1.424 . S
C340 C339 1.384 . S
C340 H358 0.928 . S
C341 C338 1.260 . S
C341 C339 1.479 . S
C342 C337 1.245 . S
C342 C338 1.477 . S
C342 H359 0.932 . S
C343 U326 2.882 . S
C343 C337 1.428 1_554 S
C343 O346 1.301 . S
C343 O347 1.282 . S
O344 U326 2.441 . S
O344 C330 1.249 . S
O345 U326 2.420 . S
O345 C330 1.202 . S
O346 U326 2.455 . S
O346 C343 1.301 . S
O347 U326 2.449 . S
O347 C343 1.282 . S
H348 C321 0.931 . S
H349 C323 0.929 . S
H350 C324 0.930 . S
H351 C325 0.931 . S
H352 C332 0.932 . S
H353 C333 0.930 . S
H354 C334 0.929 . S
H355 C336 0.930 . S
H356 C338 0.932 . S
H357 C339 0.929 . S
H358 C340 0.928 . S
H359 C342 0.932 . S
C360 C361 1.264 . S
C360 C365 1.479 . S
C360 C370 1.465 . S
C361 C360 1.264 . S
C361 C363 1.339 . S
C361 H388 0.931 . S
C362 C363 1.395 . S
C362 C364 1.320 . S
C363 C361 1.339 . S
C363 C362 1.395 . S
C363 H389 0.929 . S
C364 C362 1.320 . S
C364 C365 1.405 . S
C364 H390 0.930 . S
C365 C360 1.479 . S
C365 C364 1.405 . S
C365 H391 0.931 . S
U366 O367 2.454 . S
U366 O368 2.458 . S
U366 C369 2.984 . S
U366 C370 2.847 . S
U366 C383 2.882 . S
U366 O384 2.441 . S
U366 O385 2.420 . S
U366 O386 2.455 . S
U366 O387 2.449 . S
O367 U366 2.454 . S
O367 C369 1.353 . S
O368 U366 2.458 . S
O368 C369 1.286 . S
C369 U366 2.984 . S
C369 O367 1.353 . S
C369 O368 1.286 . S
C369 C371 1.363 . S
C370 C360 1.465 . S
C370 U366 2.847 . S
C370 O384 1.249 . S
C370 O385 1.202 . S
C371 C369 1.363 . S
C371 C373 1.408 . S
C371 C376 1.342 . S
C372 C373 1.310 . S
C372 C375 1.461 . S
C372 H392 0.932 . S
C373 C371 1.408 . S
C373 C372 1.310 . S
C373 H393 0.930 . S
C374 C375 1.474 . S
C374 C376 1.285 . S
C374 H394 0.929 . S
C375 C372 1.461 . S
C375 C374 1.474 . S
C376 C371 1.342 . S
C376 C374 1.285 . S
C376 H395 0.930 . S
C377 C380 1.424 . S
C377 C382 1.245 . S
C377 C383 1.428 . S
C378 C381 1.260 . S
C378 C382 1.477 . S
C378 H396 0.932 . S
C379 C380 1.384 . S
C379 C381 1.479 . S
C379 H397 0.929 . S
C380 C377 1.424 . S
C380 C379 1.384 . S
C380 H398 0.928 . S
C381 C378 1.260 . S
C381 C379 1.479 . S
C382 C377 1.245 . S
C382 C378 1.477 . S
C382 H399 0.932 . S
C383 U366 2.882 . S
C383 C377 1.428 . S
C383 O386 1.301 . S
C383 O387 1.282 . S
O384 U366 2.441 . S
O384 C370 1.249 . S
O385 U366 2.420 . S
O385 C370 1.202 . S
O386 U366 2.455 . S
O386 C383 1.301 . S
O387 U366 2.449 . S
O387 C383 1.282 . S
H388 C361 0.931 . S
H389 C363 0.929 . S
H390 C364 0.930 . S
H391 C365 0.931 . S
H392 C372 0.932 . S
H393 C373 0.930 . S
H394 C374 0.929 . S
H395 C376 0.930 . S
H396 C378 0.932 . S
H397 C379 0.929 . S
H398 C380 0.928 . S
H399 C382 0.932 . S
C400 C401 1.264 . S
C400 C405 1.479 . S
C400 C410 1.465 . S
C401 C400 1.264 . S
C401 C403 1.339 . S
C401 H428 0.931 . S
C402 C403 1.395 . S
C402 C404 1.320 . S
C403 C401 1.339 . S
C403 C402 1.395 . S
C403 H429 0.929 . S
C404 C402 1.320 . S
C404 C405 1.405 . S
C404 H430 0.930 . S
C405 C400 1.479 . S
C405 C404 1.405 . S
C405 H431 0.931 . S
U406 O407 2.454 . S
U406 O408 2.458 . S
U406 C409 2.984 . S
U406 C410 2.847 . S
U406 C423 2.882 . S
U406 O424 2.441 . S
U406 O425 2.420 . S
U406 O426 2.455 . S
U406 O427 2.449 . S
O407 U406 2.454 . S
O407 C409 1.353 . S
O408 U406 2.458 . S
O408 C409 1.286 . S
C409 U406 2.984 . S
C409 O407 1.353 . S
C409 O408 1.286 . S
C409 C411 1.363 . S
C410 C400 1.465 . S
C410 U406 2.847 . S
C410 O424 1.249 . S
C410 O425 1.202 . S
C411 C409 1.363 . S
C411 C413 1.408 . S
C411 C416 1.342 . S
C412 C413 1.310 . S
C412 C415 1.461 . S
C412 H432 0.932 . S
C413 C411 1.408 . S
C413 C412 1.310 . S
C413 H433 0.930 . S
C414 C415 1.474 . S
C414 C416 1.285 . S
C414 H434 0.929 . S
C415 C412 1.461 . S
C415 C414 1.474 . S
C416 C411 1.342 . S
C416 C414 1.285 . S
C416 H435 0.930 . S
C417 C420 1.424 . S
C417 C422 1.245 . S
C417 C423 1.428 . S
C418 C421 1.260 . S
C418 C422 1.477 . S
C418 H436 0.932 . S
C419 C420 1.384 . S
C419 C421 1.479 . S
C419 H437 0.929 . S
C420 C417 1.424 . S
C420 C419 1.384 . S
C420 H438 0.928 . S
C421 C418 1.260 . S
C421 C419 1.479 . S
C422 C417 1.245 . S
C422 C418 1.477 . S
C422 H439 0.932 . S
C423 U406 2.882 . S
C423 C417 1.428 . S
C423 O426 1.301 . S
C423 O427 1.282 . S
O424 U406 2.441 . S
O424 C410 1.249 . S
O425 U406 2.420 . S
O425 C410 1.202 . S
O426 U406 2.455 . S
O426 C423 1.301 . S
O427 U406 2.449 . S
O427 C423 1.282 . S
H428 C401 0.931 . S
H429 C403 0.929 . S
H430 C404 0.930 . S
H431 C405 0.931 . S
H432 C412 0.932 . S
H433 C413 0.930 . S
H434 C414 0.929 . S
H435 C416 0.930 . S
H436 C418 0.932 . S
H437 C419 0.929 . S
H438 C420 0.928 . S
H439 C422 0.932 . S
C440 C441 1.264 . S
C440 C445 1.479 . S
C440 C450 1.465 . S
C441 C440 1.264 . S
C441 C443 1.339 . S
C441 H468 0.931 . S
C442 C443 1.395 . S
C442 C444 1.320 . S
C443 C441 1.339 . S
C443 C442 1.395 . S
C443 H469 0.929 . S
C444 C442 1.320 . S
C444 C445 1.405 . S
C444 H470 0.930 . S
C445 C440 1.479 . S
C445 C444 1.405 . S
C445 H471 0.931 . S
U446 O447 2.454 . S
U446 O448 2.458 . S
U446 C449 2.984 . S
U446 C450 2.847 . S
U446 C463 2.882 . S
U446 O464 2.441 . S
U446 O465 2.420 . S
U446 O466 2.455 . S
U446 O467 2.449 . S
O447 U446 2.454 . S
O447 C449 1.353 . S
O448 U446 2.458 . S
O448 C449 1.286 . S
C449 U446 2.984 . S
C449 O447 1.353 . S
C449 O448 1.286 . S
C449 C451 1.363 . S
C450 C440 1.465 . S
C450 U446 2.847 . S
C450 O464 1.249 . S
C450 O465 1.202 . S
C451 C449 1.363 . S
C451 C453 1.408 . S
C451 C456 1.342 . S
C452 C453 1.310 . S
C452 C455 1.461 . S
C452 H472 0.932 . S
C453 C451 1.408 . S
C453 C452 1.310 . S
C453 H473 0.930 . S
C454 C455 1.474 . S
C454 C456 1.285 . S
C454 H474 0.929 . S
C455 C452 1.461 . S
C455 C454 1.474 . S
C456 C451 1.342 . S
C456 C454 1.285 . S
C456 H475 0.930 . S
C457 C460 1.424 . S
C457 C462 1.245 . S
C457 C463 1.428 . S
C458 C461 1.260 . S
C458 C462 1.477 . S
C458 H476 0.932 . S
C459 C460 1.384 . S
C459 C461 1.479 . S
C459 H477 0.929 . S
C460 C457 1.424 . S
C460 C459 1.384 . S
C460 H478 0.928 . S
C461 C458 1.260 . S
C461 C459 1.479 . S
C462 C457 1.245 . S
C462 C458 1.477 . S
C462 H479 0.932 . S
C463 U446 2.882 . S
C463 C457 1.428 . S
C463 O466 1.301 . S
C463 O467 1.282 . S
O464 U446 2.441 . S
O464 C450 1.249 . S
O465 U446 2.420 . S
O465 C450 1.202 . S
O466 U446 2.455 . S
O466 C463 1.301 . S
O467 U446 2.449 . S
O467 C463 1.282 . S
H468 C441 0.931 . S
H469 C443 0.929 . S
H470 C444 0.930 . S
H471 C445 0.931 . S
H472 C452 0.932 . S
H473 C453 0.930 . S
H474 C454 0.929 . S
H475 C456 0.930 . S
H476 C458 0.932 . S
H477 C459 0.929 . S
H478 C460 0.928 . S
H479 C462 0.932 . S
C480 C481 1.363 . S
C480 C486 1.379 . S
C480 N488 1.356 . S
C481 C480 1.363 . S
C481 C487 1.363 . S
C482 C483 1.363 . S
C482 C487 1.379 . S
C482 N489 1.356 . S
C483 C482 1.363 . S
C483 C486 1.363 . S
N484 C486 1.356 . S
N484 H496 0.984 . S
N484 H497 0.985 . S
N485 C487 1.356 . S
N485 H490 0.984 . S
N485 H491 0.985 . S
C486 C480 1.379 . S
C486 C483 1.363 . S
C486 N484 1.356 . S
C487 C481 1.363 . S
C487 C482 1.379 . S
C487 N485 1.356 . S
N488 C480 1.356 . S
N488 H494 0.984 . S
N488 H495 0.984 . S
N489 C482 1.356 . S
N489 H492 0.984 . S
N489 H493 0.985 . S
H490 N485 0.984 . S
H491 N485 0.985 . S
H492 N489 0.984 . S
H493 N489 0.985 . S
H494 N488 0.984 . S
H495 N488 0.984 . S
H496 N484 0.984 . S
H497 N484 0.985 . S
C498 C499 1.363 . S
C498 C504 1.379 . S
C498 N506 1.356 . S
C499 C498 1.363 . S
C499 C505 1.363 . S
C500 C501 1.363 . S
C500 C505 1.379 . S
C500 N507 1.356 . S
C501 C500 1.363 . S
C501 C504 1.363 . S
N502 C504 1.356 . S
N502 H514 0.984 . S
N502 H515 0.985 . S
N503 C505 1.356 . S
N503 H508 0.984 . S
N503 H509 0.985 . S
C504 C498 1.379 . S
C504 C501 1.363 . S
C504 N502 1.356 . S
C505 C499 1.363 . S
C505 C500 1.379 . S
C505 N503 1.356 . S
N506 C498 1.356 . S
N506 H512 0.984 . S
N506 H513 0.984 . S
N507 C500 1.356 . S
N507 H510 0.984 . S
N507 H511 0.985 . S
H508 N503 0.984 . S
H509 N503 0.985 . S
H510 N507 0.984 . S
H511 N507 0.985 . S
H512 N506 0.984 . S
H513 N506 0.984 . S
H514 N502 0.984 . S
H515 N502 0.985 . S
C516 C517 1.363 . S
C516 C522 1.379 . S
C516 N524 1.356 . S
C517 C516 1.363 . S
C517 C523 1.363 . S
C518 C519 1.363 . S
C518 C523 1.379 . S
C518 N525 1.356 . S
C519 C518 1.363 . S
C519 C522 1.363 . S
N520 C522 1.356 . S
N520 H532 0.984 . S
N520 H533 0.985 . S
N521 C523 1.356 . S
N521 H526 0.984 . S
N521 H527 0.985 . S
C522 C516 1.379 . S
C522 C519 1.363 . S
C522 N520 1.356 . S
C523 C517 1.363 . S
C523 C518 1.379 . S
C523 N521 1.356 . S
N524 C516 1.356 . S
N524 H530 0.984 . S
N524 H531 0.984 . S
N525 C518 1.356 . S
N525 H528 0.984 . S
N525 H529 0.985 . S
H526 N521 0.984 . S
H527 N521 0.985 . S
H528 N525 0.984 . S
H529 N525 0.985 . S
H530 N524 0.984 . S
H531 N524 0.984 . S
H532 N520 0.984 . S
H533 N520 0.985 . S
C534 C535 1.363 . S
C534 C540 1.379 . S
C534 N542 1.356 . S
C535 C534 1.363 . S
C535 C541 1.363 . S
C536 C537 1.363 . S
C536 C541 1.379 . S
C536 N543 1.356 . S
C537 C536 1.363 . S
C537 C540 1.363 . S
N538 C540 1.356 . S
N538 H550 0.984 . S
N538 H551 0.985 . S
N539 C541 1.356 . S
N539 H544 0.984 . S
N539 H545 0.985 . S
C540 C534 1.379 . S
C540 C537 1.363 . S
C540 N538 1.356 . S
C541 C535 1.363 . S
C541 C536 1.379 . S
C541 N539 1.356 . S
N542 C534 1.356 . S
N542 H548 0.984 . S
N542 H549 0.984 . S
N543 C536 1.356 . S
N543 H546 0.984 . S
N543 H547 0.985 . S
H544 N539 0.984 . S
H545 N539 0.985 . S
H546 N543 0.984 . S
H547 N543 0.985 . S
H548 N542 0.984 . S
H549 N542 0.984 . S
H550 N538 0.984 . S
H551 N538 0.985 . S
C552 C553 1.363 . S
C552 C558 1.379 . S
C552 N560 1.356 . S
C553 C552 1.363 . S
C553 C559 1.363 . S
C554 C555 1.363 . S
C554 C559 1.379 . S
C554 N561 1.356 . S
C555 C554 1.363 . S
C555 C558 1.363 . S
N556 C558 1.356 . S
N556 H568 0.984 . S
N556 H569 0.985 . S
N557 C559 1.356 . S
N557 H562 0.984 . S
N557 H563 0.985 . S
C558 C552 1.379 . S
C558 C555 1.363 . S
C558 N556 1.356 . S
C559 C553 1.363 . S
C559 C554 1.379 . S
C559 N557 1.356 . S
N560 C552 1.356 . S
N560 H566 0.984 . S
N560 H567 0.984 . S
N561 C554 1.356 . S
N561 H564 0.984 . S
N561 H565 0.985 . S
H562 N557 0.984 . S
H563 N557 0.985 . S
H564 N561 0.984 . S
H565 N561 0.985 . S
H566 N560 0.984 . S
H567 N560 0.984 . S
H568 N556 0.984 . S
H569 N556 0.985 . S
C570 C571 1.363 . S
C570 C576 1.379 . S
C570 N578 1.356 . S
C571 C570 1.363 . S
C571 C577 1.363 . S
C572 C573 1.363 . S
C572 C577 1.379 . S
C572 N579 1.356 . S
C573 C572 1.363 . S
C573 C576 1.363 . S
N574 C576 1.356 . S
N574 H586 0.984 . S
N574 H587 0.985 . S
N575 C577 1.356 . S
N575 H580 0.984 . S
N575 H581 0.985 . S
C576 C570 1.379 . S
C576 C573 1.363 . S
C576 N574 1.356 . S
C577 C571 1.363 . S
C577 C572 1.379 . S
C577 N575 1.356 . S
N578 C570 1.356 . S
N578 H584 0.984 . S
N578 H585 0.984 . S
N579 C572 1.356 . S
N579 H582 0.984 . S
N579 H583 0.985 . S
H580 N575 0.984 . S
H581 N575 0.985 . S
H582 N579 0.984 . S
H583 N579 0.985 . S
H584 N578 0.984 . S
H585 N578 0.984 . S
H586 N574 0.984 . S
H587 N574 0.985 . S
C588 C589 1.363 . S
C588 C594 1.379 . S
C588 N596 1.356 . S
C589 C588 1.363 . S
C589 C595 1.363 . S
C590 C591 1.363 . S
C590 C595 1.379 . S
C590 N597 1.356 . S
C591 C590 1.363 . S
C591 C594 1.363 . S
N592 C594 1.356 . S
N592 H604 0.984 . S
N592 H605 0.985 . S
N593 C595 1.356 . S
N593 H598 0.984 . S
N593 H599 0.985 . S
C594 C588 1.379 . S
C594 C591 1.363 . S
C594 N592 1.356 . S
C595 C589 1.363 . S
C595 C590 1.379 . S
C595 N593 1.356 . S
N596 C588 1.356 . S
N596 H602 0.984 . S
N596 H603 0.984 . S
N597 C590 1.356 . S
N597 H600 0.984 . S
N597 H601 0.985 . S
H598 N593 0.984 . S
H599 N593 0.985 . S
H600 N597 0.984 . S
H601 N597 0.985 . S
H602 N596 0.984 . S
H603 N596 0.984 . S
H604 N592 0.984 . S
H605 N592 0.985 . S
C606 C607 1.363 . S
C606 C612 1.379 . S
C606 N614 1.356 . S
C607 C606 1.363 . S
C607 C613 1.363 . S
C608 C609 1.363 . S
C608 C613 1.379 . S
C608 N615 1.356 . S
C609 C608 1.363 . S
C609 C612 1.363 . S
N610 C612 1.356 . S
N610 H622 0.984 . S
N610 H623 0.985 . S
N611 C613 1.356 . S
N611 H616 0.984 . S
N611 H617 0.985 . S
C612 C606 1.379 . S
C612 C609 1.363 . S
C612 N610 1.356 . S
C613 C607 1.363 . S
C613 C608 1.379 . S
C613 N611 1.356 . S
N614 C606 1.356 . S
N614 H620 0.984 . S
N614 H621 0.984 . S
N615 C608 1.356 . S
N615 H618 0.984 . S
N615 H619 0.985 . S
H616 N611 0.984 . S
H617 N611 0.985 . S
H618 N615 0.984 . S
H619 N615 0.985 . S
H620 N614 0.984 . S
H621 N614 0.984 . S
H622 N610 0.984 . S
H623 N610 0.985 . S
C624 C625 1.363 . S
C624 C630 1.379 . S
C624 N632 1.356 . S
C625 C624 1.363 . S
C625 C631 1.363 . S
C626 C627 1.363 . S
C626 C631 1.379 . S
C626 N633 1.356 . S
C627 C626 1.363 . S
C627 C630 1.363 . S
N628 C630 1.356 . S
N628 H640 0.984 . S
N628 H641 0.985 . S
N629 C631 1.356 . S
N629 H634 0.984 . S
N629 H635 0.985 . S
C630 C624 1.379 . S
C630 C627 1.363 . S
C630 N628 1.356 . S
C631 C625 1.363 . S
C631 C626 1.379 . S
C631 N629 1.356 . S
N632 C624 1.356 . S
N632 H638 0.984 . S
N632 H639 0.984 . S
N633 C626 1.356 . S
N633 H636 0.984 . S
N633 H637 0.985 . S
H634 N629 0.984 . S
H635 N629 0.985 . S
H636 N633 0.984 . S
H637 N633 0.985 . S
H638 N632 0.984 . S
H639 N632 0.984 . S
H640 N628 0.984 . S
H641 N628 0.985 . S
C642 C643 1.363 . S
C642 C648 1.379 . S
C642 N650 1.356 . S
C643 C642 1.363 . S
C643 C649 1.363 . S
C644 C645 1.363 . S
C644 C649 1.379 . S
C644 N651 1.356 . S
C645 C644 1.363 . S
C645 C648 1.363 . S
N646 C648 1.356 . S
N646 H658 0.984 . S
N646 H659 0.985 . S
N647 C649 1.356 . S
N647 H652 0.984 . S
N647 H653 0.985 . S
C648 C642 1.379 . S
C648 C645 1.363 . S
C648 N646 1.356 . S
C649 C643 1.363 . S
C649 C644 1.379 . S
C649 N647 1.356 . S
N650 C642 1.356 . S
N650 H656 0.984 . S
N650 H657 0.984 . S
N651 C644 1.356 . S
N651 H654 0.984 . S
N651 H655 0.985 . S
H652 N647 0.984 . S
H653 N647 0.985 . S
H654 N651 0.984 . S
H655 N651 0.985 . S
H656 N650 0.984 . S
H657 N650 0.984 . S
H658 N646 0.984 . S
H659 N646 0.985 . S
C660 C661 1.363 . S
C660 C666 1.379 . S
C660 N668 1.356 . S
C661 C660 1.363 . S
C661 C667 1.363 . S
C662 C663 1.363 . S
C662 C667 1.379 . S
C662 N669 1.356 . S
C663 C662 1.363 . S
C663 C666 1.363 . S
N664 C666 1.356 . S
N664 H676 0.984 . S
N664 H677 0.985 . S
N665 C667 1.356 . S
N665 H670 0.984 . S
N665 H671 0.985 . S
C666 C660 1.379 . S
C666 C663 1.363 . S
C666 N664 1.356 . S
C667 C661 1.363 . S
C667 C662 1.379 . S
C667 N665 1.356 . S
N668 C660 1.356 . S
N668 H674 0.984 . S
N668 H675 0.984 . S
N669 C662 1.356 . S
N669 H672 0.984 . S
N669 H673 0.985 . S
H670 N665 0.984 . S
H671 N665 0.985 . S
H672 N669 0.984 . S
H673 N669 0.985 . S
H674 N668 0.984 . S
H675 N668 0.984 . S
H676 N664 0.984 . S
H677 N664 0.985 . S
C678 C679 1.363 . S
C678 C684 1.379 . S
C678 N686 1.356 . S
C679 C678 1.363 . S
C679 C685 1.363 . S
C680 C681 1.363 . S
C680 C685 1.379 . S
C680 N687 1.356 . S
C681 C680 1.363 . S
C681 C684 1.363 . S
N682 C684 1.356 . S
N682 H694 0.984 . S
N682 H695 0.985 . S
N683 C685 1.356 . S
N683 H688 0.984 . S
N683 H689 0.985 . S
C684 C678 1.379 . S
C684 C681 1.363 . S
C684 N682 1.356 . S
C685 C679 1.363 . S
C685 C680 1.379 . S
C685 N683 1.356 . S
N686 C678 1.356 . S
N686 H692 0.984 . S
N686 H693 0.984 . S
N687 C680 1.356 . S
N687 H690 0.984 . S
N687 H691 0.985 . S
H688 N683 0.984 . S
H689 N683 0.985 . S
H690 N687 0.984 . S
H691 N687 0.985 . S
H692 N686 0.984 . S
H693 N686 0.984 . S
H694 N682 0.984 . S
H695 N682 0.985 . S
C696 C697 1.363 . S
C696 C702 1.379 1_544 S
C696 N704 1.356 . S
C697 C696 1.363 . S
C697 C703 1.363 . S
C698 C699 1.363 . S
C698 C703 1.379 1_566 S
C698 N705 1.356 . S
C699 C698 1.363 . S
C699 C702 1.363 . S
N700 C702 1.356 . S
N700 H712 0.984 . S
N700 H713 0.985 . S
N701 C703 1.356 . S
N701 H706 0.984 . S
N701 H707 0.985 . S
C702 C696 1.379 1_566 S
C702 C699 1.363 . S
C702 N700 1.356 . S
C703 C697 1.363 . S
C703 C698 1.379 1_544 S
C703 N701 1.356 . S
N704 C696 1.356 . S
N704 H710 0.984 . S
N704 H711 0.984 . S
N705 C698 1.356 . S
N705 H708 0.984 . S
N705 H709 0.985 . S
H706 N701 0.984 . S
H707 N701 0.985 . S
H708 N705 0.984 . S
H709 N705 0.985 . S
H710 N704 0.984 . S
H711 N704 0.984 . S
H712 N700 0.984 . S
H713 N700 0.985 . S
C714 C715 1.363 . S
C714 C720 1.379 . S
C714 N722 1.356 . S
C715 C714 1.363 . S
C715 C721 1.363 . S
C716 C717 1.363 . S
C716 C721 1.379 . S
C716 N723 1.356 . S
C717 C716 1.363 . S
C717 C720 1.363 . S
N718 C720 1.356 . S
N718 H730 0.984 . S
N718 H731 0.985 . S
N719 C721 1.356 . S
N719 H724 0.984 . S
N719 H725 0.985 . S
C720 C714 1.379 . S
C720 C717 1.363 . S
C720 N718 1.356 . S
C721 C715 1.363 . S
C721 C716 1.379 . S
C721 N719 1.356 . S
N722 C714 1.356 . S
N722 H728 0.984 . S
N722 H729 0.984 . S
N723 C716 1.356 . S
N723 H726 0.984 . S
N723 H727 0.985 . S
H724 N719 0.984 . S
H725 N719 0.985 . S
H726 N723 0.984 . S
H727 N723 0.985 . S
H728 N722 0.984 . S
H729 N722 0.984 . S
H730 N718 0.984 . S
H731 N718 0.985 . S
C732 C733 1.363 1_655 S
C732 C738 1.379 . S
C732 N740 1.356 . S
C733 C732 1.363 1_455 S
C733 C739 1.363 . S
C734 C735 1.363 1_455 S
C734 C739 1.379 . S
C734 N741 1.356 . S
C735 C734 1.363 1_655 S
C735 C738 1.363 . S
N736 C738 1.356 . S
N736 H748 0.984 . S
N736 H749 0.985 . S
N737 C739 1.356 . S
N737 H742 0.984 . S
N737 H743 0.985 . S
C738 C732 1.379 . S
C738 C735 1.363 . S
C738 N736 1.356 . S
C739 C733 1.363 . S
C739 C734 1.379 . S
C739 N737 1.356 . S
N740 C732 1.356 . S
N740 H746 0.984 . S
N740 H747 0.984 1_655 S
N741 C734 1.356 . S
N741 H744 0.984 1_455 S
N741 H745 0.985 . S
H742 N737 0.984 . S
H743 N737 0.985 . S
H744 N741 0.984 1_655 S
H745 N741 0.985 . S
H746 N740 0.984 . S
H747 N740 0.984 1_455 S
H748 N736 0.984 . S
H749 N736 0.985 . S
C750 C751 1.363 . S
C750 C756 1.364 1_545 S
C750 N758 1.356 . S
C751 C750 1.363 . S
C751 C757 1.368 . S
C752 C753 1.363 . S
C752 C757 1.364 1_565 S
C752 N759 1.356 . S
C753 C752 1.363 . S
C753 C756 1.368 . S
N754 C756 1.370 . S
N754 H766 0.984 1_565 S
N754 H767 0.985 . S
N755 C757 1.370 . S
N755 H760 0.984 . S
N755 H761 0.985 1_545 S
C756 C750 1.364 1_565 S
C756 C753 1.368 . S
C756 N754 1.370 . S
C757 C751 1.368 . S
C757 C752 1.364 1_545 S
C757 N755 1.370 . S
N758 C750 1.356 . S
N758 H764 0.984 . S
N758 H765 0.984 . S
N759 C752 1.356 . S
N759 H762 0.984 . S
N759 H763 0.985 . S
H760 N755 0.984 . S
H761 N755 0.985 1_565 S
H762 N759 0.984 . S
H763 N759 0.985 . S
H764 N758 0.984 . S
H765 N758 0.984 . S
H766 N754 0.984 1_545 S
H767 N754 0.985 . S
C768 C769 1.363 . S
C768 C774 1.379 . S
C768 N776 1.356 . S
C769 C768 1.363 . S
C769 C775 1.363 . S
C770 C771 1.363 . S
C770 C775 1.379 . S
C770 N777 1.356 . S
C771 C770 1.363 . S
C771 C774 1.363 . S
N772 C774 1.356 . S
N772 H784 0.984 . S
N772 H785 0.985 . S
N773 C775 1.356 . S
N773 H778 0.984 . S
N773 H779 0.985 . S
C774 C768 1.379 . S
C774 C771 1.363 . S
C774 N772 1.356 . S
C775 C769 1.363 . S
C775 C770 1.379 . S
C775 N773 1.356 . S
N776 C768 1.356 . S
N776 H782 0.984 . S
N776 H783 0.984 . S
N777 C770 1.356 . S
N777 H780 0.984 . S
N777 H781 0.985 . S
H778 N773 0.984 . S
H779 N773 0.985 . S
H780 N777 0.984 . S
H781 N777 0.985 . S
H782 N776 0.984 . S
H783 N776 0.984 . S
H784 N772 0.984 . S
H785 N772 0.985 . S
C786 C787 1.363 . S
C786 C792 1.379 . S
C786 N794 1.356 . S
C787 C786 1.363 . S
C787 C793 1.363 1_655 S
C788 C789 1.363 . S
C788 C793 1.379 . S
C788 N795 1.356 . S
C789 C788 1.363 . S
C789 C792 1.363 1_455 S
N790 C792 1.356 . S
N790 H802 0.984 . S
N790 H803 0.985 1_655 S
N791 C793 1.356 . S
N791 H796 0.984 1_455 S
N791 H797 0.985 . S
C792 C786 1.379 . S
C792 C789 1.363 1_655 S
C792 N790 1.356 . S
C793 C787 1.363 1_455 S
C793 C788 1.379 . S
C793 N791 1.356 . S
N794 C786 1.356 . S
N794 H800 0.984 . S
N794 H801 0.984 . S
N795 C788 1.356 . S
N795 H798 0.984 . S
N795 H799 0.985 . S
H796 N791 0.984 1_655 S
H797 N791 0.985 . S
H798 N795 0.984 . S
H799 N795 0.985 . S
H800 N794 0.984 . S
H801 N794 0.984 . S
H802 N790 0.984 . S
H803 N790 0.985 1_455 S
C481 C21 1.580 . S
C483 C421 1.580 . S
C499 C461 1.579 . S
C501 C61 1.579 . S
C517 C261 1.579 . S
C519 C101 1.579 . S
C535 C141 1.579 . S
C537 C301 1.579 . S
C553 C341 1.579 . S
C555 C181 1.579 . S
C571 C221 1.579 . S
C573 C381 1.579 . S
C589 C2 1.534 . S
C591 C322 1.534 . S
C607 C362 1.534 . S
C609 C42 1.535 . S
C625 C82 1.535 . S
C627 C402 1.535 . S
C643 C442 1.535 . S
C645 C122 1.535 . S
C661 C162 1.535 . S
C663 C242 1.535 . S
C679 C202 1.535 . S
C681 C282 1.535 . S
C697 C15 1.549 . S
C699 C295 1.549 . S
C715 C335 1.549 . S
C717 C55 1.549 . S
C733 C375 1.548 . S
C735 C95 1.548 . S
C751 C415 1.549 . S
C753 C135 1.549 . S
C769 C175 1.549 . S
C771 C455 1.549 . S
C787 C255 1.549 . S
C789 C215 1.549 . S
