# Generated by pormake.
# Topology pcu-i, (5)-cn, num edge types: 1
# Building blocks:
#     Node 0, Type 0, BuildingBlock: BEQFEK_clean_sbu_0, # of connection points: 5
#     Node 1, Type 0, BuildingBlock: BEQFEK_clean_sbu_0, # of connection points: 5
#     Node 2, Type 0, BuildingBlock: BEQFEK_clean_sbu_0, # of connection points: 5
#     Node 3, Type 0, BuildingBlock: BEQFEK_clean_sbu_0, # of connection points: 5
#     Node 4, Type 0, BuildingBlock: BEQFEK_clean_sbu_0, # of connection points: 5
#     Node 5, Type 0, BuildingBlock: BEQFEK_clean_sbu_0, # of connection points: 5
#     Node 6, Type 0, BuildingBlock: BEQFEK_clean_sbu_0, # of connection points: 5
#     Node 7, Type 0, BuildingBlock: BEQFEK_clean_sbu_0, # of connection points: 5
#     Node 8, Type 0, BuildingBlock: BEQFEK_clean_sbu_0, # of connection points: 5
#     Node 9, Type 0, BuildingBlock: BEQFEK_clean_sbu_0, # of connection points: 5
#     Node 10, Type 0, BuildingBlock: BEQFEK_clean_sbu_0, # of connection points: 5
#     Node 11, Type 0, BuildingBlock: BEQFEK_clean_sbu_0, # of connection points: 5
#     Node 12, Type 0, BuildingBlock: BEQFEK_clean_sbu_0, # of connection points: 5
#     Node 13, Type 0, BuildingBlock: BEQFEK_clean_sbu_0, # of connection points: 5
#     Node 14, Type 0, BuildingBlock: BEQFEK_clean_sbu_0, # of connection points: 5
#     Node 15, Type 0, BuildingBlock: BEQFEK_clean_sbu_0, # of connection points: 5
#     Node 16, Type 0, BuildingBlock: BEQFEK_clean_sbu_0, # of connection points: 5
#     Node 17, Type 0, BuildingBlock: BEQFEK_clean_sbu_0, # of connection points: 5
#     Node 18, Type 0, BuildingBlock: BEQFEK_clean_sbu_0, # of connection points: 5
#     Node 19, Type 0, BuildingBlock: BEQFEK_clean_sbu_0, # of connection points: 5
#     Node 20, Type 0, BuildingBlock: BEQFEK_clean_sbu_0, # of connection points: 5
#     Node 21, Type 0, BuildingBlock: BEQFEK_clean_sbu_0, # of connection points: 5
#     Node 22, Type 0, BuildingBlock: BEQFEK_clean_sbu_0, # of connection points: 5
#     Node 23, Type 0, BuildingBlock: BEQFEK_clean_sbu_0, # of connection points: 5
#     Edge 24, Type (0, 0), BuildingBlock: XIVTED_clean_linker_0, # of connection points: 2
#     Edge 25, Type (0, 0), BuildingBlock: XIVTED_clean_linker_0, # of connection points: 2
#     Edge 26, Type (0, 0), BuildingBlock: XIVTED_clean_linker_0, # of connection points: 2
#     Edge 27, Type (0, 0), BuildingBlock: XIVTED_clean_linker_0, # of connection points: 2
#     Edge 28, Type (0, 0), BuildingBlock: XIVTED_clean_linker_0, # of connection points: 2
#     Edge 29, Type (0, 0), BuildingBlock: XIVTED_clean_linker_0, # of connection points: 2
#     Edge 30, Type (0, 0), BuildingBlock: XIVTED_clean_linker_0, # of connection points: 2
#     Edge 31, Type (0, 0), BuildingBlock: XIVTED_clean_linker_0, # of connection points: 2
#     Edge 32, Type (0, 0), BuildingBlock: XIVTED_clean_linker_0, # of connection points: 2
#     Edge 33, Type (0, 0), BuildingBlock: XIVTED_clean_linker_0, # of connection points: 2
#     Edge 34, Type (0, 0), BuildingBlock: XIVTED_clean_linker_0, # of connection points: 2
#     Edge 35, Type (0, 0), BuildingBlock: XIVTED_clean_linker_0, # of connection points: 2
#     Edge 36, Type (0, 0), BuildingBlock: XIVTED_clean_linker_0, # of connection points: 2
#     Edge 37, Type (0, 0), BuildingBlock: XIVTED_clean_linker_0, # of connection points: 2
#     Edge 38, Type (0, 0), BuildingBlock: XIVTED_clean_linker_0, # of connection points: 2
#     Edge 39, Type (0, 0), BuildingBlock: XIVTED_clean_linker_0, # of connection points: 2
#     Edge 40, Type (0, 0), BuildingBlock: XIVTED_clean_linker_0, # of connection points: 2
#     Edge 41, Type (0, 0), BuildingBlock: XIVTED_clean_linker_0, # of connection points: 2
#     Edge 42, Type (0, 0), BuildingBlock: XIVTED_clean_linker_0, # of connection points: 2
#     Edge 43, Type (0, 0), BuildingBlock: XIVTED_clean_linker_0, # of connection points: 2
#     Edge 44, Type (0, 0), BuildingBlock: XIVTED_clean_linker_0, # of connection points: 2
#     Edge 45, Type (0, 0), BuildingBlock: XIVTED_clean_linker_0, # of connection points: 2
#     Edge 46, Type (0, 0), BuildingBlock: XIVTED_clean_linker_0, # of connection points: 2
#     Edge 47, Type (0, 0), BuildingBlock: XIVTED_clean_linker_0, # of connection points: 2
#     Edge 48, Type (0, 0), BuildingBlock: XIVTED_clean_linker_0, # of connection points: 2
#     Edge 49, Type (0, 0), BuildingBlock: XIVTED_clean_linker_0, # of connection points: 2
#     Edge 50, Type (0, 0), BuildingBlock: XIVTED_clean_linker_0, # of connection points: 2
#     Edge 51, Type (0, 0), BuildingBlock: XIVTED_clean_linker_0, # of connection points: 2
#     Edge 52, Type (0, 0), BuildingBlock: XIVTED_clean_linker_0, # of connection points: 2
#     Edge 53, Type (0, 0), BuildingBlock: XIVTED_clean_linker_0, # of connection points: 2
#     Edge 54, Type (0, 0), BuildingBlock: XIVTED_clean_linker_0, # of connection points: 2
#     Edge 55, Type (0, 0), BuildingBlock: XIVTED_clean_linker_0, # of connection points: 2
#     Edge 56, Type (0, 0), BuildingBlock: XIVTED_clean_linker_0, # of connection points: 2
#     Edge 57, Type (0, 0), BuildingBlock: XIVTED_clean_linker_0, # of connection points: 2
#     Edge 58, Type (0, 0), BuildingBlock: XIVTED_clean_linker_0, # of connection points: 2
#     Edge 59, Type (0, 0), BuildingBlock: XIVTED_clean_linker_0, # of connection points: 2
#     Edge 60, Type (0, 0), BuildingBlock: XIVTED_clean_linker_0, # of connection points: 2
#     Edge 61, Type (0, 0), BuildingBlock: XIVTED_clean_linker_0, # of connection points: 2
#     Edge 62, Type (0, 0), BuildingBlock: XIVTED_clean_linker_0, # of connection points: 2
#     Edge 63, Type (0, 0), BuildingBlock: XIVTED_clean_linker_0, # of connection points: 2
#     Edge 64, Type (0, 0), BuildingBlock: XIVTED_clean_linker_0, # of connection points: 2
#     Edge 65, Type (0, 0), BuildingBlock: XIVTED_clean_linker_0, # of connection points: 2
#     Edge 66, Type (0, 0), BuildingBlock: XIVTED_clean_linker_0, # of connection points: 2
#     Edge 67, Type (0, 0), BuildingBlock: XIVTED_clean_linker_0, # of connection points: 2
#     Edge 68, Type (0, 0), BuildingBlock: XIVTED_clean_linker_0, # of connection points: 2
#     Edge 69, Type (0, 0), BuildingBlock: XIVTED_clean_linker_0, # of connection points: 2
#     Edge 70, Type (0, 0), BuildingBlock: XIVTED_clean_linker_0, # of connection points: 2
#     Edge 71, Type (0, 0), BuildingBlock: XIVTED_clean_linker_0, # of connection points: 2
#     Edge 72, Type (0, 0), BuildingBlock: XIVTED_clean_linker_0, # of connection points: 2
#     Edge 73, Type (0, 0), BuildingBlock: XIVTED_clean_linker_0, # of connection points: 2
#     Edge 74, Type (0, 0), BuildingBlock: XIVTED_clean_linker_0, # of connection points: 2
#     Edge 75, Type (0, 0), BuildingBlock: XIVTED_clean_linker_0, # of connection points: 2
#     Edge 76, Type (0, 0), BuildingBlock: XIVTED_clean_linker_0, # of connection points: 2
#     Edge 77, Type (0, 0), BuildingBlock: XIVTED_clean_linker_0, # of connection points: 2
#     Edge 78, Type (0, 0), BuildingBlock: XIVTED_clean_linker_0, # of connection points: 2
#     Edge 79, Type (0, 0), BuildingBlock: XIVTED_clean_linker_0, # of connection points: 2
#     Edge 80, Type (0, 0), BuildingBlock: XIVTED_clean_linker_0, # of connection points: 2
#     Edge 81, Type (0, 0), BuildingBlock: XIVTED_clean_linker_0, # of connection points: 2
#     Edge 82, Type (0, 0), BuildingBlock: XIVTED_clean_linker_0, # of connection points: 2
#     Edge 83, Type (0, 0), BuildingBlock: XIVTED_clean_linker_0, # of connection points: 2
# Relax obj value: 0.233
# Max RMSD: 0.177
# Mean RMSD: 0.177
data_MOF--net-pcu-i--node1-BEQFEK_clean_sbu_0--edge1-XIVTED_clean_linker_0
_symmetry_space_group_name_H-M    P1
_symmetry_Int_Tables_number       1
_symmetry_cell_setting            triclinic
loop_
_symmetry_equiv_pos_as_xyz
'x, y, z'
_cell_length_a     57.418669
_cell_length_b     57.481217
_cell_length_c     57.457016
_cell_angle_alpha  90.099006
_cell_angle_beta   89.887899
_cell_angle_gamma 90.023649
loop_
_atom_site_label
_atom_site_type_symbol
_atom_site_fract_x
_atom_site_fract_y
_atom_site_fract_z
_atom_type_partial_charge
Co0 Co 0.1325 0.11608 0.36893 0.0
Co1 Co 0.13182 0.16991 0.36161 0.0
C2 C 0.08961 0.14083 0.35342 0.0
O3 O 0.10047 0.12225 0.35832 0.0
O4 O 0.09968 0.16046 0.35422 0.0
C5 C 0.13154 0.07084 0.35086 0.0
O6 O 0.12767 0.08237 0.33152 0.0
C7 C 0.12692 0.20994 0.33224 0.0
C8 C 0.14685 0.23742 0.3503 0.0
C9 C 0.13477 0.23258 0.33 0.0
N10 N 0.13442 0.20154 0.35263 0.0
N11 N 0.1459 0.21816 0.36366 0.0
C12 C 0.11306 0.19598 0.31509 0.0
H13 H 0.09544 0.19288 0.32241 0.0
H14 H 0.12137 0.17875 0.31241 0.0
H15 H 0.11098 0.20502 0.29821 0.0
C16 C 0.17459 0.12009 0.33949 0.0
N17 N 0.15521 0.12912 0.34919 0.0
N18 N 0.15475 0.15173 0.34554 0.0
C19 C 0.17367 0.15768 0.3329 0.0
C20 C 0.1868 0.13782 0.32867 0.0
C21 C 0.18312 0.0958 0.34349 0.0
H22 H 0.17767 0.08962 0.36093 0.0
H23 H 0.17568 0.08413 0.33004 0.0
H24 H 0.20239 0.09487 0.34226 0.0
O25 O 0.13729 0.12867 0.40038 0.0
O26 O 0.13644 0.16717 0.39562 0.0
H27 H 0.18122 0.19333 0.34066 0.0
H28 H 0.19511 0.18281 0.31437 0.0
C29 C 0.17917 0.18194 0.32521 0.0
H30 H 0.16458 0.18855 0.31462 0.0
H31 H 0.154 0.21601 0.37976 0.0
O32 O 0.13482 0.08196 0.36969 0.0
C33 C 0.13849 0.14927 0.40851 0.0
Co34 Co 0.87146 0.13461 0.36626 0.0
Co35 Co 0.81718 0.13317 0.36131 0.0
C36 C 0.84541 0.0908 0.35387 0.0
O37 O 0.86382 0.10195 0.35897 0.0
O38 O 0.82566 0.10077 0.3533 0.0
C39 C 0.91689 0.12579 0.34904 0.0
O40 O 0.90571 0.11098 0.33569 0.0
C41 C 0.77278 0.12845 0.33781 0.0
C42 C 0.7506 0.15371 0.35657 0.0
C43 C 0.75096 0.13865 0.33772 0.0
N44 N 0.78482 0.13708 0.35585 0.0
N45 N 0.7713 0.15173 0.36739 0.0
C46 C 0.78335 0.11362 0.31911 0.0
H47 H 0.80226 0.11725 0.31753 0.0
H48 H 0.77481 0.11662 0.30207 0.0
H49 H 0.7811 0.09506 0.32386 0.0
C50 C 0.86591 0.17431 0.33489 0.0
N51 N 0.85711 0.15567 0.34594 0.0
N52 N 0.83436 0.15521 0.34339 0.0
C53 C 0.82798 0.17348 0.33012 0.0
C54 C 0.84776 0.18623 0.32445 0.0
C55 C 0.89067 0.18221 0.33726 0.0
H56 H 0.89628 0.1805 0.35563 0.0
H57 H 0.90199 0.17092 0.3264 0.0
H58 H 0.89301 0.20056 0.33182 0.0
O59 O 0.86143 0.14151 0.39811 0.0
O60 O 0.82288 0.13836 0.39507 0.0
H61 H 0.79332 0.18387 0.339 0.0
H62 H 0.80255 0.19315 0.31037 0.0
C63 C 0.80342 0.17889 0.32331 0.0
H64 H 0.79535 0.16326 0.31548 0.0
H65 H 0.77671 0.16146 0.38174 0.0
O66 O 0.9056 0.13779 0.36384 0.0
C67 C 0.84117 0.14187 0.40714 0.0
Co68 Co 0.84981 0.87269 0.36515 0.0
Co69 Co 0.84997 0.81829 0.36213 0.0
C70 C 0.89272 0.84692 0.35251 0.0
O71 O 0.88163 0.8659 0.35465 0.0
O72 O 0.8827 0.82745 0.35561 0.0
C73 C 0.84949 0.91763 0.34496 0.0
O74 O 0.85252 0.90588 0.32555 0.0
C75 C 0.85734 0.77496 0.33727 0.0
C76 C 0.83082 0.7516 0.3524 0.0
C77 C 0.847 0.75331 0.33454 0.0
N78 N 0.8471 0.7859 0.35524 0.0
N79 N 0.83172 0.77161 0.36467 0.0
C80 C 0.87641 0.78549 0.32288 0.0
H81 H 0.891 0.7905 0.33443 0.0
H82 H 0.86988 0.80146 0.31424 0.0
H83 H 0.88341 0.77317 0.30977 0.0
C84 C 0.80782 0.86647 0.33617 0.0
N85 N 0.82711 0.85817 0.34656 0.0
N86 N 0.82797 0.83543 0.34387 0.0
C87 C 0.80964 0.8287 0.3308 0.0
C88 C 0.79625 0.84813 0.32564 0.0
C89 C 0.79868 0.89067 0.3394 0.0
H90 H 0.80449 0.89791 0.3563 0.0
H91 H 0.80521 0.90187 0.32511 0.0
H92 H 0.77936 0.89092 0.3389 0.0
O93 O 0.84606 0.86238 0.39744 0.0
O94 O 0.84367 0.82372 0.39581 0.0
H95 H 0.79901 0.79393 0.3385 0.0
H96 H 0.79156 0.80336 0.30949 0.0
C97 C 0.80498 0.8042 0.32331 0.0
H98 H 0.82118 0.79639 0.31639 0.0
H99 H 0.82082 0.77605 0.37854 0.0
O100 O 0.84728 0.90681 0.36409 0.0
C101 C 0.84335 0.84273 0.40731 0.0
Co102 Co 0.11259 0.85229 0.36484 0.0
Co103 Co 0.16662 0.85519 0.35752 0.0
C104 C 0.13695 0.89746 0.35561 0.0
O105 O 0.11883 0.88581 0.36069 0.0
O106 O 0.15665 0.88772 0.35308 0.0
C107 C 0.06606 0.86112 0.35146 0.0
O108 O 0.07632 0.87734 0.33904 0.0
C109 C 0.20778 0.86117 0.3293 0.0
C110 C 0.23529 0.8439 0.34983 0.0
C111 C 0.23116 0.85506 0.32884 0.0
N112 N 0.19861 0.8539 0.34948 0.0
N113 N 0.21516 0.84393 0.3619 0.0
C114 C 0.19351 0.87132 0.31002 0.0
H115 H 0.17471 0.86794 0.31295 0.0
H116 H 0.19886 0.86394 0.29297 0.0
H117 H 0.19621 0.89043 0.30956 0.0
C118 C 0.1175 0.81662 0.32837 0.0
N119 N 0.12642 0.83398 0.34132 0.0
N120 N 0.14921 0.83433 0.33881 0.0
C121 C 0.15556 0.81691 0.32439 0.0
C122 C 0.13566 0.80526 0.31725 0.0
C123 C 0.0922 0.8104 0.32765 0.0
H124 H 0.08629 0.8053 0.34532 0.0
H125 H 0.08203 0.82584 0.32222 0.0
H126 H 0.08863 0.79606 0.31524 0.0
O127 O 0.1249 0.8423 0.39528 0.0
O128 O 0.16319 0.84638 0.39045 0.0
H129 H 0.19023 0.8107 0.3368 0.0
H130 H 0.1811 0.79103 0.31418 0.0
C131 C 0.18019 0.80928 0.32042 0.0
H132 H 0.18835 0.82062 0.30713 0.0
H133 H 0.2125 0.83636 0.37819 0.0
O134 O 0.07838 0.84798 0.36428 0.0
C135 C 0.14566 0.84123 0.40305 0.0
Co136 Co 0.13981 0.8645 0.61287 0.0
Co137 Co 0.13632 0.81081 0.62029 0.0
C138 C 0.09485 0.84115 0.62566 0.0
O139 O 0.10658 0.85893 0.6198 0.0
O140 O 0.10427 0.82124 0.62725 0.0
C141 C 0.13306 0.91014 0.62877 0.0
O142 O 0.1195 0.89915 0.64355 0.0
C143 C 0.12882 0.7697 0.64767 0.0
C144 C 0.14627 0.74194 0.62751 0.0
C145 C 0.13407 0.74616 0.64797 0.0
N146 N 0.13743 0.77887 0.62804 0.0
N147 N 0.14756 0.7622 0.61583 0.0
C148 C 0.11833 0.78407 0.66679 0.0
H149 H 0.12316 0.80265 0.66476 0.0
H150 H 0.12425 0.77787 0.68407 0.0
H151 H 0.09908 0.78264 0.66601 0.0
C152 C 0.1785 0.85904 0.64577 0.0
N153 N 0.1599 0.8504 0.6345 0.0
N154 N 0.15896 0.82774 0.63753 0.0
C155 C 0.17703 0.82121 0.65102 0.0
C156 C 0.18994 0.84086 0.65669 0.0
C157 C 0.18686 0.88361 0.64331 0.0
H158 H 0.18599 0.88892 0.62479 0.0
H159 H 0.17532 0.89526 0.65353 0.0
H160 H 0.20503 0.88577 0.64946 0.0
O161 O 0.14704 0.8523 0.58176 0.0
O162 O 0.1425 0.81409 0.58653 0.0
H163 H 0.18376 0.78573 0.64179 0.0
H164 H 0.19824 0.79505 0.6682 0.0
C165 C 0.18215 0.79657 0.6577 0.0
H166 H 0.16755 0.7897 0.66823 0.0
H167 H 0.15594 0.7648 0.59991 0.0
O168 O 0.14409 0.89856 0.61345 0.0
C169 C 0.14699 0.83162 0.57374 0.0
Co170 Co 0.11461 0.12806 0.62096 0.0
Co171 Co 0.16913 0.12709 0.6235 0.0
C172 C 0.14076 0.08381 0.62852 0.0
O173 O 0.12177 0.09489 0.62618 0.0
O174 O 0.16029 0.0942 0.62787 0.0
C175 C 0.06864 0.1182 0.63652 0.0
O176 O 0.07935 0.10165 0.64803 0.0
C177 C 0.21125 0.12137 0.64962 0.0
C178 C 0.23803 0.13908 0.62842 0.0
C179 C 0.23458 0.1276 0.64938 0.0
N180 N 0.20144 0.12881 0.62986 0.0
N181 N 0.21754 0.13904 0.617 0.0
C182 C 0.19757 0.11109 0.66933 0.0
H183 H 0.17868 0.11435 0.66704 0.0
H184 H 0.20333 0.1185 0.68621 0.0
H185 H 0.20039 0.092 0.66968 0.0
C186 C 0.12124 0.16482 0.65595 0.0
N187 N 0.1296 0.14735 0.64276 0.0
N188 N 0.15251 0.14761 0.64346 0.0
C189 C 0.15946 0.16551 0.65696 0.0
C190 C 0.13987 0.17689 0.66535 0.0
C191 C 0.09591 0.17051 0.65838 0.0
H192 H 0.08884 0.17557 0.64116 0.0
H193 H 0.08638 0.15484 0.66436 0.0
H194 H 0.0929 0.18477 0.67107 0.0
O195 O 0.12467 0.1373 0.58922 0.0
O196 O 0.16341 0.13591 0.59107 0.0
H197 H 0.19284 0.17255 0.64167 0.0
H198 H 0.18511 0.19204 0.66502 0.0
C199 C 0.18414 0.17377 0.65885 0.0
H200 H 0.19362 0.16262 0.67137 0.0
H201 H 0.21435 0.14681 0.60092 0.0
O202 O 0.08042 0.1318 0.62363 0.0
C203 C 0.14469 0.13961 0.57982 0.0
Co204 Co 0.8516 0.1106 0.62146 0.0
Co205 Co 0.85423 0.16481 0.62513 0.0
C206 C 0.8957 0.13495 0.63444 0.0
O207 O 0.8842 0.11641 0.63082 0.0
O208 O 0.88615 0.15479 0.63277 0.0
C209 C 0.85283 0.0655 0.64112 0.0
O210 O 0.85917 0.0771 0.65978 0.0
C211 C 0.85965 0.20633 0.6524 0.0
C212 C 0.84459 0.23402 0.63049 0.0
C213 C 0.85441 0.22988 0.65214 0.0
N214 N 0.85319 0.19705 0.632 0.0
N215 N 0.84455 0.21369 0.61875 0.0
C216 C 0.86802 0.19204 0.67251 0.0
H217 H 0.86366 0.17342 0.6699 0.0
H218 H 0.86014 0.19821 0.68905 0.0
H219 H 0.88723 0.19362 0.67383 0.0
C220 C 0.81079 0.11832 0.65241 0.0
N221 N 0.8299 0.12587 0.64101 0.0
N222 N 0.83098 0.14872 0.64252 0.0
C223 C 0.81263 0.15639 0.65504 0.0
C224 C 0.79943 0.13741 0.66182 0.0
C225 C 0.80323 0.09341 0.65363 0.0
H226 H 0.80542 0.085 0.63639 0.0
H227 H 0.81424 0.08415 0.66644 0.0
H228 H 0.78488 0.09165 0.65933 0.0
O229 O 0.84655 0.12127 0.5891 0.0
O230 O 0.84885 0.1599 0.59166 0.0
H231 H 0.80879 0.19095 0.64156 0.0
H232 H 0.78769 0.18342 0.66352 0.0
C233 C 0.80615 0.18145 0.6581 0.0
H234 H 0.81731 0.18934 0.6717 0.0
H235 H 0.83783 0.21101 0.60209 0.0
O236 O 0.84799 0.07647 0.62256 0.0
C237 C 0.84593 0.14139 0.57978 0.0
Co238 Co 0.87602 0.84971 0.62199 0.0
Co239 Co 0.82176 0.84986 0.62724 0.0
C240 C 0.85056 0.89219 0.63724 0.0
O241 O 0.86935 0.88142 0.63279 0.0
O242 O 0.83091 0.8821 0.63584 0.0
C243 C 0.92187 0.84958 0.64037 0.0
O244 O 0.91093 0.85277 0.66023 0.0
C245 C 0.77956 0.85527 0.65412 0.0
C246 C 0.753 0.83678 0.63337 0.0
C247 C 0.75622 0.84899 0.65398 0.0
N248 N 0.78957 0.84722 0.6346 0.0
N249 N 0.77359 0.83642 0.62207 0.0
C250 C 0.79303 0.86621 0.6736 0.0
H251 H 0.81178 0.86175 0.67219 0.0
H252 H 0.78633 0.86029 0.69073 0.0
H253 H 0.79124 0.88539 0.67259 0.0
C254 C 0.87064 0.80689 0.65014 0.0
N255 N 0.86201 0.82642 0.64053 0.0
N256 N 0.83927 0.82686 0.64347 0.0
C257 C 0.83277 0.80783 0.65557 0.0
C258 C 0.85246 0.79457 0.66016 0.0
C259 C 0.8951 0.79844 0.64688 0.0
H260 H 0.90204 0.80427 0.62985 0.0
H261 H 0.9062 0.80555 0.66097 0.0
H262 H 0.89597 0.77917 0.64764 0.0
O263 O 0.86477 0.84684 0.59001 0.0
O264 O 0.8261 0.84556 0.59304 0.0
H265 H 0.79749 0.80003 0.64649 0.0
H266 H 0.8069 0.78668 0.6734 0.0
C267 C 0.80817 0.80241 0.66238 0.0
H268 H 0.80093 0.81716 0.67243 0.0
H269 H 0.77688 0.82829 0.60614 0.0
O270 O 0.91022 0.84721 0.62175 0.0
C271 C 0.84468 0.84516 0.58082 0.0
Co272 Co 0.36554 0.13366 0.1136 0.0
Co273 Co 0.35778 0.13155 0.16755 0.0
C274 C 0.35306 0.08932 0.1384 0.0
O275 O 0.35899 0.10063 0.12036 0.0
O276 O 0.35101 0.09922 0.15809 0.0
C277 C 0.35063 0.12501 0.0675 0.0
O278 O 0.33686 0.11022 0.0782 0.0
C279 C 0.33117 0.12596 0.21001 0.0
C280 C 0.35189 0.14541 0.23593 0.0
C281 C 0.33144 0.13285 0.23318 0.0
N282 N 0.35046 0.13411 0.19965 0.0
N283 N 0.36299 0.14542 0.21526 0.0
C284 C 0.31185 0.11426 0.19697 0.0
H285 H 0.31333 0.11782 0.17805 0.0
H286 H 0.29463 0.12036 0.20333 0.0
H287 H 0.31301 0.09519 0.19965 0.0
C288 C 0.33276 0.1725 0.11822 0.0
N289 N 0.34376 0.15396 0.12728 0.0
N290 N 0.34047 0.15351 0.14994 0.0
C291 C 0.32706 0.1718 0.15604 0.0
C292 C 0.32177 0.18441 0.13613 0.0
C293 C 0.33577 0.18041 0.09357 0.0
H294 H 0.35446 0.17962 0.08871 0.0
H295 H 0.32604 0.16851 0.08187 0.0
H296 H 0.32946 0.19843 0.09091 0.0
O297 O 0.39667 0.14139 0.12547 0.0
O298 O 0.39157 0.13762 0.16374 0.0
H299 H 0.33615 0.18019 0.19119 0.0
H300 H 0.30915 0.1933 0.18158 0.0
C301 C 0.32026 0.17758 0.18055 0.0
H302 H 0.3103 0.16289 0.18801 0.0
H303 H 0.37873 0.15376 0.21162 0.0
O304 O 0.36484 0.13714 0.07935 0.0
C305 C 0.40453 0.14173 0.14618 0.0
Co306 Co 0.85031 0.3633 0.1143 0.0
Co307 Co 0.85212 0.35891 0.16851 0.0
C308 C 0.8945 0.35177 0.13927 0.0
O309 O 0.88309 0.35521 0.12067 0.0
O310 O 0.88465 0.35271 0.15907 0.0
C311 C 0.86291 0.36761 0.06697 0.0
O312 O 0.88216 0.37579 0.0762 0.0
C313 C 0.85856 0.33321 0.21091 0.0
C314 C 0.83968 0.35401 0.23724 0.0
C315 C 0.85218 0.33357 0.23421 0.0
N316 N 0.85022 0.35243 0.20074 0.0
N317 N 0.83927 0.36505 0.21657 0.0
C318 C 0.86973 0.31374 0.19758 0.0
H319 H 0.86573 0.3152 0.17875 0.0
H320 H 0.86358 0.29662 0.20404 0.0
H321 H 0.8889 0.31469 0.19979 0.0
C322 C 0.81115 0.33117 0.12046 0.0
N323 N 0.82968 0.34264 0.12898 0.0
N324 N 0.8301 0.34064 0.15177 0.0
C325 C 0.8117 0.3277 0.15854 0.0
C326 C 0.7991 0.32131 0.13891 0.0
C327 C 0.80355 0.33262 0.09557 0.0
H328 H 0.80304 0.35112 0.09014 0.0
H329 H 0.8165 0.32356 0.08443 0.0
H330 H 0.78612 0.32484 0.09277 0.0
O331 O 0.8435 0.39525 0.12506 0.0
O332 O 0.84534 0.39211 0.16365 0.0
H333 H 0.8037 0.33882 0.19323 0.0
H334 H 0.78981 0.31174 0.185 0.0
C335 C 0.80584 0.32236 0.18337 0.0
H336 H 0.8203 0.31243 0.19126 0.0
H337 H 0.83082 0.38073 0.21309 0.0
O338 O 0.84627 0.36157 0.08023 0.0
C339 C 0.84214 0.40415 0.14535 0.0
Co340 Co 0.61855 0.85246 0.11566 0.0
Co341 Co 0.62208 0.85363 0.16998 0.0
C342 C 0.62959 0.89629 0.14142 0.0
O343 O 0.62646 0.8852 0.12254 0.0
O344 O 0.62832 0.88613 0.16098 0.0
C345 C 0.63794 0.85611 0.07044 0.0
O346 O 0.65627 0.86324 0.08211 0.0
C347 C 0.64871 0.85914 0.21189 0.0
C348 C 0.62733 0.84198 0.23888 0.0
C349 C 0.64845 0.85317 0.23526 0.0
N350 N 0.62879 0.85185 0.20221 0.0
N351 N 0.61584 0.84193 0.21844 0.0
C352 C 0.66853 0.86908 0.19811 0.0
H353 H 0.66646 0.86508 0.17934 0.0
H354 H 0.68541 0.86204 0.2043 0.0
H355 H 0.66872 0.88826 0.20027 0.0
C356 C 0.65105 0.81288 0.12208 0.0
N357 N 0.63909 0.83136 0.13025 0.0
N358 N 0.64054 0.83181 0.15312 0.0
C359 C 0.65358 0.81367 0.16022 0.0
C360 C 0.66073 0.80124 0.14081 0.0
C361 C 0.65236 0.80606 0.09695 0.0
H362 H 0.63486 0.8073 0.08893 0.0
H363 H 0.66421 0.81818 0.08775 0.0
H364 H 0.65927 0.78823 0.09454 0.0
O365 O 0.58647 0.84546 0.12625 0.0
O366 O 0.58895 0.84672 0.16493 0.0
H367 H 0.63968 0.8079 0.19439 0.0
H368 H 0.66284 0.7883 0.18653 0.0
C369 C 0.65653 0.80647 0.18508 0.0
H370 H 0.66935 0.81809 0.1936 0.0
H371 H 0.5996 0.83439 0.21537 0.0
O372 O 0.61975 0.84986 0.0814 0.0
C373 C 0.57723 0.84372 0.14637 0.0
Co374 Co 0.13301 0.61204 0.11206 0.0
Co375 Co 0.13109 0.622 0.16548 0.0
C376 C 0.0887 0.62521 0.13572 0.0
O377 O 0.09989 0.61922 0.11761 0.0
O378 O 0.09876 0.62726 0.15525 0.0
C379 C 0.12935 0.62728 0.06621 0.0
O380 O 0.12136 0.64579 0.07704 0.0
C381 C 0.12771 0.65477 0.20323 0.0
C382 C 0.14129 0.63538 0.23348 0.0
C383 C 0.13343 0.65705 0.22649 0.0
N384 N 0.13256 0.63296 0.19654 0.0
N385 N 0.14032 0.62127 0.21474 0.0
C386 C 0.11769 0.67299 0.18751 0.0
H387 H 0.10501 0.66513 0.17535 0.0
H388 H 0.13176 0.6809 0.17692 0.0
H389 H 0.10889 0.6869 0.19766 0.0
C390 C 0.17209 0.64567 0.115 0.0
N391 N 0.15358 0.63463 0.12436 0.0
N392 N 0.15334 0.63819 0.14701 0.0
C393 C 0.17184 0.65146 0.15278 0.0
C394 C 0.18401 0.65685 0.1327 0.0
C395 C 0.17893 0.6445 0.08986 0.0
H396 H 0.17794 0.62627 0.0836 0.0
H397 H 0.1667 0.65523 0.07955 0.0
H398 H 0.19671 0.65132 0.08678 0.0
O399 O 0.14077 0.58188 0.12628 0.0
O400 O 0.13797 0.58839 0.16449 0.0
H401 H 0.17654 0.6403 0.18815 0.0
H402 H 0.19913 0.65926 0.17752 0.0
C403 C 0.18014 0.65567 0.17714 0.0
H404 H 0.17109 0.671 0.18453 0.0
H405 H 0.14565 0.60392 0.21418 0.0
O406 O 0.1361 0.6099 0.07802 0.0
C407 C 0.1419 0.57489 0.1473 0.0
Co408 Co 0.36513 0.8498 0.86603 0.0
Co409 Co 0.36423 0.85061 0.81167 0.0
C410 C 0.35295 0.89292 0.84045 0.0
O411 O 0.35555 0.88192 0.85941 0.0
O412 O 0.35594 0.88294 0.8209 0.0
C413 C 0.36771 0.8624 0.91331 0.0
O414 O 0.37523 0.88195 0.90415 0.0
C415 C 0.33746 0.8542 0.76988 0.0
C416 C 0.36018 0.83956 0.74248 0.0
C417 C 0.33817 0.84875 0.74639 0.0
N418 N 0.358 0.84863 0.77935 0.0
N419 N 0.37171 0.84016 0.7629 0.0
C420 C 0.31688 0.86207 0.78391 0.0
H421 H 0.31942 0.85817 0.80262 0.0
H422 H 0.30071 0.85349 0.77771 0.0
H423 H 0.31484 0.88116 0.78202 0.0
C424 C 0.33252 0.81096 0.85866 0.0
N425 N 0.34576 0.8285 0.8506 0.0
N426 N 0.3465 0.82764 0.82776 0.0
C427 C 0.33446 0.80884 0.82052 0.0
C428 C 0.32502 0.79771 0.83986 0.0
C429 C 0.32697 0.80745 0.88387 0.0
H430 H 0.32398 0.82452 0.89239 0.0
H431 H 0.31122 0.7965 0.8862 0.0
H432 H 0.34199 0.79896 0.89252 0.0
O433 O 0.39806 0.84478 0.85638 0.0
O434 O 0.39751 0.8458 0.81762 0.0
H435 H 0.3316 0.78103 0.79523 0.0
H436 H 0.32042 0.80883 0.78608 0.0
C437 C 0.3345 0.80009 0.79594 0.0
H438 H 0.3514 0.80403 0.78751 0.0
H439 H 0.38858 0.83405 0.76577 0.0
O440 O 0.36277 0.84546 0.89999 0.0
C441 C 0.40845 0.84369 0.83676 0.0
Co442 Co 0.13572 0.37 0.8682 0.0
Co443 Co 0.13522 0.3606 0.81464 0.0
C444 C 0.0925 0.35466 0.84355 0.0
O445 O 0.10336 0.36006 0.86202 0.0
O446 O 0.10278 0.35432 0.82398 0.0
C447 C 0.13418 0.35298 0.91369 0.0
O448 O 0.13015 0.33353 0.90234 0.0
C449 C 0.1302 0.33011 0.77527 0.0
C450 C 0.15084 0.34707 0.74761 0.0
C451 C 0.13834 0.32711 0.7528 0.0
N452 N 0.13796 0.3506 0.78327 0.0
N453 N 0.14987 0.36097 0.76653 0.0
C454 C 0.11578 0.31362 0.78946 0.0
H455 H 0.09837 0.32145 0.79239 0.0
H456 H 0.12393 0.31106 0.80677 0.0
H457 H 0.11328 0.29663 0.78067 0.0
C458 C 0.17724 0.33961 0.86534 0.0
N459 N 0.15802 0.34921 0.85595 0.0
N460 N 0.15753 0.34465 0.83349 0.0
C461 C 0.17625 0.33152 0.82801 0.0
C462 C 0.18929 0.32794 0.848 0.0
C463 C 0.18586 0.34452 0.88944 0.0
H464 H 0.18058 0.36222 0.89501 0.0
H465 H 0.17832 0.3316 0.90163 0.0
H466 H 0.20512 0.34318 0.89035 0.0
O467 O 0.14157 0.40093 0.8547 0.0
O468 O 0.14081 0.39452 0.81641 0.0
H469 H 0.18425 0.33793 0.79218 0.0
H470 H 0.19749 0.31177 0.8036 0.0
C471 C 0.18177 0.32292 0.80402 0.0
H472 H 0.16703 0.31238 0.79763 0.0
H473 H 0.15823 0.37699 0.76839 0.0
O474 O 0.13775 0.37161 0.90237 0.0
C475 C 0.14316 0.40813 0.83379 0.0
Co476 Co 0.61515 0.13973 0.87635 0.0
Co477 Co 0.625 0.13805 0.82284 0.0
C478 C 0.63181 0.0963 0.85214 0.0
O479 O 0.62481 0.1073 0.87002 0.0
O480 O 0.63343 0.10622 0.83247 0.0
C481 C 0.63309 0.13946 0.92171 0.0
O482 O 0.65263 0.13635 0.91019 0.0
C483 C 0.6539 0.1338 0.78192 0.0
C484 C 0.63478 0.15365 0.75519 0.0
C485 C 0.65529 0.14165 0.75922 0.0
N486 N 0.63374 0.14117 0.79111 0.0
N487 N 0.62212 0.15267 0.77496 0.0
C488 C 0.67131 0.11949 0.79499 0.0
H489 H 0.66434 0.1016 0.79685 0.0
H490 H 0.67372 0.12669 0.81276 0.0
H491 H 0.68829 0.11834 0.78588 0.0
C492 C 0.64471 0.18178 0.87258 0.0
N493 N 0.6355 0.16218 0.86356 0.0
N494 N 0.64028 0.16121 0.84116 0.0
C495 C 0.65329 0.1799 0.83538 0.0
C496 C 0.65644 0.19353 0.8551 0.0
C497 C 0.63947 0.19092 0.89645 0.0
H498 H 0.62201 0.18506 0.90224 0.0
H499 H 0.65275 0.18437 0.9088 0.0
H500 H 0.64002 0.21022 0.89679 0.0
O501 O 0.58405 0.14488 0.86341 0.0
O502 O 0.59064 0.14196 0.82526 0.0
H503 H 0.64766 0.1871 0.79928 0.0
H504 H 0.67387 0.20016 0.81089 0.0
C505 C 0.66243 0.18465 0.81143 0.0
H506 H 0.67283 0.16959 0.80549 0.0
H507 H 0.606 0.1606 0.77771 0.0
O508 O 0.61417 0.14198 0.91056 0.0
C509 C 0.57686 0.14494 0.84245 0.0
Co510 Co 0.84933 0.61888 0.87431 0.0
Co511 Co 0.85071 0.62481 0.82024 0.0
C512 C 0.89289 0.633 0.8491 0.0
O513 O 0.88173 0.62857 0.86769 0.0
O514 O 0.88297 0.6322 0.82937 0.0
C515 C 0.84971 0.63792 0.91991 0.0
O516 O 0.85331 0.65748 0.90866 0.0
C517 C 0.85674 0.6503 0.7773 0.0
C518 C 0.83712 0.62933 0.75171 0.0
C519 C 0.85007 0.64957 0.7541 0.0
N520 N 0.84814 0.63144 0.78801 0.0
N521 N 0.83671 0.61876 0.77262 0.0
C522 C 0.86865 0.66972 0.79 0.0
H523 H 0.86461 0.66896 0.80888 0.0
H524 H 0.86313 0.68686 0.78307 0.0
H525 H 0.88777 0.668 0.78775 0.0
C526 C 0.80781 0.64893 0.86885 0.0
N527 N 0.82711 0.63864 0.86034 0.0
N528 N 0.82806 0.64184 0.83767 0.0
C529 C 0.80962 0.65481 0.83113 0.0
C530 C 0.79621 0.65969 0.85069 0.0
C531 C 0.79876 0.64558 0.89308 0.0
H532 H 0.80413 0.62838 0.89989 0.0
H533 H 0.80588 0.65941 0.90451 0.0
H534 H 0.77947 0.64672 0.89357 0.0
O535 O 0.84414 0.58692 0.86299 0.0
O536 O 0.84569 0.59108 0.82449 0.0
H537 H 0.80165 0.6464 0.79573 0.0
H538 H 0.78968 0.67393 0.80534 0.0
C539 C 0.80481 0.66205 0.80658 0.0
H540 H 0.82016 0.67129 0.79954 0.0
H541 H 0.82808 0.60326 0.77653 0.0
O542 O 0.84685 0.61915 0.90855 0.0
C543 C 0.84322 0.57844 0.84251 0.0
Co544 Co 0.1138 0.36549 0.13239 0.0
Co545 Co 0.168 0.36004 0.12986 0.0
C546 C 0.13883 0.35791 0.08724 0.0
O547 O 0.12045 0.36217 0.09881 0.0
O548 O 0.15848 0.35586 0.09714 0.0
C549 C 0.06764 0.35155 0.12237 0.0
O550 O 0.07823 0.34023 0.10553 0.0
C551 C 0.20956 0.3329 0.1233 0.0
C552 C 0.2369 0.35374 0.14056 0.0
C553 C 0.233 0.33284 0.12908 0.0
N554 N 0.20013 0.35279 0.13102 0.0
N555 N 0.21656 0.36542 0.14099 0.0
C556 C 0.19548 0.31348 0.11305 0.0
H557 H 0.17667 0.31605 0.11664 0.0
H558 H 0.20112 0.29647 0.1202 0.0
H559 H 0.19802 0.31322 0.09391 0.0
C560 C 0.11948 0.32902 0.16774 0.0
N561 N 0.12813 0.3422 0.15044 0.0
N562 N 0.15098 0.34049 0.15027 0.0
C563 C 0.15764 0.32634 0.16772 0.0
C564 C 0.13788 0.31857 0.17926 0.0
C565 C 0.09418 0.32765 0.17391 0.0
H566 H 0.08799 0.34506 0.17956 0.0
H567 H 0.08411 0.32248 0.1583 0.0
H568 H 0.09084 0.3148 0.1879 0.0
O569 O 0.12511 0.39611 0.14307 0.0
O570 O 0.16359 0.39267 0.13934 0.0
H571 H 0.19175 0.34012 0.1743 0.0
H572 H 0.18331 0.31709 0.19378 0.0
C573 C 0.18233 0.32335 0.17556 0.0
H574 H 0.19111 0.31046 0.16418 0.0
H575 H 0.21371 0.38156 0.14883 0.0
O576 O 0.0796 0.36386 0.13635 0.0
C577 C 0.14559 0.40455 0.14456 0.0
Co578 Co 0.11213 0.61722 0.84867 0.0
Co579 Co 0.16613 0.62524 0.84944 0.0
C580 C 0.13879 0.62687 0.89289 0.0
O581 O 0.12041 0.62154 0.88178 0.0
O582 O 0.15814 0.62992 0.88255 0.0
C583 C 0.0664 0.63214 0.85961 0.0
O584 O 0.07759 0.64494 0.8749 0.0
C585 C 0.20996 0.65039 0.85379 0.0
C586 C 0.232 0.63283 0.82754 0.0
C587 C 0.23152 0.65136 0.84298 0.0
N588 N 0.19816 0.63223 0.84502 0.0
N589 N 0.21163 0.62142 0.82978 0.0
C590 C 0.19937 0.66834 0.86949 0.0
H591 H 0.18008 0.66784 0.86836 0.0
H592 H 0.20567 0.68602 0.86493 0.0
H593 H 0.20455 0.66462 0.8877 0.0
C594 C 0.11537 0.65145 0.81116 0.0
N595 N 0.12497 0.64017 0.82926 0.0
N596 N 0.14756 0.64397 0.82951 0.0
C597 C 0.153 0.65823 0.81171 0.0
C598 C 0.13284 0.66324 0.79939 0.0
C599 C 0.09082 0.64766 0.8032 0.0
H600 H 0.08668 0.62882 0.80367 0.0
H601 H 0.07878 0.65674 0.81529 0.0
H602 H 0.08789 0.6542 0.78531 0.0
O603 O 0.12346 0.58671 0.83836 0.0
O604 O 0.16178 0.59196 0.84125 0.0
H605 H 0.18763 0.65067 0.80016 0.0
H606 H 0.17729 0.67911 0.79167 0.0
C607 C 0.1772 0.66592 0.80573 0.0
H608 H 0.18543 0.67376 0.82126 0.0
H609 H 0.20639 0.60711 0.8199 0.0
O610 O 0.0778 0.61841 0.8465 0.0
C611 C 0.14423 0.57911 0.8368 0.0
Co612 Co 0.36456 0.1119 0.8496 0.0
Co613 Co 0.35877 0.16606 0.8517 0.0
C614 C 0.35247 0.13666 0.89397 0.0
O615 O 0.35664 0.11813 0.88258 0.0
O616 O 0.35262 0.15643 0.88411 0.0
C617 C 0.34818 0.06578 0.85575 0.0
O618 O 0.33349 0.07621 0.86988 0.0
C619 C 0.33275 0.20865 0.85824 0.0
C620 C 0.35375 0.23473 0.83932 0.0
C621 C 0.33326 0.23194 0.85188 0.0
N622 N 0.35191 0.19828 0.84981 0.0
N623 N 0.36462 0.21398 0.83881 0.0
C624 C 0.31329 0.19557 0.8697 0.0
H625 H 0.31462 0.17671 0.86579 0.0
H626 H 0.29615 0.20213 0.86372 0.0
H627 H 0.31444 0.19795 0.88883 0.0
C628 C 0.33261 0.11765 0.81018 0.0
N629 N 0.34363 0.12627 0.82894 0.0
N630 N 0.34091 0.14898 0.82964 0.0
C631 C 0.32783 0.15556 0.81132 0.0
C632 C 0.32216 0.13589 0.79841 0.0
C633 C 0.33512 0.09303 0.80191 0.0
H634 H 0.35361 0.08761 0.80317 0.0
H635 H 0.32459 0.08148 0.81324 0.0
H636 H 0.32937 0.09083 0.78363 0.0
O637 O 0.39635 0.12324 0.84284 0.0
O638 O 0.3922 0.1617 0.84505 0.0
H639 H 0.33787 0.19051 0.80332 0.0
H640 H 0.31065 0.18166 0.79008 0.0
C641 C 0.3217 0.18025 0.80581 0.0
H642 H 0.31192 0.18784 0.82058 0.0
H643 H 0.3803 0.21036 0.83035 0.0
O644 O 0.36346 0.07779 0.84516 0.0
C645 C 0.40477 0.14373 0.84173 0.0
Co646 Co 0.87352 0.36567 0.84884 0.0
Co647 Co 0.81923 0.36078 0.85178 0.0
C648 C 0.84868 0.35586 0.8939 0.0
O649 O 0.86694 0.35989 0.88204 0.0
O650 O 0.82875 0.35513 0.88435 0.0
C651 C 0.91929 0.34943 0.85736 0.0
O652 O 0.90835 0.33653 0.87275 0.0
C653 C 0.77582 0.33625 0.85896 0.0
C654 C 0.75038 0.35737 0.8394 0.0
C655 C 0.75253 0.33726 0.85255 0.0
N656 N 0.78678 0.3548 0.85 0.0
N657 N 0.77148 0.36758 0.83862 0.0
C658 C 0.7883 0.31684 0.87102 0.0
H659 H 0.80723 0.31749 0.86712 0.0
H660 H 0.78124 0.29972 0.86553 0.0
H661 H 0.78593 0.3187 0.8901 0.0
C662 C 0.86701 0.33185 0.81112 0.0
N663 N 0.85862 0.3441 0.82924 0.0
N664 N 0.83582 0.34192 0.83008 0.0
C665 C 0.82895 0.32804 0.81241 0.0
C666 C 0.84852 0.3212 0.79986 0.0
C667 C 0.89179 0.33312 0.803 0.0
H668 H 0.89767 0.3515 0.80302 0.0
H669 H 0.90296 0.32327 0.81524 0.0
H670 H 0.89404 0.32593 0.78523 0.0
O671 O 0.86294 0.39728 0.8409 0.0
O672 O 0.82445 0.39401 0.84462 0.0
H673 H 0.79405 0.33834 0.80442 0.0
H674 H 0.80241 0.31067 0.79178 0.0
C675 C 0.8041 0.32212 0.80722 0.0
H676 H 0.79647 0.31287 0.82229 0.0
H677 H 0.77558 0.38286 0.82972 0.0
O678 O 0.9077 0.36351 0.84487 0.0
C679 C 0.84258 0.40609 0.84039 0.0
Co680 Co 0.62103 0.87741 0.85293 0.0
Co681 Co 0.62814 0.82356 0.85507 0.0
C682 C 0.63522 0.85278 0.89691 0.0
O683 O 0.62939 0.87087 0.88566 0.0
O684 O 0.63622 0.83299 0.88711 0.0
C685 C 0.63998 0.92295 0.8538 0.0
O686 O 0.6595 0.91163 0.85747 0.0
C687 C 0.65385 0.78057 0.86067 0.0
C688 C 0.63283 0.75517 0.84087 0.0
C689 C 0.65319 0.75746 0.85364 0.0
N690 N 0.63488 0.79133 0.8524 0.0
N691 N 0.62216 0.77603 0.84088 0.0
C692 C 0.67337 0.79316 0.87255 0.0
H693 H 0.67255 0.81206 0.86879 0.0
H694 H 0.6905 0.78629 0.86676 0.0
H695 H 0.67181 0.79069 0.89164 0.0
C696 C 0.65157 0.87184 0.81163 0.0
N697 N 0.64142 0.86347 0.83106 0.0
N698 N 0.64488 0.84085 0.83217 0.0
C699 C 0.65785 0.83422 0.8137 0.0
C700 C 0.66245 0.85364 0.80008 0.0
C701 C 0.64797 0.89595 0.80247 0.0
H702 H 0.63066 0.90262 0.80781 0.0
H703 H 0.66164 0.90757 0.8096 0.0
H704 H 0.6492 0.89631 0.7832 0.0
O705 O 0.5894 0.86595 0.84705 0.0
O706 O 0.59405 0.82763 0.85041 0.0
H707 H 0.64979 0.79867 0.80601 0.0
H708 H 0.67723 0.8084 0.79389 0.0
C709 C 0.66535 0.8097 0.80904 0.0
H710 H 0.67472 0.80292 0.82438 0.0
H711 H 0.6066 0.78 0.83241 0.0
O712 O 0.62124 0.91164 0.85059 0.0
C713 C 0.58119 0.84537 0.84701 0.0
Co714 Co 0.86943 0.61547 0.13682 0.0
Co715 Co 0.81554 0.62281 0.13545 0.0
C716 C 0.84504 0.63013 0.09335 0.0
O717 O 0.86327 0.62427 0.10434 0.0
O718 O 0.82533 0.63088 0.10338 0.0
C719 C 0.91519 0.6326 0.1339 0.0
O720 O 0.90413 0.65174 0.1281 0.0
C721 C 0.77557 0.65266 0.13249 0.0
C722 C 0.74712 0.63208 0.14823 0.0
C723 C 0.75241 0.65374 0.13909 0.0
N724 N 0.7838 0.63157 0.13794 0.0
N725 N 0.76667 0.61912 0.14699 0.0
C726 C 0.78994 0.67113 0.12094 0.0
H727 H 0.79501 0.66499 0.10336 0.0
H728 H 0.80623 0.67399 0.13091 0.0
H729 H 0.78038 0.68773 0.11895 0.0
C730 C 0.86502 0.64709 0.17743 0.0
N731 N 0.8561 0.63617 0.15866 0.0
N732 N 0.83329 0.63864 0.15868 0.0
C733 C 0.827 0.65101 0.17767 0.0
C734 C 0.8469 0.65689 0.18991 0.0
C735 C 0.88996 0.64592 0.18485 0.0
H736 H 0.89701 0.62826 0.18161 0.0
H737 H 0.90025 0.65865 0.17463 0.0
H738 H 0.8919 0.65023 0.20359 0.0
O739 O 0.85688 0.58417 0.14261 0.0
O740 O 0.81843 0.58881 0.1399 0.0
H741 H 0.79164 0.64026 0.18299 0.0
H742 H 0.80128 0.66265 0.20283 0.0
C743 C 0.80242 0.65616 0.18469 0.0
H744 H 0.79528 0.66976 0.17311 0.0
H745 H 0.76853 0.60212 0.15305 0.0
O746 O 0.9036 0.61455 0.13923 0.0
C747 C 0.83626 0.57599 0.14301 0.0
Co748 Co 0.36715 0.87067 0.13107 0.0
Co749 Co 0.35908 0.817 0.12776 0.0
C750 C 0.35502 0.84724 0.08607 0.0
O751 O 0.35977 0.86518 0.09808 0.0
O752 O 0.35395 0.82725 0.0954 0.0
C753 C 0.34904 0.91606 0.13043 0.0
O754 O 0.32978 0.90476 0.12545 0.0
C755 C 0.33075 0.77619 0.12041 0.0
C756 C 0.34811 0.74929 0.14159 0.0
C757 C 0.3285 0.75353 0.12822 0.0
N758 N 0.35038 0.78517 0.12925 0.0
N759 N 0.36104 0.76888 0.14145 0.0
C760 C 0.31434 0.78958 0.10521 0.0
H761 H 0.32353 0.7945 0.08896 0.0
H762 H 0.30908 0.80591 0.11409 0.0
H763 H 0.29875 0.77929 0.10038 0.0
C764 C 0.33473 0.8656 0.1706 0.0
N765 N 0.34543 0.8571 0.15152 0.0
N766 N 0.34142 0.8346 0.14995 0.0
C767 C 0.32748 0.82821 0.16779 0.0
C768 C 0.3228 0.84767 0.18137 0.0
C769 C 0.33904 0.88934 0.18053 0.0
H770 H 0.35683 0.89534 0.17607 0.0
H771 H 0.32616 0.9017 0.17325 0.0
H772 H 0.33711 0.88935 0.19975 0.0
O773 O 0.39801 0.85801 0.1382 0.0
O774 O 0.39278 0.81971 0.13489 0.0
H775 H 0.33464 0.79245 0.17523 0.0
H776 H 0.30736 0.80276 0.18724 0.0
C777 C 0.31938 0.80385 0.17218 0.0
H778 H 0.30995 0.79744 0.1567 0.0
H779 H 0.3765 0.77148 0.15061 0.0
O780 O 0.36765 0.90475 0.13422 0.0
C781 C 0.40574 0.83726 0.13894 0.0
Co782 Co 0.61776 0.11559 0.13964 0.0
Co783 Co 0.62148 0.16992 0.13808 0.0
C784 C 0.62717 0.141 0.0953 0.0
O785 O 0.62294 0.12242 0.10644 0.0
O786 O 0.62791 0.1606 0.10552 0.0
C787 C 0.63222 0.0696 0.12938 0.0
O788 O 0.64379 0.08038 0.11287 0.0
C789 C 0.64901 0.21109 0.13276 0.0
C790 C 0.62746 0.23911 0.14795 0.0
C791 C 0.64894 0.23468 0.13775 0.0
N792 N 0.6286 0.20205 0.13956 0.0
N793 N 0.61558 0.21887 0.14836 0.0
C794 C 0.66889 0.1966 0.12402 0.0
H795 H 0.66619 0.178 0.12834 0.0
H796 H 0.68558 0.20264 0.13163 0.0
H797 H 0.66998 0.19816 0.10481 0.0
C798 C 0.65293 0.12211 0.17648 0.0
N799 N 0.63965 0.13046 0.15912 0.0
N800 N 0.63992 0.15332 0.15979 0.0
C801 C 0.65275 0.1603 0.17813 0.0
C802 C 0.66156 0.14074 0.18928 0.0
C803 C 0.65689 0.09674 0.18075 0.0
H804 H 0.66097 0.08796 0.16406 0.0
H805 H 0.67152 0.09376 0.19295 0.0
H806 H 0.64075 0.08888 0.18792 0.0
O807 O 0.58601 0.12625 0.14812 0.0
O808 O 0.58831 0.16485 0.145 0.0
H809 H 0.65726 0.18566 0.20573 0.0
H810 H 0.66747 0.19446 0.1774 0.0
C811 C 0.65357 0.18489 0.1868 0.0
H812 H 0.63669 0.1936 0.18358 0.0
H813 H 0.59895 0.21639 0.15529 0.0
O814 O 0.61973 0.08138 0.1434 0.0
C815 C 0.57669 0.14639 0.14903 0.0
H816 H 0.18147 0.1324 0.55065 0.0
H817 H 0.12035 0.18269 0.43717 0.0
H818 H 0.11168 0.1604 0.55252 0.0
H819 H 0.16499 0.12233 0.43656 0.0
H820 H 0.12404 0.18444 0.47983 0.0
H821 H 0.18258 0.13893 0.50865 0.0
C822 C 0.1665 0.1402 0.54228 0.0
C823 C 0.1463 0.14556 0.55497 0.0
C824 C 0.13319 0.17104 0.4702 0.0
C825 C 0.14767 0.15327 0.5072 0.0
C826 C 0.13118 0.17008 0.44602 0.0
C827 C 0.14221 0.15219 0.43358 0.0
C828 C 0.14678 0.15436 0.48169 0.0
C829 C 0.15601 0.13619 0.44567 0.0
C830 C 0.16716 0.14385 0.51837 0.0
C831 C 0.12744 0.1557 0.54326 0.0
N832 N 0.15794 0.13767 0.46912 0.0
N833 N 0.12854 0.15919 0.51992 0.0
H834 H 0.87043 0.16611 0.43544 0.0
H835 H 0.82466 0.11008 0.55101 0.0
H836 H 0.80747 0.12506 0.43618 0.0
H837 H 0.85888 0.17699 0.55119 0.0
H838 H 0.82051 0.11284 0.50868 0.0
H839 H 0.86893 0.16834 0.47795 0.0
C840 C 0.8562 0.15773 0.44458 0.0
C841 C 0.8391 0.14529 0.43241 0.0
C842 C 0.8287 0.12698 0.51808 0.0
C843 C 0.83753 0.14744 0.48078 0.0
C844 C 0.83122 0.12536 0.54214 0.0
C845 C 0.84225 0.14328 0.55452 0.0
C846 C 0.83775 0.14638 0.50637 0.0
C847 C 0.85027 0.1628 0.54226 0.0
C848 C 0.85531 0.1591 0.46875 0.0
C849 C 0.82095 0.13486 0.44499 0.0
N850 N 0.84816 0.16369 0.51876 0.0
N851 N 0.82084 0.13583 0.46861 0.0
H852 H 0.82525 0.80818 0.43525 0.0
H853 H 0.87576 0.86264 0.55006 0.0
H854 H 0.85672 0.87642 0.43753 0.0
H855 H 0.81062 0.82524 0.55358 0.0
H856 H 0.87382 0.86143 0.50776 0.0
H857 H 0.82375 0.80822 0.47815 0.0
C858 C 0.83176 0.82313 0.44473 0.0
C859 C 0.84118 0.84231 0.43287 0.0
C860 C 0.85995 0.85348 0.5178 0.0
C861 C 0.83981 0.84223 0.48136 0.0
C862 C 0.86109 0.85405 0.5419 0.0
C863 C 0.84328 0.84405 0.55528 0.0
C864 C 0.84113 0.84246 0.50691 0.0
C865 C 0.8246 0.83326 0.54379 0.0
C866 C 0.83077 0.82317 0.46907 0.0
C867 C 0.84927 0.86129 0.44592 0.0
N868 N 0.82406 0.83256 0.5201 0.0
N869 N 0.84865 0.86064 0.46945 0.0
H870 H 0.12985 0.79713 0.54589 0.0
H871 H 0.18372 0.85071 0.4298 0.0
H872 H 0.17329 0.85844 0.5449 0.0
H873 H 0.11628 0.81745 0.43198 0.0
H874 H 0.18791 0.84378 0.47158 0.0
H875 H 0.13288 0.79492 0.50332 0.0
C876 C 0.14035 0.80984 0.53674 0.0
C877 C 0.15109 0.82819 0.54874 0.0
C878 C 0.17236 0.83778 0.46277 0.0
C879 C 0.15481 0.82555 0.50055 0.0
C880 C 0.16995 0.84166 0.43899 0.0
C881 C 0.14944 0.83496 0.42756 0.0
C882 C 0.15432 0.82681 0.47502 0.0
C883 C 0.13219 0.82323 0.44026 0.0
C884 C 0.14198 0.80861 0.51255 0.0
C885 C 0.16448 0.84424 0.53617 0.0
N886 N 0.13497 0.81959 0.46342 0.0
N887 N 0.16591 0.8426 0.51268 0.0
H888 H 0.43385 0.16693 0.11873 0.0
H889 H 0.54812 0.11497 0.17058 0.0
H890 H 0.43188 0.12605 0.18165 0.0
H891 H 0.54791 0.18198 0.1367 0.0
H892 H 0.50559 0.1168 0.17344 0.0
H893 H 0.47602 0.17103 0.12316 0.0
C894 C 0.44231 0.15897 0.13355 0.0
C895 C 0.4295 0.14602 0.14978 0.0
C896 C 0.51495 0.13122 0.1657 0.0
C897 C 0.47751 0.15036 0.15474 0.0
C898 C 0.53914 0.13014 0.16395 0.0
C899 C 0.55147 0.14826 0.15322 0.0
C900 C 0.5031 0.15027 0.15614 0.0
C901 C 0.53904 0.16761 0.14507 0.0
C902 C 0.46628 0.16142 0.13614 0.0
C903 C 0.4412 0.13618 0.16878 0.0
N904 N 0.51545 0.16793 0.14634 0.0
N905 N 0.46469 0.13821 0.17054 0.0
H906 H 0.80197 0.54799 0.12561 0.0
H907 H 0.85289 0.4323 0.18204 0.0
H908 H 0.86376 0.5471 0.16826 0.0
H909 H 0.82086 0.4329 0.1141 0.0
H910 H 0.84787 0.47452 0.18434 0.0
H911 H 0.79988 0.50539 0.12858 0.0
C912 C 0.81485 0.53884 0.13587 0.0
C913 C 0.83321 0.55089 0.14651 0.0
C914 C 0.84176 0.4653 0.16907 0.0
C915 C 0.8307 0.50271 0.15021 0.0
C916 C 0.84456 0.44128 0.16774 0.0
C917 C 0.83753 0.42921 0.14772 0.0
C918 C 0.8315 0.47717 0.15043 0.0
C919 C 0.8268 0.44166 0.1297 0.0
C920 C 0.81369 0.51466 0.13746 0.0
C921 C 0.84951 0.53834 0.15957 0.0
N922 N 0.82412 0.46505 0.13147 0.0
N923 N 0.84788 0.51487 0.16106 0.0
H924 H 0.54823 0.85364 0.18272 0.0
H925 H 0.43416 0.80294 0.12225 0.0
H926 H 0.54932 0.82243 0.11431 0.0
H927 H 0.43366 0.86385 0.16629 0.0
H928 H 0.47665 0.80065 0.12677 0.0
H929 H 0.50599 0.84801 0.18416 0.0
C930 C 0.53962 0.84535 0.16814 0.0
C931 C 0.55216 0.83876 0.14822 0.0
C932 C 0.46709 0.81428 0.13565 0.0
C933 C 0.50419 0.83202 0.14996 0.0
C934 C 0.44296 0.81555 0.13318 0.0
C935 C 0.43059 0.83377 0.14371 0.0
C936 C 0.47864 0.83105 0.14913 0.0
C937 C 0.4427 0.84973 0.15765 0.0
C938 C 0.51559 0.8422 0.16897 0.0
C939 C 0.54019 0.82806 0.12983 0.0
N940 N 0.46612 0.84802 0.15994 0.0
N941 N 0.51678 0.82504 0.13111 0.0
H942 H 0.11473 0.43241 0.1678 0.0
H943 H 0.16948 0.54651 0.12142 0.0
H944 H 0.18291 0.43262 0.1359 0.0
H945 H 0.12605 0.5476 0.1828 0.0
H946 H 0.17445 0.50457 0.12609 0.0
H947 H 0.11789 0.47446 0.17371 0.0
C948 C 0.13046 0.44127 0.16229 0.0
C949 C 0.14843 0.42915 0.15102 0.0
C950 C 0.16415 0.51405 0.13876 0.0
C951 C 0.15201 0.47699 0.15751 0.0
C952 C 0.16119 0.53789 0.13601 0.0
C953 C 0.14714 0.55032 0.15161 0.0
C954 C 0.15245 0.50256 0.15685 0.0
C955 C 0.13696 0.5385 0.17038 0.0
C956 C 0.13231 0.46518 0.16581 0.0
C957 C 0.16856 0.44136 0.14449 0.0
N958 N 0.13942 0.51508 0.17223 0.0
N959 N 0.16962 0.46475 0.14741 0.0
H960 H 0.43832 0.85658 0.80216 0.0
H961 H 0.55329 0.81072 0.86391 0.0
H962 H 0.4365 0.8246 0.87009 0.0
H963 H 0.55204 0.87292 0.82195 0.0
H964 H 0.5108 0.80766 0.8598 0.0
H965 H 0.4809 0.85448 0.80273 0.0
C966 C 0.44687 0.84888 0.81707 0.0
C967 C 0.43394 0.84093 0.83621 0.0
C968 C 0.51996 0.82183 0.8514 0.0
C969 C 0.48238 0.83825 0.83677 0.0
C970 C 0.5441 0.82354 0.85363 0.0
C971 C 0.55604 0.8422 0.84339 0.0
C972 C 0.50794 0.83859 0.8384 0.0
C973 C 0.54339 0.85841 0.83031 0.0
C974 C 0.47109 0.84778 0.8174 0.0
C975 C 0.44588 0.83114 0.8551 0.0
N976 N 0.51998 0.85619 0.82812 0.0
N977 N 0.46951 0.83004 0.85491 0.0
H978 H 0.12784 0.43467 0.79752 0.0
H979 H 0.18178 0.55223 0.84777 0.0
H980 H 0.16777 0.43797 0.861 0.0
H981 H 0.11513 0.54987 0.81317 0.0
H982 H 0.18526 0.51005 0.84277 0.0
H983 H 0.13159 0.47709 0.79367 0.0
C984 C 0.13769 0.44429 0.81041 0.0
C985 C 0.14726 0.43301 0.82977 0.0
C986 C 0.17007 0.51891 0.83601 0.0
C987 C 0.15191 0.48097 0.82524 0.0
C988 C 0.16809 0.5429 0.83877 0.0
C989 C 0.14796 0.55441 0.83118 0.0
C990 C 0.15201 0.50653 0.82523 0.0
C991 C 0.13075 0.54154 0.81959 0.0
C992 C 0.13975 0.46837 0.80822 0.0
C993 C 0.15986 0.44615 0.84601 0.0
N994 N 0.13311 0.51818 0.81704 0.0
N995 N 0.16181 0.46951 0.8434 0.0
H996 H 0.43167 0.18125 0.85283 0.0
H997 H 0.55079 0.12655 0.80716 0.0
H998 H 0.43499 0.11308 0.8213 0.0
H999 H 0.54616 0.17001 0.86832 0.0
H1000 H 0.50823 0.12868 0.80315 0.0
H1001 H 0.47401 0.18442 0.84924 0.0
C1002 C 0.44126 0.16709 0.84488 0.0
C1003 C 0.4299 0.14673 0.83762 0.0
C1004 C 0.51667 0.13793 0.81725 0.0
C1005 C 0.47807 0.15043 0.83325 0.0
C1006 C 0.54084 0.13681 0.81949 0.0
C1007 C 0.55182 0.14793 0.83824 0.0
C1008 C 0.50367 0.15068 0.83355 0.0
C1009 C 0.53825 0.16096 0.8538 0.0
C1010 C 0.46536 0.16891 0.84291 0.0
C1011 C 0.44317 0.12892 0.8274 0.0
N1012 N 0.51482 0.16199 0.85111 0.0
N1013 N 0.46664 0.13116 0.82555 0.0
H1014 H 0.82104 0.5487 0.87204 0.0
H1015 H 0.87255 0.43514 0.81754 0.0
H1016 H 0.85806 0.55099 0.80663 0.0
H1017 H 0.80713 0.43423 0.85471 0.0
H1018 H 0.86994 0.47761 0.81505 0.0
H1019 H 0.81799 0.50639 0.86825 0.0
C1020 C 0.82842 0.54028 0.85685 0.0
C1021 C 0.83992 0.55323 0.83968 0.0
C1022 C 0.85604 0.46802 0.82345 0.0
C1023 C 0.83676 0.50509 0.83541 0.0
C1024 C 0.85755 0.44387 0.82497 0.0
C1025 C 0.8401 0.43125 0.83647 0.0
C1026 C 0.83725 0.47954 0.83402 0.0
C1027 C 0.82096 0.44334 0.84569 0.0
C1028 C 0.82655 0.51623 0.85463 0.0
C1029 C 0.84904 0.54156 0.82023 0.0
N1030 N 0.82023 0.46691 0.84462 0.0
N1031 N 0.84759 0.51803 0.81878 0.0
H1032 H 0.10545 0.92589 0.3768 0.0
H1033 H 0.14403 0.04238 0.31489 0.0
H1034 H 0.16462 0.92684 0.33034 0.0
H1035 H 0.12099 0.04145 0.38641 0.0
H1036 H 0.14519 -0.00037 0.31516 0.0
H1037 H 0.10403 0.96843 0.37518 0.0
C1038 C 0.118 0.93505 0.3661 0.0
C1039 C 0.13523 0.92293 0.35373 0.0
C1040 C 0.13991 0.00889 0.33074 0.0
C1041 C 0.13348 0.9713 0.35165 0.0
C1042 C 0.13914 0.03315 0.33058 0.0
C1043 C 0.13243 0.0453 0.35067 0.0
C1044 C 0.13332 -0.00312 0.35092 0.0
C1045 C 0.12638 0.03265 0.37062 0.0
C1046 C 0.11725 0.95925 0.36531 0.0
C1047 C 0.15116 0.93562 0.34023 0.0
N1048 N 0.12674 0.00905 0.37019 0.0
N1049 N 0.14982 0.95921 0.33941 0.0
H1050 H 0.94783 0.09602 0.3285 0.0
H1051 H 0.05834 0.17672 0.35303 0.0
H1052 H 0.94368 0.16193 0.36439 0.0
H1053 H 0.06342 0.10241 0.34292 0.0
H1054 H 0.01604 0.17385 0.34925 0.0
H1055 H 0.9902 0.10045 0.32617 0.0
C1056 C 0.95583 0.11147 0.33577 0.0
C1057 C 0.94231 0.12854 0.34684 0.0
C1058 C 0.02647 0.15822 0.3477 0.0
C1059 C 0.99053 0.1338 0.344 0.0
C1060 C 0.05061 0.15984 0.34973 0.0
C1061 C 0.0644 0.13972 0.34853 0.0
C1062 C 0.01612 0.1364 0.34417 0.0
C1063 C 0.05342 0.11832 0.3442 0.0
C1064 C 0.97996 0.11395 0.33447 0.0
C1065 C 0.95352 0.14824 0.35594 0.0
N1066 N 0.02988 0.11721 0.34224 0.0
N1067 N 0.97701 0.15034 0.3543 0.0
H1068 H 0.8345 0.94614 0.30997 0.0
H1069 H 0.87909 0.06168 0.36971 0.0
H1070 H 0.86293 0.947 0.37943 0.0
H1071 H 0.81526 0.0623 0.33008 0.0
H1072 H 0.88025 0.01934 0.36628 0.0
H1073 H 0.83359 0.98899 0.31049 0.0
C1074 C 0.84063 0.95537 0.32523 0.0
C1075 C 0.84877 0.94318 0.34471 0.0
C1076 C 0.86609 0.02881 0.35824 0.0
C1077 C 0.84821 0.99162 0.34517 0.0
C1078 C 0.86545 0.05293 0.36005 0.0
C1079 C 0.84696 0.06546 0.35026 0.0
C1080 C 0.8484 0.01719 0.34615 0.0
C1081 C 0.8297 0.05321 0.33802 0.0
C1082 C 0.84 0.97967 0.32554 0.0
C1083 C 0.8564 0.95581 0.36413 0.0
N1084 N 0.83088 0.02964 0.3362 0.0
N1085 N 0.85616 0.97939 0.36379 0.0
H1086 H 0.9186 0.88385 0.33739 0.0
H1087 H 0.04009 0.8247 0.36802 0.0
H1088 H 0.92473 0.81209 0.35862 0.0
H1089 H 0.03418 0.88976 0.33105 0.0
H1090 H -0.00217 0.81988 0.36541 0.0
H1091 H 0.96095 0.88637 0.33507 0.0
C1092 C 0.92885 0.86854 0.34136 0.0
C1093 C 0.91811 0.84776 0.34835 0.0
C1094 C 0.00581 0.83514 0.35777 0.0
C1095 C 0.96664 0.85063 0.346 0.0
C1096 C 0.0299 0.83797 0.35937 0.0
C1097 C 0.04063 0.85774 0.34987 0.0
C1098 C 0.99236 0.85231 0.34679 0.0
C1099 C 0.02663 0.87427 0.33867 0.0
C1100 C 0.95304 0.87 0.34002 0.0
C1101 C 0.93227 0.82846 0.35315 0.0
N1102 N 0.0032 0.87126 0.33758 0.0
N1103 N 0.95584 0.83043 0.35214 0.0
H1104 H 0.10348 0.05648 0.63998 0.0
H1105 H 0.16668 0.9375 0.60899 0.0
H1106 H 0.17652 0.05298 0.62222 0.0
H1107 H 0.10448 0.94075 0.65121 0.0
H1108 H 0.16939 0.97999 0.61063 0.0
H1109 H 0.10227 0.01401 0.6414 0.0
C1110 C 0.11929 0.04679 0.63648 0.0
C1111 C 0.14013 0.05827 0.63091 0.0
C1112 C 0.15524 0.97135 0.61962 0.0
C1113 C 0.13877 0.00975 0.63227 0.0
C1114 C 0.15361 0.94716 0.61859 0.0
C1115 C 0.13528 0.93565 0.62993 0.0
C1116 C 0.13822 0.98407 0.63176 0.0
C1117 C 0.11891 0.94896 0.64226 0.0
C1118 C 0.11859 0.02257 0.63736 0.0
C1119 C 0.1601 0.04483 0.62662 0.0
N1120 N 0.12065 0.9725 0.64269 0.0
N1121 N 0.15887 0.02124 0.62717 0.0
H1122 H 0.03726 0.08754 0.65492 0.0
H1123 H 0.92754 0.17041 0.63432 0.0
H1124 H 0.04218 0.15552 0.62346 0.0
H1125 H 0.92165 0.09615 0.64416 0.0
H1126 H 0.96983 0.16702 0.63727 0.0
H1127 H -0.005 0.09227 0.65759 0.0
C1128 C 0.02946 0.1035 0.64867 0.0
C1129 C 0.04321 0.1211 0.63878 0.0
C1130 C 0.95925 0.15151 0.63891 0.0
C1131 C -0.00501 0.12666 0.64196 0.0
C1132 C 0.93509 0.15342 0.63736 0.0
C1133 C 0.92103 0.13349 0.63877 0.0
C1134 C 0.9694 0.12955 0.64213 0.0
C1135 C 0.93183 0.11195 0.64276 0.0
C1136 C 0.00536 0.10615 0.65016 0.0
C1137 C 0.0322 0.14143 0.63099 0.0
N1138 N 0.95539 0.11054 0.64422 0.0
N1139 N 0.00871 0.14366 0.63275 0.0
H1140 H 0.81956 0.91968 0.66124 0.0
H1141 H 0.86218 0.03598 0.60536 0.0
H1142 H 0.88345 0.9223 0.6216 0.0
H1143 H 0.84158 0.03713 0.6776 0.0
H1144 H 0.8622 -0.00665 0.60645 0.0
H1145 H 0.8201 0.96249 0.66382 0.0
C1146 C 0.83375 0.92923 0.65329 0.0
C1147 C 0.85152 0.91751 0.64124 0.0
C1148 C 0.85764 0.00301 0.62201 0.0
C1149 C 0.85178 0.96595 0.64352 0.0
C1150 C 0.85748 0.02722 0.62138 0.0
C1151 C 0.85196 0.03994 0.64145 0.0
C1152 C 0.85159 0.99152 0.64265 0.0
C1153 C 0.8461 0.02782 0.66183 0.0
C1154 C 0.83404 0.95351 0.6548 0.0
C1155 C 0.8695 0.93065 0.63119 0.0
N1156 N 0.84583 0.00415 0.66189 0.0
N1157 N 0.86897 0.95421 0.63222 0.0
H1158 H 0.06603 0.87426 0.60796 0.0
H1159 H 0.95168 0.83536 0.67457 0.0
H1160 H 0.06625 0.81343 0.65193 0.0
H1161 H 0.95003 0.86169 0.60431 0.0
H1162 H -0.00555 0.83369 0.67227 0.0
H1163 H 0.02374 0.87679 0.61254 0.0
C1164 C 0.0572 0.86158 0.61876 0.0
C1165 C 0.06958 0.84353 0.6295 0.0
C1166 C 0.98461 0.83983 0.65744 0.0
C1167 C 0.02144 0.84653 0.63496 0.0
C1168 C 0.96035 0.84089 0.65875 0.0
C1169 C 0.94745 0.84862 0.63957 0.0
C1170 C -0.00411 0.84717 0.63705 0.0
C1171 C 0.95939 0.85548 0.61941 0.0
C1172 C 0.03312 0.86297 0.62124 0.0
C1173 C 0.05728 0.8275 0.64323 0.0
N1174 N 0.983 0.85479 0.61874 0.0
N1175 N 0.0338 0.82943 0.64568 0.0
H1176 H 0.34264 0.09811 0.92014 0.0
H1177 H 0.36757 0.16065 0.04092 0.0
H1178 H 0.35481 0.17205 0.92578 0.0
H1179 H 0.33084 0.09528 0.03612 0.0
H1180 H 0.36573 0.16422 -0.00148 0.0
H1181 H 0.34048 0.09578 0.96258 0.0
C1182 C 0.3447 0.11387 0.93029 0.0
C1183 C 0.34902 0.13529 0.91941 0.0
C1184 C 0.35798 0.14916 0.00678 0.0
C1185 C 0.34686 0.13267 0.96791 0.0
C1186 C 0.35915 0.14705 0.03093 0.0
C1187 C 0.34943 0.12759 0.042 0.0
C1188 C 0.34734 0.13153 -0.00638 0.0
C1189 C 0.33855 0.11057 0.02827 0.0
C1190 C 0.34342 0.11253 0.95449 0.0
C1191 C 0.35145 0.15517 0.93343 0.0
N1192 N 0.33796 0.11284 0.00475 0.0
N1193 N 0.35059 0.15334 0.95698 0.0
H1194 H 0.89674 0.37451 0.03424 0.0
H1195 H 0.81378 0.34844 0.92585 0.0
H1196 H 0.82485 0.35367 0.04177 0.0
H1197 H 0.88805 0.35932 0.92034 0.0
H1198 H 0.81722 0.3497 0.96827 0.0
H1199 H 0.89352 0.36912 0.99229 0.0
C1200 C 0.88025 0.36884 0.02707 0.0
C1201 C 0.86101 0.36463 0.04152 0.0
C1202 C 0.83277 0.35163 0.95774 0.0
C1203 C 0.85721 0.35835 -0.00656 0.0
C1204 C 0.83083 0.35087 0.93353 0.0
C1205 C 0.85063 0.35398 0.91949 0.0
C1206 C 0.85462 0.35564 0.96794 0.0
C1207 C 0.87227 0.35699 0.93042 0.0
C1208 C 0.87845 0.36566 0.0031 0.0
C1209 C 0.84011 0.35717 0.03125 0.0
N1210 N 0.87364 0.35793 0.95397 0.0
N1211 N 0.83874 0.35436 0.0078 0.0
H1212 H 0.66214 0.82515 0.9249 0.0
H1213 H 0.60158 0.86324 0.04109 0.0
H1214 H 0.61523 0.8838 0.9266 0.0
H1215 H 0.67513 0.84797 0.04181 0.0
H1216 H 0.60261 0.86351 -0.00157 0.0
H1217 H 0.66422 0.82645 0.96769 0.0
C1218 C 0.65245 0.83837 0.93427 0.0
C1219 C 0.63854 0.85443 0.92229 0.0
C1220 C 0.61849 0.86011 0.00799 0.0
C1221 C 0.64034 0.85552 0.97077 0.0
C1222 C 0.61789 0.8598 0.03223 0.0
C1223 C 0.63832 0.85565 0.04485 0.0
C1224 C 0.6395 0.85557 -0.00363 0.0
C1225 C 0.65907 0.8514 0.0326 0.0
C1226 C 0.65369 0.83911 0.95855 0.0
C1227 C 0.62629 0.8712 0.93518 0.0
N1228 N 0.65911 0.85121 0.00892 0.0
N1229 N 0.62718 0.87108 0.95877 0.0
H1230 H 0.12616 0.58998 0.03714 0.0
H1231 H 0.16517 0.6537 0.92218 0.0
H1232 H 0.13745 0.6642 0.03762 0.0
H1233 H 0.11031 0.60233 0.92154 0.0
H1234 H 0.16335 0.65423 0.965 0.0
H1235 H 0.12878 0.5903 -0.0055 0.0
C1236 C 0.12932 0.60629 0.02824 0.0
C1237 C 0.13144 0.62713 0.04073 0.0
C1238 C 0.15174 0.64294 0.95535 0.0
C1239 C 0.13488 0.6275 0.99242 0.0
C1240 C 0.15279 0.64257 0.93106 0.0
C1241 C 0.13777 0.62805 0.91844 0.0
C1242 C 0.13609 0.62815 0.96688 0.0
C1243 C 0.12204 0.61393 0.93068 0.0
C1244 C 0.13071 0.60646 0.00403 0.0
C1245 C 0.13549 0.64783 0.02848 0.0
N1246 N 0.12177 0.61413 0.95428 0.0
N1247 N 0.13729 0.64749 0.00491 0.0
H1248 H 0.34715 0.81276 0.05386 0.0
H1249 H 0.37313 0.89642 0.94607 0.0
H1250 H 0.35833 0.88685 0.05999 0.0
H1251 H 0.35412 0.82413 0.9383 0.0
H1252 H 0.36712 0.89312 0.98793 0.0
H1253 H 0.34828 0.81655 0.01152 0.0
C1254 C 0.34959 0.82986 0.04634 0.0
C1255 C 0.35285 0.84949 0.06054 0.0
C1256 C 0.36419 0.87798 0.97709 0.0
C1257 C 0.3544 0.85388 0.01212 0.0
C1258 C 0.36771 0.87983 0.95317 0.0
C1259 C 0.36425 0.86049 0.93869 0.0
C1260 C 0.35726 0.8566 0.98665 0.0
C1261 C 0.35709 0.83946 0.94885 0.0
C1262 C 0.35029 0.83199 0.02215 0.0
C1263 C 0.35589 0.8712 0.04978 0.0
N1264 N 0.35393 0.83805 0.97225 0.0
N1265 N 0.35679 0.87276 0.02624 0.0
H1266 H 0.14675 0.31735 0.9423 0.0
H1267 H 0.10743 0.37897 0.05876 0.0
H1268 H 0.12367 0.38878 0.94298 0.0
H1269 H 0.16719 0.33343 0.05779 0.0
H1270 H 0.10639 0.37759 0.01616 0.0
H1271 H 0.14795 0.31795 0.98504 0.0
C1272 C 0.14186 0.33309 0.95147 0.0
C1273 C 0.13512 0.35306 0.93924 0.0
C1274 C 0.11967 0.36789 0.02535 0.0
C1275 C 0.13605 0.35367 0.98769 0.0
C1276 C 0.12019 0.36853 0.04957 0.0
C1277 C 0.13746 0.35633 0.06171 0.0
C1278 C 0.13614 0.35449 0.01329 0.0
C1279 C 0.15369 0.34318 0.049 0.0
C1280 C 0.14266 0.33344 0.97573 0.0
C1281 C 0.12908 0.37308 0.95184 0.0
N1282 N 0.15253 0.34244 0.02539 0.0
N1283 N 0.12945 0.37282 0.97546 0.0
H1284 H 0.60901 0.10856 0.06595 0.0
H1285 H 0.66819 0.15364 0.95039 0.0
H1286 H 0.65069 0.17108 0.06673 0.0
H1287 H 0.59807 0.12663 0.95098 0.0
H1288 H 0.66781 0.15402 -0.00681 0.0
H1289 H 0.61096 0.1083 0.0234 0.0
C1290 C 0.61878 0.12208 0.05717 0.0
C1291 C 0.62966 0.13992 0.0698 0.0
C1292 C 0.65257 0.14806 0.98385 0.0
C1293 C 0.6321 0.13952 0.02136 0.0
C1294 C 0.65278 0.14774 0.95956 0.0
C1295 C 0.63311 0.14011 0.94729 0.0
C1296 C 0.6328 0.14007 -0.00424 0.0
C1297 C 0.61352 0.13275 0.95987 0.0
C1298 C 0.61973 0.12199 0.03296 0.0
C1299 C 0.64197 0.15711 0.05756 0.0
N1300 N 0.61394 0.13267 0.98348 0.0
N1301 N 0.643 0.15642 0.03392 0.0
H1302 H 0.86168 0.60214 0.94834 0.0
H1303 H 0.81582 0.65576 0.06565 0.0
H1304 H 0.83659 0.67289 0.9495 0.0
H1305 H 0.87749 0.61287 0.06341 0.0
H1306 H 0.81742 0.65909 0.02301 0.0
H1307 H 0.86141 0.60192 0.99096 0.0
C1308 C 0.85601 0.61758 0.9576 0.0
C1309 C 0.84921 0.63759 0.94551 0.0
C1310 C 0.83065 0.64915 0.032 0.0
C1311 C 0.84857 0.63731 -0.00601 0.0
C1312 C 0.82974 0.64719 0.05622 0.0
C1313 C 0.84656 0.63404 0.06803 0.0
C1314 C 0.84809 0.63732 0.01962 0.0
C1315 C 0.86425 0.62329 0.05501 0.0
C1316 C 0.85601 0.61748 0.98183 0.0
C1317 C 0.84211 0.65719 0.95828 0.0
N1318 N 0.86436 0.62488 0.03146 0.0
N1319 N 0.84174 0.6565 0.98194 0.0
H1320 H 0.92627 0.35293 0.17478 0.0
H1321 H 0.03623 0.33387 0.09142 0.0
H1322 H 0.92078 0.34294 0.10047 0.0
H1323 H 0.04118 0.36449 0.15991 0.0
H1324 H -0.00598 0.3312 0.09621 0.0
H1325 H 0.96869 0.35094 0.17134 0.0
C1326 C 0.93395 0.35008 0.15778 0.0
C1327 C 0.91996 0.34828 0.13785 0.0
C1328 C 0.00436 0.33847 0.11019 0.0
C1329 C 0.9684 0.34601 0.13384 0.0
C1330 C 0.02844 0.33997 0.1075 0.0
C1331 C 0.04219 0.34957 0.12524 0.0
C1332 C -0.00602 0.3464 0.13087 0.0
C1333 C 0.03118 0.35717 0.14571 0.0
C1334 C 0.95815 0.34907 0.15583 0.0
C1335 C 0.93088 0.3446 0.11627 0.0
N1336 N 0.00769 0.3554 0.14798 0.0
N1337 N 0.95447 0.34364 0.11484 0.0
H1338 H 0.91927 0.64259 0.88762 0.0
H1339 H 0.03922 0.61756 0.82342 0.0
H1340 H 0.92442 0.63208 0.81334 0.0
H1341 H 0.03562 0.65142 0.89045 0.0
H1342 H -0.0031 0.62075 0.82011 0.0
H1343 H 0.96176 0.64455 0.88971 0.0
C1344 C 0.92931 0.64092 0.87172 0.0
C1345 C 0.91828 0.63701 0.85029 0.0
C1346 C 0.00539 0.62759 0.83548 0.0
C1347 C 0.96684 0.63891 0.85264 0.0
C1348 C 0.02951 0.62563 0.83745 0.0
C1349 C 0.0409 0.63412 0.8573 0.0
C1350 C 0.99255 0.63781 0.85364 0.0
C1351 C 0.02751 0.64463 0.87486 0.0
C1352 C 0.95355 0.64206 0.87294 0.0
C1353 C 0.93217 0.63507 0.83024 0.0
N1354 N 0.00399 0.646 0.87271 0.0
N1355 N 0.95575 0.63576 0.83195 0.0
H1356 H 0.36813 0.04016 0.82086 0.0
H1357 H 0.33687 0.91827 0.87742 0.0
H1358 H 0.32486 0.03373 0.88203 0.0
H1359 H 0.35861 0.92511 0.80577 0.0
H1360 H 0.33333 0.96052 0.88001 0.0
H1361 H 0.3663 -0.00205 0.81562 0.0
C1362 C 0.35825 0.02987 0.83318 0.0
C1363 C 0.34677 0.04042 0.85201 0.0
C1364 C 0.33863 0.95276 0.86365 0.0
C1365 C 0.34464 0.99222 0.84614 0.0
C1366 C 0.34069 0.92865 0.86216 0.0
C1367 C 0.34819 0.91816 0.84138 0.0
C1368 C 0.34447 0.96653 0.84436 0.0
C1369 C 0.35279 0.93247 0.82213 0.0
C1370 C 0.35708 0.00581 0.83009 0.0
C1371 C 0.33401 0.02629 0.86731 0.0
N1372 N 0.35114 0.95597 0.82417 0.0
N1373 N 0.33347 0.00287 0.86416 0.0
H1374 H 0.95033 0.33055 0.88791 0.0
H1375 H 0.06144 0.35375 0.80749 0.0
H1376 H 0.94621 0.36434 0.82101 0.0
H1377 H 0.0658 0.34595 0.88211 0.0
H1378 H 0.01907 0.35028 0.81016 0.0
H1379 H 0.99275 0.32903 0.88394 0.0
C1380 C 0.95834 0.33753 0.87233 0.0
C1381 C 0.94479 0.34775 0.85482 0.0
C1382 C 0.02936 0.3492 0.8259 0.0
C1383 C -0.00685 0.34586 0.85013 0.0
C1384 C 0.05353 0.35106 0.82441 0.0
C1385 C 0.06717 0.35033 0.84465 0.0
C1386 C 0.01878 0.34629 0.84773 0.0
C1387 C 0.05594 0.34681 0.86609 0.0
C1388 C 0.98252 0.33671 0.87013 0.0
C1389 C 0.95606 0.35653 0.83501 0.0
N1390 N 0.03238 0.34494 0.86708 0.0
N1391 N 0.97962 0.35535 0.83317 0.0
H1392 H 0.66001 0.06912 0.82475 0.0
H1393 H 0.60366 0.95117 0.86509 0.0
H1394 H 0.61258 0.06601 0.88304 0.0
H1395 H 0.67547 0.95278 0.84286 0.0
H1396 H 0.60344 -0.00625 0.86601 0.0
H1397 H 0.66341 0.02653 0.82586 0.0
C1398 C 0.65046 0.0595 0.83784 0.0
C1399 C 0.63597 0.07105 0.85381 0.0
C1400 C 0.61924 0.98473 0.86099 0.0
C1401 C 0.63939 0.02266 0.85479 0.0
C1402 C 0.61934 0.96052 0.8603 0.0
C1403 C 0.63964 0.94855 0.85392 0.0
C1404 C 0.63939 -0.00297 0.85471 0.0
C1405 C 0.65953 0.96144 0.84799 0.0
C1406 C 0.65247 0.0353 0.83849 0.0
C1407 C 0.62403 0.0578 0.87048 0.0
N1408 N 0.65886 0.9851 0.84829 0.0
N1409 N 0.62573 0.03425 0.87033 0.0
H1410 H 0.06126 0.65327 0.16271 0.0
H1411 H 0.94312 0.59526 0.12567 0.0
H1412 H 0.05849 0.60398 0.10603 0.0
H1413 H 0.94523 0.66848 0.14225 0.0
H1414 H 0.9858 0.59465 0.125 0.0
H1415 H 0.01858 0.65613 0.16169 0.0
C1416 C 0.05166 0.64315 0.15001 0.0
C1417 C 0.06331 0.62839 0.13439 0.0
C1418 C 0.97685 0.61082 0.12875 0.0
C1419 C 0.01488 0.63118 0.13357 0.0
C1420 C 0.9526 0.61116 0.12929 0.0
C1421 C 0.94077 0.63197 0.13398 0.0
C1422 C 0.98926 0.63127 0.13354 0.0
C1423 C 0.9538 0.65213 0.13843 0.0
C1424 C 0.02743 0.64485 0.14942 0.0
C1425 C 0.05014 0.61567 0.11826 0.0
N1426 N 0.97745 0.65126 0.13835 0.0
N1427 N 0.02654 0.61709 0.11847 0.0
H1428 H 0.3269 0.06066 0.16619 0.0
H1429 H 0.3853 0.94515 0.12154 0.0
H1430 H 0.37327 0.06027 0.10694 0.0
H1431 H 0.31301 0.94479 0.14222 0.0
H1432 H 0.38501 0.98774 0.12294 0.0
H1433 H 0.32481 0.01796 0.16404 0.0
C1434 C 0.33653 0.0516 0.15272 0.0
C1435 C 0.35025 0.06392 0.13669 0.0
C1436 C 0.36924 0.97828 0.12714 0.0
C1437 C 0.34836 0.01554 0.13456 0.0
C1438 C 0.36942 0.95407 0.12648 0.0
C1439 C 0.34911 0.94159 0.13169 0.0
C1440 C 0.3488 0.98997 0.13363 0.0
C1441 C 0.32895 0.9539 0.13792 0.0
C1442 C 0.33528 0.02736 0.15148 0.0
C1443 C 0.36239 0.05142 0.11954 0.0
N1444 N 0.32933 0.97753 0.13894 0.0
N1445 N 0.3614 0.02786 0.11911 0.0
H1446 H 0.65024 0.03878 0.09797 0.0
H1447 H 0.62803 0.92721 0.1777 0.0
H1448 H 0.61825 0.04242 0.16595 0.0
H1449 H 0.6392 0.92337 0.10342 0.0
H1450 H 0.6306 0.96959 0.17548 0.0
H1451 H 0.65219 -0.00351 0.10155 0.0
C1452 C 0.6437 0.03069 0.1137 0.0
C1453 C 0.63392 0.0441 0.13164 0.0
C1454 C 0.63259 0.95943 0.15971 0.0
C1455 C 0.63624 -0.00422 0.13587 0.0
C1456 C 0.63124 0.93524 0.16095 0.0
C1457 C 0.63322 0.92172 0.14067 0.0
C1458 C 0.63618 0.97016 0.13808 0.0
C1459 C 0.63738 0.93311 0.11947 0.0
C1460 C 0.64478 0.00656 0.11569 0.0
C1461 C 0.62574 0.0327 0.15162 0.0
N1462 N 0.63868 0.95668 0.11872 0.0
N1463 N 0.6271 0.00916 0.15322 0.0
H1464 H 0.12093 0.27758 0.32341 0.0
H1465 H 0.15669 0.27635 0.18843 0.0
H1466 H 0.15152 0.2188 0.28814 0.0
H1467 H 0.11814 0.33237 0.22018 0.0
H1468 H 0.15679 0.25588 0.22574 0.0
H1469 H 0.1218 0.29934 0.28655 0.0
C1470 C 0.12779 0.26934 0.30787 0.0
C1471 C 0.13566 0.24631 0.30849 0.0
C1472 C 0.14819 0.2726 0.22458 0.0
C1473 C 0.13696 0.27081 0.26672 0.0
C1474 C 0.14814 0.28419 0.20333 0.0
C1475 C 0.13715 0.30578 0.20138 0.0
C1476 C 0.1373 0.28283 0.244 0.0
C1477 C 0.12645 0.31549 0.22106 0.0
C1478 C 0.12825 0.28164 0.28691 0.0
C1479 C 0.14475 0.23636 0.28815 0.0
N1480 N 0.12679 0.30393 0.24165 0.0
N1481 N 0.14507 0.24863 0.26807 0.0
H1482 H 0.6987 0.16738 0.20203 0.0
H1483 H 0.72767 0.10196 0.31872 0.0
H1484 H 0.65332 0.11308 0.22718 0.0
H1485 H 0.73868 0.17578 0.31164 0.0
H1486 H 0.70457 0.10234 0.28266 0.0
H1487 H 0.71865 0.16753 0.23972 0.0
C1488 C 0.69301 0.15546 0.21547 0.0
C1489 C 0.67447 0.14011 0.2115 0.0
C1490 C 0.71182 0.11846 0.28922 0.0
C1491 C 0.69736 0.13988 0.25423 0.0
C1492 C 0.72485 0.11825 0.3097 0.0
C1493 C 0.73471 0.13891 0.31805 0.0
C1494 C 0.70933 0.13936 0.27687 0.0
C1495 C 0.731 0.15959 0.30576 0.0
C1496 C 0.70434 0.15557 0.23689 0.0
C1497 C 0.66789 0.12483 0.22937 0.0
N1498 N 0.71884 0.15926 0.28554 0.0
N1499 N 0.67946 0.12496 0.24997 0.0
H1500 H 0.84603 0.70568 0.33328 0.0
H1501 H 0.86612 0.69936 0.19597 0.0
H1502 H 0.84837 0.76608 0.2889 0.0
H1503 H 0.83163 0.64408 0.23302 0.0
H1504 H 0.86734 0.72224 0.23203 0.0
H1505 H 0.8471 0.68077 0.29833 0.0
C1506 C 0.84712 0.71365 0.31624 0.0
C1507 C 0.84816 0.73791 0.31398 0.0
C1508 C 0.85952 0.70509 0.23229 0.0
C1509 C 0.84931 0.70983 0.27432 0.0
C1510 C 0.85891 0.6921 0.21182 0.0
C1511 C 0.8485 0.67013 0.21174 0.0
C1512 C 0.84998 0.69579 0.2528 0.0
C1513 C 0.83953 0.66118 0.23257 0.0
C1514 C 0.84768 0.6995 0.2964 0.0
C1515 C 0.84888 0.74746 0.29154 0.0
N1516 N 0.84046 0.67408 0.25241 0.0
N1517 N 0.84967 0.73341 0.27261 0.0
H1518 H 0.32939 0.82053 0.21982 0.0
H1519 H 0.23619 0.89001 0.29668 0.0
H1520 H 0.28912 0.87828 0.19415 0.0
H1521 H 0.2635 0.82287 0.31599 0.0
H1522 H 0.25967 0.88886 0.26123 0.0
H1523 H 0.30903 0.82356 0.25723 0.0
C1524 C 0.31604 0.83366 0.22204 0.0
C1525 C 0.31048 0.84889 0.20387 0.0
C1526 C 0.26053 0.87438 0.27323 0.0
C1527 C 0.28773 0.85294 0.2466 0.0
C1528 C 0.24701 0.87496 0.29339 0.0
C1529 C 0.24734 0.85616 0.30889 0.0
C1530 C 0.27466 0.85497 0.2687 0.0
C1531 C 0.26257 0.83762 0.30434 0.0
C1532 C 0.3046 0.83553 0.2434 0.0
C1533 C 0.2937 0.86613 0.20777 0.0
N1534 N 0.27549 0.83738 0.28452 0.0
N1535 N 0.28285 0.86768 0.22873 0.0
H1536 H 0.16436 0.71263 0.66201 0.0
H1537 H 0.10349 0.69761 0.78521 0.0
H1538 H 0.09719 0.74219 0.67819 0.0
H1539 H 0.158 0.65212 0.76079 0.0
H1540 H 0.10116 0.71483 0.74624 0.0
H1541 H 0.16239 0.68994 0.69789 0.0
C1542 C 0.14908 0.71416 0.67301 0.0
C1543 C 0.13127 0.72989 0.66758 0.0
C1544 C 0.11357 0.70102 0.74939 0.0
C1545 C 0.12901 0.70428 0.70866 0.0
C1546 C 0.11494 0.69132 0.77157 0.0
C1547 C 0.1312 0.6738 0.77613 0.0
C1548 C 0.12873 0.69319 0.73181 0.0
C1549 C 0.1456 0.66602 0.758 0.0
C1550 C 0.148 0.70129 0.69351 0.0
C1551 C 0.11177 0.73104 0.68227 0.0
N1552 N 0.14417 0.67591 0.73664 0.0
N1553 N 0.11131 0.71868 0.70237 0.0
H1554 H 0.24078 0.09207 0.68052 0.0
H1555 H 0.33245 0.16066 0.75916 0.0
H1556 H 0.26647 0.16023 0.66243 0.0
H1557 H 0.28643 0.10767 0.7857 0.0
H1558 H 0.31361 0.15731 0.72101 0.0
H1559 H 0.26354 0.09349 0.71635 0.0
C1560 C 0.25116 0.10736 0.68413 0.0
C1561 C 0.25111 0.12643 0.66896 0.0
C1562 C 0.30762 0.14647 0.73521 0.0
C1563 C 0.27761 0.1279 0.70952 0.0
C1564 C 0.31819 0.14852 0.75695 0.0
C1565 C 0.31062 0.13467 0.77554 0.0
C1566 C 0.28968 0.13019 0.73206 0.0
C1567 C 0.29261 0.1187 0.77174 0.0
C1568 C 0.26422 0.1081 0.7045 0.0
C1569 C 0.26582 0.14529 0.67386 0.0
N1570 N 0.28275 0.11685 0.75037 0.0
N1571 N 0.27834 0.14568 0.69389 0.0
H1572 H 0.87546 0.28372 0.78972 0.0
H1573 H 0.82287 0.26357 0.66322 0.0
H1574 H 0.82449 0.32979 0.75979 0.0
H1575 H 0.88806 0.23397 0.68573 0.0
H1576 H 0.82182 0.28717 0.69874 0.0
H1577 H 0.87852 0.26336 0.75237 0.0
C1578 C 0.86485 0.28941 0.77524 0.0
C1579 C 0.84953 0.30819 0.77776 0.0
C1580 C 0.83639 0.27556 0.69583 0.0
C1581 C 0.85288 0.28519 0.73514 0.0
C1582 C 0.83705 0.26218 0.67555 0.0
C1583 C 0.85522 0.24629 0.67191 0.0
C1584 C 0.85401 0.27292 0.71253 0.0
C1585 C 0.87323 0.24529 0.68831 0.0
C1586 C 0.86665 0.27792 0.75395 0.0
C1587 C 0.83617 0.31505 0.75857 0.0
N1588 N 0.87204 0.2582 0.70806 0.0
N1589 N 0.83806 0.30346 0.73803 0.0
H1590 H 0.69638 0.88373 0.78646 0.0
H1591 H 0.72257 0.81821 0.66715 0.0
H1592 H 0.65493 0.82624 0.76183 0.0
H1593 H 0.75021 0.88603 0.68365 0.0
H1594 H 0.69733 0.8207 0.70143 0.0
H1595 H 0.7166 0.88471 0.74892 0.0
C1596 C 0.69154 0.87136 0.77307 0.0
C1597 C 0.67434 0.85461 0.77728 0.0
C1598 C 0.70886 0.83508 0.69749 0.0
C1599 C 0.69733 0.8555 0.73445 0.0
C1600 C 0.72321 0.83369 0.6779 0.0
C1601 C 0.73905 0.85161 0.673 0.0
C1602 C 0.71042 0.85452 0.71225 0.0
C1603 C 0.739 0.87138 0.68735 0.0
C1604 C 0.70303 0.87192 0.75168 0.0
C1605 C 0.66857 0.83901 0.75942 0.0
N1606 N 0.72513 0.87218 0.7065 0.0
N1607 N 0.6802 0.83968 0.73882 0.0
H1608 H 0.22609 0.16355 0.33652 0.0
H1609 H 0.30124 0.09638 0.24034 0.0
H1610 H 0.19931 0.10718 0.29485 0.0
H1611 H 0.31901 0.16465 0.26611 0.0
H1612 H 0.26699 0.09623 0.26561 0.0
H1613 H 0.26335 0.16059 0.31581 0.0
C1614 C 0.22807 0.15067 0.32288 0.0
C1615 C 0.20957 0.13593 0.31691 0.0
C1616 C 0.27842 0.11122 0.26574 0.0
C1617 C 0.2521 0.13198 0.29376 0.0
C1618 C 0.29786 0.1114 0.25119 0.0
C1619 C 0.31248 0.13094 0.25049 0.0
C1620 C 0.27379 0.13057 0.27994 0.0
C1621 C 0.30798 0.14937 0.26588 0.0
C1622 C 0.24932 0.14887 0.31122 0.0
C1623 C 0.21317 0.11897 0.29975 0.0
N1624 N 0.28888 0.14885 0.27984 0.0
N1625 N 0.23402 0.1175 0.28868 0.0
H1626 H 0.88885 0.30371 0.24081 0.0
H1627 H 0.82213 0.22508 0.33397 0.0
H1628 H 0.82023 0.32027 0.26667 0.0
H1629 H 0.87674 0.19925 0.28929 0.0
H1630 H 0.82483 0.26298 0.31467 0.0
H1631 H 0.88879 0.26846 0.26451 0.0
C1632 C 0.87375 0.29989 0.25143 0.0
C1633 C 0.85416 0.31442 0.25115 0.0
C1634 C 0.83621 0.24901 0.30911 0.0
C1635 C 0.85424 0.27458 0.27872 0.0
C1636 C 0.83455 0.2274 0.31995 0.0
C1637 C 0.84901 0.20906 0.31288 0.0
C1638 C 0.85268 0.2523 0.29134 0.0
C1639 C 0.86527 0.21303 0.29513 0.0
C1640 C 0.87379 0.27986 0.26503 0.0
C1641 C 0.83556 0.30932 0.26616 0.0
N1642 N 0.86668 0.23426 0.28493 0.0
N1643 N 0.83594 0.28964 0.2792 0.0
H1644 H 0.67931 0.88901 0.24128 0.0
H1645 H 0.75812 0.8205 0.33297 0.0
H1646 H 0.66158 0.82096 0.26741 0.0
H1647 H 0.78258 0.87842 0.29206 0.0
H1648 H 0.72036 0.82298 0.31332 0.0
H1649 H 0.71468 0.88851 0.26478 0.0
C1650 C 0.68292 0.87393 0.25192 0.0
C1651 C 0.66795 0.85467 0.25186 0.0
C1652 C 0.734 0.83513 0.30865 0.0
C1653 C 0.70806 0.85416 0.27913 0.0
C1654 C 0.75556 0.83359 0.31968 0.0
C1655 C 0.77348 0.84908 0.31381 0.0
C1656 C 0.73035 0.85246 0.29185 0.0
C1657 C 0.76914 0.86616 0.29702 0.0
C1658 C 0.70304 0.8737 0.26541 0.0
C1659 C 0.67286 0.83605 0.2668 0.0
N1660 N 0.748 0.86739 0.2866 0.0
N1661 N 0.69266 0.83613 0.2797 0.0
H1662 H 0.15053 0.69898 0.21283 0.0
H1663 H 0.1166 0.76415 0.33108 0.0
H1664 H 0.1194 0.66388 0.27141 0.0
H1665 H 0.15316 0.79669 0.27422 0.0
H1666 H 0.1163 0.72742 0.30936 0.0
H1667 H 0.15081 0.7351 0.23496 0.0
C1668 C 0.14348 0.69899 0.23031 0.0
C1669 C 0.13432 0.67867 0.24017 0.0
C1670 C 0.12434 0.74259 0.3016 0.0
C1671 C 0.13506 0.7198 0.26583 0.0
C1672 C 0.12434 0.76351 0.31388 0.0
C1673 C 0.13466 0.78332 0.30415 0.0
C1674 C 0.13476 0.7416 0.27949 0.0
C1675 C 0.14494 0.78169 0.28213 0.0
C1676 C 0.14383 0.71956 0.24303 0.0
C1677 C 0.12634 0.67934 0.26319 0.0
N1678 N 0.14469 0.76116 0.27048 0.0
N1679 N 0.12672 0.6997 0.27526 0.0
H1680 H 0.32722 0.81642 0.71335 0.0
H1681 H 0.20076 0.86912 0.69292 0.0
H1682 H 0.30488 0.88239 0.7414 0.0
H1683 H 0.22985 0.8163 0.64819 0.0
H1684 H 0.23838 0.87267 0.71255 0.0
H1685 H 0.29165 0.81491 0.68984 0.0
C1686 C 0.31493 0.83068 0.71438 0.0
C1687 C 0.31858 0.84922 0.72983 0.0
C1688 C 0.23657 0.86029 0.69845 0.0
C1689 C 0.27796 0.84751 0.70336 0.0
C1690 C 0.21513 0.85821 0.68737 0.0
C1691 C 0.21228 0.84222 0.66921 0.0
C1692 C 0.25523 0.84612 0.69139 0.0
C1693 C 0.23132 0.82849 0.66249 0.0
C1694 C 0.29462 0.82976 0.70108 0.0
C1695 C 0.30226 0.86733 0.73042 0.0
N1696 N 0.25204 0.83066 0.67369 0.0
N1697 N 0.2825 0.86589 0.71761 0.0
H1698 H 0.15367 0.28519 0.76778 0.0
H1699 H 0.11933 0.21724 0.65152 0.0
H1700 H 0.12548 0.31977 0.7076 0.0
H1701 H 0.15962 0.18709 0.70698 0.0
H1702 H 0.11935 0.25456 0.67228 0.0
H1703 H 0.15419 0.24865 0.74626 0.0
C1704 C 0.14742 0.28498 0.75002 0.0
C1705 C 0.13901 0.30526 0.73952 0.0
C1706 C 0.12817 0.23979 0.67992 0.0
C1707 C 0.13987 0.26365 0.71464 0.0
C1708 C 0.128 0.21854 0.6682 0.0
C1709 C 0.13926 0.19922 0.67784 0.0
C1710 C 0.13962 0.24157 0.70142 0.0
C1711 C 0.15066 0.20168 0.69917 0.0
C1712 C 0.14786 0.26417 0.73769 0.0
C1713 C 0.1318 0.30432 0.71629 0.0
N1714 N 0.15047 0.22249 0.71033 0.0
N1715 N 0.1322 0.28372 0.7046 0.0
H1716 H 0.69821 0.15754 0.77039 0.0
H1717 H 0.75637 0.12194 0.64876 0.0
H1718 H 0.65908 0.12741 0.71396 0.0
H1719 H 0.7933 0.15485 0.70511 0.0
H1720 H 0.72038 0.12365 0.67187 0.0
H1721 H 0.73311 0.15695 0.74621 0.0
C1722 C 0.6971 0.15062 0.75288 0.0
C1723 C 0.67604 0.14193 0.74424 0.0
C1724 C 0.73635 0.13045 0.6792 0.0
C1725 C 0.71573 0.14153 0.71628 0.0
C1726 C 0.75684 0.1293 0.66612 0.0
C1727 C 0.77769 0.1379 0.67537 0.0
C1728 C 0.73688 0.14034 0.70157 0.0
C1729 C 0.77749 0.14787 0.69757 0.0
C1730 C 0.71697 0.1504 0.73903 0.0
C1731 C 0.67519 0.13393 0.72123 0.0
N1732 N 0.7574 0.14875 0.70998 0.0
N1733 N 0.69488 0.13373 0.70803 0.0
H1734 H 0.81883 0.66215 0.72079 0.0
H1735 H 0.8823 0.78169 0.69439 0.0
H1736 H 0.88744 0.67851 0.74657 0.0
H1737 H 0.82643 0.75557 0.65168 0.0
H1738 H 0.88417 0.74408 0.71418 0.0
H1739 H 0.82101 0.69594 0.69508 0.0
C1740 C 0.83444 0.67274 0.7209 0.0
C1741 C 0.85264 0.66803 0.73642 0.0
C1742 C 0.87156 0.74652 0.70041 0.0
C1743 C 0.85518 0.70671 0.70728 0.0
C1744 C 0.87048 0.76795 0.68918 0.0
C1745 C 0.8539 0.77175 0.67176 0.0
C1746 C 0.85579 0.72887 0.69427 0.0
C1747 C 0.83901 0.75346 0.66552 0.0
C1748 C 0.83565 0.69205 0.70628 0.0
C1749 C 0.87256 0.68213 0.73567 0.0
N1750 N 0.84013 0.73282 0.67695 0.0
N1751 N 0.87316 0.70106 0.7216 0.0
H1752 H 0.33185 0.22388 0.16057 0.0
H1753 H 0.23801 0.30119 0.09356 0.0
H1754 H 0.2863 0.19681 0.10748 0.0
H1755 H 0.26589 0.32009 0.16066 0.0
H1756 H 0.26114 0.26556 0.09433 0.0
H1757 H 0.31267 0.26182 0.15723 0.0
C1758 C 0.31764 0.22594 0.14837 0.0
C1759 C 0.31025 0.20725 0.13456 0.0
C1760 C 0.26221 0.27754 0.10886 0.0
C1761 C 0.28885 0.25049 0.13014 0.0
C1762 C 0.24891 0.29779 0.10851 0.0
C1763 C 0.24941 0.31315 0.12747 0.0
C1764 C 0.27636 0.27284 0.12817 0.0
C1765 C 0.26479 0.30852 0.14582 0.0
C1766 C 0.30686 0.24756 0.14635 0.0
C1767 C 0.29231 0.21086 0.11851 0.0
N1768 N 0.27752 0.28862 0.14583 0.0
N1769 N 0.28217 0.23211 0.11673 0.0
H1770 H 0.2524 0.67217 0.88025 0.0
H1771 H 0.28948 0.78459 0.81122 0.0
H1772 H 0.24634 0.67587 0.80558 0.0
H1773 H 0.33035 0.76074 0.86941 0.0
H1774 H 0.26825 0.74761 0.81156 0.0
H1775 H 0.27638 0.70768 0.8796 0.0
C1776 C 0.25634 0.6804 0.86376 0.0
C1777 C 0.24763 0.67122 0.84293 0.0
C1778 C 0.28188 0.75055 0.82423 0.0
C1779 C 0.27421 0.71171 0.8421 0.0
C1780 C 0.294 0.77156 0.82403 0.0
C1781 C 0.31164 0.77572 0.84034 0.0
C1782 C 0.28712 0.73384 0.84119 0.0
C1783 C 0.31655 0.75842 0.85683 0.0
C1784 C 0.26995 0.70052 0.86339 0.0
C1785 C 0.25301 0.6824 0.82196 0.0
N1786 N 0.3042 0.73825 0.85698 0.0
N1787 N 0.26573 0.70231 0.82208 0.0
H1788 H 0.30308 0.23871 0.88854 0.0
H1789 H 0.22848 0.33535 0.82202 0.0
H1790 H 0.3212 0.26548 0.82077 0.0
H1791 H 0.202 0.295 0.87943 0.0
H1792 H 0.26564 0.31465 0.82494 0.0
H1793 H 0.26911 0.26428 0.88924 0.0
C1794 C 0.29984 0.24985 0.87374 0.0
C1795 C 0.31448 0.24936 0.85418 0.0
C1796 C 0.25172 0.31034 0.83692 0.0
C1797 C 0.2761 0.27913 0.85518 0.0
C1798 C 0.23052 0.32201 0.83515 0.0
C1799 C 0.21211 0.31636 0.85015 0.0
C1800 C 0.25454 0.29314 0.85401 0.0
C1801 C 0.21579 0.2996 0.86741 0.0
C1802 C 0.28056 0.26457 0.87425 0.0
C1803 C 0.31016 0.26509 0.83606 0.0
N1804 N 0.23658 0.28845 0.86881 0.0
N1805 N 0.29121 0.27918 0.83688 0.0
H1806 H 0.68857 0.20716 0.88703 0.0
H1807 H 0.71871 0.32513 0.82168 0.0
H1808 H 0.64995 0.23183 0.82775 0.0
H1809 H 0.74481 0.30849 0.89001 0.0
H1810 H 0.6923 0.29189 0.82413 0.0
H1811 H 0.70882 0.24461 0.88899 0.0
C1812 C 0.68433 0.22057 0.8745 0.0
C1813 C 0.66802 0.21637 0.85691 0.0
C1814 C 0.70373 0.29558 0.83865 0.0
C1815 C 0.69102 0.25906 0.85892 0.0
C1816 C 0.71876 0.31458 0.83729 0.0
C1817 C 0.73455 0.31907 0.85533 0.0
C1818 C 0.70455 0.28096 0.85819 0.0
C1819 C 0.73369 0.30503 0.87525 0.0
C1820 C 0.69584 0.2419 0.87561 0.0
C1821 C 0.66295 0.23425 0.84116 0.0
N1822 N 0.71918 0.28639 0.87602 0.0
N1823 N 0.6746 0.25477 0.84237 0.0
H1824 H 0.68246 0.74942 0.89054 0.0
H1825 H 0.75741 0.65277 0.82396 0.0
H1826 H 0.66571 0.72476 0.82161 0.0
H1827 H 0.78373 0.69384 0.88099 0.0
H1828 H 0.72051 0.67412 0.82621 0.0
H1829 H 0.71631 0.7237 0.89099 0.0
C1830 C 0.68597 0.7387 0.87545 0.0
C1831 C 0.67178 0.73984 0.85566 0.0
C1832 C 0.73437 0.67844 0.83823 0.0
C1833 C 0.71002 0.70992 0.85633 0.0
C1834 C 0.75543 0.66643 0.83682 0.0
C1835 C 0.77369 0.67198 0.852 0.0
C1836 C 0.73153 0.69585 0.85517 0.0
C1837 C 0.77005 0.68919 0.8689 0.0
C1838 C 0.70519 0.72391 0.87579 0.0
C1839 C 0.67643 0.72464 0.83709 0.0
N1840 N 0.74938 0.70059 0.87001 0.0
N1841 N 0.69531 0.71044 0.83777 0.0
H1842 H 0.70377 0.79402 0.15838 0.0
H1843 H 0.70763 0.65883 0.12393 0.0
H1844 H 0.64718 0.75896 0.12385 0.0
H1845 H 0.76352 0.69555 0.15793 0.0
H1846 H 0.68424 0.69466 0.12487 0.0
H1847 H 0.72545 0.75742 0.15924 0.0
C1848 C 0.69605 0.77853 0.15086 0.0
C1849 C 0.67399 0.77937 0.14068 0.0
C1850 C 0.70165 0.69485 0.13207 0.0
C1851 C 0.69836 0.73752 0.14171 0.0
C1852 C 0.7149 0.67447 0.13157 0.0
C1853 C 0.73765 0.67459 0.14027 0.0
C1854 C 0.71126 0.71525 0.14162 0.0
C1855 C 0.74628 0.69503 0.15037 0.0
C1856 C 0.70833 0.75767 0.15137 0.0
C1857 C 0.66444 0.75894 0.1314 0.0
N1858 N 0.73314 0.71458 0.15064 0.0
N1859 N 0.67673 0.73876 0.13207 0.0
H1860 H 0.22662 0.64262 0.1168 0.0
H1861 H 0.28459 0.76715 0.13911 0.0
H1862 H 0.19035 0.70146 0.14598 0.0
H1863 H 0.32462 0.70711 0.11843 0.0
H1864 H 0.24954 0.74343 0.13962 0.0
H1865 H 0.26247 0.66592 0.11521 0.0
C1866 C 0.22626 0.66055 0.12263 0.0
C1867 C 0.20564 0.67044 0.13114 0.0
C1868 C 0.26591 0.73537 0.13482 0.0
C1869 C 0.24626 0.69689 0.12977 0.0
C1870 C 0.28589 0.74897 0.13431 0.0
C1871 C 0.30732 0.73914 0.12806 0.0
C1872 C 0.26736 0.71164 0.12923 0.0
C1873 C 0.30826 0.71532 0.12298 0.0
C1874 C 0.24666 0.67375 0.12188 0.0
C1875 C 0.20597 0.69342 0.1391 0.0
N1876 N 0.28845 0.70232 0.12353 0.0
N1877 N 0.22596 0.70593 0.13813 0.0
H1878 H 0.66147 0.26864 0.16846 0.0
H1879 H 0.78709 0.28391 0.11259 0.0
H1880 H 0.68101 0.23823 0.10258 0.0
H1881 H 0.75937 0.33277 0.16243 0.0
H1882 H 0.74882 0.26521 0.11032 0.0
H1883 H 0.69739 0.2917 0.16784 0.0
C1884 C 0.67322 0.26699 0.15378 0.0
C1885 C 0.6687 0.25097 0.13592 0.0
C1886 C 0.75108 0.28006 0.12172 0.0
C1887 C 0.70972 0.27694 0.13522 0.0
C1888 C 0.77288 0.29062 0.12307 0.0
C1889 C 0.77628 0.30964 0.1379 0.0
C1890 C 0.73269 0.28849 0.13551 0.0
C1891 C 0.75744 0.31781 0.15113 0.0
C1892 C 0.69371 0.28005 0.15348 0.0
C1893 C 0.68434 0.24962 0.1172 0.0
N1894 N 0.73642 0.30707 0.14976 0.0
N1895 N 0.70433 0.26218 0.11749 0.0
loop_
_geom_bond_atom_site_label_1
_geom_bond_atom_site_label_2
_geom_bond_distance
_geom_bond_site_symmetry_2
_ccdc_geom_bond_type
Co0 O3 1.970 . S
Co0 N17 1.989 . S
Co0 O25 1.967 . S
Co0 O32 1.920 . S
Co1 O4 1.966 . S
Co1 N10 2.022 . S
Co1 N18 1.993 . S
Co1 O26 1.941 . S
C2 O3 1.258 . S
C2 O4 1.263 . S
O3 Co0 1.970 . S
O3 C2 1.258 . S
O4 Co1 1.966 . S
O4 C2 1.263 . S
C5 O6 1.235 . S
C5 O32 1.289 . S
O6 C5 1.235 . S
C7 C9 1.400 . S
C7 N10 1.351 . S
C7 C12 1.501 . S
C8 C9 1.387 . S
C8 N11 1.341 . S
C9 C7 1.400 . S
C9 C8 1.387 . S
N10 Co1 2.022 . S
N10 C7 1.351 . S
N10 N11 1.365 . S
N11 C8 1.341 . S
N11 N10 1.365 . S
N11 H31 0.862 . S
C12 C7 1.501 . S
C12 H13 0.961 . S
C12 H14 0.961 . S
C12 H15 0.960 . S
H13 C12 0.961 . S
H14 C12 0.961 . S
H15 C12 0.960 . S
C16 N17 1.342 . S
C16 C20 1.401 . S
C16 C21 1.499 . S
N17 Co0 1.989 . S
N17 C16 1.342 . S
N17 N18 1.388 . S
N18 Co1 1.993 . S
N18 N17 1.388 . S
N18 C19 1.346 . S
C19 N18 1.346 . S
C19 C20 1.396 . S
C19 C29 1.510 . S
C20 C16 1.401 . S
C20 C19 1.396 . S
C21 C16 1.499 . S
C21 H22 0.959 . S
C21 H23 0.960 . S
C21 H24 0.961 . S
H22 C21 0.959 . S
H23 C21 0.960 . S
H24 C21 0.961 . S
O25 Co0 1.967 . S
O25 C33 1.258 . S
O26 Co1 1.941 . S
O26 C33 1.266 . S
H27 C29 0.959 . S
H28 C29 0.961 . S
C29 C19 1.510 . S
C29 H27 0.959 . S
C29 H28 0.961 . S
C29 H30 0.960 . S
H30 C29 0.960 . S
H31 N11 0.862 . S
O32 Co0 1.920 . S
O32 C5 1.289 . S
C33 O25 1.258 . S
C33 O26 1.266 . S
Co34 O37 1.970 . S
Co34 N51 1.989 . S
Co34 O59 1.967 . S
Co34 O66 1.920 . S
Co35 O38 1.966 . S
Co35 N44 2.022 . S
Co35 N52 1.993 . S
Co35 O60 1.941 . S
C36 O37 1.258 . S
C36 O38 1.263 . S
O37 Co34 1.970 . S
O37 C36 1.258 . S
O38 Co35 1.966 . S
O38 C36 1.263 . S
C39 O40 1.235 . S
C39 O66 1.289 . S
O40 C39 1.235 . S
C41 C43 1.400 . S
C41 N44 1.351 . S
C41 C46 1.501 . S
C42 C43 1.387 . S
C42 N45 1.341 . S
C43 C41 1.400 . S
C43 C42 1.387 . S
N44 Co35 2.022 . S
N44 C41 1.351 . S
N44 N45 1.365 . S
N45 C42 1.341 . S
N45 N44 1.365 . S
N45 H65 0.862 . S
C46 C41 1.501 . S
C46 H47 0.961 . S
C46 H48 0.961 . S
C46 H49 0.960 . S
H47 C46 0.961 . S
H48 C46 0.961 . S
H49 C46 0.960 . S
C50 N51 1.342 . S
C50 C54 1.401 . S
C50 C55 1.499 . S
N51 Co34 1.989 . S
N51 C50 1.342 . S
N51 N52 1.388 . S
N52 Co35 1.993 . S
N52 N51 1.388 . S
N52 C53 1.346 . S
C53 N52 1.346 . S
C53 C54 1.396 . S
C53 C63 1.510 . S
C54 C50 1.401 . S
C54 C53 1.396 . S
C55 C50 1.499 . S
C55 H56 0.959 . S
C55 H57 0.960 . S
C55 H58 0.961 . S
H56 C55 0.959 . S
H57 C55 0.960 . S
H58 C55 0.961 . S
O59 Co34 1.967 . S
O59 C67 1.258 . S
O60 Co35 1.941 . S
O60 C67 1.266 . S
H61 C63 0.959 . S
H62 C63 0.961 . S
C63 C53 1.510 . S
C63 H61 0.959 . S
C63 H62 0.961 . S
C63 H64 0.960 . S
H64 C63 0.960 . S
H65 N45 0.862 . S
O66 Co34 1.920 . S
O66 C39 1.289 . S
C67 O59 1.258 . S
C67 O60 1.266 . S
Co68 O71 1.970 . S
Co68 N85 1.989 . S
Co68 O93 1.967 . S
Co68 O100 1.920 . S
Co69 O72 1.966 . S
Co69 N78 2.022 . S
Co69 N86 1.993 . S
Co69 O94 1.941 . S
C70 O71 1.258 . S
C70 O72 1.263 . S
O71 Co68 1.970 . S
O71 C70 1.258 . S
O72 Co69 1.966 . S
O72 C70 1.263 . S
C73 O74 1.235 . S
C73 O100 1.289 . S
O74 C73 1.235 . S
C75 C77 1.400 . S
C75 N78 1.351 . S
C75 C80 1.501 . S
C76 C77 1.387 . S
C76 N79 1.341 . S
C77 C75 1.400 . S
C77 C76 1.387 . S
N78 Co69 2.022 . S
N78 C75 1.351 . S
N78 N79 1.365 . S
N79 C76 1.341 . S
N79 N78 1.365 . S
N79 H99 0.862 . S
C80 C75 1.501 . S
C80 H81 0.961 . S
C80 H82 0.961 . S
C80 H83 0.960 . S
H81 C80 0.961 . S
H82 C80 0.961 . S
H83 C80 0.960 . S
C84 N85 1.342 . S
C84 C88 1.401 . S
C84 C89 1.499 . S
N85 Co68 1.989 . S
N85 C84 1.342 . S
N85 N86 1.388 . S
N86 Co69 1.993 . S
N86 N85 1.388 . S
N86 C87 1.346 . S
C87 N86 1.346 . S
C87 C88 1.396 . S
C87 C97 1.510 . S
C88 C84 1.401 . S
C88 C87 1.396 . S
C89 C84 1.499 . S
C89 H90 0.959 . S
C89 H91 0.960 . S
C89 H92 0.961 . S
H90 C89 0.959 . S
H91 C89 0.960 . S
H92 C89 0.961 . S
O93 Co68 1.967 . S
O93 C101 1.258 . S
O94 Co69 1.941 . S
O94 C101 1.266 . S
H95 C97 0.959 . S
H96 C97 0.961 . S
C97 C87 1.510 . S
C97 H95 0.959 . S
C97 H96 0.961 . S
C97 H98 0.960 . S
H98 C97 0.960 . S
H99 N79 0.862 . S
O100 Co68 1.920 . S
O100 C73 1.289 . S
C101 O93 1.258 . S
C101 O94 1.266 . S
Co102 O105 1.970 . S
Co102 N119 1.989 . S
Co102 O127 1.967 . S
Co102 O134 1.920 . S
Co103 O106 1.966 . S
Co103 N112 2.022 . S
Co103 N120 1.993 . S
Co103 O128 1.941 . S
C104 O105 1.258 . S
C104 O106 1.263 . S
O105 Co102 1.970 . S
O105 C104 1.258 . S
O106 Co103 1.966 . S
O106 C104 1.263 . S
C107 O108 1.235 . S
C107 O134 1.289 . S
O108 C107 1.235 . S
C109 C111 1.400 . S
C109 N112 1.351 . S
C109 C114 1.501 . S
C110 C111 1.387 . S
C110 N113 1.341 . S
C111 C109 1.400 . S
C111 C110 1.387 . S
N112 Co103 2.022 . S
N112 C109 1.351 . S
N112 N113 1.365 . S
N113 C110 1.341 . S
N113 N112 1.365 . S
N113 H133 0.862 . S
C114 C109 1.501 . S
C114 H115 0.961 . S
C114 H116 0.961 . S
C114 H117 0.960 . S
H115 C114 0.961 . S
H116 C114 0.961 . S
H117 C114 0.960 . S
C118 N119 1.342 . S
C118 C122 1.401 . S
C118 C123 1.499 . S
N119 Co102 1.989 . S
N119 C118 1.342 . S
N119 N120 1.388 . S
N120 Co103 1.993 . S
N120 N119 1.388 . S
N120 C121 1.346 . S
C121 N120 1.346 . S
C121 C122 1.396 . S
C121 C131 1.510 . S
C122 C118 1.401 . S
C122 C121 1.396 . S
C123 C118 1.499 . S
C123 H124 0.959 . S
C123 H125 0.960 . S
C123 H126 0.961 . S
H124 C123 0.959 . S
H125 C123 0.960 . S
H126 C123 0.961 . S
O127 Co102 1.967 . S
O127 C135 1.258 . S
O128 Co103 1.941 . S
O128 C135 1.266 . S
H129 C131 0.959 . S
H130 C131 0.961 . S
C131 C121 1.510 . S
C131 H129 0.959 . S
C131 H130 0.961 . S
C131 H132 0.960 . S
H132 C131 0.960 . S
H133 N113 0.862 . S
O134 Co102 1.920 . S
O134 C107 1.289 . S
C135 O127 1.258 . S
C135 O128 1.266 . S
Co136 O139 1.970 . S
Co136 N153 1.989 . S
Co136 O161 1.967 . S
Co136 O168 1.920 . S
Co137 O140 1.966 . S
Co137 N146 2.022 . S
Co137 N154 1.993 . S
Co137 O162 1.941 . S
C138 O139 1.258 . S
C138 O140 1.263 . S
O139 Co136 1.970 . S
O139 C138 1.258 . S
O140 Co137 1.966 . S
O140 C138 1.263 . S
C141 O142 1.235 . S
C141 O168 1.289 . S
O142 C141 1.235 . S
C143 C145 1.400 . S
C143 N146 1.351 . S
C143 C148 1.501 . S
C144 C145 1.387 . S
C144 N147 1.341 . S
C145 C143 1.400 . S
C145 C144 1.387 . S
N146 Co137 2.022 . S
N146 C143 1.351 . S
N146 N147 1.365 . S
N147 C144 1.341 . S
N147 N146 1.365 . S
N147 H167 0.862 . S
C148 C143 1.501 . S
C148 H149 0.961 . S
C148 H150 0.961 . S
C148 H151 0.960 . S
H149 C148 0.961 . S
H150 C148 0.961 . S
H151 C148 0.960 . S
C152 N153 1.342 . S
C152 C156 1.401 . S
C152 C157 1.499 . S
N153 Co136 1.989 . S
N153 C152 1.342 . S
N153 N154 1.388 . S
N154 Co137 1.993 . S
N154 N153 1.388 . S
N154 C155 1.346 . S
C155 N154 1.346 . S
C155 C156 1.396 . S
C155 C165 1.510 . S
C156 C152 1.401 . S
C156 C155 1.396 . S
C157 C152 1.499 . S
C157 H158 0.959 . S
C157 H159 0.960 . S
C157 H160 0.961 . S
H158 C157 0.959 . S
H159 C157 0.960 . S
H160 C157 0.961 . S
O161 Co136 1.967 . S
O161 C169 1.258 . S
O162 Co137 1.941 . S
O162 C169 1.266 . S
H163 C165 0.959 . S
H164 C165 0.961 . S
C165 C155 1.510 . S
C165 H163 0.959 . S
C165 H164 0.961 . S
C165 H166 0.960 . S
H166 C165 0.960 . S
H167 N147 0.862 . S
O168 Co136 1.920 . S
O168 C141 1.289 . S
C169 O161 1.258 . S
C169 O162 1.266 . S
Co170 O173 1.970 . S
Co170 N187 1.989 . S
Co170 O195 1.967 . S
Co170 O202 1.920 . S
Co171 O174 1.966 . S
Co171 N180 2.022 . S
Co171 N188 1.993 . S
Co171 O196 1.941 . S
C172 O173 1.258 . S
C172 O174 1.263 . S
O173 Co170 1.970 . S
O173 C172 1.258 . S
O174 Co171 1.966 . S
O174 C172 1.263 . S
C175 O176 1.235 . S
C175 O202 1.289 . S
O176 C175 1.235 . S
C177 C179 1.400 . S
C177 N180 1.351 . S
C177 C182 1.501 . S
C178 C179 1.387 . S
C178 N181 1.341 . S
C179 C177 1.400 . S
C179 C178 1.387 . S
N180 Co171 2.022 . S
N180 C177 1.351 . S
N180 N181 1.365 . S
N181 C178 1.341 . S
N181 N180 1.365 . S
N181 H201 0.862 . S
C182 C177 1.501 . S
C182 H183 0.961 . S
C182 H184 0.961 . S
C182 H185 0.960 . S
H183 C182 0.961 . S
H184 C182 0.961 . S
H185 C182 0.960 . S
C186 N187 1.342 . S
C186 C190 1.401 . S
C186 C191 1.499 . S
N187 Co170 1.989 . S
N187 C186 1.342 . S
N187 N188 1.388 . S
N188 Co171 1.993 . S
N188 N187 1.388 . S
N188 C189 1.346 . S
C189 N188 1.346 . S
C189 C190 1.396 . S
C189 C199 1.510 . S
C190 C186 1.401 . S
C190 C189 1.396 . S
C191 C186 1.499 . S
C191 H192 0.959 . S
C191 H193 0.960 . S
C191 H194 0.961 . S
H192 C191 0.959 . S
H193 C191 0.960 . S
H194 C191 0.961 . S
O195 Co170 1.967 . S
O195 C203 1.258 . S
O196 Co171 1.941 . S
O196 C203 1.266 . S
H197 C199 0.959 . S
H198 C199 0.961 . S
C199 C189 1.510 . S
C199 H197 0.959 . S
C199 H198 0.961 . S
C199 H200 0.960 . S
H200 C199 0.960 . S
H201 N181 0.862 . S
O202 Co170 1.920 . S
O202 C175 1.289 . S
C203 O195 1.258 . S
C203 O196 1.266 . S
Co204 O207 1.970 . S
Co204 N221 1.989 . S
Co204 O229 1.967 . S
Co204 O236 1.920 . S
Co205 O208 1.966 . S
Co205 N214 2.022 . S
Co205 N222 1.993 . S
Co205 O230 1.941 . S
C206 O207 1.258 . S
C206 O208 1.263 . S
O207 Co204 1.970 . S
O207 C206 1.258 . S
O208 Co205 1.966 . S
O208 C206 1.263 . S
C209 O210 1.235 . S
C209 O236 1.289 . S
O210 C209 1.235 . S
C211 C213 1.400 . S
C211 N214 1.351 . S
C211 C216 1.501 . S
C212 C213 1.387 . S
C212 N215 1.341 . S
C213 C211 1.400 . S
C213 C212 1.387 . S
N214 Co205 2.022 . S
N214 C211 1.351 . S
N214 N215 1.365 . S
N215 C212 1.341 . S
N215 N214 1.365 . S
N215 H235 0.862 . S
C216 C211 1.501 . S
C216 H217 0.961 . S
C216 H218 0.961 . S
C216 H219 0.960 . S
H217 C216 0.961 . S
H218 C216 0.961 . S
H219 C216 0.960 . S
C220 N221 1.342 . S
C220 C224 1.401 . S
C220 C225 1.499 . S
N221 Co204 1.989 . S
N221 C220 1.342 . S
N221 N222 1.388 . S
N222 Co205 1.993 . S
N222 N221 1.388 . S
N222 C223 1.346 . S
C223 N222 1.346 . S
C223 C224 1.396 . S
C223 C233 1.510 . S
C224 C220 1.401 . S
C224 C223 1.396 . S
C225 C220 1.499 . S
C225 H226 0.959 . S
C225 H227 0.960 . S
C225 H228 0.961 . S
H226 C225 0.959 . S
H227 C225 0.960 . S
H228 C225 0.961 . S
O229 Co204 1.967 . S
O229 C237 1.258 . S
O230 Co205 1.941 . S
O230 C237 1.266 . S
H231 C233 0.959 . S
H232 C233 0.961 . S
C233 C223 1.510 . S
C233 H231 0.959 . S
C233 H232 0.961 . S
C233 H234 0.960 . S
H234 C233 0.960 . S
H235 N215 0.862 . S
O236 Co204 1.920 . S
O236 C209 1.289 . S
C237 O229 1.258 . S
C237 O230 1.266 . S
Co238 O241 1.970 . S
Co238 N255 1.989 . S
Co238 O263 1.967 . S
Co238 O270 1.920 . S
Co239 O242 1.966 . S
Co239 N248 2.022 . S
Co239 N256 1.993 . S
Co239 O264 1.941 . S
C240 O241 1.258 . S
C240 O242 1.263 . S
O241 Co238 1.970 . S
O241 C240 1.258 . S
O242 Co239 1.966 . S
O242 C240 1.263 . S
C243 O244 1.235 . S
C243 O270 1.289 . S
O244 C243 1.235 . S
C245 C247 1.400 . S
C245 N248 1.351 . S
C245 C250 1.501 . S
C246 C247 1.387 . S
C246 N249 1.341 . S
C247 C245 1.400 . S
C247 C246 1.387 . S
N248 Co239 2.022 . S
N248 C245 1.351 . S
N248 N249 1.365 . S
N249 C246 1.341 . S
N249 N248 1.365 . S
N249 H269 0.862 . S
C250 C245 1.501 . S
C250 H251 0.961 . S
C250 H252 0.961 . S
C250 H253 0.960 . S
H251 C250 0.961 . S
H252 C250 0.961 . S
H253 C250 0.960 . S
C254 N255 1.342 . S
C254 C258 1.401 . S
C254 C259 1.499 . S
N255 Co238 1.989 . S
N255 C254 1.342 . S
N255 N256 1.388 . S
N256 Co239 1.993 . S
N256 N255 1.388 . S
N256 C257 1.346 . S
C257 N256 1.346 . S
C257 C258 1.396 . S
C257 C267 1.510 . S
C258 C254 1.401 . S
C258 C257 1.396 . S
C259 C254 1.499 . S
C259 H260 0.959 . S
C259 H261 0.960 . S
C259 H262 0.961 . S
H260 C259 0.959 . S
H261 C259 0.960 . S
H262 C259 0.961 . S
O263 Co238 1.967 . S
O263 C271 1.258 . S
O264 Co239 1.941 . S
O264 C271 1.266 . S
H265 C267 0.959 . S
H266 C267 0.961 . S
C267 C257 1.510 . S
C267 H265 0.959 . S
C267 H266 0.961 . S
C267 H268 0.960 . S
H268 C267 0.960 . S
H269 N249 0.862 . S
O270 Co238 1.920 . S
O270 C243 1.289 . S
C271 O263 1.258 . S
C271 O264 1.266 . S
Co272 O275 1.970 . S
Co272 N289 1.989 . S
Co272 O297 1.967 . S
Co272 O304 1.920 . S
Co273 O276 1.966 . S
Co273 N282 2.022 . S
Co273 N290 1.993 . S
Co273 O298 1.941 . S
C274 O275 1.258 . S
C274 O276 1.263 . S
O275 Co272 1.970 . S
O275 C274 1.258 . S
O276 Co273 1.966 . S
O276 C274 1.263 . S
C277 O278 1.235 . S
C277 O304 1.289 . S
O278 C277 1.235 . S
C279 C281 1.400 . S
C279 N282 1.351 . S
C279 C284 1.501 . S
C280 C281 1.387 . S
C280 N283 1.341 . S
C281 C279 1.400 . S
C281 C280 1.387 . S
N282 Co273 2.022 . S
N282 C279 1.351 . S
N282 N283 1.365 . S
N283 C280 1.341 . S
N283 N282 1.365 . S
N283 H303 0.862 . S
C284 C279 1.501 . S
C284 H285 0.961 . S
C284 H286 0.961 . S
C284 H287 0.960 . S
H285 C284 0.961 . S
H286 C284 0.961 . S
H287 C284 0.960 . S
C288 N289 1.342 . S
C288 C292 1.401 . S
C288 C293 1.499 . S
N289 Co272 1.989 . S
N289 C288 1.342 . S
N289 N290 1.388 . S
N290 Co273 1.993 . S
N290 N289 1.388 . S
N290 C291 1.346 . S
C291 N290 1.346 . S
C291 C292 1.396 . S
C291 C301 1.510 . S
C292 C288 1.401 . S
C292 C291 1.396 . S
C293 C288 1.499 . S
C293 H294 0.959 . S
C293 H295 0.960 . S
C293 H296 0.961 . S
H294 C293 0.959 . S
H295 C293 0.960 . S
H296 C293 0.961 . S
O297 Co272 1.967 . S
O297 C305 1.258 . S
O298 Co273 1.941 . S
O298 C305 1.266 . S
H299 C301 0.959 . S
H300 C301 0.961 . S
C301 C291 1.510 . S
C301 H299 0.959 . S
C301 H300 0.961 . S
C301 H302 0.960 . S
H302 C301 0.960 . S
H303 N283 0.862 . S
O304 Co272 1.920 . S
O304 C277 1.289 . S
C305 O297 1.258 . S
C305 O298 1.266 . S
Co306 O309 1.970 . S
Co306 N323 1.989 . S
Co306 O331 1.967 . S
Co306 O338 1.920 . S
Co307 O310 1.966 . S
Co307 N316 2.022 . S
Co307 N324 1.993 . S
Co307 O332 1.941 . S
C308 O309 1.258 . S
C308 O310 1.263 . S
O309 Co306 1.970 . S
O309 C308 1.258 . S
O310 Co307 1.966 . S
O310 C308 1.263 . S
C311 O312 1.235 . S
C311 O338 1.289 . S
O312 C311 1.235 . S
C313 C315 1.400 . S
C313 N316 1.351 . S
C313 C318 1.501 . S
C314 C315 1.387 . S
C314 N317 1.341 . S
C315 C313 1.400 . S
C315 C314 1.387 . S
N316 Co307 2.022 . S
N316 C313 1.351 . S
N316 N317 1.365 . S
N317 C314 1.341 . S
N317 N316 1.365 . S
N317 H337 0.862 . S
C318 C313 1.501 . S
C318 H319 0.961 . S
C318 H320 0.961 . S
C318 H321 0.960 . S
H319 C318 0.961 . S
H320 C318 0.961 . S
H321 C318 0.960 . S
C322 N323 1.342 . S
C322 C326 1.401 . S
C322 C327 1.499 . S
N323 Co306 1.989 . S
N323 C322 1.342 . S
N323 N324 1.388 . S
N324 Co307 1.993 . S
N324 N323 1.388 . S
N324 C325 1.346 . S
C325 N324 1.346 . S
C325 C326 1.396 . S
C325 C335 1.510 . S
C326 C322 1.401 . S
C326 C325 1.396 . S
C327 C322 1.499 . S
C327 H328 0.959 . S
C327 H329 0.960 . S
C327 H330 0.961 . S
H328 C327 0.959 . S
H329 C327 0.960 . S
H330 C327 0.961 . S
O331 Co306 1.967 . S
O331 C339 1.258 . S
O332 Co307 1.941 . S
O332 C339 1.266 . S
H333 C335 0.959 . S
H334 C335 0.961 . S
C335 C325 1.510 . S
C335 H333 0.959 . S
C335 H334 0.961 . S
C335 H336 0.960 . S
H336 C335 0.960 . S
H337 N317 0.862 . S
O338 Co306 1.920 . S
O338 C311 1.289 . S
C339 O331 1.258 . S
C339 O332 1.266 . S
Co340 O343 1.970 . S
Co340 N357 1.989 . S
Co340 O365 1.967 . S
Co340 O372 1.920 . S
Co341 O344 1.966 . S
Co341 N350 2.022 . S
Co341 N358 1.993 . S
Co341 O366 1.941 . S
C342 O343 1.258 . S
C342 O344 1.263 . S
O343 Co340 1.970 . S
O343 C342 1.258 . S
O344 Co341 1.966 . S
O344 C342 1.263 . S
C345 O346 1.235 . S
C345 O372 1.289 . S
O346 C345 1.235 . S
C347 C349 1.400 . S
C347 N350 1.351 . S
C347 C352 1.501 . S
C348 C349 1.387 . S
C348 N351 1.341 . S
C349 C347 1.400 . S
C349 C348 1.387 . S
N350 Co341 2.022 . S
N350 C347 1.351 . S
N350 N351 1.365 . S
N351 C348 1.341 . S
N351 N350 1.365 . S
N351 H371 0.862 . S
C352 C347 1.501 . S
C352 H353 0.961 . S
C352 H354 0.961 . S
C352 H355 0.960 . S
H353 C352 0.961 . S
H354 C352 0.961 . S
H355 C352 0.960 . S
C356 N357 1.342 . S
C356 C360 1.401 . S
C356 C361 1.499 . S
N357 Co340 1.989 . S
N357 C356 1.342 . S
N357 N358 1.388 . S
N358 Co341 1.993 . S
N358 N357 1.388 . S
N358 C359 1.346 . S
C359 N358 1.346 . S
C359 C360 1.396 . S
C359 C369 1.510 . S
C360 C356 1.401 . S
C360 C359 1.396 . S
C361 C356 1.499 . S
C361 H362 0.959 . S
C361 H363 0.960 . S
C361 H364 0.961 . S
H362 C361 0.959 . S
H363 C361 0.960 . S
H364 C361 0.961 . S
O365 Co340 1.967 . S
O365 C373 1.258 . S
O366 Co341 1.941 . S
O366 C373 1.266 . S
H367 C369 0.959 . S
H368 C369 0.961 . S
C369 C359 1.510 . S
C369 H367 0.959 . S
C369 H368 0.961 . S
C369 H370 0.960 . S
H370 C369 0.960 . S
H371 N351 0.862 . S
O372 Co340 1.920 . S
O372 C345 1.289 . S
C373 O365 1.258 . S
C373 O366 1.266 . S
Co374 O377 1.970 . S
Co374 N391 1.989 . S
Co374 O399 1.967 . S
Co374 O406 1.920 . S
Co375 O378 1.966 . S
Co375 N384 2.022 . S
Co375 N392 1.993 . S
Co375 O400 1.941 . S
C376 O377 1.258 . S
C376 O378 1.263 . S
O377 Co374 1.970 . S
O377 C376 1.258 . S
O378 Co375 1.966 . S
O378 C376 1.263 . S
C379 O380 1.235 . S
C379 O406 1.289 . S
O380 C379 1.235 . S
C381 C383 1.400 . S
C381 N384 1.351 . S
C381 C386 1.501 . S
C382 C383 1.387 . S
C382 N385 1.341 . S
C383 C381 1.400 . S
C383 C382 1.387 . S
N384 Co375 2.022 . S
N384 C381 1.351 . S
N384 N385 1.365 . S
N385 C382 1.341 . S
N385 N384 1.365 . S
N385 H405 0.862 . S
C386 C381 1.501 . S
C386 H387 0.961 . S
C386 H388 0.961 . S
C386 H389 0.960 . S
H387 C386 0.961 . S
H388 C386 0.961 . S
H389 C386 0.960 . S
C390 N391 1.342 . S
C390 C394 1.401 . S
C390 C395 1.499 . S
N391 Co374 1.989 . S
N391 C390 1.342 . S
N391 N392 1.388 . S
N392 Co375 1.993 . S
N392 N391 1.388 . S
N392 C393 1.346 . S
C393 N392 1.346 . S
C393 C394 1.396 . S
C393 C403 1.510 . S
C394 C390 1.401 . S
C394 C393 1.396 . S
C395 C390 1.499 . S
C395 H396 0.959 . S
C395 H397 0.960 . S
C395 H398 0.961 . S
H396 C395 0.959 . S
H397 C395 0.960 . S
H398 C395 0.961 . S
O399 Co374 1.967 . S
O399 C407 1.258 . S
O400 Co375 1.941 . S
O400 C407 1.266 . S
H401 C403 0.959 . S
H402 C403 0.961 . S
C403 C393 1.510 . S
C403 H401 0.959 . S
C403 H402 0.961 . S
C403 H404 0.960 . S
H404 C403 0.960 . S
H405 N385 0.862 . S
O406 Co374 1.920 . S
O406 C379 1.289 . S
C407 O399 1.258 . S
C407 O400 1.266 . S
Co408 O411 1.970 . S
Co408 N425 1.989 . S
Co408 O433 1.967 . S
Co408 O440 1.920 . S
Co409 O412 1.966 . S
Co409 N418 2.022 . S
Co409 N426 1.993 . S
Co409 O434 1.941 . S
C410 O411 1.258 . S
C410 O412 1.263 . S
O411 Co408 1.970 . S
O411 C410 1.258 . S
O412 Co409 1.966 . S
O412 C410 1.263 . S
C413 O414 1.235 . S
C413 O440 1.289 . S
O414 C413 1.235 . S
C415 C417 1.400 . S
C415 N418 1.351 . S
C415 C420 1.501 . S
C416 C417 1.387 . S
C416 N419 1.341 . S
C417 C415 1.400 . S
C417 C416 1.387 . S
N418 Co409 2.022 . S
N418 C415 1.351 . S
N418 N419 1.365 . S
N419 C416 1.341 . S
N419 N418 1.365 . S
N419 H439 0.862 . S
C420 C415 1.501 . S
C420 H421 0.961 . S
C420 H422 0.961 . S
C420 H423 0.960 . S
H421 C420 0.961 . S
H422 C420 0.961 . S
H423 C420 0.960 . S
C424 N425 1.342 . S
C424 C428 1.401 . S
C424 C429 1.499 . S
N425 Co408 1.989 . S
N425 C424 1.342 . S
N425 N426 1.388 . S
N426 Co409 1.993 . S
N426 N425 1.388 . S
N426 C427 1.346 . S
C427 N426 1.346 . S
C427 C428 1.396 . S
C427 C437 1.510 . S
C428 C424 1.401 . S
C428 C427 1.396 . S
C429 C424 1.499 . S
C429 H430 0.959 . S
C429 H431 0.960 . S
C429 H432 0.961 . S
H430 C429 0.959 . S
H431 C429 0.960 . S
H432 C429 0.961 . S
O433 Co408 1.967 . S
O433 C441 1.258 . S
O434 Co409 1.941 . S
O434 C441 1.266 . S
H435 C437 0.959 . S
H436 C437 0.961 . S
C437 C427 1.510 . S
C437 H435 0.959 . S
C437 H436 0.961 . S
C437 H438 0.960 . S
H438 C437 0.960 . S
H439 N419 0.862 . S
O440 Co408 1.920 . S
O440 C413 1.289 . S
C441 O433 1.258 . S
C441 O434 1.266 . S
Co442 O445 1.970 . S
Co442 N459 1.989 . S
Co442 O467 1.967 . S
Co442 O474 1.920 . S
Co443 O446 1.966 . S
Co443 N452 2.022 . S
Co443 N460 1.993 . S
Co443 O468 1.941 . S
C444 O445 1.258 . S
C444 O446 1.263 . S
O445 Co442 1.970 . S
O445 C444 1.258 . S
O446 Co443 1.966 . S
O446 C444 1.263 . S
C447 O448 1.235 . S
C447 O474 1.289 . S
O448 C447 1.235 . S
C449 C451 1.400 . S
C449 N452 1.351 . S
C449 C454 1.501 . S
C450 C451 1.387 . S
C450 N453 1.341 . S
C451 C449 1.400 . S
C451 C450 1.387 . S
N452 Co443 2.022 . S
N452 C449 1.351 . S
N452 N453 1.365 . S
N453 C450 1.341 . S
N453 N452 1.365 . S
N453 H473 0.862 . S
C454 C449 1.501 . S
C454 H455 0.961 . S
C454 H456 0.961 . S
C454 H457 0.960 . S
H455 C454 0.961 . S
H456 C454 0.961 . S
H457 C454 0.960 . S
C458 N459 1.342 . S
C458 C462 1.401 . S
C458 C463 1.499 . S
N459 Co442 1.989 . S
N459 C458 1.342 . S
N459 N460 1.388 . S
N460 Co443 1.993 . S
N460 N459 1.388 . S
N460 C461 1.346 . S
C461 N460 1.346 . S
C461 C462 1.396 . S
C461 C471 1.510 . S
C462 C458 1.401 . S
C462 C461 1.396 . S
C463 C458 1.499 . S
C463 H464 0.959 . S
C463 H465 0.960 . S
C463 H466 0.961 . S
H464 C463 0.959 . S
H465 C463 0.960 . S
H466 C463 0.961 . S
O467 Co442 1.967 . S
O467 C475 1.258 . S
O468 Co443 1.941 . S
O468 C475 1.266 . S
H469 C471 0.959 . S
H470 C471 0.961 . S
C471 C461 1.510 . S
C471 H469 0.959 . S
C471 H470 0.961 . S
C471 H472 0.960 . S
H472 C471 0.960 . S
H473 N453 0.862 . S
O474 Co442 1.920 . S
O474 C447 1.289 . S
C475 O467 1.258 . S
C475 O468 1.266 . S
Co476 O479 1.970 . S
Co476 N493 1.989 . S
Co476 O501 1.967 . S
Co476 O508 1.920 . S
Co477 O480 1.966 . S
Co477 N486 2.022 . S
Co477 N494 1.993 . S
Co477 O502 1.941 . S
C478 O479 1.258 . S
C478 O480 1.263 . S
O479 Co476 1.970 . S
O479 C478 1.258 . S
O480 Co477 1.966 . S
O480 C478 1.263 . S
C481 O482 1.235 . S
C481 O508 1.289 . S
O482 C481 1.235 . S
C483 C485 1.400 . S
C483 N486 1.351 . S
C483 C488 1.501 . S
C484 C485 1.387 . S
C484 N487 1.341 . S
C485 C483 1.400 . S
C485 C484 1.387 . S
N486 Co477 2.022 . S
N486 C483 1.351 . S
N486 N487 1.365 . S
N487 C484 1.341 . S
N487 N486 1.365 . S
N487 H507 0.862 . S
C488 C483 1.501 . S
C488 H489 0.961 . S
C488 H490 0.961 . S
C488 H491 0.960 . S
H489 C488 0.961 . S
H490 C488 0.961 . S
H491 C488 0.960 . S
C492 N493 1.342 . S
C492 C496 1.401 . S
C492 C497 1.499 . S
N493 Co476 1.989 . S
N493 C492 1.342 . S
N493 N494 1.388 . S
N494 Co477 1.993 . S
N494 N493 1.388 . S
N494 C495 1.346 . S
C495 N494 1.346 . S
C495 C496 1.396 . S
C495 C505 1.510 . S
C496 C492 1.401 . S
C496 C495 1.396 . S
C497 C492 1.499 . S
C497 H498 0.959 . S
C497 H499 0.960 . S
C497 H500 0.961 . S
H498 C497 0.959 . S
H499 C497 0.960 . S
H500 C497 0.961 . S
O501 Co476 1.967 . S
O501 C509 1.258 . S
O502 Co477 1.941 . S
O502 C509 1.266 . S
H503 C505 0.959 . S
H504 C505 0.961 . S
C505 C495 1.510 . S
C505 H503 0.959 . S
C505 H504 0.961 . S
C505 H506 0.960 . S
H506 C505 0.960 . S
H507 N487 0.862 . S
O508 Co476 1.920 . S
O508 C481 1.289 . S
C509 O501 1.258 . S
C509 O502 1.266 . S
Co510 O513 1.970 . S
Co510 N527 1.989 . S
Co510 O535 1.967 . S
Co510 O542 1.920 . S
Co511 O514 1.966 . S
Co511 N520 2.022 . S
Co511 N528 1.993 . S
Co511 O536 1.941 . S
C512 O513 1.258 . S
C512 O514 1.263 . S
O513 Co510 1.970 . S
O513 C512 1.258 . S
O514 Co511 1.966 . S
O514 C512 1.263 . S
C515 O516 1.235 . S
C515 O542 1.289 . S
O516 C515 1.235 . S
C517 C519 1.400 . S
C517 N520 1.351 . S
C517 C522 1.501 . S
C518 C519 1.387 . S
C518 N521 1.341 . S
C519 C517 1.400 . S
C519 C518 1.387 . S
N520 Co511 2.022 . S
N520 C517 1.351 . S
N520 N521 1.365 . S
N521 C518 1.341 . S
N521 N520 1.365 . S
N521 H541 0.862 . S
C522 C517 1.501 . S
C522 H523 0.961 . S
C522 H524 0.961 . S
C522 H525 0.960 . S
H523 C522 0.961 . S
H524 C522 0.961 . S
H525 C522 0.960 . S
C526 N527 1.342 . S
C526 C530 1.401 . S
C526 C531 1.499 . S
N527 Co510 1.989 . S
N527 C526 1.342 . S
N527 N528 1.388 . S
N528 Co511 1.993 . S
N528 N527 1.388 . S
N528 C529 1.346 . S
C529 N528 1.346 . S
C529 C530 1.396 . S
C529 C539 1.510 . S
C530 C526 1.401 . S
C530 C529 1.396 . S
C531 C526 1.499 . S
C531 H532 0.959 . S
C531 H533 0.960 . S
C531 H534 0.961 . S
H532 C531 0.959 . S
H533 C531 0.960 . S
H534 C531 0.961 . S
O535 Co510 1.967 . S
O535 C543 1.258 . S
O536 Co511 1.941 . S
O536 C543 1.266 . S
H537 C539 0.959 . S
H538 C539 0.961 . S
C539 C529 1.510 . S
C539 H537 0.959 . S
C539 H538 0.961 . S
C539 H540 0.960 . S
H540 C539 0.960 . S
H541 N521 0.862 . S
O542 Co510 1.920 . S
O542 C515 1.289 . S
C543 O535 1.258 . S
C543 O536 1.266 . S
Co544 O547 1.970 . S
Co544 N561 1.989 . S
Co544 O569 1.967 . S
Co544 O576 1.920 . S
Co545 O548 1.966 . S
Co545 N554 2.022 . S
Co545 N562 1.993 . S
Co545 O570 1.941 . S
C546 O547 1.258 . S
C546 O548 1.263 . S
O547 Co544 1.970 . S
O547 C546 1.258 . S
O548 Co545 1.966 . S
O548 C546 1.263 . S
C549 O550 1.235 . S
C549 O576 1.289 . S
O550 C549 1.235 . S
C551 C553 1.400 . S
C551 N554 1.351 . S
C551 C556 1.501 . S
C552 C553 1.387 . S
C552 N555 1.341 . S
C553 C551 1.400 . S
C553 C552 1.387 . S
N554 Co545 2.022 . S
N554 C551 1.351 . S
N554 N555 1.365 . S
N555 C552 1.341 . S
N555 N554 1.365 . S
N555 H575 0.862 . S
C556 C551 1.501 . S
C556 H557 0.961 . S
C556 H558 0.961 . S
C556 H559 0.960 . S
H557 C556 0.961 . S
H558 C556 0.961 . S
H559 C556 0.960 . S
C560 N561 1.342 . S
C560 C564 1.401 . S
C560 C565 1.499 . S
N561 Co544 1.989 . S
N561 C560 1.342 . S
N561 N562 1.388 . S
N562 Co545 1.993 . S
N562 N561 1.388 . S
N562 C563 1.346 . S
C563 N562 1.346 . S
C563 C564 1.396 . S
C563 C573 1.510 . S
C564 C560 1.401 . S
C564 C563 1.396 . S
C565 C560 1.499 . S
C565 H566 0.959 . S
C565 H567 0.960 . S
C565 H568 0.961 . S
H566 C565 0.959 . S
H567 C565 0.960 . S
H568 C565 0.961 . S
O569 Co544 1.967 . S
O569 C577 1.258 . S
O570 Co545 1.941 . S
O570 C577 1.266 . S
H571 C573 0.959 . S
H572 C573 0.961 . S
C573 C563 1.510 . S
C573 H571 0.959 . S
C573 H572 0.961 . S
C573 H574 0.960 . S
H574 C573 0.960 . S
H575 N555 0.862 . S
O576 Co544 1.920 . S
O576 C549 1.289 . S
C577 O569 1.258 . S
C577 O570 1.266 . S
Co578 O581 1.970 . S
Co578 N595 1.989 . S
Co578 O603 1.967 . S
Co578 O610 1.920 . S
Co579 O582 1.966 . S
Co579 N588 2.022 . S
Co579 N596 1.993 . S
Co579 O604 1.941 . S
C580 O581 1.258 . S
C580 O582 1.263 . S
O581 Co578 1.970 . S
O581 C580 1.258 . S
O582 Co579 1.966 . S
O582 C580 1.263 . S
C583 O584 1.235 . S
C583 O610 1.289 . S
O584 C583 1.235 . S
C585 C587 1.400 . S
C585 N588 1.351 . S
C585 C590 1.501 . S
C586 C587 1.387 . S
C586 N589 1.341 . S
C587 C585 1.400 . S
C587 C586 1.387 . S
N588 Co579 2.022 . S
N588 C585 1.351 . S
N588 N589 1.365 . S
N589 C586 1.341 . S
N589 N588 1.365 . S
N589 H609 0.862 . S
C590 C585 1.501 . S
C590 H591 0.961 . S
C590 H592 0.961 . S
C590 H593 0.960 . S
H591 C590 0.961 . S
H592 C590 0.961 . S
H593 C590 0.960 . S
C594 N595 1.342 . S
C594 C598 1.401 . S
C594 C599 1.499 . S
N595 Co578 1.989 . S
N595 C594 1.342 . S
N595 N596 1.388 . S
N596 Co579 1.993 . S
N596 N595 1.388 . S
N596 C597 1.346 . S
C597 N596 1.346 . S
C597 C598 1.396 . S
C597 C607 1.510 . S
C598 C594 1.401 . S
C598 C597 1.396 . S
C599 C594 1.499 . S
C599 H600 0.959 . S
C599 H601 0.960 . S
C599 H602 0.961 . S
H600 C599 0.959 . S
H601 C599 0.960 . S
H602 C599 0.961 . S
O603 Co578 1.967 . S
O603 C611 1.258 . S
O604 Co579 1.941 . S
O604 C611 1.266 . S
H605 C607 0.959 . S
H606 C607 0.961 . S
C607 C597 1.510 . S
C607 H605 0.959 . S
C607 H606 0.961 . S
C607 H608 0.960 . S
H608 C607 0.960 . S
H609 N589 0.862 . S
O610 Co578 1.920 . S
O610 C583 1.289 . S
C611 O603 1.258 . S
C611 O604 1.266 . S
Co612 O615 1.970 . S
Co612 N629 1.989 . S
Co612 O637 1.967 . S
Co612 O644 1.920 . S
Co613 O616 1.966 . S
Co613 N622 2.022 . S
Co613 N630 1.993 . S
Co613 O638 1.941 . S
C614 O615 1.258 . S
C614 O616 1.263 . S
O615 Co612 1.970 . S
O615 C614 1.258 . S
O616 Co613 1.966 . S
O616 C614 1.263 . S
C617 O618 1.235 . S
C617 O644 1.289 . S
O618 C617 1.235 . S
C619 C621 1.400 . S
C619 N622 1.351 . S
C619 C624 1.501 . S
C620 C621 1.387 . S
C620 N623 1.341 . S
C621 C619 1.400 . S
C621 C620 1.387 . S
N622 Co613 2.022 . S
N622 C619 1.351 . S
N622 N623 1.365 . S
N623 C620 1.341 . S
N623 N622 1.365 . S
N623 H643 0.862 . S
C624 C619 1.501 . S
C624 H625 0.961 . S
C624 H626 0.961 . S
C624 H627 0.960 . S
H625 C624 0.961 . S
H626 C624 0.961 . S
H627 C624 0.960 . S
C628 N629 1.342 . S
C628 C632 1.401 . S
C628 C633 1.499 . S
N629 Co612 1.989 . S
N629 C628 1.342 . S
N629 N630 1.388 . S
N630 Co613 1.993 . S
N630 N629 1.388 . S
N630 C631 1.346 . S
C631 N630 1.346 . S
C631 C632 1.396 . S
C631 C641 1.510 . S
C632 C628 1.401 . S
C632 C631 1.396 . S
C633 C628 1.499 . S
C633 H634 0.959 . S
C633 H635 0.960 . S
C633 H636 0.961 . S
H634 C633 0.959 . S
H635 C633 0.960 . S
H636 C633 0.961 . S
O637 Co612 1.967 . S
O637 C645 1.258 . S
O638 Co613 1.941 . S
O638 C645 1.266 . S
H639 C641 0.959 . S
H640 C641 0.961 . S
C641 C631 1.510 . S
C641 H639 0.959 . S
C641 H640 0.961 . S
C641 H642 0.960 . S
H642 C641 0.960 . S
H643 N623 0.862 . S
O644 Co612 1.920 . S
O644 C617 1.289 . S
C645 O637 1.258 . S
C645 O638 1.266 . S
Co646 O649 1.970 . S
Co646 N663 1.989 . S
Co646 O671 1.967 . S
Co646 O678 1.920 . S
Co647 O650 1.966 . S
Co647 N656 2.022 . S
Co647 N664 1.993 . S
Co647 O672 1.941 . S
C648 O649 1.258 . S
C648 O650 1.263 . S
O649 Co646 1.970 . S
O649 C648 1.258 . S
O650 Co647 1.966 . S
O650 C648 1.263 . S
C651 O652 1.235 . S
C651 O678 1.289 . S
O652 C651 1.235 . S
C653 C655 1.400 . S
C653 N656 1.351 . S
C653 C658 1.501 . S
C654 C655 1.387 . S
C654 N657 1.341 . S
C655 C653 1.400 . S
C655 C654 1.387 . S
N656 Co647 2.022 . S
N656 C653 1.351 . S
N656 N657 1.365 . S
N657 C654 1.341 . S
N657 N656 1.365 . S
N657 H677 0.862 . S
C658 C653 1.501 . S
C658 H659 0.961 . S
C658 H660 0.961 . S
C658 H661 0.960 . S
H659 C658 0.961 . S
H660 C658 0.961 . S
H661 C658 0.960 . S
C662 N663 1.342 . S
C662 C666 1.401 . S
C662 C667 1.499 . S
N663 Co646 1.989 . S
N663 C662 1.342 . S
N663 N664 1.388 . S
N664 Co647 1.993 . S
N664 N663 1.388 . S
N664 C665 1.346 . S
C665 N664 1.346 . S
C665 C666 1.396 . S
C665 C675 1.510 . S
C666 C662 1.401 . S
C666 C665 1.396 . S
C667 C662 1.499 . S
C667 H668 0.959 . S
C667 H669 0.960 . S
C667 H670 0.961 . S
H668 C667 0.959 . S
H669 C667 0.960 . S
H670 C667 0.961 . S
O671 Co646 1.967 . S
O671 C679 1.258 . S
O672 Co647 1.941 . S
O672 C679 1.266 . S
H673 C675 0.959 . S
H674 C675 0.961 . S
C675 C665 1.510 . S
C675 H673 0.959 . S
C675 H674 0.961 . S
C675 H676 0.960 . S
H676 C675 0.960 . S
H677 N657 0.862 . S
O678 Co646 1.920 . S
O678 C651 1.289 . S
C679 O671 1.258 . S
C679 O672 1.266 . S
Co680 O683 1.970 . S
Co680 N697 1.989 . S
Co680 O705 1.967 . S
Co680 O712 1.920 . S
Co681 O684 1.966 . S
Co681 N690 2.022 . S
Co681 N698 1.993 . S
Co681 O706 1.941 . S
C682 O683 1.258 . S
C682 O684 1.263 . S
O683 Co680 1.970 . S
O683 C682 1.258 . S
O684 Co681 1.966 . S
O684 C682 1.263 . S
C685 O686 1.235 . S
C685 O712 1.289 . S
O686 C685 1.235 . S
C687 C689 1.400 . S
C687 N690 1.351 . S
C687 C692 1.501 . S
C688 C689 1.387 . S
C688 N691 1.341 . S
C689 C687 1.400 . S
C689 C688 1.387 . S
N690 Co681 2.022 . S
N690 C687 1.351 . S
N690 N691 1.365 . S
N691 C688 1.341 . S
N691 N690 1.365 . S
N691 H711 0.862 . S
C692 C687 1.501 . S
C692 H693 0.961 . S
C692 H694 0.961 . S
C692 H695 0.960 . S
H693 C692 0.961 . S
H694 C692 0.961 . S
H695 C692 0.960 . S
C696 N697 1.342 . S
C696 C700 1.401 . S
C696 C701 1.499 . S
N697 Co680 1.989 . S
N697 C696 1.342 . S
N697 N698 1.388 . S
N698 Co681 1.993 . S
N698 N697 1.388 . S
N698 C699 1.346 . S
C699 N698 1.346 . S
C699 C700 1.396 . S
C699 C709 1.510 . S
C700 C696 1.401 . S
C700 C699 1.396 . S
C701 C696 1.499 . S
C701 H702 0.959 . S
C701 H703 0.960 . S
C701 H704 0.961 . S
H702 C701 0.959 . S
H703 C701 0.960 . S
H704 C701 0.961 . S
O705 Co680 1.967 . S
O705 C713 1.258 . S
O706 Co681 1.941 . S
O706 C713 1.266 . S
H707 C709 0.959 . S
H708 C709 0.961 . S
C709 C699 1.510 . S
C709 H707 0.959 . S
C709 H708 0.961 . S
C709 H710 0.960 . S
H710 C709 0.960 . S
H711 N691 0.862 . S
O712 Co680 1.920 . S
O712 C685 1.289 . S
C713 O705 1.258 . S
C713 O706 1.266 . S
Co714 O717 1.970 . S
Co714 N731 1.989 . S
Co714 O739 1.967 . S
Co714 O746 1.920 . S
Co715 O718 1.966 . S
Co715 N724 2.022 . S
Co715 N732 1.993 . S
Co715 O740 1.941 . S
C716 O717 1.258 . S
C716 O718 1.263 . S
O717 Co714 1.970 . S
O717 C716 1.258 . S
O718 Co715 1.966 . S
O718 C716 1.263 . S
C719 O720 1.235 . S
C719 O746 1.289 . S
O720 C719 1.235 . S
C721 C723 1.400 . S
C721 N724 1.351 . S
C721 C726 1.501 . S
C722 C723 1.387 . S
C722 N725 1.341 . S
C723 C721 1.400 . S
C723 C722 1.387 . S
N724 Co715 2.022 . S
N724 C721 1.351 . S
N724 N725 1.365 . S
N725 C722 1.341 . S
N725 N724 1.365 . S
N725 H745 0.862 . S
C726 C721 1.501 . S
C726 H727 0.961 . S
C726 H728 0.961 . S
C726 H729 0.960 . S
H727 C726 0.961 . S
H728 C726 0.961 . S
H729 C726 0.960 . S
C730 N731 1.342 . S
C730 C734 1.401 . S
C730 C735 1.499 . S
N731 Co714 1.989 . S
N731 C730 1.342 . S
N731 N732 1.388 . S
N732 Co715 1.993 . S
N732 N731 1.388 . S
N732 C733 1.346 . S
C733 N732 1.346 . S
C733 C734 1.396 . S
C733 C743 1.510 . S
C734 C730 1.401 . S
C734 C733 1.396 . S
C735 C730 1.499 . S
C735 H736 0.959 . S
C735 H737 0.960 . S
C735 H738 0.961 . S
H736 C735 0.959 . S
H737 C735 0.960 . S
H738 C735 0.961 . S
O739 Co714 1.967 . S
O739 C747 1.258 . S
O740 Co715 1.941 . S
O740 C747 1.266 . S
H741 C743 0.959 . S
H742 C743 0.961 . S
C743 C733 1.510 . S
C743 H741 0.959 . S
C743 H742 0.961 . S
C743 H744 0.960 . S
H744 C743 0.960 . S
H745 N725 0.862 . S
O746 Co714 1.920 . S
O746 C719 1.289 . S
C747 O739 1.258 . S
C747 O740 1.266 . S
Co748 O751 1.970 . S
Co748 N765 1.989 . S
Co748 O773 1.967 . S
Co748 O780 1.920 . S
Co749 O752 1.966 . S
Co749 N758 2.022 . S
Co749 N766 1.993 . S
Co749 O774 1.941 . S
C750 O751 1.258 . S
C750 O752 1.263 . S
O751 Co748 1.970 . S
O751 C750 1.258 . S
O752 Co749 1.966 . S
O752 C750 1.263 . S
C753 O754 1.235 . S
C753 O780 1.289 . S
O754 C753 1.235 . S
C755 C757 1.400 . S
C755 N758 1.351 . S
C755 C760 1.501 . S
C756 C757 1.387 . S
C756 N759 1.341 . S
C757 C755 1.400 . S
C757 C756 1.387 . S
N758 Co749 2.022 . S
N758 C755 1.351 . S
N758 N759 1.365 . S
N759 C756 1.341 . S
N759 N758 1.365 . S
N759 H779 0.862 . S
C760 C755 1.501 . S
C760 H761 0.961 . S
C760 H762 0.961 . S
C760 H763 0.960 . S
H761 C760 0.961 . S
H762 C760 0.961 . S
H763 C760 0.960 . S
C764 N765 1.342 . S
C764 C768 1.401 . S
C764 C769 1.499 . S
N765 Co748 1.989 . S
N765 C764 1.342 . S
N765 N766 1.388 . S
N766 Co749 1.993 . S
N766 N765 1.388 . S
N766 C767 1.346 . S
C767 N766 1.346 . S
C767 C768 1.396 . S
C767 C777 1.510 . S
C768 C764 1.401 . S
C768 C767 1.396 . S
C769 C764 1.499 . S
C769 H770 0.959 . S
C769 H771 0.960 . S
C769 H772 0.961 . S
H770 C769 0.959 . S
H771 C769 0.960 . S
H772 C769 0.961 . S
O773 Co748 1.967 . S
O773 C781 1.258 . S
O774 Co749 1.941 . S
O774 C781 1.266 . S
H775 C777 0.959 . S
H776 C777 0.961 . S
C777 C767 1.510 . S
C777 H775 0.959 . S
C777 H776 0.961 . S
C777 H778 0.960 . S
H778 C777 0.960 . S
H779 N759 0.862 . S
O780 Co748 1.920 . S
O780 C753 1.289 . S
C781 O773 1.258 . S
C781 O774 1.266 . S
Co782 O785 1.970 . S
Co782 N799 1.989 . S
Co782 O807 1.967 . S
Co782 O814 1.920 . S
Co783 O786 1.966 . S
Co783 N792 2.022 . S
Co783 N800 1.993 . S
Co783 O808 1.941 . S
C784 O785 1.258 . S
C784 O786 1.263 . S
O785 Co782 1.970 . S
O785 C784 1.258 . S
O786 Co783 1.966 . S
O786 C784 1.263 . S
C787 O788 1.235 . S
C787 O814 1.289 . S
O788 C787 1.235 . S
C789 C791 1.400 . S
C789 N792 1.351 . S
C789 C794 1.501 . S
C790 C791 1.387 . S
C790 N793 1.341 . S
C791 C789 1.400 . S
C791 C790 1.387 . S
N792 Co783 2.022 . S
N792 C789 1.351 . S
N792 N793 1.365 . S
N793 C790 1.341 . S
N793 N792 1.365 . S
N793 H813 0.862 . S
C794 C789 1.501 . S
C794 H795 0.961 . S
C794 H796 0.961 . S
C794 H797 0.960 . S
H795 C794 0.961 . S
H796 C794 0.961 . S
H797 C794 0.960 . S
C798 N799 1.342 . S
C798 C802 1.401 . S
C798 C803 1.499 . S
N799 Co782 1.989 . S
N799 C798 1.342 . S
N799 N800 1.388 . S
N800 Co783 1.993 . S
N800 N799 1.388 . S
N800 C801 1.346 . S
C801 N800 1.346 . S
C801 C802 1.396 . S
C801 C811 1.510 . S
C802 C798 1.401 . S
C802 C801 1.396 . S
C803 C798 1.499 . S
C803 H804 0.959 . S
C803 H805 0.960 . S
C803 H806 0.961 . S
H804 C803 0.959 . S
H805 C803 0.960 . S
H806 C803 0.961 . S
O807 Co782 1.967 . S
O807 C815 1.258 . S
O808 Co783 1.941 . S
O808 C815 1.266 . S
H809 C811 0.959 . S
H810 C811 0.961 . S
C811 C801 1.510 . S
C811 H809 0.959 . S
C811 H810 0.961 . S
C811 H812 0.960 . S
H812 C811 0.960 . S
H813 N793 0.862 . S
O814 Co782 1.920 . S
O814 C787 1.289 . S
C815 O807 1.258 . S
C815 O808 1.266 . S
H816 C822 0.930 . S
H817 C826 0.930 . S
H818 C831 0.929 . S
H819 C829 0.929 . S
H820 C824 0.929 . S
H821 C830 0.929 . S
C822 H816 0.930 . S
C822 C823 1.367 . S
C822 C830 1.378 . S
C823 C822 1.367 . S
C823 C831 1.433 . S
C824 H820 0.929 . S
C824 C826 1.378 . S
C824 C828 1.350 . S
C825 C828 1.463 . S
C825 C830 1.350 . S
C825 N833 1.427 . S
C826 H817 0.930 . S
C826 C824 1.378 . S
C826 C827 1.367 . S
C827 C826 1.367 . S
C827 C829 1.433 . S
C828 C824 1.350 . S
C828 C825 1.463 . S
C828 N832 1.427 . S
C829 H819 0.929 . S
C829 C827 1.433 . S
C829 N832 1.384 . S
C830 H821 0.929 . S
C830 C822 1.378 . S
C830 C825 1.350 . S
C831 H818 0.929 . S
C831 C823 1.433 . S
C831 N833 1.384 . S
N832 C828 1.427 . S
N832 C829 1.384 . S
N833 C825 1.427 . S
N833 C831 1.384 . S
H834 C840 0.930 . S
H835 C844 0.930 . S
H836 C849 0.929 . S
H837 C847 0.929 . S
H838 C842 0.929 . S
H839 C848 0.929 . S
C840 H834 0.930 . S
C840 C841 1.367 . S
C840 C848 1.378 . S
C841 C840 1.367 . S
C841 C849 1.433 . S
C842 H838 0.929 . S
C842 C844 1.378 . S
C842 C846 1.350 . S
C843 C846 1.463 . S
C843 C848 1.350 . S
C843 N851 1.427 . S
C844 H835 0.930 . S
C844 C842 1.378 . S
C844 C845 1.367 . S
C845 C844 1.367 . S
C845 C847 1.433 . S
C846 C842 1.350 . S
C846 C843 1.463 . S
C846 N850 1.427 . S
C847 H837 0.929 . S
C847 C845 1.433 . S
C847 N850 1.384 . S
C848 H839 0.929 . S
C848 C840 1.378 . S
C848 C843 1.350 . S
C849 H836 0.929 . S
C849 C841 1.433 . S
C849 N851 1.384 . S
N850 C846 1.427 . S
N850 C847 1.384 . S
N851 C843 1.427 . S
N851 C849 1.384 . S
H852 C858 0.930 . S
H853 C862 0.930 . S
H854 C867 0.929 . S
H855 C865 0.929 . S
H856 C860 0.929 . S
H857 C866 0.929 . S
C858 H852 0.930 . S
C858 C859 1.367 . S
C858 C866 1.378 . S
C859 C858 1.367 . S
C859 C867 1.433 . S
C860 H856 0.929 . S
C860 C862 1.378 . S
C860 C864 1.350 . S
C861 C864 1.463 . S
C861 C866 1.350 . S
C861 N869 1.427 . S
C862 H853 0.930 . S
C862 C860 1.378 . S
C862 C863 1.367 . S
C863 C862 1.367 . S
C863 C865 1.433 . S
C864 C860 1.350 . S
C864 C861 1.463 . S
C864 N868 1.427 . S
C865 H855 0.929 . S
C865 C863 1.433 . S
C865 N868 1.384 . S
C866 H857 0.929 . S
C866 C858 1.378 . S
C866 C861 1.350 . S
C867 H854 0.929 . S
C867 C859 1.433 . S
C867 N869 1.384 . S
N868 C864 1.427 . S
N868 C865 1.384 . S
N869 C861 1.427 . S
N869 C867 1.384 . S
H870 C876 0.930 . S
H871 C880 0.930 . S
H872 C885 0.929 . S
H873 C883 0.929 . S
H874 C878 0.929 . S
H875 C884 0.929 . S
C876 H870 0.930 . S
C876 C877 1.367 . S
C876 C884 1.378 . S
C877 C876 1.367 . S
C877 C885 1.433 . S
C878 H874 0.929 . S
C878 C880 1.378 . S
C878 C882 1.350 . S
C879 C882 1.463 . S
C879 C884 1.350 . S
C879 N887 1.427 . S
C880 H871 0.930 . S
C880 C878 1.378 . S
C880 C881 1.367 . S
C881 C880 1.367 . S
C881 C883 1.433 . S
C882 C878 1.350 . S
C882 C879 1.463 . S
C882 N886 1.427 . S
C883 H873 0.929 . S
C883 C881 1.433 . S
C883 N886 1.384 . S
C884 H875 0.929 . S
C884 C876 1.378 . S
C884 C879 1.350 . S
C885 H872 0.929 . S
C885 C877 1.433 . S
C885 N887 1.384 . S
N886 C882 1.427 . S
N886 C883 1.384 . S
N887 C879 1.427 . S
N887 C885 1.384 . S
H888 C894 0.930 . S
H889 C898 0.930 . S
H890 C903 0.929 . S
H891 C901 0.929 . S
H892 C896 0.929 . S
H893 C902 0.929 . S
C894 H888 0.930 . S
C894 C895 1.367 . S
C894 C902 1.378 . S
C895 C894 1.367 . S
C895 C903 1.433 . S
C896 H892 0.929 . S
C896 C898 1.378 . S
C896 C900 1.350 . S
C897 C900 1.463 . S
C897 C902 1.350 . S
C897 N905 1.427 . S
C898 H889 0.930 . S
C898 C896 1.378 . S
C898 C899 1.367 . S
C899 C898 1.367 . S
C899 C901 1.433 . S
C900 C896 1.350 . S
C900 C897 1.463 . S
C900 N904 1.427 . S
C901 H891 0.929 . S
C901 C899 1.433 . S
C901 N904 1.384 . S
C902 H893 0.929 . S
C902 C894 1.378 . S
C902 C897 1.350 . S
C903 H890 0.929 . S
C903 C895 1.433 . S
C903 N905 1.384 . S
N904 C900 1.427 . S
N904 C901 1.384 . S
N905 C897 1.427 . S
N905 C903 1.384 . S
H906 C912 0.930 . S
H907 C916 0.930 . S
H908 C921 0.929 . S
H909 C919 0.929 . S
H910 C914 0.929 . S
H911 C920 0.929 . S
C912 H906 0.930 . S
C912 C913 1.367 . S
C912 C920 1.378 . S
C913 C912 1.367 . S
C913 C921 1.433 . S
C914 H910 0.929 . S
C914 C916 1.378 . S
C914 C918 1.350 . S
C915 C918 1.463 . S
C915 C920 1.350 . S
C915 N923 1.427 . S
C916 H907 0.930 . S
C916 C914 1.378 . S
C916 C917 1.367 . S
C917 C916 1.367 . S
C917 C919 1.433 . S
C918 C914 1.350 . S
C918 C915 1.463 . S
C918 N922 1.427 . S
C919 H909 0.929 . S
C919 C917 1.433 . S
C919 N922 1.384 . S
C920 H911 0.929 . S
C920 C912 1.378 . S
C920 C915 1.350 . S
C921 H908 0.929 . S
C921 C913 1.433 . S
C921 N923 1.384 . S
N922 C918 1.427 . S
N922 C919 1.384 . S
N923 C915 1.427 . S
N923 C921 1.384 . S
H924 C930 0.930 . S
H925 C934 0.930 . S
H926 C939 0.929 . S
H927 C937 0.929 . S
H928 C932 0.929 . S
H929 C938 0.929 . S
C930 H924 0.930 . S
C930 C931 1.367 . S
C930 C938 1.378 . S
C931 C930 1.367 . S
C931 C939 1.433 . S
C932 H928 0.929 . S
C932 C934 1.378 . S
C932 C936 1.350 . S
C933 C936 1.463 . S
C933 C938 1.350 . S
C933 N941 1.427 . S
C934 H925 0.930 . S
C934 C932 1.378 . S
C934 C935 1.367 . S
C935 C934 1.367 . S
C935 C937 1.433 . S
C936 C932 1.350 . S
C936 C933 1.463 . S
C936 N940 1.427 . S
C937 H927 0.929 . S
C937 C935 1.433 . S
C937 N940 1.384 . S
C938 H929 0.929 . S
C938 C930 1.378 . S
C938 C933 1.350 . S
C939 H926 0.929 . S
C939 C931 1.433 . S
C939 N941 1.384 . S
N940 C936 1.427 . S
N940 C937 1.384 . S
N941 C933 1.427 . S
N941 C939 1.384 . S
H942 C948 0.930 . S
H943 C952 0.930 . S
H944 C957 0.929 . S
H945 C955 0.929 . S
H946 C950 0.929 . S
H947 C956 0.929 . S
C948 H942 0.930 . S
C948 C949 1.367 . S
C948 C956 1.378 . S
C949 C948 1.367 . S
C949 C957 1.433 . S
C950 H946 0.929 . S
C950 C952 1.378 . S
C950 C954 1.350 . S
C951 C954 1.463 . S
C951 C956 1.350 . S
C951 N959 1.427 . S
C952 H943 0.930 . S
C952 C950 1.378 . S
C952 C953 1.367 . S
C953 C952 1.367 . S
C953 C955 1.433 . S
C954 C950 1.350 . S
C954 C951 1.463 . S
C954 N958 1.427 . S
C955 H945 0.929 . S
C955 C953 1.433 . S
C955 N958 1.384 . S
C956 H947 0.929 . S
C956 C948 1.378 . S
C956 C951 1.350 . S
C957 H944 0.929 . S
C957 C949 1.433 . S
C957 N959 1.384 . S
N958 C954 1.427 . S
N958 C955 1.384 . S
N959 C951 1.427 . S
N959 C957 1.384 . S
H960 C966 0.930 . S
H961 C970 0.930 . S
H962 C975 0.929 . S
H963 C973 0.929 . S
H964 C968 0.929 . S
H965 C974 0.929 . S
C966 H960 0.930 . S
C966 C967 1.367 . S
C966 C974 1.378 . S
C967 C966 1.367 . S
C967 C975 1.433 . S
C968 H964 0.929 . S
C968 C970 1.378 . S
C968 C972 1.350 . S
C969 C972 1.463 . S
C969 C974 1.350 . S
C969 N977 1.427 . S
C970 H961 0.930 . S
C970 C968 1.378 . S
C970 C971 1.367 . S
C971 C970 1.367 . S
C971 C973 1.433 . S
C972 C968 1.350 . S
C972 C969 1.463 . S
C972 N976 1.427 . S
C973 H963 0.929 . S
C973 C971 1.433 . S
C973 N976 1.384 . S
C974 H965 0.929 . S
C974 C966 1.378 . S
C974 C969 1.350 . S
C975 H962 0.929 . S
C975 C967 1.433 . S
C975 N977 1.384 . S
N976 C972 1.427 . S
N976 C973 1.384 . S
N977 C969 1.427 . S
N977 C975 1.384 . S
H978 C984 0.930 . S
H979 C988 0.930 . S
H980 C993 0.929 . S
H981 C991 0.929 . S
H982 C986 0.929 . S
H983 C992 0.929 . S
C984 H978 0.930 . S
C984 C985 1.367 . S
C984 C992 1.378 . S
C985 C984 1.367 . S
C985 C993 1.433 . S
C986 H982 0.929 . S
C986 C988 1.378 . S
C986 C990 1.350 . S
C987 C990 1.463 . S
C987 C992 1.350 . S
C987 N995 1.427 . S
C988 H979 0.930 . S
C988 C986 1.378 . S
C988 C989 1.367 . S
C989 C988 1.367 . S
C989 C991 1.433 . S
C990 C986 1.350 . S
C990 C987 1.463 . S
C990 N994 1.427 . S
C991 H981 0.929 . S
C991 C989 1.433 . S
C991 N994 1.384 . S
C992 H983 0.929 . S
C992 C984 1.378 . S
C992 C987 1.350 . S
C993 H980 0.929 . S
C993 C985 1.433 . S
C993 N995 1.384 . S
N994 C990 1.427 . S
N994 C991 1.384 . S
N995 C987 1.427 . S
N995 C993 1.384 . S
H996 C1002 0.930 . S
H997 C1006 0.930 . S
H998 C1011 0.929 . S
H999 C1009 0.929 . S
H1000 C1004 0.929 . S
H1001 C1010 0.929 . S
C1002 H996 0.930 . S
C1002 C1003 1.367 . S
C1002 C1010 1.378 . S
C1003 C1002 1.367 . S
C1003 C1011 1.433 . S
C1004 H1000 0.929 . S
C1004 C1006 1.378 . S
C1004 C1008 1.350 . S
C1005 C1008 1.463 . S
C1005 C1010 1.350 . S
C1005 N1013 1.427 . S
C1006 H997 0.930 . S
C1006 C1004 1.378 . S
C1006 C1007 1.367 . S
C1007 C1006 1.367 . S
C1007 C1009 1.433 . S
C1008 C1004 1.350 . S
C1008 C1005 1.463 . S
C1008 N1012 1.427 . S
C1009 H999 0.929 . S
C1009 C1007 1.433 . S
C1009 N1012 1.384 . S
C1010 H1001 0.929 . S
C1010 C1002 1.378 . S
C1010 C1005 1.350 . S
C1011 H998 0.929 . S
C1011 C1003 1.433 . S
C1011 N1013 1.384 . S
N1012 C1008 1.427 . S
N1012 C1009 1.384 . S
N1013 C1005 1.427 . S
N1013 C1011 1.384 . S
H1014 C1020 0.930 . S
H1015 C1024 0.930 . S
H1016 C1029 0.929 . S
H1017 C1027 0.929 . S
H1018 C1022 0.929 . S
H1019 C1028 0.929 . S
C1020 H1014 0.930 . S
C1020 C1021 1.367 . S
C1020 C1028 1.378 . S
C1021 C1020 1.367 . S
C1021 C1029 1.433 . S
C1022 H1018 0.929 . S
C1022 C1024 1.378 . S
C1022 C1026 1.350 . S
C1023 C1026 1.463 . S
C1023 C1028 1.350 . S
C1023 N1031 1.427 . S
C1024 H1015 0.930 . S
C1024 C1022 1.378 . S
C1024 C1025 1.367 . S
C1025 C1024 1.367 . S
C1025 C1027 1.433 . S
C1026 C1022 1.350 . S
C1026 C1023 1.463 . S
C1026 N1030 1.427 . S
C1027 H1017 0.929 . S
C1027 C1025 1.433 . S
C1027 N1030 1.384 . S
C1028 H1019 0.929 . S
C1028 C1020 1.378 . S
C1028 C1023 1.350 . S
C1029 H1016 0.929 . S
C1029 C1021 1.433 . S
C1029 N1031 1.384 . S
N1030 C1026 1.427 . S
N1030 C1027 1.384 . S
N1031 C1023 1.427 . S
N1031 C1029 1.384 . S
H1032 C1038 0.930 . S
H1033 C1042 0.930 . S
H1034 C1047 0.929 . S
H1035 C1045 0.929 . S
H1036 C1040 0.939 . S
H1037 C1046 0.929 . S
C1038 H1032 0.930 . S
C1038 C1039 1.367 . S
C1038 C1046 1.378 . S
C1039 C1038 1.367 . S
C1039 C1047 1.433 . S
C1040 H1036 0.939 . S
C1040 C1042 1.378 . S
C1040 C1044 1.350 1_545 S
C1041 C1044 1.463 . S
C1041 C1046 1.350 . S
C1041 N1049 1.427 . S
C1042 H1033 0.930 . S
C1042 C1040 1.378 . S
C1042 C1043 1.367 . S
C1043 C1042 1.367 . S
C1043 C1045 1.433 . S
C1044 C1040 1.350 1_565 S
C1044 C1041 1.463 . S
C1044 N1048 1.427 1_565 S
C1045 H1035 0.929 . S
C1045 C1043 1.433 . S
C1045 N1048 1.384 . S
C1046 H1037 0.929 . S
C1046 C1038 1.378 . S
C1046 C1041 1.350 . S
C1047 H1034 0.929 . S
C1047 C1039 1.433 . S
C1047 N1049 1.384 . S
N1048 C1044 1.427 1_545 S
N1048 C1045 1.384 . S
N1049 C1041 1.427 . S
N1049 C1047 1.384 . S
H1050 C1056 0.930 . S
H1051 C1060 0.930 . S
H1052 C1065 0.929 . S
H1053 C1063 0.929 . S
H1054 C1058 0.929 . S
H1055 C1064 0.929 1_455 S
C1056 H1050 0.930 . S
C1056 C1057 1.367 . S
C1056 C1064 1.378 . S
C1057 C1056 1.367 . S
C1057 C1065 1.433 . S
C1058 H1054 0.929 . S
C1058 C1060 1.378 . S
C1058 C1062 1.350 . S
C1059 C1062 1.463 . S
C1059 C1064 1.350 1_455 S
C1059 N1067 1.427 1_455 S
C1060 H1051 0.930 . S
C1060 C1058 1.378 . S
C1060 C1061 1.367 . S
C1061 C1060 1.367 . S
C1061 C1063 1.433 . S
C1062 C1058 1.350 . S
C1062 C1059 1.463 . S
C1062 N1066 1.427 . S
C1063 H1053 0.929 . S
C1063 C1061 1.433 . S
C1063 N1066 1.384 . S
C1064 H1055 0.929 1_655 S
C1064 C1056 1.378 . S
C1064 C1059 1.350 1_655 S
C1065 H1052 0.929 . S
C1065 C1057 1.433 . S
C1065 N1067 1.384 . S
N1066 C1062 1.427 . S
N1066 C1063 1.384 . S
N1067 C1059 1.427 1_655 S
N1067 C1065 1.384 . S
H1068 C1074 0.930 . S
H1069 C1078 0.930 . S
H1070 C1083 0.929 . S
H1071 C1081 0.929 . S
H1072 C1076 0.929 . S
H1073 C1082 0.923 1_545 S
C1074 H1068 0.930 . S
C1074 C1075 1.367 . S
C1074 C1082 1.378 . S
C1075 C1074 1.367 . S
C1075 C1083 1.433 . S
C1076 H1072 0.929 . S
C1076 C1078 1.378 . S
C1076 C1080 1.350 . S
C1077 C1080 1.463 . S
C1077 C1082 1.350 1_545 S
C1077 N1085 1.427 1_545 S
C1078 H1069 0.930 . S
C1078 C1076 1.378 . S
C1078 C1079 1.367 . S
C1079 C1078 1.367 . S
C1079 C1081 1.433 . S
C1080 C1076 1.350 . S
C1080 C1077 1.463 . S
C1080 N1084 1.427 . S
C1081 H1071 0.929 . S
C1081 C1079 1.433 . S
C1081 N1084 1.384 . S
C1082 H1073 0.923 1_565 S
C1082 C1074 1.378 . S
C1082 C1077 1.350 1_565 S
C1083 H1070 0.929 . S
C1083 C1075 1.433 . S
C1083 N1085 1.384 . S
N1084 C1080 1.427 . S
N1084 C1081 1.384 . S
N1085 C1077 1.427 1_565 S
N1085 C1083 1.384 . S
H1086 C1092 0.930 . S
H1087 C1096 0.930 . S
H1088 C1101 0.929 . S
H1089 C1099 0.929 . S
H1090 C1094 0.929 1_655 S
H1091 C1100 0.929 . S
C1092 H1086 0.930 . S
C1092 C1093 1.367 . S
C1092 C1100 1.378 . S
C1093 C1092 1.367 . S
C1093 C1101 1.433 . S
C1094 H1090 0.929 1_455 S
C1094 C1096 1.378 . S
C1094 C1098 1.350 1_455 S
C1095 C1098 1.463 . S
C1095 C1100 1.350 . S
C1095 N1103 1.427 . S
C1096 H1087 0.930 . S
C1096 C1094 1.378 . S
C1096 C1097 1.367 . S
C1097 C1096 1.367 . S
C1097 C1099 1.433 . S
C1098 C1094 1.350 1_655 S
C1098 C1095 1.463 . S
C1098 N1102 1.427 1_655 S
C1099 H1089 0.929 . S
C1099 C1097 1.433 . S
C1099 N1102 1.384 . S
C1100 H1091 0.929 . S
C1100 C1092 1.378 . S
C1100 C1095 1.350 . S
C1101 H1088 0.929 . S
C1101 C1093 1.433 . S
C1101 N1103 1.384 . S
N1102 C1098 1.427 1_455 S
N1102 C1099 1.384 . S
N1103 C1095 1.427 . S
N1103 C1101 1.384 . S
H1104 C1110 0.930 . S
H1105 C1114 0.930 . S
H1106 C1119 0.929 . S
H1107 C1117 0.929 . S
H1108 C1112 0.929 1_545 S
H1109 C1118 0.929 . S
C1110 H1104 0.930 . S
C1110 C1111 1.367 . S
C1110 C1118 1.378 . S
C1111 C1110 1.367 . S
C1111 C1119 1.433 . S
C1112 H1108 0.929 1_565 S
C1112 C1114 1.378 . S
C1112 C1116 1.350 1_565 S
C1113 C1116 1.463 . S
C1113 C1118 1.350 . S
C1113 N1121 1.427 . S
C1114 H1105 0.930 . S
C1114 C1112 1.378 . S
C1114 C1115 1.367 . S
C1115 C1114 1.367 . S
C1115 C1117 1.433 . S
C1116 C1112 1.350 1_545 S
C1116 C1113 1.463 . S
C1116 N1120 1.427 1_545 S
C1117 H1107 0.929 . S
C1117 C1115 1.433 . S
C1117 N1120 1.384 . S
C1118 H1109 0.929 . S
C1118 C1110 1.378 . S
C1118 C1113 1.350 . S
C1119 H1106 0.929 . S
C1119 C1111 1.433 . S
C1119 N1121 1.384 . S
N1120 C1116 1.427 1_565 S
N1120 C1117 1.384 . S
N1121 C1113 1.427 . S
N1121 C1119 1.384 . S
H1122 C1128 0.930 . S
H1123 C1132 0.930 . S
H1124 C1137 0.929 . S
H1125 C1135 0.929 . S
H1126 C1130 0.929 . S
H1127 C1136 0.917 1_655 S
C1128 H1122 0.930 . S
C1128 C1129 1.367 . S
C1128 C1136 1.378 . S
C1129 C1128 1.367 . S
C1129 C1137 1.433 . S
C1130 H1126 0.929 . S
C1130 C1132 1.378 . S
C1130 C1134 1.350 . S
C1131 C1134 1.463 . S
C1131 C1136 1.350 1_655 S
C1131 N1139 1.427 1_655 S
C1132 H1123 0.930 . S
C1132 C1130 1.378 . S
C1132 C1133 1.367 . S
C1133 C1132 1.367 . S
C1133 C1135 1.433 . S
C1134 C1130 1.350 . S
C1134 C1131 1.463 . S
C1134 N1138 1.427 . S
C1135 H1125 0.929 . S
C1135 C1133 1.433 . S
C1135 N1138 1.384 . S
C1136 H1127 0.917 1_455 S
C1136 C1128 1.378 . S
C1136 C1131 1.350 1_455 S
C1137 H1124 0.929 . S
C1137 C1129 1.433 . S
C1137 N1139 1.384 . S
N1138 C1134 1.427 . S
N1138 C1135 1.384 . S
N1139 C1131 1.427 1_455 S
N1139 C1137 1.384 . S
H1140 C1146 0.930 . S
H1141 C1150 0.930 . S
H1142 C1155 0.929 . S
H1143 C1153 0.929 . S
H1144 C1148 0.929 1_565 S
H1145 C1154 0.929 . S
C1146 H1140 0.930 . S
C1146 C1147 1.367 . S
C1146 C1154 1.378 . S
C1147 C1146 1.367 . S
C1147 C1155 1.433 . S
C1148 H1144 0.929 1_545 S
C1148 C1150 1.378 . S
C1148 C1152 1.350 1_545 S
C1149 C1152 1.463 . S
C1149 C1154 1.350 . S
C1149 N1157 1.427 . S
C1150 H1141 0.930 . S
C1150 C1148 1.378 . S
C1150 C1151 1.367 . S
C1151 C1150 1.367 . S
C1151 C1153 1.433 . S
C1152 C1148 1.350 1_565 S
C1152 C1149 1.463 . S
C1152 N1156 1.427 1_565 S
C1153 H1143 0.929 . S
C1153 C1151 1.433 . S
C1153 N1156 1.384 . S
C1154 H1145 0.929 . S
C1154 C1146 1.378 . S
C1154 C1149 1.350 . S
C1155 H1142 0.929 . S
C1155 C1147 1.433 . S
C1155 N1157 1.384 . S
N1156 C1152 1.427 1_545 S
N1156 C1153 1.384 . S
N1157 C1149 1.427 . S
N1157 C1155 1.384 . S
H1158 C1164 0.930 . S
H1159 C1168 0.930 . S
H1160 C1173 0.929 . S
H1161 C1171 0.929 . S
H1162 C1166 0.909 1_455 S
H1163 C1172 0.929 . S
C1164 H1158 0.930 . S
C1164 C1165 1.367 . S
C1164 C1172 1.378 . S
C1165 C1164 1.367 . S
C1165 C1173 1.433 . S
C1166 H1162 0.909 1_655 S
C1166 C1168 1.378 . S
C1166 C1170 1.350 1_655 S
C1167 C1170 1.463 . S
C1167 C1172 1.350 . S
C1167 N1175 1.427 . S
C1168 H1159 0.930 . S
C1168 C1166 1.378 . S
C1168 C1169 1.367 . S
C1169 C1168 1.367 . S
C1169 C1171 1.433 . S
C1170 C1166 1.350 1_455 S
C1170 C1167 1.463 . S
C1170 N1174 1.427 1_455 S
C1171 H1161 0.929 . S
C1171 C1169 1.433 . S
C1171 N1174 1.384 . S
C1172 H1163 0.929 . S
C1172 C1164 1.378 . S
C1172 C1167 1.350 . S
C1173 H1160 0.929 . S
C1173 C1165 1.433 . S
C1173 N1175 1.384 . S
N1174 C1170 1.427 1_655 S
N1174 C1171 1.384 . S
N1175 C1167 1.427 . S
N1175 C1173 1.384 . S
H1176 C1182 0.930 . S
H1177 C1186 0.930 . S
H1178 C1191 0.929 . S
H1179 C1189 0.929 . S
H1180 C1184 0.929 1_556 S
H1181 C1190 0.929 . S
C1182 H1176 0.930 . S
C1182 C1183 1.367 . S
C1182 C1190 1.378 . S
C1183 C1182 1.367 . S
C1183 C1191 1.433 . S
C1184 H1180 0.929 1_554 S
C1184 C1186 1.378 . S
C1184 C1188 1.350 1_554 S
C1185 C1188 1.463 . S
C1185 C1190 1.350 . S
C1185 N1193 1.427 . S
C1186 H1177 0.930 . S
C1186 C1184 1.378 . S
C1186 C1187 1.367 . S
C1187 C1186 1.367 . S
C1187 C1189 1.433 . S
C1188 C1184 1.350 1_556 S
C1188 C1185 1.463 . S
C1188 N1192 1.427 1_556 S
C1189 H1179 0.929 . S
C1189 C1187 1.433 . S
C1189 N1192 1.384 . S
C1190 H1181 0.929 . S
C1190 C1182 1.378 . S
C1190 C1185 1.350 . S
C1191 H1178 0.929 . S
C1191 C1183 1.433 . S
C1191 N1193 1.384 . S
N1192 C1188 1.427 1_554 S
N1192 C1189 1.384 . S
N1193 C1185 1.427 . S
N1193 C1191 1.384 . S
H1194 C1200 0.930 . S
H1195 C1204 0.930 . S
H1196 C1209 0.929 . S
H1197 C1207 0.929 . S
H1198 C1202 0.929 . S
H1199 C1208 0.929 1_556 S
C1200 H1194 0.930 . S
C1200 C1201 1.367 . S
C1200 C1208 1.378 . S
C1201 C1200 1.367 . S
C1201 C1209 1.433 . S
C1202 H1198 0.929 . S
C1202 C1204 1.378 . S
C1202 C1206 1.350 . S
C1203 C1206 1.463 . S
C1203 C1208 1.350 1_556 S
C1203 N1211 1.427 1_556 S
C1204 H1195 0.930 . S
C1204 C1202 1.378 . S
C1204 C1205 1.367 . S
C1205 C1204 1.367 . S
C1205 C1207 1.433 . S
C1206 C1202 1.350 . S
C1206 C1203 1.463 . S
C1206 N1210 1.427 . S
C1207 H1197 0.929 . S
C1207 C1205 1.433 . S
C1207 N1210 1.384 . S
C1208 H1199 0.929 1_554 S
C1208 C1200 1.378 . S
C1208 C1203 1.350 1_554 S
C1209 H1196 0.929 . S
C1209 C1201 1.433 . S
C1209 N1211 1.384 . S
N1210 C1206 1.427 . S
N1210 C1207 1.384 . S
N1211 C1203 1.427 1_554 S
N1211 C1209 1.384 . S
H1212 C1218 0.930 . S
H1213 C1222 0.930 . S
H1214 C1227 0.929 . S
H1215 C1225 0.929 . S
H1216 C1220 0.929 1_556 S
H1217 C1226 0.929 . S
C1218 H1212 0.930 . S
C1218 C1219 1.367 . S
C1218 C1226 1.378 . S
C1219 C1218 1.367 . S
C1219 C1227 1.433 . S
C1220 H1216 0.929 1_554 S
C1220 C1222 1.378 . S
C1220 C1224 1.350 1_554 S
C1221 C1224 1.463 . S
C1221 C1226 1.350 . S
C1221 N1229 1.427 . S
C1222 H1213 0.930 . S
C1222 C1220 1.378 . S
C1222 C1223 1.367 . S
C1223 C1222 1.367 . S
C1223 C1225 1.433 . S
C1224 C1220 1.350 1_556 S
C1224 C1221 1.463 . S
C1224 N1228 1.427 1_556 S
C1225 H1215 0.929 . S
C1225 C1223 1.433 . S
C1225 N1228 1.384 . S
C1226 H1217 0.929 . S
C1226 C1218 1.378 . S
C1226 C1221 1.350 . S
C1227 H1214 0.929 . S
C1227 C1219 1.433 . S
C1227 N1229 1.384 . S
N1228 C1224 1.427 1_554 S
N1228 C1225 1.384 . S
N1229 C1221 1.427 . S
N1229 C1227 1.384 . S
H1230 C1236 0.930 . S
H1231 C1240 0.930 . S
H1232 C1245 0.929 . S
H1233 C1243 0.929 . S
H1234 C1238 0.929 . S
H1235 C1244 0.929 1_556 S
C1236 H1230 0.930 . S
C1236 C1237 1.367 . S
C1236 C1244 1.378 . S
C1237 C1236 1.367 . S
C1237 C1245 1.433 . S
C1238 H1234 0.929 . S
C1238 C1240 1.378 . S
C1238 C1242 1.350 . S
C1239 C1242 1.463 . S
C1239 C1244 1.350 1_556 S
C1239 N1247 1.427 1_556 S
C1240 H1231 0.930 . S
C1240 C1238 1.378 . S
C1240 C1241 1.367 . S
C1241 C1240 1.367 . S
C1241 C1243 1.433 . S
C1242 C1238 1.350 . S
C1242 C1239 1.463 . S
C1242 N1246 1.427 . S
C1243 H1233 0.929 . S
C1243 C1241 1.433 . S
C1243 N1246 1.384 . S
C1244 H1235 0.929 1_554 S
C1244 C1236 1.378 . S
C1244 C1239 1.350 1_554 S
C1245 H1232 0.929 . S
C1245 C1237 1.433 . S
C1245 N1247 1.384 . S
N1246 C1242 1.427 . S
N1246 C1243 1.384 . S
N1247 C1239 1.427 1_554 S
N1247 C1245 1.384 . S
H1248 C1254 0.930 . S
H1249 C1258 0.930 . S
H1250 C1263 0.929 . S
H1251 C1261 0.929 . S
H1252 C1256 0.929 1_554 S
H1253 C1262 0.929 . S
C1254 H1248 0.930 . S
C1254 C1255 1.367 . S
C1254 C1262 1.378 . S
C1255 C1254 1.367 . S
C1255 C1263 1.433 . S
C1256 H1252 0.929 1_556 S
C1256 C1258 1.378 . S
C1256 C1260 1.350 1_556 S
C1257 C1260 1.463 . S
C1257 C1262 1.350 . S
C1257 N1265 1.427 . S
C1258 H1249 0.930 . S
C1258 C1256 1.378 . S
C1258 C1259 1.367 . S
C1259 C1258 1.367 . S
C1259 C1261 1.433 . S
C1260 C1256 1.350 1_554 S
C1260 C1257 1.463 . S
C1260 N1264 1.427 1_554 S
C1261 H1251 0.929 . S
C1261 C1259 1.433 . S
C1261 N1264 1.384 . S
C1262 H1253 0.929 . S
C1262 C1254 1.378 . S
C1262 C1257 1.350 . S
C1263 H1250 0.929 . S
C1263 C1255 1.433 . S
C1263 N1265 1.384 . S
N1264 C1260 1.427 1_556 S
N1264 C1261 1.384 . S
N1265 C1257 1.427 . S
N1265 C1263 1.384 . S
H1266 C1272 0.930 . S
H1267 C1276 0.930 . S
H1268 C1281 0.929 . S
H1269 C1279 0.929 . S
H1270 C1274 0.929 . S
H1271 C1280 0.929 1_554 S
C1272 H1266 0.930 . S
C1272 C1273 1.367 . S
C1272 C1280 1.378 . S
C1273 C1272 1.367 . S
C1273 C1281 1.433 . S
C1274 H1270 0.929 . S
C1274 C1276 1.378 . S
C1274 C1278 1.350 . S
C1275 C1278 1.463 . S
C1275 C1280 1.350 1_554 S
C1275 N1283 1.427 1_554 S
C1276 H1267 0.930 . S
C1276 C1274 1.378 . S
C1276 C1277 1.367 . S
C1277 C1276 1.367 . S
C1277 C1279 1.433 . S
C1278 C1274 1.350 . S
C1278 C1275 1.463 . S
C1278 N1282 1.427 . S
C1279 H1269 0.929 . S
C1279 C1277 1.433 . S
C1279 N1282 1.384 . S
C1280 H1271 0.929 1_556 S
C1280 C1272 1.378 . S
C1280 C1275 1.350 1_556 S
C1281 H1268 0.929 . S
C1281 C1273 1.433 . S
C1281 N1283 1.384 . S
N1282 C1278 1.427 . S
N1282 C1279 1.384 . S
N1283 C1275 1.427 1_556 S
N1283 C1281 1.384 . S
H1284 C1290 0.930 . S
H1285 C1294 0.930 . S
H1286 C1299 0.929 . S
H1287 C1297 0.929 . S
H1288 C1292 0.931 1_554 S
H1289 C1298 0.929 . S
C1290 H1284 0.930 . S
C1290 C1291 1.367 . S
C1290 C1298 1.378 . S
C1291 C1290 1.367 . S
C1291 C1299 1.433 . S
C1292 H1288 0.931 1_556 S
C1292 C1294 1.378 . S
C1292 C1296 1.350 1_556 S
C1293 C1296 1.463 . S
C1293 C1298 1.350 . S
C1293 N1301 1.427 . S
C1294 H1285 0.930 . S
C1294 C1292 1.378 . S
C1294 C1295 1.367 . S
C1295 C1294 1.367 . S
C1295 C1297 1.433 . S
C1296 C1292 1.350 1_554 S
C1296 C1293 1.463 . S
C1296 N1300 1.427 1_554 S
C1297 H1287 0.929 . S
C1297 C1295 1.433 . S
C1297 N1300 1.384 . S
C1298 H1289 0.929 . S
C1298 C1290 1.378 . S
C1298 C1293 1.350 . S
C1299 H1286 0.929 . S
C1299 C1291 1.433 . S
C1299 N1301 1.384 . S
N1300 C1296 1.427 1_556 S
N1300 C1297 1.384 . S
N1301 C1293 1.427 . S
N1301 C1299 1.384 . S
H1302 C1308 0.930 . S
H1303 C1312 0.930 . S
H1304 C1317 0.929 . S
H1305 C1315 0.929 . S
H1306 C1310 0.929 . S
H1307 C1316 0.929 1_554 S
C1308 H1302 0.930 . S
C1308 C1309 1.367 . S
C1308 C1316 1.378 . S
C1309 C1308 1.367 . S
C1309 C1317 1.433 . S
C1310 H1306 0.929 . S
C1310 C1312 1.378 . S
C1310 C1314 1.350 . S
C1311 C1314 1.463 . S
C1311 C1316 1.350 1_554 S
C1311 N1319 1.427 1_554 S
C1312 H1303 0.930 . S
C1312 C1310 1.378 . S
C1312 C1313 1.367 . S
C1313 C1312 1.367 . S
C1313 C1315 1.433 . S
C1314 C1310 1.350 . S
C1314 C1311 1.463 . S
C1314 N1318 1.427 . S
C1315 H1305 0.929 . S
C1315 C1313 1.433 . S
C1315 N1318 1.384 . S
C1316 H1307 0.929 1_556 S
C1316 C1308 1.378 . S
C1316 C1311 1.350 1_556 S
C1317 H1304 0.929 . S
C1317 C1309 1.433 . S
C1317 N1319 1.384 . S
N1318 C1314 1.427 . S
N1318 C1315 1.384 . S
N1319 C1311 1.427 1_556 S
N1319 C1317 1.384 . S
H1320 C1326 0.930 . S
H1321 C1330 0.930 . S
H1322 C1335 0.929 . S
H1323 C1333 0.929 . S
H1324 C1328 0.941 . S
H1325 C1334 0.929 . S
C1326 H1320 0.930 . S
C1326 C1327 1.367 . S
C1326 C1334 1.378 . S
C1327 C1326 1.367 . S
C1327 C1335 1.433 . S
C1328 H1324 0.941 . S
C1328 C1330 1.378 . S
C1328 C1332 1.350 1_455 S
C1329 C1332 1.463 . S
C1329 C1334 1.350 . S
C1329 N1337 1.427 . S
C1330 H1321 0.930 . S
C1330 C1328 1.378 . S
C1330 C1331 1.367 . S
C1331 C1330 1.367 . S
C1331 C1333 1.433 . S
C1332 C1328 1.350 1_655 S
C1332 C1329 1.463 . S
C1332 N1336 1.427 1_655 S
C1333 H1323 0.929 . S
C1333 C1331 1.433 . S
C1333 N1336 1.384 . S
C1334 H1325 0.929 . S
C1334 C1326 1.378 . S
C1334 C1329 1.350 . S
C1335 H1322 0.929 . S
C1335 C1327 1.433 . S
C1335 N1337 1.384 . S
N1336 C1332 1.427 1_455 S
N1336 C1333 1.384 . S
N1337 C1329 1.427 . S
N1337 C1335 1.384 . S
H1338 C1344 0.930 . S
H1339 C1348 0.930 . S
H1340 C1353 0.929 . S
H1341 C1351 0.929 . S
H1342 C1346 0.929 1_655 S
H1343 C1352 0.929 . S
C1344 H1338 0.930 . S
C1344 C1345 1.367 . S
C1344 C1352 1.378 . S
C1345 C1344 1.367 . S
C1345 C1353 1.433 . S
C1346 H1342 0.929 1_455 S
C1346 C1348 1.378 . S
C1346 C1350 1.350 1_455 S
C1347 C1350 1.463 . S
C1347 C1352 1.350 . S
C1347 N1355 1.427 . S
C1348 H1339 0.930 . S
C1348 C1346 1.378 . S
C1348 C1349 1.367 . S
C1349 C1348 1.367 . S
C1349 C1351 1.433 . S
C1350 C1346 1.350 1_655 S
C1350 C1347 1.463 . S
C1350 N1354 1.427 1_655 S
C1351 H1341 0.929 . S
C1351 C1349 1.433 . S
C1351 N1354 1.384 . S
C1352 H1343 0.929 . S
C1352 C1344 1.378 . S
C1352 C1347 1.350 . S
C1353 H1340 0.929 . S
C1353 C1345 1.433 . S
C1353 N1355 1.384 . S
N1354 C1350 1.427 1_455 S
N1354 C1351 1.384 . S
N1355 C1347 1.427 . S
N1355 C1353 1.384 . S
H1356 C1362 0.930 . S
H1357 C1366 0.930 . S
H1358 C1371 0.929 . S
H1359 C1369 0.929 . S
H1360 C1364 0.929 . S
H1361 C1370 0.929 1_565 S
C1362 H1356 0.930 . S
C1362 C1363 1.367 . S
C1362 C1370 1.378 . S
C1363 C1362 1.367 . S
C1363 C1371 1.433 . S
C1364 H1360 0.929 . S
C1364 C1366 1.378 . S
C1364 C1368 1.350 . S
C1365 C1368 1.463 . S
C1365 C1370 1.350 1_565 S
C1365 N1373 1.427 1_565 S
C1366 H1357 0.930 . S
C1366 C1364 1.378 . S
C1366 C1367 1.367 . S
C1367 C1366 1.367 . S
C1367 C1369 1.433 . S
C1368 C1364 1.350 . S
C1368 C1365 1.463 . S
C1368 N1372 1.427 . S
C1369 H1359 0.929 . S
C1369 C1367 1.433 . S
C1369 N1372 1.384 . S
C1370 H1361 0.929 1_545 S
C1370 C1362 1.378 . S
C1370 C1365 1.350 1_545 S
C1371 H1358 0.929 . S
C1371 C1363 1.433 . S
C1371 N1373 1.384 . S
N1372 C1368 1.427 . S
N1372 C1369 1.384 . S
N1373 C1365 1.427 1_545 S
N1373 C1371 1.384 . S
H1374 C1380 0.930 . S
H1375 C1384 0.930 . S
H1376 C1389 0.929 . S
H1377 C1387 0.929 . S
H1378 C1382 0.929 . S
H1379 C1388 0.910 1_455 S
C1380 H1374 0.930 . S
C1380 C1381 1.367 . S
C1380 C1388 1.378 . S
C1381 C1380 1.367 . S
C1381 C1389 1.433 . S
C1382 H1378 0.929 . S
C1382 C1384 1.378 . S
C1382 C1386 1.350 . S
C1383 C1386 1.463 . S
C1383 C1388 1.350 1_455 S
C1383 N1391 1.427 1_455 S
C1384 H1375 0.930 . S
C1384 C1382 1.378 . S
C1384 C1385 1.367 . S
C1385 C1384 1.367 . S
C1385 C1387 1.433 . S
C1386 C1382 1.350 . S
C1386 C1383 1.463 . S
C1386 N1390 1.427 . S
C1387 H1377 0.929 . S
C1387 C1385 1.433 . S
C1387 N1390 1.384 . S
C1388 H1379 0.910 1_655 S
C1388 C1380 1.378 . S
C1388 C1383 1.350 1_655 S
C1389 H1376 0.929 . S
C1389 C1381 1.433 . S
C1389 N1391 1.384 . S
N1390 C1386 1.427 . S
N1390 C1387 1.384 . S
N1391 C1383 1.427 1_655 S
N1391 C1389 1.384 . S
H1392 C1398 0.930 . S
H1393 C1402 0.930 . S
H1394 C1407 0.929 . S
H1395 C1405 0.929 . S
H1396 C1400 0.929 1_545 S
H1397 C1406 0.929 . S
C1398 H1392 0.930 . S
C1398 C1399 1.367 . S
C1398 C1406 1.378 . S
C1399 C1398 1.367 . S
C1399 C1407 1.433 . S
C1400 H1396 0.929 1_565 S
C1400 C1402 1.378 . S
C1400 C1404 1.350 1_565 S
C1401 C1404 1.463 . S
C1401 C1406 1.350 . S
C1401 N1409 1.427 . S
C1402 H1393 0.930 . S
C1402 C1400 1.378 . S
C1402 C1403 1.367 . S
C1403 C1402 1.367 . S
C1403 C1405 1.433 . S
C1404 C1400 1.350 1_545 S
C1404 C1401 1.463 . S
C1404 N1408 1.427 1_545 S
C1405 H1395 0.929 . S
C1405 C1403 1.433 . S
C1405 N1408 1.384 . S
C1406 H1397 0.929 . S
C1406 C1398 1.378 . S
C1406 C1401 1.350 . S
C1407 H1394 0.929 . S
C1407 C1399 1.433 . S
C1407 N1409 1.384 . S
N1408 C1404 1.427 1_565 S
N1408 C1405 1.384 . S
N1409 C1401 1.427 . S
N1409 C1407 1.384 . S
H1410 C1416 0.930 . S
H1411 C1420 0.930 . S
H1412 C1425 0.929 . S
H1413 C1423 0.929 . S
H1414 C1418 0.929 1_455 S
H1415 C1424 0.929 . S
C1416 H1410 0.930 . S
C1416 C1417 1.367 . S
C1416 C1424 1.378 . S
C1417 C1416 1.367 . S
C1417 C1425 1.433 . S
C1418 H1414 0.929 1_655 S
C1418 C1420 1.378 . S
C1418 C1422 1.350 1_655 S
C1419 C1422 1.463 . S
C1419 C1424 1.350 . S
C1419 N1427 1.427 . S
C1420 H1411 0.930 . S
C1420 C1418 1.378 . S
C1420 C1421 1.367 . S
C1421 C1420 1.367 . S
C1421 C1423 1.433 . S
C1422 C1418 1.350 1_455 S
C1422 C1419 1.463 . S
C1422 N1426 1.427 1_455 S
C1423 H1413 0.929 . S
C1423 C1421 1.433 . S
C1423 N1426 1.384 . S
C1424 H1415 0.929 . S
C1424 C1416 1.378 . S
C1424 C1419 1.350 . S
C1425 H1412 0.929 . S
C1425 C1417 1.433 . S
C1425 N1427 1.384 . S
N1426 C1422 1.427 1_655 S
N1426 C1423 1.384 . S
N1427 C1419 1.427 . S
N1427 C1425 1.384 . S
H1428 C1434 0.930 . S
H1429 C1438 0.930 . S
H1430 C1443 0.929 . S
H1431 C1441 0.929 . S
H1432 C1436 0.929 1_545 S
H1433 C1442 0.929 . S
C1434 H1428 0.930 . S
C1434 C1435 1.367 . S
C1434 C1442 1.378 . S
C1435 C1434 1.367 . S
C1435 C1443 1.433 . S
C1436 H1432 0.929 1_565 S
C1436 C1438 1.378 . S
C1436 C1440 1.350 1_565 S
C1437 C1440 1.463 . S
C1437 C1442 1.350 . S
C1437 N1445 1.427 . S
C1438 H1429 0.930 . S
C1438 C1436 1.378 . S
C1438 C1439 1.367 . S
C1439 C1438 1.367 . S
C1439 C1441 1.433 . S
C1440 C1436 1.350 1_545 S
C1440 C1437 1.463 . S
C1440 N1444 1.427 1_545 S
C1441 H1431 0.929 . S
C1441 C1439 1.433 . S
C1441 N1444 1.384 . S
C1442 H1433 0.929 . S
C1442 C1434 1.378 . S
C1442 C1437 1.350 . S
C1443 H1430 0.929 . S
C1443 C1435 1.433 . S
C1443 N1445 1.384 . S
N1444 C1440 1.427 1_565 S
N1444 C1441 1.384 . S
N1445 C1437 1.427 . S
N1445 C1443 1.384 . S
H1446 C1452 0.930 . S
H1447 C1456 0.930 . S
H1448 C1461 0.929 . S
H1449 C1459 0.929 . S
H1450 C1454 0.929 . S
H1451 C1460 0.930 . S
C1452 H1446 0.930 . S
C1452 C1453 1.367 . S
C1452 C1460 1.378 . S
C1453 C1452 1.367 . S
C1453 C1461 1.433 . S
C1454 H1450 0.929 . S
C1454 C1456 1.378 . S
C1454 C1458 1.350 . S
C1455 C1458 1.463 . S
C1455 C1460 1.350 1_565 S
C1455 N1463 1.427 1_565 S
C1456 H1447 0.930 . S
C1456 C1454 1.378 . S
C1456 C1457 1.367 . S
C1457 C1456 1.367 . S
C1457 C1459 1.433 . S
C1458 C1454 1.350 . S
C1458 C1455 1.463 . S
C1458 N1462 1.427 . S
C1459 H1449 0.929 . S
C1459 C1457 1.433 . S
C1459 N1462 1.384 . S
C1460 H1451 0.930 . S
C1460 C1452 1.378 . S
C1460 C1455 1.350 1_545 S
C1461 H1448 0.929 . S
C1461 C1453 1.433 . S
C1461 N1463 1.384 . S
N1462 C1458 1.427 . S
N1462 C1459 1.384 . S
N1463 C1455 1.427 1_545 S
N1463 C1461 1.384 . S
H1464 C1470 0.930 . S
H1465 C1474 0.930 . S
H1466 C1479 0.929 . S
H1467 C1477 0.929 . S
H1468 C1472 0.929 . S
H1469 C1478 0.929 . S
C1470 H1464 0.930 . S
C1470 C1471 1.367 . S
C1470 C1478 1.378 . S
C1471 C1470 1.367 . S
C1471 C1479 1.433 . S
C1472 H1468 0.929 . S
C1472 C1474 1.378 . S
C1472 C1476 1.350 . S
C1473 C1476 1.463 . S
C1473 C1478 1.350 . S
C1473 N1481 1.427 . S
C1474 H1465 0.930 . S
C1474 C1472 1.378 . S
C1474 C1475 1.367 . S
C1475 C1474 1.367 . S
C1475 C1477 1.433 . S
C1476 C1472 1.350 . S
C1476 C1473 1.463 . S
C1476 N1480 1.427 . S
C1477 H1467 0.929 . S
C1477 C1475 1.433 . S
C1477 N1480 1.384 . S
C1478 H1469 0.929 . S
C1478 C1470 1.378 . S
C1478 C1473 1.350 . S
C1479 H1466 0.929 . S
C1479 C1471 1.433 . S
C1479 N1481 1.384 . S
N1480 C1476 1.427 . S
N1480 C1477 1.384 . S
N1481 C1473 1.427 . S
N1481 C1479 1.384 . S
H1482 C1488 0.930 . S
H1483 C1492 0.930 . S
H1484 C1497 0.929 . S
H1485 C1495 0.929 . S
H1486 C1490 0.929 . S
H1487 C1496 0.929 . S
C1488 H1482 0.930 . S
C1488 C1489 1.367 . S
C1488 C1496 1.378 . S
C1489 C1488 1.367 . S
C1489 C1497 1.433 . S
C1490 H1486 0.929 . S
C1490 C1492 1.378 . S
C1490 C1494 1.350 . S
C1491 C1494 1.463 . S
C1491 C1496 1.350 . S
C1491 N1499 1.427 . S
C1492 H1483 0.930 . S
C1492 C1490 1.378 . S
C1492 C1493 1.367 . S
C1493 C1492 1.367 . S
C1493 C1495 1.433 . S
C1494 C1490 1.350 . S
C1494 C1491 1.463 . S
C1494 N1498 1.427 . S
C1495 H1485 0.929 . S
C1495 C1493 1.433 . S
C1495 N1498 1.384 . S
C1496 H1487 0.929 . S
C1496 C1488 1.378 . S
C1496 C1491 1.350 . S
C1497 H1484 0.929 . S
C1497 C1489 1.433 . S
C1497 N1499 1.384 . S
N1498 C1494 1.427 . S
N1498 C1495 1.384 . S
N1499 C1491 1.427 . S
N1499 C1497 1.384 . S
H1500 C1506 0.930 . S
H1501 C1510 0.930 . S
H1502 C1515 0.929 . S
H1503 C1513 0.929 . S
H1504 C1508 0.929 . S
H1505 C1514 0.929 . S
C1506 H1500 0.930 . S
C1506 C1507 1.367 . S
C1506 C1514 1.378 . S
C1507 C1506 1.367 . S
C1507 C1515 1.433 . S
C1508 H1504 0.929 . S
C1508 C1510 1.378 . S
C1508 C1512 1.350 . S
C1509 C1512 1.463 . S
C1509 C1514 1.350 . S
C1509 N1517 1.427 . S
C1510 H1501 0.930 . S
C1510 C1508 1.378 . S
C1510 C1511 1.367 . S
C1511 C1510 1.367 . S
C1511 C1513 1.433 . S
C1512 C1508 1.350 . S
C1512 C1509 1.463 . S
C1512 N1516 1.427 . S
C1513 H1503 0.929 . S
C1513 C1511 1.433 . S
C1513 N1516 1.384 . S
C1514 H1505 0.929 . S
C1514 C1506 1.378 . S
C1514 C1509 1.350 . S
C1515 H1502 0.929 . S
C1515 C1507 1.433 . S
C1515 N1517 1.384 . S
N1516 C1512 1.427 . S
N1516 C1513 1.384 . S
N1517 C1509 1.427 . S
N1517 C1515 1.384 . S
H1518 C1524 0.930 . S
H1519 C1528 0.930 . S
H1520 C1533 0.929 . S
H1521 C1531 0.929 . S
H1522 C1526 0.929 . S
H1523 C1532 0.929 . S
C1524 H1518 0.930 . S
C1524 C1525 1.367 . S
C1524 C1532 1.378 . S
C1525 C1524 1.367 . S
C1525 C1533 1.433 . S
C1526 H1522 0.929 . S
C1526 C1528 1.378 . S
C1526 C1530 1.350 . S
C1527 C1530 1.463 . S
C1527 C1532 1.350 . S
C1527 N1535 1.427 . S
C1528 H1519 0.930 . S
C1528 C1526 1.378 . S
C1528 C1529 1.367 . S
C1529 C1528 1.367 . S
C1529 C1531 1.433 . S
C1530 C1526 1.350 . S
C1530 C1527 1.463 . S
C1530 N1534 1.427 . S
C1531 H1521 0.929 . S
C1531 C1529 1.433 . S
C1531 N1534 1.384 . S
C1532 H1523 0.929 . S
C1532 C1524 1.378 . S
C1532 C1527 1.350 . S
C1533 H1520 0.929 . S
C1533 C1525 1.433 . S
C1533 N1535 1.384 . S
N1534 C1530 1.427 . S
N1534 C1531 1.384 . S
N1535 C1527 1.427 . S
N1535 C1533 1.384 . S
H1536 C1542 0.930 . S
H1537 C1546 0.930 . S
H1538 C1551 0.929 . S
H1539 C1549 0.929 . S
H1540 C1544 0.929 . S
H1541 C1550 0.929 . S
C1542 H1536 0.930 . S
C1542 C1543 1.367 . S
C1542 C1550 1.378 . S
C1543 C1542 1.367 . S
C1543 C1551 1.433 . S
C1544 H1540 0.929 . S
C1544 C1546 1.378 . S
C1544 C1548 1.350 . S
C1545 C1548 1.463 . S
C1545 C1550 1.350 . S
C1545 N1553 1.427 . S
C1546 H1537 0.930 . S
C1546 C1544 1.378 . S
C1546 C1547 1.367 . S
C1547 C1546 1.367 . S
C1547 C1549 1.433 . S
C1548 C1544 1.350 . S
C1548 C1545 1.463 . S
C1548 N1552 1.427 . S
C1549 H1539 0.929 . S
C1549 C1547 1.433 . S
C1549 N1552 1.384 . S
C1550 H1541 0.929 . S
C1550 C1542 1.378 . S
C1550 C1545 1.350 . S
C1551 H1538 0.929 . S
C1551 C1543 1.433 . S
C1551 N1553 1.384 . S
N1552 C1548 1.427 . S
N1552 C1549 1.384 . S
N1553 C1545 1.427 . S
N1553 C1551 1.384 . S
H1554 C1560 0.930 . S
H1555 C1564 0.930 . S
H1556 C1569 0.929 . S
H1557 C1567 0.929 . S
H1558 C1562 0.929 . S
H1559 C1568 0.929 . S
C1560 H1554 0.930 . S
C1560 C1561 1.367 . S
C1560 C1568 1.378 . S
C1561 C1560 1.367 . S
C1561 C1569 1.433 . S
C1562 H1558 0.929 . S
C1562 C1564 1.378 . S
C1562 C1566 1.350 . S
C1563 C1566 1.463 . S
C1563 C1568 1.350 . S
C1563 N1571 1.427 . S
C1564 H1555 0.930 . S
C1564 C1562 1.378 . S
C1564 C1565 1.367 . S
C1565 C1564 1.367 . S
C1565 C1567 1.433 . S
C1566 C1562 1.350 . S
C1566 C1563 1.463 . S
C1566 N1570 1.427 . S
C1567 H1557 0.929 . S
C1567 C1565 1.433 . S
C1567 N1570 1.384 . S
C1568 H1559 0.929 . S
C1568 C1560 1.378 . S
C1568 C1563 1.350 . S
C1569 H1556 0.929 . S
C1569 C1561 1.433 . S
C1569 N1571 1.384 . S
N1570 C1566 1.427 . S
N1570 C1567 1.384 . S
N1571 C1563 1.427 . S
N1571 C1569 1.384 . S
H1572 C1578 0.930 . S
H1573 C1582 0.930 . S
H1574 C1587 0.929 . S
H1575 C1585 0.929 . S
H1576 C1580 0.929 . S
H1577 C1586 0.929 . S
C1578 H1572 0.930 . S
C1578 C1579 1.367 . S
C1578 C1586 1.378 . S
C1579 C1578 1.367 . S
C1579 C1587 1.433 . S
C1580 H1576 0.929 . S
C1580 C1582 1.378 . S
C1580 C1584 1.350 . S
C1581 C1584 1.463 . S
C1581 C1586 1.350 . S
C1581 N1589 1.427 . S
C1582 H1573 0.930 . S
C1582 C1580 1.378 . S
C1582 C1583 1.367 . S
C1583 C1582 1.367 . S
C1583 C1585 1.433 . S
C1584 C1580 1.350 . S
C1584 C1581 1.463 . S
C1584 N1588 1.427 . S
C1585 H1575 0.929 . S
C1585 C1583 1.433 . S
C1585 N1588 1.384 . S
C1586 H1577 0.929 . S
C1586 C1578 1.378 . S
C1586 C1581 1.350 . S
C1587 H1574 0.929 . S
C1587 C1579 1.433 . S
C1587 N1589 1.384 . S
N1588 C1584 1.427 . S
N1588 C1585 1.384 . S
N1589 C1581 1.427 . S
N1589 C1587 1.384 . S
H1590 C1596 0.930 . S
H1591 C1600 0.930 . S
H1592 C1605 0.929 . S
H1593 C1603 0.929 . S
H1594 C1598 0.929 . S
H1595 C1604 0.929 . S
C1596 H1590 0.930 . S
C1596 C1597 1.367 . S
C1596 C1604 1.378 . S
C1597 C1596 1.367 . S
C1597 C1605 1.433 . S
C1598 H1594 0.929 . S
C1598 C1600 1.378 . S
C1598 C1602 1.350 . S
C1599 C1602 1.463 . S
C1599 C1604 1.350 . S
C1599 N1607 1.427 . S
C1600 H1591 0.930 . S
C1600 C1598 1.378 . S
C1600 C1601 1.367 . S
C1601 C1600 1.367 . S
C1601 C1603 1.433 . S
C1602 C1598 1.350 . S
C1602 C1599 1.463 . S
C1602 N1606 1.427 . S
C1603 H1593 0.929 . S
C1603 C1601 1.433 . S
C1603 N1606 1.384 . S
C1604 H1595 0.929 . S
C1604 C1596 1.378 . S
C1604 C1599 1.350 . S
C1605 H1592 0.929 . S
C1605 C1597 1.433 . S
C1605 N1607 1.384 . S
N1606 C1602 1.427 . S
N1606 C1603 1.384 . S
N1607 C1599 1.427 . S
N1607 C1605 1.384 . S
H1608 C1614 0.930 . S
H1609 C1618 0.930 . S
H1610 C1623 0.929 . S
H1611 C1621 0.929 . S
H1612 C1616 0.929 . S
H1613 C1622 0.929 . S
C1614 H1608 0.930 . S
C1614 C1615 1.367 . S
C1614 C1622 1.378 . S
C1615 C1614 1.367 . S
C1615 C1623 1.433 . S
C1616 H1612 0.929 . S
C1616 C1618 1.378 . S
C1616 C1620 1.350 . S
C1617 C1620 1.463 . S
C1617 C1622 1.350 . S
C1617 N1625 1.427 . S
C1618 H1609 0.930 . S
C1618 C1616 1.378 . S
C1618 C1619 1.367 . S
C1619 C1618 1.367 . S
C1619 C1621 1.433 . S
C1620 C1616 1.350 . S
C1620 C1617 1.463 . S
C1620 N1624 1.427 . S
C1621 H1611 0.929 . S
C1621 C1619 1.433 . S
C1621 N1624 1.384 . S
C1622 H1613 0.929 . S
C1622 C1614 1.378 . S
C1622 C1617 1.350 . S
C1623 H1610 0.929 . S
C1623 C1615 1.433 . S
C1623 N1625 1.384 . S
N1624 C1620 1.427 . S
N1624 C1621 1.384 . S
N1625 C1617 1.427 . S
N1625 C1623 1.384 . S
H1626 C1632 0.930 . S
H1627 C1636 0.930 . S
H1628 C1641 0.929 . S
H1629 C1639 0.929 . S
H1630 C1634 0.929 . S
H1631 C1640 0.929 . S
C1632 H1626 0.930 . S
C1632 C1633 1.367 . S
C1632 C1640 1.378 . S
C1633 C1632 1.367 . S
C1633 C1641 1.433 . S
C1634 H1630 0.929 . S
C1634 C1636 1.378 . S
C1634 C1638 1.350 . S
C1635 C1638 1.463 . S
C1635 C1640 1.350 . S
C1635 N1643 1.427 . S
C1636 H1627 0.930 . S
C1636 C1634 1.378 . S
C1636 C1637 1.367 . S
C1637 C1636 1.367 . S
C1637 C1639 1.433 . S
C1638 C1634 1.350 . S
C1638 C1635 1.463 . S
C1638 N1642 1.427 . S
C1639 H1629 0.929 . S
C1639 C1637 1.433 . S
C1639 N1642 1.384 . S
C1640 H1631 0.929 . S
C1640 C1632 1.378 . S
C1640 C1635 1.350 . S
C1641 H1628 0.929 . S
C1641 C1633 1.433 . S
C1641 N1643 1.384 . S
N1642 C1638 1.427 . S
N1642 C1639 1.384 . S
N1643 C1635 1.427 . S
N1643 C1641 1.384 . S
H1644 C1650 0.930 . S
H1645 C1654 0.930 . S
H1646 C1659 0.929 . S
H1647 C1657 0.929 . S
H1648 C1652 0.929 . S
H1649 C1658 0.929 . S
C1650 H1644 0.930 . S
C1650 C1651 1.367 . S
C1650 C1658 1.378 . S
C1651 C1650 1.367 . S
C1651 C1659 1.433 . S
C1652 H1648 0.929 . S
C1652 C1654 1.378 . S
C1652 C1656 1.350 . S
C1653 C1656 1.463 . S
C1653 C1658 1.350 . S
C1653 N1661 1.427 . S
C1654 H1645 0.930 . S
C1654 C1652 1.378 . S
C1654 C1655 1.367 . S
C1655 C1654 1.367 . S
C1655 C1657 1.433 . S
C1656 C1652 1.350 . S
C1656 C1653 1.463 . S
C1656 N1660 1.427 . S
C1657 H1647 0.929 . S
C1657 C1655 1.433 . S
C1657 N1660 1.384 . S
C1658 H1649 0.929 . S
C1658 C1650 1.378 . S
C1658 C1653 1.350 . S
C1659 H1646 0.929 . S
C1659 C1651 1.433 . S
C1659 N1661 1.384 . S
N1660 C1656 1.427 . S
N1660 C1657 1.384 . S
N1661 C1653 1.427 . S
N1661 C1659 1.384 . S
H1662 C1668 0.930 . S
H1663 C1672 0.930 . S
H1664 C1677 0.929 . S
H1665 C1675 0.929 . S
H1666 C1670 0.929 . S
H1667 C1676 0.929 . S
C1668 H1662 0.930 . S
C1668 C1669 1.367 . S
C1668 C1676 1.378 . S
C1669 C1668 1.367 . S
C1669 C1677 1.433 . S
C1670 H1666 0.929 . S
C1670 C1672 1.378 . S
C1670 C1674 1.350 . S
C1671 C1674 1.463 . S
C1671 C1676 1.350 . S
C1671 N1679 1.427 . S
C1672 H1663 0.930 . S
C1672 C1670 1.378 . S
C1672 C1673 1.367 . S
C1673 C1672 1.367 . S
C1673 C1675 1.433 . S
C1674 C1670 1.350 . S
C1674 C1671 1.463 . S
C1674 N1678 1.427 . S
C1675 H1665 0.929 . S
C1675 C1673 1.433 . S
C1675 N1678 1.384 . S
C1676 H1667 0.929 . S
C1676 C1668 1.378 . S
C1676 C1671 1.350 . S
C1677 H1664 0.929 . S
C1677 C1669 1.433 . S
C1677 N1679 1.384 . S
N1678 C1674 1.427 . S
N1678 C1675 1.384 . S
N1679 C1671 1.427 . S
N1679 C1677 1.384 . S
H1680 C1686 0.930 . S
H1681 C1690 0.930 . S
H1682 C1695 0.929 . S
H1683 C1693 0.929 . S
H1684 C1688 0.929 . S
H1685 C1694 0.929 . S
C1686 H1680 0.930 . S
C1686 C1687 1.367 . S
C1686 C1694 1.378 . S
C1687 C1686 1.367 . S
C1687 C1695 1.433 . S
C1688 H1684 0.929 . S
C1688 C1690 1.378 . S
C1688 C1692 1.350 . S
C1689 C1692 1.463 . S
C1689 C1694 1.350 . S
C1689 N1697 1.427 . S
C1690 H1681 0.930 . S
C1690 C1688 1.378 . S
C1690 C1691 1.367 . S
C1691 C1690 1.367 . S
C1691 C1693 1.433 . S
C1692 C1688 1.350 . S
C1692 C1689 1.463 . S
C1692 N1696 1.427 . S
C1693 H1683 0.929 . S
C1693 C1691 1.433 . S
C1693 N1696 1.384 . S
C1694 H1685 0.929 . S
C1694 C1686 1.378 . S
C1694 C1689 1.350 . S
C1695 H1682 0.929 . S
C1695 C1687 1.433 . S
C1695 N1697 1.384 . S
N1696 C1692 1.427 . S
N1696 C1693 1.384 . S
N1697 C1689 1.427 . S
N1697 C1695 1.384 . S
H1698 C1704 0.930 . S
H1699 C1708 0.930 . S
H1700 C1713 0.929 . S
H1701 C1711 0.929 . S
H1702 C1706 0.929 . S
H1703 C1712 0.929 . S
C1704 H1698 0.930 . S
C1704 C1705 1.367 . S
C1704 C1712 1.378 . S
C1705 C1704 1.367 . S
C1705 C1713 1.433 . S
C1706 H1702 0.929 . S
C1706 C1708 1.378 . S
C1706 C1710 1.350 . S
C1707 C1710 1.463 . S
C1707 C1712 1.350 . S
C1707 N1715 1.427 . S
C1708 H1699 0.930 . S
C1708 C1706 1.378 . S
C1708 C1709 1.367 . S
C1709 C1708 1.367 . S
C1709 C1711 1.433 . S
C1710 C1706 1.350 . S
C1710 C1707 1.463 . S
C1710 N1714 1.427 . S
C1711 H1701 0.929 . S
C1711 C1709 1.433 . S
C1711 N1714 1.384 . S
C1712 H1703 0.929 . S
C1712 C1704 1.378 . S
C1712 C1707 1.350 . S
C1713 H1700 0.929 . S
C1713 C1705 1.433 . S
C1713 N1715 1.384 . S
N1714 C1710 1.427 . S
N1714 C1711 1.384 . S
N1715 C1707 1.427 . S
N1715 C1713 1.384 . S
H1716 C1722 0.930 . S
H1717 C1726 0.930 . S
H1718 C1731 0.929 . S
H1719 C1729 0.929 . S
H1720 C1724 0.929 . S
H1721 C1730 0.929 . S
C1722 H1716 0.930 . S
C1722 C1723 1.367 . S
C1722 C1730 1.378 . S
C1723 C1722 1.367 . S
C1723 C1731 1.433 . S
C1724 H1720 0.929 . S
C1724 C1726 1.378 . S
C1724 C1728 1.350 . S
C1725 C1728 1.463 . S
C1725 C1730 1.350 . S
C1725 N1733 1.427 . S
C1726 H1717 0.930 . S
C1726 C1724 1.378 . S
C1726 C1727 1.367 . S
C1727 C1726 1.367 . S
C1727 C1729 1.433 . S
C1728 C1724 1.350 . S
C1728 C1725 1.463 . S
C1728 N1732 1.427 . S
C1729 H1719 0.929 . S
C1729 C1727 1.433 . S
C1729 N1732 1.384 . S
C1730 H1721 0.929 . S
C1730 C1722 1.378 . S
C1730 C1725 1.350 . S
C1731 H1718 0.929 . S
C1731 C1723 1.433 . S
C1731 N1733 1.384 . S
N1732 C1728 1.427 . S
N1732 C1729 1.384 . S
N1733 C1725 1.427 . S
N1733 C1731 1.384 . S
H1734 C1740 0.930 . S
H1735 C1744 0.930 . S
H1736 C1749 0.929 . S
H1737 C1747 0.929 . S
H1738 C1742 0.929 . S
H1739 C1748 0.929 . S
C1740 H1734 0.930 . S
C1740 C1741 1.367 . S
C1740 C1748 1.378 . S
C1741 C1740 1.367 . S
C1741 C1749 1.433 . S
C1742 H1738 0.929 . S
C1742 C1744 1.378 . S
C1742 C1746 1.350 . S
C1743 C1746 1.463 . S
C1743 C1748 1.350 . S
C1743 N1751 1.427 . S
C1744 H1735 0.930 . S
C1744 C1742 1.378 . S
C1744 C1745 1.367 . S
C1745 C1744 1.367 . S
C1745 C1747 1.433 . S
C1746 C1742 1.350 . S
C1746 C1743 1.463 . S
C1746 N1750 1.427 . S
C1747 H1737 0.929 . S
C1747 C1745 1.433 . S
C1747 N1750 1.384 . S
C1748 H1739 0.929 . S
C1748 C1740 1.378 . S
C1748 C1743 1.350 . S
C1749 H1736 0.929 . S
C1749 C1741 1.433 . S
C1749 N1751 1.384 . S
N1750 C1746 1.427 . S
N1750 C1747 1.384 . S
N1751 C1743 1.427 . S
N1751 C1749 1.384 . S
H1752 C1758 0.930 . S
H1753 C1762 0.930 . S
H1754 C1767 0.929 . S
H1755 C1765 0.929 . S
H1756 C1760 0.929 . S
H1757 C1766 0.929 . S
C1758 H1752 0.930 . S
C1758 C1759 1.367 . S
C1758 C1766 1.378 . S
C1759 C1758 1.367 . S
C1759 C1767 1.433 . S
C1760 H1756 0.929 . S
C1760 C1762 1.378 . S
C1760 C1764 1.350 . S
C1761 C1764 1.463 . S
C1761 C1766 1.350 . S
C1761 N1769 1.427 . S
C1762 H1753 0.930 . S
C1762 C1760 1.378 . S
C1762 C1763 1.367 . S
C1763 C1762 1.367 . S
C1763 C1765 1.433 . S
C1764 C1760 1.350 . S
C1764 C1761 1.463 . S
C1764 N1768 1.427 . S
C1765 H1755 0.929 . S
C1765 C1763 1.433 . S
C1765 N1768 1.384 . S
C1766 H1757 0.929 . S
C1766 C1758 1.378 . S
C1766 C1761 1.350 . S
C1767 H1754 0.929 . S
C1767 C1759 1.433 . S
C1767 N1769 1.384 . S
N1768 C1764 1.427 . S
N1768 C1765 1.384 . S
N1769 C1761 1.427 . S
N1769 C1767 1.384 . S
H1770 C1776 0.930 . S
H1771 C1780 0.930 . S
H1772 C1785 0.929 . S
H1773 C1783 0.929 . S
H1774 C1778 0.929 . S
H1775 C1784 0.929 . S
C1776 H1770 0.930 . S
C1776 C1777 1.367 . S
C1776 C1784 1.378 . S
C1777 C1776 1.367 . S
C1777 C1785 1.433 . S
C1778 H1774 0.929 . S
C1778 C1780 1.378 . S
C1778 C1782 1.350 . S
C1779 C1782 1.463 . S
C1779 C1784 1.350 . S
C1779 N1787 1.427 . S
C1780 H1771 0.930 . S
C1780 C1778 1.378 . S
C1780 C1781 1.367 . S
C1781 C1780 1.367 . S
C1781 C1783 1.433 . S
C1782 C1778 1.350 . S
C1782 C1779 1.463 . S
C1782 N1786 1.427 . S
C1783 H1773 0.929 . S
C1783 C1781 1.433 . S
C1783 N1786 1.384 . S
C1784 H1775 0.929 . S
C1784 C1776 1.378 . S
C1784 C1779 1.350 . S
C1785 H1772 0.929 . S
C1785 C1777 1.433 . S
C1785 N1787 1.384 . S
N1786 C1782 1.427 . S
N1786 C1783 1.384 . S
N1787 C1779 1.427 . S
N1787 C1785 1.384 . S
H1788 C1794 0.930 . S
H1789 C1798 0.930 . S
H1790 C1803 0.929 . S
H1791 C1801 0.929 . S
H1792 C1796 0.929 . S
H1793 C1802 0.929 . S
C1794 H1788 0.930 . S
C1794 C1795 1.367 . S
C1794 C1802 1.378 . S
C1795 C1794 1.367 . S
C1795 C1803 1.433 . S
C1796 H1792 0.929 . S
C1796 C1798 1.378 . S
C1796 C1800 1.350 . S
C1797 C1800 1.463 . S
C1797 C1802 1.350 . S
C1797 N1805 1.427 . S
C1798 H1789 0.930 . S
C1798 C1796 1.378 . S
C1798 C1799 1.367 . S
C1799 C1798 1.367 . S
C1799 C1801 1.433 . S
C1800 C1796 1.350 . S
C1800 C1797 1.463 . S
C1800 N1804 1.427 . S
C1801 H1791 0.929 . S
C1801 C1799 1.433 . S
C1801 N1804 1.384 . S
C1802 H1793 0.929 . S
C1802 C1794 1.378 . S
C1802 C1797 1.350 . S
C1803 H1790 0.929 . S
C1803 C1795 1.433 . S
C1803 N1805 1.384 . S
N1804 C1800 1.427 . S
N1804 C1801 1.384 . S
N1805 C1797 1.427 . S
N1805 C1803 1.384 . S
H1806 C1812 0.930 . S
H1807 C1816 0.930 . S
H1808 C1821 0.929 . S
H1809 C1819 0.929 . S
H1810 C1814 0.929 . S
H1811 C1820 0.929 . S
C1812 H1806 0.930 . S
C1812 C1813 1.367 . S
C1812 C1820 1.378 . S
C1813 C1812 1.367 . S
C1813 C1821 1.433 . S
C1814 H1810 0.929 . S
C1814 C1816 1.378 . S
C1814 C1818 1.350 . S
C1815 C1818 1.463 . S
C1815 C1820 1.350 . S
C1815 N1823 1.427 . S
C1816 H1807 0.930 . S
C1816 C1814 1.378 . S
C1816 C1817 1.367 . S
C1817 C1816 1.367 . S
C1817 C1819 1.433 . S
C1818 C1814 1.350 . S
C1818 C1815 1.463 . S
C1818 N1822 1.427 . S
C1819 H1809 0.929 . S
C1819 C1817 1.433 . S
C1819 N1822 1.384 . S
C1820 H1811 0.929 . S
C1820 C1812 1.378 . S
C1820 C1815 1.350 . S
C1821 H1808 0.929 . S
C1821 C1813 1.433 . S
C1821 N1823 1.384 . S
N1822 C1818 1.427 . S
N1822 C1819 1.384 . S
N1823 C1815 1.427 . S
N1823 C1821 1.384 . S
H1824 C1830 0.930 . S
H1825 C1834 0.930 . S
H1826 C1839 0.929 . S
H1827 C1837 0.929 . S
H1828 C1832 0.929 . S
H1829 C1838 0.929 . S
C1830 H1824 0.930 . S
C1830 C1831 1.367 . S
C1830 C1838 1.378 . S
C1831 C1830 1.367 . S
C1831 C1839 1.433 . S
C1832 H1828 0.929 . S
C1832 C1834 1.378 . S
C1832 C1836 1.350 . S
C1833 C1836 1.463 . S
C1833 C1838 1.350 . S
C1833 N1841 1.427 . S
C1834 H1825 0.930 . S
C1834 C1832 1.378 . S
C1834 C1835 1.367 . S
C1835 C1834 1.367 . S
C1835 C1837 1.433 . S
C1836 C1832 1.350 . S
C1836 C1833 1.463 . S
C1836 N1840 1.427 . S
C1837 H1827 0.929 . S
C1837 C1835 1.433 . S
C1837 N1840 1.384 . S
C1838 H1829 0.929 . S
C1838 C1830 1.378 . S
C1838 C1833 1.350 . S
C1839 H1826 0.929 . S
C1839 C1831 1.433 . S
C1839 N1841 1.384 . S
N1840 C1836 1.427 . S
N1840 C1837 1.384 . S
N1841 C1833 1.427 . S
N1841 C1839 1.384 . S
H1842 C1848 0.930 . S
H1843 C1852 0.930 . S
H1844 C1857 0.929 . S
H1845 C1855 0.929 . S
H1846 C1850 0.929 . S
H1847 C1856 0.929 . S
C1848 H1842 0.930 . S
C1848 C1849 1.367 . S
C1848 C1856 1.378 . S
C1849 C1848 1.367 . S
C1849 C1857 1.433 . S
C1850 H1846 0.929 . S
C1850 C1852 1.378 . S
C1850 C1854 1.350 . S
C1851 C1854 1.463 . S
C1851 C1856 1.350 . S
C1851 N1859 1.427 . S
C1852 H1843 0.930 . S
C1852 C1850 1.378 . S
C1852 C1853 1.367 . S
C1853 C1852 1.367 . S
C1853 C1855 1.433 . S
C1854 C1850 1.350 . S
C1854 C1851 1.463 . S
C1854 N1858 1.427 . S
C1855 H1845 0.929 . S
C1855 C1853 1.433 . S
C1855 N1858 1.384 . S
C1856 H1847 0.929 . S
C1856 C1848 1.378 . S
C1856 C1851 1.350 . S
C1857 H1844 0.929 . S
C1857 C1849 1.433 . S
C1857 N1859 1.384 . S
N1858 C1854 1.427 . S
N1858 C1855 1.384 . S
N1859 C1851 1.427 . S
N1859 C1857 1.384 . S
H1860 C1866 0.930 . S
H1861 C1870 0.930 . S
H1862 C1875 0.929 . S
H1863 C1873 0.929 . S
H1864 C1868 0.929 . S
H1865 C1874 0.929 . S
C1866 H1860 0.930 . S
C1866 C1867 1.367 . S
C1866 C1874 1.378 . S
C1867 C1866 1.367 . S
C1867 C1875 1.433 . S
C1868 H1864 0.929 . S
C1868 C1870 1.378 . S
C1868 C1872 1.350 . S
C1869 C1872 1.463 . S
C1869 C1874 1.350 . S
C1869 N1877 1.427 . S
C1870 H1861 0.930 . S
C1870 C1868 1.378 . S
C1870 C1871 1.367 . S
C1871 C1870 1.367 . S
C1871 C1873 1.433 . S
C1872 C1868 1.350 . S
C1872 C1869 1.463 . S
C1872 N1876 1.427 . S
C1873 H1863 0.929 . S
C1873 C1871 1.433 . S
C1873 N1876 1.384 . S
C1874 H1865 0.929 . S
C1874 C1866 1.378 . S
C1874 C1869 1.350 . S
C1875 H1862 0.929 . S
C1875 C1867 1.433 . S
C1875 N1877 1.384 . S
N1876 C1872 1.427 . S
N1876 C1873 1.384 . S
N1877 C1869 1.427 . S
N1877 C1875 1.384 . S
H1878 C1884 0.930 . S
H1879 C1888 0.930 . S
H1880 C1893 0.929 . S
H1881 C1891 0.929 . S
H1882 C1886 0.929 . S
H1883 C1892 0.929 . S
C1884 H1878 0.930 . S
C1884 C1885 1.367 . S
C1884 C1892 1.378 . S
C1885 C1884 1.367 . S
C1885 C1893 1.433 . S
C1886 H1882 0.929 . S
C1886 C1888 1.378 . S
C1886 C1890 1.350 . S
C1887 C1890 1.463 . S
C1887 C1892 1.350 . S
C1887 N1895 1.427 . S
C1888 H1879 0.930 . S
C1888 C1886 1.378 . S
C1888 C1889 1.367 . S
C1889 C1888 1.367 . S
C1889 C1891 1.433 . S
C1890 C1886 1.350 . S
C1890 C1887 1.463 . S
C1890 N1894 1.427 . S
C1891 H1881 0.929 . S
C1891 C1889 1.433 . S
C1891 N1894 1.384 . S
C1892 H1883 0.929 . S
C1892 C1884 1.378 . S
C1892 C1887 1.350 . S
C1893 H1880 0.929 . S
C1893 C1885 1.433 . S
C1893 N1895 1.384 . S
N1894 C1890 1.427 . S
N1894 C1891 1.384 . S
N1895 C1887 1.427 . S
N1895 C1893 1.384 . S
C823 C203 0.596 . S
C827 C33 0.591 . S
C841 C67 0.591 . S
C845 C237 0.603 . S
C859 C101 0.602 . S
C863 C271 0.588 . S
C877 C169 0.597 . S
C881 C135 0.591 . S
C895 C305 0.597 . S
C899 C815 0.599 . S
C913 C747 0.589 . S
C917 C339 0.599 . S
C931 C373 0.600 . S
C935 C781 0.589 . S
C949 C577 0.603 . S
C953 C407 0.592 . S
C967 C441 0.600 . S
C971 C713 0.589 . S
C985 C475 0.595 . S
C989 C611 0.593 . S
C1003 C645 0.596 . S
C1007 C509 0.592 . S
C1021 C543 0.596 . S
C1025 C679 0.599 . S
C1039 C104 1.891 . S
C1043 C5 1.832 . S
C1057 C39 1.834 . S
C1061 C2 1.892 . S
C1075 C73 1.833 . S
C1079 C36 1.891 . S
C1093 C70 1.893 . S
C1097 C107 1.843 . S
C1111 C172 1.893 . S
C1115 C141 1.843 . S
C1129 C175 1.835 . S
C1133 C206 1.892 . S
C1147 C240 1.893 . S
C1151 C209 1.843 . S
C1165 C138 1.892 . S
C1169 C243 1.834 . S
C1183 C614 1.893 . S
C1187 C277 1.843 . S
C1201 C311 1.837 . S
C1205 C648 1.892 . S
C1219 C682 1.893 . S
C1223 C345 1.842 . S
C1237 C379 1.842 . S
C1241 C580 1.893 . S
C1255 C750 1.893 . S
C1259 C413 1.839 . S
C1273 C447 1.836 . S
C1277 C546 1.892 . S
C1291 C784 1.891 . S
C1295 C481 1.833 . S
C1309 C515 1.840 . S
C1313 C716 1.893 . S
C1327 C308 1.891 . S
C1331 C549 1.832 . S
C1345 C512 1.893 . S
C1349 C583 1.842 . S
C1363 C617 1.839 . S
C1367 C410 1.892 . S
C1381 C651 1.836 . S
C1385 C444 1.892 . S
C1399 C478 1.893 . S
C1403 C685 1.842 . S
C1417 C376 1.893 . S
C1421 C719 1.840 . S
C1435 C274 1.893 . S
C1439 C753 1.842 . S
C1453 C787 1.834 . S
C1457 C342 1.892 . S
C1471 C9 1.371 . S
C1475 C564 1.388 . S
C1489 C802 1.386 . S
C1493 C43 1.376 . S
C1507 C77 1.370 . S
C1511 C734 1.388 . S
C1525 C768 1.386 . S
C1529 C111 1.376 . S
C1543 C145 1.368 . S
C1547 C598 1.389 . S
C1561 C179 1.377 . S
C1565 C632 1.386 . S
C1579 C666 1.390 . S
C1583 C213 1.367 . S
C1597 C700 1.389 . S
C1601 C247 1.367 . S
C1615 C20 1.386 . S
C1619 C281 1.377 . S
C1633 C315 1.377 . S
C1637 C54 1.386 . S
C1651 C349 1.377 . S
C1655 C88 1.386 . S
C1669 C383 1.372 . S
C1673 C122 1.388 . S
C1687 C417 1.367 . S
C1691 C156 1.390 . S
C1705 C451 1.373 . S
C1709 C190 1.388 . S
C1723 C485 1.371 . S
C1727 C224 1.389 . S
C1741 C519 1.368 . S
C1745 C258 1.389 . S
C1759 C292 1.386 . S
C1763 C553 1.377 . S
C1777 C587 1.377 . S
C1781 C428 1.386 . S
C1795 C621 1.377 . S
C1799 C462 1.386 . S
C1813 C496 1.389 . S
C1817 C655 1.367 . S
C1831 C689 1.376 . S
C1835 C530 1.387 . S
C1849 C360 1.386 . S
C1853 C723 1.374 . S
C1867 C394 1.387 . S
C1871 C757 1.375 . S
C1885 C791 1.368 . S
C1889 C326 1.389 . S
