# Generated by pormake.
# Topology lcs, (4)-cn, num edge types: 1
# Building blocks:
#     Node 0, Type 0, BuildingBlock: KUFVIS_clean_sbu_0, # of connection points: 4
#     Node 1, Type 0, BuildingBlock: KUFVIS_clean_sbu_0, # of connection points: 4
#     Node 2, Type 0, BuildingBlock: KUFVIS_clean_sbu_0, # of connection points: 4
#     Node 3, Type 0, BuildingBlock: KUFVIS_clean_sbu_0, # of connection points: 4
#     Node 4, Type 0, BuildingBlock: KUFVIS_clean_sbu_0, # of connection points: 4
#     Node 5, Type 0, BuildingBlock: KUFVIS_clean_sbu_0, # of connection points: 4
#     Node 6, Type 0, BuildingBlock: KUFVIS_clean_sbu_0, # of connection points: 4
#     Node 7, Type 0, BuildingBlock: KUFVIS_clean_sbu_0, # of connection points: 4
#     Node 8, Type 0, BuildingBlock: KUFVIS_clean_sbu_0, # of connection points: 4
#     Node 9, Type 0, BuildingBlock: KUFVIS_clean_sbu_0, # of connection points: 4
#     Node 10, Type 0, BuildingBlock: KUFVIS_clean_sbu_0, # of connection points: 4
#     Node 11, Type 0, BuildingBlock: KUFVIS_clean_sbu_0, # of connection points: 4
#     Node 12, Type 0, BuildingBlock: KUFVIS_clean_sbu_0, # of connection points: 4
#     Node 13, Type 0, BuildingBlock: KUFVIS_clean_sbu_0, # of connection points: 4
#     Node 14, Type 0, BuildingBlock: KUFVIS_clean_sbu_0, # of connection points: 4
#     Node 15, Type 0, BuildingBlock: KUFVIS_clean_sbu_0, # of connection points: 4
#     Node 16, Type 0, BuildingBlock: KUFVIS_clean_sbu_0, # of connection points: 4
#     Node 17, Type 0, BuildingBlock: KUFVIS_clean_sbu_0, # of connection points: 4
#     Node 18, Type 0, BuildingBlock: KUFVIS_clean_sbu_0, # of connection points: 4
#     Node 19, Type 0, BuildingBlock: KUFVIS_clean_sbu_0, # of connection points: 4
#     Node 20, Type 0, BuildingBlock: KUFVIS_clean_sbu_0, # of connection points: 4
#     Node 21, Type 0, BuildingBlock: KUFVIS_clean_sbu_0, # of connection points: 4
#     Node 22, Type 0, BuildingBlock: KUFVIS_clean_sbu_0, # of connection points: 4
#     Node 23, Type 0, BuildingBlock: KUFVIS_clean_sbu_0, # of connection points: 4
#     Edge 24, Type (0, 0), BuildingBlock: XUDNAN_clean_linker_2, # of connection points: 2
#     Edge 25, Type (0, 0), BuildingBlock: XUDNAN_clean_linker_2, # of connection points: 2
#     Edge 26, Type (0, 0), BuildingBlock: XUDNAN_clean_linker_2, # of connection points: 2
#     Edge 27, Type (0, 0), BuildingBlock: XUDNAN_clean_linker_2, # of connection points: 2
#     Edge 28, Type (0, 0), BuildingBlock: XUDNAN_clean_linker_2, # of connection points: 2
#     Edge 29, Type (0, 0), BuildingBlock: XUDNAN_clean_linker_2, # of connection points: 2
#     Edge 30, Type (0, 0), BuildingBlock: XUDNAN_clean_linker_2, # of connection points: 2
#     Edge 31, Type (0, 0), BuildingBlock: XUDNAN_clean_linker_2, # of connection points: 2
#     Edge 32, Type (0, 0), BuildingBlock: XUDNAN_clean_linker_2, # of connection points: 2
#     Edge 33, Type (0, 0), BuildingBlock: XUDNAN_clean_linker_2, # of connection points: 2
#     Edge 34, Type (0, 0), BuildingBlock: XUDNAN_clean_linker_2, # of connection points: 2
#     Edge 35, Type (0, 0), BuildingBlock: XUDNAN_clean_linker_2, # of connection points: 2
#     Edge 36, Type (0, 0), BuildingBlock: XUDNAN_clean_linker_2, # of connection points: 2
#     Edge 37, Type (0, 0), BuildingBlock: XUDNAN_clean_linker_2, # of connection points: 2
#     Edge 38, Type (0, 0), BuildingBlock: XUDNAN_clean_linker_2, # of connection points: 2
#     Edge 39, Type (0, 0), BuildingBlock: XUDNAN_clean_linker_2, # of connection points: 2
#     Edge 40, Type (0, 0), BuildingBlock: XUDNAN_clean_linker_2, # of connection points: 2
#     Edge 41, Type (0, 0), BuildingBlock: XUDNAN_clean_linker_2, # of connection points: 2
#     Edge 42, Type (0, 0), BuildingBlock: XUDNAN_clean_linker_2, # of connection points: 2
#     Edge 43, Type (0, 0), BuildingBlock: XUDNAN_clean_linker_2, # of connection points: 2
#     Edge 44, Type (0, 0), BuildingBlock: XUDNAN_clean_linker_2, # of connection points: 2
#     Edge 45, Type (0, 0), BuildingBlock: XUDNAN_clean_linker_2, # of connection points: 2
#     Edge 46, Type (0, 0), BuildingBlock: XUDNAN_clean_linker_2, # of connection points: 2
#     Edge 47, Type (0, 0), BuildingBlock: XUDNAN_clean_linker_2, # of connection points: 2
#     Edge 48, Type (0, 0), BuildingBlock: XUDNAN_clean_linker_2, # of connection points: 2
#     Edge 49, Type (0, 0), BuildingBlock: XUDNAN_clean_linker_2, # of connection points: 2
#     Edge 50, Type (0, 0), BuildingBlock: XUDNAN_clean_linker_2, # of connection points: 2
#     Edge 51, Type (0, 0), BuildingBlock: XUDNAN_clean_linker_2, # of connection points: 2
#     Edge 52, Type (0, 0), BuildingBlock: XUDNAN_clean_linker_2, # of connection points: 2
#     Edge 53, Type (0, 0), BuildingBlock: XUDNAN_clean_linker_2, # of connection points: 2
#     Edge 54, Type (0, 0), BuildingBlock: XUDNAN_clean_linker_2, # of connection points: 2
#     Edge 55, Type (0, 0), BuildingBlock: XUDNAN_clean_linker_2, # of connection points: 2
#     Edge 56, Type (0, 0), BuildingBlock: XUDNAN_clean_linker_2, # of connection points: 2
#     Edge 57, Type (0, 0), BuildingBlock: XUDNAN_clean_linker_2, # of connection points: 2
#     Edge 58, Type (0, 0), BuildingBlock: XUDNAN_clean_linker_2, # of connection points: 2
#     Edge 59, Type (0, 0), BuildingBlock: XUDNAN_clean_linker_2, # of connection points: 2
#     Edge 60, Type (0, 0), BuildingBlock: XUDNAN_clean_linker_2, # of connection points: 2
#     Edge 61, Type (0, 0), BuildingBlock: XUDNAN_clean_linker_2, # of connection points: 2
#     Edge 62, Type (0, 0), BuildingBlock: XUDNAN_clean_linker_2, # of connection points: 2
#     Edge 63, Type (0, 0), BuildingBlock: XUDNAN_clean_linker_2, # of connection points: 2
#     Edge 64, Type (0, 0), BuildingBlock: XUDNAN_clean_linker_2, # of connection points: 2
#     Edge 65, Type (0, 0), BuildingBlock: XUDNAN_clean_linker_2, # of connection points: 2
#     Edge 66, Type (0, 0), BuildingBlock: XUDNAN_clean_linker_2, # of connection points: 2
#     Edge 67, Type (0, 0), BuildingBlock: XUDNAN_clean_linker_2, # of connection points: 2
#     Edge 68, Type (0, 0), BuildingBlock: XUDNAN_clean_linker_2, # of connection points: 2
#     Edge 69, Type (0, 0), BuildingBlock: XUDNAN_clean_linker_2, # of connection points: 2
#     Edge 70, Type (0, 0), BuildingBlock: XUDNAN_clean_linker_2, # of connection points: 2
#     Edge 71, Type (0, 0), BuildingBlock: XUDNAN_clean_linker_2, # of connection points: 2
# Relax obj value: 0.011
# Max RMSD: 0.063
# Mean RMSD: 0.054
data_MOF--net-lcs--node1-KUFVIS_clean_sbu_0--edge1-XUDNAN_clean_linker_2
_symmetry_space_group_name_H-M    P1
_symmetry_Int_Tables_number       1
_symmetry_cell_setting            triclinic
loop_
_symmetry_equiv_pos_as_xyz
'x, y, z'
_cell_length_a     48.186668
_cell_length_b     48.882831
_cell_length_c     48.889503
_cell_angle_alpha  90.141351
_cell_angle_beta   91.169158
_cell_angle_gamma 91.124427
loop_
_atom_site_label
_atom_site_type_symbol
_atom_site_fract_x
_atom_site_fract_y
_atom_site_fract_z
_atom_type_partial_charge
Mn0 Mn 0.02264 0.269 0.38463 0.0
Mn1 Mn 0.03683 0.29568 0.44722 0.0
C2 C 0.0607 0.25411 0.40973 0.0
C3 C 0.99969 0.2365 0.35692 0.0
C4 C 0.04962 0.32563 0.39429 0.0
O5 O 0.98647 0.28714 0.39434 0.0
O6 O 0.99716 0.30179 0.43706 0.0
C7 C 1.0015 0.25846 0.4799 0.0
N8 N 0.02694 0.2696 0.47459 0.0
C9 C 0.04819 0.24425 0.5113 0.0
C10 C 0.02218 0.23262 0.51726 0.0
C11 C 0.99875 0.23973 0.50146 0.0
C12 C 0.04963 0.26287 0.48963 0.0
H13 H 0.98344 0.26378 0.46775 0.0
C14 C 0.98002 0.29843 0.41686 0.0
O15 O 0.00867 0.25957 0.34699 0.0
O16 O 1.0034 0.23258 0.38294 0.0
N17 N 0.07426 0.29096 0.45994 0.0
C18 C 0.09799 0.30321 0.4509 0.0
C19 C 0.12334 0.29809 0.46438 0.0
C20 C 0.12406 0.28041 0.48698 0.0
C21 C 0.09937 0.26816 0.49601 0.0
C22 C 0.07465 0.27438 0.48203 0.0
H23 H 0.09761 0.3167 0.43346 0.0
O24 O 0.05938 0.25086 0.3834 0.0
O25 O 0.03955 0.26577 0.42068 0.0
O26 O 0.04113 0.30666 0.37797 0.0
O27 O 0.04842 0.32367 0.42032 0.0
C28 C 0.09837 0.24977 0.51813 0.0
C29 C 0.07281 0.23777 0.52572 0.0
H30 H 0.02 0.21808 0.53379 0.0
H31 H 0.97863 0.23076 0.50586 0.0
H32 H 0.1423 0.30767 0.4573 0.0
H33 H 0.1437 0.2763 0.49718 0.0
H34 H 0.11718 0.24447 0.52924 0.0
H35 H 0.07234 0.22341 0.54256 0.0
Mn36 Mn 0.02525 0.7724 0.64152 0.0
Mn37 Mn 0.99324 0.78918 0.6997 0.0
C38 C 0.03518 0.81441 0.66193 0.0
C39 C 0.06341 0.75052 0.62263 0.0
C40 C 0.96581 0.79368 0.64303 0.0
O41 O 1.00761 0.73633 0.65348 0.0
O42 O 0.99033 0.74873 0.69394 0.0
C43 C 0.03217 0.76237 0.73828 0.0
N44 N 0.01914 0.78531 0.72948 0.0
C45 C 0.0412 0.81244 0.76514 0.0
C46 C 0.05473 0.78908 0.7747 0.0
C47 C 0.05029 0.76397 0.76112 0.0
C48 C 0.0237 0.80968 0.74205 0.0
H49 H 0.02879 0.74302 0.72792 0.0
C50 C 0.99517 0.73079 0.6756 0.0
O51 O 0.04099 0.75444 0.60796 0.0
O52 O 0.06292 0.75824 0.64789 0.0
N53 N 0.99401 0.82734 0.70866 0.0
C54 C 0.97838 0.84766 0.69768 0.0
C55 C 0.98031 0.87409 0.70897 0.0
C56 C 0.99781 0.87923 0.7318 0.0
C57 C 0.01287 0.85777 0.7434 0.0
C58 C 0.01018 0.83187 0.73121 0.0
H59 H 0.96477 0.84384 0.68024 0.0
O60 O 0.04158 0.80992 0.63674 0.0
O61 O 0.02411 0.79374 0.67479 0.0
O62 O 0.98647 0.78595 0.62891 0.0
O63 O 0.96624 0.79452 0.66928 0.0
C64 C 0.03008 0.86096 0.76686 0.0
C65 C 0.04429 0.83832 0.77769 0.0
H66 H 0.06858 0.7902 0.79242 0.0
H67 H 0.06072 0.74586 0.76831 0.0
H68 H 0.96834 0.89046 0.70009 0.0
H69 H 0.99926 0.89964 0.74045 0.0
H70 H 0.0326 0.88074 0.77672 0.0
H71 H 0.0576 0.84107 0.79565 0.0
Mn72 Mn 0.5091 0.7624 0.88475 0.0
Mn73 Mn 0.5269 0.7935 0.94424 0.0
C74 C 0.5477 0.74797 0.90905 0.0
C75 C 0.48147 0.72816 0.86394 0.0
C76 C 0.53792 0.81865 0.88825 0.0
O77 O 0.47483 0.78336 0.89417 0.0
O78 O 0.48669 0.8 0.93581 0.0
C79 C 0.4928 0.76008 0.98173 0.0
N80 N 0.5181 0.77002 0.97416 0.0
C81 C 0.54086 0.74709 0.01163 0.0
C82 C 0.51503 0.73677 0.01994 0.0
C83 C 0.4909 0.74326 1.00489 0.0
C84 C 0.54144 0.76391 0.9885 0.0
H85 H 0.47422 0.7649 0.97014 0.0
C86 C 0.46911 0.79609 0.91604 0.0
O87 O 0.49096 0.74861 0.84965 0.0
O88 O 0.4883 0.72767 0.88961 0.0
N89 N 0.56487 0.7886 0.95518 0.0
C90 C 0.58835 0.79849 0.94332 0.0
C91 C 0.61434 0.7933 0.9555 0.0
C92 C 0.61597 0.77783 0.97962 0.0
C93 C 0.59156 0.76771 0.99137 0.0
C94 C 0.5662 0.77391 0.97855 0.0
H95 H 0.5873 0.80989 0.92451 0.0
O96 O 0.54457 0.74216 0.88326 0.0
O97 O 0.52786 0.76179 0.91989 0.0
O98 O 0.52878 0.79859 0.87345 0.0
O99 O 0.53737 0.81867 0.91443 0.0
C100 C 0.59144 0.75122 0.01496 0.0
C101 C 0.56611 0.74089 0.02506 0.0
H102 H 0.51349 0.72364 0.03768 0.0
H103 H 0.47091 0.73526 0.01108 0.0
H104 H 0.6331 0.80101 0.94617 0.0
H105 H 0.63608 0.77357 0.98877 0.0
H106 H 0.61074 0.74601 0.02525 0.0
H107 H 0.56631 0.72791 0.04299 0.0
Mn108 Mn 0.52785 0.27043 0.1365 0.0
Mn109 Mn 0.50237 0.28523 0.19869 0.0
C110 C 0.54152 0.3108 0.15818 0.0
C111 C 0.56002 0.24768 0.1097 0.0
C112 C 0.47027 0.29497 0.1455 0.0
O113 O 0.51048 0.23416 0.14843 0.0
O114 O 0.49577 0.24561 0.19013 0.0
C115 C 0.5424 0.25253 0.23091 0.0
N116 N 0.53039 0.27698 0.22548 0.0
C117 C 0.55655 0.29901 0.26202 0.0
C118 C 0.56911 0.27405 0.26809 0.0
C119 C 0.56212 0.25075 0.25235 0.0
C120 C 0.5375 0.29967 0.24003 0.0
H121 H 0.53697 0.23451 0.219 0.0
C122 C 0.49893 0.22817 0.17092 0.0
O123 O 0.53581 0.25437 0.1 0.0
O124 O 0.56555 0.25403 0.13504 0.0
N125 N 0.50676 0.32231 0.21102 0.0
C126 C 0.49131 0.34434 0.20388 0.0
C127 C 0.49546 0.36923 0.21791 0.0
C128 C 0.51482 0.37102 0.23971 0.0
C129 C 0.52953 0.34777 0.24755 0.0
C130 C 0.52473 0.32359 0.23261 0.0
H131 H 0.47621 0.34308 0.18734 0.0
O132 O 0.54486 0.30762 0.13212 0.0
O133 O 0.53142 0.2897 0.17123 0.0
O134 O 0.48883 0.28603 0.12956 0.0
O135 O 0.47303 0.29514 0.17164 0.0
C136 C 0.54819 0.34746 0.27008 0.0
C137 C 0.56191 0.32316 0.27715 0.0
H138 H 0.58409 0.27253 0.28482 0.0
H139 H 0.57175 0.23142 0.25687 0.0
H140 H 0.48369 0.38696 0.21198 0.0
H141 H 0.5179 0.39023 0.25056 0.0
H142 H 0.55225 0.36583 0.28205 0.0
H143 H 0.57641 0.32326 0.29438 0.0
Mn144 Mn 1.00617 0.76463 0.14094 0.0
Mn145 Mn 0.97938 0.80495 0.09122 0.0
C146 C 0.96324 0.75326 0.12028 0.0
C147 C 0.03406 0.72842 0.15547 0.0
C148 C 0.97629 0.819 0.15122 0.0
O149 O 0.04029 0.7881 0.13021 0.0
O150 O 0.01908 0.81262 0.0975 0.0
C151 C 0.01058 0.7804 0.04612 0.0
N152 N 0.98596 0.78734 0.05719 0.0
C153 C 0.96047 0.77038 0.0178 0.0
C154 C 0.9855 0.76309 1.00588 0.0
C155 C 0.01068 0.768 0.02019 0.0
C156 C 0.96162 0.78208 0.04395 0.0
H157 H 0.03 0.78431 0.05697 0.0
C158 C 0.04049 0.80663 0.11182 0.0
O159 O 0.02722 0.74779 0.17207 0.0
O160 O 0.02534 0.73041 0.13028 0.0
N161 N 0.94089 0.8006 0.08226 0.0
C162 C 0.91898 0.81186 0.09511 0.0
C163 C 0.89232 0.80961 0.08309 0.0
C164 C 0.88865 0.79658 0.05763 0.0
C165 C 0.91182 0.78668 0.04413 0.0
C166 C 0.9378 0.78947 0.05706 0.0
H167 H 0.92177 0.82234 0.11446 0.0
O168 O 0.97025 0.74333 0.14391 0.0
O169 O 0.98172 0.76911 0.10902 0.0
O170 O 0.98913 0.79794 0.15996 0.0
O171 O 0.97151 0.82364 0.12588 0.0
C172 C 0.91024 0.77494 0.01795 0.0
C173 C 0.93443 0.76679 1.00468 0.0
H174 H 0.98563 0.7538 0.98574 0.0
H175 H 0.03011 0.76243 0.01117 0.0
H176 H 0.87468 0.81793 0.09339 0.0
H177 H 0.86807 0.79483 0.04839 0.0
H178 H 0.89044 0.77211 1.00802 0.0
H179 H 0.93273 0.75778 0.98443 0.0
Mn180 Mn 0.52994 0.76908 0.38445 0.0
Mn181 Mn 0.51941 0.81982 0.42975 0.0
C182 C 0.56501 0.80101 0.39472 0.0
C183 C 0.54557 0.72511 0.37407 0.0
C184 C 0.49838 0.82201 0.37134 0.0
O185 O 0.49566 0.75461 0.40411 0.0
O186 O 0.48966 0.79092 0.43157 0.0
C187 C 0.52841 0.78726 0.48006 0.0
N188 N 0.53505 0.80928 0.46429 0.0
C189 C 0.56655 0.82717 0.49901 0.0
C190 C 0.56004 0.80472 0.51564 0.0
C191 C 0.54105 0.78457 0.50603 0.0
C192 C 0.55383 0.8284 0.47306 0.0
H193 H 0.51347 0.77197 0.47296 0.0
C194 C 0.48208 0.76734 0.42216 0.0
O195 O 0.52856 0.73767 0.35764 0.0
O196 O 0.55212 0.73749 0.39681 0.0
N197 N 0.54633 0.84913 0.43084 0.0
C198 C 0.55028 0.86959 0.41235 0.0
C199 C 0.56934 0.89094 0.41849 0.0
C200 C 0.58348 0.89149 0.44388 0.0
C201 C 0.57845 0.87065 0.4629 0.0
C202 C 0.55973 0.84956 0.45539 0.0
H203 H 0.53919 0.86946 0.39297 0.0
O204 O 0.56477 0.78751 0.37189 0.0
O205 O 0.54473 0.79551 0.41111 0.0
O206 O 0.50587 0.79792 0.3647 0.0
O207 O 0.5033 0.83271 0.39481 0.0
C208 C 0.59091 0.87024 0.48921 0.0
C209 C 0.58498 0.8485 0.50725 0.0
H210 H 0.56947 0.80275 0.53583 0.0
H211 H 0.5359 0.76717 0.51874 0.0
H212 H 0.57292 0.90706 0.40377 0.0
H213 H 0.59795 0.90814 0.44867 0.0
H214 H 0.60529 0.8864 0.49569 0.0
H215 H 0.59495 0.84824 0.5273 0.0
Mn216 Mn 0.51143 0.26344 0.63494 0.0
Mn217 Mn 0.48838 0.30799 0.58737 0.0
C218 C 0.47024 0.25449 0.60971 0.0
C219 C 0.53737 0.22547 0.6487 0.0
C220 C 0.48323 0.31755 0.64818 0.0
O221 O 0.54652 0.28715 0.62784 0.0
O222 O 0.52838 0.31365 0.59458 0.0
C223 C 0.51855 0.2877 0.53951 0.0
N224 N 0.49432 0.29439 0.55144 0.0
C225 C 0.46927 0.29114 0.50853 0.0
C226 C 0.49389 0.28401 0.4957 0.0
C227 C 0.51859 0.28196 0.51134 0.0
C228 C 0.47027 0.29528 0.53684 0.0
H229 H 0.53771 0.28714 0.55136 0.0
C230 C 0.54857 0.30624 0.61003 0.0
O231 O 0.52974 0.24383 0.66603 0.0
O232 O 0.53071 0.22955 0.62318 0.0
N233 N 0.44979 0.30524 0.57826 0.0
C234 C 0.42794 0.31213 0.59395 0.0
C235 C 0.4019 0.31612 0.58146 0.0
C236 C 0.39883 0.31375 0.55295 0.0
C237 C 0.42148 0.30591 0.53729 0.0
C238 C 0.44675 0.30159 0.55098 0.0
H239 H 0.43057 0.31542 0.6157 0.0
O240 O 0.47468 0.24289 0.63319 0.0
O241 O 0.48994 0.2708 0.6017 0.0
O242 O 0.49399 0.29514 0.65591 0.0
O243 O 0.48069 0.32429 0.62314 0.0
C244 C 0.42035 0.30341 0.50857 0.0
C245 C 0.44401 0.2953 0.49427 0.0
H246 H 0.49416 0.28038 0.47385 0.0
H247 H 0.53771 0.27665 0.50158 0.0
H248 H 0.3845 0.32206 0.59365 0.0
H249 H 0.3791 0.31854 0.54336 0.0
H250 H 0.40136 0.30748 0.49723 0.0
H251 H 0.44269 0.2929 0.47224 0.0
Mn252 Mn 0.02452 0.27116 0.89092 0.0
Mn253 Mn 0.01062 0.29726 0.95305 0.0
C254 C 0.0591 0.29405 0.91578 0.0
C255 C 0.03818 0.2345 0.86362 0.0
C256 C 0.99353 0.32481 0.89994 0.0
O257 O 0.98875 0.25133 0.90093 0.0
O258 O 0.98105 0.26962 0.94235 0.0
C259 C 0.019 0.24692 0.98552 0.0
N260 N 0.02551 0.27367 0.98058 0.0
C261 C 0.05876 0.27492 0.01799 0.0
C262 C 0.05225 0.24745 0.02361 0.0
C263 C 0.03232 0.23338 1.00726 0.0
C264 C 0.04467 0.28739 0.99616 0.0
H265 H 1.0038 0.23596 0.97295 0.0
C266 C 0.9745 0.25329 0.92255 0.0
O267 O 0.02339 0.2542 0.85364 0.0
O268 O 0.04463 0.23589 0.88946 0.0
N269 N 0.03738 0.32378 0.96645 0.0
C270 C 0.04262 0.34961 0.95724 0.0
C271 C 0.06241 0.36629 0.97104 0.0
C272 C 0.07674 0.35621 0.99408 0.0
C273 C 0.07106 0.32955 1.00315 0.0
C274 C 0.05078 0.31401 0.98882 0.0
H275 H 0.03208 0.3573 0.93928 0.0
O276 O 0.06077 0.29154 0.88944 0.0
O277 O 0.0372 0.28299 0.92682 0.0
O278 O 1.0031 0.30671 0.88394 0.0
O279 O 0.99532 0.32327 0.92602 0.0
C280 C 0.08515 0.31757 0.02549 0.0
C281 C 0.07904 0.29026 0.03287 0.0
H282 H 0.0626 0.23689 0.04025 0.0
H283 H 0.0273 0.21213 0.01138 0.0
H284 H 0.06676 0.3868 0.96381 0.0
H285 H 0.09226 0.36901 1.00446 0.0
H286 H 0.10103 0.32904 0.03687 0.0
H287 H 0.09028 0.28116 0.04985 0.0
Mn288 Mn 0.38897 0.01458 0.24497 0.0
Mn289 Mn 0.3294 0.97919 0.25614 0.0
C290 C 0.37058 0.98613 0.2112 0.0
C291 C 0.41163 0.05463 0.22987 0.0
C292 C 0.38541 0.95967 0.27632 0.0
O293 O 0.37353 0.03405 0.27785 0.0
O294 O 0.33599 1.00739 0.28547 0.0
C295 C 0.29195 0.02564 0.24609 0.0
N296 N 0.29977 0.99967 0.24023 0.0
C297 C 0.26137 0.99344 0.20847 0.0
C298 C 0.25284 0.02005 0.21424 0.0
C299 C 0.26833 0.03629 0.23299 0.0
C300 C 0.28545 0.98415 0.22168 0.0
H301 H 0.30356 0.03813 0.26069 0.0
C302 C 0.35234 0.02749 0.29171 0.0
O303 O 0.42384 0.03811 0.24686 0.0
O304 O 0.38636 0.04836 0.22251 0.0
N305 N 0.31891 0.95135 0.23004 0.0
C306 C 0.32957 0.92594 0.22695 0.0
C307 C 0.31666 0.90727 0.20865 0.0
C308 C 0.2924 0.91458 0.19431 0.0
C309 C 0.2813 0.94052 0.19842 0.0
C310 C 0.29541 0.95847 0.2165 0.0
H311 H 0.34819 0.92022 0.23781 0.0
O312 O 0.39658 0.99347 0.21132 0.0
O313 O 0.3556 0.99622 0.23062 0.0
O314 O 0.39945 0.9809 0.2689 0.0
O315 O 0.35921 0.95683 0.27208 0.0
C316 C 0.25651 0.94908 0.18562 0.0
C317 C 0.24673 0.97564 0.19037 0.0
H318 H 0.23443 0.02821 0.20444 0.0
H319 H 0.26192 0.05688 0.23754 0.0
H320 H 0.32533 0.88725 0.20569 0.0
H321 H 0.28238 0.90006 0.18036 0.0
H322 H 0.24501 0.93552 0.17176 0.0
H323 H 0.22789 0.98214 0.18005 0.0
Mn324 Mn 0.27181 0.1343 0.51004 0.0
Mn325 Mn 0.2902 0.19029 0.4747 0.0
C326 C 0.31556 0.15468 0.51821 0.0
C327 C 0.24803 0.11766 0.54833 0.0
C328 C 0.2871 0.13304 0.45 0.0
O329 O 0.23526 0.14786 0.49292 0.0
O330 O 0.24945 0.18949 0.47845 0.0
C331 C 0.27542 0.23383 0.51354 0.0
N332 N 0.29469 0.22133 0.49809 0.0
C333 C 0.32989 0.25437 0.5115 0.0
C334 C 0.31045 0.2678 0.52745 0.0
C335 C 0.28312 0.25736 0.52861 0.0
C336 C 0.32113 0.23088 0.49724 0.0
H337 H 0.25437 0.2259 0.51428 0.0
C338 C 0.23042 0.17156 0.48303 0.0
O339 O 0.25222 0.10199 0.52734 0.0
O340 O 0.25773 0.14246 0.54704 0.0
N341 N 0.32927 0.19351 0.4692 0.0
C342 C 0.34548 0.17847 0.45252 0.0
C343 C 0.37339 0.18622 0.4491 0.0
C344 C 0.38426 0.20955 0.46257 0.0
C345 C 0.36703 0.22496 0.47917 0.0
C346 C 0.33935 0.21635 0.48168 0.0
H347 H 0.33731 0.16067 0.44187 0.0
O348 O 0.31048 0.12981 0.52614 0.0
O349 O 0.29484 0.16664 0.5063 0.0
O350 O 0.28386 0.1194 0.47215 0.0
O351 O 0.28683 0.15916 0.44933 0.0
C352 C 0.37628 0.2485 0.49334 0.0
C353 C 0.35766 0.26327 0.50931 0.0
H354 H 0.31633 0.28601 0.53901 0.0
H355 H 0.26802 0.26751 0.54097 0.0
H356 H 0.38646 0.17426 0.43611 0.0
H357 H 0.40585 0.21544 0.46003 0.0
H358 H 0.39769 0.2552 0.49208 0.0
H359 H 0.36483 0.28136 0.51998 0.0
Mn360 Mn 0.14002 0.0306 0.76791 0.0
Mn361 Mn 0.19448 0.9903 0.75461 0.0
C362 C 0.15693 1.0021 0.80188 0.0
C363 C 0.11983 0.07206 0.77986 0.0
C364 C 0.13587 0.97449 0.73823 0.0
O365 O 0.15531 0.04742 0.7333 0.0
O366 O 0.18856 0.01743 0.72446 0.0
C367 C 0.23662 0.035 0.76039 0.0
N368 N 0.22689 0.00978 0.76777 0.0
C369 C 0.26647 1.00303 0.79757 0.0
C370 C 0.27696 0.02888 0.79023 0.0
C371 C 0.26185 0.04501 0.7717 0.0
C372 C 0.24084 0.99444 0.78619 0.0
H373 H 0.2253 0.04739 0.74593 0.0
C374 C 0.17432 0.03844 0.71819 0.0
O375 O 0.10695 0.05402 0.76458 0.0
O376 O 0.14478 0.0662 0.7883 0.0
N377 N 0.20429 0.96289 0.7808 0.0
C378 C 0.19251 0.93757 0.78412 0.0
C379 C 0.20514 0.91882 0.80192 0.0
C380 C 0.23046 0.92576 0.8151 0.0
C381 C 0.24302 0.95134 0.81018 0.0
C382 C 0.22908 0.96947 0.79282 0.0
H383 H 0.17345 0.93182 0.77349 0.0
O384 O 0.13204 0.01166 0.80276 0.0
O385 O 0.17206 0.01031 0.78141 0.0
O386 O 0.12557 0.99707 0.74594 0.0
O387 O 0.16155 0.96884 0.74132 0.0
C388 C 0.2692 0.95925 0.82126 0.0
C389 C 0.28071 0.98524 0.81532 0.0
H390 H 0.29663 0.03649 0.79859 0.0
H391 H 0.26978 0.065 0.76592 0.0
H392 H 0.19554 0.89892 0.80519 0.0
H393 H 0.24031 0.91113 0.82856 0.0
H394 H 0.28061 0.94554 0.83451 0.0
H395 H 0.30071 0.99119 0.82421 0.0
Mn396 Mn 0.25399 0.88796 0.01247 0.0
Mn397 Mn 0.22374 0.83272 0.9818 0.0
C398 C 0.21201 0.87125 0.02822 0.0
C399 C 0.28549 0.90486 0.04572 0.0
C400 C 0.21919 0.89013 0.95871 0.0
O401 O 0.28542 0.87312 0.99017 0.0
O402 O 0.26313 0.83707 0.97077 0.0
C403 C 0.25715 0.79092 0.0103 0.0
N404 N 0.23193 0.80109 1.0031 0.0
C405 C 0.20817 0.76189 0.02173 0.0
C406 C 0.23388 0.75092 0.02931 0.0
C407 C 0.25846 0.76564 0.0238 0.0
C408 C 0.20815 0.78754 0.00908 0.0
H409 H 0.2761 0.80191 1.00559 0.0
C410 C 0.28478 0.85227 0.97457 0.0
O411 O 0.27786 0.91999 0.02516 0.0
O412 O 0.27517 0.88028 0.04662 0.0
N413 N 0.18572 0.82479 0.98977 0.0
C414 C 0.16262 0.83829 0.98131 0.0
C415 C 0.13626 0.82669 0.986 0.0
C416 C 0.13393 0.80081 0.99826 0.0
C417 C 0.15801 0.78692 1.00604 0.0
C418 C 0.18368 0.79994 1.00175 0.0
H419 H 0.16431 0.85789 0.97134 0.0
O420 O 0.22078 0.89584 0.034 0.0
O421 O 0.22873 0.85627 0.01409 0.0
O422 O 0.23444 0.90258 0.97691 0.0
O423 O 0.21406 0.86437 0.9592 0.0
C424 C 0.15758 0.76053 0.01761 0.0
C425 C 0.18261 0.74818 0.0258 0.0
H426 H 0.23498 0.7312 0.03929 0.0
H427 H 0.27839 0.75732 0.02958 0.0
H428 H 0.11778 0.83747 0.97979 0.0
H429 H 0.11357 0.79173 1.00145 0.0
H430 H 0.13805 0.74978 0.02082 0.0
H431 H 0.18196 0.72813 0.03519 0.0
Mn432 Mn 0.2631 0.39966 0.02214 0.0
Mn433 Mn 0.2808 0.34343 0.98667 0.0
C434 C 0.22942 0.37541 0.99738 0.0
C435 C 0.25061 0.42174 0.06234 0.0
C436 C 0.29297 0.40124 0.96742 0.0
O437 O 0.30062 0.38955 0.03896 0.0
O438 O 0.30918 0.35047 0.01632 0.0
C439 C 0.27388 0.3017 0.02994 0.0
N440 N 0.2672 0.31127 1.00455 0.0
C441 C 0.23602 0.27302 0.9959 0.0
C442 C 0.2427 0.26267 0.02188 0.0
C443 C 0.26168 0.27711 0.03898 0.0
C444 C 0.24897 0.29755 0.98793 0.0
H445 H 0.28836 0.31276 0.04322 0.0
C446 C 0.31513 0.36837 0.03486 0.0
O447 O 0.26342 0.43454 0.04297 0.0
O448 O 0.24512 0.39586 0.05856 0.0
N449 N 0.25486 0.33394 0.95784 0.0
C450 C 0.2493 0.34755 0.93412 0.0
C451 C 0.23018 0.33617 0.91502 0.0
C452 C 0.21706 0.31091 0.92046 0.0
C453 C 0.22308 0.29731 0.945 0.0
C454 C 0.24254 0.30948 0.96313 0.0
H455 H 0.25929 0.36698 0.92982 0.0
O456 O 0.22568 0.40083 1.0039 0.0
O457 O 0.25273 0.36491 1.00575 0.0
O458 O 0.281 0.41311 0.98701 0.0
O459 O 0.29535 0.37532 0.96582 0.0
C460 C 0.21015 0.27238 0.95239 0.0
C461 C 0.21659 0.26027 0.97784 0.0
H462 H 0.2332 0.2438 0.029 0.0
H463 H 0.26683 0.26932 0.05912 0.0
H464 H 0.22552 0.34687 0.89618 0.0
H465 H 0.20226 0.30223 0.90573 0.0
H466 H 0.19493 0.26255 0.93882 0.0
H467 H 0.20622 0.2413 0.98346 0.0
Mn468 Mn 0.75426 0.13857 0.99914 0.0
Mn469 Mn 0.78848 0.08158 0.98233 0.0
C470 C 0.74302 0.11524 0.95884 0.0
C471 C 0.71637 0.15866 0.0204 0.0
C472 C 0.81277 0.1388 0.97474 0.0
O473 O 0.77181 0.12725 0.03555 0.0
O474 O 0.79481 0.08995 0.02207 0.0
C475 C 0.75605 0.04179 0.01498 0.0
N476 N 0.76584 0.05017 0.99038 0.0
C477 C 0.74426 0.01142 0.96745 0.0
C478 C 0.73414 1.00227 0.99257 0.0
C479 C 0.74002 0.01755 0.01643 0.0
C480 C 0.76036 0.03558 0.9673 0.0
H481 H 0.76038 0.05351 0.03337 0.0
C482 C 0.78751 0.10699 0.04046 0.0
O483 O 0.73887 0.17285 0.0157 0.0
O484 O 0.71643 0.13304 0.01376 0.0
N485 N 0.78379 0.07071 0.94481 0.0
C486 C 0.79265 0.08372 0.92187 0.0
C487 C 0.78752 0.07164 0.89613 0.0
C488 C 0.7732 0.04639 0.89421 0.0
C489 C 0.76396 0.03354 0.91804 0.0
C490 C 0.76998 0.04639 0.94317 0.0
H491 H 0.80299 0.10343 0.92316 0.0
O492 O 0.73737 0.14095 0.96137 0.0
O493 O 0.75548 0.1042 0.97981 0.0
O494 O 0.79264 0.15189 0.985 0.0
O495 O 0.81289 0.11272 0.97269 0.0
C496 C 0.7483 1.0089 0.91778 0.0
C497 C 0.73846 0.99784 0.94246 0.0
H498 H 0.72158 0.9837 0.99375 0.0
H499 H 0.73215 0.01071 0.03588 0.0
H500 H 0.79431 0.08191 0.87779 0.0
H501 H 0.76901 0.03727 0.8743 0.0
H502 H 0.74327 0.99855 0.89864 0.0
H503 H 0.72605 0.97912 0.94194 0.0
Mn504 Mn 0.14002 0.5162 0.26188 0.0
Mn505 Mn 0.07943 0.52945 0.2923 0.0
C506 C 0.11986 0.4833 0.28936 0.0
C507 C 0.16569 0.50243 0.22437 0.0
C508 C 0.13469 0.54689 0.31689 0.0
O509 O 0.12682 0.54955 0.24114 0.0
O510 O 0.08984 0.55918 0.26614 0.0
C511 C 0.04599 0.52246 0.24107 0.0
N512 N 0.05121 0.51542 0.26762 0.0
C513 C 0.01265 0.48338 0.26695 0.0
C514 C 1.00687 0.49035 0.23967 0.0
C515 C 0.02371 0.50988 0.22663 0.0
C516 C 0.03557 0.49613 0.28011 0.0
H517 H 0.05867 0.53758 0.2309 0.0
C518 C 0.10674 0.56483 0.24701 0.0
O519 O 0.17614 0.51875 0.24302 0.0
O520 O 0.14016 0.49414 0.22737 0.0
N521 N 0.06487 0.50361 0.31796 0.0
C522 C 0.07073 0.50194 0.34528 0.0
C523 C 0.05537 0.48376 0.36155 0.0
C524 C 0.03311 0.46859 0.34988 0.0
C525 C 0.02605 0.4722 0.32219 0.0
C526 C 0.04256 0.49013 0.30686 0.0
H527 H 0.08703 0.51438 0.35459 0.0
O528 O 0.14596 0.48251 0.28355 0.0
O529 O 0.10554 0.50271 0.27769 0.0
O530 O 0.14886 0.5399 0.29623 0.0
O531 O 0.1084 0.54294 0.31855 0.0
C532 C 1.00269 0.45943 0.30947 0.0
C533 C 0.99624 0.4647 0.28176 0.0
H534 H 0.98945 0.48096 0.22858 0.0
H535 H 0.01939 0.51539 0.20556 0.0
H536 H 0.06044 0.48177 0.38311 0.0
H537 H 0.02109 0.45482 0.36255 0.0
H538 H 0.98947 0.44559 0.32085 0.0
H539 H 0.97828 0.45468 0.27219 0.0
Mn540 Mn 0.76308 0.89634 0.51079 0.0
Mn541 Mn 0.78871 0.84888 0.46839 0.0
C542 C 0.73568 0.8794 0.47511 0.0
C543 C 0.74081 0.90762 0.55126 0.0
C544 C 0.80276 0.90946 0.4641 0.0
O545 O 0.79695 0.88262 0.53161 0.0
O546 O 0.81141 0.84978 0.50316 0.0
C547 C 0.77511 0.7994 0.50066 0.0
N548 N 0.77272 0.81396 0.47704 0.0
C549 C 0.74473 0.77824 0.45579 0.0
C550 C 0.747 0.7628 0.47984 0.0
C551 C 0.76215 0.7735 0.50241 0.0
C552 C 0.75784 0.80404 0.45535 0.0
H553 H 0.78682 0.80748 0.51803 0.0
C554 C 0.81323 0.8633 0.52566 0.0
O555 O 0.75701 0.92514 0.53917 0.0
O556 O 0.73828 0.8835 0.54029 0.0
N557 N 0.76884 0.84534 0.43422 0.0
C558 C 0.76842 0.86291 0.4126 0.0
C559 C 0.7535 0.85557 0.38864 0.0
C560 C 0.73957 0.8301 0.38696 0.0
C561 C 0.74083 0.81211 0.40922 0.0
C562 C 0.75588 0.8206 0.43264 0.0
H563 H 0.77921 0.88246 0.41368 0.0
O564 O 0.73008 0.9025 0.48669 0.0
O565 O 0.75688 0.86641 0.48529 0.0
O566 O 0.78759 0.91721 0.48369 0.0
O567 O 0.80553 0.88438 0.45741 0.0
C568 C 0.72785 0.78604 0.40905 0.0
C569 C 0.72988 0.76908 0.43227 0.0
H570 H 0.73711 0.74278 0.48123 0.0
H571 H 0.76393 0.76175 0.52108 0.0
H572 H 0.75276 0.86951 0.37148 0.0
H573 H 0.72808 0.82451 0.36844 0.0
H574 H 0.71612 0.77889 0.3912 0.0
H575 H 0.71962 0.74916 0.43197 0.0
Mn576 Mn 0.88976 0.03389 0.25731 0.0
Mn577 Mn 0.94904 0.0224 0.29342 0.0
C578 C 0.91415 0.07008 0.27785 0.0
C579 C 0.86557 0.04332 0.21644 0.0
C580 C 0.89198 0.01103 0.31591 0.0
O581 O 0.89986 0.99524 0.24494 0.0
O582 O 0.93962 0.99065 0.26953 0.0
C583 C 0.98705 0.02351 0.24661 0.0
N584 N 0.97966 0.03333 0.27146 0.0
C585 C 0.01833 0.06524 0.27255 0.0
C586 C 0.02646 0.05536 0.24704 0.0
C587 C 0.01071 0.03445 0.23399 0.0
C588 C 0.99455 0.05358 0.28409 0.0
H589 H 0.97494 1.0075 0.23649 0.0
C590 C 0.92105 0.98162 0.25255 0.0
O591 O 0.85338 0.03214 0.23716 0.0
O592 O 0.89212 0.04796 0.21894 0.0
N593 N 0.96097 0.05129 0.31759 0.0
C594 C 0.95038 0.05836 0.34218 0.0
C595 C 0.96401 0.07861 0.35814 0.0
C596 C 0.98831 0.09143 0.34863 0.0
C597 C 0.999 0.08356 0.32343 0.0
C598 C 0.98486 0.06283 0.3087 0.0
H599 H 0.93178 0.04851 0.34964 0.0
O600 O 0.8881 0.07231 0.27125 0.0
O601 O 0.92536 0.04688 0.27179 0.0
O602 O 0.87833 0.01923 0.29492 0.0
O603 O 0.91848 0.01106 0.3176 0.0
C604 C 0.02314 0.09544 0.31235 0.0
C605 C 0.03273 0.08638 0.28686 0.0
H606 H 0.04468 0.06376 0.23723 0.0
H607 H 0.01678 0.02679 0.21425 0.0
H608 H 0.95581 0.0843 0.37774 0.0
H609 H 0.99865 0.10721 0.3609 0.0
H610 H 0.03441 0.11166 0.32318 0.0
H611 H 0.05119 0.09581 0.27844 0.0
Mn612 Mn 0.25988 0.65307 0.50591 0.0
Mn613 Mn 0.29779 0.60062 0.48318 0.0
C614 C 0.2485 0.63208 0.46448 0.0
C615 C 0.22426 0.67171 0.53138 0.0
C616 C 0.3183 0.65953 0.48209 0.0
O617 O 0.27945 0.6394 0.54053 0.0
O618 O 0.3031 0.6038 0.52374 0.0
C619 C 0.2674 0.55481 0.5095 0.0
N620 N 0.27666 0.5673 0.48644 0.0
C621 C 0.25606 0.53189 0.45788 0.0
C622 C 0.24643 0.5186 0.48134 0.0
C623 C 0.25211 0.53013 0.50725 0.0
C624 C 0.27132 0.55637 0.4614 0.0
H625 H 0.27156 0.56366 0.52946 0.0
C626 C 0.29534 0.61892 0.54358 0.0
O627 O 0.24645 0.68565 0.52542 0.0
O628 O 0.22248 0.64662 0.52256 0.0
N629 N 0.29381 0.59516 0.44451 0.0
C630 C 0.30326 0.6113 0.42386 0.0
C631 C 0.29906 0.60279 0.39662 0.0
C632 C 0.28518 0.57784 0.3909 0.0
C633 C 0.27532 0.56176 0.41245 0.0
C634 C 0.28051 0.57107 0.43921 0.0
H635 H 0.31396 0.63049 0.42813 0.0
O636 O 0.24128 0.65715 0.46904 0.0
O637 O 0.26278 0.62066 0.48401 0.0
O638 O 0.29627 0.66924 0.49187 0.0
O639 O 0.32146 0.63396 0.47816 0.0
C640 C 0.26033 0.53699 0.40843 0.0
C641 C 0.25064 0.52211 0.43113 0.0
H642 H 0.23448 0.49965 0.47968 0.0
H643 H 0.24463 0.52006 0.52544 0.0
H644 H 0.30653 0.61541 0.38006 0.0
H645 H 0.28216 0.57126 0.36987 0.0
H646 H 0.25586 0.52937 0.38796 0.0
H647 H 0.23883 0.50327 0.42777 0.0
Mn648 Mn 0.38443 0.52422 0.75689 0.0
Mn649 Mn 0.43906 0.51546 0.80051 0.0
C650 C 0.40108 0.56057 0.78328 0.0
C651 C 0.3647 0.53525 0.71427 0.0
C652 C 0.38067 0.49714 0.81374 0.0
O653 O 0.4003 0.48812 0.74351 0.0
O654 O 0.43597 0.48496 0.77375 0.0
C655 C 0.48316 0.52308 0.75981 0.0
N656 N 0.47144 0.53041 0.78379 0.0
C657 C 0.50854 0.56274 0.79379 0.0
C658 C 0.52105 0.55553 0.76922 0.0
C659 C 0.50819 0.53575 0.75206 0.0
C660 C 0.48323 0.54995 0.80006 0.0
H661 H 0.47353 0.50759 0.74677 0.0
C662 C 0.42122 0.47571 0.75359 0.0
O663 O 0.35137 0.52065 0.73202 0.0
O664 O 0.39024 0.54206 0.72048 0.0
N665 N 0.4452 0.54297 0.82797 0.0
C666 C 0.43118 0.5466 0.8516 0.0
C667 C 0.44119 0.56586 0.87093 0.0
C668 C 0.46607 0.58039 0.86629 0.0
C669 C 0.48081 0.57537 0.84243 0.0
C670 C 0.46948 0.55641 0.82359 0.0
H671 H 0.41239 0.53502 0.85558 0.0
O672 O 0.37617 0.56053 0.77282 0.0
O673 O 0.41615 0.53954 0.77748 0.0
O674 O 0.36946 0.50517 0.79131 0.0
O675 O 0.40655 0.49994 0.81945 0.0
C676 C 0.50666 0.58789 0.83694 0.0
C677 C 0.52039 0.5818 0.8125 0.0
H678 H 0.54057 0.56496 0.76338 0.0
H679 H 0.51771 0.53006 0.73307 0.0
H680 H 0.42991 0.56928 0.88951 0.0
H681 H 0.47389 0.59501 0.88139 0.0
H682 H 0.51605 0.60247 0.85124 0.0
H683 H 0.54009 0.59185 0.80835 0.0
Mn684 Mn 0.62929 1.00418 0.75011 0.0
Mn685 Mn 0.57468 0.02474 0.78665 0.0
C686 C 0.60792 0.97355 0.77934 0.0
C687 C 0.6465 0.98593 0.70963 0.0
C688 C 0.63419 0.03511 0.80535 0.0
O689 O 0.61891 0.0396 0.7312 0.0
O690 O 0.58501 0.05279 0.75868 0.0
C691 C 0.53473 0.02091 0.73982 0.0
N692 N 0.54246 0.01346 0.76568 0.0
C693 C 0.50173 0.98459 0.7697 0.0
C694 C 0.49334 0.99202 0.74317 0.0
C695 C 0.50997 0.01018 0.72813 0.0
C696 C 0.5269 0.99553 0.78009 0.0
H697 H 0.54731 0.03493 0.72813 0.0
C698 C 0.60086 0.05673 0.7383 0.0
O699 O 0.66238 1.00054 0.72604 0.0
O700 O 0.62075 0.98292 0.71629 0.0
N701 N 0.56085 1.00074 0.81435 0.0
C702 C 0.56971 0.9987 0.8409 0.0
C703 C 0.55508 0.98172 0.85896 0.0
C704 C 0.53061 0.96817 0.84996 0.0
C705 C 0.52064 0.97232 0.82319 0.0
C706 C 0.53646 0.98903 0.80596 0.0
H707 H 0.58775 0.01002 0.84824 0.0
O708 O 0.63266 0.96937 0.7706 0.0
O709 O 0.59556 0.99521 0.76973 0.0
O710 O 0.64547 0.02573 0.78376 0.0
O711 O 0.6079 0.03523 0.80903 0.0
C712 C 0.49514 0.9613 0.81325 0.0
C713 C 0.48586 0.96714 0.78641 0.0
H714 H 0.47409 0.98402 0.7342 0.0
H715 H 0.50365 0.01602 0.70763 0.0
H716 H 0.56244 0.97941 0.87987 0.0
H717 H 0.51921 0.95531 0.86401 0.0
H718 H 0.48239 0.94845 0.82616 0.0
H719 H 0.46624 0.95849 0.77899 0.0
Mn720 Mn 0.76333 0.64114 0.0141 0.0
Mn721 Mn 0.77555 0.69853 0.97805 0.0
C722 C 0.8031 0.6682 0.02333 0.0
C723 C 0.74159 0.62149 0.05221 0.0
C724 C 0.78589 0.64138 0.9558 0.0
O725 O 0.72537 0.64831 0.99597 0.0
O726 O 0.73587 0.68819 0.97547 0.0
C727 C 0.74399 0.73715 0.01156 0.0
N728 N 0.76807 0.73001 0.9996 0.0
C729 C 0.78947 0.77356 0.01057 0.0
C730 C 0.76494 0.78145 0.02311 0.0
C731 C 0.74219 0.76304 0.02386 0.0
C732 C 0.79038 0.74713 0.99966 0.0
H733 H 0.72624 0.72329 0.01147 0.0
C734 C 0.71863 0.66922 0.98188 0.0
O735 O 0.74883 0.60643 0.03167 0.0
O736 O 0.7471 0.6474 0.05052 0.0
N737 N 0.81311 0.7116 0.97839 0.0
C738 C 0.83539 0.7004 0.96622 0.0
C739 C 0.85939 0.71648 0.96239 0.0
C740 C 0.86004 0.74396 0.97078 0.0
C741 C 0.83732 0.7547 0.98447 0.0
C742 C 0.81406 0.7376 0.98783 0.0
H743 H 0.8346 0.67957 0.95888 0.0
O744 O 0.80185 0.64283 0.03098 0.0
O745 O 0.78097 0.67696 0.01098 0.0
O746 O 0.77898 0.62765 0.97703 0.0
O747 O 0.78437 0.66741 0.95451 0.0
C748 C 0.83636 0.78192 0.99408 0.0
C749 C 0.81276 0.79111 1.00775 0.0
H750 H 0.76327 0.80165 0.03202 0.0
H751 H 0.72316 0.76899 0.0334 0.0
H752 H 0.87702 0.70799 0.95222 0.0
H753 H 0.87805 0.7566 0.96631 0.0
H754 H 0.8536 0.79605 0.99108 0.0
H755 H 0.81251 0.81189 0.01545 0.0
Mn756 Mn 0.89342 0.51663 0.75665 0.0
Mn757 Mn 0.83854 0.47653 0.77359 0.0
C758 C 0.87803 0.4822 0.7272 0.0
C759 C 0.91185 0.55658 0.73711 0.0
C760 C 0.89639 0.46765 0.79615 0.0
O761 O 0.87587 0.53815 0.78701 0.0
O762 O 0.841 0.50937 0.79833 0.0
C763 C 0.79516 0.51541 0.7565 0.0
N764 N 0.80682 0.49035 0.75442 0.0
C765 C 0.77196 0.47547 0.72143 0.0
C766 C 0.75952 0.50108 0.72329 0.0
C767 C 0.77126 0.52118 0.74081 0.0
C768 C 0.79603 0.47107 0.7372 0.0
H769 H 0.80399 0.53089 0.77003 0.0
C770 C 0.85525 0.5316 0.80174 0.0
O771 O 0.92548 0.54338 0.75589 0.0
O772 O 0.88749 0.5469 0.73006 0.0
N773 N 0.83269 0.44416 0.75196 0.0
C774 C 0.84616 0.41995 0.75376 0.0
C775 C 0.83697 0.39766 0.73758 0.0
C776 C 0.81357 0.40025 0.72025 0.0
C777 C 0.79932 0.42497 0.71962 0.0
C778 C 0.80958 0.44654 0.73606 0.0
H779 H 0.86389 0.41771 0.76733 0.0
O780 O 0.90314 0.49209 0.7258 0.0
O781 O 0.86239 0.49306 0.74562 0.0
O782 O 0.9076 0.48855 0.78482 0.0
O783 O 0.8708 0.46073 0.79308 0.0
C784 C 0.77497 0.42884 0.7038 0.0
C785 C 0.7613 0.45408 0.7047 0.0
H786 H 0.74095 0.50552 0.71139 0.0
H787 H 0.76181 0.54101 0.74233 0.0
H788 H 0.84783 0.37851 0.73853 0.0
H789 H 0.80649 0.383 0.70784 0.0
H790 H 0.76655 0.41253 0.69088 0.0
H791 H 0.74264 0.45684 0.69236 0.0
Mn792 Mn 0.76836 0.38539 0.52372 0.0
Mn793 Mn 0.73352 0.33821 0.48497 0.0
C794 C 0.72366 0.37204 0.53498 0.0
C795 C 0.79818 0.3975 0.56038 0.0
C796 C 0.73838 0.39751 0.46861 0.0
O797 O 0.79947 0.3688 0.5021 0.0
O798 O 0.77373 0.33959 0.47609 0.0
C799 C 0.76026 0.2894 0.50862 0.0
N800 N 0.73685 0.30335 0.50214 0.0
C801 C 0.70774 0.2649 0.51415 0.0
C802 C 0.73152 0.25009 0.52095 0.0
C803 C 0.75789 0.26249 0.51843 0.0
C804 C 0.71139 0.29193 0.50532 0.0
H805 H 0.78058 0.29865 0.50609 0.0
C806 C 0.79699 0.35093 0.48314 0.0
O807 O 0.79394 0.41406 0.54006 0.0
O808 O 0.78595 0.37367 0.55895 0.0
N809 N 0.69453 0.33378 0.49056 0.0
C810 C 0.67368 0.35094 0.48334 0.0
C811 C 0.64595 0.34199 0.48559 0.0
C812 C 0.63997 0.31512 0.49408 0.0
C813 C 0.66178 0.29756 0.50058 0.0
C814 C 0.68896 0.30796 0.49897 0.0
H815 H 0.67821 0.37135 0.47607 0.0
O816 O 0.73443 0.39514 0.54335 0.0
O817 O 0.73961 0.35662 0.52046 0.0
O818 O 0.75422 0.40508 0.48871 0.0
O819 O 0.72855 0.3732 0.46587 0.0
C820 C 0.65766 0.27001 0.50821 0.0
C821 C 0.68059 0.25379 0.51531 0.0
H822 H 0.72978 0.22915 0.52804 0.0
H823 H 0.77635 0.25119 0.5236 0.0
H824 H 0.62924 0.3556 0.48032 0.0
H825 H 0.61856 0.30812 0.49533 0.0
H826 H 0.63688 0.26126 0.50922 0.0
H827 H 0.67711 0.23281 0.52167 0.0
Mn828 Mn 0.64826 0.52275 0.27383 0.0
Mn829 Mn 0.70073 0.48278 0.25447 0.0
C830 C 0.66951 0.4941 0.30531 0.0
C831 C 0.6324 0.564 0.29189 0.0
C832 C 0.64039 0.46879 0.24162 0.0
O833 O 0.66018 0.54034 0.23814 0.0
O834 O 0.69436 0.51204 0.22649 0.0
C835 C 0.74597 0.52442 0.25998 0.0
N836 N 0.73488 0.4996 0.26685 0.0
C837 C 0.77367 0.49043 0.29702 0.0
C838 C 0.78557 0.51583 0.29012 0.0
C839 C 0.77164 0.5329 0.27154 0.0
C840 C 0.74811 0.48302 0.28473 0.0
H841 H 0.73528 0.5377 0.24582 0.0
C842 C 0.67902 0.53278 0.22189 0.0
O843 O 0.61607 0.54814 0.27717 0.0
O844 O 0.65791 0.5565 0.29489 0.0
N845 N 0.70952 0.45397 0.27945 0.0
C846 C 0.69471 0.43063 0.28481 0.0
C847 C 0.70564 0.41144 0.30321 0.0
C848 C 0.73164 0.41646 0.31595 0.0
C849 C 0.74655 0.44056 0.31004 0.0
C850 C 0.73479 0.45874 0.29121 0.0
H851 H 0.6746 0.42681 0.27535 0.0
O852 O 0.64451 0.50251 0.3091 0.0
O853 O 0.68128 0.50259 0.28304 0.0
O854 O 0.63049 0.49035 0.25231 0.0
O855 O 0.6663 0.46364 0.24168 0.0
C856 C 0.77242 0.44744 0.32241 0.0
C857 C 0.78595 0.47238 0.31594 0.0
H858 H 0.8053 0.5225 0.29911 0.0
H859 H 0.78063 0.55259 0.26621 0.0
H860 H 0.69397 0.39291 0.30769 0.0
H861 H 0.73989 0.40174 0.33034 0.0
H862 H 0.78196 0.43384 0.33715 0.0
H863 H 0.80569 0.47758 0.3258 0.0
H864 H 0.08301 0.44019 0.28071 0.0
H865 H 0.13543 0.48022 0.34231 0.0
H866 H 0.12195 0.4451 0.37608 0.0
H867 H 0.02721 0.41094 0.32485 0.0
H868 H 0.02635 0.38016 0.30477 0.0
H869 H 0.03656 0.41208 0.2892 0.0
H870 H 0.08175 0.38634 0.27501 0.0
H871 H 0.07138 0.35634 0.29386 0.0
H872 H 0.10424 0.37313 0.30157 0.0
H873 H 0.10179 0.40687 0.40341 0.0
H874 H 0.08109 0.36447 0.42159 0.0
H875 H 0.04617 0.34498 0.34107 0.0
C876 C 0.09088 0.44185 0.30156 0.0
C877 C 0.10901 0.46368 0.30954 0.0
C878 C 0.12061 0.46426 0.33632 0.0
C879 C 0.11315 0.44437 0.35555 0.0
C880 C 0.09497 0.42329 0.3473 0.0
C881 C 0.08438 0.42148 0.32083 0.0
C882 C 0.06811 0.39476 0.31662 0.0
C883 C 0.03776 0.39986 0.30831 0.0
C884 C 0.08222 0.37657 0.29551 0.0
C885 C 0.07019 0.38257 0.34512 0.0
C886 C 0.08565 0.39953 0.36246 0.0
C887 C 0.08982 0.3933 0.38998 0.0
C888 C 0.07786 0.36912 0.40014 0.0
C889 C 0.06205 0.35115 0.38281 0.0
C890 C 0.05833 0.35806 0.35485 0.0
H891 H 0.95166 0.7941 0.58722 0.0
H892 H 0.92151 0.81696 0.66721 0.0
H893 H 0.88071 0.83732 0.64561 0.0
H894 H 0.92857 0.85358 0.55102 0.0
H895 H 0.91751 0.83541 0.52045 0.0
H896 H 0.94504 0.82217 0.54176 0.0
H897 H 0.91794 0.77619 0.54627 0.0
H898 H 0.8904 0.78924 0.52481 0.0
H899 H 0.88284 0.77616 0.55834 0.0
H900 H 0.84442 0.85761 0.61635 0.0
H901 H 0.81162 0.87269 0.58053 0.0
H902 H 0.86196 0.83495 0.51867 0.0
C903 C 0.93641 0.80323 0.60018 0.0
C904 C 0.94025 0.804 0.62904 0.0
C905 C 0.91951 0.81609 0.64513 0.0
C906 C 0.89608 0.82784 0.63305 0.0
C907 C 0.89316 0.82713 0.60475 0.0
C908 C 0.9124 0.81482 0.58842 0.0
C909 C 0.90347 0.81654 0.55844 0.0
C910 C 0.92493 0.8329 0.54195 0.0
C911 C 0.89836 0.78782 0.54625 0.0
C912 C 0.87646 0.83197 0.56067 0.0
C913 C 0.87119 0.83803 0.58764 0.0
C914 C 0.84814 0.85281 0.59514 0.0
C915 C 0.82969 0.86143 0.57457 0.0
C916 C 0.8341 0.85502 0.54673 0.0
C917 C 0.85789 0.84004 0.53976 0.0
H918 H 0.44212 0.59797 0.77058 0.0
H919 H 0.37947 0.57838 0.83013 0.0
H920 H 0.3915 0.6209 0.85549 0.0
H921 H 0.49486 0.63557 0.81383 0.0
H922 H 0.50002 0.65914 0.78638 0.0
H923 H 0.48832 0.62466 0.77886 0.0
H924 H 0.44776 0.64976 0.75163 0.0
H925 H 0.45905 0.68281 0.76455 0.0
H926 H 0.42426 0.67045 0.77064 0.0
H927 H 0.41202 0.66295 0.87587 0.0
H928 H 0.4384 0.70459 0.88943 0.0
H929 H 0.48421 0.70142 0.81407 0.0
C930 C 0.43155 0.60248 0.78935 0.0
C931 C 0.41084 0.58444 0.79938 0.0
C932 C 0.39603 0.59162 0.82286 0.0
C933 C 0.40261 0.61573 0.83723 0.0
C934 C 0.42316 0.6331 0.82704 0.0
C935 C 0.43719 0.62715 0.80344 0.0
C936 C 0.45643 0.65087 0.79576 0.0
C937 C 0.48667 0.64191 0.79354 0.0
C938 C 0.44626 0.66426 0.76906 0.0
C939 C 0.45277 0.66984 0.82005 0.0
C940 C 0.43311 0.6592 0.83752 0.0
C941 C 0.42716 0.67173 0.86221 0.0
C942 C 0.44229 0.69533 0.86975 0.0
C943 C 0.46307 0.70629 0.85266 0.0
C944 C 0.46793 0.6938 0.82714 0.0
H945 H 0.6171 0.24704 0.11546 0.0
H946 H 0.54828 0.21536 0.06543 0.0
H947 H 0.58105 0.18993 0.03725 0.0
H948 H 0.6644 0.25661 0.05884 0.0
H949 H 0.69475 0.2471 0.0785 0.0
H950 H 0.66596 0.26252 0.09526 0.0
H951 H 0.66283 0.22129 0.12828 0.0
H952 H 0.69159 0.20575 0.11163 0.0
H953 H 0.6591 0.18716 0.11445 0.0
H954 H 0.6204 0.16575 0.01645 0.0
H955 H 0.66472 0.1472 1.00118 0.0
H956 H 0.70949 0.1973 0.06138 0.0
C957 C 0.609 0.2347 0.09857 0.0
C958 C 0.5801 0.233 0.09271 0.0
C959 C 0.57029 0.21697 0.07026 0.0
C960 C 0.58875 0.20241 0.05418 0.0
C961 C 0.61706 0.20447 0.06047 0.0
C962 C 0.62727 0.22048 0.08185 0.0
C963 C 0.6588 0.21963 0.08358 0.0
C964 C 0.67174 0.24817 0.07875 0.0
C965 C 0.66865 0.20775 0.11112 0.0
C966 C 0.66465 0.20031 0.06006 0.0
C967 C 0.64014 0.19166 0.04728 0.0
C968 C 0.63974 0.17265 0.02603 0.0
C969 C 0.66501 0.16218 0.01757 0.0
C970 C 0.69048 0.17103 0.0299 0.0
C971 C 0.69033 0.19056 0.0513 0.0
H972 H 0.07641 0.6101 0.25989 0.0
H973 H 0.12468 0.57493 0.19506 0.0
H974 H 0.11292 0.61385 0.16515 0.0
H975 H 0.02185 0.63531 0.21832 0.0
H976 H 0.01789 0.66643 0.23757 0.0
H977 H 0.031 0.6364 0.25426 0.0
H978 H 0.07492 0.66376 0.27045 0.0
H979 H 0.06191 0.69394 0.25388 0.0
H980 H 0.09572 0.68153 0.24564 0.0
H981 H 0.09221 0.65454 0.14081 0.0
H982 H 0.06747 0.69586 0.12541 0.0
H983 H 0.03552 0.70631 0.20696 0.0
C984 C 0.08473 0.61069 0.23949 0.0
C985 C 0.10146 0.58936 0.22985 0.0
C986 C 0.11197 0.59104 0.20302 0.0
C987 C 0.10533 0.61305 0.18581 0.0
C988 C 0.08852 0.63353 0.19584 0.0
C989 C 0.07871 0.63276 0.2222 0.0
C990 C 0.06096 0.65733 0.22796 0.0
C991 C 0.03116 0.64832 0.23493 0.0
C992 C 0.07418 0.6752 0.25084 0.0
C993 C 0.06185 0.67177 0.20056 0.0
C994 C 0.07772 0.65762 0.18224 0.0
C995 C 0.08013 0.66603 0.15513 0.0
C996 C 0.06596 0.68946 0.14653 0.0
C997 C 0.04993 0.70447 0.16506 0.0
C998 C 0.04811 0.69557 0.19248 0.0
H999 H 0.59905 0.79236 0.43913 0.0
H1000 H 0.58885 0.84319 0.36734 0.0
H1001 H 0.63363 0.86688 0.37827 0.0
H1002 H 0.63782 0.84095 0.48563 0.0
H1003 H 0.65834 0.81314 0.49772 0.0
H1004 H 0.62353 0.8064 0.48505 0.0
H1005 H 0.6473 0.77082 0.45319 0.0
H1006 H 0.68166 0.78212 0.46375 0.0
H1007 H 0.67125 0.78304 0.42803 0.0
H1008 H 0.67706 0.88754 0.39941 0.0
H1009 H 0.71829 0.90159 0.42736 0.0
H1010 H 0.70482 0.83243 0.48092 0.0
C1011 C 0.60606 0.80894 0.42617 0.0
C1012 C 0.59016 0.81685 0.403 0.0
C1013 C 0.60052 0.83748 0.38556 0.0
C1014 C 0.62591 0.85091 0.39156 0.0
C1015 C 0.64127 0.84258 0.41443 0.0
C1016 C 0.63192 0.82188 0.43134 0.0
C1017 C 0.65366 0.81527 0.45314 0.0
C1018 C 0.64256 0.81915 0.48208 0.0
C1019 C 0.66414 0.78608 0.44928 0.0
C1020 C 0.67596 0.83659 0.44683 0.0
C1021 C 0.66829 0.85213 0.4244 0.0
C1022 C 0.68371 0.8751 0.41652 0.0
C1023 C 0.70708 0.88291 0.43243 0.0
C1024 C 0.71527 0.86741 0.45547 0.0
C1025 C 0.69974 0.84375 0.46253 0.0
H1026 H 0.45336 0.36415 0.63933 0.0
H1027 H 0.49089 0.31564 0.70406 0.0
H1028 H 0.47641 0.34968 0.73808 0.0
H1029 H 0.47331 0.42898 0.6658 0.0
H1030 H 0.44165 0.44552 0.65564 0.0
H1031 H 0.4534 0.41658 0.63655 0.0
H1032 H 0.40631 0.39147 0.64393 0.0
H1033 H 0.39437 0.42039 0.66302 0.0
H1034 H 0.39394 0.38682 0.67819 0.0
H1035 H 0.46108 0.39034 0.76446 0.0
H1036 H 0.44479 0.43432 0.78199 0.0
H1037 H 0.41584 0.45626 0.70045 0.0
C1038 C 0.4584 0.36049 0.66068 0.0
C1039 C 0.47337 0.33713 0.66897 0.0
C1040 C 0.47942 0.33325 0.69715 0.0
C1041 C 0.47127 0.35249 0.71663 0.0
C1042 C 0.45685 0.37537 0.70766 0.0
C1043 C 0.45029 0.37937 0.68039 0.0
C1044 C 0.43532 0.4061 0.67606 0.0
C1045 C 0.45192 0.42543 0.65741 0.0
C1046 C 0.40572 0.40087 0.66462 0.0
C1047 C 0.43494 0.41682 0.70516 0.0
C1048 C 0.44746 0.39868 0.72302 0.0
C1049 C 0.45099 0.40454 0.75073 0.0
C1050 C 0.44176 0.42966 0.76045 0.0
C1051 C 0.42895 0.44869 0.7426 0.0
C1052 C 0.42516 0.44196 0.71463 0.0
H1053 H 0.93069 0.25692 0.95841 0.0
H1054 H 0.96324 0.20653 0.89359 0.0
H1055 H 0.92493 0.17333 0.89957 0.0
H1056 H 0.90798 0.20248 1.00153 0.0
H1057 H 0.87649 0.21856 0.0118 0.0
H1058 H 0.90605 0.23927 1.00227 0.0
H1059 H 0.87593 0.26388 0.96584 0.0
H1060 H 0.84621 0.24331 0.97532 0.0
H1061 H 0.85709 0.24394 0.94026 0.0
H1062 H 0.88648 0.14372 0.91471 0.0
H1063 H 0.84657 0.1206 0.93511 0.0
H1064 H 0.83461 0.19065 0.98818 0.0
C1065 C 0.92961 0.239 0.94535 0.0
C1066 C 0.95013 0.23442 0.92549 0.0
C1067 C 0.94785 0.2107 0.90881 0.0
C1068 C 0.92616 0.19161 0.9121 0.0
C1069 C 0.90653 0.19658 0.93192 0.0
C1070 C 0.90769 0.2198 0.94805 0.0
C1071 C 0.88356 0.2199 0.96772 0.0
C1072 C 0.89416 0.22006 0.9976 0.0
C1073 C 0.86457 0.24421 0.96193 0.0
C1074 C 0.86905 0.19286 0.96037 0.0
C1075 C 0.88298 0.17982 0.93978 0.0
C1076 C 0.87504 0.15393 0.93044 0.0
C1077 C 0.85218 0.14095 0.94226 0.0
C1078 C 0.83686 0.15391 0.96295 0.0
C1079 C 0.84545 0.18039 0.97204 0.0
H1080 H 0.29414 0.07713 0.43745 0.0
H1081 H 0.29621 0.15865 0.40167 0.0
H1082 H 0.31369 0.14007 0.35944 0.0
H1083 H 0.3549 0.05196 0.40606 0.0
H1084 H 0.34102 0.01826 0.39826 0.0
H1085 H 0.32806 0.03714 0.42685 0.0
H1086 H 0.27798 0.03223 0.40703 0.0
H1087 H 0.29076 0.01305 0.37854 0.0
H1088 H 0.27065 0.04323 0.37251 0.0
H1089 H 0.33553 0.1152 0.3228 0.0
H1090 H 0.35279 0.08249 0.28909 0.0
H1091 H 0.33256 0.01522 0.34341 0.0
C1092 C 0.29792 0.09095 0.42061 0.0
C1093 C 0.29407 0.11955 0.42353 0.0
C1094 C 0.29915 0.13677 0.40064 0.0
C1095 C 0.30924 0.12646 0.37629 0.0
C1096 C 0.31363 0.09863 0.37436 0.0
C1097 C 0.30748 0.08083 0.39541 0.0
C1098 C 0.31341 0.05155 0.38679 0.0
C1099 C 0.33567 0.03899 0.40562 0.0
C1100 C 0.2866 0.03397 0.38618 0.0
C1101 C 0.32428 0.05609 0.35802 0.0
C1102 C 0.32457 0.08358 0.3517 0.0
C1103 C 0.33504 0.09352 0.32723 0.0
C1104 C 0.34501 0.07483 0.3083 0.0
C1105 C 0.34395 0.04641 0.31359 0.0
C1106 C 0.33341 0.03687 0.33882 0.0
H1107 H 0.2061 0.02179 0.67478 0.0
H1108 H 0.15768 0.08972 0.70365 0.0
H1109 H 0.16967 0.11593 0.66245 0.0
H1110 H 0.26096 0.06156 0.64601 0.0
H1111 H 0.26513 0.03963 0.61674 0.0
H1112 H 0.25217 0.02562 0.64814 0.0
H1113 H 0.20849 1.00671 0.62218 0.0
H1114 H 0.2213 0.02069 0.59067 0.0
H1115 H 0.1874 0.02968 0.60228 0.0
H1116 H 0.18937 0.13621 0.62017 0.0
H1117 H 0.21372 0.14855 0.57792 0.0
H1118 H 0.24744 0.06706 0.57395 0.0
C1119 C 0.19788 0.04213 0.67238 0.0
C1120 C 0.18091 0.05363 0.69264 0.0
C1121 C 0.17059 0.08031 0.68853 0.0
C1122 C 0.17732 0.09543 0.66515 0.0
C1123 C 0.19415 0.08357 0.64574 0.0
C1124 C 0.20411 0.05745 0.64889 0.0
C1125 C 0.22197 0.0497 0.62487 0.0
C1126 C 0.25182 0.04378 0.63452 0.0
C1127 C 0.20901 0.02524 0.60906 0.0
C1128 C 0.22083 0.07573 0.60796 0.0
C1129 C 0.20471 0.09499 0.62055 0.0
C1130 C 0.20172 0.12119 0.60993 0.0
C1131 C 0.21568 0.12802 0.58595 0.0
C1132 C 0.23217 0.10869 0.5725 0.0
C1133 C 0.2345 0.08205 0.5835 0.0
H1134 H 0.19834 1.0061 0.84217 0.0
H1135 H 0.13185 0.95359 0.80991 0.0
H1136 H 0.14039 0.9205 0.84696 0.0
H1137 H 0.2457 0.95276 0.87107 0.0
H1138 H 0.25349 0.97425 0.9001 0.0
H1139 H 0.24391 0.9896 0.86788 0.0
H1140 H 0.20559 0.01444 0.89626 0.0
H1141 H 0.21437 0.99526 0.92657 0.0
H1142 H 0.17942 0.99383 0.91275 0.0
H1143 H 0.15617 0.89279 0.88543 0.0
H1144 H 0.17681 0.87156 0.92578 0.0
H1145 H 0.23145 0.94263 0.93813 0.0
C1146 C 0.18619 0.98725 0.84267 0.0
C1147 C 0.16521 0.98165 0.82253 0.0
C1148 C 0.1485 0.95771 0.82467 0.0
C1149 C 0.15316 0.9389 0.84567 0.0
C1150 C 0.17396 0.94477 0.86511 0.0
C1151 C 0.1901 0.9684 0.86419 0.0
C1152 C 0.20927 0.97039 0.88943 0.0
C1153 C 0.23992 0.97191 0.88156 0.0
C1154 C 0.20171 0.99494 0.90731 0.0
C1155 C 0.20242 0.94345 0.90362 0.0
C1156 C 0.18181 0.92932 0.88911 0.0
C1157 C 0.17222 0.90369 0.89709 0.0
C1158 C 0.18427 0.89178 0.92022 0.0
C1159 C 0.20592 0.90529 0.93552 0.0
C1160 C 0.21483 0.93179 0.9272 0.0
H1161 H 0.28793 0.95577 0.07016 0.0
H1162 H 0.32414 0.87529 0.07249 0.0
H1163 H 0.35079 0.8881 0.11434 0.0
H1164 H 0.35073 0.99414 0.10061 0.0
H1165 H 0.32888 0.01664 0.11947 0.0
H1166 H 0.31705 1.00289 0.08694 0.0
H1167 H 0.27357 0.98629 0.1104 0.0
H1168 H 0.28512 0.99511 0.14463 0.0
H1169 H 0.27557 0.96014 0.13594 0.0
H1170 H 0.37318 0.90911 0.15577 0.0
H1171 H 0.38724 0.93592 0.19689 0.0
H1172 H 0.33179 1.00042 0.17214 0.0
C1173 C 0.30224 0.94128 0.07902 0.0
C1174 C 0.30438 0.91468 0.06794 0.0
C1175 C 0.32245 0.89583 0.08059 0.0
C1176 C 0.3377 0.90294 0.10431 0.0
C1177 C 0.33448 0.92894 0.11532 0.0
C1178 C 0.31737 0.94795 0.10309 0.0
C1179 C 0.31583 0.97352 0.12069 0.0
C1180 C 0.32891 0.99826 0.10605 0.0
C1181 C 0.28575 0.97914 0.12846 0.0
C1182 C 0.33356 0.96525 0.14528 0.0
C1183 C 0.34497 0.93989 0.14111 0.0
C1184 C 0.36402 0.92876 0.15955 0.0
C1185 C 0.37178 0.944 0.18285 0.0
C1186 C 0.35953 0.96943 0.18821 0.0
C1187 C 0.3403 0.98032 0.16911 0.0
H1188 H 0.36031 0.33546 0.02712 0.0
H1189 H 0.32196 0.38741 0.08719 0.0
H1190 H 0.3569 0.37362 0.12176 0.0
H1191 H 0.37784 0.28091 0.07151 0.0
H1192 H 0.411 0.27449 0.0566 0.0
H1193 H 0.38351 0.28884 0.03604 0.0
H1194 H 0.41543 0.33003 0.02367 0.0
H1195 H 0.44316 0.31563 0.04392 0.0
H1196 H 0.43204 0.34995 0.05066 0.0
H1197 H 0.39297 0.35095 0.15091 0.0
H1198 H 0.4323 0.32651 0.17134 0.0
H1199 H 0.45044 0.29193 0.09187 0.0
C1200 C 0.35948 0.3442 0.04746 0.0
C1201 C 0.33832 0.36257 0.05439 0.0
C1202 C 0.33804 0.37353 0.08125 0.0
C1203 C 0.3577 0.36566 0.10112 0.0
C1204 C 0.37787 0.34713 0.09377 0.0
C1205 C 0.37933 0.33697 0.06746 0.0
C1206 C 0.40355 0.31774 0.06493 0.0
C1207 C 0.39336 0.28878 0.05679 0.0
C1208 C 0.42481 0.32902 0.04459 0.0
C1209 C 0.41519 0.31838 0.09403 0.0
C1210 C 0.39979 0.33521 0.11035 0.0
C1211 C 0.40553 0.33814 0.13823 0.0
C1212 C 0.428 0.32407 0.14966 0.0
C1213 C 0.44501 0.3076 0.13322 0.0
C1214 C 0.43819 0.3046 0.10501 0.0
H1215 H 0.94983 0.86741 0.14062 0.0
H1216 H 0.98054 0.81704 0.20736 0.0
H1217 H 0.96539 0.85158 0.24045 0.0
H1218 H 0.97163 0.9309 0.16878 0.0
H1219 H 0.94181 0.94931 0.15658 0.0
H1220 H 0.95308 0.91971 0.13823 0.0
H1221 H 0.90407 0.89751 0.1423 0.0
H1222 H 0.89266 0.92707 0.16078 0.0
H1223 H 0.88913 0.89348 0.17559 0.0
H1224 H 0.95036 0.89271 0.26599 0.0
H1225 H 0.93713 0.93823 0.28251 0.0
H1226 H 0.91507 0.96208 0.19963 0.0
C1227 C 0.95315 0.86341 0.1622 0.0
C1228 C 0.96642 0.83934 0.17131 0.0
C1229 C 0.97046 0.83519 0.19978 0.0
C1230 C 0.96182 0.85468 0.21877 0.0
C1231 C 0.94901 0.87817 0.20903 0.0
C1232 C 0.94464 0.88263 0.18144 0.0
C1233 C 0.93167 0.91027 0.17633 0.0
C1234 C 0.95069 0.92863 0.15896 0.0
C1235 C 0.90266 0.90687 0.16296 0.0
C1236 C 0.92995 0.92094 0.20538 0.0
C1237 C 0.93992 0.90194 0.22389 0.0
C1238 C 0.94218 0.90759 0.25175 0.0
C1239 C 0.93464 0.93349 0.26092 0.0
C1240 C 0.9248 0.95348 0.24237 0.0
C1241 C 0.92189 0.94693 0.21429 0.0
H1242 H 0.16691 0.6657 0.52746 0.0
H1243 H 0.23374 0.70621 0.57368 0.0
H1244 H 0.19956 0.72942 0.60192 0.0
H1245 H 0.12264 0.72426 0.52556 0.0
H1246 H 0.09063 0.70494 0.52876 0.0
H1247 H 0.12005 0.68954 0.51309 0.0
H1248 H 0.1178 0.64962 0.54771 0.0
H1249 H 0.08828 0.66483 0.56341 0.0
H1250 H 0.11864 0.65701 0.58387 0.0
H1251 H 0.15955 0.74796 0.62516 0.0
H1252 H 0.11475 0.76364 0.64142 0.0
H1253 H 0.07174 0.71477 0.57886 0.0
C1254 C 0.17419 0.67918 0.5438 0.0
C1255 C 0.20296 0.68402 0.54865 0.0
C1256 C 0.21182 0.70223 0.56972 0.0
C1257 C 0.19257 0.71546 0.58589 0.0
C1258 C 0.16443 0.71064 0.58047 0.0
C1259 C 0.15508 0.69318 0.55987 0.0
C1260 C 0.12348 0.69309 0.55772 0.0
C1261 C 0.11363 0.70359 0.52961 0.0
C1262 C 0.11134 0.66443 0.56353 0.0
C1263 C 0.11672 0.71316 0.58038 0.0
C1264 C 0.14083 0.72265 0.5933 0.0
C1265 C 0.1405 0.74079 0.61519 0.0
C1266 C 0.11487 0.74951 0.62431 0.0
C1267 C 0.08971 0.74049 0.61142 0.0
C1268 C 0.09064 0.72218 0.58895 0.0
H1269 H 0.98937 0.70249 0.72392 0.0
H1270 H 0.97546 0.69559 0.63619 0.0
H1271 H 0.95313 0.65018 0.6425 0.0
H1272 H 1.00597 0.63012 0.73401 0.0
H1273 H 0.98953 0.62828 0.76677 0.0
H1274 H 1.0046 0.66019 0.75535 0.0
H1275 H 0.95757 0.68382 0.76197 0.0
H1276 H 0.94229 0.65198 0.77323 0.0
H1277 H 0.9268 0.67012 0.74491 0.0
H1278 H 0.9282 0.60783 0.65867 0.0
H1279 H 0.90804 0.5681 0.68301 0.0
H1280 H 0.94224 0.59957 0.75979 0.0
C1281 C 0.98182 0.69128 0.70605 0.0
C1282 C 0.98407 0.70259 0.67954 0.0
C1283 C 0.97411 0.68725 0.65664 0.0
C1284 C 0.96127 0.6615 0.66004 0.0
C1285 C 0.95906 0.65107 0.68643 0.0
C1286 C 0.96957 0.66517 0.70901 0.0
C1287 C 0.96505 0.64893 0.73505 0.0
C1288 C 0.99295 0.64143 0.74859 0.0
C1289 C 0.94685 0.66466 0.75496 0.0
C1290 C 0.94987 0.62376 0.72363 0.0
C1291 C 0.94632 0.62565 0.69556 0.0
C1292 C 0.9313 0.60588 0.68056 0.0
C1293 C 0.91983 0.58348 0.69455 0.0
C1294 C 0.92392 0.58067 0.72313 0.0
C1295 C 0.93927 0.60102 0.73783 0.0
H1296 H 0.2145 0.20788 0.44411 0.0
H1297 H 0.18136 0.15278 0.50529 0.0
H1298 H 0.1338 0.16858 0.49395 0.0
H1299 H 0.17184 0.26261 0.45528 0.0
H1300 H 0.1662 0.27214 0.42 0.0
H1301 H 0.19783 0.25577 0.43046 0.0
H1302 H 0.19055 0.21647 0.3962 0.0
H1303 H 0.15986 0.23294 0.38331 0.0
H1304 H 0.15785 0.19792 0.39468 0.0
H1305 H 0.08973 0.19121 0.47548 0.0
H1306 H 0.0534 0.21744 0.45095 0.0
H1307 H 0.11642 0.25736 0.40246 0.0
C1308 C 0.19728 0.19905 0.45518 0.0
C1309 C 0.20162 0.17923 0.47575 0.0
C1310 C 0.17846 0.16794 0.48942 0.0
C1311 C 0.15145 0.17687 0.48317 0.0
C1312 C 0.14803 0.19678 0.46297 0.0
C1313 C 0.17037 0.20741 0.44897 0.0
C1314 C 0.16145 0.2282 0.42786 0.0
C1315 C 0.1751 0.25636 0.43375 0.0
C1316 C 0.1678 0.21828 0.3988 0.0
C1317 C 0.13054 0.22826 0.43253 0.0
C1318 C 0.12309 0.20988 0.45271 0.0
C1319 C 0.09544 0.20581 0.45987 0.0
C1320 C 0.075 0.22093 0.44606 0.0
C1321 C 0.08239 0.2401 0.4257 0.0
C1322 C 0.11042 0.24339 0.41856 0.0
H1323 H 0.64732 0.41345 0.23554 0.0
H1324 H 0.58953 0.47837 0.21781 0.0
H1325 H 0.55768 0.44482 0.19489 0.0
H1326 H 0.63459 0.37414 0.1729 0.0
H1327 H 0.63763 0.34175 0.19015 0.0
H1328 H 0.65651 0.3714 0.20303 0.0
H1329 H 0.63522 0.36248 0.24914 0.0
H1330 H 0.61233 0.33502 0.23761 0.0
H1331 H 0.59854 0.3652 0.25334 0.0
H1332 H 0.53519 0.40501 0.16903 0.0
H1333 H 0.51872 0.36031 0.15027 0.0
H1334 H 0.58663 0.32014 0.192 0.0
C1335 C 0.62799 0.42067 0.22683 0.0
C1336 C 0.62098 0.44862 0.22838 0.0
C1337 C 0.59533 0.45709 0.21692 0.0
C1338 C 0.57718 0.43821 0.20374 0.0
C1339 C 0.58475 0.41085 0.20261 0.0
C1340 C 0.60937 0.40202 0.21418 0.0
C1341 C 0.61196 0.37127 0.21132 0.0
C1342 C 0.63663 0.36424 0.19327 0.0
C1343 C 0.61462 0.35761 0.2395 0.0
C1344 C 0.58458 0.36405 0.19692 0.0
C1345 C 0.5698 0.38737 0.19105 0.0
C1346 C 0.54598 0.38651 0.17438 0.0
C1347 C 0.53676 0.36112 0.16386 0.0
C1348 C 0.55042 0.33681 0.17121 0.0
C1349 C 0.57486 0.33832 0.18762 0.0
H1350 H 0.33907 0.85955 0.99212 0.0
H1351 H 0.28788 0.82732 0.92498 0.0
H1352 H 0.32989 0.81243 0.90156 0.0
H1353 H 0.39839 0.8826 0.95158 0.0
H1354 H 0.42371 0.87193 0.97682 0.0
H1355 H 0.38988 0.88239 0.98732 0.0
H1356 H 0.38271 0.83611 0.01213 0.0
H1357 H 0.41646 0.82549 1.00168 0.0
H1358 H 0.38619 0.80464 0.99331 0.0
H1359 H 0.37663 0.79965 0.88614 0.0
H1360 H 0.4253 0.78722 0.88046 0.0
H1361 H 0.44695 0.82569 0.9585 0.0
C1362 C 0.33681 0.84978 0.97227 0.0
C1363 C 0.31026 0.8448 0.9602 0.0
C1364 C 0.30803 0.83136 0.93454 0.0
C1365 C 0.33176 0.82293 0.92104 0.0
C1366 C 0.35759 0.82784 0.93359 0.0
C1367 C 0.36034 0.84078 0.95869 0.0
C1368 C 0.39046 0.84173 0.96845 0.0
C1369 C 0.40124 0.87143 0.9712 0.0
C1370 C 0.39416 0.82605 0.99549 0.0
C1371 C 0.40411 0.8271 0.94501 0.0
C1372 C 0.38474 0.81961 0.92501 0.0
C1373 C 0.39204 0.80548 0.90159 0.0
C1374 C 0.41985 0.79853 0.89858 0.0
C1375 C 0.44016 0.80546 0.919 0.0
C1376 C 0.43206 0.82016 0.94244 0.0
H1377 H 0.90909 0.41378 0.7896 0.0
H1378 H 0.92249 0.4835 0.84347 0.0
H1379 H 0.94885 0.45443 0.87592 0.0
H1380 H 0.90055 0.3626 0.8407 0.0
H1381 H 0.91933 0.33676 0.82283 0.0
H1382 H 0.90167 0.363 0.80387 0.0
H1383 H 0.94755 0.37654 0.78027 0.0
H1384 H 0.96534 0.35026 0.79906 0.0
H1385 H 0.97788 0.38521 0.80094 0.0
H1386 H 0.96993 0.41696 0.904 0.0
H1387 H 0.9899 0.37527 0.92362 0.0
H1388 H 0.96709 0.33033 0.84955 0.0
C1389 C 0.91767 0.42283 0.80823 0.0
C1390 C 0.9137 0.45073 0.81433 0.0
C1391 C 0.92546 0.46214 0.83858 0.0
C1392 C 0.94031 0.44577 0.8571 0.0
C1393 C 0.94363 0.41821 0.85069 0.0
C1394 C 0.93312 0.40692 0.82661 0.0
C1395 C 0.94032 0.3769 0.82436 0.0
C1396 C 0.91389 0.35875 0.82286 0.0
C1397 C 0.95888 0.37194 0.7997 0.0
C1398 C 0.95615 0.37295 0.85116 0.0
C1399 C 0.95747 0.39699 0.86614 0.0
C1400 C 0.96951 0.39816 0.89224 0.0
C1401 C 0.98081 0.37428 0.90323 0.0
C1402 C 0.98062 0.34955 0.88797 0.0
C1403 C 0.96806 0.349 0.86154 0.0
H1404 H 0.32236 0.19143 0.56017 0.0
H1405 H 0.36737 0.14812 0.49839 0.0
H1406 H 0.41056 0.17339 0.51218 0.0
H1407 H 0.36101 0.25769 0.56509 0.0
H1408 H 0.35981 0.25683 0.60165 0.0
H1409 H 0.33278 0.23987 0.58154 0.0
H1410 H 0.34449 0.19593 0.61036 0.0
H1411 H 0.3729 0.21374 0.62759 0.0
H1412 H 0.37905 0.18256 0.60914 0.0
H1413 H 0.44748 0.20691 0.5298 0.0
H1414 H 0.47994 0.23374 0.55966 0.0
H1415 H 0.41381 0.24766 0.61652 0.0
C1416 C 0.34127 0.18785 0.54922 0.0
C1417 C 0.34139 0.16928 0.52696 0.0
C1418 C 0.36674 0.16334 0.51449 0.0
C1419 C 0.39128 0.17758 0.52222 0.0
C1420 C 0.39032 0.19672 0.54339 0.0
C1421 C 0.36628 0.20092 0.55762 0.0
C1422 C 0.37225 0.21834 0.583 0.0
C1423 C 0.3554 0.2447 0.58275 0.0
C1424 C 0.36686 0.20164 0.60906 0.0
C1425 C 0.40302 0.22455 0.57985 0.0
C1426 C 0.41278 0.21246 0.55642 0.0
C1427 C 0.4402 0.21608 0.54844 0.0
C1428 C 0.4584 0.23155 0.56537 0.0
C1429 C 0.44931 0.24271 0.59029 0.0
C1430 C 0.42121 0.23932 0.59753 0.0
H1431 H 0.53507 0.69072 0.32934 0.0
H1432 H 0.58827 0.70156 0.40154 0.0
H1433 H 0.61536 0.66196 0.38797 0.0
H1434 H 0.53511 0.61515 0.33086 0.0
H1435 H 0.53534 0.61183 0.29414 0.0
H1436 H 0.51924 0.64084 0.30963 0.0
H1437 H 0.55036 0.67348 0.2814 0.0
H1438 H 0.56673 0.6446 0.26601 0.0
H1439 H 0.58756 0.6704 0.28361 0.0
H1440 H 0.6393 0.62434 0.36544 0.0
H1441 H 0.65582 0.58622 0.33768 0.0
H1442 H 0.58619 0.59585 0.28095 0.0
C1443 C 0.5522 0.6845 0.34242 0.0
C1444 C 0.5595 0.69938 0.36653 0.0
C1445 C 0.58212 0.69058 0.38305 0.0
C1446 C 0.59778 0.66811 0.37547 0.0
C1447 C 0.59044 0.65423 0.35146 0.0
C1448 C 0.56795 0.66164 0.33535 0.0
C1449 C 0.5647 0.64269 0.31067 0.0
C1450 C 0.53695 0.62667 0.31137 0.0
C1451 C 0.56751 0.65876 0.28383 0.0
C1452 C 0.58915 0.6239 0.31532 0.0
C1453 C 0.60377 0.63127 0.33889 0.0
C1454 C 0.62786 0.61811 0.34712 0.0
C1455 C 0.63717 0.59656 0.33107 0.0
C1456 C 0.62229 0.58796 0.30719 0.0
C1457 C 0.59787 0.60184 0.29923 0.0
H1458 H 0.09617 0.79124 0.1155 0.0
H1459 H 0.04233 0.85782 0.09185 0.0
H1460 H 0.08062 0.88032 0.06823 0.0
H1461 H 0.16097 0.84032 0.12392 0.0
H1462 H 0.18356 0.81383 0.11254 0.0
H1463 H 0.15306 0.80503 0.13168 0.0
H1464 H 0.13852 0.77204 0.09346 0.0
H1465 H 0.16682 0.78203 0.07197 0.0
H1466 H 0.13118 0.78485 0.05973 0.0
H1467 H 0.12058 0.89225 0.04138 0.0
H1468 H 0.16557 0.89871 0.01921 0.0
H1469 H 0.19679 0.82671 0.06037 0.0
C1470 C 0.09286 0.81107 0.10631 0.0
C1471 C 0.06603 0.82242 0.10506 0.0
C1472 C 0.06249 0.84836 0.09264 0.0
C1473 C 0.08415 0.86144 0.07915 0.0
C1474 C 0.1097 0.8489 0.07899 0.0
C1475 C 0.11477 0.82507 0.09323 0.0
C1476 C 0.14454 0.8163 0.08904 0.0
C1477 C 0.16154 0.81904 0.11589 0.0
C1478 C 0.14535 0.78704 0.07781 0.0
C1479 C 0.1542 0.83744 0.0682 0.0
C1480 C 0.13368 0.85626 0.06331 0.0
C1481 C 0.13702 0.87791 0.04522 0.0
C1482 C 0.16251 0.88127 0.03254 0.0
C1483 C 0.18427 0.86289 0.03758 0.0
C1484 C 0.1801 0.84051 0.05553 0.0
H1485 H 0.74895 0.95139 0.58676 0.0
H1486 H 0.69518 0.88076 0.56997 0.0
H1487 H 0.66557 0.89369 0.60817 0.0
H1488 H 0.74469 0.94699 0.66115 0.0
H1489 H 0.74506 0.98354 0.6661 0.0
H1490 H 0.76222 0.96901 0.63723 0.0
H1491 H 0.73326 0.99929 0.60447 0.0
H1492 H 0.7159 0.01381 0.63322 0.0
H1493 H 0.69589 0.99781 0.60581 0.0
H1494 H 0.64029 0.91515 0.64591 0.0
H1495 H 0.62293 0.94149 0.6847 0.0
H1496 H 0.69411 0.99705 0.68028 0.0
C1497 C 0.731 0.93863 0.59125 0.0
C1498 C 0.72433 0.91508 0.57532 0.0
C1499 C 0.70078 0.89881 0.58192 0.0
C1500 C 0.68374 0.90604 0.60352 0.0
C1501 C 0.6907 0.92942 0.61867 0.0
C1502 C 0.71394 0.9453 0.61318 0.0
C1503 C 0.71686 0.96905 0.63326 0.0
C1504 C 0.74381 0.96701 0.65046 0.0
C1505 C 0.71538 0.99662 0.61829 0.0
C1506 C 0.69145 0.96411 0.65063 0.0
C1507 C 0.67659 0.94126 0.64154 0.0
C1508 C 0.65186 0.93293 0.65341 0.0
C1509 C 0.6421 0.94814 0.67537 0.0
C1510 C 0.65719 0.97127 0.68559 0.0
C1511 C 0.68226 0.97933 0.67303 0.0
H1512 H 0.90111 0.96475 0.34575 0.0
H1513 H 0.84735 0.03456 0.33909 0.0
H1514 H 0.82122 0.01811 0.37919 0.0
H1515 H 0.84665 0.91691 0.36124 0.0
H1516 H 0.86773 0.89678 0.38412 0.0
H1517 H 0.88362 0.91543 0.35665 0.0
H1518 H 0.91687 0.93992 0.39158 0.0
H1519 H 0.90091 0.92147 0.41918 0.0
H1520 H 0.90264 0.95834 0.41987 0.0
H1521 H 0.80125 0.99407 0.42017 0.0
H1522 H 0.78456 0.96126 0.45476 0.0
H1523 H 0.84881 0.90498 0.43216 0.0
C1524 C 0.88401 0.97667 0.353 0.0
C1525 C 0.87635 1.00107 0.33967 0.0
C1526 C 0.85349 0.01585 0.34916 0.0
C1527 C 0.83869 1.00675 0.37197 0.0
C1528 C 0.84674 0.98258 0.38471 0.0
C1529 C 0.86855 0.96747 0.37527 0.0
C1530 C 0.87144 0.94102 0.39112 0.0
C1531 C 0.86709 0.91607 0.37215 0.0
C1532 C 0.89964 0.94015 0.40634 0.0
C1533 C 0.84783 0.94356 0.41092 0.0
C1534 C 0.8342 0.96794 0.40726 0.0
C1535 C 0.81174 0.97491 0.42319 0.0
C1536 C 0.80252 0.9562 0.44293 0.0
C1537 C 0.8154 0.93057 0.44624 0.0
C1538 C 0.83857 0.92441 0.43016 0.0
H1539 H 0.83617 0.08481 0.05984 0.0
H1540 H 0.75715 0.11565 0.08597 0.0
H1541 H 0.76825 0.10172 0.13345 0.0
H1542 H 0.83942 0.02691 0.10359 0.0
H1543 H 0.87608 0.03036 0.11124 0.0
H1544 H 0.8622 0.04278 0.07922 0.0
H1545 H 0.88322 0.09098 0.08949 0.0
H1546 H 0.89745 0.07863 0.12141 0.0
H1547 H 0.87523 0.10787 0.12111 0.0
H1548 H 0.78604 0.08072 0.17711 0.0
H1549 H 0.81249 0.06095 0.21584 0.0
H1550 H 0.88217 0.04784 0.1629 0.0
C1551 C 0.82135 0.08884 0.07565 0.0
C1552 C 0.79575 0.10127 0.06924 0.0
C1553 C 0.77695 0.10636 0.09046 0.0
C1554 C 0.78299 0.09833 0.11744 0.0
C1555 C 0.80819 0.08575 0.12302 0.0
C1556 C 0.82739 0.08161 0.10288 0.0
C1557 C 0.85336 0.06854 0.11462 0.0
C1558 C 0.85803 0.04048 0.10138 0.0
C1559 C 0.87882 0.08765 0.11148 0.0
C1560 C 0.84558 0.0656 0.14442 0.0
C1561 C 0.81923 0.07525 0.14867 0.0
C1562 C 0.80684 0.07347 0.17412 0.0
C1563 C 0.82195 0.06203 0.19595 0.0
C1564 C 0.84939 0.05301 0.19239 0.0
C1565 C 0.86131 0.0548 0.16624 0.0
H1566 H 0.67345 0.07729 0.81207 0.0
H1567 H 0.63478 1.00849 0.85328 0.0
H1568 H 0.66022 0.02041 0.89575 0.0
H1569 H 0.74135 0.07316 0.84778 0.0
H1570 H 0.74653 0.10964 0.8511 0.0
H1571 H 0.72671 0.09567 0.82248 0.0
H1572 H 0.6847 0.12489 0.83437 0.0
H1573 H 0.70421 0.13981 0.86266 0.0
H1574 H 0.67099 0.12345 0.86839 0.0
H1575 H 0.68538 0.04158 0.93466 0.0
H1576 H 0.71235 0.06967 0.96803 0.0
H1577 H 0.73721 0.1248 0.9033 0.0
C1578 C 0.67083 0.06458 0.82997 0.0
C1579 C 0.65205 0.04194 0.82946 0.0
C1580 C 0.64879 0.02598 0.8533 0.0
C1581 C 0.66328 0.03254 0.87753 0.0
C1582 C 0.68109 0.05523 0.87773 0.0
C1583 C 0.68518 0.07101 0.85466 0.0
C1584 C 0.70477 0.09504 0.86125 0.0
C1585 C 0.73143 0.09327 0.84468 0.0
C1586 C 0.6903 0.12242 0.85638 0.0
C1587 C 0.71057 0.09035 0.89159 0.0
C1588 C 0.6966 0.0672 0.9005 0.0
C1589 C 0.69702 0.05935 0.92785 0.0
C1590 C 0.71254 0.0753 0.94662 0.0
C1591 C 0.72792 0.0985 0.93798 0.0
C1592 C 0.72641 0.10653 0.91019 0.0
H1593 H 0.60253 0.74756 0.898 0.0
H1594 H 0.54162 0.71559 0.954 0.0
H1595 H 0.57824 0.6893 0.9781 0.0
H1596 H 0.64008 0.68545 0.89206 0.0
H1597 H 0.67352 0.70238 0.88984 0.0
H1598 H 0.64277 0.71937 0.87785 0.0
H1599 H 0.65346 0.76089 0.91055 0.0
H1600 H 0.685 0.74414 0.92055 0.0
H1601 H 0.66099 0.75422 0.94619 0.0
H1602 H 0.62272 0.66657 0.99603 0.0
H1603 H 0.67067 0.65165 1.00709 0.0
H1604 H 0.70081 0.6977 0.93765 0.0
C1605 C 0.59708 0.73532 0.91561 0.0
C1606 C 0.56967 0.7344 0.92501 0.0
C1607 C 0.56288 0.7174 0.94737 0.0
C1608 C 0.58344 0.70218 0.9609 0.0
C1609 C 0.61052 0.70381 0.95135 0.0
C1610 C 0.61729 0.72003 0.92921 0.0
C1611 C 0.64763 0.71797 0.92248 0.0
C1612 C 0.65119 0.70555 0.89386 0.0
C1613 C 0.66262 0.74598 0.92511 0.0
C1614 C 0.65709 0.69854 0.94462 0.0
C1615 C 0.63548 0.6903 0.961 0.0
C1616 C 0.63975 0.67281 0.98322 0.0
C1617 C 0.66697 0.66425 0.98924 0.0
C1618 C 0.68942 0.67346 0.97321 0.0
C1619 C 0.68409 0.69027 0.95031 0.0
H1620 H 0.129 0.1045 0.82558 0.0
H1621 H 0.07916 0.09745 0.75092 0.0
H1622 H 0.05401 0.13901 0.76344 0.0
H1623 H 0.0734 0.12499 0.86775 0.0
H1624 H 0.09427 0.14833 0.88849 0.0
H1625 H 0.11 0.11927 0.87278 0.0
H1626 H 0.14564 0.15141 0.84935 0.0
H1627 H 0.13007 0.18057 0.86509 0.0
H1628 H 0.13343 0.17921 0.82846 0.0
H1629 H 0.03384 0.18106 0.78413 0.0
H1630 H 0.01852 0.21947 0.81277 0.0
H1631 H 0.07928 0.19791 0.87542 0.0
C1632 C 0.11308 0.11199 0.81173 0.0
C1633 C 0.10619 0.09791 0.78714 0.0
C1634 C 0.08481 0.10796 0.76981 0.0
C1635 C 0.07044 0.13159 0.77672 0.0
C1636 C 0.07743 0.14483 0.80123 0.0
C1637 C 0.09812 0.13535 0.81858 0.0
C1638 C 0.10039 0.15259 0.84442 0.0
C1639 C 0.09414 0.13526 0.86986 0.0
C1640 C 0.12909 0.16679 0.84697 0.0
C1641 C 0.07774 0.17313 0.83887 0.0
C1642 C 0.06498 0.16846 0.8137 0.0
C1643 C 0.04364 0.1849 0.80391 0.0
C1644 C 0.03508 0.20667 0.82031 0.0
C1645 C 0.04756 0.21161 0.84636 0.0
C1646 C 0.06917 0.19454 0.85567 0.0
H1647 H 0.95849 0.32625 0.46039 0.0
H1648 H 0.93521 0.28913 0.38217 0.0
H1649 H 0.88624 0.29999 0.39008 0.0
H1650 H 0.90039 0.30221 0.49686 0.0
H1651 H 0.89696 0.33292 0.51689 0.0
H1652 H 0.93044 0.32365 0.50451 0.0
H1653 H 0.93544 0.37079 0.48079 0.0
H1654 H 0.90201 0.38026 0.49321 0.0
H1655 H 0.90873 0.38168 0.4571 0.0
H1656 H 0.83953 0.31195 0.40782 0.0
H1657 H 0.79848 0.32632 0.43298 0.0
H1658 H 0.85204 0.35683 0.49924 0.0
C1659 C 0.9432 0.32064 0.44472 0.0
C1660 C 0.95085 0.30682 0.42059 0.0
C1661 C 0.93002 0.29981 0.40075 0.0
C1662 C 0.9021 0.30586 0.40508 0.0
C1663 C 0.8953 0.3191 0.42924 0.0
C1664 C 0.91526 0.32664 0.44862 0.0
C1665 C 0.90235 0.3402 0.4731 0.0
C1666 C 0.90786 0.32376 0.49939 0.0
C1667 C 0.91275 0.37001 0.47622 0.0
C1668 C 0.87193 0.33877 0.46462 0.0
C1669 C 0.86835 0.32648 0.43927 0.0
C1670 C 0.8421 0.32183 0.42756 0.0
C1671 C 0.81888 0.32998 0.44211 0.0
C1672 C 0.82198 0.34282 0.46808 0.0
C1673 C 0.84896 0.34737 0.47933 0.0
H1674 H 0.566 0.93448 0.77377 0.0
H1675 H 0.62847 0.96759 0.8301 0.0
H1676 H 0.61561 0.93293 0.86439 0.0
H1677 H 0.5137 0.90839 0.82401 0.0
H1678 H 0.50744 0.8781 0.80376 0.0
H1679 H 0.5181 0.90948 0.78738 0.0
H1680 H 0.55863 0.88146 0.76664 0.0
H1681 H 0.54846 0.85146 0.78558 0.0
H1682 H 0.58318 0.86547 0.78955 0.0
H1683 H 0.59595 0.89596 0.89256 0.0
H1684 H 0.57483 0.85465 0.912 0.0
H1685 H 0.52952 0.83921 0.83555 0.0
C1686 C 0.57611 0.93488 0.79376 0.0
C1687 C 0.59686 0.9549 0.80028 0.0
C1688 C 0.61137 0.95353 0.82561 0.0
C1689 C 0.60437 0.93375 0.84503 0.0
C1690 C 0.58367 0.91451 0.83827 0.0
C1691 C 0.57005 0.91442 0.81312 0.0
C1692 C 0.55136 0.88902 0.81007 0.0
C1693 C 0.52084 0.89676 0.80602 0.0
C1694 C 0.56099 0.87077 0.78656 0.0
C1695 C 0.55614 0.87542 0.83768 0.0
C1696 C 0.57462 0.89083 0.85359 0.0
C1697 C 0.58169 0.88351 0.88022 0.0
C1698 C 0.56953 0.85984 0.89106 0.0
C1699 C 0.55076 0.84322 0.87525 0.0
C1700 C 0.54412 0.85114 0.84804 0.0
H1701 H 0.95432 0.20352 0.36606 0.0
H1702 H 0.01975 0.21957 0.3084 0.0
H1703 H 1.00475 0.17862 0.28163 0.0
H1704 H 0.95632 0.13569 0.36907 0.0
H1705 H 0.91995 0.126 0.36727 0.0
H1706 H 0.93079 0.15873 0.38115 0.0
H1707 H 0.90218 0.18655 0.34763 0.0
H1708 H 0.88723 0.15489 0.33466 0.0
H1709 H 0.90289 0.17906 0.31154 0.0
H1710 H 0.98491 0.1342 0.26329 0.0
H1711 H 0.95885 0.09133 0.25211 0.0
H1712 H 0.90471 0.10518 0.32021 0.0
C1713 C 0.96509 0.19861 0.3475 0.0
C1714 C 0.98817 0.21451 0.33918 0.0
C1715 C 1.00185 0.20767 0.31486 0.0
C1716 C 0.99356 0.18444 0.29964 0.0
C1717 C 0.97102 0.16881 0.30863 0.0
C1718 C 0.95643 0.17606 0.33152 0.0
C1719 C 0.93267 0.156 0.33649 0.0
C1720 C 0.93507 0.14328 0.36515 0.0
C1721 C 0.90458 0.16996 0.33232 0.0
C1722 C 0.93739 0.13531 0.31394 0.0
C1723 C 0.95937 0.14334 0.29787 0.0
C1724 C 0.96761 0.12775 0.27566 0.0
C1725 C 0.95291 0.10337 0.2696 0.0
C1726 C 0.93048 0.09471 0.28585 0.0
C1727 C 0.92227 0.11115 0.30793 0.0
H1728 H 0.57305 0.10357 0.7516 0.0
H1729 H 0.61885 0.06626 0.68617 0.0
H1730 H 0.60912 0.10602 0.65666 0.0
H1731 H 0.51973 0.13188 0.71034 0.0
H1732 H 0.51751 0.16303 0.72992 0.0
H1733 H 0.52899 0.13217 0.74626 0.0
H1734 H 0.57431 0.15708 0.76261 0.0
H1735 H 0.56293 0.18807 0.74638 0.0
H1736 H 0.59597 0.17397 0.73792 0.0
H1737 H 0.59102 0.14837 0.63289 0.0
H1738 H 0.56892 0.19134 0.61811 0.0
H1739 H 0.53732 0.2023 0.69976 0.0
C1740 C 0.58127 0.10383 0.73115 0.0
C1741 C 0.59674 0.08165 0.72128 0.0
C1742 C 0.6071 0.08296 0.69435 0.0
C1743 C 0.6016 0.10547 0.67736 0.0
C1744 C 0.58602 0.12678 0.68764 0.0
C1745 C 0.57631 0.12631 0.71404 0.0
C1746 C 0.55995 0.15176 0.72009 0.0
C1747 C 0.52976 0.14425 0.72706 0.0
C1748 C 0.57415 0.16872 0.74311 0.0
C1749 C 0.56156 0.16641 0.69283 0.0
C1750 C 0.57657 0.15161 0.67432 0.0
C1751 C 0.57957 0.1603 0.64735 0.0
C1752 C 0.5669 0.1847 0.63911 0.0
C1753 C 0.5517 0.20035 0.65783 0.0
C1754 C 0.54925 0.19107 0.68509 0.0
H1755 H 0.1935 0.38606 0.95475 0.0
H1756 H 0.21014 0.32833 0.01983 0.0
H1757 H 0.16874 0.30078 1.00549 0.0
H1758 H 0.12122 0.38525 0.96259 0.0
H1759 H 0.11137 0.38741 0.92688 0.0
H1760 H 0.14399 0.40203 0.93896 0.0
H1761 H 0.17259 0.37307 0.90576 0.0
H1762 H 0.13992 0.36081 0.89138 0.0
H1763 H 0.16531 0.33683 0.90309 0.0
H1764 H 0.12649 0.27891 0.98334 0.0
H1765 H 0.08354 0.26621 0.95734 0.0
H1766 H 0.09211 0.33959 0.90849 0.0
C1767 C 0.18857 0.36735 0.9656 0.0
C1768 C 0.20558 0.35849 0.98756 0.0
C1769 C 0.19798 0.33466 1.00216 0.0
C1770 C 0.17443 0.31904 0.99429 0.0
C1771 C 0.15843 0.32787 0.97209 0.0
C1772 C 0.16503 0.35155 0.95801 0.0
C1773 C 0.14335 0.35731 0.93594 0.0
C1774 C 0.12911 0.3846 0.94142 0.0
C1775 C 0.15609 0.35699 0.90737 0.0
C1776 C 0.12363 0.33311 0.93975 0.0
C1777 C 0.1329 0.31627 0.96056 0.0
C1778 C 0.11878 0.29215 0.96731 0.0
C1779 C 0.09433 0.28522 0.95264 0.0
C1780 C 0.084 0.30258 0.93188 0.0
C1781 C 0.0992 0.32647 0.92492 0.0
H1782 H 0.46121 0.71399 0.41605 0.0
H1783 H 0.44362 0.79259 0.45303 0.0
H1784 H 0.40065 0.77332 0.47168 0.0
H1785 H 0.38986 0.69547 0.39787 0.0
H1786 H 0.39344 0.65978 0.40612 0.0
H1787 H 0.42309 0.67951 0.39502 0.0
H1788 H 0.45031 0.666 0.43899 0.0
H1789 H 0.42074 0.64624 0.45023 0.0
H1790 H 0.43571 0.67273 0.47194 0.0
H1791 H 0.35962 0.74663 0.48624 0.0
H1792 H 0.32273 0.71327 0.49694 0.0
H1793 H 0.36574 0.65068 0.45195 0.0
C1794 C 0.44827 0.72715 0.42799 0.0
C1795 C 0.45601 0.75492 0.43297 0.0
C1796 C 0.43844 0.7713 0.44889 0.0
C1797 C 0.41384 0.76056 0.4596 0.0
C1798 C 0.4069 0.73327 0.45443 0.0
C1799 C 0.42352 0.71666 0.43911 0.0
C1800 C 0.41105 0.68784 0.43715 0.0
C1801 C 0.40394 0.68021 0.40726 0.0
C1802 C 0.43062 0.66697 0.45037 0.0
C1803 C 0.38491 0.69102 0.45371 0.0
C1804 C 0.38303 0.71749 0.46333 0.0
C1805 C 0.36084 0.72581 0.47887 0.0
C1806 C 0.3399 0.70662 0.4848 0.0
C1807 C 0.34116 0.67921 0.47537 0.0
C1808 C 0.36414 0.67137 0.45962 0.0
H1809 H 0.82455 0.52193 0.8485 0.0
H1810 H 0.86716 0.58616 0.80346 0.0
H1811 H 0.85377 0.6198 0.83791 0.0
H1812 H 0.7672 0.56253 0.871 0.0
H1813 H 0.76585 0.54757 0.90462 0.0
H1814 H 0.77827 0.5279 0.87632 0.0
H1815 H 0.82413 0.51925 0.90311 0.0
H1816 H 0.81185 0.53889 0.93151 0.0
H1817 H 0.84444 0.54796 0.91615 0.0
H1818 H 0.83499 0.64678 0.87495 0.0
H1819 H 0.81413 0.66654 0.91515 0.0
H1820 H 0.78498 0.58578 0.9403 0.0
C1821 C 0.83098 0.54309 0.84591 0.0
C1822 C 0.84693 0.55135 0.82313 0.0
C1823 C 0.85512 0.57921 0.82067 0.0
C1824 C 0.84752 0.59855 0.84012 0.0
C1825 C 0.83195 0.58981 0.86223 0.0
C1826 C 0.8239 0.5628 0.86554 0.0
C1827 C 0.80771 0.55923 0.89183 0.0
C1828 C 0.77799 0.54868 0.88556 0.0
C1829 C 0.82295 0.5402 0.91184 0.0
C1830 C 0.80781 0.58854 0.90254 0.0
C1831 C 0.8218 0.60563 0.8848 0.0
C1832 C 0.82422 0.63361 0.88917 0.0
C1833 C 0.81216 0.64462 0.91231 0.0
C1834 C 0.79798 0.62782 0.93144 0.0
C1835 C 0.79586 0.59922 0.92639 0.0
H1836 H 0.71153 0.52012 0.17768 0.0
H1837 H 0.65742 0.58263 0.20869 0.0
H1838 H 0.66597 0.61044 0.16768 0.0
H1839 H 0.76184 0.56538 0.14875 0.0
H1840 H 0.76761 0.54445 0.11908 0.0
H1841 H 0.75664 0.5288 0.15047 0.0
H1842 H 0.7145 0.50623 0.12491 0.0
H1843 H 0.72531 0.52185 0.09341 0.0
H1844 H 0.69085 0.52734 0.10572 0.0
H1845 H 0.68237 0.6329 0.12514 0.0
H1846 H 0.70451 0.64814 0.08267 0.0
H1847 H 0.7466 0.57074 0.07707 0.0
C1848 C 0.70135 0.5396 0.17582 0.0
C1849 C 0.68376 0.5491 0.19661 0.0
C1850 C 0.67089 0.57474 0.19318 0.0
C1851 C 0.67562 0.59075 0.1699 0.0
C1852 C 0.69309 0.58083 0.14995 0.0
C1853 C 0.70564 0.5558 0.1525 0.0
C1854 C 0.72375 0.55019 0.12806 0.0
C1855 C 0.75427 0.54703 0.13714 0.0
C1856 C 0.71295 0.5249 0.11208 0.0
C1857 C 0.71974 0.5762 0.1116 0.0
C1858 C 0.70197 0.59354 0.12474 0.0
C1859 C 0.69605 0.61937 0.11451 0.0
C1860 C 0.70879 0.62786 0.09038 0.0
C1861 C 0.72706 0.61055 0.07643 0.0
C1862 C 0.73232 0.58419 0.08703 0.0
H1863 H 0.69345 0.39594 0.43338 0.0
H1864 H 0.76851 0.44307 0.45297 0.0
H1865 H 0.7596 0.4725 0.41265 0.0
H1866 H 0.69887 0.39562 0.3628 0.0
H1867 H 0.66264 0.40036 0.35446 0.0
H1868 H 0.67268 0.38372 0.38586 0.0
H1869 H 0.64669 0.4181 0.41512 0.0
H1870 H 0.63454 0.43437 0.38423 0.0
H1871 H 0.65262 0.45428 0.41033 0.0
H1872 H 0.74306 0.49567 0.36884 0.0
H1873 H 0.71865 0.51262 0.32732 0.0
H1874 H 0.65421 0.45063 0.3371 0.0
C1875 C 0.70792 0.41262 0.42942 0.0
C1876 C 0.73175 0.41717 0.44637 0.0
C1877 C 0.75004 0.4393 0.44043 0.0
C1878 C 0.74522 0.45601 0.41747 0.0
C1879 C 0.7218 0.45056 0.4009 0.0
C1880 C 0.70321 0.42968 0.40692 0.0
C1881 C 0.67943 0.42818 0.38614 0.0
C1882 C 0.67835 0.40033 0.37142 0.0
C1883 C 0.65168 0.4341 0.39977 0.0
C1884 C 0.68782 0.45112 0.36704 0.0
C1885 C 0.71231 0.46381 0.37591 0.0
C1886 C 0.72396 0.48578 0.36172 0.0
C1887 C 0.71014 0.4951 0.33804 0.0
C1888 C 0.68515 0.48228 0.32859 0.0
C1889 C 0.67368 0.46031 0.34356 0.0
H1890 H 0.84046 0.49466 0.68695 0.0
H1891 H 0.89424 0.43057 0.71593 0.0
H1892 H 0.87937 0.40142 0.6765 0.0
H1893 H 0.78378 0.45366 0.65268 0.0
H1894 H 0.78251 0.47827 0.62558 0.0
H1895 H 0.7938 0.4889 0.6594 0.0
H1896 H 0.83841 0.50832 0.63476 0.0
H1897 H 0.827 0.49374 0.60246 0.0
H1898 H 0.86019 0.48475 0.61712 0.0
H1899 H 0.85612 0.37844 0.63532 0.0
H1900 H 0.83181 0.36568 0.59187 0.0
H1901 H 0.79991 0.44774 0.58529 0.0
C1902 C 0.84843 0.47418 0.68525 0.0
C1903 C 0.86728 0.46407 0.70512 0.0
C1904 C 0.87892 0.43806 0.7014 0.0
C1905 C 0.87066 0.42148 0.67908 0.0
C1906 C 0.85183 0.43186 0.6599 0.0
C1907 C 0.84137 0.45787 0.66238 0.0
C1908 C 0.82445 0.46548 0.63707 0.0
C1909 C 0.79437 0.472 0.64419 0.0
C1910 C 0.83835 0.48949 0.62196 0.0
C1911 C 0.82585 0.43919 0.62065 0.0
C1912 C 0.84151 0.41996 0.63434 0.0
C1913 C 0.84422 0.39348 0.62418 0.0
C1914 C 0.83035 0.3864 0.59955 0.0
C1915 C 0.81451 0.40587 0.58504 0.0
C1916 C 0.81254 0.43269 0.59561 0.0
H1917 H 0.44094 0.09786 0.25425 0.0
H1918 H 0.41422 0.06409 0.17579 0.0
H1919 H 0.43628 0.10324 0.15222 0.0
H1920 H 0.42619 0.16709 0.23648 0.0
H1921 H 0.4552 0.18198 0.25546 0.0
H1922 H 0.43997 0.14996 0.26627 0.0
H1923 H 0.48797 0.12724 0.26398 0.0
H1924 H 0.50336 0.15923 0.25315 0.0
H1925 H 0.50705 0.12886 0.23266 0.0
H1926 H 0.46083 0.14589 0.13699 0.0
H1927 H 0.48226 0.19172 0.13113 0.0
H1928 H 0.48983 0.20068 0.21935 0.0
C1929 C 0.44024 0.09861 0.23211 0.0
C1930 C 0.42632 0.0778 0.21671 0.0
C1931 C 0.42501 0.07976 0.18785 0.0
C1932 C 0.43753 0.10186 0.1743 0.0
C1933 C 0.4509 0.12222 0.18993 0.0
C1934 C 0.45207 0.12106 0.21821 0.0
C1935 C 0.46577 0.14688 0.23002 0.0
C1936 C 0.44557 0.16239 0.24813 0.0
C1937 C 0.49264 0.14014 0.24589 0.0
C1938 C 0.47196 0.16266 0.20401 0.0
C1939 C 0.46364 0.14778 0.18113 0.0
C1940 C 0.46738 0.15779 0.15476 0.0
C1941 C 0.47966 0.18383 0.15162 0.0
C1942 C 0.48765 0.19991 0.17472 0.0
C1943 C 0.4838 0.189 0.20126 0.0
H1944 H 0.07747 0.82422 0.6989 0.0
H1945 H 0.01404 0.86388 0.6502 0.0
H1946 H 0.0314 0.90915 0.66655 0.0
H1947 H 0.08609 0.87437 0.75713 0.0
H1948 H 0.12295 0.86991 0.75677 0.0
H1949 H 0.09998 0.84225 0.7459 0.0
H1950 H 0.12866 0.84224 0.70056 0.0
H1951 H 0.14864 0.87191 0.71165 0.0
H1952 H 0.12925 0.87266 0.67977 0.0
H1953 H 0.05543 0.9499 0.68838 0.0
H1954 H 0.08799 0.98392 0.7093 0.0
H1955 H 0.14034 0.91829 0.73815 0.0
C1956 C 0.06673 0.84249 0.69259 0.0
C1957 C 0.04338 0.84074 0.67467 0.0
C1958 C 0.03113 0.86496 0.66495 0.0
C1959 C 0.0409 0.89068 0.67405 0.0
C1960 C 0.06385 0.89183 0.69187 0.0
C1961 C 0.077 0.86843 0.70063 0.0
C1962 C 0.10374 0.87562 0.71628 0.0
C1963 C 0.1031 0.86483 0.74575 0.0
C1964 C 0.12907 0.86498 0.70116 0.0
C1965 C 0.103 0.90663 0.7157 0.0
C1966 C 0.07962 0.9155 0.70181 0.0
C1967 C 0.0739 0.94321 0.69918 0.0
C1968 C 0.0925 0.96238 0.71118 0.0
C1969 C 0.11681 0.95383 0.72525 0.0
C1970 C 0.12213 0.92553 0.72731 0.0
H1971 H 0.50245 0.87696 0.35982 0.0
H1972 H 0.45487 0.8031 0.33992 0.0
H1973 H 0.42147 0.83053 0.31304 0.0
H1974 H 0.44718 0.9216 0.36741 0.0
H1975 H 0.46336 0.95063 0.35105 0.0
H1976 H 0.48449 0.92532 0.36761 0.0
H1977 H 0.51094 0.91772 0.32275 0.0
H1978 H 0.49015 0.9433 0.30611 0.0
H1979 H 0.49173 0.90939 0.29171 0.0
H1980 H 0.39006 0.86626 0.29486 0.0
H1981 H 0.36631 0.9068 0.27809 0.0
H1982 H 0.43684 0.95808 0.30364 0.0
C1983 C 0.48528 0.86654 0.34936 0.0
C1984 C 0.48117 0.83788 0.3519 0.0
C1985 C 0.4585 0.82494 0.33796 0.0
C1986 C 0.43936 0.84039 0.32284 0.0
C1987 C 0.44363 0.86866 0.32128 0.0
C1988 C 0.46643 0.88158 0.33345 0.0
C1989 C 0.46618 0.91224 0.32817 0.0
C1990 C 0.46524 0.92839 0.35517 0.0
C1991 C 0.49124 0.92119 0.31117 0.0
C1992 C 0.43919 0.91464 0.31181 0.0
C1993 C 0.42646 0.88921 0.30851 0.0
C1994 C 0.40025 0.88615 0.29646 0.0
C1995 C 0.38691 0.90951 0.2869 0.0
C1996 C 0.39996 0.93579 0.28853 0.0
C1997 C 0.42653 0.9383 0.30137 0.0
H1998 H 0.86003 0.66454 0.02264 0.0
H1999 H 0.79323 0.71309 0.05371 0.0
H2000 H 0.82705 0.74017 0.08184 0.0
H2001 H 0.90186 0.66352 0.08465 0.0
H2002 H 0.93441 0.66658 0.06726 0.0
H2003 H 0.90475 0.65057 0.05031 0.0
H2004 H 0.9122 0.68294 0.01117 0.0
H2005 H 0.93889 0.70403 0.02745 0.0
H2006 H 0.90682 0.71875 0.01527 0.0
H2007 H 0.86672 0.75436 0.11377 0.0
H2008 H 0.91184 0.76737 0.13581 0.0
H2009 H 0.95453 0.71751 0.07739 0.0
C2010 C 0.85271 0.68121 0.03504 0.0
C2011 C 0.82411 0.68695 0.03595 0.0
C2012 C 0.81512 0.70872 0.05246 0.0
C2013 C 0.83413 0.72396 0.06874 0.0
C2014 C 0.86212 0.71742 0.06794 0.0
C2015 C 0.87156 0.69717 0.05089 0.0
C2016 C 0.90296 0.69529 0.05304 0.0
C2017 C 0.91148 0.66733 0.0645 0.0
C2018 C 0.91609 0.70063 0.02514 0.0
C2019 C 0.90968 0.71798 0.07364 0.0
C2020 C 0.88559 0.7293 0.08307 0.0
C2021 C 0.88583 0.74678 0.10566 0.0
C2022 C 0.91147 0.75401 0.11808 0.0
C2023 C 0.93654 0.745 0.10701 0.0
C2024 C 0.93563 0.72616 0.08495 0.0
H2025 H 0.60315 0.28786 0.61178 0.0
H2026 H 0.55312 0.35957 0.59761 0.0
H2027 H 0.59289 0.38343 0.57755 0.0
H2028 H 0.67089 0.3316 0.62648 0.0
H2029 H 0.69165 0.30564 0.61113 0.0
H2030 H 0.66074 0.29605 0.62925 0.0
H2031 H 0.64426 0.26961 0.58698 0.0
H2032 H 0.67276 0.28104 0.56642 0.0
H2033 H 0.63723 0.2875 0.55564 0.0
H2034 H 0.63405 0.39716 0.55285 0.0
H2035 H 0.6793 0.40386 0.53114 0.0
H2036 H 0.70537 0.3247 0.56093 0.0
C2037 C 0.60105 0.30898 0.60559 0.0
C2038 C 0.57491 0.32171 0.60594 0.0
C2039 C 0.57282 0.34925 0.59722 0.0
C2040 C 0.59532 0.36307 0.5858 0.0
C2041 C 0.62019 0.34945 0.58391 0.0
C2042 C 0.62378 0.32356 0.59458 0.0
C2043 C 0.65287 0.31373 0.58877 0.0
C2044 C 0.67006 0.31164 0.6155 0.0
C2045 C 0.65176 0.28632 0.57347 0.0
C2046 C 0.66382 0.33701 0.57103 0.0
C2047 C 0.64463 0.35758 0.56919 0.0
C2048 C 0.64945 0.38139 0.55435 0.0
C2049 C 0.67507 0.38491 0.54189 0.0
C2050 C 0.69544 0.36458 0.54382 0.0
C2051 C 0.68974 0.34016 0.55844 0.0
H2052 H 0.20755 0.40951 0.09673 0.0
H2053 H 0.27536 0.46748 0.084 0.0
H2054 H 0.26158 0.49361 0.12463 0.0
H2055 H 0.15846 0.45971 0.11633 0.0
H2056 H 0.1419 0.43837 0.14147 0.0
H2057 H 0.15808 0.42301 0.11248 0.0
H2058 H 0.18852 0.39386 0.14501 0.0
H2059 H 0.17236 0.40906 0.17411 0.0
H2060 H 0.20959 0.41059 0.17121 0.0
H2061 H 0.2408 0.51338 0.16646 0.0
H2062 H 0.21272 0.52713 0.20565 0.0
H2063 H 0.15628 0.45832 0.18999 0.0
C2064 C 0.21965 0.42752 0.10275 0.0
C2065 C 0.24268 0.43639 0.0874 0.0
C2066 C 0.25769 0.46034 0.09552 0.0
C2067 C 0.25006 0.47527 0.11859 0.0
C2068 C 0.22711 0.46621 0.13314 0.0
C2069 C 0.21196 0.44302 0.12549 0.0
C2070 C 0.18734 0.43862 0.14397 0.0
C2071 C 0.15982 0.44002 0.12758 0.0
C2072 C 0.1896 0.41142 0.1595 0.0
C2073 C 0.19109 0.46292 0.16316 0.0
C2074 C 0.21435 0.47836 0.15668 0.0
C2075 C 0.22248 0.50152 0.17169 0.0
C2076 C 0.20641 0.50915 0.19393 0.0
C2077 C 0.18226 0.49389 0.20078 0.0
C2078 C 0.17451 0.47051 0.18509 0.0
H2079 H 0.3928 0.45512 0.84888 0.0
H2080 H 0.32807 0.51166 0.82621 0.0
H2081 H 0.29892 0.49338 0.8633 0.0
H2082 H 0.34546 0.39813 0.86403 0.0
H2083 H 0.36671 0.38579 0.89197 0.0
H2084 H 0.38257 0.40355 0.86388 0.0
H2085 H 0.40561 0.43823 0.8979 0.0
H2086 H 0.3897 0.42069 0.92608 0.0
H2087 H 0.38423 0.45673 0.92115 0.0
H2088 H 0.27847 0.47147 0.90487 0.0
H2089 H 0.26519 0.44334 0.94459 0.0
H2090 H 0.341 0.39766 0.93786 0.0
C2091 C 0.37244 0.46354 0.85172 0.0
C2092 C 0.36267 0.48489 0.8348 0.0
C2093 C 0.33583 0.49522 0.83887 0.0
C2094 C 0.31923 0.48506 0.85996 0.0
C2095 C 0.32953 0.46417 0.87642 0.0
C2096 C 0.35527 0.45312 0.87223 0.0
C2097 C 0.36097 0.43012 0.89227 0.0
C2098 C 0.3641 0.40278 0.87713 0.0
C2099 C 0.38665 0.43686 0.91042 0.0
C2100 C 0.33459 0.43026 0.90869 0.0
C2101 C 0.31693 0.45034 0.89939 0.0
C2102 C 0.29195 0.45546 0.9121 0.0
C2103 C 0.28467 0.43951 0.93473 0.0
C2104 C 0.30202 0.41832 0.94418 0.0
C2105 C 0.32725 0.41356 0.93086 0.0
H2106 H 0.34387 0.59577 0.56255 0.0
H2107 H 0.26263 0.62135 0.58807 0.0
H2108 H 0.27141 0.60159 0.63377 0.0
H2109 H 0.34632 0.53287 0.59865 0.0
H2110 H 0.3824 0.53606 0.60888 0.0
H2111 H 0.37015 0.55232 0.57801 0.0
H2112 H 0.38918 0.59917 0.59564 0.0
H2113 H 0.40182 0.58301 0.62641 0.0
H2114 H 0.37882 0.61154 0.62859 0.0
H2115 H 0.28683 0.57512 0.67479 0.0
H2116 H 0.31126 0.55102 0.71213 0.0
H2117 H 0.3849 0.54684 0.66283 0.0
C2118 C 0.32812 0.59747 0.57792 0.0
C2119 C 0.30253 0.61009 0.57178 0.0
C2120 C 0.28245 0.61202 0.5924 0.0
C2121 C 0.28716 0.60065 0.61835 0.0
C2122 C 0.31234 0.58794 0.62361 0.0
C2123 C 0.33282 0.58692 0.60429 0.0
C2124 C 0.35844 0.57296 0.61578 0.0
C2125 C 0.36468 0.54701 0.59935 0.0
C2126 C 0.38355 0.59286 0.61666 0.0
C2127 C 0.34893 0.56591 0.64439 0.0
C2128 C 0.32205 0.57432 0.64819 0.0
C2129 C 0.30802 0.56882 0.67224 0.0
C2130 C 0.322 0.55492 0.69324 0.0
C2131 C 0.34996 0.54717 0.69039 0.0
C2132 C 0.36358 0.55272 0.66559 0.0
H2133 H 0.17196 0.59042 0.32206 0.0
H2134 H 0.13234 0.5248 0.36732 0.0
H2135 H 0.15863 0.53865 0.40893 0.0
H2136 H 0.23803 0.58698 0.35378 0.0
H2137 H 0.2455 0.62318 0.35722 0.0
H2138 H 0.22329 0.61057 0.32966 0.0
H2139 H 0.18258 0.64007 0.34332 0.0
H2140 H 0.20439 0.65538 0.36977 0.0
H2141 H 0.17134 0.64008 0.37826 0.0
H2142 H 0.18864 0.55888 0.44535 0.0
H2143 H 0.21911 0.58651 0.4761 0.0
H2144 H 0.23944 0.64065 0.409 0.0
C2145 C 0.16884 0.57915 0.34083 0.0
C2146 C 0.14993 0.55667 0.34163 0.0
C2147 C 0.14628 0.54235 0.36643 0.0
C2148 C 0.16132 0.54993 0.39012 0.0
C2149 C 0.17972 0.57216 0.38879 0.0
C2150 C 0.1833 0.58691 0.365 0.0
C2151 C 0.20379 0.61058 0.36973 0.0
C2152 C 0.22919 0.60768 0.35154 0.0
C2153 C 0.18968 0.63816 0.36499 0.0
C2154 C 0.2113 0.60658 0.3998 0.0
C2155 C 0.19718 0.58414 0.41019 0.0
C2156 C 0.19994 0.5764 0.43745 0.0
C2157 C 0.21743 0.5921 0.45471 0.0
C2158 C 0.23216 0.61517 0.44471 0.0
C2159 C 0.22882 0.62273 0.41695 0.0
loop_
_geom_bond_atom_site_label_1
_geom_bond_atom_site_label_2
_geom_bond_distance
_geom_bond_site_symmetry_2
_ccdc_geom_bond_type
Mn0 O5 2.095 1_455 S
Mn0 O15 2.162 1_455 S
Mn0 O16 2.297 1_455 S
Mn0 O24 2.385 . S
Mn0 O25 2.209 . S
Mn0 O26 2.094 . S
Mn1 O6 2.121 1_455 S
Mn1 N8 2.257 . S
Mn1 N17 2.282 . S
Mn1 O25 2.215 . S
Mn1 O27 2.117 . S
C2 O24 1.234 . S
C2 O25 1.283 . S
C3 O15 1.281 . S
C3 O16 1.236 . S
C4 O26 1.240 . S
C4 O27 1.264 . S
O5 Mn0 2.095 1_655 S
O5 C14 1.250 . S
O6 Mn1 2.121 1_655 S
O6 C14 1.258 . S
C7 N8 1.326 . S
C7 C11 1.460 . S
C7 H13 0.898 1_455 S
N8 Mn1 2.257 . S
N8 C7 1.326 . S
N8 C12 1.362 . S
C9 C10 1.258 . S
C9 C12 1.431 . S
C9 C29 1.449 . S
C10 C9 1.258 . S
C10 C11 1.477 . S
C10 H30 0.931 . S
C11 C7 1.460 . S
C11 C10 1.477 . S
C11 H31 0.930 . S
C12 N8 1.362 . S
C12 C9 1.431 . S
C12 C22 1.476 . S
H13 C7 0.898 1_655 S
C14 O5 1.250 . S
C14 O6 1.258 . S
O15 Mn0 2.162 1_655 S
O15 C3 1.281 . S
O16 Mn0 2.297 1_655 S
O16 C3 1.236 . S
N17 Mn1 2.282 . S
N17 C18 1.328 . S
N17 C22 1.318 . S
C18 N17 1.328 . S
C18 C19 1.457 . S
C18 H23 0.929 . S
C19 C18 1.457 . S
C19 C20 1.291 . S
C19 H32 0.931 . S
C20 C19 1.291 . S
C20 C21 1.373 . S
C20 H33 0.929 . S
C21 C20 1.373 . S
C21 C22 1.396 . S
C21 C28 1.403 . S
C22 C12 1.476 . S
C22 N17 1.318 . S
C22 C21 1.396 . S
H23 C18 0.929 . S
O24 Mn0 2.385 . S
O24 C2 1.234 . S
O25 Mn0 2.209 . S
O25 Mn1 2.215 . S
O25 C2 1.283 . S
O26 Mn0 2.094 . S
O26 C4 1.240 . S
O27 Mn1 2.117 . S
O27 C4 1.264 . S
C28 C21 1.403 . S
C28 C29 1.399 . S
C28 H34 0.929 . S
C29 C9 1.449 . S
C29 C28 1.399 . S
C29 H35 0.930 . S
H30 C10 0.931 . S
H31 C11 0.930 . S
H32 C19 0.931 . S
H33 C20 0.929 . S
H34 C28 0.929 . S
H35 C29 0.930 . S
Mn36 O41 2.095 1_455 S
Mn36 O51 2.162 . S
Mn36 O52 2.297 . S
Mn36 O60 2.385 . S
Mn36 O61 2.209 . S
Mn36 O62 2.094 1_455 S
Mn37 O42 2.121 . S
Mn37 N44 2.257 . S
Mn37 N53 2.282 . S
Mn37 O61 2.215 1_655 S
Mn37 O63 2.117 . S
C38 O60 1.234 . S
C38 O61 1.283 . S
C39 O51 1.281 . S
C39 O52 1.236 . S
C40 O62 1.240 . S
C40 O63 1.264 . S
O41 Mn36 2.095 1_655 S
O41 C50 1.250 . S
O42 Mn37 2.121 . S
O42 C50 1.258 . S
C43 N44 1.326 . S
C43 C47 1.460 . S
C43 H49 0.929 . S
N44 Mn37 2.257 . S
N44 C43 1.326 . S
N44 C48 1.362 . S
C45 C46 1.258 . S
C45 C48 1.431 . S
C45 C65 1.449 . S
C46 C45 1.258 . S
C46 C47 1.477 . S
C46 H66 0.931 . S
C47 C43 1.460 . S
C47 C46 1.477 . S
C47 H67 0.930 . S
C48 N44 1.362 . S
C48 C45 1.431 . S
C48 C58 1.476 . S
H49 C43 0.929 . S
C50 O41 1.250 . S
C50 O42 1.258 . S
O51 Mn36 2.162 . S
O51 C39 1.281 . S
O52 Mn36 2.297 . S
O52 C39 1.236 . S
N53 Mn37 2.282 . S
N53 C54 1.328 . S
N53 C58 1.318 . S
C54 N53 1.328 . S
C54 C55 1.457 . S
C54 H59 0.929 . S
C55 C54 1.457 . S
C55 C56 1.291 . S
C55 H68 0.931 . S
C56 C55 1.291 . S
C56 C57 1.373 . S
C56 H69 0.929 . S
C57 C56 1.373 . S
C57 C58 1.396 . S
C57 C64 1.403 . S
C58 C48 1.476 . S
C58 N53 1.318 . S
C58 C57 1.396 . S
H59 C54 0.929 . S
O60 Mn36 2.385 . S
O60 C38 1.234 . S
O61 Mn36 2.209 . S
O61 Mn37 2.215 1_455 S
O61 C38 1.283 . S
O62 Mn36 2.094 1_655 S
O62 C40 1.240 . S
O63 Mn37 2.117 . S
O63 C40 1.264 . S
C64 C57 1.403 . S
C64 C65 1.399 . S
C64 H70 0.929 . S
C65 C45 1.449 . S
C65 C64 1.399 . S
C65 H71 0.930 . S
H66 C46 0.931 . S
H67 C47 0.930 . S
H68 C55 0.931 . S
H69 C56 0.929 . S
H70 C64 0.929 . S
H71 C65 0.930 . S
Mn72 O77 2.095 . S
Mn72 O87 2.162 . S
Mn72 O88 2.297 . S
Mn72 O96 2.385 . S
Mn72 O97 2.209 . S
Mn72 O98 2.094 . S
Mn73 O78 2.121 . S
Mn73 N80 2.257 . S
Mn73 N89 2.282 . S
Mn73 O97 2.215 . S
Mn73 O99 2.117 . S
C74 O96 1.234 . S
C74 O97 1.283 . S
C75 O87 1.281 . S
C75 O88 1.236 . S
C76 O98 1.240 . S
C76 O99 1.264 . S
O77 Mn72 2.095 . S
O77 C86 1.250 . S
O78 Mn73 2.121 . S
O78 C86 1.258 . S
C79 N80 1.326 . S
C79 C83 1.460 1_556 S
C79 H85 0.929 . S
N80 Mn73 2.257 . S
N80 C79 1.326 . S
N80 C84 1.362 . S
C81 C82 1.238 1_556 S
C81 C84 1.456 . S
C81 C101 1.444 1_556 S
C82 C81 1.238 1_554 S
C82 C83 1.477 . S
C82 H102 0.931 . S
C83 C79 1.460 1_554 S
C83 C82 1.477 . S
C83 H103 0.930 . S
C84 N80 1.362 . S
C84 C81 1.456 . S
C84 C94 1.476 . S
H85 C79 0.929 . S
C86 O77 1.250 . S
C86 O78 1.258 . S
O87 Mn72 2.162 . S
O87 C75 1.281 . S
O88 Mn72 2.297 . S
O88 C75 1.236 . S
N89 Mn73 2.282 . S
N89 C90 1.328 . S
N89 C94 1.318 . S
C90 N89 1.328 . S
C90 C91 1.457 . S
C90 H95 0.929 . S
C91 C90 1.457 . S
C91 C92 1.291 . S
C91 H104 0.931 . S
C92 C91 1.291 . S
C92 C93 1.373 . S
C92 H105 0.929 . S
C93 C92 1.373 . S
C93 C94 1.396 . S
C93 C100 1.403 . S
C94 C84 1.476 . S
C94 N89 1.318 . S
C94 C93 1.396 . S
H95 C90 0.929 . S
O96 Mn72 2.385 . S
O96 C74 1.234 . S
O97 Mn72 2.209 . S
O97 Mn73 2.215 . S
O97 C74 1.283 . S
O98 Mn72 2.094 . S
O98 C76 1.240 . S
O99 Mn73 2.117 . S
O99 C76 1.264 . S
C100 C93 1.403 . S
C100 C101 1.399 1_556 S
C100 H106 0.929 . S
C101 C81 1.444 1_554 S
C101 C100 1.399 1_554 S
C101 H107 0.930 . S
H102 C82 0.931 . S
H103 C83 0.930 . S
H104 C91 0.931 . S
H105 C92 0.929 . S
H106 C100 0.929 . S
H107 C101 0.930 . S
Mn108 O113 2.095 . S
Mn108 O123 2.162 . S
Mn108 O124 2.297 . S
Mn108 O132 2.385 . S
Mn108 O133 2.209 . S
Mn108 O134 2.094 . S
Mn109 O114 2.121 . S
Mn109 N116 2.257 . S
Mn109 N125 2.282 . S
Mn109 O133 2.215 . S
Mn109 O135 2.117 . S
C110 O132 1.234 . S
C110 O133 1.283 . S
C111 O123 1.281 . S
C111 O124 1.236 . S
C112 O134 1.240 . S
C112 O135 1.264 . S
O113 Mn108 2.095 . S
O113 C122 1.250 . S
O114 Mn109 2.121 . S
O114 C122 1.258 . S
C115 N116 1.326 . S
C115 C119 1.460 . S
C115 H121 0.929 . S
N116 Mn109 2.257 . S
N116 C115 1.326 . S
N116 C120 1.362 . S
C117 C118 1.258 . S
C117 C120 1.431 . S
C117 C137 1.449 . S
C118 C117 1.258 . S
C118 C119 1.477 . S
C118 H138 0.931 . S
C119 C115 1.460 . S
C119 C118 1.477 . S
C119 H139 0.930 . S
C120 N116 1.362 . S
C120 C117 1.431 . S
C120 C130 1.476 . S
H121 C115 0.929 . S
C122 O113 1.250 . S
C122 O114 1.258 . S
O123 Mn108 2.162 . S
O123 C111 1.281 . S
O124 Mn108 2.297 . S
O124 C111 1.236 . S
N125 Mn109 2.282 . S
N125 C126 1.328 . S
N125 C130 1.318 . S
C126 N125 1.328 . S
C126 C127 1.457 . S
C126 H131 0.929 . S
C127 C126 1.457 . S
C127 C128 1.291 . S
C127 H140 0.931 . S
C128 C127 1.291 . S
C128 C129 1.373 . S
C128 H141 0.929 . S
C129 C128 1.373 . S
C129 C130 1.396 . S
C129 C136 1.403 . S
C130 C120 1.476 . S
C130 N125 1.318 . S
C130 C129 1.396 . S
H131 C126 0.929 . S
O132 Mn108 2.385 . S
O132 C110 1.234 . S
O133 Mn108 2.209 . S
O133 Mn109 2.215 . S
O133 C110 1.283 . S
O134 Mn108 2.094 . S
O134 C112 1.240 . S
O135 Mn109 2.117 . S
O135 C112 1.264 . S
C136 C129 1.403 . S
C136 C137 1.399 . S
C136 H142 0.929 . S
C137 C117 1.449 . S
C137 C136 1.399 . S
C137 H143 0.930 . S
H138 C118 0.931 . S
H139 C119 0.930 . S
H140 C127 0.931 . S
H141 C128 0.929 . S
H142 C136 0.929 . S
H143 C137 0.930 . S
Mn144 O149 2.095 . S
Mn144 O159 2.162 . S
Mn144 O160 2.297 . S
Mn144 O168 2.385 1_455 S
Mn144 O169 2.209 1_455 S
Mn144 O170 2.094 1_455 S
Mn145 O150 2.121 1_655 S
Mn145 N152 2.257 . S
Mn145 N161 2.282 . S
Mn145 O169 2.215 . S
Mn145 O171 2.117 . S
C146 O168 1.234 . S
C146 O169 1.283 . S
C147 O159 1.281 . S
C147 O160 1.236 . S
C148 O170 1.240 . S
C148 O171 1.264 . S
O149 Mn144 2.095 . S
O149 C158 1.250 . S
O150 Mn145 2.121 1_455 S
O150 C158 1.258 . S
C151 N152 1.326 . S
C151 C155 1.460 1_554 S
C151 H157 0.929 1_655 S
N152 Mn145 2.257 . S
N152 C151 1.326 . S
N152 C156 1.362 . S
C153 C154 1.258 1_554 S
C153 C156 1.431 . S
C153 C173 1.449 . S
C154 C153 1.258 1_556 S
C154 C155 1.477 . S
C154 H174 0.931 . S
C155 C151 1.460 1_556 S
C155 C154 1.477 . S
C155 H175 0.930 1_655 S
C156 N152 1.362 . S
C156 C153 1.431 . S
C156 C166 1.476 . S
H157 C151 0.929 1_455 S
C158 O149 1.250 . S
C158 O150 1.258 . S
O159 Mn144 2.162 . S
O159 C147 1.281 . S
O160 Mn144 2.297 . S
O160 C147 1.236 . S
N161 Mn145 2.282 . S
N161 C162 1.328 . S
N161 C166 1.318 . S
C162 N161 1.328 . S
C162 C163 1.457 . S
C162 H167 0.929 . S
C163 C162 1.457 . S
C163 C164 1.291 . S
C163 H176 0.931 . S
C164 C163 1.291 . S
C164 C165 1.373 . S
C164 H177 0.929 . S
C165 C164 1.373 . S
C165 C166 1.396 . S
C165 C172 1.403 . S
C166 C156 1.476 . S
C166 N161 1.318 . S
C166 C165 1.396 . S
H167 C162 0.929 . S
O168 Mn144 2.385 1_655 S
O168 C146 1.234 . S
O169 Mn144 2.209 1_655 S
O169 Mn145 2.215 . S
O169 C146 1.283 . S
O170 Mn144 2.094 1_655 S
O170 C148 1.240 . S
O171 Mn145 2.117 . S
O171 C148 1.264 . S
C172 C165 1.403 . S
C172 C173 1.399 . S
C172 H178 0.929 . S
C173 C153 1.449 . S
C173 C172 1.399 . S
C173 H179 0.930 1_554 S
H174 C154 0.931 . S
H175 C155 0.930 1_455 S
H176 C163 0.931 . S
H177 C164 0.929 . S
H178 C172 0.929 . S
H179 C173 0.930 1_556 S
Mn180 O185 2.095 . S
Mn180 O195 2.162 . S
Mn180 O196 2.297 . S
Mn180 O204 2.385 . S
Mn180 O205 2.209 . S
Mn180 O206 2.094 . S
Mn181 O186 2.121 . S
Mn181 N188 2.257 . S
Mn181 N197 2.282 . S
Mn181 O205 2.215 . S
Mn181 O207 2.117 . S
C182 O204 1.234 . S
C182 O205 1.283 . S
C183 O195 1.281 . S
C183 O196 1.236 . S
C184 O206 1.240 . S
C184 O207 1.264 . S
O185 Mn180 2.095 . S
O185 C194 1.250 . S
O186 Mn181 2.121 . S
O186 C194 1.258 . S
C187 N188 1.326 . S
C187 C191 1.460 . S
C187 H193 0.929 . S
N188 Mn181 2.257 . S
N188 C187 1.326 . S
N188 C192 1.362 . S
C189 C190 1.258 . S
C189 C192 1.431 . S
C189 C209 1.449 . S
C190 C189 1.258 . S
C190 C191 1.477 . S
C190 H210 0.931 . S
C191 C187 1.460 . S
C191 C190 1.477 . S
C191 H211 0.930 . S
C192 N188 1.362 . S
C192 C189 1.431 . S
C192 C202 1.476 . S
H193 C187 0.929 . S
C194 O185 1.250 . S
C194 O186 1.258 . S
O195 Mn180 2.162 . S
O195 C183 1.281 . S
O196 Mn180 2.297 . S
O196 C183 1.236 . S
N197 Mn181 2.282 . S
N197 C198 1.328 . S
N197 C202 1.318 . S
C198 N197 1.328 . S
C198 C199 1.457 . S
C198 H203 0.929 . S
C199 C198 1.457 . S
C199 C200 1.291 . S
C199 H212 0.931 . S
C200 C199 1.291 . S
C200 C201 1.373 . S
C200 H213 0.929 . S
C201 C200 1.373 . S
C201 C202 1.396 . S
C201 C208 1.403 . S
C202 C192 1.476 . S
C202 N197 1.318 . S
C202 C201 1.396 . S
H203 C198 0.929 . S
O204 Mn180 2.385 . S
O204 C182 1.234 . S
O205 Mn180 2.209 . S
O205 Mn181 2.215 . S
O205 C182 1.283 . S
O206 Mn180 2.094 . S
O206 C184 1.240 . S
O207 Mn181 2.117 . S
O207 C184 1.264 . S
C208 C201 1.403 . S
C208 C209 1.399 . S
C208 H214 0.929 . S
C209 C189 1.449 . S
C209 C208 1.399 . S
C209 H215 0.930 . S
H210 C190 0.931 . S
H211 C191 0.930 . S
H212 C199 0.931 . S
H213 C200 0.929 . S
H214 C208 0.929 . S
H215 C209 0.930 . S
Mn216 O221 2.095 . S
Mn216 O231 2.162 . S
Mn216 O232 2.297 . S
Mn216 O240 2.385 . S
Mn216 O241 2.209 . S
Mn216 O242 2.094 . S
Mn217 O222 2.121 . S
Mn217 N224 2.257 . S
Mn217 N233 2.282 . S
Mn217 O241 2.215 . S
Mn217 O243 2.117 . S
C218 O240 1.234 . S
C218 O241 1.283 . S
C219 O231 1.281 . S
C219 O232 1.236 . S
C220 O242 1.240 . S
C220 O243 1.264 . S
O221 Mn216 2.095 . S
O221 C230 1.250 . S
O222 Mn217 2.121 . S
O222 C230 1.258 . S
C223 N224 1.326 . S
C223 C227 1.460 . S
C223 H229 0.929 . S
N224 Mn217 2.257 . S
N224 C223 1.326 . S
N224 C228 1.362 . S
C225 C226 1.258 . S
C225 C228 1.431 . S
C225 C245 1.449 . S
C226 C225 1.258 . S
C226 C227 1.477 . S
C226 H246 0.931 . S
C227 C223 1.460 . S
C227 C226 1.477 . S
C227 H247 0.930 . S
C228 N224 1.362 . S
C228 C225 1.431 . S
C228 C238 1.476 . S
H229 C223 0.929 . S
C230 O221 1.250 . S
C230 O222 1.258 . S
O231 Mn216 2.162 . S
O231 C219 1.281 . S
O232 Mn216 2.297 . S
O232 C219 1.236 . S
N233 Mn217 2.282 . S
N233 C234 1.328 . S
N233 C238 1.318 . S
C234 N233 1.328 . S
C234 C235 1.457 . S
C234 H239 0.929 . S
C235 C234 1.457 . S
C235 C236 1.291 . S
C235 H248 0.931 . S
C236 C235 1.291 . S
C236 C237 1.373 . S
C236 H249 0.929 . S
C237 C236 1.373 . S
C237 C238 1.396 . S
C237 C244 1.403 . S
C238 C228 1.476 . S
C238 N233 1.318 . S
C238 C237 1.396 . S
H239 C234 0.929 . S
O240 Mn216 2.385 . S
O240 C218 1.234 . S
O241 Mn216 2.209 . S
O241 Mn217 2.215 . S
O241 C218 1.283 . S
O242 Mn216 2.094 . S
O242 C220 1.240 . S
O243 Mn217 2.117 . S
O243 C220 1.264 . S
C244 C237 1.403 . S
C244 C245 1.399 . S
C244 H250 0.929 . S
C245 C225 1.449 . S
C245 C244 1.399 . S
C245 H251 0.930 . S
H246 C226 0.931 . S
H247 C227 0.930 . S
H248 C235 0.931 . S
H249 C236 0.929 . S
H250 C244 0.929 . S
H251 C245 0.930 . S
Mn252 O257 2.095 1_455 S
Mn252 O267 2.162 . S
Mn252 O268 2.297 . S
Mn252 O276 2.385 . S
Mn252 O277 2.209 . S
Mn252 O278 2.094 1_455 S
Mn253 O258 2.121 . S
Mn253 N260 2.257 1_655 S
Mn253 N269 2.282 1_655 S
Mn253 O277 2.215 1_655 S
Mn253 O279 2.117 . S
C254 O276 1.234 . S
C254 O277 1.283 . S
C255 O267 1.281 . S
C255 O268 1.236 . S
C256 O278 1.240 . S
C256 O279 1.264 . S
O257 Mn252 2.095 1_655 S
O257 C266 1.250 . S
O258 Mn253 2.121 . S
O258 C266 1.258 . S
C259 N260 1.337 . S
C259 C263 1.468 1_556 S
C259 H265 0.912 1_455 S
N260 Mn253 2.257 1_455 S
N260 C259 1.337 . S
N260 C264 1.362 . S
C261 C262 1.258 . S
C261 C264 1.431 1_554 S
C261 C281 1.449 . S
C262 C261 1.258 . S
C262 C263 1.477 . S
C262 H282 0.931 . S
C263 C259 1.468 1_554 S
C263 C262 1.477 . S
C263 H283 0.930 . S
C264 N260 1.362 . S
C264 C261 1.431 1_556 S
C264 C274 1.476 . S
H265 C259 0.912 1_655 S
C266 O257 1.250 . S
C266 O258 1.258 . S
O267 Mn252 2.162 . S
O267 C255 1.281 . S
O268 Mn252 2.297 . S
O268 C255 1.236 . S
N269 Mn253 2.282 1_455 S
N269 C270 1.328 . S
N269 C274 1.318 . S
C270 N269 1.328 . S
C270 C271 1.457 . S
C270 H275 0.929 . S
C271 C270 1.457 . S
C271 C272 1.291 . S
C271 H284 0.931 . S
C272 C271 1.291 . S
C272 C273 1.373 . S
C272 H285 0.929 . S
C273 C272 1.373 . S
C273 C274 1.396 . S
C273 C280 1.403 . S
C274 C264 1.476 . S
C274 N269 1.318 . S
C274 C273 1.396 . S
H275 C270 0.929 . S
O276 Mn252 2.385 . S
O276 C254 1.234 . S
O277 Mn252 2.209 . S
O277 Mn253 2.215 1_455 S
O277 C254 1.283 . S
O278 Mn252 2.094 1_655 S
O278 C256 1.240 . S
O279 Mn253 2.117 . S
O279 C256 1.264 . S
C280 C273 1.403 . S
C280 C281 1.399 1_556 S
C280 H286 0.929 . S
C281 C261 1.449 . S
C281 C280 1.399 1_554 S
C281 H287 0.930 . S
H282 C262 0.931 . S
H283 C263 0.930 . S
H284 C271 0.931 . S
H285 C272 0.929 . S
H286 C280 0.929 . S
H287 C281 0.930 . S
Mn288 O293 2.095 . S
Mn288 O303 2.162 . S
Mn288 O304 2.297 . S
Mn288 O312 2.385 1_545 S
Mn288 O313 2.209 1_545 S
Mn288 O314 2.094 1_545 S
Mn289 O294 2.121 1_565 S
Mn289 N296 2.257 . S
Mn289 N305 2.282 . S
Mn289 O313 2.215 . S
Mn289 O315 2.117 . S
C290 O312 1.234 . S
C290 O313 1.283 . S
C291 O303 1.281 . S
C291 O304 1.236 . S
C292 O314 1.240 . S
C292 O315 1.264 . S
O293 Mn288 2.095 . S
O293 C302 1.250 . S
O294 Mn289 2.121 1_545 S
O294 C302 1.258 . S
C295 N296 1.326 . S
C295 C299 1.460 . S
C295 H301 0.929 1_565 S
N296 Mn289 2.257 . S
N296 C295 1.326 . S
N296 C300 1.362 . S
C297 C298 1.258 . S
C297 C300 1.431 . S
C297 C317 1.449 . S
C298 C297 1.258 . S
C298 C299 1.477 . S
C298 H318 0.931 . S
C299 C295 1.460 . S
C299 C298 1.477 . S
C299 H319 0.930 . S
C300 N296 1.362 . S
C300 C297 1.431 . S
C300 C310 1.476 . S
H301 C295 0.929 1_545 S
C302 O293 1.250 . S
C302 O294 1.258 . S
O303 Mn288 2.162 . S
O303 C291 1.281 . S
O304 Mn288 2.297 . S
O304 C291 1.236 . S
N305 Mn289 2.282 . S
N305 C306 1.328 . S
N305 C310 1.318 . S
C306 N305 1.328 . S
C306 C307 1.457 . S
C306 H311 0.929 . S
C307 C306 1.457 . S
C307 C308 1.291 . S
C307 H320 0.931 . S
C308 C307 1.291 . S
C308 C309 1.373 . S
C308 H321 0.929 . S
C309 C308 1.373 . S
C309 C310 1.396 . S
C309 C316 1.403 . S
C310 C300 1.476 . S
C310 N305 1.318 . S
C310 C309 1.396 . S
H311 C306 0.929 . S
O312 Mn288 2.385 1_565 S
O312 C290 1.234 . S
O313 Mn288 2.209 1_565 S
O313 Mn289 2.215 . S
O313 C290 1.283 . S
O314 Mn288 2.094 1_565 S
O314 C292 1.240 . S
O315 Mn289 2.117 . S
O315 C292 1.264 . S
C316 C309 1.403 . S
C316 C317 1.399 . S
C316 H322 0.929 . S
C317 C297 1.449 . S
C317 C316 1.399 . S
C317 H323 0.930 . S
H318 C298 0.931 . S
H319 C299 0.930 . S
H320 C307 0.931 . S
H321 C308 0.929 . S
H322 C316 0.929 . S
H323 C317 0.930 . S
Mn324 O329 2.095 . S
Mn324 O339 2.162 . S
Mn324 O340 2.297 . S
Mn324 O348 2.385 . S
Mn324 O349 2.209 . S
Mn324 O350 2.094 . S
Mn325 O330 2.121 . S
Mn325 N332 2.257 . S
Mn325 N341 2.282 . S
Mn325 O349 2.215 . S
Mn325 O351 2.117 . S
C326 O348 1.234 . S
C326 O349 1.283 . S
C327 O339 1.281 . S
C327 O340 1.236 . S
C328 O350 1.240 . S
C328 O351 1.264 . S
O329 Mn324 2.095 . S
O329 C338 1.250 . S
O330 Mn325 2.121 . S
O330 C338 1.258 . S
C331 N332 1.326 . S
C331 C335 1.460 . S
C331 H337 0.929 . S
N332 Mn325 2.257 . S
N332 C331 1.326 . S
N332 C336 1.362 . S
C333 C334 1.258 . S
C333 C336 1.431 . S
C333 C353 1.449 . S
C334 C333 1.258 . S
C334 C335 1.477 . S
C334 H354 0.931 . S
C335 C331 1.460 . S
C335 C334 1.477 . S
C335 H355 0.930 . S
C336 N332 1.362 . S
C336 C333 1.431 . S
C336 C346 1.476 . S
H337 C331 0.929 . S
C338 O329 1.250 . S
C338 O330 1.258 . S
O339 Mn324 2.162 . S
O339 C327 1.281 . S
O340 Mn324 2.297 . S
O340 C327 1.236 . S
N341 Mn325 2.282 . S
N341 C342 1.328 . S
N341 C346 1.318 . S
C342 N341 1.328 . S
C342 C343 1.457 . S
C342 H347 0.929 . S
C343 C342 1.457 . S
C343 C344 1.291 . S
C343 H356 0.931 . S
C344 C343 1.291 . S
C344 C345 1.373 . S
C344 H357 0.929 . S
C345 C344 1.373 . S
C345 C346 1.396 . S
C345 C352 1.403 . S
C346 C336 1.476 . S
C346 N341 1.318 . S
C346 C345 1.396 . S
H347 C342 0.929 . S
O348 Mn324 2.385 . S
O348 C326 1.234 . S
O349 Mn324 2.209 . S
O349 Mn325 2.215 . S
O349 C326 1.283 . S
O350 Mn324 2.094 . S
O350 C328 1.240 . S
O351 Mn325 2.117 . S
O351 C328 1.264 . S
C352 C345 1.403 . S
C352 C353 1.399 . S
C352 H358 0.929 . S
C353 C333 1.449 . S
C353 C352 1.399 . S
C353 H359 0.930 . S
H354 C334 0.931 . S
H355 C335 0.930 . S
H356 C343 0.931 . S
H357 C344 0.929 . S
H358 C352 0.929 . S
H359 C353 0.930 . S
Mn360 O365 2.095 . S
Mn360 O375 2.162 . S
Mn360 O376 2.297 . S
Mn360 O384 2.385 1_545 S
Mn360 O385 2.209 1_545 S
Mn360 O386 2.094 1_545 S
Mn361 O366 2.121 1_565 S
Mn361 N368 2.257 . S
Mn361 N377 2.282 . S
Mn361 O385 2.215 . S
Mn361 O387 2.117 . S
C362 O384 1.234 . S
C362 O385 1.283 . S
C363 O375 1.281 . S
C363 O376 1.236 . S
C364 O386 1.240 . S
C364 O387 1.264 . S
O365 Mn360 2.095 . S
O365 C374 1.250 . S
O366 Mn361 2.121 1_545 S
O366 C374 1.258 . S
C367 N368 1.326 . S
C367 C371 1.460 . S
C367 H373 0.918 1_565 S
N368 Mn361 2.257 . S
N368 C367 1.326 . S
N368 C372 1.362 . S
C369 C370 1.258 . S
C369 C372 1.431 . S
C369 C389 1.449 . S
C370 C369 1.258 . S
C370 C371 1.477 . S
C370 H390 0.931 . S
C371 C367 1.460 . S
C371 C370 1.477 . S
C371 H391 0.930 . S
C372 N368 1.362 . S
C372 C369 1.431 . S
C372 C382 1.476 . S
H373 C367 0.918 1_545 S
C374 O365 1.250 . S
C374 O366 1.258 . S
O375 Mn360 2.162 . S
O375 C363 1.281 . S
O376 Mn360 2.297 . S
O376 C363 1.236 . S
N377 Mn361 2.282 . S
N377 C378 1.328 . S
N377 C382 1.318 . S
C378 N377 1.328 . S
C378 C379 1.457 . S
C378 H383 0.929 . S
C379 C378 1.457 . S
C379 C380 1.291 . S
C379 H392 0.931 . S
C380 C379 1.291 . S
C380 C381 1.373 . S
C380 H393 0.929 . S
C381 C380 1.373 . S
C381 C382 1.396 . S
C381 C388 1.403 . S
C382 C372 1.476 . S
C382 N377 1.318 . S
C382 C381 1.396 . S
H383 C378 0.929 . S
O384 Mn360 2.385 1_565 S
O384 C362 1.234 . S
O385 Mn360 2.209 1_565 S
O385 Mn361 2.215 . S
O385 C362 1.283 . S
O386 Mn360 2.094 1_565 S
O386 C364 1.240 . S
O387 Mn361 2.117 . S
O387 C364 1.264 . S
C388 C381 1.403 . S
C388 C389 1.399 . S
C388 H394 0.929 . S
C389 C369 1.449 . S
C389 C388 1.399 . S
C389 H395 0.930 . S
H390 C370 0.931 . S
H391 C371 0.930 . S
H392 C379 0.931 . S
H393 C380 0.929 . S
H394 C388 0.929 . S
H395 C389 0.930 . S
Mn396 O401 2.095 1_554 S
Mn396 O411 2.162 . S
Mn396 O412 2.297 . S
Mn396 O420 2.385 . S
Mn396 O421 2.209 . S
Mn396 O422 2.094 1_554 S
Mn397 O402 2.121 . S
Mn397 N404 2.257 . S
Mn397 N413 2.282 . S
Mn397 O421 2.215 1_556 S
Mn397 O423 2.117 . S
C398 O420 1.234 . S
C398 O421 1.283 . S
C399 O411 1.281 . S
C399 O412 1.236 . S
C400 O422 1.240 . S
C400 O423 1.264 . S
O401 Mn396 2.095 1_556 S
O401 C410 1.250 . S
O402 Mn397 2.121 . S
O402 C410 1.258 . S
C403 N404 1.326 . S
C403 C407 1.460 . S
C403 H409 0.929 . S
N404 Mn397 2.257 . S
N404 C403 1.326 . S
N404 C408 1.362 . S
C405 C406 1.258 . S
C405 C408 1.431 . S
C405 C425 1.449 . S
C406 C405 1.258 . S
C406 C407 1.477 . S
C406 H426 0.931 . S
C407 C403 1.460 . S
C407 C406 1.477 . S
C407 H427 0.930 . S
C408 N404 1.362 . S
C408 C405 1.431 . S
C408 C418 1.476 . S
H409 C403 0.929 . S
C410 O401 1.250 . S
C410 O402 1.258 . S
O411 Mn396 2.162 . S
O411 C399 1.281 . S
O412 Mn396 2.297 . S
O412 C399 1.236 . S
N413 Mn397 2.282 . S
N413 C414 1.328 . S
N413 C418 1.318 . S
C414 N413 1.328 . S
C414 C415 1.457 . S
C414 H419 0.929 . S
C415 C414 1.457 . S
C415 C416 1.291 . S
C415 H428 0.931 . S
C416 C415 1.291 . S
C416 C417 1.373 . S
C416 H429 0.929 . S
C417 C416 1.373 . S
C417 C418 1.396 . S
C417 C424 1.403 . S
C418 C408 1.476 . S
C418 N413 1.318 . S
C418 C417 1.396 . S
H419 C414 0.929 . S
O420 Mn396 2.385 . S
O420 C398 1.234 . S
O421 Mn396 2.209 . S
O421 Mn397 2.215 1_554 S
O421 C398 1.283 . S
O422 Mn396 2.094 1_556 S
O422 C400 1.240 . S
O423 Mn397 2.117 . S
O423 C400 1.264 . S
C424 C417 1.403 . S
C424 C425 1.399 . S
C424 H430 0.929 . S
C425 C405 1.449 . S
C425 C424 1.399 . S
C425 H431 0.930 . S
H426 C406 0.931 . S
H427 C407 0.930 . S
H428 C415 0.931 . S
H429 C416 0.929 . S
H430 C424 0.929 . S
H431 C425 0.930 . S
Mn432 O437 2.095 . S
Mn432 O447 2.162 . S
Mn432 O448 2.297 . S
Mn432 O456 2.385 1_554 S
Mn432 O457 2.209 1_554 S
Mn432 O458 2.094 1_554 S
Mn433 O438 2.112 1_556 S
Mn433 N440 2.257 . S
Mn433 N449 2.282 . S
Mn433 O457 2.215 . S
Mn433 O459 2.117 . S
C434 O456 1.234 . S
C434 O457 1.283 . S
C435 O447 1.281 . S
C435 O448 1.236 . S
C436 O458 1.240 . S
C436 O459 1.264 . S
O437 Mn432 2.095 . S
O437 C446 1.250 . S
O438 Mn433 2.112 1_554 S
O438 C446 1.266 . S
C439 N440 1.326 . S
C439 C443 1.460 . S
C439 H445 0.929 . S
N440 Mn433 2.257 . S
N440 C439 1.326 . S
N440 C444 1.362 . S
C441 C442 1.258 . S
C441 C444 1.431 . S
C441 C461 1.449 . S
C442 C441 1.258 . S
C442 C443 1.477 . S
C442 H462 0.931 . S
C443 C439 1.460 . S
C443 C442 1.477 . S
C443 H463 0.930 . S
C444 N440 1.362 . S
C444 C441 1.431 . S
C444 C454 1.476 . S
H445 C439 0.929 . S
C446 O437 1.250 . S
C446 O438 1.266 . S
O447 Mn432 2.162 . S
O447 C435 1.281 . S
O448 Mn432 2.297 . S
O448 C435 1.236 . S
N449 Mn433 2.282 . S
N449 C450 1.328 . S
N449 C454 1.318 . S
C450 N449 1.328 . S
C450 C451 1.457 . S
C450 H455 0.929 . S
C451 C450 1.457 . S
C451 C452 1.291 . S
C451 H464 0.931 . S
C452 C451 1.291 . S
C452 C453 1.373 . S
C452 H465 0.929 . S
C453 C452 1.373 . S
C453 C454 1.396 . S
C453 C460 1.403 . S
C454 C444 1.476 . S
C454 N449 1.318 . S
C454 C453 1.396 . S
H455 C450 0.929 . S
O456 Mn432 2.385 1_556 S
O456 C434 1.234 . S
O457 Mn432 2.209 1_556 S
O457 Mn433 2.215 . S
O457 C434 1.283 . S
O458 Mn432 2.094 1_556 S
O458 C436 1.240 . S
O459 Mn433 2.117 . S
O459 C436 1.264 . S
C460 C453 1.403 . S
C460 C461 1.399 . S
C460 H466 0.929 . S
C461 C441 1.449 . S
C461 C460 1.399 . S
C461 H467 0.930 . S
H462 C442 0.931 . S
H463 C443 0.930 . S
H464 C451 0.931 . S
H465 C452 0.929 . S
H466 C460 0.929 . S
H467 C461 0.930 . S
Mn468 O473 2.095 . S
Mn468 O483 2.162 . S
Mn468 O484 2.297 . S
Mn468 O492 2.385 1_554 S
Mn468 O493 2.209 1_554 S
Mn468 O494 2.094 1_554 S
Mn469 O474 2.121 1_556 S
Mn469 N476 2.257 . S
Mn469 N485 2.282 . S
Mn469 O493 2.215 . S
Mn469 O495 2.117 . S
C470 O492 1.234 . S
C470 O493 1.283 . S
C471 O483 1.281 . S
C471 O484 1.236 . S
C472 O494 1.240 . S
C472 O495 1.264 . S
O473 Mn468 2.095 . S
O473 C482 1.250 . S
O474 Mn469 2.121 1_554 S
O474 C482 1.258 . S
C475 N476 1.326 . S
C475 C479 1.460 . S
C475 H481 0.929 1_556 S
N476 Mn469 2.257 . S
N476 C475 1.326 . S
N476 C480 1.362 . S
C477 C478 1.269 . S
C477 C480 1.431 . S
C477 C497 1.449 . S
C478 C477 1.269 . S
C478 C479 1.481 . S
C478 H498 0.915 1_545 S
C479 C475 1.460 . S
C479 C478 1.481 . S
C479 H499 0.913 1_546 S
C480 N476 1.362 . S
C480 C477 1.431 . S
C480 C490 1.476 . S
H481 C475 0.929 1_554 S
C482 O473 1.250 . S
C482 O474 1.258 . S
O483 Mn468 2.162 . S
O483 C471 1.281 . S
O484 Mn468 2.297 . S
O484 C471 1.236 . S
N485 Mn469 2.282 . S
N485 C486 1.328 . S
N485 C490 1.318 . S
C486 N485 1.328 . S
C486 C487 1.457 . S
C486 H491 0.929 . S
C487 C486 1.457 . S
C487 C488 1.291 . S
C487 H500 0.931 . S
C488 C487 1.291 . S
C488 C489 1.373 . S
C488 H501 0.929 . S
C489 C488 1.373 . S
C489 C490 1.396 . S
C489 C496 1.403 . S
C490 C480 1.476 . S
C490 N485 1.318 . S
C490 C489 1.396 . S
H491 C486 0.929 . S
O492 Mn468 2.385 1_556 S
O492 C470 1.234 . S
O493 Mn468 2.209 1_556 S
O493 Mn469 2.215 . S
O493 C470 1.283 . S
O494 Mn468 2.094 1_556 S
O494 C472 1.240 . S
O495 Mn469 2.117 . S
O495 C472 1.264 . S
C496 C489 1.403 . S
C496 C497 1.399 . S
C496 H502 0.929 . S
C497 C477 1.449 . S
C497 C496 1.399 . S
C497 H503 0.930 1_545 S
H498 C478 0.915 1_565 S
H499 C479 0.913 1_564 S
H500 C487 0.931 . S
H501 C488 0.929 . S
H502 C496 0.929 . S
H503 C497 0.930 1_565 S
Mn504 O509 2.095 . S
Mn504 O519 2.162 . S
Mn504 O520 2.297 . S
Mn504 O528 2.385 . S
Mn504 O529 2.209 . S
Mn504 O530 2.094 . S
Mn505 O510 2.121 . S
Mn505 N512 2.257 . S
Mn505 N521 2.282 . S
Mn505 O529 2.215 . S
Mn505 O531 2.117 . S
C506 O528 1.234 . S
C506 O529 1.283 . S
C507 O519 1.281 . S
C507 O520 1.236 . S
C508 O530 1.240 . S
C508 O531 1.264 . S
O509 Mn504 2.095 . S
O509 C518 1.250 . S
O510 Mn505 2.121 . S
O510 C518 1.258 . S
C511 N512 1.326 . S
C511 C515 1.460 1_455 S
C511 H517 0.929 . S
N512 Mn505 2.257 . S
N512 C511 1.326 . S
N512 C516 1.362 . S
C513 C514 1.258 1_455 S
C513 C516 1.431 . S
C513 C533 1.449 . S
C514 C513 1.258 1_655 S
C514 C515 1.477 . S
C514 H534 0.931 . S
C515 C511 1.460 1_655 S
C515 C514 1.477 . S
C515 H535 0.930 . S
C516 N512 1.362 . S
C516 C513 1.431 . S
C516 C526 1.476 . S
H517 C511 0.929 . S
C518 O509 1.250 . S
C518 O510 1.258 . S
O519 Mn504 2.162 . S
O519 C507 1.281 . S
O520 Mn504 2.297 . S
O520 C507 1.236 . S
N521 Mn505 2.282 . S
N521 C522 1.328 . S
N521 C526 1.318 . S
C522 N521 1.328 . S
C522 C523 1.457 . S
C522 H527 0.929 . S
C523 C522 1.457 . S
C523 C524 1.291 . S
C523 H536 0.931 . S
C524 C523 1.291 . S
C524 C525 1.373 . S
C524 H537 0.929 . S
C525 C524 1.373 . S
C525 C526 1.396 . S
C525 C532 1.403 . S
C526 C516 1.476 . S
C526 N521 1.318 . S
C526 C525 1.396 . S
H527 C522 0.929 . S
O528 Mn504 2.385 . S
O528 C506 1.234 . S
O529 Mn504 2.209 . S
O529 Mn505 2.215 . S
O529 C506 1.283 . S
O530 Mn504 2.094 . S
O530 C508 1.240 . S
O531 Mn505 2.117 . S
O531 C508 1.264 . S
C532 C525 1.403 . S
C532 C533 1.399 . S
C532 H538 0.929 . S
C533 C513 1.449 . S
C533 C532 1.399 . S
C533 H539 0.930 1_455 S
H534 C514 0.931 . S
H535 C515 0.930 . S
H536 C523 0.931 . S
H537 C524 0.929 . S
H538 C532 0.929 . S
H539 C533 0.930 1_655 S
Mn540 O545 2.095 . S
Mn540 O555 2.162 . S
Mn540 O556 2.297 . S
Mn540 O564 2.385 . S
Mn540 O565 2.209 . S
Mn540 O566 2.094 . S
Mn541 O546 2.121 . S
Mn541 N548 2.257 . S
Mn541 N557 2.282 . S
Mn541 O565 2.215 . S
Mn541 O567 2.117 . S
C542 O564 1.234 . S
C542 O565 1.283 . S
C543 O555 1.281 . S
C543 O556 1.236 . S
C544 O566 1.240 . S
C544 O567 1.264 . S
O545 Mn540 2.095 . S
O545 C554 1.250 . S
O546 Mn541 2.121 . S
O546 C554 1.258 . S
C547 N548 1.326 . S
C547 C551 1.460 . S
C547 H553 0.929 . S
N548 Mn541 2.257 . S
N548 C547 1.326 . S
N548 C552 1.362 . S
C549 C550 1.258 . S
C549 C552 1.431 . S
C549 C569 1.449 . S
C550 C549 1.258 . S
C550 C551 1.477 . S
C550 H570 0.931 . S
C551 C547 1.460 . S
C551 C550 1.477 . S
C551 H571 0.930 . S
C552 N548 1.362 . S
C552 C549 1.431 . S
C552 C562 1.476 . S
H553 C547 0.929 . S
C554 O545 1.250 . S
C554 O546 1.258 . S
O555 Mn540 2.162 . S
O555 C543 1.281 . S
O556 Mn540 2.297 . S
O556 C543 1.236 . S
N557 Mn541 2.282 . S
N557 C558 1.328 . S
N557 C562 1.318 . S
C558 N557 1.328 . S
C558 C559 1.457 . S
C558 H563 0.929 . S
C559 C558 1.457 . S
C559 C560 1.291 . S
C559 H572 0.931 . S
C560 C559 1.291 . S
C560 C561 1.373 . S
C560 H573 0.929 . S
C561 C560 1.373 . S
C561 C562 1.396 . S
C561 C568 1.403 . S
C562 C552 1.476 . S
C562 N557 1.318 . S
C562 C561 1.396 . S
H563 C558 0.929 . S
O564 Mn540 2.385 . S
O564 C542 1.234 . S
O565 Mn540 2.209 . S
O565 Mn541 2.215 . S
O565 C542 1.283 . S
O566 Mn540 2.094 . S
O566 C544 1.240 . S
O567 Mn541 2.117 . S
O567 C544 1.264 . S
C568 C561 1.403 . S
C568 C569 1.399 . S
C568 H574 0.929 . S
C569 C549 1.449 . S
C569 C568 1.399 . S
C569 H575 0.930 . S
H570 C550 0.931 . S
H571 C551 0.930 . S
H572 C559 0.931 . S
H573 C560 0.929 . S
H574 C568 0.929 . S
H575 C569 0.930 . S
Mn576 O581 2.095 1_545 S
Mn576 O591 2.162 . S
Mn576 O592 2.297 . S
Mn576 O600 2.385 . S
Mn576 O601 2.209 . S
Mn576 O602 2.094 1_545 S
Mn577 O582 2.121 . S
Mn577 N584 2.257 1_565 S
Mn577 N593 2.282 1_565 S
Mn577 O601 2.215 1_565 S
Mn577 O603 2.117 . S
C578 O600 1.234 . S
C578 O601 1.283 . S
C579 O591 1.281 . S
C579 O592 1.236 . S
C580 O602 1.240 . S
C580 O603 1.264 . S
O581 Mn576 2.095 1_565 S
O581 C590 1.250 . S
O582 Mn577 2.121 . S
O582 C590 1.258 . S
C583 N584 1.326 1_565 S
C583 C587 1.460 1_665 S
C583 H589 0.929 . S
N584 Mn577 2.257 1_545 S
N584 C583 1.326 1_545 S
N584 C588 1.362 . S
C585 C586 1.258 . S
C585 C588 1.431 1_455 S
C585 C605 1.449 . S
C586 C585 1.258 . S
C586 C587 1.477 . S
C586 H606 0.931 . S
C587 C583 1.460 1_445 S
C587 C586 1.477 . S
C587 H607 0.918 1_545 S
C588 N584 1.362 . S
C588 C585 1.431 1_655 S
C588 C598 1.476 . S
H589 C583 0.929 . S
C590 O581 1.250 . S
C590 O582 1.258 . S
O591 Mn576 2.162 . S
O591 C579 1.281 . S
O592 Mn576 2.297 . S
O592 C579 1.236 . S
N593 Mn577 2.282 1_545 S
N593 C594 1.328 . S
N593 C598 1.318 . S
C594 N593 1.328 . S
C594 C595 1.457 . S
C594 H599 0.929 . S
C595 C594 1.457 . S
C595 C596 1.291 . S
C595 H608 0.931 . S
C596 C595 1.291 . S
C596 C597 1.373 . S
C596 H609 0.929 . S
C597 C596 1.373 . S
C597 C598 1.396 . S
C597 C604 1.403 . S
C598 C588 1.476 . S
C598 N593 1.318 . S
C598 C597 1.396 . S
H599 C594 0.929 . S
O600 Mn576 2.385 . S
O600 C578 1.234 . S
O601 Mn576 2.209 . S
O601 Mn577 2.215 1_545 S
O601 C578 1.283 . S
O602 Mn576 2.094 1_565 S
O602 C580 1.240 . S
O603 Mn577 2.117 . S
O603 C580 1.264 . S
C604 C597 1.403 . S
C604 C605 1.399 1_655 S
C604 H610 0.929 . S
C605 C585 1.449 . S
C605 C604 1.399 1_455 S
C605 H611 0.930 . S
H606 C586 0.931 . S
H607 C587 0.918 1_565 S
H608 C595 0.931 . S
H609 C596 0.929 . S
H610 C604 0.929 . S
H611 C605 0.930 . S
Mn612 O617 2.095 . S
Mn612 O627 2.162 . S
Mn612 O628 2.297 . S
Mn612 O636 2.385 . S
Mn612 O637 2.209 . S
Mn612 O638 2.094 . S
Mn613 O618 2.121 . S
Mn613 N620 2.257 . S
Mn613 N629 2.282 . S
Mn613 O637 2.215 . S
Mn613 O639 2.117 . S
C614 O636 1.234 . S
C614 O637 1.283 . S
C615 O627 1.281 . S
C615 O628 1.236 . S
C616 O638 1.240 . S
C616 O639 1.264 . S
O617 Mn612 2.095 . S
O617 C626 1.250 . S
O618 Mn613 2.121 . S
O618 C626 1.258 . S
C619 N620 1.326 . S
C619 C623 1.460 . S
C619 H625 0.929 . S
N620 Mn613 2.257 . S
N620 C619 1.326 . S
N620 C624 1.362 . S
C621 C622 1.258 . S
C621 C624 1.431 . S
C621 C641 1.449 . S
C622 C621 1.258 . S
C622 C623 1.477 . S
C622 H642 0.931 . S
C623 C619 1.460 . S
C623 C622 1.477 . S
C623 H643 0.930 . S
C624 N620 1.362 . S
C624 C621 1.431 . S
C624 C634 1.476 . S
H625 C619 0.929 . S
C626 O617 1.250 . S
C626 O618 1.258 . S
O627 Mn612 2.162 . S
O627 C615 1.281 . S
O628 Mn612 2.297 . S
O628 C615 1.236 . S
N629 Mn613 2.282 . S
N629 C630 1.328 . S
N629 C634 1.318 . S
C630 N629 1.328 . S
C630 C631 1.457 . S
C630 H635 0.929 . S
C631 C630 1.457 . S
C631 C632 1.291 . S
C631 H644 0.931 . S
C632 C631 1.291 . S
C632 C633 1.373 . S
C632 H645 0.929 . S
C633 C632 1.373 . S
C633 C634 1.396 . S
C633 C640 1.403 . S
C634 C624 1.476 . S
C634 N629 1.318 . S
C634 C633 1.396 . S
H635 C630 0.929 . S
O636 Mn612 2.385 . S
O636 C614 1.234 . S
O637 Mn612 2.209 . S
O637 Mn613 2.215 . S
O637 C614 1.283 . S
O638 Mn612 2.094 . S
O638 C616 1.240 . S
O639 Mn613 2.117 . S
O639 C616 1.264 . S
C640 C633 1.403 . S
C640 C641 1.399 . S
C640 H646 0.929 . S
C641 C621 1.449 . S
C641 C640 1.399 . S
C641 H647 0.930 . S
H642 C622 0.931 . S
H643 C623 0.930 . S
H644 C631 0.931 . S
H645 C632 0.929 . S
H646 C640 0.929 . S
H647 C641 0.930 . S
Mn648 O653 2.095 . S
Mn648 O663 2.162 . S
Mn648 O664 2.297 . S
Mn648 O672 2.385 . S
Mn648 O673 2.209 . S
Mn648 O674 2.094 . S
Mn649 O654 2.121 . S
Mn649 N656 2.257 . S
Mn649 N665 2.282 . S
Mn649 O673 2.215 . S
Mn649 O675 2.117 . S
C650 O672 1.234 . S
C650 O673 1.283 . S
C651 O663 1.281 . S
C651 O664 1.236 . S
C652 O674 1.240 . S
C652 O675 1.264 . S
O653 Mn648 2.095 . S
O653 C662 1.250 . S
O654 Mn649 2.121 . S
O654 C662 1.258 . S
C655 N656 1.326 . S
C655 C659 1.460 . S
C655 H661 0.929 . S
N656 Mn649 2.257 . S
N656 C655 1.326 . S
N656 C660 1.362 . S
C657 C658 1.258 . S
C657 C660 1.431 . S
C657 C677 1.449 . S
C658 C657 1.258 . S
C658 C659 1.477 . S
C658 H678 0.931 . S
C659 C655 1.460 . S
C659 C658 1.477 . S
C659 H679 0.930 . S
C660 N656 1.362 . S
C660 C657 1.431 . S
C660 C670 1.476 . S
H661 C655 0.929 . S
C662 O653 1.250 . S
C662 O654 1.258 . S
O663 Mn648 2.162 . S
O663 C651 1.281 . S
O664 Mn648 2.297 . S
O664 C651 1.236 . S
N665 Mn649 2.282 . S
N665 C666 1.328 . S
N665 C670 1.318 . S
C666 N665 1.328 . S
C666 C667 1.457 . S
C666 H671 0.929 . S
C667 C666 1.457 . S
C667 C668 1.291 . S
C667 H680 0.931 . S
C668 C667 1.291 . S
C668 C669 1.373 . S
C668 H681 0.929 . S
C669 C668 1.373 . S
C669 C670 1.396 . S
C669 C676 1.403 . S
C670 C660 1.476 . S
C670 N665 1.318 . S
C670 C669 1.396 . S
H671 C666 0.929 . S
O672 Mn648 2.385 . S
O672 C650 1.234 . S
O673 Mn648 2.209 . S
O673 Mn649 2.215 . S
O673 C650 1.283 . S
O674 Mn648 2.094 . S
O674 C652 1.240 . S
O675 Mn649 2.117 . S
O675 C652 1.264 . S
C676 C669 1.403 . S
C676 C677 1.399 . S
C676 H682 0.929 . S
C677 C657 1.449 . S
C677 C676 1.399 . S
C677 H683 0.930 . S
H678 C658 0.931 . S
H679 C659 0.930 . S
H680 C667 0.931 . S
H681 C668 0.929 . S
H682 C676 0.929 . S
H683 C677 0.930 . S
Mn684 O689 2.095 . S
Mn684 O699 2.162 1_545 S
Mn684 O700 2.297 1_545 S
Mn684 O708 2.385 1_545 S
Mn684 O709 2.209 1_545 S
Mn684 O710 2.094 . S
Mn685 O690 2.121 . S
Mn685 N692 2.257 . S
Mn685 N701 2.282 1_545 S
Mn685 O709 2.215 1_545 S
Mn685 O711 2.117 . S
C686 O708 1.234 . S
C686 O709 1.283 . S
C687 O699 1.281 . S
C687 O700 1.236 . S
C688 O710 1.240 . S
C688 O711 1.264 . S
O689 Mn684 2.095 . S
O689 C698 1.250 . S
O690 Mn685 2.121 . S
O690 C698 1.258 . S
C691 N692 1.326 . S
C691 C695 1.460 . S
C691 H697 0.929 . S
N692 Mn685 2.257 . S
N692 C691 1.326 . S
N692 C696 1.362 1_545 S
C693 C694 1.258 . S
C693 C696 1.431 . S
C693 C713 1.449 . S
C694 C693 1.258 . S
C694 C695 1.477 1_565 S
C694 H714 0.931 . S
C695 C691 1.460 . S
C695 C694 1.477 1_545 S
C695 H715 0.930 . S
C696 N692 1.362 1_565 S
C696 C693 1.431 . S
C696 C706 1.476 . S
H697 C691 0.929 . S
C698 O689 1.250 . S
C698 O690 1.258 . S
O699 Mn684 2.162 1_565 S
O699 C687 1.281 . S
O700 Mn684 2.297 1_565 S
O700 C687 1.236 . S
N701 Mn685 2.282 1_565 S
N701 C702 1.328 . S
N701 C706 1.318 . S
C702 N701 1.328 . S
C702 C703 1.457 . S
C702 H707 0.929 . S
C703 C702 1.457 . S
C703 C704 1.291 . S
C703 H716 0.931 . S
C704 C703 1.291 . S
C704 C705 1.373 . S
C704 H717 0.929 . S
C705 C704 1.373 . S
C705 C706 1.396 . S
C705 C712 1.403 . S
C706 C696 1.476 . S
C706 N701 1.318 . S
C706 C705 1.396 . S
H707 C702 0.929 . S
O708 Mn684 2.385 1_565 S
O708 C686 1.234 . S
O709 Mn684 2.209 1_565 S
O709 Mn685 2.215 1_565 S
O709 C686 1.283 . S
O710 Mn684 2.094 . S
O710 C688 1.240 . S
O711 Mn685 2.117 . S
O711 C688 1.264 . S
C712 C705 1.403 . S
C712 C713 1.399 . S
C712 H718 0.929 . S
C713 C693 1.449 . S
C713 C712 1.399 . S
C713 H719 0.930 . S
H714 C694 0.931 . S
H715 C695 0.930 . S
H716 C703 0.931 . S
H717 C704 0.929 . S
H718 C712 0.929 . S
H719 C713 0.930 . S
Mn720 O725 2.095 1_554 S
Mn720 O735 2.162 . S
Mn720 O736 2.297 . S
Mn720 O744 2.385 . S
Mn720 O745 2.209 . S
Mn720 O746 2.094 1_554 S
Mn721 O726 2.121 . S
Mn721 N728 2.257 . S
Mn721 N737 2.282 . S
Mn721 O745 2.215 1_556 S
Mn721 O747 2.117 . S
C722 O744 1.234 . S
C722 O745 1.283 . S
C723 O735 1.281 . S
C723 O736 1.236 . S
C724 O746 1.240 . S
C724 O747 1.264 . S
O725 Mn720 2.095 1_556 S
O725 C734 1.250 . S
O726 Mn721 2.121 . S
O726 C734 1.258 . S
C727 N728 1.326 . S
C727 C731 1.460 . S
C727 H733 0.929 . S
N728 Mn721 2.257 . S
N728 C727 1.326 . S
N728 C732 1.362 . S
C729 C730 1.258 . S
C729 C732 1.431 . S
C729 C749 1.449 . S
C730 C729 1.258 . S
C730 C731 1.477 . S
C730 H750 0.931 . S
C731 C727 1.460 . S
C731 C730 1.477 . S
C731 H751 0.930 . S
C732 N728 1.362 . S
C732 C729 1.431 . S
C732 C742 1.476 . S
H733 C727 0.929 . S
C734 O725 1.250 . S
C734 O726 1.258 . S
O735 Mn720 2.162 . S
O735 C723 1.281 . S
O736 Mn720 2.297 . S
O736 C723 1.236 . S
N737 Mn721 2.282 . S
N737 C738 1.328 . S
N737 C742 1.318 . S
C738 N737 1.328 . S
C738 C739 1.457 . S
C738 H743 0.929 . S
C739 C738 1.457 . S
C739 C740 1.291 . S
C739 H752 0.931 . S
C740 C739 1.291 . S
C740 C741 1.373 . S
C740 H753 0.929 . S
C741 C740 1.373 . S
C741 C742 1.396 . S
C741 C748 1.403 . S
C742 C732 1.476 . S
C742 N737 1.318 . S
C742 C741 1.396 . S
H743 C738 0.929 . S
O744 Mn720 2.385 . S
O744 C722 1.234 . S
O745 Mn720 2.209 . S
O745 Mn721 2.215 1_554 S
O745 C722 1.283 . S
O746 Mn720 2.094 1_556 S
O746 C724 1.240 . S
O747 Mn721 2.117 . S
O747 C724 1.264 . S
C748 C741 1.403 . S
C748 C749 1.399 . S
C748 H754 0.929 . S
C749 C729 1.449 . S
C749 C748 1.399 . S
C749 H755 0.930 . S
H750 C730 0.931 . S
H751 C731 0.930 . S
H752 C739 0.931 . S
H753 C740 0.929 . S
H754 C748 0.929 . S
H755 C749 0.930 . S
Mn756 O761 2.095 . S
Mn756 O771 2.162 . S
Mn756 O772 2.297 . S
Mn756 O780 2.385 . S
Mn756 O781 2.209 . S
Mn756 O782 2.094 . S
Mn757 O762 2.121 . S
Mn757 N764 2.257 . S
Mn757 N773 2.282 . S
Mn757 O781 2.215 . S
Mn757 O783 2.117 . S
C758 O780 1.234 . S
C758 O781 1.283 . S
C759 O771 1.281 . S
C759 O772 1.236 . S
C760 O782 1.240 . S
C760 O783 1.264 . S
O761 Mn756 2.095 . S
O761 C770 1.250 . S
O762 Mn757 2.121 . S
O762 C770 1.258 . S
C763 N764 1.326 . S
C763 C767 1.460 . S
C763 H769 0.929 . S
N764 Mn757 2.257 . S
N764 C763 1.326 . S
N764 C768 1.362 . S
C765 C766 1.258 . S
C765 C768 1.431 . S
C765 C785 1.449 . S
C766 C765 1.258 . S
C766 C767 1.477 . S
C766 H786 0.931 . S
C767 C763 1.460 . S
C767 C766 1.477 . S
C767 H787 0.930 . S
C768 N764 1.362 . S
C768 C765 1.431 . S
C768 C778 1.476 . S
H769 C763 0.929 . S
C770 O761 1.250 . S
C770 O762 1.258 . S
O771 Mn756 2.162 . S
O771 C759 1.281 . S
O772 Mn756 2.297 . S
O772 C759 1.236 . S
N773 Mn757 2.282 . S
N773 C774 1.328 . S
N773 C778 1.318 . S
C774 N773 1.328 . S
C774 C775 1.457 . S
C774 H779 0.929 . S
C775 C774 1.457 . S
C775 C776 1.291 . S
C775 H788 0.931 . S
C776 C775 1.291 . S
C776 C777 1.373 . S
C776 H789 0.929 . S
C777 C776 1.373 . S
C777 C778 1.396 . S
C777 C784 1.403 . S
C778 C768 1.476 . S
C778 N773 1.318 . S
C778 C777 1.396 . S
H779 C774 0.929 . S
O780 Mn756 2.385 . S
O780 C758 1.234 . S
O781 Mn756 2.209 . S
O781 Mn757 2.215 . S
O781 C758 1.283 . S
O782 Mn756 2.094 . S
O782 C760 1.240 . S
O783 Mn757 2.117 . S
O783 C760 1.264 . S
C784 C777 1.403 . S
C784 C785 1.399 . S
C784 H790 0.929 . S
C785 C765 1.449 . S
C785 C784 1.399 . S
C785 H791 0.930 . S
H786 C766 0.931 . S
H787 C767 0.930 . S
H788 C775 0.931 . S
H789 C776 0.929 . S
H790 C784 0.929 . S
H791 C785 0.930 . S
Mn792 O797 2.095 . S
Mn792 O807 2.162 . S
Mn792 O808 2.297 . S
Mn792 O816 2.385 . S
Mn792 O817 2.209 . S
Mn792 O818 2.094 . S
Mn793 O798 2.121 . S
Mn793 N800 2.257 . S
Mn793 N809 2.282 . S
Mn793 O817 2.215 . S
Mn793 O819 2.117 . S
C794 O816 1.234 . S
C794 O817 1.283 . S
C795 O807 1.281 . S
C795 O808 1.236 . S
C796 O818 1.240 . S
C796 O819 1.264 . S
O797 Mn792 2.095 . S
O797 C806 1.250 . S
O798 Mn793 2.121 . S
O798 C806 1.258 . S
C799 N800 1.326 . S
C799 C803 1.460 . S
C799 H805 0.929 . S
N800 Mn793 2.257 . S
N800 C799 1.326 . S
N800 C804 1.362 . S
C801 C802 1.258 . S
C801 C804 1.431 . S
C801 C821 1.449 . S
C802 C801 1.258 . S
C802 C803 1.477 . S
C802 H822 0.931 . S
C803 C799 1.460 . S
C803 C802 1.477 . S
C803 H823 0.930 . S
C804 N800 1.362 . S
C804 C801 1.431 . S
C804 C814 1.476 . S
H805 C799 0.929 . S
C806 O797 1.250 . S
C806 O798 1.258 . S
O807 Mn792 2.162 . S
O807 C795 1.281 . S
O808 Mn792 2.297 . S
O808 C795 1.236 . S
N809 Mn793 2.282 . S
N809 C810 1.328 . S
N809 C814 1.318 . S
C810 N809 1.328 . S
C810 C811 1.457 . S
C810 H815 0.929 . S
C811 C810 1.457 . S
C811 C812 1.291 . S
C811 H824 0.931 . S
C812 C811 1.291 . S
C812 C813 1.373 . S
C812 H825 0.929 . S
C813 C812 1.373 . S
C813 C814 1.396 . S
C813 C820 1.403 . S
C814 C804 1.476 . S
C814 N809 1.318 . S
C814 C813 1.396 . S
H815 C810 0.929 . S
O816 Mn792 2.385 . S
O816 C794 1.234 . S
O817 Mn792 2.209 . S
O817 Mn793 2.215 . S
O817 C794 1.283 . S
O818 Mn792 2.094 . S
O818 C796 1.240 . S
O819 Mn793 2.117 . S
O819 C796 1.264 . S
C820 C813 1.403 . S
C820 C821 1.399 . S
C820 H826 0.929 . S
C821 C801 1.449 . S
C821 C820 1.399 . S
C821 H827 0.930 . S
H822 C802 0.931 . S
H823 C803 0.930 . S
H824 C811 0.931 . S
H825 C812 0.929 . S
H826 C820 0.929 . S
H827 C821 0.930 . S
Mn828 O833 2.095 . S
Mn828 O843 2.162 . S
Mn828 O844 2.297 . S
Mn828 O852 2.385 . S
Mn828 O853 2.209 . S
Mn828 O854 2.094 . S
Mn829 O834 2.121 . S
Mn829 N836 2.257 . S
Mn829 N845 2.282 . S
Mn829 O853 2.215 . S
Mn829 O855 2.117 . S
C830 O852 1.234 . S
C830 O853 1.283 . S
C831 O843 1.281 . S
C831 O844 1.236 . S
C832 O854 1.240 . S
C832 O855 1.264 . S
O833 Mn828 2.095 . S
O833 C842 1.250 . S
O834 Mn829 2.121 . S
O834 C842 1.258 . S
C835 N836 1.326 . S
C835 C839 1.460 . S
C835 H841 0.929 . S
N836 Mn829 2.257 . S
N836 C835 1.326 . S
N836 C840 1.362 . S
C837 C838 1.258 . S
C837 C840 1.431 . S
C837 C857 1.449 . S
C838 C837 1.258 . S
C838 C839 1.477 . S
C838 H858 0.931 . S
C839 C835 1.460 . S
C839 C838 1.477 . S
C839 H859 0.930 . S
C840 N836 1.362 . S
C840 C837 1.431 . S
C840 C850 1.476 . S
H841 C835 0.929 . S
C842 O833 1.250 . S
C842 O834 1.258 . S
O843 Mn828 2.162 . S
O843 C831 1.281 . S
O844 Mn828 2.297 . S
O844 C831 1.236 . S
N845 Mn829 2.282 . S
N845 C846 1.328 . S
N845 C850 1.318 . S
C846 N845 1.328 . S
C846 C847 1.457 . S
C846 H851 0.929 . S
C847 C846 1.457 . S
C847 C848 1.291 . S
C847 H860 0.931 . S
C848 C847 1.291 . S
C848 C849 1.373 . S
C848 H861 0.929 . S
C849 C848 1.373 . S
C849 C850 1.396 . S
C849 C856 1.403 . S
C850 C840 1.476 . S
C850 N845 1.318 . S
C850 C849 1.396 . S
H851 C846 0.929 . S
O852 Mn828 2.385 . S
O852 C830 1.234 . S
O853 Mn828 2.209 . S
O853 Mn829 2.215 . S
O853 C830 1.283 . S
O854 Mn828 2.094 . S
O854 C832 1.240 . S
O855 Mn829 2.117 . S
O855 C832 1.264 . S
C856 C849 1.403 . S
C856 C857 1.399 . S
C856 H862 0.929 . S
C857 C837 1.449 . S
C857 C856 1.399 . S
C857 H863 0.930 . S
H858 C838 0.931 . S
H859 C839 0.930 . S
H860 C847 0.931 . S
H861 C848 0.929 . S
H862 C856 0.929 . S
H863 C857 0.930 . S
H864 C876 0.930 . S
H865 C878 0.930 . S
H866 C879 0.930 . S
H867 C883 0.959 . S
H868 C883 0.959 . S
H869 C883 0.961 . S
H870 C884 0.960 . S
H871 C884 0.961 . S
H872 C884 0.959 . S
H873 C887 0.929 . S
H874 C888 0.931 . S
H875 C890 0.930 . S
C876 H864 0.930 . S
C876 C877 1.399 . S
C876 C881 1.399 . S
C877 C876 1.399 . S
C877 C878 1.376 . S
C878 H865 0.930 . S
C878 C877 1.376 . S
C878 C879 1.388 . S
C879 H866 0.930 . S
C879 C878 1.388 . S
C879 C880 1.390 . S
C880 C879 1.390 . S
C880 C881 1.394 . S
C880 C886 1.465 . S
C881 C876 1.399 . S
C881 C880 1.394 . S
C881 C882 1.516 . S
C882 C881 1.516 . S
C882 C883 1.502 . S
C882 C884 1.561 . S
C882 C885 1.526 . S
C883 H867 0.959 . S
C883 H868 0.959 . S
C883 H869 0.961 . S
C883 C882 1.502 . S
C884 H870 0.960 . S
C884 H871 0.961 . S
C884 H872 0.959 . S
C884 C882 1.561 . S
C885 C882 1.526 . S
C885 C886 1.396 . S
C885 C890 1.390 . S
C886 C880 1.465 . S
C886 C885 1.396 . S
C886 C887 1.399 . S
C887 H873 0.929 . S
C887 C886 1.399 . S
C887 C888 1.385 . S
C888 H874 0.931 . S
C888 C887 1.385 . S
C888 C889 1.389 . S
C889 C888 1.389 . S
C889 C890 1.387 . S
C890 H875 0.930 . S
C890 C885 1.390 . S
C890 C889 1.387 . S
H891 C903 0.930 . S
H892 C905 0.930 . S
H893 C906 0.930 . S
H894 C910 0.959 . S
H895 C910 0.959 . S
H896 C910 0.961 . S
H897 C911 0.960 . S
H898 C911 0.961 . S
H899 C911 0.959 . S
H900 C914 0.929 . S
H901 C915 0.931 . S
H902 C917 0.930 . S
C903 H891 0.930 . S
C903 C904 1.399 . S
C903 C908 1.399 . S
C904 C903 1.399 . S
C904 C905 1.376 . S
C905 H892 0.930 . S
C905 C904 1.376 . S
C905 C906 1.388 . S
C906 H893 0.930 . S
C906 C905 1.388 . S
C906 C907 1.390 . S
C907 C906 1.390 . S
C907 C908 1.394 . S
C907 C913 1.465 . S
C908 C903 1.399 . S
C908 C907 1.394 . S
C908 C909 1.516 . S
C909 C908 1.516 . S
C909 C910 1.502 . S
C909 C911 1.561 . S
C909 C912 1.526 . S
C910 H894 0.959 . S
C910 H895 0.959 . S
C910 H896 0.961 . S
C910 C909 1.502 . S
C911 H897 0.960 . S
C911 H898 0.961 . S
C911 H899 0.959 . S
C911 C909 1.561 . S
C912 C909 1.526 . S
C912 C913 1.396 . S
C912 C917 1.390 . S
C913 C907 1.465 . S
C913 C912 1.396 . S
C913 C914 1.399 . S
C914 H900 0.929 . S
C914 C913 1.399 . S
C914 C915 1.385 . S
C915 H901 0.931 . S
C915 C914 1.385 . S
C915 C916 1.389 . S
C916 C915 1.389 . S
C916 C917 1.387 . S
C917 H902 0.930 . S
C917 C912 1.390 . S
C917 C916 1.387 . S
H918 C930 0.930 . S
H919 C932 0.930 . S
H920 C933 0.930 . S
H921 C937 0.959 . S
H922 C937 0.959 . S
H923 C937 0.961 . S
H924 C938 0.960 . S
H925 C938 0.961 . S
H926 C938 0.959 . S
H927 C941 0.929 . S
H928 C942 0.931 . S
H929 C944 0.930 . S
C930 H918 0.930 . S
C930 C931 1.399 . S
C930 C935 1.399 . S
C931 C930 1.399 . S
C931 C932 1.376 . S
C932 H919 0.930 . S
C932 C931 1.376 . S
C932 C933 1.388 . S
C933 H920 0.930 . S
C933 C932 1.388 . S
C933 C934 1.390 . S
C934 C933 1.390 . S
C934 C935 1.394 . S
C934 C940 1.465 . S
C935 C930 1.399 . S
C935 C934 1.394 . S
C935 C936 1.516 . S
C936 C935 1.516 . S
C936 C937 1.502 . S
C936 C938 1.561 . S
C936 C939 1.526 . S
C937 H921 0.959 . S
C937 H922 0.959 . S
C937 H923 0.961 . S
C937 C936 1.502 . S
C938 H924 0.960 . S
C938 H925 0.961 . S
C938 H926 0.959 . S
C938 C936 1.561 . S
C939 C936 1.526 . S
C939 C940 1.396 . S
C939 C944 1.390 . S
C940 C934 1.465 . S
C940 C939 1.396 . S
C940 C941 1.399 . S
C941 H927 0.929 . S
C941 C940 1.399 . S
C941 C942 1.385 . S
C942 H928 0.931 . S
C942 C941 1.385 . S
C942 C943 1.389 . S
C943 C942 1.389 . S
C943 C944 1.387 . S
C944 H929 0.930 . S
C944 C939 1.390 . S
C944 C943 1.387 . S
H945 C957 0.930 . S
H946 C959 0.930 . S
H947 C960 0.930 . S
H948 C964 0.959 . S
H949 C964 0.959 . S
H950 C964 0.961 . S
H951 C965 0.960 . S
H952 C965 0.961 . S
H953 C965 0.959 . S
H954 C968 0.929 . S
H955 C969 0.931 . S
H956 C971 0.930 . S
C957 H945 0.930 . S
C957 C958 1.399 . S
C957 C962 1.399 . S
C958 C957 1.399 . S
C958 C959 1.376 . S
C959 H946 0.930 . S
C959 C958 1.376 . S
C959 C960 1.388 . S
C960 H947 0.930 . S
C960 C959 1.388 . S
C960 C961 1.390 . S
C961 C960 1.390 . S
C961 C962 1.394 . S
C961 C967 1.465 . S
C962 C957 1.399 . S
C962 C961 1.394 . S
C962 C963 1.516 . S
C963 C962 1.516 . S
C963 C964 1.502 . S
C963 C965 1.561 . S
C963 C966 1.526 . S
C964 H948 0.959 . S
C964 H949 0.959 . S
C964 H950 0.961 . S
C964 C963 1.502 . S
C965 H951 0.960 . S
C965 H952 0.961 . S
C965 H953 0.959 . S
C965 C963 1.561 . S
C966 C963 1.526 . S
C966 C967 1.396 . S
C966 C971 1.390 . S
C967 C961 1.465 . S
C967 C966 1.396 . S
C967 C968 1.399 . S
C968 H954 0.929 . S
C968 C967 1.399 . S
C968 C969 1.385 . S
C969 H955 0.931 . S
C969 C968 1.385 . S
C969 C970 1.389 . S
C970 C969 1.389 . S
C970 C971 1.387 . S
C971 H956 0.930 . S
C971 C966 1.390 . S
C971 C970 1.387 . S
H972 C984 0.930 . S
H973 C986 0.930 . S
H974 C987 0.930 . S
H975 C991 0.959 . S
H976 C991 0.959 . S
H977 C991 0.961 . S
H978 C992 0.960 . S
H979 C992 0.961 . S
H980 C992 0.959 . S
H981 C995 0.929 . S
H982 C996 0.931 . S
H983 C998 0.930 . S
C984 H972 0.930 . S
C984 C985 1.399 . S
C984 C989 1.399 . S
C985 C984 1.399 . S
C985 C986 1.376 . S
C986 H973 0.930 . S
C986 C985 1.376 . S
C986 C987 1.388 . S
C987 H974 0.930 . S
C987 C986 1.388 . S
C987 C988 1.390 . S
C988 C987 1.390 . S
C988 C989 1.394 . S
C988 C994 1.465 . S
C989 C984 1.399 . S
C989 C988 1.394 . S
C989 C990 1.516 . S
C990 C989 1.516 . S
C990 C991 1.502 . S
C990 C992 1.561 . S
C990 C993 1.526 . S
C991 H975 0.959 . S
C991 H976 0.959 . S
C991 H977 0.961 . S
C991 C990 1.502 . S
C992 H978 0.960 . S
C992 H979 0.961 . S
C992 H980 0.959 . S
C992 C990 1.561 . S
C993 C990 1.526 . S
C993 C994 1.396 . S
C993 C998 1.390 . S
C994 C988 1.465 . S
C994 C993 1.396 . S
C994 C995 1.399 . S
C995 H981 0.929 . S
C995 C994 1.399 . S
C995 C996 1.385 . S
C996 H982 0.931 . S
C996 C995 1.385 . S
C996 C997 1.389 . S
C997 C996 1.389 . S
C997 C998 1.387 . S
C998 H983 0.930 . S
C998 C993 1.390 . S
C998 C997 1.387 . S
H999 C1011 0.930 . S
H1000 C1013 0.930 . S
H1001 C1014 0.930 . S
H1002 C1018 0.959 . S
H1003 C1018 0.959 . S
H1004 C1018 0.961 . S
H1005 C1019 0.960 . S
H1006 C1019 0.961 . S
H1007 C1019 0.959 . S
H1008 C1022 0.929 . S
H1009 C1023 0.931 . S
H1010 C1025 0.930 . S
C1011 H999 0.930 . S
C1011 C1012 1.399 . S
C1011 C1016 1.399 . S
C1012 C1011 1.399 . S
C1012 C1013 1.376 . S
C1013 H1000 0.930 . S
C1013 C1012 1.376 . S
C1013 C1014 1.388 . S
C1014 H1001 0.930 . S
C1014 C1013 1.388 . S
C1014 C1015 1.390 . S
C1015 C1014 1.390 . S
C1015 C1016 1.394 . S
C1015 C1021 1.465 . S
C1016 C1011 1.399 . S
C1016 C1015 1.394 . S
C1016 C1017 1.516 . S
C1017 C1016 1.516 . S
C1017 C1018 1.502 . S
C1017 C1019 1.561 . S
C1017 C1020 1.526 . S
C1018 H1002 0.959 . S
C1018 H1003 0.959 . S
C1018 H1004 0.961 . S
C1018 C1017 1.502 . S
C1019 H1005 0.960 . S
C1019 H1006 0.961 . S
C1019 H1007 0.959 . S
C1019 C1017 1.561 . S
C1020 C1017 1.526 . S
C1020 C1021 1.396 . S
C1020 C1025 1.390 . S
C1021 C1015 1.465 . S
C1021 C1020 1.396 . S
C1021 C1022 1.399 . S
C1022 H1008 0.929 . S
C1022 C1021 1.399 . S
C1022 C1023 1.385 . S
C1023 H1009 0.931 . S
C1023 C1022 1.385 . S
C1023 C1024 1.389 . S
C1024 C1023 1.389 . S
C1024 C1025 1.387 . S
C1025 H1010 0.930 . S
C1025 C1020 1.390 . S
C1025 C1024 1.387 . S
H1026 C1038 0.930 . S
H1027 C1040 0.930 . S
H1028 C1041 0.930 . S
H1029 C1045 0.959 . S
H1030 C1045 0.959 . S
H1031 C1045 0.961 . S
H1032 C1046 0.960 . S
H1033 C1046 0.961 . S
H1034 C1046 0.959 . S
H1035 C1049 0.929 . S
H1036 C1050 0.931 . S
H1037 C1052 0.930 . S
C1038 H1026 0.930 . S
C1038 C1039 1.399 . S
C1038 C1043 1.399 . S
C1039 C1038 1.399 . S
C1039 C1040 1.376 . S
C1040 H1027 0.930 . S
C1040 C1039 1.376 . S
C1040 C1041 1.388 . S
C1041 H1028 0.930 . S
C1041 C1040 1.388 . S
C1041 C1042 1.390 . S
C1042 C1041 1.390 . S
C1042 C1043 1.394 . S
C1042 C1048 1.465 . S
C1043 C1038 1.399 . S
C1043 C1042 1.394 . S
C1043 C1044 1.516 . S
C1044 C1043 1.516 . S
C1044 C1045 1.502 . S
C1044 C1046 1.561 . S
C1044 C1047 1.526 . S
C1045 H1029 0.959 . S
C1045 H1030 0.959 . S
C1045 H1031 0.961 . S
C1045 C1044 1.502 . S
C1046 H1032 0.960 . S
C1046 H1033 0.961 . S
C1046 H1034 0.959 . S
C1046 C1044 1.561 . S
C1047 C1044 1.526 . S
C1047 C1048 1.396 . S
C1047 C1052 1.390 . S
C1048 C1042 1.465 . S
C1048 C1047 1.396 . S
C1048 C1049 1.399 . S
C1049 H1035 0.929 . S
C1049 C1048 1.399 . S
C1049 C1050 1.385 . S
C1050 H1036 0.931 . S
C1050 C1049 1.385 . S
C1050 C1051 1.389 . S
C1051 C1050 1.389 . S
C1051 C1052 1.387 . S
C1052 H1037 0.930 . S
C1052 C1047 1.390 . S
C1052 C1051 1.387 . S
H1053 C1065 0.930 . S
H1054 C1067 0.930 . S
H1055 C1068 0.930 . S
H1056 C1072 0.959 . S
H1057 C1072 0.959 . S
H1058 C1072 0.961 . S
H1059 C1073 0.960 . S
H1060 C1073 0.961 . S
H1061 C1073 0.959 . S
H1062 C1076 0.929 . S
H1063 C1077 0.931 . S
H1064 C1079 0.930 . S
C1065 H1053 0.930 . S
C1065 C1066 1.399 . S
C1065 C1070 1.399 . S
C1066 C1065 1.399 . S
C1066 C1067 1.376 . S
C1067 H1054 0.930 . S
C1067 C1066 1.376 . S
C1067 C1068 1.388 . S
C1068 H1055 0.930 . S
C1068 C1067 1.388 . S
C1068 C1069 1.390 . S
C1069 C1068 1.390 . S
C1069 C1070 1.394 . S
C1069 C1075 1.465 . S
C1070 C1065 1.399 . S
C1070 C1069 1.394 . S
C1070 C1071 1.516 . S
C1071 C1070 1.516 . S
C1071 C1072 1.502 . S
C1071 C1073 1.561 . S
C1071 C1074 1.526 . S
C1072 H1056 0.959 . S
C1072 H1057 0.959 . S
C1072 H1058 0.961 . S
C1072 C1071 1.502 . S
C1073 H1059 0.960 . S
C1073 H1060 0.961 . S
C1073 H1061 0.959 . S
C1073 C1071 1.561 . S
C1074 C1071 1.526 . S
C1074 C1075 1.396 . S
C1074 C1079 1.390 . S
C1075 C1069 1.465 . S
C1075 C1074 1.396 . S
C1075 C1076 1.399 . S
C1076 H1062 0.929 . S
C1076 C1075 1.399 . S
C1076 C1077 1.385 . S
C1077 H1063 0.931 . S
C1077 C1076 1.385 . S
C1077 C1078 1.389 . S
C1078 C1077 1.389 . S
C1078 C1079 1.387 . S
C1079 H1064 0.930 . S
C1079 C1074 1.390 . S
C1079 C1078 1.387 . S
H1080 C1092 0.930 . S
H1081 C1094 0.930 . S
H1082 C1095 0.930 . S
H1083 C1099 0.959 . S
H1084 C1099 0.959 . S
H1085 C1099 0.961 . S
H1086 C1100 0.960 . S
H1087 C1100 0.961 . S
H1088 C1100 0.959 . S
H1089 C1103 0.929 . S
H1090 C1104 0.931 . S
H1091 C1106 0.930 . S
C1092 H1080 0.930 . S
C1092 C1093 1.399 . S
C1092 C1097 1.399 . S
C1093 C1092 1.399 . S
C1093 C1094 1.376 . S
C1094 H1081 0.930 . S
C1094 C1093 1.376 . S
C1094 C1095 1.388 . S
C1095 H1082 0.930 . S
C1095 C1094 1.388 . S
C1095 C1096 1.390 . S
C1096 C1095 1.390 . S
C1096 C1097 1.394 . S
C1096 C1102 1.465 . S
C1097 C1092 1.399 . S
C1097 C1096 1.394 . S
C1097 C1098 1.516 . S
C1098 C1097 1.516 . S
C1098 C1099 1.502 . S
C1098 C1100 1.561 . S
C1098 C1101 1.526 . S
C1099 H1083 0.959 . S
C1099 H1084 0.959 . S
C1099 H1085 0.961 . S
C1099 C1098 1.502 . S
C1100 H1086 0.960 . S
C1100 H1087 0.961 . S
C1100 H1088 0.959 . S
C1100 C1098 1.561 . S
C1101 C1098 1.526 . S
C1101 C1102 1.396 . S
C1101 C1106 1.390 . S
C1102 C1096 1.465 . S
C1102 C1101 1.396 . S
C1102 C1103 1.399 . S
C1103 H1089 0.929 . S
C1103 C1102 1.399 . S
C1103 C1104 1.385 . S
C1104 H1090 0.931 . S
C1104 C1103 1.385 . S
C1104 C1105 1.389 . S
C1105 C1104 1.389 . S
C1105 C1106 1.387 . S
C1106 H1091 0.930 . S
C1106 C1101 1.390 . S
C1106 C1105 1.387 . S
H1107 C1119 0.930 . S
H1108 C1121 0.930 . S
H1109 C1122 0.930 . S
H1110 C1126 0.959 . S
H1111 C1126 0.959 . S
H1112 C1126 0.961 . S
H1113 C1127 0.960 . S
H1114 C1127 0.961 . S
H1115 C1127 0.959 . S
H1116 C1130 0.929 . S
H1117 C1131 0.931 . S
H1118 C1133 0.930 . S
C1119 H1107 0.930 . S
C1119 C1120 1.399 . S
C1119 C1124 1.399 . S
C1120 C1119 1.399 . S
C1120 C1121 1.376 . S
C1121 H1108 0.930 . S
C1121 C1120 1.376 . S
C1121 C1122 1.388 . S
C1122 H1109 0.930 . S
C1122 C1121 1.388 . S
C1122 C1123 1.390 . S
C1123 C1122 1.390 . S
C1123 C1124 1.394 . S
C1123 C1129 1.465 . S
C1124 C1119 1.399 . S
C1124 C1123 1.394 . S
C1124 C1125 1.516 . S
C1125 C1124 1.516 . S
C1125 C1126 1.502 . S
C1125 C1127 1.561 . S
C1125 C1128 1.526 . S
C1126 H1110 0.959 . S
C1126 H1111 0.959 . S
C1126 H1112 0.961 . S
C1126 C1125 1.502 . S
C1127 H1113 0.960 . S
C1127 H1114 0.961 . S
C1127 H1115 0.959 . S
C1127 C1125 1.561 . S
C1128 C1125 1.526 . S
C1128 C1129 1.396 . S
C1128 C1133 1.390 . S
C1129 C1123 1.465 . S
C1129 C1128 1.396 . S
C1129 C1130 1.399 . S
C1130 H1116 0.929 . S
C1130 C1129 1.399 . S
C1130 C1131 1.385 . S
C1131 H1117 0.931 . S
C1131 C1130 1.385 . S
C1131 C1132 1.389 . S
C1132 C1131 1.389 . S
C1132 C1133 1.387 . S
C1133 H1118 0.930 . S
C1133 C1128 1.390 . S
C1133 C1132 1.387 . S
H1134 C1146 0.930 1_545 S
H1135 C1148 0.930 . S
H1136 C1149 0.930 . S
H1137 C1153 0.959 . S
H1138 C1153 0.966 . S
H1139 C1153 0.961 1_545 S
H1140 C1154 0.960 1_545 S
H1141 C1154 0.961 . S
H1142 C1154 0.959 . S
H1143 C1157 0.929 . S
H1144 C1158 0.931 . S
H1145 C1160 0.930 . S
C1146 H1134 0.930 1_565 S
C1146 C1147 1.399 . S
C1146 C1151 1.399 . S
C1147 C1146 1.399 . S
C1147 C1148 1.376 . S
C1148 H1135 0.930 . S
C1148 C1147 1.376 . S
C1148 C1149 1.388 . S
C1149 H1136 0.930 . S
C1149 C1148 1.388 . S
C1149 C1150 1.390 . S
C1150 C1149 1.390 . S
C1150 C1151 1.394 . S
C1150 C1156 1.465 . S
C1151 C1146 1.399 . S
C1151 C1150 1.394 . S
C1151 C1152 1.516 . S
C1152 C1151 1.516 . S
C1152 C1153 1.502 . S
C1152 C1154 1.561 . S
C1152 C1155 1.526 . S
C1153 H1137 0.959 . S
C1153 H1138 0.966 . S
C1153 H1139 0.961 1_565 S
C1153 C1152 1.502 . S
C1154 H1140 0.960 1_565 S
C1154 H1141 0.961 . S
C1154 H1142 0.959 . S
C1154 C1152 1.561 . S
C1155 C1152 1.526 . S
C1155 C1156 1.396 . S
C1155 C1160 1.390 . S
C1156 C1150 1.465 . S
C1156 C1155 1.396 . S
C1156 C1157 1.399 . S
C1157 H1143 0.929 . S
C1157 C1156 1.399 . S
C1157 C1158 1.385 . S
C1158 H1144 0.931 . S
C1158 C1157 1.385 . S
C1158 C1159 1.389 . S
C1159 C1158 1.389 . S
C1159 C1160 1.387 . S
C1160 H1145 0.930 . S
C1160 C1155 1.390 . S
C1160 C1159 1.387 . S
H1161 C1173 0.930 . S
H1162 C1175 0.930 . S
H1163 C1176 0.930 . S
H1164 C1180 0.959 . S
H1165 C1180 0.959 . S
H1166 C1180 0.961 . S
H1167 C1181 0.960 . S
H1168 C1181 0.961 . S
H1169 C1181 0.959 . S
H1170 C1184 0.929 . S
H1171 C1185 0.931 . S
H1172 C1187 0.930 1_545 S
C1173 H1161 0.930 . S
C1173 C1174 1.399 . S
C1173 C1178 1.399 . S
C1174 C1173 1.399 . S
C1174 C1175 1.376 . S
C1175 H1162 0.930 . S
C1175 C1174 1.376 . S
C1175 C1176 1.388 . S
C1176 H1163 0.930 . S
C1176 C1175 1.388 . S
C1176 C1177 1.390 . S
C1177 C1176 1.390 . S
C1177 C1178 1.394 . S
C1177 C1183 1.465 . S
C1178 C1173 1.399 . S
C1178 C1177 1.394 . S
C1178 C1179 1.516 . S
C1179 C1178 1.516 . S
C1179 C1180 1.502 1_565 S
C1179 C1181 1.561 . S
C1179 C1182 1.526 . S
C1180 H1164 0.959 . S
C1180 H1165 0.959 . S
C1180 H1166 0.961 . S
C1180 C1179 1.502 1_545 S
C1181 H1167 0.960 . S
C1181 H1168 0.961 . S
C1181 H1169 0.959 . S
C1181 C1179 1.561 . S
C1182 C1179 1.526 . S
C1182 C1183 1.396 . S
C1182 C1187 1.390 . S
C1183 C1177 1.465 . S
C1183 C1182 1.396 . S
C1183 C1184 1.399 . S
C1184 H1170 0.929 . S
C1184 C1183 1.399 . S
C1184 C1185 1.385 . S
C1185 H1171 0.931 . S
C1185 C1184 1.385 . S
C1185 C1186 1.389 . S
C1186 C1185 1.389 . S
C1186 C1187 1.387 . S
C1187 H1172 0.930 1_565 S
C1187 C1182 1.390 . S
C1187 C1186 1.387 . S
H1188 C1200 0.930 . S
H1189 C1202 0.930 . S
H1190 C1203 0.930 . S
H1191 C1207 0.959 . S
H1192 C1207 0.959 . S
H1193 C1207 0.961 . S
H1194 C1208 0.960 . S
H1195 C1208 0.961 . S
H1196 C1208 0.959 . S
H1197 C1211 0.929 . S
H1198 C1212 0.931 . S
H1199 C1214 0.930 . S
C1200 H1188 0.930 . S
C1200 C1201 1.399 . S
C1200 C1205 1.399 . S
C1201 C1200 1.399 . S
C1201 C1202 1.376 . S
C1202 H1189 0.930 . S
C1202 C1201 1.376 . S
C1202 C1203 1.388 . S
C1203 H1190 0.930 . S
C1203 C1202 1.388 . S
C1203 C1204 1.390 . S
C1204 C1203 1.390 . S
C1204 C1205 1.394 . S
C1204 C1210 1.465 . S
C1205 C1200 1.399 . S
C1205 C1204 1.394 . S
C1205 C1206 1.516 . S
C1206 C1205 1.516 . S
C1206 C1207 1.502 . S
C1206 C1208 1.561 . S
C1206 C1209 1.526 . S
C1207 H1191 0.959 . S
C1207 H1192 0.959 . S
C1207 H1193 0.961 . S
C1207 C1206 1.502 . S
C1208 H1194 0.960 . S
C1208 H1195 0.961 . S
C1208 H1196 0.959 . S
C1208 C1206 1.561 . S
C1209 C1206 1.526 . S
C1209 C1210 1.396 . S
C1209 C1214 1.390 . S
C1210 C1204 1.465 . S
C1210 C1209 1.396 . S
C1210 C1211 1.399 . S
C1211 H1197 0.929 . S
C1211 C1210 1.399 . S
C1211 C1212 1.385 . S
C1212 H1198 0.931 . S
C1212 C1211 1.385 . S
C1212 C1213 1.389 . S
C1213 C1212 1.389 . S
C1213 C1214 1.387 . S
C1214 H1199 0.930 . S
C1214 C1209 1.390 . S
C1214 C1213 1.387 . S
H1215 C1227 0.930 . S
H1216 C1229 0.930 . S
H1217 C1230 0.930 . S
H1218 C1234 0.959 . S
H1219 C1234 0.959 . S
H1220 C1234 0.961 . S
H1221 C1235 0.960 . S
H1222 C1235 0.961 . S
H1223 C1235 0.959 . S
H1224 C1238 0.929 . S
H1225 C1239 0.931 . S
H1226 C1241 0.930 . S
C1227 H1215 0.930 . S
C1227 C1228 1.399 . S
C1227 C1232 1.399 . S
C1228 C1227 1.399 . S
C1228 C1229 1.376 . S
C1229 H1216 0.930 . S
C1229 C1228 1.376 . S
C1229 C1230 1.388 . S
C1230 H1217 0.930 . S
C1230 C1229 1.388 . S
C1230 C1231 1.390 . S
C1231 C1230 1.390 . S
C1231 C1232 1.394 . S
C1231 C1237 1.465 . S
C1232 C1227 1.399 . S
C1232 C1231 1.394 . S
C1232 C1233 1.516 . S
C1233 C1232 1.516 . S
C1233 C1234 1.502 . S
C1233 C1235 1.561 . S
C1233 C1236 1.526 . S
C1234 H1218 0.959 . S
C1234 H1219 0.959 . S
C1234 H1220 0.961 . S
C1234 C1233 1.502 . S
C1235 H1221 0.960 . S
C1235 H1222 0.961 . S
C1235 H1223 0.959 . S
C1235 C1233 1.561 . S
C1236 C1233 1.526 . S
C1236 C1237 1.396 . S
C1236 C1241 1.390 . S
C1237 C1231 1.465 . S
C1237 C1236 1.396 . S
C1237 C1238 1.399 . S
C1238 H1224 0.929 . S
C1238 C1237 1.399 . S
C1238 C1239 1.385 . S
C1239 H1225 0.931 . S
C1239 C1238 1.385 . S
C1239 C1240 1.389 . S
C1240 C1239 1.389 . S
C1240 C1241 1.387 . S
C1241 H1226 0.930 . S
C1241 C1236 1.390 . S
C1241 C1240 1.387 . S
H1242 C1254 0.930 . S
H1243 C1256 0.930 . S
H1244 C1257 0.930 . S
H1245 C1261 0.959 . S
H1246 C1261 0.959 . S
H1247 C1261 0.961 . S
H1248 C1262 0.960 . S
H1249 C1262 0.961 . S
H1250 C1262 0.959 . S
H1251 C1265 0.929 . S
H1252 C1266 0.931 . S
H1253 C1268 0.930 . S
C1254 H1242 0.930 . S
C1254 C1255 1.399 . S
C1254 C1259 1.399 . S
C1255 C1254 1.399 . S
C1255 C1256 1.376 . S
C1256 H1243 0.930 . S
C1256 C1255 1.376 . S
C1256 C1257 1.388 . S
C1257 H1244 0.930 . S
C1257 C1256 1.388 . S
C1257 C1258 1.390 . S
C1258 C1257 1.390 . S
C1258 C1259 1.394 . S
C1258 C1264 1.465 . S
C1259 C1254 1.399 . S
C1259 C1258 1.394 . S
C1259 C1260 1.516 . S
C1260 C1259 1.516 . S
C1260 C1261 1.502 . S
C1260 C1262 1.561 . S
C1260 C1263 1.526 . S
C1261 H1245 0.959 . S
C1261 H1246 0.959 . S
C1261 H1247 0.961 . S
C1261 C1260 1.502 . S
C1262 H1248 0.960 . S
C1262 H1249 0.961 . S
C1262 H1250 0.959 . S
C1262 C1260 1.561 . S
C1263 C1260 1.526 . S
C1263 C1264 1.396 . S
C1263 C1268 1.390 . S
C1264 C1258 1.465 . S
C1264 C1263 1.396 . S
C1264 C1265 1.399 . S
C1265 H1251 0.929 . S
C1265 C1264 1.399 . S
C1265 C1266 1.385 . S
C1266 H1252 0.931 . S
C1266 C1265 1.385 . S
C1266 C1267 1.389 . S
C1267 C1266 1.389 . S
C1267 C1268 1.387 . S
C1268 H1253 0.930 . S
C1268 C1263 1.390 . S
C1268 C1267 1.387 . S
H1269 C1281 0.930 . S
H1270 C1283 0.930 . S
H1271 C1284 0.930 . S
H1272 C1288 0.959 . S
H1273 C1288 0.959 . S
H1274 C1288 0.961 . S
H1275 C1289 0.960 . S
H1276 C1289 0.961 . S
H1277 C1289 0.959 . S
H1278 C1292 0.929 . S
H1279 C1293 0.931 . S
H1280 C1295 0.930 . S
C1281 H1269 0.930 . S
C1281 C1282 1.399 . S
C1281 C1286 1.399 . S
C1282 C1281 1.399 . S
C1282 C1283 1.376 . S
C1283 H1270 0.930 . S
C1283 C1282 1.376 . S
C1283 C1284 1.388 . S
C1284 H1271 0.930 . S
C1284 C1283 1.388 . S
C1284 C1285 1.390 . S
C1285 C1284 1.390 . S
C1285 C1286 1.394 . S
C1285 C1291 1.465 . S
C1286 C1281 1.399 . S
C1286 C1285 1.394 . S
C1286 C1287 1.516 . S
C1287 C1286 1.516 . S
C1287 C1288 1.502 . S
C1287 C1289 1.561 . S
C1287 C1290 1.526 . S
C1288 H1272 0.959 . S
C1288 H1273 0.959 . S
C1288 H1274 0.961 . S
C1288 C1287 1.502 . S
C1289 H1275 0.960 . S
C1289 H1276 0.961 . S
C1289 H1277 0.959 . S
C1289 C1287 1.561 . S
C1290 C1287 1.526 . S
C1290 C1291 1.396 . S
C1290 C1295 1.390 . S
C1291 C1285 1.465 . S
C1291 C1290 1.396 . S
C1291 C1292 1.399 . S
C1292 H1278 0.929 . S
C1292 C1291 1.399 . S
C1292 C1293 1.385 . S
C1293 H1279 0.931 . S
C1293 C1292 1.385 . S
C1293 C1294 1.389 . S
C1294 C1293 1.389 . S
C1294 C1295 1.387 . S
C1295 H1280 0.930 . S
C1295 C1290 1.390 . S
C1295 C1294 1.387 . S
H1296 C1308 0.930 . S
H1297 C1310 0.930 . S
H1298 C1311 0.930 . S
H1299 C1315 0.959 . S
H1300 C1315 0.959 . S
H1301 C1315 0.961 . S
H1302 C1316 0.960 . S
H1303 C1316 0.961 . S
H1304 C1316 0.959 . S
H1305 C1319 0.929 . S
H1306 C1320 0.931 . S
H1307 C1322 0.930 . S
C1308 H1296 0.930 . S
C1308 C1309 1.399 . S
C1308 C1313 1.399 . S
C1309 C1308 1.399 . S
C1309 C1310 1.376 . S
C1310 H1297 0.930 . S
C1310 C1309 1.376 . S
C1310 C1311 1.388 . S
C1311 H1298 0.930 . S
C1311 C1310 1.388 . S
C1311 C1312 1.390 . S
C1312 C1311 1.390 . S
C1312 C1313 1.394 . S
C1312 C1318 1.465 . S
C1313 C1308 1.399 . S
C1313 C1312 1.394 . S
C1313 C1314 1.516 . S
C1314 C1313 1.516 . S
C1314 C1315 1.502 . S
C1314 C1316 1.561 . S
C1314 C1317 1.526 . S
C1315 H1299 0.959 . S
C1315 H1300 0.959 . S
C1315 H1301 0.961 . S
C1315 C1314 1.502 . S
C1316 H1302 0.960 . S
C1316 H1303 0.961 . S
C1316 H1304 0.959 . S
C1316 C1314 1.561 . S
C1317 C1314 1.526 . S
C1317 C1318 1.396 . S
C1317 C1322 1.390 . S
C1318 C1312 1.465 . S
C1318 C1317 1.396 . S
C1318 C1319 1.399 . S
C1319 H1305 0.929 . S
C1319 C1318 1.399 . S
C1319 C1320 1.385 . S
C1320 H1306 0.931 . S
C1320 C1319 1.385 . S
C1320 C1321 1.389 . S
C1321 C1320 1.389 . S
C1321 C1322 1.387 . S
C1322 H1307 0.930 . S
C1322 C1317 1.390 . S
C1322 C1321 1.387 . S
H1323 C1335 0.930 . S
H1324 C1337 0.930 . S
H1325 C1338 0.930 . S
H1326 C1342 0.959 . S
H1327 C1342 0.959 . S
H1328 C1342 0.961 . S
H1329 C1343 0.960 . S
H1330 C1343 0.961 . S
H1331 C1343 0.959 . S
H1332 C1346 0.929 . S
H1333 C1347 0.931 . S
H1334 C1349 0.930 . S
C1335 H1323 0.930 . S
C1335 C1336 1.399 . S
C1335 C1340 1.399 . S
C1336 C1335 1.399 . S
C1336 C1337 1.376 . S
C1337 H1324 0.930 . S
C1337 C1336 1.376 . S
C1337 C1338 1.388 . S
C1338 H1325 0.930 . S
C1338 C1337 1.388 . S
C1338 C1339 1.390 . S
C1339 C1338 1.390 . S
C1339 C1340 1.394 . S
C1339 C1345 1.465 . S
C1340 C1335 1.399 . S
C1340 C1339 1.394 . S
C1340 C1341 1.516 . S
C1341 C1340 1.516 . S
C1341 C1342 1.502 . S
C1341 C1343 1.561 . S
C1341 C1344 1.526 . S
C1342 H1326 0.959 . S
C1342 H1327 0.959 . S
C1342 H1328 0.961 . S
C1342 C1341 1.502 . S
C1343 H1329 0.960 . S
C1343 H1330 0.961 . S
C1343 H1331 0.959 . S
C1343 C1341 1.561 . S
C1344 C1341 1.526 . S
C1344 C1345 1.396 . S
C1344 C1349 1.390 . S
C1345 C1339 1.465 . S
C1345 C1344 1.396 . S
C1345 C1346 1.399 . S
C1346 H1332 0.929 . S
C1346 C1345 1.399 . S
C1346 C1347 1.385 . S
C1347 H1333 0.931 . S
C1347 C1346 1.385 . S
C1347 C1348 1.389 . S
C1348 C1347 1.389 . S
C1348 C1349 1.387 . S
C1349 H1334 0.930 . S
C1349 C1344 1.390 . S
C1349 C1348 1.387 . S
H1350 C1362 0.930 . S
H1351 C1364 0.930 . S
H1352 C1365 0.930 . S
H1353 C1369 0.959 . S
H1354 C1369 0.959 . S
H1355 C1369 0.961 . S
H1356 C1370 0.960 1_554 S
H1357 C1370 0.961 . S
H1358 C1370 0.959 . S
H1359 C1373 0.929 . S
H1360 C1374 0.931 . S
H1361 C1376 0.930 . S
C1362 H1350 0.930 . S
C1362 C1363 1.399 . S
C1362 C1367 1.399 . S
C1363 C1362 1.399 . S
C1363 C1364 1.376 . S
C1364 H1351 0.930 . S
C1364 C1363 1.376 . S
C1364 C1365 1.388 . S
C1365 H1352 0.930 . S
C1365 C1364 1.388 . S
C1365 C1366 1.390 . S
C1366 C1365 1.390 . S
C1366 C1367 1.394 . S
C1366 C1372 1.465 . S
C1367 C1362 1.399 . S
C1367 C1366 1.394 . S
C1367 C1368 1.516 . S
C1368 C1367 1.516 . S
C1368 C1369 1.502 . S
C1368 C1370 1.561 . S
C1368 C1371 1.526 . S
C1369 H1353 0.959 . S
C1369 H1354 0.959 . S
C1369 H1355 0.961 . S
C1369 C1368 1.502 . S
C1370 H1356 0.960 1_556 S
C1370 H1357 0.961 . S
C1370 H1358 0.959 . S
C1370 C1368 1.561 . S
C1371 C1368 1.526 . S
C1371 C1372 1.396 . S
C1371 C1376 1.390 . S
C1372 C1366 1.465 . S
C1372 C1371 1.396 . S
C1372 C1373 1.399 . S
C1373 H1359 0.929 . S
C1373 C1372 1.399 . S
C1373 C1374 1.385 . S
C1374 H1360 0.931 . S
C1374 C1373 1.385 . S
C1374 C1375 1.389 . S
C1375 C1374 1.389 . S
C1375 C1376 1.387 . S
C1376 H1361 0.930 . S
C1376 C1371 1.390 . S
C1376 C1375 1.387 . S
H1377 C1389 0.930 . S
H1378 C1391 0.930 . S
H1379 C1392 0.930 . S
H1380 C1396 0.959 . S
H1381 C1396 0.959 . S
H1382 C1396 0.961 . S
H1383 C1397 0.960 . S
H1384 C1397 0.961 . S
H1385 C1397 0.959 . S
H1386 C1400 0.929 . S
H1387 C1401 0.931 . S
H1388 C1403 0.930 . S
C1389 H1377 0.930 . S
C1389 C1390 1.399 . S
C1389 C1394 1.399 . S
C1390 C1389 1.399 . S
C1390 C1391 1.376 . S
C1391 H1378 0.930 . S
C1391 C1390 1.376 . S
C1391 C1392 1.388 . S
C1392 H1379 0.930 . S
C1392 C1391 1.388 . S
C1392 C1393 1.390 . S
C1393 C1392 1.390 . S
C1393 C1394 1.394 . S
C1393 C1399 1.465 . S
C1394 C1389 1.399 . S
C1394 C1393 1.394 . S
C1394 C1395 1.516 . S
C1395 C1394 1.516 . S
C1395 C1396 1.502 . S
C1395 C1397 1.561 . S
C1395 C1398 1.526 . S
C1396 H1380 0.959 . S
C1396 H1381 0.959 . S
C1396 H1382 0.961 . S
C1396 C1395 1.502 . S
C1397 H1383 0.960 . S
C1397 H1384 0.961 . S
C1397 H1385 0.959 . S
C1397 C1395 1.561 . S
C1398 C1395 1.526 . S
C1398 C1399 1.396 . S
C1398 C1403 1.390 . S
C1399 C1393 1.465 . S
C1399 C1398 1.396 . S
C1399 C1400 1.399 . S
C1400 H1386 0.929 . S
C1400 C1399 1.399 . S
C1400 C1401 1.385 . S
C1401 H1387 0.931 . S
C1401 C1400 1.385 . S
C1401 C1402 1.389 . S
C1402 C1401 1.389 . S
C1402 C1403 1.387 . S
C1403 H1388 0.930 . S
C1403 C1398 1.390 . S
C1403 C1402 1.387 . S
H1404 C1416 0.930 . S
H1405 C1418 0.930 . S
H1406 C1419 0.930 . S
H1407 C1423 0.959 . S
H1408 C1423 0.959 . S
H1409 C1423 0.961 . S
H1410 C1424 0.960 . S
H1411 C1424 0.961 . S
H1412 C1424 0.959 . S
H1413 C1427 0.929 . S
H1414 C1428 0.931 . S
H1415 C1430 0.930 . S
C1416 H1404 0.930 . S
C1416 C1417 1.399 . S
C1416 C1421 1.399 . S
C1417 C1416 1.399 . S
C1417 C1418 1.376 . S
C1418 H1405 0.930 . S
C1418 C1417 1.376 . S
C1418 C1419 1.388 . S
C1419 H1406 0.930 . S
C1419 C1418 1.388 . S
C1419 C1420 1.390 . S
C1420 C1419 1.390 . S
C1420 C1421 1.394 . S
C1420 C1426 1.465 . S
C1421 C1416 1.399 . S
C1421 C1420 1.394 . S
C1421 C1422 1.516 . S
C1422 C1421 1.516 . S
C1422 C1423 1.502 . S
C1422 C1424 1.561 . S
C1422 C1425 1.526 . S
C1423 H1407 0.959 . S
C1423 H1408 0.959 . S
C1423 H1409 0.961 . S
C1423 C1422 1.502 . S
C1424 H1410 0.960 . S
C1424 H1411 0.961 . S
C1424 H1412 0.959 . S
C1424 C1422 1.561 . S
C1425 C1422 1.526 . S
C1425 C1426 1.396 . S
C1425 C1430 1.390 . S
C1426 C1420 1.465 . S
C1426 C1425 1.396 . S
C1426 C1427 1.399 . S
C1427 H1413 0.929 . S
C1427 C1426 1.399 . S
C1427 C1428 1.385 . S
C1428 H1414 0.931 . S
C1428 C1427 1.385 . S
C1428 C1429 1.389 . S
C1429 C1428 1.389 . S
C1429 C1430 1.387 . S
C1430 H1415 0.930 . S
C1430 C1425 1.390 . S
C1430 C1429 1.387 . S
H1431 C1443 0.930 . S
H1432 C1445 0.930 . S
H1433 C1446 0.930 . S
H1434 C1450 0.959 . S
H1435 C1450 0.959 . S
H1436 C1450 0.961 . S
H1437 C1451 0.960 . S
H1438 C1451 0.961 . S
H1439 C1451 0.959 . S
H1440 C1454 0.929 . S
H1441 C1455 0.931 . S
H1442 C1457 0.930 . S
C1443 H1431 0.930 . S
C1443 C1444 1.399 . S
C1443 C1448 1.399 . S
C1444 C1443 1.399 . S
C1444 C1445 1.376 . S
C1445 H1432 0.930 . S
C1445 C1444 1.376 . S
C1445 C1446 1.388 . S
C1446 H1433 0.930 . S
C1446 C1445 1.388 . S
C1446 C1447 1.390 . S
C1447 C1446 1.390 . S
C1447 C1448 1.394 . S
C1447 C1453 1.465 . S
C1448 C1443 1.399 . S
C1448 C1447 1.394 . S
C1448 C1449 1.516 . S
C1449 C1448 1.516 . S
C1449 C1450 1.502 . S
C1449 C1451 1.561 . S
C1449 C1452 1.526 . S
C1450 H1434 0.959 . S
C1450 H1435 0.959 . S
C1450 H1436 0.961 . S
C1450 C1449 1.502 . S
C1451 H1437 0.960 . S
C1451 H1438 0.961 . S
C1451 H1439 0.959 . S
C1451 C1449 1.561 . S
C1452 C1449 1.526 . S
C1452 C1453 1.396 . S
C1452 C1457 1.390 . S
C1453 C1447 1.465 . S
C1453 C1452 1.396 . S
C1453 C1454 1.399 . S
C1454 H1440 0.929 . S
C1454 C1453 1.399 . S
C1454 C1455 1.385 . S
C1455 H1441 0.931 . S
C1455 C1454 1.385 . S
C1455 C1456 1.389 . S
C1456 C1455 1.389 . S
C1456 C1457 1.387 . S
C1457 H1442 0.930 . S
C1457 C1452 1.390 . S
C1457 C1456 1.387 . S
H1458 C1470 0.930 . S
H1459 C1472 0.930 . S
H1460 C1473 0.930 . S
H1461 C1477 0.959 . S
H1462 C1477 0.959 . S
H1463 C1477 0.961 . S
H1464 C1478 0.960 . S
H1465 C1478 0.961 . S
H1466 C1478 0.959 . S
H1467 C1481 0.929 . S
H1468 C1482 0.931 . S
H1469 C1484 0.930 . S
C1470 H1458 0.930 . S
C1470 C1471 1.399 . S
C1470 C1475 1.399 . S
C1471 C1470 1.399 . S
C1471 C1472 1.376 . S
C1472 H1459 0.930 . S
C1472 C1471 1.376 . S
C1472 C1473 1.388 . S
C1473 H1460 0.930 . S
C1473 C1472 1.388 . S
C1473 C1474 1.390 . S
C1474 C1473 1.390 . S
C1474 C1475 1.394 . S
C1474 C1480 1.465 . S
C1475 C1470 1.399 . S
C1475 C1474 1.394 . S
C1475 C1476 1.516 . S
C1476 C1475 1.516 . S
C1476 C1477 1.502 . S
C1476 C1478 1.561 . S
C1476 C1479 1.526 . S
C1477 H1461 0.959 . S
C1477 H1462 0.959 . S
C1477 H1463 0.961 . S
C1477 C1476 1.502 . S
C1478 H1464 0.960 . S
C1478 H1465 0.961 . S
C1478 H1466 0.959 . S
C1478 C1476 1.561 . S
C1479 C1476 1.526 . S
C1479 C1480 1.396 . S
C1479 C1484 1.390 . S
C1480 C1474 1.465 . S
C1480 C1479 1.396 . S
C1480 C1481 1.399 . S
C1481 H1467 0.929 . S
C1481 C1480 1.399 . S
C1481 C1482 1.385 . S
C1482 H1468 0.931 . S
C1482 C1481 1.385 . S
C1482 C1483 1.389 . S
C1483 C1482 1.389 . S
C1483 C1484 1.387 . S
C1484 H1469 0.930 . S
C1484 C1479 1.390 . S
C1484 C1483 1.387 . S
H1485 C1497 0.930 . S
H1486 C1499 0.930 . S
H1487 C1500 0.930 . S
H1488 C1504 0.959 . S
H1489 C1504 0.959 . S
H1490 C1504 0.961 . S
H1491 C1505 0.960 . S
H1492 C1505 0.961 1_545 S
H1493 C1505 0.959 . S
H1494 C1508 0.929 . S
H1495 C1509 0.931 . S
H1496 C1511 0.930 . S
C1497 H1485 0.930 . S
C1497 C1498 1.399 . S
C1497 C1502 1.399 . S
C1498 C1497 1.399 . S
C1498 C1499 1.376 . S
C1499 H1486 0.930 . S
C1499 C1498 1.376 . S
C1499 C1500 1.388 . S
C1500 H1487 0.930 . S
C1500 C1499 1.388 . S
C1500 C1501 1.390 . S
C1501 C1500 1.390 . S
C1501 C1502 1.394 . S
C1501 C1507 1.465 . S
C1502 C1497 1.399 . S
C1502 C1501 1.394 . S
C1502 C1503 1.516 . S
C1503 C1502 1.516 . S
C1503 C1504 1.502 . S
C1503 C1505 1.561 . S
C1503 C1506 1.526 . S
C1504 H1488 0.959 . S
C1504 H1489 0.959 . S
C1504 H1490 0.961 . S
C1504 C1503 1.502 . S
C1505 H1491 0.960 . S
C1505 H1492 0.961 1_565 S
C1505 H1493 0.959 . S
C1505 C1503 1.561 . S
C1506 C1503 1.526 . S
C1506 C1507 1.396 . S
C1506 C1511 1.390 . S
C1507 C1501 1.465 . S
C1507 C1506 1.396 . S
C1507 C1508 1.399 . S
C1508 H1494 0.929 . S
C1508 C1507 1.399 . S
C1508 C1509 1.385 . S
C1509 H1495 0.931 . S
C1509 C1508 1.385 . S
C1509 C1510 1.389 . S
C1510 C1509 1.389 . S
C1510 C1511 1.387 . S
C1511 H1496 0.930 . S
C1511 C1506 1.390 . S
C1511 C1510 1.387 . S
H1512 C1524 0.930 . S
H1513 C1526 0.930 1_545 S
H1514 C1527 0.930 . S
H1515 C1531 0.959 . S
H1516 C1531 0.959 . S
H1517 C1531 0.961 . S
H1518 C1532 0.960 . S
H1519 C1532 0.961 . S
H1520 C1532 0.959 . S
H1521 C1535 0.929 . S
H1522 C1536 0.931 . S
H1523 C1538 0.930 . S
C1524 H1512 0.930 . S
C1524 C1525 1.399 . S
C1524 C1529 1.399 . S
C1525 C1524 1.399 . S
C1525 C1526 1.376 . S
C1526 H1513 0.930 1_565 S
C1526 C1525 1.376 . S
C1526 C1527 1.388 . S
C1527 H1514 0.930 . S
C1527 C1526 1.388 . S
C1527 C1528 1.390 . S
C1528 C1527 1.390 . S
C1528 C1529 1.394 . S
C1528 C1534 1.465 . S
C1529 C1524 1.399 . S
C1529 C1528 1.394 . S
C1529 C1530 1.516 . S
C1530 C1529 1.516 . S
C1530 C1531 1.502 . S
C1530 C1532 1.561 . S
C1530 C1533 1.526 . S
C1531 H1515 0.959 . S
C1531 H1516 0.959 . S
C1531 H1517 0.961 . S
C1531 C1530 1.502 . S
C1532 H1518 0.960 . S
C1532 H1519 0.961 . S
C1532 H1520 0.959 . S
C1532 C1530 1.561 . S
C1533 C1530 1.526 . S
C1533 C1534 1.396 . S
C1533 C1538 1.390 . S
C1534 C1528 1.465 . S
C1534 C1533 1.396 . S
C1534 C1535 1.399 . S
C1535 H1521 0.929 . S
C1535 C1534 1.399 . S
C1535 C1536 1.385 . S
C1536 H1522 0.931 . S
C1536 C1535 1.385 . S
C1536 C1537 1.389 . S
C1537 C1536 1.389 . S
C1537 C1538 1.387 . S
C1538 H1523 0.930 . S
C1538 C1533 1.390 . S
C1538 C1537 1.387 . S
H1539 C1551 0.930 . S
H1540 C1553 0.930 . S
H1541 C1554 0.930 . S
H1542 C1558 0.959 . S
H1543 C1558 0.959 . S
H1544 C1558 0.961 . S
H1545 C1559 0.960 . S
H1546 C1559 0.961 . S
H1547 C1559 0.959 . S
H1548 C1562 0.929 . S
H1549 C1563 0.931 . S
H1550 C1565 0.930 . S
C1551 H1539 0.930 . S
C1551 C1552 1.399 . S
C1551 C1556 1.399 . S
C1552 C1551 1.399 . S
C1552 C1553 1.376 . S
C1553 H1540 0.930 . S
C1553 C1552 1.376 . S
C1553 C1554 1.388 . S
C1554 H1541 0.930 . S
C1554 C1553 1.388 . S
C1554 C1555 1.390 . S
C1555 C1554 1.390 . S
C1555 C1556 1.394 . S
C1555 C1561 1.465 . S
C1556 C1551 1.399 . S
C1556 C1555 1.394 . S
C1556 C1557 1.516 . S
C1557 C1556 1.516 . S
C1557 C1558 1.502 . S
C1557 C1559 1.561 . S
C1557 C1560 1.526 . S
C1558 H1542 0.959 . S
C1558 H1543 0.959 . S
C1558 H1544 0.961 . S
C1558 C1557 1.502 . S
C1559 H1545 0.960 . S
C1559 H1546 0.961 . S
C1559 H1547 0.959 . S
C1559 C1557 1.561 . S
C1560 C1557 1.526 . S
C1560 C1561 1.396 . S
C1560 C1565 1.390 . S
C1561 C1555 1.465 . S
C1561 C1560 1.396 . S
C1561 C1562 1.399 . S
C1562 H1548 0.929 . S
C1562 C1561 1.399 . S
C1562 C1563 1.385 . S
C1563 H1549 0.931 . S
C1563 C1562 1.385 . S
C1563 C1564 1.389 . S
C1564 C1563 1.389 . S
C1564 C1565 1.387 . S
C1565 H1550 0.930 . S
C1565 C1560 1.390 . S
C1565 C1564 1.387 . S
H1566 C1578 0.930 . S
H1567 C1580 0.930 . S
H1568 C1581 0.930 . S
H1569 C1585 0.959 . S
H1570 C1585 0.959 . S
H1571 C1585 0.961 . S
H1572 C1586 0.960 . S
H1573 C1586 0.961 . S
H1574 C1586 0.959 . S
H1575 C1589 0.929 . S
H1576 C1590 0.931 . S
H1577 C1592 0.930 . S
C1578 H1566 0.930 . S
C1578 C1579 1.399 . S
C1578 C1583 1.399 . S
C1579 C1578 1.399 . S
C1579 C1580 1.376 . S
C1580 H1567 0.930 . S
C1580 C1579 1.376 . S
C1580 C1581 1.388 . S
C1581 H1568 0.930 . S
C1581 C1580 1.388 . S
C1581 C1582 1.390 . S
C1582 C1581 1.390 . S
C1582 C1583 1.394 . S
C1582 C1588 1.465 . S
C1583 C1578 1.399 . S
C1583 C1582 1.394 . S
C1583 C1584 1.516 . S
C1584 C1583 1.516 . S
C1584 C1585 1.502 . S
C1584 C1586 1.561 . S
C1584 C1587 1.526 . S
C1585 H1569 0.959 . S
C1585 H1570 0.959 . S
C1585 H1571 0.961 . S
C1585 C1584 1.502 . S
C1586 H1572 0.960 . S
C1586 H1573 0.961 . S
C1586 H1574 0.959 . S
C1586 C1584 1.561 . S
C1587 C1584 1.526 . S
C1587 C1588 1.396 . S
C1587 C1592 1.390 . S
C1588 C1582 1.465 . S
C1588 C1587 1.396 . S
C1588 C1589 1.399 . S
C1589 H1575 0.929 . S
C1589 C1588 1.399 . S
C1589 C1590 1.385 . S
C1590 H1576 0.931 . S
C1590 C1589 1.385 . S
C1590 C1591 1.389 . S
C1591 C1590 1.389 . S
C1591 C1592 1.387 . S
C1592 H1577 0.930 . S
C1592 C1587 1.390 . S
C1592 C1591 1.387 . S
H1593 C1605 0.930 . S
H1594 C1607 0.930 . S
H1595 C1608 0.930 . S
H1596 C1612 0.959 . S
H1597 C1612 0.959 . S
H1598 C1612 0.961 . S
H1599 C1613 0.960 . S
H1600 C1613 0.961 . S
H1601 C1613 0.959 . S
H1602 C1616 0.929 . S
H1603 C1617 0.931 1_554 S
H1604 C1619 0.930 . S
C1605 H1593 0.930 . S
C1605 C1606 1.399 . S
C1605 C1610 1.399 . S
C1606 C1605 1.399 . S
C1606 C1607 1.376 . S
C1607 H1594 0.930 . S
C1607 C1606 1.376 . S
C1607 C1608 1.388 . S
C1608 H1595 0.930 . S
C1608 C1607 1.388 . S
C1608 C1609 1.390 . S
C1609 C1608 1.390 . S
C1609 C1610 1.394 . S
C1609 C1615 1.465 . S
C1610 C1605 1.399 . S
C1610 C1609 1.394 . S
C1610 C1611 1.516 . S
C1611 C1610 1.516 . S
C1611 C1612 1.502 . S
C1611 C1613 1.561 . S
C1611 C1614 1.526 . S
C1612 H1596 0.959 . S
C1612 H1597 0.959 . S
C1612 H1598 0.961 . S
C1612 C1611 1.502 . S
C1613 H1599 0.960 . S
C1613 H1600 0.961 . S
C1613 H1601 0.959 . S
C1613 C1611 1.561 . S
C1614 C1611 1.526 . S
C1614 C1615 1.396 . S
C1614 C1619 1.390 . S
C1615 C1609 1.465 . S
C1615 C1614 1.396 . S
C1615 C1616 1.399 . S
C1616 H1602 0.929 . S
C1616 C1615 1.399 . S
C1616 C1617 1.385 . S
C1617 H1603 0.931 1_556 S
C1617 C1616 1.385 . S
C1617 C1618 1.389 . S
C1618 C1617 1.389 . S
C1618 C1619 1.387 . S
C1619 H1604 0.930 . S
C1619 C1614 1.390 . S
C1619 C1618 1.387 . S
H1620 C1632 0.930 . S
H1621 C1634 0.930 . S
H1622 C1635 0.930 . S
H1623 C1639 0.959 . S
H1624 C1639 0.959 . S
H1625 C1639 0.961 . S
H1626 C1640 0.960 . S
H1627 C1640 0.961 . S
H1628 C1640 0.959 . S
H1629 C1643 0.929 . S
H1630 C1644 0.931 . S
H1631 C1646 0.930 . S
C1632 H1620 0.930 . S
C1632 C1633 1.399 . S
C1632 C1637 1.399 . S
C1633 C1632 1.399 . S
C1633 C1634 1.376 . S
C1634 H1621 0.930 . S
C1634 C1633 1.376 . S
C1634 C1635 1.388 . S
C1635 H1622 0.930 . S
C1635 C1634 1.388 . S
C1635 C1636 1.390 . S
C1636 C1635 1.390 . S
C1636 C1637 1.394 . S
C1636 C1642 1.465 . S
C1637 C1632 1.399 . S
C1637 C1636 1.394 . S
C1637 C1638 1.516 . S
C1638 C1637 1.516 . S
C1638 C1639 1.502 . S
C1638 C1640 1.561 . S
C1638 C1641 1.526 . S
C1639 H1623 0.959 . S
C1639 H1624 0.959 . S
C1639 H1625 0.961 . S
C1639 C1638 1.502 . S
C1640 H1626 0.960 . S
C1640 H1627 0.961 . S
C1640 H1628 0.959 . S
C1640 C1638 1.561 . S
C1641 C1638 1.526 . S
C1641 C1642 1.396 . S
C1641 C1646 1.390 . S
C1642 C1636 1.465 . S
C1642 C1641 1.396 . S
C1642 C1643 1.399 . S
C1643 H1629 0.929 . S
C1643 C1642 1.399 . S
C1643 C1644 1.385 . S
C1644 H1630 0.931 . S
C1644 C1643 1.385 . S
C1644 C1645 1.389 . S
C1645 C1644 1.389 . S
C1645 C1646 1.387 . S
C1646 H1631 0.930 . S
C1646 C1641 1.390 . S
C1646 C1645 1.387 . S
H1647 C1659 0.930 . S
H1648 C1661 0.930 . S
H1649 C1662 0.930 . S
H1650 C1666 0.959 . S
H1651 C1666 0.959 . S
H1652 C1666 0.961 . S
H1653 C1667 0.960 . S
H1654 C1667 0.961 . S
H1655 C1667 0.959 . S
H1656 C1670 0.929 . S
H1657 C1671 0.931 . S
H1658 C1673 0.930 . S
C1659 H1647 0.930 . S
C1659 C1660 1.399 . S
C1659 C1664 1.399 . S
C1660 C1659 1.399 . S
C1660 C1661 1.376 . S
C1661 H1648 0.930 . S
C1661 C1660 1.376 . S
C1661 C1662 1.388 . S
C1662 H1649 0.930 . S
C1662 C1661 1.388 . S
C1662 C1663 1.390 . S
C1663 C1662 1.390 . S
C1663 C1664 1.394 . S
C1663 C1669 1.465 . S
C1664 C1659 1.399 . S
C1664 C1663 1.394 . S
C1664 C1665 1.516 . S
C1665 C1664 1.516 . S
C1665 C1666 1.502 . S
C1665 C1667 1.561 . S
C1665 C1668 1.526 . S
C1666 H1650 0.959 . S
C1666 H1651 0.959 . S
C1666 H1652 0.961 . S
C1666 C1665 1.502 . S
C1667 H1653 0.960 . S
C1667 H1654 0.961 . S
C1667 H1655 0.959 . S
C1667 C1665 1.561 . S
C1668 C1665 1.526 . S
C1668 C1669 1.396 . S
C1668 C1673 1.390 . S
C1669 C1663 1.465 . S
C1669 C1668 1.396 . S
C1669 C1670 1.399 . S
C1670 H1656 0.929 . S
C1670 C1669 1.399 . S
C1670 C1671 1.385 . S
C1671 H1657 0.931 . S
C1671 C1670 1.385 . S
C1671 C1672 1.389 . S
C1672 C1671 1.389 . S
C1672 C1673 1.387 . S
C1673 H1658 0.930 . S
C1673 C1668 1.390 . S
C1673 C1672 1.387 . S
H1674 C1686 0.930 . S
H1675 C1688 0.930 . S
H1676 C1689 0.930 . S
H1677 C1693 0.959 . S
H1678 C1693 0.959 . S
H1679 C1693 0.961 . S
H1680 C1694 0.960 . S
H1681 C1694 0.961 . S
H1682 C1694 0.959 . S
H1683 C1697 0.929 . S
H1684 C1698 0.931 . S
H1685 C1700 0.930 . S
C1686 H1674 0.930 . S
C1686 C1687 1.399 . S
C1686 C1691 1.399 . S
C1687 C1686 1.399 . S
C1687 C1688 1.376 . S
C1688 H1675 0.930 . S
C1688 C1687 1.376 . S
C1688 C1689 1.388 . S
C1689 H1676 0.930 . S
C1689 C1688 1.388 . S
C1689 C1690 1.390 . S
C1690 C1689 1.390 . S
C1690 C1691 1.394 . S
C1690 C1696 1.465 . S
C1691 C1686 1.399 . S
C1691 C1690 1.394 . S
C1691 C1692 1.516 . S
C1692 C1691 1.516 . S
C1692 C1693 1.502 . S
C1692 C1694 1.561 . S
C1692 C1695 1.526 . S
C1693 H1677 0.959 . S
C1693 H1678 0.959 . S
C1693 H1679 0.961 . S
C1693 C1692 1.502 . S
C1694 H1680 0.960 . S
C1694 H1681 0.961 . S
C1694 H1682 0.959 . S
C1694 C1692 1.561 . S
C1695 C1692 1.526 . S
C1695 C1696 1.396 . S
C1695 C1700 1.390 . S
C1696 C1690 1.465 . S
C1696 C1695 1.396 . S
C1696 C1697 1.399 . S
C1697 H1683 0.929 . S
C1697 C1696 1.399 . S
C1697 C1698 1.385 . S
C1698 H1684 0.931 . S
C1698 C1697 1.385 . S
C1698 C1699 1.389 . S
C1699 C1698 1.389 . S
C1699 C1700 1.387 . S
C1700 H1685 0.930 . S
C1700 C1695 1.390 . S
C1700 C1699 1.387 . S
H1701 C1713 0.930 . S
H1702 C1715 0.930 . S
H1703 C1716 0.930 . S
H1704 C1720 0.959 . S
H1705 C1720 0.959 . S
H1706 C1720 0.961 . S
H1707 C1721 0.960 . S
H1708 C1721 0.961 . S
H1709 C1721 0.959 . S
H1710 C1724 0.929 . S
H1711 C1725 0.931 . S
H1712 C1727 0.930 . S
C1713 H1701 0.930 . S
C1713 C1714 1.399 . S
C1713 C1718 1.399 . S
C1714 C1713 1.399 . S
C1714 C1715 1.376 . S
C1715 H1702 0.930 . S
C1715 C1714 1.376 . S
C1715 C1716 1.388 . S
C1716 H1703 0.930 . S
C1716 C1715 1.388 . S
C1716 C1717 1.390 . S
C1717 C1716 1.390 . S
C1717 C1718 1.394 . S
C1717 C1723 1.465 . S
C1718 C1713 1.399 . S
C1718 C1717 1.394 . S
C1718 C1719 1.516 . S
C1719 C1718 1.516 . S
C1719 C1720 1.502 . S
C1719 C1721 1.561 . S
C1719 C1722 1.526 . S
C1720 H1704 0.959 . S
C1720 H1705 0.959 . S
C1720 H1706 0.961 . S
C1720 C1719 1.502 . S
C1721 H1707 0.960 . S
C1721 H1708 0.961 . S
C1721 H1709 0.959 . S
C1721 C1719 1.561 . S
C1722 C1719 1.526 . S
C1722 C1723 1.396 . S
C1722 C1727 1.390 . S
C1723 C1717 1.465 . S
C1723 C1722 1.396 . S
C1723 C1724 1.399 . S
C1724 H1710 0.929 . S
C1724 C1723 1.399 . S
C1724 C1725 1.385 . S
C1725 H1711 0.931 . S
C1725 C1724 1.385 . S
C1725 C1726 1.389 . S
C1726 C1725 1.389 . S
C1726 C1727 1.387 . S
C1727 H1712 0.930 . S
C1727 C1722 1.390 . S
C1727 C1726 1.387 . S
H1728 C1740 0.930 . S
H1729 C1742 0.930 . S
H1730 C1743 0.930 . S
H1731 C1747 0.959 . S
H1732 C1747 0.959 . S
H1733 C1747 0.961 . S
H1734 C1748 0.960 . S
H1735 C1748 0.961 . S
H1736 C1748 0.959 . S
H1737 C1751 0.929 . S
H1738 C1752 0.931 . S
H1739 C1754 0.930 . S
C1740 H1728 0.930 . S
C1740 C1741 1.399 . S
C1740 C1745 1.399 . S
C1741 C1740 1.399 . S
C1741 C1742 1.376 . S
C1742 H1729 0.930 . S
C1742 C1741 1.376 . S
C1742 C1743 1.388 . S
C1743 H1730 0.930 . S
C1743 C1742 1.388 . S
C1743 C1744 1.390 . S
C1744 C1743 1.390 . S
C1744 C1745 1.394 . S
C1744 C1750 1.465 . S
C1745 C1740 1.399 . S
C1745 C1744 1.394 . S
C1745 C1746 1.516 . S
C1746 C1745 1.516 . S
C1746 C1747 1.502 . S
C1746 C1748 1.561 . S
C1746 C1749 1.526 . S
C1747 H1731 0.959 . S
C1747 H1732 0.959 . S
C1747 H1733 0.961 . S
C1747 C1746 1.502 . S
C1748 H1734 0.960 . S
C1748 H1735 0.961 . S
C1748 H1736 0.959 . S
C1748 C1746 1.561 . S
C1749 C1746 1.526 . S
C1749 C1750 1.396 . S
C1749 C1754 1.390 . S
C1750 C1744 1.465 . S
C1750 C1749 1.396 . S
C1750 C1751 1.399 . S
C1751 H1737 0.929 . S
C1751 C1750 1.399 . S
C1751 C1752 1.385 . S
C1752 H1738 0.931 . S
C1752 C1751 1.385 . S
C1752 C1753 1.389 . S
C1753 C1752 1.389 . S
C1753 C1754 1.387 . S
C1754 H1739 0.930 . S
C1754 C1749 1.390 . S
C1754 C1753 1.387 . S
H1755 C1767 0.930 . S
H1756 C1769 0.930 . S
H1757 C1770 0.930 . S
H1758 C1774 0.959 . S
H1759 C1774 0.959 . S
H1760 C1774 0.961 . S
H1761 C1775 0.960 . S
H1762 C1775 0.961 . S
H1763 C1775 0.959 . S
H1764 C1778 0.929 . S
H1765 C1779 0.931 . S
H1766 C1781 0.930 . S
C1767 H1755 0.930 . S
C1767 C1768 1.399 . S
C1767 C1772 1.399 . S
C1768 C1767 1.399 . S
C1768 C1769 1.376 . S
C1769 H1756 0.930 . S
C1769 C1768 1.376 . S
C1769 C1770 1.388 . S
C1770 H1757 0.930 . S
C1770 C1769 1.388 . S
C1770 C1771 1.390 . S
C1771 C1770 1.390 . S
C1771 C1772 1.394 . S
C1771 C1777 1.465 . S
C1772 C1767 1.399 . S
C1772 C1771 1.394 . S
C1772 C1773 1.516 . S
C1773 C1772 1.516 . S
C1773 C1774 1.502 . S
C1773 C1775 1.561 . S
C1773 C1776 1.526 . S
C1774 H1758 0.959 . S
C1774 H1759 0.959 . S
C1774 H1760 0.961 . S
C1774 C1773 1.502 . S
C1775 H1761 0.960 . S
C1775 H1762 0.961 . S
C1775 H1763 0.959 . S
C1775 C1773 1.561 . S
C1776 C1773 1.526 . S
C1776 C1777 1.396 . S
C1776 C1781 1.390 . S
C1777 C1771 1.465 . S
C1777 C1776 1.396 . S
C1777 C1778 1.399 . S
C1778 H1764 0.929 . S
C1778 C1777 1.399 . S
C1778 C1779 1.385 . S
C1779 H1765 0.931 . S
C1779 C1778 1.385 . S
C1779 C1780 1.389 . S
C1780 C1779 1.389 . S
C1780 C1781 1.387 . S
C1781 H1766 0.930 . S
C1781 C1776 1.390 . S
C1781 C1780 1.387 . S
H1782 C1794 0.930 . S
H1783 C1796 0.930 . S
H1784 C1797 0.930 . S
H1785 C1801 0.959 . S
H1786 C1801 0.959 . S
H1787 C1801 0.961 . S
H1788 C1802 0.960 . S
H1789 C1802 0.961 . S
H1790 C1802 0.959 . S
H1791 C1805 0.929 . S
H1792 C1806 0.931 . S
H1793 C1808 0.930 . S
C1794 H1782 0.930 . S
C1794 C1795 1.399 . S
C1794 C1799 1.399 . S
C1795 C1794 1.399 . S
C1795 C1796 1.376 . S
C1796 H1783 0.930 . S
C1796 C1795 1.376 . S
C1796 C1797 1.388 . S
C1797 H1784 0.930 . S
C1797 C1796 1.388 . S
C1797 C1798 1.390 . S
C1798 C1797 1.390 . S
C1798 C1799 1.394 . S
C1798 C1804 1.465 . S
C1799 C1794 1.399 . S
C1799 C1798 1.394 . S
C1799 C1800 1.516 . S
C1800 C1799 1.516 . S
C1800 C1801 1.502 . S
C1800 C1802 1.561 . S
C1800 C1803 1.526 . S
C1801 H1785 0.959 . S
C1801 H1786 0.959 . S
C1801 H1787 0.961 . S
C1801 C1800 1.502 . S
C1802 H1788 0.960 . S
C1802 H1789 0.961 . S
C1802 H1790 0.959 . S
C1802 C1800 1.561 . S
C1803 C1800 1.526 . S
C1803 C1804 1.396 . S
C1803 C1808 1.390 . S
C1804 C1798 1.465 . S
C1804 C1803 1.396 . S
C1804 C1805 1.399 . S
C1805 H1791 0.929 . S
C1805 C1804 1.399 . S
C1805 C1806 1.385 . S
C1806 H1792 0.931 . S
C1806 C1805 1.385 . S
C1806 C1807 1.389 . S
C1807 C1806 1.389 . S
C1807 C1808 1.387 . S
C1808 H1793 0.930 . S
C1808 C1803 1.390 . S
C1808 C1807 1.387 . S
H1809 C1821 0.930 . S
H1810 C1823 0.930 . S
H1811 C1824 0.930 . S
H1812 C1828 0.959 . S
H1813 C1828 0.959 . S
H1814 C1828 0.961 . S
H1815 C1829 0.960 . S
H1816 C1829 0.961 . S
H1817 C1829 0.959 . S
H1818 C1832 0.929 . S
H1819 C1833 0.931 . S
H1820 C1835 0.930 . S
C1821 H1809 0.930 . S
C1821 C1822 1.399 . S
C1821 C1826 1.399 . S
C1822 C1821 1.399 . S
C1822 C1823 1.376 . S
C1823 H1810 0.930 . S
C1823 C1822 1.376 . S
C1823 C1824 1.388 . S
C1824 H1811 0.930 . S
C1824 C1823 1.388 . S
C1824 C1825 1.390 . S
C1825 C1824 1.390 . S
C1825 C1826 1.394 . S
C1825 C1831 1.465 . S
C1826 C1821 1.399 . S
C1826 C1825 1.394 . S
C1826 C1827 1.516 . S
C1827 C1826 1.516 . S
C1827 C1828 1.502 . S
C1827 C1829 1.561 . S
C1827 C1830 1.526 . S
C1828 H1812 0.959 . S
C1828 H1813 0.959 . S
C1828 H1814 0.961 . S
C1828 C1827 1.502 . S
C1829 H1815 0.960 . S
C1829 H1816 0.961 . S
C1829 H1817 0.959 . S
C1829 C1827 1.561 . S
C1830 C1827 1.526 . S
C1830 C1831 1.396 . S
C1830 C1835 1.390 . S
C1831 C1825 1.465 . S
C1831 C1830 1.396 . S
C1831 C1832 1.399 . S
C1832 H1818 0.929 . S
C1832 C1831 1.399 . S
C1832 C1833 1.385 . S
C1833 H1819 0.931 . S
C1833 C1832 1.385 . S
C1833 C1834 1.389 . S
C1834 C1833 1.389 . S
C1834 C1835 1.387 . S
C1835 H1820 0.930 . S
C1835 C1830 1.390 . S
C1835 C1834 1.387 . S
H1836 C1848 0.930 . S
H1837 C1850 0.930 . S
H1838 C1851 0.930 . S
H1839 C1855 0.959 . S
H1840 C1855 0.959 . S
H1841 C1855 0.961 . S
H1842 C1856 0.960 . S
H1843 C1856 0.961 . S
H1844 C1856 0.959 . S
H1845 C1859 0.929 . S
H1846 C1860 0.931 . S
H1847 C1862 0.930 . S
C1848 H1836 0.930 . S
C1848 C1849 1.399 . S
C1848 C1853 1.399 . S
C1849 C1848 1.399 . S
C1849 C1850 1.376 . S
C1850 H1837 0.930 . S
C1850 C1849 1.376 . S
C1850 C1851 1.388 . S
C1851 H1838 0.930 . S
C1851 C1850 1.388 . S
C1851 C1852 1.390 . S
C1852 C1851 1.390 . S
C1852 C1853 1.394 . S
C1852 C1858 1.465 . S
C1853 C1848 1.399 . S
C1853 C1852 1.394 . S
C1853 C1854 1.516 . S
C1854 C1853 1.516 . S
C1854 C1855 1.502 . S
C1854 C1856 1.561 . S
C1854 C1857 1.526 . S
C1855 H1839 0.959 . S
C1855 H1840 0.959 . S
C1855 H1841 0.961 . S
C1855 C1854 1.502 . S
C1856 H1842 0.960 . S
C1856 H1843 0.961 . S
C1856 H1844 0.959 . S
C1856 C1854 1.561 . S
C1857 C1854 1.526 . S
C1857 C1858 1.396 . S
C1857 C1862 1.390 . S
C1858 C1852 1.465 . S
C1858 C1857 1.396 . S
C1858 C1859 1.399 . S
C1859 H1845 0.929 . S
C1859 C1858 1.399 . S
C1859 C1860 1.385 . S
C1860 H1846 0.931 . S
C1860 C1859 1.385 . S
C1860 C1861 1.389 . S
C1861 C1860 1.389 . S
C1861 C1862 1.387 . S
C1862 H1847 0.930 . S
C1862 C1857 1.390 . S
C1862 C1861 1.387 . S
H1863 C1875 0.930 . S
H1864 C1877 0.930 . S
H1865 C1878 0.930 . S
H1866 C1882 0.959 . S
H1867 C1882 0.959 . S
H1868 C1882 0.961 . S
H1869 C1883 0.960 . S
H1870 C1883 0.961 . S
H1871 C1883 0.959 . S
H1872 C1886 0.929 . S
H1873 C1887 0.931 . S
H1874 C1889 0.930 . S
C1875 H1863 0.930 . S
C1875 C1876 1.399 . S
C1875 C1880 1.399 . S
C1876 C1875 1.399 . S
C1876 C1877 1.376 . S
C1877 H1864 0.930 . S
C1877 C1876 1.376 . S
C1877 C1878 1.388 . S
C1878 H1865 0.930 . S
C1878 C1877 1.388 . S
C1878 C1879 1.390 . S
C1879 C1878 1.390 . S
C1879 C1880 1.394 . S
C1879 C1885 1.465 . S
C1880 C1875 1.399 . S
C1880 C1879 1.394 . S
C1880 C1881 1.516 . S
C1881 C1880 1.516 . S
C1881 C1882 1.502 . S
C1881 C1883 1.561 . S
C1881 C1884 1.526 . S
C1882 H1866 0.959 . S
C1882 H1867 0.959 . S
C1882 H1868 0.961 . S
C1882 C1881 1.502 . S
C1883 H1869 0.960 . S
C1883 H1870 0.961 . S
C1883 H1871 0.959 . S
C1883 C1881 1.561 . S
C1884 C1881 1.526 . S
C1884 C1885 1.396 . S
C1884 C1889 1.390 . S
C1885 C1879 1.465 . S
C1885 C1884 1.396 . S
C1885 C1886 1.399 . S
C1886 H1872 0.929 . S
C1886 C1885 1.399 . S
C1886 C1887 1.385 . S
C1887 H1873 0.931 . S
C1887 C1886 1.385 . S
C1887 C1888 1.389 . S
C1888 C1887 1.389 . S
C1888 C1889 1.387 . S
C1889 H1874 0.930 . S
C1889 C1884 1.390 . S
C1889 C1888 1.387 . S
H1890 C1902 0.930 . S
H1891 C1904 0.930 . S
H1892 C1905 0.930 . S
H1893 C1909 0.959 . S
H1894 C1909 0.959 . S
H1895 C1909 0.961 . S
H1896 C1910 0.960 . S
H1897 C1910 0.961 . S
H1898 C1910 0.959 . S
H1899 C1913 0.929 . S
H1900 C1914 0.931 . S
H1901 C1916 0.930 . S
C1902 H1890 0.930 . S
C1902 C1903 1.399 . S
C1902 C1907 1.399 . S
C1903 C1902 1.399 . S
C1903 C1904 1.376 . S
C1904 H1891 0.930 . S
C1904 C1903 1.376 . S
C1904 C1905 1.388 . S
C1905 H1892 0.930 . S
C1905 C1904 1.388 . S
C1905 C1906 1.390 . S
C1906 C1905 1.390 . S
C1906 C1907 1.394 . S
C1906 C1912 1.465 . S
C1907 C1902 1.399 . S
C1907 C1906 1.394 . S
C1907 C1908 1.516 . S
C1908 C1907 1.516 . S
C1908 C1909 1.502 . S
C1908 C1910 1.561 . S
C1908 C1911 1.526 . S
C1909 H1893 0.959 . S
C1909 H1894 0.959 . S
C1909 H1895 0.961 . S
C1909 C1908 1.502 . S
C1910 H1896 0.960 . S
C1910 H1897 0.961 . S
C1910 H1898 0.959 . S
C1910 C1908 1.561 . S
C1911 C1908 1.526 . S
C1911 C1912 1.396 . S
C1911 C1916 1.390 . S
C1912 C1906 1.465 . S
C1912 C1911 1.396 . S
C1912 C1913 1.399 . S
C1913 H1899 0.929 . S
C1913 C1912 1.399 . S
C1913 C1914 1.385 . S
C1914 H1900 0.931 . S
C1914 C1913 1.385 . S
C1914 C1915 1.389 . S
C1915 C1914 1.389 . S
C1915 C1916 1.387 . S
C1916 H1901 0.930 . S
C1916 C1911 1.390 . S
C1916 C1915 1.387 . S
H1917 C1929 0.930 . S
H1918 C1931 0.930 . S
H1919 C1932 0.930 . S
H1920 C1936 0.959 . S
H1921 C1936 0.959 . S
H1922 C1936 0.961 . S
H1923 C1937 0.960 . S
H1924 C1937 0.961 . S
H1925 C1937 0.959 . S
H1926 C1940 0.929 . S
H1927 C1941 0.931 . S
H1928 C1943 0.930 . S
C1929 H1917 0.930 . S
C1929 C1930 1.399 . S
C1929 C1934 1.399 . S
C1930 C1929 1.399 . S
C1930 C1931 1.376 . S
C1931 H1918 0.930 . S
C1931 C1930 1.376 . S
C1931 C1932 1.388 . S
C1932 H1919 0.930 . S
C1932 C1931 1.388 . S
C1932 C1933 1.390 . S
C1933 C1932 1.390 . S
C1933 C1934 1.394 . S
C1933 C1939 1.465 . S
C1934 C1929 1.399 . S
C1934 C1933 1.394 . S
C1934 C1935 1.516 . S
C1935 C1934 1.516 . S
C1935 C1936 1.502 . S
C1935 C1937 1.561 . S
C1935 C1938 1.526 . S
C1936 H1920 0.959 . S
C1936 H1921 0.959 . S
C1936 H1922 0.961 . S
C1936 C1935 1.502 . S
C1937 H1923 0.960 . S
C1937 H1924 0.961 . S
C1937 H1925 0.959 . S
C1937 C1935 1.561 . S
C1938 C1935 1.526 . S
C1938 C1939 1.396 . S
C1938 C1943 1.390 . S
C1939 C1933 1.465 . S
C1939 C1938 1.396 . S
C1939 C1940 1.399 . S
C1940 H1926 0.929 . S
C1940 C1939 1.399 . S
C1940 C1941 1.385 . S
C1941 H1927 0.931 . S
C1941 C1940 1.385 . S
C1941 C1942 1.389 . S
C1942 C1941 1.389 . S
C1942 C1943 1.387 . S
C1943 H1928 0.930 . S
C1943 C1938 1.390 . S
C1943 C1942 1.387 . S
H1944 C1956 0.930 . S
H1945 C1958 0.930 . S
H1946 C1959 0.930 . S
H1947 C1963 0.959 . S
H1948 C1963 0.959 . S
H1949 C1963 0.961 . S
H1950 C1964 0.960 . S
H1951 C1964 0.961 . S
H1952 C1964 0.959 . S
H1953 C1967 0.929 . S
H1954 C1968 0.931 . S
H1955 C1970 0.930 . S
C1956 H1944 0.930 . S
C1956 C1957 1.399 . S
C1956 C1961 1.399 . S
C1957 C1956 1.399 . S
C1957 C1958 1.376 . S
C1958 H1945 0.930 . S
C1958 C1957 1.376 . S
C1958 C1959 1.388 . S
C1959 H1946 0.930 . S
C1959 C1958 1.388 . S
C1959 C1960 1.390 . S
C1960 C1959 1.390 . S
C1960 C1961 1.394 . S
C1960 C1966 1.465 . S
C1961 C1956 1.399 . S
C1961 C1960 1.394 . S
C1961 C1962 1.516 . S
C1962 C1961 1.516 . S
C1962 C1963 1.502 . S
C1962 C1964 1.561 . S
C1962 C1965 1.526 . S
C1963 H1947 0.959 . S
C1963 H1948 0.959 . S
C1963 H1949 0.961 . S
C1963 C1962 1.502 . S
C1964 H1950 0.960 . S
C1964 H1951 0.961 . S
C1964 H1952 0.959 . S
C1964 C1962 1.561 . S
C1965 C1962 1.526 . S
C1965 C1966 1.396 . S
C1965 C1970 1.390 . S
C1966 C1960 1.465 . S
C1966 C1965 1.396 . S
C1966 C1967 1.399 . S
C1967 H1953 0.929 . S
C1967 C1966 1.399 . S
C1967 C1968 1.385 . S
C1968 H1954 0.931 . S
C1968 C1967 1.385 . S
C1968 C1969 1.389 . S
C1969 C1968 1.389 . S
C1969 C1970 1.387 . S
C1970 H1955 0.930 . S
C1970 C1965 1.390 . S
C1970 C1969 1.387 . S
H1971 C1983 0.930 . S
H1972 C1985 0.930 . S
H1973 C1986 0.930 . S
H1974 C1990 0.959 . S
H1975 C1990 0.959 . S
H1976 C1990 0.961 . S
H1977 C1991 0.960 . S
H1978 C1991 0.961 . S
H1979 C1991 0.959 . S
H1980 C1994 0.929 . S
H1981 C1995 0.931 . S
H1982 C1997 0.930 . S
C1983 H1971 0.930 . S
C1983 C1984 1.399 . S
C1983 C1988 1.399 . S
C1984 C1983 1.399 . S
C1984 C1985 1.376 . S
C1985 H1972 0.930 . S
C1985 C1984 1.376 . S
C1985 C1986 1.388 . S
C1986 H1973 0.930 . S
C1986 C1985 1.388 . S
C1986 C1987 1.390 . S
C1987 C1986 1.390 . S
C1987 C1988 1.394 . S
C1987 C1993 1.465 . S
C1988 C1983 1.399 . S
C1988 C1987 1.394 . S
C1988 C1989 1.516 . S
C1989 C1988 1.516 . S
C1989 C1990 1.502 . S
C1989 C1991 1.561 . S
C1989 C1992 1.526 . S
C1990 H1974 0.959 . S
C1990 H1975 0.959 . S
C1990 H1976 0.961 . S
C1990 C1989 1.502 . S
C1991 H1977 0.960 . S
C1991 H1978 0.961 . S
C1991 H1979 0.959 . S
C1991 C1989 1.561 . S
C1992 C1989 1.526 . S
C1992 C1993 1.396 . S
C1992 C1997 1.390 . S
C1993 C1987 1.465 . S
C1993 C1992 1.396 . S
C1993 C1994 1.399 . S
C1994 H1980 0.929 . S
C1994 C1993 1.399 . S
C1994 C1995 1.385 . S
C1995 H1981 0.931 . S
C1995 C1994 1.385 . S
C1995 C1996 1.389 . S
C1996 C1995 1.389 . S
C1996 C1997 1.387 . S
C1997 H1982 0.930 . S
C1997 C1992 1.390 . S
C1997 C1996 1.387 . S
H1998 C2010 0.930 . S
H1999 C2012 0.930 . S
H2000 C2013 0.930 . S
H2001 C2017 0.959 . S
H2002 C2017 0.959 . S
H2003 C2017 0.961 1_556 S
H2004 C2018 0.960 . S
H2005 C2018 0.961 . S
H2006 C2018 0.959 . S
H2007 C2021 0.929 . S
H2008 C2022 0.931 . S
H2009 C2024 0.930 . S
C2010 H1998 0.930 . S
C2010 C2011 1.399 . S
C2010 C2015 1.399 . S
C2011 C2010 1.399 . S
C2011 C2012 1.376 . S
C2012 H1999 0.930 . S
C2012 C2011 1.376 . S
C2012 C2013 1.388 . S
C2013 H2000 0.930 . S
C2013 C2012 1.388 . S
C2013 C2014 1.390 . S
C2014 C2013 1.390 . S
C2014 C2015 1.394 . S
C2014 C2020 1.465 . S
C2015 C2010 1.399 . S
C2015 C2014 1.394 . S
C2015 C2016 1.516 . S
C2016 C2015 1.516 . S
C2016 C2017 1.502 . S
C2016 C2018 1.561 . S
C2016 C2019 1.526 . S
C2017 H2001 0.959 . S
C2017 H2002 0.959 . S
C2017 H2003 0.961 1_554 S
C2017 C2016 1.502 . S
C2018 H2004 0.960 . S
C2018 H2005 0.961 . S
C2018 H2006 0.959 . S
C2018 C2016 1.561 . S
C2019 C2016 1.526 . S
C2019 C2020 1.396 . S
C2019 C2024 1.390 . S
C2020 C2014 1.465 . S
C2020 C2019 1.396 . S
C2020 C2021 1.399 . S
C2021 H2007 0.929 . S
C2021 C2020 1.399 . S
C2021 C2022 1.385 . S
C2022 H2008 0.931 . S
C2022 C2021 1.385 . S
C2022 C2023 1.389 . S
C2023 C2022 1.389 . S
C2023 C2024 1.387 . S
C2024 H2009 0.930 . S
C2024 C2019 1.390 . S
C2024 C2023 1.387 . S
H2025 C2037 0.930 . S
H2026 C2039 0.930 . S
H2027 C2040 0.930 . S
H2028 C2044 0.959 . S
H2029 C2044 0.959 . S
H2030 C2044 0.961 . S
H2031 C2045 0.960 . S
H2032 C2045 0.961 . S
H2033 C2045 0.959 . S
H2034 C2048 0.929 . S
H2035 C2049 0.931 . S
H2036 C2051 0.930 . S
C2037 H2025 0.930 . S
C2037 C2038 1.399 . S
C2037 C2042 1.399 . S
C2038 C2037 1.399 . S
C2038 C2039 1.376 . S
C2039 H2026 0.930 . S
C2039 C2038 1.376 . S
C2039 C2040 1.388 . S
C2040 H2027 0.930 . S
C2040 C2039 1.388 . S
C2040 C2041 1.390 . S
C2041 C2040 1.390 . S
C2041 C2042 1.394 . S
C2041 C2047 1.465 . S
C2042 C2037 1.399 . S
C2042 C2041 1.394 . S
C2042 C2043 1.516 . S
C2043 C2042 1.516 . S
C2043 C2044 1.502 . S
C2043 C2045 1.561 . S
C2043 C2046 1.526 . S
C2044 H2028 0.959 . S
C2044 H2029 0.959 . S
C2044 H2030 0.961 . S
C2044 C2043 1.502 . S
C2045 H2031 0.960 . S
C2045 H2032 0.961 . S
C2045 H2033 0.959 . S
C2045 C2043 1.561 . S
C2046 C2043 1.526 . S
C2046 C2047 1.396 . S
C2046 C2051 1.390 . S
C2047 C2041 1.465 . S
C2047 C2046 1.396 . S
C2047 C2048 1.399 . S
C2048 H2034 0.929 . S
C2048 C2047 1.399 . S
C2048 C2049 1.385 . S
C2049 H2035 0.931 . S
C2049 C2048 1.385 . S
C2049 C2050 1.389 . S
C2050 C2049 1.389 . S
C2050 C2051 1.387 . S
C2051 H2036 0.930 . S
C2051 C2046 1.390 . S
C2051 C2050 1.387 . S
H2052 C2064 0.930 . S
H2053 C2066 0.930 . S
H2054 C2067 0.930 . S
H2055 C2071 0.959 . S
H2056 C2071 0.959 . S
H2057 C2071 0.961 . S
H2058 C2072 0.960 . S
H2059 C2072 0.961 . S
H2060 C2072 0.959 . S
H2061 C2075 0.929 . S
H2062 C2076 0.931 . S
H2063 C2078 0.930 . S
C2064 H2052 0.930 . S
C2064 C2065 1.399 . S
C2064 C2069 1.399 . S
C2065 C2064 1.399 . S
C2065 C2066 1.376 . S
C2066 H2053 0.930 . S
C2066 C2065 1.376 . S
C2066 C2067 1.388 . S
C2067 H2054 0.930 . S
C2067 C2066 1.388 . S
C2067 C2068 1.390 . S
C2068 C2067 1.390 . S
C2068 C2069 1.394 . S
C2068 C2074 1.465 . S
C2069 C2064 1.399 . S
C2069 C2068 1.394 . S
C2069 C2070 1.516 . S
C2070 C2069 1.516 . S
C2070 C2071 1.502 . S
C2070 C2072 1.561 . S
C2070 C2073 1.526 . S
C2071 H2055 0.959 . S
C2071 H2056 0.959 . S
C2071 H2057 0.961 . S
C2071 C2070 1.502 . S
C2072 H2058 0.960 . S
C2072 H2059 0.961 . S
C2072 H2060 0.959 . S
C2072 C2070 1.561 . S
C2073 C2070 1.526 . S
C2073 C2074 1.396 . S
C2073 C2078 1.390 . S
C2074 C2068 1.465 . S
C2074 C2073 1.396 . S
C2074 C2075 1.399 . S
C2075 H2061 0.929 . S
C2075 C2074 1.399 . S
C2075 C2076 1.385 . S
C2076 H2062 0.931 . S
C2076 C2075 1.385 . S
C2076 C2077 1.389 . S
C2077 C2076 1.389 . S
C2077 C2078 1.387 . S
C2078 H2063 0.930 . S
C2078 C2073 1.390 . S
C2078 C2077 1.387 . S
H2079 C2091 0.930 . S
H2080 C2093 0.930 . S
H2081 C2094 0.930 . S
H2082 C2098 0.959 . S
H2083 C2098 0.959 . S
H2084 C2098 0.961 . S
H2085 C2099 0.960 . S
H2086 C2099 0.961 . S
H2087 C2099 0.959 . S
H2088 C2102 0.929 . S
H2089 C2103 0.931 . S
H2090 C2105 0.930 . S
C2091 H2079 0.930 . S
C2091 C2092 1.399 . S
C2091 C2096 1.399 . S
C2092 C2091 1.399 . S
C2092 C2093 1.376 . S
C2093 H2080 0.930 . S
C2093 C2092 1.376 . S
C2093 C2094 1.388 . S
C2094 H2081 0.930 . S
C2094 C2093 1.388 . S
C2094 C2095 1.390 . S
C2095 C2094 1.390 . S
C2095 C2096 1.394 . S
C2095 C2101 1.465 . S
C2096 C2091 1.399 . S
C2096 C2095 1.394 . S
C2096 C2097 1.516 . S
C2097 C2096 1.516 . S
C2097 C2098 1.502 . S
C2097 C2099 1.561 . S
C2097 C2100 1.526 . S
C2098 H2082 0.959 . S
C2098 H2083 0.959 . S
C2098 H2084 0.961 . S
C2098 C2097 1.502 . S
C2099 H2085 0.960 . S
C2099 H2086 0.961 . S
C2099 H2087 0.959 . S
C2099 C2097 1.561 . S
C2100 C2097 1.526 . S
C2100 C2101 1.396 . S
C2100 C2105 1.390 . S
C2101 C2095 1.465 . S
C2101 C2100 1.396 . S
C2101 C2102 1.399 . S
C2102 H2088 0.929 . S
C2102 C2101 1.399 . S
C2102 C2103 1.385 . S
C2103 H2089 0.931 . S
C2103 C2102 1.385 . S
C2103 C2104 1.389 . S
C2104 C2103 1.389 . S
C2104 C2105 1.387 . S
C2105 H2090 0.930 . S
C2105 C2100 1.390 . S
C2105 C2104 1.387 . S
H2106 C2118 0.930 . S
H2107 C2120 0.930 . S
H2108 C2121 0.930 . S
H2109 C2125 0.959 . S
H2110 C2125 0.959 . S
H2111 C2125 0.961 . S
H2112 C2126 0.960 . S
H2113 C2126 0.961 . S
H2114 C2126 0.959 . S
H2115 C2129 0.929 . S
H2116 C2130 0.931 . S
H2117 C2132 0.930 . S
C2118 H2106 0.930 . S
C2118 C2119 1.399 . S
C2118 C2123 1.399 . S
C2119 C2118 1.399 . S
C2119 C2120 1.376 . S
C2120 H2107 0.930 . S
C2120 C2119 1.376 . S
C2120 C2121 1.388 . S
C2121 H2108 0.930 . S
C2121 C2120 1.388 . S
C2121 C2122 1.390 . S
C2122 C2121 1.390 . S
C2122 C2123 1.394 . S
C2122 C2128 1.465 . S
C2123 C2118 1.399 . S
C2123 C2122 1.394 . S
C2123 C2124 1.516 . S
C2124 C2123 1.516 . S
C2124 C2125 1.502 . S
C2124 C2126 1.561 . S
C2124 C2127 1.526 . S
C2125 H2109 0.959 . S
C2125 H2110 0.959 . S
C2125 H2111 0.961 . S
C2125 C2124 1.502 . S
C2126 H2112 0.960 . S
C2126 H2113 0.961 . S
C2126 H2114 0.959 . S
C2126 C2124 1.561 . S
C2127 C2124 1.526 . S
C2127 C2128 1.396 . S
C2127 C2132 1.390 . S
C2128 C2122 1.465 . S
C2128 C2127 1.396 . S
C2128 C2129 1.399 . S
C2129 H2115 0.929 . S
C2129 C2128 1.399 . S
C2129 C2130 1.385 . S
C2130 H2116 0.931 . S
C2130 C2129 1.385 . S
C2130 C2131 1.389 . S
C2131 C2130 1.389 . S
C2131 C2132 1.387 . S
C2132 H2117 0.930 . S
C2132 C2127 1.390 . S
C2132 C2131 1.387 . S
H2133 C2145 0.930 . S
H2134 C2147 0.930 . S
H2135 C2148 0.930 . S
H2136 C2152 0.959 . S
H2137 C2152 0.959 . S
H2138 C2152 0.961 . S
H2139 C2153 0.960 . S
H2140 C2153 0.961 . S
H2141 C2153 0.959 . S
H2142 C2156 0.929 . S
H2143 C2157 0.931 . S
H2144 C2159 0.930 . S
C2145 H2133 0.930 . S
C2145 C2146 1.399 . S
C2145 C2150 1.399 . S
C2146 C2145 1.399 . S
C2146 C2147 1.376 . S
C2147 H2134 0.930 . S
C2147 C2146 1.376 . S
C2147 C2148 1.388 . S
C2148 H2135 0.930 . S
C2148 C2147 1.388 . S
C2148 C2149 1.390 . S
C2149 C2148 1.390 . S
C2149 C2150 1.394 . S
C2149 C2155 1.465 . S
C2150 C2145 1.399 . S
C2150 C2149 1.394 . S
C2150 C2151 1.516 . S
C2151 C2150 1.516 . S
C2151 C2152 1.502 . S
C2151 C2153 1.561 . S
C2151 C2154 1.526 . S
C2152 H2136 0.959 . S
C2152 H2137 0.959 . S
C2152 H2138 0.961 . S
C2152 C2151 1.502 . S
C2153 H2139 0.960 . S
C2153 H2140 0.961 . S
C2153 H2141 0.959 . S
C2153 C2151 1.561 . S
C2154 C2151 1.526 . S
C2154 C2155 1.396 . S
C2154 C2159 1.390 . S
C2155 C2149 1.465 . S
C2155 C2154 1.396 . S
C2155 C2156 1.399 . S
C2156 H2142 0.929 . S
C2156 C2155 1.399 . S
C2156 C2157 1.385 . S
C2157 H2143 0.931 . S
C2157 C2156 1.385 . S
C2157 C2158 1.389 . S
C2158 C2157 1.389 . S
C2158 C2159 1.387 . S
C2159 H2144 0.930 . S
C2159 C2154 1.390 . S
C2159 C2158 1.387 . S
C877 C506 1.408 . S
C889 C4 1.436 . S
C904 C40 1.291 . S
C916 C554 1.255 . S
C931 C650 1.405 . S
C943 C75 1.449 . S
C958 C111 1.311 . S
C970 C471 1.318 . S
C985 C518 1.396 . S
C997 C147 1.462 . S
C1012 C182 1.276 . S
C1024 C542 1.285 . S
C1039 C220 1.424 . S
C1051 C662 1.396 . S
C1066 C266 1.294 . S
C1078 C472 1.263 . S
C1093 C328 1.422 . S
C1105 C302 1.429 . S
C1120 C374 1.446 . S
C1132 C327 1.469 . S
C1147 C362 1.415 . S
C1159 C400 1.433 . S
C1174 C399 1.449 . S
C1186 C290 1.413 . S
C1201 C446 1.253 . S
C1213 C112 1.274 . S
C1228 C148 1.442 . S
C1240 C590 1.364 . S
C1255 C615 1.312 . S
C1267 C39 1.319 . S
C1282 C50 1.333 . S
C1294 C759 1.383 . S
C1309 C338 1.584 . S
C1321 C2 1.599 . S
C1336 C832 1.448 . S
C1348 C110 1.413 . S
C1363 C410 1.553 . S
C1375 C86 1.604 . S
C1390 C760 1.446 . S
C1402 C256 1.415 . S
C1417 C326 1.547 . S
C1429 C218 1.581 . S
C1444 C183 1.444 . S
C1456 C831 1.441 . S
C1471 C158 1.553 . S
C1483 C398 1.581 . S
C1498 C543 1.444 . S
C1510 C687 1.440 . S
C1525 C580 1.412 . S
C1537 C544 1.445 . S
C1552 C482 1.370 . S
C1564 C579 1.383 . S
C1579 C688 1.416 . S
C1591 C470 1.444 . S
C1606 C74 1.622 . S
C1618 C734 1.611 . S
C1633 C363 1.430 . S
C1645 C255 1.438 . S
C1660 C14 1.601 . S
C1672 C806 1.581 . S
C1687 C686 1.407 . S
C1699 C76 1.438 . S
C1714 C3 1.444 . S
C1726 C578 1.418 . S
C1741 C698 1.459 . S
C1753 C219 1.467 . S
C1768 C434 1.326 . S
C1780 C254 1.313 . S
C1795 C194 1.267 . S
C1807 C616 1.285 . S
C1822 C770 1.426 . S
C1834 C724 1.415 . S
C1849 C842 1.456 . S
C1861 C723 1.467 . S
C1876 C796 1.462 . S
C1888 C830 1.451 . S
C1903 C758 1.420 . S
C1915 C795 1.450 . S
C1930 C291 1.376 . S
C1942 C122 1.310 . S
C1957 C38 1.403 . S
C1969 C364 1.442 . S
C1984 C184 1.418 . S
C1996 C292 1.427 . S
C2011 C722 1.568 . S
C2023 C146 1.551 . S
C2038 C230 1.584 . S
C2050 C794 1.605 . S
C2065 C435 1.435 . S
C2077 C507 1.430 . S
C2092 C652 1.446 . S
C2104 C436 1.420 . S
C2119 C626 1.375 . S
C2131 C651 1.377 . S
C2146 C508 1.414 . S
C2158 C614 1.438 . S
