# Generated by pormake.
# Topology umu, (4)-cn, num edge types: 1
# Building blocks:
#     Node 0, Type 0, BuildingBlock: UXUYUI_clean_sbu_0, # of connection points: 4
#     Node 1, Type 0, BuildingBlock: UXUYUI_clean_sbu_0, # of connection points: 4
#     Node 2, Type 0, BuildingBlock: UXUYUI_clean_sbu_0, # of connection points: 4
#     Node 3, Type 0, BuildingBlock: UXUYUI_clean_sbu_0, # of connection points: 4
#     Node 4, Type 0, BuildingBlock: UXUYUI_clean_sbu_0, # of connection points: 4
#     Node 5, Type 0, BuildingBlock: UXUYUI_clean_sbu_0, # of connection points: 4
#     Node 6, Type 0, BuildingBlock: UXUYUI_clean_sbu_0, # of connection points: 4
#     Node 7, Type 0, BuildingBlock: UXUYUI_clean_sbu_0, # of connection points: 4
#     Node 8, Type 0, BuildingBlock: UXUYUI_clean_sbu_0, # of connection points: 4
#     Node 9, Type 0, BuildingBlock: UXUYUI_clean_sbu_0, # of connection points: 4
#     Node 10, Type 0, BuildingBlock: UXUYUI_clean_sbu_0, # of connection points: 4
#     Node 11, Type 0, BuildingBlock: UXUYUI_clean_sbu_0, # of connection points: 4
#     Node 12, Type 0, BuildingBlock: UXUYUI_clean_sbu_0, # of connection points: 4
#     Node 13, Type 0, BuildingBlock: UXUYUI_clean_sbu_0, # of connection points: 4
#     Node 14, Type 0, BuildingBlock: UXUYUI_clean_sbu_0, # of connection points: 4
#     Node 15, Type 0, BuildingBlock: UXUYUI_clean_sbu_0, # of connection points: 4
#     Node 16, Type 0, BuildingBlock: UXUYUI_clean_sbu_0, # of connection points: 4
#     Node 17, Type 0, BuildingBlock: UXUYUI_clean_sbu_0, # of connection points: 4
#     Node 18, Type 0, BuildingBlock: UXUYUI_clean_sbu_0, # of connection points: 4
#     Node 19, Type 0, BuildingBlock: UXUYUI_clean_sbu_0, # of connection points: 4
#     Node 20, Type 0, BuildingBlock: UXUYUI_clean_sbu_0, # of connection points: 4
#     Node 21, Type 0, BuildingBlock: UXUYUI_clean_sbu_0, # of connection points: 4
#     Node 22, Type 0, BuildingBlock: UXUYUI_clean_sbu_0, # of connection points: 4
#     Node 23, Type 0, BuildingBlock: UXUYUI_clean_sbu_0, # of connection points: 4
#     Node 24, Type 0, BuildingBlock: UXUYUI_clean_sbu_0, # of connection points: 4
#     Node 25, Type 0, BuildingBlock: UXUYUI_clean_sbu_0, # of connection points: 4
#     Node 26, Type 0, BuildingBlock: UXUYUI_clean_sbu_0, # of connection points: 4
#     Node 27, Type 0, BuildingBlock: UXUYUI_clean_sbu_0, # of connection points: 4
#     Node 28, Type 0, BuildingBlock: UXUYUI_clean_sbu_0, # of connection points: 4
#     Node 29, Type 0, BuildingBlock: UXUYUI_clean_sbu_0, # of connection points: 4
#     Node 30, Type 0, BuildingBlock: UXUYUI_clean_sbu_0, # of connection points: 4
#     Node 31, Type 0, BuildingBlock: UXUYUI_clean_sbu_0, # of connection points: 4
#     Edge 32, Type (0, 0), BuildingBlock: TEMPAE_clean_linker_10, # of connection points: 2
#     Edge 33, Type (0, 0), BuildingBlock: TEMPAE_clean_linker_10, # of connection points: 2
#     Edge 34, Type (0, 0), BuildingBlock: TEMPAE_clean_linker_10, # of connection points: 2
#     Edge 35, Type (0, 0), BuildingBlock: TEMPAE_clean_linker_10, # of connection points: 2
#     Edge 36, Type (0, 0), BuildingBlock: TEMPAE_clean_linker_10, # of connection points: 2
#     Edge 37, Type (0, 0), BuildingBlock: TEMPAE_clean_linker_10, # of connection points: 2
#     Edge 38, Type (0, 0), BuildingBlock: TEMPAE_clean_linker_10, # of connection points: 2
#     Edge 39, Type (0, 0), BuildingBlock: TEMPAE_clean_linker_10, # of connection points: 2
#     Edge 40, Type (0, 0), BuildingBlock: TEMPAE_clean_linker_10, # of connection points: 2
#     Edge 41, Type (0, 0), BuildingBlock: TEMPAE_clean_linker_10, # of connection points: 2
#     Edge 42, Type (0, 0), BuildingBlock: TEMPAE_clean_linker_10, # of connection points: 2
#     Edge 43, Type (0, 0), BuildingBlock: TEMPAE_clean_linker_10, # of connection points: 2
#     Edge 44, Type (0, 0), BuildingBlock: TEMPAE_clean_linker_10, # of connection points: 2
#     Edge 45, Type (0, 0), BuildingBlock: TEMPAE_clean_linker_10, # of connection points: 2
#     Edge 46, Type (0, 0), BuildingBlock: TEMPAE_clean_linker_10, # of connection points: 2
#     Edge 47, Type (0, 0), BuildingBlock: TEMPAE_clean_linker_10, # of connection points: 2
#     Edge 48, Type (0, 0), BuildingBlock: TEMPAE_clean_linker_10, # of connection points: 2
#     Edge 49, Type (0, 0), BuildingBlock: TEMPAE_clean_linker_10, # of connection points: 2
#     Edge 50, Type (0, 0), BuildingBlock: TEMPAE_clean_linker_10, # of connection points: 2
#     Edge 51, Type (0, 0), BuildingBlock: TEMPAE_clean_linker_10, # of connection points: 2
#     Edge 52, Type (0, 0), BuildingBlock: TEMPAE_clean_linker_10, # of connection points: 2
#     Edge 53, Type (0, 0), BuildingBlock: TEMPAE_clean_linker_10, # of connection points: 2
#     Edge 54, Type (0, 0), BuildingBlock: TEMPAE_clean_linker_10, # of connection points: 2
#     Edge 55, Type (0, 0), BuildingBlock: TEMPAE_clean_linker_10, # of connection points: 2
#     Edge 56, Type (0, 0), BuildingBlock: TEMPAE_clean_linker_10, # of connection points: 2
#     Edge 57, Type (0, 0), BuildingBlock: TEMPAE_clean_linker_10, # of connection points: 2
#     Edge 58, Type (0, 0), BuildingBlock: TEMPAE_clean_linker_10, # of connection points: 2
#     Edge 59, Type (0, 0), BuildingBlock: TEMPAE_clean_linker_10, # of connection points: 2
#     Edge 60, Type (0, 0), BuildingBlock: TEMPAE_clean_linker_10, # of connection points: 2
#     Edge 61, Type (0, 0), BuildingBlock: TEMPAE_clean_linker_10, # of connection points: 2
#     Edge 62, Type (0, 0), BuildingBlock: TEMPAE_clean_linker_10, # of connection points: 2
#     Edge 63, Type (0, 0), BuildingBlock: TEMPAE_clean_linker_10, # of connection points: 2
#     Edge 64, Type (0, 0), BuildingBlock: TEMPAE_clean_linker_10, # of connection points: 2
#     Edge 65, Type (0, 0), BuildingBlock: TEMPAE_clean_linker_10, # of connection points: 2
#     Edge 66, Type (0, 0), BuildingBlock: TEMPAE_clean_linker_10, # of connection points: 2
#     Edge 67, Type (0, 0), BuildingBlock: TEMPAE_clean_linker_10, # of connection points: 2
#     Edge 68, Type (0, 0), BuildingBlock: TEMPAE_clean_linker_10, # of connection points: 2
#     Edge 69, Type (0, 0), BuildingBlock: TEMPAE_clean_linker_10, # of connection points: 2
#     Edge 70, Type (0, 0), BuildingBlock: TEMPAE_clean_linker_10, # of connection points: 2
#     Edge 71, Type (0, 0), BuildingBlock: TEMPAE_clean_linker_10, # of connection points: 2
#     Edge 72, Type (0, 0), BuildingBlock: TEMPAE_clean_linker_10, # of connection points: 2
#     Edge 73, Type (0, 0), BuildingBlock: TEMPAE_clean_linker_10, # of connection points: 2
#     Edge 74, Type (0, 0), BuildingBlock: TEMPAE_clean_linker_10, # of connection points: 2
#     Edge 75, Type (0, 0), BuildingBlock: TEMPAE_clean_linker_10, # of connection points: 2
#     Edge 76, Type (0, 0), BuildingBlock: TEMPAE_clean_linker_10, # of connection points: 2
#     Edge 77, Type (0, 0), BuildingBlock: TEMPAE_clean_linker_10, # of connection points: 2
#     Edge 78, Type (0, 0), BuildingBlock: TEMPAE_clean_linker_10, # of connection points: 2
#     Edge 79, Type (0, 0), BuildingBlock: TEMPAE_clean_linker_10, # of connection points: 2
#     Edge 80, Type (0, 0), BuildingBlock: TEMPAE_clean_linker_10, # of connection points: 2
#     Edge 81, Type (0, 0), BuildingBlock: TEMPAE_clean_linker_10, # of connection points: 2
#     Edge 82, Type (0, 0), BuildingBlock: TEMPAE_clean_linker_10, # of connection points: 2
#     Edge 83, Type (0, 0), BuildingBlock: TEMPAE_clean_linker_10, # of connection points: 2
#     Edge 84, Type (0, 0), BuildingBlock: TEMPAE_clean_linker_10, # of connection points: 2
#     Edge 85, Type (0, 0), BuildingBlock: TEMPAE_clean_linker_10, # of connection points: 2
#     Edge 86, Type (0, 0), BuildingBlock: TEMPAE_clean_linker_10, # of connection points: 2
#     Edge 87, Type (0, 0), BuildingBlock: TEMPAE_clean_linker_10, # of connection points: 2
#     Edge 88, Type (0, 0), BuildingBlock: TEMPAE_clean_linker_10, # of connection points: 2
#     Edge 89, Type (0, 0), BuildingBlock: TEMPAE_clean_linker_10, # of connection points: 2
#     Edge 90, Type (0, 0), BuildingBlock: TEMPAE_clean_linker_10, # of connection points: 2
#     Edge 91, Type (0, 0), BuildingBlock: TEMPAE_clean_linker_10, # of connection points: 2
#     Edge 92, Type (0, 0), BuildingBlock: TEMPAE_clean_linker_10, # of connection points: 2
#     Edge 93, Type (0, 0), BuildingBlock: TEMPAE_clean_linker_10, # of connection points: 2
#     Edge 94, Type (0, 0), BuildingBlock: TEMPAE_clean_linker_10, # of connection points: 2
#     Edge 95, Type (0, 0), BuildingBlock: TEMPAE_clean_linker_10, # of connection points: 2
# Relax obj value: 0.234
# Max RMSD: 0.144
# Mean RMSD: 0.144
data_MOF--net-umu--node1-UXUYUI_clean_sbu_0--edge1-TEMPAE_clean_linker_10
_symmetry_space_group_name_H-M    P1
_symmetry_Int_Tables_number       1
_symmetry_cell_setting            triclinic
loop_
_symmetry_equiv_pos_as_xyz
'x, y, z'
_cell_length_a     127.33363
_cell_length_b     127.30662
_cell_length_c     35.323726
_cell_angle_alpha  89.994968
_cell_angle_beta   90.008042
_cell_angle_gamma 89.998423
loop_
_atom_site_label
_atom_site_type_symbol
_atom_site_fract_x
_atom_site_fract_y
_atom_site_fract_z
_atom_type_partial_charge
Li0 Li 0.20164 0.15969 0.0746 0.0
Li1 Li 0.18774 0.15552 0.03305 0.0
Li2 Li 0.20385 0.16159 0.00694 0.0
Li3 Li 0.19223 0.17353 0.04212 0.0
C4 C 0.21071 0.14288 0.03653 0.0
N5 N 0.22921 0.13153 0.03858 0.0
C6 C 0.21062 0.13207 0.02971 0.0
C7 C 0.22022 0.14792 0.04437 0.0
C8 C 0.22005 0.12647 0.03088 0.0
C9 C 0.22948 0.14205 0.04529 0.0
C10 C 0.18225 0.1577 0.10876 0.0
C11 C 0.17154 0.15612 0.16478 0.0
N12 N 0.17348 0.14561 0.16553 0.0
C13 C 0.18413 0.14688 0.11006 0.0
C14 C 0.1759 0.16236 0.1363 0.0
C15 C 0.17963 0.14091 0.139 0.0
C16 C 0.21248 0.16529 0.13949 0.0
N17 N 0.20887 0.15677 0.12038 0.0
C18 C 0.2174 0.14518 0.16381 0.0
C19 C 0.21099 0.14683 0.13225 0.0
C20 C 0.22154 0.15385 0.18338 0.0
C21 C 0.21885 0.16401 0.17125 0.0
H22 H 0.21064 0.17309 0.12935 0.0
H23 H 0.20795 0.14019 0.11665 0.0
C24 C 0.17927 0.13869 0.99519 0.0
N25 N 0.17669 0.14622 0.02074 0.0
C26 C 0.17152 0.13232 0.97957 0.0
C27 C 0.15858 0.14145 0.01744 0.0
C28 C 0.16663 0.14762 0.03258 0.0
C29 C 0.161 0.13378 0.99021 0.0
H30 H 0.18732 0.13794 0.98581 0.0
H31 H 0.1648 0.1538 0.05254 0.0
C32 C 0.21266 0.1805 0.03318 0.0
N33 N 0.2226 0.19814 0.00499 0.0
C34 C 0.20996 0.18444 0.99752 0.0
C35 C 0.22042 0.18554 0.05447 0.0
C36 C 0.21507 0.19336 0.98378 0.0
C37 C 0.22535 0.19444 0.03973 0.0
C38 C 0.17994 0.16664 0.97636 0.0
C39 C 0.17856 0.16224 0.94044 0.0
C40 C 0.17129 0.17084 0.99549 0.0
C41 C 0.16854 0.16209 0.92431 0.0
C42 C 0.16141 0.17057 0.97835 0.0
N43 N 0.16024 0.16622 0.94343 0.0
C44 C 0.20948 0.15501 0.93452 0.0
C45 C 0.22332 0.16362 0.96697 0.0
C46 C 0.21574 0.15383 0.90242 0.0
N47 N 0.21326 0.16004 0.96556 0.0
C48 C 0.22989 0.16253 0.9356 0.0
C49 C 0.22605 0.15771 0.90263 0.0
H50 H 0.20159 0.15191 0.9348 0.0
H51 H 0.22624 0.16736 0.99231 0.0
C52 C 0.18838 0.19233 0.08078 0.0
N53 N 0.18792 0.18772 0.04615 0.0
C54 C 0.18643 0.20307 0.08456 0.0
C55 C 0.18329 0.204 0.0171 0.0
C56 C 0.18536 0.19327 0.0146 0.0
C57 C 0.18399 0.20906 0.05234 0.0
H58 H 0.19056 0.18771 0.10525 0.0
H59 H 0.18527 0.18943 0.9873 0.0
O60 O 0.20148 0.14839 0.03544 0.0
O61 O 0.18654 0.16378 0.08081 0.0
O62 O 0.20771 0.17183 0.04754 0.0
O63 O 0.18961 0.16653 0.99334 0.0
H64 H 0.20332 0.12804 0.02363 0.0
H65 H 0.22048 0.15626 0.04992 0.0
H66 H 0.22009 0.11809 0.02568 0.0
H67 H 0.23689 0.14585 0.05138 0.0
H68 H 0.16661 0.15962 0.18629 0.0
H69 H 0.18898 0.14311 0.08901 0.0
H70 H 0.17436 0.17072 0.13566 0.0
H71 H 0.18102 0.13254 0.14035 0.0
H72 H 0.2192 0.13723 0.17253 0.0
H73 H 0.22196 0.17091 0.18529 0.0
H74 H 0.17368 0.12661 0.95823 0.0
H75 H 0.15056 0.14277 0.02644 0.0
H76 H 0.20401 0.18065 0.98053 0.0
H77 H 0.22261 0.18259 0.0821 0.0
H78 H 0.21306 0.19649 0.95625 0.0
H79 H 0.23137 0.19842 0.05591 0.0
H80 H 0.18512 0.15894 0.92515 0.0
H81 H 0.17215 0.17408 0.02362 0.0
H82 H 0.16736 0.15868 0.89659 0.0
H83 H 0.15464 0.17373 0.99295 0.0
H84 H 0.21257 0.14989 0.87776 0.0
H85 H 0.23781 0.16563 0.93682 0.0
H86 H 0.18699 0.20668 0.11225 0.0
H87 H 0.18162 0.20838 0.9915 0.0
Li88 Li 0.0931 0.93903 0.28055 0.0
Li89 Li 0.08934 0.95313 0.32251 0.0
Li90 Li 0.07495 0.94286 0.2885 0.0
Li91 Li 0.08747 0.95491 0.25317 0.0
C92 C 0.08972 0.9307 0.34946 0.0
N93 N 0.09969 0.91535 0.39132 0.0
C94 C 0.10001 0.93225 0.36197 0.0
C95 C 0.08445 0.9214 0.35845 0.0
C96 C 0.10493 0.92437 0.38303 0.0
C97 C 0.08964 0.91372 0.37961 0.0
C98 C 0.10632 0.96169 0.28508 0.0
C99 C 0.10733 0.9806 0.28778 0.0
N100 N 0.11798 0.97995 0.28982 0.0
C101 C 0.11727 0.96122 0.28711 0.0
C102 C 0.10131 0.97146 0.28534 0.0
C103 C 0.12303 0.97054 0.28953 0.0
C104 C 0.11143 0.93065 0.25126 0.0
N105 N 0.1025 0.92779 0.26963 0.0
C106 C 0.10626 0.90963 0.25935 0.0
C107 C 0.0999 0.91752 0.27446 0.0
C108 C 0.11531 0.91237 0.23883 0.0
C109 C 0.11797 0.92304 0.23555 0.0
H110 H 0.11315 0.93887 0.24689 0.0
H111 H 0.0926 0.91545 0.28813 0.0
C112 C 0.08344 0.96424 0.38673 0.0
N113 N 0.09201 0.96068 0.36776 0.0
C114 C 0.08463 0.9709 0.41776 0.0
C115 C 0.10347 0.96969 0.41036 0.0
C116 C 0.10191 0.96303 0.37944 0.0
C117 C 0.09475 0.97387 0.42952 0.0
H118 H 0.07567 0.96219 0.37687 0.0
H119 H 0.1086 0.95993 0.36429 0.0
C120 C 0.08465 0.93273 0.21629 0.0
N121 N 0.09 0.91618 0.16953 0.0
C122 C 0.09208 0.93414 0.18763 0.0
C123 C 0.07985 0.92294 0.22092 0.0
C124 C 0.09472 0.92566 0.16439 0.0
C125 C 0.08268 0.91466 0.19701 0.0
C126 C 0.06997 0.96636 0.29014 0.0
C127 C 0.06064 0.96475 0.27006 0.0
C128 C 0.07179 0.97608 0.30735 0.0
C129 C 0.05335 0.97291 0.26723 0.0
C130 C 0.06431 0.98405 0.30388 0.0
N131 N 0.05532 0.98231 0.28406 0.0
C132 C 0.0559 0.93851 0.32564 0.0
C133 C 0.05575 0.93576 0.25921 0.0
C134 C 0.04516 0.93633 0.32776 0.0
N135 N 0.06088 0.93832 0.29164 0.0
C136 C 0.04502 0.93357 0.26 0.0
C137 C 0.03956 0.93404 0.29449 0.0
H138 H 0.0602 0.94069 0.35086 0.0
H139 H 0.0599 0.93582 0.23253 0.0
C140 C 0.09842 0.96435 0.19331 0.0
N141 N 0.08889 0.96399 0.21068 0.0
C142 C 0.09989 0.97057 0.16123 0.0
C143 C 0.08171 0.97589 0.16533 0.0
C144 C 0.08059 0.96955 0.19725 0.0
C145 C 0.09146 0.97644 0.14685 0.0
H146 H 0.10486 0.9597 0.20418 0.0
H147 H 0.07304 0.96894 0.21077 0.0
O148 O 0.08479 0.93828 0.32865 0.0
O149 O 0.10061 0.95259 0.28318 0.0
O150 O 0.08218 0.94086 0.23998 0.0
O151 O 0.07711 0.95837 0.29388 0.0
H152 H 0.10418 0.93942 0.35516 0.0
H153 H 0.07646 0.92012 0.34899 0.0
H154 H 0.11292 0.92543 0.39274 0.0
H155 H 0.08569 0.90646 0.38667 0.0
H156 H 0.10355 0.9882 0.28799 0.0
H157 H 0.12127 0.95372 0.28707 0.0
H158 H 0.09288 0.97198 0.28343 0.0
H159 H 0.1315 0.97028 0.29123 0.0
H160 H 0.10395 0.9015 0.26275 0.0
H161 H 0.12474 0.92555 0.21937 0.0
H162 H 0.07768 0.97401 0.43147 0.0
H163 H 0.1114 0.97164 0.41891 0.0
H164 H 0.09589 0.94166 0.18373 0.0
H165 H 0.07415 0.92169 0.24319 0.0
H166 H 0.10053 0.92661 0.14233 0.0
H167 H 0.0791 0.90702 0.20048 0.0
H168 H 0.05912 0.95735 0.25619 0.0
H169 H 0.0789 0.97749 0.32334 0.0
H170 H 0.04614 0.97177 0.25157 0.0
H171 H 0.06564 0.99161 0.31702 0.0
H172 H 0.04121 0.93689 0.35484 0.0
H173 H 0.041 0.93176 0.23379 0.0
H174 H 0.10755 0.97079 0.14788 0.0
H175 H 0.07495 0.98013 0.1547 0.0
Li176 Li 0.31295 0.84167 0.5317 0.0
Li177 Li 0.29862 0.83837 0.57282 0.0
Li178 Li 0.30918 0.82362 0.54125 0.0
Li179 Li 0.29733 0.8358 0.50329 0.0
C180 C 0.32147 0.83893 0.59836 0.0
N181 N 0.33787 0.84942 0.63275 0.0
C182 C 0.32004 0.84916 0.61173 0.0
C183 C 0.33118 0.83398 0.60276 0.0
C184 C 0.32845 0.85435 0.62893 0.0
C185 C 0.33939 0.83943 0.62017 0.0
C186 C 0.28999 0.8547 0.53229 0.0
C187 C 0.27104 0.855 0.53279 0.0
N188 N 0.27125 0.86568 0.53373 0.0
C189 C 0.29001 0.86568 0.53322 0.0
C190 C 0.28042 0.84932 0.53206 0.0
C191 C 0.28046 0.87108 0.53396 0.0
C192 C 0.32217 0.86099 0.51246 0.0
N193 N 0.32451 0.85089 0.52166 0.0
C194 C 0.34236 0.85332 0.50267 0.0
C195 C 0.33446 0.84709 0.5184 0.0
C196 C 0.34 0.8636 0.49129 0.0
C197 C 0.32988 0.86756 0.49746 0.0
H198 H 0.31419 0.86377 0.51482 0.0
H199 H 0.3361 0.83901 0.52568 0.0
C200 C 0.28782 0.83264 0.63767 0.0
N201 N 0.29071 0.84119 0.61722 0.0
C202 C 0.28093 0.83368 0.6681 0.0
C203 C 0.28057 0.85243 0.65727 0.0
C204 C 0.2875 0.85102 0.62699 0.0
C205 C 0.27702 0.84365 0.67771 0.0
H206 H 0.29061 0.82494 0.6295 0.0
H207 H 0.29007 0.85773 0.61075 0.0
C208 C 0.31878 0.83334 0.46554 0.0
N209 N 0.33364 0.83946 0.41293 0.0
C210 C 0.31683 0.84188 0.44168 0.0
C211 C 0.32825 0.82786 0.46243 0.0
C212 C 0.32446 0.84488 0.41537 0.0
C213 C 0.33567 0.83108 0.43567 0.0
C214 C 0.28575 0.81861 0.54333 0.0
C215 C 0.28735 0.80898 0.52521 0.0
C216 C 0.2761 0.82063 0.56079 0.0
C217 C 0.27927 0.80157 0.52462 0.0
C218 C 0.26821 0.81301 0.55959 0.0
N219 N 0.26994 0.80372 0.54168 0.0
C220 C 0.3121 0.80476 0.58115 0.0
C221 C 0.31657 0.80396 0.51606 0.0
C222 C 0.31382 0.79397 0.58508 0.0
N223 N 0.31337 0.80946 0.54693 0.0
C224 C 0.31843 0.79319 0.51874 0.0
C225 C 0.31685 0.78801 0.55341 0.0
H226 H 0.30936 0.80933 0.60502 0.0
H227 H 0.31724 0.80785 0.48899 0.0
C228 C 0.28699 0.84573 0.44207 0.0
N229 N 0.28834 0.83639 0.46009 0.0
C230 C 0.28059 0.8464 0.41011 0.0
C231 C 0.27714 0.8278 0.41555 0.0
C232 C 0.28366 0.82749 0.44725 0.0
C233 C 0.27553 0.83735 0.39648 0.0
H234 H 0.29097 0.85267 0.45233 0.0
H235 H 0.28504 0.82012 0.46135 0.0
O236 O 0.31337 0.83379 0.5811 0.0
O237 O 0.29933 0.84933 0.53204 0.0
O238 O 0.31149 0.83045 0.49206 0.0
O239 O 0.29369 0.82588 0.54494 0.0
H240 H 0.31254 0.85308 0.60849 0.0
H241 H 0.33238 0.82605 0.59258 0.0
H242 H 0.32748 0.86229 0.63921 0.0
H243 H 0.34698 0.83573 0.62363 0.0
H244 H 0.26359 0.85092 0.53254 0.0
H245 H 0.29732 0.87 0.53369 0.0
H246 H 0.28022 0.84088 0.53094 0.0
H247 H 0.28037 0.87958 0.53479 0.0
H248 H 0.3501 0.85004 0.49816 0.0
H249 H 0.3278 0.87544 0.48861 0.0
H250 H 0.27859 0.82673 0.68364 0.0
H251 H 0.27776 0.86026 0.66374 0.0
H252 H 0.3096 0.84628 0.44395 0.0
H253 H 0.32998 0.82133 0.48102 0.0
H254 H 0.3231 0.85154 0.39699 0.0
H255 H 0.34307 0.82696 0.43318 0.0
H256 H 0.29469 0.8073 0.51115 0.0
H257 H 0.27468 0.82798 0.57521 0.0
H258 H 0.2804 0.79411 0.51051 0.0
H259 H 0.26071 0.81449 0.57296 0.0
H260 H 0.31235 0.79029 0.6122 0.0
H261 H 0.32086 0.78893 0.49369 0.0
H262 H 0.27974 0.8539 0.39591 0.0
H263 H 0.27334 0.82064 0.40626 0.0
Li264 Li 0.40681 0.06129 0.78138 0.0
Li265 Li 0.40971 0.04713 0.82598 0.0
Li266 Li 0.42469 0.0561 0.79561 0.0
Li267 Li 0.41337 0.04414 0.75883 0.0
C268 C 0.40794 0.06722 0.85746 0.0
N269 N 0.39532 0.0773 0.90969 0.0
C270 C 0.39737 0.06446 0.86093 0.0
C271 C 0.41211 0.0751 0.88056 0.0
C272 C 0.39111 0.06965 0.8875 0.0
C273 C 0.4056 0.0801 0.9068 0.0
C274 C 0.39079 0.04182 0.78342 0.0
C275 C 0.3817 0.02522 0.78006 0.0
N276 N 0.37241 0.03029 0.78527 0.0
C277 C 0.38114 0.04688 0.78834 0.0
C278 C 0.39108 0.03092 0.7789 0.0
C279 C 0.37194 0.0409 0.78936 0.0
C280 C 0.39392 0.07034 0.72953 0.0
N281 N 0.39819 0.07236 0.76398 0.0
C282 C 0.39091 0.08966 0.76399 0.0
C283 C 0.39684 0.08178 0.78149 0.0
C284 C 0.38658 0.08782 0.72801 0.0
C285 C 0.38809 0.078 0.71088 0.0
H286 H 0.39524 0.0628 0.71625 0.0
H287 H 0.40052 0.08327 0.80852 0.0
C288 C 0.41391 0.03848 0.89599 0.0
N289 N 0.40586 0.04003 0.87139 0.0
C290 C 0.41253 0.03217 0.92787 0.0
C291 C 0.39447 0.02941 0.90919 0.0
C292 C 0.39617 0.03588 0.87783 0.0
C293 C 0.40277 0.02734 0.93427 0.0
H294 H 0.42153 0.04184 0.88998 0.0
H295 H 0.38984 0.03732 0.85827 0.0
C296 C 0.42167 0.06759 0.72906 0.0
N297 N 0.42786 0.08636 0.69676 0.0
C298 C 0.42273 0.06841 0.68981 0.0
C299 C 0.42374 0.07632 0.75192 0.0
C300 C 0.42587 0.07797 0.67401 0.0
C301 C 0.42687 0.08573 0.73504 0.0
C302 C 0.4262 0.03106 0.80656 0.0
C303 C 0.43692 0.02914 0.80147 0.0
C304 C 0.41949 0.02278 0.81588 0.0
C305 C 0.44071 0.01889 0.80529 0.0
C306 C 0.42359 0.01265 0.81952 0.0
N307 N 0.43403 0.01093 0.81414 0.0
C308 C 0.44281 0.06415 0.83295 0.0
C309 C 0.44512 0.05825 0.76982 0.0
C310 C 0.45354 0.06634 0.83605 0.0
N311 N 0.43889 0.06011 0.80027 0.0
C312 C 0.45585 0.06034 0.77161 0.0
C313 C 0.46022 0.06434 0.80516 0.0
H314 H 0.43764 0.06549 0.85676 0.0
H315 H 0.44177 0.05491 0.74439 0.0
C316 C 0.40424 0.03475 0.69542 0.0
N317 N 0.41294 0.03461 0.71774 0.0
C318 C 0.40359 0.02821 0.66382 0.0
C319 C 0.42091 0.02156 0.67857 0.0
C320 C 0.42123 0.02826 0.70983 0.0
C321 C 0.41201 0.02152 0.65503 0.0
H322 H 0.39784 0.04003 0.70204 0.0
H323 H 0.42817 0.02852 0.72733 0.0
O324 O 0.41424 0.06232 0.83156 0.0
O325 O 0.39985 0.04757 0.78238 0.0
O326 O 0.4184 0.05834 0.74482 0.0
O327 O 0.42239 0.04106 0.80297 0.0
H328 H 0.39401 0.0584 0.84334 0.0
H329 H 0.42029 0.07733 0.87816 0.0
H330 H 0.38291 0.06759 0.89047 0.0
H331 H 0.40872 0.08622 0.92484 0.0
H332 H 0.38182 0.01678 0.77672 0.0
H333 H 0.38077 0.05533 0.79141 0.0
H334 H 0.39844 0.02689 0.7743 0.0
H335 H 0.36442 0.04471 0.79334 0.0
H336 H 0.38995 0.09718 0.77791 0.0
H337 H 0.38477 0.07626 0.68333 0.0
H338 H 0.41915 0.03068 0.94635 0.0
H339 H 0.38681 0.02591 0.91344 0.0
H340 H 0.42109 0.06174 0.67176 0.0
H341 H 0.42289 0.07585 0.78234 0.0
H342 H 0.42672 0.07872 0.64366 0.0
H343 H 0.42848 0.09255 0.75236 0.0
H344 H 0.44223 0.03548 0.79446 0.0
H345 H 0.41122 0.02414 0.82058 0.0
H346 H 0.44898 0.01728 0.80124 0.0
H347 H 0.41848 0.00616 0.82672 0.0
H348 H 0.45659 0.06948 0.86234 0.0
H349 H 0.46072 0.05849 0.74738 0.0
H350 H 0.39657 0.02838 0.64651 0.0
H351 H 0.42765 0.01667 0.67235 0.0
Li352 Li 0.20527 0.83703 0.06429 0.0
Li353 Li 0.19354 0.82501 0.03117 0.0
Li354 Li 0.20306 0.83956 0.99709 0.0
Li355 Li 0.18861 0.84343 0.03942 0.0
C356 C 0.21836 0.8235 0.03494 0.0
N357 N 0.23771 0.81662 0.06017 0.0
C358 C 0.21929 0.81372 0.05258 0.0
C359 C 0.22728 0.82973 0.02976 0.0
C360 C 0.22914 0.81039 0.06523 0.0
C361 C 0.23698 0.82613 0.04282 0.0
C362 C 0.18168 0.8297 0.09516 0.0
C363 C 0.1635 0.82464 0.08948 0.0
N364 N 0.16267 0.82453 0.12787 0.0
C365 C 0.18065 0.82955 0.13453 0.0
C366 C 0.17304 0.82724 0.0724 0.0
C367 C 0.17097 0.82691 0.15054 0.0
C368 C 0.22032 0.84646 0.11276 0.0
N369 N 0.21457 0.83768 0.10596 0.0
C370 C 0.22172 0.82925 0.16052 0.0
C371 C 0.21506 0.82919 0.12918 0.0
C372 C 0.22781 0.8382 0.1683 0.0
C373 C 0.22704 0.84689 0.14392 0.0
H374 H 0.2196 0.85318 0.09427 0.0
H375 H 0.21028 0.82236 0.12324 0.0
C376 C 0.1867 0.8063 0.9956 0.0
N377 N 0.18926 0.81083 0.02917 0.0
C378 C 0.18459 0.79554 0.99385 0.0
C379 C 0.18753 0.79446 0.06141 0.0
C380 C 0.1896 0.80521 0.06181 0.0
C381 C 0.18519 0.78945 0.02699 0.0
H382 H 0.18662 0.81099 0.97005 0.0
H383 H 0.19178 0.80903 0.08801 0.0
C384 C 0.20585 0.85968 0.0231 0.0
N385 N 0.21262 0.87861 0.99358 0.0
C386 C 0.19856 0.86738 0.01274 0.0
C387 C 0.21659 0.86165 0.01877 0.0
C388 C 0.20215 0.87689 0.99778 0.0
C389 C 0.21985 0.87126 0.00369 0.0
C390 C 0.18103 0.83882 0.96663 0.0
C391 C 0.18262 0.84872 0.95059 0.0
C392 C 0.17217 0.83296 0.95666 0.0
C393 C 0.17527 0.85264 0.92484 0.0
C394 C 0.165 0.83715 0.9308 0.0
N395 N 0.16669 0.84682 0.91556 0.0
C396 C 0.21587 0.83368 0.93812 0.0
C397 C 0.21148 0.85172 0.93363 0.0
C398 C 0.22269 0.83455 0.90746 0.0
N399 N 0.21064 0.84224 0.95126 0.0
C400 C 0.21826 0.85295 0.90278 0.0
C401 C 0.22415 0.84433 0.88991 0.0
H402 H 0.21492 0.82618 0.952 0.0
H403 H 0.20711 0.8584 0.94387 0.0
C404 C 0.17943 0.85661 0.08889 0.0
N405 N 0.1774 0.85226 0.05455 0.0
C406 C 0.17177 0.86245 0.10745 0.0
C407 C 0.16013 0.85961 0.05432 0.0
C408 C 0.168 0.85364 0.03693 0.0
C409 C 0.16196 0.86392 0.09032 0.0
H410 H 0.18695 0.85526 0.1023 0.0
H411 H 0.16647 0.84993 0.01004 0.0
O412 O 0.20876 0.827 0.02314 0.0
O413 O 0.19105 0.8325 0.07915 0.0
O414 O 0.2025 0.85038 0.03822 0.0
O415 O 0.18809 0.83485 0.99202 0.0
H416 H 0.21246 0.80879 0.05675 0.0
H417 H 0.22668 0.8373 0.01602 0.0
H418 H 0.22997 0.80287 0.07915 0.0
H419 H 0.24394 0.8309 0.03921 0.0
H420 H 0.15675 0.82273 0.07221 0.0
H421 H 0.18726 0.8315 0.1525 0.0
H422 H 0.17368 0.82739 0.04189 0.0
H423 H 0.17006 0.82677 0.18098 0.0
H424 H 0.22214 0.82233 0.17829 0.0
H425 H 0.23144 0.85402 0.14923 0.0
H426 H 0.18294 0.79197 0.96668 0.0
H427 H 0.18795 0.79008 0.08766 0.0
H428 H 0.19023 0.86603 0.01608 0.0
H429 H 0.22234 0.85579 0.02661 0.0
H430 H 0.19659 0.8829 0.9895 0.0
H431 H 0.22813 0.87286 -3e-05 0.0
H432 H 0.18939 0.85335 0.95818 0.0
H433 H 0.17084 0.82528 0.96886 0.0
H434 H 0.17638 0.86031 0.9123 0.0
H435 H 0.1581 0.83272 0.92286 0.0
H436 H 0.22686 0.82763 0.89783 0.0
H437 H 0.21912 0.86063 0.88997 0.0
H438 H 0.17349 0.86575 0.13503 0.0
H439 H 0.15261 0.86057 0.04043 0.0
Li440 Li 0.42563 0.94141 0.28144 0.0
Li441 Li 0.41358 0.95389 0.31588 0.0
Li442 Li 0.40698 0.93792 0.28823 0.0
Li443 Li 0.41157 0.95228 0.24839 0.0
C444 C 0.41488 0.93236 0.35543 0.0
N445 N 0.40803 0.91776 0.40776 0.0
C446 C 0.40741 0.93517 0.38258 0.0
C447 C 0.41895 0.92216 0.35509 0.0
C448 C 0.40403 0.92767 0.40875 0.0
C449 C 0.41537 0.91489 0.38175 0.0
C450 C 0.4295 0.96537 0.29184 0.0
C451 C 0.43027 0.98371 0.30871 0.0
N452 N 0.43979 0.98209 0.32518 0.0
C453 C 0.43932 0.9639 0.3087 0.0
C454 C 0.42496 0.97536 0.29158 0.0
C455 C 0.44439 0.97245 0.32547 0.0
C456 C 0.44481 0.93701 0.24566 0.0
N457 N 0.43954 0.93631 0.27897 0.0
C458 C 0.45495 0.93031 0.31078 0.0
C459 C 0.44431 0.93294 0.31114 0.0
C460 C 0.46074 0.93128 0.27706 0.0
C461 C 0.45548 0.93451 0.24403 0.0
H462 H 0.44081 0.93987 0.22069 0.0
H463 H 0.43994 0.93263 0.33736 0.0
C464 C 0.40429 0.96874 0.36536 0.0
N465 N 0.41301 0.96289 0.35859 0.0
C466 C 0.40382 0.97527 0.39705 0.0
C467 C 0.42127 0.96949 0.41441 0.0
C468 C 0.42136 0.96303 0.38254 0.0
C469 C 0.41241 0.97572 0.42197 0.0
H470 H 0.39767 0.96829 0.34637 0.0
H471 H 0.42808 0.95808 0.37691 0.0
C472 C 0.41217 0.92846 0.22291 0.0
N473 N 0.40524 0.91057 0.18651 0.0
C474 C 0.40203 0.92808 0.2078 0.0
C475 C 0.41882 0.9198 0.21922 0.0
C476 C 0.39866 0.91894 0.18962 0.0
C477 C 0.41516 0.91081 0.20076 0.0
C478 C 0.3924 0.95716 0.27013 0.0
C479 C 0.38396 0.95162 0.25461 0.0
C480 C 0.39268 0.96811 0.26716 0.0
C481 C 0.37594 0.95712 0.2363 0.0
C482 C 0.38452 0.97333 0.24852 0.0
N483 N 0.37639 0.96777 0.23362 0.0
C484 C 0.38849 0.9297 0.31844 0.0
C485 C 0.40013 0.91649 0.29664 0.0
C486 C 0.38197 0.92215 0.33468 0.0
N487 N 0.39741 0.92678 0.3001 0.0
C488 C 0.39386 0.90867 0.31271 0.0
C489 C 0.38474 0.9115 0.33261 0.0
H490 H 0.38675 0.93793 0.3224 0.0
H491 H 0.40749 0.91436 0.28356 0.0
C492 C 0.41656 0.96758 0.19475 0.0
N493 N 0.40919 0.96022 0.20314 0.0
C494 C 0.41527 0.97419 0.16363 0.0
C495 C 0.39888 0.96545 0.14969 0.0
C496 C 0.40059 0.95886 0.18077 0.0
C497 C 0.40627 0.97326 0.14102 0.0
H498 H 0.42343 0.9684 0.21242 0.0
H499 H 0.39497 0.95277 0.18726 0.0
O500 O 0.41803 0.93949 0.32882 0.0
O501 O 0.42432 0.95705 0.2759 0.0
O502 O 0.41564 0.93733 0.24074 0.0
O503 O 0.40034 0.95191 0.28819 0.0
H504 H 0.40415 0.94302 0.38308 0.0
H505 H 0.42466 0.91983 0.334 0.0
H506 H 0.39819 0.9297 0.42973 0.0
H507 H 0.41836 0.90694 0.3816 0.0
H508 H 0.42682 0.99147 0.30892 0.0
H509 H 0.44297 0.95623 0.30914 0.0
H510 H 0.4174 0.97665 0.27849 0.0
H511 H 0.45197 0.97141 0.33881 0.0
H512 H 0.45866 0.92776 0.3368 0.0
H513 H 0.45965 0.93554 0.21757 0.0
H514 H 0.39686 0.97997 0.40186 0.0
H515 H 0.42797 0.96948 0.43329 0.0
H516 H 0.39681 0.93473 0.21043 0.0
H517 H 0.42671 0.92 0.23067 0.0
H518 H 0.39081 0.91851 0.178 0.0
H519 H 0.4202 0.90402 0.19781 0.0
H520 H 0.38364 0.94314 0.25619 0.0
H521 H 0.39916 0.97253 0.27883 0.0
H522 H 0.36938 0.95293 0.22404 0.0
H523 H 0.38467 0.98179 0.24585 0.0
H524 H 0.37513 0.92468 0.3505 0.0
H525 H 0.39628 0.90054 0.31064 0.0
H526 H 0.42114 0.98014 0.15782 0.0
H527 H 0.39191 0.96442 0.13253 0.0
Li528 Li 0.29401 0.1624 0.56512 0.0
Li529 Li 0.30618 0.1749 0.52983 0.0
Li530 Li 0.29656 0.15998 0.49649 0.0
Li531 Li 0.31058 0.15676 0.54011 0.0
C532 C 0.28154 0.17769 0.52358 0.0
N533 N 0.26276 0.18858 0.5242 0.0
C534 C 0.28126 0.18817 0.53531 0.0
C535 C 0.27228 0.17279 0.51168 0.0
C536 C 0.27169 0.19353 0.53557 0.0
C537 C 0.26287 0.17842 0.51232 0.0
C538 C 0.3161 0.16618 0.60348 0.0
C539 C 0.33405 0.16903 0.62259 0.0
N540 N 0.33276 0.16201 0.65123 0.0
C541 C 0.31491 0.15906 0.63329 0.0
C542 C 0.32571 0.17126 0.59816 0.0
C543 C 0.32345 0.15703 0.65705 0.0
C544 C 0.2843 0.1521 0.62582 0.0
N545 N 0.28459 0.16134 0.60654 0.0
C546 C 0.27218 0.16897 0.64904 0.0
C547 C 0.27876 0.16973 0.6176 0.0
C548 C 0.27174 0.15955 0.66971 0.0
C549 C 0.27789 0.15102 0.65762 0.0
H550 H 0.2892 0.14562 0.6168 0.0
H551 H 0.27932 0.17706 0.60246 0.0
C552 C 0.31155 0.19374 0.4922 0.0
N553 N 0.31022 0.1891 0.5265 0.0
C554 C 0.31342 0.20454 0.48988 0.0
C555 C 0.31273 0.20545 0.55825 0.0
C556 C 0.3109 0.19466 0.55923 0.0
C557 C 0.31383 0.21056 0.52321 0.0
H558 H 0.31084 0.1891 0.46666 0.0
H559 H 0.30972 0.19074 0.58606 0.0
C560 C 0.28989 0.14148 0.5325 0.0
N561 N 0.27534 0.12566 0.52173 0.0
C562 C 0.29322 0.13131 0.52358 0.0
C563 C 0.27917 0.14357 0.53625 0.0
C564 C 0.28574 0.12342 0.51815 0.0
C565 C 0.27194 0.13548 0.53062 0.0
C566 C 0.3189 0.15972 0.47052 0.0
C567 C 0.31735 0.14931 0.45939 0.0
C568 C 0.32815 0.16493 0.46042 0.0
C569 C 0.32514 0.14422 0.43845 0.0
C570 C 0.33575 0.15957 0.43943 0.0
N571 N 0.3341 0.14942 0.42899 0.0
C572 C 0.28555 0.16549 0.4319 0.0
C573 C 0.28727 0.14704 0.43837 0.0
C574 C 0.27907 0.16424 0.40041 0.0
N575 N 0.28928 0.15696 0.45071 0.0
C576 C 0.28077 0.14542 0.40702 0.0
C577 C 0.27644 0.15409 0.38803 0.0
H578 H 0.28734 0.17329 0.44217 0.0
H579 H 0.29053 0.14038 0.45312 0.0
C580 C 0.31908 0.13902 0.5733 0.0
N581 N 0.32188 0.14769 0.55331 0.0
C582 C 0.32673 0.13256 0.58918 0.0
C583 C 0.34008 0.14393 0.5629 0.0
C584 C 0.33214 0.15021 0.5476 0.0
C585 C 0.3374 0.13504 0.58448 0.0
H586 H 0.31087 0.13739 0.57846 0.0
H587 H 0.33416 0.15732 0.53261 0.0
O588 O 0.29087 0.17236 0.52301 0.0
O589 O 0.30795 0.16802 0.57918 0.0
O590 O 0.29714 0.14927 0.5376 0.0
O591 O 0.31143 0.16479 0.49139 0.0
H592 H 0.28835 0.19211 0.54439 0.0
H593 H 0.27236 0.16477 0.50167 0.0
H594 H 0.27135 0.20162 0.54479 0.0
H595 H 0.25564 0.17471 0.50325 0.0
H596 H 0.34157 0.17284 0.61866 0.0
H597 H 0.30753 0.15504 0.63767 0.0
H598 H 0.32677 0.17675 0.57506 0.0
H599 H 0.32268 0.15146 0.68002 0.0
H600 H 0.2675 0.17572 0.65708 0.0
H601 H 0.27795 0.14367 0.67305 0.0
H602 H 0.31411 0.2082 0.46231 0.0
H603 H 0.3131 0.20979 0.58459 0.0
H604 H 0.30149 0.12956 0.52047 0.0
H605 H 0.27647 0.15134 0.54365 0.0
H606 H 0.2882 0.11553 0.51103 0.0
H607 H 0.26361 0.137 0.53339 0.0
H608 H 0.31025 0.14517 0.4672 0.0
H609 H 0.32944 0.173 0.46891 0.0
H610 H 0.32407 0.13615 0.42977 0.0
H611 H 0.34296 0.16348 0.43149 0.0
H612 H 0.27584 0.17115 0.38681 0.0
H613 H 0.27908 0.13747 0.39795 0.0
H614 H 0.32428 0.12594 0.6063 0.0
H615 H 0.3482 0.1461 0.55846 0.0
Li616 Li 0.07384 0.05524 0.78154 0.0
Li617 Li 0.08621 0.04397 0.81124 0.0
Li618 Li 0.09163 0.06097 0.79148 0.0
Li619 Li 0.08775 0.0472 0.74481 0.0
C620 C 0.07766 0.06657 0.84704 0.0
N621 N 0.07104 0.08497 0.88099 0.0
C622 C 0.07661 0.06711 0.88636 0.0
C623 C 0.07536 0.0754 0.82496 0.0
C624 C 0.07325 0.07648 0.90299 0.0
C625 C 0.07202 0.08462 0.84267 0.0
C626 C 0.06786 0.03441 0.78526 0.0
C627 C 0.05448 0.02118 0.77712 0.0
N628 N 0.05109 0.02299 0.81304 0.0
C629 C 0.06424 0.03612 0.82211 0.0
C630 C 0.06295 0.02687 0.76257 0.0
C631 C 0.05575 0.03027 0.83563 0.0
C632 C 0.05497 0.06018 0.74472 0.0
N633 N 0.05945 0.05912 0.77941 0.0
C634 C 0.04298 0.06219 0.80978 0.0
C635 C 0.05372 0.06012 0.81167 0.0
C636 C 0.03805 0.06308 0.77433 0.0
C637 C 0.04422 0.06217 0.74148 0.0
H638 H 0.05971 0.0592 0.71956 0.0
H639 H 0.05741 0.05908 0.83894 0.0
C640 C 0.09185 0.03785 0.88393 0.0
N641 N 0.0884 0.03401 0.8503 0.0
C642 C 0.09352 0.0311 0.9144 0.0
C643 C 0.08821 0.01653 0.87479 0.0
C644 C 0.08665 0.02357 0.84503 0.0
C645 C 0.09161 0.0203 0.91013 0.0
H646 H 0.09322 0.04618 0.88709 0.0
H647 H 0.08404 0.02074 0.81776 0.0
C648 C 0.08845 0.06762 0.71648 0.0
N649 N 0.09928 0.07841 0.66097 0.0
C650 C 0.09922 0.06596 0.71157 0.0
C651 C 0.08319 0.07475 0.69315 0.0
C652 C 0.10455 0.0715 0.68335 0.0
C653 C 0.0888 0.08014 0.66526 0.0
C654 C 0.1057 0.03969 0.79354 0.0
C655 C 0.11362 0.04157 0.82009 0.0
C656 C 0.10432 0.02957 0.779 0.0
C657 C 0.11999 0.03325 0.83186 0.0
C658 C 0.11086 0.02147 0.79146 0.0
N659 N 0.11849 0.02346 0.81744 0.0
C660 C 0.10436 0.07025 0.84275 0.0
C661 C 0.10118 0.08178 0.79125 0.0
C662 C 0.10998 0.07798 0.86175 0.0
N663 N 0.10011 0.07225 0.80825 0.0
C664 C 0.10685 0.08977 0.80924 0.0
C665 C 0.11122 0.08791 0.84518 0.0
H666 H 0.1031 0.06269 0.85596 0.0
H667 H 0.09742 0.08329 0.76438 0.0
C668 C 0.08254 0.03764 0.67698 0.0
N669 N 0.09089 0.04095 0.69766 0.0
C670 C 0.08408 0.03164 0.64444 0.0
C671 C 0.10284 0.0329 0.65439 0.0
C672 C 0.10092 0.0389 0.68676 0.0
C673 C 0.09434 0.02901 0.6332 0.0
H674 H 0.07465 0.03933 0.68665 0.0
H675 H 0.10741 0.0416 0.70395 0.0
O676 O 0.08112 0.05747 0.83061 0.0
O677 O 0.07613 0.04004 0.77115 0.0
O678 O 0.08298 0.06229 0.74373 0.0
O679 O 0.09921 0.04766 0.7823 0.0
H680 H 0.0784 0.06036 0.90384 0.0
H681 H 0.07615 0.07517 0.79451 0.0
H682 H 0.0724 0.07701 0.93341 0.0
H683 H 0.07021 0.0915 0.82594 0.0
H684 H 0.05061 0.01533 0.75986 0.0
H685 H 0.06793 0.0419 0.84018 0.0
H686 H 0.06566 0.02545 0.73398 0.0
H687 H 0.05287 0.03153 0.86408 0.0
H688 H 0.03858 0.06297 0.83585 0.0
H689 H 0.04073 0.06264 0.71357 0.0
H690 H 0.09603 0.03434 0.94127 0.0
H691 H 0.08676 0.00825 0.87024 0.0
H692 H 0.10346 0.06053 0.7294 0.0
H693 H 0.07485 0.07611 0.6966 0.0
H694 H 0.11289 0.07031 0.67927 0.0
H695 H 0.08483 0.08569 0.64702 0.0
H696 H 0.11483 0.04935 0.83152 0.0
H697 H 0.09813 0.02794 0.75886 0.0
H698 H 0.12613 0.03458 0.85248 0.0
H699 H 0.10983 0.01359 0.78064 0.0
H700 H 0.11332 0.0762 0.88923 0.0
H701 H 0.10756 0.09737 0.79576 0.0
H702 H 0.0773 0.0287 0.62927 0.0
H703 H 0.11086 0.03112 0.64648 0.0
Li704 Li 0.81072 0.84342 0.04445 0.0
Li705 Li 0.79374 0.8367 0.06824 0.0
Li706 Li 0.80615 0.82564 0.02774 0.0
Li707 Li 0.79609 0.83998 -0.00039 0.0
C708 C 0.81596 0.83285 0.10571 0.0
N709 N 0.83194 0.83663 0.15691 0.0
C710 C 0.81418 0.83926 0.13719 0.0
C711 C 0.82581 0.82823 0.1006 0.0
C712 C 0.82237 0.84111 0.16266 0.0
C713 C 0.8338 0.83026 0.12672 0.0
C714 C 0.79079 0.85903 0.04296 0.0
C715 C 0.7742 0.86794 0.05042 0.0
N716 N 0.77896 0.87723 0.04232 0.0
C717 C 0.79552 0.86867 0.0347 0.0
C718 C 0.78004 0.85866 0.0509 0.0
C719 C 0.78941 0.87779 0.03454 0.0
C720 C 0.83183 0.85089 0.05175 0.0
N721 N 0.82158 0.85263 0.06045 0.0
C722 C 0.82626 0.86646 0.10283 0.0
C723 C 0.81868 0.86028 0.08512 0.0
C724 C 0.83692 0.86461 0.09545 0.0
C725 C 0.8397 0.8568 0.06922 0.0
H726 H 0.83393 0.84467 0.03243 0.0
H727 H 0.8105 0.86126 0.09242 0.0
C728 C 0.77776 0.82861 0.11527 0.0
N729 N 0.78431 0.83687 0.1094 0.0
C730 C 0.77092 0.82863 0.14615 0.0
C731 C 0.77772 0.84565 0.16413 0.0
C732 C 0.7844 0.84531 0.1329 0.0
C733 C 0.77088 0.83722 0.17116 0.0
H734 H 0.77788 0.822 0.09601 0.0
H735 H 0.78973 0.85176 0.12745 0.0
C736 C 0.81819 0.83223 0.96887 0.0
N737 N 0.83193 0.82239 0.91978 0.0
C738 C 0.81609 0.83203 0.93004 0.0
C739 C 0.82734 0.82754 0.98266 0.0
C740 C 0.82312 0.82699 0.9057 0.0
C741 C 0.83417 0.82256 0.95743 0.0
C742 C 0.78189 0.82352 0.00724 0.0
C743 C 0.78243 0.81449 0.98481 0.0
C744 C 0.77234 0.82881 0.01105 0.0
C745 C 0.77342 0.81101 0.966 0.0
C746 C 0.76351 0.82509 0.9918 0.0
N747 N 0.76423 0.81635 0.96982 0.0
C748 C 0.81241 0.80593 0.05353 0.0
C749 C 0.81144 0.80693 0.98663 0.0
C750 C 0.81475 0.79525 0.05174 0.0
N751 N 0.81075 0.81152 0.02131 0.0
C752 C 0.81381 0.79625 0.98349 0.0
C753 C 0.81534 0.79022 0.01639 0.0
H754 H 0.81155 0.80971 0.08077 0.0
H755 H 0.80982 0.81146 0.96144 0.0
C756 C 0.78392 0.85351 0.9506 0.0
N757 N 0.78843 0.8439 0.95494 0.0
C758 C 0.77724 0.8555 0.92006 0.0
C759 C 0.78042 0.83786 0.89769 0.0
C760 C 0.78703 0.83623 0.92863 0.0
C761 C 0.77524 0.84753 0.89354 0.0
H762 H 0.78528 0.85963 0.97102 0.0
H763 H 0.79083 0.82871 0.93229 0.0
O764 O 0.80815 0.83128 0.07966 0.0
O765 O 0.79668 0.85004 0.04335 0.0
O766 O 0.81139 0.83714 0.99309 0.0
O767 O 0.79067 0.82712 0.02545 0.0
H768 H 0.80663 0.84291 0.14159 0.0
H769 H 0.82731 0.82317 0.07664 0.0
H770 H 0.82114 0.84615 0.18691 0.0
H771 H 0.84148 0.8268 0.12295 0.0
H772 H 0.76587 0.86775 0.05652 0.0
H773 H 0.80382 0.8691 0.02822 0.0
H774 H 0.77625 0.8513 0.05747 0.0
H775 H 0.79296 0.8853 0.02815 0.0
H776 H 0.82382 0.87229 0.12336 0.0
H777 H 0.84786 0.85519 0.06278 0.0
H778 H 0.76568 0.82202 0.15028 0.0
H779 H 0.77805 0.85237 0.18293 0.0
H780 H 0.80915 0.83578 0.91875 0.0
H781 H 0.82908 0.82758 0.01257 0.0
H782 H 0.82158 0.82676 0.87559 0.0
H783 H 0.84124 0.81882 0.96778 0.0
H784 H 0.78972 0.81025 0.98171 0.0
H785 H 0.77175 0.83574 0.02854 0.0
H786 H 0.77375 0.80408 0.94834 0.0
H787 H 0.75607 0.82914 0.99434 0.0
H788 H 0.81563 0.79089 0.07787 0.0
H789 H 0.81423 0.79271 0.95566 0.0
H790 H 0.77358 0.86314 0.91751 0.0
H791 H 0.77907 0.83146 0.87807 0.0
Li792 Li 0.90637 0.06011 0.79863 0.0
Li793 Li 0.91316 0.04334 0.81911 0.0
Li794 Li 0.92379 0.05604 0.78057 0.0
Li795 Li 0.90943 0.04645 0.75156 0.0
C796 C 0.91656 0.06454 0.86117 0.0
N797 N 0.91181 0.07904 0.91683 0.0
C798 C 0.91074 0.06153 0.89291 0.0
C799 C 0.92011 0.0749 0.85807 0.0
C800 C 0.90839 0.06898 0.92067 0.0
C801 C 0.91758 0.08212 0.88641 0.0
C802 C 0.8892 0.04633 0.78486 0.0
C803 C 0.87154 0.0396 0.78885 0.0
N804 N 0.86836 0.04694 0.7633 0.0
C805 C 0.88578 0.05381 0.75863 0.0
C806 C 0.88204 0.03918 0.80015 0.0
C807 C 0.8752 0.05399 0.74812 0.0
C808 C 0.89862 0.08105 0.80615 0.0
N809 N 0.89723 0.07084 0.81627 0.0
C810 C 0.88389 0.0756 0.86049 0.0
C811 C 0.88995 0.068 0.84247 0.0
C812 C 0.88539 0.08624 0.85163 0.0
C813 C 0.89277 0.08894 0.82374 0.0
H814 H 0.9045 0.08309 0.78539 0.0
H815 H 0.88917 0.05984 0.85052 0.0
C816 C 0.92198 0.02732 0.86467 0.0
N817 N 0.91329 0.03323 0.85804 0.0
C818 C 0.92202 0.02 0.89411 0.0
C819 C 0.9042 0.02508 0.90925 0.0
C820 C 0.90447 0.0322 0.87931 0.0
C821 C 0.91307 0.01886 0.91706 0.0
H822 H 0.92887 0.02832 0.84713 0.0
H823 H 0.89771 0.03709 0.87342 0.0
C824 C 0.91768 0.06843 0.72386 0.0
N825 N 0.92867 0.08187 0.67684 0.0
C826 C 0.918 0.0666 0.68487 0.0
C827 C 0.92277 0.07723 0.7388 0.0
C828 C 0.92364 0.07345 0.66159 0.0
C829 C 0.92834 0.08389 0.71462 0.0
C830 C 0.92378 0.03062 0.76261 0.0
C831 C 0.93282 0.02797 0.74234 0.0
C832 C 0.91606 0.02303 0.76917 0.0
C833 C 0.934 0.01771 0.72895 0.0
C834 C 0.91753 0.01286 0.7553 0.0
N835 N 0.92639 0.01043 0.73564 0.0
C836 C 0.94345 0.06379 0.80314 0.0
C837 C 0.94237 0.05931 0.73812 0.0
C838 C 0.95413 0.06602 0.79955 0.0
N839 N 0.93785 0.06045 0.77273 0.0
C840 C 0.95302 0.06155 0.73314 0.0
C841 C 0.9591 0.06478 0.7643 0.0
H842 H 0.93972 0.06434 0.83054 0.0
H843 H 0.93776 0.05643 0.71459 0.0
C844 C 0.89669 0.03352 0.70234 0.0
N845 N 0.90583 0.03893 0.70655 0.0
C846 C 0.89526 0.02687 0.6713 0.0
C847 C 0.91265 0.03149 0.64954 0.0
C848 C 0.9137 0.03811 0.68073 0.0
C849 C 0.90339 0.02564 0.64486 0.0
H850 H 0.89067 0.03395 0.72368 0.0
H851 H 0.921 0.04228 0.68528 0.0
O852 O 0.91863 0.05743 0.83305 0.0
O853 O 0.8995 0.04598 0.79577 0.0
O854 O 0.91223 0.06177 0.74709 0.0
O855 O 0.92234 0.04071 0.77479 0.0
H856 H 0.90794 0.05356 0.89585 0.0
H857 H 0.9247 0.07737 0.83394 0.0
H858 H 0.9038 0.06677 0.94519 0.0
H859 H 0.92019 0.09018 0.88418 0.0
H860 H 0.86592 0.03409 0.80036 0.0
H861 H 0.89121 0.0594 0.74649 0.0
H862 H 0.88459 0.03333 0.82039 0.0
H863 H 0.87243 0.05973 0.72787 0.0
H864 H 0.87838 0.07321 0.8822 0.0
H865 H 0.89408 0.09706 0.81596 0.0
H866 H 0.92898 0.01528 0.89875 0.0
H867 H 0.8972 0.02462 0.92655 0.0
H868 H 0.91386 0.06001 0.67261 0.0
H869 H 0.92256 0.07882 0.7688 0.0
H870 H 0.92399 0.07209 0.63139 0.0
H871 H 0.93241 0.09066 0.72591 0.0
H872 H 0.93881 0.0338 0.73679 0.0
H873 H 0.90895 0.02501 0.78436 0.0
H874 H 0.94094 0.01554 0.71314 0.0
H875 H 0.91161 0.00691 0.76002 0.0
H876 H 0.95852 0.06824 0.82456 0.0
H877 H 0.95648 0.06057 0.70538 0.0
H878 H 0.88807 0.02237 0.66895 0.0
H879 H 0.91909 0.03079 0.62967 0.0
Li880 Li 0.68878 0.15548 0.54065 0.0
Li881 Li 0.70514 0.16265 0.56497 0.0
Li882 Li 0.69247 0.17376 0.53125 0.0
Li883 Li 0.70298 0.16066 0.49767 0.0
C884 C 0.68401 0.16341 0.60744 0.0
N885 N 0.67023 0.15599 0.66162 0.0
C886 C 0.68766 0.15705 0.63691 0.0
C887 C 0.67337 0.16605 0.60568 0.0
C888 C 0.68057 0.15337 0.66402 0.0
C889 C 0.66652 0.1622 0.63329 0.0
C890 C 0.70758 0.14125 0.51831 0.0
C891 C 0.72275 0.13284 0.49083 0.0
N892 N 0.71652 0.12491 0.47815 0.0
C893 C 0.70133 0.13302 0.50499 0.0
C894 C 0.71839 0.14117 0.51125 0.0
C895 C 0.706 0.12482 0.48478 0.0
C896 C 0.66797 0.14723 0.54419 0.0
N897 N 0.67819 0.14563 0.55359 0.0
C898 C 0.67353 0.13148 0.59456 0.0
C899 C 0.6811 0.13781 0.57755 0.0
C900 C 0.66286 0.13329 0.58699 0.0
C901 C 0.66011 0.14113 0.56082 0.0
H902 H 0.66588 0.15359 0.52537 0.0
H903 H 0.68929 0.13687 0.58503 0.0
C904 C 0.71386 0.17003 0.63276 0.0
N905 N 0.71459 0.1623 0.60637 0.0
C906 C 0.72051 0.17002 0.66414 0.0
C907 C 0.72847 0.15405 0.64066 0.0
C908 C 0.72166 0.15437 0.60975 0.0
C909 C 0.72793 0.16193 0.66843 0.0
H910 H 0.70804 0.17615 0.62952 0.0
H911 H 0.72196 0.14825 0.58862 0.0
C912 C 0.68179 0.16946 0.46914 0.0
N913 N 0.67025 0.18254 0.42262 0.0
C914 C 0.68554 0.17207 0.43318 0.0
C915 C 0.67213 0.17343 0.48135 0.0
C916 C 0.67959 0.17871 0.41009 0.0
C917 C 0.66643 0.18006 0.45745 0.0
C918 C 0.71607 0.17848 0.54074 0.0
C919 C 0.71435 0.18801 0.55937 0.0
C920 C 0.72617 0.17419 0.53979 0.0
C921 C 0.72278 0.19307 0.57695 0.0
C922 C 0.73439 0.17947 0.55778 0.0
N923 N 0.73253 0.18873 0.57583 0.0
C924 C 0.68222 0.19208 0.5581 0.0
C925 C 0.68981 0.19344 0.49699 0.0
C926 C 0.67954 0.20271 0.55754 0.0
N927 N 0.68731 0.18771 0.52817 0.0
C928 C 0.68717 0.20406 0.49503 0.0
C929 C 0.68213 0.20885 0.52585 0.0
H930 H 0.68059 0.18741 0.58295 0.0
H931 H 0.69417 0.18984 0.47416 0.0
C932 C 0.70832 0.14988 0.42852 0.0
N933 N 0.71043 0.15815 0.45172 0.0
C934 C 0.71448 0.14813 0.39632 0.0
C935 C 0.7244 0.16376 0.4115 0.0
C936 C 0.71816 0.16513 0.44345 0.0
C937 C 0.72267 0.15512 0.38766 0.0
H938 H 0.70195 0.14459 0.43522 0.0
H939 H 0.71954 0.17176 0.46183 0.0
O940 O 0.69077 0.1668 0.57993 0.0
O941 O 0.70315 0.14937 0.53803 0.0
O942 O 0.68755 0.16305 0.49228 0.0
O943 O 0.70788 0.17326 0.52415 0.0
H944 H 0.69585 0.15483 0.63853 0.0
H945 H 0.67039 0.17086 0.58282 0.0
H946 H 0.68327 0.14839 0.68683 0.0
H947 H 0.65824 0.16409 0.63205 0.0
H948 H 0.73109 0.13271 0.48494 0.0
H949 H 0.69295 0.133 0.50986 0.0
H950 H 0.72333 0.14754 0.52087 0.0
H951 H 0.70125 0.11842 0.47422 0.0
H952 H 0.67597 0.12561 0.61493 0.0
H953 H 0.65196 0.1427 0.55407 0.0
H954 H 0.71971 0.17615 0.68517 0.0
H955 H 0.73413 0.14772 0.64271 0.0
H956 H 0.693 0.16906 0.42326 0.0
H957 H 0.66916 0.17158 0.50925 0.0
H958 H 0.68242 0.18083 0.38224 0.0
H959 H 0.65898 0.18326 0.46665 0.0
H960 H 0.70658 0.19143 0.56062 0.0
H961 H 0.72762 0.16678 0.52572 0.0
H962 H 0.72155 0.20043 0.59161 0.0
H963 H 0.74223 0.17621 0.55748 0.0
H964 H 0.67568 0.20615 0.58189 0.0
H965 H 0.68949 0.20858 0.47043 0.0
H966 H 0.71283 0.14145 0.37833 0.0
H967 H 0.73068 0.1693 0.40596 0.0
Li968 Li 0.58583 0.95481 0.31336 0.0
Li969 Li 0.59322 0.9385 0.28953 0.0
Li970 Li 0.5883 0.95274 0.24617 0.0
Li971 Li 0.57498 0.94215 0.27838 0.0
C972 C 0.6075 0.95743 0.26858 0.0
N973 N 0.62401 0.96656 0.22993 0.0
C974 C 0.61582 0.95125 0.25556 0.0
C975 C 0.60758 0.96826 0.26193 0.0
C976 C 0.62411 0.95602 0.23614 0.0
C977 C 0.61599 0.97272 0.24229 0.0
C978 C 0.58482 0.93364 0.35541 0.0
C979 C 0.58573 0.91616 0.38157 0.0
N980 N 0.59194 0.91981 0.41 0.0
C981 C 0.59117 0.93723 0.38498 0.0
C982 C 0.58203 0.92303 0.35375 0.0
C983 C 0.5947 0.93012 0.41229 0.0
C984 C 0.57802 0.96332 0.38087 0.0
N985 N 0.58588 0.96418 0.35505 0.0
C986 C 0.59391 0.97794 0.39063 0.0
C987 C 0.59377 0.97126 0.35933 0.0
C988 C 0.58591 0.97722 0.41788 0.0
C989 C 0.57787 0.96981 0.41267 0.0
H990 H 0.57191 0.95753 0.37684 0.0
H991 H 0.60002 0.97163 0.33876 0.0
C992 C 0.60147 0.91768 0.295 0.0
N993 N 0.60306 0.92797 0.30343 0.0
C994 C 0.60767 0.90995 0.31204 0.0
C995 C 0.61736 0.92363 0.34425 0.0
C996 C 0.61092 0.93106 0.32696 0.0
C997 C 0.6156 0.91291 0.33755 0.0
H998 H 0.59508 0.91544 0.27659 0.0
H999 H 0.61183 0.9393 0.33377 0.0
C1000 C 0.57019 0.96576 0.28782 0.0
N1001 N 0.55971 0.98221 0.32208 0.0
C1002 C 0.56054 0.96403 0.30561 0.0
C1003 C 0.57449 0.97587 0.28729 0.0
C1004 C 0.55536 0.97245 0.32277 0.0
C1005 C 0.56907 0.98408 0.30485 0.0
C1006 C 0.57981 0.93148 0.21673 0.0
C1007 C 0.57751 0.93516 0.18039 0.0
C1008 C 0.57577 0.92182 0.22873 0.0
C1009 C 0.5711 0.92914 0.1567 0.0
C1010 C 0.56938 0.91605 0.20422 0.0
N1011 N 0.5672 0.9198 0.16902 0.0
C1012 C 0.59951 0.95823 0.17796 0.0
C1013 C 0.58409 0.96794 0.19171 0.0
C1014 C 0.60141 0.96443 0.14597 0.0
N1015 N 0.59108 0.96025 0.20049 0.0
C1016 C 0.58561 0.97422 0.15994 0.0
C1017 C 0.59441 0.97258 0.1368 0.0
H1018 H 0.6048 0.95189 0.18502 0.0
H1019 H 0.57733 0.96925 0.20952 0.0
C1020 C 0.55629 0.93204 0.303 0.0
N1021 N 0.56102 0.93707 0.27368 0.0
C1022 C 0.5456 0.9296 0.30122 0.0
C1023 C 0.54498 0.9373 0.2387 0.0
C1024 C 0.55563 0.93969 0.24187 0.0
C1025 C 0.53975 0.9324 0.26898 0.0
H1026 H 0.56069 0.93034 0.32843 0.0
H1027 H 0.55953 0.94393 0.21941 0.0
O1028 O 0.59929 0.9529 0.28755 0.0
O1029 O 0.58159 0.94041 0.32769 0.0
O1030 O 0.57552 0.95758 0.27163 0.0
O1031 O 0.586 0.93729 0.24043 0.0
H1032 H 0.61585 0.94285 0.26004 0.0
H1033 H 0.60114 0.97314 0.27128 0.0
H1034 H 0.63059 0.95133 0.22583 0.0
H1035 H 0.61612 0.98108 0.23673 0.0
H1036 H 0.58372 0.90791 0.38044 0.0
H1037 H 0.59351 0.94539 0.3865 0.0
H1038 H 0.57722 0.92009 0.33082 0.0
H1039 H 0.59968 0.93277 0.43517 0.0
H1040 H 0.60033 0.98344 0.39393 0.0
H1041 H 0.57152 0.96907 0.43289 0.0
H1042 H 0.60612 0.90175 0.30607 0.0
H1043 H 0.6233 0.92622 0.36412 0.0
H1044 H 0.55713 0.95626 0.30652 0.0
H1045 H 0.58198 0.97733 0.27387 0.0
H1046 H 0.54791 0.97122 0.33677 0.0
H1047 H 0.57234 0.99192 0.30486 0.0
H1048 H 0.58058 0.9426 0.17064 0.0
H1049 H 0.57739 0.91892 0.2569 0.0
H1050 H 0.56922 0.9319 0.12855 0.0
H1051 H 0.56613 0.90861 0.21323 0.0
H1052 H 0.60822 0.96285 0.12852 0.0
H1053 H 0.58006 0.98045 0.15398 0.0
H1054 H 0.54187 0.926 0.32552 0.0
H1055 H 0.54083 0.93951 0.21315 0.0
Li1056 Li 0.80529 0.17482 0.04404 0.0
Li1057 Li 0.79694 0.1592 0.07448 0.0
Li1058 Li 0.81227 0.15683 0.0338 0.0
Li1059 Li 0.79574 0.16139 0.00805 0.0
C1060 C 0.81968 0.16088 0.101 0.0
N1061 N 0.8369 0.15175 0.1353 0.0
C1062 C 0.81841 0.15201 0.12386 0.0
C1063 C 0.8297 0.1651 0.09553 0.0
C1064 C 0.82722 0.14752 0.14099 0.0
C1065 C 0.83831 0.16037 0.11312 0.0
C1066 C 0.78234 0.17414 0.06966 0.0
C1067 C 0.76484 0.17187 0.09442 0.0
N1068 N 0.76653 0.17991 0.11904 0.0
C1069 C 0.78389 0.18242 0.09502 0.0
C1070 C 0.77271 0.16887 0.06911 0.0
C1071 C 0.7758 0.18521 0.11979 0.0
C1072 C 0.80197 0.1958 0.0269 0.0
N1073 N 0.80817 0.18933 0.04773 0.0
C1074 C 0.81768 0.20398 0.07252 0.0
C1075 C 0.8159 0.19315 0.0704 0.0
C1076 C 0.81139 0.21087 0.05119 0.0
C1077 C 0.80347 0.20664 0.02806 0.0
H1078 H 0.79579 0.19251 0.00955 0.0
H1079 H 0.82061 0.18782 0.08709 0.0
C1080 C 0.78357 0.14631 0.11925 0.0
N1081 N 0.78963 0.1551 0.11908 0.0
C1082 C 0.77686 0.14429 0.1496 0.0
C1083 C 0.78326 0.16004 0.1801 0.0
C1084 C 0.78986 0.16174 0.14918 0.0
C1085 C 0.77644 0.15135 0.1801 0.0
H1086 H 0.78371 0.14103 0.09538 0.0
H1087 H 0.79481 0.16863 0.14833 0.0
C1088 C 0.80978 0.1682 0.95795 0.0
N1089 N 0.80952 0.16864 0.87973 0.0
C1090 C 0.81367 0.15968 0.93724 0.0
C1091 C 0.8058 0.17695 0.93886 0.0
C1092 C 0.81348 0.16006 0.89772 0.0
C1093 C 0.80571 0.17701 0.89931 0.0
C1094 C 0.79416 0.14077 0.01559 0.0
C1095 C 0.79975 0.1335 0.99378 0.0
C1096 C 0.78319 0.14036 0.01629 0.0
C1097 C 0.79425 0.12595 0.97299 0.0
C1098 C 0.77799 0.1327 0.99506 0.0
N1099 N 0.78357 0.12572 0.97403 0.0
C1100 C 0.82573 0.13913 0.03514 0.0
C1101 C 0.83263 0.15436 0.00558 0.0
C1102 C 0.83418 0.13315 0.02215 0.0
N1103 N 0.82493 0.14941 0.02531 0.0
C1104 C 0.84121 0.1487 0.99204 0.0
C1105 C 0.84184 0.13786 0.99904 0.0
H1106 H 0.8195 0.13544 0.05115 0.0
H1107 H 0.8318 0.16259 0.99857 0.0
C1108 C 0.77871 0.16733 0.96234 0.0
N1109 N 0.78674 0.16033 0.96472 0.0
C1110 C 0.77216 0.16743 0.93068 0.0
C1111 C 0.78223 0.15309 0.90443 0.0
C1112 C 0.78861 0.1533 0.9365 0.0
C1113 C 0.77391 0.16026 0.90111 0.0
H1114 H 0.77751 0.17298 0.98474 0.0
H1115 H 0.79514 0.14793 0.93852 0.0
O1116 O 0.81119 0.1652 0.08311 0.0
O1117 O 0.79025 0.17111 0.04581 0.0
O1118 O 0.80978 0.16792 0.99668 0.0
O1119 O 0.79941 0.14818 0.03637 0.0
H1120 H 0.81073 0.14858 0.12805 0.0
H1121 H 0.83083 0.17186 0.07739 0.0
H1122 H 0.82637 0.14063 0.1587 0.0
H1123 H 0.84611 0.16352 0.10899 0.0
H1124 H 0.75737 0.16781 0.09451 0.0
H1125 H 0.79131 0.18655 0.09603 0.0
H1126 H 0.77135 0.16249 0.04951 0.0
H1127 H 0.77692 0.19156 0.13976 0.0
H1128 H 0.82377 0.20692 0.09111 0.0
H1129 H 0.79852 0.21164 0.01083 0.0
H1130 H 0.77188 0.13739 0.14884 0.0
H1131 H 0.78314 0.16573 0.20287 0.0
H1132 H 0.81659 0.15275 0.95144 0.0
H1133 H 0.80274 0.18359 0.95439 0.0
H1134 H 0.8164 0.1535 0.88136 0.0
H1135 H 0.8026 0.18371 0.88418 0.0
H1136 H 0.80822 0.13374 0.99246 0.0
H1137 H 0.77873 0.14597 0.03264 0.0
H1138 H 0.79847 0.12031 0.95589 0.0
H1139 H 0.7695 0.13234 0.9952 0.0
H1140 H 0.83435 0.1248 0.02809 0.0
H1141 H 0.84704 0.15266 0.9749 0.0
H1142 H 0.76595 0.17323 0.92902 0.0
H1143 H 0.78381 0.14737 0.88249 0.0
Li1144 Li 0.59075 0.04674 0.82332 0.0
Li1145 Li 0.57509 0.05542 0.79367 0.0
Li1146 Li 0.58824 0.04532 0.75621 0.0
Li1147 Li 0.59293 0.06186 0.78228 0.0
C1148 C 0.57523 0.03233 0.81859 0.0
N1149 N 0.56869 0.01646 0.86649 0.0
C1150 C 0.56724 0.03418 0.84487 0.0
C1151 C 0.57978 0.02236 0.81628 0.0
C1152 C 0.56406 0.02607 0.86892 0.0
C1153 C 0.57641 0.01445 0.84087 0.0
C1154 C 0.58826 0.07038 0.84674 0.0
C1155 C 0.58639 0.08911 0.85394 0.0
N1156 N 0.59543 0.08934 0.87445 0.0
C1157 C 0.59751 0.07078 0.86793 0.0
C1158 C 0.58262 0.07959 0.8397 0.0
C1159 C 0.60102 0.08045 0.88169 0.0
C1160 C 0.60377 0.0335 0.86853 0.0
N1161 N 0.5949 0.03943 0.86792 0.0
C1162 C 0.58988 0.03305 0.92886 0.0
C1163 C 0.58818 0.0396 0.8978 0.0
C1164 C 0.59865 0.02634 0.92929 0.0
C1165 C 0.6058 0.02684 0.89906 0.0
H1166 H 0.60914 0.03371 0.84495 0.0
H1167 H 0.58125 0.0445 0.89673 0.0
C1168 C 0.55447 0.05537 0.76879 0.0
N1169 N 0.56067 0.05856 0.79787 0.0
C1170 C 0.54365 0.05691 0.77032 0.0
C1171 C 0.54578 0.06501 0.83178 0.0
C1172 C 0.55661 0.06336 0.82896 0.0
C1173 C 0.53914 0.06168 0.80231 0.0
H1174 H 0.55796 0.05151 0.7446 0.0
H1175 H 0.56175 0.06569 0.85185 0.0
C1176 C 0.60888 0.04294 0.76581 0.0
N1177 N 0.62367 0.03077 0.72886 0.0
C1178 C 0.61695 0.0477 0.74515 0.0
C1179 C 0.60838 0.03198 0.76776 0.0
C1180 C 0.62434 0.04141 0.72666 0.0
C1181 C 0.61591 0.02597 0.74886 0.0
C1182 C 0.5833 0.06185 0.70798 0.0
C1183 C 0.59347 0.06295 0.69365 0.0
C1184 C 0.57469 0.06351 0.68419 0.0
C1185 C 0.59487 0.06569 0.65571 0.0
C1186 C 0.57641 0.06623 0.64636 0.0
N1187 N 0.58638 0.06725 0.63303 0.0
C1188 C 0.581 0.02907 0.70987 0.0
C1189 C 0.59641 0.03716 0.68606 0.0
C1190 C 0.58055 0.02241 0.67854 0.0
N1191 N 0.58885 0.03625 0.71311 0.0
C1192 C 0.59631 0.0306 0.65444 0.0
C1193 C 0.58828 0.02315 0.65034 0.0
H1194 H 0.57501 0.0286 0.73147 0.0
H1195 H 0.60247 0.04302 0.68868 0.0
C1196 C 0.61097 0.07483 0.7801 0.0
N1197 N 0.6005 0.07444 0.77274 0.0
C1198 C 0.61704 0.08301 0.76552 0.0
C1199 C 0.60129 0.09065 0.73894 0.0
C1200 C 0.59553 0.08233 0.75405 0.0
C1201 C 0.61225 0.09083 0.74333 0.0
H1202 H 0.61467 0.06847 0.79538 0.0
H1203 H 0.58717 0.08184 0.74894 0.0
O1204 O 0.5786 0.04024 0.79533 0.0
O1205 O 0.58487 0.06104 0.83216 0.0
O1206 O 0.60155 0.04896 0.78411 0.0
O1207 O 0.58173 0.05923 0.74514 0.0
H1208 H 0.56363 0.04184 0.84711 0.0
H1209 H 0.58585 0.02072 0.79571 0.0
H1210 H 0.55795 0.02742 0.88961 0.0
H1211 H 0.57991 0.00672 0.83956 0.0
H1212 H 0.58215 0.09632 0.84858 0.0
H1213 H 0.60198 0.0637 0.87339 0.0
H1214 H 0.57549 0.0794 0.82303 0.0
H1215 H 0.60819 0.0809 0.89802 0.0
H1216 H 0.58413 0.03288 0.95142 0.0
H1217 H 0.61277 0.02196 0.89864 0.0
H1218 H 0.53886 0.05436 0.74671 0.0
H1219 H 0.54263 0.06861 0.85714 0.0
H1220 H 0.61747 0.05615 0.74303 0.0
H1221 H 0.60219 0.02816 0.78346 0.0
H1222 H 0.6306 0.045 0.71047 0.0
H1223 H 0.61557 0.01748 0.75003 0.0
H1224 H 0.60022 0.06164 0.71157 0.0
H1225 H 0.56676 0.06273 0.69484 0.0
H1226 H 0.6027 0.06655 0.64428 0.0
H1227 H 0.56982 0.06754 0.62762 0.0
H1228 H 0.57425 0.01672 0.67647 0.0
H1229 H 0.60233 0.03151 0.63303 0.0
H1230 H 0.62548 0.08283 0.76949 0.0
H1231 H 0.59728 0.09662 0.72258 0.0
Li1232 Li 0.70126 0.8394 0.5789 0.0
Li1233 Li 0.69219 0.82444 0.54273 0.0
Li1234 Li 0.70286 0.83759 0.51073 0.0
Li1235 Li 0.68651 0.84246 0.53618 0.0
C1236 C 0.71643 0.82356 0.53493 0.0
N1237 N 0.73466 0.81617 0.50193 0.0
C1238 C 0.71621 0.8145 0.51257 0.0
C1239 C 0.72594 0.82878 0.5409 0.0
C1240 C 0.72551 0.81091 0.49604 0.0
C1241 C 0.73507 0.82494 0.52386 0.0
C1242 C 0.67703 0.83664 0.59711 0.0
C1243 C 0.65837 0.83383 0.60235 0.0
N1244 N 0.65749 0.84294 0.62222 0.0
C1245 C 0.67597 0.84594 0.61771 0.0
C1246 C 0.66819 0.8305 0.58942 0.0
C1247 C 0.66601 0.84901 0.63011 0.0
C1248 C 0.70801 0.8518 0.64232 0.0
N1249 N 0.70833 0.84228 0.62489 0.0
C1250 C 0.72054 0.83578 0.67044 0.0
C1251 C 0.71431 0.8343 0.6385 0.0
C1252 C 0.72063 0.84559 0.68861 0.0
C1253 C 0.7142 0.85366 0.67439 0.0
H1254 H 0.70318 0.85801 0.63073 0.0
H1255 H 0.71441 0.82683 0.62395 0.0
C1256 C 0.6863 0.80482 0.51282 0.0
N1257 N 0.6885 0.81013 0.54522 0.0
C1258 C 0.68433 0.79404 0.51395 0.0
C1259 C 0.6868 0.79447 0.58185 0.0
C1260 C 0.68869 0.80525 0.5794 0.0
C1261 C 0.6847 0.78871 0.54876 0.0
H1262 H 0.68637 0.80892 0.48601 0.0
H1263 H 0.69052 0.80971 0.60463 0.0
C1264 C 0.70648 0.85871 0.53548 0.0
N1265 N 0.72007 0.87546 0.5261 0.0
C1266 C 0.70367 0.86719 0.51241 0.0
C1267 C 0.7162 0.85881 0.55394 0.0
C1268 C 0.71066 0.87556 0.50794 0.0
C1269 C 0.72296 0.86733 0.54883 0.0
C1270 C 0.68551 0.83581 0.46181 0.0
C1271 C 0.68846 0.84587 0.45001 0.0
C1272 C 0.67881 0.82982 0.43911 0.0
C1273 C 0.68466 0.84977 0.41569 0.0
C1274 C 0.67518 0.83399 0.40495 0.0
N1275 N 0.67815 0.8438 0.39405 0.0
C1276 C 0.71086 0.83079 0.44162 0.0
C1277 C 0.71968 0.84597 0.4636 0.0
C1278 C 0.71711 0.83051 0.40925 0.0
N1279 N 0.71218 0.83847 0.46796 0.0
C1280 C 0.72609 0.84603 0.43156 0.0
C1281 C 0.72483 0.83824 0.40379 0.0
H1282 H 0.70496 0.8248 0.44594 0.0
H1283 H 0.72079 0.85193 0.48476 0.0
C1284 C 0.67485 0.86134 0.53084 0.0
N1285 N 0.67442 0.85076 0.52629 0.0
C1286 C 0.66698 0.8677 0.51561 0.0
C1287 C 0.65807 0.85208 0.49356 0.0
C1288 C 0.66607 0.84603 0.50939 0.0
C1289 C 0.65866 0.86307 0.49545 0.0
H1290 H 0.68158 0.86487 0.5445 0.0
H1291 H 0.66595 0.83758 0.50628 0.0
O1292 O 0.70736 0.82737 0.5504 0.0
O1293 O 0.68665 0.83365 0.58386 0.0
O1294 O 0.69961 0.85056 0.54078 0.0
O1295 O 0.6889 0.83193 0.49586 0.0
H1296 H 0.70891 0.81038 0.50761 0.0
H1297 H 0.72627 0.83576 0.55831 0.0
H1298 H 0.72544 0.80396 0.47842 0.0
H1299 H 0.74247 0.82895 0.52802 0.0
H1300 H 0.65144 0.82919 0.59648 0.0
H1301 H 0.68275 0.85079 0.62367 0.0
H1302 H 0.6689 0.82329 0.57334 0.0
H1303 H 0.66505 0.85622 0.64592 0.0
H1304 H 0.72548 0.8294 0.6801 0.0
H1305 H 0.714 0.86131 0.68775 0.0
H1306 H 0.6829 0.78987 0.48773 0.0
H1307 H 0.68707 0.79066 0.60925 0.0
H1308 H 0.69616 0.86733 0.49808 0.0
H1309 H 0.7186 0.85232 0.57155 0.0
H1310 H 0.70858 0.88214 0.4901 0.0
H1311 H 0.73052 0.86747 0.56281 0.0
H1312 H 0.6936 0.85062 0.46721 0.0
H1313 H 0.67637 0.82206 0.44796 0.0
H1314 H 0.68688 0.85754 0.40629 0.0
H1315 H 0.66997 0.82944 0.38716 0.0
H1316 H 0.716 0.82423 0.38896 0.0
H1317 H 0.73189 0.85219 0.42839 0.0
H1318 H 0.66774 0.87616 0.51753 0.0
H1319 H 0.65172 0.84821 0.47868 0.0
Li1320 Li 0.91 0.95161 0.32768 0.0
Li1321 Li 0.92491 0.94192 0.29351 0.0
Li1322 Li 0.91168 0.95195 0.25927 0.0
Li1323 Li 0.90696 0.9361 0.28865 0.0
C1324 C 0.92573 0.96598 0.27991 0.0
N1325 N 0.93304 0.98361 0.24266 0.0
C1326 C 0.93493 0.96546 0.25838 0.0
C1327 C 0.92033 0.9755 0.28289 0.0
C1328 C 0.93848 0.97445 0.23967 0.0
C1329 C 0.92413 0.98432 0.26373 0.0
C1330 C 0.91279 0.92779 0.35167 0.0
C1331 C 0.91559 0.90927 0.36156 0.0
N1332 N 0.90645 0.90877 0.38143 0.0
C1333 C 0.90346 0.92712 0.37231 0.0
C1334 C 0.91894 0.91882 0.3463 0.0
C1335 C 0.90037 0.91742 0.38709 0.0
C1336 C 0.8979 0.95935 0.39055 0.0
N1337 N 0.90721 0.95964 0.37167 0.0
C1338 C 0.91356 0.97329 0.41182 0.0
C1339 C 0.91503 0.96628 0.38205 0.0
C1340 C 0.90394 0.97345 0.43121 0.0
C1341 C 0.8961 0.96624 0.42075 0.0
H1342 H 0.8918 0.954 0.38147 0.0
H1343 H 0.92237 0.96628 0.36669 0.0
C1344 C 0.94453 0.93575 0.26462 0.0
N1345 N 0.93919 0.93824 0.29667 0.0
C1346 C 0.95529 0.93373 0.26618 0.0
C1347 C 0.95477 0.93673 0.33379 0.0
C1348 C 0.94401 0.93867 0.33092 0.0
C1349 C 0.96057 0.93435 0.30105 0.0
H1350 H 0.94047 0.93562 0.23773 0.0
H1351 H 0.93952 0.9407 0.35586 0.0
C1352 C 0.89054 0.95587 0.28363 0.0
N1353 N 0.87365 0.9691 0.27135 0.0
C1354 C 0.88208 0.95257 0.26134 0.0
C1355 C 0.89035 0.96589 0.29984 0.0
C1356 C 0.87364 0.95938 0.25539 0.0
C1357 C 0.88176 0.97246 0.29327 0.0
C1358 C 0.91352 0.93384 0.21438 0.0
C1359 C 0.90344 0.93651 0.20211 0.0
C1360 C 0.91955 0.92682 0.19309 0.0
C1361 C 0.89953 0.9321 0.16875 0.0
C1362 C 0.91537 0.92258 0.15986 0.0
N1363 N 0.90553 0.92528 0.14849 0.0
C1364 C 0.91856 0.95903 0.18897 0.0
C1365 C 0.90308 0.9678 0.20848 0.0
C1366 C 0.91895 0.96498 0.15586 0.0
N1367 N 0.91072 0.96053 0.21457 0.0
C1368 C 0.90312 0.97387 0.17562 0.0
C1369 C 0.91116 0.97253 0.14883 0.0
H1370 H 0.92463 0.95329 0.19461 0.0
H1371 H 0.89698 0.96901 0.22898 0.0
C1372 C 0.88821 0.92416 0.28556 0.0
N1373 N 0.89881 0.92378 0.28154 0.0
C1374 C 0.88199 0.91604 0.27133 0.0
C1375 C 0.89779 0.90701 0.25159 0.0
C1376 C 0.90369 0.91526 0.26643 0.0
C1377 C 0.88678 0.90755 0.25271 0.0
H1378 H 0.88457 0.93104 0.29778 0.0
H1379 H 0.91215 0.91519 0.26368 0.0
O1380 O 0.92197 0.95718 0.2975 0.0
O1381 O 0.9158 0.93714 0.33612 0.0
O1382 O 0.89878 0.9492 0.29033 0.0
O1383 O 0.9174 0.93781 0.2476 0.0
H1384 H 0.9392 0.95815 0.25574 0.0
H1385 H 0.91323 0.97606 0.29957 0.0
H1386 H 0.94553 0.97414 0.22266 0.0
H1387 H 0.91998 0.99171 0.26556 0.0
H1388 H 0.92023 0.90224 0.3575 0.0
H1389 H 0.8986 0.934 0.37649 0.0
H1390 H 0.92616 0.91923 0.33021 0.0
H1391 H 0.89314 0.91676 0.40296 0.0
H1392 H 0.91989 0.97856 0.4195 0.0
H1393 H 0.88856 0.96614 0.43497 0.0
H1394 H 0.9595 0.93208 0.2402 0.0
H1395 H 0.95854 0.9372 0.36124 0.0
H1396 H 0.88201 0.94483 0.24874 0.0
H1397 H 0.89682 0.96867 0.31682 0.0
H1398 H 0.86706 0.95692 0.23813 0.0
H1399 H 0.88155 0.98025 0.30551 0.0
H1400 H 0.89866 0.94189 0.21822 0.0
H1401 H 0.92734 0.9246 0.20234 0.0
H1402 H 0.89172 0.93409 0.15902 0.0
H1403 H 0.91994 0.91712 0.14318 0.0
H1404 H 0.9254 0.96379 0.13635 0.0
H1405 H 0.89688 0.97952 0.1712 0.0
H1406 H 0.87352 0.91675 0.27259 0.0
H1407 H 0.90176 0.90053 0.23783 0.0
Li1408 Li 0.7013 0.65955 0.57622 0.0
Li1409 Li 0.6869 0.65582 0.53567 0.0
Li1410 Li 0.70275 0.66074 0.50655 0.0
Li1411 Li 0.69115 0.67391 0.54094 0.0
C1412 C 0.70924 0.64196 0.54061 0.0
N1413 N 0.72724 0.62992 0.54649 0.0
C1414 C 0.70851 0.6311 0.54596 0.0
C1415 C 0.71912 0.64667 0.53826 0.0
C1416 C 0.7177 0.62516 0.54887 0.0
C1417 C 0.72812 0.64047 0.54126 0.0
C1418 C 0.67856 0.65999 0.60223 0.0
C1419 C 0.66092 0.66049 0.62691 0.0
N1420 N 0.66219 0.65059 0.64066 0.0
C1421 C 0.67973 0.64986 0.61685 0.0
C1422 C 0.66912 0.6654 0.60745 0.0
C1423 C 0.67135 0.64523 0.63609 0.0
C1424 C 0.71297 0.66616 0.63784 0.0
N1425 N 0.70918 0.65734 0.6211 0.0
C1426 C 0.71862 0.64649 0.66458 0.0
C1427 C 0.7116 0.64761 0.6344 0.0
C1428 C 0.72313 0.65547 0.68096 0.0
C1429 C 0.72004 0.66541 0.66781 0.0
H1430 H 0.71078 0.67379 0.62694 0.0
H1431 H 0.70834 0.64072 0.62097 0.0
C1432 C 0.67728 0.63684 0.51589 0.0
N1433 N 0.67513 0.64684 0.52692 0.0
C1434 C 0.66936 0.63052 0.50099 0.0
C1435 C 0.65705 0.64473 0.51059 0.0
C1436 C 0.6652 0.65076 0.5256 0.0
C1437 C 0.65917 0.63457 0.49709 0.0
H1438 H 0.68527 0.63402 0.51636 0.0
H1439 H 0.66374 0.65881 0.53373 0.0
C1440 C 0.715 0.67805 0.54131 0.0
N1441 N 0.73179 0.6917 0.5341 0.0
C1442 C 0.71382 0.68755 0.5219 0.0
C1443 C 0.72474 0.67557 0.55741 0.0
C1444 C 0.7224 0.69432 0.51843 0.0
C1445 C 0.73312 0.68255 0.55336 0.0
C1446 C 0.68132 0.66322 0.46805 0.0
C1447 C 0.68301 0.65444 0.44505 0.0
C1448 C 0.6719 0.66881 0.46507 0.0
C1449 C 0.67516 0.6513 0.41983 0.0
C1450 C 0.66426 0.66543 0.4394 0.0
N1451 N 0.66603 0.65681 0.41756 0.0
C1452 C 0.71322 0.64953 0.44818 0.0
C1453 C 0.71593 0.66795 0.44777 0.0
C1454 C 0.71957 0.64836 0.41624 0.0
N1455 N 0.71165 0.65921 0.46352 0.0
C1456 C 0.72237 0.66714 0.41603 0.0
C1457 C 0.72428 0.65724 0.39994 0.0
H1458 H 0.7095 0.64273 0.46058 0.0
H1459 H 0.71421 0.67558 0.45942 0.0
C1460 C 0.68709 0.69326 0.57641 0.0
N1461 N 0.68703 0.68814 0.54265 0.0
C1462 C 0.68522 0.70406 0.57779 0.0
C1463 C 0.68302 0.70402 0.50976 0.0
C1464 C 0.68489 0.69322 0.50972 0.0
C1465 C 0.68336 0.7096 0.54404 0.0
H1466 H 0.68893 0.68899 0.60205 0.0
H1467 H 0.68504 0.68896 0.48326 0.0
O1468 O 0.70027 0.64788 0.53844 0.0
O1469 O 0.68664 0.66461 0.58303 0.0
O1470 O 0.7066 0.67142 0.54562 0.0
O1471 O 0.68879 0.66624 0.49363 0.0
H1472 H 0.70094 0.62731 0.54821 0.0
H1473 H 0.71983 0.65501 0.53371 0.0
H1474 H 0.71725 0.61675 0.55312 0.0
H1475 H 0.73582 0.64404 0.53938 0.0
H1476 H 0.65355 0.66455 0.63102 0.0
H1477 H 0.68701 0.6456 0.61301 0.0
H1478 H 0.66813 0.67327 0.59635 0.0
H1479 H 0.67211 0.63736 0.64736 0.0
H1480 H 0.72078 0.63869 0.67404 0.0
H1481 H 0.72319 0.67252 0.68021 0.0
H1482 H 0.67135 0.62278 0.49041 0.0
H1483 H 0.64927 0.64811 0.50813 0.0
H1484 H 0.70641 0.68961 0.50907 0.0
H1485 H 0.72584 0.66835 0.57306 0.0
H1486 H 0.72158 0.70165 0.50324 0.0
H1487 H 0.74069 0.6807 0.56563 0.0
H1488 H 0.69022 0.65 0.44718 0.0
H1489 H 0.67043 0.67557 0.48286 0.0
H1490 H 0.67631 0.64446 0.40217 0.0
H1491 H 0.6569 0.66962 0.43702 0.0
H1492 H 0.72084 0.64059 0.4046 0.0
H1493 H 0.72565 0.67421 0.40372 0.0
H1494 H 0.68566 0.70809 0.60473 0.0
H1495 H 0.68154 0.708 0.48318 0.0
Li1496 Li 0.59177 0.43793 0.77859 0.0
Li1497 Li 0.58885 0.45221 0.8227 0.0
Li1498 Li 0.57371 0.44363 0.78985 0.0
Li1499 Li 0.58579 0.4551 0.75598 0.0
C1500 C 0.58821 0.43092 0.8534 0.0
N1501 N 0.59739 0.41783 0.90629 0.0
C1502 C 0.59856 0.43262 0.86494 0.0
C1503 C 0.58253 0.42254 0.86865 0.0
C1504 C 0.60306 0.42593 0.89174 0.0
C1505 C 0.5873 0.41601 0.89539 0.0
C1506 C 0.60883 0.45496 0.7918 0.0
C1507 C 0.62075 0.46905 0.8072 0.0
N1508 N 0.62842 0.46189 0.81445 0.0
C1509 C 0.61685 0.44774 0.79909 0.0
C1510 C 0.61081 0.46571 0.79559 0.0
C1511 C 0.62669 0.4514 0.81064 0.0
C1512 C 0.60423 0.42829 0.72727 0.0
N1513 N 0.60011 0.42652 0.76214 0.0
C1514 C 0.60734 0.4092 0.76324 0.0
C1515 C 0.60151 0.41721 0.78037 0.0
C1516 C 0.61152 0.4108 0.72689 0.0
C1517 C 0.60995 0.4205 0.70896 0.0
H1518 H 0.60288 0.43576 0.71344 0.0
H1519 H 0.59797 0.41589 0.80773 0.0
C1520 C 0.58398 0.46389 0.88588 0.0
N1521 N 0.59235 0.45925 0.86887 0.0
C1522 C 0.58539 0.47027 0.91754 0.0
C1523 C 0.60401 0.4667 0.91472 0.0
C1524 C 0.60222 0.46031 0.88319 0.0
C1525 C 0.59553 0.4719 0.93192 0.0
H1526 H 0.5762 0.46287 0.87415 0.0
H1527 H 0.60877 0.4564 0.86992 0.0
C1528 C 0.577 0.43194 0.72491 0.0
N1529 N 0.57007 0.41339 0.693 0.0
C1530 C 0.57557 0.43122 0.68579 0.0
C1531 C 0.57491 0.42324 0.74784 0.0
C1532 C 0.57206 0.42176 0.67019 0.0
C1533 C 0.57141 0.41393 0.73115 0.0
C1534 C 0.57315 0.46864 0.7903 0.0
C1535 C 0.56324 0.47035 0.77449 0.0
C1536 C 0.57979 0.47716 0.79728 0.0
C1537 C 0.56019 0.48058 0.76531 0.0
C1538 C 0.57645 0.48727 0.78771 0.0
N1539 N 0.56681 0.48875 0.77201 0.0
C1540 C 0.55537 0.43606 0.82618 0.0
C1541 C 0.55343 0.44099 0.76181 0.0
C1542 C 0.54468 0.4337 0.82869 0.0
N1543 N 0.55946 0.43969 0.79316 0.0
C1544 C 0.54272 0.43873 0.76302 0.0
C1545 C 0.53819 0.43512 0.79688 0.0
H1546 H 0.56039 0.43517 0.85069 0.0
H1547 H 0.55691 0.44401 0.73608 0.0
C1548 C 0.59596 0.46894 0.70522 0.0
N1549 N 0.58657 0.46465 0.71497 0.0
C1550 C 0.59669 0.47561 0.674 0.0
C1551 C 0.57808 0.47328 0.66332 0.0
C1552 C 0.57772 0.46659 0.69461 0.0
C1553 C 0.58767 0.47783 0.65258 0.0
H1554 H 0.60292 0.46704 0.72124 0.0
H1555 H 0.57043 0.46282 0.70238 0.0
O1556 O 0.58366 0.43731 0.82698 0.0
O1557 O 0.59918 0.45151 0.78021 0.0
O1558 O 0.58055 0.44113 0.74044 0.0
O1559 O 0.57634 0.45867 0.7989 0.0
H1560 H 0.60309 0.43898 0.85308 0.0
H1561 H 0.57452 0.42107 0.85979 0.0
H1562 H 0.61108 0.42715 0.90088 0.0
H1563 H 0.583 0.40949 0.90743 0.0
H1564 H 0.62237 0.47735 0.81045 0.0
H1565 H 0.6155 0.43939 0.79599 0.0
H1566 H 0.60473 0.47141 0.78982 0.0
H1567 H 0.63295 0.4459 0.81656 0.0
H1568 H 0.60837 0.40178 0.77776 0.0
H1569 H 0.61316 0.42205 0.68111 0.0
H1570 H 0.57864 0.47419 0.92976 0.0
H1571 H 0.61193 0.46765 0.92532 0.0
H1572 H 0.57719 0.43789 0.66769 0.0
H1573 H 0.57599 0.42363 0.77816 0.0
H1574 H 0.57092 0.42108 0.63994 0.0
H1575 H 0.56977 0.40713 0.74854 0.0
H1576 H 0.55799 0.46383 0.76906 0.0
H1577 H 0.58743 0.47597 0.80991 0.0
H1578 H 0.55257 0.48202 0.7528 0.0
H1579 H 0.58153 0.49394 0.79279 0.0
H1580 H 0.54151 0.43088 0.85526 0.0
H1581 H 0.53799 0.44013 0.73805 0.0
H1582 H 0.60423 0.47898 0.66666 0.0
H1583 H 0.57098 0.47464 0.64713 0.0
Li1584 Li 0.81057 0.34338 0.03194 0.0
Li1585 Li 0.79627 0.33895 0.07837 0.0
Li1586 Li 0.80595 0.32502 0.04325 0.0
Li1587 Li 0.79389 0.33653 0.01085 0.0
C1588 C 0.82197 0.33283 0.08895 0.0
N1589 N 0.84258 0.32769 0.105 0.0
C1590 C 0.82546 0.33256 0.12644 0.0
C1591 C 0.82895 0.33047 0.05962 0.0
C1592 C 0.83591 0.32995 0.13397 0.0
C1593 C 0.83934 0.3279 0.06831 0.0
C1594 C 0.78888 0.35606 0.02286 0.0
C1595 C 0.77074 0.36132 0.01773 0.0
N1596 N 0.77329 0.36773 0.98834 0.0
C1597 C 0.79134 0.36274 0.99274 0.0
C1598 C 0.77851 0.35536 0.03558 0.0
C1599 C 0.78334 0.36856 0.97561 0.0
C1600 C 0.8208 0.35499 0.97913 0.0
N1601 N 0.82129 0.35265 0.01658 0.0
C1602 C 0.83666 0.36321 0.02389 0.0
C1603 C 0.82897 0.3566 0.03921 0.0
C1604 C 0.83626 0.36581 0.98524 0.0
C1605 C 0.82821 0.3616 0.96281 0.0
H1606 H 0.81462 0.35165 0.96189 0.0
H1607 H 0.82916 0.3546 0.06896 0.0
C1608 C 0.78654 0.33327 0.14511 0.0
N1609 N 0.78925 0.3418 0.12425 0.0
C1610 C 0.77979 0.33434 0.1759 0.0
C1611 C 0.7793 0.35308 0.16465 0.0
C1612 C 0.786 0.35163 0.13374 0.0
C1613 C 0.77589 0.34431 0.1854 0.0
H1614 H 0.78923 0.32556 0.13665 0.0
H1615 H 0.78824 0.35826 0.11636 0.0
C1616 C 0.81016 0.32598 0.96465 0.0
N1617 N 0.81461 0.31301 0.90405 0.0
C1618 C 0.80268 0.31877 0.95191 0.0
C1619 C 0.81987 0.32666 0.94637 0.0
C1620 C 0.80509 0.31227 0.92127 0.0
C1621 C 0.82199 0.32002 0.91585 0.0
C1622 C 0.78183 0.32078 0.04897 0.0
C1623 C 0.78188 0.31126 0.02927 0.0
C1624 C 0.77261 0.32418 0.06662 0.0
C1625 C 0.77263 0.3054 0.02684 0.0
C1626 C 0.76352 0.31809 0.06355 0.0
N1627 N 0.76371 0.30891 0.04385 0.0
C1628 C 0.80563 0.30505 0.07424 0.0
C1629 C 0.81833 0.30678 0.0256 0.0
C1630 C 0.80777 0.29435 0.07757 0.0
N1631 N 0.81072 0.31095 0.04799 0.0
C1632 C 0.82071 0.29608 0.02788 0.0
C1633 C 0.81526 0.2897 0.05369 0.0
H1634 H 0.79964 0.30861 0.09179 0.0
H1635 H 0.82244 0.31167 0.00551 0.0
C1636 C 0.7885 0.34086 0.93593 0.0
N1637 N 0.78428 0.33775 0.96947 0.0
C1638 C 0.78216 0.34201 0.90402 0.0
C1639 C 0.76716 0.33702 0.94191 0.0
C1640 C 0.7738 0.33599 0.9731 0.0
C1641 C 0.77135 0.33998 0.90672 0.0
H1642 H 0.79682 0.34245 0.93399 0.0
H1643 H 0.77053 0.33394 0.0002 0.0
O1644 O 0.81174 0.33529 0.08123 0.0
O1645 O 0.79654 0.35006 0.03924 0.0
O1646 O 0.80801 0.33243 0.99463 0.0
O1647 O 0.79085 0.32656 0.0522 0.0
H1648 H 0.82014 0.33433 0.14946 0.0
H1649 H 0.8264 0.33063 0.03046 0.0
H1650 H 0.83872 0.32971 0.16286 0.0
H1651 H 0.84482 0.32606 0.04588 0.0
H1652 H 0.76267 0.3608 0.02711 0.0
H1653 H 0.79932 0.36337 0.98251 0.0
H1654 H 0.77645 0.35014 0.05856 0.0
H1655 H 0.78512 0.37372 0.95214 0.0
H1656 H 0.84276 0.36636 0.04204 0.0
H1657 H 0.82772 0.3633 0.93281 0.0
H1658 H 0.77744 0.32741 0.19155 0.0
H1659 H 0.77641 0.36088 0.17111 0.0
H1660 H 0.79507 0.31828 0.96527 0.0
H1661 H 0.82574 0.33223 0.95583 0.0
H1662 H 0.79937 0.30665 0.91112 0.0
H1663 H 0.82949 0.32042 0.90155 0.0
H1664 H 0.789 0.30835 0.01628 0.0
H1665 H 0.77242 0.33151 0.08207 0.0
H1666 H 0.77255 0.29803 0.01157 0.0
H1667 H 0.75631 0.32067 0.07679 0.0
H1668 H 0.8033 0.2897 0.09757 0.0
H1669 H 0.82665 0.29282 0.00933 0.0
H1670 H 0.78571 0.34427 0.87738 0.0
H1671 H 0.75883 0.3356 0.94536 0.0
Li1672 Li 0.90927 0.56054 0.27542 0.0
Li1673 Li 0.91248 0.54613 0.32223 0.0
Li1674 Li 0.92727 0.55555 0.29084 0.0
Li1675 Li 0.91603 0.54421 0.25583 0.0
C1676 C 0.91076 0.56684 0.35233 0.0
N1677 N 0.89913 0.57767 0.40556 0.0
C1678 C 0.90068 0.56341 0.36197 0.0
C1679 C 0.91493 0.57577 0.36975 0.0
C1680 C 0.89493 0.56899 0.389 0.0
C1681 C 0.90892 0.58115 0.39655 0.0
C1682 C 0.89616 0.53984 0.26068 0.0
C1683 C 0.89002 0.52217 0.24983 0.0
N1684 N 0.88465 0.52556 0.21885 0.0
C1685 C 0.89054 0.54316 0.22888 0.0
C1686 C 0.89587 0.52927 0.27138 0.0
C1687 C 0.88479 0.53582 0.20805 0.0
C1688 C 0.89955 0.57178 0.2193 0.0
N1689 N 0.90032 0.57154 0.25766 0.0
C1690 C 0.88831 0.58592 0.26278 0.0
C1691 C 0.89494 0.57848 0.27955 0.0
C1692 C 0.88735 0.5863 0.22309 0.0
C1693 C 0.89324 0.57918 0.20138 0.0
H1694 H 0.90383 0.56612 0.20247 0.0
H1695 H 0.89564 0.57824 0.30993 0.0
C1696 C 0.91683 0.53697 0.3916 0.0
N1697 N 0.90883 0.53888 0.36711 0.0
C1698 C 0.9153 0.53036 0.42258 0.0
C1699 C 0.8972 0.52811 0.40335 0.0
C1700 C 0.89908 0.53478 0.37266 0.0
C1701 C 0.90545 0.52573 0.42815 0.0
H1702 H 0.92452 0.54026 0.3861 0.0
H1703 H 0.89288 0.53639 0.35254 0.0
C1704 C 0.92483 0.56759 0.22735 0.0
N1705 N 0.93214 0.58671 0.20124 0.0
C1706 C 0.92791 0.56872 0.18959 0.0
C1707 C 0.92546 0.57621 0.25184 0.0
C1708 C 0.93158 0.57844 0.17693 0.0
C1709 C 0.92918 0.5858 0.23808 0.0
C1710 C 0.93234 0.53295 0.28928 0.0
C1711 C 0.93909 0.53451 0.25863 0.0
C1712 C 0.93287 0.5236 0.30995 0.0
C1713 C 0.94631 0.52667 0.24918 0.0
C1714 C 0.94019 0.51595 0.29961 0.0
N1715 N 0.9467 0.51764 0.2697 0.0
C1716 C 0.94498 0.56077 0.3348 0.0
C1717 C 0.94782 0.56138 0.26849 0.0
C1718 C 0.95554 0.56314 0.34158 0.0
N1719 N 0.94138 0.55987 0.29872 0.0
C1720 C 0.95836 0.5639 0.27394 0.0
C1721 C 0.96236 0.56468 0.31084 0.0
H1722 H 0.93969 0.55942 0.35828 0.0
H1723 H 0.94486 0.56036 0.24008 0.0
C1724 C 0.91391 0.53881 0.18002 0.0
N1725 N 0.9156 0.53458 0.21478 0.0
C1726 C 0.91313 0.53236 0.14829 0.0
C1727 C 0.91588 0.51727 0.18872 0.0
C1728 C 0.91655 0.52403 0.21974 0.0
C1729 C 0.91413 0.52144 0.15244 0.0
H1730 H 0.91307 0.54723 0.17706 0.0
H1731 H 0.91764 0.52084 0.24781 0.0
O1732 O 0.91663 0.56145 0.32643 0.0
O1733 O 0.90206 0.54686 0.28088 0.0
O1734 O 0.92119 0.55808 0.23986 0.0
O1735 O 0.92507 0.5404 0.29862 0.0
H1736 H 0.89726 0.55662 0.34835 0.0
H1737 H 0.92273 0.5785 0.3626 0.0
H1738 H 0.88711 0.56644 0.39666 0.0
H1739 H 0.91204 0.58808 0.41023 0.0
H1740 H 0.8898 0.51396 0.25759 0.0
H1741 H 0.89066 0.5513 0.22022 0.0
H1742 H 0.90031 0.52654 0.29559 0.0
H1743 H 0.88044 0.53827 0.18325 0.0
H1744 H 0.88385 0.59114 0.28081 0.0
H1745 H 0.89299 0.57928 0.17075 0.0
H1746 H 0.92182 0.52857 0.44121 0.0
H1747 H 0.88954 0.52455 0.40691 0.0
H1748 H 0.92746 0.56213 0.17027 0.0
H1749 H 0.92312 0.57554 0.28111 0.0
H1750 H 0.93399 0.57942 0.14778 0.0
H1751 H 0.92971 0.59252 0.25671 0.0
H1752 H 0.93863 0.54162 0.24193 0.0
H1753 H 0.92762 0.52225 0.33359 0.0
H1754 H 0.95156 0.52775 0.22543 0.0
H1755 H 0.94068 0.50867 0.3153 0.0
H1756 H 0.95836 0.56366 0.37044 0.0
H1757 H 0.96342 0.56483 0.24953 0.0
H1758 H 0.91187 0.53588 0.12075 0.0
H1759 H 0.91655 0.50888 0.19312 0.0
Li1760 Li 0.70336 0.33545 0.56975 0.0
Li1761 Li 0.69126 0.32311 0.53385 0.0
Li1762 Li 0.70142 0.33764 0.50057 0.0
Li1763 Li 0.68742 0.34118 0.54322 0.0
C1764 C 0.71445 0.31787 0.53248 0.0
N1765 N 0.72982 0.30264 0.53932 0.0
C1766 C 0.71244 0.30864 0.55269 0.0
C1767 C 0.72428 0.31932 0.51561 0.0
C1768 C 0.72031 0.30105 0.55586 0.0
C1769 C 0.73195 0.31154 0.51945 0.0
C1770 C 0.68143 0.33272 0.60756 0.0
C1771 C 0.66337 0.33148 0.62772 0.0
N1772 N 0.66536 0.33851 0.65581 0.0
C1773 C 0.68332 0.33986 0.63682 0.0
C1774 C 0.6714 0.32844 0.60305 0.0
C1775 C 0.67508 0.34272 0.66084 0.0
C1776 C 0.71332 0.34631 0.6289 0.0
N1777 N 0.71274 0.33678 0.61157 0.0
C1778 C 0.72524 0.32961 0.65488 0.0
C1779 C 0.71847 0.32847 0.62411 0.0
C1780 C 0.72605 0.33937 0.67317 0.0
C1781 C 0.71997 0.34779 0.65985 0.0
H1782 H 0.70856 0.35275 0.61879 0.0
H1783 H 0.71771 0.32093 0.6107 0.0
C1784 C 0.68869 0.3041 0.49534 0.0
N1785 N 0.68683 0.30902 0.52878 0.0
C1786 C 0.68665 0.29338 0.49154 0.0
C1787 C 0.6805 0.29311 0.55633 0.0
C1788 C 0.68274 0.30382 0.55897 0.0
C1789 C 0.68262 0.28774 0.52248 0.0
H1790 H 0.69207 0.30846 0.47201 0.0
H1791 H 0.68161 0.30788 0.58552 0.0
C1792 C 0.71007 0.35441 0.53852 0.0
N1793 N 0.72834 0.36605 0.53376 0.0
C1794 C 0.70963 0.36538 0.53797 0.0
C1795 C 0.7198 0.34937 0.53667 0.0
C1796 C 0.71896 0.37112 0.53555 0.0
C1797 C 0.72895 0.35538 0.53429 0.0
C1798 C 0.67914 0.33823 0.4736 0.0
C1799 C 0.68079 0.3486 0.46207 0.0
C1800 C 0.66988 0.33306 0.46352 0.0
C1801 C 0.67306 0.35368 0.44085 0.0
C1802 C 0.66233 0.33842 0.44224 0.0
N1803 N 0.66406 0.34853 0.43147 0.0
C1804 C 0.71278 0.33192 0.43709 0.0
C1805 C 0.71112 0.35039 0.4435 0.0
C1806 C 0.71961 0.33315 0.40662 0.0
N1807 N 0.70895 0.34047 0.45545 0.0
C1808 C 0.71789 0.35199 0.41287 0.0
C1809 C 0.72242 0.34329 0.39472 0.0
H1810 H 0.71079 0.32413 0.447 0.0
H1811 H 0.70788 0.35706 0.4584 0.0
C1812 C 0.67902 0.35937 0.57372 0.0
N1813 N 0.67619 0.35055 0.55464 0.0
C1814 C 0.67138 0.36595 0.58902 0.0
C1815 C 0.65801 0.35446 0.56356 0.0
C1816 C 0.66593 0.34807 0.54884 0.0
C1817 C 0.66071 0.36343 0.5846 0.0
H1818 H 0.68723 0.361 0.57877 0.0
H1819 H 0.66388 0.34085 0.53456 0.0
O1820 O 0.70674 0.3253 0.52831 0.0
O1821 O 0.68933 0.33003 0.58317 0.0
O1822 O 0.70096 0.34872 0.54043 0.0
O1823 O 0.68657 0.33315 0.49463 0.0
H1824 H 0.70496 0.30743 0.56643 0.0
H1825 H 0.726 0.32636 0.49964 0.0
H1826 H 0.71887 0.2939 0.57159 0.0
H1827 H 0.73958 0.31258 0.50656 0.0
H1828 H 0.65555 0.32831 0.62435 0.0
H1829 H 0.69102 0.34327 0.64065 0.0
H1830 H 0.66976 0.32301 0.58024 0.0
H1831 H 0.67641 0.34831 0.6834 0.0
H1832 H 0.72962 0.32285 0.66476 0.0
H1833 H 0.72038 0.35545 0.67308 0.0
H1834 H 0.68835 0.28951 0.46494 0.0
H1835 H 0.67757 0.289 0.58101 0.0
H1836 H 0.70216 0.36941 0.53921 0.0
H1837 H 0.7203 0.34092 0.53729 0.0
H1838 H 0.71873 0.37961 0.53504 0.0
H1839 H 0.73653 0.35157 0.53287 0.0
H1840 H 0.68792 0.3527 0.46979 0.0
H1841 H 0.66851 0.32502 0.47225 0.0
H1842 H 0.67419 0.36173 0.43189 0.0
H1843 H 0.6551 0.33454 0.43433 0.0
H1844 H 0.7228 0.32624 0.39288 0.0
H1845 H 0.71987 0.35993 0.40445 0.0
H1846 H 0.67384 0.37266 0.60563 0.0
H1847 H 0.64988 0.35226 0.55932 0.0
Li1848 Li 0.91418 0.45366 0.81374 0.0
Li1849 Li 0.92585 0.44102 0.77711 0.0
Li1850 Li 0.91115 0.45138 0.74463 0.0
Li1851 Li 0.90778 0.43777 0.78889 0.0
C1852 C 0.93124 0.4643 0.76998 0.0
N1853 N 0.94634 0.47988 0.7671 0.0
C1854 C 0.94087 0.46294 0.78837 0.0
C1855 C 0.92933 0.47357 0.74989 0.0
C1856 C 0.94839 0.47091 0.78666 0.0
C1857 C 0.93705 0.48136 0.74885 0.0
C1858 C 0.91675 0.43207 0.85328 0.0
C1859 C 0.91825 0.41442 0.87749 0.0
N1860 N 0.9112 0.41679 0.90513 0.0
C1861 C 0.90959 0.43436 0.88213 0.0
C1862 C 0.92115 0.42203 0.851 0.0
C1863 C 0.90685 0.42652 0.90796 0.0
C1864 C 0.90457 0.46447 0.8738 0.0
N1865 N 0.91386 0.46312 0.85545 0.0
C1866 C 0.92254 0.4745 0.89914 0.0
C1867 C 0.92277 0.46792 0.86756 0.0
C1868 C 0.91305 0.47607 0.91859 0.0
C1869 C 0.90397 0.47098 0.90546 0.0
H1870 H 0.89763 0.46037 0.86414 0.0
H1871 H 0.93011 0.46648 0.85326 0.0
C1872 C 0.94475 0.43749 0.73781 0.0
N1873 N 0.93989 0.43646 0.77183 0.0
C1874 C 0.95548 0.43539 0.73448 0.0
C1875 C 0.95586 0.43091 0.801 0.0
C1876 C 0.94516 0.43316 0.80308 0.0
C1877 C 0.96122 0.43222 0.76654 0.0
H1878 H 0.94036 0.44031 0.71362 0.0
H1879 H 0.94114 0.43265 0.82996 0.0
C1880 C 0.89515 0.46085 0.78497 0.0
N1881 N 0.88413 0.47954 0.78165 0.0
C1882 C 0.88417 0.4608 0.78553 0.0
C1883 C 0.90051 0.47041 0.78284 0.0
C1884 C 0.87875 0.47033 0.78379 0.0
C1885 C 0.89481 0.47977 0.78116 0.0
C1886 C 0.91011 0.42832 0.72218 0.0
C1887 C 0.8997 0.42965 0.71065 0.0
C1888 C 0.91518 0.41875 0.71591 0.0
C1889 C 0.89445 0.42127 0.69346 0.0
C1890 C 0.90967 0.41057 0.69859 0.0
N1891 N 0.8995 0.41198 0.68786 0.0
C1892 C 0.91667 0.46015 0.67563 0.0
C1893 C 0.89874 0.46287 0.69053 0.0
C1894 C 0.91581 0.46657 0.64378 0.0
N1895 N 0.90829 0.45867 0.69877 0.0
C1896 C 0.89756 0.46949 0.6593 0.0
C1897 C 0.90623 0.47162 0.63586 0.0
H1898 H 0.92415 0.4566 0.6827 0.0
H1899 H 0.89211 0.46138 0.70875 0.0
C1900 C 0.88952 0.43035 0.82159 0.0
N1901 N 0.89824 0.42691 0.80328 0.0
C1902 C 0.88305 0.42329 0.84055 0.0
C1903 C 0.89435 0.40914 0.82001 0.0
C1904 C 0.90065 0.41651 0.80146 0.0
C1905 C 0.8856 0.41257 0.8408 0.0
H1906 H 0.88792 0.43867 0.82339 0.0
H1907 H 0.90781 0.41398 0.7879 0.0
O1908 O 0.92386 0.45647 0.77064 0.0
O1909 O 0.91932 0.43958 0.82716 0.0
O1910 O 0.90052 0.45153 0.78653 0.0
O1911 O 0.91535 0.4364 0.73916 0.0
H1912 H 0.94248 0.45585 0.80423 0.0
H1913 H 0.92198 0.47476 0.73519 0.0
H1914 H 0.95585 0.46997 0.80092 0.0
H1915 H 0.93567 0.48858 0.73345 0.0
H1916 H 0.92153 0.40659 0.87589 0.0
H1917 H 0.90607 0.44207 0.8842 0.0
H1918 H 0.9266 0.42007 0.82856 0.0
H1919 H 0.90124 0.42815 0.93019 0.0
H1920 H 0.92977 0.4781 0.90876 0.0
H1921 H 0.89648 0.47202 0.91948 0.0
H1922 H 0.95932 0.43667 0.70751 0.0
H1923 H 0.95993 0.42838 0.82633 0.0
H1924 H 0.87988 0.45348 0.78705 0.0
H1925 H 0.90897 0.47062 0.78277 0.0
H1926 H 0.87025 0.4704 0.7841 0.0
H1927 H 0.89887 0.48721 0.77953 0.0
H1928 H 0.8957 0.43705 0.71523 0.0
H1929 H 0.92326 0.41764 0.72458 0.0
H1930 H 0.88637 0.42215 0.68459 0.0
H1931 H 0.91346 0.40308 0.69372 0.0
H1932 H 0.92264 0.46771 0.62601 0.0
H1933 H 0.89002 0.4732 0.65452 0.0
H1934 H 0.87629 0.42623 0.85585 0.0
H1935 H 0.89662 0.40094 0.81986 0.0
Li1936 Li 0.80438 0.67567 0.0375 0.0
Li1937 Li 0.79328 0.66327 0.06764 0.0
Li1938 Li 0.81008 0.65778 0.04726 0.0
Li1939 Li 0.79606 0.66177 0.00067 0.0
C1940 C 0.81604 0.6721 0.10157 0.0
N1941 N 0.83458 0.67931 0.13285 0.0
C1942 C 0.8167 0.67403 0.14043 0.0
C1943 C 0.82482 0.67382 0.0786 0.0
C1944 C 0.82614 0.67768 0.15571 0.0
C1945 C 0.83412 0.67747 0.09496 0.0
C1946 C 0.78316 0.68139 0.04122 0.0
C1947 C 0.76892 0.69366 0.03257 0.0
N1948 N 0.77063 0.69748 0.068 0.0
C1949 C 0.78474 0.68541 0.0776 0.0
C1950 C 0.77517 0.68552 0.01853 0.0
C1951 C 0.77834 0.69356 0.09059 0.0
C1952 C 0.81023 0.69437 0.00064 0.0
N1953 N 0.80836 0.69005 0.03516 0.0
C1954 C 0.81102 0.7066 0.06548 0.0
C1955 C 0.80881 0.69589 0.06733 0.0
C1956 C 0.81274 0.71137 0.03015 0.0
C1957 C 0.81247 0.70508 0.99745 0.0
H1958 H 0.80974 0.68953 0.97552 0.0
H1959 H 0.80726 0.69229 0.09445 0.0
C1960 C 0.78732 0.65862 0.14157 0.0
N1961 N 0.78341 0.66125 0.10709 0.0
C1962 C 0.78057 0.65703 0.17207 0.0
C1963 C 0.76587 0.66077 0.13081 0.0
C1964 C 0.77292 0.66231 0.10109 0.0
C1965 C 0.76969 0.65814 0.16693 0.0
H1966 H 0.79571 0.6578 0.14534 0.0
H1967 H 0.77004 0.66432 0.0732 0.0
C1968 C 0.81658 0.66112 0.97184 0.0
N1969 N 0.82742 0.65056 0.91579 0.0
C1970 C 0.81393 0.65076 0.96279 0.0
C1971 C 0.82472 0.6661 0.95236 0.0
C1972 C 0.81951 0.64555 0.93435 0.0
C1973 C 0.83012 0.66063 0.92415 0.0
C1974 C 0.7893 0.64369 0.05284 0.0
C1975 C 0.79186 0.63689 0.08249 0.0
C1976 C 0.77903 0.6439 0.03885 0.0
C1977 C 0.78407 0.63046 0.09789 0.0
C1978 C 0.77147 0.63733 0.05496 0.0
N1979 N 0.77412 0.63081 0.08394 0.0
C1980 C 0.82031 0.64628 0.10057 0.0
C1981 C 0.82949 0.64548 0.04233 0.0
C1982 C 0.82775 0.63989 0.11791 0.0
N1983 N 0.82125 0.64891 0.06347 0.0
C1984 C 0.83706 0.63888 0.05843 0.0
C1985 C 0.83622 0.63595 0.09676 0.0
H1986 H 0.81374 0.64922 0.11683 0.0
H1987 H 0.83023 0.6478 0.01309 0.0
C1988 C 0.78647 0.66768 0.93409 0.0
N1989 N 0.78939 0.65902 0.95388 0.0
C1990 C 0.78007 0.66671 0.90228 0.0
C1991 C 0.78022 0.64786 0.9107 0.0
C1992 C 0.7866 0.6492 0.94255 0.0
C1993 C 0.77666 0.65672 0.89079 0.0
H1994 H 0.7888 0.67538 0.94395 0.0
H1995 H 0.78896 0.64245 0.95912 0.0
O1996 O 0.80682 0.66847 0.08649 0.0
O1997 O 0.78916 0.67328 0.02801 0.0
O1998 O 0.81119 0.66647 0.9992 0.0
O1999 O 0.79675 0.65025 0.03803 0.0
H2000 H 0.80998 0.67273 0.15859 0.0
H2001 H 0.82451 0.67236 0.0485 0.0
H2002 H 0.82676 0.67922 0.18575 0.0
H2003 H 0.84097 0.67884 0.07753 0.0
H2004 H 0.7627 0.69692 0.01533 0.0
H2005 H 0.79078 0.68221 0.09577 0.0
H2006 H 0.77378 0.68243 0.99042 0.0
H2007 H 0.77948 0.69673 0.11869 0.0
H2008 H 0.81128 0.71113 0.09142 0.0
H2009 H 0.81363 0.70847 0.96963 0.0
H2010 H 0.78386 0.65516 0.19953 0.0
H2011 H 0.75753 0.66158 0.12554 0.0
H2012 H 0.80774 0.64672 0.97775 0.0
H2013 H 0.82684 0.67413 0.95901 0.0
H2014 H 0.81756 0.63753 0.92711 0.0
H2015 H 0.83645 0.66439 0.90886 0.0
H2016 H 0.79977 0.63662 0.09364 0.0
H2017 H 0.77688 0.64923 0.0163 0.0
H2018 H 0.78593 0.62519 0.12098 0.0
H2019 H 0.76348 0.63747 0.04461 0.0
H2020 H 0.82687 0.63812 0.14772 0.0
H2021 H 0.84341 0.636 0.04089 0.0
H2022 H 0.77761 0.67373 0.88736 0.0
H2023 H 0.77771 0.64003 0.90283 0.0
Li2024 Li 0.57582 0.55673 0.27603 0.0
Li2025 Li 0.58849 0.54489 0.31187 0.0
Li2026 Li 0.59368 0.56121 0.28665 0.0
Li2027 Li 0.59108 0.54729 0.24295 0.0
C2028 C 0.58488 0.56562 0.35344 0.0
N2029 N 0.58996 0.58006 0.4089 0.0
C2030 C 0.59353 0.5639 0.37702 0.0
C2031 C 0.57874 0.57462 0.35834 0.0
C2032 C 0.596 0.57132 0.40478 0.0
C2033 C 0.58145 0.58183 0.38652 0.0
C2034 C 0.57248 0.53266 0.26923 0.0
C2035 C 0.56927 0.51466 0.25098 0.0
N2036 N 0.55964 0.51513 0.26752 0.0
C2037 C 0.5625 0.53297 0.28571 0.0
C2038 C 0.57586 0.52344 0.25142 0.0
C2039 C 0.55615 0.52403 0.28471 0.0
C2040 C 0.55721 0.56188 0.23695 0.0
N2041 N 0.56159 0.56065 0.27173 0.0
C2042 C 0.54501 0.56326 0.30176 0.0
C2043 C 0.55579 0.56146 0.30387 0.0
C2044 C 0.54015 0.56428 0.26619 0.0
C2045 C 0.54644 0.56375 0.2335 0.0
H2046 H 0.56205 0.56116 0.21191 0.0
H2047 H 0.5595 0.56028 0.3311 0.0
C2048 C 0.59843 0.53397 0.37215 0.0
N2049 N 0.58914 0.53556 0.35401 0.0
C2050 C 0.59889 0.52751 0.40405 0.0
C2051 C 0.5802 0.52458 0.39833 0.0
C2052 C 0.5801 0.53113 0.36669 0.0
C2053 C 0.58968 0.52272 0.41747 0.0
H2054 H 0.60547 0.53781 0.36212 0.0
H2055 H 0.57276 0.53285 0.35278 0.0
C2056 C 0.59056 0.57047 0.22128 0.0
N2057 N 0.60022 0.58778 0.18963 0.0
C2058 C 0.6009 0.56976 0.20825 0.0
C2059 C 0.58509 0.57993 0.2179 0.0
C2060 C 0.60566 0.57862 0.19244 0.0
C2061 C 0.59012 0.58861 0.20188 0.0
C2062 C 0.60807 0.53916 0.28218 0.0
C2063 C 0.61898 0.54012 0.27932 0.0
C2064 C 0.60352 0.52917 0.28242 0.0
C2065 C 0.62514 0.53106 0.27667 0.0
C2066 C 0.60994 0.52031 0.27975 0.0
N2067 N 0.62053 0.52143 0.27693 0.0
C2068 C 0.61229 0.57115 0.30953 0.0
C2069 C 0.59787 0.58279 0.30304 0.0
C2070 C 0.61834 0.57906 0.32592 0.0
N2071 N 0.60219 0.57308 0.29925 0.0
C2072 C 0.6036 0.59091 0.31973 0.0
C2073 C 0.6139 0.58899 0.33217 0.0
H2074 H 0.61545 0.56332 0.30695 0.0
H2075 H 0.58977 0.58407 0.2952 0.0
C2076 C 0.58579 0.53726 0.17614 0.0
N2077 N 0.59424 0.54013 0.1972 0.0
C2078 C 0.58705 0.53079 0.14463 0.0
C2079 C 0.60579 0.5308 0.15583 0.0
C2080 C 0.60415 0.53732 0.18711 0.0
C2081 C 0.59714 0.52729 0.13461 0.0
H2082 H 0.578 0.53965 0.18481 0.0
H2083 H 0.61077 0.5399 0.20378 0.0
O2084 O 0.58252 0.5586 0.32541 0.0
O2085 O 0.57873 0.54142 0.26944 0.0
O2086 O 0.58583 0.56192 0.23723 0.0
O2087 O 0.60194 0.54799 0.28407 0.0
H2088 H 0.5984 0.55701 0.3734 0.0
H2089 H 0.57205 0.5761 0.3402 0.0
H2090 H 0.60274 0.57015 0.42294 0.0
H2091 H 0.57682 0.58887 0.39045 0.0
H2092 H 0.57181 0.50748 0.23738 0.0
H2093 H 0.55973 0.54 0.29961 0.0
H2094 H 0.58346 0.52303 0.23788 0.0
H2095 H 0.54845 0.52416 0.29761 0.0
H2096 H 0.54047 0.56342 0.32767 0.0
H2097 H 0.54305 0.56461 0.20555 0.0
H2098 H 0.60636 0.52627 0.41803 0.0
H2099 H 0.57289 0.52122 0.40828 0.0
H2100 H 0.60522 0.56246 0.21069 0.0
H2101 H 0.57707 0.58057 0.22782 0.0
H2102 H 0.61368 0.57822 0.18245 0.0
H2103 H 0.58601 0.59601 0.19925 0.0
H2104 H 0.62266 0.54777 0.27872 0.0
H2105 H 0.59515 0.52826 0.28509 0.0
H2106 H 0.63359 0.5317 0.2743 0.0
H2107 H 0.6065 0.51254 0.27999 0.0
H2108 H 0.62621 0.57724 0.33558 0.0
H2109 H 0.59993 0.59849 0.32401 0.0
H2110 H 0.58016 0.5282 0.12927 0.0
H2111 H 0.6137 0.52841 0.14865 0.0
Li2112 Li 0.29447 0.33784 0.55829 0.0
Li2113 Li 0.31079 0.34317 0.53403 0.0
Li2114 Li 0.29617 0.34062 0.49049 0.0
Li2115 Li 0.3054 0.32517 0.52409 0.0
C2116 C 0.29073 0.35911 0.53986 0.0
N2117 N 0.2771 0.37537 0.55686 0.0
C2118 C 0.29334 0.36647 0.56774 0.0
C2119 C 0.28118 0.36007 0.52059 0.0
C2120 C 0.28634 0.37461 0.57597 0.0
C2121 C 0.2744 0.36833 0.52958 0.0
C2122 C 0.31284 0.33507 0.60555 0.0
C2123 C 0.32546 0.3322 0.65543 0.0
N2124 N 0.3224 0.34135 0.67203 0.0
C2125 C 0.30981 0.34441 0.62316 0.0
C2126 C 0.32072 0.32889 0.6218 0.0
C2127 C 0.31474 0.34746 0.65672 0.0
C2128 C 0.28706 0.33055 0.62783 0.0
N2129 N 0.28513 0.338 0.60115 0.0
C2130 C 0.27071 0.34461 0.6374 0.0
C2131 C 0.27701 0.34485 0.6051 0.0
C2132 C 0.27267 0.33712 0.66575 0.0
C2133 C 0.28092 0.32996 0.66045 0.0
H2134 H 0.29337 0.32498 0.62365 0.0
H2135 H 0.27531 0.35049 0.58334 0.0
C2136 C 0.32194 0.36198 0.54675 0.0
N2137 N 0.32284 0.35136 0.54566 0.0
C2138 C 0.32984 0.36804 0.56318 0.0
C2139 C 0.3398 0.35216 0.57426 0.0
C2140 C 0.33167 0.34641 0.55783 0.0
C2141 C 0.33879 0.36309 0.5783 0.0
H2142 H 0.31486 0.3657 0.53655 0.0
H2143 H 0.33217 0.33794 0.55654 0.0
C2144 C 0.28086 0.3245 0.5308 0.0
N2145 N 0.26217 0.31761 0.56171 0.0
C2146 C 0.28067 0.31549 0.55335 0.0
C2147 C 0.27154 0.32995 0.52361 0.0
C2148 C 0.27114 0.31214 0.56882 0.0
C2149 C 0.26218 0.32635 0.53959 0.0
C2150 C 0.32034 0.33837 0.47144 0.0
C2151 C 0.3212 0.34816 0.45385 0.0
C2152 C 0.32923 0.33206 0.4758 0.0
C2153 C 0.33102 0.35153 0.44114 0.0
C2154 C 0.33892 0.33571 0.46266 0.0
N2155 N 0.3396 0.3453 0.44579 0.0
C2156 C 0.28895 0.35412 0.43077 0.0
C2157 C 0.28402 0.33617 0.42773 0.0
C2158 C 0.28277 0.35641 0.39907 0.0
N2159 N 0.28924 0.34417 0.4448 0.0
C2160 C 0.27791 0.33806 0.39576 0.0
C2161 C 0.27709 0.34832 0.38144 0.0
H2162 H 0.29322 0.36032 0.44496 0.0
H2163 H 0.28442 0.32835 0.43957 0.0
C2164 C 0.31043 0.30531 0.55259 0.0
N2165 N 0.30928 0.31094 0.52019 0.0
C2166 C 0.31257 0.29457 0.55095 0.0
C2167 C 0.31244 0.29568 0.48258 0.0
C2168 C 0.31032 0.30641 0.48556 0.0
C2169 C 0.31348 0.2896 0.51559 0.0
H2170 H 0.3094 0.30913 0.5797 0.0
H2171 H 0.30932 0.31112 0.46031 0.0
O2172 O 0.29763 0.35126 0.53072 0.0
O2173 O 0.30833 0.33209 0.57205 0.0
O2174 O 0.29016 0.3281 0.51651 0.0
O2175 O 0.31084 0.33503 0.48481 0.0
H2176 H 0.30071 0.36595 0.58286 0.0
H2177 H 0.27889 0.35439 0.49949 0.0
H2178 H 0.28827 0.38033 0.59749 0.0
H2179 H 0.26697 0.36912 0.515 0.0
H2180 H 0.33159 0.32753 0.66826 0.0
H2181 H 0.30375 0.34927 0.61092 0.0
H2182 H 0.32321 0.32167 0.60837 0.0
H2183 H 0.31248 0.3547 0.67057 0.0
H2184 H 0.26446 0.35031 0.64029 0.0
H2185 H 0.28257 0.32389 0.68109 0.0
H2186 H 0.32868 0.37643 0.56581 0.0
H2187 H 0.34665 0.34804 0.58481 0.0
H2188 H 0.28782 0.31121 0.55927 0.0
H2189 H 0.27156 0.33692 0.50612 0.0
H2190 H 0.27088 0.30522 0.58658 0.0
H2191 H 0.25491 0.33053 0.53448 0.0
H2192 H 0.31436 0.35313 0.45043 0.0
H2193 H 0.32867 0.32447 0.48948 0.0
H2194 H 0.33183 0.35912 0.42765 0.0
H2195 H 0.34589 0.33095 0.46599 0.0
H2196 H 0.28235 0.3644 0.38867 0.0
H2197 H 0.27355 0.33164 0.38319 0.0
H2198 H 0.31313 0.29015 0.57707 0.0
H2199 H 0.31316 0.29216 0.45479 0.0
Li2200 Li 0.40724 0.56304 0.28501 0.0
Li2201 Li 0.41113 0.54616 0.31293 0.0
Li2202 Li 0.42488 0.55553 0.27587 0.0
Li2203 Li 0.40978 0.54731 0.24508 0.0
C2204 C 0.41574 0.56323 0.35992 0.0
N2205 N 0.41113 0.57011 0.43225 0.0
C2206 C 0.40532 0.56398 0.3719 0.0
C2207 C 0.42383 0.56601 0.3847 0.0
C2208 C 0.40314 0.56747 0.40855 0.0
C2209 C 0.42134 0.56945 0.42118 0.0
C2210 C 0.39038 0.54437 0.29711 0.0
C2211 C 0.38196 0.52768 0.30841 0.0
N2212 N 0.37414 0.53266 0.32748 0.0
C2213 C 0.38221 0.54933 0.31663 0.0
C2214 C 0.39022 0.53346 0.29279 0.0
C2215 C 0.37409 0.54328 0.33183 0.0
C2216 C 0.3894 0.57623 0.28388 0.0
N2217 N 0.39974 0.57576 0.29322 0.0
C2218 C 0.39846 0.59179 0.32797 0.0
C2219 C 0.40442 0.58354 0.3135 0.0
C2220 C 0.38759 0.59203 0.3215 0.0
C2221 C 0.38312 0.58435 0.29786 0.0
H2222 H 0.38589 0.56994 0.26763 0.0
H2223 H 0.41265 0.58297 0.32068 0.0
C2224 C 0.41716 0.53017 0.36246 0.0
N2225 N 0.40944 0.53734 0.35628 0.0
C2226 C 0.41682 0.52365 0.39419 0.0
C2227 C 0.4006 0.53203 0.41285 0.0
C2228 C 0.40126 0.53838 0.38075 0.0
C2229 C 0.40848 0.52457 0.41998 0.0
H2230 H 0.42366 0.52958 0.3429 0.0
H2231 H 0.3953 0.54423 0.37587 0.0
C2232 C 0.41877 0.57156 0.22567 0.0
N2233 N 0.42535 0.59132 0.20369 0.0
C2234 C 0.41662 0.57521 0.18918 0.0
C2235 C 0.42427 0.57796 0.25099 0.0
C2236 C 0.42001 0.58522 0.1786 0.0
C2237 C 0.42753 0.58792 0.23934 0.0
C2238 C 0.42441 0.53174 0.25723 0.0
C2239 C 0.43324 0.53213 0.23376 0.0
C2240 C 0.4191 0.52222 0.26209 0.0
C2241 C 0.43642 0.52307 0.21463 0.0
C2242 C 0.42252 0.51333 0.24245 0.0
N2243 N 0.43102 0.51394 0.21927 0.0
C2244 C 0.44524 0.55698 0.30457 0.0
C2245 C 0.44407 0.56075 0.23897 0.0
C2246 C 0.45609 0.55849 0.30388 0.0
N2247 N 0.4395 0.55814 0.27246 0.0
C2248 C 0.45491 0.5623 0.23693 0.0
C2249 C 0.46108 0.56112 0.26967 0.0
H2250 H 0.44139 0.55477 0.33064 0.0
H2251 H 0.43931 0.56145 0.21373 0.0
C2252 C 0.39637 0.53566 0.19497 0.0
N2253 N 0.40608 0.53989 0.20018 0.0
C2254 C 0.39449 0.52893 0.16442 0.0
C2255 C 0.41247 0.53147 0.14437 0.0
C2256 C 0.41393 0.5383 0.17475 0.0
C2257 C 0.40272 0.52654 0.1395 0.0
H2258 H 0.39018 0.53726 0.21501 0.0
H2259 H 0.42146 0.54205 0.17889 0.0
O2260 O 0.41806 0.55994 0.32397 0.0
O2261 O 0.39846 0.55015 0.28226 0.0
O2262 O 0.41547 0.56177 0.23633 0.0
O2263 O 0.4211 0.54058 0.27579 0.0
H2264 H 0.39896 0.56194 0.35304 0.0
H2265 H 0.43195 0.56557 0.37585 0.0
H2266 H 0.39509 0.5681 0.41812 0.0
H2267 H 0.42752 0.57163 0.44066 0.0
H2268 H 0.38178 0.51922 0.30534 0.0
H2269 H 0.38218 0.55775 0.32046 0.0
H2270 H 0.39639 0.52951 0.27745 0.0
H2271 H 0.36776 0.54701 0.34719 0.0
H2272 H 0.40224 0.59765 0.34556 0.0
H2273 H 0.37476 0.58421 0.29231 0.0
H2274 H 0.42301 0.51794 0.39842 0.0
H2275 H 0.39412 0.53312 0.4323 0.0
H2276 H 0.41237 0.57034 0.16925 0.0
H2277 H 0.42604 0.57526 0.2793 0.0
H2278 H 0.4184 0.58815 0.15044 0.0
H2279 H 0.4318 0.59295 0.25865 0.0
H2280 H 0.43751 0.53939 0.22988 0.0
H2281 H 0.41246 0.52167 0.281 0.0
H2282 H 0.44317 0.5233 0.19604 0.0
H2283 H 0.41843 0.50594 0.24576 0.0
H2284 H 0.46051 0.55761 0.32987 0.0
H2285 H 0.45845 0.56414 0.20986 0.0
H2286 H 0.38685 0.5253 0.16121 0.0
H2287 H 0.41893 0.5299 0.12525 0.0
Li2288 Li 0.20399 0.66189 0.05711 0.0
Li2289 Li 0.18742 0.65705 0.0332 0.0
Li2290 Li 0.20199 0.65956 0.9893 0.0
Li2291 Li 0.19326 0.6749 0.0245 0.0
C2292 C 0.20704 0.64045 0.03419 0.0
N2293 N 0.22029 0.62346 0.04432 0.0
C2294 C 0.20399 0.63203 0.05714 0.0
C2295 C 0.21684 0.64018 0.01629 0.0
C2296 C 0.2108 0.62354 0.06198 0.0
C2297 C 0.22342 0.63153 0.02176 0.0
C2298 C 0.1871 0.66433 0.1072 0.0
C2299 C 0.17786 0.66712 0.16594 0.0
N2300 N 0.18049 0.65725 0.17721 0.0
C2301 C 0.18972 0.65422 0.11939 0.0
C2302 C 0.18113 0.67084 0.13064 0.0
C2303 C 0.1863 0.65078 0.15485 0.0
C2304 C 0.21273 0.66946 0.12387 0.0
N2305 N 0.21339 0.66117 0.0997 0.0
C2306 C 0.22637 0.65307 0.13899 0.0
C2307 C 0.2201 0.65308 0.10659 0.0
C2308 C 0.22581 0.66151 0.16451 0.0
C2309 C 0.21892 0.66983 0.15642 0.0
H2310 H 0.20735 0.67582 0.11782 0.0
H2311 H 0.22059 0.64655 0.08743 0.0
C2312 C 0.17531 0.63849 0.03943 0.0
N2313 N 0.17523 0.64907 0.04436 0.0
C2314 C 0.16728 0.63235 0.05467 0.0
C2315 C 0.15894 0.64819 0.07758 0.0
C2316 C 0.16711 0.65402 0.06179 0.0
C2317 C 0.15915 0.63719 0.07518 0.0
H2318 H 0.18187 0.63479 0.02526 0.0
H2319 H 0.16725 0.66246 0.0651 0.0
C2320 C 0.21767 0.67559 0.02991 0.0
N2321 N 0.23635 0.6831 0.05915 0.0
C2322 C 0.21783 0.68494 0.05067 0.0
C2323 C 0.22704 0.67015 0.02354 0.0
C2324 C 0.22735 0.68858 0.06535 0.0
C2325 C 0.23639 0.67405 0.03869 0.0
C2326 C 0.17781 0.66231 0.97186 0.0
C2327 C 0.17681 0.65289 0.95189 0.0
C2328 C 0.16893 0.66839 0.97947 0.0
C2329 C 0.16685 0.64966 0.94004 0.0
C2330 C 0.15911 0.66488 0.9671 0.0
N2331 N 0.15829 0.65567 0.94784 0.0
C2332 C 0.2088 0.64624 0.92855 0.0
C2333 C 0.21421 0.66406 0.92682 0.0
C2334 C 0.21491 0.64397 0.89666 0.0
N2335 N 0.20877 0.65611 0.94327 0.0
C2336 C 0.22029 0.66219 0.89477 0.0
C2337 C 0.22083 0.652 0.87965 0.0
H2338 H 0.20437 0.64007 0.94229 0.0
H2339 H 0.21404 0.67182 0.93927 0.0
C2340 C 0.18874 0.69476 0.05418 0.0
N2341 N 0.18946 0.68917 0.02154 0.0
C2342 C 0.18653 0.70548 0.05307 0.0
C2343 C 0.1856 0.70442 0.98477 0.0
C2344 C 0.18785 0.69371 0.98722 0.0
C2345 C 0.18503 0.71048 0.01799 0.0
H2346 H 0.19017 0.69092 0.08102 0.0
H2347 H 0.18847 0.68902 0.96178 0.0
O2348 O 0.20037 0.64874 0.02869 0.0
O2349 O 0.19019 0.66782 0.07227 0.0
O2350 O 0.20839 0.67178 0.01608 0.0
O2351 O 0.18744 0.66546 0.98462 0.0
H2352 H 0.19643 0.63205 0.07117 0.0
H2353 H 0.2194 0.64661 0.99871 0.0
H2354 H 0.20853 0.61699 0.07973 0.0
H2355 H 0.23102 0.63125 0.00816 0.0
H2356 H 0.17322 0.67207 0.18434 0.0
H2357 H 0.19431 0.64907 0.10165 0.0
H2358 H 0.17898 0.67867 0.12155 0.0
H2359 H 0.18826 0.64297 0.16458 0.0
H2360 H 0.23146 0.64642 0.14428 0.0
H2361 H 0.21834 0.67659 0.1749 0.0
H2362 H 0.16776 0.62388 0.05235 0.0
H2363 H 0.15274 0.65223 0.09269 0.0
H2364 H 0.21067 0.68926 0.0558 0.0
H2365 H 0.22709 0.66299 0.00712 0.0
H2366 H 0.22757 0.69575 0.08174 0.0
H2367 H 0.24369 0.66988 0.03417 0.0
H2368 H 0.18363 0.64809 0.946 0.0
H2369 H 0.1696 0.67568 0.99508 0.0
H2370 H 0.16593 0.64236 0.92473 0.0
H2371 H 0.15215 0.66947 0.97293 0.0
H2372 H 0.2151 0.63603 0.88567 0.0
H2373 H 0.22484 0.66856 0.88275 0.0
H2374 H 0.18633 0.70987 0.07932 0.0
H2375 H 0.1844 0.70794 0.95719 0.0
Li2376 Li 0.08506 0.45586 0.81383 0.0
Li2377 Li 0.09302 0.43944 0.79345 0.0
Li2378 Li 0.08909 0.45339 0.74737 0.0
Li2379 Li 0.07517 0.44289 0.77655 0.0
C2380 C 0.10787 0.45822 0.77698 0.0
N2381 N 0.12579 0.4671 0.7467 0.0
C2382 C 0.11654 0.45193 0.76838 0.0
C2383 C 0.10833 0.46904 0.77032 0.0
C2384 C 0.12553 0.45657 0.75311 0.0
C2385 C 0.11745 0.47338 0.75491 0.0
C2386 C 0.0829 0.43476 0.85679 0.0
C2387 C 0.08387 0.41716 0.88183 0.0
N2388 N 0.08823 0.42099 0.91414 0.0
C2389 C 0.08733 0.43854 0.89035 0.0
C2390 C 0.08108 0.424 0.85257 0.0
C2391 C 0.08998 0.43145 0.91899 0.0
C2392 C 0.07561 0.46603 0.87611 0.0
N2393 N 0.08444 0.46551 0.85459 0.0
C2394 C 0.09317 0.4778 0.89474 0.0
C2395 C 0.09314 0.47121 0.86323 0.0
C2396 C 0.08418 0.47849 0.91766 0.0
C2397 C 0.07528 0.47256 0.9078 0.0
H2398 H 0.0689 0.46122 0.869 0.0
H2399 H 0.10014 0.47042 0.84624 0.0
C2400 C 0.10307 0.41927 0.79768 0.0
N2401 N 0.1027 0.42928 0.81107 0.0
C2402 C 0.10929 0.41177 0.81593 0.0
C2403 C 0.11473 0.42511 0.86062 0.0
C2404 C 0.10856 0.43236 0.84124 0.0
C2405 C 0.11499 0.41464 0.84835 0.0
H2406 H 0.09826 0.41705 0.77376 0.0
H2407 H 0.10807 0.44038 0.85119 0.0
C2408 C 0.07017 0.46675 0.78108 0.0
N2409 N 0.05898 0.48389 0.80698 0.0
C2410 C 0.05998 0.46545 0.79506 0.0
C2411 C 0.07464 0.47677 0.78003 0.0
C2412 C 0.05446 0.47421 0.80806 0.0
C2413 C 0.06886 0.48534 0.79335 0.0
C2414 C 0.08133 0.43185 0.71771 0.0
C2415 C 0.07923 0.43551 0.68118 0.0
C2416 C 0.07758 0.42203 0.72901 0.0
C2417 C 0.07328 0.4293 0.65663 0.0
C2418 C 0.07164 0.41606 0.70364 0.0
N2419 N 0.06963 0.41979 0.66829 0.0
C2420 C 0.10217 0.4597 0.6843 0.0
C2421 C 0.08518 0.46722 0.68854 0.0
C2422 C 0.10446 0.46586 0.65256 0.0
N2423 N 0.09274 0.4607 0.70212 0.0
C2424 C 0.08706 0.47336 0.65666 0.0
C2425 C 0.09684 0.47283 0.63858 0.0
H2426 H 0.10794 0.45423 0.69492 0.0
H2427 H 0.07767 0.46771 0.70264 0.0
C2428 C 0.05626 0.43246 0.79617 0.0
N2429 N 0.0614 0.43769 0.76824 0.0
C2430 C 0.04563 0.43 0.79212 0.0
C2431 C 0.04591 0.43805 0.73013 0.0
C2432 C 0.0565 0.44044 0.73554 0.0
C2433 C 0.04026 0.433 0.75903 0.0
H2434 H 0.06027 0.43063 0.8223 0.0
H2435 H 0.06072 0.44483 0.71422 0.0
O2436 O 0.09899 0.45383 0.79196 0.0
O2437 O 0.08055 0.44154 0.82794 0.0
O2438 O 0.07578 0.45825 0.76882 0.0
O2439 O 0.08703 0.43788 0.74231 0.0
H2440 H 0.11631 0.44354 0.77318 0.0
H2441 H 0.10167 0.47402 0.77665 0.0
H2442 H 0.13229 0.45179 0.74621 0.0
H2443 H 0.1179 0.48172 0.74941 0.0
H2444 H 0.0826 0.4088 0.8788 0.0
H2445 H 0.08884 0.44684 0.89405 0.0
H2446 H 0.07769 0.42094 0.82673 0.0
H2447 H 0.09349 0.43425 0.94499 0.0
H2448 H 0.10028 0.48206 0.9017 0.0
H2449 H 0.06816 0.47292 0.9245 0.0
H2450 H 0.10932 0.40374 0.8058 0.0
H2451 H 0.11912 0.42761 0.8853 0.0
H2452 H 0.05642 0.45774 0.79621 0.0
H2453 H 0.08252 0.4779 0.7693 0.0
H2454 H 0.04659 0.47332 0.81911 0.0
H2455 H 0.07224 0.49313 0.7929 0.0
H2456 H 0.0821 0.44309 0.67196 0.0
H2457 H 0.07912 0.4191 0.7572 0.0
H2458 H 0.07154 0.43204 0.62833 0.0
H2459 H 0.06861 0.40848 0.71209 0.0
H2460 H 0.11206 0.46517 0.63901 0.0
H2461 H 0.081 0.47867 0.64679 0.0
H2462 H 0.04155 0.42627 0.81543 0.0
H2463 H 0.04214 0.44041 0.70401 0.0
Li2464 Li 0.30605 0.67367 0.54276 0.0
Li2465 Li 0.29627 0.65917 0.57266 0.0
Li2466 Li 0.31027 0.65627 0.52545 0.0
Li2467 Li 0.29366 0.66302 0.50401 0.0
C2468 C 0.31759 0.66813 0.60121 0.0
N2469 N 0.32947 0.68031 0.64982 0.0
C2470 C 0.31449 0.66942 0.63888 0.0
C2471 C 0.32682 0.67291 0.58843 0.0
C2472 C 0.32058 0.67564 0.66298 0.0
C2473 C 0.33268 0.67908 0.61337 0.0
C2474 C 0.28301 0.67936 0.54888 0.0
C2475 C 0.26563 0.68518 0.56622 0.0
N2476 N 0.26753 0.69459 0.54939 0.0
C2477 C 0.28479 0.68911 0.53179 0.0
C2478 C 0.27335 0.67739 0.56631 0.0
C2479 C 0.27687 0.6967 0.53233 0.0
C2480 C 0.31535 0.69312 0.52337 0.0
N2481 N 0.31048 0.68774 0.55156 0.0
C2482 C 0.30998 0.70311 0.59031 0.0
C2483 C 0.30782 0.69248 0.58469 0.0
C2484 C 0.3148 0.70895 0.56134 0.0
C2485 C 0.31763 0.70377 0.52772 0.0
H2486 H 0.31709 0.68925 0.4969 0.0
H2487 H 0.30374 0.68805 0.60631 0.0
C2488 C 0.2866 0.64499 0.62557 0.0
N2489 N 0.28901 0.65514 0.61734 0.0
C2490 C 0.28006 0.64265 0.65622 0.0
C2491 C 0.27913 0.6612 0.67046 0.0
C2492 C 0.28558 0.66318 0.63942 0.0
C2493 C 0.27613 0.65084 0.67877 0.0
H2494 H 0.28952 0.63872 0.60781 0.0
H2495 H 0.28764 0.67118 0.63218 0.0
C2496 C 0.31491 0.6662 0.46302 0.0
N2497 N 0.32955 0.66095 0.40843 0.0
C2498 C 0.31186 0.66057 0.43088 0.0
C2499 C 0.32539 0.66927 0.46715 0.0
C2500 C 0.31938 0.65797 0.40365 0.0
C2501 C 0.33268 0.66652 0.43931 0.0
C2502 C 0.28752 0.64303 0.52966 0.0
C2503 C 0.2884 0.63213 0.52613 0.0
C2504 C 0.27763 0.64757 0.53468 0.0
C2505 C 0.27935 0.62595 0.52788 0.0
C2506 C 0.26877 0.64112 0.53628 0.0
N2507 N 0.26981 0.63053 0.53289 0.0
C2508 C 0.33125 0.64845 0.51812 0.0
C2509 C 0.31798 0.63949 0.48381 0.0
C2510 C 0.33903 0.64248 0.50044 0.0
N2511 N 0.32099 0.647 0.50889 0.0
C2512 C 0.32548 0.6333 0.46569 0.0
C2513 C 0.33617 0.6349 0.47341 0.0
H2514 H 0.33341 0.65452 0.53802 0.0
H2515 H 0.30976 0.63864 0.47664 0.0
C2516 C 0.2786 0.67177 0.45298 0.0
N2517 N 0.28385 0.66291 0.4631 0.0
C2518 C 0.27182 0.6717 0.42196 0.0
C2519 C 0.27605 0.65341 0.41191 0.0
C2520 C 0.2827 0.65383 0.44326 0.0
C2521 C 0.27053 0.66245 0.40077 0.0
H2522 H 0.27979 0.67895 0.46845 0.0
H2523 H 0.28717 0.64695 0.4512 0.0
O2524 O 0.31166 0.66218 0.57708 0.0
O2525 O 0.29075 0.67189 0.54937 0.0
O2526 O 0.30771 0.66851 0.49059 0.0
O2527 O 0.29634 0.64916 0.52835 0.0
H2528 H 0.30747 0.66567 0.64943 0.0
H2529 H 0.32933 0.67202 0.55939 0.0
H2530 H 0.31825 0.67675 0.69215 0.0
H2531 H 0.33978 0.68291 0.60373 0.0
H2532 H 0.25812 0.68374 0.57959 0.0
H2533 H 0.29213 0.69075 0.51761 0.0
H2534 H 0.27181 0.66992 0.57983 0.0
H2535 H 0.27814 0.70425 0.51907 0.0
H2536 H 0.30772 0.70677 0.61676 0.0
H2537 H 0.32115 0.70799 0.50433 0.0
H2538 H 0.27799 0.63455 0.66196 0.0
H2539 H 0.27619 0.66776 0.68687 0.0
H2540 H 0.30381 0.65812 0.42716 0.0
H2541 H 0.32791 0.67359 0.49187 0.0
H2542 H 0.31714 0.65354 0.3788 0.0
H2543 H 0.34083 0.66875 0.44235 0.0
H2544 H 0.29601 0.6285 0.52225 0.0
H2545 H 0.2768 0.65598 0.53719 0.0
H2546 H 0.27992 0.6175 0.52528 0.0
H2547 H 0.26106 0.64454 0.54019 0.0
H2548 H 0.3472 0.64387 0.50737 0.0
H2549 H 0.32295 0.62764 0.4447 0.0
H2550 H 0.26766 0.67884 0.41461 0.0
H2551 H 0.27546 0.64617 0.396 0.0
Li2552 Li 0.091 0.54753 0.32882 0.0
Li2553 Li 0.07656 0.55745 0.2987 0.0
Li2554 Li 0.08722 0.54504 0.26008 0.0
Li2555 Li 0.09408 0.56157 0.28202 0.0
C2556 C 0.07102 0.5342 0.30578 0.0
N2557 N 0.05624 0.5183 0.30843 0.0
C2558 C 0.06109 0.53566 0.2897 0.0
C2559 C 0.07339 0.52466 0.32342 0.0
C2560 C 0.05374 0.52753 0.29125 0.0
C2561 C 0.06583 0.51671 0.32439 0.0
C2562 C 0.08222 0.56906 0.35731 0.0
C2563 C 0.07137 0.58427 0.36868 0.0
N2564 N 0.07043 0.58141 0.40561 0.0
C2565 C 0.08121 0.56631 0.39544 0.0
C2566 C 0.07734 0.57816 0.34386 0.0
C2567 C 0.07519 0.57264 0.41939 0.0
C2568 C 0.10499 0.53746 0.38132 0.0
N2569 N 0.0949 0.54026 0.37364 0.0
C2570 C 0.08872 0.53085 0.42767 0.0
C2571 C 0.08685 0.53727 0.39645 0.0
C2572 C 0.09898 0.52741 0.43529 0.0
C2573 C 0.10721 0.5309 0.41203 0.0
H2574 H 0.11128 0.54008 0.36313 0.0
H2575 H 0.07891 0.53963 0.38962 0.0
C2576 C 0.05709 0.56553 0.27544 0.0
N2577 N 0.06244 0.5619 0.30606 0.0
C2578 C 0.04635 0.56749 0.27789 0.0
C2579 C 0.04687 0.56233 0.34376 0.0
C2580 C 0.05759 0.5603 0.33988 0.0
C2581 C 0.0411 0.56575 0.31224 0.0
H2582 H 0.06107 0.56643 0.24863 0.0
H2583 H 0.06197 0.55709 0.36341 0.0
C2584 C 0.10716 0.53868 0.28578 0.0
N2585 N 0.11951 0.52086 0.28881 0.0
C2586 C 0.11808 0.5395 0.28322 0.0
C2587 C 0.10252 0.5288 0.28971 0.0
C2588 C 0.12419 0.5304 0.28486 0.0
C2589 C 0.10889 0.51988 0.29123 0.0
C2590 C 0.08432 0.56632 0.2194 0.0
C2591 C 0.09057 0.56339 0.18861 0.0
C2592 C 0.08075 0.57667 0.22232 0.0
C2593 C 0.09326 0.57091 0.1615 0.0
C2594 C 0.08361 0.58396 0.19461 0.0
N2595 N 0.08977 0.58096 0.16507 0.0
C2596 C 0.07764 0.53121 0.20756 0.0
C2597 C 0.09596 0.53349 0.19933 0.0
C2598 C 0.07717 0.52465 0.17598 0.0
N2599 N 0.08694 0.53542 0.21874 0.0
C2600 C 0.09585 0.52701 0.16746 0.0
C2601 C 0.08635 0.52254 0.15528 0.0
H2602 H 0.07053 0.53312 0.22257 0.0
H2603 H 0.1032 0.53721 0.20797 0.0
C2604 C 0.10157 0.5826 0.27391 0.0
N2605 N 0.10339 0.5723 0.26609 0.0
C2606 C 0.10761 0.59038 0.25655 0.0
C2607 C 0.1176 0.57677 0.22513 0.0
C2608 C 0.11133 0.56927 0.24282 0.0
C2609 C 0.11564 0.58748 0.23135 0.0
H2610 H 0.09517 0.58478 0.29233 0.0
H2611 H 0.11246 0.56103 0.23664 0.0
O2612 O 0.07826 0.54216 0.30522 0.0
O2613 O 0.08803 0.56292 0.33339 0.0
O2614 O 0.1011 0.54755 0.28457 0.0
O2615 O 0.08192 0.55914 0.24692 0.0
H2616 H 0.05911 0.54292 0.27557 0.0
H2617 H 0.08099 0.52337 0.33633 0.0
H2618 H 0.04605 0.52854 0.27873 0.0
H2619 H 0.06758 0.50929 0.33791 0.0
H2620 H 0.06747 0.59128 0.35855 0.0
H2621 H 0.08505 0.55939 0.40647 0.0
H2622 H 0.07799 0.58038 0.31442 0.0
H2623 H 0.07431 0.57058 0.44893 0.0
H2624 H 0.08216 0.52824 0.44475 0.0
H2625 H 0.11524 0.52849 0.41728 0.0
H2626 H 0.04212 0.57009 0.25298 0.0
H2627 H 0.04302 0.56074 0.37051 0.0
H2628 H 0.1218 0.54711 0.28021 0.0
H2629 H 0.0941 0.52801 0.2913 0.0
H2630 H 0.13265 0.53092 0.28302 0.0
H2631 H 0.1054 0.51218 0.29427 0.0
H2632 H 0.09344 0.55544 0.18597 0.0
H2633 H 0.07595 0.5791 0.246 0.0
H2634 H 0.09816 0.56878 0.13771 0.0
H2635 H 0.08098 0.59202 0.19671 0.0
H2636 H 0.06968 0.52133 0.16775 0.0
H2637 H 0.10308 0.52578 0.15192 0.0
H2638 H 0.10592 0.59857 0.26223 0.0
H2639 H 0.12363 0.57423 0.20552 0.0
Li2640 Li 0.19397 0.32396 0.04237 0.0
Li2641 Li 0.20262 0.33819 0.07375 0.0
Li2642 Li 0.18714 0.34105 0.02858 0.0
Li2643 Li 0.20488 0.33505 0.0052 0.0
C2644 C 0.18119 0.32837 0.1017 0.0
N2645 N 0.16827 0.31663 0.14805 0.0
C2646 C 0.18553 0.32151 0.12832 0.0
C2647 C 0.17029 0.32936 0.09888 0.0
C2648 C 0.17886 0.3156 0.1514 0.0
C2649 C 0.16388 0.32333 0.12255 0.0
C2650 C 0.21985 0.32634 0.05454 0.0
C2651 C 0.23631 0.33572 0.05329 0.0
N2652 N 0.24119 0.32722 0.06867 0.0
C2653 C 0.22502 0.31771 0.07044 0.0
C2654 C 0.22554 0.33542 0.04602 0.0
C2655 C 0.23581 0.31831 0.07732 0.0
C2656 C 0.19842 0.30265 0.04157 0.0
N2657 N 0.19032 0.30941 0.04733 0.0
C2658 C 0.17836 0.29505 0.05453 0.0
C2659 C 0.1804 0.30583 0.05354 0.0
C2660 C 0.18661 0.28792 0.04854 0.0
C2661 C 0.19675 0.29185 0.04216 0.0
H2662 H 0.20618 0.30567 0.03568 0.0
H2663 H 0.17399 0.31131 0.05664 0.0
C2664 C 0.21138 0.35289 0.12656 0.0
N2665 N 0.2096 0.3426 0.11846 0.0
C2666 C 0.21768 0.35565 0.15747 0.0
C2667 C 0.21972 0.33719 0.17188 0.0
C2668 C 0.21346 0.33481 0.14071 0.0
C2669 C 0.22204 0.34772 0.18028 0.0
H2670 H 0.20811 0.35893 0.1086 0.0
H2671 H 0.21197 0.32669 0.13347 0.0
C2672 C 0.18689 0.32127 0.97398 0.0
N2673 N 0.17925 0.30325 0.94017 0.0
C2674 C 0.19366 0.31462 0.95411 0.0
C2675 C 0.17622 0.31877 0.97655 0.0
C2676 C 0.18965 0.30554 0.93727 0.0
C2677 C 0.17251 0.30963 0.95925 0.0
C2678 C 0.20406 0.3578 0.01558 0.0
C2679 C 0.1978 0.36244 0.98767 0.0
C2680 C 0.21319 0.36294 0.02762 0.0
C2681 C 0.20082 0.37205 0.97199 0.0
C2682 C 0.21594 0.37254 0.01124 0.0
N2683 N 0.20975 0.37686 0.984 0.0
C2684 C 0.17296 0.35812 0.03731 0.0
C2685 C 0.17051 0.34749 0.98286 0.0
C2686 C 0.1652 0.36509 0.02488 0.0
N2687 N 0.1755 0.3496 0.01599 0.0
C2688 C 0.16262 0.35413 0.96971 0.0
C2689 C 0.16 0.36314 0.99048 0.0
H2690 H 0.17721 0.35968 0.06322 0.0
H2691 H 0.17295 0.3409 0.96579 0.0
C2692 C 0.22138 0.32771 0.95841 0.0
N2693 N 0.2143 0.3356 0.96306 0.0
C2694 C 0.22818 0.32772 0.92742 0.0
C2695 C 0.22011 0.34383 0.90598 0.0
C2696 C 0.21346 0.34349 0.93731 0.0
C2697 C 0.2276 0.33587 0.90075 0.0
H2698 H 0.22168 0.32132 0.97849 0.0
H2699 H 0.20748 0.3494 0.94053 0.0
O2700 O 0.18756 0.33426 0.07895 0.0
O2701 O 0.20923 0.32595 0.04849 0.0
O2702 O 0.19073 0.33007 0.99139 0.0
O2703 O 0.20108 0.34851 0.03198 0.0
H2704 H 0.19395 0.32066 0.13079 0.0
H2705 H 0.16682 0.33468 0.0785 0.0
H2706 H 0.1821 0.3102 0.17193 0.0
H2707 H 0.15543 0.32397 0.1206 0.0
H2708 H 0.2408 0.3427 0.0467 0.0
H2709 H 0.22073 0.31066 0.07772 0.0
H2710 H 0.22168 0.34213 0.03365 0.0
H2711 H 0.2399 0.31169 0.08965 0.0
H2712 H 0.1704 0.29233 0.05893 0.0
H2713 H 0.20335 0.28662 0.03769 0.0
H2714 H 0.21922 0.36386 0.16324 0.0
H2715 H 0.22304 0.33083 0.18836 0.0
H2716 H 0.20194 0.31639 0.95203 0.0
H2717 H 0.17089 0.32371 0.99244 0.0
H2718 H 0.19481 0.30029 0.92198 0.0
H2719 H 0.16429 0.30756 0.96125 0.0
H2720 H 0.19078 0.35858 0.97761 0.0
H2721 H 0.2181 0.35959 0.04949 0.0
H2722 H 0.19607 0.37567 0.95021 0.0
H2723 H 0.22299 0.37657 0.02028 0.0
H2724 H 0.16339 0.37199 0.04156 0.0
H2725 H 0.15896 0.3525 0.94266 0.0
H2726 H 0.23384 0.32142 0.92443 0.0
H2727 H 0.21923 0.35012 0.88558 0.0
Li2728 Li 0.42341 0.44463 0.79192 0.0
Li2729 Li 0.40874 0.45322 0.8236 0.0
Li2730 Li 0.40544 0.43864 0.77633 0.0
Li2731 Li 0.41085 0.45629 0.7568 0.0
C2732 C 0.41609 0.42955 0.84684 0.0
N2733 N 0.42251 0.41233 0.88859 0.0
C2734 C 0.41872 0.43068 0.88506 0.0
C2735 C 0.4165 0.4196 0.83014 0.0
C2736 C 0.42201 0.4219 0.90561 0.0
C2737 C 0.41983 0.41101 0.85163 0.0
C2738 C 0.42439 0.46769 0.82058 0.0
C2739 C 0.42221 0.4847 0.84965 0.0
N2740 N 0.43124 0.48319 0.86949 0.0
C2741 C 0.4337 0.46635 0.841 0.0
C2742 C 0.41865 0.47699 0.82463 0.0
C2743 C 0.43701 0.47427 0.86565 0.0
C2744 C 0.44362 0.44338 0.7636 0.0
N2745 N 0.43782 0.44082 0.79454 0.0
C2746 C 0.4531 0.43443 0.82638 0.0
C2747 C 0.44231 0.43641 0.82564 0.0
C2748 C 0.4593 0.43709 0.79489 0.0
C2749 C 0.45439 0.4415 0.76303 0.0
H2750 H 0.43987 0.44702 0.73948 0.0
H2751 H 0.43762 0.4347 0.85027 0.0
C2752 C 0.39545 0.46469 0.87375 0.0
N2753 N 0.4049 0.45981 0.86998 0.0
C2754 C 0.39354 0.47122 0.90483 0.0
C2755 C 0.41097 0.46726 0.928 0.0
C2756 C 0.41246 0.46067 0.89697 0.0
C2757 C 0.40152 0.47278 0.93162 0.0
H2758 H 0.38957 0.46388 0.85185 0.0
H2759 H 0.41991 0.45675 0.8932 0.0
C2760 C 0.421 0.43565 0.71631 0.0
N2761 N 0.42933 0.42143 0.66532 0.0
C2762 C 0.42078 0.43779 0.67749 0.0
C2763 C 0.4256 0.42635 0.72917 0.0
C2764 C 0.42498 0.43048 0.65217 0.0
C2765 C 0.42974 0.41924 0.70298 0.0
C2766 C 0.39029 0.45777 0.76451 0.0
C2767 C 0.38352 0.45272 0.73925 0.0
C2768 C 0.38955 0.46864 0.76949 0.0
C2769 C 0.37622 0.45866 0.71892 0.0
C2770 C 0.38215 0.47431 0.74859 0.0
N2771 N 0.3757 0.46924 0.72392 0.0
C2772 C 0.39203 0.42049 0.78317 0.0
C2773 C 0.39654 0.4261 0.72125 0.0
C2774 C 0.38609 0.41219 0.76834 0.0
N2775 N 0.39717 0.42716 0.75945 0.0
C2776 C 0.3909 0.41786 0.70533 0.0
C2777 C 0.38562 0.41078 0.72894 0.0
H2778 H 0.39254 0.42161 0.81347 0.0
H2779 H 0.40029 0.43177 0.70302 0.0
C2780 C 0.41412 0.47543 0.71699 0.0
N2781 N 0.40952 0.4658 0.71587 0.0
C2782 C 0.41336 0.48217 0.68591 0.0
C2783 C 0.40313 0.46895 0.65336 0.0
C2784 C 0.40408 0.46248 0.68503 0.0
C2785 C 0.40788 0.4789 0.65342 0.0
H2786 H 0.41851 0.4778 0.74171 0.0
H2787 H 0.40058 0.45475 0.68492 0.0
O2788 O 0.41275 0.43807 0.82644 0.0
O2789 O 0.42092 0.45994 0.79685 0.0
O2790 O 0.41686 0.44272 0.74145 0.0
O2791 O 0.39762 0.45212 0.78417 0.0
H2792 H 0.41827 0.43826 0.89872 0.0
H2793 H 0.41417 0.41847 0.80104 0.0
H2794 H 0.42415 0.42269 0.93511 0.0
H2795 H 0.42022 0.40329 0.83897 0.0
H2796 H 0.41778 0.49188 0.85337 0.0
H2797 H 0.43826 0.45924 0.83814 0.0
H2798 H 0.41145 0.47818 0.80898 0.0
H2799 H 0.44417 0.4733 0.88181 0.0
H2800 H 0.45659 0.43118 0.85176 0.0
H2801 H 0.45885 0.44357 0.73801 0.0
H2802 H 0.38617 0.47543 0.90689 0.0
H2803 H 0.41727 0.46832 0.94826 0.0
H2804 H 0.41737 0.445 0.66698 0.0
H2805 H 0.42616 0.4247 0.75905 0.0
H2806 H 0.4248 0.43201 0.62205 0.0
H2807 H 0.43332 0.41202 0.7126 0.0
H2808 H 0.38392 0.44431 0.73526 0.0
H2809 H 0.39469 0.47267 0.78903 0.0
H2810 H 0.37096 0.45486 0.69912 0.0
H2811 H 0.38155 0.48273 0.75196 0.0
H2812 H 0.38201 0.4069 0.7873 0.0
H2813 H 0.39047 0.41717 0.6748 0.0
H2814 H 0.41726 0.48972 0.6869 0.0
H2815 H 0.39875 0.46617 0.62907 0.0
C2816 C 0.12492 0.10199 0.84737 0.0
C2817 C 0.11708 0.09619 0.86571 0.0
C2818 C 0.13137 0.10891 0.86775 0.0
C2819 C 0.12988 0.11006 0.90728 0.0
C2820 C 0.1216 0.10465 0.9255 0.0
C2821 C 0.1153 0.09777 0.90448 0.0
C2822 C 0.14012 0.11458 0.84735 0.0
C2823 C 0.1197 0.10575 0.96752 0.0
C2824 C 0.15396 0.11683 0.9653 0.0
C2825 C 0.15262 0.12762 0.97139 0.0
C2826 C 0.14655 0.11102 0.94482 0.0
C2827 C 0.13756 0.11614 0.9301 0.0
C2828 C 0.13602 0.12699 0.93687 0.0
C2829 C 0.14359 0.13261 0.9575 0.0
C2830 C 0.14841 0.09944 0.93845 0.0
C2831 C 0.12653 0.13269 0.92162 0.0
H2832 H 0.12633 0.10075 0.81743 0.0
H2833 H 0.10911 0.09343 0.91857 0.0
H2834 H 0.13994 0.12308 0.85412 0.0
H2835 H 0.1478 0.11148 0.85704 0.0
H2836 H 0.13961 0.11361 0.81615 0.0
H2837 H 0.11234 0.10181 0.97663 0.0
H2838 H 0.12636 0.10223 0.98332 0.0
H2839 H 0.11928 0.11416 0.97556 0.0
H2840 H 0.16088 0.11293 0.97638 0.0
H2841 H 0.1426 0.14099 0.96176 0.0
H2842 H 0.14897 0.0978 0.90766 0.0
H2843 H 0.1417 0.09482 0.94961 0.0
H2844 H 0.15573 0.09663 0.95231 0.0
H2845 H 0.12659 0.13245 0.89022 0.0
H2846 H 0.12626 0.14103 0.93084 0.0
H2847 H 0.11923 0.12872 0.93109 0.0
C2848 C 0.13258 0.90513 0.21716 0.0
C2849 C 0.12161 0.90428 0.21876 0.0
C2850 C 0.13858 0.89808 0.19571 0.0
C2851 C 0.13349 0.88988 0.17577 0.0
C2852 C 0.12245 0.88879 0.17805 0.0
C2853 C 0.11663 0.89605 0.19934 0.0
C2854 C 0.15034 0.8995 0.19392 0.0
C2855 C 0.11679 0.88007 0.1575 0.0
C2856 C 0.14882 0.87847 0.09333 0.0
C2857 C 0.15374 0.86987 0.11057 0.0
C2858 C 0.14191 0.88489 0.11393 0.0
C2859 C 0.13981 0.88252 0.15239 0.0
C2860 C 0.14435 0.87353 0.16927 0.0
C2861 C 0.15133 0.86735 0.1482 0.0
C2862 C 0.13728 0.89447 0.0951 0.0
C2863 C 0.14214 0.87064 0.20997 0.0
H2864 H 0.13649 0.91137 0.23252 0.0
H2865 H 0.10814 0.89544 0.19991 0.0
H2866 H 0.15434 0.89233 0.20443 0.0
H2867 H 0.15284 0.90068 0.16411 0.0
H2868 H 0.15307 0.90632 0.21093 0.0
H2869 H 0.10823 0.88001 0.16369 0.0
H2870 H 0.11789 0.88096 0.12652 0.0
H2871 H 0.12015 0.87235 0.1656 0.0
H2872 H 0.15073 0.88043 0.06427 0.0
H2873 H 0.15506 0.86061 0.16132 0.0
H2874 H 0.1404 0.90166 0.10881 0.0
H2875 H 0.12862 0.89457 0.09866 0.0
H2876 H 0.13913 0.89481 0.06439 0.0
H2877 H 0.14553 0.87669 0.22901 0.0
H2878 H 0.14553 0.86289 0.21771 0.0
H2879 H 0.13355 0.87044 0.21518 0.0
C2880 C 0.38369 0.89617 0.37674 0.0
C2881 C 0.37857 0.90355 0.35371 0.0
C2882 C 0.37794 0.88916 0.39937 0.0
C2883 C 0.36684 0.88952 0.39877 0.0
C2884 C 0.36163 0.89678 0.37487 0.0
C2885 C 0.36757 0.90374 0.35273 0.0
C2886 C 0.38376 0.88159 0.42473 0.0
C2887 C 0.3498 0.89731 0.37313 0.0
C2888 C 0.3511 0.86618 0.43422 0.0
C2889 C 0.34765 0.86983 0.46948 0.0
C2890 C 0.35747 0.87245 0.41102 0.0
C2891 C 0.36061 0.88251 0.42387 0.0
C2892 C 0.35744 0.88606 0.46013 0.0
C2893 C 0.35085 0.87972 0.48233 0.0
C2894 C 0.36052 0.86848 0.37227 0.0
C2895 C 0.3608 0.89665 0.4751 0.0
H2896 H 0.39219 0.89611 0.37803 0.0
H2897 H 0.3636 0.90938 0.33474 0.0
H2898 H 0.38188 0.88329 0.45478 0.0
H2899 H 0.3812 0.87342 0.41894 0.0
H2900 H 0.39241 0.88206 0.4209 0.0
H2901 H 0.34697 0.90308 0.35183 0.0
H2902 H 0.34652 0.88948 0.36605 0.0
H2903 H 0.34662 0.89956 0.40123 0.0
H2904 H 0.34847 0.85857 0.42422 0.0
H2905 H 0.34813 0.8825 0.50963 0.0
H2906 H 0.36918 0.86868 0.36888 0.0
H2907 H 0.35713 0.87369 0.35023 0.0
H2908 H 0.35773 0.86034 0.3671 0.0
H2909 H 0.36947 0.89741 0.47367 0.0
H2910 H 0.35825 0.89792 0.50483 0.0
H2911 H 0.35741 0.90296 0.45724 0.0
C2912 C 0.37216 0.10114 0.72613 0.0
C2913 C 0.3805 0.09603 0.70802 0.0
C2914 C 0.36567 0.10812 0.70615 0.0
C2915 C 0.36769 0.1101 0.66735 0.0
C2916 C 0.37642 0.10534 0.64948 0.0
C2917 C 0.38268 0.0983 0.66999 0.0
C2918 C 0.35638 0.11298 0.72607 0.0
C2919 C 0.37893 0.1074 0.60837 0.0
C2920 C 0.34454 0.11768 0.60567 0.0
C2921 C 0.34557 0.12864 0.60367 0.0
C2922 C 0.35171 0.11158 0.62618 0.0
C2923 C 0.36023 0.11653 0.64477 0.0
C2924 C 0.3615 0.12754 0.64205 0.0
C2925 C 0.35412 0.13348 0.62168 0.0
C2926 C 0.35008 0.09984 0.62845 0.0
C2927 C 0.37055 0.13307 0.66118 0.0
H2928 H 0.37045 0.09933 0.75548 0.0
H2929 H 0.38923 0.09444 0.65615 0.0
H2930 H 0.35643 0.12163 0.72233 0.0
H2931 H 0.34899 0.11 0.71333 0.0
H2932 H 0.3563 0.11119 0.75684 0.0
H2933 H 0.38652 0.10382 0.5997 0.0
H2934 H 0.37261 0.10413 0.59024 0.0
H2935 H 0.37927 0.11597 0.60289 0.0
H2936 H 0.33805 0.11386 0.59133 0.0
H2937 H 0.3549 0.14195 0.62073 0.0
H2938 H 0.34915 0.09742 0.65844 0.0
H2939 H 0.35706 0.09568 0.61713 0.0
H2940 H 0.34305 0.09722 0.61239 0.0
H2941 H 0.36997 0.13205 0.6923 0.0
H2942 H 0.37073 0.14161 0.65472 0.0
H2943 H 0.37811 0.12953 0.65215 0.0
C2944 C 0.85325 0.86509 0.13468 0.0
C2945 C 0.84505 0.87047 0.11667 0.0
C2946 C 0.86055 0.87046 0.15729 0.0
C2947 C 0.85965 0.88148 0.16161 0.0
C2948 C 0.85151 0.88698 0.14276 0.0
C2949 C 0.84428 0.88139 0.12066 0.0
C2950 C 0.86907 0.86434 0.17719 0.0
C2951 C 0.85039 0.89875 0.14627 0.0
C2952 C 0.87125 0.89559 0.2465 0.0
C2953 C 0.88036 0.89998 0.23087 0.0
C2954 C 0.86462 0.88921 0.22462 0.0
C2955 C 0.86712 0.88731 0.18614 0.0
C2956 C 0.87644 0.89151 0.17052 0.0
C2957 C 0.88297 0.89777 0.19313 0.0
C2958 C 0.8548 0.88475 0.24235 0.0
C2959 C 0.87931 0.88976 0.12951 0.0
H2960 H 0.85377 0.85662 0.132 0.0
H2961 H 0.83798 0.88556 0.1065 0.0
H2962 H 0.8769 0.86748 0.16934 0.0
H2963 H 0.86824 0.86526 0.20829 0.0
H2964 H 0.86883 0.85584 0.1702 0.0
H2965 H 0.84382 0.90186 0.12885 0.0
H2966 H 0.84897 0.90091 0.17626 0.0
H2967 H 0.85777 0.90267 0.13735 0.0
H2968 H 0.86926 0.89726 0.27572 0.0
H2969 H 0.88993 0.9013 0.18079 0.0
H2970 H 0.85443 0.87613 0.23769 0.0
H2971 H 0.84778 0.88824 0.22868 0.0
H2972 H 0.85439 0.88631 0.27325 0.0
H2973 H 0.8793 0.88125 0.12285 0.0
H2974 H 0.88715 0.89304 0.12238 0.0
H2975 H 0.87336 0.89353 0.11102 0.0
C2976 C 0.86874 0.09331 0.87904 0.0
C2977 C 0.87954 0.09444 0.87256 0.0
C2978 C 0.86317 0.10077 0.90021 0.0
C2979 C 0.86856 0.10954 0.91543 0.0
C2980 C 0.87945 0.11076 0.90885 0.0
C2981 C 0.88482 0.1032 0.88735 0.0
C2982 C 0.85153 0.09926 0.90631 0.0
C2983 C 0.88544 0.11998 0.9248 0.0
C2984 C 0.85142 0.13286 0.9401 0.0
C2985 C 0.84969 0.1313 0.97892 0.0
C2986 C 0.85786 0.12605 0.91935 0.0
C2987 C 0.86269 0.11746 0.93787 0.0
C2988 C 0.8613 0.11607 0.97734 0.0
C2989 C 0.85478 0.123 0.9974 0.0
C2990 C 0.8591 0.12776 0.87727 0.0
C2991 C 0.86641 0.10704 0.99809 0.0
H2992 H 0.86464 0.08659 0.86734 0.0
H2993 H 0.8932 0.10401 0.88282 0.0
H2994 H 0.84981 0.09876 0.93705 0.0
H2995 H 0.84716 0.10611 0.89501 0.0
H2996 H 0.84852 0.09203 0.89238 0.0
H2997 H 0.89389 0.11979 0.917 0.0
H2998 H 0.88199 0.12744 0.91437 0.0
H2999 H 0.88479 0.12004 0.95612 0.0
H3000 H 0.84737 0.13916 0.92549 0.0
H3001 H 0.85353 0.12182 0.02746 0.0
H3002 H 0.85536 0.12119 0.86166 0.0
H3003 H 0.86754 0.12783 0.86944 0.0
H3004 H 0.85548 0.13525 0.86772 0.0
H3005 H 0.86306 0.09951 0.98793 0.0
H3006 H 0.86523 0.10755 0.0292 0.0
H3007 H 0.87496 0.10686 0.99212 0.0
C3008 C 0.64629 0.13288 0.62499 0.0
C3009 C 0.6547 0.12747 0.60829 0.0
C3010 C 0.6389 0.12758 0.64746 0.0
C3011 C 0.63994 0.11663 0.6532 0.0
C3012 C 0.64832 0.11111 0.63591 0.0
C3013 C 0.65561 0.1166 0.61373 0.0
C3014 C 0.6301 0.13373 0.66557 0.0
C3015 C 0.64963 0.09941 0.64111 0.0
C3016 C 0.62755 0.10316 0.73804 0.0
C3017 C 0.61875 0.09838 0.72156 0.0
C3018 C 0.63434 0.10943 0.71637 0.0
C3019 C 0.6323 0.11089 0.6773 0.0
C3020 C 0.62325 0.10635 0.6608 0.0
C3021 C 0.61659 0.10015 0.68313 0.0
C3022 C 0.64387 0.11423 0.735 0.0
C3023 C 0.62083 0.10768 0.61921 0.0
H3024 H 0.64566 0.14131 0.62134 0.0
H3025 H 0.66207 0.1124 0.60063 0.0
H3026 H 0.6224 0.13042 0.65696 0.0
H3027 H 0.63061 0.13307 0.69684 0.0
H3028 H 0.63029 0.14218 0.65775 0.0
H3029 H 0.65649 0.09627 0.62526 0.0
H3030 H 0.65068 0.09756 0.67158 0.0
H3031 H 0.64246 0.09525 0.63142 0.0
H3032 H 0.6292 0.10188 0.76779 0.0
H3033 H 0.6099 0.09633 0.67004 0.0
H3034 H 0.64415 0.1228 0.72941 0.0
H3035 H 0.65111 0.11075 0.72279 0.0
H3036 H 0.64396 0.11294 0.76611 0.0
H3037 H 0.62081 0.11613 0.61155 0.0
H3038 H 0.61313 0.10422 0.61133 0.0
H3039 H 0.62704 0.10383 0.60208 0.0
C3040 C 0.63251 0.90583 0.36295 0.0
C3041 C 0.62159 0.90491 0.35904 0.0
C3042 C 0.6382 0.8987 0.3852 0.0
C3043 C 0.63282 0.89052 0.40426 0.0
C3044 C 0.62181 0.8895 0.40013 0.0
C3045 C 0.61632 0.8967 0.37742 0.0
C3046 C 0.64995 0.89996 0.38856 0.0
C3047 C 0.6158 0.88093 0.42025 0.0
C3048 C 0.64916 0.86717 0.43543 0.0
C3049 C 0.65129 0.86968 0.47333 0.0
C3050 C 0.64297 0.87377 0.41284 0.0
C3051 C 0.63876 0.88308 0.4286 0.0
C3052 C 0.64062 0.8855 0.46715 0.0
C3053 C 0.64693 0.87879 0.48904 0.0
C3054 C 0.64123 0.87096 0.37177 0.0
C3055 C 0.63617 0.89531 0.48503 0.0
H3056 H 0.63659 0.91214 0.34856 0.0
H3057 H 0.60786 0.89608 0.3749 0.0
H3058 H 0.65213 0.90135 0.41856 0.0
H3059 H 0.65395 0.89265 0.37942 0.0
H3060 H 0.65296 0.9066 0.37125 0.0
H3061 H 0.60727 0.88114 0.41365 0.0
H3062 H 0.61895 0.87313 0.41216 0.0
H3063 H 0.61682 0.88175 0.4513 0.0
H3064 H 0.65267 0.86022 0.42299 0.0
H3065 H 0.64851 0.88071 0.51839 0.0
H3066 H 0.64487 0.87702 0.35338 0.0
H3067 H 0.63271 0.87084 0.36525 0.0
H3068 H 0.64463 0.86319 0.36437 0.0
H3069 H 0.63956 0.90235 0.47118 0.0
H3070 H 0.63783 0.89574 0.51587 0.0
H3071 H 0.62754 0.89562 0.48074 0.0
C3072 C 0.64546 0.63355 0.44664 0.0
C3073 C 0.65115 0.62861 0.47561 0.0
C3074 C 0.63872 0.62778 0.42306 0.0
C3075 C 0.63764 0.61683 0.42874 0.0
C3076 C 0.64307 0.61187 0.45882 0.0
C3077 C 0.6498 0.61782 0.48182 0.0
C3078 C 0.6331 0.63333 0.39116 0.0
C3079 C 0.64204 0.60022 0.46598 0.0
C3080 C 0.61482 0.60189 0.38534 0.0
C3081 C 0.61969 0.59694 0.35452 0.0
C3082 C 0.6205 0.60859 0.40932 0.0
C3083 C 0.63127 0.61043 0.40208 0.0
C3084 C 0.63613 0.60574 0.37021 0.0
C3085 C 0.63029 0.599 0.34691 0.0
C3086 C 0.61507 0.61339 0.44316 0.0
C3087 C 0.64758 0.60761 0.36131 0.0
H3088 H 0.6466 0.64186 0.44138 0.0
H3089 H 0.65414 0.61401 0.50436 0.0
H3090 H 0.63606 0.63038 0.3636 0.0
H3091 H 0.62456 0.63161 0.39223 0.0
H3092 H 0.63423 0.64198 0.39214 0.0
H3093 H 0.64628 0.5977 0.49193 0.0
H3094 H 0.63364 0.59805 0.46886 0.0
H3095 H 0.64523 0.59579 0.44151 0.0
H3096 H 0.60666 0.60018 0.39159 0.0
H3097 H 0.63403 0.59523 0.32293 0.0
H3098 H 0.6162 0.62203 0.44335 0.0
H3099 H 0.61861 0.61027 0.46958 0.0
H3100 H 0.60652 0.61168 0.44353 0.0
H3101 H 0.64919 0.61616 0.35955 0.0
H3102 H 0.65 0.60387 0.33426 0.0
H3103 H 0.65253 0.6044 0.38443 0.0
C3104 C 0.62603 0.39759 0.72553 0.0
C3105 C 0.61757 0.40249 0.70738 0.0
C3106 C 0.63254 0.39058 0.70581 0.0
C3107 C 0.63042 0.38836 0.66725 0.0
C3108 C 0.62157 0.3929 0.6494 0.0
C3109 C 0.61528 0.39997 0.66965 0.0
C3110 C 0.64196 0.38594 0.72569 0.0
C3111 C 0.61896 0.39058 0.60854 0.0
C3112 C 0.65347 0.3808 0.60512 0.0
C3113 C 0.65255 0.36983 0.60378 0.0
C3114 C 0.64629 0.38691 0.62557 0.0
C3115 C 0.6379 0.38193 0.64481 0.0
C3116 C 0.63676 0.37089 0.64284 0.0
C3117 C 0.64413 0.36496 0.62248 0.0
C3118 C 0.64777 0.39867 0.62703 0.0
C3119 C 0.62785 0.36534 0.66275 0.0
H3120 H 0.62782 0.39959 0.75466 0.0
H3121 H 0.60864 0.40367 0.6558 0.0
H3122 H 0.64203 0.37728 0.72244 0.0
H3123 H 0.64926 0.38899 0.71254 0.0
H3124 H 0.64209 0.38788 0.75635 0.0
H3125 H 0.61129 0.394 0.59994 0.0
H3126 H 0.62517 0.39386 0.58994 0.0
H3127 H 0.61873 0.38198 0.60366 0.0
H3128 H 0.65987 0.38462 0.5903 0.0
H3129 H 0.64346 0.35647 0.62207 0.0
H3130 H 0.64876 0.40125 0.65682 0.0
H3131 H 0.64069 0.40268 0.61573 0.0
H3132 H 0.65471 0.40131 0.61051 0.0
H3133 H 0.62851 0.36655 0.69376 0.0
H3134 H 0.62779 0.35677 0.65694 0.0
H3135 H 0.62021 0.36871 0.65374 0.0
C3136 C 0.87622 0.39546 0.84989 0.0
C3137 C 0.87944 0.40518 0.86437 0.0
C3138 C 0.86987 0.38871 0.87144 0.0
C3139 C 0.86673 0.39178 0.90828 0.0
C3140 C 0.87031 0.4014 0.92356 0.0
C3141 C 0.87663 0.40798 0.90141 0.0
C3142 C 0.8662 0.37849 0.85425 0.0
C3143 C 0.86718 0.40491 0.96281 0.0
C3144 C 0.84084 0.38094 0.94363 0.0
C3145 C 0.84414 0.37286 0.96781 0.0
C3146 C 0.84814 0.38722 0.9245 0.0
C3147 C 0.859 0.38536 0.92959 0.0
C3148 C 0.8624 0.37736 0.95462 0.0
C3149 C 0.8549 0.37121 0.9736 0.0
C3150 C 0.8442 0.39577 0.89843 0.0
C3151 C 0.87393 0.37515 0.96064 0.0
H3152 H 0.87838 0.39328 0.82127 0.0
H3153 H 0.87933 0.4154 0.913 0.0
H3154 H 0.86788 0.37186 0.87373 0.0
H3155 H 0.85757 0.37875 0.84998 0.0
H3156 H 0.87001 0.37688 0.82656 0.0
H3157 H 0.87129 0.41223 0.97155 0.0
H3158 H 0.85859 0.40635 0.96373 0.0
H3159 H 0.86894 0.39867 0.98378 0.0
H3160 H 0.83252 0.3823 0.93953 0.0
H3161 H 0.85746 0.3649 0.99207 0.0
H3162 H 0.84694 0.39425 0.86911 0.0
H3163 H 0.84746 0.40347 0.9072 0.0
H3164 H 0.83549 0.39632 0.89821 0.0
H3165 H 0.87755 0.37263 0.93357 0.0
H3166 H 0.87527 0.36892 0.98215 0.0
H3167 H 0.87803 0.3824 0.96981 0.0
C3168 C 0.8547 0.62934 0.10532 0.0
C3169 C 0.844 0.6288 0.11478 0.0
C3170 C 0.86206 0.62265 0.12246 0.0
C3171 C 0.85868 0.61538 0.15022 0.0
C3172 C 0.84794 0.61483 0.16013 0.0
C3173 C 0.84072 0.62144 0.14196 0.0
C3174 C 0.87344 0.6233 0.11072 0.0
C3175 C 0.84404 0.60725 0.18988 0.0
C3176 C 0.87468 0.59097 0.17128 0.0
C3177 C 0.88012 0.59388 0.20426 0.0
C3178 C 0.86793 0.59799 0.15286 0.0
C3179 C 0.86631 0.60811 0.16831 0.0
C3180 C 0.87167 0.61111 0.2017 0.0
C3181 C 0.8786 0.60401 0.21905 0.0
C3182 C 0.86245 0.59454 0.11701 0.0
C3183 C 0.86998 0.62178 0.21936 0.0
H3184 H 0.85735 0.63508 0.08478 0.0
H3185 H 0.83247 0.62076 0.14892 0.0
H3186 H 0.87841 0.62526 0.13555 0.0
H3187 H 0.87612 0.61557 0.09993 0.0
H3188 H 0.87478 0.62931 0.08841 0.0
H3189 H 0.83551 0.60817 0.19562 0.0
H3190 H 0.8455 0.59905 0.18061 0.0
H3191 H 0.84841 0.60844 0.21673 0.0
H3192 H 0.87557 0.58311 0.15999 0.0
H3193 H 0.88286 0.60643 0.24412 0.0
H3194 H 0.86393 0.60029 0.094 0.0
H3195 H 0.85384 0.59429 0.1217 0.0
H3196 H 0.86507 0.58666 0.10738 0.0
H3197 H 0.87201 0.62805 0.19882 0.0
H3198 H 0.87475 0.62291 0.24537 0.0
H3199 H 0.86157 0.62279 0.22673 0.0
C3200 C 0.34942 0.37939 0.58947 0.0
C3201 C 0.34658 0.36921 0.60058 0.0
C3202 C 0.35607 0.38556 0.61197 0.0
C3203 C 0.3601 0.38139 0.6462 0.0
C3204 C 0.35752 0.37102 0.65708 0.0
C3205 C 0.35073 0.36507 0.63428 0.0
C3206 C 0.35864 0.39661 0.59946 0.0
C3207 C 0.36176 0.36627 0.69316 0.0
C3208 C 0.38393 0.39563 0.68478 0.0
C3209 C 0.37935 0.40227 0.71176 0.0
C3210 C 0.37782 0.38842 0.66444 0.0
C3211 C 0.36686 0.38801 0.6708 0.0
C3212 C 0.36226 0.39444 0.69905 0.0
C3213 C 0.3686 0.40146 0.71947 0.0
C3214 C 0.38304 0.38153 0.63516 0.0
C3215 C 0.35058 0.3943 0.70635 0.0
H3216 H 0.34636 0.38259 0.56324 0.0
H3217 H 0.34844 0.35728 0.64347 0.0
H3218 H 0.35597 0.4023 0.62122 0.0
H3219 H 0.36727 0.39756 0.59655 0.0
H3220 H 0.3549 0.39866 0.57204 0.0
H3221 H 0.3595 0.35789 0.69642 0.0
H3222 H 0.37045 0.36686 0.69371 0.0
H3223 H 0.35875 0.37071 0.71791 0.0
H3224 H 0.39227 0.39626 0.67905 0.0
H3225 H 0.36508 0.40668 0.74012 0.0
H3226 H 0.3804 0.38389 0.60645 0.0
H3227 H 0.38072 0.37321 0.6393 0.0
H3228 H 0.39174 0.38209 0.63626 0.0
H3229 H 0.34636 0.39717 0.68087 0.0
H3230 H 0.34834 0.3993 0.73082 0.0
H3231 H 0.34787 0.38616 0.71179 0.0
C3232 C 0.35291 0.63426 0.43634 0.0
C3233 C 0.34426 0.629 0.45201 0.0
C3234 C 0.36034 0.62887 0.41438 0.0
C3235 C 0.3591 0.61796 0.40812 0.0
C3236 C 0.35045 0.61259 0.42422 0.0
C3237 C 0.34312 0.61819 0.4459 0.0
C3238 C 0.36945 0.63485 0.39756 0.0
C3239 C 0.34891 0.60093 0.41847 0.0
C3240 C 0.37227 0.60442 0.3249 0.0
C3241 C 0.38081 0.59949 0.34259 0.0
C3242 C 0.3653 0.61073 0.34569 0.0
C3243 C 0.36689 0.61207 0.38508 0.0
C3244 C 0.37565 0.60734 0.40287 0.0
C3245 C 0.38249 0.60111 0.38142 0.0
C3246 C 0.35608 0.61572 0.32573 0.0
C3247 C 0.37758 0.60855 0.44483 0.0
H3248 H 0.35373 0.64266 0.44054 0.0
H3249 H 0.33649 0.61409 0.45825 0.0
H3250 H 0.37698 0.63142 0.40741 0.0
H3251 H 0.36931 0.63416 0.36625 0.0
H3252 H 0.36931 0.64331 0.40524 0.0
H3253 H 0.34179 0.59794 0.43306 0.0
H3254 H 0.34822 0.59917 0.38781 0.0
H3255 H 0.35584 0.59658 0.42926 0.0
H3256 H 0.37098 0.60325 0.29486 0.0
H3257 H 0.38896 0.59717 0.39543 0.0
H3258 H 0.35592 0.62429 0.3313 0.0
H3259 H 0.34865 0.61239 0.33691 0.0
H3260 H 0.35631 0.61443 0.29463 0.0
H3261 H 0.37775 0.61699 0.45266 0.0
H3262 H 0.38509 0.60487 0.45389 0.0
H3263 H 0.37107 0.60486 0.46088 0.0
C3264 C 0.11632 0.60378 0.19189 0.0
C3265 C 0.12161 0.59553 0.21004 0.0
C3266 C 0.1218 0.61106 0.16953 0.0
C3267 C 0.13281 0.61007 0.16545 0.0
C3268 C 0.1382 0.60186 0.18429 0.0
C3269 C 0.13252 0.59467 0.20628 0.0
C3270 C 0.11579 0.61968 0.14972 0.0
C3271 C 0.14996 0.60062 0.18092 0.0
C3272 C 0.14703 0.62176 0.08099 0.0
C3273 C 0.15156 0.63076 0.09696 0.0
C3274 C 0.14061 0.61512 0.10266 0.0
C3275 C 0.13875 0.61753 0.14123 0.0
C3276 C 0.14305 0.62676 0.15718 0.0
C3277 C 0.1494 0.63328 0.13484 0.0
C3278 C 0.13606 0.60538 0.0846 0.0
C3279 C 0.14129 0.62956 0.19825 0.0
H3280 H 0.10785 0.60437 0.19433 0.0
H3281 H 0.13663 0.58835 0.22056 0.0
H3282 H 0.11899 0.62746 0.15785 0.0
H3283 H 0.11675 0.6189 0.11862 0.0
H3284 H 0.10728 0.6195 0.15652 0.0
H3285 H 0.15298 0.59395 0.19805 0.0
H3286 H 0.15214 0.5993 0.15089 0.0
H3287 H 0.15395 0.60792 0.19028 0.0
H3288 H 0.14862 0.61985 0.05164 0.0
H3289 H 0.15302 0.64014 0.14749 0.0
H3290 H 0.12744 0.60511 0.08902 0.0
H3291 H 0.13944 0.59829 0.09821 0.0
H3292 H 0.13768 0.60501 0.05373 0.0
H3293 H 0.13277 0.6296 0.20481 0.0
H3294 H 0.14463 0.63736 0.20564 0.0
H3295 H 0.14499 0.62353 0.21662 0.0
C3296 C 0.11928 0.40583 0.90941 0.0
C3297 C 0.12093 0.40675 0.87032 0.0
C3298 C 0.12505 0.39862 0.93106 0.0
C3299 C 0.13277 0.39234 0.9132 0.0
C3300 C 0.13439 0.39319 0.87363 0.0
C3301 C 0.12837 0.40034 0.85256 0.0
C3302 C 0.12295 0.39779 0.97302 0.0
C3303 C 0.14264 0.38671 0.85369 0.0
C3304 C 0.15529 0.38142 0.97148 0.0
C3305 C 0.15249 0.37082 0.97447 0.0
C3306 C 0.14884 0.38857 0.95219 0.0
C3307 C 0.1393 0.38502 0.93596 0.0
C3308 C 0.13623 0.37441 0.94025 0.0
C3309 C 0.14291 0.3674 0.95924 0.0
C3310 C 0.15242 0.39982 0.9479 0.0
C3311 C 0.12604 0.37038 0.92394 0.0
H3312 H 0.11342 0.41072 0.92299 0.0
H3313 H 0.12965 0.40111 0.82234 0.0
H3314 H 0.12106 0.38955 0.98062 0.0
H3315 H 0.1301 0.40002 0.98911 0.0
H3316 H 0.11637 0.40292 0.98222 0.0
H3317 H 0.14289 0.38828 0.82277 0.0
H3318 H 0.15049 0.38843 0.86584 0.0
H3319 H 0.1411 0.37823 0.85814 0.0
H3320 H 0.16276 0.38404 0.98284 0.0
H3321 H 0.14072 0.3592 0.96177 0.0
H3322 H 0.14628 0.40526 0.95846 0.0
H3323 H 0.15366 0.40162 0.91749 0.0
H3324 H 0.15984 0.40141 0.96343 0.0
H3325 H 0.11939 0.37534 0.93363 0.0
H3326 H 0.12446 0.36211 0.93209 0.0
H3327 H 0.12628 0.37088 0.8926 0.0
C3328 C 0.24314 0.15372 0.8707 0.0
C3329 C 0.23267 0.15703 0.86824 0.0
C3330 C 0.24958 0.15347 0.83848 0.0
C3331 C 0.24546 0.15674 0.80316 0.0
C3332 C 0.23484 0.15993 0.80044 0.0
C3333 C 0.22855 0.16 0.83302 0.0
C3334 C 0.26083 0.14988 0.84233 0.0
C3335 C 0.23019 0.16357 0.76335 0.0
C3336 C 0.26439 0.16719 0.72943 0.0
C3337 C 0.26509 0.15872 0.70416 0.0
C3338 C 0.25805 0.16662 0.7618 0.0
C3339 C 0.25237 0.15731 0.76937 0.0
C3340 C 0.25315 0.14866 0.74435 0.0
C3341 C 0.25946 0.14949 0.71193 0.0
C3342 C 0.25739 0.17603 0.78778 0.0
C3343 C 0.24724 0.13858 0.75168 0.0
H3344 H 0.24629 0.15131 0.89786 0.0
H3345 H 0.22048 0.16266 0.83115 0.0
H3346 H 0.26248 0.14347 0.82192 0.0
H3347 H 0.26622 0.15646 0.83544 0.0
H3348 H 0.26266 0.14705 0.87134 0.0
H3349 H 0.22169 0.16542 0.76575 0.0
H3350 H 0.23438 0.17071 0.75345 0.0
H3351 H 0.23124 0.15745 0.74134 0.0
H3352 H 0.26887 0.17428 0.72408 0.0
H3353 H 0.25987 0.14295 0.69235 0.0
H3354 H 0.25999 0.17382 0.81668 0.0
H3355 H 0.24912 0.17872 0.78997 0.0
H3356 H 0.26228 0.18269 0.77777 0.0
H3357 H 0.24927 0.13547 0.7801 0.0
H3358 H 0.249 0.13245 0.73021 0.0
H3359 H 0.23867 0.14012 0.75152 0.0
C3360 C 0.09798 0.97884 0.08052 0.0
C3361 C 0.09268 0.98287 0.11216 0.0
C3362 C 0.09865 0.98462 0.04679 0.0
C3363 C 0.09391 0.99466 0.04476 0.0
C3364 C 0.0888 0.99888 0.07692 0.0
C3365 C 0.08824 0.99293 0.11023 0.0
C3366 C 0.10417 0.97987 0.01304 0.0
C3367 C 0.08371 0.0096 0.07589 0.0
C3368 C 0.10124 0.01411 0.96782 0.0
C3369 C 0.09271 0.01312 0.94293 0.0
C3370 C 0.10192 0.00792 0.00059 0.0
C3371 C 0.09386 0.00059 0.00859 0.0
C3372 C 0.0854 0.99933 0.98297 0.0
C3373 C 0.08493 0.00561 0.95043 0.0
C3374 C 0.11109 0.00942 0.02714 0.0
C3375 C 0.07666 0.9916 0.99059 0.0
H3376 H 0.10133 0.97102 0.08176 0.0
H3377 H 0.08429 0.99614 0.13482 0.0
H3378 H 0.09843 0.97853 0.98992 0.0
H3379 H 0.1102 0.98537 0.00207 0.0
H3380 H 0.10801 0.97228 0.01999 0.0
H3381 H 0.08039 0.0119 0.10376 0.0
H3382 H 0.08953 0.01561 0.06711 0.0
H3383 H 0.0773 0.00966 0.05463 0.0
H3384 H 0.10735 0.0198 0.96183 0.0
H3385 H 0.07827 0.0049 0.93152 0.0
H3386 H 0.11496 0.00178 0.03288 0.0
H3387 H 0.10824 0.01251 0.05466 0.0
H3388 H 0.11702 0.01496 0.01562 0.0
H3389 H 0.07994 0.98365 0.99572 0.0
H3390 H 0.07098 0.99113 0.96677 0.0
H3391 H 0.07234 0.99395 0.01653 0.0
C3392 C 0.23155 0.83417 0.2364 0.0
C3393 C 0.23483 0.83849 0.20184 0.0
C3394 C 0.23816 0.8342 0.26813 0.0
C3395 C 0.24828 0.83873 0.26532 0.0
C3396 C 0.2516 0.84323 0.23071 0.0
C3397 C 0.24485 0.84302 0.19933 0.0
C3398 C 0.23435 0.8293 0.30459 0.0
C3399 C 0.26233 0.84817 0.22674 0.0
C3400 C 0.26188 0.84636 0.35689 0.0
C3401 C 0.26869 0.83784 0.36245 0.0
C3402 C 0.25529 0.84683 0.32511 0.0
C3403 C 0.25546 0.83854 0.29844 0.0
C3404 C 0.26235 0.82995 0.30374 0.0
C3405 C 0.26892 0.82972 0.33558 0.0
C3406 C 0.24806 0.85615 0.32026 0.0
C3407 C 0.26272 0.82094 0.27593 0.0
H3408 H 0.22375 0.83081 0.23875 0.0
H3409 H 0.2475 0.84626 0.17261 0.0
H3410 H 0.23965 0.82278 0.31293 0.0
H3411 H 0.23454 0.83519 0.32772 0.0
H3412 H 0.22623 0.82618 0.30215 0.0
H3413 H 0.26358 0.85165 0.19825 0.0
H3414 H 0.26337 0.85441 0.24833 0.0
H3415 H 0.2685 0.84218 0.23183 0.0
H3416 H 0.26156 0.8526 0.37774 0.0
H3417 H 0.27429 0.8232 0.3393 0.0
H3418 H 0.23977 0.85349 0.32056 0.0
H3419 H 0.24948 0.85994 0.29244 0.0
H3420 H 0.24914 0.86211 0.34289 0.0
H3421 H 0.25489 0.81718 0.27398 0.0
H3422 H 0.26858 0.81488 0.28407 0.0
H3423 H 0.26472 0.82391 0.24729 0.0
C3424 C 0.40794 0.01871 0.58643 0.0
C3425 C 0.41164 0.01472 0.62096 0.0
C3426 C 0.4078 0.01246 0.55374 0.0
C3427 C 0.41143 0.00196 0.55569 0.0
C3428 C 0.41506 0.99785 0.59054 0.0
C3429 C 0.41514 0.00429 0.62277 0.0
C3430 C 0.40391 0.01712 0.51701 0.0
C3431 C 0.41893 0.98667 0.59374 0.0
C3432 C 0.40311 0.98284 0.47888 0.0
C3433 C 0.41209 0.98256 0.45593 0.0
C3434 C 0.40277 0.98915 0.51143 0.0
C3435 C 0.41161 0.99533 0.52109 0.0
C3436 C 0.42066 0.99514 0.49786 0.0
C3437 C 0.4208 0.98873 0.46559 0.0
C3438 C 0.393 0.98912 0.53565 0.0
C3439 C 0.43021 0.0017 0.50712 0.0
H3440 H 0.40535 0.02681 0.58478 0.0
H3441 H 0.41789 0.00114 0.64951 0.0
H3442 H 0.4103 0.01701 0.49565 0.0
H3443 H 0.39736 0.01234 0.50559 0.0
H3444 H 0.40115 0.02535 0.52047 0.0
H3445 H 0.42129 0.98461 0.62309 0.0
H3446 H 0.41269 0.98115 0.58447 0.0
H3447 H 0.42577 0.98548 0.57476 0.0
H3448 H 0.3964 0.97799 0.47173 0.0
H3449 H 0.42771 0.98862 0.44764 0.0
H3450 H 0.38982 0.9972 0.53809 0.0
H3451 H 0.39496 0.98643 0.56469 0.0
H3452 H 0.38677 0.98393 0.524 0.0
H3453 H 0.42801 0.01012 0.5085 0.0
H3454 H 0.43657 0.00074 0.48589 0.0
H3455 H 0.43331 0.99948 0.53535 0.0
C3456 C 0.7625 0.82825 0.22659 0.0
C3457 C 0.76386 0.83735 0.20473 0.0
C3458 C 0.75608 0.82831 0.25884 0.0
C3459 C 0.75094 0.83771 0.26957 0.0
C3460 C 0.75224 0.84691 0.24758 0.0
C3461 C 0.75867 0.84661 0.21536 0.0
C3462 C 0.75485 0.81835 0.28162 0.0
C3463 C 0.74689 0.85708 0.25818 0.0
C3464 C 0.72716 0.83577 0.33391 0.0
C3465 C 0.73152 0.83816 0.36936 0.0
C3466 C 0.73339 0.83559 0.30119 0.0
C3467 C 0.74423 0.83792 0.30395 0.0
C3468 C 0.74868 0.84041 0.33956 0.0
C3469 C 0.74228 0.84046 0.37187 0.0
C3470 C 0.72838 0.8329 0.26367 0.0
C3471 C 0.76021 0.84296 0.34356 0.0
H3472 H 0.7666 0.82111 0.21885 0.0
H3473 H 0.75958 0.85363 0.19831 0.0
H3474 H 0.75772 0.81962 0.31092 0.0
H3475 H 0.74643 0.81617 0.28355 0.0
H3476 H 0.75924 0.81165 0.26909 0.0
H3477 H 0.74873 0.86353 0.23808 0.0
H3478 H 0.73825 0.85594 0.25887 0.0
H3479 H 0.74935 0.85952 0.287 0.0
H3480 H 0.71883 0.83414 0.33166 0.0
H3481 H 0.74573 0.84217 0.39923 0.0
H3482 H 0.73229 0.82592 0.25121 0.0
H3483 H 0.72944 0.83949 0.24348 0.0
H3484 H 0.71985 0.83123 0.26639 0.0
H3485 H 0.76501 0.83619 0.33403 0.0
H3486 H 0.7624 0.8449 0.37319 0.0
H3487 H 0.76225 0.84973 0.32521 0.0
C3488 C 0.90393 0.00571 0.95843 0.0
C3489 C 0.91302 0.01145 0.94956 0.0
C3490 C 0.90358 0.99913 0.99022 0.0
C3491 C 0.91258 0.99815 0.01344 0.0
C3492 C 0.92186 0.0037 0.00419 0.0
C3493 C 0.92195 0.01033 0.9725 0.0
C3494 C 0.89353 0.99336 0.99934 0.0
C3495 C 0.93164 0.00277 0.02818 0.0
C3496 C 0.90892 0.98978 0.11562 0.0
C3497 C 0.91149 0.97907 0.11402 0.0
C3498 C 0.90919 0.99606 0.08303 0.0
C3499 C 0.91219 0.99154 0.04806 0.0
C3500 C 0.91484 0.98076 0.04622 0.0
C3501 C 0.91441 0.97464 0.0792 0.0
C3502 C 0.90626 0.00753 0.08603 0.0
C3503 C 0.91813 0.9757 0.00942 0.0
H3504 H 0.89705 0.00638 0.9405 0.0
H3505 H 0.92895 0.01484 0.96623 0.0
H3506 H 0.89501 0.98479 0.00078 0.0
H3507 H 0.89059 0.99585 0.02754 0.0
H3508 H 0.88728 0.99484 0.97804 0.0
H3509 H 0.93836 0.00721 0.01607 0.0
H3510 H 0.93005 0.0058 0.05706 0.0
H3511 H 0.93393 0.99441 0.03108 0.0
H3512 H 0.90683 0.99331 0.1425 0.0
H3513 H 0.91625 0.96634 0.07762 0.0
H3514 H 0.89967 0.00932 0.06653 0.0
H3515 H 0.913 0.01249 0.07735 0.0
H3516 H 0.90391 0.00977 0.11522 0.0
H3517 H 0.91175 0.97645 0.98821 0.0
H3518 H 0.92006 0.96724 0.01288 0.0
H3519 H 0.92511 0.9798 0.99779 0.0
C3520 C 0.75632 0.16186 0.86976 0.0
C3521 C 0.76721 0.16039 0.86672 0.0
C3522 C 0.74992 0.16212 0.83745 0.0
C3523 C 0.75452 0.16081 0.80128 0.0
C3524 C 0.76549 0.15928 0.79799 0.0
C3525 C 0.77171 0.15913 0.83075 0.0
C3526 C 0.73825 0.16379 0.84203 0.0
C3527 C 0.77065 0.15784 0.75986 0.0
C3528 C 0.73685 0.15209 0.72072 0.0
C3529 C 0.73491 0.16162 0.70205 0.0
C3530 C 0.74329 0.1517 0.75291 0.0
C3531 C 0.74784 0.16108 0.76684 0.0
C3532 C 0.74595 0.17071 0.74807 0.0
C3533 C 0.73952 0.17087 0.71584 0.0
C3534 C 0.74515 0.14128 0.77219 0.0
C3535 C 0.75068 0.18087 0.76212 0.0
H3536 H 0.75278 0.16271 0.89749 0.0
H3537 H 0.78013 0.15816 0.82813 0.0
H3538 H 0.73577 0.17088 0.82613 0.0
H3539 H 0.7339 0.15701 0.82998 0.0
H3540 H 0.73592 0.16474 0.87214 0.0
H3541 H 0.77926 0.15658 0.76223 0.0
H3542 H 0.76715 0.151 0.74503 0.0
H3543 H 0.76924 0.16485 0.74193 0.0
H3544 H 0.7332 0.14494 0.71054 0.0
H3545 H 0.73816 0.17823 0.70123 0.0
H3546 H 0.74221 0.14159 0.80174 0.0
H3547 H 0.75369 0.1396 0.77355 0.0
H3548 H 0.74119 0.13468 0.75733 0.0
H3549 H 0.74808 0.18241 0.79158 0.0
H3550 H 0.74846 0.18769 0.74422 0.0
H3551 H 0.75937 0.18024 0.76261 0.0
C3552 C 0.59697 0.0113 0.60334 0.0
C3553 C 0.58787 0.01631 0.61644 0.0
C3554 C 0.59671 0.00489 0.57108 0.0
C3555 C 0.58712 0.00354 0.55135 0.0
C3556 C 0.57791 0.00859 0.5644 0.0
C3557 C 0.57839 0.0149 0.59691 0.0
C3558 C 0.60667 -0.00046 0.55816 0.0
C3559 C 0.56757 0.0074 0.54389 0.0
C3560 C 0.58842 0.99473 0.44882 0.0
C3561 C 0.58609 0.984 0.45197 0.0
C3562 C 0.58874 0.0012 0.48094 0.0
C3563 C 0.58673 0.99681 0.51704 0.0
C3564 C 0.58437 0.98599 0.5204 0.0
C3565 C 0.58406 0.97971 0.48779 0.0
C3566 C 0.59121 0.01273 0.47626 0.0
C3567 C 0.58226 0.98102 0.55847 0.0
H3568 H 0.60429 0.01231 0.61864 0.0
H3569 H 0.57137 0.01887 0.60673 0.0
H3570 H 0.60551 0.9909 0.55763 0.0
H3571 H 0.60862 0.00203 0.52889 0.0
H3572 H 0.61346 0.00136 0.57681 0.0
H3573 H 0.56115 0.01189 0.55768 0.0
H3574 H 0.56838 0.01016 0.51424 0.0
H3575 H 0.5653 0.99899 0.54279 0.0
H3576 H 0.58988 0.99809 0.42111 0.0
H3577 H 0.58239 0.97139 0.49039 0.0
H3578 H 0.59836 0.01476 0.49267 0.0
H3579 H 0.58468 0.01754 0.48767 0.0
H3580 H 0.59251 0.01492 0.44618 0.0
H3581 H 0.58917 0.98207 0.57723 0.0
H3582 H 0.58052 0.97249 0.55619 0.0
H3583 H 0.57551 0.98495 0.57233 0.0
C3584 C 0.7405 0.66183 0.36378 0.0
C3585 C 0.731 0.65629 0.36589 0.0
C3586 C 0.74671 0.66145 0.33109 0.0
C3587 C 0.74332 0.65543 0.2997 0.0
C3588 C 0.73385 0.64965 0.30192 0.0
C3589 C 0.7278 0.65013 0.33509 0.0
C3590 C 0.75682 0.66765 0.3299 0.0
C3591 C 0.72997 0.64318 0.26893 0.0
C3592 C 0.75415 0.66403 0.20473 0.0
C3593 C 0.76243 0.65691 0.19948 0.0
C3594 C 0.74766 0.66343 0.23671 0.0
C3595 C 0.74953 0.65554 0.26415 0.0
C3596 C 0.75768 0.64815 0.25853 0.0
C3597 C 0.76402 0.64892 0.2262 0.0
C3598 C 0.73902 0.67144 0.24172 0.0
C3599 C 0.75988 0.63962 0.28717 0.0
H3600 H 0.74306 0.66647 0.38778 0.0
H3601 H 0.72041 0.64591 0.33652 0.0
H3602 H 0.76349 0.66239 0.32287 0.0
H3603 H 0.75637 0.6737 0.30735 0.0
H3604 H 0.75853 0.67162 0.35722 0.0
H3605 H 0.72272 0.63872 0.27589 0.0
H3606 H 0.7283 0.64839 0.24449 0.0
H3607 H 0.73612 0.63755 0.25982 0.0
H3608 H 0.75295 0.6703 0.18443 0.0
H3609 H 0.7703 0.64329 0.22196 0.0
H3610 H 0.74071 0.67639 0.26685 0.0
H3611 H 0.73142 0.66744 0.24688 0.0
H3612 H 0.73818 0.67664 0.21665 0.0
H3613 H 0.76236 0.64321 0.31436 0.0
H3614 H 0.76613 0.63415 0.27757 0.0
H3615 H 0.75264 0.63504 0.29286 0.0
C3616 C 0.58438 0.50648 0.45247 0.0
C3617 C 0.58987 0.51603 0.4518 0.0
C3618 C 0.58422 0.50022 0.48511 0.0
C3619 C 0.58963 0.50362 0.51789 0.0
C3620 C 0.59526 0.5132 0.51731 0.0
C3621 C 0.59534 0.51929 0.48419 0.0
C3622 C 0.57821 0.48999 0.48458 0.0
C3623 C 0.60108 0.5171 0.55182 0.0
C3624 C 0.58071 0.49237 0.61204 0.0
C3625 C 0.58831 0.48462 0.61858 0.0
C3626 C 0.58112 0.4987 0.57957 0.0
C3627 C 0.58929 0.49718 0.55295 0.0
C3628 C 0.59702 0.48941 0.5595 0.0
C3629 C 0.59645 0.48323 0.59231 0.0
C3630 C 0.57278 0.50698 0.57366 0.0
C3631 C 0.6058 0.48751 0.53159 0.0
H3632 H 0.58025 0.50389 0.42732 0.0
H3633 H 0.59948 0.52672 0.48391 0.0
H3634 H 0.58352 0.48338 0.49187 0.0
H3635 H 0.5719 0.49018 0.50626 0.0
H3636 H 0.57459 0.48838 0.45656 0.0
H3637 H 0.60521 0.52465 0.54651 0.0
H3638 H 0.59549 0.51822 0.57559 0.0
H3639 H 0.60693 0.51117 0.56104 0.0
H3640 H 0.57448 0.49353 0.63251 0.0
H3641 H 0.60227 0.47716 0.59705 0.0
H3642 H 0.56841 0.50536 0.54714 0.0
H3643 H 0.57649 0.51482 0.57051 0.0
H3644 H 0.56709 0.50731 0.59748 0.0
H3645 H 0.60249 0.48519 0.50377 0.0
H3646 H 0.61129 0.48127 0.54121 0.0
H3647 H 0.61033 0.49486 0.52714 0.0
C3648 C 0.72942 0.34596 0.73884 0.0
C3649 C 0.73298 0.34061 0.70658 0.0
C3650 C 0.73566 0.34662 0.77148 0.0
C3651 C 0.74569 0.34181 0.77179 0.0
C3652 C 0.74945 0.33668 0.73895 0.0
C3653 C 0.74304 0.33614 0.70672 0.0
C3654 C 0.7314 0.35216 0.806 0.0
C3655 C 0.76013 0.33152 0.73815 0.0
C3656 C 0.76559 0.34911 0.84737 0.0
C3657 C 0.76453 0.34072 0.87283 0.0
C3658 C 0.7594 0.34967 0.81456 0.0
C3659 C 0.75201 0.34163 0.80709 0.0
C3660 C 0.75081 0.33321 0.83292 0.0
C3661 C 0.75708 0.33287 0.8655 0.0
C3662 C 0.76084 0.35879 0.78773 0.0
C3663 C 0.74304 0.32447 0.82582 0.0
H3664 H 0.72161 0.34935 0.73898 0.0
H3665 H 0.74589 0.33215 0.68163 0.0
H3666 H 0.73027 0.34641 0.82925 0.0
H3667 H 0.73709 0.35812 0.81616 0.0
H3668 H 0.72377 0.3561 0.8003 0.0
H3669 H 0.76209 0.3283 0.7098 0.0
H3670 H 0.76628 0.33725 0.74637 0.0
H3671 H 0.76037 0.32502 0.75905 0.0
H3672 H 0.77125 0.35526 0.8532 0.0
H3673 H 0.75633 0.3263 0.88485 0.0
H3674 H 0.75326 0.36291 0.78351 0.0
H3675 H 0.76341 0.35586 0.75963 0.0
H3676 H 0.76673 0.36454 0.79819 0.0
H3677 H 0.73503 0.32776 0.82225 0.0
H3678 H 0.74287 0.31865 0.84924 0.0
H3679 H 0.74507 0.32033 0.79918 0.0
C3680 C 0.90558 0.51603 0.09175 0.0
C3681 C 0.91344 0.51447 0.11897 0.0
C3682 C 0.90505 0.50973 0.05926 0.0
C3683 C 0.9126 0.50171 0.05385 0.0
C3684 C 0.92047 0.5 0.08149 0.0
C3685 C 0.92078 0.50639 0.11379 0.0
C3686 C 0.89649 0.51171 0.03055 0.0
C3687 C 0.92868 0.49155 0.07658 0.0
C3688 C 0.90696 0.47959 0.98483 0.0
C3689 C 0.91268 0.48278 0.9529 0.0
C3690 C 0.90676 0.48573 0.01777 0.0
C3691 C 0.91245 0.49527 0.01882 0.0
C3692 C 0.91816 0.4986 0.98659 0.0
C3693 C 0.91819 0.49231 0.95399 0.0
C3694 C 0.90057 0.48195 0.05161 0.0
C3695 C 0.92429 0.50875 0.98666 0.0
H3696 H 0.8998 0.52218 0.09597 0.0
H3697 H 0.92693 0.50523 0.13461 0.0
H3698 H 0.90002 0.51393 0.00297 0.0
H3699 H 0.89187 0.50443 0.02588 0.0
H3700 H 0.89105 0.51806 0.03954 0.0
H3701 H 0.93409 0.49105 0.10118 0.0
H3702 H 0.92485 0.4838 0.07267 0.0
H3703 H 0.93338 0.49313 0.05075 0.0
H3704 H 0.9028 0.47216 0.98434 0.0
H3705 H 0.92251 0.4949 0.92922 0.0
H3706 H 0.89482 0.48802 0.06037 0.0
H3707 H 0.90594 0.48063 0.07589 0.0
H3708 H 0.89628 0.47453 0.04574 0.0
H3709 H 0.91899 0.51543 0.99301 0.0
H3710 H 0.92823 0.51026 0.95913 0.0
H3711 H 0.93035 0.50853 0.00922 0.0
C3712 C 0.25528 0.3385 0.69874 0.0
C3713 C 0.26616 0.33681 0.70064 0.0
C3714 C 0.24908 0.33837 0.73152 0.0
C3715 C 0.25384 0.3364 0.76702 0.0
C3716 C 0.26479 0.33461 0.76916 0.0
C3717 C 0.27083 0.33489 0.73597 0.0
C3718 C 0.23742 0.34033 0.72817 0.0
C3719 C 0.27014 0.33246 0.80654 0.0
C3720 C 0.23929 0.34532 0.85507 0.0
C3721 C 0.23457 0.33595 0.8671 0.0
C3722 C 0.24567 0.34556 0.82271 0.0
C3723 C 0.24734 0.33621 0.80192 0.0
C3724 C 0.24268 0.3267 0.81411 0.0
C3725 C 0.23634 0.32669 0.84658 0.0
C3726 C 0.25056 0.35584 0.81062 0.0
C3727 C 0.24427 0.31658 0.7926 0.0
H3728 H 0.25159 0.33982 0.67152 0.0
H3729 H 0.27925 0.33373 0.73777 0.0
H3730 H 0.233 0.33345 0.73904 0.0
H3731 H 0.23516 0.34719 0.74576 0.0
H3732 H 0.23495 0.34184 0.6985 0.0
H3733 H 0.27871 0.33109 0.80328 0.0
H3734 H 0.26895 0.33919 0.82602 0.0
H3735 H 0.26659 0.32545 0.82015 0.0
H3736 H 0.23805 0.35247 0.87112 0.0
H3737 H 0.23259 0.31945 0.85549 0.0
H3738 H 0.24781 0.35795 0.7818 0.0
H3739 H 0.25923 0.35504 0.80928 0.0
H3740 H 0.2486 0.36238 0.83022 0.0
H3741 H 0.24119 0.31741 0.76337 0.0
H3742 H 0.24029 0.30981 0.80634 0.0
H3743 H 0.25278 0.3148 0.7903 0.0
C3744 C 0.41726 0.5161 0.47557 0.0
C3745 C 0.4081 0.51794 0.45451 0.0
C3746 C 0.41705 0.50986 0.50825 0.0
C3747 C 0.40744 0.50536 0.52022 0.0
C3748 C 0.39815 0.50723 0.49925 0.0
C3749 C 0.3986 0.51349 0.46661 0.0
C3750 C 0.42711 0.50805 0.52994 0.0
C3751 C 0.38777 0.50254 0.51114 0.0
C3752 C 0.40906 0.48131 0.58329 0.0
C3753 C 0.40744 0.48567 0.61929 0.0
C3754 C 0.40895 0.48762 0.55076 0.0
C3755 C 0.40718 0.49855 0.55433 0.0
C3756 C 0.40542 0.50299 0.59053 0.0
C3757 C 0.40559 0.49649 0.62261 0.0
C3758 C 0.4109 0.48261 0.51264 0.0
C3759 C 0.40345 0.51461 0.59536 0.0
H3760 H 0.42459 0.51966 0.46673 0.0
H3761 H 0.39152 0.51479 0.45021 0.0
H3762 H 0.42621 0.51083 0.55953 0.0
H3763 H 0.42888 0.49953 0.53115 0.0
H3764 H 0.43391 0.51217 0.51697 0.0
H3765 H 0.38123 0.50495 0.49223 0.0
H3766 H 0.38831 0.49384 0.51098 0.0
H3767 H 0.38586 0.50496 0.5405 0.0
H3768 H 0.41064 0.47298 0.5806 0.0
H3769 H 0.40421 0.49987 0.65034 0.0
H3770 H 0.4181 0.48597 0.49977 0.0
H3771 H 0.40428 0.48436 0.49317 0.0
H3772 H 0.41184 0.47396 0.51462 0.0
H3773 H 0.41032 0.51912 0.58495 0.0
H3774 H 0.40199 0.51678 0.62536 0.0
H3775 H 0.39657 0.51704 0.57818 0.0
C3776 C 0.2637 0.67088 0.34154 0.0
C3777 C 0.26372 0.66232 0.36658 0.0
C3778 C 0.25745 0.67082 0.30886 0.0
C3779 C 0.25114 0.66195 0.30083 0.0
C3780 C 0.25111 0.65329 0.32592 0.0
C3781 C 0.25737 0.65359 0.35858 0.0
C3782 C 0.25765 0.68023 0.28281 0.0
C3783 C 0.2445 0.64368 0.31818 0.0
C3784 C 0.22812 0.66535 0.23368 0.0
C3785 C 0.2323 0.6616 0.1995 0.0
C3786 C 0.23416 0.66552 0.26688 0.0
C3787 C 0.24461 0.66173 0.26599 0.0
C3788 C 0.24886 0.65786 0.23172 0.0
C3789 C 0.24268 0.65789 0.19885 0.0
C3790 C 0.22938 0.66976 0.30288 0.0
C3791 C 0.25996 0.65371 0.22976 0.0
H3792 H 0.26872 0.67758 0.34714 0.0
H3793 H 0.25724 0.64701 0.37803 0.0
H3794 H 0.26047 0.67785 0.25437 0.0
H3795 H 0.2496 0.68341 0.27927 0.0
H3796 H 0.26281 0.6866 0.29358 0.0
H3797 H 0.2454 0.63758 0.34044 0.0
H3798 H 0.23609 0.6459 0.31636 0.0
H3799 H 0.24671 0.64021 0.29049 0.0
H3800 H 0.22005 0.66805 0.23464 0.0
H3801 H 0.24604 0.65513 0.17248 0.0
H3802 H 0.23412 0.67645 0.31352 0.0
H3803 H 0.22945 0.66362 0.32515 0.0
H3804 H 0.22116 0.67247 0.29875 0.0
H3805 H 0.26559 0.66001 0.23744 0.0
H3806 H 0.262 0.65072 0.20113 0.0
H3807 H 0.26101 0.64725 0.2505 0.0
C3808 C 0.07761 0.51708 0.09485 0.0
C3809 C 0.08595 0.51598 0.12052 0.0
C3810 C 0.07715 0.51102 0.06175 0.0
C3811 C 0.08527 0.50375 0.05397 0.0
C3812 C 0.09373 0.50261 0.07965 0.0
C3813 C 0.09395 0.50873 0.11268 0.0
C3814 C 0.06799 0.51243 0.03504 0.0
C3815 C 0.10254 0.49495 0.07221 0.0
C3816 C 0.07967 0.48138 0.98593 0.0
C3817 C 0.08425 0.48508 0.95236 0.0
C3818 C 0.07991 0.48739 0.01918 0.0
C3819 C 0.0849 0.49732 0.01891 0.0
C3820 C 0.08952 0.50113 0.98515 0.0
C3821 C 0.08911 0.49498 0.95224 0.0
C3822 C 0.07488 0.48309 0.05466 0.0
C3823 C 0.09492 0.51168 0.98383 0.0
H3824 H 0.07149 0.52279 0.10036 0.0
H3825 H 0.10036 0.50775 0.13259 0.0
H3826 H 0.07087 0.51496 0.00684 0.0
H3827 H 0.06386 0.50483 0.03106 0.0
H3828 H 0.06225 0.51832 0.04548 0.0
H3829 H 0.10859 0.49508 0.09486 0.0
H3830 H 0.09936 0.48686 0.06996 0.0
H3831 H 0.10637 0.49681 0.04481 0.0
H3832 H 0.07606 0.47367 0.98643 0.0
H3833 H 0.09254 0.49795 0.92629 0.0
H3834 H 0.06878 0.48862 0.06505 0.0
H3835 H 0.08085 0.48232 0.07734 0.0
H3836 H 0.07118 0.47529 0.04998 0.0
H3837 H 0.08931 0.51798 0.99165 0.0
H3838 H 0.09819 0.51346 0.95538 0.0
H3839 H 0.10141 0.51189 0.00478 0.0
C3840 C 0.17495 0.22589 0.03506 0.0
C3841 C 0.18292 0.22064 0.05487 0.0
C3842 C 0.17444 0.23691 0.03476 0.0
C3843 C 0.18214 0.24277 0.05446 0.0
C3844 C 0.19002 0.2375 0.07538 0.0
C3845 C 0.1903 0.2265 0.07539 0.0
C3846 C 0.16586 0.24226 0.01242 0.0
C3847 C 0.19842 0.24348 0.09654 0.0
C3848 C 0.18948 0.27007 0.02101 0.0
C3849 C 0.18472 0.27642 0.04852 0.0
C3850 C 0.18843 0.25912 0.02202 0.0
C3851 C 0.18245 0.2544 0.0512 0.0
C3852 C 0.17731 0.26078 0.07829 0.0
C3853 C 0.1785 0.27174 0.07663 0.0
C3854 C 0.19399 0.25258 0.99248 0.0
C3855 C 0.17084 0.25602 0.10972 0.0
H3856 H 0.16917 0.22138 0.01948 0.0
H3857 H 0.19657 0.22247 0.09031 0.0
H3858 H 0.16174 0.2481 0.03037 0.0
H3859 H 0.16936 0.2466 0.98826 0.0
H3860 H 0.16001 0.23659 0.00119 0.0
H3861 H 0.20361 0.23822 0.11323 0.0
H3862 H 0.20333 0.24794 0.07616 0.0
H3863 H 0.19479 0.24927 0.11601 0.0
H3864 H 0.19411 0.27367 0.99879 0.0
H3865 H 0.17486 0.27662 0.09805 0.0
H3866 H 0.18832 0.24728 0.97817 0.0
H3867 H 0.19999 0.24756 0.00627 0.0
H3868 H 0.19792 0.25749 0.97068 0.0
H3869 H 0.16496 0.25048 0.09791 0.0
H3870 H 0.16667 0.26208 0.12666 0.0
H3871 H 0.17601 0.25146 0.12891 0.0
C3872 C 0.02179 0.93814 0.26852 0.0
C3873 C 0.02798 0.93287 0.29535 0.0
C3874 C 0.01081 0.93767 0.26999 0.0
C3875 C 0.00588 0.93176 0.29891 0.0
C3876 C 0.01207 0.92624 0.32562 0.0
C3877 C 0.02307 0.9269 0.32362 0.0
C3878 C 0.00448 0.94374 0.24117 0.0
C3879 C 0.00708 0.9198 0.35664 0.0
C3880 C 0.9782 0.94024 0.32377 0.0
C3881 C 0.97214 0.93311 0.30282 0.0
C3882 C 0.98919 0.93969 0.32361 0.0
C3883 C 0.99425 0.9318 0.30204 0.0
C3884 C 0.98818 0.92439 0.28172 0.0
C3885 C 0.97718 0.92515 0.28226 0.0
C3886 C 0.9954 0.94779 0.34543 0.0
C3887 C 0.9933 0.91582 0.25863 0.0
H3888 H 0.02555 0.94289 0.24697 0.0
H3889 H 0.02783 0.92276 0.3442 0.0
H3890 H 0.99894 0.93841 0.22637 0.0
H3891 H -0.00028 0.94983 0.25567 0.0
H3892 H 0.00952 0.94764 0.2197 0.0
H3893 H 0.01299 0.91553 0.37391 0.0
H3894 H 0.00246 0.92499 0.37561 0.0
H3895 H 0.00153 0.91401 0.34431 0.0
H3896 H 0.97435 0.94649 0.33931 0.0
H3897 H 0.97252 0.91956 0.26637 0.0
H3898 H 4e-05 0.95267 0.32549 0.0
H3899 H 0.00104 0.94387 0.36475 0.0
H3900 H 0.99028 0.95305 0.36241 0.0
H3901 H 0.99781 0.91937 0.23498 0.0
H3902 H 0.98747 0.91025 0.24663 0.0
H3903 H 0.99895 0.91136 0.27633 0.0
C3904 C 0.32208 0.77151 0.5878 0.0
C3905 C 0.31767 0.77637 0.55587 0.0
C3906 C 0.32236 0.76052 0.59104 0.0
C3907 C 0.31816 0.75425 0.56161 0.0
C3908 C 0.31387 0.7591 0.52904 0.0
C3909 C 0.31364 0.77009 0.52664 0.0
C3910 C 0.32699 0.75561 0.62618 0.0
C3911 C 0.3093 0.75269 0.49703 0.0
C3912 C 0.32522 0.72543 0.55073 0.0
C3913 C 0.31618 0.7205 0.56488 0.0
C3914 C 0.32615 0.73642 0.55067 0.0
C3915 C 0.31785 0.74262 0.5652 0.0
C3916 C 0.30888 0.73768 0.58082 0.0
C3917 C 0.30814 0.72669 0.58037 0.0
C3918 C 0.33584 0.74141 0.53382 0.0
C3919 C 0.29986 0.74402 0.59662 0.0
H3920 H 0.3253 0.77631 0.61032 0.0
H3921 H 0.31004 0.77376 0.50219 0.0
H3922 H 0.32086 0.75106 0.64133 0.0
H3923 H 0.33331 0.75001 0.61836 0.0
H3924 H 0.33028 0.76156 0.64587 0.0
H3925 H 0.30667 0.75766 0.47299 0.0
H3926 H 0.31521 0.747 0.48645 0.0
H3927 H 0.30249 0.74809 0.50743 0.0
H3928 H 0.33153 0.72069 0.5392 0.0
H3929 H 0.30106 0.72297 0.59087 0.0
H3930 H 0.33931 0.74711 0.554 0.0
H3931 H 0.33367 0.74583 0.50791 0.0
H3932 H 0.3419 0.7355 0.52623 0.0
H3933 H 0.30278 0.74979 0.61767 0.0
H3934 H 0.29383 0.73899 0.61034 0.0
H3935 H 0.29605 0.74852 0.57348 0.0
C3936 C 0.47716 0.06233 0.8405 0.0
C3937 C 0.47176 0.06581 0.80824 0.0
C3938 C 0.48817 0.06252 0.84194 0.0
C3939 C 0.4939 0.06625 0.81033 0.0
C3940 C 0.48848 0.07023 0.77843 0.0
C3941 C 0.47747 0.06997 0.77779 0.0
C3942 C 0.49368 0.05824 0.87651 0.0
C3943 C 0.49431 0.07431 0.74422 0.0
C3944 C 0.52308 0.0721 0.81986 0.0
C3945 C 0.52755 0.06288 0.80515 0.0
C3946 C 0.51213 0.0733 0.82208 0.0
C3947 C 0.50552 0.0651 0.80918 0.0
C3948 C 0.50999 0.05577 0.7946 0.0
C3949 C 0.52093 0.05476 0.79291 0.0
C3950 C 0.50763 0.08335 0.83787 0.0
C3951 C 0.5032 0.04684 0.78058 0.0
H3952 H 0.4728 0.05902 0.864 0.0
H3953 H 0.47333 0.07283 0.75304 0.0
H3954 H 0.49775 0.05081 0.86912 0.0
H3955 H 0.49974 0.06384 0.88653 0.0
H3956 H 0.48813 0.05663 0.90009 0.0
H3957 H 0.48896 0.07795 0.72312 0.0
H3958 H 0.50026 0.08021 0.75285 0.0
H3959 H 0.49856 0.06775 0.73035 0.0
H3960 H 0.52814 0.07845 0.82906 0.0
H3961 H 0.52432 0.04753 0.78221 0.0
H3962 H 0.50234 0.08159 0.86202 0.0
H3963 H 0.50282 0.08734 0.81595 0.0
H3964 H 0.51383 0.08886 0.84762 0.0
H3965 H 0.498 0.04404 0.80367 0.0
H3966 H 0.50792 0.04009 0.77017 0.0
H3967 H 0.49808 0.04961 0.75722 0.0
C3968 C 0.17626 0.77315 0.00296 0.0
C3969 C 0.18405 0.77785 0.02539 0.0
C3970 C 0.17543 0.76217 0.00038 0.0
C3971 C 0.18258 0.75577 0.02064 0.0
C3972 C 0.19038 0.76047 0.04362 0.0
C3973 C 0.19103 0.77144 0.04566 0.0
C3974 C 0.167 0.75742 0.97571 0.0
C3975 C 0.19818 0.75391 0.06557 0.0
C3976 C 0.17705 0.72714 0.04264 0.0
C3977 C 0.18348 0.72203 0.01618 0.0
C3978 C 0.17633 0.73814 0.04345 0.0
C3979 C 0.18219 0.74415 0.01717 0.0
C3980 C 0.18836 0.73902 0.98943 0.0
C3981 C 0.18894 0.72802 0.98929 0.0
C3982 C 0.16964 0.74333 0.07336 0.0
C3983 C 0.19472 0.74517 0.96094 0.0
H3984 H 0.17079 0.77807 0.98752 0.0
H3985 H 0.19718 0.77501 0.0625 0.0
H3986 H 0.17066 0.75273 0.95276 0.0
H3987 H 0.16206 0.75198 0.99259 0.0
H3988 H 0.16186 0.76348 0.96272 0.0
H3989 H 0.20357 0.75879 0.08295 0.0
H3990 H 0.19397 0.74839 0.08455 0.0
H3991 H 0.20294 0.74913 0.04573 0.0
H3992 H 0.17269 0.72254 0.06312 0.0
H3993 H 0.19402 0.72414 0.96903 0.0
H3994 H 0.16426 0.74914 0.06022 0.0
H3995 H 0.17474 0.74766 0.09348 0.0
H3996 H 0.16489 0.73755 0.08958 0.0
H3997 H 0.18969 0.75101 0.94632 0.0
H3998 H 0.19841 0.74001 0.93934 0.0
H3999 H 0.20102 0.74957 0.97577 0.0
C4000 C 0.47844 0.93362 0.30676 0.0
C4001 C 0.47231 0.92971 0.2769 0.0
C4002 C 0.48943 0.93305 0.30568 0.0
C4003 C 0.49444 0.92854 0.27384 0.0
C4004 C 0.48831 0.92426 0.24417 0.0
C4005 C 0.47732 0.92489 0.24607 0.0
C4006 C 0.49569 0.9377 0.33793 0.0
C4007 C 0.49338 0.91937 0.20979 0.0
C4008 C 0.52173 0.93892 0.25314 0.0
C4009 C 0.52816 0.93098 0.26811 0.0
C4010 C 0.51076 0.93806 0.25389 0.0
C4011 C 0.50607 0.92908 0.27037 0.0
C4012 C 0.51247 0.92095 0.28499 0.0
C4013 C 0.52345 0.92199 0.28362 0.0
C4014 C 0.5042 0.9469 0.23797 0.0
C4015 C 0.50773 0.91128 0.30283 0.0
H4016 H 0.47467 0.9375 0.33043 0.0
H4017 H 0.47263 0.92172 0.22314 0.0
H4018 H 0.50154 0.93193 0.34843 0.0
H4019 H 0.5001 0.94467 0.32776 0.0
H4020 H 0.49062 0.94014 0.36195 0.0
H4021 H 0.48753 0.91566 0.19063 0.0
H4022 H 0.4977 0.92548 0.19369 0.0
H4023 H 0.49919 0.91334 0.21849 0.0
H4024 H 0.52526 0.94599 0.24178 0.0
H4025 H 0.52836 0.91577 0.29486 0.0
H4026 H 0.49954 0.95058 0.26096 0.0
H4027 H 0.49856 0.94381 0.21677 0.0
H4028 H 0.50907 0.95308 0.22432 0.0
H4029 H 0.50319 0.91353 0.32838 0.0
H4030 H 0.51378 0.90544 0.3112 0.0
H4031 H 0.50216 0.90749 0.2829 0.0
C4032 C 0.30824 0.22845 0.54407 0.0
C4033 C 0.31476 0.22217 0.52147 0.0
C4034 C 0.3087 0.23944 0.54207 0.0
C4035 C 0.31587 0.24427 0.51689 0.0
C4036 C 0.32256 0.23798 0.49425 0.0
C4037 C 0.32189 0.22699 0.49672 0.0
C4038 C 0.30138 0.24587 0.5665 0.0
C4039 C 0.33034 0.24288 0.46727 0.0
C4040 C 0.30883 0.27209 0.48809 0.0
C4041 C 0.31489 0.27804 0.51339 0.0
C4042 C 0.30936 0.26108 0.48799 0.0
C4043 C 0.31612 0.25591 0.51379 0.0
C4044 C 0.32254 0.26188 0.53844 0.0
C4045 C 0.32183 0.27288 0.53799 0.0
C4046 C 0.30236 0.25499 0.46138 0.0
C4047 C 0.32989 0.25664 0.56616 0.0
H4048 H 0.30259 0.22477 0.56279 0.0
H4049 H 0.327 0.22216 0.47942 0.0
H4050 H 0.30597 0.25134 0.58451 0.0
H4051 H 0.29618 0.25071 0.54834 0.0
H4052 H 0.29641 0.24089 0.58512 0.0
H4053 H 0.33519 0.2369 0.45246 0.0
H4054 H 0.32612 0.24762 0.44576 0.0
H4055 H 0.33564 0.24828 0.48283 0.0
H4056 H 0.30336 0.27602 0.46932 0.0
H4057 H 0.32663 0.27745 0.55725 0.0
H4058 H 0.29649 0.25048 0.47795 0.0
H4059 H 0.30705 0.24923 0.44495 0.0
H4060 H 0.29812 0.26018 0.44127 0.0
H4061 H 0.32527 0.2522 0.58745 0.0
H4062 H 0.33494 0.26239 0.58125 0.0
H4063 H 0.335 0.25091 0.55129 0.0
C4064 C 0.97596 0.07384 0.78155 0.0
C4065 C 0.97068 0.06602 0.761 0.0
C4066 C 0.98697 0.07429 0.7822 0.0
C4067 C 0.99284 0.0668 0.76147 0.0
C4068 C 0.98757 0.05923 0.73916 0.0
C4069 C 0.97656 0.05889 0.73937 0.0
C4070 C 0.99232 0.08247 0.80641 0.0
C4071 C 0.99355 0.05115 0.71643 0.0
C4072 C 0.022 0.07097 0.74408 0.0
C4073 C 0.02647 0.06443 0.77173 0.0
C4074 C 0.01106 0.07195 0.74062 0.0
C4075 C 0.00444 0.0663 0.76556 0.0
C4076 C 0.0089 0.05983 0.79391 0.0
C4077 C 0.01984 0.05893 0.7965 0.0
C4078 C 0.00657 0.07889 0.70997 0.0
C4079 C 0.00211 0.0537 0.82114 0.0
H4080 H 0.97148 0.07951 0.79781 0.0
H4081 H 0.97259 0.05272 0.7238 0.0
H4082 H 0.99647 0.07856 0.8302 0.0
H4083 H 0.99832 0.08676 0.78969 0.0
H4084 H 0.98668 0.08824 0.81832 0.0
H4085 H 0.98832 0.04647 0.69775 0.0
H4086 H -0.00039 0.05503 0.69871 0.0
H4087 H 0.99768 0.0457 0.7359 0.0
H4088 H 0.02707 0.07535 0.72513 0.0
H4089 H 0.0232 0.05371 0.81748 0.0
H4090 H 0.00128 0.08486 0.72256 0.0
H4091 H 0.00178 0.0741 0.6902 0.0
H4092 H 0.01278 0.08297 0.69352 0.0
H4093 H 0.99664 0.05907 0.83608 0.0
H4094 H 0.00681 0.04939 0.84259 0.0
H4095 H 0.99726 0.04794 0.8053 0.0
C4096 C 0.80797 0.72969 0.0489 0.0
C4097 C 0.81427 0.72291 0.02739 0.0
C4098 C 0.80902 0.74061 0.04595 0.0
C4099 C 0.81655 0.74489 0.0208 0.0
C4100 C 0.82303 0.7381 0.99932 0.0
C4101 C 0.8218 0.72717 0.00282 0.0
C4102 C 0.80193 0.74759 0.06928 0.0
C4103 C 0.83117 0.74238 0.97237 0.0
C4104 C 0.81054 0.77269 0.98919 0.0
C4105 C 0.81668 0.77863 0.01429 0.0
C4106 C 0.8108 0.76168 0.98981 0.0
C4107 C 0.81732 0.75647 0.01631 0.0
C4108 C 0.82387 0.7624 0.0406 0.0
C4109 C 0.82349 0.77341 0.03925 0.0
C4110 C 0.80371 0.75563 0.96337 0.0
C4111 C 0.83095 0.75712 0.06917 0.0
H4112 H 0.80202 0.72645 0.06749 0.0
H4113 H 0.82676 0.72196 0.98643 0.0
H4114 H 0.8067 0.75303 0.08676 0.0
H4115 H 0.79698 0.75247 0.05031 0.0
H4116 H 0.7967 0.74302 0.08831 0.0
H4117 H 0.83584 0.73606 0.95871 0.0
H4118 H 0.82728 0.74708 0.94994 0.0
H4119 H 0.83661 0.74771 0.98762 0.0
H4120 H 0.80516 0.77664 0.97014 0.0
H4121 H 0.82838 0.77795 0.05831 0.0
H4122 H 0.79753 0.75158 0.97997 0.0
H4123 H 0.80824 0.7495 0.94814 0.0
H4124 H 0.79985 0.7608 0.9422 0.0
H4125 H 0.82609 0.75316 0.09099 0.0
H4126 H 0.83625 0.7628 0.08352 0.0
H4127 H 0.83579 0.75099 0.05526 0.0
C4128 C 0.68369 0.22634 0.55719 0.0
C4129 C 0.68042 0.22036 0.52605 0.0
C4130 C 0.6832 0.23734 0.55638 0.0
C4131 C 0.67925 0.24246 0.52376 0.0
C4132 C 0.67553 0.23644 0.49284 0.0
C4133 C 0.67624 0.22544 0.49424 0.0
C4134 C 0.68735 0.24349 0.58976 0.0
C4135 C 0.67112 0.24162 0.45783 0.0
C4136 C 0.67231 0.27132 0.53479 0.0
C4137 C 0.68135 0.27618 0.52043 0.0
C4138 C 0.67136 0.26033 0.53507 0.0
C4139 C 0.67971 0.25409 0.5211 0.0
C4140 C 0.68878 0.25898 0.506 0.0
C4141 C 0.68946 0.26997 0.50571 0.0
C4142 C 0.66152 0.25539 0.55095 0.0
C4143 C 0.6979 0.2526 0.49121 0.0
H4144 H 0.68705 0.22243 0.58162 0.0
H4145 H 0.67363 0.22081 0.47026 0.0
H4146 H 0.69433 0.24809 0.58097 0.0
H4147 H 0.68135 0.24916 0.59982 0.0
H4148 H 0.68961 0.23832 0.61375 0.0
H4149 H 0.66772 0.23583 0.43775 0.0
H4150 H 0.66495 0.24737 0.46569 0.0
H4151 H 0.67743 0.24602 0.44308 0.0
H4152 H 0.66599 0.27612 0.54592 0.0
H4153 H 0.69653 0.2737 0.49508 0.0
H4154 H 0.66348 0.25078 0.57666 0.0
H4155 H 0.6581 0.24985 0.53008 0.0
H4156 H 0.65549 0.26133 0.55851 0.0
H4157 H 0.70124 0.24776 0.51441 0.0
H4158 H 0.70424 0.25761 0.47938 0.0
H4159 H 0.69518 0.24713 0.46882 0.0
C4160 C 0.81713 0.27265 0.08847 0.0
C4161 C 0.81678 0.27815 0.05409 0.0
C4162 C 0.81731 0.26163 0.08914 0.0
C4163 C 0.81708 0.256 0.0546 0.0
C4164 C 0.81721 0.26151 0.01979 0.0
C4165 C 0.81707 0.27253 0.01996 0.0
C4166 C 0.81727 0.25602 0.1268 0.0
C4167 C 0.81694 0.25579 0.98237 0.0
C4168 C 0.82309 0.22675 0.0534 0.0
C4169 C 0.81295 0.22242 0.05323 0.0
C4170 C 0.82459 0.23768 0.05425 0.0
C4171 C 0.81574 0.24441 0.05482 0.0
C4172 C 0.8055 0.24008 0.05507 0.0
C4173 C 0.80424 0.22915 0.05441 0.0
C4174 C 0.83562 0.24203 0.05402 0.0
C4175 C 0.79586 0.247 0.05572 0.0
H4176 H 0.81706 0.27697 0.11491 0.0
H4177 H 0.81669 0.27673 0.99331 0.0
H4178 H 0.80965 0.25193 0.13072 0.0
H4179 H 0.82352 0.24996 0.12756 0.0
H4180 H 0.81845 0.2615 0.15091 0.0
H4181 H 0.81805 0.26118 0.95796 0.0
H4182 H 0.82314 0.24967 0.98144 0.0
H4183 H 0.80927 0.25175 0.97911 0.0
H4184 H 0.82986 0.2216 0.05212 0.0
H4185 H 0.79639 0.22586 0.05499 0.0
H4186 H 0.83679 0.24729 0.07869 0.0
H4187 H 0.83686 0.24681 0.02816 0.0
H4188 H 0.84166 0.23574 0.05488 0.0
H4189 H 0.79601 0.25212 0.08111 0.0
H4190 H 0.78846 0.24238 0.05599 0.0
H4191 H 0.79581 0.2522 0.03052 0.0
C4192 C 0.6764 0.72636 0.57181 0.0
C4193 C 0.68246 0.72122 0.54431 0.0
C4194 C 0.67597 0.73737 0.57332 0.0
C4195 C 0.6818 0.74336 0.54688 0.0
C4196 C 0.6878 0.73821 0.51873 0.0
C4197 C 0.68804 0.72721 0.51775 0.0
C4198 C 0.66941 0.7426 0.60353 0.0
C4199 C 0.6942 0.74432 0.49023 0.0
C4200 C 0.67563 0.77212 0.52884 0.0
C4201 C 0.68345 0.77712 0.55019 0.0
C4202 C 0.6748 0.76112 0.52831 0.0
C4203 C 0.682 0.75501 0.54945 0.0
C4204 C 0.68978 0.76003 0.57166 0.0
C4205 C 0.6904 0.77103 0.57181 0.0
C4206 C 0.66636 0.75604 0.50452 0.0
C4207 C 0.69765 0.75378 0.59437 0.0
H4208 H 0.672 0.72175 0.59218 0.0
H4209 H 0.69287 0.72328 0.4968 0.0
H4210 H 0.67455 0.74722 0.62266 0.0
H4211 H 0.66379 0.74818 0.59041 0.0
H4212 H 0.66494 0.73683 0.62076 0.0
H4213 H 0.69816 0.73913 0.46939 0.0
H4214 H 0.68909 0.7499 0.47465 0.0
H4215 H 0.70026 0.74903 0.5051 0.0
H4216 H 0.67018 0.77681 0.51242 0.0
H4217 H 0.69654 0.77485 0.58795 0.0
H4218 H 0.66164 0.75056 0.52204 0.0
H4219 H 0.67003 0.75135 0.4816 0.0
H4220 H 0.661 0.7619 0.49151 0.0
H4221 H 0.69354 0.74828 0.61367 0.0
H4222 H 0.7029 0.75889 0.61147 0.0
H4223 H 0.70256 0.74898 0.57502 0.0
C4224 C 0.52105 0.43728 0.83069 0.0
C4225 C 0.52667 0.43351 0.79935 0.0
C4226 C 0.51005 0.43688 0.83156 0.0
C4227 C 0.50454 0.43264 0.80029 0.0
C4228 C 0.51017 0.42838 0.76936 0.0
C4229 C 0.52118 0.42886 0.76928 0.0
C4230 C 0.50431 0.44149 0.86508 0.0
C4231 C 0.50457 0.42374 0.73558 0.0
C4232 C 0.47544 0.4267 0.81148 0.0
C4233 C 0.47088 0.43575 0.79583 0.0
C4234 C 0.4864 0.42551 0.81294 0.0
C4235 C 0.49292 0.43356 0.79841 0.0
C4236 C 0.48836 0.44268 0.78243 0.0
C4237 C 0.47741 0.44367 0.78143 0.0
C4238 C 0.49101 0.41568 0.83013 0.0
C4239 C 0.49505 0.45146 0.76669 0.0
H4240 H 0.52523 0.44098 0.85386 0.0
H4241 H 0.52549 0.42577 0.74526 0.0
H4242 H 0.50008 0.4487 0.85619 0.0
H4243 H 0.49836 0.43587 0.87584 0.0
H4244 H 0.50973 0.44356 0.88859 0.0
H4245 H 0.51007 0.41989 0.71553 0.0
H4246 H 0.49865 0.4179 0.7449 0.0
H4247 H 0.50031 0.43005 0.72025 0.0
H4248 H 0.47043 0.42051 0.82232 0.0
H4249 H 0.47395 0.45077 0.76992 0.0
H4250 H 0.49602 0.41776 0.85469 0.0
H4251 H 0.4961 0.41165 0.80918 0.0
H4252 H 0.48485 0.4101 0.83974 0.0
H4253 H 0.50012 0.45472 0.78935 0.0
H4254 H 0.49026 0.45794 0.75461 0.0
H4255 H 0.5003 0.44838 0.74422 0.0
C4256 C 0.97943 0.5596 0.34037 0.0
C4257 C 0.97375 0.56637 0.31676 0.0
C4258 C 0.99042 0.56019 0.3424 0.0
C4259 C 0.99581 0.56783 0.32065 0.0
C4260 C 0.99005 0.57506 0.29837 0.0
C4261 C 0.97908 0.57419 0.29645 0.0
C4262 C 0.99629 0.55226 0.36611 0.0
C4263 C 0.99549 0.58342 0.27527 0.0
C4264 C 0.02467 0.57256 0.34257 0.0
C4265 C 0.02953 0.56662 0.31416 0.0
C4266 C 0.01367 0.57321 0.34472 0.0
C4267 C 0.00746 0.56759 0.31834 0.0
C4268 C 0.01237 0.56154 0.28974 0.0
C4269 C 0.02335 0.5612 0.28782 0.0
C4270 C 0.0087 0.57989 0.37511 0.0
C4271 C 0.00603 0.55528 0.26146 0.0
H4272 H 0.97533 0.55349 0.35581 0.0
H4273 H 0.97466 0.57949 0.27846 0.0
H4274 H 0.00086 0.54697 0.34732 0.0
H4275 H 0.00198 0.55626 0.38503 0.0
H4276 H 0.99093 0.54739 0.38367 0.0
H4277 H 0.98986 0.58914 0.26294 0.0
H4278 H 0.00125 0.58774 0.29298 0.0
H4279 H -8e-05 0.57968 0.2518 0.0
H4280 H 0.02949 0.57677 0.36284 0.0
H4281 H 0.02713 0.5565 0.26616 0.0
H4282 H 0.0038 0.57492 0.39392 0.0
H4283 H 0.00342 0.58581 0.36205 0.0
H4284 H 0.01464 0.58404 0.39265 0.0
H4285 H 0.00093 0.54959 0.27654 0.0
H4286 H 0.01108 0.5509 0.24126 0.0
H4287 H 0.00082 0.56059 0.24512 0.0
C4288 C 0.97913 0.43484 0.7942 0.0
C4289 C 0.97282 0.43099 0.76472 0.0
C4290 C 0.99011 0.43429 0.79225 0.0
C4291 C 0.99493 0.42987 0.75987 0.0
C4292 C 0.98864 0.42579 0.73029 0.0
C4293 C 0.97765 0.42638 0.73309 0.0
C4294 C 0.99654 0.43873 0.82441 0.0
C4295 C 0.99351 0.42104 0.69531 0.0
C4296 C 0.02249 0.43976 0.74089 0.0
C4297 C 0.02868 0.43166 0.75609 0.0
C4298 C 0.01151 0.43907 0.74062 0.0
C4299 C 0.00656 0.43011 0.75627 0.0
C4300 C 0.01273 0.42178 0.7707 0.0
C4301 C 0.02373 0.42264 0.77037 0.0
C4302 C 0.00519 0.44812 0.72491 0.0
C4303 C 0.00772 0.41212 0.78766 0.0
H4304 H 0.97549 0.43858 0.81843 0.0
H4305 H 0.97283 0.42328 0.7104 0.0
H4306 H 0.00221 0.43277 0.83479 0.0
H4307 H 0.00117 0.44556 0.81423 0.0
H4308 H 0.99159 0.44133 0.84855 0.0
H4309 H 0.98754 0.4177 0.6758 0.0
H4310 H 0.99805 0.42712 0.67989 0.0
H4311 H 0.9991 0.41473 0.70333 0.0
H4312 H 0.02621 0.44684 0.73041 0.0
H4313 H 0.02845 0.4163 0.78172 0.0
H4314 H 0.00071 0.45193 0.74807 0.0
H4315 H 0.99941 0.44523 0.70383 0.0
H4316 H 0.01023 0.45415 0.71121 0.0
H4317 H 0.00332 0.41432 0.81357 0.0
H4318 H 0.01361 0.40603 0.79525 0.0
H4319 H 0.00199 0.40867 0.76753 0.0
C4320 C 0.47918 0.55535 0.28796 0.0
C4321 C 0.47268 0.56232 0.26803 0.0
C4322 C 0.49014 0.5563 0.28664 0.0
C4323 C 0.49474 0.56437 0.26463 0.0
C4324 C 0.48825 0.57143 0.2444 0.0
C4325 C 0.47729 0.57034 0.2464 0.0
C4326 C 0.49681 0.5486 0.30862 0.0
C4327 C 0.49288 0.58012 0.22058 0.0
C4328 C 0.52289 0.57126 0.2896 0.0
C4329 C 0.52854 0.5652 0.26339 0.0
C4330 C 0.51187 0.57134 0.28959 0.0
C4331 C 0.50637 0.56526 0.26255 0.0
C4332 C 0.512 0.55947 0.23505 0.0
C4333 C 0.52301 0.55947 0.23589 0.0
C4334 C 0.50613 0.57761 0.31937 0.0
C4335 C 0.5064 0.55293 0.20564 0.0
H4336 H 0.4757 0.54902 0.30421 0.0
H4337 H 0.47231 0.57583 0.23128 0.0
H4338 H 0.50194 0.54415 0.28895 0.0
H4339 H 0.502 0.55289 0.32857 0.0
H4340 H 0.492 0.54291 0.32499 0.0
H4341 H 0.48675 0.58499 0.20668 0.0
H4342 H 0.49785 0.5853 0.23841 0.0
H4343 H 0.49803 0.57673 0.19839 0.0
H4344 H 0.5271 0.57584 0.31055 0.0
H4345 H 0.52729 0.55465 0.21584 0.0
H4346 H 0.50179 0.57221 0.33841 0.0
H4347 H 0.50026 0.58286 0.30593 0.0
H4348 H 0.51155 0.58246 0.33679 0.0
H4349 H 0.50219 0.54636 0.21968 0.0
H4350 H 0.51189 0.54958 0.18439 0.0
H4351 H 0.50044 0.55773 0.19067 0.0
C4352 C 0.22833 0.15862 0.24763 0.0
C4353 C 0.22908 0.15241 0.21496 0.0
C4354 C 0.23597 0.15806 0.27614 0.0
C4355 C 0.2446 0.15115 0.27179 0.0
C4356 C 0.24523 0.14461 0.23947 0.0
C4357 C 0.23745 0.14531 0.21143 0.0
C4358 C 0.23498 0.1651 0.31037 0.0
C4359 C 0.25432 0.13716 0.23383 0.0
C4360 C 0.26935 0.15903 0.32435 0.0
C4361 C 0.26882 0.15265 0.35666 0.0
C4362 C 0.26166 0.1584 0.29601 0.0
C4363 C 0.25324 0.15123 0.30011 0.0
C4364 C 0.25283 0.14454 0.33208 0.0
C4365 C 0.26064 0.14533 0.35999 0.0
C4366 C 0.26241 0.16561 0.26216 0.0
C4367 C 0.24396 0.13682 0.33744 0.0
H4368 H 0.2218 0.16402 0.25067 0.0
H4369 H 0.23813 0.14058 0.18604 0.0
H4370 H 0.23544 0.16037 0.3367 0.0
H4371 H 0.24159 0.17077 0.31094 0.0
H4372 H 0.22749 0.16957 0.31049 0.0
H4373 H 0.25326 0.13208 0.20854 0.0
H4374 H 0.26169 0.14171 0.23037 0.0
H4375 H 0.25532 0.13208 0.25909 0.0
H4376 H 0.27573 0.1646 0.32143 0.0
H4377 H 0.26013 0.14046 0.38511 0.0
H4378 H 0.2556 0.17104 0.26186 0.0
H4379 H 0.26212 0.16098 0.23558 0.0
H4380 H 0.26973 0.17035 0.26229 0.0
H4381 H 0.23646 0.14114 0.34105 0.0
H4382 H 0.24517 0.13169 0.36253 0.0
H4383 H 0.24312 0.13178 0.31199 0.0
C4384 C 0.10334 0.98991 0.4566 0.0
C4385 C 0.0961 0.98166 0.46041 0.0
C4386 C 0.10409 0.99782 0.48415 0.0
C4387 C 0.09743 0.99747 0.51619 0.0
C4388 C 0.09032 0.98901 0.52072 0.0
C4389 C 0.08975 0.9812 0.49279 0.0
C4390 C 0.11177 0.00671 0.47842 0.0
C4391 C 0.08312 0.98833 0.55462 0.0
C4392 C 0.10318 0.0133 0.60484 0.0
C4393 C 0.09602 0.02162 0.60125 0.0
C4394 C 0.10401 0.00556 0.5767 0.0
C4395 C 0.09751 0.00616 0.54427 0.0
C4396 C 0.09058 0.01477 0.53978 0.0
C4397 C 0.08992 0.0224 0.56832 0.0
C4398 C 0.11151 0.99652 0.58243 0.0
C4399 C 0.08356 0.01572 0.50547 0.0
H4400 H 0.10818 0.99038 0.43143 0.0
H4401 H 0.08426 0.97477 0.49614 0.0
H4402 H 0.10742 0.01419 0.4746 0.0
H4403 H 0.11682 0.00763 0.5038 0.0
H4404 H 0.11688 0.00546 0.45332 0.0
H4405 H 0.07835 0.98103 0.55464 0.0
H4406 H 0.08777 0.98863 0.58116 0.0
H4407 H 0.07772 0.99517 0.55485 0.0
H4408 H 0.10783 0.01258 0.63041 0.0
H4409 H 0.08449 0.02889 0.56517 0.0
H4410 H 0.11652 0.99546 0.55703 0.0
H4411 H 0.107 0.98914 0.58639 0.0
H4412 H 0.11666 0.99768 0.60748 0.0
H4413 H 0.08829 0.0152 0.47917 0.0
H4414 H 0.0791 0.02322 0.50514 0.0
H4415 H 0.07788 0.00911 0.50504 0.0
C4416 C 0.24178 0.84047 0.86209 0.0
C4417 C 0.232 0.84547 0.85908 0.0
C4418 C 0.24913 0.84093 0.83263 0.0
C4419 C 0.24667 0.8466 0.79932 0.0
C4420 C 0.23695 0.85195 0.7965 0.0
C4421 C 0.22972 0.85132 0.82646 0.0
C4422 C 0.25941 0.83513 0.83678 0.0
C4423 C 0.23408 0.8581 0.76144 0.0
C4424 C 0.26959 0.853 0.73437 0.0
C4425 C 0.26902 0.84477 0.70805 0.0
C4426 C 0.2622 0.85389 0.7637 0.0
C4427 C 0.25406 0.84635 0.76674 0.0
C4428 C 0.2533 0.83818 0.73975 0.0
C4429 C 0.26077 0.8375 0.71072 0.0
C4430 C 0.26324 0.86272 0.79196 0.0
C4431 C 0.24473 0.83 0.74198 0.0
H4432 H 0.24369 0.83612 0.88758 0.0
H4433 H 0.22216 0.85517 0.82389 0.0
H4434 H 0.25994 0.82886 0.81504 0.0
H4435 H 0.26609 0.84057 0.83203 0.0
H4436 H 0.2603 0.83148 0.86516 0.0
H4437 H 0.22657 0.86243 0.76478 0.0
H4438 H 0.24038 0.8638 0.75449 0.0
H4439 H 0.23334 0.85267 0.73701 0.0
H4440 H 0.27598 0.85861 0.73258 0.0
H4441 H 0.26014 0.83125 0.68999 0.0
H4442 H 0.26498 0.85945 0.8204 0.0
H4443 H 0.25573 0.8671 0.79419 0.0
H4444 H 0.26957 0.86832 0.78422 0.0
H4445 H 0.24549 0.82549 0.76872 0.0
H4446 H 0.24499 0.8244 0.71787 0.0
H4447 H 0.23691 0.83385 0.74233 0.0
C4448 C 0.39724 0.00973 0.95827 0.0
C4449 C 0.40156 0.01966 0.96547 0.0
C4450 C 0.39708 0.00194 0.98639 0.0
C4451 C 0.40125 0.00419 0.02265 0.0
C4452 C 0.40521 0.01436 0.03052 0.0
C4453 C 0.40538 0.02195 0.00174 0.0
C4454 C 0.3929 0.99117 0.97679 0.0
C4455 C 0.40959 0.01711 0.069 0.0
C4456 C 0.39522 0.98626 0.10596 0.0
C4457 C 0.40461 0.98058 0.10904 0.0
C4458 C 0.39393 0.9939 0.07763 0.0
C4459 C 0.40217 0.99575 0.05154 0.0
C4460 C 0.41153 0.98976 0.05382 0.0
C4461 C 0.41266 0.9823 0.08275 0.0
C4462 C 0.38391 0.00022 0.07637 0.0
C4463 C 0.42042 0.99136 0.02613 0.0
H4464 H 0.39438 0.0079 0.93011 0.0
H4465 H 0.40864 0.02966 0.00742 0.0
H4466 H 0.39941 0.98537 0.97762 0.0
H4467 H 0.387 0.98866 0.99803 0.0
H4468 H 0.38924 0.99091 0.94825 0.0
H4469 H 0.41157 0.02558 0.07143 0.0
H4470 H 0.40384 0.01508 0.09145 0.0
H4471 H 0.4168 0.01246 0.07441 0.0
H4472 H 0.38904 0.98499 0.12654 0.0
H4473 H 0.41989 0.97784 0.08499 0.0
H4474 H 0.38031 -0.00026 0.04783 0.0
H4475 H 0.38569 0.00862 0.08183 0.0
H4476 H 0.37808 0.9975 0.09763 0.0
H4477 H 0.41751 0.99057 0.99667 0.0
H4478 H 0.42691 0.98565 0.0305 0.0
H4479 H 0.42363 0.99942 0.02917 0.0
C4480 C 0.76929 0.84516 0.82645 0.0
C4481 C 0.76739 0.84906 0.86293 0.0
C4482 C 0.76154 0.84566 0.79829 0.0
C4483 C 0.75166 0.85019 0.80681 0.0
C4484 C 0.74984 0.85454 0.84309 0.0
C4485 C 0.75773 0.8539 0.87075 0.0
C4486 C 0.76379 0.841 0.75983 0.0
C4487 C 0.73942 0.85945 0.8532 0.0
C4488 C 0.734 0.85645 0.72301 0.0
C4489 C 0.72777 0.84738 0.72119 0.0
C4490 C 0.74162 0.85766 0.75148 0.0
C4491 C 0.743 0.8496 0.77865 0.0
C4492 C 0.73643 0.84063 0.77782 0.0
C4493 C 0.72889 0.83964 0.74914 0.0
C4494 C 0.74844 0.86735 0.7516 0.0
C4495 C 0.7376 0.8319 0.80646 0.0
H4496 H 0.7768 0.84156 0.82007 0.0
H4497 H 0.75617 0.85684 0.89899 0.0
H4498 H 0.75861 0.83412 0.755 0.0
H4499 H 0.76206 0.84681 0.73727 0.0
H4500 H 0.77208 0.83841 0.75697 0.0
H4501 H 0.73962 0.86338 0.88126 0.0
H4502 H 0.73709 0.86529 0.83146 0.0
H4503 H 0.73325 0.85329 0.8538 0.0
H4504 H 0.73323 0.86242 0.7013 0.0
H4505 H 0.72397 0.8327 0.74819 0.0
H4506 H 0.75666 0.86514 0.74487 0.0
H4507 H 0.74848 0.87101 0.78011 0.0
H4508 H 0.74577 0.87329 0.73063 0.0
H4509 H 0.74546 0.82821 0.80348 0.0
H4510 H 0.73153 0.82571 0.80304 0.0
H4511 H 0.73708 0.8351 0.83561 0.0
C4512 C 0.89337 0.01727 0.5917 0.0
C4513 C 0.9025 0.01787 0.61378 0.0
C4514 C 0.89257 0.01 0.56193 0.0
C4515 C 0.90108 0.00314 0.55439 0.0
C4516 C 0.91023 0.0036 0.57711 0.0
C4517 C 0.91083 0.01097 0.60646 0.0
C4518 C 0.88273 0.00978 0.53812 0.0
C4519 C 0.91944 0.99637 0.57014 0.0
C4520 C 0.89778 0.97822 0.49646 0.0
C4521 C 0.9022 0.98124 0.46179 0.0
C4522 C 0.89699 0.98538 0.52658 0.0
C4523 C 0.90069 0.99579 0.52174 0.0
C4524 C 0.90475 0.99899 0.48628 0.0
C4525 C 0.90545 0.99167 0.45676 0.0
C4526 C 0.89261 0.9817 0.56401 0.0
C4527 C 0.9087 0.01003 0.4799 0.0
H4528 H 0.88694 0.02263 0.59726 0.0
H4529 H 0.91782 0.01129 0.62395 0.0
H4530 H 0.88467 0.01188 0.50844 0.0
H4531 H 0.87937 0.00174 0.53771 0.0
H4532 H 0.87666 0.01532 0.54867 0.0
H4533 H 0.92581 0.99747 0.59126 0.0
H4534 H 0.91683 0.98806 0.57108 0.0
H4535 H 0.9227 0.99782 0.54149 0.0
H4536 H 0.89529 0.97015 0.50049 0.0
H4537 H 0.90869 0.9941 0.42975 0.0
H4538 H 0.88641 0.98715 0.57402 0.0
H4539 H 0.89894 0.9817 0.58562 0.0
H4540 H 0.88926 0.97366 0.56221 0.0
H4541 H 0.90261 0.01583 0.48816 0.0
H4542 H 0.91093 0.01146 0.44993 0.0
H4543 H 0.91568 0.01148 0.49798 0.0
C4544 C 0.77106 0.15216 0.24832 0.0
C4545 C 0.76847 0.15011 0.21045 0.0
C4546 C 0.76335 0.15201 0.27669 0.0
C4547 C 0.7528 0.14975 0.26694 0.0
C4548 C 0.7502 0.14728 0.22903 0.0
C4549 C 0.75807 0.14751 0.20122 0.0
C4550 C 0.76644 0.15464 0.31687 0.0
C4551 C 0.73904 0.14485 0.21754 0.0
C4552 C 0.73407 0.14353 0.34768 0.0
C4553 C 0.72959 0.15342 0.3545 0.0
C4554 C 0.74147 0.14213 0.31863 0.0
C4555 C 0.7444 0.15081 0.2959 0.0
C4556 C 0.7396 0.16071 0.3018 0.0
C4557 C 0.73227 0.16189 0.33106 0.0
C4558 C 0.74642 0.13147 0.31312 0.0
C4559 C 0.74244 0.17013 0.27792 0.0
H4560 H 0.77911 0.15404 0.25568 0.0
H4561 H 0.75597 0.14605 0.17194 0.0
H4562 H 0.76265 0.16211 0.32551 0.0
H4563 H 0.76364 0.14844 0.3365 0.0
H4564 H 0.77507 0.15549 0.32023 0.0
H4565 H 0.73849 0.14214 0.18772 0.0
H4566 H 0.73567 0.13871 0.23624 0.0
H4567 H 0.73413 0.15199 0.22079 0.0
H4568 H 0.73207 0.13699 0.36596 0.0
H4569 H 0.72871 0.1695 0.33596 0.0
H4570 H 0.75492 0.13189 0.31982 0.0
H4571 H 0.74572 0.12898 0.28313 0.0
H4572 H 0.74277 0.12537 0.33139 0.0
H4573 H 0.75084 0.17213 0.28213 0.0
H4574 H 0.73762 0.17714 0.28501 0.0
H4575 H 0.74135 0.1683 0.24746 0.0
C4576 C 0.60613 0.9841 0.09774 0.0
C4577 C 0.59625 0.97953 0.10378 0.0
C4578 C 0.60763 0.99152 0.0688 0.0
C4579 C 0.59907 0.99436 0.04536 0.0
C4580 C 0.58919 0.98946 0.05049 0.0
C4581 C 0.5879 0.98212 0.07966 0.0
C4582 C 0.61828 0.99658 0.06413 0.0
C4583 C 0.57989 0.9922 0.02585 0.0
C4584 C 0.59765 0.02099 0.99753 0.0
C4585 C 0.59991 0.01841 0.95982 0.0
C4586 C 0.59777 0.0133 0.02598 0.0
C4587 C 0.60021 0.00278 0.01646 0.0
C4588 C 0.60292 0.0002 0.97875 0.0
C4589 C 0.60272 0.00804 0.95086 0.0
C4590 C 0.59489 0.01637 0.06595 0.0
C4591 C 0.60556 0.98906 0.9675 0.0
H4592 H 0.61258 0.98217 0.11654 0.0
H4593 H 0.5803 0.97848 0.08396 0.0
H4594 H 0.62095 0.99591 0.03434 0.0
H4595 H 0.61772 0.00508 0.07081 0.0
H4596 H 0.62429 0.99299 0.08287 0.0
H4597 H 0.57289 0.98732 0.03241 0.0
H4598 H 0.57778 0.00058 0.02986 0.0
H4599 H 0.58191 0.99112 0.99556 0.0
H4600 H 0.59562 0.02902 0.00472 0.0
H4601 H 0.60434 0.00595 0.9217 0.0
H4602 H 0.601 0.01363 0.08604 0.0
H4603 H 0.5874 0.01251 0.07405 0.0
H4604 H 0.59394 0.025 0.06921 0.0
H4605 H 0.61161 0.98576 0.98674 0.0
H4606 H 0.60848 0.98855 0.93793 0.0
H4607 H 0.59846 0.98407 0.97012 0.0
C4608 C 0.77013 0.64808 0.83139 0.0
C4609 C 0.76889 0.65568 0.85974 0.0
C4610 C 0.76283 0.64722 0.8017 0.0
C4611 C 0.75407 0.65407 0.80066 0.0
C4612 C 0.75269 0.66162 0.82965 0.0
C4613 C 0.76012 0.66234 0.85875 0.0
C4614 C 0.76458 0.63913 0.77111 0.0
C4615 C 0.74341 0.66902 0.82971 0.0
C4616 C 0.74045 0.66065 0.70831 0.0
C4617 C 0.73129 0.65457 0.71071 0.0
C4618 C 0.7481 0.66028 0.73679 0.0
C4619 C 0.74652 0.6537 0.7686 0.0
C4620 C 0.73742 0.64733 0.77076 0.0
C4621 C 0.72992 0.64781 0.74164 0.0
C4622 C 0.75774 0.66712 0.73328 0.0
C4623 C 0.73545 0.64028 0.80437 0.0
H4624 H 0.77691 0.64294 0.83203 0.0
H4625 H 0.75903 0.6681 0.88103 0.0
H4626 H 0.75759 0.63399 0.76847 0.0
H4627 H 0.76567 0.64311 0.74345 0.0
H4628 H 0.77157 0.63414 0.77678 0.0
H4629 H 0.7433 0.67418 0.85507 0.0
H4630 H 0.74363 0.67405 0.80407 0.0
H4631 H 0.73598 0.66449 0.82881 0.0
H4632 H 0.74162 0.66574 0.68405 0.0
H4633 H 0.72283 0.64313 0.74361 0.0
H4634 H 0.76494 0.6623 0.73653 0.0
H4635 H 0.75778 0.67306 0.75625 0.0
H4636 H 0.75809 0.67127 0.70565 0.0
H4637 H 0.7423 0.63507 0.80923 0.0
H4638 H 0.72833 0.63534 0.80063 0.0
H4639 H 0.73444 0.64513 0.83022 0.0
C4640 C 0.59276 0.52058 0.06985 0.0
C4641 C 0.59847 0.51954 0.10358 0.0
C4642 C 0.59316 0.51279 0.04182 0.0
C4643 C 0.5994 0.50373 0.0477 0.0
C4644 C 0.60546 0.50279 0.08111 0.0
C4645 C 0.60493 0.51072 0.10867 0.0
C4646 C 0.58664 0.51411 0.00641 0.0
C4647 C 0.61219 0.49324 0.0884 0.0
C4648 C 0.59044 0.47943 0.99471 0.0
C4649 C 0.59721 0.4794 0.96345 0.0
C4650 C 0.59129 0.48712 0.02296 0.0
C4651 C 0.59908 0.495 0.01976 0.0
C4652 C 0.60617 0.49482 0.98891 0.0
C4653 C 0.60517 0.487 0.96113 0.0
C4654 C 0.58364 0.48698 0.05564 0.0
C4655 C 0.61456 0.50312 0.98451 0.0
H4656 H 0.58787 0.52745 0.06559 0.0
H4657 H 0.60927 0.50981 0.13488 0.0
H4658 H 0.59165 0.51323 0.98091 0.0
H4659 H 0.58055 0.50789 0.00518 0.0
H4660 H 0.58268 0.52189 0.00521 0.0
H4661 H 0.61701 0.49406 0.11443 0.0
H4662 H 0.6071 0.48621 0.09147 0.0
H4663 H 0.61749 0.49179 0.06404 0.0
H4664 H 0.58436 0.47349 0.99682 0.0
H4665 H 0.61035 0.48708 0.9368 0.0
H4666 H 0.57866 0.49413 0.05472 0.0
H4667 H 0.58795 0.48709 0.08293 0.0
H4668 H 0.57844 0.47998 0.05509 0.0
H4669 H 0.61082 0.51088 0.97978 0.0
H4670 H 0.61991 0.50144 0.9604 0.0
H4671 H 0.61929 0.50372 0.01078 0.0
C4672 C 0.73971 0.33882 0.36576 0.0
C4673 C 0.7304 0.34468 0.3646 0.0
C4674 C 0.74721 0.33966 0.33694 0.0
C4675 C 0.74533 0.34648 0.30603 0.0
C4676 C 0.73605 0.35262 0.30513 0.0
C4677 C 0.7287 0.35169 0.3346 0.0
C4678 C 0.75705 0.33306 0.33913 0.0
C4679 C 0.73374 0.35992 0.27247 0.0
C4680 C 0.76881 0.35296 0.24386 0.0
C4681 C 0.76783 0.34537 0.21536 0.0
C4682 C 0.76139 0.35362 0.27321 0.0
C4683 C 0.75276 0.3466 0.27362 0.0
C4684 C 0.75156 0.33917 0.24413 0.0
C4685 C 0.75913 0.33862 0.21547 0.0
C4686 C 0.76296 0.36158 0.30436 0.0
C4687 C 0.7424 0.33163 0.24332 0.0
H4688 H 0.74112 0.33354 0.38931 0.0
H4689 H 0.72149 0.3562 0.33363 0.0
H4690 H 0.75716 0.32733 0.31544 0.0
H4691 H 0.76411 0.3381 0.33614 0.0
H4692 H 0.75763 0.32865 0.3662 0.0
H4693 H 0.72654 0.36465 0.27725 0.0
H4694 H 0.74045 0.36532 0.26775 0.0
H4695 H 0.73271 0.35527 0.24616 0.0
H4696 H 0.77555 0.35817 0.24378 0.0
H4697 H 0.75826 0.33287 0.19301 0.0
H4698 H 0.76439 0.35746 0.33155 0.0
H4699 H 0.75577 0.36639 0.308 0.0
H4700 H 0.7697 0.36689 0.29863 0.0
H4701 H 0.74282 0.32629 0.26808 0.0
H4702 H 0.74227 0.32679 0.21714 0.0
H4703 H 0.73489 0.33601 0.24536 0.0
C4704 C 0.91394 0.48614 0.59671 0.0
C4705 C 0.90546 0.47943 0.60453 0.0
C4706 C 0.91337 0.49363 0.56769 0.0
C4707 C 0.90402 0.49461 0.54634 0.0
C4708 C 0.89538 0.48797 0.55426 0.0
C4709 C 0.89623 0.4804 0.58305 0.0
C4710 C 0.9228 0.5005 0.55986 0.0
C4711 C 0.88525 0.48886 0.53227 0.0
C4712 C 0.90071 0.52045 0.49389 0.0
C4713 C 0.90415 0.51769 0.45767 0.0
C4714 C 0.90029 0.51292 0.52289 0.0
C4715 C 0.90344 0.50245 0.51523 0.0
C4716 C 0.90667 0.49962 0.47824 0.0
C4717 C 0.907 0.50731 0.44987 0.0
C4718 C 0.89677 0.51621 0.56194 0.0
C4719 C 0.91012 0.48857 0.46897 0.0
H4720 H 0.92102 0.48566 0.61363 0.0
H4721 H 0.88967 0.4752 0.58847 0.0
H4722 H 0.92536 0.4995 0.53005 0.0
H4723 H 0.92069 0.50888 0.56368 0.0
H4724 H 0.92954 0.49864 0.57872 0.0
H4725 H 0.87914 0.48335 0.54274 0.0
H4726 H 0.88216 0.49699 0.53418 0.0
H4727 H 0.88671 0.4872 0.50189 0.0
H4728 H 0.89856 0.52854 0.49964 0.0
H4729 H 0.90969 0.50528 0.42168 0.0
H4730 H 0.90341 0.51548 0.58209 0.0
H4731 H 0.89042 0.51096 0.57212 0.0
H4732 H 0.89389 0.52445 0.56256 0.0
H4733 H 0.91729 0.48661 0.48538 0.0
H4734 H 0.91185 0.48754 0.43837 0.0
H4735 H 0.90395 0.48287 0.47727 0.0
C4736 C 0.22878 0.34483 0.24591 0.0
C4737 C 0.22945 0.35022 0.2114 0.0
C4738 C 0.23656 0.34596 0.27368 0.0
C4739 C 0.24523 0.35266 0.26674 0.0
C4740 C 0.24566 0.35857 0.23283 0.0
C4741 C 0.23775 0.35728 0.20551 0.0
C4742 C 0.23576 0.33959 0.30963 0.0
C4743 C 0.25476 0.3658 0.2245 0.0
C4744 C 0.2623 0.35845 0.35242 0.0
C4745 C 0.26987 0.35049 0.34952 0.0
C4746 C 0.25445 0.35959 0.32476 0.0
C4747 C 0.25425 0.35264 0.29349 0.0
C4748 C 0.26223 0.34497 0.28943 0.0
C4749 C 0.26991 0.34396 0.3176 0.0
C4750 C 0.24607 0.36784 0.3301 0.0
C4751 C 0.26237 0.33749 0.25626 0.0
H4752 H 0.22229 0.33949 0.2508 0.0
H4753 H 0.23834 0.36141 0.17876 0.0
H4754 H 0.24214 0.33365 0.31033 0.0
H4755 H 0.23677 0.34473 0.33473 0.0
H4756 H 0.22811 0.33545 0.31204 0.0
H4757 H 0.25329 0.37079 0.19923 0.0
H4758 H 0.25638 0.37097 0.24911 0.0
H4759 H 0.26194 0.36107 0.21935 0.0
H4760 H 0.26221 0.36346 0.37725 0.0
H4761 H 0.27583 0.33788 0.31517 0.0
H4762 H 0.2385 0.36397 0.33693 0.0
H4763 H 0.2449 0.37237 0.30359 0.0
H4764 H 0.24803 0.37339 0.35331 0.0
H4765 H 0.25546 0.3322 0.25781 0.0
H4766 H 0.26959 0.33259 0.25564 0.0
H4767 H 0.26181 0.3419 0.22925 0.0
C4768 C 0.40692 0.48973 0.96012 0.0
C4769 C 0.40046 0.48085 0.96128 0.0
C4770 C 0.40644 0.49734 0.98869 0.0
C4771 C 0.3995 0.49589 0.01957 0.0
C4772 C 0.39284 0.48697 0.02055 0.0
C4773 C 0.39332 0.47958 0.99104 0.0
C4774 C 0.41352 0.50683 0.9862 0.0
C4775 C 0.38549 0.48505 0.05336 0.0
C4776 C 0.40798 0.50968 0.10959 0.0
C4777 C 0.40141 0.51849 0.10979 0.0
C4778 C 0.40714 0.50205 0.08115 0.0
C4779 C 0.39971 0.50342 0.05174 0.0
C4780 C 0.39295 0.51227 0.0521 0.0
C4781 C 0.3938 0.51966 0.08149 0.0
C4782 C 0.41435 0.49263 0.08223 0.0
C4783 C 0.38508 0.51409 0.02082 0.0
H4784 H 0.41238 0.49068 0.93679 0.0
H4785 H 0.38837 0.47265 0.99174 0.0
H4786 H 0.40886 0.51414 0.98935 0.0
H4787 H 0.41932 0.50666 0.00964 0.0
H4788 H 0.41786 0.50718 0.95894 0.0
H4789 H 0.38051 0.47799 0.04902 0.0
H4790 H 0.39012 0.48398 0.07971 0.0
H4791 H 0.38032 0.49195 0.0577 0.0
H4792 H 0.41379 0.50876 0.13183 0.0
H4793 H 0.38875 0.52651 0.08177 0.0
H4794 H 0.41976 0.49284 0.05763 0.0
H4795 H 0.4097 0.48528 0.08009 0.0
H4796 H 0.41912 0.49234 0.10855 0.0
H4797 H 0.38928 0.51519 0.99357 0.0
H4798 H 0.38011 0.52111 0.02612 0.0
H4799 H 0.37992 0.50714 0.01758 0.0
C4800 C 0.23514 0.64143 0.84951 0.0
C4801 C 0.228 0.64981 0.84759 0.0
C4802 C 0.24293 0.64015 0.82175 0.0
C4803 C 0.24353 0.64738 0.79138 0.0
C4804 C 0.23599 0.65551 0.78831 0.0
C4805 C 0.22834 0.65664 0.81652 0.0
C4806 C 0.25084 0.63139 0.826 0.0
C4807 C 0.23628 0.66331 0.7561 0.0
C4808 C 0.26943 0.65396 0.74433 0.0
C4809 C 0.26846 0.64879 0.70948 0.0
C4810 C 0.26158 0.65315 0.77196 0.0
C4811 C 0.2525 0.64706 0.76447 0.0
C4812 C 0.2517 0.64143 0.73004 0.0
C4813 C 0.25972 0.64235 0.70293 0.0
C4814 C 0.26278 0.65919 0.80851 0.0
C4815 C 0.24214 0.63488 0.72103 0.0
H4816 H 0.23494 0.63618 0.87367 0.0
H4817 H 0.22274 0.66304 0.81477 0.0
H4818 H 0.25168 0.62701 0.79903 0.0
H4819 H 0.25864 0.63477 0.83292 0.0
H4820 H 0.24862 0.62579 0.84874 0.0
H4821 H 0.22937 0.66863 0.7562 0.0
H4822 H 0.2435 0.66816 0.75822 0.0
H4823 H 0.23656 0.65914 0.72855 0.0
H4824 H 0.27626 0.65883 0.74965 0.0
H4825 H 0.25889 0.63841 0.67588 0.0
H4826 H 0.2615 0.65392 0.83311 0.0
H4827 H 0.25676 0.66547 0.80992 0.0
H4828 H 0.27067 0.66286 0.8112 0.0
H4829 H 0.24027 0.62955 0.74495 0.0
H4830 H 0.24323 0.63009 0.69502 0.0
H4831 H 0.23526 0.6401 0.71685 0.0
C4832 C 0.09629 0.52119 0.50165 0.0
C4833 C 0.10088 0.51972 0.46601 0.0
C4834 C 0.09697 0.5134 0.52961 0.0
C4835 C 0.10227 0.50388 0.52154 0.0
C4836 C 0.1073 0.50254 0.48614 0.0
C4837 C 0.10659 0.51052 0.4588 0.0
C4838 C 0.09161 0.51519 0.56721 0.0
C4839 C 0.11296 0.49248 0.4764 0.0
C4840 C 0.10795 0.48626 0.60591 0.0
C4841 C 0.09903 0.4798 0.60601 0.0
C4842 C 0.10935 0.49392 0.57773 0.0
C4843 C 0.10168 0.49504 0.54895 0.0
C4844 C 0.09296 0.48815 0.5479 0.0
C4845 C 0.09171 0.48065 0.57658 0.0
C4846 C 0.11872 0.50115 0.57987 0.0
C4847 C 0.08469 0.48898 0.51737 0.0
H4848 H 0.09197 0.52836 0.50737 0.0
H4849 H 0.11007 0.50933 0.43112 0.0
H4850 H 0.08488 0.50971 0.57013 0.0
H4851 H 0.09712 0.51353 0.59082 0.0
H4852 H 0.08864 0.52335 0.57022 0.0
H4853 H 0.11738 0.4931 0.44938 0.0
H4854 H 0.1185 0.49029 0.4993 0.0
H4855 H 0.10717 0.486 0.47376 0.0
H4856 H 0.11358 0.48564 0.62885 0.0
H4857 H 0.08487 0.47558 0.57648 0.0
H4858 H 0.11604 0.50922 0.58689 0.0
H4859 H 0.12275 0.50156 0.55207 0.0
H4860 H 0.12447 0.4986 0.60167 0.0
H4861 H 0.08044 0.49655 0.52021 0.0
H4862 H 0.07887 0.48249 0.51885 0.0
H4863 H 0.08841 0.4889 0.48898 0.0
loop_
_geom_bond_atom_site_label_1
_geom_bond_atom_site_label_2
_geom_bond_distance
_geom_bond_site_symmetry_2
_ccdc_geom_bond_type
Li0 N17 1.990 . S
Li0 O60 1.956 . S
Li0 O61 1.970 . S
Li0 O62 1.961 . S
Li1 N25 1.990 . S
Li1 O60 1.970 . S
Li1 O61 1.956 . S
Li1 O63 1.961 1_554 S
Li2 N47 1.990 . S
Li2 O60 1.961 1_556 S
Li2 O62 1.956 1_556 S
Li2 O63 1.970 . S
Li3 N53 1.990 . S
Li3 O61 1.961 . S
Li3 O62 1.970 . S
Li3 O63 1.956 1_554 S
C4 C6 1.348 . S
C4 C7 1.356 . S
C4 O60 1.325 . S
N5 C8 1.314 . S
N5 C9 1.279 . S
C6 C4 1.348 . S
C6 C8 1.353 . S
C6 H64 0.929 . S
C7 C4 1.356 . S
C7 C9 1.358 . S
C7 H65 0.930 . S
C8 N5 1.314 . S
C8 C6 1.353 . S
C8 H66 0.930 . S
C9 N5 1.279 . S
C9 C7 1.358 . S
C9 H67 0.930 . S
C10 C13 1.348 . S
C10 C14 1.356 . S
C10 O61 1.325 . S
C11 N12 1.279 . S
C11 C14 1.358 . S
C11 H68 0.930 . S
N12 C11 1.279 . S
N12 C15 1.314 . S
C13 C10 1.348 . S
C13 C15 1.353 . S
C13 H69 0.929 . S
C14 C10 1.356 . S
C14 C11 1.358 . S
C14 H70 0.930 . S
C15 N12 1.314 . S
C15 C13 1.353 . S
C15 H71 0.930 . S
C16 N17 1.314 . S
C16 C21 1.353 . S
C16 H22 0.930 . S
N17 Li0 1.990 . S
N17 C16 1.314 . S
N17 C19 1.279 . S
C18 C19 1.358 . S
C18 C20 1.356 . S
C18 H72 0.930 . S
C19 N17 1.279 . S
C19 C18 1.358 . S
C19 H23 0.930 . S
C20 C18 1.356 . S
C20 C21 1.348 . S
C21 C16 1.353 . S
C21 C20 1.348 . S
C21 H73 0.929 . S
H22 C16 0.930 . S
H23 C19 0.930 . S
C24 N25 1.314 1_556 S
C24 C26 1.353 . S
C24 H30 0.930 . S
N25 Li1 1.990 . S
N25 C24 1.314 1_554 S
N25 C28 1.279 . S
C26 C24 1.353 . S
C26 C29 1.348 . S
C26 H74 0.929 . S
C27 C28 1.358 . S
C27 C29 1.356 1_554 S
C27 H75 0.930 . S
C28 N25 1.279 . S
C28 C27 1.358 . S
C28 H31 0.930 . S
C29 C26 1.348 . S
C29 C27 1.356 1_556 S
H30 C24 0.930 . S
H31 C28 0.930 . S
C32 C34 1.348 . S
C32 C35 1.356 . S
C32 O62 1.325 . S
N33 C36 1.314 . S
N33 C37 1.279 . S
C34 C32 1.348 . S
C34 C36 1.353 . S
C34 H76 0.929 . S
C35 C32 1.356 . S
C35 C37 1.358 . S
C35 H77 0.930 . S
C36 N33 1.314 . S
C36 C34 1.353 . S
C36 H78 0.930 . S
C37 N33 1.279 . S
C37 C35 1.358 . S
C37 H79 0.930 . S
C38 C39 1.348 . S
C38 C40 1.356 . S
C38 O63 1.325 . S
C39 C38 1.348 . S
C39 C41 1.353 . S
C39 H80 0.929 . S
C40 C38 1.356 . S
C40 C42 1.358 . S
C40 H81 0.930 . S
C41 C39 1.353 . S
C41 N43 1.314 . S
C41 H82 0.930 . S
C42 C40 1.358 . S
C42 N43 1.279 . S
C42 H83 0.930 . S
N43 C41 1.314 . S
N43 C42 1.279 . S
C44 C46 1.353 . S
C44 N47 1.314 . S
C44 H50 0.930 . S
C45 N47 1.279 . S
C45 C48 1.358 . S
C45 H51 0.930 . S
C46 C44 1.353 . S
C46 C49 1.348 . S
C46 H84 0.929 . S
N47 Li2 1.990 . S
N47 C44 1.314 . S
N47 C45 1.279 . S
C48 C45 1.358 . S
C48 C49 1.356 . S
C48 H85 0.930 . S
C49 C46 1.348 . S
C49 C48 1.356 . S
H50 C44 0.930 . S
H51 C45 0.930 . S
C52 N53 1.314 . S
C52 C54 1.353 . S
C52 H58 0.930 . S
N53 Li3 1.990 . S
N53 C52 1.314 . S
N53 C56 1.279 1_554 S
C54 C52 1.353 . S
C54 C57 1.348 . S
C54 H86 0.929 . S
C55 C56 1.358 . S
C55 C57 1.356 1_556 S
C55 H87 0.930 . S
C56 N53 1.279 1_556 S
C56 C55 1.358 . S
C56 H59 0.930 . S
C57 C54 1.348 . S
C57 C55 1.356 1_554 S
H58 C52 0.930 . S
H59 C56 0.930 . S
O60 Li0 1.956 . S
O60 Li1 1.970 . S
O60 Li2 1.961 1_554 S
O60 C4 1.325 . S
O61 Li0 1.970 . S
O61 Li1 1.956 . S
O61 Li3 1.961 . S
O61 C10 1.325 . S
O62 Li0 1.961 . S
O62 Li2 1.956 1_554 S
O62 Li3 1.970 . S
O62 C32 1.325 . S
O63 Li1 1.961 1_556 S
O63 Li2 1.970 . S
O63 Li3 1.956 1_556 S
O63 C38 1.325 . S
H64 C6 0.929 . S
H65 C7 0.930 . S
H66 C8 0.930 . S
H67 C9 0.930 . S
H68 C11 0.930 . S
H69 C13 0.929 . S
H70 C14 0.930 . S
H71 C15 0.930 . S
H72 C18 0.930 . S
H73 C21 0.929 . S
H74 C26 0.929 . S
H75 C27 0.930 . S
H76 C34 0.929 . S
H77 C35 0.930 . S
H78 C36 0.930 . S
H79 C37 0.930 . S
H80 C39 0.929 . S
H81 C40 0.930 . S
H82 C41 0.930 . S
H83 C42 0.930 . S
H84 C46 0.929 . S
H85 C48 0.930 . S
H86 C54 0.929 . S
H87 C55 0.930 . S
Li88 N105 1.990 . S
Li88 O148 1.956 . S
Li88 O149 1.970 . S
Li88 O150 1.961 . S
Li89 N113 1.990 . S
Li89 O148 1.970 . S
Li89 O149 1.956 . S
Li89 O151 1.961 . S
Li90 N135 1.990 . S
Li90 O148 1.961 . S
Li90 O150 1.956 . S
Li90 O151 1.970 . S
Li91 N141 1.990 . S
Li91 O149 1.961 . S
Li91 O150 1.970 . S
Li91 O151 1.956 . S
C92 C94 1.348 . S
C92 C95 1.356 . S
C92 O148 1.325 . S
N93 C96 1.314 . S
N93 C97 1.279 . S
C94 C92 1.348 . S
C94 C96 1.353 . S
C94 H152 0.929 . S
C95 C92 1.356 . S
C95 C97 1.358 . S
C95 H153 0.930 . S
C96 N93 1.314 . S
C96 C94 1.353 . S
C96 H154 0.930 . S
C97 N93 1.279 . S
C97 C95 1.358 . S
C97 H155 0.930 . S
C98 C101 1.348 . S
C98 C102 1.356 . S
C98 O149 1.325 . S
C99 N100 1.279 . S
C99 C102 1.358 . S
C99 H156 0.930 . S
N100 C99 1.279 . S
N100 C103 1.314 . S
C101 C98 1.348 . S
C101 C103 1.353 . S
C101 H157 0.929 . S
C102 C98 1.356 . S
C102 C99 1.358 . S
C102 H158 0.930 . S
C103 N100 1.314 . S
C103 C101 1.353 . S
C103 H159 0.930 . S
C104 N105 1.314 . S
C104 C109 1.353 . S
C104 H110 0.930 . S
N105 Li88 1.990 . S
N105 C104 1.314 . S
N105 C107 1.279 . S
C106 C107 1.358 . S
C106 C108 1.356 . S
C106 H160 0.930 . S
C107 N105 1.279 . S
C107 C106 1.358 . S
C107 H111 0.930 . S
C108 C106 1.356 . S
C108 C109 1.348 . S
C109 C104 1.353 . S
C109 C108 1.348 . S
C109 H161 0.929 . S
H110 C104 0.930 . S
H111 C107 0.930 . S
C112 N113 1.314 . S
C112 C114 1.353 . S
C112 H118 0.930 . S
N113 Li89 1.990 . S
N113 C112 1.314 . S
N113 C116 1.279 . S
C114 C112 1.353 . S
C114 C117 1.348 . S
C114 H162 0.929 . S
C115 C116 1.358 . S
C115 C117 1.356 . S
C115 H163 0.930 . S
C116 N113 1.279 . S
C116 C115 1.358 . S
C116 H119 0.930 . S
C117 C114 1.348 . S
C117 C115 1.356 . S
H118 C112 0.930 . S
H119 C116 0.930 . S
C120 C122 1.348 . S
C120 C123 1.356 . S
C120 O150 1.325 . S
N121 C124 1.314 . S
N121 C125 1.279 . S
C122 C120 1.348 . S
C122 C124 1.353 . S
C122 H164 0.929 . S
C123 C120 1.356 . S
C123 C125 1.358 . S
C123 H165 0.930 . S
C124 N121 1.314 . S
C124 C122 1.353 . S
C124 H166 0.930 . S
C125 N121 1.279 . S
C125 C123 1.358 . S
C125 H167 0.930 . S
C126 C127 1.348 . S
C126 C128 1.356 . S
C126 O151 1.325 . S
C127 C126 1.348 . S
C127 C129 1.353 . S
C127 H168 0.929 . S
C128 C126 1.356 . S
C128 C130 1.358 . S
C128 H169 0.930 . S
C129 C127 1.353 . S
C129 N131 1.314 . S
C129 H170 0.930 . S
C130 C128 1.358 . S
C130 N131 1.279 . S
C130 H171 0.930 . S
N131 C129 1.314 . S
N131 C130 1.279 . S
C132 C134 1.353 . S
C132 N135 1.314 . S
C132 H138 0.930 . S
C133 N135 1.279 . S
C133 C136 1.358 . S
C133 H139 0.930 . S
C134 C132 1.353 . S
C134 C137 1.348 . S
C134 H172 0.929 . S
N135 Li90 1.990 . S
N135 C132 1.314 . S
N135 C133 1.279 . S
C136 C133 1.358 . S
C136 C137 1.356 . S
C136 H173 0.930 . S
C137 C134 1.348 . S
C137 C136 1.356 . S
H138 C132 0.930 . S
H139 C133 0.930 . S
C140 N141 1.314 . S
C140 C142 1.353 . S
C140 H146 0.930 . S
N141 Li91 1.990 . S
N141 C140 1.314 . S
N141 C144 1.279 . S
C142 C140 1.353 . S
C142 C145 1.348 . S
C142 H174 0.929 . S
C143 C144 1.358 . S
C143 C145 1.356 . S
C143 H175 0.930 . S
C144 N141 1.279 . S
C144 C143 1.358 . S
C144 H147 0.930 . S
C145 C142 1.348 . S
C145 C143 1.356 . S
H146 C140 0.930 . S
H147 C144 0.930 . S
O148 Li88 1.956 . S
O148 Li89 1.970 . S
O148 Li90 1.961 . S
O148 C92 1.325 . S
O149 Li88 1.970 . S
O149 Li89 1.956 . S
O149 Li91 1.961 . S
O149 C98 1.325 . S
O150 Li88 1.961 . S
O150 Li90 1.956 . S
O150 Li91 1.970 . S
O150 C120 1.325 . S
O151 Li89 1.961 . S
O151 Li90 1.970 . S
O151 Li91 1.956 . S
O151 C126 1.325 . S
H152 C94 0.929 . S
H153 C95 0.930 . S
H154 C96 0.930 . S
H155 C97 0.930 . S
H156 C99 0.930 . S
H157 C101 0.929 . S
H158 C102 0.930 . S
H159 C103 0.930 . S
H160 C106 0.930 . S
H161 C109 0.929 . S
H162 C114 0.929 . S
H163 C115 0.930 . S
H164 C122 0.929 . S
H165 C123 0.930 . S
H166 C124 0.930 . S
H167 C125 0.930 . S
H168 C127 0.929 . S
H169 C128 0.930 . S
H170 C129 0.930 . S
H171 C130 0.930 . S
H172 C134 0.929 . S
H173 C136 0.930 . S
H174 C142 0.929 . S
H175 C143 0.930 . S
Li176 N193 1.990 . S
Li176 O236 1.956 . S
Li176 O237 1.970 . S
Li176 O238 1.961 . S
Li177 N201 1.990 . S
Li177 O236 1.970 . S
Li177 O237 1.956 . S
Li177 O239 1.961 . S
Li178 N223 1.990 . S
Li178 O236 1.961 . S
Li178 O238 1.956 . S
Li178 O239 1.970 . S
Li179 N229 1.990 . S
Li179 O237 1.961 . S
Li179 O238 1.970 . S
Li179 O239 1.956 . S
C180 C182 1.348 . S
C180 C183 1.356 . S
C180 O236 1.325 . S
N181 C184 1.314 . S
N181 C185 1.279 . S
C182 C180 1.348 . S
C182 C184 1.353 . S
C182 H240 0.929 . S
C183 C180 1.356 . S
C183 C185 1.358 . S
C183 H241 0.930 . S
C184 N181 1.314 . S
C184 C182 1.353 . S
C184 H242 0.930 . S
C185 N181 1.279 . S
C185 C183 1.358 . S
C185 H243 0.930 . S
C186 C189 1.348 . S
C186 C190 1.356 . S
C186 O237 1.325 . S
C187 N188 1.279 . S
C187 C190 1.358 . S
C187 H244 0.930 . S
N188 C187 1.279 . S
N188 C191 1.314 . S
C189 C186 1.348 . S
C189 C191 1.353 . S
C189 H245 0.929 . S
C190 C186 1.356 . S
C190 C187 1.358 . S
C190 H246 0.930 . S
C191 N188 1.314 . S
C191 C189 1.353 . S
C191 H247 0.930 . S
C192 N193 1.314 . S
C192 C197 1.353 . S
C192 H198 0.930 . S
N193 Li176 1.990 . S
N193 C192 1.314 . S
N193 C195 1.279 . S
C194 C195 1.358 . S
C194 C196 1.356 . S
C194 H248 0.930 . S
C195 N193 1.279 . S
C195 C194 1.358 . S
C195 H199 0.930 . S
C196 C194 1.356 . S
C196 C197 1.348 . S
C197 C192 1.353 . S
C197 C196 1.348 . S
C197 H249 0.929 . S
H198 C192 0.930 . S
H199 C195 0.930 . S
C200 N201 1.314 . S
C200 C202 1.353 . S
C200 H206 0.930 . S
N201 Li177 1.990 . S
N201 C200 1.314 . S
N201 C204 1.279 . S
C202 C200 1.353 . S
C202 C205 1.348 . S
C202 H250 0.929 . S
C203 C204 1.358 . S
C203 C205 1.356 . S
C203 H251 0.930 . S
C204 N201 1.279 . S
C204 C203 1.358 . S
C204 H207 0.930 . S
C205 C202 1.348 . S
C205 C203 1.356 . S
H206 C200 0.930 . S
H207 C204 0.930 . S
C208 C210 1.348 . S
C208 C211 1.356 . S
C208 O238 1.325 . S
N209 C212 1.314 . S
N209 C213 1.279 . S
C210 C208 1.348 . S
C210 C212 1.353 . S
C210 H252 0.929 . S
C211 C208 1.356 . S
C211 C213 1.358 . S
C211 H253 0.930 . S
C212 N209 1.314 . S
C212 C210 1.353 . S
C212 H254 0.930 . S
C213 N209 1.279 . S
C213 C211 1.358 . S
C213 H255 0.930 . S
C214 C215 1.348 . S
C214 C216 1.356 . S
C214 O239 1.325 . S
C215 C214 1.348 . S
C215 C217 1.353 . S
C215 H256 0.929 . S
C216 C214 1.356 . S
C216 C218 1.358 . S
C216 H257 0.930 . S
C217 C215 1.353 . S
C217 N219 1.314 . S
C217 H258 0.930 . S
C218 C216 1.358 . S
C218 N219 1.279 . S
C218 H259 0.930 . S
N219 C217 1.314 . S
N219 C218 1.279 . S
C220 C222 1.353 . S
C220 N223 1.314 . S
C220 H226 0.930 . S
C221 N223 1.279 . S
C221 C224 1.358 . S
C221 H227 0.930 . S
C222 C220 1.353 . S
C222 C225 1.348 . S
C222 H260 0.929 . S
N223 Li178 1.990 . S
N223 C220 1.314 . S
N223 C221 1.279 . S
C224 C221 1.358 . S
C224 C225 1.356 . S
C224 H261 0.930 . S
C225 C222 1.348 . S
C225 C224 1.356 . S
H226 C220 0.930 . S
H227 C221 0.930 . S
C228 N229 1.314 . S
C228 C230 1.353 . S
C228 H234 0.930 . S
N229 Li179 1.990 . S
N229 C228 1.314 . S
N229 C232 1.279 . S
C230 C228 1.353 . S
C230 C233 1.348 . S
C230 H262 0.929 . S
C231 C232 1.358 . S
C231 C233 1.356 . S
C231 H263 0.930 . S
C232 N229 1.279 . S
C232 C231 1.358 . S
C232 H235 0.930 . S
C233 C230 1.348 . S
C233 C231 1.356 . S
H234 C228 0.930 . S
H235 C232 0.930 . S
O236 Li176 1.956 . S
O236 Li177 1.970 . S
O236 Li178 1.961 . S
O236 C180 1.325 . S
O237 Li176 1.970 . S
O237 Li177 1.956 . S
O237 Li179 1.961 . S
O237 C186 1.325 . S
O238 Li176 1.961 . S
O238 Li178 1.956 . S
O238 Li179 1.970 . S
O238 C208 1.325 . S
O239 Li177 1.961 . S
O239 Li178 1.970 . S
O239 Li179 1.956 . S
O239 C214 1.325 . S
H240 C182 0.929 . S
H241 C183 0.930 . S
H242 C184 0.930 . S
H243 C185 0.930 . S
H244 C187 0.930 . S
H245 C189 0.929 . S
H246 C190 0.930 . S
H247 C191 0.930 . S
H248 C194 0.930 . S
H249 C197 0.929 . S
H250 C202 0.929 . S
H251 C203 0.930 . S
H252 C210 0.929 . S
H253 C211 0.930 . S
H254 C212 0.930 . S
H255 C213 0.930 . S
H256 C215 0.929 . S
H257 C216 0.930 . S
H258 C217 0.930 . S
H259 C218 0.930 . S
H260 C222 0.929 . S
H261 C224 0.930 . S
H262 C230 0.929 . S
H263 C231 0.930 . S
Li264 N281 1.990 . S
Li264 O324 1.956 . S
Li264 O325 1.970 . S
Li264 O326 1.961 . S
Li265 N289 1.990 . S
Li265 O324 1.970 . S
Li265 O325 1.956 . S
Li265 O327 1.961 . S
Li266 N311 1.990 . S
Li266 O324 1.961 . S
Li266 O326 1.956 . S
Li266 O327 1.970 . S
Li267 N317 1.990 . S
Li267 O325 1.961 . S
Li267 O326 1.970 . S
Li267 O327 1.956 . S
C268 C270 1.348 . S
C268 C271 1.356 . S
C268 O324 1.325 . S
N269 C272 1.314 . S
N269 C273 1.279 . S
C270 C268 1.348 . S
C270 C272 1.353 . S
C270 H328 0.929 . S
C271 C268 1.356 . S
C271 C273 1.358 . S
C271 H329 0.930 . S
C272 N269 1.314 . S
C272 C270 1.353 . S
C272 H330 0.930 . S
C273 N269 1.279 . S
C273 C271 1.358 . S
C273 H331 0.930 . S
C274 C277 1.348 . S
C274 C278 1.356 . S
C274 O325 1.325 . S
C275 N276 1.279 . S
C275 C278 1.358 . S
C275 H332 0.930 . S
N276 C275 1.279 . S
N276 C279 1.314 . S
C277 C274 1.348 . S
C277 C279 1.353 . S
C277 H333 0.929 . S
C278 C274 1.356 . S
C278 C275 1.358 . S
C278 H334 0.930 . S
C279 N276 1.314 . S
C279 C277 1.353 . S
C279 H335 0.930 . S
C280 N281 1.314 . S
C280 C285 1.353 . S
C280 H286 0.930 . S
N281 Li264 1.990 . S
N281 C280 1.314 . S
N281 C283 1.279 . S
C282 C283 1.358 . S
C282 C284 1.356 . S
C282 H336 0.930 . S
C283 N281 1.279 . S
C283 C282 1.358 . S
C283 H287 0.930 . S
C284 C282 1.356 . S
C284 C285 1.348 . S
C285 C280 1.353 . S
C285 C284 1.348 . S
C285 H337 0.929 . S
H286 C280 0.930 . S
H287 C283 0.930 . S
C288 N289 1.314 . S
C288 C290 1.353 . S
C288 H294 0.930 . S
N289 Li265 1.990 . S
N289 C288 1.314 . S
N289 C292 1.279 . S
C290 C288 1.353 . S
C290 C293 1.348 . S
C290 H338 0.929 . S
C291 C292 1.358 . S
C291 C293 1.356 . S
C291 H339 0.930 . S
C292 N289 1.279 . S
C292 C291 1.358 . S
C292 H295 0.930 . S
C293 C290 1.348 . S
C293 C291 1.356 . S
H294 C288 0.930 . S
H295 C292 0.930 . S
C296 C298 1.348 . S
C296 C299 1.356 . S
C296 O326 1.325 . S
N297 C300 1.314 . S
N297 C301 1.279 . S
C298 C296 1.348 . S
C298 C300 1.353 . S
C298 H340 0.929 . S
C299 C296 1.356 . S
C299 C301 1.358 . S
C299 H341 0.930 . S
C300 N297 1.314 . S
C300 C298 1.353 . S
C300 H342 0.930 . S
C301 N297 1.279 . S
C301 C299 1.358 . S
C301 H343 0.930 . S
C302 C303 1.348 . S
C302 C304 1.356 . S
C302 O327 1.325 . S
C303 C302 1.348 . S
C303 C305 1.353 . S
C303 H344 0.929 . S
C304 C302 1.356 . S
C304 C306 1.358 . S
C304 H345 0.930 . S
C305 C303 1.353 . S
C305 N307 1.314 . S
C305 H346 0.930 . S
C306 C304 1.358 . S
C306 N307 1.279 . S
C306 H347 0.930 . S
N307 C305 1.314 . S
N307 C306 1.279 . S
C308 C310 1.353 . S
C308 N311 1.314 . S
C308 H314 0.930 . S
C309 N311 1.279 . S
C309 C312 1.358 . S
C309 H315 0.930 . S
C310 C308 1.353 . S
C310 C313 1.348 . S
C310 H348 0.929 . S
N311 Li266 1.990 . S
N311 C308 1.314 . S
N311 C309 1.279 . S
C312 C309 1.358 . S
C312 C313 1.356 . S
C312 H349 0.930 . S
C313 C310 1.348 . S
C313 C312 1.356 . S
H314 C308 0.930 . S
H315 C309 0.930 . S
C316 N317 1.314 . S
C316 C318 1.353 . S
C316 H322 0.930 . S
N317 Li267 1.990 . S
N317 C316 1.314 . S
N317 C320 1.279 . S
C318 C316 1.353 . S
C318 C321 1.348 . S
C318 H350 0.929 . S
C319 C320 1.358 . S
C319 C321 1.356 . S
C319 H351 0.930 . S
C320 N317 1.279 . S
C320 C319 1.358 . S
C320 H323 0.930 . S
C321 C318 1.348 . S
C321 C319 1.356 . S
H322 C316 0.930 . S
H323 C320 0.930 . S
O324 Li264 1.956 . S
O324 Li265 1.970 . S
O324 Li266 1.961 . S
O324 C268 1.325 . S
O325 Li264 1.970 . S
O325 Li265 1.956 . S
O325 Li267 1.961 . S
O325 C274 1.325 . S
O326 Li264 1.961 . S
O326 Li266 1.956 . S
O326 Li267 1.970 . S
O326 C296 1.325 . S
O327 Li265 1.961 . S
O327 Li266 1.970 . S
O327 Li267 1.956 . S
O327 C302 1.325 . S
H328 C270 0.929 . S
H329 C271 0.930 . S
H330 C272 0.930 . S
H331 C273 0.930 . S
H332 C275 0.930 . S
H333 C277 0.929 . S
H334 C278 0.930 . S
H335 C279 0.930 . S
H336 C282 0.930 . S
H337 C285 0.929 . S
H338 C290 0.929 . S
H339 C291 0.930 . S
H340 C298 0.929 . S
H341 C299 0.930 . S
H342 C300 0.930 . S
H343 C301 0.930 . S
H344 C303 0.929 . S
H345 C304 0.930 . S
H346 C305 0.930 . S
H347 C306 0.930 . S
H348 C310 0.929 . S
H349 C312 0.930 . S
H350 C318 0.929 . S
H351 C319 0.930 . S
Li352 N369 1.990 . S
Li352 O412 1.956 . S
Li352 O413 1.970 . S
Li352 O414 1.961 . S
Li353 N377 1.990 . S
Li353 O412 1.970 . S
Li353 O413 1.956 . S
Li353 O415 1.961 . S
Li354 N399 1.990 1_554 S
Li354 O412 1.961 . S
Li354 O414 1.956 . S
Li354 O415 1.970 . S
Li355 N405 1.990 . S
Li355 O413 1.961 . S
Li355 O414 1.970 . S
Li355 O415 1.956 . S
C356 C358 1.348 . S
C356 C359 1.356 . S
C356 O412 1.325 . S
N357 C360 1.314 . S
N357 C361 1.279 . S
C358 C356 1.348 . S
C358 C360 1.353 . S
C358 H416 0.929 . S
C359 C356 1.356 . S
C359 C361 1.358 . S
C359 H417 0.930 . S
C360 N357 1.314 . S
C360 C358 1.353 . S
C360 H418 0.930 . S
C361 N357 1.279 . S
C361 C359 1.358 . S
C361 H419 0.930 . S
C362 C365 1.348 . S
C362 C366 1.356 . S
C362 O413 1.325 . S
C363 N364 1.279 . S
C363 C366 1.358 . S
C363 H420 0.930 . S
N364 C363 1.279 . S
N364 C367 1.314 . S
C365 C362 1.348 . S
C365 C367 1.353 . S
C365 H421 0.929 . S
C366 C362 1.356 . S
C366 C363 1.358 . S
C366 H422 0.930 . S
C367 N364 1.314 . S
C367 C365 1.353 . S
C367 H423 0.930 . S
C368 N369 1.314 . S
C368 C373 1.353 . S
C368 H374 0.930 . S
N369 Li352 1.990 . S
N369 C368 1.314 . S
N369 C371 1.279 . S
C370 C371 1.358 . S
C370 C372 1.356 . S
C370 H424 0.930 . S
C371 N369 1.279 . S
C371 C370 1.358 . S
C371 H375 0.930 . S
C372 C370 1.356 . S
C372 C373 1.348 . S
C373 C368 1.353 . S
C373 C372 1.348 . S
C373 H425 0.929 . S
H374 C368 0.930 . S
H375 C371 0.930 . S
C376 N377 1.314 . S
C376 C378 1.353 . S
C376 H382 0.930 . S
N377 Li353 1.990 . S
N377 C376 1.314 . S
N377 C380 1.279 . S
C378 C376 1.353 . S
C378 C381 1.348 . S
C378 H426 0.929 1_554 S
C379 C380 1.358 . S
C379 C381 1.356 . S
C379 H427 0.930 . S
C380 N377 1.279 . S
C380 C379 1.358 . S
C380 H383 0.930 . S
C381 C378 1.348 . S
C381 C379 1.356 . S
H382 C376 0.930 . S
H383 C380 0.930 . S
C384 C386 1.348 . S
C384 C387 1.356 . S
C384 O414 1.325 . S
N385 C388 1.314 . S
N385 C389 1.279 . S
C386 C384 1.348 . S
C386 C388 1.353 . S
C386 H428 0.929 . S
C387 C384 1.356 . S
C387 C389 1.358 . S
C387 H429 0.930 . S
C388 N385 1.314 . S
C388 C386 1.353 . S
C388 H430 0.930 . S
C389 N385 1.279 . S
C389 C387 1.358 . S
C389 H431 0.930 . S
C390 C391 1.348 . S
C390 C392 1.356 . S
C390 O415 1.325 1_556 S
C391 C390 1.348 . S
C391 C393 1.353 . S
C391 H432 0.929 . S
C392 C390 1.356 . S
C392 C394 1.358 . S
C392 H433 0.930 1_556 S
C393 C391 1.353 . S
C393 N395 1.314 . S
C393 H434 0.930 . S
C394 C392 1.358 . S
C394 N395 1.279 . S
C394 H435 0.930 . S
N395 C393 1.314 . S
N395 C394 1.279 . S
C396 C398 1.353 . S
C396 N399 1.314 . S
C396 H402 0.930 . S
C397 N399 1.279 . S
C397 C400 1.358 . S
C397 H403 0.930 . S
C398 C396 1.353 . S
C398 C401 1.348 . S
C398 H436 0.929 . S
N399 Li354 1.990 1_556 S
N399 C396 1.314 . S
N399 C397 1.279 . S
C400 C397 1.358 . S
C400 C401 1.356 . S
C400 H437 0.930 . S
C401 C398 1.348 . S
C401 C400 1.356 . S
H402 C396 0.930 . S
H403 C397 0.930 . S
C404 N405 1.314 . S
C404 C406 1.353 . S
C404 H410 0.930 . S
N405 Li355 1.990 . S
N405 C404 1.314 . S
N405 C408 1.279 . S
C406 C404 1.353 . S
C406 C409 1.348 . S
C406 H438 0.929 . S
C407 C408 1.358 . S
C407 C409 1.356 . S
C407 H439 0.930 . S
C408 N405 1.279 . S
C408 C407 1.358 . S
C408 H411 0.930 . S
C409 C406 1.348 . S
C409 C407 1.356 . S
H410 C404 0.930 . S
H411 C408 0.930 . S
O412 Li352 1.956 . S
O412 Li353 1.970 . S
O412 Li354 1.961 . S
O412 C356 1.325 . S
O413 Li352 1.970 . S
O413 Li353 1.956 . S
O413 Li355 1.961 . S
O413 C362 1.325 . S
O414 Li352 1.961 . S
O414 Li354 1.956 . S
O414 Li355 1.970 . S
O414 C384 1.325 . S
O415 Li353 1.961 . S
O415 Li354 1.970 . S
O415 Li355 1.956 . S
O415 C390 1.325 1_554 S
H416 C358 0.929 . S
H417 C359 0.930 . S
H418 C360 0.930 . S
H419 C361 0.930 . S
H420 C363 0.930 . S
H421 C365 0.929 . S
H422 C366 0.930 . S
H423 C367 0.930 . S
H424 C370 0.930 . S
H425 C373 0.929 . S
H426 C378 0.929 1_556 S
H427 C379 0.930 . S
H428 C386 0.929 . S
H429 C387 0.930 . S
H430 C388 0.930 . S
H431 C389 0.930 . S
H432 C391 0.929 . S
H433 C392 0.930 1_554 S
H434 C393 0.930 . S
H435 C394 0.930 . S
H436 C398 0.929 . S
H437 C400 0.930 . S
H438 C406 0.929 . S
H439 C407 0.930 . S
Li440 N457 1.990 . S
Li440 O500 1.956 . S
Li440 O501 1.970 . S
Li440 O502 1.961 . S
Li441 N465 1.990 . S
Li441 O500 1.970 . S
Li441 O501 1.956 . S
Li441 O503 1.961 . S
Li442 N487 1.990 . S
Li442 O500 1.961 . S
Li442 O502 1.956 . S
Li442 O503 1.970 . S
Li443 N493 1.990 . S
Li443 O501 1.961 . S
Li443 O502 1.970 . S
Li443 O503 1.956 . S
C444 C446 1.348 . S
C444 C447 1.356 . S
C444 O500 1.325 . S
N445 C448 1.314 . S
N445 C449 1.279 . S
C446 C444 1.348 . S
C446 C448 1.353 . S
C446 H504 0.929 . S
C447 C444 1.356 . S
C447 C449 1.358 . S
C447 H505 0.930 . S
C448 N445 1.314 . S
C448 C446 1.353 . S
C448 H506 0.930 . S
C449 N445 1.279 . S
C449 C447 1.358 . S
C449 H507 0.930 . S
C450 C453 1.348 . S
C450 C454 1.356 . S
C450 O501 1.325 . S
C451 N452 1.279 . S
C451 C454 1.358 . S
C451 H508 0.930 . S
N452 C451 1.279 . S
N452 C455 1.314 . S
C453 C450 1.348 . S
C453 C455 1.353 . S
C453 H509 0.929 . S
C454 C450 1.356 . S
C454 C451 1.358 . S
C454 H510 0.930 . S
C455 N452 1.314 . S
C455 C453 1.353 . S
C455 H511 0.930 . S
C456 N457 1.314 . S
C456 C461 1.353 . S
C456 H462 0.930 . S
N457 Li440 1.990 . S
N457 C456 1.314 . S
N457 C459 1.279 . S
C458 C459 1.358 . S
C458 C460 1.356 . S
C458 H512 0.930 . S
C459 N457 1.279 . S
C459 C458 1.358 . S
C459 H463 0.930 . S
C460 C458 1.356 . S
C460 C461 1.348 . S
C461 C456 1.353 . S
C461 C460 1.348 . S
C461 H513 0.929 . S
H462 C456 0.930 . S
H463 C459 0.930 . S
C464 N465 1.314 . S
C464 C466 1.353 . S
C464 H470 0.930 . S
N465 Li441 1.990 . S
N465 C464 1.314 . S
N465 C468 1.279 . S
C466 C464 1.353 . S
C466 C469 1.348 . S
C466 H514 0.929 . S
C467 C468 1.358 . S
C467 C469 1.356 . S
C467 H515 0.930 . S
C468 N465 1.279 . S
C468 C467 1.358 . S
C468 H471 0.930 . S
C469 C466 1.348 . S
C469 C467 1.356 . S
H470 C464 0.930 . S
H471 C468 0.930 . S
C472 C474 1.348 . S
C472 C475 1.356 . S
C472 O502 1.325 . S
N473 C476 1.314 . S
N473 C477 1.279 . S
C474 C472 1.348 . S
C474 C476 1.353 . S
C474 H516 0.929 . S
C475 C472 1.356 . S
C475 C477 1.358 . S
C475 H517 0.930 . S
C476 N473 1.314 . S
C476 C474 1.353 . S
C476 H518 0.930 . S
C477 N473 1.279 . S
C477 C475 1.358 . S
C477 H519 0.930 . S
C478 C479 1.348 . S
C478 C480 1.356 . S
C478 O503 1.325 . S
C479 C478 1.348 . S
C479 C481 1.353 . S
C479 H520 0.929 . S
C480 C478 1.356 . S
C480 C482 1.358 . S
C480 H521 0.930 . S
C481 C479 1.353 . S
C481 N483 1.314 . S
C481 H522 0.930 . S
C482 C480 1.358 . S
C482 N483 1.279 . S
C482 H523 0.930 . S
N483 C481 1.314 . S
N483 C482 1.279 . S
C484 C486 1.353 . S
C484 N487 1.314 . S
C484 H490 0.930 . S
C485 N487 1.279 . S
C485 C488 1.358 . S
C485 H491 0.930 . S
C486 C484 1.353 . S
C486 C489 1.348 . S
C486 H524 0.929 . S
N487 Li442 1.990 . S
N487 C484 1.314 . S
N487 C485 1.279 . S
C488 C485 1.358 . S
C488 C489 1.356 . S
C488 H525 0.930 . S
C489 C486 1.348 . S
C489 C488 1.356 . S
H490 C484 0.930 . S
H491 C485 0.930 . S
C492 N493 1.314 . S
C492 C494 1.353 . S
C492 H498 0.930 . S
N493 Li443 1.990 . S
N493 C492 1.314 . S
N493 C496 1.279 . S
C494 C492 1.353 . S
C494 C497 1.348 . S
C494 H526 0.929 . S
C495 C496 1.358 . S
C495 C497 1.356 . S
C495 H527 0.930 . S
C496 N493 1.279 . S
C496 C495 1.358 . S
C496 H499 0.930 . S
C497 C494 1.348 . S
C497 C495 1.356 . S
H498 C492 0.930 . S
H499 C496 0.930 . S
O500 Li440 1.956 . S
O500 Li441 1.970 . S
O500 Li442 1.961 . S
O500 C444 1.325 . S
O501 Li440 1.970 . S
O501 Li441 1.956 . S
O501 Li443 1.961 . S
O501 C450 1.325 . S
O502 Li440 1.961 . S
O502 Li442 1.956 . S
O502 Li443 1.970 . S
O502 C472 1.325 . S
O503 Li441 1.961 . S
O503 Li442 1.970 . S
O503 Li443 1.956 . S
O503 C478 1.325 . S
H504 C446 0.929 . S
H505 C447 0.930 . S
H506 C448 0.930 . S
H507 C449 0.930 . S
H508 C451 0.930 . S
H509 C453 0.929 . S
H510 C454 0.930 . S
H511 C455 0.930 . S
H512 C458 0.930 . S
H513 C461 0.929 . S
H514 C466 0.929 . S
H515 C467 0.930 . S
H516 C474 0.929 . S
H517 C475 0.930 . S
H518 C476 0.930 . S
H519 C477 0.930 . S
H520 C479 0.929 . S
H521 C480 0.930 . S
H522 C481 0.930 . S
H523 C482 0.930 . S
H524 C486 0.929 . S
H525 C488 0.930 . S
H526 C494 0.929 . S
H527 C495 0.930 . S
Li528 N545 1.990 . S
Li528 O588 1.956 . S
Li528 O589 1.970 . S
Li528 O590 1.961 . S
Li529 N553 1.990 . S
Li529 O588 1.970 . S
Li529 O589 1.956 . S
Li529 O591 1.961 . S
Li530 N575 1.990 . S
Li530 O588 1.961 . S
Li530 O590 1.956 . S
Li530 O591 1.970 . S
Li531 N581 1.990 . S
Li531 O589 1.961 . S
Li531 O590 1.970 . S
Li531 O591 1.956 . S
C532 C534 1.348 . S
C532 C535 1.356 . S
C532 O588 1.325 . S
N533 C536 1.314 . S
N533 C537 1.279 . S
C534 C532 1.348 . S
C534 C536 1.353 . S
C534 H592 0.929 . S
C535 C532 1.356 . S
C535 C537 1.358 . S
C535 H593 0.930 . S
C536 N533 1.314 . S
C536 C534 1.353 . S
C536 H594 0.930 . S
C537 N533 1.279 . S
C537 C535 1.358 . S
C537 H595 0.930 . S
C538 C541 1.348 . S
C538 C542 1.356 . S
C538 O589 1.325 . S
C539 N540 1.279 . S
C539 C542 1.358 . S
C539 H596 0.930 . S
N540 C539 1.279 . S
N540 C543 1.314 . S
C541 C538 1.348 . S
C541 C543 1.353 . S
C541 H597 0.929 . S
C542 C538 1.356 . S
C542 C539 1.358 . S
C542 H598 0.930 . S
C543 N540 1.314 . S
C543 C541 1.353 . S
C543 H599 0.930 . S
C544 N545 1.314 . S
C544 C549 1.353 . S
C544 H550 0.930 . S
N545 Li528 1.990 . S
N545 C544 1.314 . S
N545 C547 1.279 . S
C546 C547 1.358 . S
C546 C548 1.356 . S
C546 H600 0.930 . S
C547 N545 1.279 . S
C547 C546 1.358 . S
C547 H551 0.930 . S
C548 C546 1.356 . S
C548 C549 1.348 . S
C549 C544 1.353 . S
C549 C548 1.348 . S
C549 H601 0.929 . S
H550 C544 0.930 . S
H551 C547 0.930 . S
C552 N553 1.314 . S
C552 C554 1.353 . S
C552 H558 0.930 . S
N553 Li529 1.990 . S
N553 C552 1.314 . S
N553 C556 1.279 . S
C554 C552 1.353 . S
C554 C557 1.348 . S
C554 H602 0.929 . S
C555 C556 1.358 . S
C555 C557 1.356 . S
C555 H603 0.930 . S
C556 N553 1.279 . S
C556 C555 1.358 . S
C556 H559 0.930 . S
C557 C554 1.348 . S
C557 C555 1.356 . S
H558 C552 0.930 . S
H559 C556 0.930 . S
C560 C562 1.348 . S
C560 C563 1.356 . S
C560 O590 1.325 . S
N561 C564 1.314 . S
N561 C565 1.279 . S
C562 C560 1.348 . S
C562 C564 1.353 . S
C562 H604 0.929 . S
C563 C560 1.356 . S
C563 C565 1.358 . S
C563 H605 0.930 . S
C564 N561 1.314 . S
C564 C562 1.353 . S
C564 H606 0.930 . S
C565 N561 1.279 . S
C565 C563 1.358 . S
C565 H607 0.930 . S
C566 C567 1.348 . S
C566 C568 1.356 . S
C566 O591 1.325 . S
C567 C566 1.348 . S
C567 C569 1.353 . S
C567 H608 0.929 . S
C568 C566 1.356 . S
C568 C570 1.358 . S
C568 H609 0.930 . S
C569 C567 1.353 . S
C569 N571 1.314 . S
C569 H610 0.930 . S
C570 C568 1.358 . S
C570 N571 1.279 . S
C570 H611 0.930 . S
N571 C569 1.314 . S
N571 C570 1.279 . S
C572 C574 1.353 . S
C572 N575 1.314 . S
C572 H578 0.930 . S
C573 N575 1.279 . S
C573 C576 1.358 . S
C573 H579 0.930 . S
C574 C572 1.353 . S
C574 C577 1.348 . S
C574 H612 0.929 . S
N575 Li530 1.990 . S
N575 C572 1.314 . S
N575 C573 1.279 . S
C576 C573 1.358 . S
C576 C577 1.356 . S
C576 H613 0.930 . S
C577 C574 1.348 . S
C577 C576 1.356 . S
H578 C572 0.930 . S
H579 C573 0.930 . S
C580 N581 1.314 . S
C580 C582 1.353 . S
C580 H586 0.930 . S
N581 Li531 1.990 . S
N581 C580 1.314 . S
N581 C584 1.279 . S
C582 C580 1.353 . S
C582 C585 1.348 . S
C582 H614 0.929 . S
C583 C584 1.358 . S
C583 C585 1.356 . S
C583 H615 0.930 . S
C584 N581 1.279 . S
C584 C583 1.358 . S
C584 H587 0.930 . S
C585 C582 1.348 . S
C585 C583 1.356 . S
H586 C580 0.930 . S
H587 C584 0.930 . S
O588 Li528 1.956 . S
O588 Li529 1.970 . S
O588 Li530 1.961 . S
O588 C532 1.325 . S
O589 Li528 1.970 . S
O589 Li529 1.956 . S
O589 Li531 1.961 . S
O589 C538 1.325 . S
O590 Li528 1.961 . S
O590 Li530 1.956 . S
O590 Li531 1.970 . S
O590 C560 1.325 . S
O591 Li529 1.961 . S
O591 Li530 1.970 . S
O591 Li531 1.956 . S
O591 C566 1.325 . S
H592 C534 0.929 . S
H593 C535 0.930 . S
H594 C536 0.930 . S
H595 C537 0.930 . S
H596 C539 0.930 . S
H597 C541 0.929 . S
H598 C542 0.930 . S
H599 C543 0.930 . S
H600 C546 0.930 . S
H601 C549 0.929 . S
H602 C554 0.929 . S
H603 C555 0.930 . S
H604 C562 0.929 . S
H605 C563 0.930 . S
H606 C564 0.930 . S
H607 C565 0.930 . S
H608 C567 0.929 . S
H609 C568 0.930 . S
H610 C569 0.930 . S
H611 C570 0.930 . S
H612 C574 0.929 . S
H613 C576 0.930 . S
H614 C582 0.929 . S
H615 C583 0.930 . S
Li616 N633 1.990 . S
Li616 O676 1.956 . S
Li616 O677 1.970 . S
Li616 O678 1.961 . S
Li617 N641 1.990 . S
Li617 O676 1.970 . S
Li617 O677 1.956 . S
Li617 O679 1.961 . S
Li618 N663 1.990 . S
Li618 O676 1.961 . S
Li618 O678 1.956 . S
Li618 O679 1.970 . S
Li619 N669 1.990 . S
Li619 O677 1.961 . S
Li619 O678 1.970 . S
Li619 O679 1.956 . S
C620 C622 1.348 . S
C620 C623 1.356 . S
C620 O676 1.325 . S
N621 C624 1.314 . S
N621 C625 1.279 . S
C622 C620 1.348 . S
C622 C624 1.353 . S
C622 H680 0.929 . S
C623 C620 1.356 . S
C623 C625 1.358 . S
C623 H681 0.930 . S
C624 N621 1.314 . S
C624 C622 1.353 . S
C624 H682 0.930 . S
C625 N621 1.279 . S
C625 C623 1.358 . S
C625 H683 0.930 . S
C626 C629 1.348 . S
C626 C630 1.356 . S
C626 O677 1.325 . S
C627 N628 1.279 . S
C627 C630 1.358 . S
C627 H684 0.930 . S
N628 C627 1.279 . S
N628 C631 1.314 . S
C629 C626 1.348 . S
C629 C631 1.353 . S
C629 H685 0.929 . S
C630 C626 1.356 . S
C630 C627 1.358 . S
C630 H686 0.930 . S
C631 N628 1.314 . S
C631 C629 1.353 . S
C631 H687 0.930 . S
C632 N633 1.314 . S
C632 C637 1.353 . S
C632 H638 0.930 . S
N633 Li616 1.990 . S
N633 C632 1.314 . S
N633 C635 1.279 . S
C634 C635 1.358 . S
C634 C636 1.356 . S
C634 H688 0.930 . S
C635 N633 1.279 . S
C635 C634 1.358 . S
C635 H639 0.930 . S
C636 C634 1.356 . S
C636 C637 1.348 . S
C637 C632 1.353 . S
C637 C636 1.348 . S
C637 H689 0.929 . S
H638 C632 0.930 . S
H639 C635 0.930 . S
C640 N641 1.314 . S
C640 C642 1.353 . S
C640 H646 0.930 . S
N641 Li617 1.990 . S
N641 C640 1.314 . S
N641 C644 1.279 . S
C642 C640 1.353 . S
C642 C645 1.348 . S
C642 H690 0.929 . S
C643 C644 1.358 . S
C643 C645 1.356 . S
C643 H691 0.930 . S
C644 N641 1.279 . S
C644 C643 1.358 . S
C644 H647 0.930 . S
C645 C642 1.348 . S
C645 C643 1.356 . S
H646 C640 0.930 . S
H647 C644 0.930 . S
C648 C650 1.348 . S
C648 C651 1.356 . S
C648 O678 1.325 . S
N649 C652 1.314 . S
N649 C653 1.279 . S
C650 C648 1.348 . S
C650 C652 1.353 . S
C650 H692 0.929 . S
C651 C648 1.356 . S
C651 C653 1.358 . S
C651 H693 0.930 . S
C652 N649 1.314 . S
C652 C650 1.353 . S
C652 H694 0.930 . S
C653 N649 1.279 . S
C653 C651 1.358 . S
C653 H695 0.930 . S
C654 C655 1.348 . S
C654 C656 1.356 . S
C654 O679 1.325 . S
C655 C654 1.348 . S
C655 C657 1.353 . S
C655 H696 0.929 . S
C656 C654 1.356 . S
C656 C658 1.358 . S
C656 H697 0.930 . S
C657 C655 1.353 . S
C657 N659 1.314 . S
C657 H698 0.930 . S
C658 C656 1.358 . S
C658 N659 1.279 . S
C658 H699 0.930 . S
N659 C657 1.314 . S
N659 C658 1.279 . S
C660 C662 1.353 . S
C660 N663 1.314 . S
C660 H666 0.930 . S
C661 N663 1.279 . S
C661 C664 1.358 . S
C661 H667 0.930 . S
C662 C660 1.353 . S
C662 C665 1.348 . S
C662 H700 0.929 . S
N663 Li618 1.990 . S
N663 C660 1.314 . S
N663 C661 1.279 . S
C664 C661 1.358 . S
C664 C665 1.356 . S
C664 H701 0.930 . S
C665 C662 1.348 . S
C665 C664 1.356 . S
H666 C660 0.930 . S
H667 C661 0.930 . S
C668 N669 1.314 . S
C668 C670 1.353 . S
C668 H674 0.930 . S
N669 Li619 1.990 . S
N669 C668 1.314 . S
N669 C672 1.279 . S
C670 C668 1.353 . S
C670 C673 1.348 . S
C670 H702 0.929 . S
C671 C672 1.358 . S
C671 C673 1.356 . S
C671 H703 0.930 . S
C672 N669 1.279 . S
C672 C671 1.358 . S
C672 H675 0.930 . S
C673 C670 1.348 . S
C673 C671 1.356 . S
H674 C668 0.930 . S
H675 C672 0.930 . S
O676 Li616 1.956 . S
O676 Li617 1.970 . S
O676 Li618 1.961 . S
O676 C620 1.325 . S
O677 Li616 1.970 . S
O677 Li617 1.956 . S
O677 Li619 1.961 . S
O677 C626 1.325 . S
O678 Li616 1.961 . S
O678 Li618 1.956 . S
O678 Li619 1.970 . S
O678 C648 1.325 . S
O679 Li617 1.961 . S
O679 Li618 1.970 . S
O679 Li619 1.956 . S
O679 C654 1.325 . S
H680 C622 0.929 . S
H681 C623 0.930 . S
H682 C624 0.930 . S
H683 C625 0.930 . S
H684 C627 0.930 . S
H685 C629 0.929 . S
H686 C630 0.930 . S
H687 C631 0.930 . S
H688 C634 0.930 . S
H689 C637 0.929 . S
H690 C642 0.929 . S
H691 C643 0.930 . S
H692 C650 0.929 . S
H693 C651 0.930 . S
H694 C652 0.930 . S
H695 C653 0.930 . S
H696 C655 0.929 . S
H697 C656 0.930 . S
H698 C657 0.930 . S
H699 C658 0.930 . S
H700 C662 0.929 . S
H701 C664 0.930 . S
H702 C670 0.929 . S
H703 C671 0.930 . S
Li704 N721 1.990 . S
Li704 O764 1.956 . S
Li704 O765 1.970 . S
Li704 O766 1.961 . S
Li705 N729 1.990 . S
Li705 O764 1.970 . S
Li705 O765 1.956 . S
Li705 O767 1.961 . S
Li706 N751 1.990 . S
Li706 O764 1.961 . S
Li706 O766 1.956 . S
Li706 O767 1.970 . S
Li707 N757 1.990 1_554 S
Li707 O765 1.961 . S
Li707 O766 1.970 . S
Li707 O767 1.956 . S
C708 C710 1.348 . S
C708 C711 1.356 . S
C708 O764 1.325 . S
N709 C712 1.314 . S
N709 C713 1.279 . S
C710 C708 1.348 . S
C710 C712 1.353 . S
C710 H768 0.929 . S
C711 C708 1.356 . S
C711 C713 1.358 . S
C711 H769 0.930 . S
C712 N709 1.314 . S
C712 C710 1.353 . S
C712 H770 0.930 . S
C713 N709 1.279 . S
C713 C711 1.358 . S
C713 H771 0.930 . S
C714 C717 1.348 . S
C714 C718 1.356 . S
C714 O765 1.325 . S
C715 N716 1.279 . S
C715 C718 1.358 . S
C715 H772 0.930 . S
N716 C715 1.279 . S
N716 C719 1.314 . S
C717 C714 1.348 . S
C717 C719 1.353 . S
C717 H773 0.929 . S
C718 C714 1.356 . S
C718 C715 1.358 . S
C718 H774 0.930 . S
C719 N716 1.314 . S
C719 C717 1.353 . S
C719 H775 0.930 . S
C720 N721 1.314 . S
C720 C725 1.353 . S
C720 H726 0.930 . S
N721 Li704 1.990 . S
N721 C720 1.314 . S
N721 C723 1.279 . S
C722 C723 1.358 . S
C722 C724 1.356 . S
C722 H776 0.930 . S
C723 N721 1.279 . S
C723 C722 1.358 . S
C723 H727 0.930 . S
C724 C722 1.356 . S
C724 C725 1.348 . S
C725 C720 1.353 . S
C725 C724 1.348 . S
C725 H777 0.929 . S
H726 C720 0.930 . S
H727 C723 0.930 . S
C728 N729 1.314 . S
C728 C730 1.353 . S
C728 H734 0.930 . S
N729 Li705 1.990 . S
N729 C728 1.314 . S
N729 C732 1.279 . S
C730 C728 1.353 . S
C730 C733 1.348 . S
C730 H778 0.929 . S
C731 C732 1.358 . S
C731 C733 1.356 . S
C731 H779 0.930 . S
C732 N729 1.279 . S
C732 C731 1.358 . S
C732 H735 0.930 . S
C733 C730 1.348 . S
C733 C731 1.356 . S
H734 C728 0.930 . S
H735 C732 0.930 . S
C736 C738 1.348 . S
C736 C739 1.356 . S
C736 O766 1.325 1_556 S
N737 C740 1.314 . S
N737 C741 1.279 . S
C738 C736 1.348 . S
C738 C740 1.353 . S
C738 H780 0.929 . S
C739 C736 1.356 . S
C739 C741 1.358 . S
C739 H781 0.930 1_556 S
C740 N737 1.314 . S
C740 C738 1.353 . S
C740 H782 0.930 . S
C741 N737 1.279 . S
C741 C739 1.358 . S
C741 H783 0.930 . S
C742 C743 1.348 . S
C742 C744 1.356 . S
C742 O767 1.325 . S
C743 C742 1.348 . S
C743 C745 1.353 . S
C743 H784 0.929 . S
C744 C742 1.356 . S
C744 C746 1.358 . S
C744 H785 0.930 . S
C745 C743 1.353 . S
C745 N747 1.314 . S
C745 H786 0.930 . S
C746 C744 1.358 . S
C746 N747 1.279 . S
C746 H787 0.930 . S
N747 C745 1.314 . S
N747 C746 1.279 . S
C748 C750 1.353 . S
C748 N751 1.314 . S
C748 H754 0.930 . S
C749 N751 1.279 . S
C749 C752 1.358 . S
C749 H755 0.930 . S
C750 C748 1.353 . S
C750 C753 1.348 . S
C750 H788 0.929 . S
N751 Li706 1.990 . S
N751 C748 1.314 . S
N751 C749 1.279 . S
C752 C749 1.358 . S
C752 C753 1.356 . S
C752 H789 0.930 . S
C753 C750 1.348 . S
C753 C752 1.356 . S
H754 C748 0.930 . S
H755 C749 0.930 . S
C756 N757 1.314 . S
C756 C758 1.353 . S
C756 H762 0.930 . S
N757 Li707 1.990 1_556 S
N757 C756 1.314 . S
N757 C760 1.279 . S
C758 C756 1.353 . S
C758 C761 1.348 . S
C758 H790 0.929 . S
C759 C760 1.358 . S
C759 C761 1.356 . S
C759 H791 0.930 . S
C760 N757 1.279 . S
C760 C759 1.358 . S
C760 H763 0.930 . S
C761 C758 1.348 . S
C761 C759 1.356 . S
H762 C756 0.930 . S
H763 C760 0.930 . S
O764 Li704 1.956 . S
O764 Li705 1.970 . S
O764 Li706 1.961 . S
O764 C708 1.325 . S
O765 Li704 1.970 . S
O765 Li705 1.956 . S
O765 Li707 1.961 . S
O765 C714 1.325 . S
O766 Li704 1.961 . S
O766 Li706 1.956 . S
O766 Li707 1.970 . S
O766 C736 1.325 1_554 S
O767 Li705 1.961 . S
O767 Li706 1.970 . S
O767 Li707 1.956 . S
O767 C742 1.325 . S
H768 C710 0.929 . S
H769 C711 0.930 . S
H770 C712 0.930 . S
H771 C713 0.930 . S
H772 C715 0.930 . S
H773 C717 0.929 . S
H774 C718 0.930 . S
H775 C719 0.930 . S
H776 C722 0.930 . S
H777 C725 0.929 . S
H778 C730 0.929 . S
H779 C731 0.930 . S
H780 C738 0.929 . S
H781 C739 0.930 1_554 S
H782 C740 0.930 . S
H783 C741 0.930 . S
H784 C743 0.929 . S
H785 C744 0.930 . S
H786 C745 0.930 . S
H787 C746 0.930 . S
H788 C750 0.929 . S
H789 C752 0.930 . S
H790 C758 0.929 . S
H791 C759 0.930 . S
Li792 N809 1.990 . S
Li792 O852 1.956 . S
Li792 O853 1.970 . S
Li792 O854 1.961 . S
Li793 N817 1.990 . S
Li793 O852 1.970 . S
Li793 O853 1.956 . S
Li793 O855 1.961 . S
Li794 N839 1.990 . S
Li794 O852 1.961 . S
Li794 O854 1.956 . S
Li794 O855 1.970 . S
Li795 N845 1.990 . S
Li795 O853 1.961 . S
Li795 O854 1.970 . S
Li795 O855 1.956 . S
C796 C798 1.348 . S
C796 C799 1.356 . S
C796 O852 1.325 . S
N797 C800 1.314 . S
N797 C801 1.279 . S
C798 C796 1.348 . S
C798 C800 1.353 . S
C798 H856 0.929 . S
C799 C796 1.356 . S
C799 C801 1.358 . S
C799 H857 0.930 . S
C800 N797 1.314 . S
C800 C798 1.353 . S
C800 H858 0.930 . S
C801 N797 1.279 . S
C801 C799 1.358 . S
C801 H859 0.930 . S
C802 C805 1.348 . S
C802 C806 1.356 . S
C802 O853 1.325 . S
C803 N804 1.279 . S
C803 C806 1.358 . S
C803 H860 0.930 . S
N804 C803 1.279 . S
N804 C807 1.314 . S
C805 C802 1.348 . S
C805 C807 1.353 . S
C805 H861 0.929 . S
C806 C802 1.356 . S
C806 C803 1.358 . S
C806 H862 0.930 . S
C807 N804 1.314 . S
C807 C805 1.353 . S
C807 H863 0.930 . S
C808 N809 1.314 . S
C808 C813 1.353 . S
C808 H814 0.930 . S
N809 Li792 1.990 . S
N809 C808 1.314 . S
N809 C811 1.279 . S
C810 C811 1.358 . S
C810 C812 1.356 . S
C810 H864 0.930 . S
C811 N809 1.279 . S
C811 C810 1.358 . S
C811 H815 0.930 . S
C812 C810 1.356 . S
C812 C813 1.348 . S
C813 C808 1.353 . S
C813 C812 1.348 . S
C813 H865 0.929 . S
H814 C808 0.930 . S
H815 C811 0.930 . S
C816 N817 1.314 . S
C816 C818 1.353 . S
C816 H822 0.930 . S
N817 Li793 1.990 . S
N817 C816 1.314 . S
N817 C820 1.279 . S
C818 C816 1.353 . S
C818 C821 1.348 . S
C818 H866 0.929 . S
C819 C820 1.358 . S
C819 C821 1.356 . S
C819 H867 0.930 . S
C820 N817 1.279 . S
C820 C819 1.358 . S
C820 H823 0.930 . S
C821 C818 1.348 . S
C821 C819 1.356 . S
H822 C816 0.930 . S
H823 C820 0.930 . S
C824 C826 1.348 . S
C824 C827 1.356 . S
C824 O854 1.325 . S
N825 C828 1.314 . S
N825 C829 1.279 . S
C826 C824 1.348 . S
C826 C828 1.353 . S
C826 H868 0.929 . S
C827 C824 1.356 . S
C827 C829 1.358 . S
C827 H869 0.930 . S
C828 N825 1.314 . S
C828 C826 1.353 . S
C828 H870 0.930 . S
C829 N825 1.279 . S
C829 C827 1.358 . S
C829 H871 0.930 . S
C830 C831 1.348 . S
C830 C832 1.356 . S
C830 O855 1.325 . S
C831 C830 1.348 . S
C831 C833 1.353 . S
C831 H872 0.929 . S
C832 C830 1.356 . S
C832 C834 1.358 . S
C832 H873 0.930 . S
C833 C831 1.353 . S
C833 N835 1.314 . S
C833 H874 0.930 . S
C834 C832 1.358 . S
C834 N835 1.279 . S
C834 H875 0.930 . S
N835 C833 1.314 . S
N835 C834 1.279 . S
C836 C838 1.353 . S
C836 N839 1.314 . S
C836 H842 0.930 . S
C837 N839 1.279 . S
C837 C840 1.358 . S
C837 H843 0.930 . S
C838 C836 1.353 . S
C838 C841 1.348 . S
C838 H876 0.929 . S
N839 Li794 1.990 . S
N839 C836 1.314 . S
N839 C837 1.279 . S
C840 C837 1.358 . S
C840 C841 1.356 . S
C840 H877 0.930 . S
C841 C838 1.348 . S
C841 C840 1.356 . S
H842 C836 0.930 . S
H843 C837 0.930 . S
C844 N845 1.314 . S
C844 C846 1.353 . S
C844 H850 0.930 . S
N845 Li795 1.990 . S
N845 C844 1.314 . S
N845 C848 1.279 . S
C846 C844 1.353 . S
C846 C849 1.348 . S
C846 H878 0.929 . S
C847 C848 1.358 . S
C847 C849 1.356 . S
C847 H879 0.930 . S
C848 N845 1.279 . S
C848 C847 1.358 . S
C848 H851 0.930 . S
C849 C846 1.348 . S
C849 C847 1.356 . S
H850 C844 0.930 . S
H851 C848 0.930 . S
O852 Li792 1.956 . S
O852 Li793 1.970 . S
O852 Li794 1.961 . S
O852 C796 1.325 . S
O853 Li792 1.970 . S
O853 Li793 1.956 . S
O853 Li795 1.961 . S
O853 C802 1.325 . S
O854 Li792 1.961 . S
O854 Li794 1.956 . S
O854 Li795 1.970 . S
O854 C824 1.325 . S
O855 Li793 1.961 . S
O855 Li794 1.970 . S
O855 Li795 1.956 . S
O855 C830 1.325 . S
H856 C798 0.929 . S
H857 C799 0.930 . S
H858 C800 0.930 . S
H859 C801 0.930 . S
H860 C803 0.930 . S
H861 C805 0.929 . S
H862 C806 0.930 . S
H863 C807 0.930 . S
H864 C810 0.930 . S
H865 C813 0.929 . S
H866 C818 0.929 . S
H867 C819 0.930 . S
H868 C826 0.929 . S
H869 C827 0.930 . S
H870 C828 0.930 . S
H871 C829 0.930 . S
H872 C831 0.929 . S
H873 C832 0.930 . S
H874 C833 0.930 . S
H875 C834 0.930 . S
H876 C838 0.929 . S
H877 C840 0.930 . S
H878 C846 0.929 . S
H879 C847 0.930 . S
Li880 N897 1.990 . S
Li880 O940 1.956 . S
Li880 O941 1.970 . S
Li880 O942 1.961 . S
Li881 N905 1.990 . S
Li881 O940 1.970 . S
Li881 O941 1.956 . S
Li881 O943 1.961 . S
Li882 N927 1.990 . S
Li882 O940 1.961 . S
Li882 O942 1.956 . S
Li882 O943 1.970 . S
Li883 N933 1.990 . S
Li883 O941 1.961 . S
Li883 O942 1.970 . S
Li883 O943 1.956 . S
C884 C886 1.348 . S
C884 C887 1.356 . S
C884 O940 1.325 . S
N885 C888 1.314 . S
N885 C889 1.279 . S
C886 C884 1.348 . S
C886 C888 1.353 . S
C886 H944 0.929 . S
C887 C884 1.356 . S
C887 C889 1.358 . S
C887 H945 0.930 . S
C888 N885 1.314 . S
C888 C886 1.353 . S
C888 H946 0.930 . S
C889 N885 1.279 . S
C889 C887 1.358 . S
C889 H947 0.930 . S
C890 C893 1.348 . S
C890 C894 1.356 . S
C890 O941 1.325 . S
C891 N892 1.279 . S
C891 C894 1.358 . S
C891 H948 0.930 . S
N892 C891 1.279 . S
N892 C895 1.314 . S
C893 C890 1.348 . S
C893 C895 1.353 . S
C893 H949 0.929 . S
C894 C890 1.356 . S
C894 C891 1.358 . S
C894 H950 0.930 . S
C895 N892 1.314 . S
C895 C893 1.353 . S
C895 H951 0.930 . S
C896 N897 1.314 . S
C896 C901 1.353 . S
C896 H902 0.930 . S
N897 Li880 1.990 . S
N897 C896 1.314 . S
N897 C899 1.279 . S
C898 C899 1.358 . S
C898 C900 1.356 . S
C898 H952 0.930 . S
C899 N897 1.279 . S
C899 C898 1.358 . S
C899 H903 0.930 . S
C900 C898 1.356 . S
C900 C901 1.348 . S
C901 C896 1.353 . S
C901 C900 1.348 . S
C901 H953 0.929 . S
H902 C896 0.930 . S
H903 C899 0.930 . S
C904 N905 1.314 . S
C904 C906 1.353 . S
C904 H910 0.930 . S
N905 Li881 1.990 . S
N905 C904 1.314 . S
N905 C908 1.279 . S
C906 C904 1.353 . S
C906 C909 1.348 . S
C906 H954 0.929 . S
C907 C908 1.358 . S
C907 C909 1.356 . S
C907 H955 0.930 . S
C908 N905 1.279 . S
C908 C907 1.358 . S
C908 H911 0.930 . S
C909 C906 1.348 . S
C909 C907 1.356 . S
H910 C904 0.930 . S
H911 C908 0.930 . S
C912 C914 1.348 . S
C912 C915 1.356 . S
C912 O942 1.325 . S
N913 C916 1.314 . S
N913 C917 1.279 . S
C914 C912 1.348 . S
C914 C916 1.353 . S
C914 H956 0.929 . S
C915 C912 1.356 . S
C915 C917 1.358 . S
C915 H957 0.930 . S
C916 N913 1.314 . S
C916 C914 1.353 . S
C916 H958 0.930 . S
C917 N913 1.279 . S
C917 C915 1.358 . S
C917 H959 0.930 . S
C918 C919 1.348 . S
C918 C920 1.356 . S
C918 O943 1.325 . S
C919 C918 1.348 . S
C919 C921 1.353 . S
C919 H960 0.929 . S
C920 C918 1.356 . S
C920 C922 1.358 . S
C920 H961 0.930 . S
C921 C919 1.353 . S
C921 N923 1.314 . S
C921 H962 0.930 . S
C922 C920 1.358 . S
C922 N923 1.279 . S
C922 H963 0.930 . S
N923 C921 1.314 . S
N923 C922 1.279 . S
C924 C926 1.353 . S
C924 N927 1.314 . S
C924 H930 0.930 . S
C925 N927 1.279 . S
C925 C928 1.358 . S
C925 H931 0.930 . S
C926 C924 1.353 . S
C926 C929 1.348 . S
C926 H964 0.929 . S
N927 Li882 1.990 . S
N927 C924 1.314 . S
N927 C925 1.279 . S
C928 C925 1.358 . S
C928 C929 1.356 . S
C928 H965 0.930 . S
C929 C926 1.348 . S
C929 C928 1.356 . S
H930 C924 0.930 . S
H931 C925 0.930 . S
C932 N933 1.314 . S
C932 C934 1.353 . S
C932 H938 0.930 . S
N933 Li883 1.990 . S
N933 C932 1.314 . S
N933 C936 1.279 . S
C934 C932 1.353 . S
C934 C937 1.348 . S
C934 H966 0.929 . S
C935 C936 1.358 . S
C935 C937 1.356 . S
C935 H967 0.930 . S
C936 N933 1.279 . S
C936 C935 1.358 . S
C936 H939 0.930 . S
C937 C934 1.348 . S
C937 C935 1.356 . S
H938 C932 0.930 . S
H939 C936 0.930 . S
O940 Li880 1.956 . S
O940 Li881 1.970 . S
O940 Li882 1.961 . S
O940 C884 1.325 . S
O941 Li880 1.970 . S
O941 Li881 1.956 . S
O941 Li883 1.961 . S
O941 C890 1.325 . S
O942 Li880 1.961 . S
O942 Li882 1.956 . S
O942 Li883 1.970 . S
O942 C912 1.325 . S
O943 Li881 1.961 . S
O943 Li882 1.970 . S
O943 Li883 1.956 . S
O943 C918 1.325 . S
H944 C886 0.929 . S
H945 C887 0.930 . S
H946 C888 0.930 . S
H947 C889 0.930 . S
H948 C891 0.930 . S
H949 C893 0.929 . S
H950 C894 0.930 . S
H951 C895 0.930 . S
H952 C898 0.930 . S
H953 C901 0.929 . S
H954 C906 0.929 . S
H955 C907 0.930 . S
H956 C914 0.929 . S
H957 C915 0.930 . S
H958 C916 0.930 . S
H959 C917 0.930 . S
H960 C919 0.929 . S
H961 C920 0.930 . S
H962 C921 0.930 . S
H963 C922 0.930 . S
H964 C926 0.929 . S
H965 C928 0.930 . S
H966 C934 0.929 . S
H967 C935 0.930 . S
Li968 N985 1.990 . S
Li968 O1028 1.956 . S
Li968 O1029 1.970 . S
Li968 O1030 1.961 . S
Li969 N993 1.990 . S
Li969 O1028 1.970 . S
Li969 O1029 1.956 . S
Li969 O1031 1.961 . S
Li970 N1015 1.990 . S
Li970 O1028 1.961 . S
Li970 O1030 1.956 . S
Li970 O1031 1.970 . S
Li971 N1021 1.990 . S
Li971 O1029 1.961 . S
Li971 O1030 1.970 . S
Li971 O1031 1.956 . S
C972 C974 1.348 . S
C972 C975 1.356 . S
C972 O1028 1.325 . S
N973 C976 1.314 . S
N973 C977 1.279 . S
C974 C972 1.348 . S
C974 C976 1.353 . S
C974 H1032 0.929 . S
C975 C972 1.356 . S
C975 C977 1.358 . S
C975 H1033 0.930 . S
C976 N973 1.314 . S
C976 C974 1.353 . S
C976 H1034 0.930 . S
C977 N973 1.279 . S
C977 C975 1.358 . S
C977 H1035 0.930 . S
C978 C981 1.348 . S
C978 C982 1.356 . S
C978 O1029 1.325 . S
C979 N980 1.279 . S
C979 C982 1.358 . S
C979 H1036 0.930 . S
N980 C979 1.279 . S
N980 C983 1.314 . S
C981 C978 1.348 . S
C981 C983 1.353 . S
C981 H1037 0.929 . S
C982 C978 1.356 . S
C982 C979 1.358 . S
C982 H1038 0.930 . S
C983 N980 1.314 . S
C983 C981 1.353 . S
C983 H1039 0.930 . S
C984 N985 1.314 . S
C984 C989 1.353 . S
C984 H990 0.930 . S
N985 Li968 1.990 . S
N985 C984 1.314 . S
N985 C987 1.279 . S
C986 C987 1.358 . S
C986 C988 1.356 . S
C986 H1040 0.930 . S
C987 N985 1.279 . S
C987 C986 1.358 . S
C987 H991 0.930 . S
C988 C986 1.356 . S
C988 C989 1.348 . S
C989 C984 1.353 . S
C989 C988 1.348 . S
C989 H1041 0.929 . S
H990 C984 0.930 . S
H991 C987 0.930 . S
C992 N993 1.314 . S
C992 C994 1.353 . S
C992 H998 0.930 . S
N993 Li969 1.990 . S
N993 C992 1.314 . S
N993 C996 1.279 . S
C994 C992 1.353 . S
C994 C997 1.348 . S
C994 H1042 0.929 . S
C995 C996 1.358 . S
C995 C997 1.356 . S
C995 H1043 0.930 . S
C996 N993 1.279 . S
C996 C995 1.358 . S
C996 H999 0.930 . S
C997 C994 1.348 . S
C997 C995 1.356 . S
H998 C992 0.930 . S
H999 C996 0.930 . S
C1000 C1002 1.348 . S
C1000 C1003 1.356 . S
C1000 O1030 1.325 . S
N1001 C1004 1.314 . S
N1001 C1005 1.279 . S
C1002 C1000 1.348 . S
C1002 C1004 1.353 . S
C1002 H1044 0.929 . S
C1003 C1000 1.356 . S
C1003 C1005 1.358 . S
C1003 H1045 0.930 . S
C1004 N1001 1.314 . S
C1004 C1002 1.353 . S
C1004 H1046 0.930 . S
C1005 N1001 1.279 . S
C1005 C1003 1.358 . S
C1005 H1047 0.930 . S
C1006 C1007 1.348 . S
C1006 C1008 1.356 . S
C1006 O1031 1.325 . S
C1007 C1006 1.348 . S
C1007 C1009 1.353 . S
C1007 H1048 0.929 . S
C1008 C1006 1.356 . S
C1008 C1010 1.358 . S
C1008 H1049 0.930 . S
C1009 C1007 1.353 . S
C1009 N1011 1.314 . S
C1009 H1050 0.930 . S
C1010 C1008 1.358 . S
C1010 N1011 1.279 . S
C1010 H1051 0.930 . S
N1011 C1009 1.314 . S
N1011 C1010 1.279 . S
C1012 C1014 1.353 . S
C1012 N1015 1.314 . S
C1012 H1018 0.930 . S
C1013 N1015 1.279 . S
C1013 C1016 1.358 . S
C1013 H1019 0.930 . S
C1014 C1012 1.353 . S
C1014 C1017 1.348 . S
C1014 H1052 0.929 . S
N1015 Li970 1.990 . S
N1015 C1012 1.314 . S
N1015 C1013 1.279 . S
C1016 C1013 1.358 . S
C1016 C1017 1.356 . S
C1016 H1053 0.930 . S
C1017 C1014 1.348 . S
C1017 C1016 1.356 . S
H1018 C1012 0.930 . S
H1019 C1013 0.930 . S
C1020 N1021 1.314 . S
C1020 C1022 1.353 . S
C1020 H1026 0.930 . S
N1021 Li971 1.990 . S
N1021 C1020 1.314 . S
N1021 C1024 1.279 . S
C1022 C1020 1.353 . S
C1022 C1025 1.348 . S
C1022 H1054 0.929 . S
C1023 C1024 1.358 . S
C1023 C1025 1.356 . S
C1023 H1055 0.930 . S
C1024 N1021 1.279 . S
C1024 C1023 1.358 . S
C1024 H1027 0.930 . S
C1025 C1022 1.348 . S
C1025 C1023 1.356 . S
H1026 C1020 0.930 . S
H1027 C1024 0.930 . S
O1028 Li968 1.956 . S
O1028 Li969 1.970 . S
O1028 Li970 1.961 . S
O1028 C972 1.325 . S
O1029 Li968 1.970 . S
O1029 Li969 1.956 . S
O1029 Li971 1.961 . S
O1029 C978 1.325 . S
O1030 Li968 1.961 . S
O1030 Li970 1.956 . S
O1030 Li971 1.970 . S
O1030 C1000 1.325 . S
O1031 Li969 1.961 . S
O1031 Li970 1.970 . S
O1031 Li971 1.956 . S
O1031 C1006 1.325 . S
H1032 C974 0.929 . S
H1033 C975 0.930 . S
H1034 C976 0.930 . S
H1035 C977 0.930 . S
H1036 C979 0.930 . S
H1037 C981 0.929 . S
H1038 C982 0.930 . S
H1039 C983 0.930 . S
H1040 C986 0.930 . S
H1041 C989 0.929 . S
H1042 C994 0.929 . S
H1043 C995 0.930 . S
H1044 C1002 0.929 . S
H1045 C1003 0.930 . S
H1046 C1004 0.930 . S
H1047 C1005 0.930 . S
H1048 C1007 0.929 . S
H1049 C1008 0.930 . S
H1050 C1009 0.930 . S
H1051 C1010 0.930 . S
H1052 C1014 0.929 . S
H1053 C1016 0.930 . S
H1054 C1022 0.929 . S
H1055 C1023 0.930 . S
Li1056 N1073 1.990 . S
Li1056 O1116 1.956 . S
Li1056 O1117 1.970 . S
Li1056 O1118 1.961 1_554 S
Li1057 N1081 1.990 . S
Li1057 O1116 1.970 . S
Li1057 O1117 1.956 . S
Li1057 O1119 1.961 . S
Li1058 N1103 1.990 . S
Li1058 O1116 1.961 . S
Li1058 O1118 1.956 1_554 S
Li1058 O1119 1.970 . S
Li1059 N1109 1.990 . S
Li1059 O1117 1.961 1_556 S
Li1059 O1118 1.970 . S
Li1059 O1119 1.956 1_556 S
C1060 C1062 1.348 . S
C1060 C1063 1.356 . S
C1060 O1116 1.325 . S
N1061 C1064 1.314 . S
N1061 C1065 1.279 . S
C1062 C1060 1.348 . S
C1062 C1064 1.353 . S
C1062 H1120 0.929 . S
C1063 C1060 1.356 . S
C1063 C1065 1.358 . S
C1063 H1121 0.930 . S
C1064 N1061 1.314 . S
C1064 C1062 1.353 . S
C1064 H1122 0.930 . S
C1065 N1061 1.279 . S
C1065 C1063 1.358 . S
C1065 H1123 0.930 . S
C1066 C1069 1.348 . S
C1066 C1070 1.356 . S
C1066 O1117 1.325 . S
C1067 N1068 1.279 . S
C1067 C1070 1.358 . S
C1067 H1124 0.930 . S
N1068 C1067 1.279 . S
N1068 C1071 1.314 . S
C1069 C1066 1.348 . S
C1069 C1071 1.353 . S
C1069 H1125 0.929 . S
C1070 C1066 1.356 . S
C1070 C1067 1.358 . S
C1070 H1126 0.930 . S
C1071 N1068 1.314 . S
C1071 C1069 1.353 . S
C1071 H1127 0.930 . S
C1072 N1073 1.314 1_556 S
C1072 C1077 1.353 . S
C1072 H1078 0.930 . S
N1073 Li1056 1.990 . S
N1073 C1072 1.314 1_554 S
N1073 C1075 1.279 . S
C1074 C1075 1.358 . S
C1074 C1076 1.356 . S
C1074 H1128 0.930 . S
C1075 N1073 1.279 . S
C1075 C1074 1.358 . S
C1075 H1079 0.930 . S
C1076 C1074 1.356 . S
C1076 C1077 1.348 1_554 S
C1077 C1072 1.353 . S
C1077 C1076 1.348 1_556 S
C1077 H1129 0.929 . S
H1078 C1072 0.930 . S
H1079 C1075 0.930 . S
C1080 N1081 1.314 . S
C1080 C1082 1.353 . S
C1080 H1086 0.930 . S
N1081 Li1057 1.990 . S
N1081 C1080 1.314 . S
N1081 C1084 1.279 . S
C1082 C1080 1.353 . S
C1082 C1085 1.348 . S
C1082 H1130 0.929 . S
C1083 C1084 1.358 . S
C1083 C1085 1.356 . S
C1083 H1131 0.930 . S
C1084 N1081 1.279 . S
C1084 C1083 1.358 . S
C1084 H1087 0.930 . S
C1085 C1082 1.348 . S
C1085 C1083 1.356 . S
H1086 C1080 0.930 . S
H1087 C1084 0.930 . S
C1088 C1090 1.348 . S
C1088 C1091 1.356 . S
C1088 O1118 1.325 . S
N1089 C1092 1.314 . S
N1089 C1093 1.279 . S
C1090 C1088 1.348 . S
C1090 C1092 1.353 . S
C1090 H1132 0.929 . S
C1091 C1088 1.356 . S
C1091 C1093 1.358 . S
C1091 H1133 0.930 . S
C1092 N1089 1.314 . S
C1092 C1090 1.353 . S
C1092 H1134 0.930 . S
C1093 N1089 1.279 . S
C1093 C1091 1.358 . S
C1093 H1135 0.930 . S
C1094 C1095 1.346 1_554 S
C1094 C1096 1.356 . S
C1094 O1119 1.325 . S
C1095 C1094 1.346 1_556 S
C1095 C1097 1.353 . S
C1095 H1136 0.931 . S
C1096 C1094 1.356 . S
C1096 C1098 1.358 . S
C1096 H1137 0.930 . S
C1097 C1095 1.353 . S
C1097 N1099 1.308 1_556 S
C1097 H1138 0.937 . S
C1098 C1096 1.358 . S
C1098 N1099 1.279 . S
C1098 H1139 0.930 . S
N1099 C1097 1.308 1_554 S
N1099 C1098 1.279 . S
C1100 C1102 1.353 . S
C1100 N1103 1.314 . S
C1100 H1106 0.930 . S
C1101 N1103 1.279 1_556 S
C1101 C1104 1.358 . S
C1101 H1107 0.930 . S
C1102 C1100 1.353 . S
C1102 C1105 1.348 1_554 S
C1102 H1140 0.929 . S
N1103 Li1058 1.990 . S
N1103 C1100 1.314 . S
N1103 C1101 1.279 1_554 S
C1104 C1101 1.358 . S
C1104 C1105 1.356 . S
C1104 H1141 0.930 . S
C1105 C1102 1.348 1_556 S
C1105 C1104 1.356 . S
H1106 C1100 0.930 . S
H1107 C1101 0.930 . S
C1108 N1109 1.314 . S
C1108 C1110 1.353 . S
C1108 H1114 0.930 . S
N1109 Li1059 1.990 . S
N1109 C1108 1.314 . S
N1109 C1112 1.279 . S
C1110 C1108 1.353 . S
C1110 C1113 1.348 . S
C1110 H1142 0.929 . S
C1111 C1112 1.358 . S
C1111 C1113 1.356 . S
C1111 H1143 0.930 . S
C1112 N1109 1.279 . S
C1112 C1111 1.358 . S
C1112 H1115 0.930 . S
C1113 C1110 1.348 . S
C1113 C1111 1.356 . S
H1114 C1108 0.930 . S
H1115 C1112 0.930 . S
O1116 Li1056 1.956 . S
O1116 Li1057 1.970 . S
O1116 Li1058 1.961 . S
O1116 C1060 1.325 . S
O1117 Li1056 1.970 . S
O1117 Li1057 1.956 . S
O1117 Li1059 1.961 1_554 S
O1117 C1066 1.325 . S
O1118 Li1056 1.961 1_556 S
O1118 Li1058 1.956 1_556 S
O1118 Li1059 1.970 . S
O1118 C1088 1.325 . S
O1119 Li1057 1.961 . S
O1119 Li1058 1.970 . S
O1119 Li1059 1.956 1_554 S
O1119 C1094 1.325 . S
H1120 C1062 0.929 . S
H1121 C1063 0.930 . S
H1122 C1064 0.930 . S
H1123 C1065 0.930 . S
H1124 C1067 0.930 . S
H1125 C1069 0.929 . S
H1126 C1070 0.930 . S
H1127 C1071 0.930 . S
H1128 C1074 0.930 . S
H1129 C1077 0.929 . S
H1130 C1082 0.929 . S
H1131 C1083 0.930 . S
H1132 C1090 0.929 . S
H1133 C1091 0.930 . S
H1134 C1092 0.930 . S
H1135 C1093 0.930 . S
H1136 C1095 0.931 . S
H1137 C1096 0.930 . S
H1138 C1097 0.937 . S
H1139 C1098 0.930 . S
H1140 C1102 0.929 . S
H1141 C1104 0.930 . S
H1142 C1110 0.929 . S
H1143 C1111 0.930 . S
Li1144 N1161 1.990 . S
Li1144 O1204 1.956 . S
Li1144 O1205 1.970 . S
Li1144 O1206 1.961 . S
Li1145 N1169 1.990 . S
Li1145 O1204 1.970 . S
Li1145 O1205 1.956 . S
Li1145 O1207 1.961 . S
Li1146 N1191 1.990 . S
Li1146 O1204 1.961 . S
Li1146 O1206 1.956 . S
Li1146 O1207 1.970 . S
Li1147 N1197 1.990 . S
Li1147 O1205 1.961 . S
Li1147 O1206 1.970 . S
Li1147 O1207 1.956 . S
C1148 C1150 1.348 . S
C1148 C1151 1.356 . S
C1148 O1204 1.325 . S
N1149 C1152 1.314 . S
N1149 C1153 1.279 . S
C1150 C1148 1.348 . S
C1150 C1152 1.353 . S
C1150 H1208 0.929 . S
C1151 C1148 1.356 . S
C1151 C1153 1.358 . S
C1151 H1209 0.930 . S
C1152 N1149 1.314 . S
C1152 C1150 1.353 . S
C1152 H1210 0.930 . S
C1153 N1149 1.279 . S
C1153 C1151 1.358 . S
C1153 H1211 0.930 . S
C1154 C1157 1.348 . S
C1154 C1158 1.356 . S
C1154 O1205 1.325 . S
C1155 N1156 1.279 . S
C1155 C1158 1.358 . S
C1155 H1212 0.930 . S
N1156 C1155 1.279 . S
N1156 C1159 1.314 . S
C1157 C1154 1.348 . S
C1157 C1159 1.353 . S
C1157 H1213 0.929 . S
C1158 C1154 1.356 . S
C1158 C1155 1.358 . S
C1158 H1214 0.930 . S
C1159 N1156 1.314 . S
C1159 C1157 1.353 . S
C1159 H1215 0.930 . S
C1160 N1161 1.314 . S
C1160 C1165 1.353 . S
C1160 H1166 0.930 . S
N1161 Li1144 1.990 . S
N1161 C1160 1.314 . S
N1161 C1163 1.279 . S
C1162 C1163 1.358 . S
C1162 C1164 1.356 . S
C1162 H1216 0.930 . S
C1163 N1161 1.279 . S
C1163 C1162 1.358 . S
C1163 H1167 0.930 . S
C1164 C1162 1.356 . S
C1164 C1165 1.348 . S
C1165 C1160 1.353 . S
C1165 C1164 1.348 . S
C1165 H1217 0.929 . S
H1166 C1160 0.930 . S
H1167 C1163 0.930 . S
C1168 N1169 1.314 . S
C1168 C1170 1.353 . S
C1168 H1174 0.930 . S
N1169 Li1145 1.990 . S
N1169 C1168 1.314 . S
N1169 C1172 1.279 . S
C1170 C1168 1.353 . S
C1170 C1173 1.348 . S
C1170 H1218 0.929 . S
C1171 C1172 1.358 . S
C1171 C1173 1.356 . S
C1171 H1219 0.930 . S
C1172 N1169 1.279 . S
C1172 C1171 1.358 . S
C1172 H1175 0.930 . S
C1173 C1170 1.348 . S
C1173 C1171 1.356 . S
H1174 C1168 0.930 . S
H1175 C1172 0.930 . S
C1176 C1178 1.348 . S
C1176 C1179 1.356 . S
C1176 O1206 1.325 . S
N1177 C1180 1.314 . S
N1177 C1181 1.279 . S
C1178 C1176 1.348 . S
C1178 C1180 1.353 . S
C1178 H1220 0.929 . S
C1179 C1176 1.356 . S
C1179 C1181 1.358 . S
C1179 H1221 0.930 . S
C1180 N1177 1.314 . S
C1180 C1178 1.353 . S
C1180 H1222 0.930 . S
C1181 N1177 1.279 . S
C1181 C1179 1.358 . S
C1181 H1223 0.930 . S
C1182 C1183 1.348 . S
C1182 C1184 1.356 . S
C1182 O1207 1.325 . S
C1183 C1182 1.348 . S
C1183 C1185 1.353 . S
C1183 H1224 0.929 . S
C1184 C1182 1.356 . S
C1184 C1186 1.358 . S
C1184 H1225 0.930 . S
C1185 C1183 1.353 . S
C1185 N1187 1.314 . S
C1185 H1226 0.930 . S
C1186 C1184 1.358 . S
C1186 N1187 1.279 . S
C1186 H1227 0.930 . S
N1187 C1185 1.314 . S
N1187 C1186 1.279 . S
C1188 C1190 1.353 . S
C1188 N1191 1.314 . S
C1188 H1194 0.930 . S
C1189 N1191 1.279 . S
C1189 C1192 1.358 . S
C1189 H1195 0.930 . S
C1190 C1188 1.353 . S
C1190 C1193 1.348 . S
C1190 H1228 0.929 . S
N1191 Li1146 1.990 . S
N1191 C1188 1.314 . S
N1191 C1189 1.279 . S
C1192 C1189 1.358 . S
C1192 C1193 1.356 . S
C1192 H1229 0.930 . S
C1193 C1190 1.348 . S
C1193 C1192 1.356 . S
H1194 C1188 0.930 . S
H1195 C1189 0.930 . S
C1196 N1197 1.314 . S
C1196 C1198 1.353 . S
C1196 H1202 0.930 . S
N1197 Li1147 1.990 . S
N1197 C1196 1.314 . S
N1197 C1200 1.279 . S
C1198 C1196 1.353 . S
C1198 C1201 1.348 . S
C1198 H1230 0.929 . S
C1199 C1200 1.358 . S
C1199 C1201 1.356 . S
C1199 H1231 0.930 . S
C1200 N1197 1.279 . S
C1200 C1199 1.358 . S
C1200 H1203 0.930 . S
C1201 C1198 1.348 . S
C1201 C1199 1.356 . S
H1202 C1196 0.930 . S
H1203 C1200 0.930 . S
O1204 Li1144 1.956 . S
O1204 Li1145 1.970 . S
O1204 Li1146 1.961 . S
O1204 C1148 1.325 . S
O1205 Li1144 1.970 . S
O1205 Li1145 1.956 . S
O1205 Li1147 1.961 . S
O1205 C1154 1.325 . S
O1206 Li1144 1.961 . S
O1206 Li1146 1.956 . S
O1206 Li1147 1.970 . S
O1206 C1176 1.325 . S
O1207 Li1145 1.961 . S
O1207 Li1146 1.970 . S
O1207 Li1147 1.956 . S
O1207 C1182 1.325 . S
H1208 C1150 0.929 . S
H1209 C1151 0.930 . S
H1210 C1152 0.930 . S
H1211 C1153 0.930 . S
H1212 C1155 0.930 . S
H1213 C1157 0.929 . S
H1214 C1158 0.930 . S
H1215 C1159 0.930 . S
H1216 C1162 0.930 . S
H1217 C1165 0.929 . S
H1218 C1170 0.929 . S
H1219 C1171 0.930 . S
H1220 C1178 0.929 . S
H1221 C1179 0.930 . S
H1222 C1180 0.930 . S
H1223 C1181 0.930 . S
H1224 C1183 0.929 . S
H1225 C1184 0.930 . S
H1226 C1185 0.930 . S
H1227 C1186 0.930 . S
H1228 C1190 0.929 . S
H1229 C1192 0.930 . S
H1230 C1198 0.929 . S
H1231 C1199 0.930 . S
Li1232 N1249 1.990 . S
Li1232 O1292 1.956 . S
Li1232 O1293 1.970 . S
Li1232 O1294 1.961 . S
Li1233 N1257 1.990 . S
Li1233 O1292 1.970 . S
Li1233 O1293 1.956 . S
Li1233 O1295 1.961 . S
Li1234 N1279 1.990 . S
Li1234 O1292 1.961 . S
Li1234 O1294 1.956 . S
Li1234 O1295 1.970 . S
Li1235 N1285 1.990 . S
Li1235 O1293 1.961 . S
Li1235 O1294 1.970 . S
Li1235 O1295 1.956 . S
C1236 C1238 1.348 . S
C1236 C1239 1.356 . S
C1236 O1292 1.325 . S
N1237 C1240 1.314 . S
N1237 C1241 1.279 . S
C1238 C1236 1.348 . S
C1238 C1240 1.353 . S
C1238 H1296 0.929 . S
C1239 C1236 1.356 . S
C1239 C1241 1.358 . S
C1239 H1297 0.930 . S
C1240 N1237 1.314 . S
C1240 C1238 1.353 . S
C1240 H1298 0.930 . S
C1241 N1237 1.279 . S
C1241 C1239 1.358 . S
C1241 H1299 0.930 . S
C1242 C1245 1.348 . S
C1242 C1246 1.356 . S
C1242 O1293 1.325 . S
C1243 N1244 1.279 . S
C1243 C1246 1.358 . S
C1243 H1300 0.930 . S
N1244 C1243 1.279 . S
N1244 C1247 1.314 . S
C1245 C1242 1.348 . S
C1245 C1247 1.353 . S
C1245 H1301 0.929 . S
C1246 C1242 1.356 . S
C1246 C1243 1.358 . S
C1246 H1302 0.930 . S
C1247 N1244 1.314 . S
C1247 C1245 1.353 . S
C1247 H1303 0.930 . S
C1248 N1249 1.314 . S
C1248 C1253 1.353 . S
C1248 H1254 0.930 . S
N1249 Li1232 1.990 . S
N1249 C1248 1.314 . S
N1249 C1251 1.279 . S
C1250 C1251 1.358 . S
C1250 C1252 1.356 . S
C1250 H1304 0.930 . S
C1251 N1249 1.279 . S
C1251 C1250 1.358 . S
C1251 H1255 0.930 . S
C1252 C1250 1.356 . S
C1252 C1253 1.348 . S
C1253 C1248 1.353 . S
C1253 C1252 1.348 . S
C1253 H1305 0.929 . S
H1254 C1248 0.930 . S
H1255 C1251 0.930 . S
C1256 N1257 1.314 . S
C1256 C1258 1.353 . S
C1256 H1262 0.930 . S
N1257 Li1233 1.990 . S
N1257 C1256 1.314 . S
N1257 C1260 1.279 . S
C1258 C1256 1.353 . S
C1258 C1261 1.348 . S
C1258 H1306 0.929 . S
C1259 C1260 1.358 . S
C1259 C1261 1.356 . S
C1259 H1307 0.930 . S
C1260 N1257 1.279 . S
C1260 C1259 1.358 . S
C1260 H1263 0.930 . S
C1261 C1258 1.348 . S
C1261 C1259 1.356 . S
H1262 C1256 0.930 . S
H1263 C1260 0.930 . S
C1264 C1266 1.348 . S
C1264 C1267 1.356 . S
C1264 O1294 1.325 . S
N1265 C1268 1.314 . S
N1265 C1269 1.279 . S
C1266 C1264 1.348 . S
C1266 C1268 1.353 . S
C1266 H1308 0.929 . S
C1267 C1264 1.356 . S
C1267 C1269 1.358 . S
C1267 H1309 0.930 . S
C1268 N1265 1.314 . S
C1268 C1266 1.353 . S
C1268 H1310 0.930 . S
C1269 N1265 1.279 . S
C1269 C1267 1.358 . S
C1269 H1311 0.930 . S
C1270 C1271 1.348 . S
C1270 C1272 1.356 . S
C1270 O1295 1.325 . S
C1271 C1270 1.348 . S
C1271 C1273 1.353 . S
C1271 H1312 0.929 . S
C1272 C1270 1.356 . S
C1272 C1274 1.358 . S
C1272 H1313 0.930 . S
C1273 C1271 1.353 . S
C1273 N1275 1.314 . S
C1273 H1314 0.930 . S
C1274 C1272 1.358 . S
C1274 N1275 1.279 . S
C1274 H1315 0.930 . S
N1275 C1273 1.314 . S
N1275 C1274 1.279 . S
C1276 C1278 1.353 . S
C1276 N1279 1.314 . S
C1276 H1282 0.930 . S
C1277 N1279 1.279 . S
C1277 C1280 1.358 . S
C1277 H1283 0.930 . S
C1278 C1276 1.353 . S
C1278 C1281 1.348 . S
C1278 H1316 0.929 . S
N1279 Li1234 1.990 . S
N1279 C1276 1.314 . S
N1279 C1277 1.279 . S
C1280 C1277 1.358 . S
C1280 C1281 1.356 . S
C1280 H1317 0.930 . S
C1281 C1278 1.348 . S
C1281 C1280 1.356 . S
H1282 C1276 0.930 . S
H1283 C1277 0.930 . S
C1284 N1285 1.314 . S
C1284 C1286 1.353 . S
C1284 H1290 0.930 . S
N1285 Li1235 1.990 . S
N1285 C1284 1.314 . S
N1285 C1288 1.279 . S
C1286 C1284 1.353 . S
C1286 C1289 1.348 . S
C1286 H1318 0.929 . S
C1287 C1288 1.358 . S
C1287 C1289 1.356 . S
C1287 H1319 0.930 . S
C1288 N1285 1.279 . S
C1288 C1287 1.358 . S
C1288 H1291 0.930 . S
C1289 C1286 1.348 . S
C1289 C1287 1.356 . S
H1290 C1284 0.930 . S
H1291 C1288 0.930 . S
O1292 Li1232 1.956 . S
O1292 Li1233 1.970 . S
O1292 Li1234 1.961 . S
O1292 C1236 1.325 . S
O1293 Li1232 1.970 . S
O1293 Li1233 1.956 . S
O1293 Li1235 1.961 . S
O1293 C1242 1.325 . S
O1294 Li1232 1.961 . S
O1294 Li1234 1.956 . S
O1294 Li1235 1.970 . S
O1294 C1264 1.325 . S
O1295 Li1233 1.961 . S
O1295 Li1234 1.970 . S
O1295 Li1235 1.956 . S
O1295 C1270 1.325 . S
H1296 C1238 0.929 . S
H1297 C1239 0.930 . S
H1298 C1240 0.930 . S
H1299 C1241 0.930 . S
H1300 C1243 0.930 . S
H1301 C1245 0.929 . S
H1302 C1246 0.930 . S
H1303 C1247 0.930 . S
H1304 C1250 0.930 . S
H1305 C1253 0.929 . S
H1306 C1258 0.929 . S
H1307 C1259 0.930 . S
H1308 C1266 0.929 . S
H1309 C1267 0.930 . S
H1310 C1268 0.930 . S
H1311 C1269 0.930 . S
H1312 C1271 0.929 . S
H1313 C1272 0.930 . S
H1314 C1273 0.930 . S
H1315 C1274 0.930 . S
H1316 C1278 0.929 . S
H1317 C1280 0.930 . S
H1318 C1286 0.929 . S
H1319 C1287 0.930 . S
Li1320 N1337 1.990 . S
Li1320 O1380 1.956 . S
Li1320 O1381 1.970 . S
Li1320 O1382 1.961 . S
Li1321 N1345 1.990 . S
Li1321 O1380 1.970 . S
Li1321 O1381 1.956 . S
Li1321 O1383 1.961 . S
Li1322 N1367 1.990 . S
Li1322 O1380 1.961 . S
Li1322 O1382 1.956 . S
Li1322 O1383 1.970 . S
Li1323 N1373 1.990 . S
Li1323 O1381 1.961 . S
Li1323 O1382 1.970 . S
Li1323 O1383 1.956 . S
C1324 C1326 1.348 . S
C1324 C1327 1.356 . S
C1324 O1380 1.325 . S
N1325 C1328 1.314 . S
N1325 C1329 1.279 . S
C1326 C1324 1.348 . S
C1326 C1328 1.353 . S
C1326 H1384 0.929 . S
C1327 C1324 1.356 . S
C1327 C1329 1.358 . S
C1327 H1385 0.930 . S
C1328 N1325 1.314 . S
C1328 C1326 1.353 . S
C1328 H1386 0.930 . S
C1329 N1325 1.279 . S
C1329 C1327 1.358 . S
C1329 H1387 0.930 . S
C1330 C1333 1.348 . S
C1330 C1334 1.356 . S
C1330 O1381 1.325 . S
C1331 N1332 1.279 . S
C1331 C1334 1.358 . S
C1331 H1388 0.930 . S
N1332 C1331 1.279 . S
N1332 C1335 1.314 . S
C1333 C1330 1.348 . S
C1333 C1335 1.353 . S
C1333 H1389 0.929 . S
C1334 C1330 1.356 . S
C1334 C1331 1.358 . S
C1334 H1390 0.930 . S
C1335 N1332 1.314 . S
C1335 C1333 1.353 . S
C1335 H1391 0.930 . S
C1336 N1337 1.314 . S
C1336 C1341 1.353 . S
C1336 H1342 0.930 . S
N1337 Li1320 1.990 . S
N1337 C1336 1.314 . S
N1337 C1339 1.279 . S
C1338 C1339 1.358 . S
C1338 C1340 1.356 . S
C1338 H1392 0.930 . S
C1339 N1337 1.279 . S
C1339 C1338 1.358 . S
C1339 H1343 0.930 . S
C1340 C1338 1.356 . S
C1340 C1341 1.348 . S
C1341 C1336 1.353 . S
C1341 C1340 1.348 . S
C1341 H1393 0.929 . S
H1342 C1336 0.930 . S
H1343 C1339 0.930 . S
C1344 N1345 1.314 . S
C1344 C1346 1.353 . S
C1344 H1350 0.930 . S
N1345 Li1321 1.990 . S
N1345 C1344 1.314 . S
N1345 C1348 1.279 . S
C1346 C1344 1.353 . S
C1346 C1349 1.348 . S
C1346 H1394 0.929 . S
C1347 C1348 1.358 . S
C1347 C1349 1.356 . S
C1347 H1395 0.930 . S
C1348 N1345 1.279 . S
C1348 C1347 1.358 . S
C1348 H1351 0.930 . S
C1349 C1346 1.348 . S
C1349 C1347 1.356 . S
H1350 C1344 0.930 . S
H1351 C1348 0.930 . S
C1352 C1354 1.348 . S
C1352 C1355 1.356 . S
C1352 O1382 1.325 . S
N1353 C1356 1.314 . S
N1353 C1357 1.279 . S
C1354 C1352 1.348 . S
C1354 C1356 1.353 . S
C1354 H1396 0.929 . S
C1355 C1352 1.356 . S
C1355 C1357 1.358 . S
C1355 H1397 0.930 . S
C1356 N1353 1.314 . S
C1356 C1354 1.353 . S
C1356 H1398 0.930 . S
C1357 N1353 1.279 . S
C1357 C1355 1.358 . S
C1357 H1399 0.930 . S
C1358 C1359 1.348 . S
C1358 C1360 1.356 . S
C1358 O1383 1.325 . S
C1359 C1358 1.348 . S
C1359 C1361 1.353 . S
C1359 H1400 0.929 . S
C1360 C1358 1.356 . S
C1360 C1362 1.358 . S
C1360 H1401 0.930 . S
C1361 C1359 1.353 . S
C1361 N1363 1.314 . S
C1361 H1402 0.930 . S
C1362 C1360 1.358 . S
C1362 N1363 1.279 . S
C1362 H1403 0.930 . S
N1363 C1361 1.314 . S
N1363 C1362 1.279 . S
C1364 C1366 1.353 . S
C1364 N1367 1.314 . S
C1364 H1370 0.930 . S
C1365 N1367 1.279 . S
C1365 C1368 1.358 . S
C1365 H1371 0.930 . S
C1366 C1364 1.353 . S
C1366 C1369 1.348 . S
C1366 H1404 0.929 . S
N1367 Li1322 1.990 . S
N1367 C1364 1.314 . S
N1367 C1365 1.279 . S
C1368 C1365 1.358 . S
C1368 C1369 1.356 . S
C1368 H1405 0.930 . S
C1369 C1366 1.348 . S
C1369 C1368 1.356 . S
H1370 C1364 0.930 . S
H1371 C1365 0.930 . S
C1372 N1373 1.314 . S
C1372 C1374 1.353 . S
C1372 H1378 0.930 . S
N1373 Li1323 1.990 . S
N1373 C1372 1.314 . S
N1373 C1376 1.279 . S
C1374 C1372 1.353 . S
C1374 C1377 1.348 . S
C1374 H1406 0.929 . S
C1375 C1376 1.358 . S
C1375 C1377 1.356 . S
C1375 H1407 0.930 . S
C1376 N1373 1.279 . S
C1376 C1375 1.358 . S
C1376 H1379 0.930 . S
C1377 C1374 1.348 . S
C1377 C1375 1.356 . S
H1378 C1372 0.930 . S
H1379 C1376 0.930 . S
O1380 Li1320 1.956 . S
O1380 Li1321 1.970 . S
O1380 Li1322 1.961 . S
O1380 C1324 1.325 . S
O1381 Li1320 1.970 . S
O1381 Li1321 1.956 . S
O1381 Li1323 1.961 . S
O1381 C1330 1.325 . S
O1382 Li1320 1.961 . S
O1382 Li1322 1.956 . S
O1382 Li1323 1.970 . S
O1382 C1352 1.325 . S
O1383 Li1321 1.961 . S
O1383 Li1322 1.970 . S
O1383 Li1323 1.956 . S
O1383 C1358 1.325 . S
H1384 C1326 0.929 . S
H1385 C1327 0.930 . S
H1386 C1328 0.930 . S
H1387 C1329 0.930 . S
H1388 C1331 0.930 . S
H1389 C1333 0.929 . S
H1390 C1334 0.930 . S
H1391 C1335 0.930 . S
H1392 C1338 0.930 . S
H1393 C1341 0.929 . S
H1394 C1346 0.929 . S
H1395 C1347 0.930 . S
H1396 C1354 0.929 . S
H1397 C1355 0.930 . S
H1398 C1356 0.930 . S
H1399 C1357 0.930 . S
H1400 C1359 0.929 . S
H1401 C1360 0.930 . S
H1402 C1361 0.930 . S
H1403 C1362 0.930 . S
H1404 C1366 0.929 . S
H1405 C1368 0.930 . S
H1406 C1374 0.929 . S
H1407 C1375 0.930 . S
Li1408 N1425 1.990 . S
Li1408 O1468 1.956 . S
Li1408 O1469 1.970 . S
Li1408 O1470 1.961 . S
Li1409 N1433 1.990 . S
Li1409 O1468 1.970 . S
Li1409 O1469 1.956 . S
Li1409 O1471 1.961 . S
Li1410 N1455 1.990 . S
Li1410 O1468 1.961 . S
Li1410 O1470 1.956 . S
Li1410 O1471 1.970 . S
Li1411 N1461 1.990 . S
Li1411 O1469 1.961 . S
Li1411 O1470 1.970 . S
Li1411 O1471 1.956 . S
C1412 C1414 1.348 . S
C1412 C1415 1.356 . S
C1412 O1468 1.325 . S
N1413 C1416 1.314 . S
N1413 C1417 1.279 . S
C1414 C1412 1.348 . S
C1414 C1416 1.353 . S
C1414 H1472 0.929 . S
C1415 C1412 1.356 . S
C1415 C1417 1.358 . S
C1415 H1473 0.930 . S
C1416 N1413 1.314 . S
C1416 C1414 1.353 . S
C1416 H1474 0.930 . S
C1417 N1413 1.279 . S
C1417 C1415 1.358 . S
C1417 H1475 0.930 . S
C1418 C1421 1.348 . S
C1418 C1422 1.356 . S
C1418 O1469 1.325 . S
C1419 N1420 1.279 . S
C1419 C1422 1.358 . S
C1419 H1476 0.930 . S
N1420 C1419 1.279 . S
N1420 C1423 1.314 . S
C1421 C1418 1.348 . S
C1421 C1423 1.353 . S
C1421 H1477 0.929 . S
C1422 C1418 1.356 . S
C1422 C1419 1.358 . S
C1422 H1478 0.930 . S
C1423 N1420 1.314 . S
C1423 C1421 1.353 . S
C1423 H1479 0.930 . S
C1424 N1425 1.314 . S
C1424 C1429 1.353 . S
C1424 H1430 0.930 . S
N1425 Li1408 1.990 . S
N1425 C1424 1.314 . S
N1425 C1427 1.279 . S
C1426 C1427 1.358 . S
C1426 C1428 1.356 . S
C1426 H1480 0.930 . S
C1427 N1425 1.279 . S
C1427 C1426 1.358 . S
C1427 H1431 0.930 . S
C1428 C1426 1.356 . S
C1428 C1429 1.348 . S
C1429 C1424 1.353 . S
C1429 C1428 1.348 . S
C1429 H1481 0.929 . S
H1430 C1424 0.930 . S
H1431 C1427 0.930 . S
C1432 N1433 1.314 . S
C1432 C1434 1.353 . S
C1432 H1438 0.930 . S
N1433 Li1409 1.990 . S
N1433 C1432 1.314 . S
N1433 C1436 1.279 . S
C1434 C1432 1.353 . S
C1434 C1437 1.348 . S
C1434 H1482 0.929 . S
C1435 C1436 1.358 . S
C1435 C1437 1.356 . S
C1435 H1483 0.930 . S
C1436 N1433 1.279 . S
C1436 C1435 1.358 . S
C1436 H1439 0.930 . S
C1437 C1434 1.348 . S
C1437 C1435 1.356 . S
H1438 C1432 0.930 . S
H1439 C1436 0.930 . S
C1440 C1442 1.348 . S
C1440 C1443 1.356 . S
C1440 O1470 1.325 . S
N1441 C1444 1.314 . S
N1441 C1445 1.279 . S
C1442 C1440 1.348 . S
C1442 C1444 1.353 . S
C1442 H1484 0.929 . S
C1443 C1440 1.356 . S
C1443 C1445 1.358 . S
C1443 H1485 0.930 . S
C1444 N1441 1.314 . S
C1444 C1442 1.353 . S
C1444 H1486 0.930 . S
C1445 N1441 1.279 . S
C1445 C1443 1.358 . S
C1445 H1487 0.930 . S
C1446 C1447 1.348 . S
C1446 C1448 1.356 . S
C1446 O1471 1.325 . S
C1447 C1446 1.348 . S
C1447 C1449 1.353 . S
C1447 H1488 0.929 . S
C1448 C1446 1.356 . S
C1448 C1450 1.358 . S
C1448 H1489 0.930 . S
C1449 C1447 1.353 . S
C1449 N1451 1.314 . S
C1449 H1490 0.930 . S
C1450 C1448 1.358 . S
C1450 N1451 1.279 . S
C1450 H1491 0.930 . S
N1451 C1449 1.314 . S
N1451 C1450 1.279 . S
C1452 C1454 1.353 . S
C1452 N1455 1.314 . S
C1452 H1458 0.930 . S
C1453 N1455 1.279 . S
C1453 C1456 1.358 . S
C1453 H1459 0.930 . S
C1454 C1452 1.353 . S
C1454 C1457 1.348 . S
C1454 H1492 0.929 . S
N1455 Li1410 1.990 . S
N1455 C1452 1.314 . S
N1455 C1453 1.279 . S
C1456 C1453 1.358 . S
C1456 C1457 1.356 . S
C1456 H1493 0.930 . S
C1457 C1454 1.348 . S
C1457 C1456 1.356 . S
H1458 C1452 0.930 . S
H1459 C1453 0.930 . S
C1460 N1461 1.314 . S
C1460 C1462 1.353 . S
C1460 H1466 0.930 . S
N1461 Li1411 1.990 . S
N1461 C1460 1.314 . S
N1461 C1464 1.279 . S
C1462 C1460 1.353 . S
C1462 C1465 1.348 . S
C1462 H1494 0.929 . S
C1463 C1464 1.358 . S
C1463 C1465 1.356 . S
C1463 H1495 0.930 . S
C1464 N1461 1.279 . S
C1464 C1463 1.358 . S
C1464 H1467 0.930 . S
C1465 C1462 1.348 . S
C1465 C1463 1.356 . S
H1466 C1460 0.930 . S
H1467 C1464 0.930 . S
O1468 Li1408 1.956 . S
O1468 Li1409 1.970 . S
O1468 Li1410 1.961 . S
O1468 C1412 1.325 . S
O1469 Li1408 1.970 . S
O1469 Li1409 1.956 . S
O1469 Li1411 1.961 . S
O1469 C1418 1.325 . S
O1470 Li1408 1.961 . S
O1470 Li1410 1.956 . S
O1470 Li1411 1.970 . S
O1470 C1440 1.325 . S
O1471 Li1409 1.961 . S
O1471 Li1410 1.970 . S
O1471 Li1411 1.956 . S
O1471 C1446 1.325 . S
H1472 C1414 0.929 . S
H1473 C1415 0.930 . S
H1474 C1416 0.930 . S
H1475 C1417 0.930 . S
H1476 C1419 0.930 . S
H1477 C1421 0.929 . S
H1478 C1422 0.930 . S
H1479 C1423 0.930 . S
H1480 C1426 0.930 . S
H1481 C1429 0.929 . S
H1482 C1434 0.929 . S
H1483 C1435 0.930 . S
H1484 C1442 0.929 . S
H1485 C1443 0.930 . S
H1486 C1444 0.930 . S
H1487 C1445 0.930 . S
H1488 C1447 0.929 . S
H1489 C1448 0.930 . S
H1490 C1449 0.930 . S
H1491 C1450 0.930 . S
H1492 C1454 0.929 . S
H1493 C1456 0.930 . S
H1494 C1462 0.929 . S
H1495 C1463 0.930 . S
Li1496 N1513 1.990 . S
Li1496 O1556 1.956 . S
Li1496 O1557 1.970 . S
Li1496 O1558 1.961 . S
Li1497 N1521 1.990 . S
Li1497 O1556 1.970 . S
Li1497 O1557 1.956 . S
Li1497 O1559 1.961 . S
Li1498 N1543 1.990 . S
Li1498 O1556 1.961 . S
Li1498 O1558 1.956 . S
Li1498 O1559 1.970 . S
Li1499 N1549 1.990 . S
Li1499 O1557 1.961 . S
Li1499 O1558 1.970 . S
Li1499 O1559 1.956 . S
C1500 C1502 1.348 . S
C1500 C1503 1.356 . S
C1500 O1556 1.325 . S
N1501 C1504 1.314 . S
N1501 C1505 1.279 . S
C1502 C1500 1.348 . S
C1502 C1504 1.353 . S
C1502 H1560 0.929 . S
C1503 C1500 1.356 . S
C1503 C1505 1.358 . S
C1503 H1561 0.930 . S
C1504 N1501 1.314 . S
C1504 C1502 1.353 . S
C1504 H1562 0.930 . S
C1505 N1501 1.279 . S
C1505 C1503 1.358 . S
C1505 H1563 0.930 . S
C1506 C1509 1.348 . S
C1506 C1510 1.356 . S
C1506 O1557 1.325 . S
C1507 N1508 1.279 . S
C1507 C1510 1.358 . S
C1507 H1564 0.930 . S
N1508 C1507 1.279 . S
N1508 C1511 1.314 . S
C1509 C1506 1.348 . S
C1509 C1511 1.353 . S
C1509 H1565 0.929 . S
C1510 C1506 1.356 . S
C1510 C1507 1.358 . S
C1510 H1566 0.930 . S
C1511 N1508 1.314 . S
C1511 C1509 1.353 . S
C1511 H1567 0.930 . S
C1512 N1513 1.314 . S
C1512 C1517 1.353 . S
C1512 H1518 0.930 . S
N1513 Li1496 1.990 . S
N1513 C1512 1.314 . S
N1513 C1515 1.279 . S
C1514 C1515 1.358 . S
C1514 C1516 1.356 . S
C1514 H1568 0.930 . S
C1515 N1513 1.279 . S
C1515 C1514 1.358 . S
C1515 H1519 0.930 . S
C1516 C1514 1.356 . S
C1516 C1517 1.348 . S
C1517 C1512 1.353 . S
C1517 C1516 1.348 . S
C1517 H1569 0.929 . S
H1518 C1512 0.930 . S
H1519 C1515 0.930 . S
C1520 N1521 1.314 . S
C1520 C1522 1.353 . S
C1520 H1526 0.930 . S
N1521 Li1497 1.990 . S
N1521 C1520 1.314 . S
N1521 C1524 1.279 . S
C1522 C1520 1.353 . S
C1522 C1525 1.348 . S
C1522 H1570 0.929 . S
C1523 C1524 1.358 . S
C1523 C1525 1.356 . S
C1523 H1571 0.930 . S
C1524 N1521 1.279 . S
C1524 C1523 1.358 . S
C1524 H1527 0.930 . S
C1525 C1522 1.348 . S
C1525 C1523 1.356 . S
H1526 C1520 0.930 . S
H1527 C1524 0.930 . S
C1528 C1530 1.348 . S
C1528 C1531 1.356 . S
C1528 O1558 1.325 . S
N1529 C1532 1.314 . S
N1529 C1533 1.279 . S
C1530 C1528 1.348 . S
C1530 C1532 1.353 . S
C1530 H1572 0.929 . S
C1531 C1528 1.356 . S
C1531 C1533 1.358 . S
C1531 H1573 0.930 . S
C1532 N1529 1.314 . S
C1532 C1530 1.353 . S
C1532 H1574 0.930 . S
C1533 N1529 1.279 . S
C1533 C1531 1.358 . S
C1533 H1575 0.930 . S
C1534 C1535 1.348 . S
C1534 C1536 1.356 . S
C1534 O1559 1.325 . S
C1535 C1534 1.348 . S
C1535 C1537 1.353 . S
C1535 H1576 0.929 . S
C1536 C1534 1.356 . S
C1536 C1538 1.358 . S
C1536 H1577 0.930 . S
C1537 C1535 1.353 . S
C1537 N1539 1.314 . S
C1537 H1578 0.930 . S
C1538 C1536 1.358 . S
C1538 N1539 1.279 . S
C1538 H1579 0.930 . S
N1539 C1537 1.314 . S
N1539 C1538 1.279 . S
C1540 C1542 1.353 . S
C1540 N1543 1.314 . S
C1540 H1546 0.930 . S
C1541 N1543 1.279 . S
C1541 C1544 1.358 . S
C1541 H1547 0.930 . S
C1542 C1540 1.353 . S
C1542 C1545 1.348 . S
C1542 H1580 0.929 . S
N1543 Li1498 1.990 . S
N1543 C1540 1.314 . S
N1543 C1541 1.279 . S
C1544 C1541 1.358 . S
C1544 C1545 1.356 . S
C1544 H1581 0.930 . S
C1545 C1542 1.348 . S
C1545 C1544 1.356 . S
H1546 C1540 0.930 . S
H1547 C1541 0.930 . S
C1548 N1549 1.314 . S
C1548 C1550 1.353 . S
C1548 H1554 0.930 . S
N1549 Li1499 1.990 . S
N1549 C1548 1.314 . S
N1549 C1552 1.279 . S
C1550 C1548 1.353 . S
C1550 C1553 1.348 . S
C1550 H1582 0.929 . S
C1551 C1552 1.358 . S
C1551 C1553 1.356 . S
C1551 H1583 0.930 . S
C1552 N1549 1.279 . S
C1552 C1551 1.358 . S
C1552 H1555 0.930 . S
C1553 C1550 1.348 . S
C1553 C1551 1.356 . S
H1554 C1548 0.930 . S
H1555 C1552 0.930 . S
O1556 Li1496 1.956 . S
O1556 Li1497 1.970 . S
O1556 Li1498 1.961 . S
O1556 C1500 1.325 . S
O1557 Li1496 1.970 . S
O1557 Li1497 1.956 . S
O1557 Li1499 1.961 . S
O1557 C1506 1.325 . S
O1558 Li1496 1.961 . S
O1558 Li1498 1.956 . S
O1558 Li1499 1.970 . S
O1558 C1528 1.325 . S
O1559 Li1497 1.961 . S
O1559 Li1498 1.970 . S
O1559 Li1499 1.956 . S
O1559 C1534 1.325 . S
H1560 C1502 0.929 . S
H1561 C1503 0.930 . S
H1562 C1504 0.930 . S
H1563 C1505 0.930 . S
H1564 C1507 0.930 . S
H1565 C1509 0.929 . S
H1566 C1510 0.930 . S
H1567 C1511 0.930 . S
H1568 C1514 0.930 . S
H1569 C1517 0.929 . S
H1570 C1522 0.929 . S
H1571 C1523 0.930 . S
H1572 C1530 0.929 . S
H1573 C1531 0.930 . S
H1574 C1532 0.930 . S
H1575 C1533 0.930 . S
H1576 C1535 0.929 . S
H1577 C1536 0.930 . S
H1578 C1537 0.930 . S
H1579 C1538 0.930 . S
H1580 C1542 0.929 . S
H1581 C1544 0.930 . S
H1582 C1550 0.929 . S
H1583 C1551 0.930 . S
Li1584 N1601 1.990 . S
Li1584 O1644 1.956 . S
Li1584 O1645 1.970 . S
Li1584 O1646 1.961 1_554 S
Li1585 N1609 1.990 . S
Li1585 O1644 1.970 . S
Li1585 O1645 1.956 . S
Li1585 O1647 1.961 . S
Li1586 N1631 1.990 . S
Li1586 O1644 1.961 . S
Li1586 O1646 1.956 1_554 S
Li1586 O1647 1.970 . S
Li1587 N1637 1.990 . S
Li1587 O1645 1.961 1_556 S
Li1587 O1646 1.970 . S
Li1587 O1647 1.956 1_556 S
C1588 C1590 1.348 . S
C1588 C1591 1.356 . S
C1588 O1644 1.325 . S
N1589 C1592 1.314 . S
N1589 C1593 1.279 . S
C1590 C1588 1.348 . S
C1590 C1592 1.353 . S
C1590 H1648 0.929 . S
C1591 C1588 1.356 . S
C1591 C1593 1.358 . S
C1591 H1649 0.930 . S
C1592 N1589 1.314 . S
C1592 C1590 1.353 . S
C1592 H1650 0.930 . S
C1593 N1589 1.279 . S
C1593 C1591 1.358 . S
C1593 H1651 0.930 . S
C1594 C1597 1.348 . S
C1594 C1598 1.356 . S
C1594 O1645 1.325 . S
C1595 N1596 1.279 . S
C1595 C1598 1.358 . S
C1595 H1652 0.930 . S
N1596 C1595 1.279 . S
N1596 C1599 1.314 . S
C1597 C1594 1.348 . S
C1597 C1599 1.353 . S
C1597 H1653 0.929 . S
C1598 C1594 1.356 . S
C1598 C1595 1.358 . S
C1598 H1654 0.930 . S
C1599 N1596 1.314 . S
C1599 C1597 1.353 . S
C1599 H1655 0.930 . S
C1600 N1601 1.314 1_556 S
C1600 C1605 1.353 . S
C1600 H1606 0.930 . S
N1601 Li1584 1.990 . S
N1601 C1600 1.314 1_554 S
N1601 C1603 1.279 . S
C1602 C1603 1.358 . S
C1602 C1604 1.356 1_554 S
C1602 H1656 0.930 . S
C1603 N1601 1.279 . S
C1603 C1602 1.358 . S
C1603 H1607 0.930 . S
C1604 C1602 1.356 1_556 S
C1604 C1605 1.348 . S
C1605 C1600 1.353 . S
C1605 C1604 1.348 . S
C1605 H1657 0.929 . S
H1606 C1600 0.930 . S
H1607 C1603 0.930 . S
C1608 N1609 1.314 . S
C1608 C1610 1.353 . S
C1608 H1614 0.930 . S
N1609 Li1585 1.990 . S
N1609 C1608 1.314 . S
N1609 C1612 1.279 . S
C1610 C1608 1.353 . S
C1610 C1613 1.348 . S
C1610 H1658 0.929 . S
C1611 C1612 1.358 . S
C1611 C1613 1.356 . S
C1611 H1659 0.930 . S
C1612 N1609 1.279 . S
C1612 C1611 1.358 . S
C1612 H1615 0.930 . S
C1613 C1610 1.348 . S
C1613 C1611 1.356 . S
H1614 C1608 0.930 . S
H1615 C1612 0.930 . S
C1616 C1618 1.348 . S
C1616 C1619 1.356 . S
C1616 O1646 1.325 . S
N1617 C1620 1.314 . S
N1617 C1621 1.279 . S
C1618 C1616 1.348 . S
C1618 C1620 1.353 . S
C1618 H1660 0.929 . S
C1619 C1616 1.356 . S
C1619 C1621 1.358 . S
C1619 H1661 0.930 . S
C1620 N1617 1.314 . S
C1620 C1618 1.353 . S
C1620 H1662 0.930 . S
C1621 N1617 1.279 . S
C1621 C1619 1.358 . S
C1621 H1663 0.930 . S
C1622 C1623 1.348 . S
C1622 C1624 1.356 . S
C1622 O1647 1.325 . S
C1623 C1622 1.348 . S
C1623 C1625 1.353 . S
C1623 H1664 0.929 . S
C1624 C1622 1.356 . S
C1624 C1626 1.358 . S
C1624 H1665 0.930 . S
C1625 C1623 1.353 . S
C1625 N1627 1.314 . S
C1625 H1666 0.930 . S
C1626 C1624 1.358 . S
C1626 N1627 1.279 . S
C1626 H1667 0.930 . S
N1627 C1625 1.314 . S
N1627 C1626 1.279 . S
C1628 C1630 1.353 . S
C1628 N1631 1.314 . S
C1628 H1634 0.930 . S
C1629 N1631 1.279 1_556 S
C1629 C1632 1.358 . S
C1629 H1635 0.930 . S
C1630 C1628 1.353 . S
C1630 C1633 1.348 . S
C1630 H1668 0.929 . S
N1631 Li1586 1.990 . S
N1631 C1628 1.314 . S
N1631 C1629 1.279 1_554 S
C1632 C1629 1.358 . S
C1632 C1633 1.356 1_556 S
C1632 H1669 0.930 . S
C1633 C1630 1.348 . S
C1633 C1632 1.356 1_554 S
H1634 C1628 0.930 . S
H1635 C1629 0.930 . S
C1636 N1637 1.314 . S
C1636 C1638 1.353 . S
C1636 H1642 0.930 . S
N1637 Li1587 1.990 . S
N1637 C1636 1.314 . S
N1637 C1640 1.279 . S
C1638 C1636 1.353 . S
C1638 C1641 1.348 . S
C1638 H1670 0.929 . S
C1639 C1640 1.358 . S
C1639 C1641 1.356 . S
C1639 H1671 0.930 . S
C1640 N1637 1.279 . S
C1640 C1639 1.358 . S
C1640 H1643 0.930 . S
C1641 C1638 1.348 . S
C1641 C1639 1.356 . S
H1642 C1636 0.930 . S
H1643 C1640 0.930 . S
O1644 Li1584 1.956 . S
O1644 Li1585 1.970 . S
O1644 Li1586 1.961 . S
O1644 C1588 1.325 . S
O1645 Li1584 1.970 . S
O1645 Li1585 1.956 . S
O1645 Li1587 1.961 1_554 S
O1645 C1594 1.325 . S
O1646 Li1584 1.961 1_556 S
O1646 Li1586 1.956 1_556 S
O1646 Li1587 1.970 . S
O1646 C1616 1.325 . S
O1647 Li1585 1.961 . S
O1647 Li1586 1.970 . S
O1647 Li1587 1.956 1_554 S
O1647 C1622 1.325 . S
H1648 C1590 0.929 . S
H1649 C1591 0.930 . S
H1650 C1592 0.930 . S
H1651 C1593 0.930 . S
H1652 C1595 0.930 . S
H1653 C1597 0.929 . S
H1654 C1598 0.930 . S
H1655 C1599 0.930 . S
H1656 C1602 0.930 . S
H1657 C1605 0.929 . S
H1658 C1610 0.929 . S
H1659 C1611 0.930 . S
H1660 C1618 0.929 . S
H1661 C1619 0.930 . S
H1662 C1620 0.930 . S
H1663 C1621 0.930 . S
H1664 C1623 0.929 . S
H1665 C1624 0.930 . S
H1666 C1625 0.930 . S
H1667 C1626 0.930 . S
H1668 C1630 0.929 . S
H1669 C1632 0.930 . S
H1670 C1638 0.929 . S
H1671 C1639 0.930 . S
Li1672 N1689 1.990 . S
Li1672 O1732 1.956 . S
Li1672 O1733 1.970 . S
Li1672 O1734 1.961 . S
Li1673 N1697 1.990 . S
Li1673 O1732 1.970 . S
Li1673 O1733 1.956 . S
Li1673 O1735 1.961 . S
Li1674 N1719 1.990 . S
Li1674 O1732 1.961 . S
Li1674 O1734 1.956 . S
Li1674 O1735 1.970 . S
Li1675 N1725 1.990 . S
Li1675 O1733 1.961 . S
Li1675 O1734 1.970 . S
Li1675 O1735 1.956 . S
C1676 C1678 1.348 . S
C1676 C1679 1.356 . S
C1676 O1732 1.325 . S
N1677 C1680 1.314 . S
N1677 C1681 1.279 . S
C1678 C1676 1.348 . S
C1678 C1680 1.353 . S
C1678 H1736 0.929 . S
C1679 C1676 1.356 . S
C1679 C1681 1.358 . S
C1679 H1737 0.930 . S
C1680 N1677 1.314 . S
C1680 C1678 1.353 . S
C1680 H1738 0.930 . S
C1681 N1677 1.279 . S
C1681 C1679 1.358 . S
C1681 H1739 0.930 . S
C1682 C1685 1.348 . S
C1682 C1686 1.356 . S
C1682 O1733 1.325 . S
C1683 N1684 1.279 . S
C1683 C1686 1.358 . S
C1683 H1740 0.930 . S
N1684 C1683 1.279 . S
N1684 C1687 1.314 . S
C1685 C1682 1.348 . S
C1685 C1687 1.353 . S
C1685 H1741 0.929 . S
C1686 C1682 1.356 . S
C1686 C1683 1.358 . S
C1686 H1742 0.930 . S
C1687 N1684 1.314 . S
C1687 C1685 1.353 . S
C1687 H1743 0.930 . S
C1688 N1689 1.314 . S
C1688 C1693 1.353 . S
C1688 H1694 0.930 . S
N1689 Li1672 1.990 . S
N1689 C1688 1.314 . S
N1689 C1691 1.279 . S
C1690 C1691 1.358 . S
C1690 C1692 1.356 . S
C1690 H1744 0.930 . S
C1691 N1689 1.279 . S
C1691 C1690 1.358 . S
C1691 H1695 0.930 . S
C1692 C1690 1.356 . S
C1692 C1693 1.348 . S
C1693 C1688 1.353 . S
C1693 C1692 1.348 . S
C1693 H1745 0.929 . S
H1694 C1688 0.930 . S
H1695 C1691 0.930 . S
C1696 N1697 1.314 . S
C1696 C1698 1.353 . S
C1696 H1702 0.930 . S
N1697 Li1673 1.990 . S
N1697 C1696 1.314 . S
N1697 C1700 1.279 . S
C1698 C1696 1.353 . S
C1698 C1701 1.348 . S
C1698 H1746 0.929 . S
C1699 C1700 1.358 . S
C1699 C1701 1.356 . S
C1699 H1747 0.930 . S
C1700 N1697 1.279 . S
C1700 C1699 1.358 . S
C1700 H1703 0.930 . S
C1701 C1698 1.348 . S
C1701 C1699 1.356 . S
H1702 C1696 0.930 . S
H1703 C1700 0.930 . S
C1704 C1706 1.348 . S
C1704 C1707 1.356 . S
C1704 O1734 1.325 . S
N1705 C1708 1.314 . S
N1705 C1709 1.279 . S
C1706 C1704 1.348 . S
C1706 C1708 1.353 . S
C1706 H1748 0.929 . S
C1707 C1704 1.356 . S
C1707 C1709 1.358 . S
C1707 H1749 0.930 . S
C1708 N1705 1.314 . S
C1708 C1706 1.353 . S
C1708 H1750 0.930 . S
C1709 N1705 1.279 . S
C1709 C1707 1.358 . S
C1709 H1751 0.930 . S
C1710 C1711 1.348 . S
C1710 C1712 1.356 . S
C1710 O1735 1.325 . S
C1711 C1710 1.348 . S
C1711 C1713 1.353 . S
C1711 H1752 0.929 . S
C1712 C1710 1.356 . S
C1712 C1714 1.358 . S
C1712 H1753 0.930 . S
C1713 C1711 1.353 . S
C1713 N1715 1.314 . S
C1713 H1754 0.930 . S
C1714 C1712 1.358 . S
C1714 N1715 1.279 . S
C1714 H1755 0.930 . S
N1715 C1713 1.314 . S
N1715 C1714 1.279 . S
C1716 C1718 1.353 . S
C1716 N1719 1.314 . S
C1716 H1722 0.930 . S
C1717 N1719 1.279 . S
C1717 C1720 1.358 . S
C1717 H1723 0.930 . S
C1718 C1716 1.353 . S
C1718 C1721 1.348 . S
C1718 H1756 0.929 . S
N1719 Li1674 1.990 . S
N1719 C1716 1.314 . S
N1719 C1717 1.279 . S
C1720 C1717 1.358 . S
C1720 C1721 1.356 . S
C1720 H1757 0.930 . S
C1721 C1718 1.348 . S
C1721 C1720 1.356 . S
H1722 C1716 0.930 . S
H1723 C1717 0.930 . S
C1724 N1725 1.314 . S
C1724 C1726 1.353 . S
C1724 H1730 0.930 . S
N1725 Li1675 1.990 . S
N1725 C1724 1.314 . S
N1725 C1728 1.279 . S
C1726 C1724 1.353 . S
C1726 C1729 1.348 . S
C1726 H1758 0.929 . S
C1727 C1728 1.358 . S
C1727 C1729 1.356 . S
C1727 H1759 0.930 . S
C1728 N1725 1.279 . S
C1728 C1727 1.358 . S
C1728 H1731 0.930 . S
C1729 C1726 1.348 . S
C1729 C1727 1.356 . S
H1730 C1724 0.930 . S
H1731 C1728 0.930 . S
O1732 Li1672 1.956 . S
O1732 Li1673 1.970 . S
O1732 Li1674 1.961 . S
O1732 C1676 1.325 . S
O1733 Li1672 1.970 . S
O1733 Li1673 1.956 . S
O1733 Li1675 1.961 . S
O1733 C1682 1.325 . S
O1734 Li1672 1.961 . S
O1734 Li1674 1.956 . S
O1734 Li1675 1.970 . S
O1734 C1704 1.325 . S
O1735 Li1673 1.961 . S
O1735 Li1674 1.970 . S
O1735 Li1675 1.956 . S
O1735 C1710 1.325 . S
H1736 C1678 0.929 . S
H1737 C1679 0.930 . S
H1738 C1680 0.930 . S
H1739 C1681 0.930 . S
H1740 C1683 0.930 . S
H1741 C1685 0.929 . S
H1742 C1686 0.930 . S
H1743 C1687 0.930 . S
H1744 C1690 0.930 . S
H1745 C1693 0.929 . S
H1746 C1698 0.929 . S
H1747 C1699 0.930 . S
H1748 C1706 0.929 . S
H1749 C1707 0.930 . S
H1750 C1708 0.930 . S
H1751 C1709 0.930 . S
H1752 C1711 0.929 . S
H1753 C1712 0.930 . S
H1754 C1713 0.930 . S
H1755 C1714 0.930 . S
H1756 C1718 0.929 . S
H1757 C1720 0.930 . S
H1758 C1726 0.929 . S
H1759 C1727 0.930 . S
Li1760 N1777 1.990 . S
Li1760 O1820 1.956 . S
Li1760 O1821 1.970 . S
Li1760 O1822 1.961 . S
Li1761 N1785 1.990 . S
Li1761 O1820 1.970 . S
Li1761 O1821 1.956 . S
Li1761 O1823 1.961 . S
Li1762 N1807 1.990 . S
Li1762 O1820 1.961 . S
Li1762 O1822 1.956 . S
Li1762 O1823 1.970 . S
Li1763 N1813 1.990 . S
Li1763 O1821 1.961 . S
Li1763 O1822 1.970 . S
Li1763 O1823 1.956 . S
C1764 C1766 1.348 . S
C1764 C1767 1.356 . S
C1764 O1820 1.325 . S
N1765 C1768 1.314 . S
N1765 C1769 1.279 . S
C1766 C1764 1.348 . S
C1766 C1768 1.353 . S
C1766 H1824 0.929 . S
C1767 C1764 1.356 . S
C1767 C1769 1.358 . S
C1767 H1825 0.930 . S
C1768 N1765 1.314 . S
C1768 C1766 1.353 . S
C1768 H1826 0.930 . S
C1769 N1765 1.279 . S
C1769 C1767 1.358 . S
C1769 H1827 0.930 . S
C1770 C1773 1.348 . S
C1770 C1774 1.356 . S
C1770 O1821 1.325 . S
C1771 N1772 1.279 . S
C1771 C1774 1.358 . S
C1771 H1828 0.930 . S
N1772 C1771 1.279 . S
N1772 C1775 1.314 . S
C1773 C1770 1.348 . S
C1773 C1775 1.353 . S
C1773 H1829 0.929 . S
C1774 C1770 1.356 . S
C1774 C1771 1.358 . S
C1774 H1830 0.930 . S
C1775 N1772 1.314 . S
C1775 C1773 1.353 . S
C1775 H1831 0.930 . S
C1776 N1777 1.314 . S
C1776 C1781 1.353 . S
C1776 H1782 0.930 . S
N1777 Li1760 1.990 . S
N1777 C1776 1.314 . S
N1777 C1779 1.279 . S
C1778 C1779 1.358 . S
C1778 C1780 1.356 . S
C1778 H1832 0.930 . S
C1779 N1777 1.279 . S
C1779 C1778 1.358 . S
C1779 H1783 0.930 . S
C1780 C1778 1.356 . S
C1780 C1781 1.348 . S
C1781 C1776 1.353 . S
C1781 C1780 1.348 . S
C1781 H1833 0.929 . S
H1782 C1776 0.930 . S
H1783 C1779 0.930 . S
C1784 N1785 1.314 . S
C1784 C1786 1.353 . S
C1784 H1790 0.930 . S
N1785 Li1761 1.990 . S
N1785 C1784 1.314 . S
N1785 C1788 1.279 . S
C1786 C1784 1.353 . S
C1786 C1789 1.348 . S
C1786 H1834 0.929 . S
C1787 C1788 1.358 . S
C1787 C1789 1.356 . S
C1787 H1835 0.930 . S
C1788 N1785 1.279 . S
C1788 C1787 1.358 . S
C1788 H1791 0.930 . S
C1789 C1786 1.348 . S
C1789 C1787 1.356 . S
H1790 C1784 0.930 . S
H1791 C1788 0.930 . S
C1792 C1794 1.348 . S
C1792 C1795 1.356 . S
C1792 O1822 1.325 . S
N1793 C1796 1.314 . S
N1793 C1797 1.279 . S
C1794 C1792 1.348 . S
C1794 C1796 1.353 . S
C1794 H1836 0.929 . S
C1795 C1792 1.356 . S
C1795 C1797 1.358 . S
C1795 H1837 0.930 . S
C1796 N1793 1.314 . S
C1796 C1794 1.353 . S
C1796 H1838 0.930 . S
C1797 N1793 1.279 . S
C1797 C1795 1.358 . S
C1797 H1839 0.930 . S
C1798 C1799 1.348 . S
C1798 C1800 1.356 . S
C1798 O1823 1.325 . S
C1799 C1798 1.348 . S
C1799 C1801 1.353 . S
C1799 H1840 0.929 . S
C1800 C1798 1.356 . S
C1800 C1802 1.358 . S
C1800 H1841 0.930 . S
C1801 C1799 1.353 . S
C1801 N1803 1.314 . S
C1801 H1842 0.930 . S
C1802 C1800 1.358 . S
C1802 N1803 1.279 . S
C1802 H1843 0.930 . S
N1803 C1801 1.314 . S
N1803 C1802 1.279 . S
C1804 C1806 1.353 . S
C1804 N1807 1.314 . S
C1804 H1810 0.930 . S
C1805 N1807 1.279 . S
C1805 C1808 1.358 . S
C1805 H1811 0.930 . S
C1806 C1804 1.353 . S
C1806 C1809 1.348 . S
C1806 H1844 0.929 . S
N1807 Li1762 1.990 . S
N1807 C1804 1.314 . S
N1807 C1805 1.279 . S
C1808 C1805 1.358 . S
C1808 C1809 1.356 . S
C1808 H1845 0.930 . S
C1809 C1806 1.348 . S
C1809 C1808 1.356 . S
H1810 C1804 0.930 . S
H1811 C1805 0.930 . S
C1812 N1813 1.314 . S
C1812 C1814 1.353 . S
C1812 H1818 0.930 . S
N1813 Li1763 1.990 . S
N1813 C1812 1.314 . S
N1813 C1816 1.279 . S
C1814 C1812 1.353 . S
C1814 C1817 1.348 . S
C1814 H1846 0.929 . S
C1815 C1816 1.358 . S
C1815 C1817 1.356 . S
C1815 H1847 0.930 . S
C1816 N1813 1.279 . S
C1816 C1815 1.358 . S
C1816 H1819 0.930 . S
C1817 C1814 1.348 . S
C1817 C1815 1.356 . S
H1818 C1812 0.930 . S
H1819 C1816 0.930 . S
O1820 Li1760 1.956 . S
O1820 Li1761 1.970 . S
O1820 Li1762 1.961 . S
O1820 C1764 1.325 . S
O1821 Li1760 1.970 . S
O1821 Li1761 1.956 . S
O1821 Li1763 1.961 . S
O1821 C1770 1.325 . S
O1822 Li1760 1.961 . S
O1822 Li1762 1.956 . S
O1822 Li1763 1.970 . S
O1822 C1792 1.325 . S
O1823 Li1761 1.961 . S
O1823 Li1762 1.970 . S
O1823 Li1763 1.956 . S
O1823 C1798 1.325 . S
H1824 C1766 0.929 . S
H1825 C1767 0.930 . S
H1826 C1768 0.930 . S
H1827 C1769 0.930 . S
H1828 C1771 0.930 . S
H1829 C1773 0.929 . S
H1830 C1774 0.930 . S
H1831 C1775 0.930 . S
H1832 C1778 0.930 . S
H1833 C1781 0.929 . S
H1834 C1786 0.929 . S
H1835 C1787 0.930 . S
H1836 C1794 0.929 . S
H1837 C1795 0.930 . S
H1838 C1796 0.930 . S
H1839 C1797 0.930 . S
H1840 C1799 0.929 . S
H1841 C1800 0.930 . S
H1842 C1801 0.930 . S
H1843 C1802 0.930 . S
H1844 C1806 0.929 . S
H1845 C1808 0.930 . S
H1846 C1814 0.929 . S
H1847 C1815 0.930 . S
Li1848 N1865 1.990 . S
Li1848 O1908 1.956 . S
Li1848 O1909 1.970 . S
Li1848 O1910 1.961 . S
Li1849 N1873 1.990 . S
Li1849 O1908 1.970 . S
Li1849 O1909 1.956 . S
Li1849 O1911 1.961 . S
Li1850 N1895 1.990 . S
Li1850 O1908 1.961 . S
Li1850 O1910 1.956 . S
Li1850 O1911 1.970 . S
Li1851 N1901 1.990 . S
Li1851 O1909 1.961 . S
Li1851 O1910 1.970 . S
Li1851 O1911 1.956 . S
C1852 C1854 1.348 . S
C1852 C1855 1.356 . S
C1852 O1908 1.325 . S
N1853 C1856 1.314 . S
N1853 C1857 1.279 . S
C1854 C1852 1.348 . S
C1854 C1856 1.353 . S
C1854 H1912 0.929 . S
C1855 C1852 1.356 . S
C1855 C1857 1.358 . S
C1855 H1913 0.930 . S
C1856 N1853 1.314 . S
C1856 C1854 1.353 . S
C1856 H1914 0.930 . S
C1857 N1853 1.279 . S
C1857 C1855 1.358 . S
C1857 H1915 0.930 . S
C1858 C1861 1.348 . S
C1858 C1862 1.356 . S
C1858 O1909 1.325 . S
C1859 N1860 1.279 . S
C1859 C1862 1.358 . S
C1859 H1916 0.930 . S
N1860 C1859 1.279 . S
N1860 C1863 1.314 . S
C1861 C1858 1.348 . S
C1861 C1863 1.353 . S
C1861 H1917 0.929 . S
C1862 C1858 1.356 . S
C1862 C1859 1.358 . S
C1862 H1918 0.930 . S
C1863 N1860 1.314 . S
C1863 C1861 1.353 . S
C1863 H1919 0.930 . S
C1864 N1865 1.314 . S
C1864 C1869 1.353 . S
C1864 H1870 0.930 . S
N1865 Li1848 1.990 . S
N1865 C1864 1.314 . S
N1865 C1867 1.279 . S
C1866 C1867 1.358 . S
C1866 C1868 1.356 . S
C1866 H1920 0.930 . S
C1867 N1865 1.279 . S
C1867 C1866 1.358 . S
C1867 H1871 0.930 . S
C1868 C1866 1.356 . S
C1868 C1869 1.348 . S
C1869 C1864 1.353 . S
C1869 C1868 1.348 . S
C1869 H1921 0.929 . S
H1870 C1864 0.930 . S
H1871 C1867 0.930 . S
C1872 N1873 1.314 . S
C1872 C1874 1.353 . S
C1872 H1878 0.930 . S
N1873 Li1849 1.990 . S
N1873 C1872 1.314 . S
N1873 C1876 1.279 . S
C1874 C1872 1.353 . S
C1874 C1877 1.348 . S
C1874 H1922 0.929 . S
C1875 C1876 1.358 . S
C1875 C1877 1.356 . S
C1875 H1923 0.930 . S
C1876 N1873 1.279 . S
C1876 C1875 1.358 . S
C1876 H1879 0.930 . S
C1877 C1874 1.348 . S
C1877 C1875 1.356 . S
H1878 C1872 0.930 . S
H1879 C1876 0.930 . S
C1880 C1882 1.348 . S
C1880 C1883 1.356 . S
C1880 O1910 1.325 . S
N1881 C1884 1.314 . S
N1881 C1885 1.279 . S
C1882 C1880 1.348 . S
C1882 C1884 1.353 . S
C1882 H1924 0.929 . S
C1883 C1880 1.356 . S
C1883 C1885 1.358 . S
C1883 H1925 0.930 . S
C1884 N1881 1.314 . S
C1884 C1882 1.353 . S
C1884 H1926 0.930 . S
C1885 N1881 1.279 . S
C1885 C1883 1.358 . S
C1885 H1927 0.930 . S
C1886 C1887 1.348 . S
C1886 C1888 1.356 . S
C1886 O1911 1.325 . S
C1887 C1886 1.348 . S
C1887 C1889 1.353 . S
C1887 H1928 0.929 . S
C1888 C1886 1.356 . S
C1888 C1890 1.358 . S
C1888 H1929 0.930 . S
C1889 C1887 1.353 . S
C1889 N1891 1.314 . S
C1889 H1930 0.930 . S
C1890 C1888 1.358 . S
C1890 N1891 1.279 . S
C1890 H1931 0.930 . S
N1891 C1889 1.314 . S
N1891 C1890 1.279 . S
C1892 C1894 1.353 . S
C1892 N1895 1.314 . S
C1892 H1898 0.930 . S
C1893 N1895 1.279 . S
C1893 C1896 1.358 . S
C1893 H1899 0.930 . S
C1894 C1892 1.353 . S
C1894 C1897 1.348 . S
C1894 H1932 0.929 . S
N1895 Li1850 1.990 . S
N1895 C1892 1.314 . S
N1895 C1893 1.279 . S
C1896 C1893 1.358 . S
C1896 C1897 1.356 . S
C1896 H1933 0.930 . S
C1897 C1894 1.348 . S
C1897 C1896 1.356 . S
H1898 C1892 0.930 . S
H1899 C1893 0.930 . S
C1900 N1901 1.314 . S
C1900 C1902 1.353 . S
C1900 H1906 0.930 . S
N1901 Li1851 1.990 . S
N1901 C1900 1.314 . S
N1901 C1904 1.279 . S
C1902 C1900 1.353 . S
C1902 C1905 1.348 . S
C1902 H1934 0.929 . S
C1903 C1904 1.358 . S
C1903 C1905 1.356 . S
C1903 H1935 0.930 . S
C1904 N1901 1.279 . S
C1904 C1903 1.358 . S
C1904 H1907 0.930 . S
C1905 C1902 1.348 . S
C1905 C1903 1.356 . S
H1906 C1900 0.930 . S
H1907 C1904 0.930 . S
O1908 Li1848 1.956 . S
O1908 Li1849 1.970 . S
O1908 Li1850 1.961 . S
O1908 C1852 1.325 . S
O1909 Li1848 1.970 . S
O1909 Li1849 1.956 . S
O1909 Li1851 1.961 . S
O1909 C1858 1.325 . S
O1910 Li1848 1.961 . S
O1910 Li1850 1.956 . S
O1910 Li1851 1.970 . S
O1910 C1880 1.325 . S
O1911 Li1849 1.961 . S
O1911 Li1850 1.970 . S
O1911 Li1851 1.956 . S
O1911 C1886 1.325 . S
H1912 C1854 0.929 . S
H1913 C1855 0.930 . S
H1914 C1856 0.930 . S
H1915 C1857 0.930 . S
H1916 C1859 0.930 . S
H1917 C1861 0.929 . S
H1918 C1862 0.930 . S
H1919 C1863 0.930 . S
H1920 C1866 0.930 . S
H1921 C1869 0.929 . S
H1922 C1874 0.929 . S
H1923 C1875 0.930 . S
H1924 C1882 0.929 . S
H1925 C1883 0.930 . S
H1926 C1884 0.930 . S
H1927 C1885 0.930 . S
H1928 C1887 0.929 . S
H1929 C1888 0.930 . S
H1930 C1889 0.930 . S
H1931 C1890 0.930 . S
H1932 C1894 0.929 . S
H1933 C1896 0.930 . S
H1934 C1902 0.929 . S
H1935 C1903 0.930 . S
Li1936 N1953 1.990 . S
Li1936 O1996 1.956 . S
Li1936 O1997 1.970 . S
Li1936 O1998 1.961 . S
Li1937 N1961 1.990 . S
Li1937 O1996 1.970 . S
Li1937 O1997 1.956 . S
Li1937 O1999 1.961 . S
Li1938 N1983 1.990 . S
Li1938 O1996 1.961 . S
Li1938 O1998 1.956 . S
Li1938 O1999 1.970 . S
Li1939 N1989 1.990 1_554 S
Li1939 O1997 1.961 . S
Li1939 O1998 1.970 . S
Li1939 O1999 1.956 . S
C1940 C1942 1.348 . S
C1940 C1943 1.356 . S
C1940 O1996 1.325 . S
N1941 C1944 1.314 . S
N1941 C1945 1.279 . S
C1942 C1940 1.348 . S
C1942 C1944 1.353 . S
C1942 H2000 0.929 . S
C1943 C1940 1.356 . S
C1943 C1945 1.358 . S
C1943 H2001 0.930 . S
C1944 N1941 1.314 . S
C1944 C1942 1.353 . S
C1944 H2002 0.930 . S
C1945 N1941 1.279 . S
C1945 C1943 1.358 . S
C1945 H2003 0.930 . S
C1946 C1949 1.348 . S
C1946 C1950 1.356 . S
C1946 O1997 1.325 . S
C1947 N1948 1.279 . S
C1947 C1950 1.358 . S
C1947 H2004 0.930 . S
N1948 C1947 1.279 . S
N1948 C1951 1.314 . S
C1949 C1946 1.348 . S
C1949 C1951 1.353 . S
C1949 H2005 0.929 . S
C1950 C1946 1.356 . S
C1950 C1947 1.358 . S
C1950 H2006 0.930 . S
C1951 N1948 1.314 . S
C1951 C1949 1.353 . S
C1951 H2007 0.930 . S
C1952 N1953 1.314 . S
C1952 C1957 1.353 . S
C1952 H1958 0.930 . S
N1953 Li1936 1.990 . S
N1953 C1952 1.314 . S
N1953 C1955 1.279 . S
C1954 C1955 1.358 . S
C1954 C1956 1.356 . S
C1954 H2008 0.930 . S
C1955 N1953 1.279 . S
C1955 C1954 1.358 . S
C1955 H1959 0.930 . S
C1956 C1954 1.356 . S
C1956 C1957 1.348 . S
C1957 C1952 1.353 . S
C1957 C1956 1.348 . S
C1957 H2009 0.929 1_554 S
H1958 C1952 0.930 . S
H1959 C1955 0.930 . S
C1960 N1961 1.314 . S
C1960 C1962 1.353 . S
C1960 H1966 0.930 . S
N1961 Li1937 1.990 . S
N1961 C1960 1.314 . S
N1961 C1964 1.279 . S
C1962 C1960 1.353 . S
C1962 C1965 1.348 . S
C1962 H2010 0.929 . S
C1963 C1964 1.358 . S
C1963 C1965 1.356 . S
C1963 H2011 0.930 . S
C1964 N1961 1.279 . S
C1964 C1963 1.358 . S
C1964 H1967 0.930 . S
C1965 C1962 1.348 . S
C1965 C1963 1.356 . S
H1966 C1960 0.930 . S
H1967 C1964 0.930 . S
C1968 C1970 1.348 . S
C1968 C1971 1.356 . S
C1968 O1998 1.325 1_556 S
N1969 C1972 1.314 . S
N1969 C1973 1.279 . S
C1970 C1968 1.348 . S
C1970 C1972 1.353 . S
C1970 H2012 0.929 . S
C1971 C1968 1.356 . S
C1971 C1973 1.358 . S
C1971 H2013 0.930 1_556 S
C1972 N1969 1.314 . S
C1972 C1970 1.353 . S
C1972 H2014 0.930 . S
C1973 N1969 1.279 . S
C1973 C1971 1.358 . S
C1973 H2015 0.930 . S
C1974 C1975 1.348 . S
C1974 C1976 1.356 . S
C1974 O1999 1.325 . S
C1975 C1974 1.348 . S
C1975 C1977 1.353 . S
C1975 H2016 0.929 . S
C1976 C1974 1.356 . S
C1976 C1978 1.358 . S
C1976 H2017 0.930 . S
C1977 C1975 1.353 . S
C1977 N1979 1.314 . S
C1977 H2018 0.930 . S
C1978 C1976 1.358 . S
C1978 N1979 1.279 . S
C1978 H2019 0.930 . S
N1979 C1977 1.314 . S
N1979 C1978 1.279 . S
C1980 C1982 1.353 . S
C1980 N1983 1.314 . S
C1980 H1986 0.930 . S
C1981 N1983 1.279 . S
C1981 C1984 1.358 . S
C1981 H1987 0.930 . S
C1982 C1980 1.353 . S
C1982 C1985 1.348 . S
C1982 H2020 0.929 . S
N1983 Li1938 1.990 . S
N1983 C1980 1.314 . S
N1983 C1981 1.279 . S
C1984 C1981 1.358 . S
C1984 C1985 1.356 . S
C1984 H2021 0.930 . S
C1985 C1982 1.348 . S
C1985 C1984 1.356 . S
H1986 C1980 0.930 . S
H1987 C1981 0.930 . S
C1988 N1989 1.314 . S
C1988 C1990 1.353 . S
C1988 H1994 0.930 . S
N1989 Li1939 1.990 1_556 S
N1989 C1988 1.314 . S
N1989 C1992 1.279 . S
C1990 C1988 1.353 . S
C1990 C1993 1.348 . S
C1990 H2022 0.929 . S
C1991 C1992 1.358 . S
C1991 C1993 1.356 . S
C1991 H2023 0.930 . S
C1992 N1989 1.279 . S
C1992 C1991 1.358 . S
C1992 H1995 0.930 . S
C1993 C1990 1.348 . S
C1993 C1991 1.356 . S
H1994 C1988 0.930 . S
H1995 C1992 0.930 . S
O1996 Li1936 1.956 . S
O1996 Li1937 1.970 . S
O1996 Li1938 1.961 . S
O1996 C1940 1.325 . S
O1997 Li1936 1.970 . S
O1997 Li1937 1.956 . S
O1997 Li1939 1.961 . S
O1997 C1946 1.325 . S
O1998 Li1936 1.961 . S
O1998 Li1938 1.956 . S
O1998 Li1939 1.970 . S
O1998 C1968 1.325 1_554 S
O1999 Li1937 1.961 . S
O1999 Li1938 1.970 . S
O1999 Li1939 1.956 . S
O1999 C1974 1.325 . S
H2000 C1942 0.929 . S
H2001 C1943 0.930 . S
H2002 C1944 0.930 . S
H2003 C1945 0.930 . S
H2004 C1947 0.930 . S
H2005 C1949 0.929 . S
H2006 C1950 0.930 . S
H2007 C1951 0.930 . S
H2008 C1954 0.930 . S
H2009 C1957 0.929 1_556 S
H2010 C1962 0.929 . S
H2011 C1963 0.930 . S
H2012 C1970 0.929 . S
H2013 C1971 0.930 1_554 S
H2014 C1972 0.930 . S
H2015 C1973 0.930 . S
H2016 C1975 0.929 . S
H2017 C1976 0.930 . S
H2018 C1977 0.930 . S
H2019 C1978 0.930 . S
H2020 C1982 0.929 . S
H2021 C1984 0.930 . S
H2022 C1990 0.929 . S
H2023 C1991 0.930 . S
Li2024 N2041 1.990 . S
Li2024 O2084 1.956 . S
Li2024 O2085 1.970 . S
Li2024 O2086 1.961 . S
Li2025 N2049 1.990 . S
Li2025 O2084 1.970 . S
Li2025 O2085 1.956 . S
Li2025 O2087 1.961 . S
Li2026 N2071 1.990 . S
Li2026 O2084 1.961 . S
Li2026 O2086 1.956 . S
Li2026 O2087 1.970 . S
Li2027 N2077 1.990 . S
Li2027 O2085 1.961 . S
Li2027 O2086 1.970 . S
Li2027 O2087 1.956 . S
C2028 C2030 1.348 . S
C2028 C2031 1.356 . S
C2028 O2084 1.325 . S
N2029 C2032 1.314 . S
N2029 C2033 1.279 . S
C2030 C2028 1.348 . S
C2030 C2032 1.353 . S
C2030 H2088 0.929 . S
C2031 C2028 1.356 . S
C2031 C2033 1.358 . S
C2031 H2089 0.930 . S
C2032 N2029 1.314 . S
C2032 C2030 1.353 . S
C2032 H2090 0.930 . S
C2033 N2029 1.279 . S
C2033 C2031 1.358 . S
C2033 H2091 0.930 . S
C2034 C2037 1.348 . S
C2034 C2038 1.356 . S
C2034 O2085 1.325 . S
C2035 N2036 1.279 . S
C2035 C2038 1.358 . S
C2035 H2092 0.930 . S
N2036 C2035 1.279 . S
N2036 C2039 1.314 . S
C2037 C2034 1.348 . S
C2037 C2039 1.353 . S
C2037 H2093 0.929 . S
C2038 C2034 1.356 . S
C2038 C2035 1.358 . S
C2038 H2094 0.930 . S
C2039 N2036 1.314 . S
C2039 C2037 1.353 . S
C2039 H2095 0.930 . S
C2040 N2041 1.314 . S
C2040 C2045 1.353 . S
C2040 H2046 0.930 . S
N2041 Li2024 1.990 . S
N2041 C2040 1.314 . S
N2041 C2043 1.279 . S
C2042 C2043 1.358 . S
C2042 C2044 1.356 . S
C2042 H2096 0.930 . S
C2043 N2041 1.279 . S
C2043 C2042 1.358 . S
C2043 H2047 0.930 . S
C2044 C2042 1.356 . S
C2044 C2045 1.348 . S
C2045 C2040 1.353 . S
C2045 C2044 1.348 . S
C2045 H2097 0.929 . S
H2046 C2040 0.930 . S
H2047 C2043 0.930 . S
C2048 N2049 1.314 . S
C2048 C2050 1.353 . S
C2048 H2054 0.930 . S
N2049 Li2025 1.990 . S
N2049 C2048 1.314 . S
N2049 C2052 1.279 . S
C2050 C2048 1.353 . S
C2050 C2053 1.348 . S
C2050 H2098 0.929 . S
C2051 C2052 1.358 . S
C2051 C2053 1.356 . S
C2051 H2099 0.930 . S
C2052 N2049 1.279 . S
C2052 C2051 1.358 . S
C2052 H2055 0.930 . S
C2053 C2050 1.348 . S
C2053 C2051 1.356 . S
H2054 C2048 0.930 . S
H2055 C2052 0.930 . S
C2056 C2058 1.348 . S
C2056 C2059 1.356 . S
C2056 O2086 1.325 . S
N2057 C2060 1.314 . S
N2057 C2061 1.279 . S
C2058 C2056 1.348 . S
C2058 C2060 1.353 . S
C2058 H2100 0.929 . S
C2059 C2056 1.356 . S
C2059 C2061 1.358 . S
C2059 H2101 0.930 . S
C2060 N2057 1.314 . S
C2060 C2058 1.353 . S
C2060 H2102 0.930 . S
C2061 N2057 1.279 . S
C2061 C2059 1.358 . S
C2061 H2103 0.930 . S
C2062 C2063 1.348 . S
C2062 C2064 1.356 . S
C2062 O2087 1.325 . S
C2063 C2062 1.348 . S
C2063 C2065 1.353 . S
C2063 H2104 0.929 . S
C2064 C2062 1.356 . S
C2064 C2066 1.358 . S
C2064 H2105 0.930 . S
C2065 C2063 1.353 . S
C2065 N2067 1.314 . S
C2065 H2106 0.930 . S
C2066 C2064 1.358 . S
C2066 N2067 1.279 . S
C2066 H2107 0.930 . S
N2067 C2065 1.314 . S
N2067 C2066 1.279 . S
C2068 C2070 1.353 . S
C2068 N2071 1.314 . S
C2068 H2074 0.930 . S
C2069 N2071 1.279 . S
C2069 C2072 1.358 . S
C2069 H2075 0.930 . S
C2070 C2068 1.353 . S
C2070 C2073 1.348 . S
C2070 H2108 0.929 . S
N2071 Li2026 1.990 . S
N2071 C2068 1.314 . S
N2071 C2069 1.279 . S
C2072 C2069 1.358 . S
C2072 C2073 1.356 . S
C2072 H2109 0.930 . S
C2073 C2070 1.348 . S
C2073 C2072 1.356 . S
H2074 C2068 0.930 . S
H2075 C2069 0.930 . S
C2076 N2077 1.314 . S
C2076 C2078 1.353 . S
C2076 H2082 0.930 . S
N2077 Li2027 1.990 . S
N2077 C2076 1.314 . S
N2077 C2080 1.279 . S
C2078 C2076 1.353 . S
C2078 C2081 1.348 . S
C2078 H2110 0.929 . S
C2079 C2080 1.358 . S
C2079 C2081 1.356 . S
C2079 H2111 0.930 . S
C2080 N2077 1.279 . S
C2080 C2079 1.358 . S
C2080 H2083 0.930 . S
C2081 C2078 1.348 . S
C2081 C2079 1.356 . S
H2082 C2076 0.930 . S
H2083 C2080 0.930 . S
O2084 Li2024 1.956 . S
O2084 Li2025 1.970 . S
O2084 Li2026 1.961 . S
O2084 C2028 1.325 . S
O2085 Li2024 1.970 . S
O2085 Li2025 1.956 . S
O2085 Li2027 1.961 . S
O2085 C2034 1.325 . S
O2086 Li2024 1.961 . S
O2086 Li2026 1.956 . S
O2086 Li2027 1.970 . S
O2086 C2056 1.325 . S
O2087 Li2025 1.961 . S
O2087 Li2026 1.970 . S
O2087 Li2027 1.956 . S
O2087 C2062 1.325 . S
H2088 C2030 0.929 . S
H2089 C2031 0.930 . S
H2090 C2032 0.930 . S
H2091 C2033 0.930 . S
H2092 C2035 0.930 . S
H2093 C2037 0.929 . S
H2094 C2038 0.930 . S
H2095 C2039 0.930 . S
H2096 C2042 0.930 . S
H2097 C2045 0.929 . S
H2098 C2050 0.929 . S
H2099 C2051 0.930 . S
H2100 C2058 0.929 . S
H2101 C2059 0.930 . S
H2102 C2060 0.930 . S
H2103 C2061 0.930 . S
H2104 C2063 0.929 . S
H2105 C2064 0.930 . S
H2106 C2065 0.930 . S
H2107 C2066 0.930 . S
H2108 C2070 0.929 . S
H2109 C2072 0.930 . S
H2110 C2078 0.929 . S
H2111 C2079 0.930 . S
Li2112 N2129 1.990 . S
Li2112 O2172 1.956 . S
Li2112 O2173 1.970 . S
Li2112 O2174 1.961 . S
Li2113 N2137 1.990 . S
Li2113 O2172 1.970 . S
Li2113 O2173 1.956 . S
Li2113 O2175 1.961 . S
Li2114 N2159 1.990 . S
Li2114 O2172 1.961 . S
Li2114 O2174 1.956 . S
Li2114 O2175 1.970 . S
Li2115 N2165 1.990 . S
Li2115 O2173 1.961 . S
Li2115 O2174 1.970 . S
Li2115 O2175 1.956 . S
C2116 C2118 1.348 . S
C2116 C2119 1.356 . S
C2116 O2172 1.325 . S
N2117 C2120 1.314 . S
N2117 C2121 1.279 . S
C2118 C2116 1.348 . S
C2118 C2120 1.353 . S
C2118 H2176 0.929 . S
C2119 C2116 1.356 . S
C2119 C2121 1.358 . S
C2119 H2177 0.930 . S
C2120 N2117 1.314 . S
C2120 C2118 1.353 . S
C2120 H2178 0.930 . S
C2121 N2117 1.279 . S
C2121 C2119 1.358 . S
C2121 H2179 0.930 . S
C2122 C2125 1.348 . S
C2122 C2126 1.356 . S
C2122 O2173 1.325 . S
C2123 N2124 1.279 . S
C2123 C2126 1.358 . S
C2123 H2180 0.930 . S
N2124 C2123 1.279 . S
N2124 C2127 1.314 . S
C2125 C2122 1.348 . S
C2125 C2127 1.353 . S
C2125 H2181 0.929 . S
C2126 C2122 1.356 . S
C2126 C2123 1.358 . S
C2126 H2182 0.930 . S
C2127 N2124 1.314 . S
C2127 C2125 1.353 . S
C2127 H2183 0.930 . S
C2128 N2129 1.314 . S
C2128 C2133 1.353 . S
C2128 H2134 0.930 . S
N2129 Li2112 1.990 . S
N2129 C2128 1.314 . S
N2129 C2131 1.279 . S
C2130 C2131 1.358 . S
C2130 C2132 1.356 . S
C2130 H2184 0.930 . S
C2131 N2129 1.279 . S
C2131 C2130 1.358 . S
C2131 H2135 0.930 . S
C2132 C2130 1.356 . S
C2132 C2133 1.348 . S
C2133 C2128 1.353 . S
C2133 C2132 1.348 . S
C2133 H2185 0.929 . S
H2134 C2128 0.930 . S
H2135 C2131 0.930 . S
C2136 N2137 1.314 . S
C2136 C2138 1.353 . S
C2136 H2142 0.930 . S
N2137 Li2113 1.990 . S
N2137 C2136 1.314 . S
N2137 C2140 1.279 . S
C2138 C2136 1.353 . S
C2138 C2141 1.348 . S
C2138 H2186 0.929 . S
C2139 C2140 1.358 . S
C2139 C2141 1.356 . S
C2139 H2187 0.930 . S
C2140 N2137 1.279 . S
C2140 C2139 1.358 . S
C2140 H2143 0.930 . S
C2141 C2138 1.348 . S
C2141 C2139 1.356 . S
H2142 C2136 0.930 . S
H2143 C2140 0.930 . S
C2144 C2146 1.348 . S
C2144 C2147 1.356 . S
C2144 O2174 1.325 . S
N2145 C2148 1.314 . S
N2145 C2149 1.279 . S
C2146 C2144 1.348 . S
C2146 C2148 1.353 . S
C2146 H2188 0.929 . S
C2147 C2144 1.356 . S
C2147 C2149 1.358 . S
C2147 H2189 0.930 . S
C2148 N2145 1.314 . S
C2148 C2146 1.353 . S
C2148 H2190 0.930 . S
C2149 N2145 1.279 . S
C2149 C2147 1.358 . S
C2149 H2191 0.930 . S
C2150 C2151 1.348 . S
C2150 C2152 1.356 . S
C2150 O2175 1.325 . S
C2151 C2150 1.348 . S
C2151 C2153 1.353 . S
C2151 H2192 0.929 . S
C2152 C2150 1.356 . S
C2152 C2154 1.358 . S
C2152 H2193 0.930 . S
C2153 C2151 1.353 . S
C2153 N2155 1.314 . S
C2153 H2194 0.930 . S
C2154 C2152 1.358 . S
C2154 N2155 1.279 . S
C2154 H2195 0.930 . S
N2155 C2153 1.314 . S
N2155 C2154 1.279 . S
C2156 C2158 1.353 . S
C2156 N2159 1.314 . S
C2156 H2162 0.930 . S
C2157 N2159 1.279 . S
C2157 C2160 1.358 . S
C2157 H2163 0.930 . S
C2158 C2156 1.353 . S
C2158 C2161 1.348 . S
C2158 H2196 0.929 . S
N2159 Li2114 1.990 . S
N2159 C2156 1.314 . S
N2159 C2157 1.279 . S
C2160 C2157 1.358 . S
C2160 C2161 1.356 . S
C2160 H2197 0.930 . S
C2161 C2158 1.348 . S
C2161 C2160 1.356 . S
H2162 C2156 0.930 . S
H2163 C2157 0.930 . S
C2164 N2165 1.314 . S
C2164 C2166 1.353 . S
C2164 H2170 0.930 . S
N2165 Li2115 1.990 . S
N2165 C2164 1.314 . S
N2165 C2168 1.279 . S
C2166 C2164 1.353 . S
C2166 C2169 1.348 . S
C2166 H2198 0.929 . S
C2167 C2168 1.358 . S
C2167 C2169 1.356 . S
C2167 H2199 0.930 . S
C2168 N2165 1.279 . S
C2168 C2167 1.358 . S
C2168 H2171 0.930 . S
C2169 C2166 1.348 . S
C2169 C2167 1.356 . S
H2170 C2164 0.930 . S
H2171 C2168 0.930 . S
O2172 Li2112 1.956 . S
O2172 Li2113 1.970 . S
O2172 Li2114 1.961 . S
O2172 C2116 1.325 . S
O2173 Li2112 1.970 . S
O2173 Li2113 1.956 . S
O2173 Li2115 1.961 . S
O2173 C2122 1.325 . S
O2174 Li2112 1.961 . S
O2174 Li2114 1.956 . S
O2174 Li2115 1.970 . S
O2174 C2144 1.325 . S
O2175 Li2113 1.961 . S
O2175 Li2114 1.970 . S
O2175 Li2115 1.956 . S
O2175 C2150 1.325 . S
H2176 C2118 0.929 . S
H2177 C2119 0.930 . S
H2178 C2120 0.930 . S
H2179 C2121 0.930 . S
H2180 C2123 0.930 . S
H2181 C2125 0.929 . S
H2182 C2126 0.930 . S
H2183 C2127 0.930 . S
H2184 C2130 0.930 . S
H2185 C2133 0.929 . S
H2186 C2138 0.929 . S
H2187 C2139 0.930 . S
H2188 C2146 0.929 . S
H2189 C2147 0.930 . S
H2190 C2148 0.930 . S
H2191 C2149 0.930 . S
H2192 C2151 0.929 . S
H2193 C2152 0.930 . S
H2194 C2153 0.930 . S
H2195 C2154 0.930 . S
H2196 C2158 0.929 . S
H2197 C2160 0.930 . S
H2198 C2166 0.929 . S
H2199 C2167 0.930 . S
Li2200 N2217 1.990 . S
Li2200 O2260 1.956 . S
Li2200 O2261 1.970 . S
Li2200 O2262 1.961 . S
Li2201 N2225 1.990 . S
Li2201 O2260 1.970 . S
Li2201 O2261 1.956 . S
Li2201 O2263 1.961 . S
Li2202 N2247 1.990 . S
Li2202 O2260 1.961 . S
Li2202 O2262 1.956 . S
Li2202 O2263 1.970 . S
Li2203 N2253 1.990 . S
Li2203 O2261 1.961 . S
Li2203 O2262 1.970 . S
Li2203 O2263 1.956 . S
C2204 C2206 1.348 . S
C2204 C2207 1.356 . S
C2204 O2260 1.325 . S
N2205 C2208 1.314 . S
N2205 C2209 1.279 . S
C2206 C2204 1.348 . S
C2206 C2208 1.353 . S
C2206 H2264 0.929 . S
C2207 C2204 1.356 . S
C2207 C2209 1.358 . S
C2207 H2265 0.930 . S
C2208 N2205 1.314 . S
C2208 C2206 1.353 . S
C2208 H2266 0.930 . S
C2209 N2205 1.279 . S
C2209 C2207 1.358 . S
C2209 H2267 0.930 . S
C2210 C2213 1.348 . S
C2210 C2214 1.356 . S
C2210 O2261 1.325 . S
C2211 N2212 1.279 . S
C2211 C2214 1.358 . S
C2211 H2268 0.930 . S
N2212 C2211 1.279 . S
N2212 C2215 1.314 . S
C2213 C2210 1.348 . S
C2213 C2215 1.353 . S
C2213 H2269 0.929 . S
C2214 C2210 1.356 . S
C2214 C2211 1.358 . S
C2214 H2270 0.930 . S
C2215 N2212 1.314 . S
C2215 C2213 1.353 . S
C2215 H2271 0.930 . S
C2216 N2217 1.314 . S
C2216 C2221 1.353 . S
C2216 H2222 0.930 . S
N2217 Li2200 1.990 . S
N2217 C2216 1.314 . S
N2217 C2219 1.279 . S
C2218 C2219 1.358 . S
C2218 C2220 1.356 . S
C2218 H2272 0.930 . S
C2219 N2217 1.279 . S
C2219 C2218 1.358 . S
C2219 H2223 0.930 . S
C2220 C2218 1.356 . S
C2220 C2221 1.348 . S
C2221 C2216 1.353 . S
C2221 C2220 1.348 . S
C2221 H2273 0.929 . S
H2222 C2216 0.930 . S
H2223 C2219 0.930 . S
C2224 N2225 1.314 . S
C2224 C2226 1.353 . S
C2224 H2230 0.930 . S
N2225 Li2201 1.990 . S
N2225 C2224 1.314 . S
N2225 C2228 1.279 . S
C2226 C2224 1.353 . S
C2226 C2229 1.348 . S
C2226 H2274 0.929 . S
C2227 C2228 1.358 . S
C2227 C2229 1.356 . S
C2227 H2275 0.930 . S
C2228 N2225 1.279 . S
C2228 C2227 1.358 . S
C2228 H2231 0.930 . S
C2229 C2226 1.348 . S
C2229 C2227 1.356 . S
H2230 C2224 0.930 . S
H2231 C2228 0.930 . S
C2232 C2234 1.348 . S
C2232 C2235 1.356 . S
C2232 O2262 1.325 . S
N2233 C2236 1.314 . S
N2233 C2237 1.279 . S
C2234 C2232 1.348 . S
C2234 C2236 1.353 . S
C2234 H2276 0.929 . S
C2235 C2232 1.356 . S
C2235 C2237 1.358 . S
C2235 H2277 0.930 . S
C2236 N2233 1.314 . S
C2236 C2234 1.353 . S
C2236 H2278 0.930 . S
C2237 N2233 1.279 . S
C2237 C2235 1.358 . S
C2237 H2279 0.930 . S
C2238 C2239 1.348 . S
C2238 C2240 1.356 . S
C2238 O2263 1.325 . S
C2239 C2238 1.348 . S
C2239 C2241 1.353 . S
C2239 H2280 0.929 . S
C2240 C2238 1.356 . S
C2240 C2242 1.358 . S
C2240 H2281 0.930 . S
C2241 C2239 1.353 . S
C2241 N2243 1.314 . S
C2241 H2282 0.930 . S
C2242 C2240 1.358 . S
C2242 N2243 1.279 . S
C2242 H2283 0.930 . S
N2243 C2241 1.314 . S
N2243 C2242 1.279 . S
C2244 C2246 1.353 . S
C2244 N2247 1.314 . S
C2244 H2250 0.930 . S
C2245 N2247 1.279 . S
C2245 C2248 1.358 . S
C2245 H2251 0.930 . S
C2246 C2244 1.353 . S
C2246 C2249 1.348 . S
C2246 H2284 0.929 . S
N2247 Li2202 1.990 . S
N2247 C2244 1.314 . S
N2247 C2245 1.279 . S
C2248 C2245 1.358 . S
C2248 C2249 1.356 . S
C2248 H2285 0.930 . S
C2249 C2246 1.348 . S
C2249 C2248 1.356 . S
H2250 C2244 0.930 . S
H2251 C2245 0.930 . S
C2252 N2253 1.314 . S
C2252 C2254 1.353 . S
C2252 H2258 0.930 . S
N2253 Li2203 1.990 . S
N2253 C2252 1.314 . S
N2253 C2256 1.279 . S
C2254 C2252 1.353 . S
C2254 C2257 1.348 . S
C2254 H2286 0.929 . S
C2255 C2256 1.358 . S
C2255 C2257 1.356 . S
C2255 H2287 0.930 . S
C2256 N2253 1.279 . S
C2256 C2255 1.358 . S
C2256 H2259 0.930 . S
C2257 C2254 1.348 . S
C2257 C2255 1.356 . S
H2258 C2252 0.930 . S
H2259 C2256 0.930 . S
O2260 Li2200 1.956 . S
O2260 Li2201 1.970 . S
O2260 Li2202 1.961 . S
O2260 C2204 1.325 . S
O2261 Li2200 1.970 . S
O2261 Li2201 1.956 . S
O2261 Li2203 1.961 . S
O2261 C2210 1.325 . S
O2262 Li2200 1.961 . S
O2262 Li2202 1.956 . S
O2262 Li2203 1.970 . S
O2262 C2232 1.325 . S
O2263 Li2201 1.961 . S
O2263 Li2202 1.970 . S
O2263 Li2203 1.956 . S
O2263 C2238 1.325 . S
H2264 C2206 0.929 . S
H2265 C2207 0.930 . S
H2266 C2208 0.930 . S
H2267 C2209 0.930 . S
H2268 C2211 0.930 . S
H2269 C2213 0.929 . S
H2270 C2214 0.930 . S
H2271 C2215 0.930 . S
H2272 C2218 0.930 . S
H2273 C2221 0.929 . S
H2274 C2226 0.929 . S
H2275 C2227 0.930 . S
H2276 C2234 0.929 . S
H2277 C2235 0.930 . S
H2278 C2236 0.930 . S
H2279 C2237 0.930 . S
H2280 C2239 0.929 . S
H2281 C2240 0.930 . S
H2282 C2241 0.930 . S
H2283 C2242 0.930 . S
H2284 C2246 0.929 . S
H2285 C2248 0.930 . S
H2286 C2254 0.929 . S
H2287 C2255 0.930 . S
Li2288 N2305 1.990 . S
Li2288 O2348 1.956 . S
Li2288 O2349 1.970 . S
Li2288 O2350 1.961 . S
Li2289 N2313 1.990 . S
Li2289 O2348 1.970 . S
Li2289 O2349 1.956 . S
Li2289 O2351 1.961 . S
Li2290 N2335 1.990 1_554 S
Li2290 O2348 1.961 . S
Li2290 O2350 1.956 . S
Li2290 O2351 1.970 . S
Li2291 N2341 1.990 . S
Li2291 O2349 1.961 . S
Li2291 O2350 1.970 . S
Li2291 O2351 1.956 . S
C2292 C2294 1.348 . S
C2292 C2295 1.356 . S
C2292 O2348 1.325 . S
N2293 C2296 1.314 . S
N2293 C2297 1.279 . S
C2294 C2292 1.348 . S
C2294 C2296 1.353 . S
C2294 H2352 0.929 . S
C2295 C2292 1.356 . S
C2295 C2297 1.358 . S
C2295 H2353 0.930 . S
C2296 N2293 1.314 . S
C2296 C2294 1.353 . S
C2296 H2354 0.930 . S
C2297 N2293 1.279 . S
C2297 C2295 1.358 . S
C2297 H2355 0.930 . S
C2298 C2301 1.348 . S
C2298 C2302 1.356 . S
C2298 O2349 1.325 . S
C2299 N2300 1.279 . S
C2299 C2302 1.358 . S
C2299 H2356 0.930 . S
N2300 C2299 1.279 . S
N2300 C2303 1.314 . S
C2301 C2298 1.348 . S
C2301 C2303 1.353 . S
C2301 H2357 0.929 . S
C2302 C2298 1.356 . S
C2302 C2299 1.358 . S
C2302 H2358 0.930 . S
C2303 N2300 1.314 . S
C2303 C2301 1.353 . S
C2303 H2359 0.930 . S
C2304 N2305 1.314 . S
C2304 C2309 1.353 . S
C2304 H2310 0.930 . S
N2305 Li2288 1.990 . S
N2305 C2304 1.314 . S
N2305 C2307 1.279 . S
C2306 C2307 1.358 . S
C2306 C2308 1.356 . S
C2306 H2360 0.930 . S
C2307 N2305 1.279 . S
C2307 C2306 1.358 . S
C2307 H2311 0.930 . S
C2308 C2306 1.356 . S
C2308 C2309 1.348 . S
C2309 C2304 1.353 . S
C2309 C2308 1.348 . S
C2309 H2361 0.929 . S
H2310 C2304 0.930 . S
H2311 C2307 0.930 . S
C2312 N2313 1.314 . S
C2312 C2314 1.353 . S
C2312 H2318 0.930 . S
N2313 Li2289 1.990 . S
N2313 C2312 1.314 . S
N2313 C2316 1.279 . S
C2314 C2312 1.353 . S
C2314 C2317 1.348 . S
C2314 H2362 0.929 . S
C2315 C2316 1.358 . S
C2315 C2317 1.356 . S
C2315 H2363 0.930 . S
C2316 N2313 1.279 . S
C2316 C2315 1.358 . S
C2316 H2319 0.930 . S
C2317 C2314 1.348 . S
C2317 C2315 1.356 . S
H2318 C2312 0.930 . S
H2319 C2316 0.930 . S
C2320 C2322 1.348 . S
C2320 C2323 1.356 . S
C2320 O2350 1.325 . S
N2321 C2324 1.314 . S
N2321 C2325 1.279 . S
C2322 C2320 1.348 . S
C2322 C2324 1.353 . S
C2322 H2364 0.929 . S
C2323 C2320 1.356 . S
C2323 C2325 1.358 . S
C2323 H2365 0.930 . S
C2324 N2321 1.314 . S
C2324 C2322 1.353 . S
C2324 H2366 0.930 . S
C2325 N2321 1.279 . S
C2325 C2323 1.358 . S
C2325 H2367 0.930 . S
C2326 C2327 1.348 . S
C2326 C2328 1.356 . S
C2326 O2351 1.325 1_556 S
C2327 C2326 1.348 . S
C2327 C2329 1.353 . S
C2327 H2368 0.929 . S
C2328 C2326 1.356 . S
C2328 C2330 1.358 . S
C2328 H2369 0.930 1_556 S
C2329 C2327 1.353 . S
C2329 N2331 1.314 . S
C2329 H2370 0.930 . S
C2330 C2328 1.358 . S
C2330 N2331 1.279 . S
C2330 H2371 0.930 . S
N2331 C2329 1.314 . S
N2331 C2330 1.279 . S
C2332 C2334 1.353 . S
C2332 N2335 1.314 . S
C2332 H2338 0.930 . S
C2333 N2335 1.279 . S
C2333 C2336 1.358 . S
C2333 H2339 0.930 . S
C2334 C2332 1.353 . S
C2334 C2337 1.348 . S
C2334 H2372 0.929 . S
N2335 Li2290 1.990 1_556 S
N2335 C2332 1.314 . S
N2335 C2333 1.279 . S
C2336 C2333 1.358 . S
C2336 C2337 1.356 . S
C2336 H2373 0.930 . S
C2337 C2334 1.348 . S
C2337 C2336 1.356 . S
H2338 C2332 0.930 . S
H2339 C2333 0.930 . S
C2340 N2341 1.314 . S
C2340 C2342 1.353 . S
C2340 H2346 0.930 . S
N2341 Li2291 1.990 . S
N2341 C2340 1.314 . S
N2341 C2344 1.279 . S
C2342 C2340 1.353 . S
C2342 C2345 1.348 . S
C2342 H2374 0.929 . S
C2343 C2344 1.358 . S
C2343 C2345 1.356 . S
C2343 H2375 0.930 . S
C2344 N2341 1.279 . S
C2344 C2343 1.358 . S
C2344 H2347 0.930 . S
C2345 C2342 1.348 . S
C2345 C2343 1.356 . S
H2346 C2340 0.930 . S
H2347 C2344 0.930 . S
O2348 Li2288 1.956 . S
O2348 Li2289 1.970 . S
O2348 Li2290 1.961 . S
O2348 C2292 1.325 . S
O2349 Li2288 1.970 . S
O2349 Li2289 1.956 . S
O2349 Li2291 1.961 . S
O2349 C2298 1.325 . S
O2350 Li2288 1.961 . S
O2350 Li2290 1.956 . S
O2350 Li2291 1.970 . S
O2350 C2320 1.325 . S
O2351 Li2289 1.961 . S
O2351 Li2290 1.970 . S
O2351 Li2291 1.956 . S
O2351 C2326 1.325 1_554 S
H2352 C2294 0.929 . S
H2353 C2295 0.930 . S
H2354 C2296 0.930 . S
H2355 C2297 0.930 . S
H2356 C2299 0.930 . S
H2357 C2301 0.929 . S
H2358 C2302 0.930 . S
H2359 C2303 0.930 . S
H2360 C2306 0.930 . S
H2361 C2309 0.929 . S
H2362 C2314 0.929 . S
H2363 C2315 0.930 . S
H2364 C2322 0.929 . S
H2365 C2323 0.930 . S
H2366 C2324 0.930 . S
H2367 C2325 0.930 . S
H2368 C2327 0.929 . S
H2369 C2328 0.930 1_554 S
H2370 C2329 0.930 . S
H2371 C2330 0.930 . S
H2372 C2334 0.929 . S
H2373 C2336 0.930 . S
H2374 C2342 0.929 . S
H2375 C2343 0.930 . S
Li2376 N2393 1.990 . S
Li2376 O2436 1.956 . S
Li2376 O2437 1.970 . S
Li2376 O2438 1.961 . S
Li2377 N2401 1.990 . S
Li2377 O2436 1.970 . S
Li2377 O2437 1.956 . S
Li2377 O2439 1.961 . S
Li2378 N2423 1.990 . S
Li2378 O2436 1.961 . S
Li2378 O2438 1.956 . S
Li2378 O2439 1.970 . S
Li2379 N2429 1.990 . S
Li2379 O2437 1.961 . S
Li2379 O2438 1.970 . S
Li2379 O2439 1.956 . S
C2380 C2382 1.348 . S
C2380 C2383 1.356 . S
C2380 O2436 1.325 . S
N2381 C2384 1.314 . S
N2381 C2385 1.279 . S
C2382 C2380 1.348 . S
C2382 C2384 1.353 . S
C2382 H2440 0.929 . S
C2383 C2380 1.356 . S
C2383 C2385 1.358 . S
C2383 H2441 0.930 . S
C2384 N2381 1.314 . S
C2384 C2382 1.353 . S
C2384 H2442 0.930 . S
C2385 N2381 1.279 . S
C2385 C2383 1.358 . S
C2385 H2443 0.930 . S
C2386 C2389 1.348 . S
C2386 C2390 1.356 . S
C2386 O2437 1.325 . S
C2387 N2388 1.279 . S
C2387 C2390 1.358 . S
C2387 H2444 0.930 . S
N2388 C2387 1.279 . S
N2388 C2391 1.314 . S
C2389 C2386 1.348 . S
C2389 C2391 1.353 . S
C2389 H2445 0.929 . S
C2390 C2386 1.356 . S
C2390 C2387 1.358 . S
C2390 H2446 0.930 . S
C2391 N2388 1.314 . S
C2391 C2389 1.353 . S
C2391 H2447 0.930 . S
C2392 N2393 1.314 . S
C2392 C2397 1.353 . S
C2392 H2398 0.930 . S
N2393 Li2376 1.990 . S
N2393 C2392 1.314 . S
N2393 C2395 1.279 . S
C2394 C2395 1.358 . S
C2394 C2396 1.356 . S
C2394 H2448 0.930 . S
C2395 N2393 1.279 . S
C2395 C2394 1.358 . S
C2395 H2399 0.930 . S
C2396 C2394 1.356 . S
C2396 C2397 1.348 . S
C2397 C2392 1.353 . S
C2397 C2396 1.348 . S
C2397 H2449 0.929 . S
H2398 C2392 0.930 . S
H2399 C2395 0.930 . S
C2400 N2401 1.314 . S
C2400 C2402 1.353 . S
C2400 H2406 0.930 . S
N2401 Li2377 1.990 . S
N2401 C2400 1.314 . S
N2401 C2404 1.279 . S
C2402 C2400 1.353 . S
C2402 C2405 1.348 . S
C2402 H2450 0.929 . S
C2403 C2404 1.358 . S
C2403 C2405 1.356 . S
C2403 H2451 0.930 . S
C2404 N2401 1.279 . S
C2404 C2403 1.358 . S
C2404 H2407 0.930 . S
C2405 C2402 1.348 . S
C2405 C2403 1.356 . S
H2406 C2400 0.930 . S
H2407 C2404 0.930 . S
C2408 C2410 1.348 . S
C2408 C2411 1.356 . S
C2408 O2438 1.325 . S
N2409 C2412 1.314 . S
N2409 C2413 1.279 . S
C2410 C2408 1.348 . S
C2410 C2412 1.353 . S
C2410 H2452 0.929 . S
C2411 C2408 1.356 . S
C2411 C2413 1.358 . S
C2411 H2453 0.930 . S
C2412 N2409 1.314 . S
C2412 C2410 1.353 . S
C2412 H2454 0.930 . S
C2413 N2409 1.279 . S
C2413 C2411 1.358 . S
C2413 H2455 0.930 . S
C2414 C2415 1.348 . S
C2414 C2416 1.356 . S
C2414 O2439 1.325 . S
C2415 C2414 1.348 . S
C2415 C2417 1.353 . S
C2415 H2456 0.929 . S
C2416 C2414 1.356 . S
C2416 C2418 1.358 . S
C2416 H2457 0.930 . S
C2417 C2415 1.353 . S
C2417 N2419 1.314 . S
C2417 H2458 0.930 . S
C2418 C2416 1.358 . S
C2418 N2419 1.279 . S
C2418 H2459 0.930 . S
N2419 C2417 1.314 . S
N2419 C2418 1.279 . S
C2420 C2422 1.353 . S
C2420 N2423 1.314 . S
C2420 H2426 0.930 . S
C2421 N2423 1.279 . S
C2421 C2424 1.358 . S
C2421 H2427 0.930 . S
C2422 C2420 1.353 . S
C2422 C2425 1.348 . S
C2422 H2460 0.929 . S
N2423 Li2378 1.990 . S
N2423 C2420 1.314 . S
N2423 C2421 1.279 . S
C2424 C2421 1.358 . S
C2424 C2425 1.356 . S
C2424 H2461 0.930 . S
C2425 C2422 1.348 . S
C2425 C2424 1.356 . S
H2426 C2420 0.930 . S
H2427 C2421 0.930 . S
C2428 N2429 1.314 . S
C2428 C2430 1.353 . S
C2428 H2434 0.930 . S
N2429 Li2379 1.990 . S
N2429 C2428 1.314 . S
N2429 C2432 1.279 . S
C2430 C2428 1.353 . S
C2430 C2433 1.348 . S
C2430 H2462 0.929 . S
C2431 C2432 1.358 . S
C2431 C2433 1.356 . S
C2431 H2463 0.930 . S
C2432 N2429 1.279 . S
C2432 C2431 1.358 . S
C2432 H2435 0.930 . S
C2433 C2430 1.348 . S
C2433 C2431 1.356 . S
H2434 C2428 0.930 . S
H2435 C2432 0.930 . S
O2436 Li2376 1.956 . S
O2436 Li2377 1.970 . S
O2436 Li2378 1.961 . S
O2436 C2380 1.325 . S
O2437 Li2376 1.970 . S
O2437 Li2377 1.956 . S
O2437 Li2379 1.961 . S
O2437 C2386 1.325 . S
O2438 Li2376 1.961 . S
O2438 Li2378 1.956 . S
O2438 Li2379 1.970 . S
O2438 C2408 1.325 . S
O2439 Li2377 1.961 . S
O2439 Li2378 1.970 . S
O2439 Li2379 1.956 . S
O2439 C2414 1.325 . S
H2440 C2382 0.929 . S
H2441 C2383 0.930 . S
H2442 C2384 0.930 . S
H2443 C2385 0.930 . S
H2444 C2387 0.930 . S
H2445 C2389 0.929 . S
H2446 C2390 0.930 . S
H2447 C2391 0.930 . S
H2448 C2394 0.930 . S
H2449 C2397 0.929 . S
H2450 C2402 0.929 . S
H2451 C2403 0.930 . S
H2452 C2410 0.929 . S
H2453 C2411 0.930 . S
H2454 C2412 0.930 . S
H2455 C2413 0.930 . S
H2456 C2415 0.929 . S
H2457 C2416 0.930 . S
H2458 C2417 0.930 . S
H2459 C2418 0.930 . S
H2460 C2422 0.929 . S
H2461 C2424 0.930 . S
H2462 C2430 0.929 . S
H2463 C2431 0.930 . S
Li2464 N2481 1.990 . S
Li2464 O2524 1.956 . S
Li2464 O2525 1.970 . S
Li2464 O2526 1.961 . S
Li2465 N2489 1.990 . S
Li2465 O2524 1.970 . S
Li2465 O2525 1.956 . S
Li2465 O2527 1.961 . S
Li2466 N2511 1.990 . S
Li2466 O2524 1.961 . S
Li2466 O2526 1.956 . S
Li2466 O2527 1.970 . S
Li2467 N2517 1.990 . S
Li2467 O2525 1.961 . S
Li2467 O2526 1.970 . S
Li2467 O2527 1.956 . S
C2468 C2470 1.348 . S
C2468 C2471 1.356 . S
C2468 O2524 1.325 . S
N2469 C2472 1.314 . S
N2469 C2473 1.279 . S
C2470 C2468 1.348 . S
C2470 C2472 1.353 . S
C2470 H2528 0.929 . S
C2471 C2468 1.356 . S
C2471 C2473 1.358 . S
C2471 H2529 0.930 . S
C2472 N2469 1.314 . S
C2472 C2470 1.353 . S
C2472 H2530 0.930 . S
C2473 N2469 1.279 . S
C2473 C2471 1.358 . S
C2473 H2531 0.930 . S
C2474 C2477 1.348 . S
C2474 C2478 1.356 . S
C2474 O2525 1.325 . S
C2475 N2476 1.279 . S
C2475 C2478 1.358 . S
C2475 H2532 0.930 . S
N2476 C2475 1.279 . S
N2476 C2479 1.314 . S
C2477 C2474 1.348 . S
C2477 C2479 1.353 . S
C2477 H2533 0.929 . S
C2478 C2474 1.356 . S
C2478 C2475 1.358 . S
C2478 H2534 0.930 . S
C2479 N2476 1.314 . S
C2479 C2477 1.353 . S
C2479 H2535 0.930 . S
C2480 N2481 1.314 . S
C2480 C2485 1.353 . S
C2480 H2486 0.930 . S
N2481 Li2464 1.990 . S
N2481 C2480 1.314 . S
N2481 C2483 1.279 . S
C2482 C2483 1.358 . S
C2482 C2484 1.356 . S
C2482 H2536 0.930 . S
C2483 N2481 1.279 . S
C2483 C2482 1.358 . S
C2483 H2487 0.930 . S
C2484 C2482 1.356 . S
C2484 C2485 1.348 . S
C2485 C2480 1.353 . S
C2485 C2484 1.348 . S
C2485 H2537 0.929 . S
H2486 C2480 0.930 . S
H2487 C2483 0.930 . S
C2488 N2489 1.314 . S
C2488 C2490 1.353 . S
C2488 H2494 0.930 . S
N2489 Li2465 1.990 . S
N2489 C2488 1.314 . S
N2489 C2492 1.279 . S
C2490 C2488 1.353 . S
C2490 C2493 1.348 . S
C2490 H2538 0.929 . S
C2491 C2492 1.358 . S
C2491 C2493 1.356 . S
C2491 H2539 0.930 . S
C2492 N2489 1.279 . S
C2492 C2491 1.358 . S
C2492 H2495 0.930 . S
C2493 C2490 1.348 . S
C2493 C2491 1.356 . S
H2494 C2488 0.930 . S
H2495 C2492 0.930 . S
C2496 C2498 1.348 . S
C2496 C2499 1.356 . S
C2496 O2526 1.325 . S
N2497 C2500 1.314 . S
N2497 C2501 1.279 . S
C2498 C2496 1.348 . S
C2498 C2500 1.353 . S
C2498 H2540 0.929 . S
C2499 C2496 1.356 . S
C2499 C2501 1.358 . S
C2499 H2541 0.930 . S
C2500 N2497 1.314 . S
C2500 C2498 1.353 . S
C2500 H2542 0.930 . S
C2501 N2497 1.279 . S
C2501 C2499 1.358 . S
C2501 H2543 0.930 . S
C2502 C2503 1.348 . S
C2502 C2504 1.356 . S
C2502 O2527 1.325 . S
C2503 C2502 1.348 . S
C2503 C2505 1.353 . S
C2503 H2544 0.929 . S
C2504 C2502 1.356 . S
C2504 C2506 1.358 . S
C2504 H2545 0.930 . S
C2505 C2503 1.353 . S
C2505 N2507 1.314 . S
C2505 H2546 0.930 . S
C2506 C2504 1.358 . S
C2506 N2507 1.279 . S
C2506 H2547 0.930 . S
N2507 C2505 1.314 . S
N2507 C2506 1.279 . S
C2508 C2510 1.353 . S
C2508 N2511 1.314 . S
C2508 H2514 0.930 . S
C2509 N2511 1.279 . S
C2509 C2512 1.358 . S
C2509 H2515 0.930 . S
C2510 C2508 1.353 . S
C2510 C2513 1.348 . S
C2510 H2548 0.929 . S
N2511 Li2466 1.990 . S
N2511 C2508 1.314 . S
N2511 C2509 1.279 . S
C2512 C2509 1.358 . S
C2512 C2513 1.356 . S
C2512 H2549 0.930 . S
C2513 C2510 1.348 . S
C2513 C2512 1.356 . S
H2514 C2508 0.930 . S
H2515 C2509 0.930 . S
C2516 N2517 1.314 . S
C2516 C2518 1.353 . S
C2516 H2522 0.930 . S
N2517 Li2467 1.990 . S
N2517 C2516 1.314 . S
N2517 C2520 1.279 . S
C2518 C2516 1.353 . S
C2518 C2521 1.348 . S
C2518 H2550 0.929 . S
C2519 C2520 1.358 . S
C2519 C2521 1.356 . S
C2519 H2551 0.930 . S
C2520 N2517 1.279 . S
C2520 C2519 1.358 . S
C2520 H2523 0.930 . S
C2521 C2518 1.348 . S
C2521 C2519 1.356 . S
H2522 C2516 0.930 . S
H2523 C2520 0.930 . S
O2524 Li2464 1.956 . S
O2524 Li2465 1.970 . S
O2524 Li2466 1.961 . S
O2524 C2468 1.325 . S
O2525 Li2464 1.970 . S
O2525 Li2465 1.956 . S
O2525 Li2467 1.961 . S
O2525 C2474 1.325 . S
O2526 Li2464 1.961 . S
O2526 Li2466 1.956 . S
O2526 Li2467 1.970 . S
O2526 C2496 1.325 . S
O2527 Li2465 1.961 . S
O2527 Li2466 1.970 . S
O2527 Li2467 1.956 . S
O2527 C2502 1.325 . S
H2528 C2470 0.929 . S
H2529 C2471 0.930 . S
H2530 C2472 0.930 . S
H2531 C2473 0.930 . S
H2532 C2475 0.930 . S
H2533 C2477 0.929 . S
H2534 C2478 0.930 . S
H2535 C2479 0.930 . S
H2536 C2482 0.930 . S
H2537 C2485 0.929 . S
H2538 C2490 0.929 . S
H2539 C2491 0.930 . S
H2540 C2498 0.929 . S
H2541 C2499 0.930 . S
H2542 C2500 0.930 . S
H2543 C2501 0.930 . S
H2544 C2503 0.929 . S
H2545 C2504 0.930 . S
H2546 C2505 0.930 . S
H2547 C2506 0.930 . S
H2548 C2510 0.929 . S
H2549 C2512 0.930 . S
H2550 C2518 0.929 . S
H2551 C2519 0.930 . S
Li2552 N2569 1.990 . S
Li2552 O2612 1.956 . S
Li2552 O2613 1.970 . S
Li2552 O2614 1.961 . S
Li2553 N2577 1.990 . S
Li2553 O2612 1.970 . S
Li2553 O2613 1.956 . S
Li2553 O2615 1.961 . S
Li2554 N2599 1.990 . S
Li2554 O2612 1.961 . S
Li2554 O2614 1.956 . S
Li2554 O2615 1.970 . S
Li2555 N2605 1.990 . S
Li2555 O2613 1.961 . S
Li2555 O2614 1.970 . S
Li2555 O2615 1.956 . S
C2556 C2558 1.348 . S
C2556 C2559 1.356 . S
C2556 O2612 1.325 . S
N2557 C2560 1.314 . S
N2557 C2561 1.279 . S
C2558 C2556 1.348 . S
C2558 C2560 1.353 . S
C2558 H2616 0.929 . S
C2559 C2556 1.356 . S
C2559 C2561 1.358 . S
C2559 H2617 0.930 . S
C2560 N2557 1.314 . S
C2560 C2558 1.353 . S
C2560 H2618 0.930 . S
C2561 N2557 1.279 . S
C2561 C2559 1.358 . S
C2561 H2619 0.930 . S
C2562 C2565 1.348 . S
C2562 C2566 1.356 . S
C2562 O2613 1.325 . S
C2563 N2564 1.279 . S
C2563 C2566 1.358 . S
C2563 H2620 0.930 . S
N2564 C2563 1.279 . S
N2564 C2567 1.314 . S
C2565 C2562 1.348 . S
C2565 C2567 1.353 . S
C2565 H2621 0.929 . S
C2566 C2562 1.356 . S
C2566 C2563 1.358 . S
C2566 H2622 0.930 . S
C2567 N2564 1.314 . S
C2567 C2565 1.353 . S
C2567 H2623 0.930 . S
C2568 N2569 1.314 . S
C2568 C2573 1.353 . S
C2568 H2574 0.930 . S
N2569 Li2552 1.990 . S
N2569 C2568 1.314 . S
N2569 C2571 1.279 . S
C2570 C2571 1.358 . S
C2570 C2572 1.356 . S
C2570 H2624 0.930 . S
C2571 N2569 1.279 . S
C2571 C2570 1.358 . S
C2571 H2575 0.930 . S
C2572 C2570 1.356 . S
C2572 C2573 1.348 . S
C2573 C2568 1.353 . S
C2573 C2572 1.348 . S
C2573 H2625 0.929 . S
H2574 C2568 0.930 . S
H2575 C2571 0.930 . S
C2576 N2577 1.314 . S
C2576 C2578 1.353 . S
C2576 H2582 0.930 . S
N2577 Li2553 1.990 . S
N2577 C2576 1.314 . S
N2577 C2580 1.279 . S
C2578 C2576 1.353 . S
C2578 C2581 1.348 . S
C2578 H2626 0.929 . S
C2579 C2580 1.358 . S
C2579 C2581 1.356 . S
C2579 H2627 0.930 . S
C2580 N2577 1.279 . S
C2580 C2579 1.358 . S
C2580 H2583 0.930 . S
C2581 C2578 1.348 . S
C2581 C2579 1.356 . S
H2582 C2576 0.930 . S
H2583 C2580 0.930 . S
C2584 C2586 1.348 . S
C2584 C2587 1.356 . S
C2584 O2614 1.325 . S
N2585 C2588 1.314 . S
N2585 C2589 1.279 . S
C2586 C2584 1.348 . S
C2586 C2588 1.353 . S
C2586 H2628 0.929 . S
C2587 C2584 1.356 . S
C2587 C2589 1.358 . S
C2587 H2629 0.930 . S
C2588 N2585 1.314 . S
C2588 C2586 1.353 . S
C2588 H2630 0.930 . S
C2589 N2585 1.279 . S
C2589 C2587 1.358 . S
C2589 H2631 0.930 . S
C2590 C2591 1.348 . S
C2590 C2592 1.356 . S
C2590 O2615 1.325 . S
C2591 C2590 1.348 . S
C2591 C2593 1.353 . S
C2591 H2632 0.929 . S
C2592 C2590 1.356 . S
C2592 C2594 1.358 . S
C2592 H2633 0.930 . S
C2593 C2591 1.353 . S
C2593 N2595 1.314 . S
C2593 H2634 0.930 . S
C2594 C2592 1.358 . S
C2594 N2595 1.279 . S
C2594 H2635 0.930 . S
N2595 C2593 1.314 . S
N2595 C2594 1.279 . S
C2596 C2598 1.353 . S
C2596 N2599 1.314 . S
C2596 H2602 0.930 . S
C2597 N2599 1.279 . S
C2597 C2600 1.358 . S
C2597 H2603 0.930 . S
C2598 C2596 1.353 . S
C2598 C2601 1.348 . S
C2598 H2636 0.929 . S
N2599 Li2554 1.990 . S
N2599 C2596 1.314 . S
N2599 C2597 1.279 . S
C2600 C2597 1.358 . S
C2600 C2601 1.356 . S
C2600 H2637 0.930 . S
C2601 C2598 1.348 . S
C2601 C2600 1.356 . S
H2602 C2596 0.930 . S
H2603 C2597 0.930 . S
C2604 N2605 1.314 . S
C2604 C2606 1.353 . S
C2604 H2610 0.930 . S
N2605 Li2555 1.990 . S
N2605 C2604 1.314 . S
N2605 C2608 1.279 . S
C2606 C2604 1.353 . S
C2606 C2609 1.348 . S
C2606 H2638 0.929 . S
C2607 C2608 1.358 . S
C2607 C2609 1.356 . S
C2607 H2639 0.930 . S
C2608 N2605 1.279 . S
C2608 C2607 1.358 . S
C2608 H2611 0.930 . S
C2609 C2606 1.348 . S
C2609 C2607 1.356 . S
H2610 C2604 0.930 . S
H2611 C2608 0.930 . S
O2612 Li2552 1.956 . S
O2612 Li2553 1.970 . S
O2612 Li2554 1.961 . S
O2612 C2556 1.325 . S
O2613 Li2552 1.970 . S
O2613 Li2553 1.956 . S
O2613 Li2555 1.961 . S
O2613 C2562 1.325 . S
O2614 Li2552 1.961 . S
O2614 Li2554 1.956 . S
O2614 Li2555 1.970 . S
O2614 C2584 1.325 . S
O2615 Li2553 1.961 . S
O2615 Li2554 1.970 . S
O2615 Li2555 1.956 . S
O2615 C2590 1.325 . S
H2616 C2558 0.929 . S
H2617 C2559 0.930 . S
H2618 C2560 0.930 . S
H2619 C2561 0.930 . S
H2620 C2563 0.930 . S
H2621 C2565 0.929 . S
H2622 C2566 0.930 . S
H2623 C2567 0.930 . S
H2624 C2570 0.930 . S
H2625 C2573 0.929 . S
H2626 C2578 0.929 . S
H2627 C2579 0.930 . S
H2628 C2586 0.929 . S
H2629 C2587 0.930 . S
H2630 C2588 0.930 . S
H2631 C2589 0.930 . S
H2632 C2591 0.929 . S
H2633 C2592 0.930 . S
H2634 C2593 0.930 . S
H2635 C2594 0.930 . S
H2636 C2598 0.929 . S
H2637 C2600 0.930 . S
H2638 C2606 0.929 . S
H2639 C2607 0.930 . S
Li2640 N2657 1.990 . S
Li2640 O2700 1.956 . S
Li2640 O2701 1.970 . S
Li2640 O2702 1.961 1_554 S
Li2641 N2665 1.990 . S
Li2641 O2700 1.970 . S
Li2641 O2701 1.956 . S
Li2641 O2703 1.961 . S
Li2642 N2687 1.990 . S
Li2642 O2700 1.961 . S
Li2642 O2702 1.956 1_554 S
Li2642 O2703 1.970 . S
Li2643 N2693 1.990 . S
Li2643 O2701 1.961 1_556 S
Li2643 O2702 1.970 . S
Li2643 O2703 1.956 1_556 S
C2644 C2646 1.348 . S
C2644 C2647 1.356 . S
C2644 O2700 1.325 . S
N2645 C2648 1.314 . S
N2645 C2649 1.279 . S
C2646 C2644 1.348 . S
C2646 C2648 1.353 . S
C2646 H2704 0.929 . S
C2647 C2644 1.356 . S
C2647 C2649 1.358 . S
C2647 H2705 0.930 . S
C2648 N2645 1.314 . S
C2648 C2646 1.353 . S
C2648 H2706 0.930 . S
C2649 N2645 1.279 . S
C2649 C2647 1.358 . S
C2649 H2707 0.930 . S
C2650 C2653 1.348 . S
C2650 C2654 1.356 . S
C2650 O2701 1.325 . S
C2651 N2652 1.279 . S
C2651 C2654 1.358 . S
C2651 H2708 0.930 . S
N2652 C2651 1.279 . S
N2652 C2655 1.314 . S
C2653 C2650 1.348 . S
C2653 C2655 1.353 . S
C2653 H2709 0.929 . S
C2654 C2650 1.356 . S
C2654 C2651 1.358 . S
C2654 H2710 0.930 . S
C2655 N2652 1.314 . S
C2655 C2653 1.353 . S
C2655 H2711 0.930 . S
C2656 N2657 1.314 1_556 S
C2656 C2661 1.353 . S
C2656 H2662 0.930 . S
N2657 Li2640 1.990 . S
N2657 C2656 1.314 1_554 S
N2657 C2659 1.279 . S
C2658 C2659 1.358 . S
C2658 C2660 1.356 . S
C2658 H2712 0.930 . S
C2659 N2657 1.279 . S
C2659 C2658 1.358 . S
C2659 H2663 0.930 . S
C2660 C2658 1.356 . S
C2660 C2661 1.348 1_554 S
C2661 C2656 1.353 . S
C2661 C2660 1.348 1_556 S
C2661 H2713 0.929 . S
H2662 C2656 0.930 . S
H2663 C2659 0.930 . S
C2664 N2665 1.314 . S
C2664 C2666 1.353 . S
C2664 H2670 0.930 . S
N2665 Li2641 1.990 . S
N2665 C2664 1.314 . S
N2665 C2668 1.279 . S
C2666 C2664 1.353 . S
C2666 C2669 1.348 . S
C2666 H2714 0.929 . S
C2667 C2668 1.358 . S
C2667 C2669 1.356 . S
C2667 H2715 0.930 . S
C2668 N2665 1.279 . S
C2668 C2667 1.358 . S
C2668 H2671 0.930 . S
C2669 C2666 1.348 . S
C2669 C2667 1.356 . S
H2670 C2664 0.930 . S
H2671 C2668 0.930 . S
C2672 C2674 1.348 . S
C2672 C2675 1.356 . S
C2672 O2702 1.325 . S
N2673 C2676 1.314 . S
N2673 C2677 1.279 . S
C2674 C2672 1.348 . S
C2674 C2676 1.353 . S
C2674 H2716 0.929 . S
C2675 C2672 1.356 . S
C2675 C2677 1.358 . S
C2675 H2717 0.930 . S
C2676 N2673 1.314 . S
C2676 C2674 1.353 . S
C2676 H2718 0.930 . S
C2677 N2673 1.279 . S
C2677 C2675 1.358 . S
C2677 H2719 0.930 . S
C2678 C2679 1.346 1_554 S
C2678 C2680 1.356 . S
C2678 O2703 1.325 . S
C2679 C2678 1.346 1_556 S
C2679 C2681 1.353 . S
C2679 H2720 0.931 . S
C2680 C2678 1.356 . S
C2680 C2682 1.358 . S
C2680 H2721 0.930 . S
C2681 C2679 1.353 . S
C2681 N2683 1.308 1_556 S
C2681 H2722 0.937 . S
C2682 C2680 1.358 . S
C2682 N2683 1.279 . S
C2682 H2723 0.930 . S
N2683 C2681 1.308 1_554 S
N2683 C2682 1.279 . S
C2684 C2686 1.353 . S
C2684 N2687 1.314 . S
C2684 H2690 0.930 . S
C2685 N2687 1.279 1_556 S
C2685 C2688 1.358 . S
C2685 H2691 0.930 . S
C2686 C2684 1.353 . S
C2686 C2689 1.348 1_554 S
C2686 H2724 0.929 . S
N2687 Li2642 1.990 . S
N2687 C2684 1.314 . S
N2687 C2685 1.279 1_554 S
C2688 C2685 1.358 . S
C2688 C2689 1.356 . S
C2688 H2725 0.930 . S
C2689 C2686 1.348 1_556 S
C2689 C2688 1.356 . S
H2690 C2684 0.930 . S
H2691 C2685 0.930 . S
C2692 N2693 1.314 . S
C2692 C2694 1.353 . S
C2692 H2698 0.930 . S
N2693 Li2643 1.990 . S
N2693 C2692 1.314 . S
N2693 C2696 1.279 . S
C2694 C2692 1.353 . S
C2694 C2697 1.348 . S
C2694 H2726 0.929 . S
C2695 C2696 1.358 . S
C2695 C2697 1.356 . S
C2695 H2727 0.930 . S
C2696 N2693 1.279 . S
C2696 C2695 1.358 . S
C2696 H2699 0.930 . S
C2697 C2694 1.348 . S
C2697 C2695 1.356 . S
H2698 C2692 0.930 . S
H2699 C2696 0.930 . S
O2700 Li2640 1.956 . S
O2700 Li2641 1.970 . S
O2700 Li2642 1.961 . S
O2700 C2644 1.325 . S
O2701 Li2640 1.970 . S
O2701 Li2641 1.956 . S
O2701 Li2643 1.961 1_554 S
O2701 C2650 1.325 . S
O2702 Li2640 1.961 1_556 S
O2702 Li2642 1.956 1_556 S
O2702 Li2643 1.970 . S
O2702 C2672 1.325 . S
O2703 Li2641 1.961 . S
O2703 Li2642 1.970 . S
O2703 Li2643 1.956 1_554 S
O2703 C2678 1.325 . S
H2704 C2646 0.929 . S
H2705 C2647 0.930 . S
H2706 C2648 0.930 . S
H2707 C2649 0.930 . S
H2708 C2651 0.930 . S
H2709 C2653 0.929 . S
H2710 C2654 0.930 . S
H2711 C2655 0.930 . S
H2712 C2658 0.930 . S
H2713 C2661 0.929 . S
H2714 C2666 0.929 . S
H2715 C2667 0.930 . S
H2716 C2674 0.929 . S
H2717 C2675 0.930 . S
H2718 C2676 0.930 . S
H2719 C2677 0.930 . S
H2720 C2679 0.931 . S
H2721 C2680 0.930 . S
H2722 C2681 0.937 . S
H2723 C2682 0.930 . S
H2724 C2686 0.929 . S
H2725 C2688 0.930 . S
H2726 C2694 0.929 . S
H2727 C2695 0.930 . S
Li2728 N2745 1.990 . S
Li2728 O2788 1.956 . S
Li2728 O2789 1.970 . S
Li2728 O2790 1.961 . S
Li2729 N2753 1.990 . S
Li2729 O2788 1.970 . S
Li2729 O2789 1.956 . S
Li2729 O2791 1.961 . S
Li2730 N2775 1.990 . S
Li2730 O2788 1.961 . S
Li2730 O2790 1.956 . S
Li2730 O2791 1.970 . S
Li2731 N2781 1.990 . S
Li2731 O2789 1.961 . S
Li2731 O2790 1.970 . S
Li2731 O2791 1.956 . S
C2732 C2734 1.348 . S
C2732 C2735 1.356 . S
C2732 O2788 1.325 . S
N2733 C2736 1.314 . S
N2733 C2737 1.279 . S
C2734 C2732 1.348 . S
C2734 C2736 1.353 . S
C2734 H2792 0.929 . S
C2735 C2732 1.356 . S
C2735 C2737 1.358 . S
C2735 H2793 0.930 . S
C2736 N2733 1.314 . S
C2736 C2734 1.353 . S
C2736 H2794 0.930 . S
C2737 N2733 1.279 . S
C2737 C2735 1.358 . S
C2737 H2795 0.930 . S
C2738 C2741 1.348 . S
C2738 C2742 1.356 . S
C2738 O2789 1.325 . S
C2739 N2740 1.279 . S
C2739 C2742 1.358 . S
C2739 H2796 0.930 . S
N2740 C2739 1.279 . S
N2740 C2743 1.314 . S
C2741 C2738 1.348 . S
C2741 C2743 1.353 . S
C2741 H2797 0.929 . S
C2742 C2738 1.356 . S
C2742 C2739 1.358 . S
C2742 H2798 0.930 . S
C2743 N2740 1.314 . S
C2743 C2741 1.353 . S
C2743 H2799 0.930 . S
C2744 N2745 1.314 . S
C2744 C2749 1.353 . S
C2744 H2750 0.930 . S
N2745 Li2728 1.990 . S
N2745 C2744 1.314 . S
N2745 C2747 1.279 . S
C2746 C2747 1.358 . S
C2746 C2748 1.356 . S
C2746 H2800 0.930 . S
C2747 N2745 1.279 . S
C2747 C2746 1.358 . S
C2747 H2751 0.930 . S
C2748 C2746 1.356 . S
C2748 C2749 1.348 . S
C2749 C2744 1.353 . S
C2749 C2748 1.348 . S
C2749 H2801 0.929 . S
H2750 C2744 0.930 . S
H2751 C2747 0.930 . S
C2752 N2753 1.314 . S
C2752 C2754 1.353 . S
C2752 H2758 0.930 . S
N2753 Li2729 1.990 . S
N2753 C2752 1.314 . S
N2753 C2756 1.279 . S
C2754 C2752 1.353 . S
C2754 C2757 1.348 . S
C2754 H2802 0.929 . S
C2755 C2756 1.358 . S
C2755 C2757 1.356 . S
C2755 H2803 0.930 . S
C2756 N2753 1.279 . S
C2756 C2755 1.358 . S
C2756 H2759 0.930 . S
C2757 C2754 1.348 . S
C2757 C2755 1.356 . S
H2758 C2752 0.930 . S
H2759 C2756 0.930 . S
C2760 C2762 1.348 . S
C2760 C2763 1.356 . S
C2760 O2790 1.325 . S
N2761 C2764 1.314 . S
N2761 C2765 1.279 . S
C2762 C2760 1.348 . S
C2762 C2764 1.353 . S
C2762 H2804 0.929 . S
C2763 C2760 1.356 . S
C2763 C2765 1.358 . S
C2763 H2805 0.930 . S
C2764 N2761 1.314 . S
C2764 C2762 1.353 . S
C2764 H2806 0.930 . S
C2765 N2761 1.279 . S
C2765 C2763 1.358 . S
C2765 H2807 0.930 . S
C2766 C2767 1.348 . S
C2766 C2768 1.356 . S
C2766 O2791 1.325 . S
C2767 C2766 1.348 . S
C2767 C2769 1.353 . S
C2767 H2808 0.929 . S
C2768 C2766 1.356 . S
C2768 C2770 1.358 . S
C2768 H2809 0.930 . S
C2769 C2767 1.353 . S
C2769 N2771 1.314 . S
C2769 H2810 0.930 . S
C2770 C2768 1.358 . S
C2770 N2771 1.279 . S
C2770 H2811 0.930 . S
N2771 C2769 1.314 . S
N2771 C2770 1.279 . S
C2772 C2774 1.353 . S
C2772 N2775 1.314 . S
C2772 H2778 0.930 . S
C2773 N2775 1.279 . S
C2773 C2776 1.358 . S
C2773 H2779 0.930 . S
C2774 C2772 1.353 . S
C2774 C2777 1.348 . S
C2774 H2812 0.929 . S
N2775 Li2730 1.990 . S
N2775 C2772 1.314 . S
N2775 C2773 1.279 . S
C2776 C2773 1.358 . S
C2776 C2777 1.356 . S
C2776 H2813 0.930 . S
C2777 C2774 1.348 . S
C2777 C2776 1.356 . S
H2778 C2772 0.930 . S
H2779 C2773 0.930 . S
C2780 N2781 1.314 . S
C2780 C2782 1.353 . S
C2780 H2786 0.930 . S
N2781 Li2731 1.990 . S
N2781 C2780 1.314 . S
N2781 C2784 1.279 . S
C2782 C2780 1.353 . S
C2782 C2785 1.348 . S
C2782 H2814 0.929 . S
C2783 C2784 1.358 . S
C2783 C2785 1.356 . S
C2783 H2815 0.930 . S
C2784 N2781 1.279 . S
C2784 C2783 1.358 . S
C2784 H2787 0.930 . S
C2785 C2782 1.348 . S
C2785 C2783 1.356 . S
H2786 C2780 0.930 . S
H2787 C2784 0.930 . S
O2788 Li2728 1.956 . S
O2788 Li2729 1.970 . S
O2788 Li2730 1.961 . S
O2788 C2732 1.325 . S
O2789 Li2728 1.970 . S
O2789 Li2729 1.956 . S
O2789 Li2731 1.961 . S
O2789 C2738 1.325 . S
O2790 Li2728 1.961 . S
O2790 Li2730 1.956 . S
O2790 Li2731 1.970 . S
O2790 C2760 1.325 . S
O2791 Li2729 1.961 . S
O2791 Li2730 1.970 . S
O2791 Li2731 1.956 . S
O2791 C2766 1.325 . S
H2792 C2734 0.929 . S
H2793 C2735 0.930 . S
H2794 C2736 0.930 . S
H2795 C2737 0.930 . S
H2796 C2739 0.930 . S
H2797 C2741 0.929 . S
H2798 C2742 0.930 . S
H2799 C2743 0.930 . S
H2800 C2746 0.930 . S
H2801 C2749 0.929 . S
H2802 C2754 0.929 . S
H2803 C2755 0.930 . S
H2804 C2762 0.929 . S
H2805 C2763 0.930 . S
H2806 C2764 0.930 . S
H2807 C2765 0.930 . S
H2808 C2767 0.929 . S
H2809 C2768 0.930 . S
H2810 C2769 0.930 . S
H2811 C2770 0.930 . S
H2812 C2774 0.929 . S
H2813 C2776 0.930 . S
H2814 C2782 0.929 . S
H2815 C2783 0.930 . S
C2816 C2817 1.391 . S
C2816 C2818 1.394 . S
C2816 H2832 0.931 . S
C2817 C2816 1.391 . S
C2817 C2821 1.376 . S
C2818 C2816 1.394 . S
C2818 C2819 1.369 . S
C2818 C2822 1.531 . S
C2819 C2818 1.369 . S
C2819 C2820 1.410 . S
C2819 C2827 1.503 . S
C2820 C2819 1.410 . S
C2820 C2821 1.392 . S
C2820 C2823 1.511 . S
C2821 C2817 1.376 . S
C2821 C2820 1.392 . S
C2821 H2833 0.929 . S
C2822 C2818 1.531 . S
C2822 H2834 0.960 . S
C2822 H2835 0.962 . S
C2822 H2836 0.960 . S
C2823 C2820 1.511 . S
C2823 H2837 0.961 . S
C2823 H2838 0.961 . S
C2823 H2839 0.961 . S
C2824 C2825 1.370 . S
C2824 C2826 1.363 . S
C2824 H2840 0.931 . S
C2825 C2824 1.370 . S
C2825 C2829 1.408 . S
C2826 C2824 1.363 . S
C2826 C2827 1.370 . S
C2826 C2830 1.524 . S
C2827 C2819 1.503 . S
C2827 C2826 1.370 . S
C2827 C2828 1.403 . S
C2828 C2827 1.403 . S
C2828 C2829 1.404 . S
C2828 C2831 1.539 . S
C2829 C2825 1.408 . S
C2829 C2828 1.404 . S
C2829 H2841 0.930 . S
C2830 C2826 1.524 . S
C2830 H2842 0.956 . S
C2830 H2843 0.961 . S
C2830 H2844 0.961 . S
C2831 C2828 1.539 . S
C2831 H2845 0.958 . S
C2831 H2846 0.961 . S
C2831 H2847 0.960 . S
H2832 C2816 0.931 . S
H2833 C2821 0.929 . S
H2834 C2822 0.960 . S
H2835 C2822 0.962 . S
H2836 C2822 0.960 . S
H2837 C2823 0.961 . S
H2838 C2823 0.961 . S
H2839 C2823 0.961 . S
H2840 C2824 0.931 . S
H2841 C2829 0.930 . S
H2842 C2830 0.956 . S
H2843 C2830 0.961 . S
H2844 C2830 0.961 . S
H2845 C2831 0.958 . S
H2846 C2831 0.961 . S
H2847 C2831 0.960 . S
C2848 C2849 1.391 . S
C2848 C2850 1.394 . S
C2848 H2864 0.931 . S
C2849 C2848 1.391 . S
C2849 C2853 1.376 . S
C2850 C2848 1.394 . S
C2850 C2851 1.369 . S
C2850 C2854 1.531 . S
C2851 C2850 1.369 . S
C2851 C2852 1.410 . S
C2851 C2859 1.503 . S
C2852 C2851 1.410 . S
C2852 C2853 1.392 . S
C2852 C2855 1.511 . S
C2853 C2849 1.376 . S
C2853 C2852 1.392 . S
C2853 H2865 0.929 . S
C2854 C2850 1.531 . S
C2854 H2866 0.960 . S
C2854 H2867 0.962 . S
C2854 H2868 0.960 . S
C2855 C2852 1.511 . S
C2855 H2869 0.961 . S
C2855 H2870 0.961 . S
C2855 H2871 0.961 . S
C2856 C2857 1.370 . S
C2856 C2858 1.363 . S
C2856 H2872 0.931 . S
C2857 C2856 1.370 . S
C2857 C2861 1.408 . S
C2858 C2856 1.363 . S
C2858 C2859 1.370 . S
C2858 C2862 1.524 . S
C2859 C2851 1.503 . S
C2859 C2858 1.370 . S
C2859 C2860 1.403 . S
C2860 C2859 1.403 . S
C2860 C2861 1.404 . S
C2860 C2863 1.539 . S
C2861 C2857 1.408 . S
C2861 C2860 1.404 . S
C2861 H2873 0.930 . S
C2862 C2858 1.524 . S
C2862 H2874 0.956 . S
C2862 H2875 0.961 . S
C2862 H2876 0.961 . S
C2863 C2860 1.539 . S
C2863 H2877 0.958 . S
C2863 H2878 0.961 . S
C2863 H2879 0.960 . S
H2864 C2848 0.931 . S
H2865 C2853 0.929 . S
H2866 C2854 0.960 . S
H2867 C2854 0.962 . S
H2868 C2854 0.960 . S
H2869 C2855 0.961 . S
H2870 C2855 0.961 . S
H2871 C2855 0.961 . S
H2872 C2856 0.931 . S
H2873 C2861 0.930 . S
H2874 C2862 0.956 . S
H2875 C2862 0.961 . S
H2876 C2862 0.961 . S
H2877 C2863 0.958 . S
H2878 C2863 0.961 . S
H2879 C2863 0.960 . S
C2880 C2881 1.391 . S
C2880 C2882 1.394 . S
C2880 H2896 0.931 . S
C2881 C2880 1.391 . S
C2881 C2885 1.376 . S
C2882 C2880 1.394 . S
C2882 C2883 1.369 . S
C2882 C2886 1.531 . S
C2883 C2882 1.369 . S
C2883 C2884 1.410 . S
C2883 C2891 1.503 . S
C2884 C2883 1.410 . S
C2884 C2885 1.392 . S
C2884 C2887 1.511 . S
C2885 C2881 1.376 . S
C2885 C2884 1.392 . S
C2885 H2897 0.929 . S
C2886 C2882 1.531 . S
C2886 H2898 0.960 . S
C2886 H2899 0.962 . S
C2886 H2900 0.960 . S
C2887 C2884 1.511 . S
C2887 H2901 0.961 . S
C2887 H2902 0.961 . S
C2887 H2903 0.961 . S
C2888 C2889 1.370 . S
C2888 C2890 1.363 . S
C2888 H2904 0.931 . S
C2889 C2888 1.370 . S
C2889 C2893 1.408 . S
C2890 C2888 1.363 . S
C2890 C2891 1.370 . S
C2890 C2894 1.524 . S
C2891 C2883 1.503 . S
C2891 C2890 1.370 . S
C2891 C2892 1.403 . S
C2892 C2891 1.403 . S
C2892 C2893 1.404 . S
C2892 C2895 1.539 . S
C2893 C2889 1.408 . S
C2893 C2892 1.404 . S
C2893 H2905 0.930 . S
C2894 C2890 1.524 . S
C2894 H2906 0.956 . S
C2894 H2907 0.961 . S
C2894 H2908 0.961 . S
C2895 C2892 1.539 . S
C2895 H2909 0.958 . S
C2895 H2910 0.961 . S
C2895 H2911 0.960 . S
H2896 C2880 0.931 . S
H2897 C2885 0.929 . S
H2898 C2886 0.960 . S
H2899 C2886 0.962 . S
H2900 C2886 0.960 . S
H2901 C2887 0.961 . S
H2902 C2887 0.961 . S
H2903 C2887 0.961 . S
H2904 C2888 0.931 . S
H2905 C2893 0.930 . S
H2906 C2894 0.956 . S
H2907 C2894 0.961 . S
H2908 C2894 0.961 . S
H2909 C2895 0.958 . S
H2910 C2895 0.961 . S
H2911 C2895 0.960 . S
C2912 C2913 1.391 . S
C2912 C2914 1.394 . S
C2912 H2928 0.931 . S
C2913 C2912 1.391 . S
C2913 C2917 1.376 . S
C2914 C2912 1.394 . S
C2914 C2915 1.369 . S
C2914 C2918 1.531 . S
C2915 C2914 1.369 . S
C2915 C2916 1.410 . S
C2915 C2923 1.503 . S
C2916 C2915 1.410 . S
C2916 C2917 1.392 . S
C2916 C2919 1.511 . S
C2917 C2913 1.376 . S
C2917 C2916 1.392 . S
C2917 H2929 0.929 . S
C2918 C2914 1.531 . S
C2918 H2930 0.960 . S
C2918 H2931 0.962 . S
C2918 H2932 0.960 . S
C2919 C2916 1.511 . S
C2919 H2933 0.961 . S
C2919 H2934 0.961 . S
C2919 H2935 0.961 . S
C2920 C2921 1.370 . S
C2920 C2922 1.363 . S
C2920 H2936 0.931 . S
C2921 C2920 1.370 . S
C2921 C2925 1.408 . S
C2922 C2920 1.363 . S
C2922 C2923 1.370 . S
C2922 C2926 1.524 . S
C2923 C2915 1.503 . S
C2923 C2922 1.370 . S
C2923 C2924 1.403 . S
C2924 C2923 1.403 . S
C2924 C2925 1.404 . S
C2924 C2927 1.539 . S
C2925 C2921 1.408 . S
C2925 C2924 1.404 . S
C2925 H2937 0.930 . S
C2926 C2922 1.524 . S
C2926 H2938 0.956 . S
C2926 H2939 0.961 . S
C2926 H2940 0.961 . S
C2927 C2924 1.539 . S
C2927 H2941 0.958 . S
C2927 H2942 0.961 . S
C2927 H2943 0.960 . S
H2928 C2912 0.931 . S
H2929 C2917 0.929 . S
H2930 C2918 0.960 . S
H2931 C2918 0.962 . S
H2932 C2918 0.960 . S
H2933 C2919 0.961 . S
H2934 C2919 0.961 . S
H2935 C2919 0.961 . S
H2936 C2920 0.931 . S
H2937 C2925 0.930 . S
H2938 C2926 0.956 . S
H2939 C2926 0.961 . S
H2940 C2926 0.961 . S
H2941 C2927 0.958 . S
H2942 C2927 0.961 . S
H2943 C2927 0.960 . S
C2944 C2945 1.391 . S
C2944 C2946 1.394 . S
C2944 H2960 0.931 . S
C2945 C2944 1.391 . S
C2945 C2949 1.376 . S
C2946 C2944 1.394 . S
C2946 C2947 1.369 . S
C2946 C2950 1.531 . S
C2947 C2946 1.369 . S
C2947 C2948 1.410 . S
C2947 C2955 1.503 . S
C2948 C2947 1.410 . S
C2948 C2949 1.392 . S
C2948 C2951 1.511 . S
C2949 C2945 1.376 . S
C2949 C2948 1.392 . S
C2949 H2961 0.929 . S
C2950 C2946 1.531 . S
C2950 H2962 0.960 . S
C2950 H2963 0.962 . S
C2950 H2964 0.960 . S
C2951 C2948 1.511 . S
C2951 H2965 0.961 . S
C2951 H2966 0.961 . S
C2951 H2967 0.961 . S
C2952 C2953 1.370 . S
C2952 C2954 1.363 . S
C2952 H2968 0.931 . S
C2953 C2952 1.370 . S
C2953 C2957 1.408 . S
C2954 C2952 1.363 . S
C2954 C2955 1.370 . S
C2954 C2958 1.524 . S
C2955 C2947 1.503 . S
C2955 C2954 1.370 . S
C2955 C2956 1.403 . S
C2956 C2955 1.403 . S
C2956 C2957 1.404 . S
C2956 C2959 1.539 . S
C2957 C2953 1.408 . S
C2957 C2956 1.404 . S
C2957 H2969 0.930 . S
C2958 C2954 1.524 . S
C2958 H2970 0.956 . S
C2958 H2971 0.961 . S
C2958 H2972 0.961 . S
C2959 C2956 1.539 . S
C2959 H2973 0.958 . S
C2959 H2974 0.961 . S
C2959 H2975 0.960 . S
H2960 C2944 0.931 . S
H2961 C2949 0.929 . S
H2962 C2950 0.960 . S
H2963 C2950 0.962 . S
H2964 C2950 0.960 . S
H2965 C2951 0.961 . S
H2966 C2951 0.961 . S
H2967 C2951 0.961 . S
H2968 C2952 0.931 . S
H2969 C2957 0.930 . S
H2970 C2958 0.956 . S
H2971 C2958 0.961 . S
H2972 C2958 0.961 . S
H2973 C2959 0.958 . S
H2974 C2959 0.961 . S
H2975 C2959 0.960 . S
C2976 C2977 1.391 . S
C2976 C2978 1.394 . S
C2976 H2992 0.931 . S
C2977 C2976 1.391 . S
C2977 C2981 1.376 . S
C2978 C2976 1.394 . S
C2978 C2979 1.369 . S
C2978 C2982 1.531 . S
C2979 C2978 1.369 . S
C2979 C2980 1.410 . S
C2979 C2987 1.503 . S
C2980 C2979 1.410 . S
C2980 C2981 1.392 . S
C2980 C2983 1.511 . S
C2981 C2977 1.376 . S
C2981 C2980 1.392 . S
C2981 H2993 0.929 . S
C2982 C2978 1.531 . S
C2982 H2994 0.960 . S
C2982 H2995 0.962 . S
C2982 H2996 0.960 . S
C2983 C2980 1.511 . S
C2983 H2997 0.961 . S
C2983 H2998 0.961 . S
C2983 H2999 0.961 . S
C2984 C2985 1.370 . S
C2984 C2986 1.363 . S
C2984 H3000 0.931 . S
C2985 C2984 1.370 . S
C2985 C2989 1.408 . S
C2986 C2984 1.363 . S
C2986 C2987 1.370 . S
C2986 C2990 1.524 . S
C2987 C2979 1.503 . S
C2987 C2986 1.370 . S
C2987 C2988 1.403 . S
C2988 C2987 1.403 . S
C2988 C2989 1.404 . S
C2988 C2991 1.539 . S
C2989 C2985 1.408 . S
C2989 C2988 1.404 . S
C2989 H3001 0.930 1_556 S
C2990 C2986 1.524 . S
C2990 H3002 0.956 . S
C2990 H3003 0.961 . S
C2990 H3004 0.961 . S
C2991 C2988 1.539 . S
C2991 H3005 0.958 . S
C2991 H3006 0.961 1_556 S
C2991 H3007 0.960 . S
H2992 C2976 0.931 . S
H2993 C2981 0.929 . S
H2994 C2982 0.960 . S
H2995 C2982 0.962 . S
H2996 C2982 0.960 . S
H2997 C2983 0.961 . S
H2998 C2983 0.961 . S
H2999 C2983 0.961 . S
H3000 C2984 0.931 . S
H3001 C2989 0.930 1_554 S
H3002 C2990 0.956 . S
H3003 C2990 0.961 . S
H3004 C2990 0.961 . S
H3005 C2991 0.958 . S
H3006 C2991 0.961 1_554 S
H3007 C2991 0.960 . S
C3008 C3009 1.391 . S
C3008 C3010 1.394 . S
C3008 H3024 0.931 . S
C3009 C3008 1.391 . S
C3009 C3013 1.376 . S
C3010 C3008 1.394 . S
C3010 C3011 1.369 . S
C3010 C3014 1.531 . S
C3011 C3010 1.369 . S
C3011 C3012 1.410 . S
C3011 C3019 1.503 . S
C3012 C3011 1.410 . S
C3012 C3013 1.392 . S
C3012 C3015 1.511 . S
C3013 C3009 1.376 . S
C3013 C3012 1.392 . S
C3013 H3025 0.929 . S
C3014 C3010 1.531 . S
C3014 H3026 0.960 . S
C3014 H3027 0.962 . S
C3014 H3028 0.960 . S
C3015 C3012 1.511 . S
C3015 H3029 0.961 . S
C3015 H3030 0.961 . S
C3015 H3031 0.961 . S
C3016 C3017 1.370 . S
C3016 C3018 1.363 . S
C3016 H3032 0.931 . S
C3017 C3016 1.370 . S
C3017 C3021 1.408 . S
C3018 C3016 1.363 . S
C3018 C3019 1.370 . S
C3018 C3022 1.524 . S
C3019 C3011 1.503 . S
C3019 C3018 1.370 . S
C3019 C3020 1.403 . S
C3020 C3019 1.403 . S
C3020 C3021 1.404 . S
C3020 C3023 1.539 . S
C3021 C3017 1.408 . S
C3021 C3020 1.404 . S
C3021 H3033 0.930 . S
C3022 C3018 1.524 . S
C3022 H3034 0.956 . S
C3022 H3035 0.961 . S
C3022 H3036 0.961 . S
C3023 C3020 1.539 . S
C3023 H3037 0.958 . S
C3023 H3038 0.961 . S
C3023 H3039 0.960 . S
H3024 C3008 0.931 . S
H3025 C3013 0.929 . S
H3026 C3014 0.960 . S
H3027 C3014 0.962 . S
H3028 C3014 0.960 . S
H3029 C3015 0.961 . S
H3030 C3015 0.961 . S
H3031 C3015 0.961 . S
H3032 C3016 0.931 . S
H3033 C3021 0.930 . S
H3034 C3022 0.956 . S
H3035 C3022 0.961 . S
H3036 C3022 0.961 . S
H3037 C3023 0.958 . S
H3038 C3023 0.961 . S
H3039 C3023 0.960 . S
C3040 C3041 1.391 . S
C3040 C3042 1.394 . S
C3040 H3056 0.931 . S
C3041 C3040 1.391 . S
C3041 C3045 1.376 . S
C3042 C3040 1.394 . S
C3042 C3043 1.369 . S
C3042 C3046 1.531 . S
C3043 C3042 1.369 . S
C3043 C3044 1.410 . S
C3043 C3051 1.503 . S
C3044 C3043 1.410 . S
C3044 C3045 1.392 . S
C3044 C3047 1.511 . S
C3045 C3041 1.376 . S
C3045 C3044 1.392 . S
C3045 H3057 0.929 . S
C3046 C3042 1.531 . S
C3046 H3058 0.960 . S
C3046 H3059 0.962 . S
C3046 H3060 0.960 . S
C3047 C3044 1.511 . S
C3047 H3061 0.961 . S
C3047 H3062 0.961 . S
C3047 H3063 0.961 . S
C3048 C3049 1.370 . S
C3048 C3050 1.363 . S
C3048 H3064 0.931 . S
C3049 C3048 1.370 . S
C3049 C3053 1.408 . S
C3050 C3048 1.363 . S
C3050 C3051 1.370 . S
C3050 C3054 1.524 . S
C3051 C3043 1.503 . S
C3051 C3050 1.370 . S
C3051 C3052 1.403 . S
C3052 C3051 1.403 . S
C3052 C3053 1.404 . S
C3052 C3055 1.539 . S
C3053 C3049 1.408 . S
C3053 C3052 1.404 . S
C3053 H3065 0.930 . S
C3054 C3050 1.524 . S
C3054 H3066 0.956 . S
C3054 H3067 0.961 . S
C3054 H3068 0.961 . S
C3055 C3052 1.539 . S
C3055 H3069 0.958 . S
C3055 H3070 0.961 . S
C3055 H3071 0.960 . S
H3056 C3040 0.931 . S
H3057 C3045 0.929 . S
H3058 C3046 0.960 . S
H3059 C3046 0.962 . S
H3060 C3046 0.960 . S
H3061 C3047 0.961 . S
H3062 C3047 0.961 . S
H3063 C3047 0.961 . S
H3064 C3048 0.931 . S
H3065 C3053 0.930 . S
H3066 C3054 0.956 . S
H3067 C3054 0.961 . S
H3068 C3054 0.961 . S
H3069 C3055 0.958 . S
H3070 C3055 0.961 . S
H3071 C3055 0.960 . S
C3072 C3073 1.391 . S
C3072 C3074 1.394 . S
C3072 H3088 0.931 . S
C3073 C3072 1.391 . S
C3073 C3077 1.376 . S
C3074 C3072 1.394 . S
C3074 C3075 1.369 . S
C3074 C3078 1.531 . S
C3075 C3074 1.369 . S
C3075 C3076 1.410 . S
C3075 C3083 1.503 . S
C3076 C3075 1.410 . S
C3076 C3077 1.392 . S
C3076 C3079 1.511 . S
C3077 C3073 1.376 . S
C3077 C3076 1.392 . S
C3077 H3089 0.929 . S
C3078 C3074 1.531 . S
C3078 H3090 0.960 . S
C3078 H3091 0.962 . S
C3078 H3092 0.960 . S
C3079 C3076 1.511 . S
C3079 H3093 0.961 . S
C3079 H3094 0.961 . S
C3079 H3095 0.961 . S
C3080 C3081 1.370 . S
C3080 C3082 1.363 . S
C3080 H3096 0.931 . S
C3081 C3080 1.370 . S
C3081 C3085 1.408 . S
C3082 C3080 1.363 . S
C3082 C3083 1.370 . S
C3082 C3086 1.524 . S
C3083 C3075 1.503 . S
C3083 C3082 1.370 . S
C3083 C3084 1.403 . S
C3084 C3083 1.403 . S
C3084 C3085 1.404 . S
C3084 C3087 1.539 . S
C3085 C3081 1.408 . S
C3085 C3084 1.404 . S
C3085 H3097 0.930 . S
C3086 C3082 1.524 . S
C3086 H3098 0.956 . S
C3086 H3099 0.961 . S
C3086 H3100 0.961 . S
C3087 C3084 1.539 . S
C3087 H3101 0.958 . S
C3087 H3102 0.961 . S
C3087 H3103 0.960 . S
H3088 C3072 0.931 . S
H3089 C3077 0.929 . S
H3090 C3078 0.960 . S
H3091 C3078 0.962 . S
H3092 C3078 0.960 . S
H3093 C3079 0.961 . S
H3094 C3079 0.961 . S
H3095 C3079 0.961 . S
H3096 C3080 0.931 . S
H3097 C3085 0.930 . S
H3098 C3086 0.956 . S
H3099 C3086 0.961 . S
H3100 C3086 0.961 . S
H3101 C3087 0.958 . S
H3102 C3087 0.961 . S
H3103 C3087 0.960 . S
C3104 C3105 1.391 . S
C3104 C3106 1.394 . S
C3104 H3120 0.931 . S
C3105 C3104 1.391 . S
C3105 C3109 1.376 . S
C3106 C3104 1.394 . S
C3106 C3107 1.369 . S
C3106 C3110 1.531 . S
C3107 C3106 1.369 . S
C3107 C3108 1.410 . S
C3107 C3115 1.503 . S
C3108 C3107 1.410 . S
C3108 C3109 1.392 . S
C3108 C3111 1.511 . S
C3109 C3105 1.376 . S
C3109 C3108 1.392 . S
C3109 H3121 0.929 . S
C3110 C3106 1.531 . S
C3110 H3122 0.960 . S
C3110 H3123 0.962 . S
C3110 H3124 0.960 . S
C3111 C3108 1.511 . S
C3111 H3125 0.961 . S
C3111 H3126 0.961 . S
C3111 H3127 0.961 . S
C3112 C3113 1.370 . S
C3112 C3114 1.363 . S
C3112 H3128 0.931 . S
C3113 C3112 1.370 . S
C3113 C3117 1.408 . S
C3114 C3112 1.363 . S
C3114 C3115 1.370 . S
C3114 C3118 1.524 . S
C3115 C3107 1.503 . S
C3115 C3114 1.370 . S
C3115 C3116 1.403 . S
C3116 C3115 1.403 . S
C3116 C3117 1.404 . S
C3116 C3119 1.539 . S
C3117 C3113 1.408 . S
C3117 C3116 1.404 . S
C3117 H3129 0.930 . S
C3118 C3114 1.524 . S
C3118 H3130 0.956 . S
C3118 H3131 0.961 . S
C3118 H3132 0.961 . S
C3119 C3116 1.539 . S
C3119 H3133 0.958 . S
C3119 H3134 0.961 . S
C3119 H3135 0.960 . S
H3120 C3104 0.931 . S
H3121 C3109 0.929 . S
H3122 C3110 0.960 . S
H3123 C3110 0.962 . S
H3124 C3110 0.960 . S
H3125 C3111 0.961 . S
H3126 C3111 0.961 . S
H3127 C3111 0.961 . S
H3128 C3112 0.931 . S
H3129 C3117 0.930 . S
H3130 C3118 0.956 . S
H3131 C3118 0.961 . S
H3132 C3118 0.961 . S
H3133 C3119 0.958 . S
H3134 C3119 0.961 . S
H3135 C3119 0.960 . S
C3136 C3137 1.391 . S
C3136 C3138 1.394 . S
C3136 H3152 0.931 . S
C3137 C3136 1.391 . S
C3137 C3141 1.376 . S
C3138 C3136 1.394 . S
C3138 C3139 1.369 . S
C3138 C3142 1.531 . S
C3139 C3138 1.369 . S
C3139 C3140 1.410 . S
C3139 C3147 1.503 . S
C3140 C3139 1.410 . S
C3140 C3141 1.392 . S
C3140 C3143 1.511 . S
C3141 C3137 1.376 . S
C3141 C3140 1.392 . S
C3141 H3153 0.929 . S
C3142 C3138 1.531 . S
C3142 H3154 0.960 . S
C3142 H3155 0.962 . S
C3142 H3156 0.960 . S
C3143 C3140 1.511 . S
C3143 H3157 0.961 . S
C3143 H3158 0.961 . S
C3143 H3159 0.961 . S
C3144 C3145 1.370 . S
C3144 C3146 1.363 . S
C3144 H3160 0.931 . S
C3145 C3144 1.370 . S
C3145 C3149 1.408 . S
C3146 C3144 1.363 . S
C3146 C3147 1.370 . S
C3146 C3150 1.524 . S
C3147 C3139 1.503 . S
C3147 C3146 1.370 . S
C3147 C3148 1.403 . S
C3148 C3147 1.403 . S
C3148 C3149 1.404 . S
C3148 C3151 1.539 . S
C3149 C3145 1.408 . S
C3149 C3148 1.404 . S
C3149 H3161 0.930 . S
C3150 C3146 1.524 . S
C3150 H3162 0.956 . S
C3150 H3163 0.961 . S
C3150 H3164 0.961 . S
C3151 C3148 1.539 . S
C3151 H3165 0.958 . S
C3151 H3166 0.961 . S
C3151 H3167 0.960 . S
H3152 C3136 0.931 . S
H3153 C3141 0.929 . S
H3154 C3142 0.960 . S
H3155 C3142 0.962 . S
H3156 C3142 0.960 . S
H3157 C3143 0.961 . S
H3158 C3143 0.961 . S
H3159 C3143 0.961 . S
H3160 C3144 0.931 . S
H3161 C3149 0.930 . S
H3162 C3150 0.956 . S
H3163 C3150 0.961 . S
H3164 C3150 0.961 . S
H3165 C3151 0.958 . S
H3166 C3151 0.961 . S
H3167 C3151 0.960 . S
C3168 C3169 1.391 . S
C3168 C3170 1.394 . S
C3168 H3184 0.931 . S
C3169 C3168 1.391 . S
C3169 C3173 1.376 . S
C3170 C3168 1.394 . S
C3170 C3171 1.369 . S
C3170 C3174 1.531 . S
C3171 C3170 1.369 . S
C3171 C3172 1.410 . S
C3171 C3179 1.503 . S
C3172 C3171 1.410 . S
C3172 C3173 1.392 . S
C3172 C3175 1.511 . S
C3173 C3169 1.376 . S
C3173 C3172 1.392 . S
C3173 H3185 0.929 . S
C3174 C3170 1.531 . S
C3174 H3186 0.960 . S
C3174 H3187 0.962 . S
C3174 H3188 0.960 . S
C3175 C3172 1.511 . S
C3175 H3189 0.961 . S
C3175 H3190 0.961 . S
C3175 H3191 0.961 . S
C3176 C3177 1.370 . S
C3176 C3178 1.363 . S
C3176 H3192 0.931 . S
C3177 C3176 1.370 . S
C3177 C3181 1.408 . S
C3178 C3176 1.363 . S
C3178 C3179 1.370 . S
C3178 C3182 1.524 . S
C3179 C3171 1.503 . S
C3179 C3178 1.370 . S
C3179 C3180 1.403 . S
C3180 C3179 1.403 . S
C3180 C3181 1.404 . S
C3180 C3183 1.539 . S
C3181 C3177 1.408 . S
C3181 C3180 1.404 . S
C3181 H3193 0.930 . S
C3182 C3178 1.524 . S
C3182 H3194 0.956 . S
C3182 H3195 0.961 . S
C3182 H3196 0.961 . S
C3183 C3180 1.539 . S
C3183 H3197 0.958 . S
C3183 H3198 0.961 . S
C3183 H3199 0.960 . S
H3184 C3168 0.931 . S
H3185 C3173 0.929 . S
H3186 C3174 0.960 . S
H3187 C3174 0.962 . S
H3188 C3174 0.960 . S
H3189 C3175 0.961 . S
H3190 C3175 0.961 . S
H3191 C3175 0.961 . S
H3192 C3176 0.931 . S
H3193 C3181 0.930 . S
H3194 C3182 0.956 . S
H3195 C3182 0.961 . S
H3196 C3182 0.961 . S
H3197 C3183 0.958 . S
H3198 C3183 0.961 . S
H3199 C3183 0.960 . S
C3200 C3201 1.391 . S
C3200 C3202 1.394 . S
C3200 H3216 0.931 . S
C3201 C3200 1.391 . S
C3201 C3205 1.376 . S
C3202 C3200 1.394 . S
C3202 C3203 1.369 . S
C3202 C3206 1.531 . S
C3203 C3202 1.369 . S
C3203 C3204 1.410 . S
C3203 C3211 1.503 . S
C3204 C3203 1.410 . S
C3204 C3205 1.392 . S
C3204 C3207 1.511 . S
C3205 C3201 1.376 . S
C3205 C3204 1.392 . S
C3205 H3217 0.929 . S
C3206 C3202 1.531 . S
C3206 H3218 0.960 . S
C3206 H3219 0.962 . S
C3206 H3220 0.960 . S
C3207 C3204 1.511 . S
C3207 H3221 0.961 . S
C3207 H3222 0.961 . S
C3207 H3223 0.961 . S
C3208 C3209 1.370 . S
C3208 C3210 1.363 . S
C3208 H3224 0.931 . S
C3209 C3208 1.370 . S
C3209 C3213 1.408 . S
C3210 C3208 1.363 . S
C3210 C3211 1.370 . S
C3210 C3214 1.524 . S
C3211 C3203 1.503 . S
C3211 C3210 1.370 . S
C3211 C3212 1.403 . S
C3212 C3211 1.403 . S
C3212 C3213 1.404 . S
C3212 C3215 1.539 . S
C3213 C3209 1.408 . S
C3213 C3212 1.404 . S
C3213 H3225 0.930 . S
C3214 C3210 1.524 . S
C3214 H3226 0.956 . S
C3214 H3227 0.961 . S
C3214 H3228 0.961 . S
C3215 C3212 1.539 . S
C3215 H3229 0.958 . S
C3215 H3230 0.961 . S
C3215 H3231 0.960 . S
H3216 C3200 0.931 . S
H3217 C3205 0.929 . S
H3218 C3206 0.960 . S
H3219 C3206 0.962 . S
H3220 C3206 0.960 . S
H3221 C3207 0.961 . S
H3222 C3207 0.961 . S
H3223 C3207 0.961 . S
H3224 C3208 0.931 . S
H3225 C3213 0.930 . S
H3226 C3214 0.956 . S
H3227 C3214 0.961 . S
H3228 C3214 0.961 . S
H3229 C3215 0.958 . S
H3230 C3215 0.961 . S
H3231 C3215 0.960 . S
C3232 C3233 1.391 . S
C3232 C3234 1.394 . S
C3232 H3248 0.931 . S
C3233 C3232 1.391 . S
C3233 C3237 1.376 . S
C3234 C3232 1.394 . S
C3234 C3235 1.369 . S
C3234 C3238 1.531 . S
C3235 C3234 1.369 . S
C3235 C3236 1.410 . S
C3235 C3243 1.503 . S
C3236 C3235 1.410 . S
C3236 C3237 1.392 . S
C3236 C3239 1.511 . S
C3237 C3233 1.376 . S
C3237 C3236 1.392 . S
C3237 H3249 0.929 . S
C3238 C3234 1.531 . S
C3238 H3250 0.960 . S
C3238 H3251 0.962 . S
C3238 H3252 0.960 . S
C3239 C3236 1.511 . S
C3239 H3253 0.961 . S
C3239 H3254 0.961 . S
C3239 H3255 0.961 . S
C3240 C3241 1.370 . S
C3240 C3242 1.363 . S
C3240 H3256 0.931 . S
C3241 C3240 1.370 . S
C3241 C3245 1.408 . S
C3242 C3240 1.363 . S
C3242 C3243 1.370 . S
C3242 C3246 1.524 . S
C3243 C3235 1.503 . S
C3243 C3242 1.370 . S
C3243 C3244 1.403 . S
C3244 C3243 1.403 . S
C3244 C3245 1.404 . S
C3244 C3247 1.539 . S
C3245 C3241 1.408 . S
C3245 C3244 1.404 . S
C3245 H3257 0.930 . S
C3246 C3242 1.524 . S
C3246 H3258 0.956 . S
C3246 H3259 0.961 . S
C3246 H3260 0.961 . S
C3247 C3244 1.539 . S
C3247 H3261 0.958 . S
C3247 H3262 0.961 . S
C3247 H3263 0.960 . S
H3248 C3232 0.931 . S
H3249 C3237 0.929 . S
H3250 C3238 0.960 . S
H3251 C3238 0.962 . S
H3252 C3238 0.960 . S
H3253 C3239 0.961 . S
H3254 C3239 0.961 . S
H3255 C3239 0.961 . S
H3256 C3240 0.931 . S
H3257 C3245 0.930 . S
H3258 C3246 0.956 . S
H3259 C3246 0.961 . S
H3260 C3246 0.961 . S
H3261 C3247 0.958 . S
H3262 C3247 0.961 . S
H3263 C3247 0.960 . S
C3264 C3265 1.391 . S
C3264 C3266 1.394 . S
C3264 H3280 0.931 . S
C3265 C3264 1.391 . S
C3265 C3269 1.376 . S
C3266 C3264 1.394 . S
C3266 C3267 1.369 . S
C3266 C3270 1.531 . S
C3267 C3266 1.369 . S
C3267 C3268 1.410 . S
C3267 C3275 1.503 . S
C3268 C3267 1.410 . S
C3268 C3269 1.392 . S
C3268 C3271 1.511 . S
C3269 C3265 1.376 . S
C3269 C3268 1.392 . S
C3269 H3281 0.929 . S
C3270 C3266 1.531 . S
C3270 H3282 0.960 . S
C3270 H3283 0.962 . S
C3270 H3284 0.960 . S
C3271 C3268 1.511 . S
C3271 H3285 0.961 . S
C3271 H3286 0.961 . S
C3271 H3287 0.961 . S
C3272 C3273 1.370 . S
C3272 C3274 1.363 . S
C3272 H3288 0.931 . S
C3273 C3272 1.370 . S
C3273 C3277 1.408 . S
C3274 C3272 1.363 . S
C3274 C3275 1.370 . S
C3274 C3278 1.524 . S
C3275 C3267 1.503 . S
C3275 C3274 1.370 . S
C3275 C3276 1.403 . S
C3276 C3275 1.403 . S
C3276 C3277 1.404 . S
C3276 C3279 1.539 . S
C3277 C3273 1.408 . S
C3277 C3276 1.404 . S
C3277 H3289 0.930 . S
C3278 C3274 1.524 . S
C3278 H3290 0.956 . S
C3278 H3291 0.961 . S
C3278 H3292 0.961 . S
C3279 C3276 1.539 . S
C3279 H3293 0.958 . S
C3279 H3294 0.961 . S
C3279 H3295 0.960 . S
H3280 C3264 0.931 . S
H3281 C3269 0.929 . S
H3282 C3270 0.960 . S
H3283 C3270 0.962 . S
H3284 C3270 0.960 . S
H3285 C3271 0.961 . S
H3286 C3271 0.961 . S
H3287 C3271 0.961 . S
H3288 C3272 0.931 . S
H3289 C3277 0.930 . S
H3290 C3278 0.956 . S
H3291 C3278 0.961 . S
H3292 C3278 0.961 . S
H3293 C3279 0.958 . S
H3294 C3279 0.961 . S
H3295 C3279 0.960 . S
C3296 C3297 1.391 . S
C3296 C3298 1.394 . S
C3296 H3312 0.931 . S
C3297 C3296 1.391 . S
C3297 C3301 1.376 . S
C3298 C3296 1.394 . S
C3298 C3299 1.369 . S
C3298 C3302 1.531 . S
C3299 C3298 1.369 . S
C3299 C3300 1.410 . S
C3299 C3307 1.503 . S
C3300 C3299 1.410 . S
C3300 C3301 1.392 . S
C3300 C3303 1.511 . S
C3301 C3297 1.376 . S
C3301 C3300 1.392 . S
C3301 H3313 0.929 . S
C3302 C3298 1.531 . S
C3302 H3314 0.960 . S
C3302 H3315 0.962 . S
C3302 H3316 0.960 . S
C3303 C3300 1.511 . S
C3303 H3317 0.961 . S
C3303 H3318 0.961 . S
C3303 H3319 0.961 . S
C3304 C3305 1.370 . S
C3304 C3306 1.363 . S
C3304 H3320 0.931 . S
C3305 C3304 1.370 . S
C3305 C3309 1.408 . S
C3306 C3304 1.363 . S
C3306 C3307 1.370 . S
C3306 C3310 1.524 . S
C3307 C3299 1.503 . S
C3307 C3306 1.370 . S
C3307 C3308 1.403 . S
C3308 C3307 1.403 . S
C3308 C3309 1.404 . S
C3308 C3311 1.539 . S
C3309 C3305 1.408 . S
C3309 C3308 1.404 . S
C3309 H3321 0.930 . S
C3310 C3306 1.524 . S
C3310 H3322 0.956 . S
C3310 H3323 0.961 . S
C3310 H3324 0.961 . S
C3311 C3308 1.539 . S
C3311 H3325 0.958 . S
C3311 H3326 0.961 . S
C3311 H3327 0.960 . S
H3312 C3296 0.931 . S
H3313 C3301 0.929 . S
H3314 C3302 0.960 . S
H3315 C3302 0.962 . S
H3316 C3302 0.960 . S
H3317 C3303 0.961 . S
H3318 C3303 0.961 . S
H3319 C3303 0.961 . S
H3320 C3304 0.931 . S
H3321 C3309 0.930 . S
H3322 C3310 0.956 . S
H3323 C3310 0.961 . S
H3324 C3310 0.961 . S
H3325 C3311 0.958 . S
H3326 C3311 0.961 . S
H3327 C3311 0.960 . S
C3328 C3329 1.391 . S
C3328 C3330 1.394 . S
C3328 H3344 0.931 . S
C3329 C3328 1.391 . S
C3329 C3333 1.376 . S
C3330 C3328 1.394 . S
C3330 C3331 1.369 . S
C3330 C3334 1.531 . S
C3331 C3330 1.369 . S
C3331 C3332 1.410 . S
C3331 C3339 1.503 . S
C3332 C3331 1.410 . S
C3332 C3333 1.392 . S
C3332 C3335 1.511 . S
C3333 C3329 1.376 . S
C3333 C3332 1.392 . S
C3333 H3345 0.929 . S
C3334 C3330 1.531 . S
C3334 H3346 0.960 . S
C3334 H3347 0.962 . S
C3334 H3348 0.960 . S
C3335 C3332 1.511 . S
C3335 H3349 0.961 . S
C3335 H3350 0.961 . S
C3335 H3351 0.961 . S
C3336 C3337 1.370 . S
C3336 C3338 1.363 . S
C3336 H3352 0.931 . S
C3337 C3336 1.370 . S
C3337 C3341 1.408 . S
C3338 C3336 1.363 . S
C3338 C3339 1.370 . S
C3338 C3342 1.524 . S
C3339 C3331 1.503 . S
C3339 C3338 1.370 . S
C3339 C3340 1.403 . S
C3340 C3339 1.403 . S
C3340 C3341 1.404 . S
C3340 C3343 1.539 . S
C3341 C3337 1.408 . S
C3341 C3340 1.404 . S
C3341 H3353 0.930 . S
C3342 C3338 1.524 . S
C3342 H3354 0.956 . S
C3342 H3355 0.961 . S
C3342 H3356 0.961 . S
C3343 C3340 1.539 . S
C3343 H3357 0.958 . S
C3343 H3358 0.961 . S
C3343 H3359 0.960 . S
H3344 C3328 0.931 . S
H3345 C3333 0.929 . S
H3346 C3334 0.960 . S
H3347 C3334 0.962 . S
H3348 C3334 0.960 . S
H3349 C3335 0.961 . S
H3350 C3335 0.961 . S
H3351 C3335 0.961 . S
H3352 C3336 0.931 . S
H3353 C3341 0.930 . S
H3354 C3342 0.956 . S
H3355 C3342 0.961 . S
H3356 C3342 0.961 . S
H3357 C3343 0.958 . S
H3358 C3343 0.961 . S
H3359 C3343 0.960 . S
C3360 C3361 1.391 . S
C3360 C3362 1.394 . S
C3360 H3376 0.931 . S
C3361 C3360 1.391 . S
C3361 C3365 1.376 . S
C3362 C3360 1.394 . S
C3362 C3363 1.369 . S
C3362 C3366 1.531 . S
C3363 C3362 1.369 . S
C3363 C3364 1.382 1_565 S
C3363 C3371 1.503 1_565 S
C3364 C3363 1.382 1_545 S
C3364 C3365 1.350 1_545 S
C3364 C3367 1.581 . S
C3365 C3361 1.376 . S
C3365 C3364 1.350 1_565 S
C3365 H3377 0.929 . S
C3366 C3362 1.531 . S
C3366 H3378 0.960 1_554 S
C3366 H3379 0.962 . S
C3366 H3380 0.960 . S
C3367 C3364 1.581 . S
C3367 H3381 0.961 . S
C3367 H3382 0.961 . S
C3367 H3383 0.961 . S
C3368 C3369 1.370 . S
C3368 C3370 1.363 1_556 S
C3368 H3384 0.931 . S
C3369 C3368 1.370 . S
C3369 C3373 1.408 . S
C3370 C3368 1.363 1_554 S
C3370 C3371 1.370 . S
C3370 C3374 1.524 . S
C3371 C3363 1.503 1_545 S
C3371 C3370 1.370 . S
C3371 C3372 1.397 1_554 S
C3372 C3371 1.397 1_556 S
C3372 C3373 1.412 . S
C3372 C3375 1.536 1_556 S
C3373 C3369 1.408 . S
C3373 C3372 1.412 . S
C3373 H3385 0.930 . S
C3374 C3370 1.524 . S
C3374 H3386 0.956 1_545 S
C3374 H3387 0.961 . S
C3374 H3388 0.961 . S
C3375 C3372 1.536 1_554 S
C3375 H3389 0.973 1_545 S
C3375 H3390 0.961 . S
C3375 H3391 0.960 . S
H3376 C3360 0.931 . S
H3377 C3365 0.929 . S
H3378 C3366 0.960 1_556 S
H3379 C3366 0.962 . S
H3380 C3366 0.960 . S
H3381 C3367 0.961 . S
H3382 C3367 0.961 . S
H3383 C3367 0.961 . S
H3384 C3368 0.931 . S
H3385 C3373 0.930 . S
H3386 C3374 0.956 1_565 S
H3387 C3374 0.961 . S
H3388 C3374 0.961 . S
H3389 C3375 0.973 1_565 S
H3390 C3375 0.961 . S
H3391 C3375 0.960 . S
C3392 C3393 1.391 . S
C3392 C3394 1.394 . S
C3392 H3408 0.931 . S
C3393 C3392 1.391 . S
C3393 C3397 1.376 . S
C3394 C3392 1.394 . S
C3394 C3395 1.369 . S
C3394 C3398 1.531 . S
C3395 C3394 1.369 . S
C3395 C3396 1.410 . S
C3395 C3403 1.503 . S
C3396 C3395 1.410 . S
C3396 C3397 1.392 . S
C3396 C3399 1.511 . S
C3397 C3393 1.376 . S
C3397 C3396 1.392 . S
C3397 H3409 0.929 . S
C3398 C3394 1.531 . S
C3398 H3410 0.960 . S
C3398 H3411 0.962 . S
C3398 H3412 0.960 . S
C3399 C3396 1.511 . S
C3399 H3413 0.961 . S
C3399 H3414 0.961 . S
C3399 H3415 0.961 . S
C3400 C3401 1.370 . S
C3400 C3402 1.363 . S
C3400 H3416 0.931 . S
C3401 C3400 1.370 . S
C3401 C3405 1.408 . S
C3402 C3400 1.363 . S
C3402 C3403 1.370 . S
C3402 C3406 1.524 . S
C3403 C3395 1.503 . S
C3403 C3402 1.370 . S
C3403 C3404 1.403 . S
C3404 C3403 1.403 . S
C3404 C3405 1.404 . S
C3404 C3407 1.539 . S
C3405 C3401 1.408 . S
C3405 C3404 1.404 . S
C3405 H3417 0.930 . S
C3406 C3402 1.524 . S
C3406 H3418 0.956 . S
C3406 H3419 0.961 . S
C3406 H3420 0.961 . S
C3407 C3404 1.539 . S
C3407 H3421 0.958 . S
C3407 H3422 0.961 . S
C3407 H3423 0.960 . S
H3408 C3392 0.931 . S
H3409 C3397 0.929 . S
H3410 C3398 0.960 . S
H3411 C3398 0.962 . S
H3412 C3398 0.960 . S
H3413 C3399 0.961 . S
H3414 C3399 0.961 . S
H3415 C3399 0.961 . S
H3416 C3400 0.931 . S
H3417 C3405 0.930 . S
H3418 C3406 0.956 . S
H3419 C3406 0.961 . S
H3420 C3406 0.961 . S
H3421 C3407 0.958 . S
H3422 C3407 0.961 . S
H3423 C3407 0.960 . S
C3424 C3425 1.391 . S
C3424 C3426 1.394 . S
C3424 H3440 0.931 . S
C3425 C3424 1.391 . S
C3425 C3429 1.376 . S
C3426 C3424 1.394 . S
C3426 C3427 1.369 . S
C3426 C3430 1.531 . S
C3427 C3426 1.369 . S
C3427 C3428 1.410 . S
C3427 C3435 1.503 1_545 S
C3428 C3427 1.410 . S
C3428 C3429 1.392 . S
C3428 C3431 1.511 1_545 S
C3429 C3425 1.376 . S
C3429 C3428 1.392 . S
C3429 H3441 0.929 . S
C3430 C3426 1.531 . S
C3430 H3442 0.960 . S
C3430 H3443 0.962 . S
C3430 H3444 0.960 . S
C3431 C3428 1.511 1_565 S
C3431 H3445 0.961 . S
C3431 H3446 0.961 . S
C3431 H3447 0.961 . S
C3432 C3433 1.370 . S
C3432 C3434 1.363 . S
C3432 H3448 0.931 . S
C3433 C3432 1.370 . S
C3433 C3437 1.408 . S
C3434 C3432 1.363 . S
C3434 C3435 1.370 . S
C3434 C3438 1.524 . S
C3435 C3427 1.503 1_565 S
C3435 C3434 1.370 . S
C3435 C3436 1.403 . S
C3436 C3435 1.403 . S
C3436 C3437 1.404 . S
C3436 C3439 1.539 1_565 S
C3437 C3433 1.408 . S
C3437 C3436 1.404 . S
C3437 H3449 0.930 . S
C3438 C3434 1.524 . S
C3438 H3450 0.956 . S
C3438 H3451 0.961 . S
C3438 H3452 0.961 . S
C3439 C3436 1.539 1_545 S
C3439 H3453 0.958 . S
C3439 H3454 0.961 . S
C3439 H3455 0.960 . S
H3440 C3424 0.931 . S
H3441 C3429 0.929 . S
H3442 C3430 0.960 . S
H3443 C3430 0.962 . S
H3444 C3430 0.960 . S
H3445 C3431 0.961 . S
H3446 C3431 0.961 . S
H3447 C3431 0.961 . S
H3448 C3432 0.931 . S
H3449 C3437 0.930 . S
H3450 C3438 0.956 . S
H3451 C3438 0.961 . S
H3452 C3438 0.961 . S
H3453 C3439 0.958 . S
H3454 C3439 0.961 . S
H3455 C3439 0.960 . S
C3456 C3457 1.391 . S
C3456 C3458 1.394 . S
C3456 H3472 0.931 . S
C3457 C3456 1.391 . S
C3457 C3461 1.376 . S
C3458 C3456 1.394 . S
C3458 C3459 1.369 . S
C3458 C3462 1.531 . S
C3459 C3458 1.369 . S
C3459 C3460 1.410 . S
C3459 C3467 1.503 . S
C3460 C3459 1.410 . S
C3460 C3461 1.392 . S
C3460 C3463 1.511 . S
C3461 C3457 1.376 . S
C3461 C3460 1.392 . S
C3461 H3473 0.929 . S
C3462 C3458 1.531 . S
C3462 H3474 0.960 . S
C3462 H3475 0.962 . S
C3462 H3476 0.960 . S
C3463 C3460 1.511 . S
C3463 H3477 0.961 . S
C3463 H3478 0.961 . S
C3463 H3479 0.961 . S
C3464 C3465 1.370 . S
C3464 C3466 1.363 . S
C3464 H3480 0.931 . S
C3465 C3464 1.370 . S
C3465 C3469 1.408 . S
C3466 C3464 1.363 . S
C3466 C3467 1.370 . S
C3466 C3470 1.524 . S
C3467 C3459 1.503 . S
C3467 C3466 1.370 . S
C3467 C3468 1.403 . S
C3468 C3467 1.403 . S
C3468 C3469 1.404 . S
C3468 C3471 1.539 . S
C3469 C3465 1.408 . S
C3469 C3468 1.404 . S
C3469 H3481 0.930 . S
C3470 C3466 1.524 . S
C3470 H3482 0.956 . S
C3470 H3483 0.961 . S
C3470 H3484 0.961 . S
C3471 C3468 1.539 . S
C3471 H3485 0.958 . S
C3471 H3486 0.961 . S
C3471 H3487 0.960 . S
H3472 C3456 0.931 . S
H3473 C3461 0.929 . S
H3474 C3462 0.960 . S
H3475 C3462 0.962 . S
H3476 C3462 0.960 . S
H3477 C3463 0.961 . S
H3478 C3463 0.961 . S
H3479 C3463 0.961 . S
H3480 C3464 0.931 . S
H3481 C3469 0.930 . S
H3482 C3470 0.956 . S
H3483 C3470 0.961 . S
H3484 C3470 0.961 . S
H3485 C3471 0.958 . S
H3486 C3471 0.961 . S
H3487 C3471 0.960 . S
C3488 C3489 1.391 . S
C3488 C3490 1.394 . S
C3488 H3504 0.931 . S
C3489 C3488 1.391 . S
C3489 C3493 1.376 . S
C3490 C3488 1.394 . S
C3490 C3491 1.369 1_556 S
C3490 C3494 1.530 1_546 S
C3491 C3490 1.369 1_554 S
C3491 C3492 1.410 . S
C3491 C3499 1.503 1_545 S
C3492 C3491 1.410 . S
C3492 C3493 1.392 1_554 S
C3492 C3495 1.511 . S
C3493 C3489 1.376 . S
C3493 C3492 1.392 1_556 S
C3493 H3505 0.929 . S
C3494 C3490 1.530 1_564 S
C3494 H3506 0.962 . S
C3494 H3507 0.995 . S
C3494 H3508 0.956 1_554 S
C3495 C3492 1.511 . S
C3495 H3509 0.961 . S
C3495 H3510 0.961 . S
C3495 H3511 0.961 . S
C3496 C3497 1.370 . S
C3496 C3498 1.396 . S
C3496 H3512 0.931 . S
C3497 C3496 1.370 . S
C3497 C3501 1.408 . S
C3498 C3496 1.396 . S
C3498 C3499 1.394 . S
C3498 C3502 1.470 1_565 S
C3499 C3491 1.503 1_565 S
C3499 C3498 1.394 . S
C3499 C3500 1.403 . S
C3500 C3499 1.403 . S
C3500 C3501 1.404 . S
C3500 C3503 1.539 . S
C3501 C3497 1.408 . S
C3501 C3500 1.404 . S
C3501 H3513 0.930 . S
C3502 C3498 1.470 1_545 S
C3502 H3514 0.956 . S
C3502 H3515 0.961 . S
C3502 H3516 0.961 . S
C3503 C3500 1.539 . S
C3503 H3517 0.958 1_554 S
C3503 H3518 0.961 . S
C3503 H3519 0.960 1_554 S
H3504 C3488 0.931 . S
H3505 C3493 0.929 . S
H3506 C3494 0.962 . S
H3507 C3494 0.995 . S
H3508 C3494 0.956 1_556 S
H3509 C3495 0.961 . S
H3510 C3495 0.961 . S
H3511 C3495 0.961 . S
H3512 C3496 0.931 . S
H3513 C3501 0.930 . S
H3514 C3502 0.956 . S
H3515 C3502 0.961 . S
H3516 C3502 0.961 . S
H3517 C3503 0.958 1_556 S
H3518 C3503 0.961 . S
H3519 C3503 0.960 1_556 S
C3520 C3521 1.391 . S
C3520 C3522 1.394 . S
C3520 H3536 0.931 . S
C3521 C3520 1.391 . S
C3521 C3525 1.376 . S
C3522 C3520 1.394 . S
C3522 C3523 1.369 . S
C3522 C3526 1.531 . S
C3523 C3522 1.369 . S
C3523 C3524 1.410 . S
C3523 C3531 1.503 . S
C3524 C3523 1.410 . S
C3524 C3525 1.392 . S
C3524 C3527 1.511 . S
C3525 C3521 1.376 . S
C3525 C3524 1.392 . S
C3525 H3537 0.929 . S
C3526 C3522 1.531 . S
C3526 H3538 0.960 . S
C3526 H3539 0.962 . S
C3526 H3540 0.960 . S
C3527 C3524 1.511 . S
C3527 H3541 0.961 . S
C3527 H3542 0.961 . S
C3527 H3543 0.961 . S
C3528 C3529 1.370 . S
C3528 C3530 1.363 . S
C3528 H3544 0.931 . S
C3529 C3528 1.370 . S
C3529 C3533 1.408 . S
C3530 C3528 1.363 . S
C3530 C3531 1.370 . S
C3530 C3534 1.524 . S
C3531 C3523 1.503 . S
C3531 C3530 1.370 . S
C3531 C3532 1.403 . S
C3532 C3531 1.403 . S
C3532 C3533 1.404 . S
C3532 C3535 1.539 . S
C3533 C3529 1.408 . S
C3533 C3532 1.404 . S
C3533 H3545 0.930 . S
C3534 C3530 1.524 . S
C3534 H3546 0.956 . S
C3534 H3547 0.961 . S
C3534 H3548 0.961 . S
C3535 C3532 1.539 . S
C3535 H3549 0.958 . S
C3535 H3550 0.961 . S
C3535 H3551 0.960 . S
H3536 C3520 0.931 . S
H3537 C3525 0.929 . S
H3538 C3526 0.960 . S
H3539 C3526 0.962 . S
H3540 C3526 0.960 . S
H3541 C3527 0.961 . S
H3542 C3527 0.961 . S
H3543 C3527 0.961 . S
H3544 C3528 0.931 . S
H3545 C3533 0.930 . S
H3546 C3534 0.956 . S
H3547 C3534 0.961 . S
H3548 C3534 0.961 . S
H3549 C3535 0.958 . S
H3550 C3535 0.961 . S
H3551 C3535 0.960 . S
C3552 C3553 1.391 . S
C3552 C3554 1.394 . S
C3552 H3568 0.931 . S
C3553 C3552 1.391 . S
C3553 C3557 1.376 . S
C3554 C3552 1.394 . S
C3554 C3555 1.369 . S
C3554 C3558 1.531 1_545 S
C3555 C3554 1.369 . S
C3555 C3556 1.410 . S
C3555 C3563 1.503 1_545 S
C3556 C3555 1.410 . S
C3556 C3557 1.392 . S
C3556 C3559 1.511 . S
C3557 C3553 1.376 . S
C3557 C3556 1.392 . S
C3557 H3569 0.929 . S
C3558 C3554 1.531 1_565 S
C3558 H3570 0.960 . S
C3558 H3571 0.962 . S
C3558 H3572 0.960 . S
C3559 C3556 1.511 . S
C3559 H3573 0.961 . S
C3559 H3574 0.961 . S
C3559 H3575 0.961 . S
C3560 C3561 1.370 . S
C3560 C3562 1.408 . S
C3560 H3576 0.931 . S
C3561 C3560 1.370 . S
C3561 C3565 1.408 . S
C3562 C3560 1.408 . S
C3562 C3563 1.402 . S
C3562 C3566 1.452 1_565 S
C3563 C3555 1.503 1_565 S
C3563 C3562 1.402 . S
C3563 C3564 1.403 . S
C3564 C3563 1.403 . S
C3564 C3565 1.404 . S
C3564 C3567 1.539 . S
C3565 C3561 1.408 . S
C3565 C3564 1.404 . S
C3565 H3577 0.930 . S
C3566 C3562 1.452 1_545 S
C3566 H3578 0.956 . S
C3566 H3579 0.961 . S
C3566 H3580 0.961 . S
C3567 C3564 1.539 . S
C3567 H3581 0.958 . S
C3567 H3582 0.961 . S
C3567 H3583 0.960 . S
H3568 C3552 0.931 . S
H3569 C3557 0.929 . S
H3570 C3558 0.960 . S
H3571 C3558 0.962 . S
H3572 C3558 0.960 . S
H3573 C3559 0.961 . S
H3574 C3559 0.961 . S
H3575 C3559 0.961 . S
H3576 C3560 0.931 . S
H3577 C3565 0.930 . S
H3578 C3566 0.956 . S
H3579 C3566 0.961 . S
H3580 C3566 0.961 . S
H3581 C3567 0.958 . S
H3582 C3567 0.961 . S
H3583 C3567 0.960 . S
C3584 C3585 1.391 . S
C3584 C3586 1.394 . S
C3584 H3600 0.931 . S
C3585 C3584 1.391 . S
C3585 C3589 1.376 . S
C3586 C3584 1.394 . S
C3586 C3587 1.369 . S
C3586 C3590 1.531 . S
C3587 C3586 1.369 . S
C3587 C3588 1.410 . S
C3587 C3595 1.503 . S
C3588 C3587 1.410 . S
C3588 C3589 1.392 . S
C3588 C3591 1.511 . S
C3589 C3585 1.376 . S
C3589 C3588 1.392 . S
C3589 H3601 0.929 . S
C3590 C3586 1.531 . S
C3590 H3602 0.960 . S
C3590 H3603 0.962 . S
C3590 H3604 0.960 . S
C3591 C3588 1.511 . S
C3591 H3605 0.961 . S
C3591 H3606 0.961 . S
C3591 H3607 0.961 . S
C3592 C3593 1.370 . S
C3592 C3594 1.363 . S
C3592 H3608 0.931 . S
C3593 C3592 1.370 . S
C3593 C3597 1.408 . S
C3594 C3592 1.363 . S
C3594 C3595 1.370 . S
C3594 C3598 1.524 . S
C3595 C3587 1.503 . S
C3595 C3594 1.370 . S
C3595 C3596 1.403 . S
C3596 C3595 1.403 . S
C3596 C3597 1.404 . S
C3596 C3599 1.539 . S
C3597 C3593 1.408 . S
C3597 C3596 1.404 . S
C3597 H3609 0.930 . S
C3598 C3594 1.524 . S
C3598 H3610 0.956 . S
C3598 H3611 0.961 . S
C3598 H3612 0.961 . S
C3599 C3596 1.539 . S
C3599 H3613 0.958 . S
C3599 H3614 0.961 . S
C3599 H3615 0.960 . S
H3600 C3584 0.931 . S
H3601 C3589 0.929 . S
H3602 C3590 0.960 . S
H3603 C3590 0.962 . S
H3604 C3590 0.960 . S
H3605 C3591 0.961 . S
H3606 C3591 0.961 . S
H3607 C3591 0.961 . S
H3608 C3592 0.931 . S
H3609 C3597 0.930 . S
H3610 C3598 0.956 . S
H3611 C3598 0.961 . S
H3612 C3598 0.961 . S
H3613 C3599 0.958 . S
H3614 C3599 0.961 . S
H3615 C3599 0.960 . S
C3616 C3617 1.391 . S
C3616 C3618 1.394 . S
C3616 H3632 0.931 . S
C3617 C3616 1.391 . S
C3617 C3621 1.376 . S
C3618 C3616 1.394 . S
C3618 C3619 1.369 . S
C3618 C3622 1.531 . S
C3619 C3618 1.369 . S
C3619 C3620 1.410 . S
C3619 C3627 1.503 . S
C3620 C3619 1.410 . S
C3620 C3621 1.392 . S
C3620 C3623 1.511 . S
C3621 C3617 1.376 . S
C3621 C3620 1.392 . S
C3621 H3633 0.929 . S
C3622 C3618 1.531 . S
C3622 H3634 0.960 . S
C3622 H3635 0.962 . S
C3622 H3636 0.960 . S
C3623 C3620 1.511 . S
C3623 H3637 0.961 . S
C3623 H3638 0.961 . S
C3623 H3639 0.961 . S
C3624 C3625 1.370 . S
C3624 C3626 1.363 . S
C3624 H3640 0.931 . S
C3625 C3624 1.370 . S
C3625 C3629 1.408 . S
C3626 C3624 1.363 . S
C3626 C3627 1.370 . S
C3626 C3630 1.524 . S
C3627 C3619 1.503 . S
C3627 C3626 1.370 . S
C3627 C3628 1.403 . S
C3628 C3627 1.403 . S
C3628 C3629 1.404 . S
C3628 C3631 1.539 . S
C3629 C3625 1.408 . S
C3629 C3628 1.404 . S
C3629 H3641 0.930 . S
C3630 C3626 1.524 . S
C3630 H3642 0.956 . S
C3630 H3643 0.961 . S
C3630 H3644 0.961 . S
C3631 C3628 1.539 . S
C3631 H3645 0.958 . S
C3631 H3646 0.961 . S
C3631 H3647 0.960 . S
H3632 C3616 0.931 . S
H3633 C3621 0.929 . S
H3634 C3622 0.960 . S
H3635 C3622 0.962 . S
H3636 C3622 0.960 . S
H3637 C3623 0.961 . S
H3638 C3623 0.961 . S
H3639 C3623 0.961 . S
H3640 C3624 0.931 . S
H3641 C3629 0.930 . S
H3642 C3630 0.956 . S
H3643 C3630 0.961 . S
H3644 C3630 0.961 . S
H3645 C3631 0.958 . S
H3646 C3631 0.961 . S
H3647 C3631 0.960 . S
C3648 C3649 1.391 . S
C3648 C3650 1.394 . S
C3648 H3664 0.931 . S
C3649 C3648 1.391 . S
C3649 C3653 1.376 . S
C3650 C3648 1.394 . S
C3650 C3651 1.369 . S
C3650 C3654 1.531 . S
C3651 C3650 1.369 . S
C3651 C3652 1.410 . S
C3651 C3659 1.503 . S
C3652 C3651 1.410 . S
C3652 C3653 1.392 . S
C3652 C3655 1.511 . S
C3653 C3649 1.376 . S
C3653 C3652 1.392 . S
C3653 H3665 0.929 . S
C3654 C3650 1.531 . S
C3654 H3666 0.960 . S
C3654 H3667 0.962 . S
C3654 H3668 0.960 . S
C3655 C3652 1.511 . S
C3655 H3669 0.961 . S
C3655 H3670 0.961 . S
C3655 H3671 0.961 . S
C3656 C3657 1.370 . S
C3656 C3658 1.363 . S
C3656 H3672 0.931 . S
C3657 C3656 1.370 . S
C3657 C3661 1.408 . S
C3658 C3656 1.363 . S
C3658 C3659 1.370 . S
C3658 C3662 1.524 . S
C3659 C3651 1.503 . S
C3659 C3658 1.370 . S
C3659 C3660 1.403 . S
C3660 C3659 1.403 . S
C3660 C3661 1.404 . S
C3660 C3663 1.539 . S
C3661 C3657 1.408 . S
C3661 C3660 1.404 . S
C3661 H3673 0.930 . S
C3662 C3658 1.524 . S
C3662 H3674 0.956 . S
C3662 H3675 0.961 . S
C3662 H3676 0.961 . S
C3663 C3660 1.539 . S
C3663 H3677 0.958 . S
C3663 H3678 0.961 . S
C3663 H3679 0.960 . S
H3664 C3648 0.931 . S
H3665 C3653 0.929 . S
H3666 C3654 0.960 . S
H3667 C3654 0.962 . S
H3668 C3654 0.960 . S
H3669 C3655 0.961 . S
H3670 C3655 0.961 . S
H3671 C3655 0.961 . S
H3672 C3656 0.931 . S
H3673 C3661 0.930 . S
H3674 C3662 0.956 . S
H3675 C3662 0.961 . S
H3676 C3662 0.961 . S
H3677 C3663 0.958 . S
H3678 C3663 0.961 . S
H3679 C3663 0.960 . S
C3680 C3681 1.391 . S
C3680 C3682 1.394 . S
C3680 H3696 0.931 . S
C3681 C3680 1.391 . S
C3681 C3685 1.376 . S
C3682 C3680 1.394 . S
C3682 C3683 1.369 . S
C3682 C3686 1.531 . S
C3683 C3682 1.369 . S
C3683 C3684 1.410 . S
C3683 C3691 1.503 . S
C3684 C3683 1.410 . S
C3684 C3685 1.392 . S
C3684 C3687 1.511 . S
C3685 C3681 1.376 . S
C3685 C3684 1.392 . S
C3685 H3697 0.929 . S
C3686 C3682 1.531 . S
C3686 H3698 0.960 . S
C3686 H3699 0.962 . S
C3686 H3700 0.960 . S
C3687 C3684 1.511 . S
C3687 H3701 0.961 . S
C3687 H3702 0.961 . S
C3687 H3703 0.961 . S
C3688 C3689 1.370 . S
C3688 C3690 1.363 1_556 S
C3688 H3704 0.931 . S
C3689 C3688 1.370 . S
C3689 C3693 1.408 . S
C3690 C3688 1.363 1_554 S
C3690 C3691 1.370 . S
C3690 C3694 1.524 . S
C3691 C3683 1.503 . S
C3691 C3690 1.370 . S
C3691 C3692 1.403 1_554 S
C3692 C3691 1.403 1_556 S
C3692 C3693 1.404 . S
C3692 C3695 1.539 . S
C3693 C3689 1.408 . S
C3693 C3692 1.404 . S
C3693 H3705 0.930 . S
C3694 C3690 1.524 . S
C3694 H3706 0.956 . S
C3694 H3707 0.961 . S
C3694 H3708 0.961 . S
C3695 C3692 1.539 . S
C3695 H3709 0.958 . S
C3695 H3710 0.961 . S
C3695 H3711 0.960 . S
H3696 C3680 0.931 . S
H3697 C3685 0.929 . S
H3698 C3686 0.960 . S
H3699 C3686 0.962 . S
H3700 C3686 0.960 . S
H3701 C3687 0.961 . S
H3702 C3687 0.961 . S
H3703 C3687 0.961 . S
H3704 C3688 0.931 . S
H3705 C3693 0.930 . S
H3706 C3694 0.956 . S
H3707 C3694 0.961 . S
H3708 C3694 0.961 . S
H3709 C3695 0.958 . S
H3710 C3695 0.961 . S
H3711 C3695 0.960 . S
C3712 C3713 1.391 . S
C3712 C3714 1.394 . S
C3712 H3728 0.931 . S
C3713 C3712 1.391 . S
C3713 C3717 1.376 . S
C3714 C3712 1.394 . S
C3714 C3715 1.369 . S
C3714 C3718 1.531 . S
C3715 C3714 1.369 . S
C3715 C3716 1.410 . S
C3715 C3723 1.503 . S
C3716 C3715 1.410 . S
C3716 C3717 1.392 . S
C3716 C3719 1.511 . S
C3717 C3713 1.376 . S
C3717 C3716 1.392 . S
C3717 H3729 0.929 . S
C3718 C3714 1.531 . S
C3718 H3730 0.960 . S
C3718 H3731 0.962 . S
C3718 H3732 0.960 . S
C3719 C3716 1.511 . S
C3719 H3733 0.961 . S
C3719 H3734 0.961 . S
C3719 H3735 0.961 . S
C3720 C3721 1.370 . S
C3720 C3722 1.363 . S
C3720 H3736 0.931 . S
C3721 C3720 1.370 . S
C3721 C3725 1.408 . S
C3722 C3720 1.363 . S
C3722 C3723 1.370 . S
C3722 C3726 1.524 . S
C3723 C3715 1.503 . S
C3723 C3722 1.370 . S
C3723 C3724 1.403 . S
C3724 C3723 1.403 . S
C3724 C3725 1.404 . S
C3724 C3727 1.539 . S
C3725 C3721 1.408 . S
C3725 C3724 1.404 . S
C3725 H3737 0.930 . S
C3726 C3722 1.524 . S
C3726 H3738 0.956 . S
C3726 H3739 0.961 . S
C3726 H3740 0.961 . S
C3727 C3724 1.539 . S
C3727 H3741 0.958 . S
C3727 H3742 0.961 . S
C3727 H3743 0.960 . S
H3728 C3712 0.931 . S
H3729 C3717 0.929 . S
H3730 C3718 0.960 . S
H3731 C3718 0.962 . S
H3732 C3718 0.960 . S
H3733 C3719 0.961 . S
H3734 C3719 0.961 . S
H3735 C3719 0.961 . S
H3736 C3720 0.931 . S
H3737 C3725 0.930 . S
H3738 C3726 0.956 . S
H3739 C3726 0.961 . S
H3740 C3726 0.961 . S
H3741 C3727 0.958 . S
H3742 C3727 0.961 . S
H3743 C3727 0.960 . S
C3744 C3745 1.391 . S
C3744 C3746 1.394 . S
C3744 H3760 0.931 . S
C3745 C3744 1.391 . S
C3745 C3749 1.376 . S
C3746 C3744 1.394 . S
C3746 C3747 1.369 . S
C3746 C3750 1.531 . S
C3747 C3746 1.369 . S
C3747 C3748 1.410 . S
C3747 C3755 1.503 . S
C3748 C3747 1.410 . S
C3748 C3749 1.392 . S
C3748 C3751 1.511 . S
C3749 C3745 1.376 . S
C3749 C3748 1.392 . S
C3749 H3761 0.929 . S
C3750 C3746 1.531 . S
C3750 H3762 0.960 . S
C3750 H3763 0.962 . S
C3750 H3764 0.960 . S
C3751 C3748 1.511 . S
C3751 H3765 0.961 . S
C3751 H3766 0.961 . S
C3751 H3767 0.961 . S
C3752 C3753 1.370 . S
C3752 C3754 1.363 . S
C3752 H3768 0.931 . S
C3753 C3752 1.370 . S
C3753 C3757 1.408 . S
C3754 C3752 1.363 . S
C3754 C3755 1.370 . S
C3754 C3758 1.524 . S
C3755 C3747 1.503 . S
C3755 C3754 1.370 . S
C3755 C3756 1.403 . S
C3756 C3755 1.403 . S
C3756 C3757 1.404 . S
C3756 C3759 1.539 . S
C3757 C3753 1.408 . S
C3757 C3756 1.404 . S
C3757 H3769 0.930 . S
C3758 C3754 1.524 . S
C3758 H3770 0.956 . S
C3758 H3771 0.961 . S
C3758 H3772 0.961 . S
C3759 C3756 1.539 . S
C3759 H3773 0.958 . S
C3759 H3774 0.961 . S
C3759 H3775 0.960 . S
H3760 C3744 0.931 . S
H3761 C3749 0.929 . S
H3762 C3750 0.960 . S
H3763 C3750 0.962 . S
H3764 C3750 0.960 . S
H3765 C3751 0.961 . S
H3766 C3751 0.961 . S
H3767 C3751 0.961 . S
H3768 C3752 0.931 . S
H3769 C3757 0.930 . S
H3770 C3758 0.956 . S
H3771 C3758 0.961 . S
H3772 C3758 0.961 . S
H3773 C3759 0.958 . S
H3774 C3759 0.961 . S
H3775 C3759 0.960 . S
C3776 C3777 1.391 . S
C3776 C3778 1.394 . S
C3776 H3792 0.931 . S
C3777 C3776 1.391 . S
C3777 C3781 1.376 . S
C3778 C3776 1.394 . S
C3778 C3779 1.369 . S
C3778 C3782 1.531 . S
C3779 C3778 1.369 . S
C3779 C3780 1.410 . S
C3779 C3787 1.503 . S
C3780 C3779 1.410 . S
C3780 C3781 1.392 . S
C3780 C3783 1.511 . S
C3781 C3777 1.376 . S
C3781 C3780 1.392 . S
C3781 H3793 0.929 . S
C3782 C3778 1.531 . S
C3782 H3794 0.960 . S
C3782 H3795 0.962 . S
C3782 H3796 0.960 . S
C3783 C3780 1.511 . S
C3783 H3797 0.961 . S
C3783 H3798 0.961 . S
C3783 H3799 0.961 . S
C3784 C3785 1.370 . S
C3784 C3786 1.363 . S
C3784 H3800 0.931 . S
C3785 C3784 1.370 . S
C3785 C3789 1.408 . S
C3786 C3784 1.363 . S
C3786 C3787 1.370 . S
C3786 C3790 1.524 . S
C3787 C3779 1.503 . S
C3787 C3786 1.370 . S
C3787 C3788 1.403 . S
C3788 C3787 1.403 . S
C3788 C3789 1.404 . S
C3788 C3791 1.539 . S
C3789 C3785 1.408 . S
C3789 C3788 1.404 . S
C3789 H3801 0.930 . S
C3790 C3786 1.524 . S
C3790 H3802 0.956 . S
C3790 H3803 0.961 . S
C3790 H3804 0.961 . S
C3791 C3788 1.539 . S
C3791 H3805 0.958 . S
C3791 H3806 0.961 . S
C3791 H3807 0.960 . S
H3792 C3776 0.931 . S
H3793 C3781 0.929 . S
H3794 C3782 0.960 . S
H3795 C3782 0.962 . S
H3796 C3782 0.960 . S
H3797 C3783 0.961 . S
H3798 C3783 0.961 . S
H3799 C3783 0.961 . S
H3800 C3784 0.931 . S
H3801 C3789 0.930 . S
H3802 C3790 0.956 . S
H3803 C3790 0.961 . S
H3804 C3790 0.961 . S
H3805 C3791 0.958 . S
H3806 C3791 0.961 . S
H3807 C3791 0.960 . S
C3808 C3809 1.391 . S
C3808 C3810 1.394 . S
C3808 H3824 0.931 . S
C3809 C3808 1.391 . S
C3809 C3813 1.376 . S
C3810 C3808 1.394 . S
C3810 C3811 1.369 . S
C3810 C3814 1.531 . S
C3811 C3810 1.369 . S
C3811 C3812 1.410 . S
C3811 C3819 1.503 . S
C3812 C3811 1.410 . S
C3812 C3813 1.392 . S
C3812 C3815 1.511 . S
C3813 C3809 1.376 . S
C3813 C3812 1.392 . S
C3813 H3825 0.929 . S
C3814 C3810 1.531 . S
C3814 H3826 0.960 1_554 S
C3814 H3827 0.962 . S
C3814 H3828 0.960 . S
C3815 C3812 1.511 . S
C3815 H3829 0.961 . S
C3815 H3830 0.961 . S
C3815 H3831 0.961 . S
C3816 C3817 1.370 . S
C3816 C3818 1.363 1_556 S
C3816 H3832 0.931 . S
C3817 C3816 1.370 . S
C3817 C3821 1.408 . S
C3818 C3816 1.363 1_554 S
C3818 C3819 1.370 . S
C3818 C3822 1.524 . S
C3819 C3811 1.503 . S
C3819 C3818 1.370 . S
C3819 C3820 1.403 1_554 S
C3820 C3819 1.403 1_556 S
C3820 C3821 1.404 . S
C3820 C3823 1.539 . S
C3821 C3817 1.408 . S
C3821 C3820 1.404 . S
C3821 H3833 0.930 . S
C3822 C3818 1.524 . S
C3822 H3834 0.956 . S
C3822 H3835 0.961 . S
C3822 H3836 0.961 . S
C3823 C3820 1.539 . S
C3823 H3837 0.958 . S
C3823 H3838 0.961 . S
C3823 H3839 0.960 1_556 S
H3824 C3808 0.931 . S
H3825 C3813 0.929 . S
H3826 C3814 0.960 1_556 S
H3827 C3814 0.962 . S
H3828 C3814 0.960 . S
H3829 C3815 0.961 . S
H3830 C3815 0.961 . S
H3831 C3815 0.961 . S
H3832 C3816 0.931 . S
H3833 C3821 0.930 . S
H3834 C3822 0.956 . S
H3835 C3822 0.961 . S
H3836 C3822 0.961 . S
H3837 C3823 0.958 . S
H3838 C3823 0.961 . S
H3839 C3823 0.960 1_554 S
C3840 C3841 1.391 . S
C3840 C3842 1.394 . S
C3840 H3856 0.931 . S
C3841 C3840 1.391 . S
C3841 C3845 1.376 . S
C3842 C3840 1.394 . S
C3842 C3843 1.369 . S
C3842 C3846 1.531 . S
C3843 C3842 1.369 . S
C3843 C3844 1.410 . S
C3843 C3851 1.503 . S
C3844 C3843 1.410 . S
C3844 C3845 1.392 . S
C3844 C3847 1.511 . S
C3845 C3841 1.376 . S
C3845 C3844 1.392 . S
C3845 H3857 0.929 . S
C3846 C3842 1.531 . S
C3846 H3858 0.960 . S
C3846 H3859 0.962 1_554 S
C3846 H3860 0.960 . S
C3847 C3844 1.511 . S
C3847 H3861 0.961 . S
C3847 H3862 0.961 . S
C3847 H3863 0.961 . S
C3848 C3849 1.370 1_556 S
C3848 C3850 1.363 . S
C3848 H3864 0.931 . S
C3849 C3848 1.370 1_554 S
C3849 C3853 1.408 . S
C3850 C3848 1.363 . S
C3850 C3851 1.370 1_556 S
C3850 C3854 1.524 . S
C3851 C3843 1.503 . S
C3851 C3850 1.370 1_554 S
C3851 C3852 1.403 . S
C3852 C3851 1.403 . S
C3852 C3853 1.404 . S
C3852 C3855 1.539 . S
C3853 C3849 1.408 . S
C3853 C3852 1.404 . S
C3853 H3865 0.930 . S
C3854 C3850 1.524 . S
C3854 H3866 0.956 . S
C3854 H3867 0.961 . S
C3854 H3868 0.961 . S
C3855 C3852 1.539 . S
C3855 H3869 0.958 . S
C3855 H3870 0.961 . S
C3855 H3871 0.960 . S
H3856 C3840 0.931 . S
H3857 C3845 0.929 . S
H3858 C3846 0.960 . S
H3859 C3846 0.962 1_556 S
H3860 C3846 0.960 . S
H3861 C3847 0.961 . S
H3862 C3847 0.961 . S
H3863 C3847 0.961 . S
H3864 C3848 0.931 . S
H3865 C3853 0.930 . S
H3866 C3854 0.956 . S
H3867 C3854 0.961 . S
H3868 C3854 0.961 . S
H3869 C3855 0.958 . S
H3870 C3855 0.961 . S
H3871 C3855 0.960 . S
C3872 C3873 1.391 . S
C3872 C3874 1.394 . S
C3872 H3888 0.931 . S
C3873 C3872 1.391 . S
C3873 C3877 1.376 . S
C3874 C3872 1.394 . S
C3874 C3875 1.369 . S
C3874 C3878 1.531 . S
C3875 C3874 1.369 . S
C3875 C3876 1.410 . S
C3875 C3883 1.503 1_455 S
C3876 C3875 1.410 . S
C3876 C3877 1.392 . S
C3876 C3879 1.511 . S
C3877 C3873 1.376 . S
C3877 C3876 1.392 . S
C3877 H3889 0.929 . S
C3878 C3874 1.531 . S
C3878 H3890 0.877 1_455 S
C3878 H3891 0.962 . S
C3878 H3892 0.960 . S
C3879 C3876 1.511 . S
C3879 H3893 0.961 . S
C3879 H3894 0.961 1_455 S
C3879 H3895 0.961 . S
C3880 C3881 1.370 . S
C3880 C3882 1.363 . S
C3880 H3896 0.931 . S
C3881 C3880 1.370 . S
C3881 C3885 1.408 . S
C3882 C3880 1.363 . S
C3882 C3883 1.370 . S
C3882 C3886 1.524 . S
C3883 C3875 1.503 1_655 S
C3883 C3882 1.370 . S
C3883 C3884 1.403 . S
C3884 C3883 1.403 . S
C3884 C3885 1.404 . S
C3884 C3887 1.539 . S
C3885 C3881 1.408 . S
C3885 C3884 1.404 . S
C3885 H3897 0.930 . S
C3886 C3882 1.524 . S
C3886 H3898 0.980 . S
C3886 H3899 0.923 1_655 S
C3886 H3900 0.961 . S
C3887 C3884 1.539 . S
C3887 H3901 0.958 . S
C3887 H3902 0.961 . S
C3887 H3903 0.963 . S
H3888 C3872 0.931 . S
H3889 C3877 0.929 . S
H3890 C3878 0.877 1_655 S
H3891 C3878 0.962 . S
H3892 C3878 0.960 . S
H3893 C3879 0.961 . S
H3894 C3879 0.961 1_655 S
H3895 C3879 0.961 . S
H3896 C3880 0.931 . S
H3897 C3885 0.930 . S
H3898 C3886 0.980 . S
H3899 C3886 0.923 1_455 S
H3900 C3886 0.961 . S
H3901 C3887 0.958 . S
H3902 C3887 0.961 . S
H3903 C3887 0.963 . S
C3904 C3905 1.391 . S
C3904 C3906 1.394 . S
C3904 H3920 0.931 . S
C3905 C3904 1.391 . S
C3905 C3909 1.376 . S
C3906 C3904 1.394 . S
C3906 C3907 1.369 . S
C3906 C3910 1.531 . S
C3907 C3906 1.369 . S
C3907 C3908 1.410 . S
C3907 C3915 1.503 . S
C3908 C3907 1.410 . S
C3908 C3909 1.392 . S
C3908 C3911 1.511 . S
C3909 C3905 1.376 . S
C3909 C3908 1.392 . S
C3909 H3921 0.929 . S
C3910 C3906 1.531 . S
C3910 H3922 0.960 . S
C3910 H3923 0.962 . S
C3910 H3924 0.960 . S
C3911 C3908 1.511 . S
C3911 H3925 0.961 . S
C3911 H3926 0.961 . S
C3911 H3927 0.961 . S
C3912 C3913 1.370 . S
C3912 C3914 1.363 . S
C3912 H3928 0.931 . S
C3913 C3912 1.370 . S
C3913 C3917 1.408 . S
C3914 C3912 1.363 . S
C3914 C3915 1.370 . S
C3914 C3918 1.524 . S
C3915 C3907 1.503 . S
C3915 C3914 1.370 . S
C3915 C3916 1.403 . S
C3916 C3915 1.403 . S
C3916 C3917 1.404 . S
C3916 C3919 1.539 . S
C3917 C3913 1.408 . S
C3917 C3916 1.404 . S
C3917 H3929 0.930 . S
C3918 C3914 1.524 . S
C3918 H3930 0.956 . S
C3918 H3931 0.961 . S
C3918 H3932 0.961 . S
C3919 C3916 1.539 . S
C3919 H3933 0.958 . S
C3919 H3934 0.961 . S
C3919 H3935 0.960 . S
H3920 C3904 0.931 . S
H3921 C3909 0.929 . S
H3922 C3910 0.960 . S
H3923 C3910 0.962 . S
H3924 C3910 0.960 . S
H3925 C3911 0.961 . S
H3926 C3911 0.961 . S
H3927 C3911 0.961 . S
H3928 C3912 0.931 . S
H3929 C3917 0.930 . S
H3930 C3918 0.956 . S
H3931 C3918 0.961 . S
H3932 C3918 0.961 . S
H3933 C3919 0.958 . S
H3934 C3919 0.961 . S
H3935 C3919 0.960 . S
C3936 C3937 1.391 . S
C3936 C3938 1.394 . S
C3936 H3952 0.931 . S
C3937 C3936 1.391 . S
C3937 C3941 1.376 . S
C3938 C3936 1.394 . S
C3938 C3939 1.369 . S
C3938 C3942 1.531 . S
C3939 C3938 1.369 . S
C3939 C3940 1.410 . S
C3939 C3947 1.503 . S
C3940 C3939 1.410 . S
C3940 C3941 1.392 . S
C3940 C3943 1.511 . S
C3941 C3937 1.376 . S
C3941 C3940 1.392 . S
C3941 H3953 0.929 . S
C3942 C3938 1.531 . S
C3942 H3954 0.960 . S
C3942 H3955 0.962 . S
C3942 H3956 0.960 . S
C3943 C3940 1.511 . S
C3943 H3957 0.961 . S
C3943 H3958 0.961 . S
C3943 H3959 0.961 . S
C3944 C3945 1.370 . S
C3944 C3946 1.363 . S
C3944 H3960 0.931 . S
C3945 C3944 1.370 . S
C3945 C3949 1.408 . S
C3946 C3944 1.363 . S
C3946 C3947 1.370 . S
C3946 C3950 1.524 . S
C3947 C3939 1.503 . S
C3947 C3946 1.370 . S
C3947 C3948 1.403 . S
C3948 C3947 1.403 . S
C3948 C3949 1.404 . S
C3948 C3951 1.539 . S
C3949 C3945 1.408 . S
C3949 C3948 1.404 . S
C3949 H3961 0.930 . S
C3950 C3946 1.524 . S
C3950 H3962 0.956 . S
C3950 H3963 0.961 . S
C3950 H3964 0.961 . S
C3951 C3948 1.539 . S
C3951 H3965 0.958 . S
C3951 H3966 0.961 . S
C3951 H3967 0.960 . S
H3952 C3936 0.931 . S
H3953 C3941 0.929 . S
H3954 C3942 0.960 . S
H3955 C3942 0.962 . S
H3956 C3942 0.960 . S
H3957 C3943 0.961 . S
H3958 C3943 0.961 . S
H3959 C3943 0.961 . S
H3960 C3944 0.931 . S
H3961 C3949 0.930 . S
H3962 C3950 0.956 . S
H3963 C3950 0.961 . S
H3964 C3950 0.961 . S
H3965 C3951 0.958 . S
H3966 C3951 0.961 . S
H3967 C3951 0.960 . S
C3968 C3969 1.391 . S
C3968 C3970 1.394 . S
C3968 H3984 0.931 . S
C3969 C3968 1.391 . S
C3969 C3973 1.376 . S
C3970 C3968 1.394 . S
C3970 C3971 1.369 . S
C3970 C3974 1.531 . S
C3971 C3970 1.369 . S
C3971 C3972 1.410 . S
C3971 C3979 1.503 . S
C3972 C3971 1.410 . S
C3972 C3973 1.392 . S
C3972 C3975 1.511 . S
C3973 C3969 1.376 . S
C3973 C3972 1.392 . S
C3973 H3985 0.929 . S
C3974 C3970 1.531 . S
C3974 H3986 0.960 1_554 S
C3974 H3987 0.962 . S
C3974 H3988 0.960 1_554 S
C3975 C3972 1.511 . S
C3975 H3989 0.961 . S
C3975 H3990 0.961 . S
C3975 H3991 0.961 . S
C3976 C3977 1.370 . S
C3976 C3978 1.363 . S
C3976 H3992 0.931 . S
C3977 C3976 1.370 . S
C3977 C3981 1.408 . S
C3978 C3976 1.363 . S
C3978 C3979 1.370 . S
C3978 C3982 1.524 . S
C3979 C3971 1.503 . S
C3979 C3978 1.370 . S
C3979 C3980 1.403 . S
C3980 C3979 1.403 . S
C3980 C3981 1.404 . S
C3980 C3983 1.539 1_554 S
C3981 C3977 1.408 . S
C3981 C3980 1.404 . S
C3981 H3993 0.930 . S
C3982 C3978 1.524 . S
C3982 H3994 0.956 . S
C3982 H3995 0.961 . S
C3982 H3996 0.961 . S
C3983 C3980 1.539 1_556 S
C3983 H3997 0.958 . S
C3983 H3998 0.961 . S
C3983 H3999 0.960 . S
H3984 C3968 0.931 . S
H3985 C3973 0.929 . S
H3986 C3974 0.960 1_556 S
H3987 C3974 0.962 . S
H3988 C3974 0.960 1_556 S
H3989 C3975 0.961 . S
H3990 C3975 0.961 . S
H3991 C3975 0.961 . S
H3992 C3976 0.931 . S
H3993 C3981 0.930 . S
H3994 C3982 0.956 . S
H3995 C3982 0.961 . S
H3996 C3982 0.961 . S
H3997 C3983 0.958 . S
H3998 C3983 0.961 . S
H3999 C3983 0.960 . S
C4000 C4001 1.391 . S
C4000 C4002 1.394 . S
C4000 H4016 0.931 . S
C4001 C4000 1.391 . S
C4001 C4005 1.376 . S
C4002 C4000 1.394 . S
C4002 C4003 1.369 . S
C4002 C4006 1.531 . S
C4003 C4002 1.369 . S
C4003 C4004 1.410 . S
C4003 C4011 1.503 . S
C4004 C4003 1.410 . S
C4004 C4005 1.392 . S
C4004 C4007 1.511 . S
C4005 C4001 1.376 . S
C4005 C4004 1.392 . S
C4005 H4017 0.929 . S
C4006 C4002 1.531 . S
C4006 H4018 0.960 . S
C4006 H4019 0.962 . S
C4006 H4020 0.960 . S
C4007 C4004 1.511 . S
C4007 H4021 0.961 . S
C4007 H4022 0.961 . S
C4007 H4023 0.961 . S
C4008 C4009 1.370 . S
C4008 C4010 1.363 . S
C4008 H4024 0.931 . S
C4009 C4008 1.370 . S
C4009 C4013 1.408 . S
C4010 C4008 1.363 . S
C4010 C4011 1.370 . S
C4010 C4014 1.524 . S
C4011 C4003 1.503 . S
C4011 C4010 1.370 . S
C4011 C4012 1.403 . S
C4012 C4011 1.403 . S
C4012 C4013 1.404 . S
C4012 C4015 1.539 . S
C4013 C4009 1.408 . S
C4013 C4012 1.404 . S
C4013 H4025 0.930 . S
C4014 C4010 1.524 . S
C4014 H4026 0.956 . S
C4014 H4027 0.961 . S
C4014 H4028 0.961 . S
C4015 C4012 1.539 . S
C4015 H4029 0.958 . S
C4015 H4030 0.961 . S
C4015 H4031 0.960 . S
H4016 C4000 0.931 . S
H4017 C4005 0.929 . S
H4018 C4006 0.960 . S
H4019 C4006 0.962 . S
H4020 C4006 0.960 . S
H4021 C4007 0.961 . S
H4022 C4007 0.961 . S
H4023 C4007 0.961 . S
H4024 C4008 0.931 . S
H4025 C4013 0.930 . S
H4026 C4014 0.956 . S
H4027 C4014 0.961 . S
H4028 C4014 0.961 . S
H4029 C4015 0.958 . S
H4030 C4015 0.961 . S
H4031 C4015 0.960 . S
C4032 C4033 1.391 . S
C4032 C4034 1.394 . S
C4032 H4048 0.931 . S
C4033 C4032 1.391 . S
C4033 C4037 1.376 . S
C4034 C4032 1.394 . S
C4034 C4035 1.369 . S
C4034 C4038 1.531 . S
C4035 C4034 1.369 . S
C4035 C4036 1.410 . S
C4035 C4043 1.503 . S
C4036 C4035 1.410 . S
C4036 C4037 1.392 . S
C4036 C4039 1.511 . S
C4037 C4033 1.376 . S
C4037 C4036 1.392 . S
C4037 H4049 0.929 . S
C4038 C4034 1.531 . S
C4038 H4050 0.960 . S
C4038 H4051 0.962 . S
C4038 H4052 0.960 . S
C4039 C4036 1.511 . S
C4039 H4053 0.961 . S
C4039 H4054 0.961 . S
C4039 H4055 0.961 . S
C4040 C4041 1.370 . S
C4040 C4042 1.363 . S
C4040 H4056 0.931 . S
C4041 C4040 1.370 . S
C4041 C4045 1.408 . S
C4042 C4040 1.363 . S
C4042 C4043 1.370 . S
C4042 C4046 1.524 . S
C4043 C4035 1.503 . S
C4043 C4042 1.370 . S
C4043 C4044 1.403 . S
C4044 C4043 1.403 . S
C4044 C4045 1.404 . S
C4044 C4047 1.539 . S
C4045 C4041 1.408 . S
C4045 C4044 1.404 . S
C4045 H4057 0.930 . S
C4046 C4042 1.524 . S
C4046 H4058 0.956 . S
C4046 H4059 0.961 . S
C4046 H4060 0.961 . S
C4047 C4044 1.539 . S
C4047 H4061 0.958 . S
C4047 H4062 0.961 . S
C4047 H4063 0.960 . S
H4048 C4032 0.931 . S
H4049 C4037 0.929 . S
H4050 C4038 0.960 . S
H4051 C4038 0.962 . S
H4052 C4038 0.960 . S
H4053 C4039 0.961 . S
H4054 C4039 0.961 . S
H4055 C4039 0.961 . S
H4056 C4040 0.931 . S
H4057 C4045 0.930 . S
H4058 C4046 0.956 . S
H4059 C4046 0.961 . S
H4060 C4046 0.961 . S
H4061 C4047 0.958 . S
H4062 C4047 0.961 . S
H4063 C4047 0.960 . S
C4064 C4065 1.391 . S
C4064 C4066 1.394 . S
C4064 H4080 0.931 . S
C4065 C4064 1.391 . S
C4065 C4069 1.376 . S
C4066 C4064 1.394 . S
C4066 C4067 1.369 . S
C4066 C4070 1.531 . S
C4067 C4066 1.369 . S
C4067 C4068 1.410 . S
C4067 C4075 1.503 1_655 S
C4068 C4067 1.410 . S
C4068 C4069 1.392 . S
C4068 C4071 1.511 . S
C4069 C4065 1.376 . S
C4069 C4068 1.392 . S
C4069 H4081 0.929 . S
C4070 C4066 1.531 . S
C4070 H4082 0.869 1_655 S
C4070 H4083 0.962 . S
C4070 H4084 0.960 . S
C4071 C4068 1.511 . S
C4071 H4085 0.961 . S
C4071 H4086 0.961 1_655 S
C4071 H4087 0.961 . S
C4072 C4073 1.370 . S
C4072 C4074 1.363 . S
C4072 H4088 0.931 . S
C4073 C4072 1.370 . S
C4073 C4077 1.408 . S
C4074 C4072 1.363 . S
C4074 C4075 1.370 . S
C4074 C4078 1.524 . S
C4075 C4067 1.503 1_455 S
C4075 C4074 1.370 . S
C4075 C4076 1.403 . S
C4076 C4075 1.403 . S
C4076 C4077 1.404 . S
C4076 C4079 1.539 . S
C4077 C4073 1.408 . S
C4077 C4076 1.404 . S
C4077 H4089 0.930 . S
C4078 C4074 1.524 . S
C4078 H4090 0.980 . S
C4078 H4091 0.920 1_455 S
C4078 H4092 0.961 . S
C4079 C4076 1.539 . S
C4079 H4093 0.958 . S
C4079 H4094 0.961 . S
C4079 H4095 0.965 . S
H4080 C4064 0.931 . S
H4081 C4069 0.929 . S
H4082 C4070 0.869 1_455 S
H4083 C4070 0.962 . S
H4084 C4070 0.960 . S
H4085 C4071 0.961 . S
H4086 C4071 0.961 1_455 S
H4087 C4071 0.961 . S
H4088 C4072 0.931 . S
H4089 C4077 0.930 . S
H4090 C4078 0.980 . S
H4091 C4078 0.920 1_655 S
H4092 C4078 0.961 . S
H4093 C4079 0.958 . S
H4094 C4079 0.961 . S
H4095 C4079 0.965 . S
C4096 C4097 1.391 . S
C4096 C4098 1.394 . S
C4096 H4112 0.931 . S
C4097 C4096 1.391 . S
C4097 C4101 1.376 . S
C4098 C4096 1.394 . S
C4098 C4099 1.369 . S
C4098 C4102 1.531 . S
C4099 C4098 1.369 . S
C4099 C4100 1.410 . S
C4099 C4107 1.503 . S
C4100 C4099 1.410 . S
C4100 C4101 1.392 . S
C4100 C4103 1.511 . S
C4101 C4097 1.376 . S
C4101 C4100 1.392 . S
C4101 H4113 0.929 . S
C4102 C4098 1.531 . S
C4102 H4114 0.960 . S
C4102 H4115 0.962 . S
C4102 H4116 0.960 . S
C4103 C4100 1.511 . S
C4103 H4117 0.961 1_554 S
C4103 H4118 0.961 . S
C4103 H4119 0.961 . S
C4104 C4105 1.370 . S
C4104 C4106 1.363 . S
C4104 H4120 0.931 . S
C4105 C4104 1.370 . S
C4105 C4109 1.408 . S
C4106 C4104 1.363 . S
C4106 C4107 1.370 . S
C4106 C4110 1.524 . S
C4107 C4099 1.503 . S
C4107 C4106 1.370 . S
C4107 C4108 1.403 . S
C4108 C4107 1.403 . S
C4108 C4109 1.404 . S
C4108 C4111 1.539 . S
C4109 C4105 1.408 . S
C4109 C4108 1.404 . S
C4109 H4121 0.930 . S
C4110 C4106 1.524 . S
C4110 H4122 0.956 . S
C4110 H4123 0.961 1_554 S
C4110 H4124 0.961 1_554 S
C4111 C4108 1.539 . S
C4111 H4125 0.958 . S
C4111 H4126 0.961 . S
C4111 H4127 0.960 . S
H4112 C4096 0.931 . S
H4113 C4101 0.929 . S
H4114 C4102 0.960 . S
H4115 C4102 0.962 . S
H4116 C4102 0.960 . S
H4117 C4103 0.961 1_556 S
H4118 C4103 0.961 . S
H4119 C4103 0.961 . S
H4120 C4104 0.931 . S
H4121 C4109 0.930 . S
H4122 C4110 0.956 . S
H4123 C4110 0.961 1_556 S
H4124 C4110 0.961 1_556 S
H4125 C4111 0.958 . S
H4126 C4111 0.961 . S
H4127 C4111 0.960 . S
C4128 C4129 1.391 . S
C4128 C4130 1.394 . S
C4128 H4144 0.931 . S
C4129 C4128 1.391 . S
C4129 C4133 1.376 . S
C4130 C4128 1.394 . S
C4130 C4131 1.369 . S
C4130 C4134 1.531 . S
C4131 C4130 1.369 . S
C4131 C4132 1.410 . S
C4131 C4139 1.503 . S
C4132 C4131 1.410 . S
C4132 C4133 1.392 . S
C4132 C4135 1.511 . S
C4133 C4129 1.376 . S
C4133 C4132 1.392 . S
C4133 H4145 0.929 . S
C4134 C4130 1.531 . S
C4134 H4146 0.960 . S
C4134 H4147 0.962 . S
C4134 H4148 0.960 . S
C4135 C4132 1.511 . S
C4135 H4149 0.961 . S
C4135 H4150 0.961 . S
C4135 H4151 0.961 . S
C4136 C4137 1.370 . S
C4136 C4138 1.363 . S
C4136 H4152 0.931 . S
C4137 C4136 1.370 . S
C4137 C4141 1.408 . S
C4138 C4136 1.363 . S
C4138 C4139 1.370 . S
C4138 C4142 1.524 . S
C4139 C4131 1.503 . S
C4139 C4138 1.370 . S
C4139 C4140 1.403 . S
C4140 C4139 1.403 . S
C4140 C4141 1.404 . S
C4140 C4143 1.539 . S
C4141 C4137 1.408 . S
C4141 C4140 1.404 . S
C4141 H4153 0.930 . S
C4142 C4138 1.524 . S
C4142 H4154 0.956 . S
C4142 H4155 0.961 . S
C4142 H4156 0.961 . S
C4143 C4140 1.539 . S
C4143 H4157 0.958 . S
C4143 H4158 0.961 . S
C4143 H4159 0.960 . S
H4144 C4128 0.931 . S
H4145 C4133 0.929 . S
H4146 C4134 0.960 . S
H4147 C4134 0.962 . S
H4148 C4134 0.960 . S
H4149 C4135 0.961 . S
H4150 C4135 0.961 . S
H4151 C4135 0.961 . S
H4152 C4136 0.931 . S
H4153 C4141 0.930 . S
H4154 C4142 0.956 . S
H4155 C4142 0.961 . S
H4156 C4142 0.961 . S
H4157 C4143 0.958 . S
H4158 C4143 0.961 . S
H4159 C4143 0.960 . S
C4160 C4161 1.391 . S
C4160 C4162 1.394 . S
C4160 H4176 0.931 . S
C4161 C4160 1.391 . S
C4161 C4165 1.376 1_554 S
C4162 C4160 1.394 . S
C4162 C4163 1.369 . S
C4162 C4166 1.531 . S
C4163 C4162 1.369 . S
C4163 C4164 1.410 1_554 S
C4163 C4171 1.503 . S
C4164 C4163 1.410 1_556 S
C4164 C4165 1.392 . S
C4164 C4167 1.511 . S
C4165 C4161 1.376 1_556 S
C4165 C4164 1.392 . S
C4165 H4177 0.929 . S
C4166 C4162 1.531 . S
C4166 H4178 0.960 . S
C4166 H4179 0.962 . S
C4166 H4180 0.960 . S
C4167 C4164 1.511 . S
C4167 H4181 0.961 . S
C4167 H4182 0.961 . S
C4167 H4183 0.961 . S
C4168 C4169 1.370 . S
C4168 C4170 1.363 . S
C4168 H4184 0.931 . S
C4169 C4168 1.370 . S
C4169 C4173 1.408 . S
C4170 C4168 1.363 . S
C4170 C4171 1.370 . S
C4170 C4174 1.524 . S
C4171 C4163 1.503 . S
C4171 C4170 1.370 . S
C4171 C4172 1.403 . S
C4172 C4171 1.403 . S
C4172 C4173 1.404 . S
C4172 C4175 1.539 . S
C4173 C4169 1.408 . S
C4173 C4172 1.404 . S
C4173 H4185 0.930 . S
C4174 C4170 1.524 . S
C4174 H4186 0.956 . S
C4174 H4187 0.961 1_554 S
C4174 H4188 0.961 . S
C4175 C4172 1.539 . S
C4175 H4189 0.958 . S
C4175 H4190 0.961 . S
C4175 H4191 0.960 . S
H4176 C4160 0.931 . S
H4177 C4165 0.929 . S
H4178 C4166 0.960 . S
H4179 C4166 0.962 . S
H4180 C4166 0.960 . S
H4181 C4167 0.961 . S
H4182 C4167 0.961 . S
H4183 C4167 0.961 . S
H4184 C4168 0.931 . S
H4185 C4173 0.930 . S
H4186 C4174 0.956 . S
H4187 C4174 0.961 1_556 S
H4188 C4174 0.961 . S
H4189 C4175 0.958 . S
H4190 C4175 0.961 . S
H4191 C4175 0.960 . S
C4192 C4193 1.391 . S
C4192 C4194 1.394 . S
C4192 H4208 0.931 . S
C4193 C4192 1.391 . S
C4193 C4197 1.376 . S
C4194 C4192 1.394 . S
C4194 C4195 1.369 . S
C4194 C4198 1.531 . S
C4195 C4194 1.369 . S
C4195 C4196 1.410 . S
C4195 C4203 1.503 . S
C4196 C4195 1.410 . S
C4196 C4197 1.392 . S
C4196 C4199 1.511 . S
C4197 C4193 1.376 . S
C4197 C4196 1.392 . S
C4197 H4209 0.929 . S
C4198 C4194 1.531 . S
C4198 H4210 0.960 . S
C4198 H4211 0.962 . S
C4198 H4212 0.960 . S
C4199 C4196 1.511 . S
C4199 H4213 0.961 . S
C4199 H4214 0.961 . S
C4199 H4215 0.961 . S
C4200 C4201 1.370 . S
C4200 C4202 1.363 . S
C4200 H4216 0.931 . S
C4201 C4200 1.370 . S
C4201 C4205 1.408 . S
C4202 C4200 1.363 . S
C4202 C4203 1.370 . S
C4202 C4206 1.524 . S
C4203 C4195 1.503 . S
C4203 C4202 1.370 . S
C4203 C4204 1.403 . S
C4204 C4203 1.403 . S
C4204 C4205 1.404 . S
C4204 C4207 1.539 . S
C4205 C4201 1.408 . S
C4205 C4204 1.404 . S
C4205 H4217 0.930 . S
C4206 C4202 1.524 . S
C4206 H4218 0.956 . S
C4206 H4219 0.961 . S
C4206 H4220 0.961 . S
C4207 C4204 1.539 . S
C4207 H4221 0.958 . S
C4207 H4222 0.961 . S
C4207 H4223 0.960 . S
H4208 C4192 0.931 . S
H4209 C4197 0.929 . S
H4210 C4198 0.960 . S
H4211 C4198 0.962 . S
H4212 C4198 0.960 . S
H4213 C4199 0.961 . S
H4214 C4199 0.961 . S
H4215 C4199 0.961 . S
H4216 C4200 0.931 . S
H4217 C4205 0.930 . S
H4218 C4206 0.956 . S
H4219 C4206 0.961 . S
H4220 C4206 0.961 . S
H4221 C4207 0.958 . S
H4222 C4207 0.961 . S
H4223 C4207 0.960 . S
C4224 C4225 1.391 . S
C4224 C4226 1.394 . S
C4224 H4240 0.931 . S
C4225 C4224 1.391 . S
C4225 C4229 1.376 . S
C4226 C4224 1.394 . S
C4226 C4227 1.369 . S
C4226 C4230 1.531 . S
C4227 C4226 1.369 . S
C4227 C4228 1.410 . S
C4227 C4235 1.503 . S
C4228 C4227 1.410 . S
C4228 C4229 1.392 . S
C4228 C4231 1.511 . S
C4229 C4225 1.376 . S
C4229 C4228 1.392 . S
C4229 H4241 0.929 . S
C4230 C4226 1.531 . S
C4230 H4242 0.960 . S
C4230 H4243 0.962 . S
C4230 H4244 0.960 . S
C4231 C4228 1.511 . S
C4231 H4245 0.961 . S
C4231 H4246 0.961 . S
C4231 H4247 0.961 . S
C4232 C4233 1.370 . S
C4232 C4234 1.363 . S
C4232 H4248 0.931 . S
C4233 C4232 1.370 . S
C4233 C4237 1.408 . S
C4234 C4232 1.363 . S
C4234 C4235 1.370 . S
C4234 C4238 1.524 . S
C4235 C4227 1.503 . S
C4235 C4234 1.370 . S
C4235 C4236 1.403 . S
C4236 C4235 1.403 . S
C4236 C4237 1.404 . S
C4236 C4239 1.539 . S
C4237 C4233 1.408 . S
C4237 C4236 1.404 . S
C4237 H4249 0.930 . S
C4238 C4234 1.524 . S
C4238 H4250 0.956 . S
C4238 H4251 0.961 . S
C4238 H4252 0.961 . S
C4239 C4236 1.539 . S
C4239 H4253 0.958 . S
C4239 H4254 0.961 . S
C4239 H4255 0.960 . S
H4240 C4224 0.931 . S
H4241 C4229 0.929 . S
H4242 C4230 0.960 . S
H4243 C4230 0.962 . S
H4244 C4230 0.960 . S
H4245 C4231 0.961 . S
H4246 C4231 0.961 . S
H4247 C4231 0.961 . S
H4248 C4232 0.931 . S
H4249 C4237 0.930 . S
H4250 C4238 0.956 . S
H4251 C4238 0.961 . S
H4252 C4238 0.961 . S
H4253 C4239 0.958 . S
H4254 C4239 0.961 . S
H4255 C4239 0.960 . S
C4256 C4257 1.391 . S
C4256 C4258 1.394 . S
C4256 H4272 0.931 . S
C4257 C4256 1.391 . S
C4257 C4261 1.376 . S
C4258 C4256 1.394 . S
C4258 C4259 1.369 . S
C4258 C4262 1.531 . S
C4259 C4258 1.369 . S
C4259 C4260 1.410 . S
C4259 C4267 1.503 1_655 S
C4260 C4259 1.410 . S
C4260 C4261 1.392 . S
C4260 C4263 1.511 . S
C4261 C4257 1.376 . S
C4261 C4260 1.392 . S
C4261 H4273 0.929 . S
C4262 C4258 1.531 . S
C4262 H4274 0.872 1_655 S
C4262 H4275 0.962 . S
C4262 H4276 0.960 . S
C4263 C4260 1.511 . S
C4263 H4277 0.961 . S
C4263 H4278 0.961 1_655 S
C4263 H4279 0.961 . S
C4264 C4265 1.370 . S
C4264 C4266 1.363 . S
C4264 H4280 0.931 . S
C4265 C4264 1.370 . S
C4265 C4269 1.408 . S
C4266 C4264 1.363 . S
C4266 C4267 1.370 . S
C4266 C4270 1.524 . S
C4267 C4259 1.503 1_455 S
C4267 C4266 1.370 . S
C4267 C4268 1.403 . S
C4268 C4267 1.403 . S
C4268 C4269 1.404 . S
C4268 C4271 1.539 . S
C4269 C4265 1.408 . S
C4269 C4268 1.404 . S
C4269 H4281 0.930 . S
C4270 C4266 1.524 . S
C4270 H4282 0.982 . S
C4270 H4283 0.922 1_455 S
C4270 H4284 0.961 . S
C4271 C4268 1.539 . S
C4271 H4285 0.958 . S
C4271 H4286 0.961 . S
C4271 H4287 0.960 . S
H4272 C4256 0.931 . S
H4273 C4261 0.929 . S
H4274 C4262 0.872 1_455 S
H4275 C4262 0.962 . S
H4276 C4262 0.960 . S
H4277 C4263 0.961 . S
H4278 C4263 0.961 1_455 S
H4279 C4263 0.961 . S
H4280 C4264 0.931 . S
H4281 C4269 0.930 . S
H4282 C4270 0.982 . S
H4283 C4270 0.922 1_655 S
H4284 C4270 0.961 . S
H4285 C4271 0.958 . S
H4286 C4271 0.961 . S
H4287 C4271 0.960 . S
C4288 C4289 1.391 . S
C4288 C4290 1.394 . S
C4288 H4304 0.931 . S
C4289 C4288 1.391 . S
C4289 C4293 1.376 . S
C4290 C4288 1.394 . S
C4290 C4291 1.369 . S
C4290 C4294 1.531 . S
C4291 C4290 1.369 . S
C4291 C4292 1.410 . S
C4291 C4299 1.503 1_655 S
C4292 C4291 1.410 . S
C4292 C4293 1.392 . S
C4292 C4295 1.511 . S
C4293 C4289 1.376 . S
C4293 C4292 1.392 . S
C4293 H4305 0.929 . S
C4294 C4290 1.531 . S
C4294 H4306 0.877 1_655 S
C4294 H4307 0.962 . S
C4294 H4308 0.960 . S
C4295 C4292 1.511 . S
C4295 H4309 0.961 . S
C4295 H4310 0.961 1_655 S
C4295 H4311 0.961 . S
C4296 C4297 1.370 . S
C4296 C4298 1.363 . S
C4296 H4312 0.931 . S
C4297 C4296 1.370 . S
C4297 C4301 1.408 . S
C4298 C4296 1.363 . S
C4298 C4299 1.370 . S
C4298 C4302 1.524 . S
C4299 C4291 1.503 1_455 S
C4299 C4298 1.370 . S
C4299 C4300 1.403 . S
C4300 C4299 1.403 . S
C4300 C4301 1.404 . S
C4300 C4303 1.539 . S
C4301 C4297 1.408 . S
C4301 C4300 1.404 . S
C4301 H4313 0.930 . S
C4302 C4298 1.524 . S
C4302 H4314 0.980 . S
C4302 H4315 0.922 1_455 S
C4302 H4316 0.961 . S
C4303 C4300 1.539 . S
C4303 H4317 0.958 . S
C4303 H4318 0.961 . S
C4303 H4319 0.963 . S
H4304 C4288 0.931 . S
H4305 C4293 0.929 . S
H4306 C4294 0.877 1_455 S
H4307 C4294 0.962 . S
H4308 C4294 0.960 . S
H4309 C4295 0.961 . S
H4310 C4295 0.961 1_455 S
H4311 C4295 0.961 . S
H4312 C4296 0.931 . S
H4313 C4301 0.930 . S
H4314 C4302 0.980 . S
H4315 C4302 0.922 1_655 S
H4316 C4302 0.961 . S
H4317 C4303 0.958 . S
H4318 C4303 0.961 . S
H4319 C4303 0.963 . S
C4320 C4321 1.391 . S
C4320 C4322 1.394 . S
C4320 H4336 0.931 . S
C4321 C4320 1.391 . S
C4321 C4325 1.376 . S
C4322 C4320 1.394 . S
C4322 C4323 1.369 . S
C4322 C4326 1.531 . S
C4323 C4322 1.369 . S
C4323 C4324 1.410 . S
C4323 C4331 1.503 . S
C4324 C4323 1.410 . S
C4324 C4325 1.392 . S
C4324 C4327 1.511 . S
C4325 C4321 1.376 . S
C4325 C4324 1.392 . S
C4325 H4337 0.929 . S
C4326 C4322 1.531 . S
C4326 H4338 0.960 . S
C4326 H4339 0.962 . S
C4326 H4340 0.960 . S
C4327 C4324 1.511 . S
C4327 H4341 0.961 . S
C4327 H4342 0.961 . S
C4327 H4343 0.961 . S
C4328 C4329 1.370 . S
C4328 C4330 1.363 . S
C4328 H4344 0.931 . S
C4329 C4328 1.370 . S
C4329 C4333 1.408 . S
C4330 C4328 1.363 . S
C4330 C4331 1.370 . S
C4330 C4334 1.524 . S
C4331 C4323 1.503 . S
C4331 C4330 1.370 . S
C4331 C4332 1.403 . S
C4332 C4331 1.403 . S
C4332 C4333 1.404 . S
C4332 C4335 1.539 . S
C4333 C4329 1.408 . S
C4333 C4332 1.404 . S
C4333 H4345 0.930 . S
C4334 C4330 1.524 . S
C4334 H4346 0.956 . S
C4334 H4347 0.961 . S
C4334 H4348 0.961 . S
C4335 C4332 1.539 . S
C4335 H4349 0.958 . S
C4335 H4350 0.961 . S
C4335 H4351 0.960 . S
H4336 C4320 0.931 . S
H4337 C4325 0.929 . S
H4338 C4326 0.960 . S
H4339 C4326 0.962 . S
H4340 C4326 0.960 . S
H4341 C4327 0.961 . S
H4342 C4327 0.961 . S
H4343 C4327 0.961 . S
H4344 C4328 0.931 . S
H4345 C4333 0.930 . S
H4346 C4334 0.956 . S
H4347 C4334 0.961 . S
H4348 C4334 0.961 . S
H4349 C4335 0.958 . S
H4350 C4335 0.961 . S
H4351 C4335 0.960 . S
C4352 C4353 1.391 . S
C4352 C4354 1.394 . S
C4352 H4368 0.931 . S
C4353 C4352 1.391 . S
C4353 C4357 1.376 . S
C4354 C4352 1.394 . S
C4354 C4355 1.369 . S
C4354 C4358 1.531 . S
C4355 C4354 1.369 . S
C4355 C4356 1.410 . S
C4355 C4363 1.503 . S
C4356 C4355 1.410 . S
C4356 C4357 1.392 . S
C4356 C4359 1.511 . S
C4357 C4353 1.376 . S
C4357 C4356 1.392 . S
C4357 H4369 0.929 . S
C4358 C4354 1.531 . S
C4358 H4370 0.960 . S
C4358 H4371 0.962 . S
C4358 H4372 0.960 . S
C4359 C4356 1.511 . S
C4359 H4373 0.961 . S
C4359 H4374 0.961 . S
C4359 H4375 0.961 . S
C4360 C4361 1.370 . S
C4360 C4362 1.363 . S
C4360 H4376 0.931 . S
C4361 C4360 1.370 . S
C4361 C4365 1.408 . S
C4362 C4360 1.363 . S
C4362 C4363 1.370 . S
C4362 C4366 1.524 . S
C4363 C4355 1.503 . S
C4363 C4362 1.370 . S
C4363 C4364 1.403 . S
C4364 C4363 1.403 . S
C4364 C4365 1.404 . S
C4364 C4367 1.539 . S
C4365 C4361 1.408 . S
C4365 C4364 1.404 . S
C4365 H4377 0.930 . S
C4366 C4362 1.524 . S
C4366 H4378 0.956 . S
C4366 H4379 0.961 . S
C4366 H4380 0.961 . S
C4367 C4364 1.539 . S
C4367 H4381 0.958 . S
C4367 H4382 0.961 . S
C4367 H4383 0.960 . S
H4368 C4352 0.931 . S
H4369 C4357 0.929 . S
H4370 C4358 0.960 . S
H4371 C4358 0.962 . S
H4372 C4358 0.960 . S
H4373 C4359 0.961 . S
H4374 C4359 0.961 . S
H4375 C4359 0.961 . S
H4376 C4360 0.931 . S
H4377 C4365 0.930 . S
H4378 C4366 0.956 . S
H4379 C4366 0.961 . S
H4380 C4366 0.961 . S
H4381 C4367 0.958 . S
H4382 C4367 0.961 . S
H4383 C4367 0.960 . S
C4384 C4385 1.391 . S
C4384 C4386 1.394 . S
C4384 H4400 0.931 . S
C4385 C4384 1.391 . S
C4385 C4389 1.376 . S
C4386 C4384 1.394 . S
C4386 C4387 1.369 . S
C4386 C4390 1.531 1_565 S
C4387 C4386 1.369 . S
C4387 C4388 1.410 . S
C4387 C4395 1.503 1_565 S
C4388 C4387 1.410 . S
C4388 C4389 1.392 . S
C4388 C4391 1.511 . S
C4389 C4385 1.376 . S
C4389 C4388 1.392 . S
C4389 H4401 0.929 . S
C4390 C4386 1.531 1_545 S
C4390 H4402 0.960 . S
C4390 H4403 0.962 . S
C4390 H4404 0.960 . S
C4391 C4388 1.511 . S
C4391 H4405 0.961 . S
C4391 H4406 0.961 . S
C4391 H4407 0.961 . S
C4392 C4393 1.370 . S
C4392 C4394 1.363 . S
C4392 H4408 0.931 . S
C4393 C4392 1.370 . S
C4393 C4397 1.408 . S
C4394 C4392 1.363 . S
C4394 C4395 1.370 . S
C4394 C4398 1.524 1_545 S
C4395 C4387 1.503 1_545 S
C4395 C4394 1.370 . S
C4395 C4396 1.403 . S
C4396 C4395 1.403 . S
C4396 C4397 1.404 . S
C4396 C4399 1.539 . S
C4397 C4393 1.408 . S
C4397 C4396 1.404 . S
C4397 H4409 0.930 . S
C4398 C4394 1.524 1_565 S
C4398 H4410 0.956 . S
C4398 H4411 0.961 . S
C4398 H4412 0.961 . S
C4399 C4396 1.539 . S
C4399 H4413 0.958 . S
C4399 H4414 0.961 . S
C4399 H4415 0.960 . S
H4400 C4384 0.931 . S
H4401 C4389 0.929 . S
H4402 C4390 0.960 . S
H4403 C4390 0.962 . S
H4404 C4390 0.960 . S
H4405 C4391 0.961 . S
H4406 C4391 0.961 . S
H4407 C4391 0.961 . S
H4408 C4392 0.931 . S
H4409 C4397 0.930 . S
H4410 C4398 0.956 . S
H4411 C4398 0.961 . S
H4412 C4398 0.961 . S
H4413 C4399 0.958 . S
H4414 C4399 0.961 . S
H4415 C4399 0.960 . S
C4416 C4417 1.391 . S
C4416 C4418 1.394 . S
C4416 H4432 0.931 . S
C4417 C4416 1.391 . S
C4417 C4421 1.376 . S
C4418 C4416 1.394 . S
C4418 C4419 1.369 . S
C4418 C4422 1.531 . S
C4419 C4418 1.369 . S
C4419 C4420 1.410 . S
C4419 C4427 1.503 . S
C4420 C4419 1.410 . S
C4420 C4421 1.392 . S
C4420 C4423 1.511 . S
C4421 C4417 1.376 . S
C4421 C4420 1.392 . S
C4421 H4433 0.929 . S
C4422 C4418 1.531 . S
C4422 H4434 0.960 . S
C4422 H4435 0.962 . S
C4422 H4436 0.960 . S
C4423 C4420 1.511 . S
C4423 H4437 0.961 . S
C4423 H4438 0.961 . S
C4423 H4439 0.961 . S
C4424 C4425 1.370 . S
C4424 C4426 1.363 . S
C4424 H4440 0.931 . S
C4425 C4424 1.370 . S
C4425 C4429 1.408 . S
C4426 C4424 1.363 . S
C4426 C4427 1.370 . S
C4426 C4430 1.524 . S
C4427 C4419 1.503 . S
C4427 C4426 1.370 . S
C4427 C4428 1.403 . S
C4428 C4427 1.403 . S
C4428 C4429 1.404 . S
C4428 C4431 1.539 . S
C4429 C4425 1.408 . S
C4429 C4428 1.404 . S
C4429 H4441 0.930 . S
C4430 C4426 1.524 . S
C4430 H4442 0.956 . S
C4430 H4443 0.961 . S
C4430 H4444 0.961 . S
C4431 C4428 1.539 . S
C4431 H4445 0.958 . S
C4431 H4446 0.961 . S
C4431 H4447 0.960 . S
H4432 C4416 0.931 . S
H4433 C4421 0.929 . S
H4434 C4422 0.960 . S
H4435 C4422 0.962 . S
H4436 C4422 0.960 . S
H4437 C4423 0.961 . S
H4438 C4423 0.961 . S
H4439 C4423 0.961 . S
H4440 C4424 0.931 . S
H4441 C4429 0.930 . S
H4442 C4430 0.956 . S
H4443 C4430 0.961 . S
H4444 C4430 0.961 . S
H4445 C4431 0.958 . S
H4446 C4431 0.961 . S
H4447 C4431 0.960 . S
C4448 C4449 1.391 . S
C4448 C4450 1.394 . S
C4448 H4464 0.931 . S
C4449 C4448 1.391 . S
C4449 C4453 1.376 1_556 S
C4450 C4448 1.394 . S
C4450 C4451 1.369 1_556 S
C4450 C4454 1.531 1_545 S
C4451 C4450 1.369 1_554 S
C4451 C4452 1.410 . S
C4451 C4459 1.503 1_545 S
C4452 C4451 1.410 . S
C4452 C4453 1.392 . S
C4452 C4455 1.511 . S
C4453 C4449 1.376 1_554 S
C4453 C4452 1.392 . S
C4453 H4465 0.929 . S
C4454 C4450 1.531 1_565 S
C4454 H4466 0.960 . S
C4454 H4467 0.962 . S
C4454 H4468 0.960 . S
C4455 C4452 1.511 . S
C4455 H4469 0.961 . S
C4455 H4470 0.961 . S
C4455 H4471 0.961 . S
C4456 C4457 1.370 . S
C4456 C4458 1.363 . S
C4456 H4472 0.931 . S
C4457 C4456 1.370 . S
C4457 C4461 1.408 . S
C4458 C4456 1.363 . S
C4458 C4459 1.370 . S
C4458 C4462 1.578 . S
C4459 C4451 1.503 1_565 S
C4459 C4458 1.370 . S
C4459 C4460 1.403 . S
C4460 C4459 1.403 . S
C4460 C4461 1.404 . S
C4460 C4463 1.539 . S
C4461 C4457 1.408 . S
C4461 C4460 1.404 . S
C4461 H4473 0.930 . S
C4462 C4458 1.578 . S
C4462 H4474 0.984 . S
C4462 H4475 0.859 1_565 S
C4462 H4476 0.994 . S
C4463 C4460 1.539 . S
C4463 H4477 0.958 . S
C4463 H4478 0.961 . S
C4463 H4479 0.967 1_565 S
H4464 C4448 0.931 . S
H4465 C4453 0.929 . S
H4466 C4454 0.960 . S
H4467 C4454 0.962 . S
H4468 C4454 0.960 . S
H4469 C4455 0.961 . S
H4470 C4455 0.961 . S
H4471 C4455 0.961 . S
H4472 C4456 0.931 . S
H4473 C4461 0.930 . S
H4474 C4462 0.984 . S
H4475 C4462 0.859 1_545 S
H4476 C4462 0.994 . S
H4477 C4463 0.958 . S
H4478 C4463 0.961 . S
H4479 C4463 0.967 1_545 S
C4480 C4481 1.391 . S
C4480 C4482 1.394 . S
C4480 H4496 0.931 . S
C4481 C4480 1.391 . S
C4481 C4485 1.376 . S
C4482 C4480 1.394 . S
C4482 C4483 1.369 . S
C4482 C4486 1.531 . S
C4483 C4482 1.369 . S
C4483 C4484 1.410 . S
C4483 C4491 1.503 . S
C4484 C4483 1.410 . S
C4484 C4485 1.392 . S
C4484 C4487 1.511 . S
C4485 C4481 1.376 . S
C4485 C4484 1.392 . S
C4485 H4497 0.929 . S
C4486 C4482 1.531 . S
C4486 H4498 0.960 . S
C4486 H4499 0.962 . S
C4486 H4500 0.960 . S
C4487 C4484 1.511 . S
C4487 H4501 0.961 . S
C4487 H4502 0.961 . S
C4487 H4503 0.961 . S
C4488 C4489 1.370 . S
C4488 C4490 1.363 . S
C4488 H4504 0.931 . S
C4489 C4488 1.370 . S
C4489 C4493 1.408 . S
C4490 C4488 1.363 . S
C4490 C4491 1.370 . S
C4490 C4494 1.524 . S
C4491 C4483 1.503 . S
C4491 C4490 1.370 . S
C4491 C4492 1.403 . S
C4492 C4491 1.403 . S
C4492 C4493 1.404 . S
C4492 C4495 1.539 . S
C4493 C4489 1.408 . S
C4493 C4492 1.404 . S
C4493 H4505 0.930 . S
C4494 C4490 1.524 . S
C4494 H4506 0.956 . S
C4494 H4507 0.961 . S
C4494 H4508 0.961 . S
C4495 C4492 1.539 . S
C4495 H4509 0.958 . S
C4495 H4510 0.961 . S
C4495 H4511 0.960 . S
H4496 C4480 0.931 . S
H4497 C4485 0.929 . S
H4498 C4486 0.960 . S
H4499 C4486 0.962 . S
H4500 C4486 0.960 . S
H4501 C4487 0.961 . S
H4502 C4487 0.961 . S
H4503 C4487 0.961 . S
H4504 C4488 0.931 . S
H4505 C4493 0.930 . S
H4506 C4494 0.956 . S
H4507 C4494 0.961 . S
H4508 C4494 0.961 . S
H4509 C4495 0.958 . S
H4510 C4495 0.961 . S
H4511 C4495 0.960 . S
C4512 C4513 1.391 . S
C4512 C4514 1.394 . S
C4512 H4528 0.931 . S
C4513 C4512 1.391 . S
C4513 C4517 1.376 . S
C4514 C4512 1.394 . S
C4514 C4515 1.369 . S
C4514 C4518 1.531 . S
C4515 C4514 1.369 . S
C4515 C4516 1.410 . S
C4515 C4523 1.503 1_545 S
C4516 C4515 1.410 . S
C4516 C4517 1.392 . S
C4516 C4519 1.445 1_545 S
C4517 C4513 1.376 . S
C4517 C4516 1.392 . S
C4517 H4529 0.929 . S
C4518 C4514 1.531 . S
C4518 H4530 0.960 . S
C4518 H4531 0.962 . S
C4518 H4532 0.960 . S
C4519 C4516 1.445 1_565 S
C4519 H4533 0.982 . S
C4519 H4534 1.062 . S
C4519 H4535 0.921 1_565 S
C4520 C4521 1.370 . S
C4520 C4522 1.363 . S
C4520 H4536 0.931 . S
C4521 C4520 1.370 . S
C4521 C4525 1.408 . S
C4522 C4520 1.363 . S
C4522 C4523 1.370 . S
C4522 C4526 1.524 . S
C4523 C4515 1.503 1_565 S
C4523 C4522 1.370 . S
C4523 C4524 1.403 . S
C4524 C4523 1.403 . S
C4524 C4525 1.404 . S
C4524 C4527 1.539 1_565 S
C4525 C4521 1.408 . S
C4525 C4524 1.404 . S
C4525 H4537 0.930 . S
C4526 C4522 1.524 . S
C4526 H4538 0.956 . S
C4526 H4539 0.961 . S
C4526 H4540 0.961 . S
C4527 C4524 1.539 1_545 S
C4527 H4541 0.958 . S
C4527 H4542 0.961 . S
C4527 H4543 0.960 . S
H4528 C4512 0.931 . S
H4529 C4517 0.929 . S
H4530 C4518 0.960 . S
H4531 C4518 0.962 . S
H4532 C4518 0.960 . S
H4533 C4519 0.982 . S
H4534 C4519 1.062 . S
H4535 C4519 0.921 1_545 S
H4536 C4520 0.931 . S
H4537 C4525 0.930 . S
H4538 C4526 0.956 . S
H4539 C4526 0.961 . S
H4540 C4526 0.961 . S
H4541 C4527 0.958 . S
H4542 C4527 0.961 . S
H4543 C4527 0.960 . S
C4544 C4545 1.391 . S
C4544 C4546 1.394 . S
C4544 H4560 0.931 . S
C4545 C4544 1.391 . S
C4545 C4549 1.376 . S
C4546 C4544 1.394 . S
C4546 C4547 1.369 . S
C4546 C4550 1.531 . S
C4547 C4546 1.369 . S
C4547 C4548 1.410 . S
C4547 C4555 1.503 . S
C4548 C4547 1.410 . S
C4548 C4549 1.392 . S
C4548 C4551 1.511 . S
C4549 C4545 1.376 . S
C4549 C4548 1.392 . S
C4549 H4561 0.929 . S
C4550 C4546 1.531 . S
C4550 H4562 0.960 . S
C4550 H4563 0.962 . S
C4550 H4564 0.960 . S
C4551 C4548 1.511 . S
C4551 H4565 0.961 . S
C4551 H4566 0.961 . S
C4551 H4567 0.961 . S
C4552 C4553 1.370 . S
C4552 C4554 1.363 . S
C4552 H4568 0.931 . S
C4553 C4552 1.370 . S
C4553 C4557 1.408 . S
C4554 C4552 1.363 . S
C4554 C4555 1.370 . S
C4554 C4558 1.524 . S
C4555 C4547 1.503 . S
C4555 C4554 1.370 . S
C4555 C4556 1.403 . S
C4556 C4555 1.403 . S
C4556 C4557 1.404 . S
C4556 C4559 1.539 . S
C4557 C4553 1.408 . S
C4557 C4556 1.404 . S
C4557 H4569 0.930 . S
C4558 C4554 1.524 . S
C4558 H4570 0.956 . S
C4558 H4571 0.961 . S
C4558 H4572 0.961 . S
C4559 C4556 1.539 . S
C4559 H4573 0.958 . S
C4559 H4574 0.961 . S
C4559 H4575 0.960 . S
H4560 C4544 0.931 . S
H4561 C4549 0.929 . S
H4562 C4550 0.960 . S
H4563 C4550 0.962 . S
H4564 C4550 0.960 . S
H4565 C4551 0.961 . S
H4566 C4551 0.961 . S
H4567 C4551 0.961 . S
H4568 C4552 0.931 . S
H4569 C4557 0.930 . S
H4570 C4558 0.956 . S
H4571 C4558 0.961 . S
H4572 C4558 0.961 . S
H4573 C4559 0.958 . S
H4574 C4559 0.961 . S
H4575 C4559 0.960 . S
C4576 C4577 1.391 . S
C4576 C4578 1.394 . S
C4576 H4592 0.931 . S
C4577 C4576 1.391 . S
C4577 C4581 1.376 . S
C4578 C4576 1.394 . S
C4578 C4579 1.369 . S
C4578 C4582 1.531 . S
C4579 C4578 1.369 . S
C4579 C4580 1.410 . S
C4579 C4587 1.503 1_565 S
C4580 C4579 1.410 . S
C4580 C4581 1.392 . S
C4580 C4583 1.511 . S
C4581 C4577 1.376 . S
C4581 C4580 1.392 . S
C4581 H4593 0.929 . S
C4582 C4578 1.531 . S
C4582 H4594 0.960 . S
C4582 H4595 0.962 1_565 S
C4582 H4596 0.960 . S
C4583 C4580 1.511 . S
C4583 H4597 0.961 . S
C4583 H4598 0.971 1_565 S
C4583 H4599 0.961 . S
C4584 C4585 1.370 1_554 S
C4584 C4586 1.363 . S
C4584 H4600 0.931 . S
C4585 C4584 1.370 1_556 S
C4585 C4589 1.408 . S
C4586 C4584 1.363 . S
C4586 C4587 1.370 . S
C4586 C4590 1.524 . S
C4587 C4579 1.503 1_545 S
C4587 C4586 1.370 . S
C4587 C4588 1.425 1_554 S
C4588 C4587 1.425 1_556 S
C4588 C4589 1.479 . S
C4588 C4591 1.448 1_545 S
C4589 C4585 1.408 . S
C4589 C4588 1.479 . S
C4589 H4601 0.930 . S
C4590 C4586 1.524 . S
C4590 H4602 0.956 . S
C4590 H4603 0.961 . S
C4590 H4604 0.961 . S
C4591 C4588 1.448 1_565 S
C4591 H4605 0.958 . S
C4591 H4606 0.961 . S
C4591 H4607 0.960 . S
H4592 C4576 0.931 . S
H4593 C4581 0.929 . S
H4594 C4582 0.960 . S
H4595 C4582 0.962 1_545 S
H4596 C4582 0.960 . S
H4597 C4583 0.961 . S
H4598 C4583 0.971 1_545 S
H4599 C4583 0.961 . S
H4600 C4584 0.931 . S
H4601 C4589 0.930 . S
H4602 C4590 0.956 . S
H4603 C4590 0.961 . S
H4604 C4590 0.961 . S
H4605 C4591 0.958 . S
H4606 C4591 0.961 . S
H4607 C4591 0.960 . S
C4608 C4609 1.391 . S
C4608 C4610 1.394 . S
C4608 H4624 0.931 . S
C4609 C4608 1.391 . S
C4609 C4613 1.376 . S
C4610 C4608 1.394 . S
C4610 C4611 1.369 . S
C4610 C4614 1.531 . S
C4611 C4610 1.369 . S
C4611 C4612 1.410 . S
C4611 C4619 1.503 . S
C4612 C4611 1.410 . S
C4612 C4613 1.392 . S
C4612 C4615 1.511 . S
C4613 C4609 1.376 . S
C4613 C4612 1.392 . S
C4613 H4625 0.929 . S
C4614 C4610 1.531 . S
C4614 H4626 0.960 . S
C4614 H4627 0.962 . S
C4614 H4628 0.960 . S
C4615 C4612 1.511 . S
C4615 H4629 0.961 . S
C4615 H4630 0.961 . S
C4615 H4631 0.961 . S
C4616 C4617 1.370 . S
C4616 C4618 1.363 . S
C4616 H4632 0.931 . S
C4617 C4616 1.370 . S
C4617 C4621 1.408 . S
C4618 C4616 1.363 . S
C4618 C4619 1.370 . S
C4618 C4622 1.524 . S
C4619 C4611 1.503 . S
C4619 C4618 1.370 . S
C4619 C4620 1.403 . S
C4620 C4619 1.403 . S
C4620 C4621 1.404 . S
C4620 C4623 1.539 . S
C4621 C4617 1.408 . S
C4621 C4620 1.404 . S
C4621 H4633 0.930 . S
C4622 C4618 1.524 . S
C4622 H4634 0.956 . S
C4622 H4635 0.961 . S
C4622 H4636 0.961 . S
C4623 C4620 1.539 . S
C4623 H4637 0.958 . S
C4623 H4638 0.961 . S
C4623 H4639 0.960 . S
H4624 C4608 0.931 . S
H4625 C4613 0.929 . S
H4626 C4614 0.960 . S
H4627 C4614 0.962 . S
H4628 C4614 0.960 . S
H4629 C4615 0.961 . S
H4630 C4615 0.961 . S
H4631 C4615 0.961 . S
H4632 C4616 0.931 . S
H4633 C4621 0.930 . S
H4634 C4622 0.956 . S
H4635 C4622 0.961 . S
H4636 C4622 0.961 . S
H4637 C4623 0.958 . S
H4638 C4623 0.961 . S
H4639 C4623 0.960 . S
C4640 C4641 1.391 . S
C4640 C4642 1.394 . S
C4640 H4656 0.931 . S
C4641 C4640 1.391 . S
C4641 C4645 1.376 . S
C4642 C4640 1.394 . S
C4642 C4643 1.369 . S
C4642 C4646 1.541 . S
C4643 C4642 1.369 . S
C4643 C4644 1.410 . S
C4643 C4651 1.503 . S
C4644 C4643 1.410 . S
C4644 C4645 1.392 . S
C4644 C4647 1.511 . S
C4645 C4641 1.376 . S
C4645 C4644 1.392 . S
C4645 H4657 0.929 . S
C4646 C4642 1.541 . S
C4646 H4658 0.953 1_554 S
C4646 H4659 0.961 1_554 S
C4646 H4660 0.959 1_554 S
C4647 C4644 1.511 . S
C4647 H4661 0.961 . S
C4647 H4662 0.961 . S
C4647 H4663 0.961 . S
C4648 C4649 1.370 . S
C4648 C4650 1.363 1_556 S
C4648 H4664 0.931 . S
C4649 C4648 1.370 . S
C4649 C4653 1.408 . S
C4650 C4648 1.363 1_554 S
C4650 C4651 1.370 . S
C4650 C4654 1.524 . S
C4651 C4643 1.503 . S
C4651 C4650 1.370 . S
C4651 C4652 1.403 1_554 S
C4652 C4651 1.403 1_556 S
C4652 C4653 1.404 . S
C4652 C4655 1.539 . S
C4653 C4649 1.408 . S
C4653 C4652 1.404 . S
C4653 H4665 0.930 . S
C4654 C4650 1.524 . S
C4654 H4666 0.956 . S
C4654 H4667 0.961 . S
C4654 H4668 0.961 . S
C4655 C4652 1.539 . S
C4655 H4669 0.958 . S
C4655 H4670 0.961 . S
C4655 H4671 0.960 1_556 S
H4656 C4640 0.931 . S
H4657 C4645 0.929 . S
H4658 C4646 0.953 1_556 S
H4659 C4646 0.961 1_556 S
H4660 C4646 0.959 1_556 S
H4661 C4647 0.961 . S
H4662 C4647 0.961 . S
H4663 C4647 0.961 . S
H4664 C4648 0.931 . S
H4665 C4653 0.930 . S
H4666 C4654 0.956 . S
H4667 C4654 0.961 . S
H4668 C4654 0.961 . S
H4669 C4655 0.958 . S
H4670 C4655 0.961 . S
H4671 C4655 0.960 1_554 S
C4672 C4673 1.391 . S
C4672 C4674 1.394 . S
C4672 H4688 0.931 . S
C4673 C4672 1.391 . S
C4673 C4677 1.376 . S
C4674 C4672 1.394 . S
C4674 C4675 1.369 . S
C4674 C4678 1.531 . S
C4675 C4674 1.369 . S
C4675 C4676 1.410 . S
C4675 C4683 1.503 . S
C4676 C4675 1.410 . S
C4676 C4677 1.392 . S
C4676 C4679 1.511 . S
C4677 C4673 1.376 . S
C4677 C4676 1.392 . S
C4677 H4689 0.929 . S
C4678 C4674 1.531 . S
C4678 H4690 0.960 . S
C4678 H4691 0.962 . S
C4678 H4692 0.960 . S
C4679 C4676 1.511 . S
C4679 H4693 0.961 . S
C4679 H4694 0.961 . S
C4679 H4695 0.961 . S
C4680 C4681 1.370 . S
C4680 C4682 1.363 . S
C4680 H4696 0.931 . S
C4681 C4680 1.370 . S
C4681 C4685 1.408 . S
C4682 C4680 1.363 . S
C4682 C4683 1.370 . S
C4682 C4686 1.524 . S
C4683 C4675 1.503 . S
C4683 C4682 1.370 . S
C4683 C4684 1.403 . S
C4684 C4683 1.403 . S
C4684 C4685 1.404 . S
C4684 C4687 1.539 . S
C4685 C4681 1.408 . S
C4685 C4684 1.404 . S
C4685 H4697 0.930 . S
C4686 C4682 1.524 . S
C4686 H4698 0.956 . S
C4686 H4699 0.961 . S
C4686 H4700 0.961 . S
C4687 C4684 1.539 . S
C4687 H4701 0.958 . S
C4687 H4702 0.961 . S
C4687 H4703 0.960 . S
H4688 C4672 0.931 . S
H4689 C4677 0.929 . S
H4690 C4678 0.960 . S
H4691 C4678 0.962 . S
H4692 C4678 0.960 . S
H4693 C4679 0.961 . S
H4694 C4679 0.961 . S
H4695 C4679 0.961 . S
H4696 C4680 0.931 . S
H4697 C4685 0.930 . S
H4698 C4686 0.956 . S
H4699 C4686 0.961 . S
H4700 C4686 0.961 . S
H4701 C4687 0.958 . S
H4702 C4687 0.961 . S
H4703 C4687 0.960 . S
C4704 C4705 1.391 . S
C4704 C4706 1.394 . S
C4704 H4720 0.931 . S
C4705 C4704 1.391 . S
C4705 C4709 1.376 . S
C4706 C4704 1.394 . S
C4706 C4707 1.369 . S
C4706 C4710 1.531 . S
C4707 C4706 1.369 . S
C4707 C4708 1.410 . S
C4707 C4715 1.503 . S
C4708 C4707 1.410 . S
C4708 C4709 1.392 . S
C4708 C4711 1.511 . S
C4709 C4705 1.376 . S
C4709 C4708 1.392 . S
C4709 H4721 0.929 . S
C4710 C4706 1.531 . S
C4710 H4722 0.960 . S
C4710 H4723 0.962 . S
C4710 H4724 0.960 . S
C4711 C4708 1.511 . S
C4711 H4725 0.961 . S
C4711 H4726 0.961 . S
C4711 H4727 0.961 . S
C4712 C4713 1.370 . S
C4712 C4714 1.363 . S
C4712 H4728 0.931 . S
C4713 C4712 1.370 . S
C4713 C4717 1.408 . S
C4714 C4712 1.363 . S
C4714 C4715 1.370 . S
C4714 C4718 1.524 . S
C4715 C4707 1.503 . S
C4715 C4714 1.370 . S
C4715 C4716 1.403 . S
C4716 C4715 1.403 . S
C4716 C4717 1.404 . S
C4716 C4719 1.539 . S
C4717 C4713 1.408 . S
C4717 C4716 1.404 . S
C4717 H4729 0.930 . S
C4718 C4714 1.524 . S
C4718 H4730 0.956 . S
C4718 H4731 0.961 . S
C4718 H4732 0.961 . S
C4719 C4716 1.539 . S
C4719 H4733 0.958 . S
C4719 H4734 0.961 . S
C4719 H4735 0.960 . S
H4720 C4704 0.931 . S
H4721 C4709 0.929 . S
H4722 C4710 0.960 . S
H4723 C4710 0.962 . S
H4724 C4710 0.960 . S
H4725 C4711 0.961 . S
H4726 C4711 0.961 . S
H4727 C4711 0.961 . S
H4728 C4712 0.931 . S
H4729 C4717 0.930 . S
H4730 C4718 0.956 . S
H4731 C4718 0.961 . S
H4732 C4718 0.961 . S
H4733 C4719 0.958 . S
H4734 C4719 0.961 . S
H4735 C4719 0.960 . S
C4736 C4737 1.391 . S
C4736 C4738 1.394 . S
C4736 H4752 0.931 . S
C4737 C4736 1.391 . S
C4737 C4741 1.376 . S
C4738 C4736 1.394 . S
C4738 C4739 1.369 . S
C4738 C4742 1.531 . S
C4739 C4738 1.369 . S
C4739 C4740 1.410 . S
C4739 C4747 1.503 . S
C4740 C4739 1.410 . S
C4740 C4741 1.392 . S
C4740 C4743 1.511 . S
C4741 C4737 1.376 . S
C4741 C4740 1.392 . S
C4741 H4753 0.929 . S
C4742 C4738 1.531 . S
C4742 H4754 0.960 . S
C4742 H4755 0.962 . S
C4742 H4756 0.960 . S
C4743 C4740 1.511 . S
C4743 H4757 0.961 . S
C4743 H4758 0.961 . S
C4743 H4759 0.961 . S
C4744 C4745 1.370 . S
C4744 C4746 1.363 . S
C4744 H4760 0.931 . S
C4745 C4744 1.370 . S
C4745 C4749 1.408 . S
C4746 C4744 1.363 . S
C4746 C4747 1.370 . S
C4746 C4750 1.524 . S
C4747 C4739 1.503 . S
C4747 C4746 1.370 . S
C4747 C4748 1.403 . S
C4748 C4747 1.403 . S
C4748 C4749 1.404 . S
C4748 C4751 1.539 . S
C4749 C4745 1.408 . S
C4749 C4748 1.404 . S
C4749 H4761 0.930 . S
C4750 C4746 1.524 . S
C4750 H4762 0.956 . S
C4750 H4763 0.961 . S
C4750 H4764 0.961 . S
C4751 C4748 1.539 . S
C4751 H4765 0.958 . S
C4751 H4766 0.961 . S
C4751 H4767 0.960 . S
H4752 C4736 0.931 . S
H4753 C4741 0.929 . S
H4754 C4742 0.960 . S
H4755 C4742 0.962 . S
H4756 C4742 0.960 . S
H4757 C4743 0.961 . S
H4758 C4743 0.961 . S
H4759 C4743 0.961 . S
H4760 C4744 0.931 . S
H4761 C4749 0.930 . S
H4762 C4750 0.956 . S
H4763 C4750 0.961 . S
H4764 C4750 0.961 . S
H4765 C4751 0.958 . S
H4766 C4751 0.961 . S
H4767 C4751 0.960 . S
C4768 C4769 1.391 . S
C4768 C4770 1.394 . S
C4768 H4784 0.931 . S
C4769 C4768 1.391 . S
C4769 C4773 1.376 . S
C4770 C4768 1.394 . S
C4770 C4771 1.369 1_556 S
C4770 C4774 1.531 . S
C4771 C4770 1.369 1_554 S
C4771 C4772 1.410 . S
C4771 C4779 1.503 . S
C4772 C4771 1.410 . S
C4772 C4773 1.392 1_554 S
C4772 C4775 1.511 . S
C4773 C4769 1.376 . S
C4773 C4772 1.392 1_556 S
C4773 H4785 0.929 . S
C4774 C4770 1.531 . S
C4774 H4786 0.960 . S
C4774 H4787 0.962 . S
C4774 H4788 0.960 . S
C4775 C4772 1.511 . S
C4775 H4789 0.961 . S
C4775 H4790 0.961 . S
C4775 H4791 0.961 . S
C4776 C4777 1.370 . S
C4776 C4778 1.363 . S
C4776 H4792 0.931 . S
C4777 C4776 1.370 . S
C4777 C4781 1.408 . S
C4778 C4776 1.363 . S
C4778 C4779 1.370 . S
C4778 C4782 1.524 . S
C4779 C4771 1.503 . S
C4779 C4778 1.370 . S
C4779 C4780 1.403 . S
C4780 C4779 1.403 . S
C4780 C4781 1.404 . S
C4780 C4783 1.539 . S
C4781 C4777 1.408 . S
C4781 C4780 1.404 . S
C4781 H4793 0.930 . S
C4782 C4778 1.524 . S
C4782 H4794 0.956 . S
C4782 H4795 0.961 . S
C4782 H4796 0.961 . S
C4783 C4780 1.539 . S
C4783 H4797 0.958 1_554 S
C4783 H4798 0.961 . S
C4783 H4799 0.960 . S
H4784 C4768 0.931 . S
H4785 C4773 0.929 . S
H4786 C4774 0.960 . S
H4787 C4774 0.962 . S
H4788 C4774 0.960 . S
H4789 C4775 0.961 . S
H4790 C4775 0.961 . S
H4791 C4775 0.961 . S
H4792 C4776 0.931 . S
H4793 C4781 0.930 . S
H4794 C4782 0.956 . S
H4795 C4782 0.961 . S
H4796 C4782 0.961 . S
H4797 C4783 0.958 1_556 S
H4798 C4783 0.961 . S
H4799 C4783 0.960 . S
C4800 C4801 1.391 . S
C4800 C4802 1.394 . S
C4800 H4816 0.931 . S
C4801 C4800 1.391 . S
C4801 C4805 1.376 . S
C4802 C4800 1.394 . S
C4802 C4803 1.369 . S
C4802 C4806 1.531 . S
C4803 C4802 1.369 . S
C4803 C4804 1.410 . S
C4803 C4811 1.503 . S
C4804 C4803 1.410 . S
C4804 C4805 1.392 . S
C4804 C4807 1.511 . S
C4805 C4801 1.376 . S
C4805 C4804 1.392 . S
C4805 H4817 0.929 . S
C4806 C4802 1.531 . S
C4806 H4818 0.960 . S
C4806 H4819 0.962 . S
C4806 H4820 0.960 . S
C4807 C4804 1.511 . S
C4807 H4821 0.961 . S
C4807 H4822 0.961 . S
C4807 H4823 0.961 . S
C4808 C4809 1.370 . S
C4808 C4810 1.363 . S
C4808 H4824 0.931 . S
C4809 C4808 1.370 . S
C4809 C4813 1.408 . S
C4810 C4808 1.363 . S
C4810 C4811 1.370 . S
C4810 C4814 1.524 . S
C4811 C4803 1.503 . S
C4811 C4810 1.370 . S
C4811 C4812 1.403 . S
C4812 C4811 1.403 . S
C4812 C4813 1.404 . S
C4812 C4815 1.539 . S
C4813 C4809 1.408 . S
C4813 C4812 1.404 . S
C4813 H4825 0.930 . S
C4814 C4810 1.524 . S
C4814 H4826 0.956 . S
C4814 H4827 0.961 . S
C4814 H4828 0.961 . S
C4815 C4812 1.539 . S
C4815 H4829 0.958 . S
C4815 H4830 0.961 . S
C4815 H4831 0.960 . S
H4816 C4800 0.931 . S
H4817 C4805 0.929 . S
H4818 C4806 0.960 . S
H4819 C4806 0.962 . S
H4820 C4806 0.960 . S
H4821 C4807 0.961 . S
H4822 C4807 0.961 . S
H4823 C4807 0.961 . S
H4824 C4808 0.931 . S
H4825 C4813 0.930 . S
H4826 C4814 0.956 . S
H4827 C4814 0.961 . S
H4828 C4814 0.961 . S
H4829 C4815 0.958 . S
H4830 C4815 0.961 . S
H4831 C4815 0.960 . S
C4832 C4833 1.391 . S
C4832 C4834 1.394 . S
C4832 H4848 0.931 . S
C4833 C4832 1.391 . S
C4833 C4837 1.376 . S
C4834 C4832 1.394 . S
C4834 C4835 1.369 . S
C4834 C4838 1.531 . S
C4835 C4834 1.369 . S
C4835 C4836 1.410 . S
C4835 C4843 1.503 . S
C4836 C4835 1.410 . S
C4836 C4837 1.392 . S
C4836 C4839 1.511 . S
C4837 C4833 1.376 . S
C4837 C4836 1.392 . S
C4837 H4849 0.929 . S
C4838 C4834 1.531 . S
C4838 H4850 0.960 . S
C4838 H4851 0.962 . S
C4838 H4852 0.960 . S
C4839 C4836 1.511 . S
C4839 H4853 0.961 . S
C4839 H4854 0.961 . S
C4839 H4855 0.961 . S
C4840 C4841 1.370 . S
C4840 C4842 1.363 . S
C4840 H4856 0.931 . S
C4841 C4840 1.370 . S
C4841 C4845 1.408 . S
C4842 C4840 1.363 . S
C4842 C4843 1.370 . S
C4842 C4846 1.524 . S
C4843 C4835 1.503 . S
C4843 C4842 1.370 . S
C4843 C4844 1.403 . S
C4844 C4843 1.403 . S
C4844 C4845 1.404 . S
C4844 C4847 1.539 . S
C4845 C4841 1.408 . S
C4845 C4844 1.404 . S
C4845 H4857 0.930 . S
C4846 C4842 1.524 . S
C4846 H4858 0.956 . S
C4846 H4859 0.961 . S
C4846 H4860 0.961 . S
C4847 C4844 1.539 . S
C4847 H4861 0.958 . S
C4847 H4862 0.961 . S
C4847 H4863 0.960 . S
H4848 C4832 0.931 . S
H4849 C4837 0.929 . S
H4850 C4838 0.960 . S
H4851 C4838 0.962 . S
H4852 C4838 0.960 . S
H4853 C4839 0.961 . S
H4854 C4839 0.961 . S
H4855 C4839 0.961 . S
H4856 C4840 0.931 . S
H4857 C4845 0.930 . S
H4858 C4846 0.956 . S
H4859 C4846 0.961 . S
H4860 C4846 0.961 . S
H4861 C4847 0.958 . S
H4862 C4847 0.961 . S
H4863 C4847 0.960 . S
C2817 C665 1.279 . S
C2825 C29 1.276 . S
C2849 C108 1.305 . S
C2857 C409 1.259 . S
C2881 C489 1.227 . S
C2889 C196 1.285 . S
C2913 C284 1.285 . S
C2921 C585 1.272 . S
C2945 C724 1.310 . S
C2953 C1377 1.254 . S
C2977 C812 1.228 . S
C2985 C1105 1.291 . S
C3009 C900 1.310 . S
C3017 C1201 1.255 . S
C3041 C997 1.229 . S
C3049 C1289 1.289 . S
C3073 C1437 1.227 . S
C3081 C2073 1.286 . S
C3105 C1516 1.291 . S
C3113 C1817 1.269 . S
C3137 C1905 1.285 . S
C3145 C1604 1.273 . S
C3169 C1985 1.236 . S
C3177 C1692 1.287 . S
C3201 C2141 1.253 . S
C3209 C2777 1.277 . S
C3233 C2513 1.307 . S
C3241 C2220 1.255 . S
C3265 C2609 1.310 . S
C3273 C2317 1.254 . S
C3297 C2405 1.289 . S
C3305 C2689 1.268 . S
C3329 C49 0.610 . S
C3337 C548 0.601 . S
C3361 C145 0.576 . S
C3369 C645 0.586 . S
C3393 C372 0.583 . S
C3401 C233 0.588 . S
C3425 C321 0.579 . S
C3433 C469 0.588 . S
C3457 C733 0.592 . S
C3465 C1281 0.596 . S
C3489 C821 0.593 . S
C3497 C1369 0.587 . S
C3521 C1113 0.578 . S
C3529 C909 0.588 . S
C3553 C1193 0.592 . S
C3561 C988 0.587 . S
C3585 C1457 0.615 . S
C3593 C1965 0.602 . S
C3617 C2053 0.611 . S
C3625 C1553 0.599 . S
C3649 C1780 0.577 . S
C3657 C1641 0.586 . S
C3681 C1729 0.586 . S
C3689 C1868 0.591 . S
C3713 C2132 0.586 . S
C3721 C2697 0.586 . S
C3745 C2229 0.591 . S
C3753 C2785 0.596 . S
C3777 C2521 0.603 . S
C3785 C2308 0.599 . S
C3809 C2601 0.599 . S
C3817 C2396 0.598 . S
C3841 C57 1.347 . S
C3849 C2660 1.345 . S
C3873 C137 1.353 . S
C3881 C1349 1.350 . S
C3905 C225 1.325 . S
C3913 C2484 1.336 . S
C3937 C313 1.321 . S
C3945 C1173 1.336 . S
C3969 C381 1.332 . S
C3977 C2345 1.339 . S
C4001 C460 1.344 . S
C4009 C1025 1.347 . S
C4033 C557 1.342 . S
C4041 C2169 1.346 . S
C4065 C841 1.323 . S
C4073 C636 1.336 . S
C4097 C1956 1.349 . S
C4105 C753 1.349 . S
C4129 C929 1.327 . S
C4137 C1789 1.339 . S
C4161 C1633 1.323 . S
C4169 C1076 1.337 . S
C4193 C1465 1.326 . S
C4201 C1261 1.336 . S
C4225 C1545 1.321 . S
C4233 C2748 1.336 . S
C4257 C1721 1.323 . S
C4265 C2581 1.338 . S
C4289 C1877 1.356 . S
C4297 C2433 1.351 . S
C4321 C2249 1.328 . S
C4329 C2044 1.339 . S
C4353 C20 1.933 . S
C4361 C577 1.929 . S
C4385 C117 1.903 . S
C4393 C673 1.928 . S
C4417 C401 1.918 . S
C4425 C205 1.918 . S
C4449 C293 1.909 . S
C4457 C497 1.921 . S
C4481 C761 1.905 . S
C4489 C1252 1.926 . S
C4513 C849 1.930 . S
C4521 C1340 1.919 . S
C4545 C1085 1.909 . S
C4553 C937 1.924 . S
C4577 C1017 1.938 . S
C4585 C1164 1.919 . S
C4609 C1993 1.908 . S
C4617 C1428 1.932 . S
C4641 C2081 1.936 . S
C4649 C1525 1.928 . S
C4673 C1809 1.932 . S
C4681 C1613 1.918 . S
C4705 C1897 1.936 . S
C4713 C1701 1.920 . S
C4737 C2669 1.909 . S
C4745 C2161 1.934 . S
C4769 C2757 1.916 . S
C4777 C2257 1.933 . S
C4801 C2337 1.939 . S
C4809 C2493 1.920 . S
C4833 C2572 1.913 . S
C4841 C2425 1.922 . S
