# Generated by pormake.
# Topology wjd, (6)-cn, num edge types: 1
# Building blocks:
#     Node 0, Type 0, BuildingBlock: KUMBOL_clean_sbu_1, # of connection points: 6
#     Node 1, Type 0, BuildingBlock: KUMBOL_clean_sbu_1, # of connection points: 6
#     Node 2, Type 0, BuildingBlock: KUMBOL_clean_sbu_1, # of connection points: 6
#     Node 3, Type 0, BuildingBlock: KUMBOL_clean_sbu_1, # of connection points: 6
#     Node 4, Type 0, BuildingBlock: KUMBOL_clean_sbu_1, # of connection points: 6
#     Node 5, Type 0, BuildingBlock: KUMBOL_clean_sbu_1, # of connection points: 6
#     Node 6, Type 0, BuildingBlock: KUMBOL_clean_sbu_1, # of connection points: 6
#     Node 7, Type 0, BuildingBlock: KUMBOL_clean_sbu_1, # of connection points: 6
#     Node 8, Type 0, BuildingBlock: KUMBOL_clean_sbu_1, # of connection points: 6
#     Node 9, Type 0, BuildingBlock: KUMBOL_clean_sbu_1, # of connection points: 6
#     Node 10, Type 0, BuildingBlock: KUMBOL_clean_sbu_1, # of connection points: 6
#     Node 11, Type 0, BuildingBlock: KUMBOL_clean_sbu_1, # of connection points: 6
#     Edge 12, Type (0, 0), BuildingBlock: XUDNAN_clean_linker_2, # of connection points: 2
#     Edge 13, Type (0, 0), BuildingBlock: XUDNAN_clean_linker_2, # of connection points: 2
#     Edge 14, Type (0, 0), BuildingBlock: XUDNAN_clean_linker_2, # of connection points: 2
#     Edge 15, Type (0, 0), BuildingBlock: XUDNAN_clean_linker_2, # of connection points: 2
#     Edge 16, Type (0, 0), BuildingBlock: XUDNAN_clean_linker_2, # of connection points: 2
#     Edge 17, Type (0, 0), BuildingBlock: XUDNAN_clean_linker_2, # of connection points: 2
#     Edge 18, Type (0, 0), BuildingBlock: XUDNAN_clean_linker_2, # of connection points: 2
#     Edge 19, Type (0, 0), BuildingBlock: XUDNAN_clean_linker_2, # of connection points: 2
#     Edge 20, Type (0, 0), BuildingBlock: XUDNAN_clean_linker_2, # of connection points: 2
#     Edge 21, Type (0, 0), BuildingBlock: XUDNAN_clean_linker_2, # of connection points: 2
#     Edge 22, Type (0, 0), BuildingBlock: XUDNAN_clean_linker_2, # of connection points: 2
#     Edge 23, Type (0, 0), BuildingBlock: XUDNAN_clean_linker_2, # of connection points: 2
#     Edge 24, Type (0, 0), BuildingBlock: XUDNAN_clean_linker_2, # of connection points: 2
#     Edge 25, Type (0, 0), BuildingBlock: XUDNAN_clean_linker_2, # of connection points: 2
#     Edge 26, Type (0, 0), BuildingBlock: XUDNAN_clean_linker_2, # of connection points: 2
#     Edge 27, Type (0, 0), BuildingBlock: XUDNAN_clean_linker_2, # of connection points: 2
#     Edge 28, Type (0, 0), BuildingBlock: XUDNAN_clean_linker_2, # of connection points: 2
#     Edge 29, Type (0, 0), BuildingBlock: XUDNAN_clean_linker_2, # of connection points: 2
#     Edge 30, Type (0, 0), BuildingBlock: XUDNAN_clean_linker_2, # of connection points: 2
#     Edge 31, Type (0, 0), BuildingBlock: XUDNAN_clean_linker_2, # of connection points: 2
#     Edge 32, Type (0, 0), BuildingBlock: XUDNAN_clean_linker_2, # of connection points: 2
#     Edge 33, Type (0, 0), BuildingBlock: XUDNAN_clean_linker_2, # of connection points: 2
#     Edge 34, Type (0, 0), BuildingBlock: XUDNAN_clean_linker_2, # of connection points: 2
#     Edge 35, Type (0, 0), BuildingBlock: XUDNAN_clean_linker_2, # of connection points: 2
#     Edge 36, Type (0, 0), BuildingBlock: XUDNAN_clean_linker_2, # of connection points: 2
#     Edge 37, Type (0, 0), BuildingBlock: XUDNAN_clean_linker_2, # of connection points: 2
#     Edge 38, Type (0, 0), BuildingBlock: XUDNAN_clean_linker_2, # of connection points: 2
#     Edge 39, Type (0, 0), BuildingBlock: XUDNAN_clean_linker_2, # of connection points: 2
#     Edge 40, Type (0, 0), BuildingBlock: XUDNAN_clean_linker_2, # of connection points: 2
#     Edge 41, Type (0, 0), BuildingBlock: XUDNAN_clean_linker_2, # of connection points: 2
#     Edge 42, Type (0, 0), BuildingBlock: XUDNAN_clean_linker_2, # of connection points: 2
#     Edge 43, Type (0, 0), BuildingBlock: XUDNAN_clean_linker_2, # of connection points: 2
#     Edge 44, Type (0, 0), BuildingBlock: XUDNAN_clean_linker_2, # of connection points: 2
#     Edge 45, Type (0, 0), BuildingBlock: XUDNAN_clean_linker_2, # of connection points: 2
#     Edge 46, Type (0, 0), BuildingBlock: XUDNAN_clean_linker_2, # of connection points: 2
#     Edge 47, Type (0, 0), BuildingBlock: XUDNAN_clean_linker_2, # of connection points: 2
# Relax obj value: 0.072
# Max RMSD: 0.186
# Mean RMSD: 0.186
data_MOF--net-wjd--node1-KUMBOL_clean_sbu_1--edge1-XUDNAN_clean_linker_2
_symmetry_space_group_name_H-M    P1
_symmetry_Int_Tables_number       1
_symmetry_cell_setting            triclinic
loop_
_symmetry_equiv_pos_as_xyz
'x, y, z'
_cell_length_a     39.192254
_cell_length_b     39.137779
_cell_length_c     54.159867
_cell_angle_alpha  90.027309
_cell_angle_beta   90.046986
_cell_angle_gamma 119.98046
loop_
_atom_site_label
_atom_site_type_symbol
_atom_site_fract_x
_atom_site_fract_y
_atom_site_fract_z
_atom_type_partial_charge
C0 C 0.33005 0.20689 0.07544 0.0
C1 C 0.30453 0.23608 0.1043 0.0
C2 C 0.32634 0.21705 0.09949 0.0
C3 C 0.28652 0.24461 0.08469 0.0
C4 C 0.31227 0.21568 0.05569 0.0
C5 C 0.29045 0.23452 0.06046 0.0
N6 N 0.35075 0.18809 0.07138 0.0
C7 C 0.35561 0.17797 0.0481 0.0
C8 C 0.3168 0.20509 0.03172 0.0
C9 C 0.33868 0.18626 0.02791 0.0
Gd10 Gd 0.32153 0.07191 0.14423 0.0
Gd11 Gd 0.37725 0.17468 0.10619 0.0
N12 N 0.34331 0.20752 0.11819 0.0
C13 C 0.30133 0.24584 0.12871 0.0
C14 C 0.34221 0.21913 0.1418 0.0
C15 C 0.32062 0.23772 0.14749 0.0
H16 H 0.35828 0.21483 0.15633 0.0
H17 H 0.31918 0.2461 0.16634 0.0
H18 H 0.35756 0.03658 0.10055 0.0
H19 H 0.37304 0.16399 0.04506 0.0
H20 H 0.39037 0.99705 0.0986 0.0
H21 H 0.28459 0.26021 0.13319 0.0
H22 H 0.26949 0.25904 0.08808 0.0
H23 H 0.31525 0.08891 0.20426 0.0
H24 H 0.30364 0.21139 0.01605 0.0
H25 H 0.34256 0.17818 0.00945 0.0
H26 H 0.4173 0.98351 0.18327 0.0
H27 H 0.27643 0.24137 0.04553 0.0
H28 H 0.37863 0.0448 0.24515 0.0
H29 H 0.34165 0.08048 0.24396 0.0
N30 N 0.34131 0.06231 0.1831 0.0
C31 C 0.3612 0.04209 0.18331 0.0
C32 C 0.33302 0.07493 0.20455 0.0
C33 C 0.36798 0.04919 0.22765 0.0
C34 C 0.347 0.06934 0.22706 0.0
C35 C 0.37479 0.03473 0.20569 0.0
H36 H 0.40554 1.00753 0.22251 0.0
N37 N 0.35712 0.03863 0.13958 0.0
C38 C 0.36836 0.02897 0.16105 0.0
C39 C 0.39575 0.99532 0.1381 0.0
C40 C 0.38854 1.00756 0.16082 0.0
C41 C 0.36488 0.0275 0.11739 0.0
C42 C 0.3841 1.00557 0.11629 0.0
O43 O 0.31074 0.13879 0.10571 0.0
O44 O 0.29462 0.1116 0.14442 0.0
O45 O 0.26769 0.02324 0.1287 0.0
O46 O 0.27822 0.02628 0.16795 0.0
O47 O 0.39088 0.17339 0.1474 0.0
O48 O 0.33146 0.12679 0.16327 0.0
O49 O 0.38911 0.10213 0.14125 0.0
O50 O 0.40116 0.13389 0.10416 0.0
O51 O 0.42787 0.22904 0.11972 0.0
O52 O 0.42363 0.2141 0.08108 0.0
O53 O 0.3105 0.06941 0.10324 0.0
O54 O 0.36296 0.12017 0.082 0.0
C55 C 0.28611 0.12477 0.12431 0.0
C56 C 0.36713 0.15651 0.16634 0.0
C57 C 0.21264 1.0016 0.15521 0.0
C58 C 0.14098 0.9588 0.15332 0.0
C59 C 0.16982 0.0218 0.17473 0.0
C60 C 0.2075 0.02935 0.16871 0.0
C61 C 0.13681 0.98693 0.16712 0.0
C62 C 0.17925 0.96645 0.14729 0.0
C63 C 0.2528 1.00887 0.1503 0.0
C64 C 0.40158 0.99974 0.18313 0.0
C65 C 0.39495 0.01348 0.20547 0.0
H66 H 0.41105 0.97871 0.13717 0.0
C67 C 0.41342 0.12301 0.12334 0.0
C68 C 0.33203 0.08364 0.08323 0.0
C69 C 0.45466 0.28256 0.09129 0.0
C70 C 0.50049 0.35403 0.09487 0.0
C71 C 0.44506 0.32878 0.06641 0.0
C72 C 0.43332 0.29022 0.07344 0.0
C73 C 0.47843 0.36037 0.07686 0.0
C74 C 0.48817 0.31482 0.1023 0.0
C75 C 0.44263 0.24109 0.09779 0.0
H76 H 0.16612 0.04289 0.18556 0.0
H77 H 0.23266 0.05663 0.17495 0.0
H78 H 0.10789 0.98221 0.1718 0.0
H79 H 0.18306 0.94491 0.13692 0.0
H80 H 0.42835 0.3342 0.0526 0.0
H81 H 0.40774 0.26641 0.06462 0.0
H82 H 0.48694 0.39002 0.07095 0.0
H83 H 0.50502 0.30943 0.11606 0.0
C84 C 0.71094 0.68974 0.33796 0.0
C85 C 0.65273 0.66689 0.36357 0.0
C86 C 0.69367 0.6824 0.36119 0.0
C87 C 0.6294 0.6586 0.34228 0.0
C88 C 0.68773 0.68215 0.31657 0.0
C89 C 0.64686 0.66626 0.31884 0.0
N90 N 0.75054 0.70531 0.33629 0.0
C91 C 0.76905 0.7148 0.31397 0.0
C92 C 0.70645 0.69155 0.29354 0.0
C93 C 0.74733 0.70832 0.2923 0.0
Gd94 Gd 0.82701 0.65397 0.40581 0.0
Gd95 Gd 0.78443 0.71803 0.37364 0.0
N96 N 0.71695 0.69026 0.38146 0.0
C97 C 0.63649 0.6602 0.38731 0.0
C98 C 0.70153 0.68504 0.40462 0.0
C99 C 0.66105 0.6695 0.40791 0.0
H100 H 0.72029 0.69273 0.42053 0.0
H101 H 0.64886 0.66492 0.42634 0.0
H102 H 0.87688 0.66677 0.35211 0.0
H103 H 0.80075 0.72853 0.31295 0.0
H104 H 0.94499 0.69055 0.33917 0.0
H105 H 0.60515 0.64821 0.38992 0.0
H106 H 0.59786 0.64653 0.34374 0.0
H107 H 0.83121 0.67345 0.46686 0.0
H108 H 0.68973 0.68675 0.27669 0.0
H109 H 0.76225 0.71704 0.27475 0.0
H110 H 0.01787 0.72446 0.41495 0.0
H111 H 0.62852 0.66011 0.3026 0.0
H112 H 0.95043 0.71826 0.48991 0.0
H113 H 0.88133 0.69827 0.49974 0.0
N114 N 0.87206 0.68227 0.43823 0.0
C115 C 0.90999 0.69352 0.43233 0.0
C116 C 0.86154 0.68382 0.46206 0.0
C117 C 0.92873 0.70836 0.47524 0.0
C118 C 0.88978 0.69725 0.48085 0.0
C119 C 0.93924 0.7064 0.4508 0.0
H120 H 1.00065 0.72623 0.45836 0.0
N121 N 0.89107 0.68037 0.39008 0.0
C122 C 0.91976 0.6925 0.40766 0.0
C123 C 0.96813 0.70437 0.37616 0.0
C124 C 0.95897 0.70446 0.40112 0.0
C125 C 0.89962 0.67869 0.36584 0.0
C126 C 0.93833 0.6915 0.35847 0.0
O127 O 0.74141 0.65161 0.37591 0.0
O128 O 0.76224 0.63107 0.40975 0.0
O129 O 0.82591 0.60011 0.39325 0.0
O130 O 0.82766 0.61297 0.43231 0.0
O131 O 0.8061 0.72663 0.41296 0.0
O132 O 0.79009 0.66886 0.43214 0.0
O133 O 0.86646 0.72035 0.4035 0.0
O134 O 0.84784 0.73585 0.36699 0.0
O135 O 0.78784 0.76887 0.39231 0.0
O136 O 0.80055 0.7715 0.35323 0.0
O137 O 0.80623 0.63954 0.36529 0.0
O138 O 0.81857 0.69934 0.34951 0.0
C139 C 0.73689 0.62429 0.39195 0.0
C140 C 0.7907 0.703 0.43185 0.0
C141 C 0.81315 0.54789 0.42185 0.0
C142 C 0.81949 0.4887 0.42018 0.0
C143 C 0.76975 0.49041 0.44621 0.0
C144 C 0.78273 0.52927 0.43909 0.0
C145 C 0.78776 0.47016 0.43676 0.0
C146 C 0.83179 0.52764 0.4126 0.0
C147 C 0.82908 0.58981 0.41563 0.0
C148 C 0.98773 0.71576 0.41962 0.0
C149 C 0.97791 0.71673 0.44437 0.0
H150 H 0.99799 0.71368 0.37041 0.0
C151 C 0.87397 0.74367 0.38441 0.0
C152 C 0.80997 0.66265 0.34639 0.0
C153 C 0.77761 0.8131 0.36774 0.0
C154 C 0.78075 0.87688 0.36913 0.0
C155 C 0.72602 0.82107 0.34868 0.0
C156 C 0.74205 0.79727 0.35462 0.0
C157 C 0.74537 0.86075 0.35569 0.0
C158 C 0.79659 0.85272 0.37524 0.0
C159 C 0.79704 0.78991 0.3722 0.0
H160 H 0.74614 0.47616 0.45949 0.0
H161 H 0.76948 0.54507 0.44729 0.0
H162 H 0.77781 0.44044 0.44318 0.0
H163 H 0.85634 0.54249 0.39995 0.0
H164 H 0.69868 0.80881 0.33842 0.0
H165 H 0.72708 0.76686 0.34862 0.0
H166 H 0.73249 0.87874 0.35088 0.0
H167 H 0.82427 0.86505 0.38521 0.0
C168 C 0.80993 0.10692 0.0938 0.0
C169 C 0.77812 0.06875 0.13049 0.0
C170 C 0.80073 0.10554 0.11871 0.0
C171 C 0.76691 0.03377 0.11732 0.0
C172 C 0.79808 0.07185 0.0804 0.0
C173 C 0.77698 0.03532 0.09238 0.0
N174 N 0.83052 0.14268 0.08264 0.0
C175 C 0.83946 0.14561 0.05812 0.0
C176 C 0.80781 0.0746 0.05532 0.0
C177 C 0.82846 0.11163 0.04412 0.0
Gd178 Gd 0.95728 0.24587 0.13542 0.0
Gd179 Gd 0.84752 0.19785 0.10739 0.0
N180 N 0.81237 0.13997 0.13111 0.0
C181 C 0.76634 0.06815 0.15492 0.0
C182 C 0.79794 0.13917 0.15418 0.0
C183 C 0.77587 0.1035 0.1667 0.0
H184 H 0.80167 0.16562 0.16277 0.0
H185 H 0.76523 0.10323 0.18518 0.0
H186 H 0.99965 0.30685 0.08721 0.0
H187 H 0.85509 0.17419 0.04938 0.0
H188 H 0.04239 0.37801 0.07994 0.0
H189 H 0.74853 0.04053 0.16453 0.0
H190 H 0.74988 1.00529 0.12615 0.0
H191 H 0.95186 0.23389 0.19685 0.0
H192 H 0.79932 0.04832 0.04442 0.0
H193 H 0.83581 0.11401 0.02471 0.0
H194 H 0.06539 0.43537 0.16093 0.0
H195 H 0.7679 1.00806 0.08245 0.0
H196 H 1.01021 0.34845 0.23015 0.0
H197 H 0.97145 0.27599 0.23418 0.0
N198 N 0.9761 0.28235 0.17207 0.0
C199 C 0.99855 0.32211 0.16938 0.0
C200 C 0.96719 0.26556 0.19493 0.0
C201 C 1.00089 0.33023 0.2137 0.0
C202 C 0.97889 0.28926 0.21607 0.0
C203 C 1.01156 0.34714 0.19018 0.0
H204 H 0.04541 0.40774 0.20267 0.0
N205 N 0.99624 0.31294 0.12598 0.0
C206 C 1.00956 0.33779 0.14574 0.0
C207 C 0.04582 0.39328 0.11845 0.0
C208 C 0.03423 0.37874 0.14245 0.0
C209 C 1.0084 0.32676 0.10265 0.0
C210 C 0.03307 0.36712 0.09851 0.0
O211 O 0.88458 0.16839 0.10389 0.0
O212 O 0.91513 0.18074 0.14112 0.0
O213 O 0.99654 0.22896 0.11768 0.0
O214 O 1.00712 0.25006 0.15536 0.0
O215 O 0.85981 0.22238 0.14677 0.0
O216 O 0.90639 0.20752 0.15993 0.0
O217 O 0.93162 0.28711 0.1325 0.0
O218 O 0.88471 0.26277 0.10138 0.0
O219 O 0.79682 0.20341 0.11773 0.0
O220 O 0.80478 0.19268 0.07976 0.0
O221 O 0.95124 0.23671 0.09416 0.0
O222 O 0.89401 0.2332 0.07817 0.0
C223 C 0.89769 0.15691 0.12249 0.0
C224 C 0.8785 0.21565 0.16466 0.0
C225 C 0.02249 0.20106 0.14536 0.0
C226 C 0.06315 0.17004 0.14649 0.0
C227 C 1.00121 0.14102 0.16895 0.0
C228 C 0.99478 0.17111 0.1607 0.0
C229 C 0.03532 0.14059 0.16207 0.0
C230 C 0.05641 0.20018 0.13805 0.0
C231 C 0.0169 0.23401 0.13778 0.0
C232 C 0.04668 0.40379 0.16312 0.0
C233 C 0.03526 0.38805 0.1869 0.0
H234 H 0.06484 0.42455 0.11516 0.0
C235 C 0.90685 0.29014 0.11732 0.0
C236 C 0.93021 0.23891 0.07587 0.0
C237 C 0.73913 0.1627 0.09504 0.0
C238 C 0.66931 0.13999 0.10297 0.0
C239 C 0.68936 0.09476 0.08657 0.0
C240 C 0.72861 0.1248 0.08654 0.0
C241 C 0.65991 0.10221 0.09461 0.0
C242 C 0.70935 0.17011 0.10333 0.0
C243 C 0.781 0.19427 0.09589 0.0
H244 H 0.97976 0.11805 0.18078 0.0
H245 H 0.96846 0.17128 0.16656 0.0
H246 H 0.03965 0.11685 0.16857 0.0
H247 H 0.07784 0.22327 0.12621 0.0
H248 H 0.68165 0.06567 0.07995 0.0
H249 H 0.75059 0.11834 0.07966 0.0
H250 H 0.62961 0.07853 0.09352 0.0
H251 H 0.71745 0.19929 0.11006 0.0
C252 C 0.33353 0.02969 0.33745 0.0
C253 C 0.36015 0.99479 0.36024 0.0
C254 C 0.34499 0.02072 0.35971 0.0
C255 C 0.36426 0.97856 0.33807 0.0
C256 C 0.33675 0.01272 0.31525 0.0
C257 C 0.35255 0.98745 0.31564 0.0
N258 N 0.31834 0.05419 0.33758 0.0
C259 C 0.3052 0.06257 0.31638 0.0
C260 C 0.32333 0.02113 0.29337 0.0
C261 C 0.30718 0.04587 0.294 0.0
Gd262 Gd 0.38474 0.18681 0.40389 0.0
Gd263 Gd 0.31601 0.08005 0.37592 0.0
N264 N 0.34104 0.03718 0.38085 0.0
C265 C 0.37027 0.98556 0.38308 0.0
C266 C 0.34925 0.027 0.40323 0.0
C267 C 0.36435 1.00139 0.40469 0.0
H268 H 0.34425 0.03857 0.41992 0.0
H269 H 0.37138 0.99388 0.42248 0.0
H270 H 0.38235 0.22758 0.34852 0.0
H271 H 0.29231 0.08137 0.3169 0.0
H272 H 0.36237 0.27356 0.33305 0.0
H273 H 0.38203 0.96577 0.38427 0.0
H274 H 0.37603 0.95872 0.33809 0.0
H275 H 0.35811 0.17206 0.46348 0.0
H276 H 0.32462 1.00809 0.27601 0.0
H277 H 0.29572 0.05159 0.27734 0.0
H278 H 0.32291 0.31502 0.40543 0.0
H279 H 0.35545 0.97432 0.29874 0.0
H280 H 0.31922 0.25323 0.4824 0.0
H281 H 0.33356 0.20075 0.49452 0.0
N282 N 0.35508 0.20608 0.43385 0.0
C283 C 0.34678 0.2344 0.42664 0.0
C284 C 0.35044 0.1938 0.45781 0.0
C285 C 0.32916 0.24012 0.46859 0.0
C286 C 0.33706 0.21038 0.47549 0.0
C287 C 0.33405 0.25254 0.44395 0.0
H288 H 0.31717 0.29696 0.44929 0.0
N289 N 0.36346 0.22733 0.38543 0.0
C290 C 0.35054 0.24491 0.40177 0.0
C291 C 0.34461 0.28319 0.36875 0.0
C292 C 0.34124 0.27364 0.39384 0.0
C293 C 0.36877 0.23823 0.36117 0.0
C294 C 0.35846 0.26542 0.35237 0.0
O295 O 0.38139 0.09998 0.37556 0.0
O296 O 0.40874 0.14579 0.40701 0.0
O297 O 0.44022 0.2404 0.39362 0.0
O298 O 0.42549 0.22234 0.43221 0.0
O299 O 0.31502 0.0863 0.41742 0.0
O300 O 0.37487 0.13777 0.43057 0.0
O301 O 0.31806 0.15806 0.40631 0.0
O302 O 0.30205 0.12799 0.36893 0.0
O303 O 0.26351 0.05306 0.39827 0.0
O304 O 0.26179 0.03171 0.36097 0.0
O305 O 0.3963 0.17711 0.36358 0.0
O306 O 0.33406 0.13166 0.35065 0.0
C307 C 0.41079 0.12295 0.39018 0.0
C308 C 0.34258 0.10353 0.43423 0.0
C309 C 0.48763 0.28138 0.42575 0.0
C310 C 0.54201 0.34933 0.42263 0.0
C311 C 0.53554 0.30956 0.45885 0.0
C312 C 0.5021 0.27787 0.44876 0.0
C313 C 0.55506 0.34508 0.44612 0.0
C314 C 0.50784 0.31712 0.41253 0.0
C315 C 0.45032 0.24807 0.41677 0.0
C316 C 0.32965 0.29253 0.41118 0.0
C317 C 0.32649 0.28233 0.43618 0.0
H318 H 0.33746 0.30489 0.36194 0.0
C319 C 0.29449 0.14509 0.38714 0.0
C320 C 0.37101 0.15721 0.34576 0.0
C321 C 0.21981 0.98616 0.39062 0.0
C322 C 0.15633 0.92632 0.39368 0.0
C323 C 0.2126 0.93218 0.41625 0.0
C324 C 0.23612 0.97008 0.40675 0.0
C325 C 0.17274 0.91044 0.40995 0.0
C326 C 0.18014 0.96413 0.38394 0.0
C327 C 0.24285 0.0266 0.38162 0.0
H328 H 0.54613 0.30674 0.47677 0.0
H329 H 0.48722 0.25066 0.45919 0.0
H330 H 0.58028 0.36946 0.45496 0.0
H331 H 0.4969 0.31986 0.39468 0.0
H332 H 0.22517 0.91976 0.42868 0.0
H333 H 0.26671 0.98697 0.41225 0.0
H334 H 0.15481 0.88118 0.4176 0.0
H335 H 0.16751 0.97687 0.37173 0.0
C336 C 0.90128 0.68462 0.07508 0.0
C337 C 0.9563 0.70524 0.10343 0.0
C338 C 0.91546 0.68763 0.09909 0.0
C339 C 0.98259 0.71945 0.08345 0.0
C340 C 0.92769 0.6991 0.05503 0.0
C341 C 0.96834 0.71636 0.05934 0.0
N342 N 0.86185 0.6687 0.07143 0.0
C343 C 0.8468 0.66547 0.04826 0.0
C344 C 0.9125 0.69621 0.03122 0.0
C345 C 0.87189 0.67925 0.02784 0.0
Gd346 Gd 0.7849 0.7105 0.14186 0.0
Gd347 Gd 0.82278 0.64546 0.10686 0.0
N348 N 0.88944 0.67504 0.11824 0.0
C349 C 0.96958 0.70856 0.12779 0.0
C350 C 0.90212 0.67652 0.14189 0.0
C351 C 0.94235 0.69388 0.14706 0.0
H352 H 0.88153 0.66408 0.15683 0.0
H353 H 0.95231 0.69563 0.16591 0.0
H354 H 0.72123 0.69638 0.09595 0.0
H355 H 0.81538 0.65152 0.04539 0.0
H356 H 0.64964 0.66582 0.08994 0.0
H357 H 1.00074 0.72211 0.13189 0.0
H358 H 1.01406 0.73315 0.08646 0.0
H359 H 0.7996 0.71168 0.20268 0.0
H360 H 0.93185 0.70695 0.01534 0.0
H361 H 0.85987 0.67662 0.00948 0.0
H362 H 0.59644 0.62437 0.17134 0.0
H363 H 0.98905 0.72768 0.04415 0.0
H364 H 0.68691 0.64972 0.23785 0.0
H365 H 0.75945 0.68227 0.24014 0.0
N366 N 0.75004 0.69098 0.17905 0.0
C367 C 0.71022 0.67366 0.17733 0.0
C368 C 0.7679 0.69585 0.20137 0.0
C369 C 0.70431 0.66163 0.22127 0.0
C370 C 0.74531 0.68026 0.22269 0.0
C371 C 0.68625 0.65866 0.19845 0.0
H372 H 0.62628 0.62904 0.21211 0.0
N373 N 0.71729 0.684 0.13419 0.0
C374 C 0.69336 0.67061 0.1543 0.0
C375 C 0.63633 0.6509 0.12836 0.0
C376 C 0.65216 0.65303 0.15186 0.0
C377 C 0.70216 0.68349 0.11146 0.0
C378 C 0.6615 0.66658 0.10811 0.0
O379 O 0.86156 0.71214 0.10657 0.0
O380 O 0.85019 0.73146 0.14408 0.0
O381 O 0.79043 0.76415 0.12601 0.0
O382 O 0.79816 0.76041 0.16539 0.0
O383 O 0.80624 0.63338 0.14809 0.0
O384 O 0.82403 0.6948 0.16309 0.0
O385 O 0.74245 0.64333 0.13971 0.0
O386 O 0.75765 0.62135 0.10407 0.0
O387 O 0.82547 0.59496 0.12158 0.0
O388 O 0.81839 0.59966 0.08224 0.0
O389 O 0.80023 0.71909 0.10141 0.0
O390 O 0.78431 0.66079 0.08218 0.0
C391 C 0.87288 0.73763 0.1248 0.0
C392 C 0.81491 0.65817 0.16675 0.0
C393 C 0.78164 0.80803 0.15212 0.0
C394 C 0.79024 0.87431 0.15067 0.0
C395 C 0.73426 0.82137 0.17217 0.0
C396 C 0.74707 0.79496 0.16591 0.0
C397 C 0.75582 0.86086 0.16482 0.0
C398 C 0.80281 0.84751 0.14426 0.0
C399 C 0.7981 0.78221 0.14725 0.0
C400 C 0.62817 0.63812 0.17287 0.0
C401 C 0.64517 0.64081 0.19608 0.0
H402 H 0.60482 0.63765 0.1257 0.0
C403 C 0.7337 0.61633 0.12237 0.0
C404 C 0.78528 0.69516 0.0825 0.0
C405 C 0.80389 0.53656 0.09742 0.0
C406 C 0.80987 0.47697 0.09936 0.0
C407 C 0.75165 0.47481 0.08128 0.0
C408 C 0.76694 0.51483 0.0862 0.0
C409 C 0.77293 0.45614 0.08748 0.0
C410 C 0.82486 0.51747 0.1044 0.0
C411 C 0.82317 0.57976 0.09983 0.0
H412 H 0.70767 0.81126 0.18294 0.0
H413 H 0.73043 0.76464 0.17212 0.0
H414 H 0.74529 0.88077 0.16986 0.0
H415 H 0.82971 0.85765 0.13374 0.0
H416 H 0.72362 0.45827 0.07195 0.0
H417 H 0.75048 0.52904 0.08067 0.0
H418 H 0.76059 0.42553 0.08227 0.0
H419 H 0.85314 0.5346 0.11341 0.0
C420 C 0.99304 0.3225 0.3442 0.0
C421 C 0.0306 0.3799 0.37027 0.0
C422 C 1.00545 0.33892 0.36746 0.0
C423 C 0.04156 0.40439 0.34939 0.0
C424 C 1.00543 0.34682 0.32309 0.0
C425 C 0.0289 0.3879 0.32586 0.0
N426 N 0.97111 0.28261 0.34211 0.0
C427 C 0.96402 0.2651 0.31943 0.0
C428 C 0.99508 0.32903 0.29978 0.0
C429 C 0.97489 0.28796 0.29797 0.0
Gd430 Gd 0.83863 0.20652 0.40137 0.0
Gd431 Gd 0.95143 0.24722 0.3794 0.0
N432 N 0.99397 0.31454 0.38732 0.0
C433 C 0.04462 0.39491 0.39392 0.0
C434 C 1.00895 0.32871 0.41024 0.0
C435 C 0.03413 0.3691 0.41395 0.0
H436 H 1.00166 0.30859 0.42552 0.0
H437 H 0.04554 0.38024 0.43221 0.0
H438 H 0.79351 0.16933 0.34622 0.0
H439 H 0.95039 0.23347 0.31781 0.0
H440 H 0.75394 0.10454 0.32679 0.0
H441 H 0.06413 0.42621 0.39683 0.0
H442 H 0.0605 0.43601 0.35119 0.0
H443 H 0.84572 0.18914 0.46064 0.0
H444 H 1.00392 0.34665 0.2831 0.0
H445 H 0.96826 0.27393 0.28005 0.0
H446 H 0.73116 0.01242 0.39182 0.0
H447 H 0.03839 0.40706 0.30986 0.0
H448 H 0.78313 0.06407 0.47209 0.0
H449 H 0.82345 0.13181 0.48855 0.0
N450 N 0.8188 0.15392 0.4289 0.0
C451 C 0.79542 0.11712 0.41965 0.0
C452 C 0.82824 0.15962 0.45338 0.0
C453 C 0.7927 0.08908 0.45983 0.0
C454 C 0.81557 0.12727 0.46919 0.0
C455 C 0.78222 0.08361 0.43481 0.0
H456 H 0.74918 0.01972 0.43581 0.0
N457 N 0.79899 0.1462 0.38071 0.0
C458 C 0.78568 0.11313 0.39477 0.0
C459 C 0.75104 0.07231 0.35966 0.0
C460 C 0.76187 0.07529 0.38452 0.0
C461 C 0.78659 0.14339 0.35682 0.0
C462 C 0.76318 0.10652 0.34583 0.0
O463 O 0.9347 0.29267 0.39256 0.0
O464 O 0.87117 0.26241 0.37973 0.0
O465 O 0.78163 0.20058 0.39445 0.0
O466 O 0.81237 0.22783 0.42838 0.0
O467 O 0.93659 0.23448 0.41996 0.0
O468 O 0.88549 0.24618 0.42936 0.0
O469 O 0.87163 0.174 0.40875 0.0
O470 O 0.90558 0.18329 0.37307 0.0
O471 O 0.9829 0.22435 0.40025 0.0
O472 O 1.00191 0.24641 0.36333 0.0
O473 O 0.85301 0.22446 0.36096 0.0
O474 O 0.90317 0.21193 0.35137 0.0
C475 C 0.90242 0.29382 0.38778 0.0
C476 C 0.919 0.24739 0.43488 0.0
C477 C 0.74189 0.19141 0.42883 0.0
C478 C 0.67047 0.16471 0.42874 0.0
C479 C 0.70263 0.1527 0.46353 0.0
C480 C 0.73922 0.17435 0.45202 0.0
C481 C 0.66854 0.14812 0.45214 0.0
C482 C 0.7075 0.18595 0.41719 0.0
C483 C 0.7797 0.21441 0.41585 0.0
C484 C 0.74917 0.04173 0.39945 0.0
C485 C 0.75933 0.04587 0.42452 0.0
H486 H 0.73254 0.04382 0.35113 0.0
C487 C 0.88436 0.16034 0.39119 0.0
C488 C 0.8738 0.2172 0.34476 0.0
C489 C 0.04961 0.24796 0.39073 0.0
C490 C 0.1074 0.24047 0.39453 0.0
C491 C 0.10824 0.2984 0.41135 0.0
C492 C 0.0697 0.28413 0.40317 0.0
C493 C 0.12703 0.27666 0.40717 0.0
C494 C 0.06863 0.22632 0.3863 0.0
C495 C 1.00851 0.23141 0.38291 0.0
H496 H 0.70071 0.13975 0.48149 0.0
H497 H 0.76524 0.17776 0.46126 0.0
H498 H 0.64092 0.13224 0.46197 0.0
H499 H 0.70986 0.19819 0.39892 0.0
H500 H 0.12356 0.32638 0.42095 0.0
H501 H 0.05572 0.30122 0.40669 0.0
H502 H 0.15711 0.28841 0.41344 0.0
H503 H 0.05307 0.1982 0.37678 0.0
C504 C 0.03004 0.33673 0.66843 0.0
C505 C 1.00121 0.36922 0.64529 0.0
C506 C 0.02358 0.35011 0.64613 0.0
C507 C 0.98597 0.37528 0.66727 0.0
C508 C 1.01438 0.34232 0.69048 0.0
C509 C 0.99258 0.36192 0.68981 0.0
N510 N 0.0512 0.31786 0.6685 0.0
C511 C 0.05696 0.30287 0.68981 0.0
C512 C 0.02073 0.32763 0.71252 0.0
C513 C 0.04175 0.30748 0.71211 0.0
Gd514 Gd 0.18617 0.37809 0.6042 0.0
Gd515 Gd 0.07528 0.31188 0.6302 0.0
N516 N 0.03964 0.34481 0.62527 0.0
C517 C 0.99477 0.38155 0.62235 0.0
C518 C 0.03197 0.35505 0.60278 0.0
C519 C 1.00992 0.37408 0.60097 0.0
H520 H 0.04295 0.34862 0.58635 0.0
H521 H 1.00446 0.38277 0.58309 0.0
H522 H 0.22146 0.36516 0.65876 0.0
H523 H 0.07268 0.28673 0.6895 0.0
H524 H 0.26285 0.33857 0.67299 0.0
H525 H 0.97774 0.39635 0.62091 0.0
H526 H 0.96887 0.39009 0.66703 0.0
H527 H 0.17573 0.36187 0.54322 0.0
H528 H 1.00904 0.33115 0.72986 0.0
H529 H 0.04571 0.29508 0.72892 0.0
H530 H 0.3033 0.30288 0.59853 0.0
H531 H 0.98043 0.36659 0.70659 0.0
H532 H 0.24933 0.31504 0.52187 0.0
H533 H 0.20245 0.3375 0.5108 0.0
N534 N 0.20513 0.35079 0.57247 0.0
C535 C 0.23058 0.33828 0.57903 0.0
C536 C 0.19493 0.35069 0.54837 0.0
C537 C 0.23702 0.32489 0.53624 0.0
C538 C 0.21045 0.33741 0.52993 0.0
C539 C 0.24751 0.32535 0.56101 0.0
H540 H 0.28808 0.30387 0.55458 0.0
N541 N 0.2229 0.35111 0.62094 0.0
C542 C 0.23955 0.33824 0.60393 0.0
C543 C 0.27304 0.32413 0.6364 0.0
C544 C 0.26535 0.32477 0.61123 0.0
C545 C 0.23187 0.35228 0.64539 0.0
C546 C 0.25625 0.33799 0.65353 0.0
O547 O 0.10093 0.37878 0.6328 0.0
O548 O 0.14408 0.40046 0.60055 0.0
O549 O 0.23968 0.43003 0.61751 0.0
O550 O 0.22333 0.42512 0.5791 0.0
O551 O 0.08978 0.30837 0.59006 0.0
O552 O 0.13781 0.36947 0.57726 0.0
O553 O 0.15609 0.31142 0.60089 0.0
O554 O 0.11792 0.28958 0.63584 0.0
O555 O 0.02854 0.2691 0.60694 0.0
O556 O 0.03109 0.25538 0.64543 0.0
O557 O 0.17466 0.3859 0.64474 0.0
O558 O 0.12498 0.32402 0.65604 0.0
C559 C 0.12627 0.40742 0.6185 0.0
C560 C 0.10413 0.33654 0.57354 0.0
C561 C 0.29149 0.45592 0.58797 0.0
C562 C 0.36266 0.49849 0.59236 0.0
C563 C 0.33632 0.4488 0.56015 0.0
C564 C 0.29816 0.43742 0.56773 0.0
C565 C 0.36842 0.47932 0.57227 0.0
C566 C 0.32412 0.48648 0.60042 0.0
C567 C 0.25075 0.4444 0.5954 0.0
C568 C 0.28305 0.31287 0.59325 0.0
C569 C 0.27441 0.31347 0.56821 0.0
H570 H 0.29243 0.31367 0.64275 0.0
C571 C 0.13993 0.28589 0.61892 0.0
C572 C 0.15313 0.35974 0.66177 0.0
C573 C 1.00956 0.20354 0.61653 0.0
C574 C 0.96899 0.13188 0.61435 0.0
C575 C 0.03404 0.16522 0.59558 0.0
C576 C 0.03929 0.20157 0.60324 0.0
C577 C 0.99907 0.13056 0.60099 0.0
C578 C 0.97456 0.16864 0.6222 0.0
C579 C 1.01466 0.24195 0.624 0.0
H580 H 0.341 0.43429 0.54458 0.0
H581 H 0.27398 0.41452 0.5574 0.0
H582 H 0.39789 0.4882 0.56587 0.0
H583 H 0.31956 0.50145 0.61582 0.0
H584 H 0.05713 0.16393 0.58539 0.0
H585 H 0.0664 0.22813 0.59859 0.0
H586 H 0.99576 0.10264 0.59501 0.0
H587 H 0.9515 0.17017 0.63232 0.0
C588 C 0.10839 0.80028 0.91375 0.0
C589 C 0.06915 0.77456 0.87661 0.0
C590 C 0.10618 0.7931 0.88852 0.0
C591 C 0.03499 0.76513 0.89014 0.0
C592 C 0.07397 0.78934 0.92759 0.0
C593 C 0.03737 0.77237 0.91557 0.0
N594 N 0.14427 0.81789 0.92482 0.0
C595 C 0.14778 0.82298 0.9498 0.0
C596 C 0.07744 0.79591 0.95313 0.0
C597 C 0.11449 0.81249 0.96431 0.0
Gd598 Gd 0.24888 0.94676 0.87427 0.0
Gd599 Gd 0.1984 0.83286 0.89972 0.0
N600 N 0.13978 0.80206 0.87598 0.0
C601 C 0.06732 0.76447 0.8517 0.0
C602 C 0.13711 0.78764 0.85263 0.0
C603 C 0.1013 0.7701 0.83985 0.0
H604 H 0.16208 0.78837 0.84382 0.0
H605 H 0.09979 0.76006 0.82104 0.0
H606 H 0.32859 1.00131 0.90857 0.0
H607 H 0.17632 0.83526 0.95847 0.0
H608 H 0.40033 0.04489 0.90287 0.0
H609 H 0.03951 0.75037 0.84185 0.0
H610 H 1.0064 0.75119 0.88122 0.0
H611 H 0.2085 0.93717 0.81875 0.0
H612 H 0.0517 0.78795 0.96439 0.0
H613 H 0.1174 0.81709 0.98408 0.0
H614 H 0.41779 0.04773 0.81492 0.0
H615 H 1.01067 0.76431 0.92583 0.0
H616 H 0.30108 0.98947 0.76543 0.0
H617 H 0.22992 0.95293 0.77526 0.0
N618 N 0.26669 0.96053 0.83265 0.0
C619 C 0.30576 0.98162 0.82764 0.0
C620 C 0.23952 0.95137 0.81435 0.0
C621 C 0.2917 0.98101 0.78426 0.0
C622 C 0.25154 0.96072 0.7898 0.0
C623 C 0.31941 0.99203 0.80325 0.0
H624 H 0.37115 0.02265 0.78007 0.0
N625 N 0.31712 0.98835 0.8704 0.0
C626 C 0.33187 0.99605 0.84719 0.0
C627 C 0.39747 0.03789 0.8633 0.0
C628 C 0.37252 0.02084 0.84295 0.0
C629 C 0.34089 1.00659 0.89024 0.0
C630 C 0.38147 0.03117 0.88705 0.0
O631 O 0.17728 0.87578 0.90912 0.0
O632 O 0.18409 0.90352 0.87171 0.0
O633 O 0.2263 0.97521 0.89825 0.0
O634 O 0.2485 0.9994 0.86199 0.0
O635 O 0.21984 0.84306 0.85944 0.0
O636 O 0.20798 0.89299 0.85269 0.0
O637 O 0.292 0.92665 0.88632 0.0
O638 O 0.25967 0.85789 0.88403 0.0
O639 O 0.17318 0.76909 0.89811 0.0
O640 O 0.21448 0.80242 0.92688 0.0
O641 O 0.25613 0.9421 0.91495 0.0
O642 O 0.23502 0.87805 0.92969 0.0
C643 C 0.16411 0.89006 0.89216 0.0
C644 C 0.21762 0.86791 0.844 0.0
C645 C 0.24934 0.04294 0.89234 0.0
C646 C 0.2434 0.10162 0.8962 0.0
C647 C 0.29528 0.09731 0.91804 0.0
C648 C 0.28209 0.05977 0.90812 0.0
C649 C 0.2758 0.11803 0.91235 0.0
C650 C 0.23041 0.06409 0.8862 0.0
C651 C 0.23335 1.00305 0.88248 0.0
C652 C 0.38661 0.02911 0.81859 0.0
C653 C 0.36007 0.0148 0.79875 0.0
H654 H 0.42887 0.05713 0.86083 0.0
C655 C 0.29184 0.89275 0.88613 0.0
C656 C 0.25162 0.91699 0.9326 0.0
C657 C 0.20778 0.73987 0.91602 0.0
C658 C 0.1972 0.67334 0.90866 0.0
C659 C 0.25987 0.72513 0.92464 0.0
C660 C 0.2459 0.75162 0.92439 0.0
C661 C 0.23596 0.68646 0.91662 0.0
C662 C 0.18313 0.70027 0.90849 0.0
C663 C 0.19244 0.76763 0.91716 0.0
H664 H 0.32055 0.11031 0.93025 0.0
H665 H 0.29713 0.04384 0.9129 0.0
H666 H 0.28644 0.14711 0.92018 0.0
H667 H 0.20512 0.05105 0.87392 0.0
H668 H 0.28924 0.73443 0.93134 0.0
H669 H 0.26451 0.78117 0.9312 0.0
H670 H 0.24744 0.66639 0.91738 0.0
H671 H 0.15315 0.69041 0.90269 0.0
C672 C 0.71553 0.7302 0.68663 0.0
C673 C 0.68068 0.66006 0.67808 0.0
C674 C 0.69583 0.69935 0.67025 0.0
C675 C 0.68443 0.65236 0.70298 0.0
C676 C 0.72144 0.72285 0.71127 0.0
C677 C 0.70498 0.68372 0.71952 0.0
N678 N 0.73149 0.76753 0.67796 0.0
C679 C 0.75513 0.79904 0.69254 0.0
C680 C 0.74515 0.75504 0.72651 0.0
C681 C 0.76232 0.7933 0.71704 0.0
Gd682 Gd 0.65356 0.823 0.6122 0.0
Gd683 Gd 0.71881 0.77476 0.63669 0.0
N684 N 0.69387 0.70797 0.64624 0.0
C685 C 0.6636 0.62989 0.66046 0.0
C686 C 0.67958 0.67898 0.62871 0.0
C687 C 0.66353 0.63946 0.6356 0.0
H688 H 0.67959 0.68633 0.60948 0.0
H689 H 0.65127 0.61644 0.62175 0.0
H690 H 0.6367 0.84484 0.67081 0.0
H691 H 0.76858 0.82864 0.68521 0.0
H692 H 0.66396 0.90214 0.69829 0.0
H693 H 0.65151 0.59929 0.66573 0.0
H694 H 0.67272 0.62235 0.70942 0.0
H695 H 0.68191 0.85818 0.55558 0.0
H696 H 0.75148 0.75061 0.74531 0.0
H697 H 0.78149 0.81831 0.72848 0.0
H698 H 0.74648 1.01076 0.64574 0.0
H699 H 0.70891 0.67739 0.73845 0.0
H700 H 0.74914 0.9842 0.55961 0.0
H701 H 0.72083 0.9228 0.53498 0.0
N702 N 0.68901 0.883 0.59139 0.0
C703 C 0.70375 0.91628 0.60525 0.0
C704 C 0.69467 0.88488 0.56646 0.0
C705 C 0.73235 0.95596 0.56875 0.0
C706 C 0.71644 0.92137 0.55476 0.0
C707 C 0.72632 0.95374 0.59431 0.0
H708 H 0.75981 0.01668 0.60115 0.0
N709 N 0.67364 0.87613 0.6403 0.0
C710 C 0.69633 0.91275 0.63045 0.0
C711 C 0.70067 0.94275 0.67021 0.0
C712 C 0.71102 0.94695 0.64525 0.0
C713 C 0.6598 0.87259 0.66388 0.0
C714 C 0.67415 0.90547 0.6794 0.0
O715 O 0.65302 0.73106 0.63423 0.0
O716 O 0.62227 0.75684 0.60941 0.0
O717 O 0.60107 0.8268 0.62011 0.0
O718 O 0.61252 0.81651 0.58284 0.0
O719 O 0.69419 0.75634 0.59818 0.0
O720 O 0.67944 0.80256 0.58156 0.0
O721 O 0.71953 0.85279 0.60619 0.0
O722 O 0.73692 0.83843 0.64287 0.0
O723 O 0.76637 0.80364 0.60991 0.0
O724 O 0.77066 0.76858 0.63933 0.0
O725 O 0.64059 0.79331 0.65012 0.0
O726 O 0.70314 0.81079 0.66122 0.0
C727 C 0.62258 0.72791 0.62169 0.0
C728 C 0.6913 0.77625 0.57949 0.0
C729 C 0.57748 0.8516 0.58864 0.0
C730 C 0.53085 0.87648 0.59043 0.0
C731 C 0.58723 0.9063 0.56265 0.0
C732 C 0.599 0.87987 0.57052 0.0
C733 C 0.5536 0.90474 0.57247 0.0
C734 C 0.54335 0.85008 0.5986 0.0
C735 C 0.59009 0.82353 0.59722 0.0
C736 C 0.73459 0.98426 0.63458 0.0
C737 C 0.74209 0.98765 0.60917 0.0
H738 H 0.71144 0.96824 0.68221 0.0
C739 C 0.7443 0.86298 0.62461 0.0
C740 C 0.66635 0.79726 0.6671 0.0
C741 C 0.82907 0.8253 0.6279 0.0
C742 C 0.90027 0.85167 0.62904 0.0
C743 C 0.87135 0.88579 0.65032 0.0
C744 C 0.83395 0.85691 0.64266 0.0
C745 C 0.90432 0.88315 0.6437 0.0
C746 C 0.86241 0.82288 0.62095 0.0
C747 C 0.78911 0.79341 0.62154 0.0
H748 H 0.60431 0.92818 0.54881 0.0
H749 H 0.62487 0.88158 0.56231 0.0
H750 H 0.54573 0.92615 0.56616 0.0
H751 H 0.52632 0.82801 0.61239 0.0
H752 H 0.87475 0.91011 0.66164 0.0
H753 H 0.80884 0.85898 0.64866 0.0
H754 H 0.93311 0.90596 0.64986 0.0
H755 H 0.85881 0.7982 0.60987 0.0
C756 C 0.23041 0.33186 0.92117 0.0
C757 C 0.2676 0.32518 0.88751 0.0
C758 C 0.2408 0.33656 0.89624 0.0
C759 C 0.28468 0.31052 0.90411 0.0
C760 C 0.24743 0.31697 0.93781 0.0
C761 C 0.27526 0.30724 0.92924 0.0
N762 N 0.20366 0.34187 0.92916 0.0
C763 C 0.19325 0.33855 0.95343 0.0
C764 C 0.23616 0.3125 0.96267 0.0
C765 C 0.20883 0.3232 0.97048 0.0
Gd766 Gd 0.07525 0.3045 0.87314 0.0
Gd767 Gd 0.18572 0.37426 0.90041 0.0
N768 N 0.22536 0.35281 0.88069 0.0
C769 C 0.27737 0.32989 0.86245 0.0
C770 C 0.23703 0.35984 0.85656 0.0
C771 C 0.26216 0.34747 0.84696 0.0
H772 H 0.22869 0.37631 0.84464 0.0
H773 H 0.27078 0.35265 0.82773 0.0
H774 H 0.02036 0.30297 0.92032 0.0
H775 H 0.17367 0.34856 0.95983 0.0
H776 H 0.97458 0.32745 0.93027 0.0
H777 H 0.29756 0.32118 0.85503 0.0
H778 H 0.30565 0.30209 0.89775 0.0
H779 H 0.08223 0.30643 0.81116 0.0
H780 H 0.24851 0.30101 0.97598 0.0
H781 H 0.20037 0.32037 0.98971 0.0
H782 H 0.96424 0.38504 0.85426 0.0
H783 H 0.2891 0.29632 0.94185 0.0
H784 H 0.02755 0.36944 0.78285 0.0
H785 H 0.06589 0.33578 0.77593 0.0
N786 N 0.05772 0.32755 0.83799 0.0
C787 C 0.03448 0.34361 0.84196 0.0
C788 C 0.0674 0.32293 0.81452 0.0
C789 C 0.03567 0.35765 0.79844 0.0
C790 C 0.05738 0.33871 0.79446 0.0
C791 C 0.02308 0.35943 0.82235 0.0
H792 H 0.98968 0.38784 0.8123 0.0
N793 N 0.03033 0.32498 0.88365 0.0
C794 C 0.01993 0.34186 0.86548 0.0
C795 C 0.97811 0.35151 0.89396 0.0
C796 C 0.99393 0.35611 0.8702 0.0
C797 C 1.01338 0.31835 0.90645 0.0
C798 C 0.98744 0.33202 0.91206 0.0
O799 O 0.15515 0.30776 0.90372 0.0
O800 O 0.12366 0.29049 0.86675 0.0
O801 O 0.03663 0.24729 0.89029 0.0
O802 O 0.03402 0.25496 0.85099 0.0
O803 O 0.17652 0.38474 0.85987 0.0
O804 O 0.12672 0.32355 0.84703 0.0
O805 O 0.09069 0.36433 0.88983 0.0
O806 O 0.15641 0.40325 0.88073 0.0
O807 O 0.24774 0.4187 0.89918 0.0
O808 O 0.2105 0.42232 0.92726 0.0
O809 O 0.08751 0.29891 0.91298 0.0
O810 O 0.1353 0.35995 0.92772 0.0
C811 C 0.1421 0.28403 0.88468 0.0
C812 C 0.15532 0.35954 0.84221 0.0
C813 C 0.97636 0.20466 0.8696 0.0
C814 C 0.91997 0.13798 0.87309 0.0
C815 C 0.9109 0.19165 0.85855 0.0
C816 C 0.9512 0.21807 0.86122 0.0
C817 C 0.89538 0.15175 0.8642 0.0
C818 C 0.9605 0.16467 0.87595 0.0
C819 C 0.01939 0.23089 0.86955 0.0
C820 C 0.98392 0.37357 0.85098 0.0
C821 C 0.99846 0.37522 0.82709 0.0
H822 H 0.95798 0.36204 0.89835 0.0
C823 C 0.1218 0.39914 0.8856 0.0
C824 C 0.10196 0.3259 0.93042 0.0
C825 C 0.27123 0.48172 0.91734 0.0
C826 C 0.33752 0.54004 0.91369 0.0
C827 C 0.28108 0.54711 0.9248 0.0
C828 C 0.25612 0.50637 0.92353 0.0
C829 C 0.32109 0.56385 0.91955 0.0
C830 C 0.31204 0.49873 0.91251 0.0
C831 C 0.24599 0.43821 0.91805 0.0
H832 H 0.89168 0.20207 0.85187 0.0
H833 H 0.96282 0.24873 0.85624 0.0
H834 H 0.86405 0.1317 0.86201 0.0
H835 H 0.97976 0.15411 0.88247 0.0
H836 H 0.26948 0.566 0.93005 0.0
H837 H 0.22516 0.49421 0.92771 0.0
H838 H 0.3391 0.59567 0.92012 0.0
H839 H 0.32401 0.47962 0.90863 0.0
C840 C 0.32139 0.98509 0.66824 0.0
C841 C 0.3827 0.01915 0.64537 0.0
C842 C 0.34124 0.99759 0.64597 0.0
C843 C 0.40398 0.02636 0.66749 0.0
C844 C 0.34259 0.99397 0.69058 0.0
C845 C 0.38396 0.01373 0.69005 0.0
N846 N 0.28143 0.96662 0.66814 0.0
C847 C 0.26108 0.95991 0.6897 0.0
C848 C 0.32158 0.98389 0.71279 0.0
C849 C 0.28067 0.9675 0.71233 0.0
Gd850 Gd 0.20842 0.83853 0.60748 0.0
Gd851 Gd 0.25148 0.9504 0.62912 0.0
N852 N 0.31984 0.99002 0.62492 0.0
C853 C 0.40144 0.03362 0.62263 0.0
C854 C 0.3377 1.00602 0.60294 0.0
C855 C 0.3788 0.02753 0.60137 0.0
H856 H 0.32015 1.00107 0.58655 0.0
H857 H 0.39295 0.0393 0.5838 0.0
H858 H 0.16527 0.79369 0.66223 0.0
H859 H 0.22961 0.94831 0.68953 0.0
H860 H 0.09935 0.76174 0.68053 0.0
H861 H 0.43327 0.05034 0.62138 0.0
H862 H 0.4359 0.04251 0.66742 0.0
H863 H 0.19582 0.84339 0.54721 0.0
H864 H 0.33686 0.98991 0.7303 0.0
H865 H 0.26405 0.96075 0.72931 0.0
H866 H 1.01397 0.74531 0.61269 0.0
H867 H 0.40075 0.02043 0.70703 0.0
H868 H 0.07195 0.7879 0.53263 0.0
H869 H 0.14078 0.82291 0.51762 0.0
N870 N 0.15829 0.8209 0.57843 0.0
C871 C 0.12073 0.80007 0.58698 0.0
C872 C 0.16583 0.82828 0.55384 0.0
C873 C 0.09593 0.79663 0.54563 0.0
C874 C 0.13477 0.81655 0.53709 0.0
C875 C 0.08849 0.78805 0.57082 0.0
H876 H 0.0249 0.75955 0.56827 0.0
N877 N 0.14647 0.80282 0.6271 0.0
C878 C 0.11468 0.79179 0.61209 0.0
C879 C 0.07068 0.76205 0.64669 0.0
C880 C 0.07599 0.77149 0.62157 0.0
C881 C 0.14101 0.7901 0.65102 0.0
C882 C 0.10329 0.77069 0.66135 0.0
O883 O 0.29389 0.92937 0.61668 0.0
O884 O 0.26381 0.86549 0.63023 0.0
O885 O 0.1873 0.77574 0.60844 0.0
O886 O 0.23514 0.81318 0.58405 0.0
O887 O 0.24524 0.94056 0.588 0.0
O888 O 0.24957 0.88449 0.57918 0.0
O889 O 0.18057 0.87538 0.59748 0.0
O890 O 0.18706 0.90651 0.63371 0.0
O891 O 0.22628 0.97963 0.6085 0.0
O892 O 0.2563 1.00511 0.6429 0.0
O893 O 0.22348 0.85001 0.64876 0.0
O894 O 0.21253 0.9017 0.65548 0.0
C895 C 0.29567 0.89866 0.62488 0.0
C896 C 0.25368 0.91924 0.57312 0.0
C897 C 0.23359 0.75586 0.60042 0.0
C898 C 0.22863 0.69267 0.61049 0.0
C899 C 0.29243 0.75302 0.61058 0.0
C900 C 0.27454 0.77488 0.604 0.0
C901 C 0.26974 0.71219 0.6137 0.0
C902 C 0.21078 0.71481 0.60389 0.0
C903 C 0.21375 0.77785 0.59315 0.0
C904 C 0.04383 0.76055 0.60566 0.0
C905 C 0.05004 0.76853 0.58033 0.0
H906 H 0.04147 0.74672 0.65471 0.0
C907 C 0.16599 0.88856 0.61422 0.0
C908 C 0.21806 0.87339 0.66388 0.0
C909 C 0.25209 0.04772 0.61336 0.0
C910 C 0.24365 0.10492 0.60813 0.0
C911 C 0.29158 0.09796 0.58333 0.0
C912 C 0.28113 0.06224 0.59498 0.0
C913 C 0.27288 0.11916 0.58974 0.0
C914 C 0.23365 0.0692 0.61998 0.0
C915 C 0.2375 1.0085 0.62412 0.0
H916 H 0.32401 0.76779 0.61326 0.0
H917 H 0.29271 0.8065 0.60171 0.0
H918 H 0.28428 0.6959 0.6189 0.0
H919 H 0.17917 0.70004 0.60105 0.0
H920 H 0.31392 0.10904 0.56909 0.0
H921 H 0.29504 0.04564 0.58931 0.0
H922 H 0.28146 0.1468 0.58046 0.0
H923 H 0.2105 0.05738 0.63378 0.0
C924 C 0.70642 0.91268 0.91293 0.0
C925 C 0.71535 0.94764 0.87448 0.0
C926 C 0.69962 0.91191 0.88775 0.0
C927 C 0.73904 0.98365 0.8867 0.0
C928 C 0.72949 0.94878 0.92537 0.0
C929 C 0.74636 0.98419 0.91203 0.0
N930 N 0.68964 0.87811 0.92542 0.0
C931 C 0.69241 0.87738 0.95047 0.0
C932 C 0.73434 0.94819 0.95097 0.0
C933 C 0.71535 0.91232 0.96361 0.0
Gd934 Gd 0.71381 0.7683 0.87729 0.0
Gd935 Gd 0.65162 0.82066 0.90277 0.0
N936 N 0.67566 0.87658 0.87663 0.0
C937 C 0.70556 0.94629 0.84953 0.0
C938 C 0.66304 0.87582 0.85297 0.0
C939 C 0.6788 0.91028 0.83885 0.0
H940 H 0.63975 0.8492 0.84492 0.0
H941 H 0.66938 0.90915 0.81993 0.0
H942 H 0.68997 0.68811 0.911 0.0
H943 H 0.67663 0.84977 0.96026 0.0
H944 H 0.65359 0.61546 0.90582 0.0
H945 H 0.7171 0.97304 0.83867 0.0
H946 H 0.75111 0.01137 0.87685 0.0
H947 H 0.74613 0.80557 0.82111 0.0
H948 H 0.75195 0.97529 0.96117 0.0
H949 H 0.71804 0.91161 0.98347 0.0
H950 H 0.62444 0.59703 0.81893 0.0
H951 H 0.76438 0.01222 0.92122 0.0
H952 H 0.68675 0.71268 0.7682 0.0
H953 H 0.73383 0.78256 0.77781 0.0
N954 N 0.70642 0.74899 0.83573 0.0
C955 C 0.6835 0.70995 0.83098 0.0
C956 C 0.72583 0.77486 0.81707 0.0
C957 C 0.69241 0.72245 0.78722 0.0
C958 C 0.71878 0.76203 0.79254 0.0
C959 C 0.67543 0.69555 0.80659 0.0
H960 H 0.6457 0.64312 0.78378 0.0
N961 N 0.68304 0.69939 0.87356 0.0
C962 C 0.67158 0.68417 0.85062 0.0
C963 C 0.64372 0.61813 0.86687 0.0
C964 C 0.65125 0.6431 0.84659 0.0
C965 C 0.67863 0.67543 0.89308 0.0
C966 C 0.65813 0.63442 0.89016 0.0
O967 O 0.71606 0.84279 0.91069 0.0
O968 O 0.73615 0.83357 0.87344 0.0
O969 O 0.76759 0.79315 0.89916 0.0
O970 O 0.76238 0.76003 0.86617 0.0
O971 O 0.63817 0.79421 0.86401 0.0
O972 O 0.69995 0.80751 0.85404 0.0
O973 O 0.65215 0.72704 0.8926 0.0
O974 O 0.6163 0.7592 0.88772 0.0
O975 O 0.60908 0.84126 0.90123 0.0
O976 O 0.60568 0.80149 0.9307 0.0
O977 O 0.70271 0.76158 0.91826 0.0
O978 O 0.66647 0.79019 0.93373 0.0
C979 C 0.74238 0.8555 0.89305 0.0
C980 C 0.66386 0.79658 0.84749 0.0
C981 C 0.82431 0.8147 0.87475 0.0
C982 C 0.89596 0.84587 0.87337 0.0
C983 C 0.86233 0.87266 0.84932 0.0
C984 C 0.82611 0.84315 0.8582 0.0
C985 C 0.89706 0.87397 0.85673 0.0
C986 C 0.85932 0.81631 0.88249 0.0
C987 C 0.78588 0.78293 0.88336 0.0
C988 C 0.6406 0.6285 0.82242 0.0
C989 C 0.65264 0.65474 0.80241 0.0
H990 H 0.62811 0.58638 0.86459 0.0
C991 C 0.61872 0.72757 0.89243 0.0
C992 C 0.68589 0.77052 0.9363 0.0
C993 C 0.55655 0.82264 0.93153 0.0
C994 C 0.50367 0.83886 0.92903 0.0
C995 C 0.51148 0.80772 0.96586 0.0
C996 C 0.54348 0.80709 0.95522 0.0
C997 C 0.49174 0.8234 0.95294 0.0
C998 C 0.5367 0.83898 0.91847 0.0
C999 C 0.5911 0.82196 0.92102 0.0
H1000 H 0.86348 0.89449 0.83657 0.0
H1001 H 0.7995 0.84236 0.85197 0.0
H1002 H 0.92487 0.8973 0.84969 0.0
H1003 H 0.85799 0.79427 0.89519 0.0
H1004 H 0.50185 0.79589 0.98421 0.0
H1005 H 0.55823 0.79465 0.9657 0.0
H1006 H 0.46693 0.82344 0.96172 0.0
H1007 H 0.54621 0.85078 0.90007 0.0
H1008 H 0.11564 0.16166 0.17572 0.0
H1009 H 0.08986 0.17427 0.09949 0.0
H1010 H 0.14475 0.16474 0.08579 0.0
H1011 H 0.22457 0.21321 0.16698 0.0
H1012 H 0.2305 0.18182 0.18879 0.0
H1013 H 0.19118 0.19262 0.19269 0.0
H1014 H 0.13948 0.11749 0.19284 0.0
H1015 H 0.17964 0.10797 0.19001 0.0
H1016 H 0.13973 0.08707 0.16789 0.0
H1017 H 0.1978 0.14794 0.08028 0.0
H1018 H 0.25053 0.1314 0.08308 0.0
H1019 H 0.24391 0.13137 0.16311 0.0
C1020 C 0.12189 0.16276 0.15617 0.0
C1021 C 0.09848 0.1684 0.13859 0.0
C1022 C 0.10762 0.17013 0.11319 0.0
C1023 C 0.13859 0.16462 0.10527 0.0
C1024 C 0.16046 0.15807 0.12303 0.0
C1025 C 0.15311 0.15795 0.14797 0.0
C1026 C 0.18112 0.15028 0.16319 0.0
C1027 C 0.20846 0.18665 0.17883 0.0
C1028 C 0.15858 0.11345 0.17941 0.0
C1029 C 0.20383 0.14378 0.14285 0.0
C1030 C 0.19168 0.14895 0.11986 0.0
C1031 C 0.20778 0.14417 0.09817 0.0
C1032 C 0.23764 0.13462 0.09998 0.0
C1033 C 0.2514 0.13018 0.12331 0.0
C1034 C 0.23382 0.13429 0.14503 0.0
H1035 H 0.09419 0.89115 0.4252 0.0
H1036 H 0.12413 0.91138 0.34751 0.0
H1037 H 0.05356 0.87087 0.33656 0.0
H1038 H 0.02562 0.79589 0.42154 0.0
H1039 H 0.98995 0.79485 0.44323 0.0
H1040 H 0.04125 0.83101 0.44636 0.0
H1041 H 0.02796 0.88859 0.4441 0.0
H1042 H 0.97591 0.85359 0.44278 0.0
H1043 H 0.99851 0.89095 0.41929 0.0
H1044 H 0.98073 0.82439 0.33421 0.0
H1045 H 0.91072 0.77441 0.34051 0.0
H1046 H 0.92924 0.78337 0.41982 0.0
C1047 C 0.08572 0.88729 0.40591 0.0
C1048 C 0.11425 0.9039 0.38715 0.0
C1049 C 0.10241 0.89875 0.36209 0.0
C1050 C 0.06253 0.87598 0.35573 0.0
C1051 C 0.03507 0.85934 0.37471 0.0
C1052 C 0.04609 0.86524 0.39929 0.0
C1053 C 1.01116 0.84247 0.4161 0.0
C1054 C 0.01728 0.81428 0.43279 0.0
C1055 C 1.00291 0.87059 0.43147 0.0
C1056 C 0.97917 0.82071 0.3971 0.0
C1057 C 0.99329 0.83179 0.37335 0.0
C1058 C 0.9692 0.81573 0.35271 0.0
C1059 C 0.92954 0.78751 0.35646 0.0
C1060 C 0.9148 0.77529 0.38063 0.0
C1061 C 0.93991 0.79225 0.40115 0.0
H1062 H 0.87964 0.10756 0.16245 0.0
H1063 H 0.89646 0.11348 0.08314 0.0
H1064 H 0.87566 0.04263 0.08226 0.0
H1065 H 0.91213 0.0348 0.17395 0.0
H1066 H 0.87595 1.00959 0.19772 0.0
H1067 H 0.89552 0.06165 0.19275 0.0
H1068 H 0.82436 0.05069 0.18567 0.0
H1069 H 0.80654 0.99963 0.19291 0.0
H1070 H 0.79234 0.0124 0.1644 0.0
H1071 H 0.84871 0.97049 0.08939 0.0
H1072 H 0.81577 0.90141 0.10402 0.0
H1073 H 0.81474 0.94131 0.17859 0.0
C1074 C 0.87985 0.09403 0.14505 0.0
C1075 C 0.88991 0.11589 0.12286 0.0
C1076 C 0.88904 0.09717 0.10032 0.0
C1077 C 0.8773 0.05698 0.09965 0.0
C1078 C 0.8666 0.0359 0.12171 0.0
C1079 C 0.86778 0.0537 0.14402 0.0
C1080 C 0.85291 0.02375 0.16483 0.0
C1081 C 0.88611 0.033 0.18341 0.0
C1082 C 0.81694 0.02161 0.17771 0.0
C1083 C 0.8416 0.98619 0.15055 0.0
C1084 C 0.85048 0.99402 0.12579 0.0
C1085 C 0.84185 0.96401 0.10877 0.0
C1086 C 0.82318 0.9249 0.11723 0.0
C1087 C 0.81264 0.91606 0.14238 0.0
C1088 C 0.82235 0.94724 0.15923 0.0
H1089 H 0.2612 0.1695 0.42286 0.0
H1090 H 0.25466 0.14027 0.34496 0.0
H1091 H 0.2014 0.15547 0.33932 0.0
H1092 H 0.15357 0.12876 0.43015 0.0
H1093 H 0.15991 0.16669 0.45164 0.0
H1094 H 0.19593 0.15093 0.45025 0.0
H1095 H 0.24995 0.22246 0.44312 0.0
H1096 H 0.21481 0.23906 0.44389 0.0
H1097 H 0.24624 0.25 0.41736 0.0
H1098 H 0.15223 0.17792 0.34119 0.0
H1099 H 0.11203 0.20885 0.35058 0.0
H1100 H 0.14919 0.22244 0.42713 0.0
C1101 C 0.24841 0.16614 0.40467 0.0
C1102 C 0.26208 0.1537 0.38436 0.0
C1103 C 0.24453 0.14953 0.36084 0.0
C1104 C 0.21417 0.15801 0.35742 0.0
C1105 C 0.20132 0.17016 0.37775 0.0
C1106 C 0.21768 0.1741 0.40095 0.0
C1107 C 0.19883 0.18859 0.4195 0.0
C1108 C 0.17567 0.15683 0.43903 0.0
C1109 C 0.22938 0.22741 0.43164 0.0
C1110 C 0.17142 0.19465 0.40274 0.0
C1111 C 0.17254 0.18287 0.37886 0.0
C1112 C 0.15082 0.18695 0.35988 0.0
C1113 C 0.12807 0.20446 0.36536 0.0
C1114 C 0.12781 0.21811 0.38952 0.0
C1115 C 0.14915 0.21241 0.40848 0.0
H1116 H 0.075 0.91076 0.18053 0.0
H1117 H 0.12537 0.92471 0.10739 0.0
H1118 H 0.06251 0.86872 0.09246 0.0
H1119 H 1.01482 0.80211 0.17893 0.0
H1120 H 0.975 0.80172 0.19578 0.0
H1121 H 0.02495 0.84058 0.20099 0.0
H1122 H 1.00418 0.89246 0.19097 0.0
H1123 H 0.95438 0.8537 0.18538 0.0
H1124 H 0.98079 0.88993 0.16181 0.0
H1125 H 0.99235 0.8162 0.08459 0.0
H1126 H 0.92195 0.76605 0.08508 0.0
H1127 H 0.9174 0.78416 0.16382 0.0
C1128 C 0.07294 0.90177 0.16142 0.0
C1129 C 0.10508 0.9222 0.14507 0.0
C1130 C 0.10131 0.9093 0.12027 0.0
C1131 C 0.06565 0.8777 0.11161 0.0
C1132 C 0.03421 0.85905 0.12805 0.0
C1133 C 0.0377 0.87016 0.15254 0.0
C1134 C 0.99919 0.84577 0.16627 0.0
C1135 C 1.00378 0.82108 0.1867 0.0
C1136 C 0.98374 0.87204 0.17672 0.0
C1137 C 0.97318 0.81981 0.14554 0.0
C1138 C 0.994 0.828 0.12366 0.0
C1139 C 0.97599 0.8091 0.10171 0.0
C1140 C 0.93592 0.78058 0.10221 0.0
C1141 C 0.91424 0.77056 0.12458 0.0
C1142 C 0.93315 0.79093 0.14646 0.0
H1143 H 0.80054 0.94152 0.3402 0.0
H1144 H 0.80633 0.9065 0.41533 0.0
H1145 H 0.83646 0.97609 0.42881 0.0
H1146 H 0.89462 0.03566 0.34215 0.0
H1147 H 0.876 0.06055 0.32314 0.0
H1148 H 0.85701 1.00835 0.31944 0.0
H1149 H 0.78703 0.99658 0.32592 0.0
H1150 H 0.80478 0.0482 0.33121 0.0
H1151 H 0.77488 0.01221 0.35418 0.0
H1152 H 0.86028 0.04802 0.43462 0.0
H1153 H 0.88131 0.11888 0.43198 0.0
H1154 H 0.8633 0.10814 0.35273 0.0
C1155 C 0.80844 0.94866 0.35945 0.0
C1156 C 0.80098 0.9188 0.37681 0.0
C1157 C 0.81196 0.92908 0.40179 0.0
C1158 C 0.82898 0.96843 0.40959 0.0
C1159 C 0.83544 0.99713 0.39207 0.0
C1160 C 0.82613 0.98787 0.36744 0.0
C1161 C 0.83571 0.02427 0.35243 0.0
C1162 C 0.86775 0.0327 0.33316 0.0
C1163 C 0.7984 0.02011 0.34021 0.0
C1164 C 0.85107 0.05533 0.37256 0.0
C1165 C 0.85057 0.03898 0.39529 0.0
C1166 C 0.8615 0.0613 0.41689 0.0
C1167 C 0.87337 0.10143 0.41522 0.0
C1168 C 0.87451 0.11882 0.39213 0.0
C1169 C 0.86355 0.09559 0.37051 0.0
H1170 H 0.21384 0.13858 0.57684 0.0
H1171 H 0.2282 0.12154 0.65448 0.0
H1172 H 0.19856 0.16229 0.66566 0.0
H1173 H 0.24112 0.23358 0.57944 0.0
H1174 H 0.20559 0.23531 0.55885 0.0
H1175 H 0.21938 0.19818 0.55497 0.0
H1176 H 0.14916 0.14094 0.55918 0.0
H1177 H 0.13244 0.17625 0.5606 0.0
H1178 H 0.11888 0.13979 0.58456 0.0
H1179 H 0.17119 0.20799 0.6683 0.0
H1180 H 0.14932 0.25668 0.66234 0.0
H1181 H 0.15631 0.24699 0.58293 0.0
C1182 C 0.21037 0.14313 0.59619 0.0
C1183 C 0.22347 0.12712 0.61482 0.0
C1184 C 0.21813 0.13337 0.63994 0.0
C1185 C 0.20132 0.15643 0.64645 0.0
C1186 C 0.18949 0.1725 0.62762 0.0
C1187 C 0.19324 0.16566 0.603 0.0
C1188 C 0.1802 0.18809 0.58634 0.0
C1189 C 0.21355 0.21553 0.56887 0.0
C1190 C 0.14296 0.15955 0.57182 0.0
C1191 C 0.17103 0.21068 0.60542 0.0
C1192 C 0.17529 0.20019 0.62912 0.0
C1193 C 0.16754 0.21628 0.64985 0.0
C1194 C 0.15502 0.24377 0.64629 0.0
C1195 C 0.15117 0.25544 0.6222 0.0
C1196 C 0.15928 0.23866 0.60154 0.0
H1197 H 0.1138 0.88282 0.85485 0.0
H1198 H 0.12491 0.88621 0.9346 0.0
H1199 H 0.05587 0.87115 0.93861 0.0
H1200 H 0.0553 0.93048 0.85252 0.0
H1201 H 0.02606 0.90148 0.82672 0.0
H1202 H 0.07588 0.91141 0.83035 0.0
H1203 H 0.05123 0.83603 0.82961 0.0
H1204 H 1.00167 0.82671 0.82545 0.0
H1205 H 1.01291 0.80408 0.85068 0.0
H1206 H 0.98469 0.85316 0.93376 0.0
H1207 H 0.91971 0.84287 0.92048 0.0
H1208 H 0.95648 0.85439 0.84398 0.0
C1209 C 0.10179 0.88078 0.87314 0.0
C1210 C 0.12434 0.88504 0.89446 0.0
C1211 C 0.10779 0.88244 0.91807 0.0
C1212 C 0.06864 0.87382 0.92052 0.0
C1213 C 0.04671 0.86842 0.89914 0.0
C1214 C 0.0629 0.87247 0.8759 0.0
C1215 C 0.03363 0.86703 0.85588 0.0
C1216 C 0.04862 0.90486 0.84047 0.0
C1217 C 0.02434 0.83135 0.83944 0.0
C1218 C 0.99845 0.85937 0.87147 0.0
C1219 C 1.00636 0.85967 0.89637 0.0
C1220 C 0.97822 0.85306 0.91432 0.0
C1221 C 0.94138 0.84702 0.90663 0.0
C1222 C 0.93327 0.84812 0.88126 0.0
C1223 C 0.96207 0.8538 0.86352 0.0
H1224 H 0.79202 0.91346 0.58886 0.0
H1225 H 0.76654 0.90536 0.66721 0.0
H1226 H 0.81809 0.97513 0.6726 0.0
H1227 H 0.89628 0.97064 0.59708 0.0
H1228 H 0.90487 0.99935 0.56939 0.0
H1229 H 0.8633 0.95008 0.57113 0.0
H1230 H 0.81585 0.97644 0.56061 0.0
H1231 H 0.85778 0.02542 0.55831 0.0
H1232 H 0.81801 0.01612 0.57884 0.0
H1233 H 0.87252 0.04568 0.66943 0.0
H1234 H 0.93112 0.10963 0.65889 0.0
H1235 H 0.92417 0.07031 0.5832 0.0
C1236 C 0.79718 0.92665 0.60706 0.0
C1237 C 0.77525 0.90446 0.62759 0.0
C1238 C 0.7832 0.92209 0.65128 0.0
C1239 C 0.81215 0.9617 0.65447 0.0
C1240 C 0.83338 0.98293 0.63387 0.0
C1241 C 0.82671 0.9659 0.61068 0.0
C1242 C 0.85621 0.99405 0.59211 0.0
C1243 C 0.88168 0.97755 0.58183 0.0
C1244 C 0.83568 1.00353 0.57123 0.0
C1245 C 0.88012 0.02968 0.60838 0.0
C1246 C 0.86618 0.02286 0.63233 0.0
C1247 C 0.88372 0.05139 0.65074 0.0
C1248 C 0.91682 0.08764 0.64457 0.0
C1249 C 0.93221 0.09479 0.62028 0.0
C1250 C 0.91324 0.0655 0.60197 0.0
H1251 H 0.15615 0.24353 0.92071 0.0
H1252 H 0.15549 0.25772 0.84129 0.0
H1253 H 0.17704 0.2088 0.83547 0.0
H1254 H 0.24034 0.22871 0.92605 0.0
H1255 H 0.21642 0.19271 0.94987 0.0
H1256 H 0.20375 0.23056 0.94562 0.0
H1257 H 0.13056 0.17219 0.9419 0.0
H1258 H 0.14642 0.13622 0.94347 0.0
H1259 H 0.11808 0.13669 0.91738 0.0
H1260 H 0.20209 0.16138 0.83828 0.0
H1261 H 0.2301 0.11922 0.84982 0.0
H1262 H 0.21258 0.13422 0.9272 0.0
C1263 C 0.16053 0.2362 0.90213 0.0
C1264 C 0.15415 0.25421 0.88142 0.0
C1265 C 0.15985 0.24386 0.85736 0.0
C1266 C 0.17215 0.21622 0.85388 0.0
C1267 C 0.17794 0.19874 0.87464 0.0
C1268 C 0.17218 0.20814 0.89831 0.0
C1269 C 0.17975 0.18434 0.91739 0.0
C1270 C 0.21198 0.21081 0.93583 0.0
C1271 C 0.14141 0.15565 0.93082 0.0
C1272 C 0.19352 0.16251 0.90084 0.0
C1273 C 0.19136 0.17048 0.87621 0.0
C1274 C 0.20374 0.15475 0.85749 0.0
C1275 C 0.21962 0.13096 0.86418 0.0
C1276 C 0.22362 0.12392 0.88935 0.0
C1277 C 0.20991 0.13942 0.90784 0.0
H1278 H 0.1155 0.88329 0.65094 0.0
H1279 H 0.12544 0.87878 0.57143 0.0
H1280 H 0.05617 0.86247 0.56678 0.0
H1281 H 1.01424 0.80421 0.65601 0.0
H1282 H 1.00208 0.82839 0.67992 0.0
H1283 H 0.05179 0.83757 0.67708 0.0
H1284 H 0.07784 0.91269 0.67365 0.0
H1285 H 0.02836 0.90385 0.67674 0.0
H1286 H 0.05768 0.9306 0.65043 0.0
H1287 H 0.98575 0.84695 0.57084 0.0
H1288 H 0.92218 0.84128 0.58295 0.0
H1289 H 0.9592 0.85881 0.6596 0.0
C1290 C 0.1031 0.87904 0.63256 0.0
C1291 C 0.1255 0.88161 0.61153 0.0
C1292 C 0.10843 0.87617 0.58779 0.0
C1293 C 0.06914 0.86687 0.58497 0.0
C1294 C 0.04747 0.86361 0.6061 0.0
C1295 C 0.064 0.87006 0.62942 0.0
C1296 C 0.03499 0.86679 0.64901 0.0
C1297 C 0.02519 0.83218 0.66654 0.0
C1298 C 0.05065 0.90581 0.66329 0.0
C1299 C 0.99991 0.8585 0.63303 0.0
C1300 C 1.00739 0.85594 0.60838 0.0
C1301 C 0.97953 0.84889 0.59009 0.0
C1302 C 0.94347 0.84551 0.59712 0.0
C1303 C 0.93594 0.84979 0.62215 0.0
C1304 C 0.96432 0.85564 0.64031 0.0
H1305 H 0.88516 0.07303 0.84289 0.0
H1306 H 0.91457 0.10884 0.91924 0.0
H1307 H 0.87727 0.0389 0.93226 0.0
H1308 H 0.79332 1.00286 0.84897 0.0
H1309 H 0.79008 0.96417 0.8293 0.0
H1310 H 0.82586 0.01489 0.82316 0.0
H1311 H 0.88485 1.00456 0.82554 0.0
H1312 H 0.85062 0.95246 0.82854 0.0
H1313 H 0.88948 0.97736 0.85091 0.0
H1314 H 0.83075 0.96693 0.93736 0.0
H1315 H 0.77941 0.89679 0.93433 0.0
H1316 H 0.78094 0.90622 0.85451 0.0
C1317 C 0.8845 0.06585 0.86226 0.0
C1318 C 0.90269 0.09603 0.88016 0.0
C1319 C 0.90107 0.08595 0.90534 0.0
C1320 C 0.88 0.04638 0.91285 0.0
C1321 C 0.86162 0.01726 0.89485 0.0
C1322 C 0.86445 0.02633 0.86999 0.0
C1323 C 0.84067 0.98937 0.85456 0.0
C1324 C 0.81063 0.99294 0.83806 0.0
C1325 C 0.86805 0.98042 0.83898 0.0
C1326 C 0.8211 0.95876 0.87478 0.0
C1327 C 0.83466 0.97535 0.89781 0.0
C1328 C 0.8204 0.95346 0.91943 0.0
C1329 C 0.79118 0.91368 0.91754 0.0
C1330 C 0.77625 0.89619 0.89424 0.0
C1331 C 0.79209 0.91883 0.87255 0.0
H1332 H 0.32582 0.16102 0.30883 0.0
H1333 H 0.44054 0.17433 0.32348 0.0
H1334 H 0.45542 0.18287 0.27864 0.0
H1335 H 0.30198 0.10628 0.2548 0.0
H1336 H 0.28006 0.13141 0.23966 0.0
H1337 H 0.28073 0.12952 0.27283 0.0
H1338 H 0.31532 0.20579 0.2741 0.0
H1339 H 0.31524 0.2074 0.24083 0.0
H1340 H 0.36085 0.23468 0.25759 0.0
H1341 H 0.45455 0.1831 0.23158 0.0
H1342 H 0.4381 0.17524 0.18692 0.0
H1343 H 0.32493 0.16415 0.20359 0.0
C1344 C 0.35431 0.16628 0.30259 0.0
C1345 C 0.38216 0.16708 0.31954 0.0
C1346 C 0.4191 0.17413 0.31079 0.0
C1347 C 0.42766 0.17885 0.28537 0.0
C1348 C 0.39928 0.17732 0.26906 0.0
C1349 C 0.36352 0.17174 0.27742 0.0
C1350 C 0.3378 0.1708 0.2562 0.0
C1351 C 0.29784 0.13222 0.25587 0.0
C1352 C 0.33198 0.20682 0.25725 0.0
C1353 C 0.36343 0.17367 0.23446 0.0
C1354 C 0.39918 0.1784 0.24219 0.0
C1355 C 0.42695 0.18009 0.22533 0.0
C1356 C 0.41756 0.17592 0.20001 0.0
C1357 C 0.38051 0.16954 0.19192 0.0
C1358 C 0.35368 0.16949 0.20934 0.0
H1359 H 0.85824 0.70648 0.30899 0.0
H1360 H 0.76022 0.59041 0.32545 0.0
H1361 H 0.75432 0.57324 0.28084 0.0
H1362 H 0.82313 0.72414 0.25533 0.0
H1363 H 0.86911 0.74788 0.23885 0.0
H1364 H 0.86881 0.74948 0.27203 0.0
H1365 H 0.91385 0.71929 0.27469 0.0
H1366 H 0.91555 0.71832 0.24145 0.0
H1367 H 0.90029 0.67373 0.25884 0.0
H1368 H 0.75519 0.57222 0.23322 0.0
H1369 H 0.76365 0.58696 0.18829 0.0
H1370 H 0.86316 0.70252 0.20409 0.0
C1371 C 0.836 0.67714 0.30326 0.0
C1372 C 0.80974 0.64962 0.32063 0.0
C1373 C 0.78096 0.61165 0.31246 0.0
C1374 C 0.77732 0.6018 0.28715 0.0
C1375 C 0.80325 0.63 0.27038 0.0
C1376 C 0.83246 0.66673 0.27826 0.0
C1377 C 0.85605 0.69235 0.25673 0.0
C1378 C 0.85411 0.73067 0.25566 0.0
C1379 C 0.89898 0.70144 0.25801 0.0
C1380 C 0.83443 0.66509 0.23531 0.0
C1381 C 0.80434 0.62905 0.24343 0.0
C1382 C 0.77913 0.60008 0.22673 0.0
C1383 C 0.78431 0.60849 0.20123 0.0
C1384 C 0.81426 0.64567 0.19272 0.0
C1385 C 0.84024 0.67366 0.21006 0.0
H1386 H 0.88241 0.17182 0.20245 0.0
H1387 H 0.85122 0.26108 0.18566 0.0
H1388 H 0.8412 0.26732 0.23027 0.0
H1389 H 0.81311 0.12692 0.25491 0.0
H1390 H 0.84716 0.1176 0.27193 0.0
H1391 H 0.84743 0.11713 0.23864 0.0
H1392 H 0.92164 0.16953 0.23873 0.0
H1393 H 0.92143 0.16994 0.27196 0.0
H1394 H 0.93811 0.21512 0.25514 0.0
H1395 H 0.84012 0.26758 0.27691 0.0
H1396 H 0.84816 0.26215 0.3218 0.0
H1397 H 0.88121 0.17342 0.30791 0.0
C1398 C 0.87295 0.1923 0.20817 0.0
C1399 C 0.86776 0.21619 0.19074 0.0
C1400 C 0.85513 0.24244 0.19879 0.0
C1401 C 0.84952 0.24622 0.22405 0.0
C1402 C 0.85614 0.22311 0.24087 0.0
C1403 C 0.86723 0.19637 0.23323 0.0
C1404 C 0.87402 0.17616 0.255 0.0
C1405 C 0.84361 0.13183 0.25512 0.0
C1406 C 0.9163 0.18313 0.2552 0.0
C1407 C 0.867 0.19718 0.27616 0.0
C1408 C 0.85589 0.22352 0.26765 0.0
C1409 C 0.84848 0.24683 0.28377 0.0
C1410 C 0.853 0.24348 0.30921 0.0
C1411 C 0.86544 0.21752 0.3182 0.0
C1412 C 0.87188 0.19366 0.30146 0.0
H1413 H 0.14565 0.30986 0.69939 0.0
H1414 H 0.18084 0.43173 0.68388 0.0
H1415 H 0.19083 0.44686 0.72865 0.0
H1416 H 0.09236 0.29808 0.75563 0.0
H1417 H 0.10948 0.26733 0.76881 0.0
H1418 H 0.10555 0.26945 0.73579 0.0
H1419 H 0.18007 0.28826 0.73431 0.0
H1420 H 0.18277 0.28917 0.76755 0.0
H1421 H 0.21621 0.33218 0.75006 0.0
H1422 H 0.19113 0.4469 0.77575 0.0
H1423 H 0.18284 0.43189 0.82058 0.0
H1424 H 0.1504 0.31083 0.80467 0.0
C1425 C 0.15566 0.33979 0.70543 0.0
C1426 C 0.16231 0.36966 0.68824 0.0
C1427 C 0.17585 0.40853 0.69677 0.0
C1428 C 0.18145 0.41732 0.72215 0.0
C1429 C 0.17408 0.38704 0.73869 0.0
C1430 C 0.16184 0.34911 0.73061 0.0
C1431 C 0.15585 0.32181 0.75207 0.0
C1432 C 0.11328 0.28712 0.75307 0.0
C1433 C 0.1855 0.30699 0.75092 0.0
C1434 C 0.16466 0.34979 0.77355 0.0
C1435 C 0.17557 0.38741 0.76554 0.0
C1436 C 0.18309 0.41766 0.7822 0.0
C1437 C 0.17849 0.40898 0.80761 0.0
C1438 C 0.16599 0.37028 0.81601 0.0
C1439 C 0.16005 0.34073 0.79873 0.0
H1440 H 0.26378 0.86159 0.80722 0.0
H1441 H 0.15124 0.85414 0.821 0.0
H1442 H 0.13715 0.84765 0.77661 0.0
H1443 H 0.28738 0.9209 0.75426 0.0
H1444 H 0.31001 0.89795 0.73733 0.0
H1445 H 0.30955 0.89687 0.77059 0.0
H1446 H 0.27554 0.82052 0.76923 0.0
H1447 H 0.27568 0.82177 0.73594 0.0
H1448 H 0.23007 0.79278 0.75236 0.0
H1449 H 0.13765 0.85044 0.73172 0.0
H1450 H 0.15215 0.86025 0.68722 0.0
H1451 H 0.2637 0.86494 0.69975 0.0
C1452 C 0.23564 0.85706 0.8008 0.0
C1453 C 0.20804 0.85714 0.81763 0.0
C1454 C 0.1723 0.85307 0.80853 0.0
C1455 C 0.16407 0.84955 0.78329 0.0
C1456 C 0.19194 0.85034 0.76711 0.0
C1457 C 0.22695 0.85373 0.7753 0.0
C1458 C 0.25264 0.85652 0.75339 0.0
C1459 C 0.29226 0.89536 0.75395 0.0
C1460 C 0.25884 0.82076 0.75269 0.0
C1461 C 0.22705 0.85554 0.73189 0.0
C1462 C 0.19206 0.85162 0.74045 0.0
C1463 C 0.16454 0.8527 0.72468 0.0
C1464 C 0.173 0.8583 0.69946 0.0
C1465 C 0.20849 0.86237 0.69009 0.0
C1466 C 0.23575 0.86053 0.70644 0.0
H1467 H 0.70341 0.84905 0.7046 0.0
H1468 H 0.60574 0.73243 0.68867 0.0
H1469 H 0.59167 0.72071 0.73354 0.0
H1470 H 0.74035 0.83214 0.75504 0.0
H1471 H 0.74867 0.87288 0.77455 0.0
H1472 H 0.74914 0.87747 0.74146 0.0
H1473 H 0.69542 0.89537 0.74062 0.0
H1474 H 0.69558 0.89549 0.77391 0.0
H1475 H 0.65019 0.86605 0.75731 0.0
H1476 H 0.59093 0.72078 0.78034 0.0
H1477 H 0.60381 0.73234 0.82531 0.0
H1478 H 0.70164 0.8492 0.81036 0.0
C1479 C 0.67868 0.82132 0.71064 0.0
C1480 C 0.65544 0.79156 0.69342 0.0
C1481 C 0.62343 0.75561 0.70173 0.0
C1482 C 0.61535 0.74877 0.72711 0.0
C1483 C 0.63892 0.77869 0.74373 0.0
C1484 C 0.66944 0.81459 0.73577 0.0
C1485 C 0.69018 0.84197 0.75733 0.0
C1486 C 0.73469 0.85694 0.75715 0.0
C1487 C 0.68235 0.87676 0.75729 0.0
C1488 C 0.66915 0.81446 0.77876 0.0
C1489 C 0.63866 0.77865 0.77055 0.0
C1490 C 0.61447 0.74881 0.78697 0.0
C1491 C 0.6218 0.75561 0.81241 0.0
C1492 C 0.65351 0.79157 0.82106 0.0
C1493 C 0.67721 0.82144 0.80405 0.0
H1494 H 0.29326 0.99618 0.94465 0.0
H1495 H 0.23954 0.87958 0.97771 0.0
H1496 H 0.25596 0.91046 0.01906 0.0
H1497 H 0.37487 0.04465 0.98784 0.0
H1498 H 0.37382 0.09019 0.98795 0.0
H1499 H 0.35817 0.05918 0.96089 0.0
H1500 H 0.28991 0.05543 0.96207 0.0
H1501 H 0.30694 0.08808 0.98833 0.0
H1502 H 0.26197 0.0412 0.99023 0.0
H1503 H 0.27094 0.95316 0.05614 0.0
H1504 H 0.29134 1.00389 0.08763 0.0
H1505 H 0.34371 0.09528 0.03158 0.0
C1506 C 0.28548 0.97686 0.96043 0.0
C1507 C 0.26496 0.93505 0.95764 0.0
C1508 C 0.25513 0.91141 0.97911 0.0
C1509 C 0.26433 0.92879 1.00272 0.0
C1510 C 0.28401 0.96991 1.00463 0.0
C1511 C 0.29505 0.99372 0.98409 0.0
C1512 C 0.31582 0.03721 0.99135 0.0
C1513 C 0.3582 0.0591 0.98142 0.0
C1514 C 0.29228 0.05667 0.98248 0.0
C1515 C 0.31504 0.03424 0.01935 0.0
C1516 C 0.29565 0.99496 0.02637 0.0
C1517 C 0.28716 0.98393 0.05087 0.0
C1518 C 0.29903 0.01346 0.06871 0.0
C1519 C 0.32071 0.0543 0.06253 0.0
C1520 C 0.32867 0.0647 0.03725 0.0
H1521 H 0.75137 0.66565 0.47619 0.0
H1522 H 0.80572 0.77813 0.43769 0.0
H1523 H 0.78144 0.80531 0.46888 0.0
H1524 H 0.66572 0.66725 0.49918 0.0
H1525 H 0.66649 0.64868 0.52951 0.0
H1526 H 0.68639 0.63559 0.50354 0.0
H1527 H 0.75312 0.66252 0.52623 0.0
H1528 H 0.73325 0.67521 0.55239 0.0
H1529 H 0.77775 0.71239 0.53782 0.0
H1530 H 0.74903 0.82094 0.50229 0.0
H1531 H 0.72019 0.8278 0.54104 0.0
H1532 H 0.69174 0.70949 0.5623 0.0
C1533 C 0.75833 0.69602 0.47446 0.0
C1534 C 0.77944 0.719 0.45365 0.0
C1535 C 0.78838 0.75894 0.45257 0.0
C1536 C 0.77485 0.77504 0.47041 0.0
C1537 C 0.75313 0.75154 0.49004 0.0
C1538 C 0.74578 0.7133 0.49276 0.0
C1539 C 0.72381 0.69601 0.51689 0.0
C1540 C 0.68319 0.65972 0.51198 0.0
C1541 C 0.74845 0.68594 0.53437 0.0
C1542 C 0.71987 0.73042 0.52685 0.0
C1543 C 0.73648 0.76179 0.5107 0.0
C1544 C 0.73609 0.79668 0.51524 0.0
C1545 C 0.71923 0.80018 0.53724 0.0
C1546 C 0.7034 0.76925 0.55476 0.0
C1547 C 0.70351 0.73371 0.5493 0.0
H1548 H 0.07039 0.35962 0.96174 0.0
H1549 H 0.08828 0.2595 0.95313 0.0
H1550 H 0.04229 0.22539 0.98726 0.0
H1551 H 0.06158 0.35266 0.03098 0.0
H1552 H 0.02456 0.36713 0.03148 0.0
H1553 H 0.06126 0.38511 0.00747 0.0
H1554 H 1.00544 0.35738 0.97469 0.0
H1555 H 0.96889 0.33866 0.99879 0.0
H1556 H 0.96859 0.30575 0.97541 0.0
H1557 H 0.99069 0.19908 0.0191 0.0
H1558 H 0.94484 0.18665 0.05355 0.0
H1559 H 0.95983 0.30338 0.04434 0.0
C1560 C 0.0657 0.33122 0.96778 0.0
C1561 C 0.08331 0.31234 0.95498 0.0
C1562 C 0.07543 0.27459 0.96283 0.0
C1563 C 0.04905 0.25481 0.98205 0.0
C1564 C 0.03073 0.27317 0.99355 0.0
C1565 C 0.03936 0.31092 0.98732 0.0
C1566 C 1.01518 0.32335 1.00312 0.0
C1567 C 0.04227 0.35919 0.01922 0.0
C1568 C 0.98792 0.3318 0.98703 0.0
C1569 C 0.9915 0.28652 0.01881 0.0
C1570 C 1.00081 0.2579 0.0126 0.0
C1571 C 0.98326 0.22129 0.02423 0.0
C1572 C 0.95689 0.21429 0.04358 0.0
C1573 C 0.94817 0.24362 0.05121 0.0
C1574 C 0.96507 0.28 0.03834 0.0
H1575 H 0.27444 0.05605 0.45924 0.0
H1576 H 0.39972 0.09753 0.45984 0.0
H1577 H 0.38958 0.04963 0.493 0.0
H1578 H 0.26188 0.04331 0.52626 0.0
H1579 H 0.21332 1.00082 0.52343 0.0
H1580 H 0.2314 0.0385 0.50003 0.0
H1581 H 0.21782 0.98524 0.46668 0.0
H1582 H 0.20032 0.94778 0.49025 0.0
H1583 H 0.23984 0.95461 0.47014 0.0
H1584 H 0.36406 0.99295 0.52442 0.0
H1585 H 0.32822 0.94322 0.55696 0.0
H1586 H 0.22086 0.94284 0.53772 0.0
C1587 C 0.29984 0.05552 0.46668 0.0
C1588 C 0.33793 0.08062 0.45707 0.0
C1589 C 0.37041 0.07903 0.46722 0.0
C1590 C 0.3648 0.05152 0.48581 0.0
C1591 C 0.32662 0.02634 0.49438 0.0
C1592 C 0.29489 0.029 0.48561 0.0
C1593 C 0.25714 1.00006 0.49865 0.0
C1594 C 0.23994 0.02198 0.51294 0.0
C1595 C 0.22699 0.97017 0.48033 0.0
C1596 C 0.27237 0.9803 0.516 0.0
C1597 C 0.31238 0.99524 0.51295 0.0
C1598 C 0.33275 0.98114 0.5269 0.0
C1599 C 0.31205 0.95234 0.54507 0.0
C1600 C 0.27165 0.93852 0.54942 0.0
C1601 C 0.25156 0.95226 0.53436 0.0
H1602 H 0.7472 0.65868 0.03739 0.0
H1603 H 0.79658 0.76915 0.07818 0.0
H1604 H 0.7702 0.79555 0.04799 0.0
H1605 H 0.7722 0.70907 0.97687 0.0
H1606 H 0.72881 0.67123 0.96159 0.0
H1607 H 0.74972 0.65866 0.98726 0.0
H1608 H 0.68239 0.62729 0.0096 0.0
H1609 H 0.66148 0.64034 0.98414 0.0
H1610 H 0.65923 0.65649 0.01496 0.0
H1611 H 0.73633 0.81071 0.01538 0.0
H1612 H 0.70863 0.81867 0.97645 0.0
H1613 H 0.68549 0.70325 0.95259 0.0
C1614 C 0.75267 0.68846 0.03983 0.0
C1615 C 0.77315 0.71098 0.06096 0.0
C1616 C 0.78014 0.75026 0.06291 0.0
C1617 C 0.76518 0.7659 0.04572 0.0
C1618 C 0.74404 0.74276 0.02582 0.0
C1619 C 0.73878 0.70543 0.02214 0.0
C1620 C 0.71746 0.6888 0.99769 0.0
C1621 C 0.7436 0.68151 0.97979 0.0
C1622 C 0.67778 0.65097 1.00186 0.0
C1623 C 0.7115 0.72248 0.98873 0.0
C1624 C 0.72645 0.75287 1.00563 0.0
C1625 C 0.72449 0.78713 1.0019 0.0
C1626 C 0.70809 0.7912 0.97984 0.0
C1627 C 0.69429 0.76151 0.96153 0.0
C1628 C 0.69557 0.72642 0.96628 0.0
H1629 H 0.05761 0.26829 0.54812 0.0
H1630 H 0.09682 0.3933 0.54861 0.0
H1631 H 0.04874 0.38289 0.51555 0.0
H1632 H 0.04695 0.25885 0.48066 0.0
H1633 H 1.00559 0.2094 0.48244 0.0
H1634 H 0.04271 0.22746 0.50621 0.0
H1635 H 0.9884 0.21006 0.53909 0.0
H1636 H 0.95125 0.19295 0.51534 0.0
H1637 H 0.95658 0.23084 0.53653 0.0
H1638 H 0.9912 0.35686 0.48497 0.0
H1639 H 0.94139 0.32102 0.45231 0.0
H1640 H 0.94605 0.21509 0.46859 0.0
C1641 C 0.05638 0.29353 0.54102 0.0
C1642 C 0.08057 0.33155 0.55104 0.0
C1643 C 0.07863 0.36398 0.54107 0.0
C1644 C 0.05109 0.35824 0.52253 0.0
C1645 C 0.02665 0.32009 0.51362 0.0
C1646 C 0.03014 0.28856 0.52193 0.0
C1647 C 1.00249 0.25105 0.50814 0.0
C1648 C 0.02583 0.23581 0.49349 0.0
C1649 C 0.97294 0.21937 0.52584 0.0
C1650 C 0.98222 0.26613 0.49111 0.0
C1651 C 0.99587 0.30583 0.4949 0.0
C1652 C 0.98058 0.32586 0.48173 0.0
C1653 C 0.95187 0.3052 0.46351 0.0
C1654 C 0.93976 0.26535 0.4582 0.0
C1655 C 0.95463 0.2455 0.4725 0.0
H1656 H 0.599 0.09082 0.12686 0.0
H1657 H 0.66543 0.20683 0.09339 0.0
H1658 H 0.60913 0.21728 0.09969 0.0
H1659 H 0.50982 0.06591 0.09781 0.0
H1660 H 0.47881 0.03901 0.12347 0.0
H1661 H 0.52603 0.04245 0.11983 0.0
H1662 H 0.54583 0.0716 0.16394 0.0
H1663 H 0.49843 0.06801 0.16765 0.0
H1664 H 0.54288 0.11472 0.1721 0.0
H1665 H 0.54369 0.21198 0.10406 0.0
H1666 H 0.47376 0.19235 0.10787 0.0
H1667 H 0.44841 0.08033 0.13923 0.0
C1668 C 0.60199 0.11868 0.12113 0.0
C1669 C 0.63702 0.14808 0.10968 0.0
C1670 C 0.63948 0.18411 0.10261 0.0
C1671 C 0.60747 0.19026 0.10599 0.0
C1672 C 0.57316 0.16025 0.11662 0.0
C1673 C 0.57023 0.12527 0.12431 0.0
C1674 C 0.52885 0.09663 0.13339 0.0
C1675 C 0.50977 0.05878 0.11768 0.0
C1676 C 0.52903 0.0872 0.16091 0.0
C1677 C 0.50883 0.12077 0.12919 0.0
C1678 C 0.53509 0.15738 0.11952 0.0
C1679 C 0.5231 0.18374 0.11207 0.0
C1680 C 0.48323 0.17227 0.11426 0.0
C1681 C 0.45566 0.13496 0.12404 0.0
C1682 C 0.46884 0.10921 0.1321 0.0
H1683 H 0.73128 0.55715 0.40958 0.0
H1684 H 0.6637 0.60042 0.37083 0.0
H1685 H 0.60567 0.53273 0.37065 0.0
H1686 H 0.69136 0.46317 0.37783 0.0
H1687 H 0.69455 0.43985 0.40575 0.0
H1688 H 0.72827 0.4915 0.40051 0.0
H1689 H 0.703 0.50704 0.44397 0.0
H1690 H 0.67297 0.45433 0.44678 0.0
H1691 H 0.65102 0.48523 0.44797 0.0
H1692 H 0.55252 0.45888 0.37986 0.0
H1693 H 0.51377 0.38984 0.3949 0.0
H1694 H 0.62149 0.39676 0.42141 0.0
C1695 C 0.70433 0.55259 0.40103 0.0
C1696 C 0.70182 0.58425 0.39063 0.0
C1697 C 0.66617 0.57671 0.37919 0.0
C1698 C 0.63311 0.53829 0.37895 0.0
C1699 C 0.63665 0.5077 0.38966 0.0
C1700 C 0.6717 0.5147 0.40019 0.0
C1701 C 0.66864 0.47771 0.41078 0.0
C1702 C 0.69741 0.46745 0.398 0.0
C1703 C 0.67432 0.48125 0.439 0.0
C1704 C 0.62659 0.44838 0.40446 0.0
C1705 C 0.60789 0.46591 0.39282 0.0
C1706 C 0.56728 0.44485 0.38846 0.0
C1707 C 0.5455 0.40553 0.39696 0.0
C1708 C 0.56451 0.38781 0.40952 0.0
C1709 C 0.60579 0.4093 0.41214 0.0
H1710 H 0.83783 0.29 0.11748 0.0
H1711 H 0.96394 0.36873 0.11924 0.0
H1712 H 0.95373 0.42631 0.11698 0.0
H1713 H 0.81365 0.34229 0.07543 0.0
H1714 H 0.76889 0.33261 0.09076 0.0
H1715 H 0.78659 0.29834 0.09379 0.0
H1716 H 0.7866 0.30423 0.1414 0.0
H1717 H 0.76857 0.33834 0.13863 0.0
H1718 H 0.81315 0.35221 0.15568 0.0
H1719 H 0.92823 0.4746 0.10961 0.0
H1720 H 0.8912 0.50906 0.1018 0.0
H1721 H 0.78145 0.39801 0.11013 0.0
C1722 C 0.86329 0.31943 0.11765 0.0
C1723 C 0.90179 0.3251 0.11842 0.0
C1724 C 0.93435 0.36388 0.11882 0.0
C1725 C 0.9287 0.39667 0.11743 0.0
C1726 C 0.89021 0.39 0.11625 0.0
C1727 C 0.85809 0.35224 0.11687 0.0
C1728 C 0.81973 0.35263 0.11544 0.0
C1729 C 0.79583 0.33014 0.09249 0.0
C1730 C 0.7956 0.33587 0.13921 0.0
C1731 C 0.83511 0.39648 0.11316 0.0
C1732 C 0.87578 0.41763 0.11352 0.0
C1733 C 0.89636 0.45834 0.10988 0.0
C1734 C 0.87484 0.47778 0.10564 0.0
C1735 C 0.83293 0.45671 0.10537 0.0
C1736 C 0.81324 0.41547 0.10971 0.0
H1737 H 0.4395 0.07751 0.40903 0.0
H1738 H 0.47013 0.18158 0.36545 0.0
H1739 H 0.54022 0.20019 0.36693 0.0
H1740 H 0.51652 0.12103 0.44924 0.0
H1741 H 0.52589 0.08057 0.4522 0.0
H1742 H 0.47742 0.0711 0.44405 0.0
H1743 H 0.47823 0.03435 0.40449 0.0
H1744 H 0.52652 0.04298 0.4127 0.0
H1745 H 0.51847 0.05853 0.383 0.0
H1746 H 0.60636 0.21365 0.37936 0.0
H1747 H 0.66524 0.21866 0.39865 0.0
H1748 H 0.59317 0.10322 0.4321 0.0
C1749 C 0.46089 0.10301 0.39879 0.0
C1750 C 0.44969 0.12745 0.38632 0.0
C1751 C 0.47835 0.16191 0.37428 0.0
C1752 C 0.51816 0.17281 0.37519 0.0
C1753 C 0.52867 0.14875 0.38818 0.0
C1754 C 0.5009 0.1142 0.39943 0.0
C1755 C 0.52055 0.09565 0.41397 0.0
C1756 C 0.50943 0.09189 0.44149 0.0
C1757 C 0.51034 0.05549 0.40287 0.0
C1758 C 0.56358 0.12603 0.40997 0.0
C1759 C 0.56748 0.15627 0.39495 0.0
C1760 C 0.60388 0.18953 0.39047 0.0
C1761 C 0.63733 0.19194 0.40148 0.0
C1762 C 0.63446 0.16102 0.41666 0.0
C1763 C 0.59683 0.1275 0.42069 0.0
H1764 H 0.56345 0.41044 0.06929 0.0
H1765 H 0.51717 0.37779 0.14343 0.0
H1766 H 0.57105 0.44204 0.15905 0.0
H1767 H 0.66737 0.46174 0.08717 0.0
H1768 H 0.68097 0.49823 0.06315 0.0
H1769 H 0.63981 0.44926 0.05872 0.0
H1770 H 0.59501 0.47901 0.0497 0.0
H1771 H 0.63587 0.52801 0.05454 0.0
H1772 H 0.59133 0.51094 0.07223 0.0
H1773 H 0.6278 0.51412 0.16542 0.0
H1774 H 0.68641 0.5812 0.16295 0.0
H1775 H 0.69619 0.56383 0.08474 0.0
C1776 C 0.56505 0.41657 0.0889 0.0
C1777 C 0.53618 0.3891 0.10518 0.0
C1778 C 0.53922 0.3982 0.13069 0.0
C1779 C 0.56952 0.4348 0.13965 0.0
C1780 C 0.59685 0.46179 0.1229 0.0
C1781 C 0.59521 0.45259 0.09811 0.0
C1782 C 0.6281 0.48612 0.08381 0.0
C1783 C 0.65572 0.47307 0.07253 0.0
C1784 C 0.61157 0.50194 0.0639 0.0
C1785 C 0.64834 0.51605 0.10424 0.0
C1786 C 0.62979 0.50183 0.12667 0.0
C1787 C 0.64273 0.52516 0.14797 0.0
C1788 C 0.67592 0.56339 0.14637 0.0
C1789 C 0.69619 0.57781 0.12371 0.0
C1790 C 0.6817 0.55371 0.10242 0.0
H1791 H 0.78757 0.41205 0.4047 0.0
H1792 H 0.89949 0.51783 0.4187 0.0
H1793 H 0.93416 0.48053 0.4108 0.0
H1794 H 0.8096 0.34553 0.43444 0.0
H1795 H 0.78373 0.3061 0.41254 0.0
H1796 H 0.76832 0.34186 0.41745 0.0
H1797 H 0.77596 0.35829 0.37066 0.0
H1798 H 0.79095 0.32218 0.36564 0.0
H1799 H 0.82218 0.37237 0.35565 0.0
H1800 H 0.95576 0.42875 0.40523 0.0
H1801 H 0.96205 0.36947 0.39868 0.0
H1802 H 0.83587 0.29939 0.38738 0.0
C1803 C 0.81942 0.42751 0.40585 0.0
C1804 C 0.8408 0.46786 0.41234 0.0
C1805 C 0.8825 0.48704 0.41349 0.0
C1806 C 0.90241 0.46601 0.40921 0.0
C1807 C 0.88026 0.42591 0.40354 0.0
C1808 C 0.83967 0.40708 0.4015 0.0
C1809 C 0.8224 0.36373 0.39565 0.0
C1810 C 0.79437 0.33779 0.41625 0.0
C1811 C 0.80166 0.35356 0.3704 0.0
C1812 C 0.85946 0.36087 0.39503 0.0
C1813 C 0.89263 0.39686 0.39971 0.0
C1814 C 0.92996 0.4006 0.40115 0.0
C1815 C 0.93334 0.36678 0.39742 0.0
C1816 C 0.89972 0.32987 0.39207 0.0
C1817 C 0.86241 0.32721 0.39099 0.0
H1818 H 0.24331 0.63702 0.59111 0.0
H1819 H 0.16 0.65036 0.63684 0.0
H1820 H 0.12253 0.57798 0.64359 0.0
H1821 H 0.17173 0.54477 0.56221 0.0
H1822 H 0.2054 0.52602 0.56164 0.0
H1823 H 0.22402 0.57836 0.55996 0.0
H1824 H 0.26864 0.58889 0.59798 0.0
H1825 H 0.24991 0.53658 0.59979 0.0
H1826 H 0.24667 0.5628 0.62623 0.0
H1827 H 0.09715 0.50328 0.64753 0.0
H1828 H 0.08435 0.43445 0.64561 0.0
H1829 H 0.18384 0.47257 0.59609 0.0
C1830 C 0.21718 0.62472 0.60255 0.0
C1831 C 0.20473 0.64923 0.61364 0.0
C1832 C 0.16997 0.63199 0.62814 0.0
C1833 C 0.14862 0.59098 0.63213 0.0
C1834 C 0.16217 0.56768 0.62122 0.0
C1835 C 0.19543 0.58405 0.60647 0.0
C1836 C 0.20419 0.55306 0.59681 0.0
C1837 C 0.20114 0.55041 0.56848 0.0
C1838 C 0.24475 0.5608 0.60575 0.0
C1839 C 0.17116 0.51674 0.60875 0.0
C1840 C 0.1471 0.52541 0.62282 0.0
C1841 C 0.11556 0.49618 0.63627 0.0
C1842 C 0.10847 0.45717 0.63511 0.0
C1843 C 0.13261 0.44791 0.6204 0.0
C1844 C 0.16429 0.47833 0.6072 0.0
H1845 H 0.30276 0.83304 0.90223 0.0
H1846 H 0.36747 0.95287 0.87503 0.0
H1847 H 0.43 0.95199 0.87965 0.0
H1848 H 0.37686 0.84442 0.94828 0.0
H1849 H 0.36301 0.79347 0.94377 0.0
H1850 H 0.32783 0.80946 0.93899 0.0
H1851 H 0.31822 0.77858 0.89252 0.0
H1852 H 0.355 0.76554 0.90036 0.0
H1853 H 0.36161 0.79609 0.87386 0.0
H1854 H 0.48694 0.93669 0.88954 0.0
H1855 H 0.5291 0.91027 0.90503 0.0
H1856 H 0.42441 0.80028 0.92363 0.0
C1857 C 0.32997 0.8591 0.89707 0.0
C1858 C 0.33 0.89308 0.8883 0.0
C1859 C 0.36656 0.92665 0.88207 0.0
C1860 C 0.40226 0.92624 0.88447 0.0
C1861 C 0.401 0.892 0.89321 0.0
C1862 C 0.36559 0.85925 0.89956 0.0
C1863 C 0.37153 0.8265 0.9094 0.0
C1864 C 0.35901 0.81787 0.93666 0.0
C1865 C 0.35032 0.78945 0.89312 0.0
C1866 C 0.41558 0.84522 0.90727 0.0
C1867 C 0.43259 0.88319 0.89813 0.0
C1868 C 0.4736 0.90683 0.89651 0.0
C1869 C 0.49737 0.89156 0.90521 0.0
C1870 C 0.48 0.8532 0.91555 0.0
C1871 C 0.43861 0.82966 0.91578 0.0
H1872 H 0.56372 0.70116 0.58747 0.0
H1873 H 0.59714 0.66861 0.65615 0.0
H1874 H 0.53156 0.60808 0.65804 0.0
H1875 H 0.46352 0.66789 0.60257 0.0
H1876 H 0.44538 0.6497 0.57198 0.0
H1877 H 0.49477 0.69024 0.57613 0.0
H1878 H 0.5229 0.65204 0.55263 0.0
H1879 H 0.4736 0.61172 0.54795 0.0
H1880 H 0.50992 0.60306 0.56257 0.0
H1881 H 0.46062 0.55178 0.65267 0.0
H1882 H 0.39483 0.50044 0.6375 0.0
H1883 H 0.41009 0.57015 0.57207 0.0
C1884 C 0.55737 0.68129 0.60292 0.0
C1885 C 0.58539 0.68968 0.62176 0.0
C1886 C 0.5761 0.66265 0.64146 0.0
C1887 C 0.53883 0.62842 0.64279 0.0
C1888 C 0.51147 0.6216 0.62417 0.0
C1889 C 0.52067 0.64702 0.6044 0.0
C1890 C 0.48695 0.63251 0.58622 0.0
C1891 C 0.47177 0.66183 0.58412 0.0
C1892 C 0.49907 0.62433 0.56085 0.0
C1893 C 0.45716 0.5948 0.59878 0.0
C1894 C 0.4715 0.58917 0.62083 0.0
C1895 C 0.44915 0.55593 0.63545 0.0
C1896 C 0.41179 0.52715 0.62686 0.0
C1897 C 0.39759 0.53183 0.60384 0.0
C1898 C 0.42027 0.56633 0.58991 0.0
H1899 H 0.21546 0.63023 0.87746 0.0
H1900 H 0.12306 0.62066 0.92572 0.0
H1901 H 0.08777 0.54788 0.92086 0.0
H1902 H 0.15205 0.54376 0.83616 0.0
H1903 H 0.19016 0.53087 0.83421 0.0
H1904 H 0.20314 0.58178 0.83765 0.0
H1905 H 0.2445 0.58708 0.87617 0.0
H1906 H 0.2308 0.53595 0.87384 0.0
H1907 H 0.22056 0.55434 0.90176 0.0
H1908 H 0.06809 0.47486 0.91538 0.0
H1909 H 0.06629 0.41108 0.90951 0.0
H1910 H 0.17255 0.47036 0.86542 0.0
C1911 C 0.18712 0.61289 0.88634 0.0
C1912 C 0.17185 0.63105 0.90183 0.0
C1913 C 0.13498 0.60737 0.91345 0.0
C1914 C 0.11482 0.56599 0.91084 0.0
C1915 C 0.13161 0.54884 0.8962 0.0
C1916 C 0.16667 0.57181 0.88379 0.0
C1917 C 0.18103 0.54669 0.87138 0.0
C1918 C 0.18161 0.55104 0.84317 0.0
C1919 C 0.2217 0.55661 0.88134 0.0
C1920 C 0.14949 0.50604 0.87942 0.0
C1921 C 0.12077 0.50752 0.89339 0.0
C1922 C 0.09012 0.47345 0.90409 0.0
C1923 C 0.08925 0.43729 0.90064 0.0
C1924 C 0.11917 0.43565 0.88695 0.0
C1925 C 0.14912 0.4705 0.87593 0.0
H1926 H 0.34349 0.9076 0.58577 0.0
H1927 H 0.33033 0.88609 0.66447 0.0
H1928 H 0.38858 0.87693 0.66459 0.0
H1929 H 0.3689 0.8337 0.57278 0.0
H1930 H 0.40315 0.86104 0.54846 0.0
H1931 H 0.36245 0.86885 0.55485 0.0
H1932 H 0.41044 0.94356 0.56107 0.0
H1933 H 0.45136 0.93628 0.5543 0.0
H1934 H 0.45043 0.95958 0.58282 0.0
H1935 H 0.4479 0.86858 0.65556 0.0
H1936 H 0.50416 0.86413 0.63858 0.0
H1937 H 0.47583 0.88745 0.56527 0.0
C1938 C 0.35369 0.90214 0.60307 0.0
C1939 C 0.33331 0.89863 0.62524 0.0
C1940 C 0.34619 0.88957 0.64741 0.0
C1941 C 0.37905 0.88414 0.6476 0.0
C1942 C 0.39827 0.88715 0.62534 0.0
C1943 C 0.38602 0.89593 0.60348 0.0
C1944 C 0.41045 0.89557 0.5819 0.0
C1945 C 0.3847 0.86284 0.56341 0.0
C1946 C 0.43195 0.93617 0.56929 0.0
C1947 C 0.43904 0.88627 0.59507 0.0
C1948 C 0.43141 0.88122 0.62009 0.0
C1949 C 0.45409 0.87248 0.63598 0.0
C1950 C 0.48586 0.86968 0.62612 0.0
C1951 C 0.49484 0.87565 0.60058 0.0
C1952 C 0.4704 0.88336 0.58494 0.0
H1953 H 0.55966 0.71527 0.92335 0.0
H1954 H 0.59168 0.65767 0.86726 0.0
H1955 H 0.52394 0.59986 0.86839 0.0
H1956 H 0.49298 0.62451 0.95839 0.0
H1957 H 0.4598 0.64244 0.9656 0.0
H1958 H 0.51164 0.67673 0.96174 0.0
H1959 H 0.49549 0.71399 0.92842 0.0
H1960 H 0.4437 0.67972 0.93189 0.0
H1961 H 0.4664 0.68737 0.90194 0.0
H1962 H 0.44902 0.55183 0.87263 0.0
H1963 H 0.37739 0.5175 0.8811 0.0
H1964 H 0.3972 0.60569 0.93658 0.0
C1965 C 0.5526 0.69001 0.91176 0.0
C1966 C 0.5809 0.69047 0.8955 0.0
C1967 C 0.57065 0.6573 0.88031 0.0
C1968 C 0.53213 0.62455 0.88071 0.0
C1969 C 0.50452 0.62533 0.89671 0.0
C1970 C 0.51469 0.65705 0.91227 0.0
C1971 C 0.47974 0.65171 0.92718 0.0
C1972 C 0.48644 0.64865 0.95487 0.0
C1973 C 0.47083 0.68518 0.92203 0.0
C1974 C 0.44778 0.61271 0.91701 0.0
C1975 C 0.46242 0.59771 0.89951 0.0
C1976 C 0.4375 0.56307 0.88664 0.0
C1977 C 0.39674 0.5436 0.89167 0.0
C1978 C 0.38111 0.55875 0.90946 0.0
C1979 C 0.40755 0.59339 0.92253 0.0
loop_
_geom_bond_atom_site_label_1
_geom_bond_atom_site_label_2
_geom_bond_distance
_geom_bond_site_symmetry_2
_ccdc_geom_bond_type
C0 C2 1.422 . S
C0 C4 1.415 . S
C0 N6 1.369 . S
C1 C2 1.421 . S
C1 C3 1.417 . S
C1 C13 1.422 . S
C2 C0 1.422 . S
C2 C1 1.421 . S
C2 N12 1.359 . S
C3 C1 1.417 . S
C3 C5 1.329 . S
C3 H22 0.930 . S
C4 C0 1.415 . S
C4 C5 1.437 . S
C4 C8 1.413 . S
C5 C3 1.329 . S
C5 C4 1.437 . S
C5 H27 0.929 . S
N6 C0 1.369 . S
N6 C7 1.338 . S
N6 Gd11 2.622 . S
C7 N6 1.338 . S
C7 C9 1.378 . S
C7 H19 0.929 . S
C8 C4 1.413 . S
C8 C9 1.348 . S
C8 H24 0.931 . S
C9 C7 1.378 . S
C9 C8 1.348 . S
C9 H25 0.930 1_554 S
Gd10 N30 2.622 . S
Gd10 N37 2.570 . S
Gd10 O44 2.353 . S
Gd10 O45 2.468 . S
Gd10 O46 2.427 . S
Gd10 O48 2.388 . S
Gd10 O49 2.386 . S
Gd10 O53 2.307 . S
Gd10 C63 2.805 . S
Gd11 N6 2.622 . S
Gd11 N12 2.570 . S
Gd11 O43 2.386 . S
Gd11 O47 2.307 . S
Gd11 O50 2.353 . S
Gd11 O51 2.468 . S
Gd11 O52 2.427 . S
Gd11 O54 2.388 . S
Gd11 C75 2.805 . S
N12 C2 1.359 . S
N12 Gd11 2.570 . S
N12 C14 1.343 . S
C13 C1 1.422 . S
C13 C15 1.321 . S
C13 H21 0.931 . S
C14 N12 1.343 . S
C14 C15 1.390 . S
C14 H16 0.931 . S
C15 C13 1.321 . S
C15 C14 1.390 . S
C15 H17 0.930 . S
H16 C14 0.931 . S
H17 C15 0.930 . S
H18 C41 0.931 . S
H19 C7 0.929 . S
H20 C42 0.932 . S
H21 C13 0.931 . S
H22 C3 0.930 . S
H23 C32 0.929 . S
H24 C8 0.931 . S
H25 C9 0.930 1_556 S
H26 C64 0.930 . S
H27 C5 0.929 . S
H28 C33 0.931 . S
H29 C34 0.930 . S
N30 Gd10 2.622 . S
N30 C31 1.369 . S
N30 C32 1.338 . S
C31 N30 1.369 . S
C31 C35 1.415 . S
C31 C38 1.422 . S
C32 H23 0.929 . S
C32 N30 1.338 . S
C32 C34 1.378 . S
C33 H28 0.931 . S
C33 C34 1.348 . S
C33 C35 1.413 . S
C34 H29 0.930 . S
C34 C32 1.378 . S
C34 C33 1.348 . S
C35 C31 1.415 . S
C35 C33 1.413 . S
C35 C65 1.437 . S
H36 C65 0.920 1_565 S
N37 Gd10 2.570 . S
N37 C38 1.359 . S
N37 C41 1.343 . S
C38 C31 1.422 . S
C38 N37 1.359 . S
C38 C40 1.421 . S
C39 C40 1.422 1_565 S
C39 C42 1.321 1_565 S
C39 H66 0.931 . S
C40 C38 1.421 . S
C40 C39 1.422 1_545 S
C40 C64 1.417 1_545 S
C41 H18 0.931 . S
C41 N37 1.343 . S
C41 C42 1.390 . S
C42 H20 0.932 . S
C42 C39 1.321 1_545 S
C42 C41 1.390 . S
O43 Gd11 2.386 . S
O43 C55 1.265 . S
O44 Gd10 2.353 . S
O44 C55 1.242 . S
O45 Gd10 2.468 . S
O45 C63 1.263 . S
O46 Gd10 2.427 . S
O46 C63 1.252 . S
O47 Gd11 2.307 . S
O47 C56 1.261 . S
O48 Gd10 2.388 . S
O48 C56 1.252 . S
O49 Gd10 2.386 . S
O49 C67 1.265 . S
O50 Gd11 2.353 . S
O50 C67 1.242 . S
O51 Gd11 2.468 . S
O51 C75 1.263 . S
O52 Gd11 2.427 . S
O52 C75 1.252 . S
O53 Gd10 2.307 . S
O53 C68 1.261 . S
O54 Gd11 2.388 . S
O54 C68 1.252 . S
C55 O43 1.265 . S
C55 O44 1.242 . S
C56 O47 1.261 . S
C56 O48 1.252 . S
C57 C60 1.394 . S
C57 C62 1.370 . S
C57 C63 1.500 1_565 S
C58 C61 1.383 . S
C58 C62 1.395 . S
C59 C60 1.396 . S
C59 C61 1.365 . S
C59 H76 0.929 . S
C60 C57 1.394 . S
C60 C59 1.396 . S
C60 H77 0.930 . S
C61 C58 1.383 . S
C61 C59 1.365 . S
C61 H78 0.931 . S
C62 C57 1.370 . S
C62 C58 1.395 . S
C62 H79 0.930 . S
C63 Gd10 2.805 . S
C63 O45 1.263 . S
C63 O46 1.252 . S
C63 C57 1.500 1_545 S
C64 H26 0.930 . S
C64 C40 1.417 1_565 S
C64 C65 1.329 1_565 S
C65 C35 1.437 . S
C65 H36 0.920 1_545 S
C65 C64 1.329 1_545 S
H66 C39 0.931 . S
C67 O49 1.265 . S
C67 O50 1.242 . S
C68 O53 1.261 . S
C68 O54 1.252 . S
C69 C72 1.394 . S
C69 C74 1.370 . S
C69 C75 1.500 . S
C70 C73 1.383 . S
C70 C74 1.395 . S
C71 C72 1.396 . S
C71 C73 1.365 . S
C71 H80 0.929 . S
C72 C69 1.394 . S
C72 C71 1.396 . S
C72 H81 0.930 . S
C73 C70 1.383 . S
C73 C71 1.365 . S
C73 H82 0.931 . S
C74 C69 1.370 . S
C74 C70 1.395 . S
C74 H83 0.930 . S
C75 Gd11 2.805 . S
C75 O51 1.263 . S
C75 O52 1.252 . S
C75 C69 1.500 . S
H76 C59 0.929 . S
H77 C60 0.930 . S
H78 C61 0.931 . S
H79 C62 0.930 . S
H80 C71 0.929 . S
H81 C72 0.930 . S
H82 C73 0.931 . S
H83 C74 0.930 . S
C84 C86 1.422 . S
C84 C88 1.415 . S
C84 N90 1.369 . S
C85 C86 1.421 . S
C85 C87 1.417 . S
C85 C97 1.422 . S
C86 C84 1.422 . S
C86 C85 1.421 . S
C86 N96 1.359 . S
C87 C85 1.417 . S
C87 C89 1.329 . S
C87 H106 0.930 . S
C88 C84 1.415 . S
C88 C89 1.437 . S
C88 C92 1.413 . S
C89 C87 1.329 . S
C89 C88 1.437 . S
C89 H111 0.929 . S
N90 C84 1.369 . S
N90 C91 1.338 . S
N90 Gd95 2.622 . S
C91 N90 1.338 . S
C91 C93 1.378 . S
C91 H103 0.929 . S
C92 C88 1.413 . S
C92 C93 1.348 . S
C92 H108 0.931 . S
C93 C91 1.378 . S
C93 C92 1.348 . S
C93 H109 0.930 . S
Gd94 N114 2.622 . S
Gd94 N121 2.570 . S
Gd94 O128 2.353 . S
Gd94 O129 2.468 . S
Gd94 O130 2.427 . S
Gd94 O132 2.388 . S
Gd94 O133 2.386 . S
Gd94 O137 2.307 . S
Gd94 C147 2.805 . S
Gd95 N90 2.622 . S
Gd95 N96 2.570 . S
Gd95 O127 2.386 . S
Gd95 O131 2.307 . S
Gd95 O134 2.353 . S
Gd95 O135 2.468 . S
Gd95 O136 2.427 . S
Gd95 O138 2.388 . S
Gd95 C159 2.805 . S
N96 C86 1.359 . S
N96 Gd95 2.570 . S
N96 C98 1.343 . S
C97 C85 1.422 . S
C97 C99 1.321 . S
C97 H105 0.931 . S
C98 N96 1.343 . S
C98 C99 1.390 . S
C98 H100 0.931 . S
C99 C97 1.321 . S
C99 C98 1.390 . S
C99 H101 0.930 . S
H100 C98 0.931 . S
H101 C99 0.930 . S
H102 C125 0.931 . S
H103 C91 0.929 . S
H104 C126 0.930 . S
H105 C97 0.931 . S
H106 C87 0.930 . S
H107 C116 0.929 . S
H108 C92 0.931 . S
H109 C93 0.930 . S
H110 C148 0.930 . S
H111 C89 0.929 . S
H112 C117 0.931 . S
H113 C118 0.930 . S
N114 Gd94 2.622 . S
N114 C115 1.369 . S
N114 C116 1.338 . S
C115 N114 1.369 . S
C115 C119 1.415 . S
C115 C122 1.422 . S
C116 H107 0.929 . S
C116 N114 1.338 . S
C116 C118 1.378 . S
C117 H112 0.931 . S
C117 C118 1.348 . S
C117 C119 1.413 . S
C118 H113 0.930 . S
C118 C116 1.378 . S
C118 C117 1.348 . S
C119 C115 1.415 . S
C119 C117 1.413 . S
C119 C149 1.422 1_655 S
H120 C149 0.939 . S
N121 Gd94 2.570 . S
N121 C122 1.359 . S
N121 C125 1.343 . S
C122 C115 1.422 . S
C122 N121 1.359 . S
C122 C124 1.421 . S
C123 C124 1.422 . S
C123 C126 1.321 . S
C123 H150 0.931 1_655 S
C124 C122 1.421 . S
C124 C123 1.422 . S
C124 C148 1.417 1_655 S
C125 H102 0.931 . S
C125 N121 1.343 . S
C125 C126 1.390 . S
C126 H104 0.930 . S
C126 C123 1.321 . S
C126 C125 1.390 . S
O127 Gd95 2.386 . S
O127 C139 1.265 . S
O128 Gd94 2.353 . S
O128 C139 1.242 . S
O129 Gd94 2.468 . S
O129 C147 1.263 . S
O130 Gd94 2.427 . S
O130 C147 1.252 . S
O131 Gd95 2.307 . S
O131 C140 1.261 . S
O132 Gd94 2.388 . S
O132 C140 1.252 . S
O133 Gd94 2.386 . S
O133 C151 1.265 . S
O134 Gd95 2.353 . S
O134 C151 1.242 . S
O135 Gd95 2.468 . S
O135 C159 1.263 . S
O136 Gd95 2.427 . S
O136 C159 1.252 . S
O137 Gd94 2.307 . S
O137 C152 1.261 . S
O138 Gd95 2.388 . S
O138 C152 1.252 . S
C139 O127 1.265 . S
C139 O128 1.242 . S
C140 O131 1.261 . S
C140 O132 1.252 . S
C141 C144 1.394 . S
C141 C146 1.370 . S
C141 C147 1.500 . S
C142 C145 1.383 . S
C142 C146 1.395 . S
C143 C144 1.396 . S
C143 C145 1.365 . S
C143 H160 0.929 . S
C144 C141 1.394 . S
C144 C143 1.396 . S
C144 H161 0.930 . S
C145 C142 1.383 . S
C145 C143 1.365 . S
C145 H162 0.931 . S
C146 C141 1.370 . S
C146 C142 1.395 . S
C146 H163 0.930 . S
C147 Gd94 2.805 . S
C147 O129 1.263 . S
C147 O130 1.252 . S
C147 C141 1.500 . S
C148 H110 0.930 . S
C148 C124 1.417 1_455 S
C148 C149 1.335 . S
C149 C119 1.422 1_455 S
C149 H120 0.939 . S
C149 C148 1.335 . S
H150 C123 0.931 1_455 S
C151 O133 1.265 . S
C151 O134 1.242 . S
C152 O137 1.261 . S
C152 O138 1.252 . S
C153 C156 1.394 . S
C153 C158 1.370 . S
C153 C159 1.500 . S
C154 C157 1.383 . S
C154 C158 1.395 . S
C155 C156 1.396 . S
C155 C157 1.365 . S
C155 H164 0.929 . S
C156 C153 1.394 . S
C156 C155 1.396 . S
C156 H165 0.930 . S
C157 C154 1.383 . S
C157 C155 1.365 . S
C157 H166 0.931 . S
C158 C153 1.370 . S
C158 C154 1.395 . S
C158 H167 0.930 . S
C159 Gd95 2.805 . S
C159 O135 1.263 . S
C159 O136 1.252 . S
C159 C153 1.500 . S
H160 C143 0.929 . S
H161 C144 0.930 . S
H162 C145 0.931 . S
H163 C146 0.930 . S
H164 C155 0.929 . S
H165 C156 0.930 . S
H166 C157 0.931 . S
H167 C158 0.930 . S
C168 C170 1.422 . S
C168 C172 1.415 . S
C168 N174 1.369 . S
C169 C170 1.421 . S
C169 C171 1.417 1_545 S
C169 C181 1.422 . S
C170 C168 1.422 . S
C170 C169 1.421 . S
C170 N180 1.359 . S
C171 C169 1.417 1_565 S
C171 C173 1.332 . S
C171 H190 0.930 . S
C172 C168 1.415 . S
C172 C173 1.425 1_545 S
C172 C176 1.413 . S
C173 C171 1.332 . S
C173 C172 1.425 1_565 S
C173 H195 0.940 . S
N174 C168 1.369 . S
N174 C175 1.338 . S
N174 Gd179 2.622 . S
C175 N174 1.338 . S
C175 C177 1.378 . S
C175 H187 0.929 . S
C176 C172 1.413 . S
C176 C177 1.348 . S
C176 H192 0.931 . S
C177 C175 1.378 . S
C177 C176 1.348 . S
C177 H193 0.930 1_554 S
Gd178 N198 2.622 . S
Gd178 N205 2.570 . S
Gd178 O212 2.353 . S
Gd178 O213 2.468 . S
Gd178 O214 2.427 . S
Gd178 O216 2.388 . S
Gd178 O217 2.386 . S
Gd178 O221 2.307 . S
Gd178 C231 2.805 . S
Gd179 N174 2.622 . S
Gd179 N180 2.570 . S
Gd179 O211 2.386 . S
Gd179 O215 2.307 . S
Gd179 O218 2.353 . S
Gd179 O219 2.468 . S
Gd179 O220 2.427 . S
Gd179 O222 2.388 . S
Gd179 C243 2.805 . S
N180 C170 1.359 . S
N180 Gd179 2.570 . S
N180 C182 1.343 . S
C181 C169 1.422 . S
C181 C183 1.321 . S
C181 H189 0.931 1_545 S
C182 N180 1.343 . S
C182 C183 1.390 . S
C182 H184 0.931 . S
C183 C181 1.321 . S
C183 C182 1.390 . S
C183 H185 0.930 . S
H184 C182 0.931 . S
H185 C183 0.930 . S
H186 C209 0.931 . S
H187 C175 0.929 . S
H188 C210 0.931 . S
H189 C181 0.931 1_565 S
H190 C171 0.930 . S
H191 C200 0.929 . S
H192 C176 0.931 . S
H193 C177 0.930 1_556 S
H194 C232 0.930 . S
H195 C173 0.940 . S
H196 C201 0.931 . S
H197 C202 0.930 . S
N198 Gd178 2.622 . S
N198 C199 1.369 . S
N198 C200 1.338 . S
C199 N198 1.369 . S
C199 C203 1.415 . S
C199 C206 1.422 . S
C200 H191 0.929 . S
C200 N198 1.338 . S
C200 C202 1.378 . S
C201 H196 0.931 . S
C201 C202 1.348 . S
C201 C203 1.413 . S
C202 H197 0.930 . S
C202 C200 1.378 . S
C202 C201 1.348 . S
C203 C199 1.415 . S
C203 C201 1.413 . S
C203 C233 1.437 . S
H204 C233 0.930 1_455 S
N205 Gd178 2.570 . S
N205 C206 1.359 . S
N205 C209 1.343 . S
C206 C199 1.422 . S
C206 N205 1.359 . S
C206 C208 1.421 . S
C207 C208 1.422 1_455 S
C207 C210 1.321 1_455 S
C207 H234 0.931 . S
C208 C206 1.421 . S
C208 C207 1.422 1_655 S
C208 C232 1.417 1_655 S
C209 H186 0.931 . S
C209 N205 1.343 . S
C209 C210 1.390 . S
C210 H188 0.931 . S
C210 C207 1.321 1_655 S
C210 C209 1.390 . S
O211 Gd179 2.386 . S
O211 C223 1.265 . S
O212 Gd178 2.353 . S
O212 C223 1.242 . S
O213 Gd178 2.468 . S
O213 C231 1.263 . S
O214 Gd178 2.427 . S
O214 C231 1.252 . S
O215 Gd179 2.307 . S
O215 C224 1.261 . S
O216 Gd178 2.388 . S
O216 C224 1.252 . S
O217 Gd178 2.386 . S
O217 C235 1.265 . S
O218 Gd179 2.353 . S
O218 C235 1.242 . S
O219 Gd179 2.468 . S
O219 C243 1.263 . S
O220 Gd179 2.427 . S
O220 C243 1.252 . S
O221 Gd178 2.307 . S
O221 C236 1.261 . S
O222 Gd179 2.388 . S
O222 C236 1.252 . S
C223 O211 1.265 . S
C223 O212 1.242 . S
C224 O215 1.261 . S
C224 O216 1.252 . S
C225 C228 1.394 . S
C225 C230 1.370 . S
C225 C231 1.500 1_455 S
C226 C229 1.383 . S
C226 C230 1.395 . S
C227 C228 1.396 . S
C227 C229 1.365 . S
C227 H244 0.929 . S
C228 C225 1.394 . S
C228 C227 1.396 . S
C228 H245 0.930 . S
C229 C226 1.383 . S
C229 C227 1.365 . S
C229 H246 0.931 . S
C230 C225 1.370 . S
C230 C226 1.395 . S
C230 H247 0.930 . S
C231 Gd178 2.805 . S
C231 O213 1.263 . S
C231 O214 1.252 . S
C231 C225 1.500 1_655 S
C232 H194 0.930 . S
C232 C208 1.417 1_455 S
C232 C233 1.329 1_455 S
C233 C203 1.437 . S
C233 H204 0.930 1_655 S
C233 C232 1.329 1_655 S
H234 C207 0.931 . S
C235 O217 1.265 . S
C235 O218 1.242 . S
C236 O221 1.261 . S
C236 O222 1.252 . S
C237 C240 1.394 . S
C237 C242 1.370 . S
C237 C243 1.500 . S
C238 C241 1.383 . S
C238 C242 1.395 . S
C239 C240 1.396 . S
C239 C241 1.365 . S
C239 H248 0.929 . S
C240 C237 1.394 . S
C240 C239 1.396 . S
C240 H249 0.930 . S
C241 C238 1.383 . S
C241 C239 1.365 . S
C241 H250 0.931 . S
C242 C237 1.370 . S
C242 C238 1.395 . S
C242 H251 0.930 . S
C243 Gd179 2.805 . S
C243 O219 1.263 . S
C243 O220 1.252 . S
C243 C237 1.500 . S
H244 C227 0.929 . S
H245 C228 0.930 . S
H246 C229 0.931 . S
H247 C230 0.930 . S
H248 C239 0.929 . S
H249 C240 0.930 . S
H250 C241 0.931 . S
H251 C242 0.930 . S
C252 C254 1.422 . S
C252 C256 1.415 . S
C252 N258 1.369 . S
C253 C254 1.421 . S
C253 C255 1.417 1_545 S
C253 C265 1.422 1_545 S
C254 C252 1.422 . S
C254 C253 1.421 . S
C254 N264 1.359 . S
C255 C253 1.417 1_565 S
C255 C257 1.329 1_565 S
C255 H274 0.930 . S
C256 C252 1.415 . S
C256 C257 1.437 . S
C256 C260 1.413 . S
C257 C255 1.329 1_545 S
C257 C256 1.437 . S
C257 H279 0.920 1_545 S
N258 C252 1.369 . S
N258 C259 1.338 . S
N258 Gd263 2.622 . S
C259 N258 1.338 . S
C259 C261 1.378 . S
C259 H271 0.929 . S
C260 C256 1.413 . S
C260 C261 1.348 . S
C260 H276 0.931 . S
C261 C259 1.378 . S
C261 C260 1.348 . S
C261 H277 0.930 . S
Gd262 N282 2.622 . S
Gd262 N289 2.570 . S
Gd262 O296 2.353 . S
Gd262 O297 2.468 . S
Gd262 O298 2.427 . S
Gd262 O300 2.388 . S
Gd262 O301 2.386 . S
Gd262 O305 2.307 . S
Gd262 C315 2.805 . S
Gd263 N258 2.622 . S
Gd263 N264 2.570 . S
Gd263 O295 2.386 . S
Gd263 O299 2.307 . S
Gd263 O302 2.353 . S
Gd263 O303 2.468 . S
Gd263 O304 2.427 . S
Gd263 O306 2.388 . S
Gd263 C327 2.805 . S
N264 C254 1.359 . S
N264 Gd263 2.570 . S
N264 C266 1.343 . S
C265 C253 1.422 1_565 S
C265 C267 1.321 1_565 S
C265 H273 0.931 . S
C266 N264 1.343 . S
C266 C267 1.390 . S
C266 H268 0.931 . S
C267 C265 1.321 1_545 S
C267 C266 1.390 . S
C267 H269 0.932 . S
H268 C266 0.931 . S
H269 C267 0.932 . S
H270 C293 0.931 . S
H271 C259 0.929 . S
H272 C294 0.930 . S
H273 C265 0.931 . S
H274 C255 0.930 . S
H275 C284 0.929 . S
H276 C260 0.931 . S
H277 C261 0.930 . S
H278 C316 0.930 . S
H279 C257 0.920 1_565 S
H280 C285 0.931 . S
H281 C286 0.930 . S
N282 Gd262 2.622 . S
N282 C283 1.369 . S
N282 C284 1.338 . S
C283 N282 1.369 . S
C283 C287 1.415 . S
C283 C290 1.422 . S
C284 H275 0.929 . S
C284 N282 1.338 . S
C284 C286 1.378 . S
C285 H280 0.931 . S
C285 C286 1.348 . S
C285 C287 1.413 . S
C286 H281 0.930 . S
C286 C284 1.378 . S
C286 C285 1.348 . S
C287 C283 1.415 . S
C287 C285 1.413 . S
C287 C317 1.437 . S
H288 C317 0.929 . S
N289 Gd262 2.570 . S
N289 C290 1.359 . S
N289 C293 1.343 . S
C290 C283 1.422 . S
C290 N289 1.359 . S
C290 C292 1.421 . S
C291 C292 1.422 . S
C291 C294 1.321 . S
C291 H318 0.931 . S
C292 C290 1.421 . S
C292 C291 1.422 . S
C292 C316 1.417 . S
C293 H270 0.931 . S
C293 N289 1.343 . S
C293 C294 1.390 . S
C294 H272 0.930 . S
C294 C291 1.321 . S
C294 C293 1.390 . S
O295 Gd263 2.386 . S
O295 C307 1.265 . S
O296 Gd262 2.353 . S
O296 C307 1.242 . S
O297 Gd262 2.468 . S
O297 C315 1.263 . S
O298 Gd262 2.427 . S
O298 C315 1.252 . S
O299 Gd263 2.307 . S
O299 C308 1.261 . S
O300 Gd262 2.388 . S
O300 C308 1.252 . S
O301 Gd262 2.386 . S
O301 C319 1.265 . S
O302 Gd263 2.353 . S
O302 C319 1.242 . S
O303 Gd263 2.468 . S
O303 C327 1.263 . S
O304 Gd263 2.427 . S
O304 C327 1.252 . S
O305 Gd262 2.307 . S
O305 C320 1.261 . S
O306 Gd263 2.388 . S
O306 C320 1.252 . S
C307 O295 1.265 . S
C307 O296 1.242 . S
C308 O299 1.261 . S
C308 O300 1.252 . S
C309 C312 1.394 . S
C309 C314 1.370 . S
C309 C315 1.500 . S
C310 C313 1.383 . S
C310 C314 1.395 . S
C311 C312 1.396 . S
C311 C313 1.365 . S
C311 H328 0.929 . S
C312 C309 1.394 . S
C312 C311 1.396 . S
C312 H329 0.930 . S
C313 C310 1.383 . S
C313 C311 1.365 . S
C313 H330 0.931 . S
C314 C309 1.370 . S
C314 C310 1.395 . S
C314 H331 0.930 . S
C315 Gd262 2.805 . S
C315 O297 1.263 . S
C315 O298 1.252 . S
C315 C309 1.500 . S
C316 H278 0.930 . S
C316 C292 1.417 . S
C316 C317 1.329 . S
C317 C287 1.437 . S
C317 H288 0.929 . S
C317 C316 1.329 . S
H318 C291 0.931 . S
C319 O301 1.265 . S
C319 O302 1.242 . S
C320 O305 1.261 . S
C320 O306 1.252 . S
C321 C324 1.394 . S
C321 C326 1.370 . S
C321 C327 1.500 1_565 S
C322 C325 1.383 . S
C322 C326 1.395 . S
C323 C324 1.396 . S
C323 C325 1.365 . S
C323 H332 0.929 . S
C324 C321 1.394 . S
C324 C323 1.396 . S
C324 H333 0.930 . S
C325 C322 1.383 . S
C325 C323 1.365 . S
C325 H334 0.931 . S
C326 C321 1.370 . S
C326 C322 1.395 . S
C326 H335 0.930 . S
C327 Gd263 2.805 . S
C327 O303 1.263 . S
C327 O304 1.252 . S
C327 C321 1.500 1_545 S
H328 C311 0.929 . S
H329 C312 0.930 . S
H330 C313 0.931 . S
H331 C314 0.930 . S
H332 C323 0.929 . S
H333 C324 0.930 . S
H334 C325 0.931 . S
H335 C326 0.930 . S
C336 C338 1.422 . S
C336 C340 1.415 . S
C336 N342 1.369 . S
C337 C338 1.421 . S
C337 C339 1.417 1_655 S
C337 C349 1.422 . S
C338 C336 1.422 . S
C338 C337 1.421 . S
C338 N348 1.359 . S
C339 C337 1.417 1_455 S
C339 C341 1.335 . S
C339 H358 0.930 . S
C340 C336 1.415 . S
C340 C341 1.422 1_655 S
C340 C344 1.413 . S
C341 C339 1.335 . S
C341 C340 1.422 1_455 S
C341 H363 0.939 . S
N342 C336 1.369 . S
N342 C343 1.338 . S
N342 Gd347 2.622 . S
C343 N342 1.338 . S
C343 C345 1.378 . S
C343 H355 0.929 . S
C344 C340 1.413 . S
C344 C345 1.348 . S
C344 H360 0.931 . S
C345 C343 1.378 . S
C345 C344 1.348 . S
C345 H361 0.930 1_554 S
Gd346 N366 2.622 . S
Gd346 N373 2.570 . S
Gd346 O380 2.353 . S
Gd346 O381 2.468 . S
Gd346 O382 2.427 . S
Gd346 O384 2.388 . S
Gd346 O385 2.386 . S
Gd346 O389 2.307 . S
Gd346 C399 2.805 . S
Gd347 N342 2.622 . S
Gd347 N348 2.570 . S
Gd347 O379 2.386 . S
Gd347 O383 2.307 . S
Gd347 O386 2.353 . S
Gd347 O387 2.468 . S
Gd347 O388 2.427 . S
Gd347 O390 2.388 . S
Gd347 C411 2.805 . S
N348 C338 1.359 . S
N348 Gd347 2.570 . S
N348 C350 1.343 . S
C349 C337 1.422 . S
C349 C351 1.321 . S
C349 H357 0.931 1_655 S
C350 N348 1.343 . S
C350 C351 1.390 . S
C350 H352 0.931 . S
C351 C349 1.321 . S
C351 C350 1.390 . S
C351 H353 0.930 . S
H352 C350 0.931 . S
H353 C351 0.930 . S
H354 C377 0.931 . S
H355 C343 0.929 . S
H356 C378 0.930 . S
H357 C349 0.931 1_455 S
H358 C339 0.930 . S
H359 C368 0.929 . S
H360 C344 0.931 . S
H361 C345 0.930 1_556 S
H362 C400 0.930 . S
H363 C341 0.939 . S
H364 C369 0.931 . S
H365 C370 0.930 . S
N366 Gd346 2.622 . S
N366 C367 1.369 . S
N366 C368 1.338 . S
C367 N366 1.369 . S
C367 C371 1.415 . S
C367 C374 1.422 . S
C368 H359 0.929 . S
C368 N366 1.338 . S
C368 C370 1.378 . S
C369 H364 0.931 . S
C369 C370 1.348 . S
C369 C371 1.413 . S
C370 H365 0.930 . S
C370 C368 1.378 . S
C370 C369 1.348 . S
C371 C367 1.415 . S
C371 C369 1.413 . S
C371 C401 1.437 . S
H372 C401 0.929 . S
N373 Gd346 2.570 . S
N373 C374 1.359 . S
N373 C377 1.343 . S
C374 C367 1.422 . S
C374 N373 1.359 . S
C374 C376 1.421 . S
C375 C376 1.422 . S
C375 C378 1.321 . S
C375 H402 0.931 . S
C376 C374 1.421 . S
C376 C375 1.422 . S
C376 C400 1.417 . S
C377 H354 0.931 . S
C377 N373 1.343 . S
C377 C378 1.390 . S
C378 H356 0.930 . S
C378 C375 1.321 . S
C378 C377 1.390 . S
O379 Gd347 2.386 . S
O379 C391 1.265 . S
O380 Gd346 2.353 . S
O380 C391 1.242 . S
O381 Gd346 2.468 . S
O381 C399 1.263 . S
O382 Gd346 2.427 . S
O382 C399 1.252 . S
O383 Gd347 2.307 . S
O383 C392 1.261 . S
O384 Gd346 2.388 . S
O384 C392 1.252 . S
O385 Gd346 2.386 . S
O385 C403 1.265 . S
O386 Gd347 2.353 . S
O386 C403 1.242 . S
O387 Gd347 2.468 . S
O387 C411 1.263 . S
O388 Gd347 2.427 . S
O388 C411 1.252 . S
O389 Gd346 2.307 . S
O389 C404 1.261 . S
O390 Gd347 2.388 . S
O390 C404 1.252 . S
C391 O379 1.265 . S
C391 O380 1.242 . S
C392 O383 1.261 . S
C392 O384 1.252 . S
C393 C396 1.394 . S
C393 C398 1.370 . S
C393 C399 1.500 . S
C394 C397 1.383 . S
C394 C398 1.395 . S
C395 C396 1.396 . S
C395 C397 1.365 . S
C395 H412 0.929 . S
C396 C393 1.394 . S
C396 C395 1.396 . S
C396 H413 0.930 . S
C397 C394 1.383 . S
C397 C395 1.365 . S
C397 H414 0.931 . S
C398 C393 1.370 . S
C398 C394 1.395 . S
C398 H415 0.930 . S
C399 Gd346 2.805 . S
C399 O381 1.263 . S
C399 O382 1.252 . S
C399 C393 1.500 . S
C400 H362 0.930 . S
C400 C376 1.417 . S
C400 C401 1.329 . S
C401 C371 1.437 . S
C401 H372 0.929 . S
C401 C400 1.329 . S
H402 C375 0.931 . S
C403 O385 1.265 . S
C403 O386 1.242 . S
C404 O389 1.261 . S
C404 O390 1.252 . S
C405 C408 1.394 . S
C405 C410 1.370 . S
C405 C411 1.500 . S
C406 C409 1.383 . S
C406 C410 1.395 . S
C407 C408 1.396 . S
C407 C409 1.365 . S
C407 H416 0.929 . S
C408 C405 1.394 . S
C408 C407 1.396 . S
C408 H417 0.930 . S
C409 C406 1.383 . S
C409 C407 1.365 . S
C409 H418 0.931 . S
C410 C405 1.370 . S
C410 C406 1.395 . S
C410 H419 0.930 . S
C411 Gd347 2.805 . S
C411 O387 1.263 . S
C411 O388 1.252 . S
C411 C405 1.500 . S
H412 C395 0.929 . S
H413 C396 0.930 . S
H414 C397 0.931 . S
H415 C398 0.930 . S
H416 C407 0.929 . S
H417 C408 0.930 . S
H418 C409 0.931 . S
H419 C410 0.930 . S
C420 C422 1.422 . S
C420 C424 1.415 . S
C420 N426 1.369 . S
C421 C422 1.421 . S
C421 C423 1.417 1_655 S
C421 C433 1.422 1_655 S
C422 C420 1.422 . S
C422 C421 1.421 . S
C422 N432 1.359 . S
C423 C421 1.417 1_455 S
C423 C425 1.329 1_455 S
C423 H442 0.930 . S
C424 C420 1.415 . S
C424 C425 1.437 . S
C424 C428 1.413 . S
C425 C423 1.329 1_655 S
C425 C424 1.437 . S
C425 H447 0.930 1_655 S
N426 C420 1.369 . S
N426 C427 1.338 . S
N426 Gd431 2.622 . S
C427 N426 1.338 . S
C427 C429 1.378 . S
C427 H439 0.929 . S
C428 C424 1.413 . S
C428 C429 1.348 . S
C428 H444 0.931 . S
C429 C427 1.378 . S
C429 C428 1.348 . S
C429 H445 0.930 . S
Gd430 N450 2.622 . S
Gd430 N457 2.570 . S
Gd430 O464 2.353 . S
Gd430 O465 2.468 . S
Gd430 O466 2.427 . S
Gd430 O468 2.388 . S
Gd430 O469 2.386 . S
Gd430 O473 2.307 . S
Gd430 C483 2.805 . S
Gd431 N426 2.622 . S
Gd431 N432 2.570 . S
Gd431 O463 2.386 . S
Gd431 O467 2.307 . S
Gd431 O470 2.353 . S
Gd431 O471 2.468 . S
Gd431 O472 2.427 . S
Gd431 O474 2.388 . S
Gd431 C495 2.805 . S
N432 C422 1.359 . S
N432 Gd431 2.570 . S
N432 C434 1.343 . S
C433 C421 1.422 1_455 S
C433 C435 1.321 1_455 S
C433 H441 0.931 . S
C434 N432 1.343 . S
C434 C435 1.390 . S
C434 H436 0.931 . S
C435 C433 1.321 1_655 S
C435 C434 1.390 . S
C435 H437 0.931 . S
H436 C434 0.931 . S
H437 C435 0.931 . S
H438 C461 0.931 . S
H439 C427 0.929 . S
H440 C462 0.930 . S
H441 C433 0.931 . S
H442 C423 0.930 . S
H443 C452 0.929 . S
H444 C428 0.931 . S
H445 C429 0.930 . S
H446 C484 0.930 . S
H447 C425 0.930 1_455 S
H448 C453 0.931 . S
H449 C454 0.930 . S
N450 Gd430 2.622 . S
N450 C451 1.369 . S
N450 C452 1.338 . S
C451 N450 1.369 . S
C451 C455 1.415 . S
C451 C458 1.422 . S
C452 H443 0.929 . S
C452 N450 1.338 . S
C452 C454 1.378 . S
C453 H448 0.931 . S
C453 C454 1.348 . S
C453 C455 1.413 . S
C454 H449 0.930 . S
C454 C452 1.378 . S
C454 C453 1.348 . S
C455 C451 1.415 . S
C455 C453 1.413 . S
C455 C485 1.425 1_545 S
H456 C485 0.940 . S
N457 Gd430 2.570 . S
N457 C458 1.359 . S
N457 C461 1.343 . S
C458 C451 1.422 . S
C458 N457 1.359 . S
C458 C460 1.421 . S
C459 C460 1.422 . S
C459 C462 1.321 . S
C459 H486 0.931 1_545 S
C460 C458 1.421 . S
C460 C459 1.422 . S
C460 C484 1.417 1_545 S
C461 H438 0.931 . S
C461 N457 1.343 . S
C461 C462 1.390 . S
C462 H440 0.930 . S
C462 C459 1.321 . S
C462 C461 1.390 . S
O463 Gd431 2.386 . S
O463 C475 1.265 . S
O464 Gd430 2.353 . S
O464 C475 1.242 . S
O465 Gd430 2.468 . S
O465 C483 1.263 . S
O466 Gd430 2.427 . S
O466 C483 1.252 . S
O467 Gd431 2.307 . S
O467 C476 1.261 . S
O468 Gd430 2.388 . S
O468 C476 1.252 . S
O469 Gd430 2.386 . S
O469 C487 1.265 . S
O470 Gd431 2.353 . S
O470 C487 1.242 . S
O471 Gd431 2.468 . S
O471 C495 1.263 . S
O472 Gd431 2.427 . S
O472 C495 1.252 . S
O473 Gd430 2.307 . S
O473 C488 1.261 . S
O474 Gd431 2.388 . S
O474 C488 1.252 . S
C475 O463 1.265 . S
C475 O464 1.242 . S
C476 O467 1.261 . S
C476 O468 1.252 . S
C477 C480 1.394 . S
C477 C482 1.370 . S
C477 C483 1.500 . S
C478 C481 1.383 . S
C478 C482 1.395 . S
C479 C480 1.396 . S
C479 C481 1.365 . S
C479 H496 0.929 . S
C480 C477 1.394 . S
C480 C479 1.396 . S
C480 H497 0.930 . S
C481 C478 1.383 . S
C481 C479 1.365 . S
C481 H498 0.931 . S
C482 C477 1.370 . S
C482 C478 1.395 . S
C482 H499 0.930 . S
C483 Gd430 2.805 . S
C483 O465 1.263 . S
C483 O466 1.252 . S
C483 C477 1.500 . S
C484 H446 0.930 . S
C484 C460 1.417 1_565 S
C484 C485 1.332 . S
C485 C455 1.425 1_565 S
C485 H456 0.940 . S
C485 C484 1.332 . S
H486 C459 0.931 1_565 S
C487 O469 1.265 . S
C487 O470 1.242 . S
C488 O473 1.261 . S
C488 O474 1.252 . S
C489 C492 1.394 . S
C489 C494 1.370 . S
C489 C495 1.500 1_455 S
C490 C493 1.383 . S
C490 C494 1.395 . S
C491 C492 1.396 . S
C491 C493 1.365 . S
C491 H500 0.929 . S
C492 C489 1.394 . S
C492 C491 1.396 . S
C492 H501 0.930 . S
C493 C490 1.383 . S
C493 C491 1.365 . S
C493 H502 0.931 . S
C494 C489 1.370 . S
C494 C490 1.395 . S
C494 H503 0.930 . S
C495 Gd431 2.805 . S
C495 O471 1.263 . S
C495 O472 1.252 . S
C495 C489 1.500 1_655 S
H496 C479 0.929 . S
H497 C480 0.930 . S
H498 C481 0.931 . S
H499 C482 0.930 . S
H500 C491 0.929 . S
H501 C492 0.930 . S
H502 C493 0.931 . S
H503 C494 0.930 . S
C504 C506 1.422 . S
C504 C508 1.415 . S
C504 N510 1.369 . S
C505 C506 1.421 . S
C505 C507 1.417 1_455 S
C505 C517 1.422 1_455 S
C506 C504 1.422 . S
C506 C505 1.421 . S
C506 N516 1.359 . S
C507 C505 1.417 1_655 S
C507 C509 1.329 1_655 S
C507 H526 0.930 . S
C508 C504 1.415 . S
C508 C509 1.437 . S
C508 C512 1.413 . S
C509 C507 1.329 1_455 S
C509 C508 1.437 . S
C509 H531 0.920 1_455 S
N510 C504 1.369 . S
N510 C511 1.338 . S
N510 Gd515 2.622 . S
C511 N510 1.338 . S
C511 C513 1.378 . S
C511 H523 0.929 . S
C512 C508 1.413 . S
C512 C513 1.348 . S
C512 H528 0.931 . S
C513 C511 1.378 . S
C513 C512 1.348 . S
C513 H529 0.930 . S
Gd514 N534 2.622 . S
Gd514 N541 2.570 . S
Gd514 O548 2.353 . S
Gd514 O549 2.468 . S
Gd514 O550 2.427 . S
Gd514 O552 2.388 . S
Gd514 O553 2.386 . S
Gd514 O557 2.307 . S
Gd514 C567 2.805 . S
Gd515 N510 2.622 . S
Gd515 N516 2.570 . S
Gd515 O547 2.386 . S
Gd515 O551 2.307 . S
Gd515 O554 2.353 . S
Gd515 O555 2.468 . S
Gd515 O556 2.427 . S
Gd515 O558 2.388 . S
Gd515 C579 2.805 . S
N516 C506 1.359 . S
N516 Gd515 2.570 . S
N516 C518 1.343 . S
C517 C505 1.422 1_655 S
C517 C519 1.321 1_655 S
C517 H525 0.931 . S
C518 N516 1.343 . S
C518 C519 1.390 . S
C518 H520 0.931 . S
C519 C517 1.321 1_455 S
C519 C518 1.390 . S
C519 H521 0.932 . S
H520 C518 0.931 . S
H521 C519 0.932 . S
H522 C545 0.931 . S
H523 C511 0.929 . S
H524 C546 0.930 . S
H525 C517 0.931 . S
H526 C507 0.930 . S
H527 C536 0.929 . S
H528 C512 0.931 . S
H529 C513 0.930 . S
H530 C568 0.930 . S
H531 C509 0.920 1_655 S
H532 C537 0.931 . S
H533 C538 0.930 . S
N534 Gd514 2.622 . S
N534 C535 1.369 . S
N534 C536 1.338 . S
C535 N534 1.369 . S
C535 C539 1.415 . S
C535 C542 1.422 . S
C536 H527 0.929 . S
C536 N534 1.338 . S
C536 C538 1.378 . S
C537 H532 0.931 . S
C537 C538 1.348 . S
C537 C539 1.413 . S
C538 H533 0.930 . S
C538 C536 1.378 . S
C538 C537 1.348 . S
C539 C535 1.415 . S
C539 C537 1.413 . S
C539 C569 1.437 . S
H540 C569 0.929 . S
N541 Gd514 2.570 . S
N541 C542 1.359 . S
N541 C545 1.343 . S
C542 C535 1.422 . S
C542 N541 1.359 . S
C542 C544 1.421 . S
C543 C544 1.422 . S
C543 C546 1.321 . S
C543 H570 0.931 . S
C544 C542 1.421 . S
C544 C543 1.422 . S
C544 C568 1.417 . S
C545 H522 0.931 . S
C545 N541 1.343 . S
C545 C546 1.390 . S
C546 H524 0.930 . S
C546 C543 1.321 . S
C546 C545 1.390 . S
O547 Gd515 2.386 . S
O547 C559 1.265 . S
O548 Gd514 2.353 . S
O548 C559 1.242 . S
O549 Gd514 2.468 . S
O549 C567 1.263 . S
O550 Gd514 2.427 . S
O550 C567 1.252 . S
O551 Gd515 2.307 . S
O551 C560 1.261 . S
O552 Gd514 2.388 . S
O552 C560 1.252 . S
O553 Gd514 2.386 . S
O553 C571 1.265 . S
O554 Gd515 2.353 . S
O554 C571 1.242 . S
O555 Gd515 2.468 . S
O555 C579 1.263 . S
O556 Gd515 2.427 . S
O556 C579 1.252 . S
O557 Gd514 2.307 . S
O557 C572 1.261 . S
O558 Gd515 2.388 . S
O558 C572 1.252 . S
C559 O547 1.265 . S
C559 O548 1.242 . S
C560 O551 1.261 . S
C560 O552 1.252 . S
C561 C564 1.394 . S
C561 C566 1.370 . S
C561 C567 1.500 . S
C562 C565 1.383 . S
C562 C566 1.395 . S
C563 C564 1.396 . S
C563 C565 1.365 . S
C563 H580 0.929 . S
C564 C561 1.394 . S
C564 C563 1.396 . S
C564 H581 0.930 . S
C565 C562 1.383 . S
C565 C563 1.365 . S
C565 H582 0.931 . S
C566 C561 1.370 . S
C566 C562 1.395 . S
C566 H583 0.930 . S
C567 Gd514 2.805 . S
C567 O549 1.263 . S
C567 O550 1.252 . S
C567 C561 1.500 . S
C568 H530 0.930 . S
C568 C544 1.417 . S
C568 C569 1.329 . S
C569 C539 1.437 . S
C569 H540 0.929 . S
C569 C568 1.329 . S
H570 C543 0.931 . S
C571 O553 1.265 . S
C571 O554 1.242 . S
C572 O557 1.261 . S
C572 O558 1.252 . S
C573 C576 1.394 . S
C573 C578 1.370 . S
C573 C579 1.500 1_655 S
C574 C577 1.383 . S
C574 C578 1.395 . S
C575 C576 1.396 . S
C575 C577 1.365 . S
C575 H584 0.929 . S
C576 C573 1.394 . S
C576 C575 1.396 . S
C576 H585 0.930 . S
C577 C574 1.383 . S
C577 C575 1.365 . S
C577 H586 0.931 . S
C578 C573 1.370 . S
C578 C574 1.395 . S
C578 H587 0.930 . S
C579 Gd515 2.805 . S
C579 O555 1.263 . S
C579 O556 1.252 . S
C579 C573 1.500 1_455 S
H580 C563 0.929 . S
H581 C564 0.930 . S
H582 C565 0.931 . S
H583 C566 0.930 . S
H584 C575 0.929 . S
H585 C576 0.930 . S
H586 C577 0.931 . S
H587 C578 0.930 . S
C588 C590 1.422 . S
C588 C592 1.415 . S
C588 N594 1.369 . S
C589 C590 1.421 . S
C589 C591 1.417 1_455 S
C589 C601 1.422 . S
C590 C588 1.422 . S
C590 C589 1.421 . S
C590 N600 1.359 . S
C591 C589 1.417 1_655 S
C591 C593 1.332 . S
C591 H610 0.930 . S
C592 C588 1.415 . S
C592 C593 1.425 1_455 S
C592 C596 1.413 . S
C593 C591 1.332 . S
C593 C592 1.425 1_655 S
C593 H615 0.940 . S
N594 C588 1.369 . S
N594 C595 1.338 . S
N594 Gd599 2.622 . S
C595 N594 1.338 . S
C595 C597 1.378 . S
C595 H607 0.929 . S
C596 C592 1.413 . S
C596 C597 1.348 . S
C596 H612 0.931 . S
C597 C595 1.378 . S
C597 C596 1.348 . S
C597 H613 0.930 1_556 S
Gd598 N618 2.622 . S
Gd598 N625 2.570 . S
Gd598 O632 2.353 . S
Gd598 O633 2.468 . S
Gd598 O634 2.427 . S
Gd598 O636 2.388 . S
Gd598 O637 2.386 . S
Gd598 O641 2.307 . S
Gd598 C651 2.805 . S
Gd599 N594 2.622 . S
Gd599 N600 2.570 . S
Gd599 O631 2.386 . S
Gd599 O635 2.307 . S
Gd599 O638 2.353 . S
Gd599 O639 2.468 . S
Gd599 O640 2.427 . S
Gd599 O642 2.388 . S
Gd599 C663 2.805 . S
N600 C590 1.359 . S
N600 Gd599 2.570 . S
N600 C602 1.343 . S
C601 C589 1.422 . S
C601 C603 1.321 . S
C601 H609 0.931 1_455 S
C602 N600 1.343 . S
C602 C603 1.390 . S
C602 H604 0.931 . S
C603 C601 1.321 . S
C603 C602 1.390 . S
C603 H605 0.930 . S
H604 C602 0.931 . S
H605 C603 0.930 . S
H606 C629 0.931 . S
H607 C595 0.929 . S
H608 C630 0.931 . S
H609 C601 0.931 1_655 S
H610 C591 0.930 . S
H611 C620 0.929 . S
H612 C596 0.931 . S
H613 C597 0.930 1_554 S
H614 C652 0.930 . S
H615 C593 0.940 . S
H616 C621 0.931 . S
H617 C622 0.930 . S
N618 Gd598 2.622 . S
N618 C619 1.369 . S
N618 C620 1.338 . S
C619 N618 1.369 . S
C619 C623 1.415 . S
C619 C626 1.422 . S
C620 H611 0.929 . S
C620 N618 1.338 . S
C620 C622 1.378 . S
C621 H616 0.931 . S
C621 C622 1.348 . S
C621 C623 1.413 . S
C622 H617 0.930 . S
C622 C620 1.378 . S
C622 C621 1.348 . S
C623 C619 1.415 . S
C623 C621 1.413 . S
C623 C653 1.437 . S
H624 C653 0.930 1_545 S
N625 Gd598 2.570 . S
N625 C626 1.359 . S
N625 C629 1.343 . S
C626 C619 1.422 . S
C626 N625 1.359 . S
C626 C628 1.421 . S
C627 C628 1.422 1_545 S
C627 C630 1.321 1_545 S
C627 H654 0.931 . S
C628 C626 1.421 . S
C628 C627 1.422 1_565 S
C628 C652 1.417 1_565 S
C629 H606 0.931 . S
C629 N625 1.343 . S
C629 C630 1.390 . S
C630 H608 0.931 . S
C630 C627 1.321 1_565 S
C630 C629 1.390 . S
O631 Gd599 2.386 . S
O631 C643 1.265 . S
O632 Gd598 2.353 . S
O632 C643 1.242 . S
O633 Gd598 2.468 . S
O633 C651 1.263 . S
O634 Gd598 2.427 . S
O634 C651 1.252 . S
O635 Gd599 2.307 . S
O635 C644 1.261 . S
O636 Gd598 2.388 . S
O636 C644 1.252 . S
O637 Gd598 2.386 . S
O637 C655 1.265 . S
O638 Gd599 2.353 . S
O638 C655 1.242 . S
O639 Gd599 2.468 . S
O639 C663 1.263 . S
O640 Gd599 2.427 . S
O640 C663 1.252 . S
O641 Gd598 2.307 . S
O641 C656 1.261 . S
O642 Gd599 2.388 . S
O642 C656 1.252 . S
C643 O631 1.265 . S
C643 O632 1.242 . S
C644 O635 1.261 . S
C644 O636 1.252 . S
C645 C648 1.394 . S
C645 C650 1.370 . S
C645 C651 1.500 1_545 S
C646 C649 1.383 . S
C646 C650 1.395 . S
C647 C648 1.396 . S
C647 C649 1.365 . S
C647 H664 0.929 . S
C648 C645 1.394 . S
C648 C647 1.396 . S
C648 H665 0.930 . S
C649 C646 1.383 . S
C649 C647 1.365 . S
C649 H666 0.931 . S
C650 C645 1.370 . S
C650 C646 1.395 . S
C650 H667 0.930 . S
C651 Gd598 2.805 . S
C651 O633 1.263 . S
C651 O634 1.252 . S
C651 C645 1.500 1_565 S
C652 H614 0.930 . S
C652 C628 1.417 1_545 S
C652 C653 1.329 1_545 S
C653 C623 1.437 . S
C653 H624 0.930 1_565 S
C653 C652 1.329 1_565 S
H654 C627 0.931 . S
C655 O637 1.265 . S
C655 O638 1.242 . S
C656 O641 1.261 . S
C656 O642 1.252 . S
C657 C660 1.394 . S
C657 C662 1.370 . S
C657 C663 1.500 . S
C658 C661 1.383 . S
C658 C662 1.395 . S
C659 C660 1.396 . S
C659 C661 1.365 . S
C659 H668 0.929 . S
C660 C657 1.394 . S
C660 C659 1.396 . S
C660 H669 0.930 . S
C661 C658 1.383 . S
C661 C659 1.365 . S
C661 H670 0.931 . S
C662 C657 1.370 . S
C662 C658 1.395 . S
C662 H671 0.930 . S
C663 Gd599 2.805 . S
C663 O639 1.263 . S
C663 O640 1.252 . S
C663 C657 1.500 . S
H664 C647 0.929 . S
H665 C648 0.930 . S
H666 C649 0.931 . S
H667 C650 0.930 . S
H668 C659 0.929 . S
H669 C660 0.930 . S
H670 C661 0.931 . S
H671 C662 0.930 . S
C672 C674 1.422 . S
C672 C676 1.415 . S
C672 N678 1.369 . S
C673 C674 1.421 . S
C673 C675 1.417 . S
C673 C685 1.422 . S
C674 C672 1.422 . S
C674 C673 1.421 . S
C674 N684 1.359 . S
C675 C673 1.417 . S
C675 C677 1.329 . S
C675 H694 0.930 . S
C676 C672 1.415 . S
C676 C677 1.437 . S
C676 C680 1.413 . S
C677 C675 1.329 . S
C677 C676 1.437 . S
C677 H699 0.929 . S
N678 C672 1.369 . S
N678 C679 1.338 . S
N678 Gd683 2.622 . S
C679 N678 1.338 . S
C679 C681 1.378 . S
C679 H691 0.929 . S
C680 C676 1.413 . S
C680 C681 1.348 . S
C680 H696 0.931 . S
C681 C679 1.378 . S
C681 C680 1.348 . S
C681 H697 0.930 . S
Gd682 N702 2.622 . S
Gd682 N709 2.570 . S
Gd682 O716 2.353 . S
Gd682 O717 2.468 . S
Gd682 O718 2.427 . S
Gd682 O720 2.388 . S
Gd682 O721 2.386 . S
Gd682 O725 2.307 . S
Gd682 C735 2.805 . S
Gd683 N678 2.622 . S
Gd683 N684 2.570 . S
Gd683 O715 2.386 . S
Gd683 O719 2.307 . S
Gd683 O722 2.353 . S
Gd683 O723 2.468 . S
Gd683 O724 2.427 . S
Gd683 O726 2.388 . S
Gd683 C747 2.805 . S
N684 C674 1.359 . S
N684 Gd683 2.570 . S
N684 C686 1.343 . S
C685 C673 1.422 . S
C685 C687 1.321 . S
C685 H693 0.931 . S
C686 N684 1.343 . S
C686 C687 1.390 . S
C686 H688 0.931 . S
C687 C685 1.321 . S
C687 C686 1.390 . S
C687 H689 0.930 . S
H688 C686 0.931 . S
H689 C687 0.930 . S
H690 C713 0.931 . S
H691 C679 0.929 . S
H692 C714 0.930 . S
H693 C685 0.931 . S
H694 C675 0.930 . S
H695 C704 0.929 . S
H696 C680 0.931 . S
H697 C681 0.930 . S
H698 C736 0.930 . S
H699 C677 0.929 . S
H700 C705 0.931 . S
H701 C706 0.930 . S
N702 Gd682 2.622 . S
N702 C703 1.369 . S
N702 C704 1.338 . S
C703 N702 1.369 . S
C703 C707 1.415 . S
C703 C710 1.422 . S
C704 H695 0.929 . S
C704 N702 1.338 . S
C704 C706 1.378 . S
C705 H700 0.931 . S
C705 C706 1.348 . S
C705 C707 1.413 . S
C706 H701 0.930 . S
C706 C704 1.378 . S
C706 C705 1.348 . S
C707 C703 1.415 . S
C707 C705 1.413 . S
C707 C737 1.422 1_565 S
H708 C737 0.939 . S
N709 Gd682 2.570 . S
N709 C710 1.359 . S
N709 C713 1.343 . S
C710 C703 1.422 . S
C710 N709 1.359 . S
C710 C712 1.421 . S
C711 C712 1.422 . S
C711 C714 1.321 . S
C711 H738 0.931 1_565 S
C712 C710 1.421 . S
C712 C711 1.422 . S
C712 C736 1.417 1_565 S
C713 H690 0.931 . S
C713 N709 1.343 . S
C713 C714 1.390 . S
C714 H692 0.930 . S
C714 C711 1.321 . S
C714 C713 1.390 . S
O715 Gd683 2.386 . S
O715 C727 1.265 . S
O716 Gd682 2.353 . S
O716 C727 1.242 . S
O717 Gd682 2.468 . S
O717 C735 1.263 . S
O718 Gd682 2.427 . S
O718 C735 1.252 . S
O719 Gd683 2.307 . S
O719 C728 1.261 . S
O720 Gd682 2.388 . S
O720 C728 1.252 . S
O721 Gd682 2.386 . S
O721 C739 1.265 . S
O722 Gd683 2.353 . S
O722 C739 1.242 . S
O723 Gd683 2.468 . S
O723 C747 1.263 . S
O724 Gd683 2.427 . S
O724 C747 1.252 . S
O725 Gd682 2.307 . S
O725 C740 1.261 . S
O726 Gd683 2.388 . S
O726 C740 1.252 . S
C727 O715 1.265 . S
C727 O716 1.242 . S
C728 O719 1.261 . S
C728 O720 1.252 . S
C729 C732 1.394 . S
C729 C734 1.370 . S
C729 C735 1.500 . S
C730 C733 1.383 . S
C730 C734 1.395 . S
C731 C732 1.396 . S
C731 C733 1.365 . S
C731 H748 0.929 . S
C732 C729 1.394 . S
C732 C731 1.396 . S
C732 H749 0.930 . S
C733 C730 1.383 . S
C733 C731 1.365 . S
C733 H750 0.931 . S
C734 C729 1.370 . S
C734 C730 1.395 . S
C734 H751 0.930 . S
C735 Gd682 2.805 . S
C735 O717 1.263 . S
C735 O718 1.252 . S
C735 C729 1.500 . S
C736 H698 0.930 . S
C736 C712 1.417 1_545 S
C736 C737 1.335 . S
C737 C707 1.422 1_545 S
C737 H708 0.939 . S
C737 C736 1.335 . S
H738 C711 0.931 1_545 S
C739 O721 1.265 . S
C739 O722 1.242 . S
C740 O725 1.261 . S
C740 O726 1.252 . S
C741 C744 1.394 . S
C741 C746 1.370 . S
C741 C747 1.500 . S
C742 C745 1.383 . S
C742 C746 1.395 . S
C743 C744 1.396 . S
C743 C745 1.365 . S
C743 H752 0.929 . S
C744 C741 1.394 . S
C744 C743 1.396 . S
C744 H753 0.930 . S
C745 C742 1.383 . S
C745 C743 1.365 . S
C745 H754 0.931 . S
C746 C741 1.370 . S
C746 C742 1.395 . S
C746 H755 0.930 . S
C747 Gd683 2.805 . S
C747 O723 1.263 . S
C747 O724 1.252 . S
C747 C741 1.500 . S
H748 C731 0.929 . S
H749 C732 0.930 . S
H750 C733 0.931 . S
H751 C734 0.930 . S
H752 C743 0.929 . S
H753 C744 0.930 . S
H754 C745 0.931 . S
H755 C746 0.930 . S
C756 C758 1.422 . S
C756 C760 1.415 . S
C756 N762 1.369 . S
C757 C758 1.421 . S
C757 C759 1.417 . S
C757 C769 1.422 . S
C758 C756 1.422 . S
C758 C757 1.421 . S
C758 N768 1.359 . S
C759 C757 1.417 . S
C759 C761 1.329 . S
C759 H778 0.930 . S
C760 C756 1.415 . S
C760 C761 1.437 . S
C760 C764 1.413 . S
C761 C759 1.329 . S
C761 C760 1.437 . S
C761 H783 0.929 . S
N762 C756 1.369 . S
N762 C763 1.338 . S
N762 Gd767 2.622 . S
C763 N762 1.338 . S
C763 C765 1.378 . S
C763 H775 0.929 . S
C764 C760 1.413 . S
C764 C765 1.348 . S
C764 H780 0.931 . S
C765 C763 1.378 . S
C765 C764 1.348 . S
C765 H781 0.930 1_556 S
Gd766 N786 2.622 . S
Gd766 N793 2.570 . S
Gd766 O800 2.353 . S
Gd766 O801 2.468 . S
Gd766 O802 2.427 . S
Gd766 O804 2.388 . S
Gd766 O805 2.386 . S
Gd766 O809 2.307 . S
Gd766 C819 2.805 . S
Gd767 N762 2.622 . S
Gd767 N768 2.570 . S
Gd767 O799 2.386 . S
Gd767 O803 2.307 . S
Gd767 O806 2.353 . S
Gd767 O807 2.468 . S
Gd767 O808 2.427 . S
Gd767 O810 2.388 . S
Gd767 C831 2.805 . S
N768 C758 1.359 . S
N768 Gd767 2.570 . S
N768 C770 1.343 . S
C769 C757 1.422 . S
C769 C771 1.321 . S
C769 H777 0.931 . S
C770 N768 1.343 . S
C770 C771 1.390 . S
C770 H772 0.931 . S
C771 C769 1.321 . S
C771 C770 1.390 . S
C771 H773 0.930 . S
H772 C770 0.931 . S
H773 C771 0.930 . S
H774 C797 0.931 . S
H775 C763 0.929 . S
H776 C798 0.932 . S
H777 C769 0.931 . S
H778 C759 0.930 . S
H779 C788 0.929 . S
H780 C764 0.931 . S
H781 C765 0.930 1_554 S
H782 C820 0.930 . S
H783 C761 0.929 . S
H784 C789 0.931 . S
H785 C790 0.930 . S
N786 Gd766 2.622 . S
N786 C787 1.369 . S
N786 C788 1.338 . S
C787 N786 1.369 . S
C787 C791 1.415 . S
C787 C794 1.422 . S
C788 H779 0.929 . S
C788 N786 1.338 . S
C788 C790 1.378 . S
C789 H784 0.931 . S
C789 C790 1.348 . S
C789 C791 1.413 . S
C790 H785 0.930 . S
C790 C788 1.378 . S
C790 C789 1.348 . S
C791 C787 1.415 . S
C791 C789 1.413 . S
C791 C821 1.437 . S
H792 C821 0.920 1_655 S
N793 Gd766 2.570 . S
N793 C794 1.359 . S
N793 C797 1.343 . S
C794 C787 1.422 . S
C794 N793 1.359 . S
C794 C796 1.421 . S
C795 C796 1.422 1_655 S
C795 C798 1.321 1_655 S
C795 H822 0.931 . S
C796 C794 1.421 . S
C796 C795 1.422 1_455 S
C796 C820 1.417 1_455 S
C797 H774 0.931 . S
C797 N793 1.343 . S
C797 C798 1.390 . S
C798 H776 0.932 . S
C798 C795 1.321 1_455 S
C798 C797 1.390 . S
O799 Gd767 2.386 . S
O799 C811 1.265 . S
O800 Gd766 2.353 . S
O800 C811 1.242 . S
O801 Gd766 2.468 . S
O801 C819 1.263 . S
O802 Gd766 2.427 . S
O802 C819 1.252 . S
O803 Gd767 2.307 . S
O803 C812 1.261 . S
O804 Gd766 2.388 . S
O804 C812 1.252 . S
O805 Gd766 2.386 . S
O805 C823 1.265 . S
O806 Gd767 2.353 . S
O806 C823 1.242 . S
O807 Gd767 2.468 . S
O807 C831 1.263 . S
O808 Gd767 2.427 . S
O808 C831 1.252 . S
O809 Gd766 2.307 . S
O809 C824 1.261 . S
O810 Gd767 2.388 . S
O810 C824 1.252 . S
C811 O799 1.265 . S
C811 O800 1.242 . S
C812 O803 1.261 . S
C812 O804 1.252 . S
C813 C816 1.394 . S
C813 C818 1.370 . S
C813 C819 1.500 1_655 S
C814 C817 1.383 . S
C814 C818 1.395 . S
C815 C816 1.396 . S
C815 C817 1.365 . S
C815 H832 0.929 . S
C816 C813 1.394 . S
C816 C815 1.396 . S
C816 H833 0.930 . S
C817 C814 1.383 . S
C817 C815 1.365 . S
C817 H834 0.931 . S
C818 C813 1.370 . S
C818 C814 1.395 . S
C818 H835 0.930 . S
C819 Gd766 2.805 . S
C819 O801 1.263 . S
C819 O802 1.252 . S
C819 C813 1.500 1_455 S
C820 H782 0.930 . S
C820 C796 1.417 1_655 S
C820 C821 1.329 1_655 S
C821 C791 1.437 . S
C821 H792 0.920 1_455 S
C821 C820 1.329 1_455 S
H822 C795 0.931 . S
C823 O805 1.265 . S
C823 O806 1.242 . S
C824 O809 1.261 . S
C824 O810 1.252 . S
C825 C828 1.394 . S
C825 C830 1.370 . S
C825 C831 1.500 . S
C826 C829 1.383 . S
C826 C830 1.395 . S
C827 C828 1.396 . S
C827 C829 1.365 . S
C827 H836 0.929 . S
C828 C825 1.394 . S
C828 C827 1.396 . S
C828 H837 0.930 . S
C829 C826 1.383 . S
C829 C827 1.365 . S
C829 H838 0.931 . S
C830 C825 1.370 . S
C830 C826 1.395 . S
C830 H839 0.930 . S
C831 Gd767 2.805 . S
C831 O807 1.263 . S
C831 O808 1.252 . S
C831 C825 1.500 . S
H832 C815 0.929 . S
H833 C816 0.930 . S
H834 C817 0.931 . S
H835 C818 0.930 . S
H836 C827 0.929 . S
H837 C828 0.930 . S
H838 C829 0.931 . S
H839 C830 0.930 . S
C840 C842 1.422 . S
C840 C844 1.415 . S
C840 N846 1.369 . S
C841 C842 1.421 . S
C841 C843 1.417 1_565 S
C841 C853 1.422 1_565 S
C842 C840 1.422 . S
C842 C841 1.421 . S
C842 N852 1.359 . S
C843 C841 1.417 1_545 S
C843 C845 1.329 1_545 S
C843 H862 0.930 . S
C844 C840 1.415 . S
C844 C845 1.437 . S
C844 C848 1.413 . S
C845 C843 1.329 1_565 S
C845 C844 1.437 . S
C845 H867 0.930 1_565 S
N846 C840 1.369 . S
N846 C847 1.338 . S
N846 Gd851 2.622 . S
C847 N846 1.338 . S
C847 C849 1.378 . S
C847 H859 0.929 . S
C848 C844 1.413 . S
C848 C849 1.348 . S
C848 H864 0.931 . S
C849 C847 1.378 . S
C849 C848 1.348 . S
C849 H865 0.930 . S
Gd850 N870 2.622 . S
Gd850 N877 2.570 . S
Gd850 O884 2.353 . S
Gd850 O885 2.468 . S
Gd850 O886 2.427 . S
Gd850 O888 2.388 . S
Gd850 O889 2.386 . S
Gd850 O893 2.307 . S
Gd850 C903 2.805 . S
Gd851 N846 2.622 . S
Gd851 N852 2.570 . S
Gd851 O883 2.386 . S
Gd851 O887 2.307 . S
Gd851 O890 2.353 . S
Gd851 O891 2.468 . S
Gd851 O892 2.427 . S
Gd851 O894 2.388 . S
Gd851 C915 2.805 . S
N852 C842 1.359 . S
N852 Gd851 2.570 . S
N852 C854 1.343 . S
C853 C841 1.422 1_545 S
C853 C855 1.321 1_545 S
C853 H861 0.931 . S
C854 N852 1.343 . S
C854 C855 1.390 . S
C854 H856 0.931 . S
C855 C853 1.321 1_565 S
C855 C854 1.390 . S
C855 H857 0.931 . S
H856 C854 0.931 . S
H857 C855 0.931 . S
H858 C881 0.931 . S
H859 C847 0.929 . S
H860 C882 0.930 . S
H861 C853 0.931 . S
H862 C843 0.930 . S
H863 C872 0.929 . S
H864 C848 0.931 . S
H865 C849 0.930 . S
H866 C904 0.930 . S
H867 C845 0.930 1_545 S
H868 C873 0.931 . S
H869 C874 0.930 . S
N870 Gd850 2.622 . S
N870 C871 1.369 . S
N870 C872 1.338 . S
C871 N870 1.369 . S
C871 C875 1.415 . S
C871 C878 1.422 . S
C872 H863 0.929 . S
C872 N870 1.338 . S
C872 C874 1.378 . S
C873 H868 0.931 . S
C873 C874 1.348 . S
C873 C875 1.413 . S
C874 H869 0.930 . S
C874 C872 1.378 . S
C874 C873 1.348 . S
C875 C871 1.415 . S
C875 C873 1.413 . S
C875 C905 1.425 1_455 S
H876 C905 0.940 . S
N877 Gd850 2.570 . S
N877 C878 1.359 . S
N877 C881 1.343 . S
C878 C871 1.422 . S
C878 N877 1.359 . S
C878 C880 1.421 . S
C879 C880 1.422 . S
C879 C882 1.321 . S
C879 H906 0.931 1_455 S
C880 C878 1.421 . S
C880 C879 1.422 . S
C880 C904 1.417 1_455 S
C881 H858 0.931 . S
C881 N877 1.343 . S
C881 C882 1.390 . S
C882 H860 0.930 . S
C882 C879 1.321 . S
C882 C881 1.390 . S
O883 Gd851 2.386 . S
O883 C895 1.265 . S
O884 Gd850 2.353 . S
O884 C895 1.242 . S
O885 Gd850 2.468 . S
O885 C903 1.263 . S
O886 Gd850 2.427 . S
O886 C903 1.252 . S
O887 Gd851 2.307 . S
O887 C896 1.261 . S
O888 Gd850 2.388 . S
O888 C896 1.252 . S
O889 Gd850 2.386 . S
O889 C907 1.265 . S
O890 Gd851 2.353 . S
O890 C907 1.242 . S
O891 Gd851 2.468 . S
O891 C915 1.263 . S
O892 Gd851 2.427 . S
O892 C915 1.252 . S
O893 Gd850 2.307 . S
O893 C908 1.261 . S
O894 Gd851 2.388 . S
O894 C908 1.252 . S
C895 O883 1.265 . S
C895 O884 1.242 . S
C896 O887 1.261 . S
C896 O888 1.252 . S
C897 C900 1.394 . S
C897 C902 1.370 . S
C897 C903 1.500 . S
C898 C901 1.383 . S
C898 C902 1.395 . S
C899 C900 1.396 . S
C899 C901 1.365 . S
C899 H916 0.929 . S
C900 C897 1.394 . S
C900 C899 1.396 . S
C900 H917 0.930 . S
C901 C898 1.383 . S
C901 C899 1.365 . S
C901 H918 0.931 . S
C902 C897 1.370 . S
C902 C898 1.395 . S
C902 H919 0.930 . S
C903 Gd850 2.805 . S
C903 O885 1.263 . S
C903 O886 1.252 . S
C903 C897 1.500 . S
C904 H866 0.930 . S
C904 C880 1.417 1_655 S
C904 C905 1.332 . S
C905 C875 1.425 1_655 S
C905 H876 0.940 . S
C905 C904 1.332 . S
H906 C879 0.931 1_655 S
C907 O889 1.265 . S
C907 O890 1.242 . S
C908 O893 1.261 . S
C908 O894 1.252 . S
C909 C912 1.394 . S
C909 C914 1.370 . S
C909 C915 1.500 1_545 S
C910 C913 1.383 . S
C910 C914 1.395 . S
C911 C912 1.396 . S
C911 C913 1.365 . S
C911 H920 0.929 . S
C912 C909 1.394 . S
C912 C911 1.396 . S
C912 H921 0.930 . S
C913 C910 1.383 . S
C913 C911 1.365 . S
C913 H922 0.931 . S
C914 C909 1.370 . S
C914 C910 1.395 . S
C914 H923 0.930 . S
C915 Gd851 2.805 . S
C915 O891 1.263 . S
C915 O892 1.252 . S
C915 C909 1.500 1_565 S
H916 C899 0.929 . S
H917 C900 0.930 . S
H918 C901 0.931 . S
H919 C902 0.930 . S
H920 C911 0.929 . S
H921 C912 0.930 . S
H922 C913 0.931 . S
H923 C914 0.930 . S
C924 C926 1.422 . S
C924 C928 1.415 . S
C924 N930 1.369 . S
C925 C926 1.421 . S
C925 C927 1.417 1_565 S
C925 C937 1.422 . S
C926 C924 1.422 . S
C926 C925 1.421 . S
C926 N936 1.359 . S
C927 C925 1.417 1_545 S
C927 C929 1.335 . S
C927 H946 0.930 . S
C928 C924 1.415 . S
C928 C929 1.422 1_565 S
C928 C932 1.413 . S
C929 C927 1.335 . S
C929 C928 1.422 1_545 S
C929 H951 0.939 . S
N930 C924 1.369 . S
N930 C931 1.338 . S
N930 Gd935 2.622 . S
C931 N930 1.338 . S
C931 C933 1.378 . S
C931 H943 0.929 . S
C932 C928 1.413 . S
C932 C933 1.348 . S
C932 H948 0.931 . S
C933 C931 1.378 . S
C933 C932 1.348 . S
C933 H949 0.930 1_556 S
Gd934 N954 2.622 . S
Gd934 N961 2.570 . S
Gd934 O968 2.353 . S
Gd934 O969 2.468 . S
Gd934 O970 2.427 . S
Gd934 O972 2.388 . S
Gd934 O973 2.386 . S
Gd934 O977 2.307 . S
Gd934 C987 2.805 . S
Gd935 N930 2.622 . S
Gd935 N936 2.570 . S
Gd935 O967 2.386 . S
Gd935 O971 2.307 . S
Gd935 O974 2.353 . S
Gd935 O975 2.468 . S
Gd935 O976 2.427 . S
Gd935 O978 2.388 . S
Gd935 C999 2.805 . S
N936 C926 1.359 . S
N936 Gd935 2.570 . S
N936 C938 1.343 . S
C937 C925 1.422 . S
C937 C939 1.321 . S
C937 H945 0.931 1_565 S
C938 N936 1.343 . S
C938 C939 1.390 . S
C938 H940 0.931 . S
C939 C937 1.321 . S
C939 C938 1.390 . S
C939 H941 0.930 . S
H940 C938 0.931 . S
H941 C939 0.930 . S
H942 C965 0.931 . S
H943 C931 0.929 . S
H944 C966 0.930 . S
H945 C937 0.931 1_545 S
H946 C927 0.930 . S
H947 C956 0.929 . S
H948 C932 0.931 . S
H949 C933 0.930 1_554 S
H950 C988 0.930 . S
H951 C929 0.939 . S
H952 C957 0.931 . S
H953 C958 0.930 . S
N954 Gd934 2.622 . S
N954 C955 1.369 . S
N954 C956 1.338 . S
C955 N954 1.369 . S
C955 C959 1.415 . S
C955 C962 1.422 . S
C956 H947 0.929 . S
C956 N954 1.338 . S
C956 C958 1.378 . S
C957 H952 0.931 . S
C957 C958 1.348 . S
C957 C959 1.413 . S
C958 H953 0.930 . S
C958 C956 1.378 . S
C958 C957 1.348 . S
C959 C955 1.415 . S
C959 C957 1.413 . S
C959 C989 1.437 . S
H960 C989 0.929 . S
N961 Gd934 2.570 . S
N961 C962 1.359 . S
N961 C965 1.343 . S
C962 C955 1.422 . S
C962 N961 1.359 . S
C962 C964 1.421 . S
C963 C964 1.422 . S
C963 C966 1.321 . S
C963 H990 0.931 . S
C964 C962 1.421 . S
C964 C963 1.422 . S
C964 C988 1.417 . S
C965 H942 0.931 . S
C965 N961 1.343 . S
C965 C966 1.390 . S
C966 H944 0.930 . S
C966 C963 1.321 . S
C966 C965 1.390 . S
O967 Gd935 2.386 . S
O967 C979 1.265 . S
O968 Gd934 2.353 . S
O968 C979 1.242 . S
O969 Gd934 2.468 . S
O969 C987 1.263 . S
O970 Gd934 2.427 . S
O970 C987 1.252 . S
O971 Gd935 2.307 . S
O971 C980 1.261 . S
O972 Gd934 2.388 . S
O972 C980 1.252 . S
O973 Gd934 2.386 . S
O973 C991 1.265 . S
O974 Gd935 2.353 . S
O974 C991 1.242 . S
O975 Gd935 2.468 . S
O975 C999 1.263 . S
O976 Gd935 2.427 . S
O976 C999 1.252 . S
O977 Gd934 2.307 . S
O977 C992 1.261 . S
O978 Gd935 2.388 . S
O978 C992 1.252 . S
C979 O967 1.265 . S
C979 O968 1.242 . S
C980 O971 1.261 . S
C980 O972 1.252 . S
C981 C984 1.394 . S
C981 C986 1.370 . S
C981 C987 1.500 . S
C982 C985 1.383 . S
C982 C986 1.395 . S
C983 C984 1.396 . S
C983 C985 1.365 . S
C983 H1000 0.929 . S
C984 C981 1.394 . S
C984 C983 1.396 . S
C984 H1001 0.930 . S
C985 C982 1.383 . S
C985 C983 1.365 . S
C985 H1002 0.931 . S
C986 C981 1.370 . S
C986 C982 1.395 . S
C986 H1003 0.930 . S
C987 Gd934 2.805 . S
C987 O969 1.263 . S
C987 O970 1.252 . S
C987 C981 1.500 . S
C988 H950 0.930 . S
C988 C964 1.417 . S
C988 C989 1.329 . S
C989 C959 1.437 . S
C989 H960 0.929 . S
C989 C988 1.329 . S
H990 C963 0.931 . S
C991 O973 1.265 . S
C991 O974 1.242 . S
C992 O977 1.261 . S
C992 O978 1.252 . S
C993 C996 1.394 . S
C993 C998 1.370 . S
C993 C999 1.500 . S
C994 C997 1.383 . S
C994 C998 1.395 . S
C995 C996 1.396 . S
C995 C997 1.365 . S
C995 H1004 0.929 . S
C996 C993 1.394 . S
C996 C995 1.396 . S
C996 H1005 0.930 . S
C997 C994 1.383 . S
C997 C995 1.365 . S
C997 H1006 0.931 . S
C998 C993 1.370 . S
C998 C994 1.395 . S
C998 H1007 0.930 . S
C999 Gd935 2.805 . S
C999 O975 1.263 . S
C999 O976 1.252 . S
C999 C993 1.500 . S
H1000 C983 0.929 . S
H1001 C984 0.930 . S
H1002 C985 0.931 . S
H1003 C986 0.930 . S
H1004 C995 0.929 . S
H1005 C996 0.930 . S
H1006 C997 0.931 . S
H1007 C998 0.930 . S
H1008 C1020 0.930 . S
H1009 C1022 0.930 . S
H1010 C1023 0.930 . S
H1011 C1027 0.959 . S
H1012 C1027 0.959 . S
H1013 C1027 0.961 . S
H1014 C1028 0.960 . S
H1015 C1028 0.961 . S
H1016 C1028 0.959 . S
H1017 C1031 0.929 . S
H1018 C1032 0.931 . S
H1019 C1034 0.930 . S
C1020 H1008 0.930 . S
C1020 C1021 1.399 . S
C1020 C1025 1.399 . S
C1021 C1020 1.399 . S
C1021 C1022 1.376 . S
C1022 H1009 0.930 . S
C1022 C1021 1.376 . S
C1022 C1023 1.388 . S
C1023 H1010 0.930 . S
C1023 C1022 1.388 . S
C1023 C1024 1.390 . S
C1024 C1023 1.390 . S
C1024 C1025 1.394 . S
C1024 C1030 1.465 . S
C1025 C1020 1.399 . S
C1025 C1024 1.394 . S
C1025 C1026 1.516 . S
C1026 C1025 1.516 . S
C1026 C1027 1.502 . S
C1026 C1028 1.561 . S
C1026 C1029 1.526 . S
C1027 H1011 0.959 . S
C1027 H1012 0.959 . S
C1027 H1013 0.961 . S
C1027 C1026 1.502 . S
C1028 H1014 0.960 . S
C1028 H1015 0.961 . S
C1028 H1016 0.959 . S
C1028 C1026 1.561 . S
C1029 C1026 1.526 . S
C1029 C1030 1.396 . S
C1029 C1034 1.390 . S
C1030 C1024 1.465 . S
C1030 C1029 1.396 . S
C1030 C1031 1.399 . S
C1031 H1017 0.929 . S
C1031 C1030 1.399 . S
C1031 C1032 1.385 . S
C1032 H1018 0.931 . S
C1032 C1031 1.385 . S
C1032 C1033 1.389 . S
C1033 C1032 1.389 . S
C1033 C1034 1.387 . S
C1034 H1019 0.930 . S
C1034 C1029 1.390 . S
C1034 C1033 1.387 . S
H1035 C1047 0.930 . S
H1036 C1049 0.930 . S
H1037 C1050 0.930 . S
H1038 C1054 0.959 . S
H1039 C1054 0.959 . S
H1040 C1054 0.961 . S
H1041 C1055 0.960 . S
H1042 C1055 0.961 1_655 S
H1043 C1055 0.959 1_655 S
H1044 C1058 0.929 . S
H1045 C1059 0.931 . S
H1046 C1061 0.930 . S
C1047 H1035 0.930 . S
C1047 C1048 1.399 . S
C1047 C1052 1.399 . S
C1048 C1047 1.399 . S
C1048 C1049 1.376 . S
C1049 H1036 0.930 . S
C1049 C1048 1.376 . S
C1049 C1050 1.388 . S
C1050 H1037 0.930 . S
C1050 C1049 1.388 . S
C1050 C1051 1.390 . S
C1051 C1050 1.390 . S
C1051 C1052 1.394 . S
C1051 C1057 1.465 1_455 S
C1052 C1047 1.399 . S
C1052 C1051 1.394 . S
C1052 C1053 1.516 . S
C1053 C1052 1.516 . S
C1053 C1054 1.502 . S
C1053 C1055 1.561 . S
C1053 C1056 1.526 1_455 S
C1054 H1038 0.959 . S
C1054 H1039 0.959 . S
C1054 H1040 0.961 . S
C1054 C1053 1.502 . S
C1055 H1041 0.960 . S
C1055 H1042 0.961 1_455 S
C1055 H1043 0.959 1_455 S
C1055 C1053 1.561 . S
C1056 C1053 1.526 1_655 S
C1056 C1057 1.396 . S
C1056 C1061 1.390 . S
C1057 C1051 1.465 1_655 S
C1057 C1056 1.396 . S
C1057 C1058 1.399 . S
C1058 H1044 0.929 . S
C1058 C1057 1.399 . S
C1058 C1059 1.385 . S
C1059 H1045 0.931 . S
C1059 C1058 1.385 . S
C1059 C1060 1.389 . S
C1060 C1059 1.389 . S
C1060 C1061 1.387 . S
C1061 H1046 0.930 . S
C1061 C1056 1.390 . S
C1061 C1060 1.387 . S
H1062 C1074 0.930 . S
H1063 C1076 0.930 . S
H1064 C1077 0.930 . S
H1065 C1081 0.959 . S
H1066 C1081 0.959 1_565 S
H1067 C1081 0.961 . S
H1068 C1082 0.945 1_545 S
H1069 C1082 0.961 . S
H1070 C1082 0.959 . S
H1071 C1085 0.929 . S
H1072 C1086 0.931 . S
H1073 C1088 0.930 . S
C1074 H1062 0.930 . S
C1074 C1075 1.399 . S
C1074 C1079 1.399 . S
C1075 C1074 1.399 . S
C1075 C1076 1.376 . S
C1076 H1063 0.930 . S
C1076 C1075 1.376 . S
C1076 C1077 1.388 . S
C1077 H1064 0.930 . S
C1077 C1076 1.388 . S
C1077 C1078 1.390 . S
C1078 C1077 1.390 . S
C1078 C1079 1.394 . S
C1078 C1084 1.465 1_545 S
C1079 C1074 1.399 . S
C1079 C1078 1.394 . S
C1079 C1080 1.516 1_545 S
C1080 C1079 1.516 1_565 S
C1080 C1081 1.502 1_565 S
C1080 C1082 1.561 . S
C1080 C1083 1.526 . S
C1081 H1065 0.959 . S
C1081 H1066 0.959 1_545 S
C1081 H1067 0.961 . S
C1081 C1080 1.502 1_545 S
C1082 H1068 0.945 1_565 S
C1082 H1069 0.961 . S
C1082 H1070 0.959 . S
C1082 C1080 1.561 . S
C1083 C1080 1.526 . S
C1083 C1084 1.396 . S
C1083 C1088 1.390 . S
C1084 C1078 1.465 1_565 S
C1084 C1083 1.396 . S
C1084 C1085 1.399 . S
C1085 H1071 0.929 . S
C1085 C1084 1.399 . S
C1085 C1086 1.385 . S
C1086 H1072 0.931 . S
C1086 C1085 1.385 . S
C1086 C1087 1.389 . S
C1087 C1086 1.389 . S
C1087 C1088 1.387 . S
C1088 H1073 0.930 . S
C1088 C1083 1.390 . S
C1088 C1087 1.387 . S
H1089 C1101 0.930 . S
H1090 C1103 0.930 . S
H1091 C1104 0.930 . S
H1092 C1108 0.959 . S
H1093 C1108 0.959 . S
H1094 C1108 0.961 . S
H1095 C1109 0.960 . S
H1096 C1109 0.961 . S
H1097 C1109 0.959 . S
H1098 C1112 0.929 . S
H1099 C1113 0.931 . S
H1100 C1115 0.930 . S
C1101 H1089 0.930 . S
C1101 C1102 1.399 . S
C1101 C1106 1.399 . S
C1102 C1101 1.399 . S
C1102 C1103 1.376 . S
C1103 H1090 0.930 . S
C1103 C1102 1.376 . S
C1103 C1104 1.388 . S
C1104 H1091 0.930 . S
C1104 C1103 1.388 . S
C1104 C1105 1.390 . S
C1105 C1104 1.390 . S
C1105 C1106 1.394 . S
C1105 C1111 1.465 . S
C1106 C1101 1.399 . S
C1106 C1105 1.394 . S
C1106 C1107 1.516 . S
C1107 C1106 1.516 . S
C1107 C1108 1.502 . S
C1107 C1109 1.561 . S
C1107 C1110 1.526 . S
C1108 H1092 0.959 . S
C1108 H1093 0.959 . S
C1108 H1094 0.961 . S
C1108 C1107 1.502 . S
C1109 H1095 0.960 . S
C1109 H1096 0.961 . S
C1109 H1097 0.959 . S
C1109 C1107 1.561 . S
C1110 C1107 1.526 . S
C1110 C1111 1.396 . S
C1110 C1115 1.390 . S
C1111 C1105 1.465 . S
C1111 C1110 1.396 . S
C1111 C1112 1.399 . S
C1112 H1098 0.929 . S
C1112 C1111 1.399 . S
C1112 C1113 1.385 . S
C1113 H1099 0.931 . S
C1113 C1112 1.385 . S
C1113 C1114 1.389 . S
C1114 C1113 1.389 . S
C1114 C1115 1.387 . S
C1115 H1100 0.930 . S
C1115 C1110 1.390 . S
C1115 C1114 1.387 . S
H1116 C1128 0.930 . S
H1117 C1130 0.930 . S
H1118 C1131 0.930 . S
H1119 C1135 0.959 . S
H1120 C1135 0.959 . S
H1121 C1135 0.961 . S
H1122 C1136 0.960 . S
H1123 C1136 0.961 1_655 S
H1124 C1136 0.948 1_655 S
H1125 C1139 0.929 . S
H1126 C1140 0.931 . S
H1127 C1142 0.930 . S
C1128 H1116 0.930 . S
C1128 C1129 1.399 . S
C1128 C1133 1.399 . S
C1129 C1128 1.399 . S
C1129 C1130 1.376 . S
C1130 H1117 0.930 . S
C1130 C1129 1.376 . S
C1130 C1131 1.388 . S
C1131 H1118 0.930 . S
C1131 C1130 1.388 . S
C1131 C1132 1.390 . S
C1132 C1131 1.390 . S
C1132 C1133 1.394 . S
C1132 C1138 1.465 1_455 S
C1133 C1128 1.399 . S
C1133 C1132 1.394 . S
C1133 C1134 1.516 . S
C1134 C1133 1.516 . S
C1134 C1135 1.502 . S
C1134 C1136 1.561 . S
C1134 C1137 1.526 1_455 S
C1135 H1119 0.959 . S
C1135 H1120 0.959 . S
C1135 H1121 0.961 . S
C1135 C1134 1.502 . S
C1136 H1122 0.960 . S
C1136 H1123 0.961 1_455 S
C1136 H1124 0.948 1_455 S
C1136 C1134 1.561 . S
C1137 C1134 1.526 1_655 S
C1137 C1138 1.396 . S
C1137 C1142 1.390 . S
C1138 C1132 1.465 1_655 S
C1138 C1137 1.396 . S
C1138 C1139 1.399 . S
C1139 H1125 0.929 . S
C1139 C1138 1.399 . S
C1139 C1140 1.385 . S
C1140 H1126 0.931 . S
C1140 C1139 1.385 . S
C1140 C1141 1.389 . S
C1141 C1140 1.389 . S
C1141 C1142 1.387 . S
C1142 H1127 0.930 . S
C1142 C1137 1.390 . S
C1142 C1141 1.387 . S
H1143 C1155 0.930 . S
H1144 C1157 0.930 . S
H1145 C1158 0.930 . S
H1146 C1162 0.959 . S
H1147 C1162 0.959 . S
H1148 C1162 0.961 1_565 S
H1149 C1163 0.960 . S
H1150 C1163 0.961 . S
H1151 C1163 0.959 . S
H1152 C1166 0.929 . S
H1153 C1167 0.931 . S
H1154 C1169 0.930 . S
C1155 H1143 0.930 . S
C1155 C1156 1.399 . S
C1155 C1160 1.399 . S
C1156 C1155 1.399 . S
C1156 C1157 1.376 . S
C1157 H1144 0.930 . S
C1157 C1156 1.376 . S
C1157 C1158 1.388 . S
C1158 H1145 0.930 . S
C1158 C1157 1.388 . S
C1158 C1159 1.390 . S
C1159 C1158 1.390 . S
C1159 C1160 1.394 . S
C1159 C1165 1.465 1_565 S
C1160 C1155 1.399 . S
C1160 C1159 1.394 . S
C1160 C1161 1.516 . S
C1161 C1160 1.516 . S
C1161 C1162 1.502 1_565 S
C1161 C1163 1.561 . S
C1161 C1164 1.526 1_565 S
C1162 H1146 0.959 . S
C1162 H1147 0.959 . S
C1162 H1148 0.961 1_545 S
C1162 C1161 1.502 1_545 S
C1163 H1149 0.960 . S
C1163 H1150 0.961 . S
C1163 H1151 0.959 . S
C1163 C1161 1.561 . S
C1164 C1161 1.526 1_545 S
C1164 C1165 1.396 . S
C1164 C1169 1.390 . S
C1165 C1159 1.465 1_545 S
C1165 C1164 1.396 . S
C1165 C1166 1.399 . S
C1166 H1152 0.929 . S
C1166 C1165 1.399 . S
C1166 C1167 1.385 . S
C1167 H1153 0.931 . S
C1167 C1166 1.385 . S
C1167 C1168 1.389 . S
C1168 C1167 1.389 . S
C1168 C1169 1.387 . S
C1169 H1154 0.930 . S
C1169 C1164 1.390 . S
C1169 C1168 1.387 . S
H1170 C1182 0.930 . S
H1171 C1184 0.930 . S
H1172 C1185 0.930 . S
H1173 C1189 0.959 . S
H1174 C1189 0.959 . S
H1175 C1189 0.961 . S
H1176 C1190 0.960 . S
H1177 C1190 0.961 . S
H1178 C1190 0.959 . S
H1179 C1193 0.929 . S
H1180 C1194 0.931 . S
H1181 C1196 0.930 . S
C1182 H1170 0.930 . S
C1182 C1183 1.399 . S
C1182 C1187 1.399 . S
C1183 C1182 1.399 . S
C1183 C1184 1.376 . S
C1184 H1171 0.930 . S
C1184 C1183 1.376 . S
C1184 C1185 1.388 . S
C1185 H1172 0.930 . S
C1185 C1184 1.388 . S
C1185 C1186 1.390 . S
C1186 C1185 1.390 . S
C1186 C1187 1.394 . S
C1186 C1192 1.465 . S
C1187 C1182 1.399 . S
C1187 C1186 1.394 . S
C1187 C1188 1.516 . S
C1188 C1187 1.516 . S
C1188 C1189 1.502 . S
C1188 C1190 1.561 . S
C1188 C1191 1.526 . S
C1189 H1173 0.959 . S
C1189 H1174 0.959 . S
C1189 H1175 0.961 . S
C1189 C1188 1.502 . S
C1190 H1176 0.960 . S
C1190 H1177 0.961 . S
C1190 H1178 0.959 . S
C1190 C1188 1.561 . S
C1191 C1188 1.526 . S
C1191 C1192 1.396 . S
C1191 C1196 1.390 . S
C1192 C1186 1.465 . S
C1192 C1191 1.396 . S
C1192 C1193 1.399 . S
C1193 H1179 0.929 . S
C1193 C1192 1.399 . S
C1193 C1194 1.385 . S
C1194 H1180 0.931 . S
C1194 C1193 1.385 . S
C1194 C1195 1.389 . S
C1195 C1194 1.389 . S
C1195 C1196 1.387 . S
C1196 H1181 0.930 . S
C1196 C1191 1.390 . S
C1196 C1195 1.387 . S
H1197 C1209 0.930 . S
H1198 C1211 0.930 . S
H1199 C1212 0.930 1_655 S
H1200 C1216 0.959 . S
H1201 C1216 0.972 . S
H1202 C1216 0.961 . S
H1203 C1217 0.967 . S
H1204 C1217 0.953 1_655 S
H1205 C1217 0.959 1_655 S
H1206 C1220 0.929 . S
H1207 C1221 0.931 . S
H1208 C1223 0.930 . S
C1209 H1197 0.930 . S
C1209 C1210 1.399 . S
C1209 C1214 1.399 . S
C1210 C1209 1.399 . S
C1210 C1211 1.376 . S
C1211 H1198 0.930 . S
C1211 C1210 1.376 . S
C1211 C1212 1.388 . S
C1212 H1199 0.930 1_455 S
C1212 C1211 1.388 . S
C1212 C1213 1.390 1_455 S
C1213 C1212 1.390 1_655 S
C1213 C1214 1.394 1_655 S
C1213 C1219 1.465 . S
C1214 C1209 1.399 . S
C1214 C1213 1.394 1_455 S
C1214 C1215 1.528 . S
C1215 C1214 1.528 . S
C1215 C1216 1.500 . S
C1215 C1217 1.561 . S
C1215 C1218 1.516 1_455 S
C1216 H1200 0.959 . S
C1216 H1201 0.972 . S
C1216 H1202 0.961 . S
C1216 C1215 1.500 . S
C1217 H1203 0.967 . S
C1217 H1204 0.953 1_455 S
C1217 H1205 0.959 1_455 S
C1217 C1215 1.561 . S
C1218 C1215 1.516 1_655 S
C1218 C1219 1.396 . S
C1218 C1223 1.390 . S
C1219 C1213 1.465 . S
C1219 C1218 1.396 . S
C1219 C1220 1.399 . S
C1220 H1206 0.929 . S
C1220 C1219 1.399 . S
C1220 C1221 1.385 . S
C1221 H1207 0.931 . S
C1221 C1220 1.385 . S
C1221 C1222 1.389 . S
C1222 C1221 1.389 . S
C1222 C1223 1.387 . S
C1223 H1208 0.930 . S
C1223 C1218 1.390 . S
C1223 C1222 1.387 . S
H1224 C1236 0.930 . S
H1225 C1238 0.930 . S
H1226 C1239 0.930 . S
H1227 C1243 0.959 . S
H1228 C1243 0.959 1_545 S
H1229 C1243 0.961 . S
H1230 C1244 0.960 1_565 S
H1231 C1244 0.961 . S
H1232 C1244 0.959 . S
H1233 C1247 0.929 . S
H1234 C1248 0.931 . S
H1235 C1250 0.930 . S
C1236 H1224 0.930 . S
C1236 C1237 1.399 . S
C1236 C1241 1.399 . S
C1237 C1236 1.399 . S
C1237 C1238 1.376 . S
C1238 H1225 0.930 . S
C1238 C1237 1.376 . S
C1238 C1239 1.388 . S
C1239 H1226 0.930 . S
C1239 C1238 1.388 . S
C1239 C1240 1.390 . S
C1240 C1239 1.390 . S
C1240 C1241 1.394 . S
C1240 C1246 1.465 1_565 S
C1241 C1236 1.399 . S
C1241 C1240 1.394 . S
C1241 C1242 1.516 1_565 S
C1242 C1241 1.516 1_545 S
C1242 C1243 1.502 1_545 S
C1242 C1244 1.561 . S
C1242 C1245 1.526 . S
C1243 H1227 0.959 . S
C1243 H1228 0.959 1_565 S
C1243 H1229 0.961 . S
C1243 C1242 1.502 1_565 S
C1244 H1230 0.960 1_545 S
C1244 H1231 0.961 . S
C1244 H1232 0.959 . S
C1244 C1242 1.561 . S
C1245 C1242 1.526 . S
C1245 C1246 1.396 . S
C1245 C1250 1.390 . S
C1246 C1240 1.465 1_545 S
C1246 C1245 1.396 . S
C1246 C1247 1.399 . S
C1247 H1233 0.929 . S
C1247 C1246 1.399 . S
C1247 C1248 1.385 . S
C1248 H1234 0.931 . S
C1248 C1247 1.385 . S
C1248 C1249 1.389 . S
C1249 C1248 1.389 . S
C1249 C1250 1.387 . S
C1250 H1235 0.930 . S
C1250 C1245 1.390 . S
C1250 C1249 1.387 . S
H1251 C1263 0.930 . S
H1252 C1265 0.930 . S
H1253 C1266 0.930 . S
H1254 C1270 0.959 . S
H1255 C1270 0.959 . S
H1256 C1270 0.961 . S
H1257 C1271 0.960 . S
H1258 C1271 0.961 . S
H1259 C1271 0.959 . S
H1260 C1274 0.929 . S
H1261 C1275 0.931 . S
H1262 C1277 0.930 . S
C1263 H1251 0.930 . S
C1263 C1264 1.399 . S
C1263 C1268 1.399 . S
C1264 C1263 1.399 . S
C1264 C1265 1.376 . S
C1265 H1252 0.930 . S
C1265 C1264 1.376 . S
C1265 C1266 1.388 . S
C1266 H1253 0.930 . S
C1266 C1265 1.388 . S
C1266 C1267 1.390 . S
C1267 C1266 1.390 . S
C1267 C1268 1.394 . S
C1267 C1273 1.465 . S
C1268 C1263 1.399 . S
C1268 C1267 1.394 . S
C1268 C1269 1.516 . S
C1269 C1268 1.516 . S
C1269 C1270 1.502 . S
C1269 C1271 1.561 . S
C1269 C1272 1.526 . S
C1270 H1254 0.959 . S
C1270 H1255 0.959 . S
C1270 H1256 0.961 . S
C1270 C1269 1.502 . S
C1271 H1257 0.960 . S
C1271 H1258 0.961 . S
C1271 H1259 0.959 . S
C1271 C1269 1.561 . S
C1272 C1269 1.526 . S
C1272 C1273 1.396 . S
C1272 C1277 1.390 . S
C1273 C1267 1.465 . S
C1273 C1272 1.396 . S
C1273 C1274 1.399 . S
C1274 H1260 0.929 . S
C1274 C1273 1.399 . S
C1274 C1275 1.385 . S
C1275 H1261 0.931 . S
C1275 C1274 1.385 . S
C1275 C1276 1.389 . S
C1276 C1275 1.389 . S
C1276 C1277 1.387 . S
C1277 H1262 0.930 . S
C1277 C1272 1.390 . S
C1277 C1276 1.387 . S
H1278 C1290 0.930 . S
H1279 C1292 0.930 . S
H1280 C1293 0.930 . S
H1281 C1297 0.959 . S
H1282 C1297 0.959 . S
H1283 C1297 0.961 . S
H1284 C1298 0.960 . S
H1285 C1298 0.961 . S
H1286 C1298 0.959 . S
H1287 C1301 0.929 . S
H1288 C1302 0.931 . S
H1289 C1304 0.930 . S
C1290 H1278 0.930 . S
C1290 C1291 1.399 . S
C1290 C1295 1.399 . S
C1291 C1290 1.399 . S
C1291 C1292 1.376 . S
C1292 H1279 0.930 . S
C1292 C1291 1.376 . S
C1292 C1293 1.388 . S
C1293 H1280 0.930 . S
C1293 C1292 1.388 . S
C1293 C1294 1.390 . S
C1294 C1293 1.390 . S
C1294 C1295 1.394 . S
C1294 C1300 1.465 1_455 S
C1295 C1290 1.399 . S
C1295 C1294 1.394 . S
C1295 C1296 1.516 1_455 S
C1296 C1295 1.516 1_655 S
C1296 C1297 1.502 . S
C1296 C1298 1.561 . S
C1296 C1299 1.526 . S
C1297 H1281 0.959 . S
C1297 H1282 0.959 . S
C1297 H1283 0.961 . S
C1297 C1296 1.502 . S
C1298 H1284 0.960 . S
C1298 H1285 0.961 . S
C1298 H1286 0.959 . S
C1298 C1296 1.561 . S
C1299 C1296 1.526 . S
C1299 C1300 1.396 . S
C1299 C1304 1.390 . S
C1300 C1294 1.465 1_655 S
C1300 C1299 1.396 . S
C1300 C1301 1.399 . S
C1301 H1287 0.929 . S
C1301 C1300 1.399 . S
C1301 C1302 1.385 . S
C1302 H1288 0.931 . S
C1302 C1301 1.385 . S
C1302 C1303 1.389 . S
C1303 C1302 1.389 . S
C1303 C1304 1.387 . S
C1304 H1289 0.930 . S
C1304 C1299 1.390 . S
C1304 C1303 1.387 . S
H1305 C1317 0.930 . S
H1306 C1319 0.930 . S
H1307 C1320 0.930 . S
H1308 C1324 0.959 . S
H1309 C1324 0.963 . S
H1310 C1324 0.961 . S
H1311 C1325 0.960 1_545 S
H1312 C1325 0.961 . S
H1313 C1325 0.959 . S
H1314 C1328 0.929 . S
H1315 C1329 0.931 . S
H1316 C1331 0.930 . S
C1317 H1305 0.930 . S
C1317 C1318 1.399 . S
C1317 C1322 1.399 . S
C1318 C1317 1.399 . S
C1318 C1319 1.376 . S
C1319 H1306 0.930 . S
C1319 C1318 1.376 . S
C1319 C1320 1.388 . S
C1320 H1307 0.930 . S
C1320 C1319 1.388 . S
C1320 C1321 1.390 . S
C1321 C1320 1.390 . S
C1321 C1322 1.394 . S
C1321 C1327 1.465 1_545 S
C1322 C1317 1.399 . S
C1322 C1321 1.394 . S
C1322 C1323 1.516 . S
C1323 C1322 1.516 . S
C1323 C1324 1.502 . S
C1323 C1325 1.561 1_545 S
C1323 C1326 1.526 1_545 S
C1324 H1308 0.959 . S
C1324 H1309 0.963 . S
C1324 H1310 0.961 . S
C1324 C1323 1.502 . S
C1325 H1311 0.960 1_565 S
C1325 H1312 0.961 . S
C1325 H1313 0.959 . S
C1325 C1323 1.561 1_565 S
C1326 C1323 1.526 1_565 S
C1326 C1327 1.396 . S
C1326 C1331 1.390 . S
C1327 C1321 1.465 1_565 S
C1327 C1326 1.396 . S
C1327 C1328 1.399 . S
C1328 H1314 0.929 . S
C1328 C1327 1.399 . S
C1328 C1329 1.385 . S
C1329 H1315 0.931 . S
C1329 C1328 1.385 . S
C1329 C1330 1.389 . S
C1330 C1329 1.389 . S
C1330 C1331 1.387 . S
C1331 H1316 0.930 . S
C1331 C1326 1.390 . S
C1331 C1330 1.387 . S
H1332 C1344 0.930 . S
H1333 C1346 0.930 . S
H1334 C1347 0.930 . S
H1335 C1351 0.959 . S
H1336 C1351 0.959 . S
H1337 C1351 0.961 . S
H1338 C1352 0.960 . S
H1339 C1352 0.961 . S
H1340 C1352 0.959 . S
H1341 C1355 0.929 . S
H1342 C1356 0.931 . S
H1343 C1358 0.930 . S
C1344 H1332 0.930 . S
C1344 C1345 1.399 . S
C1344 C1349 1.399 . S
C1345 C1344 1.399 . S
C1345 C1346 1.376 . S
C1346 H1333 0.930 . S
C1346 C1345 1.376 . S
C1346 C1347 1.388 . S
C1347 H1334 0.930 . S
C1347 C1346 1.388 . S
C1347 C1348 1.390 . S
C1348 C1347 1.390 . S
C1348 C1349 1.394 . S
C1348 C1354 1.465 . S
C1349 C1344 1.399 . S
C1349 C1348 1.394 . S
C1349 C1350 1.516 . S
C1350 C1349 1.516 . S
C1350 C1351 1.502 . S
C1350 C1352 1.561 . S
C1350 C1353 1.526 . S
C1351 H1335 0.959 . S
C1351 H1336 0.959 . S
C1351 H1337 0.961 . S
C1351 C1350 1.502 . S
C1352 H1338 0.960 . S
C1352 H1339 0.961 . S
C1352 H1340 0.959 . S
C1352 C1350 1.561 . S
C1353 C1350 1.526 . S
C1353 C1354 1.396 . S
C1353 C1358 1.390 . S
C1354 C1348 1.465 . S
C1354 C1353 1.396 . S
C1354 C1355 1.399 . S
C1355 H1341 0.929 . S
C1355 C1354 1.399 . S
C1355 C1356 1.385 . S
C1356 H1342 0.931 . S
C1356 C1355 1.385 . S
C1356 C1357 1.389 . S
C1357 C1356 1.389 . S
C1357 C1358 1.387 . S
C1358 H1343 0.930 . S
C1358 C1353 1.390 . S
C1358 C1357 1.387 . S
H1359 C1371 0.930 . S
H1360 C1373 0.930 . S
H1361 C1374 0.930 . S
H1362 C1378 0.959 . S
H1363 C1378 0.959 . S
H1364 C1378 0.961 . S
H1365 C1379 0.960 . S
H1366 C1379 0.961 . S
H1367 C1379 0.959 . S
H1368 C1382 0.929 . S
H1369 C1383 0.931 . S
H1370 C1385 0.930 . S
C1371 H1359 0.930 . S
C1371 C1372 1.399 . S
C1371 C1376 1.399 . S
C1372 C1371 1.399 . S
C1372 C1373 1.376 . S
C1373 H1360 0.930 . S
C1373 C1372 1.376 . S
C1373 C1374 1.388 . S
C1374 H1361 0.930 . S
C1374 C1373 1.388 . S
C1374 C1375 1.390 . S
C1375 C1374 1.390 . S
C1375 C1376 1.394 . S
C1375 C1381 1.465 . S
C1376 C1371 1.399 . S
C1376 C1375 1.394 . S
C1376 C1377 1.516 . S
C1377 C1376 1.516 . S
C1377 C1378 1.502 . S
C1377 C1379 1.561 . S
C1377 C1380 1.526 . S
C1378 H1362 0.959 . S
C1378 H1363 0.959 . S
C1378 H1364 0.961 . S
C1378 C1377 1.502 . S
C1379 H1365 0.960 . S
C1379 H1366 0.961 . S
C1379 H1367 0.959 . S
C1379 C1377 1.561 . S
C1380 C1377 1.526 . S
C1380 C1381 1.396 . S
C1380 C1385 1.390 . S
C1381 C1375 1.465 . S
C1381 C1380 1.396 . S
C1381 C1382 1.399 . S
C1382 H1368 0.929 . S
C1382 C1381 1.399 . S
C1382 C1383 1.385 . S
C1383 H1369 0.931 . S
C1383 C1382 1.385 . S
C1383 C1384 1.389 . S
C1384 C1383 1.389 . S
C1384 C1385 1.387 . S
C1385 H1370 0.930 . S
C1385 C1380 1.390 . S
C1385 C1384 1.387 . S
H1386 C1398 0.930 . S
H1387 C1400 0.930 . S
H1388 C1401 0.930 . S
H1389 C1405 0.959 . S
H1390 C1405 0.959 . S
H1391 C1405 0.961 . S
H1392 C1406 0.960 . S
H1393 C1406 0.961 . S
H1394 C1406 0.959 . S
H1395 C1409 0.929 . S
H1396 C1410 0.931 . S
H1397 C1412 0.930 . S
C1398 H1386 0.930 . S
C1398 C1399 1.399 . S
C1398 C1403 1.399 . S
C1399 C1398 1.399 . S
C1399 C1400 1.376 . S
C1400 H1387 0.930 . S
C1400 C1399 1.376 . S
C1400 C1401 1.388 . S
C1401 H1388 0.930 . S
C1401 C1400 1.388 . S
C1401 C1402 1.390 . S
C1402 C1401 1.390 . S
C1402 C1403 1.394 . S
C1402 C1408 1.465 . S
C1403 C1398 1.399 . S
C1403 C1402 1.394 . S
C1403 C1404 1.516 . S
C1404 C1403 1.516 . S
C1404 C1405 1.502 . S
C1404 C1406 1.561 . S
C1404 C1407 1.526 . S
C1405 H1389 0.959 . S
C1405 H1390 0.959 . S
C1405 H1391 0.961 . S
C1405 C1404 1.502 . S
C1406 H1392 0.960 . S
C1406 H1393 0.961 . S
C1406 H1394 0.959 . S
C1406 C1404 1.561 . S
C1407 C1404 1.526 . S
C1407 C1408 1.396 . S
C1407 C1412 1.390 . S
C1408 C1402 1.465 . S
C1408 C1407 1.396 . S
C1408 C1409 1.399 . S
C1409 H1395 0.929 . S
C1409 C1408 1.399 . S
C1409 C1410 1.385 . S
C1410 H1396 0.931 . S
C1410 C1409 1.385 . S
C1410 C1411 1.389 . S
C1411 C1410 1.389 . S
C1411 C1412 1.387 . S
C1412 H1397 0.930 . S
C1412 C1407 1.390 . S
C1412 C1411 1.387 . S
H1413 C1425 0.930 . S
H1414 C1427 0.930 . S
H1415 C1428 0.930 . S
H1416 C1432 0.959 . S
H1417 C1432 0.959 . S
H1418 C1432 0.961 . S
H1419 C1433 0.960 . S
H1420 C1433 0.961 . S
H1421 C1433 0.959 . S
H1422 C1436 0.929 . S
H1423 C1437 0.931 . S
H1424 C1439 0.930 . S
C1425 H1413 0.930 . S
C1425 C1426 1.399 . S
C1425 C1430 1.399 . S
C1426 C1425 1.399 . S
C1426 C1427 1.376 . S
C1427 H1414 0.930 . S
C1427 C1426 1.376 . S
C1427 C1428 1.388 . S
C1428 H1415 0.930 . S
C1428 C1427 1.388 . S
C1428 C1429 1.390 . S
C1429 C1428 1.390 . S
C1429 C1430 1.394 . S
C1429 C1435 1.465 . S
C1430 C1425 1.399 . S
C1430 C1429 1.394 . S
C1430 C1431 1.516 . S
C1431 C1430 1.516 . S
C1431 C1432 1.502 . S
C1431 C1433 1.561 . S
C1431 C1434 1.526 . S
C1432 H1416 0.959 . S
C1432 H1417 0.959 . S
C1432 H1418 0.961 . S
C1432 C1431 1.502 . S
C1433 H1419 0.960 . S
C1433 H1420 0.961 . S
C1433 H1421 0.959 . S
C1433 C1431 1.561 . S
C1434 C1431 1.526 . S
C1434 C1435 1.396 . S
C1434 C1439 1.390 . S
C1435 C1429 1.465 . S
C1435 C1434 1.396 . S
C1435 C1436 1.399 . S
C1436 H1422 0.929 . S
C1436 C1435 1.399 . S
C1436 C1437 1.385 . S
C1437 H1423 0.931 . S
C1437 C1436 1.385 . S
C1437 C1438 1.389 . S
C1438 C1437 1.389 . S
C1438 C1439 1.387 . S
C1439 H1424 0.930 . S
C1439 C1434 1.390 . S
C1439 C1438 1.387 . S
H1440 C1452 0.930 . S
H1441 C1454 0.930 . S
H1442 C1455 0.930 . S
H1443 C1459 0.959 . S
H1444 C1459 0.959 . S
H1445 C1459 0.961 . S
H1446 C1460 0.960 . S
H1447 C1460 0.961 . S
H1448 C1460 0.959 . S
H1449 C1463 0.929 . S
H1450 C1464 0.931 . S
H1451 C1466 0.930 . S
C1452 H1440 0.930 . S
C1452 C1453 1.399 . S
C1452 C1457 1.399 . S
C1453 C1452 1.399 . S
C1453 C1454 1.376 . S
C1454 H1441 0.930 . S
C1454 C1453 1.376 . S
C1454 C1455 1.388 . S
C1455 H1442 0.930 . S
C1455 C1454 1.388 . S
C1455 C1456 1.390 . S
C1456 C1455 1.390 . S
C1456 C1457 1.394 . S
C1456 C1462 1.465 . S
C1457 C1452 1.399 . S
C1457 C1456 1.394 . S
C1457 C1458 1.516 . S
C1458 C1457 1.516 . S
C1458 C1459 1.502 . S
C1458 C1460 1.561 . S
C1458 C1461 1.526 . S
C1459 H1443 0.959 . S
C1459 H1444 0.959 . S
C1459 H1445 0.961 . S
C1459 C1458 1.502 . S
C1460 H1446 0.960 . S
C1460 H1447 0.961 . S
C1460 H1448 0.959 . S
C1460 C1458 1.561 . S
C1461 C1458 1.526 . S
C1461 C1462 1.396 . S
C1461 C1466 1.390 . S
C1462 C1456 1.465 . S
C1462 C1461 1.396 . S
C1462 C1463 1.399 . S
C1463 H1449 0.929 . S
C1463 C1462 1.399 . S
C1463 C1464 1.385 . S
C1464 H1450 0.931 . S
C1464 C1463 1.385 . S
C1464 C1465 1.389 . S
C1465 C1464 1.389 . S
C1465 C1466 1.387 . S
C1466 H1451 0.930 . S
C1466 C1461 1.390 . S
C1466 C1465 1.387 . S
H1467 C1479 0.930 . S
H1468 C1481 0.930 . S
H1469 C1482 0.930 . S
H1470 C1486 0.959 . S
H1471 C1486 0.959 . S
H1472 C1486 0.961 . S
H1473 C1487 0.960 . S
H1474 C1487 0.961 . S
H1475 C1487 0.959 . S
H1476 C1490 0.929 . S
H1477 C1491 0.931 . S
H1478 C1493 0.930 . S
C1479 H1467 0.930 . S
C1479 C1480 1.399 . S
C1479 C1484 1.399 . S
C1480 C1479 1.399 . S
C1480 C1481 1.376 . S
C1481 H1468 0.930 . S
C1481 C1480 1.376 . S
C1481 C1482 1.388 . S
C1482 H1469 0.930 . S
C1482 C1481 1.388 . S
C1482 C1483 1.390 . S
C1483 C1482 1.390 . S
C1483 C1484 1.394 . S
C1483 C1489 1.465 . S
C1484 C1479 1.399 . S
C1484 C1483 1.394 . S
C1484 C1485 1.516 . S
C1485 C1484 1.516 . S
C1485 C1486 1.502 . S
C1485 C1487 1.561 . S
C1485 C1488 1.526 . S
C1486 H1470 0.959 . S
C1486 H1471 0.959 . S
C1486 H1472 0.961 . S
C1486 C1485 1.502 . S
C1487 H1473 0.960 . S
C1487 H1474 0.961 . S
C1487 H1475 0.959 . S
C1487 C1485 1.561 . S
C1488 C1485 1.526 . S
C1488 C1489 1.396 . S
C1488 C1493 1.390 . S
C1489 C1483 1.465 . S
C1489 C1488 1.396 . S
C1489 C1490 1.399 . S
C1490 H1476 0.929 . S
C1490 C1489 1.399 . S
C1490 C1491 1.385 . S
C1491 H1477 0.931 . S
C1491 C1490 1.385 . S
C1491 C1492 1.389 . S
C1492 C1491 1.389 . S
C1492 C1493 1.387 . S
C1493 H1478 0.930 . S
C1493 C1488 1.390 . S
C1493 C1492 1.387 . S
H1494 C1506 0.930 . S
H1495 C1508 0.930 . S
H1496 C1509 0.930 . S
H1497 C1513 0.959 . S
H1498 C1513 0.959 . S
H1499 C1513 0.961 . S
H1500 C1514 0.960 . S
H1501 C1514 0.961 . S
H1502 C1514 0.959 . S
H1503 C1517 0.929 1_565 S
H1504 C1518 0.931 . S
H1505 C1520 0.930 . S
C1506 H1494 0.930 . S
C1506 C1507 1.399 . S
C1506 C1511 1.399 . S
C1507 C1506 1.399 . S
C1507 C1508 1.376 . S
C1508 H1495 0.930 . S
C1508 C1507 1.376 . S
C1508 C1509 1.388 1_556 S
C1509 H1496 0.930 . S
C1509 C1508 1.388 1_554 S
C1509 C1510 1.390 . S
C1510 C1509 1.390 . S
C1510 C1511 1.394 1_554 S
C1510 C1516 1.465 1_565 S
C1511 C1506 1.399 . S
C1511 C1510 1.394 1_556 S
C1511 C1512 1.516 1_565 S
C1512 C1511 1.516 1_545 S
C1512 C1513 1.502 . S
C1512 C1514 1.561 . S
C1512 C1515 1.526 1_556 S
C1513 H1497 0.959 . S
C1513 H1498 0.959 . S
C1513 H1499 0.961 . S
C1513 C1512 1.502 . S
C1514 H1500 0.960 . S
C1514 H1501 0.961 . S
C1514 H1502 0.959 . S
C1514 C1512 1.561 . S
C1515 C1512 1.526 1_554 S
C1515 C1516 1.396 . S
C1515 C1520 1.390 . S
C1516 C1510 1.465 1_545 S
C1516 C1515 1.396 . S
C1516 C1517 1.399 . S
C1517 H1503 0.929 1_545 S
C1517 C1516 1.399 . S
C1517 C1518 1.385 . S
C1518 H1504 0.931 . S
C1518 C1517 1.385 . S
C1518 C1519 1.389 . S
C1519 C1518 1.389 . S
C1519 C1520 1.387 . S
C1520 H1505 0.930 . S
C1520 C1515 1.390 . S
C1520 C1519 1.387 . S
H1521 C1533 0.930 . S
H1522 C1535 0.930 . S
H1523 C1536 0.930 . S
H1524 C1540 0.959 . S
H1525 C1540 0.959 . S
H1526 C1540 0.961 . S
H1527 C1541 0.960 . S
H1528 C1541 0.961 . S
H1529 C1541 0.959 . S
H1530 C1544 0.929 . S
H1531 C1545 0.931 . S
H1532 C1547 0.930 . S
C1533 H1521 0.930 . S
C1533 C1534 1.399 . S
C1533 C1538 1.399 . S
C1534 C1533 1.399 . S
C1534 C1535 1.376 . S
C1535 H1522 0.930 . S
C1535 C1534 1.376 . S
C1535 C1536 1.388 . S
C1536 H1523 0.930 . S
C1536 C1535 1.388 . S
C1536 C1537 1.390 . S
C1537 C1536 1.390 . S
C1537 C1538 1.394 . S
C1537 C1543 1.465 . S
C1538 C1533 1.399 . S
C1538 C1537 1.394 . S
C1538 C1539 1.516 . S
C1539 C1538 1.516 . S
C1539 C1540 1.502 . S
C1539 C1541 1.561 . S
C1539 C1542 1.526 . S
C1540 H1524 0.959 . S
C1540 H1525 0.959 . S
C1540 H1526 0.961 . S
C1540 C1539 1.502 . S
C1541 H1527 0.960 . S
C1541 H1528 0.961 . S
C1541 H1529 0.959 . S
C1541 C1539 1.561 . S
C1542 C1539 1.526 . S
C1542 C1543 1.396 . S
C1542 C1547 1.390 . S
C1543 C1537 1.465 . S
C1543 C1542 1.396 . S
C1543 C1544 1.399 . S
C1544 H1530 0.929 . S
C1544 C1543 1.399 . S
C1544 C1545 1.385 . S
C1545 H1531 0.931 . S
C1545 C1544 1.385 . S
C1545 C1546 1.389 . S
C1546 C1545 1.389 . S
C1546 C1547 1.387 . S
C1547 H1532 0.930 . S
C1547 C1542 1.390 . S
C1547 C1546 1.387 . S
H1548 C1560 0.930 . S
H1549 C1562 0.930 . S
H1550 C1563 0.930 . S
H1551 C1567 0.959 . S
H1552 C1567 0.959 1_655 S
H1553 C1567 0.974 . S
H1554 C1568 0.960 . S
H1555 C1568 0.961 . S
H1556 C1568 0.959 . S
H1557 C1571 0.929 . S
H1558 C1572 0.931 . S
H1559 C1574 0.930 . S
C1560 H1548 0.930 . S
C1560 C1561 1.399 . S
C1560 C1565 1.399 . S
C1561 C1560 1.399 . S
C1561 C1562 1.376 . S
C1562 H1549 0.930 . S
C1562 C1561 1.376 . S
C1562 C1563 1.388 . S
C1563 H1550 0.930 . S
C1563 C1562 1.388 . S
C1563 C1564 1.390 . S
C1564 C1563 1.390 . S
C1564 C1565 1.394 . S
C1564 C1570 1.465 1_456 S
C1565 C1560 1.399 . S
C1565 C1564 1.394 . S
C1565 C1566 1.516 1_455 S
C1566 C1565 1.516 1_655 S
C1566 C1567 1.502 1_656 S
C1566 C1568 1.561 . S
C1566 C1569 1.526 1_556 S
C1567 H1551 0.959 . S
C1567 H1552 0.959 1_455 S
C1567 H1553 0.974 . S
C1567 C1566 1.502 1_454 S
C1568 H1554 0.960 . S
C1568 H1555 0.961 . S
C1568 H1556 0.959 . S
C1568 C1566 1.561 . S
C1569 C1566 1.526 1_554 S
C1569 C1570 1.396 . S
C1569 C1574 1.390 . S
C1570 C1564 1.465 1_654 S
C1570 C1569 1.396 . S
C1570 C1571 1.399 . S
C1571 H1557 0.929 . S
C1571 C1570 1.399 . S
C1571 C1572 1.385 . S
C1572 H1558 0.931 . S
C1572 C1571 1.385 . S
C1572 C1573 1.389 . S
C1573 C1572 1.389 . S
C1573 C1574 1.387 . S
C1574 H1559 0.930 . S
C1574 C1569 1.390 . S
C1574 C1573 1.387 . S
H1575 C1587 0.930 . S
H1576 C1589 0.930 . S
H1577 C1590 0.930 1_565 S
H1578 C1594 0.959 . S
H1579 C1594 0.959 . S
H1580 C1594 0.961 . S
H1581 C1595 0.960 . S
H1582 C1595 0.961 . S
H1583 C1595 0.959 1_565 S
H1584 C1598 0.929 . S
H1585 C1599 0.931 . S
H1586 C1601 0.930 . S
C1587 H1575 0.930 . S
C1587 C1588 1.399 . S
C1587 C1592 1.399 . S
C1588 C1587 1.399 . S
C1588 C1589 1.376 . S
C1589 H1576 0.930 . S
C1589 C1588 1.376 . S
C1589 C1590 1.388 . S
C1590 H1577 0.930 1_545 S
C1590 C1589 1.388 . S
C1590 C1591 1.390 . S
C1591 C1590 1.390 . S
C1591 C1592 1.394 . S
C1591 C1597 1.465 1_545 S
C1592 C1587 1.399 . S
C1592 C1591 1.394 . S
C1592 C1593 1.516 . S
C1593 C1592 1.516 . S
C1593 C1594 1.502 . S
C1593 C1595 1.561 . S
C1593 C1596 1.526 1_545 S
C1594 H1578 0.959 . S
C1594 H1579 0.959 . S
C1594 H1580 0.961 . S
C1594 C1593 1.502 . S
C1595 H1581 0.960 . S
C1595 H1582 0.961 . S
C1595 H1583 0.959 1_545 S
C1595 C1593 1.561 . S
C1596 C1593 1.526 1_565 S
C1596 C1597 1.396 . S
C1596 C1601 1.390 . S
C1597 C1591 1.465 1_565 S
C1597 C1596 1.396 . S
C1597 C1598 1.399 . S
C1598 H1584 0.929 . S
C1598 C1597 1.399 . S
C1598 C1599 1.385 . S
C1599 H1585 0.931 . S
C1599 C1598 1.385 . S
C1599 C1600 1.389 . S
C1600 C1599 1.389 . S
C1600 C1601 1.387 . S
C1601 H1586 0.930 . S
C1601 C1596 1.390 . S
C1601 C1600 1.387 . S
H1602 C1614 0.930 . S
H1603 C1616 0.930 . S
H1604 C1617 0.930 . S
H1605 C1621 0.959 . S
H1606 C1621 0.959 . S
H1607 C1621 0.961 . S
H1608 C1622 0.960 . S
H1609 C1622 0.961 . S
H1610 C1622 0.959 . S
H1611 C1625 0.929 . S
H1612 C1626 0.931 . S
H1613 C1628 0.930 . S
C1614 H1602 0.930 . S
C1614 C1615 1.399 . S
C1614 C1619 1.399 . S
C1615 C1614 1.399 . S
C1615 C1616 1.376 . S
C1616 H1603 0.930 . S
C1616 C1615 1.376 . S
C1616 C1617 1.388 . S
C1617 H1604 0.930 . S
C1617 C1616 1.388 . S
C1617 C1618 1.390 . S
C1618 C1617 1.390 . S
C1618 C1619 1.394 . S
C1618 C1624 1.465 . S
C1619 C1614 1.399 . S
C1619 C1618 1.394 . S
C1619 C1620 1.516 1_554 S
C1620 C1619 1.516 1_556 S
C1620 C1621 1.502 . S
C1620 C1622 1.561 . S
C1620 C1623 1.526 . S
C1621 H1605 0.959 . S
C1621 H1606 0.959 . S
C1621 H1607 0.961 . S
C1621 C1620 1.502 . S
C1622 H1608 0.960 . S
C1622 H1609 0.961 . S
C1622 H1610 0.959 . S
C1622 C1620 1.561 . S
C1623 C1620 1.526 . S
C1623 C1624 1.396 1_556 S
C1623 C1628 1.390 . S
C1624 C1618 1.465 . S
C1624 C1623 1.396 1_554 S
C1624 C1625 1.399 . S
C1625 H1611 0.929 . S
C1625 C1624 1.399 . S
C1625 C1626 1.385 1_554 S
C1626 H1612 0.931 . S
C1626 C1625 1.385 1_556 S
C1626 C1627 1.389 . S
C1627 C1626 1.389 . S
C1627 C1628 1.387 . S
C1628 H1613 0.930 . S
C1628 C1623 1.390 . S
C1628 C1627 1.387 . S
H1629 C1641 0.930 . S
H1630 C1643 0.930 . S
H1631 C1644 0.930 1_655 S
H1632 C1648 0.959 . S
H1633 C1648 0.959 . S
H1634 C1648 0.961 . S
H1635 C1649 0.960 . S
H1636 C1649 0.961 . S
H1637 C1649 0.959 1_655 S
H1638 C1652 0.929 . S
H1639 C1653 0.931 . S
H1640 C1655 0.930 . S
C1641 H1629 0.930 . S
C1641 C1642 1.399 . S
C1641 C1646 1.399 . S
C1642 C1641 1.399 . S
C1642 C1643 1.376 . S
C1643 H1630 0.930 . S
C1643 C1642 1.376 . S
C1643 C1644 1.388 . S
C1644 H1631 0.930 1_455 S
C1644 C1643 1.388 . S
C1644 C1645 1.390 . S
C1645 C1644 1.390 . S
C1645 C1646 1.394 . S
C1645 C1651 1.465 1_455 S
C1646 C1641 1.399 . S
C1646 C1645 1.394 . S
C1646 C1647 1.516 . S
C1647 C1646 1.516 . S
C1647 C1648 1.502 . S
C1647 C1649 1.561 . S
C1647 C1650 1.526 1_455 S
C1648 H1632 0.959 . S
C1648 H1633 0.959 . S
C1648 H1634 0.961 . S
C1648 C1647 1.502 . S
C1649 H1635 0.960 . S
C1649 H1636 0.961 . S
C1649 H1637 0.959 1_455 S
C1649 C1647 1.561 . S
C1650 C1647 1.526 1_655 S
C1650 C1651 1.396 . S
C1650 C1655 1.390 . S
C1651 C1645 1.465 1_655 S
C1651 C1650 1.396 . S
C1651 C1652 1.399 . S
C1652 H1638 0.929 . S
C1652 C1651 1.399 . S
C1652 C1653 1.385 . S
C1653 H1639 0.931 . S
C1653 C1652 1.385 . S
C1653 C1654 1.389 . S
C1654 C1653 1.389 . S
C1654 C1655 1.387 . S
C1655 H1640 0.930 . S
C1655 C1650 1.390 . S
C1655 C1654 1.387 . S
H1656 C1668 0.930 . S
H1657 C1670 0.930 . S
H1658 C1671 0.930 . S
H1659 C1675 0.959 . S
H1660 C1675 0.959 . S
H1661 C1675 0.961 . S
H1662 C1676 0.960 . S
H1663 C1676 0.961 . S
H1664 C1676 0.959 . S
H1665 C1679 0.929 . S
H1666 C1680 0.931 . S
H1667 C1682 0.930 . S
C1668 H1656 0.930 . S
C1668 C1669 1.399 . S
C1668 C1673 1.399 . S
C1669 C1668 1.399 . S
C1669 C1670 1.376 . S
C1670 H1657 0.930 . S
C1670 C1669 1.376 . S
C1670 C1671 1.388 . S
C1671 H1658 0.930 . S
C1671 C1670 1.388 . S
C1671 C1672 1.390 . S
C1672 C1671 1.390 . S
C1672 C1673 1.394 . S
C1672 C1678 1.465 . S
C1673 C1668 1.399 . S
C1673 C1672 1.394 . S
C1673 C1674 1.516 . S
C1674 C1673 1.516 . S
C1674 C1675 1.502 . S
C1674 C1676 1.561 . S
C1674 C1677 1.526 . S
C1675 H1659 0.959 . S
C1675 H1660 0.959 . S
C1675 H1661 0.961 . S
C1675 C1674 1.502 . S
C1676 H1662 0.960 . S
C1676 H1663 0.961 . S
C1676 H1664 0.959 . S
C1676 C1674 1.561 . S
C1677 C1674 1.526 . S
C1677 C1678 1.396 . S
C1677 C1682 1.390 . S
C1678 C1672 1.465 . S
C1678 C1677 1.396 . S
C1678 C1679 1.399 . S
C1679 H1665 0.929 . S
C1679 C1678 1.399 . S
C1679 C1680 1.385 . S
C1680 H1666 0.931 . S
C1680 C1679 1.385 . S
C1680 C1681 1.389 . S
C1681 C1680 1.389 . S
C1681 C1682 1.387 . S
C1682 H1667 0.930 . S
C1682 C1677 1.390 . S
C1682 C1681 1.387 . S
H1683 C1695 0.930 . S
H1684 C1697 0.930 . S
H1685 C1698 0.930 . S
H1686 C1702 0.959 . S
H1687 C1702 0.959 . S
H1688 C1702 0.961 . S
H1689 C1703 0.960 . S
H1690 C1703 0.961 . S
H1691 C1703 0.959 . S
H1692 C1706 0.929 . S
H1693 C1707 0.931 . S
H1694 C1709 0.930 . S
C1695 H1683 0.930 . S
C1695 C1696 1.399 . S
C1695 C1700 1.399 . S
C1696 C1695 1.399 . S
C1696 C1697 1.376 . S
C1697 H1684 0.930 . S
C1697 C1696 1.376 . S
C1697 C1698 1.388 . S
C1698 H1685 0.930 . S
C1698 C1697 1.388 . S
C1698 C1699 1.390 . S
C1699 C1698 1.390 . S
C1699 C1700 1.394 . S
C1699 C1705 1.465 . S
C1700 C1695 1.399 . S
C1700 C1699 1.394 . S
C1700 C1701 1.516 . S
C1701 C1700 1.516 . S
C1701 C1702 1.502 . S
C1701 C1703 1.561 . S
C1701 C1704 1.526 . S
C1702 H1686 0.959 . S
C1702 H1687 0.959 . S
C1702 H1688 0.961 . S
C1702 C1701 1.502 . S
C1703 H1689 0.960 . S
C1703 H1690 0.961 . S
C1703 H1691 0.959 . S
C1703 C1701 1.561 . S
C1704 C1701 1.526 . S
C1704 C1705 1.396 . S
C1704 C1709 1.390 . S
C1705 C1699 1.465 . S
C1705 C1704 1.396 . S
C1705 C1706 1.399 . S
C1706 H1692 0.929 . S
C1706 C1705 1.399 . S
C1706 C1707 1.385 . S
C1707 H1693 0.931 . S
C1707 C1706 1.385 . S
C1707 C1708 1.389 . S
C1708 C1707 1.389 . S
C1708 C1709 1.387 . S
C1709 H1694 0.930 . S
C1709 C1704 1.390 . S
C1709 C1708 1.387 . S
H1710 C1722 0.930 . S
H1711 C1724 0.930 . S
H1712 C1725 0.930 . S
H1713 C1729 0.959 . S
H1714 C1729 0.959 . S
H1715 C1729 0.961 . S
H1716 C1730 0.960 . S
H1717 C1730 0.961 . S
H1718 C1730 0.959 . S
H1719 C1733 0.929 . S
H1720 C1734 0.931 . S
H1721 C1736 0.930 . S
C1722 H1710 0.930 . S
C1722 C1723 1.399 . S
C1722 C1727 1.399 . S
C1723 C1722 1.399 . S
C1723 C1724 1.376 . S
C1724 H1711 0.930 . S
C1724 C1723 1.376 . S
C1724 C1725 1.388 . S
C1725 H1712 0.930 . S
C1725 C1724 1.388 . S
C1725 C1726 1.390 . S
C1726 C1725 1.390 . S
C1726 C1727 1.394 . S
C1726 C1732 1.465 . S
C1727 C1722 1.399 . S
C1727 C1726 1.394 . S
C1727 C1728 1.516 . S
C1728 C1727 1.516 . S
C1728 C1729 1.502 . S
C1728 C1730 1.561 . S
C1728 C1731 1.526 . S
C1729 H1713 0.959 . S
C1729 H1714 0.959 . S
C1729 H1715 0.961 . S
C1729 C1728 1.502 . S
C1730 H1716 0.960 . S
C1730 H1717 0.961 . S
C1730 H1718 0.959 . S
C1730 C1728 1.561 . S
C1731 C1728 1.526 . S
C1731 C1732 1.396 . S
C1731 C1736 1.390 . S
C1732 C1726 1.465 . S
C1732 C1731 1.396 . S
C1732 C1733 1.399 . S
C1733 H1719 0.929 . S
C1733 C1732 1.399 . S
C1733 C1734 1.385 . S
C1734 H1720 0.931 . S
C1734 C1733 1.385 . S
C1734 C1735 1.389 . S
C1735 C1734 1.389 . S
C1735 C1736 1.387 . S
C1736 H1721 0.930 . S
C1736 C1731 1.390 . S
C1736 C1735 1.387 . S
H1737 C1749 0.930 . S
H1738 C1751 0.930 . S
H1739 C1752 0.930 . S
H1740 C1756 0.959 . S
H1741 C1756 0.959 . S
H1742 C1756 0.961 . S
H1743 C1757 0.960 . S
H1744 C1757 0.961 . S
H1745 C1757 0.959 . S
H1746 C1760 0.929 . S
H1747 C1761 0.931 . S
H1748 C1763 0.930 . S
C1749 H1737 0.930 . S
C1749 C1750 1.399 . S
C1749 C1754 1.399 . S
C1750 C1749 1.399 . S
C1750 C1751 1.376 . S
C1751 H1738 0.930 . S
C1751 C1750 1.376 . S
C1751 C1752 1.388 . S
C1752 H1739 0.930 . S
C1752 C1751 1.388 . S
C1752 C1753 1.390 . S
C1753 C1752 1.390 . S
C1753 C1754 1.394 . S
C1753 C1759 1.465 . S
C1754 C1749 1.399 . S
C1754 C1753 1.394 . S
C1754 C1755 1.516 . S
C1755 C1754 1.516 . S
C1755 C1756 1.502 . S
C1755 C1757 1.561 . S
C1755 C1758 1.526 . S
C1756 H1740 0.959 . S
C1756 H1741 0.959 . S
C1756 H1742 0.961 . S
C1756 C1755 1.502 . S
C1757 H1743 0.960 . S
C1757 H1744 0.961 . S
C1757 H1745 0.959 . S
C1757 C1755 1.561 . S
C1758 C1755 1.526 . S
C1758 C1759 1.396 . S
C1758 C1763 1.390 . S
C1759 C1753 1.465 . S
C1759 C1758 1.396 . S
C1759 C1760 1.399 . S
C1760 H1746 0.929 . S
C1760 C1759 1.399 . S
C1760 C1761 1.385 . S
C1761 H1747 0.931 . S
C1761 C1760 1.385 . S
C1761 C1762 1.389 . S
C1762 C1761 1.389 . S
C1762 C1763 1.387 . S
C1763 H1748 0.930 . S
C1763 C1758 1.390 . S
C1763 C1762 1.387 . S
H1764 C1776 0.930 . S
H1765 C1778 0.930 . S
H1766 C1779 0.930 . S
H1767 C1783 0.959 . S
H1768 C1783 0.959 . S
H1769 C1783 0.961 . S
H1770 C1784 0.960 . S
H1771 C1784 0.961 . S
H1772 C1784 0.959 . S
H1773 C1787 0.929 . S
H1774 C1788 0.931 . S
H1775 C1790 0.930 . S
C1776 H1764 0.930 . S
C1776 C1777 1.399 . S
C1776 C1781 1.399 . S
C1777 C1776 1.399 . S
C1777 C1778 1.376 . S
C1778 H1765 0.930 . S
C1778 C1777 1.376 . S
C1778 C1779 1.388 . S
C1779 H1766 0.930 . S
C1779 C1778 1.388 . S
C1779 C1780 1.390 . S
C1780 C1779 1.390 . S
C1780 C1781 1.394 . S
C1780 C1786 1.465 . S
C1781 C1776 1.399 . S
C1781 C1780 1.394 . S
C1781 C1782 1.516 . S
C1782 C1781 1.516 . S
C1782 C1783 1.502 . S
C1782 C1784 1.561 . S
C1782 C1785 1.526 . S
C1783 H1767 0.959 . S
C1783 H1768 0.959 . S
C1783 H1769 0.961 . S
C1783 C1782 1.502 . S
C1784 H1770 0.960 . S
C1784 H1771 0.961 . S
C1784 H1772 0.959 . S
C1784 C1782 1.561 . S
C1785 C1782 1.526 . S
C1785 C1786 1.396 . S
C1785 C1790 1.390 . S
C1786 C1780 1.465 . S
C1786 C1785 1.396 . S
C1786 C1787 1.399 . S
C1787 H1773 0.929 . S
C1787 C1786 1.399 . S
C1787 C1788 1.385 . S
C1788 H1774 0.931 . S
C1788 C1787 1.385 . S
C1788 C1789 1.389 . S
C1789 C1788 1.389 . S
C1789 C1790 1.387 . S
C1790 H1775 0.930 . S
C1790 C1785 1.390 . S
C1790 C1789 1.387 . S
H1791 C1803 0.930 . S
H1792 C1805 0.930 . S
H1793 C1806 0.930 . S
H1794 C1810 0.959 . S
H1795 C1810 0.959 . S
H1796 C1810 0.961 . S
H1797 C1811 0.960 . S
H1798 C1811 0.961 . S
H1799 C1811 0.959 . S
H1800 C1814 0.929 . S
H1801 C1815 0.931 . S
H1802 C1817 0.930 . S
C1803 H1791 0.930 . S
C1803 C1804 1.399 . S
C1803 C1808 1.399 . S
C1804 C1803 1.399 . S
C1804 C1805 1.376 . S
C1805 H1792 0.930 . S
C1805 C1804 1.376 . S
C1805 C1806 1.388 . S
C1806 H1793 0.930 . S
C1806 C1805 1.388 . S
C1806 C1807 1.390 . S
C1807 C1806 1.390 . S
C1807 C1808 1.394 . S
C1807 C1813 1.465 . S
C1808 C1803 1.399 . S
C1808 C1807 1.394 . S
C1808 C1809 1.516 . S
C1809 C1808 1.516 . S
C1809 C1810 1.502 . S
C1809 C1811 1.561 . S
C1809 C1812 1.526 . S
C1810 H1794 0.959 . S
C1810 H1795 0.959 . S
C1810 H1796 0.961 . S
C1810 C1809 1.502 . S
C1811 H1797 0.960 . S
C1811 H1798 0.961 . S
C1811 H1799 0.959 . S
C1811 C1809 1.561 . S
C1812 C1809 1.526 . S
C1812 C1813 1.396 . S
C1812 C1817 1.390 . S
C1813 C1807 1.465 . S
C1813 C1812 1.396 . S
C1813 C1814 1.399 . S
C1814 H1800 0.929 . S
C1814 C1813 1.399 . S
C1814 C1815 1.385 . S
C1815 H1801 0.931 . S
C1815 C1814 1.385 . S
C1815 C1816 1.389 . S
C1816 C1815 1.389 . S
C1816 C1817 1.387 . S
C1817 H1802 0.930 . S
C1817 C1812 1.390 . S
C1817 C1816 1.387 . S
H1818 C1830 0.930 . S
H1819 C1832 0.930 . S
H1820 C1833 0.930 . S
H1821 C1837 0.959 . S
H1822 C1837 0.959 . S
H1823 C1837 0.961 . S
H1824 C1838 0.960 . S
H1825 C1838 0.961 . S
H1826 C1838 0.959 . S
H1827 C1841 0.929 . S
H1828 C1842 0.931 . S
H1829 C1844 0.930 . S
C1830 H1818 0.930 . S
C1830 C1831 1.399 . S
C1830 C1835 1.399 . S
C1831 C1830 1.399 . S
C1831 C1832 1.376 . S
C1832 H1819 0.930 . S
C1832 C1831 1.376 . S
C1832 C1833 1.388 . S
C1833 H1820 0.930 . S
C1833 C1832 1.388 . S
C1833 C1834 1.390 . S
C1834 C1833 1.390 . S
C1834 C1835 1.394 . S
C1834 C1840 1.465 . S
C1835 C1830 1.399 . S
C1835 C1834 1.394 . S
C1835 C1836 1.516 . S
C1836 C1835 1.516 . S
C1836 C1837 1.502 . S
C1836 C1838 1.561 . S
C1836 C1839 1.526 . S
C1837 H1821 0.959 . S
C1837 H1822 0.959 . S
C1837 H1823 0.961 . S
C1837 C1836 1.502 . S
C1838 H1824 0.960 . S
C1838 H1825 0.961 . S
C1838 H1826 0.959 . S
C1838 C1836 1.561 . S
C1839 C1836 1.526 . S
C1839 C1840 1.396 . S
C1839 C1844 1.390 . S
C1840 C1834 1.465 . S
C1840 C1839 1.396 . S
C1840 C1841 1.399 . S
C1841 H1827 0.929 . S
C1841 C1840 1.399 . S
C1841 C1842 1.385 . S
C1842 H1828 0.931 . S
C1842 C1841 1.385 . S
C1842 C1843 1.389 . S
C1843 C1842 1.389 . S
C1843 C1844 1.387 . S
C1844 H1829 0.930 . S
C1844 C1839 1.390 . S
C1844 C1843 1.387 . S
H1845 C1857 0.930 . S
H1846 C1859 0.930 . S
H1847 C1860 0.930 . S
H1848 C1864 0.959 . S
H1849 C1864 0.959 . S
H1850 C1864 0.961 . S
H1851 C1865 0.960 . S
H1852 C1865 0.961 . S
H1853 C1865 0.959 . S
H1854 C1868 0.929 . S
H1855 C1869 0.931 . S
H1856 C1871 0.930 . S
C1857 H1845 0.930 . S
C1857 C1858 1.399 . S
C1857 C1862 1.399 . S
C1858 C1857 1.399 . S
C1858 C1859 1.376 . S
C1859 H1846 0.930 . S
C1859 C1858 1.376 . S
C1859 C1860 1.388 . S
C1860 H1847 0.930 . S
C1860 C1859 1.388 . S
C1860 C1861 1.390 . S
C1861 C1860 1.390 . S
C1861 C1862 1.394 . S
C1861 C1867 1.465 . S
C1862 C1857 1.399 . S
C1862 C1861 1.394 . S
C1862 C1863 1.516 . S
C1863 C1862 1.516 . S
C1863 C1864 1.502 . S
C1863 C1865 1.561 . S
C1863 C1866 1.526 . S
C1864 H1848 0.959 . S
C1864 H1849 0.959 . S
C1864 H1850 0.961 . S
C1864 C1863 1.502 . S
C1865 H1851 0.960 . S
C1865 H1852 0.961 . S
C1865 H1853 0.959 . S
C1865 C1863 1.561 . S
C1866 C1863 1.526 . S
C1866 C1867 1.396 . S
C1866 C1871 1.390 . S
C1867 C1861 1.465 . S
C1867 C1866 1.396 . S
C1867 C1868 1.399 . S
C1868 H1854 0.929 . S
C1868 C1867 1.399 . S
C1868 C1869 1.385 . S
C1869 H1855 0.931 . S
C1869 C1868 1.385 . S
C1869 C1870 1.389 . S
C1870 C1869 1.389 . S
C1870 C1871 1.387 . S
C1871 H1856 0.930 . S
C1871 C1866 1.390 . S
C1871 C1870 1.387 . S
H1872 C1884 0.930 . S
H1873 C1886 0.930 . S
H1874 C1887 0.930 . S
H1875 C1891 0.959 . S
H1876 C1891 0.959 . S
H1877 C1891 0.961 . S
H1878 C1892 0.960 . S
H1879 C1892 0.961 . S
H1880 C1892 0.959 . S
H1881 C1895 0.929 . S
H1882 C1896 0.931 . S
H1883 C1898 0.930 . S
C1884 H1872 0.930 . S
C1884 C1885 1.399 . S
C1884 C1889 1.399 . S
C1885 C1884 1.399 . S
C1885 C1886 1.376 . S
C1886 H1873 0.930 . S
C1886 C1885 1.376 . S
C1886 C1887 1.388 . S
C1887 H1874 0.930 . S
C1887 C1886 1.388 . S
C1887 C1888 1.390 . S
C1888 C1887 1.390 . S
C1888 C1889 1.394 . S
C1888 C1894 1.465 . S
C1889 C1884 1.399 . S
C1889 C1888 1.394 . S
C1889 C1890 1.516 . S
C1890 C1889 1.516 . S
C1890 C1891 1.502 . S
C1890 C1892 1.561 . S
C1890 C1893 1.526 . S
C1891 H1875 0.959 . S
C1891 H1876 0.959 . S
C1891 H1877 0.961 . S
C1891 C1890 1.502 . S
C1892 H1878 0.960 . S
C1892 H1879 0.961 . S
C1892 H1880 0.959 . S
C1892 C1890 1.561 . S
C1893 C1890 1.526 . S
C1893 C1894 1.396 . S
C1893 C1898 1.390 . S
C1894 C1888 1.465 . S
C1894 C1893 1.396 . S
C1894 C1895 1.399 . S
C1895 H1881 0.929 . S
C1895 C1894 1.399 . S
C1895 C1896 1.385 . S
C1896 H1882 0.931 . S
C1896 C1895 1.385 . S
C1896 C1897 1.389 . S
C1897 C1896 1.389 . S
C1897 C1898 1.387 . S
C1898 H1883 0.930 . S
C1898 C1893 1.390 . S
C1898 C1897 1.387 . S
H1899 C1911 0.930 . S
H1900 C1913 0.930 . S
H1901 C1914 0.930 . S
H1902 C1918 0.959 . S
H1903 C1918 0.959 . S
H1904 C1918 0.961 . S
H1905 C1919 0.960 . S
H1906 C1919 0.961 . S
H1907 C1919 0.959 . S
H1908 C1922 0.929 . S
H1909 C1923 0.931 . S
H1910 C1925 0.930 . S
C1911 H1899 0.930 . S
C1911 C1912 1.399 . S
C1911 C1916 1.399 . S
C1912 C1911 1.399 . S
C1912 C1913 1.376 . S
C1913 H1900 0.930 . S
C1913 C1912 1.376 . S
C1913 C1914 1.388 . S
C1914 H1901 0.930 . S
C1914 C1913 1.388 . S
C1914 C1915 1.390 . S
C1915 C1914 1.390 . S
C1915 C1916 1.394 . S
C1915 C1921 1.465 . S
C1916 C1911 1.399 . S
C1916 C1915 1.394 . S
C1916 C1917 1.516 . S
C1917 C1916 1.516 . S
C1917 C1918 1.502 . S
C1917 C1919 1.561 . S
C1917 C1920 1.526 . S
C1918 H1902 0.959 . S
C1918 H1903 0.959 . S
C1918 H1904 0.961 . S
C1918 C1917 1.502 . S
C1919 H1905 0.960 . S
C1919 H1906 0.961 . S
C1919 H1907 0.959 . S
C1919 C1917 1.561 . S
C1920 C1917 1.526 . S
C1920 C1921 1.396 . S
C1920 C1925 1.390 . S
C1921 C1915 1.465 . S
C1921 C1920 1.396 . S
C1921 C1922 1.399 . S
C1922 H1908 0.929 . S
C1922 C1921 1.399 . S
C1922 C1923 1.385 . S
C1923 H1909 0.931 . S
C1923 C1922 1.385 . S
C1923 C1924 1.389 . S
C1924 C1923 1.389 . S
C1924 C1925 1.387 . S
C1925 H1910 0.930 . S
C1925 C1920 1.390 . S
C1925 C1924 1.387 . S
H1926 C1938 0.930 . S
H1927 C1940 0.930 . S
H1928 C1941 0.930 . S
H1929 C1945 0.959 . S
H1930 C1945 0.959 . S
H1931 C1945 0.961 . S
H1932 C1946 0.960 . S
H1933 C1946 0.961 . S
H1934 C1946 0.959 . S
H1935 C1949 0.929 . S
H1936 C1950 0.931 . S
H1937 C1952 0.930 . S
C1938 H1926 0.930 . S
C1938 C1939 1.399 . S
C1938 C1943 1.399 . S
C1939 C1938 1.399 . S
C1939 C1940 1.376 . S
C1940 H1927 0.930 . S
C1940 C1939 1.376 . S
C1940 C1941 1.388 . S
C1941 H1928 0.930 . S
C1941 C1940 1.388 . S
C1941 C1942 1.390 . S
C1942 C1941 1.390 . S
C1942 C1943 1.394 . S
C1942 C1948 1.465 . S
C1943 C1938 1.399 . S
C1943 C1942 1.394 . S
C1943 C1944 1.516 . S
C1944 C1943 1.516 . S
C1944 C1945 1.502 . S
C1944 C1946 1.561 . S
C1944 C1947 1.526 . S
C1945 H1929 0.959 . S
C1945 H1930 0.959 . S
C1945 H1931 0.961 . S
C1945 C1944 1.502 . S
C1946 H1932 0.960 . S
C1946 H1933 0.961 . S
C1946 H1934 0.959 . S
C1946 C1944 1.561 . S
C1947 C1944 1.526 . S
C1947 C1948 1.396 . S
C1947 C1952 1.390 . S
C1948 C1942 1.465 . S
C1948 C1947 1.396 . S
C1948 C1949 1.399 . S
C1949 H1935 0.929 . S
C1949 C1948 1.399 . S
C1949 C1950 1.385 . S
C1950 H1936 0.931 . S
C1950 C1949 1.385 . S
C1950 C1951 1.389 . S
C1951 C1950 1.389 . S
C1951 C1952 1.387 . S
C1952 H1937 0.930 . S
C1952 C1947 1.390 . S
C1952 C1951 1.387 . S
H1953 C1965 0.930 . S
H1954 C1967 0.930 . S
H1955 C1968 0.930 . S
H1956 C1972 0.959 . S
H1957 C1972 0.959 . S
H1958 C1972 0.961 . S
H1959 C1973 0.960 . S
H1960 C1973 0.961 . S
H1961 C1973 0.959 . S
H1962 C1976 0.929 . S
H1963 C1977 0.931 . S
H1964 C1979 0.930 . S
C1965 H1953 0.930 . S
C1965 C1966 1.399 . S
C1965 C1970 1.399 . S
C1966 C1965 1.399 . S
C1966 C1967 1.376 . S
C1967 H1954 0.930 . S
C1967 C1966 1.376 . S
C1967 C1968 1.388 . S
C1968 H1955 0.930 . S
C1968 C1967 1.388 . S
C1968 C1969 1.390 . S
C1969 C1968 1.390 . S
C1969 C1970 1.394 . S
C1969 C1975 1.465 . S
C1970 C1965 1.399 . S
C1970 C1969 1.394 . S
C1970 C1971 1.516 . S
C1971 C1970 1.516 . S
C1971 C1972 1.502 . S
C1971 C1973 1.561 . S
C1971 C1974 1.526 . S
C1972 H1956 0.959 . S
C1972 H1957 0.959 . S
C1972 H1958 0.961 . S
C1972 C1971 1.502 . S
C1973 H1959 0.960 . S
C1973 H1960 0.961 . S
C1973 H1961 0.959 . S
C1973 C1971 1.561 . S
C1974 C1971 1.526 . S
C1974 C1975 1.396 . S
C1974 C1979 1.390 . S
C1975 C1969 1.465 . S
C1975 C1974 1.396 . S
C1975 C1976 1.399 . S
C1976 H1962 0.929 . S
C1976 C1975 1.399 . S
C1976 C1977 1.385 . S
C1977 H1963 0.931 . S
C1977 C1976 1.385 . S
C1977 C1978 1.389 . S
C1978 C1977 1.389 . S
C1978 C1979 1.387 . S
C1979 H1964 0.930 . S
C1979 C1974 1.390 . S
C1979 C1978 1.387 . S
C1021 C226 1.147 . S
C1033 C55 1.251 . S
C1048 C322 1.048 . S
C1060 C151 1.278 . S
C1075 C223 1.248 . S
C1087 C394 1.187 . S
C1102 C319 1.270 . S
C1114 C490 1.107 . S
C1129 C58 1.164 . S
C1141 C391 1.248 . S
C1156 C154 1.177 . S
C1168 C487 1.245 . S
C1183 C910 1.042 . S
C1195 C571 1.278 . S
C1210 C643 1.259 . S
C1222 C982 1.143 . S
C1237 C739 1.272 . S
C1249 C574 1.042 . S
C1264 C811 1.276 . S
C1276 C646 1.035 . S
C1291 C907 1.265 . S
C1303 C742 1.132 . S
C1318 C814 1.192 . S
C1330 C979 1.244 . S
C1345 C320 1.905 . S
C1357 C56 1.896 . S
C1372 C152 1.949 . S
C1384 C392 1.951 . S
C1399 C224 1.886 . S
C1411 C488 1.894 . S
C1426 C572 1.950 . S
C1438 C812 1.951 . S
C1453 C644 1.882 . S
C1465 C908 1.880 . S
C1480 C740 1.940 . S
C1492 C980 1.931 . S
C1507 C656 2.171 . S
C1519 C68 2.139 . S
C1534 C140 2.155 . S
C1546 C728 2.174 . S
C1561 C824 2.162 . S
C1573 C236 2.169 . S
C1588 C308 2.137 . S
C1600 C896 2.160 . S
C1615 C404 2.140 . S
C1627 C992 2.173 . S
C1642 C560 2.137 . S
C1654 C476 2.161 . S
C1669 C238 1.199 . S
C1681 C67 1.422 . S
C1696 C139 1.426 . S
C1708 C310 1.282 . S
C1723 C235 1.434 . S
C1735 C406 1.196 . S
C1750 C307 1.401 . S
C1762 C478 1.226 . S
C1777 C70 1.312 . S
C1789 C403 1.404 . S
C1804 C142 1.198 . S
C1816 C475 1.433 . S
C1831 C898 1.290 . S
C1843 C559 1.393 . S
C1858 C655 1.416 . S
C1870 C994 1.276 . S
C1885 C727 1.413 . S
C1897 C562 1.317 . S
C1912 C658 1.179 . S
C1924 C823 1.432 . S
C1939 C895 1.416 . S
C1951 C730 1.311 . S
C1966 C991 1.393 . S
C1978 C826 1.324 . S
