# Generated by pormake.
# Topology wjd, (6)-cn, num edge types: 1
# Building blocks:
#     Node 0, Type 0, BuildingBlock: BETDIP_clean_sbu_0, # of connection points: 6
#     Node 1, Type 0, BuildingBlock: BETDIP_clean_sbu_0, # of connection points: 6
#     Node 2, Type 0, BuildingBlock: BETDIP_clean_sbu_0, # of connection points: 6
#     Node 3, Type 0, BuildingBlock: BETDIP_clean_sbu_0, # of connection points: 6
#     Node 4, Type 0, BuildingBlock: BETDIP_clean_sbu_0, # of connection points: 6
#     Node 5, Type 0, BuildingBlock: BETDIP_clean_sbu_0, # of connection points: 6
#     Node 6, Type 0, BuildingBlock: BETDIP_clean_sbu_0, # of connection points: 6
#     Node 7, Type 0, BuildingBlock: BETDIP_clean_sbu_0, # of connection points: 6
#     Node 8, Type 0, BuildingBlock: BETDIP_clean_sbu_0, # of connection points: 6
#     Node 9, Type 0, BuildingBlock: BETDIP_clean_sbu_0, # of connection points: 6
#     Node 10, Type 0, BuildingBlock: BETDIP_clean_sbu_0, # of connection points: 6
#     Node 11, Type 0, BuildingBlock: BETDIP_clean_sbu_0, # of connection points: 6
#     Edge 12, Type (0, 0), BuildingBlock: UVAHIK_clean_linker_0, # of connection points: 2
#     Edge 13, Type (0, 0), BuildingBlock: UVAHIK_clean_linker_0, # of connection points: 2
#     Edge 14, Type (0, 0), BuildingBlock: UVAHIK_clean_linker_0, # of connection points: 2
#     Edge 15, Type (0, 0), BuildingBlock: UVAHIK_clean_linker_0, # of connection points: 2
#     Edge 16, Type (0, 0), BuildingBlock: UVAHIK_clean_linker_0, # of connection points: 2
#     Edge 17, Type (0, 0), BuildingBlock: UVAHIK_clean_linker_0, # of connection points: 2
#     Edge 18, Type (0, 0), BuildingBlock: UVAHIK_clean_linker_0, # of connection points: 2
#     Edge 19, Type (0, 0), BuildingBlock: UVAHIK_clean_linker_0, # of connection points: 2
#     Edge 20, Type (0, 0), BuildingBlock: UVAHIK_clean_linker_0, # of connection points: 2
#     Edge 21, Type (0, 0), BuildingBlock: UVAHIK_clean_linker_0, # of connection points: 2
#     Edge 22, Type (0, 0), BuildingBlock: UVAHIK_clean_linker_0, # of connection points: 2
#     Edge 23, Type (0, 0), BuildingBlock: UVAHIK_clean_linker_0, # of connection points: 2
#     Edge 24, Type (0, 0), BuildingBlock: UVAHIK_clean_linker_0, # of connection points: 2
#     Edge 25, Type (0, 0), BuildingBlock: UVAHIK_clean_linker_0, # of connection points: 2
#     Edge 26, Type (0, 0), BuildingBlock: UVAHIK_clean_linker_0, # of connection points: 2
#     Edge 27, Type (0, 0), BuildingBlock: UVAHIK_clean_linker_0, # of connection points: 2
#     Edge 28, Type (0, 0), BuildingBlock: UVAHIK_clean_linker_0, # of connection points: 2
#     Edge 29, Type (0, 0), BuildingBlock: UVAHIK_clean_linker_0, # of connection points: 2
#     Edge 30, Type (0, 0), BuildingBlock: UVAHIK_clean_linker_0, # of connection points: 2
#     Edge 31, Type (0, 0), BuildingBlock: UVAHIK_clean_linker_0, # of connection points: 2
#     Edge 32, Type (0, 0), BuildingBlock: UVAHIK_clean_linker_0, # of connection points: 2
#     Edge 33, Type (0, 0), BuildingBlock: UVAHIK_clean_linker_0, # of connection points: 2
#     Edge 34, Type (0, 0), BuildingBlock: UVAHIK_clean_linker_0, # of connection points: 2
#     Edge 35, Type (0, 0), BuildingBlock: UVAHIK_clean_linker_0, # of connection points: 2
#     Edge 36, Type (0, 0), BuildingBlock: UVAHIK_clean_linker_0, # of connection points: 2
#     Edge 37, Type (0, 0), BuildingBlock: UVAHIK_clean_linker_0, # of connection points: 2
#     Edge 38, Type (0, 0), BuildingBlock: UVAHIK_clean_linker_0, # of connection points: 2
#     Edge 39, Type (0, 0), BuildingBlock: UVAHIK_clean_linker_0, # of connection points: 2
#     Edge 40, Type (0, 0), BuildingBlock: UVAHIK_clean_linker_0, # of connection points: 2
#     Edge 41, Type (0, 0), BuildingBlock: UVAHIK_clean_linker_0, # of connection points: 2
#     Edge 42, Type (0, 0), BuildingBlock: UVAHIK_clean_linker_0, # of connection points: 2
#     Edge 43, Type (0, 0), BuildingBlock: UVAHIK_clean_linker_0, # of connection points: 2
#     Edge 44, Type (0, 0), BuildingBlock: UVAHIK_clean_linker_0, # of connection points: 2
#     Edge 45, Type (0, 0), BuildingBlock: UVAHIK_clean_linker_0, # of connection points: 2
#     Edge 46, Type (0, 0), BuildingBlock: UVAHIK_clean_linker_0, # of connection points: 2
#     Edge 47, Type (0, 0), BuildingBlock: UVAHIK_clean_linker_0, # of connection points: 2
# Relax obj value: 0.099
# Max RMSD: 0.202
# Mean RMSD: 0.202
data_MOF--net-wjd--node1-BETDIP_clean_sbu_0--edge1-UVAHIK_clean_linker_0
_symmetry_space_group_name_H-M    P1
_symmetry_Int_Tables_number       1
_symmetry_cell_setting            triclinic
loop_
_symmetry_equiv_pos_as_xyz
'x, y, z'
_cell_length_a     49.041495
_cell_length_b     49.086921
_cell_length_c     67.167119
_cell_angle_alpha  89.957719
_cell_angle_beta   90.07046
_cell_angle_gamma 120.07325
loop_
_atom_site_label
_atom_site_type_symbol
_atom_site_fract_x
_atom_site_fract_y
_atom_site_fract_z
_atom_type_partial_charge
Tb0 Tb 0.36669 0.17262 0.1364 0.0
Tb1 Tb 0.33413 0.10485 0.14835 0.0
C2 C 0.40014 0.23142 0.13209 0.0
C3 C 0.43137 0.25968 0.13525 0.0
C4 C 0.44659 0.26702 0.15386 0.0
C5 C 0.47371 0.29639 0.15701 0.0
C6 C 0.48593 0.31898 0.14166 0.0
C7 C 0.47132 0.31089 0.12286 0.0
C8 C 0.44438 0.28163 0.11973 0.0
C9 C 0.34109 0.13092 0.10717 0.0
C10 C 0.40711 0.13954 0.1446 0.0
C11 C 0.2973 0.04623 0.14959 0.0
C12 C 0.2629 0.02485 0.14872 0.0
C13 C 0.25102 0.99569 0.13921 0.0
C14 C 0.21855 0.97487 0.13817 0.0
C15 C 0.19715 0.98271 0.14671 0.0
C16 C 0.20918 1.01227 0.156 0.0
C17 C 0.24174 0.03316 0.15696 0.0
C18 C 0.3605 0.14422 0.1781 0.0
C19 C 0.29487 0.14097 0.14335 0.0
O20 O 0.38272 0.21785 0.14777 0.0
O21 O 0.39767 0.21112 0.11857 0.0
O22 O 0.35583 0.12958 0.12203 0.0
O23 O 0.34106 0.15727 0.10774 0.0
O24 O 0.40597 0.16593 0.14508 0.0
O25 O 0.38112 0.11165 0.14306 0.0
O26 O 0.31043 0.06167 0.13322 0.0
O27 O 0.30845 0.06396 0.16544 0.0
O28 O 0.34603 0.14785 0.16365 0.0
O29 O 0.35873 0.11703 0.17666 0.0
O30 O 0.29432 0.11366 0.14408 0.0
O31 O 0.32153 0.16788 0.14219 0.0
H32 H 0.43697 0.25055 0.16613 0.0
H33 H 0.48434 0.30189 0.17167 0.0
H34 H 0.48044 0.32745 0.11061 0.0
H35 H 0.43302 0.27655 0.10527 0.0
H36 H 0.26692 0.98898 0.13254 0.0
H37 H 0.21022 0.95268 0.13051 0.0
H38 H 0.1935 0.01906 0.16285 0.0
H39 H 0.25037 0.05569 0.16425 0.0
Tb40 Tb 0.79629 0.70445 0.41311 0.0
Tb41 Tb 0.8289 0.66447 0.42156 0.0
C42 C 0.77515 0.74026 0.42082 0.0
C43 C 0.78664 0.77412 0.41765 0.0
C44 C 0.7948 0.79401 0.4343 0.0
C45 C 0.80849 0.82652 0.43191 0.0
C46 C 0.81394 0.83984 0.4128 0.0
C47 C 0.80489 0.8199 0.3961 0.0
C48 C 0.79154 0.78732 0.39849 0.0
C49 C 0.81946 0.69521 0.37981 0.0
C50 C 0.87151 0.73744 0.41747 0.0
C51 C 0.85054 0.6277 0.42298 0.0
C52 C 0.84741 0.59759 0.4161 0.0
C53 C 0.8688 0.59805 0.40202 0.0
C54 C 0.87071 0.57103 0.39831 0.0
C55 C 0.85141 0.54294 0.40871 0.0
C56 C 0.82882 0.54202 0.42201 0.0
C57 C 0.8269 0.56907 0.42572 0.0
C58 C 0.81222 0.68667 0.45238 0.0
C59 C 0.75645 0.63058 0.4092 0.0
O60 O 0.79218 0.73441 0.43329 0.0
O61 O 0.76624 0.72166 0.40515 0.0
O62 O 0.81992 0.68558 0.39708 0.0
O63 O 0.80537 0.7116 0.3809 0.0
O64 O 0.84602 0.74039 0.41846 0.0
O65 O 0.86997 0.70982 0.41647 0.0
O66 O 0.85991 0.65075 0.41005 0.0
O67 O 0.82955 0.62667 0.43554 0.0
O68 O 0.79764 0.67593 0.43637 0.0
O69 O 0.83748 0.6845 0.45201 0.0
O70 O 0.78313 0.62978 0.40942 0.0
O71 O 0.75544 0.65679 0.41254 0.0
H72 H 0.79118 0.78443 0.44924 0.0
H73 H 0.81478 0.84127 0.44504 0.0
H74 H 0.80891 0.82959 0.38119 0.0
H75 H 0.78564 0.77264 0.38535 0.0
H76 H 0.88516 0.61972 0.39452 0.0
H77 H 0.88801 0.57243 0.38773 0.0
H78 H 0.81375 0.52087 0.4304 0.0
H79 H 0.81041 0.56794 0.43685 0.0
Tb80 Tb 0.86352 0.19992 0.13576 0.0
Tb81 Tb 0.93076 0.2363 0.14885 0.0
C82 C 0.80484 0.17452 0.13042 0.0
C83 C 0.77734 0.17907 0.13257 0.0
C84 C 0.7683 0.18535 0.1511 0.0
C85 C 0.73971 0.18511 0.15306 0.0
C86 C 0.7196 0.17863 0.13656 0.0
C87 C 0.72931 0.17338 0.11795 0.0
C88 C 0.75777 0.17355 0.11601 0.0
C89 C 0.90654 0.21577 0.10742 0.0
C90 C 0.89582 0.27374 0.14354 0.0
C91 C 0.98917 0.25788 0.15177 0.0
C92 C 1.00983 0.24406 0.15104 0.0
C93 C 1.00398 0.21951 0.13782 0.0
C94 C 0.02375 0.20656 0.13759 0.0
C95 C 0.0497 0.21783 0.15061 0.0
C96 C 0.0551 0.24215 0.16398 0.0
C97 C 0.03543 0.25513 0.16414 0.0
C98 C 0.88991 0.22323 0.17772 0.0
C99 C 0.89564 0.16107 0.14467 0.0
O100 O 0.81777 0.17139 0.14668 0.0
O101 O 0.82571 0.19102 0.1168 0.0
O102 O 0.90708 0.23221 0.12184 0.0
O103 O 0.88032 0.18914 0.10792 0.0
O104 O 0.86955 0.24599 0.14334 0.0
O105 O 0.92397 0.27616 0.14307 0.0
O106 O 0.9751 0.25773 0.13516 0.0
O107 O 0.97032 0.24989 0.16712 0.0
O108 O 0.88723 0.20501 0.16359 0.0
O109 O 0.91701 0.24889 0.17648 0.0
O110 O 0.92271 0.1881 0.14463 0.0
O111 O 0.8684 0.16009 0.14341 0.0
H112 H 0.78286 0.18964 0.16416 0.0
H113 H 0.73319 0.18968 0.16755 0.0
H114 H 0.71433 0.1679 0.10497 0.0
H115 H 0.764 0.16826 0.10163 0.0
H116 H 0.98421 0.2104 0.12762 0.0
H117 H 1.01899 0.18808 0.12699 0.0
H118 H 0.07442 0.25101 0.17451 0.0
H119 H 0.04015 0.27379 0.1746 0.0
Tb120 Tb 0.33349 0.1048 0.41053 0.0
Tb121 Tb 0.36671 0.17198 0.42329 0.0
C122 C 0.29618 0.0464 0.40805 0.0
C123 C 0.26173 0.02534 0.40876 0.0
C124 C 0.24249 0.03166 0.42117 0.0
C125 C 0.20986 1.01108 0.42166 0.0
C126 C 0.19586 0.9838 0.40975 0.0
C127 C 0.21528 0.97796 0.39713 0.0
C128 C 0.24783 0.99847 0.39669 0.0
C129 C 0.36046 0.14481 0.38118 0.0
C130 C 0.29504 0.14142 0.41666 0.0
C131 C 0.40052 0.2305 0.4286 0.0
C132 C 0.4318 0.25885 0.426 0.0
C133 C 0.44825 0.26618 0.40785 0.0
C134 C 0.47538 0.2957 0.4051 0.0
C135 C 0.48627 0.3184 0.42038 0.0
C136 C 0.47047 0.3103 0.43877 0.0
C137 C 0.44358 0.28089 0.44152 0.0
C138 C 0.34027 0.12934 0.452 0.0
C139 C 0.40635 0.1384 0.41453 0.0
O140 O 0.3099 0.06082 0.42461 0.0
O141 O 0.30702 0.06499 0.39258 0.0
O142 O 0.34607 0.14844 0.39568 0.0
O143 O 0.35846 0.11752 0.38244 0.0
O144 O 0.29411 0.11396 0.41569 0.0
O145 O 0.32192 0.16812 0.41757 0.0
O146 O 0.38344 0.21774 0.41266 0.0
O147 O 0.3977 0.20956 0.44174 0.0
O148 O 0.35518 0.12838 0.43716 0.0
O149 O 0.34057 0.15586 0.45174 0.0
O150 O 0.40566 0.16503 0.41437 0.0
O151 O 0.38012 0.11069 0.41581 0.0
H152 H 0.25269 0.05236 0.43059 0.0
H153 H 0.1957 0.01622 0.43165 0.0
H154 H 0.20531 0.95756 0.38746 0.0
H155 H 0.26221 0.99332 0.38689 0.0
H156 H 0.43958 0.24959 0.3956 0.0
H157 H 0.48699 0.30124 0.39075 0.0
H158 H 0.47856 0.327 0.45096 0.0
H159 H 0.43124 0.27579 0.45562 0.0
Tb160 Tb 0.82835 0.66377 0.13763 0.0
Tb161 Tb 0.79671 0.70435 0.1463 0.0
C162 C 0.8491 0.62629 0.13571 0.0
C163 C 0.84636 0.5965 0.14296 0.0
C164 C 0.86791 0.59744 0.15714 0.0
C165 C 0.87016 0.57066 0.16109 0.0
C166 C 0.85106 0.54235 0.15085 0.0
C167 C 0.82831 0.54095 0.13746 0.0
C168 C 0.82605 0.56775 0.13351 0.0
C169 C 0.81089 0.68552 0.10687 0.0
C170 C 0.7567 0.63076 0.15129 0.0
C171 C 0.77575 0.74038 0.1387 0.0
C172 C 0.78747 0.77432 0.14171 0.0
C173 C 0.79643 0.79422 0.12502 0.0
C174 C 0.8101 0.82673 0.12733 0.0
C175 C 0.81471 0.84006 0.1464 0.0
C176 C 0.80489 0.82012 0.16312 0.0
C177 C 0.79155 0.78754 0.16082 0.0
C178 C 0.82052 0.69549 0.17946 0.0
C179 C 0.87178 0.73661 0.1412 0.0
O180 O 0.86011 0.65024 0.14803 0.0
O181 O 0.82691 0.62471 0.12399 0.0
O182 O 0.79676 0.6752 0.12305 0.0
O183 O 0.8361 0.68327 0.10706 0.0
O184 O 0.78335 0.62995 0.151 0.0
O185 O 0.75563 0.65682 0.14747 0.0
O186 O 0.79235 0.73419 0.12611 0.0
O187 O 0.76713 0.722 0.15447 0.0
O188 O 0.8206 0.68554 0.16223 0.0
O189 O 0.8066 0.71203 0.17839 0.0
O190 O 0.84644 0.73985 0.14033 0.0
O191 O 0.86989 0.70885 0.14238 0.0
H192 H 0.88414 0.61927 0.16453 0.0
H193 H 0.8876 0.57242 0.17173 0.0
H194 H 0.8134 0.51963 0.12917 0.0
H195 H 0.80948 0.56627 0.12229 0.0
H196 H 0.7934 0.78464 0.11012 0.0
H197 H 0.81697 0.84147 0.11417 0.0
H198 H 0.80823 0.82982 0.17799 0.0
H199 H 0.78496 0.77286 0.17399 0.0
Tb200 Tb 0.93016 0.23609 0.40971 0.0
Tb201 Tb 0.86249 0.19901 0.42175 0.0
C202 C 0.98872 0.25798 0.40801 0.0
C203 C 1.00931 0.24411 0.4092 0.0
C204 C 0.03738 0.25966 0.42012 0.0
C205 C 0.05716 0.24689 0.42166 0.0
C206 C 0.04939 0.21829 0.41218 0.0
C207 C 0.02092 0.20251 0.40145 0.0
C208 C 1.00103 0.21523 0.40004 0.0
C209 C 0.89041 0.22303 0.3802 0.0
C210 C 0.89546 0.16084 0.41322 0.0
C211 C 0.80359 0.17225 0.42624 0.0
C212 C 0.77553 0.17595 0.42525 0.0
C213 C 0.76887 0.18901 0.40859 0.0
C214 C 0.73977 0.18785 0.40703 0.0
C215 C 0.71683 0.17347 0.42203 0.0
C216 C 0.72424 0.16167 0.439 0.0
C217 C 0.75322 0.16287 0.44056 0.0
C218 C 0.9046 0.21504 0.45075 0.0
C219 C 0.89455 0.27305 0.41472 0.0
O220 O 0.97384 0.25687 0.42439 0.0
O221 O 0.97064 0.25094 0.39228 0.0
O222 O 0.88725 0.20464 0.39435 0.0
O223 O 0.91733 0.24882 0.38177 0.0
O224 O 0.9224 0.18796 0.4138 0.0
O225 O 0.8681 0.15967 0.41393 0.0
O226 O 0.81734 0.17254 0.40948 0.0
O227 O 0.82376 0.18658 0.44064 0.0
O228 O 0.90535 0.2315 0.43627 0.0
O229 O 0.87869 0.18816 0.44985 0.0
O230 O 0.86833 0.24523 0.41482 0.0
O231 O 0.92278 0.27563 0.41531 0.0
H232 H 0.04399 0.28172 0.42754 0.0
H233 H 0.07847 0.25938 0.43044 0.0
H234 H 1.01422 0.1806 0.39385 0.0
H235 H 0.97927 0.20254 0.3917 0.0
H236 H 0.78566 0.19917 0.39652 0.0
H237 H 0.73478 0.19709 0.39374 0.0
H238 H 0.70739 0.15101 0.451 0.0
H239 H 0.75782 0.15261 0.45352 0.0
Tb240 Tb 0.10694 0.32263 0.64607 0.0
Tb241 Tb 0.17956 0.36223 0.63688 0.0
C242 C 0.04914 0.28847 0.63963 0.0
C243 C 0.02587 0.2555 0.64387 0.0
C244 C 0.99636 0.24179 0.6346 0.0
C245 C 0.97535 0.20952 0.63645 0.0
C246 C 0.9835 0.19033 0.64761 0.0
C247 C 1.01297 0.2044 0.65723 0.0
C248 C 0.03402 0.23673 0.65534 0.0
C249 C 0.14052 0.33085 0.67879 0.0
C250 C 0.14781 0.28893 0.6395 0.0
C251 C 0.2382 0.39821 0.63573 0.0
C252 C 0.26557 0.42702 0.64384 0.0
C253 C 0.28619 0.42414 0.65709 0.0
C254 C 0.3153 0.45027 0.66192 0.0
C255 C 0.32461 0.4799 0.65353 0.0
C256 C 0.30329 0.48314 0.64109 0.0
C257 C 0.27413 0.45696 0.63623 0.0
C258 C 0.1401 0.34078 0.60623 0.0
C259 C 0.14218 0.39641 0.65069 0.0
O260 O 0.07105 0.29208 0.62698 0.0
O261 O 0.0605 0.30755 0.65498 0.0
O262 O 0.15 0.34077 0.66149 0.0
O263 O 0.10998 0.31463 0.67807 0.0
O264 O 0.1195 0.28632 0.6397 0.0
O265 O 0.17437 0.31623 0.64038 0.0
O266 O 0.22418 0.37359 0.64749 0.0
O267 O 0.21842 0.40128 0.62403 0.0
O268 O 0.13633 0.35101 0.62249 0.0
O269 O 0.16789 0.34378 0.60619 0.0
O270 O 0.16942 0.39681 0.64998 0.0
O271 O 0.11465 0.37052 0.6473 0.0
H272 H 0.98995 0.25588 0.62541 0.0
H273 H 0.95314 0.19946 0.62853 0.0
H274 H 1.01988 0.1904 0.66608 0.0
H275 H 0.05694 0.24695 0.6624 0.0
H276 H 0.28046 0.40137 0.66304 0.0
H277 H 0.33094 0.44705 0.6718 0.0
H278 H 0.3098 0.50557 0.63425 0.0
H279 H 0.25899 0.45997 0.6258 0.0
Tb280 Tb 0.20865 0.85396 0.92166 0.0
Tb281 Tb 0.24384 0.9265 0.91208 0.0
C282 C 0.18473 0.79537 0.92492 0.0
C283 C 0.1868 0.76683 0.92126 0.0
C284 C 0.19475 0.75977 0.90262 0.0
C285 C 0.19221 0.73031 0.89931 0.0
C286 C 0.18131 0.70747 0.91452 0.0
C287 C 0.17458 0.71524 0.93329 0.0
C288 C 0.17733 0.74456 0.93661 0.0
C289 C 0.22541 0.89411 0.95178 0.0
C290 C 0.28157 0.89021 0.90963 0.0
C291 C 0.26642 0.98399 0.91913 0.0
C292 C 0.25556 1.00699 0.91634 0.0
C293 C 0.24542 0.01679 0.93303 0.0
C294 C 0.23299 0.03672 0.93086 0.0
C295 C 0.23083 0.04777 0.91198 0.0
C296 C 0.24183 0.03881 0.8953 0.0
C297 C 0.25396 0.01847 0.89744 0.0
C298 C 0.22014 0.89285 0.87925 0.0
C299 C 0.16854 0.88633 0.91494 0.0
O300 O 0.17937 0.80899 0.90978 0.0
O301 O 0.2038 0.81547 0.93819 0.0
O302 O 0.24066 0.89698 0.93617 0.0
O303 O 0.1993 0.86738 0.9512 0.0
O304 O 0.25453 0.86314 0.91103 0.0
O305 O 0.28362 0.91816 0.91162 0.0
O306 O 0.24988 0.9616 0.93197 0.0
O307 O 0.27397 0.97347 0.90327 0.0
O308 O 0.21928 0.88347 0.89676 0.0
O309 O 0.23494 0.92342 0.87977 0.0
O310 O 0.19449 0.91431 0.91667 0.0
O311 O 0.16895 0.85962 0.91443 0.0
H312 H 0.20203 0.77657 0.89051 0.0
H313 H 0.19755 0.72495 0.88469 0.0
H314 H 0.16666 0.69838 0.94539 0.0
H315 H 0.17101 0.74947 0.95108 0.0
H316 H 0.24666 1.0086 0.94781 0.0
H317 H 0.22523 0.04366 0.94402 0.0
H318 H 0.24042 0.04698 0.88056 0.0
H319 H 0.26163 1.01144 0.88428 0.0
Tb320 Tb 0.70982 0.79033 0.64779 0.0
Tb321 Tb 0.67017 0.82236 0.63697 0.0
C322 C 0.74478 0.7674 0.64226 0.0
C323 C 0.77795 0.77795 0.64667 0.0
C324 C 0.79104 0.7598 0.64038 0.0
C325 C 0.82334 0.77117 0.64256 0.0
C326 C 0.84313 0.80102 0.65097 0.0
C327 C 0.8297 0.81888 0.6576 0.0
C328 C 0.79737 0.80742 0.65548 0.0
C329 C 0.69978 0.8152 0.67998 0.0
C330 C 0.74291 0.86505 0.64203 0.0
C331 C 0.63411 0.84443 0.63259 0.0
C332 C 0.60403 0.84288 0.63733 0.0
C333 C 0.59168 0.83774 0.65673 0.0
C334 C 0.56524 0.84075 0.66084 0.0
C335 C 0.55109 0.8493 0.64567 0.0
C336 C 0.56293 0.85322 0.6262 0.0
C337 C 0.58906 0.85002 0.62211 0.0
C338 C 0.69385 0.80466 0.60748 0.0
C339 C 0.63578 0.75105 0.65131 0.0
O340 O 0.74065 0.78478 0.62914 0.0
O341 O 0.72571 0.76002 0.65758 0.0
O342 O 0.69048 0.81474 0.66246 0.0
O343 O 0.71641 0.80133 0.67978 0.0
O344 O 0.74599 0.83963 0.64167 0.0
O345 O 0.71521 0.86344 0.64253 0.0
O346 O 0.65564 0.85363 0.6466 0.0
O347 O 0.63331 0.82249 0.62108 0.0
O348 O 0.68223 0.79048 0.62349 0.0
O349 O 0.69191 0.83 0.60714 0.0
O350 O 0.63501 0.77761 0.64976 0.0
O351 O 0.66201 0.74975 0.6488 0.0
H352 H 0.77643 0.73718 0.63332 0.0
H353 H 0.83296 0.75699 0.63706 0.0
H354 H 0.84421 0.84178 0.66434 0.0
H355 H 0.78763 0.82184 0.66032 0.0
H356 H 0.60294 0.8323 0.66874 0.0
H357 H 0.55662 0.83759 0.67599 0.0
H358 H 0.55223 0.85924 0.61414 0.0
H359 H 0.59824 0.85415 0.60706 0.0
Tb360 Tb 0.17984 0.36165 0.91984 0.0
Tb361 Tb 0.10703 0.32282 0.91147 0.0
C362 C 0.23854 0.39756 0.92139 0.0
C363 C 0.26618 0.42636 0.9135 0.0
C364 C 0.28722 0.42339 0.90074 0.0
C365 C 0.31647 0.44948 0.89614 0.0
C366 C 0.32552 0.47919 0.9043 0.0
C367 C 0.30382 0.48252 0.91626 0.0
C368 C 0.27451 0.45636 0.92089 0.0
C369 C 0.14112 0.33861 0.95078 0.0
C370 C 0.14249 0.39672 0.90795 0.0
C371 C 0.0495 0.28861 0.91879 0.0
C372 C 0.02592 0.25561 0.91485 0.0
C373 C 0.9967 0.24227 0.92442 0.0
C374 C 0.97545 0.21 0.9229 0.0
C375 C 0.98306 0.19041 0.91176 0.0
C376 C 1.01223 0.20411 0.90181 0.0
C377 C 0.03352 0.23645 0.90338 0.0
C378 C 0.13945 0.3327 0.87804 0.0
C379 C 0.14807 0.28885 0.91403 0.0
O380 O 0.22462 0.37308 0.90953 0.0
O381 O 0.21863 0.4006 0.93292 0.0
O382 O 0.13722 0.35001 0.93508 0.0
O383 O 0.16849 0.3407 0.95004 0.0
O384 O 0.16967 0.39691 0.90772 0.0
O385 O 0.11506 0.37083 0.91156 0.0
O386 O 0.07197 0.29229 0.931 0.0
O387 O 0.06018 0.3076 0.90336 0.0
O388 O 0.14947 0.34188 0.89537 0.0
O389 O 0.10893 0.31628 0.87913 0.0
O390 O 0.11992 0.28625 0.9162 0.0
O391 O 0.17443 0.3163 0.91293 0.0
H392 H 0.28167 0.40057 0.89497 0.0
H393 H 0.33241 0.44619 0.88663 0.0
H394 H 0.31012 0.50502 0.92291 0.0
H395 H 0.25904 0.45944 0.93097 0.0
H396 H 0.9907 0.25665 0.9336 0.0
H397 H 0.95349 0.20025 0.93105 0.0
H398 H 1.01874 0.18982 0.89296 0.0
H399 H 0.05621 0.24638 0.89608 0.0
Tb400 Tb 0.24244 0.92521 0.64766 0.0
Tb401 Tb 0.21041 0.85307 0.63796 0.0
C402 C 0.265 0.983 0.64182 0.0
C403 C 0.2541 1.00547 0.64587 0.0
C404 C 0.22181 0.99496 0.64765 0.0
C405 C 0.21121 0.01652 0.6491 0.0
C406 C 0.23274 0.04911 0.64905 0.0
C407 C 0.26523 0.05944 0.64822 0.0
C408 C 0.27577 0.0378 0.64654 0.0
C409 C 0.21854 0.89113 0.68038 0.0
C410 C 0.16753 0.88276 0.64331 0.0
C411 C 0.18936 0.79481 0.6352 0.0
C412 C 0.19031 0.76718 0.6433 0.0
C413 C 0.16649 0.74646 0.65634 0.0
C414 C 0.16321 0.71723 0.66107 0.0
C415 C 0.18355 0.70788 0.65278 0.0
C416 C 0.20836 0.72923 0.64052 0.0
C417 C 0.21162 0.7585 0.63575 0.0
C418 C 0.22718 0.89323 0.60769 0.0
C419 C 0.28167 0.89092 0.65221 0.0
O420 O 0.24817 0.96125 0.62864 0.0
O421 O 0.27246 0.9717 0.65731 0.0
O422 O 0.21878 0.88194 0.66297 0.0
O423 O 0.23218 0.92161 0.67978 0.0
O424 O 0.19284 0.91129 0.6419 0.0
O425 O 0.16935 0.85683 0.6442 0.0
O426 O 0.17646 0.80734 0.64626 0.0
O427 O 0.21369 0.81591 0.62504 0.0
O428 O 0.24166 0.89663 0.6237 0.0
O429 O 0.20227 0.86554 0.6077 0.0
O430 O 0.25485 0.8636 0.65185 0.0
O431 O 0.28312 0.9182 0.6484 0.0
H432 H 0.20466 0.97008 0.64725 0.0
H433 H 0.18606 1.00757 0.64947 0.0
H434 H 0.28255 0.0843 0.64858 0.0
H435 H 0.3008 0.04635 0.64528 0.0
H436 H 0.14944 0.75222 0.66224 0.0
H437 H 0.14415 0.70155 0.6708 0.0
H438 H 0.22429 0.72269 0.63374 0.0
H439 H 0.22995 0.77366 0.62543 0.0
Tb440 Tb 0.66968 0.82111 0.92129 0.0
Tb441 Tb 0.71047 0.78989 0.91179 0.0
C442 C 0.63235 0.84205 0.92349 0.0
C443 C 0.60348 0.84054 0.91544 0.0
C444 C 0.60609 0.86334 0.90169 0.0
C445 C 0.57997 0.86639 0.89699 0.0
C446 C 0.55063 0.84683 0.90601 0.0
C447 C 0.54761 0.82295 0.91897 0.0
C448 C 0.57378 0.81992 0.9237 0.0
C449 C 0.69152 0.803 0.95165 0.0
C450 C 0.6369 0.75022 0.90629 0.0
C451 C 0.74607 0.76817 0.91884 0.0
C452 C 0.78001 0.77948 0.91607 0.0
C453 C 0.79971 0.78837 0.93288 0.0
C454 C 0.83218 0.80126 0.93079 0.0
C455 C 0.84568 0.80513 0.91183 0.0
C456 C 0.82595 0.79541 0.895 0.0
C457 C 0.7934 0.78283 0.89707 0.0
C458 C 0.70153 0.81473 0.87914 0.0
C459 C 0.74263 0.86454 0.91785 0.0
O460 O 0.65752 0.8544 0.91215 0.0
O461 O 0.62944 0.81835 0.9342 0.0
O462 O 0.68134 0.7893 0.93532 0.0
O463 O 0.6888 0.82791 0.9519 0.0
O464 O 0.63609 0.77681 0.90719 0.0
O465 O 0.66296 0.74899 0.90987 0.0
O466 O 0.73987 0.78434 0.93175 0.0
O467 O 0.72805 0.76055 0.90291 0.0
O468 O 0.69155 0.81415 0.89646 0.0
O469 O 0.7183 0.80101 0.87982 0.0
O470 O 0.74602 0.8393 0.91827 0.0
O471 O 0.71483 0.86261 0.91681 0.0
H472 H 0.62867 0.87985 0.89521 0.0
H473 H 0.58298 0.88472 0.88671 0.0
H474 H 0.52543 0.80766 0.92632 0.0
H475 H 0.57101 0.8024 0.93457 0.0
H476 H 0.79 0.78581 0.9477 0.0
H477 H 0.84674 0.80806 0.94404 0.0
H478 H 0.83579 0.79818 0.88021 0.0
H479 H 0.77887 0.7762 0.88382 0.0
C480 C 0.10396 0.2248 0.15286 0.0
C481 C 0.07138 0.20476 0.1502 0.0
C482 C 0.1244 0.21277 0.15318 0.0
C483 C 0.13423 0.14662 0.13736 0.0
H484 H 0.20074 0.1811 0.17698 0.0
C485 C 0.2353 0.11539 0.14375 0.0
C486 C 0.26541 0.1424 0.1449 0.0
C487 C 0.20808 0.11798 0.14545 0.0
C488 C 0.18226 0.17116 0.16585 0.0
H489 H 0.03493 0.15617 0.14544 0.0
H490 H 0.07097 0.13523 0.1457 0.0
H491 H 0.15982 0.19535 0.17771 0.0
H492 H 0.2903 0.19325 0.14875 0.0
H493 H 0.24355 0.19749 0.15172 0.0
H494 H 0.15753 0.12313 0.12521 0.0
C495 C 0.0805 0.16031 0.14757 0.0
C496 C 0.15888 0.17941 0.16622 0.0
C497 C 0.0599 0.17235 0.14738 0.0
C498 C 0.26764 0.17184 0.14777 0.0
C499 C 0.24074 0.17433 0.14965 0.0
C500 C 0.15779 0.13834 0.13697 0.0
C501 C 0.11294 0.18038 0.15074 0.0
C502 C 0.13516 0.16807 0.15163 0.0
C503 C 0.21065 0.14754 0.14865 0.0
C504 C 0.18261 0.15138 0.15085 0.0
H505 H 0.11381 0.24994 0.15456 0.0
H506 H 0.14937 0.22899 0.15518 0.0
H507 H 0.11623 0.13749 0.12592 0.0
H508 H 0.23277 0.09239 0.1415 0.0
H509 H 0.18512 0.09693 0.14458 0.0
C510 C 0.1394 0.97166 0.41209 0.0
C511 C 0.16129 0.96115 0.41061 0.0
C512 C 0.10693 0.95008 0.41233 0.0
C513 C 0.04959 0.86866 0.39735 0.0
H514 H 0.99306 0.87438 0.43526 0.0
C515 C 0.93002 0.76231 0.41523 0.0
C516 C 0.90339 0.76591 0.41684 0.0
C517 C 0.96015 0.78842 0.41381 0.0
C518 C 1.00847 0.87276 0.42438 0.0
H519 H 0.16601 0.91955 0.4091 0.0
H520 H 0.10976 0.88221 0.4093 0.0
H521 H 0.04858 0.91598 0.4341 0.0
H522 H 0.88791 0.80021 0.41863 0.0
H523 H 0.94115 0.84626 0.41619 0.0
H524 H 1.00992 0.82539 0.38779 0.0
C525 C 0.1176 0.90712 0.40989 0.0
C526 C 0.04025 0.89654 0.42373 0.0
C527 C 0.14991 0.92858 0.40974 0.0
C528 C 0.90787 0.79656 0.41737 0.0
C529 C 0.93833 0.82292 0.41603 0.0
C530 C 1.018 0.84505 0.39798 0.0
C531 C 0.09568 0.91757 0.41098 0.0
C532 C 0.06131 0.89429 0.41053 0.0
C533 C 0.96475 0.81904 0.41396 0.0
C534 C 0.99723 0.84635 0.41184 0.0
H535 H 0.1473 0.99658 0.41263 0.0
H536 H 0.09063 0.95886 0.41309 0.0
H537 H 0.06499 0.86661 0.38666 0.0
H538 H 0.92773 0.7392 0.41491 0.0
H539 H 0.98001 0.78458 0.41268 0.0
C540 C 0.86859 0.10544 0.15599 0.0
C541 C 0.89515 0.13096 0.14728 0.0
C542 C 0.8667 0.07631 0.15797 0.0
C543 C 0.89024 0.02564 0.13456 0.0
H544 H 0.86003 0.97732 0.18337 0.0
C545 C 0.85712 0.89494 0.13798 0.0
C546 C 0.82972 0.87468 0.14869 0.0
C547 C 0.87053 0.9276 0.13943 0.0
C548 C 0.86824 0.99035 0.16957 0.0
H549 H 0.94088 0.1462 0.13409 0.0
H550 H 0.93708 0.09438 0.13703 0.0
H551 H 0.8745 0.03264 0.18309 0.0
H552 H 0.79497 0.87266 0.16941 0.0
H553 H 0.8177 0.92951 0.17158 0.0
H554 H 0.88233 0.9831 0.12068 0.0
C555 C 0.91794 0.09733 0.14248 0.0
C556 C 0.87679 0.02211 0.16948 0.0
C557 C 0.92014 0.12688 0.14085 0.0
C558 C 0.81628 0.88772 0.16115 0.0
C559 C 0.82946 0.92036 0.16243 0.0
C560 C 0.88133 0.99373 0.13457 0.0
C561 C 0.89111 0.0718 0.15104 0.0
C562 C 0.88717 0.03986 0.15187 0.0
C563 C 0.85666 0.94077 0.15148 0.0
C564 C 0.86948 0.97547 0.15198 0.0
H565 H 0.84907 0.10791 0.16126 0.0
H566 H 0.84562 0.05698 0.16443 0.0
H567 H 0.89787 0.03873 0.12074 0.0
H568 H 0.86824 0.8855 0.12847 0.0
H569 H 0.89176 0.9425 0.13106 0.0
C570 C 0.2355 0.11636 0.4173 0.0
C571 C 0.26573 0.14329 0.41673 0.0
C572 C 0.20848 0.11944 0.41804 0.0
C573 C 0.18497 0.17755 0.43236 0.0
H574 H 0.11373 0.13285 0.3968 0.0
C575 C 0.10402 0.22593 0.41286 0.0
C576 C 0.07123 0.20543 0.41329 0.0
C577 C 0.12473 0.21433 0.41446 0.0
C578 C 0.13327 0.14517 0.40701 0.0
H579 H 0.29096 0.19449 0.41584 0.0
H580 H 0.24462 0.19959 0.41702 0.0
H581 H 0.1553 0.11885 0.39775 0.0
H582 H 0.03466 0.15632 0.41542 0.0
H583 H 0.07113 0.13603 0.4178 0.0
H584 H 0.16379 0.20456 0.44116 0.0
C585 C 0.24155 0.17614 0.41732 0.0
C586 C 0.15699 0.1371 0.40759 0.0
C587 C 0.26824 0.17312 0.41652 0.0
C588 C 0.05974 0.17282 0.41487 0.0
C589 C 0.08058 0.16115 0.41628 0.0
C590 C 0.16151 0.18565 0.4317 0.0
C591 C 0.21137 0.14948 0.41838 0.0
C592 C 0.18359 0.15394 0.41983 0.0
C593 C 0.1133 0.18187 0.41636 0.0
C594 C 0.13588 0.17023 0.41862 0.0
H595 H 0.23273 0.09304 0.4174 0.0
H596 H 0.18547 0.09845 0.41878 0.0
H597 H 0.20479 0.19047 0.4423 0.0
H598 H 0.11382 0.25107 0.41112 0.0
H599 H 0.14984 0.23085 0.41405 0.0
C600 C 0.14063 0.97002 0.14297 0.0
C601 C 0.16257 0.95987 0.14606 0.0
C602 C 0.10828 0.9482 0.14176 0.0
C603 C 0.05375 0.86475 0.13009 0.0
H604 H 0.99077 0.87523 0.15847 0.0
C605 C 0.93028 0.76079 0.14286 0.0
C606 C 0.90391 0.76479 0.14104 0.0
C607 C 0.96074 0.78656 0.14254 0.0
C608 C 1.00802 0.87221 0.1502 0.0
H609 H 0.16724 0.91875 0.15123 0.0
H610 H 0.11122 0.88095 0.14883 0.0
H611 H 0.04629 0.9168 0.15988 0.0
H612 H 0.8892 0.79951 0.13776 0.0
H613 H 0.94298 0.84494 0.13707 0.0
H614 H 1.01593 0.82032 0.12045 0.0
C615 C 0.11904 0.90572 0.14699 0.0
C616 C 0.0398 0.89598 0.15104 0.0
C617 C 0.15123 0.92745 0.14832 0.0
C618 C 0.90894 0.79554 0.13913 0.0
C619 C 0.93973 0.82156 0.13882 0.0
C620 C 0.02215 0.8412 0.12917 0.0
C621 C 0.09719 0.91576 0.14349 0.0
C622 C 0.0631 0.89213 0.14136 0.0
C623 C 0.96599 0.81726 0.14031 0.0
C624 C 0.99895 0.84422 0.1396 0.0
H625 H 0.14848 0.99477 0.141 0.0
H626 H 0.09203 0.95665 0.13897 0.0
H627 H 0.071 0.86139 0.12207 0.0
H628 H 0.92756 0.73761 0.14457 0.0
H629 H 0.9803 0.78236 0.14422 0.0
C630 C 0.85614 0.89468 0.42151 0.0
C631 C 0.82913 0.87447 0.41042 0.0
C632 C 0.86975 0.92735 0.41994 0.0
C633 C 0.86888 0.99021 0.38897 0.0
H634 H 0.89709 0.03871 0.43783 0.0
C635 C 0.86907 0.10542 0.40151 0.0
C636 C 0.89527 0.13087 0.41058 0.0
C637 C 0.8673 0.07634 0.39964 0.0
C638 C 0.88988 0.02559 0.42401 0.0
H639 H 0.79528 0.87254 0.38893 0.0
H640 H 0.8183 0.92942 0.38657 0.0
H641 H 0.88126 0.98302 0.43822 0.0
H642 H 0.94059 0.14609 0.42444 0.0
H643 H 0.93697 0.09432 0.42173 0.0
H644 H 0.8758 0.03254 0.37511 0.0
C645 C 0.82964 0.92023 0.39609 0.0
C646 C 0.88079 0.99363 0.42419 0.0
C647 C 0.81627 0.88757 0.3975 0.0
C648 C 0.9201 0.12681 0.41742 0.0
C649 C 0.91801 0.0973 0.41591 0.0
C650 C 0.87759 0.02201 0.38887 0.0
C651 C 0.85644 0.94059 0.4074 0.0
C652 C 0.86944 0.97532 0.40676 0.0
C653 C 0.89147 0.07179 0.40706 0.0
C654 C 0.88747 0.03981 0.40648 0.0
H655 H 0.86681 0.88519 0.43138 0.0
H656 H 0.89067 0.9422 0.4286 0.0
H657 H 0.86107 0.97714 0.37516 0.0
H658 H 0.84969 0.1079 0.3959 0.0
H659 H 0.84645 0.05704 0.39293 0.0
C660 C 0.19393 0.06615 0.6591 0.0
C661 C 0.22124 0.07206 0.64865 0.0
C662 C 0.18212 0.08679 0.65759 0.0
C663 C 0.18683 0.15067 0.62532 0.0
H664 H 0.15267 0.17097 0.67133 0.0
C665 C 0.17814 0.26243 0.6308 0.0
C666 C 0.15051 0.2603 0.6385 0.0
C667 C 0.18234 0.23638 0.63094 0.0
C668 C 0.16168 0.16511 0.65829 0.0
H669 H 0.25758 0.10473 0.62852 0.0
H670 H 0.23797 0.14123 0.62666 0.0
H671 H 0.16968 0.13208 0.67439 0.0
H672 H 0.10533 0.22904 0.65214 0.0
H673 H 0.11304 0.18325 0.65275 0.0
H674 H 0.18002 0.18466 0.60948 0.0
C675 C 0.22513 0.12022 0.63564 0.0
C676 C 0.17145 0.14285 0.66002 0.0
C677 C 0.23676 0.0995 0.63701 0.0
C678 C 0.12681 0.2313 0.64604 0.0
C679 C 0.13128 0.20522 0.6465 0.0
C680 C 0.17738 0.17308 0.62367 0.0
C681 C 0.19742 0.11396 0.64568 0.0
C682 C 0.18476 0.13582 0.64364 0.0
C683 C 0.15919 0.20763 0.63901 0.0
C684 C 0.16526 0.18096 0.64022 0.0
H685 H 0.18154 0.04549 0.66842 0.0
H686 H 0.16066 0.0811 0.66546 0.0
H687 H 0.19612 0.14525 0.61224 0.0
H688 H 0.19677 0.2844 0.62478 0.0
H689 H 0.2042 0.23903 0.62525 0.0
C690 C 0.13228 0.90825 0.91978 0.0
C691 C 0.1376 0.88436 0.91272 0.0
C692 C 0.10228 0.90503 0.91822 0.0
C693 C 0.02756 0.86296 0.89049 0.0
H694 H 0.98801 0.86934 0.93881 0.0
C695 C 0.89291 0.80497 0.89773 0.0
C696 C 0.88028 0.81924 0.9098 0.0
C697 C 0.92549 0.81727 0.89676 0.0
C698 C 0.99879 0.86805 0.92505 0.0
H699 H 0.11608 0.83905 0.89779 0.0
H700 H 0.06427 0.83375 0.89487 0.0
H701 H 0.04356 0.88443 0.93923 0.0
H702 H 0.89179 0.85833 0.92965 0.0
H703 H 0.94868 0.8803 0.92764 0.0
H704 H 0.98298 0.84646 0.87626 0.0
C705 C 0.08306 0.85482 0.90171 0.0
C706 C 0.03065 0.8767 0.92534 0.0
C707 C 0.11271 0.85775 0.90356 0.0
C708 C 0.9009 0.84658 0.92045 0.0
C709 C 0.93349 0.85909 0.91933 0.0
C710 C 0.99583 0.85465 0.89013 0.0
C711 C 0.0774 0.87822 0.90917 0.0
C712 C 0.04511 0.87349 0.90818 0.0
C713 C 0.94622 0.84437 0.90768 0.0
C714 C 0.9808 0.85632 0.90753 0.0
H715 H 0.15105 0.92901 0.92689 0.0
H716 H 0.09849 0.92343 0.92405 0.0
H717 H 0.03827 0.86063 0.87698 0.0
H718 H 0.87754 0.78369 0.88952 0.0
H719 H 0.93431 0.80492 0.88791 0.0
C720 C 0.802 0.9018 0.64182 0.0
C721 C 0.77119 0.89699 0.64204 0.0
C722 C 0.82812 0.93249 0.64175 0.0
C723 C 0.84892 0.01417 0.6294 0.0
H724 H 0.91962 0.04023 0.66538 0.0
C725 C 0.92898 0.1434 0.64958 0.0
C726 C 0.9617 0.15567 0.64844 0.0
C727 C 0.90825 0.11101 0.64856 0.0
C728 C 0.90017 0.03316 0.6551 0.0
H729 H 0.74391 0.92086 0.64274 0.0
H730 H 0.78879 0.97339 0.64277 0.0
H731 H 0.87904 0.98438 0.6632 0.0
H732 H 0.99825 0.14321 0.646 0.0
H733 H 0.96181 0.08638 0.6446 0.0
H734 H 0.86931 0.06276 0.62167 0.0
C735 C 0.793 0.95374 0.64227 0.0
C736 C 0.87705 1.00124 0.6538 0.0
C737 C 0.76716 0.92341 0.64238 0.0
C738 C 0.9732 0.13458 0.6471 0.0
C739 C 0.95238 0.10204 0.64623 0.0
C740 C 0.87178 0.0459 0.63078 0.0
C741 C 0.82378 0.95876 0.64175 0.0
C742 C 0.85073 0.99157 0.64131 0.0
C743 C 0.91968 0.09001 0.64652 0.0
C744 C 0.89722 0.05586 0.644 0.0
H745 H 0.80594 0.88198 0.64165 0.0
H746 H 0.85162 0.93567 0.64137 0.0
H747 H 0.82935 1.0074 0.61927 0.0
H748 H 0.9193 0.15886 0.65109 0.0
H749 H 0.88315 0.10235 0.64925 0.0
C750 C 0.12684 0.23064 0.91875 0.0
C751 C 0.15071 0.2602 0.91204 0.0
C752 C 0.13066 0.20421 0.91735 0.0
C753 C 0.17527 0.17355 0.89049 0.0
H754 H 0.16555 0.12525 0.93829 0.0
C755 C 0.23244 0.09625 0.89845 0.0
C756 C 0.21714 0.06863 0.90987 0.0
C757 C 0.22046 0.11678 0.89746 0.0
C758 C 0.16783 0.13802 0.92466 0.0
H759 H 0.19672 0.28493 0.89796 0.0
H760 H 0.20307 0.23912 0.89538 0.0
H761 H 0.15019 0.16545 0.93855 0.0
H762 H 0.1766 0.04013 0.92852 0.0
H763 H 0.15526 0.0755 0.92645 0.0
H764 H 0.193 0.14641 0.87654 0.0
C765 C 0.18153 0.23626 0.90179 0.0
C766 C 0.15902 0.16109 0.92486 0.0
C767 C 0.17796 0.26259 0.90345 0.0
C768 C 0.18915 0.06152 0.91984 0.0
C769 C 0.17699 0.08186 0.9187 0.0
C770 C 0.18378 0.15031 0.89022 0.0
C771 C 0.1581 0.20683 0.90885 0.0
C772 C 0.16334 0.17958 0.90791 0.0
C773 C 0.19268 0.10998 0.90769 0.0
C774 C 0.18087 0.1327 0.90743 0.0
H775 H 0.10556 0.22805 0.92541 0.0
H776 H 0.11219 0.18173 0.92286 0.0
H777 H 0.17848 0.18719 0.87711 0.0
H778 H 0.25422 0.1025 0.89078 0.0
H779 H 0.23354 0.13843 0.88912 0.0
C780 C 0.10999 0.84973 0.6502 0.0
C781 C 0.13571 0.87916 0.64489 0.0
C782 C 0.07993 0.84565 0.65225 0.0
C783 C 0.02905 0.87623 0.63662 0.0
H784 H 0.97758 0.82541 0.68069 0.0
C785 C 0.8991 0.84529 0.6474 0.0
C786 C 0.87772 0.81372 0.65229 0.0
C787 C 0.93161 0.85681 0.64783 0.0
C788 C 0.99156 0.8395 0.66824 0.0
H789 H 0.14971 0.9274 0.63736 0.0
H790 H 0.09661 0.9201 0.64085 0.0
H791 H 0.03281 0.83982 0.67892 0.0
H792 H 0.87384 0.76975 0.66191 0.0
H793 H 0.93037 0.78962 0.66238 0.0
H794 H 0.98746 0.87519 0.62567 0.0
C795 C 0.10008 0.90027 0.64344 0.0
C796 C 0.02323 0.84782 0.66725 0.0
C797 C 0.13046 0.90446 0.64152 0.0
C798 C 0.88963 0.79409 0.65789 0.0
C799 C 0.92208 0.80561 0.65837 0.0
C800 C 0.99724 0.86783 0.63758 0.0
C801 C 0.07456 0.87082 0.649 0.0
C802 C 0.04214 0.86563 0.65119 0.0
C803 C 0.94348 0.83706 0.65326 0.0
C804 C 0.97795 0.84874 0.65318 0.0
H805 H 0.11299 0.82963 0.65295 0.0
H806 H 0.06071 0.82254 0.65619 0.0
H807 H 0.04299 0.88981 0.624 0.0
H808 H 0.89069 0.86096 0.64282 0.0
H809 H 0.94746 0.8812 0.64395 0.0
C810 C 0.9283 0.14364 0.91049 0.0
C811 C 0.96103 0.15576 0.91125 0.0
C812 C 0.90744 0.11128 0.91171 0.0
C813 C 0.89906 0.03322 0.90509 0.0
H814 H 0.82848 1.00756 0.94101 0.0
C815 C 0.80164 0.90178 0.91837 0.0
C816 C 0.7707 0.89664 0.91826 0.0
C817 C 0.82757 0.93258 0.91854 0.0
C818 C 0.84797 0.0143 0.93084 0.0
H819 H 0.99742 0.143 0.91333 0.0
H820 H 0.96077 0.08626 0.91507 0.0
H821 H 0.86836 0.06293 0.93845 0.0
H822 H 0.74301 0.92008 0.91805 0.0
H823 H 0.78757 0.97283 0.91816 0.0
H824 H 0.87797 0.98441 0.89712 0.0
C825 C 0.95142 0.10201 0.91357 0.0
C826 C 0.87079 0.04604 0.92937 0.0
C827 C 0.97237 0.13451 0.9125 0.0
C828 C 0.76637 0.92288 0.91827 0.0
C829 C 0.79203 0.95334 0.91847 0.0
C830 C 0.87599 1.00129 0.90648 0.0
C831 C 0.91873 0.09014 0.91358 0.0
C832 C 0.89618 0.05598 0.91614 0.0
C833 C 0.82294 0.95868 0.91874 0.0
C834 C 0.84976 0.99162 0.91901 0.0
H835 H 0.91872 0.15921 0.90909 0.0
H836 H 0.88236 0.10277 0.91125 0.0
H837 H 0.91843 0.04023 0.89479 0.0
H838 H 0.80583 0.88211 0.9183 0.0
H839 H 0.85115 0.93598 0.91876 0.0
C840 C 0.35203 0.17714 0.3554 0.0
C841 C 0.36836 0.1622 0.36216 0.0
C842 C 0.35551 0.18773 0.33561 0.0
C843 C 0.40485 0.20347 0.29003 0.0
H844 H 0.3257 0.16919 0.26143 0.0
C845 C 0.38932 0.15892 0.21015 0.0
C846 C 0.36822 0.16139 0.1972 0.0
C847 C 0.39314 0.16995 0.22967 0.0
C848 C 0.34808 0.17964 0.26917 0.0
H849 H 0.40254 0.14848 0.35421 0.0
H850 H 0.40905 0.16725 0.3201 0.0
H851 H 0.32576 0.16944 0.29778 0.0
H852 H 0.33549 0.17858 0.19411 0.0
H853 H 0.34183 0.19767 0.22862 0.0
H854 H 0.42702 0.21213 0.26146 0.0
C855 C 0.39353 0.17088 0.3298 0.0
C856 C 0.34812 0.1798 0.29005 0.0
C857 C 0.38971 0.15996 0.34935 0.0
C858 C 0.35206 0.17658 0.20381 0.0
C859 C 0.35552 0.18725 0.22356 0.0
C860 C 0.40481 0.20329 0.26921 0.0
C861 C 0.3758 0.18403 0.32246 0.0
C862 C 0.3764 0.19051 0.30071 0.0
C863 C 0.37563 0.18342 0.23684 0.0
C864 C 0.37632 0.19018 0.25853 0.0
H865 H 0.33526 0.17895 0.36498 0.0
H866 H 0.34165 0.19792 0.33043 0.0
H867 H 0.4271 0.21245 0.29779 0.0
H868 H 0.40202 0.14726 0.20541 0.0
H869 H 0.40851 0.16621 0.23948 0.0
C870 C 0.84599 0.71573 0.3476 0.0
C871 C 0.833 0.69087 0.36132 0.0
C872 C 0.85382 0.71122 0.32842 0.0
C873 C 0.82718 0.6519 0.29014 0.0
H874 H 0.89837 0.71813 0.26169 0.0
C875 C 0.82954 0.66151 0.20363 0.0
C876 C 0.83401 0.69102 0.19797 0.0
C877 C 0.83655 0.65667 0.22321 0.0
C878 C 0.87851 0.69919 0.2694 0.0
H879 H 0.81864 0.64189 0.36608 0.0
H880 H 0.83164 0.63355 0.33194 0.0
H881 H 0.89808 0.71815 0.29803 0.0
H882 H 0.85078 0.73887 0.20763 0.0
H883 H 0.86391 0.73093 0.2412 0.0
H884 H 0.80672 0.63414 0.26142 0.0
C885 C 0.83623 0.65673 0.33626 0.0
C886 C 0.87836 0.6992 0.29022 0.0
C887 C 0.82904 0.66151 0.35578 0.0
C888 C 0.84734 0.71596 0.21162 0.0
C889 C 0.85495 0.71139 0.23086 0.0
C890 C 0.82732 0.65191 0.26923 0.0
C891 C 0.84824 0.68149 0.32228 0.0
C892 C 0.85204 0.67644 0.30082 0.0
C893 C 0.84883 0.68152 0.23713 0.0
C894 C 0.85233 0.67645 0.25866 0.0
H895 H 0.84905 0.73852 0.35149 0.0
H896 H 0.86257 0.73068 0.31802 0.0
H897 H 0.80649 0.63413 0.29786 0.0
H898 H 0.81886 0.64183 0.19339 0.0
H899 H 0.83154 0.63339 0.22762 0.0
C900 C 0.87424 0.23711 0.20943 0.0
C901 C 0.87225 0.21364 0.19662 0.0
C902 C 0.86297 0.22983 0.22889 0.0
C903 C 0.8537 0.17519 0.26844 0.0
H904 H 0.82155 0.22168 0.29716 0.0
C905 C 0.85763 0.18228 0.35454 0.0
C906 C 0.87305 0.21365 0.36116 0.0
C907 C 0.84662 0.17504 0.33486 0.0
C908 C 0.83032 0.20831 0.28937 0.0
H909 H 0.85546 0.16378 0.19365 0.0
H910 H 0.83587 0.15088 0.22803 0.0
H911 H 0.8212 0.22157 0.26083 0.0
H912 H 0.88716 0.26161 0.35306 0.0
H913 H 0.86767 0.24912 0.31907 0.0
H914 H 0.86431 0.16328 0.29699 0.0
C915 C 0.84617 0.17499 0.22294 0.0
C916 C 0.83013 0.20826 0.26855 0.0
C917 C 0.85713 0.18228 0.20325 0.0
C918 C 0.87537 0.23724 0.3483 0.0
C919 C 0.86402 0.23001 0.32884 0.0
C920 C 0.85387 0.17523 0.2893 0.0
C921 C 0.84969 0.19887 0.23612 0.0
C922 C 0.84306 0.19282 0.25783 0.0
C923 C 0.85035 0.199 0.32165 0.0
C924 C 0.84341 0.19291 0.29998 0.0
H925 H 0.88581 0.26147 0.20465 0.0
H926 H 0.86646 0.2489 0.23863 0.0
H927 H 0.86404 0.16323 0.26067 0.0
H928 H 0.85569 0.16368 0.36418 0.0
H929 H 0.83604 0.15091 0.32979 0.0
C930 C 0.14753 0.31029 0.71069 0.0
C931 C 0.15902 0.33516 0.69701 0.0
C932 C 0.16011 0.31492 0.72982 0.0
C933 C 0.19271 0.37486 0.76785 0.0
H934 H 0.196 0.3084 0.79708 0.0
C935 C 0.18352 0.36574 0.8543 0.0
C936 C 0.15751 0.33665 0.85969 0.0
C937 C 0.19594 0.37028 0.83491 0.0
C938 C 0.19562 0.32743 0.78914 0.0
H939 H 0.19336 0.38426 0.69219 0.0
H940 H 0.21519 0.3928 0.72623 0.0
H941 H 0.1966 0.30815 0.76075 0.0
H942 H 0.12532 0.28914 0.84982 0.0
H943 H 0.14742 0.29654 0.81658 0.0
H944 H 0.18971 0.39298 0.79633 0.0
C945 C 0.19668 0.36952 0.72194 0.0
C946 C 0.19594 0.32727 0.76833 0.0
C947 C 0.18444 0.36462 0.70247 0.0
C948 C 0.14548 0.31175 0.84602 0.0
C949 C 0.15825 0.31599 0.82698 0.0
C950 C 0.19245 0.37504 0.78874 0.0
C951 C 0.18414 0.34478 0.73594 0.0
C952 C 0.19286 0.35006 0.75744 0.0
C953 C 0.18301 0.3455 0.82095 0.0
C954 C 0.19229 0.35041 0.79957 0.0
H955 H 0.12778 0.28742 0.70685 0.0
H956 H 0.14953 0.29546 0.74023 0.0
H957 H 0.19016 0.39267 0.75991 0.0
H958 H 0.19292 0.38538 0.86458 0.0
H959 H 0.21499 0.39329 0.83065 0.0
C960 C 0.20986 0.84876 0.85581 0.0
C961 C 0.2058 0.87417 0.86113 0.0
C962 C 0.20221 0.83617 0.83644 0.0
C963 C 0.1592 0.83498 0.79041 0.0
H964 H 0.23131 0.84276 0.76171 0.0
C965 C 0.1898 0.88291 0.71191 0.0
C966 C 0.20431 0.87234 0.69847 0.0
C967 C 0.18183 0.87028 0.73102 0.0
C968 C 0.21057 0.83955 0.76949 0.0
H969 H 0.18897 0.90505 0.85118 0.0
H970 H 0.17461 0.8826 0.81797 0.0
H971 H 0.23165 0.84323 0.79812 0.0
H972 H 0.22103 0.83953 0.69405 0.0
H973 H 0.20766 0.81759 0.72803 0.0
H974 H 0.13892 0.83327 0.76187 0.0
C975 C 0.18381 0.87236 0.82841 0.0
C976 C 0.21078 0.83983 0.79038 0.0
C977 C 0.19212 0.88533 0.84743 0.0
C978 C 0.20944 0.84772 0.70413 0.0
C979 C 0.20205 0.83542 0.72357 0.0
C980 C 0.15897 0.83464 0.7696 0.0
C981 C 0.18964 0.84832 0.82243 0.0
C982 C 0.18575 0.83913 0.80103 0.0
C983 C 0.18875 0.84712 0.73736 0.0
C984 C 0.18532 0.83854 0.75888 0.0
H985 H 0.22078 0.84009 0.8661 0.0
H986 H 0.20699 0.81768 0.83223 0.0
H987 H 0.13936 0.83392 0.79821 0.0
H988 H 0.18583 0.90205 0.70791 0.0
H989 H 0.17208 0.88022 0.74125 0.0
C990 C 0.66506 0.82356 0.70374 0.0
C991 C 0.69508 0.82961 0.69791 0.0
C992 C 0.66013 0.83075 0.72323 0.0
C993 C 0.7025 0.87438 0.76922 0.0
H994 H 0.63948 0.80106 0.79774 0.0
C995 C 0.72143 0.84245 0.84718 0.0
C996 C 0.69664 0.82847 0.8609 0.0
C997 C 0.71643 0.8503 0.8281 0.0
C998 C 0.65666 0.82209 0.79001 0.0
H999 H 0.74365 0.84947 0.7071 0.0
H1000 H 0.73551 0.86287 0.7405 0.0
H1001 H 0.63908 0.80144 0.76133 0.0
H1002 H 0.64727 0.81242 0.86581 0.0
H1003 H 0.63809 0.82543 0.83186 0.0
H1004 H 0.72138 0.89415 0.79783 0.0
C1005 C 0.71564 0.85259 0.73037 0.0
C1006 C 0.65643 0.82232 0.76911 0.0
C1007 C 0.72035 0.84485 0.71122 0.0
C1008 C 0.66684 0.8236 0.85551 0.0
C1009 C 0.66158 0.8308 0.83609 0.0
C1010 C 0.70278 0.87411 0.79004 0.0
C1011 C 0.68533 0.84471 0.7369 0.0
C1012 C 0.68029 0.84786 0.75849 0.0
C1013 C 0.68628 0.84373 0.82208 0.0
C1014 C 0.68078 0.84737 0.80066 0.0
H1015 H 0.64513 0.81136 0.69378 0.0
H1016 H 0.63652 0.82441 0.72781 0.0
H1017 H 0.72088 0.89466 0.7615 0.0
H1018 H 0.74456 0.84621 0.85096 0.0
H1019 H 0.73587 0.85979 0.81766 0.0
C1020 C 0.26779 0.94209 0.96871 0.0
C1021 C 0.23623 0.9177 0.96807 0.0
C1022 C 0.27828 0.96513 0.98356 0.0
C1023 C 0.25036 1.00068 1.02177 0.0
H1024 H 0.33491 0.03335 0.04245 0.0
C1025 C 0.30911 0.10808 0.0759 0.0
C1026 C 0.32837 0.10706 0.09103 0.0
C1027 C 0.29719 0.08509 0.06084 0.0
C1028 C 0.31111 0.02438 0.03703 0.0
H1029 H 0.19105 0.89785 0.98283 0.0
H1030 H 0.2095 0.93771 1.00921 0.0
H1031 H 0.31502 0.99236 1.01731 0.0
H1032 H 0.35066 0.08147 0.10207 0.0
H1033 H 0.32934 0.04116 0.07642 0.0
H1034 H 0.24626 0.03221 0.04203 0.0
C1035 C 0.22603 0.93951 0.9979 0.0
C1036 C 0.2998 1.00105 1.02233 0.0
C1037 C 0.21548 0.91647 0.9829 0.0
C1038 C 0.33561 0.08277 0.09073 0.0
C1039 C 0.32364 0.05979 0.07583 0.0
C1040 C 0.26166 0.02402 0.03659 0.0
C1041 C 0.25763 0.96423 0.99843 0.0
C1042 C 0.26928 0.98885 1.01441 0.0
C1043 C 0.30435 0.06061 0.06058 0.0
C1044 C 0.29221 0.03616 0.04448 0.0
H1045 H 0.2844 0.9436 0.95753 0.0
H1046 H 0.30261 0.98394 0.98319 0.0
H1047 H 0.22687 0.9922 1.01593 0.0
H1048 H 0.30324 0.12661 0.0757 0.0
H1049 H 0.28276 0.0868 0.04925 0.0
C1050 C 0.82168 0.71715 0.48431 0.0
C1051 C 0.80133 0.69896 0.46888 0.0
C1052 C 0.811 0.72921 0.49947 0.0
C1053 C 0.73739 0.71671 0.52361 0.0
H1054 H 0.78984 0.80169 0.54338 0.0
C1055 C 0.70125 0.76243 0.59207 0.0
C1056 C 0.70687 0.79344 0.5916 0.0
C1057 C 0.71357 0.75151 0.57735 0.0
C1058 C 0.7748 0.77797 0.53794 0.0
H1059 H 0.75378 0.67868 0.45739 0.0
H1060 H 0.73528 0.69973 0.48357 0.0
H1061 H 0.8099 0.78152 0.51736 0.0
H1062 H 0.72952 0.83727 0.57518 0.0
H1063 H 0.75085 0.81812 0.54919 0.0
H1064 H 0.7021 0.71321 0.54382 0.0
C1065 C 0.7594 0.70463 0.48417 0.0
C1066 C 0.78646 0.76627 0.52317 0.0
C1067 C 0.77006 0.69269 0.46907 0.0
C1068 C 0.7249 0.81328 0.57595 0.0
C1069 C 0.7373 0.80235 0.56116 0.0
C1070 C 0.7258 0.72834 0.53837 0.0
C1071 C 0.77966 0.72306 0.49961 0.0
C1072 C 0.76784 0.73549 0.51574 0.0
C1073 C 0.73173 0.77125 0.56164 0.0
C1074 C 0.7443 0.75914 0.54576 0.0
H1075 H 0.84589 0.72228 0.48455 0.0
H1076 H 0.82718 0.74303 0.51123 0.0
H1077 H 0.72246 0.69279 0.51845 0.0
H1078 H 0.68736 0.74654 0.60393 0.0
H1079 H 0.7091 0.7276 0.57841 0.0
C1080 C 0.09249 0.33103 0.96781 0.0
C1081 C 0.118 0.32557 0.96733 0.0
C1082 C 0.06997 0.31834 0.98296 0.0
C1083 C 0.03777 0.2567 1.02241 0.0
H1084 H 1.00278 0.30678 0.04236 0.0
C1085 C 0.93034 0.20657 0.07668 0.0
C1086 C 0.93084 0.22694 0.09155 0.0
C1087 C 0.95346 0.21779 0.0617 0.0
C1088 C 1.01242 0.29248 0.03714 0.0
H1089 H 0.14029 0.30305 0.98264 0.0
H1090 H 0.10121 0.28128 1.0095 0.0
H1091 H 0.04313 0.32823 1.01679 0.0
H1092 H 0.95579 0.27503 0.10228 0.0
H1093 H 0.99626 0.29431 0.07671 0.0
H1094 H 1.0074 0.2212 0.04321 0.0
C1095 C 0.09823 0.29485 0.99786 0.0
C1096 C 0.03538 0.30468 1.02221 0.0
C1097 C 0.1208 0.30753 0.98259 0.0
C1098 C 0.95487 0.25864 0.09114 0.0
C1099 C 0.97794 0.2698 0.07629 0.0
C1100 C 1.01475 0.24446 0.03742 0.0
C1101 C 0.07247 0.30009 0.99826 0.0
C1102 C 0.04838 0.28699 1.01455 0.0
C1103 C 0.97751 0.24965 0.06124 0.0
C1104 C 1.00177 0.26222 0.04503 0.0
H1105 H 0.08975 0.34496 0.9563 0.0
H1106 H 0.05032 0.32256 0.9825 0.0
H1107 H 0.04694 0.24221 1.01678 0.0
H1108 H 0.91206 0.18203 0.07659 0.0
H1109 H 0.95212 0.20161 0.05028 0.0
C1110 C 0.3347 0.08089 0.46814 0.0
C1111 C 0.32738 0.10514 0.46794 0.0
C1112 C 0.32293 0.0579 0.48306 0.0
C1113 C 0.26097 0.0212 0.52195 0.0
H1114 H 0.3163 0.99287 0.54282 0.0
C1115 C 0.21733 0.91416 0.57589 0.0
C1116 C 0.23769 0.91692 0.59147 0.0
C1117 C 0.22752 0.93706 0.56082 0.0
C1118 C 0.30053 1.00061 0.53731 0.0
H1119 H 0.30201 0.12437 0.48328 0.0
H1120 H 0.28161 0.08432 0.50961 0.0
H1121 H 0.33544 0.03334 0.51724 0.0
H1122 H 0.28483 0.94549 0.60331 0.0
H1123 H 0.30247 0.98545 0.57734 0.0
H1124 H 0.22624 0.98875 0.54239 0.0
C1125 C 0.29614 0.08283 0.49803 0.0
C1126 C 0.31142 0.02364 0.52241 0.0
C1127 C 0.308 0.10592 0.48304 0.0
C1128 C 0.26852 0.94278 0.59154 0.0
C1129 C 0.27871 0.9656 0.57654 0.0
C1130 C 0.25002 0.99806 0.53688 0.0
C1131 C 0.3036 0.05857 0.4983 0.0
C1132 C 0.29182 0.03426 0.51446 0.0
C1133 C 0.25841 0.96311 0.56092 0.0
C1134 C 0.26969 0.98747 0.5448 0.0
H1135 H 0.34975 0.07973 0.45679 0.0
H1136 H 0.32885 0.03942 0.48253 0.0
H1137 H 0.24509 0.02856 0.5161 0.0
H1138 H 0.19347 0.89441 0.5754 0.0
H1139 H 0.21133 0.93411 0.54893 0.0
C1140 C 0.81978 0.71571 0.07485 0.0
C1141 C 0.79975 0.6978 0.09047 0.0
C1142 C 0.80889 0.7278 0.05978 0.0
C1143 C 0.73495 0.71559 0.03622 0.0
H1144 H 0.78736 0.80029 1.01598 0.0
C1145 C 0.69848 0.76078 0.96752 0.0
C1146 C 0.70414 0.79181 0.96783 0.0
C1147 C 0.71076 0.74996 0.98236 0.0
C1148 C 0.77233 0.77666 1.02156 0.0
H1149 H 0.75255 0.67805 0.10238 0.0
H1150 H 0.73367 0.69909 0.07635 0.0
H1151 H 0.80776 0.78022 0.04192 0.0
H1152 H 0.72676 0.83576 0.98412 0.0
H1153 H 0.7481 0.81678 1.01031 0.0
H1154 H 0.69937 0.71206 1.01618 0.0
C1155 C 0.7577 0.70377 0.07554 0.0
C1156 C 0.78418 0.76501 0.03628 0.0
C1157 C 0.76858 0.69184 0.09056 0.0
C1158 C 0.72209 0.81174 0.98348 0.0
C1159 C 0.73451 0.80092 0.99837 0.0
C1160 C 0.72319 0.72716 1.0215 0.0
C1161 C 0.77765 0.72193 0.05992 0.0
C1162 C 0.76559 0.73433 0.04387 0.0
C1163 C 0.72896 0.76983 0.99802 0.0
C1164 C 0.74166 0.75785 1.01394 0.0
H1165 H 0.84391 0.72063 0.07439 0.0
H1166 H 0.82483 0.7414 0.04789 0.0
H1167 H 0.72002 0.69175 0.04151 0.0
H1168 H 0.68466 0.74483 0.95567 0.0
H1169 H 0.7063 0.72604 0.9814 0.0
C1170 C 0.08916 0.32983 0.59051 0.0
C1171 C 0.1165 0.32737 0.58995 0.0
C1172 C 0.06617 0.31609 0.57562 0.0
C1173 C 0.0544 0.2908 0.52341 0.0
H1174 H 0.96614 0.24092 0.53786 0.0
C1175 C 0.95297 0.25766 0.46728 0.0
C1176 C 0.92836 0.22618 0.46698 0.0
C1177 C 0.97599 0.26848 0.48219 0.0
C1178 C 0.99069 0.25462 0.5336 0.0
H1179 H 0.14184 0.30978 0.57286 0.0
H1180 H 0.10205 0.28648 0.54648 0.0
H1181 H 1.00644 0.26301 0.56398 0.0
H1182 H 0.90798 0.18158 0.48252 0.0
H1183 H 0.94793 0.20076 0.50905 0.0
H1184 H 0.03864 0.28296 0.49305 0.0
C1185 C 0.09815 0.29857 0.55866 0.0
C1186 C 1.01375 0.26748 0.54854 0.0
C1187 C 0.12092 0.31188 0.57376 0.0
C1188 C 0.92678 0.20591 0.4823 0.0
C1189 C 0.94959 0.21691 0.49747 0.0
C1190 C 0.03133 0.27838 0.50849 0.0
C1191 C 0.07034 0.30023 0.55953 0.0
C1192 C 0.04588 0.28582 0.54363 0.0
C1193 C 0.97464 0.24827 0.49747 0.0
C1194 C 0.99918 0.26025 0.51339 0.0
H1195 H 0.08536 0.34215 0.6026 0.0
H1196 H 0.04528 0.31824 0.57656 0.0
H1197 H 0.07891 0.30493 0.51913 0.0
H1198 H 0.95443 0.2741 0.45599 0.0
H1199 H 0.99462 0.29289 0.48195 0.0
C1200 C 0.66887 0.16066 0.15532 0.0
C1201 C 0.68806 0.17597 0.13876 0.0
C1202 C 0.63851 0.15651 0.15677 0.0
C1203 C 0.58782 0.18649 0.13674 0.0
H1204 H 0.51944 0.10771 0.15689 0.0
C1205 C 0.46515 0.17081 0.15096 0.0
C1206 C 0.43854 0.14201 0.14568 0.0
C1207 C 0.49518 0.17421 0.15106 0.0
C1208 C 0.5382 0.12976 0.15109 0.0
H1209 H 0.69046 0.19963 0.11099 0.0
H1210 H 0.63753 0.19194 0.11332 0.0
H1211 H 0.57257 0.11541 0.15497 0.0
H1212 H 0.42268 0.09394 0.13673 0.0
H1213 H 0.47535 0.1 0.13656 0.0
H1214 H 0.55351 0.20059 0.13231 0.0
C1215 C 0.64597 0.18332 0.1253 0.0
C1216 C 0.56879 0.13435 0.15022 0.0
C1217 C 0.67627 0.18745 0.12386 0.0
C1218 C 0.44266 0.11642 0.14091 0.0
C1219 C 0.47287 0.11989 0.14089 0.0
C1220 C 0.55731 0.1819 0.13757 0.0
C1221 C 0.62657 0.16762 0.14172 0.0
C1222 C 0.59402 0.16278 0.143 0.0
C1223 C 0.49959 0.14899 0.14572 0.0
C1224 C 0.53205 0.15351 0.14479 0.0
H1225 H 0.67699 0.15119 0.16698 0.0
H1226 H 0.62444 0.14466 0.16975 0.0
H1227 H 0.60664 0.20882 0.1313 0.0
H1228 H 0.4629 0.19096 0.15498 0.0
H1229 H 0.515 0.19674 0.15534 0.0
C1230 C 0.72754 0.57364 0.39947 0.0
C1231 C 0.72667 0.6002 0.40649 0.0
C1232 C 0.7002 0.54409 0.39887 0.0
C1233 C 0.62352 0.49888 0.42346 0.0
H1234 H 0.60513 0.4394 0.38048 0.0
C1235 C 0.51076 0.37695 0.42376 0.0
C1236 C 0.51292 0.35097 0.41704 0.0
C1237 C 0.53576 0.40763 0.42113 0.0
C1238 C 0.61009 0.45557 0.39272 0.0
H1239 H 0.69601 0.61658 0.41781 0.0
H1240 H 0.64816 0.56483 0.4168 0.0
H1241 H 0.65011 0.49272 0.37779 0.0
H1242 H 0.54304 0.33697 0.40204 0.0
H1243 H 0.58708 0.3906 0.39773 0.0
H1244 H 0.58416 0.46173 0.43866 0.0
C1245 C 0.67016 0.56696 0.41186 0.0
C1246 C 0.63582 0.4862 0.39113 0.0
C1247 C 0.69753 0.59665 0.41229 0.0
C1248 C 0.54058 0.35648 0.4073 0.0
C1249 C 0.56578 0.38727 0.40478 0.0
C1250 C 0.59796 0.46823 0.42512 0.0
C1251 C 0.67128 0.54024 0.40543 0.0
C1252 C 0.64291 0.5082 0.40652 0.0
C1253 C 0.56379 0.41327 0.4118 0.0
C1254 C 0.5909 0.44609 0.4098 0.0
H1255 H 0.74954 0.57547 0.39481 0.0
H1256 H 0.70199 0.52402 0.39399 0.0
H1257 H 0.62864 0.51502 0.43575 0.0
H1258 H 0.48951 0.37358 0.43093 0.0
H1259 H 0.53298 0.42697 0.42632 0.0
C1260 C 0.86307 0.29959 0.14604 0.0
C1261 C 0.89304 0.30241 0.14506 0.0
C1262 C 0.85993 0.3262 0.14792 0.0
C1263 C 0.9019 0.41204 0.1398 0.0
H1264 H 0.83676 0.40835 0.17431 0.0
C1265 C 0.88748 0.52038 0.15333 0.0
C1266 C 0.85657 0.51526 0.15285 0.0
C1267 C 0.89294 0.49503 0.15374 0.0
C1268 C 0.85489 0.40969 0.16448 0.0
H1269 H 0.94327 0.33566 0.14521 0.0
H1270 H 0.93776 0.38229 0.14858 0.0
H1271 H 0.84492 0.36335 0.17238 0.0
H1272 H 0.80716 0.47936 0.15297 0.0
H1273 H 0.81666 0.43507 0.15344 0.0
H1274 H 0.91168 0.4583 0.13178 0.0
C1275 C 0.91668 0.35936 0.14774 0.0
C1276 C 0.85958 0.38388 0.16337 0.0
C1277 C 0.91984 0.33263 0.14588 0.0
C1278 C 0.83124 0.48413 0.15319 0.0
C1279 C 0.8367 0.45875 0.15364 0.0
C1280 C 0.89722 0.43787 0.14092 0.0
C1281 C 0.88665 0.35642 0.14887 0.0
C1282 C 0.88292 0.3846 0.15085 0.0
C1283 C 0.86763 0.4639 0.15369 0.0
C1284 C 0.87346 0.4369 0.15315 0.0
H1285 H 0.84183 0.27675 0.1454 0.0
H1286 H 0.83645 0.32307 0.14839 0.0
H1287 H 0.91982 0.41325 0.12982 0.0
H1288 H 0.90758 0.54402 0.15282 0.0
H1289 H 0.91704 0.49985 0.154 0.0
C1290 C 0.46434 0.16894 0.40803 0.0
C1291 C 0.43751 0.14036 0.41335 0.0
C1292 C 0.49413 0.17179 0.40778 0.0
C1293 C 0.5355 0.12572 0.40743 0.0
H1294 H 0.60553 0.20398 0.42695 0.0
C1295 C 0.65794 0.14095 0.42516 0.0
C1296 C 0.6848 0.16951 0.41977 0.0
C1297 C 0.62779 0.13708 0.42339 0.0
C1298 C 0.58632 0.18213 0.42122 0.0
H1299 H 0.42097 0.09213 0.42227 0.0
H1300 H 0.47321 0.09724 0.42223 0.0
H1301 H 0.55293 0.19733 0.42595 0.0
H1302 H 0.70086 0.21629 0.40808 0.0
H1303 H 0.6481 0.20948 0.40488 0.0
H1304 H 0.56904 0.11042 0.40303 0.0
C1305 C 0.4711 0.11737 0.41794 0.0
C1306 C 0.55609 0.17828 0.42062 0.0
C1307 C 0.44114 0.11445 0.41805 0.0
C1308 C 0.68069 0.19398 0.41231 0.0
C1309 C 0.65048 0.19016 0.41064 0.0
C1310 C 0.56577 0.12952 0.40813 0.0
C1311 C 0.49805 0.14622 0.41301 0.0
C1312 C 0.53024 0.15005 0.41368 0.0
C1313 C 0.62367 0.16168 0.41623 0.0
C1314 C 0.59156 0.15779 0.41503 0.0
H1315 H 0.46243 0.18932 0.40407 0.0
H1316 H 0.51413 0.19414 0.40344 0.0
H1317 H 0.51631 0.10384 0.40172 0.0
H1318 H 0.6602 0.12144 0.43068 0.0
H1319 H 0.60772 0.11494 0.42799 0.0
C1320 C 0.5394 0.35619 0.15629 0.0
C1321 C 0.51291 0.35131 0.14528 0.0
C1322 C 0.56495 0.38667 0.15914 0.0
C1323 C 0.58794 0.47118 0.15754 0.0
H1324 H 0.67202 0.48466 0.14935 0.0
C1325 C 0.69797 0.59564 0.1477 0.0
C1326 C 0.72711 0.6005 0.15468 0.0
C1327 C 0.67101 0.56564 0.1486 0.0
C1328 C 0.64879 0.48137 0.15205 0.0
H1329 H 0.49212 0.37485 0.12927 0.0
H1330 H 0.53667 0.42776 0.13405 0.0
H1331 H 0.62694 0.43164 0.14738 0.0
H1332 H 0.7503 0.5781 0.16923 0.0
H1333 H 0.70342 0.52638 0.17133 0.0
H1334 H 0.60982 0.52097 0.16218 0.0
C1335 C 0.53774 0.4081 0.14052 0.0
C1336 C 0.62288 0.45085 0.15088 0.0
C1337 C 0.51234 0.37769 0.13757 0.0
C1338 C 0.72833 0.57512 0.16347 0.0
C1339 C 0.70142 0.54532 0.16454 0.0
C1340 C 0.61391 0.50173 0.15883 0.0
C1341 C 0.56449 0.413 0.1512 0.0
C1342 C 0.59211 0.44537 0.15346 0.0
C1343 C 0.67254 0.5399 0.15664 0.0
C1344 C 0.64472 0.50729 0.156 0.0
H1345 H 0.54064 0.33641 0.16239 0.0
H1346 H 0.58507 0.38963 0.1676 0.0
H1347 H 0.56457 0.46774 0.15986 0.0
H1348 H 0.69627 0.61465 0.14075 0.0
H1349 H 0.64928 0.5624 0.14224 0.0
C1350 C 0.83094 0.48456 0.40667 0.0
C1351 C 0.85651 0.51557 0.4069 0.0
C1352 C 0.83603 0.45894 0.40627 0.0
C1353 C 0.89607 0.43719 0.41876 0.0
H1354 H 0.84317 0.36303 0.38715 0.0
C1355 C 0.91843 0.33194 0.4128 0.0
C1356 C 0.89166 0.30169 0.41345 0.0
C1357 C 0.91522 0.35868 0.41123 0.0
C1358 C 0.85799 0.38345 0.39621 0.0
H1359 H 0.90756 0.54385 0.40685 0.0
H1360 H 0.91637 0.49927 0.40576 0.0
H1361 H 0.8353 0.40824 0.38554 0.0
H1362 H 0.84046 0.27595 0.41311 0.0
H1363 H 0.83498 0.32229 0.41064 0.0
H1364 H 0.91856 0.41228 0.42958 0.0
C1365 C 0.89237 0.49473 0.40606 0.0
C1366 C 0.85346 0.40937 0.39528 0.0
C1367 C 0.88728 0.52031 0.40642 0.0
C1368 C 0.86167 0.29883 0.41259 0.0
C1369 C 0.85848 0.32545 0.41101 0.0
C1370 C 0.90059 0.41124 0.41971 0.0
C1371 C 0.86683 0.46372 0.40616 0.0
C1372 C 0.8723 0.43649 0.40664 0.0
C1373 C 0.88517 0.35572 0.41024 0.0
C1374 C 0.88142 0.38393 0.40857 0.0
H1375 H 0.80695 0.48007 0.4069 0.0
H1376 H 0.81582 0.43536 0.40652 0.0
H1377 H 0.91073 0.45753 0.42792 0.0
H1378 H 0.94188 0.33501 0.41338 0.0
H1379 H 0.93628 0.38163 0.41051 0.0
C1380 C 0.14657 0.64947 0.65461 0.0
C1381 C 0.17749 0.67521 0.65571 0.0
C1382 C 0.14079 0.61861 0.65617 0.0
C1383 C 0.17576 0.57117 0.6734 0.0
H1384 H 0.11803 0.50966 0.63549 0.0
C1385 C 0.17232 0.45396 0.65873 0.0
C1386 C 0.14333 0.42679 0.65447 0.0
C1387 C 0.17435 0.4832 0.66085 0.0
C1388 C 0.13379 0.52634 0.64643 0.0
H1389 H 0.22649 0.68859 0.65976 0.0
H1390 H 0.21643 0.63467 0.66234 0.0
H1391 H 0.12592 0.5628 0.63546 0.0
H1392 H 0.0935 0.40915 0.64965 0.0
H1393 H 0.09701 0.46035 0.65359 0.0
H1394 H 0.18386 0.53483 0.68428 0.0
C1395 C 0.19663 0.63841 0.66039 0.0
C1396 C 0.13838 0.55687 0.64638 0.0
C1397 C 0.20244 0.66931 0.65874 0.0
C1398 C 0.11621 0.42955 0.65289 0.0
C1399 C 0.11827 0.45895 0.65502 0.0
C1400 C 0.1711 0.54063 0.67351 0.0
C1401 C 0.16575 0.61267 0.65893 0.0
C1402 C 0.15971 0.57977 0.6597 0.0
C1403 C 0.14746 0.48621 0.65882 0.0
C1404 C 0.15038 0.51792 0.65984 0.0
H1405 H 0.12682 0.65311 0.65202 0.0
H1406 H 0.11671 0.59937 0.65516 0.0
H1407 H 0.19194 0.58808 0.68409 0.0
H1408 H 0.19377 0.45287 0.66007 0.0
H1409 H 0.19729 0.50366 0.66349 0.0
C1410 C 0.34065 0.91555 0.90681 0.0
C1411 C 0.31059 0.88846 0.90631 0.0
C1412 C 0.3678 0.91314 0.90462 0.0
C1413 C 0.39501 0.85871 0.8872 0.0
H1414 H 0.46513 0.90651 0.92303 0.0
C1415 C 0.49289 0.82791 0.90111 0.0
C1416 C 0.52401 0.8529 0.90315 0.0
C1417 C 0.46782 0.83379 0.89967 0.0
C1418 C 0.44595 0.8933 0.91272 0.0
H1419 H 0.28567 0.83761 0.90268 0.0
H1420 H 0.33262 0.83352 0.89914 0.0
H1421 H 0.41999 0.91462 0.92355 0.0
H1422 H 0.5531 0.90371 0.90525 0.0
H1423 H 0.50948 0.91392 0.90245 0.0
H1424 H 0.42074 0.83695 0.87665 0.0
C1425 C 0.33537 0.85668 0.90098 0.0
C1426 C 0.42007 0.898 0.91299 0.0
C1427 C 0.30835 0.85906 0.90318 0.0
C1428 C 0.52948 0.88391 0.90343 0.0
C1429 C 0.50443 0.88977 0.90207 0.0
C1430 C 0.42084 0.85395 0.88696 0.0
C1431 C 0.36546 0.88362 0.9018 0.0
C1432 C 0.39409 0.88048 0.90041 0.0
C1433 C 0.47326 0.86478 0.90035 0.0
C1434 C 0.44647 0.87094 0.89987 0.0
H1435 H 0.34327 0.93857 0.90916 0.0
H1436 H 0.39062 0.93441 0.90513 0.0
H1437 H 0.37567 0.84521 0.87705 0.0
H1438 H 0.48789 0.80378 0.90073 0.0
H1439 H 0.44407 0.81397 0.89854 0.0
C1440 C 0.57815 0.72337 0.65909 0.0
C1441 C 0.60544 0.72171 0.6551 0.0
C1442 C 0.54894 0.69605 0.66127 0.0
C1443 C 0.50615 0.61221 0.64737 0.0
H1444 H 0.44415 0.60864 0.68471 0.0
C1445 C 0.38304 0.50159 0.6556 0.0
C1446 C 0.35724 0.50663 0.6565 0.0
C1447 C 0.41388 0.52677 0.65718 0.0
C1448 C 0.46113 0.60936 0.67412 0.0
H1449 H 0.62339 0.68975 0.65084 0.0
H1450 H 0.57222 0.64184 0.65487 0.0
H1451 H 0.4974 0.65399 0.68487 0.0
H1452 H 0.34372 0.54214 0.66022 0.0
H1453 H 0.39765 0.58622 0.66282 0.0
H1454 H 0.46977 0.5677 0.6365 0.0
C1455 C 0.5735 0.66446 0.65604 0.0
C1456 C 0.49168 0.63534 0.67421 0.0
C1457 C 0.60287 0.69192 0.65387 0.0
C1458 C 0.36306 0.53747 0.65935 0.0
C1459 C 0.39395 0.56267 0.66102 0.0
C1460 C 0.47563 0.58618 0.64733 0.0
C1461 C 0.54613 0.66622 0.65957 0.0
C1462 C 0.51447 0.63732 0.66065 0.0
C1463 C 0.41974 0.55765 0.65976 0.0
C1464 C 0.45264 0.58461 0.66053 0.0
H1465 H 0.5791 0.74585 0.66018 0.0
H1466 H 0.52838 0.69839 0.66369 0.0
H1467 H 0.52292 0.61313 0.63653 0.0
H1468 H 0.37946 0.47821 0.65314 0.0
H1469 H 0.43318 0.52204 0.65633 0.0
C1470 C 0.19804 0.66996 0.90133 0.0
C1471 C 0.17553 0.67509 0.91087 0.0
C1472 C 0.193 0.63934 0.89918 0.0
C1473 C 0.14534 0.55906 0.9208 0.0
H1474 H 0.17455 0.53353 0.8747 0.0
C1475 C 0.11773 0.43081 0.91035 0.0
C1476 C 0.14352 0.42724 0.90511 0.0
C1477 C 0.12004 0.46042 0.90941 0.0
C1478 C 0.16637 0.54037 0.88771 0.0
H1479 H 0.12936 0.65208 0.92463 0.0
H1480 H 0.12025 0.59894 0.92054 0.0
H1481 H 0.18181 0.5865 0.87608 0.0
H1482 H 0.19155 0.45189 0.89401 0.0
H1483 H 0.19541 0.50325 0.89228 0.0
H1484 H 0.12986 0.51294 0.93239 0.0
C1485 C 0.14229 0.61844 0.91529 0.0
C1486 C 0.17064 0.5708 0.88855 0.0
C1487 C 0.14745 0.64894 0.91758 0.0
C1488 C 0.17123 0.45373 0.89823 0.0
C1489 C 0.17342 0.48322 0.89712 0.0
C1490 C 0.14088 0.52864 0.91989 0.0
C1491 C 0.16519 0.61318 0.90638 0.0
C1492 C 0.16028 0.58061 0.90515 0.0
C1493 C 0.14806 0.48704 0.90301 0.0
C1494 C 0.15147 0.51895 0.90339 0.0
H1495 H 0.21995 0.68967 0.89608 0.0
H1496 H 0.21132 0.6363 0.89241 0.0
H1497 H 0.13764 0.56587 0.93403 0.0
H1498 H 0.09605 0.41094 0.91572 0.0
H1499 H 0.09996 0.46253 0.91385 0.0
C1500 C 0.34038 0.91425 0.64938 0.0
C1501 C 0.311 0.89002 0.65603 0.0
C1502 C 0.36725 0.91121 0.65091 0.0
C1503 C 0.38929 0.84924 0.65586 0.0
H1504 H 0.4732 0.92023 0.66423 0.0
C1505 C 0.49892 0.83431 0.66161 0.0
C1506 C 0.52482 0.85531 0.64999 0.0
C1507 C 0.47347 0.83933 0.66452 0.0
C1508 C 0.4499 0.90019 0.66182 0.0
H1509 H 0.28716 0.84446 0.67062 0.0
H1510 H 0.33389 0.83962 0.67385 0.0
H1511 H 0.4278 0.928 0.66563 0.0
H1512 H 0.545 0.89877 0.63309 0.0
H1513 H 0.50073 0.90746 0.63812 0.0
H1514 H 0.41141 0.82147 0.65203 0.0
C1515 C 0.33618 0.86053 0.66682 0.0
C1516 C 0.42386 0.90465 0.66255 0.0
C1517 C 0.30936 0.86341 0.66509 0.0
C1518 C 0.52519 0.88193 0.6419 0.0
C1519 C 0.49997 0.8871 0.64496 0.0
C1520 C 0.41527 0.84475 0.65529 0.0
C1521 C 0.36536 0.88398 0.65931 0.0
C1522 C 0.39319 0.87927 0.65942 0.0
C1523 C 0.47362 0.86568 0.65609 0.0
C1524 C 0.44591 0.87021 0.65807 0.0
H1525 H 0.34239 0.93497 0.64223 0.0
H1526 H 0.38921 0.92967 0.6448 0.0
H1527 H 0.36618 0.8292 0.65296 0.0
H1528 H 0.49795 0.81357 0.66799 0.0
H1529 H 0.45361 0.82253 0.67331 0.0
C1530 C 0.60401 0.69103 0.90421 0.0
C1531 C 0.60673 0.72081 0.90222 0.0
C1532 C 0.57464 0.66355 0.90209 0.0
C1533 C 0.49294 0.63392 0.88316 0.0
H1534 H 0.47059 0.56784 0.92218 0.0
C1535 C 0.36406 0.53668 0.89822 0.0
C1536 C 0.35821 0.50593 0.90154 0.0
C1537 C 0.39498 0.56186 0.89657 0.0
C1538 C 0.47656 0.58587 0.911 0.0
H1539 H 0.58069 0.74487 0.89577 0.0
H1540 H 0.52996 0.6974 0.89236 0.0
H1541 H 0.5238 0.61314 0.92188 0.0
H1542 H 0.38041 0.47764 0.90585 0.0
H1543 H 0.43417 0.52142 0.90273 0.0
H1544 H 0.44544 0.60691 0.87259 0.0
C1545 C 0.5504 0.69506 0.89533 0.0
C1546 C 0.50714 0.61183 0.91079 0.0
C1547 C 0.57962 0.72241 0.89745 0.0
C1548 C 0.38401 0.50095 0.90301 0.0
C1549 C 0.41488 0.52611 0.90147 0.0
C1550 C 0.46234 0.60802 0.88343 0.0
C1551 C 0.54739 0.66526 0.89787 0.0
C1552 C 0.51564 0.63639 0.89701 0.0
C1553 C 0.42077 0.5569 0.89835 0.0
C1554 C 0.45368 0.58383 0.89748 0.0
H1555 H 0.62438 0.68891 0.90786 0.0
H1556 H 0.57323 0.64096 0.9039 0.0
H1557 H 0.49879 0.6521 0.87211 0.0
H1558 H 0.34473 0.54129 0.89691 0.0
H1559 H 0.3987 0.58534 0.89434 0.0
loop_
_geom_bond_atom_site_label_1
_geom_bond_atom_site_label_2
_geom_bond_distance
_geom_bond_site_symmetry_2
_ccdc_geom_bond_type
Tb0 C2 2.809 . S
Tb0 O20 2.484 . S
Tb0 O21 2.440 . S
Tb0 O22 2.658 . S
Tb0 O23 2.409 . S
Tb0 O24 2.378 . S
Tb0 O28 2.325 . S
Tb0 O31 2.341 . S
Tb1 C11 2.809 . S
Tb1 O22 2.325 . S
Tb1 O25 2.341 . S
Tb1 O26 2.484 . S
Tb1 O27 2.440 . S
Tb1 O28 2.658 . S
Tb1 O29 2.409 . S
Tb1 O30 2.378 . S
C2 Tb0 2.809 . S
C2 C3 1.514 . S
C2 O20 1.248 . S
C2 O21 1.266 . S
C3 C2 1.514 . S
C3 C4 1.359 . S
C3 C8 1.348 . S
C4 C3 1.359 . S
C4 C5 1.380 . S
C4 H32 0.929 . S
C5 C4 1.380 . S
C5 C6 1.347 . S
C5 H33 0.931 . S
C6 C5 1.347 . S
C6 C7 1.369 . S
C7 C6 1.369 . S
C7 C8 1.408 . S
C7 H34 0.930 . S
C8 C3 1.348 . S
C8 C7 1.408 . S
C8 H35 0.930 . S
C9 O22 1.281 . S
C9 O23 1.254 . S
C10 O24 1.236 . S
C10 O25 1.266 . S
C11 Tb1 2.809 . S
C11 C12 1.514 . S
C11 O26 1.248 . S
C11 O27 1.266 . S
C12 C11 1.514 . S
C12 C13 1.359 . S
C12 C17 1.348 . S
C13 C12 1.359 . S
C13 C14 1.380 1_545 S
C13 H36 0.929 . S
C14 C13 1.380 1_565 S
C14 C15 1.347 . S
C14 H37 0.931 . S
C15 C14 1.347 . S
C15 C16 1.369 . S
C16 C15 1.369 . S
C16 C17 1.408 1_565 S
C16 H38 0.930 . S
C17 C12 1.348 . S
C17 C16 1.408 1_545 S
C17 H39 0.930 . S
C18 O28 1.281 . S
C18 O29 1.254 . S
C19 O30 1.236 . S
C19 O31 1.266 . S
O20 Tb0 2.484 . S
O20 C2 1.248 . S
O21 Tb0 2.440 . S
O21 C2 1.266 . S
O22 Tb0 2.658 . S
O22 Tb1 2.325 . S
O22 C9 1.281 . S
O23 Tb0 2.409 . S
O23 C9 1.254 . S
O24 Tb0 2.378 . S
O24 C10 1.236 . S
O25 Tb1 2.341 . S
O25 C10 1.266 . S
O26 Tb1 2.484 . S
O26 C11 1.248 . S
O27 Tb1 2.440 . S
O27 C11 1.266 . S
O28 Tb0 2.325 . S
O28 Tb1 2.658 . S
O28 C18 1.281 . S
O29 Tb1 2.409 . S
O29 C18 1.254 . S
O30 Tb1 2.378 . S
O30 C19 1.236 . S
O31 Tb0 2.341 . S
O31 C19 1.266 . S
H32 C4 0.929 . S
H33 C5 0.931 . S
H34 C7 0.930 . S
H35 C8 0.930 . S
H36 C13 0.929 . S
H37 C14 0.931 . S
H38 C16 0.930 . S
H39 C17 0.930 . S
Tb40 C42 2.809 . S
Tb40 O60 2.484 . S
Tb40 O61 2.440 . S
Tb40 O62 2.658 . S
Tb40 O63 2.409 . S
Tb40 O64 2.378 . S
Tb40 O68 2.325 . S
Tb40 O71 2.341 . S
Tb41 C51 2.809 . S
Tb41 O62 2.325 . S
Tb41 O65 2.341 . S
Tb41 O66 2.484 . S
Tb41 O67 2.440 . S
Tb41 O68 2.658 . S
Tb41 O69 2.409 . S
Tb41 O70 2.378 . S
C42 Tb40 2.809 . S
C42 C43 1.514 . S
C42 O60 1.248 . S
C42 O61 1.266 . S
C43 C42 1.514 . S
C43 C44 1.359 . S
C43 C48 1.348 . S
C44 C43 1.359 . S
C44 C45 1.380 . S
C44 H72 0.929 . S
C45 C44 1.380 . S
C45 C46 1.347 . S
C45 H73 0.931 . S
C46 C45 1.347 . S
C46 C47 1.369 . S
C47 C46 1.369 . S
C47 C48 1.408 . S
C47 H74 0.930 . S
C48 C43 1.348 . S
C48 C47 1.408 . S
C48 H75 0.930 . S
C49 O62 1.281 . S
C49 O63 1.254 . S
C50 O64 1.236 . S
C50 O65 1.266 . S
C51 Tb41 2.809 . S
C51 C52 1.514 . S
C51 O66 1.248 . S
C51 O67 1.266 . S
C52 C51 1.514 . S
C52 C53 1.359 . S
C52 C57 1.348 . S
C53 C52 1.359 . S
C53 C54 1.380 . S
C53 H76 0.929 . S
C54 C53 1.380 . S
C54 C55 1.347 . S
C54 H77 0.931 . S
C55 C54 1.347 . S
C55 C56 1.369 . S
C56 C55 1.369 . S
C56 C57 1.408 . S
C56 H78 0.930 . S
C57 C52 1.348 . S
C57 C56 1.408 . S
C57 H79 0.930 . S
C58 O68 1.281 . S
C58 O69 1.254 . S
C59 O70 1.236 . S
C59 O71 1.266 . S
O60 Tb40 2.484 . S
O60 C42 1.248 . S
O61 Tb40 2.440 . S
O61 C42 1.266 . S
O62 Tb40 2.658 . S
O62 Tb41 2.325 . S
O62 C49 1.281 . S
O63 Tb40 2.409 . S
O63 C49 1.254 . S
O64 Tb40 2.378 . S
O64 C50 1.236 . S
O65 Tb41 2.341 . S
O65 C50 1.266 . S
O66 Tb41 2.484 . S
O66 C51 1.248 . S
O67 Tb41 2.440 . S
O67 C51 1.266 . S
O68 Tb40 2.325 . S
O68 Tb41 2.658 . S
O68 C58 1.281 . S
O69 Tb41 2.409 . S
O69 C58 1.254 . S
O70 Tb41 2.378 . S
O70 C59 1.236 . S
O71 Tb40 2.341 . S
O71 C59 1.266 . S
H72 C44 0.929 . S
H73 C45 0.931 . S
H74 C47 0.930 . S
H75 C48 0.930 . S
H76 C53 0.929 . S
H77 C54 0.931 . S
H78 C56 0.930 . S
H79 C57 0.930 . S
Tb80 C82 2.809 . S
Tb80 O100 2.484 . S
Tb80 O101 2.440 . S
Tb80 O102 2.658 . S
Tb80 O103 2.409 . S
Tb80 O104 2.378 . S
Tb80 O108 2.325 . S
Tb80 O111 2.341 . S
Tb81 C91 2.809 . S
Tb81 O102 2.325 . S
Tb81 O105 2.341 . S
Tb81 O106 2.484 . S
Tb81 O107 2.440 . S
Tb81 O108 2.658 . S
Tb81 O109 2.409 . S
Tb81 O110 2.378 . S
C82 Tb80 2.809 . S
C82 C83 1.514 . S
C82 O100 1.248 . S
C82 O101 1.266 . S
C83 C82 1.514 . S
C83 C84 1.359 . S
C83 C88 1.348 . S
C84 C83 1.359 . S
C84 C85 1.380 . S
C84 H112 0.929 . S
C85 C84 1.380 . S
C85 C86 1.347 . S
C85 H113 0.931 . S
C86 C85 1.347 . S
C86 C87 1.369 . S
C87 C86 1.369 . S
C87 C88 1.408 . S
C87 H114 0.930 . S
C88 C83 1.348 . S
C88 C87 1.408 . S
C88 H115 0.930 . S
C89 O102 1.281 . S
C89 O103 1.254 . S
C90 O104 1.236 . S
C90 O105 1.266 . S
C91 Tb81 2.809 . S
C91 C92 1.514 . S
C91 O106 1.248 . S
C91 O107 1.266 . S
C92 C91 1.514 . S
C92 C93 1.359 . S
C92 C97 1.348 . S
C93 C92 1.359 . S
C93 C94 1.380 1_655 S
C93 H116 0.929 . S
C94 C93 1.380 1_455 S
C94 C95 1.347 . S
C94 H117 0.931 . S
C95 C94 1.347 . S
C95 C96 1.369 . S
C96 C95 1.369 . S
C96 C97 1.408 1_455 S
C96 H118 0.930 . S
C97 C92 1.348 . S
C97 C96 1.408 1_655 S
C97 H119 0.930 . S
C98 O108 1.281 . S
C98 O109 1.254 . S
C99 O110 1.236 . S
C99 O111 1.266 . S
O100 Tb80 2.484 . S
O100 C82 1.248 . S
O101 Tb80 2.440 . S
O101 C82 1.266 . S
O102 Tb80 2.658 . S
O102 Tb81 2.325 . S
O102 C89 1.281 . S
O103 Tb80 2.409 . S
O103 C89 1.254 . S
O104 Tb80 2.378 . S
O104 C90 1.236 . S
O105 Tb81 2.341 . S
O105 C90 1.266 . S
O106 Tb81 2.484 . S
O106 C91 1.248 . S
O107 Tb81 2.440 . S
O107 C91 1.266 . S
O108 Tb80 2.325 . S
O108 Tb81 2.658 . S
O108 C98 1.281 . S
O109 Tb81 2.409 . S
O109 C98 1.254 . S
O110 Tb81 2.378 . S
O110 C99 1.236 . S
O111 Tb80 2.341 . S
O111 C99 1.266 . S
H112 C84 0.929 . S
H113 C85 0.931 . S
H114 C87 0.930 . S
H115 C88 0.930 . S
H116 C93 0.929 . S
H117 C94 0.931 . S
H118 C96 0.930 . S
H119 C97 0.930 . S
Tb120 C122 2.809 . S
Tb120 O140 2.484 . S
Tb120 O141 2.440 . S
Tb120 O142 2.658 . S
Tb120 O143 2.409 . S
Tb120 O144 2.378 . S
Tb120 O148 2.325 . S
Tb120 O151 2.341 . S
Tb121 C131 2.809 . S
Tb121 O142 2.325 . S
Tb121 O145 2.341 . S
Tb121 O146 2.484 . S
Tb121 O147 2.440 . S
Tb121 O148 2.658 . S
Tb121 O149 2.409 . S
Tb121 O150 2.378 . S
C122 Tb120 2.809 . S
C122 C123 1.514 . S
C122 O140 1.248 . S
C122 O141 1.266 . S
C123 C122 1.514 . S
C123 C124 1.359 . S
C123 C128 1.348 . S
C124 C123 1.359 . S
C124 C125 1.380 1_545 S
C124 H152 0.929 . S
C125 C124 1.380 1_565 S
C125 C126 1.347 . S
C125 H153 0.931 . S
C126 C125 1.347 . S
C126 C127 1.369 . S
C127 C126 1.369 . S
C127 C128 1.408 1_565 S
C127 H154 0.930 . S
C128 C123 1.348 . S
C128 C127 1.408 1_545 S
C128 H155 0.930 . S
C129 O142 1.281 . S
C129 O143 1.254 . S
C130 O144 1.236 . S
C130 O145 1.266 . S
C131 Tb121 2.809 . S
C131 C132 1.514 . S
C131 O146 1.248 . S
C131 O147 1.266 . S
C132 C131 1.514 . S
C132 C133 1.359 . S
C132 C137 1.348 . S
C133 C132 1.359 . S
C133 C134 1.380 . S
C133 H156 0.929 . S
C134 C133 1.380 . S
C134 C135 1.347 . S
C134 H157 0.931 . S
C135 C134 1.347 . S
C135 C136 1.369 . S
C136 C135 1.369 . S
C136 C137 1.408 . S
C136 H158 0.930 . S
C137 C132 1.348 . S
C137 C136 1.408 . S
C137 H159 0.930 . S
C138 O148 1.281 . S
C138 O149 1.254 . S
C139 O150 1.236 . S
C139 O151 1.266 . S
O140 Tb120 2.484 . S
O140 C122 1.248 . S
O141 Tb120 2.440 . S
O141 C122 1.266 . S
O142 Tb120 2.658 . S
O142 Tb121 2.325 . S
O142 C129 1.281 . S
O143 Tb120 2.409 . S
O143 C129 1.254 . S
O144 Tb120 2.378 . S
O144 C130 1.236 . S
O145 Tb121 2.341 . S
O145 C130 1.266 . S
O146 Tb121 2.484 . S
O146 C131 1.248 . S
O147 Tb121 2.440 . S
O147 C131 1.266 . S
O148 Tb120 2.325 . S
O148 Tb121 2.658 . S
O148 C138 1.281 . S
O149 Tb121 2.409 . S
O149 C138 1.254 . S
O150 Tb121 2.378 . S
O150 C139 1.236 . S
O151 Tb120 2.341 . S
O151 C139 1.266 . S
H152 C124 0.929 . S
H153 C125 0.931 . S
H154 C127 0.930 . S
H155 C128 0.930 . S
H156 C133 0.929 . S
H157 C134 0.931 . S
H158 C136 0.930 . S
H159 C137 0.930 . S
Tb160 C162 2.809 . S
Tb160 O180 2.484 . S
Tb160 O181 2.440 . S
Tb160 O182 2.658 . S
Tb160 O183 2.409 . S
Tb160 O184 2.378 . S
Tb160 O188 2.325 . S
Tb160 O191 2.341 . S
Tb161 C171 2.809 . S
Tb161 O182 2.325 . S
Tb161 O185 2.341 . S
Tb161 O186 2.484 . S
Tb161 O187 2.440 . S
Tb161 O188 2.658 . S
Tb161 O189 2.409 . S
Tb161 O190 2.378 . S
C162 Tb160 2.809 . S
C162 C163 1.514 . S
C162 O180 1.248 . S
C162 O181 1.266 . S
C163 C162 1.514 . S
C163 C164 1.359 . S
C163 C168 1.348 . S
C164 C163 1.359 . S
C164 C165 1.380 . S
C164 H192 0.929 . S
C165 C164 1.380 . S
C165 C166 1.347 . S
C165 H193 0.931 . S
C166 C165 1.347 . S
C166 C167 1.369 . S
C167 C166 1.369 . S
C167 C168 1.408 . S
C167 H194 0.930 . S
C168 C163 1.348 . S
C168 C167 1.408 . S
C168 H195 0.930 . S
C169 O182 1.281 . S
C169 O183 1.254 . S
C170 O184 1.236 . S
C170 O185 1.266 . S
C171 Tb161 2.809 . S
C171 C172 1.514 . S
C171 O186 1.248 . S
C171 O187 1.266 . S
C172 C171 1.514 . S
C172 C173 1.359 . S
C172 C177 1.348 . S
C173 C172 1.359 . S
C173 C174 1.380 . S
C173 H196 0.929 . S
C174 C173 1.380 . S
C174 C175 1.347 . S
C174 H197 0.931 . S
C175 C174 1.347 . S
C175 C176 1.369 . S
C176 C175 1.369 . S
C176 C177 1.408 . S
C176 H198 0.930 . S
C177 C172 1.348 . S
C177 C176 1.408 . S
C177 H199 0.930 . S
C178 O188 1.281 . S
C178 O189 1.254 . S
C179 O190 1.236 . S
C179 O191 1.266 . S
O180 Tb160 2.484 . S
O180 C162 1.248 . S
O181 Tb160 2.440 . S
O181 C162 1.266 . S
O182 Tb160 2.658 . S
O182 Tb161 2.325 . S
O182 C169 1.281 . S
O183 Tb160 2.409 . S
O183 C169 1.254 . S
O184 Tb160 2.378 . S
O184 C170 1.236 . S
O185 Tb161 2.341 . S
O185 C170 1.266 . S
O186 Tb161 2.484 . S
O186 C171 1.248 . S
O187 Tb161 2.440 . S
O187 C171 1.266 . S
O188 Tb160 2.325 . S
O188 Tb161 2.658 . S
O188 C178 1.281 . S
O189 Tb161 2.409 . S
O189 C178 1.254 . S
O190 Tb161 2.378 . S
O190 C179 1.236 . S
O191 Tb160 2.341 . S
O191 C179 1.266 . S
H192 C164 0.929 . S
H193 C165 0.931 . S
H194 C167 0.930 . S
H195 C168 0.930 . S
H196 C173 0.929 . S
H197 C174 0.931 . S
H198 C176 0.930 . S
H199 C177 0.930 . S
Tb200 C202 2.809 . S
Tb200 O220 2.484 . S
Tb200 O221 2.440 . S
Tb200 O222 2.658 . S
Tb200 O223 2.409 . S
Tb200 O224 2.378 . S
Tb200 O228 2.325 . S
Tb200 O231 2.341 . S
Tb201 C211 2.809 . S
Tb201 O222 2.325 . S
Tb201 O225 2.341 . S
Tb201 O226 2.484 . S
Tb201 O227 2.440 . S
Tb201 O228 2.658 . S
Tb201 O229 2.409 . S
Tb201 O230 2.378 . S
C202 Tb200 2.809 . S
C202 C203 1.514 . S
C202 O220 1.248 . S
C202 O221 1.266 . S
C203 C202 1.514 . S
C203 C204 1.359 . S
C203 C208 1.348 . S
C204 C203 1.359 . S
C204 C205 1.380 1_655 S
C204 H232 0.929 . S
C205 C204 1.380 1_455 S
C205 C206 1.347 . S
C205 H233 0.931 . S
C206 C205 1.347 . S
C206 C207 1.369 . S
C207 C206 1.369 . S
C207 C208 1.408 1_455 S
C207 H234 0.930 . S
C208 C203 1.348 . S
C208 C207 1.408 1_655 S
C208 H235 0.930 . S
C209 O222 1.281 . S
C209 O223 1.254 . S
C210 O224 1.236 . S
C210 O225 1.266 . S
C211 Tb201 2.809 . S
C211 C212 1.514 . S
C211 O226 1.248 . S
C211 O227 1.266 . S
C212 C211 1.514 . S
C212 C213 1.359 . S
C212 C217 1.348 . S
C213 C212 1.359 . S
C213 C214 1.380 . S
C213 H236 0.929 . S
C214 C213 1.380 . S
C214 C215 1.347 . S
C214 H237 0.931 . S
C215 C214 1.347 . S
C215 C216 1.369 . S
C216 C215 1.369 . S
C216 C217 1.408 . S
C216 H238 0.930 . S
C217 C212 1.348 . S
C217 C216 1.408 . S
C217 H239 0.930 . S
C218 O228 1.281 . S
C218 O229 1.254 . S
C219 O230 1.236 . S
C219 O231 1.266 . S
O220 Tb200 2.484 . S
O220 C202 1.248 . S
O221 Tb200 2.440 . S
O221 C202 1.266 . S
O222 Tb200 2.658 . S
O222 Tb201 2.325 . S
O222 C209 1.281 . S
O223 Tb200 2.409 . S
O223 C209 1.254 . S
O224 Tb200 2.378 . S
O224 C210 1.236 . S
O225 Tb201 2.341 . S
O225 C210 1.266 . S
O226 Tb201 2.484 . S
O226 C211 1.248 . S
O227 Tb201 2.440 . S
O227 C211 1.266 . S
O228 Tb200 2.325 . S
O228 Tb201 2.658 . S
O228 C218 1.281 . S
O229 Tb201 2.409 . S
O229 C218 1.254 . S
O230 Tb201 2.378 . S
O230 C219 1.236 . S
O231 Tb200 2.341 . S
O231 C219 1.266 . S
H232 C204 0.929 . S
H233 C205 0.931 . S
H234 C207 0.930 . S
H235 C208 0.930 . S
H236 C213 0.929 . S
H237 C214 0.931 . S
H238 C216 0.930 . S
H239 C217 0.930 . S
Tb240 C242 2.809 . S
Tb240 O260 2.484 . S
Tb240 O261 2.440 . S
Tb240 O262 2.658 . S
Tb240 O263 2.409 . S
Tb240 O264 2.378 . S
Tb240 O268 2.325 . S
Tb240 O271 2.341 . S
Tb241 C251 2.809 . S
Tb241 O262 2.325 . S
Tb241 O265 2.341 . S
Tb241 O266 2.484 . S
Tb241 O267 2.440 . S
Tb241 O268 2.658 . S
Tb241 O269 2.409 . S
Tb241 O270 2.378 . S
C242 Tb240 2.809 . S
C242 C243 1.514 . S
C242 O260 1.248 . S
C242 O261 1.266 . S
C243 C242 1.514 . S
C243 C244 1.359 . S
C243 C248 1.348 . S
C244 C243 1.359 . S
C244 C245 1.380 1_455 S
C244 H272 0.929 . S
C245 C244 1.380 1_655 S
C245 C246 1.347 . S
C245 H273 0.931 . S
C246 C245 1.347 . S
C246 C247 1.369 . S
C247 C246 1.369 . S
C247 C248 1.408 1_655 S
C247 H274 0.930 . S
C248 C243 1.348 . S
C248 C247 1.408 1_455 S
C248 H275 0.930 . S
C249 O262 1.281 . S
C249 O263 1.254 . S
C250 O264 1.236 . S
C250 O265 1.266 . S
C251 Tb241 2.809 . S
C251 C252 1.514 . S
C251 O266 1.248 . S
C251 O267 1.266 . S
C252 C251 1.514 . S
C252 C253 1.359 . S
C252 C257 1.348 . S
C253 C252 1.359 . S
C253 C254 1.380 . S
C253 H276 0.929 . S
C254 C253 1.380 . S
C254 C255 1.347 . S
C254 H277 0.931 . S
C255 C254 1.347 . S
C255 C256 1.369 . S
C256 C255 1.369 . S
C256 C257 1.408 . S
C256 H278 0.930 . S
C257 C252 1.348 . S
C257 C256 1.408 . S
C257 H279 0.930 . S
C258 O268 1.281 . S
C258 O269 1.254 . S
C259 O270 1.236 . S
C259 O271 1.266 . S
O260 Tb240 2.484 . S
O260 C242 1.248 . S
O261 Tb240 2.440 . S
O261 C242 1.266 . S
O262 Tb240 2.658 . S
O262 Tb241 2.325 . S
O262 C249 1.281 . S
O263 Tb240 2.409 . S
O263 C249 1.254 . S
O264 Tb240 2.378 . S
O264 C250 1.236 . S
O265 Tb241 2.341 . S
O265 C250 1.266 . S
O266 Tb241 2.484 . S
O266 C251 1.248 . S
O267 Tb241 2.440 . S
O267 C251 1.266 . S
O268 Tb240 2.325 . S
O268 Tb241 2.658 . S
O268 C258 1.281 . S
O269 Tb241 2.409 . S
O269 C258 1.254 . S
O270 Tb241 2.378 . S
O270 C259 1.236 . S
O271 Tb240 2.341 . S
O271 C259 1.266 . S
H272 C244 0.929 . S
H273 C245 0.931 . S
H274 C247 0.930 . S
H275 C248 0.930 . S
H276 C253 0.929 . S
H277 C254 0.931 . S
H278 C256 0.930 . S
H279 C257 0.930 . S
Tb280 C282 2.809 . S
Tb280 O300 2.484 . S
Tb280 O301 2.440 . S
Tb280 O302 2.658 . S
Tb280 O303 2.409 . S
Tb280 O304 2.378 . S
Tb280 O308 2.325 . S
Tb280 O311 2.341 . S
Tb281 C291 2.809 . S
Tb281 O302 2.325 . S
Tb281 O305 2.341 . S
Tb281 O306 2.484 . S
Tb281 O307 2.440 . S
Tb281 O308 2.658 . S
Tb281 O309 2.409 . S
Tb281 O310 2.378 . S
C282 Tb280 2.809 . S
C282 C283 1.514 . S
C282 O300 1.248 . S
C282 O301 1.266 . S
C283 C282 1.514 . S
C283 C284 1.359 . S
C283 C288 1.348 . S
C284 C283 1.359 . S
C284 C285 1.380 . S
C284 H312 0.929 . S
C285 C284 1.380 . S
C285 C286 1.347 . S
C285 H313 0.931 . S
C286 C285 1.347 . S
C286 C287 1.369 . S
C287 C286 1.369 . S
C287 C288 1.408 . S
C287 H314 0.930 . S
C288 C283 1.348 . S
C288 C287 1.408 . S
C288 H315 0.930 . S
C289 O302 1.281 . S
C289 O303 1.254 . S
C290 O304 1.236 . S
C290 O305 1.266 . S
C291 Tb281 2.809 . S
C291 C292 1.514 . S
C291 O306 1.248 . S
C291 O307 1.266 . S
C292 C291 1.514 . S
C292 C293 1.359 . S
C292 C297 1.348 . S
C293 C292 1.359 . S
C293 C294 1.380 1_565 S
C293 H316 0.929 . S
C294 C293 1.380 1_545 S
C294 C295 1.347 . S
C294 H317 0.931 . S
C295 C294 1.347 . S
C295 C296 1.369 . S
C296 C295 1.369 . S
C296 C297 1.408 1_545 S
C296 H318 0.930 . S
C297 C292 1.348 . S
C297 C296 1.408 1_565 S
C297 H319 0.930 . S
C298 O308 1.281 . S
C298 O309 1.254 . S
C299 O310 1.236 . S
C299 O311 1.266 . S
O300 Tb280 2.484 . S
O300 C282 1.248 . S
O301 Tb280 2.440 . S
O301 C282 1.266 . S
O302 Tb280 2.658 . S
O302 Tb281 2.325 . S
O302 C289 1.281 . S
O303 Tb280 2.409 . S
O303 C289 1.254 . S
O304 Tb280 2.378 . S
O304 C290 1.236 . S
O305 Tb281 2.341 . S
O305 C290 1.266 . S
O306 Tb281 2.484 . S
O306 C291 1.248 . S
O307 Tb281 2.440 . S
O307 C291 1.266 . S
O308 Tb280 2.325 . S
O308 Tb281 2.658 . S
O308 C298 1.281 . S
O309 Tb281 2.409 . S
O309 C298 1.254 . S
O310 Tb281 2.378 . S
O310 C299 1.236 . S
O311 Tb280 2.341 . S
O311 C299 1.266 . S
H312 C284 0.929 . S
H313 C285 0.931 . S
H314 C287 0.930 . S
H315 C288 0.930 . S
H316 C293 0.929 . S
H317 C294 0.931 . S
H318 C296 0.930 . S
H319 C297 0.930 . S
Tb320 C322 2.809 . S
Tb320 O340 2.484 . S
Tb320 O341 2.440 . S
Tb320 O342 2.658 . S
Tb320 O343 2.409 . S
Tb320 O344 2.378 . S
Tb320 O348 2.325 . S
Tb320 O351 2.341 . S
Tb321 C331 2.809 . S
Tb321 O342 2.325 . S
Tb321 O345 2.341 . S
Tb321 O346 2.484 . S
Tb321 O347 2.440 . S
Tb321 O348 2.658 . S
Tb321 O349 2.409 . S
Tb321 O350 2.378 . S
C322 Tb320 2.809 . S
C322 C323 1.514 . S
C322 O340 1.248 . S
C322 O341 1.266 . S
C323 C322 1.514 . S
C323 C324 1.359 . S
C323 C328 1.348 . S
C324 C323 1.359 . S
C324 C325 1.380 . S
C324 H352 0.929 . S
C325 C324 1.380 . S
C325 C326 1.347 . S
C325 H353 0.931 . S
C326 C325 1.347 . S
C326 C327 1.369 . S
C327 C326 1.369 . S
C327 C328 1.408 . S
C327 H354 0.930 . S
C328 C323 1.348 . S
C328 C327 1.408 . S
C328 H355 0.930 . S
C329 O342 1.281 . S
C329 O343 1.254 . S
C330 O344 1.236 . S
C330 O345 1.266 . S
C331 Tb321 2.809 . S
C331 C332 1.514 . S
C331 O346 1.248 . S
C331 O347 1.266 . S
C332 C331 1.514 . S
C332 C333 1.359 . S
C332 C337 1.348 . S
C333 C332 1.359 . S
C333 C334 1.380 . S
C333 H356 0.929 . S
C334 C333 1.380 . S
C334 C335 1.347 . S
C334 H357 0.931 . S
C335 C334 1.347 . S
C335 C336 1.369 . S
C336 C335 1.369 . S
C336 C337 1.408 . S
C336 H358 0.930 . S
C337 C332 1.348 . S
C337 C336 1.408 . S
C337 H359 0.930 . S
C338 O348 1.281 . S
C338 O349 1.254 . S
C339 O350 1.236 . S
C339 O351 1.266 . S
O340 Tb320 2.484 . S
O340 C322 1.248 . S
O341 Tb320 2.440 . S
O341 C322 1.266 . S
O342 Tb320 2.658 . S
O342 Tb321 2.325 . S
O342 C329 1.281 . S
O343 Tb320 2.409 . S
O343 C329 1.254 . S
O344 Tb320 2.378 . S
O344 C330 1.236 . S
O345 Tb321 2.341 . S
O345 C330 1.266 . S
O346 Tb321 2.484 . S
O346 C331 1.248 . S
O347 Tb321 2.440 . S
O347 C331 1.266 . S
O348 Tb320 2.325 . S
O348 Tb321 2.658 . S
O348 C338 1.281 . S
O349 Tb321 2.409 . S
O349 C338 1.254 . S
O350 Tb321 2.378 . S
O350 C339 1.236 . S
O351 Tb320 2.341 . S
O351 C339 1.266 . S
H352 C324 0.929 . S
H353 C325 0.931 . S
H354 C327 0.930 . S
H355 C328 0.930 . S
H356 C333 0.929 . S
H357 C334 0.931 . S
H358 C336 0.930 . S
H359 C337 0.930 . S
Tb360 C362 2.809 . S
Tb360 O380 2.484 . S
Tb360 O381 2.440 . S
Tb360 O382 2.658 . S
Tb360 O383 2.409 . S
Tb360 O384 2.378 . S
Tb360 O388 2.325 . S
Tb360 O391 2.341 . S
Tb361 C371 2.809 . S
Tb361 O382 2.325 . S
Tb361 O385 2.341 . S
Tb361 O386 2.484 . S
Tb361 O387 2.440 . S
Tb361 O388 2.658 . S
Tb361 O389 2.409 . S
Tb361 O390 2.378 . S
C362 Tb360 2.809 . S
C362 C363 1.514 . S
C362 O380 1.248 . S
C362 O381 1.266 . S
C363 C362 1.514 . S
C363 C364 1.359 . S
C363 C368 1.348 . S
C364 C363 1.359 . S
C364 C365 1.380 . S
C364 H392 0.929 . S
C365 C364 1.380 . S
C365 C366 1.347 . S
C365 H393 0.931 . S
C366 C365 1.347 . S
C366 C367 1.369 . S
C367 C366 1.369 . S
C367 C368 1.408 . S
C367 H394 0.930 . S
C368 C363 1.348 . S
C368 C367 1.408 . S
C368 H395 0.930 . S
C369 O382 1.281 . S
C369 O383 1.254 . S
C370 O384 1.236 . S
C370 O385 1.266 . S
C371 Tb361 2.809 . S
C371 C372 1.514 . S
C371 O386 1.248 . S
C371 O387 1.266 . S
C372 C371 1.514 . S
C372 C373 1.359 . S
C372 C377 1.348 . S
C373 C372 1.359 . S
C373 C374 1.380 1_455 S
C373 H396 0.929 . S
C374 C373 1.380 1_655 S
C374 C375 1.347 . S
C374 H397 0.931 . S
C375 C374 1.347 . S
C375 C376 1.369 . S
C376 C375 1.369 . S
C376 C377 1.408 1_655 S
C376 H398 0.930 . S
C377 C372 1.348 . S
C377 C376 1.408 1_455 S
C377 H399 0.930 . S
C378 O388 1.281 . S
C378 O389 1.254 . S
C379 O390 1.236 . S
C379 O391 1.266 . S
O380 Tb360 2.484 . S
O380 C362 1.248 . S
O381 Tb360 2.440 . S
O381 C362 1.266 . S
O382 Tb360 2.658 . S
O382 Tb361 2.325 . S
O382 C369 1.281 . S
O383 Tb360 2.409 . S
O383 C369 1.254 . S
O384 Tb360 2.378 . S
O384 C370 1.236 . S
O385 Tb361 2.341 . S
O385 C370 1.266 . S
O386 Tb361 2.484 . S
O386 C371 1.248 . S
O387 Tb361 2.440 . S
O387 C371 1.266 . S
O388 Tb360 2.325 . S
O388 Tb361 2.658 . S
O388 C378 1.281 . S
O389 Tb361 2.409 . S
O389 C378 1.254 . S
O390 Tb361 2.378 . S
O390 C379 1.236 . S
O391 Tb360 2.341 . S
O391 C379 1.266 . S
H392 C364 0.929 . S
H393 C365 0.931 . S
H394 C367 0.930 . S
H395 C368 0.930 . S
H396 C373 0.929 . S
H397 C374 0.931 . S
H398 C376 0.930 . S
H399 C377 0.930 . S
Tb400 C402 2.809 . S
Tb400 O420 2.484 . S
Tb400 O421 2.440 . S
Tb400 O422 2.658 . S
Tb400 O423 2.409 . S
Tb400 O424 2.378 . S
Tb400 O428 2.325 . S
Tb400 O431 2.341 . S
Tb401 C411 2.809 . S
Tb401 O422 2.325 . S
Tb401 O425 2.341 . S
Tb401 O426 2.484 . S
Tb401 O427 2.440 . S
Tb401 O428 2.658 . S
Tb401 O429 2.409 . S
Tb401 O430 2.378 . S
C402 Tb400 2.809 . S
C402 C403 1.514 . S
C402 O420 1.248 . S
C402 O421 1.266 . S
C403 C402 1.514 . S
C403 C404 1.359 . S
C403 C408 1.348 . S
C404 C403 1.359 . S
C404 C405 1.380 1_565 S
C404 H432 0.929 . S
C405 C404 1.380 1_545 S
C405 C406 1.347 . S
C405 H433 0.931 . S
C406 C405 1.347 . S
C406 C407 1.369 . S
C407 C406 1.369 . S
C407 C408 1.408 1_545 S
C407 H434 0.930 . S
C408 C403 1.348 . S
C408 C407 1.408 1_565 S
C408 H435 0.930 . S
C409 O422 1.281 . S
C409 O423 1.254 . S
C410 O424 1.236 . S
C410 O425 1.266 . S
C411 Tb401 2.809 . S
C411 C412 1.514 . S
C411 O426 1.248 . S
C411 O427 1.266 . S
C412 C411 1.514 . S
C412 C413 1.359 . S
C412 C417 1.348 . S
C413 C412 1.359 . S
C413 C414 1.380 . S
C413 H436 0.929 . S
C414 C413 1.380 . S
C414 C415 1.347 . S
C414 H437 0.931 . S
C415 C414 1.347 . S
C415 C416 1.369 . S
C416 C415 1.369 . S
C416 C417 1.408 . S
C416 H438 0.930 . S
C417 C412 1.348 . S
C417 C416 1.408 . S
C417 H439 0.930 . S
C418 O428 1.281 . S
C418 O429 1.254 . S
C419 O430 1.236 . S
C419 O431 1.266 . S
O420 Tb400 2.484 . S
O420 C402 1.248 . S
O421 Tb400 2.440 . S
O421 C402 1.266 . S
O422 Tb400 2.658 . S
O422 Tb401 2.325 . S
O422 C409 1.281 . S
O423 Tb400 2.409 . S
O423 C409 1.254 . S
O424 Tb400 2.378 . S
O424 C410 1.236 . S
O425 Tb401 2.341 . S
O425 C410 1.266 . S
O426 Tb401 2.484 . S
O426 C411 1.248 . S
O427 Tb401 2.440 . S
O427 C411 1.266 . S
O428 Tb400 2.325 . S
O428 Tb401 2.658 . S
O428 C418 1.281 . S
O429 Tb401 2.409 . S
O429 C418 1.254 . S
O430 Tb401 2.378 . S
O430 C419 1.236 . S
O431 Tb400 2.341 . S
O431 C419 1.266 . S
H432 C404 0.929 . S
H433 C405 0.931 . S
H434 C407 0.930 . S
H435 C408 0.930 . S
H436 C413 0.929 . S
H437 C414 0.931 . S
H438 C416 0.930 . S
H439 C417 0.930 . S
Tb440 C442 2.809 . S
Tb440 O460 2.484 . S
Tb440 O461 2.440 . S
Tb440 O462 2.658 . S
Tb440 O463 2.409 . S
Tb440 O464 2.378 . S
Tb440 O468 2.325 . S
Tb440 O471 2.341 . S
Tb441 C451 2.809 . S
Tb441 O462 2.325 . S
Tb441 O465 2.341 . S
Tb441 O466 2.484 . S
Tb441 O467 2.440 . S
Tb441 O468 2.658 . S
Tb441 O469 2.409 . S
Tb441 O470 2.378 . S
C442 Tb440 2.809 . S
C442 C443 1.514 . S
C442 O460 1.248 . S
C442 O461 1.266 . S
C443 C442 1.514 . S
C443 C444 1.359 . S
C443 C448 1.348 . S
C444 C443 1.359 . S
C444 C445 1.380 . S
C444 H472 0.929 . S
C445 C444 1.380 . S
C445 C446 1.347 . S
C445 H473 0.931 . S
C446 C445 1.347 . S
C446 C447 1.369 . S
C447 C446 1.369 . S
C447 C448 1.408 . S
C447 H474 0.930 . S
C448 C443 1.348 . S
C448 C447 1.408 . S
C448 H475 0.930 . S
C449 O462 1.281 . S
C449 O463 1.254 . S
C450 O464 1.236 . S
C450 O465 1.266 . S
C451 Tb441 2.809 . S
C451 C452 1.514 . S
C451 O466 1.248 . S
C451 O467 1.266 . S
C452 C451 1.514 . S
C452 C453 1.359 . S
C452 C457 1.348 . S
C453 C452 1.359 . S
C453 C454 1.380 . S
C453 H476 0.929 . S
C454 C453 1.380 . S
C454 C455 1.347 . S
C454 H477 0.931 . S
C455 C454 1.347 . S
C455 C456 1.369 . S
C456 C455 1.369 . S
C456 C457 1.408 . S
C456 H478 0.930 . S
C457 C452 1.348 . S
C457 C456 1.408 . S
C457 H479 0.930 . S
C458 O468 1.281 . S
C458 O469 1.254 . S
C459 O470 1.236 . S
C459 O471 1.266 . S
O460 Tb440 2.484 . S
O460 C442 1.248 . S
O461 Tb440 2.440 . S
O461 C442 1.266 . S
O462 Tb440 2.658 . S
O462 Tb441 2.325 . S
O462 C449 1.281 . S
O463 Tb440 2.409 . S
O463 C449 1.254 . S
O464 Tb440 2.378 . S
O464 C450 1.236 . S
O465 Tb441 2.341 . S
O465 C450 1.266 . S
O466 Tb441 2.484 . S
O466 C451 1.248 . S
O467 Tb441 2.440 . S
O467 C451 1.266 . S
O468 Tb440 2.325 . S
O468 Tb441 2.658 . S
O468 C458 1.281 . S
O469 Tb441 2.409 . S
O469 C458 1.254 . S
O470 Tb441 2.378 . S
O470 C459 1.236 . S
O471 Tb440 2.341 . S
O471 C459 1.266 . S
H472 C444 0.929 . S
H473 C445 0.931 . S
H474 C447 0.930 . S
H475 C448 0.930 . S
H476 C453 0.929 . S
H477 C454 0.931 . S
H478 C456 0.930 . S
H479 C457 0.930 . S
C480 C481 1.349 . S
C480 C482 1.327 . S
C480 H505 0.950 . S
C481 C480 1.349 . S
C481 C497 1.349 . S
C482 C480 1.327 . S
C482 C501 1.429 . S
C482 H506 0.950 . S
C483 C500 1.574 . S
C483 C502 1.368 . S
C483 H507 0.949 . S
H484 C488 0.949 . S
C485 C486 1.349 . S
C485 C487 1.327 . S
C485 H508 0.950 . S
C486 C485 1.349 . S
C486 C498 1.349 . S
C487 C485 1.327 . S
C487 C503 1.429 . S
C487 H509 0.950 . S
C488 H484 0.949 . S
C488 C496 1.574 . S
C488 C504 1.368 . S
H489 C497 0.950 . S
H490 C495 0.950 . S
H491 C496 0.949 . S
H492 C498 0.950 . S
H493 C499 0.950 . S
H494 C500 0.949 . S
C495 H490 0.950 . S
C495 C497 1.327 . S
C495 C501 1.429 . S
C496 C488 1.574 . S
C496 H491 0.949 . S
C496 C502 1.368 . S
C497 C481 1.349 . S
C497 H489 0.950 . S
C497 C495 1.327 . S
C498 C486 1.349 . S
C498 H492 0.950 . S
C498 C499 1.327 . S
C499 H493 0.950 . S
C499 C498 1.327 . S
C499 C503 1.429 . S
C500 C483 1.574 . S
C500 H494 0.949 . S
C500 C504 1.368 . S
C501 C482 1.429 . S
C501 C495 1.429 . S
C501 C502 1.523 . S
C502 C483 1.368 . S
C502 C496 1.368 . S
C502 C501 1.523 . S
C503 C487 1.429 . S
C503 C499 1.429 . S
C503 C504 1.523 . S
C504 C488 1.368 . S
C504 C500 1.368 . S
C504 C503 1.523 . S
H505 C480 0.950 . S
H506 C482 0.950 . S
H507 C483 0.949 . S
H508 C485 0.950 . S
H509 C487 0.950 . S
C510 C511 1.349 . S
C510 C512 1.327 . S
C510 H535 0.950 . S
C511 C510 1.349 . S
C511 C527 1.349 . S
C512 C510 1.327 . S
C512 C531 1.429 . S
C512 H536 0.950 . S
C513 C530 1.574 1_455 S
C513 C532 1.368 . S
C513 H537 0.949 . S
H514 C518 0.949 . S
C515 C516 1.349 . S
C515 C517 1.327 . S
C515 H538 0.950 . S
C516 C515 1.349 . S
C516 C528 1.349 . S
C517 C515 1.327 . S
C517 C533 1.429 . S
C517 H539 0.950 . S
C518 H514 0.949 . S
C518 C526 1.574 1_655 S
C518 C534 1.368 . S
H519 C527 0.950 . S
H520 C525 0.950 . S
H521 C526 0.949 . S
H522 C528 0.950 . S
H523 C529 0.950 . S
H524 C530 0.949 . S
C525 H520 0.950 . S
C525 C527 1.327 . S
C525 C531 1.429 . S
C526 C518 1.574 1_455 S
C526 H521 0.949 . S
C526 C532 1.368 . S
C527 C511 1.349 . S
C527 H519 0.950 . S
C527 C525 1.327 . S
C528 C516 1.349 . S
C528 H522 0.950 . S
C528 C529 1.327 . S
C529 H523 0.950 . S
C529 C528 1.327 . S
C529 C533 1.429 . S
C530 C513 1.574 1_655 S
C530 H524 0.949 . S
C530 C534 1.368 . S
C531 C512 1.429 . S
C531 C525 1.429 . S
C531 C532 1.523 . S
C532 C513 1.368 . S
C532 C526 1.368 . S
C532 C531 1.523 . S
C533 C517 1.429 . S
C533 C529 1.429 . S
C533 C534 1.523 . S
C534 C518 1.368 . S
C534 C530 1.368 . S
C534 C533 1.523 . S
H535 C510 0.950 . S
H536 C512 0.950 . S
H537 C513 0.949 . S
H538 C515 0.950 . S
H539 C517 0.950 . S
C540 C541 1.349 . S
C540 C542 1.327 . S
C540 H565 0.950 . S
C541 C540 1.349 . S
C541 C557 1.349 . S
C542 C540 1.327 . S
C542 C561 1.429 . S
C542 H566 0.950 . S
C543 C560 1.574 1_545 S
C543 C562 1.368 . S
C543 H567 0.949 . S
H544 C548 0.949 . S
C545 C546 1.349 . S
C545 C547 1.327 . S
C545 H568 0.950 . S
C546 C545 1.349 . S
C546 C558 1.349 . S
C547 C545 1.327 . S
C547 C563 1.429 . S
C547 H569 0.950 . S
C548 H544 0.949 . S
C548 C556 1.574 1_565 S
C548 C564 1.368 . S
H549 C557 0.950 . S
H550 C555 0.950 . S
H551 C556 0.949 . S
H552 C558 0.950 . S
H553 C559 0.950 . S
H554 C560 0.949 . S
C555 H550 0.950 . S
C555 C557 1.327 . S
C555 C561 1.429 . S
C556 C548 1.574 1_545 S
C556 H551 0.949 . S
C556 C562 1.368 . S
C557 C541 1.349 . S
C557 H549 0.950 . S
C557 C555 1.327 . S
C558 C546 1.349 . S
C558 H552 0.950 . S
C558 C559 1.327 . S
C559 H553 0.950 . S
C559 C558 1.327 . S
C559 C563 1.429 . S
C560 C543 1.574 1_565 S
C560 H554 0.949 . S
C560 C564 1.368 . S
C561 C542 1.429 . S
C561 C555 1.429 . S
C561 C562 1.523 . S
C562 C543 1.368 . S
C562 C556 1.368 . S
C562 C561 1.523 . S
C563 C547 1.429 . S
C563 C559 1.429 . S
C563 C564 1.523 . S
C564 C548 1.368 . S
C564 C560 1.368 . S
C564 C563 1.523 . S
H565 C540 0.950 . S
H566 C542 0.950 . S
H567 C543 0.949 . S
H568 C545 0.950 . S
H569 C547 0.950 . S
C570 C571 1.349 . S
C570 C572 1.327 . S
C570 H595 0.950 . S
C571 C570 1.349 . S
C571 C587 1.349 . S
C572 C570 1.327 . S
C572 C591 1.429 . S
C572 H596 0.950 . S
C573 C590 1.574 . S
C573 C592 1.368 . S
C573 H597 0.949 . S
H574 C578 0.949 . S
C575 C576 1.349 . S
C575 C577 1.327 . S
C575 H598 0.950 . S
C576 C575 1.349 . S
C576 C588 1.349 . S
C577 C575 1.327 . S
C577 C593 1.429 . S
C577 H599 0.950 . S
C578 H574 0.949 . S
C578 C586 1.574 . S
C578 C594 1.368 . S
H579 C587 0.950 . S
H580 C585 0.950 . S
H581 C586 0.949 . S
H582 C588 0.950 . S
H583 C589 0.950 . S
H584 C590 0.949 . S
C585 H580 0.950 . S
C585 C587 1.327 . S
C585 C591 1.429 . S
C586 C578 1.574 . S
C586 H581 0.949 . S
C586 C592 1.368 . S
C587 C571 1.349 . S
C587 H579 0.950 . S
C587 C585 1.327 . S
C588 C576 1.349 . S
C588 H582 0.950 . S
C588 C589 1.327 . S
C589 H583 0.950 . S
C589 C588 1.327 . S
C589 C593 1.429 . S
C590 C573 1.574 . S
C590 H584 0.949 . S
C590 C594 1.368 . S
C591 C572 1.429 . S
C591 C585 1.429 . S
C591 C592 1.523 . S
C592 C573 1.368 . S
C592 C586 1.368 . S
C592 C591 1.523 . S
C593 C577 1.429 . S
C593 C589 1.429 . S
C593 C594 1.523 . S
C594 C578 1.368 . S
C594 C590 1.368 . S
C594 C593 1.523 . S
H595 C570 0.950 . S
H596 C572 0.950 . S
H597 C573 0.949 . S
H598 C575 0.950 . S
H599 C577 0.950 . S
C600 C601 1.349 . S
C600 C602 1.327 . S
C600 H625 0.950 . S
C601 C600 1.349 . S
C601 C617 1.349 . S
C602 C600 1.327 . S
C602 C621 1.429 . S
C602 H626 0.950 . S
C603 C620 1.574 1_455 S
C603 C622 1.368 . S
C603 H627 0.949 . S
H604 C608 0.949 . S
C605 C606 1.349 . S
C605 C607 1.327 . S
C605 H628 0.950 . S
C606 C605 1.349 . S
C606 C618 1.349 . S
C607 C605 1.327 . S
C607 C623 1.429 . S
C607 H629 0.950 . S
C608 H604 0.949 . S
C608 C616 1.574 1_655 S
C608 C624 1.368 . S
H609 C617 0.950 . S
H610 C615 0.950 . S
H611 C616 0.949 . S
H612 C618 0.950 . S
H613 C619 0.950 . S
H614 C620 0.949 . S
C615 H610 0.950 . S
C615 C617 1.327 . S
C615 C621 1.429 . S
C616 C608 1.574 1_455 S
C616 H611 0.949 . S
C616 C622 1.368 . S
C617 C601 1.349 . S
C617 H609 0.950 . S
C617 C615 1.327 . S
C618 C606 1.349 . S
C618 H612 0.950 . S
C618 C619 1.327 . S
C619 H613 0.950 . S
C619 C618 1.327 . S
C619 C623 1.429 . S
C620 C603 1.574 1_655 S
C620 H614 0.949 . S
C620 C624 1.368 . S
C621 C602 1.429 . S
C621 C615 1.429 . S
C621 C622 1.523 . S
C622 C603 1.368 . S
C622 C616 1.368 . S
C622 C621 1.523 . S
C623 C607 1.429 . S
C623 C619 1.429 . S
C623 C624 1.523 . S
C624 C608 1.368 . S
C624 C620 1.368 . S
C624 C623 1.523 . S
H625 C600 0.950 . S
H626 C602 0.950 . S
H627 C603 0.949 . S
H628 C605 0.950 . S
H629 C607 0.950 . S
C630 C631 1.349 . S
C630 C632 1.327 . S
C630 H655 0.950 . S
C631 C630 1.349 . S
C631 C647 1.349 . S
C632 C630 1.327 . S
C632 C651 1.429 . S
C632 H656 0.950 . S
C633 C650 1.574 1_565 S
C633 C652 1.368 . S
C633 H657 0.949 . S
H634 C638 0.949 . S
C635 C636 1.349 . S
C635 C637 1.327 . S
C635 H658 0.950 . S
C636 C635 1.349 . S
C636 C648 1.349 . S
C637 C635 1.327 . S
C637 C653 1.429 . S
C637 H659 0.950 . S
C638 H634 0.949 . S
C638 C646 1.574 1_545 S
C638 C654 1.368 . S
H639 C647 0.950 . S
H640 C645 0.950 . S
H641 C646 0.949 . S
H642 C648 0.950 . S
H643 C649 0.950 . S
H644 C650 0.949 . S
C645 H640 0.950 . S
C645 C647 1.327 . S
C645 C651 1.429 . S
C646 C638 1.574 1_565 S
C646 H641 0.949 . S
C646 C652 1.368 . S
C647 C631 1.349 . S
C647 H639 0.950 . S
C647 C645 1.327 . S
C648 C636 1.349 . S
C648 H642 0.950 . S
C648 C649 1.327 . S
C649 H643 0.950 . S
C649 C648 1.327 . S
C649 C653 1.429 . S
C650 C633 1.574 1_545 S
C650 H644 0.949 . S
C650 C654 1.368 . S
C651 C632 1.429 . S
C651 C645 1.429 . S
C651 C652 1.523 . S
C652 C633 1.368 . S
C652 C646 1.368 . S
C652 C651 1.523 . S
C653 C637 1.429 . S
C653 C649 1.429 . S
C653 C654 1.523 . S
C654 C638 1.368 . S
C654 C650 1.368 . S
C654 C653 1.523 . S
H655 C630 0.950 . S
H656 C632 0.950 . S
H657 C633 0.949 . S
H658 C635 0.950 . S
H659 C637 0.950 . S
C660 C661 1.349 . S
C660 C662 1.327 . S
C660 H685 0.950 . S
C661 C660 1.349 . S
C661 C677 1.349 . S
C662 C660 1.327 . S
C662 C681 1.429 . S
C662 H686 0.950 . S
C663 C680 1.574 . S
C663 C682 1.368 . S
C663 H687 0.949 . S
H664 C668 0.949 . S
C665 C666 1.349 . S
C665 C667 1.327 . S
C665 H688 0.950 . S
C666 C665 1.349 . S
C666 C678 1.349 . S
C667 C665 1.327 . S
C667 C683 1.429 . S
C667 H689 0.950 . S
C668 H664 0.949 . S
C668 C676 1.574 . S
C668 C684 1.368 . S
H669 C677 0.950 . S
H670 C675 0.950 . S
H671 C676 0.949 . S
H672 C678 0.950 . S
H673 C679 0.950 . S
H674 C680 0.949 . S
C675 H670 0.950 . S
C675 C677 1.327 . S
C675 C681 1.429 . S
C676 C668 1.574 . S
C676 H671 0.949 . S
C676 C682 1.368 . S
C677 C661 1.349 . S
C677 H669 0.950 . S
C677 C675 1.327 . S
C678 C666 1.349 . S
C678 H672 0.950 . S
C678 C679 1.327 . S
C679 H673 0.950 . S
C679 C678 1.327 . S
C679 C683 1.429 . S
C680 C663 1.574 . S
C680 H674 0.949 . S
C680 C684 1.368 . S
C681 C662 1.429 . S
C681 C675 1.429 . S
C681 C682 1.523 . S
C682 C663 1.368 . S
C682 C676 1.368 . S
C682 C681 1.523 . S
C683 C667 1.429 . S
C683 C679 1.429 . S
C683 C684 1.523 . S
C684 C668 1.368 . S
C684 C680 1.368 . S
C684 C683 1.523 . S
H685 C660 0.950 . S
H686 C662 0.950 . S
H687 C663 0.949 . S
H688 C665 0.950 . S
H689 C667 0.950 . S
C690 C691 1.349 . S
C690 C692 1.327 . S
C690 H715 0.950 . S
C691 C690 1.349 . S
C691 C707 1.349 . S
C692 C690 1.327 . S
C692 C711 1.429 . S
C692 H716 0.950 . S
C693 C710 1.574 1_455 S
C693 C712 1.368 . S
C693 H717 0.949 . S
H694 C698 0.949 . S
C695 C696 1.349 . S
C695 C697 1.327 . S
C695 H718 0.950 . S
C696 C695 1.349 . S
C696 C708 1.349 . S
C697 C695 1.327 . S
C697 C713 1.429 . S
C697 H719 0.950 . S
C698 H694 0.949 . S
C698 C706 1.574 1_655 S
C698 C714 1.368 . S
H699 C707 0.950 . S
H700 C705 0.950 . S
H701 C706 0.949 . S
H702 C708 0.950 . S
H703 C709 0.950 . S
H704 C710 0.949 . S
C705 H700 0.950 . S
C705 C707 1.327 . S
C705 C711 1.429 . S
C706 C698 1.574 1_455 S
C706 H701 0.949 . S
C706 C712 1.368 . S
C707 C691 1.349 . S
C707 H699 0.950 . S
C707 C705 1.327 . S
C708 C696 1.349 . S
C708 H702 0.950 . S
C708 C709 1.327 . S
C709 H703 0.950 . S
C709 C708 1.327 . S
C709 C713 1.429 . S
C710 C693 1.574 1_655 S
C710 H704 0.949 . S
C710 C714 1.368 . S
C711 C692 1.429 . S
C711 C705 1.429 . S
C711 C712 1.523 . S
C712 C693 1.368 . S
C712 C706 1.368 . S
C712 C711 1.523 . S
C713 C697 1.429 . S
C713 C709 1.429 . S
C713 C714 1.523 . S
C714 C698 1.368 . S
C714 C710 1.368 . S
C714 C713 1.523 . S
H715 C690 0.950 . S
H716 C692 0.950 . S
H717 C693 0.949 . S
H718 C695 0.950 . S
H719 C697 0.950 . S
C720 C721 1.349 . S
C720 C722 1.327 . S
C720 H745 0.950 . S
C721 C720 1.349 . S
C721 C737 1.349 . S
C722 C720 1.327 . S
C722 C741 1.429 . S
C722 H746 0.950 . S
C723 C740 1.574 1_565 S
C723 C742 1.368 . S
C723 H747 0.949 . S
H724 C728 0.949 . S
C725 C726 1.349 . S
C725 C727 1.327 . S
C725 H748 0.950 . S
C726 C725 1.349 . S
C726 C738 1.349 . S
C727 C725 1.327 . S
C727 C743 1.429 . S
C727 H749 0.950 . S
C728 H724 0.949 . S
C728 C736 1.574 1_545 S
C728 C744 1.368 . S
H729 C737 0.950 . S
H730 C735 0.950 . S
H731 C736 0.949 . S
H732 C738 0.950 . S
H733 C739 0.950 . S
H734 C740 0.949 . S
C735 H730 0.950 . S
C735 C737 1.327 . S
C735 C741 1.429 . S
C736 C728 1.574 1_565 S
C736 H731 0.949 . S
C736 C742 1.368 . S
C737 C721 1.349 . S
C737 H729 0.950 . S
C737 C735 1.327 . S
C738 C726 1.349 . S
C738 H732 0.950 . S
C738 C739 1.327 . S
C739 H733 0.950 . S
C739 C738 1.327 . S
C739 C743 1.429 . S
C740 C723 1.574 1_545 S
C740 H734 0.949 . S
C740 C744 1.368 . S
C741 C722 1.429 . S
C741 C735 1.429 . S
C741 C742 1.523 . S
C742 C723 1.368 . S
C742 C736 1.368 . S
C742 C741 1.523 . S
C743 C727 1.429 . S
C743 C739 1.429 . S
C743 C744 1.523 . S
C744 C728 1.368 . S
C744 C740 1.368 . S
C744 C743 1.523 . S
H745 C720 0.950 . S
H746 C722 0.950 . S
H747 C723 0.949 . S
H748 C725 0.950 . S
H749 C727 0.950 . S
C750 C751 1.349 . S
C750 C752 1.327 . S
C750 H775 0.950 . S
C751 C750 1.349 . S
C751 C767 1.349 . S
C752 C750 1.327 . S
C752 C771 1.429 . S
C752 H776 0.950 . S
C753 C770 1.574 . S
C753 C772 1.368 . S
C753 H777 0.949 . S
H754 C758 0.949 . S
C755 C756 1.349 . S
C755 C757 1.327 . S
C755 H778 0.950 . S
C756 C755 1.349 . S
C756 C768 1.349 . S
C757 C755 1.327 . S
C757 C773 1.429 . S
C757 H779 0.950 . S
C758 H754 0.949 . S
C758 C766 1.574 . S
C758 C774 1.368 . S
H759 C767 0.950 . S
H760 C765 0.950 . S
H761 C766 0.949 . S
H762 C768 0.950 . S
H763 C769 0.950 . S
H764 C770 0.949 . S
C765 H760 0.950 . S
C765 C767 1.327 . S
C765 C771 1.429 . S
C766 C758 1.574 . S
C766 H761 0.949 . S
C766 C772 1.368 . S
C767 C751 1.349 . S
C767 H759 0.950 . S
C767 C765 1.327 . S
C768 C756 1.349 . S
C768 H762 0.950 . S
C768 C769 1.327 . S
C769 H763 0.950 . S
C769 C768 1.327 . S
C769 C773 1.429 . S
C770 C753 1.574 . S
C770 H764 0.949 . S
C770 C774 1.368 . S
C771 C752 1.429 . S
C771 C765 1.429 . S
C771 C772 1.523 . S
C772 C753 1.368 . S
C772 C766 1.368 . S
C772 C771 1.523 . S
C773 C757 1.429 . S
C773 C769 1.429 . S
C773 C774 1.523 . S
C774 C758 1.368 . S
C774 C770 1.368 . S
C774 C773 1.523 . S
H775 C750 0.950 . S
H776 C752 0.950 . S
H777 C753 0.949 . S
H778 C755 0.950 . S
H779 C757 0.950 . S
C780 C781 1.349 . S
C780 C782 1.327 . S
C780 H805 0.950 . S
C781 C780 1.349 . S
C781 C797 1.349 . S
C782 C780 1.327 . S
C782 C801 1.429 . S
C782 H806 0.950 . S
C783 C800 1.574 1_455 S
C783 C802 1.368 . S
C783 H807 0.949 . S
H784 C788 0.949 . S
C785 C786 1.349 . S
C785 C787 1.327 . S
C785 H808 0.950 . S
C786 C785 1.349 . S
C786 C798 1.349 . S
C787 C785 1.327 . S
C787 C803 1.429 . S
C787 H809 0.950 . S
C788 H784 0.949 . S
C788 C796 1.540 1_655 S
C788 C804 1.368 . S
H789 C797 0.950 . S
H790 C795 0.950 . S
H791 C796 0.972 . S
H792 C798 0.950 . S
H793 C799 0.950 . S
H794 C800 0.949 . S
C795 H790 0.950 . S
C795 C797 1.327 . S
C795 C801 1.429 . S
C796 C788 1.540 1_455 S
C796 H791 0.972 . S
C796 C802 1.377 . S
C797 C781 1.349 . S
C797 H789 0.950 . S
C797 C795 1.327 . S
C798 C786 1.349 . S
C798 H792 0.950 . S
C798 C799 1.327 . S
C799 H793 0.950 . S
C799 C798 1.327 . S
C799 C803 1.429 . S
C800 C783 1.574 1_655 S
C800 H794 0.949 . S
C800 C804 1.368 . S
C801 C782 1.429 . S
C801 C795 1.429 . S
C801 C802 1.523 . S
C802 C783 1.368 . S
C802 C796 1.377 . S
C802 C801 1.523 . S
C803 C787 1.429 . S
C803 C799 1.429 . S
C803 C804 1.523 . S
C804 C788 1.368 . S
C804 C800 1.368 . S
C804 C803 1.523 . S
H805 C780 0.950 . S
H806 C782 0.950 . S
H807 C783 0.949 . S
H808 C785 0.950 . S
H809 C787 0.950 . S
C810 C811 1.349 . S
C810 C812 1.327 . S
C810 H835 0.950 . S
C811 C810 1.349 . S
C811 C827 1.349 . S
C812 C810 1.327 . S
C812 C831 1.429 . S
C812 H836 0.950 . S
C813 C830 1.574 1_545 S
C813 C832 1.368 . S
C813 H837 0.949 . S
H814 C818 0.949 . S
C815 C816 1.349 . S
C815 C817 1.327 . S
C815 H838 0.950 . S
C816 C815 1.349 . S
C816 C828 1.349 . S
C817 C815 1.327 . S
C817 C833 1.429 . S
C817 H839 0.950 . S
C818 H814 0.949 . S
C818 C826 1.574 1_565 S
C818 C834 1.368 . S
H819 C827 0.950 . S
H820 C825 0.950 . S
H821 C826 0.949 . S
H822 C828 0.950 . S
H823 C829 0.950 . S
H824 C830 0.949 . S
C825 H820 0.950 . S
C825 C827 1.327 . S
C825 C831 1.429 . S
C826 C818 1.574 1_545 S
C826 H821 0.949 . S
C826 C832 1.368 . S
C827 C811 1.349 . S
C827 H819 0.950 . S
C827 C825 1.327 . S
C828 C816 1.349 . S
C828 H822 0.950 . S
C828 C829 1.327 . S
C829 H823 0.950 . S
C829 C828 1.327 . S
C829 C833 1.429 . S
C830 C813 1.574 1_565 S
C830 H824 0.949 . S
C830 C834 1.368 . S
C831 C812 1.429 . S
C831 C825 1.429 . S
C831 C832 1.523 . S
C832 C813 1.368 . S
C832 C826 1.368 . S
C832 C831 1.523 . S
C833 C817 1.429 . S
C833 C829 1.429 . S
C833 C834 1.523 . S
C834 C818 1.368 . S
C834 C830 1.368 . S
C834 C833 1.523 . S
H835 C810 0.950 . S
H836 C812 0.950 . S
H837 C813 0.949 . S
H838 C815 0.950 . S
H839 C817 0.950 . S
C840 C841 1.349 . S
C840 C842 1.327 . S
C840 H865 0.950 . S
C841 C840 1.349 . S
C841 C857 1.349 . S
C842 C840 1.327 . S
C842 C861 1.429 . S
C842 H866 0.950 . S
C843 C860 1.574 . S
C843 C862 1.368 . S
C843 H867 0.949 . S
H844 C848 0.949 . S
C845 C846 1.349 . S
C845 C847 1.327 . S
C845 H868 0.950 . S
C846 C845 1.349 . S
C846 C858 1.349 . S
C847 C845 1.327 . S
C847 C863 1.429 . S
C847 H869 0.950 . S
C848 H844 0.949 . S
C848 C856 1.574 . S
C848 C864 1.368 . S
H849 C857 0.950 . S
H850 C855 0.950 . S
H851 C856 0.949 . S
H852 C858 0.950 . S
H853 C859 0.950 . S
H854 C860 0.949 . S
C855 H850 0.950 . S
C855 C857 1.327 . S
C855 C861 1.429 . S
C856 C848 1.574 . S
C856 H851 0.949 . S
C856 C862 1.368 . S
C857 C841 1.349 . S
C857 H849 0.950 . S
C857 C855 1.327 . S
C858 C846 1.349 . S
C858 H852 0.950 . S
C858 C859 1.327 . S
C859 H853 0.950 . S
C859 C858 1.327 . S
C859 C863 1.429 . S
C860 C843 1.574 . S
C860 H854 0.949 . S
C860 C864 1.368 . S
C861 C842 1.429 . S
C861 C855 1.429 . S
C861 C862 1.523 . S
C862 C843 1.368 . S
C862 C856 1.368 . S
C862 C861 1.523 . S
C863 C847 1.429 . S
C863 C859 1.429 . S
C863 C864 1.523 . S
C864 C848 1.368 . S
C864 C860 1.368 . S
C864 C863 1.523 . S
H865 C840 0.950 . S
H866 C842 0.950 . S
H867 C843 0.949 . S
H868 C845 0.950 . S
H869 C847 0.950 . S
C870 C871 1.349 . S
C870 C872 1.327 . S
C870 H895 0.950 . S
C871 C870 1.349 . S
C871 C887 1.349 . S
C872 C870 1.327 . S
C872 C891 1.429 . S
C872 H896 0.950 . S
C873 C890 1.574 . S
C873 C892 1.368 . S
C873 H897 0.949 . S
H874 C878 0.949 . S
C875 C876 1.349 . S
C875 C877 1.327 . S
C875 H898 0.950 . S
C876 C875 1.349 . S
C876 C888 1.349 . S
C877 C875 1.327 . S
C877 C893 1.429 . S
C877 H899 0.950 . S
C878 H874 0.949 . S
C878 C886 1.574 . S
C878 C894 1.368 . S
H879 C887 0.950 . S
H880 C885 0.950 . S
H881 C886 0.949 . S
H882 C888 0.950 . S
H883 C889 0.950 . S
H884 C890 0.949 . S
C885 H880 0.950 . S
C885 C887 1.327 . S
C885 C891 1.429 . S
C886 C878 1.574 . S
C886 H881 0.949 . S
C886 C892 1.368 . S
C887 C871 1.349 . S
C887 H879 0.950 . S
C887 C885 1.327 . S
C888 C876 1.349 . S
C888 H882 0.950 . S
C888 C889 1.327 . S
C889 H883 0.950 . S
C889 C888 1.327 . S
C889 C893 1.429 . S
C890 C873 1.574 . S
C890 H884 0.949 . S
C890 C894 1.368 . S
C891 C872 1.429 . S
C891 C885 1.429 . S
C891 C892 1.523 . S
C892 C873 1.368 . S
C892 C886 1.368 . S
C892 C891 1.523 . S
C893 C877 1.429 . S
C893 C889 1.429 . S
C893 C894 1.523 . S
C894 C878 1.368 . S
C894 C890 1.368 . S
C894 C893 1.523 . S
H895 C870 0.950 . S
H896 C872 0.950 . S
H897 C873 0.949 . S
H898 C875 0.950 . S
H899 C877 0.950 . S
C900 C901 1.349 . S
C900 C902 1.327 . S
C900 H925 0.950 . S
C901 C900 1.349 . S
C901 C917 1.349 . S
C902 C900 1.327 . S
C902 C921 1.429 . S
C902 H926 0.950 . S
C903 C920 1.574 . S
C903 C922 1.368 . S
C903 H927 0.949 . S
H904 C908 0.949 . S
C905 C906 1.349 . S
C905 C907 1.327 . S
C905 H928 0.950 . S
C906 C905 1.349 . S
C906 C918 1.349 . S
C907 C905 1.327 . S
C907 C923 1.429 . S
C907 H929 0.950 . S
C908 H904 0.949 . S
C908 C916 1.574 . S
C908 C924 1.368 . S
H909 C917 0.950 . S
H910 C915 0.950 . S
H911 C916 0.949 . S
H912 C918 0.950 . S
H913 C919 0.950 . S
H914 C920 0.949 . S
C915 H910 0.950 . S
C915 C917 1.327 . S
C915 C921 1.429 . S
C916 C908 1.574 . S
C916 H911 0.949 . S
C916 C922 1.368 . S
C917 C901 1.349 . S
C917 H909 0.950 . S
C917 C915 1.327 . S
C918 C906 1.349 . S
C918 H912 0.950 . S
C918 C919 1.327 . S
C919 H913 0.950 . S
C919 C918 1.327 . S
C919 C923 1.429 . S
C920 C903 1.574 . S
C920 H914 0.949 . S
C920 C924 1.368 . S
C921 C902 1.429 . S
C921 C915 1.429 . S
C921 C922 1.523 . S
C922 C903 1.368 . S
C922 C916 1.368 . S
C922 C921 1.523 . S
C923 C907 1.429 . S
C923 C919 1.429 . S
C923 C924 1.523 . S
C924 C908 1.368 . S
C924 C920 1.368 . S
C924 C923 1.523 . S
H925 C900 0.950 . S
H926 C902 0.950 . S
H927 C903 0.949 . S
H928 C905 0.950 . S
H929 C907 0.950 . S
C930 C931 1.349 . S
C930 C932 1.327 . S
C930 H955 0.950 . S
C931 C930 1.349 . S
C931 C947 1.349 . S
C932 C930 1.327 . S
C932 C951 1.429 . S
C932 H956 0.950 . S
C933 C950 1.574 . S
C933 C952 1.368 . S
C933 H957 0.949 . S
H934 C938 0.949 . S
C935 C936 1.349 . S
C935 C937 1.327 . S
C935 H958 0.950 . S
C936 C935 1.349 . S
C936 C948 1.349 . S
C937 C935 1.327 . S
C937 C953 1.429 . S
C937 H959 0.950 . S
C938 H934 0.949 . S
C938 C946 1.574 . S
C938 C954 1.368 . S
H939 C947 0.950 . S
H940 C945 0.950 . S
H941 C946 0.949 . S
H942 C948 0.950 . S
H943 C949 0.950 . S
H944 C950 0.949 . S
C945 H940 0.950 . S
C945 C947 1.327 . S
C945 C951 1.429 . S
C946 C938 1.574 . S
C946 H941 0.949 . S
C946 C952 1.368 . S
C947 C931 1.349 . S
C947 H939 0.950 . S
C947 C945 1.327 . S
C948 C936 1.349 . S
C948 H942 0.950 . S
C948 C949 1.327 . S
C949 H943 0.950 . S
C949 C948 1.327 . S
C949 C953 1.429 . S
C950 C933 1.574 . S
C950 H944 0.949 . S
C950 C954 1.368 . S
C951 C932 1.429 . S
C951 C945 1.429 . S
C951 C952 1.523 . S
C952 C933 1.368 . S
C952 C946 1.368 . S
C952 C951 1.523 . S
C953 C937 1.429 . S
C953 C949 1.429 . S
C953 C954 1.523 . S
C954 C938 1.368 . S
C954 C950 1.368 . S
C954 C953 1.523 . S
H955 C930 0.950 . S
H956 C932 0.950 . S
H957 C933 0.949 . S
H958 C935 0.950 . S
H959 C937 0.950 . S
C960 C961 1.349 . S
C960 C962 1.327 . S
C960 H985 0.950 . S
C961 C960 1.349 . S
C961 C977 1.349 . S
C962 C960 1.327 . S
C962 C981 1.429 . S
C962 H986 0.950 . S
C963 C980 1.574 . S
C963 C982 1.368 . S
C963 H987 0.949 . S
H964 C968 0.949 . S
C965 C966 1.349 . S
C965 C967 1.327 . S
C965 H988 0.950 . S
C966 C965 1.349 . S
C966 C978 1.349 . S
C967 C965 1.327 . S
C967 C983 1.429 . S
C967 H989 0.950 . S
C968 H964 0.949 . S
C968 C976 1.574 . S
C968 C984 1.368 . S
H969 C977 0.950 . S
H970 C975 0.950 . S
H971 C976 0.949 . S
H972 C978 0.950 . S
H973 C979 0.950 . S
H974 C980 0.949 . S
C975 H970 0.950 . S
C975 C977 1.327 . S
C975 C981 1.429 . S
C976 C968 1.574 . S
C976 H971 0.949 . S
C976 C982 1.368 . S
C977 C961 1.349 . S
C977 H969 0.950 . S
C977 C975 1.327 . S
C978 C966 1.349 . S
C978 H972 0.950 . S
C978 C979 1.327 . S
C979 H973 0.950 . S
C979 C978 1.327 . S
C979 C983 1.429 . S
C980 C963 1.574 . S
C980 H974 0.949 . S
C980 C984 1.368 . S
C981 C962 1.429 . S
C981 C975 1.429 . S
C981 C982 1.523 . S
C982 C963 1.368 . S
C982 C976 1.368 . S
C982 C981 1.523 . S
C983 C967 1.429 . S
C983 C979 1.429 . S
C983 C984 1.523 . S
C984 C968 1.368 . S
C984 C980 1.368 . S
C984 C983 1.523 . S
H985 C960 0.950 . S
H986 C962 0.950 . S
H987 C963 0.949 . S
H988 C965 0.950 . S
H989 C967 0.950 . S
C990 C991 1.349 . S
C990 C992 1.327 . S
C990 H1015 0.950 . S
C991 C990 1.349 . S
C991 C1007 1.349 . S
C992 C990 1.327 . S
C992 C1011 1.429 . S
C992 H1016 0.950 . S
C993 C1010 1.574 . S
C993 C1012 1.368 . S
C993 H1017 0.949 . S
H994 C998 0.949 . S
C995 C996 1.349 . S
C995 C997 1.327 . S
C995 H1018 0.950 . S
C996 C995 1.349 . S
C996 C1008 1.349 . S
C997 C995 1.327 . S
C997 C1013 1.429 . S
C997 H1019 0.950 . S
C998 H994 0.949 . S
C998 C1006 1.574 . S
C998 C1014 1.368 . S
H999 C1007 0.950 . S
H1000 C1005 0.950 . S
H1001 C1006 0.949 . S
H1002 C1008 0.950 . S
H1003 C1009 0.950 . S
H1004 C1010 0.949 . S
C1005 H1000 0.950 . S
C1005 C1007 1.327 . S
C1005 C1011 1.429 . S
C1006 C998 1.574 . S
C1006 H1001 0.949 . S
C1006 C1012 1.368 . S
C1007 C991 1.349 . S
C1007 H999 0.950 . S
C1007 C1005 1.327 . S
C1008 C996 1.349 . S
C1008 H1002 0.950 . S
C1008 C1009 1.327 . S
C1009 H1003 0.950 . S
C1009 C1008 1.327 . S
C1009 C1013 1.429 . S
C1010 C993 1.574 . S
C1010 H1004 0.949 . S
C1010 C1014 1.368 . S
C1011 C992 1.429 . S
C1011 C1005 1.429 . S
C1011 C1012 1.523 . S
C1012 C993 1.368 . S
C1012 C1006 1.368 . S
C1012 C1011 1.523 . S
C1013 C997 1.429 . S
C1013 C1009 1.429 . S
C1013 C1014 1.523 . S
C1014 C998 1.368 . S
C1014 C1010 1.368 . S
C1014 C1013 1.523 . S
H1015 C990 0.950 . S
H1016 C992 0.950 . S
H1017 C993 0.949 . S
H1018 C995 0.950 . S
H1019 C997 0.950 . S
C1020 C1021 1.349 . S
C1020 C1022 1.327 . S
C1020 H1045 0.950 . S
C1021 C1020 1.349 . S
C1021 C1037 1.349 . S
C1022 C1020 1.327 . S
C1022 C1041 1.429 . S
C1022 H1046 0.950 . S
C1023 C1040 1.574 1_566 S
C1023 C1042 1.368 . S
C1023 H1047 0.949 . S
H1024 C1028 0.949 . S
C1025 C1026 1.349 . S
C1025 C1027 1.327 . S
C1025 H1048 0.950 . S
C1026 C1025 1.349 . S
C1026 C1038 1.349 . S
C1027 C1025 1.327 . S
C1027 C1043 1.429 . S
C1027 H1049 0.950 . S
C1028 H1024 0.949 . S
C1028 C1036 1.574 1_544 S
C1028 C1044 1.368 . S
H1029 C1037 0.950 . S
H1030 C1035 0.950 . S
H1031 C1036 0.949 . S
H1032 C1038 0.950 . S
H1033 C1039 0.950 . S
H1034 C1040 0.949 . S
C1035 H1030 0.950 . S
C1035 C1037 1.327 . S
C1035 C1041 1.429 . S
C1036 C1028 1.574 1_566 S
C1036 H1031 0.949 . S
C1036 C1042 1.368 . S
C1037 C1021 1.349 . S
C1037 H1029 0.950 . S
C1037 C1035 1.327 . S
C1038 C1026 1.349 . S
C1038 H1032 0.950 . S
C1038 C1039 1.327 . S
C1039 H1033 0.950 . S
C1039 C1038 1.327 . S
C1039 C1043 1.429 . S
C1040 C1023 1.574 1_544 S
C1040 H1034 0.949 . S
C1040 C1044 1.368 . S
C1041 C1022 1.429 . S
C1041 C1035 1.429 . S
C1041 C1042 1.523 . S
C1042 C1023 1.368 . S
C1042 C1036 1.368 . S
C1042 C1041 1.523 . S
C1043 C1027 1.429 . S
C1043 C1039 1.429 . S
C1043 C1044 1.523 . S
C1044 C1028 1.368 . S
C1044 C1040 1.368 . S
C1044 C1043 1.523 . S
H1045 C1020 0.950 . S
H1046 C1022 0.950 . S
H1047 C1023 0.949 . S
H1048 C1025 0.950 . S
H1049 C1027 0.950 . S
C1050 C1051 1.349 . S
C1050 C1052 1.327 . S
C1050 H1075 0.950 . S
C1051 C1050 1.349 . S
C1051 C1067 1.349 . S
C1052 C1050 1.327 . S
C1052 C1071 1.429 . S
C1052 H1076 0.950 . S
C1053 C1070 1.574 . S
C1053 C1072 1.368 . S
C1053 H1077 0.949 . S
H1054 C1058 0.949 . S
C1055 C1056 1.349 . S
C1055 C1057 1.327 . S
C1055 H1078 0.950 . S
C1056 C1055 1.349 . S
C1056 C1068 1.349 . S
C1057 C1055 1.327 . S
C1057 C1073 1.429 . S
C1057 H1079 0.950 . S
C1058 H1054 0.949 . S
C1058 C1066 1.574 . S
C1058 C1074 1.368 . S
H1059 C1067 0.950 . S
H1060 C1065 0.950 . S
H1061 C1066 0.949 . S
H1062 C1068 0.950 . S
H1063 C1069 0.950 . S
H1064 C1070 0.949 . S
C1065 H1060 0.950 . S
C1065 C1067 1.327 . S
C1065 C1071 1.429 . S
C1066 C1058 1.574 . S
C1066 H1061 0.949 . S
C1066 C1072 1.368 . S
C1067 C1051 1.349 . S
C1067 H1059 0.950 . S
C1067 C1065 1.327 . S
C1068 C1056 1.349 . S
C1068 H1062 0.950 . S
C1068 C1069 1.327 . S
C1069 H1063 0.950 . S
C1069 C1068 1.327 . S
C1069 C1073 1.429 . S
C1070 C1053 1.574 . S
C1070 H1064 0.949 . S
C1070 C1074 1.368 . S
C1071 C1052 1.429 . S
C1071 C1065 1.429 . S
C1071 C1072 1.523 . S
C1072 C1053 1.368 . S
C1072 C1066 1.368 . S
C1072 C1071 1.523 . S
C1073 C1057 1.429 . S
C1073 C1069 1.429 . S
C1073 C1074 1.523 . S
C1074 C1058 1.368 . S
C1074 C1070 1.368 . S
C1074 C1073 1.523 . S
H1075 C1050 0.950 . S
H1076 C1052 0.950 . S
H1077 C1053 0.949 . S
H1078 C1055 0.950 . S
H1079 C1057 0.950 . S
C1080 C1081 1.349 . S
C1080 C1082 1.327 . S
C1080 H1105 0.950 . S
C1081 C1080 1.349 . S
C1081 C1097 1.349 . S
C1082 C1080 1.327 . S
C1082 C1101 1.429 . S
C1082 H1106 0.950 . S
C1083 C1100 1.574 1_456 S
C1083 C1102 1.368 . S
C1083 H1107 0.949 . S
H1084 C1088 0.949 . S
C1085 C1086 1.349 . S
C1085 C1087 1.327 . S
C1085 H1108 0.950 . S
C1086 C1085 1.349 . S
C1086 C1098 1.349 . S
C1087 C1085 1.327 . S
C1087 C1103 1.429 . S
C1087 H1109 0.950 . S
C1088 H1084 0.949 . S
C1088 C1096 1.574 1_654 S
C1088 C1104 1.368 . S
H1089 C1097 0.950 . S
H1090 C1095 0.950 . S
H1091 C1096 0.949 . S
H1092 C1098 0.950 . S
H1093 C1099 0.950 . S
H1094 C1100 0.949 . S
C1095 H1090 0.950 . S
C1095 C1097 1.327 . S
C1095 C1101 1.429 . S
C1096 C1088 1.574 1_456 S
C1096 H1091 0.949 . S
C1096 C1102 1.368 . S
C1097 C1081 1.349 . S
C1097 H1089 0.950 . S
C1097 C1095 1.327 . S
C1098 C1086 1.349 . S
C1098 H1092 0.950 . S
C1098 C1099 1.327 . S
C1099 H1093 0.950 . S
C1099 C1098 1.327 . S
C1099 C1103 1.429 . S
C1100 C1083 1.574 1_654 S
C1100 H1094 0.949 . S
C1100 C1104 1.368 . S
C1101 C1082 1.429 . S
C1101 C1095 1.429 . S
C1101 C1102 1.523 . S
C1102 C1083 1.368 . S
C1102 C1096 1.368 . S
C1102 C1101 1.523 . S
C1103 C1087 1.429 . S
C1103 C1099 1.429 . S
C1103 C1104 1.523 . S
C1104 C1088 1.368 . S
C1104 C1100 1.368 . S
C1104 C1103 1.523 . S
H1105 C1080 0.950 . S
H1106 C1082 0.950 . S
H1107 C1083 0.949 . S
H1108 C1085 0.950 . S
H1109 C1087 0.950 . S
C1110 C1111 1.349 . S
C1110 C1112 1.327 . S
C1110 H1135 0.950 . S
C1111 C1110 1.349 . S
C1111 C1127 1.349 . S
C1112 C1110 1.327 . S
C1112 C1131 1.429 . S
C1112 H1136 0.950 . S
C1113 C1130 1.548 1_545 S
C1113 C1132 1.378 . S
C1113 H1137 0.965 . S
H1114 C1118 0.965 . S
C1115 C1116 1.349 . S
C1115 C1117 1.327 . S
C1115 H1138 0.950 . S
C1116 C1115 1.349 . S
C1116 C1128 1.349 . S
C1117 C1115 1.327 . S
C1117 C1133 1.429 . S
C1117 H1139 0.950 . S
C1118 H1114 0.965 . S
C1118 C1126 1.548 1_565 S
C1118 C1134 1.378 . S
H1119 C1127 0.950 . S
H1120 C1125 0.950 . S
H1121 C1126 0.949 . S
H1122 C1128 0.950 . S
H1123 C1129 0.950 . S
H1124 C1130 0.949 . S
C1125 H1120 0.950 . S
C1125 C1127 1.327 . S
C1125 C1131 1.429 . S
C1126 C1118 1.548 1_545 S
C1126 H1121 0.949 . S
C1126 C1132 1.368 . S
C1127 C1111 1.349 . S
C1127 H1119 0.950 . S
C1127 C1125 1.327 . S
C1128 C1116 1.349 . S
C1128 H1122 0.950 . S
C1128 C1129 1.327 . S
C1129 H1123 0.950 . S
C1129 C1128 1.327 . S
C1129 C1133 1.429 . S
C1130 C1113 1.548 1_565 S
C1130 H1124 0.949 . S
C1130 C1134 1.368 . S
C1131 C1112 1.429 . S
C1131 C1125 1.429 . S
C1131 C1132 1.523 . S
C1132 C1113 1.378 . S
C1132 C1126 1.368 . S
C1132 C1131 1.523 . S
C1133 C1117 1.429 . S
C1133 C1129 1.429 . S
C1133 C1134 1.523 . S
C1134 C1118 1.378 . S
C1134 C1130 1.368 . S
C1134 C1133 1.523 . S
H1135 C1110 0.950 . S
H1136 C1112 0.950 . S
H1137 C1113 0.965 . S
H1138 C1115 0.950 . S
H1139 C1117 0.950 . S
C1140 C1141 1.349 . S
C1140 C1142 1.327 . S
C1140 H1165 0.950 . S
C1141 C1140 1.349 . S
C1141 C1157 1.349 . S
C1142 C1140 1.327 . S
C1142 C1161 1.429 . S
C1142 H1166 0.950 . S
C1143 C1160 1.574 1_554 S
C1143 C1162 1.368 . S
C1143 H1167 0.949 . S
H1144 C1148 0.949 . S
C1145 C1146 1.349 . S
C1145 C1147 1.327 . S
C1145 H1168 0.950 . S
C1146 C1145 1.349 . S
C1146 C1158 1.349 . S
C1147 C1145 1.327 . S
C1147 C1163 1.429 . S
C1147 H1169 0.950 . S
C1148 H1144 0.949 . S
C1148 C1156 1.574 1_556 S
C1148 C1164 1.368 . S
H1149 C1157 0.950 . S
H1150 C1155 0.950 . S
H1151 C1156 0.949 . S
H1152 C1158 0.950 . S
H1153 C1159 0.950 . S
H1154 C1160 0.949 . S
C1155 H1150 0.950 . S
C1155 C1157 1.327 . S
C1155 C1161 1.429 . S
C1156 C1148 1.574 1_554 S
C1156 H1151 0.949 . S
C1156 C1162 1.368 . S
C1157 C1141 1.349 . S
C1157 H1149 0.950 . S
C1157 C1155 1.327 . S
C1158 C1146 1.349 . S
C1158 H1152 0.950 . S
C1158 C1159 1.327 . S
C1159 H1153 0.950 . S
C1159 C1158 1.327 . S
C1159 C1163 1.429 . S
C1160 C1143 1.574 1_556 S
C1160 H1154 0.949 . S
C1160 C1164 1.368 . S
C1161 C1142 1.429 . S
C1161 C1155 1.429 . S
C1161 C1162 1.523 . S
C1162 C1143 1.368 . S
C1162 C1156 1.368 . S
C1162 C1161 1.523 . S
C1163 C1147 1.429 . S
C1163 C1159 1.429 . S
C1163 C1164 1.523 . S
C1164 C1148 1.368 . S
C1164 C1160 1.368 . S
C1164 C1163 1.523 . S
H1165 C1140 0.950 . S
H1166 C1142 0.950 . S
H1167 C1143 0.949 . S
H1168 C1145 0.950 . S
H1169 C1147 0.950 . S
C1170 C1171 1.349 . S
C1170 C1172 1.327 . S
C1170 H1195 0.950 . S
C1171 C1170 1.349 . S
C1171 C1187 1.349 . S
C1172 C1170 1.327 . S
C1172 C1191 1.429 . S
C1172 H1196 0.950 . S
C1173 C1190 1.574 . S
C1173 C1192 1.368 . S
C1173 H1197 0.949 . S
H1174 C1178 0.949 . S
C1175 C1176 1.349 . S
C1175 C1177 1.327 . S
C1175 H1198 0.950 . S
C1176 C1175 1.349 . S
C1176 C1188 1.349 . S
C1177 C1175 1.327 . S
C1177 C1193 1.429 . S
C1177 H1199 0.950 . S
C1178 H1174 0.949 . S
C1178 C1186 1.574 . S
C1178 C1194 1.368 . S
H1179 C1187 0.950 . S
H1180 C1185 0.950 . S
H1181 C1186 0.949 . S
H1182 C1188 0.950 . S
H1183 C1189 0.950 . S
H1184 C1190 0.949 . S
C1185 H1180 0.950 . S
C1185 C1187 1.327 . S
C1185 C1191 1.429 . S
C1186 C1178 1.574 . S
C1186 H1181 0.949 . S
C1186 C1192 1.368 1_655 S
C1187 C1171 1.349 . S
C1187 H1179 0.950 . S
C1187 C1185 1.327 . S
C1188 C1176 1.349 . S
C1188 H1182 0.950 . S
C1188 C1189 1.327 . S
C1189 H1183 0.950 . S
C1189 C1188 1.327 . S
C1189 C1193 1.429 . S
C1190 C1173 1.574 . S
C1190 H1184 0.949 . S
C1190 C1194 1.368 1_455 S
C1191 C1172 1.429 . S
C1191 C1185 1.429 . S
C1191 C1192 1.523 . S
C1192 C1173 1.368 . S
C1192 C1186 1.368 1_455 S
C1192 C1191 1.523 . S
C1193 C1177 1.429 . S
C1193 C1189 1.429 . S
C1193 C1194 1.523 . S
C1194 C1178 1.368 . S
C1194 C1190 1.368 1_655 S
C1194 C1193 1.523 . S
H1195 C1170 0.950 . S
H1196 C1172 0.950 . S
H1197 C1173 0.949 . S
H1198 C1175 0.950 . S
H1199 C1177 0.950 . S
C1200 C1201 1.349 . S
C1200 C1202 1.327 . S
C1200 H1225 0.950 . S
C1201 C1200 1.349 . S
C1201 C1217 1.349 . S
C1202 C1200 1.327 . S
C1202 C1221 1.429 . S
C1202 H1226 0.950 . S
C1203 C1220 1.574 . S
C1203 C1222 1.368 . S
C1203 H1227 0.949 . S
H1204 C1208 0.949 . S
C1205 C1206 1.349 . S
C1205 C1207 1.327 . S
C1205 H1228 0.950 . S
C1206 C1205 1.349 . S
C1206 C1218 1.349 . S
C1207 C1205 1.327 . S
C1207 C1223 1.429 . S
C1207 H1229 0.950 . S
C1208 H1204 0.949 . S
C1208 C1216 1.574 . S
C1208 C1224 1.368 . S
H1209 C1217 0.950 . S
H1210 C1215 0.950 . S
H1211 C1216 0.949 . S
H1212 C1218 0.950 . S
H1213 C1219 0.950 . S
H1214 C1220 0.949 . S
C1215 H1210 0.950 . S
C1215 C1217 1.327 . S
C1215 C1221 1.429 . S
C1216 C1208 1.574 . S
C1216 H1211 0.949 . S
C1216 C1222 1.368 . S
C1217 C1201 1.349 . S
C1217 H1209 0.950 . S
C1217 C1215 1.327 . S
C1218 C1206 1.349 . S
C1218 H1212 0.950 . S
C1218 C1219 1.327 . S
C1219 H1213 0.950 . S
C1219 C1218 1.327 . S
C1219 C1223 1.429 . S
C1220 C1203 1.574 . S
C1220 H1214 0.949 . S
C1220 C1224 1.368 . S
C1221 C1202 1.429 . S
C1221 C1215 1.429 . S
C1221 C1222 1.523 . S
C1222 C1203 1.368 . S
C1222 C1216 1.368 . S
C1222 C1221 1.523 . S
C1223 C1207 1.429 . S
C1223 C1219 1.429 . S
C1223 C1224 1.523 . S
C1224 C1208 1.368 . S
C1224 C1220 1.368 . S
C1224 C1223 1.523 . S
H1225 C1200 0.950 . S
H1226 C1202 0.950 . S
H1227 C1203 0.949 . S
H1228 C1205 0.950 . S
H1229 C1207 0.950 . S
C1230 C1231 1.349 . S
C1230 C1232 1.327 . S
C1230 H1255 0.950 . S
C1231 C1230 1.349 . S
C1231 C1247 1.349 . S
C1232 C1230 1.327 . S
C1232 C1251 1.429 . S
C1232 H1256 0.950 . S
C1233 C1250 1.574 . S
C1233 C1252 1.368 . S
C1233 H1257 0.949 . S
H1234 C1238 0.949 . S
C1235 C1236 1.349 . S
C1235 C1237 1.327 . S
C1235 H1258 0.950 . S
C1236 C1235 1.349 . S
C1236 C1248 1.349 . S
C1237 C1235 1.327 . S
C1237 C1253 1.429 . S
C1237 H1259 0.950 . S
C1238 H1234 0.949 . S
C1238 C1246 1.574 . S
C1238 C1254 1.368 . S
H1239 C1247 0.950 . S
H1240 C1245 0.950 . S
H1241 C1246 0.949 . S
H1242 C1248 0.950 . S
H1243 C1249 0.950 . S
H1244 C1250 0.949 . S
C1245 H1240 0.950 . S
C1245 C1247 1.327 . S
C1245 C1251 1.429 . S
C1246 C1238 1.574 . S
C1246 H1241 0.949 . S
C1246 C1252 1.368 . S
C1247 C1231 1.349 . S
C1247 H1239 0.950 . S
C1247 C1245 1.327 . S
C1248 C1236 1.349 . S
C1248 H1242 0.950 . S
C1248 C1249 1.327 . S
C1249 H1243 0.950 . S
C1249 C1248 1.327 . S
C1249 C1253 1.429 . S
C1250 C1233 1.574 . S
C1250 H1244 0.949 . S
C1250 C1254 1.368 . S
C1251 C1232 1.429 . S
C1251 C1245 1.429 . S
C1251 C1252 1.523 . S
C1252 C1233 1.368 . S
C1252 C1246 1.368 . S
C1252 C1251 1.523 . S
C1253 C1237 1.429 . S
C1253 C1249 1.429 . S
C1253 C1254 1.523 . S
C1254 C1238 1.368 . S
C1254 C1250 1.368 . S
C1254 C1253 1.523 . S
H1255 C1230 0.950 . S
H1256 C1232 0.950 . S
H1257 C1233 0.949 . S
H1258 C1235 0.950 . S
H1259 C1237 0.950 . S
C1260 C1261 1.349 . S
C1260 C1262 1.327 . S
C1260 H1285 0.950 . S
C1261 C1260 1.349 . S
C1261 C1277 1.349 . S
C1262 C1260 1.327 . S
C1262 C1281 1.429 . S
C1262 H1286 0.950 . S
C1263 C1280 1.574 . S
C1263 C1282 1.368 . S
C1263 H1287 0.949 . S
H1264 C1268 0.949 . S
C1265 C1266 1.349 . S
C1265 C1267 1.327 . S
C1265 H1288 0.950 . S
C1266 C1265 1.349 . S
C1266 C1278 1.349 . S
C1267 C1265 1.327 . S
C1267 C1283 1.429 . S
C1267 H1289 0.950 . S
C1268 H1264 0.949 . S
C1268 C1276 1.574 . S
C1268 C1284 1.368 . S
H1269 C1277 0.950 . S
H1270 C1275 0.950 . S
H1271 C1276 0.949 . S
H1272 C1278 0.950 . S
H1273 C1279 0.950 . S
H1274 C1280 0.949 . S
C1275 H1270 0.950 . S
C1275 C1277 1.327 . S
C1275 C1281 1.429 . S
C1276 C1268 1.574 . S
C1276 H1271 0.949 . S
C1276 C1282 1.368 . S
C1277 C1261 1.349 . S
C1277 H1269 0.950 . S
C1277 C1275 1.327 . S
C1278 C1266 1.349 . S
C1278 H1272 0.950 . S
C1278 C1279 1.327 . S
C1279 H1273 0.950 . S
C1279 C1278 1.327 . S
C1279 C1283 1.429 . S
C1280 C1263 1.574 . S
C1280 H1274 0.949 . S
C1280 C1284 1.368 . S
C1281 C1262 1.429 . S
C1281 C1275 1.429 . S
C1281 C1282 1.523 . S
C1282 C1263 1.368 . S
C1282 C1276 1.368 . S
C1282 C1281 1.523 . S
C1283 C1267 1.429 . S
C1283 C1279 1.429 . S
C1283 C1284 1.523 . S
C1284 C1268 1.368 . S
C1284 C1280 1.368 . S
C1284 C1283 1.523 . S
H1285 C1260 0.950 . S
H1286 C1262 0.950 . S
H1287 C1263 0.949 . S
H1288 C1265 0.950 . S
H1289 C1267 0.950 . S
C1290 C1291 1.349 . S
C1290 C1292 1.327 . S
C1290 H1315 0.950 . S
C1291 C1290 1.349 . S
C1291 C1307 1.349 . S
C1292 C1290 1.327 . S
C1292 C1311 1.429 . S
C1292 H1316 0.950 . S
C1293 C1310 1.574 . S
C1293 C1312 1.368 . S
C1293 H1317 0.949 . S
H1294 C1298 0.949 . S
C1295 C1296 1.349 . S
C1295 C1297 1.327 . S
C1295 H1318 0.950 . S
C1296 C1295 1.349 . S
C1296 C1308 1.349 . S
C1297 C1295 1.327 . S
C1297 C1313 1.429 . S
C1297 H1319 0.950 . S
C1298 H1294 0.949 . S
C1298 C1306 1.574 . S
C1298 C1314 1.368 . S
H1299 C1307 0.950 . S
H1300 C1305 0.950 . S
H1301 C1306 0.949 . S
H1302 C1308 0.950 . S
H1303 C1309 0.950 . S
H1304 C1310 0.949 . S
C1305 H1300 0.950 . S
C1305 C1307 1.327 . S
C1305 C1311 1.429 . S
C1306 C1298 1.574 . S
C1306 H1301 0.949 . S
C1306 C1312 1.368 . S
C1307 C1291 1.349 . S
C1307 H1299 0.950 . S
C1307 C1305 1.327 . S
C1308 C1296 1.349 . S
C1308 H1302 0.950 . S
C1308 C1309 1.327 . S
C1309 H1303 0.950 . S
C1309 C1308 1.327 . S
C1309 C1313 1.429 . S
C1310 C1293 1.574 . S
C1310 H1304 0.949 . S
C1310 C1314 1.368 . S
C1311 C1292 1.429 . S
C1311 C1305 1.429 . S
C1311 C1312 1.523 . S
C1312 C1293 1.368 . S
C1312 C1306 1.368 . S
C1312 C1311 1.523 . S
C1313 C1297 1.429 . S
C1313 C1309 1.429 . S
C1313 C1314 1.523 . S
C1314 C1298 1.368 . S
C1314 C1310 1.368 . S
C1314 C1313 1.523 . S
H1315 C1290 0.950 . S
H1316 C1292 0.950 . S
H1317 C1293 0.949 . S
H1318 C1295 0.950 . S
H1319 C1297 0.950 . S
C1320 C1321 1.349 . S
C1320 C1322 1.327 . S
C1320 H1345 0.950 . S
C1321 C1320 1.349 . S
C1321 C1337 1.349 . S
C1322 C1320 1.327 . S
C1322 C1341 1.429 . S
C1322 H1346 0.950 . S
C1323 C1340 1.574 . S
C1323 C1342 1.368 . S
C1323 H1347 0.949 . S
H1324 C1328 0.949 . S
C1325 C1326 1.349 . S
C1325 C1327 1.327 . S
C1325 H1348 0.950 . S
C1326 C1325 1.349 . S
C1326 C1338 1.349 . S
C1327 C1325 1.327 . S
C1327 C1343 1.429 . S
C1327 H1349 0.950 . S
C1328 H1324 0.949 . S
C1328 C1336 1.574 . S
C1328 C1344 1.368 . S
H1329 C1337 0.950 . S
H1330 C1335 0.950 . S
H1331 C1336 0.949 . S
H1332 C1338 0.950 . S
H1333 C1339 0.950 . S
H1334 C1340 0.949 . S
C1335 H1330 0.950 . S
C1335 C1337 1.327 . S
C1335 C1341 1.429 . S
C1336 C1328 1.574 . S
C1336 H1331 0.949 . S
C1336 C1342 1.368 . S
C1337 C1321 1.349 . S
C1337 H1329 0.950 . S
C1337 C1335 1.327 . S
C1338 C1326 1.349 . S
C1338 H1332 0.950 . S
C1338 C1339 1.327 . S
C1339 H1333 0.950 . S
C1339 C1338 1.327 . S
C1339 C1343 1.429 . S
C1340 C1323 1.574 . S
C1340 H1334 0.949 . S
C1340 C1344 1.368 . S
C1341 C1322 1.429 . S
C1341 C1335 1.429 . S
C1341 C1342 1.523 . S
C1342 C1323 1.368 . S
C1342 C1336 1.368 . S
C1342 C1341 1.523 . S
C1343 C1327 1.429 . S
C1343 C1339 1.429 . S
C1343 C1344 1.523 . S
C1344 C1328 1.368 . S
C1344 C1340 1.368 . S
C1344 C1343 1.523 . S
H1345 C1320 0.950 . S
H1346 C1322 0.950 . S
H1347 C1323 0.949 . S
H1348 C1325 0.950 . S
H1349 C1327 0.950 . S
C1350 C1351 1.349 . S
C1350 C1352 1.327 . S
C1350 H1375 0.950 . S
C1351 C1350 1.349 . S
C1351 C1367 1.349 . S
C1352 C1350 1.327 . S
C1352 C1371 1.429 . S
C1352 H1376 0.950 . S
C1353 C1370 1.574 . S
C1353 C1372 1.368 . S
C1353 H1377 0.949 . S
H1354 C1358 0.949 . S
C1355 C1356 1.349 . S
C1355 C1357 1.327 . S
C1355 H1378 0.950 . S
C1356 C1355 1.349 . S
C1356 C1368 1.349 . S
C1357 C1355 1.327 . S
C1357 C1373 1.429 . S
C1357 H1379 0.950 . S
C1358 H1354 0.949 . S
C1358 C1366 1.574 . S
C1358 C1374 1.368 . S
H1359 C1367 0.950 . S
H1360 C1365 0.950 . S
H1361 C1366 0.949 . S
H1362 C1368 0.950 . S
H1363 C1369 0.950 . S
H1364 C1370 0.949 . S
C1365 H1360 0.950 . S
C1365 C1367 1.327 . S
C1365 C1371 1.429 . S
C1366 C1358 1.574 . S
C1366 H1361 0.949 . S
C1366 C1372 1.368 . S
C1367 C1351 1.349 . S
C1367 H1359 0.950 . S
C1367 C1365 1.327 . S
C1368 C1356 1.349 . S
C1368 H1362 0.950 . S
C1368 C1369 1.327 . S
C1369 H1363 0.950 . S
C1369 C1368 1.327 . S
C1369 C1373 1.429 . S
C1370 C1353 1.574 . S
C1370 H1364 0.949 . S
C1370 C1374 1.368 . S
C1371 C1352 1.429 . S
C1371 C1365 1.429 . S
C1371 C1372 1.523 . S
C1372 C1353 1.368 . S
C1372 C1366 1.368 . S
C1372 C1371 1.523 . S
C1373 C1357 1.429 . S
C1373 C1369 1.429 . S
C1373 C1374 1.523 . S
C1374 C1358 1.368 . S
C1374 C1370 1.368 . S
C1374 C1373 1.523 . S
H1375 C1350 0.950 . S
H1376 C1352 0.950 . S
H1377 C1353 0.949 . S
H1378 C1355 0.950 . S
H1379 C1357 0.950 . S
C1380 C1381 1.349 . S
C1380 C1382 1.327 . S
C1380 H1405 0.950 . S
C1381 C1380 1.349 . S
C1381 C1397 1.349 . S
C1382 C1380 1.327 . S
C1382 C1401 1.429 . S
C1382 H1406 0.950 . S
C1383 C1400 1.574 . S
C1383 C1402 1.368 . S
C1383 H1407 0.949 . S
H1384 C1388 0.949 . S
C1385 C1386 1.349 . S
C1385 C1387 1.327 . S
C1385 H1408 0.950 . S
C1386 C1385 1.349 . S
C1386 C1398 1.349 . S
C1387 C1385 1.327 . S
C1387 C1403 1.429 . S
C1387 H1409 0.950 . S
C1388 H1384 0.949 . S
C1388 C1396 1.574 . S
C1388 C1404 1.368 . S
H1389 C1397 0.950 . S
H1390 C1395 0.950 . S
H1391 C1396 0.949 . S
H1392 C1398 0.950 . S
H1393 C1399 0.950 . S
H1394 C1400 0.949 . S
C1395 H1390 0.950 . S
C1395 C1397 1.327 . S
C1395 C1401 1.429 . S
C1396 C1388 1.574 . S
C1396 H1391 0.949 . S
C1396 C1402 1.368 . S
C1397 C1381 1.349 . S
C1397 H1389 0.950 . S
C1397 C1395 1.327 . S
C1398 C1386 1.349 . S
C1398 H1392 0.950 . S
C1398 C1399 1.327 . S
C1399 H1393 0.950 . S
C1399 C1398 1.327 . S
C1399 C1403 1.429 . S
C1400 C1383 1.574 . S
C1400 H1394 0.949 . S
C1400 C1404 1.368 . S
C1401 C1382 1.429 . S
C1401 C1395 1.429 . S
C1401 C1402 1.523 . S
C1402 C1383 1.368 . S
C1402 C1396 1.368 . S
C1402 C1401 1.523 . S
C1403 C1387 1.429 . S
C1403 C1399 1.429 . S
C1403 C1404 1.523 . S
C1404 C1388 1.368 . S
C1404 C1400 1.368 . S
C1404 C1403 1.523 . S
H1405 C1380 0.950 . S
H1406 C1382 0.950 . S
H1407 C1383 0.949 . S
H1408 C1385 0.950 . S
H1409 C1387 0.950 . S
C1410 C1411 1.349 . S
C1410 C1412 1.327 . S
C1410 H1435 0.950 . S
C1411 C1410 1.349 . S
C1411 C1427 1.349 . S
C1412 C1410 1.327 . S
C1412 C1431 1.429 . S
C1412 H1436 0.950 . S
C1413 C1430 1.574 . S
C1413 C1432 1.368 . S
C1413 H1437 0.949 . S
H1414 C1418 0.949 . S
C1415 C1416 1.349 . S
C1415 C1417 1.327 . S
C1415 H1438 0.950 . S
C1416 C1415 1.349 . S
C1416 C1428 1.349 . S
C1417 C1415 1.327 . S
C1417 C1433 1.429 . S
C1417 H1439 0.950 . S
C1418 H1414 0.949 . S
C1418 C1426 1.574 . S
C1418 C1434 1.368 . S
H1419 C1427 0.950 . S
H1420 C1425 0.950 . S
H1421 C1426 0.949 . S
H1422 C1428 0.950 . S
H1423 C1429 0.950 . S
H1424 C1430 0.949 . S
C1425 H1420 0.950 . S
C1425 C1427 1.327 . S
C1425 C1431 1.429 . S
C1426 C1418 1.574 . S
C1426 H1421 0.949 . S
C1426 C1432 1.368 . S
C1427 C1411 1.349 . S
C1427 H1419 0.950 . S
C1427 C1425 1.327 . S
C1428 C1416 1.349 . S
C1428 H1422 0.950 . S
C1428 C1429 1.327 . S
C1429 H1423 0.950 . S
C1429 C1428 1.327 . S
C1429 C1433 1.429 . S
C1430 C1413 1.574 . S
C1430 H1424 0.949 . S
C1430 C1434 1.368 . S
C1431 C1412 1.429 . S
C1431 C1425 1.429 . S
C1431 C1432 1.523 . S
C1432 C1413 1.368 . S
C1432 C1426 1.368 . S
C1432 C1431 1.523 . S
C1433 C1417 1.429 . S
C1433 C1429 1.429 . S
C1433 C1434 1.523 . S
C1434 C1418 1.368 . S
C1434 C1430 1.368 . S
C1434 C1433 1.523 . S
H1435 C1410 0.950 . S
H1436 C1412 0.950 . S
H1437 C1413 0.949 . S
H1438 C1415 0.950 . S
H1439 C1417 0.950 . S
C1440 C1441 1.349 . S
C1440 C1442 1.327 . S
C1440 H1465 0.950 . S
C1441 C1440 1.349 . S
C1441 C1457 1.349 . S
C1442 C1440 1.327 . S
C1442 C1461 1.429 . S
C1442 H1466 0.950 . S
C1443 C1460 1.574 . S
C1443 C1462 1.368 . S
C1443 H1467 0.949 . S
H1444 C1448 0.949 . S
C1445 C1446 1.349 . S
C1445 C1447 1.327 . S
C1445 H1468 0.950 . S
C1446 C1445 1.349 . S
C1446 C1458 1.349 . S
C1447 C1445 1.327 . S
C1447 C1463 1.429 . S
C1447 H1469 0.950 . S
C1448 H1444 0.949 . S
C1448 C1456 1.574 . S
C1448 C1464 1.368 . S
H1449 C1457 0.950 . S
H1450 C1455 0.950 . S
H1451 C1456 0.949 . S
H1452 C1458 0.950 . S
H1453 C1459 0.950 . S
H1454 C1460 0.949 . S
C1455 H1450 0.950 . S
C1455 C1457 1.327 . S
C1455 C1461 1.429 . S
C1456 C1448 1.574 . S
C1456 H1451 0.949 . S
C1456 C1462 1.368 . S
C1457 C1441 1.349 . S
C1457 H1449 0.950 . S
C1457 C1455 1.327 . S
C1458 C1446 1.349 . S
C1458 H1452 0.950 . S
C1458 C1459 1.327 . S
C1459 H1453 0.950 . S
C1459 C1458 1.327 . S
C1459 C1463 1.429 . S
C1460 C1443 1.574 . S
C1460 H1454 0.949 . S
C1460 C1464 1.368 . S
C1461 C1442 1.429 . S
C1461 C1455 1.429 . S
C1461 C1462 1.523 . S
C1462 C1443 1.368 . S
C1462 C1456 1.368 . S
C1462 C1461 1.523 . S
C1463 C1447 1.429 . S
C1463 C1459 1.429 . S
C1463 C1464 1.523 . S
C1464 C1448 1.368 . S
C1464 C1460 1.368 . S
C1464 C1463 1.523 . S
H1465 C1440 0.950 . S
H1466 C1442 0.950 . S
H1467 C1443 0.949 . S
H1468 C1445 0.950 . S
H1469 C1447 0.950 . S
C1470 C1471 1.349 . S
C1470 C1472 1.327 . S
C1470 H1495 0.950 . S
C1471 C1470 1.349 . S
C1471 C1487 1.349 . S
C1472 C1470 1.327 . S
C1472 C1491 1.429 . S
C1472 H1496 0.950 . S
C1473 C1490 1.574 . S
C1473 C1492 1.368 . S
C1473 H1497 0.949 . S
H1474 C1478 0.949 . S
C1475 C1476 1.349 . S
C1475 C1477 1.327 . S
C1475 H1498 0.950 . S
C1476 C1475 1.349 . S
C1476 C1488 1.349 . S
C1477 C1475 1.327 . S
C1477 C1493 1.429 . S
C1477 H1499 0.950 . S
C1478 H1474 0.949 . S
C1478 C1486 1.574 . S
C1478 C1494 1.368 . S
H1479 C1487 0.950 . S
H1480 C1485 0.950 . S
H1481 C1486 0.949 . S
H1482 C1488 0.950 . S
H1483 C1489 0.950 . S
H1484 C1490 0.949 . S
C1485 H1480 0.950 . S
C1485 C1487 1.327 . S
C1485 C1491 1.429 . S
C1486 C1478 1.574 . S
C1486 H1481 0.949 . S
C1486 C1492 1.368 . S
C1487 C1471 1.349 . S
C1487 H1479 0.950 . S
C1487 C1485 1.327 . S
C1488 C1476 1.349 . S
C1488 H1482 0.950 . S
C1488 C1489 1.327 . S
C1489 H1483 0.950 . S
C1489 C1488 1.327 . S
C1489 C1493 1.429 . S
C1490 C1473 1.574 . S
C1490 H1484 0.949 . S
C1490 C1494 1.368 . S
C1491 C1472 1.429 . S
C1491 C1485 1.429 . S
C1491 C1492 1.523 . S
C1492 C1473 1.368 . S
C1492 C1486 1.368 . S
C1492 C1491 1.523 . S
C1493 C1477 1.429 . S
C1493 C1489 1.429 . S
C1493 C1494 1.523 . S
C1494 C1478 1.368 . S
C1494 C1490 1.368 . S
C1494 C1493 1.523 . S
H1495 C1470 0.950 . S
H1496 C1472 0.950 . S
H1497 C1473 0.949 . S
H1498 C1475 0.950 . S
H1499 C1477 0.950 . S
C1500 C1501 1.349 . S
C1500 C1502 1.327 . S
C1500 H1525 0.950 . S
C1501 C1500 1.349 . S
C1501 C1517 1.349 . S
C1502 C1500 1.327 . S
C1502 C1521 1.429 . S
C1502 H1526 0.950 . S
C1503 C1520 1.574 . S
C1503 C1522 1.368 . S
C1503 H1527 0.949 . S
H1504 C1508 0.949 . S
C1505 C1506 1.349 . S
C1505 C1507 1.327 . S
C1505 H1528 0.950 . S
C1506 C1505 1.349 . S
C1506 C1518 1.349 . S
C1507 C1505 1.327 . S
C1507 C1523 1.429 . S
C1507 H1529 0.950 . S
C1508 H1504 0.949 . S
C1508 C1516 1.574 . S
C1508 C1524 1.368 . S
H1509 C1517 0.950 . S
H1510 C1515 0.950 . S
H1511 C1516 0.949 . S
H1512 C1518 0.950 . S
H1513 C1519 0.950 . S
H1514 C1520 0.949 . S
C1515 H1510 0.950 . S
C1515 C1517 1.327 . S
C1515 C1521 1.429 . S
C1516 C1508 1.574 . S
C1516 H1511 0.949 . S
C1516 C1522 1.368 . S
C1517 C1501 1.349 . S
C1517 H1509 0.950 . S
C1517 C1515 1.327 . S
C1518 C1506 1.349 . S
C1518 H1512 0.950 . S
C1518 C1519 1.327 . S
C1519 H1513 0.950 . S
C1519 C1518 1.327 . S
C1519 C1523 1.429 . S
C1520 C1503 1.574 . S
C1520 H1514 0.949 . S
C1520 C1524 1.368 . S
C1521 C1502 1.429 . S
C1521 C1515 1.429 . S
C1521 C1522 1.523 . S
C1522 C1503 1.368 . S
C1522 C1516 1.368 . S
C1522 C1521 1.523 . S
C1523 C1507 1.429 . S
C1523 C1519 1.429 . S
C1523 C1524 1.523 . S
C1524 C1508 1.368 . S
C1524 C1520 1.368 . S
C1524 C1523 1.523 . S
H1525 C1500 0.950 . S
H1526 C1502 0.950 . S
H1527 C1503 0.949 . S
H1528 C1505 0.950 . S
H1529 C1507 0.950 . S
C1530 C1531 1.349 . S
C1530 C1532 1.327 . S
C1530 H1555 0.950 . S
C1531 C1530 1.349 . S
C1531 C1547 1.349 . S
C1532 C1530 1.327 . S
C1532 C1551 1.429 . S
C1532 H1556 0.950 . S
C1533 C1550 1.574 . S
C1533 C1552 1.368 . S
C1533 H1557 0.949 . S
H1534 C1538 0.949 . S
C1535 C1536 1.349 . S
C1535 C1537 1.327 . S
C1535 H1558 0.950 . S
C1536 C1535 1.349 . S
C1536 C1548 1.349 . S
C1537 C1535 1.327 . S
C1537 C1553 1.429 . S
C1537 H1559 0.950 . S
C1538 H1534 0.949 . S
C1538 C1546 1.574 . S
C1538 C1554 1.368 . S
H1539 C1547 0.950 . S
H1540 C1545 0.950 . S
H1541 C1546 0.949 . S
H1542 C1548 0.950 . S
H1543 C1549 0.950 . S
H1544 C1550 0.949 . S
C1545 H1540 0.950 . S
C1545 C1547 1.327 . S
C1545 C1551 1.429 . S
C1546 C1538 1.574 . S
C1546 H1541 0.949 . S
C1546 C1552 1.368 . S
C1547 C1531 1.349 . S
C1547 H1539 0.950 . S
C1547 C1545 1.327 . S
C1548 C1536 1.349 . S
C1548 H1542 0.950 . S
C1548 C1549 1.327 . S
C1549 H1543 0.950 . S
C1549 C1548 1.327 . S
C1549 C1553 1.429 . S
C1550 C1533 1.574 . S
C1550 H1544 0.949 . S
C1550 C1554 1.368 . S
C1551 C1532 1.429 . S
C1551 C1545 1.429 . S
C1551 C1552 1.523 . S
C1552 C1533 1.368 . S
C1552 C1546 1.368 . S
C1552 C1551 1.523 . S
C1553 C1537 1.429 . S
C1553 C1549 1.429 . S
C1553 C1554 1.523 . S
C1554 C1538 1.368 . S
C1554 C1550 1.368 . S
C1554 C1553 1.523 . S
H1555 C1530 0.950 . S
H1556 C1532 0.950 . S
H1557 C1533 0.949 . S
H1558 C1535 0.950 . S
H1559 C1537 0.950 . S
C481 C95 1.231 . S
C486 C19 1.206 . S
C511 C126 1.230 . S
C516 C50 1.206 . S
C541 C99 1.206 . S
C546 C175 1.230 . S
C571 C130 1.206 . S
C576 C206 1.231 . S
C601 C15 1.230 . S
C606 C179 1.206 . S
C631 C46 1.231 . S
C636 C210 1.206 . S
C661 C406 1.231 . S
C666 C250 1.206 . S
C691 C299 1.206 . S
C696 C455 1.230 . S
C721 C330 1.206 . S
C726 C246 1.230 . S
C751 C379 1.206 . S
C756 C295 1.231 . S
C781 C410 1.206 . S
C786 C326 1.231 . S
C811 C375 1.230 . S
C816 C459 1.206 . S
C841 C129 1.738 . S
C846 C18 1.738 . S
C871 C49 1.738 . S
C876 C178 1.739 . S
C901 C98 1.738 . S
C906 C209 1.738 . S
C931 C249 1.738 . S
C936 C378 1.738 . S
C961 C298 1.738 . S
C966 C409 1.738 . S
C991 C329 1.738 . S
C996 C458 1.738 . S
C1021 C289 2.257 . S
C1026 C9 2.257 . S
C1051 C58 2.257 . S
C1056 C338 2.257 . S
C1081 C369 2.257 . S
C1086 C89 2.257 . S
C1111 C138 2.257 . S
C1116 C418 2.257 . S
C1141 C169 2.257 . S
C1146 C449 2.257 . S
C1171 C258 2.257 . S
C1176 C218 2.257 . S
C1201 C86 1.749 . S
C1206 C10 1.760 . S
C1231 C59 1.760 . S
C1236 C135 1.749 . S
C1261 C90 1.760 . S
C1266 C166 1.749 . S
C1291 C139 1.760 . S
C1296 C215 1.749 . S
C1321 C6 1.749 . S
C1326 C170 1.760 . S
C1351 C55 1.749 . S
C1356 C219 1.760 . S
C1381 C415 1.749 . S
C1386 C259 1.760 . S
C1411 C290 1.760 . S
C1416 C446 1.749 . S
C1441 C339 1.760 . S
C1446 C255 1.749 . S
C1471 C286 1.749 . S
C1476 C370 1.760 . S
C1501 C419 1.760 . S
C1506 C335 1.749 . S
C1531 C450 1.760 . S
C1536 C366 1.749 . S
