# Generated by pormake.
# Topology uoc, (4)-cn, num edge types: 1
# Building blocks:
#     Node 0, Type 0, BuildingBlock: KUFVIS_clean_sbu_0, # of connection points: 4
#     Node 1, Type 0, BuildingBlock: KUFVIS_clean_sbu_0, # of connection points: 4
#     Node 2, Type 0, BuildingBlock: KUFVIS_clean_sbu_0, # of connection points: 4
#     Node 3, Type 0, BuildingBlock: KUFVIS_clean_sbu_0, # of connection points: 4
#     Node 4, Type 0, BuildingBlock: KUFVIS_clean_sbu_0, # of connection points: 4
#     Node 5, Type 0, BuildingBlock: KUFVIS_clean_sbu_0, # of connection points: 4
#     Node 6, Type 0, BuildingBlock: KUFVIS_clean_sbu_0, # of connection points: 4
#     Node 7, Type 0, BuildingBlock: KUFVIS_clean_sbu_0, # of connection points: 4
#     Edge 8, Type (0, 0), BuildingBlock: KIFKEQ_clean_linker_1, # of connection points: 2
#     Edge 9, Type (0, 0), BuildingBlock: KIFKEQ_clean_linker_1, # of connection points: 2
#     Edge 10, Type (0, 0), BuildingBlock: KIFKEQ_clean_linker_1, # of connection points: 2
#     Edge 11, Type (0, 0), BuildingBlock: KIFKEQ_clean_linker_1, # of connection points: 2
#     Edge 12, Type (0, 0), BuildingBlock: KIFKEQ_clean_linker_1, # of connection points: 2
#     Edge 13, Type (0, 0), BuildingBlock: KIFKEQ_clean_linker_1, # of connection points: 2
#     Edge 14, Type (0, 0), BuildingBlock: KIFKEQ_clean_linker_1, # of connection points: 2
#     Edge 15, Type (0, 0), BuildingBlock: KIFKEQ_clean_linker_1, # of connection points: 2
#     Edge 16, Type (0, 0), BuildingBlock: KIFKEQ_clean_linker_1, # of connection points: 2
#     Edge 17, Type (0, 0), BuildingBlock: KIFKEQ_clean_linker_1, # of connection points: 2
#     Edge 18, Type (0, 0), BuildingBlock: KIFKEQ_clean_linker_1, # of connection points: 2
#     Edge 19, Type (0, 0), BuildingBlock: KIFKEQ_clean_linker_1, # of connection points: 2
#     Edge 20, Type (0, 0), BuildingBlock: KIFKEQ_clean_linker_1, # of connection points: 2
#     Edge 21, Type (0, 0), BuildingBlock: KIFKEQ_clean_linker_1, # of connection points: 2
#     Edge 22, Type (0, 0), BuildingBlock: KIFKEQ_clean_linker_1, # of connection points: 2
#     Edge 23, Type (0, 0), BuildingBlock: KIFKEQ_clean_linker_1, # of connection points: 2
# Relax obj value: 0.118
# Max RMSD: 0.132
# Mean RMSD: 0.130
data_MOF--net-uoc--node1-KUFVIS_clean_sbu_0--edge1-KIFKEQ_clean_linker_1
_symmetry_space_group_name_H-M    P1
_symmetry_Int_Tables_number       1
_symmetry_cell_setting            triclinic
loop_
_symmetry_equiv_pos_as_xyz
'x, y, z'
_cell_length_a     27.782567
_cell_length_b     27.813781
_cell_length_c     54.947607
_cell_angle_alpha  90.312212
_cell_angle_beta   90.42348
_cell_angle_gamma 89.934664
loop_
_atom_site_label
_atom_site_type_symbol
_atom_site_fract_x
_atom_site_fract_y
_atom_site_fract_z
_atom_type_partial_charge
Mn0 Mn 0.11355 0.24518 0.12167 0.0
Mn1 Mn 0.2128 0.17809 0.13211 0.0
C2 C 0.14431 0.23912 0.16062 0.0
C3 C 0.07838 0.31865 0.11151 0.0
C4 C 0.11331 0.13546 0.12423 0.0
O5 O 0.14101 0.23572 0.08782 0.0
O6 O 0.20936 0.19597 0.09721 0.0
C7 C 0.28761 0.25114 0.1225 0.0
N8 N 0.26752 0.21827 0.13762 0.0
C9 C 0.32951 0.23091 0.16777 0.0
C10 C 0.35107 0.2647 0.15247 0.0
C11 C 0.32988 0.27503 0.12979 0.0
C12 C 0.28733 0.2084 0.15957 0.0
H13 H 0.27152 0.25901 0.10502 0.0
C14 C 0.181 0.21644 0.08196 0.0
O15 O 0.0554 0.2784 0.10835 0.0
O16 O 0.1222 0.31591 0.11965 0.0
N17 N 0.22113 0.15863 0.16519 0.0
C18 C 0.19391 0.12773 0.17843 0.0
C19 C 0.20937 0.11449 0.20183 0.0
C20 C 0.25283 0.13272 0.21124 0.0
C21 C 0.28007 0.16478 0.19734 0.0
C22 C 0.26287 0.1766 0.17413 0.0
H23 H 0.16082 0.11306 0.17114 0.0
O24 O 0.09985 0.25165 0.15696 0.0
O25 O 0.16985 0.23104 0.14127 0.0
O26 O 0.09058 0.17514 0.12219 0.0
O27 O 0.15886 0.13289 0.1272 0.0
C28 C 0.32352 0.18555 0.20557 0.0
C29 C 0.34794 0.21898 0.19092 0.0
H30 H 0.38369 0.28317 0.15801 0.0
H31 H 0.34618 0.30122 0.11792 0.0
H32 H 0.18809 0.08988 0.21249 0.0
H33 H 0.26485 0.12172 0.22914 0.0
H34 H 0.33846 0.17632 0.22317 0.0
H35 H 0.3808 0.23539 0.19767 0.0
Mn36 Mn 0.74543 0.60845 0.37033 0.0
Mn37 Mn 0.81197 0.70776 0.38162 0.0
C38 C 0.75022 0.63891 0.40912 0.0
C39 C 0.67221 0.57337 0.35922 0.0
C40 C 0.85564 0.60865 0.37562 0.0
O41 O 0.75572 0.63564 0.33666 0.0
O42 O 0.79896 0.70186 0.34598 0.0
C43 C 0.73831 0.78005 0.36817 0.0
N44 N 0.76938 0.76137 0.38492 0.0
C45 C 0.74583 0.82016 0.41486 0.0
C46 C 0.71383 0.84026 0.39787 0.0
C47 C 0.71002 0.82006 0.37444 0.0
C48 C 0.77327 0.78046 0.40753 0.0
H49 H 0.73506 0.76445 0.3502 0.0
C50 C 0.77818 0.67365 0.33065 0.0
O51 O 0.71259 0.55029 0.35664 0.0
O52 O 0.67478 0.61716 0.36728 0.0
N53 N 0.82735 0.71835 0.41523 0.0
C54 C 0.85889 0.69383 0.42968 0.0
C55 C 0.8662 0.70887 0.45387 0.0
C56 C 0.84142 0.74918 0.46287 0.0
C57 C 0.80987 0.77439 0.44751 0.0
C58 C 0.80432 0.75795 0.42351 0.0
H59 H 0.87795 0.66275 0.42289 0.0
O60 O 0.73776 0.59454 0.40543 0.0
O61 O 0.75882 0.6646 0.3899 0.0
O62 O 0.8161 0.58612 0.37196 0.0
O63 O 0.85807 0.65404 0.37916 0.0
C64 C 0.78306 0.81466 0.45519 0.0
C65 C 0.75101 0.83748 0.43889 0.0
H66 H 0.69177 0.87096 0.40267 0.0
H67 H 0.68522 0.83522 0.36127 0.0
H68 H 0.89069 0.68927 0.46559 0.0
H69 H 0.84673 0.76033 0.48161 0.0
H70 H 0.78642 0.82805 0.47367 0.0
H71 H 0.73022 0.8681 0.44508 0.0
Mn72 Mn 0.39836 0.24705 0.61155 0.0
Mn73 Mn 0.29875 0.18169 0.59933 0.0
C74 C 0.36872 0.24278 0.57251 0.0
C75 C 0.43437 0.31977 0.62252 0.0
C76 C 0.39724 0.13695 0.60585 0.0
O77 O 0.36982 0.23801 0.64493 0.0
O78 O 0.30498 0.19297 0.63519 0.0
C79 C 0.22701 0.25507 0.6138 0.0
N80 N 0.24535 0.22479 0.59664 0.0
C81 C 0.18628 0.2502 0.56713 0.0
C82 C 0.16656 0.2814 0.58454 0.0
C83 C 0.18707 0.28388 0.60796 0.0
C84 C 0.22591 0.22214 0.57404 0.0
H85 H 0.24282 0.25732 0.63178 0.0
C86 C 0.33225 0.21458 0.6507 0.0
O87 O 0.45675 0.27913 0.62555 0.0
O88 O 0.39075 0.31774 0.61409 0.0
N89 N 0.28771 0.16823 0.56553 0.0
C90 C 0.31227 0.13786 0.55054 0.0
C91 C 0.29701 0.13208 0.52627 0.0
C92 C 0.25653 0.15731 0.51772 0.0
C93 C 0.23145 0.18786 0.53358 0.0
C94 C 0.24808 0.19186 0.55763 0.0
H95 H 0.34367 0.11873 0.55693 0.0
O96 O 0.41343 0.25383 0.5765 0.0
O97 O 0.34241 0.23466 0.59156 0.0
O98 O 0.4196 0.17603 0.61076 0.0
O99 O 0.3522 0.13512 0.60105 0.0
C100 C 0.19121 0.21526 0.52632 0.0
C101 C 0.16868 0.24645 0.54308 0.0
H102 H 0.13592 0.30389 0.58007 0.0
H103 H 0.1722 0.30806 0.62146 0.0
H104 H 0.31663 0.10851 0.51414 0.0
H105 H 0.24524 0.15323 0.49891 0.0
H106 H 0.17767 0.21308 0.50781 0.0
H107 H 0.1381 0.26775 0.5372 0.0
Mn108 Mn 0.75218 0.89322 0.86254 0.0
Mn109 Mn 0.81854 0.79422 0.85063 0.0
C110 C 0.75382 0.86171 0.82368 0.0
C111 C 0.67943 0.92803 0.87423 0.0
C112 C 0.86166 0.89369 0.85738 0.0
O113 O 0.7654 0.86597 0.89624 0.0
O114 O 0.80428 0.79766 0.8859 0.0
C115 C 0.74668 0.71943 0.86222 0.0
N116 N 0.77773 0.73963 0.84618 0.0
C117 C 0.75869 0.68012 0.81569 0.0
C118 C 0.72685 0.65837 0.83196 0.0
C119 C 0.72075 0.6782 0.85531 0.0
C120 C 0.78394 0.72085 0.82368 0.0
H121 H 0.74164 0.73475 0.88012 0.0
C122 C 0.78531 0.82596 0.90162 0.0
O123 O 0.7198 0.95132 0.87637 0.0
O124 O 0.68181 0.88408 0.86639 0.0
N125 N 0.8342 0.78631 0.81702 0.0
C126 C 0.86286 0.81412 0.80284 0.0
C127 C 0.87066 0.80076 0.77851 0.0
C128 C 0.84921 0.75885 0.76909 0.0
C129 C 0.82018 0.73063 0.78412 0.0
C130 C 0.81393 0.74556 0.80825 0.0
H131 H 0.87928 0.84647 0.80997 0.0
O132 O 0.74164 0.90621 0.82725 0.0
O133 O 0.76453 0.83695 0.84297 0.0
O134 O 0.8221 0.91641 0.86018 0.0
O135 O 0.86405 0.84819 0.85442 0.0
C136 C 0.7961 0.68903 0.77592 0.0
C137 C 0.76537 0.66378 0.79165 0.0
H138 H 0.70644 0.62682 0.82661 0.0
H139 H 0.69596 0.66184 0.8679 0.0
H140 H 0.89297 0.82282 0.76701 0.0
H141 H 0.85486 0.74903 0.75024 0.0
H142 H 0.80028 0.67668 0.75744 0.0
H143 H 0.74636 0.63237 0.78492 0.0
Mn144 Mn 0.60977 0.74627 0.62237 0.0
Mn145 Mn 0.71049 0.68059 0.63149 0.0
C146 C 0.64358 0.74207 0.66074 0.0
C147 C 0.57266 0.81862 0.61197 0.0
C148 C 0.61102 0.63672 0.62565 0.0
O149 O 0.63474 0.73553 0.58805 0.0
O150 O 0.70482 0.69811 0.59666 0.0
C151 C 0.78401 0.75422 0.62059 0.0
N152 N 0.76512 0.72131 0.63608 0.0
C153 C 0.82869 0.73479 0.66528 0.0
C154 C 0.84904 0.76862 0.64957 0.0
C155 C 0.82645 0.77854 0.62719 0.0
C156 C 0.78629 0.71181 0.65775 0.0
H157 H 0.76681 0.76181 0.60334 0.0
C158 C 0.67499 0.71735 0.58172 0.0
O159 O 0.55007 0.77789 0.61004 0.0
O160 O 0.61724 0.81706 0.61909 0.0
N161 N 0.72086 0.6616 0.66449 0.0
C162 C 0.69464 0.63069 0.67823 0.0
C163 C 0.71149 0.6179 0.70144 0.0
C164 C 0.75529 0.6366 0.71017 0.0
C165 C 0.78151 0.66863 0.69576 0.0
C166 C 0.76295 0.67997 0.67276 0.0
H167 H 0.66127 0.61569 0.67147 0.0
O168 O 0.59883 0.75428 0.65785 0.0
O169 O 0.66767 0.73344 0.64098 0.0
O170 O 0.58767 0.67612 0.62416 0.0
O171 O 0.6568 0.63472 0.62748 0.0
C172 C 0.8252 0.6899 0.70331 0.0
C173 C 0.84851 0.72331 0.68819 0.0
H174 H 0.88179 0.78744 0.65459 0.0
H175 H 0.84181 0.80476 0.61502 0.0
H176 H 0.69101 0.59331 0.7125 0.0
H177 H 0.76834 0.62596 0.72793 0.0
H178 H 0.84117 0.68105 0.72072 0.0
H179 H 0.88157 0.7401 0.69442 0.0
Mn180 Mn 0.25231 0.10568 0.87111 0.0
Mn181 Mn 0.31906 0.20523 0.8814 0.0
C182 C 0.25815 0.13692 0.90973 0.0
C183 C 0.17897 0.07029 0.86057 0.0
C184 C 0.3626 0.10601 0.87561 0.0
O185 O 0.26167 0.13216 0.83721 0.0
O186 O 0.30496 0.19865 0.84588 0.0
C187 C 0.24505 0.2773 0.86815 0.0
N188 N 0.27661 0.25893 0.88475 0.0
C189 C 0.25405 0.31837 0.91456 0.0
C190 C 0.22156 0.33816 0.89771 0.0
C191 C 0.21701 0.31748 0.87442 0.0
C192 C 0.28123 0.2785 0.90723 0.0
H193 H 0.24123 0.26133 0.85029 0.0
C194 C 0.28382 0.17011 0.83084 0.0
O195 O 0.21933 0.04724 0.85789 0.0
O196 O 0.18157 0.1142 0.86845 0.0
N197 N 0.33542 0.21645 0.91485 0.0
C198 C 0.36721 0.19206 0.92922 0.0
C199 C 0.37519 0.20752 0.95328 0.0
C200 C 0.35078 0.24809 0.96225 0.0
C201 C 0.31892 0.27312 0.94697 0.0
C202 C 0.31271 0.25626 0.92309 0.0
H203 H 0.38598 0.16078 0.92245 0.0
O204 O 0.2456 0.09249 0.90634 0.0
O205 O 0.26616 0.16224 0.89031 0.0
O206 O 0.32297 0.08342 0.87238 0.0
O207 O 0.36512 0.15147 0.87887 0.0
C208 C 0.29241 0.31359 0.95465 0.0
C209 C 0.25994 0.33616 0.93846 0.0
H210 H 0.19967 0.36898 0.90253 0.0
H211 H 0.19182 0.33239 0.86137 0.0
H212 H 0.39989 0.18805 0.96494 0.0
H213 H 0.35661 0.25957 0.9809 0.0
H214 H 0.29629 0.32731 0.97304 0.0
H215 H 0.23937 0.36692 0.94466 0.0
Mn216 Mn 0.90055 0.74562 0.11159 0.0
Mn217 Mn 0.80136 0.67908 0.10003 0.0
C218 C 0.87081 0.74002 0.07262 0.0
C219 C 0.93575 0.81891 0.12221 0.0
C220 C 0.9003 0.63549 0.1075 0.0
O221 O 0.87216 0.73662 0.14511 0.0
O222 O 0.80585 0.6935 0.13559 0.0
C223 C 0.72822 0.75285 0.11192 0.0
N224 N 0.74775 0.72136 0.09569 0.0
C225 C 0.6902 0.74381 0.06482 0.0
C226 C 0.66924 0.77623 0.08127 0.0
C227 C 0.68839 0.7808 0.10491 0.0
C228 C 0.72962 0.71667 0.0729 0.0
H229 H 0.74303 0.7567 0.13005 0.0
C230 C 0.83366 0.71476 0.15096 0.0
O231 O 0.95857 0.77857 0.12538 0.0
O232 O 0.89207 0.8163 0.11389 0.0
N233 N 0.79233 0.6627 0.06643 0.0
C234 C 0.81798 0.6313 0.05248 0.0
C235 C 0.80426 0.6235 0.02812 0.0
C236 C 0.76416 0.64775 0.01843 0.0
C237 C 0.73789 0.67931 0.03326 0.0
C238 C 0.75302 0.68534 0.05745 0.0
H239 H 0.84896 0.61272 0.05979 0.0
O240 O 0.9153 0.75208 0.07648 0.0
O241 O 0.84479 0.73195 0.09177 0.0
O242 O 0.9228 0.67507 0.11086 0.0
O243 O 0.85497 0.63304 0.10359 0.0
C244 C 0.69788 0.70576 0.02484 0.0
C245 C 0.67408 0.73801 0.0406 0.0
H246 H 0.63871 0.79808 0.07588 0.0
H247 H 0.67258 0.80593 0.11766 0.0
H248 H 0.82471 0.59907 0.01681 0.0
H249 H 0.75403 0.64207 -0.00044 0.0
H250 H 0.68549 0.70201 0.00619 0.0
H251 H 0.64372 0.75857 0.03383 0.0
Mn252 Mn 0.24541 0.39649 0.36275 0.0
Mn253 Mn 0.3115 0.29743 0.3505 0.0
C254 C 0.24598 0.36479 0.32393 0.0
C255 C 0.17283 0.4312 0.37482 0.0
C256 C 0.35478 0.39697 0.35681 0.0
O257 O 0.25964 0.36944 0.39641 0.0
O258 O 0.29831 0.30112 0.38588 0.0
C259 C 0.2399 0.22283 0.36273 0.0
N260 N 0.27047 0.24291 0.34641 0.0
C261 C 0.24985 0.18368 0.31604 0.0
C262 C 0.2185 0.16207 0.33259 0.0
C263 C 0.21345 0.1818 0.35603 0.0
C264 C 0.27571 0.22417 0.32384 0.0
H265 H 0.23562 0.23811 0.38069 0.0
C266 C 0.27982 0.32951 0.40171 0.0
O267 O 0.21317 0.45461 0.3767 0.0
O268 O 0.1752 0.38718 0.36708 0.0
N269 N 0.32619 0.28929 0.31677 0.0
C270 C 0.35468 0.31684 0.30237 0.0
C271 C 0.36154 0.30348 0.27796 0.0
C272 C 0.33929 0.26187 0.26868 0.0
C273 C 0.31054 0.23386 0.28394 0.0
C274 C 0.30533 0.2487 0.30815 0.0
H275 H 0.37163 0.34902 0.30938 0.0
O276 O 0.23384 0.40929 0.32752 0.0
O277 O 0.25731 0.34016 0.34317 0.0
O278 O 0.31529 0.4197 0.35986 0.0
O279 O 0.3571 0.35145 0.35386 0.0
C280 C 0.28557 0.19267 0.27588 0.0
C281 C 0.25534 0.16752 0.29188 0.0
H282 H 0.19764 0.13072 0.3274 0.0
H283 H 0.18904 0.16555 0.36884 0.0
H284 H 0.38366 0.32537 0.26628 0.0
H285 H 0.34409 0.25213 0.24975 0.0
H286 H 0.28847 0.18074 0.25725 0.0
H287 H 0.23567 0.13642 0.28527 0.0
H288 H 0.27127 0.20517 0.06375 0.0
H289 H 0.12313 0.22657 0.04176 0.0
H290 H 0.29408 0.19521 0.02137 0.0
H291 H 0.14574 0.21494 -0.00067 0.0
H292 H 0.20441 0.21418 0.92284 0.0
H293 H 0.18924 0.24331 0.96424 0.0
H294 H 0.28131 0.13102 -0.00735 0.0
H295 H 0.2974 0.10348 0.9513 0.0
C296 C 0.24357 0.20793 0.04985 0.0
C297 C 0.19525 0.21591 0.05612 0.0
C298 C 0.25665 0.20209 0.02557 0.0
C299 C 0.22163 0.20348 0.00702 0.0
C300 C 0.17368 0.21399 0.01317 0.0
C301 C 0.16064 0.22039 0.0375 0.0
C302 C 0.22238 0.19689 0.93802 0.0
C303 C 0.25341 0.15787 0.93409 0.0
C304 C 0.21324 0.21303 0.96167 0.0
C305 C 0.23434 0.18973 0.98175 0.0
C306 C 0.2654 0.15057 0.97761 0.0
C307 C 0.27445 0.13455 0.95401 0.0
H308 H 0.71566 0.64942 0.29403 0.0
H309 H 0.85008 0.72244 0.30821 0.0
H310 H 0.72453 0.66413 0.25064 0.0
H311 H 0.86075 0.73462 0.26485 0.0
H312 H 0.85616 0.77963 0.18672 0.0
H313 H 0.83793 0.77452 0.2299 0.0
H314 H 0.76732 0.63793 0.21724 0.0
H315 H 0.78303 0.64486 0.17397 0.0
C316 C 0.74722 0.66847 0.28781 0.0
C317 C 0.7822 0.68472 0.30448 0.0
C318 C 0.75257 0.67662 0.2629 0.0
C319 C 0.79361 0.70026 0.25401 0.0
C320 C 0.8282 0.71711 0.27086 0.0
C321 C 0.82229 0.70987 0.29579 0.0
C322 C 0.8364 0.74875 0.19322 0.0
C323 C 0.82109 0.71261 0.17701 0.0
C324 C 0.82619 0.74558 0.21803 0.0
C325 C 0.80138 0.7056 0.22731 0.0
C326 C 0.78565 0.66975 0.21089 0.0
C327 C 0.79494 0.67349 0.18603 0.0
H328 H 0.29226 0.29874 0.56055 0.0
H329 H 0.40262 0.20817 0.52998 0.0
H330 H 0.26275 0.31758 0.51958 0.0
H331 H 0.37456 0.22787 0.48905 0.0
H332 H 0.27393 0.38663 0.44243 0.0
H333 H 0.2897 0.36302 0.48449 0.0
H334 H 0.30816 0.21555 0.46119 0.0
H335 H 0.29397 0.23924 0.41925 0.0
C336 C 0.30948 0.2822 0.54497 0.0
C337 C 0.34837 0.25062 0.54819 0.0
C338 C 0.29313 0.29347 0.52158 0.0
C339 C 0.31601 0.27387 0.50106 0.0
C340 C 0.35536 0.24263 0.50446 0.0
C341 C 0.37164 0.2315 0.52781 0.0
C342 C 0.28081 0.34912 0.44636 0.0
C343 C 0.2835 0.31498 0.42748 0.0
C344 C 0.28962 0.33553 0.47046 0.0
C345 C 0.30086 0.2875 0.4761 0.0
C346 C 0.30079 0.25302 0.45735 0.0
C347 C 0.29249 0.26662 0.43332 0.0
H348 H 0.70367 0.78017 0.81536 0.0
H349 H 0.77697 0.89538 0.77908 0.0
H350 H 0.68538 0.74248 0.77648 0.0
H351 H 0.7539 0.86159 0.73981 0.0
H352 H 0.72803 0.78723 0.67031 0.0
H353 H 0.76212 0.80724 0.70989 0.0
H354 H 0.63677 0.74516 0.74415 0.0
H355 H 0.60734 0.7191 0.70461 0.0
C356 C 0.71635 0.79699 0.79888 0.0
C357 C 0.74382 0.83909 0.80004 0.0
C358 C 0.70485 0.77612 0.77647 0.0
C359 C 0.71818 0.79851 0.7546 0.0
C360 C 0.74435 0.84193 0.75599 0.0
C361 C 0.75713 0.86187 0.77849 0.0
C362 C 0.70955 0.77542 0.68648 0.0
C363 C 0.6665 0.74953 0.68459 0.0
C364 C 0.72813 0.78832 0.70924 0.0
C365 C 0.7022 0.77856 0.73059 0.0
C366 C 0.65883 0.75249 0.72848 0.0
C367 C 0.64146 0.73786 0.70575 0.0
H368 H 0.19446 0.28401 0.31589 0.0
H369 H 0.26983 0.39739 0.27922 0.0
H370 H 0.1768 0.24531 0.27716 0.0
H371 H 0.24807 0.36222 0.24005 0.0
H372 H 0.10458 0.21793 0.20397 0.0
H373 H 0.13075 0.24614 0.24373 0.0
H374 H 0.25938 0.30549 0.2114 0.0
H375 H 0.22863 0.28345 0.17143 0.0
C376 C 0.2076 0.30027 0.29935 0.0
C377 C 0.2356 0.34204 0.30037 0.0
C378 C 0.19659 0.27877 0.27703 0.0
C379 C 0.21137 0.29998 0.2551 0.0
C380 C 0.2376 0.34337 0.25633 0.0
C381 C 0.24963 0.3641 0.27876 0.0
C382 C 0.13875 0.23648 0.20558 0.0
C383 C 0.16563 0.24689 0.18483 0.0
C384 C 0.15419 0.25242 0.22845 0.0
C385 C 0.19741 0.27852 0.23112 0.0
C386 C 0.22536 0.28669 0.21026 0.0
C387 C 0.20874 0.27251 0.18732 0.0
H388 H 0.61521 0.72542 0.54203 0.0
H389 H 0.7647 0.70848 0.56266 0.0
H390 H 0.63668 0.71393 0.49936 0.0
H391 H 0.78618 0.69846 0.52014 0.0
H392 H 0.78908 0.60509 0.45067 0.0
H393 H 0.77269 0.6323 0.49205 0.0
H394 H 0.67977 0.744 0.4638 0.0
H395 H 0.69555 0.71546 0.42231 0.0
C396 C 0.65271 0.72021 0.53742 0.0
C397 C 0.68811 0.71692 0.55572 0.0
C398 C 0.66506 0.71389 0.51298 0.0
C399 C 0.71305 0.70457 0.50646 0.0
C400 C 0.74875 0.70442 0.52467 0.0
C401 C 0.7364 0.71026 0.54903 0.0
C402 C 0.76586 0.63595 0.45342 0.0
C403 C 0.74486 0.65938 0.43353 0.0
C404 C 0.75661 0.65174 0.47702 0.0
C405 C 0.72534 0.69071 0.48118 0.0
C406 C 0.704 0.71393 0.46116 0.0
C407 C 0.71346 0.69811 0.43749 0.0
H408 H 0.35283 0.27957 0.68658 0.0
H409 H 0.2847 0.14228 0.67368 0.0
H410 H 0.33626 0.27292 0.72984 0.0
H411 H 0.27065 0.13391 0.7171 0.0
H412 H 0.2212 0.14323 0.79467 0.0
H413 H 0.22821 0.15799 0.75119 0.0
H414 H 0.36236 0.23308 0.76423 0.0
H415 H 0.35358 0.22071 0.80767 0.0
C416 C 0.33452 0.2478 0.69307 0.0
C417 C 0.32021 0.21137 0.67678 0.0
C418 C 0.32529 0.24375 0.71793 0.0
C419 C 0.30248 0.20262 0.72721 0.0
C420 C 0.28753 0.16652 0.71074 0.0
C421 C 0.29585 0.1711 0.6858 0.0
C422 C 0.25193 0.16325 0.78818 0.0
C423 C 0.28684 0.18081 0.80457 0.0
C424 C 0.2562 0.17145 0.76321 0.0
C425 C 0.29604 0.19654 0.75397 0.0
C426 C 0.33064 0.21447 0.77052 0.0
C427 C 0.32582 0.20713 0.79551 0.0
H428 H 0.79423 0.79544 0.0604 0.0
H429 H 0.90424 0.70378 0.03036 0.0
H430 H 0.76487 0.81359 0.01933 0.0
H431 H 0.87639 0.72283 0.98931 0.0
H432 H 0.79801 0.73542 0.91907 0.0
H433 H 0.81063 0.71128 0.96107 0.0
H434 H 0.79283 0.85878 0.98448 0.0
H435 H 0.77858 0.88282 0.94237 0.0
C436 C 0.81136 0.77846 0.04492 0.0
C437 C 0.85018 0.74688 0.0483 0.0
C438 C 0.7951 0.78933 0.02147 0.0
C439 C 0.81805 0.76937 0.00106 0.0
C440 C 0.85715 0.7379 0.00463 0.0
C441 C 0.87332 0.72714 0.02805 0.0
C442 C 0.79632 0.7627 0.93318 0.0
C443 C 0.788 0.81119 0.92737 0.0
C444 C 0.8037 0.74884 0.95724 0.0
C445 C 0.80351 0.7832 0.97605 0.0
C446 C 0.79289 0.83137 0.97041 0.0
C447 C 0.78497 0.84521 0.94628 0.0
H448 H 0.01669 0.12276 0.13171 0.0
H449 H 0.14795 0.0446 0.11714 0.0
H450 H 0.97289 0.04707 0.13404 0.0
H451 H 0.10402 0.96925 0.11848 0.0
H452 H 0.02401 0.83767 0.1427 0.0
H453 H 0.06553 0.91489 0.14477 0.0
H454 H 0.94338 0.98318 0.11001 0.0
H455 H 0.90141 0.90669 0.10897 0.0
C456 C 0.03608 0.08948 0.12869 0.0
C457 C 0.08581 0.0898 0.12421 0.0
C458 C 0.01096 0.04599 0.12999 0.0
C459 C 0.03486 0.00181 0.12656 0.0
C460 C 0.08451 0.00234 0.12178 0.0
C461 C 0.10968 0.04571 0.12076 0.0
C462 C 0.00588 0.86936 0.13582 0.0
C463 C 0.95951 0.86605 0.12565 0.0
C464 C 0.02981 0.9136 0.13678 0.0
C465 C 0.00809 0.9554 0.12733 0.0
C466 C 0.96112 0.95208 0.11776 0.0
C467 C 0.93706 0.90804 0.11706 0.0
H468 H 0.08432 0.39622 0.36283 0.0
H469 H 0.15474 0.51963 0.39508 0.0
H470 H 0.0077 0.43807 0.36404 0.0
H471 H 0.07738 0.56099 0.39747 0.0
H472 H 0.94663 0.64303 0.36952 0.0
H473 H 0.02205 0.5991 0.3716 0.0
H474 H 0.94415 0.46845 0.3872 0.0
H475 H 0.86834 0.5123 0.38399 0.0
C476 C 0.08325 0.43201 0.37069 0.0
C477 C 0.12568 0.45473 0.37874 0.0
C478 C 0.0391 0.45602 0.3715 0.0
C479 C 0.03607 0.50322 0.38068 0.0
C480 C 0.07835 0.52512 0.38974 0.0
C481 C 0.1227 0.50127 0.38861 0.0
C482 C 0.94554 0.60488 0.37334 0.0
C483 C 0.90137 0.58114 0.37646 0.0
C484 C 0.98896 0.57968 0.37479 0.0
C485 C 0.98955 0.53011 0.37974 0.0
C486 C 0.94526 0.50641 0.38299 0.0
C487 C 0.9017 0.53155 0.3812 0.0
H488 H 0.40001 0.40811 0.61043 0.0
H489 H 0.52326 0.33746 0.64265 0.0
H490 H 0.44203 0.48447 0.61213 0.0
H491 H 0.5649 0.41461 0.64539 0.0
H492 H 0.64618 0.54611 0.61818 0.0
H493 H 0.60276 0.47043 0.61952 0.0
H494 H 0.47185 0.54709 0.63686 0.0
H495 H 0.51505 0.62308 0.63452 0.0
C496 C 0.43584 0.40905 0.61833 0.0
C497 C 0.45841 0.36666 0.62631 0.0
C498 C 0.45992 0.45303 0.61943 0.0
C499 C 0.50707 0.45591 0.62879 0.0
C500 C 0.529 0.41367 0.6376 0.0
C501 C 0.50502 0.36947 0.63626 0.0
C502 C 0.60809 0.54689 0.62223 0.0
C503 C 0.58405 0.59077 0.62609 0.0
C504 C 0.58322 0.50333 0.62323 0.0
C505 C 0.53373 0.5024 0.62841 0.0
C506 C 0.50976 0.54634 0.63245 0.0
C507 C 0.53456 0.59 0.63116 0.0
H508 H 0.66147 0.01627 0.89468 0.0
H509 H 0.5909 0.89341 0.86196 0.0
H510 H 0.58421 0.05778 0.89712 0.0
H511 H 0.51434 0.9354 0.86328 0.0
H512 H 0.37522 0.00961 0.88384 0.0
H513 H 0.45098 0.96561 0.88679 0.0
H514 H 0.52896 0.0962 0.87119 0.0
H515 H 0.4536 0.14029 0.86934 0.0
C516 C 0.62942 0.99807 0.88811 0.0
C517 C 0.63232 0.95164 0.87809 0.0
C518 C 0.58513 0.022 0.88928 0.0
C519 C 0.54284 0.00028 0.88014 0.0
C520 C 0.54578 0.95319 0.8708 0.0
C521 C 0.58988 0.9291 0.86993 0.0
C522 C 0.40858 0.02883 0.881 0.0
C523 C 0.4083 0.07845 0.87632 0.0
C524 C 0.45211 0.00359 0.88264 0.0
C525 C 0.49638 0.02725 0.87932 0.0
C526 C 0.49586 0.07684 0.87443 0.0
C527 C 0.45247 0.10212 0.87312 0.0
H528 H 0.86521 0.54459 0.1129 0.0
H529 H 0.99753 0.62267 0.10185 0.0
H530 H 0.90934 0.46925 0.11225 0.0
H531 H 0.04167 0.54693 0.10014 0.0
H532 H 0.11143 0.4065 0.12593 0.0
H533 H 0.0694 0.48308 0.12433 0.0
H534 H 0.95009 0.41452 0.087 0.0
H535 H 0.99151 0.33733 0.08967 0.0
C536 C 0.90376 0.54567 0.11015 0.0
C537 C 0.92784 0.58976 0.10752 0.0
C538 C 0.92909 0.5023 0.10954 0.0
C539 C 0.97917 0.50169 0.10597 0.0
C540 C 0.00326 0.54587 0.10328 0.0
C541 C 0.97794 0.58939 0.10419 0.0
C542 C 0.07639 0.40784 0.11718 0.0
C543 C 0.05468 0.3658 0.10802 0.0
C544 C 0.0523 0.45192 0.11615 0.0
C545 C 0.00608 0.45521 0.10567 0.0
C546 C 0.98515 0.41331 0.0957 0.0
C547 C 0.00904 0.36906 0.09702 0.0
H548 H 0.44587 0.36203 0.36273 0.0
H549 H 0.36754 0.49349 0.34896 0.0
H550 H 0.52131 0.40571 0.36118 0.0
H551 H 0.4434 0.53712 0.34634 0.0
H552 H 0.58416 0.60781 0.37195 0.0
H553 H 0.50744 0.56623 0.37027 0.0
H554 H 0.57605 0.44453 0.33554 0.0
H555 H 0.6535 0.4856 0.33832 0.0
C556 C 0.44475 0.40028 0.35916 0.0
C557 C 0.40056 0.42428 0.35609 0.0
C558 C 0.48819 0.42534 0.35803 0.0
C559 C 0.48876 0.47504 0.35347 0.0
C560 C 0.44449 0.49902 0.35024 0.0
C561 C 0.40091 0.474 0.35168 0.0
C562 C 0.58283 0.57234 0.36373 0.0
C563 C 0.62498 0.54986 0.35539 0.0
C564 C 0.53863 0.54851 0.36265 0.0
C565 C 0.53531 0.50175 0.35292 0.0
C566 C 0.5773 0.48006 0.34366 0.0
C567 C 0.62169 0.50373 0.34504 0.0
H568 H 0.4855 0.11718 0.62632 0.0
H569 H 0.37066 0.05258 0.58404 0.0
H570 H 0.52823 0.04056 0.62646 0.0
H571 H 0.41424 0.9771 0.583 0.0
H572 H 0.47601 0.83496 0.60922 0.0
H573 H 0.43488 0.91203 0.60727 0.0
H574 H 0.57226 0.98456 0.6035 0.0
H575 H 0.61327 0.9073 0.60671 0.0
C576 C 0.46966 0.08683 0.61679 0.0
C577 C 0.42453 0.09106 0.60529 0.0
C578 C 0.49432 0.04287 0.6167 0.0
C579 C 0.47476 0.00227 0.60478 0.0
C580 C 0.43008 0.00704 0.59284 0.0
C581 C 0.40515 0.05063 0.59328 0.0
C582 C 0.49739 0.86735 0.60775 0.0
C583 C 0.54785 0.86507 0.60814 0.0
C584 C 0.47381 0.9117 0.60653 0.0
C585 C 0.50011 0.9549 0.60527 0.0
C586 C 0.55071 0.95231 0.60495 0.0
C587 C 0.57428 0.90795 0.60654 0.0
H588 H 0.87448 0.99028 0.84985 0.0
H589 H 0.95266 0.85875 0.86368 0.0
H590 H 0.95037 0.03397 0.84761 0.0
H591 H 0.02811 0.90248 0.86249 0.0
H592 H 0.1603 0.98257 0.83966 0.0
H593 H 0.0829 0.94146 0.83686 0.0
H594 H 0.01424 0.06285 0.87184 0.0
H595 H 0.09097 0.10449 0.87356 0.0
C596 C 0.90781 0.97079 0.85267 0.0
C597 C 0.90744 0.92103 0.85697 0.0
C598 C 0.9514 0.99584 0.85144 0.0
C599 C 0.99563 0.97184 0.85478 0.0
C600 C 0.99502 0.92211 0.85926 0.0
C601 C 0.95158 0.89703 0.86019 0.0
C602 C 0.1285 0.00062 0.84645 0.0
C603 C 0.13177 0.04669 0.85687 0.0
C604 C 0.08414 0.97693 0.84506 0.0
C605 C 0.04216 0.99853 0.85436 0.0
C606 C 0.04546 0.04521 0.86419 0.0
C607 C 0.08964 0.06907 0.86529 0.0
loop_
_geom_bond_atom_site_label_1
_geom_bond_atom_site_label_2
_geom_bond_distance
_geom_bond_site_symmetry_2
_ccdc_geom_bond_type
Mn0 O5 2.095 . S
Mn0 O15 2.162 . S
Mn0 O16 2.297 . S
Mn0 O24 2.385 . S
Mn0 O25 2.209 . S
Mn0 O26 2.094 . S
Mn1 O6 2.121 . S
Mn1 N8 2.257 . S
Mn1 N17 2.282 . S
Mn1 O25 2.215 . S
Mn1 O27 2.117 . S
C2 O24 1.234 . S
C2 O25 1.283 . S
C3 O15 1.281 . S
C3 O16 1.236 . S
C4 O26 1.240 . S
C4 O27 1.264 . S
O5 Mn0 2.095 . S
O5 C14 1.250 . S
O6 Mn1 2.121 . S
O6 C14 1.258 . S
C7 N8 1.326 . S
C7 C11 1.460 . S
C7 H13 0.929 . S
N8 Mn1 2.257 . S
N8 C7 1.326 . S
N8 C12 1.362 . S
C9 C10 1.258 . S
C9 C12 1.431 . S
C9 C29 1.449 . S
C10 C9 1.258 . S
C10 C11 1.477 . S
C10 H30 0.931 . S
C11 C7 1.460 . S
C11 C10 1.477 . S
C11 H31 0.930 . S
C12 N8 1.362 . S
C12 C9 1.431 . S
C12 C22 1.476 . S
H13 C7 0.929 . S
C14 O5 1.250 . S
C14 O6 1.258 . S
O15 Mn0 2.162 . S
O15 C3 1.281 . S
O16 Mn0 2.297 . S
O16 C3 1.236 . S
N17 Mn1 2.282 . S
N17 C18 1.328 . S
N17 C22 1.318 . S
C18 N17 1.328 . S
C18 C19 1.457 . S
C18 H23 0.929 . S
C19 C18 1.457 . S
C19 C20 1.291 . S
C19 H32 0.931 . S
C20 C19 1.291 . S
C20 C21 1.373 . S
C20 H33 0.929 . S
C21 C20 1.373 . S
C21 C22 1.396 . S
C21 C28 1.403 . S
C22 C12 1.476 . S
C22 N17 1.318 . S
C22 C21 1.396 . S
H23 C18 0.929 . S
O24 Mn0 2.385 . S
O24 C2 1.234 . S
O25 Mn0 2.209 . S
O25 Mn1 2.215 . S
O25 C2 1.283 . S
O26 Mn0 2.094 . S
O26 C4 1.240 . S
O27 Mn1 2.117 . S
O27 C4 1.264 . S
C28 C21 1.403 . S
C28 C29 1.399 . S
C28 H34 0.929 . S
C29 C9 1.449 . S
C29 C28 1.399 . S
C29 H35 0.930 . S
H30 C10 0.931 . S
H31 C11 0.930 . S
H32 C19 0.931 . S
H33 C20 0.929 . S
H34 C28 0.929 . S
H35 C29 0.930 . S
Mn36 O41 2.095 . S
Mn36 O51 2.162 . S
Mn36 O52 2.297 . S
Mn36 O60 2.385 . S
Mn36 O61 2.209 . S
Mn36 O62 2.094 . S
Mn37 O42 2.121 . S
Mn37 N44 2.257 . S
Mn37 N53 2.282 . S
Mn37 O61 2.215 . S
Mn37 O63 2.117 . S
C38 O60 1.234 . S
C38 O61 1.283 . S
C39 O51 1.281 . S
C39 O52 1.236 . S
C40 O62 1.240 . S
C40 O63 1.264 . S
O41 Mn36 2.095 . S
O41 C50 1.250 . S
O42 Mn37 2.121 . S
O42 C50 1.258 . S
C43 N44 1.326 . S
C43 C47 1.460 . S
C43 H49 0.929 . S
N44 Mn37 2.257 . S
N44 C43 1.326 . S
N44 C48 1.362 . S
C45 C46 1.258 . S
C45 C48 1.431 . S
C45 C65 1.449 . S
C46 C45 1.258 . S
C46 C47 1.477 . S
C46 H66 0.931 . S
C47 C43 1.460 . S
C47 C46 1.477 . S
C47 H67 0.930 . S
C48 N44 1.362 . S
C48 C45 1.431 . S
C48 C58 1.476 . S
H49 C43 0.929 . S
C50 O41 1.250 . S
C50 O42 1.258 . S
O51 Mn36 2.162 . S
O51 C39 1.281 . S
O52 Mn36 2.297 . S
O52 C39 1.236 . S
N53 Mn37 2.282 . S
N53 C54 1.328 . S
N53 C58 1.318 . S
C54 N53 1.328 . S
C54 C55 1.457 . S
C54 H59 0.929 . S
C55 C54 1.457 . S
C55 C56 1.291 . S
C55 H68 0.931 . S
C56 C55 1.291 . S
C56 C57 1.373 . S
C56 H69 0.929 . S
C57 C56 1.373 . S
C57 C58 1.396 . S
C57 C64 1.403 . S
C58 C48 1.476 . S
C58 N53 1.318 . S
C58 C57 1.396 . S
H59 C54 0.929 . S
O60 Mn36 2.385 . S
O60 C38 1.234 . S
O61 Mn36 2.209 . S
O61 Mn37 2.215 . S
O61 C38 1.283 . S
O62 Mn36 2.094 . S
O62 C40 1.240 . S
O63 Mn37 2.117 . S
O63 C40 1.264 . S
C64 C57 1.403 . S
C64 C65 1.399 . S
C64 H70 0.929 . S
C65 C45 1.449 . S
C65 C64 1.399 . S
C65 H71 0.930 . S
H66 C46 0.931 . S
H67 C47 0.930 . S
H68 C55 0.931 . S
H69 C56 0.929 . S
H70 C64 0.929 . S
H71 C65 0.930 . S
Mn72 O77 2.095 . S
Mn72 O87 2.162 . S
Mn72 O88 2.297 . S
Mn72 O96 2.385 . S
Mn72 O97 2.209 . S
Mn72 O98 2.094 . S
Mn73 O78 2.121 . S
Mn73 N80 2.257 . S
Mn73 N89 2.282 . S
Mn73 O97 2.215 . S
Mn73 O99 2.117 . S
C74 O96 1.234 . S
C74 O97 1.283 . S
C75 O87 1.281 . S
C75 O88 1.236 . S
C76 O98 1.240 . S
C76 O99 1.264 . S
O77 Mn72 2.095 . S
O77 C86 1.250 . S
O78 Mn73 2.121 . S
O78 C86 1.258 . S
C79 N80 1.326 . S
C79 C83 1.460 . S
C79 H85 0.929 . S
N80 Mn73 2.257 . S
N80 C79 1.326 . S
N80 C84 1.362 . S
C81 C82 1.258 . S
C81 C84 1.431 . S
C81 C101 1.449 . S
C82 C81 1.258 . S
C82 C83 1.477 . S
C82 H102 0.931 . S
C83 C79 1.460 . S
C83 C82 1.477 . S
C83 H103 0.930 . S
C84 N80 1.362 . S
C84 C81 1.431 . S
C84 C94 1.476 . S
H85 C79 0.929 . S
C86 O77 1.250 . S
C86 O78 1.258 . S
O87 Mn72 2.162 . S
O87 C75 1.281 . S
O88 Mn72 2.297 . S
O88 C75 1.236 . S
N89 Mn73 2.282 . S
N89 C90 1.328 . S
N89 C94 1.318 . S
C90 N89 1.328 . S
C90 C91 1.457 . S
C90 H95 0.929 . S
C91 C90 1.457 . S
C91 C92 1.291 . S
C91 H104 0.931 . S
C92 C91 1.291 . S
C92 C93 1.373 . S
C92 H105 0.929 . S
C93 C92 1.373 . S
C93 C94 1.396 . S
C93 C100 1.403 . S
C94 C84 1.476 . S
C94 N89 1.318 . S
C94 C93 1.396 . S
H95 C90 0.929 . S
O96 Mn72 2.385 . S
O96 C74 1.234 . S
O97 Mn72 2.209 . S
O97 Mn73 2.215 . S
O97 C74 1.283 . S
O98 Mn72 2.094 . S
O98 C76 1.240 . S
O99 Mn73 2.117 . S
O99 C76 1.264 . S
C100 C93 1.403 . S
C100 C101 1.399 . S
C100 H106 0.929 . S
C101 C81 1.449 . S
C101 C100 1.399 . S
C101 H107 0.930 . S
H102 C82 0.931 . S
H103 C83 0.930 . S
H104 C91 0.931 . S
H105 C92 0.929 . S
H106 C100 0.929 . S
H107 C101 0.930 . S
Mn108 O113 2.095 . S
Mn108 O123 2.162 . S
Mn108 O124 2.297 . S
Mn108 O132 2.385 . S
Mn108 O133 2.209 . S
Mn108 O134 2.094 . S
Mn109 O114 2.121 . S
Mn109 N116 2.257 . S
Mn109 N125 2.282 . S
Mn109 O133 2.215 . S
Mn109 O135 2.117 . S
C110 O132 1.234 . S
C110 O133 1.283 . S
C111 O123 1.281 . S
C111 O124 1.236 . S
C112 O134 1.240 . S
C112 O135 1.264 . S
O113 Mn108 2.095 . S
O113 C122 1.250 . S
O114 Mn109 2.121 . S
O114 C122 1.258 . S
C115 N116 1.326 . S
C115 C119 1.460 . S
C115 H121 0.929 . S
N116 Mn109 2.257 . S
N116 C115 1.326 . S
N116 C120 1.362 . S
C117 C118 1.258 . S
C117 C120 1.431 . S
C117 C137 1.449 . S
C118 C117 1.258 . S
C118 C119 1.477 . S
C118 H138 0.931 . S
C119 C115 1.460 . S
C119 C118 1.477 . S
C119 H139 0.930 . S
C120 N116 1.362 . S
C120 C117 1.431 . S
C120 C130 1.476 . S
H121 C115 0.929 . S
C122 O113 1.250 . S
C122 O114 1.258 . S
O123 Mn108 2.162 . S
O123 C111 1.281 . S
O124 Mn108 2.297 . S
O124 C111 1.236 . S
N125 Mn109 2.282 . S
N125 C126 1.328 . S
N125 C130 1.318 . S
C126 N125 1.328 . S
C126 C127 1.457 . S
C126 H131 0.929 . S
C127 C126 1.457 . S
C127 C128 1.291 . S
C127 H140 0.931 . S
C128 C127 1.291 . S
C128 C129 1.373 . S
C128 H141 0.929 . S
C129 C128 1.373 . S
C129 C130 1.396 . S
C129 C136 1.403 . S
C130 C120 1.476 . S
C130 N125 1.318 . S
C130 C129 1.396 . S
H131 C126 0.929 . S
O132 Mn108 2.385 . S
O132 C110 1.234 . S
O133 Mn108 2.209 . S
O133 Mn109 2.215 . S
O133 C110 1.283 . S
O134 Mn108 2.094 . S
O134 C112 1.240 . S
O135 Mn109 2.117 . S
O135 C112 1.264 . S
C136 C129 1.403 . S
C136 C137 1.399 . S
C136 H142 0.929 . S
C137 C117 1.449 . S
C137 C136 1.399 . S
C137 H143 0.930 . S
H138 C118 0.931 . S
H139 C119 0.930 . S
H140 C127 0.931 . S
H141 C128 0.929 . S
H142 C136 0.929 . S
H143 C137 0.930 . S
Mn144 O149 2.095 . S
Mn144 O159 2.162 . S
Mn144 O160 2.297 . S
Mn144 O168 2.385 . S
Mn144 O169 2.209 . S
Mn144 O170 2.094 . S
Mn145 O150 2.121 . S
Mn145 N152 2.257 . S
Mn145 N161 2.282 . S
Mn145 O169 2.215 . S
Mn145 O171 2.117 . S
C146 O168 1.234 . S
C146 O169 1.283 . S
C147 O159 1.281 . S
C147 O160 1.236 . S
C148 O170 1.240 . S
C148 O171 1.264 . S
O149 Mn144 2.095 . S
O149 C158 1.250 . S
O150 Mn145 2.121 . S
O150 C158 1.258 . S
C151 N152 1.326 . S
C151 C155 1.460 . S
C151 H157 0.929 . S
N152 Mn145 2.257 . S
N152 C151 1.326 . S
N152 C156 1.362 . S
C153 C154 1.258 . S
C153 C156 1.431 . S
C153 C173 1.449 . S
C154 C153 1.258 . S
C154 C155 1.477 . S
C154 H174 0.931 . S
C155 C151 1.460 . S
C155 C154 1.477 . S
C155 H175 0.930 . S
C156 N152 1.362 . S
C156 C153 1.431 . S
C156 C166 1.476 . S
H157 C151 0.929 . S
C158 O149 1.250 . S
C158 O150 1.258 . S
O159 Mn144 2.162 . S
O159 C147 1.281 . S
O160 Mn144 2.297 . S
O160 C147 1.236 . S
N161 Mn145 2.282 . S
N161 C162 1.328 . S
N161 C166 1.318 . S
C162 N161 1.328 . S
C162 C163 1.457 . S
C162 H167 0.929 . S
C163 C162 1.457 . S
C163 C164 1.291 . S
C163 H176 0.931 . S
C164 C163 1.291 . S
C164 C165 1.373 . S
C164 H177 0.929 . S
C165 C164 1.373 . S
C165 C166 1.396 . S
C165 C172 1.403 . S
C166 C156 1.476 . S
C166 N161 1.318 . S
C166 C165 1.396 . S
H167 C162 0.929 . S
O168 Mn144 2.385 . S
O168 C146 1.234 . S
O169 Mn144 2.209 . S
O169 Mn145 2.215 . S
O169 C146 1.283 . S
O170 Mn144 2.094 . S
O170 C148 1.240 . S
O171 Mn145 2.117 . S
O171 C148 1.264 . S
C172 C165 1.403 . S
C172 C173 1.399 . S
C172 H178 0.929 . S
C173 C153 1.449 . S
C173 C172 1.399 . S
C173 H179 0.930 . S
H174 C154 0.931 . S
H175 C155 0.930 . S
H176 C163 0.931 . S
H177 C164 0.929 . S
H178 C172 0.929 . S
H179 C173 0.930 . S
Mn180 O185 2.095 . S
Mn180 O195 2.162 . S
Mn180 O196 2.297 . S
Mn180 O204 2.385 . S
Mn180 O205 2.209 . S
Mn180 O206 2.094 . S
Mn181 O186 2.121 . S
Mn181 N188 2.257 . S
Mn181 N197 2.282 . S
Mn181 O205 2.215 . S
Mn181 O207 2.117 . S
C182 O204 1.234 . S
C182 O205 1.283 . S
C183 O195 1.281 . S
C183 O196 1.236 . S
C184 O206 1.240 . S
C184 O207 1.264 . S
O185 Mn180 2.095 . S
O185 C194 1.250 . S
O186 Mn181 2.121 . S
O186 C194 1.258 . S
C187 N188 1.326 . S
C187 C191 1.460 . S
C187 H193 0.929 . S
N188 Mn181 2.257 . S
N188 C187 1.326 . S
N188 C192 1.362 . S
C189 C190 1.258 . S
C189 C192 1.431 . S
C189 C209 1.449 . S
C190 C189 1.258 . S
C190 C191 1.477 . S
C190 H210 0.931 . S
C191 C187 1.460 . S
C191 C190 1.477 . S
C191 H211 0.930 . S
C192 N188 1.362 . S
C192 C189 1.431 . S
C192 C202 1.476 . S
H193 C187 0.929 . S
C194 O185 1.250 . S
C194 O186 1.258 . S
O195 Mn180 2.162 . S
O195 C183 1.281 . S
O196 Mn180 2.297 . S
O196 C183 1.236 . S
N197 Mn181 2.282 . S
N197 C198 1.328 . S
N197 C202 1.318 . S
C198 N197 1.328 . S
C198 C199 1.457 . S
C198 H203 0.929 . S
C199 C198 1.457 . S
C199 C200 1.291 . S
C199 H212 0.931 . S
C200 C199 1.291 . S
C200 C201 1.373 . S
C200 H213 0.929 . S
C201 C200 1.373 . S
C201 C202 1.396 . S
C201 C208 1.403 . S
C202 C192 1.476 . S
C202 N197 1.318 . S
C202 C201 1.396 . S
H203 C198 0.929 . S
O204 Mn180 2.385 . S
O204 C182 1.234 . S
O205 Mn180 2.209 . S
O205 Mn181 2.215 . S
O205 C182 1.283 . S
O206 Mn180 2.094 . S
O206 C184 1.240 . S
O207 Mn181 2.117 . S
O207 C184 1.264 . S
C208 C201 1.403 . S
C208 C209 1.399 . S
C208 H214 0.929 . S
C209 C189 1.449 . S
C209 C208 1.399 . S
C209 H215 0.930 . S
H210 C190 0.931 . S
H211 C191 0.930 . S
H212 C199 0.931 . S
H213 C200 0.929 . S
H214 C208 0.929 . S
H215 C209 0.930 . S
Mn216 O221 2.095 . S
Mn216 O231 2.162 . S
Mn216 O232 2.297 . S
Mn216 O240 2.385 . S
Mn216 O241 2.209 . S
Mn216 O242 2.094 . S
Mn217 O222 2.121 . S
Mn217 N224 2.257 . S
Mn217 N233 2.282 . S
Mn217 O241 2.215 . S
Mn217 O243 2.117 . S
C218 O240 1.234 . S
C218 O241 1.283 . S
C219 O231 1.281 . S
C219 O232 1.236 . S
C220 O242 1.240 . S
C220 O243 1.264 . S
O221 Mn216 2.095 . S
O221 C230 1.250 . S
O222 Mn217 2.121 . S
O222 C230 1.258 . S
C223 N224 1.326 . S
C223 C227 1.460 . S
C223 H229 0.929 . S
N224 Mn217 2.257 . S
N224 C223 1.326 . S
N224 C228 1.362 . S
C225 C226 1.258 . S
C225 C228 1.431 . S
C225 C245 1.449 . S
C226 C225 1.258 . S
C226 C227 1.477 . S
C226 H246 0.931 . S
C227 C223 1.460 . S
C227 C226 1.477 . S
C227 H247 0.930 . S
C228 N224 1.362 . S
C228 C225 1.431 . S
C228 C238 1.476 . S
H229 C223 0.929 . S
C230 O221 1.250 . S
C230 O222 1.258 . S
O231 Mn216 2.162 . S
O231 C219 1.281 . S
O232 Mn216 2.297 . S
O232 C219 1.236 . S
N233 Mn217 2.282 . S
N233 C234 1.328 . S
N233 C238 1.318 . S
C234 N233 1.328 . S
C234 C235 1.457 . S
C234 H239 0.929 . S
C235 C234 1.457 . S
C235 C236 1.291 . S
C235 H248 0.931 . S
C236 C235 1.291 . S
C236 C237 1.373 . S
C236 H249 0.929 . S
C237 C236 1.373 . S
C237 C238 1.396 . S
C237 C244 1.403 . S
C238 C228 1.476 . S
C238 N233 1.318 . S
C238 C237 1.396 . S
H239 C234 0.929 . S
O240 Mn216 2.385 . S
O240 C218 1.234 . S
O241 Mn216 2.209 . S
O241 Mn217 2.215 . S
O241 C218 1.283 . S
O242 Mn216 2.094 . S
O242 C220 1.240 . S
O243 Mn217 2.117 . S
O243 C220 1.264 . S
C244 C237 1.403 . S
C244 C245 1.399 . S
C244 H250 0.929 . S
C245 C225 1.449 . S
C245 C244 1.399 . S
C245 H251 0.930 . S
H246 C226 0.931 . S
H247 C227 0.930 . S
H248 C235 0.931 . S
H249 C236 0.929 . S
H250 C244 0.929 . S
H251 C245 0.930 . S
Mn252 O257 2.095 . S
Mn252 O267 2.162 . S
Mn252 O268 2.297 . S
Mn252 O276 2.385 . S
Mn252 O277 2.209 . S
Mn252 O278 2.094 . S
Mn253 O258 2.121 . S
Mn253 N260 2.257 . S
Mn253 N269 2.282 . S
Mn253 O277 2.215 . S
Mn253 O279 2.117 . S
C254 O276 1.234 . S
C254 O277 1.283 . S
C255 O267 1.281 . S
C255 O268 1.236 . S
C256 O278 1.240 . S
C256 O279 1.264 . S
O257 Mn252 2.095 . S
O257 C266 1.250 . S
O258 Mn253 2.121 . S
O258 C266 1.258 . S
C259 N260 1.326 . S
C259 C263 1.460 . S
C259 H265 0.929 . S
N260 Mn253 2.257 . S
N260 C259 1.326 . S
N260 C264 1.362 . S
C261 C262 1.258 . S
C261 C264 1.431 . S
C261 C281 1.449 . S
C262 C261 1.258 . S
C262 C263 1.477 . S
C262 H282 0.931 . S
C263 C259 1.460 . S
C263 C262 1.477 . S
C263 H283 0.930 . S
C264 N260 1.362 . S
C264 C261 1.431 . S
C264 C274 1.476 . S
H265 C259 0.929 . S
C266 O257 1.250 . S
C266 O258 1.258 . S
O267 Mn252 2.162 . S
O267 C255 1.281 . S
O268 Mn252 2.297 . S
O268 C255 1.236 . S
N269 Mn253 2.282 . S
N269 C270 1.328 . S
N269 C274 1.318 . S
C270 N269 1.328 . S
C270 C271 1.457 . S
C270 H275 0.929 . S
C271 C270 1.457 . S
C271 C272 1.291 . S
C271 H284 0.931 . S
C272 C271 1.291 . S
C272 C273 1.373 . S
C272 H285 0.929 . S
C273 C272 1.373 . S
C273 C274 1.396 . S
C273 C280 1.403 . S
C274 C264 1.476 . S
C274 N269 1.318 . S
C274 C273 1.396 . S
H275 C270 0.929 . S
O276 Mn252 2.385 . S
O276 C254 1.234 . S
O277 Mn252 2.209 . S
O277 Mn253 2.215 . S
O277 C254 1.283 . S
O278 Mn252 2.094 . S
O278 C256 1.240 . S
O279 Mn253 2.117 . S
O279 C256 1.264 . S
C280 C273 1.403 . S
C280 C281 1.399 . S
C280 H286 0.929 . S
C281 C261 1.449 . S
C281 C280 1.399 . S
C281 H287 0.930 . S
H282 C262 0.931 . S
H283 C263 0.930 . S
H284 C271 0.931 . S
H285 C272 0.929 . S
H286 C280 0.929 . S
H287 C281 0.930 . S
H288 C296 0.950 . S
H289 C301 0.950 . S
H290 C298 0.950 . S
H291 C300 0.950 . S
H292 C302 0.950 . S
H293 C304 0.950 . S
H294 C306 0.950 . S
H295 C307 0.950 . S
C296 H288 0.950 . S
C296 C297 1.386 . S
C296 C298 1.391 . S
C297 C296 1.386 . S
C297 C301 1.393 . S
C298 H290 0.950 . S
C298 C296 1.391 . S
C298 C299 1.400 . S
C299 C298 1.400 . S
C299 C300 1.398 . S
C299 C305 1.491 1_554 S
C300 H291 0.950 . S
C300 C299 1.398 . S
C300 C301 1.391 . S
C301 H289 0.950 . S
C301 C297 1.393 . S
C301 C300 1.391 . S
C302 H292 0.950 . S
C302 C303 1.386 . S
C302 C304 1.391 . S
C303 C302 1.386 . S
C303 C307 1.393 . S
C304 H293 0.950 . S
C304 C302 1.391 . S
C304 C305 1.400 . S
C305 C299 1.491 1_556 S
C305 C304 1.400 . S
C305 C306 1.398 . S
C306 H294 0.950 . S
C306 C305 1.398 . S
C306 C307 1.391 . S
C307 H295 0.950 . S
C307 C303 1.393 . S
C307 C306 1.391 . S
H308 C316 0.950 . S
H309 C321 0.950 . S
H310 C318 0.950 . S
H311 C320 0.950 . S
H312 C322 0.950 . S
H313 C324 0.950 . S
H314 C326 0.950 . S
H315 C327 0.950 . S
C316 H308 0.950 . S
C316 C317 1.386 . S
C316 C318 1.391 . S
C317 C316 1.386 . S
C317 C321 1.393 . S
C318 H310 0.950 . S
C318 C316 1.391 . S
C318 C319 1.400 . S
C319 C318 1.400 . S
C319 C320 1.398 . S
C319 C325 1.491 . S
C320 H311 0.950 . S
C320 C319 1.398 . S
C320 C321 1.391 . S
C321 H309 0.950 . S
C321 C317 1.393 . S
C321 C320 1.391 . S
C322 H312 0.950 . S
C322 C323 1.386 . S
C322 C324 1.391 . S
C323 C322 1.386 . S
C323 C327 1.393 . S
C324 H313 0.950 . S
C324 C322 1.391 . S
C324 C325 1.400 . S
C325 C319 1.491 . S
C325 C324 1.400 . S
C325 C326 1.398 . S
C326 H314 0.950 . S
C326 C325 1.398 . S
C326 C327 1.391 . S
C327 H315 0.950 . S
C327 C323 1.393 . S
C327 C326 1.391 . S
H328 C336 0.950 . S
H329 C341 0.950 . S
H330 C338 0.950 . S
H331 C340 0.950 . S
H332 C342 0.950 . S
H333 C344 0.950 . S
H334 C346 0.950 . S
H335 C347 0.950 . S
C336 H328 0.950 . S
C336 C337 1.386 . S
C336 C338 1.391 . S
C337 C336 1.386 . S
C337 C341 1.393 . S
C338 H330 0.950 . S
C338 C336 1.391 . S
C338 C339 1.400 . S
C339 C338 1.400 . S
C339 C340 1.398 . S
C339 C345 1.491 . S
C340 H331 0.950 . S
C340 C339 1.398 . S
C340 C341 1.391 . S
C341 H329 0.950 . S
C341 C337 1.393 . S
C341 C340 1.391 . S
C342 H332 0.950 . S
C342 C343 1.386 . S
C342 C344 1.391 . S
C343 C342 1.386 . S
C343 C347 1.393 . S
C344 H333 0.950 . S
C344 C342 1.391 . S
C344 C345 1.400 . S
C345 C339 1.491 . S
C345 C344 1.400 . S
C345 C346 1.398 . S
C346 H334 0.950 . S
C346 C345 1.398 . S
C346 C347 1.391 . S
C347 H335 0.950 . S
C347 C343 1.393 . S
C347 C346 1.391 . S
H348 C356 0.950 . S
H349 C361 0.950 . S
H350 C358 0.950 . S
H351 C360 0.950 . S
H352 C362 0.950 . S
H353 C364 0.950 . S
H354 C366 0.950 . S
H355 C367 0.950 . S
C356 H348 0.950 . S
C356 C357 1.386 . S
C356 C358 1.391 . S
C357 C356 1.386 . S
C357 C361 1.393 . S
C358 H350 0.950 . S
C358 C356 1.391 . S
C358 C359 1.400 . S
C359 C358 1.400 . S
C359 C360 1.398 . S
C359 C365 1.491 . S
C360 H351 0.950 . S
C360 C359 1.398 . S
C360 C361 1.391 . S
C361 H349 0.950 . S
C361 C357 1.393 . S
C361 C360 1.391 . S
C362 H352 0.950 . S
C362 C363 1.386 . S
C362 C364 1.391 . S
C363 C362 1.386 . S
C363 C367 1.393 . S
C364 H353 0.950 . S
C364 C362 1.391 . S
C364 C365 1.400 . S
C365 C359 1.491 . S
C365 C364 1.400 . S
C365 C366 1.398 . S
C366 H354 0.950 . S
C366 C365 1.398 . S
C366 C367 1.391 . S
C367 H355 0.950 . S
C367 C363 1.393 . S
C367 C366 1.391 . S
H368 C376 0.950 . S
H369 C381 0.950 . S
H370 C378 0.950 . S
H371 C380 0.950 . S
H372 C382 0.950 . S
H373 C384 0.950 . S
H374 C386 0.950 . S
H375 C387 0.950 . S
C376 H368 0.950 . S
C376 C377 1.386 . S
C376 C378 1.391 . S
C377 C376 1.386 . S
C377 C381 1.393 . S
C378 H370 0.950 . S
C378 C376 1.391 . S
C378 C379 1.400 . S
C379 C378 1.400 . S
C379 C380 1.398 . S
C379 C385 1.491 . S
C380 H371 0.950 . S
C380 C379 1.398 . S
C380 C381 1.391 . S
C381 H369 0.950 . S
C381 C377 1.393 . S
C381 C380 1.391 . S
C382 H372 0.950 . S
C382 C383 1.386 . S
C382 C384 1.391 . S
C383 C382 1.386 . S
C383 C387 1.393 . S
C384 H373 0.950 . S
C384 C382 1.391 . S
C384 C385 1.400 . S
C385 C379 1.491 . S
C385 C384 1.400 . S
C385 C386 1.398 . S
C386 H374 0.950 . S
C386 C385 1.398 . S
C386 C387 1.391 . S
C387 H375 0.950 . S
C387 C383 1.393 . S
C387 C386 1.391 . S
H388 C396 0.950 . S
H389 C401 0.950 . S
H390 C398 0.950 . S
H391 C400 0.950 . S
H392 C402 0.950 . S
H393 C404 0.950 . S
H394 C406 0.950 . S
H395 C407 0.950 . S
C396 H388 0.950 . S
C396 C397 1.386 . S
C396 C398 1.391 . S
C397 C396 1.386 . S
C397 C401 1.393 . S
C398 H390 0.950 . S
C398 C396 1.391 . S
C398 C399 1.400 . S
C399 C398 1.400 . S
C399 C400 1.398 . S
C399 C405 1.491 . S
C400 H391 0.950 . S
C400 C399 1.398 . S
C400 C401 1.391 . S
C401 H389 0.950 . S
C401 C397 1.393 . S
C401 C400 1.391 . S
C402 H392 0.950 . S
C402 C403 1.386 . S
C402 C404 1.391 . S
C403 C402 1.386 . S
C403 C407 1.393 . S
C404 H393 0.950 . S
C404 C402 1.391 . S
C404 C405 1.400 . S
C405 C399 1.491 . S
C405 C404 1.400 . S
C405 C406 1.398 . S
C406 H394 0.950 . S
C406 C405 1.398 . S
C406 C407 1.391 . S
C407 H395 0.950 . S
C407 C403 1.393 . S
C407 C406 1.391 . S
H408 C416 0.950 . S
H409 C421 0.950 . S
H410 C418 0.950 . S
H411 C420 0.950 . S
H412 C422 0.950 . S
H413 C424 0.950 . S
H414 C426 0.950 . S
H415 C427 0.950 . S
C416 H408 0.950 . S
C416 C417 1.386 . S
C416 C418 1.391 . S
C417 C416 1.386 . S
C417 C421 1.393 . S
C418 H410 0.950 . S
C418 C416 1.391 . S
C418 C419 1.400 . S
C419 C418 1.400 . S
C419 C420 1.398 . S
C419 C425 1.491 . S
C420 H411 0.950 . S
C420 C419 1.398 . S
C420 C421 1.391 . S
C421 H409 0.950 . S
C421 C417 1.393 . S
C421 C420 1.391 . S
C422 H412 0.950 . S
C422 C423 1.386 . S
C422 C424 1.391 . S
C423 C422 1.386 . S
C423 C427 1.393 . S
C424 H413 0.950 . S
C424 C422 1.391 . S
C424 C425 1.400 . S
C425 C419 1.491 . S
C425 C424 1.400 . S
C425 C426 1.398 . S
C426 H414 0.950 . S
C426 C425 1.398 . S
C426 C427 1.391 . S
C427 H415 0.950 . S
C427 C423 1.393 . S
C427 C426 1.391 . S
H428 C436 0.950 . S
H429 C441 0.950 . S
H430 C438 0.950 . S
H431 C440 0.950 . S
H432 C442 0.950 . S
H433 C444 0.950 . S
H434 C446 0.950 . S
H435 C447 0.950 . S
C436 H428 0.950 . S
C436 C437 1.386 . S
C436 C438 1.391 . S
C437 C436 1.386 . S
C437 C441 1.393 . S
C438 H430 0.950 . S
C438 C436 1.391 . S
C438 C439 1.400 . S
C439 C438 1.400 . S
C439 C440 1.398 . S
C439 C445 1.491 1_554 S
C440 H431 0.950 . S
C440 C439 1.398 . S
C440 C441 1.391 . S
C441 H429 0.950 . S
C441 C437 1.393 . S
C441 C440 1.391 . S
C442 H432 0.950 . S
C442 C443 1.386 . S
C442 C444 1.391 . S
C443 C442 1.386 . S
C443 C447 1.393 . S
C444 H433 0.950 . S
C444 C442 1.391 . S
C444 C445 1.400 . S
C445 C439 1.491 1_556 S
C445 C444 1.400 . S
C445 C446 1.398 . S
C446 H434 0.950 . S
C446 C445 1.398 . S
C446 C447 1.391 . S
C447 H435 0.950 . S
C447 C443 1.393 . S
C447 C446 1.391 . S
H448 C456 0.950 . S
H449 C461 0.950 . S
H450 C458 0.950 1_655 S
H451 C460 0.950 . S
H452 C462 0.950 . S
H453 C464 0.950 1_455 S
H454 C466 0.950 . S
H455 C467 0.950 . S
C456 H448 0.950 . S
C456 C457 1.386 . S
C456 C458 1.391 . S
C457 C456 1.386 . S
C457 C461 1.393 . S
C458 H450 0.950 1_455 S
C458 C456 1.391 . S
C458 C459 1.400 . S
C459 C458 1.400 . S
C459 C460 1.398 . S
C459 C465 1.491 1_445 S
C460 H451 0.950 . S
C460 C459 1.398 . S
C460 C461 1.391 . S
C461 H449 0.950 . S
C461 C457 1.393 . S
C461 C460 1.391 . S
C462 H452 0.950 . S
C462 C463 1.386 . S
C462 C464 1.391 . S
C463 C462 1.386 . S
C463 C467 1.393 . S
C464 H453 0.950 1_655 S
C464 C462 1.391 . S
C464 C465 1.400 . S
C465 C459 1.491 1_665 S
C465 C464 1.400 . S
C465 C466 1.398 . S
C466 H454 0.950 . S
C466 C465 1.398 . S
C466 C467 1.391 . S
C467 H455 0.950 . S
C467 C463 1.393 . S
C467 C466 1.391 . S
H468 C476 0.950 . S
H469 C481 0.950 . S
H470 C478 0.950 1_655 S
H471 C480 0.950 . S
H472 C482 0.950 . S
H473 C484 0.950 . S
H474 C486 0.950 . S
H475 C487 0.950 . S
C476 H468 0.950 . S
C476 C477 1.386 . S
C476 C478 1.391 . S
C477 C476 1.386 . S
C477 C481 1.393 . S
C478 H470 0.950 1_455 S
C478 C476 1.391 . S
C478 C479 1.400 . S
C479 C478 1.400 . S
C479 C480 1.398 . S
C479 C485 1.491 1_455 S
C480 H471 0.950 . S
C480 C479 1.398 . S
C480 C481 1.391 . S
C481 H469 0.950 . S
C481 C477 1.393 . S
C481 C480 1.391 . S
C482 H472 0.950 . S
C482 C483 1.386 . S
C482 C484 1.391 . S
C483 C482 1.386 . S
C483 C487 1.393 . S
C484 H473 0.950 . S
C484 C482 1.391 . S
C484 C485 1.400 . S
C485 C479 1.491 1_655 S
C485 C484 1.400 . S
C485 C486 1.398 . S
C486 H474 0.950 . S
C486 C485 1.398 . S
C486 C487 1.391 . S
C487 H475 0.950 . S
C487 C483 1.393 . S
C487 C486 1.391 . S
H488 C496 0.950 . S
H489 C501 0.950 . S
H490 C498 0.950 . S
H491 C500 0.950 . S
H492 C502 0.950 . S
H493 C504 0.950 . S
H494 C506 0.950 . S
H495 C507 0.950 . S
C496 H488 0.950 . S
C496 C497 1.386 . S
C496 C498 1.391 . S
C497 C496 1.386 . S
C497 C501 1.393 . S
C498 H490 0.950 . S
C498 C496 1.391 . S
C498 C499 1.400 . S
C499 C498 1.400 . S
C499 C500 1.398 . S
C499 C505 1.491 . S
C500 H491 0.950 . S
C500 C499 1.398 . S
C500 C501 1.391 . S
C501 H489 0.950 . S
C501 C497 1.393 . S
C501 C500 1.391 . S
C502 H492 0.950 . S
C502 C503 1.386 . S
C502 C504 1.391 . S
C503 C502 1.386 . S
C503 C507 1.393 . S
C504 H493 0.950 . S
C504 C502 1.391 . S
C504 C505 1.400 . S
C505 C499 1.491 . S
C505 C504 1.400 . S
C505 C506 1.398 . S
C506 H494 0.950 . S
C506 C505 1.398 . S
C506 C507 1.391 . S
C507 H495 0.950 . S
C507 C503 1.393 . S
C507 C506 1.391 . S
H508 C516 0.950 . S
H509 C521 0.950 . S
H510 C518 0.950 1_545 S
H511 C520 0.950 . S
H512 C522 0.950 . S
H513 C524 0.950 1_565 S
H514 C526 0.950 . S
H515 C527 0.950 . S
C516 H508 0.950 . S
C516 C517 1.386 . S
C516 C518 1.391 . S
C517 C516 1.386 . S
C517 C521 1.393 . S
C518 H510 0.950 1_565 S
C518 C516 1.391 . S
C518 C519 1.400 . S
C519 C518 1.400 . S
C519 C520 1.398 . S
C519 C525 1.491 1_565 S
C520 H511 0.950 . S
C520 C519 1.398 . S
C520 C521 1.391 . S
C521 H509 0.950 . S
C521 C517 1.393 . S
C521 C520 1.391 . S
C522 H512 0.950 . S
C522 C523 1.386 . S
C522 C524 1.391 . S
C523 C522 1.386 . S
C523 C527 1.393 . S
C524 H513 0.950 1_545 S
C524 C522 1.391 . S
C524 C525 1.400 . S
C525 C519 1.491 1_545 S
C525 C524 1.400 . S
C525 C526 1.398 . S
C526 H514 0.950 . S
C526 C525 1.398 . S
C526 C527 1.391 . S
C527 H515 0.950 . S
C527 C523 1.393 . S
C527 C526 1.391 . S
H528 C536 0.950 . S
H529 C541 0.950 . S
H530 C538 0.950 . S
H531 C540 0.950 . S
H532 C542 0.950 . S
H533 C544 0.950 . S
H534 C546 0.950 . S
H535 C547 0.950 . S
C536 H528 0.950 . S
C536 C537 1.386 . S
C536 C538 1.391 . S
C537 C536 1.386 . S
C537 C541 1.393 . S
C538 H530 0.950 . S
C538 C536 1.391 . S
C538 C539 1.400 . S
C539 C538 1.400 . S
C539 C540 1.398 1_655 S
C539 C545 1.491 1_655 S
C540 H531 0.950 . S
C540 C539 1.398 1_455 S
C540 C541 1.391 1_455 S
C541 H529 0.950 . S
C541 C537 1.393 . S
C541 C540 1.391 1_655 S
C542 H532 0.950 . S
C542 C543 1.386 . S
C542 C544 1.391 . S
C543 C542 1.386 . S
C543 C547 1.393 . S
C544 H533 0.950 . S
C544 C542 1.391 . S
C544 C545 1.400 . S
C545 C539 1.491 1_455 S
C545 C544 1.400 . S
C545 C546 1.398 1_455 S
C546 H534 0.950 . S
C546 C545 1.398 1_655 S
C546 C547 1.391 1_655 S
C547 H535 0.950 . S
C547 C543 1.393 . S
C547 C546 1.391 1_455 S
H548 C556 0.950 . S
H549 C561 0.950 . S
H550 C558 0.950 . S
H551 C560 0.950 . S
H552 C562 0.950 . S
H553 C564 0.950 . S
H554 C566 0.950 . S
H555 C567 0.950 . S
C556 H548 0.950 . S
C556 C557 1.386 . S
C556 C558 1.391 . S
C557 C556 1.386 . S
C557 C561 1.393 . S
C558 H550 0.950 . S
C558 C556 1.391 . S
C558 C559 1.400 . S
C559 C558 1.400 . S
C559 C560 1.398 . S
C559 C565 1.491 . S
C560 H551 0.950 . S
C560 C559 1.398 . S
C560 C561 1.391 . S
C561 H549 0.950 . S
C561 C557 1.393 . S
C561 C560 1.391 . S
C562 H552 0.950 . S
C562 C563 1.386 . S
C562 C564 1.391 . S
C563 C562 1.386 . S
C563 C567 1.393 . S
C564 H553 0.950 . S
C564 C562 1.391 . S
C564 C565 1.400 . S
C565 C559 1.491 . S
C565 C564 1.400 . S
C565 C566 1.398 . S
C566 H554 0.950 . S
C566 C565 1.398 . S
C566 C567 1.391 . S
C567 H555 0.950 . S
C567 C563 1.393 . S
C567 C566 1.391 . S
H568 C576 0.950 . S
H569 C581 0.950 . S
H570 C578 0.950 . S
H571 C580 0.950 . S
H572 C582 0.950 . S
H573 C584 0.950 . S
H574 C586 0.950 . S
H575 C587 0.950 . S
C576 H568 0.950 . S
C576 C577 1.386 . S
C576 C578 1.391 . S
C577 C576 1.386 . S
C577 C581 1.393 . S
C578 H570 0.950 . S
C578 C576 1.391 . S
C578 C579 1.400 . S
C579 C578 1.400 . S
C579 C580 1.398 . S
C579 C585 1.491 1_545 S
C580 H571 0.950 . S
C580 C579 1.398 . S
C580 C581 1.391 . S
C581 H569 0.950 . S
C581 C577 1.393 . S
C581 C580 1.391 . S
C582 H572 0.950 . S
C582 C583 1.386 . S
C582 C584 1.391 . S
C583 C582 1.386 . S
C583 C587 1.393 . S
C584 H573 0.950 . S
C584 C582 1.391 . S
C584 C585 1.400 . S
C585 C579 1.491 1_565 S
C585 C584 1.400 . S
C585 C586 1.398 . S
C586 H574 0.950 . S
C586 C585 1.398 . S
C586 C587 1.391 . S
C587 H575 0.950 . S
C587 C583 1.393 . S
C587 C586 1.391 . S
H588 C596 0.950 . S
H589 C601 0.950 . S
H590 C598 0.950 1_545 S
H591 C600 0.950 . S
H592 C602 0.950 . S
H593 C604 0.950 1_565 S
H594 C606 0.950 . S
H595 C607 0.950 . S
C596 H588 0.950 . S
C596 C597 1.386 . S
C596 C598 1.391 . S
C597 C596 1.386 . S
C597 C601 1.393 . S
C598 H590 0.950 1_565 S
C598 C596 1.391 . S
C598 C599 1.400 . S
C599 C598 1.400 . S
C599 C600 1.398 . S
C599 C605 1.491 1_665 S
C600 H591 0.950 . S
C600 C599 1.398 . S
C600 C601 1.391 . S
C601 H589 0.950 . S
C601 C597 1.393 . S
C601 C600 1.391 . S
C602 H592 0.950 . S
C602 C603 1.386 . S
C602 C604 1.391 . S
C603 C602 1.386 . S
C603 C607 1.393 . S
C604 H593 0.950 1_545 S
C604 C602 1.391 . S
C604 C605 1.400 . S
C605 C599 1.491 1_445 S
C605 C604 1.400 . S
C605 C606 1.398 . S
C606 H594 0.950 . S
C606 C605 1.398 . S
C606 C607 1.391 . S
C607 H595 0.950 . S
C607 C603 1.393 . S
C607 C606 1.391 . S
C297 C14 1.129 . S
C303 C182 1.151 . S
C317 C50 1.111 . S
C323 C230 1.094 . S
C337 C74 1.148 . S
C343 C266 1.134 . S
C357 C110 1.168 . S
C363 C146 1.192 . S
C377 C254 1.187 . S
C383 C2 1.193 . S
C397 C158 1.158 . S
C403 C38 1.120 . S
C417 C86 1.110 . S
C423 C194 1.096 . S
C437 C218 1.123 . S
C443 C122 1.156 . S
C457 C4 1.574 . S
C463 C219 1.565 . S
C477 C255 1.570 . S
C483 C40 1.573 . S
C497 C75 1.564 . S
C503 C148 1.574 . S
C517 C111 1.565 . S
C523 C184 1.575 . S
C537 C220 1.575 . S
C543 C3 1.566 . S
C557 C256 1.575 . S
C563 C39 1.564 . S
C577 C76 1.574 . S
C583 C147 1.564 . S
C597 C112 1.572 . S
C603 C183 1.571 . S
