# Generated by pormake.
# Topology ung, (4)-cn, num edge types: 1
# Building blocks:
#     Node 0, Type 0, BuildingBlock: KUFVIS_clean_sbu_0, # of connection points: 4
#     Node 1, Type 0, BuildingBlock: KUFVIS_clean_sbu_0, # of connection points: 4
#     Node 2, Type 0, BuildingBlock: KUFVIS_clean_sbu_0, # of connection points: 4
#     Node 3, Type 0, BuildingBlock: KUFVIS_clean_sbu_0, # of connection points: 4
#     Node 4, Type 0, BuildingBlock: KUFVIS_clean_sbu_0, # of connection points: 4
#     Node 5, Type 0, BuildingBlock: KUFVIS_clean_sbu_0, # of connection points: 4
#     Node 6, Type 0, BuildingBlock: KUFVIS_clean_sbu_0, # of connection points: 4
#     Node 7, Type 0, BuildingBlock: KUFVIS_clean_sbu_0, # of connection points: 4
#     Node 8, Type 0, BuildingBlock: KUFVIS_clean_sbu_0, # of connection points: 4
#     Node 9, Type 0, BuildingBlock: KUFVIS_clean_sbu_0, # of connection points: 4
#     Node 10, Type 0, BuildingBlock: KUFVIS_clean_sbu_0, # of connection points: 4
#     Node 11, Type 0, BuildingBlock: KUFVIS_clean_sbu_0, # of connection points: 4
#     Node 12, Type 0, BuildingBlock: KUFVIS_clean_sbu_0, # of connection points: 4
#     Node 13, Type 0, BuildingBlock: KUFVIS_clean_sbu_0, # of connection points: 4
#     Node 14, Type 0, BuildingBlock: KUFVIS_clean_sbu_0, # of connection points: 4
#     Node 15, Type 0, BuildingBlock: KUFVIS_clean_sbu_0, # of connection points: 4
#     Node 16, Type 0, BuildingBlock: KUFVIS_clean_sbu_0, # of connection points: 4
#     Node 17, Type 0, BuildingBlock: KUFVIS_clean_sbu_0, # of connection points: 4
#     Edge 18, Type (0, 0), BuildingBlock: KIFKEQ_clean_linker_1, # of connection points: 2
#     Edge 19, Type (0, 0), BuildingBlock: KIFKEQ_clean_linker_1, # of connection points: 2
#     Edge 20, Type (0, 0), BuildingBlock: KIFKEQ_clean_linker_1, # of connection points: 2
#     Edge 21, Type (0, 0), BuildingBlock: KIFKEQ_clean_linker_1, # of connection points: 2
#     Edge 22, Type (0, 0), BuildingBlock: KIFKEQ_clean_linker_1, # of connection points: 2
#     Edge 23, Type (0, 0), BuildingBlock: KIFKEQ_clean_linker_1, # of connection points: 2
#     Edge 24, Type (0, 0), BuildingBlock: KIFKEQ_clean_linker_1, # of connection points: 2
#     Edge 25, Type (0, 0), BuildingBlock: KIFKEQ_clean_linker_1, # of connection points: 2
#     Edge 26, Type (0, 0), BuildingBlock: KIFKEQ_clean_linker_1, # of connection points: 2
#     Edge 27, Type (0, 0), BuildingBlock: KIFKEQ_clean_linker_1, # of connection points: 2
#     Edge 28, Type (0, 0), BuildingBlock: KIFKEQ_clean_linker_1, # of connection points: 2
#     Edge 29, Type (0, 0), BuildingBlock: KIFKEQ_clean_linker_1, # of connection points: 2
#     Edge 30, Type (0, 0), BuildingBlock: KIFKEQ_clean_linker_1, # of connection points: 2
#     Edge 31, Type (0, 0), BuildingBlock: KIFKEQ_clean_linker_1, # of connection points: 2
#     Edge 32, Type (0, 0), BuildingBlock: KIFKEQ_clean_linker_1, # of connection points: 2
#     Edge 33, Type (0, 0), BuildingBlock: KIFKEQ_clean_linker_1, # of connection points: 2
#     Edge 34, Type (0, 0), BuildingBlock: KIFKEQ_clean_linker_1, # of connection points: 2
#     Edge 35, Type (0, 0), BuildingBlock: KIFKEQ_clean_linker_1, # of connection points: 2
#     Edge 36, Type (0, 0), BuildingBlock: KIFKEQ_clean_linker_1, # of connection points: 2
#     Edge 37, Type (0, 0), BuildingBlock: KIFKEQ_clean_linker_1, # of connection points: 2
#     Edge 38, Type (0, 0), BuildingBlock: KIFKEQ_clean_linker_1, # of connection points: 2
#     Edge 39, Type (0, 0), BuildingBlock: KIFKEQ_clean_linker_1, # of connection points: 2
#     Edge 40, Type (0, 0), BuildingBlock: KIFKEQ_clean_linker_1, # of connection points: 2
#     Edge 41, Type (0, 0), BuildingBlock: KIFKEQ_clean_linker_1, # of connection points: 2
#     Edge 42, Type (0, 0), BuildingBlock: KIFKEQ_clean_linker_1, # of connection points: 2
#     Edge 43, Type (0, 0), BuildingBlock: KIFKEQ_clean_linker_1, # of connection points: 2
#     Edge 44, Type (0, 0), BuildingBlock: KIFKEQ_clean_linker_1, # of connection points: 2
#     Edge 45, Type (0, 0), BuildingBlock: KIFKEQ_clean_linker_1, # of connection points: 2
#     Edge 46, Type (0, 0), BuildingBlock: KIFKEQ_clean_linker_1, # of connection points: 2
#     Edge 47, Type (0, 0), BuildingBlock: KIFKEQ_clean_linker_1, # of connection points: 2
#     Edge 48, Type (0, 0), BuildingBlock: KIFKEQ_clean_linker_1, # of connection points: 2
#     Edge 49, Type (0, 0), BuildingBlock: KIFKEQ_clean_linker_1, # of connection points: 2
#     Edge 50, Type (0, 0), BuildingBlock: KIFKEQ_clean_linker_1, # of connection points: 2
#     Edge 51, Type (0, 0), BuildingBlock: KIFKEQ_clean_linker_1, # of connection points: 2
#     Edge 52, Type (0, 0), BuildingBlock: KIFKEQ_clean_linker_1, # of connection points: 2
#     Edge 53, Type (0, 0), BuildingBlock: KIFKEQ_clean_linker_1, # of connection points: 2
# Relax obj value: 0.111
# Max RMSD: 0.233
# Mean RMSD: 0.223
data_MOF--net-ung--node1-KUFVIS_clean_sbu_0--edge1-KIFKEQ_clean_linker_1
_symmetry_space_group_name_H-M    P1
_symmetry_Int_Tables_number       1
_symmetry_cell_setting            triclinic
loop_
_symmetry_equiv_pos_as_xyz
'x, y, z'
_cell_length_a     73.142649
_cell_length_b     74.377217
_cell_length_c     22.544794
_cell_angle_alpha  90.031763
_cell_angle_beta   89.405588
_cell_angle_gamma 120.59801
loop_
_atom_site_label
_atom_site_type_symbol
_atom_site_fract_x
_atom_site_fract_y
_atom_site_fract_z
_atom_type_partial_charge
Mn0 Mn 0.0699 0.63192 0.27328 0.0
Mn1 Mn 0.01739 0.59672 0.27619 0.0
C2 C 0.04726 0.63812 0.21835 0.0
C3 C 0.09813 0.66015 0.32014 0.0
C4 C 0.04956 0.59115 0.20422 0.0
O5 O 0.06647 0.61294 0.34225 0.0
O6 O 0.03086 0.59294 0.34774 0.0
C7 C 0.00528 0.6128 0.38025 0.0
N8 N 0.00299 0.6075 0.32184 0.0
C9 C 0.97653 0.61728 0.30988 0.0
C10 C 0.97849 0.6227 0.37003 0.0
C11 C 0.99295 0.62048 0.40532 0.0
C12 C 0.98917 0.60963 0.28743 0.0
H13 H 0.01647 0.61124 0.40741 0.0
C14 C 0.04948 0.59887 0.36735 0.0
O15 O 0.10148 0.64844 0.28409 0.0
O16 O 0.07868 0.65552 0.32844 0.0
N17 N 0.00218 0.59846 0.20996 0.0
C18 C 0.00257 0.59298 0.15246 0.0
C19 C 0.98925 0.59459 0.11107 0.0
C20 C 0.97553 0.60162 0.12931 0.0
C21 C 0.9751 0.60675 0.18895 0.0
C22 C 0.98859 0.60464 0.22831 0.0
H23 H 0.01307 0.58757 0.13815 0.0
O24 O 0.06752 0.64844 0.20744 0.0
O25 O 0.04098 0.62518 0.26303 0.0
O26 O 0.06591 0.60901 0.21472 0.0
O27 O 0.03117 0.58492 0.22702 0.0
C28 C 0.96204 0.61417 0.21073 0.0
C29 C 0.96279 0.61948 0.27112 0.0
H30 H 0.96908 0.62872 0.38948 0.0
H31 H 0.99463 0.62474 0.4517 0.0
H32 H 0.98963 0.59053 0.06516 0.0
H33 H 0.96546 0.60307 0.09712 0.0
H34 H 0.95152 0.61607 0.18129 0.0
H35 H 0.95283 0.62537 0.28721 0.0
Mn36 Mn 0.50633 0.49554 0.22392 0.0
Mn37 Mn 0.49232 0.53206 0.2375 0.0
C38 C 0.48092 0.49104 0.29303 0.0
C39 C 0.50075 0.46598 0.17195 0.0
C40 C 0.53333 0.53707 0.28594 0.0
O41 O 0.5187 0.51343 0.15015 0.0
O42 O 0.50458 0.53412 0.15696 0.0
C43 C 0.45742 0.51583 0.15084 0.0
N44 N 0.46443 0.52169 0.20723 0.0
C45 C 0.42969 0.51351 0.24095 0.0
C46 C 0.42214 0.50753 0.18313 0.0
C47 C 0.43606 0.50867 0.13792 0.0
C48 C 0.45118 0.52067 0.25107 0.0
H49 H 0.46806 0.51656 0.11607 0.0
C50 C 0.51516 0.52727 0.12916 0.0
O51 O 0.51843 0.47752 0.19997 0.0
O52 O 0.48674 0.47165 0.17473 0.0
N53 N 0.48009 0.53162 0.31338 0.0
C54 C 0.48963 0.53698 0.3673 0.0
C55 C 0.47772 0.53612 0.41761 0.0
C56 C 0.45618 0.52987 0.41195 0.0
C57 C 0.44678 0.52466 0.35591 0.0
C58 C 0.45949 0.52603 0.30725 0.0
H59 H 0.50616 0.54175 0.37202 0.0
O60 O 0.49031 0.48026 0.29706 0.0
O61 O 0.48626 0.50353 0.2477 0.0
O62 O 0.52978 0.51869 0.2746 0.0
O63 O 0.5209 0.54364 0.2711 0.0
C64 C 0.42518 0.51779 0.3466 0.0
C65 C 0.41664 0.51221 0.28917 0.0
H66 H 0.40563 0.50185 0.17307 0.0
H67 H 0.43032 0.50396 0.09327 0.0
H68 H 0.4851 0.54016 0.46071 0.0
H69 H 0.44699 0.52899 0.45097 0.0
H70 H 0.41494 0.51649 0.38342 0.0
H71 H 0.39996 0.5067 0.28271 0.0
Mn72 Mn 0.65093 0.06227 0.26464 0.0
Mn73 Mn 0.6626 0.11233 0.25196 0.0
C74 C 0.68212 0.08611 0.2192 0.0
C75 C 0.65083 0.03698 0.32576 0.0
C76 C 0.63311 0.07794 0.16823 0.0
O77 O 0.62918 0.06327 0.31713 0.0
O78 O 0.63939 0.09726 0.31217 0.0
C79 C 0.68059 0.12584 0.37174 0.0
N80 N 0.6827 0.12833 0.31173 0.0
C81 C 0.71806 0.15792 0.32036 0.0
C82 C 0.71621 0.15579 0.38228 0.0
C83 C 0.69741 0.13964 0.40806 0.0
C84 C 0.70077 0.14369 0.28646 0.0
H85 H 0.66621 0.11339 0.39171 0.0
C86 C 0.62727 0.07869 0.33196 0.0
O87 O 0.63785 0.03165 0.28143 0.0
O88 O 0.66365 0.05675 0.33398 0.0
N89 N 0.68465 0.12945 0.19631 0.0
C90 C 0.68397 0.12929 0.1359 0.0
C91 C 0.70163 0.14436 0.10328 0.0
C92 C 0.71963 0.15965 0.13309 0.0
C93 C 0.71977 0.15984 0.19523 0.0
C94 C 0.70167 0.14449 0.22538 0.0
H95 H 0.6702 0.11757 0.11276 0.0
O96 O 0.67482 0.06626 0.21383 0.0
O97 O 0.67167 0.09163 0.25495 0.0
O98 O 0.63473 0.06306 0.19136 0.0
O99 O 0.64245 0.09662 0.18833 0.0
C100 C 0.73729 0.17447 0.22842 0.0
C101 C 0.73646 0.17347 0.29095 0.0
H102 H 0.72917 0.16639 0.41044 0.0
H103 H 0.6959 0.13783 0.45579 0.0
H104 H 0.7014 0.14415 0.05529 0.0
H105 H 0.73326 0.17116 0.10792 0.0
H106 H 0.75155 0.18643 0.20628 0.0
H107 H 0.75009 0.18469 0.31599 0.0
Mn108 Mn 0.06622 0.48761 0.77535 0.0
Mn109 Mn 0.01462 0.47368 0.76775 0.0
C110 C 0.04384 0.46034 0.71486 0.0
C111 C 0.09209 0.4845 0.82645 0.0
C112 C 0.05029 0.51166 0.70459 0.0
O113 O 0.06216 0.50252 0.84491 0.0
O114 O 0.02684 0.48936 0.84263 0.0
C115 C 0.99756 0.44365 0.8679 0.0
N116 N 0.99735 0.44797 0.80932 0.0
C117 C 0.96874 0.41301 0.79089 0.0
C118 C 0.96854 0.40822 0.85113 0.0
C119 C 0.98305 0.4236 0.88976 0.0
C120 C 0.98347 0.43331 0.77175 0.0
H121 H 0.00875 0.45542 0.89763 0.0
C122 C 0.04508 0.5006 0.86641 0.0
O123 O 0.09728 0.50073 0.79318 0.0
O124 O 0.07211 0.47046 0.82984 0.0
N125 N 0.00069 0.45841 0.69785 0.0
C126 C 0.00383 0.46519 0.64047 0.0
C127 C 0.99112 0.45146 0.59581 0.0
C128 C 0.9752 0.431 0.61065 0.0
C129 C 0.97207 0.42447 0.6701 0.0
C130 C 0.98515 0.43888 0.71274 0.0
H131 H 0.01606 0.4809 0.62878 0.0
O132 O 0.06428 0.46953 0.70774 0.0
O133 O 0.03711 0.46691 0.75881 0.0
O134 O 0.06554 0.50872 0.71783 0.0
O135 O 0.03115 0.49994 0.7228 0.0
C136 C 0.95683 0.40409 0.68857 0.0
C137 C 0.95519 0.39835 0.74888 0.0
H138 H 0.95746 0.39274 0.8681 0.0
H139 H 0.98307 0.41998 0.93624 0.0
H140 H 0.99364 0.45662 0.55002 0.0
H141 H 0.96557 0.4204 0.57599 0.0
H142 H 0.94647 0.39263 0.65666 0.0
H143 H 0.94362 0.38254 0.76237 0.0
Mn144 Mn 0.64322 0.63885 0.72784 0.0
Mn145 Mn 0.60598 0.65259 0.71834 0.0
C146 C 0.64489 0.66431 0.78956 0.0
C147 C 0.67491 0.64273 0.69298 0.0
C148 C 0.59872 0.6136 0.78214 0.0
O149 O 0.62893 0.62615 0.65014 0.0
O150 O 0.6057 0.63741 0.64489 0.0
C151 C 0.62562 0.68336 0.62054 0.0
N152 N 0.61799 0.6787 0.67724 0.0
C153 C 0.62658 0.71409 0.69433 0.0
C154 C 0.63439 0.71924 0.63596 0.0
C155 C 0.63392 0.70381 0.59895 0.0
C156 C 0.61837 0.69343 0.71325 0.0
H157 H 0.62543 0.67159 0.5921 0.0
C158 C 0.6144 0.6275 0.62369 0.0
O159 O 0.66092 0.62553 0.71926 0.0
O160 O 0.67036 0.65733 0.68674 0.0
N161 N 0.60445 0.66743 0.78578 0.0
C162 C 0.59696 0.66007 0.84147 0.0
C163 C 0.59675 0.67366 0.88439 0.0
C164 C 0.60409 0.6946 0.86952 0.0
C165 C 0.6114 0.70173 0.81165 0.0
C166 C 0.61105 0.68742 0.7706 0.0
H167 H 0.59137 0.644 0.85324 0.0
O168 O 0.65498 0.65469 0.80248 0.0
O169 O 0.63463 0.65915 0.73971 0.0
O170 O 0.61727 0.6164 0.77321 0.0
O171 O 0.59276 0.62594 0.76271 0.0
C172 C 0.61936 0.72255 0.79337 0.0
C173 C 0.62696 0.72873 0.73477 0.0
H174 H 0.64093 0.73501 0.61925 0.0
H175 H 0.64002 0.70769 0.55395 0.0
H176 H 0.59106 0.66803 0.92893 0.0
H177 H 0.60413 0.70509 0.90292 0.0
H178 H 0.61991 0.73398 0.8242 0.0
H179 H 0.63325 0.74483 0.72142 0.0
Mn180 Mn 0.50578 0.06149 0.76082 0.0
Mn181 Mn 0.49842 0.01283 0.76292 0.0
C182 C 0.48083 0.03675 0.82361 0.0
C183 C 0.4981 0.08529 0.71827 0.0
C184 C 0.53424 0.04924 0.8272 0.0
O185 O 0.52092 0.06087 0.68643 0.0
O186 O 0.51475 0.02802 0.69019 0.0
C187 C 0.46967 0.99622 0.66022 0.0
N188 N 0.47351 0.995 0.71863 0.0
C189 C 0.43882 0.96465 0.73296 0.0
C190 C 0.43456 0.96548 0.67284 0.0
C191 C 0.45005 0.98136 0.63635 0.0
C192 C 0.45871 0.97981 0.75415 0.0
H193 H 0.48148 0.00848 0.63212 0.0
C194 C 0.52275 0.046 0.66532 0.0
O195 O 0.51574 0.09174 0.74661 0.0
O196 O 0.48532 0.06534 0.71414 0.0
N197 N 0.48286 0.99619 0.83022 0.0
C198 C 0.48924 0.99796 0.8876 0.0
C199 C 0.47538 0.98353 0.93015 0.0
C200 C 0.45524 0.96734 0.91319 0.0
C201 C 0.4492 0.96559 0.85368 0.0
C202 C 0.46374 0.98032 0.81314 0.0
H203 H 0.50468 0.01041 0.90093 0.0
O204 O 0.4881 0.05645 0.83293 0.0
O205 O 0.48783 0.03201 0.7763 0.0
O206 O 0.52962 0.063 0.81176 0.0
O207 O 0.52383 0.03018 0.81075 0.0
C208 C 0.42917 0.95005 0.83318 0.0
C209 C 0.42398 0.94959 0.77288 0.0
H210 H 0.41939 0.95412 0.65433 0.0
H211 H 0.44683 0.98217 0.58999 0.0
H212 H 0.48018 0.98496 0.97597 0.0
H213 H 0.44451 0.95637 0.94626 0.0
H214 H 0.41756 0.9385 0.86354 0.0
H215 H 0.40845 0.93769 0.75778 0.0
Mn216 Mn 0.73581 0.96318 0.59953 0.0
Mn217 Mn 0.68533 0.92252 0.59934 0.0
C218 C 0.71008 0.96677 0.55269 0.0
C219 C 0.76223 0.99151 0.65129 0.0
C220 C 0.71984 0.92577 0.51613 0.0
O221 O 0.73606 0.94336 0.65995 0.0
O222 O 0.70156 0.91837 0.6635 0.0
C223 C 0.67175 0.9309 0.71507 0.0
N224 N 0.66907 0.92807 0.65541 0.0
C225 C 0.63913 0.93318 0.65844 0.0
C226 C 0.64145 0.93598 0.72 0.0
C227 C 0.65786 0.93487 0.7484 0.0
C228 C 0.65341 0.92922 0.6276 0.0
H229 H 0.68442 0.93018 0.73703 0.0
C230 C 0.72075 0.92655 0.68136 0.0
O231 O 0.76708 0.98253 0.60955 0.0
O232 O 0.74223 0.98419 0.66218 0.0
N233 N 0.66747 0.92407 0.54054 0.0
C234 C 0.66743 0.92109 0.48086 0.0
C235 C 0.6521 0.92188 0.4458 0.0
C236 C 0.6368 0.92545 0.47249 0.0
C237 C 0.63682 0.92794 0.53414 0.0
C238 C 0.6524 0.92684 0.56687 0.0
H239 H 0.67918 0.9184 0.46003 0.0
O240 O 0.73004 0.97982 0.54208 0.0
O241 O 0.70572 0.9526 0.59323 0.0
O242 O 0.73465 0.94379 0.53287 0.0
O243 O 0.70116 0.91627 0.53921 0.0
C244 C 0.62216 0.93173 0.56433 0.0
C245 C 0.62334 0.93439 0.62641 0.0
H246 H 0.63082 0.93911 0.74583 0.0
H247 H 0.65983 0.93712 0.79584 0.0
H248 H 0.65214 0.91986 0.39827 0.0
H249 H 0.62514 0.92627 0.44522 0.0
H250 H 0.61 0.93277 0.54017 0.0
H251 H 0.61208 0.93745 0.64907 0.0
Mn252 Mn 0.17391 0.82486 0.56585 0.0
Mn253 Mn 0.16158 0.8627 0.57324 0.0
C254 C 0.14692 0.8207 0.62878 0.0
C255 C 0.16973 0.7957 0.51531 0.0
C256 C 0.20073 0.86587 0.62931 0.0
O257 O 0.18877 0.84326 0.49405 0.0
O258 O 0.17447 0.86387 0.49453 0.0
C259 C 0.12797 0.8483 0.48295 0.0
N260 N 0.13449 0.85405 0.53974 0.0
C261 C 0.10093 0.8504 0.56788 0.0
C262 C 0.09387 0.84454 0.50961 0.0
C263 C 0.10743 0.84342 0.46703 0.0
C264 C 0.12157 0.85513 0.58109 0.0
H265 H 0.13838 0.84748 0.45013 0.0
C266 C 0.1856 0.85697 0.4702 0.0
O267 O 0.18631 0.80683 0.54785 0.0
O268 O 0.15571 0.80139 0.51272 0.0
N269 N 0.14884 0.86315 0.64736 0.0
C270 C 0.15744 0.86737 0.70257 0.0
C271 C 0.14555 0.86808 0.75084 0.0
C272 C 0.12507 0.8647 0.74177 0.0
C273 C 0.11664 0.86055 0.68448 0.0
C274 C 0.1292 0.86 0.6381 0.0
H275 H 0.17321 0.87009 0.70983 0.0
O276 O 0.15556 0.80933 0.63561 0.0
O277 O 0.1538 0.83356 0.58402 0.0
O278 O 0.19622 0.84706 0.62087 0.0
O279 O 0.18951 0.87322 0.60988 0.0
C280 C 0.09612 0.85659 0.67176 0.0
C281 C 0.0882 0.85139 0.61362 0.0
H282 H 0.07802 0.84069 0.4972 0.0
H283 H 0.10206 0.83882 0.42203 0.0
H284 H 0.15216 0.87126 0.79493 0.0
H285 H 0.11589 0.86516 0.77916 0.0
H286 H 0.0863 0.85737 0.70657 0.0
H287 H 0.07222 0.84798 0.60472 0.0
Mn288 Mn 0.31783 0.39383 0.58585 0.0
Mn289 Mn 0.27452 0.3456 0.59375 0.0
C290 C 0.31876 0.36899 0.64382 0.0
C291 C 0.34815 0.41688 0.53288 0.0
C292 C 0.2786 0.38294 0.66016 0.0
O293 O 0.29968 0.39347 0.51859 0.0
O294 O 0.2728 0.36005 0.52112 0.0
C295 C 0.28325 0.32686 0.48946 0.0
N296 N 0.27934 0.32661 0.54871 0.0
C297 C 0.28132 0.29558 0.56279 0.0
C298 C 0.28519 0.2954 0.5018 0.0
C299 C 0.28619 0.31113 0.46501 0.0
C300 C 0.27833 0.31155 0.58453 0.0
H301 H 0.28416 0.33902 0.46116 0.0
C302 C 0.28256 0.37843 0.4982 0.0
O303 O 0.33911 0.42378 0.56884 0.0
O304 O 0.33975 0.39684 0.52874 0.0
N305 N 0.27386 0.32982 0.66161 0.0
C306 C 0.27118 0.33293 0.71987 0.0
C307 C 0.27057 0.31897 0.76286 0.0
C308 C 0.27251 0.30187 0.74549 0.0
C309 C 0.27493 0.29882 0.6852 0.0
C310 C 0.27528 0.31316 0.6443 0.0
H311 H 0.26974 0.34608 0.73349 0.0
O312 O 0.33254 0.38864 0.65099 0.0
O313 O 0.30529 0.36436 0.60083 0.0
O314 O 0.29782 0.39614 0.64569 0.0
O315 O 0.26854 0.36406 0.64205 0.0
C316 C 0.27755 0.28241 0.66419 0.0
C317 C 0.28075 0.2808 0.60305 0.0
H318 H 0.28762 0.28338 0.48283 0.0
H319 H 0.2893 0.31117 0.41796 0.0
H320 H 0.2687 0.32143 0.80931 0.0
H321 H 0.27226 0.29127 0.77884 0.0
H322 H 0.27741 0.27112 0.69479 0.0
H323 H 0.28303 0.26828 0.58754 0.0
Mn324 Mn 0.74069 0.82057 0.09317 0.0
Mn325 Mn 0.78956 0.86335 0.10168 0.0
C326 C 0.76638 0.8189 0.14659 0.0
C327 C 0.71737 0.79178 0.03676 0.0
C328 C 0.75184 0.85731 0.17547 0.0
O329 O 0.74058 0.83981 0.03024 0.0
O330 O 0.77441 0.86637 0.0326 0.0
C331 C 0.80779 0.85688 0.99158 0.0
N332 N 0.80847 0.85947 0.05148 0.0
C333 C 0.83962 0.85648 0.05832 0.0
C334 C 0.83937 0.85396 0.99663 0.0
C335 C 0.82336 0.85413 0.96315 0.0
C336 C 0.82375 0.85926 0.08415 0.0
H337 H 0.79542 0.85685 0.96576 0.0
C338 C 0.75571 0.85712 0.01066 0.0
O339 O 0.71023 0.79957 0.07609 0.0
O340 O 0.73778 0.80046 0.03143 0.0
N341 N 0.80618 0.86281 0.16591 0.0
C342 C 0.80398 0.86517 0.22505 0.0
C343 C 0.81858 0.86507 0.26486 0.0
C344 C 0.83537 0.86277 0.24343 0.0
C345 C 0.83758 0.86085 0.18228 0.0
C346 C 0.82266 0.86124 0.14469 0.0
H347 H 0.79109 0.86691 0.24178 0.0
O348 O 0.7465 0.80483 0.15387 0.0
O349 O 0.7707 0.83299 0.10588 0.0
O350 O 0.73844 0.83881 0.15817 0.0
O351 O 0.77093 0.86795 0.15563 0.0
C352 C 0.85382 0.85828 0.1572 0.0
C353 C 0.85482 0.85606 0.09528 0.0
H354 H 0.85129 0.85173 0.97456 0.0
H355 H 0.82299 0.85207 0.91556 0.0
H356 H 0.81682 0.86665 0.31197 0.0
H357 H 0.84646 0.86248 0.27433 0.0
H358 H 0.86553 0.85781 0.18518 0.0
H359 H 0.86728 0.85391 0.07658 0.0
Mn360 Mn 0.31237 0.97067 0.0669 0.0
Mn361 Mn 0.27274 0.98124 0.06153 0.0
C362 C 0.31326 0.99584 0.12814 0.0
C363 C 0.34451 0.97629 0.03022 0.0
C364 C 0.26887 0.94343 0.12446 0.0
O365 O 0.29748 0.95697 0.99066 0.0
O366 O 0.27287 0.96658 0.98742 0.0
C367 C 0.28916 0.01205 0.9632 0.0
N368 N 0.2823 0.00704 0.02046 0.0
C369 C 0.28738 0.04121 0.03785 0.0
C370 C 0.29435 0.04669 0.97891 0.0
C371 C 0.29527 0.03205 0.94147 0.0
C372 C 0.28128 0.02098 0.05683 0.0
H373 H 0.29 0.00087 0.93442 0.0
C374 C 0.28219 0.95736 0.96548 0.0
O375 O 0.33141 0.95892 0.05729 0.0
O376 O 0.33872 0.98998 0.02349 0.0
N377 N 0.27076 0.99542 0.13 0.0
C378 C 0.26504 0.98813 0.18662 0.0
C379 C 0.26416 0.00115 0.23029 0.0
C380 C 0.26901 0.02145 0.21525 0.0
C381 C 0.27462 0.02852 0.15654 0.0
C382 C 0.27507 0.01479 0.11481 0.0
H383 H 0.2614 0.97258 0.19851 0.0
O384 O 0.32436 0.98719 0.14015 0.0
O385 O 0.30227 0.98981 0.07951 0.0
O386 O 0.28782 0.94755 0.11472 0.0
O387 O 0.26159 0.95476 0.1057 0.0
C388 C 0.28031 0.04883 0.13814 0.0
C389 C 0.28669 0.05518 0.07885 0.0
H390 H 0.29925 0.06216 0.96211 0.0
H391 H 0.30075 0.03621 0.89604 0.0
H392 H 0.25986 0.99559 0.27552 0.0
H393 H 0.26854 0.03152 0.24921 0.0
H394 H 0.28014 0.0598 0.16945 0.0
H395 H 0.29133 0.07094 0.06546 0.0
Mn396 Mn 0.17979 0.40921 0.0898 0.0
Mn397 Mn 0.16998 0.36004 0.10538 0.0
C398 C 0.15159 0.38579 0.1481 0.0
C399 C 0.1746 0.43189 0.03045 0.0
C400 C 0.20565 0.39759 0.16774 0.0
O401 O 0.19799 0.40666 0.0256 0.0
O402 O 0.18572 0.37209 0.02992 0.0
C403 C 0.14033 0.33992 0.00603 0.0
N404 N 0.14456 0.34094 0.06501 0.0
C405 C 0.10978 0.31157 0.08619 0.0
C406 C 0.1051 0.3101 0.02559 0.0
C407 C 0.12044 0.32437 0.98537 0.0
C408 C 0.12991 0.32732 0.10412 0.0
H409 H 0.15205 0.35093 0.97504 0.0
C410 C 0.19689 0.39011 0.00557 0.0
O411 O 0.19038 0.43917 0.06719 0.0
O412 O 0.16221 0.41184 0.02874 0.0
N413 N 0.15465 0.34653 0.17667 0.0
C414 C 0.16136 0.35058 0.23388 0.0
C415 C 0.1477 0.33801 0.2798 0.0
C416 C 0.12737 0.32133 0.26642 0.0
C417 C 0.12093 0.31726 0.20716 0.0
C418 C 0.13531 0.33019 0.16322 0.0
H419 H 0.17696 0.36336 0.2445 0.0
O420 O 0.15871 0.40565 0.15263 0.0
O421 O 0.16066 0.38032 0.10807 0.0
O422 O 0.20069 0.41118 0.15326 0.0
O423 O 0.19604 0.37872 0.1494 0.0
C424 C 0.10069 0.30111 0.19005 0.0
C425 C 0.0951 0.29828 0.12962 0.0
H426 H 0.08973 0.29821 0.00952 0.0
H427 H 0.11691 0.32341 0.93859 0.0
H428 H 0.1528 0.34123 0.32542 0.0
H429 H 0.11679 0.31182 0.30201 0.0
H430 H 0.0892 0.29094 0.22307 0.0
H431 H 0.0794 0.28598 0.11708 0.0
Mn432 Mn 0.40842 0.29872 0.92317 0.0
Mn433 Mn 0.35775 0.25862 0.91855 0.0
C434 C 0.38417 0.30196 0.86687 0.0
C435 C 0.43321 0.32809 0.97545 0.0
C436 C 0.39404 0.25948 0.84929 0.0
O437 O 0.40659 0.27995 0.99052 0.0
O438 O 0.37173 0.25562 0.99034 0.0
C439 C 0.34055 0.26919 0.0236 0.0
N440 N 0.33982 0.26515 0.96449 0.0
C441 C 0.30956 0.26936 0.9522 0.0
C442 C 0.30988 0.27341 0.01307 0.0
C443 C 0.32547 0.27336 0.04888 0.0
C444 C 0.32489 0.26516 0.92961 0.0
H445 H 0.35259 0.26926 0.05113 0.0
C446 C 0.39042 0.26381 0.01205 0.0
O447 O 0.43941 0.31855 0.93926 0.0
O448 O 0.41298 0.32065 0.98041 0.0
N449 N 0.34222 0.25927 0.85156 0.0
C450 C 0.34489 0.25628 0.79319 0.0
C451 C 0.33105 0.25661 0.75106 0.0
C452 C 0.3145 0.25979 0.76941 0.0
C453 C 0.31187 0.2625 0.82982 0.0
C454 C 0.32607 0.26189 0.86983 0.0
H455 H 0.35759 0.25386 0.77881 0.0
O456 O 0.40439 0.31442 0.85837 0.0
O457 O 0.3787 0.28843 0.90994 0.0
O458 O 0.40875 0.27801 0.86257 0.0
O459 O 0.37501 0.25097 0.86936 0.0
C460 C 0.29605 0.26632 0.85174 0.0
C461 C 0.29492 0.26977 0.91287 0.0
H462 H 0.29837 0.27677 0.03267 0.0
H463 H 0.32589 0.27658 0.09582 0.0
H464 H 0.33319 0.25451 0.70452 0.0
H465 H 0.30401 0.26027 0.7367 0.0
H466 H 0.28489 0.26693 0.82183 0.0
H467 H 0.28288 0.27299 0.92905 0.0
Mn468 Mn 0.84311 0.15167 0.92481 0.0
Mn469 Mn 0.83305 0.19126 0.92985 0.0
C470 C 0.81504 0.14797 0.98111 0.0
C471 C 0.8387 0.12275 0.87236 0.0
C472 C 0.86773 0.19068 0.00092 0.0
O473 O 0.86125 0.17067 0.85805 0.0
O474 O 0.85161 0.19498 0.86044 0.0
C475 C 0.80712 0.18068 0.82162 0.0
N476 N 0.8093 0.18461 0.8809 0.0
C477 C 0.77462 0.18067 0.88821 0.0
C478 C 0.77203 0.17673 0.82712 0.0
C479 C 0.78833 0.17667 0.79373 0.0
C480 C 0.79369 0.18459 0.91351 0.0
H481 H 0.81961 0.1806 0.79589 0.0
C482 C 0.86209 0.18706 0.83819 0.0
O483 O 0.85428 0.13237 0.9093 0.0
O484 O 0.82585 0.12975 0.86672 0.0
N485 N 0.8154 0.19024 0.99455 0.0
C486 C 0.82007 0.19346 0.05336 0.0
C487 C 0.80515 0.1934 0.09325 0.0
C488 C 0.7858 0.19042 0.07215 0.0
C489 C 0.78155 0.18758 0.01127 0.0
C490 C 0.79702 0.18781 0.97364 0.0
H491 H 0.83498 0.19589 0.06972 0.0
O492 O 0.82246 0.13562 0.98907 0.0
O493 O 0.82355 0.16153 0.93798 0.0
O494 O 0.86409 0.17251 0.98607 0.0
O495 O 0.85725 0.19889 0.98169 0.0
C496 C 0.76241 0.18413 0.98652 0.0
C497 C 0.75891 0.18059 0.92511 0.0
H498 H 0.75755 0.17358 0.80548 0.0
H499 H 0.78642 0.17354 0.74662 0.0
H500 H 0.80857 0.19565 0.14014 0.0
H501 H 0.77429 0.19025 0.10313 0.0
H502 H 0.75018 0.18396 0.0143 0.0
H503 H 0.74402 0.17768 0.90678 0.0
Mn504 Mn 0.9851 0.73317 0.92244 0.0
Mn505 Mn 0.99363 0.78201 0.90886 0.0
C506 C 0.01304 0.75692 0.865 0.0
C507 C 0.98979 0.71004 0.98065 0.0
C508 C 0.95985 0.74496 0.84038 0.0
O509 O 0.96663 0.73475 0.98626 0.0
O510 O 0.97552 0.76843 0.98079 0.0
C511 C 0.02005 0.80061 0.01511 0.0
N512 N 0.0175 0.80071 0.9554 0.0
C513 C 0.05211 0.83133 0.94299 0.0
C514 C 0.05505 0.83167 0.00444 0.0
C515 C 0.03897 0.81621 0.04062 0.0
C516 C 0.03289 0.81545 0.92015 0.0
H517 H 0.00775 0.7887 0.04298 0.0
C518 C 0.96548 0.75026 0.00487 0.0
O519 O 0.9743 0.70316 0.94308 0.0
O520 O 0.00247 0.73005 0.98332 0.0
N521 N 0.01075 0.79718 0.84173 0.0
C522 C 0.00579 0.79404 0.78309 0.0
C523 C 0.02033 0.8079 0.74077 0.0
C524 C 0.0397 0.82493 0.75918 0.0
C525 C 0.04442 0.82795 0.81979 0.0
C526 C 0.02922 0.81371 0.85998 0.0
H527 H 0.99094 0.78097 0.7686 0.0
O528 O 0.00605 0.73709 0.86015 0.0
O529 O 0.00408 0.76241 0.90583 0.0
O530 O 0.96411 0.73124 0.85895 0.0
O531 O 0.96938 0.76387 0.85836 0.0
C532 C 0.06373 0.84429 0.84189 0.0
C533 C 0.06759 0.84594 0.90341 0.0
H534 H 0.06965 0.84362 0.02426 0.0
H535 H 0.04117 0.8163 0.08803 0.0
H536 H 0.01662 0.80546 0.69406 0.0
H537 H 0.05078 0.83553 0.72625 0.0
H538 H 0.07581 0.85554 0.81197 0.0
H539 H 0.08261 0.85841 0.91978 0.0
Mn540 Mn 0.40619 0.15278 0.42198 0.0
Mn541 Mn 0.35753 0.14658 0.40647 0.0
C542 C 0.38218 0.12679 0.36112 0.0
C543 C 0.42785 0.14525 0.47915 0.0
C544 C 0.39726 0.1809 0.34544 0.0
O545 O 0.40433 0.17035 0.48778 0.0
O546 O 0.37004 0.16151 0.48224 0.0
C547 C 0.33509 0.11734 0.50597 0.0
N548 N 0.33672 0.12191 0.44699 0.0
C549 C 0.30531 0.08898 0.42614 0.0
C550 C 0.3032 0.08397 0.48675 0.0
C551 C 0.31817 0.09821 0.5268 0.0
C552 C 0.32238 0.10835 0.40806 0.0
H553 H 0.34665 0.1282 0.5368 0.0
C554 C 0.38828 0.17106 0.50701 0.0
O555 O 0.4361 0.16167 0.44491 0.0
O556 O 0.40736 0.1337 0.48028 0.0
N557 N 0.34356 0.13237 0.33532 0.0
C558 C 0.34866 0.13899 0.27795 0.0
C559 C 0.33573 0.1262 0.23209 0.0
C560 C 0.31762 0.10683 0.24564 0.0
C561 C 0.31255 0.10047 0.30503 0.0
C562 C 0.32594 0.11395 0.34892 0.0
H563 H 0.36259 0.15383 0.2672 0.0
O564 O 0.40225 0.13304 0.35722 0.0
O565 O 0.37664 0.1354 0.40247 0.0
O566 O 0.41016 0.17497 0.36076 0.0
O567 O 0.37784 0.172 0.36233 0.0
C568 C 0.29503 0.08105 0.32232 0.0
C569 C 0.29142 0.07531 0.38282 0.0
H570 H 0.29027 0.06917 0.50294 0.0
H571 H 0.31672 0.0944 0.57359 0.0
H572 H 0.33977 0.13121 0.18636 0.0
H573 H 0.30783 0.09691 0.21009 0.0
H574 H 0.28444 0.07029 0.28936 0.0
H575 H 0.27809 0.06021 0.39547 0.0
Mn576 Mn 0.98465 0.30406 0.42252 0.0
Mn577 Mn 0.94036 0.30679 0.43782 0.0
C578 C 0.98583 0.33021 0.47973 0.0
C579 C 0.01393 0.31173 0.3639 0.0
C580 C 0.94784 0.27526 0.50207 0.0
O581 O 0.96485 0.28423 0.36038 0.0
O582 O 0.93859 0.29161 0.36315 0.0
C583 C 0.946 0.33439 0.33627 0.0
N584 N 0.94321 0.33036 0.39561 0.0
C585 C 0.94339 0.3623 0.41427 0.0
C586 C 0.94611 0.36673 0.35328 0.0
C587 C 0.94745 0.35273 0.31414 0.0
C588 C 0.9419 0.34372 0.43367 0.0
H589 H 0.94715 0.3237 0.30613 0.0
C590 C 0.94774 0.28235 0.34047 0.0
O591 O 0.00642 0.29642 0.402 0.0
O592 O 0.00443 0.32238 0.36015 0.0
N593 N 0.93993 0.32108 0.508 0.0
C594 C 0.93847 0.31506 0.56577 0.0
C595 C 0.93767 0.32771 0.61078 0.0
C596 C 0.93818 0.3463 0.59594 0.0
C597 C 0.9394 0.35203 0.53615 0.0
C598 C 0.94002 0.33873 0.49319 0.0
H599 H 0.93809 0.3008 0.57749 0.0
O600 O 0.00061 0.32554 0.48351 0.0
O601 O 0.97133 0.32012 0.43997 0.0
O602 O 0.96727 0.28275 0.48717 0.0
O603 O 0.93625 0.28237 0.48365 0.0
C604 C 0.94049 0.37064 0.51754 0.0
C605 C 0.94252 0.37579 0.45667 0.0
H606 H 0.94737 0.38092 0.33607 0.0
H607 H 0.94966 0.35609 0.26705 0.0
H608 H 0.93674 0.32318 0.65682 0.0
H609 H 0.93776 0.35609 0.63084 0.0
H610 H 0.94006 0.38123 0.5497 0.0
H611 H 0.94364 0.39028 0.44299 0.0
Mn612 Mn 0.83492 0.72646 0.41866 0.0
Mn613 Mn 0.82855 0.6782 0.42064 0.0
C614 C 0.80655 0.70031 0.46941 0.0
C615 C 0.83045 0.7507 0.36511 0.0
C616 C 0.85936 0.71345 0.5 0.0
O617 O 0.85587 0.72808 0.35725 0.0
O618 O 0.84778 0.69465 0.35329 0.0
C619 C 0.80467 0.66303 0.30888 0.0
N620 N 0.80593 0.66088 0.36844 0.0
C621 C 0.77101 0.63028 0.37171 0.0
C622 C 0.76939 0.63206 0.31031 0.0
C623 C 0.78629 0.64852 0.2788 0.0
C624 C 0.78972 0.64518 0.39924 0.0
H625 H 0.81755 0.67576 0.28457 0.0
C626 C 0.85809 0.71362 0.33494 0.0
O627 O 0.84491 0.75675 0.40569 0.0
O628 O 0.81865 0.73079 0.35655 0.0
N629 N 0.81041 0.66022 0.4827 0.0
C630 C 0.81464 0.66052 0.54155 0.0
C631 C 0.79931 0.64511 0.57942 0.0
C632 C 0.77998 0.62937 0.55627 0.0
C633 C 0.77628 0.62898 0.49525 0.0
C634 C 0.79221 0.64467 0.45962 0.0
H635 H 0.82949 0.67255 0.55962 0.0
O636 O 0.81208 0.71968 0.47761 0.0
O637 O 0.81689 0.69668 0.42822 0.0
O638 O 0.85436 0.72696 0.48455 0.0
O639 O 0.85148 0.69529 0.47682 0.0
C640 C 0.75736 0.61375 0.46844 0.0
C641 C 0.7547 0.61443 0.40674 0.0
H642 H 0.75522 0.62093 0.28698 0.0
H643 H 0.78512 0.65007 0.23146 0.0
H644 H 0.80237 0.64541 0.62638 0.0
H645 H 0.76812 0.61762 0.58569 0.0
H646 H 0.7447 0.6015 0.49491 0.0
H647 H 0.74003 0.6027 0.38669 0.0
H648 H 0.08058 0.52643 0.93081 0.0
H649 H 0.01289 0.50218 0.92448 0.0
H650 H 0.08307 0.54746 0.0167 0.0
H651 H 0.01553 0.52351 0.00922 0.0
H652 H 0.02221 0.54942 0.19137 0.0
H653 H 0.02222 0.5267 0.1141 0.0
H654 H 0.08017 0.57799 0.04058 0.0
H655 H 0.08045 0.60079 0.11917 0.0
C656 C 0.06621 0.52551 0.94772 0.0
C657 C 0.04651 0.51258 0.92054 0.0
C658 C 0.0677 0.53769 0.99677 0.0
C659 C 0.04953 0.53718 0.01984 0.0
C660 C 0.02981 0.52404 0.99318 0.0
C661 C 0.02831 0.51187 0.94426 0.0
C662 C 0.0351 0.55587 0.15911 0.0
C663 C 0.05123 0.57701 0.16112 0.0
C664 C 0.03503 0.54283 0.11459 0.0
C665 C 0.051 0.55059 0.07061 0.0
C666 C 0.06768 0.57149 0.07401 0.0
C667 C 0.06783 0.58457 0.11896 0.0
H668 H 0.6076 0.5896 0.85462 0.0
H669 H 0.5563 0.59854 0.79939 0.0
H670 H 0.58477 0.5655 0.93151 0.0
H671 H 0.53329 0.57392 0.87529 0.0
H672 H 0.51471 0.55962 0.0733 0.0
H673 H 0.53253 0.57676 0.98136 0.0
H674 H 0.55378 0.53254 0.95847 0.0
H675 H 0.53637 0.51562 0.05169 0.0
C676 C 0.5913 0.58604 0.85787 0.0
C677 C 0.58388 0.59627 0.82149 0.0
C678 C 0.57816 0.57211 0.90184 0.0
C679 C 0.55729 0.56802 0.91002 0.0
C680 C 0.54944 0.57712 0.87092 0.0
C681 C 0.56261 0.59116 0.82725 0.0
C682 C 0.52299 0.55338 0.04853 0.0
C683 C 0.52433 0.5364 0.07036 0.0
C684 C 0.53308 0.56312 0.9954 0.0
C685 C 0.54462 0.55604 0.96261 0.0
C686 C 0.54525 0.53854 0.98316 0.0
C687 C 0.53522 0.52882 0.03652 0.0
H688 H 0.63307 0.10661 0.09295 0.0
H689 H 0.6035 0.04003 0.12198 0.0
H690 H 0.61157 0.10042 0.00606 0.0
H691 H 0.58107 0.03382 0.03603 0.0
H692 H 0.55511 0.02841 0.85187 0.0
H693 H 0.58039 0.03564 0.93075 0.0
H694 H 0.57625 0.08951 0.98196 0.0
H695 H 0.55166 0.08273 0.90176 0.0
C696 C 0.62191 0.09059 0.08099 0.0
C697 C 0.62001 0.07379 0.11468 0.0
C698 C 0.60943 0.08706 0.03119 0.0
C699 C 0.59443 0.06664 0.01414 0.0
C700 C 0.59266 0.04977 0.04736 0.0
C701 C 0.60542 0.05331 0.09692 0.0
C702 C 0.55983 0.04197 0.87951 0.0
C703 C 0.55137 0.05501 0.87052 0.0
C704 C 0.57418 0.046 0.9251 0.0
C705 C 0.58025 0.06305 0.96315 0.0
C706 C 0.5722 0.0764 0.95306 0.0
C707 C 0.55805 0.07251 0.90705 0.0
H708 H 0.59112 0.04168 0.35307 0.0
H709 H 0.62474 0.10631 0.40733 0.0
H710 H 0.56397 0.03374 0.42807 0.0
H711 H 0.5978 0.0982 0.48426 0.0
H712 H 0.53766 0.07963 0.5903 0.0
H713 H 0.56128 0.08775 0.50486 0.0
H714 H 0.56156 0.03041 0.53319 0.0
H715 H 0.53749 0.02198 0.61726 0.0
C716 C 0.59272 0.05421 0.3812 0.0
C717 C 0.61019 0.07459 0.37481 0.0
C718 C 0.57719 0.04963 0.42436 0.0
C719 C 0.57885 0.06525 0.46273 0.0
C720 C 0.59595 0.08583 0.45507 0.0
C721 C 0.61143 0.09048 0.41123 0.0
C722 C 0.54261 0.06866 0.57796 0.0
C723 C 0.53573 0.05017 0.61078 0.0
C724 C 0.55626 0.0734 0.52919 0.0
C725 C 0.56339 0.0598 0.51232 0.0
C726 C 0.55613 0.0411 0.54438 0.0
C727 C 0.54238 0.03629 0.59284 0.0
H728 H 0.08582 0.60575 0.42249 0.0
H729 H 0.01728 0.56834 0.4343 0.0
H730 H 0.08853 0.58765 0.50926 0.0
H731 H 0.02008 0.55011 0.51969 0.0
H732 H 0.02848 0.53212 0.69952 0.0
H733 H 0.03028 0.55578 0.6224 0.0
H734 H 0.08185 0.55277 0.53723 0.0
H735 H 0.08037 0.52933 0.61584 0.0
C736 C 0.07133 0.59373 0.44356 0.0
C737 C 0.05131 0.58851 0.42127 0.0
C738 C 0.07292 0.5833 0.4931 0.0
C739 C 0.05454 0.56751 0.52154 0.0
C740 C 0.03457 0.56246 0.49953 0.0
C741 C 0.03297 0.57284 0.45016 0.0
C742 C 0.04043 0.53674 0.66484 0.0
C743 C 0.05412 0.52867 0.66328 0.0
C744 C 0.04138 0.55021 0.62045 0.0
C745 C 0.05589 0.55579 0.57301 0.0
C746 C 0.07051 0.54878 0.57329 0.0
C747 C 0.06968 0.53537 0.61824 0.0
H748 H 0.58571 0.62833 0.54845 0.0
H749 H 0.62499 0.6008 0.57034 0.0
H750 H 0.57045 0.60749 0.46003 0.0
H751 H 0.60984 0.58014 0.48103 0.0
H752 H 0.55167 0.52684 0.37507 0.0
H753 H 0.57497 0.55038 0.45187 0.0
H754 H 0.57878 0.60289 0.35839 0.0
H755 H 0.55527 0.57941 0.28268 0.0
C756 C 0.59129 0.61803 0.53409 0.0
C757 C 0.6065 0.6162 0.56687 0.0
C758 C 0.58265 0.60618 0.48303 0.0
C759 C 0.58897 0.59217 0.4634 0.0
C760 C 0.60453 0.59066 0.49528 0.0
C761 C 0.61327 0.60261 0.54631 0.0
C762 C 0.55803 0.54347 0.37011 0.0
C763 C 0.55145 0.55126 0.32339 0.0
C764 C 0.57134 0.55697 0.41413 0.0
C765 C 0.57833 0.57845 0.41182 0.0
C766 C 0.57321 0.58637 0.36223 0.0
C767 C 0.55988 0.57293 0.31865 0.0
H768 H 0.76976 0.89875 0.19924 0.0
H769 H 0.71998 0.83791 0.25873 0.0
H770 H 0.7615 0.91499 0.28043 0.0
H771 H 0.71218 0.85412 0.34177 0.0
H772 H 0.69113 0.89171 0.45312 0.0
H773 H 0.69795 0.87531 0.36944 0.0
H774 H 0.76529 0.91916 0.38415 0.0
H775 H 0.75838 0.93618 0.46637 0.0
C776 C 0.75705 0.88882 0.22983 0.0
C777 C 0.74555 0.86702 0.22262 0.0
C778 C 0.75243 0.89813 0.27677 0.0
C779 C 0.73635 0.88589 0.31827 0.0
C780 C 0.72453 0.86408 0.31037 0.0
C781 C 0.72901 0.85476 0.26282 0.0
C782 C 0.70742 0.89791 0.43856 0.0
C783 C 0.72421 0.91538 0.4664 0.0
C784 C 0.71133 0.88837 0.39067 0.0
C785 C 0.73216 0.8959 0.36974 0.0
C786 C 0.74899 0.91318 0.3982 0.0
C787 C 0.74505 0.92288 0.44569 0.0
H788 H 0.21133 0.84783 0.40284 0.0
H789 H 0.1824 0.88613 0.40525 0.0
H790 H 0.22942 0.86434 0.30967 0.0
H791 H 0.20078 0.90281 0.31379 0.0
H792 H 0.22571 0.9233 0.13387 0.0
H793 H 0.20338 0.89803 0.20941 0.0
H794 H 0.25839 0.89874 0.28058 0.0
H795 H 0.28062 0.92351 0.20383 0.0
C796 C 0.20873 0.85966 0.38347 0.0
C797 C 0.19556 0.86579 0.41188 0.0
C798 C 0.21913 0.86913 0.3302 0.0
C799 C 0.21653 0.88486 0.30434 0.0
C800 C 0.20286 0.89049 0.3319 0.0
C801 C 0.19247 0.88105 0.38486 0.0
C802 C 0.23297 0.91777 0.16499 0.0
C803 C 0.25497 0.92565 0.16357 0.0
C804 C 0.22019 0.90335 0.20835 0.0
C805 C 0.22919 0.89671 0.25163 0.0
C806 C 0.25095 0.90346 0.24768 0.0
C807 C 0.26372 0.91774 0.20384 0.0
H808 H 0.30315 0.40731 0.41053 0.0
H809 H 0.24055 0.36029 0.47176 0.0
H810 H 0.28724 0.41656 0.32972 0.0
H811 H 0.22474 0.36995 0.39178 0.0
H812 H 0.20493 0.40885 0.28142 0.0
H813 H 0.22537 0.40617 0.36313 0.0
H814 H 0.26209 0.39327 0.23748 0.0
H815 H 0.24121 0.39529 0.15619 0.0
C816 C 0.28601 0.39896 0.40666 0.0
C817 C 0.27305 0.38299 0.44718 0.0
C818 C 0.27697 0.40431 0.36066 0.0
C819 C 0.25484 0.39415 0.35535 0.0
C820 C 0.24187 0.37818 0.39567 0.0
C821 C 0.2509 0.3725 0.44086 0.0
C822 C 0.21794 0.40628 0.27132 0.0
C823 C 0.2218 0.40256 0.21285 0.0
C824 C 0.22939 0.40448 0.3179 0.0
C825 C 0.24513 0.39939 0.30628 0.0
C826 C 0.2501 0.39731 0.24735 0.0
C827 C 0.23829 0.39859 0.20099 0.0
H828 H 0.19319 0.358 0.93866 0.0
H829 H 0.22797 0.42547 0.94916 0.0
H830 H 0.21326 0.35989 0.85038 0.0
H831 H 0.24807 0.42726 0.85951 0.0
H832 H 0.29518 0.41211 0.74868 0.0
H833 H 0.27514 0.41662 0.82939 0.0
H834 H 0.21636 0.37197 0.74621 0.0
H835 H 0.23618 0.36723 0.66673 0.0
C836 C 0.20506 0.37326 0.92206 0.0
C837 C 0.20897 0.39158 0.95107 0.0
C838 C 0.21645 0.37434 0.8711 0.0
C839 C 0.23206 0.39374 0.84784 0.0
C840 C 0.23611 0.41212 0.87667 0.0
C841 C 0.22455 0.41106 0.92773 0.0
C842 C 0.27799 0.40367 0.74712 0.0
C843 C 0.2672 0.38902 0.70227 0.0
C844 C 0.26655 0.40626 0.79314 0.0
C845 C 0.24423 0.3943 0.79447 0.0
C846 C 0.23356 0.381 0.74691 0.0
C847 C 0.24491 0.37833 0.70144 0.0
H848 H 0.77896 0.89775 0.97253 0.0
H849 H 0.72189 0.83905 0.93595 0.0
H850 H 0.77017 0.91443 0.89388 0.0
H851 H 0.7135 0.85551 0.85605 0.0
H852 H 0.69307 0.89608 0.75873 0.0
H853 H 0.7017 0.87947 0.83819 0.0
H854 H 0.7682 0.91618 0.78954 0.0
H855 H 0.75969 0.93322 0.71192 0.0
C856 C 0.76468 0.88835 0.94725 0.0
C857 C 0.75111 0.8671 0.96071 0.0
C858 C 0.75965 0.89789 0.90196 0.0
C859 C 0.74107 0.88634 0.86859 0.0
C860 C 0.72771 0.865 0.88152 0.0
C861 C 0.73261 0.85552 0.92714 0.0
C862 C 0.70952 0.90057 0.76505 0.0
C863 C 0.72567 0.91603 0.72908 0.0
C864 C 0.71448 0.89098 0.81042 0.0
C865 C 0.73568 0.89649 0.82044 0.0
C866 C 0.75176 0.91182 0.78399 0.0
C867 C 0.74684 0.92152 0.73914 0.0
H868 H 0.25373 0.95815 0.88938 0.0
H869 H 0.29204 0.92974 0.9149 0.0
H870 H 0.23813 0.93672 0.80207 0.0
H871 H 0.27647 0.90841 0.82683 0.0
H872 H 0.2173 0.85517 0.72231 0.0
H873 H 0.24061 0.87875 0.79918 0.0
H874 H 0.24725 0.93159 0.70068 0.0
H875 H 0.22389 0.90816 0.62475 0.0
C876 C 0.25901 0.94752 0.87607 0.0
C877 C 0.27408 0.94565 0.90941 0.0
C878 C 0.25017 0.93532 0.82571 0.0
C879 C 0.25612 0.9209 0.8075 0.0
C880 C 0.27149 0.91929 0.84002 0.0
C881 C 0.28047 0.93162 0.89027 0.0
C882 C 0.22426 0.87186 0.71636 0.0
C883 C 0.21854 0.87981 0.66805 0.0
C884 C 0.23756 0.88536 0.76037 0.0
C885 C 0.24538 0.90698 0.75647 0.0
C886 C 0.24105 0.91497 0.7056 0.0
C887 C 0.22777 0.90155 0.66197 0.0
H888 H 0.42223 0.27309 0.75489 0.0
H889 H 0.37452 0.21738 0.8455 0.0
H890 H 0.42275 0.25145 0.6732 0.0
H891 H 0.37509 0.19603 0.76482 0.0
H892 H 0.35729 0.17112 0.57565 0.0
H893 H 0.3618 0.19287 0.66135 0.0
H894 H 0.42993 0.22212 0.64442 0.0
H895 H 0.42553 0.20037 0.55819 0.0
C896 C 0.41232 0.25626 0.75808 0.0
C897 C 0.39813 0.24695 0.80608 0.0
C898 C 0.41254 0.24389 0.71135 0.0
C899 C 0.3986 0.22211 0.71221 0.0
C900 C 0.38562 0.2128 0.7623 0.0
C901 C 0.38539 0.22505 0.80861 0.0
C902 C 0.37325 0.18213 0.59013 0.0
C903 C 0.39102 0.18392 0.56009 0.0
C904 C 0.37583 0.19452 0.63945 0.0
C905 C 0.39623 0.2091 0.65972 0.0
C906 C 0.41404 0.21106 0.6296 0.0
C907 C 0.41147 0.19849 0.5805 0.0
H908 H 0.87201 0.16998 0.74505 0.0
H909 H 0.88486 0.22883 0.81922 0.0
H910 H 0.89562 0.18871 0.66042 0.0
H911 H 0.90883 0.24739 0.73596 0.0
H912 H 0.96529 0.27223 0.60459 0.0
H913 H 0.94627 0.24826 0.68748 0.0
H914 H 0.88981 0.21667 0.58141 0.0
H915 H 0.90852 0.24099 0.49939 0.0
C916 C 0.88007 0.18688 0.74351 0.0
C917 C 0.87654 0.19802 0.7881 0.0
C918 C 0.89354 0.1975 0.69549 0.0
C919 C 0.90409 0.21936 0.69267 0.0
C920 C 0.90101 0.2305 0.73797 0.0
C921 C 0.88717 0.2199 0.78503 0.0
C922 C 0.94903 0.25976 0.59857 0.0
C923 C 0.93824 0.25837 0.54612 0.0
C924 C 0.9382 0.24616 0.64577 0.0
C925 C 0.91672 0.23074 0.64017 0.0
C926 C 0.90645 0.22836 0.58616 0.0
C927 C 0.91708 0.24226 0.5396 0.0
H928 H 0.93202 0.7062 0.79419 0.0
H929 H 0.95182 0.77161 0.77854 0.0
H930 H 0.907 0.69825 0.71349 0.0
H931 H 0.92785 0.76386 0.6971 0.0
H932 H 0.86936 0.74244 0.58716 0.0
H933 H 0.89202 0.74881 0.6723 0.0
H934 H 0.90606 0.70217 0.60913 0.0
H935 H 0.88267 0.69522 0.52545 0.0
C936 C 0.93109 0.71885 0.77361 0.0
C937 C 0.94395 0.73951 0.79307 0.0
C938 C 0.91687 0.71434 0.72705 0.0
C939 C 0.91538 0.73042 0.69864 0.0
C940 C 0.92819 0.751 0.71849 0.0
C941 C 0.94212 0.75545 0.76522 0.0
C942 C 0.87741 0.73366 0.59127 0.0
C943 C 0.87431 0.71842 0.54941 0.0
C944 C 0.89043 0.7373 0.6401 0.0
C945 C 0.90092 0.72601 0.64772 0.0
C946 C 0.89794 0.71089 0.60542 0.0
C947 C 0.88469 0.70705 0.55706 0.0
H948 H 0.86299 0.6875 0.25929 0.0
H949 H 0.88868 0.7528 0.29993 0.0
H950 H 0.88926 0.69724 0.17987 0.0
H951 H 0.9153 0.76245 0.22205 0.0
H952 H 0.94649 0.77246 0.03766 0.0
H953 H 0.92013 0.76371 0.11671 0.0
H954 H 0.92649 0.71111 0.16736 0.0
H955 H 0.95215 0.71942 0.08761 0.0
C956 C 0.8743 0.7039 0.25153 0.0
C957 C 0.87375 0.71934 0.28604 0.0
C958 C 0.88944 0.7095 0.20622 0.0
C959 C 0.90448 0.73064 0.19482 0.0
C960 C 0.9038 0.74606 0.22908 0.0
C961 C 0.88857 0.74048 0.27398 0.0
C962 C 0.94235 0.75916 0.06609 0.0
C963 C 0.95123 0.74654 0.05612 0.0
C964 C 0.92727 0.75413 0.11139 0.0
C965 C 0.92099 0.73654 0.14791 0.0
C966 C 0.93052 0.72443 0.13911 0.0
C967 C 0.94537 0.72931 0.09363 0.0
H968 H 0.39491 0.21589 0.35543 0.0
H969 H 0.41247 0.18205 0.23467 0.0
H970 H 0.39654 0.23842 0.27371 0.0
H971 H 0.41336 0.20414 0.1524 0.0
H972 H 0.3689 0.22233 0.03924 0.0
H973 H 0.37581 0.20495 0.12079 0.0
H974 H 0.42617 0.26453 0.18219 0.0
H975 H 0.41976 0.28201 0.0995 0.0
C976 C 0.39983 0.2138 0.31171 0.0
C977 C 0.40387 0.19754 0.3011 0.0
C978 C 0.40067 0.22657 0.26514 0.0
C979 C 0.40496 0.22283 0.20716 0.0
C980 C 0.41007 0.20726 0.19699 0.0
C981 C 0.40977 0.19482 0.24391 0.0
C982 C 0.3814 0.23173 0.0702 0.0
C983 C 0.39375 0.2535 0.06324 0.0
C984 C 0.38548 0.22178 0.11631 0.0
C985 C 0.40165 0.23348 0.15693 0.0
C986 C 0.41375 0.25526 0.1509 0.0
C987 C 0.41002 0.26519 0.10387 0.0
H988 H 0.91724 0.28068 0.26797 0.0
H989 H 0.95578 0.25267 0.29628 0.0
H990 H 0.90084 0.25788 0.18333 0.0
H991 H 0.9392 0.2298 0.21119 0.0
H992 H 0.87978 0.17745 0.0992 0.0
H993 H 0.90142 0.19969 0.18125 0.0
H994 H 0.91405 0.25454 0.08192 0.0
H995 H 0.89268 0.23259 0.0009 0.0
C996 C 0.92223 0.26968 0.25618 0.0
C997 C 0.93789 0.26859 0.28875 0.0
C998 C 0.91291 0.2567 0.20752 0.0
C999 C 0.91889 0.24219 0.19055 0.0
C1000 C 0.93431 0.24083 0.22345 0.0
C1001 C 0.94385 0.25402 0.27185 0.0
C1002 C 0.88773 0.19427 0.09445 0.0
C1003 C 0.88435 0.20331 0.04422 0.0
C1004 C 0.9 0.20697 0.14134 0.0
C1005 C 0.90896 0.22878 0.13826 0.0
C1006 C 0.90691 0.23776 0.08598 0.0
C1007 C 0.89476 0.22518 0.03955 0.0
H1008 H 0.1346 0.69184 0.2708 0.0
H1009 H 0.0996 0.66999 0.43578 0.0
H1010 H 0.15836 0.72595 0.31641 0.0
H1011 H 0.12371 0.70358 0.48182 0.0
H1012 H 0.17812 0.76559 0.55196 0.0
H1013 H 0.1664 0.73177 0.50381 0.0
H1014 H 0.14234 0.75055 0.3571 0.0
H1015 H 0.15321 0.78378 0.40597 0.0
C1016 C 0.13257 0.69409 0.31736 0.0
C1017 C 0.11536 0.67844 0.34997 0.0
C1018 C 0.14607 0.71353 0.34331 0.0
C1019 C 0.14286 0.71726 0.4026 0.0
C1020 C 0.12667 0.70099 0.43631 0.0
C1021 C 0.11286 0.68184 0.40996 0.0
C1022 C 0.17078 0.7626 0.50881 0.0
C1023 C 0.16641 0.77712 0.48269 0.0
C1024 C 0.1641 0.74334 0.48138 0.0
C1025 C 0.15364 0.73871 0.42666 0.0
C1026 C 0.15063 0.75386 0.39887 0.0
C1027 C 0.1567 0.77278 0.42699 0.0
H1028 H 0.4773 0.49026 0.41322 0.0
H1029 H 0.44155 0.4766 0.25185 0.0
H1030 H 0.44418 0.47566 0.47165 0.0
H1031 H 0.40855 0.46215 0.30972 0.0
H1032 H 0.3606 0.40703 0.43115 0.0
H1033 H 0.39257 0.42863 0.37282 0.0
H1034 H 0.41053 0.47985 0.49377 0.0
H1035 H 0.37799 0.45805 0.5527 0.0
C1036 C 0.46236 0.48454 0.3906 0.0
C1037 C 0.46179 0.48491 0.32852 0.0
C1038 C 0.44353 0.47638 0.42378 0.0
C1039 C 0.42393 0.46794 0.395 0.0
C1040 C 0.4235 0.46864 0.33283 0.0
C1041 C 0.44229 0.47695 0.29985 0.0
C1042 C 0.37124 0.42294 0.4452 0.0
C1043 C 0.36693 0.43086 0.49658 0.0
C1044 C 0.38945 0.43534 0.41152 0.0
C1045 C 0.40389 0.45587 0.42884 0.0
C1046 C 0.39955 0.46402 0.47977 0.0
C1047 C 0.381 0.45163 0.51317 0.0
H1048 H 0.70494 0.96755 0.43489 0.0
H1049 H 0.68134 0.97516 0.60331 0.0
H1050 H 0.68384 0.97954 0.38346 0.0
H1051 H 0.65999 0.98714 0.55201 0.0
H1052 H 0.66535 0.04315 0.43805 0.0
H1053 H 0.67339 0.02072 0.49684 0.0
H1054 H 0.6475 0.97378 0.36011 0.0
H1055 H 0.63932 0.99645 0.3008 0.0
C1056 C 0.69467 0.97121 0.46063 0.0
C1057 C 0.69424 0.96996 0.52271 0.0
C1058 C 0.68249 0.97793 0.4313 0.0
C1059 C 0.67016 0.98417 0.46368 0.0
C1060 C 0.66931 0.98237 0.52594 0.0
C1061 C 0.68136 0.97542 0.55526 0.0
C1062 C 0.66096 0.02786 0.421 0.0
C1063 C 0.65198 0.02163 0.36456 0.0
C1064 C 0.66538 0.01492 0.45498 0.0
C1065 C 0.66117 0.99553 0.43298 0.0
C1066 C 0.65101 0.98872 0.37796 0.0
C1067 C 0.64628 0.00162 0.34417 0.0
H1068 H 0.68697 0.08474 0.10207 0.0
H1069 H 0.71997 0.11787 0.25919 0.0
H1070 H 0.71952 0.10333 0.04438 0.0
H1071 H 0.75264 0.13812 0.20069 0.0
H1072 H 0.77754 0.14183 0.9403 0.0
H1073 H 0.74563 0.13262 -0.00151 0.0
H1074 H 0.77835 0.13302 0.15802 0.0
H1075 H 0.81058 0.14423 0.09985 0.0
C1076 C 0.7012 0.09665 0.12362 0.0
C1077 C 0.70098 0.10043 0.18437 0.0
C1078 C 0.71988 0.10751 0.0905 0.0
C1079 C 0.73888 0.12245 0.11747 0.0
C1080 C 0.73844 0.12656 0.1784 0.0
C1081 C 0.71971 0.11531 0.21183 0.0
C1082 C 0.77798 0.14075 0.98812 0.0
C1083 C 0.79656 0.14449 0.01615 0.0
C1084 C 0.75963 0.13505 0.0215 0.0
C1085 C 0.75923 0.13191 0.08327 0.0
C1086 C 0.77803 0.13576 0.11101 0.0
C1087 C 0.79648 0.14195 0.0777 0.0
H1088 H 0.01088 0.72037 0.08424 0.0
H1089 H 0.97666 0.66853 0.96503 0.0
H1090 H 0.02021 0.69929 0.14483 0.0
H1091 H 0.98624 0.64724 0.02621 0.0
H1092 H 0.0416 0.63705 0.09985 0.0
H1093 H 0.02277 0.65102 0.04497 0.0
H1094 H 0.00474 0.66736 0.21045 0.0
H1095 H 0.02368 0.65341 0.265 0.0
C1096 C 0.00516 0.70434 0.07135 0.0
C1097 C 0.99323 0.69613 0.01963 0.0
C1098 C 0.01034 0.69222 0.10641 0.0
C1099 C 0.00395 0.67164 0.09022 0.0
C1100 C 0.99141 0.66311 0.03947 0.0
C1101 C 0.9859 0.67522 0.00468 0.0
C1102 C 0.03316 0.64321 0.12422 0.0
C1103 C 0.03348 0.6437 0.18637 0.0
C1104 C 0.02229 0.65106 0.093 0.0
C1105 C 0.01217 0.66013 0.1235 0.0
C1106 C 0.01236 0.66039 0.18588 0.0
C1107 C 0.02303 0.65233 0.21706 0.0
H1108 H 0.42427 0.34156 0.07654 0.0
H1109 H 0.47521 0.35729 0.95055 0.0
H1110 H 0.44527 0.37538 0.12358 0.0
H1111 H 0.4964 0.39164 0.99843 0.0
H1112 H 0.52151 0.4435 0.17378 0.0
H1113 H 0.50939 0.40924 0.12697 0.0
H1114 H 0.45691 0.41148 0.04964 0.0
H1115 H 0.4687 0.44512 0.09517 0.0
C1116 C 0.44015 0.35211 0.05957 0.0
C1117 C 0.44797 0.34694 0.00925 0.0
C1118 C 0.45219 0.3714 0.08678 0.0
C1119 C 0.47233 0.38604 0.06436 0.0
C1120 C 0.48094 0.38046 0.01666 0.0
C1121 C 0.46882 0.36091 0.98929 0.0
C1122 C 0.50763 0.43678 0.14587 0.0
C1123 C 0.49588 0.44685 0.1389 0.0
C1124 C 0.50078 0.41729 0.11909 0.0
C1125 C 0.48218 0.40782 0.0852 0.0
C1126 C 0.47123 0.41846 0.07586 0.0
C1127 C 0.47799 0.43771 0.10223 0.0
H1128 H 0.98715 0.36545 0.44023 0.0
H1129 H 0.99117 0.3349 0.59759 0.0
H1130 H 0.99575 0.39652 0.4981 0.0
H1131 H 0.00149 0.36621 0.65486 0.0
H1132 H 0.01475 0.42193 0.75702 0.0
H1133 H 0.99478 0.38983 0.70039 0.0
H1134 H 0.0257 0.42397 0.53927 0.0
H1135 H 0.044 0.45613 0.59594 0.0
C1136 C 0.98937 0.36528 0.48761 0.0
C1137 C 0.98774 0.34764 0.51514 0.0
C1138 C 0.99473 0.3832 0.52068 0.0
C1139 C -0.00052 0.38409 0.58146 0.0
C1140 C 0.9975 0.36615 0.60875 0.0
C1141 C 0.99175 0.34818 0.5759 0.0
C1142 C 0.0165 0.42256 0.70918 0.0
C1143 C 0.03017 0.4415 0.68034 0.0
C1144 C 0.00542 0.40412 0.67669 0.0
C1145 C 0.00857 0.4041 0.61491 0.0
C1146 C 0.02232 0.42326 0.58633 0.0
C1147 C 0.03303 0.44172 0.61878 0.0
H1148 H 0.68327 0.61487 0.63713 0.0
H1149 H 0.71232 0.67857 0.69769 0.0
H1150 H 0.71683 0.62324 0.5868 0.0
H1151 H 0.74552 0.68674 0.64929 0.0
H1152 H 0.80594 0.69711 0.58779 0.0
H1153 H 0.7746 0.67734 0.65122 0.0
H1154 H 0.73628 0.6496 0.49613 0.0
H1155 H 0.76787 0.66939 0.43265 0.0
C1156 C 0.69699 0.63043 0.64094 0.0
C1157 C 0.69537 0.64614 0.67088 0.0
C1158 C 0.71604 0.63521 0.61212 0.0
C1159 C 0.73372 0.65557 0.61459 0.0
C1160 C 0.73225 0.67085 0.64739 0.0
C1161 C 0.71323 0.66622 0.67476 0.0
C1162 C 0.79093 0.68616 0.5676 0.0
C1163 C 0.78922 0.68436 0.50578 0.0
C1164 C 0.77307 0.67488 0.60372 0.0
C1165 C 0.75307 0.66205 0.57846 0.0
C1166 C 0.75158 0.65917 0.51667 0.0
C1167 C 0.76957 0.67047 0.48041 0.0
H1168 H 0.41422 0.10787 0.53129 0.0
H1169 H 0.47035 0.16874 0.50807 0.0
H1170 H 0.43371 0.09711 0.59306 0.0
H1171 H 0.4901 0.158 0.57263 0.0
H1172 H 0.51926 0.11628 0.63551 0.0
H1173 H 0.50413 0.13382 0.57895 0.0
H1174 H 0.4478 0.10373 0.69033 0.0
H1175 H 0.46243 0.08559 0.74379 0.0
C1176 C 0.43076 0.11908 0.53989 0.0
C1177 C 0.44069 0.13925 0.51527 0.0
C1178 C 0.44194 0.11294 0.57586 0.0
C1179 C 0.46336 0.12685 0.58914 0.0
C1180 C 0.47358 0.14695 0.56343 0.0
C1181 C 0.46231 0.15311 0.52663 0.0
C1182 C 0.50387 0.11392 0.64839 0.0
C1183 C 0.49184 0.09957 0.69339 0.0
C1184 C 0.49521 0.12392 0.61618 0.0
C1185 C 0.47453 0.11977 0.62919 0.0
C1186 C 0.46348 0.10678 0.67789 0.0
C1187 C 0.4719 0.09654 0.70894 0.0
H1188 H 0.38034 0.01377 0.03189 0.0
H1189 H 0.35585 0.94958 0.98111 0.0
H1190 H 0.41482 0.02331 0.98915 0.0
H1191 H 0.39061 0.95937 0.93612 0.0
H1192 H 0.44245 0.00695 0.78338 0.0
H1193 H 0.40993 0.98687 0.84269 0.0
H1194 H 0.4454 0.01426 0.00228 0.0
H1195 H 0.47799 0.03392 0.94291 0.0
C1196 C 0.38248 0.00167 0.01205 0.0
C1197 C 0.36556 0.98101 0.00935 0.0
C1198 C 0.40221 0.00708 0.9881 0.0
C1199 C 0.40529 0.99201 0.95986 0.0
C1200 C 0.38853 0.97117 0.95818 0.0
C1201 C 0.36879 0.96561 0.98375 0.0
C1202 C 0.44339 0.00783 0.83131 0.0
C1203 C 0.46265 0.02145 0.85903 0.0
C1204 C 0.42485 0.9964 0.86515 0.0
C1205 C 0.42531 0.99901 0.92688 0.0
C1206 C 0.44478 0.0119 0.95474 0.0
C1207 C 0.46331 0.02315 0.92096 0.0
H1208 H 0.13592 0.50922 0.82509 0.0
H1209 H 0.08383 0.4523 0.89941 0.0
H1210 H 0.16126 0.50111 0.87187 0.0
H1211 H 0.10889 0.44441 0.94479 0.0
H1212 H 0.15495 0.42163 0.92513 0.0
H1213 H 0.13891 0.43891 0.87412 0.0
H1214 H 0.16616 0.48913 0.0007 0.0
H1215 H 0.18253 0.47171 0.05252 0.0
C1216 C 0.1299 0.49519 0.85179 0.0
C1217 C 0.10787 0.48129 0.858 0.0
C1218 C 0.14437 0.49064 0.87858 0.0
C1219 C 0.13689 0.47211 0.91146 0.0
C1220 C 0.11497 0.45874 0.91937 0.0
C1221 C 0.10065 0.46329 0.89318 0.0
C1222 C 0.15804 0.43664 0.94132 0.0
C1223 C 0.16972 0.4452 0.99324 0.0
C1224 C 0.14892 0.44653 0.91195 0.0
C1225 C 0.15124 0.4652 0.93385 0.0
C1226 C 0.16435 0.47479 0.98291 0.0
C1227 C 0.17365 0.46484 0.01244 0.0
H1228 H 0.64077 0.66707 0.90832 0.0
H1229 H 0.66121 0.70365 0.74728 0.0
H1230 H 0.65477 0.69911 0.96681 0.0
H1231 H 0.67497 0.7357 0.80529 0.0
H1232 H 0.72819 0.78104 0.93333 0.0
H1233 H 0.70655 0.75095 0.87158 0.0
H1234 H 0.65304 0.73206 0.99032 0.0
H1235 H 0.67494 0.76264 0.0528 0.0
C1236 C 0.64771 0.68198 0.88555 0.0
C1237 C 0.6495 0.683 0.82348 0.0
C1238 C 0.65559 0.70027 0.91886 0.0
C1239 C 0.66595 0.71989 0.8906 0.0
C1240 C 0.6671 0.72079 0.82825 0.0
C1241 C 0.65908 0.7025 0.79503 0.0
C1242 C 0.71176 0.77061 0.94619 0.0
C1243 C 0.7033 0.7741 0.99819 0.0
C1244 C 0.69929 0.75346 0.9104 0.0
C1245 C 0.67807 0.73921 0.92594 0.0
C1246 C 0.66938 0.74283 0.97739 0.0
C1247 C 0.68186 0.76029 0.01298 0.0
H1248 H 0.75911 0.00121 0.76524 0.0
H1249 H 0.80167 0.02224 0.61373 0.0
H1250 H 0.7837 0.03283 0.81884 0.0
H1251 H 0.82611 0.0544 0.66708 0.0
H1252 H 0.82975 0.11625 0.75601 0.0
H1253 H 0.81639 0.08349 0.70206 0.0
H1254 H 0.82426 0.0546 0.85806 0.0
H1255 H 0.83841 0.08784 0.91169 0.0
C1256 C 0.7739 0.0125 0.74376 0.0
C1257 C 0.77847 0.0094 0.68527 0.0
C1258 C 0.78804 0.03048 0.77462 0.0
C1259 C 0.8068 0.04597 0.74712 0.0
C1260 C 0.81177 0.04259 0.68928 0.0
C1261 C 0.79784 0.02426 0.65886 0.0
C1262 C 0.82928 0.10308 0.77809 0.0
C1263 C 0.83509 0.10446 0.83779 0.0
C1264 C 0.82174 0.08439 0.7472 0.0
C1265 C 0.81931 0.06657 0.77596 0.0
C1266 C 0.8261 0.0682 0.83493 0.0
C1267 C 0.83424 0.08715 0.86545 0.0
H1268 H 0.10894 0.81242 0.58699 0.0
H1269 H 0.14195 0.8166 0.74815 0.0
H1270 H 0.07676 0.80287 0.64371 0.0
H1271 H 0.1093 0.80488 0.80523 0.0
H1272 H 0.05051 0.78931 0.9041 0.0
H1273 H 0.08315 0.8097 0.8459 0.0
H1274 H 0.05054 0.77409 0.69014 0.0
H1275 H 0.01788 0.75549 0.74744 0.0
C1276 C 0.10929 0.81159 0.6349 0.0
C1277 C 0.12798 0.81604 0.66369 0.0
C1278 C 0.09075 0.80568 0.66748 0.0
C1279 C 0.09021 0.80295 0.72942 0.0
C1280 C 0.10907 0.8073 0.75799 0.0
C1281 C 0.12776 0.81376 0.72536 0.0
C1282 C 0.05028 0.78669 0.85679 0.0
C1283 C 0.03165 0.7715 0.8295 0.0
C1284 C 0.06905 0.79799 0.82358 0.0
C1285 C 0.0697 0.79357 0.76303 0.0
C1286 C 0.05077 0.77847 0.736 0.0
C1287 C 0.032 0.7676 0.7689 0.0
H1288 H 0.32324 0.36824 0.76187 0.0
H1289 H 0.32263 0.33695 0.60051 0.0
H1290 H 0.33522 0.34811 0.81643 0.0
H1291 H 0.33256 0.31503 0.65556 0.0
H1292 H 0.38313 0.30654 0.74866 0.0
H1293 H 0.3629 0.31881 0.69509 0.0
H1294 H 0.33147 0.31871 0.85913 0.0
H1295 H 0.35349 0.30837 0.91276 0.0
C1296 C 0.32487 0.35636 0.73869 0.0
C1297 C 0.3214 0.35361 0.67756 0.0
C1298 C 0.33156 0.3446 0.76999 0.0
C1299 C 0.33496 0.32979 0.74075 0.0
C1300 C 0.33056 0.32651 0.67967 0.0
C1301 C 0.32437 0.33869 0.64816 0.0
C1302 C 0.37163 0.30888 0.7728 0.0
C1303 C 0.36925 0.30586 0.83431 0.0
C1304 C 0.35979 0.31571 0.74211 0.0
C1305 C 0.34531 0.31974 0.77239 0.0
C1306 C 0.34263 0.31613 0.83411 0.0
C1307 C 0.35488 0.30977 0.86489 0.0
H1308 H 0.04654 0.30483 0.3869 0.0
H1309 H 0.02414 0.33222 0.2589 0.0
H1310 H 0.08033 0.3194 0.33172 0.0
H1311 H 0.05752 0.34645 0.204 0.0
H1312 H 0.14379 0.38148 0.26645 0.0
H1313 H 0.10953 0.35885 0.31615 0.0
H1314 H 0.08051 0.33546 0.14592 0.0
H1315 H 0.1148 0.35805 0.09663 0.0
C1316 C 0.04869 0.31356 0.34642 0.0
C1317 C 0.03291 0.3176 0.3273 0.0
C1318 C 0.06797 0.32193 0.31517 0.0
C1319 C 0.07144 0.33405 0.26389 0.0
C1320 C 0.05515 0.33702 0.24314 0.0
C1321 C 0.03613 0.329 0.27477 0.0
C1322 C 0.1301 0.37116 0.24011 0.0
C1323 C 0.1318 0.37092 0.17823 0.0
C1324 C 0.11063 0.35817 0.26834 0.0
C1325 C 0.09251 0.3453 0.23475 0.0
C1326 C 0.0943 0.34516 0.17271 0.0
C1327 C 0.11382 0.35795 0.14464 0.0
H1328 H 0.81345 0.74414 0.25581 0.0
H1329 H 0.83972 0.7903 0.39445 0.0
H1330 H 0.80375 0.7661 0.20074 0.0
H1331 H 0.82965 0.81239 0.33912 0.0
H1332 H 0.77038 0.81686 0.26487 0.0
H1333 H 0.79187 0.80519 0.31611 0.0
H1334 H 0.8183 0.80109 0.14795 0.0
H1335 H 0.79674 0.81284 0.09693 0.0
C1336 C 0.8174 0.75915 0.27412 0.0
C1337 C 0.82714 0.76545 0.32964 0.0
C1338 C 0.81203 0.77182 0.24227 0.0
C1339 C 0.81598 0.79096 0.26562 0.0
C1340 C 0.82644 0.79768 0.32021 0.0
C1341 C 0.83222 0.7851 0.35172 0.0
C1342 C 0.78132 0.81409 0.23929 0.0
C1343 C 0.7824 0.8162 0.17737 0.0
C1344 C 0.79368 0.80753 0.26851 0.0
C1345 C 0.80679 0.80231 0.236 0.0
C1346 C 0.80836 0.80508 0.17405 0.0
C1347 C 0.79618 0.8119 0.14493 0.0
H1348 H 0.32331 0.03381 0.08444 0.0
H1349 H 0.31451 -5e-05 0.24723 0.0
H1350 H 0.33423 0.06569 0.14013 0.0
H1351 H 0.32772 0.03203 0.3032 0.0
H1352 H 0.3483 0.09047 0.40093 0.0
H1353 H 0.32608 0.05908 0.3435 0.0
H1354 H 0.36363 0.09028 0.18649 0.0
H1355 H 0.38402 0.12199 0.24328 0.0
C1356 C 0.32325 0.03318 0.13243 0.0
C1357 C 0.31724 0.01437 0.16188 0.0
C1358 C 0.33004 0.05155 0.16449 0.0
C1359 C 0.33217 0.05174 0.22661 0.0
C1360 C 0.3259 0.03268 0.25584 0.0
C1361 C 0.31851 0.01423 0.22379 0.0
C1362 C 0.35101 0.09073 0.35354 0.0
C1363 C 0.36716 0.10878 0.32579 0.0
C1364 C 0.33864 0.07261 0.32068 0.0
C1365 C 0.34295 0.07186 0.2599 0.0
C1366 C 0.35923 0.09015 0.23251 0.0
C1367 C 0.37116 0.10836 0.26512 0.0
loop_
_geom_bond_atom_site_label_1
_geom_bond_atom_site_label_2
_geom_bond_distance
_geom_bond_site_symmetry_2
_ccdc_geom_bond_type
Mn0 O5 2.095 . S
Mn0 O15 2.162 . S
Mn0 O16 2.297 . S
Mn0 O24 2.385 . S
Mn0 O25 2.209 . S
Mn0 O26 2.094 . S
Mn1 O6 2.121 . S
Mn1 N8 2.257 1_455 S
Mn1 N17 2.282 . S
Mn1 O25 2.215 . S
Mn1 O27 2.117 . S
C2 O24 1.234 . S
C2 O25 1.283 . S
C3 O15 1.281 . S
C3 O16 1.236 . S
C4 O26 1.240 . S
C4 O27 1.264 . S
O5 Mn0 2.095 . S
O5 C14 1.250 . S
O6 Mn1 2.121 . S
O6 C14 1.258 . S
C7 N8 1.326 . S
C7 C11 1.460 . S
C7 H13 0.929 . S
N8 Mn1 2.257 1_655 S
N8 C7 1.326 . S
N8 C12 1.362 . S
C9 C10 1.258 . S
C9 C12 1.431 . S
C9 C29 1.449 . S
C10 C9 1.258 . S
C10 C11 1.477 . S
C10 H30 0.931 . S
C11 C7 1.460 . S
C11 C10 1.477 . S
C11 H31 0.930 . S
C12 N8 1.362 . S
C12 C9 1.431 . S
C12 C22 1.476 . S
H13 C7 0.929 . S
C14 O5 1.250 . S
C14 O6 1.258 . S
O15 Mn0 2.162 . S
O15 C3 1.281 . S
O16 Mn0 2.297 . S
O16 C3 1.236 . S
N17 Mn1 2.282 . S
N17 C18 1.328 . S
N17 C22 1.318 1_455 S
C18 N17 1.328 . S
C18 C19 1.457 . S
C18 H23 0.929 . S
C19 C18 1.457 . S
C19 C20 1.291 1_455 S
C19 H32 0.931 1_554 S
C20 C19 1.291 1_655 S
C20 C21 1.373 . S
C20 H33 0.929 . S
C21 C20 1.373 . S
C21 C22 1.396 . S
C21 C28 1.403 . S
C22 C12 1.476 . S
C22 N17 1.318 1_655 S
C22 C21 1.396 . S
H23 C18 0.929 . S
O24 Mn0 2.385 . S
O24 C2 1.234 . S
O25 Mn0 2.209 . S
O25 Mn1 2.215 . S
O25 C2 1.283 . S
O26 Mn0 2.094 . S
O26 C4 1.240 . S
O27 Mn1 2.117 . S
O27 C4 1.264 . S
C28 C21 1.403 . S
C28 C29 1.399 . S
C28 H34 0.929 . S
C29 C9 1.449 . S
C29 C28 1.399 . S
C29 H35 0.930 . S
H30 C10 0.931 . S
H31 C11 0.930 . S
H32 C19 0.931 1_556 S
H33 C20 0.929 . S
H34 C28 0.929 . S
H35 C29 0.930 . S
Mn36 O41 2.095 . S
Mn36 O51 2.162 . S
Mn36 O52 2.297 . S
Mn36 O60 2.385 . S
Mn36 O61 2.209 . S
Mn36 O62 2.094 . S
Mn37 O42 2.121 . S
Mn37 N44 2.257 . S
Mn37 N53 2.282 . S
Mn37 O61 2.215 . S
Mn37 O63 2.117 . S
C38 O60 1.234 . S
C38 O61 1.283 . S
C39 O51 1.281 . S
C39 O52 1.236 . S
C40 O62 1.240 . S
C40 O63 1.264 . S
O41 Mn36 2.095 . S
O41 C50 1.250 . S
O42 Mn37 2.121 . S
O42 C50 1.258 . S
C43 N44 1.326 . S
C43 C47 1.460 . S
C43 H49 0.929 . S
N44 Mn37 2.257 . S
N44 C43 1.326 . S
N44 C48 1.362 . S
C45 C46 1.258 . S
C45 C48 1.431 . S
C45 C65 1.449 . S
C46 C45 1.258 . S
C46 C47 1.477 . S
C46 H66 0.931 . S
C47 C43 1.460 . S
C47 C46 1.477 . S
C47 H67 0.930 . S
C48 N44 1.362 . S
C48 C45 1.431 . S
C48 C58 1.476 . S
H49 C43 0.929 . S
C50 O41 1.250 . S
C50 O42 1.258 . S
O51 Mn36 2.162 . S
O51 C39 1.281 . S
O52 Mn36 2.297 . S
O52 C39 1.236 . S
N53 Mn37 2.282 . S
N53 C54 1.328 . S
N53 C58 1.318 . S
C54 N53 1.328 . S
C54 C55 1.457 . S
C54 H59 0.929 . S
C55 C54 1.457 . S
C55 C56 1.291 . S
C55 H68 0.931 . S
C56 C55 1.291 . S
C56 C57 1.373 . S
C56 H69 0.929 . S
C57 C56 1.373 . S
C57 C58 1.396 . S
C57 C64 1.403 . S
C58 C48 1.476 . S
C58 N53 1.318 . S
C58 C57 1.396 . S
H59 C54 0.929 . S
O60 Mn36 2.385 . S
O60 C38 1.234 . S
O61 Mn36 2.209 . S
O61 Mn37 2.215 . S
O61 C38 1.283 . S
O62 Mn36 2.094 . S
O62 C40 1.240 . S
O63 Mn37 2.117 . S
O63 C40 1.264 . S
C64 C57 1.403 . S
C64 C65 1.399 . S
C64 H70 0.929 . S
C65 C45 1.449 . S
C65 C64 1.399 . S
C65 H71 0.930 . S
H66 C46 0.931 . S
H67 C47 0.930 . S
H68 C55 0.931 . S
H69 C56 0.929 . S
H70 C64 0.929 . S
H71 C65 0.930 . S
Mn72 O77 2.095 . S
Mn72 O87 2.162 . S
Mn72 O88 2.297 . S
Mn72 O96 2.385 . S
Mn72 O97 2.209 . S
Mn72 O98 2.094 . S
Mn73 O78 2.121 . S
Mn73 N80 2.257 . S
Mn73 N89 2.282 . S
Mn73 O97 2.215 . S
Mn73 O99 2.117 . S
C74 O96 1.234 . S
C74 O97 1.283 . S
C75 O87 1.281 . S
C75 O88 1.236 . S
C76 O98 1.240 . S
C76 O99 1.264 . S
O77 Mn72 2.095 . S
O77 C86 1.250 . S
O78 Mn73 2.121 . S
O78 C86 1.258 . S
C79 N80 1.326 . S
C79 C83 1.460 . S
C79 H85 0.929 . S
N80 Mn73 2.257 . S
N80 C79 1.326 . S
N80 C84 1.362 . S
C81 C82 1.258 . S
C81 C84 1.431 . S
C81 C101 1.449 . S
C82 C81 1.258 . S
C82 C83 1.477 . S
C82 H102 0.931 . S
C83 C79 1.460 . S
C83 C82 1.477 . S
C83 H103 0.930 . S
C84 N80 1.362 . S
C84 C81 1.431 . S
C84 C94 1.476 . S
H85 C79 0.929 . S
C86 O77 1.250 . S
C86 O78 1.258 . S
O87 Mn72 2.162 . S
O87 C75 1.281 . S
O88 Mn72 2.297 . S
O88 C75 1.236 . S
N89 Mn73 2.282 . S
N89 C90 1.328 . S
N89 C94 1.318 . S
C90 N89 1.328 . S
C90 C91 1.457 . S
C90 H95 0.929 . S
C91 C90 1.457 . S
C91 C92 1.291 . S
C91 H104 0.931 . S
C92 C91 1.291 . S
C92 C93 1.373 . S
C92 H105 0.929 . S
C93 C92 1.373 . S
C93 C94 1.396 . S
C93 C100 1.403 . S
C94 C84 1.476 . S
C94 N89 1.318 . S
C94 C93 1.396 . S
H95 C90 0.929 . S
O96 Mn72 2.385 . S
O96 C74 1.234 . S
O97 Mn72 2.209 . S
O97 Mn73 2.215 . S
O97 C74 1.283 . S
O98 Mn72 2.094 . S
O98 C76 1.240 . S
O99 Mn73 2.117 . S
O99 C76 1.264 . S
C100 C93 1.403 . S
C100 C101 1.399 . S
C100 H106 0.929 . S
C101 C81 1.449 . S
C101 C100 1.399 . S
C101 H107 0.930 . S
H102 C82 0.931 . S
H103 C83 0.930 . S
H104 C91 0.931 . S
H105 C92 0.929 . S
H106 C100 0.929 . S
H107 C101 0.930 . S
Mn108 O113 2.095 . S
Mn108 O123 2.162 . S
Mn108 O124 2.297 . S
Mn108 O132 2.385 . S
Mn108 O133 2.209 . S
Mn108 O134 2.094 . S
Mn109 O114 2.121 . S
Mn109 N116 2.257 1_455 S
Mn109 N125 2.282 . S
Mn109 O133 2.215 . S
Mn109 O135 2.117 . S
C110 O132 1.234 . S
C110 O133 1.283 . S
C111 O123 1.281 . S
C111 O124 1.236 . S
C112 O134 1.240 . S
C112 O135 1.264 . S
O113 Mn108 2.095 . S
O113 C122 1.250 . S
O114 Mn109 2.121 . S
O114 C122 1.258 . S
C115 N116 1.326 . S
C115 C119 1.460 . S
C115 H121 0.929 . S
N116 Mn109 2.257 1_655 S
N116 C115 1.326 . S
N116 C120 1.362 . S
C117 C118 1.258 . S
C117 C120 1.431 . S
C117 C137 1.449 . S
C118 C117 1.258 . S
C118 C119 1.477 . S
C118 H138 0.931 . S
C119 C115 1.460 . S
C119 C118 1.477 . S
C119 H139 0.930 . S
C120 N116 1.362 . S
C120 C117 1.431 . S
C120 C130 1.476 . S
H121 C115 0.929 . S
C122 O113 1.250 . S
C122 O114 1.258 . S
O123 Mn108 2.162 . S
O123 C111 1.281 . S
O124 Mn108 2.297 . S
O124 C111 1.236 . S
N125 Mn109 2.282 . S
N125 C126 1.328 . S
N125 C130 1.318 1_455 S
C126 N125 1.328 . S
C126 C127 1.457 . S
C126 H131 0.929 . S
C127 C126 1.457 . S
C127 C128 1.291 1_455 S
C127 H140 0.931 . S
C128 C127 1.291 1_655 S
C128 C129 1.373 . S
C128 H141 0.929 . S
C129 C128 1.373 . S
C129 C130 1.396 . S
C129 C136 1.403 . S
C130 C120 1.476 . S
C130 N125 1.318 1_655 S
C130 C129 1.396 . S
H131 C126 0.929 . S
O132 Mn108 2.385 . S
O132 C110 1.234 . S
O133 Mn108 2.209 . S
O133 Mn109 2.215 . S
O133 C110 1.283 . S
O134 Mn108 2.094 . S
O134 C112 1.240 . S
O135 Mn109 2.117 . S
O135 C112 1.264 . S
C136 C129 1.403 . S
C136 C137 1.399 . S
C136 H142 0.929 . S
C137 C117 1.449 . S
C137 C136 1.399 . S
C137 H143 0.930 . S
H138 C118 0.931 . S
H139 C119 0.930 . S
H140 C127 0.931 . S
H141 C128 0.929 . S
H142 C136 0.929 . S
H143 C137 0.930 . S
Mn144 O149 2.095 . S
Mn144 O159 2.162 . S
Mn144 O160 2.297 . S
Mn144 O168 2.385 . S
Mn144 O169 2.209 . S
Mn144 O170 2.094 . S
Mn145 O150 2.121 . S
Mn145 N152 2.257 . S
Mn145 N161 2.282 . S
Mn145 O169 2.215 . S
Mn145 O171 2.117 . S
C146 O168 1.234 . S
C146 O169 1.283 . S
C147 O159 1.281 . S
C147 O160 1.236 . S
C148 O170 1.240 . S
C148 O171 1.264 . S
O149 Mn144 2.095 . S
O149 C158 1.250 . S
O150 Mn145 2.121 . S
O150 C158 1.258 . S
C151 N152 1.326 . S
C151 C155 1.460 . S
C151 H157 0.929 . S
N152 Mn145 2.257 . S
N152 C151 1.326 . S
N152 C156 1.362 . S
C153 C154 1.258 . S
C153 C156 1.431 . S
C153 C173 1.449 . S
C154 C153 1.258 . S
C154 C155 1.477 . S
C154 H174 0.931 . S
C155 C151 1.460 . S
C155 C154 1.477 . S
C155 H175 0.930 . S
C156 N152 1.362 . S
C156 C153 1.431 . S
C156 C166 1.476 . S
H157 C151 0.929 . S
C158 O149 1.250 . S
C158 O150 1.258 . S
O159 Mn144 2.162 . S
O159 C147 1.281 . S
O160 Mn144 2.297 . S
O160 C147 1.236 . S
N161 Mn145 2.282 . S
N161 C162 1.328 . S
N161 C166 1.318 . S
C162 N161 1.328 . S
C162 C163 1.457 . S
C162 H167 0.929 . S
C163 C162 1.457 . S
C163 C164 1.291 . S
C163 H176 0.931 . S
C164 C163 1.291 . S
C164 C165 1.373 . S
C164 H177 0.929 . S
C165 C164 1.373 . S
C165 C166 1.396 . S
C165 C172 1.403 . S
C166 C156 1.476 . S
C166 N161 1.318 . S
C166 C165 1.396 . S
H167 C162 0.929 . S
O168 Mn144 2.385 . S
O168 C146 1.234 . S
O169 Mn144 2.209 . S
O169 Mn145 2.215 . S
O169 C146 1.283 . S
O170 Mn144 2.094 . S
O170 C148 1.240 . S
O171 Mn145 2.117 . S
O171 C148 1.264 . S
C172 C165 1.403 . S
C172 C173 1.399 . S
C172 H178 0.929 . S
C173 C153 1.449 . S
C173 C172 1.399 . S
C173 H179 0.930 . S
H174 C154 0.931 . S
H175 C155 0.930 . S
H176 C163 0.931 . S
H177 C164 0.929 . S
H178 C172 0.929 . S
H179 C173 0.930 . S
Mn180 O185 2.095 . S
Mn180 O195 2.162 . S
Mn180 O196 2.297 . S
Mn180 O204 2.385 . S
Mn180 O205 2.209 . S
Mn180 O206 2.094 . S
Mn181 O186 2.121 . S
Mn181 N188 2.213 1_545 S
Mn181 N197 2.282 . S
Mn181 O205 2.215 . S
Mn181 O207 2.117 . S
C182 O204 1.234 . S
C182 O205 1.283 . S
C183 O195 1.281 . S
C183 O196 1.236 . S
C184 O206 1.240 . S
C184 O207 1.264 . S
O185 Mn180 2.095 . S
O185 C194 1.250 . S
O186 Mn181 2.121 . S
O186 C194 1.258 . S
C187 N188 1.353 . S
C187 C191 1.460 . S
C187 H193 0.936 . S
N188 Mn181 2.213 1_565 S
N188 C187 1.353 . S
N188 C192 1.386 . S
C189 C190 1.258 . S
C189 C192 1.431 . S
C189 C209 1.449 . S
C190 C189 1.258 . S
C190 C191 1.477 . S
C190 H210 0.931 . S
C191 C187 1.460 . S
C191 C190 1.477 . S
C191 H211 0.930 . S
C192 N188 1.386 . S
C192 C189 1.431 . S
C192 C202 1.476 . S
H193 C187 0.936 . S
C194 O185 1.250 . S
C194 O186 1.258 . S
O195 Mn180 2.162 . S
O195 C183 1.281 . S
O196 Mn180 2.297 . S
O196 C183 1.236 . S
N197 Mn181 2.282 . S
N197 C198 1.328 . S
N197 C202 1.318 1_545 S
C198 N197 1.328 . S
C198 C199 1.457 . S
C198 H203 0.929 . S
C199 C198 1.457 . S
C199 C200 1.291 1_545 S
C199 H212 0.931 1_556 S
C200 C199 1.291 1_565 S
C200 C201 1.373 . S
C200 H213 0.929 . S
C201 C200 1.373 . S
C201 C202 1.396 . S
C201 C208 1.403 . S
C202 C192 1.476 . S
C202 N197 1.318 1_565 S
C202 C201 1.396 . S
H203 C198 0.929 . S
O204 Mn180 2.385 . S
O204 C182 1.234 . S
O205 Mn180 2.209 . S
O205 Mn181 2.215 . S
O205 C182 1.283 . S
O206 Mn180 2.094 . S
O206 C184 1.240 . S
O207 Mn181 2.117 . S
O207 C184 1.264 . S
C208 C201 1.403 . S
C208 C209 1.399 . S
C208 H214 0.929 . S
C209 C189 1.449 . S
C209 C208 1.399 . S
C209 H215 0.930 . S
H210 C190 0.931 . S
H211 C191 0.930 . S
H212 C199 0.931 1_554 S
H213 C200 0.929 . S
H214 C208 0.929 . S
H215 C209 0.930 . S
Mn216 O221 2.095 . S
Mn216 O231 2.162 . S
Mn216 O232 2.297 . S
Mn216 O240 2.385 . S
Mn216 O241 2.209 . S
Mn216 O242 2.094 . S
Mn217 O222 2.121 . S
Mn217 N224 2.257 . S
Mn217 N233 2.282 . S
Mn217 O241 2.215 . S
Mn217 O243 2.117 . S
C218 O240 1.234 . S
C218 O241 1.283 . S
C219 O231 1.266 1_545 S
C219 O232 1.234 1_545 S
C220 O242 1.240 . S
C220 O243 1.264 . S
O221 Mn216 2.095 . S
O221 C230 1.250 . S
O222 Mn217 2.121 . S
O222 C230 1.258 . S
C223 N224 1.326 . S
C223 C227 1.460 . S
C223 H229 0.929 . S
N224 Mn217 2.257 . S
N224 C223 1.326 . S
N224 C228 1.362 . S
C225 C226 1.258 . S
C225 C228 1.431 . S
C225 C245 1.449 . S
C226 C225 1.258 . S
C226 C227 1.477 . S
C226 H246 0.931 . S
C227 C223 1.460 . S
C227 C226 1.477 . S
C227 H247 0.930 . S
C228 N224 1.362 . S
C228 C225 1.431 . S
C228 C238 1.476 . S
H229 C223 0.929 . S
C230 O221 1.250 . S
C230 O222 1.258 . S
O231 Mn216 2.162 . S
O231 C219 1.266 1_565 S
O232 Mn216 2.297 . S
O232 C219 1.234 1_565 S
N233 Mn217 2.282 . S
N233 C234 1.328 . S
N233 C238 1.318 . S
C234 N233 1.328 . S
C234 C235 1.457 . S
C234 H239 0.929 . S
C235 C234 1.457 . S
C235 C236 1.291 . S
C235 H248 0.931 . S
C236 C235 1.291 . S
C236 C237 1.373 . S
C236 H249 0.929 . S
C237 C236 1.373 . S
C237 C238 1.396 . S
C237 C244 1.403 . S
C238 C228 1.476 . S
C238 N233 1.318 . S
C238 C237 1.396 . S
H239 C234 0.929 . S
O240 Mn216 2.385 . S
O240 C218 1.234 . S
O241 Mn216 2.209 . S
O241 Mn217 2.215 . S
O241 C218 1.283 . S
O242 Mn216 2.094 . S
O242 C220 1.240 . S
O243 Mn217 2.117 . S
O243 C220 1.264 . S
C244 C237 1.403 . S
C244 C245 1.399 . S
C244 H250 0.929 . S
C245 C225 1.449 . S
C245 C244 1.399 . S
C245 H251 0.930 . S
H246 C226 0.931 . S
H247 C227 0.930 . S
H248 C235 0.931 . S
H249 C236 0.929 . S
H250 C244 0.929 . S
H251 C245 0.930 . S
Mn252 O257 2.095 . S
Mn252 O267 2.162 . S
Mn252 O268 2.297 . S
Mn252 O276 2.385 . S
Mn252 O277 2.209 . S
Mn252 O278 2.094 . S
Mn253 O258 2.121 . S
Mn253 N260 2.257 . S
Mn253 N269 2.282 . S
Mn253 O277 2.215 . S
Mn253 O279 2.117 . S
C254 O276 1.234 . S
C254 O277 1.283 . S
C255 O267 1.281 . S
C255 O268 1.236 . S
C256 O278 1.240 . S
C256 O279 1.264 . S
O257 Mn252 2.095 . S
O257 C266 1.250 . S
O258 Mn253 2.121 . S
O258 C266 1.258 . S
C259 N260 1.326 . S
C259 C263 1.460 . S
C259 H265 0.929 . S
N260 Mn253 2.257 . S
N260 C259 1.326 . S
N260 C264 1.362 . S
C261 C262 1.258 . S
C261 C264 1.431 . S
C261 C281 1.449 . S
C262 C261 1.258 . S
C262 C263 1.477 . S
C262 H282 0.931 . S
C263 C259 1.460 . S
C263 C262 1.477 . S
C263 H283 0.930 . S
C264 N260 1.362 . S
C264 C261 1.431 . S
C264 C274 1.476 . S
H265 C259 0.929 . S
C266 O257 1.250 . S
C266 O258 1.258 . S
O267 Mn252 2.162 . S
O267 C255 1.281 . S
O268 Mn252 2.297 . S
O268 C255 1.236 . S
N269 Mn253 2.282 . S
N269 C270 1.328 . S
N269 C274 1.318 . S
C270 N269 1.328 . S
C270 C271 1.457 . S
C270 H275 0.929 . S
C271 C270 1.457 . S
C271 C272 1.291 . S
C271 H284 0.931 . S
C272 C271 1.291 . S
C272 C273 1.373 . S
C272 H285 0.929 . S
C273 C272 1.373 . S
C273 C274 1.396 . S
C273 C280 1.403 . S
C274 C264 1.476 . S
C274 N269 1.318 . S
C274 C273 1.396 . S
H275 C270 0.929 . S
O276 Mn252 2.385 . S
O276 C254 1.234 . S
O277 Mn252 2.209 . S
O277 Mn253 2.215 . S
O277 C254 1.283 . S
O278 Mn252 2.094 . S
O278 C256 1.240 . S
O279 Mn253 2.117 . S
O279 C256 1.264 . S
C280 C273 1.403 . S
C280 C281 1.399 . S
C280 H286 0.929 . S
C281 C261 1.449 . S
C281 C280 1.399 . S
C281 H287 0.930 . S
H282 C262 0.931 . S
H283 C263 0.930 . S
H284 C271 0.931 . S
H285 C272 0.929 . S
H286 C280 0.929 . S
H287 C281 0.930 . S
Mn288 O293 2.095 . S
Mn288 O303 2.162 . S
Mn288 O304 2.297 . S
Mn288 O312 2.385 . S
Mn288 O313 2.209 . S
Mn288 O314 2.094 . S
Mn289 O294 2.121 . S
Mn289 N296 2.257 . S
Mn289 N305 2.282 . S
Mn289 O313 2.215 . S
Mn289 O315 2.117 . S
C290 O312 1.234 . S
C290 O313 1.283 . S
C291 O303 1.281 . S
C291 O304 1.236 . S
C292 O314 1.240 . S
C292 O315 1.264 . S
O293 Mn288 2.095 . S
O293 C302 1.250 . S
O294 Mn289 2.121 . S
O294 C302 1.258 . S
C295 N296 1.326 . S
C295 C299 1.460 . S
C295 H301 0.929 . S
N296 Mn289 2.257 . S
N296 C295 1.326 . S
N296 C300 1.362 . S
C297 C298 1.258 . S
C297 C300 1.431 . S
C297 C317 1.449 . S
C298 C297 1.258 . S
C298 C299 1.477 . S
C298 H318 0.931 . S
C299 C295 1.460 . S
C299 C298 1.477 . S
C299 H319 0.930 . S
C300 N296 1.362 . S
C300 C297 1.431 . S
C300 C310 1.476 . S
H301 C295 0.929 . S
C302 O293 1.250 . S
C302 O294 1.258 . S
O303 Mn288 2.162 . S
O303 C291 1.281 . S
O304 Mn288 2.297 . S
O304 C291 1.236 . S
N305 Mn289 2.282 . S
N305 C306 1.328 . S
N305 C310 1.318 . S
C306 N305 1.328 . S
C306 C307 1.457 . S
C306 H311 0.929 . S
C307 C306 1.457 . S
C307 C308 1.291 . S
C307 H320 0.931 . S
C308 C307 1.291 . S
C308 C309 1.373 . S
C308 H321 0.929 . S
C309 C308 1.373 . S
C309 C310 1.396 . S
C309 C316 1.403 . S
C310 C300 1.476 . S
C310 N305 1.318 . S
C310 C309 1.396 . S
H311 C306 0.929 . S
O312 Mn288 2.385 . S
O312 C290 1.234 . S
O313 Mn288 2.209 . S
O313 Mn289 2.215 . S
O313 C290 1.283 . S
O314 Mn288 2.094 . S
O314 C292 1.240 . S
O315 Mn289 2.117 . S
O315 C292 1.264 . S
C316 C309 1.403 . S
C316 C317 1.399 . S
C316 H322 0.929 . S
C317 C297 1.449 . S
C317 C316 1.399 . S
C317 H323 0.930 . S
H318 C298 0.931 . S
H319 C299 0.930 . S
H320 C307 0.931 . S
H321 C308 0.929 . S
H322 C316 0.929 . S
H323 C317 0.930 . S
Mn324 O329 2.095 . S
Mn324 O339 2.162 . S
Mn324 O340 2.297 . S
Mn324 O348 2.385 . S
Mn324 O349 2.209 . S
Mn324 O350 2.094 . S
Mn325 O330 2.121 . S
Mn325 N332 2.257 . S
Mn325 N341 2.282 . S
Mn325 O349 2.215 . S
Mn325 O351 2.117 . S
C326 O348 1.234 . S
C326 O349 1.283 . S
C327 O339 1.281 . S
C327 O340 1.236 . S
C328 O350 1.240 . S
C328 O351 1.264 . S
O329 Mn324 2.095 . S
O329 C338 1.250 1_554 S
O330 Mn325 2.121 . S
O330 C338 1.258 1_554 S
C331 N332 1.326 . S
C331 C335 1.460 . S
C331 H337 0.929 1_554 S
N332 Mn325 2.257 . S
N332 C331 1.326 . S
N332 C336 1.362 . S
C333 C334 1.258 . S
C333 C336 1.431 . S
C333 C353 1.449 . S
C334 C333 1.258 . S
C334 C335 1.477 . S
C334 H354 0.931 . S
C335 C331 1.460 . S
C335 C334 1.477 . S
C335 H355 0.930 1_554 S
C336 N332 1.362 . S
C336 C333 1.431 . S
C336 C346 1.476 . S
H337 C331 0.929 1_556 S
C338 O329 1.250 1_556 S
C338 O330 1.258 1_556 S
O339 Mn324 2.162 . S
O339 C327 1.281 . S
O340 Mn324 2.297 . S
O340 C327 1.236 . S
N341 Mn325 2.282 . S
N341 C342 1.328 . S
N341 C346 1.318 . S
C342 N341 1.328 . S
C342 C343 1.457 . S
C342 H347 0.929 . S
C343 C342 1.457 . S
C343 C344 1.291 . S
C343 H356 0.931 . S
C344 C343 1.291 . S
C344 C345 1.373 . S
C344 H357 0.929 . S
C345 C344 1.373 . S
C345 C346 1.396 . S
C345 C352 1.403 . S
C346 C336 1.476 . S
C346 N341 1.318 . S
C346 C345 1.396 . S
H347 C342 0.929 . S
O348 Mn324 2.385 . S
O348 C326 1.234 . S
O349 Mn324 2.209 . S
O349 Mn325 2.215 . S
O349 C326 1.283 . S
O350 Mn324 2.094 . S
O350 C328 1.240 . S
O351 Mn325 2.117 . S
O351 C328 1.264 . S
C352 C345 1.403 . S
C352 C353 1.399 . S
C352 H358 0.929 . S
C353 C333 1.449 . S
C353 C352 1.399 . S
C353 H359 0.930 . S
H354 C334 0.931 . S
H355 C335 0.930 1_556 S
H356 C343 0.931 . S
H357 C344 0.929 . S
H358 C352 0.929 . S
H359 C353 0.930 . S
Mn360 O365 2.095 . S
Mn360 O375 2.162 . S
Mn360 O376 2.297 . S
Mn360 O384 2.385 . S
Mn360 O385 2.209 . S
Mn360 O386 2.094 . S
Mn361 O366 2.121 . S
Mn361 N368 2.257 . S
Mn361 N377 2.282 . S
Mn361 O385 2.215 . S
Mn361 O387 2.117 . S
C362 O384 1.272 . S
C362 O385 1.302 . S
C363 O375 1.281 . S
C363 O376 1.236 . S
C364 O386 1.240 . S
C364 O387 1.264 . S
O365 Mn360 2.095 . S
O365 C374 1.250 . S
O366 Mn361 2.121 . S
O366 C374 1.258 . S
C367 N368 1.326 . S
C367 C371 1.460 1_565 S
C367 H373 0.929 . S
N368 Mn361 2.257 . S
N368 C367 1.326 . S
N368 C372 1.357 1_565 S
C369 C370 1.258 . S
C369 C372 1.438 . S
C369 C389 1.449 . S
C370 C369 1.258 . S
C370 C371 1.477 . S
C370 H390 0.931 . S
C371 C367 1.460 1_545 S
C371 C370 1.477 . S
C371 H391 0.930 1_554 S
C372 N368 1.357 1_545 S
C372 C369 1.438 . S
C372 C382 1.474 1_545 S
H373 C367 0.929 . S
C374 O365 1.250 . S
C374 O366 1.258 . S
O375 Mn360 2.162 . S
O375 C363 1.281 . S
O376 Mn360 2.297 . S
O376 C363 1.236 . S
N377 Mn361 2.282 . S
N377 C378 1.328 . S
N377 C382 1.318 . S
C378 N377 1.328 . S
C378 C379 1.457 . S
C378 H383 0.929 . S
C379 C378 1.457 . S
C379 C380 1.291 1_565 S
C379 H392 0.931 . S
C380 C379 1.291 1_545 S
C380 C381 1.373 . S
C380 H393 0.929 . S
C381 C380 1.373 . S
C381 C382 1.396 1_545 S
C381 C388 1.403 . S
C382 C372 1.474 1_565 S
C382 N377 1.318 . S
C382 C381 1.396 1_565 S
H383 C378 0.929 . S
O384 Mn360 2.385 . S
O384 C362 1.272 . S
O385 Mn360 2.209 . S
O385 Mn361 2.215 . S
O385 C362 1.302 . S
O386 Mn360 2.094 . S
O386 C364 1.240 . S
O387 Mn361 2.117 . S
O387 C364 1.264 . S
C388 C381 1.403 . S
C388 C389 1.399 . S
C388 H394 0.929 . S
C389 C369 1.449 . S
C389 C388 1.399 . S
C389 H395 0.930 . S
H390 C370 0.931 . S
H391 C371 0.930 1_556 S
H392 C379 0.931 . S
H393 C380 0.929 . S
H394 C388 0.929 . S
H395 C389 0.930 . S
Mn396 O401 2.095 . S
Mn396 O411 2.162 . S
Mn396 O412 2.297 . S
Mn396 O420 2.385 . S
Mn396 O421 2.209 . S
Mn396 O422 2.094 . S
Mn397 O402 2.121 . S
Mn397 N404 2.257 . S
Mn397 N413 2.282 . S
Mn397 O421 2.215 . S
Mn397 O423 2.117 . S
C398 O420 1.234 . S
C398 O421 1.283 . S
C399 O411 1.281 . S
C399 O412 1.236 . S
C400 O422 1.240 . S
C400 O423 1.264 . S
O401 Mn396 2.095 . S
O401 C410 1.250 . S
O402 Mn397 2.121 . S
O402 C410 1.258 . S
C403 N404 1.326 . S
C403 C407 1.460 . S
C403 H409 0.929 . S
N404 Mn397 2.257 . S
N404 C403 1.326 . S
N404 C408 1.362 . S
C405 C406 1.258 . S
C405 C408 1.431 . S
C405 C425 1.449 . S
C406 C405 1.258 . S
C406 C407 1.477 . S
C406 H426 0.931 . S
C407 C403 1.460 . S
C407 C406 1.477 . S
C407 H427 0.930 . S
C408 N404 1.362 . S
C408 C405 1.431 . S
C408 C418 1.476 . S
H409 C403 0.929 . S
C410 O401 1.250 . S
C410 O402 1.258 . S
O411 Mn396 2.162 . S
O411 C399 1.281 . S
O412 Mn396 2.297 . S
O412 C399 1.236 . S
N413 Mn397 2.282 . S
N413 C414 1.328 . S
N413 C418 1.318 . S
C414 N413 1.328 . S
C414 C415 1.457 . S
C414 H419 0.929 . S
C415 C414 1.457 . S
C415 C416 1.291 . S
C415 H428 0.931 . S
C416 C415 1.291 . S
C416 C417 1.373 . S
C416 H429 0.929 . S
C417 C416 1.373 . S
C417 C418 1.396 . S
C417 C424 1.403 . S
C418 C408 1.476 . S
C418 N413 1.318 . S
C418 C417 1.396 . S
H419 C414 0.929 . S
O420 Mn396 2.385 . S
O420 C398 1.234 . S
O421 Mn396 2.209 . S
O421 Mn397 2.215 . S
O421 C398 1.283 . S
O422 Mn396 2.094 . S
O422 C400 1.240 . S
O423 Mn397 2.117 . S
O423 C400 1.264 . S
C424 C417 1.403 . S
C424 C425 1.399 . S
C424 H430 0.929 . S
C425 C405 1.449 . S
C425 C424 1.399 . S
C425 H431 0.930 . S
H426 C406 0.931 . S
H427 C407 0.930 . S
H428 C415 0.931 . S
H429 C416 0.929 . S
H430 C424 0.929 . S
H431 C425 0.930 . S
Mn432 O437 2.095 . S
Mn432 O447 2.162 . S
Mn432 O448 2.297 . S
Mn432 O456 2.385 . S
Mn432 O457 2.209 . S
Mn432 O458 2.094 . S
Mn433 O438 2.121 . S
Mn433 N440 2.257 . S
Mn433 N449 2.282 . S
Mn433 O457 2.215 . S
Mn433 O459 2.117 . S
C434 O456 1.234 . S
C434 O457 1.283 . S
C435 O447 1.281 . S
C435 O448 1.236 . S
C436 O458 1.240 . S
C436 O459 1.264 . S
O437 Mn432 2.095 . S
O437 C446 1.250 . S
O438 Mn433 2.121 . S
O438 C446 1.258 . S
C439 N440 1.326 . S
C439 C443 1.460 . S
C439 H445 0.929 . S
N440 Mn433 2.257 . S
N440 C439 1.326 . S
N440 C444 1.362 . S
C441 C442 1.258 . S
C441 C444 1.431 . S
C441 C461 1.449 . S
C442 C441 1.258 . S
C442 C443 1.477 . S
C442 H462 0.931 . S
C443 C439 1.460 . S
C443 C442 1.477 . S
C443 H463 0.930 . S
C444 N440 1.362 . S
C444 C441 1.431 . S
C444 C454 1.476 . S
H445 C439 0.929 . S
C446 O437 1.250 . S
C446 O438 1.258 . S
O447 Mn432 2.162 . S
O447 C435 1.281 . S
O448 Mn432 2.297 . S
O448 C435 1.236 . S
N449 Mn433 2.282 . S
N449 C450 1.328 . S
N449 C454 1.318 . S
C450 N449 1.328 . S
C450 C451 1.457 . S
C450 H455 0.929 . S
C451 C450 1.457 . S
C451 C452 1.291 . S
C451 H464 0.931 . S
C452 C451 1.291 . S
C452 C453 1.373 . S
C452 H465 0.929 . S
C453 C452 1.373 . S
C453 C454 1.396 . S
C453 C460 1.403 . S
C454 C444 1.476 . S
C454 N449 1.318 . S
C454 C453 1.396 . S
H455 C450 0.929 . S
O456 Mn432 2.385 . S
O456 C434 1.234 . S
O457 Mn432 2.209 . S
O457 Mn433 2.215 . S
O457 C434 1.283 . S
O458 Mn432 2.094 . S
O458 C436 1.240 . S
O459 Mn433 2.117 . S
O459 C436 1.264 . S
C460 C453 1.403 . S
C460 C461 1.399 . S
C460 H466 0.929 . S
C461 C441 1.449 . S
C461 C460 1.399 . S
C461 H467 0.930 . S
H462 C442 0.931 . S
H463 C443 0.930 . S
H464 C451 0.931 . S
H465 C452 0.929 . S
H466 C460 0.929 . S
H467 C461 0.930 . S
Mn468 O473 2.095 . S
Mn468 O483 2.162 . S
Mn468 O484 2.297 . S
Mn468 O492 2.385 1_556 S
Mn468 O493 2.209 . S
Mn468 O494 2.094 1_556 S
Mn469 O474 2.121 . S
Mn469 N476 2.257 . S
Mn469 N485 2.282 1_556 S
Mn469 O493 2.215 . S
Mn469 O495 2.117 1_556 S
C470 O492 1.234 1_556 S
C470 O493 1.283 . S
C471 O483 1.281 . S
C471 O484 1.236 . S
C472 O494 1.240 . S
C472 O495 1.264 . S
O473 Mn468 2.095 . S
O473 C482 1.250 . S
O474 Mn469 2.121 . S
O474 C482 1.258 . S
C475 N476 1.326 . S
C475 C479 1.460 . S
C475 H481 0.929 . S
N476 Mn469 2.257 . S
N476 C475 1.326 . S
N476 C480 1.370 . S
C477 C478 1.258 . S
C477 C480 1.433 . S
C477 C497 1.449 1_556 S
C478 C477 1.258 . S
C478 C479 1.477 . S
C478 H498 0.931 . S
C479 C475 1.460 . S
C479 C478 1.477 . S
C479 H499 0.930 . S
C480 N476 1.370 . S
C480 C477 1.433 . S
C480 C490 1.467 1_556 S
H481 C475 0.929 . S
C482 O473 1.250 . S
C482 O474 1.258 . S
O483 Mn468 2.162 . S
O483 C471 1.281 . S
O484 Mn468 2.297 . S
O484 C471 1.236 . S
N485 Mn469 2.282 1_554 S
N485 C486 1.328 . S
N485 C490 1.318 . S
C486 N485 1.328 . S
C486 C487 1.457 . S
C486 H491 0.929 . S
C487 C486 1.457 . S
C487 C488 1.291 . S
C487 H500 0.931 . S
C488 C487 1.291 . S
C488 C489 1.373 . S
C488 H501 0.929 . S
C489 C488 1.373 . S
C489 C490 1.396 . S
C489 C496 1.403 . S
C490 C480 1.467 1_554 S
C490 N485 1.318 . S
C490 C489 1.396 . S
H491 C486 0.929 . S
O492 Mn468 2.385 1_554 S
O492 C470 1.234 1_554 S
O493 Mn468 2.209 . S
O493 Mn469 2.215 . S
O493 C470 1.283 . S
O494 Mn468 2.094 1_554 S
O494 C472 1.240 . S
O495 Mn469 2.117 1_554 S
O495 C472 1.264 . S
C496 C489 1.403 . S
C496 C497 1.399 . S
C496 H502 0.929 . S
C497 C477 1.449 1_554 S
C497 C496 1.399 . S
C497 H503 0.930 . S
H498 C478 0.931 . S
H499 C479 0.930 . S
H500 C487 0.931 . S
H501 C488 0.929 . S
H502 C496 0.929 . S
H503 C497 0.930 . S
Mn504 O509 2.095 . S
Mn504 O519 2.162 . S
Mn504 O520 2.297 . S
Mn504 O528 2.385 1_655 S
Mn504 O529 2.209 1_655 S
Mn504 O530 2.094 . S
Mn505 O510 2.121 . S
Mn505 N512 2.257 1_655 S
Mn505 N521 2.282 1_655 S
Mn505 O529 2.215 1_655 S
Mn505 O531 2.117 . S
C506 O528 1.234 . S
C506 O529 1.283 . S
C507 O519 1.281 . S
C507 O520 1.236 . S
C508 O530 1.240 . S
C508 O531 1.264 . S
O509 Mn504 2.095 . S
O509 C518 1.250 . S
O510 Mn505 2.121 . S
O510 C518 1.258 . S
C511 N512 1.326 . S
C511 C515 1.460 . S
C511 H517 0.929 . S
N512 Mn505 2.257 1_455 S
N512 C511 1.326 . S
N512 C516 1.362 . S
C513 C514 1.258 . S
C513 C516 1.431 . S
C513 C533 1.449 . S
C514 C513 1.258 . S
C514 C515 1.477 . S
C514 H534 0.931 . S
C515 C511 1.460 . S
C515 C514 1.477 . S
C515 H535 0.930 1_556 S
C516 N512 1.362 . S
C516 C513 1.431 . S
C516 C526 1.476 . S
H517 C511 0.929 . S
C518 O509 1.250 . S
C518 O510 1.258 . S
O519 Mn504 2.162 . S
O519 C507 1.281 . S
O520 Mn504 2.297 . S
O520 C507 1.236 . S
N521 Mn505 2.282 1_455 S
N521 C522 1.335 1_455 S
N521 C526 1.318 . S
C522 N521 1.335 1_655 S
C522 C523 1.432 1_655 S
C522 H527 0.950 . S
C523 C522 1.432 1_455 S
C523 C524 1.291 . S
C523 H536 0.931 . S
C524 C523 1.291 . S
C524 C525 1.373 . S
C524 H537 0.929 . S
C525 C524 1.373 . S
C525 C526 1.396 . S
C525 C532 1.403 . S
C526 C516 1.476 . S
C526 N521 1.318 . S
C526 C525 1.396 . S
H527 C522 0.950 . S
O528 Mn504 2.385 1_455 S
O528 C506 1.234 . S
O529 Mn504 2.209 1_455 S
O529 Mn505 2.215 1_455 S
O529 C506 1.283 . S
O530 Mn504 2.094 . S
O530 C508 1.240 . S
O531 Mn505 2.117 . S
O531 C508 1.264 . S
C532 C525 1.403 . S
C532 C533 1.399 . S
C532 H538 0.929 . S
C533 C513 1.449 . S
C533 C532 1.399 . S
C533 H539 0.930 . S
H534 C514 0.931 . S
H535 C515 0.930 1_554 S
H536 C523 0.931 . S
H537 C524 0.929 . S
H538 C532 0.929 . S
H539 C533 0.930 . S
Mn540 O545 2.095 . S
Mn540 O555 2.162 . S
Mn540 O556 2.297 . S
Mn540 O564 2.385 . S
Mn540 O565 2.209 . S
Mn540 O566 2.094 . S
Mn541 O546 2.121 . S
Mn541 N548 2.257 . S
Mn541 N557 2.282 . S
Mn541 O565 2.215 . S
Mn541 O567 2.117 . S
C542 O564 1.234 . S
C542 O565 1.283 . S
C543 O555 1.281 . S
C543 O556 1.236 . S
C544 O566 1.240 . S
C544 O567 1.264 . S
O545 Mn540 2.095 . S
O545 C554 1.250 . S
O546 Mn541 2.121 . S
O546 C554 1.258 . S
C547 N548 1.326 . S
C547 C551 1.460 . S
C547 H553 0.929 . S
N548 Mn541 2.257 . S
N548 C547 1.326 . S
N548 C552 1.362 . S
C549 C550 1.258 . S
C549 C552 1.431 . S
C549 C569 1.449 . S
C550 C549 1.258 . S
C550 C551 1.477 . S
C550 H570 0.931 . S
C551 C547 1.460 . S
C551 C550 1.477 . S
C551 H571 0.930 . S
C552 N548 1.362 . S
C552 C549 1.431 . S
C552 C562 1.476 . S
H553 C547 0.929 . S
C554 O545 1.250 . S
C554 O546 1.258 . S
O555 Mn540 2.162 . S
O555 C543 1.281 . S
O556 Mn540 2.297 . S
O556 C543 1.236 . S
N557 Mn541 2.282 . S
N557 C558 1.328 . S
N557 C562 1.318 . S
C558 N557 1.328 . S
C558 C559 1.457 . S
C558 H563 0.929 . S
C559 C558 1.457 . S
C559 C560 1.291 . S
C559 H572 0.931 . S
C560 C559 1.291 . S
C560 C561 1.373 . S
C560 H573 0.929 . S
C561 C560 1.373 . S
C561 C562 1.396 . S
C561 C568 1.403 . S
C562 C552 1.476 . S
C562 N557 1.318 . S
C562 C561 1.396 . S
H563 C558 0.929 . S
O564 Mn540 2.385 . S
O564 C542 1.234 . S
O565 Mn540 2.209 . S
O565 Mn541 2.215 . S
O565 C542 1.283 . S
O566 Mn540 2.094 . S
O566 C544 1.240 . S
O567 Mn541 2.117 . S
O567 C544 1.264 . S
C568 C561 1.403 . S
C568 C569 1.399 . S
C568 H574 0.929 . S
C569 C549 1.449 . S
C569 C568 1.399 . S
C569 H575 0.930 . S
H570 C550 0.931 . S
H571 C551 0.930 . S
H572 C559 0.931 . S
H573 C560 0.929 . S
H574 C568 0.929 . S
H575 C569 0.930 . S
Mn576 O581 2.095 . S
Mn576 O591 2.162 1_655 S
Mn576 O592 2.297 1_655 S
Mn576 O600 2.385 1_655 S
Mn576 O601 2.209 . S
Mn576 O602 2.094 . S
Mn577 O582 2.121 . S
Mn577 N584 2.257 . S
Mn577 N593 2.282 . S
Mn577 O601 2.215 . S
Mn577 O603 2.117 . S
C578 O600 1.240 1_655 S
C578 O601 1.283 . S
C579 O591 1.281 . S
C579 O592 1.236 . S
C580 O602 1.240 . S
C580 O603 1.264 . S
O581 Mn576 2.095 . S
O581 C590 1.250 . S
O582 Mn577 2.121 . S
O582 C590 1.258 . S
C583 N584 1.326 . S
C583 C587 1.460 . S
C583 H589 0.929 . S
N584 Mn577 2.257 . S
N584 C583 1.326 . S
N584 C588 1.362 . S
C585 C586 1.258 . S
C585 C588 1.431 . S
C585 C605 1.449 . S
C586 C585 1.258 . S
C586 C587 1.477 . S
C586 H606 0.931 . S
C587 C583 1.460 . S
C587 C586 1.477 . S
C587 H607 0.930 . S
C588 N584 1.362 . S
C588 C585 1.431 . S
C588 C598 1.476 . S
H589 C583 0.929 . S
C590 O581 1.250 . S
C590 O582 1.258 . S
O591 Mn576 2.162 1_455 S
O591 C579 1.281 . S
O592 Mn576 2.297 1_455 S
O592 C579 1.236 . S
N593 Mn577 2.282 . S
N593 C594 1.328 . S
N593 C598 1.318 . S
C594 N593 1.328 . S
C594 C595 1.457 . S
C594 H599 0.929 . S
C595 C594 1.457 . S
C595 C596 1.291 . S
C595 H608 0.931 . S
C596 C595 1.291 . S
C596 C597 1.373 . S
C596 H609 0.929 . S
C597 C596 1.373 . S
C597 C598 1.396 . S
C597 C604 1.403 . S
C598 C588 1.476 . S
C598 N593 1.318 . S
C598 C597 1.396 . S
H599 C594 0.929 . S
O600 Mn576 2.385 1_455 S
O600 C578 1.240 1_455 S
O601 Mn576 2.209 . S
O601 Mn577 2.215 . S
O601 C578 1.283 . S
O602 Mn576 2.094 . S
O602 C580 1.240 . S
O603 Mn577 2.117 . S
O603 C580 1.264 . S
C604 C597 1.403 . S
C604 C605 1.399 . S
C604 H610 0.929 . S
C605 C585 1.449 . S
C605 C604 1.399 . S
C605 H611 0.930 . S
H606 C586 0.931 . S
H607 C587 0.930 . S
H608 C595 0.931 . S
H609 C596 0.929 . S
H610 C604 0.929 . S
H611 C605 0.930 . S
Mn612 O617 2.095 . S
Mn612 O627 2.162 . S
Mn612 O628 2.297 . S
Mn612 O636 2.385 . S
Mn612 O637 2.209 . S
Mn612 O638 2.094 . S
Mn613 O618 2.121 . S
Mn613 N620 2.257 . S
Mn613 N629 2.282 . S
Mn613 O637 2.215 . S
Mn613 O639 2.117 . S
C614 O636 1.234 . S
C614 O637 1.283 . S
C615 O627 1.281 . S
C615 O628 1.236 . S
C616 O638 1.240 . S
C616 O639 1.264 . S
O617 Mn612 2.095 . S
O617 C626 1.250 . S
O618 Mn613 2.121 . S
O618 C626 1.258 . S
C619 N620 1.326 . S
C619 C623 1.460 . S
C619 H625 0.929 . S
N620 Mn613 2.257 . S
N620 C619 1.326 . S
N620 C624 1.362 . S
C621 C622 1.258 . S
C621 C624 1.431 . S
C621 C641 1.449 . S
C622 C621 1.258 . S
C622 C623 1.477 . S
C622 H642 0.931 . S
C623 C619 1.460 . S
C623 C622 1.477 . S
C623 H643 0.930 . S
C624 N620 1.362 . S
C624 C621 1.431 . S
C624 C634 1.476 . S
H625 C619 0.929 . S
C626 O617 1.250 . S
C626 O618 1.258 . S
O627 Mn612 2.162 . S
O627 C615 1.281 . S
O628 Mn612 2.297 . S
O628 C615 1.236 . S
N629 Mn613 2.282 . S
N629 C630 1.328 . S
N629 C634 1.318 . S
C630 N629 1.328 . S
C630 C631 1.457 . S
C630 H635 0.929 . S
C631 C630 1.457 . S
C631 C632 1.291 . S
C631 H644 0.931 . S
C632 C631 1.291 . S
C632 C633 1.373 . S
C632 H645 0.929 . S
C633 C632 1.373 . S
C633 C634 1.396 . S
C633 C640 1.403 . S
C634 C624 1.476 . S
C634 N629 1.318 . S
C634 C633 1.396 . S
H635 C630 0.929 . S
O636 Mn612 2.385 . S
O636 C614 1.234 . S
O637 Mn612 2.209 . S
O637 Mn613 2.215 . S
O637 C614 1.283 . S
O638 Mn612 2.094 . S
O638 C616 1.240 . S
O639 Mn613 2.117 . S
O639 C616 1.264 . S
C640 C633 1.403 . S
C640 C641 1.399 . S
C640 H646 0.929 . S
C641 C621 1.449 . S
C641 C640 1.399 . S
C641 H647 0.930 . S
H642 C622 0.931 . S
H643 C623 0.930 . S
H644 C631 0.931 . S
H645 C632 0.929 . S
H646 C640 0.929 . S
H647 C641 0.930 . S
H648 C656 0.950 . S
H649 C661 0.950 . S
H650 C658 0.950 . S
H651 C660 0.950 . S
H652 C662 0.950 . S
H653 C664 0.950 . S
H654 C666 0.950 1_556 S
H655 C667 0.950 . S
C656 H648 0.950 . S
C656 C657 1.386 . S
C656 C658 1.391 . S
C657 C656 1.386 . S
C657 C661 1.393 . S
C658 H650 0.950 . S
C658 C656 1.391 . S
C658 C659 1.400 . S
C659 C658 1.400 . S
C659 C660 1.398 . S
C659 C665 1.491 1_556 S
C660 H651 0.950 . S
C660 C659 1.398 . S
C660 C661 1.391 . S
C661 H649 0.950 . S
C661 C657 1.393 . S
C661 C660 1.391 . S
C662 H652 0.950 . S
C662 C663 1.386 . S
C662 C664 1.391 . S
C663 C662 1.386 . S
C663 C667 1.393 . S
C664 H653 0.950 . S
C664 C662 1.391 . S
C664 C665 1.400 . S
C665 C659 1.491 1_554 S
C665 C664 1.400 . S
C665 C666 1.398 . S
C666 H654 0.950 1_554 S
C666 C665 1.398 . S
C666 C667 1.391 . S
C667 H655 0.950 . S
C667 C663 1.393 . S
C667 C666 1.391 . S
H668 C676 0.950 . S
H669 C681 0.950 . S
H670 C678 0.950 1_554 S
H671 C680 0.950 . S
H672 C682 0.950 . S
H673 C684 0.950 1_556 S
H674 C686 0.950 . S
H675 C687 0.950 . S
C676 H668 0.950 . S
C676 C677 1.386 . S
C676 C678 1.391 . S
C677 C676 1.386 . S
C677 C681 1.393 . S
C678 H670 0.950 1_556 S
C678 C676 1.391 . S
C678 C679 1.400 . S
C679 C678 1.400 . S
C679 C680 1.398 . S
C679 C685 1.491 1_556 S
C680 H671 0.950 . S
C680 C679 1.398 . S
C680 C681 1.391 . S
C681 H669 0.950 . S
C681 C677 1.393 . S
C681 C680 1.391 . S
C682 H672 0.950 . S
C682 C683 1.386 . S
C682 C684 1.391 . S
C683 C682 1.386 . S
C683 C687 1.393 . S
C684 H673 0.950 1_554 S
C684 C682 1.391 . S
C684 C685 1.400 . S
C685 C679 1.491 1_554 S
C685 C684 1.400 . S
C685 C686 1.398 . S
C686 H674 0.950 . S
C686 C685 1.398 . S
C686 C687 1.391 . S
C687 H675 0.950 . S
C687 C683 1.393 . S
C687 C686 1.391 . S
H688 C696 0.950 . S
H689 C701 0.950 . S
H690 C698 0.950 . S
H691 C700 0.950 1_556 S
H692 C702 0.950 . S
H693 C704 0.950 . S
H694 C706 0.950 1_554 S
H695 C707 0.950 . S
C696 H688 0.950 . S
C696 C697 1.386 . S
C696 C698 1.391 . S
C697 C696 1.386 . S
C697 C701 1.393 . S
C698 H690 0.950 . S
C698 C696 1.391 . S
C698 C699 1.400 . S
C699 C698 1.400 . S
C699 C700 1.398 . S
C699 C705 1.491 1_554 S
C700 H691 0.950 1_554 S
C700 C699 1.398 . S
C700 C701 1.391 . S
C701 H689 0.950 . S
C701 C697 1.393 . S
C701 C700 1.391 . S
C702 H692 0.950 . S
C702 C703 1.386 . S
C702 C704 1.391 . S
C703 C702 1.386 . S
C703 C707 1.393 . S
C704 H693 0.950 . S
C704 C702 1.391 . S
C704 C705 1.400 . S
C705 C699 1.491 1_556 S
C705 C704 1.400 . S
C705 C706 1.398 . S
C706 H694 0.950 1_556 S
C706 C705 1.398 . S
C706 C707 1.391 . S
C707 H695 0.950 . S
C707 C703 1.393 . S
C707 C706 1.391 . S
H708 C716 0.950 . S
H709 C721 0.950 . S
H710 C718 0.950 . S
H711 C720 0.950 . S
H712 C722 0.950 . S
H713 C724 0.950 . S
H714 C726 0.950 . S
H715 C727 0.950 . S
C716 H708 0.950 . S
C716 C717 1.386 . S
C716 C718 1.391 . S
C717 C716 1.386 . S
C717 C721 1.393 . S
C718 H710 0.950 . S
C718 C716 1.391 . S
C718 C719 1.400 . S
C719 C718 1.400 . S
C719 C720 1.398 . S
C719 C725 1.491 . S
C720 H711 0.950 . S
C720 C719 1.398 . S
C720 C721 1.391 . S
C721 H709 0.950 . S
C721 C717 1.393 . S
C721 C720 1.391 . S
C722 H712 0.950 . S
C722 C723 1.386 . S
C722 C724 1.391 . S
C723 C722 1.386 . S
C723 C727 1.393 . S
C724 H713 0.950 . S
C724 C722 1.391 . S
C724 C725 1.400 . S
C725 C719 1.491 . S
C725 C724 1.400 . S
C725 C726 1.398 . S
C726 H714 0.950 . S
C726 C725 1.398 . S
C726 C727 1.391 . S
C727 H715 0.950 . S
C727 C723 1.393 . S
C727 C726 1.391 . S
H728 C736 0.950 . S
H729 C741 0.950 . S
H730 C738 0.950 . S
H731 C740 0.950 . S
H732 C742 0.950 . S
H733 C744 0.950 . S
H734 C746 0.950 . S
H735 C747 0.950 . S
C736 H728 0.950 . S
C736 C737 1.386 . S
C736 C738 1.391 . S
C737 C736 1.386 . S
C737 C741 1.393 . S
C738 H730 0.950 . S
C738 C736 1.391 . S
C738 C739 1.400 . S
C739 C738 1.400 . S
C739 C740 1.398 . S
C739 C745 1.491 . S
C740 H731 0.950 . S
C740 C739 1.398 . S
C740 C741 1.391 . S
C741 H729 0.950 . S
C741 C737 1.393 . S
C741 C740 1.391 . S
C742 H732 0.950 . S
C742 C743 1.386 . S
C742 C744 1.391 . S
C743 C742 1.386 . S
C743 C747 1.393 . S
C744 H733 0.950 . S
C744 C742 1.391 . S
C744 C745 1.400 . S
C745 C739 1.491 . S
C745 C744 1.400 . S
C745 C746 1.398 . S
C746 H734 0.950 . S
C746 C745 1.398 . S
C746 C747 1.391 . S
C747 H735 0.950 . S
C747 C743 1.393 . S
C747 C746 1.391 . S
H748 C756 0.950 . S
H749 C761 0.950 . S
H750 C758 0.950 . S
H751 C760 0.950 . S
H752 C762 0.950 . S
H753 C764 0.950 . S
H754 C766 0.950 . S
H755 C767 0.950 . S
C756 H748 0.950 . S
C756 C757 1.386 . S
C756 C758 1.391 . S
C757 C756 1.386 . S
C757 C761 1.393 . S
C758 H750 0.950 . S
C758 C756 1.391 . S
C758 C759 1.400 . S
C759 C758 1.400 . S
C759 C760 1.398 . S
C759 C765 1.491 . S
C760 H751 0.950 . S
C760 C759 1.398 . S
C760 C761 1.391 . S
C761 H749 0.950 . S
C761 C757 1.393 . S
C761 C760 1.391 . S
C762 H752 0.950 . S
C762 C763 1.386 . S
C762 C764 1.391 . S
C763 C762 1.386 . S
C763 C767 1.393 . S
C764 H753 0.950 . S
C764 C762 1.391 . S
C764 C765 1.400 . S
C765 C759 1.491 . S
C765 C764 1.400 . S
C765 C766 1.398 . S
C766 H754 0.950 . S
C766 C765 1.398 . S
C766 C767 1.391 . S
C767 H755 0.950 . S
C767 C763 1.393 . S
C767 C766 1.391 . S
H768 C776 0.950 . S
H769 C781 0.950 . S
H770 C778 0.950 . S
H771 C780 0.950 . S
H772 C782 0.950 . S
H773 C784 0.950 . S
H774 C786 0.950 . S
H775 C787 0.950 . S
C776 H768 0.950 . S
C776 C777 1.386 . S
C776 C778 1.391 . S
C777 C776 1.386 . S
C777 C781 1.393 . S
C778 H770 0.950 . S
C778 C776 1.391 . S
C778 C779 1.400 . S
C779 C778 1.400 . S
C779 C780 1.398 . S
C779 C785 1.491 . S
C780 H771 0.950 . S
C780 C779 1.398 . S
C780 C781 1.391 . S
C781 H769 0.950 . S
C781 C777 1.393 . S
C781 C780 1.391 . S
C782 H772 0.950 . S
C782 C783 1.386 . S
C782 C784 1.391 . S
C783 C782 1.386 . S
C783 C787 1.393 . S
C784 H773 0.950 . S
C784 C782 1.391 . S
C784 C785 1.400 . S
C785 C779 1.491 . S
C785 C784 1.400 . S
C785 C786 1.398 . S
C786 H774 0.950 . S
C786 C785 1.398 . S
C786 C787 1.391 . S
C787 H775 0.950 . S
C787 C783 1.393 . S
C787 C786 1.391 . S
H788 C796 0.950 . S
H789 C801 0.950 . S
H790 C798 0.950 . S
H791 C800 0.950 . S
H792 C802 0.950 . S
H793 C804 0.950 . S
H794 C806 0.950 . S
H795 C807 0.950 . S
C796 H788 0.950 . S
C796 C797 1.386 . S
C796 C798 1.391 . S
C797 C796 1.386 . S
C797 C801 1.393 . S
C798 H790 0.950 . S
C798 C796 1.391 . S
C798 C799 1.400 . S
C799 C798 1.400 . S
C799 C800 1.398 . S
C799 C805 1.491 . S
C800 H791 0.950 . S
C800 C799 1.398 . S
C800 C801 1.391 . S
C801 H789 0.950 . S
C801 C797 1.393 . S
C801 C800 1.391 . S
C802 H792 0.950 . S
C802 C803 1.386 . S
C802 C804 1.391 . S
C803 C802 1.386 . S
C803 C807 1.393 . S
C804 H793 0.950 . S
C804 C802 1.391 . S
C804 C805 1.400 . S
C805 C799 1.491 . S
C805 C804 1.400 . S
C805 C806 1.398 . S
C806 H794 0.950 . S
C806 C805 1.398 . S
C806 C807 1.391 . S
C807 H795 0.950 . S
C807 C803 1.393 . S
C807 C806 1.391 . S
H808 C816 0.950 . S
H809 C821 0.950 . S
H810 C818 0.950 . S
H811 C820 0.950 . S
H812 C822 0.950 . S
H813 C824 0.950 . S
H814 C826 0.950 . S
H815 C827 0.950 . S
C816 H808 0.950 . S
C816 C817 1.386 . S
C816 C818 1.391 . S
C817 C816 1.386 . S
C817 C821 1.393 . S
C818 H810 0.950 . S
C818 C816 1.391 . S
C818 C819 1.400 . S
C819 C818 1.400 . S
C819 C820 1.398 . S
C819 C825 1.491 . S
C820 H811 0.950 . S
C820 C819 1.398 . S
C820 C821 1.391 . S
C821 H809 0.950 . S
C821 C817 1.393 . S
C821 C820 1.391 . S
C822 H812 0.950 . S
C822 C823 1.386 . S
C822 C824 1.391 . S
C823 C822 1.386 . S
C823 C827 1.393 . S
C824 H813 0.950 . S
C824 C822 1.391 . S
C824 C825 1.400 . S
C825 C819 1.491 . S
C825 C824 1.400 . S
C825 C826 1.398 . S
C826 H814 0.950 . S
C826 C825 1.398 . S
C826 C827 1.391 . S
C827 H815 0.950 . S
C827 C823 1.393 . S
C827 C826 1.391 . S
H828 C836 0.950 . S
H829 C841 0.950 1_554 S
H830 C838 0.950 . S
H831 C840 0.950 . S
H832 C842 0.950 . S
H833 C844 0.950 . S
H834 C846 0.950 . S
H835 C847 0.950 . S
C836 H828 0.950 . S
C836 C837 1.386 . S
C836 C838 1.391 . S
C837 C836 1.386 . S
C837 C841 1.393 . S
C838 H830 0.950 . S
C838 C836 1.391 . S
C838 C839 1.400 . S
C839 C838 1.400 . S
C839 C840 1.398 . S
C839 C845 1.491 . S
C840 H831 0.950 . S
C840 C839 1.398 . S
C840 C841 1.391 . S
C841 H829 0.950 1_556 S
C841 C837 1.393 . S
C841 C840 1.391 . S
C842 H832 0.950 . S
C842 C843 1.386 . S
C842 C844 1.391 . S
C843 C842 1.386 . S
C843 C847 1.393 . S
C844 H833 0.950 . S
C844 C842 1.391 . S
C844 C845 1.400 . S
C845 C839 1.491 . S
C845 C844 1.400 . S
C845 C846 1.398 . S
C846 H834 0.950 . S
C846 C845 1.398 . S
C846 C847 1.391 . S
C847 H835 0.950 . S
C847 C843 1.393 . S
C847 C846 1.391 . S
H848 C856 0.950 . S
H849 C861 0.950 . S
H850 C858 0.950 . S
H851 C860 0.950 . S
H852 C862 0.950 . S
H853 C864 0.950 . S
H854 C866 0.950 . S
H855 C867 0.950 . S
C856 H848 0.950 . S
C856 C857 1.386 . S
C856 C858 1.391 . S
C857 C856 1.386 . S
C857 C861 1.393 . S
C858 H850 0.950 . S
C858 C856 1.391 . S
C858 C859 1.400 . S
C859 C858 1.400 . S
C859 C860 1.398 . S
C859 C865 1.491 . S
C860 H851 0.950 . S
C860 C859 1.398 . S
C860 C861 1.391 . S
C861 H849 0.950 . S
C861 C857 1.393 . S
C861 C860 1.391 . S
C862 H852 0.950 . S
C862 C863 1.386 . S
C862 C864 1.391 . S
C863 C862 1.386 . S
C863 C867 1.393 . S
C864 H853 0.950 . S
C864 C862 1.391 . S
C864 C865 1.400 . S
C865 C859 1.491 . S
C865 C864 1.400 . S
C865 C866 1.398 . S
C866 H854 0.950 . S
C866 C865 1.398 . S
C866 C867 1.391 . S
C867 H855 0.950 . S
C867 C863 1.393 . S
C867 C866 1.391 . S
H868 C876 0.950 . S
H869 C881 0.950 1_554 S
H870 C878 0.950 . S
H871 C880 0.950 . S
H872 C882 0.950 . S
H873 C884 0.950 . S
H874 C886 0.950 . S
H875 C887 0.950 . S
C876 H868 0.950 . S
C876 C877 1.386 . S
C876 C878 1.391 . S
C877 C876 1.386 . S
C877 C881 1.393 . S
C878 H870 0.950 . S
C878 C876 1.391 . S
C878 C879 1.400 . S
C879 C878 1.400 . S
C879 C880 1.398 . S
C879 C885 1.491 . S
C880 H871 0.950 . S
C880 C879 1.398 . S
C880 C881 1.391 . S
C881 H869 0.950 1_556 S
C881 C877 1.393 . S
C881 C880 1.391 . S
C882 H872 0.950 . S
C882 C883 1.386 . S
C882 C884 1.391 . S
C883 C882 1.386 . S
C883 C887 1.393 . S
C884 H873 0.950 . S
C884 C882 1.391 . S
C884 C885 1.400 . S
C885 C879 1.491 . S
C885 C884 1.400 . S
C885 C886 1.398 . S
C886 H874 0.950 . S
C886 C885 1.398 . S
C886 C887 1.391 . S
C887 H875 0.950 . S
C887 C883 1.393 . S
C887 C886 1.391 . S
H888 C896 0.950 . S
H889 C901 0.950 . S
H890 C898 0.950 . S
H891 C900 0.950 . S
H892 C902 0.950 . S
H893 C904 0.950 . S
H894 C906 0.950 . S
H895 C907 0.950 . S
C896 H888 0.950 . S
C896 C897 1.386 . S
C896 C898 1.391 . S
C897 C896 1.386 . S
C897 C901 1.393 . S
C898 H890 0.950 . S
C898 C896 1.391 . S
C898 C899 1.400 . S
C899 C898 1.400 . S
C899 C900 1.398 . S
C899 C905 1.491 . S
C900 H891 0.950 . S
C900 C899 1.398 . S
C900 C901 1.391 . S
C901 H889 0.950 . S
C901 C897 1.393 . S
C901 C900 1.391 . S
C902 H892 0.950 . S
C902 C903 1.386 . S
C902 C904 1.391 . S
C903 C902 1.386 . S
C903 C907 1.393 . S
C904 H893 0.950 . S
C904 C902 1.391 . S
C904 C905 1.400 . S
C905 C899 1.491 . S
C905 C904 1.400 . S
C905 C906 1.398 . S
C906 H894 0.950 . S
C906 C905 1.398 . S
C906 C907 1.391 . S
C907 H895 0.950 . S
C907 C903 1.393 . S
C907 C906 1.391 . S
H908 C916 0.950 . S
H909 C921 0.950 . S
H910 C918 0.950 . S
H911 C920 0.950 . S
H912 C922 0.950 . S
H913 C924 0.950 . S
H914 C926 0.950 . S
H915 C927 0.950 . S
C916 H908 0.950 . S
C916 C917 1.386 . S
C916 C918 1.391 . S
C917 C916 1.386 . S
C917 C921 1.393 . S
C918 H910 0.950 . S
C918 C916 1.391 . S
C918 C919 1.400 . S
C919 C918 1.400 . S
C919 C920 1.398 . S
C919 C925 1.491 . S
C920 H911 0.950 . S
C920 C919 1.398 . S
C920 C921 1.391 . S
C921 H909 0.950 . S
C921 C917 1.393 . S
C921 C920 1.391 . S
C922 H912 0.950 . S
C922 C923 1.386 . S
C922 C924 1.391 . S
C923 C922 1.386 . S
C923 C927 1.393 . S
C924 H913 0.950 . S
C924 C922 1.391 . S
C924 C925 1.400 . S
C925 C919 1.491 . S
C925 C924 1.400 . S
C925 C926 1.398 . S
C926 H914 0.950 . S
C926 C925 1.398 . S
C926 C927 1.391 . S
C927 H915 0.950 . S
C927 C923 1.393 . S
C927 C926 1.391 . S
H928 C936 0.950 . S
H929 C941 0.950 . S
H930 C938 0.950 . S
H931 C940 0.950 . S
H932 C942 0.950 . S
H933 C944 0.950 . S
H934 C946 0.950 . S
H935 C947 0.950 . S
C936 H928 0.950 . S
C936 C937 1.386 . S
C936 C938 1.391 . S
C937 C936 1.386 . S
C937 C941 1.393 . S
C938 H930 0.950 . S
C938 C936 1.391 . S
C938 C939 1.400 . S
C939 C938 1.400 . S
C939 C940 1.398 . S
C939 C945 1.491 . S
C940 H931 0.950 . S
C940 C939 1.398 . S
C940 C941 1.391 . S
C941 H929 0.950 . S
C941 C937 1.393 . S
C941 C940 1.391 . S
C942 H932 0.950 . S
C942 C943 1.386 . S
C942 C944 1.391 . S
C943 C942 1.386 . S
C943 C947 1.393 . S
C944 H933 0.950 . S
C944 C942 1.391 . S
C944 C945 1.400 . S
C945 C939 1.491 . S
C945 C944 1.400 . S
C945 C946 1.398 . S
C946 H934 0.950 . S
C946 C945 1.398 . S
C946 C947 1.391 . S
C947 H935 0.950 . S
C947 C943 1.393 . S
C947 C946 1.391 . S
H948 C956 0.950 . S
H949 C961 0.950 . S
H950 C958 0.950 . S
H951 C960 0.950 . S
H952 C962 0.950 . S
H953 C964 0.950 . S
H954 C966 0.950 . S
H955 C967 0.950 1_556 S
C956 H948 0.950 . S
C956 C957 1.386 . S
C956 C958 1.391 . S
C957 C956 1.386 . S
C957 C961 1.393 . S
C958 H950 0.950 . S
C958 C956 1.391 . S
C958 C959 1.400 . S
C959 C958 1.400 . S
C959 C960 1.398 . S
C959 C965 1.491 . S
C960 H951 0.950 . S
C960 C959 1.398 . S
C960 C961 1.391 . S
C961 H949 0.950 . S
C961 C957 1.393 . S
C961 C960 1.391 . S
C962 H952 0.950 . S
C962 C963 1.386 . S
C962 C964 1.391 . S
C963 C962 1.386 . S
C963 C967 1.393 . S
C964 H953 0.950 . S
C964 C962 1.391 . S
C964 C965 1.400 . S
C965 C959 1.491 . S
C965 C964 1.400 . S
C965 C966 1.398 . S
C966 H954 0.950 . S
C966 C965 1.398 . S
C966 C967 1.391 . S
C967 H955 0.950 1_554 S
C967 C963 1.393 . S
C967 C966 1.391 . S
H968 C976 0.950 . S
H969 C981 0.950 . S
H970 C978 0.950 . S
H971 C980 0.950 . S
H972 C982 0.950 1_556 S
H973 C984 0.950 . S
H974 C986 0.950 . S
H975 C987 0.950 . S
C976 H968 0.950 . S
C976 C977 1.386 . S
C976 C978 1.391 . S
C977 C976 1.386 . S
C977 C981 1.393 . S
C978 H970 0.950 . S
C978 C976 1.391 . S
C978 C979 1.400 . S
C979 C978 1.400 . S
C979 C980 1.398 . S
C979 C985 1.491 . S
C980 H971 0.950 . S
C980 C979 1.398 . S
C980 C981 1.391 . S
C981 H969 0.950 . S
C981 C977 1.393 . S
C981 C980 1.391 . S
C982 H972 0.950 1_554 S
C982 C983 1.386 . S
C982 C984 1.391 . S
C983 C982 1.386 . S
C983 C987 1.393 . S
C984 H973 0.950 . S
C984 C982 1.391 . S
C984 C985 1.400 . S
C985 C979 1.491 . S
C985 C984 1.400 . S
C985 C986 1.398 . S
C986 H974 0.950 . S
C986 C985 1.398 . S
C986 C987 1.391 . S
C987 H975 0.950 . S
C987 C983 1.393 . S
C987 C986 1.391 . S
H988 C996 0.950 . S
H989 C1001 0.950 . S
H990 C998 0.950 . S
H991 C1000 0.950 . S
H992 C1002 0.950 . S
H993 C1004 0.950 . S
H994 C1006 0.950 . S
H995 C1007 0.950 . S
C996 H988 0.950 . S
C996 C997 1.386 . S
C996 C998 1.391 . S
C997 C996 1.386 . S
C997 C1001 1.393 . S
C998 H990 0.950 . S
C998 C996 1.391 . S
C998 C999 1.400 . S
C999 C998 1.400 . S
C999 C1000 1.398 . S
C999 C1005 1.491 . S
C1000 H991 0.950 . S
C1000 C999 1.398 . S
C1000 C1001 1.391 . S
C1001 H989 0.950 . S
C1001 C997 1.393 . S
C1001 C1000 1.391 . S
C1002 H992 0.950 . S
C1002 C1003 1.386 . S
C1002 C1004 1.391 . S
C1003 C1002 1.386 . S
C1003 C1007 1.393 . S
C1004 H993 0.950 . S
C1004 C1002 1.391 . S
C1004 C1005 1.400 . S
C1005 C999 1.491 . S
C1005 C1004 1.400 . S
C1005 C1006 1.398 . S
C1006 H994 0.950 . S
C1006 C1005 1.398 . S
C1006 C1007 1.391 . S
C1007 H995 0.950 . S
C1007 C1003 1.393 . S
C1007 C1006 1.391 . S
H1008 C1016 0.950 . S
H1009 C1021 0.950 . S
H1010 C1018 0.950 . S
H1011 C1020 0.950 . S
H1012 C1022 0.950 . S
H1013 C1024 0.950 . S
H1014 C1026 0.950 . S
H1015 C1027 0.950 . S
C1016 H1008 0.950 . S
C1016 C1017 1.386 . S
C1016 C1018 1.391 . S
C1017 C1016 1.386 . S
C1017 C1021 1.393 . S
C1018 H1010 0.950 . S
C1018 C1016 1.391 . S
C1018 C1019 1.400 . S
C1019 C1018 1.400 . S
C1019 C1020 1.398 . S
C1019 C1025 1.491 . S
C1020 H1011 0.950 . S
C1020 C1019 1.398 . S
C1020 C1021 1.391 . S
C1021 H1009 0.950 . S
C1021 C1017 1.393 . S
C1021 C1020 1.391 . S
C1022 H1012 0.950 . S
C1022 C1023 1.386 . S
C1022 C1024 1.391 . S
C1023 C1022 1.386 . S
C1023 C1027 1.393 . S
C1024 H1013 0.950 . S
C1024 C1022 1.391 . S
C1024 C1025 1.400 . S
C1025 C1019 1.491 . S
C1025 C1024 1.400 . S
C1025 C1026 1.398 . S
C1026 H1014 0.950 . S
C1026 C1025 1.398 . S
C1026 C1027 1.391 . S
C1027 H1015 0.950 . S
C1027 C1023 1.393 . S
C1027 C1026 1.391 . S
H1028 C1036 0.950 . S
H1029 C1041 0.950 . S
H1030 C1038 0.950 . S
H1031 C1040 0.950 . S
H1032 C1042 0.950 . S
H1033 C1044 0.950 . S
H1034 C1046 0.950 . S
H1035 C1047 0.950 . S
C1036 H1028 0.950 . S
C1036 C1037 1.386 . S
C1036 C1038 1.391 . S
C1037 C1036 1.386 . S
C1037 C1041 1.393 . S
C1038 H1030 0.950 . S
C1038 C1036 1.391 . S
C1038 C1039 1.400 . S
C1039 C1038 1.400 . S
C1039 C1040 1.398 . S
C1039 C1045 1.491 . S
C1040 H1031 0.950 . S
C1040 C1039 1.398 . S
C1040 C1041 1.391 . S
C1041 H1029 0.950 . S
C1041 C1037 1.393 . S
C1041 C1040 1.391 . S
C1042 H1032 0.950 . S
C1042 C1043 1.386 . S
C1042 C1044 1.391 . S
C1043 C1042 1.386 . S
C1043 C1047 1.393 . S
C1044 H1033 0.950 . S
C1044 C1042 1.391 . S
C1044 C1045 1.400 . S
C1045 C1039 1.491 . S
C1045 C1044 1.400 . S
C1045 C1046 1.398 . S
C1046 H1034 0.950 . S
C1046 C1045 1.398 . S
C1046 C1047 1.391 . S
C1047 H1035 0.950 . S
C1047 C1043 1.393 . S
C1047 C1046 1.391 . S
H1048 C1056 0.950 . S
H1049 C1061 0.950 . S
H1050 C1058 0.950 . S
H1051 C1060 0.950 . S
H1052 C1062 0.950 . S
H1053 C1064 0.950 . S
H1054 C1066 0.950 . S
H1055 C1067 0.950 . S
C1056 H1048 0.950 . S
C1056 C1057 1.386 . S
C1056 C1058 1.391 . S
C1057 C1056 1.386 . S
C1057 C1061 1.393 . S
C1058 H1050 0.950 . S
C1058 C1056 1.391 . S
C1058 C1059 1.400 . S
C1059 C1058 1.400 . S
C1059 C1060 1.398 . S
C1059 C1065 1.491 1_565 S
C1060 H1051 0.950 . S
C1060 C1059 1.398 . S
C1060 C1061 1.391 . S
C1061 H1049 0.950 . S
C1061 C1057 1.393 . S
C1061 C1060 1.391 . S
C1062 H1052 0.950 . S
C1062 C1063 1.386 . S
C1062 C1064 1.391 . S
C1063 C1062 1.386 . S
C1063 C1067 1.393 . S
C1064 H1053 0.950 . S
C1064 C1062 1.391 . S
C1064 C1065 1.400 . S
C1065 C1059 1.491 1_545 S
C1065 C1064 1.400 . S
C1065 C1066 1.398 . S
C1066 H1054 0.950 . S
C1066 C1065 1.398 . S
C1066 C1067 1.391 . S
C1067 H1055 0.950 . S
C1067 C1063 1.393 . S
C1067 C1066 1.391 . S
H1068 C1076 0.950 . S
H1069 C1081 0.950 . S
H1070 C1078 0.950 . S
H1071 C1080 0.950 . S
H1072 C1082 0.950 . S
H1073 C1084 0.950 . S
H1074 C1086 0.950 . S
H1075 C1087 0.950 . S
C1076 H1068 0.950 . S
C1076 C1077 1.386 . S
C1076 C1078 1.391 . S
C1077 C1076 1.386 . S
C1077 C1081 1.393 . S
C1078 H1070 0.950 . S
C1078 C1076 1.391 . S
C1078 C1079 1.400 . S
C1079 C1078 1.400 . S
C1079 C1080 1.398 . S
C1079 C1085 1.491 . S
C1080 H1071 0.950 . S
C1080 C1079 1.398 . S
C1080 C1081 1.391 . S
C1081 H1069 0.950 . S
C1081 C1077 1.393 . S
C1081 C1080 1.391 . S
C1082 H1072 0.950 . S
C1082 C1083 1.386 . S
C1082 C1084 1.391 . S
C1083 C1082 1.386 . S
C1083 C1087 1.393 . S
C1084 H1073 0.950 . S
C1084 C1082 1.391 . S
C1084 C1085 1.400 . S
C1085 C1079 1.491 . S
C1085 C1084 1.400 . S
C1085 C1086 1.398 . S
C1086 H1074 0.950 . S
C1086 C1085 1.398 . S
C1086 C1087 1.391 . S
C1087 H1075 0.950 . S
C1087 C1083 1.393 . S
C1087 C1086 1.391 . S
H1088 C1096 0.950 . S
H1089 C1101 0.950 . S
H1090 C1098 0.950 . S
H1091 C1100 0.950 . S
H1092 C1102 0.950 . S
H1093 C1104 0.950 . S
H1094 C1106 0.950 . S
H1095 C1107 0.950 . S
C1096 H1088 0.950 . S
C1096 C1097 1.386 1_454 S
C1096 C1098 1.391 . S
C1097 C1096 1.386 1_656 S
C1097 C1101 1.393 . S
C1098 H1090 0.950 . S
C1098 C1096 1.391 . S
C1098 C1099 1.400 . S
C1099 C1098 1.400 . S
C1099 C1100 1.398 1_455 S
C1099 C1105 1.491 . S
C1100 H1091 0.950 . S
C1100 C1099 1.398 1_655 S
C1100 C1101 1.391 1_554 S
C1101 H1089 0.950 . S
C1101 C1097 1.393 . S
C1101 C1100 1.391 1_556 S
C1102 H1092 0.950 . S
C1102 C1103 1.386 . S
C1102 C1104 1.391 . S
C1103 C1102 1.386 . S
C1103 C1107 1.393 . S
C1104 H1093 0.950 . S
C1104 C1102 1.391 . S
C1104 C1105 1.400 . S
C1105 C1099 1.491 . S
C1105 C1104 1.400 . S
C1105 C1106 1.398 . S
C1106 H1094 0.950 . S
C1106 C1105 1.398 . S
C1106 C1107 1.391 . S
C1107 H1095 0.950 . S
C1107 C1103 1.393 . S
C1107 C1106 1.391 . S
H1108 C1116 0.950 . S
H1109 C1121 0.950 . S
H1110 C1118 0.950 . S
H1111 C1120 0.950 . S
H1112 C1122 0.950 . S
H1113 C1124 0.950 . S
H1114 C1126 0.950 . S
H1115 C1127 0.950 . S
C1116 H1108 0.950 . S
C1116 C1117 1.386 1_554 S
C1116 C1118 1.391 . S
C1117 C1116 1.386 1_556 S
C1117 C1121 1.393 . S
C1118 H1110 0.950 . S
C1118 C1116 1.391 . S
C1118 C1119 1.400 . S
C1119 C1118 1.400 . S
C1119 C1120 1.398 . S
C1119 C1125 1.491 . S
C1120 H1111 0.950 . S
C1120 C1119 1.398 . S
C1120 C1121 1.391 1_554 S
C1121 H1109 0.950 . S
C1121 C1117 1.393 . S
C1121 C1120 1.391 1_556 S
C1122 H1112 0.950 . S
C1122 C1123 1.386 . S
C1122 C1124 1.391 . S
C1123 C1122 1.386 . S
C1123 C1127 1.393 . S
C1124 H1113 0.950 . S
C1124 C1122 1.391 . S
C1124 C1125 1.400 . S
C1125 C1119 1.491 . S
C1125 C1124 1.400 . S
C1125 C1126 1.398 . S
C1126 H1114 0.950 . S
C1126 C1125 1.398 . S
C1126 C1127 1.391 . S
C1127 H1115 0.950 . S
C1127 C1123 1.393 . S
C1127 C1126 1.391 . S
H1128 C1136 0.950 1_455 S
H1129 C1141 0.950 . S
H1130 C1138 0.950 . S
H1131 C1140 0.950 . S
H1132 C1142 0.950 . S
H1133 C1144 0.950 . S
H1134 C1146 0.950 . S
H1135 C1147 0.950 . S
C1136 H1128 0.950 1_655 S
C1136 C1137 1.386 . S
C1136 C1138 1.391 1_655 S
C1137 C1136 1.386 . S
C1137 C1141 1.393 . S
C1138 H1130 0.950 . S
C1138 C1136 1.391 1_455 S
C1138 C1139 1.400 . S
C1139 C1138 1.400 . S
C1139 C1140 1.398 1_455 S
C1139 C1145 1.491 . S
C1140 H1131 0.950 . S
C1140 C1139 1.398 1_655 S
C1140 C1141 1.391 . S
C1141 H1129 0.950 . S
C1141 C1137 1.393 . S
C1141 C1140 1.391 . S
C1142 H1132 0.950 . S
C1142 C1143 1.386 . S
C1142 C1144 1.391 . S
C1143 C1142 1.386 . S
C1143 C1147 1.393 . S
C1144 H1133 0.950 . S
C1144 C1142 1.391 . S
C1144 C1145 1.400 . S
C1145 C1139 1.491 . S
C1145 C1144 1.400 . S
C1145 C1146 1.398 . S
C1146 H1134 0.950 . S
C1146 C1145 1.398 . S
C1146 C1147 1.391 . S
C1147 H1135 0.950 . S
C1147 C1143 1.393 . S
C1147 C1146 1.391 . S
H1148 C1156 0.950 . S
H1149 C1161 0.950 . S
H1150 C1158 0.950 . S
H1151 C1160 0.950 . S
H1152 C1162 0.950 . S
H1153 C1164 0.950 . S
H1154 C1166 0.950 . S
H1155 C1167 0.950 . S
C1156 H1148 0.950 . S
C1156 C1157 1.386 . S
C1156 C1158 1.391 . S
C1157 C1156 1.386 . S
C1157 C1161 1.393 . S
C1158 H1150 0.950 . S
C1158 C1156 1.391 . S
C1158 C1159 1.400 . S
C1159 C1158 1.400 . S
C1159 C1160 1.398 . S
C1159 C1165 1.491 . S
C1160 H1151 0.950 . S
C1160 C1159 1.398 . S
C1160 C1161 1.391 . S
C1161 H1149 0.950 . S
C1161 C1157 1.393 . S
C1161 C1160 1.391 . S
C1162 H1152 0.950 . S
C1162 C1163 1.386 . S
C1162 C1164 1.391 . S
C1163 C1162 1.386 . S
C1163 C1167 1.393 . S
C1164 H1153 0.950 . S
C1164 C1162 1.391 . S
C1164 C1165 1.400 . S
C1165 C1159 1.491 . S
C1165 C1164 1.400 . S
C1165 C1166 1.398 . S
C1166 H1154 0.950 . S
C1166 C1165 1.398 . S
C1166 C1167 1.391 . S
C1167 H1155 0.950 . S
C1167 C1163 1.393 . S
C1167 C1166 1.391 . S
H1168 C1176 0.950 . S
H1169 C1181 0.950 . S
H1170 C1178 0.950 . S
H1171 C1180 0.950 . S
H1172 C1182 0.950 . S
H1173 C1184 0.950 . S
H1174 C1186 0.950 . S
H1175 C1187 0.950 . S
C1176 H1168 0.950 . S
C1176 C1177 1.386 . S
C1176 C1178 1.391 . S
C1177 C1176 1.386 . S
C1177 C1181 1.393 . S
C1178 H1170 0.950 . S
C1178 C1176 1.391 . S
C1178 C1179 1.400 . S
C1179 C1178 1.400 . S
C1179 C1180 1.398 . S
C1179 C1185 1.491 . S
C1180 H1171 0.950 . S
C1180 C1179 1.398 . S
C1180 C1181 1.391 . S
C1181 H1169 0.950 . S
C1181 C1177 1.393 . S
C1181 C1180 1.391 . S
C1182 H1172 0.950 . S
C1182 C1183 1.386 . S
C1182 C1184 1.391 . S
C1183 C1182 1.386 . S
C1183 C1187 1.393 . S
C1184 H1173 0.950 . S
C1184 C1182 1.391 . S
C1184 C1185 1.400 . S
C1185 C1179 1.491 . S
C1185 C1184 1.400 . S
C1185 C1186 1.398 . S
C1186 H1174 0.950 . S
C1186 C1185 1.398 . S
C1186 C1187 1.391 . S
C1187 H1175 0.950 . S
C1187 C1183 1.393 . S
C1187 C1186 1.391 . S
H1188 C1196 0.941 1_554 S
H1189 C1201 0.950 . S
H1190 C1198 0.950 . S
H1191 C1200 0.950 . S
H1192 C1202 0.950 . S
H1193 C1204 0.950 1_565 S
H1194 C1206 0.950 . S
H1195 C1207 0.950 . S
C1196 H1188 0.941 1_556 S
C1196 C1197 1.384 1_546 S
C1196 C1198 1.401 . S
C1197 C1196 1.384 1_564 S
C1197 C1201 1.393 1_554 S
C1198 H1190 0.950 . S
C1198 C1196 1.401 . S
C1198 C1199 1.400 . S
C1199 C1198 1.400 . S
C1199 C1200 1.398 1_545 S
C1199 C1205 1.491 . S
C1200 H1191 0.950 . S
C1200 C1199 1.398 1_565 S
C1200 C1201 1.391 . S
C1201 H1189 0.950 . S
C1201 C1197 1.393 1_556 S
C1201 C1200 1.391 . S
C1202 H1192 0.950 . S
C1202 C1203 1.386 . S
C1202 C1204 1.391 . S
C1203 C1202 1.386 . S
C1203 C1207 1.393 . S
C1204 H1193 0.950 1_545 S
C1204 C1202 1.391 . S
C1204 C1205 1.400 . S
C1205 C1199 1.491 . S
C1205 C1204 1.400 . S
C1205 C1206 1.398 . S
C1206 H1194 0.950 . S
C1206 C1205 1.398 . S
C1206 C1207 1.391 . S
C1207 H1195 0.950 . S
C1207 C1203 1.393 . S
C1207 C1206 1.391 . S
H1208 C1216 0.950 . S
H1209 C1221 0.950 . S
H1210 C1218 0.950 . S
H1211 C1220 0.950 . S
H1212 C1222 0.950 . S
H1213 C1224 0.950 . S
H1214 C1226 0.950 . S
H1215 C1227 0.950 . S
C1216 H1208 0.950 . S
C1216 C1217 1.386 . S
C1216 C1218 1.391 . S
C1217 C1216 1.386 . S
C1217 C1221 1.393 . S
C1218 H1210 0.950 . S
C1218 C1216 1.391 . S
C1218 C1219 1.400 . S
C1219 C1218 1.400 . S
C1219 C1220 1.398 . S
C1219 C1225 1.491 . S
C1220 H1211 0.950 . S
C1220 C1219 1.398 . S
C1220 C1221 1.391 . S
C1221 H1209 0.950 . S
C1221 C1217 1.393 . S
C1221 C1220 1.391 . S
C1222 H1212 0.950 . S
C1222 C1223 1.386 1_556 S
C1222 C1224 1.391 . S
C1223 C1222 1.386 1_554 S
C1223 C1227 1.393 . S
C1224 H1213 0.950 . S
C1224 C1222 1.391 . S
C1224 C1225 1.400 . S
C1225 C1219 1.491 . S
C1225 C1224 1.400 . S
C1225 C1226 1.398 . S
C1226 H1214 0.950 . S
C1226 C1225 1.398 . S
C1226 C1227 1.391 1_556 S
C1227 H1215 0.950 . S
C1227 C1223 1.393 . S
C1227 C1226 1.391 1_554 S
H1228 C1236 0.950 . S
H1229 C1241 0.950 . S
H1230 C1238 0.950 . S
H1231 C1240 0.950 . S
H1232 C1242 0.950 . S
H1233 C1244 0.950 . S
H1234 C1246 0.956 . S
H1235 C1247 0.950 . S
C1236 H1228 0.950 . S
C1236 C1237 1.386 . S
C1236 C1238 1.391 . S
C1237 C1236 1.386 . S
C1237 C1241 1.393 . S
C1238 H1230 0.950 . S
C1238 C1236 1.391 . S
C1238 C1239 1.400 . S
C1239 C1238 1.400 . S
C1239 C1240 1.398 . S
C1239 C1245 1.491 . S
C1240 H1231 0.950 . S
C1240 C1239 1.398 . S
C1240 C1241 1.391 . S
C1241 H1229 0.950 . S
C1241 C1237 1.393 . S
C1241 C1240 1.391 . S
C1242 H1232 0.950 . S
C1242 C1243 1.386 . S
C1242 C1244 1.391 . S
C1243 C1242 1.386 . S
C1243 C1247 1.393 1_556 S
C1244 H1233 0.950 . S
C1244 C1242 1.391 . S
C1244 C1245 1.400 . S
C1245 C1239 1.491 . S
C1245 C1244 1.400 . S
C1245 C1246 1.398 . S
C1246 H1234 0.956 . S
C1246 C1245 1.398 . S
C1246 C1247 1.391 1_556 S
C1247 H1235 0.950 . S
C1247 C1243 1.393 1_554 S
C1247 C1246 1.391 1_554 S
H1248 C1256 0.950 . S
H1249 C1261 0.950 . S
H1250 C1258 0.950 . S
H1251 C1260 0.950 . S
H1252 C1262 0.950 . S
H1253 C1264 0.950 . S
H1254 C1266 0.950 . S
H1255 C1267 0.950 . S
C1256 H1248 0.950 . S
C1256 C1257 1.386 . S
C1256 C1258 1.391 . S
C1257 C1256 1.386 . S
C1257 C1261 1.393 . S
C1258 H1250 0.950 . S
C1258 C1256 1.391 . S
C1258 C1259 1.400 . S
C1259 C1258 1.400 . S
C1259 C1260 1.398 . S
C1259 C1265 1.491 . S
C1260 H1251 0.950 . S
C1260 C1259 1.398 . S
C1260 C1261 1.391 . S
C1261 H1249 0.950 . S
C1261 C1257 1.393 . S
C1261 C1260 1.391 . S
C1262 H1252 0.950 . S
C1262 C1263 1.386 . S
C1262 C1264 1.391 . S
C1263 C1262 1.386 . S
C1263 C1267 1.393 . S
C1264 H1253 0.950 . S
C1264 C1262 1.391 . S
C1264 C1265 1.400 . S
C1265 C1259 1.491 . S
C1265 C1264 1.400 . S
C1265 C1266 1.398 . S
C1266 H1254 0.950 . S
C1266 C1265 1.398 . S
C1266 C1267 1.391 . S
C1267 H1255 0.950 . S
C1267 C1263 1.393 . S
C1267 C1266 1.391 . S
H1268 C1276 0.950 . S
H1269 C1281 0.950 . S
H1270 C1278 0.950 . S
H1271 C1280 0.950 . S
H1272 C1282 0.950 . S
H1273 C1284 0.950 . S
H1274 C1286 0.950 . S
H1275 C1287 0.950 . S
C1276 H1268 0.950 . S
C1276 C1277 1.386 . S
C1276 C1278 1.391 . S
C1277 C1276 1.386 . S
C1277 C1281 1.393 . S
C1278 H1270 0.950 . S
C1278 C1276 1.391 . S
C1278 C1279 1.400 . S
C1279 C1278 1.400 . S
C1279 C1280 1.398 . S
C1279 C1285 1.491 . S
C1280 H1271 0.950 . S
C1280 C1279 1.398 . S
C1280 C1281 1.391 . S
C1281 H1269 0.950 . S
C1281 C1277 1.393 . S
C1281 C1280 1.391 . S
C1282 H1272 0.950 . S
C1282 C1283 1.386 . S
C1282 C1284 1.391 . S
C1283 C1282 1.386 . S
C1283 C1287 1.393 . S
C1284 H1273 0.950 . S
C1284 C1282 1.391 . S
C1284 C1285 1.400 . S
C1285 C1279 1.491 . S
C1285 C1284 1.400 . S
C1285 C1286 1.398 . S
C1286 H1274 0.950 . S
C1286 C1285 1.398 . S
C1286 C1287 1.391 . S
C1287 H1275 0.950 . S
C1287 C1283 1.393 . S
C1287 C1286 1.391 . S
H1288 C1296 0.950 . S
H1289 C1301 0.950 . S
H1290 C1298 0.950 . S
H1291 C1300 0.950 . S
H1292 C1302 0.950 . S
H1293 C1304 0.950 . S
H1294 C1306 0.950 . S
H1295 C1307 0.950 . S
C1296 H1288 0.950 . S
C1296 C1297 1.386 . S
C1296 C1298 1.391 . S
C1297 C1296 1.386 . S
C1297 C1301 1.393 . S
C1298 H1290 0.950 . S
C1298 C1296 1.391 . S
C1298 C1299 1.400 . S
C1299 C1298 1.400 . S
C1299 C1300 1.398 . S
C1299 C1305 1.491 . S
C1300 H1291 0.950 . S
C1300 C1299 1.398 . S
C1300 C1301 1.391 . S
C1301 H1289 0.950 . S
C1301 C1297 1.393 . S
C1301 C1300 1.391 . S
C1302 H1292 0.950 . S
C1302 C1303 1.386 . S
C1302 C1304 1.391 . S
C1303 C1302 1.386 . S
C1303 C1307 1.393 . S
C1304 H1293 0.950 . S
C1304 C1302 1.391 . S
C1304 C1305 1.400 . S
C1305 C1299 1.491 . S
C1305 C1304 1.400 . S
C1305 C1306 1.398 . S
C1306 H1294 0.950 . S
C1306 C1305 1.398 . S
C1306 C1307 1.391 . S
C1307 H1295 0.950 . S
C1307 C1303 1.393 . S
C1307 C1306 1.391 . S
H1308 C1316 0.950 . S
H1309 C1321 0.950 . S
H1310 C1318 0.950 . S
H1311 C1320 0.950 . S
H1312 C1322 0.950 . S
H1313 C1324 0.950 . S
H1314 C1326 0.950 . S
H1315 C1327 0.950 . S
C1316 H1308 0.950 . S
C1316 C1317 1.386 . S
C1316 C1318 1.391 . S
C1317 C1316 1.386 . S
C1317 C1321 1.393 . S
C1318 H1310 0.950 . S
C1318 C1316 1.391 . S
C1318 C1319 1.400 . S
C1319 C1318 1.400 . S
C1319 C1320 1.398 . S
C1319 C1325 1.491 . S
C1320 H1311 0.950 . S
C1320 C1319 1.398 . S
C1320 C1321 1.391 . S
C1321 H1309 0.950 . S
C1321 C1317 1.393 . S
C1321 C1320 1.391 . S
C1322 H1312 0.950 . S
C1322 C1323 1.386 . S
C1322 C1324 1.391 . S
C1323 C1322 1.386 . S
C1323 C1327 1.393 . S
C1324 H1313 0.950 . S
C1324 C1322 1.391 . S
C1324 C1325 1.400 . S
C1325 C1319 1.491 . S
C1325 C1324 1.400 . S
C1325 C1326 1.398 . S
C1326 H1314 0.950 . S
C1326 C1325 1.398 . S
C1326 C1327 1.391 . S
C1327 H1315 0.950 . S
C1327 C1323 1.393 . S
C1327 C1326 1.391 . S
H1328 C1336 0.950 . S
H1329 C1341 0.950 . S
H1330 C1338 0.950 . S
H1331 C1340 0.950 . S
H1332 C1342 0.950 . S
H1333 C1344 0.950 . S
H1334 C1346 0.950 . S
H1335 C1347 0.950 . S
C1336 H1328 0.950 . S
C1336 C1337 1.386 . S
C1336 C1338 1.391 . S
C1337 C1336 1.386 . S
C1337 C1341 1.393 . S
C1338 H1330 0.950 . S
C1338 C1336 1.391 . S
C1338 C1339 1.400 . S
C1339 C1338 1.400 . S
C1339 C1340 1.398 . S
C1339 C1345 1.491 . S
C1340 H1331 0.950 . S
C1340 C1339 1.398 . S
C1340 C1341 1.391 . S
C1341 H1329 0.950 . S
C1341 C1337 1.393 . S
C1341 C1340 1.391 . S
C1342 H1332 0.950 . S
C1342 C1343 1.386 . S
C1342 C1344 1.391 . S
C1343 C1342 1.386 . S
C1343 C1347 1.393 . S
C1344 H1333 0.950 . S
C1344 C1342 1.391 . S
C1344 C1345 1.400 . S
C1345 C1339 1.491 . S
C1345 C1344 1.400 . S
C1345 C1346 1.398 . S
C1346 H1334 0.950 . S
C1346 C1345 1.398 . S
C1346 C1347 1.391 . S
C1347 H1335 0.950 . S
C1347 C1343 1.393 . S
C1347 C1346 1.391 . S
H1348 C1356 0.950 . S
H1349 C1361 0.950 . S
H1350 C1358 0.950 . S
H1351 C1360 0.950 . S
H1352 C1362 0.950 . S
H1353 C1364 0.950 . S
H1354 C1366 0.950 . S
H1355 C1367 0.950 . S
C1356 H1348 0.950 . S
C1356 C1357 1.386 . S
C1356 C1358 1.391 . S
C1357 C1356 1.386 . S
C1357 C1361 1.393 . S
C1358 H1350 0.950 . S
C1358 C1356 1.391 . S
C1358 C1359 1.400 . S
C1359 C1358 1.400 . S
C1359 C1360 1.398 . S
C1359 C1365 1.491 . S
C1360 H1351 0.950 . S
C1360 C1359 1.398 . S
C1360 C1361 1.391 . S
C1361 H1349 0.950 . S
C1361 C1357 1.393 . S
C1361 C1360 1.391 . S
C1362 H1352 0.950 . S
C1362 C1363 1.386 . S
C1362 C1364 1.391 . S
C1363 C1362 1.386 . S
C1363 C1367 1.393 . S
C1364 H1353 0.950 . S
C1364 C1362 1.391 . S
C1364 C1365 1.400 . S
C1365 C1359 1.491 . S
C1365 C1364 1.400 . S
C1365 C1366 1.398 . S
C1366 H1354 0.950 . S
C1366 C1365 1.398 . S
C1366 C1367 1.391 . S
C1367 H1355 0.950 . S
C1367 C1363 1.393 . S
C1367 C1366 1.391 . S
C657 C122 1.283 . S
C663 C4 1.275 . S
C677 C148 1.238 . S
C683 C50 1.277 . S
C697 C76 1.274 . S
C703 C184 1.266 . S
C717 C86 1.261 . S
C723 C194 1.261 . S
C737 C14 1.305 . S
C743 C112 1.278 . S
C757 C158 1.289 . S
C763 C40 1.243 . S
C777 C328 1.295 . S
C783 C220 1.299 . S
C797 C266 1.286 . S
C803 C364 1.253 . S
C817 C302 1.293 . S
C823 C400 1.266 . S
C837 C410 1.282 1_556 S
C843 C292 1.250 . S
C857 C338 1.273 . S
C863 C230 1.274 . S
C877 C374 1.285 1_556 S
C883 C256 1.249 . S
C897 C436 1.290 . S
C903 C554 1.290 . S
C917 C482 1.292 . S
C923 C580 1.275 . S
C937 C508 1.293 . S
C943 C616 1.284 . S
C957 C626 1.271 . S
C963 C518 1.273 1_554 S
C977 C544 1.286 . S
C983 C446 1.292 1_554 S
C997 C590 1.294 . S
C1003 C472 1.257 . S
C1017 C3 1.254 . S
C1023 C255 1.261 . S
C1037 C38 1.210 . S
C1043 C291 1.226 . S
C1057 C218 1.218 . S
C1063 C75 1.234 . S
C1077 C74 1.192 . S
C1083 C470 1.190 1_554 S
C1097 C507 1.241 . S
C1103 C2 1.190 . S
C1117 C435 1.251 . S
C1123 C39 1.240 . S
C1137 C578 1.213 . S
C1143 C110 1.181 . S
C1157 C147 1.225 . S
C1163 C614 1.212 . S
C1177 C543 1.269 . S
C1183 C183 1.261 . S
C1197 C363 1.252 . S
C1203 C182 1.218 . S
C1217 C111 1.249 . S
C1223 C399 1.249 . S
C1237 C146 1.197 . S
C1243 C327 1.241 1_556 S
C1257 C219 1.272 . S
C1263 C471 1.247 . S
C1277 C254 1.179 . S
C1283 C506 1.208 . S
C1297 C290 1.197 . S
C1303 C434 1.171 . S
C1317 C579 1.229 . S
C1323 C398 1.202 . S
C1337 C615 1.247 . S
C1343 C326 1.245 . S
C1357 C362 1.150 1_545 S
C1363 C542 1.174 . S
