# Generated by pormake.
# Topology umy, (4)-cn, num edge types: 1
# Building blocks:
#     Node 0, Type 0, BuildingBlock: KUFVIS_clean_sbu_0, # of connection points: 4
#     Node 1, Type 0, BuildingBlock: KUFVIS_clean_sbu_0, # of connection points: 4
#     Node 2, Type 0, BuildingBlock: KUFVIS_clean_sbu_0, # of connection points: 4
#     Node 3, Type 0, BuildingBlock: KUFVIS_clean_sbu_0, # of connection points: 4
#     Node 4, Type 0, BuildingBlock: KUFVIS_clean_sbu_0, # of connection points: 4
#     Node 5, Type 0, BuildingBlock: KUFVIS_clean_sbu_0, # of connection points: 4
#     Node 6, Type 0, BuildingBlock: KUFVIS_clean_sbu_0, # of connection points: 4
#     Node 7, Type 0, BuildingBlock: KUFVIS_clean_sbu_0, # of connection points: 4
#     Node 8, Type 0, BuildingBlock: KUFVIS_clean_sbu_0, # of connection points: 4
#     Node 9, Type 0, BuildingBlock: KUFVIS_clean_sbu_0, # of connection points: 4
#     Node 10, Type 0, BuildingBlock: KUFVIS_clean_sbu_0, # of connection points: 4
#     Node 11, Type 0, BuildingBlock: KUFVIS_clean_sbu_0, # of connection points: 4
#     Edge 12, Type (0, 0), BuildingBlock: KIFKEQ_clean_linker_1, # of connection points: 2
#     Edge 13, Type (0, 0), BuildingBlock: KIFKEQ_clean_linker_1, # of connection points: 2
#     Edge 14, Type (0, 0), BuildingBlock: KIFKEQ_clean_linker_1, # of connection points: 2
#     Edge 15, Type (0, 0), BuildingBlock: KIFKEQ_clean_linker_1, # of connection points: 2
#     Edge 16, Type (0, 0), BuildingBlock: KIFKEQ_clean_linker_1, # of connection points: 2
#     Edge 17, Type (0, 0), BuildingBlock: KIFKEQ_clean_linker_1, # of connection points: 2
#     Edge 18, Type (0, 0), BuildingBlock: KIFKEQ_clean_linker_1, # of connection points: 2
#     Edge 19, Type (0, 0), BuildingBlock: KIFKEQ_clean_linker_1, # of connection points: 2
#     Edge 20, Type (0, 0), BuildingBlock: KIFKEQ_clean_linker_1, # of connection points: 2
#     Edge 21, Type (0, 0), BuildingBlock: KIFKEQ_clean_linker_1, # of connection points: 2
#     Edge 22, Type (0, 0), BuildingBlock: KIFKEQ_clean_linker_1, # of connection points: 2
#     Edge 23, Type (0, 0), BuildingBlock: KIFKEQ_clean_linker_1, # of connection points: 2
#     Edge 24, Type (0, 0), BuildingBlock: KIFKEQ_clean_linker_1, # of connection points: 2
#     Edge 25, Type (0, 0), BuildingBlock: KIFKEQ_clean_linker_1, # of connection points: 2
#     Edge 26, Type (0, 0), BuildingBlock: KIFKEQ_clean_linker_1, # of connection points: 2
#     Edge 27, Type (0, 0), BuildingBlock: KIFKEQ_clean_linker_1, # of connection points: 2
#     Edge 28, Type (0, 0), BuildingBlock: KIFKEQ_clean_linker_1, # of connection points: 2
#     Edge 29, Type (0, 0), BuildingBlock: KIFKEQ_clean_linker_1, # of connection points: 2
#     Edge 30, Type (0, 0), BuildingBlock: KIFKEQ_clean_linker_1, # of connection points: 2
#     Edge 31, Type (0, 0), BuildingBlock: KIFKEQ_clean_linker_1, # of connection points: 2
#     Edge 32, Type (0, 0), BuildingBlock: KIFKEQ_clean_linker_1, # of connection points: 2
#     Edge 33, Type (0, 0), BuildingBlock: KIFKEQ_clean_linker_1, # of connection points: 2
#     Edge 34, Type (0, 0), BuildingBlock: KIFKEQ_clean_linker_1, # of connection points: 2
#     Edge 35, Type (0, 0), BuildingBlock: KIFKEQ_clean_linker_1, # of connection points: 2
# Relax obj value: 0.093
# Max RMSD: 0.078
# Mean RMSD: 0.078
data_MOF--net-umy--node1-KUFVIS_clean_sbu_0--edge1-KIFKEQ_clean_linker_1
_symmetry_space_group_name_H-M    P1
_symmetry_Int_Tables_number       1
_symmetry_cell_setting            triclinic
loop_
_symmetry_equiv_pos_as_xyz
'x, y, z'
_cell_length_a     38.643477
_cell_length_b     38.67811
_cell_length_c     51.919954
_cell_angle_alpha  89.975533
_cell_angle_beta   90.029334
_cell_angle_gamma 120.03126
loop_
_atom_site_label
_atom_site_type_symbol
_atom_site_fract_x
_atom_site_fract_y
_atom_site_fract_z
_atom_type_partial_charge
Mn0 Mn 0.0806 0.35574 0.14059 0.0
Mn1 Mn 0.16778 0.4432 0.1419 0.0
C2 C 0.12952 0.36647 0.17059 0.0
C3 C 1.0148 0.31554 0.15499 0.0
C4 C 0.14856 0.37919 0.10166 0.0
O5 O 0.06718 0.3931 0.12029 0.0
O6 O 0.12639 0.4504 0.12424 0.0
C7 C 0.14495 0.48973 0.17607 0.0
N8 N 0.16895 0.47417 0.17085 0.0
C9 C 0.20863 0.50464 0.20864 0.0
C10 C 0.1845 0.5212 0.21438 0.0
C11 C 0.1524 0.51354 0.19808 0.0
C12 C 0.19966 0.48102 0.18653 0.0
H13 H 0.12042 0.48412 0.16348 0.0
C14 C 0.09005 0.43059 0.11653 0.0
O15 O 0.02701 0.30757 0.13368 0.0
O16 O 0.04015 0.34759 0.16712 0.0
N17 N 0.21016 0.44004 0.1587 0.0
C18 C 0.2297 0.42071 0.15093 0.0
C19 C 0.26165 0.42399 0.16571 0.0
C20 C 0.27345 0.44746 0.18812 0.0
C21 C 0.2532 0.46747 0.19552 0.0
C22 C 0.22151 0.46298 0.18009 0.0
H23 H 0.22085 0.40273 0.13367 0.0
O24 O 0.10261 0.33045 0.16424 0.0
O25 O 0.12715 0.39498 0.15909 0.0
O26 O 0.11421 0.35337 0.11034 0.0
O27 O 0.17003 0.41346 0.11188 0.0
C28 C 0.26322 0.49169 0.21759 0.0
C29 C 0.24115 0.51053 0.22404 0.0
H30 H 0.19021 0.53964 0.23131 0.0
H31 H 0.13355 0.5261 0.20241 0.0
H32 H 0.27715 0.40848 0.15984 0.0
H33 H 0.29806 0.44987 0.19952 0.0
H34 H 0.28792 0.496 0.22964 0.0
H35 H 0.2494 0.5296 0.24081 0.0
Mn36 Mn 0.73892 0.07497 0.30617 0.0
Mn37 Mn 0.73353 0.15932 0.30714 0.0
C38 C 0.77648 0.12519 0.33553 0.0
C39 C 0.71542 1.00974 0.32097 0.0
C40 C 0.77903 0.14182 0.26627 0.0
O41 O 0.68734 0.05919 0.28621 0.0
O42 O 0.68412 0.11559 0.29148 0.0
C43 C 0.66653 0.13602 0.34358 0.0
N44 N 0.70543 0.16083 0.33696 0.0
C45 C 0.71598 0.20257 0.37384 0.0
C46 C 0.67597 0.17762 0.38099 0.0
C47 C 0.65121 0.14406 0.36587 0.0
C48 C 0.72964 0.19291 0.35155 0.0
H49 H 0.64732 0.1104 0.33187 0.0
C50 C 0.66973 0.07955 0.2837 0.0
O51 O 0.73543 0.02216 0.29959 0.0
O52 O 0.70804 0.03463 0.33305 0.0
N53 N 0.77955 0.20358 0.32223 0.0
C54 C 0.81784 0.22366 0.31329 0.0
C55 C 0.84688 0.25694 0.32693 0.0
C56 C 0.83614 0.26952 0.34938 0.0
C57 C 0.79646 0.24863 0.35802 0.0
C58 C 0.76889 0.21552 0.34376 0.0
H59 H 0.82625 0.21427 0.29598 0.0
O60 O 0.78677 0.09907 0.3294 0.0
O61 O 0.7446 0.12103 0.32434 0.0
O62 O 0.77358 0.10889 0.27567 0.0
O63 O 0.76382 0.16144 0.2761 0.0
C64 C 0.78318 0.25942 0.3802 0.0
C65 C 0.74287 0.23662 0.38797 0.0
H66 H 0.66402 0.18382 0.39813 0.0
H67 H 0.62033 0.12458 0.3713 0.0
H68 H 0.87743 0.2729 0.32011 0.0
H69 H 0.8586 0.29523 0.35985 0.0
H70 H 0.8038 0.28531 0.39129 0.0
H71 H 0.73273 0.24552 0.40478 0.0
Mn72 Mn 0.67673 0.73312 0.4721 0.0
Mn73 Mn 0.58655 0.72703 0.47156 0.0
C74 C 0.66268 0.7703 0.50085 0.0
C75 C 0.71868 0.71053 0.48795 0.0
C76 C 0.65075 0.7728 0.43138 0.0
O77 O 0.64177 0.68134 0.45215 0.0
O78 O 0.5818 0.67793 0.45614 0.0
C79 C 0.54218 0.65987 0.50778 0.0
N80 N 0.55618 0.6987 0.50113 0.0
C81 C 0.52449 0.70904 0.53783 0.0
C82 C 0.50952 0.66909 0.54501 0.0
C83 C 0.51858 0.64446 0.52998 0.0
C84 C 0.54795 0.72276 0.51558 0.0
H85 H 0.54889 0.64078 0.49619 0.0
C86 C 0.60386 0.66366 0.449 0.0
O87 O 0.72664 0.73027 0.46644 0.0
O88 O 0.68587 0.70276 0.4995 0.0
N89 N 0.58747 0.77276 0.48639 0.0
C90 C 0.60563 0.81102 0.47745 0.0
C91 C 0.60097 0.83989 0.49094 0.0
C92 C 0.57739 0.82904 0.51329 0.0
C93 C 0.55869 0.78941 0.52195 0.0
C94 C 0.56453 0.76197 0.50778 0.0
H95 H 0.62371 0.81954 0.46024 0.0
O96 O 0.69939 0.78101 0.49521 0.0
O97 O 0.6355 0.73835 0.48947 0.0
O98 O 0.678 0.76741 0.44124 0.0
O99 O 0.61559 0.75755 0.44078 0.0
C100 C 0.53455 0.77607 0.54411 0.0
C101 C 0.51718 0.73583 0.55193 0.0
H102 H 0.49127 0.65709 0.56211 0.0
H103 H 0.50727 0.61363 0.53544 0.0
H104 H 0.6155 0.87041 0.48411 0.0
H105 H 0.5739 0.85139 0.52368 0.0
H106 H 0.52916 0.79661 0.55519 0.0
H107 H 0.49821 0.72571 0.56879 0.0
Mn108 Mn 0.9567 0.66877 0.63991 0.0
Mn109 Mn 0.86943 0.58136 0.64037 0.0
C110 C 0.90728 0.65761 0.66957 0.0
C111 C 0.02225 0.70847 0.65499 0.0
C112 C 0.88942 0.64611 0.60052 0.0
O113 O 0.97036 0.63173 0.61949 0.0
O114 O 0.91108 0.57437 0.62292 0.0
C115 C 0.89149 0.53412 0.67449 0.0
N116 N 0.86766 0.54986 0.66919 0.0
C117 C 0.82726 0.51879 0.70662 0.0
C118 C 0.85121 0.50205 0.71243 0.0
C119 C 0.88359 0.50992 0.69636 0.0
C120 C 0.83668 0.5428 0.68466 0.0
H121 H 0.91623 0.5399 0.66207 0.0
C122 C 0.94753 0.59431 0.61547 0.0
O123 O 1.01057 0.717 0.63364 0.0
O124 O 0.99653 0.67619 0.66674 0.0
N125 N 0.8268 0.58434 0.65693 0.0
C126 C 0.80747 0.60387 0.64911 0.0
C127 C 0.77529 0.60042 0.66369 0.0
C128 C 0.76304 0.57656 0.68594 0.0
C129 C 0.78308 0.55634 0.69337 0.0
C130 C 0.81502 0.56103 0.67816 0.0
H131 H 0.81667 0.62214 0.63198 0.0
O132 O 0.93438 0.69372 0.66355 0.0
O133 O 0.90978 0.62926 0.65796 0.0
O134 O 0.92364 0.67181 0.60948 0.0
O135 O 0.86781 0.61166 0.61048 0.0
C136 C 0.7726 0.53173 0.71529 0.0
C137 C 0.79448 0.5127 0.7218 0.0
H138 H 0.84515 0.48329 0.72926 0.0
H139 H 0.90229 0.49721 0.70075 0.0
H140 H 0.75996 0.61609 0.65779 0.0
H141 H 0.73825 0.57401 0.69717 0.0
H142 H 0.7477 0.52726 0.72717 0.0
H143 H 0.78588 0.49335 0.73845 0.0
Mn144 Mn 0.29684 0.94758 0.80805 0.0
Mn145 Mn 0.30199 0.86311 0.80968 0.0
C146 C 0.25929 0.89783 0.83767 0.0
C147 C 0.32053 0.013 0.82253 0.0
C148 C 0.25634 0.8801 0.76858 0.0
O149 O 0.34827 0.96295 0.78806 0.0
O150 O 0.35129 0.9065 0.79369 0.0
C151 C 0.36931 0.88713 0.846 0.0
N152 N 0.33036 0.86218 0.83956 0.0
C153 C 0.32003 0.8214 0.87694 0.0
C154 C 0.3601 0.84651 0.88392 0.0
C155 C 0.38478 0.87965 0.86845 0.0
C156 C 0.30624 0.83048 0.85445 0.0
H157 H 0.38844 0.91245 0.83405 0.0
C158 C 0.36573 0.94244 0.78568 0.0
O159 O 0.30046 1.00041 0.80117 0.0
O160 O 0.3279 0.98819 0.83474 0.0
N161 N 0.25611 0.81914 0.82511 0.0
C162 C 0.21776 0.79883 0.81627 0.0
C163 C 0.18882 0.76588 0.83021 0.0
C164 C 0.1997 0.75388 0.85287 0.0
C165 C 0.23944 0.77498 0.8614 0.0
C166 C 0.26692 0.80771 0.84681 0.0
H167 H 0.20923 0.80779 0.79881 0.0
O168 O 0.24908 0.92392 0.83132 0.0
O169 O 0.2911 0.90172 0.82654 0.0
O170 O 0.26204 0.91327 0.77768 0.0
O171 O 0.27141 0.86047 0.77863 0.0
C172 C 0.25285 0.7648 0.8838 0.0
C173 C 0.29322 0.78778 0.89143 0.0
H174 H 0.37216 0.84076 0.90119 0.0
H175 H 0.4157 0.89925 0.87375 0.0
H176 H 0.15822 0.74975 0.82347 0.0
H177 H 0.17731 0.72846 0.86359 0.0
H178 H 0.23229 0.73925 0.89516 0.0
H179 H 0.30345 0.77937 0.90843 0.0
Mn180 Mn 0.35944 0.29055 0.97301 0.0
Mn181 Mn 0.44933 0.29604 0.97283 0.0
C182 C 0.37313 0.25347 1.0021 0.0
C183 C 0.318 0.31389 0.9886 0.0
C184 C 0.38507 0.25011 0.93267 0.0
O185 O 0.39462 0.34195 0.95278 0.0
O186 O 0.45444 0.34513 0.9571 0.0
C187 C 0.49388 0.36347 0.00881 0.0
N188 N 0.47972 0.32454 1.00235 0.0
C189 C 0.51094 0.31427 0.03936 0.0
C190 C 0.52608 0.35431 0.04635 0.0
C191 C 0.51734 0.37897 0.03107 0.0
C192 C 0.48764 0.30047 0.01704 0.0
H193 H 0.4874 0.38256 0.99704 0.0
C194 C 0.43252 0.35946 0.94971 0.0
O195 O 0.30977 0.29383 0.96721 0.0
O196 O 0.35076 0.3215 1.00016 0.0
N197 N 0.44807 0.25031 0.98796 0.0
C198 C 0.42976 0.21196 0.97918 0.0
C199 C 0.4341 0.18308 0.99292 0.0
C200 C 0.45751 0.19399 0.01537 0.0
C201 C 0.47637 0.23372 0.02386 0.0
C202 C 0.47089 0.26117 0.00943 0.0
H203 H 0.4118 0.20338 0.96191 0.0
O204 O 0.33648 0.24295 0.99641 0.0
O205 O 0.40045 0.28518 0.99057 0.0
O206 O 0.35789 0.25573 0.9424 0.0
O207 O 0.42021 0.26531 0.94211 0.0
C208 C 0.50033 0.24711 0.04611 0.0
C209 C 0.51787 0.28744 0.05374 0.0
H210 H 0.54421 0.36637 0.0635 0.0
H211 H 0.52879 0.40987 0.03638 0.0
H212 H 0.41944 0.15249 0.98622 0.0
H213 H 0.46073 0.17162 0.02596 0.0
H214 H 0.50541 0.22655 0.05741 0.0
H215 H 0.53669 0.29762 0.07067 0.0
Mn216 Mn 0.6735 0.94649 0.6971 0.0
Mn217 Mn 0.58369 0.86199 0.696 0.0
C218 C 0.66066 0.89665 0.66749 0.0
C219 C 0.71542 0.0117 0.68241 0.0
C220 C 0.64702 0.87913 0.73662 0.0
O221 O 0.63779 0.96206 0.71728 0.0
O222 O 0.57817 0.90538 0.7123 0.0
C223 C 0.54009 0.88625 0.66014 0.0
N224 N 0.55402 0.8612 0.66635 0.0
C225 C 0.52397 0.82126 0.62859 0.0
C226 C 0.50907 0.84647 0.62185 0.0
C227 C 0.51732 0.87921 0.63764 0.0
C228 C 0.54654 0.82981 0.65119 0.0
H229 H 0.54624 0.91136 0.67228 0.0
C230 C 0.59985 0.94143 0.72009 0.0
O231 O 0.72301 0.99918 0.70375 0.0
O232 O 0.68295 0.987 0.67039 0.0
N233 N 0.58527 0.81805 0.68032 0.0
C234 C 0.60324 0.7976 0.68896 0.0
C235 C 0.59924 0.76489 0.67477 0.0
C236 C 0.57653 0.75333 0.65202 0.0
C237 C 0.55799 0.77459 0.64369 0.0
C238 C 0.56306 0.80695 0.65859 0.0
H239 H 0.62068 0.80627 0.70645 0.0
O240 O 0.69713 0.92263 0.67366 0.0
O241 O 0.63298 0.90063 0.67886 0.0
O242 O 0.67428 0.91235 0.72741 0.0
O243 O 0.61214 0.85931 0.72678 0.0
C244 C 0.53478 0.76499 0.62114 0.0
C245 C 0.51753 0.78814 0.61369 0.0
H246 H 0.49149 0.84112 0.60451 0.0
H247 H 0.50607 0.89891 0.63252 0.0
H248 H 0.61365 0.74864 0.68135 0.0
H249 H 0.57361 0.72817 0.64108 0.0
H250 H 0.53008 0.73984 0.60946 0.0
H251 H 0.49933 0.78026 0.5965 0.0
Mn252 Mn 0.73717 0.66787 0.86399 0.0
Mn253 Mn 0.7328 0.57857 0.86383 0.0
C254 C 0.77527 0.65534 0.83508 0.0
C255 C 0.71309 0.70879 0.84852 0.0
C256 C 0.7779 0.64238 0.90434 0.0
O257 O 0.68559 0.63204 0.88385 0.0
O258 O 0.68339 0.57276 0.8796 0.0
C259 C 0.66551 0.53395 0.82772 0.0
N260 N 0.7045 0.54835 0.83423 0.0
C261 C 0.71505 0.51709 0.79738 0.0
C262 C 0.67494 0.50171 0.79034 0.0
C263 C 0.65013 0.51037 0.80551 0.0
C264 C 0.72875 0.54058 0.81962 0.0
H265 H 0.64627 0.54031 0.83943 0.0
C266 C 0.66854 0.59421 0.88692 0.0
O267 O 0.73296 0.71695 0.87 0.0
O268 O 0.7062 0.67646 0.83674 0.0
N269 N 0.77881 0.58037 0.84872 0.0
C270 C 0.81717 0.59885 0.85756 0.0
C271 C 0.84622 0.59468 0.84391 0.0
C272 C 0.83545 0.57119 0.82152 0.0
C273 C 0.7957 0.55212 0.81298 0.0
C274 C 0.76809 0.55754 0.82728 0.0
H275 H 0.82561 0.61681 0.87482 0.0
O276 O 0.78517 0.69172 0.84096 0.0
O277 O 0.74344 0.62753 0.84626 0.0
O278 O 0.7718 0.66938 0.8948 0.0
O279 O 0.7633 0.60752 0.89462 0.0
C280 C 0.78239 0.52791 0.79086 0.0
C281 C 0.742 0.51013 0.78319 0.0
H282 H 0.66295 0.48342 0.77326 0.0
H283 H 0.61917 0.49873 0.80016 0.0
H284 H 0.87683 0.60949 0.85064 0.0
H285 H 0.85794 0.56805 0.81102 0.0
H286 H 0.80305 0.52278 0.77972 0.0
H287 H 0.73187 0.49107 0.76637 0.0
Mn288 Mn 0.07778 0.7323 0.03325 0.0
Mn289 Mn 0.16449 0.73106 0.03337 0.0
C290 C 0.12774 0.77024 0.0038 0.0
C291 C 1.01246 0.70702 0.01791 0.0
C292 C 0.14454 0.77605 0.07303 0.0
O293 O 0.0634 0.68144 0.05374 0.0
O294 O 0.12224 0.68236 0.05044 0.0
C295 C 0.14269 0.66209 0.99903 0.0
N296 N 0.16659 0.70156 0.00454 0.0
C297 C 0.20788 0.71104 0.96757 0.0
C298 C 0.18386 0.67044 0.96154 0.0
C299 C 0.15099 0.64591 0.97728 0.0
C300 C 0.19803 0.72551 0.98939 0.0
H301 H 0.11759 0.6431 0.01121 0.0
C302 C 0.08576 0.6663 0.05776 0.0
O303 O 0.02411 0.72725 0.03924 0.0
O304 O 0.03808 0.70016 0.0063 0.0
N305 N 0.20763 0.77672 0.01719 0.0
C306 C 0.22695 0.81551 0.02516 0.0
C307 C 0.25956 0.84427 0.01089 0.0
C308 C 0.27225 0.83277 0.9888 0.0
C309 C 0.25218 0.79259 0.98121 0.0
C310 C 0.21977 0.7653 0.9961 0.0
H311 H 0.21743 0.82449 0.04217 0.0
O312 O 0.10082 0.77961 0.00958 0.0
O313 O 0.12472 0.73922 0.01549 0.0
O314 O 0.1107 0.76821 0.06375 0.0
O315 O 0.16586 0.7627 0.06332 0.0
C316 C 0.2631 0.77856 0.95946 0.0
C317 C 0.24117 0.73773 0.95277 0.0
H318 H 0.19024 0.65783 0.94482 0.0
H319 H 0.13223 0.61457 0.97272 0.0
H320 H 0.27489 0.87521 0.01691 0.0
H321 H 0.29739 0.85503 0.97782 0.0
H322 H 0.28841 0.79901 0.94787 0.0
H323 H 0.25013 0.72705 0.93625 0.0
Mn324 Mn 0.36157 0.07701 0.19827 0.0
Mn325 Mn 0.45182 0.16101 0.19751 0.0
C326 C 0.37493 0.12745 0.169 0.0
C327 C 0.31893 0.01213 0.18332 0.0
C328 C 0.38867 0.14388 0.2382 0.0
O329 O 0.39694 0.06061 0.21813 0.0
O330 O 0.45681 0.11709 0.21347 0.0
C331 C 0.49499 0.13673 0.16134 0.0
N332 N 0.48137 0.16194 0.16778 0.0
C333 C 0.51179 0.20239 0.13025 0.0
C334 C 0.52637 0.17701 0.12328 0.0
C335 C 0.51777 0.14393 0.13885 0.0
C336 C 0.48918 0.19366 0.15283 0.0
H337 H 0.48859 0.11137 0.17331 0.0
C338 C 0.43489 0.08093 0.221 0.0
O339 O 0.31172 0.0246 0.2048 0.0
O340 O 0.35146 0.03667 0.17129 0.0
N341 N 0.45071 0.20543 0.18215 0.0
C342 C 0.43302 0.22603 0.19098 0.0
C343 C 0.43738 0.25909 0.17704 0.0
C344 C 0.46016 0.27084 0.15433 0.0
C345 C 0.4784 0.24942 0.14579 0.0
C346 C 0.47297 0.21669 0.16045 0.0
H347 H 0.41553 0.21721 0.20845 0.0
O348 O 0.33837 0.10169 0.17513 0.0
O349 O 0.4024 0.12293 0.18023 0.0
O350 O 0.36125 0.11089 0.22884 0.0
O351 O 0.42357 0.16361 0.2284 0.0
C352 C 0.50168 0.25921 0.12327 0.0
C353 C 0.5186 0.23587 0.1156 0.0
H354 H 0.54396 0.18248 0.10595 0.0
H355 H 0.52879 0.12411 0.13355 0.0
H356 H 0.4232 0.27546 0.18378 0.0
H357 H 0.46337 0.2963 0.14358 0.0
H358 H 0.50668 0.28465 0.11179 0.0
H359 H 0.53684 0.24388 0.09843 0.0
Mn360 Mn 0.2983 0.35468 0.36546 0.0
Mn361 Mn 0.30279 0.44402 0.36554 0.0
C362 C 0.26024 0.36744 0.33659 0.0
C363 C 0.32239 0.31382 0.34998 0.0
C364 C 0.25775 0.38002 0.40594 0.0
O365 O 0.34991 0.3904 0.38536 0.0
O366 O 0.3523 0.44978 0.38112 0.0
C367 C 0.36986 0.48888 0.32934 0.0
N368 N 0.33089 0.4744 0.33594 0.0
C369 C 0.32016 0.50606 0.29938 0.0
C370 C 0.36023 0.52153 0.29224 0.0
C371 C 0.38512 0.5127 0.30722 0.0
C372 C 0.30656 0.48231 0.3215 0.0
H373 H 0.38916 0.48242 0.34093 0.0
C374 C 0.36709 0.42824 0.38841 0.0
O375 O 0.30246 0.30559 0.37143 0.0
O376 O 0.32927 0.34617 0.33821 0.0
N377 N 0.25666 0.44223 0.3506 0.0
C378 C 0.21833 0.4236 0.35949 0.0
C379 C 0.18919 0.42785 0.34598 0.0
C380 C 0.19985 0.4516 0.32371 0.0
C381 C 0.23958 0.47081 0.31512 0.0
C382 C 0.26726 0.46525 0.32925 0.0
H383 H 0.20997 0.40545 0.37666 0.0
O384 O 0.25031 0.331 0.34239 0.0
O385 O 0.29208 0.39515 0.34783 0.0
O386 O 0.26366 0.353 0.39627 0.0
O387 O 0.27249 0.41498 0.39635 0.0
C388 C 0.25279 0.49531 0.29312 0.0
C389 C 0.29315 0.51322 0.28538 0.0
H390 H 0.37214 0.54002 0.27523 0.0
H391 H 0.41605 0.5244 0.3018 0.0
H392 H 0.15861 0.41293 0.35276 0.0
H393 H 0.17731 0.45484 0.31333 0.0
H394 H 0.23208 0.50059 0.28213 0.0
H395 H 0.30322 0.53252 0.26868 0.0
Mn396 Mn 0.95598 0.29085 0.53186 0.0
Mn397 Mn 0.86938 0.29229 0.53093 0.0
C398 C 0.90665 0.25309 0.50198 0.0
C399 C 0.0216 0.31594 0.51727 0.0
C400 C 0.8883 0.24704 0.57104 0.0
O401 O 0.97005 0.34168 0.55226 0.0
O402 O 0.9113 0.34079 0.54837 0.0
C403 C 0.89236 0.36156 0.49661 0.0
N404 N 0.86816 0.32207 0.50197 0.0
C405 C 0.82801 0.313 0.46443 0.0
C406 C 0.85235 0.35361 0.45855 0.0
C407 C 0.88479 0.37795 0.47465 0.0
C408 C 0.83713 0.29831 0.48648 0.0
H409 H 0.91715 0.38039 0.50905 0.0
C410 C 0.94763 0.35681 0.55603 0.0
O411 O 1.00937 0.29565 0.53855 0.0
O412 O 0.99638 0.32297 0.50525 0.0
N413 N 0.82655 0.24685 0.51437 0.0
C414 C 0.80685 0.20802 0.52225 0.0
C415 C 0.77457 0.17944 0.50766 0.0
C416 C 0.7626 0.19116 0.48533 0.0
C417 C 0.78304 0.23138 0.47783 0.0
C418 C 0.81508 0.25849 0.49305 0.0
H419 H 0.81583 0.19886 0.53945 0.0
O420 O 0.93336 0.2436 0.50816 0.0
O421 O 0.90949 0.28411 0.51356 0.0
O422 O 0.92235 0.25496 0.56214 0.0
O423 O 0.86715 0.26037 0.56098 0.0
C424 C 0.77286 0.24563 0.45583 0.0
C425 C 0.79513 0.28648 0.44926 0.0
H426 H 0.84654 0.36638 0.44166 0.0
H427 H 0.90379 0.40929 0.4702 0.0
H428 H 0.75894 0.14846 0.51361 0.0
H429 H 0.73773 0.16904 0.47409 0.0
H430 H 0.74787 0.22531 0.44397 0.0
H431 H 0.78674 0.29733 0.43255 0.0
H432 H 0.11656 0.65024 0.09944 0.0
H433 H 0.02146 0.5947 0.04365 0.0
H434 H 0.10491 0.58467 0.11262 0.0
H435 H 1.0101 0.5285 0.05675 0.0
H436 H 0.02022 0.43083 0.12596 0.0
H437 H 1.00612 0.48401 0.11307 0.0
H438 H 0.11276 0.53776 0.06648 0.0
H439 H 0.12701 0.48551 0.07937 0.0
C440 C 0.09203 0.62382 0.09079 0.0
C441 C 0.0697 0.62736 0.07071 0.0
C442 C 0.08545 0.58639 0.09826 0.0
C443 C 0.05667 0.55179 0.08565 0.0
C444 C 0.03209 0.55485 0.06693 0.0
C445 C 0.03846 0.59258 0.05955 0.0
C446 C 0.03962 0.45314 0.11215 0.0
C447 C 0.07469 0.4542 0.10362 0.0
C448 C 0.03166 0.48352 0.10491 0.0
C449 C 0.05851 0.51479 0.0889 0.0
C450 C 0.09165 0.51384 0.0788 0.0
C451 C 0.09973 0.48396 0.08614 0.0
H452 H 0.64904 0.08383 0.23445 0.0
H453 H 0.60017 0.0369 0.30936 0.0
H454 H 0.58324 0.07016 0.2197 0.0
H455 H 0.53412 0.02317 0.29481 0.0
H456 H 0.46164 0.08763 0.26993 0.0
H457 H 0.51313 0.07322 0.28482 0.0
H458 H 0.51119 0.02115 0.21086 0.0
H459 H 0.45941 0.03559 0.19616 0.0
C460 C 0.62372 0.06898 0.24736 0.0
C461 C 0.62925 0.06074 0.27282 0.0
C462 C 0.58606 0.0612 0.23899 0.0
C463 C 0.55346 0.04573 0.25614 0.0
C464 C 0.55866 0.03524 0.2812 0.0
C465 C 0.59626 0.04269 0.28946 0.0
C466 C 0.47106 0.07155 0.25733 0.0
C467 C 0.45625 0.062 0.23215 0.0
C468 C 0.50058 0.06334 0.26578 0.0
C469 C 0.51637 0.04614 0.24897 0.0
C470 C 0.49974 0.03452 0.22421 0.0
C471 C 0.46986 0.04236 0.21589 0.0
H472 H 0.57837 0.59456 0.47488 0.0
H473 H 0.57824 0.64233 0.39993 0.0
H474 H 0.52586 0.52829 0.46087 0.0
H475 H 0.52606 0.57626 0.38569 0.0
H476 H 0.43665 0.45167 0.36337 0.0
H477 H 0.50326 0.50356 0.37748 0.0
H478 H 0.45419 0.50811 0.4513 0.0
H479 H 0.38785 0.45664 0.43695 0.0
C480 C 0.56827 0.59036 0.45505 0.0
C481 C 0.58262 0.62311 0.43827 0.0
C482 C 0.538 0.55263 0.44712 0.0
C483 C 0.52171 0.54707 0.42222 0.0
C484 C 0.53833 0.5794 0.40487 0.0
C485 C 0.56826 0.6172 0.41294 0.0
C486 C 0.44063 0.46274 0.38294 0.0
C487 C 0.40755 0.44991 0.39931 0.0
C488 C 0.47857 0.49264 0.39093 0.0
C489 C 0.48398 0.50998 0.41548 0.0
C490 C 0.45117 0.49498 0.43242 0.0
C491 C 0.41321 0.4655 0.42429 0.0
H492 H 1.01517 0.59097 0.62673 0.0
H493 H 0.91269 0.54281 0.57632 0.0
H494 H 0.02795 0.53705 0.6136 0.0
H495 H 0.92569 0.48983 0.56314 0.0
H496 H 0.9142 0.37332 0.59604 0.0
H497 H 0.92706 0.43925 0.60929 0.0
H498 H 0.02704 0.49451 0.55707 0.0
H499 H 1.01442 0.42788 0.54389 0.0
C500 C 0.99659 0.57002 0.61202 0.0
C501 C 0.963 0.57094 0.60245 0.0
C502 C 1.0038 0.5392 0.60463 0.0
C503 C 0.97769 0.5095 0.58744 0.0
C504 C 0.94625 0.51256 0.57634 0.0
C505 C 0.93889 0.54286 0.58383 0.0
C506 C 0.93995 0.39954 0.58818 0.0
C507 C 0.96344 0.39565 0.56908 0.0
C508 C 0.94723 0.43717 0.59571 0.0
C509 C 0.97794 0.47169 0.58413 0.0
C510 C 1.00349 0.46819 0.56643 0.0
C511 C 0.99639 0.43022 0.55901 0.0
H512 H 0.57395 0.93421 0.76926 0.0
H513 H 0.57403 0.98619 0.69584 0.0
H514 H 0.52249 0.94812 0.78491 0.0
H515 H 0.52235 1.00021 0.71131 0.0
H516 H 0.38538 0.93838 0.73615 0.0
H517 H 0.45072 0.9517 0.72069 0.0
H518 H 0.50146 0.9976 0.79568 0.0
H519 H 0.43585 0.98412 0.81094 0.0
C520 C 0.56404 0.95015 0.7569 0.0
C521 C 0.57825 0.95984 0.73159 0.0
C522 C 0.53454 0.95808 0.76578 0.0
C523 C 0.5182 0.97517 0.74931 0.0
C524 C 0.53421 0.9869 0.72441 0.0
C525 C 0.56402 0.9793 0.71564 0.0
C526 C 0.41096 0.95288 0.7489 0.0
C527 C 0.40601 0.96089 0.77452 0.0
C528 C 0.44836 0.96047 0.74013 0.0
C529 C 0.48129 0.97555 0.75702 0.0
C530 C 0.47666 0.98578 0.78227 0.0
C531 C 0.4393 0.97849 0.79093 0.0
H532 H 0.45916 0.42896 0.97527 0.0
H533 H 0.4572 0.38002 0.90041 0.0
H534 H 0.51151 0.49492 0.96069 0.0
H535 H 0.50926 0.44578 0.88561 0.0
H536 H 0.59847 0.57006 0.8623 0.0
H537 H 0.53218 0.51827 0.87699 0.0
H538 H 0.58276 0.51502 0.95055 0.0
H539 H 0.64874 0.56643 0.93565 0.0
C540 C 0.4688 0.43284 0.95536 0.0
C541 C 0.4539 0.39985 0.93876 0.0
C542 C 0.49897 0.4704 0.94709 0.0
C543 C 0.51464 0.47554 0.92204 0.0
C544 C 0.49749 0.44297 0.9049 0.0
C545 C 0.46763 0.40534 0.91329 0.0
C546 C 0.59488 0.55928 0.88193 0.0
C547 C 0.62827 0.57249 0.89808 0.0
C548 C 0.55714 0.52944 0.89025 0.0
C549 C 0.55223 0.5125 0.9149 0.0
C550 C 0.58537 0.52784 0.9316 0.0
C551 C 0.62314 0.55728 0.92315 0.0
H552 H 0.1279 0.3049 0.08193 0.0
H553 H 0.21087 0.43094 0.07171 0.0
H554 H 0.16605 0.28967 0.05064 0.0
H555 H 0.24835 0.4157 0.04076 0.0
H556 H 0.3362 0.37017 0.02534 0.0
H557 H 0.29093 0.38521 0.04882 0.0
H558 H 0.19175 0.29806 0.00355 0.0
H559 H 0.23759 0.28296 0.9797 0.0
C560 C 0.15364 0.32932 0.07266 0.0
C561 C 0.16663 0.3691 0.0797 0.0
C562 C 0.17544 0.3206 0.05472 0.0
C563 C 0.21058 0.35151 0.04357 0.0
C564 C 0.22188 0.39122 0.04938 0.0
C565 C 0.20026 0.39989 0.06715 0.0
C566 C 0.30484 0.35452 0.02011 0.0
C567 C 0.29052 0.32549 1.0006 0.0
C568 C 0.27888 0.36324 0.03353 0.0
C569 C 0.23774 0.34289 0.02801 0.0
C570 C 0.22328 0.31411 0.00827 0.0
C571 C 0.24954 0.30574 0.9945 0.0
H572 H 0.83331 0.12279 0.2456 0.0
H573 H 0.78896 0.20502 0.23736 0.0
H574 H 0.88663 0.16242 0.21466 0.0
H575 H 0.8418 0.24408 0.20677 0.0
H576 H 0.97597 0.33294 0.19177 0.0
H577 H 0.91509 0.28701 0.21466 0.0
H578 H 0.90363 0.18936 0.16808 0.0
H579 H 0.96498 0.2358 0.14485 0.0
C580 C 0.83432 0.1487 0.23684 0.0
C581 C 0.80709 0.16093 0.24433 0.0
C582 C 0.86484 0.17137 0.21909 0.0
C583 C 0.86875 0.20672 0.20859 0.0
C584 C 0.84003 0.21742 0.21487 0.0
C585 C 0.80962 0.19485 0.23241 0.0
C586 C 0.96021 0.30181 0.18611 0.0
C587 C 0.97522 0.28804 0.16645 0.0
C588 C 0.92522 0.27546 0.19918 0.0
C589 C 0.90449 0.23452 0.19318 0.0
C590 C 0.91906 0.22072 0.1732 0.0
C591 C 0.95393 0.24733 0.15978 0.0
H592 H 0.59833 0.78264 0.40141 0.0
H593 H 0.72476 0.82733 0.41172 0.0
H594 H 0.61311 0.83584 0.37089 0.0
H595 H 0.73945 0.881 0.38088 0.0
H596 H 0.65849 0.97015 0.35719 0.0
H597 H 0.64311 0.90892 0.37968 0.0
H598 H 0.73106 0.89895 0.33403 0.0
H599 H 0.74642 0.9607 0.31115 0.0
C600 C 0.62935 0.80344 0.39692 0.0
C601 C 0.66038 0.80093 0.40941 0.0
C602 C 0.63776 0.83404 0.37941 0.0
C603 C 0.67742 0.86297 0.37378 0.0
C604 C 0.70856 0.85905 0.38481 0.0
C605 C 0.70013 0.82833 0.40251 0.0
C606 C 0.67422 0.95469 0.35165 0.0
C607 C 0.70359 0.97021 0.33235 0.0
C608 C 0.6653 0.91948 0.36449 0.0
C609 C 0.68582 0.89903 0.35861 0.0
C610 C 0.71487 0.91415 0.33902 0.0
C611 C 0.72341 0.94926 0.32581 0.0
H612 H 0.7012 0.65457 0.52485 0.0
H613 H 0.79918 0.74233 0.47908 0.0
H614 H 0.74702 0.64007 0.54823 0.0
H615 H 0.84556 0.72786 0.50287 0.0
H616 H 0.8281 0.59471 0.56983 0.0
H617 H 0.79035 0.6101 0.53916 0.0
H618 H 0.87112 0.73611 0.55049 0.0
H619 H 0.90948 0.72073 0.5816 0.0
C620 C 0.73253 0.67049 0.51959 0.0
C621 C 0.74652 0.69945 0.50004 0.0
C622 C 0.75881 0.6621 0.53295 0.0
C623 C 0.79992 0.68276 0.52736 0.0
C624 C 0.81405 0.71157 0.50764 0.0
C625 C 0.78749 0.71957 0.4939 0.0
C626 C 0.83834 0.6258 0.56564 0.0
C627 C 0.87156 0.65651 0.57857 0.0
C628 C 0.81656 0.63456 0.54803 0.0
C629 C 0.82734 0.67427 0.54273 0.0
C630 C 0.86214 0.70518 0.5542 0.0
C631 C 0.88408 0.69638 0.57201 0.0
H632 H 0.07309 0.78825 0.64536 0.0
H633 H 0.05954 0.69011 0.69235 0.0
H634 H 0.13394 0.83392 0.66932 0.0
H635 H 0.11985 0.73528 0.71601 0.0
H636 H 0.24545 0.81584 0.74047 0.0
H637 H 0.19312 0.77725 0.70946 0.0
H638 H 0.15031 0.86076 0.71566 0.0
H639 H 0.20319 0.89997 0.74698 0.0
C640 C 0.08346 0.77633 0.66047 0.0
C641 C 0.06159 0.73555 0.66693 0.0
C642 C 0.11805 0.80252 0.67432 0.0
C643 C 0.13174 0.78823 0.69454 0.0
C644 C 0.11043 0.74722 0.70035 0.0
C645 C 0.07575 0.7213 0.68683 0.0
C646 C 0.22533 0.8265 0.73508 0.0
C647 C 0.22834 0.86087 0.7466 0.0
C648 C 0.19519 0.80419 0.71729 0.0
C649 C 0.16719 0.81557 0.71038 0.0
C650 C 0.17154 0.85127 0.72056 0.0
C651 C 0.2018 0.8737 0.73854 0.0
H652 H 0.28928 0.06183 0.81269 0.0
H653 H 0.37775 0.05292 0.85853 0.0
H654 H 0.30454 0.12357 0.83554 0.0
H655 H 0.39303 0.11412 0.88099 0.0
H656 H 0.43745 0.24029 0.90272 0.0
H657 H 0.4227 0.18708 0.87225 0.0
H658 H 0.29635 0.14163 0.88235 0.0
H659 H 0.31101 0.19533 0.91314 0.0
C660 C 0.3124 0.0734 0.8273 0.0
C661 C 0.33239 0.05259 0.83379 0.0
C662 C 0.32088 0.10849 0.84049 0.0
C663 C 0.35004 0.12376 0.86002 0.0
C664 C 0.37075 0.10346 0.86585 0.0
C665 C 0.36188 0.06827 0.85303 0.0
C666 C 0.40643 0.21941 0.89827 0.0
C667 C 0.3754 0.22187 0.91077 0.0
C668 C 0.39804 0.18881 0.88079 0.0
C669 C 0.35839 0.15979 0.87519 0.0
C670 C 0.32723 0.16364 0.88624 0.0
C671 C 0.33565 0.19438 0.90392 0.0
H672 H 0.6573 0.69043 0.81129 0.0
H673 H 0.74193 0.78852 0.85837 0.0
H674 H 0.64132 0.73533 0.78818 0.0
H675 H 0.72588 0.83396 0.83492 0.0
H676 H 0.72059 0.89988 0.75767 0.0
H677 H 0.73535 0.86111 0.78863 0.0
H678 H 0.60928 0.77641 0.79561 0.0
H679 H 0.59445 0.81456 0.76492 0.0
C680 C 0.67217 0.72157 0.81692 0.0
C681 C 0.70081 0.73589 0.83671 0.0
C682 C 0.66289 0.74732 0.80372 0.0
C683 C 0.68227 0.78823 0.80974 0.0
C684 C 0.71057 0.80262 0.8298 0.0
C685 C 0.7195 0.77658 0.84334 0.0
C686 C 0.69599 0.87344 0.7662 0.0
C687 C 0.65637 0.86013 0.75844 0.0
C688 C 0.70446 0.85127 0.78398 0.0
C689 C 0.67349 0.81537 0.79426 0.0
C690 C 0.63385 0.80353 0.78768 0.0
C691 C 0.62539 0.82557 0.77008 0.0
H692 H 0.78831 0.58992 0.93377 0.0
H693 H 0.8315 0.71617 0.9248 0.0
H694 H 0.84095 0.60456 0.96473 0.0
H695 H 0.88465 0.73074 0.95614 0.0
H696 H 0.97481 0.65085 0.98091 0.0
H697 H 0.91438 0.63551 0.95731 0.0
H698 H 0.90123 0.72142 0.00306 0.0
H699 H 0.96217 0.73675 0.02702 0.0
C700 C 0.80869 0.62087 0.93862 0.0
C701 C 0.80588 0.6519 0.92641 0.0
C702 C 0.83898 0.6292 0.95639 0.0
C703 C 0.86733 0.66879 0.9626 0.0
C704 C 0.86315 0.69989 0.95177 0.0
C705 C 0.83273 0.69154 0.9338 0.0
C706 C 0.9588 0.66612 0.98623 0.0
C707 C 0.9732 0.6949 0.0059 0.0
C708 C 0.92405 0.65724 0.97274 0.0
C709 C 0.90296 0.67723 0.97833 0.0
C710 C 0.91696 0.70567 0.99826 0.0
C711 C 0.95159 0.71416 0.0121 0.0
H712 H 0.3349 0.97195 0.14684 0.0
H713 H 0.23852 0.96475 0.19293 0.0
H714 H 0.28792 0.91126 0.12423 0.0
H715 H 0.19097 0.9036 0.16987 0.0
H716 H 0.20464 0.78453 0.10439 0.0
H717 H 0.24324 0.83799 0.13468 0.0
H718 H 0.16513 0.88604 0.12194 0.0
H719 H 0.12597 0.83205 0.09117 0.0
C720 C 0.30368 0.95712 0.15234 0.0
C721 C 0.29046 0.97302 0.17175 0.0
C722 C 0.27674 0.92227 0.13942 0.0
C723 C 0.23575 0.90261 0.14532 0.0
C724 C 0.22239 0.91821 0.1649 0.0
C725 C 0.24961 0.95294 0.17821 0.0
C726 C 0.19514 0.80606 0.10821 0.0
C727 C 0.1625 0.8043 0.09495 0.0
C728 C 0.21739 0.83675 0.1256 0.0
C729 C 0.20763 0.86655 0.13036 0.0
C730 C 0.1733 0.86339 0.11863 0.0
C731 C 0.1509 0.83251 0.10103 0.0
H732 H 0.31522 0.12298 0.2594 0.0
H733 H 0.44137 0.20837 0.26653 0.0
H734 H 0.30052 0.16167 0.29041 0.0
H735 H 0.42658 0.24646 0.29729 0.0
H736 H 0.37822 0.33227 0.3128 0.0
H737 H 0.39441 0.28745 0.28982 0.0
H738 H 0.31006 0.18882 0.33665 0.0
H739 H 0.29379 0.23418 0.35997 0.0
C740 C 0.33984 0.14941 0.26793 0.0
C741 C 0.37943 0.16278 0.26011 0.0
C742 C 0.3314 0.17153 0.28574 0.0
C743 C 0.36238 0.20744 0.29599 0.0
C744 C 0.40201 0.21932 0.28938 0.0
C745 C 0.41044 0.19732 0.27175 0.0
C746 C 0.36344 0.30114 0.31848 0.0
C747 C 0.33478 0.28679 0.33823 0.0
C748 C 0.37285 0.27545 0.30536 0.0
C749 C 0.35358 0.23456 0.31144 0.0
C750 C 0.32528 0.22015 0.33148 0.0
C751 C 0.31622 0.24614 0.34494 0.0
H752 H 0.24813 0.43244 0.43592 0.0
H753 H 0.20313 0.30608 0.42569 0.0
H754 H 0.19507 0.41785 0.4665 0.0
H755 H 0.1496 0.29157 0.45666 0.0
H756 H 0.06079 0.37275 0.48086 0.0
H757 H 0.12174 0.3879 0.458 0.0
H758 H 0.13233 0.30033 0.50366 0.0
H759 H 0.07093 0.28525 0.5269 0.0
C760 C 0.22728 0.40147 0.44043 0.0
C761 C 0.22968 0.37041 0.42795 0.0
C762 C 0.19676 0.39317 0.45798 0.0
C763 C 0.16779 0.35359 0.46369 0.0
C764 C 0.17158 0.3224 0.45266 0.0
C765 C 0.20223 0.33072 0.4349 0.0
C766 C 0.07636 0.35709 0.48633 0.0
C767 C 0.06112 0.32792 0.50575 0.0
C768 C 0.11139 0.36585 0.47326 0.0
C769 C 0.13191 0.34534 0.47904 0.0
C770 C 0.11707 0.3165 0.49874 0.0
C771 C 0.08217 0.30814 0.51217 0.0
H772 H 0.82722 0.23808 0.6016 0.0
H773 H 0.90733 0.19186 0.5901 0.0
H774 H 0.78893 0.18521 0.63232 0.0
H775 H 0.86841 0.13838 0.62119 0.0
H776 H 0.69845 0.05167 0.64631 0.0
H777 H 0.74477 0.11228 0.62342 0.0
H778 H 0.84274 0.1209 0.66845 0.0
H779 H 0.79586 0.05973 0.69174 0.0
C780 C 0.83706 0.21693 0.60586 0.0
C781 C 0.87007 0.21892 0.59299 0.0
C782 C 0.81498 0.18656 0.62349 0.0
C783 C 0.82523 0.15726 0.62886 0.0
C784 C 0.85984 0.16063 0.61745 0.0
C785 C 0.88209 0.19122 0.59963 0.0
C786 C 0.72976 0.06671 0.65163 0.0
C787 C 0.74347 0.051 0.6709 0.0
C788 C 0.75633 0.10155 0.63855 0.0
C789 C 0.79743 0.12143 0.64416 0.0
C790 C 0.81125 0.10612 0.66368 0.0
C791 C 0.7844 0.07137 0.67713 0.0
H792 H 0.29992 0.4096 0.29432 0.0
H793 H 0.18171 0.34013 0.32653 0.0
H794 H 0.27087 0.41485 0.25342 0.0
H795 H 0.15267 0.34621 0.28581 0.0
H796 H 0.17854 0.33709 0.18227 0.0
H797 H 0.21339 0.34414 0.22326 0.0
H798 H 0.16513 0.41496 0.25373 0.0
H799 H 0.13113 0.40877 0.21254 0.0
C800 C 0.26779 0.3964 0.2928 0.0
C801 C 0.24292 0.37515 0.31358 0.0
C802 C 0.25128 0.39921 0.26946 0.0
C803 C 0.2097 0.38103 0.2667 0.0
C804 C 0.18487 0.36074 0.2877 0.0
C805 C 0.20136 0.35722 0.31086 0.0
C806 C 0.17604 0.35469 0.19762 0.0
C807 C 0.15311 0.3732 0.19421 0.0
C808 C 0.19593 0.35879 0.22092 0.0
C809 C 0.19192 0.38025 0.2414 0.0
C810 C 0.16872 0.39849 0.23808 0.0
C811 C 0.14954 0.3951 0.21459 0.0
H812 H 0.85687 0.17486 0.4903 0.0
H813 H 0.90527 0.29418 0.46016 0.0
H814 H 0.82194 0.14742 0.44929 0.0
H815 H 0.8712 0.26674 0.41895 0.0
H816 H 0.7364 0.12619 0.378 0.0
H817 H 0.76505 0.15999 0.41908 0.0
H818 H 0.88345 0.21158 0.38671 0.0
H819 H 0.85482 0.17695 0.3458 0.0
C820 C 0.85954 0.19508 0.47498 0.0
C821 C 0.88283 0.23649 0.47842 0.0
C822 C 0.83961 0.17951 0.45167 0.0
C823 C 0.84391 0.20513 0.4312 0.0
C824 C 0.86739 0.24654 0.43458 0.0
C825 C 0.8866 0.26212 0.45808 0.0
C826 C 0.76848 0.14543 0.37958 0.0
C827 C 0.79352 0.14977 0.35874 0.0
C828 C 0.78476 0.16446 0.40301 0.0
C829 C 0.8263 0.18832 0.40583 0.0
C830 C 0.85128 0.19355 0.38479 0.0
C831 C 0.83502 0.17381 0.36152 0.0
H832 H 0.62025 0.89755 0.62519 0.0
H833 H 0.68624 0.84442 0.65647 0.0
H834 H 0.61416 0.86413 0.58384 0.0
H835 H 0.6793 0.81018 0.61531 0.0
H836 H 0.68767 0.84811 0.51162 0.0
H837 H 0.67981 0.87537 0.55255 0.0
H838 H 0.61389 0.75621 0.58382 0.0
H839 H 0.62093 0.72895 0.54273 0.0
C840 C 0.63257 0.87792 0.62333 0.0
C841 C 0.65297 0.8727 0.644 0.0
C842 C 0.62927 0.8591 0.59974 0.0
C843 C 0.6461 0.83458 0.59661 0.0
C844 C 0.66573 0.82866 0.61747 0.0
C845 C 0.66978 0.84819 0.64088 0.0
C846 C 0.67081 0.82786 0.52711 0.0
C847 C 0.65416 0.78655 0.52402 0.0
C848 C 0.66623 0.84332 0.55038 0.0
C849 C 0.6462 0.81773 0.57114 0.0
C850 C 0.62933 0.77638 0.568 0.0
C851 C 0.63318 0.76089 0.54455 0.0
H852 H 0.90481 0.6145 0.71131 0.0
H853 H 0.85824 0.68699 0.68107 0.0
H854 H 0.87032 0.6079 0.75232 0.0
H855 H 0.82291 0.67954 0.72189 0.0
H856 H 0.85381 0.68265 0.82517 0.0
H857 H 0.88299 0.67674 0.78449 0.0
H858 H 0.76493 0.60851 0.7518 0.0
H859 H 0.73572 0.61357 0.79266 0.0
C860 C 0.88645 0.62825 0.71332 0.0
C861 C 0.88328 0.65051 0.69301 0.0
C862 C 0.867 0.62462 0.73671 0.0
C863 C 0.84392 0.643 0.74 0.0
C864 C 0.84027 0.66478 0.71957 0.0
C865 C 0.86043 0.66911 0.69637 0.0
C866 C 0.83422 0.66569 0.80943 0.0
C867 C 0.79265 0.64779 0.81206 0.0
C868 C 0.85078 0.66227 0.7863 0.0
C869 C 0.82603 0.64212 0.76524 0.0
C870 C 0.78444 0.62402 0.76789 0.0
C871 C 0.76786 0.62673 0.7912 0.0
H872 H 0.18096 0.84617 0.84789 0.0
H873 H 0.29927 0.89739 0.88038 0.0
H874 H 0.15222 0.81177 0.88883 0.0
H875 H 0.27049 0.86382 0.92151 0.0
H876 H 0.13026 0.72928 0.96229 0.0
H877 H 0.16489 0.75684 0.92127 0.0
H878 H 0.21292 0.87611 0.95141 0.0
H879 H 0.17745 0.84854 0.99223 0.0
C880 C 0.20071 0.84947 0.86369 0.0
C881 C 0.24221 0.87353 0.86097 0.0
C882 C 0.18439 0.82986 0.88698 0.0
C883 C 0.20931 0.83525 0.90811 0.0
C884 C 0.25084 0.85921 0.90538 0.0
C885 C 0.26719 0.87812 0.88192 0.0
C886 C 0.14881 0.76135 0.96022 0.0
C887 C 0.15205 0.78694 0.98044 0.0
C888 C 0.16834 0.77699 0.93683 0.0
C889 C 0.19159 0.81843 0.93343 0.0
C890 C 0.19543 0.84401 0.9538 0.0
C891 C 0.17519 0.82836 0.97701 0.0
H892 H 0.41523 0.1265 0.12671 0.0
H893 H 0.34998 0.18027 0.15814 0.0
H894 H 0.42138 0.16001 0.08538 0.0
H895 H 0.35697 0.2146 0.11699 0.0
H896 H 0.34792 0.17573 0.01324 0.0
H897 H 0.35581 0.14877 0.0543 0.0
H898 H 0.42184 0.26816 0.08518 0.0
H899 H 0.41478 0.29512 0.04394 0.0
C900 C 0.40311 0.1463 0.12489 0.0
C901 C 0.38284 0.15162 0.14559 0.0
C902 C 0.40644 0.16519 0.10132 0.0
C903 C 0.38978 0.18986 0.09821 0.0
C904 C 0.37039 0.19598 0.11912 0.0
C905 C 0.36632 0.17639 0.14252 0.0
C906 C 0.3648 0.19609 0.02867 0.0
C907 C 0.38151 0.23738 0.02542 0.0
C908 C 0.36938 0.1808 0.05202 0.0
C909 C 0.38949 0.20654 0.0727 0.0
C910 C 0.40634 0.24787 0.06942 0.0
C911 C 0.40249 0.26319 0.04589 0.0
loop_
_geom_bond_atom_site_label_1
_geom_bond_atom_site_label_2
_geom_bond_distance
_geom_bond_site_symmetry_2
_ccdc_geom_bond_type
Mn0 O5 2.095 . S
Mn0 O15 2.162 . S
Mn0 O16 2.297 . S
Mn0 O24 2.385 . S
Mn0 O25 2.209 . S
Mn0 O26 2.094 . S
Mn1 O6 2.121 . S
Mn1 N8 2.257 . S
Mn1 N17 2.282 . S
Mn1 O25 2.215 . S
Mn1 O27 2.117 . S
C2 O24 1.234 . S
C2 O25 1.283 . S
C3 O15 1.281 . S
C3 O16 1.236 . S
C4 O26 1.240 . S
C4 O27 1.264 . S
O5 Mn0 2.095 . S
O5 C14 1.250 . S
O6 Mn1 2.121 . S
O6 C14 1.258 . S
C7 N8 1.326 . S
C7 C11 1.460 . S
C7 H13 0.929 . S
N8 Mn1 2.257 . S
N8 C7 1.326 . S
N8 C12 1.362 . S
C9 C10 1.258 . S
C9 C12 1.431 . S
C9 C29 1.449 . S
C10 C9 1.258 . S
C10 C11 1.477 . S
C10 H30 0.931 . S
C11 C7 1.460 . S
C11 C10 1.477 . S
C11 H31 0.930 . S
C12 N8 1.362 . S
C12 C9 1.431 . S
C12 C22 1.476 . S
H13 C7 0.929 . S
C14 O5 1.250 . S
C14 O6 1.258 . S
O15 Mn0 2.162 . S
O15 C3 1.281 . S
O16 Mn0 2.297 . S
O16 C3 1.236 . S
N17 Mn1 2.282 . S
N17 C18 1.328 . S
N17 C22 1.318 . S
C18 N17 1.328 . S
C18 C19 1.457 . S
C18 H23 0.929 . S
C19 C18 1.457 . S
C19 C20 1.291 . S
C19 H32 0.931 . S
C20 C19 1.291 . S
C20 C21 1.373 . S
C20 H33 0.929 . S
C21 C20 1.373 . S
C21 C22 1.396 . S
C21 C28 1.403 . S
C22 C12 1.476 . S
C22 N17 1.318 . S
C22 C21 1.396 . S
H23 C18 0.929 . S
O24 Mn0 2.385 . S
O24 C2 1.234 . S
O25 Mn0 2.209 . S
O25 Mn1 2.215 . S
O25 C2 1.283 . S
O26 Mn0 2.094 . S
O26 C4 1.240 . S
O27 Mn1 2.117 . S
O27 C4 1.264 . S
C28 C21 1.403 . S
C28 C29 1.399 . S
C28 H34 0.929 . S
C29 C9 1.449 . S
C29 C28 1.399 . S
C29 H35 0.930 . S
H30 C10 0.931 . S
H31 C11 0.930 . S
H32 C19 0.931 . S
H33 C20 0.929 . S
H34 C28 0.929 . S
H35 C29 0.930 . S
Mn36 O41 2.095 . S
Mn36 O51 2.162 . S
Mn36 O52 2.297 . S
Mn36 O60 2.385 . S
Mn36 O61 2.209 . S
Mn36 O62 2.094 . S
Mn37 O42 2.121 . S
Mn37 N44 2.257 . S
Mn37 N53 2.282 . S
Mn37 O61 2.215 . S
Mn37 O63 2.117 . S
C38 O60 1.234 . S
C38 O61 1.283 . S
C39 O51 1.281 . S
C39 O52 1.236 . S
C40 O62 1.240 . S
C40 O63 1.264 . S
O41 Mn36 2.095 . S
O41 C50 1.250 . S
O42 Mn37 2.121 . S
O42 C50 1.258 . S
C43 N44 1.326 . S
C43 C47 1.460 . S
C43 H49 0.929 . S
N44 Mn37 2.257 . S
N44 C43 1.326 . S
N44 C48 1.362 . S
C45 C46 1.258 . S
C45 C48 1.431 . S
C45 C65 1.449 . S
C46 C45 1.258 . S
C46 C47 1.477 . S
C46 H66 0.931 . S
C47 C43 1.460 . S
C47 C46 1.477 . S
C47 H67 0.930 . S
C48 N44 1.362 . S
C48 C45 1.431 . S
C48 C58 1.476 . S
H49 C43 0.929 . S
C50 O41 1.250 . S
C50 O42 1.258 . S
O51 Mn36 2.162 . S
O51 C39 1.281 . S
O52 Mn36 2.297 . S
O52 C39 1.236 . S
N53 Mn37 2.282 . S
N53 C54 1.328 . S
N53 C58 1.318 . S
C54 N53 1.328 . S
C54 C55 1.457 . S
C54 H59 0.929 . S
C55 C54 1.457 . S
C55 C56 1.291 . S
C55 H68 0.931 . S
C56 C55 1.291 . S
C56 C57 1.373 . S
C56 H69 0.929 . S
C57 C56 1.373 . S
C57 C58 1.396 . S
C57 C64 1.403 . S
C58 C48 1.476 . S
C58 N53 1.318 . S
C58 C57 1.396 . S
H59 C54 0.929 . S
O60 Mn36 2.385 . S
O60 C38 1.234 . S
O61 Mn36 2.209 . S
O61 Mn37 2.215 . S
O61 C38 1.283 . S
O62 Mn36 2.094 . S
O62 C40 1.240 . S
O63 Mn37 2.117 . S
O63 C40 1.264 . S
C64 C57 1.403 . S
C64 C65 1.399 . S
C64 H70 0.929 . S
C65 C45 1.449 . S
C65 C64 1.399 . S
C65 H71 0.930 . S
H66 C46 0.931 . S
H67 C47 0.930 . S
H68 C55 0.931 . S
H69 C56 0.929 . S
H70 C64 0.929 . S
H71 C65 0.930 . S
Mn72 O77 2.095 . S
Mn72 O87 2.162 . S
Mn72 O88 2.297 . S
Mn72 O96 2.385 . S
Mn72 O97 2.209 . S
Mn72 O98 2.094 . S
Mn73 O78 2.121 . S
Mn73 N80 2.257 . S
Mn73 N89 2.282 . S
Mn73 O97 2.215 . S
Mn73 O99 2.117 . S
C74 O96 1.234 . S
C74 O97 1.283 . S
C75 O87 1.281 . S
C75 O88 1.236 . S
C76 O98 1.240 . S
C76 O99 1.264 . S
O77 Mn72 2.095 . S
O77 C86 1.250 . S
O78 Mn73 2.121 . S
O78 C86 1.258 . S
C79 N80 1.326 . S
C79 C83 1.460 . S
C79 H85 0.929 . S
N80 Mn73 2.257 . S
N80 C79 1.326 . S
N80 C84 1.362 . S
C81 C82 1.258 . S
C81 C84 1.431 . S
C81 C101 1.449 . S
C82 C81 1.258 . S
C82 C83 1.477 . S
C82 H102 0.931 . S
C83 C79 1.460 . S
C83 C82 1.477 . S
C83 H103 0.930 . S
C84 N80 1.362 . S
C84 C81 1.431 . S
C84 C94 1.476 . S
H85 C79 0.929 . S
C86 O77 1.250 . S
C86 O78 1.258 . S
O87 Mn72 2.162 . S
O87 C75 1.281 . S
O88 Mn72 2.297 . S
O88 C75 1.236 . S
N89 Mn73 2.282 . S
N89 C90 1.328 . S
N89 C94 1.318 . S
C90 N89 1.328 . S
C90 C91 1.457 . S
C90 H95 0.929 . S
C91 C90 1.457 . S
C91 C92 1.291 . S
C91 H104 0.931 . S
C92 C91 1.291 . S
C92 C93 1.373 . S
C92 H105 0.929 . S
C93 C92 1.373 . S
C93 C94 1.396 . S
C93 C100 1.403 . S
C94 C84 1.476 . S
C94 N89 1.318 . S
C94 C93 1.396 . S
H95 C90 0.929 . S
O96 Mn72 2.385 . S
O96 C74 1.234 . S
O97 Mn72 2.209 . S
O97 Mn73 2.215 . S
O97 C74 1.283 . S
O98 Mn72 2.094 . S
O98 C76 1.240 . S
O99 Mn73 2.117 . S
O99 C76 1.264 . S
C100 C93 1.403 . S
C100 C101 1.399 . S
C100 H106 0.929 . S
C101 C81 1.449 . S
C101 C100 1.399 . S
C101 H107 0.930 . S
H102 C82 0.931 . S
H103 C83 0.930 . S
H104 C91 0.931 . S
H105 C92 0.929 . S
H106 C100 0.929 . S
H107 C101 0.930 . S
Mn108 O113 2.095 . S
Mn108 O123 2.162 . S
Mn108 O124 2.297 . S
Mn108 O132 2.385 . S
Mn108 O133 2.209 . S
Mn108 O134 2.094 . S
Mn109 O114 2.121 . S
Mn109 N116 2.257 . S
Mn109 N125 2.282 . S
Mn109 O133 2.215 . S
Mn109 O135 2.117 . S
C110 O132 1.234 . S
C110 O133 1.283 . S
C111 O123 1.281 . S
C111 O124 1.236 . S
C112 O134 1.240 . S
C112 O135 1.264 . S
O113 Mn108 2.095 . S
O113 C122 1.250 . S
O114 Mn109 2.121 . S
O114 C122 1.258 . S
C115 N116 1.326 . S
C115 C119 1.460 . S
C115 H121 0.929 . S
N116 Mn109 2.257 . S
N116 C115 1.326 . S
N116 C120 1.362 . S
C117 C118 1.258 . S
C117 C120 1.431 . S
C117 C137 1.449 . S
C118 C117 1.258 . S
C118 C119 1.477 . S
C118 H138 0.931 . S
C119 C115 1.460 . S
C119 C118 1.477 . S
C119 H139 0.930 . S
C120 N116 1.362 . S
C120 C117 1.431 . S
C120 C130 1.476 . S
H121 C115 0.929 . S
C122 O113 1.250 . S
C122 O114 1.258 . S
O123 Mn108 2.162 . S
O123 C111 1.281 . S
O124 Mn108 2.297 . S
O124 C111 1.236 . S
N125 Mn109 2.282 . S
N125 C126 1.328 . S
N125 C130 1.318 . S
C126 N125 1.328 . S
C126 C127 1.457 . S
C126 H131 0.929 . S
C127 C126 1.457 . S
C127 C128 1.291 . S
C127 H140 0.931 . S
C128 C127 1.291 . S
C128 C129 1.373 . S
C128 H141 0.929 . S
C129 C128 1.373 . S
C129 C130 1.396 . S
C129 C136 1.403 . S
C130 C120 1.476 . S
C130 N125 1.318 . S
C130 C129 1.396 . S
H131 C126 0.929 . S
O132 Mn108 2.385 . S
O132 C110 1.234 . S
O133 Mn108 2.209 . S
O133 Mn109 2.215 . S
O133 C110 1.283 . S
O134 Mn108 2.094 . S
O134 C112 1.240 . S
O135 Mn109 2.117 . S
O135 C112 1.264 . S
C136 C129 1.403 . S
C136 C137 1.399 . S
C136 H142 0.929 . S
C137 C117 1.449 . S
C137 C136 1.399 . S
C137 H143 0.930 . S
H138 C118 0.931 . S
H139 C119 0.930 . S
H140 C127 0.931 . S
H141 C128 0.929 . S
H142 C136 0.929 . S
H143 C137 0.930 . S
Mn144 O149 2.095 . S
Mn144 O159 2.162 . S
Mn144 O160 2.297 . S
Mn144 O168 2.385 . S
Mn144 O169 2.209 . S
Mn144 O170 2.094 . S
Mn145 O150 2.121 . S
Mn145 N152 2.257 . S
Mn145 N161 2.282 . S
Mn145 O169 2.215 . S
Mn145 O171 2.117 . S
C146 O168 1.234 . S
C146 O169 1.283 . S
C147 O159 1.281 . S
C147 O160 1.236 . S
C148 O170 1.240 . S
C148 O171 1.264 . S
O149 Mn144 2.095 . S
O149 C158 1.250 . S
O150 Mn145 2.121 . S
O150 C158 1.258 . S
C151 N152 1.326 . S
C151 C155 1.460 . S
C151 H157 0.929 . S
N152 Mn145 2.257 . S
N152 C151 1.326 . S
N152 C156 1.362 . S
C153 C154 1.258 . S
C153 C156 1.431 . S
C153 C173 1.449 . S
C154 C153 1.258 . S
C154 C155 1.477 . S
C154 H174 0.931 . S
C155 C151 1.460 . S
C155 C154 1.477 . S
C155 H175 0.930 . S
C156 N152 1.362 . S
C156 C153 1.431 . S
C156 C166 1.476 . S
H157 C151 0.929 . S
C158 O149 1.250 . S
C158 O150 1.258 . S
O159 Mn144 2.162 . S
O159 C147 1.281 . S
O160 Mn144 2.297 . S
O160 C147 1.236 . S
N161 Mn145 2.282 . S
N161 C162 1.328 . S
N161 C166 1.318 . S
C162 N161 1.328 . S
C162 C163 1.457 . S
C162 H167 0.929 . S
C163 C162 1.457 . S
C163 C164 1.291 . S
C163 H176 0.931 . S
C164 C163 1.291 . S
C164 C165 1.373 . S
C164 H177 0.929 . S
C165 C164 1.373 . S
C165 C166 1.396 . S
C165 C172 1.403 . S
C166 C156 1.476 . S
C166 N161 1.318 . S
C166 C165 1.396 . S
H167 C162 0.929 . S
O168 Mn144 2.385 . S
O168 C146 1.234 . S
O169 Mn144 2.209 . S
O169 Mn145 2.215 . S
O169 C146 1.283 . S
O170 Mn144 2.094 . S
O170 C148 1.240 . S
O171 Mn145 2.117 . S
O171 C148 1.264 . S
C172 C165 1.403 . S
C172 C173 1.399 . S
C172 H178 0.929 . S
C173 C153 1.449 . S
C173 C172 1.399 . S
C173 H179 0.930 . S
H174 C154 0.931 . S
H175 C155 0.930 . S
H176 C163 0.931 . S
H177 C164 0.929 . S
H178 C172 0.929 . S
H179 C173 0.930 . S
Mn180 O185 2.095 . S
Mn180 O195 2.162 . S
Mn180 O196 2.297 . S
Mn180 O204 2.379 1_556 S
Mn180 O205 2.209 . S
Mn180 O206 2.094 . S
Mn181 O186 2.121 . S
Mn181 N188 2.257 . S
Mn181 N197 2.282 . S
Mn181 O205 2.215 . S
Mn181 O207 2.117 . S
C182 O204 1.235 . S
C182 O205 1.283 1_554 S
C183 O195 1.281 . S
C183 O196 1.236 . S
C184 O206 1.240 . S
C184 O207 1.264 . S
O185 Mn180 2.095 . S
O185 C194 1.250 . S
O186 Mn181 2.121 . S
O186 C194 1.258 . S
C187 N188 1.326 . S
C187 C191 1.460 1_556 S
C187 H193 0.929 . S
N188 Mn181 2.257 . S
N188 C187 1.326 . S
N188 C192 1.362 1_556 S
C189 C190 1.258 . S
C189 C192 1.431 . S
C189 C209 1.449 . S
C190 C189 1.258 . S
C190 C191 1.477 . S
C190 H210 0.931 . S
C191 C187 1.460 1_554 S
C191 C190 1.477 . S
C191 H211 0.930 . S
C192 N188 1.362 1_554 S
C192 C189 1.431 . S
C192 C202 1.477 . S
H193 C187 0.929 . S
C194 O185 1.250 . S
C194 O186 1.258 . S
O195 Mn180 2.162 . S
O195 C183 1.281 . S
O196 Mn180 2.297 . S
O196 C183 1.236 . S
N197 Mn181 2.282 . S
N197 C198 1.328 . S
N197 C202 1.314 1_556 S
C198 N197 1.328 . S
C198 C199 1.457 . S
C198 H203 0.929 . S
C199 C198 1.457 . S
C199 C200 1.291 1_556 S
C199 H212 0.931 . S
C200 C199 1.291 1_554 S
C200 C201 1.373 . S
C200 H213 0.929 . S
C201 C200 1.373 . S
C201 C202 1.398 . S
C201 C208 1.403 . S
C202 C192 1.477 . S
C202 N197 1.314 1_554 S
C202 C201 1.398 . S
H203 C198 0.929 . S
O204 Mn180 2.379 1_554 S
O204 C182 1.235 . S
O205 Mn180 2.209 . S
O205 Mn181 2.215 . S
O205 C182 1.283 1_556 S
O206 Mn180 2.094 . S
O206 C184 1.240 . S
O207 Mn181 2.117 . S
O207 C184 1.264 . S
C208 C201 1.403 . S
C208 C209 1.399 . S
C208 H214 0.929 . S
C209 C189 1.449 . S
C209 C208 1.399 . S
C209 H215 0.930 . S
H210 C190 0.931 . S
H211 C191 0.930 . S
H212 C199 0.931 . S
H213 C200 0.929 . S
H214 C208 0.929 . S
H215 C209 0.930 . S
Mn216 O221 2.095 . S
Mn216 O231 2.162 . S
Mn216 O232 2.297 . S
Mn216 O240 2.385 . S
Mn216 O241 2.209 . S
Mn216 O242 2.094 . S
Mn217 O222 2.121 . S
Mn217 N224 2.257 . S
Mn217 N233 2.282 . S
Mn217 O241 2.215 . S
Mn217 O243 2.117 . S
C218 O240 1.234 . S
C218 O241 1.283 . S
C219 O231 1.281 . S
C219 O232 1.236 . S
C220 O242 1.240 . S
C220 O243 1.264 . S
O221 Mn216 2.095 . S
O221 C230 1.250 . S
O222 Mn217 2.121 . S
O222 C230 1.258 . S
C223 N224 1.326 . S
C223 C227 1.460 . S
C223 H229 0.929 . S
N224 Mn217 2.257 . S
N224 C223 1.326 . S
N224 C228 1.362 . S
C225 C226 1.258 . S
C225 C228 1.431 . S
C225 C245 1.449 . S
C226 C225 1.258 . S
C226 C227 1.477 . S
C226 H246 0.931 . S
C227 C223 1.460 . S
C227 C226 1.477 . S
C227 H247 0.930 . S
C228 N224 1.362 . S
C228 C225 1.431 . S
C228 C238 1.476 . S
H229 C223 0.929 . S
C230 O221 1.250 . S
C230 O222 1.258 . S
O231 Mn216 2.162 . S
O231 C219 1.281 . S
O232 Mn216 2.297 . S
O232 C219 1.236 . S
N233 Mn217 2.282 . S
N233 C234 1.328 . S
N233 C238 1.318 . S
C234 N233 1.328 . S
C234 C235 1.457 . S
C234 H239 0.929 . S
C235 C234 1.457 . S
C235 C236 1.291 . S
C235 H248 0.931 . S
C236 C235 1.291 . S
C236 C237 1.373 . S
C236 H249 0.929 . S
C237 C236 1.373 . S
C237 C238 1.396 . S
C237 C244 1.403 . S
C238 C228 1.476 . S
C238 N233 1.318 . S
C238 C237 1.396 . S
H239 C234 0.929 . S
O240 Mn216 2.385 . S
O240 C218 1.234 . S
O241 Mn216 2.209 . S
O241 Mn217 2.215 . S
O241 C218 1.283 . S
O242 Mn216 2.094 . S
O242 C220 1.240 . S
O243 Mn217 2.117 . S
O243 C220 1.264 . S
C244 C237 1.403 . S
C244 C245 1.399 . S
C244 H250 0.929 . S
C245 C225 1.449 . S
C245 C244 1.399 . S
C245 H251 0.930 . S
H246 C226 0.931 . S
H247 C227 0.930 . S
H248 C235 0.931 . S
H249 C236 0.929 . S
H250 C244 0.929 . S
H251 C245 0.930 . S
Mn252 O257 2.095 . S
Mn252 O267 2.162 . S
Mn252 O268 2.297 . S
Mn252 O276 2.385 . S
Mn252 O277 2.209 . S
Mn252 O278 2.094 . S
Mn253 O258 2.121 . S
Mn253 N260 2.257 . S
Mn253 N269 2.282 . S
Mn253 O277 2.215 . S
Mn253 O279 2.117 . S
C254 O276 1.234 . S
C254 O277 1.283 . S
C255 O267 1.281 . S
C255 O268 1.236 . S
C256 O278 1.240 . S
C256 O279 1.264 . S
O257 Mn252 2.095 . S
O257 C266 1.250 . S
O258 Mn253 2.121 . S
O258 C266 1.258 . S
C259 N260 1.326 . S
C259 C263 1.460 . S
C259 H265 0.929 . S
N260 Mn253 2.257 . S
N260 C259 1.326 . S
N260 C264 1.362 . S
C261 C262 1.258 . S
C261 C264 1.431 . S
C261 C281 1.449 . S
C262 C261 1.258 . S
C262 C263 1.477 . S
C262 H282 0.931 . S
C263 C259 1.460 . S
C263 C262 1.477 . S
C263 H283 0.930 . S
C264 N260 1.362 . S
C264 C261 1.431 . S
C264 C274 1.476 . S
H265 C259 0.929 . S
C266 O257 1.250 . S
C266 O258 1.258 . S
O267 Mn252 2.162 . S
O267 C255 1.281 . S
O268 Mn252 2.297 . S
O268 C255 1.236 . S
N269 Mn253 2.282 . S
N269 C270 1.328 . S
N269 C274 1.318 . S
C270 N269 1.328 . S
C270 C271 1.457 . S
C270 H275 0.929 . S
C271 C270 1.457 . S
C271 C272 1.291 . S
C271 H284 0.931 . S
C272 C271 1.291 . S
C272 C273 1.373 . S
C272 H285 0.929 . S
C273 C272 1.373 . S
C273 C274 1.396 . S
C273 C280 1.403 . S
C274 C264 1.476 . S
C274 N269 1.318 . S
C274 C273 1.396 . S
H275 C270 0.929 . S
O276 Mn252 2.385 . S
O276 C254 1.234 . S
O277 Mn252 2.209 . S
O277 Mn253 2.215 . S
O277 C254 1.283 . S
O278 Mn252 2.094 . S
O278 C256 1.240 . S
O279 Mn253 2.117 . S
O279 C256 1.264 . S
C280 C273 1.403 . S
C280 C281 1.399 . S
C280 H286 0.929 . S
C281 C261 1.449 . S
C281 C280 1.399 . S
C281 H287 0.930 . S
H282 C262 0.931 . S
H283 C263 0.930 . S
H284 C271 0.931 . S
H285 C272 0.929 . S
H286 C280 0.929 . S
H287 C281 0.930 . S
Mn288 O293 2.095 . S
Mn288 O303 2.162 . S
Mn288 O304 2.297 . S
Mn288 O312 2.379 1_554 S
Mn288 O313 2.209 . S
Mn288 O314 2.094 . S
Mn289 O294 2.121 . S
Mn289 N296 2.257 . S
Mn289 N305 2.282 . S
Mn289 O313 2.215 . S
Mn289 O315 2.117 . S
C290 O312 1.235 . S
C290 O313 1.283 1_556 S
C291 O303 1.281 . S
C291 O304 1.236 . S
C292 O314 1.240 . S
C292 O315 1.264 . S
O293 Mn288 2.095 . S
O293 C302 1.250 . S
O294 Mn289 2.121 . S
O294 C302 1.258 . S
C295 N296 1.326 . S
C295 C299 1.460 1_554 S
C295 H301 0.929 . S
N296 Mn289 2.257 . S
N296 C295 1.326 . S
N296 C300 1.362 1_554 S
C297 C298 1.258 . S
C297 C300 1.431 . S
C297 C317 1.449 . S
C298 C297 1.258 . S
C298 C299 1.477 . S
C298 H318 0.931 . S
C299 C295 1.460 1_556 S
C299 C298 1.477 . S
C299 H319 0.930 . S
C300 N296 1.362 1_556 S
C300 C297 1.431 . S
C300 C310 1.477 . S
H301 C295 0.929 . S
C302 O293 1.250 . S
C302 O294 1.258 . S
O303 Mn288 2.162 . S
O303 C291 1.281 . S
O304 Mn288 2.297 . S
O304 C291 1.236 . S
N305 Mn289 2.282 . S
N305 C306 1.328 . S
N305 C310 1.314 1_554 S
C306 N305 1.328 . S
C306 C307 1.457 . S
C306 H311 0.929 . S
C307 C306 1.457 . S
C307 C308 1.291 1_554 S
C307 H320 0.931 . S
C308 C307 1.291 1_556 S
C308 C309 1.373 . S
C308 H321 0.929 . S
C309 C308 1.373 . S
C309 C310 1.399 . S
C309 C316 1.403 . S
C310 C300 1.477 . S
C310 N305 1.314 1_556 S
C310 C309 1.399 . S
H311 C306 0.929 . S
O312 Mn288 2.379 1_556 S
O312 C290 1.235 . S
O313 Mn288 2.209 . S
O313 Mn289 2.215 . S
O313 C290 1.283 1_554 S
O314 Mn288 2.094 . S
O314 C292 1.240 . S
O315 Mn289 2.117 . S
O315 C292 1.264 . S
C316 C309 1.403 . S
C316 C317 1.399 . S
C316 H322 0.929 . S
C317 C297 1.449 . S
C317 C316 1.399 . S
C317 H323 0.930 . S
H318 C298 0.931 . S
H319 C299 0.930 . S
H320 C307 0.931 . S
H321 C308 0.929 . S
H322 C316 0.929 . S
H323 C317 0.930 . S
Mn324 O329 2.095 . S
Mn324 O339 2.162 . S
Mn324 O340 2.297 . S
Mn324 O348 2.385 . S
Mn324 O349 2.209 . S
Mn324 O350 2.094 . S
Mn325 O330 2.121 . S
Mn325 N332 2.257 . S
Mn325 N341 2.282 . S
Mn325 O349 2.215 . S
Mn325 O351 2.117 . S
C326 O348 1.234 . S
C326 O349 1.283 . S
C327 O339 1.281 . S
C327 O340 1.236 . S
C328 O350 1.240 . S
C328 O351 1.264 . S
O329 Mn324 2.095 . S
O329 C338 1.250 . S
O330 Mn325 2.121 . S
O330 C338 1.258 . S
C331 N332 1.326 . S
C331 C335 1.460 . S
C331 H337 0.929 . S
N332 Mn325 2.257 . S
N332 C331 1.326 . S
N332 C336 1.362 . S
C333 C334 1.258 . S
C333 C336 1.431 . S
C333 C353 1.449 . S
C334 C333 1.258 . S
C334 C335 1.477 . S
C334 H354 0.931 . S
C335 C331 1.460 . S
C335 C334 1.477 . S
C335 H355 0.930 . S
C336 N332 1.362 . S
C336 C333 1.431 . S
C336 C346 1.476 . S
H337 C331 0.929 . S
C338 O329 1.250 . S
C338 O330 1.258 . S
O339 Mn324 2.162 . S
O339 C327 1.281 . S
O340 Mn324 2.297 . S
O340 C327 1.236 . S
N341 Mn325 2.282 . S
N341 C342 1.328 . S
N341 C346 1.318 . S
C342 N341 1.328 . S
C342 C343 1.457 . S
C342 H347 0.929 . S
C343 C342 1.457 . S
C343 C344 1.291 . S
C343 H356 0.931 . S
C344 C343 1.291 . S
C344 C345 1.373 . S
C344 H357 0.929 . S
C345 C344 1.373 . S
C345 C346 1.396 . S
C345 C352 1.403 . S
C346 C336 1.476 . S
C346 N341 1.318 . S
C346 C345 1.396 . S
H347 C342 0.929 . S
O348 Mn324 2.385 . S
O348 C326 1.234 . S
O349 Mn324 2.209 . S
O349 Mn325 2.215 . S
O349 C326 1.283 . S
O350 Mn324 2.094 . S
O350 C328 1.240 . S
O351 Mn325 2.117 . S
O351 C328 1.264 . S
C352 C345 1.403 . S
C352 C353 1.399 . S
C352 H358 0.929 . S
C353 C333 1.449 . S
C353 C352 1.399 . S
C353 H359 0.930 . S
H354 C334 0.931 . S
H355 C335 0.930 . S
H356 C343 0.931 . S
H357 C344 0.929 . S
H358 C352 0.929 . S
H359 C353 0.930 . S
Mn360 O365 2.095 . S
Mn360 O375 2.162 . S
Mn360 O376 2.297 . S
Mn360 O384 2.385 . S
Mn360 O385 2.209 . S
Mn360 O386 2.094 . S
Mn361 O366 2.121 . S
Mn361 N368 2.257 . S
Mn361 N377 2.282 . S
Mn361 O385 2.215 . S
Mn361 O387 2.117 . S
C362 O384 1.234 . S
C362 O385 1.283 . S
C363 O375 1.281 . S
C363 O376 1.236 . S
C364 O386 1.240 . S
C364 O387 1.264 . S
O365 Mn360 2.095 . S
O365 C374 1.250 . S
O366 Mn361 2.121 . S
O366 C374 1.258 . S
C367 N368 1.326 . S
C367 C371 1.460 . S
C367 H373 0.929 . S
N368 Mn361 2.257 . S
N368 C367 1.326 . S
N368 C372 1.362 . S
C369 C370 1.258 . S
C369 C372 1.431 . S
C369 C389 1.449 . S
C370 C369 1.258 . S
C370 C371 1.477 . S
C370 H390 0.931 . S
C371 C367 1.460 . S
C371 C370 1.477 . S
C371 H391 0.930 . S
C372 N368 1.362 . S
C372 C369 1.431 . S
C372 C382 1.476 . S
H373 C367 0.929 . S
C374 O365 1.250 . S
C374 O366 1.258 . S
O375 Mn360 2.162 . S
O375 C363 1.281 . S
O376 Mn360 2.297 . S
O376 C363 1.236 . S
N377 Mn361 2.282 . S
N377 C378 1.328 . S
N377 C382 1.318 . S
C378 N377 1.328 . S
C378 C379 1.457 . S
C378 H383 0.929 . S
C379 C378 1.457 . S
C379 C380 1.291 . S
C379 H392 0.931 . S
C380 C379 1.291 . S
C380 C381 1.373 . S
C380 H393 0.929 . S
C381 C380 1.373 . S
C381 C382 1.396 . S
C381 C388 1.403 . S
C382 C372 1.476 . S
C382 N377 1.318 . S
C382 C381 1.396 . S
H383 C378 0.929 . S
O384 Mn360 2.385 . S
O384 C362 1.234 . S
O385 Mn360 2.209 . S
O385 Mn361 2.215 . S
O385 C362 1.283 . S
O386 Mn360 2.094 . S
O386 C364 1.240 . S
O387 Mn361 2.117 . S
O387 C364 1.264 . S
C388 C381 1.403 . S
C388 C389 1.399 . S
C388 H394 0.929 . S
C389 C369 1.449 . S
C389 C388 1.399 . S
C389 H395 0.930 . S
H390 C370 0.931 . S
H391 C371 0.930 . S
H392 C379 0.931 . S
H393 C380 0.929 . S
H394 C388 0.929 . S
H395 C389 0.930 . S
Mn396 O401 2.095 . S
Mn396 O411 2.162 . S
Mn396 O412 2.297 . S
Mn396 O420 2.385 . S
Mn396 O421 2.209 . S
Mn396 O422 2.094 . S
Mn397 O402 2.121 . S
Mn397 N404 2.257 . S
Mn397 N413 2.282 . S
Mn397 O421 2.215 . S
Mn397 O423 2.117 . S
C398 O420 1.234 . S
C398 O421 1.283 . S
C399 O411 1.281 . S
C399 O412 1.236 . S
C400 O422 1.240 . S
C400 O423 1.264 . S
O401 Mn396 2.095 . S
O401 C410 1.250 . S
O402 Mn397 2.121 . S
O402 C410 1.258 . S
C403 N404 1.326 . S
C403 C407 1.460 . S
C403 H409 0.929 . S
N404 Mn397 2.257 . S
N404 C403 1.326 . S
N404 C408 1.362 . S
C405 C406 1.258 . S
C405 C408 1.431 . S
C405 C425 1.449 . S
C406 C405 1.258 . S
C406 C407 1.477 . S
C406 H426 0.931 . S
C407 C403 1.460 . S
C407 C406 1.477 . S
C407 H427 0.930 . S
C408 N404 1.362 . S
C408 C405 1.431 . S
C408 C418 1.476 . S
H409 C403 0.929 . S
C410 O401 1.250 . S
C410 O402 1.258 . S
O411 Mn396 2.162 . S
O411 C399 1.281 . S
O412 Mn396 2.297 . S
O412 C399 1.236 . S
N413 Mn397 2.282 . S
N413 C414 1.328 . S
N413 C418 1.318 . S
C414 N413 1.328 . S
C414 C415 1.457 . S
C414 H419 0.929 . S
C415 C414 1.457 . S
C415 C416 1.291 . S
C415 H428 0.931 . S
C416 C415 1.291 . S
C416 C417 1.373 . S
C416 H429 0.929 . S
C417 C416 1.373 . S
C417 C418 1.396 . S
C417 C424 1.403 . S
C418 C408 1.476 . S
C418 N413 1.318 . S
C418 C417 1.396 . S
H419 C414 0.929 . S
O420 Mn396 2.385 . S
O420 C398 1.234 . S
O421 Mn396 2.209 . S
O421 Mn397 2.215 . S
O421 C398 1.283 . S
O422 Mn396 2.094 . S
O422 C400 1.240 . S
O423 Mn397 2.117 . S
O423 C400 1.264 . S
C424 C417 1.403 . S
C424 C425 1.399 . S
C424 H430 0.929 . S
C425 C405 1.449 . S
C425 C424 1.399 . S
C425 H431 0.930 . S
H426 C406 0.931 . S
H427 C407 0.930 . S
H428 C415 0.931 . S
H429 C416 0.929 . S
H430 C424 0.929 . S
H431 C425 0.930 . S
H432 C440 0.950 . S
H433 C445 0.950 . S
H434 C442 0.950 . S
H435 C444 0.950 . S
H436 C446 0.950 . S
H437 C448 0.950 . S
H438 C450 0.950 . S
H439 C451 0.950 . S
C440 H432 0.950 . S
C440 C441 1.386 . S
C440 C442 1.391 . S
C441 C440 1.386 . S
C441 C445 1.393 . S
C442 H434 0.950 . S
C442 C440 1.391 . S
C442 C443 1.400 . S
C443 C442 1.400 . S
C443 C444 1.398 . S
C443 C449 1.491 . S
C444 H435 0.950 . S
C444 C443 1.398 . S
C444 C445 1.391 . S
C445 H433 0.950 . S
C445 C441 1.393 . S
C445 C444 1.391 . S
C446 H436 0.950 . S
C446 C447 1.386 . S
C446 C448 1.391 . S
C447 C446 1.386 . S
C447 C451 1.393 . S
C448 H437 0.950 . S
C448 C446 1.391 . S
C448 C449 1.400 . S
C449 C443 1.491 . S
C449 C448 1.400 . S
C449 C450 1.398 . S
C450 H438 0.950 . S
C450 C449 1.398 . S
C450 C451 1.391 . S
C451 H439 0.950 . S
C451 C447 1.393 . S
C451 C450 1.391 . S
H452 C460 0.950 . S
H453 C465 0.950 . S
H454 C462 0.950 . S
H455 C464 0.950 . S
H456 C466 0.950 . S
H457 C468 0.950 . S
H458 C470 0.950 . S
H459 C471 0.950 . S
C460 H452 0.950 . S
C460 C461 1.386 . S
C460 C462 1.391 . S
C461 C460 1.386 . S
C461 C465 1.393 . S
C462 H454 0.950 . S
C462 C460 1.391 . S
C462 C463 1.400 . S
C463 C462 1.400 . S
C463 C464 1.398 . S
C463 C469 1.491 . S
C464 H455 0.950 . S
C464 C463 1.398 . S
C464 C465 1.391 . S
C465 H453 0.950 . S
C465 C461 1.393 . S
C465 C464 1.391 . S
C466 H456 0.950 . S
C466 C467 1.386 . S
C466 C468 1.391 . S
C467 C466 1.386 . S
C467 C471 1.393 . S
C468 H457 0.950 . S
C468 C466 1.391 . S
C468 C469 1.400 . S
C469 C463 1.491 . S
C469 C468 1.400 . S
C469 C470 1.398 . S
C470 H458 0.950 . S
C470 C469 1.398 . S
C470 C471 1.391 . S
C471 H459 0.950 . S
C471 C467 1.393 . S
C471 C470 1.391 . S
H472 C480 0.950 . S
H473 C485 0.950 . S
H474 C482 0.950 . S
H475 C484 0.950 . S
H476 C486 0.950 . S
H477 C488 0.950 . S
H478 C490 0.950 . S
H479 C491 0.950 . S
C480 H472 0.950 . S
C480 C481 1.386 . S
C480 C482 1.391 . S
C481 C480 1.386 . S
C481 C485 1.393 . S
C482 H474 0.950 . S
C482 C480 1.391 . S
C482 C483 1.400 . S
C483 C482 1.400 . S
C483 C484 1.398 . S
C483 C489 1.491 . S
C484 H475 0.950 . S
C484 C483 1.398 . S
C484 C485 1.391 . S
C485 H473 0.950 . S
C485 C481 1.393 . S
C485 C484 1.391 . S
C486 H476 0.950 . S
C486 C487 1.386 . S
C486 C488 1.391 . S
C487 C486 1.386 . S
C487 C491 1.393 . S
C488 H477 0.950 . S
C488 C486 1.391 . S
C488 C489 1.400 . S
C489 C483 1.491 . S
C489 C488 1.400 . S
C489 C490 1.398 . S
C490 H478 0.950 . S
C490 C489 1.398 . S
C490 C491 1.391 . S
C491 H479 0.950 . S
C491 C487 1.393 . S
C491 C490 1.391 . S
H492 C500 0.950 . S
H493 C505 0.950 . S
H494 C502 0.950 . S
H495 C504 0.950 . S
H496 C506 0.950 . S
H497 C508 0.950 . S
H498 C510 0.950 . S
H499 C511 0.950 . S
C500 H492 0.950 . S
C500 C501 1.386 . S
C500 C502 1.391 . S
C501 C500 1.386 . S
C501 C505 1.393 . S
C502 H494 0.950 . S
C502 C500 1.391 . S
C502 C503 1.400 . S
C503 C502 1.400 . S
C503 C504 1.398 . S
C503 C509 1.491 . S
C504 H495 0.950 . S
C504 C503 1.398 . S
C504 C505 1.391 . S
C505 H493 0.950 . S
C505 C501 1.393 . S
C505 C504 1.391 . S
C506 H496 0.950 . S
C506 C507 1.386 . S
C506 C508 1.391 . S
C507 C506 1.386 . S
C507 C511 1.393 . S
C508 H497 0.950 . S
C508 C506 1.391 . S
C508 C509 1.400 . S
C509 C503 1.491 . S
C509 C508 1.400 . S
C509 C510 1.398 . S
C510 H498 0.950 . S
C510 C509 1.398 . S
C510 C511 1.391 . S
C511 H499 0.950 . S
C511 C507 1.393 . S
C511 C510 1.391 . S
H512 C520 0.950 . S
H513 C525 0.950 . S
H514 C522 0.950 . S
H515 C524 0.950 . S
H516 C526 0.950 . S
H517 C528 0.950 . S
H518 C530 0.950 . S
H519 C531 0.950 . S
C520 H512 0.950 . S
C520 C521 1.386 . S
C520 C522 1.391 . S
C521 C520 1.386 . S
C521 C525 1.393 . S
C522 H514 0.950 . S
C522 C520 1.391 . S
C522 C523 1.400 . S
C523 C522 1.400 . S
C523 C524 1.398 . S
C523 C529 1.491 . S
C524 H515 0.950 . S
C524 C523 1.398 . S
C524 C525 1.391 . S
C525 H513 0.950 . S
C525 C521 1.393 . S
C525 C524 1.391 . S
C526 H516 0.950 . S
C526 C527 1.386 . S
C526 C528 1.391 . S
C527 C526 1.386 . S
C527 C531 1.393 . S
C528 H517 0.950 . S
C528 C526 1.391 . S
C528 C529 1.400 . S
C529 C523 1.491 . S
C529 C528 1.400 . S
C529 C530 1.398 . S
C530 H518 0.950 . S
C530 C529 1.398 . S
C530 C531 1.391 . S
C531 H519 0.950 . S
C531 C527 1.393 . S
C531 C530 1.391 . S
H532 C540 0.950 . S
H533 C545 0.950 . S
H534 C542 0.950 . S
H535 C544 0.950 . S
H536 C546 0.950 . S
H537 C548 0.950 . S
H538 C550 0.950 . S
H539 C551 0.950 . S
C540 H532 0.950 . S
C540 C541 1.386 . S
C540 C542 1.391 . S
C541 C540 1.386 . S
C541 C545 1.393 . S
C542 H534 0.950 . S
C542 C540 1.391 . S
C542 C543 1.400 . S
C543 C542 1.400 . S
C543 C544 1.398 . S
C543 C549 1.491 . S
C544 H535 0.950 . S
C544 C543 1.398 . S
C544 C545 1.391 . S
C545 H533 0.950 . S
C545 C541 1.393 . S
C545 C544 1.391 . S
C546 H536 0.950 . S
C546 C547 1.386 . S
C546 C548 1.391 . S
C547 C546 1.386 . S
C547 C551 1.393 . S
C548 H537 0.950 . S
C548 C546 1.391 . S
C548 C549 1.400 . S
C549 C543 1.491 . S
C549 C548 1.400 . S
C549 C550 1.398 . S
C550 H538 0.950 . S
C550 C549 1.398 . S
C550 C551 1.391 . S
C551 H539 0.950 . S
C551 C547 1.393 . S
C551 C550 1.391 . S
H552 C560 0.950 . S
H553 C565 0.950 . S
H554 C562 0.950 . S
H555 C564 0.950 . S
H556 C566 0.950 . S
H557 C568 0.950 . S
H558 C570 0.950 . S
H559 C571 0.950 . S
C560 H552 0.950 . S
C560 C561 1.386 . S
C560 C562 1.391 . S
C561 C560 1.386 . S
C561 C565 1.393 . S
C562 H554 0.950 . S
C562 C560 1.391 . S
C562 C563 1.400 . S
C563 C562 1.400 . S
C563 C564 1.398 . S
C563 C569 1.491 . S
C564 H555 0.950 . S
C564 C563 1.398 . S
C564 C565 1.391 . S
C565 H553 0.950 . S
C565 C561 1.393 . S
C565 C564 1.391 . S
C566 H556 0.950 . S
C566 C567 1.402 . S
C566 C568 1.391 . S
C567 C566 1.402 . S
C567 C571 1.388 1_554 S
C568 H557 0.950 . S
C568 C566 1.391 . S
C568 C569 1.400 . S
C569 C563 1.491 . S
C569 C568 1.400 . S
C569 C570 1.398 . S
C570 H558 0.950 . S
C570 C569 1.398 . S
C570 C571 1.391 1_554 S
C571 H559 0.950 . S
C571 C567 1.388 1_556 S
C571 C570 1.391 1_556 S
H572 C580 0.950 . S
H573 C585 0.950 . S
H574 C582 0.950 . S
H575 C584 0.950 . S
H576 C586 0.950 . S
H577 C588 0.950 . S
H578 C590 0.950 . S
H579 C591 0.950 . S
C580 H572 0.950 . S
C580 C581 1.386 . S
C580 C582 1.391 . S
C581 C580 1.386 . S
C581 C585 1.393 . S
C582 H574 0.950 . S
C582 C580 1.391 . S
C582 C583 1.400 . S
C583 C582 1.400 . S
C583 C584 1.398 . S
C583 C589 1.491 . S
C584 H575 0.950 . S
C584 C583 1.398 . S
C584 C585 1.391 . S
C585 H573 0.950 . S
C585 C581 1.393 . S
C585 C584 1.391 . S
C586 H576 0.950 . S
C586 C587 1.386 . S
C586 C588 1.391 . S
C587 C586 1.386 . S
C587 C591 1.393 . S
C588 H577 0.950 . S
C588 C586 1.391 . S
C588 C589 1.400 . S
C589 C583 1.491 . S
C589 C588 1.400 . S
C589 C590 1.398 . S
C590 H578 0.950 . S
C590 C589 1.398 . S
C590 C591 1.391 . S
C591 H579 0.950 . S
C591 C587 1.393 . S
C591 C590 1.391 . S
H592 C600 0.950 . S
H593 C605 0.950 . S
H594 C602 0.950 . S
H595 C604 0.950 . S
H596 C606 0.950 . S
H597 C608 0.950 . S
H598 C610 0.950 . S
H599 C611 0.950 . S
C600 H592 0.950 . S
C600 C601 1.386 . S
C600 C602 1.391 . S
C601 C600 1.386 . S
C601 C605 1.393 . S
C602 H594 0.950 . S
C602 C600 1.391 . S
C602 C603 1.400 . S
C603 C602 1.400 . S
C603 C604 1.398 . S
C603 C609 1.491 . S
C604 H595 0.950 . S
C604 C603 1.398 . S
C604 C605 1.391 . S
C605 H593 0.950 . S
C605 C601 1.393 . S
C605 C604 1.391 . S
C606 H596 0.950 . S
C606 C607 1.386 . S
C606 C608 1.391 . S
C607 C606 1.386 . S
C607 C611 1.393 . S
C608 H597 0.950 . S
C608 C606 1.391 . S
C608 C609 1.400 . S
C609 C603 1.491 . S
C609 C608 1.400 . S
C609 C610 1.398 . S
C610 H598 0.950 . S
C610 C609 1.398 . S
C610 C611 1.391 . S
C611 H599 0.950 . S
C611 C607 1.393 . S
C611 C610 1.391 . S
H612 C620 0.950 . S
H613 C625 0.950 . S
H614 C622 0.950 . S
H615 C624 0.950 . S
H616 C626 0.950 . S
H617 C628 0.950 . S
H618 C630 0.950 . S
H619 C631 0.950 . S
C620 H612 0.950 . S
C620 C621 1.386 . S
C620 C622 1.391 . S
C621 C620 1.386 . S
C621 C625 1.393 . S
C622 H614 0.950 . S
C622 C620 1.391 . S
C622 C623 1.400 . S
C623 C622 1.400 . S
C623 C624 1.398 . S
C623 C629 1.491 . S
C624 H615 0.950 . S
C624 C623 1.398 . S
C624 C625 1.391 . S
C625 H613 0.950 . S
C625 C621 1.393 . S
C625 C624 1.391 . S
C626 H616 0.950 . S
C626 C627 1.386 . S
C626 C628 1.391 . S
C627 C626 1.386 . S
C627 C631 1.393 . S
C628 H617 0.950 . S
C628 C626 1.391 . S
C628 C629 1.400 . S
C629 C623 1.491 . S
C629 C628 1.400 . S
C629 C630 1.398 . S
C630 H618 0.950 . S
C630 C629 1.398 . S
C630 C631 1.391 . S
C631 H619 0.950 . S
C631 C627 1.393 . S
C631 C630 1.391 . S
H632 C640 0.950 . S
H633 C645 0.950 . S
H634 C642 0.950 . S
H635 C644 0.950 . S
H636 C646 0.950 . S
H637 C648 0.950 . S
H638 C650 0.950 . S
H639 C651 0.950 . S
C640 H632 0.950 . S
C640 C641 1.386 . S
C640 C642 1.391 . S
C641 C640 1.386 . S
C641 C645 1.393 . S
C642 H634 0.950 . S
C642 C640 1.391 . S
C642 C643 1.400 . S
C643 C642 1.400 . S
C643 C644 1.398 . S
C643 C649 1.491 . S
C644 H635 0.950 . S
C644 C643 1.398 . S
C644 C645 1.391 . S
C645 H633 0.950 . S
C645 C641 1.393 . S
C645 C644 1.391 . S
C646 H636 0.950 . S
C646 C647 1.386 . S
C646 C648 1.391 . S
C647 C646 1.386 . S
C647 C651 1.393 . S
C648 H637 0.950 . S
C648 C646 1.391 . S
C648 C649 1.400 . S
C649 C643 1.491 . S
C649 C648 1.400 . S
C649 C650 1.398 . S
C650 H638 0.950 . S
C650 C649 1.398 . S
C650 C651 1.391 . S
C651 H639 0.950 . S
C651 C647 1.393 . S
C651 C650 1.391 . S
H652 C660 0.950 . S
H653 C665 0.950 . S
H654 C662 0.950 . S
H655 C664 0.950 . S
H656 C666 0.950 . S
H657 C668 0.950 . S
H658 C670 0.950 . S
H659 C671 0.950 . S
C660 H652 0.950 . S
C660 C661 1.386 . S
C660 C662 1.391 . S
C661 C660 1.386 . S
C661 C665 1.393 . S
C662 H654 0.950 . S
C662 C660 1.391 . S
C662 C663 1.400 . S
C663 C662 1.400 . S
C663 C664 1.398 . S
C663 C669 1.491 . S
C664 H655 0.950 . S
C664 C663 1.398 . S
C664 C665 1.391 . S
C665 H653 0.950 . S
C665 C661 1.393 . S
C665 C664 1.391 . S
C666 H656 0.950 . S
C666 C667 1.386 . S
C666 C668 1.391 . S
C667 C666 1.386 . S
C667 C671 1.393 . S
C668 H657 0.950 . S
C668 C666 1.391 . S
C668 C669 1.400 . S
C669 C663 1.491 . S
C669 C668 1.400 . S
C669 C670 1.398 . S
C670 H658 0.950 . S
C670 C669 1.398 . S
C670 C671 1.391 . S
C671 H659 0.950 . S
C671 C667 1.393 . S
C671 C670 1.391 . S
H672 C680 0.950 . S
H673 C685 0.950 . S
H674 C682 0.950 . S
H675 C684 0.950 . S
H676 C686 0.950 . S
H677 C688 0.950 . S
H678 C690 0.950 . S
H679 C691 0.950 . S
C680 H672 0.950 . S
C680 C681 1.386 . S
C680 C682 1.391 . S
C681 C680 1.386 . S
C681 C685 1.393 . S
C682 H674 0.950 . S
C682 C680 1.391 . S
C682 C683 1.400 . S
C683 C682 1.400 . S
C683 C684 1.398 . S
C683 C689 1.491 . S
C684 H675 0.950 . S
C684 C683 1.398 . S
C684 C685 1.391 . S
C685 H673 0.950 . S
C685 C681 1.393 . S
C685 C684 1.391 . S
C686 H676 0.950 . S
C686 C687 1.386 . S
C686 C688 1.391 . S
C687 C686 1.386 . S
C687 C691 1.393 . S
C688 H677 0.950 . S
C688 C686 1.391 . S
C688 C689 1.400 . S
C689 C683 1.491 . S
C689 C688 1.400 . S
C689 C690 1.398 . S
C690 H678 0.950 . S
C690 C689 1.398 . S
C690 C691 1.391 . S
C691 H679 0.950 . S
C691 C687 1.393 . S
C691 C690 1.391 . S
H692 C700 0.950 . S
H693 C705 0.950 . S
H694 C702 0.950 . S
H695 C704 0.950 . S
H696 C706 0.950 1_455 S
H697 C708 0.950 . S
H698 C710 0.950 . S
H699 C711 0.950 . S
C700 H692 0.950 . S
C700 C701 1.386 . S
C700 C702 1.391 . S
C701 C700 1.386 . S
C701 C705 1.393 . S
C702 H694 0.950 . S
C702 C700 1.391 . S
C702 C703 1.400 . S
C703 C702 1.400 . S
C703 C704 1.398 . S
C703 C709 1.491 . S
C704 H695 0.950 . S
C704 C703 1.398 . S
C704 C705 1.391 . S
C705 H693 0.950 . S
C705 C701 1.393 . S
C705 C704 1.391 . S
C706 H696 0.950 1_655 S
C706 C707 1.368 1_556 S
C706 C708 1.391 . S
C707 C706 1.368 1_554 S
C707 C711 1.399 . S
C708 H697 0.950 . S
C708 C706 1.391 . S
C708 C709 1.400 . S
C709 C703 1.491 . S
C709 C708 1.400 . S
C709 C710 1.398 . S
C710 H698 0.950 . S
C710 C709 1.398 . S
C710 C711 1.391 1_556 S
C711 H699 0.950 . S
C711 C707 1.399 . S
C711 C710 1.391 1_554 S
H712 C720 0.972 . S
H713 C725 0.950 . S
H714 C722 0.950 . S
H715 C724 0.950 . S
H716 C726 0.950 . S
H717 C728 0.950 . S
H718 C730 0.950 . S
H719 C731 0.950 . S
C720 H712 0.972 . S
C720 C721 1.386 . S
C720 C722 1.391 . S
C721 C720 1.386 . S
C721 C725 1.393 . S
C722 H714 0.950 . S
C722 C720 1.391 . S
C722 C723 1.400 . S
C723 C722 1.400 . S
C723 C724 1.398 . S
C723 C729 1.491 . S
C724 H715 0.950 . S
C724 C723 1.398 . S
C724 C725 1.391 . S
C725 H713 0.950 . S
C725 C721 1.393 . S
C725 C724 1.391 . S
C726 H716 0.950 . S
C726 C727 1.386 . S
C726 C728 1.391 . S
C727 C726 1.386 . S
C727 C731 1.393 . S
C728 H717 0.950 . S
C728 C726 1.391 . S
C728 C729 1.400 . S
C729 C723 1.491 . S
C729 C728 1.400 . S
C729 C730 1.398 . S
C730 H718 0.950 . S
C730 C729 1.398 . S
C730 C731 1.391 . S
C731 H719 0.950 . S
C731 C727 1.393 . S
C731 C730 1.391 . S
H732 C740 0.950 . S
H733 C745 0.950 . S
H734 C742 0.950 . S
H735 C744 0.950 . S
H736 C746 0.950 . S
H737 C748 0.950 . S
H738 C750 0.950 . S
H739 C751 0.950 . S
C740 H732 0.950 . S
C740 C741 1.386 . S
C740 C742 1.391 . S
C741 C740 1.386 . S
C741 C745 1.393 . S
C742 H734 0.950 . S
C742 C740 1.391 . S
C742 C743 1.400 . S
C743 C742 1.400 . S
C743 C744 1.398 . S
C743 C749 1.491 . S
C744 H735 0.950 . S
C744 C743 1.398 . S
C744 C745 1.391 . S
C745 H733 0.950 . S
C745 C741 1.393 . S
C745 C744 1.391 . S
C746 H736 0.950 . S
C746 C747 1.386 . S
C746 C748 1.391 . S
C747 C746 1.386 . S
C747 C751 1.393 . S
C748 H737 0.950 . S
C748 C746 1.391 . S
C748 C749 1.400 . S
C749 C743 1.491 . S
C749 C748 1.400 . S
C749 C750 1.398 . S
C750 H738 0.950 . S
C750 C749 1.398 . S
C750 C751 1.391 . S
C751 H739 0.950 . S
C751 C747 1.393 . S
C751 C750 1.391 . S
H752 C760 0.950 . S
H753 C765 0.950 . S
H754 C762 0.950 . S
H755 C764 0.950 . S
H756 C766 0.950 1_655 S
H757 C768 0.950 . S
H758 C770 0.950 . S
H759 C771 0.950 . S
C760 H752 0.950 . S
C760 C761 1.386 . S
C760 C762 1.391 . S
C761 C760 1.386 . S
C761 C765 1.393 . S
C762 H754 0.950 . S
C762 C760 1.391 . S
C762 C763 1.400 . S
C763 C762 1.400 . S
C763 C764 1.398 . S
C763 C769 1.491 . S
C764 H755 0.950 . S
C764 C763 1.398 . S
C764 C765 1.391 . S
C765 H753 0.950 . S
C765 C761 1.393 . S
C765 C764 1.391 . S
C766 H756 0.950 1_455 S
C766 C767 1.386 . S
C766 C768 1.391 . S
C767 C766 1.386 . S
C767 C771 1.393 . S
C768 H757 0.950 . S
C768 C766 1.391 . S
C768 C769 1.400 . S
C769 C763 1.491 . S
C769 C768 1.400 . S
C769 C770 1.398 . S
C770 H758 0.950 . S
C770 C769 1.398 . S
C770 C771 1.391 . S
C771 H759 0.950 . S
C771 C767 1.393 . S
C771 C770 1.391 . S
H772 C780 0.950 . S
H773 C785 0.950 . S
H774 C782 0.950 . S
H775 C784 0.950 . S
H776 C786 0.950 . S
H777 C788 0.950 . S
H778 C790 0.950 . S
H779 C791 0.950 . S
C780 H772 0.950 . S
C780 C781 1.386 . S
C780 C782 1.391 . S
C781 C780 1.386 . S
C781 C785 1.393 . S
C782 H774 0.950 . S
C782 C780 1.391 . S
C782 C783 1.400 . S
C783 C782 1.400 . S
C783 C784 1.398 . S
C783 C789 1.491 . S
C784 H775 0.950 . S
C784 C783 1.398 . S
C784 C785 1.391 . S
C785 H773 0.950 . S
C785 C781 1.393 . S
C785 C784 1.391 . S
C786 H776 0.950 . S
C786 C787 1.386 . S
C786 C788 1.391 . S
C787 C786 1.386 . S
C787 C791 1.393 . S
C788 H777 0.950 . S
C788 C786 1.391 . S
C788 C789 1.400 . S
C789 C783 1.491 . S
C789 C788 1.400 . S
C789 C790 1.398 . S
C790 H778 0.950 . S
C790 C789 1.398 . S
C790 C791 1.391 . S
C791 H779 0.950 . S
C791 C787 1.393 . S
C791 C790 1.391 . S
H792 C800 0.950 . S
H793 C805 0.950 . S
H794 C802 0.950 . S
H795 C804 0.950 . S
H796 C806 0.950 . S
H797 C808 0.950 . S
H798 C810 0.950 . S
H799 C811 0.950 . S
C800 H792 0.950 . S
C800 C801 1.386 . S
C800 C802 1.391 . S
C801 C800 1.386 . S
C801 C805 1.393 . S
C802 H794 0.950 . S
C802 C800 1.391 . S
C802 C803 1.400 . S
C803 C802 1.400 . S
C803 C804 1.398 . S
C803 C809 1.491 . S
C804 H795 0.950 . S
C804 C803 1.398 . S
C804 C805 1.391 . S
C805 H793 0.950 . S
C805 C801 1.393 . S
C805 C804 1.391 . S
C806 H796 0.950 . S
C806 C807 1.386 . S
C806 C808 1.391 . S
C807 C806 1.386 . S
C807 C811 1.393 . S
C808 H797 0.950 . S
C808 C806 1.391 . S
C808 C809 1.400 . S
C809 C803 1.491 . S
C809 C808 1.400 . S
C809 C810 1.398 . S
C810 H798 0.950 . S
C810 C809 1.398 . S
C810 C811 1.391 . S
C811 H799 0.950 . S
C811 C807 1.393 . S
C811 C810 1.391 . S
H812 C820 0.950 . S
H813 C825 0.950 . S
H814 C822 0.950 . S
H815 C824 0.950 . S
H816 C826 0.950 . S
H817 C828 0.950 . S
H818 C830 0.950 . S
H819 C831 0.950 . S
C820 H812 0.950 . S
C820 C821 1.386 . S
C820 C822 1.391 . S
C821 C820 1.386 . S
C821 C825 1.393 . S
C822 H814 0.950 . S
C822 C820 1.391 . S
C822 C823 1.400 . S
C823 C822 1.400 . S
C823 C824 1.398 . S
C823 C829 1.491 . S
C824 H815 0.950 . S
C824 C823 1.398 . S
C824 C825 1.391 . S
C825 H813 0.950 . S
C825 C821 1.393 . S
C825 C824 1.391 . S
C826 H816 0.950 . S
C826 C827 1.386 . S
C826 C828 1.391 . S
C827 C826 1.386 . S
C827 C831 1.393 . S
C828 H817 0.950 . S
C828 C826 1.391 . S
C828 C829 1.400 . S
C829 C823 1.491 . S
C829 C828 1.400 . S
C829 C830 1.398 . S
C830 H818 0.950 . S
C830 C829 1.398 . S
C830 C831 1.391 . S
C831 H819 0.950 . S
C831 C827 1.393 . S
C831 C830 1.391 . S
H832 C840 0.950 . S
H833 C845 0.950 . S
H834 C842 0.950 . S
H835 C844 0.950 . S
H836 C846 0.950 . S
H837 C848 0.950 . S
H838 C850 0.950 . S
H839 C851 0.950 . S
C840 H832 0.950 . S
C840 C841 1.386 . S
C840 C842 1.391 . S
C841 C840 1.386 . S
C841 C845 1.393 . S
C842 H834 0.950 . S
C842 C840 1.391 . S
C842 C843 1.400 . S
C843 C842 1.400 . S
C843 C844 1.398 . S
C843 C849 1.491 . S
C844 H835 0.950 . S
C844 C843 1.398 . S
C844 C845 1.391 . S
C845 H833 0.950 . S
C845 C841 1.393 . S
C845 C844 1.391 . S
C846 H836 0.950 . S
C846 C847 1.386 . S
C846 C848 1.391 . S
C847 C846 1.386 . S
C847 C851 1.393 . S
C848 H837 0.950 . S
C848 C846 1.391 . S
C848 C849 1.400 . S
C849 C843 1.491 . S
C849 C848 1.400 . S
C849 C850 1.398 . S
C850 H838 0.950 . S
C850 C849 1.398 . S
C850 C851 1.391 . S
C851 H839 0.950 . S
C851 C847 1.393 . S
C851 C850 1.391 . S
H852 C860 0.950 . S
H853 C865 0.950 . S
H854 C862 0.950 . S
H855 C864 0.950 . S
H856 C866 0.950 . S
H857 C868 0.950 . S
H858 C870 0.950 . S
H859 C871 0.950 . S
C860 H852 0.950 . S
C860 C861 1.386 . S
C860 C862 1.391 . S
C861 C860 1.386 . S
C861 C865 1.393 . S
C862 H854 0.950 . S
C862 C860 1.391 . S
C862 C863 1.400 . S
C863 C862 1.400 . S
C863 C864 1.398 . S
C863 C869 1.491 . S
C864 H855 0.950 . S
C864 C863 1.398 . S
C864 C865 1.391 . S
C865 H853 0.950 . S
C865 C861 1.393 . S
C865 C864 1.391 . S
C866 H856 0.950 . S
C866 C867 1.386 . S
C866 C868 1.391 . S
C867 C866 1.386 . S
C867 C871 1.393 . S
C868 H857 0.950 . S
C868 C866 1.391 . S
C868 C869 1.400 . S
C869 C863 1.491 . S
C869 C868 1.400 . S
C869 C870 1.398 . S
C870 H858 0.950 . S
C870 C869 1.398 . S
C870 C871 1.391 . S
C871 H859 0.950 . S
C871 C867 1.393 . S
C871 C870 1.391 . S
H872 C880 0.950 . S
H873 C885 0.950 . S
H874 C882 0.950 . S
H875 C884 0.950 . S
H876 C886 0.950 . S
H877 C888 0.950 . S
H878 C890 0.950 . S
H879 C891 0.950 . S
C880 H872 0.950 . S
C880 C881 1.386 . S
C880 C882 1.391 . S
C881 C880 1.386 . S
C881 C885 1.393 . S
C882 H874 0.950 . S
C882 C880 1.391 . S
C882 C883 1.400 . S
C883 C882 1.400 . S
C883 C884 1.398 . S
C883 C889 1.491 . S
C884 H875 0.950 . S
C884 C883 1.398 . S
C884 C885 1.391 . S
C885 H873 0.950 . S
C885 C881 1.393 . S
C885 C884 1.391 . S
C886 H876 0.950 . S
C886 C887 1.386 . S
C886 C888 1.391 . S
C887 C886 1.386 . S
C887 C891 1.393 . S
C888 H877 0.950 . S
C888 C886 1.391 . S
C888 C889 1.400 . S
C889 C883 1.491 . S
C889 C888 1.400 . S
C889 C890 1.398 . S
C890 H878 0.950 . S
C890 C889 1.398 . S
C890 C891 1.391 . S
C891 H879 0.950 . S
C891 C887 1.393 . S
C891 C890 1.391 . S
H892 C900 0.950 . S
H893 C905 0.950 . S
H894 C902 0.950 . S
H895 C904 0.950 . S
H896 C906 0.950 . S
H897 C908 0.950 . S
H898 C910 0.950 . S
H899 C911 0.950 . S
C900 H892 0.950 . S
C900 C901 1.386 . S
C900 C902 1.391 . S
C901 C900 1.386 . S
C901 C905 1.393 . S
C902 H894 0.950 . S
C902 C900 1.391 . S
C902 C903 1.400 . S
C903 C902 1.400 . S
C903 C904 1.398 . S
C903 C909 1.491 . S
C904 H895 0.950 . S
C904 C903 1.398 . S
C904 C905 1.391 . S
C905 H893 0.950 . S
C905 C901 1.393 . S
C905 C904 1.391 . S
C906 H896 0.950 . S
C906 C907 1.386 . S
C906 C908 1.391 . S
C907 C906 1.386 . S
C907 C911 1.393 . S
C908 H897 0.950 . S
C908 C906 1.391 . S
C908 C909 1.400 . S
C909 C903 1.491 . S
C909 C908 1.400 . S
C909 C910 1.398 . S
C910 H898 0.950 . S
C910 C909 1.398 . S
C910 C911 1.391 . S
C911 H899 0.950 . S
C911 C907 1.393 . S
C911 C910 1.391 . S
C441 C302 1.231 . S
C447 C14 1.219 . S
C461 C50 1.237 . S
C467 C338 1.211 . S
C481 C86 1.211 . S
C487 C374 1.239 . S
C501 C122 1.227 . S
C507 C410 1.222 . S
C521 C230 1.240 . S
C527 C158 1.209 . S
C541 C194 1.208 . S
C547 C266 1.241 . S
C561 C4 1.512 . S
C567 C183 1.513 1_554 S
C581 C40 1.515 . S
C587 C3 1.523 1_655 S
C601 C76 1.507 . S
C607 C39 1.525 1_565 S
C621 C75 1.534 . S
C627 C112 1.516 . S
C641 C111 1.525 1_455 S
C647 C148 1.520 . S
C661 C147 1.524 1_545 S
C667 C184 1.519 . S
C681 C255 1.534 . S
C687 C220 1.509 . S
C701 C256 1.504 . S
C707 C291 1.539 1_655 S
C721 C327 1.532 1_565 S
C727 C292 1.520 . S
C741 C328 1.520 . S
C747 C363 1.525 . S
C761 C364 1.505 . S
C767 C399 1.529 1_455 S
C781 C400 1.506 . S
C787 C219 1.526 1_545 S
C801 C362 1.245 . S
C807 C2 1.235 . S
C821 C398 1.239 . S
C827 C38 1.237 . S
C841 C218 1.238 . S
C847 C74 1.242 . S
C861 C110 1.245 . S
C867 C254 1.234 . S
C881 C146 1.246 . S
C887 C290 1.231 . S
C901 C326 1.243 . S
C907 C182 1.237 . S
