# Generated by pormake.
# Topology upc, (4)-cn, num edge types: 1
# Building blocks:
#     Node 0, Type 0, BuildingBlock: GALJAG_clean_sbu_0, # of connection points: 4
#     Node 1, Type 0, BuildingBlock: GALJAG_clean_sbu_0, # of connection points: 4
#     Node 2, Type 0, BuildingBlock: GALJAG_clean_sbu_0, # of connection points: 4
#     Node 3, Type 0, BuildingBlock: GALJAG_clean_sbu_0, # of connection points: 4
#     Node 4, Type 0, BuildingBlock: GALJAG_clean_sbu_0, # of connection points: 4
#     Node 5, Type 0, BuildingBlock: GALJAG_clean_sbu_0, # of connection points: 4
#     Node 6, Type 0, BuildingBlock: GALJAG_clean_sbu_0, # of connection points: 4
#     Node 7, Type 0, BuildingBlock: GALJAG_clean_sbu_0, # of connection points: 4
#     Node 8, Type 0, BuildingBlock: GALJAG_clean_sbu_0, # of connection points: 4
#     Node 9, Type 0, BuildingBlock: GALJAG_clean_sbu_0, # of connection points: 4
#     Node 10, Type 0, BuildingBlock: GALJAG_clean_sbu_0, # of connection points: 4
#     Node 11, Type 0, BuildingBlock: GALJAG_clean_sbu_0, # of connection points: 4
#     Node 12, Type 0, BuildingBlock: GALJAG_clean_sbu_0, # of connection points: 4
#     Node 13, Type 0, BuildingBlock: GALJAG_clean_sbu_0, # of connection points: 4
#     Node 14, Type 0, BuildingBlock: GALJAG_clean_sbu_0, # of connection points: 4
#     Node 15, Type 0, BuildingBlock: GALJAG_clean_sbu_0, # of connection points: 4
#     Edge 16, Type (0, 0), BuildingBlock: OJICUG_clean_linker_0, # of connection points: 2
#     Edge 17, Type (0, 0), BuildingBlock: OJICUG_clean_linker_0, # of connection points: 2
#     Edge 18, Type (0, 0), BuildingBlock: OJICUG_clean_linker_0, # of connection points: 2
#     Edge 19, Type (0, 0), BuildingBlock: OJICUG_clean_linker_0, # of connection points: 2
#     Edge 20, Type (0, 0), BuildingBlock: OJICUG_clean_linker_0, # of connection points: 2
#     Edge 21, Type (0, 0), BuildingBlock: OJICUG_clean_linker_0, # of connection points: 2
#     Edge 22, Type (0, 0), BuildingBlock: OJICUG_clean_linker_0, # of connection points: 2
#     Edge 23, Type (0, 0), BuildingBlock: OJICUG_clean_linker_0, # of connection points: 2
#     Edge 24, Type (0, 0), BuildingBlock: OJICUG_clean_linker_0, # of connection points: 2
#     Edge 25, Type (0, 0), BuildingBlock: OJICUG_clean_linker_0, # of connection points: 2
#     Edge 26, Type (0, 0), BuildingBlock: OJICUG_clean_linker_0, # of connection points: 2
#     Edge 27, Type (0, 0), BuildingBlock: OJICUG_clean_linker_0, # of connection points: 2
#     Edge 28, Type (0, 0), BuildingBlock: OJICUG_clean_linker_0, # of connection points: 2
#     Edge 29, Type (0, 0), BuildingBlock: OJICUG_clean_linker_0, # of connection points: 2
#     Edge 30, Type (0, 0), BuildingBlock: OJICUG_clean_linker_0, # of connection points: 2
#     Edge 31, Type (0, 0), BuildingBlock: OJICUG_clean_linker_0, # of connection points: 2
#     Edge 32, Type (0, 0), BuildingBlock: OJICUG_clean_linker_0, # of connection points: 2
#     Edge 33, Type (0, 0), BuildingBlock: OJICUG_clean_linker_0, # of connection points: 2
#     Edge 34, Type (0, 0), BuildingBlock: OJICUG_clean_linker_0, # of connection points: 2
#     Edge 35, Type (0, 0), BuildingBlock: OJICUG_clean_linker_0, # of connection points: 2
#     Edge 36, Type (0, 0), BuildingBlock: OJICUG_clean_linker_0, # of connection points: 2
#     Edge 37, Type (0, 0), BuildingBlock: OJICUG_clean_linker_0, # of connection points: 2
#     Edge 38, Type (0, 0), BuildingBlock: OJICUG_clean_linker_0, # of connection points: 2
#     Edge 39, Type (0, 0), BuildingBlock: OJICUG_clean_linker_0, # of connection points: 2
#     Edge 40, Type (0, 0), BuildingBlock: OJICUG_clean_linker_0, # of connection points: 2
#     Edge 41, Type (0, 0), BuildingBlock: OJICUG_clean_linker_0, # of connection points: 2
#     Edge 42, Type (0, 0), BuildingBlock: OJICUG_clean_linker_0, # of connection points: 2
#     Edge 43, Type (0, 0), BuildingBlock: OJICUG_clean_linker_0, # of connection points: 2
#     Edge 44, Type (0, 0), BuildingBlock: OJICUG_clean_linker_0, # of connection points: 2
#     Edge 45, Type (0, 0), BuildingBlock: OJICUG_clean_linker_0, # of connection points: 2
#     Edge 46, Type (0, 0), BuildingBlock: OJICUG_clean_linker_0, # of connection points: 2
#     Edge 47, Type (0, 0), BuildingBlock: OJICUG_clean_linker_0, # of connection points: 2
# Relax obj value: 0.220
# Max RMSD: 0.228
# Mean RMSD: 0.228
data_MOF--net-upc--node1-GALJAG_clean_sbu_0--edge1-OJICUG_clean_linker_0
_symmetry_space_group_name_H-M    P1
_symmetry_Int_Tables_number       1
_symmetry_cell_setting            triclinic
loop_
_symmetry_equiv_pos_as_xyz
'x, y, z'
_cell_length_a     25.559941
_cell_length_b     25.674397
_cell_length_c     30.03712
_cell_angle_alpha  90.018483
_cell_angle_beta   89.901115
_cell_angle_gamma 89.910071
loop_
_atom_site_label
_atom_site_type_symbol
_atom_site_fract_x
_atom_site_fract_y
_atom_site_fract_z
_atom_type_partial_charge
In0 In 0.09709 0.61607 0.12354 0.0
O1 O 0.13778 0.5576 0.17062 0.0
O2 O 0.06503 0.53712 0.1416 0.0
C3 C 0.18318 0.67755 0.11614 0.0
C4 C 0.06082 0.57548 0.04751 0.0
C5 C 0.03313 0.67919 0.17114 0.0
O6 O 0.17087 0.65387 0.15136 0.0
O7 O 0.15431 0.66728 0.08324 0.0
O8 O 0.04613 0.68918 0.13153 0.0
O9 O 0.04995 0.6363 0.18539 0.0
C10 C 0.10165 0.52422 0.16722 0.0
O11 O 0.03444 0.60709 0.07085 0.0
O12 O 0.10732 0.56803 0.0606 0.0
In13 In 0.90384 0.09873 0.13071 0.0
O14 O 0.9231 0.02981 0.08606 0.0
O15 O 0.95353 0.10425 0.06803 0.0
C16 C 0.84054 0.02918 0.17167 0.0
C17 C 0.98648 0.11471 0.1854 0.0
C18 C 0.84164 0.18361 0.1183 0.0
O19 O 0.82797 0.05178 0.13597 0.0
O20 O 0.88633 0.0388 0.18455 0.0
O21 O 0.86737 0.17557 0.15331 0.0
O22 O 0.8502 0.151 0.08776 0.0
C23 C 0.95152 0.05593 0.05981 0.0
O24 O 0.93973 0.12276 0.19703 0.0
O25 O 0.9918 0.1029 0.14495 0.0
In26 In 0.42547 0.90132 0.12615 0.0
O27 O 0.38808 0.96417 0.17141 0.0
O28 O 0.46442 0.97638 0.14511 0.0
C29 C 0.33827 0.84193 0.11648 0.0
C30 C 0.46139 0.94208 0.04998 0.0
C31 C 0.48532 0.83678 0.17592 0.0
O32 O 0.34675 0.8697 0.15035 0.0
O33 O 0.37175 0.847 0.08591 0.0
O34 O 0.47743 0.82886 0.13503 0.0
O35 O 0.46508 0.87799 0.19059 0.0
C36 C 0.42771 0.99359 0.16891 0.0
O37 O 0.48738 0.90948 0.07255 0.0
O38 O 0.41542 0.95068 0.064 0.0
In39 In 0.61379 0.42196 0.12147 0.0
O40 O 0.54722 0.38421 0.16257 0.0
O41 O 0.53787 0.46148 0.13833 0.0
C42 C 0.67393 0.3352 0.11344 0.0
C43 C 0.57881 0.45867 0.04351 0.0
C44 C 0.67699 0.47991 0.17399 0.0
O45 O 0.64503 0.34392 0.1467 0.0
O46 O 0.66959 0.36817 0.08257 0.0
O47 O 0.68591 0.47345 0.13304 0.0
O48 O 0.63533 0.45927 0.1875 0.0
C49 C 0.5185 0.42432 0.16007 0.0
O50 O 0.60873 0.48461 0.06864 0.0
O51 O 0.56967 0.41256 0.05629 0.0
In52 In 0.0895 0.90091 0.34896 0.0
O53 O 0.02754 0.90707 0.4026 0.0
O54 O 0.10065 0.94507 0.41384 0.0
C55 C 0.02958 0.83879 0.29715 0.0
C56 C 0.08818 0.99534 0.30971 0.0
C57 C 0.17575 0.83965 0.35587 0.0
O58 O 0.0375 0.82917 0.33777 0.0
O59 O 0.04955 0.88067 0.2838 0.0
O60 O 0.16688 0.86834 0.32263 0.0
O61 O 0.14334 0.84482 0.38725 0.0
C62 C 0.05443 0.93665 0.42728 0.0
O63 O 0.12779 0.96584 0.30668 0.0
O64 O 0.05112 0.97726 0.33255 0.0
In65 In 0.62004 0.09345 0.3435 0.0
O66 O 0.60244 0.02392 0.38768 0.0
O67 O 0.57603 0.09869 0.40926 0.0
C68 C 0.68229 0.02644 0.29805 0.0
C69 C 0.53362 0.10893 0.29312 0.0
C70 C 0.68144 0.17882 0.35469 0.0
O71 O 0.69546 0.04617 0.33478 0.0
O72 O 0.63651 0.03764 0.28611 0.0
O73 O 0.65052 0.17332 0.32247 0.0
O74 O 0.67862 0.1432 0.38345 0.0
C75 C 0.57737 0.05009 0.41632 0.0
O76 O 0.57915 0.12027 0.28009 0.0
O77 O 0.53134 0.09375 0.33294 0.0
In78 In 0.41044 0.60845 0.33628 0.0
O79 O 0.3887 0.57268 0.26949 0.0
O80 O 0.40453 0.5208 0.32244 0.0
C81 C 0.32504 0.67009 0.34936 0.0
C82 C 0.45619 0.56163 0.40599 0.0
C83 C 0.47953 0.67299 0.29645 0.0
O84 O 0.33335 0.64513 0.31399 0.0
O85 O 0.35747 0.66081 0.37991 0.0
O86 O 0.4575 0.6839 0.33289 0.0
O87 O 0.46939 0.62815 0.28193 0.0
C88 C 0.39494 0.52606 0.28157 0.0
O89 O 0.48131 0.58976 0.37886 0.0
O90 O 0.4074 0.55918 0.39911 0.0
In91 In 0.90778 0.41752 0.34202 0.0
O92 O 0.96541 0.37942 0.29243 0.0
O93 O 0.98652 0.45058 0.32347 0.0
C94 C 0.84828 0.33071 0.3507 0.0
C95 C 0.94888 0.45272 0.41801 0.0
C96 C 0.84099 0.48004 0.29694 0.0
O97 O 0.87001 0.34379 0.31472 0.0
O98 O 0.85975 0.35915 0.3835 0.0
O99 O 0.83256 0.46599 0.33653 0.0
O100 O 0.8843 0.46526 0.28153 0.0
C101 C 0.99885 0.41541 0.29627 0.0
O102 O 0.91707 0.47932 0.39509 0.0
O103 O 0.95673 0.40674 0.40422 0.0
In104 In 0.92537 0.39925 0.84369 0.0
O105 O 0.98844 0.40879 0.89593 0.0
O106 O 0.91536 0.44734 0.90662 0.0
C107 C 0.98973 0.3367 0.79584 0.0
C108 C 0.9195 0.49073 0.79945 0.0
C109 C 0.83957 0.33743 0.85171 0.0
O110 O 0.97682 0.32644 0.83542 0.0
O111 O 0.97271 0.37962 0.78184 0.0
O112 O 0.85135 0.3613 0.81647 0.0
O113 O 0.86883 0.34763 0.88436 0.0
C114 C 0.96202 0.44022 0.91943 0.0
O115 O 0.88449 0.45629 0.7955 0.0
O116 O 0.9555 0.47918 0.82615 0.0
In117 In 0.11503 0.92367 0.84604 0.0
O118 O 0.1088 0.98591 0.89928 0.0
O119 O 0.07069 0.91321 0.91105 0.0
C120 C 0.17667 0.97858 0.78975 0.0
C121 C 0.01968 0.92838 0.80839 0.0
C122 C 0.1759 0.83787 0.85603 0.0
O123 O 0.1852 0.97708 0.83112 0.0
O124 O 0.13638 0.95444 0.7777 0.0
O125 O 0.14234 0.84221 0.82546 0.0
O126 O 0.17618 0.87503 0.88346 0.0
C127 C 0.07904 0.95933 0.92414 0.0
O128 O 0.04679 0.88707 0.80655 0.0
O129 O 0.04076 0.96562 0.82888 0.0
In130 In 0.59619 0.11505 0.8434 0.0
O131 O 0.53479 0.10742 0.8975 0.0
O132 O 0.60638 0.06544 0.90539 0.0
C133 C 0.53721 0.18105 0.79441 0.0
C134 C 0.59163 0.0227 0.80106 0.0
C135 C 0.68408 0.17345 0.85228 0.0
O136 O 0.54536 0.18833 0.83536 0.0
O137 O 0.55685 0.1398 0.77921 0.0
O138 O 0.67469 0.14616 0.81829 0.0
O139 O 0.65118 0.16829 0.88331 0.0
C140 C 0.56065 0.07443 0.91976 0.0
O141 O 0.63263 0.05031 0.79951 0.0
O142 O 0.55461 0.04189 0.82336 0.0
In143 In 0.40734 0.60276 0.83756 0.0
O144 O 0.44353 0.626 0.77109 0.0
O145 O 0.49542 0.60959 0.82394 0.0
C146 C 0.34417 0.68711 0.84942 0.0
C147 C 0.45444 0.55839 0.90784 0.0
C148 C 0.34407 0.53207 0.79842 0.0
O149 O 0.36687 0.67668 0.81332 0.0
O150 O 0.3563 0.65731 0.88113 0.0
O151 O 0.33216 0.55482 0.83428 0.0
O152 O 0.38926 0.54237 0.78424 0.0
C153 C 0.49033 0.62008 0.78324 0.0
O154 O 0.42641 0.53287 0.88095 0.0
O155 O 0.45645 0.60693 0.90053 0.0
In156 In 0.91425 0.11296 0.63256 0.0
O157 O 0.98413 0.09167 0.58933 0.0
O158 O 0.90909 0.06329 0.57006 0.0
C159 C 0.98457 0.17578 0.67287 0.0
C160 C 0.89693 0.03152 0.68784 0.0
C161 C 0.83016 0.17617 0.6194 0.0
O162 O 0.9627 0.18762 0.63664 0.0
O163 O 0.97374 0.13085 0.68679 0.0
O164 O 0.83658 0.14931 0.65401 0.0
O165 O 0.86392 0.16815 0.58954 0.0
C166 C 0.95786 0.06401 0.5627 0.0
O167 O 0.89167 0.07839 0.69965 0.0
O168 O 0.90644 0.02566 0.64698 0.0
In169 In 0.40681 0.90856 0.62418 0.0
O170 O 0.42515 0.97782 0.57988 0.0
O171 O 0.45385 0.90329 0.55992 0.0
C172 C 0.33839 0.97414 0.66429 0.0
C173 C 0.49023 0.89854 0.67891 0.0
C174 C 0.34958 0.82041 0.61323 0.0
O175 O 0.32828 0.95119 0.62822 0.0
O176 O 0.38425 0.96697 0.67815 0.0
O177 O 0.37902 0.82803 0.64616 0.0
O178 O 0.35218 0.85523 0.58376 0.0
C179 C 0.45193 0.95174 0.55231 0.0
O180 O 0.44396 0.8888 0.69093 0.0
O181 O 0.4949 0.90912 0.63814 0.0
In182 In 0.59533 0.40742 0.62072 0.0
O183 O 0.53245 0.4111 0.56798 0.0
O184 O 0.60441 0.45069 0.55515 0.0
C185 C 0.53522 0.34418 0.67135 0.0
C186 C 0.59437 0.50217 0.65966 0.0
C187 C 0.68221 0.34692 0.6144 0.0
O188 O 0.5446 0.33486 0.63089 0.0
O189 O 0.55374 0.38651 0.6852 0.0
O190 O 0.67056 0.37257 0.64882 0.0
O191 O 0.65246 0.35504 0.58168 0.0
C192 C 0.55821 0.44082 0.54251 0.0
O193 O 0.63371 0.47242 0.66291 0.0
O194 O 0.55744 0.4842 0.63675 0.0
In195 In 0.11984 0.5842 0.62699 0.0
O196 O 0.06131 0.62685 0.67301 0.0
O197 O 0.03969 0.55422 0.64481 0.0
C198 C 0.18287 0.66844 0.61756 0.0
C199 C 0.0801 0.5477 0.55093 0.0
C200 C 0.18221 0.5213 0.67607 0.0
O201 O 0.15979 0.65724 0.65339 0.0
O202 O 0.17128 0.63939 0.58519 0.0
O203 O 0.19239 0.53248 0.63609 0.0
O204 O 0.13928 0.53909 0.68985 0.0
C205 C 0.02713 0.59146 0.66985 0.0
O206 O 0.11047 0.52093 0.5751 0.0
O207 O 0.0732 0.59428 0.56354 0.0
C208 C 0.24433 0.7378 0.07513 0.0
C209 C 0.2238 0.71873 0.11541 0.0
H210 H 0.29713 0.79169 0.04378 0.0
C211 C 0.23996 0.74174 0.15557 0.0
H212 H 0.23229 0.72109 0.04366 0.0
C213 C 0.27558 0.78299 0.15555 0.0
C214 C 0.29684 0.80158 0.11543 0.0
H215 H 0.22442 0.7284 0.18715 0.0
H216 H 0.28737 0.79955 0.18716 0.0
C217 C 0.2811 0.77839 0.07519 0.0
C218 C 0.78003 0.24121 0.07512 0.0
C219 C 0.79958 0.22327 0.11607 0.0
H220 H 0.72498 0.29139 0.04205 0.0
C221 C 0.77619 0.24099 0.15567 0.0
H222 H 0.79707 0.22785 0.0441 0.0
C223 C 0.73402 0.27563 0.15446 0.0
C224 C 0.71501 0.29445 0.11366 0.0
H225 H 0.78988 0.22735 0.18774 0.0
H226 H 0.71714 0.28868 0.18565 0.0
C227 C 0.73861 0.27719 0.07395 0.0
C228 C 0.2336 0.77836 0.31415 0.0
C229 C 0.21583 0.79793 0.35515 0.0
H230 H 0.2805 0.72169 0.28035 0.0
C231 C 0.23336 0.77432 0.39468 0.0
H232 H 0.22028 0.79522 0.2831 0.0
C233 C 0.26865 0.73239 0.39312 0.0
C234 C 0.28564 0.71236 0.35198 0.0
H235 H 0.21994 0.78838 0.42674 0.0
H236 H 0.28231 0.71541 0.42401 0.0
C237 C 0.26758 0.73573 0.31257 0.0
C238 C 0.78067 0.27641 0.31325 0.0
C239 C 0.80702 0.29036 0.35248 0.0
H240 H 0.71942 0.23169 0.2836 0.0
C241 C 0.7908 0.26838 0.39309 0.0
H242 H 0.79178 0.29316 0.28151 0.0
C243 C 0.74952 0.23238 0.39421 0.0
C244 C 0.72283 0.21908 0.35493 0.0
H245 H 0.81017 0.27879 0.42388 0.0
H246 H 0.73834 0.21519 0.42574 0.0
C247 C 0.73872 0.24169 0.31453 0.0
C248 C 0.779 0.27695 0.89309 0.0
C249 C 0.79901 0.2962 0.85269 0.0
H250 H 0.72651 0.22303 0.92475 0.0
C251 C 0.78228 0.27342 0.8126 0.0
H252 H 0.79148 0.29348 0.9245 0.0
C253 C 0.74656 0.23225 0.81281 0.0
C254 C 0.72578 0.21351 0.85306 0.0
H255 H 0.79739 0.28691 0.78092 0.0
H256 H 0.73428 0.21591 0.78126 0.0
C257 C 0.74215 0.23643 0.89324 0.0
C258 C 0.28584 0.74788 0.89295 0.0
C259 C 0.30161 0.72619 0.8521 0.0
H260 H 0.23372 0.80102 0.92627 0.0
C261 C 0.27422 0.73984 0.81326 0.0
H262 H 0.30602 0.7377 0.92343 0.0
C263 C 0.23192 0.77429 0.81512 0.0
C264 C 0.21683 0.79701 0.85569 0.0
H265 H 0.28499 0.72326 0.78134 0.0
H266 H 0.21198 0.78429 0.78448 0.0
C267 C 0.24433 0.78373 0.89461 0.0
C268 C 0.7418 0.28358 0.57509 0.0
C269 C 0.72206 0.30498 0.61484 0.0
H270 H 0.79207 0.22605 0.54522 0.0
C271 C 0.73732 0.2829 0.65561 0.0
H272 H 0.73035 0.29957 0.54318 0.0
C273 C 0.77097 0.24001 0.65669 0.0
C274 C 0.79118 0.21882 0.61708 0.0
H275 H 0.72228 0.29802 0.6868 0.0
H276 H 0.78192 0.22403 0.68874 0.0
C277 C 0.77672 0.24133 0.57623 0.0
C278 C 0.2507 0.72263 0.65487 0.0
C279 C 0.22495 0.70791 0.61555 0.0
H280 H 0.31127 0.76818 0.68459 0.0
C281 C 0.24205 0.72879 0.57478 0.0
H282 H 0.23891 0.7067 0.68674 0.0
C283 C 0.28332 0.76477 0.57361 0.0
C284 C 0.30915 0.77919 0.61303 0.0
H285 H 0.22315 0.71778 0.54393 0.0
H286 H 0.29496 0.78136 0.54195 0.0
C287 C 0.29266 0.75735 0.65356 0.0
C288 C 0.03401 0.41174 0.2194 0.0
C289 C 0.0416 0.42437 0.26432 0.0
H290 H 0.04875 0.43441 0.15199 0.0
C291 C 0.08206 0.45886 0.27591 0.0
H292 H 1.00312 0.38527 0.2096 0.0
C293 C 0.10878 0.48649 0.2429 0.0
C294 C 0.09448 0.48041 0.19818 0.0
H295 H 0.08884 0.46889 0.31047 0.0
H296 H 0.13524 0.5173 0.25283 0.0
C297 C 0.06005 0.44003 0.18642 0.0
C298 C 0.07139 0.07325 0.20614 0.0
C299 C 0.02742 0.10302 0.21861 0.0
H300 H 0.12681 0.01518 0.22657 0.0
C301 C 0.01568 0.10864 0.26402 0.0
H302 H 0.08173 0.06859 0.17138 0.0
C303 C 0.04142 0.07801 0.29546 0.0
C304 C 0.07951 0.04179 0.28195 0.0
H305 H 0.98257 0.13192 0.27472 0.0
H306 H 0.02749 0.0785 0.32956 0.0
C307 C 0.0974 0.04268 0.23778 0.0
C308 C 0.50036 0.10592 0.21555 0.0
C309 C 0.4912 0.09798 0.26112 0.0
H310 H 0.48562 0.07857 0.14954 0.0
C311 C 0.44848 0.06694 0.27422 0.0
H312 H 0.53244 0.13021 0.20439 0.0
C313 C 0.4213 0.03748 0.24257 0.0
C314 C 0.43682 0.03895 0.19779 0.0
H315 H 0.4401 0.06053 0.30915 0.0
H316 H 0.39303 0.009 0.25391 0.0
C317 C 0.47351 0.07634 0.18409 0.0
C318 C 0.46898 0.4154 0.23111 0.0
C319 C 0.47105 0.43291 0.18691 0.0
H320 H 0.44102 0.43141 0.29695 0.0
C321 C 0.43492 0.47056 0.17256 0.0
H322 H 0.49643 0.38635 0.24292 0.0
C323 C 0.40309 0.49622 0.2033 0.0
C324 C 0.40749 0.48491 0.24885 0.0
H325 H 0.43538 0.48419 0.13842 0.0
H326 H 0.37989 0.529 0.19203 0.0
C327 C 0.43722 0.44136 0.26206 0.0
C328 C 0.94205 0.55146 0.68949 0.0
C329 C 0.98288 0.58562 0.70082 0.0
H330 H 0.88732 0.49493 0.71329 0.0
C331 C 0.98917 0.60043 0.74541 0.0
H332 H 0.93621 0.53986 0.65517 0.0
C333 C 0.96162 0.57416 0.77874 0.0
C334 C 0.92712 0.53359 0.76758 0.0
H335 H 0.02025 0.62678 0.755 0.0
H336 H 0.97205 0.58115 0.81318 0.0
C337 C 0.91389 0.52582 0.72279 0.0
C338 C 0.93707 0.97643 0.79676 0.0
C339 C 0.97197 0.93769 0.78224 0.0
H340 H 0.88323 0.03598 0.77757 0.0
C341 C 0.9687 0.91961 0.73826 0.0
H342 H 0.93849 0.99053 0.83076 0.0
C343 C 0.93711 0.94595 0.70754 0.0
C344 C 0.90876 0.99045 0.72076 0.0
H345 H 0.99521 0.88972 0.72634 0.0
H346 H 0.94006 0.93543 0.6727 0.0
C347 C 0.90537 1.00245 0.76626 0.0
C348 C 0.54488 0.94001 0.78793 0.0
C349 C 0.58244 0.97619 0.77358 0.0
H350 H 0.48694 0.88465 0.7686 0.0
C351 C 0.5998 0.97466 0.72928 0.0
H352 H 0.53135 0.94012 0.82215 0.0
C353 C 0.57401 0.94297 0.69835 0.0
C354 C 0.53084 0.91267 0.71167 0.0
H355 H 0.62873 1.00222 0.71749 0.0
H356 H 0.58399 0.94685 0.66344 0.0
C357 C 0.51947 0.9082 0.75723 0.0
C358 C 0.54781 0.58499 0.67367 0.0
C359 C 0.58561 0.54865 0.6874 0.0
H360 H 0.48837 0.63852 0.6941 0.0
C361 C 0.60266 0.54924 0.73177 0.0
H362 H 0.53454 0.58572 0.63943 0.0
C363 C 0.57597 0.5795 0.7633 0.0
C364 C 0.53213 0.60919 0.75052 0.0
H365 H 0.63184 0.52165 0.74313 0.0
H366 H 0.58556 0.57449 0.79816 0.0
C367 C 0.52135 0.61526 0.70502 0.0
C368 C 0.00965 0.77131 0.1881 0.0
C369 C 0.01236 0.71912 0.20179 0.0
H370 H 0.01184 0.85109 0.20839 0.0
C371 C 1.00652 0.70732 0.24724 0.0
H372 H 0.01346 0.78156 0.15326 0.0
C373 C 1.00567 0.74718 0.2789 0.0
C374 C 0.01066 0.79926 0.26541 0.0
H375 H 1.00774 0.66733 0.25871 0.0
H376 H 1.00641 0.73688 0.31386 0.0
C377 C 1.00882 0.81116 0.21974 0.0
C378 C 0.74849 1.00425 0.18879 0.0
C379 C 0.80106 1.00687 0.20205 0.0
H380 H 0.66857 1.00663 0.20969 0.0
C381 C 0.81336 1.00049 0.24735 0.0
H382 H 0.73789 0.00835 0.15406 0.0
C383 C 0.77363 1.00022 0.27934 0.0
C384 C 0.72119 1.00559 0.26631 0.0
H385 H 0.85361 1.00164 0.25856 0.0
H386 H 0.7843 1.00116 0.31422 0.0
C387 C 0.70875 1.00326 0.22076 0.0
C388 C 0.50924 0.70353 0.22193 0.0
C389 C 0.50216 0.7136 0.26758 0.0
H390 H 0.51009 0.73574 0.1562 0.0
C391 C 0.50457 0.7652 0.28283 0.0
H392 H 0.50822 0.66403 0.20925 0.0
C393 C 0.50592 0.80624 0.25242 0.0
C394 C 0.50464 0.79612 0.20643 0.0
H395 H 0.50002 0.77408 0.31789 0.0
H396 H 0.50255 0.84569 0.26493 0.0
C397 C 0.51032 0.74464 0.19146 0.0
C398 C 0.70616 0.4989 0.25138 0.0
C399 C 0.71696 0.49878 0.20546 0.0
H400 H 0.7378 0.49421 0.31715 0.0
C401 C 0.76866 0.5063 0.19104 0.0
H402 H 0.66653 0.49389 0.26347 0.0
C403 C 0.80952 0.50659 0.22186 0.0
C404 C 0.79914 0.49936 0.26744 0.0
H405 H 0.77808 0.50694 0.15587 0.0
H406 H 0.84938 0.50749 0.20957 0.0
C407 C 0.74701 0.49923 0.2822 0.0
C408 C 0.01066 0.26746 0.68797 0.0
C409 C 1.00754 0.21557 0.70237 0.0
H410 H 1.00908 0.34758 0.70713 0.0
C411 C 0.01406 0.2045 0.74789 0.0
H412 H 1.00654 0.2771 0.65304 0.0
C413 C 0.01502 0.24494 0.77902 0.0
C414 C 0.00991 0.2968 0.76487 0.0
H415 H 0.01254 0.16476 0.75994 0.0
H416 H 0.0142 0.23528 0.81412 0.0
C417 C 0.01205 0.30786 0.71905 0.0
C418 C 0.30782 1.0053 0.73856 0.0
C419 C 0.29679 0.99472 0.69359 0.0
H420 H 0.27752 0.0091 0.80502 0.0
C421 C 0.24441 0.99236 0.6798 0.0
H422 H 0.34787 0.00784 0.75011 0.0
C423 C 0.20417 0.99319 0.71126 0.0
C424 C 0.21577 0.99634 0.75692 0.0
H425 H 0.23468 0.98486 0.6453 0.0
H426 H 0.16446 0.98654 0.70008 0.0
C427 C 0.26751 1.00602 0.77009 0.0
C428 C 0.51223 0.21151 0.71877 0.0
C429 C 0.51759 0.2221 0.76445 0.0
H430 H 0.5124 0.24277 0.65279 0.0
C431 C 0.51496 0.2739 0.77921 0.0
H432 H 0.51339 0.17182 0.70653 0.0
C433 C 0.51443 0.3146 0.74835 0.0
C434 C 0.51642 0.30389 0.70246 0.0
H435 H 0.51853 0.28318 0.81426 0.0
H436 H 0.51746 0.35422 0.76049 0.0
C437 C 0.51155 0.25217 0.68794 0.0
C438 C 0.31525 0.49992 0.7242 0.0
C439 C 0.30415 0.50807 0.76955 0.0
H440 H 0.28422 0.4969 0.65811 0.0
C441 C 0.25207 0.50512 0.78419 0.0
H442 H 0.35513 0.50128 0.71199 0.0
C443 C 0.21144 0.50216 0.7533 0.0
C444 C 0.22246 0.50256 0.70741 0.0
H445 H 0.24241 0.51047 0.81903 0.0
H446 H 0.17154 0.50527 0.76525 0.0
C447 C 0.27458 0.49736 0.69325 0.0
C448 C 0.06484 0.50254 -0.00758 0.0
C449 C 0.03632 0.54281 0.01287 0.0
H450 H 0.06339 0.43772 0.94761 0.0
C451 C 0.98268 0.54783 0.00356 0.0
H452 H 0.10608 0.49726 -0.00062 0.0
C453 C 0.95805 0.51328 0.9744 0.0
C454 C 0.98657 0.473 0.95397 0.0
H455 H 0.9595 0.5781 0.01922 0.0
H456 H 0.91681 0.51855 0.96746 0.0
C457 C 0.04022 0.46799 0.96326 0.0
C458 C 0.01346 0.95338 -0.01412 0.0
C459 C 0.04952 0.98305 0.96132 0.0
H460 H 0.95372 0.9533 0.03598 0.0
C461 C 0.05305 0.03684 0.96943 0.0
H462 H 0.00953 0.91192 0.98009 0.0
C463 C 0.02059 0.06063 0.00092 0.0
C464 C 0.98409 0.0311 0.02509 0.0
H465 H 0.08012 0.06083 0.95075 0.0
H466 H 0.02417 0.10219 0.00636 0.0
C467 C 0.98115 0.97716 0.01754 0.0
C468 C 0.45825 0.01563 -0.00449 0.0
C469 C 0.48595 0.97419 0.01494 0.0
H470 H 0.46053 0.08061 0.95093 0.0
C471 C 0.53899 0.9672 0.00404 0.0
H472 H 0.41751 0.02242 0.0037 0.0
C473 C 0.56382 1.00094 0.97428 0.0
C474 C 0.53612 0.04238 0.95485 0.0
H475 H 0.56154 0.93596 0.01887 0.0
H476 H 0.60455 0.99415 0.96609 0.0
C477 C 0.48308 0.04939 0.96577 0.0
C478 C 0.52274 0.56156 0.96724 0.0
C479 C 0.48634 0.53273 0.94245 0.0
H480 H 0.58143 0.56045 0.01793 0.0
C481 C 0.48271 0.47872 0.94939 0.0
H482 H 0.52684 0.60314 0.96227 0.0
C483 C 0.51421 0.45417 0.98112 0.0
C484 C 0.55014 0.48313 0.00631 0.0
H485 H 0.45532 0.45541 0.93048 0.0
H486 H 0.50974 0.41269 -0.01355 0.0
C487 C 0.55442 0.53699 -0.00123 0.0
C488 C 0.97677 0.96268 0.47267 0.0
C489 C 0.03084 0.9659 0.4646 0.0
H490 H 0.91118 0.99186 0.50945 0.0
C491 C 0.06084 1.00145 0.48927 0.0
H492 H 0.95253 0.93597 0.45393 0.0
C493 C 0.03706 0.03367 0.52094 0.0
C494 C 0.98281 0.03118 0.52831 0.0
H495 H 0.10252 1.00508 0.48353 0.0
H496 H 0.06113 0.06079 0.53942 0.0
C497 C 0.95297 0.99509 0.50412 0.0
C498 C 0.51516 0.0552 0.48054 0.0
C499 C 0.54694 0.02512 0.45227 0.0
H500 H 0.4596 0.05549 0.53395 0.0
C501 C 0.54655 0.97062 0.45664 0.0
H502 H 0.51434 0.09726 0.47773 0.0
C503 C 0.51491 0.94667 0.48861 0.0
C504 C 0.483 0.97674 0.51677 0.0
H505 H 0.57036 0.94638 0.4351 0.0
H506 H 0.51566 0.90461 0.49138 0.0
C507 C 0.48348 0.03125 0.51246 0.0
C508 C 0.47934 0.46312 0.49744 0.0
C509 C 0.53332 0.46843 0.50498 0.0
H510 H 0.41249 0.48907 0.46075 0.0
C511 C 0.56186 0.50438 0.47945 0.0
H512 H 0.4562 0.43603 0.51684 0.0
C513 C 0.53672 0.53497 0.44745 0.0
C514 C 0.48254 0.53039 0.4406 0.0
H515 H 0.60343 0.50961 0.48476 0.0
H516 H 0.55968 0.56248 0.42833 0.0
C517 C 0.45418 0.49389 0.46565 0.0
C518 C 0.01999 0.44711 0.47479 0.0
C519 C 0.98074 0.47627 0.45359 0.0
H520 H 0.08302 0.44717 0.52163 0.0
C521 C 0.97569 0.52952 0.46351 0.0
H522 H 0.0252 0.40612 0.46743 0.0
C523 C 0.00926 0.55317 0.49402 0.0
C524 C 0.04847 0.52402 0.51528 0.0
H525 H 0.94617 0.55313 0.44731 0.0
H526 H 1.00402 0.59416 0.50137 0.0
C527 C 0.05352 0.47076 0.50539 0.0
loop_
_geom_bond_atom_site_label_1
_geom_bond_atom_site_label_2
_geom_bond_distance
_geom_bond_site_symmetry_2
_ccdc_geom_bond_type
In0 O1 2.294 . S
In0 O2 2.326 . S
In0 O6 2.266 . S
In0 O7 2.326 . S
In0 O8 2.266 . S
In0 O9 2.326 . S
In0 O11 2.294 . S
In0 O12 2.326 . S
O1 In0 2.294 . S
O1 C10 1.240 . S
O2 In0 2.326 . S
O2 C10 1.252 . S
C3 O6 1.252 . S
C3 O7 1.260 . S
C4 O11 1.240 . S
C4 O12 1.252 . S
C5 O8 1.252 . S
C5 O9 1.260 . S
O6 In0 2.266 . S
O6 C3 1.252 . S
O7 In0 2.326 . S
O7 C3 1.260 . S
O8 In0 2.266 . S
O8 C5 1.252 . S
O9 In0 2.326 . S
O9 C5 1.260 . S
C10 O1 1.240 . S
C10 O2 1.252 . S
O11 In0 2.294 . S
O11 C4 1.240 . S
O12 In0 2.326 . S
O12 C4 1.252 . S
In13 O14 2.294 . S
In13 O15 2.326 . S
In13 O19 2.266 . S
In13 O20 2.326 . S
In13 O21 2.266 . S
In13 O22 2.326 . S
In13 O24 2.294 . S
In13 O25 2.326 . S
O14 In13 2.294 . S
O14 C23 1.240 . S
O15 In13 2.326 . S
O15 C23 1.252 . S
C16 O19 1.252 . S
C16 O20 1.260 . S
C17 O24 1.240 . S
C17 O25 1.252 . S
C18 O21 1.252 . S
C18 O22 1.260 . S
O19 In13 2.266 . S
O19 C16 1.252 . S
O20 In13 2.326 . S
O20 C16 1.260 . S
O21 In13 2.266 . S
O21 C18 1.252 . S
O22 In13 2.326 . S
O22 C18 1.260 . S
C23 O14 1.240 . S
C23 O15 1.252 . S
O24 In13 2.294 . S
O24 C17 1.240 . S
O25 In13 2.326 . S
O25 C17 1.252 . S
In26 O27 2.294 . S
In26 O28 2.326 . S
In26 O32 2.266 . S
In26 O33 2.326 . S
In26 O34 2.266 . S
In26 O35 2.326 . S
In26 O37 2.294 . S
In26 O38 2.326 . S
O27 In26 2.294 . S
O27 C36 1.240 . S
O28 In26 2.326 . S
O28 C36 1.252 . S
C29 O32 1.252 . S
C29 O33 1.260 . S
C30 O37 1.240 . S
C30 O38 1.252 . S
C31 O34 1.252 . S
C31 O35 1.260 . S
O32 In26 2.266 . S
O32 C29 1.252 . S
O33 In26 2.326 . S
O33 C29 1.260 . S
O34 In26 2.266 . S
O34 C31 1.252 . S
O35 In26 2.326 . S
O35 C31 1.260 . S
C36 O27 1.240 . S
C36 O28 1.252 . S
O37 In26 2.294 . S
O37 C30 1.240 . S
O38 In26 2.326 . S
O38 C30 1.252 . S
In39 O40 2.294 . S
In39 O41 2.326 . S
In39 O45 2.266 . S
In39 O46 2.326 . S
In39 O47 2.266 . S
In39 O48 2.326 . S
In39 O50 2.294 . S
In39 O51 2.326 . S
O40 In39 2.294 . S
O40 C49 1.240 . S
O41 In39 2.326 . S
O41 C49 1.252 . S
C42 O45 1.252 . S
C42 O46 1.260 . S
C43 O50 1.240 . S
C43 O51 1.252 . S
C44 O47 1.252 . S
C44 O48 1.260 . S
O45 In39 2.266 . S
O45 C42 1.252 . S
O46 In39 2.326 . S
O46 C42 1.260 . S
O47 In39 2.266 . S
O47 C44 1.252 . S
O48 In39 2.326 . S
O48 C44 1.260 . S
C49 O40 1.240 . S
C49 O41 1.252 . S
O50 In39 2.294 . S
O50 C43 1.240 . S
O51 In39 2.326 . S
O51 C43 1.252 . S
In52 O53 2.294 . S
In52 O54 2.326 . S
In52 O58 2.266 . S
In52 O59 2.326 . S
In52 O60 2.266 . S
In52 O61 2.326 . S
In52 O63 2.294 . S
In52 O64 2.326 . S
O53 In52 2.294 . S
O53 C62 1.240 . S
O54 In52 2.326 . S
O54 C62 1.252 . S
C55 O58 1.252 . S
C55 O59 1.260 . S
C56 O63 1.240 . S
C56 O64 1.252 . S
C57 O60 1.252 . S
C57 O61 1.260 . S
O58 In52 2.266 . S
O58 C55 1.252 . S
O59 In52 2.326 . S
O59 C55 1.260 . S
O60 In52 2.266 . S
O60 C57 1.252 . S
O61 In52 2.326 . S
O61 C57 1.260 . S
C62 O53 1.240 . S
C62 O54 1.252 . S
O63 In52 2.294 . S
O63 C56 1.240 . S
O64 In52 2.326 . S
O64 C56 1.252 . S
In65 O66 2.294 . S
In65 O67 2.326 . S
In65 O71 2.266 . S
In65 O72 2.326 . S
In65 O73 2.266 . S
In65 O74 2.326 . S
In65 O76 2.294 . S
In65 O77 2.326 . S
O66 In65 2.294 . S
O66 C75 1.240 . S
O67 In65 2.326 . S
O67 C75 1.252 . S
C68 O71 1.252 . S
C68 O72 1.260 . S
C69 O76 1.240 . S
C69 O77 1.252 . S
C70 O73 1.252 . S
C70 O74 1.260 . S
O71 In65 2.266 . S
O71 C68 1.252 . S
O72 In65 2.326 . S
O72 C68 1.260 . S
O73 In65 2.266 . S
O73 C70 1.252 . S
O74 In65 2.326 . S
O74 C70 1.260 . S
C75 O66 1.240 . S
C75 O67 1.252 . S
O76 In65 2.294 . S
O76 C69 1.240 . S
O77 In65 2.326 . S
O77 C69 1.252 . S
In78 O79 2.294 . S
In78 O80 2.326 . S
In78 O84 2.266 . S
In78 O85 2.326 . S
In78 O86 2.266 . S
In78 O87 2.326 . S
In78 O89 2.294 . S
In78 O90 2.326 . S
O79 In78 2.294 . S
O79 C88 1.240 . S
O80 In78 2.326 . S
O80 C88 1.252 . S
C81 O84 1.252 . S
C81 O85 1.260 . S
C82 O89 1.240 . S
C82 O90 1.252 . S
C83 O86 1.252 . S
C83 O87 1.260 . S
O84 In78 2.266 . S
O84 C81 1.252 . S
O85 In78 2.326 . S
O85 C81 1.260 . S
O86 In78 2.266 . S
O86 C83 1.252 . S
O87 In78 2.326 . S
O87 C83 1.260 . S
C88 O79 1.240 . S
C88 O80 1.252 . S
O89 In78 2.294 . S
O89 C82 1.240 . S
O90 In78 2.326 . S
O90 C82 1.252 . S
In91 O92 2.294 . S
In91 O93 2.326 . S
In91 O97 2.266 . S
In91 O98 2.326 . S
In91 O99 2.266 . S
In91 O100 2.326 . S
In91 O102 2.294 . S
In91 O103 2.326 . S
O92 In91 2.294 . S
O92 C101 1.240 . S
O93 In91 2.326 . S
O93 C101 1.252 . S
C94 O97 1.252 . S
C94 O98 1.260 . S
C95 O102 1.240 . S
C95 O103 1.252 . S
C96 O99 1.252 . S
C96 O100 1.260 . S
O97 In91 2.266 . S
O97 C94 1.252 . S
O98 In91 2.326 . S
O98 C94 1.260 . S
O99 In91 2.266 . S
O99 C96 1.252 . S
O100 In91 2.326 . S
O100 C96 1.260 . S
C101 O92 1.240 . S
C101 O93 1.252 . S
O102 In91 2.294 . S
O102 C95 1.240 . S
O103 In91 2.326 . S
O103 C95 1.252 . S
In104 O105 2.294 . S
In104 O106 2.326 . S
In104 O110 2.266 . S
In104 O111 2.326 . S
In104 O112 2.266 . S
In104 O113 2.326 . S
In104 O115 2.294 . S
In104 O116 2.326 . S
O105 In104 2.294 . S
O105 C114 1.240 . S
O106 In104 2.326 . S
O106 C114 1.252 . S
C107 O110 1.252 . S
C107 O111 1.260 . S
C108 O115 1.240 . S
C108 O116 1.252 . S
C109 O112 1.252 . S
C109 O113 1.260 . S
O110 In104 2.266 . S
O110 C107 1.252 . S
O111 In104 2.326 . S
O111 C107 1.260 . S
O112 In104 2.266 . S
O112 C109 1.252 . S
O113 In104 2.326 . S
O113 C109 1.260 . S
C114 O105 1.240 . S
C114 O106 1.252 . S
O115 In104 2.294 . S
O115 C108 1.240 . S
O116 In104 2.326 . S
O116 C108 1.252 . S
In117 O118 2.294 . S
In117 O119 2.326 . S
In117 O123 2.266 . S
In117 O124 2.326 . S
In117 O125 2.266 . S
In117 O126 2.326 . S
In117 O128 2.294 . S
In117 O129 2.326 . S
O118 In117 2.294 . S
O118 C127 1.240 . S
O119 In117 2.326 . S
O119 C127 1.252 . S
C120 O123 1.252 . S
C120 O124 1.260 . S
C121 O128 1.240 . S
C121 O129 1.252 . S
C122 O125 1.252 . S
C122 O126 1.260 . S
O123 In117 2.266 . S
O123 C120 1.252 . S
O124 In117 2.326 . S
O124 C120 1.260 . S
O125 In117 2.266 . S
O125 C122 1.252 . S
O126 In117 2.326 . S
O126 C122 1.260 . S
C127 O118 1.240 . S
C127 O119 1.252 . S
O128 In117 2.294 . S
O128 C121 1.240 . S
O129 In117 2.326 . S
O129 C121 1.252 . S
In130 O131 2.294 . S
In130 O132 2.326 . S
In130 O136 2.266 . S
In130 O137 2.326 . S
In130 O138 2.266 . S
In130 O139 2.326 . S
In130 O141 2.294 . S
In130 O142 2.326 . S
O131 In130 2.294 . S
O131 C140 1.240 . S
O132 In130 2.326 . S
O132 C140 1.252 . S
C133 O136 1.252 . S
C133 O137 1.260 . S
C134 O141 1.240 . S
C134 O142 1.252 . S
C135 O138 1.252 . S
C135 O139 1.260 . S
O136 In130 2.266 . S
O136 C133 1.252 . S
O137 In130 2.326 . S
O137 C133 1.260 . S
O138 In130 2.266 . S
O138 C135 1.252 . S
O139 In130 2.326 . S
O139 C135 1.260 . S
C140 O131 1.240 . S
C140 O132 1.252 . S
O141 In130 2.294 . S
O141 C134 1.240 . S
O142 In130 2.326 . S
O142 C134 1.252 . S
In143 O144 2.294 . S
In143 O145 2.326 . S
In143 O149 2.266 . S
In143 O150 2.326 . S
In143 O151 2.266 . S
In143 O152 2.326 . S
In143 O154 2.294 . S
In143 O155 2.326 . S
O144 In143 2.294 . S
O144 C153 1.240 . S
O145 In143 2.326 . S
O145 C153 1.252 . S
C146 O149 1.252 . S
C146 O150 1.260 . S
C147 O154 1.240 . S
C147 O155 1.252 . S
C148 O151 1.252 . S
C148 O152 1.260 . S
O149 In143 2.266 . S
O149 C146 1.252 . S
O150 In143 2.326 . S
O150 C146 1.260 . S
O151 In143 2.266 . S
O151 C148 1.252 . S
O152 In143 2.326 . S
O152 C148 1.260 . S
C153 O144 1.240 . S
C153 O145 1.252 . S
O154 In143 2.294 . S
O154 C147 1.240 . S
O155 In143 2.326 . S
O155 C147 1.252 . S
In156 O157 2.294 . S
In156 O158 2.326 . S
In156 O162 2.266 . S
In156 O163 2.326 . S
In156 O164 2.266 . S
In156 O165 2.326 . S
In156 O167 2.294 . S
In156 O168 2.326 . S
O157 In156 2.294 . S
O157 C166 1.240 . S
O158 In156 2.326 . S
O158 C166 1.252 . S
C159 O162 1.252 . S
C159 O163 1.260 . S
C160 O167 1.240 . S
C160 O168 1.252 . S
C161 O164 1.252 . S
C161 O165 1.260 . S
O162 In156 2.266 . S
O162 C159 1.252 . S
O163 In156 2.326 . S
O163 C159 1.260 . S
O164 In156 2.266 . S
O164 C161 1.252 . S
O165 In156 2.326 . S
O165 C161 1.260 . S
C166 O157 1.240 . S
C166 O158 1.252 . S
O167 In156 2.294 . S
O167 C160 1.240 . S
O168 In156 2.326 . S
O168 C160 1.252 . S
In169 O170 2.294 . S
In169 O171 2.326 . S
In169 O175 2.266 . S
In169 O176 2.326 . S
In169 O177 2.266 . S
In169 O178 2.326 . S
In169 O180 2.294 . S
In169 O181 2.326 . S
O170 In169 2.294 . S
O170 C179 1.240 . S
O171 In169 2.326 . S
O171 C179 1.252 . S
C172 O175 1.252 . S
C172 O176 1.260 . S
C173 O180 1.240 . S
C173 O181 1.252 . S
C174 O177 1.252 . S
C174 O178 1.260 . S
O175 In169 2.266 . S
O175 C172 1.252 . S
O176 In169 2.326 . S
O176 C172 1.260 . S
O177 In169 2.266 . S
O177 C174 1.252 . S
O178 In169 2.326 . S
O178 C174 1.260 . S
C179 O170 1.240 . S
C179 O171 1.252 . S
O180 In169 2.294 . S
O180 C173 1.240 . S
O181 In169 2.326 . S
O181 C173 1.252 . S
In182 O183 2.294 . S
In182 O184 2.326 . S
In182 O188 2.266 . S
In182 O189 2.326 . S
In182 O190 2.266 . S
In182 O191 2.326 . S
In182 O193 2.294 . S
In182 O194 2.326 . S
O183 In182 2.294 . S
O183 C192 1.240 . S
O184 In182 2.326 . S
O184 C192 1.252 . S
C185 O188 1.252 . S
C185 O189 1.260 . S
C186 O193 1.240 . S
C186 O194 1.252 . S
C187 O190 1.252 . S
C187 O191 1.260 . S
O188 In182 2.266 . S
O188 C185 1.252 . S
O189 In182 2.326 . S
O189 C185 1.260 . S
O190 In182 2.266 . S
O190 C187 1.252 . S
O191 In182 2.326 . S
O191 C187 1.260 . S
C192 O183 1.240 . S
C192 O184 1.252 . S
O193 In182 2.294 . S
O193 C186 1.240 . S
O194 In182 2.326 . S
O194 C186 1.252 . S
In195 O196 2.294 . S
In195 O197 2.326 . S
In195 O201 2.266 . S
In195 O202 2.326 . S
In195 O203 2.266 . S
In195 O204 2.326 . S
In195 O206 2.294 . S
In195 O207 2.326 . S
O196 In195 2.294 . S
O196 C205 1.240 . S
O197 In195 2.326 . S
O197 C205 1.252 . S
C198 O201 1.252 . S
C198 O202 1.260 . S
C199 O206 1.240 . S
C199 O207 1.252 . S
C200 O203 1.252 . S
C200 O204 1.260 . S
O201 In195 2.266 . S
O201 C198 1.252 . S
O202 In195 2.326 . S
O202 C198 1.260 . S
O203 In195 2.266 . S
O203 C200 1.252 . S
O204 In195 2.326 . S
O204 C200 1.260 . S
C205 O196 1.240 . S
C205 O197 1.252 . S
O206 In195 2.294 . S
O206 C199 1.240 . S
O207 In195 2.326 . S
O207 C199 1.252 . S
C208 C209 1.387 . S
C208 H212 0.950 . S
C208 C217 1.390 . S
C209 C208 1.387 . S
C209 C211 1.387 . S
H210 C217 0.950 . S
C211 C209 1.387 . S
C211 C213 1.390 . S
C211 H215 0.950 . S
H212 C208 0.950 . S
C213 C211 1.390 . S
C213 C214 1.387 . S
C213 H216 0.950 . S
C214 C213 1.387 . S
C214 C217 1.387 . S
H215 C211 0.950 . S
H216 C213 0.950 . S
C217 C208 1.390 . S
C217 H210 0.950 . S
C217 C214 1.387 . S
C218 C219 1.387 . S
C218 H222 0.950 . S
C218 C227 1.390 . S
C219 C218 1.387 . S
C219 C221 1.387 . S
H220 C227 0.950 . S
C221 C219 1.387 . S
C221 C223 1.390 . S
C221 H225 0.950 . S
H222 C218 0.950 . S
C223 C221 1.390 . S
C223 C224 1.387 . S
C223 H226 0.950 . S
C224 C223 1.387 . S
C224 C227 1.387 . S
H225 C221 0.950 . S
H226 C223 0.950 . S
C227 C218 1.390 . S
C227 H220 0.950 . S
C227 C224 1.387 . S
C228 C229 1.387 . S
C228 H232 0.950 . S
C228 C237 1.390 . S
C229 C228 1.387 . S
C229 C231 1.387 . S
H230 C237 0.950 . S
C231 C229 1.387 . S
C231 C233 1.390 . S
C231 H235 0.950 . S
H232 C228 0.950 . S
C233 C231 1.390 . S
C233 C234 1.387 . S
C233 H236 0.950 . S
C234 C233 1.387 . S
C234 C237 1.387 . S
H235 C231 0.950 . S
H236 C233 0.950 . S
C237 C228 1.390 . S
C237 H230 0.950 . S
C237 C234 1.387 . S
C238 C239 1.387 . S
C238 H242 0.950 . S
C238 C247 1.390 . S
C239 C238 1.387 . S
C239 C241 1.387 . S
H240 C247 0.950 . S
C241 C239 1.387 . S
C241 C243 1.390 . S
C241 H245 0.950 . S
H242 C238 0.950 . S
C243 C241 1.390 . S
C243 C244 1.387 . S
C243 H246 0.950 . S
C244 C243 1.387 . S
C244 C247 1.387 . S
H245 C241 0.950 . S
H246 C243 0.950 . S
C247 C238 1.390 . S
C247 H240 0.950 . S
C247 C244 1.387 . S
C248 C249 1.387 . S
C248 H252 0.950 . S
C248 C257 1.390 . S
C249 C248 1.387 . S
C249 C251 1.387 . S
H250 C257 0.950 . S
C251 C249 1.387 . S
C251 C253 1.390 . S
C251 H255 0.950 . S
H252 C248 0.950 . S
C253 C251 1.390 . S
C253 C254 1.387 . S
C253 H256 0.950 . S
C254 C253 1.387 . S
C254 C257 1.387 . S
H255 C251 0.950 . S
H256 C253 0.950 . S
C257 C248 1.390 . S
C257 H250 0.950 . S
C257 C254 1.387 . S
C258 C259 1.387 . S
C258 H262 0.950 . S
C258 C267 1.390 . S
C259 C258 1.387 . S
C259 C261 1.387 . S
H260 C267 0.950 . S
C261 C259 1.387 . S
C261 C263 1.390 . S
C261 H265 0.950 . S
H262 C258 0.950 . S
C263 C261 1.390 . S
C263 C264 1.387 . S
C263 H266 0.950 . S
C264 C263 1.387 . S
C264 C267 1.387 . S
H265 C261 0.950 . S
H266 C263 0.950 . S
C267 C258 1.390 . S
C267 H260 0.950 . S
C267 C264 1.387 . S
C268 C269 1.387 . S
C268 H272 0.950 . S
C268 C277 1.390 . S
C269 C268 1.387 . S
C269 C271 1.387 . S
H270 C277 0.950 . S
C271 C269 1.387 . S
C271 C273 1.390 . S
C271 H275 0.950 . S
H272 C268 0.950 . S
C273 C271 1.390 . S
C273 C274 1.387 . S
C273 H276 0.950 . S
C274 C273 1.387 . S
C274 C277 1.387 . S
H275 C271 0.950 . S
H276 C273 0.950 . S
C277 C268 1.390 . S
C277 H270 0.950 . S
C277 C274 1.387 . S
C278 C279 1.387 . S
C278 H282 0.950 . S
C278 C287 1.390 . S
C279 C278 1.387 . S
C279 C281 1.387 . S
H280 C287 0.950 . S
C281 C279 1.387 . S
C281 C283 1.390 . S
C281 H285 0.950 . S
H282 C278 0.950 . S
C283 C281 1.390 . S
C283 C284 1.387 . S
C283 H286 0.950 . S
C284 C283 1.387 . S
C284 C287 1.387 . S
H285 C281 0.950 . S
H286 C283 0.950 . S
C287 C278 1.390 . S
C287 H280 0.950 . S
C287 C284 1.387 . S
C288 C289 1.387 . S
C288 H292 0.950 . S
C288 C297 1.390 . S
C289 C288 1.387 . S
C289 C291 1.387 1_655 S
H290 C297 0.950 . S
C291 C289 1.387 1_455 S
C291 C293 1.390 . S
C291 H295 0.950 . S
H292 C288 0.950 . S
C293 C291 1.390 . S
C293 C294 1.387 . S
C293 H296 0.950 . S
C294 C293 1.387 . S
C294 C297 1.387 1_455 S
H295 C291 0.950 . S
H296 C293 0.950 . S
C297 C288 1.390 . S
C297 H290 0.950 . S
C297 C294 1.387 1_655 S
C298 C299 1.387 1_465 S
C298 H302 0.950 . S
C298 C307 1.390 . S
C299 C298 1.387 1_645 S
C299 C301 1.387 . S
H300 C307 0.950 . S
C301 C299 1.387 . S
C301 C303 1.390 . S
C301 H305 0.950 . S
H302 C298 0.950 . S
C303 C301 1.390 . S
C303 C304 1.387 1_645 S
C303 H306 0.950 . S
C304 C303 1.387 1_465 S
C304 C307 1.387 . S
H305 C301 0.950 . S
H306 C303 0.950 . S
C307 C298 1.390 . S
C307 H300 0.950 . S
C307 C304 1.387 . S
C308 C309 1.387 . S
C308 H312 0.950 . S
C308 C317 1.396 . S
C309 C308 1.387 . S
C309 C311 1.387 . S
H310 C317 0.947 1_565 S
C311 C309 1.387 . S
C311 C313 1.390 1_545 S
C311 H315 0.950 . S
H312 C308 0.950 . S
C313 C311 1.390 1_565 S
C313 C314 1.387 . S
C313 H316 0.950 . S
C314 C313 1.387 . S
C314 C317 1.384 1_565 S
H315 C311 0.950 . S
H316 C313 0.950 . S
C317 C308 1.396 . S
C317 H310 0.947 1_545 S
C317 C314 1.384 1_545 S
C318 C319 1.387 . S
C318 H322 0.950 . S
C318 C327 1.390 . S
C319 C318 1.387 . S
C319 C321 1.387 . S
H320 C327 0.950 . S
C321 C319 1.387 . S
C321 C323 1.390 . S
C321 H325 0.950 . S
H322 C318 0.950 . S
C323 C321 1.390 . S
C323 C324 1.387 . S
C323 H326 0.950 . S
C324 C323 1.387 . S
C324 C327 1.387 . S
H325 C321 0.950 . S
H326 C323 0.950 . S
C327 C318 1.390 . S
C327 H320 0.950 . S
C327 C324 1.387 . S
C328 C329 1.387 1_655 S
C328 H332 0.950 . S
C328 C337 1.390 . S
C329 C328 1.387 1_455 S
C329 C331 1.387 . S
H330 C337 0.950 . S
C331 C329 1.387 . S
C331 C333 1.390 1_455 S
C331 H335 0.950 . S
H332 C328 0.950 . S
C333 C331 1.390 1_655 S
C333 C334 1.387 . S
C333 H336 0.950 1_655 S
C334 C333 1.387 . S
C334 C337 1.387 . S
H335 C331 0.950 . S
H336 C333 0.950 1_455 S
C337 C328 1.390 . S
C337 H330 0.950 . S
C337 C334 1.387 . S
C338 C339 1.387 1_545 S
C338 H342 0.950 . S
C338 C347 1.390 1_455 S
C339 C338 1.387 1_565 S
C339 C341 1.387 1_455 S
H340 C347 0.950 . S
C341 C339 1.387 1_655 S
C341 C343 1.390 . S
C341 H345 0.950 . S
H342 C338 0.950 . S
C343 C341 1.390 . S
C343 C344 1.387 1_565 S
C343 H346 0.950 . S
C344 C343 1.387 1_545 S
C344 C347 1.387 . S
H345 C341 0.950 . S
H346 C343 0.950 . S
C347 C338 1.390 1_655 S
C347 H340 0.950 . S
C347 C344 1.387 . S
C348 C349 1.387 1_565 S
C348 H352 0.950 . S
C348 C357 1.390 . S
C349 C348 1.387 1_545 S
C349 C351 1.387 . S
H350 C357 0.950 . S
C351 C349 1.387 . S
C351 C353 1.391 1_545 S
C351 H355 0.950 . S
H352 C348 0.950 . S
C353 C351 1.391 1_565 S
C353 C354 1.386 . S
C353 H356 0.950 1_565 S
C354 C353 1.386 . S
C354 C357 1.387 . S
H355 C351 0.950 . S
H356 C353 0.950 1_545 S
C357 C348 1.390 . S
C357 H350 0.950 . S
C357 C354 1.387 . S
C358 C359 1.387 . S
C358 H362 0.950 . S
C358 C367 1.390 . S
C359 C358 1.387 . S
C359 C361 1.387 . S
H360 C367 0.950 . S
C361 C359 1.387 . S
C361 C363 1.390 . S
C361 H365 0.950 . S
H362 C358 0.950 . S
C363 C361 1.390 . S
C363 C364 1.387 . S
C363 H366 0.950 . S
C364 C363 1.387 . S
C364 C367 1.387 . S
H365 C361 0.950 . S
H366 C363 0.950 . S
C367 C358 1.390 . S
C367 H360 0.950 . S
C367 C364 1.387 . S
C368 C369 1.387 . S
C368 H372 0.950 . S
C368 C377 1.390 . S
C369 C368 1.387 . S
C369 C371 1.387 . S
H370 C377 0.950 . S
C371 C369 1.387 . S
C371 C373 1.390 . S
C371 H375 0.950 1_455 S
H372 C368 0.950 . S
C373 C371 1.390 . S
C373 C374 1.387 . S
C373 H376 0.950 1_455 S
C374 C373 1.387 . S
C374 C377 1.387 . S
H375 C371 0.950 1_655 S
H376 C373 0.950 1_655 S
C377 C368 1.390 . S
C377 H370 0.950 . S
C377 C374 1.387 . S
C378 C379 1.387 . S
C378 H382 0.950 . S
C378 C387 1.390 . S
C379 C378 1.387 . S
C379 C381 1.387 . S
H380 C387 0.950 . S
C381 C379 1.387 . S
C381 C383 1.390 . S
C381 H385 0.950 1_545 S
H382 C378 0.950 . S
C383 C381 1.390 . S
C383 C384 1.387 . S
C383 H386 0.950 1_545 S
C384 C383 1.387 . S
C384 C387 1.387 . S
H385 C381 0.950 1_565 S
H386 C383 0.950 1_565 S
C387 C378 1.390 . S
C387 H380 0.950 . S
C387 C384 1.387 . S
C388 C389 1.387 . S
C388 H392 0.950 . S
C388 C397 1.390 . S
C389 C388 1.387 . S
C389 C391 1.387 . S
H390 C397 0.950 . S
C391 C389 1.387 . S
C391 C393 1.390 . S
C391 H395 0.950 . S
H392 C388 0.950 . S
C393 C391 1.390 . S
C393 C394 1.387 . S
C393 H396 0.950 . S
C394 C393 1.387 . S
C394 C397 1.387 . S
H395 C391 0.950 . S
H396 C393 0.950 . S
C397 C388 1.390 . S
C397 H390 0.950 . S
C397 C394 1.387 . S
C398 C399 1.387 . S
C398 H402 0.950 . S
C398 C407 1.390 . S
C399 C398 1.387 . S
C399 C401 1.387 . S
H400 C407 0.950 . S
C401 C399 1.387 . S
C401 C403 1.390 . S
C401 H405 0.950 . S
H402 C398 0.950 . S
C403 C401 1.390 . S
C403 C404 1.387 . S
C403 H406 0.950 . S
C404 C403 1.387 . S
C404 C407 1.387 . S
H405 C401 0.950 . S
H406 C403 0.950 . S
C407 C398 1.390 . S
C407 H400 0.950 . S
C407 C404 1.387 . S
C408 C409 1.387 . S
C408 H412 0.950 1_655 S
C408 C417 1.390 . S
C409 C408 1.387 . S
C409 C411 1.387 . S
H410 C417 0.950 1_455 S
C411 C409 1.387 . S
C411 C413 1.390 . S
C411 H415 0.950 . S
H412 C408 0.950 1_455 S
C413 C411 1.390 . S
C413 C414 1.387 . S
C413 H416 0.950 . S
C414 C413 1.387 . S
C414 C417 1.387 . S
H415 C411 0.950 . S
H416 C413 0.950 . S
C417 C408 1.390 . S
C417 H410 0.950 1_655 S
C417 C414 1.387 . S
C418 C419 1.387 . S
C418 H422 0.950 1_565 S
C418 C427 1.390 . S
C419 C418 1.387 . S
C419 C421 1.387 . S
H420 C427 0.950 1_545 S
C421 C419 1.387 . S
C421 C423 1.390 . S
C421 H425 0.950 . S
H422 C418 0.950 1_545 S
C423 C421 1.390 . S
C423 C424 1.387 . S
C423 H426 0.950 . S
C424 C423 1.387 . S
C424 C427 1.387 . S
H425 C421 0.950 . S
H426 C423 0.950 . S
C427 C418 1.390 . S
C427 H420 0.950 1_565 S
C427 C424 1.387 . S
C428 C429 1.387 . S
C428 H432 0.950 . S
C428 C437 1.390 . S
C429 C428 1.387 . S
C429 C431 1.387 . S
H430 C437 0.950 . S
C431 C429 1.387 . S
C431 C433 1.390 . S
C431 H435 0.950 . S
H432 C428 0.950 . S
C433 C431 1.390 . S
C433 C434 1.387 . S
C433 H436 0.950 . S
C434 C433 1.387 . S
C434 C437 1.387 . S
H435 C431 0.950 . S
H436 C433 0.950 . S
C437 C428 1.390 . S
C437 H430 0.950 . S
C437 C434 1.387 . S
C438 C439 1.387 . S
C438 H442 0.950 . S
C438 C447 1.390 . S
C439 C438 1.387 . S
C439 C441 1.387 . S
H440 C447 0.950 . S
C441 C439 1.387 . S
C441 C443 1.390 . S
C441 H445 0.950 . S
H442 C438 0.950 . S
C443 C441 1.390 . S
C443 C444 1.387 . S
C443 H446 0.950 . S
C444 C443 1.387 . S
C444 C447 1.387 . S
H445 C441 0.950 . S
H446 C443 0.950 . S
C447 C438 1.390 . S
C447 H440 0.950 . S
C447 C444 1.387 . S
C448 C449 1.387 . S
C448 H452 0.950 . S
C448 C457 1.390 1_455 S
C449 C448 1.387 . S
C449 C451 1.387 1_554 S
H450 C457 0.950 . S
C451 C449 1.387 1_556 S
C451 C453 1.390 1_455 S
C451 H455 0.950 . S
H452 C448 0.950 . S
C453 C451 1.390 1_655 S
C453 C454 1.387 . S
C453 H456 0.950 . S
C454 C453 1.387 . S
C454 C457 1.387 1_556 S
H455 C451 0.950 . S
H456 C453 0.950 . S
C457 C448 1.390 1_655 S
C457 H450 0.950 . S
C457 C454 1.387 1_554 S
C458 C459 1.387 1_554 S
C458 H462 0.950 . S
C458 C467 1.390 1_455 S
C459 C458 1.387 1_556 S
C459 C461 1.387 1_565 S
H460 C467 0.950 . S
C461 C459 1.387 1_545 S
C461 C463 1.390 1_455 S
C461 H465 0.950 . S
H462 C458 0.950 . S
C463 C461 1.390 1_655 S
C463 C464 1.387 1_556 S
C463 H466 0.950 . S
C464 C463 1.387 1_554 S
C464 C467 1.387 1_545 S
H465 C461 0.950 . S
H466 C463 0.950 . S
C467 C458 1.390 1_655 S
C467 H460 0.950 . S
C467 C464 1.387 1_565 S
C468 C469 1.387 1_545 S
C468 H472 0.950 . S
C468 C477 1.390 . S
C469 C468 1.387 1_565 S
C469 C471 1.387 1_554 S
H470 C477 0.950 . S
C471 C469 1.387 1_556 S
C471 C473 1.390 . S
C471 H475 0.950 . S
H472 C468 0.950 . S
C473 C471 1.390 . S
C473 C474 1.387 1_565 S
C473 H476 0.950 . S
C474 C473 1.387 1_545 S
C474 C477 1.387 1_556 S
H475 C471 0.950 . S
H476 C473 0.950 . S
C477 C468 1.390 . S
C477 H470 0.950 . S
C477 C474 1.387 1_554 S
C478 C479 1.387 1_554 S
C478 H482 0.950 . S
C478 C487 1.390 . S
C479 C478 1.387 1_556 S
C479 C481 1.387 . S
H480 C487 0.950 . S
C481 C479 1.387 . S
C481 C483 1.390 . S
C481 H485 0.950 . S
H482 C478 0.950 . S
C483 C481 1.390 . S
C483 C484 1.387 1_556 S
C483 H486 0.950 . S
C484 C483 1.387 1_554 S
C484 C487 1.387 . S
H485 C481 0.950 . S
H486 C483 0.950 . S
C487 C478 1.390 . S
C487 H480 0.950 . S
C487 C484 1.387 . S
C488 C489 1.387 1_655 S
C488 H492 0.950 . S
C488 C497 1.390 1_565 S
C489 C488 1.387 1_455 S
C489 C491 1.387 . S
H490 C497 0.950 . S
C491 C489 1.387 . S
C491 C493 1.390 1_565 S
C491 H495 0.950 . S
H492 C488 0.950 . S
C493 C491 1.390 1_545 S
C493 C494 1.387 1_455 S
C493 H496 0.950 . S
C494 C493 1.387 1_655 S
C494 C497 1.387 . S
H495 C491 0.950 . S
H496 C493 0.950 . S
C497 C488 1.390 1_545 S
C497 H490 0.950 . S
C497 C494 1.387 . S
C498 C499 1.387 . S
C498 H502 0.950 . S
C498 C507 1.390 . S
C499 C498 1.387 . S
C499 C501 1.387 1_545 S
H500 C507 0.950 . S
C501 C499 1.387 1_565 S
C501 C503 1.390 . S
C501 H505 0.950 . S
H502 C498 0.950 . S
C503 C501 1.390 . S
C503 C504 1.387 . S
C503 H506 0.950 . S
C504 C503 1.387 . S
C504 C507 1.387 1_565 S
H505 C501 0.950 . S
H506 C503 0.950 . S
C507 C498 1.390 . S
C507 H500 0.950 . S
C507 C504 1.387 1_545 S
C508 C509 1.387 . S
C508 H512 0.950 . S
C508 C517 1.390 . S
C509 C508 1.387 . S
C509 C511 1.387 . S
H510 C517 0.950 . S
C511 C509 1.387 . S
C511 C513 1.390 . S
C511 H515 0.950 . S
H512 C508 0.950 . S
C513 C511 1.390 . S
C513 C514 1.387 . S
C513 H516 0.950 . S
C514 C513 1.387 . S
C514 C517 1.387 . S
H515 C511 0.950 . S
H516 C513 0.950 . S
C517 C508 1.390 . S
C517 H510 0.950 . S
C517 C514 1.387 . S
C518 C519 1.387 1_455 S
C518 H522 0.950 . S
C518 C527 1.390 . S
C519 C518 1.387 1_655 S
C519 C521 1.387 . S
H520 C527 0.950 . S
C521 C519 1.387 . S
C521 C523 1.390 . S
C521 H525 0.950 . S
H522 C518 0.950 . S
C523 C521 1.390 . S
C523 C524 1.387 1_655 S
C523 H526 0.950 . S
C524 C523 1.387 1_455 S
C524 C527 1.387 . S
H525 C521 0.950 . S
H526 C523 0.950 . S
C527 C518 1.390 . S
C527 H520 0.950 . S
C527 C524 1.387 . S
C209 C3 1.636 . S
C214 C29 1.636 . S
C219 C18 1.636 . S
C224 C42 1.636 . S
C229 C57 1.632 . S
C234 C81 1.632 . S
C239 C94 1.632 . S
C244 C70 1.632 . S
C249 C109 1.632 . S
C254 C135 1.632 . S
C259 C146 1.632 . S
C264 C122 1.632 . S
C269 C187 1.632 . S
C274 C161 1.632 . S
C279 C198 1.636 . S
C284 C174 1.636 . S
C289 C101 1.294 . S
C294 C10 1.292 . S
C299 C17 1.292 . S
C304 C56 1.294 . S
C309 C69 1.293 . S
C314 C36 1.292 . S
C319 C49 1.294 . S
C324 C88 1.293 . S
C329 C205 1.294 . S
C334 C108 1.293 . S
C339 C121 1.294 . S
C344 C160 1.294 . S
C349 C134 1.294 . S
C354 C173 1.292 . S
C359 C186 1.294 . S
C364 C153 1.293 . S
C369 C5 0.999 . S
C374 C55 0.999 . S
C379 C16 0.999 . S
C384 C68 0.999 . S
C389 C83 0.999 . S
C394 C31 0.999 . S
C399 C44 0.999 . S
C404 C96 0.999 . S
C409 C159 0.999 . S
C414 C107 0.999 . S
C419 C172 0.999 . S
C424 C120 0.999 . S
C429 C133 0.999 . S
C434 C185 0.999 . S
C439 C148 1.005 . S
C444 C200 1.005 . S
C449 C4 1.594 . S
C454 C114 1.594 . S
C459 C127 1.592 . S
C464 C23 1.592 . S
C469 C30 1.593 . S
C474 C140 1.593 . S
C479 C147 1.592 . S
C484 C43 1.592 . S
C489 C62 1.592 . S
C494 C166 1.592 . S
C499 C75 1.594 . S
C504 C179 1.594 . S
C509 C192 1.593 . S
C514 C82 1.593 . S
C519 C95 1.595 . S
C524 C199 1.595 . S
