# Generated by pormake.
# Topology gis, (4)-cn, num edge types: 1
# Building blocks:
#     Node 0, Type 0, BuildingBlock: UXUYUI_clean_sbu_0, # of connection points: 4
#     Node 1, Type 0, BuildingBlock: UXUYUI_clean_sbu_0, # of connection points: 4
#     Node 2, Type 0, BuildingBlock: UXUYUI_clean_sbu_0, # of connection points: 4
#     Node 3, Type 0, BuildingBlock: UXUYUI_clean_sbu_0, # of connection points: 4
#     Node 4, Type 0, BuildingBlock: UXUYUI_clean_sbu_0, # of connection points: 4
#     Node 5, Type 0, BuildingBlock: UXUYUI_clean_sbu_0, # of connection points: 4
#     Node 6, Type 0, BuildingBlock: UXUYUI_clean_sbu_0, # of connection points: 4
#     Node 7, Type 0, BuildingBlock: UXUYUI_clean_sbu_0, # of connection points: 4
#     Node 8, Type 0, BuildingBlock: UXUYUI_clean_sbu_0, # of connection points: 4
#     Node 9, Type 0, BuildingBlock: UXUYUI_clean_sbu_0, # of connection points: 4
#     Node 10, Type 0, BuildingBlock: UXUYUI_clean_sbu_0, # of connection points: 4
#     Node 11, Type 0, BuildingBlock: UXUYUI_clean_sbu_0, # of connection points: 4
#     Node 12, Type 0, BuildingBlock: UXUYUI_clean_sbu_0, # of connection points: 4
#     Node 13, Type 0, BuildingBlock: UXUYUI_clean_sbu_0, # of connection points: 4
#     Node 14, Type 0, BuildingBlock: UXUYUI_clean_sbu_0, # of connection points: 4
#     Node 15, Type 0, BuildingBlock: UXUYUI_clean_sbu_0, # of connection points: 4
#     Edge 16, Type (0, 0), BuildingBlock: XIVTED_clean_linker_0, # of connection points: 2
#     Edge 17, Type (0, 0), BuildingBlock: XIVTED_clean_linker_0, # of connection points: 2
#     Edge 18, Type (0, 0), BuildingBlock: XIVTED_clean_linker_0, # of connection points: 2
#     Edge 19, Type (0, 0), BuildingBlock: XIVTED_clean_linker_0, # of connection points: 2
#     Edge 20, Type (0, 0), BuildingBlock: XIVTED_clean_linker_0, # of connection points: 2
#     Edge 21, Type (0, 0), BuildingBlock: XIVTED_clean_linker_0, # of connection points: 2
#     Edge 22, Type (0, 0), BuildingBlock: XIVTED_clean_linker_0, # of connection points: 2
#     Edge 23, Type (0, 0), BuildingBlock: XIVTED_clean_linker_0, # of connection points: 2
#     Edge 24, Type (0, 0), BuildingBlock: XIVTED_clean_linker_0, # of connection points: 2
#     Edge 25, Type (0, 0), BuildingBlock: XIVTED_clean_linker_0, # of connection points: 2
#     Edge 26, Type (0, 0), BuildingBlock: XIVTED_clean_linker_0, # of connection points: 2
#     Edge 27, Type (0, 0), BuildingBlock: XIVTED_clean_linker_0, # of connection points: 2
#     Edge 28, Type (0, 0), BuildingBlock: XIVTED_clean_linker_0, # of connection points: 2
#     Edge 29, Type (0, 0), BuildingBlock: XIVTED_clean_linker_0, # of connection points: 2
#     Edge 30, Type (0, 0), BuildingBlock: XIVTED_clean_linker_0, # of connection points: 2
#     Edge 31, Type (0, 0), BuildingBlock: XIVTED_clean_linker_0, # of connection points: 2
#     Edge 32, Type (0, 0), BuildingBlock: XIVTED_clean_linker_0, # of connection points: 2
#     Edge 33, Type (0, 0), BuildingBlock: XIVTED_clean_linker_0, # of connection points: 2
#     Edge 34, Type (0, 0), BuildingBlock: XIVTED_clean_linker_0, # of connection points: 2
#     Edge 35, Type (0, 0), BuildingBlock: XIVTED_clean_linker_0, # of connection points: 2
#     Edge 36, Type (0, 0), BuildingBlock: XIVTED_clean_linker_0, # of connection points: 2
#     Edge 37, Type (0, 0), BuildingBlock: XIVTED_clean_linker_0, # of connection points: 2
#     Edge 38, Type (0, 0), BuildingBlock: XIVTED_clean_linker_0, # of connection points: 2
#     Edge 39, Type (0, 0), BuildingBlock: XIVTED_clean_linker_0, # of connection points: 2
#     Edge 40, Type (0, 0), BuildingBlock: XIVTED_clean_linker_0, # of connection points: 2
#     Edge 41, Type (0, 0), BuildingBlock: XIVTED_clean_linker_0, # of connection points: 2
#     Edge 42, Type (0, 0), BuildingBlock: XIVTED_clean_linker_0, # of connection points: 2
#     Edge 43, Type (0, 0), BuildingBlock: XIVTED_clean_linker_0, # of connection points: 2
#     Edge 44, Type (0, 0), BuildingBlock: XIVTED_clean_linker_0, # of connection points: 2
#     Edge 45, Type (0, 0), BuildingBlock: XIVTED_clean_linker_0, # of connection points: 2
#     Edge 46, Type (0, 0), BuildingBlock: XIVTED_clean_linker_0, # of connection points: 2
#     Edge 47, Type (0, 0), BuildingBlock: XIVTED_clean_linker_0, # of connection points: 2
# Relax obj value: 0.245
# Max RMSD: 0.177
# Mean RMSD: 0.176
data_MOF--net-gis--node1-UXUYUI_clean_sbu_0--edge1-XIVTED_clean_linker_0
_symmetry_space_group_name_H-M    P1
_symmetry_Int_Tables_number       1
_symmetry_cell_setting            triclinic
loop_
_symmetry_equiv_pos_as_xyz
'x, y, z'
_cell_length_a     67.279664
_cell_length_b     67.315309
_cell_length_c     71.762897
_cell_angle_alpha  89.991274
_cell_angle_beta   89.985043
_cell_angle_gamma 90.009932
loop_
_atom_site_label
_atom_site_type_symbol
_atom_site_fract_x
_atom_site_fract_y
_atom_site_fract_z
_atom_type_partial_charge
Li0 Li 0.17285 0.6045 0.12111 0.0
Li1 Li 0.17682 0.57443 0.13999 0.0
Li2 Li 0.1788 0.57299 0.10629 0.0
Li3 Li 0.14695 0.57853 0.12111 0.0
C4 C 0.21228 0.59551 0.11361 0.0
N5 N 0.24332 0.61162 0.09342 0.0
C6 C 0.23182 0.59342 0.11989 0.0
C7 C 0.20852 0.60579 0.09705 0.0
C8 C 0.24731 0.60168 0.10949 0.0
C9 C 0.22441 0.61382 0.08705 0.0
C10 C 0.14884 0.60314 0.15768 0.0
C11 C 0.12462 0.6036 0.18247 0.0
N12 N 0.13391 0.61962 0.19005 0.0
C13 C 0.15808 0.61967 0.16567 0.0
C14 C 0.1319 0.59509 0.16608 0.0
C15 C 0.15033 0.62776 0.18206 0.0
C16 C 0.16093 0.64293 0.11306 0.0
N17 N 0.17617 0.63238 0.12051 0.0
C18 C 0.19365 0.66221 0.12804 0.0
C19 C 0.19243 0.64148 0.12783 0.0
C20 C 0.17791 0.67354 0.12078 0.0
C21 C 0.1615 0.66363 0.11303 0.0
H22 H 0.14818 0.63521 0.1074 0.0
H23 H 0.20423 0.63267 0.13387 0.0
C24 C 0.198 0.54638 0.16058 0.0
N25 N 0.18741 0.56349 0.1622 0.0
C26 C 0.20691 0.53785 0.17623 0.0
C27 C 0.19344 0.56451 0.19494 0.0
C28 C 0.18491 0.57256 0.17895 0.0
C29 C 0.20478 0.54705 0.19367 0.0
H30 H 0.19973 0.53951 0.14704 0.0
H31 H 0.17667 0.58622 0.17992 0.0
C32 C 0.14818 0.58756 0.08371 0.0
N33 N 0.12752 0.57642 0.05211 0.0
C34 C 0.14323 0.56762 0.08079 0.0
C35 C 0.14259 0.60183 0.07057 0.0
C36 C 0.1328 0.56229 0.06473 0.0
C37 C 0.13216 0.5959 0.05468 0.0
C38 C 0.15516 0.53909 0.13163 0.0
C39 C 0.15421 0.52064 0.12275 0.0
C40 C 0.14658 0.54148 0.14921 0.0
C41 C 0.14456 0.50487 0.1316 0.0
C42 C 0.13708 0.52534 0.15762 0.0
N43 N 0.13626 0.50753 0.1487 0.0
C44 C 0.20069 0.54213 0.09066 0.0
C45 C 0.19188 0.56719 0.06898 0.0
C46 C 0.20914 0.53068 0.07653 0.0
N47 N 0.19194 0.55978 0.08658 0.0
C48 C 0.19992 0.55614 0.05438 0.0
C49 C 0.20833 0.53739 0.05798 0.0
H50 H 0.20066 0.53675 0.10487 0.0
H51 H 0.18502 0.58139 0.06615 0.0
C52 C 0.10874 0.5929 0.12242 0.0
N53 N 0.11894 0.57565 0.12028 0.0
C54 C 0.08804 0.59291 0.12234 0.0
C55 C 0.08864 0.55736 0.11757 0.0
C56 C 0.1094 0.55805 0.11768 0.0
C57 C 0.07771 0.57497 0.11995 0.0
H58 H 0.11678 0.60667 0.12435 0.0
H59 H 0.11783 0.54459 0.11559 0.0
O60 O 0.19702 0.58738 0.12365 0.0
O61 O 0.15615 0.59509 0.14156 0.0
O62 O 0.15833 0.59325 0.09934 0.0
O63 O 0.1644 0.55465 0.12299 0.0
H64 H 0.23497 0.58547 0.13267 0.0
H65 H 0.19351 0.60759 0.09195 0.0
H66 H 0.26252 0.60018 0.11419 0.0
H67 H 0.22171 0.62181 0.07421 0.0
H68 H 0.11156 0.59749 0.18914 0.0
H69 H 0.17123 0.62606 0.15941 0.0
H70 H 0.1244 0.58243 0.16003 0.0
H71 H 0.15739 0.6405 0.18843 0.0
H72 H 0.20647 0.66927 0.13433 0.0
H73 H 0.14917 0.67178 0.10706 0.0
H74 H 0.21548 0.52433 0.17468 0.0
H75 H 0.19178 0.57231 0.20805 0.0
H76 H 0.14743 0.55634 0.09075 0.0
H77 H 0.14629 0.61732 0.07265 0.0
H78 H 0.1289 0.54692 0.06229 0.0
H79 H 0.12775 0.60679 0.04439 0.0
H80 H 0.16078 0.51859 0.10911 0.0
H81 H 0.14729 0.5556 0.15631 0.0
H82 H 0.14366 0.49052 0.12486 0.0
H83 H 0.13037 0.52698 0.17123 0.0
H84 H 0.2158 0.51653 0.08005 0.0
H85 H 0.19867 0.56188 0.04034 0.0
H86 H 0.08021 0.60679 0.12442 0.0
H87 H 0.08123 0.54326 0.11542 0.0
Li88 Li 0.64383 0.91968 0.3678 0.0
Li89 Li 0.67274 0.92559 0.38848 0.0
Li90 Li 0.67506 0.92695 0.35514 0.0
Li91 Li 0.66985 0.89441 0.37019 0.0
C92 C 0.66299 0.96265 0.36403 0.0
N93 N 0.67211 0.99885 0.34794 0.0
C94 C 0.67571 0.97591 0.37311 0.0
C95 C 0.65462 0.968 0.34692 0.0
C96 C 0.68021 0.99409 0.36472 0.0
C97 C 0.65951 0.9863 0.33896 0.0
C98 C 0.64015 0.9029 0.40505 0.0
C99 C 0.62816 0.88522 0.43204 0.0
N100 N 0.61538 0.90039 0.43568 0.0
C101 C 0.62699 0.91838 0.40912 0.0
C102 C 0.6408 0.88621 0.41663 0.0
C103 C 0.61454 0.91679 0.42463 0.0
C104 C 0.6049 0.90497 0.36762 0.0
N105 N 0.61573 0.92187 0.36559 0.0
C106 C 0.58625 0.94084 0.36034 0.0
C107 C 0.6069 0.93964 0.36213 0.0
C108 C 0.57467 0.92356 0.36217 0.0
C109 C 0.58427 0.90546 0.3659 0.0
H110 H 0.61236 0.89108 0.37058 0.0
H111 H 0.61586 0.95288 0.36075 0.0
C112 C 0.70111 0.94588 0.4098 0.0
N113 N 0.68341 0.93619 0.41109 0.0
C114 C 0.70973 0.95447 0.42557 0.0
C115 C 0.68216 0.94225 0.44385 0.0
C116 C 0.67405 0.93402 0.42775 0.0
C117 C 0.70012 0.95282 0.44286 0.0
H118 H 0.70841 0.94716 0.39641 0.0
H119 H 0.66022 0.92611 0.42868 0.0
C120 C 0.64165 0.89932 0.33641 0.0
N121 N 0.60911 0.88788 0.31545 0.0
C122 C 0.63558 0.87946 0.33618 0.0
C123 C 0.63137 0.91328 0.32568 0.0
C124 C 0.61906 0.87399 0.32557 0.0
C125 C 0.61489 0.90724 0.31528 0.0
C126 C 0.70739 0.90394 0.38345 0.0
C127 C 0.72744 0.90545 0.37859 0.0
C128 C 0.70194 0.89346 0.39949 0.0
C129 C 0.74175 0.89637 0.38983 0.0
C130 C 0.71669 0.88459 0.41036 0.0
N131 N 0.73612 0.88621 0.40535 0.0
C132 C 0.70511 0.95116 0.33984 0.0
C133 C 0.68352 0.93634 0.31774 0.0
C134 C 0.71632 0.95982 0.32561 0.0
N135 N 0.68915 0.93962 0.33564 0.0
C136 C 0.69431 0.94462 0.3031 0.0
C137 C 0.71113 0.95635 0.30692 0.0
H138 H 0.70928 0.95338 0.35425 0.0
H139 H 0.67095 0.92687 0.31481 0.0
C140 C 0.65913 0.85551 0.37732 0.0
N141 N 0.67453 0.86667 0.37101 0.0
C142 C 0.66107 0.83499 0.37893 0.0
C143 C 0.69479 0.83775 0.36756 0.0
C144 C 0.69213 0.85829 0.36603 0.0
C145 C 0.67912 0.82581 0.37416 0.0
H146 H 0.64522 0.86258 0.38089 0.0
H147 H 0.70413 0.86755 0.36102 0.0
O148 O 0.65868 0.94461 0.37189 0.0
O149 O 0.65233 0.90398 0.38982 0.0
O150 O 0.65761 0.90503 0.34701 0.0
O151 O 0.69328 0.91287 0.37258 0.0
H152 H 0.68203 0.97224 0.3865 0.0
H153 H 0.64464 0.95804 0.33974 0.0
H154 H 0.69012 0.00442 0.37156 0.0
H155 H 0.65329 0.99051 0.32563 0.0
H156 H 0.62853 0.8724 0.44113 0.0
H157 H 0.62657 0.93159 0.40054 0.0
H158 H 0.65107 0.87421 0.41382 0.0
H159 H 0.60428 0.92865 0.42795 0.0
H160 H 0.57947 0.95507 0.35735 0.0
H161 H 0.57592 0.89185 0.36774 0.0
H162 H 0.72369 0.96236 0.42423 0.0
H163 H 0.67409 0.94085 0.45685 0.0
H164 H 0.64352 0.86837 0.34408 0.0
H165 H 0.63589 0.92866 0.32553 0.0
H166 H 0.61415 0.85869 0.32537 0.0
H167 H 0.60669 0.91794 0.30708 0.0
H168 H 0.73188 0.91358 0.36625 0.0
H169 H 0.68652 0.89217 0.40353 0.0
H170 H 0.75732 0.8974 0.38623 0.0
H171 H 0.71269 0.87642 0.42279 0.0
H172 H 0.72907 0.96886 0.32921 0.0
H173 H 0.68999 0.94115 0.28894 0.0
H174 H 0.6484 0.82641 0.38361 0.0
H175 H 0.70901 0.83134 0.36384 0.0
Li176 Li 0.32359 0.42377 0.60332 0.0
Li177 Li 0.35477 0.41956 0.62087 0.0
Li178 Li 0.3292 0.39347 0.61914 0.0
Li179 Li 0.32231 0.4243 0.63648 0.0
C180 C 0.35189 0.3882 0.58951 0.0
N181 N 0.36467 0.35385 0.57213 0.0
C182 C 0.37199 0.38296 0.58988 0.0
C183 C 0.33833 0.37606 0.5801 0.0
C184 C 0.37815 0.36552 0.58105 0.0
C185 C 0.34507 0.35872 0.57148 0.0
C186 C 0.34558 0.45825 0.63057 0.0
C187 C 0.36554 0.46863 0.65676 0.0
N188 N 0.36407 0.48781 0.65095 0.0
C189 C 0.34436 0.47805 0.62482 0.0
C190 C 0.35632 0.4535 0.64665 0.0
C191 C 0.35376 0.49278 0.63533 0.0
C192 C 0.30852 0.45545 0.58213 0.0
N193 N 0.31248 0.43567 0.5817 0.0
C194 C 0.30115 0.43348 0.55025 0.0
C195 C 0.30881 0.4246 0.56627 0.0
C196 C 0.29763 0.45407 0.54997 0.0
C197 C 0.30116 0.46503 0.56633 0.0
H198 H 0.31138 0.46383 0.59469 0.0
H199 H 0.31186 0.40887 0.56636 0.0
C200 C 0.3933 0.40966 0.63149 0.0
N201 N 0.38254 0.42384 0.6226 0.0
C202 C 0.41379 0.41181 0.63352 0.0
C203 C 0.41172 0.44328 0.61739 0.0
C204 C 0.39126 0.4404 0.61548 0.0
C205 C 0.42331 0.42885 0.62651 0.0
H206 H 0.38594 0.39656 0.63684 0.0
H207 H 0.38229 0.45144 0.60846 0.0
C208 C 0.28734 0.41513 0.61131 0.0
N209 N 0.25318 0.42792 0.59363 0.0
C210 C 0.27833 0.43296 0.61664 0.0
C211 C 0.27897 0.4038 0.597 0.0
C212 C 0.26106 0.43916 0.60754 0.0
C213 C 0.2617 0.41053 0.58823 0.0
C214 C 0.34245 0.39571 0.65862 0.0
C215 C 0.32718 0.38252 0.66322 0.0
C216 C 0.35707 0.40016 0.67182 0.0
C217 C 0.3266 0.37422 0.68105 0.0
C218 C 0.35598 0.39155 0.68951 0.0
N219 N 0.34089 0.37888 0.69372 0.0
C220 C 0.34336 0.35475 0.62357 0.0
C221 C 0.30904 0.35619 0.6162 0.0
C222 C 0.34282 0.33405 0.62378 0.0
N223 N 0.32668 0.36532 0.61962 0.0
C224 C 0.30781 0.33547 0.61625 0.0
C225 C 0.3249 0.32411 0.61996 0.0
H226 H 0.35712 0.36247 0.62645 0.0
H227 H 0.29596 0.36497 0.61338 0.0
C228 C 0.3101 0.45253 0.66522 0.0
N229 N 0.30831 0.43393 0.65794 0.0
C230 C 0.29923 0.45796 0.68101 0.0
C231 C 0.28417 0.4254 0.68103 0.0
C232 C 0.29529 0.42063 0.66529 0.0
C233 C 0.28615 0.44425 0.6892 0.0
H234 H 0.31969 0.46333 0.65879 0.0
H235 H 0.29346 0.40626 0.65883 0.0
O236 O 0.34556 0.40513 0.59826 0.0
O237 O 0.3369 0.44362 0.62009 0.0
O238 O 0.30457 0.40912 0.61971 0.0
O239 O 0.34343 0.40387 0.64116 0.0
H240 H 0.38275 0.39226 0.59687 0.0
H241 H 0.32268 0.37968 0.57989 0.0
H242 H 0.39366 0.36128 0.58128 0.0
H243 H 0.33469 0.34908 0.56436 0.0
H244 H 0.37386 0.46514 0.66924 0.0
H245 H 0.33633 0.48202 0.6123 0.0
H246 H 0.35749 0.43832 0.65131 0.0
H247 H 0.35291 0.50816 0.63104 0.0
H248 H 0.29826 0.42431 0.53816 0.0
H249 H 0.29897 0.48095 0.5668 0.0
H250 H 0.42209 0.40005 0.64025 0.0
H251 H 0.41832 0.45676 0.61195 0.0
H252 H 0.28474 0.44205 0.62751 0.0
H253 H 0.28594 0.39017 0.59243 0.0
H254 H 0.25398 0.45297 0.61146 0.0
H255 H 0.25514 0.40198 0.57705 0.0
H256 H 0.31579 0.3788 0.65319 0.0
H257 H 0.36918 0.41011 0.66846 0.0
H258 H 0.31479 0.36407 0.68481 0.0
H259 H 0.36716 0.39491 0.69987 0.0
H260 H 0.35626 0.32594 0.62707 0.0
H261 H 0.29373 0.32845 0.61312 0.0
H262 H 0.30087 0.47282 0.68658 0.0
H263 H 0.27432 0.4143 0.68689 0.0
Li264 Li 0.82936 0.10099 0.87369 0.0
Li265 Li 0.82325 0.07022 0.85838 0.0
Li266 Li 0.82668 0.06945 0.89137 0.0
Li267 Li 0.8563 0.0744 0.87025 0.0
C268 C 0.79258 0.09198 0.88889 0.0
N269 N 0.76575 0.1089 0.91336 0.0
C270 C 0.77218 0.09076 0.8854 0.0
C271 C 0.79932 0.1017 0.9049 0.0
C272 C 0.75886 0.09945 0.89791 0.0
C273 C 0.78553 0.11018 0.91708 0.0
C274 C 0.84049 0.09107 0.83237 0.0
C275 C 0.8478 0.07775 0.80197 0.0
N276 N 0.83439 0.0905 0.79434 0.0
C277 C 0.82688 0.10415 0.82425 0.0
C278 C 0.85114 0.07784 0.82118 0.0
C279 C 0.82397 0.10359 0.80498 0.0
C280 C 0.84237 0.13999 0.87629 0.0
N281 N 0.82573 0.12885 0.87404 0.0
C282 C 0.8056 0.15801 0.87215 0.0
C283 C 0.80758 0.13736 0.87172 0.0
C284 C 0.82252 0.16997 0.87474 0.0
C285 C 0.84111 0.16066 0.87669 0.0
H286 H 0.85665 0.13277 0.87775 0.0
H287 H 0.79463 0.12815 0.86954 0.0
C288 C 0.81233 0.04544 0.82637 0.0
N289 N 0.80749 0.06063 0.83803 0.0
C290 C 0.79979 0.0404 0.81159 0.0
C291 C 0.77793 0.06716 0.82065 0.0
C292 C 0.7907 0.07146 0.83536 0.0
C293 C 0.78231 0.05138 0.80852 0.0
H294 H 0.82606 0.03748 0.82817 0.0
H295 H 0.78752 0.08391 0.84437 0.0
C296 C 0.85929 0.09437 0.90777 0.0
N297 N 0.88263 0.10288 0.93843 0.0
C298 C 0.87384 0.08093 0.91361 0.0
C299 C 0.85662 0.11216 0.91751 0.0
C300 C 0.88549 0.0855 0.92915 0.0
C301 C 0.86856 0.11617 0.93299 0.0
C302 C 0.83819 0.03264 0.86515 0.0
C303 C 0.82227 0.01995 0.86901 0.0
C304 C 0.85333 0.02635 0.85317 0.0
C305 C 0.8217 0.00118 0.86071 0.0
C306 C 0.85224 0.00746 0.84518 0.0
N307 N 0.83658 0.99537 0.84908 0.0
C308 C 0.79957 0.04789 0.91275 0.0
C309 C 0.82675 0.06014 0.9303 0.0
C310 C 0.79136 0.03911 0.92862 0.0
N311 N 0.81703 0.05799 0.91384 0.0
C312 C 0.81909 0.05166 0.9465 0.0
C313 C 0.8012 0.04091 0.94578 0.0
H314 H 0.79197 0.04671 0.89951 0.0
H315 H 0.84046 0.06833 0.93097 0.0
C316 C 0.89422 0.08673 0.85996 0.0
N317 N 0.88411 0.07121 0.86746 0.0
C318 C 0.91483 0.08584 0.85804 0.0
C319 C 0.91423 0.0529 0.87147 0.0
C320 C 0.89361 0.05447 0.87321 0.0
C321 C 0.92515 0.06877 0.86386 0.0
H322 H 0.88623 0.09992 0.8557 0.0
H323 H 0.88518 0.04243 0.87931 0.0
O324 O 0.80573 0.08333 0.87679 0.0
O325 O 0.84315 0.09104 0.85123 0.0
O326 O 0.84782 0.09026 0.89249 0.0
O327 O 0.83931 0.05083 0.87356 0.0
H328 H 0.76668 0.08314 0.87316 0.0
H329 H 0.81498 0.10265 0.90795 0.0
H330 H 0.74303 0.09865 0.89535 0.0
H331 H 0.79056 0.11775 0.92951 0.0
H332 H 0.85583 0.0675 0.79313 0.0
H333 H 0.81851 0.11445 0.83278 0.0
H334 H 0.8617 0.06762 0.82732 0.0
H335 H 0.81339 0.11352 0.7985 0.0
H336 H 0.79096 0.1645 0.87067 0.0
H337 H 0.85463 0.16922 0.87826 0.0
H338 H 0.80384 0.02811 0.80263 0.0
H339 H 0.76506 0.07653 0.81855 0.0
H340 H 0.87586 0.06695 0.90646 0.0
H341 H 0.84542 0.12274 0.91323 0.0
H342 H 0.89674 0.07519 0.93387 0.0
H343 H 0.86663 0.12986 0.94068 0.0
H344 H 0.8105 0.02453 0.87832 0.0
H345 H 0.86564 0.03604 0.84984 0.0
H346 H 0.80946 0.99122 0.86354 0.0
H347 H 0.8638 0.00244 0.83583 0.0
H348 H 0.77745 0.03112 0.92748 0.0
H349 H 0.82735 0.05316 0.95937 0.0
H350 H 0.92261 0.09859 0.85242 0.0
H351 H 0.9215 0.03939 0.87599 0.0
Li352 Li 0.14218 0.42074 0.87344 0.0
Li353 Li 0.1724 0.4254 0.893 0.0
Li354 Li 0.17432 0.42569 0.85986 0.0
Li355 Li 0.1691 0.39469 0.87495 0.0
C356 C 0.15615 0.46218 0.86722 0.0
N357 N 0.14914 0.4984 0.85029 0.0
C358 C 0.16726 0.47887 0.8723 0.0
C359 C 0.14142 0.46395 0.85359 0.0
C360 C 0.16351 0.49704 0.86356 0.0
C361 C 0.13812 0.48236 0.84517 0.0
C362 C 0.13959 0.4051 0.91061 0.0
C363 C 0.12453 0.3889 0.93705 0.0
N364 N 0.11585 0.40638 0.94199 0.0
C365 C 0.13064 0.42292 0.916 0.0
C366 C 0.13659 0.38796 0.92124 0.0
C367 C 0.11863 0.42325 0.93188 0.0
C368 C 0.10386 0.40826 0.86483 0.0
N369 N 0.11419 0.4239 0.87181 0.0
C370 C 0.08423 0.44243 0.87601 0.0
C371 C 0.10487 0.44077 0.87747 0.0
C372 C 0.07309 0.42649 0.86882 0.0
C373 C 0.08322 0.40921 0.86324 0.0
H374 H 0.1117 0.39497 0.8606 0.0
H375 H 0.11345 0.45297 0.88306 0.0
C376 C 0.19729 0.45086 0.91234 0.0
N377 N 0.18331 0.43658 0.91502 0.0
C378 C 0.20623 0.46018 0.92754 0.0
C379 C 0.18667 0.43944 0.94803 0.0
C380 C 0.17828 0.43039 0.93242 0.0
C381 C 0.2007 0.45474 0.94573 0.0
H382 H 0.20151 0.45497 0.89831 0.0
H383 H 0.16774 0.41849 0.93429 0.0
C384 C 0.15665 0.4036 0.83446 0.0
N385 N 0.16194 0.40185 0.79634 0.0
C386 C 0.17314 0.3938 0.82701 0.0
C387 C 0.1427 0.4123 0.82256 0.0
C388 C 0.1756 0.39315 0.80769 0.0
C389 C 0.14568 0.41129 0.80331 0.0
C390 C 0.20589 0.40294 0.88934 0.0
C391 C 0.22639 0.40516 0.88687 0.0
C392 C 0.19883 0.39175 0.9044 0.0
C393 C 0.23945 0.39602 0.89935 0.0
C394 C 0.21237 0.38285 0.91656 0.0
N395 N 0.23223 0.38514 0.9138 0.0
C396 C 0.17891 0.44717 0.82514 0.0
C397 C 0.20788 0.43275 0.83806 0.0
C398 C 0.1895 0.45321 0.80939 0.0
N399 N 0.18817 0.437 0.83903 0.0
C400 C 0.21902 0.43843 0.82258 0.0
C401 C 0.2098 0.44859 0.80785 0.0
H402 H 0.16315 0.4499 0.82582 0.0
H403 H 0.21482 0.42427 0.84901 0.0
C404 C 0.15777 0.35544 0.88063 0.0
N405 N 0.17316 0.3669 0.87481 0.0
C406 C 0.15983 0.33486 0.88157 0.0
C407 C 0.19344 0.33823 0.86999 0.0
C408 C 0.19073 0.35879 0.86934 0.0
C409 C 0.1779 0.32601 0.87632 0.0
H410 H 0.14387 0.36234 0.88458 0.0
H411 H 0.20268 0.36831 0.86464 0.0
O412 O 0.15916 0.44445 0.87612 0.0
O413 O 0.15148 0.4044 0.89517 0.0
O414 O 0.15427 0.40485 0.85333 0.0
O415 O 0.19298 0.41219 0.87735 0.0
H416 H 0.17855 0.47786 0.88298 0.0
H417 H 0.13283 0.45117 0.84932 0.0
H418 H 0.17197 0.51008 0.86738 0.0
H419 H 0.12684 0.48389 0.83453 0.0
H420 H 0.12209 0.37576 0.94542 0.0
H421 H 0.13318 0.4364 0.90815 0.0
H422 H 0.14364 0.3741 0.9174 0.0
H423 H 0.1116 0.43694 0.93623 0.0
H424 H 0.07714 0.45612 0.88031 0.0
H425 H 0.07529 0.39639 0.85798 0.0
H426 H 0.2173 0.47155 0.92505 0.0
H427 H 0.18178 0.4348 0.96173 0.0
H428 H 0.18407 0.38704 0.83608 0.0
H429 H 0.12984 0.4199 0.82815 0.0
H430 H 0.18839 0.38579 0.80172 0.0
H431 H 0.1351 0.41808 0.79392 0.0
H432 H 0.23223 0.41394 0.87551 0.0
H433 H 0.18312 0.38988 0.90678 0.0
H434 H 0.25533 0.39764 0.89756 0.0
H435 H 0.20707 0.37413 0.92821 0.0
H436 H 0.18178 0.46105 0.79838 0.0
H437 H 0.23451 0.43411 0.82185 0.0
H438 H 0.14734 0.32596 0.88616 0.0
H439 H 0.20762 0.332 0.86589 0.0
Li440 Li 0.8214 0.92517 0.10902 0.0
Li441 Li 0.85203 0.91835 0.12398 0.0
Li442 Li 0.82603 0.89322 0.12255 0.0
Li443 Li 0.82215 0.92331 0.14195 0.0
C444 C 0.85192 0.91043 0.08634 0.0
N445 N 0.87388 0.92159 0.05553 0.0
C446 C 0.85657 0.93043 0.08338 0.0
C447 C 0.85846 0.89611 0.07365 0.0
C448 C 0.86767 0.93577 0.06771 0.0
C449 C 0.86954 0.90205 0.05815 0.0
C450 C 0.8455 0.95632 0.13728 0.0
C451 C 0.86552 0.96383 0.16425 0.0
N452 N 0.86482 0.98345 0.15978 0.0
C453 C 0.84496 0.97655 0.13297 0.0
C454 C 0.85585 0.94987 0.15306 0.0
C455 C 0.85484 0.99004 0.14451 0.0
C456 C 0.80091 0.95708 0.09334 0.0
N457 N 0.80894 0.9391 0.08926 0.0
C458 C 0.80088 0.94292 0.05709 0.0
C459 C 0.80857 0.93161 0.07168 0.0
C460 C 0.79325 0.962 0.06069 0.0
C461 C 0.7928 0.96878 0.07922 0.0
H462 H 0.80117 0.96246 0.10754 0.0
H463 H 0.81476 0.9171 0.0689 0.0
C464 C 0.89065 0.90445 0.12733 0.0
N465 N 0.88008 0.92112 0.12347 0.0
C466 C 0.91137 0.90484 0.12693 0.0
C467 C 0.90994 0.93965 0.11868 0.0
C468 C 0.88922 0.93854 0.1191 0.0
C469 C 0.92126 0.92261 0.12256 0.0
H470 H 0.88293 0.8908 0.13064 0.0
H471 H 0.88046 0.95152 0.11579 0.0
C472 C 0.78599 0.91037 0.11432 0.0
N473 N 0.75312 0.91106 0.09126 0.0
C474 C 0.77023 0.92327 0.11809 0.0
C475 C 0.78501 0.89775 0.09888 0.0
C476 C 0.75375 0.92341 0.10625 0.0
C477 C 0.76827 0.89834 0.08738 0.0
C478 C 0.83866 0.88894 0.15917 0.0
C479 C 0.81916 0.88378 0.16388 0.0
C480 C 0.8545 0.88107 0.16935 0.0
C481 C 0.81586 0.87083 0.17878 0.0
C482 C 0.85058 0.86818 0.18416 0.0
N483 N 0.8315 0.86337 0.18853 0.0
C484 C 0.83683 0.85444 0.11387 0.0
C485 C 0.80399 0.85723 0.1256 0.0
C486 C 0.83471 0.83393 0.11203 0.0
N487 N 0.82158 0.86557 0.12053 0.0
C488 C 0.80124 0.83672 0.12405 0.0
C489 C 0.81673 0.8248 0.11715 0.0
H490 H 0.85067 0.86154 0.11007 0.0
H491 H 0.79211 0.8665 0.13084 0.0
C492 C 0.79762 0.9494 0.16097 0.0
N493 N 0.81141 0.93499 0.16383 0.0
C494 C 0.7883 0.95856 0.17606 0.0
C495 C 0.80823 0.93848 0.19679 0.0
C496 C 0.81731 0.92988 0.18129 0.0
C497 C 0.79323 0.95279 0.1943 0.0
H498 H 0.79381 0.95371 0.1469 0.0
H499 H 0.82889 0.91899 0.18327 0.0
O500 O 0.84112 0.90471 0.1016 0.0
O501 O 0.83581 0.94306 0.12603 0.0
O502 O 0.80247 0.91032 0.12546 0.0
O503 O 0.84236 0.9014 0.14452 0.0
H504 H 0.85163 0.94175 0.093 0.0
H505 H 0.855 0.88057 0.07577 0.0
H506 H 0.87136 0.95119 0.06524 0.0
H507 H 0.87469 0.89113 0.04821 0.0
H508 H 0.87359 0.95905 0.17649 0.0
H509 H 0.837 0.98176 0.1208 0.0
H510 H 0.85648 0.93431 0.15666 0.0
H511 H 0.85455 0.00574 0.14133 0.0
H512 H 0.80179 0.93709 0.04306 0.0
H513 H 0.78669 0.98318 0.08275 0.0
H514 H 0.91956 0.89143 0.13017 0.0
H515 H 0.91702 0.95357 0.11502 0.0
H516 H 0.77071 0.9331 0.12999 0.0
H517 H 0.79719 0.88785 0.09563 0.0
H518 H 0.74146 0.93336 0.10896 0.0
H519 H 0.76737 0.88875 0.07532 0.0
H520 H 0.8067 0.88978 0.15623 0.0
H521 H 0.86968 0.88489 0.16584 0.0
H522 H 0.80085 0.86674 0.1826 0.0
H523 H 0.8627 0.86199 0.19218 0.0
H524 H 0.84715 0.82527 0.10694 0.0
H525 H 0.78709 0.83031 0.12801 0.0
H526 H 0.77722 0.96988 0.17343 0.0
H527 H 0.81251 0.93343 0.21054 0.0
Li528 Li 0.32827 0.60429 0.37266 0.0
Li529 Li 0.32266 0.57425 0.35461 0.0
Li530 Li 0.32379 0.57268 0.38769 0.0
Li531 Li 0.35403 0.57911 0.37016 0.0
C532 C 0.28866 0.5906 0.38383 0.0
N533 N 0.25726 0.59628 0.40806 0.0
C534 C 0.2704 0.58139 0.38047 0.0
C535 C 0.29097 0.60268 0.39953 0.0
C536 C 0.2547 0.58446 0.39288 0.0
C537 C 0.27492 0.60537 0.41161 0.0
C538 C 0.33782 0.60728 0.3351 0.0
C539 C 0.3473 0.62707 0.30854 0.0
N540 N 0.32784 0.63138 0.30538 0.0
C541 C 0.31791 0.61193 0.33162 0.0
C542 C 0.35265 0.61493 0.32351 0.0
C543 C 0.31317 0.62413 0.31651 0.0
C544 C 0.34047 0.64308 0.37887 0.0
N545 N 0.32436 0.63204 0.37416 0.0
C546 C 0.30422 0.66116 0.37187 0.0
C547 C 0.30645 0.64058 0.37057 0.0
C548 C 0.32061 0.67301 0.37681 0.0
C549 C 0.33895 0.66368 0.38025 0.0
H550 H 0.35455 0.63582 0.38146 0.0
H551 H 0.29391 0.6314 0.36674 0.0
C552 C 0.29397 0.55071 0.33794 0.0
N553 N 0.30993 0.5623 0.33394 0.0
C554 C 0.28305 0.54196 0.32362 0.0
C555 C 0.30583 0.55648 0.30138 0.0
C556 C 0.31637 0.56486 0.31616 0.0
C557 C 0.28865 0.54521 0.30501 0.0
H558 H 0.28965 0.54843 0.35229 0.0
H559 H 0.32948 0.57366 0.3134 0.0
C560 C 0.35617 0.58796 0.4079 0.0
N561 N 0.37976 0.57766 0.43789 0.0
C562 C 0.36118 0.56807 0.411 0.0
C563 C 0.36319 0.6026 0.42003 0.0
C564 C 0.37311 0.56317 0.42625 0.0
C565 C 0.37508 0.59709 0.43512 0.0
C566 C 0.34148 0.53948 0.35829 0.0
C567 C 0.33294 0.52085 0.3614 0.0
C568 C 0.35359 0.54244 0.3427 0.0
C569 C 0.33669 0.50544 0.34884 0.0
C570 C 0.35698 0.52666 0.33047 0.0
N571 N 0.34853 0.50864 0.33377 0.0
C572 C 0.30116 0.54289 0.40372 0.0
C573 C 0.31391 0.56562 0.42594 0.0
C574 C 0.29293 0.53125 0.41781 0.0
N575 N 0.3119 0.55933 0.40805 0.0
C576 C 0.30599 0.55439 0.4405 0.0
C577 C 0.29578 0.53667 0.43652 0.0
H578 H 0.29927 0.53868 0.3893 0.0
H579 H 0.32205 0.57909 0.42895 0.0
C580 C 0.39274 0.59213 0.36464 0.0
N581 N 0.38192 0.57574 0.36893 0.0
C582 C 0.41338 0.59097 0.36332 0.0
C583 C 0.41138 0.55604 0.37097 0.0
C584 C 0.39074 0.55791 0.37222 0.0
C585 C 0.42299 0.57272 0.36639 0.0
H586 H 0.38526 0.60614 0.36227 0.0
H587 H 0.38174 0.54513 0.37573 0.0
O588 O 0.30438 0.58736 0.37214 0.0
O589 O 0.34294 0.59544 0.34983 0.0
O590 O 0.34453 0.59324 0.39308 0.0
O591 O 0.33748 0.55493 0.37009 0.0
H592 H 0.26836 0.57198 0.36841 0.0
H593 H 0.30511 0.60968 0.4025 0.0
H594 H 0.24047 0.57742 0.39045 0.0
H595 H 0.27652 0.61461 0.42385 0.0
H596 H 0.35863 0.63308 0.29944 0.0
H597 H 0.30621 0.60613 0.34039 0.0
H598 H 0.36813 0.61148 0.32605 0.0
H599 H 0.29783 0.62782 0.31363 0.0
H600 H 0.28978 0.66768 0.36923 0.0
H601 H 0.35209 0.67221 0.38372 0.0
H602 H 0.27018 0.53303 0.32707 0.0
H603 H 0.31065 0.55949 0.28726 0.0
H604 H 0.35586 0.5565 0.40183 0.0
H605 H 0.35945 0.61806 0.41779 0.0
H606 H 0.37707 0.54784 0.42883 0.0
H607 H 0.3806 0.60827 0.44463 0.0
H608 H 0.3235 0.5183 0.37337 0.0
H609 H 0.36007 0.55686 0.33993 0.0
H610 H 0.33017 0.49094 0.35107 0.0
H611 H 0.36625 0.52877 0.31832 0.0
H612 H 0.2848 0.51794 0.41412 0.0
H613 H 0.30862 0.55909 0.45472 0.0
H614 H 0.42172 0.60431 0.36013 0.0
H615 H 0.41811 0.54165 0.3733 0.0
Li616 Li 0.66942 0.10514 0.61598 0.0
Li617 Li 0.67543 0.07553 0.63507 0.0
Li618 Li 0.67585 0.07344 0.60218 0.0
Li619 Li 0.64492 0.07851 0.61721 0.0
C620 C 0.70925 0.09158 0.60528 0.0
N621 N 0.73878 0.09481 0.57863 0.0
C622 C 0.72661 0.08027 0.60678 0.0
C623 C 0.7069 0.10444 0.59013 0.0
C624 C 0.74136 0.08213 0.59318 0.0
C625 C 0.722 0.10591 0.57684 0.0
C626 C 0.65676 0.10777 0.65279 0.0
C627 C 0.64366 0.12628 0.67879 0.0
N628 N 0.66238 0.13234 0.68316 0.0
C629 C 0.67587 0.11418 0.65752 0.0
C630 C 0.64052 0.11385 0.66349 0.0
C631 C 0.6784 0.1266 0.67292 0.0
C632 C 0.65447 0.14356 0.6129 0.0
N633 N 0.6716 0.13317 0.61524 0.0
C634 C 0.69029 0.16321 0.61793 0.0
C635 C 0.68932 0.14249 0.61786 0.0
C636 C 0.6728 0.17433 0.61568 0.0
C637 C 0.65472 0.16428 0.61315 0.0
H638 H 0.6406 0.13568 0.61105 0.0
H639 H 0.70264 0.13383 0.6201 0.0
C640 C 0.70575 0.0607 0.65817 0.0
N641 N 0.68638 0.06631 0.65794 0.0
C642 C 0.71475 0.05488 0.6748 0.0
C643 C 0.68341 0.05984 0.69057 0.0
C644 C 0.67512 0.06588 0.67367 0.0
C645 C 0.70361 0.05455 0.69139 0.0
H646 H 0.71431 0.0611 0.64549 0.0
H647 H 0.65975 0.07049 0.67321 0.0
C648 C 0.64469 0.08668 0.57953 0.0
N649 N 0.62413 0.07432 0.54829 0.0
C650 C 0.64046 0.06654 0.57692 0.0
C651 C 0.63843 0.10054 0.56627 0.0
C652 C 0.63006 0.06059 0.56103 0.0
C653 C 0.62807 0.09399 0.55056 0.0
C654 C 0.65427 0.04069 0.6307 0.0
C655 C 0.65848 0.02064 0.62758 0.0
C656 C 0.64147 0.04605 0.6452 0.0
C657 C 0.64983 0.00626 0.63906 0.0
C658 C 0.63312 0.03125 0.65636 0.0
N659 N 0.63744 0.01182 0.65309 0.0
C660 C 0.69752 0.04225 0.58684 0.0
C661 C 0.68846 0.06666 0.56459 0.0
C662 C 0.706 0.03049 0.57297 0.0
N663 N 0.68863 0.05973 0.58237 0.0
C664 C 0.69661 0.05529 0.55024 0.0
C665 C 0.70515 0.03671 0.55429 0.0
H666 H 0.69768 0.03731 0.60118 0.0
H667 H 0.68155 0.08076 0.56146 0.0
C668 C 0.60614 0.09076 0.62198 0.0
N669 N 0.61699 0.07452 0.61726 0.0
C670 C 0.58554 0.08947 0.62349 0.0
C671 C 0.58756 0.0548 0.61487 0.0
C672 C 0.60818 0.0568 0.61342 0.0
C673 C 0.57597 0.07124 0.62019 0.0
H674 H 0.61358 0.1047 0.62473 0.0
H675 H 0.61717 0.04414 0.60957 0.0
O676 O 0.69432 0.08963 0.61813 0.0
O677 O 0.65384 0.0956 0.63778 0.0
O678 O 0.65496 0.09297 0.59489 0.0
O679 O 0.66264 0.05483 0.61945 0.0
H680 H 0.72868 0.07002 0.61818 0.0
H681 H 0.69338 0.11293 0.58842 0.0
H682 H 0.75485 0.07344 0.59416 0.0
H683 H 0.72031 0.11575 0.56503 0.0
H684 H 0.63122 0.1311 0.68721 0.0
H685 H 0.68863 0.1096 0.64943 0.0
H686 H 0.62564 0.10898 0.66001 0.0
H687 H 0.6931 0.13167 0.67675 0.0
H688 H 0.70447 0.17046 0.62017 0.0
H689 H 0.64094 0.17236 0.61128 0.0
H690 H 0.73043 0.0513 0.67468 0.0
H691 H 0.67407 0.05951 0.70285 0.0
H692 H 0.64525 0.05557 0.58696 0.0
H693 H 0.64161 0.11618 0.5681 0.0
H694 H 0.62672 0.04505 0.55882 0.0
H695 H 0.62317 0.10455 0.54017 0.0
H696 H 0.66831 0.01623 0.61638 0.0
H697 H 0.63791 0.06146 0.64778 0.0
H698 H 0.65297 0.99069 0.6368 0.0
H699 H 0.62318 0.03521 0.66762 0.0
H700 H 0.71276 0.01647 0.57679 0.0
H701 H 0.6954 0.06064 0.53606 0.0
H702 H 0.57721 0.10266 0.62718 0.0
H703 H 0.58085 0.04044 0.61228 0.0
Li704 Li 0.82407 0.41982 0.85292 0.0
Li705 Li 0.82527 0.42025 0.88619 0.0
Li706 Li 0.85534 0.41394 0.86802 0.0
Li707 Li 0.82901 0.38807 0.87098 0.0
C708 C 0.83591 0.45625 0.86094 0.0
N709 N 0.82838 0.4924 0.84413 0.0
C710 C 0.82234 0.46948 0.86891 0.0
C711 C 0.84576 0.46147 0.8445 0.0
C712 C 0.81872 0.48768 0.86019 0.0
C713 C 0.8417 0.47979 0.83618 0.0
C714 C 0.78783 0.40246 0.8789 0.0
C715 C 0.76748 0.38286 0.89961 0.0
N716 N 0.75162 0.39461 0.89556 0.0
C717 C 0.7713 0.41428 0.87487 0.0
C718 C 0.7859 0.38657 0.89132 0.0
C719 C 0.75314 0.4101 0.88347 0.0
C720 C 0.81656 0.42432 0.81455 0.0
N721 N 0.81141 0.43091 0.83176 0.0
C722 C 0.78715 0.45279 0.81878 0.0
C723 C 0.79705 0.44487 0.83415 0.0
C724 C 0.79185 0.44601 0.8008 0.0
C725 C 0.80693 0.43169 0.79879 0.0
H726 H 0.82782 0.41299 0.81307 0.0
H727 H 0.79314 0.44972 0.84802 0.0
C728 C 0.83098 0.44649 0.91467 0.0
N729 N 0.81695 0.43365 0.90832 0.0
C730 C 0.82862 0.45587 0.93178 0.0
C731 C 0.79674 0.43969 0.93516 0.0
C732 C 0.79987 0.43033 0.91802 0.0
C733 C 0.81148 0.45225 0.94235 0.0
H734 H 0.84437 0.44892 0.90665 0.0
H735 H 0.7889 0.42008 0.91288 0.0
C736 C 0.85871 0.39137 0.8378 0.0
N737 N 0.89175 0.37893 0.81812 0.0
C738 C 0.86559 0.37187 0.83964 0.0
C739 C 0.86854 0.40448 0.82583 0.0
C740 C 0.88233 0.36587 0.82959 0.0
C741 C 0.88525 0.39793 0.81605 0.0
C742 C 0.85013 0.40166 0.90899 0.0
C743 C 0.86701 0.41207 0.91478 0.0
C744 C 0.8369 0.39417 0.92229 0.0
C745 C 0.87027 0.415 0.93382 0.0
C746 C 0.84067 0.39746 0.94118 0.0
N747 N 0.85713 0.40773 0.9465 0.0
C748 C 0.89123 0.43588 0.86492 0.0
C749 C 0.89502 0.40103 0.86818 0.0
C750 C 0.91182 0.43837 0.86407 0.0
N751 N 0.88331 0.4174 0.86677 0.0
C752 C 0.91563 0.40279 0.86709 0.0
C753 C 0.92425 0.42165 0.86501 0.0
H754 H 0.88158 0.44868 0.86423 0.0
H755 H 0.88831 0.38659 0.87018 0.0
C756 C 0.81633 0.35037 0.85774 0.0
N757 N 0.82479 0.3603 0.8722 0.0
C758 C 0.81461 0.32968 0.85834 0.0
C759 C 0.82975 0.33005 0.88889 0.0
C760 C 0.8314 0.35063 0.88759 0.0
C761 C 0.82157 0.31921 0.87401 0.0
H762 H 0.81141 0.35849 0.84558 0.0
H763 H 0.8382 0.35889 0.8988 0.0
O764 O 0.83953 0.43829 0.86919 0.0
O765 O 0.80561 0.40613 0.87031 0.0
O766 O 0.84252 0.3976 0.84774 0.0
O767 O 0.84635 0.39918 0.89039 0.0
H768 H 0.8145 0.46565 0.88157 0.0
H769 H 0.8563 0.45142 0.83815 0.0
H770 H 0.80818 0.49802 0.86614 0.0
H771 H 0.84913 0.48397 0.8234 0.0
H772 H 0.76581 0.37067 0.90931 0.0
H773 H 0.77246 0.42654 0.8652 0.0
H774 H 0.79848 0.3773 0.89468 0.0
H775 H 0.74023 0.41915 0.8805 0.0
H776 H 0.77578 0.46392 0.821 0.0
H777 H 0.81078 0.42567 0.78528 0.0
H778 H 0.84019 0.46568 0.93683 0.0
H779 H 0.78334 0.43657 0.94301 0.0
H780 H 0.85822 0.36152 0.84888 0.0
H781 H 0.86341 0.41961 0.82423 0.0
H782 H 0.88788 0.35086 0.83096 0.0
H783 H 0.89308 0.40796 0.80683 0.0
H784 H 0.87735 0.41806 0.90471 0.0
H785 H 0.82368 0.38623 0.91807 0.0
H786 H 0.8832 0.42314 0.93849 0.0
H787 H 0.83045 0.39193 0.95161 0.0
H788 H 0.91795 0.45316 0.8625 0.0
H789 H 0.92476 0.38959 0.86821 0.0
H790 H 0.80846 0.32197 0.84642 0.0
H791 H 0.83496 0.32274 0.90141 0.0
Li792 Li 0.33247 0.1058 0.62309 0.0
Li793 Li 0.35857 0.08061 0.6267 0.0
Li794 Li 0.32955 0.07463 0.60689 0.0
Li795 Li 0.3268 0.07489 0.64067 0.0
C796 C 0.35595 0.09287 0.58578 0.0
N797 N 0.36573 0.08641 0.54885 0.0
C798 C 0.37227 0.08099 0.58117 0.0
C799 C 0.34472 0.10161 0.57158 0.0
C800 C 0.37696 0.07788 0.56243 0.0
C801 C 0.34986 0.09811 0.55301 0.0
C802 C 0.36122 0.10298 0.65668 0.0
C803 C 0.38811 0.09622 0.678 0.0
N804 N 0.39442 0.11532 0.67617 0.0
C805 C 0.36791 0.12257 0.65509 0.0
C806 C 0.37132 0.08972 0.66831 0.0
C807 C 0.38474 0.12851 0.66505 0.0
C808 C 0.3172 0.14317 0.63507 0.0
N809 N 0.3279 0.13357 0.62177 0.0
C810 C 0.33557 0.16422 0.60669 0.0
C811 C 0.33691 0.1436 0.60769 0.0
C812 C 0.32509 0.17471 0.62047 0.0
C813 C 0.31556 0.16389 0.63467 0.0
H814 H 0.31038 0.13477 0.64623 0.0
H815 H 0.34553 0.13562 0.59744 0.0
C816 C 0.39451 0.05878 0.631 0.0
N817 N 0.38648 0.07714 0.62862 0.0
C818 C 0.41513 0.05642 0.63161 0.0
C819 C 0.41871 0.09189 0.62738 0.0
C820 C 0.39808 0.09352 0.6266 0.0
C821 C 0.42746 0.07315 0.62986 0.0
H822 H 0.38493 0.04596 0.63218 0.0
H823 H 0.39127 0.10783 0.6242 0.0
C824 C 0.29268 0.09899 0.61931 0.0
N825 N 0.25911 0.1218 0.6135 0.0
C826 C 0.27716 0.09868 0.63225 0.0
C827 C 0.29117 0.11097 0.60347 0.0
C828 C 0.26027 0.11026 0.62902 0.0
C829 C 0.27411 0.12243 0.60079 0.0
C830 C 0.33789 0.03853 0.63261 0.0
C831 C 0.32364 0.02631 0.62427 0.0
C832 C 0.34687 0.03262 0.64927 0.0
C833 C 0.31852 0.00839 0.63284 0.0
C834 C 0.34131 0.01461 0.65742 0.0
N835 N 0.32737 0.00297 0.64911 0.0
C836 C 0.33465 0.04882 0.57771 0.0
C837 C 0.3043 0.06661 0.57548 0.0
C838 C 0.33148 0.04022 0.56037 0.0
N839 N 0.32142 0.06211 0.58464 0.0
C840 C 0.30039 0.05813 0.55808 0.0
C841 C 0.31437 0.04515 0.55021 0.0
H842 H 0.34798 0.04536 0.58548 0.0
H843 H 0.29392 0.07705 0.58143 0.0
C844 C 0.31918 0.06742 0.67865 0.0
N845 N 0.3131 0.06342 0.66101 0.0
C846 C 0.30888 0.05955 0.69381 0.0
C847 C 0.28648 0.04328 0.67232 0.0
C848 C 0.29715 0.05159 0.65758 0.0
C849 C 0.29216 0.04743 0.69075 0.0
H850 H 0.33175 0.07709 0.68096 0.0
H851 H 0.29259 0.04881 0.64336 0.0
O852 O 0.35073 0.0956 0.60406 0.0
O853 O 0.34499 0.09678 0.64679 0.0
O854 O 0.30904 0.08726 0.62195 0.0
O855 O 0.34286 0.05629 0.6246 0.0
H856 H 0.38104 0.07393 0.5919 0.0
H857 H 0.33203 0.11082 0.57483 0.0
H858 H 0.38945 0.0686 0.55868 0.0
H859 H 0.3412 0.10465 0.54189 0.0
H860 H 0.39615 0.08608 0.68692 0.0
H861 H 0.36031 0.13303 0.64615 0.0
H862 H 0.36642 0.07448 0.66962 0.0
H863 H 0.39014 0.1436 0.66387 0.0
H864 H 0.34288 0.17187 0.59531 0.0
H865 H 0.3075 0.17135 0.6457 0.0
H866 H 0.42137 0.04172 0.63351 0.0
H867 H 0.42773 0.10509 0.62563 0.0
H868 H 0.27807 0.08943 0.64456 0.0
H869 H 0.30306 0.11141 0.59336 0.0
H870 H 0.24807 0.11004 0.63884 0.0
H871 H 0.27276 0.13177 0.58859 0.0
H872 H 0.31644 0.03071 0.61144 0.0
H873 H 0.35785 0.04195 0.65595 0.0
H874 H 0.30745 0.99882 0.6266 0.0
H875 H 0.34805 0.00991 0.67037 0.0
H876 H 0.34241 0.02997 0.55486 0.0
H877 H 0.28699 0.06215 0.55062 0.0
H878 H 0.31356 0.06354 0.70775 0.0
H879 H 0.2738 0.03391 0.6693 0.0
Li880 Li 0.66552 0.60861 0.37252 0.0
Li881 Li 0.64075 0.58238 0.36835 0.0
Li882 Li 0.66983 0.57725 0.38807 0.0
Li883 Li 0.67273 0.57871 0.35445 0.0
C884 C 0.64115 0.6123 0.40135 0.0
N885 N 0.62761 0.64566 0.41987 0.0
C886 C 0.62198 0.61949 0.39801 0.0
C887 C 0.65338 0.62202 0.41419 0.0
C888 C 0.61541 0.63638 0.40751 0.0
C889 C 0.64628 0.63889 0.42337 0.0
C890 C 0.65679 0.60309 0.33088 0.0
C891 C 0.65594 0.59295 0.29865 0.0
N892 N 0.66704 0.6091 0.29402 0.0
C893 C 0.66815 0.61961 0.3258 0.0
C894 C 0.65056 0.58967 0.3172 0.0
C895 C 0.67318 0.62239 0.30709 0.0
C896 C 0.68792 0.64405 0.37671 0.0
N897 N 0.6694 0.63652 0.37396 0.0
C898 C 0.65548 0.66912 0.37306 0.0
C899 C 0.65337 0.64856 0.37176 0.0
C900 C 0.67437 0.67733 0.37616 0.0
C901 C 0.69077 0.66457 0.3778 0.0
H902 H 0.70048 0.63416 0.37794 0.0
H903 H 0.63893 0.64218 0.36897 0.0
C904 C 0.60295 0.57154 0.38171 0.0
N905 N 0.61304 0.57731 0.36622 0.0
C906 C 0.58242 0.56865 0.381 0.0
C907 C 0.58316 0.57723 0.34829 0.0
C908 C 0.60365 0.58008 0.34967 0.0
C909 C 0.57219 0.5717 0.36415 0.0
H910 H 0.61083 0.56962 0.39472 0.0
H911 H 0.61203 0.58475 0.33761 0.0
C912 C 0.70672 0.58863 0.3826 0.0
N913 N 0.74078 0.58015 0.40258 0.0
C914 C 0.72 0.57419 0.37619 0.0
C915 C 0.71081 0.5988 0.39914 0.0
C916 C 0.73714 0.57013 0.38649 0.0
C917 C 0.72809 0.59428 0.40906 0.0
C918 C 0.64478 0.54409 0.37045 0.0
C919 C 0.64013 0.53567 0.38771 0.0
C920 C 0.63458 0.53791 0.3545 0.0
C921 C 0.62527 0.52121 0.38874 0.0
C922 C 0.61978 0.52345 0.35612 0.0
N923 N 0.61548 0.51547 0.37306 0.0
C924 C 0.67432 0.57002 0.42673 0.0
C925 C 0.69188 0.54822 0.40667 0.0
C926 C 0.68104 0.55963 0.44232 0.0
N927 N 0.67978 0.56411 0.40938 0.0
C928 C 0.69911 0.53752 0.42186 0.0
C929 C 0.69349 0.54302 0.44 0.0
H930 H 0.66436 0.58246 0.42843 0.0
H931 H 0.69569 0.54371 0.39266 0.0
C932 C 0.70317 0.58077 0.32855 0.0
N933 N 0.68785 0.56909 0.33419 0.0
C934 C 0.71578 0.57444 0.31438 0.0
C935 C 0.69634 0.54432 0.31173 0.0
C936 C 0.68421 0.55115 0.32617 0.0
C937 C 0.71247 0.55597 0.30585 0.0
H938 H 0.7057 0.59493 0.33527 0.0
H939 H 0.67204 0.5421 0.3311 0.0
O940 O 0.64795 0.59591 0.39204 0.0
O941 O 0.6521 0.59985 0.34918 0.0
O942 O 0.68968 0.5926 0.37288 0.0
O943 O 0.65898 0.55858 0.3692 0.0
H944 H 0.61235 0.61231 0.38802 0.0
H945 H 0.66827 0.61673 0.4169 0.0
H946 H 0.60066 0.64216 0.40499 0.0
H947 H 0.65564 0.64663 0.43325 0.0
H948 H 0.65137 0.5826 0.28795 0.0
H949 H 0.67319 0.63009 0.3362 0.0
H950 H 0.64201 0.57664 0.32091 0.0
H951 H 0.68202 0.63507 0.30297 0.0
H952 H 0.64254 0.67852 0.37137 0.0
H953 H 0.70558 0.67039 0.38013 0.0
H954 H 0.57461 0.5647 0.39366 0.0
H955 H 0.57599 0.57947 0.33495 0.0
H956 H 0.71699 0.566 0.36354 0.0
H957 H 0.70067 0.60995 0.40435 0.0
H958 H 0.74749 0.55893 0.38174 0.0
H959 H 0.73138 0.60197 0.42193 0.0
H960 H 0.64776 0.54036 0.40022 0.0
H961 H 0.63778 0.54448 0.34108 0.0
H962 H 0.62147 0.51461 0.40202 0.0
H963 H 0.61166 0.51864 0.34393 0.0
H964 H 0.67591 0.56416 0.45598 0.0
H965 H 0.7088 0.52495 0.41938 0.0
H966 H 0.72789 0.58397 0.31001 0.0
H967 H 0.69339 0.52998 0.30546 0.0
Li968 Li 0.17069 0.92299 0.10548 0.0
Li969 Li 0.17065 0.92415 0.13927 0.0
Li970 Li 0.16554 0.89155 0.12254 0.0
Li971 Li 0.13964 0.91713 0.12405 0.0
C972 C 0.20803 0.90641 0.11594 0.0
N973 N 0.24604 0.90047 0.10235 0.0
C974 C 0.22367 0.91851 0.1219 0.0
C975 C 0.21183 0.89103 0.10335 0.0
C976 C 0.24275 0.91535 0.1148 0.0
C977 C 0.23111 0.88834 0.09656 0.0
C978 C 0.15896 0.96039 0.12844 0.0
C979 C 0.15242 0.98622 0.15091 0.0
N980 N 0.16586 0.99812 0.14217 0.0
C981 C 0.17256 0.97293 0.11958 0.0
C982 C 0.14866 0.96714 0.14412 0.0
C983 C 0.17589 0.99193 0.12677 0.0
C984 C 0.16678 0.93616 0.06925 0.0
N985 N 0.1804 0.93446 0.08312 0.0
C986 C 0.20516 0.95016 0.06429 0.0
C987 C 0.19928 0.94133 0.08103 0.0
C988 C 0.19142 0.95189 0.04965 0.0
C989 C 0.17202 0.94472 0.0523 0.0
H990 H 0.15173 0.93103 0.07146 0.0
H991 H 0.20967 0.94037 0.09243 0.0
C992 C 0.17823 0.9288 0.17738 0.0
N993 N 0.18281 0.93615 0.1603 0.0
C994 C 0.1878 0.93603 0.1932 0.0
C995 C 0.20637 0.9586 0.17362 0.0
C996 C 0.19645 0.95089 0.15815 0.0
C997 C 0.20231 0.95093 0.19142 0.0
H998 H 0.1676 0.91685 0.17868 0.0
H999 H 0.2 0.95632 0.14438 0.0
C1000 C 0.1474 0.8909 0.08651 0.0
N1001 N 0.14299 0.86734 0.05523 0.0
C1002 C 0.12877 0.88314 0.08188 0.0
C1003 C 0.16371 0.88692 0.07504 0.0
C1004 C 0.12687 0.87118 0.06607 0.0
C1005 C 0.1612 0.87493 0.05933 0.0
C1006 C 0.13607 0.89753 0.15618 0.0
C1007 C 0.12929 0.87794 0.1573 0.0
C1008 C 0.12654 0.91236 0.16646 0.0
C1009 C 0.11282 0.87358 0.16843 0.0
C1010 C 0.1101 0.90741 0.17742 0.0
N1011 N 0.10362 0.88829 0.17816 0.0
C1012 C 0.18651 0.85531 0.12901 0.0
C1013 C 0.15403 0.85227 0.11655 0.0
C1014 C 0.18863 0.83465 0.12939 0.0
N1015 N 0.16943 0.86363 0.12256 0.0
C1016 C 0.15548 0.83164 0.11671 0.0
C1017 C 0.1729 0.82254 0.1233 0.0
H1018 H 0.19838 0.86471 0.13406 0.0
H1019 H 0.14041 0.85923 0.11202 0.0
C1020 C 0.10293 0.93825 0.12441 0.0
N1021 N 0.11163 0.92003 0.12441 0.0
C1022 C 0.08222 0.93991 0.12417 0.0
C1023 C 0.07996 0.90406 0.1241 0.0
C1024 C 0.10064 0.90311 0.12426 0.0
C1025 C 0.07045 0.92264 0.12389 0.0
H1026 H 0.11207 0.95146 0.12435 0.0
H1027 H 0.10799 0.88882 0.12417 0.0
O1028 O 0.18928 0.90924 0.12287 0.0
O1029 O 0.1556 0.9417 0.12166 0.0
O1030 O 0.14948 0.90272 0.10193 0.0
O1031 O 0.15203 0.90213 0.14515 0.0
H1032 H 0.22112 0.9303 0.13183 0.0
H1033 H 0.20012 0.88107 0.09903 0.0
H1034 H 0.25495 0.92472 0.11919 0.0
H1035 H 0.23422 0.87652 0.08677 0.0
H1036 H 0.14465 0.99159 0.1631 0.0
H1037 H 0.18057 0.96802 0.10736 0.0
H1038 H 0.13791 0.95774 0.15101 0.0
H1039 H 0.18646 0.00175 0.12012 0.0
H1040 H 0.22022 0.95562 0.06283 0.0
H1041 H 0.16081 0.94621 0.04156 0.0
H1042 H 0.18448 0.92934 0.20657 0.0
H1043 H 0.21737 0.97015 0.17161 0.0
H1044 H 0.11591 0.88627 0.09041 0.0
H1045 H 0.17807 0.89331 0.078 0.0
H1046 H 0.11255 0.86499 0.0624 0.0
H1047 H 0.17372 0.87175 0.05035 0.0
H1048 H 0.13661 0.86622 0.14964 0.0
H1049 H 0.13172 0.92754 0.16592 0.0
H1050 H 0.10734 0.8585 0.16935 0.0
H1051 H 0.1025 0.91878 0.18534 0.0
H1052 H 0.20221 0.82823 0.1348 0.0
H1053 H 0.14304 0.8229 0.11175 0.0
H1054 H 0.07553 0.95454 0.12381 0.0
H1055 H 0.07153 0.89036 0.12422 0.0
Li1056 Li 0.83179 0.60833 0.12173 0.0
Li1057 Li 0.85937 0.58507 0.12598 0.0
Li1058 Li 0.82917 0.57497 0.10773 0.0
Li1059 Li 0.82854 0.57759 0.14149 0.0
C1060 C 0.85096 0.60667 0.0862 0.0
N1061 N 0.85521 0.62773 0.05336 0.0
C1062 C 0.86873 0.61661 0.08231 0.0
C1063 C 0.83551 0.60711 0.07319 0.0
C1064 C 0.87054 0.62729 0.0657 0.0
C1065 C 0.8379 0.61792 0.05672 0.0
C1066 C 0.86097 0.60805 0.1562 0.0
C1067 C 0.88696 0.60204 0.17865 0.0
N1068 N 0.89227 0.62151 0.1777 0.0
C1069 C 0.86655 0.62804 0.15559 0.0
C1070 C 0.87112 0.59497 0.16796 0.0
C1071 C 0.88246 0.63454 0.16651 0.0
C1072 C 0.80759 0.64297 0.12429 0.0
N1073 N 0.82563 0.63575 0.1191 0.0
C1074 C 0.83676 0.66828 0.1109 0.0
C1075 C 0.84016 0.64795 0.11264 0.0
C1076 C 0.81825 0.67622 0.11603 0.0
C1077 C 0.80352 0.66328 0.12281 0.0
H1078 H 0.79641 0.63299 0.12974 0.0
H1079 H 0.85462 0.64197 0.10933 0.0
C1080 C 0.89638 0.56527 0.12696 0.0
N1081 N 0.8875 0.5834 0.12669 0.0
C1082 C 0.91707 0.56375 0.12651 0.0
C1083 C 0.91905 0.5996 0.12564 0.0
C1084 C 0.89835 0.60041 0.12603 0.0
C1085 C 0.9287 0.58108 0.12569 0.0
H1086 H 0.88738 0.55197 0.12715 0.0
H1087 H 0.89089 0.61462 0.12558 0.0
C1088 C 0.79082 0.59033 0.11549 0.0
N1089 N 0.75344 0.59291 0.09968 0.0
C1090 C 0.77517 0.57884 0.12245 0.0
C1091 C 0.78734 0.60338 0.1007 0.0
C1092 C 0.75641 0.58029 0.11421 0.0
C1093 C 0.76838 0.60441 0.09284 0.0
C1094 C 0.84321 0.54127 0.13429 0.0
C1095 C 0.83066 0.52688 0.12662 0.0
C1096 C 0.85401 0.5369 0.15041 0.0
C1097 C 0.82886 0.50845 0.13541 0.0
C1098 C 0.85179 0.5183 0.1588 0.0
N1099 N 0.83935 0.50459 0.1512 0.0
C1100 C 0.83615 0.5555 0.07488 0.0
C1101 C 0.80268 0.55187 0.08467 0.0
C1102 C 0.83294 0.54275 0.05993 0.0
N1103 N 0.82117 0.55969 0.08692 0.0
C1104 C 0.79877 0.53903 0.06981 0.0
C1105 C 0.81415 0.53409 0.05742 0.0
H1106 H 0.85076 0.56175 0.07719 0.0
H1107 H 0.79116 0.55495 0.09471 0.0
C1108 C 0.82059 0.57505 0.17991 0.0
N1109 N 0.81666 0.56666 0.1631 0.0
C1110 C 0.81116 0.56803 0.19591 0.0
C1111 C 0.79412 0.54363 0.17705 0.0
C1112 C 0.80382 0.55118 0.1614 0.0
C1113 C 0.79752 0.55227 0.19458 0.0
H1114 H 0.83061 0.58755 0.18082 0.0
H1115 H 0.8008 0.54495 0.14782 0.0
O1116 O 0.84899 0.59609 0.1024 0.0
O1117 O 0.84555 0.60136 0.14546 0.0
O1118 O 0.80927 0.58909 0.12344 0.0
O1119 O 0.84509 0.55944 0.12592 0.0
H1120 H 0.88095 0.61622 0.09208 0.0
H1121 H 0.82192 0.599 0.07561 0.0
H1122 H 0.88415 0.63519 0.06261 0.0
H1123 H 0.82604 0.61842 0.04656 0.0
H1124 H 0.89503 0.59204 0.18771 0.0
H1125 H 0.85873 0.63842 0.14675 0.0
H1126 H 0.86685 0.57953 0.16877 0.0
H1127 H 0.887 0.64995 0.1661 0.0
H1128 H 0.84873 0.67775 0.1061 0.0
H1129 H 0.78904 0.66878 0.12691 0.0
H1130 H 0.92384 0.54916 0.12628 0.0
H1131 H 0.9274 0.61335 0.12525 0.0
H1132 H 0.77748 0.56886 0.13404 0.0
H1133 H 0.79907 0.61283 0.0955 0.0
H1134 H 0.74421 0.57138 0.11939 0.0
H1135 H 0.76552 0.61441 0.08135 0.0
H1136 H 0.82227 0.52995 0.11411 0.0
H1137 H 0.86399 0.54773 0.15639 0.0
H1138 H 0.81911 0.49723 0.12969 0.0
H1139 H 0.85998 0.51476 0.17134 0.0
H1140 H 0.84513 0.53954 0.05053 0.0
H1141 H 0.78414 0.53248 0.06843 0.0
H1142 H 0.81393 0.57545 0.20904 0.0
H1143 H 0.78383 0.53138 0.17539 0.0
Li1144 Li 0.14274 0.0836 0.8671 0.0
Li1145 Li 0.16864 0.10875 0.87142 0.0
Li1146 Li 0.17456 0.07788 0.85287 0.0
Li1147 Li 0.17297 0.07613 0.88665 0.0
C1148 C 0.14081 0.10616 0.83646 0.0
N1149 N 0.10947 0.11823 0.81429 0.0
C1150 C 0.13482 0.12604 0.83642 0.0
C1151 C 0.13101 0.09247 0.82505 0.0
C1152 C 0.11891 0.13184 0.82515 0.0
C1153 C 0.11515 0.09884 0.81401 0.0
C1154 C 0.14726 0.10586 0.90679 0.0
C1155 C 0.15629 0.11673 0.93769 0.0
N1156 N 0.13809 0.12527 0.93964 0.0
C1157 C 0.12854 0.11448 0.90922 0.0
C1158 C 0.16117 0.10677 0.92124 0.0
C1159 C 0.12423 0.12434 0.92587 0.0
C1160 C 0.10732 0.0611 0.86553 0.0
N1161 N 0.11481 0.07986 0.86536 0.0
C1162 C 0.08219 0.09361 0.86295 0.0
C1163 C 0.10273 0.096 0.86429 0.0
C1164 C 0.07401 0.07442 0.86306 0.0
C1165 C 0.08682 0.05802 0.86444 0.0
H1166 H 0.11726 0.04854 0.86661 0.0
H1167 H 0.10906 0.11075 0.86455 0.0
C1168 C 0.19042 0.14454 0.86693 0.0
N1169 N 0.17314 0.13655 0.8733 0.0
C1170 C 0.19363 0.16501 0.86803 0.0
C1171 C 0.16106 0.16862 0.88184 0.0
C1172 C 0.15849 0.14813 0.88048 0.0
C1173 C 0.17883 0.17733 0.87561 0.0
H1174 H 0.20168 0.13501 0.86096 0.0
H1175 H 0.14462 0.14152 0.88476 0.0
C1176 C 0.1627 0.04114 0.86028 0.0
N1177 N 0.17111 0.00513 0.84358 0.0
C1178 C 0.17675 0.02837 0.86817 0.0
C1179 C 0.15277 0.0355 0.84401 0.0
C1180 C 0.18082 0.01024 0.85949 0.0
C1181 C 0.15728 0.01727 0.83574 0.0
C1182 C 0.2098 0.09614 0.87989 0.0
C1183 C 0.22785 0.08809 0.87389 0.0
C1184 C 0.20962 0.10969 0.89464 0.0
C1185 C 0.24541 0.09354 0.88295 0.0
C1186 C 0.22748 0.11477 0.90333 0.0
N1187 N 0.24486 0.10664 0.89737 0.0
C1188 C 0.1824 0.07162 0.81463 0.0
C1189 C 0.20315 0.05385 0.83548 0.0
C1190 C 0.19239 0.06355 0.79938 0.0
N1191 N 0.18797 0.0667 0.83222 0.0
C1192 C 0.21347 0.04533 0.82065 0.0
C1193 C 0.20825 0.0503 0.80228 0.0
H1194 H 0.17045 0.08207 0.81245 0.0
H1195 H 0.20728 0.05029 0.84965 0.0
C1196 C 0.16634 0.05178 0.91645 0.0
N1197 N 0.18134 0.06165 0.90783 0.0
C1198 C 0.1704 0.03889 0.93112 0.0
C1199 C 0.20528 0.04703 0.92825 0.0
C1200 C 0.20056 0.05963 0.91342 0.0
C1201 C 0.1901 0.03623 0.93703 0.0
H1202 H 0.15124 0.05361 0.91156 0.0
H1203 H 0.2123 0.0673 0.90618 0.0
O1204 O 0.15624 0.10018 0.84753 0.0
O1205 O 0.15162 0.09597 0.89062 0.0
O1206 O 0.15873 0.05907 0.86841 0.0
O1207 O 0.1925 0.09094 0.87112 0.0
H1208 H 0.14233 0.13688 0.84501 0.0
H1209 H 0.13549 0.07705 0.82486 0.0
H1210 H 0.11406 0.14716 0.82504 0.0
H1211 H 0.10735 0.08837 0.80522 0.0
H1212 H 0.16695 0.11759 0.94895 0.0
H1213 H 0.11748 0.1137 0.89832 0.0
H1214 H 0.1755 0.09968 0.91991 0.0
H1215 H 0.10985 0.13121 0.92786 0.0
H1216 H 0.07279 0.10665 0.86222 0.0
H1217 H 0.08107 0.04299 0.86452 0.0
H1218 H 0.20757 0.1711 0.86309 0.0
H1219 H 0.14903 0.17758 0.8873 0.0
H1220 H 0.1846 0.03248 0.88074 0.0
H1221 H 0.14177 0.04514 0.83779 0.0
H1222 H 0.19175 0.00026 0.86538 0.0
H1223 H 0.1498 0.01278 0.82308 0.0
H1224 H 0.22831 0.07772 0.86239 0.0
H1225 H 0.19589 0.1164 0.89921 0.0
H1226 H 0.25947 0.08737 0.8785 0.0
H1227 H 0.22754 0.12523 0.91477 0.0
H1228 H 0.18812 0.06817 0.78549 0.0
H1229 H 0.22547 0.03507 0.82355 0.0
H1230 H 0.15827 0.03097 0.93772 0.0
H1231 H 0.22066 0.04523 0.93238 0.0
Li1232 Li 0.66965 0.42346 0.60416 0.0
Li1233 Li 0.67236 0.42173 0.63777 0.0
Li1234 Li 0.66561 0.39213 0.6192 0.0
Li1235 Li 0.64029 0.41776 0.62345 0.0
C1236 C 0.70403 0.39501 0.61982 0.0
N1237 N 0.73172 0.36483 0.62235 0.0
C1238 C 0.71301 0.3907 0.63691 0.0
C1239 C 0.70916 0.38402 0.60401 0.0
C1240 C 0.72699 0.37539 0.63789 0.0
C1241 C 0.72317 0.36879 0.60559 0.0
C1242 C 0.66202 0.45864 0.63152 0.0
C1243 C 0.65814 0.48127 0.65732 0.0
N1244 N 0.67278 0.49292 0.65015 0.0
C1245 C 0.677 0.47086 0.62438 0.0
C1246 C 0.65245 0.46391 0.64809 0.0
C1247 C 0.68222 0.48813 0.63401 0.0
C1248 C 0.66767 0.45328 0.57765 0.0
N1249 N 0.67887 0.43752 0.58307 0.0
C1250 C 0.70254 0.44393 0.559 0.0
C1251 C 0.69604 0.43266 0.57418 0.0
C1252 C 0.69139 0.46047 0.55332 0.0
C1253 C 0.67374 0.46508 0.56278 0.0
H1254 H 0.6541 0.45675 0.58505 0.0
H1255 H 0.70472 0.42016 0.57893 0.0
C1256 C 0.68079 0.42807 0.67599 0.0
N1257 N 0.68662 0.43209 0.65828 0.0
C1258 C 0.69181 0.43522 0.69101 0.0
C1259 C 0.71449 0.45068 0.66924 0.0
C1260 C 0.70311 0.4431 0.65465 0.0
C1261 C 0.70901 0.44659 0.68773 0.0
H1262 H 0.66786 0.41894 0.67845 0.0
H1263 H 0.70751 0.44579 0.64037 0.0
C1264 C 0.64391 0.40754 0.58198 0.0
N1265 N 0.63673 0.41696 0.54511 0.0
C1266 C 0.6277 0.41949 0.57722 0.0
C1267 C 0.65642 0.40031 0.56798 0.0
C1268 C 0.62432 0.42408 0.5585 0.0
C1269 C 0.65256 0.40527 0.54943 0.0
C1270 C 0.63699 0.39475 0.65321 0.0
C1271 C 0.62913 0.37567 0.65098 0.0
C1272 C 0.62805 0.40792 0.66572 0.0
C1273 C 0.6124 0.37012 0.66127 0.0
C1274 C 0.61131 0.40182 0.67573 0.0
N1275 N 0.6039 0.3832 0.67331 0.0
C1276 C 0.67546 0.35461 0.63363 0.0
C1277 C 0.6664 0.35426 0.6017 0.0
C1278 C 0.67762 0.334 0.63364 0.0
N1279 N 0.66975 0.36423 0.61787 0.0
C1280 C 0.66862 0.33366 0.60102 0.0
C1281 C 0.67403 0.32327 0.61721 0.0
H1282 H 0.67796 0.36296 0.6463 0.0
H1283 H 0.66168 0.36226 0.58944 0.0
C1284 C 0.60526 0.44091 0.62808 0.0
N1285 N 0.61252 0.42224 0.62562 0.0
C1286 C 0.58479 0.44403 0.62946 0.0
C1287 C 0.57974 0.40868 0.62571 0.0
C1288 C 0.60024 0.4063 0.62408 0.0
C1289 C 0.57181 0.42774 0.62843 0.0
H1290 H 0.61534 0.45338 0.62881 0.0
H1291 H 0.6064 0.39173 0.6215 0.0
O1292 O 0.68998 0.40965 0.61864 0.0
O1293 O 0.65694 0.44147 0.62249 0.0
O1294 O 0.64776 0.4033 0.60027 0.0
O1295 O 0.65324 0.40057 0.64309 0.0
H1296 H 0.70911 0.39893 0.64932 0.0
H1297 H 0.70212 0.38693 0.59074 0.0
H1298 H 0.73402 0.37184 0.65104 0.0
H1299 H 0.72717 0.36006 0.5935 0.0
H1300 H 0.65094 0.48546 0.67022 0.0
H1301 H 0.68475 0.46693 0.6117 0.0
H1302 H 0.6409 0.4546 0.65386 0.0
H1303 H 0.69386 0.49767 0.62869 0.0
H1304 H 0.71624 0.43999 0.552 0.0
H1305 H 0.66461 0.47756 0.55859 0.0
H1306 H 0.68727 0.43128 0.705 0.0
H1307 H 0.72753 0.45947 0.66604 0.0
H1308 H 0.61793 0.42533 0.58785 0.0
H1309 H 0.66922 0.39131 0.57142 0.0
H1310 H 0.61187 0.43338 0.55462 0.0
H1311 H 0.66222 0.39992 0.53847 0.0
H1312 H 0.63567 0.36533 0.64122 0.0
H1313 H 0.63383 0.42278 0.66755 0.0
H1314 H 0.60611 0.35543 0.65962 0.0
H1315 H 0.60419 0.41191 0.68537 0.0
H1316 H 0.68195 0.32652 0.64637 0.0
H1317 H 0.66551 0.32587 0.58814 0.0
H1318 H 0.57916 0.45896 0.63145 0.0
H1319 H 0.57015 0.39582 0.62448 0.0
Li1320 Li 0.32456 0.91964 0.35242 0.0
Li1321 Li 0.32814 0.92242 0.38589 0.0
Li1322 Li 0.35676 0.91565 0.36576 0.0
Li1323 Li 0.33137 0.89023 0.37141 0.0
C1324 C 0.35369 0.95423 0.36651 0.0
N1325 N 0.38346 0.98251 0.36732 0.0
C1326 C 0.35805 0.96426 0.38307 0.0
C1327 C 0.36441 0.95867 0.35034 0.0
C1328 C 0.37316 0.97851 0.38319 0.0
C1329 C 0.37944 0.97297 0.35105 0.0
C1330 C 0.29071 0.91055 0.38172 0.0
C1331 C 0.27017 0.90464 0.4087 0.0
N1332 N 0.25668 0.91796 0.40213 0.0
C1333 C 0.27662 0.92412 0.37519 0.0
C1334 C 0.28744 0.90066 0.39857 0.0
C1335 C 0.25952 0.92767 0.38572 0.0
C1336 C 0.29345 0.91858 0.32679 0.0
N1337 N 0.30962 0.92928 0.33203 0.0
C1338 C 0.30293 0.95381 0.30883 0.0
C1339 C 0.31454 0.94661 0.32347 0.0
C1340 C 0.28599 0.94319 0.30328 0.0
C1341 C 0.28132 0.92533 0.3124 0.0
H1342 H 0.28992 0.90487 0.33393 0.0
H1343 H 0.32736 0.9549 0.32809 0.0
C1344 C 0.32938 0.93351 0.42343 0.0
N1345 N 0.31977 0.93675 0.40708 0.0
C1346 C 0.32577 0.94578 0.43867 0.0
C1347 C 0.30182 0.96398 0.4202 0.0
C1348 C 0.30614 0.95153 0.40519 0.0
C1349 C 0.31212 0.96143 0.437 0.0
H1350 H 0.34054 0.92202 0.42437 0.0
H1351 H 0.2993 0.95421 0.3918 0.0
C1352 C 0.33923 0.89398 0.32945 0.0
N1353 N 0.32779 0.88707 0.29306 0.0
C1354 C 0.3266 0.87813 0.32526 0.0
C1355 C 0.34613 0.90628 0.31514 0.0
C1356 C 0.32098 0.87487 0.30677 0.0
C1357 C 0.34013 0.90256 0.29683 0.0
C1358 C 0.35636 0.88801 0.40066 0.0
C1359 C 0.37531 0.88012 0.39763 0.0
C1360 C 0.34441 0.88019 0.41481 0.0
C1361 C 0.38191 0.86438 0.40871 0.0
C1362 C 0.35154 0.86443 0.42557 0.0
N1363 N 0.36998 0.85692 0.42233 0.0
C1364 C 0.39485 0.92707 0.37779 0.0
C1365 C 0.39383 0.91423 0.34704 0.0
C1366 C 0.41543 0.92938 0.37671 0.0
N1367 N 0.38456 0.91957 0.36309 0.0
C1368 C 0.4144 0.91628 0.34535 0.0
C1369 C 0.4255 0.92379 0.36037 0.0
H1370 H 0.38707 0.93093 0.39047 0.0
H1371 H 0.38529 0.90815 0.33565 0.0
C1372 C 0.309 0.85479 0.37706 0.0
N1373 N 0.32742 0.86247 0.3741 0.0
C1374 C 0.30644 0.83427 0.37883 0.0
C1375 C 0.34182 0.83007 0.3744 0.0
C1376 C 0.34364 0.85058 0.37241 0.0
C1377 C 0.32304 0.8217 0.37766 0.0
H1378 H 0.29628 0.86455 0.37788 0.0
H1379 H 0.35799 0.85706 0.36942 0.0
O1380 O 0.33921 0.93997 0.36617 0.0
O1381 O 0.30759 0.90691 0.37164 0.0
O1382 O 0.34447 0.89773 0.34752 0.0
O1383 O 0.34961 0.90339 0.38993 0.0
H1384 H 0.34998 0.96102 0.39573 0.0
H1385 H 0.36143 0.95086 0.33746 0.0
H1386 H 0.37673 0.98634 0.39592 0.0
H1387 H 0.38796 0.97642 0.33868 0.0
H1388 H 0.26748 0.89714 0.4218 0.0
H1389 H 0.27895 0.932 0.36223 0.0
H1390 H 0.29813 0.89006 0.40378 0.0
H1391 H 0.24853 0.9382 0.38087 0.0
H1392 H 0.30693 0.96768 0.30214 0.0
H1393 H 0.26853 0.91658 0.30831 0.0
H1394 H 0.33404 0.9435 0.45145 0.0
H1395 H 0.29146 0.97615 0.41839 0.0
H1396 H 0.32103 0.86854 0.33617 0.0
H1397 H 0.35572 0.91876 0.31817 0.0
H1398 H 0.31114 0.8627 0.30332 0.0
H1399 H 0.34522 0.91204 0.28563 0.0
H1400 H 0.38475 0.88592 0.38671 0.0
H1401 H 0.32979 0.8862 0.41745 0.0
H1402 H 0.3965 0.85807 0.40646 0.0
H1403 H 0.34241 0.8582 0.43652 0.0
H1404 H 0.4234 0.93493 0.38873 0.0
H1405 H 0.42153 0.91197 0.33243 0.0
H1406 H 0.2917 0.82832 0.38125 0.0
H1407 H 0.35491 0.82082 0.37303 0.0
H1408 H 0.14425 0.79632 0.13439 0.0
H1409 H 0.20908 0.69896 0.11395 0.0
H1410 H 0.20469 0.79869 0.11433 0.0
H1411 H 0.14733 0.69822 0.13025 0.0
H1412 H 0.20869 0.73534 0.11558 0.0
H1413 H 0.14599 0.7602 0.13442 0.0
C1414 C 0.15788 0.78923 0.1299 0.0
C1415 C 0.17428 0.80056 0.12415 0.0
C1416 C 0.19525 0.72719 0.1188 0.0
C1417 C 0.17646 0.75906 0.12435 0.0
C1418 C 0.19548 0.70644 0.11795 0.0
C1419 C 0.17817 0.69555 0.12184 0.0
C1420 C 0.17761 0.73707 0.12368 0.0
C1421 C 0.16093 0.706 0.12681 0.0
C1422 C 0.1589 0.76857 0.13001 0.0
C1423 C 0.19173 0.79053 0.11894 0.0
N1424 N 0.16109 0.72614 0.12757 0.0
N1425 N 0.19233 0.77033 0.11907 0.0
H1426 H 0.44991 0.95333 0.37358 0.0
H1427 H 0.55014 0.89712 0.34449 0.0
H1428 H 0.45132 0.89697 0.3449 0.0
H1429 H 0.54914 0.95182 0.37585 0.0
H1430 H 0.5139 0.89787 0.34297 0.0
H1431 H 0.48624 0.95409 0.37304 0.0
C1432 C 0.45785 0.94111 0.36717 0.0
C1433 C 0.44752 0.92503 0.35932 0.0
C1434 C 0.52159 0.90975 0.35014 0.0
C1435 C 0.48912 0.92588 0.35854 0.0
C1436 C 0.54229 0.90927 0.3511 0.0
C1437 C 0.5527 0.92436 0.36043 0.0
C1438 C 0.51116 0.92542 0.35859 0.0
C1439 C 0.54175 0.93996 0.3684 0.0
C1440 C 0.47859 0.9416 0.3668 0.0
C1441 C 0.4586 0.90978 0.35094 0.0
N1442 N 0.52158 0.94003 0.36737 0.0
N1443 N 0.47877 0.91055 0.35084 0.0
H1444 H 0.2953 0.29963 0.63313 0.0
H1445 H 0.35555 0.19992 0.61146 0.0
H1446 H 0.35277 0.29822 0.60636 0.0
H1447 H 0.29428 0.19998 0.6294 0.0
H1448 H 0.35506 0.23605 0.61085 0.0
H1449 H 0.29482 0.26328 0.63304 0.0
C1450 C 0.30776 0.29171 0.62712 0.0
C1451 C 0.32414 0.30204 0.61981 0.0
C1452 C 0.34168 0.22819 0.61487 0.0
C1453 C 0.32378 0.26044 0.6199 0.0
C1454 C 0.3419 0.20751 0.61512 0.0
C1455 C 0.32486 0.19681 0.62033 0.0
C1456 C 0.32434 0.2384 0.61999 0.0
C1457 C 0.30781 0.20757 0.62542 0.0
C1458 C 0.30751 0.27095 0.62717 0.0
C1459 C 0.33998 0.29094 0.61246 0.0
N1460 N 0.30798 0.22778 0.62512 0.0
N1461 N 0.33941 0.27078 0.61273 0.0
H1462 H 0.05084 0.04976 0.88424 0.0
H1463 H 0.94902 0.08301 0.83581 0.0
H1464 H 0.04758 0.09284 0.83983 0.0
H1465 H 0.95164 0.05236 0.88863 0.0
H1466 H 0.98528 0.08305 0.83467 0.0
H1467 H 0.01458 0.04664 0.88345 0.0
C1468 C 0.04249 0.05842 0.87421 0.0
C1469 C 0.05218 0.07165 0.86214 0.0
C1470 C 0.9779 0.07627 0.84648 0.0
C1471 C 0.01078 0.06822 0.8612 0.0
C1472 C 0.95718 0.07632 0.8472 0.0
C1473 C 0.94718 0.06782 0.86243 0.0
C1474 C 0.98877 0.06756 0.86103 0.0
C1475 C 0.95863 0.05893 0.87653 0.0
C1476 C 0.02181 0.05672 0.87384 0.0
C1477 C 0.04065 0.08266 0.84953 0.0
N1478 N 0.9788 0.05909 0.87552 0.0
N1479 N 0.02056 0.0807 0.84939 0.0
H1480 H 0.16578 0.30108 0.90419 0.0
H1481 H 0.19558 0.202 0.84948 0.0
H1482 H 0.19559 0.30118 0.85093 0.0
H1483 H 0.16812 0.20252 0.90385 0.0
H1484 H 0.19772 0.23823 0.85052 0.0
H1485 H 0.16812 0.26493 0.90494 0.0
C1486 C 0.17281 0.29348 0.89264 0.0
C1487 C 0.18033 0.30415 0.87739 0.0
C1488 C 0.19133 0.23041 0.86227 0.0
C1489 C 0.18319 0.26271 0.8782 0.0
C1490 C 0.19021 0.2097 0.86173 0.0
C1491 C 0.18151 0.1992 0.87654 0.0
C1492 C 0.18367 0.24069 0.87771 0.0
C1493 C 0.1746 0.21001 0.89197 0.0
C1494 C 0.17425 0.27283 0.89312 0.0
C1495 C 0.18967 0.29354 0.86299 0.0
N1496 N 0.17573 0.23015 0.8921 0.0
N1497 N 0.1907 0.27339 0.86368 0.0
H1498 H 0.94638 0.89555 0.10676 0.0
H1499 H 0.0457 0.94883 0.142 0.0
H1500 H 0.94618 0.95108 0.13677 0.0
H1501 H 0.04494 0.89925 0.10384 0.0
H1502 H 0.00935 0.94975 0.14093 0.0
H1503 H 0.98265 0.89621 0.1065 0.0
C1504 C 0.954 0.90786 0.11335 0.0
C1505 C 0.94327 0.92323 0.12188 0.0
C1506 C 0.01717 0.93872 0.13276 0.0
C1507 C 0.98482 0.92417 0.12157 0.0
C1508 C 0.03792 0.93824 0.1333 0.0
C1509 C 0.04842 0.92385 0.12309 0.0
C1510 C 0.00684 0.92468 0.122 0.0
C1511 C 0.03751 0.91035 0.11224 0.0
C1512 C 0.9747 0.9083 0.1131 0.0
C1513 C 0.9539 0.939 0.12994 0.0
N1514 N 0.01735 0.91105 0.11204 0.0
N1515 N 0.97411 0.93901 0.12968 0.0
H1516 H 0.29911 0.69827 0.35442 0.0
H1517 H 0.34533 0.79643 0.39878 0.0
H1518 H 0.33796 0.69792 0.40232 0.0
H1519 H 0.296 0.7975 0.36042 0.0
H1520 H 0.34314 0.7602 0.3999 0.0
H1521 H 0.29775 0.7345 0.35611 0.0
C1522 C 0.30718 0.70576 0.36542 0.0
C1523 C 0.31879 0.69497 0.37816 0.0
C1524 C 0.33269 0.76834 0.39133 0.0
C1525 C 0.31755 0.7365 0.37997 0.0
C1526 C 0.334 0.78899 0.39063 0.0
C1527 C 0.3209 0.7999 0.37942 0.0
C1528 C 0.31833 0.75849 0.38054 0.0
C1529 C 0.30633 0.7896 0.36931 0.0
C1530 C 0.30647 0.72646 0.36632 0.0
C1531 C 0.32915 0.70558 0.39194 0.0
N1532 N 0.30555 0.76942 0.36996 0.0
N1533 N 0.32839 0.72573 0.39239 0.0
H1534 H 0.54938 0.04987 0.59898 0.0
H1535 H 0.45413 0.09561 0.64922 0.0
H1536 H 0.5526 0.08851 0.64692 0.0
H1537 H 0.45052 0.04632 0.61098 0.0
H1538 H 0.49037 0.09368 0.64793 0.0
H1539 H 0.51325 0.04849 0.60262 0.0
C1540 C 0.54255 0.05793 0.61036 0.0
C1541 C 0.55409 0.06949 0.62254 0.0
C1542 C 0.48168 0.08318 0.63991 0.0
C1543 C 0.51272 0.06818 0.62661 0.0
C1544 C 0.46102 0.08435 0.64059 0.0
C1545 C 0.44937 0.07117 0.63013 0.0
C1546 C 0.4908 0.06888 0.62851 0.0
C1547 C 0.459 0.05669 0.61933 0.0
C1548 C 0.52191 0.05718 0.61238 0.0
C1549 C 0.54432 0.07978 0.63691 0.0
N1550 N 0.47919 0.05604 0.61866 0.0
N1551 N 0.52424 0.07898 0.63846 0.0
H1552 H 0.79818 0.19425 0.85392 0.0
H1553 H 0.84934 0.29404 0.88898 0.0
H1554 H 0.84321 0.19603 0.89678 0.0
H1555 H 0.79289 0.29382 0.86028 0.0
H1556 H 0.84845 0.25796 0.89008 0.0
H1557 H 0.7969 0.23056 0.85436 0.0
C1558 C 0.80767 0.20221 0.86354 0.0
C1559 C 0.82094 0.19199 0.87524 0.0
C1560 C 0.83619 0.26579 0.88363 0.0
C1561 C 0.81976 0.23355 0.87553 0.0
C1562 C 0.83661 0.28646 0.88307 0.0
C1563 C 0.82107 0.29712 0.87465 0.0
C1564 C 0.82025 0.25555 0.87549 0.0
C1565 C 0.80531 0.28629 0.86675 0.0
C1566 C 0.80698 0.22295 0.8637 0.0
C1567 C 0.83307 0.2032 0.88721 0.0
N1568 N 0.80533 0.26609 0.86731 0.0
N1569 N 0.83227 0.22334 0.88695 0.0
H1570 H 0.65261 0.70334 0.39691 0.0
H1571 H 0.69887 0.80015 0.3507 0.0
H1572 H 0.70171 0.70073 0.35834 0.0
H1573 H 0.66422 0.80138 0.40137 0.0
H1574 H 0.69979 0.76388 0.35254 0.0
H1575 H 0.65577 0.73952 0.3978 0.0
C1576 C 0.66407 0.71043 0.38865 0.0
C1577 C 0.67686 0.69911 0.37747 0.0
C1578 C 0.69212 0.77214 0.36332 0.0
C1579 C 0.68055 0.74043 0.37835 0.0
C1580 C 0.69166 0.79286 0.36234 0.0
C1581 C 0.68124 0.80389 0.37578 0.0
C1582 C 0.68194 0.76238 0.37774 0.0
C1583 C 0.67201 0.79353 0.39042 0.0
C1584 C 0.66596 0.73104 0.38924 0.0
C1585 C 0.69162 0.70896 0.3672 0.0
N1586 N 0.67241 0.77338 0.3909 0.0
N1587 N 0.69295 0.72911 0.36773 0.0
H1588 H 0.79916 0.70012 0.14134 0.0
H1589 H 0.82902 0.80059 0.08873 0.0
H1590 H 0.8296 0.70194 0.08841 0.0
H1591 H 0.79911 0.79921 0.14193 0.0
H1592 H 0.82699 0.76442 0.08728 0.0
H1593 H 0.79622 0.73631 0.14052 0.0
C1594 C 0.805 0.7081 0.12942 0.0
C1595 C 0.8148 0.69798 0.11499 0.0
C1596 C 0.82076 0.77201 0.09923 0.0
C1597 C 0.81172 0.73943 0.11409 0.0
C1598 C 0.82201 0.79267 0.10011 0.0
C1599 C 0.81438 0.80294 0.11556 0.0
C1600 C 0.81188 0.76148 0.11393 0.0
C1601 C 0.8051 0.79192 0.12971 0.0
C1602 C 0.80342 0.72878 0.12902 0.0
C1603 C 0.82226 0.70914 0.10001 0.0
N1604 N 0.80424 0.77177 0.12863 0.0
N1605 N 0.82066 0.72925 0.1 0.0
H1606 H 0.69207 0.29898 0.59166 0.0
H1607 H 0.64857 0.19915 0.63539 0.0
H1608 H 0.65797 0.29766 0.64256 0.0
H1609 H 0.69824 0.19938 0.59738 0.0
H1610 H 0.64945 0.23549 0.63607 0.0
H1611 H 0.69233 0.26254 0.59143 0.0
C1612 C 0.68467 0.291 0.60278 0.0
C1613 C 0.67502 0.3013 0.61717 0.0
C1614 C 0.66019 0.22759 0.62762 0.0
C1615 C 0.67512 0.25978 0.61693 0.0
C1616 C 0.65961 0.20689 0.62713 0.0
C1617 C 0.67333 0.19631 0.61628 0.0
C1618 C 0.67442 0.23779 0.61697 0.0
C1619 C 0.68749 0.20702 0.60601 0.0
C1620 C 0.68489 0.27025 0.60269 0.0
C1621 C 0.66575 0.29028 0.63131 0.0
N1622 N 0.68759 0.22721 0.6065 0.0
N1623 N 0.6659 0.27011 0.63077 0.0
H1624 H 0.04683 0.44426 0.89303 0.0
H1625 H 0.95039 0.40039 0.84383 0.0
H1626 H 0.04896 0.41143 0.84135 0.0
H1627 H 0.94775 0.44768 0.8843 0.0
H1628 H 0.98667 0.40296 0.84373 0.0
H1629 H 0.01061 0.44479 0.89097 0.0
C1630 C 0.03975 0.43734 0.88114 0.0
C1631 C 0.05106 0.42768 0.8674 0.0
C1632 C 0.97816 0.41287 0.85255 0.0
C1633 C 0.00951 0.42792 0.86518 0.0
C1634 C 0.95749 0.41133 0.85268 0.0
C1635 C 0.94612 0.42379 0.86414 0.0
C1636 C 0.98754 0.42678 0.86418 0.0
C1637 C 0.956 0.43787 0.87519 0.0
C1638 C 0.01904 0.43758 0.88003 0.0
C1639 C 0.04092 0.41869 0.8525 0.0
N1640 N 0.97618 0.43886 0.87507 0.0
N1641 N 0.02074 0.41891 0.85186 0.0
H1642 H 0.54792 0.5449 0.38215 0.0
H1643 H 0.44747 0.59093 0.34104 0.0
H1644 H 0.54606 0.59493 0.34449 0.0
H1645 H 0.44874 0.55096 0.3881 0.0
H1646 H 0.48364 0.58954 0.33956 0.0
H1647 H 0.51158 0.54396 0.38198 0.0
C1648 C 0.53992 0.55569 0.37385 0.0
C1649 C 0.55015 0.57007 0.36337 0.0
C1650 C 0.47601 0.58104 0.3502 0.0
C1651 C 0.50854 0.56887 0.36293 0.0
C1652 C 0.45533 0.58191 0.35112 0.0
C1653 C 0.44499 0.5712 0.36484 0.0
C1654 C 0.48651 0.5693 0.36301 0.0
C1655 C 0.45603 0.55936 0.3772 0.0
C1656 C 0.51917 0.55508 0.37371 0.0
C1657 C 0.53892 0.5834 0.3526 0.0
N1658 N 0.4762 0.55878 0.37603 0.0
N1659 N 0.51876 0.58249 0.35269 0.0
H1660 H 0.54866 0.45428 0.60942 0.0
H1661 H 0.44712 0.41772 0.65584 0.0
H1662 H 0.54562 0.40738 0.65027 0.0
H1663 H 0.44965 0.44551 0.60161 0.0
H1664 H 0.4833 0.41933 0.65759 0.0
H1665 H 0.51227 0.45686 0.61021 0.0
C1666 C 0.54032 0.4447 0.6187 0.0
C1667 C 0.55005 0.43051 0.62972 0.0
C1668 C 0.47588 0.42514 0.64536 0.0
C1669 C 0.50867 0.43341 0.63073 0.0
C1670 C 0.45522 0.42413 0.64427 0.0
C1671 C 0.44522 0.43123 0.62841 0.0
C1672 C 0.48669 0.43351 0.63061 0.0
C1673 C 0.4566 0.43996 0.61416 0.0
C1674 C 0.51961 0.4461 0.61907 0.0
C1675 C 0.53861 0.41835 0.64142 0.0
N1676 N 0.47673 0.44079 0.61557 0.0
N1677 N 0.5185 0.42008 0.64163 0.0
H1678 H 0.05288 0.54831 0.13712 0.0
H1679 H 0.95365 0.60396 0.10447 0.0
H1680 H 0.05236 0.60117 0.10309 0.0
H1681 H 0.95393 0.55534 0.14373 0.0
H1682 H 0.98976 0.60196 0.10256 0.0
H1683 H 0.01652 0.54913 0.13808 0.0
C1684 C 0.04511 0.55999 0.12973 0.0
C1685 C 0.05567 0.57474 0.12007 0.0
C1686 C 0.98194 0.59172 0.11161 0.0
C1687 C 0.01412 0.57587 0.12124 0.0
C1688 C 0.96131 0.59294 0.11281 0.0
C1689 C 0.9507 0.57988 0.12438 0.0
C1690 C 0.99214 0.57729 0.122 0.0
C1691 C 0.96145 0.5656 0.1345 0.0
C1692 C 0.02437 0.56053 0.13039 0.0
C1693 C 0.04484 0.58966 0.11092 0.0
N1694 N 0.98158 0.56471 0.13309 0.0
N1695 N 0.02469 0.58984 0.11174 0.0
H1696 H 0.22586 0.54774 0.02462 0.0
H1697 H 0.21003 0.44003 0.98045 0.0
H1698 H 0.20434 0.4969 0.05539 0.0
H1699 H 0.20918 0.49452 0.94862 0.0
H1700 H 0.21786 0.45925 0.00839 0.0
H1701 H 0.22975 0.52659 -0.00283 0.0
C1702 C 0.22214 0.53213 0.02571 0.0
C1703 C 0.21434 0.52424 0.04231 0.0
C1704 C 0.21622 0.46691 0.9952 0.0
C1705 C 0.21915 0.49995 0.01103 0.0
C1706 C 0.21162 0.45599 0.97926 0.0
C1707 C 0.2085 0.46568 0.96217 0.0
C1708 C 0.21787 0.48764 0.99404 0.0
C1709 C 0.21144 0.48634 0.96143 0.0
C1710 C 0.22448 0.52007 0.01005 0.0
C1711 C 0.21042 0.50374 0.04299 0.0
N1712 N 0.21575 0.49665 0.97717 0.0
N1713 N 0.21265 0.49237 0.02752 0.0
H1714 H 0.75187 0.95778 0.30582 0.0
H1715 H 0.75344 0.96147 0.19621 0.0
H1716 H 0.69992 0.97045 0.27255 0.0
H1717 H 0.80686 0.96142 0.22961 0.0
H1718 H 0.73416 0.96918 0.22391 0.0
H1719 H 0.77268 0.96352 0.27857 0.0
C1720 C 0.74482 0.9622 0.2929 0.0
C1721 C 0.72403 0.96325 0.29142 0.0
C1722 C 0.75014 0.96778 0.22516 0.0
C1723 C 0.74784 0.96938 0.26 0.0
C1724 C 0.76123 0.96347 0.20927 0.0
C1725 C 0.78184 0.96042 0.21055 0.0
C1726 C 0.75962 0.96876 0.24256 0.0
C1727 C 0.79095 0.96303 0.22801 0.0
C1728 C 0.75675 0.96537 0.27729 0.0
C1729 C 0.71583 0.9689 0.27422 0.0
N1730 N 0.77974 0.96673 0.24337 0.0
N1731 N 0.72772 0.97143 0.25912 0.0
H1732 H 0.27322 0.4867 0.54538 0.0
H1733 H 0.29931 0.49628 0.43724 0.0
H1734 H 0.30904 0.44496 0.5143 0.0
H1735 H 0.27944 0.54578 0.47066 0.0
H1736 H 0.29448 0.47436 0.46384 0.0
H1737 H 0.26787 0.50561 0.51668 0.0
C1738 C 0.27986 0.4814 0.53257 0.0
C1739 C 0.29185 0.46429 0.53241 0.0
C1740 C 0.29095 0.48998 0.4653 0.0
C1741 C 0.2854 0.48566 0.49952 0.0
C1742 C 0.29353 0.5025 0.45006 0.0
C1743 C 0.28999 0.52297 0.45178 0.0
C1744 C 0.28484 0.49793 0.48243 0.0
C1745 C 0.28273 0.53016 0.46884 0.0
C1746 C 0.27667 0.49215 0.51619 0.0
C1747 C 0.29956 0.45789 0.51522 0.0
N1748 N 0.28058 0.51768 0.4836 0.0
N1749 N 0.29632 0.46866 0.49955 0.0
H1750 H 0.73414 0.0282 0.69846 0.0
H1751 H 0.74161 0.05442 0.80654 0.0
H1752 H 0.69544 0.07031 0.72591 0.0
H1753 H 0.79291 0.03889 0.77333 0.0
H1754 H 0.72091 0.0519 0.77871 0.0
H1755 H 0.75223 0.02391 0.72774 0.0
C1756 C 0.72935 0.03651 0.71057 0.0
C1757 C 0.71334 0.04989 0.70952 0.0
C1758 C 0.73668 0.04886 0.77763 0.0
C1759 C 0.73366 0.04449 0.74315 0.0
C1760 C 0.74856 0.05042 0.79346 0.0
C1761 C 0.76918 0.04727 0.79228 0.0
C1762 C 0.74536 0.04381 0.76053 0.0
C1763 C 0.77713 0.04141 0.77501 0.0
C1764 C 0.73963 0.03391 0.72729 0.0
C1765 C 0.70751 0.0597 0.72594 0.0
N1766 N 0.76522 0.03999 0.75978 0.0
N1767 N 0.71772 0.05685 0.74203 0.0
H1768 H 0.83847 0.45089 0.97033 0.0
H1769 H 0.7826 0.53104 0.03323 0.0
H1770 H 0.78029 0.47352 0.9568 0.0
H1771 H 0.83859 0.5037 0.04741 0.0
H1772 H 0.77958 0.50821 0.00672 0.0
H1773 H 0.83704 0.46815 0.00014 0.0
C1774 C 0.82535 0.45949 0.97374 0.0
C1775 C 0.8096 0.46109 0.96108 0.0
C1776 C 0.79243 0.50712 0.01574 0.0
C1777 C 0.80783 0.48101 0.9951 0.0
C1778 C 0.79413 0.5201 0.03087 0.0
C1779 C 0.81105 0.51947 0.04229 0.0
C1780 C 0.80776 0.49348 0.0121 0.0
C1781 C 0.82555 0.50503 0.03866 0.0
C1782 C 0.82448 0.46929 0.99077 0.0
C1783 C 0.79276 0.47205 0.96623 0.0
N1784 N 0.82364 0.49274 0.02382 0.0
N1785 N 0.79241 0.48186 0.98281 0.0
H1786 H 0.19499 0.0388 0.76771 0.0
H1787 H 0.30459 0.03467 0.72525 0.0
H1788 H 0.24862 0.04513 0.80024 0.0
H1789 H 0.25154 0.04503 0.69278 0.0
H1790 H 0.28384 0.02928 0.75276 0.0
H1791 H 0.21531 0.03189 0.74022 0.0
C1792 C 0.21101 0.03857 0.76912 0.0
C1793 C 0.2201 0.04296 0.78625 0.0
C1794 C 0.27677 0.03245 0.73953 0.0
C1795 C 0.24338 0.03483 0.75492 0.0
C1796 C 0.28859 0.03563 0.72384 0.0
C1797 C 0.27984 0.04072 0.70673 0.0
C1798 C 0.25606 0.03434 0.73809 0.0
C1799 C 0.259 0.04115 0.70564 0.0
C1800 C 0.22258 0.03452 0.75345 0.0
C1801 C 0.24092 0.04186 0.78736 0.0
N1802 N 0.24783 0.03826 0.72116 0.0
N1803 N 0.25186 0.03815 0.77185 0.0
H1804 H 0.69669 0.50243 0.4419 0.0
H1805 H 0.69413 0.50082 0.55175 0.0
H1806 H 0.70323 0.55537 0.47536 0.0
H1807 H 0.70276 0.44804 0.51867 0.0
H1808 H 0.70012 0.52114 0.52409 0.0
H1809 H 0.70193 0.48229 0.46962 0.0
C1810 C 0.69961 0.50987 0.45499 0.0
C1811 C 0.69923 0.53069 0.45629 0.0
C1812 C 0.70101 0.50513 0.5229 0.0
C1813 C 0.70475 0.50759 0.48824 0.0
C1814 C 0.6975 0.49356 0.53865 0.0
C1815 C 0.6977 0.47278 0.53735 0.0
C1816 C 0.7044 0.49584 0.50567 0.0
C1817 C 0.70243 0.46404 0.52019 0.0
C1818 C 0.7025 0.49831 0.47087 0.0
C1819 C 0.70286 0.53939 0.47375 0.0
N1820 N 0.70527 0.47563 0.50491 0.0
N1821 N 0.70519 0.5278 0.48908 0.0
H1822 H 0.24554 0.94583 0.30245 0.0
H1823 H 0.24235 0.95832 0.19289 0.0
H1824 H 0.29773 0.95672 0.26906 0.0
H1825 H 0.18982 0.95682 0.22743 0.0
H1826 H 0.26265 0.96233 0.22075 0.0
H1827 H 0.22472 0.95379 0.2756 0.0
C1828 C 0.25258 0.95006 0.28946 0.0
C1829 C 0.27335 0.95033 0.28784 0.0
C1830 C 0.24666 0.96144 0.22223 0.0
C1831 C 0.24968 0.95937 0.25704 0.0
C1832 C 0.23501 0.95928 0.20629 0.0
C1833 C 0.21434 0.95688 0.20783 0.0
C1834 C 0.2376 0.96098 0.23986 0.0
C1835 C 0.20574 0.95807 0.22562 0.0
C1836 C 0.24071 0.95471 0.27417 0.0
C1837 C 0.28176 0.95627 0.27085 0.0
N1838 N 0.21743 0.95973 0.24096 0.0
N1839 N 0.26989 0.96026 0.256 0.0
H1840 H 0.72358 0.04609 0.52112 0.0
H1841 H 0.70203 0.93874 0.47861 0.0
H1842 H 0.70041 0.99636 0.55237 0.0
H1843 H 0.71567 0.99036 0.44531 0.0
H1844 H 0.70925 0.95788 0.5067 0.0
H1845 H 0.7283 0.02414 0.49431 0.0
C1846 C 0.71967 0.03054 0.52243 0.0
C1847 C 0.71127 0.02317 0.53897 0.0
C1848 C 0.71093 0.96495 0.49324 0.0
C1849 C 0.71681 0.99798 0.50841 0.0
C1850 C 0.70675 0.95405 0.47721 0.0
C1851 C 0.70786 0.96309 0.45962 0.0
C1852 C 0.71613 0.98509 0.4917 0.0
C1853 C 0.71455 0.98282 0.45859 0.0
C1854 C 0.72247 0.01801 0.50715 0.0
C1855 C 0.70699 0.00277 0.53999 0.0
N1856 N 0.71814 0.99327 0.47444 0.0
N1857 N 0.70958 0.99098 0.52486 0.0
H1858 H 0.29885 0.4653 0.71973 0.0
H1859 H 0.24847 0.46112 0.80428 0.0
H1860 H 0.24751 0.43497 0.69759 0.0
H1861 H 0.19684 0.44538 0.77178 0.0
H1862 H 0.26774 0.46367 0.77576 0.0
H1863 H 0.28075 0.47131 0.74853 0.0
C1864 C 0.28372 0.45995 0.72091 0.0
C1865 C 0.27482 0.44931 0.70631 0.0
C1866 C 0.25211 0.46019 0.77467 0.0
C1867 C 0.25412 0.45542 0.73966 0.0
C1868 C 0.24111 0.45848 0.79108 0.0
C1869 C 0.22101 0.4529 0.79048 0.0
C1870 C 0.24292 0.45634 0.75745 0.0
C1871 C 0.21222 0.44991 0.77297 0.0
C1872 C 0.27343 0.46312 0.73755 0.0
C1873 C 0.25517 0.44277 0.70864 0.0
N1874 N 0.22328 0.45146 0.7572 0.0
N1875 N 0.24556 0.44583 0.72502 0.0
H1876 H 0.78493 0.00367 0.9488 0.0
H1877 H 0.79907 0.00222 0.05812 0.0
H1878 H 0.80007 0.05537 0.98143 0.0
H1879 H 0.77524 0.95249 0.0273 0.0
H1880 H 0.7949 0.02304 0.03081 0.0
H1881 H 0.7769 0.98589 0.97752 0.0
C1882 C 0.78621 0.01142 0.96198 0.0
C1883 C 0.79354 0.03093 0.96275 0.0
C1884 C 0.79032 0.00764 0.03005 0.0
C1885 C 0.78467 0.01057 0.99566 0.0
C1886 C 0.79254 0.99571 0.04576 0.0
C1887 C 0.78778 0.9754 0.04502 0.0
C1888 C 0.78357 -0.00079 0.01332 0.0
C1889 C 0.77966 0.9679 0.0284 0.0
C1890 C 0.7817 0.00122 0.97838 0.0
C1891 C 0.79498 0.04017 0.98022 0.0
N1892 N 0.7781 0.97973 0.01312 0.0
N1893 N 0.79085 0.02983 0.99598 0.0
H1894 H 0.19092 0.54363 0.2294 0.0
H1895 H 0.29983 0.53009 0.27095 0.0
H1896 H 0.24313 0.53366 0.19574 0.0
H1897 H 0.24803 0.54516 0.30356 0.0
H1898 H 0.27832 0.52431 0.24402 0.0
H1899 H 0.21055 0.53696 0.25732 0.0
C1900 C 0.20647 0.5398 0.22789 0.0
C1901 C 0.2155 0.53956 0.21027 0.0
C1902 C 0.27166 0.52859 0.25716 0.0
C1903 C 0.23809 0.53198 0.24212 0.0
C1904 C 0.28393 0.53199 0.27251 0.0
C1905 C 0.27578 0.53845 0.28947 0.0
C1906 C 0.2511 0.53178 0.25877 0.0
C1907 C 0.25503 0.54017 0.2908 0.0
C1908 C 0.21767 0.53594 0.24381 0.0
C1909 C 0.23559 0.53407 0.20906 0.0
N1910 N 0.24345 0.53713 0.2756 0.0
N1911 N 0.2463 0.53081 0.22481 0.0
H1912 H 0.34118 0.04549 0.52209 0.0
H1913 H 0.27841 0.97461 0.45472 0.0
H1914 H 0.28166 0.02646 0.53548 0.0
H1915 H 0.34204 0.98206 0.45295 0.0
H1916 H 0.27687 0.9986 0.48065 0.0
H1917 H 0.33892 0.028 0.49244 0.0
C1918 C 0.32758 0.03768 0.51867 0.0
C1919 C 0.31174 0.037 0.53131 0.0
C1920 C 0.29111 0.99502 0.47447 0.0
C1921 C 0.30905 0.01686 0.49751 0.0
C1922 C 0.29198 0.98141 0.45975 0.0
C1923 C 0.31041 0.97623 0.45202 0.0
C1924 C 0.30877 0.00363 0.4811 0.0
C1925 C 0.3276 0.98542 0.45882 0.0
C1926 C 0.32627 0.02772 0.50177 0.0
C1927 C 0.29423 0.02715 0.52608 0.0
N1928 N 0.32636 0.99864 0.47298 0.0
N1929 N 0.29343 0.01717 0.50961 0.0
H1930 H 0.75806 0.54218 0.19604 0.0
H1931 H 0.75299 0.55605 0.30543 0.0
H1932 H 0.81 0.54863 0.23085 0.0
H1933 H 0.70205 0.54084 0.27185 0.0
H1934 H 0.77459 0.54933 0.27882 0.0
H1935 H 0.7379 0.53716 0.22385 0.0
C1936 C 0.76533 0.54213 0.2095 0.0
C1937 C 0.78574 0.54616 0.2111 0.0
C1938 C 0.75872 0.54718 0.2773 0.0
C1939 C 0.7626 0.54087 0.24307 0.0
C1940 C 0.7464 0.5511 0.29245 0.0
C1941 C 0.72573 0.54929 0.29068 0.0
C1942 C 0.75028 0.54169 0.26016 0.0
C1943 C 0.71793 0.54249 0.27373 0.0
C1944 C 0.75376 0.53938 0.22541 0.0
C1945 C 0.79424 0.5461 0.22897 0.0
N1946 N 0.73021 0.53923 0.259 0.0
N1947 N 0.78259 0.5438 0.24426 0.0
H1948 H 0.21264 0.98634 0.04503 0.0
H1949 H 0.17702 0.99814 0.94004 0.0
H1950 H 0.18201 0.94064 0.01416 0.0
H1951 H 0.21348 0.04167 0.96789 0.0
H1952 H 0.18182 0.9755 0.96617 0.0
H1953 H 0.21669 0.00526 0.01616 0.0
C1954 C 0.2071 0.98011 0.03212 0.0
C1955 C 0.19667 0.96205 0.03202 0.0
C1956 C 0.18895 0.98992 0.96656 0.0
C1957 C 0.20098 0.98371 -0.00093 0.0
C1958 C 0.18612 0.00287 0.95169 0.0
C1959 C 0.19461 0.02187 0.95201 0.0
C1960 C 0.20017 0.99609 0.98201 0.0
C1961 C 0.20661 0.02714 0.9672 0.0
C1962 C 0.20932 0.99097 0.01567 0.0
C1963 C 0.18972 0.95473 0.01493 0.0
N1964 N 0.20881 0.01441 0.98177 0.0
N1965 N 0.19179 0.96569 -0.00081 0.0
H1966 H 0.74975 0.44738 0.68913 0.0
H1967 H 0.75183 0.45352 0.79892 0.0
H1968 H 0.69769 0.45976 0.7224 0.0
H1969 H 0.80497 0.4532 0.76512 0.0
H1970 H 0.73215 0.45966 0.77108 0.0
H1971 H 0.7705 0.45326 0.71636 0.0
C1972 C 0.74266 0.45171 0.70206 0.0
C1973 C 0.72187 0.45277 0.70351 0.0
C1974 C 0.74814 0.45853 0.76976 0.0
C1975 C 0.74562 0.45907 0.73491 0.0
C1976 C 0.75945 0.45513 0.78571 0.0
C1977 C 0.78012 0.45252 0.78437 0.0
C1978 C 0.75749 0.45908 0.75228 0.0
C1979 C 0.78904 0.45456 0.76677 0.0
C1980 C 0.75456 0.45497 0.71766 0.0
C1981 C 0.71361 0.45824 0.72073 0.0
N1982 N 0.77764 0.45743 0.75139 0.0
N1983 N 0.72549 0.46091 0.73582 0.0
loop_
_geom_bond_atom_site_label_1
_geom_bond_atom_site_label_2
_geom_bond_distance
_geom_bond_site_symmetry_2
_ccdc_geom_bond_type
Li0 N17 1.990 . S
Li0 O60 1.956 . S
Li0 O61 1.970 . S
Li0 O62 1.961 . S
Li1 N25 1.990 . S
Li1 O60 1.970 . S
Li1 O61 1.956 . S
Li1 O63 1.961 . S
Li2 N47 1.990 . S
Li2 O60 1.961 . S
Li2 O62 1.956 . S
Li2 O63 1.970 . S
Li3 N53 1.990 . S
Li3 O61 1.961 . S
Li3 O62 1.970 . S
Li3 O63 1.956 . S
C4 C6 1.348 . S
C4 C7 1.356 . S
C4 O60 1.325 . S
N5 C8 1.314 . S
N5 C9 1.279 . S
C6 C4 1.348 . S
C6 C8 1.353 . S
C6 H64 0.929 . S
C7 C4 1.356 . S
C7 C9 1.358 . S
C7 H65 0.930 . S
C8 N5 1.314 . S
C8 C6 1.353 . S
C8 H66 0.930 . S
C9 N5 1.279 . S
C9 C7 1.358 . S
C9 H67 0.930 . S
C10 C13 1.348 . S
C10 C14 1.356 . S
C10 O61 1.325 . S
C11 N12 1.279 . S
C11 C14 1.358 . S
C11 H68 0.930 . S
N12 C11 1.279 . S
N12 C15 1.314 . S
C13 C10 1.348 . S
C13 C15 1.353 . S
C13 H69 0.929 . S
C14 C10 1.356 . S
C14 C11 1.358 . S
C14 H70 0.930 . S
C15 N12 1.314 . S
C15 C13 1.353 . S
C15 H71 0.930 . S
C16 N17 1.314 . S
C16 C21 1.353 . S
C16 H22 0.930 . S
N17 Li0 1.990 . S
N17 C16 1.314 . S
N17 C19 1.279 . S
C18 C19 1.358 . S
C18 C20 1.356 . S
C18 H72 0.930 . S
C19 N17 1.279 . S
C19 C18 1.358 . S
C19 H23 0.930 . S
C20 C18 1.356 . S
C20 C21 1.348 . S
C21 C16 1.353 . S
C21 C20 1.348 . S
C21 H73 0.929 . S
H22 C16 0.930 . S
H23 C19 0.930 . S
C24 N25 1.314 . S
C24 C26 1.353 . S
C24 H30 0.930 . S
N25 Li1 1.990 . S
N25 C24 1.314 . S
N25 C28 1.279 . S
C26 C24 1.353 . S
C26 C29 1.348 . S
C26 H74 0.929 . S
C27 C28 1.358 . S
C27 C29 1.356 . S
C27 H75 0.930 . S
C28 N25 1.279 . S
C28 C27 1.358 . S
C28 H31 0.930 . S
C29 C26 1.348 . S
C29 C27 1.356 . S
H30 C24 0.930 . S
H31 C28 0.930 . S
C32 C34 1.348 . S
C32 C35 1.356 . S
C32 O62 1.325 . S
N33 C36 1.314 . S
N33 C37 1.279 . S
C34 C32 1.348 . S
C34 C36 1.353 . S
C34 H76 0.929 . S
C35 C32 1.356 . S
C35 C37 1.358 . S
C35 H77 0.930 . S
C36 N33 1.314 . S
C36 C34 1.353 . S
C36 H78 0.930 . S
C37 N33 1.279 . S
C37 C35 1.358 . S
C37 H79 0.930 . S
C38 C39 1.348 . S
C38 C40 1.356 . S
C38 O63 1.325 . S
C39 C38 1.348 . S
C39 C41 1.353 . S
C39 H80 0.929 . S
C40 C38 1.356 . S
C40 C42 1.358 . S
C40 H81 0.930 . S
C41 C39 1.353 . S
C41 N43 1.314 . S
C41 H82 0.930 . S
C42 C40 1.358 . S
C42 N43 1.279 . S
C42 H83 0.930 . S
N43 C41 1.314 . S
N43 C42 1.279 . S
C44 C46 1.353 . S
C44 N47 1.314 . S
C44 H50 0.930 . S
C45 N47 1.279 . S
C45 C48 1.358 . S
C45 H51 0.930 . S
C46 C44 1.353 . S
C46 C49 1.348 . S
C46 H84 0.929 . S
N47 Li2 1.990 . S
N47 C44 1.314 . S
N47 C45 1.279 . S
C48 C45 1.358 . S
C48 C49 1.356 . S
C48 H85 0.930 . S
C49 C46 1.348 . S
C49 C48 1.356 . S
H50 C44 0.930 . S
H51 C45 0.930 . S
C52 N53 1.314 . S
C52 C54 1.353 . S
C52 H58 0.930 . S
N53 Li3 1.990 . S
N53 C52 1.314 . S
N53 C56 1.279 . S
C54 C52 1.353 . S
C54 C57 1.348 . S
C54 H86 0.929 . S
C55 C56 1.358 . S
C55 C57 1.356 . S
C55 H87 0.930 . S
C56 N53 1.279 . S
C56 C55 1.358 . S
C56 H59 0.930 . S
C57 C54 1.348 . S
C57 C55 1.356 . S
H58 C52 0.930 . S
H59 C56 0.930 . S
O60 Li0 1.956 . S
O60 Li1 1.970 . S
O60 Li2 1.961 . S
O60 C4 1.325 . S
O61 Li0 1.970 . S
O61 Li1 1.956 . S
O61 Li3 1.961 . S
O61 C10 1.325 . S
O62 Li0 1.961 . S
O62 Li2 1.956 . S
O62 Li3 1.970 . S
O62 C32 1.325 . S
O63 Li1 1.961 . S
O63 Li2 1.970 . S
O63 Li3 1.956 . S
O63 C38 1.325 . S
H64 C6 0.929 . S
H65 C7 0.930 . S
H66 C8 0.930 . S
H67 C9 0.930 . S
H68 C11 0.930 . S
H69 C13 0.929 . S
H70 C14 0.930 . S
H71 C15 0.930 . S
H72 C18 0.930 . S
H73 C21 0.929 . S
H74 C26 0.929 . S
H75 C27 0.930 . S
H76 C34 0.929 . S
H77 C35 0.930 . S
H78 C36 0.930 . S
H79 C37 0.930 . S
H80 C39 0.929 . S
H81 C40 0.930 . S
H82 C41 0.930 . S
H83 C42 0.930 . S
H84 C46 0.929 . S
H85 C48 0.930 . S
H86 C54 0.929 . S
H87 C55 0.930 . S
Li88 N105 1.990 . S
Li88 O148 1.956 . S
Li88 O149 1.970 . S
Li88 O150 1.961 . S
Li89 N113 1.990 . S
Li89 O148 1.970 . S
Li89 O149 1.956 . S
Li89 O151 1.961 . S
Li90 N135 1.990 . S
Li90 O148 1.961 . S
Li90 O150 1.956 . S
Li90 O151 1.970 . S
Li91 N141 1.990 . S
Li91 O149 1.961 . S
Li91 O150 1.970 . S
Li91 O151 1.956 . S
C92 C94 1.348 . S
C92 C95 1.356 . S
C92 O148 1.325 . S
N93 C96 1.314 1_545 S
N93 C97 1.279 1_545 S
C94 C92 1.348 . S
C94 C96 1.353 . S
C94 H152 0.929 . S
C95 C92 1.356 . S
C95 C97 1.358 . S
C95 H153 0.930 . S
C96 N93 1.314 1_565 S
C96 C94 1.353 . S
C96 H154 0.930 1_565 S
C97 N93 1.279 1_565 S
C97 C95 1.358 . S
C97 H155 0.930 . S
C98 C101 1.348 . S
C98 C102 1.356 . S
C98 O149 1.325 . S
C99 N100 1.279 . S
C99 C102 1.358 . S
C99 H156 0.930 . S
N100 C99 1.279 . S
N100 C103 1.314 . S
C101 C98 1.348 . S
C101 C103 1.353 . S
C101 H157 0.929 . S
C102 C98 1.356 . S
C102 C99 1.358 . S
C102 H158 0.930 . S
C103 N100 1.314 . S
C103 C101 1.353 . S
C103 H159 0.930 . S
C104 N105 1.314 . S
C104 C109 1.353 . S
C104 H110 0.930 . S
N105 Li88 1.990 . S
N105 C104 1.314 . S
N105 C107 1.279 . S
C106 C107 1.358 . S
C106 C108 1.356 . S
C106 H160 0.930 . S
C107 N105 1.279 . S
C107 C106 1.358 . S
C107 H111 0.930 . S
C108 C106 1.356 . S
C108 C109 1.348 . S
C109 C104 1.353 . S
C109 C108 1.348 . S
C109 H161 0.929 . S
H110 C104 0.930 . S
H111 C107 0.930 . S
C112 N113 1.314 . S
C112 C114 1.353 . S
C112 H118 0.930 . S
N113 Li89 1.990 . S
N113 C112 1.314 . S
N113 C116 1.279 . S
C114 C112 1.353 . S
C114 C117 1.348 . S
C114 H162 0.929 . S
C115 C116 1.358 . S
C115 C117 1.356 . S
C115 H163 0.930 . S
C116 N113 1.279 . S
C116 C115 1.358 . S
C116 H119 0.930 . S
C117 C114 1.348 . S
C117 C115 1.356 . S
H118 C112 0.930 . S
H119 C116 0.930 . S
C120 C122 1.348 . S
C120 C123 1.356 . S
C120 O150 1.325 . S
N121 C124 1.314 . S
N121 C125 1.279 . S
C122 C120 1.348 . S
C122 C124 1.353 . S
C122 H164 0.929 . S
C123 C120 1.356 . S
C123 C125 1.358 . S
C123 H165 0.930 . S
C124 N121 1.314 . S
C124 C122 1.353 . S
C124 H166 0.930 . S
C125 N121 1.279 . S
C125 C123 1.358 . S
C125 H167 0.930 . S
C126 C127 1.348 . S
C126 C128 1.356 . S
C126 O151 1.325 . S
C127 C126 1.348 . S
C127 C129 1.353 . S
C127 H168 0.929 . S
C128 C126 1.356 . S
C128 C130 1.358 . S
C128 H169 0.930 . S
C129 C127 1.353 . S
C129 N131 1.314 . S
C129 H170 0.930 . S
C130 C128 1.358 . S
C130 N131 1.279 . S
C130 H171 0.930 . S
N131 C129 1.314 . S
N131 C130 1.279 . S
C132 C134 1.353 . S
C132 N135 1.314 . S
C132 H138 0.930 . S
C133 N135 1.279 . S
C133 C136 1.358 . S
C133 H139 0.930 . S
C134 C132 1.353 . S
C134 C137 1.348 . S
C134 H172 0.929 . S
N135 Li90 1.990 . S
N135 C132 1.314 . S
N135 C133 1.279 . S
C136 C133 1.358 . S
C136 C137 1.356 . S
C136 H173 0.930 . S
C137 C134 1.348 . S
C137 C136 1.356 . S
H138 C132 0.930 . S
H139 C133 0.930 . S
C140 N141 1.314 . S
C140 C142 1.353 . S
C140 H146 0.930 . S
N141 Li91 1.990 . S
N141 C140 1.314 . S
N141 C144 1.279 . S
C142 C140 1.353 . S
C142 C145 1.348 . S
C142 H174 0.929 . S
C143 C144 1.358 . S
C143 C145 1.356 . S
C143 H175 0.930 . S
C144 N141 1.279 . S
C144 C143 1.358 . S
C144 H147 0.930 . S
C145 C142 1.348 . S
C145 C143 1.356 . S
H146 C140 0.930 . S
H147 C144 0.930 . S
O148 Li88 1.956 . S
O148 Li89 1.970 . S
O148 Li90 1.961 . S
O148 C92 1.325 . S
O149 Li88 1.970 . S
O149 Li89 1.956 . S
O149 Li91 1.961 . S
O149 C98 1.325 . S
O150 Li88 1.961 . S
O150 Li90 1.956 . S
O150 Li91 1.970 . S
O150 C120 1.325 . S
O151 Li89 1.961 . S
O151 Li90 1.970 . S
O151 Li91 1.956 . S
O151 C126 1.325 . S
H152 C94 0.929 . S
H153 C95 0.930 . S
H154 C96 0.930 1_545 S
H155 C97 0.930 . S
H156 C99 0.930 . S
H157 C101 0.929 . S
H158 C102 0.930 . S
H159 C103 0.930 . S
H160 C106 0.930 . S
H161 C109 0.929 . S
H162 C114 0.929 . S
H163 C115 0.930 . S
H164 C122 0.929 . S
H165 C123 0.930 . S
H166 C124 0.930 . S
H167 C125 0.930 . S
H168 C127 0.929 . S
H169 C128 0.930 . S
H170 C129 0.930 . S
H171 C130 0.930 . S
H172 C134 0.929 . S
H173 C136 0.930 . S
H174 C142 0.929 . S
H175 C143 0.930 . S
Li176 N193 1.990 . S
Li176 O236 1.956 . S
Li176 O237 1.970 . S
Li176 O238 1.961 . S
Li177 N201 1.990 . S
Li177 O236 1.970 . S
Li177 O237 1.956 . S
Li177 O239 1.961 . S
Li178 N223 1.990 . S
Li178 O236 1.961 . S
Li178 O238 1.956 . S
Li178 O239 1.970 . S
Li179 N229 1.990 . S
Li179 O237 1.961 . S
Li179 O238 1.970 . S
Li179 O239 1.956 . S
C180 C182 1.348 . S
C180 C183 1.356 . S
C180 O236 1.325 . S
N181 C184 1.314 . S
N181 C185 1.279 . S
C182 C180 1.348 . S
C182 C184 1.353 . S
C182 H240 0.929 . S
C183 C180 1.356 . S
C183 C185 1.358 . S
C183 H241 0.930 . S
C184 N181 1.314 . S
C184 C182 1.353 . S
C184 H242 0.930 . S
C185 N181 1.279 . S
C185 C183 1.358 . S
C185 H243 0.930 . S
C186 C189 1.348 . S
C186 C190 1.356 . S
C186 O237 1.325 . S
C187 N188 1.279 . S
C187 C190 1.358 . S
C187 H244 0.930 . S
N188 C187 1.279 . S
N188 C191 1.314 . S
C189 C186 1.348 . S
C189 C191 1.353 . S
C189 H245 0.929 . S
C190 C186 1.356 . S
C190 C187 1.358 . S
C190 H246 0.930 . S
C191 N188 1.314 . S
C191 C189 1.353 . S
C191 H247 0.930 . S
C192 N193 1.314 . S
C192 C197 1.353 . S
C192 H198 0.930 . S
N193 Li176 1.990 . S
N193 C192 1.314 . S
N193 C195 1.279 . S
C194 C195 1.358 . S
C194 C196 1.356 . S
C194 H248 0.930 . S
C195 N193 1.279 . S
C195 C194 1.358 . S
C195 H199 0.930 . S
C196 C194 1.356 . S
C196 C197 1.348 . S
C197 C192 1.353 . S
C197 C196 1.348 . S
C197 H249 0.929 . S
H198 C192 0.930 . S
H199 C195 0.930 . S
C200 N201 1.314 . S
C200 C202 1.353 . S
C200 H206 0.930 . S
N201 Li177 1.990 . S
N201 C200 1.314 . S
N201 C204 1.279 . S
C202 C200 1.353 . S
C202 C205 1.348 . S
C202 H250 0.929 . S
C203 C204 1.358 . S
C203 C205 1.356 . S
C203 H251 0.930 . S
C204 N201 1.279 . S
C204 C203 1.358 . S
C204 H207 0.930 . S
C205 C202 1.348 . S
C205 C203 1.356 . S
H206 C200 0.930 . S
H207 C204 0.930 . S
C208 C210 1.348 . S
C208 C211 1.356 . S
C208 O238 1.325 . S
N209 C212 1.314 . S
N209 C213 1.279 . S
C210 C208 1.348 . S
C210 C212 1.353 . S
C210 H252 0.929 . S
C211 C208 1.356 . S
C211 C213 1.358 . S
C211 H253 0.930 . S
C212 N209 1.314 . S
C212 C210 1.353 . S
C212 H254 0.930 . S
C213 N209 1.279 . S
C213 C211 1.358 . S
C213 H255 0.930 . S
C214 C215 1.348 . S
C214 C216 1.356 . S
C214 O239 1.325 . S
C215 C214 1.348 . S
C215 C217 1.353 . S
C215 H256 0.929 . S
C216 C214 1.356 . S
C216 C218 1.358 . S
C216 H257 0.930 . S
C217 C215 1.353 . S
C217 N219 1.314 . S
C217 H258 0.930 . S
C218 C216 1.358 . S
C218 N219 1.279 . S
C218 H259 0.930 . S
N219 C217 1.314 . S
N219 C218 1.279 . S
C220 C222 1.353 . S
C220 N223 1.314 . S
C220 H226 0.930 . S
C221 N223 1.279 . S
C221 C224 1.358 . S
C221 H227 0.930 . S
C222 C220 1.353 . S
C222 C225 1.348 . S
C222 H260 0.929 . S
N223 Li178 1.990 . S
N223 C220 1.314 . S
N223 C221 1.279 . S
C224 C221 1.358 . S
C224 C225 1.356 . S
C224 H261 0.930 . S
C225 C222 1.348 . S
C225 C224 1.356 . S
H226 C220 0.930 . S
H227 C221 0.930 . S
C228 N229 1.314 . S
C228 C230 1.353 . S
C228 H234 0.930 . S
N229 Li179 1.990 . S
N229 C228 1.314 . S
N229 C232 1.279 . S
C230 C228 1.353 . S
C230 C233 1.348 . S
C230 H262 0.929 . S
C231 C232 1.358 . S
C231 C233 1.356 . S
C231 H263 0.930 . S
C232 N229 1.279 . S
C232 C231 1.358 . S
C232 H235 0.930 . S
C233 C230 1.348 . S
C233 C231 1.356 . S
H234 C228 0.930 . S
H235 C232 0.930 . S
O236 Li176 1.956 . S
O236 Li177 1.970 . S
O236 Li178 1.961 . S
O236 C180 1.325 . S
O237 Li176 1.970 . S
O237 Li177 1.956 . S
O237 Li179 1.961 . S
O237 C186 1.325 . S
O238 Li176 1.961 . S
O238 Li178 1.956 . S
O238 Li179 1.970 . S
O238 C208 1.325 . S
O239 Li177 1.961 . S
O239 Li178 1.970 . S
O239 Li179 1.956 . S
O239 C214 1.325 . S
H240 C182 0.929 . S
H241 C183 0.930 . S
H242 C184 0.930 . S
H243 C185 0.930 . S
H244 C187 0.930 . S
H245 C189 0.929 . S
H246 C190 0.930 . S
H247 C191 0.930 . S
H248 C194 0.930 . S
H249 C197 0.929 . S
H250 C202 0.929 . S
H251 C203 0.930 . S
H252 C210 0.929 . S
H253 C211 0.930 . S
H254 C212 0.930 . S
H255 C213 0.930 . S
H256 C215 0.929 . S
H257 C216 0.930 . S
H258 C217 0.930 . S
H259 C218 0.930 . S
H260 C222 0.929 . S
H261 C224 0.930 . S
H262 C230 0.929 . S
H263 C231 0.930 . S
Li264 N281 1.990 . S
Li264 O324 1.956 . S
Li264 O325 1.970 . S
Li264 O326 1.961 . S
Li265 N289 1.990 . S
Li265 O324 1.970 . S
Li265 O325 1.956 . S
Li265 O327 1.961 . S
Li266 N311 1.990 . S
Li266 O324 1.961 . S
Li266 O326 1.956 . S
Li266 O327 1.970 . S
Li267 N317 1.990 . S
Li267 O325 1.961 . S
Li267 O326 1.970 . S
Li267 O327 1.956 . S
C268 C270 1.348 . S
C268 C271 1.356 . S
C268 O324 1.325 . S
N269 C272 1.314 . S
N269 C273 1.279 . S
C270 C268 1.348 . S
C270 C272 1.353 . S
C270 H328 0.929 . S
C271 C268 1.356 . S
C271 C273 1.358 . S
C271 H329 0.930 . S
C272 N269 1.314 . S
C272 C270 1.353 . S
C272 H330 0.930 . S
C273 N269 1.279 . S
C273 C271 1.358 . S
C273 H331 0.930 . S
C274 C277 1.348 . S
C274 C278 1.356 . S
C274 O325 1.325 . S
C275 N276 1.279 . S
C275 C278 1.358 . S
C275 H332 0.930 . S
N276 C275 1.279 . S
N276 C279 1.314 . S
C277 C274 1.348 . S
C277 C279 1.353 . S
C277 H333 0.929 . S
C278 C274 1.356 . S
C278 C275 1.358 . S
C278 H334 0.930 . S
C279 N276 1.314 . S
C279 C277 1.353 . S
C279 H335 0.930 . S
C280 N281 1.314 . S
C280 C285 1.353 . S
C280 H286 0.930 . S
N281 Li264 1.990 . S
N281 C280 1.314 . S
N281 C283 1.279 . S
C282 C283 1.358 . S
C282 C284 1.356 . S
C282 H336 0.930 . S
C283 N281 1.279 . S
C283 C282 1.358 . S
C283 H287 0.930 . S
C284 C282 1.356 . S
C284 C285 1.348 . S
C285 C280 1.353 . S
C285 C284 1.348 . S
C285 H337 0.929 . S
H286 C280 0.930 . S
H287 C283 0.930 . S
C288 N289 1.314 . S
C288 C290 1.353 . S
C288 H294 0.930 . S
N289 Li265 1.990 . S
N289 C288 1.314 . S
N289 C292 1.279 . S
C290 C288 1.353 . S
C290 C293 1.348 . S
C290 H338 0.929 . S
C291 C292 1.358 . S
C291 C293 1.356 . S
C291 H339 0.930 . S
C292 N289 1.279 . S
C292 C291 1.358 . S
C292 H295 0.930 . S
C293 C290 1.348 . S
C293 C291 1.356 . S
H294 C288 0.930 . S
H295 C292 0.930 . S
C296 C298 1.348 . S
C296 C299 1.356 . S
C296 O326 1.325 . S
N297 C300 1.314 . S
N297 C301 1.279 . S
C298 C296 1.348 . S
C298 C300 1.353 . S
C298 H340 0.929 . S
C299 C296 1.356 . S
C299 C301 1.358 . S
C299 H341 0.930 . S
C300 N297 1.314 . S
C300 C298 1.353 . S
C300 H342 0.930 . S
C301 N297 1.279 . S
C301 C299 1.358 . S
C301 H343 0.930 . S
C302 C303 1.348 . S
C302 C304 1.356 . S
C302 O327 1.325 . S
C303 C302 1.348 . S
C303 C305 1.353 . S
C303 H344 0.929 . S
C304 C302 1.356 . S
C304 C306 1.358 . S
C304 H345 0.930 . S
C305 C303 1.353 . S
C305 N307 1.314 1_545 S
C305 H346 0.930 1_545 S
C306 C304 1.358 . S
C306 N307 1.279 1_545 S
C306 H347 0.930 . S
N307 C305 1.314 1_565 S
N307 C306 1.279 1_565 S
C308 C310 1.353 . S
C308 N311 1.314 . S
C308 H314 0.930 . S
C309 N311 1.279 . S
C309 C312 1.358 . S
C309 H315 0.930 . S
C310 C308 1.353 . S
C310 C313 1.348 . S
C310 H348 0.929 . S
N311 Li266 1.990 . S
N311 C308 1.314 . S
N311 C309 1.279 . S
C312 C309 1.358 . S
C312 C313 1.356 . S
C312 H349 0.930 . S
C313 C310 1.348 . S
C313 C312 1.356 . S
H314 C308 0.930 . S
H315 C309 0.930 . S
C316 N317 1.314 . S
C316 C318 1.353 . S
C316 H322 0.930 . S
N317 Li267 1.990 . S
N317 C316 1.314 . S
N317 C320 1.279 . S
C318 C316 1.353 . S
C318 C321 1.348 . S
C318 H350 0.929 . S
C319 C320 1.358 . S
C319 C321 1.356 . S
C319 H351 0.930 . S
C320 N317 1.279 . S
C320 C319 1.358 . S
C320 H323 0.930 . S
C321 C318 1.348 . S
C321 C319 1.356 . S
H322 C316 0.930 . S
H323 C320 0.930 . S
O324 Li264 1.956 . S
O324 Li265 1.970 . S
O324 Li266 1.961 . S
O324 C268 1.325 . S
O325 Li264 1.970 . S
O325 Li265 1.956 . S
O325 Li267 1.961 . S
O325 C274 1.325 . S
O326 Li264 1.961 . S
O326 Li266 1.956 . S
O326 Li267 1.970 . S
O326 C296 1.325 . S
O327 Li265 1.961 . S
O327 Li266 1.970 . S
O327 Li267 1.956 . S
O327 C302 1.325 . S
H328 C270 0.929 . S
H329 C271 0.930 . S
H330 C272 0.930 . S
H331 C273 0.930 . S
H332 C275 0.930 . S
H333 C277 0.929 . S
H334 C278 0.930 . S
H335 C279 0.930 . S
H336 C282 0.930 . S
H337 C285 0.929 . S
H338 C290 0.929 . S
H339 C291 0.930 . S
H340 C298 0.929 . S
H341 C299 0.930 . S
H342 C300 0.930 . S
H343 C301 0.930 . S
H344 C303 0.929 . S
H345 C304 0.930 . S
H346 C305 0.930 1_565 S
H347 C306 0.930 . S
H348 C310 0.929 . S
H349 C312 0.930 . S
H350 C318 0.929 . S
H351 C319 0.930 . S
Li352 N369 1.990 . S
Li352 O412 1.956 . S
Li352 O413 1.970 . S
Li352 O414 1.961 . S
Li353 N377 1.990 . S
Li353 O412 1.970 . S
Li353 O413 1.956 . S
Li353 O415 1.961 . S
Li354 N399 1.990 . S
Li354 O412 1.961 . S
Li354 O414 1.956 . S
Li354 O415 1.970 . S
Li355 N405 1.990 . S
Li355 O413 1.961 . S
Li355 O414 1.970 . S
Li355 O415 1.956 . S
C356 C358 1.348 . S
C356 C359 1.356 . S
C356 O412 1.325 . S
N357 C360 1.314 . S
N357 C361 1.279 . S
C358 C356 1.348 . S
C358 C360 1.353 . S
C358 H416 0.929 . S
C359 C356 1.356 . S
C359 C361 1.358 . S
C359 H417 0.930 . S
C360 N357 1.314 . S
C360 C358 1.353 . S
C360 H418 0.930 . S
C361 N357 1.279 . S
C361 C359 1.358 . S
C361 H419 0.930 . S
C362 C365 1.348 . S
C362 C366 1.356 . S
C362 O413 1.325 . S
C363 N364 1.279 . S
C363 C366 1.358 . S
C363 H420 0.930 . S
N364 C363 1.279 . S
N364 C367 1.314 . S
C365 C362 1.348 . S
C365 C367 1.353 . S
C365 H421 0.929 . S
C366 C362 1.356 . S
C366 C363 1.358 . S
C366 H422 0.930 . S
C367 N364 1.314 . S
C367 C365 1.353 . S
C367 H423 0.930 . S
C368 N369 1.314 . S
C368 C373 1.353 . S
C368 H374 0.930 . S
N369 Li352 1.990 . S
N369 C368 1.314 . S
N369 C371 1.279 . S
C370 C371 1.358 . S
C370 C372 1.356 . S
C370 H424 0.930 . S
C371 N369 1.279 . S
C371 C370 1.358 . S
C371 H375 0.930 . S
C372 C370 1.356 . S
C372 C373 1.348 . S
C373 C368 1.353 . S
C373 C372 1.348 . S
C373 H425 0.929 . S
H374 C368 0.930 . S
H375 C371 0.930 . S
C376 N377 1.314 . S
C376 C378 1.353 . S
C376 H382 0.930 . S
N377 Li353 1.990 . S
N377 C376 1.314 . S
N377 C380 1.279 . S
C378 C376 1.353 . S
C378 C381 1.348 . S
C378 H426 0.929 . S
C379 C380 1.358 . S
C379 C381 1.356 . S
C379 H427 0.930 . S
C380 N377 1.279 . S
C380 C379 1.358 . S
C380 H383 0.930 . S
C381 C378 1.348 . S
C381 C379 1.356 . S
H382 C376 0.930 . S
H383 C380 0.930 . S
C384 C386 1.348 . S
C384 C387 1.356 . S
C384 O414 1.325 . S
N385 C388 1.314 . S
N385 C389 1.279 . S
C386 C384 1.348 . S
C386 C388 1.353 . S
C386 H428 0.929 . S
C387 C384 1.356 . S
C387 C389 1.358 . S
C387 H429 0.930 . S
C388 N385 1.314 . S
C388 C386 1.353 . S
C388 H430 0.930 . S
C389 N385 1.279 . S
C389 C387 1.358 . S
C389 H431 0.930 . S
C390 C391 1.348 . S
C390 C392 1.356 . S
C390 O415 1.325 . S
C391 C390 1.348 . S
C391 C393 1.353 . S
C391 H432 0.929 . S
C392 C390 1.356 . S
C392 C394 1.358 . S
C392 H433 0.930 . S
C393 C391 1.353 . S
C393 N395 1.314 . S
C393 H434 0.930 . S
C394 C392 1.358 . S
C394 N395 1.279 . S
C394 H435 0.930 . S
N395 C393 1.314 . S
N395 C394 1.279 . S
C396 C398 1.353 . S
C396 N399 1.314 . S
C396 H402 0.930 . S
C397 N399 1.279 . S
C397 C400 1.358 . S
C397 H403 0.930 . S
C398 C396 1.353 . S
C398 C401 1.348 . S
C398 H436 0.929 . S
N399 Li354 1.990 . S
N399 C396 1.314 . S
N399 C397 1.279 . S
C400 C397 1.358 . S
C400 C401 1.356 . S
C400 H437 0.930 . S
C401 C398 1.348 . S
C401 C400 1.356 . S
H402 C396 0.930 . S
H403 C397 0.930 . S
C404 N405 1.314 . S
C404 C406 1.353 . S
C404 H410 0.930 . S
N405 Li355 1.990 . S
N405 C404 1.314 . S
N405 C408 1.279 . S
C406 C404 1.353 . S
C406 C409 1.348 . S
C406 H438 0.929 . S
C407 C408 1.358 . S
C407 C409 1.356 . S
C407 H439 0.930 . S
C408 N405 1.279 . S
C408 C407 1.358 . S
C408 H411 0.930 . S
C409 C406 1.348 . S
C409 C407 1.356 . S
H410 C404 0.930 . S
H411 C408 0.930 . S
O412 Li352 1.956 . S
O412 Li353 1.970 . S
O412 Li354 1.961 . S
O412 C356 1.325 . S
O413 Li352 1.970 . S
O413 Li353 1.956 . S
O413 Li355 1.961 . S
O413 C362 1.325 . S
O414 Li352 1.961 . S
O414 Li354 1.956 . S
O414 Li355 1.970 . S
O414 C384 1.325 . S
O415 Li353 1.961 . S
O415 Li354 1.970 . S
O415 Li355 1.956 . S
O415 C390 1.325 . S
H416 C358 0.929 . S
H417 C359 0.930 . S
H418 C360 0.930 . S
H419 C361 0.930 . S
H420 C363 0.930 . S
H421 C365 0.929 . S
H422 C366 0.930 . S
H423 C367 0.930 . S
H424 C370 0.930 . S
H425 C373 0.929 . S
H426 C378 0.929 . S
H427 C379 0.930 . S
H428 C386 0.929 . S
H429 C387 0.930 . S
H430 C388 0.930 . S
H431 C389 0.930 . S
H432 C391 0.929 . S
H433 C392 0.930 . S
H434 C393 0.930 . S
H435 C394 0.930 . S
H436 C398 0.929 . S
H437 C400 0.930 . S
H438 C406 0.929 . S
H439 C407 0.930 . S
Li440 N457 1.990 . S
Li440 O500 1.956 . S
Li440 O501 1.970 . S
Li440 O502 1.961 . S
Li441 N465 1.990 . S
Li441 O500 1.970 . S
Li441 O501 1.956 . S
Li441 O503 1.961 . S
Li442 N487 1.990 . S
Li442 O500 1.961 . S
Li442 O502 1.956 . S
Li442 O503 1.970 . S
Li443 N493 1.990 . S
Li443 O501 1.961 . S
Li443 O502 1.970 . S
Li443 O503 1.956 . S
C444 C446 1.348 . S
C444 C447 1.356 . S
C444 O500 1.325 . S
N445 C448 1.314 . S
N445 C449 1.279 . S
C446 C444 1.348 . S
C446 C448 1.353 . S
C446 H504 0.929 . S
C447 C444 1.356 . S
C447 C449 1.358 . S
C447 H505 0.930 . S
C448 N445 1.314 . S
C448 C446 1.353 . S
C448 H506 0.930 . S
C449 N445 1.279 . S
C449 C447 1.358 . S
C449 H507 0.930 . S
C450 C453 1.348 . S
C450 C454 1.356 . S
C450 O501 1.325 . S
C451 N452 1.279 1_565 S
C451 C454 1.358 . S
C451 H508 0.930 . S
N452 C451 1.279 1_545 S
N452 C455 1.314 1_545 S
C453 C450 1.348 . S
C453 C455 1.353 . S
C453 H509 0.929 . S
C454 C450 1.356 . S
C454 C451 1.358 . S
C454 H510 0.930 . S
C455 N452 1.314 1_565 S
C455 C453 1.353 . S
C455 H511 0.930 1_565 S
C456 N457 1.314 . S
C456 C461 1.353 . S
C456 H462 0.930 . S
N457 Li440 1.990 . S
N457 C456 1.314 . S
N457 C459 1.279 . S
C458 C459 1.358 . S
C458 C460 1.356 . S
C458 H512 0.930 . S
C459 N457 1.279 . S
C459 C458 1.358 . S
C459 H463 0.930 . S
C460 C458 1.356 . S
C460 C461 1.348 . S
C461 C456 1.353 . S
C461 C460 1.348 . S
C461 H513 0.929 . S
H462 C456 0.930 . S
H463 C459 0.930 . S
C464 N465 1.314 . S
C464 C466 1.353 . S
C464 H470 0.930 . S
N465 Li441 1.990 . S
N465 C464 1.314 . S
N465 C468 1.279 . S
C466 C464 1.353 . S
C466 C469 1.348 . S
C466 H514 0.929 . S
C467 C468 1.358 . S
C467 C469 1.356 . S
C467 H515 0.930 . S
C468 N465 1.279 . S
C468 C467 1.358 . S
C468 H471 0.930 . S
C469 C466 1.348 . S
C469 C467 1.356 . S
H470 C464 0.930 . S
H471 C468 0.930 . S
C472 C474 1.348 . S
C472 C475 1.356 . S
C472 O502 1.325 . S
N473 C476 1.314 . S
N473 C477 1.279 . S
C474 C472 1.348 . S
C474 C476 1.353 . S
C474 H516 0.929 . S
C475 C472 1.356 . S
C475 C477 1.358 . S
C475 H517 0.930 . S
C476 N473 1.314 . S
C476 C474 1.353 . S
C476 H518 0.930 . S
C477 N473 1.279 . S
C477 C475 1.358 . S
C477 H519 0.930 . S
C478 C479 1.348 . S
C478 C480 1.356 . S
C478 O503 1.325 . S
C479 C478 1.348 . S
C479 C481 1.353 . S
C479 H520 0.929 . S
C480 C478 1.356 . S
C480 C482 1.358 . S
C480 H521 0.930 . S
C481 C479 1.353 . S
C481 N483 1.314 . S
C481 H522 0.930 . S
C482 C480 1.358 . S
C482 N483 1.279 . S
C482 H523 0.930 . S
N483 C481 1.314 . S
N483 C482 1.279 . S
C484 C486 1.353 . S
C484 N487 1.314 . S
C484 H490 0.930 . S
C485 N487 1.279 . S
C485 C488 1.358 . S
C485 H491 0.930 . S
C486 C484 1.353 . S
C486 C489 1.348 . S
C486 H524 0.929 . S
N487 Li442 1.990 . S
N487 C484 1.314 . S
N487 C485 1.279 . S
C488 C485 1.358 . S
C488 C489 1.356 . S
C488 H525 0.930 . S
C489 C486 1.348 . S
C489 C488 1.356 . S
H490 C484 0.930 . S
H491 C485 0.930 . S
C492 N493 1.314 . S
C492 C494 1.353 . S
C492 H498 0.930 . S
N493 Li443 1.990 . S
N493 C492 1.314 . S
N493 C496 1.279 . S
C494 C492 1.353 . S
C494 C497 1.348 . S
C494 H526 0.929 . S
C495 C496 1.358 . S
C495 C497 1.356 . S
C495 H527 0.930 . S
C496 N493 1.279 . S
C496 C495 1.358 . S
C496 H499 0.930 . S
C497 C494 1.348 . S
C497 C495 1.356 . S
H498 C492 0.930 . S
H499 C496 0.930 . S
O500 Li440 1.956 . S
O500 Li441 1.970 . S
O500 Li442 1.961 . S
O500 C444 1.325 . S
O501 Li440 1.970 . S
O501 Li441 1.956 . S
O501 Li443 1.961 . S
O501 C450 1.325 . S
O502 Li440 1.961 . S
O502 Li442 1.956 . S
O502 Li443 1.970 . S
O502 C472 1.325 . S
O503 Li441 1.961 . S
O503 Li442 1.970 . S
O503 Li443 1.956 . S
O503 C478 1.325 . S
H504 C446 0.929 . S
H505 C447 0.930 . S
H506 C448 0.930 . S
H507 C449 0.930 . S
H508 C451 0.930 . S
H509 C453 0.929 . S
H510 C454 0.930 . S
H511 C455 0.930 1_545 S
H512 C458 0.930 . S
H513 C461 0.929 . S
H514 C466 0.929 . S
H515 C467 0.930 . S
H516 C474 0.929 . S
H517 C475 0.930 . S
H518 C476 0.930 . S
H519 C477 0.930 . S
H520 C479 0.929 . S
H521 C480 0.930 . S
H522 C481 0.930 . S
H523 C482 0.930 . S
H524 C486 0.929 . S
H525 C488 0.930 . S
H526 C494 0.929 . S
H527 C495 0.930 . S
Li528 N545 1.990 . S
Li528 O588 1.956 . S
Li528 O589 1.970 . S
Li528 O590 1.961 . S
Li529 N553 1.990 . S
Li529 O588 1.970 . S
Li529 O589 1.956 . S
Li529 O591 1.961 . S
Li530 N575 1.990 . S
Li530 O588 1.961 . S
Li530 O590 1.956 . S
Li530 O591 1.970 . S
Li531 N581 1.990 . S
Li531 O589 1.961 . S
Li531 O590 1.970 . S
Li531 O591 1.956 . S
C532 C534 1.348 . S
C532 C535 1.356 . S
C532 O588 1.325 . S
N533 C536 1.314 . S
N533 C537 1.279 . S
C534 C532 1.348 . S
C534 C536 1.353 . S
C534 H592 0.929 . S
C535 C532 1.356 . S
C535 C537 1.358 . S
C535 H593 0.930 . S
C536 N533 1.314 . S
C536 C534 1.353 . S
C536 H594 0.930 . S
C537 N533 1.279 . S
C537 C535 1.358 . S
C537 H595 0.930 . S
C538 C541 1.348 . S
C538 C542 1.356 . S
C538 O589 1.325 . S
C539 N540 1.279 . S
C539 C542 1.358 . S
C539 H596 0.930 . S
N540 C539 1.279 . S
N540 C543 1.314 . S
C541 C538 1.348 . S
C541 C543 1.353 . S
C541 H597 0.929 . S
C542 C538 1.356 . S
C542 C539 1.358 . S
C542 H598 0.930 . S
C543 N540 1.314 . S
C543 C541 1.353 . S
C543 H599 0.930 . S
C544 N545 1.314 . S
C544 C549 1.353 . S
C544 H550 0.930 . S
N545 Li528 1.990 . S
N545 C544 1.314 . S
N545 C547 1.279 . S
C546 C547 1.358 . S
C546 C548 1.356 . S
C546 H600 0.930 . S
C547 N545 1.279 . S
C547 C546 1.358 . S
C547 H551 0.930 . S
C548 C546 1.356 . S
C548 C549 1.348 . S
C549 C544 1.353 . S
C549 C548 1.348 . S
C549 H601 0.929 . S
H550 C544 0.930 . S
H551 C547 0.930 . S
C552 N553 1.314 . S
C552 C554 1.353 . S
C552 H558 0.930 . S
N553 Li529 1.990 . S
N553 C552 1.314 . S
N553 C556 1.279 . S
C554 C552 1.353 . S
C554 C557 1.348 . S
C554 H602 0.929 . S
C555 C556 1.358 . S
C555 C557 1.356 . S
C555 H603 0.930 . S
C556 N553 1.279 . S
C556 C555 1.358 . S
C556 H559 0.930 . S
C557 C554 1.348 . S
C557 C555 1.356 . S
H558 C552 0.930 . S
H559 C556 0.930 . S
C560 C562 1.348 . S
C560 C563 1.356 . S
C560 O590 1.325 . S
N561 C564 1.314 . S
N561 C565 1.279 . S
C562 C560 1.348 . S
C562 C564 1.353 . S
C562 H604 0.929 . S
C563 C560 1.356 . S
C563 C565 1.358 . S
C563 H605 0.930 . S
C564 N561 1.314 . S
C564 C562 1.353 . S
C564 H606 0.930 . S
C565 N561 1.279 . S
C565 C563 1.358 . S
C565 H607 0.930 . S
C566 C567 1.348 . S
C566 C568 1.356 . S
C566 O591 1.325 . S
C567 C566 1.348 . S
C567 C569 1.353 . S
C567 H608 0.929 . S
C568 C566 1.356 . S
C568 C570 1.358 . S
C568 H609 0.930 . S
C569 C567 1.353 . S
C569 N571 1.314 . S
C569 H610 0.930 . S
C570 C568 1.358 . S
C570 N571 1.279 . S
C570 H611 0.930 . S
N571 C569 1.314 . S
N571 C570 1.279 . S
C572 C574 1.353 . S
C572 N575 1.314 . S
C572 H578 0.930 . S
C573 N575 1.279 . S
C573 C576 1.358 . S
C573 H579 0.930 . S
C574 C572 1.353 . S
C574 C577 1.348 . S
C574 H612 0.929 . S
N575 Li530 1.990 . S
N575 C572 1.314 . S
N575 C573 1.279 . S
C576 C573 1.358 . S
C576 C577 1.356 . S
C576 H613 0.930 . S
C577 C574 1.348 . S
C577 C576 1.356 . S
H578 C572 0.930 . S
H579 C573 0.930 . S
C580 N581 1.314 . S
C580 C582 1.353 . S
C580 H586 0.930 . S
N581 Li531 1.990 . S
N581 C580 1.314 . S
N581 C584 1.279 . S
C582 C580 1.353 . S
C582 C585 1.348 . S
C582 H614 0.929 . S
C583 C584 1.358 . S
C583 C585 1.356 . S
C583 H615 0.930 . S
C584 N581 1.279 . S
C584 C583 1.358 . S
C584 H587 0.930 . S
C585 C582 1.348 . S
C585 C583 1.356 . S
H586 C580 0.930 . S
H587 C584 0.930 . S
O588 Li528 1.956 . S
O588 Li529 1.970 . S
O588 Li530 1.961 . S
O588 C532 1.325 . S
O589 Li528 1.970 . S
O589 Li529 1.956 . S
O589 Li531 1.961 . S
O589 C538 1.325 . S
O590 Li528 1.961 . S
O590 Li530 1.956 . S
O590 Li531 1.970 . S
O590 C560 1.325 . S
O591 Li529 1.961 . S
O591 Li530 1.970 . S
O591 Li531 1.956 . S
O591 C566 1.325 . S
H592 C534 0.929 . S
H593 C535 0.930 . S
H594 C536 0.930 . S
H595 C537 0.930 . S
H596 C539 0.930 . S
H597 C541 0.929 . S
H598 C542 0.930 . S
H599 C543 0.930 . S
H600 C546 0.930 . S
H601 C549 0.929 . S
H602 C554 0.929 . S
H603 C555 0.930 . S
H604 C562 0.929 . S
H605 C563 0.930 . S
H606 C564 0.930 . S
H607 C565 0.930 . S
H608 C567 0.929 . S
H609 C568 0.930 . S
H610 C569 0.930 . S
H611 C570 0.930 . S
H612 C574 0.929 . S
H613 C576 0.930 . S
H614 C582 0.929 . S
H615 C583 0.930 . S
Li616 N633 1.990 . S
Li616 O676 1.956 . S
Li616 O677 1.970 . S
Li616 O678 1.961 . S
Li617 N641 1.990 . S
Li617 O676 1.970 . S
Li617 O677 1.956 . S
Li617 O679 1.961 . S
Li618 N663 1.990 . S
Li618 O676 1.961 . S
Li618 O678 1.956 . S
Li618 O679 1.970 . S
Li619 N669 1.990 . S
Li619 O677 1.961 . S
Li619 O678 1.970 . S
Li619 O679 1.956 . S
C620 C622 1.348 . S
C620 C623 1.356 . S
C620 O676 1.325 . S
N621 C624 1.314 . S
N621 C625 1.279 . S
C622 C620 1.348 . S
C622 C624 1.353 . S
C622 H680 0.929 . S
C623 C620 1.356 . S
C623 C625 1.358 . S
C623 H681 0.930 . S
C624 N621 1.314 . S
C624 C622 1.353 . S
C624 H682 0.930 . S
C625 N621 1.279 . S
C625 C623 1.358 . S
C625 H683 0.930 . S
C626 C629 1.348 . S
C626 C630 1.356 . S
C626 O677 1.325 . S
C627 N628 1.279 . S
C627 C630 1.358 . S
C627 H684 0.930 . S
N628 C627 1.279 . S
N628 C631 1.314 . S
C629 C626 1.348 . S
C629 C631 1.353 . S
C629 H685 0.929 . S
C630 C626 1.356 . S
C630 C627 1.358 . S
C630 H686 0.930 . S
C631 N628 1.314 . S
C631 C629 1.353 . S
C631 H687 0.930 . S
C632 N633 1.314 . S
C632 C637 1.353 . S
C632 H638 0.930 . S
N633 Li616 1.990 . S
N633 C632 1.314 . S
N633 C635 1.279 . S
C634 C635 1.358 . S
C634 C636 1.356 . S
C634 H688 0.930 . S
C635 N633 1.279 . S
C635 C634 1.358 . S
C635 H639 0.930 . S
C636 C634 1.356 . S
C636 C637 1.348 . S
C637 C632 1.353 . S
C637 C636 1.348 . S
C637 H689 0.929 . S
H638 C632 0.930 . S
H639 C635 0.930 . S
C640 N641 1.314 . S
C640 C642 1.353 . S
C640 H646 0.930 . S
N641 Li617 1.990 . S
N641 C640 1.314 . S
N641 C644 1.279 . S
C642 C640 1.353 . S
C642 C645 1.348 . S
C642 H690 0.929 . S
C643 C644 1.358 . S
C643 C645 1.356 . S
C643 H691 0.930 . S
C644 N641 1.279 . S
C644 C643 1.358 . S
C644 H647 0.930 . S
C645 C642 1.348 . S
C645 C643 1.356 . S
H646 C640 0.930 . S
H647 C644 0.930 . S
C648 C650 1.348 . S
C648 C651 1.356 . S
C648 O678 1.325 . S
N649 C652 1.314 . S
N649 C653 1.279 . S
C650 C648 1.348 . S
C650 C652 1.353 . S
C650 H692 0.929 . S
C651 C648 1.356 . S
C651 C653 1.358 . S
C651 H693 0.930 . S
C652 N649 1.314 . S
C652 C650 1.353 . S
C652 H694 0.930 . S
C653 N649 1.279 . S
C653 C651 1.358 . S
C653 H695 0.930 . S
C654 C655 1.348 . S
C654 C656 1.356 . S
C654 O679 1.325 . S
C655 C654 1.348 . S
C655 C657 1.353 . S
C655 H696 0.929 . S
C656 C654 1.356 . S
C656 C658 1.358 . S
C656 H697 0.930 . S
C657 C655 1.353 . S
C657 N659 1.314 1_545 S
C657 H698 0.930 1_545 S
C658 C656 1.358 . S
C658 N659 1.279 1_545 S
C658 H699 0.930 . S
N659 C657 1.314 1_565 S
N659 C658 1.279 1_565 S
C660 C662 1.353 . S
C660 N663 1.314 . S
C660 H666 0.930 . S
C661 N663 1.279 . S
C661 C664 1.358 . S
C661 H667 0.930 . S
C662 C660 1.353 . S
C662 C665 1.348 . S
C662 H700 0.929 . S
N663 Li618 1.990 . S
N663 C660 1.314 . S
N663 C661 1.279 . S
C664 C661 1.358 . S
C664 C665 1.356 . S
C664 H701 0.930 . S
C665 C662 1.348 . S
C665 C664 1.356 . S
H666 C660 0.930 . S
H667 C661 0.930 . S
C668 N669 1.314 . S
C668 C670 1.353 . S
C668 H674 0.930 . S
N669 Li619 1.990 . S
N669 C668 1.314 . S
N669 C672 1.279 . S
C670 C668 1.353 . S
C670 C673 1.348 . S
C670 H702 0.929 . S
C671 C672 1.358 . S
C671 C673 1.356 . S
C671 H703 0.930 . S
C672 N669 1.279 . S
C672 C671 1.358 . S
C672 H675 0.930 . S
C673 C670 1.348 . S
C673 C671 1.356 . S
H674 C668 0.930 . S
H675 C672 0.930 . S
O676 Li616 1.956 . S
O676 Li617 1.970 . S
O676 Li618 1.961 . S
O676 C620 1.325 . S
O677 Li616 1.970 . S
O677 Li617 1.956 . S
O677 Li619 1.961 . S
O677 C626 1.325 . S
O678 Li616 1.961 . S
O678 Li618 1.956 . S
O678 Li619 1.970 . S
O678 C648 1.325 . S
O679 Li617 1.961 . S
O679 Li618 1.970 . S
O679 Li619 1.956 . S
O679 C654 1.325 . S
H680 C622 0.929 . S
H681 C623 0.930 . S
H682 C624 0.930 . S
H683 C625 0.930 . S
H684 C627 0.930 . S
H685 C629 0.929 . S
H686 C630 0.930 . S
H687 C631 0.930 . S
H688 C634 0.930 . S
H689 C637 0.929 . S
H690 C642 0.929 . S
H691 C643 0.930 . S
H692 C650 0.929 . S
H693 C651 0.930 . S
H694 C652 0.930 . S
H695 C653 0.930 . S
H696 C655 0.929 . S
H697 C656 0.930 . S
H698 C657 0.930 1_565 S
H699 C658 0.930 . S
H700 C662 0.929 . S
H701 C664 0.930 . S
H702 C670 0.929 . S
H703 C671 0.930 . S
Li704 N721 1.990 . S
Li704 O764 1.956 . S
Li704 O765 1.970 . S
Li704 O766 1.961 . S
Li705 N729 1.990 . S
Li705 O764 1.970 . S
Li705 O765 1.956 . S
Li705 O767 1.961 . S
Li706 N751 1.990 . S
Li706 O764 1.961 . S
Li706 O766 1.956 . S
Li706 O767 1.970 . S
Li707 N757 1.990 . S
Li707 O765 1.961 . S
Li707 O766 1.970 . S
Li707 O767 1.956 . S
C708 C710 1.348 . S
C708 C711 1.356 . S
C708 O764 1.325 . S
N709 C712 1.314 . S
N709 C713 1.279 . S
C710 C708 1.348 . S
C710 C712 1.353 . S
C710 H768 0.929 . S
C711 C708 1.356 . S
C711 C713 1.358 . S
C711 H769 0.930 . S
C712 N709 1.314 . S
C712 C710 1.353 . S
C712 H770 0.930 . S
C713 N709 1.279 . S
C713 C711 1.358 . S
C713 H771 0.930 . S
C714 C717 1.348 . S
C714 C718 1.356 . S
C714 O765 1.325 . S
C715 N716 1.279 . S
C715 C718 1.358 . S
C715 H772 0.930 . S
N716 C715 1.279 . S
N716 C719 1.314 . S
C717 C714 1.348 . S
C717 C719 1.353 . S
C717 H773 0.929 . S
C718 C714 1.356 . S
C718 C715 1.358 . S
C718 H774 0.930 . S
C719 N716 1.314 . S
C719 C717 1.353 . S
C719 H775 0.930 . S
C720 N721 1.314 . S
C720 C725 1.353 . S
C720 H726 0.930 . S
N721 Li704 1.990 . S
N721 C720 1.314 . S
N721 C723 1.279 . S
C722 C723 1.358 . S
C722 C724 1.356 . S
C722 H776 0.930 . S
C723 N721 1.279 . S
C723 C722 1.358 . S
C723 H727 0.930 . S
C724 C722 1.356 . S
C724 C725 1.348 . S
C725 C720 1.353 . S
C725 C724 1.348 . S
C725 H777 0.929 . S
H726 C720 0.930 . S
H727 C723 0.930 . S
C728 N729 1.314 . S
C728 C730 1.353 . S
C728 H734 0.930 . S
N729 Li705 1.990 . S
N729 C728 1.314 . S
N729 C732 1.279 . S
C730 C728 1.353 . S
C730 C733 1.348 . S
C730 H778 0.929 . S
C731 C732 1.358 . S
C731 C733 1.356 . S
C731 H779 0.930 . S
C732 N729 1.279 . S
C732 C731 1.358 . S
C732 H735 0.930 . S
C733 C730 1.348 . S
C733 C731 1.356 . S
H734 C728 0.930 . S
H735 C732 0.930 . S
C736 C738 1.348 . S
C736 C739 1.356 . S
C736 O766 1.325 . S
N737 C740 1.314 . S
N737 C741 1.279 . S
C738 C736 1.348 . S
C738 C740 1.353 . S
C738 H780 0.929 . S
C739 C736 1.356 . S
C739 C741 1.358 . S
C739 H781 0.930 . S
C740 N737 1.314 . S
C740 C738 1.353 . S
C740 H782 0.930 . S
C741 N737 1.279 . S
C741 C739 1.358 . S
C741 H783 0.930 . S
C742 C743 1.348 . S
C742 C744 1.356 . S
C742 O767 1.325 . S
C743 C742 1.348 . S
C743 C745 1.353 . S
C743 H784 0.929 . S
C744 C742 1.356 . S
C744 C746 1.358 . S
C744 H785 0.930 . S
C745 C743 1.353 . S
C745 N747 1.314 . S
C745 H786 0.930 . S
C746 C744 1.358 . S
C746 N747 1.279 . S
C746 H787 0.930 . S
N747 C745 1.314 . S
N747 C746 1.279 . S
C748 C750 1.353 . S
C748 N751 1.314 . S
C748 H754 0.930 . S
C749 N751 1.279 . S
C749 C752 1.358 . S
C749 H755 0.930 . S
C750 C748 1.353 . S
C750 C753 1.348 . S
C750 H788 0.929 . S
N751 Li706 1.990 . S
N751 C748 1.314 . S
N751 C749 1.279 . S
C752 C749 1.358 . S
C752 C753 1.356 . S
C752 H789 0.930 . S
C753 C750 1.348 . S
C753 C752 1.356 . S
H754 C748 0.930 . S
H755 C749 0.930 . S
C756 N757 1.314 . S
C756 C758 1.353 . S
C756 H762 0.930 . S
N757 Li707 1.990 . S
N757 C756 1.314 . S
N757 C760 1.279 . S
C758 C756 1.353 . S
C758 C761 1.348 . S
C758 H790 0.929 . S
C759 C760 1.358 . S
C759 C761 1.356 . S
C759 H791 0.930 . S
C760 N757 1.279 . S
C760 C759 1.358 . S
C760 H763 0.930 . S
C761 C758 1.348 . S
C761 C759 1.356 . S
H762 C756 0.930 . S
H763 C760 0.930 . S
O764 Li704 1.956 . S
O764 Li705 1.970 . S
O764 Li706 1.961 . S
O764 C708 1.325 . S
O765 Li704 1.970 . S
O765 Li705 1.956 . S
O765 Li707 1.961 . S
O765 C714 1.325 . S
O766 Li704 1.961 . S
O766 Li706 1.956 . S
O766 Li707 1.970 . S
O766 C736 1.325 . S
O767 Li705 1.961 . S
O767 Li706 1.970 . S
O767 Li707 1.956 . S
O767 C742 1.325 . S
H768 C710 0.929 . S
H769 C711 0.930 . S
H770 C712 0.930 . S
H771 C713 0.930 . S
H772 C715 0.930 . S
H773 C717 0.929 . S
H774 C718 0.930 . S
H775 C719 0.930 . S
H776 C722 0.930 . S
H777 C725 0.929 . S
H778 C730 0.929 . S
H779 C731 0.930 . S
H780 C738 0.929 . S
H781 C739 0.930 . S
H782 C740 0.930 . S
H783 C741 0.930 . S
H784 C743 0.929 . S
H785 C744 0.930 . S
H786 C745 0.930 . S
H787 C746 0.930 . S
H788 C750 0.929 . S
H789 C752 0.930 . S
H790 C758 0.929 . S
H791 C759 0.930 . S
Li792 N809 1.990 . S
Li792 O852 1.956 . S
Li792 O853 1.970 . S
Li792 O854 1.961 . S
Li793 N817 1.990 . S
Li793 O852 1.970 . S
Li793 O853 1.956 . S
Li793 O855 1.961 . S
Li794 N839 1.990 . S
Li794 O852 1.961 . S
Li794 O854 1.956 . S
Li794 O855 1.970 . S
Li795 N845 1.990 . S
Li795 O853 1.961 . S
Li795 O854 1.970 . S
Li795 O855 1.956 . S
C796 C798 1.348 . S
C796 C799 1.356 . S
C796 O852 1.325 . S
N797 C800 1.314 . S
N797 C801 1.279 . S
C798 C796 1.348 . S
C798 C800 1.353 . S
C798 H856 0.929 . S
C799 C796 1.356 . S
C799 C801 1.358 . S
C799 H857 0.930 . S
C800 N797 1.314 . S
C800 C798 1.353 . S
C800 H858 0.930 . S
C801 N797 1.279 . S
C801 C799 1.358 . S
C801 H859 0.930 . S
C802 C805 1.348 . S
C802 C806 1.356 . S
C802 O853 1.325 . S
C803 N804 1.279 . S
C803 C806 1.358 . S
C803 H860 0.930 . S
N804 C803 1.279 . S
N804 C807 1.314 . S
C805 C802 1.348 . S
C805 C807 1.353 . S
C805 H861 0.929 . S
C806 C802 1.356 . S
C806 C803 1.358 . S
C806 H862 0.930 . S
C807 N804 1.314 . S
C807 C805 1.353 . S
C807 H863 0.930 . S
C808 N809 1.314 . S
C808 C813 1.353 . S
C808 H814 0.930 . S
N809 Li792 1.990 . S
N809 C808 1.314 . S
N809 C811 1.279 . S
C810 C811 1.358 . S
C810 C812 1.356 . S
C810 H864 0.930 . S
C811 N809 1.279 . S
C811 C810 1.358 . S
C811 H815 0.930 . S
C812 C810 1.356 . S
C812 C813 1.348 . S
C813 C808 1.353 . S
C813 C812 1.348 . S
C813 H865 0.929 . S
H814 C808 0.930 . S
H815 C811 0.930 . S
C816 N817 1.314 . S
C816 C818 1.353 . S
C816 H822 0.930 . S
N817 Li793 1.990 . S
N817 C816 1.314 . S
N817 C820 1.279 . S
C818 C816 1.353 . S
C818 C821 1.348 . S
C818 H866 0.929 . S
C819 C820 1.358 . S
C819 C821 1.356 . S
C819 H867 0.930 . S
C820 N817 1.279 . S
C820 C819 1.358 . S
C820 H823 0.930 . S
C821 C818 1.348 . S
C821 C819 1.356 . S
H822 C816 0.930 . S
H823 C820 0.930 . S
C824 C826 1.348 . S
C824 C827 1.356 . S
C824 O854 1.325 . S
N825 C828 1.314 . S
N825 C829 1.279 . S
C826 C824 1.348 . S
C826 C828 1.353 . S
C826 H868 0.929 . S
C827 C824 1.356 . S
C827 C829 1.358 . S
C827 H869 0.930 . S
C828 N825 1.314 . S
C828 C826 1.353 . S
C828 H870 0.930 . S
C829 N825 1.279 . S
C829 C827 1.358 . S
C829 H871 0.930 . S
C830 C831 1.348 . S
C830 C832 1.356 . S
C830 O855 1.325 . S
C831 C830 1.348 . S
C831 C833 1.353 . S
C831 H872 0.929 . S
C832 C830 1.356 . S
C832 C834 1.358 . S
C832 H873 0.930 . S
C833 C831 1.353 . S
C833 N835 1.314 1_545 S
C833 H874 0.930 1_545 S
C834 C832 1.358 . S
C834 N835 1.279 1_545 S
C834 H875 0.930 . S
N835 C833 1.314 1_565 S
N835 C834 1.279 1_565 S
C836 C838 1.353 . S
C836 N839 1.314 . S
C836 H842 0.930 . S
C837 N839 1.279 . S
C837 C840 1.358 . S
C837 H843 0.930 . S
C838 C836 1.353 . S
C838 C841 1.348 . S
C838 H876 0.929 . S
N839 Li794 1.990 . S
N839 C836 1.314 . S
N839 C837 1.279 . S
C840 C837 1.358 . S
C840 C841 1.356 . S
C840 H877 0.930 . S
C841 C838 1.348 . S
C841 C840 1.356 . S
H842 C836 0.930 . S
H843 C837 0.930 . S
C844 N845 1.314 . S
C844 C846 1.353 . S
C844 H850 0.930 . S
N845 Li795 1.990 . S
N845 C844 1.314 . S
N845 C848 1.279 . S
C846 C844 1.353 . S
C846 C849 1.348 . S
C846 H878 0.929 . S
C847 C848 1.358 . S
C847 C849 1.356 . S
C847 H879 0.930 . S
C848 N845 1.279 . S
C848 C847 1.358 . S
C848 H851 0.930 . S
C849 C846 1.348 . S
C849 C847 1.356 . S
H850 C844 0.930 . S
H851 C848 0.930 . S
O852 Li792 1.956 . S
O852 Li793 1.970 . S
O852 Li794 1.961 . S
O852 C796 1.325 . S
O853 Li792 1.970 . S
O853 Li793 1.956 . S
O853 Li795 1.961 . S
O853 C802 1.325 . S
O854 Li792 1.961 . S
O854 Li794 1.956 . S
O854 Li795 1.970 . S
O854 C824 1.325 . S
O855 Li793 1.961 . S
O855 Li794 1.970 . S
O855 Li795 1.956 . S
O855 C830 1.325 . S
H856 C798 0.929 . S
H857 C799 0.930 . S
H858 C800 0.930 . S
H859 C801 0.930 . S
H860 C803 0.930 . S
H861 C805 0.929 . S
H862 C806 0.930 . S
H863 C807 0.930 . S
H864 C810 0.930 . S
H865 C813 0.929 . S
H866 C818 0.929 . S
H867 C819 0.930 . S
H868 C826 0.929 . S
H869 C827 0.930 . S
H870 C828 0.930 . S
H871 C829 0.930 . S
H872 C831 0.929 . S
H873 C832 0.930 . S
H874 C833 0.930 1_565 S
H875 C834 0.930 . S
H876 C838 0.929 . S
H877 C840 0.930 . S
H878 C846 0.929 . S
H879 C847 0.930 . S
Li880 N897 1.990 . S
Li880 O940 1.956 . S
Li880 O941 1.970 . S
Li880 O942 1.961 . S
Li881 N905 1.990 . S
Li881 O940 1.970 . S
Li881 O941 1.956 . S
Li881 O943 1.961 . S
Li882 N927 1.990 . S
Li882 O940 1.961 . S
Li882 O942 1.956 . S
Li882 O943 1.970 . S
Li883 N933 1.990 . S
Li883 O941 1.961 . S
Li883 O942 1.970 . S
Li883 O943 1.956 . S
C884 C886 1.348 . S
C884 C887 1.356 . S
C884 O940 1.325 . S
N885 C888 1.314 . S
N885 C889 1.279 . S
C886 C884 1.348 . S
C886 C888 1.353 . S
C886 H944 0.929 . S
C887 C884 1.356 . S
C887 C889 1.358 . S
C887 H945 0.930 . S
C888 N885 1.314 . S
C888 C886 1.353 . S
C888 H946 0.930 . S
C889 N885 1.279 . S
C889 C887 1.358 . S
C889 H947 0.930 . S
C890 C893 1.348 . S
C890 C894 1.356 . S
C890 O941 1.325 . S
C891 N892 1.279 . S
C891 C894 1.358 . S
C891 H948 0.930 . S
N892 C891 1.279 . S
N892 C895 1.314 . S
C893 C890 1.348 . S
C893 C895 1.353 . S
C893 H949 0.929 . S
C894 C890 1.356 . S
C894 C891 1.358 . S
C894 H950 0.930 . S
C895 N892 1.314 . S
C895 C893 1.353 . S
C895 H951 0.930 . S
C896 N897 1.314 . S
C896 C901 1.353 . S
C896 H902 0.930 . S
N897 Li880 1.990 . S
N897 C896 1.314 . S
N897 C899 1.279 . S
C898 C899 1.358 . S
C898 C900 1.356 . S
C898 H952 0.930 . S
C899 N897 1.279 . S
C899 C898 1.358 . S
C899 H903 0.930 . S
C900 C898 1.356 . S
C900 C901 1.348 . S
C901 C896 1.353 . S
C901 C900 1.348 . S
C901 H953 0.929 . S
H902 C896 0.930 . S
H903 C899 0.930 . S
C904 N905 1.314 . S
C904 C906 1.353 . S
C904 H910 0.930 . S
N905 Li881 1.990 . S
N905 C904 1.314 . S
N905 C908 1.279 . S
C906 C904 1.353 . S
C906 C909 1.348 . S
C906 H954 0.929 . S
C907 C908 1.358 . S
C907 C909 1.356 . S
C907 H955 0.930 . S
C908 N905 1.279 . S
C908 C907 1.358 . S
C908 H911 0.930 . S
C909 C906 1.348 . S
C909 C907 1.356 . S
H910 C904 0.930 . S
H911 C908 0.930 . S
C912 C914 1.348 . S
C912 C915 1.356 . S
C912 O942 1.325 . S
N913 C916 1.314 . S
N913 C917 1.279 . S
C914 C912 1.348 . S
C914 C916 1.353 . S
C914 H956 0.929 . S
C915 C912 1.356 . S
C915 C917 1.358 . S
C915 H957 0.930 . S
C916 N913 1.314 . S
C916 C914 1.353 . S
C916 H958 0.930 . S
C917 N913 1.279 . S
C917 C915 1.358 . S
C917 H959 0.930 . S
C918 C919 1.348 . S
C918 C920 1.356 . S
C918 O943 1.325 . S
C919 C918 1.348 . S
C919 C921 1.353 . S
C919 H960 0.929 . S
C920 C918 1.356 . S
C920 C922 1.358 . S
C920 H961 0.930 . S
C921 C919 1.353 . S
C921 N923 1.314 . S
C921 H962 0.930 . S
C922 C920 1.358 . S
C922 N923 1.279 . S
C922 H963 0.930 . S
N923 C921 1.314 . S
N923 C922 1.279 . S
C924 C926 1.353 . S
C924 N927 1.314 . S
C924 H930 0.930 . S
C925 N927 1.279 . S
C925 C928 1.358 . S
C925 H931 0.930 . S
C926 C924 1.353 . S
C926 C929 1.348 . S
C926 H964 0.929 . S
N927 Li882 1.990 . S
N927 C924 1.314 . S
N927 C925 1.279 . S
C928 C925 1.358 . S
C928 C929 1.356 . S
C928 H965 0.930 . S
C929 C926 1.348 . S
C929 C928 1.356 . S
H930 C924 0.930 . S
H931 C925 0.930 . S
C932 N933 1.314 . S
C932 C934 1.353 . S
C932 H938 0.930 . S
N933 Li883 1.990 . S
N933 C932 1.314 . S
N933 C936 1.279 . S
C934 C932 1.353 . S
C934 C937 1.348 . S
C934 H966 0.929 . S
C935 C936 1.358 . S
C935 C937 1.356 . S
C935 H967 0.930 . S
C936 N933 1.279 . S
C936 C935 1.358 . S
C936 H939 0.930 . S
C937 C934 1.348 . S
C937 C935 1.356 . S
H938 C932 0.930 . S
H939 C936 0.930 . S
O940 Li880 1.956 . S
O940 Li881 1.970 . S
O940 Li882 1.961 . S
O940 C884 1.325 . S
O941 Li880 1.970 . S
O941 Li881 1.956 . S
O941 Li883 1.961 . S
O941 C890 1.325 . S
O942 Li880 1.961 . S
O942 Li882 1.956 . S
O942 Li883 1.970 . S
O942 C912 1.325 . S
O943 Li881 1.961 . S
O943 Li882 1.970 . S
O943 Li883 1.956 . S
O943 C918 1.325 . S
H944 C886 0.929 . S
H945 C887 0.930 . S
H946 C888 0.930 . S
H947 C889 0.930 . S
H948 C891 0.930 . S
H949 C893 0.929 . S
H950 C894 0.930 . S
H951 C895 0.930 . S
H952 C898 0.930 . S
H953 C901 0.929 . S
H954 C906 0.929 . S
H955 C907 0.930 . S
H956 C914 0.929 . S
H957 C915 0.930 . S
H958 C916 0.930 . S
H959 C917 0.930 . S
H960 C919 0.929 . S
H961 C920 0.930 . S
H962 C921 0.930 . S
H963 C922 0.930 . S
H964 C926 0.929 . S
H965 C928 0.930 . S
H966 C934 0.929 . S
H967 C935 0.930 . S
Li968 N985 1.990 . S
Li968 O1028 1.956 . S
Li968 O1029 1.970 . S
Li968 O1030 1.961 . S
Li969 N993 1.990 . S
Li969 O1028 1.970 . S
Li969 O1029 1.956 . S
Li969 O1031 1.961 . S
Li970 N1015 1.990 . S
Li970 O1028 1.961 . S
Li970 O1030 1.956 . S
Li970 O1031 1.970 . S
Li971 N1021 1.990 . S
Li971 O1029 1.961 . S
Li971 O1030 1.970 . S
Li971 O1031 1.956 . S
C972 C974 1.348 . S
C972 C975 1.356 . S
C972 O1028 1.325 . S
N973 C976 1.314 . S
N973 C977 1.279 . S
C974 C972 1.348 . S
C974 C976 1.353 . S
C974 H1032 0.929 . S
C975 C972 1.356 . S
C975 C977 1.358 . S
C975 H1033 0.930 . S
C976 N973 1.314 . S
C976 C974 1.353 . S
C976 H1034 0.930 . S
C977 N973 1.279 . S
C977 C975 1.358 . S
C977 H1035 0.930 . S
C978 C981 1.348 . S
C978 C982 1.356 . S
C978 O1029 1.325 . S
C979 N980 1.279 1_565 S
C979 C982 1.358 . S
C979 H1036 0.930 . S
N980 C979 1.279 1_545 S
N980 C983 1.314 1_545 S
C981 C978 1.348 . S
C981 C983 1.353 . S
C981 H1037 0.929 . S
C982 C978 1.356 . S
C982 C979 1.358 . S
C982 H1038 0.930 . S
C983 N980 1.314 1_565 S
C983 C981 1.353 . S
C983 H1039 0.930 1_565 S
C984 N985 1.314 . S
C984 C989 1.353 . S
C984 H990 0.930 . S
N985 Li968 1.990 . S
N985 C984 1.314 . S
N985 C987 1.279 . S
C986 C987 1.358 . S
C986 C988 1.356 . S
C986 H1040 0.930 . S
C987 N985 1.279 . S
C987 C986 1.358 . S
C987 H991 0.930 . S
C988 C986 1.356 . S
C988 C989 1.348 . S
C989 C984 1.353 . S
C989 C988 1.348 . S
C989 H1041 0.929 . S
H990 C984 0.930 . S
H991 C987 0.930 . S
C992 N993 1.314 . S
C992 C994 1.353 . S
C992 H998 0.930 . S
N993 Li969 1.990 . S
N993 C992 1.314 . S
N993 C996 1.279 . S
C994 C992 1.353 . S
C994 C997 1.348 . S
C994 H1042 0.929 . S
C995 C996 1.358 . S
C995 C997 1.356 . S
C995 H1043 0.930 . S
C996 N993 1.279 . S
C996 C995 1.358 . S
C996 H999 0.930 . S
C997 C994 1.348 . S
C997 C995 1.356 . S
H998 C992 0.930 . S
H999 C996 0.930 . S
C1000 C1002 1.348 . S
C1000 C1003 1.356 . S
C1000 O1030 1.325 . S
N1001 C1004 1.314 . S
N1001 C1005 1.279 . S
C1002 C1000 1.348 . S
C1002 C1004 1.353 . S
C1002 H1044 0.929 . S
C1003 C1000 1.356 . S
C1003 C1005 1.358 . S
C1003 H1045 0.930 . S
C1004 N1001 1.314 . S
C1004 C1002 1.353 . S
C1004 H1046 0.930 . S
C1005 N1001 1.279 . S
C1005 C1003 1.358 . S
C1005 H1047 0.930 . S
C1006 C1007 1.348 . S
C1006 C1008 1.356 . S
C1006 O1031 1.325 . S
C1007 C1006 1.348 . S
C1007 C1009 1.353 . S
C1007 H1048 0.929 . S
C1008 C1006 1.356 . S
C1008 C1010 1.358 . S
C1008 H1049 0.930 . S
C1009 C1007 1.353 . S
C1009 N1011 1.314 . S
C1009 H1050 0.930 . S
C1010 C1008 1.358 . S
C1010 N1011 1.279 . S
C1010 H1051 0.930 . S
N1011 C1009 1.314 . S
N1011 C1010 1.279 . S
C1012 C1014 1.353 . S
C1012 N1015 1.314 . S
C1012 H1018 0.930 . S
C1013 N1015 1.279 . S
C1013 C1016 1.358 . S
C1013 H1019 0.930 . S
C1014 C1012 1.353 . S
C1014 C1017 1.348 . S
C1014 H1052 0.929 . S
N1015 Li970 1.990 . S
N1015 C1012 1.314 . S
N1015 C1013 1.279 . S
C1016 C1013 1.358 . S
C1016 C1017 1.356 . S
C1016 H1053 0.930 . S
C1017 C1014 1.348 . S
C1017 C1016 1.356 . S
H1018 C1012 0.930 . S
H1019 C1013 0.930 . S
C1020 N1021 1.314 . S
C1020 C1022 1.353 . S
C1020 H1026 0.930 . S
N1021 Li971 1.990 . S
N1021 C1020 1.314 . S
N1021 C1024 1.279 . S
C1022 C1020 1.353 . S
C1022 C1025 1.348 . S
C1022 H1054 0.929 . S
C1023 C1024 1.358 . S
C1023 C1025 1.356 . S
C1023 H1055 0.930 . S
C1024 N1021 1.279 . S
C1024 C1023 1.358 . S
C1024 H1027 0.930 . S
C1025 C1022 1.348 . S
C1025 C1023 1.356 . S
H1026 C1020 0.930 . S
H1027 C1024 0.930 . S
O1028 Li968 1.956 . S
O1028 Li969 1.970 . S
O1028 Li970 1.961 . S
O1028 C972 1.325 . S
O1029 Li968 1.970 . S
O1029 Li969 1.956 . S
O1029 Li971 1.961 . S
O1029 C978 1.325 . S
O1030 Li968 1.961 . S
O1030 Li970 1.956 . S
O1030 Li971 1.970 . S
O1030 C1000 1.325 . S
O1031 Li969 1.961 . S
O1031 Li970 1.970 . S
O1031 Li971 1.956 . S
O1031 C1006 1.325 . S
H1032 C974 0.929 . S
H1033 C975 0.930 . S
H1034 C976 0.930 . S
H1035 C977 0.930 . S
H1036 C979 0.930 . S
H1037 C981 0.929 . S
H1038 C982 0.930 . S
H1039 C983 0.930 1_545 S
H1040 C986 0.930 . S
H1041 C989 0.929 . S
H1042 C994 0.929 . S
H1043 C995 0.930 . S
H1044 C1002 0.929 . S
H1045 C1003 0.930 . S
H1046 C1004 0.930 . S
H1047 C1005 0.930 . S
H1048 C1007 0.929 . S
H1049 C1008 0.930 . S
H1050 C1009 0.930 . S
H1051 C1010 0.930 . S
H1052 C1014 0.929 . S
H1053 C1016 0.930 . S
H1054 C1022 0.929 . S
H1055 C1023 0.930 . S
Li1056 N1073 1.990 . S
Li1056 O1116 1.956 . S
Li1056 O1117 1.970 . S
Li1056 O1118 1.961 . S
Li1057 N1081 1.990 . S
Li1057 O1116 1.970 . S
Li1057 O1117 1.956 . S
Li1057 O1119 1.961 . S
Li1058 N1103 1.990 . S
Li1058 O1116 1.961 . S
Li1058 O1118 1.956 . S
Li1058 O1119 1.970 . S
Li1059 N1109 1.990 . S
Li1059 O1117 1.961 . S
Li1059 O1118 1.970 . S
Li1059 O1119 1.956 . S
C1060 C1062 1.348 . S
C1060 C1063 1.356 . S
C1060 O1116 1.325 . S
N1061 C1064 1.314 . S
N1061 C1065 1.279 . S
C1062 C1060 1.348 . S
C1062 C1064 1.353 . S
C1062 H1120 0.929 . S
C1063 C1060 1.356 . S
C1063 C1065 1.358 . S
C1063 H1121 0.930 . S
C1064 N1061 1.314 . S
C1064 C1062 1.353 . S
C1064 H1122 0.930 . S
C1065 N1061 1.279 . S
C1065 C1063 1.358 . S
C1065 H1123 0.930 . S
C1066 C1069 1.348 . S
C1066 C1070 1.356 . S
C1066 O1117 1.325 . S
C1067 N1068 1.279 . S
C1067 C1070 1.358 . S
C1067 H1124 0.930 . S
N1068 C1067 1.279 . S
N1068 C1071 1.314 . S
C1069 C1066 1.348 . S
C1069 C1071 1.353 . S
C1069 H1125 0.929 . S
C1070 C1066 1.356 . S
C1070 C1067 1.358 . S
C1070 H1126 0.930 . S
C1071 N1068 1.314 . S
C1071 C1069 1.353 . S
C1071 H1127 0.930 . S
C1072 N1073 1.314 . S
C1072 C1077 1.353 . S
C1072 H1078 0.930 . S
N1073 Li1056 1.990 . S
N1073 C1072 1.314 . S
N1073 C1075 1.279 . S
C1074 C1075 1.358 . S
C1074 C1076 1.356 . S
C1074 H1128 0.930 . S
C1075 N1073 1.279 . S
C1075 C1074 1.358 . S
C1075 H1079 0.930 . S
C1076 C1074 1.356 . S
C1076 C1077 1.348 . S
C1077 C1072 1.353 . S
C1077 C1076 1.348 . S
C1077 H1129 0.929 . S
H1078 C1072 0.930 . S
H1079 C1075 0.930 . S
C1080 N1081 1.314 . S
C1080 C1082 1.353 . S
C1080 H1086 0.930 . S
N1081 Li1057 1.990 . S
N1081 C1080 1.314 . S
N1081 C1084 1.279 . S
C1082 C1080 1.353 . S
C1082 C1085 1.348 . S
C1082 H1130 0.929 . S
C1083 C1084 1.358 . S
C1083 C1085 1.356 . S
C1083 H1131 0.930 . S
C1084 N1081 1.279 . S
C1084 C1083 1.358 . S
C1084 H1087 0.930 . S
C1085 C1082 1.348 . S
C1085 C1083 1.356 . S
H1086 C1080 0.930 . S
H1087 C1084 0.930 . S
C1088 C1090 1.348 . S
C1088 C1091 1.356 . S
C1088 O1118 1.325 . S
N1089 C1092 1.314 . S
N1089 C1093 1.279 . S
C1090 C1088 1.348 . S
C1090 C1092 1.353 . S
C1090 H1132 0.929 . S
C1091 C1088 1.356 . S
C1091 C1093 1.358 . S
C1091 H1133 0.930 . S
C1092 N1089 1.314 . S
C1092 C1090 1.353 . S
C1092 H1134 0.930 . S
C1093 N1089 1.279 . S
C1093 C1091 1.358 . S
C1093 H1135 0.930 . S
C1094 C1095 1.348 . S
C1094 C1096 1.356 . S
C1094 O1119 1.325 . S
C1095 C1094 1.348 . S
C1095 C1097 1.353 . S
C1095 H1136 0.929 . S
C1096 C1094 1.356 . S
C1096 C1098 1.358 . S
C1096 H1137 0.930 . S
C1097 C1095 1.353 . S
C1097 N1099 1.314 . S
C1097 H1138 0.930 . S
C1098 C1096 1.358 . S
C1098 N1099 1.279 . S
C1098 H1139 0.930 . S
N1099 C1097 1.314 . S
N1099 C1098 1.279 . S
C1100 C1102 1.353 . S
C1100 N1103 1.314 . S
C1100 H1106 0.930 . S
C1101 N1103 1.279 . S
C1101 C1104 1.358 . S
C1101 H1107 0.930 . S
C1102 C1100 1.353 . S
C1102 C1105 1.348 . S
C1102 H1140 0.929 . S
N1103 Li1058 1.990 . S
N1103 C1100 1.314 . S
N1103 C1101 1.279 . S
C1104 C1101 1.358 . S
C1104 C1105 1.356 . S
C1104 H1141 0.930 . S
C1105 C1102 1.348 . S
C1105 C1104 1.356 . S
H1106 C1100 0.930 . S
H1107 C1101 0.930 . S
C1108 N1109 1.314 . S
C1108 C1110 1.353 . S
C1108 H1114 0.930 . S
N1109 Li1059 1.990 . S
N1109 C1108 1.314 . S
N1109 C1112 1.279 . S
C1110 C1108 1.353 . S
C1110 C1113 1.348 . S
C1110 H1142 0.929 . S
C1111 C1112 1.358 . S
C1111 C1113 1.356 . S
C1111 H1143 0.930 . S
C1112 N1109 1.279 . S
C1112 C1111 1.358 . S
C1112 H1115 0.930 . S
C1113 C1110 1.348 . S
C1113 C1111 1.356 . S
H1114 C1108 0.930 . S
H1115 C1112 0.930 . S
O1116 Li1056 1.956 . S
O1116 Li1057 1.970 . S
O1116 Li1058 1.961 . S
O1116 C1060 1.325 . S
O1117 Li1056 1.970 . S
O1117 Li1057 1.956 . S
O1117 Li1059 1.961 . S
O1117 C1066 1.325 . S
O1118 Li1056 1.961 . S
O1118 Li1058 1.956 . S
O1118 Li1059 1.970 . S
O1118 C1088 1.325 . S
O1119 Li1057 1.961 . S
O1119 Li1058 1.970 . S
O1119 Li1059 1.956 . S
O1119 C1094 1.325 . S
H1120 C1062 0.929 . S
H1121 C1063 0.930 . S
H1122 C1064 0.930 . S
H1123 C1065 0.930 . S
H1124 C1067 0.930 . S
H1125 C1069 0.929 . S
H1126 C1070 0.930 . S
H1127 C1071 0.930 . S
H1128 C1074 0.930 . S
H1129 C1077 0.929 . S
H1130 C1082 0.929 . S
H1131 C1083 0.930 . S
H1132 C1090 0.929 . S
H1133 C1091 0.930 . S
H1134 C1092 0.930 . S
H1135 C1093 0.930 . S
H1136 C1095 0.929 . S
H1137 C1096 0.930 . S
H1138 C1097 0.930 . S
H1139 C1098 0.930 . S
H1140 C1102 0.929 . S
H1141 C1104 0.930 . S
H1142 C1110 0.929 . S
H1143 C1111 0.930 . S
Li1144 N1161 1.990 . S
Li1144 O1204 1.956 . S
Li1144 O1205 1.970 . S
Li1144 O1206 1.961 . S
Li1145 N1169 1.990 . S
Li1145 O1204 1.970 . S
Li1145 O1205 1.956 . S
Li1145 O1207 1.961 . S
Li1146 N1191 1.990 . S
Li1146 O1204 1.961 . S
Li1146 O1206 1.956 . S
Li1146 O1207 1.970 . S
Li1147 N1197 1.990 . S
Li1147 O1205 1.961 . S
Li1147 O1206 1.970 . S
Li1147 O1207 1.956 . S
C1148 C1150 1.348 . S
C1148 C1151 1.356 . S
C1148 O1204 1.325 . S
N1149 C1152 1.314 . S
N1149 C1153 1.279 . S
C1150 C1148 1.348 . S
C1150 C1152 1.353 . S
C1150 H1208 0.929 . S
C1151 C1148 1.356 . S
C1151 C1153 1.358 . S
C1151 H1209 0.930 . S
C1152 N1149 1.314 . S
C1152 C1150 1.353 . S
C1152 H1210 0.930 . S
C1153 N1149 1.279 . S
C1153 C1151 1.358 . S
C1153 H1211 0.930 . S
C1154 C1157 1.348 . S
C1154 C1158 1.356 . S
C1154 O1205 1.325 . S
C1155 N1156 1.279 . S
C1155 C1158 1.358 . S
C1155 H1212 0.930 . S
N1156 C1155 1.279 . S
N1156 C1159 1.314 . S
C1157 C1154 1.348 . S
C1157 C1159 1.353 . S
C1157 H1213 0.929 . S
C1158 C1154 1.356 . S
C1158 C1155 1.358 . S
C1158 H1214 0.930 . S
C1159 N1156 1.314 . S
C1159 C1157 1.353 . S
C1159 H1215 0.930 . S
C1160 N1161 1.314 . S
C1160 C1165 1.353 . S
C1160 H1166 0.930 . S
N1161 Li1144 1.990 . S
N1161 C1160 1.314 . S
N1161 C1163 1.279 . S
C1162 C1163 1.358 . S
C1162 C1164 1.356 . S
C1162 H1216 0.930 . S
C1163 N1161 1.279 . S
C1163 C1162 1.358 . S
C1163 H1167 0.930 . S
C1164 C1162 1.356 . S
C1164 C1165 1.348 . S
C1165 C1160 1.353 . S
C1165 C1164 1.348 . S
C1165 H1217 0.929 . S
H1166 C1160 0.930 . S
H1167 C1163 0.930 . S
C1168 N1169 1.314 . S
C1168 C1170 1.353 . S
C1168 H1174 0.930 . S
N1169 Li1145 1.990 . S
N1169 C1168 1.314 . S
N1169 C1172 1.279 . S
C1170 C1168 1.353 . S
C1170 C1173 1.348 . S
C1170 H1218 0.929 . S
C1171 C1172 1.358 . S
C1171 C1173 1.356 . S
C1171 H1219 0.930 . S
C1172 N1169 1.279 . S
C1172 C1171 1.358 . S
C1172 H1175 0.930 . S
C1173 C1170 1.348 . S
C1173 C1171 1.356 . S
H1174 C1168 0.930 . S
H1175 C1172 0.930 . S
C1176 C1178 1.348 . S
C1176 C1179 1.356 . S
C1176 O1206 1.325 . S
N1177 C1180 1.314 1_565 S
N1177 C1181 1.279 1_565 S
C1178 C1176 1.348 . S
C1178 C1180 1.353 . S
C1178 H1220 0.929 . S
C1179 C1176 1.356 . S
C1179 C1181 1.358 . S
C1179 H1221 0.930 . S
C1180 N1177 1.314 1_545 S
C1180 C1178 1.353 . S
C1180 H1222 0.930 1_545 S
C1181 N1177 1.279 1_545 S
C1181 C1179 1.358 . S
C1181 H1223 0.930 . S
C1182 C1183 1.348 . S
C1182 C1184 1.356 . S
C1182 O1207 1.325 . S
C1183 C1182 1.348 . S
C1183 C1185 1.353 . S
C1183 H1224 0.929 . S
C1184 C1182 1.356 . S
C1184 C1186 1.358 . S
C1184 H1225 0.930 . S
C1185 C1183 1.353 . S
C1185 N1187 1.314 . S
C1185 H1226 0.930 . S
C1186 C1184 1.358 . S
C1186 N1187 1.279 . S
C1186 H1227 0.930 . S
N1187 C1185 1.314 . S
N1187 C1186 1.279 . S
C1188 C1190 1.353 . S
C1188 N1191 1.314 . S
C1188 H1194 0.930 . S
C1189 N1191 1.279 . S
C1189 C1192 1.358 . S
C1189 H1195 0.930 . S
C1190 C1188 1.353 . S
C1190 C1193 1.348 . S
C1190 H1228 0.929 . S
N1191 Li1146 1.990 . S
N1191 C1188 1.314 . S
N1191 C1189 1.279 . S
C1192 C1189 1.358 . S
C1192 C1193 1.356 . S
C1192 H1229 0.930 . S
C1193 C1190 1.348 . S
C1193 C1192 1.356 . S
H1194 C1188 0.930 . S
H1195 C1189 0.930 . S
C1196 N1197 1.314 . S
C1196 C1198 1.353 . S
C1196 H1202 0.930 . S
N1197 Li1147 1.990 . S
N1197 C1196 1.314 . S
N1197 C1200 1.279 . S
C1198 C1196 1.353 . S
C1198 C1201 1.348 . S
C1198 H1230 0.929 . S
C1199 C1200 1.358 . S
C1199 C1201 1.356 . S
C1199 H1231 0.930 . S
C1200 N1197 1.279 . S
C1200 C1199 1.358 . S
C1200 H1203 0.930 . S
C1201 C1198 1.348 . S
C1201 C1199 1.356 . S
H1202 C1196 0.930 . S
H1203 C1200 0.930 . S
O1204 Li1144 1.956 . S
O1204 Li1145 1.970 . S
O1204 Li1146 1.961 . S
O1204 C1148 1.325 . S
O1205 Li1144 1.970 . S
O1205 Li1145 1.956 . S
O1205 Li1147 1.961 . S
O1205 C1154 1.325 . S
O1206 Li1144 1.961 . S
O1206 Li1146 1.956 . S
O1206 Li1147 1.970 . S
O1206 C1176 1.325 . S
O1207 Li1145 1.961 . S
O1207 Li1146 1.970 . S
O1207 Li1147 1.956 . S
O1207 C1182 1.325 . S
H1208 C1150 0.929 . S
H1209 C1151 0.930 . S
H1210 C1152 0.930 . S
H1211 C1153 0.930 . S
H1212 C1155 0.930 . S
H1213 C1157 0.929 . S
H1214 C1158 0.930 . S
H1215 C1159 0.930 . S
H1216 C1162 0.930 . S
H1217 C1165 0.929 . S
H1218 C1170 0.929 . S
H1219 C1171 0.930 . S
H1220 C1178 0.929 . S
H1221 C1179 0.930 . S
H1222 C1180 0.930 1_565 S
H1223 C1181 0.930 . S
H1224 C1183 0.929 . S
H1225 C1184 0.930 . S
H1226 C1185 0.930 . S
H1227 C1186 0.930 . S
H1228 C1190 0.929 . S
H1229 C1192 0.930 . S
H1230 C1198 0.929 . S
H1231 C1199 0.930 . S
Li1232 N1249 1.990 . S
Li1232 O1292 1.956 . S
Li1232 O1293 1.970 . S
Li1232 O1294 1.961 . S
Li1233 N1257 1.990 . S
Li1233 O1292 1.970 . S
Li1233 O1293 1.956 . S
Li1233 O1295 1.961 . S
Li1234 N1279 1.990 . S
Li1234 O1292 1.961 . S
Li1234 O1294 1.956 . S
Li1234 O1295 1.970 . S
Li1235 N1285 1.990 . S
Li1235 O1293 1.961 . S
Li1235 O1294 1.970 . S
Li1235 O1295 1.956 . S
C1236 C1238 1.348 . S
C1236 C1239 1.356 . S
C1236 O1292 1.325 . S
N1237 C1240 1.314 . S
N1237 C1241 1.279 . S
C1238 C1236 1.348 . S
C1238 C1240 1.353 . S
C1238 H1296 0.929 . S
C1239 C1236 1.356 . S
C1239 C1241 1.358 . S
C1239 H1297 0.930 . S
C1240 N1237 1.314 . S
C1240 C1238 1.353 . S
C1240 H1298 0.930 . S
C1241 N1237 1.279 . S
C1241 C1239 1.358 . S
C1241 H1299 0.930 . S
C1242 C1245 1.348 . S
C1242 C1246 1.356 . S
C1242 O1293 1.325 . S
C1243 N1244 1.279 . S
C1243 C1246 1.358 . S
C1243 H1300 0.930 . S
N1244 C1243 1.279 . S
N1244 C1247 1.314 . S
C1245 C1242 1.348 . S
C1245 C1247 1.353 . S
C1245 H1301 0.929 . S
C1246 C1242 1.356 . S
C1246 C1243 1.358 . S
C1246 H1302 0.930 . S
C1247 N1244 1.314 . S
C1247 C1245 1.353 . S
C1247 H1303 0.930 . S
C1248 N1249 1.314 . S
C1248 C1253 1.353 . S
C1248 H1254 0.930 . S
N1249 Li1232 1.990 . S
N1249 C1248 1.314 . S
N1249 C1251 1.279 . S
C1250 C1251 1.358 . S
C1250 C1252 1.356 . S
C1250 H1304 0.930 . S
C1251 N1249 1.279 . S
C1251 C1250 1.358 . S
C1251 H1255 0.930 . S
C1252 C1250 1.356 . S
C1252 C1253 1.348 . S
C1253 C1248 1.353 . S
C1253 C1252 1.348 . S
C1253 H1305 0.929 . S
H1254 C1248 0.930 . S
H1255 C1251 0.930 . S
C1256 N1257 1.314 . S
C1256 C1258 1.353 . S
C1256 H1262 0.930 . S
N1257 Li1233 1.990 . S
N1257 C1256 1.314 . S
N1257 C1260 1.279 . S
C1258 C1256 1.353 . S
C1258 C1261 1.348 . S
C1258 H1306 0.929 . S
C1259 C1260 1.358 . S
C1259 C1261 1.356 . S
C1259 H1307 0.930 . S
C1260 N1257 1.279 . S
C1260 C1259 1.358 . S
C1260 H1263 0.930 . S
C1261 C1258 1.348 . S
C1261 C1259 1.356 . S
H1262 C1256 0.930 . S
H1263 C1260 0.930 . S
C1264 C1266 1.348 . S
C1264 C1267 1.356 . S
C1264 O1294 1.325 . S
N1265 C1268 1.314 . S
N1265 C1269 1.279 . S
C1266 C1264 1.348 . S
C1266 C1268 1.353 . S
C1266 H1308 0.929 . S
C1267 C1264 1.356 . S
C1267 C1269 1.358 . S
C1267 H1309 0.930 . S
C1268 N1265 1.314 . S
C1268 C1266 1.353 . S
C1268 H1310 0.930 . S
C1269 N1265 1.279 . S
C1269 C1267 1.358 . S
C1269 H1311 0.930 . S
C1270 C1271 1.348 . S
C1270 C1272 1.356 . S
C1270 O1295 1.325 . S
C1271 C1270 1.348 . S
C1271 C1273 1.353 . S
C1271 H1312 0.929 . S
C1272 C1270 1.356 . S
C1272 C1274 1.358 . S
C1272 H1313 0.930 . S
C1273 C1271 1.353 . S
C1273 N1275 1.314 . S
C1273 H1314 0.930 . S
C1274 C1272 1.358 . S
C1274 N1275 1.279 . S
C1274 H1315 0.930 . S
N1275 C1273 1.314 . S
N1275 C1274 1.279 . S
C1276 C1278 1.353 . S
C1276 N1279 1.314 . S
C1276 H1282 0.930 . S
C1277 N1279 1.279 . S
C1277 C1280 1.358 . S
C1277 H1283 0.930 . S
C1278 C1276 1.353 . S
C1278 C1281 1.348 . S
C1278 H1316 0.929 . S
N1279 Li1234 1.990 . S
N1279 C1276 1.314 . S
N1279 C1277 1.279 . S
C1280 C1277 1.358 . S
C1280 C1281 1.356 . S
C1280 H1317 0.930 . S
C1281 C1278 1.348 . S
C1281 C1280 1.356 . S
H1282 C1276 0.930 . S
H1283 C1277 0.930 . S
C1284 N1285 1.314 . S
C1284 C1286 1.353 . S
C1284 H1290 0.930 . S
N1285 Li1235 1.990 . S
N1285 C1284 1.314 . S
N1285 C1288 1.279 . S
C1286 C1284 1.353 . S
C1286 C1289 1.348 . S
C1286 H1318 0.929 . S
C1287 C1288 1.358 . S
C1287 C1289 1.356 . S
C1287 H1319 0.930 . S
C1288 N1285 1.279 . S
C1288 C1287 1.358 . S
C1288 H1291 0.930 . S
C1289 C1286 1.348 . S
C1289 C1287 1.356 . S
H1290 C1284 0.930 . S
H1291 C1288 0.930 . S
O1292 Li1232 1.956 . S
O1292 Li1233 1.970 . S
O1292 Li1234 1.961 . S
O1292 C1236 1.325 . S
O1293 Li1232 1.970 . S
O1293 Li1233 1.956 . S
O1293 Li1235 1.961 . S
O1293 C1242 1.325 . S
O1294 Li1232 1.961 . S
O1294 Li1234 1.956 . S
O1294 Li1235 1.970 . S
O1294 C1264 1.325 . S
O1295 Li1233 1.961 . S
O1295 Li1234 1.970 . S
O1295 Li1235 1.956 . S
O1295 C1270 1.325 . S
H1296 C1238 0.929 . S
H1297 C1239 0.930 . S
H1298 C1240 0.930 . S
H1299 C1241 0.930 . S
H1300 C1243 0.930 . S
H1301 C1245 0.929 . S
H1302 C1246 0.930 . S
H1303 C1247 0.930 . S
H1304 C1250 0.930 . S
H1305 C1253 0.929 . S
H1306 C1258 0.929 . S
H1307 C1259 0.930 . S
H1308 C1266 0.929 . S
H1309 C1267 0.930 . S
H1310 C1268 0.930 . S
H1311 C1269 0.930 . S
H1312 C1271 0.929 . S
H1313 C1272 0.930 . S
H1314 C1273 0.930 . S
H1315 C1274 0.930 . S
H1316 C1278 0.929 . S
H1317 C1280 0.930 . S
H1318 C1286 0.929 . S
H1319 C1287 0.930 . S
Li1320 N1337 1.990 . S
Li1320 O1380 1.956 . S
Li1320 O1381 1.970 . S
Li1320 O1382 1.961 . S
Li1321 N1345 1.990 . S
Li1321 O1380 1.970 . S
Li1321 O1381 1.956 . S
Li1321 O1383 1.961 . S
Li1322 N1367 1.990 . S
Li1322 O1380 1.961 . S
Li1322 O1382 1.956 . S
Li1322 O1383 1.970 . S
Li1323 N1373 1.990 . S
Li1323 O1381 1.961 . S
Li1323 O1382 1.970 . S
Li1323 O1383 1.956 . S
C1324 C1326 1.348 . S
C1324 C1327 1.356 . S
C1324 O1380 1.325 . S
N1325 C1328 1.314 1_545 S
N1325 C1329 1.279 1_545 S
C1326 C1324 1.348 . S
C1326 C1328 1.353 . S
C1326 H1384 0.929 . S
C1327 C1324 1.356 . S
C1327 C1329 1.358 . S
C1327 H1385 0.930 . S
C1328 N1325 1.314 1_565 S
C1328 C1326 1.353 . S
C1328 H1386 0.930 1_565 S
C1329 N1325 1.279 1_565 S
C1329 C1327 1.358 . S
C1329 H1387 0.930 . S
C1330 C1333 1.348 . S
C1330 C1334 1.356 . S
C1330 O1381 1.325 . S
C1331 N1332 1.279 . S
C1331 C1334 1.358 . S
C1331 H1388 0.930 . S
N1332 C1331 1.279 . S
N1332 C1335 1.314 . S
C1333 C1330 1.348 . S
C1333 C1335 1.353 . S
C1333 H1389 0.929 . S
C1334 C1330 1.356 . S
C1334 C1331 1.358 . S
C1334 H1390 0.930 . S
C1335 N1332 1.314 . S
C1335 C1333 1.353 . S
C1335 H1391 0.930 . S
C1336 N1337 1.314 . S
C1336 C1341 1.353 . S
C1336 H1342 0.930 . S
N1337 Li1320 1.990 . S
N1337 C1336 1.314 . S
N1337 C1339 1.279 . S
C1338 C1339 1.358 . S
C1338 C1340 1.356 . S
C1338 H1392 0.930 . S
C1339 N1337 1.279 . S
C1339 C1338 1.358 . S
C1339 H1343 0.930 . S
C1340 C1338 1.356 . S
C1340 C1341 1.348 . S
C1341 C1336 1.353 . S
C1341 C1340 1.348 . S
C1341 H1393 0.929 . S
H1342 C1336 0.930 . S
H1343 C1339 0.930 . S
C1344 N1345 1.314 . S
C1344 C1346 1.353 . S
C1344 H1350 0.930 . S
N1345 Li1321 1.990 . S
N1345 C1344 1.314 . S
N1345 C1348 1.279 . S
C1346 C1344 1.353 . S
C1346 C1349 1.348 . S
C1346 H1394 0.929 . S
C1347 C1348 1.358 . S
C1347 C1349 1.356 . S
C1347 H1395 0.930 . S
C1348 N1345 1.279 . S
C1348 C1347 1.358 . S
C1348 H1351 0.930 . S
C1349 C1346 1.348 . S
C1349 C1347 1.356 . S
H1350 C1344 0.930 . S
H1351 C1348 0.930 . S
C1352 C1354 1.348 . S
C1352 C1355 1.356 . S
C1352 O1382 1.325 . S
N1353 C1356 1.314 . S
N1353 C1357 1.279 . S
C1354 C1352 1.348 . S
C1354 C1356 1.353 . S
C1354 H1396 0.929 . S
C1355 C1352 1.356 . S
C1355 C1357 1.358 . S
C1355 H1397 0.930 . S
C1356 N1353 1.314 . S
C1356 C1354 1.353 . S
C1356 H1398 0.930 . S
C1357 N1353 1.279 . S
C1357 C1355 1.358 . S
C1357 H1399 0.930 . S
C1358 C1359 1.348 . S
C1358 C1360 1.356 . S
C1358 O1383 1.325 . S
C1359 C1358 1.348 . S
C1359 C1361 1.353 . S
C1359 H1400 0.929 . S
C1360 C1358 1.356 . S
C1360 C1362 1.358 . S
C1360 H1401 0.930 . S
C1361 C1359 1.353 . S
C1361 N1363 1.314 . S
C1361 H1402 0.930 . S
C1362 C1360 1.358 . S
C1362 N1363 1.279 . S
C1362 H1403 0.930 . S
N1363 C1361 1.314 . S
N1363 C1362 1.279 . S
C1364 C1366 1.353 . S
C1364 N1367 1.314 . S
C1364 H1370 0.930 . S
C1365 N1367 1.279 . S
C1365 C1368 1.358 . S
C1365 H1371 0.930 . S
C1366 C1364 1.353 . S
C1366 C1369 1.348 . S
C1366 H1404 0.929 . S
N1367 Li1322 1.990 . S
N1367 C1364 1.314 . S
N1367 C1365 1.279 . S
C1368 C1365 1.358 . S
C1368 C1369 1.356 . S
C1368 H1405 0.930 . S
C1369 C1366 1.348 . S
C1369 C1368 1.356 . S
H1370 C1364 0.930 . S
H1371 C1365 0.930 . S
C1372 N1373 1.314 . S
C1372 C1374 1.353 . S
C1372 H1378 0.930 . S
N1373 Li1323 1.990 . S
N1373 C1372 1.314 . S
N1373 C1376 1.279 . S
C1374 C1372 1.353 . S
C1374 C1377 1.348 . S
C1374 H1406 0.929 . S
C1375 C1376 1.358 . S
C1375 C1377 1.356 . S
C1375 H1407 0.930 . S
C1376 N1373 1.279 . S
C1376 C1375 1.358 . S
C1376 H1379 0.930 . S
C1377 C1374 1.348 . S
C1377 C1375 1.356 . S
H1378 C1372 0.930 . S
H1379 C1376 0.930 . S
O1380 Li1320 1.956 . S
O1380 Li1321 1.970 . S
O1380 Li1322 1.961 . S
O1380 C1324 1.325 . S
O1381 Li1320 1.970 . S
O1381 Li1321 1.956 . S
O1381 Li1323 1.961 . S
O1381 C1330 1.325 . S
O1382 Li1320 1.961 . S
O1382 Li1322 1.956 . S
O1382 Li1323 1.970 . S
O1382 C1352 1.325 . S
O1383 Li1321 1.961 . S
O1383 Li1322 1.970 . S
O1383 Li1323 1.956 . S
O1383 C1358 1.325 . S
H1384 C1326 0.929 . S
H1385 C1327 0.930 . S
H1386 C1328 0.930 1_545 S
H1387 C1329 0.930 . S
H1388 C1331 0.930 . S
H1389 C1333 0.929 . S
H1390 C1334 0.930 . S
H1391 C1335 0.930 . S
H1392 C1338 0.930 . S
H1393 C1341 0.929 . S
H1394 C1346 0.929 . S
H1395 C1347 0.930 . S
H1396 C1354 0.929 . S
H1397 C1355 0.930 . S
H1398 C1356 0.930 . S
H1399 C1357 0.930 . S
H1400 C1359 0.929 . S
H1401 C1360 0.930 . S
H1402 C1361 0.930 . S
H1403 C1362 0.930 . S
H1404 C1366 0.929 . S
H1405 C1368 0.930 . S
H1406 C1374 0.929 . S
H1407 C1375 0.930 . S
H1408 C1414 0.930 . S
H1409 C1418 0.930 . S
H1410 C1423 0.929 . S
H1411 C1421 0.929 . S
H1412 C1416 0.929 . S
H1413 C1422 0.929 . S
C1414 H1408 0.930 . S
C1414 C1415 1.367 . S
C1414 C1422 1.378 . S
C1415 C1414 1.367 . S
C1415 C1423 1.433 . S
C1416 H1412 0.929 . S
C1416 C1418 1.378 . S
C1416 C1420 1.350 . S
C1417 C1420 1.463 . S
C1417 C1422 1.350 . S
C1417 N1425 1.427 . S
C1418 H1409 0.930 . S
C1418 C1416 1.378 . S
C1418 C1419 1.367 . S
C1419 C1418 1.367 . S
C1419 C1421 1.433 . S
C1420 C1416 1.350 . S
C1420 C1417 1.463 . S
C1420 N1424 1.427 . S
C1421 H1411 0.929 . S
C1421 C1419 1.433 . S
C1421 N1424 1.384 . S
C1422 H1413 0.929 . S
C1422 C1414 1.378 . S
C1422 C1417 1.350 . S
C1423 H1410 0.929 . S
C1423 C1415 1.433 . S
C1423 N1425 1.384 . S
N1424 C1420 1.427 . S
N1424 C1421 1.384 . S
N1425 C1417 1.427 . S
N1425 C1423 1.384 . S
H1426 C1432 0.930 . S
H1427 C1436 0.930 . S
H1428 C1441 0.929 . S
H1429 C1439 0.929 . S
H1430 C1434 0.929 . S
H1431 C1440 0.929 . S
C1432 H1426 0.930 . S
C1432 C1433 1.367 . S
C1432 C1440 1.378 . S
C1433 C1432 1.367 . S
C1433 C1441 1.433 . S
C1434 H1430 0.929 . S
C1434 C1436 1.378 . S
C1434 C1438 1.350 . S
C1435 C1438 1.463 . S
C1435 C1440 1.350 . S
C1435 N1443 1.427 . S
C1436 H1427 0.930 . S
C1436 C1434 1.378 . S
C1436 C1437 1.367 . S
C1437 C1436 1.367 . S
C1437 C1439 1.433 . S
C1438 C1434 1.350 . S
C1438 C1435 1.463 . S
C1438 N1442 1.427 . S
C1439 H1429 0.929 . S
C1439 C1437 1.433 . S
C1439 N1442 1.384 . S
C1440 H1431 0.929 . S
C1440 C1432 1.378 . S
C1440 C1435 1.350 . S
C1441 H1428 0.929 . S
C1441 C1433 1.433 . S
C1441 N1443 1.384 . S
N1442 C1438 1.427 . S
N1442 C1439 1.384 . S
N1443 C1435 1.427 . S
N1443 C1441 1.384 . S
H1444 C1450 0.930 . S
H1445 C1454 0.930 . S
H1446 C1459 0.929 . S
H1447 C1457 0.929 . S
H1448 C1452 0.929 . S
H1449 C1458 0.929 . S
C1450 H1444 0.930 . S
C1450 C1451 1.367 . S
C1450 C1458 1.378 . S
C1451 C1450 1.367 . S
C1451 C1459 1.433 . S
C1452 H1448 0.929 . S
C1452 C1454 1.378 . S
C1452 C1456 1.350 . S
C1453 C1456 1.463 . S
C1453 C1458 1.350 . S
C1453 N1461 1.427 . S
C1454 H1445 0.930 . S
C1454 C1452 1.378 . S
C1454 C1455 1.367 . S
C1455 C1454 1.367 . S
C1455 C1457 1.433 . S
C1456 C1452 1.350 . S
C1456 C1453 1.463 . S
C1456 N1460 1.427 . S
C1457 H1447 0.929 . S
C1457 C1455 1.433 . S
C1457 N1460 1.384 . S
C1458 H1449 0.929 . S
C1458 C1450 1.378 . S
C1458 C1453 1.350 . S
C1459 H1446 0.929 . S
C1459 C1451 1.433 . S
C1459 N1461 1.384 . S
N1460 C1456 1.427 . S
N1460 C1457 1.384 . S
N1461 C1453 1.427 . S
N1461 C1459 1.384 . S
H1462 C1468 0.930 . S
H1463 C1472 0.930 . S
H1464 C1477 0.929 . S
H1465 C1475 0.929 . S
H1466 C1470 0.929 . S
H1467 C1476 0.929 . S
C1468 H1462 0.930 . S
C1468 C1469 1.367 . S
C1468 C1476 1.378 . S
C1469 C1468 1.367 . S
C1469 C1477 1.433 . S
C1470 H1466 0.929 . S
C1470 C1472 1.378 . S
C1470 C1474 1.350 . S
C1471 C1474 1.463 1_455 S
C1471 C1476 1.350 . S
C1471 N1479 1.427 . S
C1472 H1463 0.930 . S
C1472 C1470 1.378 . S
C1472 C1473 1.367 . S
C1473 C1472 1.367 . S
C1473 C1475 1.433 . S
C1474 C1470 1.350 . S
C1474 C1471 1.463 1_655 S
C1474 N1478 1.427 . S
C1475 H1465 0.929 . S
C1475 C1473 1.433 . S
C1475 N1478 1.384 . S
C1476 H1467 0.929 . S
C1476 C1468 1.378 . S
C1476 C1471 1.350 . S
C1477 H1464 0.929 . S
C1477 C1469 1.433 . S
C1477 N1479 1.384 . S
N1478 C1474 1.427 . S
N1478 C1475 1.384 . S
N1479 C1471 1.427 . S
N1479 C1477 1.384 . S
H1480 C1486 0.930 . S
H1481 C1490 0.930 . S
H1482 C1495 0.929 . S
H1483 C1493 0.929 . S
H1484 C1488 0.929 . S
H1485 C1494 0.929 . S
C1486 H1480 0.930 . S
C1486 C1487 1.367 . S
C1486 C1494 1.378 . S
C1487 C1486 1.367 . S
C1487 C1495 1.433 . S
C1488 H1484 0.929 . S
C1488 C1490 1.378 . S
C1488 C1492 1.350 . S
C1489 C1492 1.463 . S
C1489 C1494 1.350 . S
C1489 N1497 1.427 . S
C1490 H1481 0.930 . S
C1490 C1488 1.378 . S
C1490 C1491 1.367 . S
C1491 C1490 1.367 . S
C1491 C1493 1.433 . S
C1492 C1488 1.350 . S
C1492 C1489 1.463 . S
C1492 N1496 1.427 . S
C1493 H1483 0.929 . S
C1493 C1491 1.433 . S
C1493 N1496 1.384 . S
C1494 H1485 0.929 . S
C1494 C1486 1.378 . S
C1494 C1489 1.350 . S
C1495 H1482 0.929 . S
C1495 C1487 1.433 . S
C1495 N1497 1.384 . S
N1496 C1492 1.427 . S
N1496 C1493 1.384 . S
N1497 C1489 1.427 . S
N1497 C1495 1.384 . S
H1498 C1504 0.930 . S
H1499 C1508 0.930 . S
H1500 C1513 0.929 . S
H1501 C1511 0.929 . S
H1502 C1506 0.929 . S
H1503 C1512 0.929 . S
C1504 H1498 0.930 . S
C1504 C1505 1.367 . S
C1504 C1512 1.378 . S
C1505 C1504 1.367 . S
C1505 C1513 1.433 . S
C1506 H1502 0.929 . S
C1506 C1508 1.378 . S
C1506 C1510 1.350 . S
C1507 C1510 1.463 1_655 S
C1507 C1512 1.350 . S
C1507 N1515 1.427 . S
C1508 H1499 0.930 . S
C1508 C1506 1.378 . S
C1508 C1509 1.367 . S
C1509 C1508 1.367 . S
C1509 C1511 1.433 . S
C1510 C1506 1.350 . S
C1510 C1507 1.463 1_455 S
C1510 N1514 1.427 . S
C1511 H1501 0.929 . S
C1511 C1509 1.433 . S
C1511 N1514 1.384 . S
C1512 H1503 0.929 . S
C1512 C1504 1.378 . S
C1512 C1507 1.350 . S
C1513 H1500 0.929 . S
C1513 C1505 1.433 . S
C1513 N1515 1.384 . S
N1514 C1510 1.427 . S
N1514 C1511 1.384 . S
N1515 C1507 1.427 . S
N1515 C1513 1.384 . S
H1516 C1522 0.930 . S
H1517 C1526 0.930 . S
H1518 C1531 0.929 . S
H1519 C1529 0.929 . S
H1520 C1524 0.929 . S
H1521 C1530 0.929 . S
C1522 H1516 0.930 . S
C1522 C1523 1.367 . S
C1522 C1530 1.378 . S
C1523 C1522 1.367 . S
C1523 C1531 1.433 . S
C1524 H1520 0.929 . S
C1524 C1526 1.378 . S
C1524 C1528 1.350 . S
C1525 C1528 1.463 . S
C1525 C1530 1.350 . S
C1525 N1533 1.427 . S
C1526 H1517 0.930 . S
C1526 C1524 1.378 . S
C1526 C1527 1.367 . S
C1527 C1526 1.367 . S
C1527 C1529 1.433 . S
C1528 C1524 1.350 . S
C1528 C1525 1.463 . S
C1528 N1532 1.427 . S
C1529 H1519 0.929 . S
C1529 C1527 1.433 . S
C1529 N1532 1.384 . S
C1530 H1521 0.929 . S
C1530 C1522 1.378 . S
C1530 C1525 1.350 . S
C1531 H1518 0.929 . S
C1531 C1523 1.433 . S
C1531 N1533 1.384 . S
N1532 C1528 1.427 . S
N1532 C1529 1.384 . S
N1533 C1525 1.427 . S
N1533 C1531 1.384 . S
H1534 C1540 0.930 . S
H1535 C1544 0.930 . S
H1536 C1549 0.929 . S
H1537 C1547 0.929 . S
H1538 C1542 0.929 . S
H1539 C1548 0.929 . S
C1540 H1534 0.930 . S
C1540 C1541 1.367 . S
C1540 C1548 1.378 . S
C1541 C1540 1.367 . S
C1541 C1549 1.433 . S
C1542 H1538 0.929 . S
C1542 C1544 1.378 . S
C1542 C1546 1.350 . S
C1543 C1546 1.463 . S
C1543 C1548 1.350 . S
C1543 N1551 1.427 . S
C1544 H1535 0.930 . S
C1544 C1542 1.378 . S
C1544 C1545 1.367 . S
C1545 C1544 1.367 . S
C1545 C1547 1.433 . S
C1546 C1542 1.350 . S
C1546 C1543 1.463 . S
C1546 N1550 1.427 . S
C1547 H1537 0.929 . S
C1547 C1545 1.433 . S
C1547 N1550 1.384 . S
C1548 H1539 0.929 . S
C1548 C1540 1.378 . S
C1548 C1543 1.350 . S
C1549 H1536 0.929 . S
C1549 C1541 1.433 . S
C1549 N1551 1.384 . S
N1550 C1546 1.427 . S
N1550 C1547 1.384 . S
N1551 C1543 1.427 . S
N1551 C1549 1.384 . S
H1552 C1558 0.930 . S
H1553 C1562 0.930 . S
H1554 C1567 0.929 . S
H1555 C1565 0.929 . S
H1556 C1560 0.929 . S
H1557 C1566 0.929 . S
C1558 H1552 0.930 . S
C1558 C1559 1.367 . S
C1558 C1566 1.378 . S
C1559 C1558 1.367 . S
C1559 C1567 1.433 . S
C1560 H1556 0.929 . S
C1560 C1562 1.378 . S
C1560 C1564 1.350 . S
C1561 C1564 1.463 . S
C1561 C1566 1.350 . S
C1561 N1569 1.427 . S
C1562 H1553 0.930 . S
C1562 C1560 1.378 . S
C1562 C1563 1.367 . S
C1563 C1562 1.367 . S
C1563 C1565 1.433 . S
C1564 C1560 1.350 . S
C1564 C1561 1.463 . S
C1564 N1568 1.427 . S
C1565 H1555 0.929 . S
C1565 C1563 1.433 . S
C1565 N1568 1.384 . S
C1566 H1557 0.929 . S
C1566 C1558 1.378 . S
C1566 C1561 1.350 . S
C1567 H1554 0.929 . S
C1567 C1559 1.433 . S
C1567 N1569 1.384 . S
N1568 C1564 1.427 . S
N1568 C1565 1.384 . S
N1569 C1561 1.427 . S
N1569 C1567 1.384 . S
H1570 C1576 0.930 . S
H1571 C1580 0.930 . S
H1572 C1585 0.929 . S
H1573 C1583 0.929 . S
H1574 C1578 0.929 . S
H1575 C1584 0.929 . S
C1576 H1570 0.930 . S
C1576 C1577 1.367 . S
C1576 C1584 1.378 . S
C1577 C1576 1.367 . S
C1577 C1585 1.433 . S
C1578 H1574 0.929 . S
C1578 C1580 1.378 . S
C1578 C1582 1.350 . S
C1579 C1582 1.463 . S
C1579 C1584 1.350 . S
C1579 N1587 1.427 . S
C1580 H1571 0.930 . S
C1580 C1578 1.378 . S
C1580 C1581 1.367 . S
C1581 C1580 1.367 . S
C1581 C1583 1.433 . S
C1582 C1578 1.350 . S
C1582 C1579 1.463 . S
C1582 N1586 1.427 . S
C1583 H1573 0.929 . S
C1583 C1581 1.433 . S
C1583 N1586 1.384 . S
C1584 H1575 0.929 . S
C1584 C1576 1.378 . S
C1584 C1579 1.350 . S
C1585 H1572 0.929 . S
C1585 C1577 1.433 . S
C1585 N1587 1.384 . S
N1586 C1582 1.427 . S
N1586 C1583 1.384 . S
N1587 C1579 1.427 . S
N1587 C1585 1.384 . S
H1588 C1594 0.930 . S
H1589 C1598 0.930 . S
H1590 C1603 0.929 . S
H1591 C1601 0.929 . S
H1592 C1596 0.929 . S
H1593 C1602 0.929 . S
C1594 H1588 0.930 . S
C1594 C1595 1.367 . S
C1594 C1602 1.378 . S
C1595 C1594 1.367 . S
C1595 C1603 1.433 . S
C1596 H1592 0.929 . S
C1596 C1598 1.378 . S
C1596 C1600 1.350 . S
C1597 C1600 1.463 . S
C1597 C1602 1.350 . S
C1597 N1605 1.427 . S
C1598 H1589 0.930 . S
C1598 C1596 1.378 . S
C1598 C1599 1.367 . S
C1599 C1598 1.367 . S
C1599 C1601 1.433 . S
C1600 C1596 1.350 . S
C1600 C1597 1.463 . S
C1600 N1604 1.427 . S
C1601 H1591 0.929 . S
C1601 C1599 1.433 . S
C1601 N1604 1.384 . S
C1602 H1593 0.929 . S
C1602 C1594 1.378 . S
C1602 C1597 1.350 . S
C1603 H1590 0.929 . S
C1603 C1595 1.433 . S
C1603 N1605 1.384 . S
N1604 C1600 1.427 . S
N1604 C1601 1.384 . S
N1605 C1597 1.427 . S
N1605 C1603 1.384 . S
H1606 C1612 0.930 . S
H1607 C1616 0.930 . S
H1608 C1621 0.929 . S
H1609 C1619 0.929 . S
H1610 C1614 0.929 . S
H1611 C1620 0.929 . S
C1612 H1606 0.930 . S
C1612 C1613 1.367 . S
C1612 C1620 1.378 . S
C1613 C1612 1.367 . S
C1613 C1621 1.433 . S
C1614 H1610 0.929 . S
C1614 C1616 1.378 . S
C1614 C1618 1.350 . S
C1615 C1618 1.463 . S
C1615 C1620 1.350 . S
C1615 N1623 1.427 . S
C1616 H1607 0.930 . S
C1616 C1614 1.378 . S
C1616 C1617 1.367 . S
C1617 C1616 1.367 . S
C1617 C1619 1.433 . S
C1618 C1614 1.350 . S
C1618 C1615 1.463 . S
C1618 N1622 1.427 . S
C1619 H1609 0.929 . S
C1619 C1617 1.433 . S
C1619 N1622 1.384 . S
C1620 H1611 0.929 . S
C1620 C1612 1.378 . S
C1620 C1615 1.350 . S
C1621 H1608 0.929 . S
C1621 C1613 1.433 . S
C1621 N1623 1.384 . S
N1622 C1618 1.427 . S
N1622 C1619 1.384 . S
N1623 C1615 1.427 . S
N1623 C1621 1.384 . S
H1624 C1630 0.930 . S
H1625 C1634 0.930 . S
H1626 C1639 0.929 . S
H1627 C1637 0.929 . S
H1628 C1632 0.929 . S
H1629 C1638 0.929 . S
C1630 H1624 0.930 . S
C1630 C1631 1.367 . S
C1630 C1638 1.378 . S
C1631 C1630 1.367 . S
C1631 C1639 1.433 . S
C1632 H1628 0.929 . S
C1632 C1634 1.378 . S
C1632 C1636 1.350 . S
C1633 C1636 1.463 1_455 S
C1633 C1638 1.350 . S
C1633 N1641 1.427 . S
C1634 H1625 0.930 . S
C1634 C1632 1.378 . S
C1634 C1635 1.367 . S
C1635 C1634 1.367 . S
C1635 C1637 1.433 . S
C1636 C1632 1.350 . S
C1636 C1633 1.463 1_655 S
C1636 N1640 1.427 . S
C1637 H1627 0.929 . S
C1637 C1635 1.433 . S
C1637 N1640 1.384 . S
C1638 H1629 0.929 . S
C1638 C1630 1.378 . S
C1638 C1633 1.350 . S
C1639 H1626 0.929 . S
C1639 C1631 1.433 . S
C1639 N1641 1.384 . S
N1640 C1636 1.427 . S
N1640 C1637 1.384 . S
N1641 C1633 1.427 . S
N1641 C1639 1.384 . S
H1642 C1648 0.930 . S
H1643 C1652 0.930 . S
H1644 C1657 0.929 . S
H1645 C1655 0.929 . S
H1646 C1650 0.929 . S
H1647 C1656 0.929 . S
C1648 H1642 0.930 . S
C1648 C1649 1.367 . S
C1648 C1656 1.378 . S
C1649 C1648 1.367 . S
C1649 C1657 1.433 . S
C1650 H1646 0.929 . S
C1650 C1652 1.378 . S
C1650 C1654 1.350 . S
C1651 C1654 1.463 . S
C1651 C1656 1.350 . S
C1651 N1659 1.427 . S
C1652 H1643 0.930 . S
C1652 C1650 1.378 . S
C1652 C1653 1.367 . S
C1653 C1652 1.367 . S
C1653 C1655 1.433 . S
C1654 C1650 1.350 . S
C1654 C1651 1.463 . S
C1654 N1658 1.427 . S
C1655 H1645 0.929 . S
C1655 C1653 1.433 . S
C1655 N1658 1.384 . S
C1656 H1647 0.929 . S
C1656 C1648 1.378 . S
C1656 C1651 1.350 . S
C1657 H1644 0.929 . S
C1657 C1649 1.433 . S
C1657 N1659 1.384 . S
N1658 C1654 1.427 . S
N1658 C1655 1.384 . S
N1659 C1651 1.427 . S
N1659 C1657 1.384 . S
H1660 C1666 0.930 . S
H1661 C1670 0.930 . S
H1662 C1675 0.929 . S
H1663 C1673 0.929 . S
H1664 C1668 0.929 . S
H1665 C1674 0.929 . S
C1666 H1660 0.930 . S
C1666 C1667 1.367 . S
C1666 C1674 1.378 . S
C1667 C1666 1.367 . S
C1667 C1675 1.433 . S
C1668 H1664 0.929 . S
C1668 C1670 1.378 . S
C1668 C1672 1.350 . S
C1669 C1672 1.463 . S
C1669 C1674 1.350 . S
C1669 N1677 1.427 . S
C1670 H1661 0.930 . S
C1670 C1668 1.378 . S
C1670 C1671 1.367 . S
C1671 C1670 1.367 . S
C1671 C1673 1.433 . S
C1672 C1668 1.350 . S
C1672 C1669 1.463 . S
C1672 N1676 1.427 . S
C1673 H1663 0.929 . S
C1673 C1671 1.433 . S
C1673 N1676 1.384 . S
C1674 H1665 0.929 . S
C1674 C1666 1.378 . S
C1674 C1669 1.350 . S
C1675 H1662 0.929 . S
C1675 C1667 1.433 . S
C1675 N1677 1.384 . S
N1676 C1672 1.427 . S
N1676 C1673 1.384 . S
N1677 C1669 1.427 . S
N1677 C1675 1.384 . S
H1678 C1684 0.930 . S
H1679 C1688 0.930 . S
H1680 C1693 0.929 . S
H1681 C1691 0.929 . S
H1682 C1686 0.929 . S
H1683 C1692 0.929 . S
C1684 H1678 0.930 . S
C1684 C1685 1.367 . S
C1684 C1692 1.378 . S
C1685 C1684 1.367 . S
C1685 C1693 1.433 . S
C1686 H1682 0.929 . S
C1686 C1688 1.378 . S
C1686 C1690 1.350 . S
C1687 C1690 1.463 1_455 S
C1687 C1692 1.350 . S
C1687 N1695 1.427 . S
C1688 H1679 0.930 . S
C1688 C1686 1.378 . S
C1688 C1689 1.367 . S
C1689 C1688 1.367 . S
C1689 C1691 1.433 . S
C1690 C1686 1.350 . S
C1690 C1687 1.463 1_655 S
C1690 N1694 1.427 . S
C1691 H1681 0.929 . S
C1691 C1689 1.433 . S
C1691 N1694 1.384 . S
C1692 H1683 0.929 . S
C1692 C1684 1.378 . S
C1692 C1687 1.350 . S
C1693 H1680 0.929 . S
C1693 C1685 1.433 . S
C1693 N1695 1.384 . S
N1694 C1690 1.427 . S
N1694 C1691 1.384 . S
N1695 C1687 1.427 . S
N1695 C1693 1.384 . S
H1696 C1702 0.930 . S
H1697 C1706 0.930 . S
H1698 C1711 0.929 . S
H1699 C1709 0.929 . S
H1700 C1704 0.929 . S
H1701 C1710 0.929 . S
C1702 H1696 0.930 . S
C1702 C1703 1.367 . S
C1702 C1710 1.378 . S
C1703 C1702 1.367 . S
C1703 C1711 1.433 . S
C1704 H1700 0.929 . S
C1704 C1706 1.378 . S
C1704 C1708 1.350 . S
C1705 C1708 1.463 1_554 S
C1705 C1710 1.350 . S
C1705 N1713 1.427 . S
C1706 H1697 0.930 . S
C1706 C1704 1.378 . S
C1706 C1707 1.367 . S
C1707 C1706 1.367 . S
C1707 C1709 1.433 . S
C1708 C1704 1.350 . S
C1708 C1705 1.463 1_556 S
C1708 N1712 1.427 . S
C1709 H1699 0.929 . S
C1709 C1707 1.433 . S
C1709 N1712 1.384 . S
C1710 H1701 0.929 . S
C1710 C1702 1.378 . S
C1710 C1705 1.350 . S
C1711 H1698 0.929 . S
C1711 C1703 1.433 . S
C1711 N1713 1.384 . S
N1712 C1708 1.427 . S
N1712 C1709 1.384 . S
N1713 C1705 1.427 . S
N1713 C1711 1.384 . S
H1714 C1720 0.930 . S
H1715 C1724 0.930 . S
H1716 C1729 0.929 . S
H1717 C1727 0.929 . S
H1718 C1722 0.929 . S
H1719 C1728 0.929 . S
C1720 H1714 0.930 . S
C1720 C1721 1.367 . S
C1720 C1728 1.378 . S
C1721 C1720 1.367 . S
C1721 C1729 1.433 . S
C1722 H1718 0.929 . S
C1722 C1724 1.378 . S
C1722 C1726 1.350 . S
C1723 C1726 1.463 . S
C1723 C1728 1.350 . S
C1723 N1731 1.427 . S
C1724 H1715 0.930 . S
C1724 C1722 1.378 . S
C1724 C1725 1.367 . S
C1725 C1724 1.367 . S
C1725 C1727 1.433 . S
C1726 C1722 1.350 . S
C1726 C1723 1.463 . S
C1726 N1730 1.427 . S
C1727 H1717 0.929 . S
C1727 C1725 1.433 . S
C1727 N1730 1.384 . S
C1728 H1719 0.929 . S
C1728 C1720 1.378 . S
C1728 C1723 1.350 . S
C1729 H1716 0.929 . S
C1729 C1721 1.433 . S
C1729 N1731 1.384 . S
N1730 C1726 1.427 . S
N1730 C1727 1.384 . S
N1731 C1723 1.427 . S
N1731 C1729 1.384 . S
H1732 C1738 0.930 . S
H1733 C1742 0.930 . S
H1734 C1747 0.929 . S
H1735 C1745 0.929 . S
H1736 C1740 0.929 . S
H1737 C1746 0.929 . S
C1738 H1732 0.930 . S
C1738 C1739 1.367 . S
C1738 C1746 1.378 . S
C1739 C1738 1.367 . S
C1739 C1747 1.433 . S
C1740 H1736 0.929 . S
C1740 C1742 1.378 . S
C1740 C1744 1.350 . S
C1741 C1744 1.463 . S
C1741 C1746 1.350 . S
C1741 N1749 1.427 . S
C1742 H1733 0.930 . S
C1742 C1740 1.378 . S
C1742 C1743 1.367 . S
C1743 C1742 1.367 . S
C1743 C1745 1.433 . S
C1744 C1740 1.350 . S
C1744 C1741 1.463 . S
C1744 N1748 1.427 . S
C1745 H1735 0.929 . S
C1745 C1743 1.433 . S
C1745 N1748 1.384 . S
C1746 H1737 0.929 . S
C1746 C1738 1.378 . S
C1746 C1741 1.350 . S
C1747 H1734 0.929 . S
C1747 C1739 1.433 . S
C1747 N1749 1.384 . S
N1748 C1744 1.427 . S
N1748 C1745 1.384 . S
N1749 C1741 1.427 . S
N1749 C1747 1.384 . S
H1750 C1756 0.930 . S
H1751 C1760 0.930 . S
H1752 C1765 0.929 . S
H1753 C1763 0.929 . S
H1754 C1758 0.929 . S
H1755 C1764 0.929 . S
C1756 H1750 0.930 . S
C1756 C1757 1.367 . S
C1756 C1764 1.378 . S
C1757 C1756 1.367 . S
C1757 C1765 1.433 . S
C1758 H1754 0.929 . S
C1758 C1760 1.378 . S
C1758 C1762 1.350 . S
C1759 C1762 1.463 . S
C1759 C1764 1.350 . S
C1759 N1767 1.427 . S
C1760 H1751 0.930 . S
C1760 C1758 1.378 . S
C1760 C1761 1.367 . S
C1761 C1760 1.367 . S
C1761 C1763 1.433 . S
C1762 C1758 1.350 . S
C1762 C1759 1.463 . S
C1762 N1766 1.427 . S
C1763 H1753 0.929 . S
C1763 C1761 1.433 . S
C1763 N1766 1.384 . S
C1764 H1755 0.929 . S
C1764 C1756 1.378 . S
C1764 C1759 1.350 . S
C1765 H1752 0.929 . S
C1765 C1757 1.433 . S
C1765 N1767 1.384 . S
N1766 C1762 1.427 . S
N1766 C1763 1.384 . S
N1767 C1759 1.427 . S
N1767 C1765 1.384 . S
H1768 C1774 0.930 . S
H1769 C1778 0.930 . S
H1770 C1783 0.929 . S
H1771 C1781 0.929 . S
H1772 C1776 0.929 . S
H1773 C1782 0.929 . S
C1774 H1768 0.930 . S
C1774 C1775 1.367 . S
C1774 C1782 1.378 . S
C1775 C1774 1.367 . S
C1775 C1783 1.433 . S
C1776 H1772 0.929 . S
C1776 C1778 1.378 . S
C1776 C1780 1.350 . S
C1777 C1780 1.463 1_556 S
C1777 C1782 1.350 . S
C1777 N1785 1.427 . S
C1778 H1769 0.930 . S
C1778 C1776 1.378 . S
C1778 C1779 1.367 . S
C1779 C1778 1.367 . S
C1779 C1781 1.433 . S
C1780 C1776 1.350 . S
C1780 C1777 1.463 1_554 S
C1780 N1784 1.427 . S
C1781 H1771 0.929 . S
C1781 C1779 1.433 . S
C1781 N1784 1.384 . S
C1782 H1773 0.929 . S
C1782 C1774 1.378 . S
C1782 C1777 1.350 . S
C1783 H1770 0.929 . S
C1783 C1775 1.433 . S
C1783 N1785 1.384 . S
N1784 C1780 1.427 . S
N1784 C1781 1.384 . S
N1785 C1777 1.427 . S
N1785 C1783 1.384 . S
H1786 C1792 0.930 . S
H1787 C1796 0.930 . S
H1788 C1801 0.929 . S
H1789 C1799 0.929 . S
H1790 C1794 0.929 . S
H1791 C1800 0.929 . S
C1792 H1786 0.930 . S
C1792 C1793 1.367 . S
C1792 C1800 1.378 . S
C1793 C1792 1.367 . S
C1793 C1801 1.433 . S
C1794 H1790 0.929 . S
C1794 C1796 1.378 . S
C1794 C1798 1.350 . S
C1795 C1798 1.463 . S
C1795 C1800 1.350 . S
C1795 N1803 1.427 . S
C1796 H1787 0.930 . S
C1796 C1794 1.378 . S
C1796 C1797 1.367 . S
C1797 C1796 1.367 . S
C1797 C1799 1.433 . S
C1798 C1794 1.350 . S
C1798 C1795 1.463 . S
C1798 N1802 1.427 . S
C1799 H1789 0.929 . S
C1799 C1797 1.433 . S
C1799 N1802 1.384 . S
C1800 H1791 0.929 . S
C1800 C1792 1.378 . S
C1800 C1795 1.350 . S
C1801 H1788 0.929 . S
C1801 C1793 1.433 . S
C1801 N1803 1.384 . S
N1802 C1798 1.427 . S
N1802 C1799 1.384 . S
N1803 C1795 1.427 . S
N1803 C1801 1.384 . S
H1804 C1810 0.930 . S
H1805 C1814 0.930 . S
H1806 C1819 0.929 . S
H1807 C1817 0.929 . S
H1808 C1812 0.929 . S
H1809 C1818 0.929 . S
C1810 H1804 0.930 . S
C1810 C1811 1.367 . S
C1810 C1818 1.378 . S
C1811 C1810 1.367 . S
C1811 C1819 1.433 . S
C1812 H1808 0.929 . S
C1812 C1814 1.378 . S
C1812 C1816 1.350 . S
C1813 C1816 1.463 . S
C1813 C1818 1.350 . S
C1813 N1821 1.427 . S
C1814 H1805 0.930 . S
C1814 C1812 1.378 . S
C1814 C1815 1.367 . S
C1815 C1814 1.367 . S
C1815 C1817 1.433 . S
C1816 C1812 1.350 . S
C1816 C1813 1.463 . S
C1816 N1820 1.427 . S
C1817 H1807 0.929 . S
C1817 C1815 1.433 . S
C1817 N1820 1.384 . S
C1818 H1809 0.929 . S
C1818 C1810 1.378 . S
C1818 C1813 1.350 . S
C1819 H1806 0.929 . S
C1819 C1811 1.433 . S
C1819 N1821 1.384 . S
N1820 C1816 1.427 . S
N1820 C1817 1.384 . S
N1821 C1813 1.427 . S
N1821 C1819 1.384 . S
H1822 C1828 0.930 . S
H1823 C1832 0.930 . S
H1824 C1837 0.929 . S
H1825 C1835 0.929 . S
H1826 C1830 0.929 . S
H1827 C1836 0.929 . S
C1828 H1822 0.930 . S
C1828 C1829 1.367 . S
C1828 C1836 1.378 . S
C1829 C1828 1.367 . S
C1829 C1837 1.433 . S
C1830 H1826 0.929 . S
C1830 C1832 1.378 . S
C1830 C1834 1.350 . S
C1831 C1834 1.463 . S
C1831 C1836 1.350 . S
C1831 N1839 1.427 . S
C1832 H1823 0.930 . S
C1832 C1830 1.378 . S
C1832 C1833 1.367 . S
C1833 C1832 1.367 . S
C1833 C1835 1.433 . S
C1834 C1830 1.350 . S
C1834 C1831 1.463 . S
C1834 N1838 1.427 . S
C1835 H1825 0.929 . S
C1835 C1833 1.433 . S
C1835 N1838 1.384 . S
C1836 H1827 0.929 . S
C1836 C1828 1.378 . S
C1836 C1831 1.350 . S
C1837 H1824 0.929 . S
C1837 C1829 1.433 . S
C1837 N1839 1.384 . S
N1838 C1834 1.427 . S
N1838 C1835 1.384 . S
N1839 C1831 1.427 . S
N1839 C1837 1.384 . S
H1840 C1846 0.930 . S
H1841 C1850 0.930 . S
H1842 C1855 0.929 . S
H1843 C1853 0.929 . S
H1844 C1848 0.929 . S
H1845 C1854 0.929 . S
C1846 H1840 0.930 . S
C1846 C1847 1.367 . S
C1846 C1854 1.378 . S
C1847 C1846 1.367 . S
C1847 C1855 1.433 . S
C1848 H1844 0.929 . S
C1848 C1850 1.378 . S
C1848 C1852 1.350 . S
C1849 C1852 1.463 1_545 S
C1849 C1854 1.350 . S
C1849 N1857 1.427 1_545 S
C1850 H1841 0.930 . S
C1850 C1848 1.378 . S
C1850 C1851 1.367 . S
C1851 C1850 1.367 . S
C1851 C1853 1.433 . S
C1852 C1848 1.350 . S
C1852 C1849 1.463 1_565 S
C1852 N1856 1.427 1_565 S
C1853 H1843 0.929 . S
C1853 C1851 1.433 . S
C1853 N1856 1.384 1_565 S
C1854 H1845 0.929 . S
C1854 C1846 1.378 . S
C1854 C1849 1.350 . S
C1855 H1842 0.929 . S
C1855 C1847 1.433 . S
C1855 N1857 1.384 1_545 S
N1856 C1852 1.427 1_545 S
N1856 C1853 1.384 1_545 S
N1857 C1849 1.427 1_565 S
N1857 C1855 1.384 1_565 S
H1858 C1864 0.930 . S
H1859 C1868 0.930 . S
H1860 C1873 0.929 . S
H1861 C1871 0.929 . S
H1862 C1866 0.929 . S
H1863 C1872 0.929 . S
C1864 H1858 0.930 . S
C1864 C1865 1.367 . S
C1864 C1872 1.378 . S
C1865 C1864 1.367 . S
C1865 C1873 1.433 . S
C1866 H1862 0.929 . S
C1866 C1868 1.378 . S
C1866 C1870 1.350 . S
C1867 C1870 1.463 . S
C1867 C1872 1.350 . S
C1867 N1875 1.427 . S
C1868 H1859 0.930 . S
C1868 C1866 1.378 . S
C1868 C1869 1.367 . S
C1869 C1868 1.367 . S
C1869 C1871 1.433 . S
C1870 C1866 1.350 . S
C1870 C1867 1.463 . S
C1870 N1874 1.427 . S
C1871 H1861 0.929 . S
C1871 C1869 1.433 . S
C1871 N1874 1.384 . S
C1872 H1863 0.929 . S
C1872 C1864 1.378 . S
C1872 C1867 1.350 . S
C1873 H1860 0.929 . S
C1873 C1865 1.433 . S
C1873 N1875 1.384 . S
N1874 C1870 1.427 . S
N1874 C1871 1.384 . S
N1875 C1867 1.427 . S
N1875 C1873 1.384 . S
H1876 C1882 0.930 . S
H1877 C1886 0.930 . S
H1878 C1891 0.929 . S
H1879 C1889 0.929 . S
H1880 C1884 0.924 . S
H1881 C1890 0.924 . S
C1882 H1876 0.930 . S
C1882 C1883 1.367 . S
C1882 C1890 1.381 1_545 S
C1883 C1882 1.367 . S
C1883 C1891 1.433 . S
C1884 H1880 0.924 . S
C1884 C1886 1.381 1_545 S
C1884 C1888 1.351 1_545 S
C1885 C1888 1.463 1_546 S
C1885 C1890 1.352 1_545 S
C1885 N1893 1.427 . S
C1886 H1877 0.930 . S
C1886 C1884 1.381 1_565 S
C1886 C1887 1.367 . S
C1887 C1886 1.367 . S
C1887 C1889 1.433 . S
C1888 C1884 1.351 1_565 S
C1888 C1885 1.463 1_564 S
C1888 N1892 1.427 . S
C1889 H1879 0.929 . S
C1889 C1887 1.433 . S
C1889 N1892 1.384 . S
C1890 H1881 0.924 . S
C1890 C1882 1.381 1_565 S
C1890 C1885 1.352 1_565 S
C1891 H1878 0.929 . S
C1891 C1883 1.433 . S
C1891 N1893 1.384 . S
N1892 C1888 1.427 . S
N1892 C1889 1.384 . S
N1893 C1885 1.427 . S
N1893 C1891 1.384 . S
H1894 C1900 0.930 . S
H1895 C1904 0.930 . S
H1896 C1909 0.929 . S
H1897 C1907 0.929 . S
H1898 C1902 0.929 . S
H1899 C1908 0.929 . S
C1900 H1894 0.930 . S
C1900 C1901 1.367 . S
C1900 C1908 1.378 . S
C1901 C1900 1.367 . S
C1901 C1909 1.433 . S
C1902 H1898 0.929 . S
C1902 C1904 1.378 . S
C1902 C1906 1.350 . S
C1903 C1906 1.463 . S
C1903 C1908 1.350 . S
C1903 N1911 1.427 . S
C1904 H1895 0.930 . S
C1904 C1902 1.378 . S
C1904 C1905 1.367 . S
C1905 C1904 1.367 . S
C1905 C1907 1.433 . S
C1906 C1902 1.350 . S
C1906 C1903 1.463 . S
C1906 N1910 1.427 . S
C1907 H1897 0.929 . S
C1907 C1905 1.433 . S
C1907 N1910 1.384 . S
C1908 H1899 0.929 . S
C1908 C1900 1.378 . S
C1908 C1903 1.350 . S
C1909 H1896 0.929 . S
C1909 C1901 1.433 . S
C1909 N1911 1.384 . S
N1910 C1906 1.427 . S
N1910 C1907 1.384 . S
N1911 C1903 1.427 . S
N1911 C1909 1.384 . S
H1912 C1918 0.930 . S
H1913 C1922 0.930 . S
H1914 C1927 0.929 . S
H1915 C1925 0.929 . S
H1916 C1920 0.929 . S
H1917 C1926 0.929 . S
C1918 H1912 0.930 . S
C1918 C1919 1.367 . S
C1918 C1926 1.378 . S
C1919 C1918 1.367 . S
C1919 C1927 1.433 . S
C1920 H1916 0.929 . S
C1920 C1922 1.378 . S
C1920 C1924 1.350 . S
C1921 C1924 1.463 1_545 S
C1921 C1926 1.350 . S
C1921 N1929 1.427 1_545 S
C1922 H1913 0.930 . S
C1922 C1920 1.378 . S
C1922 C1923 1.367 . S
C1923 C1922 1.367 . S
C1923 C1925 1.433 . S
C1924 C1920 1.350 . S
C1924 C1921 1.463 1_565 S
C1924 N1928 1.427 1_565 S
C1925 H1915 0.929 . S
C1925 C1923 1.433 . S
C1925 N1928 1.384 1_565 S
C1926 H1917 0.929 . S
C1926 C1918 1.378 . S
C1926 C1921 1.350 . S
C1927 H1914 0.929 . S
C1927 C1919 1.433 . S
C1927 N1929 1.384 1_545 S
N1928 C1924 1.427 1_545 S
N1928 C1925 1.384 1_545 S
N1929 C1921 1.427 1_565 S
N1929 C1927 1.384 1_565 S
H1930 C1936 0.930 . S
H1931 C1940 0.930 . S
H1932 C1945 0.929 . S
H1933 C1943 0.929 . S
H1934 C1938 0.929 . S
H1935 C1944 0.929 . S
C1936 H1930 0.930 . S
C1936 C1937 1.367 . S
C1936 C1944 1.378 . S
C1937 C1936 1.367 . S
C1937 C1945 1.433 . S
C1938 H1934 0.929 . S
C1938 C1940 1.378 . S
C1938 C1942 1.350 . S
C1939 C1942 1.463 . S
C1939 C1944 1.350 . S
C1939 N1947 1.427 . S
C1940 H1931 0.930 . S
C1940 C1938 1.378 . S
C1940 C1941 1.367 . S
C1941 C1940 1.367 . S
C1941 C1943 1.433 . S
C1942 C1938 1.350 . S
C1942 C1939 1.463 . S
C1942 N1946 1.427 . S
C1943 H1933 0.929 . S
C1943 C1941 1.433 . S
C1943 N1946 1.384 . S
C1944 H1935 0.929 . S
C1944 C1936 1.378 . S
C1944 C1939 1.350 . S
C1945 H1932 0.929 . S
C1945 C1937 1.433 . S
C1945 N1947 1.384 . S
N1946 C1942 1.427 . S
N1946 C1943 1.384 . S
N1947 C1939 1.427 . S
N1947 C1945 1.384 . S
H1948 C1954 0.930 . S
H1949 C1958 0.930 . S
H1950 C1963 0.929 . S
H1951 C1961 0.929 . S
H1952 C1956 0.929 1_565 S
H1953 C1962 0.929 1_545 S
C1954 H1948 0.930 . S
C1954 C1955 1.367 . S
C1954 C1962 1.378 . S
C1955 C1954 1.367 . S
C1955 C1963 1.433 . S
C1956 H1952 0.929 1_545 S
C1956 C1958 1.378 . S
C1956 C1960 1.350 . S
C1957 C1960 1.463 1_564 S
C1957 C1962 1.350 . S
C1957 N1965 1.427 . S
C1958 H1949 0.930 . S
C1958 C1956 1.378 . S
C1958 C1959 1.367 . S
C1959 C1958 1.367 . S
C1959 C1961 1.433 . S
C1960 C1956 1.350 . S
C1960 C1957 1.463 1_546 S
C1960 N1964 1.427 . S
C1961 H1951 0.929 . S
C1961 C1959 1.433 . S
C1961 N1964 1.384 . S
C1962 H1953 0.929 1_565 S
C1962 C1954 1.378 . S
C1962 C1957 1.350 . S
C1963 H1950 0.929 . S
C1963 C1955 1.433 . S
C1963 N1965 1.384 . S
N1964 C1960 1.427 . S
N1964 C1961 1.384 . S
N1965 C1957 1.427 . S
N1965 C1963 1.384 . S
H1966 C1972 0.930 . S
H1967 C1976 0.930 . S
H1968 C1981 0.929 . S
H1969 C1979 0.929 . S
H1970 C1974 0.929 . S
H1971 C1980 0.929 . S
C1972 H1966 0.930 . S
C1972 C1973 1.367 . S
C1972 C1980 1.378 . S
C1973 C1972 1.367 . S
C1973 C1981 1.433 . S
C1974 H1970 0.929 . S
C1974 C1976 1.378 . S
C1974 C1978 1.350 . S
C1975 C1978 1.463 . S
C1975 C1980 1.350 . S
C1975 N1983 1.427 . S
C1976 H1967 0.930 . S
C1976 C1974 1.378 . S
C1976 C1977 1.367 . S
C1977 C1976 1.367 . S
C1977 C1979 1.433 . S
C1978 C1974 1.350 . S
C1978 C1975 1.463 . S
C1978 N1982 1.427 . S
C1979 H1969 0.929 . S
C1979 C1977 1.433 . S
C1979 N1982 1.384 . S
C1980 H1971 0.929 . S
C1980 C1972 1.378 . S
C1980 C1975 1.350 . S
C1981 H1968 0.929 . S
C1981 C1973 1.433 . S
C1981 N1983 1.384 . S
N1982 C1978 1.427 . S
N1982 C1979 1.384 . S
N1983 C1975 1.427 . S
N1983 C1981 1.384 . S
C1415 C1017 1.476 . S
C1419 C20 1.482 . S
C1433 C1369 1.480 . S
C1437 C108 1.479 . S
C1451 C225 1.480 . S
C1455 C812 1.477 . S
C1469 C1164 1.476 . S
C1473 C321 1.482 . S
C1487 C409 1.480 . S
C1491 C1173 1.479 . S
C1505 C469 1.477 . S
C1509 C1025 1.481 . S
C1523 C548 1.478 . S
C1527 C1377 1.479 . S
C1541 C673 1.477 . S
C1545 C821 1.481 . S
C1559 C284 1.480 . S
C1563 C761 1.477 . S
C1577 C900 1.481 . S
C1581 C145 1.477 . S
C1595 C1076 1.479 . S
C1599 C489 1.479 . S
C1613 C1281 1.481 . S
C1617 C636 1.477 . S
C1631 C372 1.478 . S
C1635 C753 1.480 . S
C1649 C909 1.480 . S
C1653 C585 1.479 . S
C1667 C1289 1.478 . S
C1671 C205 1.481 . S
C1685 C57 1.482 . S
C1689 C1085 1.476 . S
C1703 C49 0.956 . S
C1707 C381 0.947 . S
C1721 C137 0.957 . S
C1725 C497 0.955 . S
C1739 C196 0.960 . S
C1743 C577 0.949 . S
C1757 C645 0.960 . S
C1761 C293 0.948 . S
C1775 C733 0.950 . S
C1779 C1105 0.960 . S
C1793 C1193 0.955 . S
C1797 C849 0.952 . S
C1811 C929 0.960 . S
C1815 C1252 0.956 . S
C1829 C1340 0.957 . S
C1833 C997 0.960 . S
C1847 C665 0.956 . S
C1851 C117 0.947 . S
C1865 C233 0.960 . S
C1869 C401 0.948 . S
C1883 C313 0.960 . S
C1887 C460 0.950 . S
C1901 C29 0.947 . S
C1905 C557 0.955 . S
C1919 C841 0.950 . S
C1923 C1349 0.958 . S
C1937 C1113 0.962 . S
C1941 C937 0.952 . S
C1955 C988 0.962 . S
C1959 C1201 0.952 . S
C1973 C1261 0.951 . S
C1977 C724 0.962 . S
