# Generated by pormake.
# Topology sof, (5)-cn, num edge types: 1
# Building blocks:
#     Node 0, Type 0, BuildingBlock: BEQFEK_clean_sbu_0, # of connection points: 5
#     Node 1, Type 0, BuildingBlock: BEQFEK_clean_sbu_0, # of connection points: 5
#     Node 2, Type 0, BuildingBlock: BEQFEK_clean_sbu_0, # of connection points: 5
#     Node 3, Type 0, BuildingBlock: BEQFEK_clean_sbu_0, # of connection points: 5
#     Node 4, Type 0, BuildingBlock: BEQFEK_clean_sbu_0, # of connection points: 5
#     Node 5, Type 0, BuildingBlock: BEQFEK_clean_sbu_0, # of connection points: 5
#     Node 6, Type 0, BuildingBlock: BEQFEK_clean_sbu_0, # of connection points: 5
#     Node 7, Type 0, BuildingBlock: BEQFEK_clean_sbu_0, # of connection points: 5
#     Edge 8, Type (0, 0), BuildingBlock: EZIPEK_clean_linker_0, # of connection points: 2
#     Edge 9, Type (0, 0), BuildingBlock: EZIPEK_clean_linker_0, # of connection points: 2
#     Edge 10, Type (0, 0), BuildingBlock: EZIPEK_clean_linker_0, # of connection points: 2
#     Edge 11, Type (0, 0), BuildingBlock: EZIPEK_clean_linker_0, # of connection points: 2
#     Edge 12, Type (0, 0), BuildingBlock: EZIPEK_clean_linker_0, # of connection points: 2
#     Edge 13, Type (0, 0), BuildingBlock: EZIPEK_clean_linker_0, # of connection points: 2
#     Edge 14, Type (0, 0), BuildingBlock: EZIPEK_clean_linker_0, # of connection points: 2
#     Edge 15, Type (0, 0), BuildingBlock: EZIPEK_clean_linker_0, # of connection points: 2
#     Edge 16, Type (0, 0), BuildingBlock: EZIPEK_clean_linker_0, # of connection points: 2
#     Edge 17, Type (0, 0), BuildingBlock: EZIPEK_clean_linker_0, # of connection points: 2
#     Edge 18, Type (0, 0), BuildingBlock: EZIPEK_clean_linker_0, # of connection points: 2
#     Edge 19, Type (0, 0), BuildingBlock: EZIPEK_clean_linker_0, # of connection points: 2
#     Edge 20, Type (0, 0), BuildingBlock: EZIPEK_clean_linker_0, # of connection points: 2
#     Edge 21, Type (0, 0), BuildingBlock: EZIPEK_clean_linker_0, # of connection points: 2
#     Edge 22, Type (0, 0), BuildingBlock: EZIPEK_clean_linker_0, # of connection points: 2
#     Edge 23, Type (0, 0), BuildingBlock: EZIPEK_clean_linker_0, # of connection points: 2
#     Edge 24, Type (0, 0), BuildingBlock: EZIPEK_clean_linker_0, # of connection points: 2
#     Edge 25, Type (0, 0), BuildingBlock: EZIPEK_clean_linker_0, # of connection points: 2
#     Edge 26, Type (0, 0), BuildingBlock: EZIPEK_clean_linker_0, # of connection points: 2
#     Edge 27, Type (0, 0), BuildingBlock: EZIPEK_clean_linker_0, # of connection points: 2
# Relax obj value: 0.178
# Max RMSD: 0.184
# Mean RMSD: 0.184
data_MOF--net-sof--node1-BEQFEK_clean_sbu_0--edge1-EZIPEK_clean_linker_0
_symmetry_space_group_name_H-M    P1
_symmetry_Int_Tables_number       1
_symmetry_cell_setting            triclinic
loop_
_symmetry_equiv_pos_as_xyz
'x, y, z'
_cell_length_a     43.644972
_cell_length_b     14.88473
_cell_length_c     32.639754
_cell_angle_alpha  90.04132
_cell_angle_beta   89.930973
_cell_angle_gamma 89.986699
loop_
_atom_site_label
_atom_site_type_symbol
_atom_site_fract_x
_atom_site_fract_y
_atom_site_fract_z
_atom_type_partial_charge
Co0 Co 0.13545 0.16657 0.0874 0.0
Co1 Co 0.12884 0.97359 0.1237 0.0
C2 C 0.18834 0.04581 0.08661 0.0
O3 O 0.17728 0.12021 0.0742 0.0
O4 O 0.17213 0.98964 0.1064 0.0
C5 C 0.15004 0.34572 0.05785 0.0
O6 O 0.17458 0.31204 0.04027 0.0
C7 C 0.13423 0.7851 0.10491 0.0
C8 C 0.11177 0.71627 0.15675 0.0
C9 C 0.12655 0.70136 0.11974 0.0
N10 N 0.1243 0.84746 0.13154 0.0
N11 N 0.1109 0.80607 0.1626 0.0
C12 C 0.15076 0.80572 0.06587 0.0
H13 H 0.14338 0.8719 0.05373 0.0
H14 H 0.14666 0.75249 0.04268 0.0
H15 H 0.17573 0.8088 0.07215 0.0
C16 C 0.07979 0.10798 0.04137 0.0
N17 N 0.10346 0.09292 0.06702 0.0
N18 N 0.10067 0.01207 0.08286 0.0
C19 C 0.07519 0.97324 0.06778 0.0
C20 C 0.06116 0.03217 0.04092 0.0
C21 C 0.07412 0.19529 0.02013 0.0
H22 H 0.06846 0.2473 0.04333 0.0
H23 H 0.09534 0.21696 0.0042 0.0
H24 H 0.055 0.18983 0.99787 0.0
O25 O 0.13161 0.17616 0.14741 0.0
O26 O 0.12241 0.04299 0.17551 0.0
H27 H 0.06447 0.87556 0.11375 0.0
H28 H 0.04001 0.87045 0.06906 0.0
C29 C 0.06371 0.8826 0.07996 0.0
H30 H 0.0789 0.83144 0.0661 0.0
H31 H 0.10108 0.83899 0.18762 0.0
O32 O 0.13002 0.29387 0.07313 0.0
C33 C 0.1259 0.12786 0.17854 0.0
Co34 Co 0.37054 0.83182 0.08368 0.0
Co35 Co 0.37709 0.02258 0.12721 0.0
C36 C 0.31748 0.95476 0.08876 0.0
O37 O 0.32813 0.88065 0.07519 0.0
O38 O 0.33438 0.00961 0.10826 0.0
C39 C 0.37876 0.63529 0.04084 0.0
O40 O 0.3863 0.62543 0.0021 0.0
C41 C 0.36655 0.21805 0.12525 0.0
C42 C 0.40855 0.27118 0.15368 0.0
C43 C 0.38324 0.29695 0.13075 0.0
N44 N 0.38223 0.14866 0.14164 0.0
N45 N 0.40659 0.18184 0.16031 0.0
C46 C 0.33631 0.20875 0.10396 0.0
H47 H 0.32013 0.1721 0.12415 0.0
H48 H 0.33925 0.1692 0.07539 0.0
H49 H 0.32623 0.27519 0.09653 0.0
C50 C 0.42552 0.90008 0.03967 0.0
N51 N 0.4021 0.91231 0.06621 0.0
N52 N 0.40514 0.99134 0.08404 0.0
C53 C 0.43042 0.03187 0.06864 0.0
C54 C 0.44416 0.97545 0.04034 0.0
C55 C 0.43121 0.81536 0.01628 0.0
H56 H 0.41084 0.79978 0.99729 0.0
H57 H 0.45166 0.82115 0.99621 0.0
H58 H 0.4347 0.75926 0.03814 0.0
O59 O 0.37549 0.80729 0.14242 0.0
O60 O 0.38222 0.93762 0.17513 0.0
H61 H 0.45193 0.11484 0.11339 0.0
H62 H 0.46133 0.14437 0.06143 0.0
C63 C 0.44267 0.12088 0.08192 0.0
H64 H 0.42411 0.17117 0.08154 0.0
H65 H 0.42319 0.14268 0.17479 0.0
O66 O 0.37597 0.71495 0.05455 0.0
C67 C 0.38011 0.85172 0.17516 0.0
Co68 Co 0.13718 0.32467 0.41741 0.0
Co69 Co 0.13004 0.51357 0.37392 0.0
C70 C 0.1902 0.44651 0.41165 0.0
O71 O 0.17965 0.37296 0.42593 0.0
O72 O 0.1731 0.50066 0.39206 0.0
C73 C 0.1281 0.12858 0.45976 0.0
O74 O 0.12058 0.12609 0.49874 0.0
C75 C 0.13945 0.70839 0.37801 0.0
C76 C 0.09808 0.76096 0.34775 0.0
C77 C 0.12259 0.7867 0.37217 0.0
N78 N 0.12462 0.63918 0.3602 0.0
N79 N 0.10062 0.67197 0.34058 0.0
C80 C 0.16895 0.69919 0.40108 0.0
H81 H 0.18614 0.66542 0.3813 0.0
H82 H 0.1653 0.65692 0.42865 0.0
H83 H 0.17825 0.76549 0.41036 0.0
C84 C 0.08218 0.39175 0.46224 0.0
N85 N 0.10547 0.40391 0.43547 0.0
N86 N 0.10206 0.48225 0.41723 0.0
C87 C 0.07663 0.52236 0.43248 0.0
C88 C 0.06325 0.4666 0.46134 0.0
C89 C 0.07689 0.30742 0.48597 0.0
H90 H 0.07354 0.25078 0.46433 0.0
H91 H 0.09741 0.29301 0.50485 0.0
H92 H 0.05648 0.31298 0.50613 0.0
O93 O 0.13212 0.30116 0.35861 0.0
O94 O 0.12468 0.43025 0.32557 0.0
H95 H 0.05521 0.60187 0.38638 0.0
H96 H 0.04441 0.63245 0.4378 0.0
C97 C 0.06369 0.60975 0.41816 0.0
H98 H 0.08168 0.66164 0.41886 0.0
H99 H 0.0846 0.63262 0.32504 0.0
O100 O 0.13169 0.2048 0.44294 0.0
C101 C 0.12719 0.34453 0.32574 0.0
Co102 Co 0.3707 0.66643 0.41431 0.0
Co103 Co 0.37995 0.47796 0.37445 0.0
C104 C 0.31916 0.54265 0.41217 0.0
O105 O 0.3294 0.61626 0.42661 0.0
O106 O 0.33617 0.49029 0.39131 0.0
C107 C 0.37816 0.85871 0.45432 0.0
O108 O 0.382 0.8433 0.49357 0.0
C109 C 0.37302 0.28478 0.38263 0.0
C110 C 0.41418 0.23418 0.35076 0.0
C111 C 0.39053 0.20805 0.37664 0.0
N112 N 0.38665 0.35368 0.3632 0.0
N113 N 0.41049 0.32225 0.34273 0.0
C114 C 0.3439 0.29308 0.40673 0.0
H115 H 0.32594 0.32316 0.38704 0.0
H116 H 0.3476 0.33843 0.43327 0.0
H117 H 0.33551 0.22694 0.41756 0.0
C118 C 0.42665 0.60881 0.46126 0.0
N119 N 0.40364 0.59405 0.43435 0.0
N120 N 0.40787 0.51518 0.41683 0.0
C121 C 0.43377 0.47814 0.43211 0.0
C122 C 0.44641 0.53599 0.46058 0.0
C123 C 0.43053 0.69222 0.48601 0.0
H124 H 0.41057 0.6992 0.50678 0.0
H125 H 0.45178 0.69011 0.50463 0.0
H126 H 0.43142 0.75105 0.46526 0.0
O127 O 0.37496 0.68087 0.35405 0.0
O128 O 0.38624 0.551 0.3242 0.0
H129 H 0.46853 0.37451 0.43611 0.0
H130 H 0.43107 0.33711 0.42117 0.0
C131 C 0.44788 0.39206 0.41801 0.0
H132 H 0.45469 0.39878 0.38547 0.0
H133 H 0.4255 0.36209 0.32572 0.0
O134 O 0.37426 0.79366 0.42979 0.0
C135 C 0.38167 0.6354 0.32233 0.0
Co136 Co 0.87039 0.8259 0.91545 0.0
Co137 Co 0.87879 0.01584 0.87684 0.0
C138 C 0.81795 0.94939 0.91249 0.0
O139 O 0.82838 0.87497 0.92583 0.0
O140 O 0.8351 0.0044 0.89336 0.0
C141 C 0.85235 0.64845 0.92648 0.0
O142 O 0.82507 0.68311 0.92024 0.0
C143 C 0.87415 0.20701 0.89041 0.0
C144 C 0.89849 0.26696 0.83777 0.0
C145 C 0.8826 0.28819 0.87332 0.0
N146 N 0.88465 0.14047 0.86639 0.0
N147 N 0.89926 0.17655 0.83494 0.0
C148 C 0.85561 0.1924 0.92841 0.0
H149 H 0.83109 0.18651 0.91985 0.0
H150 H 0.86267 0.12899 0.94358 0.0
H151 H 0.85804 0.24949 0.95001 0.0
C152 C 0.92559 0.88523 0.96243 0.0
N153 N 0.90236 0.89981 0.93598 0.0
N154 N 0.90594 0.97931 0.91907 0.0
C155 C 0.93148 0.01771 0.93417 0.0
C156 C 0.94473 0.95998 0.96226 0.0
C157 C 0.93062 0.7987 0.98461 0.0
H158 H 0.93724 0.74613 0.96215 0.0
H159 H 0.90892 0.77704 0.99934 0.0
H160 H 0.94895 0.80522 0.00798 0.0
O161 O 0.87556 0.81039 0.85571 0.0
O162 O 0.88556 0.9418 0.82644 0.0
H163 H 0.94489 0.10784 0.88634 0.0
H164 H 0.9672 0.11906 0.93282 0.0
C165 C 0.94402 0.10597 0.92028 0.0
H166 H 0.92846 0.15958 0.93101 0.0
H167 H 0.9096 0.13958 0.81153 0.0
O168 O 0.87484 0.70046 0.93319 0.0
C169 C 0.88197 0.85685 0.82424 0.0
Co170 Co 0.63718 0.166 0.91399 0.0
Co171 Co 0.62843 0.97722 0.8749 0.0
C172 C 0.68889 0.04257 0.91241 0.0
O173 O 0.67843 0.1161 0.92664 0.0
O174 O 0.67212 0.9897 0.89158 0.0
C175 C 0.63024 0.35793 0.95375 0.0
O176 O 0.62622 0.34271 0.99301 0.0
C177 C 0.6362 0.78393 0.88137 0.0
C178 C 0.59391 0.734 0.85219 0.0
C179 C 0.61845 0.70745 0.87636 0.0
N180 N 0.62185 0.85322 0.86324 0.0
N181 N 0.59732 0.82219 0.84426 0.0
C182 C 0.66617 0.79152 0.90348 0.0
H183 H 0.68331 0.82324 0.88296 0.0
H184 H 0.66338 0.83508 0.93084 0.0
H185 H 0.67505 0.72487 0.91291 0.0
C186 C 0.5807 0.10977 0.96038 0.0
N187 N 0.60408 0.09424 0.93405 0.0
N188 N 0.60056 0.01388 0.9177 0.0
C189 C 0.57504 0.97597 0.93378 0.0
C190 C 0.56169 0.03525 0.96108 0.0
C191 C 0.57557 0.19566 0.98293 0.0
H192 H 0.59392 0.20364 0.00607 0.0
H193 H 0.55305 0.19614 0.99879 0.0
H194 H 0.57659 0.25266 0.96119 0.0
O195 O 0.63318 0.18056 0.85395 0.0
O196 O 0.62203 0.05031 0.8245 0.0
H197 H 0.55295 0.89038 0.89057 0.0
H198 H 0.54329 0.8661 0.94296 0.0
C199 C 0.56215 0.88663 0.92214 0.0
H200 H 0.58032 0.83529 0.92364 0.0
H201 H 0.58164 0.86244 0.82861 0.0
O202 O 0.63398 0.29288 0.92924 0.0
C203 C 0.62655 0.13471 0.82237 0.0
Co204 Co 0.87157 0.67485 0.58421 0.0
Co205 Co 0.87676 0.4843 0.62284 0.0
C206 C 0.8183 0.55399 0.58202 0.0
O207 O 0.83004 0.62757 0.56973 0.0
O208 O 0.83371 0.49818 0.60313 0.0
C209 C 0.85433 0.85287 0.56671 0.0
O210 O 0.82662 0.81873 0.56473 0.0
C211 C 0.87236 0.29353 0.60803 0.0
C212 C 0.89224 0.23178 0.66344 0.0
C213 C 0.87908 0.21186 0.62588 0.0
N214 N 0.8813 0.35929 0.63353 0.0
N215 N 0.89322 0.32214 0.66667 0.0
C216 C 0.85688 0.30913 0.5678 0.0
H217 H 0.86422 0.37435 0.55457 0.0
H218 H 0.86193 0.2538 0.54601 0.0
H219 H 0.83173 0.31148 0.57279 0.0
C220 C 0.92805 0.61336 0.54076 0.0
N221 N 0.90393 0.59986 0.56593 0.0
N222 N 0.90619 0.51961 0.58252 0.0
C223 C 0.93179 0.47946 0.56825 0.0
C224 C 0.94646 0.53706 0.54123 0.0
C225 C 0.93422 0.69972 0.51893 0.0
H226 H 0.93956 0.75257 0.54184 0.0
H227 H 0.91332 0.72112 0.50223 0.0
H228 H 0.95371 0.69316 0.49726 0.0
O229 O 0.87433 0.68927 0.64435 0.0
O230 O 0.88179 0.55726 0.67425 0.0
H231 H 0.94098 0.38143 0.61466 0.0
H232 H 0.96642 0.37527 0.57087 0.0
C233 C 0.94255 0.38839 0.58092 0.0
H234 H 0.92742 0.33785 0.56653 0.0
H235 H 0.90188 0.35833 0.69147 0.0
O236 O 0.87731 0.80058 0.56733 0.0
C237 C 0.8791 0.64254 0.67629 0.0
Co238 Co 0.63714 0.33318 0.58419 0.0
Co239 Co 0.63003 0.52238 0.62793 0.0
C240 C 0.68981 0.45553 0.58776 0.0
O241 O 0.67959 0.38025 0.57505 0.0
O242 O 0.67245 0.50992 0.60695 0.0
C243 C 0.6269 0.13683 0.54217 0.0
O244 O 0.61848 0.13298 0.50356 0.0
C245 C 0.63918 0.71748 0.62337 0.0
C246 C 0.59888 0.77032 0.65619 0.0
C247 C 0.62269 0.796 0.6305 0.0
N248 N 0.62477 0.64823 0.64177 0.0
N249 N 0.60147 0.68117 0.66289 0.0
C250 C 0.66797 0.70828 0.59867 0.0
H251 H 0.68569 0.67445 0.61746 0.0
H252 H 0.66349 0.66617 0.57126 0.0
H253 H 0.67705 0.77455 0.589 0.0
C254 C 0.58264 0.40245 0.53916 0.0
N255 N 0.60556 0.4135 0.5665 0.0
N256 N 0.60142 0.49007 0.58606 0.0
C257 C 0.57554 0.52914 0.57189 0.0
C258 C 0.56287 0.47512 0.54185 0.0
C259 C 0.57868 0.32145 0.5127 0.0
H260 H 0.6006 0.30648 0.4969 0.0
H261 H 0.56032 0.33167 0.48967 0.0
H262 H 0.57262 0.26315 0.53227 0.0
O263 O 0.6325 0.31014 0.64324 0.0
O264 O 0.62557 0.43953 0.67641 0.0
H265 H 0.54048 0.63225 0.57166 0.0
H266 H 0.57822 0.66887 0.58599 0.0
C267 C 0.56158 0.61327 0.5885 0.0
H268 H 0.55565 0.60298 0.62117 0.0
H269 H 0.58598 0.64196 0.67943 0.0
O270 O 0.63084 0.21378 0.55823 0.0
C271 C 0.6279 0.35381 0.67618 0.0
C272 C 0.23885 0.03732 0.12139 0.0
C273 C 0.22181 0.02918 0.08471 0.0
C274 C 0.26796 0.97598 0.04885 0.0
C275 C 0.28406 0.97512 0.08672 0.0
N276 N 0.28187 0.98368 0.16072 0.0
N277 N 0.21847 0.97954 0.01467 0.0
C278 C 0.26868 9e-05 0.12347 0.0
C279 C 0.23588 0.9953 0.04867 0.0
N280 N 0.22665 0.08188 0.15425 0.0
N281 N 0.28343 0.9621 0.01299 0.0
H282 H 0.19519 0.99529 0.01333 0.0
H283 H 0.22658 0.94546 0.98897 0.0
H284 H 0.30689 0.94915 0.01186 0.0
H285 H 0.27355 0.97075 0.98424 0.0
H286 H 0.23928 0.09812 0.18029 0.0
H287 H 0.20483 0.11058 0.15388 0.0
H288 H 0.27037 0.99232 0.18843 0.0
H289 H 0.30298 0.95173 0.16405 0.0
C290 C 0.26865 0.52766 0.37737 0.0
C291 C 0.28588 0.52222 0.41402 0.0
C292 C 0.23997 0.47018 0.45081 0.0
C293 C 0.22367 0.46699 0.41311 0.0
N294 N 0.22545 0.47154 0.33904 0.0
N295 N 0.28959 0.47627 0.48454 0.0
C296 C 0.23886 0.48989 0.37597 0.0
C297 C 0.27202 0.49002 0.45052 0.0
N298 N 0.28049 0.5711 0.34401 0.0
N299 N 0.22468 0.45817 0.48694 0.0
H300 H 0.31289 0.49188 0.48548 0.0
H301 H 0.28163 0.44353 0.51065 0.0
H302 H 0.20126 0.44483 0.48842 0.0
H303 H 0.23466 0.46875 0.5155 0.0
H304 H 0.26771 0.58536 0.31787 0.0
H305 H 0.30209 0.60115 0.34406 0.0
H306 H 0.23682 0.47855 0.31114 0.0
H307 H 0.20428 0.43978 0.33628 0.0
C308 C 0.76925 0.98937 0.87661 0.0
C309 C 0.78447 0.96898 0.91391 0.0
C310 C 0.73607 0.99245 0.9512 0.0
C311 C 0.7222 0.02287 0.91442 0.0
N312 N 0.72754 0.06834 0.84388 0.0
N313 N 0.78342 0.96183 0.98773 0.0
C314 C 0.73942 0.02681 0.87767 0.0
C315 C 0.76815 0.97306 0.95159 0.0
N316 N 0.78266 0.96851 0.83995 0.0
N317 N 0.71848 0.97976 0.98534 0.0
H318 H 0.80683 0.94813 0.98916 0.0
H319 H 0.77344 0.97297 0.01628 0.0
H320 H 0.69514 0.99495 0.98616 0.0
H321 H 0.72647 0.94832 0.01174 0.0
H322 H 0.77143 0.97425 0.81193 0.0
H323 H 0.80364 0.93534 0.83789 0.0
H324 H 0.74033 0.08118 0.81754 0.0
H325 H 0.70593 0.09829 0.84367 0.0
C326 C 0.74023 0.46377 0.54756 0.0
C327 C 0.72305 0.47943 0.58409 0.0
C328 C 0.766 0.56665 0.61129 0.0
C329 C 0.78477 0.53862 0.57847 0.0
N330 N 0.79091 0.45139 0.51691 0.0
N331 N 0.72484 0.52223 0.65581 0.0
C332 C 0.77227 0.48408 0.54703 0.0
C333 C 0.73739 0.52442 0.61743 0.0
N334 N 0.72596 0.43399 0.51292 0.0
N335 N 0.77537 0.63424 0.63655 0.0
H336 H 0.70569 0.48357 0.66316 0.0
H337 H 0.7359 0.54885 0.68139 0.0
H338 H 0.79538 0.67042 0.63089 0.0
H339 H 0.7614 0.66136 0.65937 0.0
H340 H 0.73701 0.4292 0.48468 0.0
H341 H 0.70243 0.42292 0.51126 0.0
H342 H 0.78378 0.40347 0.49568 0.0
H343 H 0.81407 0.46832 0.51492 0.0
C344 C 0.00367 0.0248 0.04334 0.0
C345 C 0.03117 0.01825 0.02017 0.0
C346 C 1.00223 0.96587 0.96027 0.0
C347 C 0.97468 0.97325 0.98326 0.0
N348 N 0.94861 -0.00033 0.04716 0.0
N349 N 0.05705 0.9937 0.95597 0.0
C350 C 0.97525 -0.00012 0.02501 0.0
C351 C 0.03055 0.99188 0.97841 0.0
N352 N 0.0048 0.0582 0.0824 0.0
N353 N 1.00127 0.9304 0.9216 0.0
H354 H 0.07828 0.00999 0.96857 0.0
H355 H 0.05801 0.98494 0.92439 0.0
H356 H 0.98099 0.90953 0.90766 0.0
H357 H 0.02054 0.91515 0.90417 0.0
H358 H 0.98569 0.0718 0.10039 0.0
H359 H 0.02516 0.07815 0.09643 0.0
H360 H 0.94736 0.00981 0.07863 0.0
H361 H 0.92738 0.98416 0.03438 0.0
C362 C 0.5018 0.97985 0.04273 0.0
C363 C 0.47435 0.98918 0.01973 0.0
C364 C 0.50406 0.03385 0.95902 0.0
C365 C 0.5315 0.02424 0.982 0.0
N366 N 0.55709 -0.00057 0.04627 0.0
N367 N 0.4487 0.01579 0.95562 0.0
C368 C 0.53052 0.00048 0.02407 0.0
C369 C 0.47531 0.01371 0.97772 0.0
N370 N 0.50039 0.94701 0.08185 0.0
N371 N 0.50556 0.06608 0.91979 0.0
H372 H 0.4272 0.00483 0.96868 0.0
H373 H 0.44768 0.02338 0.924 0.0
H374 H 0.52615 0.0824 0.90535 0.0
H375 H 0.48659 0.0827 0.90214 0.0
H376 H 0.51944 0.93009 0.09931 0.0
H377 H 0.47986 0.93029 0.09631 0.0
H378 H 0.55802 0.99255 0.07794 0.0
H379 H 0.57856 0.01111 0.03328 0.0
C380 C 0.00563 0.47514 0.4595 0.0
C381 C 0.03322 0.48083 0.48245 0.0
C382 C 0.00405 0.526 0.54367 0.0
C383 C 0.97653 0.52162 0.52048 0.0
N384 N 0.9508 0.50276 0.45583 0.0
N385 N 0.05921 0.50209 0.54675 0.0
C386 C 0.97726 0.49923 0.47822 0.0
C387 C 0.03255 0.50351 0.52472 0.0
N388 N 0.00652 0.44233 0.42034 0.0
N389 N 1.0029 0.55555 0.58338 0.0
H390 H 0.08055 0.48972 0.53353 0.0
H391 H 0.06041 0.5085 0.57841 0.0
H392 H 0.98254 0.57367 0.59795 0.0
H393 H 0.02199 0.56765 0.60154 0.0
H394 H 0.9872 0.42785 0.40294 0.0
H395 H 0.02676 0.42252 0.40591 0.0
H396 H 0.95 0.49813 0.42406 0.0
H397 H 0.92943 0.51618 0.46878 0.0
C398 C 0.50311 0.565 0.46669 0.0
C399 C 0.47612 0.52427 0.48248 0.0
C400 C 0.50622 0.44707 0.53545 0.0
C401 C 0.53313 0.48936 0.52036 0.0
N402 N 0.55815 0.58947 0.47309 0.0
N403 N 0.45063 0.43569 0.53388 0.0
C404 C 0.5318 0.54889 0.48638 0.0
C405 C 0.47734 0.46759 0.51738 0.0
N406 N 0.50117 0.61778 0.43245 0.0
N407 N 0.50846 0.38631 0.56675 0.0
H408 H 0.42915 0.44898 0.52126 0.0
H409 H 0.4492 0.40108 0.56147 0.0
H410 H 0.52894 0.37256 0.58191 0.0
H411 H 0.49057 0.34544 0.5765 0.0
H412 H 0.51973 0.64701 0.41765 0.0
H413 H 0.48055 0.6314 0.4176 0.0
H414 H 0.55924 0.63754 0.45009 0.0
H415 H 0.57959 0.5763 0.48584 0.0
C416 C 0.15162 0.23394 0.27795 0.0
C417 C 0.12648 0.29155 0.28707 0.0
C418 C 0.09969 0.23659 0.22586 0.0
C419 C 0.12389 0.17448 0.21865 0.0
N420 N 0.17044 0.10323 0.24136 0.0
N421 N 0.07439 0.33699 0.27382 0.0
C422 C 0.14897 0.16939 0.24602 0.0
C423 C 0.09991 0.29028 0.26206 0.0
N424 N 0.17872 0.24429 0.29843 0.0
N425 N 0.07663 0.24487 0.1978 0.0
H426 H 0.07362 0.37678 0.30011 0.0
H427 H 0.05324 0.33098 0.25938 0.0
H428 H 0.07445 0.20233 0.17254 0.0
H429 H 0.06057 0.2966 0.19839 0.0
H430 H 0.19886 0.21124 0.2903 0.0
H431 H 0.18205 0.2928 0.32104 0.0
H432 H 0.18735 0.08981 0.26298 0.0
H433 H 0.16983 0.05641 0.21761 0.0
C434 C 0.40807 0.74285 0.27453 0.0
C435 C 0.38323 0.68374 0.28265 0.0
C436 C 0.35528 0.74439 0.22385 0.0
C437 C 0.3808 0.79979 0.21404 0.0
N438 N 0.43336 0.84199 0.22593 0.0
N439 N 0.33592 0.61533 0.261 0.0
C440 C 0.40773 0.7967 0.23836 0.0
C441 C 0.35774 0.68031 0.25592 0.0
N442 N 0.43195 0.74745 0.30152 0.0
N443 N 0.32811 0.75602 0.20366 0.0
H444 H 0.33675 0.56793 0.28447 0.0
H445 H 0.31855 0.60309 0.23988 0.0
H446 H 0.32504 0.80387 0.18072 0.0
H447 H 0.30777 0.72467 0.21225 0.0
H448 H 0.44919 0.79561 0.29998 0.0
H449 H 0.43377 0.70533 0.32695 0.0
H450 H 0.45472 0.83502 0.2397 0.0
H451 H 0.43391 0.88214 0.19977 0.0
C452 C 0.90739 0.74537 0.77712 0.0
C453 C 0.8836 0.80881 0.78441 0.0
C454 C 0.85489 0.74756 0.72652 0.0
C455 C 0.87995 0.6911 0.71624 0.0
N456 N 0.9321 0.64487 0.7286 0.0
N457 N 0.83734 0.88151 0.76142 0.0
C458 C 0.90678 0.69187 0.7408 0.0
C459 C 0.85828 0.81379 0.75745 0.0
N460 N 0.93047 0.73594 0.80504 0.0
N461 N 0.8272 0.73422 0.70813 0.0
H462 H 0.83926 0.93195 0.7834 0.0
H463 H 0.81979 0.89274 0.74046 0.0
H464 H 0.82357 0.68119 0.68791 0.0
H465 H 0.80723 0.76781 0.71658 0.0
H466 H 0.94632 0.68366 0.80417 0.0
H467 H 0.9328 0.77794 0.83047 0.0
H468 H 0.95337 0.65064 0.74275 0.0
H469 H 0.93249 0.60483 0.70239 0.0
C470 C 0.59987 0.24182 0.77483 0.0
C471 C 0.62482 0.18294 0.78269 0.0
C472 C 0.6529 0.24628 0.72449 0.0
C473 C 0.62725 0.30119 0.71486 0.0
N474 N 0.57447 0.34147 0.72667 0.0
N475 N 0.6724 0.1163 0.76083 0.0
C476 C 0.6002 0.29661 0.73898 0.0
C477 C 0.65045 0.18097 0.75607 0.0
N478 N 0.57594 0.24549 0.80184 0.0
N479 N 0.68016 0.25962 0.70467 0.0
H480 H 0.67146 0.06784 0.78384 0.0
H481 H 0.68999 0.10539 0.73982 0.0
H482 H 0.68324 0.309 0.68236 0.0
H483 H 0.70053 0.22826 0.71308 0.0
H484 H 0.55867 0.29365 0.80057 0.0
H485 H 0.57411 0.20262 0.82702 0.0
H486 H 0.55307 0.33332 0.74026 0.0
H487 H 0.57392 0.38245 0.70078 0.0
C488 C 0.11345 0.57447 0.07219 0.0
C489 C 0.13396 0.61323 0.10095 0.0
C490 C 0.16868 0.48413 0.09448 0.0
C491 C 0.14736 0.443 0.06725 0.0
N492 N 0.10176 0.45014 0.02612 0.0
N493 N 0.18045 0.60832 0.14045 0.0
C494 C 0.12047 0.48912 0.05471 0.0
C495 C 0.16165 0.56955 0.11187 0.0
N496 N 0.08703 0.61906 0.06238 0.0
N497 N 0.19538 0.44091 0.10426 0.0
H498 H 0.17647 0.67179 0.15292 0.0
H499 H 0.1994 0.57738 0.15351 0.0
H500 H 0.20048 0.37546 0.09546 0.0
H501 H 0.2135 0.47035 0.11991 0.0
H502 H 0.07094 0.5973 0.04119 0.0
H503 H 0.08062 0.67917 0.07627 0.0
H504 H 0.08115 0.47669 0.01588 0.0
H505 H 0.10743 0.3904 0.01118 0.0
C506 C 0.37257 0.38969 0.06695 0.0
C507 C 0.37942 0.38583 0.1095 0.0
C508 C 0.38746 0.54947 0.10821 0.0
C509 C 0.37607 0.55335 0.06731 0.0
N510 N 0.34703 0.47608 0.01494 0.0
N511 N 0.38579 0.46882 0.17266 0.0
C512 C 0.36499 0.47321 0.04913 0.0
C513 C 0.38435 0.46793 0.13089 0.0
N514 N 0.37559 0.31599 0.04239 0.0
N515 N 0.4032 0.61995 0.12471 0.0
H516 H 0.38251 0.41128 0.19033 0.0
H517 H 0.38681 0.52822 0.18958 0.0
H518 H 0.40884 0.67746 0.10827 0.0
H519 H 0.41386 0.61654 0.15323 0.0
H520 H 0.37273 0.31908 0.01069 0.0
H521 H 0.3848 0.25557 0.05255 0.0
H522 H 0.33704 0.41853 0.00249 0.0
H523 H 0.33908 0.53626 0.00247 0.0
C524 C 0.11819 0.03879 0.39412 0.0
C525 C 0.12887 0.04333 0.43538 0.0
C526 C 0.13119 0.87945 0.43658 0.0
C527 C 0.12576 0.87536 0.39364 0.0
N528 N 0.12147 0.9576 0.33001 0.0
N529 N 0.15546 0.96532 0.48989 0.0
C530 C 0.12167 0.95709 0.37184 0.0
C531 C 0.13857 0.96293 0.45471 0.0
N532 N 0.10274 0.10896 0.37683 0.0
N533 N 0.12742 0.8058 0.46094 0.0
H534 H 0.16366 0.02498 0.50256 0.0
H535 H 0.16455 0.9074 0.50315 0.0
H536 H 0.11896 0.74497 0.45014 0.0
H537 H 0.12906 0.80904 0.49279 0.0
H538 H 0.09275 0.10499 0.34788 0.0
H539 H 0.09626 0.16616 0.39302 0.0
H540 H 0.12109 0.0169 0.313 0.0
H541 H 0.12518 0.89993 0.31254 0.0
C542 C 0.3743 0.02903 0.45748 0.0
C543 C 0.38313 0.94966 0.43646 0.0
C544 C 0.39285 0.03917 0.375 0.0
C545 C 0.38791 0.1193 0.39747 0.0
N546 N 0.38616 0.18595 0.46536 0.0
N547 N 0.41348 0.89012 0.38014 0.0
C548 C 0.38231 0.11331 0.44038 0.0
C549 C 0.39621 0.9576 0.39661 0.0
N550 N 0.35736 0.02551 0.49261 0.0
N551 N 0.39363 0.03947 0.33317 0.0
H552 H 0.41996 0.83321 0.39659 0.0
H553 H 0.42511 0.89765 0.35243 0.0
H554 H 0.38918 0.09666 0.31576 0.0
H555 H 0.3951 0.98038 0.31605 0.0
H556 H 0.34878 0.08323 0.5067 0.0
H557 H 0.3488 0.96595 0.5048 0.0
H558 H 0.38434 0.18159 0.49717 0.0
H559 H 0.39479 0.24698 0.45493 0.0
C560 C 0.87645 0.49811 0.93985 0.0
C561 C 0.85877 0.55452 0.9141 0.0
C562 C 0.85366 0.43198 0.86445 0.0
C563 C 0.87427 0.37945 0.88777 0.0
N564 N 0.91025 0.36951 0.94365 0.0
N565 N 0.83843 0.58218 0.84609 0.0
C566 C 0.88707 0.41436 0.92445 0.0
C567 C 0.84938 0.52353 0.87481 0.0
N568 N 0.88259 0.52359 0.97923 0.0
N569 N 0.83767 0.39437 0.8328 0.0
H570 H 0.83708 0.65132 0.85069 0.0
H571 H 0.83423 0.56357 0.81582 0.0
H572 H 0.83982 0.32701 0.82446 0.0
H573 H 0.82006 0.42791 0.8176 0.0
H574 H 0.89285 0.4812 0.00058 0.0
H575 H 0.87484 0.58406 0.99168 0.0
H576 H 0.92252 0.3961 0.96818 0.0
H577 H 0.91923 0.30954 0.93245 0.0
C578 C 0.61575 0.53896 0.87466 0.0
C579 C 0.62155 0.6187 0.897 0.0
C580 C 0.63579 0.52749 0.95642 0.0
C581 C 0.6258 0.44891 0.93583 0.0
N582 N 0.59459 0.39064 0.88017 0.0
N583 N 0.62564 0.6852 0.96479 0.0
C584 C 0.61229 0.45747 0.89631 0.0
C585 C 0.62819 0.61234 0.93963 0.0
N586 N 0.6142 0.53965 0.83287 0.0
N587 N 0.65338 0.5225 0.99089 0.0
H588 H 0.61729 0.7469 0.95484 0.0
H589 H 0.62821 0.68069 0.99649 0.0
H590 H 0.66146 0.46213 0.00285 0.0
H591 H 0.66289 0.57937 0.00458 0.0
H592 H 0.61217 0.48081 0.81568 0.0
H593 H 0.61857 0.59686 0.81541 0.0
H594 H 0.58262 0.39863 0.85278 0.0
H595 H 0.5882 0.33362 0.89659 0.0
C596 C 0.84352 0.98058 0.6152 0.0
C597 C 0.85885 0.94738 0.57973 0.0
C598 C 0.88977 0.08457 0.57727 0.0
C599 C 0.87199 0.1213 0.60961 0.0
N600 N 0.82761 0.1118 0.65349 0.0
N601 N 0.89284 0.97431 0.52274 0.0
C602 C 0.84743 0.07176 0.62664 0.0
C603 C 0.88086 0.00149 0.55942 0.0
N604 N 0.82711 0.92406 0.63991 0.0
N605 N 0.91588 0.12708 0.56476 0.0
H606 H 0.88648 0.91434 0.50852 0.0
H607 H 0.90677 0.01498 0.50464 0.0
H608 H 0.92361 0.18634 0.57821 0.0
H609 H 0.93137 0.09913 0.54407 0.0
H610 H 0.81802 0.94393 0.66801 0.0
H611 H 0.8255 0.85506 0.63511 0.0
H612 H 0.80742 0.0813 0.66336 0.0
H613 H 0.8298 0.17851 0.66286 0.0
C614 C 0.62953 0.88828 0.56579 0.0
C615 C 0.62539 0.88464 0.60897 0.0
C616 C 0.61877 0.04849 0.60878 0.0
C617 C 0.62827 0.0522 0.56694 0.0
N618 N 0.65308 0.97236 0.51135 0.0
N619 N 0.62334 0.96734 0.67274 0.0
C620 C 0.63702 0.97117 0.54726 0.0
C621 C 0.6224 0.96668 0.63094 0.0
N622 N 0.62444 0.81482 0.5417 0.0
N623 N 0.60424 0.11951 0.62682 0.0
H624 H 0.62708 0.90947 0.69001 0.0
H625 H 0.62381 0.0267 0.68974 0.0
H626 H 0.59753 0.17672 0.61089 0.0
H627 H 0.59516 0.11637 0.65635 0.0
H628 H 0.62526 0.81784 0.50978 0.0
H629 H 0.61567 0.75477 0.55302 0.0
H630 H 0.66142 0.91378 0.49773 0.0
H631 H 0.66143 0.03147 0.49833 0.0
loop_
_geom_bond_atom_site_label_1
_geom_bond_atom_site_label_2
_geom_bond_distance
_geom_bond_site_symmetry_2
_ccdc_geom_bond_type
Co0 O3 1.970 . S
Co0 N17 1.989 . S
Co0 O25 1.967 . S
Co0 O32 1.920 . S
Co1 O4 1.966 . S
Co1 N10 2.022 . S
Co1 N18 1.993 1_565 S
Co1 O26 1.941 1_565 S
C2 O3 1.258 . S
C2 O4 1.263 1_545 S
O3 Co0 1.970 . S
O3 C2 1.258 . S
O4 Co1 1.966 . S
O4 C2 1.263 1_565 S
C5 O6 1.235 . S
C5 O32 1.289 . S
O6 C5 1.235 . S
C7 C9 1.400 . S
C7 N10 1.351 . S
C7 C12 1.501 . S
C8 C9 1.387 . S
C8 N11 1.341 . S
C9 C7 1.400 . S
C9 C8 1.387 . S
N10 Co1 2.022 . S
N10 C7 1.351 . S
N10 N11 1.365 . S
N11 C8 1.341 . S
N11 N10 1.365 . S
N11 H31 0.862 . S
C12 C7 1.501 . S
C12 H13 0.961 . S
C12 H14 0.961 . S
C12 H15 0.960 . S
H13 C12 0.961 . S
H14 C12 0.961 . S
H15 C12 0.960 . S
C16 N17 1.342 . S
C16 C20 1.401 . S
C16 C21 1.499 . S
N17 Co0 1.989 . S
N17 C16 1.342 . S
N17 N18 1.388 . S
N18 Co1 1.993 1_545 S
N18 N17 1.388 . S
N18 C19 1.346 1_545 S
C19 N18 1.346 1_565 S
C19 C20 1.396 1_565 S
C19 C29 1.510 . S
C20 C16 1.401 . S
C20 C19 1.396 1_545 S
C21 C16 1.499 . S
C21 H22 0.959 . S
C21 H23 0.960 . S
C21 H24 0.961 . S
H22 C21 0.959 . S
H23 C21 0.960 . S
H24 C21 0.961 . S
O25 Co0 1.967 . S
O25 C33 1.258 . S
O26 Co1 1.941 1_545 S
O26 C33 1.266 . S
H27 C29 0.959 . S
H28 C29 0.961 . S
C29 C19 1.510 . S
C29 H27 0.959 . S
C29 H28 0.961 . S
C29 H30 0.960 . S
H30 C29 0.960 . S
H31 N11 0.862 . S
O32 Co0 1.920 . S
O32 C5 1.289 . S
C33 O25 1.258 . S
C33 O26 1.266 . S
Co34 O37 1.970 . S
Co34 N51 1.989 . S
Co34 O59 1.967 . S
Co34 O66 1.920 . S
Co35 O38 1.966 . S
Co35 N44 2.022 . S
Co35 N52 1.993 1_545 S
Co35 O60 1.941 1_545 S
C36 O37 1.258 . S
C36 O38 1.263 1_565 S
O37 Co34 1.970 . S
O37 C36 1.258 . S
O38 Co35 1.966 . S
O38 C36 1.263 1_545 S
C39 O40 1.235 . S
C39 O66 1.289 . S
O40 C39 1.235 . S
C41 C43 1.400 . S
C41 N44 1.351 . S
C41 C46 1.501 . S
C42 C43 1.387 . S
C42 N45 1.341 . S
C43 C41 1.400 . S
C43 C42 1.387 . S
N44 Co35 2.022 . S
N44 C41 1.351 . S
N44 N45 1.365 . S
N45 C42 1.341 . S
N45 N44 1.365 . S
N45 H65 0.862 . S
C46 C41 1.501 . S
C46 H47 0.961 . S
C46 H48 0.961 . S
C46 H49 0.960 . S
H47 C46 0.961 . S
H48 C46 0.961 . S
H49 C46 0.960 . S
C50 N51 1.342 . S
C50 C54 1.401 . S
C50 C55 1.499 . S
N51 Co34 1.989 . S
N51 C50 1.342 . S
N51 N52 1.388 . S
N52 Co35 1.993 1_565 S
N52 N51 1.388 . S
N52 C53 1.346 1_565 S
C53 N52 1.346 1_545 S
C53 C54 1.396 1_545 S
C53 C63 1.510 . S
C54 C50 1.401 . S
C54 C53 1.396 1_565 S
C55 C50 1.499 . S
C55 H56 0.959 . S
C55 H57 0.960 . S
C55 H58 0.961 . S
H56 C55 0.959 . S
H57 C55 0.960 . S
H58 C55 0.961 . S
O59 Co34 1.967 . S
O59 C67 1.258 . S
O60 Co35 1.941 1_565 S
O60 C67 1.266 . S
H61 C63 0.959 . S
H62 C63 0.961 . S
C63 C53 1.510 . S
C63 H61 0.959 . S
C63 H62 0.961 . S
C63 H64 0.960 . S
H64 C63 0.960 . S
H65 N45 0.862 . S
O66 Co34 1.920 . S
O66 C39 1.289 . S
C67 O59 1.258 . S
C67 O60 1.266 . S
Co68 O71 1.970 . S
Co68 N85 1.989 . S
Co68 O93 1.967 . S
Co68 O100 1.920 . S
Co69 O72 1.966 . S
Co69 N78 2.022 . S
Co69 N86 1.993 . S
Co69 O94 1.941 . S
C70 O71 1.258 . S
C70 O72 1.263 . S
O71 Co68 1.970 . S
O71 C70 1.258 . S
O72 Co69 1.966 . S
O72 C70 1.263 . S
C73 O74 1.235 . S
C73 O100 1.289 . S
O74 C73 1.235 . S
C75 C77 1.400 . S
C75 N78 1.351 . S
C75 C80 1.501 . S
C76 C77 1.387 . S
C76 N79 1.341 . S
C77 C75 1.400 . S
C77 C76 1.387 . S
N78 Co69 2.022 . S
N78 C75 1.351 . S
N78 N79 1.365 . S
N79 C76 1.341 . S
N79 N78 1.365 . S
N79 H99 0.862 . S
C80 C75 1.501 . S
C80 H81 0.961 . S
C80 H82 0.961 . S
C80 H83 0.960 . S
H81 C80 0.961 . S
H82 C80 0.961 . S
H83 C80 0.960 . S
C84 N85 1.342 . S
C84 C88 1.401 . S
C84 C89 1.499 . S
N85 Co68 1.989 . S
N85 C84 1.342 . S
N85 N86 1.388 . S
N86 Co69 1.993 . S
N86 N85 1.388 . S
N86 C87 1.346 . S
C87 N86 1.346 . S
C87 C88 1.396 . S
C87 C97 1.510 . S
C88 C84 1.401 . S
C88 C87 1.396 . S
C89 C84 1.499 . S
C89 H90 0.959 . S
C89 H91 0.960 . S
C89 H92 0.961 . S
H90 C89 0.959 . S
H91 C89 0.960 . S
H92 C89 0.961 . S
O93 Co68 1.967 . S
O93 C101 1.258 . S
O94 Co69 1.941 . S
O94 C101 1.266 . S
H95 C97 0.959 . S
H96 C97 0.961 . S
C97 C87 1.510 . S
C97 H95 0.959 . S
C97 H96 0.961 . S
C97 H98 0.960 . S
H98 C97 0.960 . S
H99 N79 0.862 . S
O100 Co68 1.920 . S
O100 C73 1.289 . S
C101 O93 1.258 . S
C101 O94 1.266 . S
Co102 O105 1.970 . S
Co102 N119 1.989 . S
Co102 O127 1.967 . S
Co102 O134 1.920 . S
Co103 O106 1.966 . S
Co103 N112 2.022 . S
Co103 N120 1.993 . S
Co103 O128 1.941 . S
C104 O105 1.258 . S
C104 O106 1.263 . S
O105 Co102 1.970 . S
O105 C104 1.258 . S
O106 Co103 1.966 . S
O106 C104 1.263 . S
C107 O108 1.235 . S
C107 O134 1.289 . S
O108 C107 1.235 . S
C109 C111 1.400 . S
C109 N112 1.351 . S
C109 C114 1.501 . S
C110 C111 1.387 . S
C110 N113 1.341 . S
C111 C109 1.400 . S
C111 C110 1.387 . S
N112 Co103 2.022 . S
N112 C109 1.351 . S
N112 N113 1.365 . S
N113 C110 1.341 . S
N113 N112 1.365 . S
N113 H133 0.862 . S
C114 C109 1.501 . S
C114 H115 0.961 . S
C114 H116 0.961 . S
C114 H117 0.960 . S
H115 C114 0.961 . S
H116 C114 0.961 . S
H117 C114 0.960 . S
C118 N119 1.342 . S
C118 C122 1.401 . S
C118 C123 1.499 . S
N119 Co102 1.989 . S
N119 C118 1.342 . S
N119 N120 1.388 . S
N120 Co103 1.993 . S
N120 N119 1.388 . S
N120 C121 1.346 . S
C121 N120 1.346 . S
C121 C122 1.396 . S
C121 C131 1.510 . S
C122 C118 1.401 . S
C122 C121 1.396 . S
C123 C118 1.499 . S
C123 H124 0.959 . S
C123 H125 0.960 . S
C123 H126 0.961 . S
H124 C123 0.959 . S
H125 C123 0.960 . S
H126 C123 0.961 . S
O127 Co102 1.967 . S
O127 C135 1.258 . S
O128 Co103 1.941 . S
O128 C135 1.266 . S
H129 C131 0.959 . S
H130 C131 0.961 . S
C131 C121 1.510 . S
C131 H129 0.959 . S
C131 H130 0.961 . S
C131 H132 0.960 . S
H132 C131 0.960 . S
H133 N113 0.862 . S
O134 Co102 1.920 . S
O134 C107 1.289 . S
C135 O127 1.258 . S
C135 O128 1.266 . S
Co136 O139 1.970 . S
Co136 N153 1.989 . S
Co136 O161 1.967 . S
Co136 O168 1.920 . S
Co137 O140 1.966 . S
Co137 N146 2.022 . S
Co137 N154 1.993 1_545 S
Co137 O162 1.941 1_545 S
C138 O139 1.258 . S
C138 O140 1.263 1_565 S
O139 Co136 1.970 . S
O139 C138 1.258 . S
O140 Co137 1.966 . S
O140 C138 1.263 1_545 S
C141 O142 1.235 . S
C141 O168 1.289 . S
O142 C141 1.235 . S
C143 C145 1.400 . S
C143 N146 1.351 . S
C143 C148 1.501 . S
C144 C145 1.387 . S
C144 N147 1.341 . S
C145 C143 1.400 . S
C145 C144 1.387 . S
N146 Co137 2.022 . S
N146 C143 1.351 . S
N146 N147 1.365 . S
N147 C144 1.341 . S
N147 N146 1.365 . S
N147 H167 0.862 . S
C148 C143 1.501 . S
C148 H149 0.961 . S
C148 H150 0.961 . S
C148 H151 0.960 . S
H149 C148 0.961 . S
H150 C148 0.961 . S
H151 C148 0.960 . S
C152 N153 1.342 . S
C152 C156 1.401 . S
C152 C157 1.499 . S
N153 Co136 1.989 . S
N153 C152 1.342 . S
N153 N154 1.388 . S
N154 Co137 1.993 1_565 S
N154 N153 1.388 . S
N154 C155 1.346 1_565 S
C155 N154 1.346 1_545 S
C155 C156 1.396 1_545 S
C155 C165 1.510 . S
C156 C152 1.401 . S
C156 C155 1.396 1_565 S
C157 C152 1.499 . S
C157 H158 0.959 . S
C157 H159 0.960 . S
C157 H160 0.961 . S
H158 C157 0.959 . S
H159 C157 0.960 . S
H160 C157 0.961 . S
O161 Co136 1.967 . S
O161 C169 1.258 . S
O162 Co137 1.941 1_565 S
O162 C169 1.266 . S
H163 C165 0.959 . S
H164 C165 0.961 . S
C165 C155 1.510 . S
C165 H163 0.959 . S
C165 H164 0.961 . S
C165 H166 0.960 . S
H166 C165 0.960 . S
H167 N147 0.862 . S
O168 Co136 1.920 . S
O168 C141 1.289 . S
C169 O161 1.258 . S
C169 O162 1.266 . S
Co170 O173 1.970 . S
Co170 N187 1.989 . S
Co170 O195 1.967 . S
Co170 O202 1.920 . S
Co171 O174 1.966 . S
Co171 N180 2.022 . S
Co171 N188 1.993 1_565 S
Co171 O196 1.941 1_565 S
C172 O173 1.258 . S
C172 O174 1.263 1_545 S
O173 Co170 1.970 . S
O173 C172 1.258 . S
O174 Co171 1.966 . S
O174 C172 1.263 1_565 S
C175 O176 1.235 . S
C175 O202 1.289 . S
O176 C175 1.235 . S
C177 C179 1.400 . S
C177 N180 1.351 . S
C177 C182 1.501 . S
C178 C179 1.387 . S
C178 N181 1.341 . S
C179 C177 1.400 . S
C179 C178 1.387 . S
N180 Co171 2.022 . S
N180 C177 1.351 . S
N180 N181 1.365 . S
N181 C178 1.341 . S
N181 N180 1.365 . S
N181 H201 0.862 . S
C182 C177 1.501 . S
C182 H183 0.961 . S
C182 H184 0.961 . S
C182 H185 0.960 . S
H183 C182 0.961 . S
H184 C182 0.961 . S
H185 C182 0.960 . S
C186 N187 1.342 . S
C186 C190 1.401 . S
C186 C191 1.499 . S
N187 Co170 1.989 . S
N187 C186 1.342 . S
N187 N188 1.388 . S
N188 Co171 1.993 1_545 S
N188 N187 1.388 . S
N188 C189 1.346 1_545 S
C189 N188 1.346 1_565 S
C189 C190 1.396 1_565 S
C189 C199 1.510 . S
C190 C186 1.401 . S
C190 C189 1.396 1_545 S
C191 C186 1.499 . S
C191 H192 0.959 . S
C191 H193 0.960 . S
C191 H194 0.961 . S
H192 C191 0.959 . S
H193 C191 0.960 . S
H194 C191 0.961 . S
O195 Co170 1.967 . S
O195 C203 1.258 . S
O196 Co171 1.941 1_545 S
O196 C203 1.266 . S
H197 C199 0.959 . S
H198 C199 0.961 . S
C199 C189 1.510 . S
C199 H197 0.959 . S
C199 H198 0.961 . S
C199 H200 0.960 . S
H200 C199 0.960 . S
H201 N181 0.862 . S
O202 Co170 1.920 . S
O202 C175 1.289 . S
C203 O195 1.258 . S
C203 O196 1.266 . S
Co204 O207 1.970 . S
Co204 N221 1.989 . S
Co204 O229 1.967 . S
Co204 O236 1.920 . S
Co205 O208 1.966 . S
Co205 N214 2.022 . S
Co205 N222 1.993 . S
Co205 O230 1.941 . S
C206 O207 1.258 . S
C206 O208 1.263 . S
O207 Co204 1.970 . S
O207 C206 1.258 . S
O208 Co205 1.966 . S
O208 C206 1.263 . S
C209 O210 1.235 . S
C209 O236 1.289 . S
O210 C209 1.235 . S
C211 C213 1.400 . S
C211 N214 1.351 . S
C211 C216 1.501 . S
C212 C213 1.387 . S
C212 N215 1.341 . S
C213 C211 1.400 . S
C213 C212 1.387 . S
N214 Co205 2.022 . S
N214 C211 1.351 . S
N214 N215 1.365 . S
N215 C212 1.341 . S
N215 N214 1.365 . S
N215 H235 0.862 . S
C216 C211 1.501 . S
C216 H217 0.961 . S
C216 H218 0.961 . S
C216 H219 0.960 . S
H217 C216 0.961 . S
H218 C216 0.961 . S
H219 C216 0.960 . S
C220 N221 1.342 . S
C220 C224 1.401 . S
C220 C225 1.499 . S
N221 Co204 1.989 . S
N221 C220 1.342 . S
N221 N222 1.388 . S
N222 Co205 1.993 . S
N222 N221 1.388 . S
N222 C223 1.346 . S
C223 N222 1.346 . S
C223 C224 1.396 . S
C223 C233 1.510 . S
C224 C220 1.401 . S
C224 C223 1.396 . S
C225 C220 1.499 . S
C225 H226 0.959 . S
C225 H227 0.960 . S
C225 H228 0.961 . S
H226 C225 0.959 . S
H227 C225 0.960 . S
H228 C225 0.961 . S
O229 Co204 1.967 . S
O229 C237 1.258 . S
O230 Co205 1.941 . S
O230 C237 1.266 . S
H231 C233 0.959 . S
H232 C233 0.961 . S
C233 C223 1.510 . S
C233 H231 0.959 . S
C233 H232 0.961 . S
C233 H234 0.960 . S
H234 C233 0.960 . S
H235 N215 0.862 . S
O236 Co204 1.920 . S
O236 C209 1.289 . S
C237 O229 1.258 . S
C237 O230 1.266 . S
Co238 O241 1.970 . S
Co238 N255 1.989 . S
Co238 O263 1.967 . S
Co238 O270 1.920 . S
Co239 O242 1.966 . S
Co239 N248 2.022 . S
Co239 N256 1.993 . S
Co239 O264 1.941 . S
C240 O241 1.258 . S
C240 O242 1.263 . S
O241 Co238 1.970 . S
O241 C240 1.258 . S
O242 Co239 1.966 . S
O242 C240 1.263 . S
C243 O244 1.235 . S
C243 O270 1.289 . S
O244 C243 1.235 . S
C245 C247 1.400 . S
C245 N248 1.351 . S
C245 C250 1.501 . S
C246 C247 1.387 . S
C246 N249 1.341 . S
C247 C245 1.400 . S
C247 C246 1.387 . S
N248 Co239 2.022 . S
N248 C245 1.351 . S
N248 N249 1.365 . S
N249 C246 1.341 . S
N249 N248 1.365 . S
N249 H269 0.862 . S
C250 C245 1.501 . S
C250 H251 0.961 . S
C250 H252 0.961 . S
C250 H253 0.960 . S
H251 C250 0.961 . S
H252 C250 0.961 . S
H253 C250 0.960 . S
C254 N255 1.342 . S
C254 C258 1.401 . S
C254 C259 1.499 . S
N255 Co238 1.989 . S
N255 C254 1.342 . S
N255 N256 1.388 . S
N256 Co239 1.993 . S
N256 N255 1.388 . S
N256 C257 1.346 . S
C257 N256 1.346 . S
C257 C258 1.396 . S
C257 C267 1.510 . S
C258 C254 1.401 . S
C258 C257 1.396 . S
C259 C254 1.499 . S
C259 H260 0.959 . S
C259 H261 0.960 . S
C259 H262 0.961 . S
H260 C259 0.959 . S
H261 C259 0.960 . S
H262 C259 0.961 . S
O263 Co238 1.967 . S
O263 C271 1.258 . S
O264 Co239 1.941 . S
O264 C271 1.266 . S
H265 C267 0.959 . S
H266 C267 0.961 . S
C267 C257 1.510 . S
C267 H265 0.959 . S
C267 H266 0.961 . S
C267 H268 0.960 . S
H268 C267 0.960 . S
H269 N249 0.862 . S
O270 Co238 1.920 . S
O270 C243 1.289 . S
C271 O263 1.258 . S
C271 O264 1.266 . S
C272 C273 1.363 . S
C272 C278 1.379 . S
C272 N280 1.356 . S
C273 C272 1.363 . S
C273 C279 1.363 1_545 S
C274 C275 1.363 . S
C274 C279 1.379 . S
C274 N281 1.356 . S
C275 C274 1.363 . S
C275 C278 1.363 1_565 S
N276 C278 1.356 . S
N276 H288 0.984 . S
N276 H289 0.985 1_545 S
N277 C279 1.356 . S
N277 H282 0.984 1_565 S
N277 H283 0.985 . S
C278 C272 1.379 . S
C278 C275 1.363 1_545 S
C278 N276 1.356 . S
C279 C273 1.363 1_565 S
C279 C274 1.379 . S
C279 N277 1.356 . S
N280 C272 1.356 . S
N280 H286 0.984 . S
N280 H287 0.984 . S
N281 C274 1.356 . S
N281 H284 0.984 . S
N281 H285 0.985 . S
H282 N277 0.984 1_545 S
H283 N277 0.985 . S
H284 N281 0.984 . S
H285 N281 0.985 . S
H286 N280 0.984 . S
H287 N280 0.984 . S
H288 N276 0.984 . S
H289 N276 0.985 1_565 S
C290 C291 1.363 . S
C290 C296 1.379 . S
C290 N298 1.356 . S
C291 C290 1.363 . S
C291 C297 1.363 . S
C292 C293 1.363 . S
C292 C297 1.379 . S
C292 N299 1.356 . S
C293 C292 1.363 . S
C293 C296 1.363 . S
N294 C296 1.356 . S
N294 H306 0.984 . S
N294 H307 0.985 . S
N295 C297 1.356 . S
N295 H300 0.984 . S
N295 H301 0.985 . S
C296 C290 1.379 . S
C296 C293 1.363 . S
C296 N294 1.356 . S
C297 C291 1.363 . S
C297 C292 1.379 . S
C297 N295 1.356 . S
N298 C290 1.356 . S
N298 H304 0.984 . S
N298 H305 0.984 . S
N299 C292 1.356 . S
N299 H302 0.984 . S
N299 H303 0.985 . S
H300 N295 0.984 . S
H301 N295 0.985 . S
H302 N299 0.984 . S
H303 N299 0.985 . S
H304 N298 0.984 . S
H305 N298 0.984 . S
H306 N294 0.984 . S
H307 N294 0.985 . S
C308 C309 1.363 1_545 S
C308 C314 1.379 . S
C308 N316 1.356 . S
C309 C308 1.363 1_565 S
C309 C315 1.363 . S
C310 C311 1.363 1_565 S
C310 C315 1.379 . S
C310 N317 1.356 . S
C311 C310 1.363 1_545 S
C311 C314 1.363 . S
N312 C314 1.356 . S
N312 H324 0.984 . S
N312 H325 0.985 . S
N313 C315 1.356 . S
N313 H318 0.984 . S
N313 H319 0.985 . S
C314 C308 1.379 . S
C314 C311 1.363 . S
C314 N312 1.356 . S
C315 C309 1.363 . S
C315 C310 1.379 . S
C315 N313 1.356 . S
N316 C308 1.356 . S
N316 H322 0.984 . S
N316 H323 0.984 1_545 S
N317 C310 1.356 . S
N317 H320 0.984 1_565 S
N317 H321 0.985 . S
H318 N313 0.984 . S
H319 N313 0.985 . S
H320 N317 0.984 1_545 S
H321 N317 0.985 . S
H322 N316 0.984 . S
H323 N316 0.984 1_565 S
H324 N312 0.984 . S
H325 N312 0.985 . S
C326 C327 1.363 . S
C326 C332 1.379 . S
C326 N334 1.356 . S
C327 C326 1.363 . S
C327 C333 1.363 . S
C328 C329 1.363 . S
C328 C333 1.379 . S
C328 N335 1.356 . S
C329 C328 1.363 . S
C329 C332 1.363 . S
N330 C332 1.356 . S
N330 H342 0.984 . S
N330 H343 0.985 . S
N331 C333 1.356 . S
N331 H336 0.984 . S
N331 H337 0.985 . S
C332 C326 1.379 . S
C332 C329 1.363 . S
C332 N330 1.356 . S
C333 C327 1.363 . S
C333 C328 1.379 . S
C333 N331 1.356 . S
N334 C326 1.356 . S
N334 H340 0.984 . S
N334 H341 0.984 . S
N335 C328 1.356 . S
N335 H338 0.984 . S
N335 H339 0.985 . S
H336 N331 0.984 . S
H337 N331 0.985 . S
H338 N335 0.984 . S
H339 N335 0.985 . S
H340 N334 0.984 . S
H341 N334 0.984 . S
H342 N330 0.984 . S
H343 N330 0.985 . S
C344 C345 1.363 1_565 S
C344 C350 1.379 1_455 S
C344 N352 1.356 . S
C345 C344 1.363 1_545 S
C345 C351 1.363 1_554 S
C346 C347 1.363 1_545 S
C346 C351 1.379 1_655 S
C346 N353 1.356 . S
C347 C346 1.363 1_565 S
C347 C350 1.363 1_556 S
N348 C350 1.356 . S
N348 H360 0.984 . S
N348 H361 0.985 . S
N349 C351 1.356 . S
N349 H354 0.984 . S
N349 H355 0.985 . S
C350 C344 1.379 1_655 S
C350 C347 1.363 1_554 S
C350 N348 1.356 . S
C351 C345 1.363 1_556 S
C351 C346 1.379 1_455 S
C351 N349 1.356 . S
N352 C344 1.356 . S
N352 H358 0.984 . S
N352 H359 0.984 . S
N353 C346 1.356 . S
N353 H356 0.984 . S
N353 H357 0.985 . S
H354 N349 0.984 . S
H355 N349 0.985 . S
H356 N353 0.984 . S
H357 N353 0.985 . S
H358 N352 0.984 . S
H359 N352 0.984 . S
H360 N348 0.984 . S
H361 N348 0.985 . S
C362 C363 1.363 . S
C362 C368 1.379 1_565 S
C362 N370 1.356 . S
C363 C362 1.363 . S
C363 C369 1.363 1_554 S
C364 C365 1.363 . S
C364 C369 1.379 1_545 S
C364 N371 1.356 . S
C365 C364 1.363 . S
C365 C368 1.363 1_556 S
N366 C368 1.356 . S
N366 H378 0.984 . S
N366 H379 0.985 . S
N367 C369 1.356 . S
N367 H372 0.984 . S
N367 H373 0.985 . S
C368 C362 1.379 1_545 S
C368 C365 1.363 1_554 S
C368 N366 1.356 . S
C369 C363 1.363 1_556 S
C369 C364 1.379 1_565 S
C369 N367 1.356 . S
N370 C362 1.356 . S
N370 H376 0.984 . S
N370 H377 0.984 . S
N371 C364 1.356 . S
N371 H374 0.984 . S
N371 H375 0.985 . S
H372 N367 0.984 . S
H373 N367 0.985 . S
H374 N371 0.984 . S
H375 N371 0.985 . S
H376 N370 0.984 . S
H377 N370 0.984 . S
H378 N366 0.984 . S
H379 N366 0.985 . S
C380 C381 1.363 . S
C380 C386 1.379 1_455 S
C380 N388 1.356 . S
C381 C380 1.363 . S
C381 C387 1.363 . S
C382 C383 1.363 . S
C382 C387 1.379 1_655 S
C382 N389 1.356 . S
C383 C382 1.363 . S
C383 C386 1.363 . S
N384 C386 1.356 . S
N384 H396 0.984 . S
N384 H397 0.985 . S
N385 C387 1.356 . S
N385 H390 0.984 . S
N385 H391 0.985 . S
C386 C380 1.379 1_655 S
C386 C383 1.363 . S
C386 N384 1.356 . S
C387 C381 1.363 . S
C387 C382 1.379 1_455 S
C387 N385 1.356 . S
N388 C380 1.356 . S
N388 H394 0.984 . S
N388 H395 0.984 . S
N389 C382 1.356 . S
N389 H392 0.984 . S
N389 H393 0.985 . S
H390 N385 0.984 . S
H391 N385 0.985 . S
H392 N389 0.984 . S
H393 N389 0.985 . S
H394 N388 0.984 . S
H395 N388 0.984 . S
H396 N384 0.984 . S
H397 N384 0.985 . S
C398 C399 1.363 . S
C398 C404 1.379 . S
C398 N406 1.356 . S
C399 C398 1.363 . S
C399 C405 1.363 . S
C400 C401 1.363 . S
C400 C405 1.379 . S
C400 N407 1.356 . S
C401 C400 1.363 . S
C401 C404 1.363 . S
N402 C404 1.356 . S
N402 H414 0.984 . S
N402 H415 0.985 . S
N403 C405 1.356 . S
N403 H408 0.984 . S
N403 H409 0.985 . S
C404 C398 1.379 . S
C404 C401 1.363 . S
C404 N402 1.356 . S
C405 C399 1.363 . S
C405 C400 1.379 . S
C405 N403 1.356 . S
N406 C398 1.356 . S
N406 H412 0.984 . S
N406 H413 0.984 . S
N407 C400 1.356 . S
N407 H410 0.984 . S
N407 H411 0.985 . S
H408 N403 0.984 . S
H409 N403 0.985 . S
H410 N407 0.984 . S
H411 N407 0.985 . S
H412 N406 0.984 . S
H413 N406 0.984 . S
H414 N402 0.984 . S
H415 N402 0.985 . S
C416 C417 1.363 . S
C416 C422 1.379 . S
C416 N424 1.356 . S
C417 C416 1.363 . S
C417 C423 1.363 . S
C418 C419 1.363 . S
C418 C423 1.379 . S
C418 N425 1.356 . S
C419 C418 1.363 . S
C419 C422 1.363 . S
N420 C422 1.356 . S
N420 H432 0.984 . S
N420 H433 0.985 . S
N421 C423 1.356 . S
N421 H426 0.984 . S
N421 H427 0.985 . S
C422 C416 1.379 . S
C422 C419 1.363 . S
C422 N420 1.356 . S
C423 C417 1.363 . S
C423 C418 1.379 . S
C423 N421 1.356 . S
N424 C416 1.356 . S
N424 H430 0.984 . S
N424 H431 0.984 . S
N425 C418 1.356 . S
N425 H428 0.984 . S
N425 H429 0.985 . S
H426 N421 0.984 . S
H427 N421 0.985 . S
H428 N425 0.984 . S
H429 N425 0.985 . S
H430 N424 0.984 . S
H431 N424 0.984 . S
H432 N420 0.984 . S
H433 N420 0.985 . S
C434 C435 1.363 . S
C434 C440 1.379 . S
C434 N442 1.356 . S
C435 C434 1.363 . S
C435 C441 1.363 . S
C436 C437 1.363 . S
C436 C441 1.379 . S
C436 N443 1.356 . S
C437 C436 1.363 . S
C437 C440 1.363 . S
N438 C440 1.356 . S
N438 H450 0.984 . S
N438 H451 0.985 . S
N439 C441 1.356 . S
N439 H444 0.984 . S
N439 H445 0.985 . S
C440 C434 1.379 . S
C440 C437 1.363 . S
C440 N438 1.356 . S
C441 C435 1.363 . S
C441 C436 1.379 . S
C441 N439 1.356 . S
N442 C434 1.356 . S
N442 H448 0.984 . S
N442 H449 0.984 . S
N443 C436 1.356 . S
N443 H446 0.984 . S
N443 H447 0.985 . S
H444 N439 0.984 . S
H445 N439 0.985 . S
H446 N443 0.984 . S
H447 N443 0.985 . S
H448 N442 0.984 . S
H449 N442 0.984 . S
H450 N438 0.984 . S
H451 N438 0.985 . S
C452 C453 1.363 . S
C452 C458 1.379 . S
C452 N460 1.356 . S
C453 C452 1.363 . S
C453 C459 1.363 . S
C454 C455 1.363 . S
C454 C459 1.379 . S
C454 N461 1.356 . S
C455 C454 1.363 . S
C455 C458 1.363 . S
N456 C458 1.356 . S
N456 H468 0.984 . S
N456 H469 0.985 . S
N457 C459 1.356 . S
N457 H462 0.984 . S
N457 H463 0.985 . S
C458 C452 1.379 . S
C458 C455 1.363 . S
C458 N456 1.356 . S
C459 C453 1.363 . S
C459 C454 1.379 . S
C459 N457 1.356 . S
N460 C452 1.356 . S
N460 H466 0.984 . S
N460 H467 0.984 . S
N461 C454 1.356 . S
N461 H464 0.984 . S
N461 H465 0.985 . S
H462 N457 0.984 . S
H463 N457 0.985 . S
H464 N461 0.984 . S
H465 N461 0.985 . S
H466 N460 0.984 . S
H467 N460 0.984 . S
H468 N456 0.984 . S
H469 N456 0.985 . S
C470 C471 1.363 . S
C470 C476 1.379 . S
C470 N478 1.356 . S
C471 C470 1.363 . S
C471 C477 1.363 . S
C472 C473 1.363 . S
C472 C477 1.379 . S
C472 N479 1.356 . S
C473 C472 1.363 . S
C473 C476 1.363 . S
N474 C476 1.356 . S
N474 H486 0.984 . S
N474 H487 0.985 . S
N475 C477 1.356 . S
N475 H480 0.984 . S
N475 H481 0.985 . S
C476 C470 1.379 . S
C476 C473 1.363 . S
C476 N474 1.356 . S
C477 C471 1.363 . S
C477 C472 1.379 . S
C477 N475 1.356 . S
N478 C470 1.356 . S
N478 H484 0.984 . S
N478 H485 0.984 . S
N479 C472 1.356 . S
N479 H482 0.984 . S
N479 H483 0.985 . S
H480 N475 0.984 . S
H481 N475 0.985 . S
H482 N479 0.984 . S
H483 N479 0.985 . S
H484 N478 0.984 . S
H485 N478 0.984 . S
H486 N474 0.984 . S
H487 N474 0.985 . S
C488 C489 1.363 . S
C488 C494 1.379 . S
C488 N496 1.356 . S
C489 C488 1.363 . S
C489 C495 1.363 . S
C490 C491 1.363 . S
C490 C495 1.379 . S
C490 N497 1.356 . S
C491 C490 1.363 . S
C491 C494 1.363 . S
N492 C494 1.356 . S
N492 H504 0.984 . S
N492 H505 0.985 . S
N493 C495 1.356 . S
N493 H498 0.984 . S
N493 H499 0.985 . S
C494 C488 1.379 . S
C494 C491 1.363 . S
C494 N492 1.356 . S
C495 C489 1.363 . S
C495 C490 1.379 . S
C495 N493 1.356 . S
N496 C488 1.356 . S
N496 H502 0.984 . S
N496 H503 0.984 . S
N497 C490 1.356 . S
N497 H500 0.984 . S
N497 H501 0.985 . S
H498 N493 0.984 . S
H499 N493 0.985 . S
H500 N497 0.984 . S
H501 N497 0.985 . S
H502 N496 0.984 . S
H503 N496 0.984 . S
H504 N492 0.984 . S
H505 N492 0.985 . S
C506 C507 1.363 . S
C506 C512 1.379 . S
C506 N514 1.356 . S
C507 C506 1.363 . S
C507 C513 1.363 . S
C508 C509 1.363 . S
C508 C513 1.379 . S
C508 N515 1.356 . S
C509 C508 1.363 . S
C509 C512 1.363 . S
N510 C512 1.356 . S
N510 H522 0.984 1_554 S
N510 H523 0.985 . S
N511 C513 1.356 . S
N511 H516 0.984 . S
N511 H517 0.985 . S
C512 C506 1.379 . S
C512 C509 1.363 . S
C512 N510 1.356 . S
C513 C507 1.363 . S
C513 C508 1.379 . S
C513 N511 1.356 . S
N514 C506 1.356 . S
N514 H520 0.984 . S
N514 H521 0.984 . S
N515 C508 1.356 . S
N515 H518 0.984 . S
N515 H519 0.985 . S
H516 N511 0.984 . S
H517 N511 0.985 . S
H518 N515 0.984 . S
H519 N515 0.985 . S
H520 N514 0.984 . S
H521 N514 0.984 . S
H522 N510 0.984 1_556 S
H523 N510 0.985 . S
C524 C525 1.363 . S
C524 C530 1.379 1_545 S
C524 N532 1.356 . S
C525 C524 1.363 . S
C525 C531 1.363 1_545 S
C526 C527 1.363 . S
C526 C531 1.379 . S
C526 N533 1.356 . S
C527 C526 1.363 . S
C527 C530 1.363 . S
N528 C530 1.356 . S
N528 H540 0.984 . S
N528 H541 0.985 . S
N529 C531 1.356 1_545 S
N529 H534 0.984 . S
N529 H535 0.985 1_545 S
C530 C524 1.379 1_565 S
C530 C527 1.363 . S
C530 N528 1.356 . S
C531 C525 1.363 1_565 S
C531 C526 1.379 . S
C531 N529 1.356 1_565 S
N532 C524 1.356 . S
N532 H538 0.984 . S
N532 H539 0.984 . S
N533 C526 1.356 . S
N533 H536 0.984 . S
N533 H537 0.985 . S
H534 N529 0.984 . S
H535 N529 0.985 1_565 S
H536 N533 0.984 . S
H537 N533 0.985 . S
H538 N532 0.984 . S
H539 N532 0.984 . S
H540 N528 0.984 . S
H541 N528 0.985 . S
C542 C543 1.363 1_545 S
C542 C548 1.379 . S
C542 N550 1.356 1_545 S
C543 C542 1.363 1_565 S
C543 C549 1.363 . S
C544 C545 1.363 . S
C544 C549 1.379 1_545 S
C544 N551 1.356 . S
C545 C544 1.363 . S
C545 C548 1.363 . S
N546 C548 1.356 . S
N546 H558 0.984 . S
N546 H559 0.985 . S
N547 C549 1.356 . S
N547 H552 0.984 . S
N547 H553 0.985 . S
C548 C542 1.379 . S
C548 C545 1.363 . S
C548 N546 1.356 . S
C549 C543 1.363 . S
C549 C544 1.379 1_565 S
C549 N547 1.356 . S
N550 C542 1.356 1_565 S
N550 H556 0.984 1_565 S
N550 H557 0.984 . S
N551 C544 1.356 . S
N551 H554 0.984 . S
N551 H555 0.985 . S
H552 N547 0.984 . S
H553 N547 0.985 . S
H554 N551 0.984 . S
H555 N551 0.985 . S
H556 N550 0.984 1_545 S
H557 N550 0.984 . S
H558 N546 0.984 . S
H559 N546 0.985 . S
C560 C561 1.363 . S
C560 C566 1.379 . S
C560 N568 1.356 . S
C561 C560 1.363 . S
C561 C567 1.363 . S
C562 C563 1.363 . S
C562 C567 1.379 . S
C562 N569 1.356 . S
C563 C562 1.363 . S
C563 C566 1.363 . S
N564 C566 1.356 . S
N564 H576 0.984 . S
N564 H577 0.985 . S
N565 C567 1.356 . S
N565 H570 0.984 . S
N565 H571 0.985 . S
C566 C560 1.379 . S
C566 C563 1.363 . S
C566 N564 1.356 . S
C567 C561 1.363 . S
C567 C562 1.379 . S
C567 N565 1.356 . S
N568 C560 1.356 . S
N568 H574 0.984 1_556 S
N568 H575 0.984 1_556 S
N569 C562 1.356 . S
N569 H572 0.984 . S
N569 H573 0.985 . S
H570 N565 0.984 . S
H571 N565 0.985 . S
H572 N569 0.984 . S
H573 N569 0.985 . S
H574 N568 0.984 1_554 S
H575 N568 0.984 1_554 S
H576 N564 0.984 . S
H577 N564 0.985 . S
C578 C579 1.363 . S
C578 C584 1.379 . S
C578 N586 1.356 . S
C579 C578 1.363 . S
C579 C585 1.363 . S
C580 C581 1.363 . S
C580 C585 1.379 . S
C580 N587 1.356 . S
C581 C580 1.363 . S
C581 C584 1.363 . S
N582 C584 1.356 . S
N582 H594 0.984 . S
N582 H595 0.985 . S
N583 C585 1.356 . S
N583 H588 0.984 . S
N583 H589 0.985 . S
C584 C578 1.379 . S
C584 C581 1.363 . S
C584 N582 1.356 . S
C585 C579 1.363 . S
C585 C580 1.379 . S
C585 N583 1.356 . S
N586 C578 1.356 . S
N586 H592 0.984 . S
N586 H593 0.984 . S
N587 C580 1.356 . S
N587 H590 0.984 . S
N587 H591 0.985 1_556 S
H588 N583 0.984 . S
H589 N583 0.985 . S
H590 N587 0.984 . S
H591 N587 0.985 1_554 S
H592 N586 0.984 . S
H593 N586 0.984 . S
H594 N582 0.984 . S
H595 N582 0.985 . S
C596 C597 1.363 . S
C596 C602 1.379 1_565 S
C596 N604 1.356 . S
C597 C596 1.363 . S
C597 C603 1.363 . S
C598 C599 1.363 . S
C598 C603 1.379 1_545 S
C598 N605 1.356 . S
C599 C598 1.363 . S
C599 C602 1.363 . S
N600 C602 1.356 . S
N600 H612 0.984 . S
N600 H613 0.985 . S
N601 C603 1.356 . S
N601 H606 0.984 . S
N601 H607 0.985 . S
C602 C596 1.379 1_545 S
C602 C599 1.363 . S
C602 N600 1.356 . S
C603 C597 1.363 . S
C603 C598 1.379 1_565 S
C603 N601 1.356 . S
N604 C596 1.356 . S
N604 H610 0.984 . S
N604 H611 0.984 . S
N605 C598 1.356 . S
N605 H608 0.984 . S
N605 H609 0.985 . S
H606 N601 0.984 . S
H607 N601 0.985 . S
H608 N605 0.984 . S
H609 N605 0.985 . S
H610 N604 0.984 . S
H611 N604 0.984 . S
H612 N600 0.984 . S
H613 N600 0.985 . S
C614 C615 1.363 . S
C614 C620 1.379 . S
C614 N622 1.356 . S
C615 C614 1.363 . S
C615 C621 1.363 . S
C616 C617 1.363 . S
C616 C621 1.379 1_545 S
C616 N623 1.356 . S
C617 C616 1.363 . S
C617 C620 1.363 1_545 S
N618 C620 1.356 1_545 S
N618 H630 0.984 1_545 S
N618 H631 0.985 . S
N619 C621 1.356 . S
N619 H624 0.984 . S
N619 H625 0.985 . S
C620 C614 1.379 . S
C620 C617 1.363 1_565 S
C620 N618 1.356 1_565 S
C621 C615 1.363 . S
C621 C616 1.379 1_565 S
C621 N619 1.356 . S
N622 C614 1.356 . S
N622 H628 0.984 . S
N622 H629 0.984 . S
N623 C616 1.356 . S
N623 H626 0.984 . S
N623 H627 0.985 . S
H624 N619 0.984 . S
H625 N619 0.985 . S
H626 N623 0.984 . S
H627 N623 0.985 . S
H628 N622 0.984 . S
H629 N622 0.984 . S
H630 N618 0.984 1_565 S
H631 N618 0.985 . S
C273 C2 1.594 . S
C275 C36 1.594 . S
C291 C104 1.594 . S
C293 C70 1.594 . S
C309 C138 1.594 . S
C311 C172 1.594 . S
C327 C240 1.594 . S
C329 C206 1.594 . S
C345 C20 1.556 . S
C347 C156 1.556 . S
C363 C54 1.556 . S
C365 C190 1.556 . S
C381 C88 1.557 . S
C383 C224 1.557 . S
C399 C122 1.557 . S
C401 C258 1.557 . S
C417 C101 1.679 . S
C419 C33 1.679 . S
C435 C135 1.679 . S
C437 C67 1.679 . S
C453 C169 1.679 . S
C455 C237 1.679 . S
C471 C203 1.679 . S
C473 C271 1.679 . S
C489 C9 1.399 . S
C491 C5 1.371 . S
C507 C43 1.399 . S
C509 C39 1.371 . S
C525 C73 1.371 . S
C527 C77 1.399 . S
C543 C107 1.371 . S
C545 C111 1.399 . S
C561 C141 1.371 . S
C563 C145 1.399 . S
C579 C179 1.399 . S
C581 C175 1.371 . S
C597 C209 1.371 . S
C599 C213 1.399 . S
C615 C247 1.399 . S
C617 C243 1.371 . S
