# Generated by pormake.
# Topology lcy-a, (4)-cn, num edge types: 1
# Building blocks:
#     Node 0, Type 0, BuildingBlock: GALJAG_clean_sbu_0, # of connection points: 4
#     Node 1, Type 0, BuildingBlock: GALJAG_clean_sbu_0, # of connection points: 4
#     Node 2, Type 0, BuildingBlock: GALJAG_clean_sbu_0, # of connection points: 4
#     Node 3, Type 0, BuildingBlock: GALJAG_clean_sbu_0, # of connection points: 4
#     Node 4, Type 0, BuildingBlock: GALJAG_clean_sbu_0, # of connection points: 4
#     Node 5, Type 0, BuildingBlock: GALJAG_clean_sbu_0, # of connection points: 4
#     Node 6, Type 0, BuildingBlock: GALJAG_clean_sbu_0, # of connection points: 4
#     Node 7, Type 0, BuildingBlock: GALJAG_clean_sbu_0, # of connection points: 4
#     Node 8, Type 0, BuildingBlock: GALJAG_clean_sbu_0, # of connection points: 4
#     Node 9, Type 0, BuildingBlock: GALJAG_clean_sbu_0, # of connection points: 4
#     Node 10, Type 0, BuildingBlock: GALJAG_clean_sbu_0, # of connection points: 4
#     Node 11, Type 0, BuildingBlock: GALJAG_clean_sbu_0, # of connection points: 4
#     Node 12, Type 0, BuildingBlock: GALJAG_clean_sbu_0, # of connection points: 4
#     Node 13, Type 0, BuildingBlock: GALJAG_clean_sbu_0, # of connection points: 4
#     Node 14, Type 0, BuildingBlock: GALJAG_clean_sbu_0, # of connection points: 4
#     Node 15, Type 0, BuildingBlock: GALJAG_clean_sbu_0, # of connection points: 4
#     Node 16, Type 0, BuildingBlock: GALJAG_clean_sbu_0, # of connection points: 4
#     Node 17, Type 0, BuildingBlock: GALJAG_clean_sbu_0, # of connection points: 4
#     Node 18, Type 0, BuildingBlock: GALJAG_clean_sbu_0, # of connection points: 4
#     Node 19, Type 0, BuildingBlock: GALJAG_clean_sbu_0, # of connection points: 4
#     Node 20, Type 0, BuildingBlock: GALJAG_clean_sbu_0, # of connection points: 4
#     Node 21, Type 0, BuildingBlock: GALJAG_clean_sbu_0, # of connection points: 4
#     Node 22, Type 0, BuildingBlock: GALJAG_clean_sbu_0, # of connection points: 4
#     Node 23, Type 0, BuildingBlock: GALJAG_clean_sbu_0, # of connection points: 4
#     Edge 24, Type (0, 0), BuildingBlock: MIFKUJ_clean_linker_0, # of connection points: 2
#     Edge 25, Type (0, 0), BuildingBlock: MIFKUJ_clean_linker_0, # of connection points: 2
#     Edge 26, Type (0, 0), BuildingBlock: MIFKUJ_clean_linker_0, # of connection points: 2
#     Edge 27, Type (0, 0), BuildingBlock: MIFKUJ_clean_linker_0, # of connection points: 2
#     Edge 28, Type (0, 0), BuildingBlock: MIFKUJ_clean_linker_0, # of connection points: 2
#     Edge 29, Type (0, 0), BuildingBlock: MIFKUJ_clean_linker_0, # of connection points: 2
#     Edge 30, Type (0, 0), BuildingBlock: MIFKUJ_clean_linker_0, # of connection points: 2
#     Edge 31, Type (0, 0), BuildingBlock: MIFKUJ_clean_linker_0, # of connection points: 2
#     Edge 32, Type (0, 0), BuildingBlock: MIFKUJ_clean_linker_0, # of connection points: 2
#     Edge 33, Type (0, 0), BuildingBlock: MIFKUJ_clean_linker_0, # of connection points: 2
#     Edge 34, Type (0, 0), BuildingBlock: MIFKUJ_clean_linker_0, # of connection points: 2
#     Edge 35, Type (0, 0), BuildingBlock: MIFKUJ_clean_linker_0, # of connection points: 2
#     Edge 36, Type (0, 0), BuildingBlock: MIFKUJ_clean_linker_0, # of connection points: 2
#     Edge 37, Type (0, 0), BuildingBlock: MIFKUJ_clean_linker_0, # of connection points: 2
#     Edge 38, Type (0, 0), BuildingBlock: MIFKUJ_clean_linker_0, # of connection points: 2
#     Edge 39, Type (0, 0), BuildingBlock: MIFKUJ_clean_linker_0, # of connection points: 2
#     Edge 40, Type (0, 0), BuildingBlock: MIFKUJ_clean_linker_0, # of connection points: 2
#     Edge 41, Type (0, 0), BuildingBlock: MIFKUJ_clean_linker_0, # of connection points: 2
#     Edge 42, Type (0, 0), BuildingBlock: MIFKUJ_clean_linker_0, # of connection points: 2
#     Edge 43, Type (0, 0), BuildingBlock: MIFKUJ_clean_linker_0, # of connection points: 2
#     Edge 44, Type (0, 0), BuildingBlock: MIFKUJ_clean_linker_0, # of connection points: 2
#     Edge 45, Type (0, 0), BuildingBlock: MIFKUJ_clean_linker_0, # of connection points: 2
#     Edge 46, Type (0, 0), BuildingBlock: MIFKUJ_clean_linker_0, # of connection points: 2
#     Edge 47, Type (0, 0), BuildingBlock: MIFKUJ_clean_linker_0, # of connection points: 2
#     Edge 48, Type (0, 0), BuildingBlock: MIFKUJ_clean_linker_0, # of connection points: 2
#     Edge 49, Type (0, 0), BuildingBlock: MIFKUJ_clean_linker_0, # of connection points: 2
#     Edge 50, Type (0, 0), BuildingBlock: MIFKUJ_clean_linker_0, # of connection points: 2
#     Edge 51, Type (0, 0), BuildingBlock: MIFKUJ_clean_linker_0, # of connection points: 2
#     Edge 52, Type (0, 0), BuildingBlock: MIFKUJ_clean_linker_0, # of connection points: 2
#     Edge 53, Type (0, 0), BuildingBlock: MIFKUJ_clean_linker_0, # of connection points: 2
#     Edge 54, Type (0, 0), BuildingBlock: MIFKUJ_clean_linker_0, # of connection points: 2
#     Edge 55, Type (0, 0), BuildingBlock: MIFKUJ_clean_linker_0, # of connection points: 2
#     Edge 56, Type (0, 0), BuildingBlock: MIFKUJ_clean_linker_0, # of connection points: 2
#     Edge 57, Type (0, 0), BuildingBlock: MIFKUJ_clean_linker_0, # of connection points: 2
#     Edge 58, Type (0, 0), BuildingBlock: MIFKUJ_clean_linker_0, # of connection points: 2
#     Edge 59, Type (0, 0), BuildingBlock: MIFKUJ_clean_linker_0, # of connection points: 2
#     Edge 60, Type (0, 0), BuildingBlock: MIFKUJ_clean_linker_0, # of connection points: 2
#     Edge 61, Type (0, 0), BuildingBlock: MIFKUJ_clean_linker_0, # of connection points: 2
#     Edge 62, Type (0, 0), BuildingBlock: MIFKUJ_clean_linker_0, # of connection points: 2
#     Edge 63, Type (0, 0), BuildingBlock: MIFKUJ_clean_linker_0, # of connection points: 2
#     Edge 64, Type (0, 0), BuildingBlock: MIFKUJ_clean_linker_0, # of connection points: 2
#     Edge 65, Type (0, 0), BuildingBlock: MIFKUJ_clean_linker_0, # of connection points: 2
#     Edge 66, Type (0, 0), BuildingBlock: MIFKUJ_clean_linker_0, # of connection points: 2
#     Edge 67, Type (0, 0), BuildingBlock: MIFKUJ_clean_linker_0, # of connection points: 2
#     Edge 68, Type (0, 0), BuildingBlock: MIFKUJ_clean_linker_0, # of connection points: 2
#     Edge 69, Type (0, 0), BuildingBlock: MIFKUJ_clean_linker_0, # of connection points: 2
#     Edge 70, Type (0, 0), BuildingBlock: MIFKUJ_clean_linker_0, # of connection points: 2
#     Edge 71, Type (0, 0), BuildingBlock: MIFKUJ_clean_linker_0, # of connection points: 2
# Relax obj value: 0.436
# Max RMSD: 0.150
# Mean RMSD: 0.150
data_MOF--net-lcy-a--node1-GALJAG_clean_sbu_0--edge1-MIFKUJ_clean_linker_0
_symmetry_space_group_name_H-M    P1
_symmetry_Int_Tables_number       1
_symmetry_cell_setting            triclinic
loop_
_symmetry_equiv_pos_as_xyz
'x, y, z'
_cell_length_a     72.191636
_cell_length_b     72.201259
_cell_length_c     72.205984
_cell_angle_alpha  90.006683
_cell_angle_beta   90.016326
_cell_angle_gamma 89.994026
loop_
_atom_site_label
_atom_site_type_symbol
_atom_site_fract_x
_atom_site_fract_y
_atom_site_fract_z
_atom_type_partial_charge
In0 In 0.19603 0.29938 0.39851 0.0
O1 O 0.22011 0.30424 0.41808 0.0
O2 O 0.19887 0.32473 0.41712 0.0
C3 C 0.2164 0.26884 0.39138 0.0
C4 C 0.1642 0.28675 0.41346 0.0
C5 C 0.19387 0.32072 0.36792 0.0
O6 O 0.21155 0.27338 0.40752 0.0
O7 O 0.21123 0.27985 0.37884 0.0
O8 O 0.18145 0.30911 0.37195 0.0
O9 O 0.20695 0.3217 0.3794 0.0
C10 C 0.21404 0.31949 0.42412 0.0
O11 O 0.17252 0.30079 0.41957 0.0
O12 O 0.17123 0.27992 0.39904 0.0
In13 In 0.94582 0.92869 0.6488 0.0
O14 O 0.94467 0.90678 0.67142 0.0
O15 O 0.96411 0.90299 0.64985 0.0
C16 C 0.92648 0.92076 0.61784 0.0
C17 C 0.92744 0.95016 0.67321 0.0
C18 C 0.97201 0.95336 0.63889 0.0
O19 O 0.94382 0.92278 0.6179 0.0
O20 O 0.91909 0.92138 0.63366 0.0
O21 O 0.95549 0.95424 0.63327 0.0
O22 O 0.97539 0.94005 0.64969 0.0
C23 C 0.9579 0.89735 0.66513 0.0
O24 O 0.94477 0.94804 0.67378 0.0
O25 O 0.9194 0.94131 0.66048 0.0
In26 In 0.31767 0.68948 0.90177 0.0
O27 O 0.34598 0.68969 0.91618 0.0
O28 O 0.33558 0.71495 0.90554 0.0
C29 C 0.31793 0.6667 0.87221 0.0
C30 C 0.30556 0.6717 0.9321 0.0
C31 C 0.29201 0.7141 0.89036 0.0
O32 O 0.33064 0.67839 0.87491 0.0
O33 O 0.30585 0.66609 0.88476 0.0
O34 O 0.29014 0.70453 0.90485 0.0
O35 O 0.30686 0.71129 0.8816 0.0
C36 C 0.34821 0.70691 0.91441 0.0
O37 O 0.30153 0.68836 0.92865 0.0
O38 O 0.3161 0.66405 0.92039 0.0
In39 In 0.55978 0.05532 0.14403 0.0
O40 O 0.55174 0.08351 0.1564 0.0
O41 O 0.54284 0.05884 0.16985 0.0
C42 C 0.57781 0.06965 0.11444 0.0
C43 C 0.58278 0.03631 0.16619 0.0
C44 C 0.533 0.03387 0.12922 0.0
O45 O 0.56063 0.0715 0.1168 0.0
O46 O 0.586 0.06153 0.12751 0.0
O47 O 0.54959 0.02857 0.13063 0.0
O48 O 0.52999 0.05005 0.135 0.0
C49 C 0.54292 0.07627 0.1697 0.0
O50 O 0.57227 0.02855 0.15455 0.0
O51 O 0.58219 0.0538 0.16621 0.0
In52 In 0.67708 0.20082 0.60647 0.0
O53 O 0.70197 0.19997 0.58715 0.0
O54 O 0.68 0.18127 0.58159 0.0
C55 C 0.70319 0.2231 0.62103 0.0
C56 C 0.64843 0.21842 0.59024 0.0
C57 C 0.66762 0.1781 0.63476 0.0
O58 O 0.70396 0.20565 0.6221 0.0
O59 O 0.68915 0.22935 0.61264 0.0
O60 O 0.66356 0.19506 0.63462 0.0
O61 O 0.67543 0.17251 0.62023 0.0
C62 C 0.69575 0.18726 0.57698 0.0
O63 O 0.65273 0.20194 0.58646 0.0
O64 O 0.65788 0.22561 0.60303 0.0
In65 In 0.05368 0.43177 0.86258 0.0
O66 O 0.06815 0.45813 0.8533 0.0
O67 O 0.06683 0.43569 0.83419 0.0
C68 C 0.02624 0.4559 0.8705 0.0
C69 C 0.03742 0.40166 0.84757 0.0
C70 C 0.07719 0.4246 0.89098 0.0
O71 O 0.03084 0.45183 0.85417 0.0
O72 O 0.03551 0.44782 0.88292 0.0
O73 O 0.06011 0.42117 0.89187 0.0
O74 O 0.08248 0.4303 0.8754 0.0
C75 C 0.07205 0.45208 0.83735 0.0
O76 O 0.05409 0.40579 0.84445 0.0
O77 O 0.0296 0.41178 0.85941 0.0
In78 In 0.8116 0.79321 0.09584 0.0
O79 O 0.83913 0.7986 0.081 0.0
O80 O 0.83633 0.7738 0.09625 0.0
C81 C 0.80452 0.8125 0.12697 0.0
C82 C 0.79741 0.81306 0.06776 0.0
C83 C 0.79179 0.762 0.10119 0.0
O84 O 0.82062 0.80673 0.12328 0.0
O85 O 0.79253 0.80895 0.11484 0.0
O86 O 0.7907 0.77135 0.08648 0.0
O87 O 0.80296 0.7683 0.11303 0.0
C88 C 0.84629 0.78341 0.08571 0.0
O89 O 0.797 0.79556 0.06807 0.0
O90 O 0.80548 0.82052 0.0814 0.0
In91 In 0.4463 0.56739 0.346 0.0
O92 O 0.44617 0.58942 0.32335 0.0
O93 O 0.46596 0.59208 0.34474 0.0
C94 C 0.42978 0.57536 0.37865 0.0
C95 C 0.42551 0.54909 0.32099 0.0
C96 C 0.47174 0.54099 0.35307 0.0
O97 O 0.44678 0.57184 0.3772 0.0
O98 O 0.42118 0.57572 0.36346 0.0
O99 O 0.45483 0.5391 0.35717 0.0
O100 O 0.47575 0.55609 0.34528 0.0
C101 C 0.45997 0.59808 0.32951 0.0
O102 O 0.44297 0.54857 0.321 0.0
O103 O 0.41844 0.55882 0.33369 0.0
In104 In 0.38788 0.19275 0.30174 0.0
O105 O 0.3952 0.21725 0.32036 0.0
O106 O 0.4148 0.19543 0.31793 0.0
C107 C 0.37295 0.2164 0.27703 0.0
C108 C 0.41128 0.17177 0.28192 0.0
C109 C 0.35944 0.17646 0.31999 0.0
O110 O 0.3768 0.22115 0.29342 0.0
O111 O 0.3764 0.19971 0.27323 0.0
O112 O 0.35908 0.17986 0.3029 0.0
O113 O 0.3746 0.18029 0.32772 0.0
C114 C 0.41091 0.211 0.3248 0.0
O115 O 0.40058 0.1647 0.29387 0.0
O116 O 0.40992 0.18907 0.28011 0.0
In117 In 0.05613 0.14343 0.55187 0.0
O118 O 0.03854 0.16911 0.55595 0.0
O119 O 0.05293 0.15847 0.57943 0.0
C120 C 0.03449 0.13634 0.5223 0.0
C121 C 0.08762 0.15746 0.53729 0.0
C122 C 0.05421 0.11218 0.57222 0.0
O123 O 0.0317 0.1499 0.53299 0.0
O124 O 0.04821 0.12637 0.52654 0.0
O125 O 0.0696 0.11911 0.5676 0.0
O126 O 0.04028 0.12118 0.56687 0.0
C127 C 0.04217 0.17069 0.57299 0.0
O128 O 0.08119 0.16276 0.55259 0.0
O129 O 0.07892 0.14421 0.53007 0.0
In130 In 0.10786 0.81076 0.79524 0.0
O131 O 0.0906 0.83679 0.80038 0.0
O132 O 0.10799 0.83642 0.77691 0.0
C133 C 0.14055 0.81181 0.81366 0.0
C134 C 0.07841 0.79484 0.81153 0.0
C135 C 0.11187 0.7859 0.76768 0.0
O136 O 0.1395 0.81111 0.7963 0.0
O137 O 0.12514 0.81272 0.82174 0.0
O138 O 0.11047 0.78121 0.78446 0.0
O139 O 0.11149 0.80312 0.76481 0.0
C140 C 0.09569 0.84491 0.78584 0.0
O141 O 0.07878 0.79873 0.79449 0.0
O142 O 0.09294 0.79897 0.82036 0.0
In143 In 0.43986 0.85036 0.06356 0.0
O144 O 0.46749 0.83939 0.07362 0.0
O145 O 0.44326 0.83085 0.08818 0.0
C146 C 0.4631 0.85712 0.03507 0.0
C147 C 0.41135 0.83066 0.04958 0.0
C148 C 0.42964 0.88229 0.08042 0.0
O149 O 0.455 0.84177 0.037 0.0
O150 O 0.45973 0.86878 0.04763 0.0
O151 O 0.42489 0.87828 0.06414 0.0
O152 O 0.43837 0.86962 0.08863 0.0
C153 C 0.46068 0.82986 0.08661 0.0
O154 O 0.42068 0.82527 0.06329 0.0
O155 O 0.41564 0.84651 0.04373 0.0
In156 In 0.90021 0.30833 0.69571 0.0
O157 O 0.9189 0.334 0.69478 0.0
O158 O 0.90156 0.33044 0.71808 0.0
C159 C 0.87094 0.30697 0.67261 0.0
C160 C 0.92899 0.29273 0.67808 0.0
C161 C 0.88841 0.28694 0.72392 0.0
O162 O 0.87557 0.32184 0.68061 0.0
O163 O 0.88145 0.29343 0.67578 0.0
O164 O 0.90393 0.28465 0.71623 0.0
O165 O 0.87887 0.30004 0.7174 0.0
C166 C 0.91421 0.33974 0.71056 0.0
O167 O 0.92574 0.29005 0.69507 0.0
O168 O 0.91776 0.30347 0.66998 0.0
In169 In 0.94121 0.65263 0.93271 0.0
O170 O 0.91645 0.67221 0.93471 0.0
O171 O 0.91944 0.65167 0.95538 0.0
C172 C 0.93922 0.62215 0.91131 0.0
C173 C 0.95575 0.67949 0.91146 0.0
C174 C 0.96496 0.64503 0.96058 0.0
O175 O 0.92598 0.62703 0.92164 0.0
O176 O 0.95293 0.63294 0.91143 0.0
O177 O 0.96104 0.66133 0.95572 0.0
O178 O 0.95702 0.63254 0.95131 0.0
C179 C 0.91062 0.6656 0.94976 0.0
O180 O 0.96252 0.67479 0.92687 0.0
O181 O 0.94149 0.67055 0.90659 0.0
In182 In 0.61264 0.68437 0.19185 0.0
O183 O 0.60377 0.70752 0.17225 0.0
O184 O 0.58293 0.69447 0.18839 0.0
C185 C 0.6232 0.70761 0.21928 0.0
C186 C 0.59581 0.6535 0.20376 0.0
C187 C 0.64098 0.67215 0.17072 0.0
O188 O 0.62795 0.70992 0.20265 0.0
O189 O 0.61331 0.69353 0.22209 0.0
O190 O 0.64179 0.67304 0.18812 0.0
O191 O 0.62558 0.67679 0.16395 0.0
C192 C 0.58685 0.70666 0.17653 0.0
O193 O 0.59161 0.66116 0.1886 0.0
O194 O 0.60934 0.66074 0.21212 0.0
In195 In 0.55989 0.35709 0.43414 0.0
O196 O 0.53187 0.34401 0.42864 0.0
O197 O 0.55483 0.33416 0.41294 0.0
C198 C 0.53832 0.36648 0.46318 0.0
C199 C 0.58876 0.338 0.44813 0.0
C200 C 0.56892 0.38695 0.41313 0.0
O201 O 0.53531 0.37212 0.44692 0.0
O202 O 0.55221 0.35605 0.46485 0.0
O203 O 0.57216 0.38606 0.43022 0.0
O204 O 0.56217 0.37236 0.40643 0.0
C205 C 0.5377 0.33297 0.41641 0.0
O206 O 0.58603 0.35487 0.45172 0.0
O207 O 0.57772 0.33122 0.43644 0.0
In208 In 0.30191 0.40447 0.18477 0.0
O209 O 0.30346 0.43055 0.20218 0.0
O210 O 0.32832 0.42102 0.18933 0.0
C211 C 0.27701 0.39294 0.21015 0.0
C212 C 0.28662 0.42192 0.15555 0.0
C213 C 0.32154 0.373 0.17982 0.0
O214 O 0.2905 0.40327 0.21414 0.0
O215 O 0.27612 0.38828 0.19336 0.0
O216 O 0.30841 0.3775 0.16924 0.0
O217 O 0.32522 0.38472 0.19216 0.0
C218 C 0.32062 0.4329 0.19967 0.0
O219 O 0.30386 0.42196 0.1583 0.0
O220 O 0.27747 0.41244 0.16693 0.0
In221 In 0.80279 0.10234 0.80337 0.0
O222 O 0.80814 0.08345 0.7788 0.0
O223 O 0.82917 0.08537 0.79939 0.0
C224 C 0.77659 0.11203 0.77856 0.0
C225 C 0.78809 0.08424 0.83257 0.0
C226 C 0.82087 0.13355 0.81337 0.0
O227 O 0.79152 0.12094 0.78043 0.0
O228 O 0.77505 0.09809 0.78895 0.0
O229 O 0.80443 0.1303 0.81823 0.0
O230 O 0.82834 0.12076 0.80418 0.0
C231 C 0.82395 0.07834 0.78424 0.0
O232 O 0.80256 0.07882 0.8245 0.0
O233 O 0.78174 0.09934 0.82663 0.0
In234 In 0.14709 0.56044 0.06175 0.0
O235 O 0.17601 0.55971 0.04937 0.0
O236 O 0.16121 0.58523 0.04835 0.0
C237 C 0.14209 0.53276 0.03718 0.0
C238 C 0.16095 0.55201 0.0955 0.0
C239 C 0.11412 0.5783 0.06403 0.0
O240 O 0.14382 0.54948 0.03238 0.0
O241 O 0.14273 0.52995 0.05441 0.0
O242 O 0.1155 0.56099 0.06269 0.0
O243 O 0.12939 0.58664 0.06497 0.0
C244 C 0.17594 0.57654 0.04461 0.0
O245 O 0.1649 0.56675 0.08712 0.0
O246 O 0.14896 0.54224 0.08747 0.0
In247 In 0.68778 0.8886 0.31258 0.0
O248 O 0.67016 0.89829 0.28857 0.0
O249 O 0.6717 0.91591 0.31218 0.0
C250 C 0.71035 0.87311 0.28723 0.0
C251 C 0.70928 0.91042 0.33362 0.0
C252 C 0.66814 0.85963 0.32607 0.0
O253 O 0.6958 0.88178 0.28303 0.0
O254 O 0.7136 0.87213 0.30436 0.0
O255 O 0.68546 0.86084 0.32766 0.0
O256 O 0.66065 0.87377 0.31916 0.0
C257 C 0.66548 0.91339 0.29601 0.0
O258 O 0.69572 0.90165 0.34043 0.0
O259 O 0.71179 0.90801 0.31653 0.0
In260 In 0.35568 0.4507 0.55488 0.0
O261 O 0.34023 0.45008 0.58254 0.0
O262 O 0.35409 0.47479 0.5751 0.0
C263 C 0.38607 0.42905 0.55425 0.0
C264 C 0.32745 0.4296 0.54272 0.0
C265 C 0.36333 0.47765 0.53018 0.0
O266 O 0.38137 0.43779 0.56867 0.0
O267 O 0.3755 0.4313 0.54056 0.0
O268 O 0.34812 0.46908 0.53038 0.0
O269 O 0.37478 0.47255 0.54237 0.0
C270 C 0.34373 0.4667 0.58651 0.0
O271 O 0.32808 0.44688 0.54013 0.0
O272 O 0.3409 0.42301 0.55174 0.0
In273 In 0.18683 0.60047 0.69655 0.0
O274 O 0.19726 0.58767 0.66928 0.0
O275 O 0.20713 0.57698 0.6949 0.0
C276 C 0.16677 0.62847 0.68162 0.0
C277 C 0.16434 0.57727 0.71489 0.0
C278 C 0.21099 0.61747 0.71939 0.0
O279 O 0.1841 0.6274 0.67992 0.0
O280 O 0.15956 0.61483 0.68969 0.0
O281 O 0.19494 0.61275 0.72439 0.0
O282 O 0.21471 0.61408 0.70268 0.0
C283 C 0.2077 0.57623 0.67751 0.0
O284 O 0.17318 0.59019 0.7227 0.0
O285 O 0.16653 0.5762 0.69754 0.0
In286 In 0.64659 0.94576 0.94651 0.0
O287 O 0.66813 0.93949 0.96848 0.0
O288 O 0.65989 0.91741 0.95071 0.0
C289 C 0.64089 0.97778 0.96483 0.0
C290 C 0.66385 0.95782 0.91554 0.0
C291 C 0.61397 0.92759 0.94707 0.0
O292 O 0.65243 0.96578 0.97019 0.0
O293 O 0.63237 0.9737 0.95013 0.0
O294 O 0.62478 0.92648 0.93337 0.0
O295 O 0.61977 0.93748 0.96018 0.0
C296 C 0.67008 0.92272 0.96392 0.0
O297 O 0.67102 0.94646 0.9266 0.0
O298 O 0.64751 0.96241 0.91952 0.0
In299 In 0.84383 0.06071 0.45479 0.0
O300 O 0.83389 0.05044 0.4264 0.0
O301 O 0.82212 0.03875 0.45075 0.0
C302 C 0.87472 0.07787 0.4426 0.0
C303 C 0.82073 0.08805 0.46491 0.0
C304 C 0.85573 0.03671 0.48094 0.0
O305 O 0.86996 0.06207 0.43683 0.0
O306 O 0.86355 0.08518 0.45383 0.0
O307 O 0.84172 0.04688 0.48318 0.0
O308 O 0.86405 0.03905 0.46579 0.0
C309 C 0.82256 0.03903 0.43333 0.0
O310 O 0.83348 0.08212 0.47532 0.0
O311 O 0.81987 0.08048 0.44916 0.0
H312 H 0.09982 0.15118 0.50221 0.0
H313 H 0.11412 0.1739 0.48178 0.0
H314 H 0.11944 0.21197 0.52757 0.0
H315 H 0.10473 0.18937 0.54806 0.0
H316 H 0.10102 0.22736 0.49969 0.0
H317 H 0.15774 0.19384 0.50577 0.0
H318 H 0.17812 0.16644 0.50581 0.0
H319 H 0.16558 0.1566 0.44852 0.0
H320 H 0.14491 0.1838 0.44819 0.0
H321 H 0.15257 0.29473 0.44845 0.0
H322 H 0.1383 0.27297 0.46997 0.0
H323 H 0.1314 0.23347 0.42564 0.0
H324 H 0.146 0.25507 0.40409 0.0
H325 H 0.1512 0.2193 0.45353 0.0
H326 H 0.09403 0.25265 0.44773 0.0
H327 H 0.0738 0.28016 0.44779 0.0
H328 H 0.0875 0.29051 0.50473 0.0
H329 H 0.10802 0.26319 0.50495 0.0
C330 C 0.10459 0.16415 0.50808 0.0
C331 C 0.10099 0.1686 0.52667 0.0
C332 C 0.11277 0.17714 0.49637 0.0
C333 C 0.11773 0.19467 0.50314 0.0
C334 C 0.11558 0.19855 0.52206 0.0
C335 C 0.10732 0.18558 0.53377 0.0
C336 C 0.123 0.20955 0.49009 0.0
C337 C 0.11223 0.22577 0.48981 0.0
C338 C 0.13722 0.20718 0.47685 0.0
C339 C 0.14964 0.19079 0.477 0.0
C340 C 0.1592 0.18575 0.49321 0.0
C341 C 0.17084 0.17027 0.49328 0.0
C342 C 0.17311 0.15976 0.47719 0.0
C343 C 0.16379 0.16474 0.46098 0.0
C344 C 0.15213 0.18021 0.46084 0.0
C345 C 0.14742 0.28168 0.44314 0.0
C346 C 0.15061 0.27647 0.42466 0.0
C347 C 0.13927 0.26924 0.45547 0.0
C348 C 0.13398 0.25154 0.44942 0.0
C349 C 0.13556 0.24702 0.43059 0.0
C350 C 0.14378 0.25941 0.41828 0.0
C351 C 0.12913 0.23703 0.46304 0.0
C352 C 0.14001 0.22091 0.46343 0.0
C353 C 0.11505 0.23952 0.4764 0.0
C354 C 0.10271 0.25596 0.4763 0.0
C355 C 0.09286 0.26088 0.46022 0.0
C356 C 0.08131 0.27642 0.46021 0.0
C357 C 0.0794 0.2871 0.47624 0.0
C358 C 0.089 0.28223 0.49232 0.0
C359 C 0.10058 0.26671 0.4924 0.0
H360 H 0.07045 0.29913 0.4762 0.0
H361 H 0.18213 0.14778 0.47727 0.0
H362 H 0.95027 0.88742 0.70072 0.0
H363 H 0.97333 0.87737 0.7233 0.0
H364 H 0.0131 0.86953 0.67944 0.0
H365 H 0.99011 0.87949 0.65673 0.0
H366 H 0.01843 0.84541 0.70994 0.0
H367 H 0.01028 0.91039 0.69644 0.0
H368 H 0.99124 0.9385 0.69269 0.0
H369 H 0.97531 0.93567 0.74992 0.0
H370 H 0.99397 0.90727 0.7539 0.0
H371 H 0.10117 0.86119 0.75231 0.0
H372 H 0.07632 0.87307 0.73278 0.0
H373 H 0.03903 0.87233 0.77938 0.0
H374 H 0.06381 0.86036 0.79907 0.0
H375 H 0.03182 0.90085 0.74859 0.0
H376 H 0.0391 0.83455 0.7611 0.0
H377 H 0.05859 0.80667 0.76424 0.0
H378 H 0.07728 0.81303 0.70817 0.0
H379 H 0.05791 0.84104 0.70472 0.0
C380 C 0.96365 0.88278 0.69577 0.0
C381 C 0.96859 0.8847 0.67704 0.0
C382 C 0.97683 0.87712 0.70871 0.0
C383 C 0.995 0.8733 0.70302 0.0
C384 C 0.99916 0.87264 0.68407 0.0
C385 C 0.986 0.87832 0.67111 0.0
C386 C 0.01022 0.87328 0.71666 0.0
C387 C 0.02138 0.85752 0.71833 0.0
C388 C 0.01404 0.88917 0.72759 0.0
C389 C 0.00336 0.90661 0.72542 0.0
C390 C 0.00264 0.9157 0.7082 0.0
C391 C 0.99191 0.93168 0.70603 0.0
C392 C 0.98204 0.93884 0.72105 0.0
C393 C 0.98295 0.93008 0.73829 0.0
C394 C 0.99359 0.91405 0.74051 0.0
C395 C 0.08796 0.86443 0.75865 0.0
C396 C 0.08423 0.85932 0.77705 0.0
C397 C 0.07377 0.87121 0.74746 0.0
C398 C 0.05582 0.87307 0.75462 0.0
C399 C 0.05282 0.87084 0.77365 0.0
C400 C 0.06701 0.86399 0.78488 0.0
C401 C 0.03992 0.87298 0.74184 0.0
C402 C 0.02872 0.88871 0.74029 0.0
C403 C 0.03609 0.85712 0.73094 0.0
C404 C 0.04718 0.83993 0.7327 0.0
C405 C 0.04742 0.83003 0.74947 0.0
C406 C 0.05845 0.81422 0.75131 0.0
C407 C 0.06926 0.80814 0.73646 0.0
C408 C 0.06893 0.81778 0.71967 0.0
C409 C 0.05788 0.83359 0.71775 0.0
H410 H 0.07783 0.79593 0.73793 0.0
H411 H 0.97371 0.9512 0.71934 0.0
H412 H 0.36852 0.69491 0.94391 0.0
H413 H 0.38242 0.71484 0.96754 0.0
H414 H 0.37162 0.76279 0.93357 0.0
H415 H 0.35777 0.74299 0.90993 0.0
H416 H 0.40377 0.76631 0.95524 0.0
H417 H 0.33912 0.74935 0.96131 0.0
H418 H 0.31369 0.7266 0.96301 0.0
H419 H 0.33784 0.70286 0.0119 0.0
H420 H 0.36364 0.72525 0.01026 0.0
H421 H 0.39286 0.83817 0.01759 0.0
H422 H 0.38226 0.81534 0.995 0.0
H423 H 0.39404 0.77136 0.03366 0.0
H424 H 0.40455 0.79413 0.05643 0.0
H425 H 0.3631 0.76419 0.01073 0.0
H426 H 0.42682 0.78312 0.00572 0.0
H427 H 0.45192 0.80616 0.00362 0.0
H428 H 0.42933 0.82653 0.95251 0.0
H429 H 0.40386 0.80382 0.9545 0.0
C430 C 0.36981 0.7096 0.94115 0.0
C431 C 0.36179 0.7175 0.92529 0.0
C432 C 0.37766 0.72097 0.95469 0.0
C433 C 0.3776 0.74027 0.95242 0.0
C434 C 0.37166 0.74792 0.9356 0.0
C435 C 0.36373 0.7366 0.92212 0.0
C436 C 0.38079 0.75262 0.96839 0.0
C437 C 0.39488 0.7659 0.96735 0.0
C438 C 0.3692 0.75193 0.98421 0.0
C439 C 0.35342 0.73883 0.98554 0.0
C440 C 0.33907 0.7392 0.97236 0.0
C441 C 0.32459 0.72638 0.9733 0.0
C442 C 0.32418 0.71326 0.98752 0.0
C443 C 0.3382 0.71301 0.00087 0.0
C444 C 0.35276 0.72575 -6e-05 0.0
C445 C 0.39259 0.8237 0.02153 0.0
C446 C 0.39984 0.81788 0.03862 0.0
C447 C 0.38662 0.81068 0.00858 0.0
C448 C 0.38788 0.7917 0.01255 0.0
C449 C 0.39315 0.78596 0.03033 0.0
C450 C 0.39913 0.79899 0.04331 0.0
C451 C 0.38601 0.77798 0.99752 0.0
C452 C 0.37213 0.76448 0.99872 0.0
C453 C 0.39778 0.77849 0.98182 0.0
C454 C 0.41334 0.79187 0.98035 0.0
C455 C 0.42713 0.79259 0.99409 0.0
C456 C 0.44143 0.80559 0.99292 0.0
C457 C 0.44221 0.81784 0.97796 0.0
C458 C 0.4287 0.81706 0.96411 0.0
C459 C 0.41433 0.80411 0.96525 0.0
H460 H 0.45328 0.8279 0.97707 0.0
H461 H 0.31297 0.70333 0.98822 0.0
H462 H 0.52695 0.06303 0.20092 0.0
H463 H 0.50626 0.07938 0.22198 0.0
H464 H 0.51402 0.12974 0.19078 0.0
H465 H 0.53504 0.11341 0.16959 0.0
H466 H 0.51299 0.1353 0.22924 0.0
H467 H 0.47728 0.10426 0.18214 0.0
H468 H 0.46775 0.07736 0.16337 0.0
H469 H 0.45055 0.04873 0.21258 0.0
H470 H 0.46026 0.07537 0.23168 0.0
H471 H 0.43326 0.18455 0.25436 0.0
H472 H 0.457 0.16772 0.23736 0.0
H473 H 0.44436 0.11819 0.26831 0.0
H474 H 0.42018 0.13501 0.28535 0.0
H475 H 0.44858 0.11128 0.23158 0.0
H476 H 0.48256 0.14286 0.27868 0.0
H477 H 0.49218 0.1696 0.29761 0.0
H478 H 0.51271 0.19702 0.24901 0.0
H479 H 0.50295 0.17055 0.22973 0.0
C480 C 0.52445 0.07764 0.19864 0.0
C481 C 0.53239 0.08693 0.1835 0.0
C482 C 0.51262 0.08694 0.21068 0.0
C483 C 0.50839 0.10563 0.20769 0.0
C484 C 0.51709 0.11526 0.19321 0.0
C485 C 0.52904 0.10594 0.18114 0.0
C486 C 0.49401 0.11471 0.21902 0.0
C487 C 0.49885 0.13022 0.22963 0.0
C488 C 0.47573 0.10767 0.21984 0.0
C489 C 0.46966 0.09174 0.20835 0.0
C490 C 0.47159 0.09217 0.18897 0.0
C491 C 0.46614 0.07698 0.17827 0.0
C492 C 0.45859 0.06133 0.18678 0.0
C493 C 0.45642 0.06086 0.20601 0.0
C494 C 0.46189 0.076 0.21677 0.0
C495 C 0.43548 0.17006 0.25756 0.0
C496 C 0.42496 0.16108 0.27124 0.0
C497 C 0.44912 0.1605 0.24789 0.0
C498 C 0.45266 0.14183 0.25184 0.0
C499 C 0.44189 0.13265 0.26518 0.0
C500 C 0.42812 0.14224 0.27487 0.0
C501 C 0.46748 0.13199 0.24175 0.0
C502 C 0.46273 0.11632 0.23133 0.0
C503 C 0.48585 0.13887 0.24116 0.0
C504 C 0.49189 0.15476 0.25273 0.0
C505 C 0.48901 0.15464 0.272 0.0
C506 C 0.4945 0.16975 0.2828 0.0
C507 C 0.50301 0.18502 0.27451 0.0
C508 C 0.5061 0.18519 0.25541 0.0
C509 C 0.50061 0.17013 0.24454 0.0
H510 H 0.50725 0.1967 0.28289 0.0
H511 H 0.45439 0.04958 0.17847 0.0
H512 H 0.63071 0.20709 0.55891 0.0
H513 H 0.61884 0.22717 0.53439 0.0
H514 H 0.6281 0.27503 0.56892 0.0
H515 H 0.63989 0.25505 0.59357 0.0
H516 H 0.59673 0.27829 0.54602 0.0
H517 H 0.66155 0.26188 0.54173 0.0
H518 H 0.68732 0.23947 0.54085 0.0
H519 H 0.66477 0.21505 0.49153 0.0
H520 H 0.63866 0.23711 0.49232 0.0
H521 H 0.60661 0.34777 0.47988 0.0
H522 H 0.61716 0.32651 0.50401 0.0
H523 H 0.60686 0.28009 0.46786 0.0
H524 H 0.59619 0.30125 0.44364 0.0
H525 H 0.63811 0.2754 0.49112 0.0
H526 H 0.57385 0.29203 0.49461 0.0
H527 H 0.54702 0.31312 0.49608 0.0
H528 H 0.56764 0.33631 0.5468 0.0
H529 H 0.59481 0.31561 0.54545 0.0
C530 C 0.62964 0.22182 0.56152 0.0
C531 C 0.63651 0.22956 0.57801 0.0
C532 C 0.62294 0.23327 0.54748 0.0
C533 C 0.62305 0.25256 0.54975 0.0
C534 C 0.62805 0.26016 0.5669 0.0
C535 C 0.63478 0.24872 0.58096 0.0
C536 C 0.62028 0.26486 0.53365 0.0
C537 C 0.60585 0.27781 0.53408 0.0
C538 C 0.63208 0.26394 0.518 0.0
C539 C 0.64806 0.25103 0.51719 0.0
C540 C 0.66204 0.25166 0.53076 0.0
C541 C 0.6767 0.23902 0.53028 0.0
C542 C 0.67766 0.22581 0.51617 0.0
C543 C 0.664 0.22527 0.50247 0.0
C544 C 0.64926 0.23784 0.50292 0.0
C545 C 0.6072 0.33309 0.47682 0.0
C546 C 0.60034 0.32612 0.46 0.0
C547 C 0.6131 0.32097 0.49066 0.0
C548 C 0.61233 0.30178 0.48779 0.0
C549 C 0.60739 0.29488 0.47033 0.0
C550 C 0.60134 0.30699 0.45652 0.0
C551 C 0.61463 0.28895 0.50354 0.0
C552 C 0.62897 0.2759 0.50303 0.0
C553 C 0.6027 0.28974 0.5191 0.0
C554 C 0.58649 0.3024 0.51982 0.0
C555 C 0.57279 0.30178 0.50596 0.0
C556 C 0.55749 0.31363 0.50679 0.0
C557 C 0.55563 0.32604 0.52152 0.0
C558 C 0.56911 0.32669 0.5354 0.0
C559 C 0.58446 0.3149 0.5346 0.0
H560 H 0.5437 0.33509 0.52223 0.0
H561 H 0.68901 0.21601 0.51585 0.0
H562 H 0.90603 0.35484 0.74406 0.0
H563 H 0.92828 0.36788 0.76586 0.0
H564 H 0.97066 0.36635 0.72377 0.0
H565 H 0.94842 0.35319 0.70185 0.0
H566 H 0.98022 0.34667 0.75427 0.0
H567 H 0.95724 0.40722 0.74179 0.0
H568 H 0.93383 0.4317 0.73751 0.0
H569 H 0.91598 0.42492 0.79383 0.0
H570 H 0.9391 0.40018 0.79837 0.0
H571 H 0.04828 0.38722 0.81441 0.0
H572 H 0.02766 0.37667 0.78978 0.0
H573 H 0.98123 0.37946 0.8273 0.0
H574 H 0.00172 0.3904 0.85189 0.0
H575 H 0.9752 0.39993 0.79731 0.0
H576 H 0.9966 0.33808 0.80918 0.0
H577 H 0.01974 0.31333 0.81351 0.0
H578 H 0.04025 0.32243 0.75845 0.0
H579 H 0.01739 0.34742 0.75387 0.0
C580 C 0.91991 0.35792 0.73924 0.0
C581 C 0.92556 0.35282 0.72134 0.0
C582 C 0.93262 0.36538 0.75172 0.0
C583 C 0.95116 0.36792 0.74646 0.0
C584 C 0.95643 0.36439 0.72809 0.0
C585 C 0.94367 0.35701 0.71555 0.0
C586 C 0.96533 0.37173 0.76077 0.0
C587 C 0.97938 0.35854 0.76346 0.0
C588 C 0.96383 0.38688 0.77306 0.0
C589 C 0.94983 0.40172 0.77037 0.0
C590 C 0.94822 0.41082 0.75322 0.0
C591 C 0.93502 0.42477 0.75075 0.0
C592 C 0.9234 0.42983 0.76538 0.0
C593 C 0.92498 0.42097 0.7825 0.0
C594 C 0.93815 0.40699 0.78504 0.0
C595 C 0.0338 0.38493 0.81761 0.0
C596 C 0.02656 0.3898 0.83501 0.0
C597 C 0.022 0.37895 0.80348 0.0
C598 C 0.00287 0.37749 0.80666 0.0
C599 C 0.99592 0.3807 0.82452 0.0
C600 C 0.00767 0.38679 0.83859 0.0
C601 C 0.9899 0.37471 0.79101 0.0
C602 C 0.97611 0.38813 0.78805 0.0
C603 C 0.99161 0.35974 0.77851 0.0
C604 C 0.00541 0.34476 0.78126 0.0
C605 C 0.00615 0.33492 0.79805 0.0
C606 C 0.0192 0.32083 0.80054 0.0
C607 C 0.03149 0.31635 0.78628 0.0
C608 C 0.03074 0.32593 0.76949 0.0
C609 C 0.01773 0.34005 0.76693 0.0
H610 H 0.04157 0.30543 0.78823 0.0
H611 H 0.9132 0.44065 0.76345 0.0
H612 H 0.86377 0.79691 0.0551 0.0
H613 H 0.87935 0.77762 0.03214 0.0
H614 H 0.87936 0.73177 0.07038 0.0
H615 H 0.86385 0.75096 0.09345 0.0
H616 H 0.90861 0.73041 0.04292 0.0
H617 H 0.84201 0.73686 0.04877 0.0
H618 H 0.81376 0.75582 0.0519 0.0
H619 H 0.82468 0.78125 -0.00074 0.0
H620 H 0.85327 0.76273 0.99605 0.0
H621 H 0.89848 0.65538 0.98394 0.0
H622 H 0.88793 0.67657 0.00809 0.0
H623 H 0.88536 0.72097 0.96822 0.0
H624 H 0.89575 0.69983 0.94392 0.0
H625 H 0.85839 0.72363 0.99626 0.0
H626 H 0.9244 0.71383 0.98971 0.0
H627 H 0.95218 0.69403 0.98777 0.0
H628 H 0.94191 0.67373 0.0427 0.0
H629 H 0.9138 0.69307 0.0448 0.0
C630 C 0.86794 0.78303 0.05898 0.0
C631 C 0.86209 0.7752 0.07579 0.0
C632 C 0.87683 0.77202 0.04583 0.0
C633 C 0.87993 0.75318 0.04945 0.0
C634 C 0.87689 0.74625 0.06731 0.0
C635 C 0.86796 0.75723 0.08046 0.0
C636 C 0.88186 0.74004 0.03393 0.0
C637 C 0.89767 0.72887 0.03273 0.0
C638 C 0.86744 0.73802 0.02076 0.0
C639 C 0.84986 0.74856 0.02226 0.0
C640 C 0.83843 0.74656 0.03791 0.0
C641 C 0.82237 0.75724 0.03971 0.0
C642 C 0.81745 0.76976 0.0258 0.0
C643 C 0.82854 0.77157 0.01004 0.0
C644 C 0.84468 0.76099 0.00822 0.0
C645 C 0.89498 0.66947 0.98015 0.0
C646 C 0.89831 0.67609 0.96216 0.0
C647 C 0.88906 0.68157 0.99399 0.0
C648 C 0.88647 0.70039 0.98997 0.0
C649 C 0.88753 0.7065 0.97157 0.0
C650 C 0.89342 0.69439 0.9577 0.0
C651 C 0.88521 0.71404 0.00512 0.0
C652 C 0.86945 0.72526 0.00631 0.0
C653 C 0.89962 0.71595 0.01836 0.0
C654 C 0.91688 0.70478 0.01734 0.0
C655 C 0.928 0.70506 0.00134 0.0
C656 C 0.9438 0.69391 0.0002 0.0
C657 C 0.94879 0.68259 0.01509 0.0
C658 C 0.93801 0.68247 0.03116 0.0
C659 C 0.92214 0.69352 0.03233 0.0
H660 H 0.96101 0.67395 0.01418 0.0
H661 H 0.80503 0.77802 0.02722 0.0
H662 H 0.56186 0.6417 0.19206 0.0
H663 H 0.53722 0.63015 0.21217 0.0
H664 H 0.57603 0.62589 0.2574 0.0
H665 H 0.60076 0.63717 0.23736 0.0
H666 H 0.54871 0.59957 0.25958 0.0
H667 H 0.55427 0.66558 0.25055 0.0
H668 H 0.55598 0.6939 0.23153 0.0
H669 H 0.50164 0.68303 0.20992 0.0
H670 H 0.49976 0.65442 0.22857 0.0
H671 H 0.49399 0.61251 0.33701 0.0
H672 H 0.5164 0.62276 0.31387 0.0
H673 H 0.47412 0.62073 0.27174 0.0
H674 H 0.45157 0.61039 0.29479 0.0
H675 H 0.50184 0.64948 0.26673 0.0
H676 H 0.49621 0.58375 0.27781 0.0
H677 H 0.49537 0.55577 0.29737 0.0
H678 H 0.55081 0.56671 0.31592 0.0
H679 H 0.55182 0.59501 0.29679 0.0
C680 C 0.56531 0.63758 0.20606 0.0
C681 C 0.58311 0.64072 0.21329 0.0
C682 C 0.5512 0.6311 0.21756 0.0
C683 C 0.55475 0.62775 0.23637 0.0
C684 C 0.573 0.62861 0.24296 0.0
C685 C 0.58712 0.63506 0.23148 0.0
C686 C 0.53934 0.6261 0.24972 0.0
C687 C 0.53851 0.61049 0.26119 0.0
C688 C 0.52601 0.64038 0.25172 0.0
C689 C 0.52695 0.65777 0.2408 0.0
C690 C 0.54273 0.66917 0.24166 0.0
C691 C 0.54374 0.68527 0.23095 0.0
C692 C 0.52894 0.69024 0.21951 0.0
C693 C 0.5131 0.67914 0.21878 0.0
C694 C 0.51206 0.66298 0.22941 0.0
C695 C 0.48926 0.61494 0.32298 0.0
C696 C 0.47114 0.61029 0.3176 0.0
C697 C 0.50211 0.62072 0.30977 0.0
C698 C 0.49694 0.622 0.2911 0.0
C699 C 0.47834 0.61964 0.2861 0.0
C700 C 0.46548 0.61376 0.29929 0.0
C701 C 0.51131 0.623 0.27662 0.0
C702 C 0.51195 0.6385 0.26498 0.0
C703 C 0.52457 0.60868 0.27455 0.0
C704 C 0.52402 0.5916 0.28599 0.0
C705 C 0.50815 0.58029 0.2862 0.0
C706 C 0.50765 0.56436 0.2972 0.0
C707 C 0.52303 0.55947 0.30788 0.0
C708 C 0.53891 0.57053 0.30764 0.0
C709 C 0.53945 0.58652 0.29673 0.0
H710 H 0.52268 0.54706 0.31627 0.0
H711 H 0.52972 0.70273 0.21125 0.0
H712 H 0.30057 0.45377 0.14074 0.0
H713 H 0.28209 0.47949 0.12849 0.0
H714 H 0.23312 0.4453 0.13061 0.0
H715 H 0.25143 0.41967 0.14276 0.0
H716 H 0.23258 0.47021 0.10125 0.0
H717 H 0.24587 0.46946 0.16801 0.0
H718 H 0.26784 0.46943 0.1942 0.0
H719 H 0.29083 0.52093 0.17533 0.0
H720 H 0.26916 0.5211 0.14888 0.0
H721 H 0.15566 0.52042 0.11533 0.0
H722 H 0.18064 0.50132 0.12766 0.0
H723 H 0.21932 0.54602 0.11927 0.0
H724 H 0.19434 0.56537 0.10714 0.0
H725 H 0.22907 0.51959 0.1491 0.0
H726 H 0.21405 0.52252 0.08432 0.0
H727 H 0.19191 0.52317 0.05832 0.0
H728 H 0.17336 0.46845 0.07236 0.0
H729 H 0.1951 0.46765 0.09875 0.0
C730 C 0.28601 0.45153 0.13786 0.0
C731 C 0.27732 0.43488 0.14291 0.0
C732 C 0.27547 0.46626 0.13099 0.0
C733 C 0.25621 0.46436 0.12908 0.0
C734 C 0.24795 0.44705 0.13211 0.0
C735 C 0.25842 0.43243 0.13907 0.0
C736 C 0.24416 0.4807 0.12666 0.0
C737 C 0.23188 0.48103 0.11164 0.0
C738 C 0.24349 0.495 0.14011 0.0
C739 C 0.25603 0.49521 0.15639 0.0
C740 C 0.25565 0.48074 0.16943 0.0
C741 C 0.26805 0.48069 0.18432 0.0
C742 C 0.28075 0.49515 0.18642 0.0
C743 C 0.281 0.50973 0.17369 0.0
C744 C 0.26866 0.50981 0.15875 0.0
C745 C 0.16927 0.52652 0.11698 0.0
C746 C 0.1732 0.54415 0.10979 0.0
C747 C 0.18354 0.51558 0.124 0.0
C748 C 0.20183 0.52214 0.12378 0.0
C749 C 0.20528 0.54072 0.11936 0.0
C750 C 0.19096 0.55174 0.11243 0.0
C751 C 0.21722 0.5087 0.124 0.0
C752 C 0.23007 0.50897 0.13852 0.0
C753 C 0.21859 0.49504 0.10999 0.0
C754 C 0.20611 0.49508 0.09361 0.0
C755 C 0.20519 0.51065 0.08192 0.0
C756 C 0.1927 0.51106 0.06712 0.0
C757 C 0.18121 0.49588 0.06371 0.0
C758 C 0.18226 0.48021 0.07504 0.0
C759 C 0.19467 0.47977 0.08992 0.0
H760 H 0.17152 0.49623 0.05227 0.0
H761 H 0.29038 0.49508 0.19792 0.0
H762 H 0.65554 0.99031 0.89837 0.0
H763 H 0.67733 0.01055 0.88239 0.0
H764 H 0.71935 0.96812 0.88568 0.0
H765 H 0.69774 0.94805 0.9023 0.0
H766 H 0.73193 0.99871 0.89966 0.0
H767 H 0.70067 0.98325 0.84349 0.0
H768 H 0.67408 0.97867 0.82256 0.0
H769 H 0.65996 0.03624 0.82734 0.0
H770 H 0.68632 0.04113 0.84851 0.0
H771 H 0.79719 0.04956 0.84449 0.0
H772 H 0.77629 0.02709 0.85878 0.0
H773 H 0.73372 0.06888 0.86245 0.0
H774 H 0.7545 0.0914 0.8481 0.0
H775 H 0.72224 0.03772 0.84399 0.0
H776 H 0.75334 0.05247 0.90105 0.0
H777 H 0.78031 0.05667 0.92158 0.0
H778 H 0.79523 -0.00043 0.91421 0.0
H779 H 0.76848 0.99508 0.89342 0.0
C780 C 0.66923 0.98508 0.89516 0.0
C781 C 0.67503 0.9677 0.90168 0.0
C782 C 0.6817 0.99666 0.886 0.0
C783 C 0.70001 0.99087 0.88288 0.0
C784 C 0.70533 0.97291 0.88807 0.0
C785 C 0.69295 0.96142 0.89745 0.0
C786 C 0.7141 0.00426 0.87631 0.0
C787 C 0.72997 0.00697 0.88726 0.0
C788 C 0.7113 0.01541 0.86046 0.0
C789 C 0.6954 0.01252 0.84773 0.0
C790 C 0.69181 0.99491 0.84021 0.0
C791 C 0.67679 0.99226 0.82827 0.0
C792 C 0.66532 0.00714 0.82366 0.0
C793 C 0.66886 0.02472 0.83094 0.0
C794 C 0.68385 0.02744 0.84289 0.0
C795 C 0.78356 0.0541 0.84882 0.0
C796 C 0.77741 0.07217 0.84507 0.0
C797 C 0.77163 0.04124 0.85695 0.0
C798 C 0.75344 0.04633 0.86151 0.0
C799 C 0.74769 0.06469 0.85889 0.0
C800 C 0.75961 0.07756 0.85082 0.0
C801 C 0.73991 0.03215 0.86739 0.0
C802 C 0.72419 0.02933 0.85631 0.0
C803 C 0.7429 0.02081 0.88303 0.0
C804 C 0.75901 0.02349 0.89552 0.0
C805 C 0.76246 0.04085 0.90367 0.0
C806 C 0.77769 0.04327 0.91538 0.0
C807 C 0.78951 0.02841 0.91916 0.0
C808 C 0.78608 0.01108 0.91126 0.0
C809 C 0.77088 0.00858 0.89952 0.0
H810 H 0.80128 0.03032 0.92824 0.0
H811 H 0.6537 0.00506 0.81441 0.0
H812 H 0.73833 0.93045 0.32084 0.0
H813 H 0.75754 0.95227 0.33791 0.0
H814 H 0.72647 0.94096 0.38769 0.0
H815 H 0.70684 0.91914 0.37049 0.0
H816 H 0.73161 0.97774 0.38246 0.0
H817 H 0.76961 0.92348 0.38229 0.0
H818 H 0.78588 0.89677 0.36857 0.0
H819 H 0.81866 0.93348 0.3352 0.0
H820 H 0.80239 0.96042 0.34853 0.0
H821 H 0.79461 0.01742 0.4459 0.0
H822 H 0.77524 0.99623 0.42817 0.0
H823 H 0.80411 0.01139 0.37811 0.0
H824 H 0.82371 0.03282 0.39589 0.0
H825 H 0.80021 0.97298 0.38321 0.0
H826 H 0.76215 0.02733 0.38407 0.0
H827 H 0.74602 0.05376 0.39846 0.0
H828 H 0.71348 0.01641 0.43135 0.0
H829 H 0.72962 0.98974 0.41736 0.0
C830 C 0.73561 0.93251 0.33545 0.0
C831 C 0.72112 0.92307 0.34438 0.0
C832 C 0.74666 0.94494 0.34519 0.0
C833 C 0.74357 0.94804 0.36409 0.0
C834 C 0.72909 0.93867 0.37309 0.0
C835 C 0.71795 0.92621 0.3633 0.0
C836 C 0.75523 0.96146 0.37423 0.0
C837 C 0.74659 0.97656 0.38288 0.0
C838 C 0.7748 0.96013 0.3743 0.0
C839 C 0.78465 0.94396 0.36628 0.0
C840 C 0.78018 0.92585 0.37191 0.0
C841 C 0.78942 0.91067 0.36423 0.0
C842 C 0.80326 0.91343 0.35099 0.0
C843 C 0.80792 0.93137 0.34544 0.0
C844 C 0.79871 0.9466 0.35307 0.0
C845 C 0.79681 0.01633 0.4311 0.0
C846 C 0.81064 0.02676 0.42223 0.0
C847 C 0.78568 0.00427 0.421 0.0
C848 C 0.78818 0.0024 0.40185 0.0
C849 C 0.802 0.01274 0.3929 0.0
C850 C 0.8131 0.02498 0.40302 0.0
C851 C 0.77657 0.9892 0.39142 0.0
C852 C 0.78523 0.97416 0.38274 0.0
C853 C 0.75703 0.99053 0.3914 0.0
C854 C 0.74722 0.00654 0.39978 0.0
C855 C 0.75166 0.02475 0.39448 0.0
C856 C 0.7425 0.03978 0.40255 0.0
C857 C 0.72876 0.03677 0.41584 0.0
C858 C 0.72414 0.01872 0.42107 0.0
C859 C 0.73327 0.00364 0.41306 0.0
H860 H 0.72169 0.04843 0.42207 0.0
H861 H 0.81041 0.90165 0.34506 0.0
H862 H 0.22959 0.55021 0.69332 0.0
H863 H 0.25353 0.5316 0.67858 0.0
H864 H 0.23963 0.55539 0.62556 0.0
H865 H 0.21537 0.57417 0.64032 0.0
H866 H 0.24629 0.51792 0.62342 0.0
H867 H 0.27562 0.57153 0.64775 0.0
H868 H 0.28389 0.59505 0.67108 0.0
H869 H 0.3096 0.5532 0.70461 0.0
H870 H 0.30107 0.52934 0.68171 0.0
H871 H 0.34709 0.50318 0.59534 0.0
H872 H 0.32483 0.5217 0.61278 0.0
H873 H 0.29481 0.47213 0.62733 0.0
H874 H 0.31687 0.4535 0.60961 0.0
H875 H 0.3106 0.52447 0.64698 0.0
H876 H 0.24886 0.4806 0.62054 0.0
H877 H 0.2417 0.45939 0.5947 0.0
H878 H 0.2824 0.48644 0.56082 0.0
H879 H 0.28957 0.50799 0.58633 0.0
C880 C 0.23148 0.5514 0.67849 0.0
C881 C 0.22071 0.56374 0.66796 0.0
C882 C 0.24521 0.54079 0.67012 0.0
C883 C 0.24853 0.54238 0.65107 0.0
C884 C 0.2373 0.55408 0.64032 0.0
C885 C 0.22348 0.56476 0.64873 0.0
C886 C 0.26411 0.53213 0.64266 0.0
C887 C 0.26034 0.51934 0.62856 0.0
C888 C 0.2825 0.5343 0.64916 0.0
C889 C 0.28752 0.5486 0.66308 0.0
C890 C 0.28284 0.5673 0.6602 0.0
C891 C 0.28759 0.5807 0.67335 0.0
C892 C 0.2972 0.57562 0.68935 0.0
C893 C 0.30209 0.55711 0.69224 0.0
C894 C 0.29729 0.54364 0.67919 0.0
C895 C 0.33603 0.49616 0.60267 0.0
C896 C 0.33352 0.47694 0.60089 0.0
C897 C 0.32333 0.50677 0.61263 0.0
C898 C 0.30796 0.49831 0.62093 0.0
C899 C 0.30642 0.47893 0.62069 0.0
C900 C 0.31909 0.4683 0.61067 0.0
C901 C 0.29267 0.50987 0.62816 0.0
C902 C 0.29652 0.52297 0.64194 0.0
C903 C 0.27445 0.50834 0.62103 0.0
C904 C 0.26988 0.49577 0.60542 0.0
C905 C 0.25621 0.48208 0.60754 0.0
C906 C 0.25215 0.46999 0.59296 0.0
C907 C 0.26163 0.47153 0.57615 0.0
C908 C 0.27511 0.48522 0.57386 0.0
C909 C 0.27918 0.49737 0.58838 0.0
H910 H 0.25851 0.46213 0.5649 0.0
H911 H 0.30093 0.58603 0.69946 0.0
H912 H 0.32633 0.3919 0.54164 0.0
H913 H 0.30465 0.37256 0.52419 0.0
H914 H 0.27442 0.42128 0.5074 0.0
H915 H 0.2961 0.44076 0.52479 0.0
H916 H 0.2515 0.38999 0.51632 0.0
H917 H 0.30474 0.40594 0.47899 0.0
H918 H 0.3382 0.40829 0.47259 0.0
H919 H 0.34367 0.3493 0.47784 0.0
H920 H 0.31026 0.34664 0.48456 0.0
H921 H 0.20678 0.35476 0.43574 0.0
H922 H 0.22417 0.37291 0.45848 0.0
H923 H 0.26087 0.32655 0.46746 0.0
H924 H 0.24391 0.30861 0.44435 0.0
H925 H 0.28016 0.35653 0.46355 0.0
H926 H 0.22711 0.33976 0.49956 0.0
H927 H 0.19386 0.33684 0.5068 0.0
H928 H 0.18793 0.39598 0.50498 0.0
H929 H 0.2211 0.39925 0.49748 0.0
C930 C 0.31488 0.39847 0.53449 0.0
C931 C 0.31299 0.41784 0.53439 0.0
C932 C 0.30254 0.38742 0.52454 0.0
C933 C 0.2881 0.39556 0.51438 0.0
C934 C 0.28551 0.41478 0.51516 0.0
C935 C 0.29793 0.42587 0.52502 0.0
C936 C 0.27679 0.38419 0.50166 0.0
C937 C 0.25766 0.38278 0.50466 0.0
C938 C 0.285 0.37456 0.48672 0.0
C939 C 0.30504 0.37611 0.48247 0.0
C940 C 0.3131 0.39349 0.47892 0.0
C941 C 0.33206 0.39488 0.47522 0.0
C942 C 0.34307 0.37896 0.47486 0.0
C943 C 0.33513 0.36162 0.47815 0.0
C944 C 0.31619 0.36016 0.4819 0.0
C945 C 0.21851 0.34844 0.44264 0.0
C946 C 0.22403 0.33031 0.43827 0.0
C947 C 0.22836 0.35877 0.45572 0.0
C948 C 0.2437 0.35102 0.46485 0.0
C949 C 0.24909 0.33282 0.46059 0.0
C950 C 0.23938 0.32258 0.4474 0.0
C951 C 0.25472 0.3621 0.47819 0.0
C952 C 0.27388 0.36358 0.47525 0.0
C953 C 0.24652 0.37165 0.49324 0.0
C954 C 0.22656 0.36974 0.49778 0.0
C955 C 0.21869 0.35214 0.50056 0.0
C956 C 0.19986 0.35042 0.50474 0.0
C957 C 0.18878 0.36621 0.5063 0.0
C958 C 0.19652 0.38376 0.50374 0.0
C959 C 0.21534 0.38556 0.49954 0.0
H960 H 0.1742 0.36485 0.50954 0.0
H961 H 0.35774 0.38006 0.47199 0.0
H962 H 0.89074 0.95877 0.67267 0.0
H963 H 0.87439 0.98062 0.6927 0.0
H964 H 0.92506 0.99152 0.72246 0.0
H965 H 0.94155 0.96956 0.70248 0.0
H966 H 0.89448 0.98733 0.74564 0.0
H967 H 0.91122 0.02182 0.69131 0.0
H968 H 0.91323 0.02769 0.65773 0.0
H969 H 0.85388 0.02765 0.65383 0.0
H970 H 0.85151 0.0215 0.68736 0.0
H971 H 0.85984 0.06817 0.79076 0.0
H972 H 0.87865 0.04641 0.77278 0.0
H973 H 0.83237 0.03665 0.73618 0.0
H974 H 0.81374 0.05872 0.75376 0.0
H975 H 0.8627 0.04104 0.71682 0.0
H976 H 0.84551 0.00524 0.77033 0.0
H977 H 0.84288 0.99846 0.8037 0.0
H978 H 0.90209 0.00018 0.80906 0.0
H979 H 0.90507 0.00722 0.77575 0.0
C980 C 0.89838 0.96574 0.68354 0.0
C981 C 0.91743 0.96257 0.68596 0.0
C982 C 0.88905 0.97824 0.69493 0.0
C983 C 0.89859 0.98783 0.70888 0.0
C984 C 0.91749 0.98428 0.71171 0.0
C985 C 0.92687 0.9718 0.70027 0.0
C986 C 0.88885 0.00184 0.72021 0.0
C987 C 0.88775 -0.00075 0.73942 0.0
C988 C 0.87981 0.01715 0.71197 0.0
C989 C 0.8812 0.02104 0.69183 0.0
C990 C 0.8986 0.02293 0.68327 0.0
C991 C 0.8998 0.02633 0.66425 0.0
C992 C 0.88369 0.028 0.65364 0.0
C993 C 0.86634 0.02633 0.66206 0.0
C994 C 0.86506 0.02291 0.68108 0.0
C995 C 0.8537 0.06135 0.77889 0.0
C996 C 0.83534 0.0651 0.77365 0.0
C997 C 0.86442 0.04887 0.76868 0.0
C998 C 0.85685 0.03974 0.75325 0.0
C999 C 0.83851 0.04354 0.74802 0.0
C1000 C 0.82787 0.05611 0.7581 0.0
C1001 C 0.86802 0.02643 0.74231 0.0
C1002 C 0.86946 0.02919 0.72312 0.0
C1003 C 0.87726 0.01122 0.75057 0.0
C1004 C 0.8755 0.00695 0.77059 0.0
C1005 C 0.85796 0.00432 0.77866 0.0
C1006 C 0.85641 0.00041 0.79755 0.0
C1007 C 0.8723 0.99895 0.80851 0.0
C1008 C 0.88979 0.00135 0.80057 0.0
C1009 C 0.89142 0.00529 0.78168 0.0
H1010 H 0.87107 0.99592 0.82313 0.0
H1011 H 0.88465 0.03063 0.63892 0.0
H1012 H 0.31045 0.63533 0.94139 0.0
H1013 H 0.2927 0.61752 0.96413 0.0
H1014 H 0.2632 0.66704 0.97994 0.0
H1015 H 0.28117 0.68496 0.95761 0.0
H1016 H 0.26937 0.64562 0.00954 0.0
H1017 H 0.24568 0.63739 0.9475 0.0
H1018 H 0.24773 0.62903 0.91445 0.0
H1019 H 0.26355 0.5736 0.92914 0.0
H1020 H 0.26184 0.58173 0.96231 0.0
H1021 H 0.18092 0.61323 0.03727 0.0
H1022 H 0.20717 0.62771 0.02148 0.0
H1023 H 0.23304 0.57423 0.0151 0.0
H1024 H 0.20686 0.55964 0.03102 0.0
H1025 H 0.23178 0.59481 0.9825 0.0
H1026 H 0.25092 0.60283 0.04528 0.0
H1027 H 0.24749 0.61192 0.07801 0.0
H1028 H 0.23873 0.66844 0.06173 0.0
H1029 H 0.24182 0.65965 0.02886 0.0
C1030 C 0.30043 0.64246 0.94997 0.0
C1031 C 0.297 0.66146 0.94756 0.0
C1032 C 0.29026 0.63227 0.9629 0.0
C1033 C 0.27638 0.6409 0.97345 0.0
C1034 C 0.27379 0.66009 0.97189 0.0
C1035 C 0.28402 0.6703 0.95906 0.0
C1036 C 0.26347 0.62983 0.98493 0.0
C1037 C 0.2611 0.63456 0.00363 0.0
C1038 C 0.25292 0.61516 0.97728 0.0
C1039 C 0.25386 0.61023 0.95736 0.0
C1040 C 0.24974 0.62346 0.94367 0.0
C1041 C 0.25081 0.61876 0.92492 0.0
C1042 C 0.25582 0.60081 0.9197 0.0
C1043 C 0.25971 0.58751 0.93321 0.0
C1044 C 0.25869 0.59216 0.95199 0.0
C1045 C 0.19224 0.60457 0.03258 0.0
C1046 C 0.19186 0.58532 0.03534 0.0
C1047 C 0.20725 0.61286 0.02366 0.0
C1048 C 0.22209 0.60203 0.01729 0.0
C1049 C 0.22174 0.5828 0.02 0.0
C1050 C 0.20681 0.57452 0.02909 0.0
C1051 C 0.23751 0.61077 0.00703 0.0
C1052 C 0.24028 0.60564 0.98852 0.0
C1053 C 0.24827 0.62517 0.01482 0.0
C1054 C 0.24646 0.63054 0.03458 0.0
C1055 C 0.24811 0.61717 0.04866 0.0
C1056 C 0.24625 0.62228 0.06724 0.0
C1057 C 0.24286 0.64074 0.07194 0.0
C1058 C 0.24135 0.65414 0.05807 0.0
C1059 C 0.24318 0.64911 0.03946 0.0
H1060 H 0.24142 0.64467 0.08634 0.0
H1061 H 0.25665 0.59719 0.90517 0.0
H1062 H 0.58704 0.99894 0.1677 0.0
H1063 H 0.60098 0.98087 0.19262 0.0
H1064 H 0.61582 0.03124 0.22115 0.0
H1065 H 0.60209 0.0495 0.19601 0.0
H1066 H 0.64314 0.0051 0.22358 0.0
H1067 H 0.57846 0.00843 0.23499 0.0
H1068 H 0.54519 0.00659 0.2275 0.0
H1069 H 0.55073 0.94854 0.21578 0.0
H1070 H 0.58411 0.95009 0.22292 0.0
H1071 H 0.66136 0.95008 0.3045 0.0
H1072 H 0.64649 0.97393 0.28535 0.0
H1073 H 0.63089 0.93222 0.24551 0.0
H1074 H 0.64577 0.90845 0.26441 0.0
H1075 H 0.60268 0.95796 0.25305 0.0
H1076 H 0.6685 0.95659 0.23816 0.0
H1077 H 0.70168 0.95902 0.24595 0.0
H1078 H 0.69331 0.01456 0.26553 0.0
H1079 H 0.66 0.01234 0.25808 0.0
C1080 C 0.59348 0.00619 0.17915 0.0
C1081 C 0.59335 0.02561 0.18001 0.0
C1082 C 0.60135 0.99585 0.19342 0.0
C1083 C 0.60905 0.00473 0.2089 0.0
C1084 C 0.60982 0.02414 0.20937 0.0
C1085 C 0.60199 0.03453 0.19501 0.0
C1086 C 0.61564 0.99358 0.22479 0.0
C1087 C 0.63421 0.99505 0.23028 0.0
C1088 C 0.60395 0.98048 0.23352 0.0
C1089 C 0.58383 0.97941 0.22938 0.0
C1090 C 0.57261 0.99529 0.2307 0.0
C1091 C 0.55373 0.9943 0.22652 0.0
C1092 C 0.54586 0.97746 0.22113 0.0
C1093 C 0.55685 0.96158 0.21995 0.0
C1094 C 0.57575 0.9625 0.22408 0.0
C1095 C 0.65451 0.946 0.29179 0.0
C1096 C 0.65476 0.92746 0.28586 0.0
C1097 C 0.64611 0.95962 0.28086 0.0
C1098 C 0.63775 0.9548 0.26398 0.0
C1099 C 0.63728 0.93618 0.2585 0.0
C1100 C 0.64582 0.92264 0.26928 0.0
C1101 C 0.63028 0.9691 0.25139 0.0
C1102 C 0.6115 0.96825 0.24656 0.0
C1103 C 0.64173 0.98286 0.24342 0.0
C1104 C 0.66174 0.98422 0.24779 0.0
C1105 C 0.67371 0.96926 0.24428 0.0
C1106 C 0.69254 0.97061 0.2486 0.0
C1107 C 0.69959 0.98691 0.25629 0.0
C1108 C 0.68782 0.00192 0.25961 0.0
C1109 C 0.66897 0.00063 0.25534 0.0
H1110 H 0.71417 0.98793 0.25963 0.0
H1111 H 0.53124 0.97672 0.21791 0.0
H1112 H 0.68318 0.16613 0.54816 0.0
H1113 H 0.70167 0.15235 0.52325 0.0
H1114 H 0.75109 0.17672 0.54656 0.0
H1115 H 0.73258 0.19117 0.57081 0.0
H1116 H 0.75352 0.17849 0.51124 0.0
H1117 H 0.73703 0.13012 0.55454 0.0
H1118 H 0.71564 0.11043 0.57248 0.0
H1119 H 0.69074 0.09102 0.52206 0.0
H1120 H 0.71186 0.11079 0.50384 0.0
H1121 H 0.82444 0.11247 0.49332 0.0
H1122 H 0.80051 0.13274 0.50621 0.0
H1123 H 0.76204 0.11421 0.46443 0.0
H1124 H 0.7861 0.09419 0.45114 0.0
H1125 H 0.75057 0.11031 0.50331 0.0
H1126 H 0.77317 0.15561 0.46065 0.0
H1127 H 0.79702 0.17419 0.44479 0.0
H1128 H 0.81325 0.19825 0.4967 0.0
H1129 H 0.78968 0.17961 0.51292 0.0
C1130 C 0.69797 0.16862 0.54782 0.0
C1131 C 0.7065 0.17956 0.56146 0.0
C1132 C 0.70853 0.16072 0.53364 0.0
C1133 C 0.72784 0.16322 0.53319 0.0
C1134 C 0.73623 0.17459 0.54656 0.0
C1135 C 0.72565 0.18278 0.56047 0.0
C1136 C 0.7396 0.15339 0.51948 0.0
C1137 C 0.75288 0.16358 0.50955 0.0
C1138 C 0.73855 0.13395 0.51692 0.0
C1139 C 0.72584 0.1221 0.52785 0.0
C1140 C 0.72689 0.12176 0.5473 0.0
C1141 C 0.71484 0.11057 0.55751 0.0
C1142 C 0.70179 0.09953 0.54842 0.0
C1143 C 0.70082 0.09962 0.52909 0.0
C1144 C 0.71282 0.1108 0.51881 0.0
C1145 C 0.81098 0.11298 0.48668 0.0
C1146 C 0.80706 0.10177 0.47128 0.0
C1147 C 0.79738 0.12458 0.49401 0.0
C1148 C 0.77959 0.12495 0.4862 0.0
C1149 C 0.77575 0.11413 0.47054 0.0
C1150 C 0.78949 0.10278 0.46297 0.0
C1151 C 0.76471 0.13538 0.49558 0.0
C1152 C 0.75089 0.12527 0.5047 0.0
C1153 C 0.76556 0.1548 0.49773 0.0
C1154 C 0.77972 0.1661 0.48802 0.0
C1155 C 0.78192 0.16475 0.46871 0.0
C1156 C 0.79537 0.17532 0.45965 0.0
C1157 C 0.80667 0.18737 0.46974 0.0
C1158 C 0.8045 0.18891 0.4889 0.0
C1159 C 0.79107 0.17836 0.49803 0.0
H1160 H 0.81707 0.19554 0.4627 0.0
H1161 H 0.69248 0.09087 0.55635 0.0
H1162 H 0.1477 0.54549 0.70252 0.0
H1163 H 0.13154 0.52222 0.72127 0.0
H1164 H 0.13981 0.55579 0.77002 0.0
H1165 H 0.15615 0.57882 0.75153 0.0
H1166 H 0.14974 0.52078 0.77618 0.0
H1167 H 0.0974 0.55234 0.74871 0.0
H1168 H 0.07842 0.56403 0.72283 0.0
H1169 H 0.07203 0.50865 0.70209 0.0
H1170 H 0.09119 0.49666 0.72774 0.0
H1171 H 0.08741 0.48614 0.84224 0.0
H1172 H 0.10311 0.5052 0.81911 0.0
H1173 H 0.094 0.46298 0.77782 0.0
H1174 H 0.07825 0.44374 0.80097 0.0
H1175 H 0.08554 0.49876 0.76537 0.0
H1176 H 0.13566 0.467 0.79443 0.0
H1177 H 0.15433 0.45534 0.82054 0.0
H1178 H 0.16491 0.51111 0.83828 0.0
H1179 H 0.14606 0.5231 0.81243 0.0
C1180 C 0.14588 0.54795 0.7172 0.0
C1181 C 0.1532 0.56392 0.72559 0.0
C1182 C 0.13664 0.53468 0.72788 0.0
C1183 C 0.13446 0.5373 0.74703 0.0
C1184 C 0.14142 0.55345 0.75529 0.0
C1185 C 0.15069 0.56663 0.74468 0.0
C1186 C 0.12559 0.52304 0.75878 0.0
C1187 C 0.13564 0.5161 0.7739 0.0
C1188 C 0.10744 0.51644 0.75541 0.0
C1189 C 0.09591 0.52363 0.74001 0.0
C1190 C 0.09208 0.54268 0.73854 0.0
C1191 C 0.08126 0.54935 0.72393 0.0
C1192 C 0.07407 0.5371 0.71079 0.0
C1193 C 0.07764 0.51813 0.71226 0.0
C1194 C 0.08847 0.51139 0.72684 0.0
C1195 C 0.08878 0.48089 0.82825 0.0
C1196 C 0.08169 0.46344 0.82341 0.0
C1197 C 0.09778 0.49176 0.81507 0.0
C1198 C 0.09982 0.4854 0.79682 0.0
C1199 C 0.09257 0.46808 0.79186 0.0
C1200 C 0.08367 0.45711 0.8051 0.0
C1201 C 0.10953 0.497 0.78303 0.0
C1202 C 0.09969 0.50334 0.76752 0.0
C1203 C 0.1279 0.50309 0.78602 0.0
C1204 C 0.13932 0.49594 0.80156 0.0
C1205 C 0.14184 0.47678 0.80398 0.0
C1206 C 0.15248 0.47011 0.81872 0.0
C1207 C 0.16077 0.48248 0.83108 0.0
C1208 C 0.15847 0.50154 0.8287 0.0
C1209 C 0.14782 0.50829 0.81399 0.0
H1210 H 0.169 0.47729 0.84249 0.0
H1211 H 0.0657 0.54229 0.69949 0.0
H1212 H 0.678 0.8866 0.95574 0.0
H1213 H 0.70158 0.86692 0.97018 0.0
H1214 H 0.71675 0.91175 0.00667 0.0
H1215 H 0.69343 0.93153 0.99217 0.0
H1216 H 0.74703 0.89475 0.99227 0.0
H1217 H 0.68962 0.87643 0.0217 0.0
H1218 H 0.65736 0.86518 0.02181 0.0
H1219 H 0.67442 0.81508 0.99468 0.0
H1220 H 0.70676 0.82615 0.99418 0.0
H1221 H 0.79274 0.8505 0.0666 0.0
H1222 H 0.77316 0.86805 0.04537 0.0
H1223 H 0.76031 0.81788 0.01551 0.0
H1224 H 0.77948 0.80014 0.0371 0.0
H1225 H 0.72983 0.83584 0.02313 0.0
H1226 H 0.78778 0.85256 0.99641 0.0
H1227 H 0.82003 0.86377 0.9958 0.0
H1228 H 0.80244 0.91647 0.01703 0.0
H1229 H 0.77011 0.90549 0.01802 0.0
C1230 C 0.68634 0.89222 0.96687 0.0
C1231 C 0.68384 0.91056 0.9729 0.0
C1232 C 0.69978 0.88097 0.9751 0.0
C1233 C 0.71083 0.88786 0.98956 0.0
C1234 C 0.7084 0.90619 0.9955 0.0
C1235 C 0.695 0.91743 0.98728 0.0
C1236 C 0.7248 0.87597 0.99875 0.0
C1237 C 0.74329 0.88192 0.99915 0.0
C1238 C 0.71996 0.85897 0.00719 0.0
C1239 C 0.70056 0.8522 0.00772 0.0
C1240 C 0.68647 0.86307 0.01564 0.0
C1241 C 0.66817 0.85672 0.0158 0.0
C1242 C 0.66383 0.83945 0.00821 0.0
C1243 C 0.67779 0.82846 0.00052 0.0
C1244 C 0.69611 0.83476 0.00031 0.0
C1245 C 0.78599 0.84325 0.05533 0.0
C1246 C 0.78762 0.82395 0.05351 0.0
C1247 C 0.77486 0.85331 0.04314 0.0
C1248 C 0.76537 0.84431 0.02873 0.0
C1249 C 0.7675 0.82511 0.02652 0.0
C1250 C 0.77852 0.81501 0.0388 0.0
C1251 C 0.75212 0.85473 0.01696 0.0
C1252 C 0.73371 0.84851 0.01607 0.0
C1253 C 0.75707 0.87146 0.00801 0.0
C1254 C 0.77652 0.87814 0.00741 0.0
C1255 C 0.7908 0.86649 0.00108 0.0
C1256 C 0.80909 0.87282 0.00065 0.0
C1257 C 0.81329 0.89081 0.00641 0.0
C1258 C 0.79918 0.90253 0.01258 0.0
C1259 C 0.78086 0.89627 0.01306 0.0
H1260 H 0.82746 0.89568 0.00606 0.0
H1261 H 0.64966 0.83457 0.00832 0.0
H1262 H 0.30698 0.45981 0.22238 0.0
H1263 H 0.32468 0.48179 0.24108 0.0
H1264 H 0.37554 0.46103 0.21752 0.0
H1265 H 0.35793 0.43881 0.19897 0.0
H1266 H 0.37691 0.46199 0.25475 0.0
H1267 H 0.35876 0.50363 0.20613 0.0
H1268 H 0.33651 0.51912 0.18535 0.0
H1269 H 0.30887 0.54304 0.23224 0.0
H1270 H 0.33074 0.52742 0.25334 0.0
H1271 H 0.43804 0.52745 0.2928 0.0
H1272 H 0.41965 0.50985 0.27052 0.0
H1273 H 0.36939 0.53009 0.29572 0.0
H1274 H 0.38776 0.54795 0.31803 0.0
H1275 H 0.36738 0.53 0.25753 0.0
H1276 H 0.38377 0.48793 0.30602 0.0
H1277 H 0.40485 0.47195 0.32762 0.0
H1278 H 0.43452 0.44842 0.28176 0.0
H1279 H 0.41377 0.4645 0.25986 0.0
C1280 C 0.32192 0.46009 0.22102 0.0
C1281 C 0.3311 0.44754 0.2093 0.0
C1282 C 0.33201 0.47271 0.23165 0.0
C1283 C 0.35142 0.47308 0.23063 0.0
C1284 C 0.36056 0.46094 0.21851 0.0
C1285 C 0.35049 0.44831 0.20789 0.0
C1286 C 0.36225 0.48524 0.24311 0.0
C1287 C 0.37506 0.4769 0.25512 0.0
C1288 C 0.35932 0.5046 0.24402 0.0
C1289 C 0.34631 0.51422 0.23133 0.0
C1290 C 0.34785 0.51208 0.21202 0.0
C1291 C 0.33532 0.5209 0.20018 0.0
C1292 C 0.32127 0.53203 0.20747 0.0
C1293 C 0.31975 0.5344 0.22661 0.0
C1294 C 0.33222 0.52558 0.23852 0.0
C1295 C 0.42307 0.52822 0.29357 0.0
C1296 C 0.41431 0.53895 0.30723 0.0
C1297 C 0.41259 0.51815 0.28084 0.0
C1298 C 0.39318 0.51853 0.28161 0.0
C1299 C 0.38437 0.52962 0.29491 0.0
C1300 C 0.39486 0.53973 0.30768 0.0
C1301 C 0.38216 0.50674 0.26895 0.0
C1302 C 0.36929 0.51511 0.25703 0.0
C1303 C 0.38488 0.48735 0.26817 0.0
C1304 C 0.39733 0.47757 0.2813 0.0
C1305 C 0.39488 0.47947 0.30053 0.0
C1306 C 0.40676 0.47037 0.31283 0.0
C1307 C 0.42105 0.45922 0.30606 0.0
C1308 C 0.42346 0.45709 0.28698 0.0
C1309 C 0.41164 0.46618 0.27462 0.0
H1310 H 0.43022 0.45218 0.31561 0.0
H1311 H 0.3116 0.53888 0.19829 0.0
H1312 H 0.54747 0.30399 0.3941 0.0
H1313 H 0.52681 0.28137 0.37956 0.0
H1314 H 0.47952 0.30937 0.40313 0.0
H1315 H 0.50012 0.33157 0.41816 0.0
H1316 H 0.4753 0.27377 0.40674 0.0
H1317 H 0.49235 0.31421 0.3567 0.0
H1318 H 0.51377 0.3308 0.33591 0.0
H1319 H 0.53635 0.279 0.31734 0.0
H1320 H 0.51522 0.26211 0.33822 0.0
H1321 H 0.40416 0.24178 0.34566 0.0
H1322 H 0.42684 0.26042 0.36272 0.0
H1323 H 0.47034 0.22304 0.34602 0.0
H1324 H 0.44774 0.20418 0.32918 0.0
H1325 H 0.47763 0.26135 0.3392 0.0
H1326 H 0.4582 0.22119 0.38839 0.0
H1327 H 0.4356 0.20553 0.40862 0.0
H1328 H 0.41605 0.25821 0.42811 0.0
H1329 H 0.43836 0.27421 0.40778 0.0
C1330 C 0.53266 0.30531 0.39612 0.0
C1331 C 0.52538 0.31956 0.40718 0.0
C1332 C 0.52087 0.29243 0.38777 0.0
C1333 C 0.50158 0.29379 0.39007 0.0
C1334 C 0.49434 0.30801 0.40118 0.0
C1335 C 0.50612 0.32074 0.40969 0.0
C1336 C 0.48887 0.28045 0.38099 0.0
C1337 C 0.4757 0.27122 0.39194 0.0
C1338 C 0.48963 0.27678 0.36174 0.0
C1339 C 0.50235 0.28691 0.34917 0.0
C1340 C 0.50198 0.30637 0.34829 0.0
C1341 C 0.51405 0.31582 0.33647 0.0
C1342 C 0.52645 0.30596 0.32535 0.0
C1343 C 0.52676 0.28662 0.32599 0.0
C1344 C 0.51474 0.2771 0.3378 0.0
C1345 C 0.41853 0.23744 0.3458 0.0
C1346 C 0.42421 0.22156 0.33612 0.0
C1347 C 0.43143 0.24806 0.35556 0.0
C1348 C 0.45021 0.24304 0.35562 0.0
C1349 C 0.45589 0.22709 0.34612 0.0
C1350 C 0.44296 0.21632 0.33659 0.0
C1351 C 0.46401 0.25493 0.36493 0.0
C1352 C 0.47736 0.26386 0.35402 0.0
C1353 C 0.46326 0.25849 0.38415 0.0
C1354 C 0.44983 0.2489 0.39641 0.0
C1355 C 0.44896 0.22945 0.39686 0.0
C1356 C 0.43623 0.2205 0.40837 0.0
C1357 C 0.42436 0.23086 0.41961 0.0
C1358 C 0.42524 0.2502 0.41938 0.0
C1359 C 0.43794 0.25921 0.40788 0.0
H1360 H 0.41452 0.22391 0.42852 0.0
H1361 H 0.53578 0.31331 0.3162 0.0
H1362 H 0.04726 0.17664 0.61001 0.0
H1363 H 0.0321 0.20003 0.62934 0.0
H1364 H 0.00341 0.22118 0.58137 0.0
H1365 H 0.01867 0.19804 0.56196 0.0
H1366 H 0.0156 0.24909 0.60385 0.0
H1367 H 0.98224 0.1912 0.61018 0.0
H1368 H 0.97939 0.15791 0.61732 0.0
H1369 H 0.9986 0.16785 0.67272 0.0
H1370 H 0.0018 0.20118 0.66582 0.0
H1371 H 0.93558 0.29199 0.6409 0.0
H1372 H 0.95898 0.2738 0.62457 0.0
H1373 H 0.98022 0.25401 0.67684 0.0
H1374 H 0.9565 0.27179 0.69321 0.0
H1375 H 0.97501 0.22627 0.65437 0.0
H1376 H 0.00496 0.28488 0.64927 0.0
H1377 H 0.00778 0.31816 0.64219 0.0
H1378 H 0.99539 0.30738 0.58503 0.0
H1379 H 0.99222 0.27405 0.59181 0.0
C1380 C 0.03784 0.18638 0.60358 0.0
C1381 C 0.034 0.18543 0.58453 0.0
C1382 C 0.02919 0.19971 0.61462 0.0
C1383 C 0.01649 0.21219 0.60679 0.0
C1384 C 0.01317 0.21168 0.58766 0.0
C1385 C 0.02182 0.19839 0.57662 0.0
C1386 C 0.00581 0.2251 0.6186 0.0
C1387 C 0.00664 0.24415 0.61485 0.0
C1388 C 0.99451 0.21863 0.63323 0.0
C1389 C 0.99245 0.19863 0.63742 0.0
C1390 C 0.98598 0.18626 0.62384 0.0
C1391 C 0.98428 0.16739 0.62785 0.0
C1392 C 0.98886 0.16076 0.64545 0.0
C1393 C 0.99509 0.173 0.65909 0.0
C1394 C 0.99684 0.19188 0.65514 0.0
C1395 C 0.94539 0.28394 0.6489 0.0
C1396 C 0.94419 0.28323 0.6683 0.0
C1397 C 0.95883 0.27364 0.63957 0.0
C1398 C 0.97148 0.26267 0.64949 0.0
C1399 C 0.97061 0.26237 0.66891 0.0
C1400 C 0.95707 0.27255 0.67823 0.0
C1401 C 0.98459 0.25037 0.63955 0.0
C1402 C 0.98418 0.23136 0.6436 0.0
C1403 C 0.99629 0.25692 0.62524 0.0
C1404 C 0.99822 0.27696 0.62109 0.0
C1405 C 0.00269 0.28961 0.63522 0.0
C1406 C 0.00438 0.30849 0.63125 0.0
C1407 C 0.00173 0.31489 0.61318 0.0
C1408 C 0.99743 0.30241 0.59903 0.0
C1409 C 0.99571 0.28352 0.60292 0.0
H1410 H 0.00304 0.32951 0.61014 0.0
H1411 H 0.98754 0.14615 0.64852 0.0
H1412 H 0.94759 0.6887 0.87558 0.0
H1413 H 0.96366 0.7115 0.85614 0.0
H1414 H 0.99919 0.72565 0.90207 0.0
H1415 H 0.98327 0.70304 0.92148 0.0
H1416 H 0.98773 0.75645 0.88252 0.0
H1417 H 0.01378 0.69561 0.87053 0.0
H1418 H 0.01217 0.6628 0.86117 0.0
H1419 H 0.99085 0.67871 0.80797 0.0
H1420 H 0.9921 0.71163 0.81713 0.0
H1421 H 0.07328 0.7879 0.84824 0.0
H1422 H 0.04741 0.77157 0.8627 0.0
H1423 H 0.02155 0.7648 0.80924 0.0
H1424 H 0.04746 0.78118 0.79465 0.0
H1425 H 0.02315 0.73241 0.82876 0.0
H1426 H 0.00252 0.79392 0.83925 0.0
H1427 H 0.0047 0.82661 0.84882 0.0
H1428 H 0.016 0.80983 0.90474 0.0
H1429 H 0.01417 0.77701 0.89546 0.0
C1430 C 0.95871 0.69683 0.88154 0.0
C1431 C 0.96431 0.69402 0.89997 0.0
C1432 C 0.96786 0.70981 0.87045 0.0
C1433 C 0.98267 0.72015 0.87767 0.0
C1434 C 0.98776 0.71784 0.89626 0.0
C1435 C 0.97873 0.70483 0.90729 0.0
C1436 C 0.99376 0.73256 0.86574 0.0
C1437 C 0.99551 0.75124 0.87077 0.0
C1438 C 0.00348 0.7258 0.85013 0.0
C1439 C 0.0028 0.70604 0.84459 0.0
C1440 C 0.0086 0.69209 0.85689 0.0
C1441 C 0.00778 0.67348 0.85162 0.0
C1442 C 0.00135 0.66867 0.83401 0.0
C1443 C 0.99578 0.68246 0.82162 0.0
C1444 C 0.99654 0.70109 0.82684 0.0
C1445 C 0.06202 0.78307 0.83958 0.0
C1446 C 0.06238 0.78576 0.82033 0.0
C1447 C 0.0472 0.77384 0.84786 0.0
C1448 C 0.03249 0.76715 0.83704 0.0
C1449 C 0.03274 0.76994 0.81782 0.0
C1450 C 0.04752 0.77929 0.80953 0.0
C1451 C 0.01752 0.75625 0.84581 0.0
C1452 C 0.01507 0.7378 0.84022 0.0
C1453 C 0.00719 0.76324 0.86092 0.0
C1454 C 0.00833 0.78297 0.86661 0.0
C1455 C 0.00562 0.79719 0.85356 0.0
C1456 C 0.00677 0.81575 0.85894 0.0
C1457 C 0.01052 0.8203 0.87737 0.0
C1458 C 0.0131 0.80628 0.89047 0.0
C1459 C 0.01199 0.78769 0.88515 0.0
H1460 H 0.0114 0.83468 0.88151 0.0
H1461 H 0.00073 0.65425 0.82995 0.0
H1462 H 0.54939 0.70518 0.18122 0.0
H1463 H 0.52612 0.72621 0.16829 0.0
H1464 H 0.56928 0.75724 0.141 0.0
H1465 H 0.59261 0.73632 0.15393 0.0
H1466 H 0.54413 0.7797 0.15883 0.0
H1467 H 0.54348 0.72785 0.11668 0.0
H1468 H 0.54061 0.69493 0.10808 0.0
H1469 H 0.4853 0.69372 0.12992 0.0
H1470 H 0.48794 0.72661 0.13889 0.0
H1471 H 0.49828 0.82889 0.08821 0.0
H1472 H 0.51765 0.80811 0.10656 0.0
H1473 H 0.46878 0.78296 0.12999 0.0
H1474 H 0.44922 0.80382 0.1116 0.0
H1475 H 0.49425 0.75725 0.11719 0.0
H1476 H 0.49383 0.80998 0.15669 0.0
H1477 H 0.49661 0.84301 0.16488 0.0
H1478 H 0.55367 0.84269 0.14811 0.0
H1479 H 0.55116 0.80971 0.13955 0.0
C1480 C 0.5539 0.71649 0.17246 0.0
C1481 C 0.57279 0.71912 0.16854 0.0
C1482 C 0.5406 0.72845 0.16506 0.0
C1483 C 0.546 0.74321 0.15363 0.0
C1484 C 0.56486 0.74593 0.14982 0.0
C1485 C 0.57814 0.73393 0.15713 0.0
C1486 C 0.53204 0.75587 0.14557 0.0
C1487 C 0.5333 0.77483 0.14961 0.0
C1488 C 0.5176 0.74938 0.13402 0.0
C1489 C 0.51599 0.72962 0.12866 0.0
C1490 C 0.53077 0.72052 0.11981 0.0
C1491 C 0.52917 0.70188 0.11484 0.0
C1492 C 0.51281 0.69222 0.11851 0.0
C1493 C 0.49799 0.70121 0.12712 0.0
C1494 C 0.49952 0.71985 0.13214 0.0
C1495 C 0.49164 0.81904 0.09738 0.0
C1496 C 0.47225 0.81797 0.09851 0.0
C1497 C 0.50273 0.80723 0.10789 0.0
C1498 C 0.49463 0.79412 0.11972 0.0
C1499 C 0.47526 0.79304 0.12097 0.0
C1500 C 0.46414 0.80498 0.11053 0.0
C1501 C 0.50655 0.78113 0.13018 0.0
C1502 C 0.50492 0.7621 0.1266 0.0
C1503 C 0.52065 0.78755 0.14217 0.0
C1504 C 0.52226 0.80739 0.14734 0.0
C1505 C 0.50693 0.81698 0.1546 0.0
C1506 C 0.50847 0.83569 0.15934 0.0
C1507 C 0.5253 0.84495 0.15698 0.0
C1508 C 0.54064 0.8355 0.14991 0.0
C1509 C 0.53917 0.81679 0.14514 0.0
H1510 H 0.52646 0.85944 0.16066 0.0
H1511 H 0.51159 0.67779 0.11464 0.0
H1512 H 0.21359 0.35172 0.36047 0.0
H1513 H 0.21906 0.36567 0.33021 0.0
H1514 H 0.1816 0.32644 0.30512 0.0
H1515 H 0.1759 0.31245 0.33561 0.0
H1516 H 0.21656 0.32666 0.28924 0.0
H1517 H 0.17006 0.37065 0.30341 0.0
H1518 H 0.15282 0.39324 0.32233 0.0
H1519 H 0.20091 0.42812 0.32511 0.0
H1520 H 0.21855 0.40562 0.30644 0.0
H1521 H 0.24799 0.36912 0.20531 0.0
H1522 H 0.22622 0.35815 0.22895 0.0
H1523 H 0.25378 0.39183 0.26992 0.0
H1524 H 0.27542 0.40291 0.24643 0.0
H1525 H 0.2161 0.3935 0.27329 0.0
H1526 H 0.26378 0.34659 0.26582 0.0
H1527 H 0.2821 0.32394 0.24797 0.0
H1528 H 0.23242 0.29452 0.23373 0.0
H1529 H 0.21376 0.31717 0.25128 0.0
C1530 C 0.20617 0.34635 0.34858 0.0
C1531 C 0.19439 0.33098 0.35031 0.0
C1532 C 0.20923 0.35438 0.33132 0.0
C1533 C 0.20067 0.34713 0.31545 0.0
C1534 C 0.18825 0.33228 0.31724 0.0
C1535 C 0.18496 0.32437 0.33463 0.0
C1536 C 0.20667 0.35373 0.29701 0.0
C1537 C 0.21598 0.34119 0.28544 0.0
C1538 C 0.20619 0.37273 0.29231 0.0
C1539 C 0.19566 0.38637 0.30356 0.0
C1540 C 0.17701 0.38307 0.30816 0.0
C1541 C 0.16716 0.39588 0.31882 0.0
C1542 C 0.17577 0.4121 0.32493 0.0
C1543 C 0.19425 0.41555 0.32036 0.0
C1544 C 0.20418 0.40279 0.3097 0.0
C1545 C 0.24931 0.37425 0.21934 0.0
C1546 C 0.26346 0.38675 0.22409 0.0
C1547 C 0.23688 0.36798 0.2328 0.0
C1548 C 0.23847 0.37412 0.25118 0.0
C1549 C 0.25228 0.38698 0.2558 0.0
C1550 C 0.26471 0.3932 0.24239 0.0
C1551 C 0.22649 0.36653 0.26595 0.0
C1552 C 0.21615 0.37889 0.27681 0.0
C1553 C 0.22613 0.34738 0.2701 0.0
C1554 C 0.23735 0.33372 0.25963 0.0
C1555 C 0.25674 0.33538 0.25874 0.0
C1556 C 0.26719 0.32254 0.24869 0.0
C1557 C 0.25842 0.30786 0.23964 0.0
C1558 C 0.23919 0.30594 0.24069 0.0
C1559 C 0.22867 0.31878 0.25068 0.0
H1560 H 0.26653 0.29793 0.23186 0.0
H1561 H 0.16812 0.42199 0.33319 0.0
H1562 H 0.83634 0.02469 0.51099 0.0
H1563 H 0.84479 -0.00019 0.53235 0.0
H1564 H 0.896 0.99155 0.50263 0.0
H1565 H 0.88732 0.01604 0.48087 0.0
H1566 H 0.88136 0.9592 0.51109 0.0
H1567 H 0.89418 0.01552 0.54404 0.0
H1568 H 0.88745 0.0462 0.55746 0.0
H1569 H 0.84492 0.02234 0.59148 0.0
H1570 H 0.85122 0.99154 0.57807 0.0
H1571 H 0.93937 0.9234 0.58246 0.0
H1572 H 0.92269 0.93702 0.55644 0.0
H1573 H 0.87227 0.93683 0.58849 0.0
H1574 H 0.88892 0.92332 0.61466 0.0
H1575 H 0.88299 0.97131 0.57867 0.0
H1576 H 0.87443 0.91347 0.54779 0.0
H1577 H 0.88374 0.88326 0.5349 0.0
H1578 H 0.92122 0.91036 0.49754 0.0
H1579 H 0.91235 0.94074 0.51038 0.0
C1580 C 0.84944 0.01762 0.50908 0.0
C1581 C 0.86125 0.02237 0.49438 0.0
C1582 C 0.85424 0.0034 0.52127 0.0
C1583 C 0.87111 0.99393 0.5192 0.0
C1584 C 0.88289 0.99863 0.50447 0.0
C1585 C 0.87799 0.0127 0.49214 0.0
C1586 C 0.87668 0.97938 0.53259 0.0
C1587 C 0.88184 0.96185 0.52587 0.0
C1588 C 0.87692 0.98273 0.55189 0.0
C1589 C 0.87301 0.00127 0.55988 0.0
C1590 C 0.88327 0.01684 0.55426 0.0
C1591 C 0.87956 0.03425 0.56188 0.0
C1592 C 0.86572 0.03623 0.57527 0.0
C1593 C 0.8556 0.02079 0.58108 0.0
C1594 C 0.85924 0.00336 0.57347 0.0
C1595 C 0.92457 0.92555 0.58372 0.0
C1596 C 0.91551 0.92262 0.60069 0.0
C1597 C 0.91503 0.93331 0.5688 0.0
C1598 C 0.89628 0.93811 0.57061 0.0
C1599 C 0.88677 0.9333 0.58686 0.0
C1600 C 0.8963 0.92551 0.60178 0.0
C1601 C 0.88777 0.95111 0.55722 0.0
C1602 C 0.88216 0.96847 0.56393 0.0
C1603 C 0.88745 0.94766 0.53795 0.0
C1604 C 0.8928 0.9294 0.53015 0.0
C1605 C 0.88477 0.91299 0.53692 0.0
C1606 C 0.88995 0.89583 0.5296 0.0
C1607 C 0.90308 0.89489 0.51543 0.0
C1608 C 0.91105 0.91111 0.50852 0.0
C1609 C 0.90592 0.92831 0.5158 0.0
H1610 H 0.90708 0.88159 0.50978 0.0
H1611 H 0.86288 0.04971 0.58117 0.0
H1612 H 0.24704 0.62671 0.71239 0.0
H1613 H 0.27058 0.63603 0.73502 0.0
H1614 H 0.22969 0.6334 0.77854 0.0
H1615 H 0.20614 0.62447 0.75604 0.0
H1616 H 0.25078 0.66252 0.78325 0.0
H1617 H 0.25988 0.59785 0.77074 0.0
H1618 H 0.26568 0.57029 0.75143 0.0
H1619 H 0.31794 0.59291 0.7343 0.0
H1620 H 0.31233 0.62076 0.75335 0.0
H1621 H 0.29343 0.63921 0.86505 0.0
H1622 H 0.28161 0.63056 0.83464 0.0
H1623 H 0.32322 0.66444 0.80851 0.0
H1624 H 0.33513 0.67342 0.83908 0.0
H1625 H 0.30635 0.62286 0.79174 0.0
H1626 H 0.2944 0.68868 0.80857 0.0
H1627 H 0.28622 0.71215 0.83206 0.0
H1628 H 0.23616 0.68259 0.84456 0.0
H1629 H 0.24423 0.65878 0.82139 0.0
C1630 C 0.24306 0.62837 0.72676 0.0
C1631 C 0.2248 0.62482 0.7325 0.0
C1632 C 0.25653 0.63359 0.73966 0.0
C1633 C 0.25193 0.6352 0.75848 0.0
C1634 C 0.23354 0.63227 0.76408 0.0
C1635 C 0.2201 0.62712 0.75122 0.0
C1636 C 0.26622 0.63928 0.77261 0.0
C1637 C 0.26302 0.65396 0.78491 0.0
C1638 C 0.28222 0.6281 0.77485 0.0
C1639 C 0.28558 0.61148 0.76327 0.0
C1640 C 0.27253 0.59703 0.76272 0.0
C1641 C 0.27579 0.58135 0.75185 0.0
C1642 C 0.29215 0.57987 0.74162 0.0
C1643 C 0.30527 0.59409 0.74222 0.0
C1644 C 0.30206 0.60983 0.75305 0.0
C1645 C 0.30052 0.64432 0.85285 0.0
C1646 C 0.31499 0.65723 0.85439 0.0
C1647 C 0.29378 0.63931 0.8355 0.0
C1648 C 0.30146 0.64705 0.81948 0.0
C1649 C 0.3172 0.65834 0.82082 0.0
C1650 C 0.32397 0.66343 0.83826 0.0
C1651 C 0.29078 0.64603 0.80214 0.0
C1652 C 0.29451 0.63184 0.78946 0.0
C1653 C 0.275 0.65736 0.79974 0.0
C1654 C 0.26999 0.6719 0.81337 0.0
C1655 C 0.28173 0.68712 0.81644 0.0
C1656 C 0.27711 0.70049 0.82969 0.0
C1657 C 0.2607 0.69884 0.83982 0.0
C1658 C 0.24887 0.68384 0.83671 0.0
C1659 C 0.25346 0.67042 0.82353 0.0
H1660 H 0.25709 0.70918 0.85003 0.0
H1661 H 0.29467 0.56768 0.7333 0.0
H1662 H 0.6139 0.06356 0.10533 0.0
H1663 H 0.62592 0.05896 0.07418 0.0
H1664 H 0.57396 0.07757 0.05121 0.0
H1665 H 0.56172 0.08191 0.08247 0.0
H1666 H 0.58106 0.04343 0.04122 0.0
H1667 H 0.61513 0.09923 0.03957 0.0
H1668 H 0.63587 0.12394 0.05073 0.0
H1669 H 0.68083 0.08516 0.05411 0.0
H1670 H 0.66032 0.06013 0.04324 0.0
H1671 H 0.61388 0.00341 0.9582 0.0
H1672 H 0.60436 0.02886 0.97849 0.0
H1673 H 0.64862 0.01532 0.0163 0.0
H1674 H 0.65824 0.98993 0.99608 0.0
H1675 H 0.64305 0.05331 0.01335 0.0
H1676 H 0.60716 0.99728 0.02262 0.0
H1677 H 0.58636 0.97179 0.01346 0.0
H1678 H 0.54466 0.0111 0.99755 0.0
H1679 H 0.56538 0.03686 0.0063 0.0
C1680 C 0.60526 0.06735 0.09366 0.0
C1681 C 0.58676 0.07274 0.09632 0.0
C1682 C 0.6122 0.06482 0.0758 0.0
C1683 C 0.6008 0.06781 0.06032 0.0
C1684 C 0.58297 0.07512 0.06296 0.0
C1685 C 0.57601 0.07762 0.08084 0.0
C1686 C 0.60609 0.0597 0.0422 0.0
C1687 C 0.59437 0.04608 0.03477 0.0
C1688 C 0.62366 0.06276 0.03407 0.0
C1689 C 0.63612 0.07776 0.04065 0.0
C1690 C 0.6294 0.09592 0.04282 0.0
C1691 C 0.64114 0.11 0.04907 0.0
C1692 C 0.65965 0.10612 0.05314 0.0
C1693 C 0.66649 0.08815 0.05094 0.0
C1694 C 0.65482 0.07401 0.0447 0.0
C1695 C 0.62178 0.00607 0.97067 0.0
C1696 C 0.63666 0.99456 0.9757 0.0
C1697 C 0.61633 0.02061 0.98223 0.0
C1698 C 0.62569 0.02384 0.99896 0.0
C1699 C 0.64125 0.01308 0.00342 0.0
C1700 C 0.64665 0.9985 0.99192 0.0
C1701 C 0.61816 0.03691 0.01284 0.0
C1702 C 0.62949 0.05125 0.01948 0.0
C1703 C 0.60025 0.03448 0.0204 0.0
C1704 C 0.58794 0.019 0.01481 0.0
C1705 C 0.59365 0.0005 0.01694 0.0
C1706 C 0.58186 0.986 0.01186 0.0
C1707 C 0.56423 0.98982 0.00485 0.0
C1708 C 0.55835 0.00816 0.00291 0.0
C1709 C 0.57012 0.02272 0.0079 0.0
H1710 H 0.5551 0.97858 0.00099 0.0
H1711 H 0.66871 0.11704 0.05798 0.0
H1712 H 0.6627 0.19023 0.67019 0.0
H1713 H 0.67486 0.17487 0.69776 0.0
H1714 H 0.68565 0.12565 0.66569 0.0
H1715 H 0.67388 0.14105 0.63798 0.0
H1716 H 0.67434 0.14233 0.71949 0.0
H1717 H 0.73119 0.11709 0.67009 0.0
H1718 H 0.74275 0.12365 0.63858 0.0
H1719 H 0.72481 0.18014 0.64347 0.0
H1720 H 0.71346 0.17399 0.67508 0.0
H1721 H 0.74414 0.09409 0.77117 0.0
H1722 H 0.72032 0.10293 0.74872 0.0
H1723 H 0.7523 0.1512 0.73386 0.0
H1724 H 0.77631 0.14218 0.75594 0.0
H1725 H 0.74084 0.13398 0.704 0.0
H1726 H 0.71313 0.15437 0.76082 0.0
H1727 H 0.70167 0.15108 0.79282 0.0
H1728 H 0.66251 0.11005 0.7749 0.0
H1729 H 0.67391 0.11292 0.74281 0.0
C1730 C 0.66689 0.17586 0.66917 0.0
C1731 C 0.66783 0.16698 0.65188 0.0
C1732 C 0.6738 0.16708 0.68498 0.0
C1733 C 0.68159 0.14934 0.6836 0.0
C1734 C 0.67994 0.13947 0.66693 0.0
C1735 C 0.67321 0.1483 0.6511 0.0
C1736 C 0.69487 0.14305 0.69789 0.0
C1737 C 0.68884 0.14028 0.71614 0.0
C1738 C 0.71388 0.14098 0.69356 0.0
C1739 C 0.7213 0.145 0.67483 0.0
C1740 C 0.72982 0.13093 0.66445 0.0
C1741 C 0.73633 0.13458 0.64658 0.0
C1742 C 0.73445 0.15229 0.639 0.0
C1743 C 0.7262 0.16643 0.64932 0.0
C1744 C 0.71974 0.16286 0.66722 0.0
C1745 C 0.74605 0.1066 0.76312 0.0
C1746 C 0.76208 0.11746 0.76526 0.0
C1747 C 0.73239 0.11169 0.75039 0.0
C1748 C 0.73446 0.12781 0.73973 0.0
C1749 C 0.75043 0.1387 0.74193 0.0
C1750 C 0.76412 0.13356 0.75457 0.0
C1751 C 0.72039 0.13302 0.72573 0.0
C1752 C 0.72631 0.1357 0.70743 0.0
C1753 C 0.70142 0.13543 0.73019 0.0
C1754 C 0.69451 0.13372 0.74945 0.0
C1755 C 0.70218 0.14453 0.76373 0.0
C1756 C 0.69567 0.14277 0.78188 0.0
C1757 C 0.68141 0.13033 0.7859 0.0
C1758 C 0.67358 0.11966 0.77177 0.0
C1759 C 0.68004 0.12137 0.7536 0.0
H1760 H 0.67639 0.12898 0.79996 0.0
H1761 H 0.73943 0.15508 0.62513 0.0
H1762 H 0.14949 0.53359 0.00033 0.0
H1763 H 0.14238 0.50987 0.97733 0.0
H1764 H 0.12003 0.47476 0.02024 0.0
H1765 H 0.12802 0.4982 0.0435 0.0
H1766 H 0.13654 0.45395 0.99537 0.0
H1767 H 0.09165 0.5022 0.99314 0.0
H1768 H 0.08007 0.53429 0.99133 0.0
H1769 H 0.10494 0.54057 0.93769 0.0
H1770 H 0.11691 0.5086 0.93929 0.0
H1771 H 0.06795 0.41703 0.92696 0.0
H1772 H 0.08363 0.42938 0.95444 0.0
H1773 H 0.12788 0.4499 0.92008 0.0
H1774 H 0.11261 0.43734 0.89266 0.0
H1775 H 0.09961 0.47616 0.94183 0.0
H1776 H 0.14385 0.42546 0.94572 0.0
H1777 H 0.15237 0.39255 0.94887 0.0
H1778 H 0.12397 0.38987 0.00105 0.0
H1779 H 0.11503 0.42273 0.99806 0.0
C1780 C 0.14322 0.52074 0.00488 0.0
C1781 C 0.13902 0.51782 0.02362 0.0
C1782 C 0.13912 0.5072 0.99173 0.0
C1783 C 0.1302 0.49072 0.99698 0.0
C1784 C 0.12679 0.4874 0.01584 0.0
C1785 C 0.13127 0.50083 0.02909 0.0
C1786 C 0.12348 0.47762 0.98262 0.0
C1787 C 0.12833 0.45878 0.98375 0.0
C1788 C 0.11262 0.48385 0.96751 0.0
C1789 C 0.10532 0.50305 0.96641 0.0
C1790 C 0.09475 0.51047 0.98101 0.0
C1791 C 0.08811 0.52863 0.98002 0.0
C1792 C 0.0918 0.53947 0.96442 0.0
C1793 C 0.10211 0.53216 0.94977 0.0
C1794 C 0.10882 0.51401 0.9507 0.0
C1795 C 0.08141 0.42346 0.92536 0.0
C1796 C 0.08893 0.42645 0.90764 0.0
C1797 C 0.09034 0.43049 0.94106 0.0
C1798 C 0.10683 0.44056 0.93919 0.0
C1799 C 0.1152 0.44204 0.92175 0.0
C1800 C 0.10643 0.43485 0.9061 0.0
C1801 C 0.11313 0.45274 0.95434 0.0
C1802 C 0.10792 0.4714 0.95343 0.0
C1803 C 0.1232 0.44621 0.96977 0.0
C1804 C 0.12857 0.42649 0.97155 0.0
C1805 C 0.13922 0.4178 0.95776 0.0
C1806 C 0.14419 0.39917 0.95954 0.0
C1807 C 0.13866 0.38911 0.97512 0.0
C1808 C 0.12821 0.39767 0.98897 0.0
C1809 C 0.12321 0.4163 0.98725 0.0
H1810 H 0.14252 0.37468 0.97648 0.0
H1811 H 0.08665 0.55353 0.96368 0.0
H1812 H 0.70363 0.87059 0.25041 0.0
H1813 H 0.72359 0.85744 0.22663 0.0
H1814 H 0.76445 0.84375 0.26805 0.0
H1815 H 0.74441 0.8571 0.29212 0.0
H1816 H 0.77951 0.86099 0.237 0.0
H1817 H 0.74159 0.80801 0.24898 0.0
H1818 H 0.71275 0.79044 0.25433 0.0
H1819 H 0.6918 0.80797 0.20157 0.0
H1820 H 0.72062 0.82535 0.19569 0.0
H1821 H 0.82402 0.81248 0.15961 0.0
H1822 H 0.81207 0.82134 0.19025 0.0
H1823 H 0.76114 0.83975 0.16495 0.0
H1824 H 0.77282 0.83084 0.13461 0.0
H1825 H 0.75536 0.81456 0.19247 0.0
H1826 H 0.79185 0.87027 0.1823 0.0
H1827 H 0.82076 0.88754 0.17661 0.0
H1828 H 0.84433 0.86513 0.22641 0.0
H1829 H 0.81561 0.84754 0.23227 0.0
C1830 C 0.71684 0.86475 0.2545 0.0
C1831 C 0.72249 0.86486 0.27309 0.0
C1832 C 0.72817 0.85712 0.24092 0.0
C1833 C 0.74537 0.84941 0.24565 0.0
C1834 C 0.75116 0.84956 0.26419 0.0
C1835 C 0.73973 0.85716 0.27787 0.0
C1836 C 0.75735 0.84195 0.23084 0.0
C1837 C 0.77449 0.85049 0.22748 0.0
C1838 C 0.75068 0.82839 0.21842 0.0
C1839 C 0.73325 0.81805 0.22193 0.0
C1840 C 0.7308 0.80819 0.23855 0.0
C1841 C 0.71447 0.79825 0.24167 0.0
C1842 C 0.7004 0.79824 0.2284 0.0
C1843 C 0.7027 0.80802 0.21186 0.0
C1844 C 0.71908 0.81781 0.20857 0.0
C1845 C 0.81046 0.81881 0.16061 0.0
C1846 C 0.79926 0.82084 0.14482 0.0
C1847 C 0.80365 0.82381 0.17808 0.0
C1848 C 0.78565 0.831 0.17983 0.0
C1849 C 0.77497 0.83402 0.1639 0.0
C1850 C 0.7817 0.82899 0.14657 0.0
C1851 C 0.77711 0.83421 0.19815 0.0
C1852 C 0.76063 0.82474 0.2022 0.0
C1853 C 0.78444 0.84688 0.21116 0.0
C1854 C 0.80169 0.85739 0.20758 0.0
C1855 C 0.80327 0.86888 0.19194 0.0
C1856 C 0.8196 0.87876 0.1887 0.0
C1857 C 0.8344 0.87738 0.2011 0.0
C1858 C 0.83288 0.86615 0.21679 0.0
C1859 C 0.81657 0.85623 0.22008 0.0
H1860 H 0.84703 0.88505 0.19858 0.0
H1861 H 0.68775 0.79058 0.2309 0.0
H1862 H 0.39543 0.49724 0.52643 0.0
H1863 H 0.40274 0.52045 0.50289 0.0
H1864 H 0.34786 0.51459 0.47991 0.0
H1865 H 0.34056 0.49115 0.50326 0.0
H1866 H 0.37356 0.51217 0.45376 0.0
H1867 H 0.36042 0.55402 0.50315 0.0
H1868 H 0.36261 0.56674 0.53476 0.0
H1869 H 0.4207 0.57688 0.52703 0.0
H1870 H 0.41893 0.56396 0.49545 0.0
H1871 H 0.39254 0.57657 0.38516 0.0
H1872 H 0.37706 0.56737 0.41385 0.0
H1873 H 0.42996 0.56385 0.44139 0.0
H1874 H 0.44551 0.5732 0.41287 0.0
H1875 H 0.40117 0.57403 0.46552 0.0
H1876 H 0.41536 0.5273 0.41939 0.0
H1877 H 0.41434 0.51415 0.38788 0.0
H1878 H 0.35492 0.51256 0.39015 0.0
H1879 H 0.3556 0.52602 0.42159 0.0
C1880 C 0.38488 0.50102 0.51645 0.0
C1881 C 0.36746 0.49235 0.51661 0.0
C1882 C 0.38901 0.51439 0.5031 0.0
C1883 C 0.37576 0.51941 0.48978 0.0
C1884 C 0.35825 0.51097 0.49012 0.0
C1885 C 0.35412 0.49758 0.50344 0.0
C1886 C 0.38071 0.53231 0.47461 0.0
C1887 C 0.37916 0.52588 0.45635 0.0
C1888 C 0.38844 0.55002 0.478 0.0
C1889 C 0.38956 0.5579 0.49696 0.0
C1890 C 0.37369 0.55883 0.50823 0.0
C1891 C 0.37485 0.5661 0.52614 0.0
C1892 C 0.39179 0.57258 0.53291 0.0
C1893 C 0.40759 0.57185 0.52177 0.0
C1894 C 0.40651 0.56458 0.50385 0.0
C1895 C 0.40081 0.5745 0.3975 0.0
C1896 C 0.42025 0.57522 0.39671 0.0
C1897 C 0.39195 0.56923 0.41387 0.0
C1898 C 0.40243 0.56457 0.42958 0.0
C1899 C 0.42165 0.56732 0.42939 0.0
C1900 C 0.43052 0.57259 0.41304 0.0
C1901 C 0.394 0.5538 0.44484 0.0
C1902 C 0.3951 0.56052 0.46303 0.0
C1903 C 0.38594 0.53625 0.44147 0.0
C1904 C 0.38552 0.52786 0.42272 0.0
C1905 C 0.40208 0.52426 0.41311 0.0
C1906 C 0.40156 0.51675 0.39527 0.0
C1907 C 0.38457 0.51257 0.38699 0.0
C1908 C 0.36806 0.51585 0.39657 0.0
C1909 C 0.3685 0.52342 0.41439 0.0
H1910 H 0.38419 0.50676 0.37318 0.0
H1911 H 0.39266 0.5782 0.54678 0.0
H1912 H 0.23323 0.24607 0.41642 0.0
H1913 H 0.25402 0.22006 0.40982 0.0
H1914 H 0.24553 0.22808 0.35124 0.0
H1915 H 0.22485 0.25412 0.3577 0.0
H1916 H 0.24736 0.18973 0.36254 0.0
H1917 H 0.28067 0.24856 0.36999 0.0
H1918 H 0.28947 0.27637 0.38779 0.0
H1919 H 0.31036 0.24205 0.43165 0.0
H1920 H 0.30144 0.21402 0.41418 0.0
H1921 H 0.32413 0.17586 0.30699 0.0
H1922 H 0.29636 0.18035 0.3253 0.0
H1923 H 0.32806 0.17306 0.3755 0.0
H1924 H 0.35624 0.16944 0.35707 0.0
H1925 H 0.31298 0.20438 0.37663 0.0
H1926 H 0.28813 0.14552 0.36451 0.0
H1927 H 0.27955 0.11759 0.34686 0.0
H1928 H 0.24296 0.14987 0.31288 0.0
H1929 H 0.2515 0.17807 0.33011 0.0
C1930 C 0.23561 0.24212 0.40214 0.0
C1931 C 0.22764 0.25223 0.38754 0.0
C1932 C 0.2474 0.22723 0.39842 0.0
C1933 C 0.25128 0.22221 0.38006 0.0
C1934 C 0.24258 0.23169 0.3655 0.0
C1935 C 0.23093 0.24666 0.36921 0.0
C1936 C 0.26608 0.20873 0.37579 0.0
C1937 C 0.26175 0.19276 0.36561 0.0
C1938 C 0.28471 0.21241 0.38051 0.0
C1939 C 0.29018 0.22924 0.39092 0.0
C1940 C 0.28701 0.24696 0.3835 0.0
C1941 C 0.29204 0.26275 0.39351 0.0
C1942 C 0.30041 0.26098 0.41087 0.0
C1943 C 0.30383 0.2434 0.41823 0.0
C1944 C 0.29879 0.22756 0.40828 0.0
C1945 C 0.32511 0.17452 0.3219 0.0
C1946 C 0.3424 0.1727 0.33062 0.0
C1947 C 0.30911 0.17695 0.33243 0.0
C1948 C 0.31003 0.17716 0.35187 0.0
C1949 C 0.327 0.17311 0.36053 0.0
C1950 C 0.3431 0.17098 0.34999 0.0
C1951 C 0.29453 0.18542 0.36262 0.0
C1952 C 0.29866 0.20065 0.37403 0.0
C1953 C 0.27576 0.18088 0.35911 0.0
C1954 C 0.27051 0.16396 0.34863 0.0
C1955 C 0.27834 0.14671 0.3532 0.0
C1956 C 0.27347 0.13082 0.34327 0.0
C1957 C 0.26072 0.13196 0.32876 0.0
C1958 C 0.25281 0.149 0.32415 0.0
C1959 C 0.25763 0.16495 0.33403 0.0
H1960 H 0.25697 0.11964 0.32108 0.0
H1961 H 0.30429 0.27322 0.4186 0.0
H1962 H 0.00748 0.95707 0.65195 0.0
H1963 H 0.03048 0.98035 0.64258 0.0
H1964 H 0.99129 0.00327 0.6037 0.0
H1965 H 0.96843 0.98022 0.6129 0.0
H1966 H 0.02597 -0.00023 0.58868 0.0
H1967 H 0.99712 0.02256 0.64562 0.0
H1968 H 0.98933 0.02046 0.67882 0.0
H1969 H 0.04716 0.01752 0.69249 0.0
H1970 H 0.05526 0.01936 0.65932 0.0
H1971 H 0.02219 0.09442 0.57985 0.0
H1972 H 0.01817 0.06392 0.59353 0.0
H1973 H 0.07724 0.0589 0.60073 0.0
H1974 H 0.08153 0.08968 0.58654 0.0
H1975 H 0.04442 0.04866 0.63333 0.0
H1976 H 0.07216 0.03348 0.57455 0.0
H1977 H 0.07729 0.03771 0.54106 0.0
H1978 H 0.0197 0.02722 0.53059 0.0
H1979 H 0.01411 0.02346 0.56408 0.0
C1980 C 0.00386 0.96704 0.64133 0.0
C1981 C 0.98617 0.96692 0.63318 0.0
C1982 C 0.01699 0.98029 0.63602 0.0
C1983 C 0.01256 0.99349 0.62245 0.0
C1984 C 0.99501 0.99311 0.61411 0.0
C1985 C 0.98192 0.98001 0.61946 0.0
C1986 C 0.02564 0.00837 0.61724 0.0
C1987 C 0.0303 0.0103 0.59848 0.0
C1988 C 0.03165 0.02187 0.63012 0.0
C1989 C 0.02678 0.02083 0.65002 0.0
C1990 C 0.00816 0.02131 0.65571 0.0
C1991 C 0.00369 0.02019 0.67451 0.0
C1992 C 0.01774 0.01878 0.68775 0.0
C1993 C 0.03629 0.01855 0.68222 0.0
C1994 C 0.04082 0.01963 0.66342 0.0
C1995 C 0.03438 0.08697 0.58445 0.0
C1996 C 0.0522 0.09439 0.58203 0.0
C1997 C 0.03203 0.06956 0.59228 0.0
C1998 C 0.04741 0.05924 0.59801 0.0
C1999 C 0.06525 0.06676 0.59633 0.0
C2000 C 0.06766 0.08425 0.58823 0.0
C2001 C 0.0442 0.04025 0.60473 0.0
C2002 C 0.04107 0.03762 0.6237 0.0
C2003 C 0.03947 0.02613 0.59204 0.0
C2004 C 0.04271 0.02832 0.57186 0.0
C2005 C 0.06055 0.0323 0.56513 0.0
C2006 C 0.06353 0.0346 0.54614 0.0
C2007 C 0.04881 0.03282 0.53371 0.0
C2008 C 0.03107 0.02869 0.54025 0.0
C2009 C 0.02799 0.02646 0.55924 0.0
H2010 H 0.05115 0.03458 0.51901 0.0
H2011 H 0.01425 0.01793 0.70231 0.0
H2012 H 0.29314 0.73655 0.85995 0.0
H2013 H 0.26876 0.7573 0.84879 0.0
H2014 H 0.23458 0.74235 0.89548 0.0
H2015 H 0.25872 0.72134 0.90649 0.0
H2016 H 0.21553 0.74043 0.86424 0.0
H2017 H 0.25564 0.78486 0.89283 0.0
H2018 H 0.28519 0.80084 0.89894 0.0
H2019 H 0.28807 0.8179 0.84204 0.0
H2020 H 0.25864 0.80179 0.83553 0.0
H2021 H 0.14508 0.80513 0.85051 0.0
H2022 H 0.17292 0.79307 0.86557 0.0
H2023 H 0.20333 0.79896 0.81452 0.0
H2024 H 0.17547 0.81087 0.79926 0.0
H2025 H 0.22444 0.80681 0.84864 0.0
H2026 H 0.18569 0.76025 0.81994 0.0
H2027 H 0.15592 0.74463 0.81394 0.0
H2028 H 0.15073 0.73171 0.87176 0.0
H2029 H 0.18035 0.74756 0.87814 0.0
C2030 C 0.28047 0.7378 0.86789 0.0
C2031 C 0.27778 0.72731 0.88405 0.0
C2032 C 0.26661 0.74974 0.86156 0.0
C2033 C 0.24993 0.7515 0.87141 0.0
C2034 C 0.24736 0.74121 0.88769 0.0
C2035 C 0.26116 0.72924 0.89398 0.0
C2036 C 0.23474 0.7633 0.86426 0.0
C2037 C 0.21744 0.75501 0.86115 0.0
C2038 C 0.23734 0.78222 0.85977 0.0
C2039 C 0.25502 0.79196 0.86365 0.0
C2040 C 0.26265 0.79189 0.88158 0.0
C2041 C 0.27936 0.80099 0.88512 0.0
C2042 C 0.28853 0.81034 0.87088 0.0
C2043 C 0.28097 0.81064 0.85306 0.0
C2044 C 0.26426 0.80154 0.84944 0.0
C2045 C 0.15782 0.80435 0.84262 0.0
C2046 C 0.15808 0.8087 0.82366 0.0
C2047 C 0.17369 0.79747 0.85124 0.0
C2048 C 0.19004 0.79497 0.84106 0.0
C2049 C 0.1908 0.80082 0.82257 0.0
C2050 C 0.17488 0.80755 0.81388 0.0
C2051 C 0.20536 0.78391 0.84889 0.0
C2052 C 0.22262 0.79227 0.85196 0.0
C2053 C 0.20279 0.76503 0.85339 0.0
C2054 C 0.18511 0.75528 0.84955 0.0
C2055 C 0.17812 0.75422 0.8314 0.0
C2056 C 0.16129 0.74531 0.82792 0.0
C2057 C 0.15141 0.73723 0.84247 0.0
C2058 C 0.15838 0.73801 0.86051 0.0
C2059 C 0.17519 0.74695 0.86407 0.0
H2060 H 0.13838 0.73033 0.83975 0.0
H2061 H 0.30147 0.81738 0.87365 0.0
H2062 H 0.53629 0.99869 0.11601 0.0
H2063 H 0.51143 0.978 0.10612 0.0
H2064 H 0.47119 0.0209 0.11676 0.0
H2065 H 0.49605 0.04166 0.12691 0.0
H2066 H 0.46034 0.98836 0.13122 0.0
H2067 H 0.48145 0.00957 0.07265 0.0
H2068 H 0.50438 0.01728 0.04855 0.0
H2069 H 0.52104 0.96027 0.04568 0.0
H2070 H 0.49843 0.95225 0.06997 0.0
H2071 H 0.41851 0.91339 0.06205 0.0
H2072 H 0.42734 0.94516 0.06974 0.0
H2073 H 0.45002 0.92629 0.12171 0.0
H2074 H 0.44112 0.89461 0.11419 0.0
H2075 H 0.46292 0.95331 0.0722 0.0
H2076 H 0.45344 0.96097 0.15226 0.0
H2077 H 0.42976 0.95412 0.17587 0.0
H2078 H 0.38733 0.95547 0.13421 0.0
H2079 H 0.41071 0.9626 0.11038 0.0
C2080 C 0.52217 0.00377 0.11609 0.0
C2081 C 0.5181 0.02178 0.12219 0.0
C2082 C 0.50798 0.99197 0.11036 0.0
C2083 C 0.48948 0.99799 0.11051 0.0
C2084 C 0.48538 0.01602 0.11648 0.0
C2085 C 0.49959 0.02786 0.12221 0.0
C2086 C 0.47448 0.98506 0.10517 0.0
C2087 C 0.46074 0.9808 0.11825 0.0
C2088 C 0.47474 0.97561 0.08801 0.0
C2089 C 0.48827 0.98032 0.07322 0.0
C2090 C 0.49008 0.99869 0.06697 0.0
C2091 C 0.50301 0.00312 0.05325 0.0
C2092 C 0.51417 0.98928 0.0456 0.0
C2093 C 0.51238 0.97098 0.05161 0.0
C2094 C 0.49948 0.96648 0.06534 0.0
C2095 C 0.42471 0.91612 0.07544 0.0
C2096 C 0.42938 0.9015 0.08742 0.0
C2097 C 0.42982 0.93428 0.07977 0.0
C2098 C 0.43947 0.93809 0.09621 0.0
C2099 C 0.44244 0.92374 0.10901 0.0
C2100 C 0.43738 0.9056 0.10467 0.0
C2101 C 0.44926 0.95597 0.09862 0.0
C2102 C 0.46215 0.96115 0.085 0.0
C2103 C 0.44806 0.96637 0.11518 0.0
C2104 C 0.43388 0.96224 0.1295 0.0
C2105 C 0.43905 0.95992 0.14814 0.0
C2106 C 0.42568 0.95596 0.16157 0.0
C2107 C 0.40706 0.95433 0.15654 0.0
C2108 C 0.40177 0.95669 0.13808 0.0
C2109 C 0.41509 0.96066 0.1246 0.0
H2110 H 0.39673 0.95125 0.16696 0.0
H2111 H 0.52419 0.99274 0.035 0.0
H2112 H 0.70401 0.26094 0.62207 0.0
H2113 H 0.73004 0.28069 0.63125 0.0
H2114 H 0.76252 0.23204 0.64363 0.0
H2115 H 0.73649 0.21235 0.63499 0.0
H2116 H 0.7684 0.25714 0.66895 0.0
H2117 H 0.76659 0.25608 0.60212 0.0
H2118 H 0.75231 0.2606 0.57141 0.0
H2119 H 0.74505 0.31849 0.58297 0.0
H2120 H 0.75908 0.31425 0.61387 0.0
H2121 H 0.86041 0.27697 0.6528 0.0
H2122 H 0.82904 0.26901 0.64328 0.0
H2123 H 0.80972 0.32268 0.66091 0.0
H2124 H 0.84131 0.33078 0.67084 0.0
H2125 H 0.79454 0.30092 0.6228 0.0
H2126 H 0.80047 0.30011 0.69035 0.0
H2127 H 0.81808 0.29299 0.71876 0.0
H2128 H 0.82003 0.23555 0.7035 0.0
H2129 H 0.80278 0.24241 0.67479 0.0
C2130 C 0.71666 0.2545 0.62694 0.0
C2131 C 0.71827 0.23512 0.62776 0.0
C2132 C 0.73153 0.26579 0.6321 0.0
C2133 C 0.74832 0.25784 0.6379 0.0
C2134 C 0.7497 0.23849 0.63923 0.0
C2135 C 0.73482 0.22724 0.63424 0.0
C2136 C 0.76477 0.26946 0.64198 0.0
C2137 C 0.77399 0.26681 0.65889 0.0
C2138 C 0.77203 0.28223 0.62895 0.0
C2139 C 0.76366 0.28481 0.61038 0.0
C2140 C 0.76181 0.26974 0.59816 0.0
C2141 C 0.75379 0.27226 0.58072 0.0
C2142 C 0.74772 0.28981 0.57527 0.0
C2143 C 0.74972 0.30489 0.58723 0.0
C2144 C 0.75771 0.30245 0.60471 0.0
C2145 C 0.84962 0.28731 0.65423 0.0
C2146 C 0.85323 0.3044 0.6628 0.0
C2147 C 0.83173 0.28273 0.64874 0.0
C2148 C 0.81716 0.2952 0.6516 0.0
C2149 C 0.8209 0.31293 0.65861 0.0
C2150 C 0.83889 0.31752 0.66425 0.0
C2151 C 0.79802 0.28841 0.6496 0.0
C2152 C 0.78847 0.29178 0.63307 0.0
C2153 C 0.79057 0.27605 0.66282 0.0
C2154 C 0.80046 0.27181 0.68035 0.0
C2155 C 0.80479 0.28599 0.69298 0.0
C2156 C 0.81469 0.282 0.70914 0.0
C2157 C 0.82021 0.26384 0.71292 0.0
C2158 C 0.81577 0.24962 0.70056 0.0
C2159 C 0.80591 0.25355 0.68434 0.0
H2160 H 0.82788 0.26077 0.72543 0.0
H2161 H 0.74151 0.29173 0.56176 0.0
H2162 H 0.01168 0.46459 0.90428 0.0
H2163 H 0.98917 0.48895 0.9113 0.0
H2164 H 0.98617 0.50289 0.85323 0.0
H2165 H 0.00816 0.47825 0.84612 0.0
H2166 H 0.99392 0.52396 0.90733 0.0
H2167 H 0.94597 0.52314 0.84215 0.0
H2168 H 0.93174 0.5002 0.82123 0.0
H2169 H 0.935 0.45884 0.86382 0.0
H2170 H 0.94899 0.48158 0.8851 0.0
H2171 H 0.96469 0.61076 0.88624 0.0
H2172 H 0.97196 0.5788 0.87819 0.0
H2173 H 0.92405 0.55998 0.90844 0.0
H2174 H 0.91663 0.59214 0.91668 0.0
H2175 H 0.93611 0.53834 0.87291 0.0
H2176 H 0.95569 0.55873 0.93342 0.0
H2177 H 0.96873 0.58179 0.95497 0.0
H2178 H 0.01991 0.58158 0.92468 0.0
H2179 H 0.00701 0.55876 0.90272 0.0
C2180 C 0.00598 0.47268 0.89301 0.0
C2181 C 0.0117 0.46961 0.87468 0.0
C2182 C 0.99312 0.48657 0.89702 0.0
C2183 C 0.98583 0.49765 0.88278 0.0
C2184 C 0.99125 0.49427 0.86441 0.0
C2185 C 0.00395 0.48028 0.86038 0.0
C2186 C 0.97416 0.51396 0.88724 0.0
C2187 C 0.98113 0.52687 0.89999 0.0
C2188 C 0.95734 0.51778 0.87783 0.0
C2189 C 0.94865 0.50407 0.8652 0.0
C2190 C 0.94354 0.50919 0.84711 0.0
C2191 C 0.93554 0.4962 0.83517 0.0
C2192 C 0.93251 0.47806 0.84117 0.0
C2193 C 0.93741 0.47288 0.85916 0.0
C2194 C 0.9454 0.48581 0.87116 0.0
C2195 C 0.95533 0.59991 0.89068 0.0
C2196 C 0.94029 0.60386 0.90235 0.0
C2197 C 0.95948 0.58167 0.88602 0.0
C2198 C 0.94865 0.56713 0.89295 0.0
C2199 C 0.9325 0.5711 0.90297 0.0
C2200 C 0.92832 0.58944 0.90768 0.0
C2201 C 0.95627 0.54819 0.8925 0.0
C2202 C 0.94865 0.53501 0.8805 0.0
C2203 C 0.97229 0.54385 0.90287 0.0
C2204 C 0.98033 0.55715 0.91635 0.0
C2205 C 0.96968 0.5637 0.93129 0.0
C2206 C 0.97705 0.57672 0.94358 0.0
C2207 C 0.99513 0.58319 0.94118 0.0
C2208 C 0.0059 0.57658 0.92652 0.0
C2209 C 0.99857 0.56358 0.91415 0.0
H2210 H 0.0008 0.59329 0.9507 0.0
H2211 H 0.92633 0.46803 0.8319 0.0
H2212 H 0.67495 0.66048 0.18213 0.0
H2213 H 0.70418 0.66641 0.16623 0.0
H2214 H 0.67431 0.68518 0.11804 0.0
H2215 H 0.64496 0.679 0.13376 0.0
H2216 H 0.71063 0.67018 0.10989 0.0
H2217 H 0.68028 0.71542 0.14896 0.0
H2218 H 0.66506 0.72546 0.17784 0.0
H2219 H 0.71467 0.71357 0.20843 0.0
H2220 H 0.73005 0.70305 0.17974 0.0
H2221 H 0.76309 0.74898 0.08027 0.0
H2222 H 0.74061 0.7252 0.08906 0.0
H2223 H 0.77122 0.71482 0.13935 0.0
H2224 H 0.79348 0.73881 0.13082 0.0
H2225 H 0.73615 0.72256 0.14642 0.0
H2226 H 0.76806 0.68203 0.1047 0.0
H2227 H 0.78207 0.67269 0.075 0.0
H2228 H 0.72915 0.67727 0.04823 0.0
H2229 H 0.71486 0.6869 0.07772 0.0
C2230 C 0.67459 0.66513 0.16788 0.0
C2231 C 0.65774 0.66975 0.15933 0.0
C2232 C 0.6913 0.66845 0.15879 0.0
C2233 C 0.69133 0.67663 0.14116 0.0
C2234 C 0.67453 0.67892 0.13167 0.0
C2235 C 0.65778 0.67547 0.14072 0.0
C2236 C 0.708 0.68655 0.13466 0.0
C2237 C 0.71628 0.68164 0.11779 0.0
C2238 C 0.71528 0.70148 0.14507 0.0
C2239 C 0.70623 0.70824 0.16226 0.0
C2240 C 0.68789 0.71482 0.16187 0.0
C2241 C 0.67924 0.7206 0.17819 0.0
C2242 C 0.68888 0.72011 0.19497 0.0
C2243 C 0.70721 0.7139 0.19543 0.0
C2244 C 0.7159 0.70801 0.17914 0.0
C2245 C 0.7652 0.74136 0.09301 0.0
C2246 C 0.77989 0.74586 0.10497 0.0
C2247 C 0.75242 0.7277 0.09797 0.0
C2248 C 0.75428 0.71819 0.11483 0.0
C2249 C 0.76953 0.722 0.12628 0.0
C2250 C 0.78222 0.73572 0.1214 0.0
C2251 C 0.73918 0.70611 0.12167 0.0
C2252 C 0.73091 0.71084 0.1386 0.0
C2253 C 0.73189 0.69123 0.11116 0.0
C2254 C 0.74041 0.68532 0.09342 0.0
C2255 C 0.75943 0.68118 0.09246 0.0
C2256 C 0.76742 0.67581 0.07566 0.0
C2257 C 0.75652 0.67442 0.05973 0.0
C2258 C 0.73758 0.67836 0.06058 0.0
C2259 C 0.72953 0.68375 0.07734 0.0
H2260 H 0.76273 0.67027 0.04674 0.0
H2261 H 0.68215 0.72459 0.2076 0.0
H2262 H 0.46607 0.50691 0.36824 0.0
H2263 H 0.48946 0.48387 0.37646 0.0
H2264 H 0.53251 0.51996 0.35612 0.0
H2265 H 0.50911 0.54311 0.34777 0.0
H2266 H 0.53835 0.4839 0.34582 0.0
H2267 H 0.52619 0.51719 0.40139 0.0
H2268 H 0.50682 0.5315 0.42561 0.0
H2269 H 0.4847 0.47818 0.43986 0.0
H2270 H 0.50372 0.46357 0.41554 0.0
H2271 H 0.58155 0.42046 0.42521 0.0
H2272 H 0.57352 0.45068 0.41223 0.0
H2273 H 0.54716 0.42371 0.36584 0.0
H2274 H 0.55557 0.39359 0.37847 0.0
H2275 H 0.53932 0.46065 0.41046 0.0
H2276 H 0.54124 0.45239 0.32991 0.0
H2277 H 0.56199 0.4394 0.3061 0.0
H2278 H 0.60838 0.44521 0.34286 0.0
H2279 H 0.58799 0.45849 0.36681 0.0
C2280 C 0.48051 0.50992 0.36545 0.0
C2281 C 0.48579 0.5268 0.35741 0.0
C2282 C 0.49385 0.49677 0.37019 0.0
C2283 C 0.51273 0.50032 0.3671 0.0
C2284 C 0.51802 0.51698 0.35863 0.0
C2285 C 0.50465 0.53016 0.35389 0.0
C2286 C 0.52682 0.48672 0.37317 0.0
C2287 C 0.53871 0.47884 0.35996 0.0
C2288 C 0.52766 0.48062 0.39176 0.0
C2289 C 0.51632 0.48931 0.40656 0.0
C2290 C 0.51711 0.50853 0.40962 0.0
C2291 C 0.5062 0.51669 0.42337 0.0
C2292 C 0.49452 0.50576 0.43425 0.0
C2293 C 0.49375 0.48663 0.43142 0.0
C2294 C 0.50462 0.4784 0.41767 0.0
C2295 C 0.57466 0.42101 0.41189 0.0
C2296 C 0.56896 0.40468 0.40297 0.0
C2297 C 0.57002 0.43829 0.40452 0.0
C2298 C 0.55961 0.4395 0.38813 0.0
C2299 C 0.55539 0.4232 0.37837 0.0
C2300 C 0.56015 0.40594 0.38566 0.0
C2301 C 0.55045 0.45717 0.38296 0.0
C2302 C 0.53935 0.46585 0.39637 0.0
C2303 C 0.55062 0.46416 0.36464 0.0
C2304 C 0.56303 0.45634 0.35021 0.0
C2305 C 0.55589 0.45101 0.33289 0.0
C2306 C 0.56758 0.44356 0.31937 0.0
C2307 C 0.58648 0.44145 0.32298 0.0
C2308 C 0.59373 0.4468 0.34011 0.0
C2309 C 0.5821 0.45426 0.35367 0.0
H2310 H 0.59551 0.43568 0.3125 0.0
H2311 H 0.48608 0.51211 0.44489 0.0
H2312 H 0.36035 0.25151 0.28285 0.0
H2313 H 0.35018 0.27385 0.25949 0.0
H2314 H 0.35961 0.23346 0.21649 0.0
H2315 H 0.36968 0.21095 0.23981 0.0
H2316 H 0.37577 0.26795 0.20928 0.0
H2317 H 0.31657 0.24341 0.2261 0.0
H2318 H 0.29184 0.23363 0.24753 0.0
H2319 H 0.28762 0.28911 0.26851 0.0
H2320 H 0.31242 0.29921 0.24731 0.0
H2321 H 0.30676 0.34132 0.16556 0.0
H2322 H 0.31545 0.30965 0.17414 0.0
H2323 H 0.36238 0.33074 0.20453 0.0
H2324 H 0.35366 0.36233 0.19621 0.0
H2325 H 0.31522 0.3004 0.21135 0.0
H2326 H 0.39559 0.29732 0.20629 0.0
H2327 H 0.42027 0.30742 0.18497 0.0
H2328 H 0.3818 0.30682 0.13962 0.0
H2329 H 0.35693 0.29645 0.1606 0.0
C2330 C 0.3601 0.24734 0.26844 0.0
C2331 C 0.3658 0.22952 0.26313 0.0
C2332 C 0.35423 0.26007 0.25513 0.0
C2333 C 0.35406 0.25522 0.2363 0.0
C2334 C 0.35961 0.2374 0.23096 0.0
C2335 C 0.3653 0.22459 0.2443 0.0
C2336 C 0.34892 0.26917 0.22223 0.0
C2337 C 0.36247 0.27495 0.20955 0.0
C2338 C 0.33146 0.27802 0.22246 0.0
C2339 C 0.31644 0.27204 0.23517 0.0
C2340 C 0.31045 0.25351 0.23536 0.0
C2341 C 0.29639 0.24792 0.24744 0.0
C2342 C 0.28817 0.26074 0.25938 0.0
C2343 C 0.29399 0.2792 0.25925 0.0
C2344 C 0.30801 0.28487 0.24716 0.0
C2345 C 0.3193 0.33913 0.17349 0.0
C2346 C 0.32948 0.35423 0.18036 0.0
C2347 C 0.32419 0.32106 0.17845 0.0
C2348 C 0.33951 0.3179 0.18999 0.0
C2349 C 0.3506 0.33288 0.19547 0.0
C2350 C 0.34559 0.35092 0.19074 0.0
C2351 C 0.3423 0.29964 0.19881 0.0
C2352 C 0.32836 0.29312 0.21068 0.0
C2353 C 0.35941 0.29016 0.19784 0.0
C2354 C 0.37436 0.29619 0.18507 0.0
C2355 C 0.39241 0.29922 0.19175 0.0
C2356 C 0.40643 0.30502 0.17973 0.0
C2357 C 0.4026 0.30779 0.16096 0.0
C2358 C 0.38474 0.30472 0.15417 0.0
C2359 C 0.37066 0.29892 0.16613 0.0
H2360 H 0.41348 0.31229 0.15168 0.0
H2361 H 0.27729 0.25639 0.26872 0.0
H2362 H 0.80423 0.16584 0.82387 0.0
H2363 H 0.81581 0.19708 0.81769 0.0
H2364 H 0.86798 0.17424 0.79963 0.0
H2365 H 0.85653 0.14303 0.80576 0.0
H2366 H 0.87151 0.20957 0.81642 0.0
H2367 H 0.83482 0.1777 0.76927 0.0
H2368 H 0.80667 0.16192 0.75808 0.0
H2369 H 0.7743 0.21027 0.7705 0.0
H2370 H 0.80227 0.22621 0.78207 0.0
H2371 H 0.90622 0.25757 0.73946 0.0
H2372 H 0.89431 0.23635 0.76288 0.0
H2373 H 0.84366 0.26798 0.76599 0.0
H2374 H 0.85538 0.28905 0.74218 0.0
H2375 H 0.83624 0.23288 0.7622 0.0
H2376 H 0.87495 0.26725 0.80255 0.0
H2377 H 0.90343 0.28282 0.81314 0.0
H2378 H 0.93216 0.23075 0.8135 0.0
H2379 H 0.90393 0.21489 0.80264 0.0
C2380 C 0.8184 0.16752 0.81924 0.0
C2381 C 0.82938 0.15203 0.81494 0.0
C2382 C 0.82498 0.18537 0.81571 0.0
C2383 C 0.84261 0.18788 0.8079 0.0
C2384 C 0.85431 0.17256 0.80561 0.0
C2385 C 0.84772 0.15473 0.80903 0.0
C2386 C 0.84764 0.20562 0.79902 0.0
C2387 C 0.86382 0.21479 0.80462 0.0
C2388 C 0.83732 0.21256 0.78387 0.0
C2389 C 0.82056 0.20304 0.77677 0.0
C2390 C 0.82167 0.1849 0.76976 0.0
C2391 C 0.80575 0.17593 0.76334 0.0
C2392 C 0.78868 0.18506 0.76364 0.0
C2393 C 0.78752 0.20319 0.77033 0.0
C2394 C 0.80339 0.21219 0.77683 0.0
C2395 C 0.89264 0.26012 0.74528 0.0
C2396 C 0.88171 0.27493 0.73899 0.0
C2397 C 0.8859 0.24808 0.7588 0.0
C2398 C 0.86821 0.25075 0.76643 0.0
C2399 C 0.85741 0.26575 0.7604 0.0
C2400 C 0.86411 0.27776 0.7468 0.0
C2401 C 0.86041 0.2368 0.77932 0.0
C2402 C 0.84371 0.22818 0.77437 0.0
C2403 C 0.87028 0.23044 0.79504 0.0
C2404 C 0.88731 0.23989 0.80168 0.0
C2405 C 0.88737 0.25913 0.80477 0.0
C2406 C 0.90347 0.26801 0.81084 0.0
C2407 C 0.9196 0.25779 0.81397 0.0
C2408 C 0.91965 0.23865 0.81107 0.0
C2409 C 0.90359 0.2297 0.80499 0.0
H2410 H 0.93206 0.26469 0.81866 0.0
H2411 H 0.77637 0.17813 0.75863 0.0
H2412 H 0.9724 0.61141 0.97601 0.0
H2413 H 0.99536 0.60433 -0.0001 0.0
H2414 H 0.01036 0.66208 0.00284 0.0
H2415 H 0.98719 0.66934 0.97909 0.0
H2416 H 0.04044 0.637 0.99722 0.0
H2417 H 0.98913 0.64587 0.03778 0.0
H2418 H 0.95715 0.64158 0.04889 0.0
H2419 H 0.96723 0.58347 0.05647 0.0
H2420 H 0.99921 0.58733 0.04509 0.0
H2421 H 0.10799 0.61563 0.06309 0.0
H2422 H 0.07994 0.63121 0.05212 0.0
H2423 H 0.05228 0.57843 0.04765 0.0
H2424 H 0.08009 0.56284 0.0589 0.0
H2425 H 0.02796 0.60571 0.05714 0.0
H2426 H 0.07547 0.59513 0.01124 0.0
H2427 H 0.10706 0.59739 0.99843 0.0
H2428 H 0.10342 0.65676 -0.00082 0.0
H2429 H 0.07187 0.65483 0.01226 0.0
C2430 C 0.98046 0.62262 0.98187 0.0
C2431 C 0.97811 0.6409 0.97564 0.0
C2432 C 0.99348 0.61858 0.99557 0.0
C2433 C 0.00444 0.63272 0.00317 0.0
C2434 C 0.00196 0.65102 0.99716 0.0
C2435 C 0.98877 0.65512 0.98361 0.0
C2436 C 0.01939 0.62805 0.01634 0.0
C2437 C 0.03773 0.6306 0.01054 0.0
C2438 C 0.01575 0.61926 0.03345 0.0
C2439 C 0.99656 0.61688 0.04045 0.0
C2440 C 0.9845 0.63214 0.04167 0.0
C2441 C 0.96637 0.62979 0.04804 0.0
C2442 C 0.96015 0.61226 0.05335 0.0
C2443 C 0.97207 0.59704 0.05234 0.0
C2444 C 0.99021 0.59931 0.04595 0.0
C2445 C 0.09575 0.60742 0.06028 0.0
C2446 C 0.0963 0.58801 0.06155 0.0
C2447 C 0.07976 0.61632 0.05398 0.0
C2448 C 0.06418 0.60592 0.04872 0.0
C2449 C 0.06417 0.58671 0.05158 0.0
C2450 C 0.08011 0.57781 0.05794 0.0
C2451 C 0.04899 0.61453 0.03793 0.0
C2452 C 0.03065 0.61257 0.04406 0.0
C2453 C 0.05256 0.62365 0.02093 0.0
C2454 C 0.07144 0.62485 0.01294 0.0
C2455 C 0.08147 0.60867 0.0088 0.0
C2456 C 0.09935 0.60988 0.00147 0.0
C2457 C 0.10726 0.62721 0.99805 0.0
C2458 C 0.09728 0.64335 0.00188 0.0
C2459 C 0.07941 0.64221 0.00925 0.0
H2460 H 0.12111 0.62813 0.99238 0.0
H2461 H 0.94611 0.61047 0.05828 0.0
H2462 H 0.68138 0.82671 0.33926 0.0
H2463 H 0.67093 0.7962 0.329 0.0
H2464 H 0.6237 0.82129 0.30235 0.0
H2465 H 0.63361 0.85163 0.3132 0.0
H2466 H 0.61604 0.78616 0.31036 0.0
H2467 H 0.66475 0.81933 0.27815 0.0
H2468 H 0.69438 0.8362 0.27721 0.0
H2469 H 0.72263 0.78846 0.29869 0.0
H2470 H 0.69304 0.77126 0.29968 0.0
H2471 H 0.64007 0.74115 0.21569 0.0
H2472 H 0.64607 0.76388 0.24002 0.0
H2473 H 0.62393 0.7262 0.28082 0.0
H2474 H 0.61727 0.70369 0.25639 0.0
H2475 H 0.66669 0.76517 0.26884 0.0
H2476 H 0.60291 0.75074 0.31538 0.0
H2477 H 0.57102 0.73874 0.31252 0.0
H2478 H 0.56945 0.7556 0.25551 0.0
H2479 H 0.60121 0.76792 0.25811 0.0
C2480 C 0.6683 0.82562 0.332 0.0
C2481 C 0.65857 0.84158 0.32659 0.0
C2482 C 0.66239 0.80817 0.32604 0.0
C2483 C 0.64694 0.80659 0.31431 0.0
C2484 C 0.63579 0.8222 0.3112 0.0
C2485 C 0.64151 0.83959 0.31741 0.0
C2486 C 0.64452 0.79002 0.30241 0.0
C2487 C 0.62717 0.78131 0.3015 0.0
C2488 C 0.65884 0.78416 0.29034 0.0
C2489 C 0.67673 0.79411 0.28913 0.0
C2490 C 0.6773 0.81245 0.28266 0.0
C2491 C 0.69407 0.82208 0.28215 0.0
C2492 C 0.71039 0.81347 0.28802 0.0
C2493 C 0.70997 0.79514 0.29425 0.0
C2494 C 0.69321 0.78542 0.29471 0.0
C2495 C 0.63653 0.73771 0.22985 0.0
C2496 C 0.62806 0.72074 0.23414 0.0
C2497 C 0.64002 0.75067 0.24377 0.0
C2498 C 0.63523 0.74686 0.26224 0.0
C2499 C 0.6274 0.72961 0.26664 0.0
C2500 C 0.62369 0.71673 0.25268 0.0
C2501 C 0.63816 0.76117 0.27672 0.0
C2502 C 0.65564 0.76955 0.27804 0.0
C2503 C 0.62369 0.7672 0.28856 0.0
C2504 C 0.60452 0.76001 0.2869 0.0
C2505 C 0.59573 0.75192 0.30226 0.0
C2506 C 0.57769 0.74506 0.30068 0.0
C2507 C 0.56825 0.74633 0.28382 0.0
C2508 C 0.5768 0.75455 0.26853 0.0
C2509 C 0.59483 0.76145 0.27005 0.0
H2510 H 0.55429 0.741 0.28262 0.0
H2511 H 0.72337 0.82093 0.28762 0.0
H2512 H 0.41509 0.42677 0.57883 0.0
H2513 H 0.44489 0.41107 0.57371 0.0
H2514 H 0.42499 0.39085 0.52107 0.0
H2515 H 0.39545 0.40611 0.5262 0.0
H2516 H 0.4461 0.36524 0.5374 0.0
H2517 H 0.44904 0.43232 0.52504 0.0
H2518 H 0.44721 0.46508 0.53466 0.0
H2519 H 0.48904 0.4556 0.57588 0.0
H2520 H 0.49095 0.42272 0.56661 0.0
H2521 H 0.50323 0.37962 0.46114 0.0
H2522 H 0.48196 0.38571 0.48672 0.0
H2523 H 0.5241 0.36988 0.52598 0.0
H2524 H 0.54551 0.36329 0.50024 0.0
H2525 H 0.49818 0.40908 0.52793 0.0
H2526 H 0.50029 0.3426 0.53167 0.0
H2527 H 0.50178 0.31133 0.51804 0.0
H2528 H 0.44985 0.32053 0.49052 0.0
H2529 H 0.44824 0.35202 0.50368 0.0
C2530 C 0.41702 0.41865 0.56637 0.0
C2531 C 0.40309 0.41784 0.55279 0.0
C2532 C 0.43402 0.40972 0.56345 0.0
C2533 C 0.43721 0.39993 0.54693 0.0
C2534 C 0.42284 0.39825 0.53396 0.0
C2535 C 0.40599 0.40713 0.53684 0.0
C2536 C 0.45587 0.39312 0.54175 0.0
C2537 C 0.45764 0.37472 0.53569 0.0
C2538 C 0.47107 0.40536 0.53983 0.0
C2539 C 0.46996 0.42508 0.54532 0.0
C2540 C 0.45775 0.43722 0.53623 0.0
C2541 C 0.45671 0.4558 0.54161 0.0
C2542 C 0.46796 0.4624 0.55592 0.0
C2543 C 0.48031 0.45045 0.56484 0.0
C2544 C 0.48137 0.43185 0.55954 0.0
C2545 C 0.50802 0.3775 0.4752 0.0
C2546 C 0.52595 0.37093 0.47876 0.0
C2547 C 0.49587 0.38095 0.48976 0.0
C2548 C 0.50151 0.37814 0.50812 0.0
C2549 C 0.51956 0.37203 0.51184 0.0
C2550 C 0.53168 0.36825 0.49719 0.0
C2551 C 0.48802 0.3815 0.52304 0.0
C2552 C 0.4871 0.3993 0.53068 0.0
C2553 C 0.47354 0.36877 0.52627 0.0
C2554 C 0.47421 0.34971 0.51859 0.0
C2555 C 0.48926 0.33801 0.5226 0.0
C2556 C 0.49011 0.32024 0.51497 0.0
C2557 C 0.47592 0.31395 0.50341 0.0
C2558 C 0.46083 0.32542 0.49948 0.0
C2559 C 0.45993 0.34323 0.50704 0.0
H2560 H 0.47661 0.30018 0.49751 0.0
H2561 H 0.46714 0.47678 0.56005 0.0
H2562 H 0.13186 0.63654 0.69301 0.0
H2563 H 0.11908 0.66725 0.69743 0.0
H2564 H 0.16549 0.69099 0.6681 0.0
H2565 H 0.17894 0.66008 0.66459 0.0
H2566 H 0.16384 0.70631 0.69897 0.0
H2567 H 0.1177 0.69688 0.65397 0.0
H2568 H 0.09328 0.68089 0.63626 0.0
H2569 H 0.05907 0.6786 0.68483 0.0
H2570 H 0.08337 0.69431 0.70293 0.0
H2571 H 0.12539 0.79185 0.73292 0.0
H2572 H 0.13128 0.7685 0.7089 0.0
H2573 H 0.10845 0.72621 0.74434 0.0
H2574 H 0.10308 0.74931 0.76859 0.0
H2575 H 0.09809 0.72592 0.70267 0.0
H2576 H 0.14979 0.72762 0.74748 0.0
H2577 H 0.17424 0.74445 0.76442 0.0
H2578 H 0.1977 0.76271 0.7129 0.0
H2579 H 0.17318 0.74618 0.69569 0.0
C2580 C 0.13906 0.64821 0.68692 0.0
C2581 C 0.15655 0.64594 0.67872 0.0
C2582 C 0.13163 0.66587 0.68934 0.0
C2583 C 0.14128 0.6816 0.68313 0.0
C2584 C 0.15783 0.67912 0.67315 0.0
C2585 C 0.16547 0.66144 0.67106 0.0
C2586 C 0.13589 0.70024 0.69008 0.0
C2587 C 0.14951 0.71081 0.69916 0.0
C2588 C 0.11718 0.70623 0.69064 0.0
C2589 C 0.10243 0.69676 0.67984 0.0
C2590 C 0.10502 0.69286 0.66092 0.0
C2591 C 0.09119 0.68386 0.6508 0.0
C2592 C 0.07464 0.67872 0.65942 0.0
C2593 C 0.07189 0.6826 0.67817 0.0
C2594 C 0.08568 0.6916 0.68836 0.0
C2595 C 0.12147 0.7776 0.73548 0.0
C2596 C 0.11399 0.77229 0.75265 0.0
C2597 C 0.12474 0.76435 0.72175 0.0
C2598 C 0.12019 0.74573 0.72489 0.0
C2599 C 0.11189 0.74058 0.74166 0.0
C2600 C 0.109 0.75372 0.75553 0.0
C2601 C 0.12595 0.73121 0.71172 0.0
C2602 C 0.11243 0.72154 0.7017 0.0
C2603 C 0.14474 0.72614 0.71 0.0
C2604 C 0.15955 0.7359 0.72033 0.0
C2605 C 0.16006 0.73537 0.73979 0.0
C2606 C 0.17395 0.74482 0.74943 0.0
C2607 C 0.18748 0.7547 0.73974 0.0
C2608 C 0.18718 0.75509 0.72039 0.0
C2609 C 0.1733 0.74569 0.71069 0.0
H2610 H 0.19822 0.76201 0.74723 0.0
H2611 H 0.06395 0.67175 0.65156 0.0
H2612 H 0.47962 0.88995 0.02747 0.0
H2613 H 0.50115 0.89697 0.00254 0.0
H2614 H 0.49659 0.84088 0.98237 0.0
H2615 H 0.47497 0.83366 0.00766 0.0
H2616 H 0.5325 0.85209 0.9851 0.0
H2617 H 0.47886 0.87493 0.95609 0.0
H2618 H 0.44895 0.89115 0.95333 0.0
H2619 H 0.47545 0.94286 0.96596 0.0
H2620 H 0.50548 0.92695 0.9691 0.0
H2621 H 0.60223 0.8967 0.92816 0.0
H2622 H 0.57286 0.87991 0.93285 0.0
H2623 H 0.55593 0.92102 0.97279 0.0
H2624 H 0.58503 0.93748 0.96844 0.0
H2625 H 0.52724 0.90983 0.9482 0.0
H2626 H 0.57687 0.88339 0.98764 0.0
H2627 H 0.60675 0.86725 0.99155 0.0
H2628 H 0.58691 0.82197 0.95846 0.0
H2629 H 0.55698 0.83799 0.9542 0.0
C2630 C 0.48306 0.87912 0.01767 0.0
C2631 C 0.47564 0.86126 0.0195 0.0
C2632 C 0.49526 0.88319 0.00332 0.0
C2633 C 0.50021 0.86954 0.99039 0.0
C2634 C 0.49279 0.85165 0.9921 0.0
C2635 C 0.48048 0.84756 0.00652 0.0
C2636 C 0.51427 0.87399 0.97615 0.0
C2637 C 0.53114 0.86434 0.97651 0.0
C2638 C 0.51248 0.88992 0.96486 0.0
C2639 C 0.49447 0.8997 0.96282 0.0
C2640 C 0.47832 0.88975 0.95836 0.0
C2641 C 0.46133 0.8989 0.95673 0.0
C2642 C 0.4603 0.91803 0.95945 0.0
C2643 C 0.47627 0.92805 0.96381 0.0
C2644 C 0.4933 0.91897 0.96547 0.0
C2645 C 0.59207 0.90221 0.93771 0.0
C2646 C 0.59588 0.91825 0.94807 0.0
C2647 C 0.57537 0.89266 0.94036 0.0
C2648 C 0.56228 0.89929 0.95314 0.0
C2649 C 0.5658 0.91576 0.96277 0.0
C2650 C 0.58249 0.92507 0.96038 0.0
C2651 C 0.54559 0.88857 0.95815 0.0
C2652 C 0.52825 0.89706 0.95605 0.0
C2653 C 0.54691 0.87156 0.96776 0.0
C2654 C 0.56483 0.86196 0.9704 0.0
C2655 C 0.57895 0.87006 0.98109 0.0
C2656 C 0.59588 0.86092 0.98339 0.0
C2657 C 0.59875 0.84362 0.9752 0.0
C2658 C 0.58468 0.83539 0.96475 0.0
C2659 C 0.56774 0.84449 0.96239 0.0
H2660 H 0.61186 0.83657 0.97701 0.0
H2661 H 0.44713 0.92508 0.95819 0.0
H2662 H 0.88628 0.11283 0.45034 0.0
H2663 H 0.91826 0.12329 0.45288 0.0
H2664 H 0.93726 0.07111 0.4308 0.0
H2665 H 0.90513 0.06051 0.42825 0.0
H2666 H 0.9507 0.07776 0.46485 0.0
H2667 H 0.94827 0.11108 0.40845 0.0
H2668 H 0.93537 0.13198 0.38473 0.0
H2669 H 0.93733 0.17734 0.42314 0.0
H2670 H 0.94997 0.15668 0.4472 0.0
H2671 H 0.03759 0.1078 0.4977 0.0
H2672 H 0.01507 0.09852 0.47411 0.0
H2673 H 0.98076 0.14532 0.48839 0.0
H2674 H 0.00332 0.15483 0.51175 0.0
H2675 H 0.97988 0.13844 0.45114 0.0
H2676 H 0.97315 0.1042 0.50849 0.0
H2677 H 0.98421 0.08418 0.53387 0.0
H2678 H 0.99748 0.0414 0.49475 0.0
H2679 H 0.98668 0.0613 0.46908 0.0
C2680 C 0.89723 0.10382 0.44543 0.0
C2681 C 0.89326 0.08578 0.43932 0.0
C2682 C 0.91553 0.10986 0.44677 0.0
C2683 C 0.93017 0.09797 0.44204 0.0
C2684 C 0.92616 0.0805 0.43448 0.0
C2685 C 0.9078 0.07449 0.433 0.0
C2686 C 0.94919 0.10254 0.44825 0.0
C2687 C 0.9574 0.09076 0.46135 0.0
C2688 C 0.95764 0.11973 0.4441 0.0
C2689 C 0.95003 0.13227 0.42967 0.0
C2690 C 0.94583 0.12548 0.4119 0.0
C2691 C 0.93858 0.1373 0.39837 0.0
C2692 C 0.93552 0.15597 0.40243 0.0
C2693 C 0.93972 0.16287 0.42001 0.0
C2694 C 0.94697 0.15112 0.43359 0.0
C2695 C 0.02539 0.11627 0.49559 0.0
C2696 C 0.02206 0.13189 0.50672 0.0
C2697 C 0.01257 0.11097 0.4821 0.0
C2698 C 0.99616 0.12112 0.47966 0.0
C2699 C 0.99335 0.13732 0.49002 0.0
C2700 C 0.00619 0.14266 0.50346 0.0
C2701 C 0.98095 0.11386 0.46798 0.0
C2702 C 0.97347 0.12516 0.45404 0.0
C2703 C 0.97294 0.09633 0.4715 0.0
C2704 C 0.97934 0.0843 0.48687 0.0
C2705 C 0.97856 0.09057 0.5053 0.0
C2706 C 0.98475 0.07925 0.51973 0.0
C2707 C 0.99159 0.06155 0.51592 0.0
C2708 C 0.99221 0.05513 0.49766 0.0
C2709 C 0.98605 0.06641 0.48317 0.0
H2710 H 0.99633 0.05281 0.52712 0.0
H2711 H 0.92991 0.16509 0.39194 0.0
loop_
_geom_bond_atom_site_label_1
_geom_bond_atom_site_label_2
_geom_bond_distance
_geom_bond_site_symmetry_2
_ccdc_geom_bond_type
In0 O1 2.294 . S
In0 O2 2.326 . S
In0 O6 2.266 . S
In0 O7 2.326 . S
In0 O8 2.266 . S
In0 O9 2.326 . S
In0 O11 2.294 . S
In0 O12 2.326 . S
O1 In0 2.294 . S
O1 C10 1.240 . S
O2 In0 2.326 . S
O2 C10 1.252 . S
C3 O6 1.252 . S
C3 O7 1.260 . S
C4 O11 1.240 . S
C4 O12 1.252 . S
C5 O8 1.252 . S
C5 O9 1.260 . S
O6 In0 2.266 . S
O6 C3 1.252 . S
O7 In0 2.326 . S
O7 C3 1.260 . S
O8 In0 2.266 . S
O8 C5 1.252 . S
O9 In0 2.326 . S
O9 C5 1.260 . S
C10 O1 1.240 . S
C10 O2 1.252 . S
O11 In0 2.294 . S
O11 C4 1.240 . S
O12 In0 2.326 . S
O12 C4 1.252 . S
In13 O14 2.294 . S
In13 O15 2.326 . S
In13 O19 2.266 . S
In13 O20 2.326 . S
In13 O21 2.266 . S
In13 O22 2.326 . S
In13 O24 2.294 . S
In13 O25 2.326 . S
O14 In13 2.294 . S
O14 C23 1.240 . S
O15 In13 2.326 . S
O15 C23 1.252 . S
C16 O19 1.252 . S
C16 O20 1.260 . S
C17 O24 1.240 . S
C17 O25 1.252 . S
C18 O21 1.252 . S
C18 O22 1.260 . S
O19 In13 2.266 . S
O19 C16 1.252 . S
O20 In13 2.326 . S
O20 C16 1.260 . S
O21 In13 2.266 . S
O21 C18 1.252 . S
O22 In13 2.326 . S
O22 C18 1.260 . S
C23 O14 1.240 . S
C23 O15 1.252 . S
O24 In13 2.294 . S
O24 C17 1.240 . S
O25 In13 2.326 . S
O25 C17 1.252 . S
In26 O27 2.294 . S
In26 O28 2.326 . S
In26 O32 2.266 . S
In26 O33 2.326 . S
In26 O34 2.266 . S
In26 O35 2.326 . S
In26 O37 2.294 . S
In26 O38 2.326 . S
O27 In26 2.294 . S
O27 C36 1.240 . S
O28 In26 2.326 . S
O28 C36 1.252 . S
C29 O32 1.252 . S
C29 O33 1.260 . S
C30 O37 1.240 . S
C30 O38 1.252 . S
C31 O34 1.252 . S
C31 O35 1.260 . S
O32 In26 2.266 . S
O32 C29 1.252 . S
O33 In26 2.326 . S
O33 C29 1.260 . S
O34 In26 2.266 . S
O34 C31 1.252 . S
O35 In26 2.326 . S
O35 C31 1.260 . S
C36 O27 1.240 . S
C36 O28 1.252 . S
O37 In26 2.294 . S
O37 C30 1.240 . S
O38 In26 2.326 . S
O38 C30 1.252 . S
In39 O40 2.294 . S
In39 O41 2.326 . S
In39 O45 2.266 . S
In39 O46 2.326 . S
In39 O47 2.266 . S
In39 O48 2.326 . S
In39 O50 2.294 . S
In39 O51 2.326 . S
O40 In39 2.294 . S
O40 C49 1.240 . S
O41 In39 2.326 . S
O41 C49 1.252 . S
C42 O45 1.252 . S
C42 O46 1.260 . S
C43 O50 1.240 . S
C43 O51 1.252 . S
C44 O47 1.252 . S
C44 O48 1.260 . S
O45 In39 2.266 . S
O45 C42 1.252 . S
O46 In39 2.326 . S
O46 C42 1.260 . S
O47 In39 2.266 . S
O47 C44 1.252 . S
O48 In39 2.326 . S
O48 C44 1.260 . S
C49 O40 1.240 . S
C49 O41 1.252 . S
O50 In39 2.294 . S
O50 C43 1.240 . S
O51 In39 2.326 . S
O51 C43 1.252 . S
In52 O53 2.294 . S
In52 O54 2.326 . S
In52 O58 2.266 . S
In52 O59 2.326 . S
In52 O60 2.266 . S
In52 O61 2.326 . S
In52 O63 2.294 . S
In52 O64 2.326 . S
O53 In52 2.294 . S
O53 C62 1.240 . S
O54 In52 2.326 . S
O54 C62 1.252 . S
C55 O58 1.252 . S
C55 O59 1.260 . S
C56 O63 1.240 . S
C56 O64 1.252 . S
C57 O60 1.252 . S
C57 O61 1.260 . S
O58 In52 2.266 . S
O58 C55 1.252 . S
O59 In52 2.326 . S
O59 C55 1.260 . S
O60 In52 2.266 . S
O60 C57 1.252 . S
O61 In52 2.326 . S
O61 C57 1.260 . S
C62 O53 1.240 . S
C62 O54 1.252 . S
O63 In52 2.294 . S
O63 C56 1.240 . S
O64 In52 2.326 . S
O64 C56 1.252 . S
In65 O66 2.294 . S
In65 O67 2.326 . S
In65 O71 2.266 . S
In65 O72 2.326 . S
In65 O73 2.266 . S
In65 O74 2.326 . S
In65 O76 2.294 . S
In65 O77 2.326 . S
O66 In65 2.294 . S
O66 C75 1.240 . S
O67 In65 2.326 . S
O67 C75 1.252 . S
C68 O71 1.252 . S
C68 O72 1.260 . S
C69 O76 1.240 . S
C69 O77 1.252 . S
C70 O73 1.252 . S
C70 O74 1.260 . S
O71 In65 2.266 . S
O71 C68 1.252 . S
O72 In65 2.326 . S
O72 C68 1.260 . S
O73 In65 2.266 . S
O73 C70 1.252 . S
O74 In65 2.326 . S
O74 C70 1.260 . S
C75 O66 1.240 . S
C75 O67 1.252 . S
O76 In65 2.294 . S
O76 C69 1.240 . S
O77 In65 2.326 . S
O77 C69 1.252 . S
In78 O79 2.294 . S
In78 O80 2.326 . S
In78 O84 2.266 . S
In78 O85 2.326 . S
In78 O86 2.266 . S
In78 O87 2.326 . S
In78 O89 2.294 . S
In78 O90 2.326 . S
O79 In78 2.294 . S
O79 C88 1.240 . S
O80 In78 2.326 . S
O80 C88 1.252 . S
C81 O84 1.252 . S
C81 O85 1.260 . S
C82 O89 1.240 . S
C82 O90 1.252 . S
C83 O86 1.252 . S
C83 O87 1.260 . S
O84 In78 2.266 . S
O84 C81 1.252 . S
O85 In78 2.326 . S
O85 C81 1.260 . S
O86 In78 2.266 . S
O86 C83 1.252 . S
O87 In78 2.326 . S
O87 C83 1.260 . S
C88 O79 1.240 . S
C88 O80 1.252 . S
O89 In78 2.294 . S
O89 C82 1.240 . S
O90 In78 2.326 . S
O90 C82 1.252 . S
In91 O92 2.294 . S
In91 O93 2.326 . S
In91 O97 2.266 . S
In91 O98 2.326 . S
In91 O99 2.266 . S
In91 O100 2.326 . S
In91 O102 2.294 . S
In91 O103 2.326 . S
O92 In91 2.294 . S
O92 C101 1.240 . S
O93 In91 2.326 . S
O93 C101 1.252 . S
C94 O97 1.252 . S
C94 O98 1.260 . S
C95 O102 1.240 . S
C95 O103 1.252 . S
C96 O99 1.252 . S
C96 O100 1.260 . S
O97 In91 2.266 . S
O97 C94 1.252 . S
O98 In91 2.326 . S
O98 C94 1.260 . S
O99 In91 2.266 . S
O99 C96 1.252 . S
O100 In91 2.326 . S
O100 C96 1.260 . S
C101 O92 1.240 . S
C101 O93 1.252 . S
O102 In91 2.294 . S
O102 C95 1.240 . S
O103 In91 2.326 . S
O103 C95 1.252 . S
In104 O105 2.294 . S
In104 O106 2.326 . S
In104 O110 2.266 . S
In104 O111 2.326 . S
In104 O112 2.266 . S
In104 O113 2.326 . S
In104 O115 2.294 . S
In104 O116 2.326 . S
O105 In104 2.294 . S
O105 C114 1.240 . S
O106 In104 2.326 . S
O106 C114 1.252 . S
C107 O110 1.252 . S
C107 O111 1.260 . S
C108 O115 1.240 . S
C108 O116 1.252 . S
C109 O112 1.252 . S
C109 O113 1.260 . S
O110 In104 2.266 . S
O110 C107 1.252 . S
O111 In104 2.326 . S
O111 C107 1.260 . S
O112 In104 2.266 . S
O112 C109 1.252 . S
O113 In104 2.326 . S
O113 C109 1.260 . S
C114 O105 1.240 . S
C114 O106 1.252 . S
O115 In104 2.294 . S
O115 C108 1.240 . S
O116 In104 2.326 . S
O116 C108 1.252 . S
In117 O118 2.294 . S
In117 O119 2.326 . S
In117 O123 2.266 . S
In117 O124 2.326 . S
In117 O125 2.266 . S
In117 O126 2.326 . S
In117 O128 2.294 . S
In117 O129 2.326 . S
O118 In117 2.294 . S
O118 C127 1.240 . S
O119 In117 2.326 . S
O119 C127 1.252 . S
C120 O123 1.252 . S
C120 O124 1.260 . S
C121 O128 1.240 . S
C121 O129 1.252 . S
C122 O125 1.252 . S
C122 O126 1.260 . S
O123 In117 2.266 . S
O123 C120 1.252 . S
O124 In117 2.326 . S
O124 C120 1.260 . S
O125 In117 2.266 . S
O125 C122 1.252 . S
O126 In117 2.326 . S
O126 C122 1.260 . S
C127 O118 1.240 . S
C127 O119 1.252 . S
O128 In117 2.294 . S
O128 C121 1.240 . S
O129 In117 2.326 . S
O129 C121 1.252 . S
In130 O131 2.294 . S
In130 O132 2.326 . S
In130 O136 2.266 . S
In130 O137 2.326 . S
In130 O138 2.266 . S
In130 O139 2.326 . S
In130 O141 2.294 . S
In130 O142 2.326 . S
O131 In130 2.294 . S
O131 C140 1.240 . S
O132 In130 2.326 . S
O132 C140 1.252 . S
C133 O136 1.252 . S
C133 O137 1.260 . S
C134 O141 1.240 . S
C134 O142 1.252 . S
C135 O138 1.252 . S
C135 O139 1.260 . S
O136 In130 2.266 . S
O136 C133 1.252 . S
O137 In130 2.326 . S
O137 C133 1.260 . S
O138 In130 2.266 . S
O138 C135 1.252 . S
O139 In130 2.326 . S
O139 C135 1.260 . S
C140 O131 1.240 . S
C140 O132 1.252 . S
O141 In130 2.294 . S
O141 C134 1.240 . S
O142 In130 2.326 . S
O142 C134 1.252 . S
In143 O144 2.294 . S
In143 O145 2.326 . S
In143 O149 2.266 . S
In143 O150 2.326 . S
In143 O151 2.266 . S
In143 O152 2.326 . S
In143 O154 2.294 . S
In143 O155 2.326 . S
O144 In143 2.294 . S
O144 C153 1.240 . S
O145 In143 2.326 . S
O145 C153 1.252 . S
C146 O149 1.252 . S
C146 O150 1.260 . S
C147 O154 1.240 . S
C147 O155 1.252 . S
C148 O151 1.252 . S
C148 O152 1.260 . S
O149 In143 2.266 . S
O149 C146 1.252 . S
O150 In143 2.326 . S
O150 C146 1.260 . S
O151 In143 2.266 . S
O151 C148 1.252 . S
O152 In143 2.326 . S
O152 C148 1.260 . S
C153 O144 1.240 . S
C153 O145 1.252 . S
O154 In143 2.294 . S
O154 C147 1.240 . S
O155 In143 2.326 . S
O155 C147 1.252 . S
In156 O157 2.294 . S
In156 O158 2.326 . S
In156 O162 2.266 . S
In156 O163 2.326 . S
In156 O164 2.266 . S
In156 O165 2.326 . S
In156 O167 2.294 . S
In156 O168 2.326 . S
O157 In156 2.294 . S
O157 C166 1.240 . S
O158 In156 2.326 . S
O158 C166 1.252 . S
C159 O162 1.252 . S
C159 O163 1.260 . S
C160 O167 1.240 . S
C160 O168 1.252 . S
C161 O164 1.252 . S
C161 O165 1.260 . S
O162 In156 2.266 . S
O162 C159 1.252 . S
O163 In156 2.326 . S
O163 C159 1.260 . S
O164 In156 2.266 . S
O164 C161 1.252 . S
O165 In156 2.326 . S
O165 C161 1.260 . S
C166 O157 1.240 . S
C166 O158 1.252 . S
O167 In156 2.294 . S
O167 C160 1.240 . S
O168 In156 2.326 . S
O168 C160 1.252 . S
In169 O170 2.294 . S
In169 O171 2.326 . S
In169 O175 2.266 . S
In169 O176 2.326 . S
In169 O177 2.266 . S
In169 O178 2.326 . S
In169 O180 2.294 . S
In169 O181 2.326 . S
O170 In169 2.294 . S
O170 C179 1.240 . S
O171 In169 2.326 . S
O171 C179 1.252 . S
C172 O175 1.252 . S
C172 O176 1.260 . S
C173 O180 1.240 . S
C173 O181 1.252 . S
C174 O177 1.252 . S
C174 O178 1.260 . S
O175 In169 2.266 . S
O175 C172 1.252 . S
O176 In169 2.326 . S
O176 C172 1.260 . S
O177 In169 2.266 . S
O177 C174 1.252 . S
O178 In169 2.326 . S
O178 C174 1.260 . S
C179 O170 1.240 . S
C179 O171 1.252 . S
O180 In169 2.294 . S
O180 C173 1.240 . S
O181 In169 2.326 . S
O181 C173 1.252 . S
In182 O183 2.294 . S
In182 O184 2.326 . S
In182 O188 2.266 . S
In182 O189 2.326 . S
In182 O190 2.266 . S
In182 O191 2.326 . S
In182 O193 2.294 . S
In182 O194 2.326 . S
O183 In182 2.294 . S
O183 C192 1.240 . S
O184 In182 2.326 . S
O184 C192 1.252 . S
C185 O188 1.252 . S
C185 O189 1.260 . S
C186 O193 1.240 . S
C186 O194 1.252 . S
C187 O190 1.252 . S
C187 O191 1.260 . S
O188 In182 2.266 . S
O188 C185 1.252 . S
O189 In182 2.326 . S
O189 C185 1.260 . S
O190 In182 2.266 . S
O190 C187 1.252 . S
O191 In182 2.326 . S
O191 C187 1.260 . S
C192 O183 1.240 . S
C192 O184 1.252 . S
O193 In182 2.294 . S
O193 C186 1.240 . S
O194 In182 2.326 . S
O194 C186 1.252 . S
In195 O196 2.294 . S
In195 O197 2.326 . S
In195 O201 2.266 . S
In195 O202 2.326 . S
In195 O203 2.266 . S
In195 O204 2.326 . S
In195 O206 2.294 . S
In195 O207 2.326 . S
O196 In195 2.294 . S
O196 C205 1.240 . S
O197 In195 2.326 . S
O197 C205 1.252 . S
C198 O201 1.252 . S
C198 O202 1.260 . S
C199 O206 1.240 . S
C199 O207 1.252 . S
C200 O203 1.252 . S
C200 O204 1.260 . S
O201 In195 2.266 . S
O201 C198 1.252 . S
O202 In195 2.326 . S
O202 C198 1.260 . S
O203 In195 2.266 . S
O203 C200 1.252 . S
O204 In195 2.326 . S
O204 C200 1.260 . S
C205 O196 1.240 . S
C205 O197 1.252 . S
O206 In195 2.294 . S
O206 C199 1.240 . S
O207 In195 2.326 . S
O207 C199 1.252 . S
In208 O209 2.294 . S
In208 O210 2.326 . S
In208 O214 2.266 . S
In208 O215 2.326 . S
In208 O216 2.266 . S
In208 O217 2.326 . S
In208 O219 2.294 . S
In208 O220 2.326 . S
O209 In208 2.294 . S
O209 C218 1.240 . S
O210 In208 2.326 . S
O210 C218 1.252 . S
C211 O214 1.252 . S
C211 O215 1.260 . S
C212 O219 1.240 . S
C212 O220 1.252 . S
C213 O216 1.252 . S
C213 O217 1.260 . S
O214 In208 2.266 . S
O214 C211 1.252 . S
O215 In208 2.326 . S
O215 C211 1.260 . S
O216 In208 2.266 . S
O216 C213 1.252 . S
O217 In208 2.326 . S
O217 C213 1.260 . S
C218 O209 1.240 . S
C218 O210 1.252 . S
O219 In208 2.294 . S
O219 C212 1.240 . S
O220 In208 2.326 . S
O220 C212 1.252 . S
In221 O222 2.294 . S
In221 O223 2.326 . S
In221 O227 2.266 . S
In221 O228 2.326 . S
In221 O229 2.266 . S
In221 O230 2.326 . S
In221 O232 2.294 . S
In221 O233 2.326 . S
O222 In221 2.294 . S
O222 C231 1.240 . S
O223 In221 2.326 . S
O223 C231 1.252 . S
C224 O227 1.252 . S
C224 O228 1.260 . S
C225 O232 1.240 . S
C225 O233 1.252 . S
C226 O229 1.252 . S
C226 O230 1.260 . S
O227 In221 2.266 . S
O227 C224 1.252 . S
O228 In221 2.326 . S
O228 C224 1.260 . S
O229 In221 2.266 . S
O229 C226 1.252 . S
O230 In221 2.326 . S
O230 C226 1.260 . S
C231 O222 1.240 . S
C231 O223 1.252 . S
O232 In221 2.294 . S
O232 C225 1.240 . S
O233 In221 2.326 . S
O233 C225 1.252 . S
In234 O235 2.294 . S
In234 O236 2.326 . S
In234 O240 2.266 . S
In234 O241 2.326 . S
In234 O242 2.266 . S
In234 O243 2.326 . S
In234 O245 2.294 . S
In234 O246 2.326 . S
O235 In234 2.294 . S
O235 C244 1.240 . S
O236 In234 2.326 . S
O236 C244 1.252 . S
C237 O240 1.252 . S
C237 O241 1.260 . S
C238 O245 1.240 . S
C238 O246 1.252 . S
C239 O242 1.252 . S
C239 O243 1.260 . S
O240 In234 2.266 . S
O240 C237 1.252 . S
O241 In234 2.326 . S
O241 C237 1.260 . S
O242 In234 2.266 . S
O242 C239 1.252 . S
O243 In234 2.326 . S
O243 C239 1.260 . S
C244 O235 1.240 . S
C244 O236 1.252 . S
O245 In234 2.294 . S
O245 C238 1.240 . S
O246 In234 2.326 . S
O246 C238 1.252 . S
In247 O248 2.294 . S
In247 O249 2.326 . S
In247 O253 2.266 . S
In247 O254 2.326 . S
In247 O255 2.266 . S
In247 O256 2.326 . S
In247 O258 2.294 . S
In247 O259 2.326 . S
O248 In247 2.294 . S
O248 C257 1.240 . S
O249 In247 2.326 . S
O249 C257 1.252 . S
C250 O253 1.252 . S
C250 O254 1.260 . S
C251 O258 1.240 . S
C251 O259 1.252 . S
C252 O255 1.252 . S
C252 O256 1.260 . S
O253 In247 2.266 . S
O253 C250 1.252 . S
O254 In247 2.326 . S
O254 C250 1.260 . S
O255 In247 2.266 . S
O255 C252 1.252 . S
O256 In247 2.326 . S
O256 C252 1.260 . S
C257 O248 1.240 . S
C257 O249 1.252 . S
O258 In247 2.294 . S
O258 C251 1.240 . S
O259 In247 2.326 . S
O259 C251 1.252 . S
In260 O261 2.294 . S
In260 O262 2.326 . S
In260 O266 2.266 . S
In260 O267 2.326 . S
In260 O268 2.266 . S
In260 O269 2.326 . S
In260 O271 2.294 . S
In260 O272 2.326 . S
O261 In260 2.294 . S
O261 C270 1.240 . S
O262 In260 2.326 . S
O262 C270 1.252 . S
C263 O266 1.252 . S
C263 O267 1.260 . S
C264 O271 1.240 . S
C264 O272 1.252 . S
C265 O268 1.252 . S
C265 O269 1.260 . S
O266 In260 2.266 . S
O266 C263 1.252 . S
O267 In260 2.326 . S
O267 C263 1.260 . S
O268 In260 2.266 . S
O268 C265 1.252 . S
O269 In260 2.326 . S
O269 C265 1.260 . S
C270 O261 1.240 . S
C270 O262 1.252 . S
O271 In260 2.294 . S
O271 C264 1.240 . S
O272 In260 2.326 . S
O272 C264 1.252 . S
In273 O274 2.294 . S
In273 O275 2.326 . S
In273 O279 2.266 . S
In273 O280 2.326 . S
In273 O281 2.266 . S
In273 O282 2.326 . S
In273 O284 2.294 . S
In273 O285 2.326 . S
O274 In273 2.294 . S
O274 C283 1.240 . S
O275 In273 2.326 . S
O275 C283 1.252 . S
C276 O279 1.252 . S
C276 O280 1.260 . S
C277 O284 1.240 . S
C277 O285 1.252 . S
C278 O281 1.252 . S
C278 O282 1.260 . S
O279 In273 2.266 . S
O279 C276 1.252 . S
O280 In273 2.326 . S
O280 C276 1.260 . S
O281 In273 2.266 . S
O281 C278 1.252 . S
O282 In273 2.326 . S
O282 C278 1.260 . S
C283 O274 1.240 . S
C283 O275 1.252 . S
O284 In273 2.294 . S
O284 C277 1.240 . S
O285 In273 2.326 . S
O285 C277 1.252 . S
In286 O287 2.294 . S
In286 O288 2.326 . S
In286 O292 2.266 . S
In286 O293 2.326 . S
In286 O294 2.266 . S
In286 O295 2.326 . S
In286 O297 2.294 . S
In286 O298 2.326 . S
O287 In286 2.294 . S
O287 C296 1.240 . S
O288 In286 2.326 . S
O288 C296 1.252 . S
C289 O292 1.252 . S
C289 O293 1.260 . S
C290 O297 1.240 . S
C290 O298 1.252 . S
C291 O294 1.252 . S
C291 O295 1.260 . S
O292 In286 2.266 . S
O292 C289 1.252 . S
O293 In286 2.326 . S
O293 C289 1.260 . S
O294 In286 2.266 . S
O294 C291 1.252 . S
O295 In286 2.326 . S
O295 C291 1.260 . S
C296 O287 1.240 . S
C296 O288 1.252 . S
O297 In286 2.294 . S
O297 C290 1.240 . S
O298 In286 2.326 . S
O298 C290 1.252 . S
In299 O300 2.294 . S
In299 O301 2.326 . S
In299 O305 2.266 . S
In299 O306 2.326 . S
In299 O307 2.266 . S
In299 O308 2.326 . S
In299 O310 2.294 . S
In299 O311 2.326 . S
O300 In299 2.294 . S
O300 C309 1.240 . S
O301 In299 2.326 . S
O301 C309 1.252 . S
C302 O305 1.252 . S
C302 O306 1.260 . S
C303 O310 1.240 . S
C303 O311 1.252 . S
C304 O307 1.252 . S
C304 O308 1.260 . S
O305 In299 2.266 . S
O305 C302 1.252 . S
O306 In299 2.326 . S
O306 C302 1.260 . S
O307 In299 2.266 . S
O307 C304 1.252 . S
O308 In299 2.326 . S
O308 C304 1.260 . S
C309 O300 1.240 . S
C309 O301 1.252 . S
O310 In299 2.294 . S
O310 C303 1.240 . S
O311 In299 2.326 . S
O311 C303 1.252 . S
H312 C330 0.951 . S
H313 C332 0.951 . S
H314 C334 0.950 . S
H315 C335 0.950 . S
H316 C337 0.950 . S
H317 C340 0.950 . S
H318 C341 0.950 . S
H319 C343 0.950 . S
H320 C344 0.950 . S
H321 C345 0.951 . S
H322 C347 0.951 . S
H323 C349 0.950 . S
H324 C350 0.950 . S
H325 C352 0.950 . S
H326 C355 0.950 . S
H327 C356 0.950 . S
H328 C358 0.950 . S
H329 C359 0.950 . S
C330 H312 0.951 . S
C330 C331 1.366 . S
C330 C332 1.388 . S
C331 C330 1.366 . S
C331 C335 1.385 . S
C332 H313 0.951 . S
C332 C330 1.388 . S
C332 C333 1.366 . S
C333 C332 1.366 . S
C333 C334 1.414 . S
C333 C336 1.499 . S
C334 H314 0.950 . S
C334 C333 1.414 . S
C334 C335 1.374 . S
C335 H315 0.950 . S
C335 C331 1.385 . S
C335 C334 1.374 . S
C336 C333 1.499 . S
C336 C337 1.373 . S
C336 C338 1.389 . S
C337 H316 0.950 . S
C337 C336 1.373 . S
C337 C353 1.377 . S
C338 C336 1.389 . S
C338 C339 1.524 . S
C338 C352 1.377 . S
C339 C338 1.524 . S
C339 C340 1.397 . S
C339 C344 1.363 . S
C340 H317 0.950 . S
C340 C339 1.397 . S
C340 C341 1.334 . S
C341 H318 0.950 . S
C341 C340 1.334 . S
C341 C342 1.287 . S
C342 C341 1.287 . S
C342 C343 1.524 . S
C342 H361 0.913 . S
C343 H319 0.950 . S
C343 C342 1.524 . S
C343 C344 1.415 . S
C344 H320 0.950 . S
C344 C339 1.363 . S
C344 C343 1.415 . S
C345 H321 0.951 . S
C345 C346 1.366 . S
C345 C347 1.388 . S
C346 C345 1.366 . S
C346 C350 1.385 . S
C347 H322 0.951 . S
C347 C345 1.388 . S
C347 C348 1.366 . S
C348 C347 1.366 . S
C348 C349 1.414 . S
C348 C351 1.499 . S
C349 H323 0.950 . S
C349 C348 1.414 . S
C349 C350 1.374 . S
C350 H324 0.950 . S
C350 C346 1.385 . S
C350 C349 1.374 . S
C351 C348 1.499 . S
C351 C352 1.373 . S
C351 C353 1.389 . S
C352 H325 0.950 . S
C352 C338 1.377 . S
C352 C351 1.373 . S
C353 C337 1.377 . S
C353 C351 1.389 . S
C353 C354 1.524 . S
C354 C353 1.524 . S
C354 C355 1.397 . S
C354 C359 1.363 . S
C355 H326 0.950 . S
C355 C354 1.397 . S
C355 C356 1.334 . S
C356 H327 0.950 . S
C356 C355 1.334 . S
C356 C357 1.287 . S
C357 C356 1.287 . S
C357 C358 1.524 . S
C357 H360 0.999 . S
C358 H328 0.950 . S
C358 C357 1.524 . S
C358 C359 1.415 . S
C359 H329 0.950 . S
C359 C354 1.363 . S
C359 C358 1.415 . S
H360 C357 0.999 . S
H361 C342 0.913 . S
H362 C380 0.951 . S
H363 C382 0.951 . S
H364 C384 0.950 1_455 S
H365 C385 0.950 . S
H366 C387 0.950 . S
H367 C390 0.950 . S
H368 C391 0.950 . S
H369 C393 0.950 . S
H370 C394 0.950 . S
H371 C395 0.951 . S
H372 C397 0.951 . S
H373 C399 0.950 . S
H374 C400 0.950 . S
H375 C402 0.950 . S
H376 C405 0.950 . S
H377 C406 0.950 . S
H378 C408 0.950 . S
H379 C409 0.950 . S
C380 H362 0.951 . S
C380 C381 1.366 . S
C380 C382 1.388 . S
C381 C380 1.366 . S
C381 C385 1.385 . S
C382 H363 0.951 . S
C382 C380 1.388 . S
C382 C383 1.366 . S
C383 C382 1.366 . S
C383 C384 1.414 . S
C383 C386 1.499 1_655 S
C384 H364 0.950 1_655 S
C384 C383 1.414 . S
C384 C385 1.374 . S
C385 H365 0.950 . S
C385 C381 1.385 . S
C385 C384 1.374 . S
C386 C383 1.499 1_455 S
C386 C387 1.373 . S
C386 C388 1.389 . S
C387 H366 0.950 . S
C387 C386 1.373 . S
C387 C403 1.377 . S
C388 C386 1.389 . S
C388 C389 1.524 . S
C388 C402 1.377 . S
C389 C388 1.524 . S
C389 C390 1.397 . S
C389 C394 1.363 . S
C390 H367 0.950 . S
C390 C389 1.397 . S
C390 C391 1.334 . S
C391 H368 0.950 . S
C391 C390 1.334 . S
C391 C392 1.287 . S
C392 C391 1.287 . S
C392 C393 1.524 . S
C392 H411 0.913 . S
C393 H369 0.950 . S
C393 C392 1.524 . S
C393 C394 1.415 . S
C394 H370 0.950 . S
C394 C389 1.363 . S
C394 C393 1.415 . S
C395 H371 0.951 . S
C395 C396 1.366 . S
C395 C397 1.388 . S
C396 C395 1.366 . S
C396 C400 1.385 . S
C397 H372 0.951 . S
C397 C395 1.388 . S
C397 C398 1.366 . S
C398 C397 1.366 . S
C398 C399 1.414 . S
C398 C401 1.499 . S
C399 H373 0.950 . S
C399 C398 1.414 . S
C399 C400 1.374 . S
C400 H374 0.950 . S
C400 C396 1.385 . S
C400 C399 1.374 . S
C401 C398 1.499 . S
C401 C402 1.373 . S
C401 C403 1.389 . S
C402 H375 0.950 . S
C402 C388 1.377 . S
C402 C401 1.373 . S
C403 C387 1.377 . S
C403 C401 1.389 . S
C403 C404 1.524 . S
C404 C403 1.524 . S
C404 C405 1.397 . S
C404 C409 1.363 . S
C405 H376 0.950 . S
C405 C404 1.397 . S
C405 C406 1.334 . S
C406 H377 0.950 . S
C406 C405 1.334 . S
C406 C407 1.287 . S
C407 C406 1.287 . S
C407 C408 1.524 . S
C407 H410 0.999 . S
C408 H378 0.950 . S
C408 C407 1.524 . S
C408 C409 1.415 . S
C409 H379 0.950 . S
C409 C404 1.363 . S
C409 C408 1.415 . S
H410 C407 0.999 . S
H411 C392 0.913 . S
H412 C430 0.951 . S
H413 C432 0.951 . S
H414 C434 0.950 . S
H415 C435 0.950 . S
H416 C437 0.950 . S
H417 C440 0.950 . S
H418 C441 0.950 . S
H419 C443 0.950 . S
H420 C444 0.950 . S
H421 C445 0.951 . S
H422 C447 0.930 1_556 S
H423 C449 0.950 . S
H424 C450 0.950 . S
H425 C452 0.950 1_554 S
H426 C455 0.950 . S
H427 C456 0.950 . S
H428 C458 0.950 . S
H429 C459 0.950 . S
C430 H412 0.951 . S
C430 C431 1.366 . S
C430 C432 1.388 . S
C431 C430 1.366 . S
C431 C435 1.385 . S
C432 H413 0.951 . S
C432 C430 1.388 . S
C432 C433 1.366 . S
C433 C432 1.366 . S
C433 C434 1.414 . S
C433 C436 1.499 . S
C434 H414 0.950 . S
C434 C433 1.414 . S
C434 C435 1.374 . S
C435 H415 0.950 . S
C435 C431 1.385 . S
C435 C434 1.374 . S
C436 C433 1.499 . S
C436 C437 1.373 . S
C436 C438 1.389 . S
C437 H416 0.950 . S
C437 C436 1.373 . S
C437 C453 1.377 . S
C438 C436 1.389 . S
C438 C439 1.524 . S
C438 C452 1.377 . S
C439 C438 1.524 . S
C439 C440 1.397 . S
C439 C444 1.363 1_556 S
C440 H417 0.950 . S
C440 C439 1.397 . S
C440 C441 1.334 . S
C441 H418 0.950 . S
C441 C440 1.334 . S
C441 C442 1.287 1_556 S
C442 C441 1.287 1_554 S
C442 C443 1.524 . S
C442 H461 0.913 . S
C443 H419 0.950 . S
C443 C442 1.524 . S
C443 C444 1.415 . S
C444 H420 0.950 . S
C444 C439 1.363 1_554 S
C444 C443 1.415 . S
C445 H421 0.951 . S
C445 C446 1.366 . S
C445 C447 1.404 . S
C446 C445 1.366 . S
C446 C450 1.385 . S
C447 H422 0.930 1_554 S
C447 C445 1.404 . S
C447 C448 1.370 . S
C448 C447 1.370 . S
C448 C449 1.414 . S
C448 C451 1.499 1_554 S
C449 H423 0.950 . S
C449 C448 1.414 . S
C449 C450 1.374 . S
C450 H424 0.950 . S
C450 C446 1.385 . S
C450 C449 1.374 . S
C451 C448 1.499 1_556 S
C451 C452 1.373 . S
C451 C453 1.389 . S
C452 H425 0.950 1_556 S
C452 C438 1.377 . S
C452 C451 1.373 . S
C453 C437 1.377 . S
C453 C451 1.389 . S
C453 C454 1.524 . S
C454 C453 1.524 . S
C454 C455 1.397 . S
C454 C459 1.363 . S
C455 H426 0.950 . S
C455 C454 1.397 . S
C455 C456 1.334 . S
C456 H427 0.950 . S
C456 C455 1.334 . S
C456 C457 1.287 . S
C457 C456 1.287 . S
C457 C458 1.524 . S
C457 H460 0.999 . S
C458 H428 0.950 . S
C458 C457 1.524 . S
C458 C459 1.415 . S
C459 H429 0.950 . S
C459 C454 1.363 . S
C459 C458 1.415 . S
H460 C457 0.999 . S
H461 C442 0.913 . S
H462 C480 0.951 . S
H463 C482 0.951 . S
H464 C484 0.950 . S
H465 C485 0.950 . S
H466 C487 0.950 . S
H467 C490 0.950 . S
H468 C491 0.950 . S
H469 C493 0.950 . S
H470 C494 0.950 . S
H471 C495 0.951 . S
H472 C497 0.951 . S
H473 C499 0.950 . S
H474 C500 0.950 . S
H475 C502 0.950 . S
H476 C505 0.950 . S
H477 C506 0.950 . S
H478 C508 0.950 . S
H479 C509 0.950 . S
C480 H462 0.951 . S
C480 C481 1.366 . S
C480 C482 1.388 . S
C481 C480 1.366 . S
C481 C485 1.385 . S
C482 H463 0.951 . S
C482 C480 1.388 . S
C482 C483 1.366 . S
C483 C482 1.366 . S
C483 C484 1.414 . S
C483 C486 1.499 . S
C484 H464 0.950 . S
C484 C483 1.414 . S
C484 C485 1.374 . S
C485 H465 0.950 . S
C485 C481 1.385 . S
C485 C484 1.374 . S
C486 C483 1.499 . S
C486 C487 1.373 . S
C486 C488 1.389 . S
C487 H466 0.950 . S
C487 C486 1.373 . S
C487 C503 1.377 . S
C488 C486 1.389 . S
C488 C489 1.524 . S
C488 C502 1.377 . S
C489 C488 1.524 . S
C489 C490 1.397 . S
C489 C494 1.363 . S
C490 H467 0.950 . S
C490 C489 1.397 . S
C490 C491 1.334 . S
C491 H468 0.950 . S
C491 C490 1.334 . S
C491 C492 1.287 . S
C492 C491 1.287 . S
C492 C493 1.524 . S
C492 H511 0.913 . S
C493 H469 0.950 . S
C493 C492 1.524 . S
C493 C494 1.415 . S
C494 H470 0.950 . S
C494 C489 1.363 . S
C494 C493 1.415 . S
C495 H471 0.951 . S
C495 C496 1.366 . S
C495 C497 1.388 . S
C496 C495 1.366 . S
C496 C500 1.385 . S
C497 H472 0.951 . S
C497 C495 1.388 . S
C497 C498 1.366 . S
C498 C497 1.366 . S
C498 C499 1.414 . S
C498 C501 1.499 . S
C499 H473 0.950 . S
C499 C498 1.414 . S
C499 C500 1.374 . S
C500 H474 0.950 . S
C500 C496 1.385 . S
C500 C499 1.374 . S
C501 C498 1.499 . S
C501 C502 1.373 . S
C501 C503 1.389 . S
C502 H475 0.950 . S
C502 C488 1.377 . S
C502 C501 1.373 . S
C503 C487 1.377 . S
C503 C501 1.389 . S
C503 C504 1.524 . S
C504 C503 1.524 . S
C504 C505 1.397 . S
C504 C509 1.363 . S
C505 H476 0.950 . S
C505 C504 1.397 . S
C505 C506 1.334 . S
C506 H477 0.950 . S
C506 C505 1.334 . S
C506 C507 1.287 . S
C507 C506 1.287 . S
C507 C508 1.524 . S
C507 H510 0.999 . S
C508 H478 0.950 . S
C508 C507 1.524 . S
C508 C509 1.415 . S
C509 H479 0.950 . S
C509 C504 1.363 . S
C509 C508 1.415 . S
H510 C507 0.999 . S
H511 C492 0.913 . S
H512 C530 0.951 . S
H513 C532 0.951 . S
H514 C534 0.950 . S
H515 C535 0.950 . S
H516 C537 0.950 . S
H517 C540 0.950 . S
H518 C541 0.950 . S
H519 C543 0.950 . S
H520 C544 0.950 . S
H521 C545 0.951 . S
H522 C547 0.951 . S
H523 C549 0.950 . S
H524 C550 0.950 . S
H525 C552 0.950 . S
H526 C555 0.950 . S
H527 C556 0.950 . S
H528 C558 0.950 . S
H529 C559 0.950 . S
C530 H512 0.951 . S
C530 C531 1.366 . S
C530 C532 1.388 . S
C531 C530 1.366 . S
C531 C535 1.385 . S
C532 H513 0.951 . S
C532 C530 1.388 . S
C532 C533 1.366 . S
C533 C532 1.366 . S
C533 C534 1.414 . S
C533 C536 1.499 . S
C534 H514 0.950 . S
C534 C533 1.414 . S
C534 C535 1.374 . S
C535 H515 0.950 . S
C535 C531 1.385 . S
C535 C534 1.374 . S
C536 C533 1.499 . S
C536 C537 1.373 . S
C536 C538 1.389 . S
C537 H516 0.950 . S
C537 C536 1.373 . S
C537 C553 1.377 . S
C538 C536 1.389 . S
C538 C539 1.524 . S
C538 C552 1.377 . S
C539 C538 1.524 . S
C539 C540 1.397 . S
C539 C544 1.363 . S
C540 H517 0.950 . S
C540 C539 1.397 . S
C540 C541 1.334 . S
C541 H518 0.950 . S
C541 C540 1.334 . S
C541 C542 1.287 . S
C542 C541 1.287 . S
C542 C543 1.524 . S
C542 H561 0.913 . S
C543 H519 0.950 . S
C543 C542 1.524 . S
C543 C544 1.415 . S
C544 H520 0.950 . S
C544 C539 1.363 . S
C544 C543 1.415 . S
C545 H521 0.951 . S
C545 C546 1.366 . S
C545 C547 1.388 . S
C546 C545 1.366 . S
C546 C550 1.385 . S
C547 H522 0.951 . S
C547 C545 1.388 . S
C547 C548 1.366 . S
C548 C547 1.366 . S
C548 C549 1.414 . S
C548 C551 1.499 . S
C549 H523 0.950 . S
C549 C548 1.414 . S
C549 C550 1.374 . S
C550 H524 0.950 . S
C550 C546 1.385 . S
C550 C549 1.374 . S
C551 C548 1.499 . S
C551 C552 1.373 . S
C551 C553 1.389 . S
C552 H525 0.950 . S
C552 C538 1.377 . S
C552 C551 1.373 . S
C553 C537 1.377 . S
C553 C551 1.389 . S
C553 C554 1.524 . S
C554 C553 1.524 . S
C554 C555 1.397 . S
C554 C559 1.363 . S
C555 H526 0.950 . S
C555 C554 1.397 . S
C555 C556 1.334 . S
C556 H527 0.950 . S
C556 C555 1.334 . S
C556 C557 1.287 . S
C557 C556 1.287 . S
C557 C558 1.524 . S
C557 H560 0.999 . S
C558 H528 0.950 . S
C558 C557 1.524 . S
C558 C559 1.415 . S
C559 H529 0.950 . S
C559 C554 1.363 . S
C559 C558 1.415 . S
H560 C557 0.999 . S
H561 C542 0.913 . S
H562 C580 0.951 . S
H563 C582 0.951 . S
H564 C584 0.950 . S
H565 C585 0.950 . S
H566 C587 0.950 . S
H567 C590 0.950 . S
H568 C591 0.950 . S
H569 C593 0.950 . S
H570 C594 0.950 . S
H571 C595 0.951 . S
H572 C597 0.951 . S
H573 C599 0.950 . S
H574 C600 0.950 . S
H575 C602 0.950 . S
H576 C605 0.950 . S
H577 C606 0.950 . S
H578 C608 0.950 . S
H579 C609 0.950 . S
C580 H562 0.951 . S
C580 C581 1.366 . S
C580 C582 1.388 . S
C581 C580 1.366 . S
C581 C585 1.385 . S
C582 H563 0.951 . S
C582 C580 1.388 . S
C582 C583 1.366 . S
C583 C582 1.366 . S
C583 C584 1.414 . S
C583 C586 1.499 . S
C584 H564 0.950 . S
C584 C583 1.414 . S
C584 C585 1.374 . S
C585 H565 0.950 . S
C585 C581 1.385 . S
C585 C584 1.374 . S
C586 C583 1.499 . S
C586 C587 1.373 . S
C586 C588 1.389 . S
C587 H566 0.950 . S
C587 C586 1.373 . S
C587 C603 1.377 . S
C588 C586 1.389 . S
C588 C589 1.524 . S
C588 C602 1.377 . S
C589 C588 1.524 . S
C589 C590 1.397 . S
C589 C594 1.363 . S
C590 H567 0.950 . S
C590 C589 1.397 . S
C590 C591 1.334 . S
C591 H568 0.950 . S
C591 C590 1.334 . S
C591 C592 1.287 . S
C592 C591 1.287 . S
C592 C593 1.524 . S
C592 H611 0.913 . S
C593 H569 0.950 . S
C593 C592 1.524 . S
C593 C594 1.415 . S
C594 H570 0.950 . S
C594 C589 1.363 . S
C594 C593 1.415 . S
C595 H571 0.951 . S
C595 C596 1.366 . S
C595 C597 1.388 . S
C596 C595 1.366 . S
C596 C600 1.385 . S
C597 H572 0.951 . S
C597 C595 1.388 . S
C597 C598 1.366 . S
C598 C597 1.366 . S
C598 C599 1.414 1_455 S
C598 C601 1.499 1_455 S
C599 H573 0.950 . S
C599 C598 1.414 1_655 S
C599 C600 1.374 1_655 S
C600 H574 0.950 . S
C600 C596 1.385 . S
C600 C599 1.374 1_455 S
C601 C598 1.499 1_655 S
C601 C602 1.373 . S
C601 C603 1.389 . S
C602 H575 0.950 . S
C602 C588 1.377 . S
C602 C601 1.373 . S
C603 C587 1.377 . S
C603 C601 1.389 . S
C603 C604 1.524 1_655 S
C604 C603 1.524 1_455 S
C604 C605 1.397 . S
C604 C609 1.363 . S
C605 H576 0.950 . S
C605 C604 1.397 . S
C605 C606 1.334 . S
C606 H577 0.950 . S
C606 C605 1.334 . S
C606 C607 1.287 . S
C607 C606 1.287 . S
C607 C608 1.524 . S
C607 H610 0.999 . S
C608 H578 0.950 . S
C608 C607 1.524 . S
C608 C609 1.415 . S
C609 H579 0.950 . S
C609 C604 1.363 . S
C609 C608 1.415 . S
H610 C607 0.999 . S
H611 C592 0.913 . S
H612 C630 0.951 . S
H613 C632 0.951 . S
H614 C634 0.950 . S
H615 C635 0.950 . S
H616 C637 0.950 . S
H617 C640 0.950 . S
H618 C641 0.950 . S
H619 C643 0.975 . S
H620 C644 0.950 1_556 S
H621 C645 0.951 . S
H622 C647 0.951 . S
H623 C649 0.950 . S
H624 C650 0.950 . S
H625 C652 0.950 1_556 S
H626 C655 0.946 . S
H627 C656 0.950 . S
H628 C658 0.950 . S
H629 C659 0.950 . S
C630 H612 0.951 . S
C630 C631 1.366 . S
C630 C632 1.388 . S
C631 C630 1.366 . S
C631 C635 1.385 . S
C632 H613 0.951 . S
C632 C630 1.388 . S
C632 C633 1.366 . S
C633 C632 1.366 . S
C633 C634 1.414 . S
C633 C636 1.499 . S
C634 H614 0.950 . S
C634 C633 1.414 . S
C634 C635 1.374 . S
C635 H615 0.950 . S
C635 C631 1.385 . S
C635 C634 1.374 . S
C636 C633 1.499 . S
C636 C637 1.373 . S
C636 C638 1.389 . S
C637 H616 0.950 . S
C637 C636 1.373 . S
C637 C653 1.377 . S
C638 C636 1.389 . S
C638 C639 1.524 . S
C638 C652 1.377 . S
C639 C638 1.524 . S
C639 C640 1.397 . S
C639 C644 1.363 . S
C640 H617 0.950 . S
C640 C639 1.397 . S
C640 C641 1.334 . S
C641 H618 0.950 . S
C641 C640 1.334 . S
C641 C642 1.287 . S
C642 C641 1.287 . S
C642 C643 1.499 1_554 S
C642 H661 0.913 . S
C643 H619 0.975 . S
C643 C642 1.499 1_556 S
C643 C644 1.412 1_556 S
C644 H620 0.950 1_554 S
C644 C639 1.363 . S
C644 C643 1.412 1_554 S
C645 H621 0.951 . S
C645 C646 1.366 . S
C645 C647 1.388 1_556 S
C646 C645 1.366 . S
C646 C650 1.385 . S
C647 H622 0.951 . S
C647 C645 1.388 1_554 S
C647 C648 1.366 1_554 S
C648 C647 1.366 1_556 S
C648 C649 1.414 . S
C648 C651 1.499 1_556 S
C649 H623 0.950 . S
C649 C648 1.414 . S
C649 C650 1.374 . S
C650 H624 0.950 . S
C650 C646 1.385 . S
C650 C649 1.374 . S
C651 C648 1.499 1_554 S
C651 C652 1.373 . S
C651 C653 1.389 . S
C652 H625 0.950 1_554 S
C652 C638 1.377 . S
C652 C651 1.373 . S
C653 C637 1.377 . S
C653 C651 1.389 . S
C653 C654 1.524 . S
C654 C653 1.524 . S
C654 C655 1.397 . S
C654 C659 1.363 . S
C655 H626 0.946 . S
C655 C654 1.397 . S
C655 C656 1.334 . S
C656 H627 0.950 . S
C656 C655 1.334 . S
C656 C657 1.287 . S
C657 C656 1.287 . S
C657 C658 1.524 . S
C657 H660 0.999 . S
C658 H628 0.950 . S
C658 C657 1.524 . S
C658 C659 1.415 . S
C659 H629 0.950 . S
C659 C654 1.363 . S
C659 C658 1.415 . S
H660 C657 0.999 . S
H661 C642 0.913 . S
H662 C680 0.951 . S
H663 C682 0.951 . S
H664 C684 0.950 . S
H665 C685 0.950 . S
H666 C687 0.950 . S
H667 C690 0.950 . S
H668 C691 0.950 . S
H669 C693 0.950 . S
H670 C694 0.950 . S
H671 C695 0.951 . S
H672 C697 0.951 . S
H673 C699 0.950 . S
H674 C700 0.950 . S
H675 C702 0.950 . S
H676 C705 0.950 . S
H677 C706 0.950 . S
H678 C708 0.950 . S
H679 C709 0.950 . S
C680 H662 0.951 . S
C680 C681 1.366 . S
C680 C682 1.388 . S
C681 C680 1.366 . S
C681 C685 1.385 . S
C682 H663 0.951 . S
C682 C680 1.388 . S
C682 C683 1.366 . S
C683 C682 1.366 . S
C683 C684 1.414 . S
C683 C686 1.499 . S
C684 H664 0.950 . S
C684 C683 1.414 . S
C684 C685 1.374 . S
C685 H665 0.950 . S
C685 C681 1.385 . S
C685 C684 1.374 . S
C686 C683 1.499 . S
C686 C687 1.373 . S
C686 C688 1.389 . S
C687 H666 0.950 . S
C687 C686 1.373 . S
C687 C703 1.377 . S
C688 C686 1.389 . S
C688 C689 1.524 . S
C688 C702 1.377 . S
C689 C688 1.524 . S
C689 C690 1.397 . S
C689 C694 1.363 . S
C690 H667 0.950 . S
C690 C689 1.397 . S
C690 C691 1.334 . S
C691 H668 0.950 . S
C691 C690 1.334 . S
C691 C692 1.287 . S
C692 C691 1.287 . S
C692 C693 1.524 . S
C692 H711 0.913 . S
C693 H669 0.950 . S
C693 C692 1.524 . S
C693 C694 1.415 . S
C694 H670 0.950 . S
C694 C689 1.363 . S
C694 C693 1.415 . S
C695 H671 0.951 . S
C695 C696 1.366 . S
C695 C697 1.388 . S
C696 C695 1.366 . S
C696 C700 1.385 . S
C697 H672 0.951 . S
C697 C695 1.388 . S
C697 C698 1.366 . S
C698 C697 1.366 . S
C698 C699 1.414 . S
C698 C701 1.499 . S
C699 H673 0.950 . S
C699 C698 1.414 . S
C699 C700 1.374 . S
C700 H674 0.950 . S
C700 C696 1.385 . S
C700 C699 1.374 . S
C701 C698 1.499 . S
C701 C702 1.373 . S
C701 C703 1.389 . S
C702 H675 0.950 . S
C702 C688 1.377 . S
C702 C701 1.373 . S
C703 C687 1.377 . S
C703 C701 1.389 . S
C703 C704 1.524 . S
C704 C703 1.524 . S
C704 C705 1.397 . S
C704 C709 1.363 . S
C705 H676 0.950 . S
C705 C704 1.397 . S
C705 C706 1.334 . S
C706 H677 0.950 . S
C706 C705 1.334 . S
C706 C707 1.287 . S
C707 C706 1.287 . S
C707 C708 1.524 . S
C707 H710 0.999 . S
C708 H678 0.950 . S
C708 C707 1.524 . S
C708 C709 1.415 . S
C709 H679 0.950 . S
C709 C704 1.363 . S
C709 C708 1.415 . S
H710 C707 0.999 . S
H711 C692 0.913 . S
H712 C730 0.951 . S
H713 C732 0.951 . S
H714 C734 0.950 . S
H715 C735 0.950 . S
H716 C737 0.950 . S
H717 C740 0.950 . S
H718 C741 0.950 . S
H719 C743 0.950 . S
H720 C744 0.950 . S
H721 C745 0.951 . S
H722 C747 0.951 . S
H723 C749 0.950 . S
H724 C750 0.950 . S
H725 C752 0.950 . S
H726 C755 0.950 . S
H727 C756 0.950 . S
H728 C758 0.950 . S
H729 C759 0.950 . S
C730 H712 0.951 . S
C730 C731 1.366 . S
C730 C732 1.388 . S
C731 C730 1.366 . S
C731 C735 1.385 . S
C732 H713 0.951 . S
C732 C730 1.388 . S
C732 C733 1.366 . S
C733 C732 1.366 . S
C733 C734 1.414 . S
C733 C736 1.499 . S
C734 H714 0.950 . S
C734 C733 1.414 . S
C734 C735 1.374 . S
C735 H715 0.950 . S
C735 C731 1.385 . S
C735 C734 1.374 . S
C736 C733 1.499 . S
C736 C737 1.373 . S
C736 C738 1.389 . S
C737 H716 0.950 . S
C737 C736 1.373 . S
C737 C753 1.377 . S
C738 C736 1.389 . S
C738 C739 1.524 . S
C738 C752 1.377 . S
C739 C738 1.524 . S
C739 C740 1.397 . S
C739 C744 1.363 . S
C740 H717 0.950 . S
C740 C739 1.397 . S
C740 C741 1.334 . S
C741 H718 0.950 . S
C741 C740 1.334 . S
C741 C742 1.287 . S
C742 C741 1.287 . S
C742 C743 1.524 . S
C742 H761 0.913 . S
C743 H719 0.950 . S
C743 C742 1.524 . S
C743 C744 1.415 . S
C744 H720 0.950 . S
C744 C739 1.363 . S
C744 C743 1.415 . S
C745 H721 0.951 . S
C745 C746 1.366 . S
C745 C747 1.388 . S
C746 C745 1.366 . S
C746 C750 1.385 . S
C747 H722 0.951 . S
C747 C745 1.388 . S
C747 C748 1.366 . S
C748 C747 1.366 . S
C748 C749 1.414 . S
C748 C751 1.499 . S
C749 H723 0.950 . S
C749 C748 1.414 . S
C749 C750 1.374 . S
C750 H724 0.950 . S
C750 C746 1.385 . S
C750 C749 1.374 . S
C751 C748 1.499 . S
C751 C752 1.373 . S
C751 C753 1.389 . S
C752 H725 0.950 . S
C752 C738 1.377 . S
C752 C751 1.373 . S
C753 C737 1.377 . S
C753 C751 1.389 . S
C753 C754 1.524 . S
C754 C753 1.524 . S
C754 C755 1.397 . S
C754 C759 1.363 . S
C755 H726 0.950 . S
C755 C754 1.397 . S
C755 C756 1.334 . S
C756 H727 0.950 . S
C756 C755 1.334 . S
C756 C757 1.287 . S
C757 C756 1.287 . S
C757 C758 1.524 . S
C757 H760 0.999 . S
C758 H728 0.950 . S
C758 C757 1.524 . S
C758 C759 1.415 . S
C759 H729 0.950 . S
C759 C754 1.363 . S
C759 C758 1.415 . S
H760 C757 0.999 . S
H761 C742 0.913 . S
H762 C780 0.951 . S
H763 C782 0.951 . S
H764 C784 0.950 . S
H765 C785 0.950 . S
H766 C787 0.944 1_565 S
H767 C790 0.950 1_565 S
H768 C791 0.950 1_565 S
H769 C793 0.950 . S
H770 C794 0.950 . S
H771 C795 0.951 . S
H772 C797 0.951 . S
H773 C799 0.950 . S
H774 C800 0.950 . S
H775 C802 0.950 . S
H776 C805 0.950 . S
H777 C806 0.950 . S
H778 C808 0.950 1_565 S
H779 C809 0.950 1_565 S
C780 H762 0.951 . S
C780 C781 1.366 . S
C780 C782 1.388 1_565 S
C781 C780 1.366 . S
C781 C785 1.385 . S
C782 H763 0.951 . S
C782 C780 1.388 1_545 S
C782 C783 1.366 1_545 S
C783 C782 1.366 1_565 S
C783 C784 1.414 . S
C783 C786 1.499 1_565 S
C784 H764 0.950 . S
C784 C783 1.414 . S
C784 C785 1.374 . S
C785 H765 0.950 . S
C785 C781 1.385 . S
C785 C784 1.374 . S
C786 C783 1.499 1_545 S
C786 C787 1.373 . S
C786 C788 1.389 . S
C787 H766 0.944 1_545 S
C787 C786 1.373 . S
C787 C803 1.377 . S
C788 C786 1.389 . S
C788 C789 1.524 . S
C788 C802 1.377 . S
C789 C788 1.524 . S
C789 C790 1.397 . S
C789 C794 1.363 . S
C790 H767 0.950 1_545 S
C790 C789 1.397 . S
C790 C791 1.334 . S
C791 H768 0.950 1_545 S
C791 C790 1.334 . S
C791 C792 1.287 . S
C792 C791 1.287 . S
C792 C793 1.524 . S
C792 H811 0.913 . S
C793 H769 0.950 . S
C793 C792 1.524 . S
C793 C794 1.415 . S
C794 H770 0.950 . S
C794 C789 1.363 . S
C794 C793 1.415 . S
C795 H771 0.951 . S
C795 C796 1.366 . S
C795 C797 1.388 . S
C796 C795 1.366 . S
C796 C800 1.385 . S
C797 H772 0.951 . S
C797 C795 1.388 . S
C797 C798 1.366 . S
C798 C797 1.366 . S
C798 C799 1.414 . S
C798 C801 1.499 . S
C799 H773 0.950 . S
C799 C798 1.414 . S
C799 C800 1.374 . S
C800 H774 0.950 . S
C800 C796 1.385 . S
C800 C799 1.374 . S
C801 C798 1.499 . S
C801 C802 1.373 . S
C801 C803 1.389 . S
C802 H775 0.950 . S
C802 C788 1.377 . S
C802 C801 1.373 . S
C803 C787 1.377 . S
C803 C801 1.389 . S
C803 C804 1.524 . S
C804 C803 1.524 . S
C804 C805 1.397 . S
C804 C809 1.363 . S
C805 H776 0.950 . S
C805 C804 1.397 . S
C805 C806 1.334 . S
C806 H777 0.950 . S
C806 C805 1.334 . S
C806 C807 1.287 . S
C807 C806 1.287 . S
C807 C808 1.524 . S
C807 H810 0.999 . S
C808 H778 0.950 1_545 S
C808 C807 1.524 . S
C808 C809 1.415 . S
C809 H779 0.950 1_545 S
C809 C804 1.363 . S
C809 C808 1.415 . S
H810 C807 0.999 . S
H811 C792 0.913 . S
H812 C830 0.951 . S
H813 C832 0.951 . S
H814 C834 0.950 . S
H815 C835 0.950 . S
H816 C837 0.950 . S
H817 C840 0.950 . S
H818 C841 0.950 . S
H819 C843 0.950 . S
H820 C844 0.950 . S
H821 C845 0.951 . S
H822 C847 0.951 . S
H823 C849 0.950 . S
H824 C850 0.950 . S
H825 C852 0.950 . S
H826 C855 0.950 . S
H827 C856 0.950 . S
H828 C858 0.950 . S
H829 C859 0.950 1_565 S
C830 H812 0.951 . S
C830 C831 1.366 . S
C830 C832 1.388 . S
C831 C830 1.366 . S
C831 C835 1.385 . S
C832 H813 0.951 . S
C832 C830 1.388 . S
C832 C833 1.366 . S
C833 C832 1.366 . S
C833 C834 1.414 . S
C833 C836 1.499 . S
C834 H814 0.950 . S
C834 C833 1.414 . S
C834 C835 1.374 . S
C835 H815 0.950 . S
C835 C831 1.385 . S
C835 C834 1.374 . S
C836 C833 1.499 . S
C836 C837 1.373 . S
C836 C838 1.389 . S
C837 H816 0.950 . S
C837 C836 1.373 . S
C837 C853 1.377 . S
C838 C836 1.389 . S
C838 C839 1.524 . S
C838 C852 1.377 . S
C839 C838 1.524 . S
C839 C840 1.397 . S
C839 C844 1.363 . S
C840 H817 0.950 . S
C840 C839 1.397 . S
C840 C841 1.334 . S
C841 H818 0.950 . S
C841 C840 1.334 . S
C841 C842 1.287 . S
C842 C841 1.287 . S
C842 C843 1.524 . S
C842 H861 0.913 . S
C843 H819 0.950 . S
C843 C842 1.524 . S
C843 C844 1.415 . S
C844 H820 0.950 . S
C844 C839 1.363 . S
C844 C843 1.415 . S
C845 H821 0.951 . S
C845 C846 1.366 . S
C845 C847 1.388 . S
C846 C845 1.366 . S
C846 C850 1.385 . S
C847 H822 0.951 . S
C847 C845 1.388 . S
C847 C848 1.366 . S
C848 C847 1.366 . S
C848 C849 1.414 . S
C848 C851 1.499 1_545 S
C849 H823 0.950 . S
C849 C848 1.414 . S
C849 C850 1.374 . S
C850 H824 0.950 . S
C850 C846 1.385 . S
C850 C849 1.374 . S
C851 C848 1.499 1_565 S
C851 C852 1.373 . S
C851 C853 1.389 . S
C852 H825 0.950 . S
C852 C838 1.377 . S
C852 C851 1.373 . S
C853 C837 1.377 . S
C853 C851 1.389 . S
C853 C854 1.524 1_565 S
C854 C853 1.524 1_545 S
C854 C855 1.397 . S
C854 C859 1.363 . S
C855 H826 0.950 . S
C855 C854 1.397 . S
C855 C856 1.334 . S
C856 H827 0.950 . S
C856 C855 1.334 . S
C856 C857 1.287 . S
C857 C856 1.287 . S
C857 C858 1.524 . S
C857 H860 0.999 . S
C858 H828 0.950 . S
C858 C857 1.524 . S
C858 C859 1.415 . S
C859 H829 0.950 1_545 S
C859 C854 1.363 . S
C859 C858 1.415 . S
H860 C857 0.999 . S
H861 C842 0.913 . S
H862 C880 0.951 . S
H863 C882 0.951 . S
H864 C884 0.950 . S
H865 C885 0.950 . S
H866 C887 0.950 . S
H867 C890 0.950 . S
H868 C891 0.950 . S
H869 C893 0.950 . S
H870 C894 0.950 . S
H871 C895 0.951 . S
H872 C897 0.951 . S
H873 C899 0.950 . S
H874 C900 0.950 . S
H875 C902 0.950 . S
H876 C905 0.950 . S
H877 C906 0.950 . S
H878 C908 0.950 . S
H879 C909 0.950 . S
C880 H862 0.951 . S
C880 C881 1.366 . S
C880 C882 1.388 . S
C881 C880 1.366 . S
C881 C885 1.385 . S
C882 H863 0.951 . S
C882 C880 1.388 . S
C882 C883 1.366 . S
C883 C882 1.366 . S
C883 C884 1.414 . S
C883 C886 1.499 . S
C884 H864 0.950 . S
C884 C883 1.414 . S
C884 C885 1.374 . S
C885 H865 0.950 . S
C885 C881 1.385 . S
C885 C884 1.374 . S
C886 C883 1.499 . S
C886 C887 1.373 . S
C886 C888 1.389 . S
C887 H866 0.950 . S
C887 C886 1.373 . S
C887 C903 1.377 . S
C888 C886 1.389 . S
C888 C889 1.524 . S
C888 C902 1.377 . S
C889 C888 1.524 . S
C889 C890 1.397 . S
C889 C894 1.363 . S
C890 H867 0.950 . S
C890 C889 1.397 . S
C890 C891 1.334 . S
C891 H868 0.950 . S
C891 C890 1.334 . S
C891 C892 1.287 . S
C892 C891 1.287 . S
C892 C893 1.524 . S
C892 H911 0.913 . S
C893 H869 0.950 . S
C893 C892 1.524 . S
C893 C894 1.415 . S
C894 H870 0.950 . S
C894 C889 1.363 . S
C894 C893 1.415 . S
C895 H871 0.951 . S
C895 C896 1.366 . S
C895 C897 1.388 . S
C896 C895 1.366 . S
C896 C900 1.385 . S
C897 H872 0.951 . S
C897 C895 1.388 . S
C897 C898 1.366 . S
C898 C897 1.366 . S
C898 C899 1.414 . S
C898 C901 1.499 . S
C899 H873 0.950 . S
C899 C898 1.414 . S
C899 C900 1.374 . S
C900 H874 0.950 . S
C900 C896 1.385 . S
C900 C899 1.374 . S
C901 C898 1.499 . S
C901 C902 1.373 . S
C901 C903 1.389 . S
C902 H875 0.950 . S
C902 C888 1.377 . S
C902 C901 1.373 . S
C903 C887 1.377 . S
C903 C901 1.389 . S
C903 C904 1.524 . S
C904 C903 1.524 . S
C904 C905 1.397 . S
C904 C909 1.363 . S
C905 H876 0.950 . S
C905 C904 1.397 . S
C905 C906 1.334 . S
C906 H877 0.950 . S
C906 C905 1.334 . S
C906 C907 1.287 . S
C907 C906 1.287 . S
C907 C908 1.524 . S
C907 H910 0.999 . S
C908 H878 0.950 . S
C908 C907 1.524 . S
C908 C909 1.415 . S
C909 H879 0.950 . S
C909 C904 1.363 . S
C909 C908 1.415 . S
H910 C907 0.999 . S
H911 C892 0.913 . S
H912 C930 0.951 . S
H913 C932 0.951 . S
H914 C934 0.950 . S
H915 C935 0.950 . S
H916 C937 0.950 . S
H917 C940 0.950 . S
H918 C941 0.950 . S
H919 C943 0.950 . S
H920 C944 0.950 . S
H921 C945 0.951 . S
H922 C947 0.951 . S
H923 C949 0.950 . S
H924 C950 0.950 . S
H925 C952 0.950 . S
H926 C955 0.950 . S
H927 C956 0.950 . S
H928 C958 0.950 . S
H929 C959 0.950 . S
C930 H912 0.951 . S
C930 C931 1.366 . S
C930 C932 1.388 . S
C931 C930 1.366 . S
C931 C935 1.385 . S
C932 H913 0.951 . S
C932 C930 1.388 . S
C932 C933 1.366 . S
C933 C932 1.366 . S
C933 C934 1.414 . S
C933 C936 1.499 . S
C934 H914 0.950 . S
C934 C933 1.414 . S
C934 C935 1.374 . S
C935 H915 0.950 . S
C935 C931 1.385 . S
C935 C934 1.374 . S
C936 C933 1.499 . S
C936 C937 1.373 . S
C936 C938 1.389 . S
C937 H916 0.950 . S
C937 C936 1.373 . S
C937 C953 1.377 . S
C938 C936 1.389 . S
C938 C939 1.524 . S
C938 C952 1.377 . S
C939 C938 1.524 . S
C939 C940 1.397 . S
C939 C944 1.363 . S
C940 H917 0.950 . S
C940 C939 1.397 . S
C940 C941 1.334 . S
C941 H918 0.950 . S
C941 C940 1.334 . S
C941 C942 1.287 . S
C942 C941 1.287 . S
C942 C943 1.524 . S
C942 H961 0.913 . S
C943 H919 0.950 . S
C943 C942 1.524 . S
C943 C944 1.415 . S
C944 H920 0.950 . S
C944 C939 1.363 . S
C944 C943 1.415 . S
C945 H921 0.951 . S
C945 C946 1.366 . S
C945 C947 1.388 . S
C946 C945 1.366 . S
C946 C950 1.385 . S
C947 H922 0.951 . S
C947 C945 1.388 . S
C947 C948 1.366 . S
C948 C947 1.366 . S
C948 C949 1.414 . S
C948 C951 1.499 . S
C949 H923 0.950 . S
C949 C948 1.414 . S
C949 C950 1.374 . S
C950 H924 0.950 . S
C950 C946 1.385 . S
C950 C949 1.374 . S
C951 C948 1.499 . S
C951 C952 1.373 . S
C951 C953 1.389 . S
C952 H925 0.950 . S
C952 C938 1.377 . S
C952 C951 1.373 . S
C953 C937 1.377 . S
C953 C951 1.389 . S
C953 C954 1.524 . S
C954 C953 1.524 . S
C954 C955 1.397 . S
C954 C959 1.363 . S
C955 H926 0.950 . S
C955 C954 1.397 . S
C955 C956 1.334 . S
C956 H927 0.950 . S
C956 C955 1.334 . S
C956 C957 1.287 . S
C957 C956 1.287 . S
C957 C958 1.524 . S
C957 H960 0.999 . S
C958 H928 0.950 . S
C958 C957 1.524 . S
C958 C959 1.415 . S
C959 H929 0.950 . S
C959 C954 1.363 . S
C959 C958 1.415 . S
H960 C957 0.999 . S
H961 C942 0.913 . S
H962 C980 0.951 . S
H963 C982 0.951 . S
H964 C984 0.950 . S
H965 C985 0.950 . S
H966 C987 0.950 . S
H967 C990 0.950 . S
H968 C991 0.950 . S
H969 C993 0.950 . S
H970 C994 0.950 . S
H971 C995 0.951 . S
H972 C997 0.951 . S
H973 C999 0.950 . S
H974 C1000 0.950 . S
H975 C1002 0.950 . S
H976 C1005 0.950 . S
H977 C1006 0.950 . S
H978 C1008 0.950 . S
H979 C1009 0.950 . S
C980 H962 0.951 . S
C980 C981 1.366 . S
C980 C982 1.388 . S
C981 C980 1.366 . S
C981 C985 1.385 . S
C982 H963 0.951 . S
C982 C980 1.388 . S
C982 C983 1.366 . S
C983 C982 1.366 . S
C983 C984 1.414 . S
C983 C986 1.499 . S
C984 H964 0.950 . S
C984 C983 1.414 . S
C984 C985 1.374 . S
C985 H965 0.950 . S
C985 C981 1.385 . S
C985 C984 1.374 . S
C986 C983 1.499 . S
C986 C987 1.373 . S
C986 C988 1.389 1_565 S
C987 H966 0.950 . S
C987 C986 1.373 . S
C987 C1003 1.377 1_565 S
C988 C986 1.389 1_545 S
C988 C989 1.524 . S
C988 C1002 1.377 . S
C989 C988 1.524 . S
C989 C990 1.397 . S
C989 C994 1.363 . S
C990 H967 0.950 . S
C990 C989 1.397 . S
C990 C991 1.334 . S
C991 H968 0.950 . S
C991 C990 1.334 . S
C991 C992 1.287 . S
C992 C991 1.287 . S
C992 C993 1.524 . S
C992 H1011 0.913 . S
C993 H969 0.950 . S
C993 C992 1.524 . S
C993 C994 1.415 . S
C994 H970 0.950 . S
C994 C989 1.363 . S
C994 C993 1.415 . S
C995 H971 0.951 . S
C995 C996 1.366 . S
C995 C997 1.388 . S
C996 C995 1.366 . S
C996 C1000 1.385 . S
C997 H972 0.951 . S
C997 C995 1.388 . S
C997 C998 1.366 . S
C998 C997 1.366 . S
C998 C999 1.414 . S
C998 C1001 1.499 . S
C999 H973 0.950 . S
C999 C998 1.414 . S
C999 C1000 1.374 . S
C1000 H974 0.950 . S
C1000 C996 1.385 . S
C1000 C999 1.374 . S
C1001 C998 1.499 . S
C1001 C1002 1.373 . S
C1001 C1003 1.389 . S
C1002 H975 0.950 . S
C1002 C988 1.377 . S
C1002 C1001 1.373 . S
C1003 C987 1.377 1_545 S
C1003 C1001 1.389 . S
C1003 C1004 1.524 1_545 S
C1004 C1003 1.524 1_565 S
C1004 C1005 1.397 . S
C1004 C1009 1.363 . S
C1005 H976 0.950 . S
C1005 C1004 1.397 . S
C1005 C1006 1.334 . S
C1006 H977 0.950 . S
C1006 C1005 1.334 . S
C1006 C1007 1.287 . S
C1007 C1006 1.287 . S
C1007 C1008 1.524 . S
C1007 H1010 0.999 . S
C1008 H978 0.950 . S
C1008 C1007 1.524 . S
C1008 C1009 1.415 . S
C1009 H979 0.950 . S
C1009 C1004 1.363 . S
C1009 C1008 1.415 . S
H1010 C1007 0.999 . S
H1011 C992 0.913 . S
H1012 C1030 0.951 . S
H1013 C1032 0.951 . S
H1014 C1034 0.950 . S
H1015 C1035 0.950 . S
H1016 C1037 0.946 1_554 S
H1017 C1040 0.950 . S
H1018 C1041 0.950 . S
H1019 C1043 0.950 . S
H1020 C1044 0.950 . S
H1021 C1045 0.951 . S
H1022 C1047 0.951 . S
H1023 C1049 0.950 . S
H1024 C1050 0.950 . S
H1025 C1052 0.950 . S
H1026 C1055 0.950 . S
H1027 C1056 0.950 . S
H1028 C1058 0.950 . S
H1029 C1059 0.950 . S
C1030 H1012 0.951 . S
C1030 C1031 1.366 . S
C1030 C1032 1.388 . S
C1031 C1030 1.366 . S
C1031 C1035 1.385 . S
C1032 H1013 0.951 . S
C1032 C1030 1.388 . S
C1032 C1033 1.366 . S
C1033 C1032 1.366 . S
C1033 C1034 1.414 . S
C1033 C1036 1.499 . S
C1034 H1014 0.950 . S
C1034 C1033 1.414 . S
C1034 C1035 1.374 . S
C1035 H1015 0.950 . S
C1035 C1031 1.385 . S
C1035 C1034 1.374 . S
C1036 C1033 1.499 . S
C1036 C1037 1.373 . S
C1036 C1038 1.389 . S
C1037 H1016 0.946 1_556 S
C1037 C1036 1.373 . S
C1037 C1053 1.377 1_556 S
C1038 C1036 1.389 . S
C1038 C1039 1.524 . S
C1038 C1052 1.377 . S
C1039 C1038 1.524 . S
C1039 C1040 1.397 . S
C1039 C1044 1.363 . S
C1040 H1017 0.950 . S
C1040 C1039 1.397 . S
C1040 C1041 1.334 . S
C1041 H1018 0.950 . S
C1041 C1040 1.334 . S
C1041 C1042 1.287 . S
C1042 C1041 1.287 . S
C1042 C1043 1.524 . S
C1042 H1061 0.913 . S
C1043 H1019 0.950 . S
C1043 C1042 1.524 . S
C1043 C1044 1.415 . S
C1044 H1020 0.950 . S
C1044 C1039 1.363 . S
C1044 C1043 1.415 . S
C1045 H1021 0.951 . S
C1045 C1046 1.366 . S
C1045 C1047 1.388 . S
C1046 C1045 1.366 . S
C1046 C1050 1.385 . S
C1047 H1022 0.951 . S
C1047 C1045 1.388 . S
C1047 C1048 1.366 . S
C1048 C1047 1.366 . S
C1048 C1049 1.414 . S
C1048 C1051 1.499 . S
C1049 H1023 0.950 . S
C1049 C1048 1.414 . S
C1049 C1050 1.374 . S
C1050 H1024 0.950 . S
C1050 C1046 1.385 . S
C1050 C1049 1.374 . S
C1051 C1048 1.499 . S
C1051 C1052 1.373 1_554 S
C1051 C1053 1.389 . S
C1052 H1025 0.950 . S
C1052 C1038 1.377 . S
C1052 C1051 1.373 1_556 S
C1053 C1037 1.377 1_554 S
C1053 C1051 1.389 . S
C1053 C1054 1.524 . S
C1054 C1053 1.524 . S
C1054 C1055 1.397 . S
C1054 C1059 1.363 . S
C1055 H1026 0.950 . S
C1055 C1054 1.397 . S
C1055 C1056 1.334 . S
C1056 H1027 0.950 . S
C1056 C1055 1.334 . S
C1056 C1057 1.287 . S
C1057 C1056 1.287 . S
C1057 C1058 1.524 . S
C1057 H1060 0.999 . S
C1058 H1028 0.950 . S
C1058 C1057 1.524 . S
C1058 C1059 1.415 . S
C1059 H1029 0.950 . S
C1059 C1054 1.363 . S
C1059 C1058 1.415 . S
H1060 C1057 0.999 . S
H1061 C1042 0.913 . S
H1062 C1080 0.951 . S
H1063 C1082 0.969 . S
H1064 C1084 0.950 . S
H1065 C1085 0.950 . S
H1066 C1087 0.950 . S
H1067 C1090 0.950 . S
H1068 C1091 0.950 . S
H1069 C1093 0.950 . S
H1070 C1094 0.950 . S
H1071 C1095 0.951 . S
H1072 C1097 0.951 . S
H1073 C1099 0.950 . S
H1074 C1100 0.950 . S
H1075 C1102 0.950 . S
H1076 C1105 0.950 . S
H1077 C1106 0.950 . S
H1078 C1108 0.950 . S
H1079 C1109 0.950 . S
C1080 H1062 0.951 . S
C1080 C1081 1.366 . S
C1080 C1082 1.388 . S
C1081 C1080 1.366 . S
C1081 C1085 1.385 . S
C1082 H1063 0.969 . S
C1082 C1080 1.388 . S
C1082 C1083 1.366 . S
C1083 C1082 1.366 . S
C1083 C1084 1.414 . S
C1083 C1086 1.499 . S
C1084 H1064 0.950 . S
C1084 C1083 1.414 . S
C1084 C1085 1.374 . S
C1085 H1065 0.950 . S
C1085 C1081 1.385 . S
C1085 C1084 1.374 . S
C1086 C1083 1.499 . S
C1086 C1087 1.373 . S
C1086 C1088 1.389 1_545 S
C1087 H1066 0.950 . S
C1087 C1086 1.373 . S
C1087 C1103 1.377 1_545 S
C1088 C1086 1.389 1_565 S
C1088 C1089 1.524 . S
C1088 C1102 1.377 . S
C1089 C1088 1.524 . S
C1089 C1090 1.397 1_565 S
C1089 C1094 1.363 . S
C1090 H1067 0.950 . S
C1090 C1089 1.397 1_545 S
C1090 C1091 1.334 . S
C1091 H1068 0.950 . S
C1091 C1090 1.334 . S
C1091 C1092 1.266 1_545 S
C1092 C1091 1.266 1_565 S
C1092 C1093 1.547 . S
C1092 H1111 0.911 1_565 S
C1093 H1069 0.950 . S
C1093 C1092 1.547 . S
C1093 C1094 1.415 . S
C1094 H1070 0.950 . S
C1094 C1089 1.363 . S
C1094 C1093 1.415 . S
C1095 H1071 0.951 . S
C1095 C1096 1.366 . S
C1095 C1097 1.388 . S
C1096 C1095 1.366 . S
C1096 C1100 1.385 . S
C1097 H1072 0.951 . S
C1097 C1095 1.388 . S
C1097 C1098 1.366 . S
C1098 C1097 1.366 . S
C1098 C1099 1.414 . S
C1098 C1101 1.499 . S
C1099 H1073 0.950 . S
C1099 C1098 1.414 . S
C1099 C1100 1.374 . S
C1100 H1074 0.950 . S
C1100 C1096 1.385 . S
C1100 C1099 1.374 . S
C1101 C1098 1.499 . S
C1101 C1102 1.373 . S
C1101 C1103 1.389 . S
C1102 H1075 0.950 . S
C1102 C1088 1.377 . S
C1102 C1101 1.373 . S
C1103 C1087 1.377 1_565 S
C1103 C1101 1.389 . S
C1103 C1104 1.524 . S
C1104 C1103 1.524 . S
C1104 C1105 1.397 . S
C1104 C1109 1.363 1_565 S
C1105 H1076 0.950 . S
C1105 C1104 1.397 . S
C1105 C1106 1.334 . S
C1106 H1077 0.950 . S
C1106 C1105 1.334 . S
C1106 C1107 1.287 . S
C1107 C1106 1.287 . S
C1107 C1108 1.524 1_565 S
C1107 H1110 0.999 . S
C1108 H1078 0.950 . S
C1108 C1107 1.524 1_545 S
C1108 C1109 1.415 . S
C1109 H1079 0.950 . S
C1109 C1104 1.363 1_545 S
C1109 C1108 1.415 . S
H1110 C1107 0.999 . S
H1111 C1092 0.911 1_545 S
H1112 C1130 0.951 . S
H1113 C1132 0.951 . S
H1114 C1134 0.950 . S
H1115 C1135 0.950 . S
H1116 C1137 0.950 . S
H1117 C1140 0.950 . S
H1118 C1141 0.950 . S
H1119 C1143 0.950 . S
H1120 C1144 0.950 . S
H1121 C1145 0.951 . S
H1122 C1147 0.951 . S
H1123 C1149 0.950 . S
H1124 C1150 0.950 . S
H1125 C1152 0.950 . S
H1126 C1155 0.950 . S
H1127 C1156 0.950 . S
H1128 C1158 0.950 . S
H1129 C1159 0.950 . S
C1130 H1112 0.951 . S
C1130 C1131 1.366 . S
C1130 C1132 1.388 . S
C1131 C1130 1.366 . S
C1131 C1135 1.385 . S
C1132 H1113 0.951 . S
C1132 C1130 1.388 . S
C1132 C1133 1.366 . S
C1133 C1132 1.366 . S
C1133 C1134 1.414 . S
C1133 C1136 1.499 . S
C1134 H1114 0.950 . S
C1134 C1133 1.414 . S
C1134 C1135 1.374 . S
C1135 H1115 0.950 . S
C1135 C1131 1.385 . S
C1135 C1134 1.374 . S
C1136 C1133 1.499 . S
C1136 C1137 1.373 . S
C1136 C1138 1.389 . S
C1137 H1116 0.950 . S
C1137 C1136 1.373 . S
C1137 C1153 1.377 . S
C1138 C1136 1.389 . S
C1138 C1139 1.524 . S
C1138 C1152 1.377 . S
C1139 C1138 1.524 . S
C1139 C1140 1.397 . S
C1139 C1144 1.363 . S
C1140 H1117 0.950 . S
C1140 C1139 1.397 . S
C1140 C1141 1.334 . S
C1141 H1118 0.950 . S
C1141 C1140 1.334 . S
C1141 C1142 1.287 . S
C1142 C1141 1.287 . S
C1142 C1143 1.524 . S
C1142 H1161 0.913 . S
C1143 H1119 0.950 . S
C1143 C1142 1.524 . S
C1143 C1144 1.415 . S
C1144 H1120 0.950 . S
C1144 C1139 1.363 . S
C1144 C1143 1.415 . S
C1145 H1121 0.951 . S
C1145 C1146 1.366 . S
C1145 C1147 1.388 . S
C1146 C1145 1.366 . S
C1146 C1150 1.385 . S
C1147 H1122 0.951 . S
C1147 C1145 1.388 . S
C1147 C1148 1.366 . S
C1148 C1147 1.366 . S
C1148 C1149 1.414 . S
C1148 C1151 1.499 . S
C1149 H1123 0.950 . S
C1149 C1148 1.414 . S
C1149 C1150 1.374 . S
C1150 H1124 0.950 . S
C1150 C1146 1.385 . S
C1150 C1149 1.374 . S
C1151 C1148 1.499 . S
C1151 C1152 1.373 . S
C1151 C1153 1.389 . S
C1152 H1125 0.950 . S
C1152 C1138 1.377 . S
C1152 C1151 1.373 . S
C1153 C1137 1.377 . S
C1153 C1151 1.389 . S
C1153 C1154 1.524 . S
C1154 C1153 1.524 . S
C1154 C1155 1.397 . S
C1154 C1159 1.363 . S
C1155 H1126 0.950 . S
C1155 C1154 1.397 . S
C1155 C1156 1.334 . S
C1156 H1127 0.950 . S
C1156 C1155 1.334 . S
C1156 C1157 1.287 . S
C1157 C1156 1.287 . S
C1157 C1158 1.524 . S
C1157 H1160 0.999 . S
C1158 H1128 0.950 . S
C1158 C1157 1.524 . S
C1158 C1159 1.415 . S
C1159 H1129 0.950 . S
C1159 C1154 1.363 . S
C1159 C1158 1.415 . S
H1160 C1157 0.999 . S
H1161 C1142 0.913 . S
H1162 C1180 0.951 . S
H1163 C1182 0.951 . S
H1164 C1184 0.950 . S
H1165 C1185 0.950 . S
H1166 C1187 0.950 . S
H1167 C1190 0.950 . S
H1168 C1191 0.950 . S
H1169 C1193 0.950 . S
H1170 C1194 0.950 . S
H1171 C1195 0.951 . S
H1172 C1197 0.951 . S
H1173 C1199 0.950 . S
H1174 C1200 0.950 . S
H1175 C1202 0.950 . S
H1176 C1205 0.950 . S
H1177 C1206 0.950 . S
H1178 C1208 0.950 . S
H1179 C1209 0.950 . S
C1180 H1162 0.951 . S
C1180 C1181 1.366 . S
C1180 C1182 1.388 . S
C1181 C1180 1.366 . S
C1181 C1185 1.385 . S
C1182 H1163 0.951 . S
C1182 C1180 1.388 . S
C1182 C1183 1.366 . S
C1183 C1182 1.366 . S
C1183 C1184 1.414 . S
C1183 C1186 1.499 . S
C1184 H1164 0.950 . S
C1184 C1183 1.414 . S
C1184 C1185 1.374 . S
C1185 H1165 0.950 . S
C1185 C1181 1.385 . S
C1185 C1184 1.374 . S
C1186 C1183 1.499 . S
C1186 C1187 1.373 . S
C1186 C1188 1.389 . S
C1187 H1166 0.950 . S
C1187 C1186 1.373 . S
C1187 C1203 1.377 . S
C1188 C1186 1.389 . S
C1188 C1189 1.524 . S
C1188 C1202 1.377 . S
C1189 C1188 1.524 . S
C1189 C1190 1.397 . S
C1189 C1194 1.363 . S
C1190 H1167 0.950 . S
C1190 C1189 1.397 . S
C1190 C1191 1.334 . S
C1191 H1168 0.950 . S
C1191 C1190 1.334 . S
C1191 C1192 1.287 . S
C1192 C1191 1.287 . S
C1192 C1193 1.524 . S
C1192 H1211 0.913 . S
C1193 H1169 0.950 . S
C1193 C1192 1.524 . S
C1193 C1194 1.415 . S
C1194 H1170 0.950 . S
C1194 C1189 1.363 . S
C1194 C1193 1.415 . S
C1195 H1171 0.951 . S
C1195 C1196 1.366 . S
C1195 C1197 1.388 . S
C1196 C1195 1.366 . S
C1196 C1200 1.385 . S
C1197 H1172 0.951 . S
C1197 C1195 1.388 . S
C1197 C1198 1.366 . S
C1198 C1197 1.366 . S
C1198 C1199 1.414 . S
C1198 C1201 1.499 . S
C1199 H1173 0.950 . S
C1199 C1198 1.414 . S
C1199 C1200 1.374 . S
C1200 H1174 0.950 . S
C1200 C1196 1.385 . S
C1200 C1199 1.374 . S
C1201 C1198 1.499 . S
C1201 C1202 1.373 . S
C1201 C1203 1.389 . S
C1202 H1175 0.950 . S
C1202 C1188 1.377 . S
C1202 C1201 1.373 . S
C1203 C1187 1.377 . S
C1203 C1201 1.389 . S
C1203 C1204 1.524 . S
C1204 C1203 1.524 . S
C1204 C1205 1.397 . S
C1204 C1209 1.363 . S
C1205 H1176 0.950 . S
C1205 C1204 1.397 . S
C1205 C1206 1.334 . S
C1206 H1177 0.950 . S
C1206 C1205 1.334 . S
C1206 C1207 1.287 . S
C1207 C1206 1.287 . S
C1207 C1208 1.524 . S
C1207 H1210 0.999 . S
C1208 H1178 0.950 . S
C1208 C1207 1.524 . S
C1208 C1209 1.415 . S
C1209 H1179 0.950 . S
C1209 C1204 1.363 . S
C1209 C1208 1.415 . S
H1210 C1207 0.999 . S
H1211 C1192 0.913 . S
H1212 C1230 0.951 . S
H1213 C1232 0.951 . S
H1214 C1234 1.006 . S
H1215 C1235 0.950 . S
H1216 C1237 0.950 . S
H1217 C1240 0.941 1_554 S
H1218 C1241 0.950 . S
H1219 C1243 0.950 . S
H1220 C1244 0.950 . S
H1221 C1245 0.951 . S
H1222 C1247 0.951 . S
H1223 C1249 0.950 . S
H1224 C1250 0.950 . S
H1225 C1252 0.950 . S
H1226 C1255 0.950 . S
H1227 C1256 0.950 . S
H1228 C1258 0.950 . S
H1229 C1259 0.950 . S
C1230 H1212 0.951 . S
C1230 C1231 1.366 . S
C1230 C1232 1.388 . S
C1231 C1230 1.366 . S
C1231 C1235 1.385 . S
C1232 H1213 0.951 . S
C1232 C1230 1.388 . S
C1232 C1233 1.366 . S
C1233 C1232 1.366 . S
C1233 C1234 1.414 . S
C1233 C1236 1.499 . S
C1234 H1214 1.006 . S
C1234 C1233 1.414 . S
C1234 C1235 1.374 . S
C1235 H1215 0.950 . S
C1235 C1231 1.385 . S
C1235 C1234 1.374 . S
C1236 C1233 1.499 . S
C1236 C1237 1.373 1_556 S
C1236 C1238 1.389 . S
C1237 H1216 0.950 . S
C1237 C1236 1.373 1_554 S
C1237 C1253 1.377 . S
C1238 C1236 1.389 . S
C1238 C1239 1.524 . S
C1238 C1252 1.377 1_556 S
C1239 C1238 1.524 . S
C1239 C1240 1.397 . S
C1239 C1244 1.363 . S
C1240 H1217 0.941 1_556 S
C1240 C1239 1.397 . S
C1240 C1241 1.334 . S
C1241 H1218 0.950 . S
C1241 C1240 1.334 . S
C1241 C1242 1.287 . S
C1242 C1241 1.287 . S
C1242 C1243 1.524 . S
C1242 H1261 0.913 . S
C1243 H1219 0.950 . S
C1243 C1242 1.524 . S
C1243 C1244 1.415 . S
C1244 H1220 0.950 . S
C1244 C1239 1.363 . S
C1244 C1243 1.415 . S
C1245 H1221 0.951 . S
C1245 C1246 1.366 . S
C1245 C1247 1.388 . S
C1246 C1245 1.366 . S
C1246 C1250 1.385 . S
C1247 H1222 0.951 . S
C1247 C1245 1.388 . S
C1247 C1248 1.366 . S
C1248 C1247 1.366 . S
C1248 C1249 1.414 . S
C1248 C1251 1.499 . S
C1249 H1223 0.950 . S
C1249 C1248 1.414 . S
C1249 C1250 1.374 . S
C1250 H1224 0.950 . S
C1250 C1246 1.385 . S
C1250 C1249 1.374 . S
C1251 C1248 1.499 . S
C1251 C1252 1.373 . S
C1251 C1253 1.389 . S
C1252 H1225 0.950 . S
C1252 C1238 1.377 1_554 S
C1252 C1251 1.373 . S
C1253 C1237 1.377 . S
C1253 C1251 1.389 . S
C1253 C1254 1.524 . S
C1254 C1253 1.524 . S
C1254 C1255 1.397 . S
C1254 C1259 1.363 . S
C1255 H1226 0.950 . S
C1255 C1254 1.397 . S
C1255 C1256 1.334 . S
C1256 H1227 0.950 . S
C1256 C1255 1.334 . S
C1256 C1257 1.287 . S
C1257 C1256 1.287 . S
C1257 C1258 1.524 . S
C1257 H1260 0.999 . S
C1258 H1228 0.950 . S
C1258 C1257 1.524 . S
C1258 C1259 1.415 . S
C1259 H1229 0.950 . S
C1259 C1254 1.363 . S
C1259 C1258 1.415 . S
H1260 C1257 0.999 . S
H1261 C1242 0.913 . S
H1262 C1280 0.951 . S
H1263 C1282 0.951 . S
H1264 C1284 0.950 . S
H1265 C1285 0.950 . S
H1266 C1287 0.950 . S
H1267 C1290 0.950 . S
H1268 C1291 0.950 . S
H1269 C1293 0.950 . S
H1270 C1294 0.950 . S
H1271 C1295 0.951 . S
H1272 C1297 0.951 . S
H1273 C1299 0.950 . S
H1274 C1300 0.950 . S
H1275 C1302 0.950 . S
H1276 C1305 0.950 . S
H1277 C1306 0.950 . S
H1278 C1308 0.950 . S
H1279 C1309 0.950 . S
C1280 H1262 0.951 . S
C1280 C1281 1.366 . S
C1280 C1282 1.388 . S
C1281 C1280 1.366 . S
C1281 C1285 1.385 . S
C1282 H1263 0.951 . S
C1282 C1280 1.388 . S
C1282 C1283 1.366 . S
C1283 C1282 1.366 . S
C1283 C1284 1.414 . S
C1283 C1286 1.499 . S
C1284 H1264 0.950 . S
C1284 C1283 1.414 . S
C1284 C1285 1.374 . S
C1285 H1265 0.950 . S
C1285 C1281 1.385 . S
C1285 C1284 1.374 . S
C1286 C1283 1.499 . S
C1286 C1287 1.373 . S
C1286 C1288 1.389 . S
C1287 H1266 0.950 . S
C1287 C1286 1.373 . S
C1287 C1303 1.377 . S
C1288 C1286 1.389 . S
C1288 C1289 1.524 . S
C1288 C1302 1.377 . S
C1289 C1288 1.524 . S
C1289 C1290 1.397 . S
C1289 C1294 1.363 . S
C1290 H1267 0.950 . S
C1290 C1289 1.397 . S
C1290 C1291 1.334 . S
C1291 H1268 0.950 . S
C1291 C1290 1.334 . S
C1291 C1292 1.287 . S
C1292 C1291 1.287 . S
C1292 C1293 1.524 . S
C1292 H1311 0.913 . S
C1293 H1269 0.950 . S
C1293 C1292 1.524 . S
C1293 C1294 1.415 . S
C1294 H1270 0.950 . S
C1294 C1289 1.363 . S
C1294 C1293 1.415 . S
C1295 H1271 0.951 . S
C1295 C1296 1.366 . S
C1295 C1297 1.388 . S
C1296 C1295 1.366 . S
C1296 C1300 1.385 . S
C1297 H1272 0.951 . S
C1297 C1295 1.388 . S
C1297 C1298 1.366 . S
C1298 C1297 1.366 . S
C1298 C1299 1.414 . S
C1298 C1301 1.499 . S
C1299 H1273 0.950 . S
C1299 C1298 1.414 . S
C1299 C1300 1.374 . S
C1300 H1274 0.950 . S
C1300 C1296 1.385 . S
C1300 C1299 1.374 . S
C1301 C1298 1.499 . S
C1301 C1302 1.373 . S
C1301 C1303 1.389 . S
C1302 H1275 0.950 . S
C1302 C1288 1.377 . S
C1302 C1301 1.373 . S
C1303 C1287 1.377 . S
C1303 C1301 1.389 . S
C1303 C1304 1.524 . S
C1304 C1303 1.524 . S
C1304 C1305 1.397 . S
C1304 C1309 1.363 . S
C1305 H1276 0.950 . S
C1305 C1304 1.397 . S
C1305 C1306 1.334 . S
C1306 H1277 0.950 . S
C1306 C1305 1.334 . S
C1306 C1307 1.287 . S
C1307 C1306 1.287 . S
C1307 C1308 1.524 . S
C1307 H1310 0.999 . S
C1308 H1278 0.950 . S
C1308 C1307 1.524 . S
C1308 C1309 1.415 . S
C1309 H1279 0.950 . S
C1309 C1304 1.363 . S
C1309 C1308 1.415 . S
H1310 C1307 0.999 . S
H1311 C1292 0.913 . S
H1312 C1330 0.951 . S
H1313 C1332 0.951 . S
H1314 C1334 0.950 . S
H1315 C1335 0.950 . S
H1316 C1337 0.950 . S
H1317 C1340 0.950 . S
H1318 C1341 0.950 . S
H1319 C1343 0.950 . S
H1320 C1344 0.950 . S
H1321 C1345 0.951 . S
H1322 C1347 0.951 . S
H1323 C1349 0.950 . S
H1324 C1350 0.950 . S
H1325 C1352 0.950 . S
H1326 C1355 0.950 . S
H1327 C1356 0.950 . S
H1328 C1358 0.950 . S
H1329 C1359 0.950 . S
C1330 H1312 0.951 . S
C1330 C1331 1.366 . S
C1330 C1332 1.388 . S
C1331 C1330 1.366 . S
C1331 C1335 1.385 . S
C1332 H1313 0.951 . S
C1332 C1330 1.388 . S
C1332 C1333 1.366 . S
C1333 C1332 1.366 . S
C1333 C1334 1.414 . S
C1333 C1336 1.499 . S
C1334 H1314 0.950 . S
C1334 C1333 1.414 . S
C1334 C1335 1.374 . S
C1335 H1315 0.950 . S
C1335 C1331 1.385 . S
C1335 C1334 1.374 . S
C1336 C1333 1.499 . S
C1336 C1337 1.373 . S
C1336 C1338 1.389 . S
C1337 H1316 0.950 . S
C1337 C1336 1.373 . S
C1337 C1353 1.377 . S
C1338 C1336 1.389 . S
C1338 C1339 1.524 . S
C1338 C1352 1.377 . S
C1339 C1338 1.524 . S
C1339 C1340 1.397 . S
C1339 C1344 1.363 . S
C1340 H1317 0.950 . S
C1340 C1339 1.397 . S
C1340 C1341 1.334 . S
C1341 H1318 0.950 . S
C1341 C1340 1.334 . S
C1341 C1342 1.287 . S
C1342 C1341 1.287 . S
C1342 C1343 1.524 . S
C1342 H1361 0.913 . S
C1343 H1319 0.950 . S
C1343 C1342 1.524 . S
C1343 C1344 1.415 . S
C1344 H1320 0.950 . S
C1344 C1339 1.363 . S
C1344 C1343 1.415 . S
C1345 H1321 0.951 . S
C1345 C1346 1.366 . S
C1345 C1347 1.388 . S
C1346 C1345 1.366 . S
C1346 C1350 1.385 . S
C1347 H1322 0.951 . S
C1347 C1345 1.388 . S
C1347 C1348 1.366 . S
C1348 C1347 1.366 . S
C1348 C1349 1.414 . S
C1348 C1351 1.499 . S
C1349 H1323 0.950 . S
C1349 C1348 1.414 . S
C1349 C1350 1.374 . S
C1350 H1324 0.950 . S
C1350 C1346 1.385 . S
C1350 C1349 1.374 . S
C1351 C1348 1.499 . S
C1351 C1352 1.373 . S
C1351 C1353 1.389 . S
C1352 H1325 0.950 . S
C1352 C1338 1.377 . S
C1352 C1351 1.373 . S
C1353 C1337 1.377 . S
C1353 C1351 1.389 . S
C1353 C1354 1.524 . S
C1354 C1353 1.524 . S
C1354 C1355 1.397 . S
C1354 C1359 1.363 . S
C1355 H1326 0.950 . S
C1355 C1354 1.397 . S
C1355 C1356 1.334 . S
C1356 H1327 0.950 . S
C1356 C1355 1.334 . S
C1356 C1357 1.287 . S
C1357 C1356 1.287 . S
C1357 C1358 1.524 . S
C1357 H1360 0.999 . S
C1358 H1328 0.950 . S
C1358 C1357 1.524 . S
C1358 C1359 1.415 . S
C1359 H1329 0.950 . S
C1359 C1354 1.363 . S
C1359 C1358 1.415 . S
H1360 C1357 0.999 . S
H1361 C1342 0.913 . S
H1362 C1380 0.951 . S
H1363 C1382 0.951 . S
H1364 C1384 0.950 . S
H1365 C1385 0.950 . S
H1366 C1387 0.955 . S
H1367 C1390 0.950 . S
H1368 C1391 0.950 . S
H1369 C1393 0.950 . S
H1370 C1394 0.950 . S
H1371 C1395 0.951 . S
H1372 C1397 0.951 . S
H1373 C1399 0.950 . S
H1374 C1400 0.950 . S
H1375 C1402 0.950 . S
H1376 C1405 0.950 . S
H1377 C1406 0.950 . S
H1378 C1408 0.950 . S
H1379 C1409 0.950 . S
C1380 H1362 0.951 . S
C1380 C1381 1.366 . S
C1380 C1382 1.388 . S
C1381 C1380 1.366 . S
C1381 C1385 1.385 . S
C1382 H1363 0.951 . S
C1382 C1380 1.388 . S
C1382 C1383 1.366 . S
C1383 C1382 1.366 . S
C1383 C1384 1.414 . S
C1383 C1386 1.499 . S
C1384 H1364 0.950 . S
C1384 C1383 1.414 . S
C1384 C1385 1.374 . S
C1385 H1365 0.950 . S
C1385 C1381 1.385 . S
C1385 C1384 1.374 . S
C1386 C1383 1.499 . S
C1386 C1387 1.376 . S
C1386 C1388 1.389 1_455 S
C1387 H1366 0.955 . S
C1387 C1386 1.376 . S
C1387 C1403 1.369 1_455 S
C1388 C1386 1.389 1_655 S
C1388 C1389 1.525 . S
C1388 C1402 1.377 . S
C1389 C1388 1.525 . S
C1389 C1390 1.398 . S
C1389 C1394 1.361 1_655 S
C1390 H1367 0.950 . S
C1390 C1389 1.398 . S
C1390 C1391 1.334 . S
C1391 H1368 0.950 . S
C1391 C1390 1.334 . S
C1391 C1392 1.277 1_655 S
C1392 C1391 1.277 1_455 S
C1392 C1393 1.536 . S
C1392 H1411 0.918 . S
C1393 H1369 0.950 . S
C1393 C1392 1.536 . S
C1393 C1394 1.415 . S
C1394 H1370 0.950 . S
C1394 C1389 1.361 1_455 S
C1394 C1393 1.415 . S
C1395 H1371 0.951 . S
C1395 C1396 1.366 . S
C1395 C1397 1.388 . S
C1396 C1395 1.366 . S
C1396 C1400 1.385 . S
C1397 H1372 0.951 . S
C1397 C1395 1.388 . S
C1397 C1398 1.366 . S
C1398 C1397 1.366 . S
C1398 C1399 1.414 . S
C1398 C1401 1.499 . S
C1399 H1373 0.950 . S
C1399 C1398 1.414 . S
C1399 C1400 1.374 . S
C1400 H1374 0.950 . S
C1400 C1396 1.385 . S
C1400 C1399 1.374 . S
C1401 C1398 1.499 . S
C1401 C1402 1.373 . S
C1401 C1403 1.389 . S
C1402 H1375 0.950 . S
C1402 C1388 1.377 . S
C1402 C1401 1.373 . S
C1403 C1387 1.369 1_655 S
C1403 C1401 1.389 . S
C1403 C1404 1.524 . S
C1404 C1403 1.524 . S
C1404 C1405 1.397 . S
C1404 C1409 1.363 . S
C1405 H1376 0.950 . S
C1405 C1404 1.397 . S
C1405 C1406 1.334 . S
C1406 H1377 0.950 . S
C1406 C1405 1.334 . S
C1406 C1407 1.287 . S
C1407 C1406 1.287 . S
C1407 C1408 1.524 . S
C1407 H1410 0.999 . S
C1408 H1378 0.950 . S
C1408 C1407 1.524 . S
C1408 C1409 1.415 . S
C1409 H1379 0.950 . S
C1409 C1404 1.363 . S
C1409 C1408 1.415 . S
H1410 C1407 0.999 . S
H1411 C1392 0.918 . S
H1412 C1430 0.951 . S
H1413 C1432 0.951 . S
H1414 C1434 0.950 . S
H1415 C1435 0.950 . S
H1416 C1437 0.950 . S
H1417 C1440 0.950 . S
H1418 C1441 0.950 . S
H1419 C1443 0.950 . S
H1420 C1444 0.950 . S
H1421 C1445 0.951 . S
H1422 C1447 0.951 . S
H1423 C1449 0.950 . S
H1424 C1450 0.950 . S
H1425 C1452 0.950 . S
H1426 C1455 0.950 . S
H1427 C1456 0.950 . S
H1428 C1458 0.950 . S
H1429 C1459 0.943 1_455 S
C1430 H1412 0.951 . S
C1430 C1431 1.366 . S
C1430 C1432 1.388 . S
C1431 C1430 1.366 . S
C1431 C1435 1.385 . S
C1432 H1413 0.951 . S
C1432 C1430 1.388 . S
C1432 C1433 1.366 . S
C1433 C1432 1.366 . S
C1433 C1434 1.414 . S
C1433 C1436 1.499 . S
C1434 H1414 0.950 . S
C1434 C1433 1.414 . S
C1434 C1435 1.374 . S
C1435 H1415 0.950 . S
C1435 C1431 1.385 . S
C1435 C1434 1.374 . S
C1436 C1433 1.499 . S
C1436 C1437 1.373 . S
C1436 C1438 1.389 1_655 S
C1437 H1416 0.950 . S
C1437 C1436 1.373 . S
C1437 C1453 1.377 1_655 S
C1438 C1436 1.389 1_455 S
C1438 C1439 1.524 . S
C1438 C1452 1.377 . S
C1439 C1438 1.524 . S
C1439 C1440 1.397 . S
C1439 C1444 1.363 . S
C1440 H1417 0.950 . S
C1440 C1439 1.397 . S
C1440 C1441 1.334 . S
C1441 H1418 0.950 . S
C1441 C1440 1.334 . S
C1441 C1442 1.287 . S
C1442 C1441 1.287 . S
C1442 C1443 1.524 . S
C1442 H1461 0.913 . S
C1443 H1419 0.950 . S
C1443 C1442 1.524 . S
C1443 C1444 1.415 . S
C1444 H1420 0.950 . S
C1444 C1439 1.363 . S
C1444 C1443 1.415 . S
C1445 H1421 0.951 . S
C1445 C1446 1.366 . S
C1445 C1447 1.388 . S
C1446 C1445 1.366 . S
C1446 C1450 1.385 . S
C1447 H1422 0.951 . S
C1447 C1445 1.388 . S
C1447 C1448 1.366 . S
C1448 C1447 1.366 . S
C1448 C1449 1.414 . S
C1448 C1451 1.499 . S
C1449 H1423 0.950 . S
C1449 C1448 1.414 . S
C1449 C1450 1.374 . S
C1450 H1424 0.950 . S
C1450 C1446 1.385 . S
C1450 C1449 1.374 . S
C1451 C1448 1.499 . S
C1451 C1452 1.373 . S
C1451 C1453 1.389 . S
C1452 H1425 0.950 . S
C1452 C1438 1.377 . S
C1452 C1451 1.373 . S
C1453 C1437 1.377 1_455 S
C1453 C1451 1.389 . S
C1453 C1454 1.533 . S
C1454 C1453 1.533 . S
C1454 C1455 1.389 1_455 S
C1454 C1459 1.359 1_455 S
C1455 H1426 0.950 . S
C1455 C1454 1.389 1_655 S
C1455 C1456 1.334 . S
C1456 H1427 0.950 . S
C1456 C1455 1.334 . S
C1456 C1457 1.287 . S
C1457 C1456 1.287 . S
C1457 C1458 1.524 . S
C1457 H1460 0.999 . S
C1458 H1428 0.950 . S
C1458 C1457 1.524 . S
C1458 C1459 1.429 . S
C1459 H1429 0.943 1_655 S
C1459 C1454 1.359 1_655 S
C1459 C1458 1.429 . S
H1460 C1457 0.999 . S
H1461 C1442 0.913 . S
H1462 C1480 0.951 . S
H1463 C1482 0.951 . S
H1464 C1484 0.950 . S
H1465 C1485 0.950 . S
H1466 C1487 0.950 . S
H1467 C1490 0.950 . S
H1468 C1491 0.950 . S
H1469 C1493 0.950 . S
H1470 C1494 0.950 . S
H1471 C1495 0.951 . S
H1472 C1497 0.951 . S
H1473 C1499 0.950 . S
H1474 C1500 0.950 . S
H1475 C1502 0.950 . S
H1476 C1505 0.950 . S
H1477 C1506 0.950 . S
H1478 C1508 0.950 . S
H1479 C1509 0.950 . S
C1480 H1462 0.951 . S
C1480 C1481 1.366 . S
C1480 C1482 1.388 . S
C1481 C1480 1.366 . S
C1481 C1485 1.385 . S
C1482 H1463 0.951 . S
C1482 C1480 1.388 . S
C1482 C1483 1.366 . S
C1483 C1482 1.366 . S
C1483 C1484 1.414 . S
C1483 C1486 1.499 . S
C1484 H1464 0.950 . S
C1484 C1483 1.414 . S
C1484 C1485 1.374 . S
C1485 H1465 0.950 . S
C1485 C1481 1.385 . S
C1485 C1484 1.374 . S
C1486 C1483 1.499 . S
C1486 C1487 1.373 . S
C1486 C1488 1.389 . S
C1487 H1466 0.950 . S
C1487 C1486 1.373 . S
C1487 C1503 1.377 . S
C1488 C1486 1.389 . S
C1488 C1489 1.524 . S
C1488 C1502 1.377 . S
C1489 C1488 1.524 . S
C1489 C1490 1.397 . S
C1489 C1494 1.363 . S
C1490 H1467 0.950 . S
C1490 C1489 1.397 . S
C1490 C1491 1.334 . S
C1491 H1468 0.950 . S
C1491 C1490 1.334 . S
C1491 C1492 1.287 . S
C1492 C1491 1.287 . S
C1492 C1493 1.524 . S
C1492 H1511 0.913 . S
C1493 H1469 0.950 . S
C1493 C1492 1.524 . S
C1493 C1494 1.415 . S
C1494 H1470 0.950 . S
C1494 C1489 1.363 . S
C1494 C1493 1.415 . S
C1495 H1471 0.951 . S
C1495 C1496 1.366 . S
C1495 C1497 1.388 . S
C1496 C1495 1.366 . S
C1496 C1500 1.385 . S
C1497 H1472 0.951 . S
C1497 C1495 1.388 . S
C1497 C1498 1.366 . S
C1498 C1497 1.366 . S
C1498 C1499 1.414 . S
C1498 C1501 1.499 . S
C1499 H1473 0.950 . S
C1499 C1498 1.414 . S
C1499 C1500 1.374 . S
C1500 H1474 0.950 . S
C1500 C1496 1.385 . S
C1500 C1499 1.374 . S
C1501 C1498 1.499 . S
C1501 C1502 1.373 . S
C1501 C1503 1.389 . S
C1502 H1475 0.950 . S
C1502 C1488 1.377 . S
C1502 C1501 1.373 . S
C1503 C1487 1.377 . S
C1503 C1501 1.389 . S
C1503 C1504 1.524 . S
C1504 C1503 1.524 . S
C1504 C1505 1.397 . S
C1504 C1509 1.363 . S
C1505 H1476 0.950 . S
C1505 C1504 1.397 . S
C1505 C1506 1.334 . S
C1506 H1477 0.950 . S
C1506 C1505 1.334 . S
C1506 C1507 1.287 . S
C1507 C1506 1.287 . S
C1507 C1508 1.524 . S
C1507 H1510 0.999 . S
C1508 H1478 0.950 . S
C1508 C1507 1.524 . S
C1508 C1509 1.415 . S
C1509 H1479 0.950 . S
C1509 C1504 1.363 . S
C1509 C1508 1.415 . S
H1510 C1507 0.999 . S
H1511 C1492 0.913 . S
H1512 C1530 0.951 . S
H1513 C1532 0.951 . S
H1514 C1534 0.950 . S
H1515 C1535 0.950 . S
H1516 C1537 0.950 . S
H1517 C1540 0.950 . S
H1518 C1541 0.950 . S
H1519 C1543 0.950 . S
H1520 C1544 0.950 . S
H1521 C1545 0.951 . S
H1522 C1547 0.951 . S
H1523 C1549 0.950 . S
H1524 C1550 0.950 . S
H1525 C1552 0.950 . S
H1526 C1555 0.950 . S
H1527 C1556 0.950 . S
H1528 C1558 0.950 . S
H1529 C1559 0.950 . S
C1530 H1512 0.951 . S
C1530 C1531 1.366 . S
C1530 C1532 1.388 . S
C1531 C1530 1.366 . S
C1531 C1535 1.385 . S
C1532 H1513 0.951 . S
C1532 C1530 1.388 . S
C1532 C1533 1.366 . S
C1533 C1532 1.366 . S
C1533 C1534 1.414 . S
C1533 C1536 1.499 . S
C1534 H1514 0.950 . S
C1534 C1533 1.414 . S
C1534 C1535 1.374 . S
C1535 H1515 0.950 . S
C1535 C1531 1.385 . S
C1535 C1534 1.374 . S
C1536 C1533 1.499 . S
C1536 C1537 1.373 . S
C1536 C1538 1.389 . S
C1537 H1516 0.950 . S
C1537 C1536 1.373 . S
C1537 C1553 1.377 . S
C1538 C1536 1.389 . S
C1538 C1539 1.524 . S
C1538 C1552 1.377 . S
C1539 C1538 1.524 . S
C1539 C1540 1.397 . S
C1539 C1544 1.363 . S
C1540 H1517 0.950 . S
C1540 C1539 1.397 . S
C1540 C1541 1.334 . S
C1541 H1518 0.950 . S
C1541 C1540 1.334 . S
C1541 C1542 1.287 . S
C1542 C1541 1.287 . S
C1542 C1543 1.524 . S
C1542 H1561 0.913 . S
C1543 H1519 0.950 . S
C1543 C1542 1.524 . S
C1543 C1544 1.415 . S
C1544 H1520 0.950 . S
C1544 C1539 1.363 . S
C1544 C1543 1.415 . S
C1545 H1521 0.951 . S
C1545 C1546 1.366 . S
C1545 C1547 1.388 . S
C1546 C1545 1.366 . S
C1546 C1550 1.385 . S
C1547 H1522 0.951 . S
C1547 C1545 1.388 . S
C1547 C1548 1.366 . S
C1548 C1547 1.366 . S
C1548 C1549 1.414 . S
C1548 C1551 1.499 . S
C1549 H1523 0.950 . S
C1549 C1548 1.414 . S
C1549 C1550 1.374 . S
C1550 H1524 0.950 . S
C1550 C1546 1.385 . S
C1550 C1549 1.374 . S
C1551 C1548 1.499 . S
C1551 C1552 1.373 . S
C1551 C1553 1.389 . S
C1552 H1525 0.950 . S
C1552 C1538 1.377 . S
C1552 C1551 1.373 . S
C1553 C1537 1.377 . S
C1553 C1551 1.389 . S
C1553 C1554 1.524 . S
C1554 C1553 1.524 . S
C1554 C1555 1.397 . S
C1554 C1559 1.363 . S
C1555 H1526 0.950 . S
C1555 C1554 1.397 . S
C1555 C1556 1.334 . S
C1556 H1527 0.950 . S
C1556 C1555 1.334 . S
C1556 C1557 1.287 . S
C1557 C1556 1.287 . S
C1557 C1558 1.524 . S
C1557 H1560 0.999 . S
C1558 H1528 0.950 . S
C1558 C1557 1.524 . S
C1558 C1559 1.415 . S
C1559 H1529 0.950 . S
C1559 C1554 1.363 . S
C1559 C1558 1.415 . S
H1560 C1557 0.999 . S
H1561 C1542 0.913 . S
H1562 C1580 0.951 . S
H1563 C1582 0.951 1_565 S
H1564 C1584 0.950 . S
H1565 C1585 0.950 . S
H1566 C1587 0.950 . S
H1567 C1590 0.950 . S
H1568 C1591 0.950 . S
H1569 C1593 0.950 . S
H1570 C1594 0.950 1_565 S
H1571 C1595 0.951 . S
H1572 C1597 0.951 . S
H1573 C1599 0.950 . S
H1574 C1600 0.950 . S
H1575 C1602 0.950 . S
H1576 C1605 0.950 . S
H1577 C1606 0.950 . S
H1578 C1608 0.950 . S
H1579 C1609 0.950 . S
C1580 H1562 0.951 . S
C1580 C1581 1.366 . S
C1580 C1582 1.388 . S
C1581 C1580 1.366 . S
C1581 C1585 1.385 . S
C1582 H1563 0.951 1_545 S
C1582 C1580 1.388 . S
C1582 C1583 1.366 1_545 S
C1583 C1582 1.366 1_565 S
C1583 C1584 1.414 1_565 S
C1583 C1586 1.498 . S
C1584 H1564 0.950 . S
C1584 C1583 1.414 1_545 S
C1584 C1585 1.374 . S
C1585 H1565 0.950 . S
C1585 C1581 1.385 . S
C1585 C1584 1.374 . S
C1586 C1583 1.498 . S
C1586 C1587 1.373 . S
C1586 C1588 1.389 . S
C1587 H1566 0.950 . S
C1587 C1586 1.373 . S
C1587 C1603 1.377 . S
C1588 C1586 1.389 . S
C1588 C1589 1.524 1_565 S
C1588 C1602 1.377 . S
C1589 C1588 1.524 1_545 S
C1589 C1590 1.397 . S
C1589 C1594 1.363 . S
C1590 H1567 0.950 . S
C1590 C1589 1.397 . S
C1590 C1591 1.334 . S
C1591 H1568 0.950 . S
C1591 C1590 1.334 . S
C1591 C1592 1.287 . S
C1592 C1591 1.287 . S
C1592 C1593 1.524 . S
C1592 H1611 0.913 . S
C1593 H1569 0.950 . S
C1593 C1592 1.524 . S
C1593 C1594 1.415 . S
C1594 H1570 0.950 1_545 S
C1594 C1589 1.363 . S
C1594 C1593 1.415 . S
C1595 H1571 0.951 . S
C1595 C1596 1.366 . S
C1595 C1597 1.388 . S
C1596 C1595 1.366 . S
C1596 C1600 1.385 . S
C1597 H1572 0.951 . S
C1597 C1595 1.388 . S
C1597 C1598 1.366 . S
C1598 C1597 1.366 . S
C1598 C1599 1.414 . S
C1598 C1601 1.499 . S
C1599 H1573 0.950 . S
C1599 C1598 1.414 . S
C1599 C1600 1.374 . S
C1600 H1574 0.950 . S
C1600 C1596 1.385 . S
C1600 C1599 1.374 . S
C1601 C1598 1.499 . S
C1601 C1602 1.373 . S
C1601 C1603 1.389 . S
C1602 H1575 0.950 . S
C1602 C1588 1.377 . S
C1602 C1601 1.373 . S
C1603 C1587 1.377 . S
C1603 C1601 1.389 . S
C1603 C1604 1.524 . S
C1604 C1603 1.524 . S
C1604 C1605 1.397 . S
C1604 C1609 1.363 . S
C1605 H1576 0.950 . S
C1605 C1604 1.397 . S
C1605 C1606 1.334 . S
C1606 H1577 0.950 . S
C1606 C1605 1.334 . S
C1606 C1607 1.287 . S
C1607 C1606 1.287 . S
C1607 C1608 1.524 . S
C1607 H1610 0.999 . S
C1608 H1578 0.950 . S
C1608 C1607 1.524 . S
C1608 C1609 1.415 . S
C1609 H1579 0.950 . S
C1609 C1604 1.363 . S
C1609 C1608 1.415 . S
H1610 C1607 0.999 . S
H1611 C1592 0.913 . S
H1612 C1630 0.951 . S
H1613 C1632 0.951 . S
H1614 C1634 0.950 . S
H1615 C1635 0.950 . S
H1616 C1637 0.950 . S
H1617 C1640 0.950 . S
H1618 C1641 0.950 . S
H1619 C1643 0.950 . S
H1620 C1644 0.950 . S
H1621 C1645 0.951 . S
H1622 C1647 0.951 . S
H1623 C1649 0.950 . S
H1624 C1650 0.950 . S
H1625 C1652 0.950 . S
H1626 C1655 0.950 . S
H1627 C1656 0.950 . S
H1628 C1658 0.950 . S
H1629 C1659 0.950 . S
C1630 H1612 0.951 . S
C1630 C1631 1.366 . S
C1630 C1632 1.388 . S
C1631 C1630 1.366 . S
C1631 C1635 1.385 . S
C1632 H1613 0.951 . S
C1632 C1630 1.388 . S
C1632 C1633 1.366 . S
C1633 C1632 1.366 . S
C1633 C1634 1.414 . S
C1633 C1636 1.499 . S
C1634 H1614 0.950 . S
C1634 C1633 1.414 . S
C1634 C1635 1.374 . S
C1635 H1615 0.950 . S
C1635 C1631 1.385 . S
C1635 C1634 1.374 . S
C1636 C1633 1.499 . S
C1636 C1637 1.373 . S
C1636 C1638 1.389 . S
C1637 H1616 0.950 . S
C1637 C1636 1.373 . S
C1637 C1653 1.377 . S
C1638 C1636 1.389 . S
C1638 C1639 1.524 . S
C1638 C1652 1.377 . S
C1639 C1638 1.524 . S
C1639 C1640 1.397 . S
C1639 C1644 1.363 . S
C1640 H1617 0.950 . S
C1640 C1639 1.397 . S
C1640 C1641 1.334 . S
C1641 H1618 0.950 . S
C1641 C1640 1.334 . S
C1641 C1642 1.287 . S
C1642 C1641 1.287 . S
C1642 C1643 1.524 . S
C1642 H1661 0.913 . S
C1643 H1619 0.950 . S
C1643 C1642 1.524 . S
C1643 C1644 1.415 . S
C1644 H1620 0.950 . S
C1644 C1639 1.363 . S
C1644 C1643 1.415 . S
C1645 H1621 0.951 . S
C1645 C1646 1.366 . S
C1645 C1647 1.388 . S
C1646 C1645 1.366 . S
C1646 C1650 1.385 . S
C1647 H1622 0.951 . S
C1647 C1645 1.388 . S
C1647 C1648 1.366 . S
C1648 C1647 1.366 . S
C1648 C1649 1.414 . S
C1648 C1651 1.499 . S
C1649 H1623 0.950 . S
C1649 C1648 1.414 . S
C1649 C1650 1.374 . S
C1650 H1624 0.950 . S
C1650 C1646 1.385 . S
C1650 C1649 1.374 . S
C1651 C1648 1.499 . S
C1651 C1652 1.373 . S
C1651 C1653 1.389 . S
C1652 H1625 0.950 . S
C1652 C1638 1.377 . S
C1652 C1651 1.373 . S
C1653 C1637 1.377 . S
C1653 C1651 1.389 . S
C1653 C1654 1.524 . S
C1654 C1653 1.524 . S
C1654 C1655 1.397 . S
C1654 C1659 1.363 . S
C1655 H1626 0.950 . S
C1655 C1654 1.397 . S
C1655 C1656 1.334 . S
C1656 H1627 0.950 . S
C1656 C1655 1.334 . S
C1656 C1657 1.287 . S
C1657 C1656 1.287 . S
C1657 C1658 1.524 . S
C1657 H1660 0.999 . S
C1658 H1628 0.950 . S
C1658 C1657 1.524 . S
C1658 C1659 1.415 . S
C1659 H1629 0.950 . S
C1659 C1654 1.363 . S
C1659 C1658 1.415 . S
H1660 C1657 0.999 . S
H1661 C1642 0.913 . S
H1662 C1680 0.951 . S
H1663 C1682 0.951 . S
H1664 C1684 0.950 . S
H1665 C1685 0.950 . S
H1666 C1687 0.950 . S
H1667 C1690 0.950 . S
H1668 C1691 0.950 . S
H1669 C1693 0.950 . S
H1670 C1694 0.950 . S
H1671 C1695 0.951 . S
H1672 C1697 0.934 1_545 S
H1673 C1699 0.953 . S
H1674 C1700 0.950 . S
H1675 C1702 0.950 . S
H1676 C1705 0.950 . S
H1677 C1706 0.950 . S
H1678 C1708 0.950 . S
H1679 C1709 0.938 1_545 S
C1680 H1662 0.951 . S
C1680 C1681 1.366 . S
C1680 C1682 1.388 . S
C1681 C1680 1.366 . S
C1681 C1685 1.385 . S
C1682 H1663 0.951 . S
C1682 C1680 1.388 . S
C1682 C1683 1.366 . S
C1683 C1682 1.366 . S
C1683 C1684 1.414 . S
C1683 C1686 1.499 . S
C1684 H1664 0.950 . S
C1684 C1683 1.414 . S
C1684 C1685 1.374 . S
C1685 H1665 0.950 . S
C1685 C1681 1.385 . S
C1685 C1684 1.374 . S
C1686 C1683 1.499 . S
C1686 C1687 1.373 . S
C1686 C1688 1.389 . S
C1687 H1666 0.950 . S
C1687 C1686 1.373 . S
C1687 C1703 1.377 . S
C1688 C1686 1.389 . S
C1688 C1689 1.524 . S
C1688 C1702 1.377 . S
C1689 C1688 1.524 . S
C1689 C1690 1.397 . S
C1689 C1694 1.363 . S
C1690 H1667 0.950 . S
C1690 C1689 1.397 . S
C1690 C1691 1.334 . S
C1691 H1668 0.950 . S
C1691 C1690 1.334 . S
C1691 C1692 1.287 . S
C1692 C1691 1.287 . S
C1692 C1693 1.524 . S
C1692 H1711 0.913 . S
C1693 H1669 0.950 . S
C1693 C1692 1.524 . S
C1693 C1694 1.415 . S
C1694 H1670 0.950 . S
C1694 C1689 1.363 . S
C1694 C1693 1.415 . S
C1695 H1671 0.951 . S
C1695 C1696 1.366 . S
C1695 C1697 1.388 . S
C1696 C1695 1.366 . S
C1696 C1700 1.385 . S
C1697 H1672 0.934 1_565 S
C1697 C1695 1.388 . S
C1697 C1698 1.366 1_566 S
C1698 C1697 1.366 1_544 S
C1698 C1699 1.415 1_545 S
C1698 C1701 1.498 . S
C1699 H1673 0.953 . S
C1699 C1698 1.415 1_565 S
C1699 C1700 1.371 1_554 S
C1700 H1674 0.950 . S
C1700 C1696 1.385 . S
C1700 C1699 1.371 1_556 S
C1701 C1698 1.498 . S
C1701 C1702 1.373 . S
C1701 C1703 1.389 . S
C1702 H1675 0.950 . S
C1702 C1688 1.377 . S
C1702 C1701 1.373 . S
C1703 C1687 1.377 . S
C1703 C1701 1.389 . S
C1703 C1704 1.524 1_545 S
C1704 C1703 1.524 1_565 S
C1704 C1705 1.397 . S
C1704 C1709 1.363 . S
C1705 H1676 0.950 . S
C1705 C1704 1.397 . S
C1705 C1706 1.334 . S
C1706 H1677 0.950 . S
C1706 C1705 1.334 . S
C1706 C1707 1.287 . S
C1707 C1706 1.287 . S
C1707 C1708 1.524 . S
C1707 H1710 0.999 . S
C1708 H1678 0.950 . S
C1708 C1707 1.524 . S
C1708 C1709 1.415 . S
C1709 H1679 0.938 1_565 S
C1709 C1704 1.363 . S
C1709 C1708 1.415 . S
H1710 C1707 0.999 . S
H1711 C1692 0.913 . S
H1712 C1730 0.951 . S
H1713 C1732 0.951 . S
H1714 C1734 0.950 . S
H1715 C1735 0.950 . S
H1716 C1737 0.950 . S
H1717 C1740 0.950 . S
H1718 C1741 0.950 . S
H1719 C1743 0.950 . S
H1720 C1744 0.950 . S
H1721 C1745 0.951 . S
H1722 C1747 0.951 . S
H1723 C1749 0.950 . S
H1724 C1750 0.950 . S
H1725 C1752 0.950 . S
H1726 C1755 0.950 . S
H1727 C1756 0.950 . S
H1728 C1758 0.950 . S
H1729 C1759 0.950 . S
C1730 H1712 0.951 . S
C1730 C1731 1.366 . S
C1730 C1732 1.388 . S
C1731 C1730 1.366 . S
C1731 C1735 1.385 . S
C1732 H1713 0.951 . S
C1732 C1730 1.388 . S
C1732 C1733 1.366 . S
C1733 C1732 1.366 . S
C1733 C1734 1.414 . S
C1733 C1736 1.499 . S
C1734 H1714 0.950 . S
C1734 C1733 1.414 . S
C1734 C1735 1.374 . S
C1735 H1715 0.950 . S
C1735 C1731 1.385 . S
C1735 C1734 1.374 . S
C1736 C1733 1.499 . S
C1736 C1737 1.373 . S
C1736 C1738 1.389 . S
C1737 H1716 0.950 . S
C1737 C1736 1.373 . S
C1737 C1753 1.377 . S
C1738 C1736 1.389 . S
C1738 C1739 1.524 . S
C1738 C1752 1.377 . S
C1739 C1738 1.524 . S
C1739 C1740 1.397 . S
C1739 C1744 1.363 . S
C1740 H1717 0.950 . S
C1740 C1739 1.397 . S
C1740 C1741 1.334 . S
C1741 H1718 0.950 . S
C1741 C1740 1.334 . S
C1741 C1742 1.287 . S
C1742 C1741 1.287 . S
C1742 C1743 1.524 . S
C1742 H1761 0.913 . S
C1743 H1719 0.950 . S
C1743 C1742 1.524 . S
C1743 C1744 1.415 . S
C1744 H1720 0.950 . S
C1744 C1739 1.363 . S
C1744 C1743 1.415 . S
C1745 H1721 0.951 . S
C1745 C1746 1.366 . S
C1745 C1747 1.388 . S
C1746 C1745 1.366 . S
C1746 C1750 1.385 . S
C1747 H1722 0.951 . S
C1747 C1745 1.388 . S
C1747 C1748 1.366 . S
C1748 C1747 1.366 . S
C1748 C1749 1.414 . S
C1748 C1751 1.499 . S
C1749 H1723 0.950 . S
C1749 C1748 1.414 . S
C1749 C1750 1.374 . S
C1750 H1724 0.950 . S
C1750 C1746 1.385 . S
C1750 C1749 1.374 . S
C1751 C1748 1.499 . S
C1751 C1752 1.373 . S
C1751 C1753 1.389 . S
C1752 H1725 0.950 . S
C1752 C1738 1.377 . S
C1752 C1751 1.373 . S
C1753 C1737 1.377 . S
C1753 C1751 1.389 . S
C1753 C1754 1.524 . S
C1754 C1753 1.524 . S
C1754 C1755 1.397 . S
C1754 C1759 1.363 . S
C1755 H1726 0.950 . S
C1755 C1754 1.397 . S
C1755 C1756 1.334 . S
C1756 H1727 0.950 . S
C1756 C1755 1.334 . S
C1756 C1757 1.287 . S
C1757 C1756 1.287 . S
C1757 C1758 1.524 . S
C1757 H1760 0.999 . S
C1758 H1728 0.950 . S
C1758 C1757 1.524 . S
C1758 C1759 1.415 . S
C1759 H1729 0.950 . S
C1759 C1754 1.363 . S
C1759 C1758 1.415 . S
H1760 C1757 0.999 . S
H1761 C1742 0.913 . S
H1762 C1780 0.951 . S
H1763 C1782 0.951 . S
H1764 C1784 0.950 . S
H1765 C1785 0.950 . S
H1766 C1787 0.950 . S
H1767 C1790 0.950 . S
H1768 C1791 0.950 . S
H1769 C1793 0.950 . S
H1770 C1794 0.950 . S
H1771 C1795 0.951 . S
H1772 C1797 0.951 . S
H1773 C1799 0.950 . S
H1774 C1800 0.950 . S
H1775 C1802 0.950 . S
H1776 C1805 0.950 . S
H1777 C1806 0.950 . S
H1778 C1808 0.950 . S
H1779 C1809 0.950 . S
C1780 H1762 0.951 . S
C1780 C1781 1.366 . S
C1780 C1782 1.388 1_554 S
C1781 C1780 1.366 . S
C1781 C1785 1.385 . S
C1782 H1763 0.951 . S
C1782 C1780 1.388 1_556 S
C1782 C1783 1.366 . S
C1783 C1782 1.366 . S
C1783 C1784 1.414 1_556 S
C1783 C1786 1.499 . S
C1784 H1764 0.950 . S
C1784 C1783 1.414 1_554 S
C1784 C1785 1.374 . S
C1785 H1765 0.950 . S
C1785 C1781 1.385 . S
C1785 C1784 1.374 . S
C1786 C1783 1.499 . S
C1786 C1787 1.373 . S
C1786 C1788 1.389 . S
C1787 H1766 0.950 . S
C1787 C1786 1.373 . S
C1787 C1803 1.377 . S
C1788 C1786 1.389 . S
C1788 C1789 1.524 . S
C1788 C1802 1.377 . S
C1789 C1788 1.524 . S
C1789 C1790 1.397 . S
C1789 C1794 1.363 . S
C1790 H1767 0.950 . S
C1790 C1789 1.397 . S
C1790 C1791 1.334 . S
C1791 H1768 0.950 . S
C1791 C1790 1.334 . S
C1791 C1792 1.287 . S
C1792 C1791 1.287 . S
C1792 C1793 1.524 . S
C1792 H1811 0.913 . S
C1793 H1769 0.950 . S
C1793 C1792 1.524 . S
C1793 C1794 1.415 . S
C1794 H1770 0.950 . S
C1794 C1789 1.363 . S
C1794 C1793 1.415 . S
C1795 H1771 0.951 . S
C1795 C1796 1.366 . S
C1795 C1797 1.388 . S
C1796 C1795 1.366 . S
C1796 C1800 1.385 . S
C1797 H1772 0.951 . S
C1797 C1795 1.388 . S
C1797 C1798 1.366 . S
C1798 C1797 1.366 . S
C1798 C1799 1.414 . S
C1798 C1801 1.499 . S
C1799 H1773 0.950 . S
C1799 C1798 1.414 . S
C1799 C1800 1.374 . S
C1800 H1774 0.950 . S
C1800 C1796 1.385 . S
C1800 C1799 1.374 . S
C1801 C1798 1.499 . S
C1801 C1802 1.373 . S
C1801 C1803 1.389 . S
C1802 H1775 0.950 . S
C1802 C1788 1.377 . S
C1802 C1801 1.373 . S
C1803 C1787 1.377 . S
C1803 C1801 1.389 . S
C1803 C1804 1.524 . S
C1804 C1803 1.524 . S
C1804 C1805 1.397 . S
C1804 C1809 1.363 . S
C1805 H1776 0.950 . S
C1805 C1804 1.397 . S
C1805 C1806 1.334 . S
C1806 H1777 0.950 . S
C1806 C1805 1.334 . S
C1806 C1807 1.287 . S
C1807 C1806 1.287 . S
C1807 C1808 1.524 . S
C1807 H1810 0.999 . S
C1808 H1778 0.950 . S
C1808 C1807 1.524 . S
C1808 C1809 1.415 . S
C1809 H1779 0.950 . S
C1809 C1804 1.363 . S
C1809 C1808 1.415 . S
H1810 C1807 0.999 . S
H1811 C1792 0.913 . S
H1812 C1830 0.951 . S
H1813 C1832 0.951 . S
H1814 C1834 0.950 . S
H1815 C1835 0.950 . S
H1816 C1837 0.950 . S
H1817 C1840 0.950 . S
H1818 C1841 0.950 . S
H1819 C1843 0.950 . S
H1820 C1844 0.950 . S
H1821 C1845 0.951 . S
H1822 C1847 0.951 . S
H1823 C1849 0.950 . S
H1824 C1850 0.950 . S
H1825 C1852 0.950 . S
H1826 C1855 0.950 . S
H1827 C1856 0.950 . S
H1828 C1858 0.950 . S
H1829 C1859 0.950 . S
C1830 H1812 0.951 . S
C1830 C1831 1.366 . S
C1830 C1832 1.388 . S
C1831 C1830 1.366 . S
C1831 C1835 1.385 . S
C1832 H1813 0.951 . S
C1832 C1830 1.388 . S
C1832 C1833 1.366 . S
C1833 C1832 1.366 . S
C1833 C1834 1.414 . S
C1833 C1836 1.499 . S
C1834 H1814 0.950 . S
C1834 C1833 1.414 . S
C1834 C1835 1.374 . S
C1835 H1815 0.950 . S
C1835 C1831 1.385 . S
C1835 C1834 1.374 . S
C1836 C1833 1.499 . S
C1836 C1837 1.373 . S
C1836 C1838 1.389 . S
C1837 H1816 0.950 . S
C1837 C1836 1.373 . S
C1837 C1853 1.377 . S
C1838 C1836 1.389 . S
C1838 C1839 1.524 . S
C1838 C1852 1.377 . S
C1839 C1838 1.524 . S
C1839 C1840 1.397 . S
C1839 C1844 1.363 . S
C1840 H1817 0.950 . S
C1840 C1839 1.397 . S
C1840 C1841 1.334 . S
C1841 H1818 0.950 . S
C1841 C1840 1.334 . S
C1841 C1842 1.287 . S
C1842 C1841 1.287 . S
C1842 C1843 1.524 . S
C1842 H1861 0.913 . S
C1843 H1819 0.950 . S
C1843 C1842 1.524 . S
C1843 C1844 1.415 . S
C1844 H1820 0.950 . S
C1844 C1839 1.363 . S
C1844 C1843 1.415 . S
C1845 H1821 0.951 . S
C1845 C1846 1.366 . S
C1845 C1847 1.388 . S
C1846 C1845 1.366 . S
C1846 C1850 1.385 . S
C1847 H1822 0.951 . S
C1847 C1845 1.388 . S
C1847 C1848 1.366 . S
C1848 C1847 1.366 . S
C1848 C1849 1.414 . S
C1848 C1851 1.499 . S
C1849 H1823 0.950 . S
C1849 C1848 1.414 . S
C1849 C1850 1.374 . S
C1850 H1824 0.950 . S
C1850 C1846 1.385 . S
C1850 C1849 1.374 . S
C1851 C1848 1.499 . S
C1851 C1852 1.373 . S
C1851 C1853 1.389 . S
C1852 H1825 0.950 . S
C1852 C1838 1.377 . S
C1852 C1851 1.373 . S
C1853 C1837 1.377 . S
C1853 C1851 1.389 . S
C1853 C1854 1.524 . S
C1854 C1853 1.524 . S
C1854 C1855 1.397 . S
C1854 C1859 1.363 . S
C1855 H1826 0.950 . S
C1855 C1854 1.397 . S
C1855 C1856 1.334 . S
C1856 H1827 0.950 . S
C1856 C1855 1.334 . S
C1856 C1857 1.287 . S
C1857 C1856 1.287 . S
C1857 C1858 1.524 . S
C1857 H1860 0.999 . S
C1858 H1828 0.950 . S
C1858 C1857 1.524 . S
C1858 C1859 1.415 . S
C1859 H1829 0.950 . S
C1859 C1854 1.363 . S
C1859 C1858 1.415 . S
H1860 C1857 0.999 . S
H1861 C1842 0.913 . S
H1862 C1880 0.951 . S
H1863 C1882 0.951 . S
H1864 C1884 0.950 . S
H1865 C1885 0.950 . S
H1866 C1887 0.950 . S
H1867 C1890 0.950 . S
H1868 C1891 0.950 . S
H1869 C1893 0.950 . S
H1870 C1894 0.950 . S
H1871 C1895 0.951 . S
H1872 C1897 0.951 . S
H1873 C1899 0.950 . S
H1874 C1900 0.950 . S
H1875 C1902 0.950 . S
H1876 C1905 0.950 . S
H1877 C1906 0.950 . S
H1878 C1908 0.950 . S
H1879 C1909 0.950 . S
C1880 H1862 0.951 . S
C1880 C1881 1.366 . S
C1880 C1882 1.388 . S
C1881 C1880 1.366 . S
C1881 C1885 1.385 . S
C1882 H1863 0.951 . S
C1882 C1880 1.388 . S
C1882 C1883 1.366 . S
C1883 C1882 1.366 . S
C1883 C1884 1.414 . S
C1883 C1886 1.499 . S
C1884 H1864 0.950 . S
C1884 C1883 1.414 . S
C1884 C1885 1.374 . S
C1885 H1865 0.950 . S
C1885 C1881 1.385 . S
C1885 C1884 1.374 . S
C1886 C1883 1.499 . S
C1886 C1887 1.373 . S
C1886 C1888 1.389 . S
C1887 H1866 0.950 . S
C1887 C1886 1.373 . S
C1887 C1903 1.377 . S
C1888 C1886 1.389 . S
C1888 C1889 1.524 . S
C1888 C1902 1.377 . S
C1889 C1888 1.524 . S
C1889 C1890 1.397 . S
C1889 C1894 1.363 . S
C1890 H1867 0.950 . S
C1890 C1889 1.397 . S
C1890 C1891 1.334 . S
C1891 H1868 0.950 . S
C1891 C1890 1.334 . S
C1891 C1892 1.287 . S
C1892 C1891 1.287 . S
C1892 C1893 1.524 . S
C1892 H1911 0.913 . S
C1893 H1869 0.950 . S
C1893 C1892 1.524 . S
C1893 C1894 1.415 . S
C1894 H1870 0.950 . S
C1894 C1889 1.363 . S
C1894 C1893 1.415 . S
C1895 H1871 0.951 . S
C1895 C1896 1.366 . S
C1895 C1897 1.388 . S
C1896 C1895 1.366 . S
C1896 C1900 1.385 . S
C1897 H1872 0.951 . S
C1897 C1895 1.388 . S
C1897 C1898 1.366 . S
C1898 C1897 1.366 . S
C1898 C1899 1.414 . S
C1898 C1901 1.499 . S
C1899 H1873 0.950 . S
C1899 C1898 1.414 . S
C1899 C1900 1.374 . S
C1900 H1874 0.950 . S
C1900 C1896 1.385 . S
C1900 C1899 1.374 . S
C1901 C1898 1.499 . S
C1901 C1902 1.373 . S
C1901 C1903 1.389 . S
C1902 H1875 0.950 . S
C1902 C1888 1.377 . S
C1902 C1901 1.373 . S
C1903 C1887 1.377 . S
C1903 C1901 1.389 . S
C1903 C1904 1.524 . S
C1904 C1903 1.524 . S
C1904 C1905 1.397 . S
C1904 C1909 1.363 . S
C1905 H1876 0.950 . S
C1905 C1904 1.397 . S
C1905 C1906 1.334 . S
C1906 H1877 0.950 . S
C1906 C1905 1.334 . S
C1906 C1907 1.287 . S
C1907 C1906 1.287 . S
C1907 C1908 1.524 . S
C1907 H1910 0.999 . S
C1908 H1878 0.950 . S
C1908 C1907 1.524 . S
C1908 C1909 1.415 . S
C1909 H1879 0.950 . S
C1909 C1904 1.363 . S
C1909 C1908 1.415 . S
H1910 C1907 0.999 . S
H1911 C1892 0.913 . S
H1912 C1930 0.951 . S
H1913 C1932 0.951 . S
H1914 C1934 0.950 . S
H1915 C1935 0.950 . S
H1916 C1937 0.950 . S
H1917 C1940 0.950 . S
H1918 C1941 0.950 . S
H1919 C1943 0.950 . S
H1920 C1944 0.950 . S
H1921 C1945 0.951 . S
H1922 C1947 0.951 . S
H1923 C1949 0.950 . S
H1924 C1950 0.950 . S
H1925 C1952 0.950 . S
H1926 C1955 0.950 . S
H1927 C1956 0.950 . S
H1928 C1958 0.950 . S
H1929 C1959 0.950 . S
C1930 H1912 0.951 . S
C1930 C1931 1.366 . S
C1930 C1932 1.388 . S
C1931 C1930 1.366 . S
C1931 C1935 1.385 . S
C1932 H1913 0.951 . S
C1932 C1930 1.388 . S
C1932 C1933 1.366 . S
C1933 C1932 1.366 . S
C1933 C1934 1.414 . S
C1933 C1936 1.499 . S
C1934 H1914 0.950 . S
C1934 C1933 1.414 . S
C1934 C1935 1.374 . S
C1935 H1915 0.950 . S
C1935 C1931 1.385 . S
C1935 C1934 1.374 . S
C1936 C1933 1.499 . S
C1936 C1937 1.373 . S
C1936 C1938 1.389 . S
C1937 H1916 0.950 . S
C1937 C1936 1.373 . S
C1937 C1953 1.377 . S
C1938 C1936 1.389 . S
C1938 C1939 1.524 . S
C1938 C1952 1.377 . S
C1939 C1938 1.524 . S
C1939 C1940 1.397 . S
C1939 C1944 1.363 . S
C1940 H1917 0.950 . S
C1940 C1939 1.397 . S
C1940 C1941 1.334 . S
C1941 H1918 0.950 . S
C1941 C1940 1.334 . S
C1941 C1942 1.287 . S
C1942 C1941 1.287 . S
C1942 C1943 1.524 . S
C1942 H1961 0.913 . S
C1943 H1919 0.950 . S
C1943 C1942 1.524 . S
C1943 C1944 1.415 . S
C1944 H1920 0.950 . S
C1944 C1939 1.363 . S
C1944 C1943 1.415 . S
C1945 H1921 0.951 . S
C1945 C1946 1.366 . S
C1945 C1947 1.388 . S
C1946 C1945 1.366 . S
C1946 C1950 1.385 . S
C1947 H1922 0.951 . S
C1947 C1945 1.388 . S
C1947 C1948 1.366 . S
C1948 C1947 1.366 . S
C1948 C1949 1.414 . S
C1948 C1951 1.499 . S
C1949 H1923 0.950 . S
C1949 C1948 1.414 . S
C1949 C1950 1.374 . S
C1950 H1924 0.950 . S
C1950 C1946 1.385 . S
C1950 C1949 1.374 . S
C1951 C1948 1.499 . S
C1951 C1952 1.373 . S
C1951 C1953 1.389 . S
C1952 H1925 0.950 . S
C1952 C1938 1.377 . S
C1952 C1951 1.373 . S
C1953 C1937 1.377 . S
C1953 C1951 1.389 . S
C1953 C1954 1.524 . S
C1954 C1953 1.524 . S
C1954 C1955 1.397 . S
C1954 C1959 1.363 . S
C1955 H1926 0.950 . S
C1955 C1954 1.397 . S
C1955 C1956 1.334 . S
C1956 H1927 0.950 . S
C1956 C1955 1.334 . S
C1956 C1957 1.287 . S
C1957 C1956 1.287 . S
C1957 C1958 1.524 . S
C1957 H1960 0.999 . S
C1958 H1928 0.950 . S
C1958 C1957 1.524 . S
C1958 C1959 1.415 . S
C1959 H1929 0.950 . S
C1959 C1954 1.363 . S
C1959 C1958 1.415 . S
H1960 C1957 0.999 . S
H1961 C1942 0.913 . S
H1962 C1980 0.936 1_455 S
H1963 C1982 0.951 . S
H1964 C1984 0.950 1_545 S
H1965 C1985 0.950 . S
H1966 C1987 0.950 . S
H1967 C1990 0.950 . S
H1968 C1991 0.950 . S
H1969 C1993 0.950 . S
H1970 C1994 0.950 . S
H1971 C1995 0.951 . S
H1972 C1997 0.951 . S
H1973 C1999 0.950 . S
H1974 C2000 0.950 . S
H1975 C2002 0.950 . S
H1976 C2005 0.950 . S
H1977 C2006 0.950 . S
H1978 C2008 0.950 . S
H1979 C2009 0.950 . S
C1980 H1962 0.936 1_655 S
C1980 C1981 1.366 . S
C1980 C1982 1.388 1_655 S
C1981 C1980 1.366 . S
C1981 C1985 1.385 . S
C1982 H1963 0.951 . S
C1982 C1980 1.388 1_455 S
C1982 C1983 1.369 1_565 S
C1983 C1982 1.369 1_545 S
C1983 C1984 1.405 1_445 S
C1983 C1986 1.504 . S
C1984 H1964 0.950 1_565 S
C1984 C1983 1.405 1_665 S
C1984 C1985 1.374 . S
C1985 H1965 0.950 . S
C1985 C1981 1.385 . S
C1985 C1984 1.374 . S
C1986 C1983 1.504 . S
C1986 C1987 1.373 . S
C1986 C1988 1.389 . S
C1987 H1966 0.950 . S
C1987 C1986 1.373 . S
C1987 C2003 1.377 . S
C1988 C1986 1.389 . S
C1988 C1989 1.524 . S
C1988 C2002 1.377 . S
C1989 C1988 1.524 . S
C1989 C1990 1.397 1_455 S
C1989 C1994 1.363 . S
C1990 H1967 0.950 . S
C1990 C1989 1.397 1_655 S
C1990 C1991 1.334 . S
C1991 H1968 0.950 . S
C1991 C1990 1.334 . S
C1991 C1992 1.287 . S
C1992 C1991 1.287 . S
C1992 C1993 1.524 1_655 S
C1992 H2011 0.913 . S
C1993 H1969 0.950 . S
C1993 C1992 1.524 1_455 S
C1993 C1994 1.415 . S
C1994 H1970 0.950 . S
C1994 C1989 1.363 . S
C1994 C1993 1.415 . S
C1995 H1971 0.951 . S
C1995 C1996 1.366 . S
C1995 C1997 1.388 . S
C1996 C1995 1.366 . S
C1996 C2000 1.385 . S
C1997 H1972 0.951 . S
C1997 C1995 1.388 . S
C1997 C1998 1.366 . S
C1998 C1997 1.366 . S
C1998 C1999 1.414 . S
C1998 C2001 1.499 . S
C1999 H1973 0.950 . S
C1999 C1998 1.414 . S
C1999 C2000 1.374 . S
C2000 H1974 0.950 . S
C2000 C1996 1.385 . S
C2000 C1999 1.374 . S
C2001 C1998 1.499 . S
C2001 C2002 1.373 . S
C2001 C2003 1.389 . S
C2002 H1975 0.950 . S
C2002 C1988 1.377 . S
C2002 C2001 1.373 . S
C2003 C1987 1.377 . S
C2003 C2001 1.389 . S
C2003 C2004 1.524 . S
C2004 C2003 1.524 . S
C2004 C2005 1.397 . S
C2004 C2009 1.363 . S
C2005 H1976 0.950 . S
C2005 C2004 1.397 . S
C2005 C2006 1.334 . S
C2006 H1977 0.950 . S
C2006 C2005 1.334 . S
C2006 C2007 1.287 . S
C2007 C2006 1.287 . S
C2007 C2008 1.524 . S
C2007 H2010 0.999 . S
C2008 H1978 0.950 . S
C2008 C2007 1.524 . S
C2008 C2009 1.415 . S
C2009 H1979 0.950 . S
C2009 C2004 1.363 . S
C2009 C2008 1.415 . S
H2010 C2007 0.999 . S
H2011 C1992 0.913 . S
H2012 C2030 0.951 . S
H2013 C2032 0.951 . S
H2014 C2034 0.950 . S
H2015 C2035 0.950 . S
H2016 C2037 0.950 . S
H2017 C2040 0.950 . S
H2018 C2041 0.950 . S
H2019 C2043 0.950 . S
H2020 C2044 0.950 . S
H2021 C2045 0.951 . S
H2022 C2047 0.951 . S
H2023 C2049 0.950 . S
H2024 C2050 0.950 . S
H2025 C2052 0.950 . S
H2026 C2055 0.950 . S
H2027 C2056 0.950 . S
H2028 C2058 0.950 . S
H2029 C2059 0.950 . S
C2030 H2012 0.951 . S
C2030 C2031 1.366 . S
C2030 C2032 1.388 . S
C2031 C2030 1.366 . S
C2031 C2035 1.385 . S
C2032 H2013 0.951 . S
C2032 C2030 1.388 . S
C2032 C2033 1.366 . S
C2033 C2032 1.366 . S
C2033 C2034 1.414 . S
C2033 C2036 1.499 . S
C2034 H2014 0.950 . S
C2034 C2033 1.414 . S
C2034 C2035 1.374 . S
C2035 H2015 0.950 . S
C2035 C2031 1.385 . S
C2035 C2034 1.374 . S
C2036 C2033 1.499 . S
C2036 C2037 1.373 . S
C2036 C2038 1.389 . S
C2037 H2016 0.950 . S
C2037 C2036 1.373 . S
C2037 C2053 1.377 . S
C2038 C2036 1.389 . S
C2038 C2039 1.524 . S
C2038 C2052 1.377 . S
C2039 C2038 1.524 . S
C2039 C2040 1.397 . S
C2039 C2044 1.363 . S
C2040 H2017 0.950 . S
C2040 C2039 1.397 . S
C2040 C2041 1.334 . S
C2041 H2018 0.950 . S
C2041 C2040 1.334 . S
C2041 C2042 1.287 . S
C2042 C2041 1.287 . S
C2042 C2043 1.524 . S
C2042 H2061 0.913 . S
C2043 H2019 0.950 . S
C2043 C2042 1.524 . S
C2043 C2044 1.415 . S
C2044 H2020 0.950 . S
C2044 C2039 1.363 . S
C2044 C2043 1.415 . S
C2045 H2021 0.951 . S
C2045 C2046 1.366 . S
C2045 C2047 1.388 . S
C2046 C2045 1.366 . S
C2046 C2050 1.385 . S
C2047 H2022 0.951 . S
C2047 C2045 1.388 . S
C2047 C2048 1.366 . S
C2048 C2047 1.366 . S
C2048 C2049 1.414 . S
C2048 C2051 1.499 . S
C2049 H2023 0.950 . S
C2049 C2048 1.414 . S
C2049 C2050 1.374 . S
C2050 H2024 0.950 . S
C2050 C2046 1.385 . S
C2050 C2049 1.374 . S
C2051 C2048 1.499 . S
C2051 C2052 1.373 . S
C2051 C2053 1.389 . S
C2052 H2025 0.950 . S
C2052 C2038 1.377 . S
C2052 C2051 1.373 . S
C2053 C2037 1.377 . S
C2053 C2051 1.389 . S
C2053 C2054 1.524 . S
C2054 C2053 1.524 . S
C2054 C2055 1.397 . S
C2054 C2059 1.363 . S
C2055 H2026 0.950 . S
C2055 C2054 1.397 . S
C2055 C2056 1.334 . S
C2056 H2027 0.950 . S
C2056 C2055 1.334 . S
C2056 C2057 1.287 . S
C2057 C2056 1.287 . S
C2057 C2058 1.524 . S
C2057 H2060 0.999 . S
C2058 H2028 0.950 . S
C2058 C2057 1.524 . S
C2058 C2059 1.415 . S
C2059 H2029 0.950 . S
C2059 C2054 1.363 . S
C2059 C2058 1.415 . S
H2060 C2057 0.999 . S
H2061 C2042 0.913 . S
H2062 C2080 0.951 . S
H2063 C2082 0.951 . S
H2064 C2084 0.950 . S
H2065 C2085 0.950 . S
H2066 C2087 0.950 . S
H2067 C2090 0.950 . S
H2068 C2091 0.950 . S
H2069 C2093 0.950 . S
H2070 C2094 0.950 . S
H2071 C2095 0.951 . S
H2072 C2097 0.951 . S
H2073 C2099 0.950 . S
H2074 C2100 0.950 . S
H2075 C2102 0.950 . S
H2076 C2105 0.950 . S
H2077 C2106 0.950 . S
H2078 C2108 0.950 . S
H2079 C2109 0.950 . S
C2080 H2062 0.951 . S
C2080 C2081 1.366 . S
C2080 C2082 1.388 1_545 S
C2081 C2080 1.366 . S
C2081 C2085 1.385 . S
C2082 H2063 0.951 . S
C2082 C2080 1.388 1_565 S
C2082 C2083 1.366 . S
C2083 C2082 1.366 . S
C2083 C2084 1.414 1_565 S
C2083 C2086 1.499 . S
C2084 H2064 0.950 . S
C2084 C2083 1.414 1_545 S
C2084 C2085 1.374 . S
C2085 H2065 0.950 . S
C2085 C2081 1.385 . S
C2085 C2084 1.374 . S
C2086 C2083 1.499 . S
C2086 C2087 1.373 . S
C2086 C2088 1.389 . S
C2087 H2066 0.950 . S
C2087 C2086 1.373 . S
C2087 C2103 1.377 . S
C2088 C2086 1.389 . S
C2088 C2089 1.524 . S
C2088 C2102 1.377 . S
C2089 C2088 1.524 . S
C2089 C2090 1.397 . S
C2089 C2094 1.363 . S
C2090 H2067 0.950 . S
C2090 C2089 1.397 . S
C2090 C2091 1.334 . S
C2091 H2068 0.950 . S
C2091 C2090 1.334 . S
C2091 C2092 1.287 . S
C2092 C2091 1.287 . S
C2092 C2093 1.524 . S
C2092 H2111 0.913 . S
C2093 H2069 0.950 . S
C2093 C2092 1.524 . S
C2093 C2094 1.415 . S
C2094 H2070 0.950 . S
C2094 C2089 1.363 . S
C2094 C2093 1.415 . S
C2095 H2071 0.951 . S
C2095 C2096 1.366 . S
C2095 C2097 1.388 . S
C2096 C2095 1.366 . S
C2096 C2100 1.385 . S
C2097 H2072 0.951 . S
C2097 C2095 1.388 . S
C2097 C2098 1.366 . S
C2098 C2097 1.366 . S
C2098 C2099 1.414 . S
C2098 C2101 1.499 . S
C2099 H2073 0.950 . S
C2099 C2098 1.414 . S
C2099 C2100 1.374 . S
C2100 H2074 0.950 . S
C2100 C2096 1.385 . S
C2100 C2099 1.374 . S
C2101 C2098 1.499 . S
C2101 C2102 1.373 . S
C2101 C2103 1.389 . S
C2102 H2075 0.950 . S
C2102 C2088 1.377 . S
C2102 C2101 1.373 . S
C2103 C2087 1.377 . S
C2103 C2101 1.389 . S
C2103 C2104 1.524 . S
C2104 C2103 1.524 . S
C2104 C2105 1.397 . S
C2104 C2109 1.363 . S
C2105 H2076 0.950 . S
C2105 C2104 1.397 . S
C2105 C2106 1.334 . S
C2106 H2077 0.950 . S
C2106 C2105 1.334 . S
C2106 C2107 1.287 . S
C2107 C2106 1.287 . S
C2107 C2108 1.524 . S
C2107 H2110 0.999 . S
C2108 H2078 0.950 . S
C2108 C2107 1.524 . S
C2108 C2109 1.415 . S
C2109 H2079 0.950 . S
C2109 C2104 1.363 . S
C2109 C2108 1.415 . S
H2110 C2107 0.999 . S
H2111 C2092 0.913 . S
H2112 C2130 0.951 . S
H2113 C2132 0.951 . S
H2114 C2134 0.950 . S
H2115 C2135 0.950 . S
H2116 C2137 0.950 . S
H2117 C2140 0.950 . S
H2118 C2141 0.950 . S
H2119 C2143 0.950 . S
H2120 C2144 0.950 . S
H2121 C2145 0.951 . S
H2122 C2147 0.951 . S
H2123 C2149 0.950 . S
H2124 C2150 0.950 . S
H2125 C2152 0.950 . S
H2126 C2155 0.950 . S
H2127 C2156 0.950 . S
H2128 C2158 0.950 . S
H2129 C2159 0.950 . S
C2130 H2112 0.951 . S
C2130 C2131 1.366 . S
C2130 C2132 1.388 . S
C2131 C2130 1.366 . S
C2131 C2135 1.385 . S
C2132 H2113 0.951 . S
C2132 C2130 1.388 . S
C2132 C2133 1.366 . S
C2133 C2132 1.366 . S
C2133 C2134 1.414 . S
C2133 C2136 1.499 . S
C2134 H2114 0.950 . S
C2134 C2133 1.414 . S
C2134 C2135 1.374 . S
C2135 H2115 0.950 . S
C2135 C2131 1.385 . S
C2135 C2134 1.374 . S
C2136 C2133 1.499 . S
C2136 C2137 1.373 . S
C2136 C2138 1.389 . S
C2137 H2116 0.950 . S
C2137 C2136 1.373 . S
C2137 C2153 1.377 . S
C2138 C2136 1.389 . S
C2138 C2139 1.524 . S
C2138 C2152 1.377 . S
C2139 C2138 1.524 . S
C2139 C2140 1.397 . S
C2139 C2144 1.363 . S
C2140 H2117 0.950 . S
C2140 C2139 1.397 . S
C2140 C2141 1.334 . S
C2141 H2118 0.950 . S
C2141 C2140 1.334 . S
C2141 C2142 1.287 . S
C2142 C2141 1.287 . S
C2142 C2143 1.524 . S
C2142 H2161 0.913 . S
C2143 H2119 0.950 . S
C2143 C2142 1.524 . S
C2143 C2144 1.415 . S
C2144 H2120 0.950 . S
C2144 C2139 1.363 . S
C2144 C2143 1.415 . S
C2145 H2121 0.951 . S
C2145 C2146 1.366 . S
C2145 C2147 1.388 . S
C2146 C2145 1.366 . S
C2146 C2150 1.385 . S
C2147 H2122 0.951 . S
C2147 C2145 1.388 . S
C2147 C2148 1.366 . S
C2148 C2147 1.366 . S
C2148 C2149 1.414 . S
C2148 C2151 1.499 . S
C2149 H2123 0.950 . S
C2149 C2148 1.414 . S
C2149 C2150 1.374 . S
C2150 H2124 0.950 . S
C2150 C2146 1.385 . S
C2150 C2149 1.374 . S
C2151 C2148 1.499 . S
C2151 C2152 1.373 . S
C2151 C2153 1.389 . S
C2152 H2125 0.950 . S
C2152 C2138 1.377 . S
C2152 C2151 1.373 . S
C2153 C2137 1.377 . S
C2153 C2151 1.389 . S
C2153 C2154 1.524 . S
C2154 C2153 1.524 . S
C2154 C2155 1.397 . S
C2154 C2159 1.363 . S
C2155 H2126 0.950 . S
C2155 C2154 1.397 . S
C2155 C2156 1.334 . S
C2156 H2127 0.950 . S
C2156 C2155 1.334 . S
C2156 C2157 1.287 . S
C2157 C2156 1.287 . S
C2157 C2158 1.524 . S
C2157 H2160 0.999 . S
C2158 H2128 0.950 . S
C2158 C2157 1.524 . S
C2158 C2159 1.415 . S
C2159 H2129 0.950 . S
C2159 C2154 1.363 . S
C2159 C2158 1.415 . S
H2160 C2157 0.999 . S
H2161 C2142 0.913 . S
H2162 C2180 0.953 . S
H2163 C2182 0.951 . S
H2164 C2184 0.950 . S
H2165 C2185 0.950 . S
H2166 C2187 0.950 1_455 S
H2167 C2190 0.950 . S
H2168 C2191 0.950 . S
H2169 C2193 0.950 . S
H2170 C2194 0.950 . S
H2171 C2195 0.951 . S
H2172 C2197 0.951 . S
H2173 C2199 0.950 . S
H2174 C2200 0.950 . S
H2175 C2202 0.950 . S
H2176 C2205 0.950 . S
H2177 C2206 0.929 1_655 S
H2178 C2208 0.950 . S
H2179 C2209 0.950 . S
C2180 H2162 0.953 . S
C2180 C2181 1.361 1_655 S
C2180 C2182 1.390 . S
C2181 C2180 1.361 1_455 S
C2181 C2185 1.385 . S
C2182 H2163 0.951 . S
C2182 C2180 1.390 . S
C2182 C2183 1.366 . S
C2183 C2182 1.366 . S
C2183 C2184 1.414 1_655 S
C2183 C2186 1.499 . S
C2184 H2164 0.950 . S
C2184 C2183 1.414 1_455 S
C2184 C2185 1.374 . S
C2185 H2165 0.950 . S
C2185 C2181 1.385 . S
C2185 C2184 1.374 . S
C2186 C2183 1.499 . S
C2186 C2187 1.373 . S
C2186 C2188 1.389 . S
C2187 H2166 0.950 1_655 S
C2187 C2186 1.373 . S
C2187 C2203 1.377 . S
C2188 C2186 1.389 . S
C2188 C2189 1.524 . S
C2188 C2202 1.377 . S
C2189 C2188 1.524 . S
C2189 C2190 1.397 . S
C2189 C2194 1.363 . S
C2190 H2167 0.950 . S
C2190 C2189 1.397 . S
C2190 C2191 1.334 . S
C2191 H2168 0.950 . S
C2191 C2190 1.334 . S
C2191 C2192 1.287 . S
C2192 C2191 1.287 . S
C2192 C2193 1.524 . S
C2192 H2211 0.913 . S
C2193 H2169 0.950 . S
C2193 C2192 1.524 . S
C2193 C2194 1.415 . S
C2194 H2170 0.950 . S
C2194 C2189 1.363 . S
C2194 C2193 1.415 . S
C2195 H2171 0.951 . S
C2195 C2196 1.366 . S
C2195 C2197 1.388 . S
C2196 C2195 1.366 . S
C2196 C2200 1.385 . S
C2197 H2172 0.951 . S
C2197 C2195 1.388 . S
C2197 C2198 1.366 . S
C2198 C2197 1.366 . S
C2198 C2199 1.414 . S
C2198 C2201 1.499 . S
C2199 H2173 0.950 . S
C2199 C2198 1.414 . S
C2199 C2200 1.374 . S
C2200 H2174 0.950 . S
C2200 C2196 1.385 . S
C2200 C2199 1.374 . S
C2201 C2198 1.499 . S
C2201 C2202 1.373 . S
C2201 C2203 1.389 . S
C2202 H2175 0.950 . S
C2202 C2188 1.377 . S
C2202 C2201 1.373 . S
C2203 C2187 1.377 . S
C2203 C2201 1.389 . S
C2203 C2204 1.518 1_655 S
C2204 C2203 1.518 1_455 S
C2204 C2205 1.392 1_455 S
C2204 C2209 1.374 . S
C2205 H2176 0.950 . S
C2205 C2204 1.392 1_655 S
C2205 C2206 1.312 1_655 S
C2206 H2177 0.929 1_455 S
C2206 C2205 1.312 1_455 S
C2206 C2207 1.333 . S
C2207 C2206 1.333 . S
C2207 C2208 1.524 . S
C2207 H2210 0.999 . S
C2208 H2178 0.950 . S
C2208 C2207 1.524 . S
C2208 C2209 1.415 . S
C2209 H2179 0.950 . S
C2209 C2204 1.374 . S
C2209 C2208 1.415 . S
H2210 C2207 0.999 . S
H2211 C2192 0.913 . S
H2212 C2230 0.951 . S
H2213 C2232 0.951 . S
H2214 C2234 0.950 . S
H2215 C2235 0.950 . S
H2216 C2237 0.950 . S
H2217 C2240 0.950 . S
H2218 C2241 0.950 . S
H2219 C2243 0.950 . S
H2220 C2244 0.950 . S
H2221 C2245 0.951 . S
H2222 C2247 0.951 . S
H2223 C2249 0.950 . S
H2224 C2250 0.950 . S
H2225 C2252 0.950 . S
H2226 C2255 0.950 . S
H2227 C2256 0.950 . S
H2228 C2258 0.950 . S
H2229 C2259 0.950 . S
C2230 H2212 0.951 . S
C2230 C2231 1.366 . S
C2230 C2232 1.388 . S
C2231 C2230 1.366 . S
C2231 C2235 1.385 . S
C2232 H2213 0.951 . S
C2232 C2230 1.388 . S
C2232 C2233 1.366 . S
C2233 C2232 1.366 . S
C2233 C2234 1.414 . S
C2233 C2236 1.499 . S
C2234 H2214 0.950 . S
C2234 C2233 1.414 . S
C2234 C2235 1.374 . S
C2235 H2215 0.950 . S
C2235 C2231 1.385 . S
C2235 C2234 1.374 . S
C2236 C2233 1.499 . S
C2236 C2237 1.373 . S
C2236 C2238 1.389 . S
C2237 H2216 0.950 . S
C2237 C2236 1.373 . S
C2237 C2253 1.377 . S
C2238 C2236 1.389 . S
C2238 C2239 1.524 . S
C2238 C2252 1.377 . S
C2239 C2238 1.524 . S
C2239 C2240 1.397 . S
C2239 C2244 1.363 . S
C2240 H2217 0.950 . S
C2240 C2239 1.397 . S
C2240 C2241 1.334 . S
C2241 H2218 0.950 . S
C2241 C2240 1.334 . S
C2241 C2242 1.287 . S
C2242 C2241 1.287 . S
C2242 C2243 1.524 . S
C2242 H2261 0.913 . S
C2243 H2219 0.950 . S
C2243 C2242 1.524 . S
C2243 C2244 1.415 . S
C2244 H2220 0.950 . S
C2244 C2239 1.363 . S
C2244 C2243 1.415 . S
C2245 H2221 0.951 . S
C2245 C2246 1.366 . S
C2245 C2247 1.388 . S
C2246 C2245 1.366 . S
C2246 C2250 1.385 . S
C2247 H2222 0.951 . S
C2247 C2245 1.388 . S
C2247 C2248 1.366 . S
C2248 C2247 1.366 . S
C2248 C2249 1.414 . S
C2248 C2251 1.499 . S
C2249 H2223 0.950 . S
C2249 C2248 1.414 . S
C2249 C2250 1.374 . S
C2250 H2224 0.950 . S
C2250 C2246 1.385 . S
C2250 C2249 1.374 . S
C2251 C2248 1.499 . S
C2251 C2252 1.373 . S
C2251 C2253 1.389 . S
C2252 H2225 0.950 . S
C2252 C2238 1.377 . S
C2252 C2251 1.373 . S
C2253 C2237 1.377 . S
C2253 C2251 1.389 . S
C2253 C2254 1.524 . S
C2254 C2253 1.524 . S
C2254 C2255 1.397 . S
C2254 C2259 1.363 . S
C2255 H2226 0.950 . S
C2255 C2254 1.397 . S
C2255 C2256 1.334 . S
C2256 H2227 0.950 . S
C2256 C2255 1.334 . S
C2256 C2257 1.287 . S
C2257 C2256 1.287 . S
C2257 C2258 1.524 . S
C2257 H2260 0.999 . S
C2258 H2228 0.950 . S
C2258 C2257 1.524 . S
C2258 C2259 1.415 . S
C2259 H2229 0.950 . S
C2259 C2254 1.363 . S
C2259 C2258 1.415 . S
H2260 C2257 0.999 . S
H2261 C2242 0.913 . S
H2262 C2280 0.951 . S
H2263 C2282 0.951 . S
H2264 C2284 0.950 . S
H2265 C2285 0.950 . S
H2266 C2287 0.950 . S
H2267 C2290 0.950 . S
H2268 C2291 0.950 . S
H2269 C2293 0.950 . S
H2270 C2294 0.950 . S
H2271 C2295 0.951 . S
H2272 C2297 0.951 . S
H2273 C2299 0.950 . S
H2274 C2300 0.950 . S
H2275 C2302 0.950 . S
H2276 C2305 0.950 . S
H2277 C2306 0.950 . S
H2278 C2308 0.950 . S
H2279 C2309 0.950 . S
C2280 H2262 0.951 . S
C2280 C2281 1.366 . S
C2280 C2282 1.388 . S
C2281 C2280 1.366 . S
C2281 C2285 1.385 . S
C2282 H2263 0.951 . S
C2282 C2280 1.388 . S
C2282 C2283 1.366 . S
C2283 C2282 1.366 . S
C2283 C2284 1.414 . S
C2283 C2286 1.499 . S
C2284 H2264 0.950 . S
C2284 C2283 1.414 . S
C2284 C2285 1.374 . S
C2285 H2265 0.950 . S
C2285 C2281 1.385 . S
C2285 C2284 1.374 . S
C2286 C2283 1.499 . S
C2286 C2287 1.373 . S
C2286 C2288 1.389 . S
C2287 H2266 0.950 . S
C2287 C2286 1.373 . S
C2287 C2303 1.377 . S
C2288 C2286 1.389 . S
C2288 C2289 1.524 . S
C2288 C2302 1.377 . S
C2289 C2288 1.524 . S
C2289 C2290 1.397 . S
C2289 C2294 1.363 . S
C2290 H2267 0.950 . S
C2290 C2289 1.397 . S
C2290 C2291 1.334 . S
C2291 H2268 0.950 . S
C2291 C2290 1.334 . S
C2291 C2292 1.287 . S
C2292 C2291 1.287 . S
C2292 C2293 1.524 . S
C2292 H2311 0.913 . S
C2293 H2269 0.950 . S
C2293 C2292 1.524 . S
C2293 C2294 1.415 . S
C2294 H2270 0.950 . S
C2294 C2289 1.363 . S
C2294 C2293 1.415 . S
C2295 H2271 0.951 . S
C2295 C2296 1.366 . S
C2295 C2297 1.388 . S
C2296 C2295 1.366 . S
C2296 C2300 1.385 . S
C2297 H2272 0.951 . S
C2297 C2295 1.388 . S
C2297 C2298 1.366 . S
C2298 C2297 1.366 . S
C2298 C2299 1.414 . S
C2298 C2301 1.499 . S
C2299 H2273 0.950 . S
C2299 C2298 1.414 . S
C2299 C2300 1.374 . S
C2300 H2274 0.950 . S
C2300 C2296 1.385 . S
C2300 C2299 1.374 . S
C2301 C2298 1.499 . S
C2301 C2302 1.373 . S
C2301 C2303 1.389 . S
C2302 H2275 0.950 . S
C2302 C2288 1.377 . S
C2302 C2301 1.373 . S
C2303 C2287 1.377 . S
C2303 C2301 1.389 . S
C2303 C2304 1.524 . S
C2304 C2303 1.524 . S
C2304 C2305 1.397 . S
C2304 C2309 1.363 . S
C2305 H2276 0.950 . S
C2305 C2304 1.397 . S
C2305 C2306 1.334 . S
C2306 H2277 0.950 . S
C2306 C2305 1.334 . S
C2306 C2307 1.287 . S
C2307 C2306 1.287 . S
C2307 C2308 1.524 . S
C2307 H2310 0.999 . S
C2308 H2278 0.950 . S
C2308 C2307 1.524 . S
C2308 C2309 1.415 . S
C2309 H2279 0.950 . S
C2309 C2304 1.363 . S
C2309 C2308 1.415 . S
H2310 C2307 0.999 . S
H2311 C2292 0.913 . S
H2312 C2330 0.951 . S
H2313 C2332 0.951 . S
H2314 C2334 0.950 . S
H2315 C2335 0.950 . S
H2316 C2337 0.950 . S
H2317 C2340 0.950 . S
H2318 C2341 0.950 . S
H2319 C2343 0.950 . S
H2320 C2344 0.950 . S
H2321 C2345 0.951 . S
H2322 C2347 0.951 . S
H2323 C2349 0.950 . S
H2324 C2350 0.950 . S
H2325 C2352 0.950 . S
H2326 C2355 0.950 . S
H2327 C2356 0.950 . S
H2328 C2358 0.950 . S
H2329 C2359 0.950 . S
C2330 H2312 0.951 . S
C2330 C2331 1.366 . S
C2330 C2332 1.388 . S
C2331 C2330 1.366 . S
C2331 C2335 1.385 . S
C2332 H2313 0.951 . S
C2332 C2330 1.388 . S
C2332 C2333 1.366 . S
C2333 C2332 1.366 . S
C2333 C2334 1.414 . S
C2333 C2336 1.499 . S
C2334 H2314 0.950 . S
C2334 C2333 1.414 . S
C2334 C2335 1.374 . S
C2335 H2315 0.950 . S
C2335 C2331 1.385 . S
C2335 C2334 1.374 . S
C2336 C2333 1.499 . S
C2336 C2337 1.373 . S
C2336 C2338 1.389 . S
C2337 H2316 0.950 . S
C2337 C2336 1.373 . S
C2337 C2353 1.377 . S
C2338 C2336 1.389 . S
C2338 C2339 1.524 . S
C2338 C2352 1.377 . S
C2339 C2338 1.524 . S
C2339 C2340 1.397 . S
C2339 C2344 1.363 . S
C2340 H2317 0.950 . S
C2340 C2339 1.397 . S
C2340 C2341 1.334 . S
C2341 H2318 0.950 . S
C2341 C2340 1.334 . S
C2341 C2342 1.287 . S
C2342 C2341 1.287 . S
C2342 C2343 1.524 . S
C2342 H2361 0.913 . S
C2343 H2319 0.950 . S
C2343 C2342 1.524 . S
C2343 C2344 1.415 . S
C2344 H2320 0.950 . S
C2344 C2339 1.363 . S
C2344 C2343 1.415 . S
C2345 H2321 0.951 . S
C2345 C2346 1.366 . S
C2345 C2347 1.388 . S
C2346 C2345 1.366 . S
C2346 C2350 1.385 . S
C2347 H2322 0.951 . S
C2347 C2345 1.388 . S
C2347 C2348 1.366 . S
C2348 C2347 1.366 . S
C2348 C2349 1.414 . S
C2348 C2351 1.499 . S
C2349 H2323 0.950 . S
C2349 C2348 1.414 . S
C2349 C2350 1.374 . S
C2350 H2324 0.950 . S
C2350 C2346 1.385 . S
C2350 C2349 1.374 . S
C2351 C2348 1.499 . S
C2351 C2352 1.373 . S
C2351 C2353 1.389 . S
C2352 H2325 0.950 . S
C2352 C2338 1.377 . S
C2352 C2351 1.373 . S
C2353 C2337 1.377 . S
C2353 C2351 1.389 . S
C2353 C2354 1.524 . S
C2354 C2353 1.524 . S
C2354 C2355 1.397 . S
C2354 C2359 1.363 . S
C2355 H2326 0.950 . S
C2355 C2354 1.397 . S
C2355 C2356 1.334 . S
C2356 H2327 0.950 . S
C2356 C2355 1.334 . S
C2356 C2357 1.287 . S
C2357 C2356 1.287 . S
C2357 C2358 1.524 . S
C2357 H2360 0.999 . S
C2358 H2328 0.950 . S
C2358 C2357 1.524 . S
C2358 C2359 1.415 . S
C2359 H2329 0.950 . S
C2359 C2354 1.363 . S
C2359 C2358 1.415 . S
H2360 C2357 0.999 . S
H2361 C2342 0.913 . S
H2362 C2380 0.951 . S
H2363 C2382 0.951 . S
H2364 C2384 0.950 . S
H2365 C2385 0.950 . S
H2366 C2387 0.950 . S
H2367 C2390 0.950 . S
H2368 C2391 0.950 . S
H2369 C2393 0.950 . S
H2370 C2394 0.950 . S
H2371 C2395 0.951 . S
H2372 C2397 0.951 . S
H2373 C2399 0.950 . S
H2374 C2400 0.950 . S
H2375 C2402 0.950 . S
H2376 C2405 0.950 . S
H2377 C2406 0.950 . S
H2378 C2408 0.950 . S
H2379 C2409 0.950 . S
C2380 H2362 0.951 . S
C2380 C2381 1.366 . S
C2380 C2382 1.388 . S
C2381 C2380 1.366 . S
C2381 C2385 1.385 . S
C2382 H2363 0.951 . S
C2382 C2380 1.388 . S
C2382 C2383 1.366 . S
C2383 C2382 1.366 . S
C2383 C2384 1.414 . S
C2383 C2386 1.499 . S
C2384 H2364 0.950 . S
C2384 C2383 1.414 . S
C2384 C2385 1.374 . S
C2385 H2365 0.950 . S
C2385 C2381 1.385 . S
C2385 C2384 1.374 . S
C2386 C2383 1.499 . S
C2386 C2387 1.373 . S
C2386 C2388 1.389 . S
C2387 H2366 0.950 . S
C2387 C2386 1.373 . S
C2387 C2403 1.377 . S
C2388 C2386 1.389 . S
C2388 C2389 1.524 . S
C2388 C2402 1.377 . S
C2389 C2388 1.524 . S
C2389 C2390 1.397 . S
C2389 C2394 1.363 . S
C2390 H2367 0.950 . S
C2390 C2389 1.397 . S
C2390 C2391 1.334 . S
C2391 H2368 0.950 . S
C2391 C2390 1.334 . S
C2391 C2392 1.287 . S
C2392 C2391 1.287 . S
C2392 C2393 1.524 . S
C2392 H2411 0.913 . S
C2393 H2369 0.950 . S
C2393 C2392 1.524 . S
C2393 C2394 1.415 . S
C2394 H2370 0.950 . S
C2394 C2389 1.363 . S
C2394 C2393 1.415 . S
C2395 H2371 0.951 . S
C2395 C2396 1.366 . S
C2395 C2397 1.388 . S
C2396 C2395 1.366 . S
C2396 C2400 1.385 . S
C2397 H2372 0.951 . S
C2397 C2395 1.388 . S
C2397 C2398 1.366 . S
C2398 C2397 1.366 . S
C2398 C2399 1.414 . S
C2398 C2401 1.499 . S
C2399 H2373 0.950 . S
C2399 C2398 1.414 . S
C2399 C2400 1.374 . S
C2400 H2374 0.950 . S
C2400 C2396 1.385 . S
C2400 C2399 1.374 . S
C2401 C2398 1.499 . S
C2401 C2402 1.373 . S
C2401 C2403 1.389 . S
C2402 H2375 0.950 . S
C2402 C2388 1.377 . S
C2402 C2401 1.373 . S
C2403 C2387 1.377 . S
C2403 C2401 1.389 . S
C2403 C2404 1.524 . S
C2404 C2403 1.524 . S
C2404 C2405 1.397 . S
C2404 C2409 1.363 . S
C2405 H2376 0.950 . S
C2405 C2404 1.397 . S
C2405 C2406 1.334 . S
C2406 H2377 0.950 . S
C2406 C2405 1.334 . S
C2406 C2407 1.287 . S
C2407 C2406 1.287 . S
C2407 C2408 1.524 . S
C2407 H2410 0.999 . S
C2408 H2378 0.950 . S
C2408 C2407 1.524 . S
C2408 C2409 1.415 . S
C2409 H2379 0.950 . S
C2409 C2404 1.363 . S
C2409 C2408 1.415 . S
H2410 C2407 0.999 . S
H2411 C2392 0.913 . S
H2412 C2430 0.951 . S
H2413 C2432 0.951 . S
H2414 C2434 0.950 1_454 S
H2415 C2435 0.950 . S
H2416 C2437 0.950 1_556 S
H2417 C2440 0.950 . S
H2418 C2441 0.950 . S
H2419 C2443 0.950 . S
H2420 C2444 0.946 1_455 S
H2421 C2445 0.951 . S
H2422 C2447 0.951 . S
H2423 C2449 0.950 . S
H2424 C2450 0.950 . S
H2425 C2452 0.950 . S
H2426 C2455 0.946 1_554 S
H2427 C2456 0.950 . S
H2428 C2458 0.950 . S
H2429 C2459 0.950 . S
C2430 H2412 0.951 . S
C2430 C2431 1.366 . S
C2430 C2432 1.388 . S
C2431 C2430 1.366 . S
C2431 C2435 1.385 . S
C2432 H2413 0.951 . S
C2432 C2430 1.388 . S
C2432 C2433 1.366 1_656 S
C2433 C2432 1.366 1_454 S
C2433 C2434 1.414 1_454 S
C2433 C2436 1.499 . S
C2434 H2414 0.950 1_656 S
C2434 C2433 1.414 1_656 S
C2434 C2435 1.374 . S
C2435 H2415 0.950 . S
C2435 C2431 1.385 . S
C2435 C2434 1.374 . S
C2436 C2433 1.499 . S
C2436 C2437 1.373 . S
C2436 C2438 1.389 . S
C2437 H2416 0.950 1_554 S
C2437 C2436 1.373 . S
C2437 C2453 1.377 . S
C2438 C2436 1.389 . S
C2438 C2439 1.524 . S
C2438 C2452 1.377 . S
C2439 C2438 1.524 . S
C2439 C2440 1.397 1_455 S
C2439 C2444 1.362 1_455 S
C2440 H2417 0.950 . S
C2440 C2439 1.397 1_655 S
C2440 C2441 1.334 . S
C2441 H2418 0.950 . S
C2441 C2440 1.334 . S
C2441 C2442 1.287 . S
C2442 C2441 1.287 . S
C2442 C2443 1.524 . S
C2442 H2461 0.913 . S
C2443 H2419 0.950 . S
C2443 C2442 1.524 . S
C2443 C2444 1.420 . S
C2444 H2420 0.946 1_655 S
C2444 C2439 1.362 1_655 S
C2444 C2443 1.420 . S
C2445 H2421 0.951 . S
C2445 C2446 1.366 . S
C2445 C2447 1.388 . S
C2446 C2445 1.366 . S
C2446 C2450 1.385 . S
C2447 H2422 0.951 . S
C2447 C2445 1.388 . S
C2447 C2448 1.366 . S
C2448 C2447 1.366 . S
C2448 C2449 1.414 . S
C2448 C2451 1.499 . S
C2449 H2423 0.950 . S
C2449 C2448 1.414 . S
C2449 C2450 1.374 . S
C2450 H2424 0.950 . S
C2450 C2446 1.385 . S
C2450 C2449 1.374 . S
C2451 C2448 1.499 . S
C2451 C2452 1.373 . S
C2451 C2453 1.389 . S
C2452 H2425 0.950 . S
C2452 C2438 1.377 . S
C2452 C2451 1.373 . S
C2453 C2437 1.377 . S
C2453 C2451 1.389 . S
C2453 C2454 1.524 . S
C2454 C2453 1.524 . S
C2454 C2455 1.379 1_554 S
C2454 C2459 1.363 . S
C2455 H2426 0.946 1_556 S
C2455 C2454 1.379 1_556 S
C2455 C2456 1.358 . S
C2456 H2427 0.950 . S
C2456 C2455 1.358 . S
C2456 C2457 1.287 . S
C2457 C2456 1.287 . S
C2457 C2458 1.524 . S
C2457 H2460 0.999 . S
C2458 H2428 0.950 . S
C2458 C2457 1.524 . S
C2458 C2459 1.415 1_556 S
C2459 H2429 0.950 . S
C2459 C2454 1.363 . S
C2459 C2458 1.415 1_554 S
H2460 C2457 0.999 . S
H2461 C2442 0.913 . S
H2462 C2480 0.951 . S
H2463 C2482 0.951 . S
H2464 C2484 0.950 . S
H2465 C2485 0.950 . S
H2466 C2487 0.950 . S
H2467 C2490 0.950 . S
H2468 C2491 0.950 . S
H2469 C2493 0.950 . S
H2470 C2494 0.950 . S
H2471 C2495 0.951 . S
H2472 C2497 0.951 . S
H2473 C2499 0.950 . S
H2474 C2500 0.950 . S
H2475 C2502 0.950 . S
H2476 C2505 0.950 . S
H2477 C2506 0.950 . S
H2478 C2508 0.950 . S
H2479 C2509 0.950 . S
C2480 H2462 0.951 . S
C2480 C2481 1.366 . S
C2480 C2482 1.388 . S
C2481 C2480 1.366 . S
C2481 C2485 1.385 . S
C2482 H2463 0.951 . S
C2482 C2480 1.388 . S
C2482 C2483 1.366 . S
C2483 C2482 1.366 . S
C2483 C2484 1.414 . S
C2483 C2486 1.499 . S
C2484 H2464 0.950 . S
C2484 C2483 1.414 . S
C2484 C2485 1.374 . S
C2485 H2465 0.950 . S
C2485 C2481 1.385 . S
C2485 C2484 1.374 . S
C2486 C2483 1.499 . S
C2486 C2487 1.373 . S
C2486 C2488 1.389 . S
C2487 H2466 0.950 . S
C2487 C2486 1.373 . S
C2487 C2503 1.377 . S
C2488 C2486 1.389 . S
C2488 C2489 1.524 . S
C2488 C2502 1.377 . S
C2489 C2488 1.524 . S
C2489 C2490 1.397 . S
C2489 C2494 1.363 . S
C2490 H2467 0.950 . S
C2490 C2489 1.397 . S
C2490 C2491 1.334 . S
C2491 H2468 0.950 . S
C2491 C2490 1.334 . S
C2491 C2492 1.287 . S
C2492 C2491 1.287 . S
C2492 C2493 1.524 . S
C2492 H2511 0.913 . S
C2493 H2469 0.950 . S
C2493 C2492 1.524 . S
C2493 C2494 1.415 . S
C2494 H2470 0.950 . S
C2494 C2489 1.363 . S
C2494 C2493 1.415 . S
C2495 H2471 0.951 . S
C2495 C2496 1.366 . S
C2495 C2497 1.388 . S
C2496 C2495 1.366 . S
C2496 C2500 1.385 . S
C2497 H2472 0.951 . S
C2497 C2495 1.388 . S
C2497 C2498 1.366 . S
C2498 C2497 1.366 . S
C2498 C2499 1.414 . S
C2498 C2501 1.499 . S
C2499 H2473 0.950 . S
C2499 C2498 1.414 . S
C2499 C2500 1.374 . S
C2500 H2474 0.950 . S
C2500 C2496 1.385 . S
C2500 C2499 1.374 . S
C2501 C2498 1.499 . S
C2501 C2502 1.373 . S
C2501 C2503 1.389 . S
C2502 H2475 0.950 . S
C2502 C2488 1.377 . S
C2502 C2501 1.373 . S
C2503 C2487 1.377 . S
C2503 C2501 1.389 . S
C2503 C2504 1.524 . S
C2504 C2503 1.524 . S
C2504 C2505 1.397 . S
C2504 C2509 1.363 . S
C2505 H2476 0.950 . S
C2505 C2504 1.397 . S
C2505 C2506 1.334 . S
C2506 H2477 0.950 . S
C2506 C2505 1.334 . S
C2506 C2507 1.287 . S
C2507 C2506 1.287 . S
C2507 C2508 1.524 . S
C2507 H2510 0.999 . S
C2508 H2478 0.950 . S
C2508 C2507 1.524 . S
C2508 C2509 1.415 . S
C2509 H2479 0.950 . S
C2509 C2504 1.363 . S
C2509 C2508 1.415 . S
H2510 C2507 0.999 . S
H2511 C2492 0.913 . S
H2512 C2530 0.951 . S
H2513 C2532 0.951 . S
H2514 C2534 0.950 . S
H2515 C2535 0.950 . S
H2516 C2537 0.950 . S
H2517 C2540 0.950 . S
H2518 C2541 0.950 . S
H2519 C2543 0.950 . S
H2520 C2544 0.950 . S
H2521 C2545 0.951 . S
H2522 C2547 0.951 . S
H2523 C2549 0.950 . S
H2524 C2550 0.950 . S
H2525 C2552 0.950 . S
H2526 C2555 0.950 . S
H2527 C2556 0.950 . S
H2528 C2558 0.950 . S
H2529 C2559 0.950 . S
C2530 H2512 0.951 . S
C2530 C2531 1.366 . S
C2530 C2532 1.388 . S
C2531 C2530 1.366 . S
C2531 C2535 1.385 . S
C2532 H2513 0.951 . S
C2532 C2530 1.388 . S
C2532 C2533 1.366 . S
C2533 C2532 1.366 . S
C2533 C2534 1.414 . S
C2533 C2536 1.499 . S
C2534 H2514 0.950 . S
C2534 C2533 1.414 . S
C2534 C2535 1.374 . S
C2535 H2515 0.950 . S
C2535 C2531 1.385 . S
C2535 C2534 1.374 . S
C2536 C2533 1.499 . S
C2536 C2537 1.373 . S
C2536 C2538 1.389 . S
C2537 H2516 0.950 . S
C2537 C2536 1.373 . S
C2537 C2553 1.377 . S
C2538 C2536 1.389 . S
C2538 C2539 1.524 . S
C2538 C2552 1.377 . S
C2539 C2538 1.524 . S
C2539 C2540 1.397 . S
C2539 C2544 1.363 . S
C2540 H2517 0.950 . S
C2540 C2539 1.397 . S
C2540 C2541 1.334 . S
C2541 H2518 0.950 . S
C2541 C2540 1.334 . S
C2541 C2542 1.287 . S
C2542 C2541 1.287 . S
C2542 C2543 1.524 . S
C2542 H2561 0.913 . S
C2543 H2519 0.950 . S
C2543 C2542 1.524 . S
C2543 C2544 1.415 . S
C2544 H2520 0.950 . S
C2544 C2539 1.363 . S
C2544 C2543 1.415 . S
C2545 H2521 0.951 . S
C2545 C2546 1.366 . S
C2545 C2547 1.388 . S
C2546 C2545 1.366 . S
C2546 C2550 1.385 . S
C2547 H2522 0.951 . S
C2547 C2545 1.388 . S
C2547 C2548 1.366 . S
C2548 C2547 1.366 . S
C2548 C2549 1.414 . S
C2548 C2551 1.499 . S
C2549 H2523 0.950 . S
C2549 C2548 1.414 . S
C2549 C2550 1.374 . S
C2550 H2524 0.950 . S
C2550 C2546 1.385 . S
C2550 C2549 1.374 . S
C2551 C2548 1.499 . S
C2551 C2552 1.373 . S
C2551 C2553 1.389 . S
C2552 H2525 0.950 . S
C2552 C2538 1.377 . S
C2552 C2551 1.373 . S
C2553 C2537 1.377 . S
C2553 C2551 1.389 . S
C2553 C2554 1.524 . S
C2554 C2553 1.524 . S
C2554 C2555 1.397 . S
C2554 C2559 1.363 . S
C2555 H2526 0.950 . S
C2555 C2554 1.397 . S
C2555 C2556 1.334 . S
C2556 H2527 0.950 . S
C2556 C2555 1.334 . S
C2556 C2557 1.287 . S
C2557 C2556 1.287 . S
C2557 C2558 1.524 . S
C2557 H2560 0.999 . S
C2558 H2528 0.950 . S
C2558 C2557 1.524 . S
C2558 C2559 1.415 . S
C2559 H2529 0.950 . S
C2559 C2554 1.363 . S
C2559 C2558 1.415 . S
H2560 C2557 0.999 . S
H2561 C2542 0.913 . S
H2562 C2580 0.951 . S
H2563 C2582 0.951 . S
H2564 C2584 0.950 . S
H2565 C2585 0.950 . S
H2566 C2587 0.950 . S
H2567 C2590 0.950 . S
H2568 C2591 0.950 . S
H2569 C2593 0.950 . S
H2570 C2594 0.950 . S
H2571 C2595 0.951 . S
H2572 C2597 0.951 . S
H2573 C2599 0.950 . S
H2574 C2600 0.950 . S
H2575 C2602 0.950 . S
H2576 C2605 0.950 . S
H2577 C2606 0.950 . S
H2578 C2608 0.950 . S
H2579 C2609 0.950 . S
C2580 H2562 0.951 . S
C2580 C2581 1.366 . S
C2580 C2582 1.388 . S
C2581 C2580 1.366 . S
C2581 C2585 1.385 . S
C2582 H2563 0.951 . S
C2582 C2580 1.388 . S
C2582 C2583 1.366 . S
C2583 C2582 1.366 . S
C2583 C2584 1.414 . S
C2583 C2586 1.499 . S
C2584 H2564 0.950 . S
C2584 C2583 1.414 . S
C2584 C2585 1.374 . S
C2585 H2565 0.950 . S
C2585 C2581 1.385 . S
C2585 C2584 1.374 . S
C2586 C2583 1.499 . S
C2586 C2587 1.373 . S
C2586 C2588 1.389 . S
C2587 H2566 0.950 . S
C2587 C2586 1.373 . S
C2587 C2603 1.377 . S
C2588 C2586 1.389 . S
C2588 C2589 1.524 . S
C2588 C2602 1.377 . S
C2589 C2588 1.524 . S
C2589 C2590 1.397 . S
C2589 C2594 1.363 . S
C2590 H2567 0.950 . S
C2590 C2589 1.397 . S
C2590 C2591 1.334 . S
C2591 H2568 0.950 . S
C2591 C2590 1.334 . S
C2591 C2592 1.287 . S
C2592 C2591 1.287 . S
C2592 C2593 1.524 . S
C2592 H2611 0.913 . S
C2593 H2569 0.950 . S
C2593 C2592 1.524 . S
C2593 C2594 1.415 . S
C2594 H2570 0.950 . S
C2594 C2589 1.363 . S
C2594 C2593 1.415 . S
C2595 H2571 0.951 . S
C2595 C2596 1.366 . S
C2595 C2597 1.388 . S
C2596 C2595 1.366 . S
C2596 C2600 1.385 . S
C2597 H2572 0.951 . S
C2597 C2595 1.388 . S
C2597 C2598 1.366 . S
C2598 C2597 1.366 . S
C2598 C2599 1.414 . S
C2598 C2601 1.499 . S
C2599 H2573 0.950 . S
C2599 C2598 1.414 . S
C2599 C2600 1.374 . S
C2600 H2574 0.950 . S
C2600 C2596 1.385 . S
C2600 C2599 1.374 . S
C2601 C2598 1.499 . S
C2601 C2602 1.373 . S
C2601 C2603 1.389 . S
C2602 H2575 0.950 . S
C2602 C2588 1.377 . S
C2602 C2601 1.373 . S
C2603 C2587 1.377 . S
C2603 C2601 1.389 . S
C2603 C2604 1.524 . S
C2604 C2603 1.524 . S
C2604 C2605 1.397 . S
C2604 C2609 1.363 . S
C2605 H2576 0.950 . S
C2605 C2604 1.397 . S
C2605 C2606 1.334 . S
C2606 H2577 0.950 . S
C2606 C2605 1.334 . S
C2606 C2607 1.287 . S
C2607 C2606 1.287 . S
C2607 C2608 1.524 . S
C2607 H2610 0.999 . S
C2608 H2578 0.950 . S
C2608 C2607 1.524 . S
C2608 C2609 1.415 . S
C2609 H2579 0.950 . S
C2609 C2604 1.363 . S
C2609 C2608 1.415 . S
H2610 C2607 0.999 . S
H2611 C2592 0.913 . S
H2612 C2630 0.951 . S
H2613 C2632 0.951 . S
H2614 C2634 0.950 . S
H2615 C2635 0.950 1_556 S
H2616 C2637 0.950 . S
H2617 C2640 0.950 . S
H2618 C2641 0.950 . S
H2619 C2643 0.950 . S
H2620 C2644 0.950 . S
H2621 C2645 0.951 . S
H2622 C2647 0.951 . S
H2623 C2649 0.950 . S
H2624 C2650 0.950 . S
H2625 C2652 0.950 . S
H2626 C2655 0.950 . S
H2627 C2656 0.950 . S
H2628 C2658 0.950 . S
H2629 C2659 0.950 . S
C2630 H2612 0.951 . S
C2630 C2631 1.366 . S
C2630 C2632 1.388 . S
C2631 C2630 1.366 . S
C2631 C2635 1.385 . S
C2632 H2613 0.951 . S
C2632 C2630 1.388 . S
C2632 C2633 1.366 1_554 S
C2633 C2632 1.366 1_556 S
C2633 C2634 1.414 . S
C2633 C2636 1.499 . S
C2634 H2614 0.950 . S
C2634 C2633 1.414 . S
C2634 C2635 1.374 1_556 S
C2635 H2615 0.950 1_554 S
C2635 C2631 1.385 . S
C2635 C2634 1.374 1_554 S
C2636 C2633 1.499 . S
C2636 C2637 1.373 . S
C2636 C2638 1.389 . S
C2637 H2616 0.950 . S
C2637 C2636 1.373 . S
C2637 C2653 1.377 . S
C2638 C2636 1.389 . S
C2638 C2639 1.524 . S
C2638 C2652 1.377 . S
C2639 C2638 1.524 . S
C2639 C2640 1.397 . S
C2639 C2644 1.363 . S
C2640 H2617 0.950 . S
C2640 C2639 1.397 . S
C2640 C2641 1.334 . S
C2641 H2618 0.950 . S
C2641 C2640 1.334 . S
C2641 C2642 1.287 . S
C2642 C2641 1.287 . S
C2642 C2643 1.524 . S
C2642 H2661 0.913 . S
C2643 H2619 0.950 . S
C2643 C2642 1.524 . S
C2643 C2644 1.415 . S
C2644 H2620 0.950 . S
C2644 C2639 1.363 . S
C2644 C2643 1.415 . S
C2645 H2621 0.951 . S
C2645 C2646 1.366 . S
C2645 C2647 1.388 . S
C2646 C2645 1.366 . S
C2646 C2650 1.385 . S
C2647 H2622 0.951 . S
C2647 C2645 1.388 . S
C2647 C2648 1.366 . S
C2648 C2647 1.366 . S
C2648 C2649 1.414 . S
C2648 C2651 1.499 . S
C2649 H2623 0.950 . S
C2649 C2648 1.414 . S
C2649 C2650 1.374 . S
C2650 H2624 0.950 . S
C2650 C2646 1.385 . S
C2650 C2649 1.374 . S
C2651 C2648 1.499 . S
C2651 C2652 1.373 . S
C2651 C2653 1.389 . S
C2652 H2625 0.950 . S
C2652 C2638 1.377 . S
C2652 C2651 1.373 . S
C2653 C2637 1.377 . S
C2653 C2651 1.389 . S
C2653 C2654 1.524 . S
C2654 C2653 1.524 . S
C2654 C2655 1.397 . S
C2654 C2659 1.363 . S
C2655 H2626 0.950 . S
C2655 C2654 1.397 . S
C2655 C2656 1.334 . S
C2656 H2627 0.950 . S
C2656 C2655 1.334 . S
C2656 C2657 1.287 . S
C2657 C2656 1.287 . S
C2657 C2658 1.524 . S
C2657 H2660 0.999 . S
C2658 H2628 0.950 . S
C2658 C2657 1.524 . S
C2658 C2659 1.415 . S
C2659 H2629 0.950 . S
C2659 C2654 1.363 . S
C2659 C2658 1.415 . S
H2660 C2657 0.999 . S
H2661 C2642 0.913 . S
H2662 C2680 0.951 . S
H2663 C2682 0.951 . S
H2664 C2684 0.950 . S
H2665 C2685 0.950 . S
H2666 C2687 0.950 . S
H2667 C2690 0.950 . S
H2668 C2691 0.950 . S
H2669 C2693 0.950 . S
H2670 C2694 0.950 . S
H2671 C2695 0.951 . S
H2672 C2697 0.951 . S
H2673 C2699 0.950 . S
H2674 C2700 0.950 . S
H2675 C2702 0.950 . S
H2676 C2705 0.950 . S
H2677 C2706 0.950 . S
H2678 C2708 0.950 . S
H2679 C2709 0.950 . S
C2680 H2662 0.951 . S
C2680 C2681 1.366 . S
C2680 C2682 1.388 . S
C2681 C2680 1.366 . S
C2681 C2685 1.385 . S
C2682 H2663 0.951 . S
C2682 C2680 1.388 . S
C2682 C2683 1.366 . S
C2683 C2682 1.366 . S
C2683 C2684 1.414 . S
C2683 C2686 1.499 . S
C2684 H2664 0.950 . S
C2684 C2683 1.414 . S
C2684 C2685 1.374 . S
C2685 H2665 0.950 . S
C2685 C2681 1.385 . S
C2685 C2684 1.374 . S
C2686 C2683 1.499 . S
C2686 C2687 1.373 . S
C2686 C2688 1.389 . S
C2687 H2666 0.950 . S
C2687 C2686 1.373 . S
C2687 C2703 1.377 . S
C2688 C2686 1.389 . S
C2688 C2689 1.524 . S
C2688 C2702 1.377 . S
C2689 C2688 1.524 . S
C2689 C2690 1.397 . S
C2689 C2694 1.363 . S
C2690 H2667 0.950 . S
C2690 C2689 1.397 . S
C2690 C2691 1.334 . S
C2691 H2668 0.950 . S
C2691 C2690 1.334 . S
C2691 C2692 1.287 . S
C2692 C2691 1.287 . S
C2692 C2693 1.524 . S
C2692 H2711 0.913 . S
C2693 H2669 0.950 . S
C2693 C2692 1.524 . S
C2693 C2694 1.415 . S
C2694 H2670 0.950 . S
C2694 C2689 1.363 . S
C2694 C2693 1.415 . S
C2695 H2671 0.951 . S
C2695 C2696 1.366 . S
C2695 C2697 1.388 . S
C2696 C2695 1.366 . S
C2696 C2700 1.385 . S
C2697 H2672 0.951 . S
C2697 C2695 1.388 . S
C2697 C2698 1.366 1_455 S
C2698 C2697 1.366 1_655 S
C2698 C2699 1.414 . S
C2698 C2701 1.499 . S
C2699 H2673 0.950 . S
C2699 C2698 1.414 . S
C2699 C2700 1.374 1_655 S
C2700 H2674 0.950 . S
C2700 C2696 1.385 . S
C2700 C2699 1.374 1_455 S
C2701 C2698 1.499 . S
C2701 C2702 1.373 . S
C2701 C2703 1.389 . S
C2702 H2675 0.950 . S
C2702 C2688 1.377 . S
C2702 C2701 1.373 . S
C2703 C2687 1.377 . S
C2703 C2701 1.389 . S
C2703 C2704 1.524 . S
C2704 C2703 1.524 . S
C2704 C2705 1.397 . S
C2704 C2709 1.363 . S
C2705 H2676 0.950 . S
C2705 C2704 1.397 . S
C2705 C2706 1.334 . S
C2706 H2677 0.950 . S
C2706 C2705 1.334 . S
C2706 C2707 1.287 . S
C2707 C2706 1.287 . S
C2707 C2708 1.524 . S
C2707 H2710 0.999 . S
C2708 H2678 0.950 . S
C2708 C2707 1.524 . S
C2708 C2709 1.415 . S
C2709 H2679 0.950 . S
C2709 C2704 1.363 . S
C2709 C2708 1.415 . S
H2710 C2707 0.999 . S
H2711 C2692 0.913 . S
C331 C121 1.018 . S
C346 C4 1.018 . S
C381 C23 1.018 . S
C396 C140 1.018 . S
C431 C36 1.018 . S
C446 C147 1.018 . S
C481 C49 1.018 . S
C496 C108 1.018 . S
C531 C56 1.018 . S
C546 C199 1.018 . S
C581 C166 1.017 . S
C596 C69 1.017 . S
C631 C88 1.018 . S
C646 C179 1.018 . S
C681 C186 1.018 . S
C696 C101 1.018 . S
C731 C212 1.018 . S
C746 C238 1.018 . S
C781 C290 1.017 . S
C796 C225 1.017 . S
C831 C251 1.018 . S
C846 C309 1.018 . S
C881 C283 1.018 . S
C896 C270 1.018 . S
C931 C264 1.836 . S
C946 C10 1.836 . S
C981 C17 1.836 . S
C996 C231 1.836 . S
C1031 C30 1.836 . S
C1046 C244 1.835 . S
C1081 C43 1.836 . S
C1096 C257 1.836 . S
C1131 C62 1.836 . S
C1146 C303 1.836 . S
C1181 C277 1.836 . S
C1196 C75 1.836 . S
C1231 C296 1.836 . S
C1246 C82 1.836 . S
C1281 C218 1.836 . S
C1296 C95 1.836 . S
C1331 C205 1.836 . S
C1346 C114 1.836 . S
C1381 C127 1.836 . S
C1396 C160 1.835 . S
C1431 C173 1.836 . S
C1446 C134 1.836 . S
C1481 C192 1.836 . S
C1496 C153 1.836 . S
C1531 C5 1.139 . S
C1546 C211 1.161 . S
C1581 C304 1.162 . S
C1596 C16 1.139 . S
C1631 C278 1.162 . S
C1646 C29 1.140 . S
C1681 C42 1.139 . S
C1696 C289 1.162 . S
C1731 C57 1.140 . S
C1746 C224 1.161 . S
C1781 C237 1.162 . S
C1796 C70 1.139 . S
C1831 C250 1.161 . S
C1846 C81 1.139 . S
C1881 C265 1.161 . S
C1896 C94 1.140 . S
C1931 C3 1.162 . S
C1946 C109 1.139 . S
C1981 C18 1.162 . S
C1996 C122 1.139 . S
C2031 C31 1.161 . S
C2046 C133 1.140 . S
C2081 C44 1.162 . S
C2096 C148 1.139 . S
C2131 C55 1.162 . S
C2146 C159 1.140 . S
C2181 C68 1.161 . S
C2196 C172 1.140 . S
C2231 C187 1.140 . S
C2246 C83 1.161 . S
C2281 C96 1.161 . S
C2296 C200 1.139 . S
C2331 C107 1.161 . S
C2346 C213 1.139 . S
C2381 C226 1.140 . S
C2396 C161 1.161 . S
C2431 C174 1.161 . S
C2446 C239 1.140 . S
C2481 C252 1.139 . S
C2496 C185 1.162 . S
C2531 C263 1.139 . S
C2546 C198 1.162 . S
C2581 C276 1.139 . S
C2596 C135 1.161 . S
C2631 C146 1.161 . S
C2646 C291 1.139 . S
C2681 C302 1.139 . S
C2696 C120 1.162 . S
