# Generated by pormake.
# Topology irl, (4)-cn, num edge types: 1
# Building blocks:
#     Node 0, Type 0, BuildingBlock: TATPOV_clean_sbu_0, # of connection points: 4
#     Node 1, Type 0, BuildingBlock: TATPOV_clean_sbu_0, # of connection points: 4
#     Node 2, Type 0, BuildingBlock: TATPOV_clean_sbu_0, # of connection points: 4
#     Node 3, Type 0, BuildingBlock: TATPOV_clean_sbu_0, # of connection points: 4
#     Node 4, Type 0, BuildingBlock: TATPOV_clean_sbu_0, # of connection points: 4
#     Node 5, Type 0, BuildingBlock: TATPOV_clean_sbu_0, # of connection points: 4
#     Node 6, Type 0, BuildingBlock: TATPOV_clean_sbu_0, # of connection points: 4
#     Node 7, Type 0, BuildingBlock: TATPOV_clean_sbu_0, # of connection points: 4
#     Edge 8, Type (0, 0), BuildingBlock: XUDNAN_clean_linker_2, # of connection points: 2
#     Edge 9, Type (0, 0), BuildingBlock: XUDNAN_clean_linker_2, # of connection points: 2
#     Edge 10, Type (0, 0), BuildingBlock: XUDNAN_clean_linker_2, # of connection points: 2
#     Edge 11, Type (0, 0), BuildingBlock: XUDNAN_clean_linker_2, # of connection points: 2
#     Edge 12, Type (0, 0), BuildingBlock: XUDNAN_clean_linker_2, # of connection points: 2
#     Edge 13, Type (0, 0), BuildingBlock: XUDNAN_clean_linker_2, # of connection points: 2
#     Edge 14, Type (0, 0), BuildingBlock: XUDNAN_clean_linker_2, # of connection points: 2
#     Edge 15, Type (0, 0), BuildingBlock: XUDNAN_clean_linker_2, # of connection points: 2
#     Edge 16, Type (0, 0), BuildingBlock: XUDNAN_clean_linker_2, # of connection points: 2
#     Edge 17, Type (0, 0), BuildingBlock: XUDNAN_clean_linker_2, # of connection points: 2
#     Edge 18, Type (0, 0), BuildingBlock: XUDNAN_clean_linker_2, # of connection points: 2
#     Edge 19, Type (0, 0), BuildingBlock: XUDNAN_clean_linker_2, # of connection points: 2
#     Edge 20, Type (0, 0), BuildingBlock: XUDNAN_clean_linker_2, # of connection points: 2
#     Edge 21, Type (0, 0), BuildingBlock: XUDNAN_clean_linker_2, # of connection points: 2
#     Edge 22, Type (0, 0), BuildingBlock: XUDNAN_clean_linker_2, # of connection points: 2
#     Edge 23, Type (0, 0), BuildingBlock: XUDNAN_clean_linker_2, # of connection points: 2
# Relax obj value: 0.141
# Max RMSD: 0.157
# Mean RMSD: 0.157
data_MOF--net-irl--node1-TATPOV_clean_sbu_0--edge1-XUDNAN_clean_linker_2
_symmetry_space_group_name_H-M    P1
_symmetry_Int_Tables_number       1
_symmetry_cell_setting            triclinic
loop_
_symmetry_equiv_pos_as_xyz
'x, y, z'
_cell_length_a     38.39058
_cell_length_b     30.364193
_cell_length_c     27.953905
_cell_angle_alpha  89.765702
_cell_angle_beta   89.801744
_cell_angle_gamma 90.47358
loop_
_atom_site_label
_atom_site_type_symbol
_atom_site_fract_x
_atom_site_fract_y
_atom_site_fract_z
_atom_type_partial_charge
Zn0 Zn 1.03165 0.2214 0.00398 0.0
Zn1 Zn 0.09972 0.23611 -0.00564 0.0
O2 O 0.07754 0.26877 0.93607 0.0
O3 O 1.02121 0.25861 0.94726 0.0
O4 O 0.1528 0.24532 -0.01325 0.0
O5 O 1.03134 0.24847 0.06828 0.0
O6 O 0.08719 0.26432 0.06037 0.0
C7 C 0.04605 0.27511 0.92318 0.0
C8 C 0.06765 0.14143 -0.00731 0.0
O9 O 0.09383 0.16773 -0.00836 0.0
O10 O 0.03723 0.15652 -0.00281 0.0
C11 C 0.16625 0.24466 0.94502 0.0
O12 O 0.14563 0.23846 0.9082 0.0
C13 C 0.05887 0.2658 0.08455 0.0
Zn14 Zn 0.06048 0.7249 0.96757 0.0
Zn15 Zn 0.99283 0.74374 0.9772 0.0
O16 O 0.9981 0.71285 0.91168 0.0
O17 O 0.05354 0.6962 0.90434 0.0
O18 O 0.94 0.7502 -0.01637 0.0
O19 O 0.06126 0.69006 0.02832 0.0
O20 O 1.0069 0.71044 0.03883 0.0
C21 C 1.02303 0.69642 0.88748 0.0
C22 C 0.0459 0.81888 0.97343 0.0
O23 O 1.01404 0.80661 0.97634 0.0
O24 O 0.06976 0.79046 0.96982 0.0
C25 C 0.92302 0.77454 0.95496 0.0
O26 O 0.94024 0.79704 0.92217 0.0
C27 C 1.03414 0.69109 0.05407 0.0
Zn28 Zn 1.01809 0.79189 0.46706 0.0
Zn29 Zn 0.08778 0.78126 0.47941 0.0
O30 O 0.06547 0.74864 0.53718 0.0
O31 O 1.009 0.75595 0.52609 0.0
O32 O 0.1405 0.77497 0.48852 0.0
O33 O 1.02163 0.76154 0.40395 0.0
O34 O 0.07782 0.75106 0.41463 0.0
C35 C 1.03409 0.74117 0.55041 0.0
C36 C 0.05388 0.87397 0.47733 0.0
O37 O 0.08027 0.84878 0.48037 0.0
O38 O 1.02375 0.85764 0.47159 0.0
C39 C 0.15332 0.77755 0.53036 0.0
O40 O 0.13218 0.78413 0.56665 0.0
C41 C 0.05033 0.74614 0.38957 0.0
Zn42 Zn 0.05003 0.28982 0.50378 0.0
Zn43 Zn 0.98322 0.27306 0.49941 0.0
O44 O 0.99371 0.30399 0.56476 0.0
O45 O 0.04991 0.31831 0.5671 0.0
O46 O 0.92952 0.26886 0.49996 0.0
O47 O 0.05111 0.3253 0.44415 0.0
O48 O 0.99647 0.30456 0.43503 0.0
C49 C 1.02031 0.3191 0.58686 0.0
C50 C 1.03351 0.19634 0.4991 0.0
O51 O 1.00185 0.20902 0.49898 0.0
O52 O 0.05801 0.22451 0.50041 0.0
C53 C 0.91518 0.25594 0.53879 0.0
O54 O 0.93542 0.24384 0.57424 0.0
C55 C 1.02391 0.32376 0.41888 0.0
Zn56 Zn 0.52209 0.7264 -0.00739 0.0
Zn57 Zn 0.59158 0.74017 -0.01683 0.0
O58 O 0.56937 0.77346 0.9264 0.0
O59 O 0.51273 0.76521 0.93605 0.0
O60 O 0.64352 0.75321 0.97364 0.0
O61 O 0.52355 0.75287 0.05778 0.0
O62 O 0.57984 0.76595 0.04984 0.0
C63 C 0.53828 0.78117 0.91293 0.0
C64 C 0.5601 0.64617 0.97925 0.0
O65 O 0.58639 0.67225 0.97862 0.0
O66 O 0.52968 0.66135 -0.01575 0.0
C67 C 0.66878 0.73373 -0.00599 0.0
O68 O 0.6621 0.70176 0.02459 0.0
C69 C 0.55176 0.76821 0.07432 0.0
Zn70 Zn 0.55862 0.23089 0.97721 0.0
Zn71 Zn 0.49183 0.24465 0.97879 0.0
O72 O 0.50252 0.20644 0.91806 0.0
O73 O 0.55849 0.19194 0.92134 0.0
O74 O 0.43831 0.24978 0.97741 0.0
O75 O 0.55948 0.20405 0.04121 0.0
O76 O 0.50329 0.2175 0.04601 0.0
C77 C 0.52948 0.18775 0.90073 0.0
C78 C 0.54257 0.32279 0.96877 0.0
O79 O 0.51114 0.30887 0.97249 0.0
O80 O 0.56741 0.29565 0.96921 0.0
C81 C 0.42418 0.26062 0.93794 0.0
O82 O 0.44456 0.26932 0.90116 0.0
C83 C 0.53133 0.20289 0.06467 0.0
Zn84 Zn 0.52137 0.26757 0.49185 0.0
Zn85 Zn 0.58994 0.27606 0.49577 0.0
O86 O 0.5752 0.23487 0.55244 0.0
O87 O 0.51834 0.22613 0.54646 0.0
O88 O 0.64367 0.27762 0.50023 0.0
O89 O 0.52252 0.24615 0.4252 0.0
O90 O 0.57987 0.24987 0.42837 0.0
C91 C 0.54659 0.21812 0.56769 0.0
C92 C 0.54232 0.35667 0.5082 0.0
O93 O 0.57319 0.34141 0.50441 0.0
O94 O 0.51628 0.33117 0.50459 0.0
C95 C 0.65756 0.2787 0.54155 0.0
O96 O 0.63703 0.28112 0.57913 0.0
C97 C 0.55189 0.24065 0.40573 0.0
Zn98 Zn 0.54914 0.76408 0.50056 0.0
Zn99 Zn 0.47834 0.76668 0.49506 0.0
O100 O 0.4911 0.80151 0.55592 0.0
O101 O 0.5481 0.79734 0.5622 0.0
O102 O 0.42492 0.76865 0.49525 0.0
O103 O 0.55198 0.79627 0.43817 0.0
O104 O 0.49487 0.79287 0.43007 0.0
C105 C 0.51912 0.81002 0.57857 0.0
C106 C 0.51725 0.67831 0.50349 0.0
O107 O 0.48932 0.70076 0.50199 0.0
O108 O 0.54668 0.69743 0.50178 0.0
C109 C 0.41041 0.75733 0.53452 0.0
O110 O 0.43036 0.74476 0.57008 0.0
C111 C 0.52494 0.80336 0.41366 0.0
H112 H 1.00305 0.89094 -0.01703 0.0
H113 H 0.11152 0.85401 0.96667 0.0
H114 H 0.12899 0.93209 0.96953 0.0
H115 H 1.00803 0.9894 0.91042 0.0
H116 H 0.97883 0.02005 0.94809 0.0
H117 H 0.97471 0.96103 0.94446 0.0
H118 H 0.98058 0.95512 0.0366 0.0
H119 H 0.98477 0.01411 0.0405 0.0
H120 H 1.01796 0.97936 0.06553 0.0
H121 H 0.13504 0.01452 0.97477 0.0
H122 H 0.12862 0.0953 0.98165 0.0
H123 H 1.01652 0.07812 -0.0055 0.0
C124 C 1.03045 0.89925 0.9799 0.0
C125 C 0.05583 0.86618 0.97459 0.0
C126 C 0.09148 0.8786 0.97077 0.0
C127 C 0.10175 0.92294 0.97235 0.0
C128 C 0.07614 0.95467 0.97775 0.0
C129 C 0.04123 0.94344 0.98142 0.0
C130 C 1.01898 0.984 -0.01281 0.0
C131 C 0.99365 0.9889 0.94502 0.0
C132 C 0.99943 0.98308 0.03532 0.0
C133 C 0.04684 0.01963 -0.01375 0.0
C134 C 0.07965 1.0021 0.98077 0.0
C135 C 0.10946 0.02869 0.97904 0.0
C136 C 0.10557 0.07451 -0.017 0.0
C137 C 0.07213 0.09315 -0.01139 0.0
C138 C 0.04251 0.06508 -0.00977 0.0
H139 H 1.00244 0.93625 0.47531 0.0
H140 H 0.11448 0.92141 0.48833 0.0
H141 H 0.12092 1.00209 0.49573 0.0
H142 H 1.00447 0.0359 0.40529 0.0
H143 H 0.96697 0.05922 0.4344 0.0
H144 H 0.9711 1.00032 0.43003 0.0
H145 H 0.96471 0.9933 0.52206 0.0
H146 H 0.96062 0.05218 0.52674 0.0
H147 H 0.99376 0.02398 0.56025 0.0
H148 H 0.11529 0.08365 0.50167 0.0
H149 H 0.09851 0.16141 0.50549 0.0
H150 H 0.98971 0.12396 0.48908 0.0
C151 C 1.02839 0.94987 0.47963 0.0
C152 C 0.05801 0.9224 0.48118 0.0
C153 C 0.09143 0.94169 0.487 0.0
C154 C 0.09533 0.98748 0.49126 0.0
C155 C 0.06559 0.01348 0.4897 0.0
C156 C 1.03276 0.99545 0.48402 0.0
C157 C 1.00506 0.03081 0.48359 0.0
C158 C 0.98577 0.0316 0.43546 0.0
C159 C 0.97954 0.02469 0.52567 0.0
C160 C 1.02748 0.07165 0.48988 0.0
C161 C 0.06229 0.06076 0.49331 0.0
C162 C 0.08813 0.09259 0.49903 0.0
C163 C 0.07823 0.13677 0.50114 0.0
C164 C 0.0427 0.14899 0.49757 0.0
C165 C 1.01702 0.11579 0.49202 0.0
H166 H 0.5094 0.5821 -0.01579 0.0
H167 H 0.62072 0.6009 0.96326 0.0
H168 H 0.62759 0.52038 0.95536 0.0
H169 H 0.51488 0.48451 0.05512 0.0
H170 H 0.47663 0.45914 0.02967 0.0
H171 H 0.4803 0.51824 0.03206 0.0
H172 H 0.47054 0.52275 0.9405 0.0
H173 H 0.46691 0.46362 0.9378 0.0
H174 H 0.49847 0.49219 0.90095 0.0
H175 H 0.62249 0.43831 0.95118 0.0
H176 H 0.60655 0.35979 0.9529 0.0
H177 H 0.49822 0.39388 0.9771 0.0
C178 C 0.53526 0.56942 0.97775 0.0
C179 C 0.56457 0.59794 0.97424 0.0
C180 C 0.59791 0.57981 0.96604 0.0
C181 C 0.60205 0.53413 0.96142 0.0
C182 C 0.5726 0.50708 0.96509 0.0
C183 C 0.53986 0.524 0.97315 0.0
C184 C 0.5126 0.48767 0.97677 0.0
C185 C 0.49508 0.48738 0.02636 0.0
C186 C 0.48554 0.49182 0.93661 0.0
C187 C 0.53517 0.44751 0.96984 0.0
C188 C 0.56965 0.45958 0.96293 0.0
C189 C 0.59559 0.42848 0.95647 0.0
C190 C 0.58617 0.38387 0.95756 0.0
C191 C 0.55105 0.37047 0.96519 0.0
C192 C 0.52521 0.40294 0.97098 0.0
H193 H 0.58528 0.42939 0.49104 0.0
H194 H 0.48287 0.39081 0.54395 0.0
H195 H 0.46652 0.46837 0.55035 0.0
H196 H 0.59381 0.52917 0.56646 0.0
H197 H 0.61526 0.56064 0.51997 0.0
H198 H 0.62039 0.50174 0.52262 0.0
H199 H 0.59869 0.49564 0.43524 0.0
H200 H 0.59315 0.55443 0.4325 0.0
H201 H 0.55697 0.51826 0.41951 0.0
H202 H 0.45852 0.54852 0.54454 0.0
H203 H 0.46143 0.629 0.53304 0.0
H204 H 0.56903 0.61817 0.48624 0.0
C205 C 0.55972 0.43741 0.50483 0.0
C206 C 0.53535 0.4039 0.51671 0.0
C207 C 0.50196 0.41575 0.53416 0.0
C208 C 0.49234 0.4598 0.53808 0.0
C209 C 0.5164 0.49196 0.52475 0.0
C210 C 0.54955 0.48163 0.50905 0.0
C211 C 0.56974 0.52312 0.49574 0.0
C212 C 0.60169 0.52901 0.52814 0.0
C213 C 0.58025 0.52282 0.44259 0.0
C214 C 0.54248 0.55792 0.5057 0.0
C215 C 0.51192 0.53904 0.52233 0.0
C216 C 0.48242 0.5639 0.5321 0.0
C217 C 0.48425 0.60955 0.52518 0.0
C218 C 0.51545 0.62989 0.50896 0.0
C219 C 0.54491 0.6036 0.49913 0.0
H220 H 1.00666 0.25814 0.15007 0.0
H221 H 0.10728 0.32095 0.12671 0.0
H222 H 0.10326 0.35507 0.20695 0.0
H223 H 0.96629 0.34659 0.22133 0.0
H224 H 0.94442 0.30757 0.26009 0.0
H225 H 0.95292 0.29365 0.19853 0.0
H226 H 0.98559 0.2234 0.22552 0.0
H227 H 0.97672 0.23677 0.28685 0.0
H228 H 1.02099 0.2284 0.26742 0.0
H229 H 0.09044 0.37639 0.29204 0.0
H230 H 0.0744 0.37522 0.37744 0.0
H231 H 0.98248 0.29707 0.34478 0.0
C232 C 1.02764 0.27976 0.16128 0.0
C233 C 0.0572 0.28722 0.13194 0.0
C234 C 0.08437 0.31489 0.14855 0.0
C235 C 0.08212 0.33471 0.19383 0.0
C236 C 0.05251 0.32653 0.22181 0.0
C237 C 1.0259 0.29939 0.20619 0.0
C238 C 0.99879 0.29154 0.2448 0.0
C239 C 0.96352 0.31101 0.2303 0.0
C240 C 0.99536 0.24212 0.25686 0.0
C241 C 1.0149 0.31714 0.28548 0.0
C242 C 0.04541 0.33805 0.27115 0.0
C243 C 0.06641 0.36064 0.30346 0.0
C244 C 0.057 0.35986 0.35194 0.0
C245 C 1.02712 0.33607 0.36778 0.0
C246 C 1.00502 0.31627 0.33372 0.0
H247 H 0.99908 0.74316 0.32256 0.0
H248 H 0.10427 0.69884 0.3506 0.0
H249 H 0.10634 0.66517 0.2702 0.0
H250 H 0.97085 0.64882 0.2457 0.0
H251 H 0.94674 0.68487 0.20684 0.0
H252 H 0.95104 0.69774 0.26947 0.0
H253 H 0.97683 0.77448 0.24759 0.0
H254 H 0.97228 0.76199 0.18523 0.0
H255 H 1.01424 0.77788 0.20854 0.0
H256 H 0.09974 0.64532 0.18394 0.0
H257 H 0.08798 0.64805 0.09745 0.0
H258 H 0.98726 0.70651 0.12583 0.0
C259 C 1.02229 0.72542 0.31239 0.0
C260 C 0.05146 0.72336 0.34298 0.0
C261 C 0.08158 0.70069 0.3278 0.0
C262 C 0.08285 0.68113 0.28239 0.0
C263 C 0.05373 0.68438 0.25285 0.0
C264 C 1.02404 0.7061 0.26729 0.0
C265 C 0.9981 0.71033 0.22695 0.0
C266 C 0.96471 0.68385 0.23791 0.0
C267 C 0.98993 0.75904 0.21646 0.0
C268 C 1.01854 0.68961 0.18671 0.0
C269 C 0.05012 0.67367 0.20266 0.0
C270 C 0.07487 0.657 0.17119 0.0
C271 C 0.06791 0.65869 0.12205 0.0
C272 C 0.03668 0.6776 0.10483 0.0
C273 C 1.0111 0.69125 0.13783 0.0
H274 H 0.08027 0.71669 0.62016 0.0
H275 H 0.97031 0.71533 0.58454 0.0
H276 H 0.95619 0.68849 0.66548 0.0
H277 H 0.07687 0.61866 0.70584 0.0
H278 H 0.10811 0.64465 0.74482 0.0
H279 H 0.11032 0.65413 0.68115 0.0
H280 H 0.10753 0.73832 0.69535 0.0
H281 H 0.10527 0.72916 0.75874 0.0
H282 H 0.0718 0.7605 0.7294 0.0
H283 H 0.95284 0.67769 0.75335 0.0
H284 H 0.96116 0.68205 0.8408 0.0
H285 H 0.07311 0.68693 0.81931 0.0
C286 C 0.05335 0.70923 0.62885 0.0
C287 C 1.02646 0.71815 0.59602 0.0
C288 C 0.99144 0.7088 0.60907 0.0
C289 C 0.98312 0.69323 0.65494 0.0
C290 C 1.01011 0.6865 0.68718 0.0
C291 C 0.0446 0.69358 0.67454 0.0
C292 C 0.06827 0.68916 0.71741 0.0
C293 C 0.09231 0.64926 0.71197 0.0
C294 C 0.08942 0.73182 0.7257 0.0
C295 C 0.04151 0.68142 0.75653 0.0
C296 C 1.00814 0.67911 0.7383 0.0
C297 C 0.97888 0.67805 0.76806 0.0
C298 C 0.98381 0.68067 0.81767 0.0
C299 C 1.01776 0.6843 0.83688 0.0
C300 C 0.04687 0.68301 0.80584 0.0
H301 H 0.09005 0.29634 0.84854 0.0
H302 H 0.9825 0.3052 0.89559 0.0
H303 H 0.96555 0.33156 0.81583 0.0
H304 H 0.08703 0.39341 0.76133 0.0
H305 H 0.11478 0.36511 0.71959 0.0
H306 H 0.11987 0.35628 0.78301 0.0
H307 H 0.11214 0.27225 0.77066 0.0
H308 H 0.10692 0.28076 0.70753 0.0
H309 H 0.07363 0.25183 0.74106 0.0
H310 H 0.95802 0.34087 0.72827 0.0
H311 H 0.96158 0.33585 0.64014 0.0
H312 H 0.07397 0.32505 0.64985 0.0
C313 C 0.06321 0.30547 0.84254 0.0
C314 C 0.03767 0.29866 0.87828 0.0
C315 C 1.0026 0.31003 0.86874 0.0
C316 C 0.99268 0.32532 0.82356 0.0
C317 C 1.01816 0.32978 0.78836 0.0
C318 C 0.05284 0.32091 0.79749 0.0
C319 C 0.07433 0.32341 0.75205 0.0
C320 C 0.10055 0.36185 0.75413 0.0
C321 C 0.0928 0.27945 0.74227 0.0
C322 C 0.04598 0.33226 0.71576 0.0
C323 C 1.01383 0.33656 0.73744 0.0
C324 C 0.98317 0.33901 0.71084 0.0
C325 C 0.98539 0.33602 0.66082 0.0
C326 C 1.01804 0.33073 0.63807 0.0
C327 C 0.04869 0.33031 0.66602 0.0
H328 H 0.4987 0.76528 0.13933 0.0
H329 H 0.60462 0.81333 0.11958 0.0
H330 H 0.60458 0.84077 0.2028 0.0
H331 H 0.46842 0.85317 0.22211 0.0
H332 H 0.44317 0.81431 0.25701 0.0
H333 H 0.44934 0.80555 0.1938 0.0
H334 H 0.47445 0.72811 0.21111 0.0
H335 H 0.46813 0.73651 0.27407 0.0
H336 H 0.51072 0.72287 0.25149 0.0
H337 H 0.59567 0.85416 0.29004 0.0
H338 H 0.58087 0.84701 0.37556 0.0
H339 H 0.48081 0.78951 0.33843 0.0
C340 C 0.52167 0.78252 0.15199 0.0
C341 C 0.55162 0.78745 0.12283 0.0
C342 C 0.58134 0.80934 0.14122 0.0
C343 C 0.58144 0.82533 0.18829 0.0
C344 C 0.55156 0.81932 0.21626 0.0
C345 C 0.52224 0.79834 0.19876 0.0
C346 C 0.4951 0.79112 0.23748 0.0
C347 C 0.46205 0.81763 0.22696 0.0
C348 C 0.48664 0.74174 0.24391 0.0
C349 C 0.51432 0.80953 0.28018 0.0
C350 C 0.5465 0.8266 0.26695 0.0
C351 C 0.57033 0.84162 0.30069 0.0
C352 C 0.56167 0.83738 0.3492 0.0
C353 C 0.5296 0.8179 0.36355 0.0
C354 C 0.50512 0.80547 0.3285 0.0
H355 H 0.50249 0.25213 0.33782 0.0
H356 H 0.60355 0.19334 0.36196 0.0
H357 H 0.60358 0.16552 0.27871 0.0
H358 H 0.46687 0.16858 0.25581 0.0
H359 H 0.44609 0.20932 0.21878 0.0
H360 H 0.45173 0.21919 0.28185 0.0
H361 H 0.48444 0.29236 0.26312 0.0
H362 H 0.47841 0.283 0.20025 0.0
H363 H 0.52163 0.29176 0.22357 0.0
H364 H 0.59414 0.14838 0.19257 0.0
H365 H 0.5812 0.15299 0.1066 0.0
H366 H 0.48724 0.22617 0.1377 0.0
C367 C 0.52437 0.2327 0.32584 0.0
C368 C 0.55286 0.22428 0.35627 0.0
C369 C 0.58148 0.19994 0.33907 0.0
C370 C 0.58149 0.18367 0.29214 0.0
C371 C 0.55282 0.1924 0.2631 0.0
C372 C 0.52503 0.21693 0.27909 0.0
C373 C 0.49946 0.22638 0.2393 0.0
C374 C 0.46393 0.20455 0.24957 0.0
C375 C 0.4958 0.27632 0.23107 0.0
C376 C 0.51769 0.2044 0.19786 0.0
C377 C 0.54793 0.18398 0.21272 0.0
C378 C 0.57043 0.16393 0.18059 0.0
C379 C 0.5628 0.16673 0.13181 0.0
C380 C 0.53321 0.19004 0.11554 0.0
C381 C 0.50965 0.20749 0.14915 0.0
H382 H 0.48085 0.19791 0.8302 0.0
H383 H 0.57876 0.13431 0.86244 0.0
H384 H 0.58853 0.12113 0.77685 0.0
H385 H 0.46044 0.12807 0.71649 0.0
H386 H 0.44216 0.17592 0.68801 0.0
H387 H 0.43767 0.16829 0.75176 0.0
H388 H 0.46533 0.24528 0.76508 0.0
H389 H 0.47064 0.25288 0.70186 0.0
H390 H 0.50793 0.25718 0.74061 0.0
H391 H 0.59677 0.13631 0.69077 0.0
H392 H 0.59775 0.1683 0.60915 0.0
H393 H 0.49299 0.21671 0.63064 0.0
C394 C 0.50332 0.17903 0.81938 0.0
C395 C 0.5291 0.16743 0.85283 0.0
C396 C 0.55869 0.1437 0.83733 0.0
C397 C 0.56445 0.1359 0.78871 0.0
C398 C 0.53998 0.15102 0.75609 0.0
C399 C 0.50936 0.17079 0.77078 0.0
C400 C 0.4897 0.18937 0.72853 0.0
C401 C 0.45547 0.16387 0.72073 0.0
C402 C 0.48306 0.23909 0.7344 0.0
C403 C 0.51549 0.18045 0.6887 0.0
C404 C 0.54412 0.15773 0.7051 0.0
C405 C 0.57387 0.15237 0.67682 0.0
C406 C 0.57438 0.17091 0.63074 0.0
C407 C 0.5452 0.19402 0.61346 0.0
C408 C 0.51519 0.19778 0.64244 0.0
H409 H 0.58441 0.79935 0.84057 0.0
H410 H 0.4765 0.81551 0.88291 0.0
H411 H 0.46257 0.84276 0.80223 0.0
H412 H 0.58744 0.89451 0.7492 0.0
H413 H 0.61465 0.86255 0.71003 0.0
H414 H 0.61827 0.85629 0.77401 0.0
H415 H 0.6073 0.77232 0.7658 0.0
H416 H 0.6036 0.77831 0.70221 0.0
H417 H 0.56853 0.75312 0.73587 0.0
H418 H 0.45738 0.85101 0.71456 0.0
H419 H 0.46156 0.83886 0.62758 0.0
H420 H 0.5729 0.819 0.64128 0.0
C421 C 0.5582 0.81043 0.83341 0.0
C422 C 0.5316 0.80542 0.86798 0.0
C423 C 0.49735 0.81909 0.85694 0.0
C424 C 0.48921 0.83496 0.81126 0.0
C425 C 0.51567 0.83746 0.77712 0.0
C426 C 0.54963 0.82609 0.78781 0.0
C427 C 0.572 0.82504 0.74315 0.0
C428 C 0.59973 0.8618 0.74417 0.0
C429 C 0.58879 0.77951 0.73638 0.0
C430 C 0.54475 0.83415 0.70544 0.0
C431 C 0.51263 0.84252 0.72578 0.0
C432 C 0.48257 0.84583 0.69812 0.0
C433 C 0.48517 0.83877 0.64869 0.0
C434 C 0.51757 0.82813 0.62757 0.0
C435 C 0.54785 0.82784 0.65617 0.0
H436 H 0.37187 0.24627 0.006 0.0
H437 H 0.38872 0.27774 0.85589 0.0
H438 H 0.32548 0.27849 0.84303 0.0
H439 H 0.29801 0.17426 -0.01135 0.0
H440 H 0.27473 0.19239 0.041 0.0
H441 H 0.32162 0.19506 0.03954 0.0
H442 H 0.31964 0.27832 0.05879 0.0
H443 H 0.27272 0.2759 0.06033 0.0
H444 H 0.29464 0.3145 0.02113 0.0
H445 H 0.26105 0.27349 0.84452 0.0
H446 H 0.19839 0.26484 0.86089 0.0
H447 H 0.22068 0.23832 0.01043 0.0
C448 C 0.36222 0.25352 0.97051 0.0
C449 C 0.38557 0.26198 0.93198 0.0
C450 C 0.37169 0.27122 0.8861 0.0
C451 C 0.33566 0.27172 0.87833 0.0
C452 C 0.31346 0.26312 0.91677 0.0
C453 C 0.32602 0.25437 0.96205 0.0
C454 C 0.29602 0.24598 -0.00318 0.0
C455 C 0.2977 0.19914 0.01773 0.0
C456 C 0.29575 0.28076 0.03663 0.0
C457 C 0.26481 0.25111 0.96381 0.0
C458 C 0.2757 0.26091 0.91781 0.0
C459 C 0.25217 0.26607 0.88047 0.0
C460 C 0.21653 0.26097 0.89017 0.0
C461 C 0.20439 0.25103 0.93696 0.0
C462 C 0.22902 0.24632 0.97437 0.0
H463 H 0.72945 0.69875 0.03042 0.0
H464 H 0.69128 0.79877 0.93274 0.0
H465 H 0.75179 0.82082 0.91393 0.0
H466 H 0.80239 0.76203 0.07605 0.0
H467 H 0.831 0.71536 0.07945 0.0
H468 H 0.78465 0.70757 0.08587 0.0
H469 H 0.78513 0.65113 0.01665 0.0
H470 H 0.83148 0.6587 0.01007 0.0
H471 H 0.80326 0.66697 0.95948 0.0
H472 H 0.81639 0.83136 0.90439 0.0
H473 H 0.88057 0.82956 0.90458 0.0
H474 H 0.87754 0.7232 0.00887 0.0
C475 C 0.73377 0.72537 0.00516 0.0
C476 C 0.70541 0.74701 -0.01688 0.0
C477 C 0.71239 0.78163 0.95017 0.0
C478 C 0.74674 0.79446 0.93925 0.0
C479 C 0.77401 0.77246 0.96154 0.0
C480 C 0.76797 0.73866 -0.00618 0.0
C481 C 0.80204 0.72015 0.01231 0.0
C482 C 0.8052 0.72668 0.06665 0.0
C483 C 0.80568 0.67135 -0.00119 0.0
C484 C 0.82816 0.74875 -0.01473 0.0
C485 C 0.81137 0.7787 0.95621 0.0
C486 C 0.82981 0.80814 0.92713 0.0
C487 C 0.86634 0.80683 0.92749 0.0
C488 C 0.88428 0.77635 0.9568 0.0
C489 C 0.86473 0.74712 -0.01372 0.0
H490 H 0.20761 0.77988 0.46436 0.0
H491 H 0.18528 0.76481 0.61601 0.0
H492 H 0.24791 0.7577 0.6323 0.0
H493 H 0.27946 0.7031 0.45944 0.0
H494 H 0.30491 0.73587 0.41805 0.0
H495 H 0.25807 0.73901 0.41747 0.0
H496 H 0.26194 0.82346 0.42916 0.0
H497 H 0.30879 0.82057 0.42983 0.0
H498 H 0.28593 0.84534 0.47917 0.0
H499 H 0.31222 0.75159 0.63307 0.0
H500 H 0.37533 0.74885 0.61874 0.0
H501 H 0.3583 0.76995 0.46683 0.0
C502 C 0.21593 0.77488 0.50094 0.0
C503 C 0.19135 0.77281 0.53891 0.0
C504 C 0.20342 0.76662 0.58629 0.0
C505 C 0.23903 0.76245 0.59597 0.0
C506 C 0.26251 0.76481 0.55796 0.0
C507 C 0.25164 0.77105 0.51139 0.0
C508 C 0.28273 0.77322 0.47749 0.0
C509 C 0.28119 0.73555 0.44095 0.0
C510 C 0.28497 0.81833 0.45244 0.0
C511 C 0.31264 0.7671 0.51238 0.0
C512 C 0.30016 0.76212 0.55853 0.0
C513 C 0.32234 0.75552 0.59711 0.0
C514 C 0.35825 0.75395 0.5885 0.0
C515 C 0.37199 0.7592 0.54165 0.0
C516 C 0.34871 0.76598 0.50307 0.0
H517 H 0.71123 0.28486 0.47396 0.0
H518 H 0.69103 0.26258 0.62519 0.0
H519 H 0.75366 0.25362 0.63921 0.0
H520 H 0.78206 0.2074 0.46236 0.0
H521 H 0.80764 0.24167 0.42258 0.0
H522 H 0.76086 0.2461 0.42324 0.0
H523 H 0.76623 0.3296 0.4403 0.0
H524 H 0.81303 0.32544 0.43957 0.0
H525 H 0.79122 0.34807 0.491 0.0
H526 H 0.81754 0.24536 0.63798 0.0
H527 H 0.8804 0.24216 0.62241 0.0
H528 H 0.86241 0.27215 0.47242 0.0
C529 C 0.72004 0.27809 0.50997 0.0
C530 C 0.69592 0.27439 0.54846 0.0
C531 C 0.7087 0.26574 0.59506 0.0
C532 C 0.74436 0.26044 0.60346 0.0
C533 C 0.76733 0.26417 0.56503 0.0
C534 C 0.75593 0.27313 0.51923 0.0
C535 C 0.78674 0.27629 0.4848 0.0
C536 C 0.78416 0.24074 0.44594 0.0
C537 C 0.78946 0.32261 0.46261 0.0
C538 C 0.81703 0.26749 0.51852 0.0
C539 C 0.80494 0.26036 0.56452 0.0
C540 C 0.82738 0.25103 0.60214 0.0
C541 C 0.86318 0.24919 0.59279 0.0
C542 C 0.87666 0.25691 0.54618 0.0
C543 C 0.85307 0.26616 0.50848 0.0
loop_
_geom_bond_atom_site_label_1
_geom_bond_atom_site_label_2
_geom_bond_distance
_geom_bond_site_symmetry_2
_ccdc_geom_bond_type
Zn0 O3 2.031 1_654 S
Zn0 O5 2.049 . S
Zn0 O10 2.067 1_655 S
Zn1 O2 1.962 1_554 S
Zn1 O4 1.986 . S
Zn1 O6 1.996 . S
Zn1 O9 1.943 . S
O2 Zn1 1.962 1_556 S
O2 C7 1.254 . S
O3 Zn0 2.031 1_456 S
O3 C7 1.269 . S
O4 Zn1 1.986 . S
O4 C11 1.262 . S
O5 Zn0 2.049 . S
O5 C13 1.260 1_655 S
O6 Zn1 1.996 . S
O6 C13 1.257 . S
C7 O2 1.254 . S
C7 O3 1.269 . S
C8 O9 1.249 . S
C8 O10 1.270 . S
O9 Zn1 1.943 . S
O9 C8 1.249 . S
O10 Zn0 2.067 1_455 S
O10 C8 1.270 . S
C11 O4 1.262 . S
C11 O12 1.232 1_554 S
O12 C11 1.232 1_556 S
C13 O5 1.260 1_455 S
C13 O6 1.257 . S
Zn14 O17 2.031 1_454 S
Zn14 O19 2.049 . S
Zn14 O24 2.067 1_455 S
Zn15 O16 1.962 1_554 S
Zn15 O18 1.986 . S
Zn15 O20 1.996 . S
Zn15 O23 1.943 . S
O16 Zn15 1.962 1_556 S
O16 C21 1.254 . S
O17 Zn14 2.031 1_656 S
O17 C21 1.269 . S
O18 Zn15 1.986 . S
O18 C25 1.262 . S
O19 Zn14 2.049 . S
O19 C27 1.260 1_455 S
O20 Zn15 1.996 . S
O20 C27 1.257 . S
C21 O16 1.254 . S
C21 O17 1.269 . S
C22 O23 1.249 . S
C22 O24 1.270 . S
O23 Zn15 1.943 . S
O23 C22 1.249 . S
O24 Zn14 2.067 1_655 S
O24 C22 1.270 . S
C25 O18 1.262 . S
C25 O26 1.232 1_554 S
O26 C25 1.232 1_556 S
C27 O19 1.260 1_655 S
C27 O20 1.257 . S
Zn28 O31 2.031 1_655 S
Zn28 O33 2.049 . S
Zn28 O38 2.067 1_655 S
Zn29 O30 1.962 . S
Zn29 O32 1.986 . S
Zn29 O34 1.996 . S
Zn29 O37 1.943 . S
O30 Zn29 1.962 . S
O30 C35 1.254 . S
O31 Zn28 2.031 1_455 S
O31 C35 1.269 . S
O32 Zn29 1.986 . S
O32 C39 1.262 . S
O33 Zn28 2.049 . S
O33 C41 1.260 1_655 S
O34 Zn29 1.996 . S
O34 C41 1.257 . S
C35 O30 1.254 . S
C35 O31 1.269 . S
C36 O37 1.249 . S
C36 O38 1.270 . S
O37 Zn29 1.943 . S
O37 C36 1.249 . S
O38 Zn28 2.067 1_455 S
O38 C36 1.270 . S
C39 O32 1.262 . S
C39 O40 1.232 . S
O40 C39 1.232 . S
C41 O33 1.260 1_455 S
C41 O34 1.257 . S
Zn42 O45 2.031 1_455 S
Zn42 O47 2.049 . S
Zn42 O52 2.067 1_455 S
Zn43 O44 1.962 . S
Zn43 O46 1.986 . S
Zn43 O48 1.996 . S
Zn43 O51 1.943 . S
O44 Zn43 1.962 . S
O44 C49 1.254 . S
O45 Zn42 2.031 1_655 S
O45 C49 1.269 . S
O46 Zn43 1.986 . S
O46 C53 1.262 . S
O47 Zn42 2.049 . S
O47 C55 1.260 1_455 S
O48 Zn43 1.996 . S
O48 C55 1.257 . S
C49 O44 1.254 . S
C49 O45 1.269 . S
C50 O51 1.249 . S
C50 O52 1.270 . S
O51 Zn43 1.943 . S
O51 C50 1.249 . S
O52 Zn42 2.067 1_655 S
O52 C50 1.270 . S
C53 O46 1.262 . S
C53 O54 1.232 . S
O54 C53 1.232 . S
C55 O47 1.260 1_655 S
C55 O48 1.257 . S
Zn56 O59 2.031 1_554 S
Zn56 O61 2.049 . S
Zn56 O66 2.067 . S
Zn57 O58 1.962 1_554 S
Zn57 O60 1.986 . S
Zn57 O62 1.996 . S
Zn57 O65 1.943 . S
O58 Zn57 1.962 1_556 S
O58 C63 1.254 . S
O59 Zn56 2.031 1_556 S
O59 C63 1.269 . S
O60 Zn57 1.986 . S
O60 C67 1.262 . S
O61 Zn56 2.049 . S
O61 C69 1.260 . S
O62 Zn57 1.996 . S
O62 C69 1.257 . S
C63 O58 1.254 . S
C63 O59 1.269 . S
C64 O65 1.249 . S
C64 O66 1.270 . S
O65 Zn57 1.943 . S
O65 C64 1.249 . S
O66 Zn56 2.067 . S
O66 C64 1.270 . S
C67 O60 1.262 . S
C67 O68 1.232 1_554 S
O68 C67 1.232 1_556 S
C69 O61 1.260 . S
C69 O62 1.257 . S
Zn70 O73 2.031 1_554 S
Zn70 O75 2.049 . S
Zn70 O80 2.067 . S
Zn71 O72 1.962 1_554 S
Zn71 O74 1.986 . S
Zn71 O76 1.996 . S
Zn71 O79 1.943 . S
O72 Zn71 1.962 1_556 S
O72 C77 1.254 . S
O73 Zn70 2.031 1_556 S
O73 C77 1.269 . S
O74 Zn71 1.986 . S
O74 C81 1.262 . S
O75 Zn70 2.049 . S
O75 C83 1.260 . S
O76 Zn71 1.996 . S
O76 C83 1.257 . S
C77 O72 1.254 . S
C77 O73 1.269 . S
C78 O79 1.249 . S
C78 O80 1.270 . S
O79 Zn71 1.943 . S
O79 C78 1.249 . S
O80 Zn70 2.067 . S
O80 C78 1.270 . S
C81 O74 1.262 . S
C81 O82 1.232 1_554 S
O82 C81 1.232 1_556 S
C83 O75 1.260 . S
C83 O76 1.257 . S
Zn84 O87 2.031 . S
Zn84 O89 2.049 . S
Zn84 O94 2.067 . S
Zn85 O86 1.962 . S
Zn85 O88 1.986 . S
Zn85 O90 1.996 . S
Zn85 O93 1.943 . S
O86 Zn85 1.962 . S
O86 C91 1.254 . S
O87 Zn84 2.031 . S
O87 C91 1.269 . S
O88 Zn85 1.986 . S
O88 C95 1.262 . S
O89 Zn84 2.049 . S
O89 C97 1.260 . S
O90 Zn85 1.996 . S
O90 C97 1.257 . S
C91 O86 1.254 . S
C91 O87 1.269 . S
C92 O93 1.249 . S
C92 O94 1.270 . S
O93 Zn85 1.943 . S
O93 C92 1.249 . S
O94 Zn84 2.067 . S
O94 C92 1.270 . S
C95 O88 1.262 . S
C95 O96 1.232 . S
O96 C95 1.232 . S
C97 O89 1.260 . S
C97 O90 1.257 . S
Zn98 O101 2.031 . S
Zn98 O103 2.049 . S
Zn98 O108 2.067 . S
Zn99 O100 1.962 . S
Zn99 O102 1.986 . S
Zn99 O104 1.996 . S
Zn99 O107 1.943 . S
O100 Zn99 1.962 . S
O100 C105 1.254 . S
O101 Zn98 2.031 . S
O101 C105 1.269 . S
O102 Zn99 1.986 . S
O102 C109 1.262 . S
O103 Zn98 2.049 . S
O103 C111 1.260 . S
O104 Zn99 1.996 . S
O104 C111 1.257 . S
C105 O100 1.254 . S
C105 O101 1.269 . S
C106 O107 1.249 . S
C106 O108 1.270 . S
O107 Zn99 1.943 . S
O107 C106 1.249 . S
O108 Zn98 2.067 . S
O108 C106 1.270 . S
C109 O102 1.262 . S
C109 O110 1.232 . S
O110 C109 1.232 . S
C111 O103 1.260 . S
C111 O104 1.257 . S
H112 C124 0.930 . S
H113 C126 0.930 . S
H114 C127 0.930 . S
H115 C131 0.959 . S
H116 C131 0.959 1_545 S
H117 C131 0.961 . S
H118 C132 0.960 1_565 S
H119 C132 0.961 . S
H120 C132 0.959 . S
H121 C135 0.929 1_655 S
H122 C136 0.931 . S
H123 C138 0.930 . S
C124 H112 0.930 . S
C124 C125 1.399 1_556 S
C124 C129 1.399 . S
C125 C124 1.399 1_554 S
C125 C126 1.376 . S
C126 H113 0.930 . S
C126 C125 1.376 . S
C126 C127 1.388 . S
C127 H114 0.930 . S
C127 C126 1.388 . S
C127 C128 1.390 . S
C128 C127 1.390 . S
C128 C129 1.394 1_554 S
C128 C134 1.460 1_665 S
C129 C124 1.399 . S
C129 C128 1.394 1_556 S
C129 C130 1.516 1_655 S
C130 C129 1.516 1_455 S
C130 C131 1.502 . S
C130 C132 1.561 1_465 S
C130 C133 1.526 1_565 S
C131 H115 0.959 . S
C131 H116 0.959 1_565 S
C131 H117 0.961 . S
C131 C130 1.502 . S
C132 H118 0.960 1_545 S
C132 H119 0.961 . S
C132 H120 0.959 . S
C132 C130 1.561 1_645 S
C133 C130 1.526 1_545 S
C133 C134 1.400 1_556 S
C133 C138 1.390 . S
C134 C128 1.460 1_445 S
C134 C133 1.400 1_554 S
C134 C135 1.400 . S
C135 H121 0.929 1_455 S
C135 C134 1.400 . S
C135 C136 1.385 . S
C136 H122 0.931 . S
C136 C135 1.385 . S
C136 C137 1.389 . S
C137 C136 1.389 . S
C137 C138 1.387 1_554 S
C138 H123 0.930 . S
C138 C133 1.390 . S
C138 C137 1.387 1_556 S
H139 C151 0.930 . S
H140 C153 0.930 . S
H141 C154 0.930 . S
H142 C158 0.959 . S
H143 C158 0.959 1_545 S
H144 C158 0.961 . S
H145 C159 0.960 . S
H146 C159 0.961 . S
H147 C159 0.959 . S
H148 C162 0.929 . S
H149 C163 0.931 . S
H150 C165 0.930 . S
C151 H139 0.930 . S
C151 C152 1.399 . S
C151 C156 1.399 . S
C152 C151 1.399 . S
C152 C153 1.376 . S
C153 H140 0.930 . S
C153 C152 1.376 . S
C153 C154 1.388 . S
C154 H141 0.930 . S
C154 C153 1.388 . S
C154 C155 1.390 . S
C155 C154 1.390 . S
C155 C156 1.394 . S
C155 C161 1.465 1_465 S
C156 C151 1.399 . S
C156 C155 1.394 . S
C156 C157 1.516 1_565 S
C157 C156 1.516 1_545 S
C157 C158 1.502 1_445 S
C157 C159 1.561 . S
C157 C160 1.526 1_455 S
C158 H142 0.959 . S
C158 H143 0.959 1_565 S
C158 H144 0.961 . S
C158 C157 1.502 1_665 S
C159 H145 0.960 . S
C159 H146 0.961 . S
C159 H147 0.959 . S
C159 C157 1.561 . S
C160 C157 1.526 1_655 S
C160 C161 1.396 . S
C160 C165 1.390 . S
C161 C155 1.465 1_645 S
C161 C160 1.396 . S
C161 C162 1.399 . S
C162 H148 0.929 . S
C162 C161 1.399 . S
C162 C163 1.385 . S
C163 H149 0.931 . S
C163 C162 1.385 . S
C163 C164 1.389 . S
C164 C163 1.389 . S
C164 C165 1.387 . S
C165 H150 0.930 . S
C165 C160 1.390 . S
C165 C164 1.387 . S
H166 C178 0.930 . S
H167 C180 0.930 . S
H168 C181 0.930 . S
H169 C185 0.959 . S
H170 C185 0.959 . S
H171 C185 0.961 . S
H172 C186 0.960 . S
H173 C186 0.961 . S
H174 C186 0.959 . S
H175 C189 0.929 . S
H176 C190 0.931 . S
H177 C192 0.930 . S
C178 H166 0.930 . S
C178 C179 1.399 1_556 S
C178 C183 1.399 . S
C179 C178 1.399 1_554 S
C179 C180 1.376 . S
C180 H167 0.930 . S
C180 C179 1.376 . S
C180 C181 1.388 . S
C181 H168 0.930 . S
C181 C180 1.388 . S
C181 C182 1.390 . S
C182 C181 1.390 . S
C182 C183 1.394 1_554 S
C182 C188 1.465 . S
C183 C178 1.399 . S
C183 C182 1.394 1_556 S
C183 C184 1.516 . S
C184 C183 1.516 . S
C184 C185 1.502 . S
C184 C186 1.561 . S
C184 C187 1.526 . S
C185 H169 0.959 . S
C185 H170 0.959 . S
C185 H171 0.961 . S
C185 C184 1.502 . S
C186 H172 0.960 . S
C186 H173 0.961 . S
C186 H174 0.959 . S
C186 C184 1.561 . S
C187 C184 1.526 . S
C187 C188 1.396 1_556 S
C187 C192 1.390 . S
C188 C182 1.465 . S
C188 C187 1.396 1_554 S
C188 C189 1.399 . S
C189 H175 0.929 . S
C189 C188 1.399 . S
C189 C190 1.385 . S
C190 H176 0.931 . S
C190 C189 1.385 . S
C190 C191 1.389 . S
C191 C190 1.389 . S
C191 C192 1.387 1_554 S
C192 H177 0.930 . S
C192 C187 1.390 . S
C192 C191 1.387 1_556 S
H193 C205 0.930 . S
H194 C207 0.930 . S
H195 C208 0.930 . S
H196 C212 0.959 . S
H197 C212 0.959 . S
H198 C212 0.961 . S
H199 C213 0.960 . S
H200 C213 0.961 . S
H201 C213 0.959 . S
H202 C216 0.929 . S
H203 C217 0.931 . S
H204 C219 0.930 . S
C205 H193 0.930 . S
C205 C206 1.399 . S
C205 C210 1.399 . S
C206 C205 1.399 . S
C206 C207 1.376 . S
C207 H194 0.930 . S
C207 C206 1.376 . S
C207 C208 1.388 . S
C208 H195 0.930 . S
C208 C207 1.388 . S
C208 C209 1.390 . S
C209 C208 1.390 . S
C209 C210 1.394 . S
C209 C215 1.465 . S
C210 C205 1.399 . S
C210 C209 1.394 . S
C210 C211 1.516 . S
C211 C210 1.516 . S
C211 C212 1.502 . S
C211 C213 1.561 . S
C211 C214 1.526 . S
C212 H196 0.959 . S
C212 H197 0.959 . S
C212 H198 0.961 . S
C212 C211 1.502 . S
C213 H199 0.960 . S
C213 H200 0.961 . S
C213 H201 0.959 . S
C213 C211 1.561 . S
C214 C211 1.526 . S
C214 C215 1.396 . S
C214 C219 1.390 . S
C215 C209 1.465 . S
C215 C214 1.396 . S
C215 C216 1.399 . S
C216 H202 0.929 . S
C216 C215 1.399 . S
C216 C217 1.385 . S
C217 H203 0.931 . S
C217 C216 1.385 . S
C217 C218 1.389 . S
C218 C217 1.389 . S
C218 C219 1.387 . S
C219 H204 0.930 . S
C219 C214 1.390 . S
C219 C218 1.387 . S
H220 C232 0.930 . S
H221 C234 0.930 . S
H222 C235 0.930 . S
H223 C239 0.959 . S
H224 C239 0.959 . S
H225 C239 0.961 . S
H226 C240 0.960 . S
H227 C240 0.961 . S
H228 C240 0.959 . S
H229 C243 0.929 . S
H230 C244 0.931 . S
H231 C246 0.930 . S
C232 H220 0.930 . S
C232 C233 1.399 1_655 S
C232 C237 1.399 . S
C233 C232 1.399 1_455 S
C233 C234 1.376 . S
C234 H221 0.930 . S
C234 C233 1.376 . S
C234 C235 1.388 . S
C235 H222 0.930 . S
C235 C234 1.388 . S
C235 C236 1.390 . S
C236 C235 1.390 . S
C236 C237 1.394 1_455 S
C236 C242 1.465 . S
C237 C232 1.399 . S
C237 C236 1.394 1_655 S
C237 C238 1.516 . S
C238 C237 1.516 . S
C238 C239 1.502 . S
C238 C240 1.561 . S
C238 C241 1.526 . S
C239 H223 0.959 . S
C239 H224 0.959 . S
C239 H225 0.961 . S
C239 C238 1.502 . S
C240 H226 0.960 . S
C240 H227 0.961 . S
C240 H228 0.959 . S
C240 C238 1.561 . S
C241 C238 1.526 . S
C241 C242 1.396 1_655 S
C241 C246 1.390 . S
C242 C236 1.465 . S
C242 C241 1.396 1_455 S
C242 C243 1.399 . S
C243 H229 0.929 . S
C243 C242 1.399 . S
C243 C244 1.385 . S
C244 H230 0.931 . S
C244 C243 1.385 . S
C244 C245 1.389 1_455 S
C245 C244 1.389 1_655 S
C245 C246 1.387 . S
C246 H231 0.930 . S
C246 C241 1.390 . S
C246 C245 1.387 . S
H247 C259 0.930 . S
H248 C261 0.930 . S
H249 C262 0.930 . S
H250 C266 0.959 . S
H251 C266 0.959 . S
H252 C266 0.961 . S
H253 C267 0.960 . S
H254 C267 0.961 . S
H255 C267 0.959 . S
H256 C270 0.929 . S
H257 C271 0.931 . S
H258 C273 0.930 . S
C259 H247 0.930 . S
C259 C260 1.399 . S
C259 C264 1.399 . S
C260 C259 1.399 . S
C260 C261 1.376 . S
C261 H248 0.930 . S
C261 C260 1.376 . S
C261 C262 1.388 . S
C262 H249 0.930 . S
C262 C261 1.388 . S
C262 C263 1.390 . S
C263 C262 1.390 . S
C263 C264 1.394 . S
C263 C269 1.465 . S
C264 C259 1.399 . S
C264 C263 1.394 . S
C264 C265 1.516 1_455 S
C265 C264 1.516 1_655 S
C265 C266 1.502 . S
C265 C267 1.561 1_655 S
C265 C268 1.526 . S
C266 H250 0.959 . S
C266 H251 0.959 . S
C266 H252 0.961 . S
C266 C265 1.502 . S
C267 H253 0.960 . S
C267 H254 0.961 . S
C267 H255 0.959 . S
C267 C265 1.561 1_455 S
C268 C265 1.526 . S
C268 C269 1.396 1_655 S
C268 C273 1.390 . S
C269 C263 1.465 . S
C269 C268 1.396 1_455 S
C269 C270 1.399 . S
C270 H256 0.929 . S
C270 C269 1.399 . S
C270 C271 1.385 1_455 S
C271 H257 0.931 . S
C271 C270 1.385 1_655 S
C271 C272 1.389 . S
C272 C271 1.389 . S
C272 C273 1.387 . S
C273 H258 0.930 . S
C273 C268 1.390 . S
C273 C272 1.387 . S
H274 C286 0.930 . S
H275 C288 0.930 . S
H276 C289 0.919 1_655 S
H277 C293 0.959 . S
H278 C293 0.957 1_455 S
H279 C293 0.961 1_455 S
H280 C294 0.960 . S
H281 C294 0.961 . S
H282 C294 0.959 . S
H283 C297 0.929 . S
H284 C298 0.931 . S
H285 C300 0.930 . S
C286 H274 0.930 . S
C286 C287 1.399 . S
C286 C291 1.399 . S
C287 C286 1.399 . S
C287 C288 1.376 . S
C288 H275 0.930 . S
C288 C287 1.376 . S
C288 C289 1.398 . S
C289 H276 0.919 1_455 S
C289 C288 1.398 . S
C289 C290 1.392 . S
C290 C289 1.392 . S
C290 C291 1.394 . S
C290 C296 1.465 1_455 S
C291 C286 1.399 . S
C291 C290 1.394 . S
C291 C292 1.516 . S
C292 C291 1.516 . S
C292 C293 1.502 1_455 S
C292 C294 1.561 . S
C292 C295 1.527 . S
C293 H277 0.959 . S
C293 H278 0.957 1_655 S
C293 H279 0.961 1_655 S
C293 C292 1.502 1_655 S
C294 H280 0.960 . S
C294 H281 0.961 . S
C294 H282 0.959 . S
C294 C292 1.561 . S
C295 C292 1.527 . S
C295 C296 1.396 1_455 S
C295 C300 1.389 1_455 S
C296 C290 1.465 1_655 S
C296 C295 1.396 1_655 S
C296 C297 1.399 . S
C297 H283 0.929 . S
C297 C296 1.399 . S
C297 C298 1.385 . S
C298 H284 0.931 . S
C298 C297 1.385 . S
C298 C299 1.389 . S
C299 C298 1.389 . S
C299 C300 1.387 . S
C300 H285 0.930 . S
C300 C295 1.389 1_655 S
C300 C299 1.387 . S
H301 C313 0.930 . S
H302 C315 0.926 1_655 S
H303 C316 0.930 . S
H304 C320 0.959 . S
H305 C320 0.959 . S
H306 C320 0.961 . S
H307 C321 0.960 . S
H308 C321 0.961 . S
H309 C321 0.959 . S
H310 C324 0.929 . S
H311 C325 0.931 . S
H312 C327 0.930 . S
C313 H301 0.930 . S
C313 C314 1.399 . S
C313 C318 1.399 . S
C314 C313 1.399 . S
C314 C315 1.376 . S
C315 H302 0.926 1_455 S
C315 C314 1.376 . S
C315 C316 1.388 1_455 S
C316 H303 0.930 . S
C316 C315 1.388 1_655 S
C316 C317 1.390 . S
C317 C316 1.390 . S
C317 C318 1.394 1_655 S
C317 C323 1.465 . S
C318 C313 1.399 . S
C318 C317 1.394 1_455 S
C318 C319 1.516 . S
C319 C318 1.516 . S
C319 C320 1.502 . S
C319 C321 1.561 1_455 S
C319 C322 1.526 1_455 S
C320 H304 0.959 . S
C320 H305 0.959 . S
C320 H306 0.961 . S
C320 C319 1.502 . S
C321 H307 0.960 . S
C321 H308 0.961 . S
C321 H309 0.959 . S
C321 C319 1.561 1_655 S
C322 C319 1.526 1_655 S
C322 C323 1.396 . S
C322 C327 1.390 . S
C323 C317 1.465 . S
C323 C322 1.396 . S
C323 C324 1.399 . S
C324 H310 0.929 . S
C324 C323 1.399 . S
C324 C325 1.385 . S
C325 H311 0.931 . S
C325 C324 1.385 . S
C325 C326 1.389 . S
C326 C325 1.389 . S
C326 C327 1.387 . S
C327 H312 0.930 . S
C327 C322 1.390 . S
C327 C326 1.387 . S
H328 C340 0.930 . S
H329 C342 0.930 . S
H330 C343 0.930 . S
H331 C347 0.959 . S
H332 C347 0.959 . S
H333 C347 0.961 . S
H334 C348 0.960 . S
H335 C348 0.961 . S
H336 C348 0.959 . S
H337 C351 0.929 . S
H338 C352 0.931 . S
H339 C354 0.930 . S
C340 H328 0.930 . S
C340 C341 1.399 . S
C340 C345 1.399 . S
C341 C340 1.399 . S
C341 C342 1.376 . S
C342 H329 0.930 . S
C342 C341 1.376 . S
C342 C343 1.388 . S
C343 H330 0.930 . S
C343 C342 1.388 . S
C343 C344 1.390 . S
C344 C343 1.390 . S
C344 C345 1.394 . S
C344 C350 1.465 . S
C345 C340 1.399 . S
C345 C344 1.394 . S
C345 C346 1.516 . S
C346 C345 1.516 . S
C346 C347 1.502 . S
C346 C348 1.561 . S
C346 C349 1.526 . S
C347 H331 0.959 . S
C347 H332 0.959 . S
C347 H333 0.961 . S
C347 C346 1.502 . S
C348 H334 0.960 . S
C348 H335 0.961 . S
C348 H336 0.959 . S
C348 C346 1.561 . S
C349 C346 1.526 . S
C349 C350 1.396 . S
C349 C354 1.390 . S
C350 C344 1.465 . S
C350 C349 1.396 . S
C350 C351 1.399 . S
C351 H337 0.929 . S
C351 C350 1.399 . S
C351 C352 1.385 . S
C352 H338 0.931 . S
C352 C351 1.385 . S
C352 C353 1.389 . S
C353 C352 1.389 . S
C353 C354 1.387 . S
C354 H339 0.930 . S
C354 C349 1.390 . S
C354 C353 1.387 . S
H355 C367 0.930 . S
H356 C369 0.930 . S
H357 C370 0.930 . S
H358 C374 0.959 . S
H359 C374 0.959 . S
H360 C374 0.961 . S
H361 C375 0.960 . S
H362 C375 0.961 . S
H363 C375 0.959 . S
H364 C378 0.929 . S
H365 C379 0.931 . S
H366 C381 0.930 . S
C367 H355 0.930 . S
C367 C368 1.399 . S
C367 C372 1.399 . S
C368 C367 1.399 . S
C368 C369 1.376 . S
C369 H356 0.930 . S
C369 C368 1.376 . S
C369 C370 1.388 . S
C370 H357 0.930 . S
C370 C369 1.388 . S
C370 C371 1.390 . S
C371 C370 1.390 . S
C371 C372 1.394 . S
C371 C377 1.465 . S
C372 C367 1.399 . S
C372 C371 1.394 . S
C372 C373 1.516 . S
C373 C372 1.516 . S
C373 C374 1.502 . S
C373 C375 1.561 . S
C373 C376 1.526 . S
C374 H358 0.959 . S
C374 H359 0.959 . S
C374 H360 0.961 . S
C374 C373 1.502 . S
C375 H361 0.960 . S
C375 H362 0.961 . S
C375 H363 0.959 . S
C375 C373 1.561 . S
C376 C373 1.526 . S
C376 C377 1.396 . S
C376 C381 1.390 . S
C377 C371 1.465 . S
C377 C376 1.396 . S
C377 C378 1.399 . S
C378 H364 0.929 . S
C378 C377 1.399 . S
C378 C379 1.385 . S
C379 H365 0.931 . S
C379 C378 1.385 . S
C379 C380 1.389 . S
C380 C379 1.389 . S
C380 C381 1.387 . S
C381 H366 0.930 . S
C381 C376 1.390 . S
C381 C380 1.387 . S
H382 C394 0.930 . S
H383 C396 0.930 . S
H384 C397 0.930 . S
H385 C401 0.959 . S
H386 C401 0.959 . S
H387 C401 0.961 . S
H388 C402 0.960 . S
H389 C402 0.961 . S
H390 C402 0.959 . S
H391 C405 0.929 . S
H392 C406 0.931 . S
H393 C408 0.930 . S
C394 H382 0.930 . S
C394 C395 1.399 . S
C394 C399 1.399 . S
C395 C394 1.399 . S
C395 C396 1.376 . S
C396 H383 0.930 . S
C396 C395 1.376 . S
C396 C397 1.388 . S
C397 H384 0.930 . S
C397 C396 1.388 . S
C397 C398 1.390 . S
C398 C397 1.390 . S
C398 C399 1.394 . S
C398 C404 1.465 . S
C399 C394 1.399 . S
C399 C398 1.394 . S
C399 C400 1.516 . S
C400 C399 1.516 . S
C400 C401 1.502 . S
C400 C402 1.561 . S
C400 C403 1.526 . S
C401 H385 0.959 . S
C401 H386 0.959 . S
C401 H387 0.961 . S
C401 C400 1.502 . S
C402 H388 0.960 . S
C402 H389 0.961 . S
C402 H390 0.959 . S
C402 C400 1.561 . S
C403 C400 1.526 . S
C403 C404 1.396 . S
C403 C408 1.390 . S
C404 C398 1.465 . S
C404 C403 1.396 . S
C404 C405 1.399 . S
C405 H391 0.929 . S
C405 C404 1.399 . S
C405 C406 1.385 . S
C406 H392 0.931 . S
C406 C405 1.385 . S
C406 C407 1.389 . S
C407 C406 1.389 . S
C407 C408 1.387 . S
C408 H393 0.930 . S
C408 C403 1.390 . S
C408 C407 1.387 . S
H409 C421 0.930 . S
H410 C423 0.930 . S
H411 C424 0.930 . S
H412 C428 0.959 . S
H413 C428 0.959 . S
H414 C428 0.961 . S
H415 C429 0.960 . S
H416 C429 0.961 . S
H417 C429 0.959 . S
H418 C432 0.929 . S
H419 C433 0.931 . S
H420 C435 0.930 . S
C421 H409 0.930 . S
C421 C422 1.399 . S
C421 C426 1.399 . S
C422 C421 1.399 . S
C422 C423 1.376 . S
C423 H410 0.930 . S
C423 C422 1.376 . S
C423 C424 1.388 . S
C424 H411 0.930 . S
C424 C423 1.388 . S
C424 C425 1.390 . S
C425 C424 1.390 . S
C425 C426 1.394 . S
C425 C431 1.465 . S
C426 C421 1.399 . S
C426 C425 1.394 . S
C426 C427 1.516 . S
C427 C426 1.516 . S
C427 C428 1.502 . S
C427 C429 1.561 . S
C427 C430 1.526 . S
C428 H412 0.959 . S
C428 H413 0.959 . S
C428 H414 0.961 . S
C428 C427 1.502 . S
C429 H415 0.960 . S
C429 H416 0.961 . S
C429 H417 0.959 . S
C429 C427 1.561 . S
C430 C427 1.526 . S
C430 C431 1.396 . S
C430 C435 1.390 . S
C431 C425 1.465 . S
C431 C430 1.396 . S
C431 C432 1.399 . S
C432 H418 0.929 . S
C432 C431 1.399 . S
C432 C433 1.385 . S
C433 H419 0.931 . S
C433 C432 1.385 . S
C433 C434 1.389 . S
C434 C433 1.389 . S
C434 C435 1.387 . S
C435 H420 0.930 . S
C435 C430 1.390 . S
C435 C434 1.387 . S
H436 C448 0.930 . S
H437 C450 0.930 . S
H438 C451 0.930 . S
H439 C455 0.959 . S
H440 C455 0.959 . S
H441 C455 0.961 . S
H442 C456 0.960 . S
H443 C456 0.961 . S
H444 C456 0.959 . S
H445 C459 0.929 . S
H446 C460 0.931 . S
H447 C462 0.930 . S
C448 H436 0.930 . S
C448 C449 1.399 . S
C448 C453 1.399 . S
C449 C448 1.399 . S
C449 C450 1.376 1_554 S
C450 H437 0.930 . S
C450 C449 1.376 1_556 S
C450 C451 1.388 . S
C451 H438 0.930 . S
C451 C450 1.388 . S
C451 C452 1.390 . S
C452 C451 1.390 . S
C452 C453 1.394 1_556 S
C452 C458 1.465 . S
C453 C448 1.399 . S
C453 C452 1.394 1_554 S
C453 C454 1.516 . S
C454 C453 1.516 . S
C454 C455 1.502 . S
C454 C456 1.561 . S
C454 C457 1.526 . S
C455 H439 0.959 . S
C455 H440 0.959 . S
C455 H441 0.961 . S
C455 C454 1.502 . S
C456 H442 0.960 . S
C456 H443 0.961 . S
C456 H444 0.959 . S
C456 C454 1.561 . S
C457 C454 1.526 . S
C457 C458 1.396 1_554 S
C457 C462 1.390 . S
C458 C452 1.465 . S
C458 C457 1.396 1_556 S
C458 C459 1.399 . S
C459 H445 0.929 . S
C459 C458 1.399 . S
C459 C460 1.385 . S
C460 H446 0.931 . S
C460 C459 1.385 . S
C460 C461 1.389 1_556 S
C461 C460 1.389 1_554 S
C461 C462 1.387 . S
C462 H447 0.930 . S
C462 C457 1.390 . S
C462 C461 1.387 . S
H463 C475 0.930 . S
H464 C477 0.929 1_556 S
H465 C478 0.930 1_556 S
H466 C482 0.959 . S
H467 C482 0.959 . S
H468 C482 0.961 . S
H469 C483 0.960 . S
H470 C483 0.961 . S
H471 C483 0.959 . S
H472 C486 0.929 1_556 S
H473 C487 0.931 . S
H474 C489 0.930 . S
C475 H463 0.930 . S
C475 C476 1.399 . S
C475 C480 1.399 . S
C476 C475 1.399 . S
C476 C477 1.376 . S
C477 H464 0.929 1_554 S
C477 C476 1.376 . S
C477 C478 1.388 . S
C478 H465 0.930 1_554 S
C478 C477 1.388 . S
C478 C479 1.390 . S
C479 C478 1.390 . S
C479 C480 1.394 . S
C479 C485 1.465 . S
C480 C475 1.399 . S
C480 C479 1.394 . S
C480 C481 1.516 . S
C481 C480 1.516 . S
C481 C482 1.502 . S
C481 C483 1.561 1_554 S
C481 C484 1.526 . S
C482 H466 0.959 . S
C482 H467 0.959 . S
C482 H468 0.961 . S
C482 C481 1.502 . S
C483 H469 0.960 . S
C483 H470 0.961 . S
C483 H471 0.959 . S
C483 C481 1.561 1_556 S
C484 C481 1.526 . S
C484 C485 1.396 . S
C484 C489 1.390 . S
C485 C479 1.465 . S
C485 C484 1.396 . S
C485 C486 1.399 . S
C486 H472 0.929 1_554 S
C486 C485 1.399 . S
C486 C487 1.385 . S
C487 H473 0.931 . S
C487 C486 1.385 . S
C487 C488 1.389 . S
C488 C487 1.389 . S
C488 C489 1.387 . S
C489 H474 0.930 . S
C489 C484 1.390 . S
C489 C488 1.387 . S
H490 C502 0.930 . S
H491 C504 0.930 . S
H492 C505 0.930 . S
H493 C509 0.959 . S
H494 C509 0.959 . S
H495 C509 0.961 . S
H496 C510 0.960 . S
H497 C510 0.961 . S
H498 C510 0.959 . S
H499 C513 0.929 . S
H500 C514 0.931 . S
H501 C516 0.930 . S
C502 H490 0.930 . S
C502 C503 1.399 . S
C502 C507 1.399 . S
C503 C502 1.399 . S
C503 C504 1.376 . S
C504 H491 0.930 . S
C504 C503 1.376 . S
C504 C505 1.388 . S
C505 H492 0.930 . S
C505 C504 1.388 . S
C505 C506 1.390 . S
C506 C505 1.390 . S
C506 C507 1.394 . S
C506 C512 1.465 . S
C507 C502 1.399 . S
C507 C506 1.394 . S
C507 C508 1.516 . S
C508 C507 1.516 . S
C508 C509 1.502 . S
C508 C510 1.561 . S
C508 C511 1.526 . S
C509 H493 0.959 . S
C509 H494 0.959 . S
C509 H495 0.961 . S
C509 C508 1.502 . S
C510 H496 0.960 . S
C510 H497 0.961 . S
C510 H498 0.959 . S
C510 C508 1.561 . S
C511 C508 1.526 . S
C511 C512 1.396 . S
C511 C516 1.390 . S
C512 C506 1.465 . S
C512 C511 1.396 . S
C512 C513 1.399 . S
C513 H499 0.929 . S
C513 C512 1.399 . S
C513 C514 1.385 . S
C514 H500 0.931 . S
C514 C513 1.385 . S
C514 C515 1.389 . S
C515 C514 1.389 . S
C515 C516 1.387 . S
C516 H501 0.930 . S
C516 C511 1.390 . S
C516 C515 1.387 . S
H517 C529 0.930 . S
H518 C531 0.930 . S
H519 C532 0.930 . S
H520 C536 0.959 . S
H521 C536 0.959 . S
H522 C536 0.961 . S
H523 C537 0.960 . S
H524 C537 0.961 . S
H525 C537 0.959 . S
H526 C540 0.929 . S
H527 C541 0.931 . S
H528 C543 0.930 . S
C529 H517 0.930 . S
C529 C530 1.399 . S
C529 C534 1.399 . S
C530 C529 1.399 . S
C530 C531 1.376 . S
C531 H518 0.930 . S
C531 C530 1.376 . S
C531 C532 1.388 . S
C532 H519 0.930 . S
C532 C531 1.388 . S
C532 C533 1.390 . S
C533 C532 1.390 . S
C533 C534 1.394 . S
C533 C539 1.465 . S
C534 C529 1.399 . S
C534 C533 1.394 . S
C534 C535 1.516 . S
C535 C534 1.516 . S
C535 C536 1.502 . S
C535 C537 1.561 . S
C535 C538 1.526 . S
C536 H520 0.959 . S
C536 H521 0.959 . S
C536 H522 0.961 . S
C536 C535 1.502 . S
C537 H523 0.960 . S
C537 H524 0.961 . S
C537 H525 0.959 . S
C537 C535 1.561 . S
C538 C535 1.526 . S
C538 C539 1.396 . S
C538 C543 1.390 . S
C539 C533 1.465 . S
C539 C538 1.396 . S
C539 C540 1.399 . S
C540 H526 0.929 . S
C540 C539 1.399 . S
C540 C541 1.385 . S
C541 H527 0.931 . S
C541 C540 1.385 . S
C541 C542 1.389 . S
C542 C541 1.389 . S
C542 C543 1.387 . S
C543 H528 0.930 . S
C543 C538 1.390 . S
C543 C542 1.387 . S
C125 C22 1.452 . S
C137 C8 1.417 . S
C152 C36 1.437 . S
C164 C50 1.428 . S
C179 C64 1.448 . S
C191 C78 1.420 . S
C206 C92 1.440 . S
C218 C106 1.487 . S
C233 C13 1.258 . S
C245 C55 1.173 . S
C260 C41 1.266 . S
C272 C27 1.222 . S
C287 C35 1.180 . S
C299 C21 1.180 . S
C314 C7 1.224 . S
C326 C49 1.229 . S
C341 C69 1.267 . S
C353 C111 1.218 . S
C368 C97 1.265 . S
C380 C83 1.227 . S
C395 C77 1.224 . S
C407 C91 1.229 . S
C422 C63 1.225 . S
C434 C105 1.229 . S
C449 C81 1.530 . S
C461 C11 1.534 . S
C476 C67 1.542 . S
C488 C25 1.536 . S
C503 C39 1.529 . S
C515 C109 1.532 . S
C530 C95 1.530 . S
C542 C53 1.533 . S
