# Generated by pormake.
# Topology sst, (4)-cn, num edge types: 1
# Building blocks:
#     Node 0, Type 0, BuildingBlock: MUDLON_clean_sbu_0, # of connection points: 4
#     Node 1, Type 0, BuildingBlock: MUDLON_clean_sbu_0, # of connection points: 4
#     Node 2, Type 0, BuildingBlock: MUDLON_clean_sbu_0, # of connection points: 4
#     Node 3, Type 0, BuildingBlock: MUDLON_clean_sbu_0, # of connection points: 4
#     Node 4, Type 0, BuildingBlock: MUDLON_clean_sbu_0, # of connection points: 4
#     Node 5, Type 0, BuildingBlock: MUDLON_clean_sbu_0, # of connection points: 4
#     Node 6, Type 0, BuildingBlock: MUDLON_clean_sbu_0, # of connection points: 4
#     Node 7, Type 0, BuildingBlock: MUDLON_clean_sbu_0, # of connection points: 4
#     Node 8, Type 0, BuildingBlock: MUDLON_clean_sbu_0, # of connection points: 4
#     Node 9, Type 0, BuildingBlock: MUDLON_clean_sbu_0, # of connection points: 4
#     Node 10, Type 0, BuildingBlock: MUDLON_clean_sbu_0, # of connection points: 4
#     Node 11, Type 0, BuildingBlock: MUDLON_clean_sbu_0, # of connection points: 4
#     Node 12, Type 0, BuildingBlock: MUDLON_clean_sbu_0, # of connection points: 4
#     Node 13, Type 0, BuildingBlock: MUDLON_clean_sbu_0, # of connection points: 4
#     Node 14, Type 0, BuildingBlock: MUDLON_clean_sbu_0, # of connection points: 4
#     Node 15, Type 0, BuildingBlock: MUDLON_clean_sbu_0, # of connection points: 4
#     Node 16, Type 0, BuildingBlock: MUDLON_clean_sbu_0, # of connection points: 4
#     Node 17, Type 0, BuildingBlock: MUDLON_clean_sbu_0, # of connection points: 4
#     Node 18, Type 0, BuildingBlock: MUDLON_clean_sbu_0, # of connection points: 4
#     Node 19, Type 0, BuildingBlock: MUDLON_clean_sbu_0, # of connection points: 4
#     Node 20, Type 0, BuildingBlock: MUDLON_clean_sbu_0, # of connection points: 4
#     Node 21, Type 0, BuildingBlock: MUDLON_clean_sbu_0, # of connection points: 4
#     Node 22, Type 0, BuildingBlock: MUDLON_clean_sbu_0, # of connection points: 4
#     Node 23, Type 0, BuildingBlock: MUDLON_clean_sbu_0, # of connection points: 4
#     Node 24, Type 0, BuildingBlock: MUDLON_clean_sbu_0, # of connection points: 4
#     Node 25, Type 0, BuildingBlock: MUDLON_clean_sbu_0, # of connection points: 4
#     Node 26, Type 0, BuildingBlock: MUDLON_clean_sbu_0, # of connection points: 4
#     Node 27, Type 0, BuildingBlock: MUDLON_clean_sbu_0, # of connection points: 4
#     Node 28, Type 0, BuildingBlock: MUDLON_clean_sbu_0, # of connection points: 4
#     Node 29, Type 0, BuildingBlock: MUDLON_clean_sbu_0, # of connection points: 4
#     Node 30, Type 0, BuildingBlock: MUDLON_clean_sbu_0, # of connection points: 4
#     Node 31, Type 0, BuildingBlock: MUDLON_clean_sbu_0, # of connection points: 4
#     Node 32, Type 0, BuildingBlock: MUDLON_clean_sbu_0, # of connection points: 4
#     Node 33, Type 0, BuildingBlock: MUDLON_clean_sbu_0, # of connection points: 4
#     Node 34, Type 0, BuildingBlock: MUDLON_clean_sbu_0, # of connection points: 4
#     Node 35, Type 0, BuildingBlock: MUDLON_clean_sbu_0, # of connection points: 4
#     Node 36, Type 0, BuildingBlock: MUDLON_clean_sbu_0, # of connection points: 4
#     Node 37, Type 0, BuildingBlock: MUDLON_clean_sbu_0, # of connection points: 4
#     Node 38, Type 0, BuildingBlock: MUDLON_clean_sbu_0, # of connection points: 4
#     Node 39, Type 0, BuildingBlock: MUDLON_clean_sbu_0, # of connection points: 4
#     Node 40, Type 0, BuildingBlock: MUDLON_clean_sbu_0, # of connection points: 4
#     Node 41, Type 0, BuildingBlock: MUDLON_clean_sbu_0, # of connection points: 4
#     Node 42, Type 0, BuildingBlock: MUDLON_clean_sbu_0, # of connection points: 4
#     Node 43, Type 0, BuildingBlock: MUDLON_clean_sbu_0, # of connection points: 4
#     Node 44, Type 0, BuildingBlock: MUDLON_clean_sbu_0, # of connection points: 4
#     Node 45, Type 0, BuildingBlock: MUDLON_clean_sbu_0, # of connection points: 4
#     Node 46, Type 0, BuildingBlock: MUDLON_clean_sbu_0, # of connection points: 4
#     Node 47, Type 0, BuildingBlock: MUDLON_clean_sbu_0, # of connection points: 4
#     Edge 48, Type (0, 0), BuildingBlock: UVAHIK_clean_linker_0, # of connection points: 2
#     Edge 49, Type (0, 0), BuildingBlock: UVAHIK_clean_linker_0, # of connection points: 2
#     Edge 50, Type (0, 0), BuildingBlock: UVAHIK_clean_linker_0, # of connection points: 2
#     Edge 51, Type (0, 0), BuildingBlock: UVAHIK_clean_linker_0, # of connection points: 2
#     Edge 52, Type (0, 0), BuildingBlock: UVAHIK_clean_linker_0, # of connection points: 2
#     Edge 53, Type (0, 0), BuildingBlock: UVAHIK_clean_linker_0, # of connection points: 2
#     Edge 54, Type (0, 0), BuildingBlock: UVAHIK_clean_linker_0, # of connection points: 2
#     Edge 55, Type (0, 0), BuildingBlock: UVAHIK_clean_linker_0, # of connection points: 2
#     Edge 56, Type (0, 0), BuildingBlock: UVAHIK_clean_linker_0, # of connection points: 2
#     Edge 57, Type (0, 0), BuildingBlock: UVAHIK_clean_linker_0, # of connection points: 2
#     Edge 58, Type (0, 0), BuildingBlock: UVAHIK_clean_linker_0, # of connection points: 2
#     Edge 59, Type (0, 0), BuildingBlock: UVAHIK_clean_linker_0, # of connection points: 2
#     Edge 60, Type (0, 0), BuildingBlock: UVAHIK_clean_linker_0, # of connection points: 2
#     Edge 61, Type (0, 0), BuildingBlock: UVAHIK_clean_linker_0, # of connection points: 2
#     Edge 62, Type (0, 0), BuildingBlock: UVAHIK_clean_linker_0, # of connection points: 2
#     Edge 63, Type (0, 0), BuildingBlock: UVAHIK_clean_linker_0, # of connection points: 2
#     Edge 64, Type (0, 0), BuildingBlock: UVAHIK_clean_linker_0, # of connection points: 2
#     Edge 65, Type (0, 0), BuildingBlock: UVAHIK_clean_linker_0, # of connection points: 2
#     Edge 66, Type (0, 0), BuildingBlock: UVAHIK_clean_linker_0, # of connection points: 2
#     Edge 67, Type (0, 0), BuildingBlock: UVAHIK_clean_linker_0, # of connection points: 2
#     Edge 68, Type (0, 0), BuildingBlock: UVAHIK_clean_linker_0, # of connection points: 2
#     Edge 69, Type (0, 0), BuildingBlock: UVAHIK_clean_linker_0, # of connection points: 2
#     Edge 70, Type (0, 0), BuildingBlock: UVAHIK_clean_linker_0, # of connection points: 2
#     Edge 71, Type (0, 0), BuildingBlock: UVAHIK_clean_linker_0, # of connection points: 2
#     Edge 72, Type (0, 0), BuildingBlock: UVAHIK_clean_linker_0, # of connection points: 2
#     Edge 73, Type (0, 0), BuildingBlock: UVAHIK_clean_linker_0, # of connection points: 2
#     Edge 74, Type (0, 0), BuildingBlock: UVAHIK_clean_linker_0, # of connection points: 2
#     Edge 75, Type (0, 0), BuildingBlock: UVAHIK_clean_linker_0, # of connection points: 2
#     Edge 76, Type (0, 0), BuildingBlock: UVAHIK_clean_linker_0, # of connection points: 2
#     Edge 77, Type (0, 0), BuildingBlock: UVAHIK_clean_linker_0, # of connection points: 2
#     Edge 78, Type (0, 0), BuildingBlock: UVAHIK_clean_linker_0, # of connection points: 2
#     Edge 79, Type (0, 0), BuildingBlock: UVAHIK_clean_linker_0, # of connection points: 2
#     Edge 80, Type (0, 0), BuildingBlock: UVAHIK_clean_linker_0, # of connection points: 2
#     Edge 81, Type (0, 0), BuildingBlock: UVAHIK_clean_linker_0, # of connection points: 2
#     Edge 82, Type (0, 0), BuildingBlock: UVAHIK_clean_linker_0, # of connection points: 2
#     Edge 83, Type (0, 0), BuildingBlock: UVAHIK_clean_linker_0, # of connection points: 2
#     Edge 84, Type (0, 0), BuildingBlock: UVAHIK_clean_linker_0, # of connection points: 2
#     Edge 85, Type (0, 0), BuildingBlock: UVAHIK_clean_linker_0, # of connection points: 2
#     Edge 86, Type (0, 0), BuildingBlock: UVAHIK_clean_linker_0, # of connection points: 2
#     Edge 87, Type (0, 0), BuildingBlock: UVAHIK_clean_linker_0, # of connection points: 2
#     Edge 88, Type (0, 0), BuildingBlock: UVAHIK_clean_linker_0, # of connection points: 2
#     Edge 89, Type (0, 0), BuildingBlock: UVAHIK_clean_linker_0, # of connection points: 2
#     Edge 90, Type (0, 0), BuildingBlock: UVAHIK_clean_linker_0, # of connection points: 2
#     Edge 91, Type (0, 0), BuildingBlock: UVAHIK_clean_linker_0, # of connection points: 2
#     Edge 92, Type (0, 0), BuildingBlock: UVAHIK_clean_linker_0, # of connection points: 2
#     Edge 93, Type (0, 0), BuildingBlock: UVAHIK_clean_linker_0, # of connection points: 2
#     Edge 94, Type (0, 0), BuildingBlock: UVAHIK_clean_linker_0, # of connection points: 2
#     Edge 95, Type (0, 0), BuildingBlock: UVAHIK_clean_linker_0, # of connection points: 2
#     Edge 96, Type (0, 0), BuildingBlock: UVAHIK_clean_linker_0, # of connection points: 2
#     Edge 97, Type (0, 0), BuildingBlock: UVAHIK_clean_linker_0, # of connection points: 2
#     Edge 98, Type (0, 0), BuildingBlock: UVAHIK_clean_linker_0, # of connection points: 2
#     Edge 99, Type (0, 0), BuildingBlock: UVAHIK_clean_linker_0, # of connection points: 2
#     Edge 100, Type (0, 0), BuildingBlock: UVAHIK_clean_linker_0, # of connection points: 2
#     Edge 101, Type (0, 0), BuildingBlock: UVAHIK_clean_linker_0, # of connection points: 2
#     Edge 102, Type (0, 0), BuildingBlock: UVAHIK_clean_linker_0, # of connection points: 2
#     Edge 103, Type (0, 0), BuildingBlock: UVAHIK_clean_linker_0, # of connection points: 2
#     Edge 104, Type (0, 0), BuildingBlock: UVAHIK_clean_linker_0, # of connection points: 2
#     Edge 105, Type (0, 0), BuildingBlock: UVAHIK_clean_linker_0, # of connection points: 2
#     Edge 106, Type (0, 0), BuildingBlock: UVAHIK_clean_linker_0, # of connection points: 2
#     Edge 107, Type (0, 0), BuildingBlock: UVAHIK_clean_linker_0, # of connection points: 2
#     Edge 108, Type (0, 0), BuildingBlock: UVAHIK_clean_linker_0, # of connection points: 2
#     Edge 109, Type (0, 0), BuildingBlock: UVAHIK_clean_linker_0, # of connection points: 2
#     Edge 110, Type (0, 0), BuildingBlock: UVAHIK_clean_linker_0, # of connection points: 2
#     Edge 111, Type (0, 0), BuildingBlock: UVAHIK_clean_linker_0, # of connection points: 2
#     Edge 112, Type (0, 0), BuildingBlock: UVAHIK_clean_linker_0, # of connection points: 2
#     Edge 113, Type (0, 0), BuildingBlock: UVAHIK_clean_linker_0, # of connection points: 2
#     Edge 114, Type (0, 0), BuildingBlock: UVAHIK_clean_linker_0, # of connection points: 2
#     Edge 115, Type (0, 0), BuildingBlock: UVAHIK_clean_linker_0, # of connection points: 2
#     Edge 116, Type (0, 0), BuildingBlock: UVAHIK_clean_linker_0, # of connection points: 2
#     Edge 117, Type (0, 0), BuildingBlock: UVAHIK_clean_linker_0, # of connection points: 2
#     Edge 118, Type (0, 0), BuildingBlock: UVAHIK_clean_linker_0, # of connection points: 2
#     Edge 119, Type (0, 0), BuildingBlock: UVAHIK_clean_linker_0, # of connection points: 2
#     Edge 120, Type (0, 0), BuildingBlock: UVAHIK_clean_linker_0, # of connection points: 2
#     Edge 121, Type (0, 0), BuildingBlock: UVAHIK_clean_linker_0, # of connection points: 2
#     Edge 122, Type (0, 0), BuildingBlock: UVAHIK_clean_linker_0, # of connection points: 2
#     Edge 123, Type (0, 0), BuildingBlock: UVAHIK_clean_linker_0, # of connection points: 2
#     Edge 124, Type (0, 0), BuildingBlock: UVAHIK_clean_linker_0, # of connection points: 2
#     Edge 125, Type (0, 0), BuildingBlock: UVAHIK_clean_linker_0, # of connection points: 2
#     Edge 126, Type (0, 0), BuildingBlock: UVAHIK_clean_linker_0, # of connection points: 2
#     Edge 127, Type (0, 0), BuildingBlock: UVAHIK_clean_linker_0, # of connection points: 2
#     Edge 128, Type (0, 0), BuildingBlock: UVAHIK_clean_linker_0, # of connection points: 2
#     Edge 129, Type (0, 0), BuildingBlock: UVAHIK_clean_linker_0, # of connection points: 2
#     Edge 130, Type (0, 0), BuildingBlock: UVAHIK_clean_linker_0, # of connection points: 2
#     Edge 131, Type (0, 0), BuildingBlock: UVAHIK_clean_linker_0, # of connection points: 2
#     Edge 132, Type (0, 0), BuildingBlock: UVAHIK_clean_linker_0, # of connection points: 2
#     Edge 133, Type (0, 0), BuildingBlock: UVAHIK_clean_linker_0, # of connection points: 2
#     Edge 134, Type (0, 0), BuildingBlock: UVAHIK_clean_linker_0, # of connection points: 2
#     Edge 135, Type (0, 0), BuildingBlock: UVAHIK_clean_linker_0, # of connection points: 2
#     Edge 136, Type (0, 0), BuildingBlock: UVAHIK_clean_linker_0, # of connection points: 2
#     Edge 137, Type (0, 0), BuildingBlock: UVAHIK_clean_linker_0, # of connection points: 2
#     Edge 138, Type (0, 0), BuildingBlock: UVAHIK_clean_linker_0, # of connection points: 2
#     Edge 139, Type (0, 0), BuildingBlock: UVAHIK_clean_linker_0, # of connection points: 2
#     Edge 140, Type (0, 0), BuildingBlock: UVAHIK_clean_linker_0, # of connection points: 2
#     Edge 141, Type (0, 0), BuildingBlock: UVAHIK_clean_linker_0, # of connection points: 2
#     Edge 142, Type (0, 0), BuildingBlock: UVAHIK_clean_linker_0, # of connection points: 2
#     Edge 143, Type (0, 0), BuildingBlock: UVAHIK_clean_linker_0, # of connection points: 2
# Relax obj value: 0.001
# Max RMSD: 0.020
# Mean RMSD: 0.015
data_MOF--net-sst--node1-MUDLON_clean_sbu_0--edge1-UVAHIK_clean_linker_0
_symmetry_space_group_name_H-M    P1
_symmetry_Int_Tables_number       1
_symmetry_cell_setting            triclinic
loop_
_symmetry_equiv_pos_as_xyz
'x, y, z'
_cell_length_a     77.367053
_cell_length_b     77.444685
_cell_length_c     77.586045
_cell_angle_alpha  91.355845
_cell_angle_beta   91.248688
_cell_angle_gamma 91.463456
loop_
_atom_site_label
_atom_site_type_symbol
_atom_site_fract_x
_atom_site_fract_y
_atom_site_fract_z
_atom_type_partial_charge
Mg0 Mg 0.12257 0.14554 0.39528 0.0
C1 C 0.13546 0.18246 0.39889 0.0
O2 O 0.14617 0.17606 0.38766 0.0
C3 C 0.10716 0.11494 0.41415 0.0
O4 O 0.09359 0.11867 0.4046 0.0
C5 C 0.09226 0.15691 0.37297 0.0
O6 O 0.10048 0.1719 0.37501 0.0
O7 O 0.09921 0.14349 0.37888 0.0
O8 O 0.12425 0.17234 0.4054 0.0
O9 O 0.14696 0.13958 0.38293 0.0
C10 C 0.15917 0.13726 0.39386 0.0
O11 O 0.15581 0.13891 0.41034 0.0
O12 O 0.12042 0.12503 0.41414 0.0
Mg13 Mg 0.87854 0.15204 0.39055 0.0
C14 C 0.89428 0.18591 0.4057 0.0
O15 O 0.90884 0.17791 0.40332 0.0
C16 C 0.86683 0.11967 0.40907 0.0
O17 O 0.85192 0.12368 0.40201 0.0
C18 C 0.84651 0.1652 0.37286 0.0
O19 O 0.85557 0.17971 0.37493 0.0
O20 O 0.85346 0.15111 0.37697 0.0
O21 O 0.88005 0.17758 0.40313 0.0
O22 O 0.90132 0.14932 0.37463 0.0
C23 C 0.90848 0.16146 0.36637 0.0
O24 O 0.90075 0.17632 0.36533 0.0
O25 O 0.87979 0.12994 0.40752 0.0
Mg26 Mg 0.8874 0.90558 0.39996 0.0
C27 C 0.87586 0.93764 0.41907 0.0
O28 O 0.86078 0.92995 0.41581 0.0
C29 C 0.90372 0.87318 0.41308 0.0
O30 O 0.91716 0.88031 0.4057 0.0
C31 C 0.85304 0.89074 0.38483 0.0
O32 O 0.86111 0.87606 0.38572 0.0
O33 O 0.86132 0.90479 0.38856 0.0
O34 O 0.88952 0.92969 0.41524 0.0
O35 O 0.90883 0.90612 0.3821 0.0
C36 C 0.91706 0.92016 0.37923 0.0
O37 O 0.91089 0.93478 0.38505 0.0
O38 O 0.88982 0.88158 0.41397 0.0
Mg39 Mg 0.12985 0.90372 0.40097 0.0
C40 C 0.11442 0.93311 0.42228 0.0
O41 O 0.09984 0.92497 0.41782 0.0
C42 C 0.14493 0.87033 0.4136 0.0
O43 O 0.15924 0.87853 0.40937 0.0
C44 C 0.10025 0.91703 0.37847 0.0
O45 O 0.10945 0.93152 0.37987 0.0
O46 O 0.10629 0.90343 0.38495 0.0
O47 O 0.12865 0.92619 0.41853 0.0
O48 O 0.15388 0.90684 0.38694 0.0
C49 C 0.16314 0.92058 0.38908 0.0
O50 O 0.15699 0.93356 0.39802 0.0
O51 O 0.13071 0.87823 0.41266 0.0
Mg52 Mg 0.15778 0.8887 0.63644 0.0
C53 C 0.15028 0.92536 0.62654 0.0
O54 O 0.13523 0.91777 0.62281 0.0
C55 C 0.17264 0.85999 0.61477 0.0
O56 O 0.1866 0.86473 0.62377 0.0
C57 C 0.1215 0.87344 0.63944 0.0
O58 O 0.12929 0.8598 0.63333 0.0
O59 O 0.13059 0.88688 0.64367 0.0
O60 O 0.1628 0.91607 0.63123 0.0
O61 O 0.17751 0.88046 0.65489 0.0
C62 C 0.18828 0.8912 0.66205 0.0
O63 O 0.18541 0.90779 0.66101 0.0
O64 O 0.15951 0.86957 0.61539 0.0
Mg65 Mg 0.1418 0.14812 0.64891 0.0
C66 C 0.1331 0.17836 0.67242 0.0
O67 O 0.11746 0.17189 0.66939 0.0
C68 C 0.1409 0.11042 0.64404 0.0
O69 O 0.13164 0.11649 0.63125 0.0
C70 C 0.10527 0.13807 0.65284 0.0
O71 O 0.11361 0.12907 0.66434 0.0
O72 O 0.11396 0.14778 0.64298 0.0
O73 O 0.14599 0.16961 0.66771 0.0
O74 O 0.15985 0.15643 0.62925 0.0
C75 C 0.17099 0.14609 0.62348 0.0
O76 O 0.1691 0.12956 0.62653 0.0
O77 O 0.1479 0.12118 0.65497 0.0
Mg78 Mg 0.8923 0.15132 0.66136 0.0
C79 C 0.91153 0.18156 0.64567 0.0
O80 O 0.92474 0.1718 0.64915 0.0
C81 C 0.88453 0.11431 0.65429 0.0
O82 O 0.8747 0.11832 0.66731 0.0
C83 C 0.85534 0.15945 0.66243 0.0
O84 O 0.86066 0.16667 0.64827 0.0
O85 O 0.86642 0.15229 0.6721 0.0
O86 O 0.89629 0.17535 0.64747 0.0
O87 O 0.91462 0.15228 0.67896 0.0
C88 C 0.92341 0.13886 0.68137 0.0
O89 O 0.91647 0.12368 0.67709 0.0
O90 O 0.89348 0.12634 0.64755 0.0
Mg91 Mg 0.90673 0.89457 0.62868 0.0
C92 C 0.9148 0.9324 0.63098 0.0
O93 O 0.92184 0.92776 0.61639 0.0
C94 C 0.90054 0.86018 0.64578 0.0
O95 O 0.8854 0.86166 0.63807 0.0
C96 C 0.86945 0.89539 0.62996 0.0
O97 O 0.87574 0.90109 0.64497 0.0
O98 O 0.88013 0.89141 0.61831 0.0
O99 O 0.90787 0.92076 0.64011 0.0
O100 O 0.92945 0.89325 0.61247 0.0
C101 C 0.93717 0.87902 0.6107 0.0
O102 O 0.92889 0.86464 0.61451 0.0
O103 O 0.91135 0.87286 0.64568 0.0
Mg104 Mg 0.39882 0.13098 0.11528 0.0
C105 C 0.4153 0.16608 0.12385 0.0
O106 O 0.41167 0.16112 0.13946 0.0
C107 C 0.41391 0.09573 0.10552 0.0
O108 O 0.40536 0.09812 0.091 0.0
C109 C 0.3756 0.14178 0.086 0.0
O110 O 0.37928 0.15684 0.09354 0.0
O111 O 0.38116 0.1282 0.09294 0.0
O112 O 0.41294 0.15535 0.11129 0.0
O113 O 0.386 0.13422 0.14004 0.0
C114 C 0.39252 0.12649 0.15285 0.0
O115 O 0.4055 0.11622 0.15025 0.0
O116 O 0.41431 0.10768 0.11709 0.0
Mg117 Mg 0.91099 0.39904 0.14846 0.0
C118 C 0.93925 0.37452 0.13523 0.0
O119 O 0.93221 0.37724 0.12 0.0
C120 C 0.8757 0.38202 0.13708 0.0
O121 O 0.88338 0.37927 0.12236 0.0
C122 C 0.92552 0.41825 0.11717 0.0
O123 O 0.94053 0.4151 0.12453 0.0
O124 O 0.91171 0.41391 0.12478 0.0
O125 O 0.93216 0.38067 0.14862 0.0
O126 O 0.9147 0.41386 0.17274 0.0
C127 C 0.92921 0.41395 0.18084 0.0
O128 O 0.9425 0.40706 0.17328 0.0
O129 O 0.88442 0.38865 0.1498 0.0
Mg130 Mg 0.6241 0.887 0.13209 0.0
C131 C 0.63877 0.91945 0.11593 0.0
O132 O 0.62985 0.91318 0.1025 0.0
C133 C 0.62901 0.85107 0.14393 0.0
O134 O 0.61642 0.85665 0.1535 0.0
C135 C 0.60604 0.87426 0.09896 0.0
O136 O 0.61412 0.86021 0.10321 0.0
O137 O 0.60624 0.887 0.10966 0.0
O138 O 0.64069 0.91002 0.12902 0.0
O139 O 0.61511 0.89257 0.15822 0.0
C140 C 0.62829 0.89399 0.16837 0.0
O141 O 0.64362 0.89184 0.16179 0.0
O142 O 0.63584 0.86138 0.13328 0.0
Mg143 Mg 0.13511 0.63868 0.12743 0.0
C144 C 0.17316 0.63968 0.12979 0.0
O145 O 0.16849 0.65525 0.13453 0.0
C146 C 0.1034 0.61838 0.11333 0.0
O147 O 0.10888 0.62458 0.09876 0.0
C148 C 0.14174 0.65139 0.09195 0.0
O149 O 0.15372 0.63987 0.09399 0.0
O150 O 0.13187 0.65468 0.10451 0.0
O151 O 0.1613 0.62832 0.12626 0.0
O152 O 0.13321 0.65099 0.15309 0.0
C153 C 0.13779 0.64096 0.16507 0.0
O154 O 0.14356 0.6257 0.16066 0.0
O155 O 0.11282 0.62067 0.1269 0.0
Mg156 Mg 0.39921 0.88982 0.89285 0.0
C157 C 0.37761 0.92159 0.90227 0.0
O158 O 0.37704 0.91478 0.91761 0.0
C159 C 0.39745 0.85266 0.88894 0.0
O160 O 0.4139 0.85736 0.88906 0.0
C161 C 0.41971 0.90457 0.86345 0.0
O162 O 0.41377 0.91905 0.86985 0.0
O163 O 0.41714 0.89066 0.87154 0.0
O164 O 0.38402 0.91299 0.88991 0.0
O165 O 0.41017 0.88928 0.91894 0.0
C166 C 0.41399 0.90231 0.92871 0.0
O167 O 0.41382 0.91786 0.9223 0.0
O168 O 0.38629 0.86444 0.89001 0.0
Mg169 Mg 0.15816 0.38828 0.9061 0.0
C170 C 0.18584 0.41106 0.92503 0.0
O171 O 0.17657 0.40764 0.93857 0.0
C172 C 0.12241 0.39571 0.89186 0.0
O173 O 0.12926 0.38878 0.87807 0.0
C174 C 0.17754 0.37698 0.87424 0.0
O175 O 0.19058 0.38347 0.88363 0.0
O176 O 0.16269 0.37579 0.88098 0.0
O177 O 0.17986 0.40666 0.9101 0.0
O178 O 0.15841 0.37248 0.92905 0.0
C179 C 0.17232 0.36857 0.93693 0.0
O180 O 0.18713 0.37105 0.92927 0.0
O181 O 0.13196 0.39844 0.90528 0.0
Mg182 Mg 0.6678 0.14461 0.90292 0.0
C183 C 0.68236 0.17953 0.91519 0.0
O184 O 0.67568 0.17429 0.92964 0.0
C185 C 0.67582 0.10904 0.88833 0.0
O186 O 0.66353 0.11345 0.87752 0.0
C187 C 0.66079 0.1497 0.867 0.0
O188 O 0.67766 0.14916 0.86921 0.0
O189 O 0.65129 0.14781 0.88006 0.0
O190 O 0.68295 0.16886 0.90249 0.0
O191 O 0.65596 0.14384 0.92824 0.0
C192 C 0.65558 0.12972 0.9363 0.0
O193 O 0.65939 0.1154 0.92798 0.0
O194 O 0.68122 0.11993 0.89994 0.0
Mg195 Mg 0.88144 0.64399 0.88912 0.0
C196 C 0.91086 0.62221 0.87619 0.0
O197 O 0.90496 0.62768 0.86134 0.0
C198 C 0.84788 0.62138 0.88115 0.0
O199 O 0.85754 0.61182 0.87123 0.0
C200 C 0.87017 0.65853 0.85481 0.0
O201 O 0.85497 0.6541 0.86074 0.0
O202 O 0.8835 0.65727 0.86458 0.0
O203 O 0.90246 0.62556 0.88975 0.0
O204 O 0.88478 0.66028 0.91252 0.0
C205 C 0.89783 0.65824 0.92249 0.0
O206 O 0.91005 0.64796 0.91738 0.0
O207 O 0.85487 0.63378 0.89008 0.0
Mg208 Mg 0.15691 0.36248 0.15631 0.0
C209 C 0.18879 0.34516 0.17055 0.0
O210 O 0.18279 0.35133 0.1851 0.0
C211 C 0.12206 0.34785 0.14326 0.0
O212 O 0.12995 0.34933 0.12852 0.0
C213 C 0.1722 0.37444 0.12278 0.0
O214 O 0.18646 0.36992 0.13077 0.0
O215 O 0.15815 0.37441 0.13104 0.0
O216 O 0.1794 0.34586 0.1569 0.0
O217 O 0.16091 0.37946 0.17912 0.0
C218 C 0.14952 0.37986 0.19072 0.0
O219 O 0.13447 0.37205 0.1876 0.0
O220 O 0.1307 0.35091 0.15722 0.0
Mg221 Mg 0.12533 0.64094 0.87683 0.0
C222 C 0.13167 0.66352 0.84564 0.0
O223 O 0.14775 0.66335 0.85144 0.0
C224 C 0.11579 0.66073 0.91047 0.0
O225 O 0.1004 0.66143 0.90304 0.0
C226 C 0.16136 0.62686 0.88308 0.0
O227 O 0.15712 0.62978 0.89917 0.0
O228 O 0.15016 0.62922 0.87115 0.0
O229 O 0.1198 0.65679 0.85461 0.0
O230 O 0.10247 0.62363 0.87662 0.0
C231 C 0.09432 0.61938 0.89003 0.0
O232 O 0.10122 0.62322 0.9053 0.0
O233 O 0.12807 0.6541 0.90213 0.0
Mg234 Mg 0.36659 0.13797 0.87364 0.0
C235 C 0.3888 0.16902 0.8881 0.0
O236 O 0.38867 0.16027 0.9024 0.0
C237 C 0.38177 0.10693 0.89046 0.0
O238 O 0.37727 0.11574 0.90426 0.0
C239 C 0.35181 0.12175 0.8403 0.0
O240 O 0.35487 0.10763 0.8488 0.0
O241 O 0.3541 0.13633 0.84805 0.0
O242 O 0.38174 0.16227 0.8745 0.0
O243 O 0.34989 0.13741 0.89601 0.0
C244 C 0.34675 0.15063 0.90536 0.0
O245 O 0.3507 0.16605 0.89967 0.0
O246 O 0.38074 0.11405 0.87587 0.0
Mg247 Mg 0.90411 0.41356 0.90374 0.0
C248 C 0.93605 0.39587 0.89097 0.0
O249 O 0.92905 0.39999 0.8761 0.0
C250 C 0.8683 0.41338 0.91352 0.0
O251 O 0.87341 0.42958 0.91206 0.0
C252 C 0.88906 0.41874 0.86774 0.0
O253 O 0.87632 0.40986 0.8745 0.0
O254 O 0.90202 0.42339 0.87734 0.0
O255 O 0.92742 0.39808 0.9046 0.0
O256 O 0.90789 0.43188 0.92562 0.0
C257 C 0.92199 0.43248 0.93443 0.0
O258 O 0.93555 0.42489 0.92817 0.0
O259 O 0.8791 0.40166 0.91021 0.0
Mg260 Mg 0.64197 0.89373 0.89004 0.0
C261 C 0.6652 0.92487 0.88168 0.0
O262 O 0.66317 0.91807 0.86609 0.0
C263 C 0.65556 0.86047 0.90649 0.0
O264 O 0.65314 0.86903 0.92103 0.0
C265 C 0.64212 0.88805 0.85218 0.0
O266 O 0.6559 0.88026 0.85795 0.0
O267 O 0.63219 0.89492 0.86317 0.0
O268 O 0.65908 0.9167 0.89434 0.0
O269 O 0.62329 0.89572 0.91087 0.0
C270 C 0.61535 0.88262 0.91683 0.0
O271 O 0.61615 0.86769 0.90852 0.0
O272 O 0.65336 0.86813 0.89228 0.0
Mg273 Mg 0.88878 0.63785 0.13733 0.0
C274 C 0.91945 0.61865 0.1228 0.0
O275 O 0.91114 0.6216 0.10827 0.0
C276 C 0.85165 0.63517 0.13533 0.0
O277 O 0.85604 0.65155 0.13795 0.0
C278 C 0.88198 0.64758 0.10131 0.0
O279 O 0.8744 0.63232 0.10263 0.0
O280 O 0.88963 0.65436 0.11464 0.0
O281 O 0.91248 0.62283 0.13697 0.0
O282 O 0.88759 0.65046 0.16285 0.0
C283 C 0.88964 0.64005 0.17515 0.0
O284 O 0.89324 0.62394 0.17129 0.0
O285 O 0.86368 0.62424 0.13483 0.0
Mg286 Mg 0.41584 0.88426 0.14442 0.0
C287 C 0.39947 0.87322 0.11014 0.0
O288 O 0.40538 0.85828 0.1149 0.0
C289 C 0.39302 0.87564 0.17552 0.0
O290 O 0.38748 0.86241 0.16582 0.0
C291 C 0.43148 0.92001 0.15198 0.0
O292 O 0.42288 0.91785 0.16622 0.0
O293 O 0.43255 0.90725 0.14141 0.0
O294 O 0.39991 0.8858 0.12101 0.0
O295 O 0.42717 0.85855 0.14384 0.0
C296 C 0.42961 0.85021 0.1576 0.0
O297 O 0.42825 0.85833 0.17254 0.0
O298 O 0.40327 0.88682 0.16922 0.0
Mg299 Mg 0.65617 0.13562 0.15483 0.0
C300 C 0.64088 0.17089 0.14934 0.0
O301 O 0.64569 0.1674 0.13353 0.0
C302 C 0.63602 0.10446 0.13829 0.0
O303 O 0.63587 0.11405 0.12455 0.0
C304 C 0.6739 0.12636 0.12118 0.0
O305 O 0.67473 0.11115 0.12826 0.0
O306 O 0.66857 0.13906 0.13011 0.0
O307 O 0.64217 0.15926 0.16059 0.0
O308 O 0.67252 0.13157 0.17755 0.0
C309 C 0.67456 0.14363 0.18889 0.0
O310 O 0.66991 0.15928 0.18496 0.0
O311 O 0.64162 0.11108 0.15258 0.0
Mg312 Mg 0.63152 0.64152 0.87854 0.0
C313 C 0.64863 0.67424 0.89425 0.0
O314 O 0.66247 0.66597 0.88965 0.0
C315 C 0.61873 0.60869 0.89692 0.0
O316 O 0.60328 0.61449 0.89336 0.0
C317 C 0.59904 0.62941 0.85646 0.0
O318 O 0.60667 0.61446 0.85568 0.0
O319 O 0.60691 0.64226 0.86392 0.0
O320 O 0.63392 0.66654 0.89249 0.0
O321 O 0.65539 0.63979 0.86408 0.0
C322 C 0.66262 0.62532 0.86203 0.0
O323 O 0.6539 0.6111 0.86553 0.0
O324 O 0.63197 0.61812 0.89385 0.0
Mg325 Mg 0.38217 0.63217 0.8693 0.0
C326 C 0.37394 0.66875 0.87228 0.0
O327 O 0.36784 0.6635 0.85705 0.0
C328 C 0.40162 0.60348 0.8868 0.0
O329 O 0.41499 0.61213 0.88093 0.0
C330 C 0.34553 0.62491 0.87191 0.0
O331 O 0.3523 0.62538 0.8876 0.0
O332 O 0.35563 0.6273 0.85936 0.0
O333 O 0.38113 0.65774 0.88186 0.0
O334 O 0.40438 0.63234 0.852 0.0
C335 C 0.4158 0.64438 0.85436 0.0
O336 O 0.41249 0.65727 0.86498 0.0
O337 O 0.38668 0.60989 0.88541 0.0
Mg338 Mg 0.40467 0.3877 0.92156 0.0
C339 C 0.42023 0.42047 0.90675 0.0
O340 O 0.43365 0.41586 0.91605 0.0
C341 C 0.41451 0.35394 0.90207 0.0
O342 O 0.42984 0.36152 0.90112 0.0
C343 C 0.3682 0.3941 0.9207 0.0
O344 O 0.37322 0.39242 0.90468 0.0
O345 O 0.37941 0.39223 0.93275 0.0
O346 O 0.40718 0.41015 0.90516 0.0
O347 O 0.42762 0.3885 0.93864 0.0
C348 C 0.43532 0.37495 0.94318 0.0
O349 O 0.42783 0.35979 0.93983 0.0
O350 O 0.40222 0.36222 0.90875 0.0
Mg351 Mg 0.65148 0.39226 0.92534 0.0
C352 C 0.63487 0.42423 0.91146 0.0
O353 O 0.62101 0.4155 0.91604 0.0
C354 C 0.66623 0.36269 0.90486 0.0
O355 O 0.68027 0.37241 0.90738 0.0
C356 C 0.61907 0.37686 0.94124 0.0
O357 O 0.62435 0.363 0.93304 0.0
O358 O 0.62864 0.3905 0.94148 0.0
O359 O 0.64947 0.41704 0.91245 0.0
O360 O 0.67669 0.39211 0.93862 0.0
C361 C 0.68683 0.4053 0.93844 0.0
O362 O 0.68088 0.41989 0.93273 0.0
O363 O 0.65176 0.36869 0.90926 0.0
Mg364 Mg 0.65594 0.38699 0.16342 0.0
C365 C 0.6661 0.42194 0.17989 0.0
O366 O 0.68113 0.41773 0.1737 0.0
C367 C 0.64037 0.35416 0.17754 0.0
O368 O 0.62621 0.36256 0.17415 0.0
C369 C 0.62326 0.39977 0.14638 0.0
O370 O 0.63021 0.41466 0.15168 0.0
O371 O 0.63227 0.38629 0.14739 0.0
O372 O 0.65374 0.41073 0.17919 0.0
O373 O 0.68111 0.38862 0.15095 0.0
C374 C 0.68916 0.37543 0.14568 0.0
O375 O 0.68129 0.3602 0.1456 0.0
O376 O 0.65493 0.36197 0.17603 0.0
Mg377 Mg 0.63612 0.6294 0.13404 0.0
C378 C 0.64855 0.66587 0.14489 0.0
O379 O 0.6635 0.6594 0.14087 0.0
C380 C 0.64849 0.60288 0.16004 0.0
O381 O 0.66308 0.61179 0.15886 0.0
C382 C 0.60516 0.63895 0.11183 0.0
O383 O 0.61213 0.65441 0.11476 0.0
O384 O 0.61306 0.62587 0.11733 0.0
O385 O 0.63516 0.65592 0.14463 0.0
O386 O 0.66084 0.62743 0.12118 0.0
C387 C 0.66829 0.61317 0.11854 0.0
O388 O 0.65985 0.59864 0.12148 0.0
O389 O 0.63501 0.60822 0.15233 0.0
Mg390 Mg 0.39333 0.63386 0.12041 0.0
C391 C 0.38997 0.6692 0.13768 0.0
O392 O 0.37425 0.66709 0.13112 0.0
C393 C 0.38379 0.59986 0.13848 0.0
O394 O 0.36884 0.60718 0.14069 0.0
C395 C 0.35672 0.62354 0.10593 0.0
O396 O 0.3638 0.60861 0.10264 0.0
O397 O 0.36623 0.63608 0.11185 0.0
O398 O 0.40035 0.65673 0.13654 0.0
O399 O 0.41356 0.63499 0.10114 0.0
C400 C 0.42249 0.62171 0.09809 0.0
O401 O 0.41703 0.60673 0.10374 0.0
O402 O 0.39616 0.60862 0.13216 0.0
Mg403 Mg 0.40213 0.37918 0.13759 0.0
C404 C 0.38545 0.41352 0.13113 0.0
O405 O 0.37281 0.40556 0.13902 0.0
C406 C 0.41596 0.34995 0.11562 0.0
O407 O 0.43071 0.35768 0.12022 0.0
C408 C 0.37295 0.3588 0.15432 0.0
O409 O 0.38113 0.34579 0.14742 0.0
O410 O 0.37975 0.37393 0.15372 0.0
O411 O 0.39882 0.40509 0.1273 0.0
O412 O 0.42799 0.37932 0.14978 0.0
C413 C 0.43712 0.39326 0.15033 0.0
O414 O 0.4298 0.40773 0.14614 0.0
O415 O 0.40192 0.3573 0.11927 0.0
Mg416 Mg 0.90081 0.64707 0.63486 0.0
C417 C 0.92246 0.67895 0.64606 0.0
O418 O 0.92352 0.67038 0.66042 0.0
C419 C 0.90768 0.61037 0.64107 0.0
O420 O 0.89187 0.6124 0.6465 0.0
C421 C 0.88169 0.63338 0.60223 0.0
O422 O 0.89066 0.61969 0.60572 0.0
O423 O 0.88263 0.64633 0.61268 0.0
O424 O 0.91531 0.67157 0.63281 0.0
O425 O 0.889 0.64915 0.66033 0.0
C426 C 0.89776 0.64341 0.67297 0.0
O427 O 0.91259 0.63616 0.66992 0.0
O428 O 0.91564 0.62322 0.63464 0.0
Mg429 Mg 0.40628 0.86597 0.64745 0.0
C430 C 0.43857 0.84472 0.65487 0.0
O431 O 0.43542 0.84894 0.67095 0.0
C432 C 0.36951 0.8698 0.65058 0.0
O433 O 0.37625 0.88488 0.64654 0.0
C434 C 0.39448 0.87052 0.61174 0.0
O435 O 0.38616 0.85658 0.61672 0.0
O436 O 0.40459 0.87863 0.62251 0.0
O437 O 0.42748 0.84819 0.64316 0.0
O438 O 0.41341 0.88131 0.67073 0.0
C439 C 0.40934 0.87319 0.68421 0.0
O440 O 0.40121 0.85814 0.68226 0.0
O441 O 0.37959 0.85715 0.6522 0.0
Mg442 Mg 0.16968 0.39438 0.65696 0.0
C443 C 0.18853 0.40654 0.62564 0.0
O444 O 0.18383 0.42138 0.63236 0.0
C445 C 0.1889 0.38279 0.68935 0.0
O446 O 0.19 0.36848 0.68004 0.0
C447 C 0.15446 0.42956 0.66546 0.0
O448 O 0.16067 0.42614 0.68086 0.0
O449 O 0.15503 0.41802 0.65353 0.0
O450 O 0.18581 0.39287 0.63409 0.0
O451 O 0.15489 0.36985 0.657 0.0
C452 C 0.14958 0.36365 0.67105 0.0
O453 O 0.15054 0.37341 0.68514 0.0
O454 O 0.18272 0.39606 0.68232 0.0
Mg455 Mg 0.63586 0.15169 0.65053 0.0
C456 C 0.67222 0.14841 0.6453 0.0
O457 O 0.66763 0.16346 0.6395 0.0
C458 C 0.59962 0.15014 0.65691 0.0
O459 O 0.60533 0.16601 0.66027 0.0
C460 C 0.63186 0.14983 0.61411 0.0
O461 O 0.63009 0.13427 0.62034 0.0
O462 O 0.63448 0.16248 0.62475 0.0
O463 O 0.66043 0.13821 0.65064 0.0
O464 O 0.63809 0.16644 0.67495 0.0
C465 C 0.64184 0.15558 0.68645 0.0
O466 O 0.64393 0.13941 0.68158 0.0
O467 O 0.61049 0.13889 0.65238 0.0
Mg468 Mg 0.90379 0.40764 0.395 0.0
C469 C 0.88182 0.43629 0.38019 0.0
O470 O 0.88446 0.4281 0.3655 0.0
C471 C 0.90306 0.37023 0.38802 0.0
O472 O 0.91818 0.37579 0.38271 0.0
C473 C 0.92427 0.42445 0.36566 0.0
O474 O 0.92145 0.43888 0.37428 0.0
O475 O 0.91992 0.41011 0.37223 0.0
O476 O 0.88641 0.4293 0.39419 0.0
O477 O 0.91566 0.41078 0.4208 0.0
C478 C 0.91931 0.39778 0.4298 0.0
O479 O 0.9187 0.38235 0.4224 0.0
O480 O 0.89257 0.38134 0.39367 0.0
Mg481 Mg 0.6358 0.91473 0.39066 0.0
C482 C 0.66692 0.89127 0.38267 0.0
O483 O 0.65922 0.88853 0.36759 0.0
C484 C 0.59826 0.91144 0.38674 0.0
O485 O 0.60283 0.92503 0.37792 0.0
C486 C 0.62918 0.90933 0.35378 0.0
O487 O 0.62401 0.89517 0.36136 0.0
O488 O 0.63546 0.92176 0.36325 0.0
O489 O 0.65921 0.89972 0.39438 0.0
O490 O 0.63933 0.93389 0.41198 0.0
C491 C 0.62717 0.93632 0.42254 0.0
O492 O 0.61156 0.93042 0.41834 0.0
O493 O 0.61002 0.90304 0.39437 0.0
Mg494 Mg 0.11888 0.65418 0.38587 0.0
C495 C 0.13594 0.68469 0.40748 0.0
O496 O 0.13251 0.6751 0.42079 0.0
C497 C 0.12292 0.61707 0.38412 0.0
O498 O 0.10756 0.62005 0.37742 0.0
C499 C 0.12412 0.66189 0.34936 0.0
O500 O 0.13832 0.66752 0.35749 0.0
O501 O 0.11206 0.65531 0.35824 0.0
O502 O 0.13285 0.67856 0.39233 0.0
O503 O 0.09837 0.65108 0.40462 0.0
C504 C 0.09266 0.66336 0.4139 0.0
O505 O 0.09635 0.67938 0.4098 0.0
O506 O 0.1325 0.63 0.38896 0.0
Mg507 Mg 0.37705 0.13869 0.36931 0.0
C508 C 0.41378 0.13671 0.3629 0.0
O509 O 0.40883 0.15167 0.3572 0.0
C510 C 0.34032 0.13654 0.36886 0.0
O511 O 0.34558 0.15282 0.36886 0.0
C512 C 0.36867 0.14261 0.33306 0.0
O513 O 0.36404 0.12676 0.33693 0.0
O514 O 0.37526 0.15254 0.34493 0.0
O515 O 0.40232 0.12643 0.36882 0.0
O516 O 0.3773 0.15154 0.39475 0.0
C517 C 0.3733 0.14034 0.40588 0.0
O518 O 0.37004 0.12435 0.4005 0.0
O519 O 0.35179 0.125 0.36931 0.0
Mg520 Mg 0.64835 0.89434 0.63218 0.0
C521 C 0.65663 0.91769 0.60242 0.0
O522 O 0.67236 0.91419 0.60773 0.0
C523 C 0.63436 0.90557 0.66719 0.0
O524 O 0.61953 0.90215 0.6591 0.0
C525 C 0.68545 0.88448 0.63982 0.0
O526 O 0.68101 0.88982 0.65526 0.0
O527 O 0.67402 0.8838 0.62775 0.0
O528 O 0.64388 0.91228 0.61111 0.0
O529 O 0.62699 0.87522 0.63147 0.0
C530 C 0.61492 0.87574 0.62009 0.0
O531 O 0.61648 0.88664 0.60746 0.0
O532 O 0.64827 0.90488 0.65872 0.0
Mg533 Mg 0.63614 0.14087 0.39189 0.0
C534 C 0.63412 0.11552 0.36192 0.0
O535 O 0.61774 0.11946 0.3627 0.0
C536 C 0.64067 0.15086 0.4286 0.0
O537 O 0.64153 0.16561 0.42059 0.0
C538 C 0.66171 0.16087 0.37098 0.0
O539 O 0.65315 0.15248 0.35846 0.0
O540 O 0.65569 0.16058 0.38611 0.0
O541 O 0.64421 0.12023 0.37442 0.0
O542 O 0.60881 0.14592 0.38656 0.0
C543 C 0.59832 0.13578 0.39408 0.0
O544 O 0.60471 0.12422 0.40441 0.0
O545 O 0.63877 0.13694 0.4196 0.0
Mg546 Mg 0.87131 0.6555 0.39313 0.0
C547 C 0.87551 0.69127 0.40458 0.0
O548 O 0.8588 0.68774 0.40399 0.0
C549 C 0.88495 0.62192 0.3789 0.0
O550 O 0.87921 0.6286 0.36453 0.0
C551 C 0.87159 0.66758 0.35726 0.0
O552 O 0.88591 0.67424 0.36433 0.0
O553 O 0.86127 0.6592 0.36679 0.0
O554 O 0.88575 0.67929 0.40048 0.0
O555 O 0.85344 0.653 0.41455 0.0
C556 C 0.85207 0.6388 0.42242 0.0
O557 O 0.85847 0.62486 0.41532 0.0
O558 O 0.88511 0.63115 0.39271 0.0
Mg559 Mg 0.38166 0.8922 0.39315 0.0
C560 C 0.41448 0.90938 0.40773 0.0
O561 O 0.40801 0.9036 0.42206 0.0
C562 C 0.34489 0.89492 0.38463 0.0
O563 O 0.34862 0.87879 0.38104 0.0
C564 C 0.39673 0.87802 0.36023 0.0
O565 O 0.41035 0.88647 0.3668 0.0
O566 O 0.38326 0.87665 0.36929 0.0
O567 O 0.40512 0.90855 0.39402 0.0
O568 O 0.38232 0.87859 0.41755 0.0
C569 C 0.37032 0.88055 0.42833 0.0
O570 O 0.35627 0.88846 0.42349 0.0
O571 O 0.35696 0.90506 0.39051 0.0
Mg572 Mg 0.16404 0.40035 0.40816 0.0
C573 C 0.17612 0.41042 0.37254 0.0
O574 O 0.17231 0.42572 0.37877 0.0
C575 C 0.17399 0.40592 0.44469 0.0
O576 O 0.15848 0.41231 0.44322 0.0
C577 C 0.16222 0.43844 0.41329 0.0
O578 O 0.17829 0.43508 0.41759 0.0
O579 O 0.152 0.42584 0.40886 0.0
O580 O 0.17546 0.39756 0.38248 0.0
O581 O 0.14744 0.37725 0.41082 0.0
C582 C 0.14279 0.36795 0.39769 0.0
O583 O 0.14573 0.37381 0.38225 0.0
O584 O 0.18092 0.3996 0.43126 0.0
Mg585 Mg 0.37805 0.14982 0.62818 0.0
C586 C 0.38574 0.15096 0.59132 0.0
O587 O 0.3952 0.16355 0.59863 0.0
C588 C 0.37987 0.12922 0.66085 0.0
O589 O 0.39598 0.13485 0.66023 0.0
C590 C 0.41521 0.14405 0.6283 0.0
O591 O 0.40801 0.13029 0.62062 0.0
O592 O 0.40544 0.15607 0.63342 0.0
O593 O 0.37653 0.14146 0.60094 0.0
O594 O 0.35887 0.16988 0.63095 0.0
C595 C 0.35102 0.17593 0.6179 0.0
O596 O 0.35742 0.17336 0.60256 0.0
O597 O 0.36965 0.132 0.64817 0.0
Mg598 Mg 0.9237 0.40149 0.65153 0.0
C599 C 0.94388 0.43329 0.66404 0.0
O600 O 0.9385 0.42759 0.67886 0.0
C601 C 0.93644 0.36578 0.66501 0.0
O602 O 0.93571 0.37261 0.68063 0.0
C603 C 0.91931 0.39436 0.61452 0.0
O604 O 0.93311 0.38601 0.61928 0.0
O605 O 0.91106 0.40259 0.626 0.0
O606 O 0.94181 0.42355 0.65068 0.0
O607 O 0.90847 0.40675 0.67458 0.0
C608 C 0.90105 0.39543 0.68371 0.0
O609 O 0.89984 0.37936 0.67791 0.0
O610 O 0.93361 0.37518 0.65207 0.0
Mg611 Mg 0.12002 0.64577 0.62463 0.0
C612 C 0.09999 0.63252 0.59273 0.0
O613 O 0.10937 0.61897 0.59571 0.0
C614 C 0.12459 0.65046 0.66172 0.0
O615 O 0.13945 0.64525 0.65587 0.0
C616 C 0.12722 0.68059 0.61349 0.0
O617 O 0.11032 0.6784 0.61344 0.0
O618 O 0.1365 0.66799 0.61792 0.0
O619 O 0.10042 0.64498 0.60375 0.0
O620 O 0.13133 0.61998 0.62606 0.0
C621 C 0.12376 0.60979 0.63633 0.0
O622 O 0.11053 0.61544 0.64494 0.0
O623 O 0.11216 0.65233 0.65093 0.0
C624 C 0.12983 0.96086 0.43171 0.0
C625 C 0.11428 0.9515 0.42825 0.0
C626 C 0.12981 0.97877 0.43468 0.0
C627 C 0.10093 1.01603 0.44313 0.0
H628 H 0.13622 0.04175 0.41906 0.0
C629 C 0.09345 0.08656 0.42191 0.0
C630 C 0.10815 0.09762 0.42192 0.0
C631 C 0.09481 0.06927 0.4265 0.0
C632 C 0.12644 0.03482 0.42614 0.0
H633 H 0.08642 0.95361 0.42602 0.0
H634 H 0.08639 0.98472 0.43088 0.0
H635 H 0.13755 1.01047 0.42019 0.0
H636 H 0.13572 0.09934 0.42769 0.0
H637 H 0.13808 0.06917 0.43575 0.0
H638 H 0.0895 0.04046 0.44848 0.0
C639 C 0.09863 0.97827 0.43156 0.0
C640 C 0.12721 1.01682 0.42681 0.0
C641 C 0.09865 0.96036 0.42869 0.0
C642 C 0.12412 0.0912 0.42752 0.0
C643 C 0.1255 0.07385 0.43201 0.0
C644 C 0.10012 0.03405 0.44237 0.0
C645 C 0.11425 0.9878 0.43418 0.0
C646 C 0.11431 1.00712 0.43507 0.0
C647 C 0.11094 0.06257 0.43113 0.0
C648 C 0.11272 0.04365 0.43363 0.0
H649 H 0.14211 0.95445 0.43156 0.0
H650 H 0.14206 0.9856 0.43699 0.0
H651 H 0.09094 1.00906 0.44988 0.0
H652 H 0.08094 0.09106 0.4177 0.0
H653 H 0.08335 0.06095 0.42556 0.0
C654 C 0.06364 0.14119 0.36817 0.0
C655 C 0.07402 0.15621 0.36652 0.0
C656 C 0.04584 0.14135 0.36443 0.0
C657 C 1.01013 0.1721 0.36258 0.0
H658 H 0.98355 0.13252 0.34406 0.0
C659 C 0.93599 0.17427 0.35492 0.0
C660 C 0.92673 0.15989 0.36105 0.0
C661 C 0.95383 0.17355 0.35241 0.0
C662 C 0.99078 0.14366 0.34931 0.0
H663 H 0.07396 0.18289 0.35863 0.0
H664 H 0.04309 0.18308 0.3518 0.0
H665 H 1.01511 0.1317 0.34531 0.0
H666 H 0.92891 0.13317 0.36844 0.0
H667 H 0.95994 0.13198 0.36417 0.0
H668 H 0.98589 0.18394 0.36691 0.0
C669 C 0.04858 0.17127 0.35639 0.0
C670 C 1.00888 0.14319 0.35005 0.0
C671 C 0.06634 0.17112 0.36019 0.0
C672 C 0.9356 0.14451 0.36372 0.0
C673 C 0.95343 0.14379 0.3612 0.0
C674 C 0.99207 0.17258 0.36182 0.0
C675 C 0.038 0.15653 0.35889 0.0
C676 C 1.0188 0.15734 0.35687 0.0
C677 C 0.96286 0.15844 0.35594 0.0
C678 C 0.98213 0.15831 0.35536 0.0
H679 H 0.0691 0.12948 0.37305 0.0
H680 H 0.03812 0.12979 0.36665 0.0
H681 H 1.01725 0.18312 0.36824 0.0
H682 H 0.92959 0.18631 0.35265 0.0
H683 H 0.96062 0.18499 0.34805 0.0
C684 C 0.8926 0.96552 0.42521 0.0
C685 C 0.87672 0.95624 0.42425 0.0
C686 C 0.89305 0.98352 0.42766 0.0
C687 C 0.8658 0.02113 0.43947 0.0
H688 H 0.89682 0.04614 0.4098 0.0
C689 C 0.85469 0.09105 0.41818 0.0
C690 C 0.86909 0.1022 0.41619 0.0
C691 C 0.85686 0.07381 0.4226 0.0
C692 C 0.88828 0.03941 0.41841 0.0
H693 H 0.84892 0.95862 0.42595 0.0
H694 H 0.84969 0.98981 0.42991 0.0
H695 H 0.89853 1.01489 0.41144 0.0
H696 H 0.8971 0.10411 0.41806 0.0
H697 H 0.90087 0.07401 0.42575 0.0
H698 H 0.85513 0.04568 0.44589 0.0
C699 C 0.86185 0.98326 0.429 0.0
C700 C 0.88927 0.02144 0.41938 0.0
C701 C 0.8614 0.9653 0.42662 0.0
C702 C 0.88571 0.09589 0.41946 0.0
C703 C 0.88789 0.0786 0.42375 0.0
C704 C 0.86474 0.0391 0.43841 0.0
C705 C 0.87765 0.99269 0.42917 0.0
C706 C 0.87784 1.012 0.42968 0.0
C707 C 0.8735 0.06726 0.42503 0.0
C708 C 0.87577 0.04843 0.42763 0.0
H709 H 0.90466 0.95896 0.4235 0.0
H710 H 0.90548 0.99028 0.42802 0.0
H711 H 0.857 1.01437 0.4478 0.0
H712 H 0.8417 0.09547 0.41578 0.0
H713 H 0.84549 0.06542 0.42333 0.0
C714 C 0.94394 0.9353 0.36926 0.0
C715 C 0.93489 0.9198 0.37254 0.0
C716 C 0.9616 0.93529 0.36572 0.0
C717 C 0.99848 0.90675 0.35539 0.0
H718 H 0.02536 0.94279 0.37997 0.0
C719 C 0.07154 0.90199 0.3723 0.0
C720 C 0.08192 0.91718 0.37238 0.0
C721 C 0.05371 0.90257 0.36895 0.0
C722 C 1.01809 0.93279 0.37275 0.0
H723 H 0.93717 0.89199 0.37376 0.0
H724 H 0.96796 0.89199 0.36793 0.0
H725 H 0.994 0.94336 0.38001 0.0
H726 H 0.08177 0.94475 0.36805 0.0
H727 H 0.05074 0.94571 0.36209 0.0
H728 H 0.02274 0.89592 0.34865 0.0
C729 C 0.96142 0.90417 0.36785 0.0
C730 C 1.00003 0.93312 0.37275 0.0
C731 C 0.94371 0.90418 0.37126 0.0
C732 C 0.07418 0.93281 0.36818 0.0
C733 C 0.05635 0.93339 0.36488 0.0
C734 C 1.01659 0.90638 0.35546 0.0
C735 C 0.97071 0.91978 0.36552 0.0
C736 C 0.98995 0.92002 0.36423 0.0
C737 C 0.04582 0.91835 0.36564 0.0
C738 C 0.02661 0.91932 0.3643 0.0
H739 H 0.93752 0.94756 0.36998 0.0
H740 H 0.96821 0.94752 0.36358 0.0
H741 H 0.99117 0.89657 0.34849 0.0
H742 H 0.07705 0.88972 0.37547 0.0
H743 H 0.046 0.89076 0.36977 0.0
C744 C 0.13797 0.95449 0.62168 0.0
C745 C 0.1517 0.94455 0.62768 0.0
C746 C 0.13812 0.97238 0.62453 0.0
C747 C 0.16599 1.01079 0.63672 0.0
H748 H 0.1219 0.03016 0.64842 0.0
C749 C 0.15676 0.08412 0.65409 0.0
C750 C 0.14289 0.09144 0.64508 0.0
C751 C 0.15883 0.06611 0.65366 0.0
C752 C 0.13432 0.02498 0.64514 0.0
H753 H 0.17672 0.94583 0.64089 0.0
H754 H 0.17692 0.97715 0.64598 0.0
H755 H 0.12397 0.99913 0.64371 0.0
H756 H 0.12013 0.08557 0.62896 0.0
H757 H 0.12359 0.05453 0.62841 0.0
H758 H 0.17622 0.03687 0.63812 0.0
C759 C 0.16606 0.97107 0.63896 0.0
C760 C 0.1355 1.00716 0.64233 0.0
C761 C 0.16594 0.95309 0.63604 0.0
C762 C 0.13098 0.0804 0.63603 0.0
C763 C 0.13291 0.06254 0.63579 0.0
C764 C 0.16481 0.0287 0.63961 0.0
C765 C 0.15195 0.9809 0.63357 0.0
C766 C 0.15124 0.99983 0.63769 0.0
C767 C 0.14689 0.05513 0.64447 0.0
C768 C 0.14885 0.03602 0.64348 0.0
H769 H 0.12686 0.9484 0.61507 0.0
H770 H 0.12723 0.97954 0.61977 0.0
H771 H 0.17831 1.00563 0.63314 0.0
H772 H 0.16619 0.0923 0.6611 0.0
H773 H 0.1697 0.06076 0.66054 0.0
C774 C 0.95097 0.15666 0.68147 0.0
C775 C 0.94246 0.14062 0.68375 0.0
C776 C 0.96891 0.15762 0.67955 0.0
C777 C 1.00941 0.13433 0.68592 0.0
H778 H 0.02406 0.15716 0.64452 0.0
C779 C 0.07714 0.12414 0.65996 0.0
C780 C 0.08621 0.13839 0.65343 0.0
C781 C 0.05956 0.12508 0.6634 0.0
C782 C 0.02028 0.15095 0.65626 0.0
H783 H 0.94631 0.11328 0.6873 0.0
H784 H 0.97763 0.11506 0.6844 0.0
H785 H 0.99393 0.1584 0.65308 0.0
H786 H 0.08393 0.16462 0.64476 0.0
H787 H 0.05316 0.16647 0.65111 0.0
H788 H 0.03566 0.12698 0.68931 0.0
C789 C 0.97039 0.12684 0.68383 0.0
C790 C 1.003 0.15167 0.66117 0.0
C791 C 0.95244 0.12583 0.68551 0.0
C792 C 0.07719 0.15339 0.64965 0.0
C793 C 0.05956 0.15443 0.65333 0.0
C794 C 0.0267 0.13375 0.68114 0.0
C795 C 0.97873 0.14264 0.68021 0.0
C796 C 0.99735 0.14317 0.67592 0.0
C797 C 0.05064 0.14041 0.66068 0.0
C798 C 0.03232 0.1418 0.66608 0.0
H799 H 0.94372 0.16835 0.68015 0.0
H800 H 0.97504 0.17002 0.67704 0.0
H801 H 1.00546 0.12782 0.69746 0.0
H802 H 0.08375 0.11235 0.66284 0.0
H803 H 0.05305 0.11383 0.6685 0.0
C804 C 0.90009 0.09043 0.63886 0.0
C805 C 0.8868 0.0958 0.64966 0.0
C806 C 0.90322 0.07278 0.63635 0.0
C807 C 0.88347 0.02881 0.64215 0.0
H808 H 0.93106 1.01433 0.64219 0.0
C809 C 0.90119 0.95693 0.64719 0.0
C810 C 0.91333 0.95106 0.63532 0.0
C811 C 0.89845 0.97466 0.64947 0.0
C812 C 0.9177 0.01817 0.64206 0.0
H813 H 0.86605 0.08678 0.66584 0.0
H814 H 0.87161 0.05635 0.66169 0.0
H815 H 0.92487 0.04506 0.64375 0.0
H816 H 0.93264 0.95925 0.61714 0.0
H817 H 0.92796 0.99001 0.62122 0.0
H818 H 0.87633 1.0019 0.64064 0.0
C819 C 0.87953 0.06561 0.65494 0.0
C820 C 0.91413 0.03581 0.64285 0.0
C821 C 0.8764 0.08315 0.65741 0.0
C822 C 0.92315 0.96332 0.62636 0.0
C823 C 0.92053 0.98099 0.62875 0.0
C824 C 0.88704 1.01119 0.64147 0.0
C825 C 0.89312 0.06014 0.64458 0.0
C826 C 0.89696 0.04138 0.64294 0.0
C827 C 0.90792 0.98688 0.64007 0.0
C828 C 0.90419 1.00565 0.64143 0.0
H829 H 0.90836 0.09984 0.63272 0.0
H830 H 0.91364 0.06904 0.62807 0.0
H831 H 0.87009 0.03257 0.6419 0.0
H832 H 0.89339 0.94783 0.65426 0.0
H833 H 0.88878 0.97881 0.65845 0.0
C834 C 0.09242 0.85903 0.63414 0.0
C835 C 0.10231 0.87406 0.63846 0.0
C836 C 0.07458 0.85983 0.631 0.0
C837 C 0.04099 0.89 0.61747 0.0
H838 H 1.0094 0.85443 0.63329 0.0
C839 C 0.96619 0.89447 0.61147 0.0
C840 C 0.95631 0.87903 0.60927 0.0
C841 C 0.9842 0.89409 0.61376 0.0
C842 C 1.01804 0.86434 0.62849 0.0
H843 H 0.10104 0.90169 0.64332 0.0
H844 H 0.06985 0.90305 0.63795 0.0
H845 H 0.04 0.85343 0.64103 0.0
H846 H 0.95783 0.85119 0.60646 0.0
H847 H 0.98917 0.85058 0.60987 0.0
H848 H 0.01904 0.90086 0.60482 0.0
C849 C 0.07596 0.89066 0.63683 0.0
C850 C 0.03562 0.8638 0.63303 0.0
C851 C 0.09382 0.88985 0.64009 0.0
C852 C 0.96499 0.86332 0.60825 0.0
C853 C 0.98299 0.86296 0.61041 0.0
C854 C 0.0234 0.89051 0.61285 0.0
C855 C 0.06616 0.87569 0.63201 0.0
C856 C 0.04734 0.8766 0.62757 0.0
C857 C 0.99279 0.87828 0.61378 0.0
C858 C 1.01166 0.87765 0.61827 0.0
H859 H 0.09852 0.84666 0.63271 0.0
H860 H 0.06748 0.84807 0.6272 0.0
H861 H 0.0497 0.89994 0.61282 0.0
H862 H 0.95995 0.90681 0.61242 0.0
H863 H 0.99124 0.90616 0.61638 0.0
C864 C 0.36264 0.15632 0.06043 0.0
C865 C 0.36718 0.141 0.06858 0.0
C866 C 0.35659 0.15596 0.0433 0.0
C867 C 0.35847 0.12917 1.00341 0.0
H868 H 0.32577 0.16205 0.98605 0.0
C869 C 0.34184 0.13183 0.93084 0.0
C870 C 0.34274 0.14842 0.92385 0.0
C871 C 0.34137 0.12977 0.9487 0.0
C872 C 0.33495 0.15281 0.99069 0.0
H873 H 0.3681 0.11316 0.0653 0.0
H874 H 0.35725 0.11249 0.03549 0.0
H875 H 0.33119 0.16028 0.01707 0.0
H876 H 0.34273 0.17585 0.9302 0.0
H877 H 0.34189 0.17226 0.96129 0.0
H878 H 0.36247 0.12191 0.97706 0.0
C879 C 0.3587 0.12485 0.04225 0.0
C880 C 0.33809 0.15181 1.00848 0.0
C881 C 0.36481 0.12521 0.0594 0.0
C882 C 0.34204 0.16288 0.93511 0.0
C883 C 0.34152 0.16082 0.95297 0.0
C884 C 0.35528 0.13013 0.98565 0.0
C885 C 0.35485 0.14026 0.03386 0.0
C886 C 0.35012 0.14018 1.01508 0.0
C887 C 0.34171 0.14424 0.96002 0.0
C888 C 0.34369 0.14215 0.97902 0.0
H889 H 0.3643 0.16873 0.06708 0.0
H890 H 0.35397 0.16812 0.03728 0.0
H891 H 0.36803 0.12026 1.00792 0.0
H892 H 0.34228 0.12038 0.92258 0.0
H893 H 0.34121 0.11682 0.95368 0.0
C894 C 0.90647 0.44078 0.96147 0.0
C895 C 0.92205 0.43782 0.95299 0.0
C896 C 0.90622 0.44244 0.97949 0.0
C897 C 0.93411 0.44893 0.01909 0.0
H898 H 0.89872 0.42069 0.04022 0.0
C899 C 0.93978 0.42679 0.08972 0.0
C900 C 0.92465 0.42469 0.09926 0.0
C901 C 0.93887 0.43114 0.07231 0.0
C902 C 0.90853 0.42892 0.03463 0.0
H903 H 0.94974 0.43546 0.95682 0.0
H904 H 0.9493 0.43841 0.98811 0.0
H905 H 0.89812 0.42409 1.00914 0.0
H906 H 0.8967 0.42626 0.09805 0.0
H907 H 0.89514 0.43417 0.06783 0.0
H908 H 0.94467 0.45353 0.04459 0.0
C909 C 0.93725 0.43945 0.98088 0.0
C910 C 0.90817 0.43087 0.01673 0.0
C911 C 0.93749 0.4377 0.96289 0.0
C912 C 0.90862 0.42767 0.0911 0.0
C913 C 0.90772 0.43209 0.0737 0.0
C914 C 0.93444 0.44703 0.03702 0.0
C915 C 0.92156 0.44131 0.98947 0.0
C916 C 0.92109 0.4407 1.00868 0.0
C917 C 0.92281 0.43358 0.06396 0.0
C918 C 0.92179 0.43678 0.04502 0.0
H919 H 0.89432 0.44096 0.95428 0.0
H920 H 0.89394 0.44416 0.98565 0.0
H921 H 0.94414 0.45677 1.01336 0.0
H922 H 0.95235 0.42454 0.09554 0.0
H923 H 0.95077 0.43195 0.06525 0.0
C924 C 0.60784 0.89916 0.9439 0.0
C925 C 0.60841 0.88339 0.93458 0.0
C926 C 0.60363 0.89953 0.96139 0.0
C927 C 0.58612 0.87218 0.99672 0.0
H928 H 0.61398 0.90356 0.02616 0.0
C929 C 0.59892 0.86181 0.06946 0.0
C930 C 0.60018 0.8763 0.08075 0.0
C931 C 0.59643 0.86379 0.0517 0.0
C932 C 0.60586 0.89491 0.01814 0.0
H933 H 0.60435 0.85567 0.93632 0.0
H934 H 0.59742 0.85625 0.9667 0.0
H935 H 0.61618 0.90502 0.995 0.0
H936 H 0.5989 0.90423 0.0822 0.0
H937 H 0.59465 0.90769 0.05115 0.0
H938 H 0.57638 0.86162 0.02002 0.0
C939 C 0.5999 0.86843 0.96052 0.0
C940 C 0.60709 0.89575 1.00019 0.0
C941 C 0.60396 0.86808 0.94302 0.0
C942 C 0.59799 0.89279 0.07391 0.0
C943 C 0.5957 0.89478 0.05608 0.0
C944 C 0.58501 0.87124 1.01468 0.0
C945 C 0.60001 0.88412 0.97009 0.0
C946 C 0.59744 0.88423 0.98919 0.0
C947 C 0.5953 0.88033 0.04472 0.0
C948 C 0.59505 0.88243 0.02563 0.0
H949 H 0.61111 0.91122 0.93781 0.0
H950 H 0.60351 0.9119 0.96817 0.0
H951 H 0.5782 0.86331 0.98874 0.0
H952 H 0.60054 0.84892 0.07427 0.0
H953 H 0.59629 0.85238 0.04335 0.0
C954 C 0.10415 0.6701 0.93917 0.0
C955 C 0.11823 0.6652 0.92914 0.0
C956 C 0.10607 0.67246 0.95709 0.0
C957 C 0.13906 0.67822 0.99271 0.0
H958 H 0.10359 0.65727 0.02058 0.0
C959 C 0.15195 0.65739 0.06235 0.0
C960 C 0.13884 0.65854 0.07457 0.0
C961 C 0.14885 0.66173 0.04521 0.0
C962 C 0.11348 0.66349 1.01305 0.0
H963 H 0.14554 0.65952 0.93014 0.0
H964 H 0.14885 0.66351 0.96125 0.0
H965 H 0.09931 0.65826 0.9894 0.0
H966 H 0.11231 0.66578 0.07844 0.0
H967 H 0.10685 0.67342 0.04832 0.0
H968 H 0.15343 0.68302 1.01632 0.0
C969 C 0.13633 0.66571 0.9553 0.0
C970 C 0.11103 0.66405 0.99512 0.0
C971 C 0.13441 0.66332 0.93741 0.0
C972 C 0.1227 0.66483 0.06936 0.0
C973 C 0.11954 0.66905 0.05208 0.0
C974 C 0.14151 0.67765 1.01062 0.0
C975 C 0.12213 0.67003 0.96544 0.0
C976 C 0.12395 0.67109 0.98466 0.0
C977 C 0.13251 0.66726 0.03973 0.0
C978 C 0.12892 0.66994 0.021 0.0
H979 H 0.0915 0.67169 0.93326 0.0
H980 H 0.0949 0.67602 0.96443 0.0
H981 H 0.14914 0.68406 0.98513 0.0
H982 H 0.16454 0.65262 0.06592 0.0
H983 H 0.1591 0.65999 0.03609 0.0
C984 C 0.39728 0.86264 0.07941 0.0
C985 C 0.39673 0.87642 0.09149 0.0
C986 C 0.39828 0.86578 0.06178 0.0
C987 C 0.39354 0.89925 0.02855 0.0
H988 H 0.42717 0.87181 1.00458 0.0
C989 C 0.41433 0.91431 0.95911 0.0
C990 C 0.41507 0.90002 0.94765 0.0
C991 C 0.41272 0.91191 0.97686 0.0
C992 C 0.41763 0.8795 1.01102 0.0
H993 H 0.39568 0.90431 0.09437 0.0
H994 H 0.39747 0.90978 0.06363 0.0
H995 H 0.42143 0.86646 0.03473 0.0
H996 H 0.41546 0.87202 0.94598 0.0
H997 H 0.4127 0.86788 0.97677 0.0
H998 H 0.38978 0.91229 1.00475 0.0
C999 C 0.39709 0.89652 0.06777 0.0
C1000 C 0.41427 0.87639 0.02832 0.0
C1001 C 0.39605 0.89338 0.08543 0.0
C1002 C 0.41494 0.88333 0.95442 0.0
C1003 C 0.4134 0.88095 0.97212 0.0
C1004 C 0.3969 0.90237 1.01121 0.0
C1005 C 0.39878 0.88278 0.05579 0.0
C1006 C 0.40211 0.88613 0.03729 0.0
C1007 C 0.41192 0.89519 0.98354 0.0
C1008 C 0.40893 0.89246 1.00221 0.0
H1009 H 0.39769 0.84941 0.0836 0.0
H1010 H 0.39911 0.85487 0.05288 0.0
H1011 H 0.384 0.90691 0.03501 0.0
H1012 H 0.41436 0.92734 0.95435 0.0
H1013 H 0.41189 0.92317 0.98532 0.0
C1014 C 0.15638 0.36565 0.96464 0.0
C1015 C 0.17208 0.36572 0.95581 0.0
C1016 C 0.15628 0.36601 0.98269 0.0
C1017 C 0.18419 0.37941 0.02025 0.0
H1018 H 0.14937 0.35536 0.04646 0.0
C1019 C 0.18754 0.37582 0.09469 0.0
C1020 C 0.17202 0.37638 0.10376 0.0
C1021 C 0.18737 0.37522 0.07665 0.0
C1022 C 0.15905 0.36235 0.03932 0.0
H1023 H 0.19997 0.36529 0.95916 0.0
H1024 H 0.19977 0.36556 0.99057 0.0
H1025 H 0.14962 0.35144 1.01517 0.0
H1026 H 0.14411 0.3774 0.10086 0.0
H1027 H 0.14382 0.37657 0.06936 0.0
H1028 H 0.19364 0.39029 0.04438 0.0
C1029 C 0.18753 0.36562 0.98354 0.0
C1030 C 0.15923 0.36006 0.02136 0.0
C1031 C 0.18763 0.36526 0.96549 0.0
C1032 C 0.15632 0.37699 0.09431 0.0
C1033 C 0.15614 0.37633 0.07624 0.0
C1034 C 0.18403 0.38168 0.03819 0.0
C1035 C 0.17187 0.36644 0.99239 0.0
C1036 C 0.17183 0.36853 1.01158 0.0
C1037 C 0.17165 0.37513 0.06718 0.0
C1038 C 0.17147 0.37317 0.04798 0.0
H1039 H 0.14414 0.36606 0.95763 0.0
H1040 H 0.14397 0.36673 0.98902 0.0
H1041 H 0.19387 0.38644 1.01314 0.0
H1042 H 0.19987 0.37529 0.10152 0.0
H1043 H 0.19955 0.37418 0.07014 0.0
C1044 C 0.6727 0.14378 0.09428 0.0
C1045 C 0.67517 0.12785 0.1022 0.0
C1046 C 0.6712 0.14469 0.07631 0.0
C1047 C 0.67842 0.11998 0.03542 0.0
H1048 H 0.64259 0.14902 0.01714 0.0
C1049 C 0.65611 0.11431 0.96431 0.0
C1050 C 0.65453 0.12982 0.95539 0.0
C1051 C 0.65801 0.11449 0.98227 0.0
C1052 C 0.65274 0.14096 0.02203 0.0
H1053 H 0.67864 0.10047 0.0973 0.0
H1054 H 0.67589 0.10203 0.0661 0.0
H1055 H 0.64843 0.14886 0.04817 0.0
H1056 H 0.65282 0.15763 0.95854 0.0
H1057 H 0.65605 0.1579 0.98994 0.0
H1058 H 0.68257 0.11193 1.00929 0.0
C1059 C 0.67529 0.11389 0.07372 0.0
C1060 C 0.65616 0.14091 0.03983 0.0
C1061 C 0.67685 0.11298 0.09167 0.0
C1062 C 0.65398 0.14544 0.96498 0.0
C1063 C 0.65583 0.1456 0.98299 0.0
C1064 C 0.67495 0.11997 0.01766 0.0
C1065 C 0.67209 0.12969 0.06581 0.0
C1066 C 0.66899 0.13035 0.04678 0.0
C1067 C 0.65833 0.13016 0.9918 0.0
C1068 C 0.66199 0.13037 1.01074 0.0
H1069 H 0.67138 0.1555 0.10198 0.0
H1070 H 0.66908 0.15714 0.07067 0.0
H1071 H 0.68859 0.11192 0.04024 0.0
H1072 H 0.65649 0.10202 0.95738 0.0
H1073 H 0.65954 0.10233 0.98868 0.0
C1074 C 0.88462 0.6751 0.94684 0.0
C1075 C 0.89794 0.66478 0.94066 0.0
C1076 C 0.88351 0.67904 0.96452 0.0
C1077 C 0.90719 0.67537 1.00719 0.0
H1078 H 0.86076 0.67074 0.0245 0.0
C1079 C 0.87176 0.64865 0.07072 0.0
C1080 C 0.88257 0.65553 0.08411 0.0
C1081 C 0.87324 0.65438 0.05391 0.0
C1082 C 0.87384 0.67207 0.01992 0.0
H1083 H 0.92106 0.6513 0.94818 0.0
H1084 H 0.91885 0.65761 0.97875 0.0
H1085 H 0.86496 0.67224 0.9937 0.0
H1086 H 0.90302 0.6744 0.09041 0.0
H1087 H 0.90556 0.68465 0.06083 0.0
H1088 H 0.91606 0.6739 0.03345 0.0
C1089 C 0.90939 0.66304 0.97007 0.0
C1090 C 0.87626 0.67319 1.00217 0.0
C1091 C 0.9106 0.65927 0.95244 0.0
C1092 C 0.8945 0.66885 0.08038 0.0
C1093 C 0.89603 0.67461 0.06341 0.0
C1094 C 0.90477 0.67406 0.02497 0.0
C1095 C 0.89559 0.6726 0.97646 0.0
C1096 C 0.893 0.67431 0.99548 0.0
C1097 C 0.88556 0.66725 0.04991 0.0
C1098 C 0.88807 0.67179 0.03151 0.0
H1099 H 0.87473 0.67969 0.93812 0.0
H1100 H 0.8729 0.68676 0.96885 0.0
H1101 H 0.92027 0.67663 1.00261 0.0
H1102 H 0.86238 0.63841 0.0731 0.0
H1103 H 0.86515 0.64814 0.04392 0.0
C1104 C 0.0936 0.3422 0.12777 0.0
C1105 C 0.10289 0.34555 0.14333 0.0
C1106 C 0.07552 0.34244 0.1272 0.0
C1107 C 0.03616 0.34229 0.15416 0.0
H1108 H 1.01644 0.36631 0.11543 0.0
C1109 C 0.96577 0.36694 0.15258 0.0
C1110 C 0.95675 0.36702 0.13663 0.0
C1111 C 0.98308 0.36204 0.15354 0.0
C1112 C 0.02162 0.35929 0.1262 0.0
H1113 H 0.10028 0.35102 0.17067 0.0
H1114 H 0.06872 0.35156 0.16966 0.0
H1115 H 0.04737 0.36178 0.11695 0.0
H1116 H 0.95872 0.36112 0.10929 0.0
H1117 H 0.9887 0.35228 0.111 0.0
H1118 H 1.01032 0.34006 0.16351 0.0
C1119 C 0.07543 0.34862 0.15789 0.0
C1120 C 0.03945 0.35669 0.12708 0.0
C1121 C 0.09357 0.34834 0.15847 0.0
C1122 C 0.96525 0.36132 0.12179 0.0
C1123 C 0.98254 0.35639 0.12275 0.0
C1124 C 1.01828 0.34489 0.15327 0.0
C1125 C 0.06617 0.34609 0.14215 0.0
C1126 C 0.04701 0.34821 0.14109 0.0
C1127 C 0.99183 0.35705 0.13857 0.0
C1128 C 1.01076 0.3535 0.1393 0.0
H1129 H 0.10031 0.33987 0.11587 0.0
H1130 H 0.06886 0.34005 0.11492 0.0
H1131 H 0.04147 0.33554 0.16505 0.0
H1132 H 0.95968 0.37129 0.16429 0.0
H1133 H 0.98979 0.36287 0.16593 0.0
C1134 C 0.06559 0.61232 0.90306 0.0
C1135 C 0.07592 0.61337 0.88839 0.0
C1136 C 0.04768 0.60941 0.90136 0.0
C1137 C 1.01206 0.61563 0.86985 0.0
H1138 H 0.98444 0.5907 0.90266 0.0
C1139 C 0.93799 0.61217 0.86245 0.0
C1140 C 0.92866 0.61546 0.87747 0.0
C1141 C 0.95563 0.60867 0.86344 0.0
C1142 C 0.99196 0.59778 0.89343 0.0
H1143 H 0.07557 0.61103 0.86047 0.0
H1144 H 0.04446 0.60563 0.85755 0.0
H1145 H 1.01599 0.59025 0.90493 0.0
H1146 H 0.93044 0.61664 0.90542 0.0
H1147 H 0.96123 0.61071 0.90715 0.0
H1148 H 0.98818 0.62349 0.85856 0.0
C1149 C 0.05013 0.60748 0.87036 0.0
C1150 C 1.01007 0.59753 0.89473 0.0
C1151 C 0.06802 0.61044 0.87205 0.0
C1152 C 0.9372 0.61416 0.89357 0.0
C1153 C 0.95489 0.61071 0.89456 0.0
C1154 C 0.99402 0.61588 0.86855 0.0
C1155 C 0.03964 0.60742 0.88496 0.0
C1156 C 0.02037 0.60657 0.88303 0.0
C1157 C 0.96445 0.60842 0.87948 0.0
C1158 C 0.98369 0.60708 0.88039 0.0
H1159 H 0.0712 0.61453 0.91585 0.0
H1160 H 0.04005 0.60957 0.9129 0.0
H1161 H 0.01949 0.62306 0.86082 0.0
H1162 H 0.93182 0.61291 0.84983 0.0
H1163 H 0.96246 0.60657 0.85157 0.0
C1164 C 0.37651 0.94793 0.88405 0.0
C1165 C 0.37472 0.94033 0.90023 0.0
C1166 C 0.37665 0.9659 0.88255 0.0
C1167 C 0.36667 1.00696 0.90583 0.0
H1168 H 0.40097 0.02663 0.87574 0.0
C1169 C 0.38325 0.0799 0.90751 0.0
C1170 C 0.38426 0.08802 0.89152 0.0
C1171 C 0.38273 0.06188 0.90839 0.0
C1172 C 0.39123 0.02135 0.88408 0.0
H1173 H 0.37093 0.94577 0.92742 0.0
H1174 H 0.37131 0.97704 0.92484 0.0
H1175 H 0.39746 0.99533 0.87732 0.0
H1176 H 0.38637 0.08345 0.86396 0.0
H1177 H 0.38556 0.05199 0.86552 0.0
H1178 H 0.36057 0.033 0.91271 0.0
C1179 C 0.37245 0.96912 0.91325 0.0
C1180 C 0.38915 1.00338 0.88495 0.0
C1181 C 0.37225 0.95114 0.91474 0.0
C1182 C 0.38564 0.07765 0.8765 0.0
C1183 C 0.38517 0.05959 0.87739 0.0
C1184 C 0.3688 0.02491 0.90501 0.0
C1185 C 0.37506 0.97676 0.89719 0.0
C1186 C 0.37685 0.99593 0.89587 0.0
C1187 C 0.38327 0.05149 0.89331 0.0
C1188 C 0.38115 0.03235 0.89417 0.0
H1189 H 0.37837 0.94001 0.87258 0.0
H1190 H 0.3783 0.97129 0.86992 0.0
H1191 H 0.35689 1.00173 0.91417 0.0
H1192 H 0.38224 0.08745 0.91936 0.0
H1193 H 0.38163 0.05607 0.92089 0.0
C1194 C 0.09499 0.40077 0.908 0.0
C1195 C 0.10339 0.3979 0.89233 0.0
C1196 C 0.07687 0.40075 0.90851 0.0
C1197 C 0.03744 0.40465 0.88088 0.0
H1198 H 1.01474 0.37911 0.91675 0.0
C1199 C 0.96425 0.3902 0.8769 0.0
C1200 C 0.95486 0.39246 0.89207 0.0
C1201 C 0.98232 0.39 0.87751 0.0
C1202 C 0.02085 0.38644 0.90674 0.0
H1203 H 0.09927 0.39333 0.86483 0.0
H1204 H 0.06787 0.39338 0.86572 0.0
H1205 H 0.04628 0.38185 0.91691 0.0
H1206 H 0.95718 0.39538 0.9199 0.0
H1207 H 0.98873 0.3952 0.92094 0.0
H1208 H 1.01214 0.40934 0.87072 0.0
C1209 C 0.07522 0.39569 0.87763 0.0
C1210 C 0.03895 0.38805 0.90685 0.0
C1211 C 0.09327 0.39561 0.87713 0.0
C1212 C 0.96398 0.39358 0.90796 0.0
C1213 C 0.98211 0.39347 0.90856 0.0
C1214 C 0.01939 0.40309 0.88079 0.0
C1215 C 0.06676 0.398 0.89335 0.0
C1216 C 0.04748 0.39706 0.89383 0.0
C1217 C 0.99154 0.39215 0.89328 0.0
C1218 C 1.01083 0.39383 0.89362 0.0
H1219 H 0.10238 0.40253 0.91996 0.0
H1220 H 0.07078 0.40278 0.92081 0.0
H1221 H 0.04354 0.41193 0.87082 0.0
H1222 H 0.95767 0.38916 0.86444 0.0
H1223 H 0.9891 0.3885 0.86552 0.0
C1224 C 0.68074 0.08123 0.87267 0.0
C1225 C 0.6811 0.09079 0.88827 0.0
C1226 C 0.68245 0.06331 0.87254 0.0
C1227 C 0.69245 0.02534 0.9 0.0
H1228 H 0.66295 1.00146 0.86561 0.0
C1229 C 0.67178 0.95178 0.89999 0.0
C1230 C 0.67177 0.94305 0.88386 0.0
C1231 C 0.67552 0.96962 0.9013 0.0
C1232 C 0.6714 1.00791 0.87519 0.0
H1233 H 0.68425 0.08918 0.91597 0.0
H1234 H 0.68661 0.05774 0.91588 0.0
H1235 H 0.66468 0.03275 0.86638 0.0
H1236 H 0.67676 0.94613 0.85666 0.0
H1237 H 0.6831 0.97703 0.85897 0.0
H1238 H 0.69848 1.00012 0.90914 0.0
C1239 C 0.68543 0.06409 0.90365 0.0
C1240 C 0.67251 0.02593 0.87559 0.0
C1241 C 0.68408 0.08214 0.90373 0.0
C1242 C 0.67648 0.95239 0.86928 0.0
C1243 C 0.68006 0.97015 0.87057 0.0
C1244 C 0.69114 1.0072 0.89973 0.0
C1245 C 0.68409 0.05435 0.88806 0.0
C1246 C 0.68318 0.03498 0.88787 0.0
C1247 C 0.67918 0.97907 0.88649 0.0
C1248 C 0.68071 0.9983 0.8872 0.0
H1249 H 0.6786 0.08758 0.86054 0.0
H1250 H 0.68199 0.05646 0.86021 0.0
H1251 H 0.70088 0.03176 0.90959 0.0
H1252 H 0.66823 0.945 0.91149 0.0
H1253 H 0.67472 0.97615 0.91374 0.0
C1254 C 0.07712 0.61125 0.13063 0.0
C1255 C 0.08512 0.6122 0.11455 0.0
C1256 C 0.05919 0.60849 0.13158 0.0
C1257 C 0.01951 0.61456 0.10506 0.0
H1258 H 0.99665 0.59087 0.14204 0.0
C1259 C 0.94538 0.60917 0.10659 0.0
C1260 C 0.93772 0.61313 0.12243 0.0
C1261 C 0.96312 0.60633 0.10575 0.0
C1262 C 1.00286 0.5976 0.13168 0.0
H1263 H 0.08068 0.60968 0.08691 0.0
H1264 H 0.04961 0.60437 0.08856 0.0
H1265 H 0.02817 0.59034 0.14018 0.0
H1266 H 0.94268 0.61632 0.14996 0.0
H1267 H 0.97371 0.61142 0.14847 0.0
H1268 H 0.99435 0.622 0.09665 0.0
C1269 C 0.05705 0.60631 0.10046 0.0
C1270 C 0.02094 0.59732 0.13061 0.0
C1271 C 0.07493 0.60921 0.09951 0.0
C1272 C 0.94814 0.6133 0.13754 0.0
C1273 C 0.96594 0.61044 0.13669 0.0
C1274 C 1.00151 0.61478 0.10609 0.0
C1275 C 0.04883 0.60649 0.11648 0.0
C1276 C 0.02953 0.60587 0.11731 0.0
C1277 C 0.97373 0.60737 0.12072 0.0
C1278 C 0.99291 0.60638 0.11944 0.0
H1279 H 0.08456 0.61355 0.14249 0.0
H1280 H 0.05337 0.60881 0.14415 0.0
H1281 H 0.0256 0.62167 0.09488 0.0
H1282 H 0.93777 0.60878 0.0947 0.0
H1283 H 0.9686 0.60363 0.09328 0.0
C1284 C 0.42512 0.07393 0.12626 0.0
C1285 C 0.4209 0.07846 0.10926 0.0
C1286 C 0.42966 0.05701 0.13005 0.0
C1287 C 0.42492 1.01211 0.11191 0.0
H1288 H 0.45557 1.00159 0.15023 0.0
C1289 C 0.43874 0.94162 0.12934 0.0
C1290 C 0.43631 0.93782 0.14678 0.0
C1291 C 0.43996 0.9588 0.12408 0.0
C1292 C 0.44697 1.00433 0.13949 0.0
H1293 H 0.41905 0.06889 0.08279 0.0
H1294 H 0.42754 0.03963 0.08925 0.0
H1295 H 0.45206 0.03159 0.14208 0.0
H1296 H 0.43441 0.94914 0.17248 0.0
H1297 H 0.4368 0.97901 0.16335 0.0
H1298 H 0.41982 0.98486 0.10937 0.0
C1299 C 0.42681 0.04897 0.0998 0.0
C1300 C 0.44488 0.02155 0.13485 0.0
C1301 C 0.42208 0.06583 0.09605 0.0
C1302 C 0.43625 0.95159 0.15894 0.0
C1303 C 0.43767 0.96874 0.15371 0.0
C1304 C 0.42715 0.99491 0.11644 0.0
C1305 C 0.43029 0.04417 0.11691 0.0
C1306 C 0.43361 0.02574 0.12114 0.0
C1307 C 0.43901 0.97258 0.13616 0.0
C1308 C 0.43801 0.9908 0.13044 0.0
H1309 H 0.42425 0.08329 0.13679 0.0
H1310 H 0.43201 0.05388 0.14341 0.0
H1311 H 0.41587 1.01471 0.10152 0.0
H1312 H 0.43879 0.93136 0.11961 0.0
H1313 H 0.4412 0.96131 0.11049 0.0
C1314 C 0.63654 0.07475 0.15062 0.0
C1315 C 0.63369 0.08538 0.13643 0.0
C1316 C 0.63711 0.05679 0.14838 0.0
C1317 C 0.6256 0.02037 0.11798 0.0
H1318 H 0.66266 0.99739 0.14199 0.0
C1319 C 0.63946 0.9489 0.10319 0.0
C1320 C 0.64247 0.93837 0.1174 0.0
C1321 C 0.63962 0.96691 0.10519 0.0
C1322 C 0.65214 1.00355 0.13531 0.0
H1323 H 0.62845 0.08528 0.10884 0.0
H1324 H 0.62938 0.05399 0.10497 0.0
H1325 H 0.65911 0.02836 0.14653 0.0
H1326 H 0.64896 0.93864 0.14475 0.0
H1327 H 0.64916 0.97 0.14828 0.0
H1328 H 0.61853 0.99559 0.10685 0.0
C1329 C 0.63114 0.05954 0.11785 0.0
C1330 C 0.65007 0.02133 0.13794 0.0
C1331 C 0.63061 0.07752 0.12008 0.0
C1332 C 0.64665 0.94633 0.13349 0.0
C1333 C 0.64676 0.96437 0.13552 0.0
C1334 C 0.62764 1.0026 0.11538 0.0
C1335 C 0.63479 0.04897 0.13191 0.0
C1336 C 0.63676 0.02997 0.12932 0.0
C1337 C 0.64276 0.97488 0.12149 0.0
C1338 C 0.64095 0.99393 0.12399 0.0
H1339 H 0.63893 0.08032 0.16341 0.0
H1340 H 0.63962 0.04902 0.15955 0.0
H1341 H 0.61508 0.02654 0.1113 0.0
H1342 H 0.6363 0.94323 0.09058 0.0
H1343 H 0.63691 0.97458 0.09401 0.0
C1344 C 0.61749 0.45074 0.90719 0.0
C1345 C 0.63371 0.44296 0.90789 0.0
C1346 C 0.61626 0.46866 0.906 0.0
C1347 C 0.64078 0.50876 0.8954 0.0
H1348 H 0.60646 0.53073 0.92361 0.0
C1349 C 0.63742 0.58317 0.90231 0.0
C1350 C 0.62086 0.59024 0.90124 0.0
C1351 C 0.63937 0.56536 0.90402 0.0
C1352 C 0.61601 0.52481 0.91553 0.0
H1353 H 0.66139 0.44799 0.90729 0.0
H1354 H 0.65926 0.4793 0.90527 0.0
H1355 H 0.60908 0.49946 0.92381 0.0
H1356 H 0.59338 0.58406 0.90176 0.0
H1357 H 0.59678 0.55308 0.90473 0.0
H1358 H 0.64768 0.53416 0.88709 0.0
C1359 C 0.64745 0.4715 0.90554 0.0
C1360 C 0.6175 0.50684 0.91561 0.0
C1361 C 0.64868 0.45352 0.90671 0.0
C1362 C 0.60633 0.57911 0.90261 0.0
C1363 C 0.60829 0.5613 0.90435 0.0
C1364 C 0.6393 0.52676 0.89532 0.0
C1365 C 0.63122 0.47933 0.90551 0.0
C1366 C 0.62983 0.49854 0.90547 0.0
C1367 C 0.62483 0.55414 0.90475 0.0
C1368 C 0.62683 0.53503 0.90533 0.0
H1369 H 0.60567 0.44302 0.90797 0.0
H1370 H 0.60354 0.47417 0.90562 0.0
H1371 H 0.65029 0.50283 0.88728 0.0
H1372 H 0.64892 0.59133 0.90131 0.0
H1373 H 0.65231 0.56035 0.90459 0.0
C1374 C 0.57206 0.64653 0.85262 0.0
C1375 C 0.58054 0.63073 0.85102 0.0
C1376 C 0.55425 0.64743 0.84928 0.0
C1377 C 0.51433 0.62011 0.84846 0.0
H1378 H 0.49389 0.66033 0.8283 0.0
C1379 C 0.43993 0.62652 0.84263 0.0
C1380 C 0.43373 0.64261 0.84811 0.0
C1381 C 0.45762 0.62447 0.83969 0.0
C1382 C 0.49936 0.64902 0.83402 0.0
H1383 H 0.57687 0.60358 0.84405 0.0
H1384 H 0.54584 0.60518 0.83809 0.0
H1385 H 0.52527 0.65792 0.8294 0.0
H1386 H 0.44116 0.66935 0.85386 0.0
H1387 H 0.47174 0.66582 0.84877 0.0
H1388 H 0.48847 0.6114 0.85348 0.0
C1389 C 0.55296 0.61686 0.84215 0.0
C1390 C 0.51739 0.64764 0.83466 0.0
C1391 C 0.57081 0.61596 0.84544 0.0
C1392 C 0.44546 0.65676 0.84966 0.0
C1393 C 0.46306 0.65475 0.84665 0.0
C1394 C 0.4963 0.62149 0.84783 0.0
C1395 C 0.54438 0.63255 0.84428 0.0
C1396 C 0.52515 0.63331 0.84217 0.0
C1397 C 0.46948 0.6385 0.84203 0.0
C1398 C 0.48856 0.63612 0.84089 0.0
H1399 H 0.5791 0.65817 0.85691 0.0
H1400 H 0.54811 0.65971 0.85125 0.0
H1401 H 0.5198 0.60898 0.85453 0.0
H1402 H 0.43127 0.61532 0.84138 0.0
H1403 H 0.46206 0.61181 0.83592 0.0
C1404 C 0.40273 0.44558 0.89732 0.0
C1405 C 0.4189 0.4387 0.90148 0.0
C1406 C 0.40104 0.46338 0.89527 0.0
C1407 C 0.42342 0.50505 0.90768 0.0
H1408 H 0.38988 0.52414 0.87608 0.0
C1409 C 0.41997 0.5781 0.89334 0.0
C1410 C 0.40347 0.58518 0.89165 0.0
C1411 C 0.4218 0.56033 0.89535 0.0
C1412 C 0.39917 0.51899 0.88511 0.0
H1413 H 0.44615 0.44503 0.90569 0.0
H1414 H 0.44333 0.47591 0.90152 0.0
H1415 H 0.39363 0.49298 0.87636 0.0
H1416 H 0.37593 0.57911 0.89145 0.0
H1417 H 0.37916 0.5481 0.89496 0.0
H1418 H 0.42914 0.53115 0.91618 0.0
C1419 C 0.43182 0.46768 0.9004 0.0
C1420 C 0.40134 0.5011 0.88528 0.0
C1421 C 0.43348 0.44991 0.90261 0.0
C1422 C 0.38883 0.57413 0.89273 0.0
C1423 C 0.39068 0.55633 0.89457 0.0
C1424 C 0.42136 0.52294 0.9074 0.0
C1425 C 0.41551 0.47473 0.89718 0.0
C1426 C 0.41348 0.49386 0.89659 0.0
C1427 C 0.40718 0.54918 0.89558 0.0
C1428 C 0.40918 0.53012 0.89615 0.0
H1429 H 0.3912 0.43734 0.89647 0.0
H1430 H 0.38824 0.46828 0.89294 0.0
H1431 H 0.43263 0.5 0.91685 0.0
H1432 H 0.43152 0.58622 0.89255 0.0
H1433 H 0.4347 0.55523 0.89603 0.0
C1434 C 0.46236 0.39221 0.95147 0.0
C1435 C 0.45374 0.37609 0.94907 0.0
C1436 C 0.48027 0.39323 0.95453 0.0
C1437 C 0.51878 0.3669 0.96552 0.0
H1438 H 0.54339 0.40173 0.93983 0.0
C1439 C 0.59075 0.36214 0.94765 0.0
C1440 C 0.60103 0.37737 0.94743 0.0
C1441 C 0.5731 0.36278 0.95111 0.0
C1442 C 0.53675 0.3921 0.94734 0.0
H1443 H 0.45721 0.34837 0.94877 0.0
H1444 H 0.48833 0.35014 0.95379 0.0
H1445 H 0.51195 0.40146 0.94004 0.0
H1446 H 0.60089 0.40519 0.95143 0.0
H1447 H 0.57007 0.40628 0.9575 0.0
H1448 H 0.54369 0.35721 0.97228 0.0
C1449 C 0.48128 0.36204 0.95356 0.0
C1450 C 0.51866 0.39195 0.94749 0.0
C1451 C 0.46337 0.36102 0.9506 0.0
C1452 C 0.59337 0.3932 0.9515 0.0
C1453 C 0.57567 0.39384 0.95484 0.0
C1454 C 0.53689 0.367 0.96528 0.0
C1455 C 0.49006 0.37817 0.95518 0.0
C1456 C 0.50939 0.3792 0.95638 0.0
C1457 C 0.56524 0.37867 0.95434 0.0
C1458 C 0.54609 0.37946 0.95599 0.0
H1459 H 0.45535 0.40409 0.95046 0.0
H1460 H 0.4865 0.40587 0.95605 0.0
H1461 H 0.51214 0.35707 0.97277 0.0
H1462 H 0.59621 0.34973 0.94458 0.0
H1463 H 0.56545 0.35086 0.95048 0.0
C1464 C 0.63318 0.57519 0.16805 0.0
C1465 C 0.64849 0.58533 0.16749 0.0
C1466 C 0.63361 0.5579 0.17298 0.0
C1467 C 0.6621 0.52512 0.19315 0.0
H1468 H 0.63356 0.4926 0.16564 0.0
C1469 C 0.67669 0.45245 0.18565 0.0
C1470 C 0.66281 0.44037 0.18418 0.0
C1471 C 0.67371 0.47019 0.18682 0.0
C1472 C 0.64142 0.50149 0.17366 0.0
H1473 H 0.67621 0.5853 0.1723 0.0
H1474 H 0.67702 0.55526 0.18057 0.0
H1475 H 0.63058 0.52347 0.1617 0.0
H1476 H 0.63484 0.43755 0.18362 0.0
H1477 H 0.62965 0.46853 0.18565 0.0
H1478 H 0.67335 0.503 0.20464 0.0
C1479 C 0.66459 0.56065 0.17747 0.0
C1480 C 0.6397 0.51927 0.17142 0.0
C1481 C 0.66414 0.57794 0.17264 0.0
C1482 C 0.64585 0.44646 0.18476 0.0
C1483 C 0.64286 0.46424 0.18576 0.0
C1484 C 0.66389 0.50733 0.1953 0.0
C1485 C 0.64938 0.55025 0.17741 0.0
C1486 C 0.65019 0.53136 0.18094 0.0
C1487 C 0.65676 0.47635 0.18642 0.0
C1488 C 0.65374 0.49528 0.18541 0.0
H1489 H 0.62087 0.58046 0.16424 0.0
H1490 H 0.62158 0.55045 0.17308 0.0
H1491 H 0.67018 0.53398 0.20097 0.0
H1492 H 0.68993 0.44824 0.18526 0.0
H1493 H 0.68473 0.47911 0.18718 0.0
C1494 C 0.57852 0.62093 0.10368 0.0
C1495 C 0.58724 0.6371 0.10456 0.0
C1496 C 0.56095 0.61964 0.09892 0.0
C1497 C 0.52189 0.64587 0.09927 0.0
H1498 H 0.50111 0.60736 0.07277 0.0
C1499 C 0.448 0.64013 0.08939 0.0
C1500 C 0.44059 0.62369 0.0922 0.0
C1501 C 0.46585 0.64222 0.08719 0.0
C1502 C 0.50669 0.61817 0.08027 0.0
H1503 H 0.58446 0.66448 0.10018 0.0
H1504 H 0.55396 0.66218 0.09176 0.0
H1505 H 0.53256 0.60997 0.07601 0.0
H1506 H 0.44609 0.59642 0.09369 0.0
H1507 H 0.47706 0.60008 0.09011 0.0
H1508 H 0.49616 0.65381 0.10404 0.0
C1509 C 0.56061 0.65053 0.09505 0.0
C1510 C 0.52473 0.61966 0.08212 0.0
C1511 C 0.57816 0.65182 0.09978 0.0
C1512 C 0.45131 0.60929 0.0916 0.0
C1513 C 0.46915 0.61139 0.08947 0.0
C1514 C 0.50389 0.64435 0.09748 0.0
C1515 C 0.55167 0.63448 0.09493 0.0
C1516 C 0.53256 0.63343 0.09181 0.0
C1517 C 0.47676 0.62794 0.08778 0.0
C1518 C 0.496 0.63036 0.08814 0.0
H1519 H 0.58509 0.60933 0.10728 0.0
H1520 H 0.55446 0.60709 0.09909 0.0
H1521 H 0.52742 0.65648 0.10707 0.0
H1522 H 0.44014 0.6515 0.08968 0.0
H1523 H 0.47118 0.65513 0.08554 0.0
C1524 C 0.40014 0.4421 0.12507 0.0
C1525 C 0.3852 0.4326 0.12947 0.0
C1526 C 0.40042 0.46023 0.12585 0.0
C1527 C 0.37826 0.49652 0.14722 0.0
H1528 H 0.40155 0.52464 0.11372 0.0
C1529 C 0.37088 0.57064 0.14473 0.0
C1530 C 0.38528 0.58087 0.14021 0.0
C1531 C 0.37155 0.55258 0.14415 0.0
C1532 C 0.39519 0.51699 0.12334 0.0
H1533 H 0.35858 0.43479 0.13731 0.0
H1534 H 0.35899 0.46622 0.13837 0.0
H1535 H 0.40112 0.49323 0.11029 0.0
H1536 H 0.41195 0.58003 0.13219 0.0
H1537 H 0.41319 0.54859 0.13145 0.0
H1538 H 0.3723 0.52023 0.16027 0.0
C1539 C 0.37063 0.45972 0.13471 0.0
C1540 C 0.39491 0.49895 0.12134 0.0
C1541 C 0.37036 0.44166 0.13394 0.0
C1542 C 0.40059 0.57258 0.13572 0.0
C1543 C 0.40125 0.55452 0.13513 0.0
C1544 C 0.37854 0.51453 0.14923 0.0
C1545 C 0.38577 0.46926 0.13104 0.0
C1546 C 0.38633 0.48848 0.13319 0.0
C1547 C 0.38665 0.54427 0.13905 0.0
C1548 C 0.38693 0.52503 0.13727 0.0
H1549 H 0.41183 0.43556 0.12164 0.0
H1550 H 0.41232 0.46713 0.123 0.0
H1551 H 0.37184 0.48888 0.15682 0.0
H1552 H 0.35885 0.57654 0.14817 0.0
H1553 H 0.36 0.54514 0.14711 0.0
C1554 C 0.59424 0.41316 0.14336 0.0
C1555 C 0.60423 0.39824 0.14334 0.0
C1556 C 0.57619 0.4119 0.14369 0.0
C1557 C 0.53815 0.38199 0.13719 0.0
H1558 H 0.51684 0.41404 0.16893 0.0
C1559 C 0.46501 0.37721 0.15232 0.0
C1560 C 0.45624 0.3929 0.15256 0.0
C1561 C 0.48313 0.37712 0.152 0.0
C1562 C 0.52253 0.40508 0.15989 0.0
H1563 H 0.6029 0.37022 0.1427 0.0
H1564 H 0.57137 0.36802 0.14328 0.0
H1565 H 0.548 0.41544 0.16534 0.0
H1566 H 0.45974 0.42079 0.15332 0.0
H1567 H 0.49112 0.42064 0.15277 0.0
H1568 H 0.51258 0.3717 0.1317 0.0
C1569 C 0.57753 0.38072 0.143 0.0
C1570 C 0.54043 0.40591 0.15779 0.0
C1571 C 0.59563 0.38199 0.14266 0.0
C1572 C 0.46603 0.40846 0.15317 0.0
C1573 C 0.48409 0.40837 0.15291 0.0
C1574 C 0.52019 0.38117 0.13928 0.0
C1575 C 0.5676 0.39568 0.14403 0.0
C1576 C 0.54849 0.3945 0.14629 0.0
C1577 C 0.4929 0.39271 0.15203 0.0
C1578 C 0.51212 0.39282 0.15055 0.0
H1579 H 0.60038 0.4259 0.14377 0.0
H1580 H 0.56895 0.42369 0.14405 0.0
H1581 H 0.54389 0.37307 0.12815 0.0
H1582 H 0.45788 0.36498 0.15179 0.0
H1583 H 0.48949 0.36482 0.15158 0.0
C1584 C 0.84448 0.65423 0.45007 0.0
C1585 C 0.84732 0.63871 0.4409 0.0
C1586 C 0.84342 0.65444 0.46809 0.0
C1587 C 0.83997 0.626 0.50639 0.0
H1588 H 0.8676 0.66262 0.5292 0.0
C1589 C 0.87093 0.61974 0.57425 0.0
C1590 C 0.87246 0.6344 0.58528 0.0
C1591 C 0.86414 0.62097 0.55747 0.0
C1592 C 0.85956 0.65246 0.52312 0.0
H1593 H 0.85008 0.61108 0.44347 0.0
H1594 H 0.84844 0.61147 0.47469 0.0
H1595 H 0.86195 0.66355 0.49828 0.0
H1596 H 0.86732 0.66176 0.58748 0.0
H1597 H 0.85545 0.66389 0.55815 0.0
H1598 H 0.83817 0.61461 0.53122 0.0
C1599 C 0.8469 0.6235 0.46806 0.0
C1600 C 0.85628 0.653 0.50533 0.0
C1601 C 0.84792 0.62329 0.45008 0.0
C1602 C 0.86637 0.65021 0.57933 0.0
C1603 C 0.85967 0.65146 0.56247 0.0
C1604 C 0.84332 0.62543 0.52418 0.0
C1605 C 0.84517 0.63915 0.47738 0.0
C1606 C 0.84674 0.6396 0.49664 0.0
C1607 C 0.85877 0.63691 0.55123 0.0
C1608 C 0.85345 0.63847 0.53272 0.0
H1609 H 0.84388 0.66636 0.44344 0.0
H1610 H 0.84174 0.66669 0.47479 0.0
H1611 H 0.83231 0.61562 0.50023 0.0
H1612 H 0.87545 0.60735 0.57839 0.0
H1613 H 0.86382 0.60953 0.54916 0.0
C1614 C 0.40678 0.88148 0.58422 0.0
C1615 C 0.39255 0.87558 0.59358 0.0
C1616 C 0.40527 0.88331 0.56629 0.0
C1617 C 0.37406 0.88871 0.5306 0.0
H1618 H 0.40533 0.86232 0.50257 0.0
C1619 C 0.35955 0.87716 0.45827 0.0
C1620 C 0.37343 0.87731 0.4469 0.0
C1621 C 0.36254 0.87683 0.4761 0.0
C1622 C 0.39663 0.87001 0.51012 0.0
H1623 H 0.36545 0.86782 0.59181 0.0
H1624 H 0.36266 0.87166 0.56076 0.0
H1625 H 0.40984 0.86417 0.53382 0.0
H1626 H 0.40135 0.87662 0.44535 0.0
H1627 H 0.40662 0.87661 0.4764 0.0
H1628 H 0.36098 0.8949 0.50713 0.0
C1629 C 0.37501 0.87464 0.56714 0.0
C1630 C 0.39925 0.87106 0.52805 0.0
C1631 C 0.37662 0.87243 0.5849 0.0
C1632 C 0.39035 0.87642 0.45375 0.0
C1633 C 0.39336 0.87639 0.47162 0.0
C1634 C 0.37159 0.88791 0.5127 0.0
C1635 C 0.38939 0.87969 0.55758 0.0
C1636 C 0.38782 0.88019 0.53848 0.0
C1637 C 0.3795 0.87697 0.48308 0.0
C1638 C 0.38264 0.87828 0.50218 0.0
H1639 H 0.41925 0.88381 0.59059 0.0
H1640 H 0.41654 0.8873 0.5592 0.0
H1641 H 0.36513 0.89596 0.53834 0.0
H1642 H 0.34635 0.87769 0.45341 0.0
H1643 H 0.35147 0.87671 0.48441 0.0
C1644 C 0.19179 0.39158 0.46756 0.0
C1645 C 0.18251 0.40584 0.46194 0.0
C1646 C 0.19724 0.39062 0.4849 0.0
C1647 C 0.20604 0.41657 0.52475 0.0
H1648 H 0.18744 0.37743 0.54918 0.0
C1649 C 0.19375 0.42053 0.5974 0.0
C1650 C 0.19393 0.4056 0.60736 0.0
C1651 C 0.19639 0.41955 0.57965 0.0
C1652 C 0.19313 0.38828 0.54261 0.0
H1653 H 0.17246 0.43062 0.46971 0.0
H1654 H 0.18248 0.42925 0.49964 0.0
H1655 H 0.1855 0.37754 0.51775 0.0
H1656 H 0.19797 0.378 0.60649 0.0
H1657 H 0.20312 0.37635 0.57553 0.0
H1658 H 0.21362 0.42744 0.54942 0.0
C1659 C 0.18539 0.41873 0.49082 0.0
C1660 C 0.19197 0.38833 0.52455 0.0
C1661 C 0.17961 0.41949 0.47369 0.0
C1662 C 0.19767 0.38975 0.59921 0.0
C1663 C 0.20048 0.38879 0.5814 0.0
C1664 C 0.20745 0.41642 0.54275 0.0
C1665 C 0.1939 0.40413 0.49674 0.0
C1666 C 0.19793 0.40271 0.51548 0.0
C1667 C 0.1995 0.40364 0.57128 0.0
C1668 C 0.20047 0.40255 0.55202 0.0
H1669 H 0.19404 0.38082 0.45879 0.0
H1670 H 0.20378 0.37922 0.48914 0.0
H1671 H 0.2109 0.42775 0.51806 0.0
H1672 H 0.19085 0.43296 0.60317 0.0
H1673 H 0.19521 0.43126 0.57241 0.0
C1674 C 0.62724 0.13737 0.58443 0.0
C1675 C 0.63159 0.15182 0.59512 0.0
C1676 C 0.62784 0.13835 0.56655 0.0
C1677 C 0.64773 0.163 0.53175 0.0
H1678 H 0.61347 0.13754 0.50331 0.0
C1679 C 0.64451 0.16635 0.45716 0.0
C1680 C 0.64084 0.1509 0.44774 0.0
C1681 C 0.64365 0.16691 0.47514 0.0
C1682 C 0.62325 0.14456 0.51107 0.0
H1683 H 0.63974 0.17879 0.59529 0.0
H1684 H 0.64062 0.1806 0.56375 0.0
H1685 H 0.61053 0.13875 0.5345 0.0
H1686 H 0.63371 0.1238 0.4499 0.0
H1687 H 0.63225 0.12476 0.48138 0.0
H1688 H 0.66041 0.16883 0.50821 0.0
C1689 C 0.63691 0.16843 0.56937 0.0
C1690 C 0.62155 0.1453 0.52896 0.0
C1691 C 0.63629 0.16744 0.58741 0.0
C1692 C 0.63661 0.13591 0.45676 0.0
C1693 C 0.63565 0.1365 0.47479 0.0
C1694 C 0.64939 0.16232 0.5138 0.0
C1695 C 0.63275 0.15383 0.55873 0.0
C1696 C 0.63388 0.15434 0.53958 0.0
C1697 C 0.63901 0.15206 0.48418 0.0
C1698 C 0.63726 0.15293 0.50326 0.0
H1699 H 0.62358 0.12508 0.58986 0.0
H1700 H 0.62484 0.12676 0.55885 0.0
H1701 H 0.65759 0.16989 0.53952 0.0
H1702 H 0.64784 0.17815 0.45064 0.0
H1703 H 0.64618 0.17913 0.48193 0.0
C1704 C 0.92507 0.38503 0.45865 0.0
C1705 C 0.92081 0.39943 0.44889 0.0
C1706 C 0.92388 0.38555 0.4766 0.0
C1707 C 0.92003 0.41477 0.51499 0.0
H1708 H 0.90139 0.37314 0.53523 0.0
C1709 C 0.90749 0.40955 0.58856 0.0
C1710 C 0.91485 0.39494 0.59589 0.0
C1711 C 0.90609 0.41085 0.57054 0.0
C1712 C 0.90662 0.38486 0.52979 0.0
H1713 H 0.91266 0.42601 0.45052 0.0
H1714 H 0.91046 0.42689 0.48188 0.0
H1715 H 0.90437 0.37432 0.50411 0.0
H1716 H 0.92569 0.36996 0.59022 0.0
H1717 H 0.92296 0.37207 0.55909 0.0
H1718 H 0.92232 0.42521 0.54084 0.0
C1719 C 0.91484 0.41519 0.47564 0.0
C1720 C 0.90845 0.38551 0.51194 0.0
C1721 C 0.91611 0.41468 0.45763 0.0
C1722 C 0.91995 0.38138 0.58495 0.0
C1723 C 0.91833 0.38256 0.56709 0.0
C1724 C 0.91812 0.41413 0.5329 0.0
C1725 C 0.91828 0.40047 0.48531 0.0
C1726 C 0.91552 0.40033 0.5043 0.0
C1727 C 0.91173 0.39744 0.55962 0.0
C1728 C 0.91171 0.39903 0.54053 0.0
H1729 H 0.92887 0.37311 0.45238 0.0
H1730 H 0.92711 0.37412 0.48364 0.0
H1731 H 0.92557 0.42637 0.50959 0.0
H1732 H 0.90359 0.42026 0.59668 0.0
H1733 H 0.90085 0.42244 0.56515 0.0
C1734 C 0.6682 0.93016 0.5753 0.0
C1735 C 0.6539 0.92537 0.58519 0.0
C1736 C 0.66597 0.93519 0.55821 0.0
C1737 C 0.63366 0.94934 0.52564 0.0
H1738 H 0.66412 0.92746 0.49317 0.0
C1739 C 0.61758 0.94251 0.45265 0.0
C1740 C 0.63107 0.94168 0.4408 0.0
C1741 C 0.62112 0.94401 0.47039 0.0
C1742 C 0.6557 0.93402 0.50201 0.0
H1743 H 0.62591 0.92293 0.58499 0.0
H1744 H 0.62201 0.93173 0.55514 0.0
H1745 H 0.66866 0.92357 0.5239 0.0
H1746 H 0.65893 0.94308 0.43838 0.0
H1747 H 0.66513 0.94617 0.46932 0.0
H1748 H 0.62058 0.95963 0.5037 0.0
C1749 C 0.63498 0.93164 0.56066 0.0
C1750 C 0.65829 0.93173 0.51971 0.0
C1751 C 0.63722 0.92655 0.57778 0.0
C1752 C 0.64821 0.9436 0.44711 0.0
C1753 C 0.65176 0.94518 0.4649 0.0
C1754 C 0.63113 0.95172 0.50791 0.0
C1755 C 0.64936 0.93562 0.55052 0.0
C1756 C 0.64717 0.93916 0.53176 0.0
C1757 C 0.63827 0.94483 0.47683 0.0
C1758 C 0.64196 0.94388 0.49581 0.0
H1759 H 0.68124 0.92953 0.58058 0.0
H1760 H 0.67731 0.93846 0.5509 0.0
H1761 H 0.625 0.95544 0.53457 0.0
H1762 H 0.60421 0.9411 0.44831 0.0
H1763 H 0.61036 0.94357 0.47907 0.0
C1764 C 0.08845 0.65115 0.5692 0.0
C1765 C 0.09216 0.63465 0.57528 0.0
C1766 C 0.08423 0.65346 0.55175 0.0
C1767 C 0.09109 0.63211 0.50933 0.0
H1768 H 0.06165 0.66789 0.49205 0.0
C1769 C 0.08389 0.64239 0.43653 0.0
C1770 C 0.08597 0.65957 0.43128 0.0
C1771 C 0.08098 0.63871 0.45382 0.0
C1772 C 0.06995 0.65787 0.49668 0.0
H1773 H 0.093 0.60749 0.56805 0.0
H1774 H 0.08513 0.6114 0.53786 0.0
H1775 H 0.06302 0.66249 0.52299 0.0
H1776 H 0.08542 0.68637 0.44001 0.0
H1777 H 0.08044 0.67994 0.47013 0.0
H1778 H 0.09828 0.62766 0.4832 0.0
C1779 C 0.08603 0.62268 0.54639 0.0
C1780 C 0.07076 0.65478 0.51443 0.0
C1781 C 0.0904 0.6204 0.56377 0.0
C1782 C 0.08388 0.67298 0.44356 0.0
C1783 C 0.08098 0.6693 0.46087 0.0
C1784 C 0.09023 0.63515 0.49165 0.0
C1785 C 0.08349 0.63931 0.53999 0.0
C1786 C 0.08148 0.64195 0.52102 0.0
C1787 C 0.08009 0.6521 0.46633 0.0
C1788 C 0.07978 0.64816 0.48507 0.0
H1789 H 0.08977 0.66244 0.57769 0.0
H1790 H 0.08247 0.66647 0.54734 0.0
H1791 H 0.09981 0.62241 0.51386 0.0
H1792 H 0.08528 0.63171 0.42743 0.0
H1793 H 0.07998 0.62532 0.45749 0.0
C1794 C 0.37318 0.13764 0.56362 0.0
C1795 C 0.38467 0.14946 0.57221 0.0
C1796 C 0.37161 0.13736 0.54556 0.0
C1797 C 0.394 0.15197 0.50616 0.0
H1798 H 0.34856 0.14537 0.48464 0.0
C1799 C 0.38239 0.1582 0.43236 0.0
C1800 C 0.37272 0.14439 0.42462 0.0
C1801 C 0.38319 0.16027 0.4504 0.0
C1802 C 0.36135 0.14719 0.49046 0.0
H1803 H 0.40369 0.17006 0.56846 0.0
H1804 H 0.40077 0.16974 0.53731 0.0
H1805 H 0.35169 0.14502 0.51598 0.0
H1806 H 0.35564 0.1225 0.42962 0.0
H1807 H 0.35691 0.1262 0.46076 0.0
H1808 H 0.40364 0.15414 0.48058 0.0
C1809 C 0.39313 0.16049 0.54437 0.0
C1810 C 0.36316 0.14687 0.50843 0.0
C1811 C 0.39473 0.16074 0.56233 0.0
C1812 C 0.36329 0.13323 0.43517 0.0
C1813 C 0.36392 0.13541 0.45307 0.0
C1814 C 0.39217 0.15237 0.48818 0.0
C1815 C 0.38148 0.1489 0.53571 0.0
C1816 C 0.37953 0.14914 0.51653 0.0
C1817 C 0.37411 0.14874 0.46095 0.0
C1818 C 0.37585 0.14984 0.48011 0.0
H1819 H 0.36525 0.12878 0.57084 0.0
H1820 H 0.36268 0.12808 0.53932 0.0
H1821 H 0.40685 0.15353 0.51189 0.0
H1822 H 0.38982 0.16696 0.42455 0.0
H1823 H 0.39105 0.17077 0.45611 0.0
C1824 C 0.46856 0.83596 0.66307 0.0
C1825 C 0.45644 0.84015 0.65017 0.0
C1826 C 0.48616 0.83514 0.65944 0.0
C1827 C 0.51806 0.83568 0.62372 0.0
H1828 H 0.54759 0.8587 0.65865 0.0
C1829 C 0.58498 0.86684 0.60974 0.0
C1830 C 0.59819 0.86633 0.62245 0.0
C1831 C 0.56842 0.86006 0.61282 0.0
C1832 C 0.53963 0.85195 0.64886 0.0
H1833 H 0.45325 0.84568 0.62303 0.0
H1834 H 0.48389 0.84458 0.61676 0.0
H1835 H 0.51731 0.85298 0.66452 0.0
H1836 H 0.60449 0.85752 0.64811 0.0
H1837 H 0.5756 0.84565 0.65345 0.0
H1838 H 0.54041 0.83532 0.60785 0.0
C1839 C 0.47985 0.8417 0.62967 0.0
C1840 C 0.5222 0.84862 0.65224 0.0
C1841 C 0.46221 0.84236 0.63328 0.0
C1842 C 0.59463 0.85816 0.63803 0.0
C1843 C 0.57803 0.85146 0.64115 0.0
C1844 C 0.53551 0.83912 0.62031 0.0
C1845 C 0.49214 0.83865 0.64284 0.0
C1846 C 0.51108 0.84064 0.63965 0.0
C1847 C 0.56461 0.85267 0.62872 0.0
C1848 C 0.54647 0.8475 0.63276 0.0
H1849 H 0.46455 0.83402 0.67619 0.0
H1850 H 0.49515 0.83229 0.66981 0.0
H1851 H 0.51 0.82928 0.6138 0.0
H1852 H 0.58725 0.87301 0.59758 0.0
H1853 H 0.55839 0.86135 0.60301 0.0
C1854 C 0.43955 0.12171 0.37569 0.0
C1855 C 0.43258 0.13334 0.36393 0.0
C1856 C 0.45755 0.1209 0.37826 0.0
C1857 C 0.49718 0.14818 0.37332 0.0
H1858 H 0.52153 0.1059 0.38124 0.0
C1859 C 0.57209 0.1467 0.37822 0.0
C1860 C 0.57934 0.13594 0.39063 0.0
C1861 C 0.55422 0.14606 0.37466 0.0
C1862 C 0.51491 0.11786 0.37923 0.0
H1863 H 0.43906 0.15236 0.34486 0.0
H1864 H 0.47014 0.15069 0.34907 0.0
H1865 H 0.49035 0.10464 0.37544 0.0
H1866 H 0.57337 0.11624 0.40921 0.0
H1867 H 0.54241 0.11533 0.4032 0.0
H1868 H 0.52163 0.16143 0.37719 0.0
C1869 C 0.46183 0.14256 0.35669 0.0
C1870 C 0.49701 0.11712 0.3759 0.0
C1871 C 0.44397 0.14341 0.35419 0.0
C1872 C 0.56829 0.12468 0.3995 0.0
C1873 C 0.55049 0.12405 0.39596 0.0
C1874 C 0.51503 0.14892 0.37665 0.0
C1875 C 0.46889 0.13168 0.3691 0.0
C1876 C 0.48792 0.13227 0.37283 0.0
C1877 C 0.54319 0.13464 0.38343 0.0
C1878 C 0.52416 0.13379 0.37964 0.0
H1879 H 0.43111 0.11385 0.38345 0.0
H1880 H 0.46254 0.11238 0.38794 0.0
H1881 H 0.49058 0.16016 0.37137 0.0
H1882 H 0.58023 0.15546 0.3711 0.0
H1883 H 0.54909 0.15431 0.36481 0.0
C1884 C 0.88721 0.59303 0.36411 0.0
C1885 C 0.88755 0.60302 0.37949 0.0
C1886 C 0.88666 0.57499 0.36451 0.0
C1887 C 0.89319 0.53753 0.39271 0.0
H1888 H 0.86134 0.51436 0.35991 0.0
C1889 C 0.87775 0.46446 0.39608 0.0
C1890 C 0.87814 0.45502 0.38037 0.0
C1891 C 0.87762 0.48252 0.39629 0.0
C1892 C 0.87038 0.5206 0.36907 0.0
H1893 H 0.88844 0.6018 0.4074 0.0
H1894 H 0.88741 0.5703 0.4081 0.0
H1895 H 0.86508 0.54569 0.35962 0.0
H1896 H 0.87774 0.45725 0.35255 0.0
H1897 H 0.87748 0.4887 0.35293 0.0
H1898 H 0.8985 0.5124 0.40213 0.0
C1899 C 0.88765 0.57643 0.3957 0.0
C1900 C 0.87258 0.53858 0.36888 0.0
C1901 C 0.88825 0.59452 0.3953 0.0
C1902 C 0.87738 0.46407 0.36488 0.0
C1903 C 0.87723 0.48214 0.3651 0.0
C1904 C 0.89097 0.51953 0.39292 0.0
C1905 C 0.88639 0.56645 0.3803 0.0
C1906 C 0.88409 0.54728 0.38062 0.0
C1907 C 0.87783 0.49161 0.38082 0.0
C1908 C 0.87958 0.51083 0.38105 0.0
H1909 H 0.88679 0.59914 0.3517 0.0
H1910 H 0.88614 0.56773 0.3524 0.0
H1911 H 0.90229 0.54375 0.40182 0.0
H1912 H 0.87825 0.45793 0.40827 0.0
H1913 H 0.87772 0.4894 0.40862 0.0
C1914 C 0.44428 0.90947 0.42102 0.0
C1915 C 0.43343 0.91254 0.40669 0.0
C1916 C 0.46223 0.90922 0.41935 0.0
C1917 C 0.49502 0.90249 0.38592 0.0
H1918 H 0.52743 0.91792 0.42226 0.0
C1919 C 0.56796 0.91241 0.37569 0.0
C1920 C 0.57964 0.90749 0.38868 0.0
C1921 C 0.55017 0.9113 0.37813 0.0
C1922 C 0.51851 0.91331 0.41211 0.0
H1923 H 0.43307 0.91892 0.37962 0.0
H1924 H 0.4644 0.91903 0.37684 0.0
H1925 H 0.49646 0.92143 0.42608 0.0
H1926 H 0.58188 0.89705 0.41426 0.0
H1927 H 0.55051 0.89523 0.41866 0.0
H1928 H 0.51714 0.89476 0.37181 0.0
C1929 C 0.459 0.91627 0.38926 0.0
C1930 C 0.50075 0.91537 0.41426 0.0
C1931 C 0.44103 0.91641 0.3909 0.0
C1932 C 0.57314 0.9008 0.40399 0.0
C1933 C 0.55524 0.89993 0.40656 0.0
C1934 C 0.51276 0.90056 0.38373 0.0
C1935 C 0.46981 0.91215 0.40334 0.0
C1936 C 0.48877 0.91011 0.40113 0.0
C1937 C 0.5436 0.90543 0.39373 0.0
C1938 C 0.52471 0.90606 0.39674 0.0
H1939 H 0.43889 0.90641 0.43338 0.0
H1940 H 0.47008 0.90592 0.43046 0.0
H1941 H 0.48621 0.89787 0.37571 0.0
H1942 H 0.57262 0.91762 0.36376 0.0
H1943 H 0.54159 0.91577 0.36806 0.0
C1944 C 0.14321 0.59495 0.39602 0.0
C1945 C 0.12799 0.59893 0.38689 0.0
C1946 C 0.14706 0.5777 0.39937 0.0
C1947 C 0.12587 0.53423 0.4021 0.0
H1948 H 0.17242 0.51752 0.39822 0.0
C1949 C 0.14155 0.46123 0.40372 0.0
C1950 C 0.15705 0.45673 0.41205 0.0
C1951 C 0.13775 0.47865 0.40132 0.0
C1952 C 0.15937 0.522 0.39959 0.0
H1953 H 0.10513 0.58778 0.37373 0.0
H1954 H 0.1119 0.558 0.37936 0.0
H1955 H 0.1668 0.54777 0.39278 0.0
H1956 H 0.18036 0.46707 0.42499 0.0
H1957 H 0.17362 0.4972 0.42109 0.0
H1958 H 0.11842 0.50848 0.40888 0.0
C1959 C 0.12073 0.56813 0.38426 0.0
C1960 C 0.15616 0.53938 0.39646 0.0
C1961 C 0.11692 0.58527 0.38091 0.0
C1962 C 0.16837 0.47003 0.41837 0.0
C1963 C 0.16457 0.48736 0.41602 0.0
C1964 C 0.12908 0.51686 0.40524 0.0
C1965 C 0.13573 0.56408 0.39369 0.0
C1966 C 0.13935 0.54571 0.39758 0.0
C1967 C 0.14935 0.49194 0.40723 0.0
C1968 C 0.14587 0.51049 0.40399 0.0
H1969 H 0.15199 0.60515 0.40085 0.0
H1970 H 0.15869 0.57506 0.40675 0.0
H1971 H 0.1128 0.53871 0.40337 0.0
H1972 H 0.13259 0.45131 0.39862 0.0
H1973 H 0.12595 0.48167 0.39439 0.0
C1974 C 0.44442 0.13154 0.62491 0.0
C1975 C 0.43416 0.14472 0.63164 0.0
C1976 C 0.46219 0.13148 0.62843 0.0
C1977 C 0.49921 0.15973 0.64273 0.0
H1978 H 0.52133 0.11628 0.6515 0.0
C1979 C 0.57004 0.15836 0.66522 0.0
C1980 C 0.58072 0.14657 0.65682 0.0
C1981 C 0.55211 0.15704 0.66322 0.0
C1982 C 0.51537 0.12848 0.64893 0.0
H1983 H 0.43461 0.16826 0.64732 0.0
H1984 H 0.46573 0.16811 0.65363 0.0
H1985 H 0.49014 0.11663 0.64594 0.0
H1986 H 0.58091 0.12356 0.64041 0.0
H1987 H 0.54931 0.12122 0.63682 0.0
H1988 H 0.52439 0.17159 0.64571 0.0
C1989 C 0.46 0.15789 0.64544 0.0
C1990 C 0.49749 0.12871 0.64573 0.0
C1991 C 0.44216 0.15797 0.64187 0.0
C1992 C 0.573 0.1328 0.64708 0.0
C1993 C 0.55493 0.13149 0.64503 0.0
C1994 C 0.51704 0.15951 0.64597 0.0
C1995 C 0.47022 0.14458 0.63882 0.0
C1996 C 0.48919 0.14435 0.64257 0.0
C1997 C 0.54433 0.14392 0.65269 0.0
C1998 C 0.52534 0.1439 0.64915 0.0
H1999 H 0.43873 0.12116 0.61689 0.0
H2000 H 0.46967 0.12121 0.62283 0.0
H2001 H 0.49334 0.17195 0.64003 0.0
H2002 H 0.57557 0.169 0.67302 0.0
H2003 H 0.54434 0.16656 0.66966 0.0
C2004 C 0.94591 0.4634 0.67649 0.0
C2005 C 0.94755 0.45209 0.66219 0.0
C2006 C 0.94523 0.48123 0.67431 0.0
C2007 C 0.95309 0.51773 0.64599 0.0
H2008 H 0.91025 0.53434 0.6644 0.0
C2009 C 0.92636 0.58598 0.63133 0.0
C2010 C 0.9161 0.59373 0.64389 0.0
C2011 C 0.93239 0.56919 0.63358 0.0
C2012 C 0.92248 0.53017 0.65947 0.0
H2013 H 0.95139 0.4509 0.63457 0.0
H2014 H 0.9505 0.4822 0.63086 0.0
H2015 H 0.91812 0.50467 0.66873 0.0
H2016 H 0.90517 0.59073 0.66912 0.0
H2017 H 0.91643 0.5622 0.67356 0.0
H2018 H 0.95763 0.54341 0.63702 0.0
C2019 C 0.94956 0.47713 0.64371 0.0
C2020 C 0.92692 0.51304 0.66189 0.0
C2021 C 0.95005 0.45921 0.64586 0.0
C2022 C 0.91281 0.5849 0.65909 0.0
C2023 C 0.91915 0.56843 0.66153 0.0
C2024 C 0.94879 0.53508 0.64382 0.0
C2025 C 0.94641 0.48822 0.65783 0.0
C2026 C 0.94227 0.50663 0.65525 0.0
C2027 C 0.92854 0.56002 0.64859 0.0
C2028 C 0.93343 0.54158 0.65063 0.0
H2029 H 0.94408 0.45845 0.68928 0.0
H2030 H 0.94302 0.48952 0.68544 0.0
H2031 H 0.96499 0.51306 0.64069 0.0
H2032 H 0.92902 0.59254 0.61947 0.0
H2033 H 0.93949 0.5632 0.62327 0.0
C2034 C 0.13685 0.58219 0.62539 0.0
C2035 C 0.1292 0.59175 0.63869 0.0
C2036 C 0.14028 0.5646 0.62745 0.0
C2037 C 0.14775 0.53199 0.66036 0.0
H2038 H 0.12951 0.49844 0.62637 0.0
C2039 C 0.14638 0.45942 0.67494 0.0
C2040 C 0.14952 0.4475 0.66151 0.0
C2041 C 0.14375 0.47683 0.67151 0.0
C2042 C 0.13495 0.50758 0.63589 0.0
H2043 H 0.11974 0.59057 0.66475 0.0
H2044 H 0.12617 0.56023 0.66849 0.0
H2045 H 0.12678 0.52928 0.62131 0.0
H2046 H 0.15202 0.44454 0.63383 0.0
H2047 H 0.14794 0.47495 0.62785 0.0
H2048 H 0.15626 0.51058 0.67484 0.0
C2049 C 0.12935 0.56618 0.65642 0.0
C2050 C 0.13336 0.52529 0.63296 0.0
C2051 C 0.1256 0.58355 0.65424 0.0
C2052 C 0.14948 0.45335 0.64448 0.0
C2053 C 0.1471 0.47084 0.64106 0.0
C2054 C 0.14957 0.51435 0.66318 0.0
C2055 C 0.1365 0.55642 0.64299 0.0
C2056 C 0.13952 0.53768 0.64529 0.0
C2057 C 0.14449 0.48293 0.65456 0.0
C2058 C 0.14297 0.50182 0.65114 0.0
H2059 H 0.13965 0.58813 0.61323 0.0
H2060 H 0.14588 0.5574 0.61691 0.0
H2061 H 0.1528 0.54124 0.67001 0.0
H2062 H 0.1462 0.45534 0.68819 0.0
H2063 H 0.14128 0.48554 0.68224 0.0
C2064 C 0.14921 0.21183 0.3964 0.0
C2065 C 0.13542 0.20146 0.40213 0.0
C2066 C 0.14859 0.22983 0.3974 0.0
C2067 C 0.12616 0.26696 0.41727 0.0
H2068 H 0.14356 0.29044 0.37736 0.0
C2069 C 0.13934 0.34134 0.41552 0.0
C2070 C 0.13726 0.34956 0.39965 0.0
C2071 C 0.13691 0.32339 0.41659 0.0
C2072 C 0.13842 0.28416 0.38854 0.0
H2073 H 0.11035 0.20199 0.41405 0.0
H2074 H 0.10916 0.23359 0.41568 0.0
H2075 H 0.14393 0.25918 0.37812 0.0
H2076 H 0.12979 0.34545 0.37274 0.0
H2077 H 0.12513 0.31436 0.37469 0.0
H2078 H 0.12045 0.29211 0.42755 0.0
C2079 C 0.12056 0.22771 0.41051 0.0
C2080 C 0.13889 0.26616 0.38909 0.0
C2081 C 0.12123 0.20959 0.40956 0.0
C2082 C 0.13168 0.33955 0.38514 0.0
C2083 C 0.12914 0.32165 0.38623 0.0
C2084 C 0.12569 0.28506 0.41672 0.0
C2085 C 0.13408 0.23806 0.40406 0.0
C2086 C 0.13295 0.25729 0.40352 0.0
C2087 C 0.13226 0.31323 0.40184 0.0
C2088 C 0.13189 0.29392 0.40236 0.0
H2089 H 0.16044 0.20603 0.39077 0.0
H2090 H 0.15945 0.23733 0.39273 0.0
H2091 H 0.12152 0.26058 0.42862 0.0
H2092 H 0.14368 0.34864 0.42696 0.0
H2093 H 0.13951 0.3174 0.42882 0.0
C2094 C 0.81997 0.18154 0.36514 0.0
C2095 C 0.82775 0.16569 0.36843 0.0
C2096 C 0.80201 0.18248 0.36311 0.0
C2097 C 0.76175 0.15611 0.35492 0.0
H2098 H 0.74007 0.19385 0.37926 0.0
C2099 C 0.69047 0.17244 0.38247 0.0
C2100 C 0.68 0.16638 0.36844 0.0
C2101 C 0.7084 0.17441 0.38082 0.0
C2102 C 0.74591 0.18323 0.3724 0.0
H2103 H 0.8227 0.13827 0.37148 0.0
H2104 H 0.79137 0.13992 0.36799 0.0
H2105 H 0.77153 0.19245 0.3792 0.0
H2106 H 0.68015 0.15869 0.34136 0.0
H2107 H 0.7113 0.16237 0.33846 0.0
H2108 H 0.73613 0.14657 0.3486 0.0
C2109 C 0.79918 0.15163 0.36687 0.0
C2110 C 0.76397 0.18251 0.37221 0.0
C2111 C 0.81716 0.15068 0.36892 0.0
C2112 C 0.68778 0.16334 0.35247 0.0
C2113 C 0.7057 0.16528 0.35083 0.0
C2114 C 0.74369 0.15685 0.35507 0.0
C2115 C 0.79134 0.1676 0.36428 0.0
C2116 C 0.77213 0.16885 0.36361 0.0
C2117 C 0.7163 0.17036 0.36511 0.0
C2118 C 0.73553 0.17033 0.36396 0.0
H2119 H 0.82771 0.19336 0.36459 0.0
H2120 H 0.79645 0.19494 0.36083 0.0
H2121 H 0.76758 0.1455 0.34804 0.0
H2122 H 0.68494 0.17488 0.39497 0.0
H2123 H 0.71615 0.17827 0.39212 0.0
C2124 C 0.88885 0.84604 0.42298 0.0
C2125 C 0.90391 0.85462 0.41749 0.0
C2126 C 0.88839 0.82809 0.42472 0.0
C2127 C 0.90907 0.78928 0.40745 0.0
H2128 H 0.88278 0.76607 0.44244 0.0
C2129 C 0.89885 0.71469 0.40665 0.0
C2130 C 0.88171 0.70908 0.40929 0.0
C2131 C 0.90392 0.732 0.41003 0.0
C2132 C 0.89014 0.77235 0.43254 0.0
H2133 H 0.9306 0.85109 0.41042 0.0
H2134 H 0.92981 0.81984 0.41358 0.0
H2135 H 0.88719 0.79737 0.44432 0.0
H2136 H 0.85665 0.71712 0.41809 0.0
H2137 H 0.86538 0.747 0.42378 0.0
H2138 H 0.91156 0.76435 0.39537 0.0
C2139 C 0.91827 0.82697 0.41628 0.0
C2140 C 0.89265 0.7903 0.43363 0.0
C2141 C 0.91874 0.84491 0.41458 0.0
C2142 C 0.86995 0.72098 0.41585 0.0
C2143 C 0.87501 0.73815 0.41928 0.0
C2144 C 0.90651 0.77133 0.40634 0.0
C2145 C 0.90298 0.81828 0.42099 0.0
C2146 C 0.90184 0.79904 0.42091 0.0
C2147 C 0.89199 0.74397 0.41624 0.0
C2148 C 0.89668 0.76268 0.41866 0.0
H2149 H 0.87718 0.8531 0.4253 0.0
H2150 H 0.87635 0.82182 0.42825 0.0
H2151 H 0.91605 0.7956 0.39732 0.0
H2152 H 0.90822 0.70584 0.40162 0.0
H2153 H 0.91715 0.73605 0.40767 0.0
C2154 C 0.18911 0.90628 0.37678 0.0
C2155 C 0.18158 0.92096 0.38416 0.0
C2156 C 0.20697 0.90591 0.37435 0.0
C2157 C 0.24753 0.92536 0.39229 0.0
H2158 H 0.26801 0.90209 0.35328 0.0
C2159 C 0.32171 0.91707 0.38782 0.0
C2160 C 0.32681 0.90054 0.38243 0.0
C2161 C 0.30434 0.92171 0.38629 0.0
C2162 C 0.2625 0.90856 0.36431 0.0
H2163 H 0.18688 0.94709 0.39396 0.0
H2164 H 0.21797 0.94644 0.38963 0.0
H2165 H 0.23686 0.90619 0.35337 0.0
H2166 H 0.31765 0.87607 0.3709 0.0
H2167 H 0.28764 0.88402 0.36848 0.0
H2168 H 0.27307 0.9273 0.40347 0.0
C2169 C 0.21009 0.93513 0.38596 0.0
C2170 C 0.24464 0.91092 0.36435 0.0
C2171 C 0.19224 0.93552 0.38833 0.0
C2172 C 0.31424 0.88892 0.3752 0.0
C2173 C 0.29697 0.89354 0.37366 0.0
C2174 C 0.26539 0.92296 0.39228 0.0
C2175 C 0.21773 0.92019 0.37929 0.0
C2176 C 0.23689 0.91908 0.37847 0.0
C2177 C 0.29174 0.90993 0.37927 0.0
C2178 C 0.27307 0.91423 0.37844 0.0
H2179 H 0.1813 0.89483 0.37345 0.0
H2180 H 0.21244 0.89414 0.3693 0.0
H2181 H 0.24197 0.93152 0.40347 0.0
H2182 H 0.33108 0.92632 0.39342 0.0
H2183 H 0.30077 0.9345 0.39062 0.0
C2184 C 0.15485 0.83571 0.60075 0.0
C2185 C 0.17059 0.84181 0.60829 0.0
C2186 C 0.15163 0.81797 0.59802 0.0
C2187 C 0.17183 0.77446 0.59855 0.0
H2188 H 0.12595 0.75986 0.61223 0.0
C2189 C 0.15144 0.70323 0.61454 0.0
C2190 C 0.1346 0.69784 0.60931 0.0
C2191 C 0.15712 0.72042 0.61228 0.0
C2192 C 0.13876 0.76368 0.60814 0.0
H2193 H 0.19578 0.83403 0.61769 0.0
H2194 H 0.19008 0.80321 0.6132 0.0
H2195 H 0.13332 0.79043 0.61125 0.0
H2196 H 0.11102 0.70589 0.59652 0.0
H2197 H 0.12093 0.73543 0.59242 0.0
H2198 H 0.17725 0.74746 0.5959 0.0
C2199 C 0.18023 0.81208 0.60925 0.0
C2200 C 0.14298 0.78128 0.6075 0.0
C2201 C 0.18348 0.82982 0.61188 0.0
C2202 C 0.12397 0.70966 0.60098 0.0
C2203 C 0.12963 0.72667 0.59868 0.0
C2204 C 0.16759 0.75676 0.59927 0.0
C2205 C 0.16403 0.80587 0.60286 0.0
C2206 C 0.15955 0.78697 0.60266 0.0
C2207 C 0.14606 0.73244 0.60473 0.0
C2208 C 0.15096 0.75116 0.60401 0.0
H2209 H 0.14467 0.84456 0.5977 0.0
H2210 H 0.13917 0.81371 0.59263 0.0
H2211 H 0.18468 0.77834 0.59468 0.0
H2212 H 0.15993 0.69442 0.621 0.0
H2213 H 0.16987 0.72446 0.6171 0.0
C2214 C 0.2007 0.14116 0.61273 0.0
C2215 C 0.18801 0.15281 0.61775 0.0
C2216 C 0.21791 0.14671 0.61128 0.0
C2217 C 0.24809 0.18415 0.60863 0.0
H2218 H 0.27879 0.1547 0.63415 0.0
C2219 C 0.32304 0.18497 0.60441 0.0
C2220 C 0.33268 0.18091 0.6193 0.0
C2221 C 0.30497 0.18528 0.60467 0.0
C2222 C 0.2704 0.16321 0.62715 0.0
H2223 H 0.18323 0.17978 0.62368 0.0
H2224 H 0.21338 0.18947 0.621 0.0
H2225 H 0.2481 0.14732 0.63187 0.0
H2226 H 0.33092 0.17577 0.64659 0.0
H2227 H 0.29945 0.17643 0.64705 0.0
H2228 H 0.27064 0.19993 0.60379 0.0
C2229 C 0.20996 0.17601 0.61831 0.0
C2230 C 0.25283 0.15882 0.62563 0.0
C2231 C 0.19268 0.17044 0.61983 0.0
C2232 C 0.32393 0.17878 0.63483 0.0
C2233 C 0.30587 0.17903 0.63508 0.0
C2234 C 0.26581 0.18846 0.61 0.0
C2235 C 0.22284 0.16405 0.61474 0.0
C2236 C 0.24149 0.16913 0.61623 0.0
C2237 C 0.29616 0.1815 0.61983 0.0
C2238 C 0.27716 0.17798 0.61927 0.0
H2239 H 0.19755 0.12753 0.61084 0.0
H2240 H 0.2275 0.13726 0.60813 0.0
H2241 H 0.23963 0.19234 0.60135 0.0
H2242 H 0.32936 0.1868 0.59224 0.0
H2243 H 0.29788 0.18724 0.59272 0.0
C2244 C 0.90056 0.2118 0.64407 0.0
C2245 C 0.91443 0.20043 0.64341 0.0
C2246 C 0.9036 0.22972 0.64489 0.0
C2247 C 0.93668 0.26449 0.63838 0.0
H2248 H 0.91062 0.28945 0.6726 0.0
C2249 C 0.93783 0.33941 0.64561 0.0
C2250 C 0.93735 0.34674 0.66237 0.0
C2251 C 0.93628 0.3215 0.64287 0.0
C2252 C 0.91812 0.28267 0.66308 0.0
H2253 H 0.94235 0.1991 0.64214 0.0
H2254 H 0.94761 0.23028 0.64347 0.0
H2255 H 0.90493 0.25862 0.66761 0.0
H2256 H 0.93558 0.34077 0.68945 0.0
H2257 H 0.93299 0.30953 0.68469 0.0
H2258 H 0.95 0.28857 0.63401 0.0
C2259 C 0.93438 0.22537 0.64337 0.0
C2260 C 0.91468 0.26502 0.66004 0.0
C2261 C 0.93135 0.20745 0.64264 0.0
C2262 C 0.93599 0.33562 0.67638 0.0
C2263 C 0.93434 0.3177 0.67363 0.0
C2264 C 0.94005 0.2822 0.64135 0.0
C2265 C 0.92057 0.23672 0.64497 0.0
C2266 C 0.92392 0.25568 0.64767 0.0
C2267 C 0.93412 0.31043 0.65682 0.0
C2268 C 0.93085 0.29151 0.65379 0.0
H2269 H 0.88736 0.20688 0.64467 0.0
H2270 H 0.89264 0.2381 0.64581 0.0
H2271 H 0.94399 0.25772 0.62871 0.0
H2272 H 0.93885 0.34756 0.63449 0.0
H2273 H 0.93607 0.31638 0.62976 0.0
C2274 C 0.70993 0.87985 0.61935 0.0
C2275 C 0.70394 0.88133 0.63631 0.0
C2276 C 0.72768 0.87867 0.61625 0.0
C2277 C 0.76976 0.86941 0.63806 0.0
H2278 H 0.78993 0.8985 0.60337 0.0
C2279 C 0.84015 0.89297 0.64256 0.0
C2280 C 0.85048 0.89214 0.62788 0.0
C2281 C 0.8224 0.88954 0.64134 0.0
C2282 C 0.78446 0.89009 0.6129 0.0
H2283 H 0.71195 0.88228 0.66328 0.0
H2284 H 0.74263 0.8803 0.65794 0.0
H2285 H 0.75841 0.89593 0.60548 0.0
H2286 H 0.85004 0.88727 0.60025 0.0
H2287 H 0.81856 0.88157 0.59805 0.0
H2288 H 0.79573 0.86412 0.64594 0.0
C2289 C 0.73371 0.87987 0.64698 0.0
C2290 C 0.7664 0.88859 0.61412 0.0
C2291 C 0.71605 0.88111 0.65006 0.0
C2292 C 0.84246 0.88799 0.6118 0.0
C2293 C 0.82447 0.88477 0.61054 0.0
C2294 C 0.78772 0.87098 0.6369 0.0
C2295 C 0.73982 0.87882 0.63005 0.0
C2296 C 0.75883 0.87861 0.62706 0.0
C2297 C 0.81431 0.88532 0.62538 0.0
C2298 C 0.7953 0.88171 0.62464 0.0
H2299 H 0.70095 0.88005 0.60844 0.0
H2300 H 0.73191 0.87775 0.60305 0.0
H2301 H 0.76442 0.86127 0.64789 0.0
H2302 H 0.8458 0.89611 0.65518 0.0
H2303 H 0.81492 0.89036 0.65297 0.0
C2304 C 0.39188 0.11887 0.18389 0.0
C2305 C 0.38687 0.12996 0.17071 0.0
C2306 C 0.38784 0.1225 0.20101 0.0
C2307 C 0.3781 0.15757 0.23148 0.0
H2308 H 0.36184 0.11981 0.25931 0.0
C2309 C 0.38045 0.15703 0.3069 0.0
C2310 C 0.36721 0.14759 0.31484 0.0
C2311 C 0.3808 0.15782 0.28883 0.0
C2312 C 0.36616 0.1306 0.25173 0.0
H2313 H 0.37365 0.15362 0.1652 0.0
H2314 H 0.36659 0.16004 0.19537 0.0
H2315 H 0.36594 0.11495 0.22866 0.0
H2316 H 0.34316 0.13308 0.3104 0.0
H2317 H 0.34346 0.13491 0.27916 0.0
H2318 H 0.37851 0.17315 0.25481 0.0
C2319 C 0.37367 0.14851 0.19231 0.0
C2320 C 0.36868 0.12774 0.23416 0.0
C2321 C 0.37757 0.14475 0.17506 0.0
C2322 C 0.35362 0.14029 0.30458 0.0
C2323 C 0.35386 0.14123 0.28668 0.0
C2324 C 0.37568 0.16042 0.2492 0.0
C2325 C 0.37879 0.1374 0.20546 0.0
C2326 C 0.37486 0.1411 0.22385 0.0
C2327 C 0.36785 0.14927 0.27852 0.0
C2328 C 0.36974 0.14692 0.25954 0.0
H2329 H 0.39911 0.1074 0.18101 0.0
H2330 H 0.39214 0.11378 0.21084 0.0
H2331 H 0.38299 0.16809 0.22386 0.0
H2332 H 0.39115 0.16266 0.31453 0.0
H2333 H 0.39177 0.16411 0.28294 0.0
C2334 C 0.93045 0.40954 0.33741 0.0
C2335 C 0.92899 0.42494 0.34719 0.0
C2336 C 0.93244 0.40993 0.31952 0.0
C2337 C 0.92359 0.43761 0.28231 0.0
H2338 H 0.95125 0.40439 0.25787 0.0
C2339 C 0.91571 0.42317 0.20874 0.0
C2340 C 0.93052 0.41907 0.19944 0.0
C2341 C 0.91669 0.4257 0.22669 0.0
C2342 C 0.9436 0.41391 0.26446 0.0
H2343 H 0.9292 0.45289 0.34579 0.0
H2344 H 0.93291 0.45356 0.31467 0.0
H2345 H 0.9518 0.40528 0.28927 0.0
H2346 H 0.95816 0.4153 0.20171 0.0
H2347 H 0.95991 0.41997 0.23286 0.0
H2348 H 0.91546 0.44629 0.25746 0.0
C2349 C 0.93223 0.44115 0.3208 0.0
C2350 C 0.94377 0.41428 0.28251 0.0
C2351 C 0.93027 0.44077 0.3387 0.0
C2352 C 0.94646 0.41832 0.20844 0.0
C2353 C 0.94744 0.42086 0.22636 0.0
C2354 C 0.92341 0.43723 0.26424 0.0
C2355 C 0.93301 0.42573 0.31092 0.0
C2356 C 0.93365 0.42602 0.29169 0.0
C2357 C 0.93252 0.42421 0.23579 0.0
C2358 C 0.93331 0.42529 0.25505 0.0
H2359 H 0.92946 0.39711 0.34347 0.0
H2360 H 0.93284 0.39778 0.31236 0.0
H2361 H 0.91548 0.44671 0.28891 0.0
H2362 H 0.90321 0.4238 0.20225 0.0
H2363 H 0.9049 0.42812 0.2335 0.0
C2364 C 0.64209 0.89677 0.19767 0.0
C2365 C 0.62703 0.89744 0.18723 0.0
C2366 C 0.64148 0.89957 0.21545 0.0
C2367 C 0.61737 0.91898 0.25074 0.0
H2368 H 0.64073 0.88498 0.2781 0.0
C2369 C 0.63198 0.92499 0.32556 0.0
C2370 C 0.62794 0.90996 0.33466 0.0
C2371 C 0.63096 0.92481 0.30742 0.0
C2372 C 0.63414 0.89459 0.27066 0.0
H2373 H 0.59952 0.90206 0.18738 0.0
H2374 H 0.59848 0.90708 0.21881 0.0
H2375 H 0.64007 0.88198 0.2468 0.0
H2376 H 0.61933 0.88309 0.33173 0.0
H2377 H 0.61779 0.88281 0.30053 0.0
H2378 H 0.61151 0.93158 0.27487 0.0
C2379 C 0.61075 0.90434 0.21301 0.0
C2380 C 0.63382 0.89291 0.25272 0.0
C2381 C 0.61133 0.90137 0.19506 0.0
C2382 C 0.62265 0.89492 0.32525 0.0
C2383 C 0.62179 0.8947 0.30729 0.0
C2384 C 0.61786 0.92079 0.26881 0.0
C2385 C 0.62583 0.90323 0.22339 0.0
C2386 C 0.62545 0.90505 0.24252 0.0
C2387 C 0.6261 0.90954 0.29813 0.0
C2388 C 0.62617 0.90851 0.27895 0.0
H2389 H 0.65446 0.89388 0.19216 0.0
H2390 H 0.65335 0.89883 0.22304 0.0
H2391 H 0.61093 0.9286 0.24319 0.0
H2392 H 0.63602 0.9368 0.33242 0.0
H2393 H 0.6344 0.93643 0.30066 0.0
C2394 C 0.12594 0.65931 0.18932 0.0
C2395 C 0.13609 0.64555 0.18367 0.0
C2396 C 0.12368 0.66253 0.20705 0.0
C2397 C 0.14398 0.65456 0.24966 0.0
H2398 H 0.09865 0.66261 0.26818 0.0
C2399 C 0.13625 0.67126 0.32139 0.0
C2400 C 0.12316 0.6624 0.33019 0.0
C2401 C 0.13668 0.6707 0.30341 0.0
C2402 C 0.11137 0.66032 0.26319 0.0
H2403 H 0.15203 0.62462 0.19226 0.0
H2404 H 0.14826 0.63031 0.22282 0.0
H2405 H 0.10195 0.65905 0.2369 0.0
H2406 H 0.09981 0.64652 0.32681 0.0
H2407 H 0.10062 0.64543 0.29517 0.0
H2408 H 0.15344 0.65548 0.27575 0.0
C2409 C 0.14203 0.63865 0.21369 0.0
C2410 C 0.1133 0.65847 0.24528 0.0
C2411 C 0.14413 0.63534 0.1961 0.0
C2412 C 0.11007 0.65348 0.32045 0.0
C2413 C 0.11052 0.65291 0.30232 0.0
C2414 C 0.14209 0.65651 0.26746 0.0
C2415 C 0.13174 0.65222 0.21943 0.0
C2416 C 0.12962 0.65539 0.23832 0.0
C2417 C 0.12407 0.66122 0.29361 0.0
C2418 C 0.12577 0.65936 0.27451 0.0
H2419 H 0.11949 0.66736 0.18008 0.0
H2420 H 0.11576 0.67317 0.21106 0.0
H2421 H 0.15676 0.65234 0.24476 0.0
H2422 H 0.14644 0.67846 0.3284 0.0
H2423 H 0.14709 0.67756 0.29716 0.0
C2424 C 0.42707 0.91901 0.83582 0.0
C2425 C 0.42585 0.90388 0.84545 0.0
C2426 C 0.42983 0.9181 0.81805 0.0
C2427 C 0.44156 0.88799 0.78199 0.0
H2428 H 0.41085 0.91595 0.75479 0.0
C2429 C 0.4158 0.86712 0.71498 0.0
C2430 C 0.41495 0.8792 0.70177 0.0
C2431 C 0.42067 0.87225 0.73176 0.0
C2432 C 0.41975 0.9083 0.76216 0.0
H2433 H 0.42763 0.87598 0.84406 0.0
H2434 H 0.43217 0.87435 0.8132 0.0
H2435 H 0.41344 0.92099 0.78591 0.0
H2436 H 0.4187 0.90621 0.69581 0.0
H2437 H 0.42684 0.91536 0.72558 0.0
H2438 H 0.44711 0.87471 0.7583 0.0
C2439 C 0.43119 0.88699 0.81932 0.0
C2440 C 0.42128 0.91118 0.78003 0.0
C2441 C 0.4285 0.8879 0.83708 0.0
C2442 C 0.41925 0.89662 0.70573 0.0
C2443 C 0.42386 0.90184 0.72273 0.0
C2444 C 0.43992 0.88503 0.76418 0.0
C2445 C 0.43141 0.90203 0.80947 0.0
C2446 C 0.43183 0.90072 0.79025 0.0
C2447 C 0.42463 0.88965 0.73589 0.0
C2448 C 0.42862 0.89482 0.75415 0.0
H2449 H 0.4252 0.93156 0.84187 0.0
H2450 H 0.43026 0.92998 0.81096 0.0
H2451 H 0.4501 0.87995 0.78936 0.0
H2452 H 0.41269 0.85357 0.71239 0.0
H2453 H 0.42089 0.86259 0.74163 0.0
C2454 C 0.16507 0.37111 0.84436 0.0
C2455 C 0.17957 0.37403 0.85538 0.0
C2456 C 0.16683 0.3708 0.82641 0.0
C2457 C 0.19887 0.36712 0.79144 0.0
H2458 H 0.16508 0.39251 0.7653 0.0
C2459 C 0.19561 0.36694 0.71649 0.0
C2460 C 0.19116 0.38235 0.70843 0.0
C2461 C 0.1953 0.36571 0.73447 0.0
C2462 C 0.17473 0.38549 0.7724 0.0
H2463 H 0.20743 0.37811 0.8561 0.0
H2464 H 0.21048 0.37754 0.82492 0.0
H2465 H 0.16203 0.3898 0.7963 0.0
H2466 H 0.1836 0.4088 0.71313 0.0
H2467 H 0.1833 0.40672 0.74444 0.0
H2468 H 0.2117 0.36306 0.76752 0.0
C2469 C 0.19774 0.37544 0.8301 0.0
C2470 C 0.17283 0.38371 0.79018 0.0
C2471 C 0.19597 0.37583 0.84802 0.0
C2472 C 0.18708 0.39672 0.71886 0.0
C2473 C 0.18674 0.39547 0.73683 0.0
C2474 C 0.20072 0.36883 0.77363 0.0
C2475 C 0.18315 0.37331 0.81904 0.0
C2476 C 0.18489 0.37455 0.79996 0.0
C2477 C 0.1905 0.37985 0.74486 0.0
C2478 C 0.18872 0.37811 0.76388 0.0
H2479 H 0.15225 0.36966 0.84955 0.0
H2480 H 0.15536 0.36883 0.81829 0.0
H2481 H 0.20834 0.35988 0.79854 0.0
H2482 H 0.19874 0.35558 0.70889 0.0
H2483 H 0.19817 0.35345 0.74016 0.0
C2484 C 0.6321 0.17224 0.71275 0.0
C2485 C 0.64276 0.15989 0.70511 0.0
C2486 C 0.63073 0.17328 0.73081 0.0
C2487 C 0.6351 0.14469 0.76755 0.0
H2488 H 0.64115 0.18545 0.79725 0.0
C2489 C 0.66214 0.14252 0.83584 0.0
C2490 C 0.65359 0.15085 0.84931 0.0
C2491 C 0.65677 0.14449 0.81877 0.0
C2492 C 0.63903 0.17403 0.78907 0.0
H2493 H 0.66135 0.14009 0.71027 0.0
H2494 H 0.65917 0.14208 0.74137 0.0
H2495 H 0.64017 0.18846 0.76572 0.0
H2496 H 0.63269 0.1678 0.85562 0.0
H2497 H 0.62347 0.1717 0.82529 0.0
H2498 H 0.63492 0.13016 0.79066 0.0
C2499 C 0.65151 0.15061 0.7336 0.0
C2500 C 0.63851 0.17575 0.77108 0.0
C2501 C 0.65285 0.14956 0.71577 0.0
C2502 C 0.63936 0.16111 0.84541 0.0
C2503 C 0.6342 0.16343 0.82815 0.0
C2504 C 0.63567 0.14299 0.78539 0.0
C2505 C 0.63997 0.16197 0.74132 0.0
C2506 C 0.63727 0.16098 0.76017 0.0
C2507 C 0.64292 0.15512 0.81471 0.0
C2508 C 0.63829 0.15755 0.79631 0.0
H2509 H 0.62412 0.1803 0.7048 0.0
H2510 H 0.62184 0.18226 0.73648 0.0
H2511 H 0.63374 0.13311 0.75947 0.0
H2512 H 0.67315 0.13454 0.83849 0.0
H2513 H 0.66381 0.13804 0.80866 0.0
C2514 C 0.85819 0.65767 0.82459 0.0
C2515 C 0.87198 0.66183 0.83616 0.0
C2516 C 0.8604 0.65836 0.80679 0.0
C2517 C 0.89528 0.65714 0.77472 0.0
H2518 H 0.85724 0.66449 0.74259 0.0
C2519 C 0.89967 0.63567 0.7039 0.0
C2520 C 0.89251 0.64598 0.69107 0.0
C2521 C 0.89649 0.63898 0.72128 0.0
C2522 C 0.86808 0.6626 0.75133 0.0
H2523 H 0.89865 0.67102 0.83811 0.0
H2524 H 0.90236 0.67298 0.80706 0.0
H2525 H 0.85337 0.66968 0.77332 0.0
H2526 H 0.87601 0.66763 0.68637 0.0
H2527 H 0.87069 0.67372 0.71689 0.0
H2528 H 0.91017 0.65063 0.75277 0.0
C2529 C 0.88995 0.66856 0.81169 0.0
C2530 C 0.8658 0.66536 0.76905 0.0
C2531 C 0.8878 0.66761 0.82953 0.0
C2532 C 0.88162 0.6594 0.69598 0.0
C2533 C 0.87858 0.66287 0.71348 0.0
C2534 C 0.89761 0.6546 0.75705 0.0
C2535 C 0.87642 0.6635 0.80004 0.0
C2536 C 0.87927 0.66234 0.78104 0.0
C2537 C 0.88625 0.65287 0.72639 0.0
C2538 C 0.88395 0.6569 0.74511 0.0
H2539 H 0.84583 0.65307 0.82922 0.0
H2540 H 0.84972 0.6541 0.79836 0.0
H2541 H 0.90594 0.65447 0.78343 0.0
H2542 H 0.90796 0.6251 0.70052 0.0
H2543 H 0.90218 0.63063 0.73073 0.0
C2544 C 0.21793 0.34097 0.18448 0.0
C2545 C 0.20752 0.34152 0.16941 0.0
C2546 C 0.23598 0.34077 0.18354 0.0
C2547 C 0.27059 0.35561 0.15557 0.0
H2548 H 0.30052 0.3287 0.18467 0.0
C2549 C 0.34395 0.37051 0.1618 0.0
C2550 C 0.35472 0.35629 0.15966 0.0
C2551 C 0.32617 0.36802 0.16417 0.0
C2552 C 0.29232 0.33628 0.17645 0.0
H2553 H 0.20801 0.34132 0.14146 0.0
H2554 H 0.23949 0.34104 0.13984 0.0
H2555 H 0.26908 0.32427 0.18564 0.0
H2556 H 0.35531 0.32829 0.15925 0.0
H2557 H 0.32435 0.32399 0.16365 0.0
H2558 H 0.29374 0.36769 0.14642 0.0
C2559 C 0.23365 0.34091 0.1524 0.0
C2560 C 0.27433 0.3338 0.17706 0.0
C2561 C 0.21559 0.34092 0.15334 0.0
C2562 C 0.34741 0.33954 0.16084 0.0
C2563 C 0.32966 0.33706 0.1634 0.0
C2564 C 0.28853 0.35824 0.15512 0.0
C2565 C 0.24408 0.34129 0.1675 0.0
C2566 C 0.26325 0.3434 0.16658 0.0
C2567 C 0.31875 0.35126 0.16465 0.0
C2568 C 0.29963 0.34862 0.16554 0.0
H2569 H 0.21217 0.34141 0.19708 0.0
H2570 H 0.24362 0.34111 0.19541 0.0
H2571 H 0.26244 0.36338 0.1475 0.0
H2572 H 0.34911 0.38359 0.16096 0.0
H2573 H 0.31816 0.37924 0.16535 0.0
C2574 C 0.19125 0.61847 0.89209 0.0
C2575 C 0.17955 0.62292 0.87892 0.0
C2576 C 0.20876 0.61632 0.88868 0.0
C2577 C 0.24275 0.62999 0.85912 0.0
H2578 H 0.26869 0.59431 0.88145 0.0
C2579 C 0.31779 0.62503 0.85385 0.0
C2580 C 0.3265 0.62215 0.86959 0.0
C2581 C 0.29964 0.62334 0.85256 0.0
C2582 C 0.26168 0.60442 0.87516 0.0
H2583 H 0.1771 0.62833 0.85169 0.0
H2584 H 0.20777 0.62464 0.84574 0.0
H2585 H 0.23735 0.59452 0.8838 0.0
H2586 H 0.32292 0.61488 0.89615 0.0
H2587 H 0.29176 0.61207 0.89394 0.0
H2588 H 0.26721 0.64019 0.85093 0.0
C2589 C 0.20334 0.62284 0.85874 0.0
C2590 C 0.24369 0.60452 0.87651 0.0
C2591 C 0.18575 0.62482 0.86213 0.0
C2592 C 0.31672 0.61721 0.88381 0.0
C2593 C 0.29875 0.61545 0.88251 0.0
C2594 C 0.26083 0.62993 0.85782 0.0
C2595 C 0.2151 0.61871 0.87202 0.0
C2596 C 0.23401 0.61753 0.86886 0.0
C2597 C 0.2899 0.61856 0.86693 0.0
C2598 C 0.27057 0.61739 0.86621 0.0
H2599 H 0.18696 0.61694 0.90518 0.0
H2600 H 0.21745 0.61334 0.89926 0.0
H2601 H 0.23572 0.64027 0.85314 0.0
H2602 H 0.32493 0.62889 0.84266 0.0
H2603 H 0.29324 0.62576 0.84033 0.0
C2604 C 0.39947 0.19597 0.90407 0.0
C2605 C 0.39455 0.18751 0.88842 0.0
C2606 C 0.40289 0.21382 0.90476 0.0
C2607 C 0.41264 0.25193 0.87804 0.0
H2608 H 0.3925 0.27728 0.91598 0.0
C2609 C 0.42608 0.32534 0.89219 0.0
C2610 C 0.41215 0.33517 0.89785 0.0
C2611 C 0.42429 0.30735 0.88999 0.0
C2612 C 0.39811 0.27044 0.90523 0.0
H2613 H 0.39008 0.19119 0.86107 0.0
H2614 H 0.39606 0.22228 0.86227 0.0
H2615 H 0.38945 0.24591 0.91437 0.0
H2616 H 0.3852 0.33375 0.90501 0.0
H2617 H 0.38208 0.30252 0.90107 0.0
H2618 H 0.4211 0.27657 0.8688 0.0
C2619 C 0.39733 0.21511 0.87402 0.0
C2620 C 0.39656 0.2524 0.90442 0.0
C2621 C 0.39383 0.19726 0.87335 0.0
C2622 C 0.39624 0.32662 0.90071 0.0
C2623 C 0.39448 0.30867 0.89858 0.0
C2624 C 0.41429 0.27001 0.8789 0.0
C2625 C 0.40156 0.22368 0.8898 0.0
C2626 C 0.40376 0.24289 0.8908 0.0
C2627 C 0.40856 0.29875 0.89348 0.0
C2628 C 0.40695 0.2795 0.89246 0.0
H2629 H 0.4002 0.18891 0.91594 0.0
H2630 H 0.4064 0.21995 0.91708 0.0
H2631 H 0.41844 0.24502 0.86743 0.0
H2632 H 0.43853 0.33146 0.88989 0.0
H2633 H 0.43543 0.30012 0.88614 0.0
C2634 C 0.84332 0.39255 0.91902 0.0
C2635 C 0.85032 0.40949 0.9189 0.0
C2636 C 0.82611 0.38952 0.92389 0.0
C2637 C 0.79026 0.41059 0.94711 0.0
H2638 H 0.75999 0.38046 0.91876 0.0
C2639 C 0.7166 0.41831 0.94283 0.0
C2640 C 0.70573 0.40352 0.94133 0.0
C2641 C 0.73458 0.41687 0.94299 0.0
C2642 C 0.76832 0.3887 0.92701 0.0
H2643 H 0.8447 0.43646 0.92393 0.0
H2644 H 0.81512 0.43122 0.93215 0.0
H2645 H 0.79103 0.38158 0.91341 0.0
H2646 H 0.70529 0.37551 0.93939 0.0
H2647 H 0.73676 0.37303 0.93959 0.0
H2648 H 0.76754 0.41818 0.96029 0.0
C2649 C 0.82281 0.42021 0.92877 0.0
C2650 C 0.78612 0.38932 0.92394 0.0
C2651 C 0.83983 0.42322 0.92387 0.0
C2652 C 0.71328 0.38718 0.94065 0.0
C2653 C 0.73131 0.38575 0.94061 0.0
C2654 C 0.77251 0.41002 0.95011 0.0
C2655 C 0.81568 0.40336 0.92887 0.0
C2656 C 0.79724 0.40066 0.93364 0.0
C2657 C 0.74217 0.4006 0.94149 0.0
C2658 C 0.76126 0.39941 0.93981 0.0
H2659 H 0.85105 0.38169 0.91525 0.0
H2660 H 0.82102 0.37636 0.92386 0.0
H2661 H 0.79849 0.41917 0.9551 0.0
H2662 H 0.71121 0.43109 0.94334 0.0
H2663 H 0.74253 0.42859 0.94352 0.0
C2664 C 0.66639 0.70148 0.89966 0.0
C2665 C 0.65008 0.693 0.8989 0.0
C2666 C 0.66785 0.71944 0.90196 0.0
C2667 C 0.64415 0.75838 0.91576 0.0
H2668 H 0.67689 0.78221 0.88688 0.0
C2669 C 0.65693 0.83236 0.922 0.0
C2670 C 0.65781 0.84143 0.90652 0.0
C2671 C 0.65701 0.81427 0.92187 0.0
C2672 C 0.66764 0.77579 0.895 0.0
H2673 H 0.6225 0.69684 0.90062 0.0
H2674 H 0.62504 0.72821 0.90462 0.0
H2675 H 0.67453 0.75076 0.88553 0.0
H2676 H 0.66 0.83846 0.87879 0.0
H2677 H 0.6602 0.80698 0.87857 0.0
H2678 H 0.63701 0.78347 0.92493 0.0
C2679 C 0.63674 0.72092 0.90351 0.0
C2680 C 0.66641 0.75771 0.89437 0.0
C2681 C 0.63528 0.70291 0.90118 0.0
C2682 C 0.65936 0.83194 0.89097 0.0
C2683 C 0.65952 0.81385 0.89085 0.0
C2684 C 0.64544 0.77648 0.91644 0.0
C2685 C 0.65304 0.72946 0.90359 0.0
C2686 C 0.6546 0.74874 0.90469 0.0
C2687 C 0.65806 0.80475 0.90627 0.0
C2688 C 0.65714 0.78544 0.906 0.0
H2689 H 0.6781 0.6943 0.89805 0.0
H2690 H 0.68063 0.72551 0.90229 0.0
H2691 H 0.63501 0.75194 0.92398 0.0
H2692 H 0.65571 0.83921 0.93423 0.0
H2693 H 0.65614 0.80772 0.93401 0.0
C2694 C 0.82108 0.64338 0.13005 0.0
C2695 C 0.83322 0.63028 0.13176 0.0
C2696 C 0.80376 0.63935 0.12616 0.0
C2697 C 0.77008 0.60573 0.12903 0.0
H2698 H 0.74607 0.63406 0.09612 0.0
C2699 C 0.69628 0.59766 0.11567 0.0
C2700 C 0.68716 0.61315 0.11539 0.0
C2701 C 0.71437 0.5979 0.1151 0.0
C2702 C 0.75253 0.62608 0.1054 0.0
H2703 H 0.83654 0.60257 0.13089 0.0
H2704 H 0.8059 0.59547 0.12427 0.0
H2705 H 0.77727 0.63761 0.10031 0.0
H2706 H 0.68996 0.64099 0.11359 0.0
H2707 H 0.72134 0.64142 0.11269 0.0
H2708 H 0.74524 0.59459 0.13456 0.0
C2709 C 0.81 0.60889 0.1259 0.0
C2710 C 0.77043 0.62808 0.10778 0.0
C2711 C 0.82751 0.61295 0.12966 0.0
C2712 C 0.69652 0.6288 0.11379 0.0
C2713 C 0.71457 0.62904 0.11319 0.0
C2714 C 0.75211 0.60376 0.12671 0.0
C2715 C 0.79798 0.6221 0.12395 0.0
C2716 C 0.77936 0.61824 0.11992 0.0
C2717 C 0.72377 0.61363 0.11416 0.0
C2718 C 0.74306 0.61421 0.11516 0.0
H2719 H 0.82495 0.65688 0.13159 0.0
H2720 H 0.7948 0.64982 0.12507 0.0
H2721 H 0.77658 0.59803 0.13855 0.0
H2722 H 0.68949 0.58536 0.1169 0.0
H2723 H 0.72101 0.58578 0.11563 0.0
C2724 C 0.41395 0.69099 0.14488 0.0
C2725 C 0.39617 0.6867 0.14367 0.0
C2726 C 0.41963 0.70813 0.14814 0.0
C2727 C 0.40565 0.75074 0.16474 0.0
H2728 H 0.44058 0.76951 0.1348 0.0
C2729 C 0.42999 0.82162 0.17217 0.0
C2730 C 0.43046 0.83103 0.15689 0.0
C2731 C 0.42807 0.80359 0.1716 0.0
C2732 C 0.43083 0.76446 0.14327 0.0
H2733 H 0.37047 0.69699 0.14571 0.0
H2734 H 0.38035 0.72671 0.15163 0.0
H2735 H 0.43253 0.73876 0.13261 0.0
H2736 H 0.43016 0.82865 0.12897 0.0
H2737 H 0.42692 0.79719 0.12798 0.0
H2738 H 0.40361 0.77645 0.17512 0.0
C2739 C 0.38992 0.71687 0.15001 0.0
C2740 C 0.42633 0.74681 0.14214 0.0
C2741 C 0.38425 0.69982 0.14656 0.0
C2742 C 0.42987 0.82185 0.141 0.0
C2743 C 0.42804 0.80378 0.14043 0.0
C2744 C 0.41025 0.76833 0.16598 0.0
C2745 C 0.40767 0.72132 0.1505 0.0
C2746 C 0.41351 0.73978 0.1527 0.0
C2747 C 0.42668 0.79446 0.15572 0.0
C2748 C 0.42274 0.77548 0.15511 0.0
H2749 H 0.42348 0.68123 0.14265 0.0
H2750 H 0.43339 0.71109 0.14862 0.0
H2751 H 0.39582 0.74574 0.17315 0.0
H2752 H 0.43045 0.82821 0.18465 0.0
H2753 H 0.42734 0.79681 0.18362 0.0
C2754 C 0.62313 0.32645 0.17971 0.0
C2755 C 0.63934 0.33512 0.17971 0.0
C2756 C 0.62193 0.30839 0.179 0.0
C2757 C 0.64675 0.26829 0.18419 0.0
H2758 H 0.61316 0.24908 0.15069 0.0
C2759 C 0.63737 0.19436 0.17194 0.0
C2760 C 0.63693 0.18895 0.15448 0.0
C2761 C 0.63608 0.21189 0.17655 0.0
C2762 C 0.6226 0.25422 0.1601 0.0
H2763 H 0.66704 0.33145 0.17985 0.0
H2764 H 0.66493 0.29992 0.17864 0.0
H2765 H 0.61457 0.28015 0.15653 0.0
H2766 H 0.63404 0.19772 0.12826 0.0
H2767 H 0.63161 0.22814 0.13629 0.0
H2768 H 0.65507 0.24234 0.18737 0.0
C2769 C 0.65313 0.30712 0.17924 0.0
C2770 C 0.62331 0.27204 0.16359 0.0
C2771 C 0.65435 0.32523 0.17991 0.0
C2772 C 0.63442 0.2014 0.14182 0.0
C2773 C 0.63297 0.21887 0.14644 0.0
C2774 C 0.64597 0.25043 0.18077 0.0
C2775 C 0.63689 0.29849 0.17831 0.0
C2776 C 0.63552 0.27935 0.17553 0.0
C2777 C 0.63412 0.22439 0.16384 0.0
C2778 C 0.63403 0.24319 0.16851 0.0
H2779 H 0.61129 0.33361 0.17965 0.0
H2780 H 0.60922 0.30218 0.17863 0.0
H2781 H 0.65622 0.27346 0.19355 0.0
H2782 H 0.63936 0.18514 0.18203 0.0
H2783 H 0.63682 0.21568 0.19008 0.0
C2784 C 0.92316 0.7078 0.63174 0.0
C2785 C 0.92618 0.69788 0.64641 0.0
C2786 C 0.92386 0.72589 0.63296 0.0
C2787 C 0.91639 0.76045 0.66453 0.0
H2788 H 0.93493 0.79082 0.63006 0.0
C2789 C 0.89356 0.82987 0.65403 0.0
C2790 C 0.90607 0.84279 0.65078 0.0
C2791 C 0.89827 0.81266 0.65562 0.0
C2792 C 0.92986 0.78251 0.63989 0.0
H2793 H 0.93338 0.69928 0.67363 0.0
H2794 H 0.93451 0.73072 0.67569 0.0
H2795 H 0.93988 0.75972 0.62786 0.0
H2796 H 0.93345 0.84788 0.64725 0.0
H2797 H 0.94163 0.81767 0.64977 0.0
H2798 H 0.9059 0.78311 0.67625 0.0
C2799 C 0.93143 0.72451 0.6633 0.0
C2800 C 0.93257 0.76471 0.63855 0.0
C2801 C 0.93087 0.70647 0.66207 0.0
C2802 C 0.92352 0.83824 0.64988 0.0
C2803 C 0.92819 0.82094 0.65115 0.0
C2804 C 0.91348 0.77818 0.66573 0.0
C2805 C 0.92747 0.73443 0.64888 0.0
C2806 C 0.92574 0.75347 0.65079 0.0
C2807 C 0.91555 0.80794 0.65371 0.0
C2808 C 0.92003 0.78938 0.65334 0.0
H2809 H 0.91952 0.70162 0.61948 0.0
H2810 H 0.92069 0.73318 0.62162 0.0
H2811 H 0.91079 0.75212 0.67406 0.0
H2812 H 0.88002 0.83296 0.65474 0.0
H2813 H 0.88823 0.80293 0.6575 0.0
C2814 C 0.21721 0.89694 0.67653 0.0
C2815 C 0.20572 0.88549 0.66749 0.0
C2816 C 0.23471 0.89311 0.6785 0.0
C2817 C 0.26762 0.85892 0.67013 0.0
H2818 H 0.29718 0.89922 0.66341 0.0
C2819 C 0.34315 0.85655 0.66438 0.0
C2820 C 0.35058 0.86824 0.6529 0.0
C2821 C 0.3254 0.85712 0.66791 0.0
C2822 C 0.28915 0.88776 0.66514 0.0
H2823 H 0.20341 0.86033 0.65464 0.0
H2824 H 0.23393 0.854 0.65732 0.0
H2825 H 0.26663 0.90278 0.66739 0.0
H2826 H 0.34511 0.88876 0.63523 0.0
H2827 H 0.31445 0.88931 0.64079 0.0
H2828 H 0.29032 0.84389 0.66683 0.0
C2829 C 0.22949 0.86584 0.66322 0.0
C2830 C 0.27154 0.88984 0.6678 0.0
C2831 C 0.2119 0.86953 0.66158 0.0
C2832 C 0.33984 0.87978 0.64437 0.0
C2833 C 0.32223 0.8802 0.64769 0.0
C2834 C 0.28533 0.85683 0.66729 0.0
C2835 C 0.24129 0.87788 0.67113 0.0
C2836 C 0.2604 0.87547 0.6701 0.0
C2837 C 0.31481 0.86928 0.65989 0.0
C2838 C 0.29625 0.87122 0.66438 0.0
H2839 H 0.21282 0.90924 0.68148 0.0
H2840 H 0.2432 0.90246 0.68524 0.0
H2841 H 0.25957 0.84754 0.67211 0.0
H2842 H 0.35115 0.84754 0.67117 0.0
H2843 H 0.32014 0.84849 0.67736 0.0
C2844 C 0.14542 0.33702 0.68842 0.0
C2845 C 0.14557 0.34485 0.67223 0.0
C2846 C 0.14373 0.31905 0.68962 0.0
C2847 C 0.1284 0.27954 0.66625 0.0
H2848 H 0.16054 0.25626 0.69637 0.0
C2849 C 0.12049 0.20704 0.67954 0.0
C2850 C 0.13523 0.19707 0.67704 0.0
C2851 C 0.12182 0.22507 0.6805 0.0
C2852 C 0.1515 0.26258 0.6879 0.0
H2853 H 0.14351 0.33989 0.64464 0.0
H2854 H 0.14015 0.30851 0.64678 0.0
H2855 H 0.16217 0.2878 0.69444 0.0
H2856 H 0.16312 0.19835 0.67472 0.0
H2857 H 0.16545 0.22994 0.67676 0.0
H2858 H 0.11772 0.25439 0.6597 0.0
C2859 C 0.14146 0.31632 0.65853 0.0
C2860 C 0.15234 0.28064 0.68689 0.0
C2861 C 0.14339 0.3343 0.6573 0.0
C2862 C 0.1515 0.20559 0.67667 0.0
C2863 C 0.15284 0.2237 0.67781 0.0
C2864 C 0.1274 0.26154 0.66745 0.0
C2865 C 0.14191 0.30847 0.6747 0.0
C2866 C 0.14083 0.28931 0.676 0.0
C2867 C 0.13793 0.23364 0.67918 0.0
C2868 C 0.13896 0.25284 0.67826 0.0
H2869 H 0.14717 0.34471 0.7002 0.0
H2870 H 0.14392 0.31341 0.70227 0.0
H2871 H 0.11931 0.28584 0.65781 0.0
H2872 H 0.10774 0.20098 0.67998 0.0
H2873 H 0.11014 0.23235 0.68188 0.0
C2874 C 0.69712 0.13347 0.6598 0.0
C2875 C 0.69091 0.14514 0.64764 0.0
C2876 C 0.7149 0.13313 0.66396 0.0
C2877 C 0.75246 0.16269 0.66516 0.0
H2878 H 0.78167 0.12276 0.66471 0.0
C2879 C 0.82532 0.16905 0.65684 0.0
C2880 C 0.83655 0.15816 0.66563 0.0
C2881 C 0.80744 0.16681 0.65793 0.0
C2882 C 0.77362 0.13399 0.66524 0.0
H2883 H 0.69855 0.1646 0.62943 0.0
H2884 H 0.7292 0.16398 0.63665 0.0
H2885 H 0.75032 0.11889 0.65973 0.0
H2886 H 0.8378 0.13652 0.6828 0.0
H2887 H 0.80629 0.13256 0.68471 0.0
H2888 H 0.77552 0.17788 0.67031 0.0
C2889 C 0.72043 0.15534 0.64321 0.0
C2890 C 0.75571 0.13176 0.66234 0.0
C2891 C 0.70285 0.15562 0.63902 0.0
C2892 C 0.82946 0.14521 0.67598 0.0
C2893 C 0.81145 0.14284 0.67694 0.0
C2894 C 0.77023 0.1649 0.66813 0.0
C2895 C 0.7266 0.14453 0.6561 0.0
C2896 C 0.74507 0.14618 0.66169 0.0
C2897 C 0.80024 0.15354 0.66778 0.0
C2898 C 0.78112 0.15067 0.66761 0.0
H2899 H 0.68822 0.12528 0.66669 0.0
H2900 H 0.71937 0.1246 0.67389 0.0
H2901 H 0.74451 0.17401 0.66509 0.0
H2902 H 0.83034 0.17914 0.64874 0.0
H2903 H 0.79924 0.17514 0.6505 0.0
C2904 C 0.91253 0.33985 0.38434 0.0
C2905 C 0.89966 0.35134 0.38926 0.0
C2906 C 0.91035 0.32212 0.3865 0.0
C2907 C 0.88543 0.28952 0.41076 0.0
H2908 H 0.90609 0.25825 0.37779 0.0
C2909 C 0.87886 0.21384 0.41016 0.0
C2910 C 0.89433 0.20504 0.40755 0.0
C2911 C 0.87851 0.23188 0.40918 0.0
C2912 C 0.90035 0.26683 0.38716 0.0
H2913 H 0.87416 0.35306 0.4001 0.0
H2914 H 0.87009 0.32182 0.40349 0.0
H2915 H 0.90616 0.28904 0.37239 0.0
H2916 H 0.9217 0.20844 0.40264 0.0
H2917 H 0.92099 0.23979 0.40076 0.0
H2918 H 0.87932 0.26694 0.42528 0.0
C2919 C 0.88207 0.32666 0.39822 0.0
C2920 C 0.90041 0.28452 0.38411 0.0
C2921 C 0.88432 0.34456 0.39614 0.0
C2922 C 0.90956 0.21475 0.40472 0.0
C2923 C 0.90915 0.23271 0.40351 0.0
C2924 C 0.88515 0.2717 0.41369 0.0
C2925 C 0.89513 0.31522 0.39348 0.0
C2926 C 0.89333 0.29619 0.39604 0.0
C2927 C 0.89356 0.24143 0.40533 0.0
C2928 C 0.89294 0.26024 0.40208 0.0
H2929 H 0.92458 0.34456 0.3791 0.0
H2930 H 0.92089 0.31388 0.38306 0.0
H2931 H 0.87997 0.29808 0.42031 0.0
H2932 H 0.86689 0.20675 0.41236 0.0
H2933 H 0.86632 0.23827 0.41062 0.0
C2934 C 0.82447 0.9048 0.38827 0.0
C2935 C 0.83396 0.89071 0.38234 0.0
C2936 C 0.80639 0.90406 0.38787 0.0
C2937 C 0.76892 0.87245 0.38376 0.0
H2938 H 0.74294 0.9144 0.38007 0.0
C2939 C 0.69387 0.87668 0.37319 0.0
C2940 C 0.68567 0.888 0.38467 0.0
C2941 C 0.71194 0.87566 0.37335 0.0
C2942 C 0.75006 0.9026 0.3812 0.0
H2943 H 0.83187 0.86505 0.37064 0.0
H2944 H 0.80035 0.86406 0.36903 0.0
H2945 H 0.77426 0.91576 0.37779 0.0
H2946 H 0.69004 0.9067 0.40569 0.0
H2947 H 0.72155 0.90519 0.40562 0.0
H2948 H 0.74434 0.85932 0.38642 0.0
C2949 C 0.80681 0.87548 0.37465 0.0
C2950 C 0.76807 0.90335 0.38 0.0
C2951 C 0.82493 0.8761 0.37538 0.0
C2952 C 0.69591 0.89778 0.39673 0.0
C2953 C 0.71395 0.89703 0.39663 0.0
C2954 C 0.75083 0.87167 0.38458 0.0
C2955 C 0.79722 0.88933 0.38118 0.0
C2956 C 0.77785 0.88833 0.38149 0.0
C2957 C 0.72215 0.88621 0.38473 0.0
C2958 C 0.74127 0.88678 0.38353 0.0
H2959 H 0.831 0.91619 0.39391 0.0
H2960 H 0.79966 0.91489 0.39336 0.0
H2961 H 0.77587 0.86061 0.38528 0.0
H2962 H 0.68636 0.869 0.36374 0.0
H2963 H 0.71797 0.86723 0.36404 0.0
C2964 C 0.14017 0.7113 0.42651 0.0
C2965 C 0.1404 0.7034 0.41 0.0
C2966 C 0.14222 0.72927 0.4286 0.0
C2967 C 0.15715 0.76887 0.40645 0.0
H2968 H 0.12588 0.7921 0.43718 0.0
C2969 C 0.16096 0.84284 0.41721 0.0
C2970 C 0.14519 0.8515 0.41693 0.0
C2971 C 0.16125 0.82484 0.41823 0.0
C2972 C 0.13468 0.78582 0.42851 0.0
H2973 H 0.14363 0.70822 0.38282 0.0
H2974 H 0.1472 0.73943 0.38645 0.0
H2975 H 0.1253 0.76059 0.435 0.0
H2976 H 0.11736 0.84795 0.41821 0.0
H2977 H 0.11785 0.81653 0.41991 0.0
H2978 H 0.16617 0.79406 0.39954 0.0
C2979 C 0.14552 0.73178 0.39782 0.0
C2980 C 0.13449 0.76773 0.42741 0.0
C2981 C 0.14341 0.71384 0.39573 0.0
C2982 C 0.12974 0.84173 0.41843 0.0
C2983 C 0.13003 0.82369 0.41945 0.0
C2984 C 0.15737 0.78694 0.40759 0.0
C2985 C 0.14465 0.73977 0.41425 0.0
C2986 C 0.1456 0.75901 0.41623 0.0
C2987 C 0.14578 0.81497 0.41901 0.0
C2988 C 0.14604 0.79568 0.41852 0.0
H2989 H 0.13788 0.70368 0.4378 0.0
H2990 H 0.14174 0.73496 0.44146 0.0
H2991 H 0.16601 0.76261 0.39784 0.0
H2992 H 0.17313 0.84993 0.41619 0.0
H2993 H 0.17363 0.81862 0.4182 0.0
C2994 C 0.31463 0.11575 0.37076 0.0
C2995 C 0.32146 0.13245 0.36811 0.0
C2996 C 0.29662 0.11272 0.37077 0.0
C2997 C 0.25878 0.11401 0.38222 0.0
H2998 H 0.22906 0.1407 0.35268 0.0
C2999 C 0.19002 0.13137 0.40127 0.0
C3000 C 0.17698 0.13316 0.38857 0.0
C3001 C 0.20698 0.12802 0.39671 0.0
C3002 C 0.23706 0.13288 0.36086 0.0
H3003 H 0.31469 0.15891 0.36295 0.0
H3004 H 0.28381 0.15373 0.36317 0.0
H3005 H 0.25994 0.1402 0.34757 0.0
H3006 H 0.17154 0.13241 0.36105 0.0
H3007 H 0.20127 0.12636 0.35302 0.0
H3008 H 0.23587 0.10671 0.39554 0.0
C3009 C 0.29214 0.14286 0.36502 0.0
C3010 C 0.25485 0.13276 0.35805 0.0
C3011 C 0.30996 0.14587 0.36509 0.0
C3012 C 0.18129 0.1312 0.37114 0.0
C3013 C 0.19835 0.12778 0.36656 0.0
C3014 C 0.24094 0.11405 0.38498 0.0
C3015 C 0.28516 0.12631 0.36797 0.0
C3016 C 0.26603 0.12383 0.36907 0.0
C3017 C 0.21145 0.12626 0.37931 0.0
C3018 C 0.22992 0.12397 0.3747 0.0
H3019 H 0.32314 0.10513 0.37311 0.0
H3020 H 0.29167 0.09978 0.37302 0.0
H3021 H 0.26695 0.10699 0.39097 0.0
H3022 H 0.18723 0.13282 0.41484 0.0
H3023 H 0.2167 0.12732 0.40691 0.0
C3024 C 0.61973 0.90964 0.6956 0.0
C3025 C 0.63498 0.90725 0.68635 0.0
C3026 C 0.61989 0.90896 0.71365 0.0
C3027 C 0.64329 0.88864 0.74882 0.0
H3028 H 0.62106 0.9213 0.77921 0.0
C3029 C 0.65317 0.88581 0.82222 0.0
C3030 C 0.63976 0.89034 0.83327 0.0
C3031 C 0.65176 0.88833 0.8045 0.0
C3032 C 0.62709 0.91188 0.77092 0.0
H3033 H 0.66248 0.90286 0.68897 0.0
H3034 H 0.66268 0.90145 0.7204 0.0
H3035 H 0.62042 0.9256 0.74804 0.0
H3036 H 0.61422 0.90108 0.83418 0.0
H3037 H 0.61143 0.90498 0.80297 0.0
H3038 H 0.64955 0.87456 0.77133 0.0
C3039 C 0.6506 0.90385 0.71366 0.0
C3040 C 0.62681 0.91443 0.75305 0.0
C3041 C 0.6505 0.90479 0.69564 0.0
C3042 C 0.62478 0.89742 0.82604 0.0
C3043 C 0.62326 0.89977 0.80814 0.0
C3044 C 0.64336 0.88595 0.76658 0.0
C3045 C 0.63524 0.90561 0.72285 0.0
C3046 C 0.63514 0.90296 0.74183 0.0
C3047 C 0.63676 0.89523 0.79709 0.0
C3048 C 0.63552 0.89766 0.77798 0.0
H3049 H 0.60755 0.91157 0.68886 0.0
H3050 H 0.60784 0.91032 0.72036 0.0
H3051 H 0.64948 0.87934 0.7405 0.0
H3052 H 0.66503 0.88053 0.82727 0.0
H3053 H 0.66267 0.88509 0.79665 0.0
C3054 C 0.11322 0.66095 0.81867 0.0
C3055 C 0.12799 0.66794 0.82744 0.0
C3056 C 0.11129 0.66234 0.80077 0.0
C3057 C 0.10733 0.66955 0.76257 0.0
H3058 H 0.15019 0.66596 0.73802 0.0
C3059 C 0.11004 0.66428 0.68726 0.0
C3060 C 0.12283 0.65364 0.68052 0.0
C3061 C 0.10962 0.668 0.70508 0.0
C3062 C 0.13804 0.6668 0.74462 0.0
H3063 H 0.15158 0.68311 0.82448 0.0
H3064 H 0.14784 0.68635 0.79347 0.0
H3065 H 0.15107 0.66936 0.76905 0.0
H3066 H 0.14461 0.63785 0.68726 0.0
H3067 H 0.14352 0.64372 0.71797 0.0
H3068 H 0.09435 0.66586 0.738 0.0
C3069 C 0.13807 0.6791 0.80023 0.0
C3070 C 0.13855 0.66911 0.76253 0.0
C3071 C 0.14015 0.67742 0.81808 0.0
C3072 C 0.13475 0.64634 0.69196 0.0
C3073 C 0.13421 0.64984 0.70965 0.0
C3074 C 0.10682 0.66699 0.74459 0.0
C3075 C 0.12394 0.67101 0.79119 0.0
C3076 C 0.12322 0.67028 0.77186 0.0
C3077 C 0.1219 0.66101 0.71648 0.0
C3078 C 0.12219 0.66523 0.73541 0.0
H3079 H 0.10361 0.65348 0.82546 0.0
H3080 H 0.10031 0.65577 0.79441 0.0
H3081 H 0.09523 0.67069 0.76919 0.0
H3082 H 0.1007 0.67011 0.67875 0.0
H3083 H 0.09997 0.67668 0.70983 0.0
C3084 C 0.34905 0.13567 0.81141 0.0
C3085 C 0.34873 0.12069 0.82131 0.0
C3086 C 0.3488 0.13446 0.79336 0.0
C3087 C 0.36073 0.10421 0.7584 0.0
H3088 H 0.34007 0.13816 0.72895 0.0
C3089 C 0.38505 0.11821 0.69048 0.0
C3090 C 0.37328 0.12296 0.67749 0.0
C3091 C 0.37954 0.1153 0.70722 0.0
C3092 C 0.34571 0.1284 0.73693 0.0
H3093 H 0.34679 0.09269 0.8199 0.0
H3094 H 0.34609 0.0906 0.78851 0.0
H3095 H 0.33409 0.13858 0.75973 0.0
H3096 H 0.34626 0.12756 0.67174 0.0
H3097 H 0.33657 0.12237 0.70106 0.0
H3098 H 0.37248 0.09413 0.73568 0.0
C3099 C 0.34692 0.1033 0.79468 0.0
C3100 C 0.34245 0.12877 0.75463 0.0
C3101 C 0.3472 0.10451 0.81271 0.0
C3102 C 0.35566 0.12385 0.68143 0.0
C3103 C 0.35014 0.12106 0.69827 0.0
C3104 C 0.36401 0.10386 0.74074 0.0
C3105 C 0.34818 0.11823 0.78475 0.0
C3106 C 0.35017 0.11687 0.76566 0.0
C3107 C 0.36209 0.11714 0.71147 0.0
C3108 C 0.35683 0.11615 0.72982 0.0
H3109 H 0.35025 0.14835 0.81759 0.0
H3110 H 0.34992 0.14624 0.78619 0.0
H3111 H 0.36704 0.09493 0.76647 0.0
H3112 H 0.39872 0.11741 0.6879 0.0
H3113 H 0.38915 0.11247 0.71703 0.0
C3114 C 0.89215 0.38662 0.71327 0.0
C3115 C 0.89667 0.39977 0.70187 0.0
C3116 C 0.89012 0.39033 0.73086 0.0
C3117 C 0.90237 0.42336 0.76497 0.0
H3118 H 0.86962 0.39705 0.7916 0.0
C3119 C 0.90479 0.42326 0.84002 0.0
C3120 C 0.88921 0.42081 0.84873 0.0
C3121 C 0.90502 0.42249 0.82192 0.0
C3122 C 0.8787 0.40475 0.78441 0.0
H3123 H 0.90195 0.42731 0.70005 0.0
H3124 H 0.89792 0.43383 0.73059 0.0
H3125 H 0.87029 0.39249 0.76058 0.0
H3126 H 0.86152 0.4167 0.84524 0.0
H3127 H 0.8618 0.41602 0.81389 0.0
H3128 H 0.91049 0.43591 0.78882 0.0
C3129 C 0.89636 0.42056 0.72603 0.0
C3130 C 0.87927 0.40191 0.76654 0.0
C3131 C 0.8985 0.41682 0.70845 0.0
C3132 C 0.87379 0.41848 0.83895 0.0
C3133 C 0.87398 0.41792 0.82091 0.0
C3134 C 0.90173 0.42629 0.78286 0.0
C3135 C 0.89242 0.40731 0.73757 0.0
C3136 C 0.89122 0.41104 0.75655 0.0
C3137 C 0.88964 0.41942 0.8121 0.0
C3138 C 0.88996 0.41693 0.79288 0.0
H3139 H 0.89077 0.37333 0.70874 0.0
H3140 H 0.88733 0.3797 0.73928 0.0
H3141 H 0.91191 0.43053 0.75783 0.0
H3142 H 0.91692 0.42495 0.84716 0.0
H3143 H 0.91737 0.42358 0.81569 0.0
C3144 C 0.65924 0.11326 0.34198 0.0
C3145 C 0.64139 0.1112 0.34484 0.0
C3146 C 0.66544 0.11379 0.32514 0.0
C3147 C 0.65025 0.12845 0.28371 0.0
H3148 H 0.69099 0.10809 0.26426 0.0
C3149 C 0.67635 0.15227 0.22017 0.0
C3150 C 0.67754 0.13933 0.20726 0.0
C3151 C 0.67505 0.14792 0.23747 0.0
C3152 C 0.67962 0.11387 0.26959 0.0
H3153 H 0.61638 0.10623 0.33226 0.0
H3154 H 0.62721 0.10712 0.30305 0.0
H3155 H 0.68196 0.10026 0.29336 0.0
H3156 H 0.67995 0.11175 0.20266 0.0
H3157 H 0.67784 0.10421 0.233 0.0
H3158 H 0.64787 0.14217 0.26024 0.0
C3159 C 0.63634 0.10865 0.3138 0.0
C3160 C 0.67448 0.10942 0.28619 0.0
C3161 C 0.63016 0.10805 0.33056 0.0
C3162 C 0.67896 0.12204 0.21225 0.0
C3163 C 0.67778 0.11771 0.22964 0.0
C3164 C 0.65552 0.13308 0.26734 0.0
C3165 C 0.65391 0.11228 0.31091 0.0
C3166 C 0.65963 0.11656 0.29333 0.0
C3167 C 0.67506 0.13055 0.24231 0.0
C3168 C 0.67022 0.12585 0.26006 0.0
H3169 H 0.66827 0.11573 0.35266 0.0
H3170 H 0.67905 0.11661 0.32329 0.0
H3171 H 0.6389 0.13436 0.28895 0.0
H3172 H 0.67538 0.16572 0.21685 0.0
H3173 H 0.67326 0.15812 0.24702 0.0
C3174 C 0.85653 0.65742 0.32948 0.0
C3175 C 0.86919 0.66787 0.3382 0.0
C3176 C 0.85606 0.65616 0.31139 0.0
C3177 C 0.87394 0.67629 0.27173 0.0
H3178 H 0.86735 0.63005 0.25217 0.0
C3179 C 0.8789 0.66075 0.19799 0.0
C3180 C 0.88681 0.64518 0.19345 0.0
C3181 C 0.87509 0.66458 0.21527 0.0
C3182 C 0.86934 0.64305 0.2574 0.0
H3183 H 0.89073 0.68584 0.33463 0.0
H3184 H 0.89009 0.68346 0.30343 0.0
H3185 H 0.86312 0.63513 0.28279 0.0
H3186 H 0.89746 0.62177 0.20363 0.0
H3187 H 0.89126 0.62857 0.2335 0.0
H3188 H 0.88096 0.68401 0.24642 0.0
C3189 C 0.88036 0.67635 0.31039 0.0
C3190 C 0.86662 0.64603 0.27498 0.0
C3191 C 0.88081 0.67761 0.32839 0.0
C3192 C 0.89121 0.63381 0.2066 0.0
C3193 C 0.8875 0.63765 0.22378 0.0
C3194 C 0.87673 0.67329 0.25413 0.0
C3195 C 0.86823 0.66534 0.3016 0.0
C3196 C 0.86919 0.66263 0.28249 0.0
C3197 C 0.87914 0.65294 0.22837 0.0
C3198 C 0.87481 0.65655 0.24678 0.0
H3199 H 0.84737 0.64976 0.33662 0.0
H3200 H 0.84634 0.64776 0.30508 0.0
H3201 H 0.87579 0.68931 0.27696 0.0
H3202 H 0.87526 0.66976 0.18816 0.0
H3203 H 0.86859 0.67645 0.21828 0.0
C3204 C 0.40132 0.88603 0.20543 0.0
C3205 C 0.39046 0.87567 0.19443 0.0
C3206 C 0.40079 0.8844 0.22329 0.0
C3207 C 0.37491 0.87206 0.25944 0.0
H3208 H 0.41885 0.8623 0.28168 0.0
C3209 C 0.38117 0.86558 0.33367 0.0
C3210 C 0.39611 0.87323 0.34157 0.0
C3211 C 0.37995 0.86333 0.31568 0.0
C3212 C 0.40649 0.86522 0.27578 0.0
H3213 H 0.36992 0.85606 0.19371 0.0
H3214 H 0.36862 0.85368 0.22517 0.0
H3215 H 0.41702 0.86464 0.25046 0.0
H3216 H 0.42167 0.88398 0.33672 0.0
H3217 H 0.41938 0.88059 0.30571 0.0
H3218 H 0.3645 0.87356 0.28475 0.0
C3219 C 0.37769 0.86285 0.21979 0.0
C3220 C 0.40546 0.86646 0.25786 0.0
C3221 C 0.37845 0.86423 0.20182 0.0
C3222 C 0.40998 0.87797 0.33114 0.0
C3223 C 0.4087 0.8759 0.31323 0.0
C3224 C 0.376 0.87114 0.27746 0.0
C3225 C 0.38918 0.87262 0.23064 0.0
C3226 C 0.38974 0.87014 0.24954 0.0
C3227 C 0.39358 0.8688 0.30517 0.0
C3228 C 0.39189 0.86801 0.28592 0.0
H3229 H 0.41077 0.89494 0.20023 0.0
H3230 H 0.40966 0.89221 0.23141 0.0
H3231 H 0.36265 0.87493 0.2533 0.0
H3232 H 0.37024 0.86175 0.34132 0.0
H3233 H 0.36821 0.85752 0.31002 0.0
C3234 C 0.17832 0.39143 0.34581 0.0
C3235 C 0.17806 0.40801 0.35361 0.0
C3236 C 0.17749 0.38936 0.32778 0.0
C3237 C 0.16088 0.4116 0.28973 0.0
H3238 H 0.18649 0.378 0.2635 0.0
C3239 C 0.1409 0.38865 0.22054 0.0
C3240 C 0.15399 0.38634 0.20848 0.0
C3241 C 0.14504 0.39263 0.23785 0.0
C3242 C 0.17935 0.38755 0.27063 0.0
H3243 H 0.17772 0.43543 0.34845 0.0
H3244 H 0.17633 0.4318 0.31723 0.0
H3245 H 0.19233 0.38195 0.29452 0.0
H3246 H 0.18176 0.38679 0.20513 0.0
H3247 H 0.18898 0.39367 0.23543 0.0
H3248 H 0.14774 0.41707 0.26597 0.0
C3249 C 0.1769 0.42039 0.325 0.0
C3250 C 0.18258 0.38969 0.28842 0.0
C3251 C 0.17781 0.42245 0.34295 0.0
C3252 C 0.17135 0.38858 0.21406 0.0
C3253 C 0.1755 0.39235 0.23145 0.0
C3254 C 0.15753 0.40934 0.27203 0.0
C3255 C 0.17629 0.40382 0.31719 0.0
C3256 C 0.17335 0.40173 0.29819 0.0
C3257 C 0.16238 0.39421 0.24358 0.0
C3258 C 0.16665 0.39723 0.26226 0.0
H3259 H 0.17845 0.38002 0.35362 0.0
H3260 H 0.17699 0.37642 0.32217 0.0
H3261 H 0.15339 0.42085 0.29689 0.0
H3262 H 0.1274 0.38698 0.2167 0.0
H3263 H 0.13462 0.39385 0.24687 0.0
C3264 C 0.68957 0.60875 0.85682 0.0
C3265 C 0.6816 0.62466 0.85962 0.0
C3266 C 0.70762 0.60768 0.85734 0.0
C3267 C 0.74862 0.63472 0.85843 0.0
H3268 H 0.7677 0.59452 0.88004 0.0
C3269 C 0.81862 0.63379 0.88518 0.0
C3270 C 0.82871 0.61994 0.87964 0.0
C3271 C 0.80075 0.63352 0.88206 0.0
C3272 C 0.76255 0.60575 0.87386 0.0
H3273 H 0.68647 0.65205 0.86456 0.0
H3274 H 0.71774 0.65017 0.86595 0.0
H3275 H 0.73652 0.59595 0.87499 0.0
H3276 H 0.82775 0.59462 0.86708 0.0
H3277 H 0.7963 0.59395 0.8621 0.0
H3278 H 0.77468 0.64476 0.85802 0.0
C3279 C 0.71017 0.63849 0.86297 0.0
C3280 C 0.74466 0.60656 0.87084 0.0
C3281 C 0.69214 0.63959 0.86223 0.0
C3282 C 0.82036 0.60549 0.8715 0.0
C3283 C 0.80237 0.6051 0.86866 0.0
C3284 C 0.76644 0.63401 0.86171 0.0
C3285 C 0.7182 0.62247 0.86088 0.0
C3286 C 0.73739 0.62113 0.86319 0.0
C3287 C 0.79245 0.61928 0.87359 0.0
C3288 C 0.77358 0.61958 0.86957 0.0
H3289 H 0.68184 0.597 0.85469 0.0
H3290 H 0.71324 0.59517 0.85522 0.0
H3291 H 0.74368 0.64598 0.85217 0.0
H3292 H 0.82457 0.64517 0.89143 0.0
H3293 H 0.79341 0.64455 0.88619 0.0
C3294 C 0.71806 0.39082 0.149 0.0
C3295 C 0.70797 0.37681 0.14221 0.0
C3296 C 0.73607 0.39117 0.14754 0.0
C3297 C 0.77299 0.36207 0.1381 0.0
H3298 H 0.79887 0.40559 0.13787 0.0
C3299 C 0.8472 0.36934 0.12589 0.0
C3300 C 0.85661 0.37969 0.13815 0.0
C3301 C 0.82907 0.36832 0.12613 0.0
C3302 C 0.7918 0.39334 0.138 0.0
H3303 H 0.7089 0.35252 0.12788 0.0
H3304 H 0.74014 0.35352 0.12447 0.0
H3305 H 0.76739 0.4056 0.13744 0.0
H3306 H 0.85427 0.39699 0.16033 0.0
H3307 H 0.82267 0.39553 0.16042 0.0
H3308 H 0.79766 0.34993 0.13801 0.0
C3309 C 0.7343 0.36397 0.13157 0.0
C3310 C 0.7737 0.3933 0.13786 0.0
C3311 C 0.7163 0.36347 0.13334 0.0
C3312 C 0.84747 0.38882 0.15076 0.0
C3313 C 0.82936 0.38809 0.15075 0.0
C3314 C 0.79112 0.36213 0.13787 0.0
C3315 C 0.74455 0.37767 0.13894 0.0
C3316 C 0.76395 0.37768 0.13814 0.0
C3317 C 0.81996 0.37793 0.13837 0.0
C3318 C 0.80071 0.37777 0.13803 0.0
H3319 H 0.7121 0.40122 0.1561 0.0
H3320 H 0.74334 0.40181 0.15371 0.0
H3321 H 0.76615 0.34975 0.13866 0.0
H3322 H 0.85384 0.36216 0.116 0.0
H3323 H 0.82215 0.36041 0.11642 0.0
C3324 C 0.66196 0.69561 0.14896 0.0
C3325 C 0.64704 0.68489 0.14726 0.0
C3326 C 0.66074 0.71363 0.1494 0.0
C3327 C 0.62946 0.74914 0.15536 0.0
H3328 H 0.66465 0.77633 0.13267 0.0
C3329 C 0.62965 0.82337 0.15972 0.0
C3330 C 0.63392 0.8327 0.14502 0.0
C3331 C 0.63237 0.80564 0.1604 0.0
C3332 C 0.65462 0.76896 0.13894 0.0
H3333 H 0.61906 0.68483 0.14491 0.0
H3334 H 0.61692 0.71616 0.14535 0.0
H3335 H 0.66662 0.745 0.13303 0.0
H3336 H 0.64487 0.83074 0.11962 0.0
H3337 H 0.64929 0.79957 0.12059 0.0
H3338 H 0.61706 0.77296 0.16067 0.0
C3339 C 0.62961 0.7107 0.14669 0.0
C3340 C 0.65588 0.75094 0.13938 0.0
C3341 C 0.63082 0.69266 0.1464 0.0
C3342 C 0.64154 0.82393 0.13117 0.0
C3343 C 0.64408 0.80604 0.13177 0.0
C3344 C 0.62814 0.76711 0.15482 0.0
C3345 C 0.64457 0.72147 0.148 0.0
C3346 C 0.64333 0.74075 0.14763 0.0
C3347 C 0.63923 0.79658 0.1463 0.0
C3348 C 0.64073 0.77734 0.14667 0.0
H3349 H 0.67466 0.69008 0.14973 0.0
H3350 H 0.67254 0.72141 0.15081 0.0
H3351 H 0.61963 0.74186 0.16201 0.0
H3352 H 0.62395 0.82976 0.1707 0.0
H3353 H 0.62893 0.799 0.17202 0.0
C3354 C 0.2042 0.64956 0.131 0.0
C3355 C 0.1918 0.63636 0.12714 0.0
C3356 C 0.22165 0.64732 0.1275 0.0
C3357 C 0.25466 0.61468 0.11939 0.0
H3358 H 0.27968 0.65354 0.10026 0.0
C3359 C 0.3268 0.61063 0.10075 0.0
C3360 C 0.33756 0.62502 0.1053 0.0
C3361 C 0.30878 0.6115 0.10189 0.0
C3362 C 0.27297 0.6426 0.10574 0.0
H3363 H 0.1882 0.6102 0.11691 0.0
H3364 H 0.21887 0.60623 0.11083 0.0
H3365 H 0.24889 0.6556 0.10551 0.0
H3366 H 0.33765 0.65176 0.11428 0.0
H3367 H 0.30639 0.65325 0.11638 0.0
H3368 H 0.27885 0.60179 0.11986 0.0
C3369 C 0.21498 0.61835 0.11661 0.0
C3370 C 0.25527 0.64378 0.10875 0.0
C3371 C 0.19741 0.62062 0.12007 0.0
C3372 C 0.3298 0.64044 0.11058 0.0
C3373 C 0.31181 0.64131 0.11172 0.0
C3374 C 0.27243 0.61352 0.11642 0.0
C3375 C 0.22728 0.6318 0.12006 0.0
C3376 C 0.24591 0.62994 0.11585 0.0
C3377 C 0.30103 0.6268 0.1076 0.0
C3378 C 0.28188 0.62756 0.10976 0.0
H3379 H 0.20044 0.66182 0.13656 0.0
H3380 H 0.23076 0.65782 0.13069 0.0
H3381 H 0.24791 0.60383 0.12498 0.0
H3382 H 0.3323 0.59853 0.09663 0.0
H3383 H 0.30092 0.60015 0.09836 0.0
C3384 C 0.41917 0.191 0.10385 0.0
C3385 C 0.41879 0.18469 0.12071 0.0
C3386 C 0.41977 0.20883 0.10106 0.0
C3387 C 0.40733 0.24942 0.12235 0.0
H3388 H 0.43536 0.27204 0.08828 0.0
C3389 C 0.40011 0.32162 0.10977 0.0
C3390 C 0.41569 0.3314 0.11023 0.0
C3391 C 0.40025 0.30359 0.10818 0.0
C3392 C 0.42744 0.26589 0.09782 0.0
H3393 H 0.41975 0.19223 0.14783 0.0
H3394 H 0.42088 0.22315 0.14297 0.0
H3395 H 0.43727 0.24079 0.09195 0.0
H3396 H 0.44353 0.32991 0.10804 0.0
H3397 H 0.44373 0.2985 0.10524 0.0
H3398 H 0.39769 0.27439 0.12849 0.0
C3399 C 0.42041 0.21435 0.1319 0.0
C3400 C 0.42846 0.24799 0.09986 0.0
C3401 C 0.41989 0.19659 0.13468 0.0
C3402 C 0.43129 0.32279 0.1078 0.0
C3403 C 0.43141 0.30476 0.10613 0.0
C3404 C 0.4062 0.26722 0.12023 0.0
C3405 C 0.4199 0.2207 0.11507 0.0
C3406 C 0.41858 0.2396 0.11232 0.0
C3407 C 0.41594 0.2949 0.10692 0.0
C3408 C 0.41634 0.27573 0.10805 0.0
H3409 H 0.4183 0.1822 0.09278 0.0
H3410 H 0.41934 0.21332 0.08795 0.0
H3411 H 0.39934 0.24333 0.13188 0.0
H3412 H 0.38785 0.3278 0.11153 0.0
H3413 H 0.38807 0.29639 0.1085 0.0
C3414 C 0.3433 0.39918 0.94074 0.0
C3415 C 0.35 0.39862 0.92403 0.0
C3416 C 0.32596 0.4034 0.94328 0.0
C3417 C 0.28886 0.42439 0.92164 0.0
H3418 H 0.26025 0.39565 0.95035 0.0
C3419 C 0.21486 0.41813 0.91277 0.0
C3420 C 0.20457 0.41552 0.92724 0.0
C3421 C 0.23289 0.41914 0.91447 0.0
C3422 C 0.26809 0.40404 0.94252 0.0
H3423 H 0.34367 0.4022 0.89695 0.0
H3424 H 0.31381 0.40938 0.90137 0.0
H3425 H 0.2914 0.3914 0.94981 0.0
H3426 H 0.20525 0.41282 0.95503 0.0
H3427 H 0.23672 0.41475 0.95798 0.0
H3428 H 0.26556 0.43673 0.91398 0.0
C3429 C 0.32187 0.40679 0.91256 0.0
C3430 C 0.28597 0.40158 0.94222 0.0
C3431 C 0.33903 0.40249 0.91002 0.0
C3432 C 0.21275 0.41487 0.94359 0.0
C3433 C 0.23081 0.4158 0.94528 0.0
C3434 C 0.27103 0.42685 0.92194 0.0
C3435 C 0.31506 0.40732 0.92919 0.0
C3436 C 0.29651 0.41143 0.93142 0.0
C3437 C 0.24113 0.41752 0.93068 0.0
C3438 C 0.26034 0.41642 0.93206 0.0
H3439 H 0.35141 0.39628 0.95179 0.0
H3440 H 0.32111 0.40373 0.95627 0.0
H3441 H 0.29665 0.43245 0.91344 0.0
H3442 H 0.20902 0.41864 0.89997 0.0
H3443 H 0.2404 0.42032 0.90291 0.0
C3444 C 0.68626 0.20502 0.89596 0.0
C3445 C 0.68514 0.19834 0.91263 0.0
C3446 C 0.68545 0.22286 0.89343 0.0
C3447 C 0.66818 0.26176 0.91468 0.0
H3448 H 0.69393 0.28691 0.88062 0.0
C3449 C 0.65338 0.33263 0.90122 0.0
C3450 C 0.66782 0.34398 0.90063 0.0
C3451 C 0.65543 0.31471 0.9003 0.0
C3452 C 0.68666 0.28007 0.89021 0.0
H3453 H 0.68359 0.20532 0.93978 0.0
H3454 H 0.68256 0.23629 0.93541 0.0
H3455 H 0.69918 0.25623 0.88465 0.0
H3456 H 0.69562 0.34534 0.89749 0.0
H3457 H 0.69918 0.31422 0.89602 0.0
H3458 H 0.65594 0.28554 0.92058 0.0
C3459 C 0.68357 0.22776 0.92423 0.0
C3460 C 0.68958 0.26245 0.89243 0.0
C3461 C 0.68433 0.20998 0.92675 0.0
C3462 C 0.6842 0.337 0.89803 0.0
C3463 C 0.68625 0.3191 0.89712 0.0
C3464 C 0.66523 0.2793 0.91244 0.0
C3465 C 0.68354 0.2344 0.90751 0.0
C3466 C 0.68049 0.25312 0.90484 0.0
C3467 C 0.67197 0.30771 0.89877 0.0
C3468 C 0.67448 0.28874 0.90025 0.0
H3469 H 0.68682 0.19644 0.88478 0.0
H3470 H 0.68545 0.22751 0.88038 0.0
H3471 H 0.6607 0.25494 0.92413 0.0
H3472 H 0.64056 0.33753 0.90313 0.0
H3473 H 0.64409 0.30633 0.90125 0.0
C3474 C 0.38094 0.6939 0.89281 0.0
C3475 C 0.37349 0.68739 0.87721 0.0
C3476 C 0.3814 0.71173 0.89656 0.0
C3477 C 0.36318 0.75365 0.88226 0.0
H3478 H 0.40612 0.77305 0.90176 0.0
C3479 C 0.37587 0.82792 0.89213 0.0
C3480 C 0.39262 0.83397 0.88837 0.0
C3481 C 0.3721 0.81008 0.89259 0.0
C3482 C 0.39405 0.76788 0.89622 0.0
H3483 H 0.36026 0.69455 0.85357 0.0
H3484 H 0.3614 0.72532 0.85987 0.0
H3485 H 0.40193 0.74188 0.89948 0.0
H3486 H 0.41836 0.82603 0.8816 0.0
H3487 H 0.41174 0.79532 0.88198 0.0
H3488 H 0.35571 0.77972 0.87819 0.0
C3489 C 0.36663 0.71679 0.86942 0.0
C3490 C 0.39154 0.74993 0.89516 0.0
C3491 C 0.36611 0.69905 0.86572 0.0
C3492 C 0.40535 0.82186 0.88472 0.0
C3493 C 0.40159 0.80417 0.8851 0.0
C3494 C 0.36575 0.77163 0.88323 0.0
C3495 C 0.37444 0.72344 0.88478 0.0
C3496 C 0.37622 0.74254 0.88782 0.0
C3497 C 0.385 0.79799 0.88927 0.0
C3498 C 0.38139 0.77897 0.88985 0.0
H3499 H 0.38667 0.68527 0.90197 0.0
H3500 H 0.38733 0.71634 0.90863 0.0
H3501 H 0.35107 0.74846 0.87683 0.0
H3502 H 0.3658 0.83692 0.89505 0.0
H3503 H 0.35919 0.8058 0.8959 0.0
loop_
_geom_bond_atom_site_label_1
_geom_bond_atom_site_label_2
_geom_bond_distance
_geom_bond_site_symmetry_2
_ccdc_geom_bond_type
Mg0 O7 2.141 . S
Mg0 O8 2.048 . S
Mg0 O9 2.048 . S
Mg0 O12 2.141 . S
C1 O2 1.313 . S
C1 O8 1.195 . S
O2 C1 1.313 . S
C3 O4 1.245 . S
C3 O12 1.289 . S
O4 C3 1.245 . S
C5 O6 1.245 . S
C5 O7 1.289 . S
O6 C5 1.245 . S
O7 Mg0 2.141 . S
O7 C5 1.289 . S
O8 Mg0 2.048 . S
O8 C1 1.195 . S
O9 Mg0 2.048 . S
O9 C10 1.195 . S
C10 O9 1.195 . S
C10 O11 1.313 . S
O11 C10 1.313 . S
O12 Mg0 2.141 . S
O12 C3 1.289 . S
Mg13 O20 2.141 . S
Mg13 O21 2.048 . S
Mg13 O22 2.048 . S
Mg13 O25 2.141 . S
C14 O15 1.313 . S
C14 O21 1.195 . S
O15 C14 1.313 . S
C16 O17 1.245 . S
C16 O25 1.289 . S
O17 C16 1.245 . S
C18 O19 1.245 . S
C18 O20 1.289 . S
O19 C18 1.245 . S
O20 Mg13 2.141 . S
O20 C18 1.289 . S
O21 Mg13 2.048 . S
O21 C14 1.195 . S
O22 Mg13 2.048 . S
O22 C23 1.195 . S
C23 O22 1.195 . S
C23 O24 1.313 . S
O24 C23 1.313 . S
O25 Mg13 2.141 . S
O25 C16 1.289 . S
Mg26 O33 2.141 . S
Mg26 O34 2.048 . S
Mg26 O35 2.048 . S
Mg26 O38 2.141 . S
C27 O28 1.313 . S
C27 O34 1.195 . S
O28 C27 1.313 . S
C29 O30 1.245 . S
C29 O38 1.289 . S
O30 C29 1.245 . S
C31 O32 1.245 . S
C31 O33 1.289 . S
O32 C31 1.245 . S
O33 Mg26 2.141 . S
O33 C31 1.289 . S
O34 Mg26 2.048 . S
O34 C27 1.195 . S
O35 Mg26 2.048 . S
O35 C36 1.195 . S
C36 O35 1.195 . S
C36 O37 1.313 . S
O37 C36 1.313 . S
O38 Mg26 2.141 . S
O38 C29 1.289 . S
Mg39 O46 2.141 . S
Mg39 O47 2.048 . S
Mg39 O48 2.048 . S
Mg39 O51 2.141 . S
C40 O41 1.313 . S
C40 O47 1.195 . S
O41 C40 1.313 . S
C42 O43 1.245 . S
C42 O51 1.289 . S
O43 C42 1.245 . S
C44 O45 1.245 . S
C44 O46 1.289 . S
O45 C44 1.245 . S
O46 Mg39 2.141 . S
O46 C44 1.289 . S
O47 Mg39 2.048 . S
O47 C40 1.195 . S
O48 Mg39 2.048 . S
O48 C49 1.195 . S
C49 O48 1.195 . S
C49 O50 1.313 . S
O50 C49 1.313 . S
O51 Mg39 2.141 . S
O51 C42 1.289 . S
Mg52 O59 2.141 . S
Mg52 O60 2.048 . S
Mg52 O61 2.048 . S
Mg52 O64 2.141 . S
C53 O54 1.313 . S
C53 O60 1.195 . S
O54 C53 1.313 . S
C55 O56 1.245 . S
C55 O64 1.289 . S
O56 C55 1.245 . S
C57 O58 1.245 . S
C57 O59 1.289 . S
O58 C57 1.245 . S
O59 Mg52 2.141 . S
O59 C57 1.289 . S
O60 Mg52 2.048 . S
O60 C53 1.195 . S
O61 Mg52 2.048 . S
O61 C62 1.195 . S
C62 O61 1.195 . S
C62 O63 1.313 . S
O63 C62 1.313 . S
O64 Mg52 2.141 . S
O64 C55 1.289 . S
Mg65 O72 2.141 . S
Mg65 O73 2.048 . S
Mg65 O74 2.048 . S
Mg65 O77 2.141 . S
C66 O67 1.313 . S
C66 O73 1.195 . S
O67 C66 1.313 . S
C68 O69 1.245 . S
C68 O77 1.289 . S
O69 C68 1.245 . S
C70 O71 1.245 . S
C70 O72 1.289 . S
O71 C70 1.245 . S
O72 Mg65 2.141 . S
O72 C70 1.289 . S
O73 Mg65 2.048 . S
O73 C66 1.195 . S
O74 Mg65 2.048 . S
O74 C75 1.195 . S
C75 O74 1.195 . S
C75 O76 1.313 . S
O76 C75 1.313 . S
O77 Mg65 2.141 . S
O77 C68 1.289 . S
Mg78 O85 2.141 . S
Mg78 O86 2.048 . S
Mg78 O87 2.048 . S
Mg78 O90 2.141 . S
C79 O80 1.313 . S
C79 O86 1.195 . S
O80 C79 1.313 . S
C81 O82 1.245 . S
C81 O90 1.289 . S
O82 C81 1.245 . S
C83 O84 1.245 . S
C83 O85 1.289 . S
O84 C83 1.245 . S
O85 Mg78 2.141 . S
O85 C83 1.289 . S
O86 Mg78 2.048 . S
O86 C79 1.195 . S
O87 Mg78 2.048 . S
O87 C88 1.195 . S
C88 O87 1.195 . S
C88 O89 1.313 . S
O89 C88 1.313 . S
O90 Mg78 2.141 . S
O90 C81 1.289 . S
Mg91 O98 2.141 . S
Mg91 O99 2.048 . S
Mg91 O100 2.048 . S
Mg91 O103 2.141 . S
C92 O93 1.313 . S
C92 O99 1.195 . S
O93 C92 1.313 . S
C94 O95 1.245 . S
C94 O103 1.289 . S
O95 C94 1.245 . S
C96 O97 1.245 . S
C96 O98 1.289 . S
O97 C96 1.245 . S
O98 Mg91 2.141 . S
O98 C96 1.289 . S
O99 Mg91 2.048 . S
O99 C92 1.195 . S
O100 Mg91 2.048 . S
O100 C101 1.195 . S
C101 O100 1.195 . S
C101 O102 1.313 . S
O102 C101 1.313 . S
O103 Mg91 2.141 . S
O103 C94 1.289 . S
Mg104 O111 2.141 . S
Mg104 O112 2.048 . S
Mg104 O113 2.048 . S
Mg104 O116 2.141 . S
C105 O106 1.313 . S
C105 O112 1.195 . S
O106 C105 1.313 . S
C107 O108 1.245 . S
C107 O116 1.289 . S
O108 C107 1.245 . S
C109 O110 1.245 . S
C109 O111 1.289 . S
O110 C109 1.245 . S
O111 Mg104 2.141 . S
O111 C109 1.289 . S
O112 Mg104 2.048 . S
O112 C105 1.195 . S
O113 Mg104 2.048 . S
O113 C114 1.195 . S
C114 O113 1.195 . S
C114 O115 1.313 . S
O115 C114 1.313 . S
O116 Mg104 2.141 . S
O116 C107 1.289 . S
Mg117 O124 2.141 . S
Mg117 O125 2.048 . S
Mg117 O126 2.048 . S
Mg117 O129 2.141 . S
C118 O119 1.313 . S
C118 O125 1.195 . S
O119 C118 1.313 . S
C120 O121 1.245 . S
C120 O129 1.289 . S
O121 C120 1.245 . S
C122 O123 1.245 . S
C122 O124 1.289 . S
O123 C122 1.245 . S
O124 Mg117 2.141 . S
O124 C122 1.289 . S
O125 Mg117 2.048 . S
O125 C118 1.195 . S
O126 Mg117 2.048 . S
O126 C127 1.195 . S
C127 O126 1.195 . S
C127 O128 1.313 . S
O128 C127 1.313 . S
O129 Mg117 2.141 . S
O129 C120 1.289 . S
Mg130 O137 2.141 . S
Mg130 O138 2.048 . S
Mg130 O139 2.048 . S
Mg130 O142 2.141 . S
C131 O132 1.313 . S
C131 O138 1.195 . S
O132 C131 1.313 . S
C133 O134 1.245 . S
C133 O142 1.289 . S
O134 C133 1.245 . S
C135 O136 1.245 . S
C135 O137 1.289 . S
O136 C135 1.245 . S
O137 Mg130 2.141 . S
O137 C135 1.289 . S
O138 Mg130 2.048 . S
O138 C131 1.195 . S
O139 Mg130 2.048 . S
O139 C140 1.195 . S
C140 O139 1.195 . S
C140 O141 1.313 . S
O141 C140 1.313 . S
O142 Mg130 2.141 . S
O142 C133 1.289 . S
Mg143 O150 2.141 . S
Mg143 O151 2.048 . S
Mg143 O152 2.048 . S
Mg143 O155 2.141 . S
C144 O145 1.313 . S
C144 O151 1.195 . S
O145 C144 1.313 . S
C146 O147 1.245 . S
C146 O155 1.289 . S
O147 C146 1.245 . S
C148 O149 1.245 . S
C148 O150 1.289 . S
O149 C148 1.245 . S
O150 Mg143 2.141 . S
O150 C148 1.289 . S
O151 Mg143 2.048 . S
O151 C144 1.195 . S
O152 Mg143 2.048 . S
O152 C153 1.195 . S
C153 O152 1.195 . S
C153 O154 1.313 . S
O154 C153 1.313 . S
O155 Mg143 2.141 . S
O155 C146 1.289 . S
Mg156 O163 2.141 . S
Mg156 O164 2.048 . S
Mg156 O165 2.048 . S
Mg156 O168 2.141 . S
C157 O158 1.313 . S
C157 O164 1.195 . S
O158 C157 1.313 . S
C159 O160 1.245 . S
C159 O168 1.289 . S
O160 C159 1.245 . S
C161 O162 1.245 . S
C161 O163 1.289 . S
O162 C161 1.245 . S
O163 Mg156 2.141 . S
O163 C161 1.289 . S
O164 Mg156 2.048 . S
O164 C157 1.195 . S
O165 Mg156 2.048 . S
O165 C166 1.195 . S
C166 O165 1.195 . S
C166 O167 1.313 . S
O167 C166 1.313 . S
O168 Mg156 2.141 . S
O168 C159 1.289 . S
Mg169 O176 2.141 . S
Mg169 O177 2.048 . S
Mg169 O178 2.048 . S
Mg169 O181 2.141 . S
C170 O171 1.313 . S
C170 O177 1.195 . S
O171 C170 1.313 . S
C172 O173 1.245 . S
C172 O181 1.289 . S
O173 C172 1.245 . S
C174 O175 1.245 . S
C174 O176 1.289 . S
O175 C174 1.245 . S
O176 Mg169 2.141 . S
O176 C174 1.289 . S
O177 Mg169 2.048 . S
O177 C170 1.195 . S
O178 Mg169 2.048 . S
O178 C179 1.195 . S
C179 O178 1.195 . S
C179 O180 1.313 . S
O180 C179 1.313 . S
O181 Mg169 2.141 . S
O181 C172 1.289 . S
Mg182 O189 2.141 . S
Mg182 O190 2.048 . S
Mg182 O191 2.048 . S
Mg182 O194 2.141 . S
C183 O184 1.313 . S
C183 O190 1.195 . S
O184 C183 1.313 . S
C185 O186 1.245 . S
C185 O194 1.289 . S
O186 C185 1.245 . S
C187 O188 1.245 . S
C187 O189 1.289 . S
O188 C187 1.245 . S
O189 Mg182 2.141 . S
O189 C187 1.289 . S
O190 Mg182 2.048 . S
O190 C183 1.195 . S
O191 Mg182 2.048 . S
O191 C192 1.195 . S
C192 O191 1.195 . S
C192 O193 1.313 . S
O193 C192 1.313 . S
O194 Mg182 2.141 . S
O194 C185 1.289 . S
Mg195 O202 2.141 . S
Mg195 O203 2.048 . S
Mg195 O204 2.048 . S
Mg195 O207 2.141 . S
C196 O197 1.313 . S
C196 O203 1.195 . S
O197 C196 1.313 . S
C198 O199 1.245 . S
C198 O207 1.289 . S
O199 C198 1.245 . S
C200 O201 1.245 . S
C200 O202 1.289 . S
O201 C200 1.245 . S
O202 Mg195 2.141 . S
O202 C200 1.289 . S
O203 Mg195 2.048 . S
O203 C196 1.195 . S
O204 Mg195 2.048 . S
O204 C205 1.195 . S
C205 O204 1.195 . S
C205 O206 1.313 . S
O206 C205 1.313 . S
O207 Mg195 2.141 . S
O207 C198 1.289 . S
Mg208 O215 2.141 . S
Mg208 O216 2.048 . S
Mg208 O217 2.048 . S
Mg208 O220 2.141 . S
C209 O210 1.313 . S
C209 O216 1.195 . S
O210 C209 1.313 . S
C211 O212 1.245 . S
C211 O220 1.289 . S
O212 C211 1.245 . S
C213 O214 1.245 . S
C213 O215 1.289 . S
O214 C213 1.245 . S
O215 Mg208 2.141 . S
O215 C213 1.289 . S
O216 Mg208 2.048 . S
O216 C209 1.195 . S
O217 Mg208 2.048 . S
O217 C218 1.195 . S
C218 O217 1.195 . S
C218 O219 1.313 . S
O219 C218 1.313 . S
O220 Mg208 2.141 . S
O220 C211 1.289 . S
Mg221 O228 2.141 . S
Mg221 O229 2.048 . S
Mg221 O230 2.048 . S
Mg221 O233 2.141 . S
C222 O223 1.313 . S
C222 O229 1.195 . S
O223 C222 1.313 . S
C224 O225 1.245 . S
C224 O233 1.289 . S
O225 C224 1.245 . S
C226 O227 1.245 . S
C226 O228 1.289 . S
O227 C226 1.245 . S
O228 Mg221 2.141 . S
O228 C226 1.289 . S
O229 Mg221 2.048 . S
O229 C222 1.195 . S
O230 Mg221 2.048 . S
O230 C231 1.195 . S
C231 O230 1.195 . S
C231 O232 1.313 . S
O232 C231 1.313 . S
O233 Mg221 2.141 . S
O233 C224 1.289 . S
Mg234 O241 2.141 . S
Mg234 O242 2.048 . S
Mg234 O243 2.048 . S
Mg234 O246 2.141 . S
C235 O236 1.313 . S
C235 O242 1.195 . S
O236 C235 1.313 . S
C237 O238 1.245 . S
C237 O246 1.289 . S
O238 C237 1.245 . S
C239 O240 1.245 . S
C239 O241 1.289 . S
O240 C239 1.245 . S
O241 Mg234 2.141 . S
O241 C239 1.289 . S
O242 Mg234 2.048 . S
O242 C235 1.195 . S
O243 Mg234 2.048 . S
O243 C244 1.195 . S
C244 O243 1.195 . S
C244 O245 1.313 . S
O245 C244 1.313 . S
O246 Mg234 2.141 . S
O246 C237 1.289 . S
Mg247 O254 2.141 . S
Mg247 O255 2.048 . S
Mg247 O256 2.048 . S
Mg247 O259 2.141 . S
C248 O249 1.313 . S
C248 O255 1.195 . S
O249 C248 1.313 . S
C250 O251 1.245 . S
C250 O259 1.289 . S
O251 C250 1.245 . S
C252 O253 1.245 . S
C252 O254 1.289 . S
O253 C252 1.245 . S
O254 Mg247 2.141 . S
O254 C252 1.289 . S
O255 Mg247 2.048 . S
O255 C248 1.195 . S
O256 Mg247 2.048 . S
O256 C257 1.195 . S
C257 O256 1.195 . S
C257 O258 1.313 . S
O258 C257 1.313 . S
O259 Mg247 2.141 . S
O259 C250 1.289 . S
Mg260 O267 2.141 . S
Mg260 O268 2.048 . S
Mg260 O269 2.048 . S
Mg260 O272 2.141 . S
C261 O262 1.313 . S
C261 O268 1.195 . S
O262 C261 1.313 . S
C263 O264 1.245 . S
C263 O272 1.289 . S
O264 C263 1.245 . S
C265 O266 1.245 . S
C265 O267 1.289 . S
O266 C265 1.245 . S
O267 Mg260 2.141 . S
O267 C265 1.289 . S
O268 Mg260 2.048 . S
O268 C261 1.195 . S
O269 Mg260 2.048 . S
O269 C270 1.195 . S
C270 O269 1.195 . S
C270 O271 1.313 . S
O271 C270 1.313 . S
O272 Mg260 2.141 . S
O272 C263 1.289 . S
Mg273 O280 2.141 . S
Mg273 O281 2.048 . S
Mg273 O282 2.048 . S
Mg273 O285 2.141 . S
C274 O275 1.313 . S
C274 O281 1.195 . S
O275 C274 1.313 . S
C276 O277 1.245 . S
C276 O285 1.289 . S
O277 C276 1.245 . S
C278 O279 1.245 . S
C278 O280 1.289 . S
O279 C278 1.245 . S
O280 Mg273 2.141 . S
O280 C278 1.289 . S
O281 Mg273 2.048 . S
O281 C274 1.195 . S
O282 Mg273 2.048 . S
O282 C283 1.195 . S
C283 O282 1.195 . S
C283 O284 1.313 . S
O284 C283 1.313 . S
O285 Mg273 2.141 . S
O285 C276 1.289 . S
Mg286 O293 2.141 . S
Mg286 O294 2.048 . S
Mg286 O295 2.048 . S
Mg286 O298 2.141 . S
C287 O288 1.313 . S
C287 O294 1.195 . S
O288 C287 1.313 . S
C289 O290 1.245 . S
C289 O298 1.289 . S
O290 C289 1.245 . S
C291 O292 1.245 . S
C291 O293 1.289 . S
O292 C291 1.245 . S
O293 Mg286 2.141 . S
O293 C291 1.289 . S
O294 Mg286 2.048 . S
O294 C287 1.195 . S
O295 Mg286 2.048 . S
O295 C296 1.195 . S
C296 O295 1.195 . S
C296 O297 1.313 . S
O297 C296 1.313 . S
O298 Mg286 2.141 . S
O298 C289 1.289 . S
Mg299 O306 2.141 . S
Mg299 O307 2.048 . S
Mg299 O308 2.048 . S
Mg299 O311 2.141 . S
C300 O301 1.313 . S
C300 O307 1.195 . S
O301 C300 1.313 . S
C302 O303 1.245 . S
C302 O311 1.289 . S
O303 C302 1.245 . S
C304 O305 1.245 . S
C304 O306 1.289 . S
O305 C304 1.245 . S
O306 Mg299 2.141 . S
O306 C304 1.289 . S
O307 Mg299 2.048 . S
O307 C300 1.195 . S
O308 Mg299 2.048 . S
O308 C309 1.195 . S
C309 O308 1.195 . S
C309 O310 1.313 . S
O310 C309 1.313 . S
O311 Mg299 2.141 . S
O311 C302 1.289 . S
Mg312 O319 2.141 . S
Mg312 O320 2.048 . S
Mg312 O321 2.048 . S
Mg312 O324 2.141 . S
C313 O314 1.313 . S
C313 O320 1.195 . S
O314 C313 1.313 . S
C315 O316 1.245 . S
C315 O324 1.289 . S
O316 C315 1.245 . S
C317 O318 1.245 . S
C317 O319 1.289 . S
O318 C317 1.245 . S
O319 Mg312 2.141 . S
O319 C317 1.289 . S
O320 Mg312 2.048 . S
O320 C313 1.195 . S
O321 Mg312 2.048 . S
O321 C322 1.195 . S
C322 O321 1.195 . S
C322 O323 1.313 . S
O323 C322 1.313 . S
O324 Mg312 2.141 . S
O324 C315 1.289 . S
Mg325 O332 2.141 . S
Mg325 O333 2.048 . S
Mg325 O334 2.048 . S
Mg325 O337 2.141 . S
C326 O327 1.313 . S
C326 O333 1.195 . S
O327 C326 1.313 . S
C328 O329 1.245 . S
C328 O337 1.289 . S
O329 C328 1.245 . S
C330 O331 1.245 . S
C330 O332 1.289 . S
O331 C330 1.245 . S
O332 Mg325 2.141 . S
O332 C330 1.289 . S
O333 Mg325 2.048 . S
O333 C326 1.195 . S
O334 Mg325 2.048 . S
O334 C335 1.195 . S
C335 O334 1.195 . S
C335 O336 1.313 . S
O336 C335 1.313 . S
O337 Mg325 2.141 . S
O337 C328 1.289 . S
Mg338 O345 2.141 . S
Mg338 O346 2.048 . S
Mg338 O347 2.048 . S
Mg338 O350 2.141 . S
C339 O340 1.313 . S
C339 O346 1.195 . S
O340 C339 1.313 . S
C341 O342 1.245 . S
C341 O350 1.289 . S
O342 C341 1.245 . S
C343 O344 1.245 . S
C343 O345 1.289 . S
O344 C343 1.245 . S
O345 Mg338 2.141 . S
O345 C343 1.289 . S
O346 Mg338 2.048 . S
O346 C339 1.195 . S
O347 Mg338 2.048 . S
O347 C348 1.195 . S
C348 O347 1.195 . S
C348 O349 1.313 . S
O349 C348 1.313 . S
O350 Mg338 2.141 . S
O350 C341 1.289 . S
Mg351 O358 2.141 . S
Mg351 O359 2.048 . S
Mg351 O360 2.048 . S
Mg351 O363 2.141 . S
C352 O353 1.313 . S
C352 O359 1.195 . S
O353 C352 1.313 . S
C354 O355 1.245 . S
C354 O363 1.289 . S
O355 C354 1.245 . S
C356 O357 1.245 . S
C356 O358 1.289 . S
O357 C356 1.245 . S
O358 Mg351 2.141 . S
O358 C356 1.289 . S
O359 Mg351 2.048 . S
O359 C352 1.195 . S
O360 Mg351 2.048 . S
O360 C361 1.195 . S
C361 O360 1.195 . S
C361 O362 1.313 . S
O362 C361 1.313 . S
O363 Mg351 2.141 . S
O363 C354 1.289 . S
Mg364 O371 2.141 . S
Mg364 O372 2.048 . S
Mg364 O373 2.048 . S
Mg364 O376 2.141 . S
C365 O366 1.313 . S
C365 O372 1.195 . S
O366 C365 1.313 . S
C367 O368 1.245 . S
C367 O376 1.289 . S
O368 C367 1.245 . S
C369 O370 1.245 . S
C369 O371 1.289 . S
O370 C369 1.245 . S
O371 Mg364 2.141 . S
O371 C369 1.289 . S
O372 Mg364 2.048 . S
O372 C365 1.195 . S
O373 Mg364 2.048 . S
O373 C374 1.195 . S
C374 O373 1.195 . S
C374 O375 1.313 . S
O375 C374 1.313 . S
O376 Mg364 2.141 . S
O376 C367 1.289 . S
Mg377 O384 2.141 . S
Mg377 O385 2.048 . S
Mg377 O386 2.048 . S
Mg377 O389 2.141 . S
C378 O379 1.313 . S
C378 O385 1.195 . S
O379 C378 1.313 . S
C380 O381 1.245 . S
C380 O389 1.289 . S
O381 C380 1.245 . S
C382 O383 1.245 . S
C382 O384 1.289 . S
O383 C382 1.245 . S
O384 Mg377 2.141 . S
O384 C382 1.289 . S
O385 Mg377 2.048 . S
O385 C378 1.195 . S
O386 Mg377 2.048 . S
O386 C387 1.195 . S
C387 O386 1.195 . S
C387 O388 1.313 . S
O388 C387 1.313 . S
O389 Mg377 2.141 . S
O389 C380 1.289 . S
Mg390 O397 2.141 . S
Mg390 O398 2.048 . S
Mg390 O399 2.048 . S
Mg390 O402 2.141 . S
C391 O392 1.313 . S
C391 O398 1.195 . S
O392 C391 1.313 . S
C393 O394 1.245 . S
C393 O402 1.289 . S
O394 C393 1.245 . S
C395 O396 1.245 . S
C395 O397 1.289 . S
O396 C395 1.245 . S
O397 Mg390 2.141 . S
O397 C395 1.289 . S
O398 Mg390 2.048 . S
O398 C391 1.195 . S
O399 Mg390 2.048 . S
O399 C400 1.195 . S
C400 O399 1.195 . S
C400 O401 1.313 . S
O401 C400 1.313 . S
O402 Mg390 2.141 . S
O402 C393 1.289 . S
Mg403 O410 2.141 . S
Mg403 O411 2.048 . S
Mg403 O412 2.048 . S
Mg403 O415 2.141 . S
C404 O405 1.313 . S
C404 O411 1.195 . S
O405 C404 1.313 . S
C406 O407 1.245 . S
C406 O415 1.289 . S
O407 C406 1.245 . S
C408 O409 1.245 . S
C408 O410 1.289 . S
O409 C408 1.245 . S
O410 Mg403 2.141 . S
O410 C408 1.289 . S
O411 Mg403 2.048 . S
O411 C404 1.195 . S
O412 Mg403 2.048 . S
O412 C413 1.195 . S
C413 O412 1.195 . S
C413 O414 1.313 . S
O414 C413 1.313 . S
O415 Mg403 2.141 . S
O415 C406 1.289 . S
Mg416 O423 2.141 . S
Mg416 O424 2.048 . S
Mg416 O425 2.048 . S
Mg416 O428 2.141 . S
C417 O418 1.313 . S
C417 O424 1.195 . S
O418 C417 1.313 . S
C419 O420 1.245 . S
C419 O428 1.289 . S
O420 C419 1.245 . S
C421 O422 1.245 . S
C421 O423 1.289 . S
O422 C421 1.245 . S
O423 Mg416 2.141 . S
O423 C421 1.289 . S
O424 Mg416 2.048 . S
O424 C417 1.195 . S
O425 Mg416 2.048 . S
O425 C426 1.195 . S
C426 O425 1.195 . S
C426 O427 1.313 . S
O427 C426 1.313 . S
O428 Mg416 2.141 . S
O428 C419 1.289 . S
Mg429 O436 2.141 . S
Mg429 O437 2.048 . S
Mg429 O438 2.048 . S
Mg429 O441 2.141 . S
C430 O431 1.313 . S
C430 O437 1.195 . S
O431 C430 1.313 . S
C432 O433 1.245 . S
C432 O441 1.289 . S
O433 C432 1.245 . S
C434 O435 1.245 . S
C434 O436 1.289 . S
O435 C434 1.245 . S
O436 Mg429 2.141 . S
O436 C434 1.289 . S
O437 Mg429 2.048 . S
O437 C430 1.195 . S
O438 Mg429 2.048 . S
O438 C439 1.195 . S
C439 O438 1.195 . S
C439 O440 1.313 . S
O440 C439 1.313 . S
O441 Mg429 2.141 . S
O441 C432 1.289 . S
Mg442 O449 2.141 . S
Mg442 O450 2.048 . S
Mg442 O451 2.048 . S
Mg442 O454 2.141 . S
C443 O444 1.313 . S
C443 O450 1.195 . S
O444 C443 1.313 . S
C445 O446 1.245 . S
C445 O454 1.289 . S
O446 C445 1.245 . S
C447 O448 1.245 . S
C447 O449 1.289 . S
O448 C447 1.245 . S
O449 Mg442 2.141 . S
O449 C447 1.289 . S
O450 Mg442 2.048 . S
O450 C443 1.195 . S
O451 Mg442 2.048 . S
O451 C452 1.195 . S
C452 O451 1.195 . S
C452 O453 1.313 . S
O453 C452 1.313 . S
O454 Mg442 2.141 . S
O454 C445 1.289 . S
Mg455 O462 2.141 . S
Mg455 O463 2.048 . S
Mg455 O464 2.048 . S
Mg455 O467 2.141 . S
C456 O457 1.313 . S
C456 O463 1.195 . S
O457 C456 1.313 . S
C458 O459 1.245 . S
C458 O467 1.289 . S
O459 C458 1.245 . S
C460 O461 1.245 . S
C460 O462 1.289 . S
O461 C460 1.245 . S
O462 Mg455 2.141 . S
O462 C460 1.289 . S
O463 Mg455 2.048 . S
O463 C456 1.195 . S
O464 Mg455 2.048 . S
O464 C465 1.195 . S
C465 O464 1.195 . S
C465 O466 1.313 . S
O466 C465 1.313 . S
O467 Mg455 2.141 . S
O467 C458 1.289 . S
Mg468 O475 2.141 . S
Mg468 O476 2.048 . S
Mg468 O477 2.048 . S
Mg468 O480 2.141 . S
C469 O470 1.313 . S
C469 O476 1.195 . S
O470 C469 1.313 . S
C471 O472 1.245 . S
C471 O480 1.289 . S
O472 C471 1.245 . S
C473 O474 1.245 . S
C473 O475 1.289 . S
O474 C473 1.245 . S
O475 Mg468 2.141 . S
O475 C473 1.289 . S
O476 Mg468 2.048 . S
O476 C469 1.195 . S
O477 Mg468 2.048 . S
O477 C478 1.195 . S
C478 O477 1.195 . S
C478 O479 1.313 . S
O479 C478 1.313 . S
O480 Mg468 2.141 . S
O480 C471 1.289 . S
Mg481 O488 2.141 . S
Mg481 O489 2.048 . S
Mg481 O490 2.048 . S
Mg481 O493 2.141 . S
C482 O483 1.313 . S
C482 O489 1.195 . S
O483 C482 1.313 . S
C484 O485 1.245 . S
C484 O493 1.289 . S
O485 C484 1.245 . S
C486 O487 1.245 . S
C486 O488 1.289 . S
O487 C486 1.245 . S
O488 Mg481 2.141 . S
O488 C486 1.289 . S
O489 Mg481 2.048 . S
O489 C482 1.195 . S
O490 Mg481 2.048 . S
O490 C491 1.195 . S
C491 O490 1.195 . S
C491 O492 1.313 . S
O492 C491 1.313 . S
O493 Mg481 2.141 . S
O493 C484 1.289 . S
Mg494 O501 2.141 . S
Mg494 O502 2.048 . S
Mg494 O503 2.048 . S
Mg494 O506 2.141 . S
C495 O496 1.313 . S
C495 O502 1.195 . S
O496 C495 1.313 . S
C497 O498 1.245 . S
C497 O506 1.289 . S
O498 C497 1.245 . S
C499 O500 1.245 . S
C499 O501 1.289 . S
O500 C499 1.245 . S
O501 Mg494 2.141 . S
O501 C499 1.289 . S
O502 Mg494 2.048 . S
O502 C495 1.195 . S
O503 Mg494 2.048 . S
O503 C504 1.195 . S
C504 O503 1.195 . S
C504 O505 1.313 . S
O505 C504 1.313 . S
O506 Mg494 2.141 . S
O506 C497 1.289 . S
Mg507 O514 2.141 . S
Mg507 O515 2.048 . S
Mg507 O516 2.048 . S
Mg507 O519 2.141 . S
C508 O509 1.313 . S
C508 O515 1.195 . S
O509 C508 1.313 . S
C510 O511 1.245 . S
C510 O519 1.289 . S
O511 C510 1.245 . S
C512 O513 1.245 . S
C512 O514 1.289 . S
O513 C512 1.245 . S
O514 Mg507 2.141 . S
O514 C512 1.289 . S
O515 Mg507 2.048 . S
O515 C508 1.195 . S
O516 Mg507 2.048 . S
O516 C517 1.195 . S
C517 O516 1.195 . S
C517 O518 1.313 . S
O518 C517 1.313 . S
O519 Mg507 2.141 . S
O519 C510 1.289 . S
Mg520 O527 2.141 . S
Mg520 O528 2.048 . S
Mg520 O529 2.048 . S
Mg520 O532 2.141 . S
C521 O522 1.313 . S
C521 O528 1.195 . S
O522 C521 1.313 . S
C523 O524 1.245 . S
C523 O532 1.289 . S
O524 C523 1.245 . S
C525 O526 1.245 . S
C525 O527 1.289 . S
O526 C525 1.245 . S
O527 Mg520 2.141 . S
O527 C525 1.289 . S
O528 Mg520 2.048 . S
O528 C521 1.195 . S
O529 Mg520 2.048 . S
O529 C530 1.195 . S
C530 O529 1.195 . S
C530 O531 1.313 . S
O531 C530 1.313 . S
O532 Mg520 2.141 . S
O532 C523 1.289 . S
Mg533 O540 2.141 . S
Mg533 O541 2.048 . S
Mg533 O542 2.048 . S
Mg533 O545 2.141 . S
C534 O535 1.313 . S
C534 O541 1.195 . S
O535 C534 1.313 . S
C536 O537 1.245 . S
C536 O545 1.289 . S
O537 C536 1.245 . S
C538 O539 1.245 . S
C538 O540 1.289 . S
O539 C538 1.245 . S
O540 Mg533 2.141 . S
O540 C538 1.289 . S
O541 Mg533 2.048 . S
O541 C534 1.195 . S
O542 Mg533 2.048 . S
O542 C543 1.195 . S
C543 O542 1.195 . S
C543 O544 1.313 . S
O544 C543 1.313 . S
O545 Mg533 2.141 . S
O545 C536 1.289 . S
Mg546 O553 2.141 . S
Mg546 O554 2.048 . S
Mg546 O555 2.048 . S
Mg546 O558 2.141 . S
C547 O548 1.313 . S
C547 O554 1.195 . S
O548 C547 1.313 . S
C549 O550 1.245 . S
C549 O558 1.289 . S
O550 C549 1.245 . S
C551 O552 1.245 . S
C551 O553 1.289 . S
O552 C551 1.245 . S
O553 Mg546 2.141 . S
O553 C551 1.289 . S
O554 Mg546 2.048 . S
O554 C547 1.195 . S
O555 Mg546 2.048 . S
O555 C556 1.195 . S
C556 O555 1.195 . S
C556 O557 1.313 . S
O557 C556 1.313 . S
O558 Mg546 2.141 . S
O558 C549 1.289 . S
Mg559 O566 2.141 . S
Mg559 O567 2.048 . S
Mg559 O568 2.048 . S
Mg559 O571 2.141 . S
C560 O561 1.313 . S
C560 O567 1.195 . S
O561 C560 1.313 . S
C562 O563 1.245 . S
C562 O571 1.289 . S
O563 C562 1.245 . S
C564 O565 1.245 . S
C564 O566 1.289 . S
O565 C564 1.245 . S
O566 Mg559 2.141 . S
O566 C564 1.289 . S
O567 Mg559 2.048 . S
O567 C560 1.195 . S
O568 Mg559 2.048 . S
O568 C569 1.195 . S
C569 O568 1.195 . S
C569 O570 1.313 . S
O570 C569 1.313 . S
O571 Mg559 2.141 . S
O571 C562 1.289 . S
Mg572 O579 2.141 . S
Mg572 O580 2.048 . S
Mg572 O581 2.048 . S
Mg572 O584 2.141 . S
C573 O574 1.313 . S
C573 O580 1.195 . S
O574 C573 1.313 . S
C575 O576 1.245 . S
C575 O584 1.289 . S
O576 C575 1.245 . S
C577 O578 1.245 . S
C577 O579 1.289 . S
O578 C577 1.245 . S
O579 Mg572 2.141 . S
O579 C577 1.289 . S
O580 Mg572 2.048 . S
O580 C573 1.195 . S
O581 Mg572 2.048 . S
O581 C582 1.195 . S
C582 O581 1.195 . S
C582 O583 1.313 . S
O583 C582 1.313 . S
O584 Mg572 2.141 . S
O584 C575 1.289 . S
Mg585 O592 2.141 . S
Mg585 O593 2.048 . S
Mg585 O594 2.048 . S
Mg585 O597 2.141 . S
C586 O587 1.313 . S
C586 O593 1.195 . S
O587 C586 1.313 . S
C588 O589 1.245 . S
C588 O597 1.289 . S
O589 C588 1.245 . S
C590 O591 1.245 . S
C590 O592 1.289 . S
O591 C590 1.245 . S
O592 Mg585 2.141 . S
O592 C590 1.289 . S
O593 Mg585 2.048 . S
O593 C586 1.195 . S
O594 Mg585 2.048 . S
O594 C595 1.195 . S
C595 O594 1.195 . S
C595 O596 1.313 . S
O596 C595 1.313 . S
O597 Mg585 2.141 . S
O597 C588 1.289 . S
Mg598 O605 2.141 . S
Mg598 O606 2.048 . S
Mg598 O607 2.048 . S
Mg598 O610 2.141 . S
C599 O600 1.313 . S
C599 O606 1.195 . S
O600 C599 1.313 . S
C601 O602 1.245 . S
C601 O610 1.289 . S
O602 C601 1.245 . S
C603 O604 1.245 . S
C603 O605 1.289 . S
O604 C603 1.245 . S
O605 Mg598 2.141 . S
O605 C603 1.289 . S
O606 Mg598 2.048 . S
O606 C599 1.195 . S
O607 Mg598 2.048 . S
O607 C608 1.195 . S
C608 O607 1.195 . S
C608 O609 1.313 . S
O609 C608 1.313 . S
O610 Mg598 2.141 . S
O610 C601 1.289 . S
Mg611 O618 2.141 . S
Mg611 O619 2.048 . S
Mg611 O620 2.048 . S
Mg611 O623 2.141 . S
C612 O613 1.313 . S
C612 O619 1.195 . S
O613 C612 1.313 . S
C614 O615 1.245 . S
C614 O623 1.289 . S
O615 C614 1.245 . S
C616 O617 1.245 . S
C616 O618 1.289 . S
O617 C616 1.245 . S
O618 Mg611 2.141 . S
O618 C616 1.289 . S
O619 Mg611 2.048 . S
O619 C612 1.195 . S
O620 Mg611 2.048 . S
O620 C621 1.195 . S
C621 O620 1.195 . S
C621 O622 1.313 . S
O622 C621 1.313 . S
O623 Mg611 2.141 . S
O623 C614 1.289 . S
C624 C625 1.349 . S
C624 C626 1.327 . S
C624 H649 0.950 . S
C625 C624 1.349 . S
C625 C641 1.349 . S
C626 C624 1.327 . S
C626 C645 1.429 . S
C626 H650 0.950 . S
C627 C644 1.574 1_565 S
C627 C646 1.368 . S
C627 H651 0.949 . S
H628 C632 0.949 . S
C629 C630 1.349 . S
C629 C631 1.327 . S
C629 H652 0.950 . S
C630 C629 1.349 . S
C630 C642 1.349 . S
C631 C629 1.327 . S
C631 C647 1.429 . S
C631 H653 0.950 . S
C632 H628 0.949 . S
C632 C640 1.574 1_545 S
C632 C648 1.368 . S
H633 C641 0.950 . S
H634 C639 0.950 . S
H635 C640 0.949 . S
H636 C642 0.950 . S
H637 C643 0.950 . S
H638 C644 0.949 . S
C639 H634 0.950 . S
C639 C641 1.327 . S
C639 C645 1.429 . S
C640 C632 1.574 1_565 S
C640 H635 0.949 . S
C640 C646 1.368 . S
C641 C625 1.349 . S
C641 H633 0.950 . S
C641 C639 1.327 . S
C642 C630 1.349 . S
C642 H636 0.950 . S
C642 C643 1.327 . S
C643 H637 0.950 . S
C643 C642 1.327 . S
C643 C647 1.429 . S
C644 C627 1.574 1_545 S
C644 H638 0.949 . S
C644 C648 1.368 . S
C645 C626 1.429 . S
C645 C639 1.429 . S
C645 C646 1.523 . S
C646 C627 1.368 . S
C646 C640 1.368 . S
C646 C645 1.523 . S
C647 C631 1.429 . S
C647 C643 1.429 . S
C647 C648 1.523 . S
C648 C632 1.368 . S
C648 C644 1.368 . S
C648 C647 1.523 . S
H649 C624 0.950 . S
H650 C626 0.950 . S
H651 C627 0.949 . S
H652 C629 0.950 . S
H653 C631 0.950 . S
C654 C655 1.349 . S
C654 C656 1.327 . S
C654 H679 0.950 . S
C655 C654 1.349 . S
C655 C671 1.349 . S
C656 C654 1.327 . S
C656 C675 1.429 . S
C656 H680 0.950 . S
C657 C674 1.574 1_455 S
C657 C676 1.368 . S
C657 H681 0.949 . S
H658 C662 0.949 . S
C659 C660 1.349 . S
C659 C661 1.327 . S
C659 H682 0.950 . S
C660 C659 1.349 . S
C660 C672 1.349 . S
C661 C659 1.327 . S
C661 C677 1.429 . S
C661 H683 0.950 . S
C662 H658 0.949 . S
C662 C670 1.574 1_655 S
C662 C678 1.368 . S
H663 C671 0.950 . S
H664 C669 0.950 . S
H665 C670 0.949 . S
H666 C672 0.950 . S
H667 C673 0.950 . S
H668 C674 0.949 . S
C669 H664 0.950 . S
C669 C671 1.327 . S
C669 C675 1.429 . S
C670 C662 1.574 1_455 S
C670 H665 0.949 . S
C670 C676 1.368 . S
C671 C655 1.349 . S
C671 H663 0.950 . S
C671 C669 1.327 . S
C672 C660 1.349 . S
C672 H666 0.950 . S
C672 C673 1.327 . S
C673 H667 0.950 . S
C673 C672 1.327 . S
C673 C677 1.429 . S
C674 C657 1.574 1_655 S
C674 H668 0.949 . S
C674 C678 1.368 . S
C675 C656 1.429 . S
C675 C669 1.429 . S
C675 C676 1.523 . S
C676 C657 1.368 . S
C676 C670 1.368 . S
C676 C675 1.523 . S
C677 C661 1.429 . S
C677 C673 1.429 . S
C677 C678 1.523 . S
C678 C662 1.368 . S
C678 C674 1.368 . S
C678 C677 1.523 . S
H679 C654 0.950 . S
H680 C656 0.950 . S
H681 C657 0.949 . S
H682 C659 0.950 . S
H683 C661 0.950 . S
C684 C685 1.349 . S
C684 C686 1.327 . S
C684 H709 0.950 . S
C685 C684 1.349 . S
C685 C701 1.349 . S
C686 C684 1.327 . S
C686 C705 1.429 . S
C686 H710 0.950 . S
C687 C704 1.574 1_565 S
C687 C706 1.368 . S
C687 H711 0.949 . S
H688 C692 0.949 . S
C689 C690 1.349 . S
C689 C691 1.327 . S
C689 H712 0.950 . S
C690 C689 1.349 . S
C690 C702 1.349 . S
C691 C689 1.327 . S
C691 C707 1.429 . S
C691 H713 0.950 . S
C692 H688 0.949 . S
C692 C700 1.574 1_545 S
C692 C708 1.368 . S
H693 C701 0.950 . S
H694 C699 0.950 . S
H695 C700 0.949 . S
H696 C702 0.950 . S
H697 C703 0.950 . S
H698 C704 0.949 . S
C699 H694 0.950 . S
C699 C701 1.327 . S
C699 C705 1.429 . S
C700 C692 1.574 1_565 S
C700 H695 0.949 . S
C700 C706 1.368 . S
C701 C685 1.349 . S
C701 H693 0.950 . S
C701 C699 1.327 . S
C702 C690 1.349 . S
C702 H696 0.950 . S
C702 C703 1.327 . S
C703 H697 0.950 . S
C703 C702 1.327 . S
C703 C707 1.429 . S
C704 C687 1.574 1_545 S
C704 H698 0.949 . S
C704 C708 1.368 . S
C705 C686 1.429 . S
C705 C699 1.429 . S
C705 C706 1.523 . S
C706 C687 1.368 . S
C706 C700 1.368 . S
C706 C705 1.523 . S
C707 C691 1.429 . S
C707 C703 1.429 . S
C707 C708 1.523 . S
C708 C692 1.368 . S
C708 C704 1.368 . S
C708 C707 1.523 . S
H709 C684 0.950 . S
H710 C686 0.950 . S
H711 C687 0.949 . S
H712 C689 0.950 . S
H713 C691 0.950 . S
C714 C715 1.349 . S
C714 C716 1.327 . S
C714 H739 0.950 . S
C715 C714 1.349 . S
C715 C731 1.349 . S
C716 C714 1.327 . S
C716 C735 1.429 . S
C716 H740 0.950 . S
C717 C734 1.574 1_655 S
C717 C736 1.368 . S
C717 H741 0.949 . S
H718 C722 0.949 . S
C719 C720 1.349 . S
C719 C721 1.327 . S
C719 H742 0.950 . S
C720 C719 1.349 . S
C720 C732 1.349 . S
C721 C719 1.327 . S
C721 C737 1.429 . S
C721 H743 0.950 . S
C722 H718 0.949 . S
C722 C730 1.574 1_455 S
C722 C738 1.368 . S
H723 C731 0.950 . S
H724 C729 0.950 . S
H725 C730 0.949 . S
H726 C732 0.950 . S
H727 C733 0.950 . S
H728 C734 0.949 . S
C729 H724 0.950 . S
C729 C731 1.327 . S
C729 C735 1.429 . S
C730 C722 1.574 1_655 S
C730 H725 0.949 . S
C730 C736 1.368 . S
C731 C715 1.349 . S
C731 H723 0.950 . S
C731 C729 1.327 . S
C732 C720 1.349 . S
C732 H726 0.950 . S
C732 C733 1.327 . S
C733 H727 0.950 . S
C733 C732 1.327 . S
C733 C737 1.429 . S
C734 C717 1.574 1_455 S
C734 H728 0.949 . S
C734 C738 1.368 . S
C735 C716 1.429 . S
C735 C729 1.429 . S
C735 C736 1.523 . S
C736 C717 1.368 . S
C736 C730 1.368 . S
C736 C735 1.523 . S
C737 C721 1.429 . S
C737 C733 1.429 . S
C737 C738 1.523 . S
C738 C722 1.368 . S
C738 C734 1.368 . S
C738 C737 1.523 . S
H739 C714 0.950 . S
H740 C716 0.950 . S
H741 C717 0.949 . S
H742 C719 0.950 . S
H743 C721 0.950 . S
C744 C745 1.349 . S
C744 C746 1.327 . S
C744 H769 0.950 . S
C745 C744 1.349 . S
C745 C761 1.349 . S
C746 C744 1.327 . S
C746 C765 1.429 . S
C746 H770 0.950 . S
C747 C764 1.574 1_565 S
C747 C766 1.368 . S
C747 H771 0.949 . S
H748 C752 0.949 . S
C749 C750 1.349 . S
C749 C751 1.327 . S
C749 H772 0.950 . S
C750 C749 1.349 . S
C750 C762 1.349 . S
C751 C749 1.327 . S
C751 C767 1.429 . S
C751 H773 0.950 . S
C752 H748 0.949 . S
C752 C760 1.574 1_545 S
C752 C768 1.368 . S
H753 C761 0.950 . S
H754 C759 0.950 . S
H755 C760 0.949 . S
H756 C762 0.950 . S
H757 C763 0.950 . S
H758 C764 0.949 . S
C759 H754 0.950 . S
C759 C761 1.327 . S
C759 C765 1.429 . S
C760 C752 1.574 1_565 S
C760 H755 0.949 . S
C760 C766 1.368 . S
C761 C745 1.349 . S
C761 H753 0.950 . S
C761 C759 1.327 . S
C762 C750 1.349 . S
C762 H756 0.950 . S
C762 C763 1.327 . S
C763 H757 0.950 . S
C763 C762 1.327 . S
C763 C767 1.429 . S
C764 C747 1.574 1_545 S
C764 H758 0.949 . S
C764 C768 1.368 . S
C765 C746 1.429 . S
C765 C759 1.429 . S
C765 C766 1.523 . S
C766 C747 1.368 . S
C766 C760 1.368 . S
C766 C765 1.523 . S
C767 C751 1.429 . S
C767 C763 1.429 . S
C767 C768 1.523 . S
C768 C752 1.368 . S
C768 C764 1.368 . S
C768 C767 1.523 . S
H769 C744 0.950 . S
H770 C746 0.950 . S
H771 C747 0.949 . S
H772 C749 0.950 . S
H773 C751 0.950 . S
C774 C775 1.349 . S
C774 C776 1.327 . S
C774 H799 0.950 . S
C775 C774 1.349 . S
C775 C791 1.349 . S
C776 C774 1.327 . S
C776 C795 1.429 . S
C776 H800 0.950 . S
C777 C794 1.574 1_655 S
C777 C796 1.368 . S
C777 H801 0.949 . S
H778 C782 0.949 . S
C779 C780 1.349 . S
C779 C781 1.327 . S
C779 H802 0.950 . S
C780 C779 1.349 . S
C780 C792 1.349 . S
C781 C779 1.327 . S
C781 C797 1.429 . S
C781 H803 0.950 . S
C782 H778 0.949 . S
C782 C790 1.574 1_455 S
C782 C798 1.368 . S
H783 C791 0.950 . S
H784 C789 0.950 . S
H785 C790 0.949 . S
H786 C792 0.950 . S
H787 C793 0.950 . S
H788 C794 0.949 . S
C789 H784 0.950 . S
C789 C791 1.327 . S
C789 C795 1.429 . S
C790 C782 1.574 1_655 S
C790 H785 0.949 . S
C790 C796 1.368 . S
C791 C775 1.349 . S
C791 H783 0.950 . S
C791 C789 1.327 . S
C792 C780 1.349 . S
C792 H786 0.950 . S
C792 C793 1.327 . S
C793 H787 0.950 . S
C793 C792 1.327 . S
C793 C797 1.429 . S
C794 C777 1.574 1_455 S
C794 H788 0.949 . S
C794 C798 1.368 . S
C795 C776 1.429 . S
C795 C789 1.429 . S
C795 C796 1.523 . S
C796 C777 1.368 . S
C796 C790 1.368 . S
C796 C795 1.523 . S
C797 C781 1.429 . S
C797 C793 1.429 . S
C797 C798 1.523 . S
C798 C782 1.368 . S
C798 C794 1.368 . S
C798 C797 1.523 . S
H799 C774 0.950 . S
H800 C776 0.950 . S
H801 C777 0.949 . S
H802 C779 0.950 . S
H803 C781 0.950 . S
C804 C805 1.349 . S
C804 C806 1.327 . S
C804 H829 0.950 . S
C805 C804 1.349 . S
C805 C821 1.349 . S
C806 C804 1.327 . S
C806 C825 1.429 . S
C806 H830 0.950 . S
C807 C824 1.574 1_545 S
C807 C826 1.368 . S
C807 H831 0.949 . S
H808 C812 0.949 . S
C809 C810 1.349 . S
C809 C811 1.327 . S
C809 H832 0.950 . S
C810 C809 1.349 . S
C810 C822 1.349 . S
C811 C809 1.327 . S
C811 C827 1.429 . S
C811 H833 0.950 . S
C812 H808 0.949 . S
C812 C820 1.574 1_565 S
C812 C828 1.368 . S
H813 C821 0.950 . S
H814 C819 0.950 . S
H815 C820 0.949 . S
H816 C822 0.950 . S
H817 C823 0.950 . S
H818 C824 0.949 . S
C819 H814 0.950 . S
C819 C821 1.327 . S
C819 C825 1.429 . S
C820 C812 1.574 1_545 S
C820 H815 0.949 . S
C820 C826 1.368 . S
C821 C805 1.349 . S
C821 H813 0.950 . S
C821 C819 1.327 . S
C822 C810 1.349 . S
C822 H816 0.950 . S
C822 C823 1.327 . S
C823 H817 0.950 . S
C823 C822 1.327 . S
C823 C827 1.429 . S
C824 C807 1.574 1_565 S
C824 H818 0.949 . S
C824 C828 1.368 . S
C825 C806 1.429 . S
C825 C819 1.429 . S
C825 C826 1.523 . S
C826 C807 1.368 . S
C826 C820 1.368 . S
C826 C825 1.523 . S
C827 C811 1.429 . S
C827 C823 1.429 . S
C827 C828 1.523 . S
C828 C812 1.368 . S
C828 C824 1.368 . S
C828 C827 1.523 . S
H829 C804 0.950 . S
H830 C806 0.950 . S
H831 C807 0.949 . S
H832 C809 0.950 . S
H833 C811 0.950 . S
C834 C835 1.349 . S
C834 C836 1.327 . S
C834 H859 0.950 . S
C835 C834 1.349 . S
C835 C851 1.349 . S
C836 C834 1.327 . S
C836 C855 1.429 . S
C836 H860 0.950 . S
C837 C854 1.574 1_455 S
C837 C856 1.368 . S
C837 H861 0.949 . S
H838 C842 0.949 . S
C839 C840 1.349 . S
C839 C841 1.327 . S
C839 H862 0.950 . S
C840 C839 1.349 . S
C840 C852 1.349 . S
C841 C839 1.327 . S
C841 C857 1.429 . S
C841 H863 0.950 . S
C842 H838 0.949 . S
C842 C850 1.574 1_655 S
C842 C858 1.368 . S
H843 C851 0.950 . S
H844 C849 0.950 . S
H845 C850 0.949 . S
H846 C852 0.950 . S
H847 C853 0.950 . S
H848 C854 0.949 . S
C849 H844 0.950 . S
C849 C851 1.327 . S
C849 C855 1.429 . S
C850 C842 1.574 1_455 S
C850 H845 0.949 . S
C850 C856 1.368 . S
C851 C835 1.349 . S
C851 H843 0.950 . S
C851 C849 1.327 . S
C852 C840 1.349 . S
C852 H846 0.950 . S
C852 C853 1.327 . S
C853 H847 0.950 . S
C853 C852 1.327 . S
C853 C857 1.429 . S
C854 C837 1.574 1_655 S
C854 H848 0.949 . S
C854 C858 1.368 . S
C855 C836 1.429 . S
C855 C849 1.429 . S
C855 C856 1.523 . S
C856 C837 1.368 . S
C856 C850 1.368 . S
C856 C855 1.523 . S
C857 C841 1.429 . S
C857 C853 1.429 . S
C857 C858 1.523 . S
C858 C842 1.368 . S
C858 C854 1.368 . S
C858 C857 1.523 . S
H859 C834 0.950 . S
H860 C836 0.950 . S
H861 C837 0.949 . S
H862 C839 0.950 . S
H863 C841 0.950 . S
C864 C865 1.349 . S
C864 C866 1.327 . S
C864 H889 0.950 . S
C865 C864 1.349 . S
C865 C881 1.349 . S
C866 C864 1.327 . S
C866 C885 1.429 . S
C866 H890 0.950 . S
C867 C884 1.574 1_554 S
C867 C886 1.368 . S
C867 H891 0.949 . S
H868 C872 0.949 . S
C869 C870 1.349 . S
C869 C871 1.327 . S
C869 H892 0.950 . S
C870 C869 1.349 . S
C870 C882 1.349 . S
C871 C869 1.327 . S
C871 C887 1.429 . S
C871 H893 0.950 . S
C872 H868 0.949 . S
C872 C880 1.574 1_556 S
C872 C888 1.368 . S
H873 C881 0.950 . S
H874 C879 0.950 . S
H875 C880 0.949 . S
H876 C882 0.950 . S
H877 C883 0.950 . S
H878 C884 0.949 . S
C879 H874 0.950 . S
C879 C881 1.327 . S
C879 C885 1.429 . S
C880 C872 1.574 1_554 S
C880 H875 0.949 . S
C880 C886 1.368 . S
C881 C865 1.349 . S
C881 H873 0.950 . S
C881 C879 1.327 . S
C882 C870 1.349 . S
C882 H876 0.950 . S
C882 C883 1.327 . S
C883 H877 0.950 . S
C883 C882 1.327 . S
C883 C887 1.429 . S
C884 C867 1.574 1_556 S
C884 H878 0.949 . S
C884 C888 1.368 . S
C885 C866 1.429 . S
C885 C879 1.429 . S
C885 C886 1.523 . S
C886 C867 1.368 . S
C886 C880 1.368 . S
C886 C885 1.523 . S
C887 C871 1.429 . S
C887 C883 1.429 . S
C887 C888 1.523 . S
C888 C872 1.368 . S
C888 C884 1.368 . S
C888 C887 1.523 . S
H889 C864 0.950 . S
H890 C866 0.950 . S
H891 C867 0.949 . S
H892 C869 0.950 . S
H893 C871 0.950 . S
C894 C895 1.349 . S
C894 C896 1.327 . S
C894 H919 0.950 . S
C895 C894 1.349 . S
C895 C911 1.349 . S
C896 C894 1.327 . S
C896 C915 1.429 . S
C896 H920 0.950 . S
C897 C914 1.574 1_556 S
C897 C916 1.368 . S
C897 H921 0.949 . S
H898 C902 0.949 . S
C899 C900 1.349 . S
C899 C901 1.327 . S
C899 H922 0.950 . S
C900 C899 1.349 . S
C900 C912 1.349 . S
C901 C899 1.327 . S
C901 C917 1.429 . S
C901 H923 0.950 . S
C902 H898 0.949 . S
C902 C910 1.574 1_554 S
C902 C918 1.368 . S
H903 C911 0.950 . S
H904 C909 0.950 . S
H905 C910 0.949 . S
H906 C912 0.950 . S
H907 C913 0.950 . S
H908 C914 0.949 . S
C909 H904 0.950 . S
C909 C911 1.327 . S
C909 C915 1.429 . S
C910 C902 1.574 1_556 S
C910 H905 0.949 . S
C910 C916 1.368 . S
C911 C895 1.349 . S
C911 H903 0.950 . S
C911 C909 1.327 . S
C912 C900 1.349 . S
C912 H906 0.950 . S
C912 C913 1.327 . S
C913 H907 0.950 . S
C913 C912 1.327 . S
C913 C917 1.429 . S
C914 C897 1.574 1_554 S
C914 H908 0.949 . S
C914 C918 1.368 . S
C915 C896 1.429 . S
C915 C909 1.429 . S
C915 C916 1.523 . S
C916 C897 1.368 . S
C916 C910 1.368 . S
C916 C915 1.523 . S
C917 C901 1.429 . S
C917 C913 1.429 . S
C917 C918 1.523 . S
C918 C902 1.368 . S
C918 C914 1.368 . S
C918 C917 1.523 . S
H919 C894 0.950 . S
H920 C896 0.950 . S
H921 C897 0.949 . S
H922 C899 0.950 . S
H923 C901 0.950 . S
C924 C925 1.349 . S
C924 C926 1.327 . S
C924 H949 0.950 . S
C925 C924 1.349 . S
C925 C941 1.349 . S
C926 C924 1.327 . S
C926 C945 1.429 . S
C926 H950 0.950 . S
C927 C944 1.574 1_556 S
C927 C946 1.368 . S
C927 H951 0.949 . S
H928 C932 0.949 . S
C929 C930 1.349 . S
C929 C931 1.327 . S
C929 H952 0.950 . S
C930 C929 1.349 . S
C930 C942 1.349 . S
C931 C929 1.327 . S
C931 C947 1.429 . S
C931 H953 0.950 . S
C932 H928 0.949 . S
C932 C940 1.574 1_554 S
C932 C948 1.368 . S
H933 C941 0.950 . S
H934 C939 0.950 . S
H935 C940 0.949 . S
H936 C942 0.950 . S
H937 C943 0.950 . S
H938 C944 0.949 . S
C939 H934 0.950 . S
C939 C941 1.327 . S
C939 C945 1.429 . S
C940 C932 1.574 1_556 S
C940 H935 0.949 . S
C940 C946 1.368 . S
C941 C925 1.349 . S
C941 H933 0.950 . S
C941 C939 1.327 . S
C942 C930 1.349 . S
C942 H936 0.950 . S
C942 C943 1.327 . S
C943 H937 0.950 . S
C943 C942 1.327 . S
C943 C947 1.429 . S
C944 C927 1.574 1_554 S
C944 H938 0.949 . S
C944 C948 1.368 . S
C945 C926 1.429 . S
C945 C939 1.429 . S
C945 C946 1.523 . S
C946 C927 1.368 . S
C946 C940 1.368 . S
C946 C945 1.523 . S
C947 C931 1.429 . S
C947 C943 1.429 . S
C947 C948 1.523 . S
C948 C932 1.368 . S
C948 C944 1.368 . S
C948 C947 1.523 . S
H949 C924 0.950 . S
H950 C926 0.950 . S
H951 C927 0.949 . S
H952 C929 0.950 . S
H953 C931 0.950 . S
C954 C955 1.349 . S
C954 C956 1.327 . S
C954 H979 0.950 . S
C955 C954 1.349 . S
C955 C971 1.349 . S
C956 C954 1.327 . S
C956 C975 1.429 . S
C956 H980 0.950 . S
C957 C974 1.574 1_556 S
C957 C976 1.368 . S
C957 H981 0.949 . S
H958 C962 0.949 . S
C959 C960 1.349 . S
C959 C961 1.327 . S
C959 H982 0.950 . S
C960 C959 1.349 . S
C960 C972 1.349 . S
C961 C959 1.327 . S
C961 C977 1.429 . S
C961 H983 0.950 . S
C962 H958 0.949 . S
C962 C970 1.574 1_554 S
C962 C978 1.368 . S
H963 C971 0.950 . S
H964 C969 0.950 . S
H965 C970 0.949 . S
H966 C972 0.950 . S
H967 C973 0.950 . S
H968 C974 0.949 . S
C969 H964 0.950 . S
C969 C971 1.327 . S
C969 C975 1.429 . S
C970 C962 1.574 1_556 S
C970 H965 0.949 . S
C970 C976 1.368 . S
C971 C955 1.349 . S
C971 H963 0.950 . S
C971 C969 1.327 . S
C972 C960 1.349 . S
C972 H966 0.950 . S
C972 C973 1.327 . S
C973 H967 0.950 . S
C973 C972 1.327 . S
C973 C977 1.429 . S
C974 C957 1.574 1_554 S
C974 H968 0.949 . S
C974 C978 1.368 . S
C975 C956 1.429 . S
C975 C969 1.429 . S
C975 C976 1.523 . S
C976 C957 1.368 . S
C976 C970 1.368 . S
C976 C975 1.523 . S
C977 C961 1.429 . S
C977 C973 1.429 . S
C977 C978 1.523 . S
C978 C962 1.368 . S
C978 C974 1.368 . S
C978 C977 1.523 . S
H979 C954 0.950 . S
H980 C956 0.950 . S
H981 C957 0.949 . S
H982 C959 0.950 . S
H983 C961 0.950 . S
C984 C985 1.349 . S
C984 C986 1.327 . S
C984 H1009 0.950 . S
C985 C984 1.349 . S
C985 C1001 1.349 . S
C986 C984 1.327 . S
C986 C1005 1.429 . S
C986 H1010 0.950 . S
C987 C1004 1.574 1_554 S
C987 C1006 1.368 . S
C987 H1011 0.949 . S
H988 C992 0.949 . S
C989 C990 1.349 . S
C989 C991 1.327 . S
C989 H1012 0.950 . S
C990 C989 1.349 . S
C990 C1002 1.349 . S
C991 C989 1.327 . S
C991 C1007 1.429 . S
C991 H1013 0.950 . S
C992 H988 0.949 . S
C992 C1000 1.574 1_556 S
C992 C1008 1.368 . S
H993 C1001 0.950 . S
H994 C999 0.950 . S
H995 C1000 0.949 . S
H996 C1002 0.950 . S
H997 C1003 0.950 . S
H998 C1004 0.949 . S
C999 H994 0.950 . S
C999 C1001 1.327 . S
C999 C1005 1.429 . S
C1000 C992 1.574 1_554 S
C1000 H995 0.949 . S
C1000 C1006 1.368 . S
C1001 C985 1.349 . S
C1001 H993 0.950 . S
C1001 C999 1.327 . S
C1002 C990 1.349 . S
C1002 H996 0.950 . S
C1002 C1003 1.327 . S
C1003 H997 0.950 . S
C1003 C1002 1.327 . S
C1003 C1007 1.429 . S
C1004 C987 1.574 1_556 S
C1004 H998 0.949 . S
C1004 C1008 1.368 . S
C1005 C986 1.429 . S
C1005 C999 1.429 . S
C1005 C1006 1.523 . S
C1006 C987 1.368 . S
C1006 C1000 1.368 . S
C1006 C1005 1.523 . S
C1007 C991 1.429 . S
C1007 C1003 1.429 . S
C1007 C1008 1.523 . S
C1008 C992 1.368 . S
C1008 C1004 1.368 . S
C1008 C1007 1.523 . S
H1009 C984 0.950 . S
H1010 C986 0.950 . S
H1011 C987 0.949 . S
H1012 C989 0.950 . S
H1013 C991 0.950 . S
C1014 C1015 1.349 . S
C1014 C1016 1.327 . S
C1014 H1039 0.950 . S
C1015 C1014 1.349 . S
C1015 C1031 1.349 . S
C1016 C1014 1.327 . S
C1016 C1035 1.429 . S
C1016 H1040 0.950 . S
C1017 C1034 1.574 1_556 S
C1017 C1036 1.368 . S
C1017 H1041 0.949 . S
H1018 C1022 0.949 . S
C1019 C1020 1.349 . S
C1019 C1021 1.327 . S
C1019 H1042 0.950 . S
C1020 C1019 1.349 . S
C1020 C1032 1.349 . S
C1021 C1019 1.327 . S
C1021 C1037 1.429 . S
C1021 H1043 0.950 . S
C1022 H1018 0.949 . S
C1022 C1030 1.574 1_554 S
C1022 C1038 1.368 . S
H1023 C1031 0.950 . S
H1024 C1029 0.950 . S
H1025 C1030 0.949 . S
H1026 C1032 0.950 . S
H1027 C1033 0.950 . S
H1028 C1034 0.949 . S
C1029 H1024 0.950 . S
C1029 C1031 1.327 . S
C1029 C1035 1.429 . S
C1030 C1022 1.574 1_556 S
C1030 H1025 0.949 . S
C1030 C1036 1.368 . S
C1031 C1015 1.349 . S
C1031 H1023 0.950 . S
C1031 C1029 1.327 . S
C1032 C1020 1.349 . S
C1032 H1026 0.950 . S
C1032 C1033 1.327 . S
C1033 H1027 0.950 . S
C1033 C1032 1.327 . S
C1033 C1037 1.429 . S
C1034 C1017 1.574 1_554 S
C1034 H1028 0.949 . S
C1034 C1038 1.368 . S
C1035 C1016 1.429 . S
C1035 C1029 1.429 . S
C1035 C1036 1.523 . S
C1036 C1017 1.368 . S
C1036 C1030 1.368 . S
C1036 C1035 1.523 . S
C1037 C1021 1.429 . S
C1037 C1033 1.429 . S
C1037 C1038 1.523 . S
C1038 C1022 1.368 . S
C1038 C1034 1.368 . S
C1038 C1037 1.523 . S
H1039 C1014 0.950 . S
H1040 C1016 0.950 . S
H1041 C1017 0.949 . S
H1042 C1019 0.950 . S
H1043 C1021 0.950 . S
C1044 C1045 1.349 . S
C1044 C1046 1.327 . S
C1044 H1069 0.950 . S
C1045 C1044 1.349 . S
C1045 C1061 1.349 . S
C1046 C1044 1.327 . S
C1046 C1065 1.429 . S
C1046 H1070 0.950 . S
C1047 C1064 1.574 1_554 S
C1047 C1066 1.368 . S
C1047 H1071 0.949 . S
H1048 C1052 0.949 . S
C1049 C1050 1.349 . S
C1049 C1051 1.327 . S
C1049 H1072 0.950 . S
C1050 C1049 1.349 . S
C1050 C1062 1.349 . S
C1051 C1049 1.327 . S
C1051 C1067 1.429 . S
C1051 H1073 0.950 . S
C1052 H1048 0.949 . S
C1052 C1060 1.574 1_556 S
C1052 C1068 1.368 . S
H1053 C1061 0.950 . S
H1054 C1059 0.950 . S
H1055 C1060 0.949 . S
H1056 C1062 0.950 . S
H1057 C1063 0.950 . S
H1058 C1064 0.949 . S
C1059 H1054 0.950 . S
C1059 C1061 1.327 . S
C1059 C1065 1.429 . S
C1060 C1052 1.574 1_554 S
C1060 H1055 0.949 . S
C1060 C1066 1.368 . S
C1061 C1045 1.349 . S
C1061 H1053 0.950 . S
C1061 C1059 1.327 . S
C1062 C1050 1.349 . S
C1062 H1056 0.950 . S
C1062 C1063 1.327 . S
C1063 H1057 0.950 . S
C1063 C1062 1.327 . S
C1063 C1067 1.429 . S
C1064 C1047 1.574 1_556 S
C1064 H1058 0.949 . S
C1064 C1068 1.368 . S
C1065 C1046 1.429 . S
C1065 C1059 1.429 . S
C1065 C1066 1.523 . S
C1066 C1047 1.368 . S
C1066 C1060 1.368 . S
C1066 C1065 1.523 . S
C1067 C1051 1.429 . S
C1067 C1063 1.429 . S
C1067 C1068 1.523 . S
C1068 C1052 1.368 . S
C1068 C1064 1.368 . S
C1068 C1067 1.523 . S
H1069 C1044 0.950 . S
H1070 C1046 0.950 . S
H1071 C1047 0.949 . S
H1072 C1049 0.950 . S
H1073 C1051 0.950 . S
C1074 C1075 1.349 . S
C1074 C1076 1.327 . S
C1074 H1099 0.950 . S
C1075 C1074 1.349 . S
C1075 C1091 1.349 . S
C1076 C1074 1.327 . S
C1076 C1095 1.429 . S
C1076 H1100 0.950 . S
C1077 C1094 1.574 1_556 S
C1077 C1096 1.368 . S
C1077 H1101 0.949 . S
H1078 C1082 0.949 . S
C1079 C1080 1.349 . S
C1079 C1081 1.327 . S
C1079 H1102 0.950 . S
C1080 C1079 1.349 . S
C1080 C1092 1.349 . S
C1081 C1079 1.327 . S
C1081 C1097 1.429 . S
C1081 H1103 0.950 . S
C1082 H1078 0.949 . S
C1082 C1090 1.574 1_554 S
C1082 C1098 1.368 . S
H1083 C1091 0.950 . S
H1084 C1089 0.950 . S
H1085 C1090 0.949 . S
H1086 C1092 0.950 . S
H1087 C1093 0.950 . S
H1088 C1094 0.949 . S
C1089 H1084 0.950 . S
C1089 C1091 1.327 . S
C1089 C1095 1.429 . S
C1090 C1082 1.574 1_556 S
C1090 H1085 0.949 . S
C1090 C1096 1.368 . S
C1091 C1075 1.349 . S
C1091 H1083 0.950 . S
C1091 C1089 1.327 . S
C1092 C1080 1.349 . S
C1092 H1086 0.950 . S
C1092 C1093 1.327 . S
C1093 H1087 0.950 . S
C1093 C1092 1.327 . S
C1093 C1097 1.429 . S
C1094 C1077 1.574 1_554 S
C1094 H1088 0.949 . S
C1094 C1098 1.368 . S
C1095 C1076 1.429 . S
C1095 C1089 1.429 . S
C1095 C1096 1.523 . S
C1096 C1077 1.368 . S
C1096 C1090 1.368 . S
C1096 C1095 1.523 . S
C1097 C1081 1.429 . S
C1097 C1093 1.429 . S
C1097 C1098 1.523 . S
C1098 C1082 1.368 . S
C1098 C1094 1.368 . S
C1098 C1097 1.523 . S
H1099 C1074 0.950 . S
H1100 C1076 0.950 . S
H1101 C1077 0.949 . S
H1102 C1079 0.950 . S
H1103 C1081 0.950 . S
C1104 C1105 1.349 . S
C1104 C1106 1.327 . S
C1104 H1129 0.950 . S
C1105 C1104 1.349 . S
C1105 C1121 1.349 . S
C1106 C1104 1.327 . S
C1106 C1125 1.429 . S
C1106 H1130 0.950 . S
C1107 C1124 1.574 1_455 S
C1107 C1126 1.368 . S
C1107 H1131 0.949 . S
H1108 C1112 0.949 . S
C1109 C1110 1.349 . S
C1109 C1111 1.327 . S
C1109 H1132 0.950 . S
C1110 C1109 1.349 . S
C1110 C1122 1.349 . S
C1111 C1109 1.327 . S
C1111 C1127 1.429 . S
C1111 H1133 0.950 . S
C1112 H1108 0.949 . S
C1112 C1120 1.574 1_655 S
C1112 C1128 1.368 . S
H1113 C1121 0.950 . S
H1114 C1119 0.950 . S
H1115 C1120 0.949 . S
H1116 C1122 0.950 . S
H1117 C1123 0.950 . S
H1118 C1124 0.949 . S
C1119 H1114 0.950 . S
C1119 C1121 1.327 . S
C1119 C1125 1.429 . S
C1120 C1112 1.574 1_455 S
C1120 H1115 0.949 . S
C1120 C1126 1.368 . S
C1121 C1105 1.349 . S
C1121 H1113 0.950 . S
C1121 C1119 1.327 . S
C1122 C1110 1.349 . S
C1122 H1116 0.950 . S
C1122 C1123 1.327 . S
C1123 H1117 0.950 . S
C1123 C1122 1.327 . S
C1123 C1127 1.429 . S
C1124 C1107 1.574 1_655 S
C1124 H1118 0.949 . S
C1124 C1128 1.368 . S
C1125 C1106 1.429 . S
C1125 C1119 1.429 . S
C1125 C1126 1.523 . S
C1126 C1107 1.368 . S
C1126 C1120 1.368 . S
C1126 C1125 1.523 . S
C1127 C1111 1.429 . S
C1127 C1123 1.429 . S
C1127 C1128 1.523 . S
C1128 C1112 1.368 . S
C1128 C1124 1.368 . S
C1128 C1127 1.523 . S
H1129 C1104 0.950 . S
H1130 C1106 0.950 . S
H1131 C1107 0.949 . S
H1132 C1109 0.950 . S
H1133 C1111 0.950 . S
C1134 C1135 1.349 . S
C1134 C1136 1.327 . S
C1134 H1159 0.950 . S
C1135 C1134 1.349 . S
C1135 C1151 1.349 . S
C1136 C1134 1.327 . S
C1136 C1155 1.429 . S
C1136 H1160 0.950 . S
C1137 C1154 1.574 1_455 S
C1137 C1156 1.368 . S
C1137 H1161 0.949 . S
H1138 C1142 0.949 . S
C1139 C1140 1.349 . S
C1139 C1141 1.327 . S
C1139 H1162 0.950 . S
C1140 C1139 1.349 . S
C1140 C1152 1.349 . S
C1141 C1139 1.327 . S
C1141 C1157 1.429 . S
C1141 H1163 0.950 . S
C1142 H1138 0.949 . S
C1142 C1150 1.574 1_655 S
C1142 C1158 1.368 . S
H1143 C1151 0.950 . S
H1144 C1149 0.950 . S
H1145 C1150 0.949 . S
H1146 C1152 0.950 . S
H1147 C1153 0.950 . S
H1148 C1154 0.949 . S
C1149 H1144 0.950 . S
C1149 C1151 1.327 . S
C1149 C1155 1.429 . S
C1150 C1142 1.574 1_455 S
C1150 H1145 0.949 . S
C1150 C1156 1.368 . S
C1151 C1135 1.349 . S
C1151 H1143 0.950 . S
C1151 C1149 1.327 . S
C1152 C1140 1.349 . S
C1152 H1146 0.950 . S
C1152 C1153 1.327 . S
C1153 H1147 0.950 . S
C1153 C1152 1.327 . S
C1153 C1157 1.429 . S
C1154 C1137 1.574 1_655 S
C1154 H1148 0.949 . S
C1154 C1158 1.368 . S
C1155 C1136 1.429 . S
C1155 C1149 1.429 . S
C1155 C1156 1.523 . S
C1156 C1137 1.368 . S
C1156 C1150 1.368 . S
C1156 C1155 1.523 . S
C1157 C1141 1.429 . S
C1157 C1153 1.429 . S
C1157 C1158 1.523 . S
C1158 C1142 1.368 . S
C1158 C1154 1.368 . S
C1158 C1157 1.523 . S
H1159 C1134 0.950 . S
H1160 C1136 0.950 . S
H1161 C1137 0.949 . S
H1162 C1139 0.950 . S
H1163 C1141 0.950 . S
C1164 C1165 1.349 . S
C1164 C1166 1.327 . S
C1164 H1189 0.950 . S
C1165 C1164 1.349 . S
C1165 C1181 1.349 . S
C1166 C1164 1.327 . S
C1166 C1185 1.429 . S
C1166 H1190 0.950 . S
C1167 C1184 1.574 1_565 S
C1167 C1186 1.368 . S
C1167 H1191 0.949 . S
H1168 C1172 0.949 . S
C1169 C1170 1.349 . S
C1169 C1171 1.327 . S
C1169 H1192 0.950 . S
C1170 C1169 1.349 . S
C1170 C1182 1.349 . S
C1171 C1169 1.327 . S
C1171 C1187 1.429 . S
C1171 H1193 0.950 . S
C1172 H1168 0.949 . S
C1172 C1180 1.574 1_545 S
C1172 C1188 1.368 . S
H1173 C1181 0.950 . S
H1174 C1179 0.950 . S
H1175 C1180 0.949 . S
H1176 C1182 0.950 . S
H1177 C1183 0.950 . S
H1178 C1184 0.949 . S
C1179 H1174 0.950 . S
C1179 C1181 1.327 . S
C1179 C1185 1.429 . S
C1180 C1172 1.574 1_565 S
C1180 H1175 0.949 . S
C1180 C1186 1.368 . S
C1181 C1165 1.349 . S
C1181 H1173 0.950 . S
C1181 C1179 1.327 . S
C1182 C1170 1.349 . S
C1182 H1176 0.950 . S
C1182 C1183 1.327 . S
C1183 H1177 0.950 . S
C1183 C1182 1.327 . S
C1183 C1187 1.429 . S
C1184 C1167 1.574 1_545 S
C1184 H1178 0.949 . S
C1184 C1188 1.368 . S
C1185 C1166 1.429 . S
C1185 C1179 1.429 . S
C1185 C1186 1.523 . S
C1186 C1167 1.368 . S
C1186 C1180 1.368 . S
C1186 C1185 1.523 . S
C1187 C1171 1.429 . S
C1187 C1183 1.429 . S
C1187 C1188 1.523 . S
C1188 C1172 1.368 . S
C1188 C1184 1.368 . S
C1188 C1187 1.523 . S
H1189 C1164 0.950 . S
H1190 C1166 0.950 . S
H1191 C1167 0.949 . S
H1192 C1169 0.950 . S
H1193 C1171 0.950 . S
C1194 C1195 1.349 . S
C1194 C1196 1.327 . S
C1194 H1219 0.950 . S
C1195 C1194 1.349 . S
C1195 C1211 1.349 . S
C1196 C1194 1.327 . S
C1196 C1215 1.429 . S
C1196 H1220 0.950 . S
C1197 C1214 1.574 1_455 S
C1197 C1216 1.368 . S
C1197 H1221 0.949 . S
H1198 C1202 0.949 . S
C1199 C1200 1.349 . S
C1199 C1201 1.327 . S
C1199 H1222 0.950 . S
C1200 C1199 1.349 . S
C1200 C1212 1.349 . S
C1201 C1199 1.327 . S
C1201 C1217 1.429 . S
C1201 H1223 0.950 . S
C1202 H1198 0.949 . S
C1202 C1210 1.574 1_655 S
C1202 C1218 1.368 . S
H1203 C1211 0.950 . S
H1204 C1209 0.950 . S
H1205 C1210 0.949 . S
H1206 C1212 0.950 . S
H1207 C1213 0.950 . S
H1208 C1214 0.949 . S
C1209 H1204 0.950 . S
C1209 C1211 1.327 . S
C1209 C1215 1.429 . S
C1210 C1202 1.574 1_455 S
C1210 H1205 0.949 . S
C1210 C1216 1.368 . S
C1211 C1195 1.349 . S
C1211 H1203 0.950 . S
C1211 C1209 1.327 . S
C1212 C1200 1.349 . S
C1212 H1206 0.950 . S
C1212 C1213 1.327 . S
C1213 H1207 0.950 . S
C1213 C1212 1.327 . S
C1213 C1217 1.429 . S
C1214 C1197 1.574 1_655 S
C1214 H1208 0.949 . S
C1214 C1218 1.368 . S
C1215 C1196 1.429 . S
C1215 C1209 1.429 . S
C1215 C1216 1.523 . S
C1216 C1197 1.368 . S
C1216 C1210 1.368 . S
C1216 C1215 1.523 . S
C1217 C1201 1.429 . S
C1217 C1213 1.429 . S
C1217 C1218 1.523 . S
C1218 C1202 1.368 . S
C1218 C1214 1.368 . S
C1218 C1217 1.523 . S
H1219 C1194 0.950 . S
H1220 C1196 0.950 . S
H1221 C1197 0.949 . S
H1222 C1199 0.950 . S
H1223 C1201 0.950 . S
C1224 C1225 1.349 . S
C1224 C1226 1.327 . S
C1224 H1249 0.950 . S
C1225 C1224 1.349 . S
C1225 C1241 1.349 . S
C1226 C1224 1.327 . S
C1226 C1245 1.429 . S
C1226 H1250 0.950 . S
C1227 C1244 1.574 1_545 S
C1227 C1246 1.368 . S
C1227 H1251 0.949 . S
H1228 C1232 0.949 . S
C1229 C1230 1.349 . S
C1229 C1231 1.327 . S
C1229 H1252 0.950 . S
C1230 C1229 1.349 . S
C1230 C1242 1.349 . S
C1231 C1229 1.327 . S
C1231 C1247 1.429 . S
C1231 H1253 0.950 . S
C1232 H1228 0.949 . S
C1232 C1240 1.574 1_565 S
C1232 C1248 1.368 . S
H1233 C1241 0.950 . S
H1234 C1239 0.950 . S
H1235 C1240 0.949 . S
H1236 C1242 0.950 . S
H1237 C1243 0.950 . S
H1238 C1244 0.949 . S
C1239 H1234 0.950 . S
C1239 C1241 1.327 . S
C1239 C1245 1.429 . S
C1240 C1232 1.574 1_545 S
C1240 H1235 0.949 . S
C1240 C1246 1.368 . S
C1241 C1225 1.349 . S
C1241 H1233 0.950 . S
C1241 C1239 1.327 . S
C1242 C1230 1.349 . S
C1242 H1236 0.950 . S
C1242 C1243 1.327 . S
C1243 H1237 0.950 . S
C1243 C1242 1.327 . S
C1243 C1247 1.429 . S
C1244 C1227 1.574 1_565 S
C1244 H1238 0.949 . S
C1244 C1248 1.368 . S
C1245 C1226 1.429 . S
C1245 C1239 1.429 . S
C1245 C1246 1.523 . S
C1246 C1227 1.368 . S
C1246 C1240 1.368 . S
C1246 C1245 1.523 . S
C1247 C1231 1.429 . S
C1247 C1243 1.429 . S
C1247 C1248 1.523 . S
C1248 C1232 1.368 . S
C1248 C1244 1.368 . S
C1248 C1247 1.523 . S
H1249 C1224 0.950 . S
H1250 C1226 0.950 . S
H1251 C1227 0.949 . S
H1252 C1229 0.950 . S
H1253 C1231 0.950 . S
C1254 C1255 1.349 . S
C1254 C1256 1.327 . S
C1254 H1279 0.950 . S
C1255 C1254 1.349 . S
C1255 C1271 1.349 . S
C1256 C1254 1.327 . S
C1256 C1275 1.429 . S
C1256 H1280 0.950 . S
C1257 C1274 1.574 1_455 S
C1257 C1276 1.368 . S
C1257 H1281 0.949 . S
H1258 C1262 0.949 . S
C1259 C1260 1.349 . S
C1259 C1261 1.327 . S
C1259 H1282 0.950 . S
C1260 C1259 1.349 . S
C1260 C1272 1.349 . S
C1261 C1259 1.327 . S
C1261 C1277 1.429 . S
C1261 H1283 0.950 . S
C1262 H1258 0.949 . S
C1262 C1270 1.574 1_655 S
C1262 C1278 1.368 . S
H1263 C1271 0.950 . S
H1264 C1269 0.950 . S
H1265 C1270 0.949 . S
H1266 C1272 0.950 . S
H1267 C1273 0.950 . S
H1268 C1274 0.949 . S
C1269 H1264 0.950 . S
C1269 C1271 1.327 . S
C1269 C1275 1.429 . S
C1270 C1262 1.574 1_455 S
C1270 H1265 0.949 . S
C1270 C1276 1.368 . S
C1271 C1255 1.349 . S
C1271 H1263 0.950 . S
C1271 C1269 1.327 . S
C1272 C1260 1.349 . S
C1272 H1266 0.950 . S
C1272 C1273 1.327 . S
C1273 H1267 0.950 . S
C1273 C1272 1.327 . S
C1273 C1277 1.429 . S
C1274 C1257 1.574 1_655 S
C1274 H1268 0.949 . S
C1274 C1278 1.368 . S
C1275 C1256 1.429 . S
C1275 C1269 1.429 . S
C1275 C1276 1.523 . S
C1276 C1257 1.368 . S
C1276 C1270 1.368 . S
C1276 C1275 1.523 . S
C1277 C1261 1.429 . S
C1277 C1273 1.429 . S
C1277 C1278 1.523 . S
C1278 C1262 1.368 . S
C1278 C1274 1.368 . S
C1278 C1277 1.523 . S
H1279 C1254 0.950 . S
H1280 C1256 0.950 . S
H1281 C1257 0.949 . S
H1282 C1259 0.950 . S
H1283 C1261 0.950 . S
C1284 C1285 1.349 . S
C1284 C1286 1.327 . S
C1284 H1309 0.950 . S
C1285 C1284 1.349 . S
C1285 C1301 1.349 . S
C1286 C1284 1.327 . S
C1286 C1305 1.429 . S
C1286 H1310 0.950 . S
C1287 C1304 1.574 1_545 S
C1287 C1306 1.368 . S
C1287 H1311 0.949 . S
H1288 C1292 0.949 . S
C1289 C1290 1.349 . S
C1289 C1291 1.327 . S
C1289 H1312 0.950 . S
C1290 C1289 1.349 . S
C1290 C1302 1.349 . S
C1291 C1289 1.327 . S
C1291 C1307 1.429 . S
C1291 H1313 0.950 . S
C1292 H1288 0.949 . S
C1292 C1300 1.574 1_565 S
C1292 C1308 1.368 . S
H1293 C1301 0.950 . S
H1294 C1299 0.950 . S
H1295 C1300 0.949 . S
H1296 C1302 0.950 . S
H1297 C1303 0.950 . S
H1298 C1304 0.949 . S
C1299 H1294 0.950 . S
C1299 C1301 1.327 . S
C1299 C1305 1.429 . S
C1300 C1292 1.574 1_545 S
C1300 H1295 0.949 . S
C1300 C1306 1.368 . S
C1301 C1285 1.349 . S
C1301 H1293 0.950 . S
C1301 C1299 1.327 . S
C1302 C1290 1.349 . S
C1302 H1296 0.950 . S
C1302 C1303 1.327 . S
C1303 H1297 0.950 . S
C1303 C1302 1.327 . S
C1303 C1307 1.429 . S
C1304 C1287 1.574 1_565 S
C1304 H1298 0.949 . S
C1304 C1308 1.368 . S
C1305 C1286 1.429 . S
C1305 C1299 1.429 . S
C1305 C1306 1.523 . S
C1306 C1287 1.368 . S
C1306 C1300 1.368 . S
C1306 C1305 1.523 . S
C1307 C1291 1.429 . S
C1307 C1303 1.429 . S
C1307 C1308 1.523 . S
C1308 C1292 1.368 . S
C1308 C1304 1.368 . S
C1308 C1307 1.523 . S
H1309 C1284 0.950 . S
H1310 C1286 0.950 . S
H1311 C1287 0.949 . S
H1312 C1289 0.950 . S
H1313 C1291 0.950 . S
C1314 C1315 1.349 . S
C1314 C1316 1.327 . S
C1314 H1339 0.950 . S
C1315 C1314 1.349 . S
C1315 C1331 1.349 . S
C1316 C1314 1.327 . S
C1316 C1335 1.429 . S
C1316 H1340 0.950 . S
C1317 C1334 1.574 1_545 S
C1317 C1336 1.368 . S
C1317 H1341 0.949 . S
H1318 C1322 0.949 . S
C1319 C1320 1.349 . S
C1319 C1321 1.327 . S
C1319 H1342 0.950 . S
C1320 C1319 1.349 . S
C1320 C1332 1.349 . S
C1321 C1319 1.327 . S
C1321 C1337 1.429 . S
C1321 H1343 0.950 . S
C1322 H1318 0.949 . S
C1322 C1330 1.574 1_565 S
C1322 C1338 1.368 . S
H1323 C1331 0.950 . S
H1324 C1329 0.950 . S
H1325 C1330 0.949 . S
H1326 C1332 0.950 . S
H1327 C1333 0.950 . S
H1328 C1334 0.949 . S
C1329 H1324 0.950 . S
C1329 C1331 1.327 . S
C1329 C1335 1.429 . S
C1330 C1322 1.574 1_545 S
C1330 H1325 0.949 . S
C1330 C1336 1.368 . S
C1331 C1315 1.349 . S
C1331 H1323 0.950 . S
C1331 C1329 1.327 . S
C1332 C1320 1.349 . S
C1332 H1326 0.950 . S
C1332 C1333 1.327 . S
C1333 H1327 0.950 . S
C1333 C1332 1.327 . S
C1333 C1337 1.429 . S
C1334 C1317 1.574 1_565 S
C1334 H1328 0.949 . S
C1334 C1338 1.368 . S
C1335 C1316 1.429 . S
C1335 C1329 1.429 . S
C1335 C1336 1.523 . S
C1336 C1317 1.368 . S
C1336 C1330 1.368 . S
C1336 C1335 1.523 . S
C1337 C1321 1.429 . S
C1337 C1333 1.429 . S
C1337 C1338 1.523 . S
C1338 C1322 1.368 . S
C1338 C1334 1.368 . S
C1338 C1337 1.523 . S
H1339 C1314 0.950 . S
H1340 C1316 0.950 . S
H1341 C1317 0.949 . S
H1342 C1319 0.950 . S
H1343 C1321 0.950 . S
C1344 C1345 1.349 . S
C1344 C1346 1.327 . S
C1344 H1369 0.950 . S
C1345 C1344 1.349 . S
C1345 C1361 1.349 . S
C1346 C1344 1.327 . S
C1346 C1365 1.429 . S
C1346 H1370 0.950 . S
C1347 C1364 1.574 . S
C1347 C1366 1.368 . S
C1347 H1371 0.949 . S
H1348 C1352 0.949 . S
C1349 C1350 1.349 . S
C1349 C1351 1.327 . S
C1349 H1372 0.950 . S
C1350 C1349 1.349 . S
C1350 C1362 1.349 . S
C1351 C1349 1.327 . S
C1351 C1367 1.429 . S
C1351 H1373 0.950 . S
C1352 H1348 0.949 . S
C1352 C1360 1.574 . S
C1352 C1368 1.368 . S
H1353 C1361 0.950 . S
H1354 C1359 0.950 . S
H1355 C1360 0.949 . S
H1356 C1362 0.950 . S
H1357 C1363 0.950 . S
H1358 C1364 0.949 . S
C1359 H1354 0.950 . S
C1359 C1361 1.327 . S
C1359 C1365 1.429 . S
C1360 C1352 1.574 . S
C1360 H1355 0.949 . S
C1360 C1366 1.368 . S
C1361 C1345 1.349 . S
C1361 H1353 0.950 . S
C1361 C1359 1.327 . S
C1362 C1350 1.349 . S
C1362 H1356 0.950 . S
C1362 C1363 1.327 . S
C1363 H1357 0.950 . S
C1363 C1362 1.327 . S
C1363 C1367 1.429 . S
C1364 C1347 1.574 . S
C1364 H1358 0.949 . S
C1364 C1368 1.368 . S
C1365 C1346 1.429 . S
C1365 C1359 1.429 . S
C1365 C1366 1.523 . S
C1366 C1347 1.368 . S
C1366 C1360 1.368 . S
C1366 C1365 1.523 . S
C1367 C1351 1.429 . S
C1367 C1363 1.429 . S
C1367 C1368 1.523 . S
C1368 C1352 1.368 . S
C1368 C1364 1.368 . S
C1368 C1367 1.523 . S
H1369 C1344 0.950 . S
H1370 C1346 0.950 . S
H1371 C1347 0.949 . S
H1372 C1349 0.950 . S
H1373 C1351 0.950 . S
C1374 C1375 1.349 . S
C1374 C1376 1.327 . S
C1374 H1399 0.950 . S
C1375 C1374 1.349 . S
C1375 C1391 1.349 . S
C1376 C1374 1.327 . S
C1376 C1395 1.429 . S
C1376 H1400 0.950 . S
C1377 C1394 1.574 . S
C1377 C1396 1.368 . S
C1377 H1401 0.949 . S
H1378 C1382 0.949 . S
C1379 C1380 1.349 . S
C1379 C1381 1.327 . S
C1379 H1402 0.950 . S
C1380 C1379 1.349 . S
C1380 C1392 1.349 . S
C1381 C1379 1.327 . S
C1381 C1397 1.429 . S
C1381 H1403 0.950 . S
C1382 H1378 0.949 . S
C1382 C1390 1.574 . S
C1382 C1398 1.368 . S
H1383 C1391 0.950 . S
H1384 C1389 0.950 . S
H1385 C1390 0.949 . S
H1386 C1392 0.950 . S
H1387 C1393 0.950 . S
H1388 C1394 0.949 . S
C1389 H1384 0.950 . S
C1389 C1391 1.327 . S
C1389 C1395 1.429 . S
C1390 C1382 1.574 . S
C1390 H1385 0.949 . S
C1390 C1396 1.368 . S
C1391 C1375 1.349 . S
C1391 H1383 0.950 . S
C1391 C1389 1.327 . S
C1392 C1380 1.349 . S
C1392 H1386 0.950 . S
C1392 C1393 1.327 . S
C1393 H1387 0.950 . S
C1393 C1392 1.327 . S
C1393 C1397 1.429 . S
C1394 C1377 1.574 . S
C1394 H1388 0.949 . S
C1394 C1398 1.368 . S
C1395 C1376 1.429 . S
C1395 C1389 1.429 . S
C1395 C1396 1.523 . S
C1396 C1377 1.368 . S
C1396 C1390 1.368 . S
C1396 C1395 1.523 . S
C1397 C1381 1.429 . S
C1397 C1393 1.429 . S
C1397 C1398 1.523 . S
C1398 C1382 1.368 . S
C1398 C1394 1.368 . S
C1398 C1397 1.523 . S
H1399 C1374 0.950 . S
H1400 C1376 0.950 . S
H1401 C1377 0.949 . S
H1402 C1379 0.950 . S
H1403 C1381 0.950 . S
C1404 C1405 1.349 . S
C1404 C1406 1.327 . S
C1404 H1429 0.950 . S
C1405 C1404 1.349 . S
C1405 C1421 1.349 . S
C1406 C1404 1.327 . S
C1406 C1425 1.429 . S
C1406 H1430 0.950 . S
C1407 C1424 1.574 . S
C1407 C1426 1.368 . S
C1407 H1431 0.949 . S
H1408 C1412 0.949 . S
C1409 C1410 1.349 . S
C1409 C1411 1.327 . S
C1409 H1432 0.950 . S
C1410 C1409 1.349 . S
C1410 C1422 1.349 . S
C1411 C1409 1.327 . S
C1411 C1427 1.429 . S
C1411 H1433 0.950 . S
C1412 H1408 0.949 . S
C1412 C1420 1.574 . S
C1412 C1428 1.368 . S
H1413 C1421 0.950 . S
H1414 C1419 0.950 . S
H1415 C1420 0.949 . S
H1416 C1422 0.950 . S
H1417 C1423 0.950 . S
H1418 C1424 0.949 . S
C1419 H1414 0.950 . S
C1419 C1421 1.327 . S
C1419 C1425 1.429 . S
C1420 C1412 1.574 . S
C1420 H1415 0.949 . S
C1420 C1426 1.368 . S
C1421 C1405 1.349 . S
C1421 H1413 0.950 . S
C1421 C1419 1.327 . S
C1422 C1410 1.349 . S
C1422 H1416 0.950 . S
C1422 C1423 1.327 . S
C1423 H1417 0.950 . S
C1423 C1422 1.327 . S
C1423 C1427 1.429 . S
C1424 C1407 1.574 . S
C1424 H1418 0.949 . S
C1424 C1428 1.368 . S
C1425 C1406 1.429 . S
C1425 C1419 1.429 . S
C1425 C1426 1.523 . S
C1426 C1407 1.368 . S
C1426 C1420 1.368 . S
C1426 C1425 1.523 . S
C1427 C1411 1.429 . S
C1427 C1423 1.429 . S
C1427 C1428 1.523 . S
C1428 C1412 1.368 . S
C1428 C1424 1.368 . S
C1428 C1427 1.523 . S
H1429 C1404 0.950 . S
H1430 C1406 0.950 . S
H1431 C1407 0.949 . S
H1432 C1409 0.950 . S
H1433 C1411 0.950 . S
C1434 C1435 1.349 . S
C1434 C1436 1.327 . S
C1434 H1459 0.950 . S
C1435 C1434 1.349 . S
C1435 C1451 1.349 . S
C1436 C1434 1.327 . S
C1436 C1455 1.429 . S
C1436 H1460 0.950 . S
C1437 C1454 1.574 . S
C1437 C1456 1.368 . S
C1437 H1461 0.949 . S
H1438 C1442 0.949 . S
C1439 C1440 1.349 . S
C1439 C1441 1.327 . S
C1439 H1462 0.950 . S
C1440 C1439 1.349 . S
C1440 C1452 1.349 . S
C1441 C1439 1.327 . S
C1441 C1457 1.429 . S
C1441 H1463 0.950 . S
C1442 H1438 0.949 . S
C1442 C1450 1.574 . S
C1442 C1458 1.368 . S
H1443 C1451 0.950 . S
H1444 C1449 0.950 . S
H1445 C1450 0.949 . S
H1446 C1452 0.950 . S
H1447 C1453 0.950 . S
H1448 C1454 0.949 . S
C1449 H1444 0.950 . S
C1449 C1451 1.327 . S
C1449 C1455 1.429 . S
C1450 C1442 1.574 . S
C1450 H1445 0.949 . S
C1450 C1456 1.368 . S
C1451 C1435 1.349 . S
C1451 H1443 0.950 . S
C1451 C1449 1.327 . S
C1452 C1440 1.349 . S
C1452 H1446 0.950 . S
C1452 C1453 1.327 . S
C1453 H1447 0.950 . S
C1453 C1452 1.327 . S
C1453 C1457 1.429 . S
C1454 C1437 1.574 . S
C1454 H1448 0.949 . S
C1454 C1458 1.368 . S
C1455 C1436 1.429 . S
C1455 C1449 1.429 . S
C1455 C1456 1.523 . S
C1456 C1437 1.368 . S
C1456 C1450 1.368 . S
C1456 C1455 1.523 . S
C1457 C1441 1.429 . S
C1457 C1453 1.429 . S
C1457 C1458 1.523 . S
C1458 C1442 1.368 . S
C1458 C1454 1.368 . S
C1458 C1457 1.523 . S
H1459 C1434 0.950 . S
H1460 C1436 0.950 . S
H1461 C1437 0.949 . S
H1462 C1439 0.950 . S
H1463 C1441 0.950 . S
C1464 C1465 1.349 . S
C1464 C1466 1.327 . S
C1464 H1489 0.950 . S
C1465 C1464 1.349 . S
C1465 C1481 1.349 . S
C1466 C1464 1.327 . S
C1466 C1485 1.429 . S
C1466 H1490 0.950 . S
C1467 C1484 1.574 . S
C1467 C1486 1.368 . S
C1467 H1491 0.949 . S
H1468 C1472 0.949 . S
C1469 C1470 1.349 . S
C1469 C1471 1.327 . S
C1469 H1492 0.950 . S
C1470 C1469 1.349 . S
C1470 C1482 1.349 . S
C1471 C1469 1.327 . S
C1471 C1487 1.429 . S
C1471 H1493 0.950 . S
C1472 H1468 0.949 . S
C1472 C1480 1.574 . S
C1472 C1488 1.368 . S
H1473 C1481 0.950 . S
H1474 C1479 0.950 . S
H1475 C1480 0.949 . S
H1476 C1482 0.950 . S
H1477 C1483 0.950 . S
H1478 C1484 0.949 . S
C1479 H1474 0.950 . S
C1479 C1481 1.327 . S
C1479 C1485 1.429 . S
C1480 C1472 1.574 . S
C1480 H1475 0.949 . S
C1480 C1486 1.368 . S
C1481 C1465 1.349 . S
C1481 H1473 0.950 . S
C1481 C1479 1.327 . S
C1482 C1470 1.349 . S
C1482 H1476 0.950 . S
C1482 C1483 1.327 . S
C1483 H1477 0.950 . S
C1483 C1482 1.327 . S
C1483 C1487 1.429 . S
C1484 C1467 1.574 . S
C1484 H1478 0.949 . S
C1484 C1488 1.368 . S
C1485 C1466 1.429 . S
C1485 C1479 1.429 . S
C1485 C1486 1.523 . S
C1486 C1467 1.368 . S
C1486 C1480 1.368 . S
C1486 C1485 1.523 . S
C1487 C1471 1.429 . S
C1487 C1483 1.429 . S
C1487 C1488 1.523 . S
C1488 C1472 1.368 . S
C1488 C1484 1.368 . S
C1488 C1487 1.523 . S
H1489 C1464 0.950 . S
H1490 C1466 0.950 . S
H1491 C1467 0.949 . S
H1492 C1469 0.950 . S
H1493 C1471 0.950 . S
C1494 C1495 1.349 . S
C1494 C1496 1.327 . S
C1494 H1519 0.950 . S
C1495 C1494 1.349 . S
C1495 C1511 1.349 . S
C1496 C1494 1.327 . S
C1496 C1515 1.429 . S
C1496 H1520 0.950 . S
C1497 C1514 1.574 . S
C1497 C1516 1.368 . S
C1497 H1521 0.949 . S
H1498 C1502 0.949 . S
C1499 C1500 1.349 . S
C1499 C1501 1.327 . S
C1499 H1522 0.950 . S
C1500 C1499 1.349 . S
C1500 C1512 1.349 . S
C1501 C1499 1.327 . S
C1501 C1517 1.429 . S
C1501 H1523 0.950 . S
C1502 H1498 0.949 . S
C1502 C1510 1.574 . S
C1502 C1518 1.368 . S
H1503 C1511 0.950 . S
H1504 C1509 0.950 . S
H1505 C1510 0.949 . S
H1506 C1512 0.950 . S
H1507 C1513 0.950 . S
H1508 C1514 0.949 . S
C1509 H1504 0.950 . S
C1509 C1511 1.327 . S
C1509 C1515 1.429 . S
C1510 C1502 1.574 . S
C1510 H1505 0.949 . S
C1510 C1516 1.368 . S
C1511 C1495 1.349 . S
C1511 H1503 0.950 . S
C1511 C1509 1.327 . S
C1512 C1500 1.349 . S
C1512 H1506 0.950 . S
C1512 C1513 1.327 . S
C1513 H1507 0.950 . S
C1513 C1512 1.327 . S
C1513 C1517 1.429 . S
C1514 C1497 1.574 . S
C1514 H1508 0.949 . S
C1514 C1518 1.368 . S
C1515 C1496 1.429 . S
C1515 C1509 1.429 . S
C1515 C1516 1.523 . S
C1516 C1497 1.368 . S
C1516 C1510 1.368 . S
C1516 C1515 1.523 . S
C1517 C1501 1.429 . S
C1517 C1513 1.429 . S
C1517 C1518 1.523 . S
C1518 C1502 1.368 . S
C1518 C1514 1.368 . S
C1518 C1517 1.523 . S
H1519 C1494 0.950 . S
H1520 C1496 0.950 . S
H1521 C1497 0.949 . S
H1522 C1499 0.950 . S
H1523 C1501 0.950 . S
C1524 C1525 1.349 . S
C1524 C1526 1.327 . S
C1524 H1549 0.950 . S
C1525 C1524 1.349 . S
C1525 C1541 1.349 . S
C1526 C1524 1.327 . S
C1526 C1545 1.429 . S
C1526 H1550 0.950 . S
C1527 C1544 1.574 . S
C1527 C1546 1.368 . S
C1527 H1551 0.949 . S
H1528 C1532 0.949 . S
C1529 C1530 1.349 . S
C1529 C1531 1.327 . S
C1529 H1552 0.950 . S
C1530 C1529 1.349 . S
C1530 C1542 1.349 . S
C1531 C1529 1.327 . S
C1531 C1547 1.429 . S
C1531 H1553 0.950 . S
C1532 H1528 0.949 . S
C1532 C1540 1.574 . S
C1532 C1548 1.368 . S
H1533 C1541 0.950 . S
H1534 C1539 0.950 . S
H1535 C1540 0.949 . S
H1536 C1542 0.950 . S
H1537 C1543 0.950 . S
H1538 C1544 0.949 . S
C1539 H1534 0.950 . S
C1539 C1541 1.327 . S
C1539 C1545 1.429 . S
C1540 C1532 1.574 . S
C1540 H1535 0.949 . S
C1540 C1546 1.368 . S
C1541 C1525 1.349 . S
C1541 H1533 0.950 . S
C1541 C1539 1.327 . S
C1542 C1530 1.349 . S
C1542 H1536 0.950 . S
C1542 C1543 1.327 . S
C1543 H1537 0.950 . S
C1543 C1542 1.327 . S
C1543 C1547 1.429 . S
C1544 C1527 1.574 . S
C1544 H1538 0.949 . S
C1544 C1548 1.368 . S
C1545 C1526 1.429 . S
C1545 C1539 1.429 . S
C1545 C1546 1.523 . S
C1546 C1527 1.368 . S
C1546 C1540 1.368 . S
C1546 C1545 1.523 . S
C1547 C1531 1.429 . S
C1547 C1543 1.429 . S
C1547 C1548 1.523 . S
C1548 C1532 1.368 . S
C1548 C1544 1.368 . S
C1548 C1547 1.523 . S
H1549 C1524 0.950 . S
H1550 C1526 0.950 . S
H1551 C1527 0.949 . S
H1552 C1529 0.950 . S
H1553 C1531 0.950 . S
C1554 C1555 1.349 . S
C1554 C1556 1.327 . S
C1554 H1579 0.950 . S
C1555 C1554 1.349 . S
C1555 C1571 1.349 . S
C1556 C1554 1.327 . S
C1556 C1575 1.429 . S
C1556 H1580 0.950 . S
C1557 C1574 1.574 . S
C1557 C1576 1.368 . S
C1557 H1581 0.949 . S
H1558 C1562 0.949 . S
C1559 C1560 1.349 . S
C1559 C1561 1.327 . S
C1559 H1582 0.950 . S
C1560 C1559 1.349 . S
C1560 C1572 1.349 . S
C1561 C1559 1.327 . S
C1561 C1577 1.429 . S
C1561 H1583 0.950 . S
C1562 H1558 0.949 . S
C1562 C1570 1.574 . S
C1562 C1578 1.368 . S
H1563 C1571 0.950 . S
H1564 C1569 0.950 . S
H1565 C1570 0.949 . S
H1566 C1572 0.950 . S
H1567 C1573 0.950 . S
H1568 C1574 0.949 . S
C1569 H1564 0.950 . S
C1569 C1571 1.327 . S
C1569 C1575 1.429 . S
C1570 C1562 1.574 . S
C1570 H1565 0.949 . S
C1570 C1576 1.368 . S
C1571 C1555 1.349 . S
C1571 H1563 0.950 . S
C1571 C1569 1.327 . S
C1572 C1560 1.349 . S
C1572 H1566 0.950 . S
C1572 C1573 1.327 . S
C1573 H1567 0.950 . S
C1573 C1572 1.327 . S
C1573 C1577 1.429 . S
C1574 C1557 1.574 . S
C1574 H1568 0.949 . S
C1574 C1578 1.368 . S
C1575 C1556 1.429 . S
C1575 C1569 1.429 . S
C1575 C1576 1.523 . S
C1576 C1557 1.368 . S
C1576 C1570 1.368 . S
C1576 C1575 1.523 . S
C1577 C1561 1.429 . S
C1577 C1573 1.429 . S
C1577 C1578 1.523 . S
C1578 C1562 1.368 . S
C1578 C1574 1.368 . S
C1578 C1577 1.523 . S
H1579 C1554 0.950 . S
H1580 C1556 0.950 . S
H1581 C1557 0.949 . S
H1582 C1559 0.950 . S
H1583 C1561 0.950 . S
C1584 C1585 1.349 . S
C1584 C1586 1.327 . S
C1584 H1609 0.950 . S
C1585 C1584 1.349 . S
C1585 C1601 1.349 . S
C1586 C1584 1.327 . S
C1586 C1605 1.429 . S
C1586 H1610 0.950 . S
C1587 C1604 1.574 . S
C1587 C1606 1.368 . S
C1587 H1611 0.949 . S
H1588 C1592 0.949 . S
C1589 C1590 1.349 . S
C1589 C1591 1.327 . S
C1589 H1612 0.950 . S
C1590 C1589 1.349 . S
C1590 C1602 1.349 . S
C1591 C1589 1.327 . S
C1591 C1607 1.429 . S
C1591 H1613 0.950 . S
C1592 H1588 0.949 . S
C1592 C1600 1.574 . S
C1592 C1608 1.368 . S
H1593 C1601 0.950 . S
H1594 C1599 0.950 . S
H1595 C1600 0.949 . S
H1596 C1602 0.950 . S
H1597 C1603 0.950 . S
H1598 C1604 0.949 . S
C1599 H1594 0.950 . S
C1599 C1601 1.327 . S
C1599 C1605 1.429 . S
C1600 C1592 1.574 . S
C1600 H1595 0.949 . S
C1600 C1606 1.368 . S
C1601 C1585 1.349 . S
C1601 H1593 0.950 . S
C1601 C1599 1.327 . S
C1602 C1590 1.349 . S
C1602 H1596 0.950 . S
C1602 C1603 1.327 . S
C1603 H1597 0.950 . S
C1603 C1602 1.327 . S
C1603 C1607 1.429 . S
C1604 C1587 1.574 . S
C1604 H1598 0.949 . S
C1604 C1608 1.368 . S
C1605 C1586 1.429 . S
C1605 C1599 1.429 . S
C1605 C1606 1.523 . S
C1606 C1587 1.368 . S
C1606 C1600 1.368 . S
C1606 C1605 1.523 . S
C1607 C1591 1.429 . S
C1607 C1603 1.429 . S
C1607 C1608 1.523 . S
C1608 C1592 1.368 . S
C1608 C1604 1.368 . S
C1608 C1607 1.523 . S
H1609 C1584 0.950 . S
H1610 C1586 0.950 . S
H1611 C1587 0.949 . S
H1612 C1589 0.950 . S
H1613 C1591 0.950 . S
C1614 C1615 1.349 . S
C1614 C1616 1.327 . S
C1614 H1639 0.950 . S
C1615 C1614 1.349 . S
C1615 C1631 1.349 . S
C1616 C1614 1.327 . S
C1616 C1635 1.429 . S
C1616 H1640 0.950 . S
C1617 C1634 1.574 . S
C1617 C1636 1.368 . S
C1617 H1641 0.949 . S
H1618 C1622 0.949 . S
C1619 C1620 1.349 . S
C1619 C1621 1.327 . S
C1619 H1642 0.950 . S
C1620 C1619 1.349 . S
C1620 C1632 1.349 . S
C1621 C1619 1.327 . S
C1621 C1637 1.429 . S
C1621 H1643 0.950 . S
C1622 H1618 0.949 . S
C1622 C1630 1.574 . S
C1622 C1638 1.368 . S
H1623 C1631 0.950 . S
H1624 C1629 0.950 . S
H1625 C1630 0.949 . S
H1626 C1632 0.950 . S
H1627 C1633 0.950 . S
H1628 C1634 0.949 . S
C1629 H1624 0.950 . S
C1629 C1631 1.327 . S
C1629 C1635 1.429 . S
C1630 C1622 1.574 . S
C1630 H1625 0.949 . S
C1630 C1636 1.368 . S
C1631 C1615 1.349 . S
C1631 H1623 0.950 . S
C1631 C1629 1.327 . S
C1632 C1620 1.349 . S
C1632 H1626 0.950 . S
C1632 C1633 1.327 . S
C1633 H1627 0.950 . S
C1633 C1632 1.327 . S
C1633 C1637 1.429 . S
C1634 C1617 1.574 . S
C1634 H1628 0.949 . S
C1634 C1638 1.368 . S
C1635 C1616 1.429 . S
C1635 C1629 1.429 . S
C1635 C1636 1.523 . S
C1636 C1617 1.368 . S
C1636 C1630 1.368 . S
C1636 C1635 1.523 . S
C1637 C1621 1.429 . S
C1637 C1633 1.429 . S
C1637 C1638 1.523 . S
C1638 C1622 1.368 . S
C1638 C1634 1.368 . S
C1638 C1637 1.523 . S
H1639 C1614 0.950 . S
H1640 C1616 0.950 . S
H1641 C1617 0.949 . S
H1642 C1619 0.950 . S
H1643 C1621 0.950 . S
C1644 C1645 1.349 . S
C1644 C1646 1.327 . S
C1644 H1669 0.950 . S
C1645 C1644 1.349 . S
C1645 C1661 1.349 . S
C1646 C1644 1.327 . S
C1646 C1665 1.429 . S
C1646 H1670 0.950 . S
C1647 C1664 1.574 . S
C1647 C1666 1.368 . S
C1647 H1671 0.949 . S
H1648 C1652 0.949 . S
C1649 C1650 1.349 . S
C1649 C1651 1.327 . S
C1649 H1672 0.950 . S
C1650 C1649 1.349 . S
C1650 C1662 1.349 . S
C1651 C1649 1.327 . S
C1651 C1667 1.429 . S
C1651 H1673 0.950 . S
C1652 H1648 0.949 . S
C1652 C1660 1.574 . S
C1652 C1668 1.368 . S
H1653 C1661 0.950 . S
H1654 C1659 0.950 . S
H1655 C1660 0.949 . S
H1656 C1662 0.950 . S
H1657 C1663 0.950 . S
H1658 C1664 0.949 . S
C1659 H1654 0.950 . S
C1659 C1661 1.327 . S
C1659 C1665 1.429 . S
C1660 C1652 1.574 . S
C1660 H1655 0.949 . S
C1660 C1666 1.368 . S
C1661 C1645 1.349 . S
C1661 H1653 0.950 . S
C1661 C1659 1.327 . S
C1662 C1650 1.349 . S
C1662 H1656 0.950 . S
C1662 C1663 1.327 . S
C1663 H1657 0.950 . S
C1663 C1662 1.327 . S
C1663 C1667 1.429 . S
C1664 C1647 1.574 . S
C1664 H1658 0.949 . S
C1664 C1668 1.368 . S
C1665 C1646 1.429 . S
C1665 C1659 1.429 . S
C1665 C1666 1.523 . S
C1666 C1647 1.368 . S
C1666 C1660 1.368 . S
C1666 C1665 1.523 . S
C1667 C1651 1.429 . S
C1667 C1663 1.429 . S
C1667 C1668 1.523 . S
C1668 C1652 1.368 . S
C1668 C1664 1.368 . S
C1668 C1667 1.523 . S
H1669 C1644 0.950 . S
H1670 C1646 0.950 . S
H1671 C1647 0.949 . S
H1672 C1649 0.950 . S
H1673 C1651 0.950 . S
C1674 C1675 1.349 . S
C1674 C1676 1.327 . S
C1674 H1699 0.950 . S
C1675 C1674 1.349 . S
C1675 C1691 1.349 . S
C1676 C1674 1.327 . S
C1676 C1695 1.429 . S
C1676 H1700 0.950 . S
C1677 C1694 1.574 . S
C1677 C1696 1.368 . S
C1677 H1701 0.949 . S
H1678 C1682 0.949 . S
C1679 C1680 1.349 . S
C1679 C1681 1.327 . S
C1679 H1702 0.950 . S
C1680 C1679 1.349 . S
C1680 C1692 1.349 . S
C1681 C1679 1.327 . S
C1681 C1697 1.429 . S
C1681 H1703 0.950 . S
C1682 H1678 0.949 . S
C1682 C1690 1.574 . S
C1682 C1698 1.368 . S
H1683 C1691 0.950 . S
H1684 C1689 0.950 . S
H1685 C1690 0.949 . S
H1686 C1692 0.950 . S
H1687 C1693 0.950 . S
H1688 C1694 0.949 . S
C1689 H1684 0.950 . S
C1689 C1691 1.327 . S
C1689 C1695 1.429 . S
C1690 C1682 1.574 . S
C1690 H1685 0.949 . S
C1690 C1696 1.368 . S
C1691 C1675 1.349 . S
C1691 H1683 0.950 . S
C1691 C1689 1.327 . S
C1692 C1680 1.349 . S
C1692 H1686 0.950 . S
C1692 C1693 1.327 . S
C1693 H1687 0.950 . S
C1693 C1692 1.327 . S
C1693 C1697 1.429 . S
C1694 C1677 1.574 . S
C1694 H1688 0.949 . S
C1694 C1698 1.368 . S
C1695 C1676 1.429 . S
C1695 C1689 1.429 . S
C1695 C1696 1.523 . S
C1696 C1677 1.368 . S
C1696 C1690 1.368 . S
C1696 C1695 1.523 . S
C1697 C1681 1.429 . S
C1697 C1693 1.429 . S
C1697 C1698 1.523 . S
C1698 C1682 1.368 . S
C1698 C1694 1.368 . S
C1698 C1697 1.523 . S
H1699 C1674 0.950 . S
H1700 C1676 0.950 . S
H1701 C1677 0.949 . S
H1702 C1679 0.950 . S
H1703 C1681 0.950 . S
C1704 C1705 1.349 . S
C1704 C1706 1.327 . S
C1704 H1729 0.950 . S
C1705 C1704 1.349 . S
C1705 C1721 1.349 . S
C1706 C1704 1.327 . S
C1706 C1725 1.429 . S
C1706 H1730 0.950 . S
C1707 C1724 1.574 . S
C1707 C1726 1.368 . S
C1707 H1731 0.949 . S
H1708 C1712 0.949 . S
C1709 C1710 1.349 . S
C1709 C1711 1.327 . S
C1709 H1732 0.950 . S
C1710 C1709 1.349 . S
C1710 C1722 1.349 . S
C1711 C1709 1.327 . S
C1711 C1727 1.429 . S
C1711 H1733 0.950 . S
C1712 H1708 0.949 . S
C1712 C1720 1.574 . S
C1712 C1728 1.368 . S
H1713 C1721 0.950 . S
H1714 C1719 0.950 . S
H1715 C1720 0.949 . S
H1716 C1722 0.950 . S
H1717 C1723 0.950 . S
H1718 C1724 0.949 . S
C1719 H1714 0.950 . S
C1719 C1721 1.327 . S
C1719 C1725 1.429 . S
C1720 C1712 1.574 . S
C1720 H1715 0.949 . S
C1720 C1726 1.368 . S
C1721 C1705 1.349 . S
C1721 H1713 0.950 . S
C1721 C1719 1.327 . S
C1722 C1710 1.349 . S
C1722 H1716 0.950 . S
C1722 C1723 1.327 . S
C1723 H1717 0.950 . S
C1723 C1722 1.327 . S
C1723 C1727 1.429 . S
C1724 C1707 1.574 . S
C1724 H1718 0.949 . S
C1724 C1728 1.368 . S
C1725 C1706 1.429 . S
C1725 C1719 1.429 . S
C1725 C1726 1.523 . S
C1726 C1707 1.368 . S
C1726 C1720 1.368 . S
C1726 C1725 1.523 . S
C1727 C1711 1.429 . S
C1727 C1723 1.429 . S
C1727 C1728 1.523 . S
C1728 C1712 1.368 . S
C1728 C1724 1.368 . S
C1728 C1727 1.523 . S
H1729 C1704 0.950 . S
H1730 C1706 0.950 . S
H1731 C1707 0.949 . S
H1732 C1709 0.950 . S
H1733 C1711 0.950 . S
C1734 C1735 1.349 . S
C1734 C1736 1.327 . S
C1734 H1759 0.950 . S
C1735 C1734 1.349 . S
C1735 C1751 1.349 . S
C1736 C1734 1.327 . S
C1736 C1755 1.429 . S
C1736 H1760 0.950 . S
C1737 C1754 1.574 . S
C1737 C1756 1.368 . S
C1737 H1761 0.949 . S
H1738 C1742 0.949 . S
C1739 C1740 1.349 . S
C1739 C1741 1.327 . S
C1739 H1762 0.950 . S
C1740 C1739 1.349 . S
C1740 C1752 1.349 . S
C1741 C1739 1.327 . S
C1741 C1757 1.429 . S
C1741 H1763 0.950 . S
C1742 H1738 0.949 . S
C1742 C1750 1.574 . S
C1742 C1758 1.368 . S
H1743 C1751 0.950 . S
H1744 C1749 0.950 . S
H1745 C1750 0.949 . S
H1746 C1752 0.950 . S
H1747 C1753 0.950 . S
H1748 C1754 0.949 . S
C1749 H1744 0.950 . S
C1749 C1751 1.327 . S
C1749 C1755 1.429 . S
C1750 C1742 1.574 . S
C1750 H1745 0.949 . S
C1750 C1756 1.368 . S
C1751 C1735 1.349 . S
C1751 H1743 0.950 . S
C1751 C1749 1.327 . S
C1752 C1740 1.349 . S
C1752 H1746 0.950 . S
C1752 C1753 1.327 . S
C1753 H1747 0.950 . S
C1753 C1752 1.327 . S
C1753 C1757 1.429 . S
C1754 C1737 1.574 . S
C1754 H1748 0.949 . S
C1754 C1758 1.368 . S
C1755 C1736 1.429 . S
C1755 C1749 1.429 . S
C1755 C1756 1.523 . S
C1756 C1737 1.368 . S
C1756 C1750 1.368 . S
C1756 C1755 1.523 . S
C1757 C1741 1.429 . S
C1757 C1753 1.429 . S
C1757 C1758 1.523 . S
C1758 C1742 1.368 . S
C1758 C1754 1.368 . S
C1758 C1757 1.523 . S
H1759 C1734 0.950 . S
H1760 C1736 0.950 . S
H1761 C1737 0.949 . S
H1762 C1739 0.950 . S
H1763 C1741 0.950 . S
C1764 C1765 1.349 . S
C1764 C1766 1.327 . S
C1764 H1789 0.950 . S
C1765 C1764 1.349 . S
C1765 C1781 1.349 . S
C1766 C1764 1.327 . S
C1766 C1785 1.429 . S
C1766 H1790 0.950 . S
C1767 C1784 1.574 . S
C1767 C1786 1.368 . S
C1767 H1791 0.949 . S
H1768 C1772 0.949 . S
C1769 C1770 1.349 . S
C1769 C1771 1.327 . S
C1769 H1792 0.950 . S
C1770 C1769 1.349 . S
C1770 C1782 1.349 . S
C1771 C1769 1.327 . S
C1771 C1787 1.429 . S
C1771 H1793 0.950 . S
C1772 H1768 0.949 . S
C1772 C1780 1.574 . S
C1772 C1788 1.368 . S
H1773 C1781 0.950 . S
H1774 C1779 0.950 . S
H1775 C1780 0.949 . S
H1776 C1782 0.950 . S
H1777 C1783 0.950 . S
H1778 C1784 0.949 . S
C1779 H1774 0.950 . S
C1779 C1781 1.327 . S
C1779 C1785 1.429 . S
C1780 C1772 1.574 . S
C1780 H1775 0.949 . S
C1780 C1786 1.368 . S
C1781 C1765 1.349 . S
C1781 H1773 0.950 . S
C1781 C1779 1.327 . S
C1782 C1770 1.349 . S
C1782 H1776 0.950 . S
C1782 C1783 1.327 . S
C1783 H1777 0.950 . S
C1783 C1782 1.327 . S
C1783 C1787 1.429 . S
C1784 C1767 1.574 . S
C1784 H1778 0.949 . S
C1784 C1788 1.368 . S
C1785 C1766 1.429 . S
C1785 C1779 1.429 . S
C1785 C1786 1.523 . S
C1786 C1767 1.368 . S
C1786 C1780 1.368 . S
C1786 C1785 1.523 . S
C1787 C1771 1.429 . S
C1787 C1783 1.429 . S
C1787 C1788 1.523 . S
C1788 C1772 1.368 . S
C1788 C1784 1.368 . S
C1788 C1787 1.523 . S
H1789 C1764 0.950 . S
H1790 C1766 0.950 . S
H1791 C1767 0.949 . S
H1792 C1769 0.950 . S
H1793 C1771 0.950 . S
C1794 C1795 1.349 . S
C1794 C1796 1.327 . S
C1794 H1819 0.950 . S
C1795 C1794 1.349 . S
C1795 C1811 1.349 . S
C1796 C1794 1.327 . S
C1796 C1815 1.429 . S
C1796 H1820 0.950 . S
C1797 C1814 1.574 . S
C1797 C1816 1.368 . S
C1797 H1821 0.949 . S
H1798 C1802 0.949 . S
C1799 C1800 1.349 . S
C1799 C1801 1.327 . S
C1799 H1822 0.950 . S
C1800 C1799 1.349 . S
C1800 C1812 1.349 . S
C1801 C1799 1.327 . S
C1801 C1817 1.429 . S
C1801 H1823 0.950 . S
C1802 H1798 0.949 . S
C1802 C1810 1.574 . S
C1802 C1818 1.368 . S
H1803 C1811 0.950 . S
H1804 C1809 0.950 . S
H1805 C1810 0.949 . S
H1806 C1812 0.950 . S
H1807 C1813 0.950 . S
H1808 C1814 0.949 . S
C1809 H1804 0.950 . S
C1809 C1811 1.327 . S
C1809 C1815 1.429 . S
C1810 C1802 1.574 . S
C1810 H1805 0.949 . S
C1810 C1816 1.368 . S
C1811 C1795 1.349 . S
C1811 H1803 0.950 . S
C1811 C1809 1.327 . S
C1812 C1800 1.349 . S
C1812 H1806 0.950 . S
C1812 C1813 1.327 . S
C1813 H1807 0.950 . S
C1813 C1812 1.327 . S
C1813 C1817 1.429 . S
C1814 C1797 1.574 . S
C1814 H1808 0.949 . S
C1814 C1818 1.368 . S
C1815 C1796 1.429 . S
C1815 C1809 1.429 . S
C1815 C1816 1.523 . S
C1816 C1797 1.368 . S
C1816 C1810 1.368 . S
C1816 C1815 1.523 . S
C1817 C1801 1.429 . S
C1817 C1813 1.429 . S
C1817 C1818 1.523 . S
C1818 C1802 1.368 . S
C1818 C1814 1.368 . S
C1818 C1817 1.523 . S
H1819 C1794 0.950 . S
H1820 C1796 0.950 . S
H1821 C1797 0.949 . S
H1822 C1799 0.950 . S
H1823 C1801 0.950 . S
C1824 C1825 1.349 . S
C1824 C1826 1.327 . S
C1824 H1849 0.950 . S
C1825 C1824 1.349 . S
C1825 C1841 1.349 . S
C1826 C1824 1.327 . S
C1826 C1845 1.429 . S
C1826 H1850 0.950 . S
C1827 C1844 1.574 . S
C1827 C1846 1.368 . S
C1827 H1851 0.949 . S
H1828 C1832 0.949 . S
C1829 C1830 1.349 . S
C1829 C1831 1.327 . S
C1829 H1852 0.950 . S
C1830 C1829 1.349 . S
C1830 C1842 1.349 . S
C1831 C1829 1.327 . S
C1831 C1847 1.429 . S
C1831 H1853 0.950 . S
C1832 H1828 0.949 . S
C1832 C1840 1.574 . S
C1832 C1848 1.368 . S
H1833 C1841 0.950 . S
H1834 C1839 0.950 . S
H1835 C1840 0.949 . S
H1836 C1842 0.950 . S
H1837 C1843 0.950 . S
H1838 C1844 0.949 . S
C1839 H1834 0.950 . S
C1839 C1841 1.327 . S
C1839 C1845 1.429 . S
C1840 C1832 1.574 . S
C1840 H1835 0.949 . S
C1840 C1846 1.368 . S
C1841 C1825 1.349 . S
C1841 H1833 0.950 . S
C1841 C1839 1.327 . S
C1842 C1830 1.349 . S
C1842 H1836 0.950 . S
C1842 C1843 1.327 . S
C1843 H1837 0.950 . S
C1843 C1842 1.327 . S
C1843 C1847 1.429 . S
C1844 C1827 1.574 . S
C1844 H1838 0.949 . S
C1844 C1848 1.368 . S
C1845 C1826 1.429 . S
C1845 C1839 1.429 . S
C1845 C1846 1.523 . S
C1846 C1827 1.368 . S
C1846 C1840 1.368 . S
C1846 C1845 1.523 . S
C1847 C1831 1.429 . S
C1847 C1843 1.429 . S
C1847 C1848 1.523 . S
C1848 C1832 1.368 . S
C1848 C1844 1.368 . S
C1848 C1847 1.523 . S
H1849 C1824 0.950 . S
H1850 C1826 0.950 . S
H1851 C1827 0.949 . S
H1852 C1829 0.950 . S
H1853 C1831 0.950 . S
C1854 C1855 1.349 . S
C1854 C1856 1.327 . S
C1854 H1879 0.950 . S
C1855 C1854 1.349 . S
C1855 C1871 1.349 . S
C1856 C1854 1.327 . S
C1856 C1875 1.429 . S
C1856 H1880 0.950 . S
C1857 C1874 1.574 . S
C1857 C1876 1.368 . S
C1857 H1881 0.949 . S
H1858 C1862 0.949 . S
C1859 C1860 1.349 . S
C1859 C1861 1.327 . S
C1859 H1882 0.950 . S
C1860 C1859 1.349 . S
C1860 C1872 1.349 . S
C1861 C1859 1.327 . S
C1861 C1877 1.429 . S
C1861 H1883 0.950 . S
C1862 H1858 0.949 . S
C1862 C1870 1.574 . S
C1862 C1878 1.368 . S
H1863 C1871 0.950 . S
H1864 C1869 0.950 . S
H1865 C1870 0.949 . S
H1866 C1872 0.950 . S
H1867 C1873 0.950 . S
H1868 C1874 0.949 . S
C1869 H1864 0.950 . S
C1869 C1871 1.327 . S
C1869 C1875 1.429 . S
C1870 C1862 1.574 . S
C1870 H1865 0.949 . S
C1870 C1876 1.368 . S
C1871 C1855 1.349 . S
C1871 H1863 0.950 . S
C1871 C1869 1.327 . S
C1872 C1860 1.349 . S
C1872 H1866 0.950 . S
C1872 C1873 1.327 . S
C1873 H1867 0.950 . S
C1873 C1872 1.327 . S
C1873 C1877 1.429 . S
C1874 C1857 1.574 . S
C1874 H1868 0.949 . S
C1874 C1878 1.368 . S
C1875 C1856 1.429 . S
C1875 C1869 1.429 . S
C1875 C1876 1.523 . S
C1876 C1857 1.368 . S
C1876 C1870 1.368 . S
C1876 C1875 1.523 . S
C1877 C1861 1.429 . S
C1877 C1873 1.429 . S
C1877 C1878 1.523 . S
C1878 C1862 1.368 . S
C1878 C1874 1.368 . S
C1878 C1877 1.523 . S
H1879 C1854 0.950 . S
H1880 C1856 0.950 . S
H1881 C1857 0.949 . S
H1882 C1859 0.950 . S
H1883 C1861 0.950 . S
C1884 C1885 1.349 . S
C1884 C1886 1.327 . S
C1884 H1909 0.950 . S
C1885 C1884 1.349 . S
C1885 C1901 1.349 . S
C1886 C1884 1.327 . S
C1886 C1905 1.429 . S
C1886 H1910 0.950 . S
C1887 C1904 1.574 . S
C1887 C1906 1.368 . S
C1887 H1911 0.949 . S
H1888 C1892 0.949 . S
C1889 C1890 1.349 . S
C1889 C1891 1.327 . S
C1889 H1912 0.950 . S
C1890 C1889 1.349 . S
C1890 C1902 1.349 . S
C1891 C1889 1.327 . S
C1891 C1907 1.429 . S
C1891 H1913 0.950 . S
C1892 H1888 0.949 . S
C1892 C1900 1.574 . S
C1892 C1908 1.368 . S
H1893 C1901 0.950 . S
H1894 C1899 0.950 . S
H1895 C1900 0.949 . S
H1896 C1902 0.950 . S
H1897 C1903 0.950 . S
H1898 C1904 0.949 . S
C1899 H1894 0.950 . S
C1899 C1901 1.327 . S
C1899 C1905 1.429 . S
C1900 C1892 1.574 . S
C1900 H1895 0.949 . S
C1900 C1906 1.368 . S
C1901 C1885 1.349 . S
C1901 H1893 0.950 . S
C1901 C1899 1.327 . S
C1902 C1890 1.349 . S
C1902 H1896 0.950 . S
C1902 C1903 1.327 . S
C1903 H1897 0.950 . S
C1903 C1902 1.327 . S
C1903 C1907 1.429 . S
C1904 C1887 1.574 . S
C1904 H1898 0.949 . S
C1904 C1908 1.368 . S
C1905 C1886 1.429 . S
C1905 C1899 1.429 . S
C1905 C1906 1.523 . S
C1906 C1887 1.368 . S
C1906 C1900 1.368 . S
C1906 C1905 1.523 . S
C1907 C1891 1.429 . S
C1907 C1903 1.429 . S
C1907 C1908 1.523 . S
C1908 C1892 1.368 . S
C1908 C1904 1.368 . S
C1908 C1907 1.523 . S
H1909 C1884 0.950 . S
H1910 C1886 0.950 . S
H1911 C1887 0.949 . S
H1912 C1889 0.950 . S
H1913 C1891 0.950 . S
C1914 C1915 1.349 . S
C1914 C1916 1.327 . S
C1914 H1939 0.950 . S
C1915 C1914 1.349 . S
C1915 C1931 1.349 . S
C1916 C1914 1.327 . S
C1916 C1935 1.429 . S
C1916 H1940 0.950 . S
C1917 C1934 1.574 . S
C1917 C1936 1.368 . S
C1917 H1941 0.949 . S
H1918 C1922 0.949 . S
C1919 C1920 1.349 . S
C1919 C1921 1.327 . S
C1919 H1942 0.950 . S
C1920 C1919 1.349 . S
C1920 C1932 1.349 . S
C1921 C1919 1.327 . S
C1921 C1937 1.429 . S
C1921 H1943 0.950 . S
C1922 H1918 0.949 . S
C1922 C1930 1.574 . S
C1922 C1938 1.368 . S
H1923 C1931 0.950 . S
H1924 C1929 0.950 . S
H1925 C1930 0.949 . S
H1926 C1932 0.950 . S
H1927 C1933 0.950 . S
H1928 C1934 0.949 . S
C1929 H1924 0.950 . S
C1929 C1931 1.327 . S
C1929 C1935 1.429 . S
C1930 C1922 1.574 . S
C1930 H1925 0.949 . S
C1930 C1936 1.368 . S
C1931 C1915 1.349 . S
C1931 H1923 0.950 . S
C1931 C1929 1.327 . S
C1932 C1920 1.349 . S
C1932 H1926 0.950 . S
C1932 C1933 1.327 . S
C1933 H1927 0.950 . S
C1933 C1932 1.327 . S
C1933 C1937 1.429 . S
C1934 C1917 1.574 . S
C1934 H1928 0.949 . S
C1934 C1938 1.368 . S
C1935 C1916 1.429 . S
C1935 C1929 1.429 . S
C1935 C1936 1.523 . S
C1936 C1917 1.368 . S
C1936 C1930 1.368 . S
C1936 C1935 1.523 . S
C1937 C1921 1.429 . S
C1937 C1933 1.429 . S
C1937 C1938 1.523 . S
C1938 C1922 1.368 . S
C1938 C1934 1.368 . S
C1938 C1937 1.523 . S
H1939 C1914 0.950 . S
H1940 C1916 0.950 . S
H1941 C1917 0.949 . S
H1942 C1919 0.950 . S
H1943 C1921 0.950 . S
C1944 C1945 1.349 . S
C1944 C1946 1.327 . S
C1944 H1969 0.950 . S
C1945 C1944 1.349 . S
C1945 C1961 1.349 . S
C1946 C1944 1.327 . S
C1946 C1965 1.429 . S
C1946 H1970 0.950 . S
C1947 C1964 1.574 . S
C1947 C1966 1.368 . S
C1947 H1971 0.949 . S
H1948 C1952 0.949 . S
C1949 C1950 1.349 . S
C1949 C1951 1.327 . S
C1949 H1972 0.950 . S
C1950 C1949 1.349 . S
C1950 C1962 1.349 . S
C1951 C1949 1.327 . S
C1951 C1967 1.429 . S
C1951 H1973 0.950 . S
C1952 H1948 0.949 . S
C1952 C1960 1.574 . S
C1952 C1968 1.368 . S
H1953 C1961 0.950 . S
H1954 C1959 0.950 . S
H1955 C1960 0.949 . S
H1956 C1962 0.950 . S
H1957 C1963 0.950 . S
H1958 C1964 0.949 . S
C1959 H1954 0.950 . S
C1959 C1961 1.327 . S
C1959 C1965 1.429 . S
C1960 C1952 1.574 . S
C1960 H1955 0.949 . S
C1960 C1966 1.368 . S
C1961 C1945 1.349 . S
C1961 H1953 0.950 . S
C1961 C1959 1.327 . S
C1962 C1950 1.349 . S
C1962 H1956 0.950 . S
C1962 C1963 1.327 . S
C1963 H1957 0.950 . S
C1963 C1962 1.327 . S
C1963 C1967 1.429 . S
C1964 C1947 1.574 . S
C1964 H1958 0.949 . S
C1964 C1968 1.368 . S
C1965 C1946 1.429 . S
C1965 C1959 1.429 . S
C1965 C1966 1.523 . S
C1966 C1947 1.368 . S
C1966 C1960 1.368 . S
C1966 C1965 1.523 . S
C1967 C1951 1.429 . S
C1967 C1963 1.429 . S
C1967 C1968 1.523 . S
C1968 C1952 1.368 . S
C1968 C1964 1.368 . S
C1968 C1967 1.523 . S
H1969 C1944 0.950 . S
H1970 C1946 0.950 . S
H1971 C1947 0.949 . S
H1972 C1949 0.950 . S
H1973 C1951 0.950 . S
C1974 C1975 1.349 . S
C1974 C1976 1.327 . S
C1974 H1999 0.950 . S
C1975 C1974 1.349 . S
C1975 C1991 1.349 . S
C1976 C1974 1.327 . S
C1976 C1995 1.429 . S
C1976 H2000 0.950 . S
C1977 C1994 1.574 . S
C1977 C1996 1.368 . S
C1977 H2001 0.949 . S
H1978 C1982 0.949 . S
C1979 C1980 1.349 . S
C1979 C1981 1.327 . S
C1979 H2002 0.950 . S
C1980 C1979 1.349 . S
C1980 C1992 1.349 . S
C1981 C1979 1.327 . S
C1981 C1997 1.429 . S
C1981 H2003 0.950 . S
C1982 H1978 0.949 . S
C1982 C1990 1.574 . S
C1982 C1998 1.368 . S
H1983 C1991 0.950 . S
H1984 C1989 0.950 . S
H1985 C1990 0.949 . S
H1986 C1992 0.950 . S
H1987 C1993 0.950 . S
H1988 C1994 0.949 . S
C1989 H1984 0.950 . S
C1989 C1991 1.327 . S
C1989 C1995 1.429 . S
C1990 C1982 1.574 . S
C1990 H1985 0.949 . S
C1990 C1996 1.368 . S
C1991 C1975 1.349 . S
C1991 H1983 0.950 . S
C1991 C1989 1.327 . S
C1992 C1980 1.349 . S
C1992 H1986 0.950 . S
C1992 C1993 1.327 . S
C1993 H1987 0.950 . S
C1993 C1992 1.327 . S
C1993 C1997 1.429 . S
C1994 C1977 1.574 . S
C1994 H1988 0.949 . S
C1994 C1998 1.368 . S
C1995 C1976 1.429 . S
C1995 C1989 1.429 . S
C1995 C1996 1.523 . S
C1996 C1977 1.368 . S
C1996 C1990 1.368 . S
C1996 C1995 1.523 . S
C1997 C1981 1.429 . S
C1997 C1993 1.429 . S
C1997 C1998 1.523 . S
C1998 C1982 1.368 . S
C1998 C1994 1.368 . S
C1998 C1997 1.523 . S
H1999 C1974 0.950 . S
H2000 C1976 0.950 . S
H2001 C1977 0.949 . S
H2002 C1979 0.950 . S
H2003 C1981 0.950 . S
C2004 C2005 1.349 . S
C2004 C2006 1.327 . S
C2004 H2029 0.950 . S
C2005 C2004 1.349 . S
C2005 C2021 1.349 . S
C2006 C2004 1.327 . S
C2006 C2025 1.429 . S
C2006 H2030 0.950 . S
C2007 C2024 1.574 . S
C2007 C2026 1.368 . S
C2007 H2031 0.949 . S
H2008 C2012 0.949 . S
C2009 C2010 1.349 . S
C2009 C2011 1.327 . S
C2009 H2032 0.950 . S
C2010 C2009 1.349 . S
C2010 C2022 1.349 . S
C2011 C2009 1.327 . S
C2011 C2027 1.429 . S
C2011 H2033 0.950 . S
C2012 H2008 0.949 . S
C2012 C2020 1.574 . S
C2012 C2028 1.368 . S
H2013 C2021 0.950 . S
H2014 C2019 0.950 . S
H2015 C2020 0.949 . S
H2016 C2022 0.950 . S
H2017 C2023 0.950 . S
H2018 C2024 0.949 . S
C2019 H2014 0.950 . S
C2019 C2021 1.327 . S
C2019 C2025 1.429 . S
C2020 C2012 1.574 . S
C2020 H2015 0.949 . S
C2020 C2026 1.368 . S
C2021 C2005 1.349 . S
C2021 H2013 0.950 . S
C2021 C2019 1.327 . S
C2022 C2010 1.349 . S
C2022 H2016 0.950 . S
C2022 C2023 1.327 . S
C2023 H2017 0.950 . S
C2023 C2022 1.327 . S
C2023 C2027 1.429 . S
C2024 C2007 1.574 . S
C2024 H2018 0.949 . S
C2024 C2028 1.368 . S
C2025 C2006 1.429 . S
C2025 C2019 1.429 . S
C2025 C2026 1.523 . S
C2026 C2007 1.368 . S
C2026 C2020 1.368 . S
C2026 C2025 1.523 . S
C2027 C2011 1.429 . S
C2027 C2023 1.429 . S
C2027 C2028 1.523 . S
C2028 C2012 1.368 . S
C2028 C2024 1.368 . S
C2028 C2027 1.523 . S
H2029 C2004 0.950 . S
H2030 C2006 0.950 . S
H2031 C2007 0.949 . S
H2032 C2009 0.950 . S
H2033 C2011 0.950 . S
C2034 C2035 1.349 . S
C2034 C2036 1.327 . S
C2034 H2059 0.950 . S
C2035 C2034 1.349 . S
C2035 C2051 1.349 . S
C2036 C2034 1.327 . S
C2036 C2055 1.429 . S
C2036 H2060 0.950 . S
C2037 C2054 1.574 . S
C2037 C2056 1.368 . S
C2037 H2061 0.949 . S
H2038 C2042 0.949 . S
C2039 C2040 1.349 . S
C2039 C2041 1.327 . S
C2039 H2062 0.950 . S
C2040 C2039 1.349 . S
C2040 C2052 1.349 . S
C2041 C2039 1.327 . S
C2041 C2057 1.429 . S
C2041 H2063 0.950 . S
C2042 H2038 0.949 . S
C2042 C2050 1.574 . S
C2042 C2058 1.368 . S
H2043 C2051 0.950 . S
H2044 C2049 0.950 . S
H2045 C2050 0.949 . S
H2046 C2052 0.950 . S
H2047 C2053 0.950 . S
H2048 C2054 0.949 . S
C2049 H2044 0.950 . S
C2049 C2051 1.327 . S
C2049 C2055 1.429 . S
C2050 C2042 1.574 . S
C2050 H2045 0.949 . S
C2050 C2056 1.368 . S
C2051 C2035 1.349 . S
C2051 H2043 0.950 . S
C2051 C2049 1.327 . S
C2052 C2040 1.349 . S
C2052 H2046 0.950 . S
C2052 C2053 1.327 . S
C2053 H2047 0.950 . S
C2053 C2052 1.327 . S
C2053 C2057 1.429 . S
C2054 C2037 1.574 . S
C2054 H2048 0.949 . S
C2054 C2058 1.368 . S
C2055 C2036 1.429 . S
C2055 C2049 1.429 . S
C2055 C2056 1.523 . S
C2056 C2037 1.368 . S
C2056 C2050 1.368 . S
C2056 C2055 1.523 . S
C2057 C2041 1.429 . S
C2057 C2053 1.429 . S
C2057 C2058 1.523 . S
C2058 C2042 1.368 . S
C2058 C2054 1.368 . S
C2058 C2057 1.523 . S
H2059 C2034 0.950 . S
H2060 C2036 0.950 . S
H2061 C2037 0.949 . S
H2062 C2039 0.950 . S
H2063 C2041 0.950 . S
C2064 C2065 1.349 . S
C2064 C2066 1.327 . S
C2064 H2089 0.950 . S
C2065 C2064 1.349 . S
C2065 C2081 1.349 . S
C2066 C2064 1.327 . S
C2066 C2085 1.429 . S
C2066 H2090 0.950 . S
C2067 C2084 1.574 . S
C2067 C2086 1.368 . S
C2067 H2091 0.949 . S
H2068 C2072 0.949 . S
C2069 C2070 1.349 . S
C2069 C2071 1.327 . S
C2069 H2092 0.950 . S
C2070 C2069 1.349 . S
C2070 C2082 1.349 . S
C2071 C2069 1.327 . S
C2071 C2087 1.429 . S
C2071 H2093 0.950 . S
C2072 H2068 0.949 . S
C2072 C2080 1.574 . S
C2072 C2088 1.368 . S
H2073 C2081 0.950 . S
H2074 C2079 0.950 . S
H2075 C2080 0.949 . S
H2076 C2082 0.950 . S
H2077 C2083 0.950 . S
H2078 C2084 0.949 . S
C2079 H2074 0.950 . S
C2079 C2081 1.327 . S
C2079 C2085 1.429 . S
C2080 C2072 1.574 . S
C2080 H2075 0.949 . S
C2080 C2086 1.368 . S
C2081 C2065 1.349 . S
C2081 H2073 0.950 . S
C2081 C2079 1.327 . S
C2082 C2070 1.349 . S
C2082 H2076 0.950 . S
C2082 C2083 1.327 . S
C2083 H2077 0.950 . S
C2083 C2082 1.327 . S
C2083 C2087 1.429 . S
C2084 C2067 1.574 . S
C2084 H2078 0.949 . S
C2084 C2088 1.368 . S
C2085 C2066 1.429 . S
C2085 C2079 1.429 . S
C2085 C2086 1.523 . S
C2086 C2067 1.368 . S
C2086 C2080 1.368 . S
C2086 C2085 1.523 . S
C2087 C2071 1.429 . S
C2087 C2083 1.429 . S
C2087 C2088 1.523 . S
C2088 C2072 1.368 . S
C2088 C2084 1.368 . S
C2088 C2087 1.523 . S
H2089 C2064 0.950 . S
H2090 C2066 0.950 . S
H2091 C2067 0.949 . S
H2092 C2069 0.950 . S
H2093 C2071 0.950 . S
C2094 C2095 1.349 . S
C2094 C2096 1.327 . S
C2094 H2119 0.950 . S
C2095 C2094 1.349 . S
C2095 C2111 1.349 . S
C2096 C2094 1.327 . S
C2096 C2115 1.429 . S
C2096 H2120 0.950 . S
C2097 C2114 1.574 . S
C2097 C2116 1.368 . S
C2097 H2121 0.949 . S
H2098 C2102 0.949 . S
C2099 C2100 1.349 . S
C2099 C2101 1.327 . S
C2099 H2122 0.950 . S
C2100 C2099 1.349 . S
C2100 C2112 1.349 . S
C2101 C2099 1.327 . S
C2101 C2117 1.429 . S
C2101 H2123 0.950 . S
C2102 H2098 0.949 . S
C2102 C2110 1.574 . S
C2102 C2118 1.368 . S
H2103 C2111 0.950 . S
H2104 C2109 0.950 . S
H2105 C2110 0.949 . S
H2106 C2112 0.950 . S
H2107 C2113 0.950 . S
H2108 C2114 0.949 . S
C2109 H2104 0.950 . S
C2109 C2111 1.327 . S
C2109 C2115 1.429 . S
C2110 C2102 1.574 . S
C2110 H2105 0.949 . S
C2110 C2116 1.368 . S
C2111 C2095 1.349 . S
C2111 H2103 0.950 . S
C2111 C2109 1.327 . S
C2112 C2100 1.349 . S
C2112 H2106 0.950 . S
C2112 C2113 1.327 . S
C2113 H2107 0.950 . S
C2113 C2112 1.327 . S
C2113 C2117 1.429 . S
C2114 C2097 1.574 . S
C2114 H2108 0.949 . S
C2114 C2118 1.368 . S
C2115 C2096 1.429 . S
C2115 C2109 1.429 . S
C2115 C2116 1.523 . S
C2116 C2097 1.368 . S
C2116 C2110 1.368 . S
C2116 C2115 1.523 . S
C2117 C2101 1.429 . S
C2117 C2113 1.429 . S
C2117 C2118 1.523 . S
C2118 C2102 1.368 . S
C2118 C2114 1.368 . S
C2118 C2117 1.523 . S
H2119 C2094 0.950 . S
H2120 C2096 0.950 . S
H2121 C2097 0.949 . S
H2122 C2099 0.950 . S
H2123 C2101 0.950 . S
C2124 C2125 1.349 . S
C2124 C2126 1.327 . S
C2124 H2149 0.950 . S
C2125 C2124 1.349 . S
C2125 C2141 1.349 . S
C2126 C2124 1.327 . S
C2126 C2145 1.429 . S
C2126 H2150 0.950 . S
C2127 C2144 1.574 . S
C2127 C2146 1.368 . S
C2127 H2151 0.949 . S
H2128 C2132 0.949 . S
C2129 C2130 1.349 . S
C2129 C2131 1.327 . S
C2129 H2152 0.950 . S
C2130 C2129 1.349 . S
C2130 C2142 1.349 . S
C2131 C2129 1.327 . S
C2131 C2147 1.429 . S
C2131 H2153 0.950 . S
C2132 H2128 0.949 . S
C2132 C2140 1.574 . S
C2132 C2148 1.368 . S
H2133 C2141 0.950 . S
H2134 C2139 0.950 . S
H2135 C2140 0.949 . S
H2136 C2142 0.950 . S
H2137 C2143 0.950 . S
H2138 C2144 0.949 . S
C2139 H2134 0.950 . S
C2139 C2141 1.327 . S
C2139 C2145 1.429 . S
C2140 C2132 1.574 . S
C2140 H2135 0.949 . S
C2140 C2146 1.368 . S
C2141 C2125 1.349 . S
C2141 H2133 0.950 . S
C2141 C2139 1.327 . S
C2142 C2130 1.349 . S
C2142 H2136 0.950 . S
C2142 C2143 1.327 . S
C2143 H2137 0.950 . S
C2143 C2142 1.327 . S
C2143 C2147 1.429 . S
C2144 C2127 1.574 . S
C2144 H2138 0.949 . S
C2144 C2148 1.368 . S
C2145 C2126 1.429 . S
C2145 C2139 1.429 . S
C2145 C2146 1.523 . S
C2146 C2127 1.368 . S
C2146 C2140 1.368 . S
C2146 C2145 1.523 . S
C2147 C2131 1.429 . S
C2147 C2143 1.429 . S
C2147 C2148 1.523 . S
C2148 C2132 1.368 . S
C2148 C2144 1.368 . S
C2148 C2147 1.523 . S
H2149 C2124 0.950 . S
H2150 C2126 0.950 . S
H2151 C2127 0.949 . S
H2152 C2129 0.950 . S
H2153 C2131 0.950 . S
C2154 C2155 1.349 . S
C2154 C2156 1.327 . S
C2154 H2179 0.950 . S
C2155 C2154 1.349 . S
C2155 C2171 1.349 . S
C2156 C2154 1.327 . S
C2156 C2175 1.429 . S
C2156 H2180 0.950 . S
C2157 C2174 1.574 . S
C2157 C2176 1.368 . S
C2157 H2181 0.949 . S
H2158 C2162 0.949 . S
C2159 C2160 1.349 . S
C2159 C2161 1.327 . S
C2159 H2182 0.950 . S
C2160 C2159 1.349 . S
C2160 C2172 1.349 . S
C2161 C2159 1.327 . S
C2161 C2177 1.429 . S
C2161 H2183 0.950 . S
C2162 H2158 0.949 . S
C2162 C2170 1.574 . S
C2162 C2178 1.368 . S
H2163 C2171 0.950 . S
H2164 C2169 0.950 . S
H2165 C2170 0.949 . S
H2166 C2172 0.950 . S
H2167 C2173 0.950 . S
H2168 C2174 0.949 . S
C2169 H2164 0.950 . S
C2169 C2171 1.327 . S
C2169 C2175 1.429 . S
C2170 C2162 1.574 . S
C2170 H2165 0.949 . S
C2170 C2176 1.368 . S
C2171 C2155 1.349 . S
C2171 H2163 0.950 . S
C2171 C2169 1.327 . S
C2172 C2160 1.349 . S
C2172 H2166 0.950 . S
C2172 C2173 1.327 . S
C2173 H2167 0.950 . S
C2173 C2172 1.327 . S
C2173 C2177 1.429 . S
C2174 C2157 1.574 . S
C2174 H2168 0.949 . S
C2174 C2178 1.368 . S
C2175 C2156 1.429 . S
C2175 C2169 1.429 . S
C2175 C2176 1.523 . S
C2176 C2157 1.368 . S
C2176 C2170 1.368 . S
C2176 C2175 1.523 . S
C2177 C2161 1.429 . S
C2177 C2173 1.429 . S
C2177 C2178 1.523 . S
C2178 C2162 1.368 . S
C2178 C2174 1.368 . S
C2178 C2177 1.523 . S
H2179 C2154 0.950 . S
H2180 C2156 0.950 . S
H2181 C2157 0.949 . S
H2182 C2159 0.950 . S
H2183 C2161 0.950 . S
C2184 C2185 1.349 . S
C2184 C2186 1.327 . S
C2184 H2209 0.950 . S
C2185 C2184 1.349 . S
C2185 C2201 1.349 . S
C2186 C2184 1.327 . S
C2186 C2205 1.429 . S
C2186 H2210 0.950 . S
C2187 C2204 1.574 . S
C2187 C2206 1.368 . S
C2187 H2211 0.949 . S
H2188 C2192 0.949 . S
C2189 C2190 1.349 . S
C2189 C2191 1.327 . S
C2189 H2212 0.950 . S
C2190 C2189 1.349 . S
C2190 C2202 1.349 . S
C2191 C2189 1.327 . S
C2191 C2207 1.429 . S
C2191 H2213 0.950 . S
C2192 H2188 0.949 . S
C2192 C2200 1.574 . S
C2192 C2208 1.368 . S
H2193 C2201 0.950 . S
H2194 C2199 0.950 . S
H2195 C2200 0.949 . S
H2196 C2202 0.950 . S
H2197 C2203 0.950 . S
H2198 C2204 0.949 . S
C2199 H2194 0.950 . S
C2199 C2201 1.327 . S
C2199 C2205 1.429 . S
C2200 C2192 1.574 . S
C2200 H2195 0.949 . S
C2200 C2206 1.368 . S
C2201 C2185 1.349 . S
C2201 H2193 0.950 . S
C2201 C2199 1.327 . S
C2202 C2190 1.349 . S
C2202 H2196 0.950 . S
C2202 C2203 1.327 . S
C2203 H2197 0.950 . S
C2203 C2202 1.327 . S
C2203 C2207 1.429 . S
C2204 C2187 1.574 . S
C2204 H2198 0.949 . S
C2204 C2208 1.368 . S
C2205 C2186 1.429 . S
C2205 C2199 1.429 . S
C2205 C2206 1.523 . S
C2206 C2187 1.368 . S
C2206 C2200 1.368 . S
C2206 C2205 1.523 . S
C2207 C2191 1.429 . S
C2207 C2203 1.429 . S
C2207 C2208 1.523 . S
C2208 C2192 1.368 . S
C2208 C2204 1.368 . S
C2208 C2207 1.523 . S
H2209 C2184 0.950 . S
H2210 C2186 0.950 . S
H2211 C2187 0.949 . S
H2212 C2189 0.950 . S
H2213 C2191 0.950 . S
C2214 C2215 1.349 . S
C2214 C2216 1.327 . S
C2214 H2239 0.950 . S
C2215 C2214 1.349 . S
C2215 C2231 1.349 . S
C2216 C2214 1.327 . S
C2216 C2235 1.429 . S
C2216 H2240 0.950 . S
C2217 C2234 1.574 . S
C2217 C2236 1.368 . S
C2217 H2241 0.949 . S
H2218 C2222 0.949 . S
C2219 C2220 1.349 . S
C2219 C2221 1.327 . S
C2219 H2242 0.950 . S
C2220 C2219 1.349 . S
C2220 C2232 1.349 . S
C2221 C2219 1.327 . S
C2221 C2237 1.429 . S
C2221 H2243 0.950 . S
C2222 H2218 0.949 . S
C2222 C2230 1.574 . S
C2222 C2238 1.368 . S
H2223 C2231 0.950 . S
H2224 C2229 0.950 . S
H2225 C2230 0.949 . S
H2226 C2232 0.950 . S
H2227 C2233 0.950 . S
H2228 C2234 0.949 . S
C2229 H2224 0.950 . S
C2229 C2231 1.327 . S
C2229 C2235 1.429 . S
C2230 C2222 1.574 . S
C2230 H2225 0.949 . S
C2230 C2236 1.368 . S
C2231 C2215 1.349 . S
C2231 H2223 0.950 . S
C2231 C2229 1.327 . S
C2232 C2220 1.349 . S
C2232 H2226 0.950 . S
C2232 C2233 1.327 . S
C2233 H2227 0.950 . S
C2233 C2232 1.327 . S
C2233 C2237 1.429 . S
C2234 C2217 1.574 . S
C2234 H2228 0.949 . S
C2234 C2238 1.368 . S
C2235 C2216 1.429 . S
C2235 C2229 1.429 . S
C2235 C2236 1.523 . S
C2236 C2217 1.368 . S
C2236 C2230 1.368 . S
C2236 C2235 1.523 . S
C2237 C2221 1.429 . S
C2237 C2233 1.429 . S
C2237 C2238 1.523 . S
C2238 C2222 1.368 . S
C2238 C2234 1.368 . S
C2238 C2237 1.523 . S
H2239 C2214 0.950 . S
H2240 C2216 0.950 . S
H2241 C2217 0.949 . S
H2242 C2219 0.950 . S
H2243 C2221 0.950 . S
C2244 C2245 1.349 . S
C2244 C2246 1.327 . S
C2244 H2269 0.950 . S
C2245 C2244 1.349 . S
C2245 C2261 1.349 . S
C2246 C2244 1.327 . S
C2246 C2265 1.429 . S
C2246 H2270 0.950 . S
C2247 C2264 1.574 . S
C2247 C2266 1.368 . S
C2247 H2271 0.949 . S
H2248 C2252 0.949 . S
C2249 C2250 1.349 . S
C2249 C2251 1.327 . S
C2249 H2272 0.950 . S
C2250 C2249 1.349 . S
C2250 C2262 1.349 . S
C2251 C2249 1.327 . S
C2251 C2267 1.429 . S
C2251 H2273 0.950 . S
C2252 H2248 0.949 . S
C2252 C2260 1.574 . S
C2252 C2268 1.368 . S
H2253 C2261 0.950 . S
H2254 C2259 0.950 . S
H2255 C2260 0.949 . S
H2256 C2262 0.950 . S
H2257 C2263 0.950 . S
H2258 C2264 0.949 . S
C2259 H2254 0.950 . S
C2259 C2261 1.327 . S
C2259 C2265 1.429 . S
C2260 C2252 1.574 . S
C2260 H2255 0.949 . S
C2260 C2266 1.368 . S
C2261 C2245 1.349 . S
C2261 H2253 0.950 . S
C2261 C2259 1.327 . S
C2262 C2250 1.349 . S
C2262 H2256 0.950 . S
C2262 C2263 1.327 . S
C2263 H2257 0.950 . S
C2263 C2262 1.327 . S
C2263 C2267 1.429 . S
C2264 C2247 1.574 . S
C2264 H2258 0.949 . S
C2264 C2268 1.368 . S
C2265 C2246 1.429 . S
C2265 C2259 1.429 . S
C2265 C2266 1.523 . S
C2266 C2247 1.368 . S
C2266 C2260 1.368 . S
C2266 C2265 1.523 . S
C2267 C2251 1.429 . S
C2267 C2263 1.429 . S
C2267 C2268 1.523 . S
C2268 C2252 1.368 . S
C2268 C2264 1.368 . S
C2268 C2267 1.523 . S
H2269 C2244 0.950 . S
H2270 C2246 0.950 . S
H2271 C2247 0.949 . S
H2272 C2249 0.950 . S
H2273 C2251 0.950 . S
C2274 C2275 1.349 . S
C2274 C2276 1.327 . S
C2274 H2299 0.950 . S
C2275 C2274 1.349 . S
C2275 C2291 1.349 . S
C2276 C2274 1.327 . S
C2276 C2295 1.429 . S
C2276 H2300 0.950 . S
C2277 C2294 1.574 . S
C2277 C2296 1.368 . S
C2277 H2301 0.949 . S
H2278 C2282 0.949 . S
C2279 C2280 1.349 . S
C2279 C2281 1.327 . S
C2279 H2302 0.950 . S
C2280 C2279 1.349 . S
C2280 C2292 1.349 . S
C2281 C2279 1.327 . S
C2281 C2297 1.429 . S
C2281 H2303 0.950 . S
C2282 H2278 0.949 . S
C2282 C2290 1.574 . S
C2282 C2298 1.368 . S
H2283 C2291 0.950 . S
H2284 C2289 0.950 . S
H2285 C2290 0.949 . S
H2286 C2292 0.950 . S
H2287 C2293 0.950 . S
H2288 C2294 0.949 . S
C2289 H2284 0.950 . S
C2289 C2291 1.327 . S
C2289 C2295 1.429 . S
C2290 C2282 1.574 . S
C2290 H2285 0.949 . S
C2290 C2296 1.368 . S
C2291 C2275 1.349 . S
C2291 H2283 0.950 . S
C2291 C2289 1.327 . S
C2292 C2280 1.349 . S
C2292 H2286 0.950 . S
C2292 C2293 1.327 . S
C2293 H2287 0.950 . S
C2293 C2292 1.327 . S
C2293 C2297 1.429 . S
C2294 C2277 1.574 . S
C2294 H2288 0.949 . S
C2294 C2298 1.368 . S
C2295 C2276 1.429 . S
C2295 C2289 1.429 . S
C2295 C2296 1.523 . S
C2296 C2277 1.368 . S
C2296 C2290 1.368 . S
C2296 C2295 1.523 . S
C2297 C2281 1.429 . S
C2297 C2293 1.429 . S
C2297 C2298 1.523 . S
C2298 C2282 1.368 . S
C2298 C2294 1.368 . S
C2298 C2297 1.523 . S
H2299 C2274 0.950 . S
H2300 C2276 0.950 . S
H2301 C2277 0.949 . S
H2302 C2279 0.950 . S
H2303 C2281 0.950 . S
C2304 C2305 1.349 . S
C2304 C2306 1.327 . S
C2304 H2329 0.950 . S
C2305 C2304 1.349 . S
C2305 C2321 1.349 . S
C2306 C2304 1.327 . S
C2306 C2325 1.429 . S
C2306 H2330 0.950 . S
C2307 C2324 1.574 . S
C2307 C2326 1.368 . S
C2307 H2331 0.949 . S
H2308 C2312 0.949 . S
C2309 C2310 1.349 . S
C2309 C2311 1.327 . S
C2309 H2332 0.950 . S
C2310 C2309 1.349 . S
C2310 C2322 1.349 . S
C2311 C2309 1.327 . S
C2311 C2327 1.429 . S
C2311 H2333 0.950 . S
C2312 H2308 0.949 . S
C2312 C2320 1.574 . S
C2312 C2328 1.368 . S
H2313 C2321 0.950 . S
H2314 C2319 0.950 . S
H2315 C2320 0.949 . S
H2316 C2322 0.950 . S
H2317 C2323 0.950 . S
H2318 C2324 0.949 . S
C2319 H2314 0.950 . S
C2319 C2321 1.327 . S
C2319 C2325 1.429 . S
C2320 C2312 1.574 . S
C2320 H2315 0.949 . S
C2320 C2326 1.368 . S
C2321 C2305 1.349 . S
C2321 H2313 0.950 . S
C2321 C2319 1.327 . S
C2322 C2310 1.349 . S
C2322 H2316 0.950 . S
C2322 C2323 1.327 . S
C2323 H2317 0.950 . S
C2323 C2322 1.327 . S
C2323 C2327 1.429 . S
C2324 C2307 1.574 . S
C2324 H2318 0.949 . S
C2324 C2328 1.368 . S
C2325 C2306 1.429 . S
C2325 C2319 1.429 . S
C2325 C2326 1.523 . S
C2326 C2307 1.368 . S
C2326 C2320 1.368 . S
C2326 C2325 1.523 . S
C2327 C2311 1.429 . S
C2327 C2323 1.429 . S
C2327 C2328 1.523 . S
C2328 C2312 1.368 . S
C2328 C2324 1.368 . S
C2328 C2327 1.523 . S
H2329 C2304 0.950 . S
H2330 C2306 0.950 . S
H2331 C2307 0.949 . S
H2332 C2309 0.950 . S
H2333 C2311 0.950 . S
C2334 C2335 1.349 . S
C2334 C2336 1.327 . S
C2334 H2359 0.950 . S
C2335 C2334 1.349 . S
C2335 C2351 1.349 . S
C2336 C2334 1.327 . S
C2336 C2355 1.429 . S
C2336 H2360 0.950 . S
C2337 C2354 1.574 . S
C2337 C2356 1.368 . S
C2337 H2361 0.949 . S
H2338 C2342 0.949 . S
C2339 C2340 1.349 . S
C2339 C2341 1.327 . S
C2339 H2362 0.950 . S
C2340 C2339 1.349 . S
C2340 C2352 1.349 . S
C2341 C2339 1.327 . S
C2341 C2357 1.429 . S
C2341 H2363 0.950 . S
C2342 H2338 0.949 . S
C2342 C2350 1.574 . S
C2342 C2358 1.368 . S
H2343 C2351 0.950 . S
H2344 C2349 0.950 . S
H2345 C2350 0.949 . S
H2346 C2352 0.950 . S
H2347 C2353 0.950 . S
H2348 C2354 0.949 . S
C2349 H2344 0.950 . S
C2349 C2351 1.327 . S
C2349 C2355 1.429 . S
C2350 C2342 1.574 . S
C2350 H2345 0.949 . S
C2350 C2356 1.368 . S
C2351 C2335 1.349 . S
C2351 H2343 0.950 . S
C2351 C2349 1.327 . S
C2352 C2340 1.349 . S
C2352 H2346 0.950 . S
C2352 C2353 1.327 . S
C2353 H2347 0.950 . S
C2353 C2352 1.327 . S
C2353 C2357 1.429 . S
C2354 C2337 1.574 . S
C2354 H2348 0.949 . S
C2354 C2358 1.368 . S
C2355 C2336 1.429 . S
C2355 C2349 1.429 . S
C2355 C2356 1.523 . S
C2356 C2337 1.368 . S
C2356 C2350 1.368 . S
C2356 C2355 1.523 . S
C2357 C2341 1.429 . S
C2357 C2353 1.429 . S
C2357 C2358 1.523 . S
C2358 C2342 1.368 . S
C2358 C2354 1.368 . S
C2358 C2357 1.523 . S
H2359 C2334 0.950 . S
H2360 C2336 0.950 . S
H2361 C2337 0.949 . S
H2362 C2339 0.950 . S
H2363 C2341 0.950 . S
C2364 C2365 1.349 . S
C2364 C2366 1.327 . S
C2364 H2389 0.950 . S
C2365 C2364 1.349 . S
C2365 C2381 1.349 . S
C2366 C2364 1.327 . S
C2366 C2385 1.429 . S
C2366 H2390 0.950 . S
C2367 C2384 1.574 . S
C2367 C2386 1.368 . S
C2367 H2391 0.949 . S
H2368 C2372 0.949 . S
C2369 C2370 1.349 . S
C2369 C2371 1.327 . S
C2369 H2392 0.950 . S
C2370 C2369 1.349 . S
C2370 C2382 1.349 . S
C2371 C2369 1.327 . S
C2371 C2387 1.429 . S
C2371 H2393 0.950 . S
C2372 H2368 0.949 . S
C2372 C2380 1.574 . S
C2372 C2388 1.368 . S
H2373 C2381 0.950 . S
H2374 C2379 0.950 . S
H2375 C2380 0.949 . S
H2376 C2382 0.950 . S
H2377 C2383 0.950 . S
H2378 C2384 0.949 . S
C2379 H2374 0.950 . S
C2379 C2381 1.327 . S
C2379 C2385 1.429 . S
C2380 C2372 1.574 . S
C2380 H2375 0.949 . S
C2380 C2386 1.368 . S
C2381 C2365 1.349 . S
C2381 H2373 0.950 . S
C2381 C2379 1.327 . S
C2382 C2370 1.349 . S
C2382 H2376 0.950 . S
C2382 C2383 1.327 . S
C2383 H2377 0.950 . S
C2383 C2382 1.327 . S
C2383 C2387 1.429 . S
C2384 C2367 1.574 . S
C2384 H2378 0.949 . S
C2384 C2388 1.368 . S
C2385 C2366 1.429 . S
C2385 C2379 1.429 . S
C2385 C2386 1.523 . S
C2386 C2367 1.368 . S
C2386 C2380 1.368 . S
C2386 C2385 1.523 . S
C2387 C2371 1.429 . S
C2387 C2383 1.429 . S
C2387 C2388 1.523 . S
C2388 C2372 1.368 . S
C2388 C2384 1.368 . S
C2388 C2387 1.523 . S
H2389 C2364 0.950 . S
H2390 C2366 0.950 . S
H2391 C2367 0.949 . S
H2392 C2369 0.950 . S
H2393 C2371 0.950 . S
C2394 C2395 1.349 . S
C2394 C2396 1.327 . S
C2394 H2419 0.950 . S
C2395 C2394 1.349 . S
C2395 C2411 1.349 . S
C2396 C2394 1.327 . S
C2396 C2415 1.429 . S
C2396 H2420 0.950 . S
C2397 C2414 1.574 . S
C2397 C2416 1.368 . S
C2397 H2421 0.949 . S
H2398 C2402 0.949 . S
C2399 C2400 1.349 . S
C2399 C2401 1.327 . S
C2399 H2422 0.950 . S
C2400 C2399 1.349 . S
C2400 C2412 1.349 . S
C2401 C2399 1.327 . S
C2401 C2417 1.429 . S
C2401 H2423 0.950 . S
C2402 H2398 0.949 . S
C2402 C2410 1.574 . S
C2402 C2418 1.368 . S
H2403 C2411 0.950 . S
H2404 C2409 0.950 . S
H2405 C2410 0.949 . S
H2406 C2412 0.950 . S
H2407 C2413 0.950 . S
H2408 C2414 0.949 . S
C2409 H2404 0.950 . S
C2409 C2411 1.327 . S
C2409 C2415 1.429 . S
C2410 C2402 1.574 . S
C2410 H2405 0.949 . S
C2410 C2416 1.368 . S
C2411 C2395 1.349 . S
C2411 H2403 0.950 . S
C2411 C2409 1.327 . S
C2412 C2400 1.349 . S
C2412 H2406 0.950 . S
C2412 C2413 1.327 . S
C2413 H2407 0.950 . S
C2413 C2412 1.327 . S
C2413 C2417 1.429 . S
C2414 C2397 1.574 . S
C2414 H2408 0.949 . S
C2414 C2418 1.368 . S
C2415 C2396 1.429 . S
C2415 C2409 1.429 . S
C2415 C2416 1.523 . S
C2416 C2397 1.368 . S
C2416 C2410 1.368 . S
C2416 C2415 1.523 . S
C2417 C2401 1.429 . S
C2417 C2413 1.429 . S
C2417 C2418 1.523 . S
C2418 C2402 1.368 . S
C2418 C2414 1.368 . S
C2418 C2417 1.523 . S
H2419 C2394 0.950 . S
H2420 C2396 0.950 . S
H2421 C2397 0.949 . S
H2422 C2399 0.950 . S
H2423 C2401 0.950 . S
C2424 C2425 1.349 . S
C2424 C2426 1.327 . S
C2424 H2449 0.950 . S
C2425 C2424 1.349 . S
C2425 C2441 1.349 . S
C2426 C2424 1.327 . S
C2426 C2445 1.429 . S
C2426 H2450 0.950 . S
C2427 C2444 1.574 . S
C2427 C2446 1.368 . S
C2427 H2451 0.949 . S
H2428 C2432 0.949 . S
C2429 C2430 1.349 . S
C2429 C2431 1.327 . S
C2429 H2452 0.950 . S
C2430 C2429 1.349 . S
C2430 C2442 1.349 . S
C2431 C2429 1.327 . S
C2431 C2447 1.429 . S
C2431 H2453 0.950 . S
C2432 H2428 0.949 . S
C2432 C2440 1.574 . S
C2432 C2448 1.368 . S
H2433 C2441 0.950 . S
H2434 C2439 0.950 . S
H2435 C2440 0.949 . S
H2436 C2442 0.950 . S
H2437 C2443 0.950 . S
H2438 C2444 0.949 . S
C2439 H2434 0.950 . S
C2439 C2441 1.327 . S
C2439 C2445 1.429 . S
C2440 C2432 1.574 . S
C2440 H2435 0.949 . S
C2440 C2446 1.368 . S
C2441 C2425 1.349 . S
C2441 H2433 0.950 . S
C2441 C2439 1.327 . S
C2442 C2430 1.349 . S
C2442 H2436 0.950 . S
C2442 C2443 1.327 . S
C2443 H2437 0.950 . S
C2443 C2442 1.327 . S
C2443 C2447 1.429 . S
C2444 C2427 1.574 . S
C2444 H2438 0.949 . S
C2444 C2448 1.368 . S
C2445 C2426 1.429 . S
C2445 C2439 1.429 . S
C2445 C2446 1.523 . S
C2446 C2427 1.368 . S
C2446 C2440 1.368 . S
C2446 C2445 1.523 . S
C2447 C2431 1.429 . S
C2447 C2443 1.429 . S
C2447 C2448 1.523 . S
C2448 C2432 1.368 . S
C2448 C2444 1.368 . S
C2448 C2447 1.523 . S
H2449 C2424 0.950 . S
H2450 C2426 0.950 . S
H2451 C2427 0.949 . S
H2452 C2429 0.950 . S
H2453 C2431 0.950 . S
C2454 C2455 1.349 . S
C2454 C2456 1.327 . S
C2454 H2479 0.950 . S
C2455 C2454 1.349 . S
C2455 C2471 1.349 . S
C2456 C2454 1.327 . S
C2456 C2475 1.429 . S
C2456 H2480 0.950 . S
C2457 C2474 1.574 . S
C2457 C2476 1.368 . S
C2457 H2481 0.949 . S
H2458 C2462 0.949 . S
C2459 C2460 1.349 . S
C2459 C2461 1.327 . S
C2459 H2482 0.950 . S
C2460 C2459 1.349 . S
C2460 C2472 1.349 . S
C2461 C2459 1.327 . S
C2461 C2477 1.429 . S
C2461 H2483 0.950 . S
C2462 H2458 0.949 . S
C2462 C2470 1.574 . S
C2462 C2478 1.368 . S
H2463 C2471 0.950 . S
H2464 C2469 0.950 . S
H2465 C2470 0.949 . S
H2466 C2472 0.950 . S
H2467 C2473 0.950 . S
H2468 C2474 0.949 . S
C2469 H2464 0.950 . S
C2469 C2471 1.327 . S
C2469 C2475 1.429 . S
C2470 C2462 1.574 . S
C2470 H2465 0.949 . S
C2470 C2476 1.368 . S
C2471 C2455 1.349 . S
C2471 H2463 0.950 . S
C2471 C2469 1.327 . S
C2472 C2460 1.349 . S
C2472 H2466 0.950 . S
C2472 C2473 1.327 . S
C2473 H2467 0.950 . S
C2473 C2472 1.327 . S
C2473 C2477 1.429 . S
C2474 C2457 1.574 . S
C2474 H2468 0.949 . S
C2474 C2478 1.368 . S
C2475 C2456 1.429 . S
C2475 C2469 1.429 . S
C2475 C2476 1.523 . S
C2476 C2457 1.368 . S
C2476 C2470 1.368 . S
C2476 C2475 1.523 . S
C2477 C2461 1.429 . S
C2477 C2473 1.429 . S
C2477 C2478 1.523 . S
C2478 C2462 1.368 . S
C2478 C2474 1.368 . S
C2478 C2477 1.523 . S
H2479 C2454 0.950 . S
H2480 C2456 0.950 . S
H2481 C2457 0.949 . S
H2482 C2459 0.950 . S
H2483 C2461 0.950 . S
C2484 C2485 1.349 . S
C2484 C2486 1.327 . S
C2484 H2509 0.950 . S
C2485 C2484 1.349 . S
C2485 C2501 1.349 . S
C2486 C2484 1.327 . S
C2486 C2505 1.429 . S
C2486 H2510 0.950 . S
C2487 C2504 1.574 . S
C2487 C2506 1.368 . S
C2487 H2511 0.949 . S
H2488 C2492 0.949 . S
C2489 C2490 1.349 . S
C2489 C2491 1.327 . S
C2489 H2512 0.950 . S
C2490 C2489 1.349 . S
C2490 C2502 1.349 . S
C2491 C2489 1.327 . S
C2491 C2507 1.429 . S
C2491 H2513 0.950 . S
C2492 H2488 0.949 . S
C2492 C2500 1.574 . S
C2492 C2508 1.368 . S
H2493 C2501 0.950 . S
H2494 C2499 0.950 . S
H2495 C2500 0.949 . S
H2496 C2502 0.950 . S
H2497 C2503 0.950 . S
H2498 C2504 0.949 . S
C2499 H2494 0.950 . S
C2499 C2501 1.327 . S
C2499 C2505 1.429 . S
C2500 C2492 1.574 . S
C2500 H2495 0.949 . S
C2500 C2506 1.368 . S
C2501 C2485 1.349 . S
C2501 H2493 0.950 . S
C2501 C2499 1.327 . S
C2502 C2490 1.349 . S
C2502 H2496 0.950 . S
C2502 C2503 1.327 . S
C2503 H2497 0.950 . S
C2503 C2502 1.327 . S
C2503 C2507 1.429 . S
C2504 C2487 1.574 . S
C2504 H2498 0.949 . S
C2504 C2508 1.368 . S
C2505 C2486 1.429 . S
C2505 C2499 1.429 . S
C2505 C2506 1.523 . S
C2506 C2487 1.368 . S
C2506 C2500 1.368 . S
C2506 C2505 1.523 . S
C2507 C2491 1.429 . S
C2507 C2503 1.429 . S
C2507 C2508 1.523 . S
C2508 C2492 1.368 . S
C2508 C2504 1.368 . S
C2508 C2507 1.523 . S
H2509 C2484 0.950 . S
H2510 C2486 0.950 . S
H2511 C2487 0.949 . S
H2512 C2489 0.950 . S
H2513 C2491 0.950 . S
C2514 C2515 1.349 . S
C2514 C2516 1.327 . S
C2514 H2539 0.950 . S
C2515 C2514 1.349 . S
C2515 C2531 1.349 . S
C2516 C2514 1.327 . S
C2516 C2535 1.429 . S
C2516 H2540 0.950 . S
C2517 C2534 1.574 . S
C2517 C2536 1.368 . S
C2517 H2541 0.949 . S
H2518 C2522 0.949 . S
C2519 C2520 1.349 . S
C2519 C2521 1.327 . S
C2519 H2542 0.950 . S
C2520 C2519 1.349 . S
C2520 C2532 1.349 . S
C2521 C2519 1.327 . S
C2521 C2537 1.429 . S
C2521 H2543 0.950 . S
C2522 H2518 0.949 . S
C2522 C2530 1.574 . S
C2522 C2538 1.368 . S
H2523 C2531 0.950 . S
H2524 C2529 0.950 . S
H2525 C2530 0.949 . S
H2526 C2532 0.950 . S
H2527 C2533 0.950 . S
H2528 C2534 0.949 . S
C2529 H2524 0.950 . S
C2529 C2531 1.327 . S
C2529 C2535 1.429 . S
C2530 C2522 1.574 . S
C2530 H2525 0.949 . S
C2530 C2536 1.368 . S
C2531 C2515 1.349 . S
C2531 H2523 0.950 . S
C2531 C2529 1.327 . S
C2532 C2520 1.349 . S
C2532 H2526 0.950 . S
C2532 C2533 1.327 . S
C2533 H2527 0.950 . S
C2533 C2532 1.327 . S
C2533 C2537 1.429 . S
C2534 C2517 1.574 . S
C2534 H2528 0.949 . S
C2534 C2538 1.368 . S
C2535 C2516 1.429 . S
C2535 C2529 1.429 . S
C2535 C2536 1.523 . S
C2536 C2517 1.368 . S
C2536 C2530 1.368 . S
C2536 C2535 1.523 . S
C2537 C2521 1.429 . S
C2537 C2533 1.429 . S
C2537 C2538 1.523 . S
C2538 C2522 1.368 . S
C2538 C2534 1.368 . S
C2538 C2537 1.523 . S
H2539 C2514 0.950 . S
H2540 C2516 0.950 . S
H2541 C2517 0.949 . S
H2542 C2519 0.950 . S
H2543 C2521 0.950 . S
C2544 C2545 1.349 . S
C2544 C2546 1.327 . S
C2544 H2569 0.950 . S
C2545 C2544 1.349 . S
C2545 C2561 1.349 . S
C2546 C2544 1.327 . S
C2546 C2565 1.429 . S
C2546 H2570 0.950 . S
C2547 C2564 1.574 . S
C2547 C2566 1.368 . S
C2547 H2571 0.949 . S
H2548 C2552 0.949 . S
C2549 C2550 1.349 . S
C2549 C2551 1.327 . S
C2549 H2572 0.950 . S
C2550 C2549 1.349 . S
C2550 C2562 1.349 . S
C2551 C2549 1.327 . S
C2551 C2567 1.429 . S
C2551 H2573 0.950 . S
C2552 H2548 0.949 . S
C2552 C2560 1.574 . S
C2552 C2568 1.368 . S
H2553 C2561 0.950 . S
H2554 C2559 0.950 . S
H2555 C2560 0.949 . S
H2556 C2562 0.950 . S
H2557 C2563 0.950 . S
H2558 C2564 0.949 . S
C2559 H2554 0.950 . S
C2559 C2561 1.327 . S
C2559 C2565 1.429 . S
C2560 C2552 1.574 . S
C2560 H2555 0.949 . S
C2560 C2566 1.368 . S
C2561 C2545 1.349 . S
C2561 H2553 0.950 . S
C2561 C2559 1.327 . S
C2562 C2550 1.349 . S
C2562 H2556 0.950 . S
C2562 C2563 1.327 . S
C2563 H2557 0.950 . S
C2563 C2562 1.327 . S
C2563 C2567 1.429 . S
C2564 C2547 1.574 . S
C2564 H2558 0.949 . S
C2564 C2568 1.368 . S
C2565 C2546 1.429 . S
C2565 C2559 1.429 . S
C2565 C2566 1.523 . S
C2566 C2547 1.368 . S
C2566 C2560 1.368 . S
C2566 C2565 1.523 . S
C2567 C2551 1.429 . S
C2567 C2563 1.429 . S
C2567 C2568 1.523 . S
C2568 C2552 1.368 . S
C2568 C2564 1.368 . S
C2568 C2567 1.523 . S
H2569 C2544 0.950 . S
H2570 C2546 0.950 . S
H2571 C2547 0.949 . S
H2572 C2549 0.950 . S
H2573 C2551 0.950 . S
C2574 C2575 1.349 . S
C2574 C2576 1.327 . S
C2574 H2599 0.950 . S
C2575 C2574 1.349 . S
C2575 C2591 1.349 . S
C2576 C2574 1.327 . S
C2576 C2595 1.429 . S
C2576 H2600 0.950 . S
C2577 C2594 1.574 . S
C2577 C2596 1.368 . S
C2577 H2601 0.949 . S
H2578 C2582 0.949 . S
C2579 C2580 1.349 . S
C2579 C2581 1.327 . S
C2579 H2602 0.950 . S
C2580 C2579 1.349 . S
C2580 C2592 1.349 . S
C2581 C2579 1.327 . S
C2581 C2597 1.429 . S
C2581 H2603 0.950 . S
C2582 H2578 0.949 . S
C2582 C2590 1.574 . S
C2582 C2598 1.368 . S
H2583 C2591 0.950 . S
H2584 C2589 0.950 . S
H2585 C2590 0.949 . S
H2586 C2592 0.950 . S
H2587 C2593 0.950 . S
H2588 C2594 0.949 . S
C2589 H2584 0.950 . S
C2589 C2591 1.327 . S
C2589 C2595 1.429 . S
C2590 C2582 1.574 . S
C2590 H2585 0.949 . S
C2590 C2596 1.368 . S
C2591 C2575 1.349 . S
C2591 H2583 0.950 . S
C2591 C2589 1.327 . S
C2592 C2580 1.349 . S
C2592 H2586 0.950 . S
C2592 C2593 1.327 . S
C2593 H2587 0.950 . S
C2593 C2592 1.327 . S
C2593 C2597 1.429 . S
C2594 C2577 1.574 . S
C2594 H2588 0.949 . S
C2594 C2598 1.368 . S
C2595 C2576 1.429 . S
C2595 C2589 1.429 . S
C2595 C2596 1.523 . S
C2596 C2577 1.368 . S
C2596 C2590 1.368 . S
C2596 C2595 1.523 . S
C2597 C2581 1.429 . S
C2597 C2593 1.429 . S
C2597 C2598 1.523 . S
C2598 C2582 1.368 . S
C2598 C2594 1.368 . S
C2598 C2597 1.523 . S
H2599 C2574 0.950 . S
H2600 C2576 0.950 . S
H2601 C2577 0.949 . S
H2602 C2579 0.950 . S
H2603 C2581 0.950 . S
C2604 C2605 1.349 . S
C2604 C2606 1.327 . S
C2604 H2629 0.950 . S
C2605 C2604 1.349 . S
C2605 C2621 1.349 . S
C2606 C2604 1.327 . S
C2606 C2625 1.429 . S
C2606 H2630 0.950 . S
C2607 C2624 1.574 . S
C2607 C2626 1.368 . S
C2607 H2631 0.949 . S
H2608 C2612 0.949 . S
C2609 C2610 1.349 . S
C2609 C2611 1.327 . S
C2609 H2632 0.950 . S
C2610 C2609 1.349 . S
C2610 C2622 1.349 . S
C2611 C2609 1.327 . S
C2611 C2627 1.429 . S
C2611 H2633 0.950 . S
C2612 H2608 0.949 . S
C2612 C2620 1.574 . S
C2612 C2628 1.368 . S
H2613 C2621 0.950 . S
H2614 C2619 0.950 . S
H2615 C2620 0.949 . S
H2616 C2622 0.950 . S
H2617 C2623 0.950 . S
H2618 C2624 0.949 . S
C2619 H2614 0.950 . S
C2619 C2621 1.327 . S
C2619 C2625 1.429 . S
C2620 C2612 1.574 . S
C2620 H2615 0.949 . S
C2620 C2626 1.368 . S
C2621 C2605 1.349 . S
C2621 H2613 0.950 . S
C2621 C2619 1.327 . S
C2622 C2610 1.349 . S
C2622 H2616 0.950 . S
C2622 C2623 1.327 . S
C2623 H2617 0.950 . S
C2623 C2622 1.327 . S
C2623 C2627 1.429 . S
C2624 C2607 1.574 . S
C2624 H2618 0.949 . S
C2624 C2628 1.368 . S
C2625 C2606 1.429 . S
C2625 C2619 1.429 . S
C2625 C2626 1.523 . S
C2626 C2607 1.368 . S
C2626 C2620 1.368 . S
C2626 C2625 1.523 . S
C2627 C2611 1.429 . S
C2627 C2623 1.429 . S
C2627 C2628 1.523 . S
C2628 C2612 1.368 . S
C2628 C2624 1.368 . S
C2628 C2627 1.523 . S
H2629 C2604 0.950 . S
H2630 C2606 0.950 . S
H2631 C2607 0.949 . S
H2632 C2609 0.950 . S
H2633 C2611 0.950 . S
C2634 C2635 1.349 . S
C2634 C2636 1.327 . S
C2634 H2659 0.950 . S
C2635 C2634 1.349 . S
C2635 C2651 1.349 . S
C2636 C2634 1.327 . S
C2636 C2655 1.429 . S
C2636 H2660 0.950 . S
C2637 C2654 1.574 . S
C2637 C2656 1.368 . S
C2637 H2661 0.949 . S
H2638 C2642 0.949 . S
C2639 C2640 1.349 . S
C2639 C2641 1.327 . S
C2639 H2662 0.950 . S
C2640 C2639 1.349 . S
C2640 C2652 1.349 . S
C2641 C2639 1.327 . S
C2641 C2657 1.429 . S
C2641 H2663 0.950 . S
C2642 H2638 0.949 . S
C2642 C2650 1.574 . S
C2642 C2658 1.368 . S
H2643 C2651 0.950 . S
H2644 C2649 0.950 . S
H2645 C2650 0.949 . S
H2646 C2652 0.950 . S
H2647 C2653 0.950 . S
H2648 C2654 0.949 . S
C2649 H2644 0.950 . S
C2649 C2651 1.327 . S
C2649 C2655 1.429 . S
C2650 C2642 1.574 . S
C2650 H2645 0.949 . S
C2650 C2656 1.368 . S
C2651 C2635 1.349 . S
C2651 H2643 0.950 . S
C2651 C2649 1.327 . S
C2652 C2640 1.349 . S
C2652 H2646 0.950 . S
C2652 C2653 1.327 . S
C2653 H2647 0.950 . S
C2653 C2652 1.327 . S
C2653 C2657 1.429 . S
C2654 C2637 1.574 . S
C2654 H2648 0.949 . S
C2654 C2658 1.368 . S
C2655 C2636 1.429 . S
C2655 C2649 1.429 . S
C2655 C2656 1.523 . S
C2656 C2637 1.368 . S
C2656 C2650 1.368 . S
C2656 C2655 1.523 . S
C2657 C2641 1.429 . S
C2657 C2653 1.429 . S
C2657 C2658 1.523 . S
C2658 C2642 1.368 . S
C2658 C2654 1.368 . S
C2658 C2657 1.523 . S
H2659 C2634 0.950 . S
H2660 C2636 0.950 . S
H2661 C2637 0.949 . S
H2662 C2639 0.950 . S
H2663 C2641 0.950 . S
C2664 C2665 1.349 . S
C2664 C2666 1.327 . S
C2664 H2689 0.950 . S
C2665 C2664 1.349 . S
C2665 C2681 1.349 . S
C2666 C2664 1.327 . S
C2666 C2685 1.429 . S
C2666 H2690 0.950 . S
C2667 C2684 1.574 . S
C2667 C2686 1.368 . S
C2667 H2691 0.949 . S
H2668 C2672 0.949 . S
C2669 C2670 1.349 . S
C2669 C2671 1.327 . S
C2669 H2692 0.950 . S
C2670 C2669 1.349 . S
C2670 C2682 1.349 . S
C2671 C2669 1.327 . S
C2671 C2687 1.429 . S
C2671 H2693 0.950 . S
C2672 H2668 0.949 . S
C2672 C2680 1.574 . S
C2672 C2688 1.368 . S
H2673 C2681 0.950 . S
H2674 C2679 0.950 . S
H2675 C2680 0.949 . S
H2676 C2682 0.950 . S
H2677 C2683 0.950 . S
H2678 C2684 0.949 . S
C2679 H2674 0.950 . S
C2679 C2681 1.327 . S
C2679 C2685 1.429 . S
C2680 C2672 1.574 . S
C2680 H2675 0.949 . S
C2680 C2686 1.368 . S
C2681 C2665 1.349 . S
C2681 H2673 0.950 . S
C2681 C2679 1.327 . S
C2682 C2670 1.349 . S
C2682 H2676 0.950 . S
C2682 C2683 1.327 . S
C2683 H2677 0.950 . S
C2683 C2682 1.327 . S
C2683 C2687 1.429 . S
C2684 C2667 1.574 . S
C2684 H2678 0.949 . S
C2684 C2688 1.368 . S
C2685 C2666 1.429 . S
C2685 C2679 1.429 . S
C2685 C2686 1.523 . S
C2686 C2667 1.368 . S
C2686 C2680 1.368 . S
C2686 C2685 1.523 . S
C2687 C2671 1.429 . S
C2687 C2683 1.429 . S
C2687 C2688 1.523 . S
C2688 C2672 1.368 . S
C2688 C2684 1.368 . S
C2688 C2687 1.523 . S
H2689 C2664 0.950 . S
H2690 C2666 0.950 . S
H2691 C2667 0.949 . S
H2692 C2669 0.950 . S
H2693 C2671 0.950 . S
C2694 C2695 1.349 . S
C2694 C2696 1.327 . S
C2694 H2719 0.950 . S
C2695 C2694 1.349 . S
C2695 C2711 1.349 . S
C2696 C2694 1.327 . S
C2696 C2715 1.429 . S
C2696 H2720 0.950 . S
C2697 C2714 1.574 . S
C2697 C2716 1.368 . S
C2697 H2721 0.949 . S
H2698 C2702 0.949 . S
C2699 C2700 1.349 . S
C2699 C2701 1.327 . S
C2699 H2722 0.950 . S
C2700 C2699 1.349 . S
C2700 C2712 1.349 . S
C2701 C2699 1.327 . S
C2701 C2717 1.429 . S
C2701 H2723 0.950 . S
C2702 H2698 0.949 . S
C2702 C2710 1.574 . S
C2702 C2718 1.368 . S
H2703 C2711 0.950 . S
H2704 C2709 0.950 . S
H2705 C2710 0.949 . S
H2706 C2712 0.950 . S
H2707 C2713 0.950 . S
H2708 C2714 0.949 . S
C2709 H2704 0.950 . S
C2709 C2711 1.327 . S
C2709 C2715 1.429 . S
C2710 C2702 1.574 . S
C2710 H2705 0.949 . S
C2710 C2716 1.368 . S
C2711 C2695 1.349 . S
C2711 H2703 0.950 . S
C2711 C2709 1.327 . S
C2712 C2700 1.349 . S
C2712 H2706 0.950 . S
C2712 C2713 1.327 . S
C2713 H2707 0.950 . S
C2713 C2712 1.327 . S
C2713 C2717 1.429 . S
C2714 C2697 1.574 . S
C2714 H2708 0.949 . S
C2714 C2718 1.368 . S
C2715 C2696 1.429 . S
C2715 C2709 1.429 . S
C2715 C2716 1.523 . S
C2716 C2697 1.368 . S
C2716 C2710 1.368 . S
C2716 C2715 1.523 . S
C2717 C2701 1.429 . S
C2717 C2713 1.429 . S
C2717 C2718 1.523 . S
C2718 C2702 1.368 . S
C2718 C2714 1.368 . S
C2718 C2717 1.523 . S
H2719 C2694 0.950 . S
H2720 C2696 0.950 . S
H2721 C2697 0.949 . S
H2722 C2699 0.950 . S
H2723 C2701 0.950 . S
C2724 C2725 1.349 . S
C2724 C2726 1.327 . S
C2724 H2749 0.950 . S
C2725 C2724 1.349 . S
C2725 C2741 1.349 . S
C2726 C2724 1.327 . S
C2726 C2745 1.429 . S
C2726 H2750 0.950 . S
C2727 C2744 1.574 . S
C2727 C2746 1.368 . S
C2727 H2751 0.949 . S
H2728 C2732 0.949 . S
C2729 C2730 1.349 . S
C2729 C2731 1.327 . S
C2729 H2752 0.950 . S
C2730 C2729 1.349 . S
C2730 C2742 1.349 . S
C2731 C2729 1.327 . S
C2731 C2747 1.429 . S
C2731 H2753 0.950 . S
C2732 H2728 0.949 . S
C2732 C2740 1.574 . S
C2732 C2748 1.368 . S
H2733 C2741 0.950 . S
H2734 C2739 0.950 . S
H2735 C2740 0.949 . S
H2736 C2742 0.950 . S
H2737 C2743 0.950 . S
H2738 C2744 0.949 . S
C2739 H2734 0.950 . S
C2739 C2741 1.327 . S
C2739 C2745 1.429 . S
C2740 C2732 1.574 . S
C2740 H2735 0.949 . S
C2740 C2746 1.368 . S
C2741 C2725 1.349 . S
C2741 H2733 0.950 . S
C2741 C2739 1.327 . S
C2742 C2730 1.349 . S
C2742 H2736 0.950 . S
C2742 C2743 1.327 . S
C2743 H2737 0.950 . S
C2743 C2742 1.327 . S
C2743 C2747 1.429 . S
C2744 C2727 1.574 . S
C2744 H2738 0.949 . S
C2744 C2748 1.368 . S
C2745 C2726 1.429 . S
C2745 C2739 1.429 . S
C2745 C2746 1.523 . S
C2746 C2727 1.368 . S
C2746 C2740 1.368 . S
C2746 C2745 1.523 . S
C2747 C2731 1.429 . S
C2747 C2743 1.429 . S
C2747 C2748 1.523 . S
C2748 C2732 1.368 . S
C2748 C2744 1.368 . S
C2748 C2747 1.523 . S
H2749 C2724 0.950 . S
H2750 C2726 0.950 . S
H2751 C2727 0.949 . S
H2752 C2729 0.950 . S
H2753 C2731 0.950 . S
C2754 C2755 1.349 . S
C2754 C2756 1.327 . S
C2754 H2779 0.950 . S
C2755 C2754 1.349 . S
C2755 C2771 1.349 . S
C2756 C2754 1.327 . S
C2756 C2775 1.429 . S
C2756 H2780 0.950 . S
C2757 C2774 1.574 . S
C2757 C2776 1.368 . S
C2757 H2781 0.949 . S
H2758 C2762 0.949 . S
C2759 C2760 1.349 . S
C2759 C2761 1.327 . S
C2759 H2782 0.950 . S
C2760 C2759 1.349 . S
C2760 C2772 1.349 . S
C2761 C2759 1.327 . S
C2761 C2777 1.429 . S
C2761 H2783 0.950 . S
C2762 H2758 0.949 . S
C2762 C2770 1.574 . S
C2762 C2778 1.368 . S
H2763 C2771 0.950 . S
H2764 C2769 0.950 . S
H2765 C2770 0.949 . S
H2766 C2772 0.950 . S
H2767 C2773 0.950 . S
H2768 C2774 0.949 . S
C2769 H2764 0.950 . S
C2769 C2771 1.327 . S
C2769 C2775 1.429 . S
C2770 C2762 1.574 . S
C2770 H2765 0.949 . S
C2770 C2776 1.368 . S
C2771 C2755 1.349 . S
C2771 H2763 0.950 . S
C2771 C2769 1.327 . S
C2772 C2760 1.349 . S
C2772 H2766 0.950 . S
C2772 C2773 1.327 . S
C2773 H2767 0.950 . S
C2773 C2772 1.327 . S
C2773 C2777 1.429 . S
C2774 C2757 1.574 . S
C2774 H2768 0.949 . S
C2774 C2778 1.368 . S
C2775 C2756 1.429 . S
C2775 C2769 1.429 . S
C2775 C2776 1.523 . S
C2776 C2757 1.368 . S
C2776 C2770 1.368 . S
C2776 C2775 1.523 . S
C2777 C2761 1.429 . S
C2777 C2773 1.429 . S
C2777 C2778 1.523 . S
C2778 C2762 1.368 . S
C2778 C2774 1.368 . S
C2778 C2777 1.523 . S
H2779 C2754 0.950 . S
H2780 C2756 0.950 . S
H2781 C2757 0.949 . S
H2782 C2759 0.950 . S
H2783 C2761 0.950 . S
C2784 C2785 1.349 . S
C2784 C2786 1.327 . S
C2784 H2809 0.950 . S
C2785 C2784 1.349 . S
C2785 C2801 1.349 . S
C2786 C2784 1.327 . S
C2786 C2805 1.429 . S
C2786 H2810 0.950 . S
C2787 C2804 1.574 . S
C2787 C2806 1.368 . S
C2787 H2811 0.949 . S
H2788 C2792 0.949 . S
C2789 C2790 1.349 . S
C2789 C2791 1.327 . S
C2789 H2812 0.950 . S
C2790 C2789 1.349 . S
C2790 C2802 1.349 . S
C2791 C2789 1.327 . S
C2791 C2807 1.429 . S
C2791 H2813 0.950 . S
C2792 H2788 0.949 . S
C2792 C2800 1.574 . S
C2792 C2808 1.368 . S
H2793 C2801 0.950 . S
H2794 C2799 0.950 . S
H2795 C2800 0.949 . S
H2796 C2802 0.950 . S
H2797 C2803 0.950 . S
H2798 C2804 0.949 . S
C2799 H2794 0.950 . S
C2799 C2801 1.327 . S
C2799 C2805 1.429 . S
C2800 C2792 1.574 . S
C2800 H2795 0.949 . S
C2800 C2806 1.368 . S
C2801 C2785 1.349 . S
C2801 H2793 0.950 . S
C2801 C2799 1.327 . S
C2802 C2790 1.349 . S
C2802 H2796 0.950 . S
C2802 C2803 1.327 . S
C2803 H2797 0.950 . S
C2803 C2802 1.327 . S
C2803 C2807 1.429 . S
C2804 C2787 1.574 . S
C2804 H2798 0.949 . S
C2804 C2808 1.368 . S
C2805 C2786 1.429 . S
C2805 C2799 1.429 . S
C2805 C2806 1.523 . S
C2806 C2787 1.368 . S
C2806 C2800 1.368 . S
C2806 C2805 1.523 . S
C2807 C2791 1.429 . S
C2807 C2803 1.429 . S
C2807 C2808 1.523 . S
C2808 C2792 1.368 . S
C2808 C2804 1.368 . S
C2808 C2807 1.523 . S
H2809 C2784 0.950 . S
H2810 C2786 0.950 . S
H2811 C2787 0.949 . S
H2812 C2789 0.950 . S
H2813 C2791 0.950 . S
C2814 C2815 1.349 . S
C2814 C2816 1.327 . S
C2814 H2839 0.950 . S
C2815 C2814 1.349 . S
C2815 C2831 1.349 . S
C2816 C2814 1.327 . S
C2816 C2835 1.429 . S
C2816 H2840 0.950 . S
C2817 C2834 1.574 . S
C2817 C2836 1.368 . S
C2817 H2841 0.949 . S
H2818 C2822 0.949 . S
C2819 C2820 1.349 . S
C2819 C2821 1.327 . S
C2819 H2842 0.950 . S
C2820 C2819 1.349 . S
C2820 C2832 1.349 . S
C2821 C2819 1.327 . S
C2821 C2837 1.429 . S
C2821 H2843 0.950 . S
C2822 H2818 0.949 . S
C2822 C2830 1.574 . S
C2822 C2838 1.368 . S
H2823 C2831 0.950 . S
H2824 C2829 0.950 . S
H2825 C2830 0.949 . S
H2826 C2832 0.950 . S
H2827 C2833 0.950 . S
H2828 C2834 0.949 . S
C2829 H2824 0.950 . S
C2829 C2831 1.327 . S
C2829 C2835 1.429 . S
C2830 C2822 1.574 . S
C2830 H2825 0.949 . S
C2830 C2836 1.368 . S
C2831 C2815 1.349 . S
C2831 H2823 0.950 . S
C2831 C2829 1.327 . S
C2832 C2820 1.349 . S
C2832 H2826 0.950 . S
C2832 C2833 1.327 . S
C2833 H2827 0.950 . S
C2833 C2832 1.327 . S
C2833 C2837 1.429 . S
C2834 C2817 1.574 . S
C2834 H2828 0.949 . S
C2834 C2838 1.368 . S
C2835 C2816 1.429 . S
C2835 C2829 1.429 . S
C2835 C2836 1.523 . S
C2836 C2817 1.368 . S
C2836 C2830 1.368 . S
C2836 C2835 1.523 . S
C2837 C2821 1.429 . S
C2837 C2833 1.429 . S
C2837 C2838 1.523 . S
C2838 C2822 1.368 . S
C2838 C2834 1.368 . S
C2838 C2837 1.523 . S
H2839 C2814 0.950 . S
H2840 C2816 0.950 . S
H2841 C2817 0.949 . S
H2842 C2819 0.950 . S
H2843 C2821 0.950 . S
C2844 C2845 1.349 . S
C2844 C2846 1.327 . S
C2844 H2869 0.950 . S
C2845 C2844 1.349 . S
C2845 C2861 1.349 . S
C2846 C2844 1.327 . S
C2846 C2865 1.429 . S
C2846 H2870 0.950 . S
C2847 C2864 1.574 . S
C2847 C2866 1.368 . S
C2847 H2871 0.949 . S
H2848 C2852 0.949 . S
C2849 C2850 1.349 . S
C2849 C2851 1.327 . S
C2849 H2872 0.950 . S
C2850 C2849 1.349 . S
C2850 C2862 1.349 . S
C2851 C2849 1.327 . S
C2851 C2867 1.429 . S
C2851 H2873 0.950 . S
C2852 H2848 0.949 . S
C2852 C2860 1.574 . S
C2852 C2868 1.368 . S
H2853 C2861 0.950 . S
H2854 C2859 0.950 . S
H2855 C2860 0.949 . S
H2856 C2862 0.950 . S
H2857 C2863 0.950 . S
H2858 C2864 0.949 . S
C2859 H2854 0.950 . S
C2859 C2861 1.327 . S
C2859 C2865 1.429 . S
C2860 C2852 1.574 . S
C2860 H2855 0.949 . S
C2860 C2866 1.368 . S
C2861 C2845 1.349 . S
C2861 H2853 0.950 . S
C2861 C2859 1.327 . S
C2862 C2850 1.349 . S
C2862 H2856 0.950 . S
C2862 C2863 1.327 . S
C2863 H2857 0.950 . S
C2863 C2862 1.327 . S
C2863 C2867 1.429 . S
C2864 C2847 1.574 . S
C2864 H2858 0.949 . S
C2864 C2868 1.368 . S
C2865 C2846 1.429 . S
C2865 C2859 1.429 . S
C2865 C2866 1.523 . S
C2866 C2847 1.368 . S
C2866 C2860 1.368 . S
C2866 C2865 1.523 . S
C2867 C2851 1.429 . S
C2867 C2863 1.429 . S
C2867 C2868 1.523 . S
C2868 C2852 1.368 . S
C2868 C2864 1.368 . S
C2868 C2867 1.523 . S
H2869 C2844 0.950 . S
H2870 C2846 0.950 . S
H2871 C2847 0.949 . S
H2872 C2849 0.950 . S
H2873 C2851 0.950 . S
C2874 C2875 1.349 . S
C2874 C2876 1.327 . S
C2874 H2899 0.950 . S
C2875 C2874 1.349 . S
C2875 C2891 1.349 . S
C2876 C2874 1.327 . S
C2876 C2895 1.429 . S
C2876 H2900 0.950 . S
C2877 C2894 1.574 . S
C2877 C2896 1.368 . S
C2877 H2901 0.949 . S
H2878 C2882 0.949 . S
C2879 C2880 1.349 . S
C2879 C2881 1.327 . S
C2879 H2902 0.950 . S
C2880 C2879 1.349 . S
C2880 C2892 1.349 . S
C2881 C2879 1.327 . S
C2881 C2897 1.429 . S
C2881 H2903 0.950 . S
C2882 H2878 0.949 . S
C2882 C2890 1.574 . S
C2882 C2898 1.368 . S
H2883 C2891 0.950 . S
H2884 C2889 0.950 . S
H2885 C2890 0.949 . S
H2886 C2892 0.950 . S
H2887 C2893 0.950 . S
H2888 C2894 0.949 . S
C2889 H2884 0.950 . S
C2889 C2891 1.327 . S
C2889 C2895 1.429 . S
C2890 C2882 1.574 . S
C2890 H2885 0.949 . S
C2890 C2896 1.368 . S
C2891 C2875 1.349 . S
C2891 H2883 0.950 . S
C2891 C2889 1.327 . S
C2892 C2880 1.349 . S
C2892 H2886 0.950 . S
C2892 C2893 1.327 . S
C2893 H2887 0.950 . S
C2893 C2892 1.327 . S
C2893 C2897 1.429 . S
C2894 C2877 1.574 . S
C2894 H2888 0.949 . S
C2894 C2898 1.368 . S
C2895 C2876 1.429 . S
C2895 C2889 1.429 . S
C2895 C2896 1.523 . S
C2896 C2877 1.368 . S
C2896 C2890 1.368 . S
C2896 C2895 1.523 . S
C2897 C2881 1.429 . S
C2897 C2893 1.429 . S
C2897 C2898 1.523 . S
C2898 C2882 1.368 . S
C2898 C2894 1.368 . S
C2898 C2897 1.523 . S
H2899 C2874 0.950 . S
H2900 C2876 0.950 . S
H2901 C2877 0.949 . S
H2902 C2879 0.950 . S
H2903 C2881 0.950 . S
C2904 C2905 1.349 . S
C2904 C2906 1.327 . S
C2904 H2929 0.950 . S
C2905 C2904 1.349 . S
C2905 C2921 1.349 . S
C2906 C2904 1.327 . S
C2906 C2925 1.429 . S
C2906 H2930 0.950 . S
C2907 C2924 1.574 . S
C2907 C2926 1.368 . S
C2907 H2931 0.949 . S
H2908 C2912 0.949 . S
C2909 C2910 1.349 . S
C2909 C2911 1.327 . S
C2909 H2932 0.950 . S
C2910 C2909 1.349 . S
C2910 C2922 1.349 . S
C2911 C2909 1.327 . S
C2911 C2927 1.429 . S
C2911 H2933 0.950 . S
C2912 H2908 0.949 . S
C2912 C2920 1.574 . S
C2912 C2928 1.368 . S
H2913 C2921 0.950 . S
H2914 C2919 0.950 . S
H2915 C2920 0.949 . S
H2916 C2922 0.950 . S
H2917 C2923 0.950 . S
H2918 C2924 0.949 . S
C2919 H2914 0.950 . S
C2919 C2921 1.327 . S
C2919 C2925 1.429 . S
C2920 C2912 1.574 . S
C2920 H2915 0.949 . S
C2920 C2926 1.368 . S
C2921 C2905 1.349 . S
C2921 H2913 0.950 . S
C2921 C2919 1.327 . S
C2922 C2910 1.349 . S
C2922 H2916 0.950 . S
C2922 C2923 1.327 . S
C2923 H2917 0.950 . S
C2923 C2922 1.327 . S
C2923 C2927 1.429 . S
C2924 C2907 1.574 . S
C2924 H2918 0.949 . S
C2924 C2928 1.368 . S
C2925 C2906 1.429 . S
C2925 C2919 1.429 . S
C2925 C2926 1.523 . S
C2926 C2907 1.368 . S
C2926 C2920 1.368 . S
C2926 C2925 1.523 . S
C2927 C2911 1.429 . S
C2927 C2923 1.429 . S
C2927 C2928 1.523 . S
C2928 C2912 1.368 . S
C2928 C2924 1.368 . S
C2928 C2927 1.523 . S
H2929 C2904 0.950 . S
H2930 C2906 0.950 . S
H2931 C2907 0.949 . S
H2932 C2909 0.950 . S
H2933 C2911 0.950 . S
C2934 C2935 1.349 . S
C2934 C2936 1.327 . S
C2934 H2959 0.950 . S
C2935 C2934 1.349 . S
C2935 C2951 1.349 . S
C2936 C2934 1.327 . S
C2936 C2955 1.429 . S
C2936 H2960 0.950 . S
C2937 C2954 1.574 . S
C2937 C2956 1.368 . S
C2937 H2961 0.949 . S
H2938 C2942 0.949 . S
C2939 C2940 1.349 . S
C2939 C2941 1.327 . S
C2939 H2962 0.950 . S
C2940 C2939 1.349 . S
C2940 C2952 1.349 . S
C2941 C2939 1.327 . S
C2941 C2957 1.429 . S
C2941 H2963 0.950 . S
C2942 H2938 0.949 . S
C2942 C2950 1.574 . S
C2942 C2958 1.368 . S
H2943 C2951 0.950 . S
H2944 C2949 0.950 . S
H2945 C2950 0.949 . S
H2946 C2952 0.950 . S
H2947 C2953 0.950 . S
H2948 C2954 0.949 . S
C2949 H2944 0.950 . S
C2949 C2951 1.327 . S
C2949 C2955 1.429 . S
C2950 C2942 1.574 . S
C2950 H2945 0.949 . S
C2950 C2956 1.368 . S
C2951 C2935 1.349 . S
C2951 H2943 0.950 . S
C2951 C2949 1.327 . S
C2952 C2940 1.349 . S
C2952 H2946 0.950 . S
C2952 C2953 1.327 . S
C2953 H2947 0.950 . S
C2953 C2952 1.327 . S
C2953 C2957 1.429 . S
C2954 C2937 1.574 . S
C2954 H2948 0.949 . S
C2954 C2958 1.368 . S
C2955 C2936 1.429 . S
C2955 C2949 1.429 . S
C2955 C2956 1.523 . S
C2956 C2937 1.368 . S
C2956 C2950 1.368 . S
C2956 C2955 1.523 . S
C2957 C2941 1.429 . S
C2957 C2953 1.429 . S
C2957 C2958 1.523 . S
C2958 C2942 1.368 . S
C2958 C2954 1.368 . S
C2958 C2957 1.523 . S
H2959 C2934 0.950 . S
H2960 C2936 0.950 . S
H2961 C2937 0.949 . S
H2962 C2939 0.950 . S
H2963 C2941 0.950 . S
C2964 C2965 1.349 . S
C2964 C2966 1.327 . S
C2964 H2989 0.950 . S
C2965 C2964 1.349 . S
C2965 C2981 1.349 . S
C2966 C2964 1.327 . S
C2966 C2985 1.429 . S
C2966 H2990 0.950 . S
C2967 C2984 1.574 . S
C2967 C2986 1.368 . S
C2967 H2991 0.949 . S
H2968 C2972 0.949 . S
C2969 C2970 1.349 . S
C2969 C2971 1.327 . S
C2969 H2992 0.950 . S
C2970 C2969 1.349 . S
C2970 C2982 1.349 . S
C2971 C2969 1.327 . S
C2971 C2987 1.429 . S
C2971 H2993 0.950 . S
C2972 H2968 0.949 . S
C2972 C2980 1.574 . S
C2972 C2988 1.368 . S
H2973 C2981 0.950 . S
H2974 C2979 0.950 . S
H2975 C2980 0.949 . S
H2976 C2982 0.950 . S
H2977 C2983 0.950 . S
H2978 C2984 0.949 . S
C2979 H2974 0.950 . S
C2979 C2981 1.327 . S
C2979 C2985 1.429 . S
C2980 C2972 1.574 . S
C2980 H2975 0.949 . S
C2980 C2986 1.368 . S
C2981 C2965 1.349 . S
C2981 H2973 0.950 . S
C2981 C2979 1.327 . S
C2982 C2970 1.349 . S
C2982 H2976 0.950 . S
C2982 C2983 1.327 . S
C2983 H2977 0.950 . S
C2983 C2982 1.327 . S
C2983 C2987 1.429 . S
C2984 C2967 1.574 . S
C2984 H2978 0.949 . S
C2984 C2988 1.368 . S
C2985 C2966 1.429 . S
C2985 C2979 1.429 . S
C2985 C2986 1.523 . S
C2986 C2967 1.368 . S
C2986 C2980 1.368 . S
C2986 C2985 1.523 . S
C2987 C2971 1.429 . S
C2987 C2983 1.429 . S
C2987 C2988 1.523 . S
C2988 C2972 1.368 . S
C2988 C2984 1.368 . S
C2988 C2987 1.523 . S
H2989 C2964 0.950 . S
H2990 C2966 0.950 . S
H2991 C2967 0.949 . S
H2992 C2969 0.950 . S
H2993 C2971 0.950 . S
C2994 C2995 1.349 . S
C2994 C2996 1.327 . S
C2994 H3019 0.950 . S
C2995 C2994 1.349 . S
C2995 C3011 1.349 . S
C2996 C2994 1.327 . S
C2996 C3015 1.429 . S
C2996 H3020 0.950 . S
C2997 C3014 1.574 . S
C2997 C3016 1.368 . S
C2997 H3021 0.949 . S
H2998 C3002 0.949 . S
C2999 C3000 1.349 . S
C2999 C3001 1.327 . S
C2999 H3022 0.950 . S
C3000 C2999 1.349 . S
C3000 C3012 1.349 . S
C3001 C2999 1.327 . S
C3001 C3017 1.429 . S
C3001 H3023 0.950 . S
C3002 H2998 0.949 . S
C3002 C3010 1.574 . S
C3002 C3018 1.368 . S
H3003 C3011 0.950 . S
H3004 C3009 0.950 . S
H3005 C3010 0.949 . S
H3006 C3012 0.950 . S
H3007 C3013 0.950 . S
H3008 C3014 0.949 . S
C3009 H3004 0.950 . S
C3009 C3011 1.327 . S
C3009 C3015 1.429 . S
C3010 C3002 1.574 . S
C3010 H3005 0.949 . S
C3010 C3016 1.368 . S
C3011 C2995 1.349 . S
C3011 H3003 0.950 . S
C3011 C3009 1.327 . S
C3012 C3000 1.349 . S
C3012 H3006 0.950 . S
C3012 C3013 1.327 . S
C3013 H3007 0.950 . S
C3013 C3012 1.327 . S
C3013 C3017 1.429 . S
C3014 C2997 1.574 . S
C3014 H3008 0.949 . S
C3014 C3018 1.368 . S
C3015 C2996 1.429 . S
C3015 C3009 1.429 . S
C3015 C3016 1.523 . S
C3016 C2997 1.368 . S
C3016 C3010 1.368 . S
C3016 C3015 1.523 . S
C3017 C3001 1.429 . S
C3017 C3013 1.429 . S
C3017 C3018 1.523 . S
C3018 C3002 1.368 . S
C3018 C3014 1.368 . S
C3018 C3017 1.523 . S
H3019 C2994 0.950 . S
H3020 C2996 0.950 . S
H3021 C2997 0.949 . S
H3022 C2999 0.950 . S
H3023 C3001 0.950 . S
C3024 C3025 1.349 . S
C3024 C3026 1.327 . S
C3024 H3049 0.950 . S
C3025 C3024 1.349 . S
C3025 C3041 1.349 . S
C3026 C3024 1.327 . S
C3026 C3045 1.429 . S
C3026 H3050 0.950 . S
C3027 C3044 1.574 . S
C3027 C3046 1.368 . S
C3027 H3051 0.949 . S
H3028 C3032 0.949 . S
C3029 C3030 1.349 . S
C3029 C3031 1.327 . S
C3029 H3052 0.950 . S
C3030 C3029 1.349 . S
C3030 C3042 1.349 . S
C3031 C3029 1.327 . S
C3031 C3047 1.429 . S
C3031 H3053 0.950 . S
C3032 H3028 0.949 . S
C3032 C3040 1.574 . S
C3032 C3048 1.368 . S
H3033 C3041 0.950 . S
H3034 C3039 0.950 . S
H3035 C3040 0.949 . S
H3036 C3042 0.950 . S
H3037 C3043 0.950 . S
H3038 C3044 0.949 . S
C3039 H3034 0.950 . S
C3039 C3041 1.327 . S
C3039 C3045 1.429 . S
C3040 C3032 1.574 . S
C3040 H3035 0.949 . S
C3040 C3046 1.368 . S
C3041 C3025 1.349 . S
C3041 H3033 0.950 . S
C3041 C3039 1.327 . S
C3042 C3030 1.349 . S
C3042 H3036 0.950 . S
C3042 C3043 1.327 . S
C3043 H3037 0.950 . S
C3043 C3042 1.327 . S
C3043 C3047 1.429 . S
C3044 C3027 1.574 . S
C3044 H3038 0.949 . S
C3044 C3048 1.368 . S
C3045 C3026 1.429 . S
C3045 C3039 1.429 . S
C3045 C3046 1.523 . S
C3046 C3027 1.368 . S
C3046 C3040 1.368 . S
C3046 C3045 1.523 . S
C3047 C3031 1.429 . S
C3047 C3043 1.429 . S
C3047 C3048 1.523 . S
C3048 C3032 1.368 . S
C3048 C3044 1.368 . S
C3048 C3047 1.523 . S
H3049 C3024 0.950 . S
H3050 C3026 0.950 . S
H3051 C3027 0.949 . S
H3052 C3029 0.950 . S
H3053 C3031 0.950 . S
C3054 C3055 1.349 . S
C3054 C3056 1.327 . S
C3054 H3079 0.950 . S
C3055 C3054 1.349 . S
C3055 C3071 1.349 . S
C3056 C3054 1.327 . S
C3056 C3075 1.429 . S
C3056 H3080 0.950 . S
C3057 C3074 1.574 . S
C3057 C3076 1.368 . S
C3057 H3081 0.949 . S
H3058 C3062 0.949 . S
C3059 C3060 1.349 . S
C3059 C3061 1.327 . S
C3059 H3082 0.950 . S
C3060 C3059 1.349 . S
C3060 C3072 1.349 . S
C3061 C3059 1.327 . S
C3061 C3077 1.429 . S
C3061 H3083 0.950 . S
C3062 H3058 0.949 . S
C3062 C3070 1.574 . S
C3062 C3078 1.368 . S
H3063 C3071 0.950 . S
H3064 C3069 0.950 . S
H3065 C3070 0.949 . S
H3066 C3072 0.950 . S
H3067 C3073 0.950 . S
H3068 C3074 0.949 . S
C3069 H3064 0.950 . S
C3069 C3071 1.327 . S
C3069 C3075 1.429 . S
C3070 C3062 1.574 . S
C3070 H3065 0.949 . S
C3070 C3076 1.368 . S
C3071 C3055 1.349 . S
C3071 H3063 0.950 . S
C3071 C3069 1.327 . S
C3072 C3060 1.349 . S
C3072 H3066 0.950 . S
C3072 C3073 1.327 . S
C3073 H3067 0.950 . S
C3073 C3072 1.327 . S
C3073 C3077 1.429 . S
C3074 C3057 1.574 . S
C3074 H3068 0.949 . S
C3074 C3078 1.368 . S
C3075 C3056 1.429 . S
C3075 C3069 1.429 . S
C3075 C3076 1.523 . S
C3076 C3057 1.368 . S
C3076 C3070 1.368 . S
C3076 C3075 1.523 . S
C3077 C3061 1.429 . S
C3077 C3073 1.429 . S
C3077 C3078 1.523 . S
C3078 C3062 1.368 . S
C3078 C3074 1.368 . S
C3078 C3077 1.523 . S
H3079 C3054 0.950 . S
H3080 C3056 0.950 . S
H3081 C3057 0.949 . S
H3082 C3059 0.950 . S
H3083 C3061 0.950 . S
C3084 C3085 1.349 . S
C3084 C3086 1.327 . S
C3084 H3109 0.950 . S
C3085 C3084 1.349 . S
C3085 C3101 1.349 . S
C3086 C3084 1.327 . S
C3086 C3105 1.429 . S
C3086 H3110 0.950 . S
C3087 C3104 1.574 . S
C3087 C3106 1.368 . S
C3087 H3111 0.949 . S
H3088 C3092 0.949 . S
C3089 C3090 1.349 . S
C3089 C3091 1.327 . S
C3089 H3112 0.950 . S
C3090 C3089 1.349 . S
C3090 C3102 1.349 . S
C3091 C3089 1.327 . S
C3091 C3107 1.429 . S
C3091 H3113 0.950 . S
C3092 H3088 0.949 . S
C3092 C3100 1.574 . S
C3092 C3108 1.368 . S
H3093 C3101 0.950 . S
H3094 C3099 0.950 . S
H3095 C3100 0.949 . S
H3096 C3102 0.950 . S
H3097 C3103 0.950 . S
H3098 C3104 0.949 . S
C3099 H3094 0.950 . S
C3099 C3101 1.327 . S
C3099 C3105 1.429 . S
C3100 C3092 1.574 . S
C3100 H3095 0.949 . S
C3100 C3106 1.368 . S
C3101 C3085 1.349 . S
C3101 H3093 0.950 . S
C3101 C3099 1.327 . S
C3102 C3090 1.349 . S
C3102 H3096 0.950 . S
C3102 C3103 1.327 . S
C3103 H3097 0.950 . S
C3103 C3102 1.327 . S
C3103 C3107 1.429 . S
C3104 C3087 1.574 . S
C3104 H3098 0.949 . S
C3104 C3108 1.368 . S
C3105 C3086 1.429 . S
C3105 C3099 1.429 . S
C3105 C3106 1.523 . S
C3106 C3087 1.368 . S
C3106 C3100 1.368 . S
C3106 C3105 1.523 . S
C3107 C3091 1.429 . S
C3107 C3103 1.429 . S
C3107 C3108 1.523 . S
C3108 C3092 1.368 . S
C3108 C3104 1.368 . S
C3108 C3107 1.523 . S
H3109 C3084 0.950 . S
H3110 C3086 0.950 . S
H3111 C3087 0.949 . S
H3112 C3089 0.950 . S
H3113 C3091 0.950 . S
C3114 C3115 1.349 . S
C3114 C3116 1.327 . S
C3114 H3139 0.950 . S
C3115 C3114 1.349 . S
C3115 C3131 1.349 . S
C3116 C3114 1.327 . S
C3116 C3135 1.429 . S
C3116 H3140 0.950 . S
C3117 C3134 1.574 . S
C3117 C3136 1.368 . S
C3117 H3141 0.949 . S
H3118 C3122 0.949 . S
C3119 C3120 1.349 . S
C3119 C3121 1.327 . S
C3119 H3142 0.950 . S
C3120 C3119 1.349 . S
C3120 C3132 1.349 . S
C3121 C3119 1.327 . S
C3121 C3137 1.429 . S
C3121 H3143 0.950 . S
C3122 H3118 0.949 . S
C3122 C3130 1.574 . S
C3122 C3138 1.368 . S
H3123 C3131 0.950 . S
H3124 C3129 0.950 . S
H3125 C3130 0.949 . S
H3126 C3132 0.950 . S
H3127 C3133 0.950 . S
H3128 C3134 0.949 . S
C3129 H3124 0.950 . S
C3129 C3131 1.327 . S
C3129 C3135 1.429 . S
C3130 C3122 1.574 . S
C3130 H3125 0.949 . S
C3130 C3136 1.368 . S
C3131 C3115 1.349 . S
C3131 H3123 0.950 . S
C3131 C3129 1.327 . S
C3132 C3120 1.349 . S
C3132 H3126 0.950 . S
C3132 C3133 1.327 . S
C3133 H3127 0.950 . S
C3133 C3132 1.327 . S
C3133 C3137 1.429 . S
C3134 C3117 1.574 . S
C3134 H3128 0.949 . S
C3134 C3138 1.368 . S
C3135 C3116 1.429 . S
C3135 C3129 1.429 . S
C3135 C3136 1.523 . S
C3136 C3117 1.368 . S
C3136 C3130 1.368 . S
C3136 C3135 1.523 . S
C3137 C3121 1.429 . S
C3137 C3133 1.429 . S
C3137 C3138 1.523 . S
C3138 C3122 1.368 . S
C3138 C3134 1.368 . S
C3138 C3137 1.523 . S
H3139 C3114 0.950 . S
H3140 C3116 0.950 . S
H3141 C3117 0.949 . S
H3142 C3119 0.950 . S
H3143 C3121 0.950 . S
C3144 C3145 1.349 . S
C3144 C3146 1.327 . S
C3144 H3169 0.950 . S
C3145 C3144 1.349 . S
C3145 C3161 1.349 . S
C3146 C3144 1.327 . S
C3146 C3165 1.429 . S
C3146 H3170 0.950 . S
C3147 C3164 1.574 . S
C3147 C3166 1.368 . S
C3147 H3171 0.949 . S
H3148 C3152 0.949 . S
C3149 C3150 1.349 . S
C3149 C3151 1.327 . S
C3149 H3172 0.950 . S
C3150 C3149 1.349 . S
C3150 C3162 1.349 . S
C3151 C3149 1.327 . S
C3151 C3167 1.429 . S
C3151 H3173 0.950 . S
C3152 H3148 0.949 . S
C3152 C3160 1.574 . S
C3152 C3168 1.368 . S
H3153 C3161 0.950 . S
H3154 C3159 0.950 . S
H3155 C3160 0.949 . S
H3156 C3162 0.950 . S
H3157 C3163 0.950 . S
H3158 C3164 0.949 . S
C3159 H3154 0.950 . S
C3159 C3161 1.327 . S
C3159 C3165 1.429 . S
C3160 C3152 1.574 . S
C3160 H3155 0.949 . S
C3160 C3166 1.368 . S
C3161 C3145 1.349 . S
C3161 H3153 0.950 . S
C3161 C3159 1.327 . S
C3162 C3150 1.349 . S
C3162 H3156 0.950 . S
C3162 C3163 1.327 . S
C3163 H3157 0.950 . S
C3163 C3162 1.327 . S
C3163 C3167 1.429 . S
C3164 C3147 1.574 . S
C3164 H3158 0.949 . S
C3164 C3168 1.368 . S
C3165 C3146 1.429 . S
C3165 C3159 1.429 . S
C3165 C3166 1.523 . S
C3166 C3147 1.368 . S
C3166 C3160 1.368 . S
C3166 C3165 1.523 . S
C3167 C3151 1.429 . S
C3167 C3163 1.429 . S
C3167 C3168 1.523 . S
C3168 C3152 1.368 . S
C3168 C3164 1.368 . S
C3168 C3167 1.523 . S
H3169 C3144 0.950 . S
H3170 C3146 0.950 . S
H3171 C3147 0.949 . S
H3172 C3149 0.950 . S
H3173 C3151 0.950 . S
C3174 C3175 1.349 . S
C3174 C3176 1.327 . S
C3174 H3199 0.950 . S
C3175 C3174 1.349 . S
C3175 C3191 1.349 . S
C3176 C3174 1.327 . S
C3176 C3195 1.429 . S
C3176 H3200 0.950 . S
C3177 C3194 1.574 . S
C3177 C3196 1.368 . S
C3177 H3201 0.949 . S
H3178 C3182 0.949 . S
C3179 C3180 1.349 . S
C3179 C3181 1.327 . S
C3179 H3202 0.950 . S
C3180 C3179 1.349 . S
C3180 C3192 1.349 . S
C3181 C3179 1.327 . S
C3181 C3197 1.429 . S
C3181 H3203 0.950 . S
C3182 H3178 0.949 . S
C3182 C3190 1.574 . S
C3182 C3198 1.368 . S
H3183 C3191 0.950 . S
H3184 C3189 0.950 . S
H3185 C3190 0.949 . S
H3186 C3192 0.950 . S
H3187 C3193 0.950 . S
H3188 C3194 0.949 . S
C3189 H3184 0.950 . S
C3189 C3191 1.327 . S
C3189 C3195 1.429 . S
C3190 C3182 1.574 . S
C3190 H3185 0.949 . S
C3190 C3196 1.368 . S
C3191 C3175 1.349 . S
C3191 H3183 0.950 . S
C3191 C3189 1.327 . S
C3192 C3180 1.349 . S
C3192 H3186 0.950 . S
C3192 C3193 1.327 . S
C3193 H3187 0.950 . S
C3193 C3192 1.327 . S
C3193 C3197 1.429 . S
C3194 C3177 1.574 . S
C3194 H3188 0.949 . S
C3194 C3198 1.368 . S
C3195 C3176 1.429 . S
C3195 C3189 1.429 . S
C3195 C3196 1.523 . S
C3196 C3177 1.368 . S
C3196 C3190 1.368 . S
C3196 C3195 1.523 . S
C3197 C3181 1.429 . S
C3197 C3193 1.429 . S
C3197 C3198 1.523 . S
C3198 C3182 1.368 . S
C3198 C3194 1.368 . S
C3198 C3197 1.523 . S
H3199 C3174 0.950 . S
H3200 C3176 0.950 . S
H3201 C3177 0.949 . S
H3202 C3179 0.950 . S
H3203 C3181 0.950 . S
C3204 C3205 1.349 . S
C3204 C3206 1.327 . S
C3204 H3229 0.950 . S
C3205 C3204 1.349 . S
C3205 C3221 1.349 . S
C3206 C3204 1.327 . S
C3206 C3225 1.429 . S
C3206 H3230 0.950 . S
C3207 C3224 1.574 . S
C3207 C3226 1.368 . S
C3207 H3231 0.949 . S
H3208 C3212 0.949 . S
C3209 C3210 1.349 . S
C3209 C3211 1.327 . S
C3209 H3232 0.950 . S
C3210 C3209 1.349 . S
C3210 C3222 1.349 . S
C3211 C3209 1.327 . S
C3211 C3227 1.429 . S
C3211 H3233 0.950 . S
C3212 H3208 0.949 . S
C3212 C3220 1.574 . S
C3212 C3228 1.368 . S
H3213 C3221 0.950 . S
H3214 C3219 0.950 . S
H3215 C3220 0.949 . S
H3216 C3222 0.950 . S
H3217 C3223 0.950 . S
H3218 C3224 0.949 . S
C3219 H3214 0.950 . S
C3219 C3221 1.327 . S
C3219 C3225 1.429 . S
C3220 C3212 1.574 . S
C3220 H3215 0.949 . S
C3220 C3226 1.368 . S
C3221 C3205 1.349 . S
C3221 H3213 0.950 . S
C3221 C3219 1.327 . S
C3222 C3210 1.349 . S
C3222 H3216 0.950 . S
C3222 C3223 1.327 . S
C3223 H3217 0.950 . S
C3223 C3222 1.327 . S
C3223 C3227 1.429 . S
C3224 C3207 1.574 . S
C3224 H3218 0.949 . S
C3224 C3228 1.368 . S
C3225 C3206 1.429 . S
C3225 C3219 1.429 . S
C3225 C3226 1.523 . S
C3226 C3207 1.368 . S
C3226 C3220 1.368 . S
C3226 C3225 1.523 . S
C3227 C3211 1.429 . S
C3227 C3223 1.429 . S
C3227 C3228 1.523 . S
C3228 C3212 1.368 . S
C3228 C3224 1.368 . S
C3228 C3227 1.523 . S
H3229 C3204 0.950 . S
H3230 C3206 0.950 . S
H3231 C3207 0.949 . S
H3232 C3209 0.950 . S
H3233 C3211 0.950 . S
C3234 C3235 1.349 . S
C3234 C3236 1.327 . S
C3234 H3259 0.950 . S
C3235 C3234 1.349 . S
C3235 C3251 1.349 . S
C3236 C3234 1.327 . S
C3236 C3255 1.429 . S
C3236 H3260 0.950 . S
C3237 C3254 1.574 . S
C3237 C3256 1.368 . S
C3237 H3261 0.949 . S
H3238 C3242 0.949 . S
C3239 C3240 1.349 . S
C3239 C3241 1.327 . S
C3239 H3262 0.950 . S
C3240 C3239 1.349 . S
C3240 C3252 1.349 . S
C3241 C3239 1.327 . S
C3241 C3257 1.429 . S
C3241 H3263 0.950 . S
C3242 H3238 0.949 . S
C3242 C3250 1.574 . S
C3242 C3258 1.368 . S
H3243 C3251 0.950 . S
H3244 C3249 0.950 . S
H3245 C3250 0.949 . S
H3246 C3252 0.950 . S
H3247 C3253 0.950 . S
H3248 C3254 0.949 . S
C3249 H3244 0.950 . S
C3249 C3251 1.327 . S
C3249 C3255 1.429 . S
C3250 C3242 1.574 . S
C3250 H3245 0.949 . S
C3250 C3256 1.368 . S
C3251 C3235 1.349 . S
C3251 H3243 0.950 . S
C3251 C3249 1.327 . S
C3252 C3240 1.349 . S
C3252 H3246 0.950 . S
C3252 C3253 1.327 . S
C3253 H3247 0.950 . S
C3253 C3252 1.327 . S
C3253 C3257 1.429 . S
C3254 C3237 1.574 . S
C3254 H3248 0.949 . S
C3254 C3258 1.368 . S
C3255 C3236 1.429 . S
C3255 C3249 1.429 . S
C3255 C3256 1.523 . S
C3256 C3237 1.368 . S
C3256 C3250 1.368 . S
C3256 C3255 1.523 . S
C3257 C3241 1.429 . S
C3257 C3253 1.429 . S
C3257 C3258 1.523 . S
C3258 C3242 1.368 . S
C3258 C3254 1.368 . S
C3258 C3257 1.523 . S
H3259 C3234 0.950 . S
H3260 C3236 0.950 . S
H3261 C3237 0.949 . S
H3262 C3239 0.950 . S
H3263 C3241 0.950 . S
C3264 C3265 1.349 . S
C3264 C3266 1.327 . S
C3264 H3289 0.950 . S
C3265 C3264 1.349 . S
C3265 C3281 1.349 . S
C3266 C3264 1.327 . S
C3266 C3285 1.429 . S
C3266 H3290 0.950 . S
C3267 C3284 1.574 . S
C3267 C3286 1.368 . S
C3267 H3291 0.949 . S
H3268 C3272 0.949 . S
C3269 C3270 1.349 . S
C3269 C3271 1.327 . S
C3269 H3292 0.950 . S
C3270 C3269 1.349 . S
C3270 C3282 1.349 . S
C3271 C3269 1.327 . S
C3271 C3287 1.429 . S
C3271 H3293 0.950 . S
C3272 H3268 0.949 . S
C3272 C3280 1.574 . S
C3272 C3288 1.368 . S
H3273 C3281 0.950 . S
H3274 C3279 0.950 . S
H3275 C3280 0.949 . S
H3276 C3282 0.950 . S
H3277 C3283 0.950 . S
H3278 C3284 0.949 . S
C3279 H3274 0.950 . S
C3279 C3281 1.327 . S
C3279 C3285 1.429 . S
C3280 C3272 1.574 . S
C3280 H3275 0.949 . S
C3280 C3286 1.368 . S
C3281 C3265 1.349 . S
C3281 H3273 0.950 . S
C3281 C3279 1.327 . S
C3282 C3270 1.349 . S
C3282 H3276 0.950 . S
C3282 C3283 1.327 . S
C3283 H3277 0.950 . S
C3283 C3282 1.327 . S
C3283 C3287 1.429 . S
C3284 C3267 1.574 . S
C3284 H3278 0.949 . S
C3284 C3288 1.368 . S
C3285 C3266 1.429 . S
C3285 C3279 1.429 . S
C3285 C3286 1.523 . S
C3286 C3267 1.368 . S
C3286 C3280 1.368 . S
C3286 C3285 1.523 . S
C3287 C3271 1.429 . S
C3287 C3283 1.429 . S
C3287 C3288 1.523 . S
C3288 C3272 1.368 . S
C3288 C3284 1.368 . S
C3288 C3287 1.523 . S
H3289 C3264 0.950 . S
H3290 C3266 0.950 . S
H3291 C3267 0.949 . S
H3292 C3269 0.950 . S
H3293 C3271 0.950 . S
C3294 C3295 1.349 . S
C3294 C3296 1.327 . S
C3294 H3319 0.950 . S
C3295 C3294 1.349 . S
C3295 C3311 1.349 . S
C3296 C3294 1.327 . S
C3296 C3315 1.429 . S
C3296 H3320 0.950 . S
C3297 C3314 1.574 . S
C3297 C3316 1.368 . S
C3297 H3321 0.949 . S
H3298 C3302 0.949 . S
C3299 C3300 1.349 . S
C3299 C3301 1.327 . S
C3299 H3322 0.950 . S
C3300 C3299 1.349 . S
C3300 C3312 1.349 . S
C3301 C3299 1.327 . S
C3301 C3317 1.429 . S
C3301 H3323 0.950 . S
C3302 H3298 0.949 . S
C3302 C3310 1.574 . S
C3302 C3318 1.368 . S
H3303 C3311 0.950 . S
H3304 C3309 0.950 . S
H3305 C3310 0.949 . S
H3306 C3312 0.950 . S
H3307 C3313 0.950 . S
H3308 C3314 0.949 . S
C3309 H3304 0.950 . S
C3309 C3311 1.327 . S
C3309 C3315 1.429 . S
C3310 C3302 1.574 . S
C3310 H3305 0.949 . S
C3310 C3316 1.368 . S
C3311 C3295 1.349 . S
C3311 H3303 0.950 . S
C3311 C3309 1.327 . S
C3312 C3300 1.349 . S
C3312 H3306 0.950 . S
C3312 C3313 1.327 . S
C3313 H3307 0.950 . S
C3313 C3312 1.327 . S
C3313 C3317 1.429 . S
C3314 C3297 1.574 . S
C3314 H3308 0.949 . S
C3314 C3318 1.368 . S
C3315 C3296 1.429 . S
C3315 C3309 1.429 . S
C3315 C3316 1.523 . S
C3316 C3297 1.368 . S
C3316 C3310 1.368 . S
C3316 C3315 1.523 . S
C3317 C3301 1.429 . S
C3317 C3313 1.429 . S
C3317 C3318 1.523 . S
C3318 C3302 1.368 . S
C3318 C3314 1.368 . S
C3318 C3317 1.523 . S
H3319 C3294 0.950 . S
H3320 C3296 0.950 . S
H3321 C3297 0.949 . S
H3322 C3299 0.950 . S
H3323 C3301 0.950 . S
C3324 C3325 1.349 . S
C3324 C3326 1.327 . S
C3324 H3349 0.950 . S
C3325 C3324 1.349 . S
C3325 C3341 1.349 . S
C3326 C3324 1.327 . S
C3326 C3345 1.429 . S
C3326 H3350 0.950 . S
C3327 C3344 1.574 . S
C3327 C3346 1.368 . S
C3327 H3351 0.949 . S
H3328 C3332 0.949 . S
C3329 C3330 1.349 . S
C3329 C3331 1.327 . S
C3329 H3352 0.950 . S
C3330 C3329 1.349 . S
C3330 C3342 1.349 . S
C3331 C3329 1.327 . S
C3331 C3347 1.429 . S
C3331 H3353 0.950 . S
C3332 H3328 0.949 . S
C3332 C3340 1.574 . S
C3332 C3348 1.368 . S
H3333 C3341 0.950 . S
H3334 C3339 0.950 . S
H3335 C3340 0.949 . S
H3336 C3342 0.950 . S
H3337 C3343 0.950 . S
H3338 C3344 0.949 . S
C3339 H3334 0.950 . S
C3339 C3341 1.327 . S
C3339 C3345 1.429 . S
C3340 C3332 1.574 . S
C3340 H3335 0.949 . S
C3340 C3346 1.368 . S
C3341 C3325 1.349 . S
C3341 H3333 0.950 . S
C3341 C3339 1.327 . S
C3342 C3330 1.349 . S
C3342 H3336 0.950 . S
C3342 C3343 1.327 . S
C3343 H3337 0.950 . S
C3343 C3342 1.327 . S
C3343 C3347 1.429 . S
C3344 C3327 1.574 . S
C3344 H3338 0.949 . S
C3344 C3348 1.368 . S
C3345 C3326 1.429 . S
C3345 C3339 1.429 . S
C3345 C3346 1.523 . S
C3346 C3327 1.368 . S
C3346 C3340 1.368 . S
C3346 C3345 1.523 . S
C3347 C3331 1.429 . S
C3347 C3343 1.429 . S
C3347 C3348 1.523 . S
C3348 C3332 1.368 . S
C3348 C3344 1.368 . S
C3348 C3347 1.523 . S
H3349 C3324 0.950 . S
H3350 C3326 0.950 . S
H3351 C3327 0.949 . S
H3352 C3329 0.950 . S
H3353 C3331 0.950 . S
C3354 C3355 1.349 . S
C3354 C3356 1.327 . S
C3354 H3379 0.950 . S
C3355 C3354 1.349 . S
C3355 C3371 1.349 . S
C3356 C3354 1.327 . S
C3356 C3375 1.429 . S
C3356 H3380 0.950 . S
C3357 C3374 1.574 . S
C3357 C3376 1.368 . S
C3357 H3381 0.949 . S
H3358 C3362 0.949 . S
C3359 C3360 1.349 . S
C3359 C3361 1.327 . S
C3359 H3382 0.950 . S
C3360 C3359 1.349 . S
C3360 C3372 1.349 . S
C3361 C3359 1.327 . S
C3361 C3377 1.429 . S
C3361 H3383 0.950 . S
C3362 H3358 0.949 . S
C3362 C3370 1.574 . S
C3362 C3378 1.368 . S
H3363 C3371 0.950 . S
H3364 C3369 0.950 . S
H3365 C3370 0.949 . S
H3366 C3372 0.950 . S
H3367 C3373 0.950 . S
H3368 C3374 0.949 . S
C3369 H3364 0.950 . S
C3369 C3371 1.327 . S
C3369 C3375 1.429 . S
C3370 C3362 1.574 . S
C3370 H3365 0.949 . S
C3370 C3376 1.368 . S
C3371 C3355 1.349 . S
C3371 H3363 0.950 . S
C3371 C3369 1.327 . S
C3372 C3360 1.349 . S
C3372 H3366 0.950 . S
C3372 C3373 1.327 . S
C3373 H3367 0.950 . S
C3373 C3372 1.327 . S
C3373 C3377 1.429 . S
C3374 C3357 1.574 . S
C3374 H3368 0.949 . S
C3374 C3378 1.368 . S
C3375 C3356 1.429 . S
C3375 C3369 1.429 . S
C3375 C3376 1.523 . S
C3376 C3357 1.368 . S
C3376 C3370 1.368 . S
C3376 C3375 1.523 . S
C3377 C3361 1.429 . S
C3377 C3373 1.429 . S
C3377 C3378 1.523 . S
C3378 C3362 1.368 . S
C3378 C3374 1.368 . S
C3378 C3377 1.523 . S
H3379 C3354 0.950 . S
H3380 C3356 0.950 . S
H3381 C3357 0.949 . S
H3382 C3359 0.950 . S
H3383 C3361 0.950 . S
C3384 C3385 1.349 . S
C3384 C3386 1.327 . S
C3384 H3409 0.950 . S
C3385 C3384 1.349 . S
C3385 C3401 1.349 . S
C3386 C3384 1.327 . S
C3386 C3405 1.429 . S
C3386 H3410 0.950 . S
C3387 C3404 1.574 . S
C3387 C3406 1.368 . S
C3387 H3411 0.949 . S
H3388 C3392 0.949 . S
C3389 C3390 1.349 . S
C3389 C3391 1.327 . S
C3389 H3412 0.950 . S
C3390 C3389 1.349 . S
C3390 C3402 1.349 . S
C3391 C3389 1.327 . S
C3391 C3407 1.429 . S
C3391 H3413 0.950 . S
C3392 H3388 0.949 . S
C3392 C3400 1.574 . S
C3392 C3408 1.368 . S
H3393 C3401 0.950 . S
H3394 C3399 0.950 . S
H3395 C3400 0.949 . S
H3396 C3402 0.950 . S
H3397 C3403 0.950 . S
H3398 C3404 0.949 . S
C3399 H3394 0.950 . S
C3399 C3401 1.327 . S
C3399 C3405 1.429 . S
C3400 C3392 1.574 . S
C3400 H3395 0.949 . S
C3400 C3406 1.368 . S
C3401 C3385 1.349 . S
C3401 H3393 0.950 . S
C3401 C3399 1.327 . S
C3402 C3390 1.349 . S
C3402 H3396 0.950 . S
C3402 C3403 1.327 . S
C3403 H3397 0.950 . S
C3403 C3402 1.327 . S
C3403 C3407 1.429 . S
C3404 C3387 1.574 . S
C3404 H3398 0.949 . S
C3404 C3408 1.368 . S
C3405 C3386 1.429 . S
C3405 C3399 1.429 . S
C3405 C3406 1.523 . S
C3406 C3387 1.368 . S
C3406 C3400 1.368 . S
C3406 C3405 1.523 . S
C3407 C3391 1.429 . S
C3407 C3403 1.429 . S
C3407 C3408 1.523 . S
C3408 C3392 1.368 . S
C3408 C3404 1.368 . S
C3408 C3407 1.523 . S
H3409 C3384 0.950 . S
H3410 C3386 0.950 . S
H3411 C3387 0.949 . S
H3412 C3389 0.950 . S
H3413 C3391 0.950 . S
C3414 C3415 1.349 . S
C3414 C3416 1.327 . S
C3414 H3439 0.950 . S
C3415 C3414 1.349 . S
C3415 C3431 1.349 . S
C3416 C3414 1.327 . S
C3416 C3435 1.429 . S
C3416 H3440 0.950 . S
C3417 C3434 1.574 . S
C3417 C3436 1.368 . S
C3417 H3441 0.949 . S
H3418 C3422 0.949 . S
C3419 C3420 1.349 . S
C3419 C3421 1.327 . S
C3419 H3442 0.950 . S
C3420 C3419 1.349 . S
C3420 C3432 1.349 . S
C3421 C3419 1.327 . S
C3421 C3437 1.429 . S
C3421 H3443 0.950 . S
C3422 H3418 0.949 . S
C3422 C3430 1.574 . S
C3422 C3438 1.368 . S
H3423 C3431 0.950 . S
H3424 C3429 0.950 . S
H3425 C3430 0.949 . S
H3426 C3432 0.950 . S
H3427 C3433 0.950 . S
H3428 C3434 0.949 . S
C3429 H3424 0.950 . S
C3429 C3431 1.327 . S
C3429 C3435 1.429 . S
C3430 C3422 1.574 . S
C3430 H3425 0.949 . S
C3430 C3436 1.368 . S
C3431 C3415 1.349 . S
C3431 H3423 0.950 . S
C3431 C3429 1.327 . S
C3432 C3420 1.349 . S
C3432 H3426 0.950 . S
C3432 C3433 1.327 . S
C3433 H3427 0.950 . S
C3433 C3432 1.327 . S
C3433 C3437 1.429 . S
C3434 C3417 1.574 . S
C3434 H3428 0.949 . S
C3434 C3438 1.368 . S
C3435 C3416 1.429 . S
C3435 C3429 1.429 . S
C3435 C3436 1.523 . S
C3436 C3417 1.368 . S
C3436 C3430 1.368 . S
C3436 C3435 1.523 . S
C3437 C3421 1.429 . S
C3437 C3433 1.429 . S
C3437 C3438 1.523 . S
C3438 C3422 1.368 . S
C3438 C3434 1.368 . S
C3438 C3437 1.523 . S
H3439 C3414 0.950 . S
H3440 C3416 0.950 . S
H3441 C3417 0.949 . S
H3442 C3419 0.950 . S
H3443 C3421 0.950 . S
C3444 C3445 1.349 . S
C3444 C3446 1.327 . S
C3444 H3469 0.950 . S
C3445 C3444 1.349 . S
C3445 C3461 1.349 . S
C3446 C3444 1.327 . S
C3446 C3465 1.429 . S
C3446 H3470 0.950 . S
C3447 C3464 1.574 . S
C3447 C3466 1.368 . S
C3447 H3471 0.949 . S
H3448 C3452 0.949 . S
C3449 C3450 1.349 . S
C3449 C3451 1.327 . S
C3449 H3472 0.950 . S
C3450 C3449 1.349 . S
C3450 C3462 1.349 . S
C3451 C3449 1.327 . S
C3451 C3467 1.429 . S
C3451 H3473 0.950 . S
C3452 H3448 0.949 . S
C3452 C3460 1.574 . S
C3452 C3468 1.368 . S
H3453 C3461 0.950 . S
H3454 C3459 0.950 . S
H3455 C3460 0.949 . S
H3456 C3462 0.950 . S
H3457 C3463 0.950 . S
H3458 C3464 0.949 . S
C3459 H3454 0.950 . S
C3459 C3461 1.327 . S
C3459 C3465 1.429 . S
C3460 C3452 1.574 . S
C3460 H3455 0.949 . S
C3460 C3466 1.368 . S
C3461 C3445 1.349 . S
C3461 H3453 0.950 . S
C3461 C3459 1.327 . S
C3462 C3450 1.349 . S
C3462 H3456 0.950 . S
C3462 C3463 1.327 . S
C3463 H3457 0.950 . S
C3463 C3462 1.327 . S
C3463 C3467 1.429 . S
C3464 C3447 1.574 . S
C3464 H3458 0.949 . S
C3464 C3468 1.368 . S
C3465 C3446 1.429 . S
C3465 C3459 1.429 . S
C3465 C3466 1.523 . S
C3466 C3447 1.368 . S
C3466 C3460 1.368 . S
C3466 C3465 1.523 . S
C3467 C3451 1.429 . S
C3467 C3463 1.429 . S
C3467 C3468 1.523 . S
C3468 C3452 1.368 . S
C3468 C3464 1.368 . S
C3468 C3467 1.523 . S
H3469 C3444 0.950 . S
H3470 C3446 0.950 . S
H3471 C3447 0.949 . S
H3472 C3449 0.950 . S
H3473 C3451 0.950 . S
C3474 C3475 1.349 . S
C3474 C3476 1.327 . S
C3474 H3499 0.950 . S
C3475 C3474 1.349 . S
C3475 C3491 1.349 . S
C3476 C3474 1.327 . S
C3476 C3495 1.429 . S
C3476 H3500 0.950 . S
C3477 C3494 1.574 . S
C3477 C3496 1.368 . S
C3477 H3501 0.949 . S
H3478 C3482 0.949 . S
C3479 C3480 1.349 . S
C3479 C3481 1.327 . S
C3479 H3502 0.950 . S
C3480 C3479 1.349 . S
C3480 C3492 1.349 . S
C3481 C3479 1.327 . S
C3481 C3497 1.429 . S
C3481 H3503 0.950 . S
C3482 H3478 0.949 . S
C3482 C3490 1.574 . S
C3482 C3498 1.368 . S
H3483 C3491 0.950 . S
H3484 C3489 0.950 . S
H3485 C3490 0.949 . S
H3486 C3492 0.950 . S
H3487 C3493 0.950 . S
H3488 C3494 0.949 . S
C3489 H3484 0.950 . S
C3489 C3491 1.327 . S
C3489 C3495 1.429 . S
C3490 C3482 1.574 . S
C3490 H3485 0.949 . S
C3490 C3496 1.368 . S
C3491 C3475 1.349 . S
C3491 H3483 0.950 . S
C3491 C3489 1.327 . S
C3492 C3480 1.349 . S
C3492 H3486 0.950 . S
C3492 C3493 1.327 . S
C3493 H3487 0.950 . S
C3493 C3492 1.327 . S
C3493 C3497 1.429 . S
C3494 C3477 1.574 . S
C3494 H3488 0.949 . S
C3494 C3498 1.368 . S
C3495 C3476 1.429 . S
C3495 C3489 1.429 . S
C3495 C3496 1.523 . S
C3496 C3477 1.368 . S
C3496 C3490 1.368 . S
C3496 C3495 1.523 . S
C3497 C3481 1.429 . S
C3497 C3493 1.429 . S
C3497 C3498 1.523 . S
C3498 C3482 1.368 . S
C3498 C3494 1.368 . S
C3498 C3497 1.523 . S
H3499 C3474 0.950 . S
H3500 C3476 0.950 . S
H3501 C3477 0.949 . S
H3502 C3479 0.950 . S
H3503 C3481 0.950 . S
C625 C40 1.492 . S
C630 C3 1.493 . S
C655 C5 1.452 . S
C660 C23 1.457 . S
C685 C27 1.503 . S
C690 C16 1.506 . S
C715 C36 1.506 . S
C720 C44 1.504 . S
C745 C53 1.488 . S
C750 C68 1.491 . S
C775 C88 1.510 . S
C780 C70 1.514 . S
C805 C81 1.502 . S
C810 C92 1.511 . S
C835 C57 1.485 . S
C840 C101 1.491 . S
C865 C109 1.428 . S
C870 C244 1.426 . S
C895 C257 1.509 . S
C900 C122 1.507 . S
C925 C270 1.518 . S
C930 C135 1.520 . S
C955 C224 1.419 . S
C960 C148 1.419 . S
C985 C287 1.567 . S
C990 C166 1.568 . S
C1015 C179 1.459 . S
C1020 C213 1.456 . S
C1045 C304 1.495 . S
C1050 C192 1.503 . S
C1075 C205 1.542 . S
C1080 C278 1.537 . S
C1105 C211 1.467 . S
C1110 C118 1.464 . S
C1135 C231 1.554 . S
C1140 C196 1.552 . S
C1165 C157 1.527 . S
C1170 C237 1.517 . S
C1195 C172 1.512 . S
C1200 C248 1.507 . S
C1225 C185 1.520 . S
C1230 C261 1.518 . S
C1255 C146 1.464 . S
C1260 C274 1.468 . S
C1285 C107 1.425 . S
C1290 C291 1.423 . S
C1315 C302 1.488 . S
C1320 C131 1.495 . S
C1345 C352 1.471 . S
C1350 C315 1.470 . S
C1375 C317 1.445 . S
C1380 C335 1.452 . S
C1405 C339 1.505 . S
C1410 C328 1.510 . S
C1435 C348 1.522 . S
C1440 C356 1.521 . S
C1465 C380 1.477 . S
C1470 C365 1.481 . S
C1495 C382 1.491 . S
C1500 C400 1.501 . S
C1525 C404 1.536 . S
C1530 C393 1.534 . S
C1555 C369 1.496 . S
C1560 C413 1.504 . S
C1585 C556 1.444 . S
C1590 C421 1.440 . S
C1615 C434 1.440 . S
C1620 C569 1.446 . S
C1645 C575 1.465 . S
C1650 C443 1.468 . S
C1675 C460 1.432 . S
C1680 C536 1.434 . S
C1705 C478 1.526 . S
C1710 C603 1.519 . S
C1735 C521 1.502 . S
C1740 C491 1.500 . S
C1765 C612 1.559 . S
C1770 C504 1.560 . S
C1795 C586 1.574 . S
C1800 C517 1.572 . S
C1825 C430 1.507 . S
C1830 C530 1.507 . S
C1855 C508 1.565 . S
C1860 C543 1.566 . S
C1885 C549 1.496 . S
C1890 C469 1.505 . S
C1915 C560 1.467 . S
C1920 C484 1.459 . S
C1945 C497 1.453 . S
C1950 C577 1.451 . S
C1975 C590 1.435 . S
C1980 C458 1.433 . S
C2005 C599 1.473 . S
C2010 C419 1.467 . S
C2035 C621 1.531 . S
C2040 C447 1.520 . S
C2065 C1 1.521 . S
C2070 C582 1.519 . S
C2095 C18 1.449 . S
C2100 C538 1.450 . S
C2125 C29 1.482 . S
C2130 C547 1.490 . S
C2155 C49 1.483 . S
C2160 C562 1.480 . S
C2185 C55 1.456 . S
C2190 C616 1.462 . S
C2215 C75 1.537 . S
C2220 C595 1.534 . S
C2245 C79 1.492 . S
C2250 C601 1.491 . S
C2275 C525 1.457 . S
C2280 C96 1.457 . S
C2305 C114 1.500 . S
C2310 C512 1.494 . S
C2335 C473 1.452 . S
C2340 C127 1.452 . S
C2365 C140 1.502 . S
C2370 C486 1.495 . S
C2395 C153 1.487 . S
C2400 C499 1.487 . S
C2425 C161 1.501 . S
C2430 C439 1.502 . S
C2455 C174 1.500 . S
C2460 C445 1.497 . S
C2485 C465 1.520 . S
C2490 C187 1.519 . S
C2515 C200 1.481 . S
C2520 C426 1.487 . S
C2545 C209 1.491 . S
C2550 C408 1.485 . S
C2575 C226 1.456 . S
C2580 C330 1.458 . S
C2605 C235 1.469 . S
C2610 C341 1.462 . S
C2635 C250 1.491 . S
C2640 C361 1.500 . S
C2665 C313 1.500 . S
C2670 C263 1.492 . S
C2695 C276 1.484 . S
C2700 C387 1.486 . S
C2725 C391 1.520 . S
C2730 C296 1.520 . S
C2755 C367 1.497 . S
C2760 C300 1.502 . S
C2785 C417 1.498 . S
C2790 C94 1.496 . S
C2815 C62 1.506 . S
C2820 C432 1.502 . S
C2845 C452 1.504 . S
C2850 C66 1.510 . S
C2875 C456 1.503 . S
C2880 C83 1.496 . S
C2905 C471 1.496 . S
C2910 C14 1.500 . S
C2935 C31 1.512 . S
C2940 C482 1.516 . S
C2965 C495 1.500 . S
C2970 C42 1.494 . S
C2995 C510 1.491 . S
C3000 C10 1.495 . S
C3025 C523 1.449 . S
C3030 C265 1.447 . S
C3055 C222 1.499 . S
C3060 C614 1.496 . S
C3085 C239 1.474 . S
C3090 C588 1.478 . S
C3115 C608 1.503 . S
C3120 C252 1.496 . S
C3145 C534 1.514 . S
C3150 C309 1.512 . S
C3175 C551 1.495 . S
C3180 C283 1.497 . S
C3205 C289 1.451 . S
C3210 C564 1.452 . S
C3235 C573 1.543 . S
C3240 C218 1.544 . S
C3265 C322 1.508 . S
C3270 C198 1.502 . S
C3295 C374 1.528 . S
C3300 C120 1.523 . S
C3325 C378 1.493 . S
C3330 C133 1.492 . S
C3355 C144 1.520 . S
C3360 C395 1.519 . S
C3385 C105 1.488 . S
C3390 C406 1.482 . S
C3415 C343 1.460 . S
C3420 C170 1.470 . S
C3445 C183 1.488 . S
C3450 C354 1.481 . S
C3475 C326 1.495 . S
C3480 C159 1.492 . S
