# Generated by pormake.
# Topology smb, (6)-cn, num edge types: 1
# Building blocks:
#     Node 0, Type 0, BuildingBlock: IZENUY_clean_sbu_0, # of connection points: 6
#     Node 1, Type 0, BuildingBlock: IZENUY_clean_sbu_0, # of connection points: 6
#     Node 2, Type 0, BuildingBlock: IZENUY_clean_sbu_0, # of connection points: 6
#     Node 3, Type 0, BuildingBlock: IZENUY_clean_sbu_0, # of connection points: 6
#     Node 4, Type 0, BuildingBlock: IZENUY_clean_sbu_0, # of connection points: 6
#     Node 5, Type 0, BuildingBlock: IZENUY_clean_sbu_0, # of connection points: 6
#     Node 6, Type 0, BuildingBlock: IZENUY_clean_sbu_0, # of connection points: 6
#     Node 7, Type 0, BuildingBlock: IZENUY_clean_sbu_0, # of connection points: 6
#     Node 8, Type 0, BuildingBlock: IZENUY_clean_sbu_0, # of connection points: 6
#     Edge 9, Type (0, 0), BuildingBlock: XUDNAN_clean_linker_2, # of connection points: 2
#     Edge 10, Type (0, 0), BuildingBlock: XUDNAN_clean_linker_2, # of connection points: 2
#     Edge 11, Type (0, 0), BuildingBlock: XUDNAN_clean_linker_2, # of connection points: 2
#     Edge 12, Type (0, 0), BuildingBlock: XUDNAN_clean_linker_2, # of connection points: 2
#     Edge 13, Type (0, 0), BuildingBlock: XUDNAN_clean_linker_2, # of connection points: 2
#     Edge 14, Type (0, 0), BuildingBlock: XUDNAN_clean_linker_2, # of connection points: 2
#     Edge 15, Type (0, 0), BuildingBlock: XUDNAN_clean_linker_2, # of connection points: 2
#     Edge 16, Type (0, 0), BuildingBlock: XUDNAN_clean_linker_2, # of connection points: 2
#     Edge 17, Type (0, 0), BuildingBlock: XUDNAN_clean_linker_2, # of connection points: 2
#     Edge 18, Type (0, 0), BuildingBlock: XUDNAN_clean_linker_2, # of connection points: 2
#     Edge 19, Type (0, 0), BuildingBlock: XUDNAN_clean_linker_2, # of connection points: 2
#     Edge 20, Type (0, 0), BuildingBlock: XUDNAN_clean_linker_2, # of connection points: 2
#     Edge 21, Type (0, 0), BuildingBlock: XUDNAN_clean_linker_2, # of connection points: 2
#     Edge 22, Type (0, 0), BuildingBlock: XUDNAN_clean_linker_2, # of connection points: 2
#     Edge 23, Type (0, 0), BuildingBlock: XUDNAN_clean_linker_2, # of connection points: 2
#     Edge 24, Type (0, 0), BuildingBlock: XUDNAN_clean_linker_2, # of connection points: 2
#     Edge 25, Type (0, 0), BuildingBlock: XUDNAN_clean_linker_2, # of connection points: 2
#     Edge 26, Type (0, 0), BuildingBlock: XUDNAN_clean_linker_2, # of connection points: 2
#     Edge 27, Type (0, 0), BuildingBlock: XUDNAN_clean_linker_2, # of connection points: 2
#     Edge 28, Type (0, 0), BuildingBlock: XUDNAN_clean_linker_2, # of connection points: 2
#     Edge 29, Type (0, 0), BuildingBlock: XUDNAN_clean_linker_2, # of connection points: 2
#     Edge 30, Type (0, 0), BuildingBlock: XUDNAN_clean_linker_2, # of connection points: 2
#     Edge 31, Type (0, 0), BuildingBlock: XUDNAN_clean_linker_2, # of connection points: 2
#     Edge 32, Type (0, 0), BuildingBlock: XUDNAN_clean_linker_2, # of connection points: 2
#     Edge 33, Type (0, 0), BuildingBlock: XUDNAN_clean_linker_2, # of connection points: 2
#     Edge 34, Type (0, 0), BuildingBlock: XUDNAN_clean_linker_2, # of connection points: 2
#     Edge 35, Type (0, 0), BuildingBlock: XUDNAN_clean_linker_2, # of connection points: 2
# Relax obj value: 0.326
# Max RMSD: 0.238
# Mean RMSD: 0.238
data_MOF--net-smb--node1-IZENUY_clean_sbu_0--edge1-XUDNAN_clean_linker_2
_symmetry_space_group_name_H-M    P1
_symmetry_Int_Tables_number       1
_symmetry_cell_setting            triclinic
loop_
_symmetry_equiv_pos_as_xyz
'x, y, z'
_cell_length_a     38.56303
_cell_length_b     38.532221
_cell_length_c     29.667435
_cell_angle_alpha  90.105911
_cell_angle_beta   89.846464
_cell_angle_gamma 120.03669
loop_
_atom_site_label
_atom_site_type_symbol
_atom_site_fract_x
_atom_site_fract_y
_atom_site_fract_z
_atom_type_partial_charge
Fe0 Fe 0.41704 0.20563 0.962 0.0
Fe1 Fe 0.34879 0.16868 0.03219 0.0
O2 O 0.40056 0.19573 0.0187 0.0
Fe3 Fe 0.4365 0.21389 0.06227 0.0
O4 O 0.45416 0.26493 0.0454 0.0
O5 O 0.46138 0.25479 0.974 0.0
O6 O 0.39051 0.23234 0.95257 0.0
C7 C 0.35379 0.21908 0.95949 0.0
C8 C 0.47174 0.18834 0.99672 0.0
O9 O 0.33343 0.18841 0.98407 0.0
C10 C 0.38524 0.13993 0.09454 0.0
O11 O 0.37579 0.1585 0.94007 0.0
O12 O 0.34132 0.12532 1.00007 0.0
O13 O 0.47531 0.21079 0.02965 0.0
O14 O 0.44477 0.17945 0.96781 0.0
C15 C 0.37642 0.22675 0.09741 0.0
O16 O 0.3557 0.144 0.08266 0.0
O17 O 0.42023 0.16398 0.08114 0.0
C18 C 0.35201 0.12593 0.9597 0.0
O19 O 0.35257 0.21066 0.06498 0.0
O20 O 0.40488 0.22013 0.10369 0.0
C21 C 0.46738 0.27839 0.00668 0.0
Fe22 Fe 0.82608 0.16849 0.03616 0.0
Fe23 Fe 0.78049 0.21235 0.05812 0.0
O24 O 0.79924 0.19206 0.01803 0.0
Fe25 Fe 0.79087 0.19519 0.96001 0.0
O26 O 0.76364 0.14128 0.95507 0.0
O27 O 0.80857 0.13164 0.98948 0.0
O28 O 0.78303 0.13155 0.06812 0.0
C29 C 0.76519 0.14012 0.09802 0.0
C30 C 0.87052 0.20999 0.96299 0.0
O31 O 0.7722 0.17572 0.10231 0.0
C32 C 0.80844 0.26948 0.98831 0.0
O33 O 0.84847 0.20146 0.08599 0.0
O34 O 0.83035 0.2468 0.07762 0.0
O35 O 0.83815 0.19871 0.94167 0.0
O36 O 0.87027 0.20399 0.00484 0.0
C37 C 0.71739 0.17798 1.00058 0.0
O38 O 0.78544 0.25255 0.02147 0.0
O39 O 0.81749 0.2497 0.96163 0.0
C40 C 0.85422 0.23651 0.09301 0.0
O41 O 0.72946 0.17924 0.04033 0.0
O42 O 0.74202 0.19188 0.96806 0.0
C43 C 0.77767 0.11897 0.96483 0.0
Fe44 Fe 0.78677 0.5742 0.95142 0.0
Fe45 Fe 0.82671 0.64073 0.02332 0.0
O46 O 0.79849 0.58935 0.00831 0.0
Fe47 Fe 0.78083 0.55244 0.05079 0.0
O48 O 0.78155 0.51384 0.01556 0.0
O49 O 0.81198 0.54516 0.95371 0.0
O50 O 0.83378 0.61536 0.92907 0.0
C51 C 0.86705 0.63841 0.94782 0.0
C52 C 0.71489 0.52438 0.99801 0.0
O53 O 0.86901 0.64815 0.98886 0.0
C54 C 0.76928 0.61166 0.08981 0.0
O55 O 0.76102 0.60207 0.94533 0.0
O56 O 0.80668 0.65806 0.97725 0.0
O57 O 0.72968 0.53649 0.0365 0.0
O58 O 0.73731 0.53031 0.96409 0.0
C59 C 0.85572 0.60152 0.08156 0.0
O60 O 0.78567 0.63675 0.05832 0.0
O61 O 0.77684 0.58364 0.09448 0.0
C62 C 0.77548 0.63887 0.95315 0.0
O63 O 0.85181 0.63169 0.07194 0.0
O64 O 0.83108 0.56713 0.067 0.0
C65 C 0.80322 0.51759 0.98182 0.0
Fe66 Fe 0.07941 0.54108 0.29622 0.0
Fe67 Fe 0.01517 0.50106 0.36997 0.0
O68 O 0.06598 0.52922 0.35344 0.0
Fe69 Fe 0.10359 0.546 0.39474 0.0
O70 O 0.12 0.59748 0.38137 0.0
O71 O 0.12396 0.59054 0.30823 0.0
O72 O 0.05168 0.56727 0.29262 0.0
C73 C 0.01495 0.55199 0.30106 0.0
C74 C 0.13759 0.52554 0.32227 0.0
O75 O 0.99654 0.52012 0.32425 0.0
C76 C 0.0542 0.47051 0.42433 0.0
O77 O 0.037 0.49379 0.27478 0.0
O78 O 0.00816 0.45886 0.33619 0.0
O79 O 0.14122 0.54536 0.35771 0.0
O80 O 0.1085 0.51576 0.29609 0.0
C81 C 0.04556 0.55853 0.43555 0.0
O82 O 0.02499 0.47659 0.41828 0.0
O83 O 0.08861 0.49513 0.40976 0.0
C84 C 0.01571 0.46043 0.29458 0.0
O85 O 0.01992 0.54241 0.40458 0.0
O86 O 0.07317 0.55018 0.43959 0.0
C87 C 0.13182 0.61265 0.34292 0.0
Fe88 Fe 0.46121 0.53717 0.28053 0.0
Fe89 Fe 0.49186 0.50579 0.35765 0.0
O90 O 0.46738 0.53162 0.33879 0.0
Fe91 Fe 0.44923 0.55272 0.37864 0.0
O92 O 0.40872 0.54843 0.34338 0.0
O93 O 0.4068 0.51212 0.28567 0.0
O94 O 0.45515 0.48829 0.2642 0.0
C95 C 0.44685 0.4575 0.28744 0.0
C96 C 0.48293 0.61326 0.31794 0.0
O97 O 0.45633 0.46051 0.32851 0.0
C98 C 0.52125 0.56789 0.41816 0.0
O99 O 0.51445 0.56277 0.2713 0.0
O100 O 0.52806 0.52235 0.31005 0.0
O101 O 0.48307 0.60246 0.358 0.0
O102 O 0.4669 0.58746 0.28669 0.0
C103 C 0.42513 0.48057 0.41756 0.0
O104 O 0.52951 0.5497 0.38839 0.0
O105 O 0.48597 0.56134 0.42213 0.0
C106 C 0.53821 0.55075 0.28195 0.0
O107 O 0.45923 0.48446 0.40821 0.0
O108 O 0.41471 0.50406 0.40102 0.0
C109 C 0.38976 0.52521 0.31121 0.0
Fe110 Fe 0.45324 0.89365 0.39687 0.0
Fe111 Fe 0.45328 0.91258 0.29707 0.0
O112 O 0.46696 0.92918 0.35323 0.0
Fe113 Fe 0.49382 0.98106 0.36621 0.0
O114 O 0.52144 0.97544 0.41429 0.0
O115 O 0.505 0.91201 0.41043 0.0
O116 O 0.4558 0.8557 0.36203 0.0
C117 C 0.47529 0.85955 0.32623 0.0
C118 C 0.43927 0.9521 0.43512 0.0
O119 O 0.48088 0.88601 0.29777 0.0
C120 C 0.43871 0.97493 0.29893 0.0
O121 O 0.40069 0.87356 0.38522 0.0
O122 O 0.40584 0.86726 0.31223 0.0
O123 O 0.45335 0.97605 0.40232 0.0
O124 O 0.44815 0.9249 0.44012 0.0
C125 C 0.53218 0.97849 0.28955 0.0
O126 O 0.42479 0.93799 0.2926 0.0
O127 O 0.47113 0.99555 0.32054 0.0
C128 C 0.38469 0.85974 0.34755 0.0
O129 O 0.49834 0.95477 0.2723 0.0
O130 O 0.53543 0.98899 0.3304 0.0
C131 C 0.52895 0.94746 0.42241 0.0
Fe132 Fe 0.75216 0.86779 0.61732 0.0
Fe133 Fe 0.6895 0.83842 0.69356 0.0
O134 O 0.74007 0.86273 0.67544 0.0
Fe135 Fe 0.77903 0.88184 0.71546 0.0
O136 O 0.81461 0.923 0.67984 0.0
O137 O 0.77987 0.92221 0.62107 0.0
O138 O 0.70855 0.87161 0.59975 0.0
C139 C 0.68698 0.88185 0.62187 0.0
C140 C 0.80717 0.84838 0.65578 0.0
O141 O 0.68055 0.87417 0.66337 0.0
C142 C 0.72176 0.80933 0.75487 0.0
O143 O 0.72577 0.81425 0.61016 0.0
O144 O 0.67076 0.80206 0.64606 0.0
O145 O 0.79627 0.84876 0.69571 0.0
O146 O 0.79768 0.86431 0.62438 0.0
C147 C 0.72978 0.90482 0.75375 0.0
O148 O 0.69534 0.80102 0.72514 0.0
O149 O 0.75082 0.84459 0.75871 0.0
C150 C 0.68955 0.79096 0.61982 0.0
O151 O 0.69975 0.87083 0.74394 0.0
O152 O 0.76384 0.91563 0.73739 0.0
C153 C 0.80867 0.94107 0.64789 0.0
Fe154 Fe 0.13147 0.87204 0.62592 0.0
Fe155 Fe 0.16268 0.83737 0.69841 0.0
O156 O 0.13743 0.86355 0.68335 0.0
Fe157 Fe 0.11709 0.88084 0.72557 0.0
O158 O 0.06688 0.84981 0.70393 0.0
O159 O 0.08319 0.86951 0.63395 0.0
O160 O 0.10348 0.81893 0.61482 0.0
C161 C 0.11506 0.79425 0.62287 0.0
C162 C 0.14992 0.94383 0.6628 0.0
O163 O 0.14435 0.80319 0.64917 0.0
C164 C 0.18918 0.90092 0.76287 0.0
O165 O 0.17842 0.87597 0.60713 0.0
O166 O 0.20818 0.87322 0.66904 0.0
O167 O 0.12477 0.92477 0.69358 0.0
O168 O 0.15916 0.92594 0.63381 0.0
C169 C 0.10024 0.80594 0.75937 0.0
O170 O 0.18547 0.86765 0.75004 0.0
O171 O 0.16557 0.91237 0.74965 0.0
C172 C 0.20979 0.88403 0.62862 0.0
O173 O 0.11875 0.7992 0.72858 0.0
O174 O 0.10633 0.84089 0.76586 0.0
C175 C 0.05685 0.85167 0.66402 0.0
Fe176 Fe 0.15993 0.31089 0.69962 0.0
Fe177 Fe 0.11673 0.22205 0.72325 0.0
O178 O 0.13737 0.26021 0.68243 0.0
Fe179 Fe 0.13557 0.24751 0.62482 0.0
O180 O 0.18959 0.27542 0.62076 0.0
O181 O 0.19732 0.33014 0.65338 0.0
O182 O 0.19684 0.30619 0.73335 0.0
C183 C 0.18757 0.28028 0.76401 0.0
C184 C 0.11839 0.31085 0.62517 0.0
O185 O 0.15191 0.2518 0.76775 0.0
C186 C 0.06123 0.19018 0.65223 0.0
O187 O 0.1262 0.30059 0.74873 0.0
O188 O 0.08114 0.23696 0.74025 0.0
O189 O 0.13087 0.29023 0.60467 0.0
O190 O 0.12429 0.31787 0.66685 0.0
C191 C 0.15444 0.19415 0.66923 0.0
O192 O 0.07779 0.1852 0.68638 0.0
O193 O 0.08116 0.21857 0.62524 0.0
C194 C 0.0912 0.27117 0.7557 0.0
O195 O 0.15138 0.20541 0.70817 0.0
O196 O 0.1401 0.20265 0.63529 0.0
C197 C 0.21087 0.31221 0.62942 0.0
H198 H 0.27294 0.07014 0.94994 0.0
H199 H 0.39223 0.09881 0.90891 0.0
H200 H 0.3634 0.03786 0.86109 0.0
H201 H 0.22457 0.9599 0.94777 0.0
H202 H 0.17905 0.95392 0.92362 0.0
H203 H 0.2092 0.99613 0.95969 0.0
H204 H 0.21362 0.04485 0.89674 0.0
H205 H 0.18328 0.00283 0.86077 0.0
H206 H 0.23175 0.04161 0.8417 0.0
H207 H 0.32082 0.97524 0.81444 0.0
H208 H 0.26853 0.92217 0.76615 0.0
H209 H 0.17795 0.93845 0.83375 0.0
C210 C 0.29287 0.0629 0.93168 0.0
C211 C 0.33469 0.08845 0.93354 0.0
C212 C 0.36004 0.07915 0.90804 0.0
C213 C 0.34396 0.04456 0.88107 0.0
C214 C 0.30243 0.02001 0.87946 0.0
C215 C 0.27725 0.02912 0.90367 0.0
C216 C 0.23382 0.00089 0.89191 0.0
C217 C 0.21028 0.97625 0.93321 0.0
C218 C 0.21451 0.02392 0.87156 0.0
C219 C 0.23848 0.97479 0.85702 0.0
C220 C 0.27815 0.98558 0.85093 0.0
C221 C 0.28962 0.96636 0.81917 0.0
C222 C 0.25984 0.93613 0.79211 0.0
C223 C 0.21942 0.92627 0.79652 0.0
C224 C 0.2087 0.94533 0.82998 0.0
H225 H 0.88112 0.19269 0.87661 0.0
H226 H 0.94558 0.26481 0.99244 0.0
H227 H 0.00908 0.29369 0.94911 0.0
H228 H 0.95493 0.16785 0.84497 0.0
H229 H 0.94675 0.16893 0.78532 0.0
H230 H 0.90648 0.15673 0.82436 0.0
H231 H 0.89771 0.214 0.79099 0.0
H232 H 0.93827 0.2264 0.75215 0.0
H233 H 0.93995 0.26429 0.78929 0.0
H234 H 0.06565 0.31441 0.89243 0.0
H235 H 0.11147 0.31836 0.83132 0.0
H236 H 0.00981 0.22915 0.75528 0.0
C237 C 0.90856 0.21491 0.89267 0.0
C238 C 0.90854 0.22693 0.93764 0.0
C239 C 0.94509 0.25531 0.95794 0.0
C240 C 0.98117 0.27203 0.93351 0.0
C241 C 0.98015 0.25961 0.88909 0.0
C242 C 0.94482 0.23122 0.86914 0.0
C243 C 0.95207 0.22057 0.8223 0.0
C244 C 0.9393 0.17586 0.81912 0.0
C245 C 0.93073 0.23201 0.78658 0.0
C246 C 0.99707 0.24705 0.8191 0.0
C247 C 0.01271 0.27002 0.8575 0.0
C248 C 0.05372 0.29658 0.86221 0.0
C249 C 0.07948 0.29884 0.82727 0.0
C250 C 0.06408 0.27409 0.78873 0.0
C251 C 0.02232 0.24845 0.78443 0.0
H252 H 0.77991 0.8165 0.81255 0.0
H253 H 0.65916 0.73222 0.76794 0.0
H254 H 0.65798 0.68089 0.81913 0.0
H255 H 0.81376 0.74695 0.81652 0.0
H256 H 0.84516 0.76923 0.86514 0.0
H257 H 0.83492 0.79972 0.82775 0.0
H258 H 0.80793 0.8223 0.89521 0.0
H259 H 0.81789 0.79162 0.93275 0.0
H260 H 0.76825 0.78502 0.92974 0.0
H261 H 0.67175 0.63805 0.87202 0.0
H262 H 0.69964 0.60594 0.92022 0.0
H263 H 0.8117 0.7187 0.92983 0.0
C264 C 0.75285 0.78748 0.81395 0.0
C265 C 0.71937 0.77851 0.78654 0.0
C266 C 0.68502 0.73985 0.78881 0.0
C267 C 0.68408 0.71059 0.81785 0.0
C268 C 0.71775 0.72052 0.84423 0.0
C269 C 0.75152 0.75804 0.8424 0.0
C270 C 0.78469 0.76057 0.87198 0.0
C271 C 0.82181 0.76965 0.84366 0.0
C272 C 0.7953 0.79173 0.90966 0.0
C273 C 0.76445 0.71842 0.89072 0.0
C274 C 0.72579 0.69587 0.87445 0.0
C275 C 0.70183 0.65551 0.88521 0.0
C276 C 0.718 0.63756 0.91258 0.0
C277 C 0.75782 0.65988 0.92895 0.0
C278 C 0.781 0.70104 0.91847 0.0
H279 H 0.06693 0.81284 0.83799 0.0
H280 H 0.06349 0.72475 0.74393 0.0
H281 H 0.00605 0.67118 0.78578 0.0
H282 H 0.03835 0.7491 0.93959 0.0
H283 H 0.00881 0.76964 0.96163 0.0
H284 H 0.05194 0.80011 0.92689 0.0
H285 H 0.00753 0.81389 0.87283 0.0
H286 H 0.96422 0.78323 0.90705 0.0
H287 H 0.96391 0.77226 0.84792 0.0
H288 H 0.94371 0.62894 0.83193 0.0
H289 H 0.88476 0.60026 0.88255 0.0
H290 H 0.93091 0.71538 0.94879 0.0
C291 C 0.0547 0.78218 0.82664 0.0
C292 C 0.06985 0.77298 0.78769 0.0
C293 C 0.0527 0.73249 0.77388 0.0
C294 C 0.01997 0.7019 0.79736 0.0
C295 C 0.00512 0.71224 0.8349 0.0
C296 C 0.02234 0.75136 0.84984 0.0
C297 C -0.00031 0.75496 0.88975 0.0
C298 C 0.02629 0.76929 0.93197 0.0
C299 C 0.98285 0.78272 0.8787 0.0
C300 C 0.96649 0.71183 0.89454 0.0
C301 C 0.97006 0.68768 0.86243 0.0
C302 C 0.9411 0.64739 0.85774 0.0
C303 C 0.90767 0.63143 0.88647 0.0
C304 C 0.90368 0.65553 0.91986 0.0
C305 C 0.93375 0.69611 0.92425 0.0
H306 H 0.1779 0.22321 0.82492 0.0
H307 H 0.26608 0.34044 0.77416 0.0
H308 H 0.31719 0.33966 0.82385 0.0
H309 H 0.2138 0.23666 0.94111 0.0
H310 H 0.20372 0.18576 0.94525 0.0
H311 H 0.17355 0.19749 0.90903 0.0
H312 H 0.19008 0.16559 0.84133 0.0
H313 H 0.22041 0.15389 0.87716 0.0
H314 H 0.24168 0.18323 0.82686 0.0
H315 H 0.35936 0.32367 0.87497 0.0
H316 H 0.38997 0.29381 0.92244 0.0
H317 H 0.27381 0.18659 0.93908 0.0
C318 C 0.20773 0.2492 0.8248 0.0
C319 C 0.21788 0.28217 0.79597 0.0
C320 C 0.25753 0.31504 0.79621 0.0
C321 C 0.2867 0.31485 0.82435 0.0
C322 C 0.27567 0.28157 0.85189 0.0
C323 C 0.2371 0.24937 0.85231 0.0
C324 C 0.23341 0.21603 0.88254 0.0
C325 C 0.2044 0.20856 0.92181 0.0
C326 C 0.22066 0.17742 0.85535 0.0
C327 C 0.27612 0.23429 0.89891 0.0
C328 C 0.29996 0.27218 0.88101 0.0
C329 C 0.3409 0.29421 0.88946 0.0
C330 C 0.358 0.2769 0.91637 0.0
C331 C 0.33425 0.23786 0.93456 0.0
C332 C 0.29264 0.21664 0.9262 0.0
H333 H 0.79126 0.96329 0.80209 0.0
H334 H 0.66234 0.90474 0.78502 0.0
H335 H 0.65967 0.95038 0.8423 0.0
H336 H 0.79219 0.97899 0.92311 0.0
H337 H 0.83782 0.0268 0.92074 0.0
H338 H 0.82895 0.98848 0.88003 0.0
H339 H 0.83912 0.03745 0.815 0.0
H340 H 0.84842 0.07603 0.85536 0.0
H341 H 0.80965 0.06185 0.81372 0.0
H342 H 0.6727 0.00684 0.89628 0.0
H343 H 0.6996 0.06734 0.94447 0.0
H344 H 0.81931 0.08537 0.92893 0.0
C345 C 0.76232 0.9598 0.81043 0.0
C346 C 0.72694 0.93056 0.78892 0.0
C347 C 0.68975 0.92689 0.80116 0.0
C348 C 0.688 0.95264 0.83362 0.0
C349 C 0.72362 0.98132 0.8539 0.0
C350 C 0.76 0.98471 0.84298 0.0
C351 C 0.79414 0.0184 0.86869 0.0
C352 C 0.81446 0.00218 0.90001 0.0
C353 C 0.82461 0.05034 0.83626 0.0
C354 C 0.77149 0.03419 0.89528 0.0
C355 C 0.73084 0.01249 0.88627 0.0
C356 C 0.70431 0.02351 0.9042 0.0
C357 C 0.71983 0.05786 0.93145 0.0
C358 C 0.76134 0.0804 0.94093 0.0
C359 C 0.78731 0.06796 0.92324 0.0
H360 H 0.89297 0.31785 0.09057 0.0
H361 H 0.88457 0.21811 0.16704 0.0
H362 H 0.92909 0.26553 0.22542 0.0
H363 H -0.00061 0.38963 0.11863 0.0
H364 H 0.9906 0.43137 0.12072 0.0
H365 H 0.96142 0.38981 0.08347 0.0
H366 H 0.89638 0.38069 0.11981 0.0
H367 H 0.92516 0.42189 0.15743 0.0
H368 H 0.88926 0.37353 0.17989 0.0
H369 H 0.96641 0.323 0.2799 0.0
H370 H 9e-05 0.38673 0.32257 0.0
H371 H 0.98759 0.44927 0.20796 0.0
C372 C 0.90119 0.30608 0.1192 0.0
C373 C 0.88539 0.26438 0.12449 0.0
C374 C 0.89669 0.24999 0.16227 0.0
C375 C 0.92177 0.27669 0.1956 0.0
C376 C 0.93589 0.3176 0.18998 0.0
C377 C 0.92666 0.33228 0.1522 0.0
C378 C 0.94465 0.37735 0.15467 0.0
C379 C 0.97588 0.39827 0.11715 0.0
C380 C 0.9119 0.38903 0.15289 0.0
C381 C 0.96425 0.38568 0.20056 0.0
C382 C 0.95883 0.35083 0.22044 0.0
C383 C 0.97156 0.35055 0.26429 0.0
C384 C 0.99042 0.38679 0.28832 0.0
C385 C 0.99678 0.42285 0.26828 0.0
C386 C 0.98384 0.42225 0.22369 0.0
H387 H 0.58513 0.51703 0.26187 0.0
H388 H 0.57878 0.62569 0.24653 0.0
H389 H 0.63983 0.65523 0.19975 0.0
H390 H 0.69512 0.56517 0.26481 0.0
H391 H 0.69571 0.526 0.2321 0.0
H392 H 0.65346 0.51461 0.26782 0.0
H393 H 0.60587 0.48464 0.19922 0.0
H394 H 0.648 0.49604 0.16339 0.0
H395 H 0.61499 0.51488 0.14949 0.0
H396 H 0.69852 0.67114 0.14913 0.0
H397 H 0.75119 0.6721 0.1002 0.0
H398 H 0.71961 0.55365 0.14891 0.0
C399 C 0.59714 0.54734 0.24948 0.0
C400 C 0.57726 0.56908 0.25805 0.0
C401 C 0.59345 0.6084 0.24036 0.0
C402 C 0.6282 0.62554 0.2138 0.0
C403 C 0.6466 0.60306 0.20502 0.0
C404 C 0.63176 0.56487 0.22243 0.0
C405 C 0.65592 0.54627 0.2056 0.0
C406 C 0.67627 0.53751 0.24493 0.0
C407 C 0.62962 0.50822 0.17778 0.0
C408 C 0.68639 0.57986 0.17604 0.0
C409 C 0.68057 0.61238 0.17609 0.0
C410 C 0.70375 0.64605 0.1493 0.0
C411 C 0.73358 0.64637 0.12159 0.0
C412 C 0.74003 0.6133 0.1211 0.0
C413 C 0.71613 0.57985 0.14906 0.0
H414 H 0.44245 0.14808 0.15315 0.0
H415 H 0.31939 0.06615 0.11456 0.0
H416 H 0.31721 0.01598 0.16886 0.0
H417 H 0.47373 0.07858 0.16031 0.0
H418 H 0.50614 0.10144 0.20807 0.0
H419 H 0.49604 0.13167 0.17023 0.0
H420 H 0.47086 0.15675 0.23684 0.0
H421 H 0.48107 0.12677 0.27521 0.0
H422 H 0.43169 0.12089 0.27302 0.0
H423 H 0.33231 0.97256 0.22118 0.0
H424 H 0.36155 0.9409 0.26846 0.0
H425 H 0.47398 0.05352 0.27335 0.0
C426 C 0.41475 0.11976 0.15637 0.0
C427 C 0.38108 0.11078 0.12947 0.0
C428 C 0.34542 0.07358 0.13501 0.0
C429 C 0.34401 0.04501 0.16569 0.0
C430 C 0.37828 0.05465 0.19092 0.0
C431 C 0.41278 0.09143 0.18686 0.0
C432 C 0.44629 0.09425 0.21584 0.0
C433 C 0.48266 0.1019 0.18688 0.0
C434 C 0.45816 0.12658 0.2524 0.0
C435 C 0.42581 0.05277 0.23609 0.0
C436 C 0.38654 0.03032 0.22156 0.0
C437 C 0.36274 0.99011 0.23331 0.0
C438 C 0.37966 0.97238 0.26006 0.0
C439 C 0.41994 0.99489 0.27488 0.0
C440 C 0.4429 0.03577 0.26332 0.0
H441 H 0.73141 0.15008 0.17481 0.0
H442 H 0.72821 0.05872 0.08621 0.0
H443 H 0.67029 0.00673 0.12873 0.0
H444 H 0.70209 0.08938 0.27886 0.0
H445 H 0.67255 0.11065 0.29884 0.0
H446 H 0.71584 0.14001 0.26386 0.0
H447 H 0.67168 0.15224 0.20773 0.0
H448 H 0.6282 0.12261 0.24217 0.0
H449 H 0.62814 0.10993 0.18365 0.0
H450 H 0.60774 0.96618 0.17453 0.0
H451 H 0.54901 0.93881 0.22545 0.0
H452 H 0.59513 0.05581 0.28712 0.0
C453 C 0.7191 0.11905 0.16487 0.0
C454 C 0.73447 0.10845 0.12723 0.0
C455 C 0.71724 0.06753 0.11517 0.0
C456 C 0.68422 0.03781 0.13901 0.0
C457 C 0.66917 0.04945 0.17518 0.0
C458 C 0.68646 0.08902 0.18855 0.0
C459 C 0.66369 0.09383 0.22751 0.0
C460 C 0.69012 0.10938 0.26978 0.0
C461 C 0.64694 0.12127 0.21447 0.0
C462 C 0.63042 0.05086 0.23351 0.0
C463 C 0.63399 0.02578 0.20276 0.0
C464 C 0.60508 0.98535 0.19932 0.0
C465 C 0.57178 0.97015 0.22815 0.0
C466 C 0.56796 0.99516 0.26039 0.0
C467 C 0.59785 0.03593 0.26335 0.0
H468 H 0.9443 0.50941 0.25609 0.0
H469 H 0.0377 0.63036 0.28763 0.0
H470 H 0.00595 0.6575 0.23708 0.0
H471 H 0.94228 0.52751 0.14115 0.0
H472 H 0.88914 0.4952 0.13407 0.0
H473 H 0.91507 0.48475 0.17755 0.0
H474 H 0.86784 0.48618 0.23862 0.0
H475 H 0.84055 0.49514 0.19539 0.0
H476 H 0.86083 0.52897 0.24259 0.0
H477 H 0.96494 0.67099 0.17952 0.0
H478 H 0.91922 0.66913 0.11954 0.0
H479 H 0.85679 0.539 0.123 0.0
C480 C 0.95724 0.5416 0.25342 0.0
C481 C 0.99281 0.56791 0.27639 0.0
C482 C 0.01002 0.60984 0.27068 0.0
C483 C 0.99227 0.62547 0.24203 0.0
C484 C 0.95768 0.5987 0.21883 0.0
C485 C 0.94044 0.55763 0.2242 0.0
C486 C 0.90554 0.53516 0.1925 0.0
C487 C 0.91351 0.50912 0.15938 0.0
C488 C 0.86637 0.50989 0.21886 0.0
C489 C 0.90569 0.5699 0.16864 0.0
C490 C 0.93567 0.60637 0.18437 0.0
C491 C 0.9413 0.64254 0.16698 0.0
C492 C 0.91531 0.64126 0.13289 0.0
C493 C 0.88453 0.60404 0.11629 0.0
C494 C 0.8801 0.5681 0.13452 0.0
H495 H 0.38815 0.30179 0.08416 0.0
H496 H 0.35773 0.21019 0.18544 0.0
H497 H 0.36549 0.25842 0.24512 0.0
H498 H 0.46451 0.37679 0.14153 0.0
H499 H 0.4565 0.41752 0.12637 0.0
H500 H 0.43968 0.37514 0.08944 0.0
H501 H 0.3673 0.3615 0.09089 0.0
H502 H 0.38341 0.40516 0.12601 0.0
H503 H 0.34287 0.35728 0.14415 0.0
H504 H 0.38615 0.31799 0.2939 0.0
H505 H 0.41585 0.38472 0.32915 0.0
H506 H 0.43465 0.43927 0.19673 0.0
C507 C 0.38118 0.29158 0.11874 0.0
C508 C 0.37096 0.25208 0.13041 0.0
C509 C 0.36436 0.24007 0.17606 0.0
C510 C 0.36888 0.26729 0.21007 0.0
C511 C 0.38032 0.3065 0.19781 0.0
C512 C 0.38599 0.31864 0.15322 0.0
C513 C 0.40244 0.36353 0.1497 0.0
C514 C 0.44321 0.38444 0.12537 0.0
C515 C 0.37219 0.37238 0.12631 0.0
C516 C 0.40671 0.37486 0.1992 0.0
C517 C 0.39321 0.3414 0.22629 0.0
C518 C 0.3962 0.34436 0.27307 0.0
C519 C 0.41339 0.38249 0.29277 0.0
C520 C 0.42762 0.41736 0.26579 0.0
C521 C 0.42377 0.41325 0.21835 0.0
H522 H 0.60982 0.74719 0.59609 0.0
H523 H 0.72281 0.74861 0.58633 0.0
H524 H 0.69139 0.68914 0.53699 0.0
H525 H 0.54404 0.63721 0.59381 0.0
H526 H 0.50693 0.63993 0.55956 0.0
H527 H 0.53731 0.68018 0.59781 0.0
H528 H 0.56003 0.73077 0.53153 0.0
H529 H 0.52994 0.69064 0.49316 0.0
H530 H 0.58271 0.72257 0.4825 0.0
H531 H 0.6493 0.63302 0.4831 0.0
H532 H 0.59852 0.58307 0.43116 0.0
H533 H 0.5135 0.6185 0.4763 0.0
C534 C 0.62761 0.73433 0.58449 0.0
C535 C 0.66867 0.75237 0.59526 0.0
C536 C 0.69125 0.73524 0.5785 0.0
C537 C 0.67369 0.70143 0.55048 0.0
C538 C 0.63346 0.68499 0.53939 0.0
C539 C 0.6106 0.70069 0.55606 0.0
C540 C 0.56867 0.67879 0.53677 0.0
C541 C 0.53739 0.65777 0.57423 0.0
C542 C 0.55985 0.7074 0.50937 0.0
C543 C 0.57173 0.64871 0.50649 0.0
C544 C 0.60926 0.65264 0.50844 0.0
C545 C 0.61958 0.62928 0.4817 0.0
C546 C 0.59064 0.60106 0.45223 0.0
C547 C 0.55191 0.59648 0.44993 0.0
C548 C 0.54259 0.62068 0.47766 0.0
H549 H 0.40296 0.90396 0.50833 0.0
H550 H 0.41011 0.00412 0.43351 0.0
H551 H 0.35643 0.0018 0.48124 0.0
H552 H 0.29959 0.84981 0.51658 0.0
H553 H 0.29769 0.83083 0.57257 0.0
H554 H 0.34019 0.84362 0.53687 0.0
H555 H 0.38784 0.892 0.59796 0.0
H556 H 0.34549 0.87917 0.63416 0.0
H557 H 0.37952 0.93086 0.62 0.0
H558 H 0.29635 0.98279 0.52949 0.0
H559 H 0.23583 0.95035 0.57748 0.0
H560 H 0.26887 0.86411 0.62331 0.0
C561 C 0.39402 0.92613 0.50264 0.0
C562 C 0.41104 0.95446 0.4673 0.0
C563 C 0.39785 0.98239 0.46057 0.0
C564 C 0.36735 0.98129 0.48752 0.0
C565 C 0.3506 0.95234 0.5213 0.0
C566 C 0.36372 0.92551 0.52926 0.0
C567 C 0.33877 0.89547 0.56543 0.0
C568 C 0.31782 0.8524 0.54673 0.0
C569 C 0.36445 0.89964 0.60685 0.0
C570 C 0.3089 0.909 0.57591 0.0
C571 C 0.31636 0.94193 0.55008 0.0
C572 C 0.29075 0.95762 0.5506 0.0
C573 C 0.25646 0.93898 0.5778 0.0
C574 C 0.24829 0.90531 0.6045 0.0
C575 C 0.27518 0.89055 0.60415 0.0
H576 H 0.13566 0.33966 0.53906 0.0
H577 H 0.0597 0.32558 0.65366 0.0
H578 H 0.02886 0.35833 0.61089 0.0
H579 H 0.1567 0.43723 0.51193 0.0
H580 H 0.15791 0.43085 0.45185 0.0
H581 H 0.17022 0.40208 0.4895 0.0
H582 H 0.11561 0.33644 0.45233 0.0
H583 H 0.10293 0.36505 0.4147 0.0
H584 H 0.06476 0.32655 0.44957 0.0
H585 H 0.00784 0.3946 0.55604 0.0
H586 H 0.00458 0.43882 0.49767 0.0
H587 H 0.09746 0.43255 0.42156 0.0
C588 C 0.11205 0.34289 0.5548 0.0
C589 C 0.09964 0.32977 0.59936 0.0
C590 C 0.06948 0.33544 0.61943 0.0
C591 C 0.05164 0.3537 0.59532 0.0
C592 C 0.06467 0.36652 0.55141 0.0
C593 C 0.09457 0.36181 0.53158 0.0
C594 C 0.10599 0.38166 0.48578 0.0
C595 C 0.15032 0.41493 0.48474 0.0
C596 C 0.09676 0.35056 0.44839 0.0
C597 C 0.07827 0.39877 0.4832 0.0
C598 C 0.05401 0.389 0.52086 0.0
C599 C 0.02658 0.40231 0.5263 0.0
C600 C 0.02474 0.42718 0.49293 0.0
C601 C 0.05076 0.43901 0.45527 0.0
C602 C 0.07718 0.42388 0.45006 0.0
H603 H 0.23997 0.38485 0.58796 0.0
H604 H 0.26626 0.28965 0.6131 0.0
H605 H 0.32662 0.32405 0.56471 0.0
H606 H 0.26463 0.39414 0.47254 0.0
H607 H 0.2853 0.44767 0.47036 0.0
H608 H 0.24727 0.41829 0.51126 0.0
H609 H 0.29388 0.46218 0.57575 0.0
H610 H 0.33198 0.49196 0.53499 0.0
H611 H 0.34334 0.46857 0.58075 0.0
H612 H 0.38287 0.36798 0.51056 0.0
H613 H 0.42838 0.4162 0.45329 0.0
H614 H 0.36192 0.47962 0.46062 0.0
C615 C 0.25911 0.37191 0.58422 0.0
C616 C 0.2491 0.33511 0.60487 0.0
C617 C 0.27386 0.31814 0.59788 0.0
C618 C 0.30813 0.33744 0.57049 0.0
C619 C 0.31682 0.37336 0.54979 0.0
C620 C 0.29288 0.39031 0.55617 0.0
C621 C 0.30673 0.42721 0.52715 0.0
C622 C 0.27404 0.42146 0.49334 0.0
C623 C 0.31977 0.4647 0.55642 0.0
C624 C 0.34217 0.42841 0.50353 0.0
C625 C 0.34785 0.3974 0.51724 0.0
C626 C 0.37874 0.39245 0.49964 0.0
C627 C 0.40444 0.41994 0.46715 0.0
C628 C 0.39874 0.45162 0.45228 0.0
C629 C 0.36712 0.45567 0.47097 0.0
H630 H 0.57635 0.91462 0.41519 0.0
H631 H 0.55149 0.99073 0.50092 0.0
H632 H 0.59364 0.98611 0.56099 0.0
H633 H 0.5697 0.84855 0.49485 0.0
H634 H 0.61018 0.84201 0.47462 0.0
H635 H 0.58377 0.8565 0.43614 0.0
H636 H 0.6499 0.9193 0.41236 0.0
H637 H 0.677 0.90475 0.44999 0.0
H638 H 0.68221 0.95378 0.45483 0.0
H639 H 0.62874 0.96302 0.61561 0.0
H640 H 0.66182 0.93153 0.65659 0.0
H641 H 0.66628 0.87364 0.53295 0.0
C642 C 0.58102 0.93147 0.44606 0.0
C643 C 0.56113 0.95331 0.45352 0.0
C644 C 0.56718 0.97447 0.49443 0.0
C645 C 0.59078 0.97173 0.52876 0.0
C646 C 0.60867 0.94845 0.52102 0.0
C647 C 0.60494 0.92961 0.48014 0.0
C648 C 0.62538 0.90481 0.48081 0.0
C649 C 0.59546 0.86034 0.47107 0.0
C650 C 0.66073 0.92168 0.44753 0.0
C651 C 0.63975 0.91113 0.52907 0.0
C652 C 0.62991 0.93638 0.55183 0.0
C653 C 0.6374 0.94398 0.59783 0.0
C654 C 0.65587 0.92573 0.62089 0.0
C655 C 0.6669 0.90048 0.59782 0.0
C656 C 0.65882 0.89337 0.5513 0.0
H657 H 0.10368 0.60659 0.49537 0.0
H658 H 0.9876 0.58003 0.44398 0.0
H659 H 0.99101 0.63501 0.4906 0.0
H660 H 0.09247 0.63475 0.60982 0.0
H661 H 0.14394 0.67448 0.61269 0.0
H662 H 0.13051 0.63088 0.57847 0.0
H663 H 0.16319 0.67648 0.50887 0.0
H664 H 0.17655 0.72021 0.54271 0.0
H665 H 0.14717 0.71124 0.49237 0.0
H666 H 0.00949 0.69582 0.53861 0.0
H667 H 0.04103 0.75754 0.58436 0.0
H668 H 0.14536 0.74437 0.60413 0.0
C669 C 0.07847 0.61164 0.49455 0.0
C670 C 0.04505 0.58858 0.4664 0.0
C671 C 0.01328 0.59699 0.46559 0.0
C672 C 0.015 0.62817 0.49194 0.0
C673 C 0.04871 0.65064 0.51877 0.0
C674 C 0.07983 0.64268 0.52029 0.0
C675 C 0.11383 0.67274 0.54958 0.0
C676 C 0.12056 0.65197 0.59005 0.0
C677 C 0.15245 0.69657 0.52172 0.0
C678 C 0.09707 0.69906 0.56436 0.0
C679 C 0.05946 0.68576 0.54622 0.0
C680 C 0.03874 0.70626 0.55328 0.0
C681 C 0.05701 0.74138 0.57923 0.0
C682 C 0.09564 0.75573 0.59797 0.0
C683 C 0.11563 0.7339 0.5908 0.0
H684 H 0.523 0.18777 0.05928 0.0
H685 H 0.48939 0.16229 0.91846 0.0
H686 H 0.54452 0.14812 0.90608 0.0
H687 H 0.62503 0.2393 0.04375 0.0
H688 H 0.63693 0.21985 0.09289 0.0
H689 H 0.59184 0.22271 0.09178 0.0
H690 H 0.54989 0.14675 0.10927 0.0
H691 H 0.59495 0.14358 0.11043 0.0
H692 H 0.55439 0.11136 0.07348 0.0
H693 H 0.60877 0.14661 0.90685 0.0
H694 H 0.67579 0.15538 0.92137 0.0
H695 H 0.66518 0.17861 0.06244 0.0
C696 C 0.52685 0.17861 0.02598 0.0
C697 C 0.50219 0.17639 0.98974 0.0
C698 C 0.50799 0.16415 0.94669 0.0
C699 C 0.53912 0.15594 0.93939 0.0
C700 C 0.5635 0.1593 0.97569 0.0
C701 C 0.55734 0.16982 0.01829 0.0
C702 C 0.58921 0.17389 0.05095 0.0
C703 C 0.6121 0.21646 0.07097 0.0
C704 C 0.57102 0.14198 0.08823 0.0
C705 C 0.61538 0.16589 0.01957 0.0
C706 C 0.59987 0.15713 0.97641 0.0
C707 C 0.62079 0.15254 0.9407 0.0
C708 C 0.65885 0.15773 0.9492 0.0
C709 C 0.67544 0.16733 0.99306 0.0
C710 C 0.6529 0.17043 0.02877 0.0
H711 H 0.80155 0.46489 0.043 0.0
H712 H 0.83052 0.50078 0.90316 0.0
H713 H 0.8438 0.44478 0.89069 0.0
H714 H 0.87409 0.43074 0.06106 0.0
H715 H 0.83919 0.38975 0.09603 0.0
H716 H 0.83748 0.43555 0.09433 0.0
H717 H 0.76255 0.3954 0.07228 0.0
H718 H 0.76413 0.34961 0.07369 0.0
H719 H 0.74776 0.36332 0.02336 0.0
H720 H 0.84568 0.37916 0.89242 0.0
H721 H 0.83558 0.31144 0.90821 0.0
H722 H 0.80667 0.32201 0.04715 0.0
C723 C 0.81123 0.46143 0.00982 0.0
C724 C 0.81474 0.48691 0.97396 0.0
C725 C 0.82766 0.48149 0.93112 0.0
C726 C 0.83536 0.44988 0.9238 0.0
C727 C 0.83059 0.42461 0.95985 0.0
C728 C 0.81913 0.43045 1.0021 0.0
C729 C 0.81277 0.39773 0.03456 0.0
C730 C 0.84273 0.41448 0.07377 0.0
C731 C 0.76923 0.3752 0.05194 0.0
C732 C 0.82141 0.3718 1.00381 0.0
C733 C 0.83199 0.38768 0.96091 0.0
C734 C 0.83806 0.36682 0.9261 0.0
C735 C 0.83229 0.32845 0.93531 0.0
C736 C 0.82014 0.31149 0.97881 0.0
C737 C 0.81587 0.33411 0.0135 0.0
H738 H 0.67419 0.46296 0.93849 0.0
H739 H 0.65821 0.52426 0.05248 0.0
H740 H 0.58693 0.47245 0.05666 0.0
H741 H 0.56844 0.41906 0.89014 0.0
H742 H 0.56728 0.37298 0.87594 0.0
H743 H 0.61396 0.41989 0.87401 0.0
H744 H 0.64565 0.39081 0.92814 0.0
H745 H 0.59922 0.34414 0.93057 0.0
H746 H 0.62219 0.37085 0.98188 0.0
H747 H 0.52337 0.40897 0.05925 0.0
H748 H 0.47121 0.33761 0.05977 0.0
H749 H 0.52699 0.31619 0.94414 0.0
C750 C 0.65517 0.46628 0.96298 0.0
C751 C 0.67137 0.49758 0.9949 0.0
C752 C 0.64614 0.50044 0.02761 0.0
C753 C 0.60559 0.47135 0.03003 0.0
C754 C 0.59077 0.43976 0.99936 0.0
C755 C 0.61464 0.43714 0.96615 0.0
C756 C 0.5931 0.39712 0.94211 0.0
C757 C 0.58522 0.4026 0.89261 0.0
C758 C 0.61642 0.37442 0.94596 0.0
C759 C 0.55448 0.37679 0.96888 0.0
C760 C 0.55339 0.4023 1.00101 0.0
C761 C 0.52325 0.38903 0.03344 0.0
C762 C 0.49393 0.34845 0.03367 0.0
C763 C 0.49504 0.32168 1.00178 0.0
C764 C 0.52499 0.33629 0.9682 0.0
H765 H 0.35908 0.57004 0.34217 0.0
H766 H 0.32999 0.46732 0.25708 0.0
H767 H 0.26166 0.45744 0.24555 0.0
H768 H 0.26834 0.52952 0.39864 0.0
H769 H 0.26832 0.57623 0.40183 0.0
H770 H 0.315 0.57645 0.39926 0.0
H771 H 0.33603 0.62255 0.32883 0.0
H772 H 0.28939 0.62261 0.33126 0.0
H773 H 0.3036 0.60728 0.28034 0.0
H774 H 0.1943 0.45795 0.24818 0.0
H775 H 0.13682 0.4682 0.26532 0.0
H776 H 0.21428 0.57 0.34942 0.0
C777 C 0.33864 0.54546 0.3208 0.0
C778 C 0.34973 0.51925 0.30072 0.0
C779 C 0.32202 0.48779 0.27271 0.0
C780 C 0.28326 0.48202 0.26603 0.0
C781 C 0.27323 0.50827 0.28724 0.0
C782 C 0.3005 0.53949 0.31381 0.0
C783 C 0.28288 0.56281 0.33485 0.0
C784 C 0.28367 0.56111 0.38669 0.0
C785 C 0.30424 0.60638 0.31778 0.0
C786 C 0.24087 0.53943 0.31695 0.0
C787 C 0.23555 0.50831 0.2891 0.0
C788 C 0.19836 0.48239 0.26975 0.0
C789 C 0.16595 0.4884 0.27958 0.0
C790 C 0.17114 0.51967 0.30895 0.0
C791 C 0.20921 0.54555 0.32721 0.0
H792 H 0.48434 0.81107 0.38553 0.0
H793 H 0.49261 0.8402 0.24326 0.0
H794 H 0.50515 0.78461 0.22586 0.0
H795 H 0.56075 0.77965 0.38564 0.0
H796 H 0.53284 0.73936 0.42486 0.0
H797 H 0.52935 0.78419 0.42765 0.0
H798 H 0.45256 0.74339 0.42 0.0
H799 H 0.4549 0.698 0.41869 0.0
H800 H 0.43055 0.7089 0.3736 0.0
H801 H 0.50542 0.71935 0.22341 0.0
H802 H 0.49665 0.65199 0.23663 0.0
H803 H 0.49171 0.6686 0.38076 0.0
C804 C 0.48954 0.80624 0.35077 0.0
C805 C 0.48726 0.82964 0.3157 0.0
C806 C 0.49431 0.82257 0.27065 0.0
C807 C 0.50153 0.79116 0.26048 0.0
C808 C 0.50242 0.76784 0.29585 0.0
C809 C 0.49719 0.77545 0.34018 0.0
C810 C 0.49628 0.74429 0.37173 0.0
C811 C 0.53197 0.76302 0.40436 0.0
C812 C 0.45619 0.72235 0.39747 0.0
C813 C 0.50024 0.71703 0.33809 0.0
C814 C 0.504 0.7311 0.2945 0.0
C815 C 0.50351 0.7085 0.25747 0.0
C816 C 0.49835 0.67027 0.26525 0.0
C817 C 0.49384 0.65525 0.30969 0.0
C818 C 0.49592 0.67952 0.34643 0.0
H819 H 0.34525 0.79721 0.28876 0.0
H820 H 0.32738 0.85535 0.4047 0.0
H821 H 0.25623 0.80255 0.40771 0.0
H822 H 0.24347 0.7565 0.23784 0.0
H823 H 0.24117 0.71019 0.22206 0.0
H824 H 0.28879 0.75609 0.22378 0.0
H825 H 0.31608 0.72309 0.27859 0.0
H826 H 0.26872 0.67723 0.27698 0.0
H827 H 0.28941 0.70107 0.33026 0.0
H828 H 0.19081 0.74008 0.40503 0.0
H829 H 0.13557 0.67028 0.39862 0.0
H830 H 0.19507 0.65147 0.28471 0.0
C831 C 0.32599 0.79941 0.31385 0.0
C832 C 0.34152 0.83046 0.3462 0.0
C833 C 0.31588 0.8318 0.37952 0.0
C834 C 0.27543 0.80213 0.3813 0.0
C835 C 0.26116 0.77137 0.34956 0.0
C836 C 0.28561 0.76969 0.31647 0.0
C837 C 0.26409 0.73086 0.29008 0.0
C838 C 0.25908 0.73891 0.24049 0.0
C839 C 0.28587 0.70665 0.29426 0.0
C840 C 0.22419 0.71047 0.31443 0.0
C841 C 0.22298 0.73469 0.34815 0.0
C842 C 0.19098 0.72115 0.37814 0.0
C843 C 0.15982 0.68147 0.3743 0.0
C844 C 0.16097 0.65583 0.34081 0.0
C845 C 0.19299 0.67085 0.30975 0.0
H846 H 0.99555 0.83303 0.72351 0.0
H847 H 0.02353 0.84171 0.58071 0.0
H848 H 0.95581 0.82889 0.56275 0.0
H849 H 0.88489 0.75607 0.71282 0.0
H850 H 0.87216 0.78016 0.7567 0.0
H851 H 0.91929 0.78097 0.75855 0.0
H852 H 0.95707 0.85846 0.76346 0.0
H853 H 0.91029 0.85793 0.7618 0.0
H854 H 0.94867 0.88673 0.72082 0.0
H855 H 0.89147 0.8281 0.56041 0.0
H856 H 0.8347 0.83926 0.57407 0.0
H857 H 0.84778 0.83043 0.71827 0.0
C858 C 0.98695 0.83092 0.68845 0.0
C859 C 0.01473 0.83845 0.6535 0.0
C860 C 0.0027 0.83619 0.60803 0.0
C861 C 0.9642 0.82859 0.59746 0.0
C862 C 0.93799 0.82287 0.63273 0.0
C863 C 0.94866 0.82352 0.67735 0.0
C864 C 0.91695 0.82175 0.70894 0.0
C865 C 0.89715 0.78238 0.73583 0.0
C866 C 0.93429 0.85841 0.74056 0.0
C867 C 0.88815 0.82269 0.67511 0.0
C868 C 0.90032 0.82233 0.63134 0.0
C869 C 0.88102 0.82743 0.59446 0.0
C870 C 0.84899 0.83402 0.60255 0.0
C871 C 0.8369 0.83577 0.64719 0.0
C872 C 0.856 0.82875 0.68373 0.0
H873 H 0.12911 0.98423 0.60378 0.0
H874 H 0.20459 -0.00072 0.71844 0.0
H875 H 0.22376 0.07073 0.72362 0.0
H876 H 0.19122 0.08958 0.55597 0.0
H877 H 0.14679 0.09133 0.54131 0.0
H878 H 0.14625 0.04427 0.53999 0.0
H879 H 0.08517 0.01347 0.59403 0.0
H880 H 0.08566 0.06031 0.59576 0.0
H881 H 0.08866 0.03743 0.64743 0.0
H882 H 0.22499 0.13522 0.72528 0.0
H883 H 0.20825 0.18911 0.72362 0.0
H884 H 0.13171 0.13345 0.60774 0.0
C885 C 0.15102 0.00326 0.62856 0.0
C886 C 0.16639 0.98713 0.66001 0.0
C887 C 0.19341 0.01182 0.69357 0.0
C888 C 0.20446 0.0523 0.69664 0.0
C889 C 0.18802 0.06737 0.66592 0.0
C890 C 0.16203 0.04374 0.6323 0.0
C891 C 0.14428 0.06569 0.6078 0.0
C892 C 0.15797 0.07317 0.55833 0.0
C893 C 0.09824 0.04287 0.61152 0.0
C894 C 0.16283 0.10453 0.63428 0.0
C895 C 0.18852 0.1051 0.6671 0.0
C896 C 0.2058 0.13565 0.69901 0.0
C897 C 0.19597 0.16601 0.69794 0.0
C898 C 0.16907 0.16555 0.66524 0.0
C899 C 0.15319 0.13502 0.6323 0.0
H900 H 0.86091 0.99245 0.70886 0.0
H901 H 0.82569 0.98474 0.56885 0.0
H902 H 0.88351 0.05297 0.55554 0.0
H903 H 0.90115 0.10142 0.72504 0.0
H904 H 0.94069 0.10474 0.76039 0.0
H905 H 0.89298 0.05914 0.75884 0.0
H906 H 0.92958 0.02013 0.73829 0.0
H907 H 0.97699 0.06591 0.73861 0.0
H908 H 0.96127 0.03467 0.68902 0.0
H909 H 0.95103 0.11896 0.55656 0.0
H910 H 0.01975 0.17499 0.5719 0.0
H911 H 0.00803 0.13635 0.71113 0.0
C912 C 0.86479 0.00532 0.67551 0.0
C913 C 0.83905 0.98337 0.63982 0.0
C914 C 0.84508 0.00126 0.59672 0.0
C915 C 0.8778 0.03993 0.58891 0.0
C916 C 0.90356 0.06019 0.62474 0.0
C917 C 0.89695 0.04345 0.6673 0.0
C918 C 0.93043 0.06899 0.69936 0.0
C919 C 0.91539 0.08453 0.73817 0.0
C920 C 0.95075 0.04605 0.71733 0.0
C921 C 0.9577 0.10239 0.66807 0.0
C922 C 0.9418 0.09733 0.62524 0.0
C923 C 0.96342 0.12346 0.59016 0.0
C924 C 0.00239 0.15512 0.59911 0.0
C925 C 0.01924 0.15979 0.64261 0.0
C926 C 0.99608 0.13351 0.67746 0.0
loop_
_geom_bond_atom_site_label_1
_geom_bond_atom_site_label_2
_geom_bond_distance
_geom_bond_site_symmetry_2
_ccdc_geom_bond_type
Fe0 O2 1.918 1_556 S
Fe0 O5 1.997 . S
Fe0 O6 2.002 . S
Fe0 O11 1.976 . S
Fe0 O14 1.996 . S
Fe1 O2 1.918 . S
Fe1 O9 1.997 1_554 S
Fe1 O12 1.996 1_554 S
Fe1 O16 1.976 . S
Fe1 O19 2.002 . S
O2 Fe0 1.918 1_554 S
O2 Fe1 1.918 . S
O2 Fe3 1.918 . S
Fe3 O2 1.918 . S
Fe3 O4 2.002 . S
Fe3 O13 1.976 . S
Fe3 O17 1.996 . S
Fe3 O20 1.997 . S
O4 Fe3 2.002 . S
O4 C21 1.295 1_554 S
O5 Fe0 1.997 . S
O5 C21 1.235 . S
O6 Fe0 2.002 . S
O6 C7 1.295 . S
C7 O6 1.295 . S
C7 O9 1.235 . S
C8 O13 1.287 1_556 S
C8 O14 1.255 . S
O9 Fe1 1.997 1_556 S
O9 C7 1.235 . S
C10 O16 1.287 . S
C10 O17 1.255 . S
O11 Fe0 1.976 . S
O11 C18 1.287 . S
O12 Fe1 1.996 1_556 S
O12 C18 1.255 . S
O13 Fe3 1.976 . S
O13 C8 1.287 1_554 S
O14 Fe0 1.996 . S
O14 C8 1.255 . S
C15 O19 1.295 . S
C15 O20 1.235 . S
O16 Fe1 1.976 . S
O16 C10 1.287 . S
O17 Fe3 1.996 . S
O17 C10 1.255 . S
C18 O11 1.287 . S
C18 O12 1.255 . S
O19 Fe1 2.002 . S
O19 C15 1.295 . S
O20 Fe3 1.997 . S
O20 C15 1.235 . S
C21 O4 1.295 1_556 S
C21 O5 1.235 . S
Fe22 O24 1.918 . S
Fe22 O27 1.997 1_554 S
Fe22 O28 2.002 . S
Fe22 O33 1.976 . S
Fe22 O36 1.996 1_554 S
Fe23 O24 1.918 . S
Fe23 O31 1.997 . S
Fe23 O34 1.996 . S
Fe23 O38 1.976 . S
Fe23 O41 2.002 . S
O24 Fe22 1.918 . S
O24 Fe23 1.918 . S
O24 Fe25 1.918 1_554 S
Fe25 O24 1.918 1_556 S
Fe25 O26 2.002 . S
Fe25 O35 1.976 . S
Fe25 O39 1.996 . S
Fe25 O42 1.997 . S
O26 Fe25 2.002 . S
O26 C43 1.295 . S
O27 Fe22 1.997 1_556 S
O27 C43 1.235 . S
O28 Fe22 2.002 . S
O28 C29 1.295 . S
C29 O28 1.295 . S
C29 O31 1.235 . S
C30 O35 1.287 . S
C30 O36 1.255 . S
O31 Fe23 1.997 . S
O31 C29 1.235 . S
C32 O38 1.287 1_556 S
C32 O39 1.255 . S
O33 Fe22 1.976 . S
O33 C40 1.287 . S
O34 Fe23 1.996 . S
O34 C40 1.255 . S
O35 Fe25 1.976 . S
O35 C30 1.287 . S
O36 Fe22 1.996 1_556 S
O36 C30 1.255 . S
C37 O41 1.295 1_556 S
C37 O42 1.235 . S
O38 Fe23 1.976 . S
O38 C32 1.287 1_554 S
O39 Fe25 1.996 . S
O39 C32 1.255 . S
C40 O33 1.287 . S
C40 O34 1.255 . S
O41 Fe23 2.002 . S
O41 C37 1.295 1_554 S
O42 Fe25 1.997 . S
O42 C37 1.235 . S
C43 O26 1.295 . S
C43 O27 1.235 . S
Fe44 O46 1.918 1_556 S
Fe44 O49 1.997 . S
Fe44 O50 2.002 . S
Fe44 O55 1.976 . S
Fe44 O58 1.996 . S
Fe45 O46 1.918 . S
Fe45 O53 1.997 1_554 S
Fe45 O56 1.996 1_554 S
Fe45 O60 1.976 . S
Fe45 O63 2.002 . S
O46 Fe44 1.918 1_554 S
O46 Fe45 1.918 . S
O46 Fe47 1.918 . S
Fe47 O46 1.918 . S
Fe47 O48 2.002 . S
Fe47 O57 1.976 . S
Fe47 O61 1.996 . S
Fe47 O64 1.997 . S
O48 Fe47 2.002 . S
O48 C65 1.295 1_554 S
O49 Fe44 1.997 . S
O49 C65 1.235 . S
O50 Fe44 2.002 . S
O50 C51 1.295 . S
C51 O50 1.295 . S
C51 O53 1.235 . S
C52 O57 1.287 1_556 S
C52 O58 1.255 . S
O53 Fe45 1.997 1_556 S
O53 C51 1.235 . S
C54 O60 1.287 . S
C54 O61 1.255 . S
O55 Fe44 1.976 . S
O55 C62 1.287 . S
O56 Fe45 1.996 1_556 S
O56 C62 1.255 . S
O57 Fe47 1.976 . S
O57 C52 1.287 1_554 S
O58 Fe44 1.996 . S
O58 C52 1.255 . S
C59 O63 1.295 . S
C59 O64 1.235 . S
O60 Fe45 1.976 . S
O60 C54 1.287 . S
O61 Fe47 1.996 . S
O61 C54 1.255 . S
C62 O55 1.287 . S
C62 O56 1.255 . S
O63 Fe45 2.002 . S
O63 C59 1.295 . S
O64 Fe47 1.997 . S
O64 C59 1.235 . S
C65 O48 1.295 1_556 S
C65 O49 1.235 . S
Fe66 O68 1.918 . S
Fe66 O71 1.997 . S
Fe66 O72 2.002 . S
Fe66 O77 1.976 . S
Fe66 O80 1.996 . S
Fe67 O68 1.918 . S
Fe67 O75 1.997 . S
Fe67 O78 1.996 . S
Fe67 O82 1.976 . S
Fe67 O85 2.002 . S
O68 Fe66 1.918 . S
O68 Fe67 1.918 . S
O68 Fe69 1.918 . S
Fe69 O68 1.918 . S
Fe69 O70 2.002 . S
Fe69 O79 1.976 . S
Fe69 O83 1.996 . S
Fe69 O86 1.997 . S
O70 Fe69 2.002 . S
O70 C87 1.295 . S
O71 Fe66 1.997 . S
O71 C87 1.235 . S
O72 Fe66 2.002 . S
O72 C73 1.295 . S
C73 O72 1.295 . S
C73 O75 1.235 . S
C74 O79 1.287 . S
C74 O80 1.255 . S
O75 Fe67 1.997 . S
O75 C73 1.235 . S
C76 O82 1.287 . S
C76 O83 1.255 . S
O77 Fe66 1.976 . S
O77 C84 1.287 . S
O78 Fe67 1.996 . S
O78 C84 1.255 . S
O79 Fe69 1.976 . S
O79 C74 1.287 . S
O80 Fe66 1.996 . S
O80 C74 1.255 . S
C81 O85 1.295 . S
C81 O86 1.235 . S
O82 Fe67 1.976 . S
O82 C76 1.287 . S
O83 Fe69 1.996 . S
O83 C76 1.255 . S
C84 O77 1.287 . S
C84 O78 1.255 . S
O85 Fe67 2.002 . S
O85 C81 1.295 . S
O86 Fe69 1.997 . S
O86 C81 1.235 . S
C87 O70 1.295 . S
C87 O71 1.235 . S
Fe88 O90 1.918 . S
Fe88 O93 1.997 . S
Fe88 O94 2.002 . S
Fe88 O99 1.976 . S
Fe88 O102 1.996 . S
Fe89 O90 1.918 . S
Fe89 O97 1.997 . S
Fe89 O100 1.996 . S
Fe89 O104 1.976 . S
Fe89 O107 2.002 . S
O90 Fe88 1.918 . S
O90 Fe89 1.918 . S
O90 Fe91 1.918 . S
Fe91 O90 1.918 . S
Fe91 O92 2.002 . S
Fe91 O101 1.976 . S
Fe91 O105 1.996 . S
Fe91 O108 1.997 . S
O92 Fe91 2.002 . S
O92 C109 1.295 . S
O93 Fe88 1.997 . S
O93 C109 1.235 . S
O94 Fe88 2.002 . S
O94 C95 1.295 . S
C95 O94 1.295 . S
C95 O97 1.235 . S
C96 O101 1.287 . S
C96 O102 1.255 . S
O97 Fe89 1.997 . S
O97 C95 1.235 . S
C98 O104 1.287 . S
C98 O105 1.255 . S
O99 Fe88 1.976 . S
O99 C106 1.287 . S
O100 Fe89 1.996 . S
O100 C106 1.255 . S
O101 Fe91 1.976 . S
O101 C96 1.287 . S
O102 Fe88 1.996 . S
O102 C96 1.255 . S
C103 O107 1.295 . S
C103 O108 1.235 . S
O104 Fe89 1.976 . S
O104 C98 1.287 . S
O105 Fe91 1.996 . S
O105 C98 1.255 . S
C106 O99 1.287 . S
C106 O100 1.255 . S
O107 Fe89 2.002 . S
O107 C103 1.295 . S
O108 Fe91 1.997 . S
O108 C103 1.235 . S
C109 O92 1.295 . S
C109 O93 1.235 . S
Fe110 O112 1.918 . S
Fe110 O115 1.997 . S
Fe110 O116 2.002 . S
Fe110 O121 1.976 . S
Fe110 O124 1.996 . S
Fe111 O112 1.918 . S
Fe111 O119 1.997 . S
Fe111 O122 1.996 . S
Fe111 O126 1.976 . S
Fe111 O129 2.002 . S
O112 Fe110 1.918 . S
O112 Fe111 1.918 . S
O112 Fe113 1.918 . S
Fe113 O112 1.918 . S
Fe113 O114 2.002 . S
Fe113 O123 1.976 . S
Fe113 O127 1.996 . S
Fe113 O130 1.997 . S
O114 Fe113 2.002 . S
O114 C131 1.295 . S
O115 Fe110 1.997 . S
O115 C131 1.235 . S
O116 Fe110 2.002 . S
O116 C117 1.295 . S
C117 O116 1.295 . S
C117 O119 1.235 . S
C118 O123 1.287 . S
C118 O124 1.255 . S
O119 Fe111 1.997 . S
O119 C117 1.235 . S
C120 O126 1.287 . S
C120 O127 1.255 . S
O121 Fe110 1.976 . S
O121 C128 1.287 . S
O122 Fe111 1.996 . S
O122 C128 1.255 . S
O123 Fe113 1.976 . S
O123 C118 1.287 . S
O124 Fe110 1.996 . S
O124 C118 1.255 . S
C125 O129 1.295 . S
C125 O130 1.235 . S
O126 Fe111 1.976 . S
O126 C120 1.287 . S
O127 Fe113 1.996 . S
O127 C120 1.255 . S
C128 O121 1.287 . S
C128 O122 1.255 . S
O129 Fe111 2.002 . S
O129 C125 1.295 . S
O130 Fe113 1.997 . S
O130 C125 1.235 . S
C131 O114 1.295 . S
C131 O115 1.235 . S
Fe132 O134 1.918 . S
Fe132 O137 1.997 . S
Fe132 O138 2.002 . S
Fe132 O143 1.976 . S
Fe132 O146 1.996 . S
Fe133 O134 1.918 . S
Fe133 O141 1.997 . S
Fe133 O144 1.996 . S
Fe133 O148 1.976 . S
Fe133 O151 2.002 . S
O134 Fe132 1.918 . S
O134 Fe133 1.918 . S
O134 Fe135 1.918 . S
Fe135 O134 1.918 . S
Fe135 O136 2.002 . S
Fe135 O145 1.976 . S
Fe135 O149 1.996 . S
Fe135 O152 1.997 . S
O136 Fe135 2.002 . S
O136 C153 1.295 . S
O137 Fe132 1.997 . S
O137 C153 1.235 . S
O138 Fe132 2.002 . S
O138 C139 1.295 . S
C139 O138 1.295 . S
C139 O141 1.235 . S
C140 O145 1.287 . S
C140 O146 1.255 . S
O141 Fe133 1.997 . S
O141 C139 1.235 . S
C142 O148 1.287 . S
C142 O149 1.255 . S
O143 Fe132 1.976 . S
O143 C150 1.287 . S
O144 Fe133 1.996 . S
O144 C150 1.255 . S
O145 Fe135 1.976 . S
O145 C140 1.287 . S
O146 Fe132 1.996 . S
O146 C140 1.255 . S
C147 O151 1.295 . S
C147 O152 1.235 . S
O148 Fe133 1.976 . S
O148 C142 1.287 . S
O149 Fe135 1.996 . S
O149 C142 1.255 . S
C150 O143 1.287 . S
C150 O144 1.255 . S
O151 Fe133 2.002 . S
O151 C147 1.295 . S
O152 Fe135 1.997 . S
O152 C147 1.235 . S
C153 O136 1.295 . S
C153 O137 1.235 . S
Fe154 O156 1.918 . S
Fe154 O159 1.997 . S
Fe154 O160 2.002 . S
Fe154 O165 1.976 . S
Fe154 O168 1.996 . S
Fe155 O156 1.918 . S
Fe155 O163 1.997 . S
Fe155 O166 1.996 . S
Fe155 O170 1.976 . S
Fe155 O173 2.002 . S
O156 Fe154 1.918 . S
O156 Fe155 1.918 . S
O156 Fe157 1.918 . S
Fe157 O156 1.918 . S
Fe157 O158 2.002 . S
Fe157 O167 1.976 . S
Fe157 O171 1.996 . S
Fe157 O174 1.997 . S
O158 Fe157 2.002 . S
O158 C175 1.295 . S
O159 Fe154 1.997 . S
O159 C175 1.235 . S
O160 Fe154 2.002 . S
O160 C161 1.295 . S
C161 O160 1.295 . S
C161 O163 1.235 . S
C162 O167 1.287 . S
C162 O168 1.255 . S
O163 Fe155 1.997 . S
O163 C161 1.235 . S
C164 O170 1.287 . S
C164 O171 1.255 . S
O165 Fe154 1.976 . S
O165 C172 1.287 . S
O166 Fe155 1.996 . S
O166 C172 1.255 . S
O167 Fe157 1.976 . S
O167 C162 1.287 . S
O168 Fe154 1.996 . S
O168 C162 1.255 . S
C169 O173 1.295 . S
C169 O174 1.235 . S
O170 Fe155 1.976 . S
O170 C164 1.287 . S
O171 Fe157 1.996 . S
O171 C164 1.255 . S
C172 O165 1.287 . S
C172 O166 1.255 . S
O173 Fe155 2.002 . S
O173 C169 1.295 . S
O174 Fe157 1.997 . S
O174 C169 1.235 . S
C175 O158 1.295 . S
C175 O159 1.235 . S
Fe176 O178 1.918 . S
Fe176 O181 1.997 . S
Fe176 O182 2.002 . S
Fe176 O187 1.976 . S
Fe176 O190 1.996 . S
Fe177 O178 1.918 . S
Fe177 O185 1.997 . S
Fe177 O188 1.996 . S
Fe177 O192 1.976 . S
Fe177 O195 2.002 . S
O178 Fe176 1.918 . S
O178 Fe177 1.918 . S
O178 Fe179 1.918 . S
Fe179 O178 1.918 . S
Fe179 O180 2.002 . S
Fe179 O189 1.976 . S
Fe179 O193 1.996 . S
Fe179 O196 1.997 . S
O180 Fe179 2.002 . S
O180 C197 1.295 . S
O181 Fe176 1.997 . S
O181 C197 1.235 . S
O182 Fe176 2.002 . S
O182 C183 1.295 . S
C183 O182 1.295 . S
C183 O185 1.235 . S
C184 O189 1.287 . S
C184 O190 1.255 . S
O185 Fe177 1.997 . S
O185 C183 1.235 . S
C186 O192 1.287 . S
C186 O193 1.255 . S
O187 Fe176 1.976 . S
O187 C194 1.287 . S
O188 Fe177 1.996 . S
O188 C194 1.255 . S
O189 Fe179 1.976 . S
O189 C184 1.287 . S
O190 Fe176 1.996 . S
O190 C184 1.255 . S
C191 O195 1.295 . S
C191 O196 1.235 . S
O192 Fe177 1.976 . S
O192 C186 1.287 . S
O193 Fe179 1.996 . S
O193 C186 1.255 . S
C194 O187 1.287 . S
C194 O188 1.255 . S
O195 Fe177 2.002 . S
O195 C191 1.295 . S
O196 Fe179 1.997 . S
O196 C191 1.235 . S
C197 O180 1.295 . S
C197 O181 1.235 . S
H198 C210 0.930 . S
H199 C212 0.930 . S
H200 C213 0.930 . S
H201 C217 0.959 . S
H202 C217 0.959 . S
H203 C217 0.961 . S
H204 C218 0.960 . S
H205 C218 0.961 . S
H206 C218 0.959 . S
H207 C221 0.929 . S
H208 C222 0.931 . S
H209 C224 0.930 . S
C210 H198 0.930 . S
C210 C211 1.399 . S
C210 C215 1.399 . S
C211 C210 1.399 . S
C211 C212 1.376 . S
C212 H199 0.930 . S
C212 C211 1.376 . S
C212 C213 1.388 . S
C213 H200 0.930 . S
C213 C212 1.388 . S
C213 C214 1.390 . S
C214 C213 1.390 . S
C214 C215 1.394 . S
C214 C220 1.465 . S
C215 C210 1.399 . S
C215 C214 1.394 . S
C215 C216 1.516 1_545 S
C216 C215 1.516 1_565 S
C216 C217 1.502 . S
C216 C218 1.561 . S
C216 C219 1.526 . S
C217 H201 0.959 . S
C217 H202 0.959 . S
C217 H203 0.961 . S
C217 C216 1.502 . S
C218 H204 0.960 . S
C218 H205 0.961 . S
C218 H206 0.959 . S
C218 C216 1.561 . S
C219 C216 1.526 . S
C219 C220 1.396 1_565 S
C219 C224 1.390 . S
C220 C214 1.465 . S
C220 C219 1.396 1_545 S
C220 C221 1.399 . S
C221 H207 0.929 . S
C221 C220 1.399 . S
C221 C222 1.385 1_545 S
C222 H208 0.931 . S
C222 C221 1.385 1_565 S
C222 C223 1.389 . S
C223 C222 1.389 . S
C223 C224 1.387 . S
C224 H209 0.930 . S
C224 C219 1.390 . S
C224 C223 1.387 . S
H225 C237 0.930 . S
H226 C239 0.930 . S
H227 C240 0.930 1_455 S
H228 C244 0.959 . S
H229 C244 0.959 . S
H230 C244 0.961 . S
H231 C245 0.960 . S
H232 C245 0.961 . S
H233 C245 0.959 . S
H234 C248 0.929 . S
H235 C249 0.931 . S
H236 C251 0.930 . S
C237 H225 0.930 . S
C237 C238 1.399 . S
C237 C242 1.399 . S
C238 C237 1.399 . S
C238 C239 1.376 . S
C239 H226 0.930 . S
C239 C238 1.376 . S
C239 C240 1.388 . S
C240 H227 0.930 1_655 S
C240 C239 1.388 . S
C240 C241 1.390 . S
C241 C240 1.390 . S
C241 C242 1.394 . S
C241 C247 1.465 1_655 S
C242 C237 1.399 . S
C242 C241 1.394 . S
C242 C243 1.516 . S
C243 C242 1.516 . S
C243 C244 1.502 . S
C243 C245 1.561 . S
C243 C246 1.526 1_655 S
C244 H228 0.959 . S
C244 H229 0.959 . S
C244 H230 0.961 . S
C244 C243 1.502 . S
C245 H231 0.960 . S
C245 H232 0.961 . S
C245 H233 0.959 . S
C245 C243 1.561 . S
C246 C243 1.526 1_455 S
C246 C247 1.396 . S
C246 C251 1.390 . S
C247 C241 1.465 1_455 S
C247 C246 1.396 . S
C247 C248 1.399 . S
C248 H234 0.929 . S
C248 C247 1.399 . S
C248 C249 1.385 . S
C249 H235 0.931 . S
C249 C248 1.385 . S
C249 C250 1.389 . S
C250 C249 1.389 . S
C250 C251 1.387 . S
C251 H236 0.930 . S
C251 C246 1.390 . S
C251 C250 1.387 . S
H252 C264 0.930 . S
H253 C266 0.930 . S
H254 C267 0.930 . S
H255 C271 0.959 . S
H256 C271 0.959 . S
H257 C271 0.961 . S
H258 C272 0.960 . S
H259 C272 0.961 . S
H260 C272 0.959 . S
H261 C275 0.929 . S
H262 C276 0.931 . S
H263 C278 0.930 . S
C264 H252 0.930 . S
C264 C265 1.399 . S
C264 C269 1.399 . S
C265 C264 1.399 . S
C265 C266 1.376 . S
C266 H253 0.930 . S
C266 C265 1.376 . S
C266 C267 1.388 . S
C267 H254 0.930 . S
C267 C266 1.388 . S
C267 C268 1.390 . S
C268 C267 1.390 . S
C268 C269 1.394 . S
C268 C274 1.465 . S
C269 C264 1.399 . S
C269 C268 1.394 . S
C269 C270 1.516 . S
C270 C269 1.516 . S
C270 C271 1.502 . S
C270 C272 1.561 . S
C270 C273 1.526 . S
C271 H255 0.959 . S
C271 H256 0.959 . S
C271 H257 0.961 . S
C271 C270 1.502 . S
C272 H258 0.960 . S
C272 H259 0.961 . S
C272 H260 0.959 . S
C272 C270 1.561 . S
C273 C270 1.526 . S
C273 C274 1.396 . S
C273 C278 1.390 . S
C274 C268 1.465 . S
C274 C273 1.396 . S
C274 C275 1.399 . S
C275 H261 0.929 . S
C275 C274 1.399 . S
C275 C276 1.385 . S
C276 H262 0.931 . S
C276 C275 1.385 . S
C276 C277 1.389 . S
C277 C276 1.389 . S
C277 C278 1.387 . S
C278 H263 0.930 . S
C278 C273 1.390 . S
C278 C277 1.387 . S
H279 C291 0.930 . S
H280 C293 0.930 . S
H281 C294 0.930 . S
H282 C298 0.959 . S
H283 C298 0.959 . S
H284 C298 0.961 . S
H285 C299 0.960 . S
H286 C299 0.961 . S
H287 C299 0.959 . S
H288 C302 0.929 . S
H289 C303 0.931 . S
H290 C305 0.930 . S
C291 H279 0.930 . S
C291 C292 1.399 . S
C291 C296 1.399 . S
C292 C291 1.399 . S
C292 C293 1.376 . S
C293 H280 0.930 . S
C293 C292 1.376 . S
C293 C294 1.388 . S
C294 H281 0.930 . S
C294 C293 1.388 . S
C294 C295 1.390 . S
C295 C294 1.390 . S
C295 C296 1.394 . S
C295 C301 1.465 1_455 S
C296 C291 1.399 . S
C296 C295 1.394 . S
C296 C297 1.516 1_455 S
C297 C296 1.516 1_655 S
C297 C298 1.502 . S
C297 C299 1.561 . S
C297 C300 1.526 . S
C298 H282 0.959 . S
C298 H283 0.959 . S
C298 H284 0.961 . S
C298 C297 1.502 . S
C299 H285 0.960 . S
C299 H286 0.961 . S
C299 H287 0.959 . S
C299 C297 1.561 . S
C300 C297 1.526 . S
C300 C301 1.396 . S
C300 C305 1.390 . S
C301 C295 1.465 1_655 S
C301 C300 1.396 . S
C301 C302 1.399 . S
C302 H288 0.929 . S
C302 C301 1.399 . S
C302 C303 1.385 . S
C303 H289 0.931 . S
C303 C302 1.385 . S
C303 C304 1.389 . S
C304 C303 1.389 . S
C304 C305 1.387 . S
C305 H290 0.930 . S
C305 C300 1.390 . S
C305 C304 1.387 . S
H306 C318 0.930 . S
H307 C320 0.930 . S
H308 C321 0.930 . S
H309 C325 0.959 . S
H310 C325 0.959 . S
H311 C325 0.961 . S
H312 C326 0.960 . S
H313 C326 0.961 . S
H314 C326 0.959 . S
H315 C329 0.929 . S
H316 C330 0.931 . S
H317 C332 0.930 . S
C318 H306 0.930 . S
C318 C319 1.399 . S
C318 C323 1.399 . S
C319 C318 1.399 . S
C319 C320 1.376 . S
C320 H307 0.930 . S
C320 C319 1.376 . S
C320 C321 1.388 . S
C321 H308 0.930 . S
C321 C320 1.388 . S
C321 C322 1.390 . S
C322 C321 1.390 . S
C322 C323 1.394 . S
C322 C328 1.465 . S
C323 C318 1.399 . S
C323 C322 1.394 . S
C323 C324 1.516 . S
C324 C323 1.516 . S
C324 C325 1.502 . S
C324 C326 1.561 . S
C324 C327 1.526 . S
C325 H309 0.959 . S
C325 H310 0.959 . S
C325 H311 0.961 . S
C325 C324 1.502 . S
C326 H312 0.960 . S
C326 H313 0.961 . S
C326 H314 0.959 . S
C326 C324 1.561 . S
C327 C324 1.526 . S
C327 C328 1.396 . S
C327 C332 1.390 . S
C328 C322 1.465 . S
C328 C327 1.396 . S
C328 C329 1.399 . S
C329 H315 0.929 . S
C329 C328 1.399 . S
C329 C330 1.385 . S
C330 H316 0.931 . S
C330 C329 1.385 . S
C330 C331 1.389 . S
C331 C330 1.389 . S
C331 C332 1.387 . S
C332 H317 0.930 . S
C332 C327 1.390 . S
C332 C331 1.387 . S
H333 C345 0.930 . S
H334 C347 0.930 . S
H335 C348 0.930 . S
H336 C352 0.959 . S
H337 C352 0.959 . S
H338 C352 0.961 . S
H339 C353 0.960 . S
H340 C353 0.961 . S
H341 C353 0.959 . S
H342 C356 0.929 1_565 S
H343 C357 0.931 . S
H344 C359 0.930 . S
C345 H333 0.930 . S
C345 C346 1.399 . S
C345 C350 1.399 . S
C346 C345 1.399 . S
C346 C347 1.376 . S
C347 H334 0.930 . S
C347 C346 1.376 . S
C347 C348 1.388 . S
C348 H335 0.930 . S
C348 C347 1.388 . S
C348 C349 1.390 . S
C349 C348 1.390 . S
C349 C350 1.394 . S
C349 C355 1.465 1_565 S
C350 C345 1.399 . S
C350 C349 1.394 . S
C350 C351 1.516 1_565 S
C351 C350 1.516 1_545 S
C351 C352 1.502 . S
C351 C353 1.561 . S
C351 C354 1.526 . S
C352 H336 0.959 . S
C352 H337 0.959 . S
C352 H338 0.961 . S
C352 C351 1.502 . S
C353 H339 0.960 . S
C353 H340 0.961 . S
C353 H341 0.959 . S
C353 C351 1.561 . S
C354 C351 1.526 . S
C354 C355 1.396 . S
C354 C359 1.390 . S
C355 C349 1.465 1_545 S
C355 C354 1.396 . S
C355 C356 1.399 . S
C356 H342 0.929 1_545 S
C356 C355 1.399 . S
C356 C357 1.385 . S
C357 H343 0.931 . S
C357 C356 1.385 . S
C357 C358 1.389 . S
C358 C357 1.389 . S
C358 C359 1.387 . S
C359 H344 0.930 . S
C359 C354 1.390 . S
C359 C358 1.387 . S
H360 C372 0.930 . S
H361 C374 0.930 . S
H362 C375 0.930 . S
H363 C379 0.959 . S
H364 C379 0.959 . S
H365 C379 0.961 . S
H366 C380 0.960 . S
H367 C380 0.961 . S
H368 C380 0.959 . S
H369 C383 0.929 . S
H370 C384 0.931 . S
H371 C386 0.930 1_455 S
C372 H360 0.930 . S
C372 C373 1.399 . S
C372 C377 1.399 . S
C373 C372 1.399 . S
C373 C374 1.376 . S
C374 H361 0.930 . S
C374 C373 1.376 . S
C374 C375 1.388 . S
C375 H362 0.930 . S
C375 C374 1.388 . S
C375 C376 1.390 . S
C376 C375 1.390 . S
C376 C377 1.394 . S
C376 C382 1.465 . S
C377 C372 1.399 . S
C377 C376 1.394 . S
C377 C378 1.516 . S
C378 C377 1.516 . S
C378 C379 1.502 . S
C378 C380 1.561 . S
C378 C381 1.526 . S
C379 H363 0.959 . S
C379 H364 0.959 . S
C379 H365 0.961 . S
C379 C378 1.502 . S
C380 H366 0.960 . S
C380 H367 0.961 . S
C380 H368 0.959 . S
C380 C378 1.561 . S
C381 C378 1.526 . S
C381 C382 1.396 . S
C381 C386 1.390 . S
C382 C376 1.465 . S
C382 C381 1.396 . S
C382 C383 1.399 . S
C383 H369 0.929 . S
C383 C382 1.399 . S
C383 C384 1.385 . S
C384 H370 0.931 . S
C384 C383 1.385 . S
C384 C385 1.389 1_655 S
C385 C384 1.389 1_455 S
C385 C386 1.387 1_455 S
C386 H371 0.930 1_655 S
C386 C381 1.390 . S
C386 C385 1.387 1_655 S
H387 C399 0.930 . S
H388 C401 0.930 . S
H389 C402 0.930 . S
H390 C406 0.959 . S
H391 C406 0.959 . S
H392 C406 0.961 . S
H393 C407 0.960 . S
H394 C407 0.961 . S
H395 C407 0.959 . S
H396 C410 0.929 . S
H397 C411 0.931 . S
H398 C413 0.930 . S
C399 H387 0.930 . S
C399 C400 1.399 . S
C399 C404 1.399 . S
C400 C399 1.399 . S
C400 C401 1.376 . S
C401 H388 0.930 . S
C401 C400 1.376 . S
C401 C402 1.388 . S
C402 H389 0.930 . S
C402 C401 1.388 . S
C402 C403 1.390 . S
C403 C402 1.390 . S
C403 C404 1.394 . S
C403 C409 1.465 . S
C404 C399 1.399 . S
C404 C403 1.394 . S
C404 C405 1.516 . S
C405 C404 1.516 . S
C405 C406 1.502 . S
C405 C407 1.561 . S
C405 C408 1.526 . S
C406 H390 0.959 . S
C406 H391 0.959 . S
C406 H392 0.961 . S
C406 C405 1.502 . S
C407 H393 0.960 . S
C407 H394 0.961 . S
C407 H395 0.959 . S
C407 C405 1.561 . S
C408 C405 1.526 . S
C408 C409 1.396 . S
C408 C413 1.390 . S
C409 C403 1.465 . S
C409 C408 1.396 . S
C409 C410 1.399 . S
C410 H396 0.929 . S
C410 C409 1.399 . S
C410 C411 1.385 . S
C411 H397 0.931 . S
C411 C410 1.385 . S
C411 C412 1.389 . S
C412 C411 1.389 . S
C412 C413 1.387 . S
C413 H398 0.930 . S
C413 C408 1.390 . S
C413 C412 1.387 . S
H414 C426 0.930 . S
H415 C428 0.930 . S
H416 C429 0.930 . S
H417 C433 0.959 . S
H418 C433 0.959 . S
H419 C433 0.961 . S
H420 C434 0.960 . S
H421 C434 0.961 . S
H422 C434 0.959 . S
H423 C437 0.929 . S
H424 C438 0.931 . S
H425 C440 0.930 . S
C426 H414 0.930 . S
C426 C427 1.399 . S
C426 C431 1.399 . S
C427 C426 1.399 . S
C427 C428 1.376 . S
C428 H415 0.930 . S
C428 C427 1.376 . S
C428 C429 1.388 . S
C429 H416 0.930 . S
C429 C428 1.388 . S
C429 C430 1.390 . S
C430 C429 1.390 . S
C430 C431 1.394 . S
C430 C436 1.465 . S
C431 C426 1.399 . S
C431 C430 1.394 . S
C431 C432 1.516 . S
C432 C431 1.516 . S
C432 C433 1.502 . S
C432 C434 1.561 . S
C432 C435 1.526 . S
C433 H417 0.959 . S
C433 H418 0.959 . S
C433 H419 0.961 . S
C433 C432 1.502 . S
C434 H420 0.960 . S
C434 H421 0.961 . S
C434 H422 0.959 . S
C434 C432 1.561 . S
C435 C432 1.526 . S
C435 C436 1.396 . S
C435 C440 1.390 . S
C436 C430 1.465 . S
C436 C435 1.396 . S
C436 C437 1.399 1_545 S
C437 H423 0.929 . S
C437 C436 1.399 1_565 S
C437 C438 1.385 . S
C438 H424 0.931 . S
C438 C437 1.385 . S
C438 C439 1.389 . S
C439 C438 1.389 . S
C439 C440 1.387 1_565 S
C440 H425 0.930 . S
C440 C435 1.390 . S
C440 C439 1.387 1_545 S
H441 C453 0.930 . S
H442 C455 0.930 . S
H443 C456 0.930 . S
H444 C460 0.959 . S
H445 C460 0.959 . S
H446 C460 0.961 . S
H447 C461 0.960 . S
H448 C461 0.961 . S
H449 C461 0.959 . S
H450 C464 0.929 . S
H451 C465 0.931 . S
H452 C467 0.930 . S
C453 H441 0.930 . S
C453 C454 1.399 . S
C453 C458 1.399 . S
C454 C453 1.399 . S
C454 C455 1.376 . S
C455 H442 0.930 . S
C455 C454 1.376 . S
C455 C456 1.388 . S
C456 H443 0.930 . S
C456 C455 1.388 . S
C456 C457 1.390 . S
C457 C456 1.390 . S
C457 C458 1.394 . S
C457 C463 1.465 . S
C458 C453 1.399 . S
C458 C457 1.394 . S
C458 C459 1.516 . S
C459 C458 1.516 . S
C459 C460 1.502 . S
C459 C461 1.561 . S
C459 C462 1.526 . S
C460 H444 0.959 . S
C460 H445 0.959 . S
C460 H446 0.961 . S
C460 C459 1.502 . S
C461 H447 0.960 . S
C461 H448 0.961 . S
C461 H449 0.959 . S
C461 C459 1.561 . S
C462 C459 1.526 . S
C462 C463 1.396 . S
C462 C467 1.390 . S
C463 C457 1.465 . S
C463 C462 1.396 . S
C463 C464 1.399 1_545 S
C464 H450 0.929 . S
C464 C463 1.399 1_565 S
C464 C465 1.385 . S
C465 H451 0.931 . S
C465 C464 1.385 . S
C465 C466 1.389 . S
C466 C465 1.389 . S
C466 C467 1.387 1_565 S
C467 H452 0.930 . S
C467 C462 1.390 . S
C467 C466 1.387 1_545 S
H468 C480 0.930 . S
H469 C482 0.925 1_455 S
H470 C483 0.930 . S
H471 C487 0.959 . S
H472 C487 0.959 . S
H473 C487 0.961 . S
H474 C488 0.960 . S
H475 C488 0.961 . S
H476 C488 0.959 . S
H477 C491 0.929 . S
H478 C492 0.931 . S
H479 C494 0.930 . S
C480 H468 0.930 . S
C480 C481 1.399 1_655 S
C480 C485 1.399 . S
C481 C480 1.399 1_455 S
C481 C482 1.376 1_455 S
C482 H469 0.925 1_655 S
C482 C481 1.376 1_655 S
C482 C483 1.388 . S
C483 H470 0.930 . S
C483 C482 1.388 . S
C483 C484 1.390 . S
C484 C483 1.390 . S
C484 C485 1.394 . S
C484 C490 1.465 . S
C485 C480 1.399 . S
C485 C484 1.394 . S
C485 C486 1.516 . S
C486 C485 1.516 . S
C486 C487 1.502 . S
C486 C488 1.561 . S
C486 C489 1.526 . S
C487 H471 0.959 . S
C487 H472 0.959 . S
C487 H473 0.961 . S
C487 C486 1.502 . S
C488 H474 0.960 . S
C488 H475 0.961 . S
C488 H476 0.959 . S
C488 C486 1.561 . S
C489 C486 1.526 . S
C489 C490 1.396 . S
C489 C494 1.390 . S
C490 C484 1.465 . S
C490 C489 1.396 . S
C490 C491 1.399 . S
C491 H477 0.929 . S
C491 C490 1.399 . S
C491 C492 1.385 . S
C492 H478 0.931 . S
C492 C491 1.385 . S
C492 C493 1.389 . S
C493 C492 1.389 . S
C493 C494 1.387 . S
C494 H479 0.930 . S
C494 C489 1.390 . S
C494 C493 1.387 . S
H495 C507 0.930 . S
H496 C509 0.930 . S
H497 C510 0.930 . S
H498 C514 0.959 . S
H499 C514 0.959 . S
H500 C514 0.961 . S
H501 C515 0.960 . S
H502 C515 0.961 . S
H503 C515 0.959 . S
H504 C518 0.929 . S
H505 C519 0.931 . S
H506 C521 0.930 . S
C507 H495 0.930 . S
C507 C508 1.399 . S
C507 C512 1.399 . S
C508 C507 1.399 . S
C508 C509 1.376 . S
C509 H496 0.930 . S
C509 C508 1.376 . S
C509 C510 1.388 . S
C510 H497 0.930 . S
C510 C509 1.388 . S
C510 C511 1.390 . S
C511 C510 1.390 . S
C511 C512 1.394 . S
C511 C517 1.465 . S
C512 C507 1.399 . S
C512 C511 1.394 . S
C512 C513 1.516 . S
C513 C512 1.516 . S
C513 C514 1.502 . S
C513 C515 1.561 . S
C513 C516 1.526 . S
C514 H498 0.959 . S
C514 H499 0.959 . S
C514 H500 0.961 . S
C514 C513 1.502 . S
C515 H501 0.960 . S
C515 H502 0.961 . S
C515 H503 0.959 . S
C515 C513 1.561 . S
C516 C513 1.526 . S
C516 C517 1.396 . S
C516 C521 1.390 . S
C517 C511 1.465 . S
C517 C516 1.396 . S
C517 C518 1.399 . S
C518 H504 0.929 . S
C518 C517 1.399 . S
C518 C519 1.385 . S
C519 H505 0.931 . S
C519 C518 1.385 . S
C519 C520 1.389 . S
C520 C519 1.389 . S
C520 C521 1.387 . S
C521 H506 0.930 . S
C521 C516 1.390 . S
C521 C520 1.387 . S
H522 C534 0.930 . S
H523 C536 0.930 . S
H524 C537 0.930 . S
H525 C541 0.959 . S
H526 C541 0.959 . S
H527 C541 0.961 . S
H528 C542 0.960 . S
H529 C542 0.961 . S
H530 C542 0.959 . S
H531 C545 0.929 . S
H532 C546 0.931 . S
H533 C548 0.930 . S
C534 H522 0.930 . S
C534 C535 1.399 . S
C534 C539 1.399 . S
C535 C534 1.399 . S
C535 C536 1.376 . S
C536 H523 0.930 . S
C536 C535 1.376 . S
C536 C537 1.388 . S
C537 H524 0.930 . S
C537 C536 1.388 . S
C537 C538 1.390 . S
C538 C537 1.390 . S
C538 C539 1.394 . S
C538 C544 1.465 . S
C539 C534 1.399 . S
C539 C538 1.394 . S
C539 C540 1.516 . S
C540 C539 1.516 . S
C540 C541 1.502 . S
C540 C542 1.561 . S
C540 C543 1.526 . S
C541 H525 0.959 . S
C541 H526 0.959 . S
C541 H527 0.961 . S
C541 C540 1.502 . S
C542 H528 0.960 . S
C542 H529 0.961 . S
C542 H530 0.959 . S
C542 C540 1.561 . S
C543 C540 1.526 . S
C543 C544 1.396 . S
C543 C548 1.390 . S
C544 C538 1.465 . S
C544 C543 1.396 . S
C544 C545 1.399 . S
C545 H531 0.929 . S
C545 C544 1.399 . S
C545 C546 1.385 . S
C546 H532 0.931 . S
C546 C545 1.385 . S
C546 C547 1.389 . S
C547 C546 1.389 . S
C547 C548 1.387 . S
C548 H533 0.930 . S
C548 C543 1.390 . S
C548 C547 1.387 . S
H549 C561 0.930 . S
H550 C563 0.930 1_545 S
H551 C564 0.930 1_545 S
H552 C568 0.959 . S
H553 C568 0.959 . S
H554 C568 0.961 . S
H555 C569 0.960 . S
H556 C569 0.961 . S
H557 C569 0.959 . S
H558 C572 0.929 . S
H559 C573 0.931 . S
H560 C575 0.930 . S
C561 H549 0.930 . S
C561 C562 1.399 . S
C561 C566 1.399 . S
C562 C561 1.399 . S
C562 C563 1.376 . S
C563 H550 0.930 1_565 S
C563 C562 1.376 . S
C563 C564 1.388 . S
C564 H551 0.930 1_565 S
C564 C563 1.388 . S
C564 C565 1.390 . S
C565 C564 1.390 . S
C565 C566 1.394 . S
C565 C571 1.465 . S
C566 C561 1.399 . S
C566 C565 1.394 . S
C566 C567 1.516 . S
C567 C566 1.516 . S
C567 C568 1.502 . S
C567 C569 1.561 . S
C567 C570 1.526 . S
C568 H552 0.959 . S
C568 H553 0.959 . S
C568 H554 0.961 . S
C568 C567 1.502 . S
C569 H555 0.960 . S
C569 H556 0.961 . S
C569 H557 0.959 . S
C569 C567 1.561 . S
C570 C567 1.526 . S
C570 C571 1.396 . S
C570 C575 1.390 . S
C571 C565 1.465 . S
C571 C570 1.396 . S
C571 C572 1.399 . S
C572 H558 0.929 . S
C572 C571 1.399 . S
C572 C573 1.385 . S
C573 H559 0.931 . S
C573 C572 1.385 . S
C573 C574 1.389 . S
C574 C573 1.389 . S
C574 C575 1.387 . S
C575 H560 0.930 . S
C575 C570 1.390 . S
C575 C574 1.387 . S
H576 C588 0.930 . S
H577 C590 0.930 . S
H578 C591 0.930 . S
H579 C595 0.959 . S
H580 C595 0.959 . S
H581 C595 0.961 . S
H582 C596 0.960 . S
H583 C596 0.961 . S
H584 C596 0.959 . S
H585 C599 0.929 . S
H586 C600 0.931 . S
H587 C602 0.930 . S
C588 H576 0.930 . S
C588 C589 1.399 . S
C588 C593 1.399 . S
C589 C588 1.399 . S
C589 C590 1.376 . S
C590 H577 0.930 . S
C590 C589 1.376 . S
C590 C591 1.388 . S
C591 H578 0.930 . S
C591 C590 1.388 . S
C591 C592 1.390 . S
C592 C591 1.390 . S
C592 C593 1.394 . S
C592 C598 1.465 . S
C593 C588 1.399 . S
C593 C592 1.394 . S
C593 C594 1.516 . S
C594 C593 1.516 . S
C594 C595 1.502 . S
C594 C596 1.561 . S
C594 C597 1.526 . S
C595 H579 0.959 . S
C595 H580 0.959 . S
C595 H581 0.961 . S
C595 C594 1.502 . S
C596 H582 0.960 . S
C596 H583 0.961 . S
C596 H584 0.959 . S
C596 C594 1.561 . S
C597 C594 1.526 . S
C597 C598 1.396 . S
C597 C602 1.390 . S
C598 C592 1.465 . S
C598 C597 1.396 . S
C598 C599 1.399 . S
C599 H585 0.929 . S
C599 C598 1.399 . S
C599 C600 1.385 . S
C600 H586 0.931 . S
C600 C599 1.385 . S
C600 C601 1.389 . S
C601 C600 1.389 . S
C601 C602 1.387 . S
C602 H587 0.930 . S
C602 C597 1.390 . S
C602 C601 1.387 . S
H603 C615 0.930 . S
H604 C617 0.930 . S
H605 C618 0.930 . S
H606 C622 0.959 . S
H607 C622 0.959 . S
H608 C622 0.961 . S
H609 C623 0.960 . S
H610 C623 0.961 . S
H611 C623 0.959 . S
H612 C626 0.929 . S
H613 C627 0.931 . S
H614 C629 0.930 . S
C615 H603 0.930 . S
C615 C616 1.399 . S
C615 C620 1.399 . S
C616 C615 1.399 . S
C616 C617 1.376 . S
C617 H604 0.930 . S
C617 C616 1.376 . S
C617 C618 1.388 . S
C618 H605 0.930 . S
C618 C617 1.388 . S
C618 C619 1.390 . S
C619 C618 1.390 . S
C619 C620 1.394 . S
C619 C625 1.465 . S
C620 C615 1.399 . S
C620 C619 1.394 . S
C620 C621 1.516 . S
C621 C620 1.516 . S
C621 C622 1.502 . S
C621 C623 1.561 . S
C621 C624 1.526 . S
C622 H606 0.959 . S
C622 H607 0.959 . S
C622 H608 0.961 . S
C622 C621 1.502 . S
C623 H609 0.960 . S
C623 H610 0.961 . S
C623 H611 0.959 . S
C623 C621 1.561 . S
C624 C621 1.526 . S
C624 C625 1.396 . S
C624 C629 1.390 . S
C625 C619 1.465 . S
C625 C624 1.396 . S
C625 C626 1.399 . S
C626 H612 0.929 . S
C626 C625 1.399 . S
C626 C627 1.385 . S
C627 H613 0.931 . S
C627 C626 1.385 . S
C627 C628 1.389 . S
C628 C627 1.389 . S
C628 C629 1.387 . S
C629 H614 0.930 . S
C629 C624 1.390 . S
C629 C628 1.387 . S
H630 C642 0.930 . S
H631 C644 0.930 . S
H632 C645 0.930 . S
H633 C649 0.959 . S
H634 C649 0.959 1_545 S
H635 C649 0.961 1_545 S
H636 C650 0.960 1_545 S
H637 C650 0.961 1_545 S
H638 C650 0.959 . S
H639 C653 0.929 . S
H640 C654 0.931 . S
H641 C656 0.930 . S
C642 H630 0.930 . S
C642 C643 1.399 . S
C642 C647 1.399 . S
C643 C642 1.399 . S
C643 C644 1.376 . S
C644 H631 0.930 . S
C644 C643 1.376 . S
C644 C645 1.388 . S
C645 H632 0.930 . S
C645 C644 1.388 . S
C645 C646 1.390 . S
C646 C645 1.390 . S
C646 C647 1.394 . S
C646 C652 1.465 . S
C647 C642 1.399 . S
C647 C646 1.394 . S
C647 C648 1.516 . S
C648 C647 1.516 . S
C648 C649 1.502 . S
C648 C650 1.561 . S
C648 C651 1.526 . S
C649 H633 0.959 . S
C649 H634 0.959 1_565 S
C649 H635 0.961 1_565 S
C649 C648 1.502 . S
C650 H636 0.960 1_565 S
C650 H637 0.961 1_565 S
C650 H638 0.959 . S
C650 C648 1.561 . S
C651 C648 1.526 . S
C651 C652 1.396 . S
C651 C656 1.390 . S
C652 C646 1.465 . S
C652 C651 1.396 . S
C652 C653 1.399 . S
C653 H639 0.929 . S
C653 C652 1.399 . S
C653 C654 1.385 . S
C654 H640 0.931 . S
C654 C653 1.385 . S
C654 C655 1.389 . S
C655 C654 1.389 . S
C655 C656 1.387 . S
C656 H641 0.930 . S
C656 C651 1.390 . S
C656 C655 1.387 . S
H657 C669 0.930 . S
H658 C671 0.943 . S
H659 C672 0.953 . S
H660 C676 0.959 . S
H661 C676 0.959 . S
H662 C676 0.961 . S
H663 C677 0.960 . S
H664 C677 0.961 . S
H665 C677 0.959 . S
H666 C680 0.929 . S
H667 C681 0.931 . S
H668 C683 0.930 . S
C669 H657 0.930 . S
C669 C670 1.399 . S
C669 C674 1.399 . S
C670 C669 1.399 . S
C670 C671 1.376 . S
C671 H658 0.943 . S
C671 C670 1.376 . S
C671 C672 1.388 . S
C672 H659 0.953 . S
C672 C671 1.388 . S
C672 C673 1.390 . S
C673 C672 1.390 . S
C673 C674 1.394 . S
C673 C679 1.465 . S
C674 C669 1.399 . S
C674 C673 1.394 . S
C674 C675 1.516 . S
C675 C674 1.516 . S
C675 C676 1.502 . S
C675 C677 1.561 . S
C675 C678 1.526 . S
C676 H660 0.959 . S
C676 H661 0.959 . S
C676 H662 0.961 . S
C676 C675 1.502 . S
C677 H663 0.960 . S
C677 H664 0.961 . S
C677 H665 0.959 . S
C677 C675 1.561 . S
C678 C675 1.526 . S
C678 C679 1.396 . S
C678 C683 1.390 . S
C679 C673 1.465 . S
C679 C678 1.396 . S
C679 C680 1.399 . S
C680 H666 0.929 . S
C680 C679 1.399 . S
C680 C681 1.385 . S
C681 H667 0.931 . S
C681 C680 1.385 . S
C681 C682 1.389 . S
C682 C681 1.389 . S
C682 C683 1.387 . S
C683 H668 0.930 . S
C683 C678 1.390 . S
C683 C682 1.387 . S
H684 C696 0.930 1_554 S
H685 C698 0.930 . S
H686 C699 0.930 . S
H687 C703 0.959 . S
H688 C703 0.959 . S
H689 C703 0.961 . S
H690 C704 0.960 . S
H691 C704 0.961 . S
H692 C704 0.959 . S
H693 C707 0.929 . S
H694 C708 0.931 . S
H695 C710 0.930 1_554 S
C696 H684 0.930 1_556 S
C696 C697 1.399 . S
C696 C701 1.399 . S
C697 C696 1.399 . S
C697 C698 1.376 . S
C698 H685 0.930 . S
C698 C697 1.376 . S
C698 C699 1.388 . S
C699 H686 0.930 . S
C699 C698 1.388 . S
C699 C700 1.390 . S
C700 C699 1.390 . S
C700 C701 1.394 . S
C700 C706 1.465 . S
C701 C696 1.399 . S
C701 C700 1.394 . S
C701 C702 1.516 1_556 S
C702 C701 1.516 1_554 S
C702 C703 1.502 1_554 S
C702 C704 1.561 . S
C702 C705 1.526 1_554 S
C703 H687 0.959 . S
C703 H688 0.959 . S
C703 H689 0.961 . S
C703 C702 1.502 1_556 S
C704 H690 0.960 . S
C704 H691 0.961 . S
C704 H692 0.959 . S
C704 C702 1.561 . S
C705 C702 1.526 1_556 S
C705 C706 1.396 . S
C705 C710 1.390 . S
C706 C700 1.465 . S
C706 C705 1.396 . S
C706 C707 1.399 . S
C707 H693 0.929 . S
C707 C706 1.399 . S
C707 C708 1.385 . S
C708 H694 0.931 . S
C708 C707 1.385 . S
C708 C709 1.389 . S
C709 C708 1.389 . S
C709 C710 1.387 . S
C710 H695 0.930 1_556 S
C710 C705 1.390 . S
C710 C709 1.387 . S
H711 C723 0.930 . S
H712 C725 0.930 . S
H713 C726 0.930 . S
H714 C730 0.959 . S
H715 C730 0.959 . S
H716 C730 0.961 . S
H717 C731 0.960 . S
H718 C731 0.961 . S
H719 C731 0.959 . S
H720 C734 0.929 . S
H721 C735 0.931 . S
H722 C737 0.930 . S
C723 H711 0.930 . S
C723 C724 1.399 1_554 S
C723 C728 1.399 . S
C724 C723 1.399 1_556 S
C724 C725 1.376 . S
C725 H712 0.930 . S
C725 C724 1.376 . S
C725 C726 1.388 . S
C726 H713 0.930 . S
C726 C725 1.388 . S
C726 C727 1.390 . S
C727 C726 1.390 . S
C727 C728 1.394 1_556 S
C727 C733 1.465 . S
C728 C723 1.399 . S
C728 C727 1.394 1_554 S
C728 C729 1.516 . S
C729 C728 1.516 . S
C729 C730 1.502 . S
C729 C731 1.561 . S
C729 C732 1.526 . S
C730 H714 0.959 . S
C730 H715 0.959 . S
C730 H716 0.961 . S
C730 C729 1.502 . S
C731 H717 0.960 . S
C731 H718 0.961 . S
C731 H719 0.959 . S
C731 C729 1.561 . S
C732 C729 1.526 . S
C732 C733 1.396 1_554 S
C732 C737 1.390 . S
C733 C727 1.465 . S
C733 C732 1.396 1_556 S
C733 C734 1.399 . S
C734 H720 0.929 . S
C734 C733 1.399 . S
C734 C735 1.385 . S
C735 H721 0.931 . S
C735 C734 1.385 . S
C735 C736 1.389 . S
C736 C735 1.389 . S
C736 C737 1.387 1_556 S
C737 H722 0.930 . S
C737 C732 1.390 . S
C737 C736 1.387 1_554 S
H738 C750 0.930 . S
H739 C752 0.930 . S
H740 C753 0.930 . S
H741 C757 0.959 . S
H742 C757 0.959 . S
H743 C757 0.961 . S
H744 C758 0.960 . S
H745 C758 0.961 . S
H746 C758 0.959 . S
H747 C761 0.929 . S
H748 C762 0.931 . S
H749 C764 0.930 . S
C750 H738 0.930 . S
C750 C751 1.399 . S
C750 C755 1.399 . S
C751 C750 1.399 . S
C751 C752 1.376 1_556 S
C752 H739 0.930 . S
C752 C751 1.376 1_554 S
C752 C753 1.388 . S
C753 H740 0.930 . S
C753 C752 1.388 . S
C753 C754 1.390 . S
C754 C753 1.390 . S
C754 C755 1.394 1_554 S
C754 C760 1.465 . S
C755 C750 1.399 . S
C755 C754 1.394 1_556 S
C755 C756 1.516 . S
C756 C755 1.516 . S
C756 C757 1.502 . S
C756 C758 1.561 . S
C756 C759 1.526 . S
C757 H741 0.959 . S
C757 H742 0.959 . S
C757 H743 0.961 . S
C757 C756 1.502 . S
C758 H744 0.960 . S
C758 H745 0.961 . S
C758 H746 0.959 . S
C758 C756 1.561 . S
C759 C756 1.526 . S
C759 C760 1.396 1_556 S
C759 C764 1.390 . S
C760 C754 1.465 . S
C760 C759 1.396 1_554 S
C760 C761 1.399 . S
C761 H747 0.929 . S
C761 C760 1.399 . S
C761 C762 1.385 . S
C762 H748 0.931 . S
C762 C761 1.385 . S
C762 C763 1.389 1_554 S
C763 C762 1.389 1_556 S
C763 C764 1.387 . S
C764 H749 0.930 . S
C764 C759 1.390 . S
C764 C763 1.387 . S
H765 C777 0.930 . S
H766 C779 0.930 . S
H767 C780 0.930 . S
H768 C784 0.959 . S
H769 C784 0.959 . S
H770 C784 0.961 . S
H771 C785 0.960 . S
H772 C785 0.961 . S
H773 C785 0.959 . S
H774 C788 0.929 . S
H775 C789 0.931 . S
H776 C791 0.930 . S
C777 H765 0.930 . S
C777 C778 1.399 . S
C777 C782 1.399 . S
C778 C777 1.399 . S
C778 C779 1.376 . S
C779 H766 0.930 . S
C779 C778 1.376 . S
C779 C780 1.388 . S
C780 H767 0.930 . S
C780 C779 1.388 . S
C780 C781 1.390 . S
C781 C780 1.390 . S
C781 C782 1.394 . S
C781 C787 1.465 . S
C782 C777 1.399 . S
C782 C781 1.394 . S
C782 C783 1.516 . S
C783 C782 1.516 . S
C783 C784 1.502 . S
C783 C785 1.561 . S
C783 C786 1.526 . S
C784 H768 0.959 . S
C784 H769 0.959 . S
C784 H770 0.961 . S
C784 C783 1.502 . S
C785 H771 0.960 . S
C785 H772 0.961 . S
C785 H773 0.959 . S
C785 C783 1.561 . S
C786 C783 1.526 . S
C786 C787 1.396 . S
C786 C791 1.390 . S
C787 C781 1.465 . S
C787 C786 1.396 . S
C787 C788 1.399 . S
C788 H774 0.929 . S
C788 C787 1.399 . S
C788 C789 1.385 . S
C789 H775 0.931 . S
C789 C788 1.385 . S
C789 C790 1.389 . S
C790 C789 1.389 . S
C790 C791 1.387 . S
C791 H776 0.930 . S
C791 C786 1.390 . S
C791 C790 1.387 . S
H792 C804 0.930 . S
H793 C806 0.930 . S
H794 C807 0.930 . S
H795 C811 0.959 . S
H796 C811 0.959 . S
H797 C811 0.961 . S
H798 C812 0.960 . S
H799 C812 0.961 . S
H800 C812 0.959 . S
H801 C815 0.929 . S
H802 C816 0.931 . S
H803 C818 0.930 . S
C804 H792 0.930 . S
C804 C805 1.399 . S
C804 C809 1.399 . S
C805 C804 1.399 . S
C805 C806 1.376 . S
C806 H793 0.930 . S
C806 C805 1.376 . S
C806 C807 1.388 . S
C807 H794 0.930 . S
C807 C806 1.388 . S
C807 C808 1.390 . S
C808 C807 1.390 . S
C808 C809 1.394 . S
C808 C814 1.465 . S
C809 C804 1.399 . S
C809 C808 1.394 . S
C809 C810 1.516 . S
C810 C809 1.516 . S
C810 C811 1.502 . S
C810 C812 1.561 . S
C810 C813 1.526 . S
C811 H795 0.959 . S
C811 H796 0.959 . S
C811 H797 0.961 . S
C811 C810 1.502 . S
C812 H798 0.960 . S
C812 H799 0.961 . S
C812 H800 0.959 . S
C812 C810 1.561 . S
C813 C810 1.526 . S
C813 C814 1.396 . S
C813 C818 1.390 . S
C814 C808 1.465 . S
C814 C813 1.396 . S
C814 C815 1.399 . S
C815 H801 0.929 . S
C815 C814 1.399 . S
C815 C816 1.385 . S
C816 H802 0.931 . S
C816 C815 1.385 . S
C816 C817 1.389 . S
C817 C816 1.389 . S
C817 C818 1.387 . S
C818 H803 0.930 . S
C818 C813 1.390 . S
C818 C817 1.387 . S
H819 C831 0.930 . S
H820 C833 0.930 . S
H821 C834 0.930 . S
H822 C838 0.959 . S
H823 C838 0.959 . S
H824 C838 0.961 . S
H825 C839 0.960 . S
H826 C839 0.961 . S
H827 C839 0.959 . S
H828 C842 0.929 . S
H829 C843 0.931 . S
H830 C845 0.930 . S
C831 H819 0.930 . S
C831 C832 1.399 . S
C831 C836 1.399 . S
C832 C831 1.399 . S
C832 C833 1.376 . S
C833 H820 0.930 . S
C833 C832 1.376 . S
C833 C834 1.388 . S
C834 H821 0.930 . S
C834 C833 1.388 . S
C834 C835 1.390 . S
C835 C834 1.390 . S
C835 C836 1.394 . S
C835 C841 1.465 . S
C836 C831 1.399 . S
C836 C835 1.394 . S
C836 C837 1.516 . S
C837 C836 1.516 . S
C837 C838 1.502 . S
C837 C839 1.561 . S
C837 C840 1.526 . S
C838 H822 0.959 . S
C838 H823 0.959 . S
C838 H824 0.961 . S
C838 C837 1.502 . S
C839 H825 0.960 . S
C839 H826 0.961 . S
C839 H827 0.959 . S
C839 C837 1.561 . S
C840 C837 1.526 . S
C840 C841 1.396 . S
C840 C845 1.390 . S
C841 C835 1.465 . S
C841 C840 1.396 . S
C841 C842 1.399 . S
C842 H828 0.929 . S
C842 C841 1.399 . S
C842 C843 1.385 . S
C843 H829 0.931 . S
C843 C842 1.385 . S
C843 C844 1.389 . S
C844 C843 1.389 . S
C844 C845 1.387 . S
C845 H830 0.930 . S
C845 C840 1.390 . S
C845 C844 1.387 . S
H846 C858 0.930 . S
H847 C860 0.930 . S
H848 C861 0.930 . S
H849 C865 0.959 . S
H850 C865 0.959 . S
H851 C865 0.961 . S
H852 C866 0.960 . S
H853 C866 0.961 . S
H854 C866 0.959 . S
H855 C869 0.929 . S
H856 C870 0.931 . S
H857 C872 0.930 . S
C858 H846 0.930 . S
C858 C859 1.399 1_655 S
C858 C863 1.399 . S
C859 C858 1.399 1_455 S
C859 C860 1.376 . S
C860 H847 0.930 . S
C860 C859 1.376 . S
C860 C861 1.388 1_455 S
C861 H848 0.930 . S
C861 C860 1.388 1_655 S
C861 C862 1.390 . S
C862 C861 1.390 . S
C862 C863 1.394 . S
C862 C868 1.465 . S
C863 C858 1.399 . S
C863 C862 1.394 . S
C863 C864 1.516 . S
C864 C863 1.516 . S
C864 C865 1.502 . S
C864 C866 1.561 . S
C864 C867 1.526 . S
C865 H849 0.959 . S
C865 H850 0.959 . S
C865 H851 0.961 . S
C865 C864 1.502 . S
C866 H852 0.960 . S
C866 H853 0.961 . S
C866 H854 0.959 . S
C866 C864 1.561 . S
C867 C864 1.526 . S
C867 C868 1.396 . S
C867 C872 1.390 . S
C868 C862 1.465 . S
C868 C867 1.396 . S
C868 C869 1.399 . S
C869 H855 0.929 . S
C869 C868 1.399 . S
C869 C870 1.385 . S
C870 H856 0.931 . S
C870 C869 1.385 . S
C870 C871 1.389 . S
C871 C870 1.389 . S
C871 C872 1.387 . S
C872 H857 0.930 . S
C872 C867 1.390 . S
C872 C871 1.387 . S
H873 C885 0.930 . S
H874 C887 0.930 . S
H875 C888 0.930 . S
H876 C892 0.959 . S
H877 C892 0.959 . S
H878 C892 0.961 . S
H879 C893 0.960 . S
H880 C893 0.961 . S
H881 C893 0.959 . S
H882 C896 0.929 . S
H883 C897 0.931 . S
H884 C899 0.930 . S
C885 H873 0.930 . S
C885 C886 1.399 1_545 S
C885 C890 1.399 . S
C886 C885 1.399 1_565 S
C886 C887 1.376 . S
C887 H874 0.930 . S
C887 C886 1.376 . S
C887 C888 1.388 1_565 S
C888 H875 0.930 . S
C888 C887 1.388 1_545 S
C888 C889 1.390 . S
C889 C888 1.390 . S
C889 C890 1.394 . S
C889 C895 1.465 . S
C890 C885 1.399 . S
C890 C889 1.394 . S
C890 C891 1.516 . S
C891 C890 1.516 . S
C891 C892 1.502 . S
C891 C893 1.561 . S
C891 C894 1.526 . S
C892 H876 0.959 . S
C892 H877 0.959 . S
C892 H878 0.961 . S
C892 C891 1.502 . S
C893 H879 0.960 . S
C893 H880 0.961 . S
C893 H881 0.959 . S
C893 C891 1.561 . S
C894 C891 1.526 . S
C894 C895 1.396 . S
C894 C899 1.390 . S
C895 C889 1.465 . S
C895 C894 1.396 . S
C895 C896 1.399 . S
C896 H882 0.929 . S
C896 C895 1.399 . S
C896 C897 1.385 . S
C897 H883 0.931 . S
C897 C896 1.385 . S
C897 C898 1.389 . S
C898 C897 1.389 . S
C898 C899 1.387 . S
C899 H884 0.930 . S
C899 C894 1.390 . S
C899 C898 1.387 . S
H900 C912 0.930 . S
H901 C914 0.930 . S
H902 C915 0.930 . S
H903 C919 0.959 . S
H904 C919 0.959 . S
H905 C919 0.961 . S
H906 C920 0.960 . S
H907 C920 0.961 . S
H908 C920 0.959 . S
H909 C923 0.929 . S
H910 C924 0.931 . S
H911 C926 0.930 . S
C912 H900 0.930 . S
C912 C913 1.399 1_545 S
C912 C917 1.399 . S
C913 C912 1.399 1_565 S
C913 C914 1.376 . S
C914 H901 0.930 . S
C914 C913 1.376 . S
C914 C915 1.388 1_565 S
C915 H902 0.930 . S
C915 C914 1.388 1_545 S
C915 C916 1.390 . S
C916 C915 1.390 . S
C916 C917 1.394 . S
C916 C922 1.465 . S
C917 C912 1.399 . S
C917 C916 1.394 . S
C917 C918 1.516 . S
C918 C917 1.516 . S
C918 C919 1.502 . S
C918 C920 1.561 . S
C918 C921 1.526 . S
C919 H903 0.959 . S
C919 H904 0.959 . S
C919 H905 0.961 . S
C919 C918 1.502 . S
C920 H906 0.960 . S
C920 H907 0.961 . S
C920 H908 0.959 . S
C920 C918 1.561 . S
C921 C918 1.526 . S
C921 C922 1.396 . S
C921 C926 1.390 . S
C922 C916 1.465 . S
C922 C921 1.396 . S
C922 C923 1.399 . S
C923 H909 0.929 . S
C923 C922 1.399 . S
C923 C924 1.385 1_655 S
C924 H910 0.931 . S
C924 C923 1.385 1_455 S
C924 C925 1.389 . S
C925 C924 1.389 . S
C925 C926 1.387 1_455 S
C926 H911 0.930 . S
C926 C921 1.390 . S
C926 C925 1.387 1_655 S
C211 C18 1.251 . S
C223 C164 1.206 . S
C238 C30 1.272 . S
C250 C194 1.262 . S
C265 C142 1.257 . S
C277 C62 1.268 . S
C292 C169 1.370 . S
C304 C51 1.367 . S
C319 C183 1.369 . S
C331 C7 1.370 . S
C346 C147 1.371 . S
C358 C43 1.371 . S
C373 C40 1.248 . S
C385 C84 1.268 . S
C400 C106 1.274 . S
C412 C54 1.271 . S
C427 C10 1.268 . S
C439 C120 1.272 . S
C454 C29 1.369 . S
C466 C125 1.367 . S
C481 C73 1.362 . S
C493 C59 1.358 . S
C508 C15 1.367 . S
C520 C95 1.369 . S
C535 C150 1.249 . S
C547 C98 1.198 . S
C562 C118 1.270 . S
C574 C172 1.274 . S
C589 C184 1.274 . S
C601 C76 1.272 . S
C616 C197 1.345 . S
C628 C103 1.341 . S
C643 C131 1.324 . S
C655 C139 1.328 . S
C670 C81 1.371 . S
C682 C161 1.371 . S
C697 C8 0.925 . S
C709 C37 0.944 . S
C724 C65 0.884 . S
C736 C32 0.912 . S
C751 C52 0.868 . S
C763 C21 0.852 . S
C778 C109 0.880 . S
C790 C74 0.878 . S
C805 C117 0.852 . S
C817 C96 0.889 . S
C832 C128 0.867 . S
C844 C87 0.847 . S
C859 C175 0.860 . S
C871 C140 0.870 . S
C886 C162 0.868 . S
C898 C191 0.854 . S
C913 C153 0.873 . S
C925 C186 0.906 . S
