# Generated by pormake.
# Topology yft, (5)-cn, num edge types: 1
# Building blocks:
#     Node 0, Type 0, BuildingBlock: XOMCOT_clean_sbu_0, # of connection points: 5
#     Node 1, Type 0, BuildingBlock: XOMCOT_clean_sbu_0, # of connection points: 5
#     Node 2, Type 0, BuildingBlock: XOMCOT_clean_sbu_0, # of connection points: 5
#     Node 3, Type 0, BuildingBlock: XOMCOT_clean_sbu_0, # of connection points: 5
#     Node 4, Type 0, BuildingBlock: XOMCOT_clean_sbu_0, # of connection points: 5
#     Node 5, Type 0, BuildingBlock: XOMCOT_clean_sbu_0, # of connection points: 5
#     Node 6, Type 0, BuildingBlock: XOMCOT_clean_sbu_0, # of connection points: 5
#     Node 7, Type 0, BuildingBlock: XOMCOT_clean_sbu_0, # of connection points: 5
#     Node 8, Type 0, BuildingBlock: XOMCOT_clean_sbu_0, # of connection points: 5
#     Node 9, Type 0, BuildingBlock: XOMCOT_clean_sbu_0, # of connection points: 5
#     Node 10, Type 0, BuildingBlock: XOMCOT_clean_sbu_0, # of connection points: 5
#     Node 11, Type 0, BuildingBlock: XOMCOT_clean_sbu_0, # of connection points: 5
#     Node 12, Type 0, BuildingBlock: XOMCOT_clean_sbu_0, # of connection points: 5
#     Node 13, Type 0, BuildingBlock: XOMCOT_clean_sbu_0, # of connection points: 5
#     Node 14, Type 0, BuildingBlock: XOMCOT_clean_sbu_0, # of connection points: 5
#     Node 15, Type 0, BuildingBlock: XOMCOT_clean_sbu_0, # of connection points: 5
#     Node 16, Type 0, BuildingBlock: XOMCOT_clean_sbu_0, # of connection points: 5
#     Node 17, Type 0, BuildingBlock: XOMCOT_clean_sbu_0, # of connection points: 5
#     Node 18, Type 0, BuildingBlock: XOMCOT_clean_sbu_0, # of connection points: 5
#     Node 19, Type 0, BuildingBlock: XOMCOT_clean_sbu_0, # of connection points: 5
#     Node 20, Type 0, BuildingBlock: XOMCOT_clean_sbu_0, # of connection points: 5
#     Node 21, Type 0, BuildingBlock: XOMCOT_clean_sbu_0, # of connection points: 5
#     Node 22, Type 0, BuildingBlock: XOMCOT_clean_sbu_0, # of connection points: 5
#     Node 23, Type 0, BuildingBlock: XOMCOT_clean_sbu_0, # of connection points: 5
#     Node 24, Type 0, BuildingBlock: XOMCOT_clean_sbu_0, # of connection points: 5
#     Node 25, Type 0, BuildingBlock: XOMCOT_clean_sbu_0, # of connection points: 5
#     Node 26, Type 0, BuildingBlock: XOMCOT_clean_sbu_0, # of connection points: 5
#     Node 27, Type 0, BuildingBlock: XOMCOT_clean_sbu_0, # of connection points: 5
#     Node 28, Type 0, BuildingBlock: XOMCOT_clean_sbu_0, # of connection points: 5
#     Node 29, Type 0, BuildingBlock: XOMCOT_clean_sbu_0, # of connection points: 5
#     Node 30, Type 0, BuildingBlock: XOMCOT_clean_sbu_0, # of connection points: 5
#     Node 31, Type 0, BuildingBlock: XOMCOT_clean_sbu_0, # of connection points: 5
#     Edge 32, Type (0, 0), BuildingBlock: KIFKEQ_clean_linker_1, # of connection points: 2
#     Edge 33, Type (0, 0), BuildingBlock: KIFKEQ_clean_linker_1, # of connection points: 2
#     Edge 34, Type (0, 0), BuildingBlock: KIFKEQ_clean_linker_1, # of connection points: 2
#     Edge 35, Type (0, 0), BuildingBlock: KIFKEQ_clean_linker_1, # of connection points: 2
#     Edge 36, Type (0, 0), BuildingBlock: KIFKEQ_clean_linker_1, # of connection points: 2
#     Edge 37, Type (0, 0), BuildingBlock: KIFKEQ_clean_linker_1, # of connection points: 2
#     Edge 38, Type (0, 0), BuildingBlock: KIFKEQ_clean_linker_1, # of connection points: 2
#     Edge 39, Type (0, 0), BuildingBlock: KIFKEQ_clean_linker_1, # of connection points: 2
#     Edge 40, Type (0, 0), BuildingBlock: KIFKEQ_clean_linker_1, # of connection points: 2
#     Edge 41, Type (0, 0), BuildingBlock: KIFKEQ_clean_linker_1, # of connection points: 2
#     Edge 42, Type (0, 0), BuildingBlock: KIFKEQ_clean_linker_1, # of connection points: 2
#     Edge 43, Type (0, 0), BuildingBlock: KIFKEQ_clean_linker_1, # of connection points: 2
#     Edge 44, Type (0, 0), BuildingBlock: KIFKEQ_clean_linker_1, # of connection points: 2
#     Edge 45, Type (0, 0), BuildingBlock: KIFKEQ_clean_linker_1, # of connection points: 2
#     Edge 46, Type (0, 0), BuildingBlock: KIFKEQ_clean_linker_1, # of connection points: 2
#     Edge 47, Type (0, 0), BuildingBlock: KIFKEQ_clean_linker_1, # of connection points: 2
#     Edge 48, Type (0, 0), BuildingBlock: KIFKEQ_clean_linker_1, # of connection points: 2
#     Edge 49, Type (0, 0), BuildingBlock: KIFKEQ_clean_linker_1, # of connection points: 2
#     Edge 50, Type (0, 0), BuildingBlock: KIFKEQ_clean_linker_1, # of connection points: 2
#     Edge 51, Type (0, 0), BuildingBlock: KIFKEQ_clean_linker_1, # of connection points: 2
#     Edge 52, Type (0, 0), BuildingBlock: KIFKEQ_clean_linker_1, # of connection points: 2
#     Edge 53, Type (0, 0), BuildingBlock: KIFKEQ_clean_linker_1, # of connection points: 2
#     Edge 54, Type (0, 0), BuildingBlock: KIFKEQ_clean_linker_1, # of connection points: 2
#     Edge 55, Type (0, 0), BuildingBlock: KIFKEQ_clean_linker_1, # of connection points: 2
#     Edge 56, Type (0, 0), BuildingBlock: KIFKEQ_clean_linker_1, # of connection points: 2
#     Edge 57, Type (0, 0), BuildingBlock: KIFKEQ_clean_linker_1, # of connection points: 2
#     Edge 58, Type (0, 0), BuildingBlock: KIFKEQ_clean_linker_1, # of connection points: 2
#     Edge 59, Type (0, 0), BuildingBlock: KIFKEQ_clean_linker_1, # of connection points: 2
#     Edge 60, Type (0, 0), BuildingBlock: KIFKEQ_clean_linker_1, # of connection points: 2
#     Edge 61, Type (0, 0), BuildingBlock: KIFKEQ_clean_linker_1, # of connection points: 2
#     Edge 62, Type (0, 0), BuildingBlock: KIFKEQ_clean_linker_1, # of connection points: 2
#     Edge 63, Type (0, 0), BuildingBlock: KIFKEQ_clean_linker_1, # of connection points: 2
#     Edge 64, Type (0, 0), BuildingBlock: KIFKEQ_clean_linker_1, # of connection points: 2
#     Edge 65, Type (0, 0), BuildingBlock: KIFKEQ_clean_linker_1, # of connection points: 2
#     Edge 66, Type (0, 0), BuildingBlock: KIFKEQ_clean_linker_1, # of connection points: 2
#     Edge 67, Type (0, 0), BuildingBlock: KIFKEQ_clean_linker_1, # of connection points: 2
#     Edge 68, Type (0, 0), BuildingBlock: KIFKEQ_clean_linker_1, # of connection points: 2
#     Edge 69, Type (0, 0), BuildingBlock: KIFKEQ_clean_linker_1, # of connection points: 2
#     Edge 70, Type (0, 0), BuildingBlock: KIFKEQ_clean_linker_1, # of connection points: 2
#     Edge 71, Type (0, 0), BuildingBlock: KIFKEQ_clean_linker_1, # of connection points: 2
#     Edge 72, Type (0, 0), BuildingBlock: KIFKEQ_clean_linker_1, # of connection points: 2
#     Edge 73, Type (0, 0), BuildingBlock: KIFKEQ_clean_linker_1, # of connection points: 2
#     Edge 74, Type (0, 0), BuildingBlock: KIFKEQ_clean_linker_1, # of connection points: 2
#     Edge 75, Type (0, 0), BuildingBlock: KIFKEQ_clean_linker_1, # of connection points: 2
#     Edge 76, Type (0, 0), BuildingBlock: KIFKEQ_clean_linker_1, # of connection points: 2
#     Edge 77, Type (0, 0), BuildingBlock: KIFKEQ_clean_linker_1, # of connection points: 2
#     Edge 78, Type (0, 0), BuildingBlock: KIFKEQ_clean_linker_1, # of connection points: 2
#     Edge 79, Type (0, 0), BuildingBlock: KIFKEQ_clean_linker_1, # of connection points: 2
#     Edge 80, Type (0, 0), BuildingBlock: KIFKEQ_clean_linker_1, # of connection points: 2
#     Edge 81, Type (0, 0), BuildingBlock: KIFKEQ_clean_linker_1, # of connection points: 2
#     Edge 82, Type (0, 0), BuildingBlock: KIFKEQ_clean_linker_1, # of connection points: 2
#     Edge 83, Type (0, 0), BuildingBlock: KIFKEQ_clean_linker_1, # of connection points: 2
#     Edge 84, Type (0, 0), BuildingBlock: KIFKEQ_clean_linker_1, # of connection points: 2
#     Edge 85, Type (0, 0), BuildingBlock: KIFKEQ_clean_linker_1, # of connection points: 2
#     Edge 86, Type (0, 0), BuildingBlock: KIFKEQ_clean_linker_1, # of connection points: 2
#     Edge 87, Type (0, 0), BuildingBlock: KIFKEQ_clean_linker_1, # of connection points: 2
#     Edge 88, Type (0, 0), BuildingBlock: KIFKEQ_clean_linker_1, # of connection points: 2
#     Edge 89, Type (0, 0), BuildingBlock: KIFKEQ_clean_linker_1, # of connection points: 2
#     Edge 90, Type (0, 0), BuildingBlock: KIFKEQ_clean_linker_1, # of connection points: 2
#     Edge 91, Type (0, 0), BuildingBlock: KIFKEQ_clean_linker_1, # of connection points: 2
#     Edge 92, Type (0, 0), BuildingBlock: KIFKEQ_clean_linker_1, # of connection points: 2
#     Edge 93, Type (0, 0), BuildingBlock: KIFKEQ_clean_linker_1, # of connection points: 2
#     Edge 94, Type (0, 0), BuildingBlock: KIFKEQ_clean_linker_1, # of connection points: 2
#     Edge 95, Type (0, 0), BuildingBlock: KIFKEQ_clean_linker_1, # of connection points: 2
#     Edge 96, Type (0, 0), BuildingBlock: KIFKEQ_clean_linker_1, # of connection points: 2
#     Edge 97, Type (0, 0), BuildingBlock: KIFKEQ_clean_linker_1, # of connection points: 2
#     Edge 98, Type (0, 0), BuildingBlock: KIFKEQ_clean_linker_1, # of connection points: 2
#     Edge 99, Type (0, 0), BuildingBlock: KIFKEQ_clean_linker_1, # of connection points: 2
#     Edge 100, Type (0, 0), BuildingBlock: KIFKEQ_clean_linker_1, # of connection points: 2
#     Edge 101, Type (0, 0), BuildingBlock: KIFKEQ_clean_linker_1, # of connection points: 2
#     Edge 102, Type (0, 0), BuildingBlock: KIFKEQ_clean_linker_1, # of connection points: 2
#     Edge 103, Type (0, 0), BuildingBlock: KIFKEQ_clean_linker_1, # of connection points: 2
#     Edge 104, Type (0, 0), BuildingBlock: KIFKEQ_clean_linker_1, # of connection points: 2
#     Edge 105, Type (0, 0), BuildingBlock: KIFKEQ_clean_linker_1, # of connection points: 2
#     Edge 106, Type (0, 0), BuildingBlock: KIFKEQ_clean_linker_1, # of connection points: 2
#     Edge 107, Type (0, 0), BuildingBlock: KIFKEQ_clean_linker_1, # of connection points: 2
#     Edge 108, Type (0, 0), BuildingBlock: KIFKEQ_clean_linker_1, # of connection points: 2
#     Edge 109, Type (0, 0), BuildingBlock: KIFKEQ_clean_linker_1, # of connection points: 2
#     Edge 110, Type (0, 0), BuildingBlock: KIFKEQ_clean_linker_1, # of connection points: 2
#     Edge 111, Type (0, 0), BuildingBlock: KIFKEQ_clean_linker_1, # of connection points: 2
# Relax obj value: 0.376
# Max RMSD: 0.257
# Mean RMSD: 0.257
data_MOF--net-yft--node1-XOMCOT_clean_sbu_0--edge1-KIFKEQ_clean_linker_1
_symmetry_space_group_name_H-M    P1
_symmetry_Int_Tables_number       1
_symmetry_cell_setting            triclinic
loop_
_symmetry_equiv_pos_as_xyz
'x, y, z'
_cell_length_a     43.517013
_cell_length_b     43.54077
_cell_length_c     98.06207
_cell_angle_alpha  89.958188
_cell_angle_beta   90.025228
_cell_angle_gamma 90.027411
loop_
_atom_site_label
_atom_site_type_symbol
_atom_site_fract_x
_atom_site_fract_y
_atom_site_fract_z
_atom_type_partial_charge
Co0 Co 0.30178 0.21001 0.15911 0.0
C1 C 0.23908 0.18919 0.15172 0.0
C2 C 0.2508 0.23094 0.14148 0.0
C3 C 0.22337 0.22047 0.13632 0.0
N4 N 0.26051 0.21173 0.15141 0.0
N5 N 0.21611 0.19402 0.14268 0.0
H6 H 0.24166 0.16816 0.15746 0.0
H7 H 0.26381 0.2498 0.13728 0.0
C8 C 0.294 0.27874 0.15658 0.0
O9 O 0.26902 0.2781 0.16408 0.0
N10 N 0.34296 0.20739 0.16637 0.0
C11 C 0.35112 0.19085 0.1774 0.0
C12 C 0.38192 0.19512 0.17977 0.0
C13 C 0.36899 0.22101 0.16193 0.0
N14 N 0.39307 0.214 0.17006 0.0
C15 C 0.26477 0.20435 0.18366 0.0
C16 C 0.2955 0.24964 0.19799 0.0
C17 C 0.27212 0.23329 0.20464 0.0
C18 C 0.25654 0.21044 0.19721 0.0
C19 C 0.30269 0.24311 0.18445 0.0
N20 N 0.28726 0.22093 0.17734 0.0
H21 H 0.25365 0.18566 0.17845 0.0
H22 H 0.32157 0.25536 0.17979 0.0
H23 H 0.33556 0.17703 0.18343 0.0
H24 H 0.37015 0.23618 0.15319 0.0
O25 O 0.29976 0.16539 0.16 0.0
O26 O 0.31587 0.19286 0.14229 0.0
O27 O 0.30909 0.25421 0.15411 0.0
C28 C 0.31105 0.16603 0.14767 0.0
H29 H 0.21075 0.23072 0.12798 0.0
H30 H 0.39518 0.18512 0.18799 0.0
H31 H 0.30905 0.26672 0.2033 0.0
H32 H 0.23833 0.19707 0.20184 0.0
Co33 Co 0.04363 0.05201 0.40762 0.0
C34 C 0.0663 0.98975 0.40077 0.0
C35 C 0.02503 0.00053 0.38994 0.0
C36 C 0.03647 0.97339 0.38494 0.0
N37 N 0.0433 0.01062 0.40013 0.0
N38 N 0.06261 0.96673 0.39167 0.0
H39 H 0.08653 0.99248 0.40703 0.0
H40 H 0.00636 0.01327 0.38541 0.0
C41 C 0.97509 0.0421 0.40465 0.0
O42 O 0.97612 0.01705 0.41211 0.0
N43 N 0.04476 0.09333 0.41467 0.0
C44 C 0.06015 0.10235 0.42591 0.0
C45 C 0.05437 0.13295 0.42809 0.0
C46 C 0.03042 0.11863 0.40993 0.0
N47 N 0.03584 0.14306 0.41804 0.0
C48 C 0.05129 0.01738 0.4327 0.0
C49 C 0.00385 0.04616 0.44645 0.0
C50 C 0.02255 0.02559 0.45362 0.0
C51 C 0.04625 0.01069 0.44652 0.0
C52 C 0.00955 0.05206 0.43271 0.0
N53 N 0.0329 0.03768 0.42591 0.0
H54 H 0.07089 0.00738 0.42772 0.0
H55 H 0.99592 0.06946 0.42771 0.0
H56 H 0.07404 0.08746 0.43223 0.0
H57 H 0.01574 0.11899 0.40102 0.0
O58 O 0.08831 0.05148 0.40866 0.0
O59 O 0.06065 0.06627 0.3908 0.0
O60 O 0.9993 0.05788 0.40239 0.0
C61 C 0.08754 0.06255 0.39629 0.0
H62 H 0.02767 0.96103 0.3762 0.0
H63 H 0.06295 0.14678 0.43644 0.0
H64 H 0.98524 0.05818 0.45147 0.0
H65 H 0.06166 0.99509 0.45174 0.0
Co66 Co 0.20492 0.78895 0.66027 0.0
C67 C 0.26414 0.81592 0.65202 0.0
C68 C 0.25692 0.77211 0.64253 0.0
C69 C 0.28396 0.78439 0.63766 0.0
N70 N 0.24457 0.79191 0.65154 0.0
N71 N 0.28835 0.81204 0.64357 0.0
H72 H 0.26033 0.83612 0.65821 0.0
H73 H 0.24651 0.75079 0.63928 0.0
C74 C 0.19061 0.722 0.66313 0.0
O75 O 0.18093 0.72715 0.67562 0.0
N76 N 0.16456 0.78634 0.66877 0.0
C77 C 0.15558 0.79607 0.68123 0.0
C78 C 0.12499 0.78955 0.68294 0.0
C79 C 0.13879 0.77492 0.66293 0.0
N80 N 0.11452 0.7763 0.67146 0.0
C81 C 0.22697 0.80743 0.68675 0.0
C82 C 0.25055 0.7511 0.69432 0.0
C83 C 0.24738 0.77396 0.70429 0.0
C84 C 0.23695 0.803 0.70017 0.0
C85 C 0.24048 0.75668 0.68101 0.0
N86 N 0.22588 0.78349 0.67777 0.0
H87 H 0.21791 0.82962 0.6839 0.0
H88 H 0.24383 0.739 0.67347 0.0
H89 H 0.16955 0.8075 0.68869 0.0
H90 H 0.138 0.76514 0.65279 0.0
O91 O 0.20049 0.83344 0.65992 0.0
O92 O 0.18571 0.8015 0.64355 0.0
O93 O 0.20334 0.7435 0.65629 0.0
C94 C 0.18767 0.82944 0.64804 0.0
H95 H 0.29843 0.7744 0.62987 0.0
H96 H 0.11129 0.79452 0.69189 0.0
H97 H 0.2602 0.72889 0.69685 0.0
H98 H 0.23489 0.82168 0.70739 0.0
Co99 Co 0.46202 0.95093 0.91112 0.0
C100 C 0.4362 0.0104 0.90253 0.0
C101 C 0.47859 0.00083 0.8922 0.0
C102 C 0.46657 0.02773 0.88706 0.0
N103 N 0.45952 0.99004 0.90189 0.0
N104 N 0.43979 0.0336 0.8935 0.0
H105 H 0.41661 0.00777 0.90921 0.0
H106 H 0.49907 0.98935 0.88862 0.0
C107 C 0.52898 0.93578 0.9134 0.0
O108 O 0.52437 0.92692 0.92605 0.0
N109 N 0.46418 0.91108 0.9201 0.0
C110 C 0.4538 0.90278 0.93256 0.0
C111 C 0.4604 0.87235 0.93472 0.0
C112 C 0.4759 0.88502 0.91467 0.0
N113 N 0.47425 0.86129 0.9235 0.0
C114 C 0.44604 0.97453 0.93759 0.0
C115 C 0.50337 0.99723 0.9442 0.0
C116 C 0.48119 0.99469 0.95452 0.0
C117 C 0.45167 0.98468 0.95088 0.0
C118 C 0.49658 0.98697 0.93102 0.0
N119 N 0.46927 0.97274 0.92827 0.0
H120 H 0.42342 0.96599 0.93511 0.0
H121 H 0.51374 0.98979 0.92319 0.0
H122 H 0.44178 0.91709 0.93969 0.0
H123 H 0.48613 0.88367 0.90463 0.0
O124 O 0.41747 0.94791 0.91147 0.0
O125 O 0.4475 0.93091 0.89486 0.0
O126 O 0.50717 0.94802 0.90656 0.0
C127 C 0.41996 0.93406 0.89975 0.0
H128 H 0.47601 0.04098 0.87871 0.0
H129 H 0.45507 0.85917 0.94378 0.0
H130 H 0.52592 0.00661 0.94634 0.0
H131 H 0.43345 0.9831 0.95836 0.0
Co132 Co 0.29543 0.77163 0.34946 0.0
C133 C 0.23872 0.80479 0.35724 0.0
C134 C 0.24327 0.76186 0.36784 0.0
C135 C 0.21738 0.77649 0.37253 0.0
N136 N 0.25654 0.77953 0.35823 0.0
N137 N 0.21456 0.80354 0.36592 0.0
H138 H 0.24373 0.82388 0.35053 0.0
H139 H 0.25234 0.74037 0.37161 0.0
C140 C 0.2951 0.70229 0.34598 0.0
O141 O 0.30157 0.70429 0.33295 0.0
N142 N 0.3352 0.76315 0.34086 0.0
C143 C 0.34099 0.75437 0.32787 0.0
C144 C 0.37176 0.74813 0.32646 0.0
C145 C 0.36302 0.76228 0.34708 0.0
N146 N 0.38549 0.7532 0.33852 0.0
C147 C 0.28196 0.79311 0.32254 0.0
C148 C 0.24255 0.74596 0.31537 0.0
C149 C 0.25261 0.76643 0.30526 0.0
C150 C 0.27138 0.7911 0.30911 0.0
C151 C 0.25319 0.74922 0.32876 0.0
N152 N 0.27465 0.77099 0.33188 0.0
H153 H 0.29799 0.81111 0.32517 0.0
H154 H 0.24518 0.7334 0.33647 0.0
H155 H 0.32416 0.75114 0.31992 0.0
H156 H 0.36691 0.76721 0.35774 0.0
O157 O 0.30581 0.81504 0.35047 0.0
O158 O 0.31568 0.7804 0.36643 0.0
O159 O 0.28989 0.72638 0.35301 0.0
C160 C 0.31756 0.80875 0.36238 0.0
H161 H 0.20263 0.76843 0.38066 0.0
H162 H 0.38319 0.74031 0.31729 0.0
H163 H 0.22714 0.72724 0.31288 0.0
H164 H 0.27936 0.80764 0.30165 0.0
Co165 Co 0.46897 0.05168 0.60071 0.0
C166 C 0.44631 0.98965 0.60787 0.0
C167 C 0.48336 0.00372 0.62078 0.0
C168 C 0.4712 0.97693 0.62592 0.0
N169 N 0.46828 0.01141 0.60925 0.0
N170 N 0.44767 0.96826 0.61786 0.0
H171 H 0.42809 0.99073 0.60044 0.0
H172 H 0.50024 0.01794 0.62583 0.0
C173 C 0.53688 0.03836 0.60473 0.0
O174 O 0.53364 0.0093 0.60144 0.0
N175 N 0.46889 0.09196 0.59255 0.0
C176 C 0.45451 0.09996 0.5809 0.0
C177 C 0.46096 0.13023 0.57813 0.0
C178 C 0.4833 0.11755 0.59692 0.0
N179 N 0.4789 0.14116 0.58822 0.0
C180 C 0.45473 0.01883 0.57575 0.0
C181 C 0.50725 0.03699 0.56208 0.0
C182 C 0.48444 0.0214 0.55479 0.0
C183 C 0.45812 0.01167 0.56186 0.0
C184 C 0.50291 0.04379 0.57581 0.0
N185 N 0.47706 0.03458 0.58262 0.0
H186 H 0.43319 0.01362 0.58063 0.0
H187 H 0.51956 0.05864 0.58055 0.0
H188 H 0.44059 0.08473 0.57476 0.0
H189 H 0.49716 0.11872 0.60608 0.0
O190 O 0.42415 0.0528 0.60088 0.0
O191 O 0.45484 0.06885 0.61748 0.0
O192 O 0.51399 0.05667 0.60469 0.0
C193 C 0.42708 0.06523 0.61293 0.0
H194 H 0.4774 0.96627 0.6355 0.0
H195 H 0.45298 0.14332 0.56944 0.0
H196 H 0.52795 0.04505 0.55709 0.0
H197 H 0.43955 0.0002 0.55656 0.0
Co198 Co 0.19882 0.21219 0.85095 0.0
C199 C 0.26134 0.18967 0.85718 0.0
C200 C 0.25083 0.23013 0.8686 0.0
C201 C 0.27815 0.21832 0.87333 0.0
N202 N 0.24045 0.21254 0.85824 0.0
N203 N 0.28459 0.19265 0.86623 0.0
H204 H 0.25841 0.16986 0.85069 0.0
H205 H 0.23817 0.24848 0.87341 0.0
C206 C 0.20827 0.28071 0.85458 0.0
O207 O 0.23355 0.28032 0.84726 0.0
N208 N 0.15743 0.21075 0.84398 0.0
C209 C 0.14872 0.19495 0.83284 0.0
C210 C 0.11747 0.19727 0.83147 0.0
C211 C 0.13136 0.22226 0.84938 0.0
N212 N 0.10645 0.21426 0.84189 0.0
C213 C 0.23175 0.20431 0.82551 0.0
C214 C 0.20465 0.25367 0.81244 0.0
C215 C 0.22384 0.23428 0.80486 0.0
C216 C 0.23781 0.2095 0.81165 0.0
C217 C 0.19895 0.24746 0.82616 0.0
N218 N 0.21271 0.22331 0.83266 0.0
H219 H 0.24103 0.18402 0.83024 0.0
H220 H 0.18214 0.26139 0.83137 0.0
H221 H 0.16411 0.18238 0.82622 0.0
H222 H 0.13063 0.23547 0.85871 0.0
O223 O 0.19954 0.16748 0.84983 0.0
O224 O 0.18501 0.19485 0.86779 0.0
O225 O 0.19258 0.25629 0.85644 0.0
C226 C 0.18865 0.16805 0.86224 0.0
H227 H 0.29072 0.2264 0.88215 0.0
H228 H 0.104 0.18736 0.8233 0.0
H229 H 0.19339 0.2732 0.80777 0.0
H230 H 0.25216 0.19337 0.80619 0.0
Co231 Co 0.03945 0.9527 0.09885 0.0
C232 C 0.06375 0.0126 0.10777 0.0
C233 C 0.02009 0.00299 0.11699 0.0
C234 C 0.03122 0.03007 0.12229 0.0
N235 N 0.04054 0.99206 0.1079 0.0
N236 N 0.05881 0.03599 0.11656 0.0
H237 H 0.08453 0.00962 0.10187 0.0
H238 H 0.99905 0.99165 0.11999 0.0
C239 C 0.97276 0.93645 0.096 0.0
O240 O 0.97808 0.92666 0.08355 0.0
N241 N 0.03879 0.91264 0.09005 0.0
C242 C 0.05272 0.904 0.07838 0.0
C243 C 0.05004 0.87281 0.07692 0.0
C244 C 0.02837 0.88619 0.09566 0.0
N245 N 0.03493 0.86151 0.08782 0.0
C246 C 0.05613 0.97607 0.07238 0.0
C247 C 0.99871 0.99757 0.06519 0.0
C248 C 0.0214 0.99543 0.05508 0.0
C249 C 0.05092 0.98601 0.05902 0.0
C250 C 0.00508 0.98756 0.07846 0.0
N251 N 0.03253 0.97394 0.0815 0.0
H252 H 0.07886 0.96832 0.07512 0.0
H253 H 0.98754 0.99023 0.08612 0.0
H254 H 0.0653 0.91855 0.07152 0.0
H255 H 0.01725 0.885 0.10551 0.0
O256 O 0.08405 0.95069 0.09892 0.0
O257 O 0.05365 0.93335 0.11533 0.0
O258 O 0.9942 0.94891 0.10297 0.0
C259 C 0.08133 0.93686 0.11064 0.0
H260 H 0.02008 0.04392 0.12999 0.0
H261 H 0.05896 0.85948 0.0685 0.0
H262 H 0.9761 0.0065 0.06283 0.0
H263 H 0.06953 0.98485 0.05171 0.0
Co264 Co 0.70492 0.78011 0.84922 0.0
C265 C 0.76288 0.80878 0.85787 0.0
C266 C 0.7569 0.76465 0.86727 0.0
C267 C 0.7834 0.77779 0.8723 0.0
N268 N 0.74415 0.78412 0.85822 0.0
N269 N 0.78698 0.80564 0.86645 0.0
H270 H 0.75853 0.8289 0.85169 0.0
H271 H 0.74709 0.74297 0.87043 0.0
C272 C 0.69326 0.71301 0.84515 0.0
O273 O 0.68226 0.71906 0.83296 0.0
N274 N 0.6649 0.77646 0.8404 0.0
C275 C 0.65675 0.78323 0.82743 0.0
C276 C 0.62626 0.77638 0.82562 0.0
C277 C 0.63876 0.76613 0.84633 0.0
N278 N 0.61503 0.76568 0.83748 0.0
C279 C 0.72689 0.8028 0.82337 0.0
C280 C 0.75214 0.74813 0.81454 0.0
C281 C 0.74826 0.77202 0.80511 0.0
C282 C 0.73706 0.80026 0.80987 0.0
C283 C 0.74189 0.7518 0.82794 0.0
N284 N 0.72653 0.77775 0.83177 0.0
H285 H 0.71671 0.82416 0.82665 0.0
H286 H 0.74568 0.73329 0.83504 0.0
H287 H 0.67134 0.7922 0.81956 0.0
H288 H 0.63732 0.75829 0.85679 0.0
O289 O 0.69831 0.82427 0.85064 0.0
O290 O 0.6847 0.78965 0.86605 0.0
O291 O 0.70577 0.73424 0.85223 0.0
C292 C 0.68531 0.81823 0.86232 0.0
H293 H 0.79802 0.76824 0.88016 0.0
H294 H 0.61322 0.77919 0.8163 0.0
H295 H 0.76239 0.72652 0.81152 0.0
H296 H 0.73436 0.81963 0.80304 0.0
Co297 Co 0.96138 0.95373 0.59822 0.0
C298 C 0.93776 0.01396 0.60699 0.0
C299 C 0.98122 0.00399 0.61632 0.0
C300 C 0.97024 0.03115 0.6216 0.0
N301 N 0.9608 0.99324 0.60718 0.0
N302 N 0.94277 0.03731 0.61581 0.0
H303 H 0.917 0.01112 0.60105 0.0
H304 H 0.00207 0.99242 0.61939 0.0
C305 C 0.02741 0.93587 0.59506 0.0
O306 O 0.02107 0.92577 0.58275 0.0
N307 N 0.96138 0.9135 0.58952 0.0
C308 C 0.94854 0.90517 0.57754 0.0
C309 C 0.95333 0.87441 0.57549 0.0
C310 C 0.9727 0.8871 0.59484 0.0
N311 N 0.96855 0.8631 0.58632 0.0
C312 C 0.94407 0.977 0.57183 0.0
C313 C 0.00151 0.99757 0.56414 0.0
C314 C 0.97844 0.99532 0.55419 0.0
C315 C 0.94895 0.98642 0.55838 0.0
C316 C 0.99554 0.98781 0.57749 0.0
N317 N 0.96798 0.97469 0.58079 0.0
H318 H 0.92132 0.96963 0.57476 0.0
H319 H 0.01352 0.99011 0.58498 0.0
H320 H 0.93577 0.91969 0.57073 0.0
H321 H 0.98431 0.88565 0.60459 0.0
O322 O 0.91682 0.95209 0.59851 0.0
O323 O 0.94749 0.93466 0.61482 0.0
O324 O 0.00684 0.94966 0.60206 0.0
C325 C 0.91972 0.93838 0.61025 0.0
H326 H 0.98139 0.04487 0.62936 0.0
H327 H 0.94566 0.86115 0.56679 0.0
H328 H 0.02436 0.00552 0.56155 0.0
H329 H 0.92995 0.98593 0.55125 0.0
Co330 Co 0.80294 0.21042 0.35147 0.0
C331 C 0.74022 0.1894 0.35919 0.0
C332 C 0.75527 0.22737 0.37129 0.0
C333 C 0.728 0.21679 0.37653 0.0
N334 N 0.76268 0.21084 0.36014 0.0
N335 N 0.71859 0.19261 0.36902 0.0
H336 H 0.7412 0.17003 0.35234 0.0
H337 H 0.76976 0.24446 0.37602 0.0
C338 C 0.7925 0.27848 0.35556 0.0
O339 O 0.76398 0.27624 0.35126 0.0
N340 N 0.84323 0.20924 0.34327 0.0
C341 C 0.85096 0.19375 0.3319 0.0
C342 C 0.88157 0.19876 0.32925 0.0
C343 C 0.86926 0.22304 0.34756 0.0
N344 N 0.89303 0.21713 0.33909 0.0
C345 C 0.76717 0.20109 0.32687 0.0
C346 C 0.7899 0.25203 0.31333 0.0
C347 C 0.77045 0.23198 0.30626 0.0
C348 C 0.75893 0.20623 0.31321 0.0
C349 C 0.79779 0.24589 0.32683 0.0
N350 N 0.78609 0.22101 0.3336 0.0
H351 H 0.75961 0.18026 0.33174 0.0
H352 H 0.81495 0.26032 0.33152 0.0
H353 H 0.83532 0.17992 0.32591 0.0
H354 H 0.87065 0.23747 0.35653 0.0
O355 O 0.80187 0.16589 0.35054 0.0
O356 O 0.8196 0.19336 0.36792 0.0
O357 O 0.80987 0.25488 0.35616 0.0
C358 C 0.81479 0.16652 0.36255 0.0
H359 H 0.71696 0.2254 0.38563 0.0
H360 H 0.89449 0.18941 0.32079 0.0
H361 H 0.80032 0.27153 0.30826 0.0
H362 H 0.7442 0.18986 0.30808 0.0
Co363 Co 0.53601 0.04881 0.10176 0.0
C364 C 0.55542 0.98539 0.1084 0.0
C365 C 0.52201 0.00243 0.12247 0.0
C366 C 0.5336 0.97531 0.12749 0.0
N367 N 0.53529 0.00861 0.11035 0.0
N368 N 0.55492 0.96465 0.1187 0.0
H369 H 0.57184 0.98497 0.1002 0.0
H370 H 0.50691 0.01791 0.12788 0.0
C371 C 0.46807 0.03699 0.10617 0.0
O372 O 0.47102 0.00762 0.10344 0.0
N373 N 0.53769 0.08899 0.09354 0.0
C374 C 0.55412 0.09649 0.08241 0.0
C375 C 0.55098 0.12738 0.08007 0.0
C376 C 0.525 0.11543 0.09796 0.0
N377 N 0.53282 0.13942 0.08987 0.0
C378 C 0.55064 0.01708 0.07659 0.0
C379 C 0.49773 0.03465 0.06307 0.0
C380 C 0.52092 0.02004 0.05563 0.0
C381 C 0.54742 0.01054 0.06263 0.0
C382 C 0.5019 0.04086 0.07686 0.0
N383 N 0.52795 0.03195 0.08361 0.0
H384 H 0.57236 0.01229 0.08141 0.0
H385 H 0.48491 0.05512 0.08168 0.0
H386 H 0.56775 0.08063 0.07648 0.0
H387 H 0.51103 0.11709 0.10705 0.0
O388 O 0.58088 0.04861 0.10227 0.0
O389 O 0.55011 0.06568 0.11861 0.0
O390 O 0.49108 0.05513 0.10557 0.0
C391 C 0.57789 0.06125 0.11427 0.0
H392 H 0.52854 0.96574 0.13742 0.0
H393 H 0.56123 0.13987 0.07168 0.0
H394 H 0.47688 0.04249 0.05814 0.0
H395 H 0.56628 0.99986 0.05722 0.0
Co396 Co 0.70037 0.21234 0.65825 0.0
C397 C 0.76304 0.19135 0.65089 0.0
C398 C 0.75153 0.23315 0.64065 0.0
C399 C 0.77887 0.2225 0.63547 0.0
N400 N 0.74174 0.21401 0.65059 0.0
N401 N 0.78601 0.19602 0.64184 0.0
H402 H 0.76037 0.17034 0.65664 0.0
H403 H 0.73862 0.25206 0.63645 0.0
C404 C 0.70806 0.28108 0.65559 0.0
O405 O 0.73301 0.28046 0.66314 0.0
N406 N 0.65912 0.20969 0.66545 0.0
C407 C 0.65096 0.19309 0.67647 0.0
C408 C 0.62011 0.19709 0.67875 0.0
C409 C 0.63301 0.22309 0.66095 0.0
N410 N 0.60887 0.21588 0.66902 0.0
C411 C 0.73744 0.20693 0.68278 0.0
C412 C 0.706 0.25143 0.69729 0.0
C413 C 0.72924 0.23489 0.70386 0.0
C414 C 0.7454 0.21269 0.6964 0.0
C415 C 0.6992 0.24541 0.68364 0.0
N416 N 0.71483 0.22342 0.67649 0.0
H417 H 0.74868 0.18837 0.67755 0.0
H418 H 0.68046 0.25779 0.67895 0.0
H419 H 0.66655 0.17936 0.68252 0.0
H420 H 0.63181 0.23819 0.65219 0.0
O421 O 0.70251 0.16775 0.65925 0.0
O422 O 0.68643 0.19493 0.64145 0.0
O423 O 0.693 0.25651 0.65315 0.0
C424 C 0.69138 0.16818 0.64689 0.0
H425 H 0.79151 0.23267 0.62711 0.0
H426 H 0.60685 0.18689 0.68693 0.0
H427 H 0.69289 0.26869 0.70271 0.0
H428 H 0.76313 0.19901 0.70122 0.0
Co429 Co 0.53716 0.95336 0.40916 0.0
C430 C 0.55974 0.0143 0.40125 0.0
C431 C 0.5172 0.00398 0.39118 0.0
C432 C 0.52846 0.03131 0.3861 0.0
N433 N 0.53692 0.99337 0.40065 0.0
N434 N 0.55539 0.03766 0.39236 0.0
H435 H 0.58008 0.01138 0.40745 0.0
H436 H 0.49687 0.99204 0.3877 0.0
C437 C 0.47156 0.93435 0.41273 0.0
O438 O 0.47818 0.92503 0.42514 0.0
N439 N 0.53823 0.91272 0.41743 0.0
C440 C 0.55397 0.90358 0.42857 0.0
C441 C 0.55094 0.87242 0.43003 0.0
C442 C 0.52662 0.88655 0.41205 0.0
N443 N 0.53384 0.8616 0.41963 0.0
C444 C 0.55512 0.97511 0.43576 0.0
C445 C 0.49779 0.99556 0.44366 0.0
C446 C 0.52097 0.99319 0.45354 0.0
C447 C 0.55042 0.98426 0.44927 0.0
C448 C 0.50363 0.98626 0.43026 0.0
N449 N 0.53112 0.97321 0.42684 0.0
H450 H 0.57785 0.96805 0.43268 0.0
H451 H 0.48565 0.98896 0.42279 0.0
H452 H 0.56782 0.91781 0.43507 0.0
H453 H 0.51375 0.8858 0.40261 0.0
O454 O 0.58188 0.95236 0.40819 0.0
O455 O 0.54992 0.93555 0.39224 0.0
O456 O 0.49168 0.94864 0.40566 0.0
C457 C 0.57802 0.93959 0.39628 0.0
H458 H 0.51801 0.04488 0.3781 0.0
H459 H 0.56078 0.85884 0.43818 0.0
H460 H 0.47521 0.00417 0.44628 0.0
H461 H 0.56939 0.98301 0.45639 0.0
Co462 Co 0.7973 0.7863 0.15591 0.0
C463 C 0.73374 0.80537 0.14912 0.0
C464 C 0.74966 0.76895 0.1363 0.0
C465 C 0.72237 0.77973 0.13111 0.0
N466 N 0.75664 0.78457 0.14777 0.0
N467 N 0.7125 0.80284 0.13912 0.0
H468 H 0.73424 0.82418 0.15628 0.0
H469 H 0.76466 0.75267 0.13131 0.0
C470 C 0.78693 0.71775 0.15266 0.0
O471 O 0.75786 0.7199 0.15613 0.0
N472 N 0.83795 0.78887 0.16362 0.0
C473 C 0.84592 0.80547 0.17464 0.0
C474 C 0.87718 0.80363 0.17631 0.0
C475 C 0.86441 0.7774 0.15861 0.0
N476 N 0.88889 0.78616 0.16619 0.0
C477 C 0.76528 0.8004 0.18112 0.0
C478 C 0.78594 0.7491 0.19498 0.0
C479 C 0.77002 0.77162 0.20231 0.0
C480 C 0.75906 0.79734 0.19512 0.0
C481 C 0.79206 0.75326 0.18119 0.0
N482 N 0.78154 0.77844 0.17427 0.0
H483 H 0.75886 0.82142 0.17607 0.0
H484 H 0.80731 0.73702 0.17644 0.0
H485 H 0.83013 0.81842 0.18091 0.0
H486 H 0.86571 0.76377 0.14941 0.0
O487 O 0.79649 0.83109 0.15522 0.0
O488 O 0.813 0.80019 0.13881 0.0
O489 O 0.80426 0.7414 0.15237 0.0
C490 C 0.80874 0.82799 0.14313 0.0
H491 H 0.71172 0.77243 0.12168 0.0
H492 H 0.89017 0.81434 0.18442 0.0
H493 H 0.79476 0.72872 0.19996 0.0
H494 H 0.74724 0.81572 0.20037 0.0
Co495 Co 0.95858 0.05247 0.90849 0.0
C496 C 0.9384 0.98941 0.90157 0.0
C497 C 0.97374 0.00535 0.88816 0.0
C498 C 0.96263 0.97797 0.8832 0.0
N499 N 0.95913 0.01226 0.8999 0.0
N500 N 0.94017 0.96811 0.89157 0.0
H501 H 0.92064 0.98956 0.90922 0.0
H502 H 0.98948 0.02041 0.88286 0.0
C503 C 0.02636 0.04259 0.90324 0.0
O504 O 0.0245 0.01381 0.90718 0.0
N505 N 0.9571 0.09262 0.91671 0.0
C506 C 0.94198 0.09982 0.92824 0.0
C507 C 0.94502 0.13076 0.93052 0.0
C508 C 0.9689 0.11924 0.91202 0.0
N509 N 0.96182 0.14308 0.9203 0.0
C510 C 0.94965 0.01839 0.93356 0.0
C511 C 0.00176 0.04058 0.94634 0.0
C512 C 0.98089 0.02321 0.95401 0.0
C513 C 0.95481 0.01151 0.94736 0.0
C514 C 0.99564 0.0471 0.9327 0.0
N515 N 0.97001 0.03588 0.92633 0.0
H516 H 0.92818 0.01148 0.92906 0.0
H517 H 0.01064 0.06317 0.92764 0.0
H518 H 0.92946 0.08367 0.93451 0.0
H519 H 0.98177 0.12111 0.90262 0.0
O520 O 0.914 0.0509 0.90969 0.0
O521 O 0.94076 0.06881 0.89214 0.0
O522 O 0.00273 0.05998 0.90337 0.0
C523 C 0.91412 0.06369 0.89765 0.0
H524 H 0.96867 0.96763 0.87353 0.0
H525 H 0.93575 0.14307 0.93916 0.0
H526 H 0.02223 0.05015 0.95096 0.0
H527 H 0.93761 0.99865 0.95294 0.0
Co528 Co 0.80188 0.71193 0.65789 0.0
C529 C 0.73849 0.69078 0.65214 0.0
C530 C 0.75094 0.72914 0.63971 0.0
C531 C 0.72339 0.71771 0.63511 0.0
N532 N 0.76029 0.71265 0.65058 0.0
N533 N 0.71553 0.69331 0.64287 0.0
H534 H 0.74077 0.67183 0.65913 0.0
H535 H 0.76446 0.74639 0.63453 0.0
C536 C 0.7926 0.78013 0.65384 0.0
O537 O 0.76717 0.77976 0.66105 0.0
N538 N 0.8433 0.71035 0.66485 0.0
C539 C 0.85191 0.69482 0.67611 0.0
C540 C 0.88264 0.69979 0.67831 0.0
C541 C 0.869 0.72411 0.66014 0.0
N542 N 0.8933 0.71812 0.66829 0.0
C543 C 0.76935 0.70494 0.68348 0.0
C544 C 0.79617 0.75507 0.69606 0.0
C545 C 0.77688 0.73605 0.7038 0.0
C546 C 0.76315 0.71082 0.69726 0.0
C547 C 0.802 0.74818 0.68242 0.0
N548 N 0.78824 0.72375 0.67614 0.0
H549 H 0.76034 0.68427 0.679 0.0
H550 H 0.81886 0.76188 0.67711 0.0
H551 H 0.83669 0.68124 0.68241 0.0
H552 H 0.86976 0.73873 0.65121 0.0
O553 O 0.80046 0.66736 0.65935 0.0
O554 O 0.81534 0.69391 0.64114 0.0
O555 O 0.80846 0.75578 0.65215 0.0
C556 C 0.811 0.66742 0.64689 0.0
H557 H 0.7116 0.72535 0.62602 0.0
H558 H 0.89619 0.69073 0.68666 0.0
H559 H 0.80735 0.77484 0.70055 0.0
H560 H 0.74885 0.69486 0.70287 0.0
Co561 Co 0.53755 0.5501 0.9092 0.0
C562 C 0.55811 0.4879 0.90103 0.0
C563 C 0.52231 0.5048 0.88815 0.0
C564 C 0.5339 0.47839 0.88247 0.0
N565 N 0.53696 0.51053 0.9 0.0
N566 N 0.55669 0.46779 0.89052 0.0
H567 H 0.57601 0.48776 0.90859 0.0
H568 H 0.50626 0.52022 0.88325 0.0
C569 C 0.46995 0.5396 0.90445 0.0
O570 O 0.47257 0.51071 0.90815 0.0
N571 N 0.53896 0.5898 0.91785 0.0
C572 C 0.55345 0.59645 0.92963 0.0
C573 C 0.54919 0.62706 0.93246 0.0
C574 C 0.52663 0.61647 0.91348 0.0
N575 N 0.53242 0.63955 0.92231 0.0
C576 C 0.54572 0.51248 0.93341 0.0
C577 C 0.49519 0.53554 0.94705 0.0
C578 C 0.5144 0.51484 0.95394 0.0
C579 C 0.53982 0.50301 0.94682 0.0
C580 C 0.5016 0.54396 0.93363 0.0
N581 N 0.5264 0.53226 0.92683 0.0
H582 H 0.56674 0.50517 0.92868 0.0
H583 H 0.48758 0.56163 0.92908 0.0
H584 H 0.56613 0.58011 0.93574 0.0
H585 H 0.51343 0.61883 0.90418 0.0
O586 O 0.58217 0.54866 0.91023 0.0
O587 O 0.55482 0.56748 0.89298 0.0
O588 O 0.49323 0.55745 0.90443 0.0
C589 C 0.58155 0.56183 0.89828 0.0
H590 H 0.52769 0.46938 0.87257 0.0
H591 H 0.55804 0.63932 0.94122 0.0
H592 H 0.47608 0.54653 0.95215 0.0
H593 H 0.55559 0.48713 0.95164 0.0
Co594 Co 0.70488 0.28445 0.16074 0.0
C595 C 0.76305 0.31227 0.15139 0.0
C596 C 0.75598 0.26774 0.14256 0.0
C597 C 0.78218 0.2803 0.13704 0.0
N598 N 0.744 0.28781 0.15156 0.0
N599 N 0.78651 0.30841 0.14251 0.0
H600 H 0.75894 0.33304 0.15715 0.0
H601 H 0.74589 0.24595 0.13978 0.0
C602 C 0.6923 0.21691 0.16384 0.0
O603 O 0.68177 0.22162 0.17621 0.0
N604 N 0.66501 0.28116 0.16966 0.0
C605 C 0.65702 0.28875 0.18255 0.0
C606 C 0.62654 0.28197 0.1845 0.0
C607 C 0.63881 0.27054 0.16389 0.0
N608 N 0.61518 0.27059 0.1728 0.0
C609 C 0.72811 0.30516 0.18659 0.0
C610 C 0.74994 0.24911 0.19552 0.0
C611 C 0.74669 0.27299 0.20502 0.0
C612 C 0.73743 0.30187 0.20015 0.0
C613 C 0.74058 0.25357 0.182 0.0
N614 N 0.72668 0.28033 0.17812 0.0
H615 H 0.71941 0.32716 0.18331 0.0
H616 H 0.74366 0.235 0.17488 0.0
H617 H 0.67167 0.29852 0.19021 0.0
H618 H 0.63729 0.26217 0.15352 0.0
O619 O 0.69959 0.32882 0.16005 0.0
O620 O 0.68457 0.29606 0.14411 0.0
O621 O 0.70432 0.23889 0.15705 0.0
C622 C 0.68628 0.32427 0.14833 0.0
H623 H 0.79656 0.26969 0.12938 0.0
H624 H 0.61359 0.28538 0.1938 0.0
H625 H 0.75818 0.22668 0.19858 0.0
H626 H 0.73614 0.32152 0.20689 0.0
Co627 Co 0.96179 0.45241 0.40688 0.0
C628 C 0.93966 0.51445 0.39916 0.0
C629 C 0.97851 0.50052 0.38731 0.0
C630 C 0.96656 0.52676 0.38162 0.0
N631 N 0.96201 0.49289 0.39847 0.0
N632 N 0.94201 0.53536 0.38903 0.0
H633 H 0.92006 0.51306 0.40589 0.0
H634 H 0.99605 0.48645 0.38267 0.0
C635 C 0.02991 0.46262 0.40288 0.0
O636 O 0.02882 0.48891 0.40942 0.0
N637 N 0.96085 0.41191 0.41481 0.0
C638 C 0.94646 0.40411 0.42647 0.0
C639 C 0.95148 0.37346 0.42893 0.0
C640 C 0.97382 0.38587 0.41011 0.0
N641 N 0.96854 0.36211 0.41863 0.0
C642 C 0.95388 0.4883 0.43154 0.0
C643 C 0.00407 0.46366 0.44499 0.0
C644 C 0.98486 0.48386 0.45208 0.0
C645 C 0.95946 0.49632 0.44518 0.0
C646 C 0.99746 0.45599 0.43151 0.0
N647 N 0.97298 0.46864 0.42479 0.0
H648 H 0.93337 0.49675 0.42667 0.0
H649 H 0.0113 0.43851 0.4267 0.0
H650 H 0.93352 0.41976 0.43282 0.0
H651 H 0.98725 0.38447 0.40084 0.0
O652 O 0.91708 0.45313 0.40804 0.0
O653 O 0.94447 0.43645 0.39044 0.0
O654 O 0.00594 0.44598 0.40153 0.0
C655 C 0.91767 0.44092 0.39588 0.0
H656 H 0.97406 0.53746 0.37223 0.0
H657 H 0.94317 0.3604 0.43758 0.0
H658 H 0.02327 0.4526 0.45002 0.0
H659 H 0.94375 0.51169 0.45034 0.0
Co660 Co 0.7977 0.28963 0.85078 0.0
C661 C 0.73451 0.31028 0.85749 0.0
C662 C 0.74795 0.27112 0.86926 0.0
C663 C 0.72056 0.28188 0.87429 0.0
N664 N 0.75659 0.28853 0.85852 0.0
N665 N 0.71224 0.30665 0.86695 0.0
H666 H 0.73625 0.33029 0.85101 0.0
H667 H 0.76184 0.25361 0.87404 0.0
C668 C 0.78812 0.22105 0.85419 0.0
O669 O 0.76216 0.22178 0.84735 0.0
N670 N 0.83874 0.29132 0.84347 0.0
C671 C 0.8475 0.30699 0.83228 0.0
C672 C 0.87847 0.30261 0.83037 0.0
C673 C 0.86444 0.2781 0.84841 0.0
N674 N 0.88903 0.28453 0.84051 0.0
C675 C 0.76425 0.29967 0.82569 0.0
C676 C 0.78802 0.24941 0.8121 0.0
C677 C 0.7691 0.26975 0.80483 0.0
C678 C 0.75702 0.29513 0.8119 0.0
C679 C 0.79516 0.25515 0.82573 0.0
N680 N 0.78279 0.2796 0.83252 0.0
H681 H 0.75628 0.32027 0.83061 0.0
H682 H 0.81181 0.24048 0.83063 0.0
H683 H 0.83234 0.32052 0.82593 0.0
H684 H 0.86504 0.2637 0.85741 0.0
O685 O 0.79668 0.33435 0.85013 0.0
O686 O 0.81237 0.30612 0.86765 0.0
O687 O 0.80426 0.24527 0.85578 0.0
C688 C 0.80818 0.33319 0.86242 0.0
H689 H 0.70877 0.27334 0.88324 0.0
H690 H 0.89223 0.31211 0.82219 0.0
H691 H 0.79791 0.22936 0.80728 0.0
H692 H 0.74314 0.31215 0.80673 0.0
Co693 Co 0.96197 0.55168 0.09961 0.0
C694 C 0.93974 0.48935 0.10683 0.0
C695 C 0.98096 0.50082 0.11757 0.0
C696 C 0.96981 0.4737 0.12273 0.0
N697 N 0.96253 0.51049 0.10736 0.0
N698 N 0.94365 0.46661 0.11608 0.0
H699 H 0.91912 0.49207 0.10083 0.0
H700 H 0.99965 0.51376 0.12196 0.0
C701 C 0.03066 0.54167 0.10255 0.0
O702 O 0.02965 0.51605 0.0955 0.0
N703 N 0.96073 0.59277 0.09228 0.0
C704 C 0.94477 0.60161 0.08118 0.0
C705 C 0.94964 0.63243 0.0791 0.0
C706 C 0.97464 0.61835 0.097 0.0
N707 N 0.96835 0.64289 0.08903 0.0
C708 C 0.95137 0.51776 0.07476 0.0
C709 C 0.00122 0.54141 0.06072 0.0
C710 C 0.98076 0.52209 0.05385 0.0
C711 C 0.9555 0.51024 0.06099 0.0
C712 C 0.9958 0.54897 0.07434 0.0
N713 N 0.97158 0.53661 0.08135 0.0
H714 H 0.93108 0.5096 0.0799 0.0
H715 H 0.01047 0.56592 0.07906 0.0
H716 H 0.93074 0.58657 0.07499 0.0
H717 H 0.98945 0.61887 0.10587 0.0
O718 O 0.91727 0.55109 0.09898 0.0
O719 O 0.9457 0.56647 0.1165 0.0
O720 O 0.0065 0.55771 0.10448 0.0
C721 C 0.91856 0.56235 0.1113 0.0
H722 H 0.97937 0.46123 0.13128 0.0
H723 H 0.94005 0.64617 0.07094 0.0
H724 H 0.02045 0.55177 0.05542 0.0
H725 H 0.93886 0.4957 0.05591 0.0
Co726 Co 0.70261 0.72215 0.3477 0.0
C727 C 0.76159 0.69282 0.35524 0.0
C728 C 0.75285 0.73375 0.36677 0.0
C729 C 0.77902 0.72017 0.37175 0.0
N730 N 0.74197 0.71665 0.35643 0.0
N731 N 0.78459 0.69427 0.36457 0.0
H732 H 0.75828 0.67436 0.34802 0.0
H733 H 0.74167 0.75382 0.37094 0.0
C734 C 0.69719 0.79115 0.34477 0.0
O735 O 0.69019 0.78865 0.33181 0.0
N736 N 0.66221 0.72816 0.33923 0.0
C737 C 0.65543 0.73586 0.32619 0.0
C738 C 0.6244 0.74093 0.32501 0.0
C739 C 0.63471 0.72847 0.34572 0.0
N740 N 0.6115 0.7362 0.33728 0.0
C741 C 0.71787 0.70333 0.32057 0.0
C742 C 0.75254 0.75437 0.31384 0.0
C743 C 0.74396 0.73385 0.30348 0.0
C744 C 0.72773 0.70725 0.30712 0.0
C745 C 0.74265 0.74923 0.32722 0.0
N746 N 0.72323 0.72548 0.33013 0.0
H747 H 0.70363 0.68377 0.32302 0.0
H748 H 0.74948 0.76515 0.3351 0.0
H749 H 0.67168 0.73961 0.31807 0.0
H750 H 0.6316 0.72435 0.3565 0.0
O751 O 0.69546 0.67804 0.34815 0.0
O752 O 0.68326 0.71075 0.36457 0.0
O753 O 0.70477 0.76752 0.35171 0.0
C754 C 0.68352 0.68263 0.36016 0.0
H755 H 0.79183 0.72812 0.38051 0.0
H756 H 0.61226 0.74804 0.3159 0.0
H757 H 0.7662 0.77452 0.31155 0.0
H758 H 0.72102 0.69055 0.29949 0.0
Co759 Co 0.54369 0.45115 0.60076 0.0
C760 C 0.56105 0.51409 0.60933 0.0
C761 C 0.52419 0.49607 0.62134 0.0
C762 C 0.53406 0.52299 0.62721 0.0
N763 N 0.54063 0.49066 0.60991 0.0
N764 N 0.55736 0.53421 0.61968 0.0
H765 H 0.58051 0.51469 0.60251 0.0
H766 H 0.50806 0.48022 0.62588 0.0
C767 C 0.47504 0.45613 0.60507 0.0
O768 O 0.47487 0.48492 0.60105 0.0
N769 N 0.54751 0.41157 0.59213 0.0
C770 C 0.56203 0.40558 0.58029 0.0
C771 C 0.55886 0.37483 0.57742 0.0
C772 C 0.53636 0.38441 0.5965 0.0
N773 N 0.54283 0.36166 0.58763 0.0
C774 C 0.5488 0.49032 0.57685 0.0
C775 C 0.50143 0.46239 0.56268 0.0
C776 C 0.51891 0.48488 0.5561 0.0
C777 C 0.54252 0.49937 0.5634 0.0
C778 C 0.50807 0.45444 0.57613 0.0
N779 N 0.53147 0.46832 0.58314 0.0
H780 H 0.56862 0.49983 0.58185 0.0
H781 H 0.49546 0.43559 0.58058 0.0
H782 H 0.57372 0.42252 0.5741 0.0
H783 H 0.52328 0.38148 0.6058 0.0
O784 O 0.58816 0.45511 0.59978 0.0
O785 O 0.56189 0.43477 0.61697 0.0
O786 O 0.5 0.4408 0.60548 0.0
C787 C 0.58834 0.44154 0.61166 0.0
H788 H 0.52603 0.53248 0.63676 0.0
H789 H 0.56768 0.36299 0.56854 0.0
H790 H 0.48322 0.45041 0.55734 0.0
H791 H 0.55702 0.51637 0.55852 0.0
Co792 Co 0.20233 0.29188 0.35043 0.0
C793 C 0.26465 0.31372 0.35791 0.0
C794 C 0.24931 0.27767 0.37109 0.0
C795 C 0.27651 0.28908 0.37614 0.0
N796 N 0.24219 0.2925 0.35941 0.0
N797 N 0.28598 0.31195 0.3679 0.0
H798 H 0.2643 0.33168 0.35034 0.0
H799 H 0.23458 0.26137 0.37623 0.0
C800 C 0.21377 0.22423 0.35568 0.0
O801 O 0.2428 0.22668 0.35217 0.0
N802 N 0.16244 0.29204 0.34184 0.0
C803 C 0.15524 0.30621 0.33007 0.0
C804 C 0.12427 0.30291 0.3278 0.0
C805 C 0.13578 0.28056 0.34669 0.0
N806 N 0.11192 0.28693 0.33828 0.0
C807 C 0.23713 0.303 0.32587 0.0
C808 C 0.22043 0.24926 0.3128 0.0
C809 C 0.23752 0.2711 0.30561 0.0
C810 C 0.24599 0.29825 0.3123 0.0
C811 C 0.2115 0.25517 0.32621 0.0
N812 N 0.22037 0.28147 0.33277 0.0
H813 H 0.24209 0.32488 0.33047 0.0
H814 H 0.19569 0.23932 0.33091 0.0
H815 H 0.17133 0.31844 0.32366 0.0
H816 H 0.13387 0.26861 0.35632 0.0
O817 O 0.20256 0.33641 0.34933 0.0
O818 O 0.1846 0.30896 0.36666 0.0
O819 O 0.19591 0.24748 0.35534 0.0
C820 C 0.18922 0.33578 0.36123 0.0
H821 H 0.28705 0.28287 0.38576 0.0
H822 H 0.11193 0.31158 0.31903 0.0
H823 H 0.21242 0.22851 0.30784 0.0
H824 H 0.25868 0.31601 0.30699 0.0
Co825 Co 0.4593 0.44794 0.10035 0.0
C826 C 0.44012 0.51084 0.10767 0.0
C827 C 0.47575 0.4944 0.1208 0.0
C828 C 0.4648 0.52162 0.12601 0.0
N829 N 0.46075 0.48788 0.10911 0.0
N830 N 0.44212 0.53175 0.11781 0.0
H831 H 0.4222 0.51098 0.10007 0.0
H832 H 0.49155 0.4791 0.12592 0.0
C833 C 0.52794 0.45596 0.10535 0.0
O834 O 0.52742 0.48528 0.10218 0.0
N835 N 0.45717 0.408 0.09197 0.0
C836 C 0.44235 0.4008 0.08034 0.0
C837 C 0.44633 0.36998 0.07784 0.0
C838 C 0.46947 0.38153 0.09655 0.0
N839 N 0.46332 0.35795 0.08804 0.0
C840 C 0.44759 0.48179 0.07562 0.0
C841 C 0.50104 0.46483 0.06237 0.0
C842 C 0.47893 0.4816 0.0552 0.0
C843 C 0.45192 0.49018 0.06196 0.0
C844 C 0.49548 0.45625 0.07586 0.0
N845 N 0.46933 0.46526 0.0825 0.0
H846 H 0.42586 0.48696 0.08033 0.0
H847 H 0.51148 0.4406 0.08054 0.0
H848 H 0.42955 0.41683 0.07412 0.0
H849 H 0.48298 0.37967 0.10578 0.0
O850 O 0.41467 0.44974 0.09982 0.0
O851 O 0.44267 0.4312 0.11686 0.0
O852 O 0.50357 0.4397 0.10485 0.0
C853 C 0.41567 0.43671 0.11179 0.0
H854 H 0.471 0.53157 0.13574 0.0
H855 H 0.43721 0.35732 0.06925 0.0
H856 H 0.52169 0.45681 0.05733 0.0
H857 H 0.43399 0.50258 0.05663 0.0
Co858 Co 0.3011 0.70907 0.85102 0.0
C859 C 0.23788 0.68826 0.85727 0.0
C860 C 0.25137 0.72592 0.86989 0.0
C861 C 0.2239 0.71458 0.87465 0.0
N862 N 0.25999 0.70981 0.8588 0.0
N863 N 0.21541 0.69064 0.86676 0.0
H864 H 0.23955 0.66963 0.8501 0.0
H865 H 0.26533 0.74284 0.87504 0.0
C866 C 0.29194 0.77728 0.85534 0.0
O867 O 0.2659 0.77709 0.84856 0.0
N868 N 0.34205 0.7075 0.84356 0.0
C869 C 0.34997 0.69223 0.83215 0.0
C870 C 0.38072 0.69664 0.8298 0.0
C871 C 0.36818 0.72053 0.84822 0.0
N872 N 0.39211 0.71437 0.83988 0.0
C873 C 0.26775 0.70103 0.82573 0.0
C874 C 0.29216 0.75205 0.81287 0.0
C875 C 0.27301 0.73244 0.8054 0.0
C876 C 0.26066 0.70665 0.81202 0.0
C877 C 0.29893 0.7454 0.82646 0.0
N878 N 0.28624 0.72055 0.8329 0.0
H879 H 0.25974 0.68003 0.83029 0.0
H880 H 0.31582 0.75945 0.83156 0.0
H881 H 0.33432 0.679 0.82592 0.0
H882 H 0.36955 0.73458 0.8573 0.0
O883 O 0.29965 0.66441 0.8498 0.0
O884 O 0.31566 0.69141 0.86764 0.0
O885 O 0.30803 0.75295 0.8566 0.0
C886 C 0.31103 0.66474 0.86212 0.0
H887 H 0.21258 0.72192 0.8839 0.0
H888 H 0.39384 0.68738 0.82138 0.0
H889 H 0.30316 0.77157 0.80806 0.0
H890 H 0.24617 0.69058 0.80656 0.0
Co891 Co 0.03203 0.55011 0.59782 0.0
C892 C 0.05988 0.49172 0.60659 0.0
C893 C 0.0164 0.49929 0.61635 0.0
C894 C 0.02927 0.47295 0.62163 0.0
N895 N 0.0356 0.51095 0.60691 0.0
N896 N 0.05672 0.4683 0.61555 0.0
H897 H 0.0798 0.49535 0.60019 0.0
H898 H 0.99524 0.50988 0.61967 0.0
C899 C 0.96482 0.56213 0.59366 0.0
O900 O 0.97092 0.57405 0.58165 0.0
N901 N 0.02884 0.5901 0.58896 0.0
C902 C 0.03689 0.59822 0.57614 0.0
C903 C 0.03027 0.62869 0.57419 0.0
C904 C 0.01806 0.61626 0.59469 0.0
N905 N 0.01846 0.63998 0.58582 0.0
C906 C 0.05549 0.52767 0.57223 0.0
C907 C 0.00053 0.50473 0.56248 0.0
C908 C 0.02511 0.50823 0.55335 0.0
C909 C 0.05342 0.5182 0.55862 0.0
C910 C 0.00374 0.51428 0.57602 0.0
N911 N 0.02997 0.52856 0.58032 0.0
H912 H 0.07704 0.53684 0.57586 0.0
H913 H 0.98461 0.51091 0.58282 0.0
H914 H 0.04681 0.58365 0.5685 0.0
H915 H 0.00935 0.61773 0.60501 0.0
O916 O 0.07621 0.55646 0.59948 0.0
O917 O 0.04131 0.57036 0.61469 0.0
O918 O 0.98607 0.54931 0.60063 0.0
C919 C 0.07 0.5695 0.61113 0.0
H920 H 0.01984 0.45925 0.62983 0.0
H921 H 0.0341 0.6417 0.56493 0.0
H922 H 0.97846 0.4961 0.55913 0.0
H923 H 0.07356 0.51983 0.55218 0.0
Co924 Co 0.19842 0.70888 0.15787 0.0
C925 C 0.26126 0.68616 0.15232 0.0
C926 C 0.2517 0.72701 0.14096 0.0
C927 C 0.27954 0.7155 0.13672 0.0
N928 N 0.2404 0.709 0.151 0.0
N929 N 0.28537 0.68963 0.14378 0.0
H930 H 0.25787 0.66613 0.15864 0.0
H931 H 0.23952 0.74555 0.13605 0.0
C932 C 0.20777 0.77747 0.15417 0.0
O933 O 0.23249 0.77744 0.16186 0.0
N934 N 0.15667 0.70794 0.16442 0.0
C935 C 0.14696 0.69235 0.17548 0.0
C936 C 0.11614 0.6978 0.17723 0.0
C937 C 0.13161 0.72223 0.15939 0.0
N938 N 0.10657 0.71652 0.16713 0.0
C939 C 0.23019 0.70124 0.18353 0.0
C940 C 0.20336 0.75103 0.19632 0.0
C941 C 0.22226 0.73158 0.20406 0.0
C942 C 0.23595 0.70648 0.19739 0.0
C943 C 0.19775 0.74462 0.1826 0.0
N944 N 0.21154 0.72034 0.17623 0.0
H945 H 0.2394 0.68082 0.1789 0.0
H946 H 0.18117 0.7586 0.17726 0.0
H947 H 0.16146 0.67836 0.18194 0.0
H948 H 0.13182 0.73704 0.15052 0.0
O949 O 0.19911 0.66439 0.1594 0.0
O950 O 0.18531 0.69078 0.14102 0.0
O951 O 0.19258 0.75284 0.15206 0.0
C952 C 0.18875 0.66428 0.14691 0.0
H953 H 0.29301 0.72396 0.12823 0.0
H954 H 0.10182 0.68876 0.18532 0.0
H955 H 0.19231 0.77083 0.20083 0.0
H956 H 0.24995 0.69015 0.20293 0.0
Co957 Co 0.037 0.45111 0.9078 0.0
C958 C 0.05713 0.5134 0.8993 0.0
C959 C 0.01991 0.49678 0.88711 0.0
C960 C 0.03078 0.52341 0.88132 0.0
N961 N 0.03591 0.49072 0.89861 0.0
N962 N 0.05429 0.53376 0.88898 0.0
H963 H 0.07649 0.51328 0.90618 0.0
H964 H 0.00325 0.48156 0.88251 0.0
C965 C 0.96883 0.46027 0.90359 0.0
O966 O 0.97075 0.48907 0.90749 0.0
N967 N 0.03881 0.41137 0.91643 0.0
C968 C 0.0541 0.40426 0.92794 0.0
C969 C 0.04971 0.37357 0.93068 0.0
C970 C 0.0258 0.38499 0.91214 0.0
N971 N 0.03199 0.36155 0.92073 0.0
C972 C 0.04451 0.48984 0.9317 0.0
C973 C 0.9957 0.46487 0.94594 0.0
C974 C 0.0142 0.4867 0.95253 0.0
C975 C 0.03872 0.4995 0.9451 0.0
C976 C 0.00193 0.45632 0.93252 0.0
N977 N 0.02593 0.46886 0.92545 0.0
H978 H 0.06479 0.4982 0.92668 0.0
H979 H 0.9884 0.43804 0.92814 0.0
H980 H 0.06739 0.42033 0.93394 0.0
H981 H 0.01178 0.38312 0.90306 0.0
O982 O 0.08158 0.45288 0.90874 0.0
O983 O 0.05436 0.43376 0.89157 0.0
O984 O 0.99266 0.4432 0.90319 0.0
C985 C 0.08114 0.43926 0.89689 0.0
H986 H 0.0232 0.53332 0.87177 0.0
H987 H 0.05906 0.361 0.93925 0.0
H988 H 0.9773 0.4532 0.95126 0.0
H989 H 0.05385 0.51637 0.94963 0.0
Co990 Co 0.29638 0.28533 0.65988 0.0
C991 C 0.23793 0.31386 0.65138 0.0
C992 C 0.24564 0.27103 0.64112 0.0
C993 C 0.2192 0.28405 0.63603 0.0
N994 N 0.2573 0.2897 0.65076 0.0
N995 N 0.21445 0.31109 0.64242 0.0
H996 H 0.24145 0.33338 0.65802 0.0
H997 H 0.25624 0.25006 0.63757 0.0
C998 C 0.30782 0.21769 0.66263 0.0
O999 O 0.31777 0.22205 0.67513 0.0
N1000 N 0.33632 0.28106 0.66875 0.0
C1001 C 0.3444 0.28721 0.68178 0.0
C1002 C 0.37482 0.28005 0.68359 0.0
C1003 C 0.36244 0.27079 0.66278 0.0
N1004 N 0.38611 0.26978 0.67168 0.0
C1005 C 0.27381 0.30497 0.68606 0.0
C1006 C 0.24875 0.24934 0.69379 0.0
C1007 C 0.25221 0.27239 0.70365 0.0
C1008 C 0.26336 0.3011 0.69944 0.0
C1009 C 0.2592 0.25438 0.68049 0.0
N1010 N 0.27449 0.28079 0.6772 0.0
H1011 H 0.28386 0.32673 0.68322 0.0
H1012 H 0.25562 0.23659 0.67302 0.0
H1013 H 0.32982 0.29611 0.68966 0.0
H1014 H 0.3639 0.26343 0.65226 0.0
O1015 O 0.30229 0.32966 0.65951 0.0
O1016 O 0.31676 0.2972 0.64336 0.0
O1017 O 0.29626 0.23992 0.65585 0.0
C1018 C 0.31545 0.32528 0.64774 0.0
H1019 H 0.20546 0.27501 0.62775 0.0
H1020 H 0.3878 0.2824 0.69296 0.0
H1021 H 0.23858 0.2274 0.69639 0.0
H1022 H 0.26576 0.31986 0.70661 0.0
Co1023 Co 0.46037 0.55321 0.4094 0.0
C1024 C 0.44285 0.48934 0.40332 0.0
C1025 C 0.47947 0.50443 0.39043 0.0
C1026 C 0.46878 0.47672 0.38559 0.0
N1027 N 0.46363 0.51216 0.40175 0.0
N1028 N 0.44543 0.4675 0.39362 0.0
H1029 H 0.42418 0.49008 0.41054 0.0
H1030 H 0.49545 0.51929 0.38516 0.0
C1031 C 0.52962 0.54763 0.40505 0.0
O1032 O 0.53041 0.51869 0.40883 0.0
N1033 N 0.45626 0.59406 0.4167 0.0
C1034 C 0.44023 0.60202 0.42789 0.0
C1035 C 0.44359 0.63308 0.42996 0.0
C1036 C 0.46868 0.62032 0.41192 0.0
N1037 N 0.46143 0.64449 0.41991 0.0
C1038 C 0.44955 0.52153 0.43487 0.0
C1039 C 0.50169 0.54278 0.44791 0.0
C1040 C 0.48064 0.52524 0.45544 0.0
C1041 C 0.45429 0.51443 0.44866 0.0
C1042 C 0.49577 0.54986 0.43429 0.0
N1043 N 0.47035 0.5387 0.42775 0.0
H1044 H 0.42825 0.51465 0.43018 0.0
H1045 H 0.51106 0.56576 0.42932 0.0
H1046 H 0.42727 0.58627 0.43419 0.0
H1047 H 0.48326 0.62159 0.403 0.0
O1048 O 0.41572 0.54964 0.40947 0.0
O1049 O 0.44417 0.56701 0.39236 0.0
O1050 O 0.50449 0.56271 0.40505 0.0
C1051 C 0.41707 0.56085 0.39714 0.0
H1052 H 0.47545 0.46592 0.3761 0.0
H1053 H 0.4337 0.64628 0.43821 0.0
H1054 H 0.52245 0.55171 0.45252 0.0
H1055 H 0.43674 0.50168 0.45405 0.0
H1056 H 0.5825 0.23545 0.18986 0.0
H1057 H 0.57819 0.28218 0.15117 0.0
H1058 H 0.5285 0.22182 0.18798 0.0
H1059 H 0.52321 0.26983 0.14942 0.0
H1060 H 0.42853 0.2188 0.14744 0.0
H1061 H 0.48357 0.23146 0.1468 0.0
H1062 H 0.48168 0.24771 0.19031 0.0
H1063 H 0.42762 0.2338 0.19085 0.0
C1064 C 0.56978 0.2428 0.18094 0.0
C1065 C 0.58424 0.26007 0.17074 0.0
C1066 C 0.53876 0.23528 0.17988 0.0
C1067 C 0.52115 0.24544 0.16872 0.0
C1068 C 0.53602 0.26163 0.15816 0.0
C1069 C 0.56741 0.26873 0.15913 0.0
C1070 C 0.44008 0.22538 0.15677 0.0
C1071 C 0.42416 0.22495 0.16923 0.0
C1072 C 0.47151 0.23263 0.15644 0.0
C1073 C 0.48733 0.23991 0.16856 0.0
C1074 C 0.47066 0.24112 0.18084 0.0
C1075 C 0.43962 0.23342 0.18118 0.0
H1076 H 0.00691 0.17399 0.43773 0.0
H1077 H 0.03682 0.18015 0.39598 0.0
H1078 H 0.98934 0.22699 0.43695 0.0
H1079 H 0.02111 0.23424 0.39524 0.0
H1080 H 0.9675 0.32588 0.39627 0.0
H1081 H 0.98183 0.27146 0.3952 0.0
H1082 H 0.0104 0.27549 0.43745 0.0
H1083 H 0.99431 0.32886 0.43853 0.0
C1084 C 0.00974 0.18698 0.42839 0.0
C1085 C 0.02328 0.17337 0.41695 0.0
C1086 C 1.00003 0.21744 0.42794 0.0
C1087 C 0.00448 0.23535 0.41614 0.0
C1088 C 0.01716 0.22124 0.40449 0.0
C1089 C 0.02624 0.19037 0.40488 0.0
C1090 C 0.97699 0.31488 0.40524 0.0
C1091 C 0.97956 0.33118 0.41752 0.0
C1092 C 0.98528 0.2838 0.40465 0.0
C1093 C 0.99678 0.26873 0.41631 0.0
C1094 C 0.00059 0.28579 0.42839 0.0
C1095 C 0.9917 0.31648 0.42902 0.0
H1096 H 0.08108 0.74319 0.68897 0.0
H1097 H 0.07882 0.785 0.64916 0.0
H1098 H 0.02717 0.7293 0.68688 0.0
H1099 H 0.02392 0.77236 0.64714 0.0
H1100 H 0.92937 0.72011 0.6458 0.0
H1101 H 0.98436 0.73318 0.64521 0.0
H1102 H 0.98049 0.75629 0.68807 0.0
H1103 H 0.92652 0.74198 0.68861 0.0
C1104 C 0.06882 0.74937 0.67975 0.0
C1105 C 0.08379 0.76539 0.6693 0.0
C1106 C 0.03789 0.7417 0.67857 0.0
C1107 C 0.02088 0.75048 0.66699 0.0
C1108 C 0.03628 0.76529 0.6562 0.0
C1109 C 0.06761 0.77254 0.65732 0.0
C1110 C 0.94048 0.72833 0.65499 0.0
C1111 C 0.92409 0.72969 0.6673 0.0
C1112 C 0.97185 0.7358 0.65468 0.0
C1113 C 0.98709 0.74505 0.66668 0.0
C1114 C 0.9699 0.74818 0.67874 0.0
C1115 C 0.93892 0.74027 0.67907 0.0
H1116 H 0.51232 0.67458 0.94293 0.0
H1117 H 0.53044 0.6754 0.89973 0.0
H1118 H 0.49873 0.72864 0.94213 0.0
H1119 H 0.51816 0.73035 0.89887 0.0
H1120 H 0.46597 0.82381 0.90182 0.0
H1121 H 0.47957 0.76914 0.90058 0.0
H1122 H 0.523 0.77607 0.94016 0.0
H1123 H 0.50789 0.82975 0.94151 0.0
C1124 C 0.51359 0.68657 0.93326 0.0
C1125 C 0.52268 0.67102 0.92143 0.0
C1126 C 0.50605 0.71763 0.93278 0.0
C1127 C 0.50801 0.73422 0.92048 0.0
C1128 C 0.51628 0.71837 0.90851 0.0
C1129 C 0.52336 0.68697 0.90898 0.0
C1130 C 0.47868 0.81344 0.91012 0.0
C1131 C 0.4856 0.83059 0.92183 0.0
C1132 C 0.48653 0.78223 0.90944 0.0
C1133 C 0.50181 0.7679 0.92041 0.0
C1134 C 0.51027 0.78589 0.93173 0.0
C1135 C 0.50192 0.81671 0.93249 0.0
H1136 H 0.42191 0.79208 0.35258 0.0
H1137 H 0.42132 0.70591 0.33096 0.0
H1138 H 0.47806 0.78842 0.35514 0.0
H1139 H 0.47712 0.70176 0.33383 0.0
H1140 H 0.57608 0.69715 0.35174 0.0
H1141 H 0.52004 0.70059 0.35491 0.0
H1142 H 0.51946 0.78728 0.33355 0.0
H1143 H 0.57509 0.78329 0.33006 0.0
C1144 C 0.43378 0.77209 0.34867 0.0
C1145 C 0.41757 0.74937 0.34149 0.0
C1146 C 0.46573 0.77002 0.35011 0.0
C1147 C 0.4817 0.74476 0.34471 0.0
C1148 C 0.46523 0.72129 0.33817 0.0
C1149 C 0.43347 0.72375 0.33645 0.0
C1150 C 0.56389 0.71708 0.34795 0.0
C1151 C 0.57959 0.73986 0.34059 0.0
C1152 C 0.53202 0.71903 0.34972 0.0
C1153 C 0.51565 0.74425 0.3445 0.0
C1154 C 0.53167 0.76777 0.33777 0.0
C1155 C 0.56331 0.76542 0.33569 0.0
H1156 H 0.54441 0.32487 0.60981 0.0
H1157 H 0.52019 0.32749 0.56724 0.0
H1158 H 0.53136 0.27019 0.61069 0.0
H1159 H 0.50527 0.27375 0.56811 0.0
H1160 H 0.50761 0.17196 0.56834 0.0
H1161 H 0.52507 0.22504 0.56889 0.0
H1162 H 0.49284 0.23298 0.61051 0.0
H1163 H 0.4774 0.17889 0.61001 0.0
C1164 C 0.53586 0.31369 0.60071 0.0
C1165 C 0.53355 0.33007 0.58843 0.0
C1166 C 0.52825 0.28244 0.60118 0.0
C1167 C 0.51759 0.26718 0.58942 0.0
C1168 C 0.51437 0.28418 0.57727 0.0
C1169 C 0.52264 0.31509 0.57675 0.0
C1170 C 0.50465 0.18514 0.5776 0.0
C1171 C 0.49112 0.17167 0.58909 0.0
C1172 C 0.51431 0.21566 0.57793 0.0
C1173 C 0.5098 0.23378 0.58965 0.0
C1174 C 0.49697 0.21985 0.60132 0.0
C1175 C 0.488 0.18895 0.60107 0.0
H1176 H 0.05649 0.18293 0.83309 0.0
H1177 H 0.08386 0.26323 0.85598 0.0
H1178 H 0.00324 0.19942 0.83412 0.0
H1179 H 0.0299 0.27914 0.85739 0.0
H1180 H 0.92069 0.27671 0.86406 0.0
H1181 H 0.97401 0.25843 0.86634 0.0
H1182 H 0.97977 0.24893 0.8226 0.0
H1183 H 0.92707 0.26732 0.82036 0.0
C1184 C 0.05123 0.20406 0.83838 0.0
C1185 C 0.07466 0.22215 0.84415 0.0
C1186 C 0.02065 0.21333 0.83906 0.0
C1187 C 0.01264 0.24068 0.84569 0.0
C1188 C 0.0356 0.2579 0.85223 0.0
C1189 C 0.06644 0.24877 0.85143 0.0
C1190 C 0.93346 0.27056 0.855 0.0
C1191 C 0.91992 0.2734 0.84204 0.0
C1192 C 0.96387 0.26036 0.85629 0.0
C1193 C 0.98079 0.25221 0.84465 0.0
C1194 C 0.96709 0.25488 0.83174 0.0
C1195 C 0.93707 0.26556 0.83044 0.0
H1196 H 0.06654 0.81228 0.07851 0.0
H1197 H 0.98843 0.83795 0.10319 0.0
H1198 H 0.05193 0.75859 0.08035 0.0
H1199 H 0.97427 0.78359 0.10532 0.0
H1200 H 0.97758 0.6753 0.11231 0.0
H1201 H 0.99566 0.72881 0.114 0.0
H1202 H 0.00341 0.73285 0.07015 0.0
H1203 H 0.98533 0.68001 0.0685 0.0
C1204 C 0.04627 0.80652 0.08437 0.0
C1205 C 0.02822 0.82957 0.09042 0.0
C1206 C 0.03808 0.7757 0.0855 0.0
C1207 C 0.01181 0.76704 0.09283 0.0
C1208 C 0.99471 0.78973 0.09963 0.0
C1209 C 0.00281 0.8208 0.0984 0.0
C1210 C 0.98339 0.68771 0.10309 0.0
C1211 C 0.98003 0.67367 0.09027 0.0
C1212 C 0.99347 0.71825 0.10405 0.0
C1213 C 0.00098 0.73482 0.0922 0.0
C1214 C 0.998 0.72052 0.07944 0.0
C1215 C 0.98747 0.69038 0.07849 0.0
H1216 H 0.5818 0.73016 0.82081 0.0
H1217 H 0.57856 0.77836 0.85914 0.0
H1218 H 0.52748 0.71784 0.82277 0.0
H1219 H 0.52333 0.76708 0.86101 0.0
H1220 H 0.42729 0.71728 0.86268 0.0
H1221 H 0.48265 0.72852 0.86359 0.0
H1222 H 0.4818 0.7469 0.82025 0.0
H1223 H 0.42736 0.73469 0.81941 0.0
C1224 C 0.56927 0.73805 0.82968 0.0
C1225 C 0.58407 0.75548 0.83973 0.0
C1226 C 0.53812 0.73124 0.83079 0.0
C1227 C 0.52078 0.74222 0.84186 0.0
C1228 C 0.53598 0.75834 0.85233 0.0
C1229 C 0.5675 0.7648 0.85129 0.0
C1230 C 0.43911 0.72407 0.85344 0.0
C1231 C 0.42337 0.7247 0.84094 0.0
C1232 C 0.47071 0.73048 0.85393 0.0
C1233 C 0.48685 0.73786 0.84192 0.0
C1234 C 0.47042 0.74022 0.82961 0.0
C1235 C 0.43919 0.73346 0.82912 0.0
H1236 H 0.02801 0.67624 0.60791 0.0
H1237 H 0.98573 0.67361 0.56818 0.0
H1238 H 0.01688 0.73155 0.60949 0.0
H1239 H 0.97376 0.72801 0.5698 0.0
H1240 H 0.96665 0.8281 0.60925 0.0
H1241 H 0.9775 0.7727 0.61069 0.0
H1242 H 0.00473 0.77319 0.5683 0.0
H1243 H 0.99308 0.82765 0.5669 0.0
C1244 C 0.01578 0.68743 0.59967 0.0
C1245 C 0.00814 0.67099 0.58782 0.0
C1246 C 0.00943 0.719 0.60055 0.0
C1247 C 0.99515 0.73438 0.58961 0.0
C1248 C 0.98574 0.71719 0.57821 0.0
C1249 C 0.99238 0.686 0.57729 0.0
C1250 C 0.9753 0.8162 0.60035 0.0
C1251 C 0.97856 0.83184 0.58789 0.0
C1252 C 0.98149 0.78458 0.60115 0.0
C1253 C 0.99121 0.76834 0.58951 0.0
C1254 C 0.99623 0.78468 0.57734 0.0
C1255 C 0.98976 0.81591 0.57652 0.0
H1256 H 0.92644 0.22773 0.36199 0.0
H1257 H 0.92969 0.2325 0.31806 0.0
H1258 H 0.97986 0.24604 0.36311 0.0
H1259 H 0.98261 0.25063 0.31915 0.0
H1260 H 0.06268 0.31478 0.32662 0.0
H1261 H 0.00931 0.29884 0.32782 0.0
H1262 H 0.03392 0.22567 0.35543 0.0
H1263 H 0.08793 0.24103 0.35396 0.0
C1264 C 0.93851 0.23288 0.35261 0.0
C1265 C 0.924 0.22864 0.33993 0.0
C1266 C 0.96905 0.24309 0.35325 0.0
C1267 C 0.9853 0.2498 0.34121 0.0
C1268 C 0.97058 0.24587 0.32859 0.0
C1269 C 0.94037 0.23527 0.32795 0.0
C1270 C 0.05699 0.29513 0.33287 0.0
C1271 C 0.07992 0.27887 0.33998 0.0
C1272 C 0.02628 0.28613 0.33362 0.0
C1273 C 0.01753 0.26086 0.3416 0.0
C1274 C 0.04005 0.24535 0.34923 0.0
C1275 C 0.07099 0.25418 0.34838 0.0
H1276 H 0.56217 0.18895 0.07923 0.0
H1277 H 0.48381 0.16279 0.10376 0.0
H1278 H 0.54525 0.242 0.07967 0.0
H1279 H 0.46755 0.21658 0.10454 0.0
H1280 H 0.4704 0.32479 0.11123 0.0
H1281 H 0.48784 0.27123 0.11297 0.0
H1282 H 0.49688 0.26734 0.06917 0.0
H1283 H 0.47949 0.32045 0.06745 0.0
C1284 C 0.54131 0.19436 0.0847 0.0
C1285 C 0.52406 0.17127 0.09123 0.0
C1286 C 0.53176 0.22489 0.08502 0.0
C1287 C 0.50497 0.23326 0.09202 0.0
C1288 C 0.48837 0.21064 0.0991 0.0
C1289 C 0.49774 0.17987 0.09865 0.0
C1290 C 0.47624 0.31241 0.10202 0.0
C1291 C 0.4736 0.32667 0.0892 0.0
C1292 C 0.48596 0.28181 0.103 0.0
C1293 C 0.49375 0.26529 0.0912 0.0
C1294 C 0.4912 0.27965 0.07843 0.0
C1295 C 0.48105 0.30993 0.07743 0.0
H1296 H 0.57342 0.23403 0.68981 0.0
H1297 H 0.57386 0.22144 0.64624 0.0
H1298 H 0.51917 0.24696 0.68912 0.0
H1299 H 0.51863 0.23331 0.64544 0.0
H1300 H 0.4232 0.28325 0.65028 0.0
H1301 H 0.47829 0.27136 0.64845 0.0
H1302 H 0.47285 0.21999 0.68613 0.0
H1303 H 0.41872 0.23303 0.68809 0.0
C1304 C 0.5617 0.23397 0.68007 0.0
C1305 C 0.57762 0.22642 0.66812 0.0
C1306 C 0.53054 0.24113 0.67965 0.0
C1307 C 0.51419 0.24037 0.66727 0.0
C1308 C 0.53044 0.23407 0.65516 0.0
C1309 C 0.56199 0.2273 0.65558 0.0
C1310 C 0.43395 0.26913 0.65802 0.0
C1311 C 0.41704 0.25938 0.66943 0.0
C1312 C 0.46542 0.2623 0.657 0.0
C1313 C 0.48027 0.24535 0.66733 0.0
C1314 C 0.46257 0.23403 0.67824 0.0
C1315 C 0.43149 0.24124 0.67934 0.0
H1316 H 0.47688 0.68239 0.44044 0.0
H1317 H 0.47028 0.67685 0.3966 0.0
H1318 H 0.49534 0.73515 0.43862 0.0
H1319 H 0.48861 0.73021 0.39477 0.0
H1320 H 0.48458 0.84 0.40537 0.0
H1321 H 0.46762 0.78637 0.40384 0.0
H1322 H 0.54611 0.75813 0.4276 0.0
H1323 H 0.56369 0.81101 0.42875 0.0
C1324 C 0.47917 0.6926 0.43042 0.0
C1325 C 0.47214 0.67562 0.41867 0.0
C1326 C 0.48989 0.72267 0.42938 0.0
C1327 C 0.49341 0.7366 0.41656 0.0
C1328 C 0.48598 0.7199 0.40476 0.0
C1329 C 0.47574 0.68946 0.4058 0.0
C1330 C 0.49856 0.82229 0.41001 0.0
C1331 C 0.52522 0.82997 0.41742 0.0
C1332 C 0.48881 0.79165 0.40914 0.0
C1333 C 0.5054 0.76833 0.41576 0.0
C1334 C 0.53269 0.77582 0.4226 0.0
C1335 C 0.54259 0.80619 0.42333 0.0
H1336 H 0.06989 0.73623 0.18728 0.0
H1337 H 0.07471 0.72467 0.14366 0.0
H1338 H 0.01738 0.75521 0.18523 0.0
H1339 H 0.02153 0.74353 0.14155 0.0
H1340 H 0.91262 0.73767 0.15214 0.0
H1341 H 0.96684 0.7231 0.15056 0.0
H1342 H 0.99187 0.80296 0.17409 0.0
H1343 H 0.93825 0.81814 0.17533 0.0
C1344 C 0.0596 0.73779 0.17725 0.0
C1345 C 0.07619 0.72897 0.16564 0.0
C1346 C 0.02969 0.74881 0.17606 0.0
C1347 C 0.01551 0.75086 0.16323 0.0
C1348 C 0.03201 0.74208 0.15155 0.0
C1349 C 0.06234 0.73154 0.15274 0.0
C1350 C 0.9297 0.75247 0.15673 0.0
C1351 C 0.92089 0.77878 0.1641 0.0
C1352 C 0.96072 0.74411 0.15581 0.0
C1353 C 0.98337 0.76176 0.16235 0.0
C1354 C 0.97475 0.78873 0.16914 0.0
C1355 C 0.94394 0.79725 0.16994 0.0
H1356 H 0.02292 0.32817 0.89776 0.0
H1357 H 0.01673 0.32447 0.94165 0.0
H1358 H 0.00486 0.27478 0.89641 0.0
H1359 H 0.9988 0.27147 0.94033 0.0
H1360 H 0.93353 0.19235 0.93165 0.0
H1361 H 0.95022 0.24552 0.9309 0.0
H1362 H 0.02522 0.22059 0.90438 0.0
H1363 H 0.00919 0.16677 0.90543 0.0
C1364 C 0.01756 0.31598 0.90708 0.0
C1365 C 0.02123 0.33037 0.91981 0.0
C1366 C 0.00749 0.28547 0.90632 0.0
C1367 C 0.00039 0.26913 0.91827 0.0
C1368 C 0.0039 0.28364 0.93096 0.0
C1369 C 0.01438 0.31385 0.93172 0.0
C1370 C 0.95375 0.19793 0.92574 0.0
C1371 C 0.97031 0.17498 0.91881 0.0
C1372 C 0.96317 0.2285 0.92525 0.0
C1373 C 0.98915 0.23705 0.9177 0.0
C1374 C 0.00501 0.21455 0.91025 0.0
C1375 C 0.99578 0.18374 0.91085 0.0
H1376 H 0.42035 0.00871 0.11959 0.0
H1377 H 0.44858 0.09507 0.10188 0.0
H1378 H 0.37375 0.03352 0.12858 0.0
H1379 H 0.40265 0.11949 0.11068 0.0
H1380 H 0.31445 0.1577 0.12041 0.0
H1381 H 0.34579 0.11986 0.10855 0.0
H1382 H 0.36549 0.07513 0.14689 0.0
H1383 H 0.3334 0.11285 0.15876 0.0
C1384 C 0.41626 0.03275 0.11738 0.0
C1385 C 0.43805 0.05003 0.11009 0.0
C1386 C 0.38977 0.04693 0.12258 0.0
C1387 C 0.38446 0.07837 0.12027 0.0
C1388 C 0.40574 0.09512 0.11245 0.0
C1389 C 0.43223 0.08118 0.10749 0.0
C1390 C 0.32461 0.13915 0.12624 0.0
C1391 C 0.32193 0.13838 0.1405 0.0
C1392 C 0.34263 0.11757 0.11947 0.0
C1393 C 0.35863 0.09499 0.12683 0.0
C1394 C 0.35338 0.09225 0.14094 0.0
C1395 C 0.33502 0.11382 0.14774 0.0
H1396 H 0.24295 0.17585 0.36824 0.0
H1397 H 0.15488 0.20572 0.35285 0.0
H1398 H 0.21881 0.12874 0.37714 0.0
H1399 H 0.13117 0.15918 0.36149 0.0
H1400 H 0.09558 0.06837 0.36909 0.0
H1401 H 0.13243 0.10175 0.35769 0.0
H1402 H 0.17728 0.1192 0.39619 0.0
H1403 H 0.1404 0.08526 0.40764 0.0
C1404 C 0.21864 0.17208 0.36656 0.0
C1405 C 0.20074 0.19441 0.3599 0.0
C1406 C 0.20487 0.14529 0.37168 0.0
C1407 C 0.1732 0.14021 0.3699 0.0
C1408 C 0.1557 0.16217 0.36283 0.0
C1409 C 0.16925 0.18898 0.35797 0.0
C1410 C 0.11393 0.0785 0.37505 0.0
C1411 C 0.11492 0.07466 0.38926 0.0
C1412 C 0.13497 0.09765 0.36853 0.0
C1413 C 0.15727 0.11353 0.3761 0.0
C1414 C 0.16032 0.10718 0.39011 0.0
C1415 C 0.13925 0.08776 0.39666 0.0
H1416 H 0.19312 0.84133 0.62111 0.0
H1417 H 0.14805 0.87233 0.65771 0.0
H1418 H 0.16034 0.87464 0.60742 0.0
H1419 H 0.11345 0.90397 0.6441 0.0
H1420 H 0.05449 0.96222 0.61742 0.0
H1421 H 0.09974 0.94404 0.62972 0.0
H1422 H 0.11047 0.87117 0.6001 0.0
H1423 H 0.06667 0.89044 0.58757 0.0
C1424 C 0.17643 0.85579 0.6262 0.0
C1425 C 0.17299 0.85445 0.64039 0.0
C1426 C 0.15731 0.87457 0.61838 0.0
C1427 C 0.1335 0.89151 0.62454 0.0
C1428 C 0.13154 0.89159 0.63891 0.0
C1429 C 0.15135 0.87343 0.64676 0.0
C1430 C 0.06701 0.9427 0.61343 0.0
C1431 C 0.05698 0.92771 0.60155 0.0
C1432 C 0.09284 0.93209 0.62053 0.0
C1433 C 0.10888 0.90589 0.61604 0.0
C1434 C 0.09936 0.89175 0.60382 0.0
C1435 C 0.07396 0.9027 0.59662 0.0
H1436 H 0.2904 0.83671 0.84609 0.0
H1437 H 0.31833 0.78047 0.88016 0.0
H1438 H 0.31507 0.88155 0.85683 0.0
H1439 H 0.34193 0.82502 0.89098 0.0
H1440 H 0.36656 0.91382 0.91123 0.0
H1441 H 0.32807 0.88051 0.90052 0.0
H1442 H 0.3756 0.88833 0.86206 0.0
H1443 H 0.41436 0.921 0.87279 0.0
C1444 C 0.30113 0.83418 0.85599 0.0
C1445 C 0.30273 0.80526 0.86229 0.0
C1446 C 0.31521 0.85969 0.8621 0.0
C1447 C 0.33017 0.85668 0.87476 0.0
C1448 C 0.33021 0.82805 0.88132 0.0
C1449 C 0.31693 0.80255 0.87509 0.0
C1450 C 0.36826 0.9091 0.90041 0.0
C1451 C 0.39352 0.91969 0.89285 0.0
C1452 C 0.34632 0.89004 0.89431 0.0
C1453 C 0.34897 0.88189 0.88049 0.0
C1454 C 0.37289 0.89451 0.87269 0.0
C1455 C 0.39514 0.91301 0.87885 0.0
H1456 H 0.45612 0.93828 0.38574 0.0
H1457 H 0.42241 0.90569 0.42459 0.0
H1458 H 0.41428 0.91192 0.3742 0.0
H1459 H 0.37986 0.88017 0.41307 0.0
H1460 H 0.32853 0.86946 0.35641 0.0
H1461 H 0.36046 0.90549 0.36934 0.0
H1462 H 0.37747 0.835 0.39948 0.0
H1463 H 0.34517 0.79972 0.38687 0.0
C1464 C 0.4393 0.92618 0.39187 0.0
C1465 C 0.44288 0.92372 0.40609 0.0
C1466 C 0.41516 0.91114 0.38523 0.0
C1467 C 0.39391 0.89348 0.39267 0.0
C1468 C 0.39624 0.89296 0.40699 0.0
C1469 C 0.42052 0.90778 0.41361 0.0
C1470 C 0.33876 0.86193 0.36591 0.0
C1471 C 0.33442 0.83173 0.37059 0.0
C1472 C 0.35717 0.88248 0.37328 0.0
C1473 C 0.37158 0.87321 0.38548 0.0
C1474 C 0.36635 0.84324 0.3903 0.0
C1475 C 0.34797 0.82284 0.38298 0.0
H1476 H 0.42695 0.07893 0.63976 0.0
H1477 H 0.36882 0.07974 0.60408 0.0
H1478 H 0.38979 0.10931 0.65203 0.0
H1479 H 0.33042 0.10968 0.61664 0.0
H1480 H 0.30745 0.2064 0.63527 0.0
H1481 H 0.3285 0.16191 0.62368 0.0
H1482 H 0.34223 0.11706 0.66256 0.0
H1483 H 0.32255 0.16243 0.67419 0.0
C1484 C 0.40571 0.08495 0.63464 0.0
C1485 C 0.40101 0.07741 0.62088 0.0
C1486 C 0.38411 0.10219 0.64176 0.0
C1487 C 0.35706 0.11231 0.63534 0.0
C1488 C 0.35123 0.10271 0.62185 0.0
C1489 C 0.37305 0.08534 0.61467 0.0
C1490 C 0.31435 0.18679 0.64135 0.0
C1491 C 0.31397 0.18819 0.65567 0.0
C1492 C 0.32625 0.16107 0.63467 0.0
C1493 C 0.33768 0.13599 0.64217 0.0
C1494 C 0.33446 0.13629 0.65646 0.0
C1495 C 0.32303 0.16223 0.66315 0.0
H1496 H 0.04399 0.10198 0.90506 0.0
H1497 H 0.07503 0.01323 0.89104 0.0
H1498 H 0.09048 0.12554 0.89619 0.0
H1499 H 0.12196 0.03724 0.88188 0.0
H1500 H 0.16555 0.11545 0.85081 0.0
H1501 H 0.13107 0.07892 0.86219 0.0
H1502 H 0.1486 0.12349 0.90071 0.0
H1503 H 0.18268 0.15986 0.88941 0.0
C1504 C 0.06093 0.08745 0.90016 0.0
C1505 C 0.05591 0.05578 0.89873 0.0
C1506 C 0.08767 0.10092 0.89517 0.0
C1507 C 0.10992 0.08316 0.88844 0.0
C1508 C 0.10517 0.05137 0.88708 0.0
C1509 C 0.07848 0.03769 0.89235 0.0
C1510 C 0.16299 0.11656 0.86178 0.0
C1511 C 0.17637 0.14068 0.86922 0.0
C1512 C 0.14324 0.09572 0.86829 0.0
C1513 C 0.13679 0.09883 0.88228 0.0
C1514 C 0.15284 0.12091 0.88989 0.0
C1515 C 0.17239 0.14166 0.88342 0.0
H1516 H 0.20869 0.83628 0.16413 0.0
H1517 H 0.18243 0.78223 0.12912 0.0
H1518 H 0.18441 0.88171 0.15375 0.0
H1519 H 0.15913 0.82739 0.11868 0.0
H1520 H 0.13503 0.91722 0.0993 0.0
H1521 H 0.17302 0.88318 0.10988 0.0
H1522 H 0.12451 0.88925 0.14816 0.0
H1523 H 0.08624 0.9227 0.13755 0.0
C1524 C 0.1984 0.83434 0.1541 0.0
C1525 C 0.19719 0.80584 0.14744 0.0
C1526 C 0.18453 0.86021 0.1482 0.0
C1527 C 0.17011 0.85801 0.13539 0.0
C1528 C 0.17043 0.82982 0.12847 0.0
C1529 C 0.18354 0.80395 0.13449 0.0
C1530 C 0.13302 0.912 0.11006 0.0
C1531 C 0.10762 0.92234 0.11759 0.0
C1532 C 0.15467 0.89249 0.11609 0.0
C1533 C 0.15158 0.8836 0.12981 0.0
C1534 C 0.12755 0.89598 0.1376 0.0
C1535 C 0.10559 0.91495 0.13151 0.0
H1536 H 0.58211 0.91456 0.92492 0.0
H1537 H 0.54156 0.93838 0.8861 0.0
H1538 H 0.62635 0.8928 0.91317 0.0
H1539 H 0.58519 0.91568 0.87435 0.0
H1540 H 0.67135 0.87793 0.8555 0.0
H1541 H 0.63917 0.91364 0.86852 0.0
H1542 H 0.6311 0.84619 0.9007 0.0
H1543 H 0.66347 0.81134 0.88798 0.0
C1544 C 0.58282 0.91554 0.91389 0.0
C1545 C 0.55809 0.92776 0.90645 0.0
C1546 C 0.60812 0.90294 0.90714 0.0
C1547 C 0.6091 0.90195 0.8928 0.0
C1548 C 0.58537 0.91619 0.88539 0.0
C1549 C 0.56019 0.92906 0.89215 0.0
C1550 C 0.66318 0.87113 0.86549 0.0
C1551 C 0.66972 0.84177 0.87067 0.0
C1552 C 0.64461 0.89146 0.87291 0.0
C1553 C 0.63243 0.88279 0.88566 0.0
C1554 C 0.64038 0.85396 0.89105 0.0
C1555 C 0.65878 0.83377 0.88366 0.0
H1556 H 0.86522 0.9201 0.59921 0.0
H1557 H 0.91554 0.92372 0.63714 0.0
H1558 H 0.82695 0.88656 0.6099 0.0
H1559 H 0.87697 0.89078 0.64786 0.0
H1560 H 0.79183 0.83881 0.6639 0.0
H1561 H 0.81634 0.88426 0.6536 0.0
H1562 H 0.84131 0.83012 0.61845 0.0
H1563 H 0.81787 0.78493 0.62884 0.0
C1564 C 0.86752 0.9146 0.60994 0.0
C1565 C 0.89342 0.92422 0.61734 0.0
C1566 C 0.8457 0.89539 0.61603 0.0
C1567 C 0.84913 0.88613 0.62967 0.0
C1568 C 0.87368 0.89784 0.63736 0.0
C1569 C 0.89581 0.91651 0.63121 0.0
C1570 C 0.80209 0.83694 0.65388 0.0
C1571 C 0.8032 0.8085 0.64716 0.0
C1572 C 0.81608 0.8628 0.64802 0.0
C1573 C 0.83046 0.86062 0.63521 0.0
C1574 C 0.83002 0.8325 0.62824 0.0
C1575 C 0.81684 0.80663 0.63422 0.0
H1576 H 0.83494 0.11423 0.35017 0.0
H1577 H 0.825 0.15735 0.38955 0.0
H1578 H 0.86883 0.07552 0.3603 0.0
H1579 H 0.85839 0.11848 0.39967 0.0
H1580 H 0.91622 0.03735 0.41442 0.0
H1581 H 0.8696 0.05959 0.40418 0.0
H1582 H 0.92304 0.09039 0.36969 0.0
H1583 H 0.96926 0.06905 0.37998 0.0
C1584 C 0.839 0.1147 0.36107 0.0
C1585 C 0.82767 0.13888 0.36907 0.0
C1586 C 0.85847 0.09266 0.36684 0.0
C1587 C 0.86635 0.0942 0.38074 0.0
C1588 C 0.85253 0.11663 0.38897 0.0
C1589 C 0.83356 0.13896 0.38316 0.0
C1590 C 0.91774 0.04843 0.40455 0.0
C1591 C 0.94627 0.0518 0.39803 0.0
C1592 C 0.89117 0.06109 0.39871 0.0
C1593 C 0.89274 0.07647 0.38611 0.0
C1594 C 0.92106 0.07828 0.37931 0.0
C1595 C 0.94756 0.06635 0.38527 0.0
H1596 H 0.67861 0.16164 0.17566 0.0
H1597 H 0.69335 0.20488 0.13656 0.0
H1598 H 0.66076 0.11526 0.16421 0.0
H1599 H 0.67399 0.15944 0.12514 0.0
H1600 H 0.63601 0.07668 0.10555 0.0
H1601 H 0.67358 0.10744 0.11824 0.0
H1602 H 0.61416 0.10488 0.15358 0.0
H1603 H 0.57794 0.07359 0.1412 0.0
C1604 C 0.67838 0.16109 0.16462 0.0
C1605 C 0.68686 0.18709 0.15703 0.0
C1606 C 0.66801 0.13456 0.15803 0.0
C1607 C 0.66519 0.13371 0.14372 0.0
C1608 C 0.67597 0.15896 0.13614 0.0
C1609 C 0.68688 0.18525 0.14272 0.0
C1610 C 0.63168 0.0819 0.11618 0.0
C1611 C 0.60391 0.07317 0.12234 0.0
C1612 C 0.65299 0.09978 0.12342 0.0
C1613 C 0.64681 0.10917 0.13691 0.0
C1614 C 0.62012 0.09804 0.14331 0.0
C1615 C 0.59905 0.08025 0.13613 0.0
H1616 H 0.68988 0.15923 0.61964 0.0
H1617 H 0.66872 0.1151 0.65792 0.0
H1618 H 0.65985 0.12069 0.60753 0.0
H1619 H 0.63781 0.07678 0.6458 0.0
H1620 H 0.58384 0.00998 0.61862 0.0
H1621 H 0.63035 0.03478 0.6278 0.0
H1622 H 0.60321 0.12008 0.60875 0.0
H1623 H 0.55743 0.09565 0.59979 0.0
C1624 C 0.67949 0.14071 0.62542 0.0
C1625 C 0.68117 0.14031 0.6397 0.0
C1626 C 0.66224 0.11871 0.61849 0.0
C1627 C 0.64591 0.09616 0.62575 0.0
C1628 C 0.65019 0.09385 0.63994 0.0
C1629 C 0.66785 0.11578 0.64688 0.0
C1630 C 0.58838 0.03383 0.61619 0.0
C1631 C 0.56709 0.05099 0.60857 0.0
C1632 C 0.6148 0.04801 0.62148 0.0
C1633 C 0.62051 0.07931 0.61894 0.0
C1634 C 0.59983 0.09583 0.61072 0.0
C1635 C 0.57342 0.0819 0.60567 0.0
H1636 H 0.68261 0.84699 0.33366 0.0
H1637 H 0.69875 0.80168 0.37223 0.0
H1638 H 0.66248 0.89161 0.3457 0.0
H1639 H 0.67767 0.84563 0.38419 0.0
H1640 H 0.63729 0.92729 0.40426 0.0
H1641 H 0.6759 0.89875 0.39119 0.0
H1642 H 0.61392 0.89595 0.35674 0.0
H1643 H 0.57622 0.92471 0.36956 0.0
C1644 C 0.68242 0.84675 0.3447 0.0
C1645 C 0.69162 0.8205 0.35196 0.0
C1646 C 0.67077 0.87229 0.35161 0.0
C1647 C 0.6678 0.87196 0.3659 0.0
C1648 C 0.6797 0.84682 0.37319 0.0
C1649 C 0.6916 0.82142 0.3663 0.0
C1650 C 0.63243 0.92125 0.39376 0.0
C1651 C 0.60366 0.92781 0.38797 0.0
C1652 C 0.65441 0.90477 0.38631 0.0
C1653 C 0.64796 0.89481 0.37294 0.0
C1654 C 0.61997 0.90348 0.36691 0.0
C1655 C 0.59812 0.91975 0.37434 0.0
H1656 H 0.82111 0.82846 0.1162 0.0
H1657 H 0.82642 0.88503 0.15224 0.0
H1658 H 0.85529 0.86294 0.10431 0.0
H1659 H 0.86003 0.92093 0.14006 0.0
H1660 H 0.95931 0.93563 0.12313 0.0
H1661 H 0.91223 0.91799 0.13383 0.0
H1662 H 0.86998 0.90868 0.09411 0.0
H1663 H 0.91793 0.92472 0.0834 0.0
C1664 C 0.82881 0.84898 0.12143 0.0
C1665 C 0.82154 0.8538 0.13521 0.0
C1666 C 0.84833 0.86904 0.11455 0.0
C1667 C 0.861 0.89463 0.12125 0.0
C1668 C 0.85128 0.90107 0.13467 0.0
C1669 C 0.8317 0.88077 0.14161 0.0
C1670 C 0.9398 0.93028 0.11669 0.0
C1671 C 0.94251 0.93094 0.10241 0.0
C1672 C 0.91258 0.92041 0.12284 0.0
C1673 C 0.88723 0.91141 0.11487 0.0
C1674 C 0.88924 0.9146 0.10059 0.0
C1675 C 0.91669 0.9239 0.09443 0.0
H1676 H 0.86257 0.08524 0.91019 0.0
H1677 H 0.9036 0.0714 0.8706 0.0
H1678 H 0.82358 0.11853 0.89984 0.0
H1679 H 0.86443 0.10413 0.86026 0.0
H1680 H 0.78235 0.16136 0.84549 0.0
H1681 H 0.805 0.1155 0.85625 0.0
H1682 H 0.83887 0.17172 0.88924 0.0
H1683 H 0.81718 0.21714 0.87844 0.0
C1684 C 0.86248 0.08828 0.89922 0.0
C1685 C 0.88616 0.07603 0.89119 0.0
C1686 C 0.8403 0.10741 0.89332 0.0
C1687 C 0.84117 0.11401 0.87928 0.0
C1688 C 0.86308 0.09926 0.87108 0.0
C1689 C 0.88557 0.08066 0.87701 0.0
C1690 C 0.79424 0.16367 0.85514 0.0
C1691 C 0.79833 0.19272 0.86108 0.0
C1692 C 0.80713 0.13754 0.86128 0.0
C1693 C 0.82342 0.1401 0.87362 0.0
C1694 C 0.82604 0.16899 0.87985 0.0
C1695 C 0.81391 0.19503 0.87358 0.0
H1696 H 0.94051 0.53402 0.61624 0.0
H1697 H 0.92089 0.60285 0.58573 0.0
H1698 H 0.89487 0.54949 0.62893 0.0
H1699 H 0.8765 0.61932 0.59858 0.0
H1700 H 0.79768 0.64936 0.6212 0.0
H1701 H 0.82769 0.61372 0.60743 0.0
H1702 H 0.88215 0.59083 0.64295 0.0
H1703 H 0.85049 0.62484 0.65675 0.0
C1704 C 0.92621 0.55218 0.61215 0.0
C1705 C 0.93449 0.56742 0.60005 0.0
C1706 C 0.90013 0.56121 0.61947 0.0
C1707 C 0.882 0.58598 0.61495 0.0
C1708 C 0.88938 0.59985 0.60238 0.0
C1709 C 0.91513 0.59052 0.59498 0.0
C1710 C 0.81522 0.63556 0.62611 0.0
C1711 C 0.82188 0.63964 0.63997 0.0
C1712 C 0.83277 0.61549 0.61821 0.0
C1713 C 0.8581 0.60001 0.62392 0.0
C1714 C 0.86283 0.6021 0.63813 0.0
C1715 C 0.84466 0.62159 0.6461 0.0
H1716 H 0.62402 0.60137 0.90818 0.0
H1717 H 0.59954 0.54892 0.87257 0.0
H1718 H 0.65908 0.63236 0.89454 0.0
H1719 H 0.63623 0.57816 0.85896 0.0
H1720 H 0.65176 0.67012 0.83693 0.0
H1721 H 0.63298 0.62672 0.84983 0.0
H1722 H 0.70142 0.64376 0.88095 0.0
H1723 H 0.71916 0.68853 0.86821 0.0
C1724 C 0.62742 0.59553 0.89754 0.0
C1725 C 0.60923 0.57298 0.89135 0.0
C1726 C 0.64753 0.61328 0.88967 0.0
C1727 C 0.6501 0.60835 0.87549 0.0
C1728 C 0.63417 0.58338 0.86971 0.0
C1729 C 0.61348 0.56628 0.87751 0.0
C1730 C 0.66329 0.66425 0.84637 0.0
C1731 C 0.68669 0.68302 0.85162 0.0
C1732 C 0.65262 0.63907 0.8538 0.0
C1733 C 0.66541 0.63163 0.86659 0.0
C1734 C 0.69048 0.6491 0.87132 0.0
C1735 C 0.70084 0.67466 0.86397 0.0
H1736 H 0.67189 0.3239 0.12146 0.0
H1737 H 0.66696 0.38047 0.15753 0.0
H1738 H 0.63943 0.36018 0.10927 0.0
H1739 H 0.6335 0.41658 0.14539 0.0
H1740 H 0.57956 0.4815 0.11705 0.0
H1741 H 0.62435 0.45377 0.12615 0.0
H1742 H 0.58479 0.36814 0.11242 0.0
H1743 H 0.54098 0.39548 0.10332 0.0
C1744 C 0.66418 0.34437 0.12673 0.0
C1745 C 0.6715 0.34916 0.1405 0.0
C1746 C 0.64553 0.36511 0.11975 0.0
C1747 C 0.63337 0.39092 0.12644 0.0
C1748 C 0.64258 0.39696 0.13994 0.0
C1749 C 0.66162 0.37625 0.14691 0.0
C1750 C 0.58087 0.45683 0.1158 0.0
C1751 C 0.55672 0.44064 0.10955 0.0
C1752 C 0.60634 0.44096 0.12107 0.0
C1753 C 0.60818 0.40877 0.11997 0.0
C1754 C 0.58443 0.39295 0.11327 0.0
C1755 C 0.55909 0.40863 0.10816 0.0
H1756 H 0.7627 0.32709 0.36755 0.0
H1757 H 0.85151 0.29678 0.35328 0.0
H1758 H 0.78643 0.37438 0.3765 0.0
H1759 H 0.87482 0.34358 0.36192 0.0
H1760 H 0.90915 0.43527 0.36875 0.0
H1761 H 0.87245 0.40153 0.35746 0.0
H1762 H 0.82829 0.3837 0.39607 0.0
H1763 H 0.86512 0.41793 0.40743 0.0
C1764 C 0.7871 0.33081 0.36613 0.0
C1765 C 0.80534 0.30834 0.35978 0.0
C1766 C 0.80063 0.35769 0.37128 0.0
C1767 C 0.83237 0.3627 0.3698 0.0
C1768 C 0.85022 0.34057 0.36304 0.0
C1769 C 0.83692 0.31366 0.35818 0.0
C1770 C 0.89096 0.42499 0.37476 0.0
C1771 C 0.89017 0.42879 0.38897 0.0
C1772 C 0.87001 0.40566 0.3683 0.0
C1773 C 0.84797 0.38959 0.37594 0.0
C1774 C 0.84505 0.3959 0.38995 0.0
C1775 C 0.86607 0.41548 0.39644 0.0
H1776 H 0.83011 0.38679 0.85144 0.0
H1777 H 0.81465 0.34001 0.88965 0.0
H1778 H 0.86382 0.42358 0.86308 0.0
H1779 H 0.84782 0.37674 0.90123 0.0
H1780 H 0.95151 0.40098 0.90599 0.0
H1781 H 0.90527 0.37673 0.89725 0.0
H1782 H 0.87287 0.46441 0.88249 0.0
H1783 H 0.91964 0.48906 0.89149 0.0
C1784 C 0.83288 0.38516 0.86239 0.0
C1785 C 0.82021 0.36035 0.86963 0.0
C1786 C 0.85218 0.40618 0.86905 0.0
C1787 C 0.85887 0.40259 0.883 0.0
C1788 C 0.84347 0.37971 0.89043 0.0
C1789 C 0.82442 0.35875 0.8838 0.0
C1790 C 0.93439 0.41521 0.90104 0.0
C1791 C 0.93916 0.44687 0.89939 0.0
C1792 C 0.90777 0.40137 0.89612 0.0
C1793 C 0.88536 0.41873 0.88927 0.0
C1794 C 0.88978 0.45055 0.88777 0.0
C1795 C 0.91637 0.46461 0.89296 0.0
H1796 H 0.86431 0.5832 0.10061 0.0
H1797 H 0.91195 0.5676 0.1386 0.0
H1798 H 0.82629 0.61471 0.1126 0.0
H1799 H 0.87382 0.59834 0.15058 0.0
H1800 H 0.84575 0.70045 0.15657 0.0
H1801 H 0.87129 0.65498 0.14796 0.0
H1802 H 0.78538 0.62225 0.13131 0.0
H1803 H 0.75944 0.66841 0.14012 0.0
C1804 C 0.86592 0.5855 0.11159 0.0
C1805 C 0.89128 0.57351 0.11867 0.0
C1806 C 0.84416 0.60347 0.11846 0.0
C1807 C 0.84748 0.60945 0.13248 0.0
C1808 C 0.87103 0.5946 0.13973 0.0
C1809 C 0.89281 0.57697 0.13288 0.0
C1810 C 0.83213 0.68334 0.15128 0.0
C1811 C 0.80066 0.68795 0.14897 0.0
C1812 C 0.84672 0.65712 0.14643 0.0
C1813 C 0.8303 0.63493 0.13901 0.0
C1814 C 0.79854 0.639 0.13701 0.0
C1815 C 0.78372 0.66523 0.1421 0.0
H1816 H 0.54048 0.60861 0.40659 0.0
H1817 H 0.58174 0.52363 0.39321 0.0
H1818 H 0.58278 0.6373 0.39686 0.0
H1819 H 0.62499 0.55274 0.38347 0.0
H1820 H 0.66428 0.62599 0.35131 0.0
H1821 H 0.63181 0.5896 0.36383 0.0
H1822 H 0.63735 0.64734 0.39955 0.0
H1823 H 0.66893 0.6838 0.38701 0.0
C1824 C 0.55887 0.596 0.40169 0.0
C1825 C 0.5577 0.56387 0.40058 0.0
C1826 C 0.58334 0.61247 0.39621 0.0
C1827 C 0.60735 0.59732 0.38942 0.0
C1828 C 0.60673 0.56503 0.3886 0.0
C1829 C 0.58217 0.54839 0.39426 0.0
C1830 C 0.65902 0.63051 0.36192 0.0
C1831 C 0.66866 0.65795 0.36813 0.0
C1832 C 0.64055 0.60963 0.3691 0.0
C1833 C 0.63162 0.61585 0.38261 0.0
C1834 C 0.64329 0.6422 0.38906 0.0
C1835 C 0.66144 0.66307 0.38189 0.0
H1836 H 0.71594 0.34057 0.66418 0.0
H1837 H 0.67854 0.28593 0.63139 0.0
H1838 H 0.69572 0.38725 0.65323 0.0
H1839 H 0.65915 0.33215 0.62043 0.0
H1840 H 0.63899 0.41836 0.59905 0.0
H1841 H 0.67675 0.38387 0.60953 0.0
H1842 H 0.63775 0.4022 0.64916 0.0
H1843 H 0.59984 0.43612 0.63868 0.0
C1844 C 0.70391 0.33863 0.65455 0.0
C1845 C 0.69846 0.30968 0.64871 0.0
C1846 C 0.69244 0.36525 0.64829 0.0
C1847 C 0.67617 0.36329 0.63592 0.0
C1848 C 0.67204 0.33442 0.62983 0.0
C1849 C 0.68281 0.30792 0.63621 0.0
C1850 C 0.6394 0.41602 0.61005 0.0
C1851 C 0.6165 0.42966 0.61807 0.0
C1852 C 0.66082 0.39615 0.61603 0.0
C1853 C 0.65992 0.39019 0.63013 0.0
C1854 C 0.63909 0.4065 0.63829 0.0
C1855 C 0.61736 0.42585 0.63229 0.0
H1856 H 0.08915 0.46822 0.4121 0.0
H1857 H 0.03463 0.43347 0.37871 0.0
H1858 H 0.13534 0.44498 0.4019 0.0
H1859 H 0.08045 0.41126 0.36842 0.0
H1860 H 0.16874 0.38761 0.34856 0.0
H1861 H 0.13495 0.42665 0.35849 0.0
H1862 H 0.14548 0.38468 0.3981 0.0
H1863 H 0.17868 0.34539 0.38817 0.0
C1864 C 0.08723 0.45626 0.40246 0.0
C1865 C 0.05844 0.45234 0.39623 0.0
C1866 C 0.11353 0.44304 0.39664 0.0
C1867 C 0.1114 0.4266 0.38433 0.0
C1868 C 0.08281 0.42419 0.3778 0.0
C1869 C 0.05657 0.43664 0.38376 0.0
C1870 C 0.16468 0.3874 0.35946 0.0
C1871 C 0.17601 0.36341 0.3676 0.0
C1872 C 0.1453 0.40963 0.36512 0.0
C1873 C 0.13757 0.40851 0.37903 0.0
C1874 C 0.15129 0.3862 0.38738 0.0
C1875 C 0.17012 0.36364 0.38168 0.0
H1876 H 0.36274 0.41612 0.10007 0.0
H1877 H 0.40747 0.42879 0.13895 0.0
H1878 H 0.32446 0.38288 0.11095 0.0
H1879 H 0.36905 0.39608 0.14983 0.0
H1880 H 0.28922 0.33799 0.16583 0.0
H1881 H 0.31039 0.38435 0.15492 0.0
H1882 H 0.34078 0.32948 0.12084 0.0
H1883 H 0.32053 0.28357 0.13177 0.0
C1884 C 0.36361 0.41285 0.11101 0.0
C1885 C 0.38814 0.42466 0.11867 0.0
C1886 C 0.34184 0.39376 0.11722 0.0
C1887 C 0.34402 0.38678 0.13119 0.0
C1888 C 0.36672 0.40124 0.13907 0.0
C1889 C 0.38878 0.41981 0.13283 0.0
C1890 C 0.30004 0.33609 0.15593 0.0
C1891 C 0.30361 0.30727 0.1497 0.0
C1892 C 0.31205 0.3625 0.1497 0.0
C1893 C 0.32692 0.36045 0.137 0.0
C1894 C 0.329 0.33181 0.13052 0.0
C1895 C 0.31774 0.30548 0.13686 0.0
H1896 H 0.31361 0.65563 0.88931 0.0
H1897 H 0.33475 0.61233 0.85086 0.0
H1898 H 0.346 0.61861 0.90115 0.0
H1899 H 0.36771 0.57526 0.86277 0.0
H1900 H 0.42266 0.50975 0.89147 0.0
H1901 H 0.37576 0.53324 0.88201 0.0
H1902 H 0.40402 0.62115 0.8981 0.0
H1903 H 0.45044 0.59806 0.90726 0.0
C1904 C 0.32441 0.63751 0.88345 0.0
C1905 C 0.32211 0.63702 0.86918 0.0
C1906 C 0.34299 0.61639 0.89022 0.0
C1907 C 0.35982 0.59452 0.88284 0.0
C1908 C 0.35491 0.59188 0.8687 0.0
C1909 C 0.33605 0.61304 0.86189 0.0
C1910 C 0.41842 0.53397 0.89314 0.0
C1911 C 0.44011 0.55216 0.90005 0.0
C1912 C 0.39177 0.54737 0.88769 0.0
C1913 C 0.38618 0.57892 0.88942 0.0
C1914 C 0.40744 0.59668 0.89678 0.0
C1915 C 0.43415 0.58352 0.90195 0.0
H1916 H 0.16681 0.66984 0.67455 0.0
H1917 H 0.19497 0.70863 0.63596 0.0
H1918 H 0.14391 0.6264 0.66263 0.0
H1919 H 0.17117 0.66584 0.62404 0.0
H1920 H 0.06236 0.59262 0.63653 0.0
H1921 H 0.09785 0.6237 0.64956 0.0
H1922 H 0.16688 0.61199 0.61831 0.0
H1923 H 0.13058 0.58112 0.60496 0.0
C1924 C 0.16855 0.66887 0.66354 0.0
C1925 C 0.18228 0.69295 0.65621 0.0
C1926 C 0.15527 0.64404 0.6567 0.0
C1927 C 0.15513 0.6429 0.64235 0.0
C1928 C 0.17095 0.66582 0.63508 0.0
C1929 C 0.18448 0.69051 0.64194 0.0
C1930 C 0.08524 0.59626 0.63248 0.0
C1931 C 0.09357 0.58465 0.61965 0.0
C1932 C 0.10578 0.6139 0.64005 0.0
C1933 C 0.13531 0.62041 0.63502 0.0
C1934 C 0.1442 0.60765 0.62242 0.0
C1935 C 0.12351 0.58984 0.61481 0.0
H1936 H 0.16633 0.61279 0.15923 0.0
H1937 H 0.18254 0.65368 0.11976 0.0
H1938 H 0.13301 0.57429 0.14861 0.0
H1939 H 0.14963 0.61506 0.10916 0.0
H1940 H 0.03497 0.56986 0.12697 0.0
H1941 H 0.08071 0.59033 0.13795 0.0
H1942 H 0.13657 0.55662 0.10481 0.0
H1943 H 0.09032 0.53524 0.09385 0.0
C1944 C 0.1638 0.61277 0.14824 0.0
C1945 C 0.17666 0.63636 0.14032 0.0
C1946 C 0.14465 0.59086 0.14217 0.0
C1947 C 0.13857 0.59193 0.12809 0.0
C1948 C 0.15406 0.61358 0.12002 0.0
C1949 C 0.17276 0.63577 0.1261 0.0
C1950 C 0.05706 0.56638 0.12211 0.0
C1951 C 0.05915 0.55124 0.10951 0.0
C1952 C 0.08328 0.57779 0.12848 0.0
C1953 C 0.11219 0.57486 0.12228 0.0
C1954 C 0.11452 0.55899 0.10982 0.0
C1955 C 0.08818 0.54684 0.10357 0.0
H1956 H 0.13303 0.41855 0.90948 0.0
H1957 H 0.09095 0.42958 0.86992 0.0
H1958 H 0.17197 0.38482 0.89942 0.0
H1959 H 0.13008 0.39643 0.85985 0.0
H1960 H 0.21265 0.34004 0.84529 0.0
H1961 H 0.18939 0.38594 0.85569 0.0
H1962 H 0.15775 0.33077 0.88948 0.0
H1963 H 0.1801 0.28523 0.87903 0.0
C1964 C 0.13286 0.41477 0.89857 0.0
C1965 C 0.10893 0.42643 0.89048 0.0
C1966 C 0.155 0.39538 0.89283 0.0
C1967 C 0.15388 0.38792 0.87888 0.0
C1968 C 0.13163 0.40197 0.8706 0.0
C1969 C 0.10918 0.42082 0.87637 0.0
C1970 C 0.20116 0.33798 0.85505 0.0
C1971 C 0.19789 0.30915 0.86132 0.0
C1972 C 0.18789 0.36413 0.86097 0.0
C1973 C 0.17201 0.36188 0.87343 0.0
C1974 C 0.17024 0.33327 0.87999 0.0
C1975 C 0.18276 0.30717 0.87394 0.0
H1976 H 0.42241 0.48188 0.61563 0.0
H1977 H 0.46361 0.39518 0.60454 0.0
H1978 H 0.37754 0.4543 0.62479 0.0
H1979 H 0.41951 0.36803 0.61361 0.0
H1980 H 0.33087 0.32459 0.62101 0.0
H1981 H 0.36418 0.36046 0.60904 0.0
H1982 H 0.36853 0.41758 0.64497 0.0
H1983 H 0.33444 0.3817 0.65697 0.0
C1984 C 0.42166 0.45706 0.61497 0.0
C1985 C 0.4465 0.44065 0.60943 0.0
C1986 C 0.39616 0.44132 0.62028 0.0
C1987 C 0.39496 0.40905 0.61985 0.0
C1988 C 0.41948 0.39291 0.61391 0.0
C1989 C 0.44491 0.40848 0.60882 0.0
C1990 C 0.3384 0.34511 0.62629 0.0
C1991 C 0.33053 0.35012 0.63999 0.0
C1992 C 0.35751 0.36563 0.61943 0.0
C1993 C 0.36941 0.3915 0.62615 0.0
C1994 C 0.35962 0.39785 0.63953 0.0
C1995 C 0.34022 0.37729 0.64641 0.0
H1996 H 0.29349 0.69218 0.37345 0.0
H1997 H 0.30646 0.64547 0.33501 0.0
H1998 H 0.31382 0.64812 0.38546 0.0
H1999 H 0.32561 0.60049 0.34715 0.0
H2000 H 0.41441 0.56945 0.36992 0.0
H2001 H 0.37442 0.59514 0.35723 0.0
H2002 H 0.3171 0.59648 0.39326 0.0
H2003 H 0.35822 0.57127 0.40617 0.0
C2004 C 0.2997 0.67208 0.36756 0.0
C2005 C 0.29925 0.67272 0.35322 0.0
C2006 C 0.31115 0.64654 0.3745 0.0
C2007 C 0.32211 0.62091 0.36727 0.0
C2008 C 0.3182 0.6202 0.35302 0.0
C2009 C 0.30709 0.64595 0.34605 0.0
C2010 C 0.393 0.57457 0.37508 0.0
C2011 C 0.38965 0.56901 0.38909 0.0
C2012 C 0.36978 0.58906 0.36774 0.0
C2013 C 0.34254 0.59836 0.37423 0.0
C2014 C 0.33802 0.59012 0.38799 0.0
C2015 C 0.36143 0.5755 0.39538 0.0
H2016 H 0.06131 0.06781 0.14038 0.0
H2017 H 0.10476 0.05933 0.10095 0.0
H2018 H 0.09791 0.10756 0.14665 0.0
H2019 H 0.14225 0.09819 0.10747 0.0
H2020 H 0.18667 0.18919 0.11829 0.0
H2021 H 0.14711 0.15243 0.11204 0.0
H2022 H 0.15172 0.11262 0.15236 0.0
H2023 H 0.19044 0.15038 0.15882 0.0
C2024 C 0.0785 0.0745 0.13299 0.0
C2025 C 0.07998 0.06027 0.12012 0.0
C2026 C 0.09979 0.09707 0.13668 0.0
C2027 C 0.12313 0.10601 0.1276 0.0
C2028 C 0.1244 0.09208 0.11467 0.0
C2029 C 0.10309 0.06952 0.11098 0.0
C2030 C 0.17897 0.173 0.12593 0.0
C2031 C 0.19184 0.17285 0.1391 0.0
C2032 C 0.15651 0.15159 0.12227 0.0
C2033 C 0.14632 0.12944 0.13166 0.0
C2034 C 0.15883 0.12953 0.14489 0.0
C2035 C 0.18129 0.15098 0.14857 0.0
H2036 H 0.22069 0.86517 0.36235 0.0
H2037 H 0.1571 0.79527 0.37581 0.0
H2038 H 0.1834 0.90478 0.36829 0.0
H2039 H 0.12043 0.83478 0.38227 0.0
H2040 H 0.04986 0.91185 0.38004 0.0
H2041 H 0.08639 0.87273 0.37285 0.0
H2042 H 0.16107 0.92776 0.38854 0.0
H2043 H 0.12468 0.96744 0.39519 0.0
C2044 C 0.19871 0.85821 0.36648 0.0
C2045 C 0.19197 0.827 0.36864 0.0
C2046 C 0.17748 0.88094 0.37006 0.0
C2047 C 0.14898 0.87299 0.37586 0.0
C2048 C 0.14203 0.84175 0.37774 0.0
C2049 C 0.16322 0.81908 0.37417 0.0
C2050 C 0.07408 0.91568 0.38189 0.0
C2051 C 0.08424 0.94283 0.38821 0.0
C2052 C 0.09502 0.89312 0.37787 0.0
C2053 C 0.1267 0.8971 0.38009 0.0
C2054 C 0.13687 0.92412 0.38652 0.0
C2055 C 0.11591 0.94671 0.39053 0.0
H2056 H 0.28439 0.87414 0.64493 0.0
H2057 H 0.34606 0.80001 0.63468 0.0
H2058 H 0.3237 0.91133 0.63858 0.0
H2059 H 0.38517 0.83729 0.62794 0.0
H2060 H 0.45771 0.9148 0.63122 0.0
H2061 H 0.41943 0.87647 0.63778 0.0
H2062 H 0.34886 0.92969 0.61775 0.0
H2063 H 0.38685 0.9683 0.61156 0.0
C2064 C 0.30641 0.86574 0.64143 0.0
C2065 C 0.31207 0.83405 0.64034 0.0
C2066 C 0.32883 0.88709 0.63761 0.0
C2067 C 0.35751 0.87729 0.63266 0.0
C2068 C 0.36338 0.8456 0.63178 0.0
C2069 C 0.34088 0.82424 0.63553 0.0
C2070 C 0.43402 0.91827 0.62823 0.0
C2071 C 0.42541 0.94461 0.62086 0.0
C2072 C 0.41213 0.89622 0.6319 0.0
C2073 C 0.38106 0.9001 0.62835 0.0
C2074 C 0.37254 0.9262 0.62079 0.0
C2075 C 0.39443 0.94815 0.61707 0.0
H2076 H 0.3403 0.20354 0.87755 0.0
H2077 H 0.28184 0.1308 0.86259 0.0
H2078 H 0.37835 0.16551 0.88464 0.0
H2079 H 0.32018 0.09303 0.86921 0.0
H2080 H 0.37785 0.03194 0.89674 0.0
H2081 H 0.34096 0.0712 0.89012 0.0
H2082 H 0.41505 0.12837 0.87544 0.0
H2083 H 0.45212 0.08944 0.88252 0.0
C2084 C 0.33566 0.17949 0.8757 0.0
C2085 C 0.308 0.17031 0.86949 0.0
C2086 C 0.35756 0.1577 0.87966 0.0
C2087 C 0.35225 0.1262 0.87756 0.0
C2088 C 0.32482 0.11707 0.87115 0.0
C2089 C 0.30299 0.13883 0.86716 0.0
C2090 C 0.38638 0.05304 0.89231 0.0
C2091 C 0.41802 0.05749 0.89017 0.0
C2092 C 0.36515 0.07541 0.88833 0.0
C2093 C 0.37501 0.10284 0.88214 0.0
C2094 C 0.40668 0.10758 0.88025 0.0
C2095 C 0.42792 0.08515 0.88419 0.0
H2096 H 0.87977 0.96537 0.89843 0.0
H2097 H 0.95213 0.91503 0.87828 0.0
H2098 H 0.84328 0.9251 0.89255 0.0
H2099 H 0.91533 0.87498 0.87205 0.0
H2100 H 0.84502 0.79563 0.87545 0.0
H2101 H 0.88278 0.83432 0.8822 0.0
H2102 H 0.81855 0.90609 0.87165 0.0
H2103 H 0.78065 0.86753 0.86526 0.0
C2104 C 0.88801 0.94555 0.89289 0.0
C2105 C 0.91894 0.9434 0.88885 0.0
C2106 C 0.86697 0.92263 0.88936 0.0
C2107 C 0.87635 0.89694 0.88175 0.0
C2108 C 0.90741 0.8944 0.87798 0.0
C2109 C 0.92843 0.91743 0.88146 0.0
C2110 C 0.83896 0.81967 0.87462 0.0
C2111 C 0.80981 0.82846 0.86981 0.0
C2112 C 0.86067 0.84183 0.87839 0.0
C2113 C 0.85361 0.87328 0.87752 0.0
C2114 C 0.82457 0.88205 0.8726 0.0
C2115 C 0.80297 0.85992 0.86876 0.0
H2116 H 0.94026 0.06912 0.63964 0.0
H2117 H 0.897 0.0609 0.60014 0.0
H2118 H 0.90378 0.10896 0.64588 0.0
H2119 H 0.85964 0.09986 0.60663 0.0
H2120 H 0.8154 0.19098 0.61745 0.0
H2121 H 0.85478 0.15405 0.61122 0.0
H2122 H 0.85002 0.11433 0.65154 0.0
H2123 H 0.81146 0.15224 0.65798 0.0
C2124 C 0.92313 0.07588 0.63223 0.0
C2125 C 0.92169 0.06168 0.61935 0.0
C2126 C 0.9019 0.0985 0.6359 0.0
C2127 C 0.87865 0.10757 0.6268 0.0
C2128 C 0.87742 0.09368 0.61386 0.0
C2129 C 0.89866 0.07105 0.61018 0.0
C2130 C 0.82302 0.17476 0.62509 0.0
C2131 C 0.81015 0.1747 0.63826 0.0
C2132 C 0.84538 0.15325 0.62143 0.0
C2133 C 0.85551 0.13108 0.63084 0.0
C2134 C 0.84298 0.13125 0.64407 0.0
C2135 C 0.82061 0.15279 0.64773 0.0
H2136 H 0.55945 0.07044 0.36874 0.0
H2137 H 0.60089 0.06 0.40852 0.0
H2138 H 0.59735 0.10945 0.36299 0.0
H2139 H 0.63967 0.09772 0.40251 0.0
H2140 H 0.68839 0.18621 0.39323 0.0
H2141 H 0.64723 0.15091 0.39858 0.0
H2142 H 0.65089 0.11481 0.35759 0.0
H2143 H 0.69118 0.15153 0.35194 0.0
C2144 C 0.57646 0.0765 0.37631 0.0
C2145 C 0.57698 0.06187 0.38912 0.0
C2146 C 0.59853 0.09864 0.37292 0.0
C2147 C 0.62174 0.10673 0.38224 0.0
C2148 C 0.62199 0.09241 0.39511 0.0
C2149 C 0.59988 0.0704 0.39851 0.0
C2150 C 0.68027 0.17123 0.38522 0.0
C2151 C 0.69343 0.17192 0.3721 0.0
C2152 C 0.65678 0.15055 0.38838 0.0
C2153 C 0.64581 0.12973 0.37858 0.0
C2154 C 0.65855 0.13066 0.36539 0.0
C2155 C 0.682 0.15152 0.36219 0.0
H2156 H 0.67808 0.83474 0.15723 0.0
H2157 H 0.69181 0.81982 0.11414 0.0
H2158 H 0.63838 0.87292 0.15204 0.0
H2159 H 0.65208 0.85746 0.10899 0.0
H2160 H 0.6106 0.95497 0.10652 0.0
H2161 H 0.64708 0.91438 0.11141 0.0
H2162 H 0.58532 0.87662 0.14147 0.0
H2163 H 0.54811 0.91686 0.13639 0.0
C2164 C 0.6725 0.8395 0.14667 0.0
C2165 C 0.68804 0.82418 0.13612 0.0
C2166 C 0.64965 0.86115 0.1437 0.0
C2167 C 0.64216 0.86821 0.1301 0.0
C2168 C 0.65749 0.85268 0.11956 0.0
C2169 C 0.68005 0.83085 0.12253 0.0
C2170 C 0.60428 0.93789 0.11401 0.0
C2171 C 0.57612 0.93954 0.12106 0.0
C2172 C 0.62541 0.91457 0.11685 0.0
C2173 C 0.61913 0.89236 0.12686 0.0
C2174 C 0.59097 0.89367 0.13382 0.0
C2175 C 0.56965 0.91683 0.1309 0.0
H2176 H 0.57357 0.55238 0.64511 0.0
H2177 H 0.58801 0.57169 0.60242 0.0
H2178 H 0.61026 0.59252 0.65118 0.0
H2179 H 0.62503 0.61183 0.60849 0.0
H2180 H 0.66612 0.70116 0.62602 0.0
H2181 H 0.62663 0.66371 0.62048 0.0
H2182 H 0.66757 0.5992 0.64849 0.0
H2183 H 0.70753 0.63592 0.65387 0.0
C2184 C 0.58428 0.56547 0.63702 0.0
C2185 C 0.57785 0.55895 0.62327 0.0
C2186 C 0.60552 0.58825 0.6405 0.0
C2187 C 0.62054 0.60526 0.63031 0.0
C2188 C 0.61363 0.59923 0.61656 0.0
C2189 C 0.59265 0.57616 0.61308 0.0
C2190 C 0.66709 0.679 0.63097 0.0
C2191 C 0.69068 0.67183 0.64031 0.0
C2192 C 0.64427 0.65753 0.62778 0.0
C2193 C 0.6441 0.6285 0.634 0.0
C2194 C 0.66698 0.62152 0.64361 0.0
C2195 C 0.69001 0.6428 0.64669 0.0
H2196 H 0.67964 0.34167 0.84933 0.0
H2197 H 0.69083 0.32077 0.89208 0.0
H2198 H 0.64044 0.37999 0.85509 0.0
H2199 H 0.65172 0.35865 0.8978 0.0
H2200 H 0.61287 0.45674 0.90213 0.0
H2201 H 0.64889 0.41654 0.89631 0.0
H2202 H 0.58644 0.38242 0.8657 0.0
H2203 H 0.54954 0.42219 0.87171 0.0
C2204 C 0.67361 0.34518 0.85992 0.0
C2205 C 0.68821 0.32816 0.87023 0.0
C2206 C 0.65108 0.3669 0.86321 0.0
C2207 C 0.64311 0.3723 0.8769 0.0
C2208 C 0.65755 0.3551 0.88718 0.0
C2209 C 0.67973 0.33318 0.88388 0.0
C2210 C 0.60627 0.44064 0.89429 0.0
C2211 C 0.57795 0.44316 0.88741 0.0
C2212 C 0.62716 0.41752 0.89094 0.0
C2213 C 0.62051 0.39642 0.88053 0.0
C2214 C 0.59231 0.39865 0.87366 0.0
C2215 C 0.57118 0.42157 0.87712 0.0
H2216 H 0.89997 0.44127 0.09982 0.0
H2217 H 0.93734 0.43814 0.14063 0.0
H2218 H 0.86156 0.4031 0.10625 0.0
H2219 H 0.90002 0.39918 0.14683 0.0
H2220 H 0.80783 0.35586 0.15779 0.0
H2221 H 0.84569 0.39425 0.15112 0.0
H2222 H 0.85646 0.34937 0.11214 0.0
H2223 H 0.8177 0.31184 0.11856 0.0
C2224 C 0.90011 0.43241 0.11013 0.0
C2225 C 0.92184 0.4429 0.11967 0.0
C2226 C 0.87827 0.41028 0.11379 0.0
C2227 C 0.87765 0.3981 0.12708 0.0
C2228 C 0.89956 0.40835 0.13657 0.0
C2229 C 0.92133 0.43045 0.13292 0.0
C2230 C 0.81806 0.3543 0.14776 0.0
C2231 C 0.80965 0.33065 0.13874 0.0
C2232 C 0.84005 0.37614 0.14398 0.0
C2233 C 0.8542 0.37488 0.13109 0.0
C2234 C 0.84582 0.35123 0.12209 0.0
C2235 C 0.82384 0.32941 0.12586 0.0
H2236 H 0.78867 0.63558 0.3547 0.0
H2237 H 0.83496 0.70091 0.3809 0.0
H2238 H 0.82708 0.59714 0.3605 0.0
H2239 H 0.87242 0.66201 0.38693 0.0
H2240 H 0.90946 0.57134 0.40616 0.0
H2241 H 0.87119 0.61025 0.39988 0.0
H2242 H 0.88547 0.58952 0.35731 0.0
H2243 H 0.92363 0.55085 0.36358 0.0
C2244 C 0.8069 0.64202 0.36162 0.0
C2245 C 0.80817 0.67163 0.36739 0.0
C2246 C 0.82892 0.61982 0.36496 0.0
C2247 C 0.8525 0.62654 0.37427 0.0
C2248 C 0.85414 0.65607 0.37991 0.0
C2249 C 0.83247 0.67839 0.37643 0.0
C2250 C 0.90434 0.57518 0.39549 0.0
C2251 C 0.91967 0.55832 0.38537 0.0
C2252 C 0.88263 0.59746 0.39189 0.0
C2253 C 0.87544 0.60288 0.37811 0.0
C2254 C 0.89048 0.58572 0.36801 0.0
C2255 C 0.91252 0.56383 0.37159 0.0
H2256 H 0.28651 0.37301 0.36249 0.0
H2257 H 0.34046 0.29977 0.38001 0.0
H2258 H 0.32631 0.40991 0.36869 0.0
H2259 H 0.38033 0.33686 0.38637 0.0
H2260 H 0.45692 0.41214 0.38222 0.0
H2261 H 0.41901 0.3733 0.37544 0.0
H2262 H 0.34619 0.43094 0.39085 0.0
H2263 H 0.38383 0.46962 0.39744 0.0
C2264 C 0.30707 0.36471 0.36749 0.0
C2265 C 0.31039 0.33344 0.37073 0.0
C2266 C 0.32971 0.38591 0.37119 0.0
C2267 C 0.35635 0.3763 0.3781 0.0
C2268 C 0.36011 0.34492 0.38101 0.0
C2269 C 0.33725 0.32374 0.37745 0.0
C2270 C 0.43281 0.41633 0.38419 0.0
C2271 C 0.42341 0.4438 0.39045 0.0
C2272 C 0.41116 0.39411 0.38038 0.0
C2273 C 0.37963 0.39917 0.38255 0.0
C2274 C 0.37029 0.42652 0.38892 0.0
C2275 C 0.39191 0.44851 0.39286 0.0
H2276 H 0.45371 0.58471 0.13128 0.0
H2277 H 0.38134 0.53321 0.11166 0.0
H2278 H 0.41633 0.62382 0.13808 0.0
H2279 H 0.34431 0.57241 0.11815 0.0
H2280 H 0.28162 0.62762 0.14595 0.0
H2281 H 0.32068 0.59024 0.13964 0.0
H2282 H 0.38189 0.66385 0.12804 0.0
H2283 H 0.34286 0.70143 0.13468 0.0
C2284 C 0.42989 0.58187 0.12835 0.0
C2285 C 0.42055 0.5559 0.12091 0.0
C2286 C 0.40855 0.60432 0.13216 0.0
C2287 C 0.37734 0.60108 0.12873 0.0
C2288 C 0.36812 0.57537 0.12109 0.0
C2289 C 0.38946 0.55309 0.11721 0.0
C2290 C 0.30355 0.63591 0.14229 0.0
C2291 C 0.30917 0.66755 0.14085 0.0
C2292 C 0.32581 0.61446 0.13849 0.0
C2293 C 0.35428 0.62409 0.13323 0.0
C2294 C 0.36022 0.65572 0.13211 0.0
C2295 C 0.33784 0.67722 0.13582 0.0
H2296 H 0.16608 0.69894 0.88354 0.0
H2297 H 0.20706 0.63332 0.85583 0.0
H2298 H 0.12595 0.66195 0.88892 0.0
H2299 H 0.1665 0.5971 0.861 0.0
H2300 H 0.07153 0.55205 0.86369 0.0
H2301 H 0.1091 0.59162 0.85795 0.0
H2302 H 0.12323 0.60977 0.90078 0.0
H2303 H 0.08535 0.57019 0.90653 0.0
C2304 C 0.16679 0.67679 0.87859 0.0
C2305 C 0.19038 0.66938 0.8693 0.0
C2306 C 0.14363 0.6556 0.88168 0.0
C2307 C 0.14314 0.62664 0.87541 0.0
C2308 C 0.16612 0.6194 0.8659 0.0
C2309 C 0.18948 0.64039 0.86292 0.0
C2310 C 0.08232 0.56475 0.87188 0.0
C2311 C 0.07544 0.55807 0.88558 0.0
C2312 C 0.10404 0.58721 0.86859 0.0
C2313 C 0.11912 0.60374 0.87891 0.0
C2314 C 0.1118 0.59754 0.89261 0.0
C2315 C 0.09033 0.57478 0.8959 0.0
H2316 H 0.1583 0.30025 0.63144 0.0
H2317 H 0.21739 0.37295 0.64596 0.0
H2318 H 0.12016 0.33812 0.62457 0.0
H2319 H 0.17871 0.41076 0.63959 0.0
H2320 H 0.11876 0.47164 0.61257 0.0
H2321 H 0.15654 0.43321 0.6192 0.0
H2322 H 0.08367 0.37435 0.63379 0.0
H2323 H 0.0458 0.41228 0.62665 0.0
C2324 C 0.16313 0.32429 0.63322 0.0
C2325 C 0.19103 0.33347 0.63922 0.0
C2326 C 0.1411 0.34602 0.6294 0.0
C2327 C 0.14637 0.37754 0.63148 0.0
C2328 C 0.17406 0.38672 0.63767 0.0
C2329 C 0.1961 0.36496 0.6415 0.0
C2330 C 0.1107 0.45035 0.617 0.0
C2331 C 0.07914 0.44511 0.61904 0.0
C2332 C 0.13244 0.42845 0.62099 0.0
C2333 C 0.12319 0.40073 0.62711 0.0
C2334 C 0.09162 0.39533 0.62901 0.0
C2335 C 0.06989 0.41723 0.62503 0.0
H2336 H 0.27418 0.28833 0.21834 0.0
H2337 H 0.25463 0.19196 0.22448 0.0
H2338 H 0.26779 0.29746 0.24254 0.0
H2339 H 0.24558 0.2016 0.24853 0.0
H2340 H 0.26236 0.22059 0.29336 0.0
H2341 H 0.27046 0.21184 0.26906 0.0
H2342 H 0.23312 0.30182 0.26034 0.0
H2343 H 0.22658 0.31086 0.28467 0.0
C2344 C 0.26835 0.26903 0.22481 0.0
C2345 C 0.26527 0.23929 0.21934 0.0
C2346 C 0.26418 0.2744 0.23874 0.0
C2347 C 0.25624 0.25031 0.24764 0.0
C2348 C 0.25229 0.22071 0.24212 0.0
C2349 C 0.25693 0.21525 0.2282 0.0
C2350 C 0.25616 0.23853 0.2862 0.0
C2351 C 0.24406 0.26647 0.29089 0.0
C2352 C 0.2605 0.23345 0.27224 0.0
C2353 C 0.2523 0.256 0.26259 0.0
C2354 C 0.24029 0.28405 0.26738 0.0
C2355 C 0.23645 0.28929 0.28135 0.0
H2356 H 0.01432 0.04044 0.54263 0.0
H2357 H 0.9586 0.96159 0.53246 0.0
H2358 H 0.02693 0.0472 0.51852 0.0
H2359 H 0.97055 0.9688 0.5084 0.0
H2360 H 0.02353 0.97162 0.46811 0.0
H2361 H 0.01418 0.96448 0.49252 0.0
H2362 H 0.0015 0.06229 0.49715 0.0
H2363 H 0.01151 0.06945 0.47291 0.0
C2364 C 0.00473 0.02459 0.53526 0.0
C2365 C 0.98531 0.00058 0.53949 0.0
C2366 C 0.01178 0.02858 0.52143 0.0
C2367 C 0.9998 0.00849 0.51152 0.0
C2368 C 0.98045 0.98447 0.51577 0.0
C2369 C 0.97325 0.98062 0.52956 0.0
C2370 C 0.01904 0.99159 0.47438 0.0
C2371 C 0.01801 0.02105 0.46854 0.0
C2372 C 0.01342 0.9875 0.48834 0.0
C2373 C 0.00694 0.01282 0.49679 0.0
C2374 C 0.00661 0.04232 0.49098 0.0
C2375 C 0.01201 0.04638 0.47704 0.0
H2376 H 0.27531 0.69059 0.78462 0.0
H2377 H 0.25982 0.78679 0.79267 0.0
H2378 H 0.27055 0.70015 0.76022 0.0
H2379 H 0.2543 0.79637 0.7683 0.0
H2380 H 0.27681 0.80957 0.7234 0.0
H2381 H 0.28293 0.79911 0.7477 0.0
H2382 H 0.23534 0.71269 0.74269 0.0
H2383 H 0.22993 0.7229 0.71841 0.0
C2384 C 0.27036 0.71371 0.78118 0.0
C2385 C 0.2679 0.73792 0.79059 0.0
C2386 C 0.26765 0.71924 0.76717 0.0
C2387 C 0.26216 0.7491 0.76221 0.0
C2388 C 0.25917 0.7732 0.77167 0.0
C2389 C 0.26214 0.7677 0.78567 0.0
C2390 C 0.26776 0.78831 0.7275 0.0
C2391 C 0.25301 0.76702 0.71895 0.0
C2392 C 0.2711 0.78235 0.74146 0.0
C2393 C 0.2595 0.75508 0.74725 0.0
C2394 C 0.24503 0.73369 0.73862 0.0
C2395 C 0.24193 0.73954 0.72466 0.0
H2396 H 0.53363 0.97855 0.96816 0.0
H2397 H 0.44642 0.02407 0.97388 0.0
H2398 H 0.54532 0.98537 0.99233 0.0
H2399 H 0.45769 0.03006 0.99808 0.0
H2400 H 0.49957 0.06305 0.03774 0.0
H2401 H 0.49167 0.05809 0.0133 0.0
H2402 H 0.52818 0.96592 0.01466 0.0
H2403 H 0.53611 0.97091 0.0393 0.0
C2404 C 0.51708 0.99031 0.97454 0.0
C2405 C 0.4891 0.00085 0.96905 0.0
C2406 C 0.52362 0.99384 0.98843 0.0
C2407 C 0.50243 0.00816 0.99717 0.0
C2408 C 0.47468 0.01916 0.99163 0.0
C2409 C 0.46809 0.01551 0.97776 0.0
C2410 C 0.50572 0.04158 0.03287 0.0
C2411 C 0.518 0.01715 0.04054 0.0
C2412 C 0.5012 0.03877 0.01884 0.0
C2413 C 0.50893 0.01149 0.01202 0.0
C2414 C 0.52214 0.98734 0.01958 0.0
C2415 C 0.52667 0.99015 0.0337 0.0
H2416 H 0.23038 0.80723 0.28641 0.0
H2417 H 0.26013 0.71327 0.29108 0.0
H2418 H 0.22261 0.79858 0.26193 0.0
H2419 H 0.25281 0.70477 0.26661 0.0
H2420 H 0.27316 0.71954 0.21999 0.0
H2421 H 0.27899 0.72704 0.24453 0.0
H2422 H 0.18711 0.7637 0.24673 0.0
H2423 H 0.18037 0.7548 0.22242 0.0
C2424 C 0.23508 0.78472 0.2822 0.0
C2425 C 0.24565 0.76087 0.29064 0.0
C2426 C 0.2306 0.77976 0.26823 0.0
C2427 C 0.23726 0.75104 0.26239 0.0
C2428 C 0.24771 0.72717 0.27084 0.0
C2429 C 0.25159 0.73195 0.28484 0.0
C2430 C 0.25396 0.72878 0.22568 0.0
C2431 C 0.22632 0.73665 0.21906 0.0
C2432 C 0.25741 0.7332 0.23974 0.0
C2433 C 0.23353 0.74606 0.2475 0.0
C2434 C 0.20602 0.75411 0.24095 0.0
C2435 C 0.20233 0.74919 0.22696 0.0
H2436 H 0.47015 0.97099 0.53908 0.0
H2437 H 0.50521 0.06362 0.53639 0.0
H2438 H 0.47789 0.9647 0.5145 0.0
H2439 H 0.51296 0.05735 0.51201 0.0
H2440 H 0.55678 0.02286 0.47248 0.0
H2441 H 0.5468 0.02913 0.49679 0.0
H2442 H 0.45963 0.98282 0.49216 0.0
H2443 H 0.47004 0.97567 0.46792 0.0
C2444 C 0.47926 0.99006 0.53324 0.0
C2445 C 0.48751 0.01761 0.53975 0.0
C2446 C 0.48369 0.98649 0.51916 0.0
C2447 C 0.49639 0.01043 0.5113 0.0
C2448 C 0.50382 0.0382 0.51778 0.0
C2449 C 0.49939 0.04177 0.53179 0.0
C2450 C 0.53553 0.01392 0.47665 0.0
C2451 C 0.51421 0.99881 0.46822 0.0
C2452 C 0.52967 0.01775 0.49057 0.0
C2453 C 0.50238 0.00648 0.49644 0.0
C2454 C 0.48099 0.99151 0.48801 0.0
C2455 C 0.48679 0.98779 0.47407 0.0
H2456 H 0.26905 0.22171 0.7182 0.0
H2457 H 0.22245 0.30875 0.72232 0.0
H2458 H 0.26209 0.21201 0.74254 0.0
H2459 H 0.21575 0.29914 0.74673 0.0
H2460 H 0.18068 0.25379 0.78635 0.0
H2461 H 0.18703 0.26294 0.76205 0.0
H2462 H 0.2816 0.23376 0.76469 0.0
H2463 H 0.27565 0.22537 0.7892 0.0
C2464 C 0.25701 0.23863 0.72428 0.0
C2465 C 0.24615 0.26594 0.71831 0.0
C2466 C 0.25337 0.23322 0.73825 0.0
C2467 C 0.23848 0.25484 0.74657 0.0
C2468 C 0.22716 0.28195 0.74057 0.0
C2469 C 0.23113 0.28753 0.72662 0.0
C2470 C 0.20304 0.24977 0.78187 0.0
C2471 C 0.22776 0.23914 0.78987 0.0
C2472 C 0.20659 0.25491 0.76788 0.0
C2473 C 0.23482 0.2492 0.76145 0.0
C2474 C 0.25945 0.23812 0.76934 0.0
C2475 C 0.25601 0.23325 0.78339 0.0
H2476 H 0.97014 0.97798 0.04095 0.0
H2477 H 0.0563 0.02601 0.03609 0.0
H2478 H 0.95925 0.98499 0.01672 0.0
H2479 H 0.04576 0.03235 0.01181 0.0
H2480 H 0.00189 0.06599 0.97221 0.0
H2481 H 0.0108 0.06004 0.99653 0.0
H2482 H 0.97833 0.96644 0.99444 0.0
H2483 H 0.96967 0.97225 0.96992 0.0
C2484 C 0.98662 0.99031 0.03474 0.0
C2485 C 0.01407 0.00152 0.04049 0.0
C2486 C 0.98055 0.99396 0.02081 0.0
C2487 C 0.00167 0.00912 0.0123 0.0
C2488 C 0.02888 0.02077 0.01809 0.0
C2489 C 0.03504 0.01694 0.032 0.0
C2490 C 0.997 0.04395 0.97685 0.0
C2491 C 0.98545 0.01943 0.96901 0.0
C2492 C 0.00205 0.0406 0.99084 0.0
C2493 C 0.99549 0.01272 0.99744 0.0
C2494 C 0.98337 0.98833 0.98969 0.0
C2495 C 0.97842 0.99165 0.97563 0.0
H2496 H 0.72476 0.72765 0.71927 0.0
H2497 H 0.8195 0.75685 0.72229 0.0
H2498 H 0.71837 0.73634 0.74371 0.0
H2499 H 0.8127 0.7663 0.74655 0.0
H2500 H 0.77709 0.80999 0.7867 0.0
H2501 H 0.78361 0.80172 0.76217 0.0
H2502 H 0.73803 0.71397 0.76563 0.0
H2503 H 0.73123 0.72232 0.79003 0.0
C2504 C 0.74425 0.73581 0.72511 0.0
C2505 C 0.7726 0.74167 0.71871 0.0
C2506 C 0.74055 0.74087 0.73911 0.0
C2507 C 0.76502 0.75212 0.74705 0.0
C2508 C 0.79328 0.75809 0.74068 0.0
C2509 C 0.79709 0.75276 0.72673 0.0
C2510 C 0.7685 0.78895 0.78221 0.0
C2511 C 0.75382 0.76674 0.79033 0.0
C2512 C 0.77236 0.78414 0.76818 0.0
C2513 C 0.76124 0.75722 0.76196 0.0
C2514 C 0.74658 0.73505 0.77009 0.0
C2515 C 0.74304 0.73969 0.7841 0.0
H2516 H 0.78933 0.23623 0.21802 0.0
H2517 H 0.71247 0.29646 0.22592 0.0
H2518 H 0.79344 0.22546 0.24241 0.0
H2519 H 0.71686 0.28597 0.25019 0.0
H2520 H 0.75652 0.28617 0.29363 0.0
H2521 H 0.75138 0.29597 0.26926 0.0
H2522 H 0.76513 0.19952 0.26104 0.0
H2523 H 0.77103 0.18983 0.28548 0.0
C2524 C 0.77329 0.24715 0.22492 0.0
C2525 C 0.75072 0.26743 0.21994 0.0
C2526 C 0.7756 0.24091 0.23891 0.0
C2527 C 0.75547 0.25485 0.24827 0.0
C2528 C 0.73305 0.2752 0.2433 0.0
C2529 C 0.73066 0.28134 0.22935 0.0
C2530 C 0.75837 0.26703 0.28663 0.0
C2531 C 0.76422 0.23722 0.29151 0.0
C2532 C 0.75523 0.27262 0.27266 0.0
C2533 C 0.75797 0.24856 0.26317 0.0
C2534 C 0.76327 0.21862 0.26806 0.0
C2535 C 0.76623 0.213 0.28207 0.0
H2536 H 0.68796 0.2342 0.72469 0.0
H2537 H 0.78431 0.24688 0.71616 0.0
H2538 H 0.69751 0.24227 0.74889 0.0
H2539 H 0.79396 0.25682 0.74028 0.0
H2540 H 0.8079 0.245 0.78556 0.0
H2541 H 0.79797 0.23554 0.76168 0.0
H2542 H 0.70847 0.27765 0.7657 0.0
H2543 H 0.71726 0.28439 0.78996 0.0
C2544 C 0.71119 0.23909 0.72803 0.0
C2545 C 0.73541 0.23991 0.71858 0.0
C2546 C 0.7167 0.24398 0.74191 0.0
C2547 C 0.74655 0.25041 0.7467 0.0
C2548 C 0.77075 0.25137 0.73713 0.0
C2549 C 0.76528 0.24585 0.72327 0.0
C2550 C 0.78576 0.25167 0.7815 0.0
C2551 C 0.76326 0.26515 0.78991 0.0
C2552 C 0.78029 0.24678 0.76761 0.0
C2553 C 0.75238 0.2558 0.76157 0.0
C2554 C 0.73007 0.2698 0.76993 0.0
C2555 C 0.73533 0.27418 0.78389 0.0
H2556 H 0.72101 0.78801 0.21863 0.0
H2557 H 0.81238 0.74927 0.22043 0.0
H2558 H 0.71581 0.78057 0.24331 0.0
H2559 H 0.80664 0.74103 0.24479 0.0
H2560 H 0.76686 0.69564 0.2838 0.0
H2561 H 0.77325 0.70654 0.25949 0.0
H2562 H 0.74013 0.79887 0.26584 0.0
H2563 H 0.73377 0.78797 0.29018 0.0
C2564 C 0.74002 0.77811 0.22425 0.0
C2565 C 0.76688 0.76874 0.21743 0.0
C2566 C 0.73701 0.7738 0.23837 0.0
C2567 C 0.76069 0.75985 0.24594 0.0
C2568 C 0.78776 0.75125 0.2392 0.0
C2569 C 0.79092 0.75586 0.22518 0.0
C2570 C 0.76112 0.7183 0.28001 0.0
C2571 C 0.75 0.74099 0.2889 0.0
C2572 C 0.76485 0.72458 0.26612 0.0
C2573 C 0.75712 0.75355 0.26076 0.0
C2574 C 0.74607 0.77629 0.26965 0.0
C2575 C 0.74277 0.77014 0.2836 0.0
H2576 H 0.44045 0.466 0.03445 0.0
H2577 H 0.52726 0.5099 0.04273 0.0
H2578 H 0.44915 0.47167 0.01004 0.0
H2579 H 0.53541 0.51755 0.01836 0.0
H2580 H 0.55712 0.50311 0.97408 0.0
H2581 H 0.54816 0.49393 0.99813 0.0
H2582 H 0.4504 0.50426 0.99168 0.0
H2583 H 0.45914 0.51031 0.96747 0.0
C2584 C 0.46113 0.47748 0.031 0.0
C2585 C 0.48313 0.48764 0.04044 0.0
C2586 C 0.46616 0.48087 0.01698 0.0
C2587 C 0.49308 0.49508 0.01206 0.0
C2588 C 0.51475 0.50583 0.02163 0.0
C2589 C 0.50998 0.50182 0.03563 0.0
C2590 C 0.53362 0.50265 0.97768 0.0
C2591 C 0.50892 0.5076 0.96867 0.0
C2592 C 0.52848 0.498 0.99163 0.0
C2593 C 0.49852 0.4987 0.99705 0.0
C2594 C 0.47381 0.50319 0.988 0.0
C2595 C 0.4789 0.50721 0.97404 0.0
H2596 H 0.98944 0.46493 0.54021 0.0
H2597 H 0.05005 0.54164 0.53242 0.0
H2598 H 0.97925 0.46062 0.51581 0.0
H2599 H 0.04028 0.53684 0.50808 0.0
H2600 H 0.03964 0.49645 0.46454 0.0
H2601 H 0.04988 0.50162 0.4889 0.0
H2602 H 0.95318 0.4901 0.49737 0.0
H2603 H 0.94302 0.48437 0.47297 0.0
C2604 C 0.00061 0.48089 0.53334 0.0
C2605 C 0.02066 0.50361 0.53837 0.0
C2606 C 0.99471 0.47843 0.51933 0.0
C2607 C 0.00884 0.49847 0.50999 0.0
C2608 C 0.02928 0.5208 0.51498 0.0
C2609 C 0.03502 0.52341 0.52896 0.0
C2610 C 0.02055 0.49512 0.4716 0.0
C2611 C 0.99052 0.48998 0.46681 0.0
C2612 C 0.0264 0.49825 0.48556 0.0
C2613 C 0.00238 0.4961 0.4951 0.0
C2614 C 0.97225 0.49149 0.4903 0.0
C2615 C 0.96636 0.48861 0.47631 0.0
H2616 H 0.05698 0.50202 0.9722 0.0
H2617 H 0.95935 0.48861 0.96655 0.0
H2618 H 0.04851 0.51203 0.99619 0.0
H2619 H 0.95129 0.49539 0.99075 0.0
H2620 H 0.94044 0.53413 0.03331 0.0
H2621 H 0.94855 0.52819 0.00887 0.0
H2622 H 0.03836 0.48935 0.01681 0.0
H2623 H 0.03068 0.49746 0.04118 0.0
C2624 C 0.03365 0.50126 0.97599 0.0
C2625 C 0.00893 0.49433 0.96725 0.0
C2626 C 0.02883 0.5064 0.98992 0.0
C2627 C 0.9992 0.50418 0.99564 0.0
C2628 C 0.97444 0.49769 0.98686 0.0
C2629 C 0.97918 0.49321 0.97289 0.0
C2630 C 0.96181 0.5242 0.02976 0.0
C2631 C 0.98489 0.51614 0.03908 0.0
C2632 C 0.96651 0.52062 0.01572 0.0
C2633 C 0.9942 0.50824 0.01067 0.0
C2634 C 0.01702 0.49964 0.02015 0.0
C2635 C 0.01256 0.50391 0.03416 0.0
H2636 H 0.50815 0.56326 0.47429 0.0
H2637 H 0.46408 0.47461 0.47069 0.0
H2638 H 0.51844 0.55335 0.49812 0.0
H2639 H 0.47178 0.46596 0.49491 0.0
H2640 H 0.51705 0.44375 0.53529 0.0
H2641 H 0.50807 0.45357 0.51119 0.0
H2642 H 0.49826 0.55053 0.51983 0.0
H2643 H 0.50907 0.54051 0.54387 0.0
C2644 C 0.50062 0.54157 0.47852 0.0
C2645 C 0.48561 0.51957 0.47035 0.0
C2646 C 0.50601 0.53614 0.49237 0.0
C2647 C 0.49603 0.5088 0.49861 0.0
C2648 C 0.48042 0.48706 0.49051 0.0
C2649 C 0.47551 0.49226 0.47658 0.0
C2650 C 0.51301 0.46715 0.53198 0.0
C2651 C 0.51371 0.49138 0.54142 0.0
C2652 C 0.50759 0.47283 0.51816 0.0
C2653 C 0.50214 0.50287 0.51341 0.0
C2654 C 0.50285 0.52713 0.52295 0.0
C2655 C 0.50888 0.52146 0.53677 0.0
loop_
_geom_bond_atom_site_label_1
_geom_bond_atom_site_label_2
_geom_bond_distance
_geom_bond_site_symmetry_2
_ccdc_geom_bond_type
Co0 N4 2.148 . S
Co0 N10 2.128 . S
Co0 N20 2.194 . S
Co0 O25 2.351 . S
Co0 O26 2.155 . S
Co0 O27 2.096 . S
C1 N4 1.301 . S
C1 N5 1.328 . S
C1 H6 0.930 . S
C2 C3 1.333 . S
C2 N4 1.317 . S
C2 H7 0.930 . S
C3 C2 1.333 . S
C3 N5 1.350 . S
C3 H29 0.931 . S
N4 Co0 2.148 . S
N4 C1 1.301 . S
N4 C2 1.317 . S
N5 C1 1.328 . S
N5 C3 1.350 . S
H6 C1 0.930 . S
H7 C2 0.930 . S
C8 O9 1.224 . S
C8 O27 1.247 . S
O9 C8 1.224 . S
N10 Co0 2.128 . S
N10 C11 1.355 . S
N10 C13 1.311 . S
C11 N10 1.355 . S
C11 C12 1.363 . S
C11 H23 0.929 . S
C12 C11 1.363 . S
C12 N14 1.375 . S
C12 H30 0.931 . S
C13 N10 1.311 . S
C13 N14 1.347 . S
C13 H24 0.929 . S
N14 C12 1.375 . S
N14 C13 1.347 . S
C15 C18 1.365 . S
C15 N20 1.328 . S
C15 H21 0.929 . S
C16 C17 1.362 . S
C16 C19 1.378 . S
C16 H31 0.929 . S
C17 C16 1.362 . S
C17 C18 1.366 . S
C18 C15 1.365 . S
C18 C17 1.366 . S
C18 H32 0.930 . S
C19 C16 1.378 . S
C19 N20 1.315 . S
C19 H22 0.930 . S
N20 Co0 2.194 . S
N20 C15 1.328 . S
N20 C19 1.315 . S
H21 C15 0.929 . S
H22 C19 0.930 . S
H23 C11 0.929 . S
H24 C13 0.929 . S
O25 Co0 2.351 . S
O25 C28 1.244 . S
O26 Co0 2.155 . S
O26 C28 1.240 . S
O27 Co0 2.096 . S
O27 C8 1.247 . S
C28 O25 1.244 . S
C28 O26 1.240 . S
H29 C3 0.931 . S
H30 C12 0.931 . S
H31 C16 0.929 . S
H32 C18 0.930 . S
Co33 N37 2.148 . S
Co33 N43 2.128 . S
Co33 N53 2.194 . S
Co33 O58 2.351 . S
Co33 O59 2.155 . S
Co33 O60 2.096 1_455 S
C34 N37 1.301 . S
C34 N38 1.328 1_545 S
C34 H39 0.930 . S
C35 C36 1.333 1_545 S
C35 N37 1.317 . S
C35 H40 0.930 1_455 S
C36 C35 1.333 1_565 S
C36 N38 1.350 . S
C36 H62 0.931 . S
N37 Co33 2.148 . S
N37 C34 1.301 . S
N37 C35 1.317 . S
N38 C34 1.328 1_565 S
N38 C36 1.350 . S
H39 C34 0.930 . S
H40 C35 0.930 1_655 S
C41 O42 1.224 . S
C41 O60 1.247 . S
O42 C41 1.224 . S
N43 Co33 2.128 . S
N43 C44 1.355 . S
N43 C46 1.311 1_455 S
C44 N43 1.355 . S
C44 C45 1.363 . S
C44 H56 0.929 . S
C45 C44 1.363 . S
C45 N47 1.375 1_455 S
C45 H63 0.931 . S
C46 N43 1.311 1_655 S
C46 N47 1.347 . S
C46 H57 0.929 . S
N47 C45 1.375 1_655 S
N47 C46 1.347 . S
C48 C51 1.365 . S
C48 N53 1.328 . S
C48 H54 0.929 . S
C49 C50 1.342 1_655 S
C49 C52 1.376 1_655 S
C49 H64 0.952 . S
C50 C49 1.342 1_455 S
C50 C51 1.366 . S
C51 C48 1.365 . S
C51 C50 1.366 . S
C51 H65 0.930 . S
C52 C49 1.376 1_455 S
C52 N53 1.315 . S
C52 H55 0.930 1_455 S
N53 Co33 2.194 . S
N53 C48 1.328 . S
N53 C52 1.315 . S
H54 C48 0.929 . S
H55 C52 0.930 1_655 S
H56 C44 0.929 . S
H57 C46 0.929 . S
O58 Co33 2.351 . S
O58 C61 1.244 . S
O59 Co33 2.155 . S
O59 C61 1.240 . S
O60 Co33 2.096 1_655 S
O60 C41 1.247 . S
C61 O58 1.244 . S
C61 O59 1.240 . S
H62 C36 0.931 . S
H63 C45 0.931 . S
H64 C49 0.952 . S
H65 C51 0.930 . S
Co66 N70 2.148 . S
Co66 N76 2.128 . S
Co66 N86 2.194 . S
Co66 O91 2.351 . S
Co66 O92 2.155 . S
Co66 O93 2.096 . S
C67 N70 1.301 . S
C67 N71 1.328 . S
C67 H72 0.930 . S
C68 C69 1.333 . S
C68 N70 1.317 . S
C68 H73 0.930 . S
C69 C68 1.333 . S
C69 N71 1.350 . S
C69 H95 0.931 . S
N70 Co66 2.148 . S
N70 C67 1.301 . S
N70 C68 1.317 . S
N71 C67 1.328 . S
N71 C69 1.350 . S
H72 C67 0.930 . S
H73 C68 0.930 . S
C74 O75 1.224 . S
C74 O93 1.247 . S
O75 C74 1.224 . S
N76 Co66 2.128 . S
N76 C77 1.355 . S
N76 C79 1.311 . S
C77 N76 1.355 . S
C77 C78 1.363 . S
C77 H89 0.929 . S
C78 C77 1.363 . S
C78 N80 1.375 . S
C78 H96 0.931 . S
C79 N76 1.311 . S
C79 N80 1.347 . S
C79 H90 0.929 . S
N80 C78 1.375 . S
N80 C79 1.347 . S
C81 C84 1.365 . S
C81 N86 1.328 . S
C81 H87 0.929 . S
C82 C83 1.362 . S
C82 C85 1.378 . S
C82 H97 0.929 . S
C83 C82 1.362 . S
C83 C84 1.366 . S
C84 C81 1.365 . S
C84 C83 1.366 . S
C84 H98 0.930 . S
C85 C82 1.378 . S
C85 N86 1.315 . S
C85 H88 0.930 . S
N86 Co66 2.194 . S
N86 C81 1.328 . S
N86 C85 1.315 . S
H87 C81 0.929 . S
H88 C85 0.930 . S
H89 C77 0.929 . S
H90 C79 0.929 . S
O91 Co66 2.351 . S
O91 C94 1.244 . S
O92 Co66 2.155 . S
O92 C94 1.240 . S
O93 Co66 2.096 . S
O93 C74 1.247 . S
C94 O91 1.244 . S
C94 O92 1.240 . S
H95 C69 0.931 . S
H96 C78 0.931 . S
H97 C82 0.929 . S
H98 C84 0.930 . S
Co99 N103 2.148 . S
Co99 N109 2.128 . S
Co99 N119 2.194 . S
Co99 O124 2.351 . S
Co99 O125 2.155 . S
Co99 O126 2.096 . S
C100 N103 1.301 . S
C100 N104 1.328 1_565 S
C100 H105 0.930 . S
C101 C102 1.333 1_565 S
C101 N103 1.317 . S
C101 H106 0.930 . S
C102 C101 1.333 1_545 S
C102 N104 1.350 . S
C102 H128 0.931 . S
N103 Co99 2.148 . S
N103 C100 1.301 . S
N103 C101 1.317 . S
N104 C100 1.328 1_545 S
N104 C102 1.350 . S
H105 C100 0.930 . S
H106 C101 0.930 . S
C107 O108 1.224 . S
C107 O126 1.247 . S
O108 C107 1.224 . S
N109 Co99 2.128 . S
N109 C110 1.355 . S
N109 C112 1.311 . S
C110 N109 1.355 . S
C110 C111 1.363 . S
C110 H122 0.929 . S
C111 C110 1.363 . S
C111 N113 1.375 . S
C111 H129 0.931 . S
C112 N109 1.311 . S
C112 N113 1.347 . S
C112 H123 0.929 . S
N113 C111 1.375 . S
N113 C112 1.347 . S
C114 C117 1.365 . S
C114 N119 1.328 . S
C114 H120 0.929 . S
C115 C116 1.362 . S
C115 C118 1.378 . S
C115 H130 0.929 . S
C116 C115 1.362 . S
C116 C117 1.366 . S
C117 C114 1.365 . S
C117 C116 1.366 . S
C117 H131 0.930 . S
C118 C115 1.378 . S
C118 N119 1.315 . S
C118 H121 0.930 . S
N119 Co99 2.194 . S
N119 C114 1.328 . S
N119 C118 1.315 . S
H120 C114 0.929 . S
H121 C118 0.930 . S
H122 C110 0.929 . S
H123 C112 0.929 . S
O124 Co99 2.351 . S
O124 C127 1.244 . S
O125 Co99 2.155 . S
O125 C127 1.240 . S
O126 Co99 2.096 . S
O126 C107 1.247 . S
C127 O124 1.244 . S
C127 O125 1.240 . S
H128 C102 0.931 . S
H129 C111 0.931 . S
H130 C115 0.929 . S
H131 C117 0.930 . S
Co132 N136 2.148 . S
Co132 N142 2.128 . S
Co132 N152 2.194 . S
Co132 O157 2.351 . S
Co132 O158 2.155 . S
Co132 O159 2.096 . S
C133 N136 1.301 . S
C133 N137 1.328 . S
C133 H138 0.930 . S
C134 C135 1.333 . S
C134 N136 1.317 . S
C134 H139 0.930 . S
C135 C134 1.333 . S
C135 N137 1.350 . S
C135 H161 0.931 . S
N136 Co132 2.148 . S
N136 C133 1.301 . S
N136 C134 1.317 . S
N137 C133 1.328 . S
N137 C135 1.350 . S
H138 C133 0.930 . S
H139 C134 0.930 . S
C140 O141 1.224 . S
C140 O159 1.247 . S
O141 C140 1.224 . S
N142 Co132 2.128 . S
N142 C143 1.355 . S
N142 C145 1.311 . S
C143 N142 1.355 . S
C143 C144 1.363 . S
C143 H155 0.929 . S
C144 C143 1.363 . S
C144 N146 1.375 . S
C144 H162 0.931 . S
C145 N142 1.311 . S
C145 N146 1.347 . S
C145 H156 0.929 . S
N146 C144 1.375 . S
N146 C145 1.347 . S
C147 C150 1.365 . S
C147 N152 1.328 . S
C147 H153 0.929 . S
C148 C149 1.362 . S
C148 C151 1.378 . S
C148 H163 0.929 . S
C149 C148 1.362 . S
C149 C150 1.366 . S
C150 C147 1.365 . S
C150 C149 1.366 . S
C150 H164 0.930 . S
C151 C148 1.378 . S
C151 N152 1.315 . S
C151 H154 0.930 . S
N152 Co132 2.194 . S
N152 C147 1.328 . S
N152 C151 1.315 . S
H153 C147 0.929 . S
H154 C151 0.930 . S
H155 C143 0.929 . S
H156 C145 0.929 . S
O157 Co132 2.351 . S
O157 C160 1.244 . S
O158 Co132 2.155 . S
O158 C160 1.240 . S
O159 Co132 2.096 . S
O159 C140 1.247 . S
C160 O157 1.244 . S
C160 O158 1.240 . S
H161 C135 0.931 . S
H162 C144 0.931 . S
H163 C148 0.929 . S
H164 C150 0.930 . S
Co165 N169 2.148 . S
Co165 N175 2.128 . S
Co165 N185 2.194 . S
Co165 O190 2.351 . S
Co165 O191 2.155 . S
Co165 O192 2.096 . S
C166 N169 1.301 . S
C166 N170 1.328 1_545 S
C166 H171 0.930 . S
C167 C168 1.333 1_545 S
C167 N169 1.317 . S
C167 H172 0.930 . S
C168 C167 1.333 1_565 S
C168 N170 1.350 . S
C168 H194 0.931 . S
N169 Co165 2.148 . S
N169 C166 1.301 . S
N169 C167 1.317 . S
N170 C166 1.328 1_565 S
N170 C168 1.350 . S
H171 C166 0.930 . S
H172 C167 0.930 . S
C173 O174 1.224 . S
C173 O192 1.247 . S
O174 C173 1.224 . S
N175 Co165 2.128 . S
N175 C176 1.355 . S
N175 C178 1.311 . S
C176 N175 1.355 . S
C176 C177 1.363 . S
C176 H188 0.929 . S
C177 C176 1.363 . S
C177 N179 1.375 . S
C177 H195 0.931 . S
C178 N175 1.311 . S
C178 N179 1.347 . S
C178 H189 0.929 . S
N179 C177 1.375 . S
N179 C178 1.347 . S
C180 C183 1.365 . S
C180 N185 1.328 . S
C180 H186 0.929 . S
C181 C182 1.362 . S
C181 C184 1.378 . S
C181 H196 0.929 . S
C182 C181 1.362 . S
C182 C183 1.366 . S
C183 C180 1.365 . S
C183 C182 1.366 . S
C183 H197 0.930 . S
C184 C181 1.378 . S
C184 N185 1.315 . S
C184 H187 0.930 . S
N185 Co165 2.194 . S
N185 C180 1.328 . S
N185 C184 1.315 . S
H186 C180 0.929 . S
H187 C184 0.930 . S
H188 C176 0.929 . S
H189 C178 0.929 . S
O190 Co165 2.351 . S
O190 C193 1.244 . S
O191 Co165 2.155 . S
O191 C193 1.240 . S
O192 Co165 2.096 . S
O192 C173 1.247 . S
C193 O190 1.244 . S
C193 O191 1.240 . S
H194 C168 0.931 . S
H195 C177 0.931 . S
H196 C181 0.929 . S
H197 C183 0.930 . S
Co198 N202 2.148 . S
Co198 N208 2.128 . S
Co198 N218 2.194 . S
Co198 O223 2.351 . S
Co198 O224 2.155 . S
Co198 O225 2.096 . S
C199 N202 1.301 . S
C199 N203 1.328 . S
C199 H204 0.930 . S
C200 C201 1.333 . S
C200 N202 1.317 . S
C200 H205 0.930 . S
C201 C200 1.333 . S
C201 N203 1.350 . S
C201 H227 0.931 . S
N202 Co198 2.148 . S
N202 C199 1.301 . S
N202 C200 1.317 . S
N203 C199 1.328 . S
N203 C201 1.350 . S
H204 C199 0.930 . S
H205 C200 0.930 . S
C206 O207 1.224 . S
C206 O225 1.247 . S
O207 C206 1.224 . S
N208 Co198 2.128 . S
N208 C209 1.355 . S
N208 C211 1.311 . S
C209 N208 1.355 . S
C209 C210 1.363 . S
C209 H221 0.929 . S
C210 C209 1.363 . S
C210 N212 1.375 . S
C210 H228 0.931 . S
C211 N208 1.311 . S
C211 N212 1.347 . S
C211 H222 0.929 . S
N212 C210 1.375 . S
N212 C211 1.347 . S
C213 C216 1.365 . S
C213 N218 1.328 . S
C213 H219 0.929 . S
C214 C215 1.362 . S
C214 C217 1.378 . S
C214 H229 0.929 . S
C215 C214 1.362 . S
C215 C216 1.366 . S
C216 C213 1.365 . S
C216 C215 1.366 . S
C216 H230 0.930 . S
C217 C214 1.378 . S
C217 N218 1.315 . S
C217 H220 0.930 . S
N218 Co198 2.194 . S
N218 C213 1.328 . S
N218 C217 1.315 . S
H219 C213 0.929 . S
H220 C217 0.930 . S
H221 C209 0.929 . S
H222 C211 0.929 . S
O223 Co198 2.351 . S
O223 C226 1.244 . S
O224 Co198 2.155 . S
O224 C226 1.240 . S
O225 Co198 2.096 . S
O225 C206 1.247 . S
C226 O223 1.244 . S
C226 O224 1.240 . S
H227 C201 0.931 . S
H228 C210 0.931 . S
H229 C214 0.929 . S
H230 C216 0.930 . S
Co231 N235 2.148 . S
Co231 N241 2.128 . S
Co231 N251 2.194 . S
Co231 O256 2.351 . S
Co231 O257 2.155 . S
Co231 O258 2.096 1_455 S
C232 N235 1.301 . S
C232 N236 1.328 1_565 S
C232 H237 0.930 . S
C233 C234 1.333 1_565 S
C233 N235 1.317 . S
C233 H238 0.930 1_455 S
C234 C233 1.333 1_545 S
C234 N236 1.350 . S
C234 H260 0.931 . S
N235 Co231 2.148 . S
N235 C232 1.301 . S
N235 C233 1.317 . S
N236 C232 1.328 1_545 S
N236 C234 1.350 . S
H237 C232 0.930 . S
H238 C233 0.930 1_655 S
C239 O240 1.224 . S
C239 O258 1.247 . S
O240 C239 1.224 . S
N241 Co231 2.128 . S
N241 C242 1.355 . S
N241 C244 1.311 1_455 S
C242 N241 1.355 . S
C242 C243 1.363 . S
C242 H254 0.929 . S
C243 C242 1.363 . S
C243 N245 1.375 1_455 S
C243 H261 0.931 . S
C244 N241 1.311 1_655 S
C244 N245 1.347 . S
C244 H255 0.929 . S
N245 C243 1.375 1_655 S
N245 C244 1.347 . S
C246 C249 1.365 . S
C246 N251 1.328 . S
C246 H252 0.929 . S
C247 C248 1.342 1_655 S
C247 C250 1.376 1_655 S
C247 H262 0.952 . S
C248 C247 1.342 1_455 S
C248 C249 1.366 . S
C249 C246 1.365 . S
C249 C248 1.366 . S
C249 H263 0.930 . S
C250 C247 1.376 1_455 S
C250 N251 1.315 . S
C250 H253 0.930 1_455 S
N251 Co231 2.194 . S
N251 C246 1.328 . S
N251 C250 1.315 . S
H252 C246 0.929 . S
H253 C250 0.930 1_655 S
H254 C242 0.929 . S
H255 C244 0.929 . S
O256 Co231 2.351 . S
O256 C259 1.244 . S
O257 Co231 2.155 . S
O257 C259 1.240 . S
O258 Co231 2.096 1_655 S
O258 C239 1.247 . S
C259 O256 1.244 . S
C259 O257 1.240 . S
H260 C234 0.931 . S
H261 C243 0.931 . S
H262 C247 0.952 . S
H263 C249 0.930 . S
Co264 N268 2.148 . S
Co264 N274 2.128 . S
Co264 N284 2.194 . S
Co264 O289 2.351 . S
Co264 O290 2.155 . S
Co264 O291 2.096 . S
C265 N268 1.301 . S
C265 N269 1.328 . S
C265 H270 0.930 . S
C266 C267 1.333 . S
C266 N268 1.317 . S
C266 H271 0.930 . S
C267 C266 1.333 . S
C267 N269 1.350 . S
C267 H293 0.931 . S
N268 Co264 2.148 . S
N268 C265 1.301 . S
N268 C266 1.317 . S
N269 C265 1.328 . S
N269 C267 1.350 . S
H270 C265 0.930 . S
H271 C266 0.930 . S
C272 O273 1.224 . S
C272 O291 1.247 . S
O273 C272 1.224 . S
N274 Co264 2.128 . S
N274 C275 1.355 . S
N274 C277 1.311 . S
C275 N274 1.355 . S
C275 C276 1.363 . S
C275 H287 0.929 . S
C276 C275 1.363 . S
C276 N278 1.375 . S
C276 H294 0.931 . S
C277 N274 1.311 . S
C277 N278 1.347 . S
C277 H288 0.929 . S
N278 C276 1.375 . S
N278 C277 1.347 . S
C279 C282 1.365 . S
C279 N284 1.328 . S
C279 H285 0.929 . S
C280 C281 1.362 . S
C280 C283 1.378 . S
C280 H295 0.929 . S
C281 C280 1.362 . S
C281 C282 1.366 . S
C282 C279 1.365 . S
C282 C281 1.366 . S
C282 H296 0.930 . S
C283 C280 1.378 . S
C283 N284 1.315 . S
C283 H286 0.930 . S
N284 Co264 2.194 . S
N284 C279 1.328 . S
N284 C283 1.315 . S
H285 C279 0.929 . S
H286 C283 0.930 . S
H287 C275 0.929 . S
H288 C277 0.929 . S
O289 Co264 2.351 . S
O289 C292 1.244 . S
O290 Co264 2.155 . S
O290 C292 1.240 . S
O291 Co264 2.096 . S
O291 C272 1.247 . S
C292 O289 1.244 . S
C292 O290 1.240 . S
H293 C267 0.931 . S
H294 C276 0.931 . S
H295 C280 0.929 . S
H296 C282 0.930 . S
Co297 N301 2.148 . S
Co297 N307 2.128 . S
Co297 N317 2.194 . S
Co297 O322 2.351 . S
Co297 O323 2.155 . S
Co297 O324 2.096 1_655 S
C298 N301 1.301 . S
C298 N302 1.328 1_565 S
C298 H303 0.930 . S
C299 C300 1.333 1_565 S
C299 N301 1.317 . S
C299 H304 0.930 1_655 S
C300 C299 1.333 1_545 S
C300 N302 1.350 . S
C300 H326 0.931 . S
N301 Co297 2.148 . S
N301 C298 1.301 . S
N301 C299 1.317 . S
N302 C298 1.328 1_545 S
N302 C300 1.350 . S
H303 C298 0.930 . S
H304 C299 0.930 1_455 S
C305 O306 1.224 . S
C305 O324 1.247 . S
O306 C305 1.224 . S
N307 Co297 2.128 . S
N307 C308 1.355 . S
N307 C310 1.311 1_655 S
C308 N307 1.355 . S
C308 C309 1.363 . S
C308 H320 0.929 . S
C309 C308 1.363 . S
C309 N311 1.375 1_655 S
C309 H327 0.931 . S
C310 N307 1.311 1_455 S
C310 N311 1.347 . S
C310 H321 0.929 . S
N311 C309 1.375 1_455 S
N311 C310 1.347 . S
C312 C315 1.365 . S
C312 N317 1.328 . S
C312 H318 0.929 . S
C313 C314 1.342 1_455 S
C313 C316 1.376 1_455 S
C313 H328 0.952 . S
C314 C313 1.342 1_655 S
C314 C315 1.366 . S
C315 C312 1.365 . S
C315 C314 1.366 . S
C315 H329 0.930 . S
C316 C313 1.376 1_655 S
C316 N317 1.315 . S
C316 H319 0.930 1_655 S
N317 Co297 2.194 . S
N317 C312 1.328 . S
N317 C316 1.315 . S
H318 C312 0.929 . S
H319 C316 0.930 1_455 S
H320 C308 0.929 . S
H321 C310 0.929 . S
O322 Co297 2.351 . S
O322 C325 1.244 . S
O323 Co297 2.155 . S
O323 C325 1.240 . S
O324 Co297 2.096 1_455 S
O324 C305 1.247 . S
C325 O322 1.244 . S
C325 O323 1.240 . S
H326 C300 0.931 . S
H327 C309 0.931 . S
H328 C313 0.952 . S
H329 C315 0.930 . S
Co330 N334 2.148 . S
Co330 N340 2.128 . S
Co330 N350 2.194 . S
Co330 O355 2.351 . S
Co330 O356 2.155 . S
Co330 O357 2.096 . S
C331 N334 1.301 . S
C331 N335 1.328 . S
C331 H336 0.930 . S
C332 C333 1.333 . S
C332 N334 1.317 . S
C332 H337 0.930 . S
C333 C332 1.333 . S
C333 N335 1.350 . S
C333 H359 0.931 . S
N334 Co330 2.148 . S
N334 C331 1.301 . S
N334 C332 1.317 . S
N335 C331 1.328 . S
N335 C333 1.350 . S
H336 C331 0.930 . S
H337 C332 0.930 . S
C338 O339 1.224 . S
C338 O357 1.247 . S
O339 C338 1.224 . S
N340 Co330 2.128 . S
N340 C341 1.355 . S
N340 C343 1.311 . S
C341 N340 1.355 . S
C341 C342 1.363 . S
C341 H353 0.929 . S
C342 C341 1.363 . S
C342 N344 1.375 . S
C342 H360 0.931 . S
C343 N340 1.311 . S
C343 N344 1.347 . S
C343 H354 0.929 . S
N344 C342 1.375 . S
N344 C343 1.347 . S
C345 C348 1.365 . S
C345 N350 1.328 . S
C345 H351 0.929 . S
C346 C347 1.362 . S
C346 C349 1.378 . S
C346 H361 0.929 . S
C347 C346 1.362 . S
C347 C348 1.366 . S
C348 C345 1.365 . S
C348 C347 1.366 . S
C348 H362 0.930 . S
C349 C346 1.378 . S
C349 N350 1.315 . S
C349 H352 0.930 . S
N350 Co330 2.194 . S
N350 C345 1.328 . S
N350 C349 1.315 . S
H351 C345 0.929 . S
H352 C349 0.930 . S
H353 C341 0.929 . S
H354 C343 0.929 . S
O355 Co330 2.351 . S
O355 C358 1.244 . S
O356 Co330 2.155 . S
O356 C358 1.240 . S
O357 Co330 2.096 . S
O357 C338 1.247 . S
C358 O355 1.244 . S
C358 O356 1.240 . S
H359 C333 0.931 . S
H360 C342 0.931 . S
H361 C346 0.929 . S
H362 C348 0.930 . S
Co363 N367 2.148 . S
Co363 N373 2.128 . S
Co363 N383 2.194 . S
Co363 O388 2.351 . S
Co363 O389 2.155 . S
Co363 O390 2.096 . S
C364 N367 1.301 . S
C364 N368 1.328 1_545 S
C364 H369 0.930 . S
C365 C366 1.333 1_545 S
C365 N367 1.317 . S
C365 H370 0.930 . S
C366 C365 1.333 1_565 S
C366 N368 1.350 . S
C366 H392 0.931 . S
N367 Co363 2.148 . S
N367 C364 1.301 . S
N367 C365 1.317 . S
N368 C364 1.328 1_565 S
N368 C366 1.350 . S
H369 C364 0.930 . S
H370 C365 0.930 . S
C371 O372 1.224 . S
C371 O390 1.247 . S
O372 C371 1.224 . S
N373 Co363 2.128 . S
N373 C374 1.355 . S
N373 C376 1.311 . S
C374 N373 1.355 . S
C374 C375 1.363 . S
C374 H386 0.929 . S
C375 C374 1.363 . S
C375 N377 1.375 . S
C375 H393 0.931 . S
C376 N373 1.311 . S
C376 N377 1.347 . S
C376 H387 0.929 . S
N377 C375 1.375 . S
N377 C376 1.347 . S
C378 C381 1.365 . S
C378 N383 1.328 . S
C378 H384 0.929 . S
C379 C380 1.362 . S
C379 C382 1.378 . S
C379 H394 0.929 . S
C380 C379 1.362 . S
C380 C381 1.366 . S
C381 C378 1.365 . S
C381 C380 1.366 . S
C381 H395 0.930 . S
C382 C379 1.378 . S
C382 N383 1.315 . S
C382 H385 0.930 . S
N383 Co363 2.194 . S
N383 C378 1.328 . S
N383 C382 1.315 . S
H384 C378 0.929 . S
H385 C382 0.930 . S
H386 C374 0.929 . S
H387 C376 0.929 . S
O388 Co363 2.351 . S
O388 C391 1.244 . S
O389 Co363 2.155 . S
O389 C391 1.240 . S
O390 Co363 2.096 . S
O390 C371 1.247 . S
C391 O388 1.244 . S
C391 O389 1.240 . S
H392 C366 0.931 . S
H393 C375 0.931 . S
H394 C379 0.929 . S
H395 C381 0.930 . S
Co396 N400 2.148 . S
Co396 N406 2.128 . S
Co396 N416 2.194 . S
Co396 O421 2.351 . S
Co396 O422 2.155 . S
Co396 O423 2.096 . S
C397 N400 1.301 . S
C397 N401 1.328 . S
C397 H402 0.930 . S
C398 C399 1.333 . S
C398 N400 1.317 . S
C398 H403 0.930 . S
C399 C398 1.333 . S
C399 N401 1.350 . S
C399 H425 0.931 . S
N400 Co396 2.148 . S
N400 C397 1.301 . S
N400 C398 1.317 . S
N401 C397 1.328 . S
N401 C399 1.350 . S
H402 C397 0.930 . S
H403 C398 0.930 . S
C404 O405 1.224 . S
C404 O423 1.247 . S
O405 C404 1.224 . S
N406 Co396 2.128 . S
N406 C407 1.355 . S
N406 C409 1.311 . S
C407 N406 1.355 . S
C407 C408 1.363 . S
C407 H419 0.929 . S
C408 C407 1.363 . S
C408 N410 1.375 . S
C408 H426 0.931 . S
C409 N406 1.311 . S
C409 N410 1.347 . S
C409 H420 0.929 . S
N410 C408 1.375 . S
N410 C409 1.347 . S
C411 C414 1.365 . S
C411 N416 1.328 . S
C411 H417 0.929 . S
C412 C413 1.362 . S
C412 C415 1.378 . S
C412 H427 0.929 . S
C413 C412 1.362 . S
C413 C414 1.366 . S
C414 C411 1.365 . S
C414 C413 1.366 . S
C414 H428 0.930 . S
C415 C412 1.378 . S
C415 N416 1.315 . S
C415 H418 0.930 . S
N416 Co396 2.194 . S
N416 C411 1.328 . S
N416 C415 1.315 . S
H417 C411 0.929 . S
H418 C415 0.930 . S
H419 C407 0.929 . S
H420 C409 0.929 . S
O421 Co396 2.351 . S
O421 C424 1.244 . S
O422 Co396 2.155 . S
O422 C424 1.240 . S
O423 Co396 2.096 . S
O423 C404 1.247 . S
C424 O421 1.244 . S
C424 O422 1.240 . S
H425 C399 0.931 . S
H426 C408 0.931 . S
H427 C412 0.929 . S
H428 C414 0.930 . S
Co429 N433 2.148 . S
Co429 N439 2.128 . S
Co429 N449 2.194 . S
Co429 O454 2.351 . S
Co429 O455 2.155 . S
Co429 O456 2.096 . S
C430 N433 1.301 . S
C430 N434 1.328 1_565 S
C430 H435 0.930 . S
C431 C432 1.333 1_565 S
C431 N433 1.317 . S
C431 H436 0.930 . S
C432 C431 1.333 1_545 S
C432 N434 1.350 . S
C432 H458 0.931 . S
N433 Co429 2.148 . S
N433 C430 1.301 . S
N433 C431 1.317 . S
N434 C430 1.328 1_545 S
N434 C432 1.350 . S
H435 C430 0.930 . S
H436 C431 0.930 . S
C437 O438 1.224 . S
C437 O456 1.247 . S
O438 C437 1.224 . S
N439 Co429 2.128 . S
N439 C440 1.355 . S
N439 C442 1.311 . S
C440 N439 1.355 . S
C440 C441 1.363 . S
C440 H452 0.929 . S
C441 C440 1.363 . S
C441 N443 1.375 . S
C441 H459 0.931 . S
C442 N439 1.311 . S
C442 N443 1.347 . S
C442 H453 0.929 . S
N443 C441 1.375 . S
N443 C442 1.347 . S
C444 C447 1.365 . S
C444 N449 1.328 . S
C444 H450 0.929 . S
C445 C446 1.362 . S
C445 C448 1.378 . S
C445 H460 0.929 . S
C446 C445 1.362 . S
C446 C447 1.366 . S
C447 C444 1.365 . S
C447 C446 1.366 . S
C447 H461 0.930 . S
C448 C445 1.378 . S
C448 N449 1.315 . S
C448 H451 0.930 . S
N449 Co429 2.194 . S
N449 C444 1.328 . S
N449 C448 1.315 . S
H450 C444 0.929 . S
H451 C448 0.930 . S
H452 C440 0.929 . S
H453 C442 0.929 . S
O454 Co429 2.351 . S
O454 C457 1.244 . S
O455 Co429 2.155 . S
O455 C457 1.240 . S
O456 Co429 2.096 . S
O456 C437 1.247 . S
C457 O454 1.244 . S
C457 O455 1.240 . S
H458 C432 0.931 . S
H459 C441 0.931 . S
H460 C445 0.929 . S
H461 C447 0.930 . S
Co462 N466 2.148 . S
Co462 N472 2.128 . S
Co462 N482 2.194 . S
Co462 O487 2.351 . S
Co462 O488 2.155 . S
Co462 O489 2.096 . S
C463 N466 1.301 . S
C463 N467 1.328 . S
C463 H468 0.930 . S
C464 C465 1.333 . S
C464 N466 1.317 . S
C464 H469 0.930 . S
C465 C464 1.333 . S
C465 N467 1.350 . S
C465 H491 0.931 . S
N466 Co462 2.148 . S
N466 C463 1.301 . S
N466 C464 1.317 . S
N467 C463 1.328 . S
N467 C465 1.350 . S
H468 C463 0.930 . S
H469 C464 0.930 . S
C470 O471 1.224 . S
C470 O489 1.247 . S
O471 C470 1.224 . S
N472 Co462 2.128 . S
N472 C473 1.355 . S
N472 C475 1.311 . S
C473 N472 1.355 . S
C473 C474 1.363 . S
C473 H485 0.929 . S
C474 C473 1.363 . S
C474 N476 1.375 . S
C474 H492 0.931 . S
C475 N472 1.311 . S
C475 N476 1.347 . S
C475 H486 0.929 . S
N476 C474 1.375 . S
N476 C475 1.347 . S
C477 C480 1.365 . S
C477 N482 1.328 . S
C477 H483 0.929 . S
C478 C479 1.362 . S
C478 C481 1.378 . S
C478 H493 0.929 . S
C479 C478 1.362 . S
C479 C480 1.366 . S
C480 C477 1.365 . S
C480 C479 1.366 . S
C480 H494 0.930 . S
C481 C478 1.378 . S
C481 N482 1.315 . S
C481 H484 0.930 . S
N482 Co462 2.194 . S
N482 C477 1.328 . S
N482 C481 1.315 . S
H483 C477 0.929 . S
H484 C481 0.930 . S
H485 C473 0.929 . S
H486 C475 0.929 . S
O487 Co462 2.351 . S
O487 C490 1.244 . S
O488 Co462 2.155 . S
O488 C490 1.240 . S
O489 Co462 2.096 . S
O489 C470 1.247 . S
C490 O487 1.244 . S
C490 O488 1.240 . S
H491 C465 0.931 . S
H492 C474 0.931 . S
H493 C478 0.929 . S
H494 C480 0.930 . S
Co495 N499 2.148 . S
Co495 N505 2.128 . S
Co495 N515 2.194 . S
Co495 O520 2.351 . S
Co495 O521 2.155 . S
Co495 O522 2.096 1_655 S
C496 N499 1.301 . S
C496 N500 1.328 1_545 S
C496 H501 0.930 . S
C497 C498 1.333 1_545 S
C497 N499 1.317 . S
C497 H502 0.930 1_655 S
C498 C497 1.333 1_565 S
C498 N500 1.350 . S
C498 H524 0.931 . S
N499 Co495 2.148 . S
N499 C496 1.301 . S
N499 C497 1.317 . S
N500 C496 1.328 1_565 S
N500 C498 1.350 . S
H501 C496 0.930 . S
H502 C497 0.930 1_455 S
C503 O504 1.224 . S
C503 O522 1.247 . S
O504 C503 1.224 . S
N505 Co495 2.128 . S
N505 C506 1.355 . S
N505 C508 1.311 1_655 S
C506 N505 1.355 . S
C506 C507 1.363 . S
C506 H518 0.929 . S
C507 C506 1.363 . S
C507 N509 1.375 1_655 S
C507 H525 0.931 . S
C508 N505 1.311 1_455 S
C508 N509 1.347 . S
C508 H519 0.929 . S
N509 C507 1.375 1_455 S
N509 C508 1.347 . S
C510 C513 1.365 . S
C510 N515 1.328 . S
C510 H516 0.929 . S
C511 C512 1.342 1_455 S
C511 C514 1.376 1_455 S
C511 H526 0.952 . S
C512 C511 1.342 1_655 S
C512 C513 1.366 . S
C513 C510 1.365 . S
C513 C512 1.366 . S
C513 H527 0.930 . S
C514 C511 1.376 1_655 S
C514 N515 1.315 . S
C514 H517 0.930 1_655 S
N515 Co495 2.194 . S
N515 C510 1.328 . S
N515 C514 1.315 . S
H516 C510 0.929 . S
H517 C514 0.930 1_455 S
H518 C506 0.929 . S
H519 C508 0.929 . S
O520 Co495 2.351 . S
O520 C523 1.244 . S
O521 Co495 2.155 . S
O521 C523 1.240 . S
O522 Co495 2.096 1_455 S
O522 C503 1.247 . S
C523 O520 1.244 . S
C523 O521 1.240 . S
H524 C498 0.931 . S
H525 C507 0.931 . S
H526 C511 0.952 . S
H527 C513 0.930 . S
Co528 N532 2.148 . S
Co528 N538 2.128 . S
Co528 N548 2.194 . S
Co528 O553 2.351 . S
Co528 O554 2.155 . S
Co528 O555 2.096 . S
C529 N532 1.301 . S
C529 N533 1.328 . S
C529 H534 0.930 . S
C530 C531 1.333 . S
C530 N532 1.317 . S
C530 H535 0.930 . S
C531 C530 1.333 . S
C531 N533 1.350 . S
C531 H557 0.931 . S
N532 Co528 2.148 . S
N532 C529 1.301 . S
N532 C530 1.317 . S
N533 C529 1.328 . S
N533 C531 1.350 . S
H534 C529 0.930 . S
H535 C530 0.930 . S
C536 O537 1.224 . S
C536 O555 1.247 . S
O537 C536 1.224 . S
N538 Co528 2.128 . S
N538 C539 1.355 . S
N538 C541 1.311 . S
C539 N538 1.355 . S
C539 C540 1.363 . S
C539 H551 0.929 . S
C540 C539 1.363 . S
C540 N542 1.375 . S
C540 H558 0.931 . S
C541 N538 1.311 . S
C541 N542 1.347 . S
C541 H552 0.929 . S
N542 C540 1.375 . S
N542 C541 1.347 . S
C543 C546 1.365 . S
C543 N548 1.328 . S
C543 H549 0.929 . S
C544 C545 1.362 . S
C544 C547 1.378 . S
C544 H559 0.929 . S
C545 C544 1.362 . S
C545 C546 1.366 . S
C546 C543 1.365 . S
C546 C545 1.366 . S
C546 H560 0.930 . S
C547 C544 1.378 . S
C547 N548 1.315 . S
C547 H550 0.930 . S
N548 Co528 2.194 . S
N548 C543 1.328 . S
N548 C547 1.315 . S
H549 C543 0.929 . S
H550 C547 0.930 . S
H551 C539 0.929 . S
H552 C541 0.929 . S
O553 Co528 2.351 . S
O553 C556 1.244 . S
O554 Co528 2.155 . S
O554 C556 1.240 . S
O555 Co528 2.096 . S
O555 C536 1.247 . S
C556 O553 1.244 . S
C556 O554 1.240 . S
H557 C531 0.931 . S
H558 C540 0.931 . S
H559 C544 0.929 . S
H560 C546 0.930 . S
Co561 N565 2.148 . S
Co561 N571 2.128 . S
Co561 N581 2.194 . S
Co561 O586 2.351 . S
Co561 O587 2.155 . S
Co561 O588 2.096 . S
C562 N565 1.301 . S
C562 N566 1.328 . S
C562 H567 0.930 . S
C563 C564 1.333 . S
C563 N565 1.317 . S
C563 H568 0.930 . S
C564 C563 1.333 . S
C564 N566 1.350 . S
C564 H590 0.931 . S
N565 Co561 2.148 . S
N565 C562 1.301 . S
N565 C563 1.317 . S
N566 C562 1.328 . S
N566 C564 1.350 . S
H567 C562 0.930 . S
H568 C563 0.930 . S
C569 O570 1.224 . S
C569 O588 1.247 . S
O570 C569 1.224 . S
N571 Co561 2.128 . S
N571 C572 1.355 . S
N571 C574 1.311 . S
C572 N571 1.355 . S
C572 C573 1.363 . S
C572 H584 0.929 . S
C573 C572 1.363 . S
C573 N575 1.375 . S
C573 H591 0.931 . S
C574 N571 1.311 . S
C574 N575 1.347 . S
C574 H585 0.929 . S
N575 C573 1.375 . S
N575 C574 1.347 . S
C576 C579 1.365 . S
C576 N581 1.328 . S
C576 H582 0.929 . S
C577 C578 1.362 . S
C577 C580 1.378 . S
C577 H592 0.929 . S
C578 C577 1.362 . S
C578 C579 1.366 . S
C579 C576 1.365 . S
C579 C578 1.366 . S
C579 H593 0.930 . S
C580 C577 1.378 . S
C580 N581 1.315 . S
C580 H583 0.930 . S
N581 Co561 2.194 . S
N581 C576 1.328 . S
N581 C580 1.315 . S
H582 C576 0.929 . S
H583 C580 0.930 . S
H584 C572 0.929 . S
H585 C574 0.929 . S
O586 Co561 2.351 . S
O586 C589 1.244 . S
O587 Co561 2.155 . S
O587 C589 1.240 . S
O588 Co561 2.096 . S
O588 C569 1.247 . S
C589 O586 1.244 . S
C589 O587 1.240 . S
H590 C564 0.931 . S
H591 C573 0.931 . S
H592 C577 0.929 . S
H593 C579 0.930 . S
Co594 N598 2.148 . S
Co594 N604 2.128 . S
Co594 N614 2.194 . S
Co594 O619 2.351 . S
Co594 O620 2.155 . S
Co594 O621 2.096 . S
C595 N598 1.301 . S
C595 N599 1.328 . S
C595 H600 0.930 . S
C596 C597 1.333 . S
C596 N598 1.317 . S
C596 H601 0.930 . S
C597 C596 1.333 . S
C597 N599 1.350 . S
C597 H623 0.931 . S
N598 Co594 2.148 . S
N598 C595 1.301 . S
N598 C596 1.317 . S
N599 C595 1.328 . S
N599 C597 1.350 . S
H600 C595 0.930 . S
H601 C596 0.930 . S
C602 O603 1.224 . S
C602 O621 1.247 . S
O603 C602 1.224 . S
N604 Co594 2.128 . S
N604 C605 1.355 . S
N604 C607 1.311 . S
C605 N604 1.355 . S
C605 C606 1.363 . S
C605 H617 0.929 . S
C606 C605 1.363 . S
C606 N608 1.375 . S
C606 H624 0.931 . S
C607 N604 1.311 . S
C607 N608 1.347 . S
C607 H618 0.929 . S
N608 C606 1.375 . S
N608 C607 1.347 . S
C609 C612 1.365 . S
C609 N614 1.328 . S
C609 H615 0.929 . S
C610 C611 1.362 . S
C610 C613 1.378 . S
C610 H625 0.929 . S
C611 C610 1.362 . S
C611 C612 1.366 . S
C612 C609 1.365 . S
C612 C611 1.366 . S
C612 H626 0.930 . S
C613 C610 1.378 . S
C613 N614 1.315 . S
C613 H616 0.930 . S
N614 Co594 2.194 . S
N614 C609 1.328 . S
N614 C613 1.315 . S
H615 C609 0.929 . S
H616 C613 0.930 . S
H617 C605 0.929 . S
H618 C607 0.929 . S
O619 Co594 2.351 . S
O619 C622 1.244 . S
O620 Co594 2.155 . S
O620 C622 1.240 . S
O621 Co594 2.096 . S
O621 C602 1.247 . S
C622 O619 1.244 . S
C622 O620 1.240 . S
H623 C597 0.931 . S
H624 C606 0.931 . S
H625 C610 0.929 . S
H626 C612 0.930 . S
Co627 N631 2.148 . S
Co627 N637 2.128 . S
Co627 N647 2.194 . S
Co627 O652 2.351 . S
Co627 O653 2.155 . S
Co627 O654 2.096 1_655 S
C628 N631 1.301 . S
C628 N632 1.328 . S
C628 H633 0.930 . S
C629 C630 1.333 . S
C629 N631 1.317 . S
C629 H634 0.930 1_655 S
C630 C629 1.333 . S
C630 N632 1.350 . S
C630 H656 0.931 . S
N631 Co627 2.148 . S
N631 C628 1.301 . S
N631 C629 1.317 . S
N632 C628 1.328 . S
N632 C630 1.350 . S
H633 C628 0.930 . S
H634 C629 0.930 1_455 S
C635 O636 1.224 . S
C635 O654 1.247 . S
O636 C635 1.224 . S
N637 Co627 2.128 . S
N637 C638 1.355 . S
N637 C640 1.311 1_655 S
C638 N637 1.355 . S
C638 C639 1.363 . S
C638 H650 0.929 . S
C639 C638 1.363 . S
C639 N641 1.375 1_655 S
C639 H657 0.931 . S
C640 N637 1.311 1_455 S
C640 N641 1.347 . S
C640 H651 0.929 . S
N641 C639 1.375 1_455 S
N641 C640 1.347 . S
C642 C645 1.365 . S
C642 N647 1.328 . S
C642 H648 0.929 . S
C643 C644 1.342 1_455 S
C643 C646 1.376 1_455 S
C643 H658 0.952 . S
C644 C643 1.342 1_655 S
C644 C645 1.366 . S
C645 C642 1.365 . S
C645 C644 1.366 . S
C645 H659 0.930 . S
C646 C643 1.376 1_655 S
C646 N647 1.315 . S
C646 H649 0.930 1_655 S
N647 Co627 2.194 . S
N647 C642 1.328 . S
N647 C646 1.315 . S
H648 C642 0.929 . S
H649 C646 0.930 1_455 S
H650 C638 0.929 . S
H651 C640 0.929 . S
O652 Co627 2.351 . S
O652 C655 1.244 . S
O653 Co627 2.155 . S
O653 C655 1.240 . S
O654 Co627 2.096 1_455 S
O654 C635 1.247 . S
C655 O652 1.244 . S
C655 O653 1.240 . S
H656 C630 0.931 . S
H657 C639 0.931 . S
H658 C643 0.952 . S
H659 C645 0.930 . S
Co660 N664 2.148 . S
Co660 N670 2.128 . S
Co660 N680 2.194 . S
Co660 O685 2.351 . S
Co660 O686 2.155 . S
Co660 O687 2.096 . S
C661 N664 1.301 . S
C661 N665 1.328 . S
C661 H666 0.930 . S
C662 C663 1.333 . S
C662 N664 1.317 . S
C662 H667 0.930 . S
C663 C662 1.333 . S
C663 N665 1.350 . S
C663 H689 0.931 . S
N664 Co660 2.148 . S
N664 C661 1.301 . S
N664 C662 1.317 . S
N665 C661 1.328 . S
N665 C663 1.350 . S
H666 C661 0.930 . S
H667 C662 0.930 . S
C668 O669 1.224 . S
C668 O687 1.247 . S
O669 C668 1.224 . S
N670 Co660 2.128 . S
N670 C671 1.355 . S
N670 C673 1.311 . S
C671 N670 1.355 . S
C671 C672 1.363 . S
C671 H683 0.929 . S
C672 C671 1.363 . S
C672 N674 1.375 . S
C672 H690 0.931 . S
C673 N670 1.311 . S
C673 N674 1.347 . S
C673 H684 0.929 . S
N674 C672 1.375 . S
N674 C673 1.347 . S
C675 C678 1.365 . S
C675 N680 1.328 . S
C675 H681 0.929 . S
C676 C677 1.362 . S
C676 C679 1.378 . S
C676 H691 0.929 . S
C677 C676 1.362 . S
C677 C678 1.366 . S
C678 C675 1.365 . S
C678 C677 1.366 . S
C678 H692 0.930 . S
C679 C676 1.378 . S
C679 N680 1.315 . S
C679 H682 0.930 . S
N680 Co660 2.194 . S
N680 C675 1.328 . S
N680 C679 1.315 . S
H681 C675 0.929 . S
H682 C679 0.930 . S
H683 C671 0.929 . S
H684 C673 0.929 . S
O685 Co660 2.351 . S
O685 C688 1.244 . S
O686 Co660 2.155 . S
O686 C688 1.240 . S
O687 Co660 2.096 . S
O687 C668 1.247 . S
C688 O685 1.244 . S
C688 O686 1.240 . S
H689 C663 0.931 . S
H690 C672 0.931 . S
H691 C676 0.929 . S
H692 C678 0.930 . S
Co693 N697 2.148 . S
Co693 N703 2.128 . S
Co693 N713 2.194 . S
Co693 O718 2.351 . S
Co693 O719 2.155 . S
Co693 O720 2.096 1_655 S
C694 N697 1.301 . S
C694 N698 1.328 . S
C694 H699 0.930 . S
C695 C696 1.333 . S
C695 N697 1.317 . S
C695 H700 0.930 1_655 S
C696 C695 1.333 . S
C696 N698 1.350 . S
C696 H722 0.931 . S
N697 Co693 2.148 . S
N697 C694 1.301 . S
N697 C695 1.317 . S
N698 C694 1.328 . S
N698 C696 1.350 . S
H699 C694 0.930 . S
H700 C695 0.930 1_455 S
C701 O702 1.224 . S
C701 O720 1.247 . S
O702 C701 1.224 . S
N703 Co693 2.128 . S
N703 C704 1.355 . S
N703 C706 1.311 1_655 S
C704 N703 1.355 . S
C704 C705 1.363 . S
C704 H716 0.929 . S
C705 C704 1.363 . S
C705 N707 1.375 1_655 S
C705 H723 0.931 . S
C706 N703 1.311 1_455 S
C706 N707 1.347 . S
C706 H717 0.929 . S
N707 C705 1.375 1_455 S
N707 C706 1.347 . S
C708 C711 1.365 . S
C708 N713 1.328 . S
C708 H714 0.929 . S
C709 C710 1.342 1_455 S
C709 C712 1.376 1_455 S
C709 H724 0.952 . S
C710 C709 1.342 1_655 S
C710 C711 1.366 . S
C711 C708 1.365 . S
C711 C710 1.366 . S
C711 H725 0.930 . S
C712 C709 1.376 1_655 S
C712 N713 1.315 . S
C712 H715 0.930 1_655 S
N713 Co693 2.194 . S
N713 C708 1.328 . S
N713 C712 1.315 . S
H714 C708 0.929 . S
H715 C712 0.930 1_455 S
H716 C704 0.929 . S
H717 C706 0.929 . S
O718 Co693 2.351 . S
O718 C721 1.244 . S
O719 Co693 2.155 . S
O719 C721 1.240 . S
O720 Co693 2.096 1_455 S
O720 C701 1.247 . S
C721 O718 1.244 . S
C721 O719 1.240 . S
H722 C696 0.931 . S
H723 C705 0.931 . S
H724 C709 0.952 . S
H725 C711 0.930 . S
Co726 N730 2.148 . S
Co726 N736 2.128 . S
Co726 N746 2.194 . S
Co726 O751 2.351 . S
Co726 O752 2.155 . S
Co726 O753 2.096 . S
C727 N730 1.301 . S
C727 N731 1.328 . S
C727 H732 0.930 . S
C728 C729 1.333 . S
C728 N730 1.317 . S
C728 H733 0.930 . S
C729 C728 1.333 . S
C729 N731 1.350 . S
C729 H755 0.931 . S
N730 Co726 2.148 . S
N730 C727 1.301 . S
N730 C728 1.317 . S
N731 C727 1.328 . S
N731 C729 1.350 . S
H732 C727 0.930 . S
H733 C728 0.930 . S
C734 O735 1.224 . S
C734 O753 1.247 . S
O735 C734 1.224 . S
N736 Co726 2.128 . S
N736 C737 1.355 . S
N736 C739 1.311 . S
C737 N736 1.355 . S
C737 C738 1.363 . S
C737 H749 0.929 . S
C738 C737 1.363 . S
C738 N740 1.375 . S
C738 H756 0.931 . S
C739 N736 1.311 . S
C739 N740 1.347 . S
C739 H750 0.929 . S
N740 C738 1.375 . S
N740 C739 1.347 . S
C741 C744 1.365 . S
C741 N746 1.328 . S
C741 H747 0.929 . S
C742 C743 1.362 . S
C742 C745 1.378 . S
C742 H757 0.929 . S
C743 C742 1.362 . S
C743 C744 1.366 . S
C744 C741 1.365 . S
C744 C743 1.366 . S
C744 H758 0.930 . S
C745 C742 1.378 . S
C745 N746 1.315 . S
C745 H748 0.930 . S
N746 Co726 2.194 . S
N746 C741 1.328 . S
N746 C745 1.315 . S
H747 C741 0.929 . S
H748 C745 0.930 . S
H749 C737 0.929 . S
H750 C739 0.929 . S
O751 Co726 2.351 . S
O751 C754 1.244 . S
O752 Co726 2.155 . S
O752 C754 1.240 . S
O753 Co726 2.096 . S
O753 C734 1.247 . S
C754 O751 1.244 . S
C754 O752 1.240 . S
H755 C729 0.931 . S
H756 C738 0.931 . S
H757 C742 0.929 . S
H758 C744 0.930 . S
Co759 N763 2.148 . S
Co759 N769 2.128 . S
Co759 N779 2.194 . S
Co759 O784 2.351 . S
Co759 O785 2.155 . S
Co759 O786 2.096 . S
C760 N763 1.301 . S
C760 N764 1.328 . S
C760 H765 0.930 . S
C761 C762 1.333 . S
C761 N763 1.317 . S
C761 H766 0.930 . S
C762 C761 1.333 . S
C762 N764 1.350 . S
C762 H788 0.931 . S
N763 Co759 2.148 . S
N763 C760 1.301 . S
N763 C761 1.317 . S
N764 C760 1.328 . S
N764 C762 1.350 . S
H765 C760 0.930 . S
H766 C761 0.930 . S
C767 O768 1.224 . S
C767 O786 1.247 . S
O768 C767 1.224 . S
N769 Co759 2.128 . S
N769 C770 1.355 . S
N769 C772 1.311 . S
C770 N769 1.355 . S
C770 C771 1.363 . S
C770 H782 0.929 . S
C771 C770 1.363 . S
C771 N773 1.375 . S
C771 H789 0.931 . S
C772 N769 1.311 . S
C772 N773 1.347 . S
C772 H783 0.929 . S
N773 C771 1.375 . S
N773 C772 1.347 . S
C774 C777 1.365 . S
C774 N779 1.328 . S
C774 H780 0.929 . S
C775 C776 1.362 . S
C775 C778 1.378 . S
C775 H790 0.929 . S
C776 C775 1.362 . S
C776 C777 1.366 . S
C777 C774 1.365 . S
C777 C776 1.366 . S
C777 H791 0.930 . S
C778 C775 1.378 . S
C778 N779 1.315 . S
C778 H781 0.930 . S
N779 Co759 2.194 . S
N779 C774 1.328 . S
N779 C778 1.315 . S
H780 C774 0.929 . S
H781 C778 0.930 . S
H782 C770 0.929 . S
H783 C772 0.929 . S
O784 Co759 2.351 . S
O784 C787 1.244 . S
O785 Co759 2.155 . S
O785 C787 1.240 . S
O786 Co759 2.096 . S
O786 C767 1.247 . S
C787 O784 1.244 . S
C787 O785 1.240 . S
H788 C762 0.931 . S
H789 C771 0.931 . S
H790 C775 0.929 . S
H791 C777 0.930 . S
Co792 N796 2.148 . S
Co792 N802 2.128 . S
Co792 N812 2.194 . S
Co792 O817 2.351 . S
Co792 O818 2.155 . S
Co792 O819 2.096 . S
C793 N796 1.301 . S
C793 N797 1.328 . S
C793 H798 0.930 . S
C794 C795 1.333 . S
C794 N796 1.317 . S
C794 H799 0.930 . S
C795 C794 1.333 . S
C795 N797 1.350 . S
C795 H821 0.931 . S
N796 Co792 2.148 . S
N796 C793 1.301 . S
N796 C794 1.317 . S
N797 C793 1.328 . S
N797 C795 1.350 . S
H798 C793 0.930 . S
H799 C794 0.930 . S
C800 O801 1.224 . S
C800 O819 1.247 . S
O801 C800 1.224 . S
N802 Co792 2.128 . S
N802 C803 1.355 . S
N802 C805 1.311 . S
C803 N802 1.355 . S
C803 C804 1.363 . S
C803 H815 0.929 . S
C804 C803 1.363 . S
C804 N806 1.375 . S
C804 H822 0.931 . S
C805 N802 1.311 . S
C805 N806 1.347 . S
C805 H816 0.929 . S
N806 C804 1.375 . S
N806 C805 1.347 . S
C807 C810 1.365 . S
C807 N812 1.328 . S
C807 H813 0.929 . S
C808 C809 1.362 . S
C808 C811 1.378 . S
C808 H823 0.929 . S
C809 C808 1.362 . S
C809 C810 1.366 . S
C810 C807 1.365 . S
C810 C809 1.366 . S
C810 H824 0.930 . S
C811 C808 1.378 . S
C811 N812 1.315 . S
C811 H814 0.930 . S
N812 Co792 2.194 . S
N812 C807 1.328 . S
N812 C811 1.315 . S
H813 C807 0.929 . S
H814 C811 0.930 . S
H815 C803 0.929 . S
H816 C805 0.929 . S
O817 Co792 2.351 . S
O817 C820 1.244 . S
O818 Co792 2.155 . S
O818 C820 1.240 . S
O819 Co792 2.096 . S
O819 C800 1.247 . S
C820 O817 1.244 . S
C820 O818 1.240 . S
H821 C795 0.931 . S
H822 C804 0.931 . S
H823 C808 0.929 . S
H824 C810 0.930 . S
Co825 N829 2.148 . S
Co825 N835 2.128 . S
Co825 N845 2.194 . S
Co825 O850 2.351 . S
Co825 O851 2.155 . S
Co825 O852 2.096 . S
C826 N829 1.301 . S
C826 N830 1.328 . S
C826 H831 0.930 . S
C827 C828 1.333 . S
C827 N829 1.317 . S
C827 H832 0.930 . S
C828 C827 1.333 . S
C828 N830 1.350 . S
C828 H854 0.931 . S
N829 Co825 2.148 . S
N829 C826 1.301 . S
N829 C827 1.317 . S
N830 C826 1.328 . S
N830 C828 1.350 . S
H831 C826 0.930 . S
H832 C827 0.930 . S
C833 O834 1.224 . S
C833 O852 1.247 . S
O834 C833 1.224 . S
N835 Co825 2.128 . S
N835 C836 1.355 . S
N835 C838 1.311 . S
C836 N835 1.355 . S
C836 C837 1.363 . S
C836 H848 0.929 . S
C837 C836 1.363 . S
C837 N839 1.375 . S
C837 H855 0.931 . S
C838 N835 1.311 . S
C838 N839 1.347 . S
C838 H849 0.929 . S
N839 C837 1.375 . S
N839 C838 1.347 . S
C840 C843 1.365 . S
C840 N845 1.328 . S
C840 H846 0.929 . S
C841 C842 1.362 . S
C841 C844 1.378 . S
C841 H856 0.929 . S
C842 C841 1.362 . S
C842 C843 1.366 . S
C843 C840 1.365 . S
C843 C842 1.366 . S
C843 H857 0.930 . S
C844 C841 1.378 . S
C844 N845 1.315 . S
C844 H847 0.930 . S
N845 Co825 2.194 . S
N845 C840 1.328 . S
N845 C844 1.315 . S
H846 C840 0.929 . S
H847 C844 0.930 . S
H848 C836 0.929 . S
H849 C838 0.929 . S
O850 Co825 2.351 . S
O850 C853 1.244 . S
O851 Co825 2.155 . S
O851 C853 1.240 . S
O852 Co825 2.096 . S
O852 C833 1.247 . S
C853 O850 1.244 . S
C853 O851 1.240 . S
H854 C828 0.931 . S
H855 C837 0.931 . S
H856 C841 0.929 . S
H857 C843 0.930 . S
Co858 N862 2.148 . S
Co858 N868 2.128 . S
Co858 N878 2.194 . S
Co858 O883 2.351 . S
Co858 O884 2.155 . S
Co858 O885 2.096 . S
C859 N862 1.301 . S
C859 N863 1.328 . S
C859 H864 0.930 . S
C860 C861 1.333 . S
C860 N862 1.317 . S
C860 H865 0.930 . S
C861 C860 1.333 . S
C861 N863 1.350 . S
C861 H887 0.931 . S
N862 Co858 2.148 . S
N862 C859 1.301 . S
N862 C860 1.317 . S
N863 C859 1.328 . S
N863 C861 1.350 . S
H864 C859 0.930 . S
H865 C860 0.930 . S
C866 O867 1.224 . S
C866 O885 1.247 . S
O867 C866 1.224 . S
N868 Co858 2.128 . S
N868 C869 1.355 . S
N868 C871 1.311 . S
C869 N868 1.355 . S
C869 C870 1.363 . S
C869 H881 0.929 . S
C870 C869 1.363 . S
C870 N872 1.375 . S
C870 H888 0.931 . S
C871 N868 1.311 . S
C871 N872 1.347 . S
C871 H882 0.929 . S
N872 C870 1.375 . S
N872 C871 1.347 . S
C873 C876 1.365 . S
C873 N878 1.328 . S
C873 H879 0.929 . S
C874 C875 1.362 . S
C874 C877 1.378 . S
C874 H889 0.929 . S
C875 C874 1.362 . S
C875 C876 1.366 . S
C876 C873 1.365 . S
C876 C875 1.366 . S
C876 H890 0.930 . S
C877 C874 1.378 . S
C877 N878 1.315 . S
C877 H880 0.930 . S
N878 Co858 2.194 . S
N878 C873 1.328 . S
N878 C877 1.315 . S
H879 C873 0.929 . S
H880 C877 0.930 . S
H881 C869 0.929 . S
H882 C871 0.929 . S
O883 Co858 2.351 . S
O883 C886 1.244 . S
O884 Co858 2.155 . S
O884 C886 1.240 . S
O885 Co858 2.096 . S
O885 C866 1.247 . S
C886 O883 1.244 . S
C886 O884 1.240 . S
H887 C861 0.931 . S
H888 C870 0.931 . S
H889 C874 0.929 . S
H890 C876 0.930 . S
Co891 N895 2.148 . S
Co891 N901 2.128 . S
Co891 N911 2.194 . S
Co891 O916 2.351 . S
Co891 O917 2.155 . S
Co891 O918 2.096 1_455 S
C892 N895 1.301 . S
C892 N896 1.328 . S
C892 H897 0.930 . S
C893 C894 1.333 . S
C893 N895 1.317 . S
C893 H898 0.930 1_455 S
C894 C893 1.333 . S
C894 N896 1.350 . S
C894 H920 0.931 . S
N895 Co891 2.148 . S
N895 C892 1.301 . S
N895 C893 1.317 . S
N896 C892 1.328 . S
N896 C894 1.350 . S
H897 C892 0.930 . S
H898 C893 0.930 1_655 S
C899 O900 1.224 . S
C899 O918 1.247 . S
O900 C899 1.224 . S
N901 Co891 2.128 . S
N901 C902 1.355 . S
N901 C904 1.311 1_455 S
C902 N901 1.355 . S
C902 C903 1.363 . S
C902 H914 0.929 . S
C903 C902 1.363 . S
C903 N905 1.375 1_455 S
C903 H921 0.931 . S
C904 N901 1.311 1_655 S
C904 N905 1.347 . S
C904 H915 0.929 . S
N905 C903 1.375 1_655 S
N905 C904 1.347 . S
C906 C909 1.365 . S
C906 N911 1.328 . S
C906 H912 0.929 . S
C907 C908 1.342 1_655 S
C907 C910 1.376 1_655 S
C907 H922 0.952 . S
C908 C907 1.342 1_455 S
C908 C909 1.366 . S
C909 C906 1.365 . S
C909 C908 1.366 . S
C909 H923 0.930 . S
C910 C907 1.376 1_455 S
C910 N911 1.315 . S
C910 H913 0.930 1_455 S
N911 Co891 2.194 . S
N911 C906 1.328 . S
N911 C910 1.315 . S
H912 C906 0.929 . S
H913 C910 0.930 1_655 S
H914 C902 0.929 . S
H915 C904 0.929 . S
O916 Co891 2.351 . S
O916 C919 1.244 . S
O917 Co891 2.155 . S
O917 C919 1.240 . S
O918 Co891 2.096 1_655 S
O918 C899 1.247 . S
C919 O916 1.244 . S
C919 O917 1.240 . S
H920 C894 0.931 . S
H921 C903 0.931 . S
H922 C907 0.952 . S
H923 C909 0.930 . S
Co924 N928 2.148 . S
Co924 N934 2.128 . S
Co924 N944 2.194 . S
Co924 O949 2.351 . S
Co924 O950 2.155 . S
Co924 O951 2.096 . S
C925 N928 1.301 . S
C925 N929 1.328 . S
C925 H930 0.930 . S
C926 C927 1.333 . S
C926 N928 1.317 . S
C926 H931 0.930 . S
C927 C926 1.333 . S
C927 N929 1.350 . S
C927 H953 0.931 . S
N928 Co924 2.148 . S
N928 C925 1.301 . S
N928 C926 1.317 . S
N929 C925 1.328 . S
N929 C927 1.350 . S
H930 C925 0.930 . S
H931 C926 0.930 . S
C932 O933 1.224 . S
C932 O951 1.247 . S
O933 C932 1.224 . S
N934 Co924 2.128 . S
N934 C935 1.355 . S
N934 C937 1.311 . S
C935 N934 1.355 . S
C935 C936 1.363 . S
C935 H947 0.929 . S
C936 C935 1.363 . S
C936 N938 1.375 . S
C936 H954 0.931 . S
C937 N934 1.311 . S
C937 N938 1.347 . S
C937 H948 0.929 . S
N938 C936 1.375 . S
N938 C937 1.347 . S
C939 C942 1.365 . S
C939 N944 1.328 . S
C939 H945 0.929 . S
C940 C941 1.362 . S
C940 C943 1.378 . S
C940 H955 0.929 . S
C941 C940 1.362 . S
C941 C942 1.366 . S
C942 C939 1.365 . S
C942 C941 1.366 . S
C942 H956 0.930 . S
C943 C940 1.378 . S
C943 N944 1.315 . S
C943 H946 0.930 . S
N944 Co924 2.194 . S
N944 C939 1.328 . S
N944 C943 1.315 . S
H945 C939 0.929 . S
H946 C943 0.930 . S
H947 C935 0.929 . S
H948 C937 0.929 . S
O949 Co924 2.351 . S
O949 C952 1.244 . S
O950 Co924 2.155 . S
O950 C952 1.240 . S
O951 Co924 2.096 . S
O951 C932 1.247 . S
C952 O949 1.244 . S
C952 O950 1.240 . S
H953 C927 0.931 . S
H954 C936 0.931 . S
H955 C940 0.929 . S
H956 C942 0.930 . S
Co957 N961 2.148 . S
Co957 N967 2.128 . S
Co957 N977 2.194 . S
Co957 O982 2.351 . S
Co957 O983 2.155 . S
Co957 O984 2.096 1_455 S
C958 N961 1.301 . S
C958 N962 1.328 . S
C958 H963 0.930 . S
C959 C960 1.333 . S
C959 N961 1.317 . S
C959 H964 0.930 1_455 S
C960 C959 1.333 . S
C960 N962 1.350 . S
C960 H986 0.931 . S
N961 Co957 2.148 . S
N961 C958 1.301 . S
N961 C959 1.317 . S
N962 C958 1.328 . S
N962 C960 1.350 . S
H963 C958 0.930 . S
H964 C959 0.930 1_655 S
C965 O966 1.224 . S
C965 O984 1.247 . S
O966 C965 1.224 . S
N967 Co957 2.128 . S
N967 C968 1.355 . S
N967 C970 1.311 1_455 S
C968 N967 1.355 . S
C968 C969 1.363 . S
C968 H980 0.929 . S
C969 C968 1.363 . S
C969 N971 1.375 1_455 S
C969 H987 0.931 . S
C970 N967 1.311 1_655 S
C970 N971 1.347 . S
C970 H981 0.929 . S
N971 C969 1.375 1_655 S
N971 C970 1.347 . S
C972 C975 1.365 . S
C972 N977 1.328 . S
C972 H978 0.929 . S
C973 C974 1.342 1_655 S
C973 C976 1.376 1_655 S
C973 H988 0.952 . S
C974 C973 1.342 1_455 S
C974 C975 1.366 . S
C975 C972 1.365 . S
C975 C974 1.366 . S
C975 H989 0.930 . S
C976 C973 1.376 1_455 S
C976 N977 1.315 . S
C976 H979 0.930 1_455 S
N977 Co957 2.194 . S
N977 C972 1.328 . S
N977 C976 1.315 . S
H978 C972 0.929 . S
H979 C976 0.930 1_655 S
H980 C968 0.929 . S
H981 C970 0.929 . S
O982 Co957 2.351 . S
O982 C985 1.244 . S
O983 Co957 2.155 . S
O983 C985 1.240 . S
O984 Co957 2.096 1_655 S
O984 C965 1.247 . S
C985 O982 1.244 . S
C985 O983 1.240 . S
H986 C960 0.931 . S
H987 C969 0.931 . S
H988 C973 0.952 . S
H989 C975 0.930 . S
Co990 N994 2.148 . S
Co990 N1000 2.128 . S
Co990 N1010 2.194 . S
Co990 O1015 2.351 . S
Co990 O1016 2.155 . S
Co990 O1017 2.096 . S
C991 N994 1.301 . S
C991 N995 1.328 . S
C991 H996 0.930 . S
C992 C993 1.333 . S
C992 N994 1.317 . S
C992 H997 0.930 . S
C993 C992 1.333 . S
C993 N995 1.350 . S
C993 H1019 0.931 . S
N994 Co990 2.148 . S
N994 C991 1.301 . S
N994 C992 1.317 . S
N995 C991 1.328 . S
N995 C993 1.350 . S
H996 C991 0.930 . S
H997 C992 0.930 . S
C998 O999 1.224 . S
C998 O1017 1.247 . S
O999 C998 1.224 . S
N1000 Co990 2.128 . S
N1000 C1001 1.355 . S
N1000 C1003 1.311 . S
C1001 N1000 1.355 . S
C1001 C1002 1.363 . S
C1001 H1013 0.929 . S
C1002 C1001 1.363 . S
C1002 N1004 1.375 . S
C1002 H1020 0.931 . S
C1003 N1000 1.311 . S
C1003 N1004 1.347 . S
C1003 H1014 0.929 . S
N1004 C1002 1.375 . S
N1004 C1003 1.347 . S
C1005 C1008 1.365 . S
C1005 N1010 1.328 . S
C1005 H1011 0.929 . S
C1006 C1007 1.362 . S
C1006 C1009 1.378 . S
C1006 H1021 0.929 . S
C1007 C1006 1.362 . S
C1007 C1008 1.366 . S
C1008 C1005 1.365 . S
C1008 C1007 1.366 . S
C1008 H1022 0.930 . S
C1009 C1006 1.378 . S
C1009 N1010 1.315 . S
C1009 H1012 0.930 . S
N1010 Co990 2.194 . S
N1010 C1005 1.328 . S
N1010 C1009 1.315 . S
H1011 C1005 0.929 . S
H1012 C1009 0.930 . S
H1013 C1001 0.929 . S
H1014 C1003 0.929 . S
O1015 Co990 2.351 . S
O1015 C1018 1.244 . S
O1016 Co990 2.155 . S
O1016 C1018 1.240 . S
O1017 Co990 2.096 . S
O1017 C998 1.247 . S
C1018 O1015 1.244 . S
C1018 O1016 1.240 . S
H1019 C993 0.931 . S
H1020 C1002 0.931 . S
H1021 C1006 0.929 . S
H1022 C1008 0.930 . S
Co1023 N1027 2.148 . S
Co1023 N1033 2.128 . S
Co1023 N1043 2.194 . S
Co1023 O1048 2.351 . S
Co1023 O1049 2.155 . S
Co1023 O1050 2.096 . S
C1024 N1027 1.301 . S
C1024 N1028 1.328 . S
C1024 H1029 0.930 . S
C1025 C1026 1.333 . S
C1025 N1027 1.317 . S
C1025 H1030 0.930 . S
C1026 C1025 1.333 . S
C1026 N1028 1.350 . S
C1026 H1052 0.931 . S
N1027 Co1023 2.148 . S
N1027 C1024 1.301 . S
N1027 C1025 1.317 . S
N1028 C1024 1.328 . S
N1028 C1026 1.350 . S
H1029 C1024 0.930 . S
H1030 C1025 0.930 . S
C1031 O1032 1.224 . S
C1031 O1050 1.247 . S
O1032 C1031 1.224 . S
N1033 Co1023 2.128 . S
N1033 C1034 1.355 . S
N1033 C1036 1.311 . S
C1034 N1033 1.355 . S
C1034 C1035 1.363 . S
C1034 H1046 0.929 . S
C1035 C1034 1.363 . S
C1035 N1037 1.375 . S
C1035 H1053 0.931 . S
C1036 N1033 1.311 . S
C1036 N1037 1.347 . S
C1036 H1047 0.929 . S
N1037 C1035 1.375 . S
N1037 C1036 1.347 . S
C1038 C1041 1.365 . S
C1038 N1043 1.328 . S
C1038 H1044 0.929 . S
C1039 C1040 1.362 . S
C1039 C1042 1.378 . S
C1039 H1054 0.929 . S
C1040 C1039 1.362 . S
C1040 C1041 1.366 . S
C1041 C1038 1.365 . S
C1041 C1040 1.366 . S
C1041 H1055 0.930 . S
C1042 C1039 1.378 . S
C1042 N1043 1.315 . S
C1042 H1045 0.930 . S
N1043 Co1023 2.194 . S
N1043 C1038 1.328 . S
N1043 C1042 1.315 . S
H1044 C1038 0.929 . S
H1045 C1042 0.930 . S
H1046 C1034 0.929 . S
H1047 C1036 0.929 . S
O1048 Co1023 2.351 . S
O1048 C1051 1.244 . S
O1049 Co1023 2.155 . S
O1049 C1051 1.240 . S
O1050 Co1023 2.096 . S
O1050 C1031 1.247 . S
C1051 O1048 1.244 . S
C1051 O1049 1.240 . S
H1052 C1026 0.931 . S
H1053 C1035 0.931 . S
H1054 C1039 0.929 . S
H1055 C1041 0.930 . S
H1056 C1064 0.950 . S
H1057 C1069 0.950 . S
H1058 C1066 0.950 . S
H1059 C1068 0.950 . S
H1060 C1070 0.950 . S
H1061 C1072 0.950 . S
H1062 C1074 0.950 . S
H1063 C1075 0.950 . S
C1064 H1056 0.950 . S
C1064 C1065 1.386 . S
C1064 C1066 1.391 . S
C1065 C1064 1.386 . S
C1065 C1069 1.393 . S
C1066 H1058 0.950 . S
C1066 C1064 1.391 . S
C1066 C1067 1.400 . S
C1067 C1066 1.400 . S
C1067 C1068 1.398 . S
C1067 C1073 1.491 . S
C1068 H1059 0.950 . S
C1068 C1067 1.398 . S
C1068 C1069 1.391 . S
C1069 H1057 0.950 . S
C1069 C1065 1.393 . S
C1069 C1068 1.391 . S
C1070 H1060 0.950 . S
C1070 C1071 1.386 . S
C1070 C1072 1.391 . S
C1071 C1070 1.386 . S
C1071 C1075 1.393 . S
C1072 H1061 0.950 . S
C1072 C1070 1.391 . S
C1072 C1073 1.400 . S
C1073 C1067 1.491 . S
C1073 C1072 1.400 . S
C1073 C1074 1.398 . S
C1074 H1062 0.950 . S
C1074 C1073 1.398 . S
C1074 C1075 1.391 . S
C1075 H1063 0.950 . S
C1075 C1071 1.393 . S
C1075 C1074 1.391 . S
H1076 C1084 0.950 . S
H1077 C1089 0.950 . S
H1078 C1086 0.950 . S
H1079 C1088 0.950 . S
H1080 C1090 0.950 . S
H1081 C1092 0.950 . S
H1082 C1094 0.950 . S
H1083 C1095 0.950 . S
C1084 H1076 0.950 . S
C1084 C1085 1.386 1_455 S
C1084 C1086 1.391 . S
C1085 C1084 1.386 1_655 S
C1085 C1089 1.393 . S
C1086 H1078 0.950 . S
C1086 C1084 1.391 . S
C1086 C1087 1.400 1_455 S
C1087 C1086 1.400 1_655 S
C1087 C1088 1.398 . S
C1087 C1093 1.491 1_655 S
C1088 H1079 0.950 . S
C1088 C1087 1.398 . S
C1088 C1089 1.391 . S
C1089 H1077 0.950 . S
C1089 C1085 1.393 . S
C1089 C1088 1.391 . S
C1090 H1080 0.950 . S
C1090 C1091 1.386 1_655 S
C1090 C1092 1.391 . S
C1091 C1090 1.386 1_455 S
C1091 C1095 1.393 . S
C1092 H1081 0.950 . S
C1092 C1090 1.391 . S
C1092 C1093 1.400 1_655 S
C1093 C1087 1.491 1_455 S
C1093 C1092 1.400 1_455 S
C1093 C1094 1.398 . S
C1094 H1082 0.950 . S
C1094 C1093 1.398 . S
C1094 C1095 1.391 . S
C1095 H1083 0.950 . S
C1095 C1091 1.393 . S
C1095 C1094 1.391 . S
H1096 C1104 0.950 . S
H1097 C1109 0.950 . S
H1098 C1106 0.950 . S
H1099 C1108 0.950 . S
H1100 C1110 0.950 . S
H1101 C1112 0.950 . S
H1102 C1114 0.950 . S
H1103 C1115 0.950 . S
C1104 H1096 0.950 . S
C1104 C1105 1.386 . S
C1104 C1106 1.391 . S
C1105 C1104 1.386 . S
C1105 C1109 1.393 . S
C1106 H1098 0.950 . S
C1106 C1104 1.391 . S
C1106 C1107 1.400 . S
C1107 C1106 1.400 . S
C1107 C1108 1.398 . S
C1107 C1113 1.491 1_455 S
C1108 H1099 0.950 . S
C1108 C1107 1.398 . S
C1108 C1109 1.391 . S
C1109 H1097 0.950 . S
C1109 C1105 1.393 . S
C1109 C1108 1.391 . S
C1110 H1100 0.950 . S
C1110 C1111 1.386 . S
C1110 C1112 1.391 . S
C1111 C1110 1.386 . S
C1111 C1115 1.393 . S
C1112 H1101 0.950 . S
C1112 C1110 1.391 . S
C1112 C1113 1.400 . S
C1113 C1107 1.491 1_655 S
C1113 C1112 1.400 . S
C1113 C1114 1.398 . S
C1114 H1102 0.950 . S
C1114 C1113 1.398 . S
C1114 C1115 1.391 . S
C1115 H1103 0.950 . S
C1115 C1111 1.393 . S
C1115 C1114 1.391 . S
H1116 C1124 0.950 . S
H1117 C1129 0.950 . S
H1118 C1126 0.950 . S
H1119 C1128 0.950 . S
H1120 C1130 0.950 . S
H1121 C1132 0.950 . S
H1122 C1134 0.950 . S
H1123 C1135 0.950 . S
C1124 H1116 0.950 . S
C1124 C1125 1.386 . S
C1124 C1126 1.391 . S
C1125 C1124 1.386 . S
C1125 C1129 1.393 . S
C1126 H1118 0.950 . S
C1126 C1124 1.391 . S
C1126 C1127 1.400 . S
C1127 C1126 1.400 . S
C1127 C1128 1.398 . S
C1127 C1133 1.491 . S
C1128 H1119 0.950 . S
C1128 C1127 1.398 . S
C1128 C1129 1.391 . S
C1129 H1117 0.950 . S
C1129 C1125 1.393 . S
C1129 C1128 1.391 . S
C1130 H1120 0.950 . S
C1130 C1131 1.386 . S
C1130 C1132 1.391 . S
C1131 C1130 1.386 . S
C1131 C1135 1.393 . S
C1132 H1121 0.950 . S
C1132 C1130 1.391 . S
C1132 C1133 1.400 . S
C1133 C1127 1.491 . S
C1133 C1132 1.400 . S
C1133 C1134 1.398 . S
C1134 H1122 0.950 . S
C1134 C1133 1.398 . S
C1134 C1135 1.391 . S
C1135 H1123 0.950 . S
C1135 C1131 1.393 . S
C1135 C1134 1.391 . S
H1136 C1144 0.950 . S
H1137 C1149 0.950 . S
H1138 C1146 0.950 . S
H1139 C1148 0.950 . S
H1140 C1150 0.950 . S
H1141 C1152 0.950 . S
H1142 C1154 0.950 . S
H1143 C1155 0.950 . S
C1144 H1136 0.950 . S
C1144 C1145 1.386 . S
C1144 C1146 1.391 . S
C1145 C1144 1.386 . S
C1145 C1149 1.393 . S
C1146 H1138 0.950 . S
C1146 C1144 1.391 . S
C1146 C1147 1.400 . S
C1147 C1146 1.400 . S
C1147 C1148 1.398 . S
C1147 C1153 1.491 . S
C1148 H1139 0.950 . S
C1148 C1147 1.398 . S
C1148 C1149 1.391 . S
C1149 H1137 0.950 . S
C1149 C1145 1.393 . S
C1149 C1148 1.391 . S
C1150 H1140 0.950 . S
C1150 C1151 1.386 . S
C1150 C1152 1.391 . S
C1151 C1150 1.386 . S
C1151 C1155 1.393 . S
C1152 H1141 0.950 . S
C1152 C1150 1.391 . S
C1152 C1153 1.400 . S
C1153 C1147 1.491 . S
C1153 C1152 1.400 . S
C1153 C1154 1.398 . S
C1154 H1142 0.950 . S
C1154 C1153 1.398 . S
C1154 C1155 1.391 . S
C1155 H1143 0.950 . S
C1155 C1151 1.393 . S
C1155 C1154 1.391 . S
H1156 C1164 0.950 . S
H1157 C1169 0.950 . S
H1158 C1166 0.950 . S
H1159 C1168 0.950 . S
H1160 C1170 0.950 . S
H1161 C1172 0.950 . S
H1162 C1174 0.950 . S
H1163 C1175 0.950 . S
C1164 H1156 0.950 . S
C1164 C1165 1.386 . S
C1164 C1166 1.391 . S
C1165 C1164 1.386 . S
C1165 C1169 1.393 . S
C1166 H1158 0.950 . S
C1166 C1164 1.391 . S
C1166 C1167 1.400 . S
C1167 C1166 1.400 . S
C1167 C1168 1.398 . S
C1167 C1173 1.491 . S
C1168 H1159 0.950 . S
C1168 C1167 1.398 . S
C1168 C1169 1.391 . S
C1169 H1157 0.950 . S
C1169 C1165 1.393 . S
C1169 C1168 1.391 . S
C1170 H1160 0.950 . S
C1170 C1171 1.386 . S
C1170 C1172 1.391 . S
C1171 C1170 1.386 . S
C1171 C1175 1.393 . S
C1172 H1161 0.950 . S
C1172 C1170 1.391 . S
C1172 C1173 1.400 . S
C1173 C1167 1.491 . S
C1173 C1172 1.400 . S
C1173 C1174 1.398 . S
C1174 H1162 0.950 . S
C1174 C1173 1.398 . S
C1174 C1175 1.391 . S
C1175 H1163 0.950 . S
C1175 C1171 1.393 . S
C1175 C1174 1.391 . S
H1176 C1184 0.950 . S
H1177 C1189 0.950 . S
H1178 C1186 0.950 . S
H1179 C1188 0.950 . S
H1180 C1190 0.950 . S
H1181 C1192 0.950 . S
H1182 C1194 0.950 . S
H1183 C1195 0.950 . S
C1184 H1176 0.950 . S
C1184 C1185 1.386 . S
C1184 C1186 1.391 . S
C1185 C1184 1.386 . S
C1185 C1189 1.393 . S
C1186 H1178 0.950 . S
C1186 C1184 1.391 . S
C1186 C1187 1.400 . S
C1187 C1186 1.400 . S
C1187 C1188 1.398 . S
C1187 C1193 1.491 1_455 S
C1188 H1179 0.950 . S
C1188 C1187 1.398 . S
C1188 C1189 1.391 . S
C1189 H1177 0.950 . S
C1189 C1185 1.393 . S
C1189 C1188 1.391 . S
C1190 H1180 0.950 . S
C1190 C1191 1.386 . S
C1190 C1192 1.391 . S
C1191 C1190 1.386 . S
C1191 C1195 1.393 . S
C1192 H1181 0.950 . S
C1192 C1190 1.391 . S
C1192 C1193 1.400 . S
C1193 C1187 1.491 1_655 S
C1193 C1192 1.400 . S
C1193 C1194 1.398 . S
C1194 H1182 0.950 . S
C1194 C1193 1.398 . S
C1194 C1195 1.391 . S
C1195 H1183 0.950 . S
C1195 C1191 1.393 . S
C1195 C1194 1.391 . S
H1196 C1204 0.950 . S
H1197 C1209 0.950 . S
H1198 C1206 0.950 . S
H1199 C1208 0.950 . S
H1200 C1210 0.950 . S
H1201 C1212 0.950 . S
H1202 C1214 0.950 . S
H1203 C1215 0.950 . S
C1204 H1196 0.950 . S
C1204 C1205 1.386 1_455 S
C1204 C1206 1.391 . S
C1205 C1204 1.386 1_655 S
C1205 C1209 1.393 . S
C1206 H1198 0.950 . S
C1206 C1204 1.391 . S
C1206 C1207 1.400 1_455 S
C1207 C1206 1.400 1_655 S
C1207 C1208 1.398 . S
C1207 C1213 1.491 1_655 S
C1208 H1199 0.950 . S
C1208 C1207 1.398 . S
C1208 C1209 1.391 . S
C1209 H1197 0.950 . S
C1209 C1205 1.393 . S
C1209 C1208 1.391 . S
C1210 H1200 0.950 . S
C1210 C1211 1.386 1_655 S
C1210 C1212 1.391 . S
C1211 C1210 1.386 1_455 S
C1211 C1215 1.393 . S
C1212 H1201 0.950 . S
C1212 C1210 1.391 . S
C1212 C1213 1.400 1_655 S
C1213 C1207 1.491 1_455 S
C1213 C1212 1.400 1_455 S
C1213 C1214 1.398 . S
C1214 H1202 0.950 . S
C1214 C1213 1.398 . S
C1214 C1215 1.391 . S
C1215 H1203 0.950 . S
C1215 C1211 1.393 . S
C1215 C1214 1.391 . S
H1216 C1224 0.950 . S
H1217 C1229 0.950 . S
H1218 C1226 0.950 . S
H1219 C1228 0.950 . S
H1220 C1230 0.950 . S
H1221 C1232 0.950 . S
H1222 C1234 0.950 . S
H1223 C1235 0.950 . S
C1224 H1216 0.950 . S
C1224 C1225 1.386 . S
C1224 C1226 1.391 . S
C1225 C1224 1.386 . S
C1225 C1229 1.393 . S
C1226 H1218 0.950 . S
C1226 C1224 1.391 . S
C1226 C1227 1.400 . S
C1227 C1226 1.400 . S
C1227 C1228 1.398 . S
C1227 C1233 1.491 . S
C1228 H1219 0.950 . S
C1228 C1227 1.398 . S
C1228 C1229 1.391 . S
C1229 H1217 0.950 . S
C1229 C1225 1.393 . S
C1229 C1228 1.391 . S
C1230 H1220 0.950 . S
C1230 C1231 1.386 . S
C1230 C1232 1.391 . S
C1231 C1230 1.386 . S
C1231 C1235 1.393 . S
C1232 H1221 0.950 . S
C1232 C1230 1.391 . S
C1232 C1233 1.400 . S
C1233 C1227 1.491 . S
C1233 C1232 1.400 . S
C1233 C1234 1.398 . S
C1234 H1222 0.950 . S
C1234 C1233 1.398 . S
C1234 C1235 1.391 . S
C1235 H1223 0.950 . S
C1235 C1231 1.393 . S
C1235 C1234 1.391 . S
H1236 C1244 0.950 . S
H1237 C1249 0.950 . S
H1238 C1246 0.950 . S
H1239 C1248 0.950 . S
H1240 C1250 0.950 . S
H1241 C1252 0.950 . S
H1242 C1254 0.950 . S
H1243 C1255 0.950 . S
C1244 H1236 0.950 . S
C1244 C1245 1.386 1_455 S
C1244 C1246 1.391 . S
C1245 C1244 1.386 1_655 S
C1245 C1249 1.393 . S
C1246 H1238 0.950 . S
C1246 C1244 1.391 . S
C1246 C1247 1.400 1_455 S
C1247 C1246 1.400 1_655 S
C1247 C1248 1.398 . S
C1247 C1253 1.491 1_655 S
C1248 H1239 0.950 . S
C1248 C1247 1.398 . S
C1248 C1249 1.391 . S
C1249 H1237 0.950 . S
C1249 C1245 1.393 . S
C1249 C1248 1.391 . S
C1250 H1240 0.950 . S
C1250 C1251 1.386 1_655 S
C1250 C1252 1.391 . S
C1251 C1250 1.386 1_455 S
C1251 C1255 1.393 . S
C1252 H1241 0.950 . S
C1252 C1250 1.391 . S
C1252 C1253 1.400 1_655 S
C1253 C1247 1.491 1_455 S
C1253 C1252 1.400 1_455 S
C1253 C1254 1.398 . S
C1254 H1242 0.950 . S
C1254 C1253 1.398 . S
C1254 C1255 1.391 . S
C1255 H1243 0.950 . S
C1255 C1251 1.393 . S
C1255 C1254 1.391 . S
H1256 C1264 0.950 . S
H1257 C1269 0.950 . S
H1258 C1266 0.950 . S
H1259 C1268 0.950 . S
H1260 C1270 0.950 . S
H1261 C1272 0.950 . S
H1262 C1274 0.950 . S
H1263 C1275 0.950 . S
C1264 H1256 0.950 . S
C1264 C1265 1.386 . S
C1264 C1266 1.391 . S
C1265 C1264 1.386 . S
C1265 C1269 1.393 . S
C1266 H1258 0.950 . S
C1266 C1264 1.391 . S
C1266 C1267 1.400 . S
C1267 C1266 1.400 . S
C1267 C1268 1.398 . S
C1267 C1273 1.491 1_655 S
C1268 H1259 0.950 . S
C1268 C1267 1.398 . S
C1268 C1269 1.391 . S
C1269 H1257 0.950 . S
C1269 C1265 1.393 . S
C1269 C1268 1.391 . S
C1270 H1260 0.950 . S
C1270 C1271 1.386 . S
C1270 C1272 1.391 . S
C1271 C1270 1.386 . S
C1271 C1275 1.393 . S
C1272 H1261 0.950 . S
C1272 C1270 1.391 . S
C1272 C1273 1.400 . S
C1273 C1267 1.491 1_455 S
C1273 C1272 1.400 . S
C1273 C1274 1.398 . S
C1274 H1262 0.950 . S
C1274 C1273 1.398 . S
C1274 C1275 1.391 . S
C1275 H1263 0.950 . S
C1275 C1271 1.393 . S
C1275 C1274 1.391 . S
H1276 C1284 0.950 . S
H1277 C1289 0.950 . S
H1278 C1286 0.950 . S
H1279 C1288 0.950 . S
H1280 C1290 0.950 . S
H1281 C1292 0.950 . S
H1282 C1294 0.950 . S
H1283 C1295 0.950 . S
C1284 H1276 0.950 . S
C1284 C1285 1.386 . S
C1284 C1286 1.391 . S
C1285 C1284 1.386 . S
C1285 C1289 1.393 . S
C1286 H1278 0.950 . S
C1286 C1284 1.391 . S
C1286 C1287 1.400 . S
C1287 C1286 1.400 . S
C1287 C1288 1.398 . S
C1287 C1293 1.491 . S
C1288 H1279 0.950 . S
C1288 C1287 1.398 . S
C1288 C1289 1.391 . S
C1289 H1277 0.950 . S
C1289 C1285 1.393 . S
C1289 C1288 1.391 . S
C1290 H1280 0.950 . S
C1290 C1291 1.386 . S
C1290 C1292 1.391 . S
C1291 C1290 1.386 . S
C1291 C1295 1.393 . S
C1292 H1281 0.950 . S
C1292 C1290 1.391 . S
C1292 C1293 1.400 . S
C1293 C1287 1.491 . S
C1293 C1292 1.400 . S
C1293 C1294 1.398 . S
C1294 H1282 0.950 . S
C1294 C1293 1.398 . S
C1294 C1295 1.391 . S
C1295 H1283 0.950 . S
C1295 C1291 1.393 . S
C1295 C1294 1.391 . S
H1296 C1304 0.950 . S
H1297 C1309 0.950 . S
H1298 C1306 0.950 . S
H1299 C1308 0.950 . S
H1300 C1310 0.950 . S
H1301 C1312 0.950 . S
H1302 C1314 0.950 . S
H1303 C1315 0.950 . S
C1304 H1296 0.950 . S
C1304 C1305 1.386 . S
C1304 C1306 1.391 . S
C1305 C1304 1.386 . S
C1305 C1309 1.393 . S
C1306 H1298 0.950 . S
C1306 C1304 1.391 . S
C1306 C1307 1.400 . S
C1307 C1306 1.400 . S
C1307 C1308 1.398 . S
C1307 C1313 1.491 . S
C1308 H1299 0.950 . S
C1308 C1307 1.398 . S
C1308 C1309 1.391 . S
C1309 H1297 0.950 . S
C1309 C1305 1.393 . S
C1309 C1308 1.391 . S
C1310 H1300 0.950 . S
C1310 C1311 1.386 . S
C1310 C1312 1.391 . S
C1311 C1310 1.386 . S
C1311 C1315 1.393 . S
C1312 H1301 0.950 . S
C1312 C1310 1.391 . S
C1312 C1313 1.400 . S
C1313 C1307 1.491 . S
C1313 C1312 1.400 . S
C1313 C1314 1.398 . S
C1314 H1302 0.950 . S
C1314 C1313 1.398 . S
C1314 C1315 1.391 . S
C1315 H1303 0.950 . S
C1315 C1311 1.393 . S
C1315 C1314 1.391 . S
H1316 C1324 0.950 . S
H1317 C1329 0.950 . S
H1318 C1326 0.950 . S
H1319 C1328 0.950 . S
H1320 C1330 0.950 . S
H1321 C1332 0.950 . S
H1322 C1334 0.950 . S
H1323 C1335 0.950 . S
C1324 H1316 0.950 . S
C1324 C1325 1.386 . S
C1324 C1326 1.391 . S
C1325 C1324 1.386 . S
C1325 C1329 1.393 . S
C1326 H1318 0.950 . S
C1326 C1324 1.391 . S
C1326 C1327 1.400 . S
C1327 C1326 1.400 . S
C1327 C1328 1.398 . S
C1327 C1333 1.491 . S
C1328 H1319 0.950 . S
C1328 C1327 1.398 . S
C1328 C1329 1.391 . S
C1329 H1317 0.950 . S
C1329 C1325 1.393 . S
C1329 C1328 1.391 . S
C1330 H1320 0.950 . S
C1330 C1331 1.386 . S
C1330 C1332 1.391 . S
C1331 C1330 1.386 . S
C1331 C1335 1.393 . S
C1332 H1321 0.950 . S
C1332 C1330 1.391 . S
C1332 C1333 1.400 . S
C1333 C1327 1.491 . S
C1333 C1332 1.400 . S
C1333 C1334 1.398 . S
C1334 H1322 0.950 . S
C1334 C1333 1.398 . S
C1334 C1335 1.391 . S
C1335 H1323 0.950 . S
C1335 C1331 1.393 . S
C1335 C1334 1.391 . S
H1336 C1344 0.950 . S
H1337 C1349 0.950 . S
H1338 C1346 0.950 . S
H1339 C1348 0.950 . S
H1340 C1350 0.950 . S
H1341 C1352 0.950 . S
H1342 C1354 0.950 . S
H1343 C1355 0.950 . S
C1344 H1336 0.950 . S
C1344 C1345 1.386 . S
C1344 C1346 1.391 . S
C1345 C1344 1.386 . S
C1345 C1349 1.393 . S
C1346 H1338 0.950 . S
C1346 C1344 1.391 . S
C1346 C1347 1.400 . S
C1347 C1346 1.400 . S
C1347 C1348 1.398 . S
C1347 C1353 1.491 1_455 S
C1348 H1339 0.950 . S
C1348 C1347 1.398 . S
C1348 C1349 1.391 . S
C1349 H1337 0.950 . S
C1349 C1345 1.393 . S
C1349 C1348 1.391 . S
C1350 H1340 0.950 . S
C1350 C1351 1.386 . S
C1350 C1352 1.391 . S
C1351 C1350 1.386 . S
C1351 C1355 1.393 . S
C1352 H1341 0.950 . S
C1352 C1350 1.391 . S
C1352 C1353 1.400 . S
C1353 C1347 1.491 1_655 S
C1353 C1352 1.400 . S
C1353 C1354 1.398 . S
C1354 H1342 0.950 . S
C1354 C1353 1.398 . S
C1354 C1355 1.391 . S
C1355 H1343 0.950 . S
C1355 C1351 1.393 . S
C1355 C1354 1.391 . S
H1356 C1364 0.950 . S
H1357 C1369 0.950 . S
H1358 C1366 0.950 . S
H1359 C1368 0.950 . S
H1360 C1370 0.950 . S
H1361 C1372 0.950 . S
H1362 C1374 0.950 . S
H1363 C1375 0.950 . S
C1364 H1356 0.950 . S
C1364 C1365 1.386 1_455 S
C1364 C1366 1.391 . S
C1365 C1364 1.386 1_655 S
C1365 C1369 1.393 . S
C1366 H1358 0.950 . S
C1366 C1364 1.391 . S
C1366 C1367 1.400 1_455 S
C1367 C1366 1.400 1_655 S
C1367 C1368 1.398 . S
C1367 C1373 1.491 1_655 S
C1368 H1359 0.950 . S
C1368 C1367 1.398 . S
C1368 C1369 1.391 . S
C1369 H1357 0.950 . S
C1369 C1365 1.393 . S
C1369 C1368 1.391 . S
C1370 H1360 0.950 . S
C1370 C1371 1.386 1_655 S
C1370 C1372 1.391 . S
C1371 C1370 1.386 1_455 S
C1371 C1375 1.393 . S
C1372 H1361 0.950 . S
C1372 C1370 1.391 . S
C1372 C1373 1.400 1_655 S
C1373 C1367 1.491 1_455 S
C1373 C1372 1.400 1_455 S
C1373 C1374 1.398 . S
C1374 H1362 0.950 . S
C1374 C1373 1.398 . S
C1374 C1375 1.391 . S
C1375 H1363 0.950 . S
C1375 C1371 1.393 . S
C1375 C1374 1.391 . S
H1376 C1384 0.950 . S
H1377 C1389 0.950 . S
H1378 C1386 0.950 . S
H1379 C1388 0.950 . S
H1380 C1390 0.950 . S
H1381 C1392 0.950 . S
H1382 C1394 0.950 . S
H1383 C1395 0.950 . S
C1384 H1376 0.950 . S
C1384 C1385 1.386 . S
C1384 C1386 1.391 . S
C1385 C1384 1.386 . S
C1385 C1389 1.393 . S
C1386 H1378 0.950 . S
C1386 C1384 1.391 . S
C1386 C1387 1.400 . S
C1387 C1386 1.400 . S
C1387 C1388 1.398 . S
C1387 C1393 1.491 . S
C1388 H1379 0.950 . S
C1388 C1387 1.398 . S
C1388 C1389 1.391 . S
C1389 H1377 0.950 . S
C1389 C1385 1.393 . S
C1389 C1388 1.391 . S
C1390 H1380 0.950 . S
C1390 C1391 1.386 . S
C1390 C1392 1.391 . S
C1391 C1390 1.386 . S
C1391 C1395 1.393 . S
C1392 H1381 0.950 . S
C1392 C1390 1.391 . S
C1392 C1393 1.400 . S
C1393 C1387 1.491 . S
C1393 C1392 1.400 . S
C1393 C1394 1.398 . S
C1394 H1382 0.950 . S
C1394 C1393 1.398 . S
C1394 C1395 1.391 . S
C1395 H1383 0.950 . S
C1395 C1391 1.393 . S
C1395 C1394 1.391 . S
H1396 C1404 0.950 . S
H1397 C1409 0.950 . S
H1398 C1406 0.950 . S
H1399 C1408 0.950 . S
H1400 C1410 0.950 . S
H1401 C1412 0.950 . S
H1402 C1414 0.950 . S
H1403 C1415 0.950 . S
C1404 H1396 0.950 . S
C1404 C1405 1.386 . S
C1404 C1406 1.391 . S
C1405 C1404 1.386 . S
C1405 C1409 1.393 . S
C1406 H1398 0.950 . S
C1406 C1404 1.391 . S
C1406 C1407 1.400 . S
C1407 C1406 1.400 . S
C1407 C1408 1.398 . S
C1407 C1413 1.491 . S
C1408 H1399 0.950 . S
C1408 C1407 1.398 . S
C1408 C1409 1.391 . S
C1409 H1397 0.950 . S
C1409 C1405 1.393 . S
C1409 C1408 1.391 . S
C1410 H1400 0.950 . S
C1410 C1411 1.386 . S
C1410 C1412 1.391 . S
C1411 C1410 1.386 . S
C1411 C1415 1.393 . S
C1412 H1401 0.950 . S
C1412 C1410 1.391 . S
C1412 C1413 1.400 . S
C1413 C1407 1.491 . S
C1413 C1412 1.400 . S
C1413 C1414 1.398 . S
C1414 H1402 0.950 . S
C1414 C1413 1.398 . S
C1414 C1415 1.391 . S
C1415 H1403 0.950 . S
C1415 C1411 1.393 . S
C1415 C1414 1.391 . S
H1416 C1424 0.950 . S
H1417 C1429 0.950 . S
H1418 C1426 0.950 . S
H1419 C1428 0.950 . S
H1420 C1430 0.950 . S
H1421 C1432 0.950 . S
H1422 C1434 0.950 . S
H1423 C1435 0.950 . S
C1424 H1416 0.950 . S
C1424 C1425 1.386 . S
C1424 C1426 1.391 . S
C1425 C1424 1.386 . S
C1425 C1429 1.393 . S
C1426 H1418 0.950 . S
C1426 C1424 1.391 . S
C1426 C1427 1.400 . S
C1427 C1426 1.400 . S
C1427 C1428 1.398 . S
C1427 C1433 1.491 . S
C1428 H1419 0.950 . S
C1428 C1427 1.398 . S
C1428 C1429 1.391 . S
C1429 H1417 0.950 . S
C1429 C1425 1.393 . S
C1429 C1428 1.391 . S
C1430 H1420 0.950 . S
C1430 C1431 1.386 . S
C1430 C1432 1.391 . S
C1431 C1430 1.386 . S
C1431 C1435 1.393 . S
C1432 H1421 0.950 . S
C1432 C1430 1.391 . S
C1432 C1433 1.400 . S
C1433 C1427 1.491 . S
C1433 C1432 1.400 . S
C1433 C1434 1.398 . S
C1434 H1422 0.950 . S
C1434 C1433 1.398 . S
C1434 C1435 1.391 . S
C1435 H1423 0.950 . S
C1435 C1431 1.393 . S
C1435 C1434 1.391 . S
H1436 C1444 0.950 . S
H1437 C1449 0.950 . S
H1438 C1446 0.950 . S
H1439 C1448 0.950 . S
H1440 C1450 0.950 . S
H1441 C1452 0.950 . S
H1442 C1454 0.950 . S
H1443 C1455 0.950 . S
C1444 H1436 0.950 . S
C1444 C1445 1.386 . S
C1444 C1446 1.391 . S
C1445 C1444 1.386 . S
C1445 C1449 1.393 . S
C1446 H1438 0.950 . S
C1446 C1444 1.391 . S
C1446 C1447 1.400 . S
C1447 C1446 1.400 . S
C1447 C1448 1.398 . S
C1447 C1453 1.491 . S
C1448 H1439 0.950 . S
C1448 C1447 1.398 . S
C1448 C1449 1.391 . S
C1449 H1437 0.950 . S
C1449 C1445 1.393 . S
C1449 C1448 1.391 . S
C1450 H1440 0.950 . S
C1450 C1451 1.386 . S
C1450 C1452 1.391 . S
C1451 C1450 1.386 . S
C1451 C1455 1.393 . S
C1452 H1441 0.950 . S
C1452 C1450 1.391 . S
C1452 C1453 1.400 . S
C1453 C1447 1.491 . S
C1453 C1452 1.400 . S
C1453 C1454 1.398 . S
C1454 H1442 0.950 . S
C1454 C1453 1.398 . S
C1454 C1455 1.391 . S
C1455 H1443 0.950 . S
C1455 C1451 1.393 . S
C1455 C1454 1.391 . S
H1456 C1464 0.950 . S
H1457 C1469 0.950 . S
H1458 C1466 0.950 . S
H1459 C1468 0.950 . S
H1460 C1470 0.950 . S
H1461 C1472 0.950 . S
H1462 C1474 0.950 . S
H1463 C1475 0.950 . S
C1464 H1456 0.950 . S
C1464 C1465 1.386 . S
C1464 C1466 1.391 . S
C1465 C1464 1.386 . S
C1465 C1469 1.393 . S
C1466 H1458 0.950 . S
C1466 C1464 1.391 . S
C1466 C1467 1.400 . S
C1467 C1466 1.400 . S
C1467 C1468 1.398 . S
C1467 C1473 1.491 . S
C1468 H1459 0.950 . S
C1468 C1467 1.398 . S
C1468 C1469 1.391 . S
C1469 H1457 0.950 . S
C1469 C1465 1.393 . S
C1469 C1468 1.391 . S
C1470 H1460 0.950 . S
C1470 C1471 1.386 . S
C1470 C1472 1.391 . S
C1471 C1470 1.386 . S
C1471 C1475 1.393 . S
C1472 H1461 0.950 . S
C1472 C1470 1.391 . S
C1472 C1473 1.400 . S
C1473 C1467 1.491 . S
C1473 C1472 1.400 . S
C1473 C1474 1.398 . S
C1474 H1462 0.950 . S
C1474 C1473 1.398 . S
C1474 C1475 1.391 . S
C1475 H1463 0.950 . S
C1475 C1471 1.393 . S
C1475 C1474 1.391 . S
H1476 C1484 0.950 . S
H1477 C1489 0.950 . S
H1478 C1486 0.950 . S
H1479 C1488 0.950 . S
H1480 C1490 0.950 . S
H1481 C1492 0.950 . S
H1482 C1494 0.950 . S
H1483 C1495 0.950 . S
C1484 H1476 0.950 . S
C1484 C1485 1.386 . S
C1484 C1486 1.391 . S
C1485 C1484 1.386 . S
C1485 C1489 1.393 . S
C1486 H1478 0.950 . S
C1486 C1484 1.391 . S
C1486 C1487 1.400 . S
C1487 C1486 1.400 . S
C1487 C1488 1.398 . S
C1487 C1493 1.491 . S
C1488 H1479 0.950 . S
C1488 C1487 1.398 . S
C1488 C1489 1.391 . S
C1489 H1477 0.950 . S
C1489 C1485 1.393 . S
C1489 C1488 1.391 . S
C1490 H1480 0.950 . S
C1490 C1491 1.386 . S
C1490 C1492 1.391 . S
C1491 C1490 1.386 . S
C1491 C1495 1.393 . S
C1492 H1481 0.950 . S
C1492 C1490 1.391 . S
C1492 C1493 1.400 . S
C1493 C1487 1.491 . S
C1493 C1492 1.400 . S
C1493 C1494 1.398 . S
C1494 H1482 0.950 . S
C1494 C1493 1.398 . S
C1494 C1495 1.391 . S
C1495 H1483 0.950 . S
C1495 C1491 1.393 . S
C1495 C1494 1.391 . S
H1496 C1504 0.950 . S
H1497 C1509 0.950 . S
H1498 C1506 0.950 . S
H1499 C1508 0.950 . S
H1500 C1510 0.950 . S
H1501 C1512 0.950 . S
H1502 C1514 0.950 . S
H1503 C1515 0.950 . S
C1504 H1496 0.950 . S
C1504 C1505 1.386 . S
C1504 C1506 1.391 . S
C1505 C1504 1.386 . S
C1505 C1509 1.393 . S
C1506 H1498 0.950 . S
C1506 C1504 1.391 . S
C1506 C1507 1.400 . S
C1507 C1506 1.400 . S
C1507 C1508 1.398 . S
C1507 C1513 1.491 . S
C1508 H1499 0.950 . S
C1508 C1507 1.398 . S
C1508 C1509 1.391 . S
C1509 H1497 0.950 . S
C1509 C1505 1.393 . S
C1509 C1508 1.391 . S
C1510 H1500 0.950 . S
C1510 C1511 1.386 . S
C1510 C1512 1.391 . S
C1511 C1510 1.386 . S
C1511 C1515 1.393 . S
C1512 H1501 0.950 . S
C1512 C1510 1.391 . S
C1512 C1513 1.400 . S
C1513 C1507 1.491 . S
C1513 C1512 1.400 . S
C1513 C1514 1.398 . S
C1514 H1502 0.950 . S
C1514 C1513 1.398 . S
C1514 C1515 1.391 . S
C1515 H1503 0.950 . S
C1515 C1511 1.393 . S
C1515 C1514 1.391 . S
H1516 C1524 0.950 . S
H1517 C1529 0.950 . S
H1518 C1526 0.950 . S
H1519 C1528 0.950 . S
H1520 C1530 0.950 . S
H1521 C1532 0.950 . S
H1522 C1534 0.950 . S
H1523 C1535 0.950 . S
C1524 H1516 0.950 . S
C1524 C1525 1.386 . S
C1524 C1526 1.391 . S
C1525 C1524 1.386 . S
C1525 C1529 1.393 . S
C1526 H1518 0.950 . S
C1526 C1524 1.391 . S
C1526 C1527 1.400 . S
C1527 C1526 1.400 . S
C1527 C1528 1.398 . S
C1527 C1533 1.491 . S
C1528 H1519 0.950 . S
C1528 C1527 1.398 . S
C1528 C1529 1.391 . S
C1529 H1517 0.950 . S
C1529 C1525 1.393 . S
C1529 C1528 1.391 . S
C1530 H1520 0.950 . S
C1530 C1531 1.386 . S
C1530 C1532 1.391 . S
C1531 C1530 1.386 . S
C1531 C1535 1.393 . S
C1532 H1521 0.950 . S
C1532 C1530 1.391 . S
C1532 C1533 1.400 . S
C1533 C1527 1.491 . S
C1533 C1532 1.400 . S
C1533 C1534 1.398 . S
C1534 H1522 0.950 . S
C1534 C1533 1.398 . S
C1534 C1535 1.391 . S
C1535 H1523 0.950 . S
C1535 C1531 1.393 . S
C1535 C1534 1.391 . S
H1536 C1544 0.950 . S
H1537 C1549 0.950 . S
H1538 C1546 0.950 . S
H1539 C1548 0.950 . S
H1540 C1550 0.950 . S
H1541 C1552 0.950 . S
H1542 C1554 0.950 . S
H1543 C1555 0.950 . S
C1544 H1536 0.950 . S
C1544 C1545 1.386 . S
C1544 C1546 1.391 . S
C1545 C1544 1.386 . S
C1545 C1549 1.393 . S
C1546 H1538 0.950 . S
C1546 C1544 1.391 . S
C1546 C1547 1.400 . S
C1547 C1546 1.400 . S
C1547 C1548 1.398 . S
C1547 C1553 1.491 . S
C1548 H1539 0.950 . S
C1548 C1547 1.398 . S
C1548 C1549 1.391 . S
C1549 H1537 0.950 . S
C1549 C1545 1.393 . S
C1549 C1548 1.391 . S
C1550 H1540 0.950 . S
C1550 C1551 1.386 . S
C1550 C1552 1.391 . S
C1551 C1550 1.386 . S
C1551 C1555 1.393 . S
C1552 H1541 0.950 . S
C1552 C1550 1.391 . S
C1552 C1553 1.400 . S
C1553 C1547 1.491 . S
C1553 C1552 1.400 . S
C1553 C1554 1.398 . S
C1554 H1542 0.950 . S
C1554 C1553 1.398 . S
C1554 C1555 1.391 . S
C1555 H1543 0.950 . S
C1555 C1551 1.393 . S
C1555 C1554 1.391 . S
H1556 C1564 0.950 . S
H1557 C1569 0.950 . S
H1558 C1566 0.950 . S
H1559 C1568 0.950 . S
H1560 C1570 0.950 . S
H1561 C1572 0.950 . S
H1562 C1574 0.950 . S
H1563 C1575 0.950 . S
C1564 H1556 0.950 . S
C1564 C1565 1.386 . S
C1564 C1566 1.391 . S
C1565 C1564 1.386 . S
C1565 C1569 1.393 . S
C1566 H1558 0.950 . S
C1566 C1564 1.391 . S
C1566 C1567 1.400 . S
C1567 C1566 1.400 . S
C1567 C1568 1.398 . S
C1567 C1573 1.491 . S
C1568 H1559 0.950 . S
C1568 C1567 1.398 . S
C1568 C1569 1.391 . S
C1569 H1557 0.950 . S
C1569 C1565 1.393 . S
C1569 C1568 1.391 . S
C1570 H1560 0.950 . S
C1570 C1571 1.386 . S
C1570 C1572 1.391 . S
C1571 C1570 1.386 . S
C1571 C1575 1.393 . S
C1572 H1561 0.950 . S
C1572 C1570 1.391 . S
C1572 C1573 1.400 . S
C1573 C1567 1.491 . S
C1573 C1572 1.400 . S
C1573 C1574 1.398 . S
C1574 H1562 0.950 . S
C1574 C1573 1.398 . S
C1574 C1575 1.391 . S
C1575 H1563 0.950 . S
C1575 C1571 1.393 . S
C1575 C1574 1.391 . S
H1576 C1584 0.950 . S
H1577 C1589 0.950 . S
H1578 C1586 0.950 . S
H1579 C1588 0.950 . S
H1580 C1590 0.950 . S
H1581 C1592 0.950 . S
H1582 C1594 0.950 . S
H1583 C1595 0.950 . S
C1584 H1576 0.950 . S
C1584 C1585 1.386 . S
C1584 C1586 1.391 . S
C1585 C1584 1.386 . S
C1585 C1589 1.393 . S
C1586 H1578 0.950 . S
C1586 C1584 1.391 . S
C1586 C1587 1.400 . S
C1587 C1586 1.400 . S
C1587 C1588 1.398 . S
C1587 C1593 1.491 . S
C1588 H1579 0.950 . S
C1588 C1587 1.398 . S
C1588 C1589 1.391 . S
C1589 H1577 0.950 . S
C1589 C1585 1.393 . S
C1589 C1588 1.391 . S
C1590 H1580 0.950 . S
C1590 C1591 1.386 . S
C1590 C1592 1.391 . S
C1591 C1590 1.386 . S
C1591 C1595 1.393 . S
C1592 H1581 0.950 . S
C1592 C1590 1.391 . S
C1592 C1593 1.400 . S
C1593 C1587 1.491 . S
C1593 C1592 1.400 . S
C1593 C1594 1.398 . S
C1594 H1582 0.950 . S
C1594 C1593 1.398 . S
C1594 C1595 1.391 . S
C1595 H1583 0.950 . S
C1595 C1591 1.393 . S
C1595 C1594 1.391 . S
H1596 C1604 0.950 . S
H1597 C1609 0.950 . S
H1598 C1606 0.950 . S
H1599 C1608 0.950 . S
H1600 C1610 0.950 . S
H1601 C1612 0.950 . S
H1602 C1614 0.950 . S
H1603 C1615 0.950 . S
C1604 H1596 0.950 . S
C1604 C1605 1.386 . S
C1604 C1606 1.391 . S
C1605 C1604 1.386 . S
C1605 C1609 1.393 . S
C1606 H1598 0.950 . S
C1606 C1604 1.391 . S
C1606 C1607 1.400 . S
C1607 C1606 1.400 . S
C1607 C1608 1.398 . S
C1607 C1613 1.491 . S
C1608 H1599 0.950 . S
C1608 C1607 1.398 . S
C1608 C1609 1.391 . S
C1609 H1597 0.950 . S
C1609 C1605 1.393 . S
C1609 C1608 1.391 . S
C1610 H1600 0.950 . S
C1610 C1611 1.386 . S
C1610 C1612 1.391 . S
C1611 C1610 1.386 . S
C1611 C1615 1.393 . S
C1612 H1601 0.950 . S
C1612 C1610 1.391 . S
C1612 C1613 1.400 . S
C1613 C1607 1.491 . S
C1613 C1612 1.400 . S
C1613 C1614 1.398 . S
C1614 H1602 0.950 . S
C1614 C1613 1.398 . S
C1614 C1615 1.391 . S
C1615 H1603 0.950 . S
C1615 C1611 1.393 . S
C1615 C1614 1.391 . S
H1616 C1624 0.950 . S
H1617 C1629 0.950 . S
H1618 C1626 0.950 . S
H1619 C1628 0.950 . S
H1620 C1630 0.950 . S
H1621 C1632 0.950 . S
H1622 C1634 0.950 . S
H1623 C1635 0.950 . S
C1624 H1616 0.950 . S
C1624 C1625 1.386 . S
C1624 C1626 1.391 . S
C1625 C1624 1.386 . S
C1625 C1629 1.393 . S
C1626 H1618 0.950 . S
C1626 C1624 1.391 . S
C1626 C1627 1.400 . S
C1627 C1626 1.400 . S
C1627 C1628 1.398 . S
C1627 C1633 1.491 . S
C1628 H1619 0.950 . S
C1628 C1627 1.398 . S
C1628 C1629 1.391 . S
C1629 H1617 0.950 . S
C1629 C1625 1.393 . S
C1629 C1628 1.391 . S
C1630 H1620 0.950 . S
C1630 C1631 1.386 . S
C1630 C1632 1.391 . S
C1631 C1630 1.386 . S
C1631 C1635 1.393 . S
C1632 H1621 0.950 . S
C1632 C1630 1.391 . S
C1632 C1633 1.400 . S
C1633 C1627 1.491 . S
C1633 C1632 1.400 . S
C1633 C1634 1.398 . S
C1634 H1622 0.950 . S
C1634 C1633 1.398 . S
C1634 C1635 1.391 . S
C1635 H1623 0.950 . S
C1635 C1631 1.393 . S
C1635 C1634 1.391 . S
H1636 C1644 0.950 . S
H1637 C1649 0.950 . S
H1638 C1646 0.950 . S
H1639 C1648 0.950 . S
H1640 C1650 0.950 . S
H1641 C1652 0.950 . S
H1642 C1654 0.950 . S
H1643 C1655 0.950 . S
C1644 H1636 0.950 . S
C1644 C1645 1.386 . S
C1644 C1646 1.391 . S
C1645 C1644 1.386 . S
C1645 C1649 1.393 . S
C1646 H1638 0.950 . S
C1646 C1644 1.391 . S
C1646 C1647 1.400 . S
C1647 C1646 1.400 . S
C1647 C1648 1.398 . S
C1647 C1653 1.491 . S
C1648 H1639 0.950 . S
C1648 C1647 1.398 . S
C1648 C1649 1.391 . S
C1649 H1637 0.950 . S
C1649 C1645 1.393 . S
C1649 C1648 1.391 . S
C1650 H1640 0.950 . S
C1650 C1651 1.386 . S
C1650 C1652 1.391 . S
C1651 C1650 1.386 . S
C1651 C1655 1.393 . S
C1652 H1641 0.950 . S
C1652 C1650 1.391 . S
C1652 C1653 1.400 . S
C1653 C1647 1.491 . S
C1653 C1652 1.400 . S
C1653 C1654 1.398 . S
C1654 H1642 0.950 . S
C1654 C1653 1.398 . S
C1654 C1655 1.391 . S
C1655 H1643 0.950 . S
C1655 C1651 1.393 . S
C1655 C1654 1.391 . S
H1656 C1664 0.950 . S
H1657 C1669 0.950 . S
H1658 C1666 0.950 . S
H1659 C1668 0.950 . S
H1660 C1670 0.950 . S
H1661 C1672 0.950 . S
H1662 C1674 0.950 . S
H1663 C1675 0.950 . S
C1664 H1656 0.950 . S
C1664 C1665 1.386 . S
C1664 C1666 1.391 . S
C1665 C1664 1.386 . S
C1665 C1669 1.393 . S
C1666 H1658 0.950 . S
C1666 C1664 1.391 . S
C1666 C1667 1.400 . S
C1667 C1666 1.400 . S
C1667 C1668 1.398 . S
C1667 C1673 1.491 . S
C1668 H1659 0.950 . S
C1668 C1667 1.398 . S
C1668 C1669 1.391 . S
C1669 H1657 0.950 . S
C1669 C1665 1.393 . S
C1669 C1668 1.391 . S
C1670 H1660 0.950 . S
C1670 C1671 1.386 . S
C1670 C1672 1.391 . S
C1671 C1670 1.386 . S
C1671 C1675 1.393 . S
C1672 H1661 0.950 . S
C1672 C1670 1.391 . S
C1672 C1673 1.400 . S
C1673 C1667 1.491 . S
C1673 C1672 1.400 . S
C1673 C1674 1.398 . S
C1674 H1662 0.950 . S
C1674 C1673 1.398 . S
C1674 C1675 1.391 . S
C1675 H1663 0.950 . S
C1675 C1671 1.393 . S
C1675 C1674 1.391 . S
H1676 C1684 0.950 . S
H1677 C1689 0.950 . S
H1678 C1686 0.950 . S
H1679 C1688 0.950 . S
H1680 C1690 0.950 . S
H1681 C1692 0.950 . S
H1682 C1694 0.950 . S
H1683 C1695 0.950 . S
C1684 H1676 0.950 . S
C1684 C1685 1.386 . S
C1684 C1686 1.391 . S
C1685 C1684 1.386 . S
C1685 C1689 1.393 . S
C1686 H1678 0.950 . S
C1686 C1684 1.391 . S
C1686 C1687 1.400 . S
C1687 C1686 1.400 . S
C1687 C1688 1.398 . S
C1687 C1693 1.491 . S
C1688 H1679 0.950 . S
C1688 C1687 1.398 . S
C1688 C1689 1.391 . S
C1689 H1677 0.950 . S
C1689 C1685 1.393 . S
C1689 C1688 1.391 . S
C1690 H1680 0.950 . S
C1690 C1691 1.386 . S
C1690 C1692 1.391 . S
C1691 C1690 1.386 . S
C1691 C1695 1.393 . S
C1692 H1681 0.950 . S
C1692 C1690 1.391 . S
C1692 C1693 1.400 . S
C1693 C1687 1.491 . S
C1693 C1692 1.400 . S
C1693 C1694 1.398 . S
C1694 H1682 0.950 . S
C1694 C1693 1.398 . S
C1694 C1695 1.391 . S
C1695 H1683 0.950 . S
C1695 C1691 1.393 . S
C1695 C1694 1.391 . S
H1696 C1704 0.950 . S
H1697 C1709 0.950 . S
H1698 C1706 0.950 . S
H1699 C1708 0.950 . S
H1700 C1710 0.950 . S
H1701 C1712 0.950 . S
H1702 C1714 0.950 . S
H1703 C1715 0.950 . S
C1704 H1696 0.950 . S
C1704 C1705 1.386 . S
C1704 C1706 1.391 . S
C1705 C1704 1.386 . S
C1705 C1709 1.393 . S
C1706 H1698 0.950 . S
C1706 C1704 1.391 . S
C1706 C1707 1.400 . S
C1707 C1706 1.400 . S
C1707 C1708 1.398 . S
C1707 C1713 1.491 . S
C1708 H1699 0.950 . S
C1708 C1707 1.398 . S
C1708 C1709 1.391 . S
C1709 H1697 0.950 . S
C1709 C1705 1.393 . S
C1709 C1708 1.391 . S
C1710 H1700 0.950 . S
C1710 C1711 1.386 . S
C1710 C1712 1.391 . S
C1711 C1710 1.386 . S
C1711 C1715 1.393 . S
C1712 H1701 0.950 . S
C1712 C1710 1.391 . S
C1712 C1713 1.400 . S
C1713 C1707 1.491 . S
C1713 C1712 1.400 . S
C1713 C1714 1.398 . S
C1714 H1702 0.950 . S
C1714 C1713 1.398 . S
C1714 C1715 1.391 . S
C1715 H1703 0.950 . S
C1715 C1711 1.393 . S
C1715 C1714 1.391 . S
H1716 C1724 0.950 . S
H1717 C1729 0.950 . S
H1718 C1726 0.950 . S
H1719 C1728 0.950 . S
H1720 C1730 0.950 . S
H1721 C1732 0.950 . S
H1722 C1734 0.950 . S
H1723 C1735 0.950 . S
C1724 H1716 0.950 . S
C1724 C1725 1.386 . S
C1724 C1726 1.391 . S
C1725 C1724 1.386 . S
C1725 C1729 1.393 . S
C1726 H1718 0.950 . S
C1726 C1724 1.391 . S
C1726 C1727 1.400 . S
C1727 C1726 1.400 . S
C1727 C1728 1.398 . S
C1727 C1733 1.491 . S
C1728 H1719 0.950 . S
C1728 C1727 1.398 . S
C1728 C1729 1.391 . S
C1729 H1717 0.950 . S
C1729 C1725 1.393 . S
C1729 C1728 1.391 . S
C1730 H1720 0.950 . S
C1730 C1731 1.386 . S
C1730 C1732 1.391 . S
C1731 C1730 1.386 . S
C1731 C1735 1.393 . S
C1732 H1721 0.950 . S
C1732 C1730 1.391 . S
C1732 C1733 1.400 . S
C1733 C1727 1.491 . S
C1733 C1732 1.400 . S
C1733 C1734 1.398 . S
C1734 H1722 0.950 . S
C1734 C1733 1.398 . S
C1734 C1735 1.391 . S
C1735 H1723 0.950 . S
C1735 C1731 1.393 . S
C1735 C1734 1.391 . S
H1736 C1744 0.950 . S
H1737 C1749 0.950 . S
H1738 C1746 0.950 . S
H1739 C1748 0.950 . S
H1740 C1750 0.950 . S
H1741 C1752 0.950 . S
H1742 C1754 0.950 . S
H1743 C1755 0.950 . S
C1744 H1736 0.950 . S
C1744 C1745 1.386 . S
C1744 C1746 1.391 . S
C1745 C1744 1.386 . S
C1745 C1749 1.393 . S
C1746 H1738 0.950 . S
C1746 C1744 1.391 . S
C1746 C1747 1.400 . S
C1747 C1746 1.400 . S
C1747 C1748 1.398 . S
C1747 C1753 1.491 . S
C1748 H1739 0.950 . S
C1748 C1747 1.398 . S
C1748 C1749 1.391 . S
C1749 H1737 0.950 . S
C1749 C1745 1.393 . S
C1749 C1748 1.391 . S
C1750 H1740 0.950 . S
C1750 C1751 1.386 . S
C1750 C1752 1.391 . S
C1751 C1750 1.386 . S
C1751 C1755 1.393 . S
C1752 H1741 0.950 . S
C1752 C1750 1.391 . S
C1752 C1753 1.400 . S
C1753 C1747 1.491 . S
C1753 C1752 1.400 . S
C1753 C1754 1.398 . S
C1754 H1742 0.950 . S
C1754 C1753 1.398 . S
C1754 C1755 1.391 . S
C1755 H1743 0.950 . S
C1755 C1751 1.393 . S
C1755 C1754 1.391 . S
H1756 C1764 0.950 . S
H1757 C1769 0.950 . S
H1758 C1766 0.950 . S
H1759 C1768 0.950 . S
H1760 C1770 0.950 . S
H1761 C1772 0.950 . S
H1762 C1774 0.950 . S
H1763 C1775 0.950 . S
C1764 H1756 0.950 . S
C1764 C1765 1.386 . S
C1764 C1766 1.391 . S
C1765 C1764 1.386 . S
C1765 C1769 1.393 . S
C1766 H1758 0.950 . S
C1766 C1764 1.391 . S
C1766 C1767 1.400 . S
C1767 C1766 1.400 . S
C1767 C1768 1.398 . S
C1767 C1773 1.491 . S
C1768 H1759 0.950 . S
C1768 C1767 1.398 . S
C1768 C1769 1.391 . S
C1769 H1757 0.950 . S
C1769 C1765 1.393 . S
C1769 C1768 1.391 . S
C1770 H1760 0.950 . S
C1770 C1771 1.386 . S
C1770 C1772 1.391 . S
C1771 C1770 1.386 . S
C1771 C1775 1.393 . S
C1772 H1761 0.950 . S
C1772 C1770 1.391 . S
C1772 C1773 1.400 . S
C1773 C1767 1.491 . S
C1773 C1772 1.400 . S
C1773 C1774 1.398 . S
C1774 H1762 0.950 . S
C1774 C1773 1.398 . S
C1774 C1775 1.391 . S
C1775 H1763 0.950 . S
C1775 C1771 1.393 . S
C1775 C1774 1.391 . S
H1776 C1784 0.950 . S
H1777 C1789 0.950 . S
H1778 C1786 0.950 . S
H1779 C1788 0.950 . S
H1780 C1790 0.950 . S
H1781 C1792 0.950 . S
H1782 C1794 0.950 . S
H1783 C1795 0.950 . S
C1784 H1776 0.950 . S
C1784 C1785 1.386 . S
C1784 C1786 1.391 . S
C1785 C1784 1.386 . S
C1785 C1789 1.393 . S
C1786 H1778 0.950 . S
C1786 C1784 1.391 . S
C1786 C1787 1.400 . S
C1787 C1786 1.400 . S
C1787 C1788 1.398 . S
C1787 C1793 1.491 . S
C1788 H1779 0.950 . S
C1788 C1787 1.398 . S
C1788 C1789 1.391 . S
C1789 H1777 0.950 . S
C1789 C1785 1.393 . S
C1789 C1788 1.391 . S
C1790 H1780 0.950 . S
C1790 C1791 1.386 . S
C1790 C1792 1.391 . S
C1791 C1790 1.386 . S
C1791 C1795 1.393 . S
C1792 H1781 0.950 . S
C1792 C1790 1.391 . S
C1792 C1793 1.400 . S
C1793 C1787 1.491 . S
C1793 C1792 1.400 . S
C1793 C1794 1.398 . S
C1794 H1782 0.950 . S
C1794 C1793 1.398 . S
C1794 C1795 1.391 . S
C1795 H1783 0.950 . S
C1795 C1791 1.393 . S
C1795 C1794 1.391 . S
H1796 C1804 0.950 . S
H1797 C1809 0.950 . S
H1798 C1806 0.950 . S
H1799 C1808 0.950 . S
H1800 C1810 0.950 . S
H1801 C1812 0.950 . S
H1802 C1814 0.950 . S
H1803 C1815 0.950 . S
C1804 H1796 0.950 . S
C1804 C1805 1.386 . S
C1804 C1806 1.391 . S
C1805 C1804 1.386 . S
C1805 C1809 1.393 . S
C1806 H1798 0.950 . S
C1806 C1804 1.391 . S
C1806 C1807 1.400 . S
C1807 C1806 1.400 . S
C1807 C1808 1.398 . S
C1807 C1813 1.491 . S
C1808 H1799 0.950 . S
C1808 C1807 1.398 . S
C1808 C1809 1.391 . S
C1809 H1797 0.950 . S
C1809 C1805 1.393 . S
C1809 C1808 1.391 . S
C1810 H1800 0.950 . S
C1810 C1811 1.386 . S
C1810 C1812 1.391 . S
C1811 C1810 1.386 . S
C1811 C1815 1.393 . S
C1812 H1801 0.950 . S
C1812 C1810 1.391 . S
C1812 C1813 1.400 . S
C1813 C1807 1.491 . S
C1813 C1812 1.400 . S
C1813 C1814 1.398 . S
C1814 H1802 0.950 . S
C1814 C1813 1.398 . S
C1814 C1815 1.391 . S
C1815 H1803 0.950 . S
C1815 C1811 1.393 . S
C1815 C1814 1.391 . S
H1816 C1824 0.950 . S
H1817 C1829 0.950 . S
H1818 C1826 0.950 . S
H1819 C1828 0.950 . S
H1820 C1830 0.950 . S
H1821 C1832 0.950 . S
H1822 C1834 0.950 . S
H1823 C1835 0.950 . S
C1824 H1816 0.950 . S
C1824 C1825 1.386 . S
C1824 C1826 1.391 . S
C1825 C1824 1.386 . S
C1825 C1829 1.393 . S
C1826 H1818 0.950 . S
C1826 C1824 1.391 . S
C1826 C1827 1.400 . S
C1827 C1826 1.400 . S
C1827 C1828 1.398 . S
C1827 C1833 1.491 . S
C1828 H1819 0.950 . S
C1828 C1827 1.398 . S
C1828 C1829 1.391 . S
C1829 H1817 0.950 . S
C1829 C1825 1.393 . S
C1829 C1828 1.391 . S
C1830 H1820 0.950 . S
C1830 C1831 1.386 . S
C1830 C1832 1.391 . S
C1831 C1830 1.386 . S
C1831 C1835 1.393 . S
C1832 H1821 0.950 . S
C1832 C1830 1.391 . S
C1832 C1833 1.400 . S
C1833 C1827 1.491 . S
C1833 C1832 1.400 . S
C1833 C1834 1.398 . S
C1834 H1822 0.950 . S
C1834 C1833 1.398 . S
C1834 C1835 1.391 . S
C1835 H1823 0.950 . S
C1835 C1831 1.393 . S
C1835 C1834 1.391 . S
H1836 C1844 0.950 . S
H1837 C1849 0.950 . S
H1838 C1846 0.950 . S
H1839 C1848 0.950 . S
H1840 C1850 0.950 . S
H1841 C1852 0.950 . S
H1842 C1854 0.950 . S
H1843 C1855 0.950 . S
C1844 H1836 0.950 . S
C1844 C1845 1.386 . S
C1844 C1846 1.391 . S
C1845 C1844 1.386 . S
C1845 C1849 1.393 . S
C1846 H1838 0.950 . S
C1846 C1844 1.391 . S
C1846 C1847 1.400 . S
C1847 C1846 1.400 . S
C1847 C1848 1.398 . S
C1847 C1853 1.491 . S
C1848 H1839 0.950 . S
C1848 C1847 1.398 . S
C1848 C1849 1.391 . S
C1849 H1837 0.950 . S
C1849 C1845 1.393 . S
C1849 C1848 1.391 . S
C1850 H1840 0.950 . S
C1850 C1851 1.386 . S
C1850 C1852 1.391 . S
C1851 C1850 1.386 . S
C1851 C1855 1.393 . S
C1852 H1841 0.950 . S
C1852 C1850 1.391 . S
C1852 C1853 1.400 . S
C1853 C1847 1.491 . S
C1853 C1852 1.400 . S
C1853 C1854 1.398 . S
C1854 H1842 0.950 . S
C1854 C1853 1.398 . S
C1854 C1855 1.391 . S
C1855 H1843 0.950 . S
C1855 C1851 1.393 . S
C1855 C1854 1.391 . S
H1856 C1864 0.950 . S
H1857 C1869 0.950 . S
H1858 C1866 0.950 . S
H1859 C1868 0.950 . S
H1860 C1870 0.950 . S
H1861 C1872 0.950 . S
H1862 C1874 0.950 . S
H1863 C1875 0.950 . S
C1864 H1856 0.950 . S
C1864 C1865 1.386 . S
C1864 C1866 1.391 . S
C1865 C1864 1.386 . S
C1865 C1869 1.393 . S
C1866 H1858 0.950 . S
C1866 C1864 1.391 . S
C1866 C1867 1.400 . S
C1867 C1866 1.400 . S
C1867 C1868 1.398 . S
C1867 C1873 1.491 . S
C1868 H1859 0.950 . S
C1868 C1867 1.398 . S
C1868 C1869 1.391 . S
C1869 H1857 0.950 . S
C1869 C1865 1.393 . S
C1869 C1868 1.391 . S
C1870 H1860 0.950 . S
C1870 C1871 1.386 . S
C1870 C1872 1.391 . S
C1871 C1870 1.386 . S
C1871 C1875 1.393 . S
C1872 H1861 0.950 . S
C1872 C1870 1.391 . S
C1872 C1873 1.400 . S
C1873 C1867 1.491 . S
C1873 C1872 1.400 . S
C1873 C1874 1.398 . S
C1874 H1862 0.950 . S
C1874 C1873 1.398 . S
C1874 C1875 1.391 . S
C1875 H1863 0.950 . S
C1875 C1871 1.393 . S
C1875 C1874 1.391 . S
H1876 C1884 0.950 . S
H1877 C1889 0.950 . S
H1878 C1886 0.950 . S
H1879 C1888 0.950 . S
H1880 C1890 0.950 . S
H1881 C1892 0.950 . S
H1882 C1894 0.950 . S
H1883 C1895 0.950 . S
C1884 H1876 0.950 . S
C1884 C1885 1.386 . S
C1884 C1886 1.391 . S
C1885 C1884 1.386 . S
C1885 C1889 1.393 . S
C1886 H1878 0.950 . S
C1886 C1884 1.391 . S
C1886 C1887 1.400 . S
C1887 C1886 1.400 . S
C1887 C1888 1.398 . S
C1887 C1893 1.491 . S
C1888 H1879 0.950 . S
C1888 C1887 1.398 . S
C1888 C1889 1.391 . S
C1889 H1877 0.950 . S
C1889 C1885 1.393 . S
C1889 C1888 1.391 . S
C1890 H1880 0.950 . S
C1890 C1891 1.386 . S
C1890 C1892 1.391 . S
C1891 C1890 1.386 . S
C1891 C1895 1.393 . S
C1892 H1881 0.950 . S
C1892 C1890 1.391 . S
C1892 C1893 1.400 . S
C1893 C1887 1.491 . S
C1893 C1892 1.400 . S
C1893 C1894 1.398 . S
C1894 H1882 0.950 . S
C1894 C1893 1.398 . S
C1894 C1895 1.391 . S
C1895 H1883 0.950 . S
C1895 C1891 1.393 . S
C1895 C1894 1.391 . S
H1896 C1904 0.950 . S
H1897 C1909 0.950 . S
H1898 C1906 0.950 . S
H1899 C1908 0.950 . S
H1900 C1910 0.950 . S
H1901 C1912 0.950 . S
H1902 C1914 0.950 . S
H1903 C1915 0.950 . S
C1904 H1896 0.950 . S
C1904 C1905 1.386 . S
C1904 C1906 1.391 . S
C1905 C1904 1.386 . S
C1905 C1909 1.393 . S
C1906 H1898 0.950 . S
C1906 C1904 1.391 . S
C1906 C1907 1.400 . S
C1907 C1906 1.400 . S
C1907 C1908 1.398 . S
C1907 C1913 1.491 . S
C1908 H1899 0.950 . S
C1908 C1907 1.398 . S
C1908 C1909 1.391 . S
C1909 H1897 0.950 . S
C1909 C1905 1.393 . S
C1909 C1908 1.391 . S
C1910 H1900 0.950 . S
C1910 C1911 1.386 . S
C1910 C1912 1.391 . S
C1911 C1910 1.386 . S
C1911 C1915 1.393 . S
C1912 H1901 0.950 . S
C1912 C1910 1.391 . S
C1912 C1913 1.400 . S
C1913 C1907 1.491 . S
C1913 C1912 1.400 . S
C1913 C1914 1.398 . S
C1914 H1902 0.950 . S
C1914 C1913 1.398 . S
C1914 C1915 1.391 . S
C1915 H1903 0.950 . S
C1915 C1911 1.393 . S
C1915 C1914 1.391 . S
H1916 C1924 0.950 . S
H1917 C1929 0.950 . S
H1918 C1926 0.950 . S
H1919 C1928 0.950 . S
H1920 C1930 0.950 . S
H1921 C1932 0.950 . S
H1922 C1934 0.950 . S
H1923 C1935 0.950 . S
C1924 H1916 0.950 . S
C1924 C1925 1.386 . S
C1924 C1926 1.391 . S
C1925 C1924 1.386 . S
C1925 C1929 1.393 . S
C1926 H1918 0.950 . S
C1926 C1924 1.391 . S
C1926 C1927 1.400 . S
C1927 C1926 1.400 . S
C1927 C1928 1.398 . S
C1927 C1933 1.491 . S
C1928 H1919 0.950 . S
C1928 C1927 1.398 . S
C1928 C1929 1.391 . S
C1929 H1917 0.950 . S
C1929 C1925 1.393 . S
C1929 C1928 1.391 . S
C1930 H1920 0.950 . S
C1930 C1931 1.386 . S
C1930 C1932 1.391 . S
C1931 C1930 1.386 . S
C1931 C1935 1.393 . S
C1932 H1921 0.950 . S
C1932 C1930 1.391 . S
C1932 C1933 1.400 . S
C1933 C1927 1.491 . S
C1933 C1932 1.400 . S
C1933 C1934 1.398 . S
C1934 H1922 0.950 . S
C1934 C1933 1.398 . S
C1934 C1935 1.391 . S
C1935 H1923 0.950 . S
C1935 C1931 1.393 . S
C1935 C1934 1.391 . S
H1936 C1944 0.950 . S
H1937 C1949 0.950 . S
H1938 C1946 0.950 . S
H1939 C1948 0.950 . S
H1940 C1950 0.950 . S
H1941 C1952 0.950 . S
H1942 C1954 0.950 . S
H1943 C1955 0.950 . S
C1944 H1936 0.950 . S
C1944 C1945 1.386 . S
C1944 C1946 1.391 . S
C1945 C1944 1.386 . S
C1945 C1949 1.393 . S
C1946 H1938 0.950 . S
C1946 C1944 1.391 . S
C1946 C1947 1.400 . S
C1947 C1946 1.400 . S
C1947 C1948 1.398 . S
C1947 C1953 1.491 . S
C1948 H1939 0.950 . S
C1948 C1947 1.398 . S
C1948 C1949 1.391 . S
C1949 H1937 0.950 . S
C1949 C1945 1.393 . S
C1949 C1948 1.391 . S
C1950 H1940 0.950 . S
C1950 C1951 1.386 . S
C1950 C1952 1.391 . S
C1951 C1950 1.386 . S
C1951 C1955 1.393 . S
C1952 H1941 0.950 . S
C1952 C1950 1.391 . S
C1952 C1953 1.400 . S
C1953 C1947 1.491 . S
C1953 C1952 1.400 . S
C1953 C1954 1.398 . S
C1954 H1942 0.950 . S
C1954 C1953 1.398 . S
C1954 C1955 1.391 . S
C1955 H1943 0.950 . S
C1955 C1951 1.393 . S
C1955 C1954 1.391 . S
H1956 C1964 0.950 . S
H1957 C1969 0.950 . S
H1958 C1966 0.950 . S
H1959 C1968 0.950 . S
H1960 C1970 0.950 . S
H1961 C1972 0.950 . S
H1962 C1974 0.950 . S
H1963 C1975 0.950 . S
C1964 H1956 0.950 . S
C1964 C1965 1.386 . S
C1964 C1966 1.391 . S
C1965 C1964 1.386 . S
C1965 C1969 1.393 . S
C1966 H1958 0.950 . S
C1966 C1964 1.391 . S
C1966 C1967 1.400 . S
C1967 C1966 1.400 . S
C1967 C1968 1.398 . S
C1967 C1973 1.491 . S
C1968 H1959 0.950 . S
C1968 C1967 1.398 . S
C1968 C1969 1.391 . S
C1969 H1957 0.950 . S
C1969 C1965 1.393 . S
C1969 C1968 1.391 . S
C1970 H1960 0.950 . S
C1970 C1971 1.386 . S
C1970 C1972 1.391 . S
C1971 C1970 1.386 . S
C1971 C1975 1.393 . S
C1972 H1961 0.950 . S
C1972 C1970 1.391 . S
C1972 C1973 1.400 . S
C1973 C1967 1.491 . S
C1973 C1972 1.400 . S
C1973 C1974 1.398 . S
C1974 H1962 0.950 . S
C1974 C1973 1.398 . S
C1974 C1975 1.391 . S
C1975 H1963 0.950 . S
C1975 C1971 1.393 . S
C1975 C1974 1.391 . S
H1976 C1984 0.950 . S
H1977 C1989 0.950 . S
H1978 C1986 0.950 . S
H1979 C1988 0.950 . S
H1980 C1990 0.950 . S
H1981 C1992 0.950 . S
H1982 C1994 0.950 . S
H1983 C1995 0.950 . S
C1984 H1976 0.950 . S
C1984 C1985 1.386 . S
C1984 C1986 1.391 . S
C1985 C1984 1.386 . S
C1985 C1989 1.393 . S
C1986 H1978 0.950 . S
C1986 C1984 1.391 . S
C1986 C1987 1.400 . S
C1987 C1986 1.400 . S
C1987 C1988 1.398 . S
C1987 C1993 1.491 . S
C1988 H1979 0.950 . S
C1988 C1987 1.398 . S
C1988 C1989 1.391 . S
C1989 H1977 0.950 . S
C1989 C1985 1.393 . S
C1989 C1988 1.391 . S
C1990 H1980 0.950 . S
C1990 C1991 1.386 . S
C1990 C1992 1.391 . S
C1991 C1990 1.386 . S
C1991 C1995 1.393 . S
C1992 H1981 0.950 . S
C1992 C1990 1.391 . S
C1992 C1993 1.400 . S
C1993 C1987 1.491 . S
C1993 C1992 1.400 . S
C1993 C1994 1.398 . S
C1994 H1982 0.950 . S
C1994 C1993 1.398 . S
C1994 C1995 1.391 . S
C1995 H1983 0.950 . S
C1995 C1991 1.393 . S
C1995 C1994 1.391 . S
H1996 C2004 0.950 . S
H1997 C2009 0.950 . S
H1998 C2006 0.950 . S
H1999 C2008 0.950 . S
H2000 C2010 0.950 . S
H2001 C2012 0.950 . S
H2002 C2014 0.950 . S
H2003 C2015 0.950 . S
C2004 H1996 0.950 . S
C2004 C2005 1.386 . S
C2004 C2006 1.391 . S
C2005 C2004 1.386 . S
C2005 C2009 1.393 . S
C2006 H1998 0.950 . S
C2006 C2004 1.391 . S
C2006 C2007 1.400 . S
C2007 C2006 1.400 . S
C2007 C2008 1.398 . S
C2007 C2013 1.491 . S
C2008 H1999 0.950 . S
C2008 C2007 1.398 . S
C2008 C2009 1.391 . S
C2009 H1997 0.950 . S
C2009 C2005 1.393 . S
C2009 C2008 1.391 . S
C2010 H2000 0.950 . S
C2010 C2011 1.386 . S
C2010 C2012 1.391 . S
C2011 C2010 1.386 . S
C2011 C2015 1.393 . S
C2012 H2001 0.950 . S
C2012 C2010 1.391 . S
C2012 C2013 1.400 . S
C2013 C2007 1.491 . S
C2013 C2012 1.400 . S
C2013 C2014 1.398 . S
C2014 H2002 0.950 . S
C2014 C2013 1.398 . S
C2014 C2015 1.391 . S
C2015 H2003 0.950 . S
C2015 C2011 1.393 . S
C2015 C2014 1.391 . S
H2016 C2024 0.950 . S
H2017 C2029 0.950 . S
H2018 C2026 0.950 . S
H2019 C2028 0.950 . S
H2020 C2030 0.950 . S
H2021 C2032 0.950 . S
H2022 C2034 0.950 . S
H2023 C2035 0.950 . S
C2024 H2016 0.950 . S
C2024 C2025 1.386 . S
C2024 C2026 1.391 . S
C2025 C2024 1.386 . S
C2025 C2029 1.393 . S
C2026 H2018 0.950 . S
C2026 C2024 1.391 . S
C2026 C2027 1.400 . S
C2027 C2026 1.400 . S
C2027 C2028 1.398 . S
C2027 C2033 1.491 . S
C2028 H2019 0.950 . S
C2028 C2027 1.398 . S
C2028 C2029 1.391 . S
C2029 H2017 0.950 . S
C2029 C2025 1.393 . S
C2029 C2028 1.391 . S
C2030 H2020 0.950 . S
C2030 C2031 1.386 . S
C2030 C2032 1.391 . S
C2031 C2030 1.386 . S
C2031 C2035 1.393 . S
C2032 H2021 0.950 . S
C2032 C2030 1.391 . S
C2032 C2033 1.400 . S
C2033 C2027 1.491 . S
C2033 C2032 1.400 . S
C2033 C2034 1.398 . S
C2034 H2022 0.950 . S
C2034 C2033 1.398 . S
C2034 C2035 1.391 . S
C2035 H2023 0.950 . S
C2035 C2031 1.393 . S
C2035 C2034 1.391 . S
H2036 C2044 0.950 . S
H2037 C2049 0.950 . S
H2038 C2046 0.950 . S
H2039 C2048 0.950 . S
H2040 C2050 0.950 . S
H2041 C2052 0.950 . S
H2042 C2054 0.950 . S
H2043 C2055 0.950 . S
C2044 H2036 0.950 . S
C2044 C2045 1.386 . S
C2044 C2046 1.391 . S
C2045 C2044 1.386 . S
C2045 C2049 1.393 . S
C2046 H2038 0.950 . S
C2046 C2044 1.391 . S
C2046 C2047 1.400 . S
C2047 C2046 1.400 . S
C2047 C2048 1.398 . S
C2047 C2053 1.491 . S
C2048 H2039 0.950 . S
C2048 C2047 1.398 . S
C2048 C2049 1.391 . S
C2049 H2037 0.950 . S
C2049 C2045 1.393 . S
C2049 C2048 1.391 . S
C2050 H2040 0.950 . S
C2050 C2051 1.386 . S
C2050 C2052 1.391 . S
C2051 C2050 1.386 . S
C2051 C2055 1.393 . S
C2052 H2041 0.950 . S
C2052 C2050 1.391 . S
C2052 C2053 1.400 . S
C2053 C2047 1.491 . S
C2053 C2052 1.400 . S
C2053 C2054 1.398 . S
C2054 H2042 0.950 . S
C2054 C2053 1.398 . S
C2054 C2055 1.391 . S
C2055 H2043 0.950 . S
C2055 C2051 1.393 . S
C2055 C2054 1.391 . S
H2056 C2064 0.950 . S
H2057 C2069 0.950 . S
H2058 C2066 0.950 . S
H2059 C2068 0.950 . S
H2060 C2070 0.950 . S
H2061 C2072 0.950 . S
H2062 C2074 0.950 . S
H2063 C2075 0.950 . S
C2064 H2056 0.950 . S
C2064 C2065 1.386 . S
C2064 C2066 1.391 . S
C2065 C2064 1.386 . S
C2065 C2069 1.393 . S
C2066 H2058 0.950 . S
C2066 C2064 1.391 . S
C2066 C2067 1.400 . S
C2067 C2066 1.400 . S
C2067 C2068 1.398 . S
C2067 C2073 1.491 . S
C2068 H2059 0.950 . S
C2068 C2067 1.398 . S
C2068 C2069 1.391 . S
C2069 H2057 0.950 . S
C2069 C2065 1.393 . S
C2069 C2068 1.391 . S
C2070 H2060 0.950 . S
C2070 C2071 1.386 . S
C2070 C2072 1.391 . S
C2071 C2070 1.386 . S
C2071 C2075 1.393 . S
C2072 H2061 0.950 . S
C2072 C2070 1.391 . S
C2072 C2073 1.400 . S
C2073 C2067 1.491 . S
C2073 C2072 1.400 . S
C2073 C2074 1.398 . S
C2074 H2062 0.950 . S
C2074 C2073 1.398 . S
C2074 C2075 1.391 . S
C2075 H2063 0.950 . S
C2075 C2071 1.393 . S
C2075 C2074 1.391 . S
H2076 C2084 0.950 . S
H2077 C2089 0.950 . S
H2078 C2086 0.950 . S
H2079 C2088 0.950 . S
H2080 C2090 0.950 . S
H2081 C2092 0.950 . S
H2082 C2094 0.950 . S
H2083 C2095 0.950 . S
C2084 H2076 0.950 . S
C2084 C2085 1.386 . S
C2084 C2086 1.391 . S
C2085 C2084 1.386 . S
C2085 C2089 1.393 . S
C2086 H2078 0.950 . S
C2086 C2084 1.391 . S
C2086 C2087 1.400 . S
C2087 C2086 1.400 . S
C2087 C2088 1.398 . S
C2087 C2093 1.491 . S
C2088 H2079 0.950 . S
C2088 C2087 1.398 . S
C2088 C2089 1.391 . S
C2089 H2077 0.950 . S
C2089 C2085 1.393 . S
C2089 C2088 1.391 . S
C2090 H2080 0.950 . S
C2090 C2091 1.386 . S
C2090 C2092 1.391 . S
C2091 C2090 1.386 . S
C2091 C2095 1.393 . S
C2092 H2081 0.950 . S
C2092 C2090 1.391 . S
C2092 C2093 1.400 . S
C2093 C2087 1.491 . S
C2093 C2092 1.400 . S
C2093 C2094 1.398 . S
C2094 H2082 0.950 . S
C2094 C2093 1.398 . S
C2094 C2095 1.391 . S
C2095 H2083 0.950 . S
C2095 C2091 1.393 . S
C2095 C2094 1.391 . S
H2096 C2104 0.950 . S
H2097 C2109 0.950 . S
H2098 C2106 0.950 . S
H2099 C2108 0.950 . S
H2100 C2110 0.950 . S
H2101 C2112 0.950 . S
H2102 C2114 0.950 . S
H2103 C2115 0.950 . S
C2104 H2096 0.950 . S
C2104 C2105 1.386 . S
C2104 C2106 1.391 . S
C2105 C2104 1.386 . S
C2105 C2109 1.393 . S
C2106 H2098 0.950 . S
C2106 C2104 1.391 . S
C2106 C2107 1.400 . S
C2107 C2106 1.400 . S
C2107 C2108 1.398 . S
C2107 C2113 1.491 . S
C2108 H2099 0.950 . S
C2108 C2107 1.398 . S
C2108 C2109 1.391 . S
C2109 H2097 0.950 . S
C2109 C2105 1.393 . S
C2109 C2108 1.391 . S
C2110 H2100 0.950 . S
C2110 C2111 1.386 . S
C2110 C2112 1.391 . S
C2111 C2110 1.386 . S
C2111 C2115 1.393 . S
C2112 H2101 0.950 . S
C2112 C2110 1.391 . S
C2112 C2113 1.400 . S
C2113 C2107 1.491 . S
C2113 C2112 1.400 . S
C2113 C2114 1.398 . S
C2114 H2102 0.950 . S
C2114 C2113 1.398 . S
C2114 C2115 1.391 . S
C2115 H2103 0.950 . S
C2115 C2111 1.393 . S
C2115 C2114 1.391 . S
H2116 C2124 0.950 . S
H2117 C2129 0.950 . S
H2118 C2126 0.950 . S
H2119 C2128 0.950 . S
H2120 C2130 0.950 . S
H2121 C2132 0.950 . S
H2122 C2134 0.950 . S
H2123 C2135 0.950 . S
C2124 H2116 0.950 . S
C2124 C2125 1.386 . S
C2124 C2126 1.391 . S
C2125 C2124 1.386 . S
C2125 C2129 1.393 . S
C2126 H2118 0.950 . S
C2126 C2124 1.391 . S
C2126 C2127 1.400 . S
C2127 C2126 1.400 . S
C2127 C2128 1.398 . S
C2127 C2133 1.491 . S
C2128 H2119 0.950 . S
C2128 C2127 1.398 . S
C2128 C2129 1.391 . S
C2129 H2117 0.950 . S
C2129 C2125 1.393 . S
C2129 C2128 1.391 . S
C2130 H2120 0.950 . S
C2130 C2131 1.386 . S
C2130 C2132 1.391 . S
C2131 C2130 1.386 . S
C2131 C2135 1.393 . S
C2132 H2121 0.950 . S
C2132 C2130 1.391 . S
C2132 C2133 1.400 . S
C2133 C2127 1.491 . S
C2133 C2132 1.400 . S
C2133 C2134 1.398 . S
C2134 H2122 0.950 . S
C2134 C2133 1.398 . S
C2134 C2135 1.391 . S
C2135 H2123 0.950 . S
C2135 C2131 1.393 . S
C2135 C2134 1.391 . S
H2136 C2144 0.950 . S
H2137 C2149 0.950 . S
H2138 C2146 0.950 . S
H2139 C2148 0.950 . S
H2140 C2150 0.950 . S
H2141 C2152 0.950 . S
H2142 C2154 0.950 . S
H2143 C2155 0.950 . S
C2144 H2136 0.950 . S
C2144 C2145 1.386 . S
C2144 C2146 1.391 . S
C2145 C2144 1.386 . S
C2145 C2149 1.393 . S
C2146 H2138 0.950 . S
C2146 C2144 1.391 . S
C2146 C2147 1.400 . S
C2147 C2146 1.400 . S
C2147 C2148 1.398 . S
C2147 C2153 1.491 . S
C2148 H2139 0.950 . S
C2148 C2147 1.398 . S
C2148 C2149 1.391 . S
C2149 H2137 0.950 . S
C2149 C2145 1.393 . S
C2149 C2148 1.391 . S
C2150 H2140 0.950 . S
C2150 C2151 1.386 . S
C2150 C2152 1.391 . S
C2151 C2150 1.386 . S
C2151 C2155 1.393 . S
C2152 H2141 0.950 . S
C2152 C2150 1.391 . S
C2152 C2153 1.400 . S
C2153 C2147 1.491 . S
C2153 C2152 1.400 . S
C2153 C2154 1.398 . S
C2154 H2142 0.950 . S
C2154 C2153 1.398 . S
C2154 C2155 1.391 . S
C2155 H2143 0.950 . S
C2155 C2151 1.393 . S
C2155 C2154 1.391 . S
H2156 C2164 0.950 . S
H2157 C2169 0.950 . S
H2158 C2166 0.950 . S
H2159 C2168 0.950 . S
H2160 C2170 0.950 . S
H2161 C2172 0.950 . S
H2162 C2174 0.950 . S
H2163 C2175 0.950 . S
C2164 H2156 0.950 . S
C2164 C2165 1.386 . S
C2164 C2166 1.391 . S
C2165 C2164 1.386 . S
C2165 C2169 1.393 . S
C2166 H2158 0.950 . S
C2166 C2164 1.391 . S
C2166 C2167 1.400 . S
C2167 C2166 1.400 . S
C2167 C2168 1.398 . S
C2167 C2173 1.491 . S
C2168 H2159 0.950 . S
C2168 C2167 1.398 . S
C2168 C2169 1.391 . S
C2169 H2157 0.950 . S
C2169 C2165 1.393 . S
C2169 C2168 1.391 . S
C2170 H2160 0.950 . S
C2170 C2171 1.386 . S
C2170 C2172 1.391 . S
C2171 C2170 1.386 . S
C2171 C2175 1.393 . S
C2172 H2161 0.950 . S
C2172 C2170 1.391 . S
C2172 C2173 1.400 . S
C2173 C2167 1.491 . S
C2173 C2172 1.400 . S
C2173 C2174 1.398 . S
C2174 H2162 0.950 . S
C2174 C2173 1.398 . S
C2174 C2175 1.391 . S
C2175 H2163 0.950 . S
C2175 C2171 1.393 . S
C2175 C2174 1.391 . S
H2176 C2184 0.950 . S
H2177 C2189 0.950 . S
H2178 C2186 0.950 . S
H2179 C2188 0.950 . S
H2180 C2190 0.950 . S
H2181 C2192 0.950 . S
H2182 C2194 0.950 . S
H2183 C2195 0.950 . S
C2184 H2176 0.950 . S
C2184 C2185 1.386 . S
C2184 C2186 1.391 . S
C2185 C2184 1.386 . S
C2185 C2189 1.393 . S
C2186 H2178 0.950 . S
C2186 C2184 1.391 . S
C2186 C2187 1.400 . S
C2187 C2186 1.400 . S
C2187 C2188 1.398 . S
C2187 C2193 1.491 . S
C2188 H2179 0.950 . S
C2188 C2187 1.398 . S
C2188 C2189 1.391 . S
C2189 H2177 0.950 . S
C2189 C2185 1.393 . S
C2189 C2188 1.391 . S
C2190 H2180 0.950 . S
C2190 C2191 1.386 . S
C2190 C2192 1.391 . S
C2191 C2190 1.386 . S
C2191 C2195 1.393 . S
C2192 H2181 0.950 . S
C2192 C2190 1.391 . S
C2192 C2193 1.400 . S
C2193 C2187 1.491 . S
C2193 C2192 1.400 . S
C2193 C2194 1.398 . S
C2194 H2182 0.950 . S
C2194 C2193 1.398 . S
C2194 C2195 1.391 . S
C2195 H2183 0.950 . S
C2195 C2191 1.393 . S
C2195 C2194 1.391 . S
H2196 C2204 0.950 . S
H2197 C2209 0.950 . S
H2198 C2206 0.950 . S
H2199 C2208 0.950 . S
H2200 C2210 0.950 . S
H2201 C2212 0.950 . S
H2202 C2214 0.950 . S
H2203 C2215 0.950 . S
C2204 H2196 0.950 . S
C2204 C2205 1.386 . S
C2204 C2206 1.391 . S
C2205 C2204 1.386 . S
C2205 C2209 1.393 . S
C2206 H2198 0.950 . S
C2206 C2204 1.391 . S
C2206 C2207 1.400 . S
C2207 C2206 1.400 . S
C2207 C2208 1.398 . S
C2207 C2213 1.491 . S
C2208 H2199 0.950 . S
C2208 C2207 1.398 . S
C2208 C2209 1.391 . S
C2209 H2197 0.950 . S
C2209 C2205 1.393 . S
C2209 C2208 1.391 . S
C2210 H2200 0.950 . S
C2210 C2211 1.386 . S
C2210 C2212 1.391 . S
C2211 C2210 1.386 . S
C2211 C2215 1.393 . S
C2212 H2201 0.950 . S
C2212 C2210 1.391 . S
C2212 C2213 1.400 . S
C2213 C2207 1.491 . S
C2213 C2212 1.400 . S
C2213 C2214 1.398 . S
C2214 H2202 0.950 . S
C2214 C2213 1.398 . S
C2214 C2215 1.391 . S
C2215 H2203 0.950 . S
C2215 C2211 1.393 . S
C2215 C2214 1.391 . S
H2216 C2224 0.950 . S
H2217 C2229 0.950 . S
H2218 C2226 0.950 . S
H2219 C2228 0.950 . S
H2220 C2230 0.950 . S
H2221 C2232 0.950 . S
H2222 C2234 0.950 . S
H2223 C2235 0.950 . S
C2224 H2216 0.950 . S
C2224 C2225 1.386 . S
C2224 C2226 1.391 . S
C2225 C2224 1.386 . S
C2225 C2229 1.393 . S
C2226 H2218 0.950 . S
C2226 C2224 1.391 . S
C2226 C2227 1.400 . S
C2227 C2226 1.400 . S
C2227 C2228 1.398 . S
C2227 C2233 1.491 . S
C2228 H2219 0.950 . S
C2228 C2227 1.398 . S
C2228 C2229 1.391 . S
C2229 H2217 0.950 . S
C2229 C2225 1.393 . S
C2229 C2228 1.391 . S
C2230 H2220 0.950 . S
C2230 C2231 1.386 . S
C2230 C2232 1.391 . S
C2231 C2230 1.386 . S
C2231 C2235 1.393 . S
C2232 H2221 0.950 . S
C2232 C2230 1.391 . S
C2232 C2233 1.400 . S
C2233 C2227 1.491 . S
C2233 C2232 1.400 . S
C2233 C2234 1.398 . S
C2234 H2222 0.950 . S
C2234 C2233 1.398 . S
C2234 C2235 1.391 . S
C2235 H2223 0.950 . S
C2235 C2231 1.393 . S
C2235 C2234 1.391 . S
H2236 C2244 0.950 . S
H2237 C2249 0.950 . S
H2238 C2246 0.950 . S
H2239 C2248 0.950 . S
H2240 C2250 0.950 . S
H2241 C2252 0.950 . S
H2242 C2254 0.950 . S
H2243 C2255 0.950 . S
C2244 H2236 0.950 . S
C2244 C2245 1.386 . S
C2244 C2246 1.391 . S
C2245 C2244 1.386 . S
C2245 C2249 1.393 . S
C2246 H2238 0.950 . S
C2246 C2244 1.391 . S
C2246 C2247 1.400 . S
C2247 C2246 1.400 . S
C2247 C2248 1.398 . S
C2247 C2253 1.491 . S
C2248 H2239 0.950 . S
C2248 C2247 1.398 . S
C2248 C2249 1.391 . S
C2249 H2237 0.950 . S
C2249 C2245 1.393 . S
C2249 C2248 1.391 . S
C2250 H2240 0.950 . S
C2250 C2251 1.386 . S
C2250 C2252 1.391 . S
C2251 C2250 1.386 . S
C2251 C2255 1.393 . S
C2252 H2241 0.950 . S
C2252 C2250 1.391 . S
C2252 C2253 1.400 . S
C2253 C2247 1.491 . S
C2253 C2252 1.400 . S
C2253 C2254 1.398 . S
C2254 H2242 0.950 . S
C2254 C2253 1.398 . S
C2254 C2255 1.391 . S
C2255 H2243 0.950 . S
C2255 C2251 1.393 . S
C2255 C2254 1.391 . S
H2256 C2264 0.950 . S
H2257 C2269 0.950 . S
H2258 C2266 0.950 . S
H2259 C2268 0.950 . S
H2260 C2270 0.950 . S
H2261 C2272 0.950 . S
H2262 C2274 0.950 . S
H2263 C2275 0.950 . S
C2264 H2256 0.950 . S
C2264 C2265 1.386 . S
C2264 C2266 1.391 . S
C2265 C2264 1.386 . S
C2265 C2269 1.393 . S
C2266 H2258 0.950 . S
C2266 C2264 1.391 . S
C2266 C2267 1.400 . S
C2267 C2266 1.400 . S
C2267 C2268 1.398 . S
C2267 C2273 1.491 . S
C2268 H2259 0.950 . S
C2268 C2267 1.398 . S
C2268 C2269 1.391 . S
C2269 H2257 0.950 . S
C2269 C2265 1.393 . S
C2269 C2268 1.391 . S
C2270 H2260 0.950 . S
C2270 C2271 1.386 . S
C2270 C2272 1.391 . S
C2271 C2270 1.386 . S
C2271 C2275 1.393 . S
C2272 H2261 0.950 . S
C2272 C2270 1.391 . S
C2272 C2273 1.400 . S
C2273 C2267 1.491 . S
C2273 C2272 1.400 . S
C2273 C2274 1.398 . S
C2274 H2262 0.950 . S
C2274 C2273 1.398 . S
C2274 C2275 1.391 . S
C2275 H2263 0.950 . S
C2275 C2271 1.393 . S
C2275 C2274 1.391 . S
H2276 C2284 0.950 . S
H2277 C2289 0.950 . S
H2278 C2286 0.950 . S
H2279 C2288 0.950 . S
H2280 C2290 0.950 . S
H2281 C2292 0.950 . S
H2282 C2294 0.950 . S
H2283 C2295 0.950 . S
C2284 H2276 0.950 . S
C2284 C2285 1.386 . S
C2284 C2286 1.391 . S
C2285 C2284 1.386 . S
C2285 C2289 1.393 . S
C2286 H2278 0.950 . S
C2286 C2284 1.391 . S
C2286 C2287 1.400 . S
C2287 C2286 1.400 . S
C2287 C2288 1.398 . S
C2287 C2293 1.491 . S
C2288 H2279 0.950 . S
C2288 C2287 1.398 . S
C2288 C2289 1.391 . S
C2289 H2277 0.950 . S
C2289 C2285 1.393 . S
C2289 C2288 1.391 . S
C2290 H2280 0.950 . S
C2290 C2291 1.386 . S
C2290 C2292 1.391 . S
C2291 C2290 1.386 . S
C2291 C2295 1.393 . S
C2292 H2281 0.950 . S
C2292 C2290 1.391 . S
C2292 C2293 1.400 . S
C2293 C2287 1.491 . S
C2293 C2292 1.400 . S
C2293 C2294 1.398 . S
C2294 H2282 0.950 . S
C2294 C2293 1.398 . S
C2294 C2295 1.391 . S
C2295 H2283 0.950 . S
C2295 C2291 1.393 . S
C2295 C2294 1.391 . S
H2296 C2304 0.950 . S
H2297 C2309 0.950 . S
H2298 C2306 0.950 . S
H2299 C2308 0.950 . S
H2300 C2310 0.950 . S
H2301 C2312 0.950 . S
H2302 C2314 0.950 . S
H2303 C2315 0.950 . S
C2304 H2296 0.950 . S
C2304 C2305 1.386 . S
C2304 C2306 1.391 . S
C2305 C2304 1.386 . S
C2305 C2309 1.393 . S
C2306 H2298 0.950 . S
C2306 C2304 1.391 . S
C2306 C2307 1.400 . S
C2307 C2306 1.400 . S
C2307 C2308 1.398 . S
C2307 C2313 1.491 . S
C2308 H2299 0.950 . S
C2308 C2307 1.398 . S
C2308 C2309 1.391 . S
C2309 H2297 0.950 . S
C2309 C2305 1.393 . S
C2309 C2308 1.391 . S
C2310 H2300 0.950 . S
C2310 C2311 1.386 . S
C2310 C2312 1.391 . S
C2311 C2310 1.386 . S
C2311 C2315 1.393 . S
C2312 H2301 0.950 . S
C2312 C2310 1.391 . S
C2312 C2313 1.400 . S
C2313 C2307 1.491 . S
C2313 C2312 1.400 . S
C2313 C2314 1.398 . S
C2314 H2302 0.950 . S
C2314 C2313 1.398 . S
C2314 C2315 1.391 . S
C2315 H2303 0.950 . S
C2315 C2311 1.393 . S
C2315 C2314 1.391 . S
H2316 C2324 0.950 . S
H2317 C2329 0.950 . S
H2318 C2326 0.950 . S
H2319 C2328 0.950 . S
H2320 C2330 0.950 . S
H2321 C2332 0.950 . S
H2322 C2334 0.950 . S
H2323 C2335 0.950 . S
C2324 H2316 0.950 . S
C2324 C2325 1.386 . S
C2324 C2326 1.391 . S
C2325 C2324 1.386 . S
C2325 C2329 1.393 . S
C2326 H2318 0.950 . S
C2326 C2324 1.391 . S
C2326 C2327 1.400 . S
C2327 C2326 1.400 . S
C2327 C2328 1.398 . S
C2327 C2333 1.491 . S
C2328 H2319 0.950 . S
C2328 C2327 1.398 . S
C2328 C2329 1.391 . S
C2329 H2317 0.950 . S
C2329 C2325 1.393 . S
C2329 C2328 1.391 . S
C2330 H2320 0.950 . S
C2330 C2331 1.386 . S
C2330 C2332 1.391 . S
C2331 C2330 1.386 . S
C2331 C2335 1.393 . S
C2332 H2321 0.950 . S
C2332 C2330 1.391 . S
C2332 C2333 1.400 . S
C2333 C2327 1.491 . S
C2333 C2332 1.400 . S
C2333 C2334 1.398 . S
C2334 H2322 0.950 . S
C2334 C2333 1.398 . S
C2334 C2335 1.391 . S
C2335 H2323 0.950 . S
C2335 C2331 1.393 . S
C2335 C2334 1.391 . S
H2336 C2344 0.950 . S
H2337 C2349 0.950 . S
H2338 C2346 0.950 . S
H2339 C2348 0.950 . S
H2340 C2350 0.950 . S
H2341 C2352 0.950 . S
H2342 C2354 0.950 . S
H2343 C2355 0.950 . S
C2344 H2336 0.950 . S
C2344 C2345 1.386 . S
C2344 C2346 1.391 . S
C2345 C2344 1.386 . S
C2345 C2349 1.393 . S
C2346 H2338 0.950 . S
C2346 C2344 1.391 . S
C2346 C2347 1.400 . S
C2347 C2346 1.400 . S
C2347 C2348 1.398 . S
C2347 C2353 1.491 . S
C2348 H2339 0.950 . S
C2348 C2347 1.398 . S
C2348 C2349 1.391 . S
C2349 H2337 0.950 . S
C2349 C2345 1.393 . S
C2349 C2348 1.391 . S
C2350 H2340 0.950 . S
C2350 C2351 1.386 . S
C2350 C2352 1.391 . S
C2351 C2350 1.386 . S
C2351 C2355 1.393 . S
C2352 H2341 0.950 . S
C2352 C2350 1.391 . S
C2352 C2353 1.400 . S
C2353 C2347 1.491 . S
C2353 C2352 1.400 . S
C2353 C2354 1.398 . S
C2354 H2342 0.950 . S
C2354 C2353 1.398 . S
C2354 C2355 1.391 . S
C2355 H2343 0.950 . S
C2355 C2351 1.393 . S
C2355 C2354 1.391 . S
H2356 C2364 0.950 . S
H2357 C2369 0.950 . S
H2358 C2366 0.950 . S
H2359 C2368 0.950 . S
H2360 C2370 0.950 . S
H2361 C2372 0.950 . S
H2362 C2374 0.950 . S
H2363 C2375 0.950 . S
C2364 H2356 0.950 . S
C2364 C2365 1.386 1_545 S
C2364 C2366 1.391 . S
C2365 C2364 1.386 1_565 S
C2365 C2369 1.393 . S
C2366 H2358 0.950 . S
C2366 C2364 1.391 . S
C2366 C2367 1.400 1_545 S
C2367 C2366 1.400 1_565 S
C2367 C2368 1.398 . S
C2367 C2373 1.491 1_665 S
C2368 H2359 0.950 . S
C2368 C2367 1.398 . S
C2368 C2369 1.391 . S
C2369 H2357 0.950 . S
C2369 C2365 1.393 . S
C2369 C2368 1.391 . S
C2370 H2360 0.950 . S
C2370 C2371 1.386 1_565 S
C2370 C2372 1.391 . S
C2371 C2370 1.386 1_545 S
C2371 C2375 1.393 . S
C2372 H2361 0.950 . S
C2372 C2370 1.391 . S
C2372 C2373 1.400 1_565 S
C2373 C2367 1.491 1_445 S
C2373 C2372 1.400 1_545 S
C2373 C2374 1.398 . S
C2374 H2362 0.950 . S
C2374 C2373 1.398 . S
C2374 C2375 1.391 . S
C2375 H2363 0.950 . S
C2375 C2371 1.393 . S
C2375 C2374 1.391 . S
H2376 C2384 0.950 . S
H2377 C2389 0.950 . S
H2378 C2386 0.950 . S
H2379 C2388 0.950 . S
H2380 C2390 0.950 . S
H2381 C2392 0.950 . S
H2382 C2394 0.950 . S
H2383 C2395 0.950 . S
C2384 H2376 0.950 . S
C2384 C2385 1.386 . S
C2384 C2386 1.391 . S
C2385 C2384 1.386 . S
C2385 C2389 1.393 . S
C2386 H2378 0.950 . S
C2386 C2384 1.391 . S
C2386 C2387 1.400 . S
C2387 C2386 1.400 . S
C2387 C2388 1.398 . S
C2387 C2393 1.491 . S
C2388 H2379 0.950 . S
C2388 C2387 1.398 . S
C2388 C2389 1.391 . S
C2389 H2377 0.950 . S
C2389 C2385 1.393 . S
C2389 C2388 1.391 . S
C2390 H2380 0.950 . S
C2390 C2391 1.386 . S
C2390 C2392 1.391 . S
C2391 C2390 1.386 . S
C2391 C2395 1.393 . S
C2392 H2381 0.950 . S
C2392 C2390 1.391 . S
C2392 C2393 1.400 . S
C2393 C2387 1.491 . S
C2393 C2392 1.400 . S
C2393 C2394 1.398 . S
C2394 H2382 0.950 . S
C2394 C2393 1.398 . S
C2394 C2395 1.391 . S
C2395 H2383 0.950 . S
C2395 C2391 1.393 . S
C2395 C2394 1.391 . S
H2396 C2404 0.950 . S
H2397 C2409 0.950 . S
H2398 C2406 0.950 . S
H2399 C2408 0.944 1_545 S
H2400 C2410 0.950 . S
H2401 C2412 0.950 . S
H2402 C2414 0.944 1_565 S
H2403 C2415 0.950 . S
C2404 H2396 0.950 . S
C2404 C2405 1.386 . S
C2404 C2406 1.391 . S
C2405 C2404 1.386 . S
C2405 C2409 1.393 . S
C2406 H2398 0.950 . S
C2406 C2404 1.391 . S
C2406 C2407 1.400 . S
C2407 C2406 1.400 . S
C2407 C2408 1.400 . S
C2407 C2413 1.491 1_566 S
C2408 H2399 0.944 1_565 S
C2408 C2407 1.400 . S
C2408 C2409 1.396 . S
C2409 H2397 0.950 . S
C2409 C2405 1.393 . S
C2409 C2408 1.396 . S
C2410 H2400 0.950 . S
C2410 C2411 1.386 . S
C2410 C2412 1.391 . S
C2411 C2410 1.386 . S
C2411 C2415 1.393 . S
C2412 H2401 0.950 . S
C2412 C2410 1.391 . S
C2412 C2413 1.400 . S
C2413 C2407 1.491 1_544 S
C2413 C2412 1.400 . S
C2413 C2414 1.400 . S
C2414 H2402 0.944 1_545 S
C2414 C2413 1.400 . S
C2414 C2415 1.396 . S
C2415 H2403 0.950 . S
C2415 C2411 1.393 . S
C2415 C2414 1.396 . S
H2416 C2424 0.950 . S
H2417 C2429 0.950 . S
H2418 C2426 0.950 . S
H2419 C2428 0.950 . S
H2420 C2430 0.950 . S
H2421 C2432 0.950 . S
H2422 C2434 0.950 . S
H2423 C2435 0.950 . S
C2424 H2416 0.950 . S
C2424 C2425 1.386 . S
C2424 C2426 1.391 . S
C2425 C2424 1.386 . S
C2425 C2429 1.393 . S
C2426 H2418 0.950 . S
C2426 C2424 1.391 . S
C2426 C2427 1.400 . S
C2427 C2426 1.400 . S
C2427 C2428 1.398 . S
C2427 C2433 1.491 . S
C2428 H2419 0.950 . S
C2428 C2427 1.398 . S
C2428 C2429 1.391 . S
C2429 H2417 0.950 . S
C2429 C2425 1.393 . S
C2429 C2428 1.391 . S
C2430 H2420 0.950 . S
C2430 C2431 1.386 . S
C2430 C2432 1.391 . S
C2431 C2430 1.386 . S
C2431 C2435 1.393 . S
C2432 H2421 0.950 . S
C2432 C2430 1.391 . S
C2432 C2433 1.400 . S
C2433 C2427 1.491 . S
C2433 C2432 1.400 . S
C2433 C2434 1.398 . S
C2434 H2422 0.950 . S
C2434 C2433 1.398 . S
C2434 C2435 1.391 . S
C2435 H2423 0.950 . S
C2435 C2431 1.393 . S
C2435 C2434 1.391 . S
H2436 C2444 0.950 . S
H2437 C2449 0.950 . S
H2438 C2446 0.950 . S
H2439 C2448 0.950 . S
H2440 C2450 0.950 . S
H2441 C2452 0.950 . S
H2442 C2454 0.950 . S
H2443 C2455 0.950 . S
C2444 H2436 0.950 . S
C2444 C2445 1.386 1_565 S
C2444 C2446 1.391 . S
C2445 C2444 1.386 1_545 S
C2445 C2449 1.393 . S
C2446 H2438 0.950 . S
C2446 C2444 1.391 . S
C2446 C2447 1.400 1_565 S
C2447 C2446 1.400 1_545 S
C2447 C2448 1.398 . S
C2447 C2453 1.491 1_545 S
C2448 H2439 0.950 . S
C2448 C2447 1.398 . S
C2448 C2449 1.391 . S
C2449 H2437 0.950 . S
C2449 C2445 1.393 . S
C2449 C2448 1.391 . S
C2450 H2440 0.950 . S
C2450 C2451 1.386 1_545 S
C2450 C2452 1.391 . S
C2451 C2450 1.386 1_565 S
C2451 C2455 1.393 . S
C2452 H2441 0.950 . S
C2452 C2450 1.391 . S
C2452 C2453 1.400 1_545 S
C2453 C2447 1.491 1_565 S
C2453 C2452 1.400 1_565 S
C2453 C2454 1.398 . S
C2454 H2442 0.950 . S
C2454 C2453 1.398 . S
C2454 C2455 1.391 . S
C2455 H2443 0.950 . S
C2455 C2451 1.393 . S
C2455 C2454 1.391 . S
H2456 C2464 0.950 . S
H2457 C2469 0.950 . S
H2458 C2466 0.950 . S
H2459 C2468 0.950 . S
H2460 C2470 0.950 . S
H2461 C2472 0.950 . S
H2462 C2474 0.950 . S
H2463 C2475 0.950 . S
C2464 H2456 0.950 . S
C2464 C2465 1.386 . S
C2464 C2466 1.391 . S
C2465 C2464 1.386 . S
C2465 C2469 1.393 . S
C2466 H2458 0.950 . S
C2466 C2464 1.391 . S
C2466 C2467 1.400 . S
C2467 C2466 1.400 . S
C2467 C2468 1.398 . S
C2467 C2473 1.491 . S
C2468 H2459 0.950 . S
C2468 C2467 1.398 . S
C2468 C2469 1.391 . S
C2469 H2457 0.950 . S
C2469 C2465 1.393 . S
C2469 C2468 1.391 . S
C2470 H2460 0.950 . S
C2470 C2471 1.386 . S
C2470 C2472 1.391 . S
C2471 C2470 1.386 . S
C2471 C2475 1.393 . S
C2472 H2461 0.950 . S
C2472 C2470 1.391 . S
C2472 C2473 1.400 . S
C2473 C2467 1.491 . S
C2473 C2472 1.400 . S
C2473 C2474 1.398 . S
C2474 H2462 0.950 . S
C2474 C2473 1.398 . S
C2474 C2475 1.391 . S
C2475 H2463 0.950 . S
C2475 C2471 1.393 . S
C2475 C2474 1.391 . S
H2476 C2484 0.950 . S
H2477 C2489 0.950 . S
H2478 C2486 0.950 . S
H2479 C2488 0.950 . S
H2480 C2490 0.950 . S
H2481 C2492 0.950 . S
H2482 C2494 0.950 . S
H2483 C2495 0.950 . S
C2484 H2476 0.950 . S
C2484 C2485 1.386 1_655 S
C2484 C2486 1.391 . S
C2485 C2484 1.386 1_455 S
C2485 C2489 1.393 1_565 S
C2486 H2478 0.950 . S
C2486 C2484 1.391 . S
C2486 C2487 1.400 1_655 S
C2487 C2486 1.400 1_455 S
C2487 C2488 1.398 1_565 S
C2487 C2493 1.491 1_464 S
C2488 H2479 0.950 . S
C2488 C2487 1.398 1_545 S
C2488 C2489 1.391 . S
C2489 H2477 0.950 . S
C2489 C2485 1.393 1_545 S
C2489 C2488 1.391 . S
C2490 H2480 0.950 . S
C2490 C2491 1.386 1_455 S
C2490 C2492 1.391 . S
C2491 C2490 1.386 1_655 S
C2491 C2495 1.393 1_545 S
C2492 H2481 0.950 . S
C2492 C2490 1.391 . S
C2492 C2493 1.400 1_455 S
C2493 C2487 1.491 1_646 S
C2493 C2492 1.400 1_655 S
C2493 C2494 1.398 1_545 S
C2494 H2482 0.950 . S
C2494 C2493 1.398 1_565 S
C2494 C2495 1.391 . S
C2495 H2483 0.950 . S
C2495 C2491 1.393 1_565 S
C2495 C2494 1.391 . S
H2496 C2504 0.950 . S
H2497 C2509 0.950 . S
H2498 C2506 0.950 . S
H2499 C2508 0.950 . S
H2500 C2510 0.950 . S
H2501 C2512 0.950 . S
H2502 C2514 0.950 . S
H2503 C2515 0.950 . S
C2504 H2496 0.950 . S
C2504 C2505 1.386 . S
C2504 C2506 1.391 . S
C2505 C2504 1.386 . S
C2505 C2509 1.393 . S
C2506 H2498 0.950 . S
C2506 C2504 1.391 . S
C2506 C2507 1.400 . S
C2507 C2506 1.400 . S
C2507 C2508 1.398 . S
C2507 C2513 1.491 . S
C2508 H2499 0.950 . S
C2508 C2507 1.398 . S
C2508 C2509 1.391 . S
C2509 H2497 0.950 . S
C2509 C2505 1.393 . S
C2509 C2508 1.391 . S
C2510 H2500 0.950 . S
C2510 C2511 1.386 . S
C2510 C2512 1.391 . S
C2511 C2510 1.386 . S
C2511 C2515 1.393 . S
C2512 H2501 0.950 . S
C2512 C2510 1.391 . S
C2512 C2513 1.400 . S
C2513 C2507 1.491 . S
C2513 C2512 1.400 . S
C2513 C2514 1.398 . S
C2514 H2502 0.950 . S
C2514 C2513 1.398 . S
C2514 C2515 1.391 . S
C2515 H2503 0.950 . S
C2515 C2511 1.393 . S
C2515 C2514 1.391 . S
H2516 C2524 0.950 . S
H2517 C2529 0.950 . S
H2518 C2526 0.950 . S
H2519 C2528 0.950 . S
H2520 C2530 0.950 . S
H2521 C2532 0.950 . S
H2522 C2534 0.950 . S
H2523 C2535 0.950 . S
C2524 H2516 0.950 . S
C2524 C2525 1.386 . S
C2524 C2526 1.391 . S
C2525 C2524 1.386 . S
C2525 C2529 1.393 . S
C2526 H2518 0.950 . S
C2526 C2524 1.391 . S
C2526 C2527 1.400 . S
C2527 C2526 1.400 . S
C2527 C2528 1.398 . S
C2527 C2533 1.491 . S
C2528 H2519 0.950 . S
C2528 C2527 1.398 . S
C2528 C2529 1.391 . S
C2529 H2517 0.950 . S
C2529 C2525 1.393 . S
C2529 C2528 1.391 . S
C2530 H2520 0.950 . S
C2530 C2531 1.386 . S
C2530 C2532 1.391 . S
C2531 C2530 1.386 . S
C2531 C2535 1.393 . S
C2532 H2521 0.950 . S
C2532 C2530 1.391 . S
C2532 C2533 1.400 . S
C2533 C2527 1.491 . S
C2533 C2532 1.400 . S
C2533 C2534 1.398 . S
C2534 H2522 0.950 . S
C2534 C2533 1.398 . S
C2534 C2535 1.391 . S
C2535 H2523 0.950 . S
C2535 C2531 1.393 . S
C2535 C2534 1.391 . S
H2536 C2544 0.950 . S
H2537 C2549 0.950 . S
H2538 C2546 0.950 . S
H2539 C2548 0.950 . S
H2540 C2550 0.950 . S
H2541 C2552 0.950 . S
H2542 C2554 0.950 . S
H2543 C2555 0.950 . S
C2544 H2536 0.950 . S
C2544 C2545 1.386 . S
C2544 C2546 1.391 . S
C2545 C2544 1.386 . S
C2545 C2549 1.393 . S
C2546 H2538 0.950 . S
C2546 C2544 1.391 . S
C2546 C2547 1.400 . S
C2547 C2546 1.400 . S
C2547 C2548 1.398 . S
C2547 C2553 1.491 . S
C2548 H2539 0.950 . S
C2548 C2547 1.398 . S
C2548 C2549 1.391 . S
C2549 H2537 0.950 . S
C2549 C2545 1.393 . S
C2549 C2548 1.391 . S
C2550 H2540 0.950 . S
C2550 C2551 1.386 . S
C2550 C2552 1.391 . S
C2551 C2550 1.386 . S
C2551 C2555 1.393 . S
C2552 H2541 0.950 . S
C2552 C2550 1.391 . S
C2552 C2553 1.400 . S
C2553 C2547 1.491 . S
C2553 C2552 1.400 . S
C2553 C2554 1.398 . S
C2554 H2542 0.950 . S
C2554 C2553 1.398 . S
C2554 C2555 1.391 . S
C2555 H2543 0.950 . S
C2555 C2551 1.393 . S
C2555 C2554 1.391 . S
H2556 C2564 0.950 . S
H2557 C2569 0.950 . S
H2558 C2566 0.950 . S
H2559 C2568 0.950 . S
H2560 C2570 0.950 . S
H2561 C2572 0.950 . S
H2562 C2574 0.950 . S
H2563 C2575 0.950 . S
C2564 H2556 0.950 . S
C2564 C2565 1.386 . S
C2564 C2566 1.391 . S
C2565 C2564 1.386 . S
C2565 C2569 1.393 . S
C2566 H2558 0.950 . S
C2566 C2564 1.391 . S
C2566 C2567 1.400 . S
C2567 C2566 1.400 . S
C2567 C2568 1.398 . S
C2567 C2573 1.491 . S
C2568 H2559 0.950 . S
C2568 C2567 1.398 . S
C2568 C2569 1.391 . S
C2569 H2557 0.950 . S
C2569 C2565 1.393 . S
C2569 C2568 1.391 . S
C2570 H2560 0.950 . S
C2570 C2571 1.386 . S
C2570 C2572 1.391 . S
C2571 C2570 1.386 . S
C2571 C2575 1.393 . S
C2572 H2561 0.950 . S
C2572 C2570 1.391 . S
C2572 C2573 1.400 . S
C2573 C2567 1.491 . S
C2573 C2572 1.400 . S
C2573 C2574 1.398 . S
C2574 H2562 0.950 . S
C2574 C2573 1.398 . S
C2574 C2575 1.391 . S
C2575 H2563 0.950 . S
C2575 C2571 1.393 . S
C2575 C2574 1.391 . S
H2576 C2584 0.950 . S
H2577 C2589 0.950 . S
H2578 C2586 0.950 . S
H2579 C2588 0.950 . S
H2580 C2590 0.950 . S
H2581 C2592 0.950 . S
H2582 C2594 0.950 . S
H2583 C2595 0.950 . S
C2584 H2576 0.950 . S
C2584 C2585 1.386 . S
C2584 C2586 1.391 . S
C2585 C2584 1.386 . S
C2585 C2589 1.393 . S
C2586 H2578 0.950 . S
C2586 C2584 1.391 . S
C2586 C2587 1.400 . S
C2587 C2586 1.400 . S
C2587 C2588 1.398 . S
C2587 C2593 1.491 1_554 S
C2588 H2579 0.950 . S
C2588 C2587 1.398 . S
C2588 C2589 1.391 . S
C2589 H2577 0.950 . S
C2589 C2585 1.393 . S
C2589 C2588 1.391 . S
C2590 H2580 0.950 . S
C2590 C2591 1.386 . S
C2590 C2592 1.391 . S
C2591 C2590 1.386 . S
C2591 C2595 1.393 . S
C2592 H2581 0.950 . S
C2592 C2590 1.391 . S
C2592 C2593 1.400 . S
C2593 C2587 1.491 1_556 S
C2593 C2592 1.400 . S
C2593 C2594 1.398 . S
C2594 H2582 0.950 . S
C2594 C2593 1.398 . S
C2594 C2595 1.391 . S
C2595 H2583 0.950 . S
C2595 C2591 1.393 . S
C2595 C2594 1.391 . S
H2596 C2604 0.950 . S
H2597 C2609 0.950 . S
H2598 C2606 0.950 . S
H2599 C2608 0.950 . S
H2600 C2610 0.950 . S
H2601 C2612 0.950 . S
H2602 C2614 0.950 . S
H2603 C2615 0.950 . S
C2604 H2596 0.950 . S
C2604 C2605 1.386 . S
C2604 C2606 1.391 1_455 S
C2605 C2604 1.386 . S
C2605 C2609 1.393 . S
C2606 H2598 0.950 . S
C2606 C2604 1.391 1_655 S
C2606 C2607 1.400 1_655 S
C2607 C2606 1.400 1_455 S
C2607 C2608 1.398 . S
C2607 C2613 1.491 1_455 S
C2608 H2599 0.950 . S
C2608 C2607 1.398 . S
C2608 C2609 1.391 . S
C2609 H2597 0.950 . S
C2609 C2605 1.393 . S
C2609 C2608 1.391 . S
C2610 H2600 0.950 . S
C2610 C2611 1.386 . S
C2610 C2612 1.391 1_655 S
C2611 C2610 1.386 . S
C2611 C2615 1.393 . S
C2612 H2601 0.950 . S
C2612 C2610 1.391 1_455 S
C2612 C2613 1.400 1_455 S
C2613 C2607 1.491 1_655 S
C2613 C2612 1.400 1_655 S
C2613 C2614 1.398 . S
C2614 H2602 0.950 . S
C2614 C2613 1.398 . S
C2614 C2615 1.391 . S
C2615 H2603 0.950 . S
C2615 C2611 1.393 . S
C2615 C2614 1.391 . S
H2616 C2624 0.950 . S
H2617 C2629 0.950 . S
H2618 C2626 0.950 . S
H2619 C2628 0.950 . S
H2620 C2630 0.950 . S
H2621 C2632 0.950 . S
H2622 C2634 0.950 . S
H2623 C2635 0.950 . S
C2624 H2616 0.950 . S
C2624 C2625 1.386 . S
C2624 C2626 1.391 . S
C2625 C2624 1.386 . S
C2625 C2629 1.393 1_455 S
C2626 H2618 0.950 . S
C2626 C2624 1.391 . S
C2626 C2627 1.400 . S
C2627 C2626 1.400 . S
C2627 C2628 1.398 1_455 S
C2627 C2633 1.491 1_456 S
C2628 H2619 0.950 . S
C2628 C2627 1.398 1_655 S
C2628 C2629 1.391 . S
C2629 H2617 0.950 . S
C2629 C2625 1.393 1_655 S
C2629 C2628 1.391 . S
C2630 H2620 0.950 . S
C2630 C2631 1.386 . S
C2630 C2632 1.391 . S
C2631 C2630 1.386 . S
C2631 C2635 1.393 1_655 S
C2632 H2621 0.950 . S
C2632 C2630 1.391 . S
C2632 C2633 1.400 . S
C2633 C2627 1.491 1_654 S
C2633 C2632 1.400 . S
C2633 C2634 1.398 1_655 S
C2634 H2622 0.950 . S
C2634 C2633 1.398 1_455 S
C2634 C2635 1.391 . S
C2635 H2623 0.950 . S
C2635 C2631 1.393 1_455 S
C2635 C2634 1.391 . S
H2636 C2644 0.950 . S
H2637 C2649 0.950 . S
H2638 C2646 0.950 . S
H2639 C2648 0.950 . S
H2640 C2650 0.950 . S
H2641 C2652 0.950 . S
H2642 C2654 0.950 . S
H2643 C2655 0.950 . S
C2644 H2636 0.950 . S
C2644 C2645 1.386 . S
C2644 C2646 1.391 . S
C2645 C2644 1.386 . S
C2645 C2649 1.393 . S
C2646 H2638 0.950 . S
C2646 C2644 1.391 . S
C2646 C2647 1.400 . S
C2647 C2646 1.400 . S
C2647 C2648 1.398 . S
C2647 C2653 1.491 . S
C2648 H2639 0.950 . S
C2648 C2647 1.398 . S
C2648 C2649 1.391 . S
C2649 H2637 0.950 . S
C2649 C2645 1.393 . S
C2649 C2648 1.391 . S
C2650 H2640 0.950 . S
C2650 C2651 1.386 . S
C2650 C2652 1.391 . S
C2651 C2650 1.386 . S
C2651 C2655 1.393 . S
C2652 H2641 0.950 . S
C2652 C2650 1.391 . S
C2652 C2653 1.400 . S
C2653 C2647 1.491 . S
C2653 C2652 1.400 . S
C2653 C2654 1.398 . S
C2654 H2642 0.950 . S
C2654 C2653 1.398 . S
C2654 C2655 1.391 . S
C2655 H2643 0.950 . S
C2655 C2651 1.393 . S
C2655 C2654 1.391 . S
C1065 N608 1.022 . S
C1071 N14 1.024 . S
C1085 N47 1.026 . S
C1091 N641 1.028 . S
C1105 N80 1.025 . S
C1111 N542 1.027 . S
C1125 N575 1.021 . S
C1131 N113 1.020 . S
C1145 N146 1.051 . S
C1151 N740 1.053 . S
C1165 N773 1.068 . S
C1171 N179 1.070 . S
C1185 N212 1.029 . S
C1191 N674 1.031 . S
C1205 N245 1.038 . S
C1211 N707 1.041 . S
C1225 N278 1.075 . S
C1231 N872 1.075 . S
C1245 N905 1.051 . S
C1251 N311 1.048 . S
C1265 N344 1.034 . S
C1271 N806 1.032 . S
C1285 N377 1.060 . S
C1291 N839 1.057 . S
C1305 N410 1.075 . S
C1311 N1004 1.075 . S
C1325 N1037 1.047 . S
C1331 N443 1.049 . S
C1345 N938 1.049 . S
C1351 N476 1.051 . S
C1365 N971 1.051 . S
C1371 N509 1.049 . S
C1385 C371 0.817 . S
C1391 C28 0.858 . S
C1405 C800 0.819 . S
C1411 C61 0.857 . S
C1425 C94 0.819 . S
C1431 C305 0.854 . S
C1445 C866 0.847 . S
C1451 C127 0.821 . S
C1465 C437 0.832 . S
C1471 C160 0.837 . S
C1485 C193 0.814 . S
C1491 C998 0.858 . S
C1505 C503 0.853 . S
C1511 C226 0.815 . S
C1525 C932 0.848 . S
C1531 C259 0.820 . S
C1545 C107 0.819 . S
C1551 C292 0.853 . S
C1565 C325 0.823 . S
C1571 C536 0.846 . S
C1585 C358 0.828 . S
C1591 C41 0.841 . S
C1605 C602 0.818 . S
C1611 C391 0.853 . S
C1625 C424 0.852 . S
C1631 C173 0.824 . S
C1645 C734 0.821 . S
C1651 C457 0.851 . S
C1665 C490 0.847 . S
C1671 C239 0.824 . S
C1685 C523 0.817 . S
C1691 C668 0.852 . S
C1705 C899 0.826 . S
C1711 C556 0.845 . S
C1725 C589 0.843 . S
C1731 C272 0.827 . S
C1745 C622 0.814 . S
C1751 C833 0.854 . S
C1765 C338 0.816 . S
C1771 C655 0.858 . S
C1785 C688 0.848 . S
C1791 C965 0.828 . S
C1805 C721 0.849 . S
C1811 C470 0.827 . S
C1825 C1031 0.854 . S
C1831 C754 0.815 . S
C1845 C404 0.849 . S
C1851 C787 0.819 . S
C1865 C635 0.815 . S
C1871 C820 0.858 . S
C1885 C853 0.825 . S
C1891 C8 0.844 . S
C1905 C886 0.849 . S
C1911 C569 0.827 . S
C1925 C74 0.830 . S
C1931 C919 0.840 . S
C1945 C952 0.831 . S
C1951 C701 0.837 . S
C1965 C985 0.828 . S
C1971 C206 0.841 . S
C1985 C767 0.850 . S
C1991 C1018 0.819 . S
C2005 C140 0.857 . S
C2011 C1051 0.815 . S
C2025 N236 1.874 . S
C2031 N5 1.875 . S
C2045 N137 1.878 . S
C2051 N38 1.878 . S
C2065 N71 1.878 . S
C2071 N170 1.879 . S
C2085 N203 1.869 . S
C2091 N104 1.869 . S
C2105 N500 1.870 . S
C2111 N269 1.869 . S
C2125 N302 1.878 . S
C2131 N401 1.877 . S
C2145 N434 1.876 . S
C2151 N335 1.875 . S
C2165 N467 1.874 . S
C2171 N368 1.876 . S
C2185 N764 1.876 . S
C2191 N533 1.877 . S
C2205 N665 1.874 . S
C2211 N566 1.872 . S
C2225 N698 1.875 . S
C2231 N599 1.874 . S
C2245 N731 1.877 . S
C2251 N632 1.875 . S
C2265 N797 1.869 . S
C2271 N1028 1.869 . S
C2285 N830 1.878 . S
C2291 N929 1.878 . S
C2305 N863 1.877 . S
C2311 N962 1.875 . S
C2325 N995 1.878 . S
C2331 N896 1.879 . S
C2345 C17 1.395 . S
C2351 C809 1.395 . S
C2365 C314 1.383 . S
C2371 C50 1.383 . S
C2385 C875 1.392 . S
C2391 C83 1.392 . S
C2405 C116 1.393 . S
C2411 C380 1.393 . S
C2425 C149 1.392 . S
C2431 C941 1.392 . S
C2445 C182 1.388 . S
C2451 C446 1.388 . S
C2465 C1007 1.388 . S
C2471 C215 1.388 . S
C2485 C248 1.391 . S
C2491 C512 1.391 . S
C2505 C545 1.392 . S
C2511 C281 1.392 . S
C2525 C611 1.395 . S
C2531 C347 1.395 . S
C2545 C413 1.394 . S
C2551 C677 1.394 . S
C2565 C479 1.388 . S
C2571 C743 1.388 . S
C2585 C842 1.395 . S
C2591 C578 1.395 . S
C2605 C908 1.383 . S
C2611 C644 1.383 . S
C2625 C974 1.393 . S
C2631 C710 1.393 . S
C2645 C1040 1.394 . S
C2651 C776 1.394 . S
